# Generated by pormake.
# Topology wlq, (5)-cn, num edge types: 1
# Building blocks:
#     Node 0, Type 0, BuildingBlock: BEQFEK_clean_sbu_0, # of connection points: 5
#     Node 1, Type 0, BuildingBlock: BEQFEK_clean_sbu_0, # of connection points: 5
#     Node 2, Type 0, BuildingBlock: BEQFEK_clean_sbu_0, # of connection points: 5
#     Node 3, Type 0, BuildingBlock: BEQFEK_clean_sbu_0, # of connection points: 5
#     Node 4, Type 0, BuildingBlock: BEQFEK_clean_sbu_0, # of connection points: 5
#     Node 5, Type 0, BuildingBlock: BEQFEK_clean_sbu_0, # of connection points: 5
#     Node 6, Type 0, BuildingBlock: BEQFEK_clean_sbu_0, # of connection points: 5
#     Node 7, Type 0, BuildingBlock: BEQFEK_clean_sbu_0, # of connection points: 5
#     Node 8, Type 0, BuildingBlock: BEQFEK_clean_sbu_0, # of connection points: 5
#     Node 9, Type 0, BuildingBlock: BEQFEK_clean_sbu_0, # of connection points: 5
#     Node 10, Type 0, BuildingBlock: BEQFEK_clean_sbu_0, # of connection points: 5
#     Node 11, Type 0, BuildingBlock: BEQFEK_clean_sbu_0, # of connection points: 5
#     Node 12, Type 0, BuildingBlock: BEQFEK_clean_sbu_0, # of connection points: 5
#     Node 13, Type 0, BuildingBlock: BEQFEK_clean_sbu_0, # of connection points: 5
#     Node 14, Type 0, BuildingBlock: BEQFEK_clean_sbu_0, # of connection points: 5
#     Node 15, Type 0, BuildingBlock: BEQFEK_clean_sbu_0, # of connection points: 5
#     Node 16, Type 0, BuildingBlock: BEQFEK_clean_sbu_0, # of connection points: 5
#     Node 17, Type 0, BuildingBlock: BEQFEK_clean_sbu_0, # of connection points: 5
#     Node 18, Type 0, BuildingBlock: BEQFEK_clean_sbu_0, # of connection points: 5
#     Node 19, Type 0, BuildingBlock: BEQFEK_clean_sbu_0, # of connection points: 5
#     Node 20, Type 0, BuildingBlock: BEQFEK_clean_sbu_0, # of connection points: 5
#     Node 21, Type 0, BuildingBlock: BEQFEK_clean_sbu_0, # of connection points: 5
#     Node 22, Type 0, BuildingBlock: BEQFEK_clean_sbu_0, # of connection points: 5
#     Node 23, Type 0, BuildingBlock: BEQFEK_clean_sbu_0, # of connection points: 5
#     Node 24, Type 0, BuildingBlock: BEQFEK_clean_sbu_0, # of connection points: 5
#     Node 25, Type 0, BuildingBlock: BEQFEK_clean_sbu_0, # of connection points: 5
#     Node 26, Type 0, BuildingBlock: BEQFEK_clean_sbu_0, # of connection points: 5
#     Node 27, Type 0, BuildingBlock: BEQFEK_clean_sbu_0, # of connection points: 5
#     Node 28, Type 0, BuildingBlock: BEQFEK_clean_sbu_0, # of connection points: 5
#     Node 29, Type 0, BuildingBlock: BEQFEK_clean_sbu_0, # of connection points: 5
#     Node 30, Type 0, BuildingBlock: BEQFEK_clean_sbu_0, # of connection points: 5
#     Node 31, Type 0, BuildingBlock: BEQFEK_clean_sbu_0, # of connection points: 5
#     Node 32, Type 0, BuildingBlock: BEQFEK_clean_sbu_0, # of connection points: 5
#     Node 33, Type 0, BuildingBlock: BEQFEK_clean_sbu_0, # of connection points: 5
#     Node 34, Type 0, BuildingBlock: BEQFEK_clean_sbu_0, # of connection points: 5
#     Node 35, Type 0, BuildingBlock: BEQFEK_clean_sbu_0, # of connection points: 5
#     Edge 36, Type (0, 0), BuildingBlock: ZUJKAS_clean_linker_0, # of connection points: 2
#     Edge 37, Type (0, 0), BuildingBlock: ZUJKAS_clean_linker_0, # of connection points: 2
#     Edge 38, Type (0, 0), BuildingBlock: ZUJKAS_clean_linker_0, # of connection points: 2
#     Edge 39, Type (0, 0), BuildingBlock: ZUJKAS_clean_linker_0, # of connection points: 2
#     Edge 40, Type (0, 0), BuildingBlock: ZUJKAS_clean_linker_0, # of connection points: 2
#     Edge 41, Type (0, 0), BuildingBlock: ZUJKAS_clean_linker_0, # of connection points: 2
#     Edge 42, Type (0, 0), BuildingBlock: ZUJKAS_clean_linker_0, # of connection points: 2
#     Edge 43, Type (0, 0), BuildingBlock: ZUJKAS_clean_linker_0, # of connection points: 2
#     Edge 44, Type (0, 0), BuildingBlock: ZUJKAS_clean_linker_0, # of connection points: 2
#     Edge 45, Type (0, 0), BuildingBlock: ZUJKAS_clean_linker_0, # of connection points: 2
#     Edge 46, Type (0, 0), BuildingBlock: ZUJKAS_clean_linker_0, # of connection points: 2
#     Edge 47, Type (0, 0), BuildingBlock: ZUJKAS_clean_linker_0, # of connection points: 2
#     Edge 48, Type (0, 0), BuildingBlock: ZUJKAS_clean_linker_0, # of connection points: 2
#     Edge 49, Type (0, 0), BuildingBlock: ZUJKAS_clean_linker_0, # of connection points: 2
#     Edge 50, Type (0, 0), BuildingBlock: ZUJKAS_clean_linker_0, # of connection points: 2
#     Edge 51, Type (0, 0), BuildingBlock: ZUJKAS_clean_linker_0, # of connection points: 2
#     Edge 52, Type (0, 0), BuildingBlock: ZUJKAS_clean_linker_0, # of connection points: 2
#     Edge 53, Type (0, 0), BuildingBlock: ZUJKAS_clean_linker_0, # of connection points: 2
#     Edge 54, Type (0, 0), BuildingBlock: ZUJKAS_clean_linker_0, # of connection points: 2
#     Edge 55, Type (0, 0), BuildingBlock: ZUJKAS_clean_linker_0, # of connection points: 2
#     Edge 56, Type (0, 0), BuildingBlock: ZUJKAS_clean_linker_0, # of connection points: 2
#     Edge 57, Type (0, 0), BuildingBlock: ZUJKAS_clean_linker_0, # of connection points: 2
#     Edge 58, Type (0, 0), BuildingBlock: ZUJKAS_clean_linker_0, # of connection points: 2
#     Edge 59, Type (0, 0), BuildingBlock: ZUJKAS_clean_linker_0, # of connection points: 2
#     Edge 60, Type (0, 0), BuildingBlock: ZUJKAS_clean_linker_0, # of connection points: 2
#     Edge 61, Type (0, 0), BuildingBlock: ZUJKAS_clean_linker_0, # of connection points: 2
#     Edge 62, Type (0, 0), BuildingBlock: ZUJKAS_clean_linker_0, # of connection points: 2
#     Edge 63, Type (0, 0), BuildingBlock: ZUJKAS_clean_linker_0, # of connection points: 2
#     Edge 64, Type (0, 0), BuildingBlock: ZUJKAS_clean_linker_0, # of connection points: 2
#     Edge 65, Type (0, 0), BuildingBlock: ZUJKAS_clean_linker_0, # of connection points: 2
#     Edge 66, Type (0, 0), BuildingBlock: ZUJKAS_clean_linker_0, # of connection points: 2
#     Edge 67, Type (0, 0), BuildingBlock: ZUJKAS_clean_linker_0, # of connection points: 2
#     Edge 68, Type (0, 0), BuildingBlock: ZUJKAS_clean_linker_0, # of connection points: 2
#     Edge 69, Type (0, 0), BuildingBlock: ZUJKAS_clean_linker_0, # of connection points: 2
#     Edge 70, Type (0, 0), BuildingBlock: ZUJKAS_clean_linker_0, # of connection points: 2
#     Edge 71, Type (0, 0), BuildingBlock: ZUJKAS_clean_linker_0, # of connection points: 2
#     Edge 72, Type (0, 0), BuildingBlock: ZUJKAS_clean_linker_0, # of connection points: 2
#     Edge 73, Type (0, 0), BuildingBlock: ZUJKAS_clean_linker_0, # of connection points: 2
#     Edge 74, Type (0, 0), BuildingBlock: ZUJKAS_clean_linker_0, # of connection points: 2
#     Edge 75, Type (0, 0), BuildingBlock: ZUJKAS_clean_linker_0, # of connection points: 2
#     Edge 76, Type (0, 0), BuildingBlock: ZUJKAS_clean_linker_0, # of connection points: 2
#     Edge 77, Type (0, 0), BuildingBlock: ZUJKAS_clean_linker_0, # of connection points: 2
#     Edge 78, Type (0, 0), BuildingBlock: ZUJKAS_clean_linker_0, # of connection points: 2
#     Edge 79, Type (0, 0), BuildingBlock: ZUJKAS_clean_linker_0, # of connection points: 2
#     Edge 80, Type (0, 0), BuildingBlock: ZUJKAS_clean_linker_0, # of connection points: 2
#     Edge 81, Type (0, 0), BuildingBlock: ZUJKAS_clean_linker_0, # of connection points: 2
#     Edge 82, Type (0, 0), BuildingBlock: ZUJKAS_clean_linker_0, # of connection points: 2
#     Edge 83, Type (0, 0), BuildingBlock: ZUJKAS_clean_linker_0, # of connection points: 2
#     Edge 84, Type (0, 0), BuildingBlock: ZUJKAS_clean_linker_0, # of connection points: 2
#     Edge 85, Type (0, 0), BuildingBlock: ZUJKAS_clean_linker_0, # of connection points: 2
#     Edge 86, Type (0, 0), BuildingBlock: ZUJKAS_clean_linker_0, # of connection points: 2
#     Edge 87, Type (0, 0), BuildingBlock: ZUJKAS_clean_linker_0, # of connection points: 2
#     Edge 88, Type (0, 0), BuildingBlock: ZUJKAS_clean_linker_0, # of connection points: 2
#     Edge 89, Type (0, 0), BuildingBlock: ZUJKAS_clean_linker_0, # of connection points: 2
#     Edge 90, Type (0, 0), BuildingBlock: ZUJKAS_clean_linker_0, # of connection points: 2
#     Edge 91, Type (0, 0), BuildingBlock: ZUJKAS_clean_linker_0, # of connection points: 2
#     Edge 92, Type (0, 0), BuildingBlock: ZUJKAS_clean_linker_0, # of connection points: 2
#     Edge 93, Type (0, 0), BuildingBlock: ZUJKAS_clean_linker_0, # of connection points: 2
#     Edge 94, Type (0, 0), BuildingBlock: ZUJKAS_clean_linker_0, # of connection points: 2
#     Edge 95, Type (0, 0), BuildingBlock: ZUJKAS_clean_linker_0, # of connection points: 2
#     Edge 96, Type (0, 0), BuildingBlock: ZUJKAS_clean_linker_0, # of connection points: 2
#     Edge 97, Type (0, 0), BuildingBlock: ZUJKAS_clean_linker_0, # of connection points: 2
#     Edge 98, Type (0, 0), BuildingBlock: ZUJKAS_clean_linker_0, # of connection points: 2
#     Edge 99, Type (0, 0), BuildingBlock: ZUJKAS_clean_linker_0, # of connection points: 2
#     Edge 100, Type (0, 0), BuildingBlock: ZUJKAS_clean_linker_0, # of connection points: 2
#     Edge 101, Type (0, 0), BuildingBlock: ZUJKAS_clean_linker_0, # of connection points: 2
#     Edge 102, Type (0, 0), BuildingBlock: ZUJKAS_clean_linker_0, # of connection points: 2
#     Edge 103, Type (0, 0), BuildingBlock: ZUJKAS_clean_linker_0, # of connection points: 2
#     Edge 104, Type (0, 0), BuildingBlock: ZUJKAS_clean_linker_0, # of connection points: 2
#     Edge 105, Type (0, 0), BuildingBlock: ZUJKAS_clean_linker_0, # of connection points: 2
#     Edge 106, Type (0, 0), BuildingBlock: ZUJKAS_clean_linker_0, # of connection points: 2
#     Edge 107, Type (0, 0), BuildingBlock: ZUJKAS_clean_linker_0, # of connection points: 2
#     Edge 108, Type (0, 0), BuildingBlock: ZUJKAS_clean_linker_0, # of connection points: 2
#     Edge 109, Type (0, 0), BuildingBlock: ZUJKAS_clean_linker_0, # of connection points: 2
#     Edge 110, Type (0, 0), BuildingBlock: ZUJKAS_clean_linker_0, # of connection points: 2
#     Edge 111, Type (0, 0), BuildingBlock: ZUJKAS_clean_linker_0, # of connection points: 2
#     Edge 112, Type (0, 0), BuildingBlock: ZUJKAS_clean_linker_0, # of connection points: 2
#     Edge 113, Type (0, 0), BuildingBlock: ZUJKAS_clean_linker_0, # of connection points: 2
#     Edge 114, Type (0, 0), BuildingBlock: ZUJKAS_clean_linker_0, # of connection points: 2
#     Edge 115, Type (0, 0), BuildingBlock: ZUJKAS_clean_linker_0, # of connection points: 2
#     Edge 116, Type (0, 0), BuildingBlock: ZUJKAS_clean_linker_0, # of connection points: 2
#     Edge 117, Type (0, 0), BuildingBlock: ZUJKAS_clean_linker_0, # of connection points: 2
#     Edge 118, Type (0, 0), BuildingBlock: ZUJKAS_clean_linker_0, # of connection points: 2
#     Edge 119, Type (0, 0), BuildingBlock: ZUJKAS_clean_linker_0, # of connection points: 2
#     Edge 120, Type (0, 0), BuildingBlock: ZUJKAS_clean_linker_0, # of connection points: 2
#     Edge 121, Type (0, 0), BuildingBlock: ZUJKAS_clean_linker_0, # of connection points: 2
#     Edge 122, Type (0, 0), BuildingBlock: ZUJKAS_clean_linker_0, # of connection points: 2
#     Edge 123, Type (0, 0), BuildingBlock: ZUJKAS_clean_linker_0, # of connection points: 2
#     Edge 124, Type (0, 0), BuildingBlock: ZUJKAS_clean_linker_0, # of connection points: 2
#     Edge 125, Type (0, 0), BuildingBlock: ZUJKAS_clean_linker_0, # of connection points: 2
# Relax obj value: 0.121
# Max RMSD: 0.139
# Mean RMSD: 0.139
data_MOF--net-wlq--node1-BEQFEK_clean_sbu_0--edge1-ZUJKAS_clean_linker_0
_symmetry_space_group_name_H-M    P1
_symmetry_Int_Tables_number       1
_symmetry_cell_setting            triclinic
loop_
_symmetry_equiv_pos_as_xyz
'x, y, z'
_cell_length_a     95.672652
_cell_length_b     95.667222
_cell_length_c     46.694934
_cell_angle_alpha  89.997789
_cell_angle_beta   89.992567
_cell_angle_gamma 119.99807
loop_
_atom_site_label
_atom_site_type_symbol
_atom_site_fract_x
_atom_site_fract_y
_atom_site_fract_z
_atom_type_partial_charge
Co0 Co 0.22108 0.20097 0.97708 0.0
Co1 Co 0.23086 0.20387 0.04201 0.0
C2 C 0.25419 0.22542 0.99754 0.0
O3 O 0.24357 0.21844 0.97822 0.0
O4 O 0.25117 0.22123 0.02376 0.0
C5 C 0.21864 0.21257 0.92218 0.0
O6 O 0.22893 0.22661 0.93339 0.0
C7 C 0.23811 0.21673 0.10152 0.0
C8 C 0.23342 0.19481 0.12523 0.0
C9 C 0.23803 0.21091 0.12886 0.0
N10 N 0.23361 0.20453 0.08272 0.0
N11 N 0.2309 0.19151 0.0971 0.0
C12 C 0.24341 0.23376 0.09314 0.0
H13 H 0.24509 0.23532 0.06961 0.0
H14 H 0.23421 0.23692 0.09971 0.0
H15 H 0.25483 0.24214 0.10431 0.0
C16 C 0.1952 0.20549 0.00088 0.0
N17 N 0.20865 0.20454 0.00421 0.0
N18 N 0.21222 0.20538 0.03164 0.0
C19 C 0.20077 0.20653 0.04672 0.0
C20 C 0.1897 0.20672 0.02768 0.0
C21 C 0.18821 0.20578 0.97235 0.0
H22 H 0.19765 0.21558 0.95917 0.0
H23 H 0.17789 0.20794 0.97421 0.0
H24 H 0.18428 0.19418 0.96114 0.0
O25 O 0.22001 0.18016 0.98431 0.0
O26 O 0.22763 0.18254 0.02974 0.0
H27 H 0.20346 0.1977 0.08745 0.0
H28 H 0.18689 0.20166 0.08565 0.0
C29 C 0.19948 0.20589 0.07867 0.0
H30 H 0.20728 0.21816 0.08745 0.0
H31 H 0.22723 0.18031 0.08774 0.0
O32 O 0.21316 0.19995 0.93757 0.0
C33 C 0.22318 0.17453 0.00648 0.0
Co34 Co 0.79924 0.02098 0.97609 0.0
Co35 Co 0.79386 0.02636 0.04058 0.0
C36 C 0.77512 0.03094 0.99484 0.0
O37 O 0.78287 0.02764 0.9765 0.0
O38 O 0.77765 0.03072 0.02163 0.0
C39 C 0.78713 0.00635 0.92242 0.0
O40 O 0.77326 0.00146 0.9354 0.0
C41 C 0.78087 0.02326 0.10025 0.0
C42 C 0.8034 0.03116 0.12458 0.0
C43 C 0.78706 0.02551 0.12797 0.0
N44 N 0.79304 0.02721 0.08157 0.0
N45 N 0.80645 0.03203 0.09638 0.0
C46 C 0.76389 0.01805 0.09161 0.0
H47 H 0.76366 0.02307 0.07037 0.0
H48 H 0.75686 0.0047 0.0901 0.0
H49 H 0.75804 0.02201 0.1077 0.0
C50 C 0.7918 0.98921 0.99823 0.0
N51 N 0.79376 0.00401 0.00199 0.0
N52 N 0.79107 0.00588 0.02899 0.0
C53 C 0.78713 0.99211 0.04326 0.0
C54 C 0.78738 0.98108 0.02415 0.0
C55 C 0.79522 0.98344 0.97072 0.0
H56 H 0.80562 0.99356 0.95968 0.0
H57 H 0.7845 0.97885 0.95658 0.0
H58 H 0.79796 0.97361 0.97447 0.0
O59 O 0.82028 0.03943 0.98545 0.0
O60 O 0.81606 0.04417 0.03021 0.0
H61 H 0.79336 0.9973 0.08745 0.0
H62 H 0.77788 0.97664 0.08061 0.0
C63 C 0.78262 0.9894 0.07426 0.0
H64 H 0.77326 0.99269 0.07855 0.0
H65 H 0.8177 0.03569 0.08718 0.0
O66 O 0.80015 0.01457 0.93635 0.0
C67 C 0.82513 0.04779 0.00822 0.0
Co68 Co 0.97631 0.77822 0.97738 0.0
Co69 Co 0.97082 0.76804 0.04217 0.0
C70 C 0.96781 0.7448 0.99711 0.0
O71 O 0.97105 0.75564 0.97838 0.0
O72 O 0.96721 0.74756 0.02369 0.0
C73 C 0.99181 0.78151 0.9243 0.0
O74 O 0.99725 0.77312 0.93771 0.0
C75 C 0.97431 0.75866 0.10189 0.0
C76 C 0.96548 0.77256 0.12608 0.0
C77 C 0.97179 0.76243 0.12956 0.0
N78 N 0.96989 0.76647 0.08314 0.0
N79 N 0.96451 0.77461 0.09785 0.0
C80 C 0.98022 0.74743 0.09336 0.0
H81 H 0.97518 0.74188 0.07231 0.0
H82 H 0.99356 0.75428 0.09149 0.0
H83 H 0.97681 0.73781 0.10966 0.0
C84 C 0.00744 0.80365 0.99975 0.0
N85 N 0.99286 0.79049 0.00354 0.0
N86 N 0.99104 0.78614 0.03065 0.0
C87 C 0.00462 0.79644 0.04497 0.0
C88 C 0.01548 0.80778 0.02575 0.0
C89 C 0.01311 0.81268 0.97206 0.0
H90 H 0.00286 0.81246 0.96061 0.0
H91 H 0.01817 0.80679 0.9584 0.0
H92 H 0.0226 0.82542 0.97567 0.0
O93 O 0.95699 0.77953 0.98582 0.0
O94 O 0.95267 0.77178 0.03127 0.0
H95 H 0.99887 0.79729 0.08891 0.0
H96 H 0.0199 0.80371 0.08267 0.0
C97 C 0.00733 0.79506 0.07613 0.0
H98 H 0.00477 0.78265 0.08076 0.0
H99 H 0.96039 0.78181 0.08857 0.0
O100 O 0.98284 0.78558 0.9377 0.0
C101 C 0.94868 0.77636 0.0086 0.0
Co102 Co 0.19773 0.22089 0.56466 0.0
Co103 Co 0.2009 0.23138 0.50011 0.0
C104 C 0.22273 0.25396 0.54545 0.0
O105 O 0.21557 0.24313 0.56436 0.0
O106 O 0.21847 0.25132 0.51922 0.0
C107 C 0.20911 0.21746 0.61891 0.0
O108 O 0.22323 0.22706 0.60718 0.0
C109 C 0.21488 0.23922 0.44158 0.0
C110 C 0.19337 0.23415 0.41617 0.0
C111 C 0.20957 0.2389 0.41369 0.0
N112 N 0.20229 0.23463 0.4595 0.0
N113 N 0.18953 0.23177 0.44413 0.0
C114 C 0.23174 0.2446 0.45126 0.0
H115 H 0.23342 0.24866 0.47387 0.0
H116 H 0.23412 0.23441 0.44983 0.0
H117 H 0.24059 0.25449 0.43737 0.0
C118 C 0.2017 0.19485 0.53969 0.0
N119 N 0.20099 0.20847 0.537 0.0
N120 N 0.20187 0.21234 0.50971 0.0
C121 C 0.20273 0.20089 0.49408 0.0
C122 C 0.20276 0.18953 0.51259 0.0
C123 C 0.20202 0.18758 0.56791 0.0
H124 H 0.19054 0.18381 0.57947 0.0
H125 H 0.21201 0.19682 0.58104 0.0
H126 H 0.20392 0.17712 0.56557 0.0
O127 O 0.17733 0.22066 0.55746 0.0
O128 O 0.17952 0.22829 0.51202 0.0
H129 H 0.1938 0.20412 0.45386 0.0
H130 H 0.19721 0.1872 0.45482 0.0
C131 C 0.20183 0.1998 0.4621 0.0
H132 H 0.21405 0.20738 0.45302 0.0
H133 H 0.1781 0.22792 0.4527 0.0
O134 O 0.19641 0.21261 0.60397 0.0
C135 C 0.17167 0.22396 0.53548 0.0
Co136 Co 0.77849 0.97906 0.56329 0.0
Co137 Co 0.76889 0.97222 0.49844 0.0
C138 C 0.74544 0.9707 0.54198 0.0
O139 O 0.75601 0.97405 0.56128 0.0
O140 O 0.74848 0.96964 0.51571 0.0
C141 C 0.7803 0.99344 0.61733 0.0
O142 O 0.77067 0.99763 0.60473 0.0
C143 C 0.762 0.97738 0.4385 0.0
C144 C 0.77049 0.9629 0.41528 0.0
C145 C 0.76427 0.97308 0.4111 0.0
N146 N 0.76686 0.97018 0.45771 0.0
N147 N 0.7717 0.96138 0.44363 0.0
C148 C 0.75662 0.98909 0.4465 0.0
H149 H 0.76026 0.99338 0.46882 0.0
H150 H 0.76177 -0.00051 0.43153 0.0
H151 H 0.74326 0.98296 0.44511 0.0
C152 C 0.8046 0.00942 0.53979 0.0
N153 N 0.79116 0.99502 0.53636 0.0
N154 N 0.78755 0.99239 0.50895 0.0
C155 C 0.7989 0.00512 0.49395 0.0
C156 C 0.81003 0.01631 0.51304 0.0
C157 C 0.81155 0.01662 0.5684 0.0
H158 H 0.80224 0.01743 0.5812 0.0
H159 H 0.82219 0.0289 0.56667 0.0
H160 H 0.81494 0.00862 0.57995 0.0
O161 O 0.77959 0.95936 0.55661 0.0
O162 O 0.77175 0.95391 0.51133 0.0
H163 H 0.79703 0.99425 0.45292 0.0
H164 H 0.81206 0.01539 0.45465 0.0
C165 C 0.79987 0.00608 0.46197 0.0
H166 H 0.79095 0.00927 0.4538 0.0
H167 H 0.7763 0.95471 0.45336 0.0
O168 O 0.78581 0.98597 0.603 0.0
C169 C 0.77624 0.95041 0.53462 0.0
Co170 Co 0.02193 0.80039 0.56556 0.0
Co171 Co 0.0276 0.79844 0.49987 0.0
C172 C 0.02942 0.77573 0.54145 0.0
O173 O 0.02628 0.78253 0.56182 0.0
O174 O 0.03045 0.78048 0.5156 0.0
C175 C 0.00853 0.78792 0.62044 0.0
O176 O 0.00433 0.77401 0.60815 0.0
C177 C 0.02157 0.7867 0.43981 0.0
C178 C 0.03512 0.80983 0.41661 0.0
C179 C 0.02526 0.79338 0.41244 0.0
N180 N 0.02883 0.79873 0.45903 0.0
N181 N 0.03705 0.81247 0.44496 0.0
C182 C 0.01037 0.76949 0.44786 0.0
H183 H 0.00627 0.76866 0.47036 0.0
H184 H -0.00019 0.76398 0.43325 0.0
H185 H 0.01685 0.76262 0.44596 0.0
C186 C 0.99127 0.79666 0.54458 0.0
N187 N 0.0056 0.79765 0.5399 0.0
N188 N 0.00772 0.79688 0.51219 0.0
C189 C 0.99473 0.79559 0.4983 0.0
C190 C 0.9839 0.79538 0.51839 0.0
C191 C 0.98455 0.79611 0.5738 0.0
H192 H 0.98395 0.78586 0.58587 0.0
H193 H 0.97225 0.79448 0.57305 0.0
H194 H 0.99274 0.80738 0.5855 0.0
O195 O 0.04185 0.82105 0.55867 0.0
O196 O 0.04604 0.81951 0.51239 0.0
H197 H 0.00473 0.80502 0.45694 0.0
H198 H 0.98349 0.79827 0.46006 0.0
C199 C 0.99317 0.79572 0.46643 0.0
H200 H 0.99023 0.78377 0.45778 0.0
H201 H 0.04363 0.82374 0.45473 0.0
O202 O 0.01572 0.80079 0.60575 0.0
C203 C 0.0502 0.82705 0.53614 0.0
Co204 Co 0.77764 0.80056 0.06765 0.0
Co205 Co 0.76648 0.79489 0.00332 0.0
C206 C 0.74444 0.77442 0.04979 0.0
O207 O 0.75542 0.78259 0.06796 0.0
O208 O 0.74673 0.77753 0.02307 0.0
C209 C 0.78287 0.78969 0.12076 0.0
O210 O 0.77607 0.77576 0.10731 0.0
C211 C 0.7577 0.78053 0.94456 0.0
C212 C 0.7664 0.80279 0.91896 0.0
C213 C 0.75936 0.7862 0.91658 0.0
N214 N 0.76372 0.79329 0.9625 0.0
N215 N 0.76875 0.8065 0.94695 0.0
C216 C 0.74974 0.7633 0.95415 0.0
H217 H 0.74567 0.76216 0.97668 0.0
H218 H 0.75838 0.75882 0.95271 0.0
H219 H 0.73931 0.75564 0.94008 0.0
C220 C 0.80362 0.79592 0.04424 0.0
N221 N 0.79005 0.79668 0.04103 0.0
N222 N 0.78563 0.7943 0.01391 0.0
C223 C 0.79649 0.79211 0.99898 0.0
C224 C 0.80806 0.79284 0.01785 0.0
C225 C 0.81267 0.7989 0.0718 0.0
H226 H 0.81228 0.80863 0.08402 0.0
H227 H 0.80696 0.78771 0.08481 0.0
H228 H 0.82545 0.80238 0.06791 0.0
O229 O 0.7779 0.82067 0.05856 0.0
O230 O 0.76908 0.81637 0.01371 0.0
H231 H 0.79411 0.79839 0.95597 0.0
H232 H 0.80676 0.78939 0.95942 0.0
C233 C 0.79573 0.78914 0.96743 0.0
H234 H 0.78523 0.77714 0.96272 0.0
H235 H 0.77406 0.81813 0.95545 0.0
O236 O 0.78542 0.80229 0.10731 0.0
C237 C 0.77387 0.82523 0.03601 0.0
Co238 Co 0.19673 0.97811 0.0637 0.0
Co239 Co 0.20177 0.97274 0.99898 0.0
C240 C 0.22137 0.96906 0.04421 0.0
O241 O 0.21362 0.97217 0.06284 0.0
O242 O 0.21846 0.969 0.01754 0.0
C243 C 0.20918 0.99329 0.11679 0.0
O244 O 0.2229 0.99862 0.103 0.0
C245 C 0.21482 0.97628 0.93938 0.0
C246 C 0.19222 0.96772 0.91493 0.0
C247 C 0.20867 0.97393 0.91163 0.0
N248 N 0.20253 0.97187 0.958 0.0
N249 N 0.18908 0.96664 0.94313 0.0
C250 C 0.23191 0.98203 0.94811 0.0
H251 H 0.23228 0.97682 0.96906 0.0
H252 H 0.23846 0.99536 0.95028 0.0
H253 H 0.23815 0.97868 0.93179 0.0
C254 C 0.20294 0.00946 0.04135 0.0
N255 N 0.20146 0.99485 0.03763 0.0
N256 N 0.20399 0.99299 0.01054 0.0
C257 C 0.20733 0.00657 0.99616 0.0
C258 C 0.20686 0.01747 0.0153 0.0
C259 C 0.19958 0.01517 0.06899 0.0
H260 H 0.18951 0.00493 0.08041 0.0
H261 H 0.2105 0.02016 0.08271 0.0
H262 H 0.1964 0.0247 0.06533 0.0
O263 O 0.17588 0.95916 0.05482 0.0
O264 O 0.17988 0.95461 0.0098 0.0
H265 H 0.20074 0.00087 0.9522 0.0
H266 H 0.21555 0.02184 0.95844 0.0
C267 C 0.21147 0.00924 0.96501 0.0
H268 H 0.22122 0.00654 0.96043 0.0
H269 H 0.17775 0.96258 0.95228 0.0
O270 O 0.19602 0.98457 0.10356 0.0
C271 C 0.171 0.95077 0.03208 0.0
Co272 Co 0.02044 0.21965 0.06628 0.0
Co273 Co 0.02611 0.22987 0.00143 0.0
C274 C 0.0278 0.25265 0.04664 0.0
O275 O 0.02469 0.24187 0.06543 0.0
O276 O 0.02886 0.25001 0.02015 0.0
C277 C 0.005 0.21567 0.11985 0.0
O278 O 0.99914 0.22386 0.10701 0.0
C279 C 0.02164 0.23876 0.94193 0.0
C280 C 0.03285 0.2272 0.91728 0.0
C281 C 0.02493 0.23589 0.91417 0.0
N282 N 0.02719 0.23183 0.96045 0.0
N283 N 0.03398 0.22509 0.94546 0.0
C284 C 0.01406 0.24851 0.9507 0.0
H285 H 0.01824 0.25374 0.97229 0.0
H286 H 0.00076 0.24067 0.95145 0.0
H287 H 0.01699 0.25832 0.93501 0.0
C288 C 0.98991 0.1935 0.04346 0.0
N289 N 0.00428 0.20694 0.03981 0.0
N290 N 0.0062 0.21117 0.01263 0.0
C291 C 0.99289 0.20045 0.9981 0.0
C292 C 0.9821 0.18901 0.01728 0.0
C293 C 0.98417 0.18465 0.07129 0.0
H294 H 0.99441 0.18497 0.08297 0.0
H295 H 0.97907 0.19061 0.08465 0.0
H296 H 0.97472 0.17187 0.06789 0.0
O297 O 0.04036 0.21946 0.05811 0.0
O298 O 0.04478 0.22699 0.01254 0.0
H299 H -0.00014 0.20072 0.9545 0.0
H300 H 0.97831 0.1919 0.95956 0.0
C301 C 0.99035 0.20153 0.96676 0.0
H302 H 0.99143 0.21336 0.96212 0.0
H303 H 0.03918 0.21879 0.95449 0.0
O304 O 0.0141 0.21199 0.10591 0.0
C305 C 0.04889 0.22282 0.03557 0.0
Co306 Co 0.7996 0.77865 0.48025 0.0
Co307 Co 0.79528 0.76857 0.54508 0.0
C308 C 0.77467 0.74538 0.49997 0.0
O309 O 0.78198 0.75621 0.48107 0.0
O310 O 0.77843 0.74814 0.52641 0.0
C311 C 0.78823 0.78311 0.42663 0.0
O312 O 0.77425 0.77625 0.43991 0.0
C313 C 0.78177 0.75978 0.60431 0.0
C314 C 0.80435 0.76876 0.62905 0.0
C315 C 0.78776 0.76124 0.63195 0.0
N316 N 0.79434 0.76627 0.58596 0.0
N317 N 0.80776 0.77156 0.60099 0.0
C318 C 0.76444 0.75146 0.59538 0.0
H319 H 0.76336 0.75132 0.57172 0.0
H320 H 0.75837 0.7577 0.60467 0.0
H321 H 0.75817 0.73892 0.60374 0.0
C322 C 0.79445 0.80446 0.50311 0.0
N323 N 0.79567 0.79116 0.50665 0.0
N324 N 0.79338 0.78688 0.53383 0.0
C325 C 0.79053 0.7974 0.54843 0.0
C326 C 0.79098 0.80879 0.52934 0.0
C327 C 0.79755 0.81343 0.47542 0.0
H328 H 0.80723 0.81288 0.46331 0.0
H329 H 0.78637 0.80776 0.46236 0.0
H330 H 0.80117 0.82626 0.47912 0.0
O331 O 0.8201 0.77957 0.48858 0.0
O332 O 0.81711 0.77228 0.53424 0.0
H333 H 0.79674 0.7962 0.59203 0.0
H334 H 0.78491 0.80604 0.58735 0.0
C335 C 0.78678 0.79612 0.57974 0.0
H336 H 0.77561 0.78453 0.58386 0.0
H337 H 0.8193 0.77715 0.59209 0.0
O338 O 0.80084 0.78594 0.44036 0.0
C339 C 0.82545 0.7766 0.5113 0.0
Co340 Co 0.22154 0.02262 0.47616 0.0
Co341 Co 0.22985 0.02963 0.54149 0.0
C342 C 0.25425 0.0315 0.49942 0.0
O343 O 0.24402 0.02775 0.47934 0.0
O344 O 0.25068 0.03277 0.52527 0.0
C345 C 0.22055 0.00868 0.42175 0.0
O346 O 0.23067 0.00506 0.43408 0.0
C347 C 0.23612 0.02447 0.60174 0.0
C348 C 0.22695 0.03852 0.62444 0.0
C349 C 0.23337 0.02854 0.62899 0.0
N350 N 0.23133 0.03159 0.58226 0.0
N351 N 0.22609 0.04014 0.59603 0.0
C352 C 0.24186 0.01299 0.59411 0.0
H353 H 0.23854 0.00875 0.57169 0.0
H354 H 0.23667 0.00253 0.60897 0.0
H355 H 0.2552 0.0193 0.59601 0.0
C356 C 0.19539 0.992 0.49911 0.0
N357 N 0.20858 0.00657 0.50286 0.0
N358 N 0.2117 0.0093 0.53042 0.0
C359 C 0.20028 0.9965 0.54514 0.0
C360 C 0.18963 0.98513 0.52576 0.0
C361 C 0.18898 0.98466 0.47035 0.0
H362 H 0.1852 0.99226 0.45848 0.0
H363 H 0.19872 0.98439 0.45798 0.0
H364 H 0.1787 0.97215 0.47192 0.0
O365 O 0.22018 0.0423 0.48215 0.0
O366 O 0.22644 0.04745 0.52811 0.0
H367 H 0.20124 0.00748 0.58569 0.0
H368 H 0.18646 0.98628 0.58387 0.0
C369 C 0.19873 0.99566 0.57707 0.0
H370 H 0.20759 0.99265 0.5862 0.0
H371 H 0.22143 0.04669 0.58603 0.0
O372 O 0.21457 0.01566 0.43629 0.0
C373 C 0.22257 0.051 0.50422 0.0
Co374 Co 0.97741 0.20145 0.47818 0.0
Co375 Co 0.97035 0.2045 0.54285 0.0
C376 C 0.96866 0.22593 0.49769 0.0
O377 O 0.97233 0.21884 0.47866 0.0
O378 O 0.9675 0.22186 0.524 0.0
C379 C 0.99145 0.21279 0.4233 0.0
O380 O 0.99516 0.22686 0.43431 0.0
C381 C 0.97652 0.21809 0.6017 0.0
C382 C 0.95878 0.19685 0.62634 0.0
C383 C 0.97076 0.21282 0.62924 0.0
N384 N 0.96835 0.2057 0.58346 0.0
N385 N 0.95773 0.19309 0.59838 0.0
C386 C 0.9887 0.23483 0.59256 0.0
H387 H 0.98938 0.23576 0.56885 0.0
H388 H 0.00076 0.23813 0.6011 0.0
H389 H 0.98538 0.24354 0.60147 0.0
C390 C 0.0078 0.20613 0.50239 0.0
N391 N 0.99338 0.20517 0.50551 0.0
N392 N 0.99055 0.206 0.53289 0.0
C393 C 0.00307 0.2071 0.54816 0.0
C394 C 0.01442 0.2073 0.5293 0.0
C395 C 0.01522 0.20648 0.47396 0.0
H396 H 0.01537 0.21612 0.46059 0.0
H397 H 0.02778 0.20893 0.47596 0.0
H398 H 0.00775 0.19479 0.46287 0.0
O399 O 0.95764 0.18076 0.48553 0.0
O400 O 0.95232 0.18292 0.53103 0.0
H401 H 0.01163 0.20177 0.58715 0.0
H402 H 0.00828 0.21861 0.58901 0.0
C403 C 0.00355 0.20633 0.58012 0.0
H404 H 0.99128 0.19834 0.58873 0.0
H405 H 0.94982 0.18185 0.58949 0.0
O406 O 0.98436 0.20023 0.43885 0.0
C407 C 0.94883 0.175 0.50766 0.0
Co408 Co 0.8869 0.53304 0.31016 0.0
Co409 Co 0.89687 0.53598 0.37469 0.0
C410 C 0.91963 0.55857 0.33092 0.0
O411 O 0.90897 0.55123 0.3118 0.0
O412 O 0.91691 0.55422 0.35713 0.0
C413 C 0.88294 0.54519 0.25713 0.0
O414 O 0.89078 0.55914 0.27037 0.0
C415 C 0.904 0.54793 0.43468 0.0
C416 C 0.89533 0.52485 0.45765 0.0
C417 C 0.90163 0.54124 0.46197 0.0
N418 N 0.89911 0.53594 0.41534 0.0
N419 N 0.8942 0.52224 0.42927 0.0
C420 C 0.90944 0.56507 0.42699 0.0
H421 H 0.9059 0.56587 0.40467 0.0
H422 H 0.90424 0.57024 0.44204 0.0
H423 H 0.92278 0.57228 0.42862 0.0
C424 C 0.85999 0.53584 0.33457 0.0
N425 N 0.87379 0.53546 0.33748 0.0
N426 N 0.87778 0.53679 0.36475 0.0
C427 C 0.86643 0.53796 0.38014 0.0
C428 C 0.85485 0.53744 0.3615 0.0
C429 C 0.85248 0.53553 0.30626 0.0
H430 H 0.86072 0.54664 0.29425 0.0
H431 H 0.84074 0.53507 0.30847 0.0
H432 H 0.85087 0.52501 0.29362 0.0
O433 O 0.88702 0.5128 0.31626 0.0
O434 O 0.8945 0.51502 0.36172 0.0
H435 H 0.854 0.53589 0.42002 0.0
H436 H 0.87518 0.5507 0.41956 0.0
C437 C 0.86602 0.53851 0.41213 0.0
H438 H 0.86886 0.52955 0.42136 0.0
H439 H 0.88953 0.511 0.41942 0.0
O440 O 0.87936 0.53232 0.27067 0.0
C441 C 0.89046 0.50724 0.33819 0.0
Co442 Co 0.46649 0.35648 0.30913 0.0
Co443 Co 0.46346 0.36268 0.3744 0.0
C444 C 0.44161 0.36431 0.33016 0.0
O445 O 0.44867 0.36089 0.3107 0.0
O446 O 0.44595 0.36557 0.3563 0.0
C447 C 0.45468 0.34254 0.25457 0.0
O448 O 0.44072 0.33803 0.26693 0.0
C449 C 0.44963 0.35561 0.43315 0.0
C450 C 0.47126 0.37152 0.45875 0.0
C451 C 0.45503 0.36014 0.46114 0.0
N452 N 0.46219 0.36382 0.41524 0.0
N453 N 0.47502 0.37338 0.43074 0.0
C454 C 0.43271 0.34441 0.42341 0.0
H455 H 0.43107 0.34699 0.4009 0.0
H456 H 0.43011 0.33177 0.42455 0.0
H457 H 0.42398 0.34555 0.4375 0.0
C458 C 0.46247 0.32604 0.33183 0.0
N459 N 0.46322 0.34032 0.33566 0.0
N460 N 0.46232 0.34278 0.3632 0.0
C461 C 0.46137 0.33013 0.37784 0.0
C462 C 0.46133 0.3191 0.35841 0.0
C463 C 0.4622 0.31902 0.30303 0.0
H464 H 0.45209 0.31832 0.29034 0.0
H465 H 0.46051 0.30671 0.30445 0.0
H466 H 0.47361 0.32706 0.29154 0.0
O467 O 0.48695 0.37649 0.31697 0.0
O468 O 0.48487 0.38112 0.36292 0.0
H469 H 0.47029 0.3414 0.41872 0.0
H470 H 0.46659 0.321 0.41624 0.0
C471 C 0.46216 0.32926 0.40975 0.0
H472 H 0.44993 0.32458 0.41882 0.0
H473 H 0.48644 0.38103 0.42222 0.0
O474 O 0.46755 0.3501 0.2692 0.0
C475 C 0.49268 0.38505 0.3394 0.0
Co476 Co 0.64356 0.11189 0.31237 0.0
Co477 Co 0.63793 0.10064 0.37669 0.0
C478 C 0.63442 0.07794 0.33033 0.0
O479 O 0.63767 0.08911 0.3123 0.0
O480 O 0.63411 0.08033 0.35716 0.0
C481 C 0.65864 0.11511 0.25886 0.0
O482 O 0.66372 0.10628 0.27178 0.0
C483 C 0.64168 0.09083 0.43602 0.0
C484 C 0.63217 0.1039 0.46091 0.0
C485 C 0.63896 0.09415 0.46388 0.0
N486 N 0.6369 0.09851 0.41764 0.0
N487 N 0.63112 0.10615 0.43278 0.0
C488 C 0.64805 0.08005 0.42699 0.0
H489 H 0.64344 0.07494 0.40548 0.0
H490 H 0.66141 0.08712 0.42589 0.0
H491 H 0.64455 0.07013 0.44268 0.0
C492 C 0.67485 0.13664 0.33532 0.0
N493 N 0.66022 0.1235 0.33873 0.0
N494 N 0.65827 0.11882 0.36566 0.0
C495 C 0.67182 0.12893 0.38028 0.0
C496 C 0.68279 0.14046 0.36142 0.0
C497 C 0.68063 0.14597 0.30794 0.0
H498 H 0.67046 0.14609 0.2968 0.0
H499 H 0.68547 0.14005 0.29382 0.0
H500 H 0.69029 0.1586 0.31189 0.0
O501 O 0.62464 0.11379 0.32166 0.0
O502 O 0.61992 0.10473 0.36637 0.0
H503 H 0.66557 0.129 0.4242 0.0
H504 H 0.68678 0.13608 0.41841 0.0
C505 C 0.67435 0.12727 0.41141 0.0
H506 H 0.67215 0.11495 0.41554 0.0
H507 H 0.62669 0.11318 0.42387 0.0
O508 O 0.65013 0.11958 0.27277 0.0
C509 C 0.61622 0.11011 0.34437 0.0
Co510 Co 0.86364 0.55287 0.89781 0.0
Co511 Co 0.8697 0.56337 0.83333 0.0
C512 C 0.88853 0.58665 0.87895 0.0
O513 O 0.88051 0.57572 0.89732 0.0
O514 O 0.88606 0.58386 0.85217 0.0
C515 C 0.87489 0.54885 0.95145 0.0
O516 O 0.88878 0.55538 0.93786 0.0
C517 C 0.88306 0.57308 0.77384 0.0
C518 C 0.8607 0.55812 0.74925 0.0
C519 C 0.87703 0.56896 0.74605 0.0
N520 N 0.87081 0.56481 0.79238 0.0
N521 N 0.85751 0.55603 0.77741 0.0
C522 C 0.89995 0.58499 0.78269 0.0
H523 H 0.89999 0.59038 0.8037 0.0
H524 H 0.90703 0.57875 0.78479 0.0
H525 H 0.90585 0.59471 0.76646 0.0
C526 C 0.8702 0.52769 0.8766 0.0
N527 N 0.86881 0.54086 0.87254 0.0
N528 N 0.87195 0.54544 0.8456 0.0
C529 C 0.87575 0.53539 0.83174 0.0
C530 C 0.87482 0.52385 0.851 0.0
C531 C 0.86593 0.51824 0.90392 0.0
H532 H 0.85611 0.51899 0.9151 0.0
H533 H 0.87669 0.52333 0.91804 0.0
H534 H 0.862 0.50537 0.89976 0.0
O535 O 0.84292 0.55076 0.88768 0.0
O536 O 0.84757 0.55951 0.84281 0.0
H537 H 0.87023 0.53413 0.78716 0.0
H538 H 0.88591 0.52943 0.79541 0.0
C539 C 0.88081 0.53724 0.80102 0.0
H540 H 0.89004 0.54997 0.79686 0.0
H541 H 0.84624 0.54838 0.78649 0.0
O542 O 0.86224 0.54596 0.93786 0.0
C543 C 0.83834 0.55429 0.86463 0.0
Co544 Co 0.44385 0.30995 0.89696 0.0
Co545 Co 0.43423 0.30276 0.83204 0.0
C546 C 0.41076 0.30116 0.87592 0.0
O547 O 0.42139 0.305 0.8953 0.0
O548 O 0.41377 0.29969 0.84982 0.0
C549 C 0.44682 0.32566 0.9501 0.0
O550 O 0.43782 0.33048 0.937 0.0
C551 C 0.42625 0.30743 0.77247 0.0
C552 C 0.43386 0.29243 0.74852 0.0
C553 C 0.42743 0.30246 0.74505 0.0
N554 N 0.43187 0.30072 0.79123 0.0
N555 N 0.4363 0.29171 0.77671 0.0
C556 C 0.41892 0.31745 0.78091 0.0
H557 H 0.41986 0.31955 0.80438 0.0
H558 H 0.42501 0.32922 0.76967 0.0
H559 H 0.40604 0.31116 0.77441 0.0
C560 C 0.46938 0.34058 0.87297 0.0
N561 N 0.45635 0.32585 0.86976 0.0
N562 N 0.45252 0.32316 0.84242 0.0
C563 C 0.46325 0.33621 0.82731 0.0
C564 C 0.47412 0.3477 0.84628 0.0
C565 C 0.47759 0.34737 0.90099 0.0
H566 H 0.47817 0.33786 0.91363 0.0
H567 H 0.47052 0.35164 0.91327 0.0
H568 H 0.49002 0.35763 0.89788 0.0
O569 O 0.44483 0.29018 0.89047 0.0
O570 O 0.4378 0.28484 0.84479 0.0
H571 H 0.46154 0.32692 0.78492 0.0
H572 H 0.47377 0.34865 0.78738 0.0
C573 C 0.4628 0.33786 0.79552 0.0
H574 H 0.45222 0.33906 0.78984 0.0
H575 H 0.44116 0.28516 0.78603 0.0
O576 O 0.45135 0.31712 0.93649 0.0
C577 C 0.44199 0.28135 0.86844 0.0
Co578 Co 0.68717 0.13426 0.90023 0.0
Co579 Co 0.69267 0.13069 0.83495 0.0
C580 C 0.69487 0.10912 0.87815 0.0
O581 O 0.6918 0.11653 0.89755 0.0
O582 O 0.69567 0.11304 0.8518 0.0
C583 C 0.6722 0.12185 0.95409 0.0
O584 O 0.66671 0.10791 0.94102 0.0
C585 C 0.68833 0.11898 0.77442 0.0
C586 C 0.69826 0.14233 0.75185 0.0
C587 C 0.69086 0.12584 0.74719 0.0
N588 N 0.6938 0.13094 0.79398 0.0
N589 N 0.69991 0.14484 0.78023 0.0
C590 C 0.67974 0.10145 0.78201 0.0
H591 H 0.67577 0.09968 0.80471 0.0
H592 H 0.66917 0.09458 0.76777 0.0
H593 H 0.68811 0.09669 0.77912 0.0
C594 C 0.65633 0.12969 0.87844 0.0
N595 N 0.67082 0.13097 0.87426 0.0
N596 N 0.67264 0.12891 0.84692 0.0
C597 C 0.65914 0.12611 0.83281 0.0
C598 C 0.64834 0.12643 0.85241 0.0
C599 C 0.6506 0.13233 0.90668 0.0
H600 H 0.6608 0.14222 0.9185 0.0
H601 H 0.64576 0.12113 0.91961 0.0
H602 H 0.64096 0.13546 0.90388 0.0
O603 O 0.7069 0.15473 0.89282 0.0
O604 O 0.71116 0.1521 0.84697 0.0
H605 H 0.66546 0.13279 0.78899 0.0
H606 H 0.64408 0.11947 0.79478 0.0
C607 C 0.65634 0.12235 0.80153 0.0
H608 H 0.65778 0.11182 0.79673 0.0
H609 H 0.70477 0.15605 0.79029 0.0
O610 O 0.68084 0.1348 0.94023 0.0
C611 C 0.7153 0.16017 0.87021 0.0
Co612 Co 0.44449 0.13505 0.40138 0.0
Co613 Co 0.43516 0.13071 0.33618 0.0
C614 C 0.41151 0.11002 0.38065 0.0
O615 O 0.42211 0.11734 0.39985 0.0
O616 O 0.41453 0.11383 0.35427 0.0
C617 C 0.44887 0.12323 0.4542 0.0
O618 O 0.44271 0.10961 0.43984 0.0
C619 C 0.4265 0.11735 0.27665 0.0
C620 C 0.43888 0.14006 0.25192 0.0
C621 C 0.42973 0.12348 0.24887 0.0
N622 N 0.43365 0.12982 0.29514 0.0
N623 N 0.4409 0.14332 0.2801 0.0
C624 C 0.41624 0.10008 0.28544 0.0
H625 H 0.41098 0.09923 0.30693 0.0
H626 H 0.42372 0.09422 0.2864 0.0
H627 H 0.40643 0.09344 0.26964 0.0
C628 C 0.47077 0.13027 0.3798 0.0
N629 N 0.45739 0.13127 0.37567 0.0
N630 N 0.45334 0.12884 0.3484 0.0
C631 C 0.46404 0.12603 0.33437 0.0
C632 C 0.47534 0.1267 0.35392 0.0
C633 C 0.47971 0.13385 0.4076 0.0
H634 H 0.47861 0.14326 0.41953 0.0
H635 H 0.47451 0.12271 0.42075 0.0
H636 H 0.49269 0.13806 0.40401 0.0
O637 O 0.44541 0.15551 0.39271 0.0
O638 O 0.4387 0.15255 0.34673 0.0
H639 H 0.46468 0.13278 0.29055 0.0
H640 H 0.4724 0.11918 0.29653 0.0
C641 C 0.46313 0.12226 0.30311 0.0
H642 H 0.45108 0.11189 0.29819 0.0
H643 H 0.44744 0.15481 0.28911 0.0
O644 O 0.45128 0.13598 0.44149 0.0
C645 C 0.44271 0.16086 0.3697 0.0
Co646 Co 0.8643 0.31186 0.39768 0.0
Co647 Co 0.86797 0.30499 0.33313 0.0
C648 C 0.88955 0.30386 0.37775 0.0
O649 O 0.88201 0.30712 0.39659 0.0
O650 O 0.88577 0.30272 0.35129 0.0
C651 C 0.87599 0.32656 0.45204 0.0
O652 O 0.89008 0.33093 0.44033 0.0
C653 C 0.87997 0.30958 0.27293 0.0
C654 C 0.85675 0.29583 0.25011 0.0
C655 C 0.87319 0.30551 0.24567 0.0
N656 N 0.86798 0.30276 0.29238 0.0
N657 N 0.8542 0.29437 0.2785 0.0
C658 C 0.89725 0.32083 0.2805 0.0
H659 H 0.89826 0.32519 0.30286 0.0
H660 H 0.90267 0.33121 0.26548 0.0
H661 H 0.90406 0.3143 0.27868 0.0
C662 C 0.86865 0.34213 0.3733 0.0
N663 N 0.8677 0.3277 0.37036 0.0
N664 N 0.86917 0.32506 0.34313 0.0
C665 C 0.87091 0.33782 0.32778 0.0
C666 C 0.87068 0.34903 0.34642 0.0
C667 C 0.86848 0.34938 0.40163 0.0
H668 H 0.87863 0.35052 0.41482 0.0
H669 H 0.86981 0.36152 0.3995 0.0
H670 H 0.85707 0.34123 0.41303 0.0
O671 O 0.84368 0.29198 0.39069 0.0
O672 O 0.84685 0.28659 0.34577 0.0
H673 H 0.86947 0.34852 0.28783 0.0
H674 H 0.88379 0.34152 0.28859 0.0
C675 C 0.87167 0.33886 0.2958 0.0
H676 H 0.86251 0.3272 0.28641 0.0
H677 H 0.84294 0.2881 0.28841 0.0
O678 O 0.86328 0.31882 0.43711 0.0
C679 C 0.83852 0.28299 0.36867 0.0
Co680 Co 0.68812 0.55609 0.39739 0.0
Co681 Co 0.69487 0.5653 0.33231 0.0
C682 C 0.69715 0.58915 0.37631 0.0
O683 O 0.69323 0.57859 0.39581 0.0
O684 O 0.69845 0.58595 0.35026 0.0
C685 C 0.67385 0.55417 0.45146 0.0
O686 O 0.6697 0.56385 0.43894 0.0
C687 C 0.68935 0.57328 0.27333 0.0
C688 C 0.7029 0.56441 0.24817 0.0
C689 C 0.69324 0.57134 0.24538 0.0
N690 N 0.69622 0.56752 0.29148 0.0
N691 N 0.7044 0.56238 0.27624 0.0
C692 C 0.67989 0.58104 0.28287 0.0
H693 H 0.6833 0.58577 0.30495 0.0
H694 H 0.66684 0.57196 0.28288 0.0
H695 H 0.68193 0.59099 0.26814 0.0
C696 C 0.65744 0.53017 0.37415 0.0
N697 N 0.67193 0.54351 0.37066 0.0
N698 N 0.67456 0.54704 0.34321 0.0
C699 C 0.66177 0.53577 0.32828 0.0
C700 C 0.65051 0.52476 0.34742 0.0
C701 C 0.65026 0.52322 0.40277 0.0
H702 H 0.64948 0.53254 0.41561 0.0
H703 H 0.63798 0.51259 0.40103 0.0
H704 H 0.65826 0.5198 0.41428 0.0
O705 O 0.70781 0.55496 0.39011 0.0
O706 O 0.71276 0.56154 0.34417 0.0
H707 H 0.6513 0.52259 0.28904 0.0
H708 H 0.65833 0.5439 0.28772 0.0
C709 C 0.66092 0.53464 0.2963 0.0
H710 H 0.67264 0.53693 0.28755 0.0
H711 H 0.71079 0.55721 0.285 0.0
O712 O 0.68133 0.54867 0.43709 0.0
C713 C 0.7164 0.5575 0.36781 0.0
Co714 Co 0.46385 0.1095 0.81371 0.0
Co715 Co 0.46013 0.09899 0.87818 0.0
C716 C 0.43868 0.07639 0.8328 0.0
O717 O 0.446 0.0872 0.81392 0.0
O718 O 0.44269 0.07904 0.85914 0.0
C719 C 0.45263 0.11334 0.75961 0.0
O720 O 0.43844 0.10496 0.77191 0.0
C721 C 0.44631 0.09155 0.93687 0.0
C722 C 0.46736 0.09469 0.9617 0.0
C723 C 0.45144 0.0909 0.96444 0.0
N724 N 0.45874 0.09567 0.91875 0.0
N725 N 0.47123 0.09744 0.93378 0.0
C726 C 0.42967 0.08722 0.92756 0.0
H727 H 0.42894 0.08746 0.90386 0.0
H728 H 0.4263 0.09581 0.93675 0.0
H729 H 0.42088 0.07502 0.93571 0.0
C730 C 0.46007 0.13578 0.83804 0.0
N731 N 0.46046 0.122 0.84096 0.0
N732 N 0.45922 0.11805 0.86826 0.0
C733 C 0.45829 0.12953 0.88366 0.0
C734 C 0.45871 0.14105 0.865 0.0
C735 C 0.46044 0.14332 0.80973 0.0
H736 H 0.45003 0.13459 0.79673 0.0
H737 H 0.45968 0.15444 0.81189 0.0
H738 H 0.47165 0.14606 0.79811 0.0
O739 O 0.48433 0.11003 0.82145 0.0
O740 O 0.48149 0.10193 0.86666 0.0
H741 H 0.46301 0.14295 0.92311 0.0
H742 H 0.44617 0.12272 0.92394 0.0
C743 C 0.45858 0.13041 0.91566 0.0
H744 H 0.46646 0.12605 0.92448 0.0
H745 H 0.48246 0.10064 0.92501 0.0
O746 O 0.4653 0.1174 0.77418 0.0
C747 C 0.48969 0.10653 0.8436 0.0
Co748 Co 0.88758 0.35418 0.81016 0.0
Co749 Co 0.8987 0.36042 0.87457 0.0
C750 C 0.92108 0.3624 0.82823 0.0
O751 O 0.91005 0.35918 0.80992 0.0
O752 O 0.91866 0.36322 0.8549 0.0
C753 C 0.88423 0.34001 0.75536 0.0
O754 O 0.89408 0.33566 0.76653 0.0
C755 C 0.90742 0.35523 0.93355 0.0
C756 C 0.89861 0.36885 0.95864 0.0
C757 C 0.90565 0.3593 0.96151 0.0
N758 N 0.90145 0.36191 0.91537 0.0
N759 N 0.89637 0.37013 0.9306 0.0
C760 C 0.91519 0.34579 0.92399 0.0
H761 H 0.9196 0.34895 0.90168 0.0
H762 H 0.90622 0.33271 0.92464 0.0
H763 H 0.92538 0.34812 0.93837 0.0
C764 C 0.86191 0.32373 0.83419 0.0
N765 N 0.87554 0.33802 0.83719 0.0
N766 N 0.8798 0.34042 0.86436 0.0
C767 C 0.86873 0.32765 0.87963 0.0
C768 C 0.85707 0.31669 0.86098 0.0
C769 C 0.85414 0.31684 0.8059 0.0
H770 H 0.85069 0.3251 0.79547 0.0
H771 H 0.86298 0.31591 0.79188 0.0
H772 H 0.8434 0.30465 0.80791 0.0
O773 O 0.88675 0.37384 0.81877 0.0
O774 O 0.89556 0.37887 0.86361 0.0
H775 H 0.87085 0.33815 0.92107 0.0
H776 H 0.85674 0.31675 0.91961 0.0
C777 C 0.86851 0.32655 0.91161 0.0
H778 H 0.87815 0.32414 0.9187 0.0
H779 H 0.89106 0.3764 0.92185 0.0
O780 O 0.87926 0.34758 0.77079 0.0
C781 C 0.89059 0.38259 0.84112 0.0
Co782 Co 0.64251 0.53089 0.80939 0.0
Co783 Co 0.63691 0.53406 0.87464 0.0
C784 C 0.63447 0.55569 0.83204 0.0
O785 O 0.63743 0.5483 0.81245 0.0
O786 O 0.63403 0.55185 0.85834 0.0
C787 C 0.65729 0.54401 0.75602 0.0
O788 O 0.66204 0.5577 0.76954 0.0
C789 C 0.6418 0.5455 0.9351 0.0
C790 C 0.63017 0.52201 0.95754 0.0
C791 C 0.63868 0.53852 0.96224 0.0
N792 N 0.63554 0.53358 0.91549 0.0
N793 N 0.62842 0.51961 0.92913 0.0
C794 C 0.65165 0.56301 0.9277 0.0
H795 H 0.65584 0.56453 0.90514 0.0
H796 H 0.66215 0.56918 0.94233 0.0
H797 H 0.64408 0.56872 0.93018 0.0
C798 C 0.6731 0.53486 0.83118 0.0
N799 N 0.65884 0.5341 0.83534 0.0
N800 N 0.65695 0.53588 0.86279 0.0
C801 C 0.6702 0.538 0.87695 0.0
C802 C 0.68078 0.53743 0.85732 0.0
C803 C 0.67929 0.53337 0.80257 0.0
H804 H 0.66972 0.52276 0.791 0.0
H805 H 0.68244 0.54431 0.78975 0.0
H806 H 0.69019 0.53216 0.80452 0.0
O807 O 0.62297 0.51019 0.81635 0.0
O808 O 0.61851 0.51275 0.86212 0.0
H809 H 0.66178 0.52979 0.9195 0.0
H810 H 0.68345 0.5396 0.91555 0.0
C811 C 0.67242 0.53975 0.9087 0.0
H812 H 0.67345 0.55134 0.91541 0.0
H813 H 0.62282 0.5084 0.91899 0.0
O814 O 0.64913 0.53081 0.76945 0.0
C815 C 0.6145 0.50468 0.83888 0.0
Co816 Co 0.55422 0.86608 0.64243 0.0
Co817 Co 0.56491 0.87202 0.707 0.0
C818 C 0.58788 0.89129 0.66099 0.0
O819 O 0.57694 0.88324 0.64265 0.0
O820 O 0.58521 0.88863 0.68777 0.0
C821 C 0.55087 0.87754 0.5886 0.0
O822 O 0.55941 0.89155 0.60141 0.0
C823 C 0.57443 0.88578 0.7663 0.0
C824 C 0.56122 0.86326 0.79135 0.0
C825 C 0.57103 0.8798 0.7942 0.0
N826 N 0.56674 0.87328 0.748 0.0
N827 N 0.559 0.8599 0.76324 0.0
C828 C 0.58525 0.90289 0.75718 0.0
H829 H 0.5904 0.90335 0.73573 0.0
H830 H 0.57821 0.90921 0.75596 0.0
H831 H 0.59516 0.90933 0.7729 0.0
C832 C 0.52893 0.87219 0.66427 0.0
N833 N 0.54217 0.87093 0.66821 0.0
N834 N 0.54667 0.87386 0.69521 0.0
C835 C 0.53638 0.87725 0.70931 0.0
C836 C 0.52488 0.87641 0.69007 0.0
C837 C 0.51973 0.86834 0.63672 0.0
H838 H 0.51992 0.85813 0.62587 0.0
H839 H 0.52551 0.87904 0.62246 0.0
H840 H 0.507 0.8651 0.64038 0.0
O841 O 0.55266 0.84547 0.65219 0.0
O842 O 0.56129 0.85003 0.69715 0.0
H843 H 0.53589 0.8713 0.75355 0.0
H844 H 0.52926 0.8857 0.74664 0.0
C845 C 0.53793 0.88178 0.74028 0.0
H846 H 0.55032 0.89177 0.74445 0.0
H847 H 0.55198 0.84843 0.7544 0.0
O848 O 0.5467 0.86467 0.60265 0.0
C849 C 0.55627 0.84089 0.67519 0.0
Co850 Co 0.13159 0.68846 0.64636 0.0
Co851 Co 0.12609 0.69359 0.71092 0.0
C852 C 0.10663 0.69715 0.66517 0.0
O853 O 0.1144 0.69397 0.64673 0.0
O854 O 0.10961 0.69754 0.69188 0.0
C855 C 0.11967 0.6733 0.59317 0.0
O856 O 0.10583 0.66788 0.60656 0.0
C857 C 0.11251 0.68969 0.77021 0.0
C858 C 0.13501 0.69857 0.79514 0.0
C859 C 0.11851 0.69216 0.79808 0.0
N860 N 0.12495 0.69427 0.75186 0.0
N861 N 0.13833 0.69966 0.76702 0.0
C862 C 0.09544 0.68371 0.76112 0.0
H863 H 0.09509 0.68858 0.7398 0.0
H864 H 0.08897 0.67035 0.75961 0.0
H865 H 0.08911 0.68723 0.77697 0.0
C866 C 0.12537 0.6571 0.66838 0.0
N867 N 0.12679 0.67168 0.67226 0.0
N868 N 0.12396 0.67335 0.69927 0.0
C869 C 0.12046 0.65965 0.71343 0.0
C870 C 0.12112 0.64888 0.69421 0.0
C871 C 0.12911 0.65163 0.64085 0.0
H872 H 0.13928 0.66197 0.62981 0.0
H873 H 0.11835 0.64663 0.62674 0.0
H874 H 0.13236 0.64215 0.6446 0.0
O875 O 0.1523 0.70751 0.65573 0.0
O876 O 0.14812 0.71176 0.70082 0.0
H877 H 0.1266 0.66517 0.75759 0.0
H878 H 0.11206 0.64417 0.75087 0.0
C879 C 0.11605 0.65677 0.74446 0.0
H880 H 0.10615 0.6593 0.74877 0.0
H881 H 0.14975 0.70388 0.75812 0.0
O882 O 0.1327 0.68213 0.60666 0.0
C883 C 0.15709 0.71574 0.67865 0.0
Co884 Co 0.3115 0.44518 0.64386 0.0
Co885 Co 0.30566 0.43465 0.70839 0.0
C886 C 0.30288 0.41167 0.66271 0.0
O887 O 0.30605 0.42253 0.64406 0.0
O888 O 0.30244 0.41446 0.68931 0.0
C889 C 0.32577 0.4479 0.58969 0.0
O890 O 0.33022 0.43835 0.60184 0.0
C891 C 0.31078 0.42581 0.76718 0.0
C892 C 0.29777 0.43521 0.79253 0.0
C893 C 0.30689 0.4277 0.79517 0.0
N894 N 0.30439 0.43213 0.74915 0.0
N895 N 0.29654 0.43759 0.76452 0.0
C896 C 0.31977 0.41758 0.75748 0.0
H897 H 0.31638 0.41311 0.73526 0.0
H898 H 0.33292 0.4263 0.75784 0.0
H899 H 0.31725 0.40737 0.77193 0.0
C900 C 0.34235 0.47081 0.66698 0.0
N901 N 0.32798 0.45731 0.67038 0.0
N902 N 0.32575 0.45321 0.69762 0.0
C903 C 0.33873 0.4642 0.71253 0.0
C904 C 0.34966 0.47568 0.69357 0.0
C905 C 0.34906 0.47845 0.63852 0.0
H906 H 0.35035 0.4697 0.62485 0.0
H907 H 0.36107 0.48947 0.64032 0.0
H908 H 0.34052 0.48143 0.62783 0.0
O909 O 0.29213 0.44653 0.65256 0.0
O910 O 0.28738 0.43806 0.69761 0.0
H911 H 0.35024 0.47613 0.75223 0.0
H912 H 0.34212 0.45459 0.75147 0.0
C913 C 0.3401 0.4645 0.74447 0.0
H914 H 0.32873 0.4626 0.75425 0.0
H915 H 0.29052 0.44319 0.75589 0.0
O916 O 0.31803 0.45299 0.60433 0.0
C917 C 0.28358 0.44296 0.67513 0.0
Co918 Co 0.53049 0.88681 0.23032 0.0
Co919 Co 0.53521 0.89656 0.16537 0.0
C920 C 0.55519 0.92031 0.2095 0.0
O921 O 0.54739 0.90961 0.22836 0.0
O922 O 0.55228 0.91725 0.18284 0.0
C923 C 0.54289 0.88476 0.28429 0.0
O924 O 0.55677 0.89373 0.27133 0.0
C925 C 0.54729 0.90425 0.105 0.0
C926 C 0.52409 0.89044 0.08212 0.0
C927 C 0.54058 0.89982 0.07768 0.0
N928 N 0.53526 0.89754 0.1244 0.0
N929 N 0.52145 0.88952 0.11046 0.0
C930 C 0.56478 0.91356 0.11282 0.0
H931 H 0.56653 0.91149 0.13561 0.0
H932 H 0.57189 0.91003 0.09881 0.0
H933 H 0.56928 0.92663 0.10976 0.0
C934 C 0.53659 0.86146 0.209 0.0
N935 N 0.53499 0.87448 0.2047 0.0
N936 N 0.53739 0.87856 0.17746 0.0
C937 C 0.54074 0.86818 0.16354 0.0
C938 C 0.54043 0.85709 0.18316 0.0
C939 C 0.53355 0.85284 0.23706 0.0
H940 H 0.52333 0.85282 0.24826 0.0
H941 H 0.54447 0.85924 0.25067 0.0
H942 H 0.53074 0.84018 0.23408 0.0
O943 O 0.50961 0.88485 0.22179 0.0
O944 O 0.51351 0.89318 0.17667 0.0
H945 H 0.53445 0.86783 0.1195 0.0
H946 H 0.54804 0.86016 0.12583 0.0
C947 C 0.54484 0.86934 0.13239 0.0
H948 H 0.55526 0.88144 0.12789 0.0
H949 H 0.51022 0.88296 0.12037 0.0
O950 O 0.52988 0.87993 0.27033 0.0
C951 C 0.5047 0.88832 0.19905 0.0
Co952 Co 0.11081 0.64294 0.23454 0.0
Co953 Co 0.10135 0.63929 0.16966 0.0
C954 C 0.07735 0.63455 0.21369 0.0
O955 O 0.08797 0.63696 0.23243 0.0
O956 O 0.08055 0.63539 0.18698 0.0
C957 C 0.11242 0.65687 0.2884 0.0
O958 O 0.10395 0.66216 0.27482 0.0
C959 C 0.09388 0.64442 0.1096 0.0
C960 C 0.10895 0.63667 0.0863 0.0
C961 C 0.09893 0.64308 0.08225 0.0
N962 N 0.10084 0.63923 0.12872 0.0
N963 N 0.10962 0.63441 0.11451 0.0
C964 C 0.0838 0.65172 0.11773 0.0
H965 H 0.08558 0.65528 0.14065 0.0
H966 H 0.08685 0.66238 0.1041 0.0
H967 H 0.07088 0.64268 0.11436 0.0
C968 C 0.13631 0.67485 0.21507 0.0
N969 N 0.12328 0.66034 0.21003 0.0
N970 N 0.11922 0.65926 0.18285 0.0
C971 C 0.12954 0.67329 0.16976 0.0
C972 C 0.14066 0.68365 0.18982 0.0
C973 C 0.14499 0.67977 0.24317 0.0
H974 H 0.14464 0.66921 0.25369 0.0
H975 H 0.1389 0.68441 0.25731 0.0
H976 H 0.15776 0.68936 0.24032 0.0
O977 O 0.11304 0.62433 0.22472 0.0
O978 O 0.10468 0.62075 0.17963 0.0
H979 H 0.13069 0.669 0.12513 0.0
H980 H 0.13685 0.68974 0.13363 0.0
C981 C 0.12829 0.67696 0.13904 0.0
H982 H 0.11588 0.67447 0.13468 0.0
H983 H 0.11651 0.63006 0.1242 0.0
O984 O 0.11724 0.64856 0.27482 0.0
C985 C 0.10958 0.6164 0.20146 0.0
Co986 Co 0.35474 0.46587 0.23161 0.0
Co987 Co 0.36089 0.46384 0.1662 0.0
C988 C 0.36228 0.44108 0.20825 0.0
O989 O 0.359 0.44793 0.22836 0.0
O990 O 0.36351 0.4458 0.18232 0.0
C991 C 0.34088 0.45365 0.28636 0.0
O992 O 0.3367 0.43965 0.27448 0.0
C993 C 0.35563 0.45235 0.10593 0.0
C994 C 0.36886 0.47568 0.08321 0.0
C995 C 0.35941 0.45922 0.07872 0.0
N996 N 0.36247 0.46429 0.1254 0.0
N997 N 0.37051 0.47816 0.11162 0.0
C998 C 0.34469 0.43501 0.11351 0.0
H999 H 0.34028 0.43392 0.13584 0.0
H1000 H 0.33432 0.42938 0.09848 0.0
H1001 H 0.35149 0.42846 0.1118 0.0
C1002 C 0.32438 0.46245 0.20968 0.0
N1003 N 0.33867 0.46326 0.20547 0.0
N1004 N 0.34096 0.46239 0.17787 0.0
C1005 C 0.32812 0.46117 0.16356 0.0
C1006 C 0.31722 0.46116 0.18328 0.0
C1007 C 0.31751 0.46209 0.23867 0.0
H1008 H 0.31667 0.4518 0.251 0.0
H1009 H 0.30529 0.46064 0.23753 0.0
H1010 H 0.32573 0.47336 0.25036 0.0
O1011 O 0.37479 0.48642 0.2251 0.0
O1012 O 0.37934 0.48482 0.17902 0.0
H1013 H 0.31688 0.46327 0.12478 0.0
H1014 H 0.32431 0.44929 0.12324 0.0
C1015 C 0.32676 0.46114 0.13164 0.0
H1016 H 0.33827 0.47065 0.12234 0.0
H1017 H 0.37675 0.48939 0.12163 0.0
O1018 O 0.34825 0.46643 0.27147 0.0
C1019 C 0.38336 0.49236 0.20277 0.0
Co1020 Co 0.11211 0.46841 0.7311 0.0
Co1021 Co 0.10278 0.46384 0.66608 0.0
C1022 C 0.07888 0.4434 0.70959 0.0
O1023 O 0.08943 0.45127 0.72864 0.0
O1024 O 0.08208 0.44645 0.68301 0.0
C1025 C 0.11393 0.45547 0.78433 0.0
O1026 O 0.10554 0.44182 0.77038 0.0
C1027 C 0.09547 0.45191 0.60571 0.0
C1028 C 0.10907 0.47518 0.58294 0.0
C1029 C 0.09988 0.45869 0.57844 0.0
N1030 N 0.102 0.46393 0.62515 0.0
N1031 N 0.1099 0.47777 0.61129 0.0
C1032 C 0.08637 0.4344 0.61346 0.0
H1033 H 0.0885 0.43267 0.63622 0.0
H1034 H 0.09 0.42742 0.59938 0.0
H1035 H 0.07326 0.42975 0.61048 0.0
C1036 C 0.13795 0.4629 0.71021 0.0
N1037 N 0.12482 0.46428 0.7057 0.0
N1038 N 0.1209 0.46192 0.67839 0.0
C1039 C 0.1315 0.45883 0.66464 0.0
C1040 C 0.14256 0.45924 0.68445 0.0
C1041 C 0.14643 0.46595 0.73842 0.0
H1042 H 0.14608 0.47594 0.7498 0.0
H1043 H 0.14019 0.45491 0.75178 0.0
H1044 H 0.1592 0.46912 0.7356 0.0
O1045 O 0.11384 0.48923 0.72281 0.0
O1046 O 0.10574 0.48536 0.67756 0.0
H1047 H 0.13197 0.46521 0.62062 0.0
H1048 H 0.13996 0.45188 0.62705 0.0
C1049 C 0.13058 0.45484 0.63347 0.0
H1050 H 0.1186 0.44431 0.62875 0.0
H1051 H 0.1163 0.489 0.62126 0.0
O1052 O 0.11862 0.46871 0.7712 0.0
C1053 C 0.11038 0.4941 0.70003 0.0
Co1054 Co 0.5316 0.64482 0.73817 0.0
Co1055 Co 0.53704 0.63979 0.67354 0.0
C1056 C 0.5573 0.63729 0.71925 0.0
O1057 O 0.54937 0.64023 0.73776 0.0
O1058 O 0.55409 0.63666 0.69259 0.0
C1059 C 0.54293 0.66 0.79171 0.0
O1060 O 0.55694 0.66589 0.77874 0.0
C1061 C 0.5507 0.64393 0.61428 0.0
C1062 C 0.52819 0.63476 0.58928 0.0
C1063 C 0.54473 0.64144 0.58638 0.0
N1064 N 0.53821 0.63913 0.63259 0.0
N1065 N 0.52483 0.63355 0.61739 0.0
C1066 C 0.56781 0.65017 0.62342 0.0
H1067 H 0.56822 0.64512 0.64453 0.0
H1068 H 0.57402 0.66349 0.62542 0.0
H1069 H 0.57435 0.64701 0.6074 0.0
C1070 C 0.53674 0.6758 0.71593 0.0
N1071 N 0.53563 0.66136 0.7121 0.0
N1072 N 0.53846 0.65973 0.68507 0.0
C1073 C 0.54165 0.67332 0.67085 0.0
C1074 C 0.54077 0.68398 0.69005 0.0
C1075 C 0.53315 0.68129 0.74359 0.0
H1076 H 0.52312 0.67093 0.75484 0.0
H1077 H 0.54402 0.68639 0.75743 0.0
H1078 H 0.52979 0.6907 0.73997 0.0
O1079 O 0.51143 0.62511 0.72918 0.0
O1080 O 0.51525 0.62115 0.68373 0.0
H1081 H 0.53575 0.66774 0.62663 0.0
H1082 H 0.54994 0.68883 0.63342 0.0
C1083 C 0.54618 0.67628 0.63987 0.0
H1084 H 0.55627 0.67403 0.63574 0.0
H1085 H 0.51337 0.62914 0.62626 0.0
O1086 O 0.53011 0.65094 0.77783 0.0
C1087 C 0.5066 0.61684 0.70631 0.0
Co1088 Co 0.35463 0.88775 0.73242 0.0
Co1089 Co 0.35894 0.89617 0.66697 0.0
C1090 C 0.36209 0.92045 0.70953 0.0
O1091 O 0.35944 0.91023 0.72922 0.0
O1092 O 0.36232 0.917 0.68319 0.0
C1093 C 0.34019 0.88595 0.78621 0.0
O1094 O 0.33468 0.89422 0.77259 0.0
C1095 C 0.35425 0.90329 0.60655 0.0
C1096 C 0.36309 0.88894 0.58386 0.0
C1097 C 0.35633 0.89862 0.57932 0.0
N1098 N 0.35942 0.89648 0.62603 0.0
N1099 N 0.36484 0.8881 0.61221 0.0
C1100 C 0.34637 0.9129 0.61425 0.0
H1101 H 0.34228 0.9107 0.63689 0.0
H1102 H 0.33596 0.90977 0.59991 0.0
H1103 H 0.35523 0.92593 0.61166 0.0
C1104 C 0.32331 0.86136 0.71252 0.0
N1105 N 0.33773 0.87452 0.70751 0.0
N1106 N 0.33905 0.87816 0.6801 0.0
C1107 C 0.32528 0.86741 0.66678 0.0
C1108 C 0.31483 0.85646 0.68698 0.0
C1109 C 0.31818 0.85312 0.74099 0.0
H1110 H 0.32867 0.85372 0.75222 0.0
H1111 H 0.31334 0.85936 0.75425 0.0
H1112 H 0.30868 0.84028 0.73858 0.0
O1113 O 0.37398 0.8864 0.72403 0.0
O1114 O 0.37759 0.8934 0.67822 0.0
H1115 H 0.33032 0.86592 0.62265 0.0
H1116 H 0.30931 0.85917 0.62993 0.0
C1117 C 0.32192 0.86812 0.63569 0.0
H1118 H 0.32406 0.88033 0.63051 0.0
H1119 H 0.36937 0.88144 0.62223 0.0
O1120 O 0.34876 0.88141 0.77273 0.0
C1121 C 0.38203 0.88935 0.70098 0.0
Co1122 Co 0.1332 0.44414 0.14294 0.0
Co1123 Co 0.12842 0.4345 0.208 0.0
C1124 C 0.10885 0.41065 0.16318 0.0
O1125 O 0.11644 0.42137 0.14427 0.0
O1126 O 0.11186 0.41376 0.18977 0.0
C1127 C 0.1208 0.44617 0.08938 0.0
O1128 O 0.10704 0.43746 0.10287 0.0
C1129 C 0.115 0.42532 0.26745 0.0
C1130 C 0.13753 0.439 0.29227 0.0
C1131 C 0.12103 0.42898 0.29527 0.0
N1132 N 0.12743 0.43306 0.24902 0.0
N1133 N 0.14082 0.44109 0.26412 0.0
C1134 C 0.0979 0.41422 0.25852 0.0
H1135 H 0.09748 0.40877 0.2374 0.0
H1136 H 0.09148 0.42113 0.25667 0.0
H1137 H 0.09155 0.40452 0.27464 0.0
C1138 C 0.12678 0.46933 0.164 0.0
N1139 N 0.1284 0.45634 0.16841 0.0
N1140 N 0.12596 0.45228 0.19566 0.0
C1141 C 0.12253 0.46263 0.20946 0.0
C1142 C 0.12283 0.47369 0.18976 0.0
C1143 C 0.13007 0.47806 0.136 0.0
H1144 H 0.14028 0.47797 0.12495 0.0
H1145 H 0.1192 0.47182 0.12222 0.0
H1146 H 0.13303 0.49075 0.13905 0.0
O1147 O 0.154 0.44607 0.15207 0.0
O1148 O 0.15055 0.43858 0.19768 0.0
H1149 H 0.12927 0.46393 0.25343 0.0
H1150 H 0.11461 0.47026 0.24685 0.0
C1151 C 0.11854 0.46157 0.24064 0.0
H1152 H 0.10871 0.44922 0.24563 0.0
H1153 H 0.15224 0.4482 0.25515 0.0
O1154 O 0.13393 0.45101 0.10293 0.0
C1155 C 0.15919 0.44317 0.17506 0.0
Co1156 Co 0.55398 0.68773 0.14976 0.0
Co1157 Co 0.56393 0.69403 0.21443 0.0
C1158 C 0.58743 0.69666 0.1704 0.0
O1159 O 0.5767 0.69345 0.15143 0.0
O1160 O 0.58444 0.69708 0.19695 0.0
C1161 C 0.5516 0.67294 0.09584 0.0
O1162 O 0.56114 0.66854 0.10814 0.0
C1163 C 0.57156 0.69 0.27482 0.0
C1164 C 0.55904 0.70093 0.29733 0.0
C1165 C 0.56758 0.69296 0.30198 0.0
N1166 N 0.56538 0.69577 0.25523 0.0
N1167 N 0.55818 0.7025 0.26893 0.0
C1168 C 0.57981 0.6807 0.26741 0.0
H1169 H 0.5774 0.67661 0.24479 0.0
H1170 H 0.57573 0.67016 0.2819 0.0
H1171 H 0.59302 0.68862 0.2702 0.0
C1172 C 0.52874 0.65666 0.1727 0.0
N1173 N 0.54174 0.67137 0.17627 0.0
N1174 N 0.54568 0.67371 0.20358 0.0
C1175 C 0.5351 0.66042 0.21832 0.0
C1176 C 0.52415 0.64917 0.19913 0.0
C1177 C 0.5204 0.65026 0.14463 0.0
H1178 H 0.51967 0.65991 0.13276 0.0
H1179 H 0.5275 0.6463 0.13162 0.0
H1180 H 0.50803 0.63987 0.14761 0.0
O1181 O 0.5522 0.70691 0.1571 0.0
O1182 O 0.56065 0.71221 0.20206 0.0
H1183 H 0.53557 0.66844 0.26127 0.0
H1184 H 0.52545 0.64673 0.25751 0.0
C1185 C 0.53571 0.65832 0.24995 0.0
H1186 H 0.54707 0.65853 0.25537 0.0
H1187 H 0.55212 0.70767 0.25884 0.0
O1188 O 0.54663 0.68088 0.11019 0.0
C1189 C 0.55573 0.71572 0.17928 0.0
Co1190 Co 0.30932 0.86559 0.14465 0.0
Co1191 Co 0.30489 0.87177 0.20921 0.0
C1192 C 0.30119 0.89102 0.16328 0.0
O1193 O 0.30393 0.88283 0.14501 0.0
O1194 O 0.30121 0.88842 0.19007 0.0
C1195 C 0.32415 0.87733 0.09125 0.0
O1196 O 0.32979 0.89115 0.10481 0.0
C1197 C 0.30953 0.88583 0.26823 0.0
C1198 C 0.29987 0.8634 0.29364 0.0
C1199 C 0.30688 0.87999 0.2962 0.0
N1200 N 0.30447 0.87321 0.25014 0.0
N1201 N 0.29863 0.85988 0.26559 0.0
C1202 C 0.3161 0.90295 0.25885 0.0
H1203 H 0.31147 0.90342 0.23735 0.0
H1204 H 0.32945 0.90906 0.25764 0.0
H1205 H 0.31279 0.90959 0.27442 0.0
C1206 C 0.34074 0.87161 0.16601 0.0
N1207 N 0.32628 0.87041 0.17017 0.0
N1208 N 0.32486 0.87343 0.1972 0.0
C1209 C 0.33858 0.87679 0.21109 0.0
C1210 C 0.34912 0.87587 0.19166 0.0
C1211 C 0.34596 0.86769 0.13838 0.0
H1212 H 0.3355 0.85754 0.12756 0.0
H1213 H 0.35095 0.87841 0.12415 0.0
H1214 H 0.35539 0.86436 0.14194 0.0
O1215 O 0.29026 0.84505 0.15468 0.0
O1216 O 0.28641 0.8498 0.19967 0.0
H1217 H 0.33305 0.87096 0.25535 0.0
H1218 H 0.35421 0.88481 0.24837 0.0
C1219 C 0.3417 0.8813 0.24205 0.0
H1220 H 0.33973 0.89156 0.24623 0.0
H1221 H 0.29395 0.84834 0.25695 0.0
O1222 O 0.31531 0.86429 0.10474 0.0
C1223 C 0.28217 0.84059 0.17779 0.0
H1224 H 0.38196 0.28264 0.84802 0.0
H1225 H 0.35482 0.27312 0.86749 0.0
H1226 H 0.37565 0.30128 0.94389 0.0
H1227 H 0.40262 0.31081 0.92477 0.0
H1228 H 0.34498 0.25563 0.92044 0.0
H1229 H 0.33879 0.3103 0.92346 0.0
H1230 H 0.3531 0.30864 0.9005 0.0
H1231 H 0.3574 0.31302 0.93793 0.0
C1232 C 0.38072 0.2871 0.86864 0.0
C1233 C 0.39442 0.29738 0.88493 0.0
C1234 C 0.36524 0.28162 0.87976 0.0
C1235 C 0.36326 0.2866 0.90703 0.0
C1236 C 0.3769 0.29749 0.92265 0.0
H1237 H 0.28296 0.23501 0.02501 0.0
H1238 H 0.31011 0.25145 0.00463 0.0
C1239 C 0.39232 0.30283 0.91172 0.0
C1240 C 0.34716 0.27914 0.92067 0.0
H1241 H 0.31962 0.2876 0.9505 0.0
C1242 C 0.33937 0.26258 0.92686 0.0
C1243 C 0.33996 0.28829 0.92908 0.0
C1244 C 0.34765 0.30603 0.92222 0.0
C1245 C 0.32464 0.25495 0.9416 0.0
C1246 C 0.31761 0.26416 0.95059 0.0
C1247 C 0.32523 0.28067 0.94399 0.0
C1248 C 0.30172 0.25647 0.965 0.0
C1249 C 0.31656 0.23703 0.94715 0.0
C1250 C 0.28821 0.25448 0.94992 0.0
C1251 C 0.27279 0.24512 0.96139 0.0
C1252 C 0.27061 0.23766 0.98829 0.0
C1253 C 0.28427 0.2406 0.00427 0.0
C1254 C 0.29974 0.2499 0.99261 0.0
H1255 H 0.32222 0.23124 0.93474 0.0
H1256 H 0.31752 0.23494 0.97027 0.0
H1257 H 0.30355 0.23104 0.9416 0.0
H1258 H 0.28952 0.25952 0.92864 0.0
H1259 H 0.26252 0.24321 0.94866 0.0
H1260 H 0.71022 0.09588 0.84805 0.0
H1261 H 0.72026 0.07867 0.86757 0.0
H1262 H 0.69828 0.07718 0.94896 0.0
H1263 H 0.68825 0.09417 0.9299 0.0
H1264 H 0.73302 0.08954 0.94893 0.0
H1265 H 0.69769 0.02997 0.89505 0.0
H1266 H 0.70558 0.0477 0.8728 0.0
H1267 H 0.69025 0.04392 0.89869 0.0
C1268 C 0.7072 0.09155 0.86986 0.0
C1269 C 0.69861 0.09656 0.88749 0.0
C1270 C 0.71291 0.08171 0.88097 0.0
C1271 C 0.70998 0.0767 0.9097 0.0
C1272 C 0.70066 0.08094 0.92676 0.0
H1273 H 0.75567 0.03911 0.02575 0.0
H1274 H 0.73815 0.04882 0.00666 0.0
C1275 C 0.69498 0.0907 0.91577 0.0
C1276 C 0.7181 0.06865 0.92314 0.0
H1277 H 0.7195 0.03373 0.92433 0.0
C1278 C 0.73003 0.0773 0.94372 0.0
C1279 C 0.71414 0.05274 0.91616 0.0
C1280 C 0.70115 0.04292 0.89461 0.0
C1281 C 0.73846 0.0706 0.95706 0.0
C1282 C 0.73451 0.05463 0.95019 0.0
C1283 C 0.72241 0.04592 0.92977 0.0
C1284 C 0.7437 0.04728 0.96219 0.0
C1285 C 0.75195 0.08095 0.97752 0.0
C1286 C 0.75203 0.04254 0.94355 0.0
C1287 C 0.76182 0.03683 0.95431 0.0
C1288 C 0.76357 0.03577 0.98406 0.0
C1289 C 0.75473 0.03994 0.00278 0.0
C1290 C 0.74478 0.04557 0.9919 0.0
H1291 H 0.75595 0.09397 0.97509 0.0
H1292 H 0.74766 0.0774 0.99984 0.0
H1293 H 0.76253 0.0793 0.97416 0.0
H1294 H 0.75133 0.0437 0.92058 0.0
H1295 H 0.76833 0.03363 0.93916 0.0
H1296 H 0.89586 0.59607 0.93456 0.0
H1297 H 0.9128 0.62319 0.95303 0.0
H1298 H 0.92525 0.64151 0.86683 0.0
H1299 H 0.9078 0.61424 0.84787 0.0
H1300 H 0.9446 0.6456 0.94851 0.0
H1301 H 0.90659 0.66801 0.89926 0.0
H1302 H 0.90048 0.64688 0.90025 0.0
H1303 H 0.91499 0.65997 0.87422 0.0
C1304 C 0.90221 0.6058 0.91937 0.0
C1305 C 0.90024 0.60299 0.88964 0.0
C1306 C 0.91198 0.62133 0.93005 0.0
C1307 C 0.92005 0.63441 0.91134 0.0
C1308 C 0.91882 0.63161 0.88165 0.0
H1309 H 0.97314 0.73688 0.94392 0.0
H1310 H 0.96336 0.71004 0.9242 0.0
C1311 C 0.90891 0.61602 0.87084 0.0
C1312 C 0.92902 0.65098 0.92327 0.0
H1313 H 0.92942 0.68684 0.92516 0.0
C1314 C 0.94134 0.65465 0.94333 0.0
C1315 C 0.92459 0.66269 0.91674 0.0
C1316 C 0.91085 0.6592 0.89666 0.0
C1317 C 0.94941 0.66977 0.95692 0.0
C1318 C 0.94496 0.68142 0.95032 0.0
C1319 C 0.93279 0.67783 0.93008 0.0
C1320 C 0.95278 0.69755 0.96385 0.0
C1321 C 0.96269 0.67327 0.97802 0.0
C1322 C 0.95034 0.69942 0.99295 0.0
C1323 C 0.95591 0.71486 0.00444 0.0
C1324 C 0.96386 0.72858 0.98685 0.0
C1325 C 0.96691 0.72659 0.95806 0.0
C1326 C 0.96137 0.71125 0.9467 0.0
H1327 H 0.96671 0.66421 0.97676 0.0
H1328 H 0.97323 0.68546 0.97423 0.0
H1329 H 0.95824 0.67305 6e-05 0.0
H1330 H 0.94354 0.68894 0.00644 0.0
H1331 H 0.95336 0.71599 0.02666 0.0
H1332 H 0.23817 0.2616 0.59685 0.0
H1333 H 0.25554 0.28841 0.61663 0.0
H1334 H 0.25334 0.30991 0.5369 0.0
H1335 H 0.23576 0.28292 0.51664 0.0
H1336 H 0.28681 0.32334 0.57307 0.0
H1337 H 0.23264 0.31775 0.62854 0.0
H1338 H 0.23581 0.30071 0.62939 0.0
H1339 H 0.23108 0.30675 0.59613 0.0
C1340 C 0.24153 0.27198 0.58325 0.0
C1341 C 0.23538 0.27012 0.55524 0.0
C1342 C 0.25151 0.28728 0.59463 0.0
C1343 C 0.25555 0.30104 0.57829 0.0
C1344 C 0.25029 0.29934 0.54977 0.0
H1345 H 0.30452 0.40279 0.60796 0.0
H1346 H 0.29482 0.37578 0.58948 0.0
C1347 C 0.24028 0.28395 0.53825 0.0
C1348 C 0.26393 0.31706 0.59209 0.0
H1349 H 0.25748 0.34108 0.63776 0.0
C1350 C 0.28046 0.32729 0.5872 0.0
C1351 C 0.25559 0.32196 0.6108 0.0
C1352 C 0.23777 0.31131 0.61657 0.0
C1353 C 0.2889 0.34245 0.60058 0.0
C1354 C 0.28045 0.34756 0.61878 0.0
C1355 C 0.26396 0.33714 0.62396 0.0
C1356 C 0.28805 0.36409 0.63086 0.0
C1357 C 0.3068 0.35276 0.59534 0.0
C1358 C 0.28735 0.36656 0.6604 0.0
C1359 C 0.29274 0.38211 0.67116 0.0
C1360 C 0.29879 0.3954 0.65248 0.0
C1361 C 0.29993 0.39287 0.62305 0.0
C1362 C 0.29453 0.3774 0.61239 0.0
H1363 H 0.31226 0.34526 0.58956 0.0
H1364 H 0.30884 0.36104 0.57716 0.0
H1365 H 0.31313 0.36012 0.61445 0.0
H1366 H 0.28227 0.3564 0.67501 0.0
H1367 H 0.29169 0.38363 0.6939 0.0
H1368 H 0.61621 0.90853 0.6913 0.0
H1369 H 0.64323 0.92629 0.67155 0.0
H1370 H 0.6231 0.91845 0.58651 0.0
H1371 H 0.59629 0.90115 0.60583 0.0
H1372 H 0.65853 0.91678 0.63381 0.0
H1373 H 0.65299 0.96663 0.58563 0.0
H1374 H 0.63854 0.95269 0.61111 0.0
H1375 H 0.63729 0.94722 0.57392 0.0
C1376 C 0.61752 0.91085 0.66848 0.0
C1377 C 0.60408 0.90335 0.65018 0.0
C1378 C 0.63296 0.92099 0.65722 0.0
C1379 C 0.63515 0.92388 0.62758 0.0
C1380 C 0.62169 0.91674 0.60947 0.0
H1381 H 0.71665 0.95407 0.51282 0.0
H1382 H 0.68946 0.94401 0.53279 0.0
C1383 C 0.60634 0.90668 0.62063 0.0
C1384 C 0.65157 0.93295 0.61504 0.0
H1385 H 0.67517 0.96365 0.56905 0.0
C1386 C 0.66223 0.92714 0.61995 0.0
C1387 C 0.65634 0.94643 0.59677 0.0
C1388 C 0.64574 0.95371 0.59176 0.0
C1389 C 0.67735 0.93417 0.60654 0.0
C1390 C 0.68195 0.94737 0.58783 0.0
C1391 C 0.67146 0.95338 0.58315 0.0
C1392 C 0.69799 0.95538 0.57408 0.0
C1393 C 0.68831 0.92734 0.61212 0.0
C1394 C 0.71161 0.96547 0.59044 0.0
C1395 C 0.72701 0.97117 0.57922 0.0
C1396 C 0.72912 0.96688 0.55136 0.0
C1397 C 0.71542 0.95759 0.53431 0.0
C1398 C 0.69992 0.95182 0.54567 0.0
H1399 H 0.68212 0.91579 0.62419 0.0
H1400 H 0.69286 0.92529 0.59159 0.0
H1401 H 0.6989 0.93615 0.62475 0.0
H1402 H 0.71031 0.96838 0.61235 0.0
H1403 H 0.73728 0.97845 0.59286 0.0
H1404 H 0.09113 0.68878 0.61397 0.0
H1405 H 0.07467 0.69889 0.5925 0.0
H1406 H 0.07856 0.7252 0.66985 0.0
H1407 H 0.09514 0.71504 0.69175 0.0
H1408 H 0.04486 0.69849 0.61204 0.0
H1409 H 0.09955 0.75935 0.60244 0.0
H1410 H 0.10074 0.74135 0.60871 0.0
H1411 H 0.09522 0.75014 0.63735 0.0
C1412 C 0.08831 0.69653 0.62665 0.0
C1413 C 0.0946 0.70129 0.65446 0.0
C1414 C 0.07885 0.70224 0.61434 0.0
C1415 C 0.0756 0.71292 0.62947 0.0
C1416 C 0.08109 0.71704 0.65781 0.0
H1417 H 0.0185 0.75598 0.58773 0.0
H1418 H 0.02839 0.73865 0.60598 0.0
C1419 C 0.09048 0.71119 0.67031 0.0
C1420 C 0.06761 0.72066 0.61458 0.0
H1421 H 0.07499 0.75655 0.58602 0.0
C1422 C 0.05139 0.71118 0.60639 0.0
C1423 C 0.07632 0.73712 0.60671 0.0
C1424 C 0.09396 0.74763 0.614 0.0
C1425 C 0.04353 0.71789 0.59105 0.0
C1426 C 0.05215 0.73446 0.58381 0.0
C1427 C 0.06845 0.74383 0.59152 0.0
C1428 C 0.04429 0.7427 0.57012 0.0
C1429 C 0.02611 0.70723 0.58257 0.0
C1430 C 0.04975 0.75052 0.5436 0.0
C1431 C 0.04405 0.76044 0.53297 0.0
C1432 C 0.03306 0.76289 0.54907 0.0
C1433 C 0.02704 0.75438 0.5749 0.0
C1434 C 0.03259 0.74438 0.5853 0.0
H1435 H 0.02254 0.69426 0.58298 0.0
H1436 H 0.01829 0.70906 0.59788 0.0
H1437 H 0.02385 0.71036 0.56081 0.0
H1438 H 0.05888 0.74942 0.53168 0.0
H1439 H 0.04897 0.76692 0.51312 0.0
H1440 H 0.73766 0.76198 0.10366 0.0
H1441 H 0.71123 0.74482 0.12488 0.0
H1442 H 0.68863 0.74136 0.0433 0.0
H1443 H 0.71524 0.75874 0.02159 0.0
H1444 H 0.6873 0.75516 0.12293 0.0
H1445 H 0.66542 0.69397 0.07727 0.0
H1446 H 0.68661 0.70901 0.07909 0.0
H1447 H 0.67396 0.71067 0.05257 0.0
C1448 C 0.72712 0.75741 0.08998 0.0
C1449 C 0.72855 0.76191 0.06093 0.0
C1450 C 0.71203 0.74755 0.10221 0.0
C1451 C 0.69803 0.74183 0.08567 0.0
C1452 C 0.69936 0.74554 0.05633 0.0
H1453 H 0.59698 0.69661 0.11552 0.0
H1454 H 0.62414 0.70635 0.09779 0.0
C1455 C 0.71455 0.75548 0.04398 0.0
C1456 C 0.68212 0.73359 0.1 0.0
H1457 H 0.64681 0.69777 0.1049 0.0
C1458 C 0.67846 0.74258 0.11921 0.0
C1459 C 0.67071 0.71722 0.09498 0.0
C1460 C 0.67431 0.70704 0.07501 0.0
C1461 C 0.66342 0.73577 0.13289 0.0
C1462 C 0.6519 0.71937 0.12784 0.0
C1463 C 0.65571 0.7103 0.10897 0.0
C1464 C 0.6353 0.71192 0.13965 0.0
C1465 C 0.65978 0.74645 0.15158 0.0
C1466 C 0.63243 0.71135 0.16929 0.0
C1467 C 0.61679 0.70592 0.17966 0.0
C1468 C 0.60379 0.70083 0.16051 0.0
C1469 C 0.60668 0.7006 0.13098 0.0
C1470 C 0.62223 0.7061 0.12071 0.0
H1471 H 0.66843 0.75946 0.14789 0.0
H1472 H 0.64737 0.74419 0.14763 0.0
H1473 H 0.66067 0.74378 0.17442 0.0
H1474 H 0.64231 0.71544 0.18434 0.0
H1475 H 0.61495 0.7061 0.20252 0.0
H1476 H 0.30487 0.90233 0.10879 0.0
H1477 H 0.29507 0.91924 0.08848 0.0
H1478 H 0.2784 0.924 0.17173 0.0
H1479 H 0.28825 0.90692 0.19256 0.0
H1480 H 0.26133 0.90951 0.09271 0.0
H1481 H 0.30184 0.97086 0.13673 0.0
H1482 H 0.30768 0.95559 0.13471 0.0
H1483 H 0.29384 0.95437 0.16185 0.0
C1484 C 0.29932 0.90711 0.123 0.0
C1485 C 0.29717 0.90311 0.15232 0.0
C1486 C 0.29378 0.91683 0.11129 0.0
C1487 C 0.28607 0.92287 0.12859 0.0
C1488 C 0.28451 0.91957 0.1581 0.0
H1489 H 0.23049 0.96887 0.0994 0.0
H1490 H 0.24758 0.95881 0.11761 0.0
C1491 C 0.29009 0.90979 0.16995 0.0
C1492 C 0.27821 0.93113 0.11499 0.0
H1493 H 0.27912 0.96716 0.11021 0.0
C1494 C 0.26526 0.92214 0.09636 0.0
C1495 C 0.28341 0.94757 0.11991 0.0
C1496 C 0.29753 0.95777 0.13922 0.0
C1497 C 0.25703 0.92904 0.08301 0.0
C1498 C 0.2622 0.94553 0.08785 0.0
C1499 C 0.27529 0.95457 0.10631 0.0
C1500 C 0.25327 0.95315 0.07591 0.0
C1501 C 0.24249 0.91843 0.06476 0.0
C1502 C 0.25116 0.95378 0.04623 0.0
C1503 C 0.24118 0.95941 0.0356 0.0
C1504 C 0.2333 0.96463 0.05453 0.0
C1505 C 0.2362 0.96479 0.08413 0.0
C1506 C 0.24606 0.9591 0.09466 0.0
H1507 H 0.23795 0.9054 0.06865 0.0
H1508 H 0.23252 0.92094 0.06894 0.0
H1509 H 0.24585 0.92092 0.04182 0.0
H1510 H 0.25693 0.94957 0.03134 0.0
H1511 H 0.23934 0.95929 0.01269 0.0
H1512 H 0.02099 0.26008 0.09906 0.0
H1513 H 0.03056 0.28679 0.1193 0.0
H1514 H 0.05235 0.30853 0.03845 0.0
H1515 H 0.04276 0.28163 0.01774 0.0
H1516 H 0.06465 0.30939 0.12055 0.0
H1517 H 0.02964 0.33394 0.06673 0.0
H1518 H 0.02257 0.31256 0.06884 0.0
H1519 H 0.03811 0.32495 0.04381 0.0
C1520 C 0.02758 0.2705 0.08531 0.0
C1521 C 0.03129 0.26873 0.05683 0.0
C1522 C 0.033 0.28575 0.09697 0.0
C1523 C 0.04213 0.29959 0.08039 0.0
C1524 C 0.04513 0.29794 0.05148 0.0
H1525 H 0.10139 0.40042 0.10802 0.0
H1526 H 0.08372 0.37323 0.0907 0.0
C1527 C 0.03969 0.28259 0.0397 0.0
C1528 C 0.05002 0.31559 0.09441 0.0
H1529 H 0.05187 0.35212 0.09534 0.0
C1530 C 0.06178 0.31872 0.11527 0.0
C1531 C 0.04621 0.32764 0.08737 0.0
C1532 C 0.03336 0.32466 0.06562 0.0
C1533 C 0.07031 0.33384 0.12862 0.0
C1534 C 0.06662 0.34601 0.12146 0.0
C1535 C 0.05459 0.34273 0.10097 0.0
C1536 C 0.07622 0.36266 0.13281 0.0
C1537 C 0.08367 0.33682 0.14926 0.0
C1538 C 0.07763 0.36588 0.16238 0.0
C1539 C 0.08799 0.38153 0.17255 0.0
C1540 C 0.09692 0.39421 0.15323 0.0
C1541 C 0.09483 0.39098 0.12363 0.0
C1542 C 0.08465 0.37541 0.11359 0.0
H1543 H 0.08736 0.32754 0.14732 0.0
H1544 H 0.09445 0.34888 0.14562 0.0
H1545 H 0.07942 0.33643 0.17151 0.0
H1546 H 0.07093 0.35626 0.17759 0.0
H1547 H 0.08918 0.38364 0.19544 0.0
H1548 H 0.68749 0.5977 0.42468 0.0
H1549 H 0.69752 0.62478 0.44366 0.0
H1550 H 0.72642 0.64507 0.36779 0.0
H1551 H 0.71637 0.6178 0.34845 0.0
H1552 H 0.74354 0.65451 0.42131 0.0
H1553 H 0.68991 0.66248 0.42229 0.0
H1554 H 0.68651 0.64364 0.43684 0.0
H1555 H 0.69134 0.64796 0.39953 0.0
C1556 C 0.69574 0.60791 0.41171 0.0
C1557 C 0.70123 0.60561 0.38511 0.0
C1558 C 0.70138 0.62339 0.42255 0.0
C1559 C 0.71261 0.63691 0.40706 0.0
C1560 C 0.71765 0.63475 0.37996 0.0
H1561 H 0.75782 0.73774 0.4501 0.0
H1562 H 0.74141 0.71097 0.42924 0.0
C1563 C 0.71187 0.6192 0.36891 0.0
C1564 C 0.72034 0.65302 0.42071 0.0
H1565 H 0.71256 0.68114 0.45004 0.0
C1566 C 0.73681 0.6604 0.42742 0.0
C1567 C 0.71147 0.6606 0.42872 0.0
C1568 C 0.69385 0.65336 0.4213 0.0
C1569 C 0.74462 0.67507 0.44235 0.0
C1570 C 0.73568 0.68246 0.45098 0.0
C1571 C 0.71928 0.67526 0.44381 0.0
C1572 C 0.74357 0.69826 0.46569 0.0
C1573 C 0.76244 0.68269 0.44852 0.0
C1574 C 0.7497 0.69989 0.4936 0.0
C1575 C 0.75905 0.71523 0.50575 0.0
C1576 C 0.76249 0.7291 0.48997 0.0
C1577 C 0.75552 0.72729 0.4627 0.0
C1578 C 0.74609 0.71201 0.45074 0.0
H1579 H 0.7681 0.67682 0.43635 0.0
H1580 H 0.76879 0.69574 0.44312 0.0
H1581 H 0.76421 0.68156 0.47171 0.0
H1582 H 0.74773 0.68934 0.50552 0.0
H1583 H 0.76426 0.71625 0.52677 0.0
H1584 H 0.26337 0.02158 0.4521 0.0
H1585 H 0.29066 0.0317 0.43411 0.0
H1586 H 0.31003 0.06095 0.50987 0.0
H1587 H 0.28254 0.05083 0.52817 0.0
H1588 H 0.31986 0.07795 0.45669 0.0
H1589 H 0.32846 0.02472 0.45676 0.0
H1590 H 0.30973 0.0211 0.44133 0.0
H1591 H 0.31352 0.02587 0.47876 0.0
C1592 C 0.27343 0.02992 0.46528 0.0
C1593 C 0.27081 0.0355 0.49149 0.0
C1594 C 0.28903 0.0356 0.45501 0.0
C1595 C 0.30235 0.04698 0.47073 0.0
C1596 C 0.29987 0.05207 0.49752 0.0
H1597 H 0.40354 0.09297 0.43029 0.0
H1598 H 0.37662 0.07629 0.45041 0.0
C1599 C 0.28419 0.04625 0.50799 0.0
C1600 C 0.31858 0.05484 0.4575 0.0
H1601 H 0.34713 0.04742 0.42904 0.0
C1602 C 0.32589 0.07131 0.45083 0.0
C1603 C 0.32634 0.04611 0.4498 0.0
C1604 C 0.31921 0.0285 0.45722 0.0
C1605 C 0.34067 0.07926 0.43624 0.0
C1606 C 0.34824 0.07044 0.42789 0.0
C1607 C 0.34111 0.05404 0.43504 0.0
C1608 C 0.36416 0.07848 0.41359 0.0
C1609 C 0.34819 0.09707 0.43012 0.0
C1610 C 0.36599 0.08471 0.38572 0.0
C1611 C 0.38142 0.09421 0.37399 0.0
C1612 C 0.39518 0.09771 0.39017 0.0
C1613 C 0.39318 0.09063 0.4174 0.0
C1614 C 0.37781 0.08105 0.42893 0.0
H1615 H 0.34217 0.10263 0.44211 0.0
H1616 H 0.36121 0.10351 0.43579 0.0
H1617 H 0.3472 0.09887 0.40689 0.0
H1618 H 0.35552 0.0827 0.3735 0.0
H1619 H 0.38259 0.0995 0.35299 0.0
H1620 H 0.90232 0.28747 0.34968 0.0
H1621 H 0.91958 0.27785 0.37064 0.0
H1622 H 0.92199 0.30222 0.44965 0.0
H1623 H 0.90491 0.31185 0.42919 0.0
H1624 H 0.9537 0.30008 0.41243 0.0
H1625 H 0.89786 0.24759 0.4563 0.0
H1626 H 0.89765 0.25679 0.42263 0.0
H1627 H 0.89972 0.2673 0.4555 0.0
C1628 C 0.90684 0.29108 0.37126 0.0
C1629 C 0.90209 0.30027 0.38786 0.0
C1630 C 0.91666 0.28557 0.38319 0.0
C1631 C 0.92192 0.2893 0.41168 0.0
C1632 C 0.91801 0.29924 0.42764 0.0
H1633 H 0.95468 0.24033 0.5285 0.0
H1634 H 0.94517 0.25809 0.5097 0.0
C1635 C 0.9082 0.30467 0.41588 0.0
C1636 C 0.93012 0.2816 0.42592 0.0
H1637 H 0.92256 0.24931 0.46765 0.0
C1638 C 0.94696 0.28897 0.42447 0.0
C1639 C 0.92123 0.26732 0.44202 0.0
C1640 C 0.9031 0.25917 0.44435 0.0
C1641 C 0.95519 0.28224 0.43858 0.0
C1642 C 0.94625 0.26765 0.45407 0.0
C1643 C 0.92941 0.26051 0.45589 0.0
C1644 C 0.95387 0.25884 0.4666 0.0
C1645 C 0.97337 0.29089 0.43698 0.0
C1646 C 0.96205 0.25354 0.44873 0.0
C1647 C 0.96748 0.24349 0.45935 0.0
C1648 C 0.96472 0.23833 0.48808 0.0
C1649 C 0.95703 0.2441 0.50631 0.0
C1650 C 0.95157 0.25422 0.49559 0.0
H1651 H 0.97849 0.30402 0.43309 0.0
H1652 H 0.97868 0.28927 0.45698 0.0
H1653 H 0.97705 0.28593 0.41887 0.0
H1654 H 0.96363 0.2566 0.42617 0.0
H1655 H 0.97337 0.23933 0.44464 0.0
H1656 H 0.94863 0.57148 0.35956 0.0
H1657 H 0.97555 0.5888 0.33901 0.0
H1658 H 0.95389 0.59151 0.25979 0.0
H1659 H 0.92714 0.57437 0.27993 0.0
H1660 H 0.97564 0.57912 0.25561 0.0
H1661 H 0.00221 0.63742 0.31426 0.0
H1662 H 0.99285 0.61946 0.33592 0.0
H1663 H 0.9807 0.6237 0.31215 0.0
C1664 C 0.94961 0.57614 0.33806 0.0
C1665 C 0.93575 0.57139 0.32129 0.0
C1666 C 0.96499 0.58604 0.32636 0.0
C1667 C 0.96666 0.59141 0.29788 0.0
C1668 C 0.95284 0.58748 0.28178 0.0
H1669 H 0.05059 0.62877 0.18203 0.0
H1670 H 0.02334 0.61997 0.20029 0.0
C1671 C 0.93755 0.57764 0.29337 0.0
C1672 C 0.98262 0.59941 0.28364 0.0
H1673 H 0.01984 0.63323 0.28429 0.0
C1674 C 0.98529 0.59103 0.26164 0.0
C1675 C 0.9951 0.61489 0.29165 0.0
C1676 C 0.99262 0.62451 0.31464 0.0
C1677 C 0.00035 0.59744 0.24811 0.0
C1678 C 0.01296 0.6129 0.25629 0.0
C1679 C 0.01014 0.62144 0.27789 0.0
C1680 C 0.02956 0.61966 0.2448 0.0
C1681 C 0.00281 0.58727 0.22619 0.0
C1682 C 0.04219 0.62304 0.26378 0.0
C1683 C 0.05769 0.62823 0.25353 0.0
C1684 C 0.06098 0.63013 0.22393 0.0
C1685 C 0.04843 0.62727 0.20489 0.0
C1686 C 0.03285 0.62216 0.21529 0.0
H1687 H 0.99315 0.5744 0.22721 0.0
H1688 H 0.00263 0.59182 0.20442 0.0
H1689 H 0.01464 0.58794 0.22927 0.0
H1690 H 0.03997 0.62124 0.28661 0.0
H1691 H 0.06702 0.63041 0.26895 0.0
H1692 H 0.38156 0.43185 0.18012 0.0
H1693 H 0.39161 0.41459 0.19927 0.0
H1694 H 0.3618 0.40489 0.27423 0.0
H1695 H 0.35174 0.42193 0.25536 0.0
H1696 H 0.40835 0.42229 0.25226 0.0
H1697 H 0.35555 0.36023 0.25388 0.0
H1698 H 0.35647 0.37602 0.23132 0.0
H1699 H 0.35166 0.37529 0.26869 0.0
C1700 C 0.37681 0.42564 0.20025 0.0
C1701 C 0.36595 0.42832 0.21632 0.0
C1702 C 0.3826 0.41586 0.21122 0.0
C1703 C 0.37737 0.40841 0.23809 0.0
C1704 C 0.36581 0.41031 0.25329 0.0
H1705 H 0.43166 0.38338 0.35714 0.0
H1706 H 0.41446 0.39317 0.3366 0.0
C1707 C 0.36016 0.42016 0.24252 0.0
C1708 C 0.38535 0.40033 0.25201 0.0
H1709 H 0.37824 0.36485 0.28226 0.0
C1710 C 0.4018 0.4097 0.25864 0.0
C1711 C 0.37673 0.38393 0.2604 0.0
C1712 C 0.35916 0.37321 0.25301 0.0
C1713 C 0.40987 0.40317 0.27379 0.0
C1714 C 0.40117 0.3869 0.28283 0.0
C1715 C 0.38477 0.37742 0.27577 0.0
C1716 C 0.40935 0.37926 0.29754 0.0
C1717 C 0.42769 0.41367 0.27963 0.0
C1718 C 0.4115 0.3677 0.28294 0.0
C1719 C 0.42125 0.36215 0.29453 0.0
C1720 C 0.42897 0.36797 0.32107 0.0
C1721 C 0.42587 0.37869 0.33667 0.0
C1722 C 0.41616 0.38436 0.32489 0.0
H1723 H 0.43316 0.42497 0.26681 0.0
H1724 H 0.42952 0.417 0.30264 0.0
H1725 H 0.43419 0.40704 0.2748 0.0
H1726 H 0.40628 0.36357 0.26189 0.0
H1727 H 0.42326 0.35375 0.28211 0.0
H1728 H 0.56394 0.92992 0.26463 0.0
H1729 H 0.58089 0.9571 0.28259 0.0
H1730 H 0.59102 0.97533 0.19608 0.0
H1731 H 0.57347 0.94792 0.17765 0.0
H1732 H 0.61222 0.97989 0.27642 0.0
H1733 H 0.57246 0.00128 0.23105 0.0
H1734 H 0.56676 0.98024 0.23155 0.0
H1735 H 0.58074 0.99357 0.20511 0.0
C1736 C 0.56978 0.93963 0.24924 0.0
C1737 C 0.5671 0.93673 0.21961 0.0
C1738 C 0.57956 0.95521 0.25964 0.0
C1739 C 0.58697 0.9683 0.24076 0.0
C1740 C 0.58509 0.96542 0.21108 0.0
H1741 H 0.63864 0.0707 0.27587 0.0
H1742 H 0.62889 0.04416 0.25486 0.0
C1743 C 0.57515 0.94976 0.20056 0.0
C1744 C 0.5959 0.98489 0.25263 0.0
H1745 H 0.59534 0.02023 0.2566 0.0
C1746 C 0.60859 0.98875 0.27198 0.0
C1747 C 0.59102 0.99636 0.24707 0.0
C1748 C 0.57692 0.99267 0.22778 0.0
C1749 C 0.61651 0.00377 0.2859 0.0
C1750 C 0.61156 0.01515 0.28038 0.0
C1751 C 0.59908 0.01142 0.26074 0.0
C1752 C 0.61918 0.03115 0.29443 0.0
C1753 C 0.63016 0.00744 0.30625 0.0
C1754 C 0.61718 0.03264 0.32389 0.0
C1755 C 0.62274 0.04791 0.33614 0.0
C1756 C 0.63025 0.06185 0.31898 0.0
C1757 C 0.63277 0.06024 0.28973 0.0
C1758 C 0.62725 0.04507 0.27762 0.0
H1759 H 0.63457 0.99873 0.30394 0.0
H1760 H 0.64039 0.01984 0.30267 0.0
H1761 H 0.62589 0.00675 0.32859 0.0
H1762 H 0.61079 0.02199 0.33715 0.0
H1763 H 0.6206 0.04874 0.35869 0.0
H1764 H 0.35358 0.92885 0.75931 0.0
H1765 H 0.36311 0.95594 0.77784 0.0
H1766 H 0.38891 0.9763 0.69911 0.0
H1767 H 0.37934 0.94901 0.6802 0.0
H1768 H 0.40785 0.98688 0.75065 0.0
H1769 H 0.35278 0.99213 0.75897 0.0
H1770 H 0.35064 0.97369 0.77314 0.0
H1771 H 0.35412 0.97783 0.73547 0.0
C1772 C 0.36102 0.93906 0.74565 0.0
C1773 C 0.3658 0.9368 0.71834 0.0
C1774 C 0.36636 0.95455 0.75623 0.0
C1775 C 0.3766 0.9681 0.73978 0.0
C1776 C 0.3809 0.96594 0.71203 0.0
H1777 H 0.42117 0.06903 0.78368 0.0
H1778 H 0.40462 0.04235 0.76247 0.0
C1779 C 0.3754 0.95038 0.70124 0.0
C1780 C 0.3842 0.98431 0.75302 0.0
H1781 H 0.3759 0.01144 0.78512 0.0
C1782 C 0.4009 0.99232 0.75796 0.0
C1783 C 0.37506 0.99131 0.76262 0.0
C1784 C 0.35717 0.98339 0.75711 0.0
C1785 C 0.40866 0.00702 0.77281 0.0
C1786 C 0.39946 0.0138 0.78311 0.0
C1787 C 0.38283 0.00602 0.77759 0.0
C1788 C 0.40725 0.02949 0.79818 0.0
C1789 C 0.42668 0.01528 0.77728 0.0
C1790 C 0.41367 0.03097 0.8258 0.0
C1791 C 0.42307 0.04624 0.83816 0.0
C1792 C 0.4263 0.06019 0.82285 0.0
C1793 C 0.41902 0.05851 0.79591 0.0
C1794 C 0.40952 0.04329 0.78376 0.0
H1795 H 0.43234 0.0097 0.76432 0.0
H1796 H 0.43242 0.02828 0.77163 0.0
H1797 H 0.42923 0.01447 0.80021 0.0
H1798 H 0.41194 0.02038 0.83727 0.0
H1799 H 0.42855 0.04716 0.85889 0.0
H1800 H 0.9285 0.35755 0.77426 0.0
H1801 H 0.95514 0.36738 0.75361 0.0
H1802 H 0.97698 0.38608 0.83585 0.0
H1803 H 0.95014 0.37625 0.85702 0.0
H1804 H 0.9788 0.40167 0.75629 0.0
H1805 H 0.00084 0.36252 0.80214 0.0
H1806 H 0.97963 0.35621 0.7999 0.0
H1807 H 0.99203 0.37046 0.82671 0.0
C1808 C 0.9389 0.36353 0.78822 0.0
C1809 C 0.93717 0.36626 0.81731 0.0
C1810 C 0.95413 0.3691 0.7763 0.0
C1811 C 0.96798 0.37741 0.79319 0.0
C1812 C 0.96637 0.37952 0.82255 0.0
H1813 H 0.06921 0.43388 0.76445 0.0
H1814 H 0.04203 0.41642 0.78203 0.0
C1815 C 0.95105 0.37393 0.83459 0.0
C1816 C 0.984 0.3853 0.77924 0.0
H1817 H 0.01946 0.38504 0.77477 0.0
C1818 C 0.98769 0.39799 0.76013 0.0
C1819 C 0.99547 0.38042 0.78439 0.0
C1820 C 0.99185 0.36658 0.80424 0.0
C1821 C 0.00278 0.40634 0.74664 0.0
C1822 C 0.01434 0.40152 0.7518 0.0
C1823 C 0.01053 0.38862 0.77062 0.0
C1824 C 0.03096 0.41073 0.7401 0.0
C1825 C 0.00642 0.42066 0.72799 0.0
C1826 C 0.0339 0.413 0.71047 0.0
C1827 C 0.04956 0.42323 0.70018 0.0
C1828 C 0.0625 0.4312 0.7194 0.0
C1829 C 0.05955 0.42812 0.74894 0.0
C1830 C 0.04398 0.41805 0.75912 0.0
H1831 H 0.9977 0.42496 0.73159 0.0
H1832 H 0.01878 0.43084 0.73209 0.0
H1833 H 0.00563 0.41716 0.70515 0.0
H1834 H 0.02405 0.40716 0.69536 0.0
H1835 H 0.05144 0.4252 0.67732 0.0
H1836 H 0.5696 0.64194 0.77315 0.0
H1837 H 0.58672 0.63232 0.79322 0.0
H1838 H 0.59017 0.61442 0.71035 0.0
H1839 H 0.57286 0.62404 0.68978 0.0
H1840 H 0.57641 0.59812 0.78948 0.0
H1841 H 0.63756 0.6381 0.74419 0.0
H1842 H 0.62251 0.6442 0.74687 0.0
H1843 H 0.62086 0.63027 0.71954 0.0
C1844 C 0.57416 0.63618 0.75895 0.0
C1845 C 0.56968 0.63358 0.72985 0.0
C1846 C 0.584 0.63074 0.77053 0.0
C1847 C 0.58971 0.62271 0.75328 0.0
C1848 C 0.586 0.62077 0.72392 0.0
H1849 H 0.63471 0.56629 0.77785 0.0
H1850 H 0.62514 0.58412 0.76165 0.0
C1851 C 0.57608 0.62623 0.71222 0.0
C1852 C 0.59796 0.61484 0.76684 0.0
H1853 H 0.63378 0.61527 0.77049 0.0
C1854 C 0.58899 0.60192 0.78555 0.0
C1855 C 0.61433 0.61987 0.76156 0.0
C1856 C 0.62449 0.63394 0.7421 0.0
C1857 C 0.59581 0.59348 0.79846 0.0
C1858 C 0.6122 0.59844 0.79314 0.0
C1859 C 0.62126 0.61159 0.77477 0.0
C1860 C 0.61964 0.5891 0.80406 0.0
C1861 C 0.58515 0.5789 0.81661 0.0
C1862 C 0.62022 0.58633 0.83351 0.0
C1863 C 0.62555 0.57588 0.84299 0.0
C1864 C 0.63053 0.5682 0.82313 0.0
C1865 C 0.63081 0.57181 0.79382 0.0
C1866 C 0.6254 0.5821 0.78444 0.0
H1867 H 0.57213 0.5746 0.81312 0.0
H1868 H 0.58738 0.56881 0.81191 0.0
H1869 H 0.58784 0.58212 0.83957 0.0
H1870 H 0.61619 0.59194 0.84909 0.0
H1871 H 0.62535 0.57349 0.86571 0.0
H1872 H 0.23185 0.22992 0.39943 0.0
H1873 H 0.24244 0.23005 0.35175 0.0
H1874 H 0.21593 0.25172 0.31719 0.0
H1875 H 0.20561 0.25198 0.36496 0.0
H1876 H 0.22183 0.21283 0.30714 0.0
H1877 H 0.25964 0.27716 0.27662 0.0
H1878 H 0.25436 0.2707 0.31334 0.0
H1879 H 0.24009 0.27206 0.29015 0.0
C1880 C 0.22882 0.23535 0.38199 0.0
C1881 C 0.21812 0.24123 0.3861 0.0
C1882 C 0.23476 0.23527 0.35464 0.0
C1883 C 0.23018 0.24112 0.33096 0.0
C1884 C 0.21995 0.2475 0.33521 0.0
H1885 H 0.22689 0.2307 0.14782 0.0
H1886 H 0.22734 0.23965 0.19709 0.0
C1887 C 0.21396 0.24753 0.36249 0.0
C1888 C 0.23428 0.2386 0.30148 0.0
H1889 H 0.25132 0.25785 0.23853 0.0
C1890 C 0.22849 0.22269 0.29226 0.0
C1891 C 0.2428 0.25147 0.28203 0.0
C1892 C 0.24972 0.26883 0.29105 0.0
C1893 C 0.23051 0.21922 0.26388 0.0
C1894 C 0.23892 0.23207 0.2443 0.0
C1895 C 0.24493 0.24803 0.25359 0.0
C1896 C 0.24096 0.22898 0.21386 0.0
C1897 C 0.223 0.20177 0.25487 0.0
C1898 C 0.24903 0.2206 0.20673 0.0
C1899 C 0.24877 0.21548 0.17863 0.0
C1900 C 0.24074 0.21894 0.15701 0.0
C1901 C 0.23355 0.22822 0.1638 0.0
C1902 C 0.23368 0.23322 0.19203 0.0
H1903 H 0.21368 0.19352 0.27032 0.0
H1904 H 0.21736 0.19984 0.23338 0.0
H1905 H 0.23252 0.19838 0.2538 0.0
H1906 H 0.25499 0.21746 0.22314 0.0
H1907 H 0.25442 0.20835 0.17395 0.0
H1908 H 0.7413 0.98068 0.39281 0.0
H1909 H 0.73849 0.98916 0.3445 0.0
H1910 H 0.78027 0.98679 0.31694 0.0
H1911 H 0.7832 0.97847 0.36474 0.0
H1912 H 0.7601 0.01572 0.31048 0.0
H1913 H 0.74583 0.95816 0.25889 0.0
H1914 H 0.7448 0.96012 0.29719 0.0
H1915 H 0.76382 0.96593 0.28008 0.0
C1916 C 0.75003 0.98222 0.37659 0.0
C1917 C 0.76253 0.97897 0.38268 0.0
C1918 C 0.74831 0.98693 0.34893 0.0
C1919 C 0.75898 0.98829 0.327 0.0
C1920 C 0.77165 0.98542 0.33332 0.0
H1921 H 0.79933 0.04085 0.17827 0.0
H1922 H 0.78841 0.03192 0.22609 0.0
C1923 C 0.77334 0.98071 0.36073 0.0
C1924 C 0.75727 0.99286 0.29739 0.0
H1925 H 0.75719 0.98163 0.22809 0.0
C1926 C 0.75911 0.00815 0.29241 0.0
C1927 C 0.75552 0.98282 0.27382 0.0
C1928 C 0.7522 0.96577 0.27776 0.0
C1929 C 0.7606 0.01418 0.26443 0.0
C1930 C 0.76063 0.0048 0.24097 0.0
C1931 C 0.75742 0.98898 0.24596 0.0
C1932 C 0.76584 0.01163 0.21173 0.0
C1933 C 0.76249 0.03068 0.2604 0.0
C1934 C 0.75691 0.00318 0.18746 0.0
C1935 C 0.76332 0.00812 0.15991 0.0
C1936 C 0.77876 0.02165 0.15614 0.0
C1937 C 0.78735 0.03045 0.18041 0.0
C1938 C 0.78101 0.02546 0.20784 0.0
H1939 H 0.75586 0.03319 0.27728 0.0
H1940 H 0.77545 0.03996 0.26231 0.0
H1941 H 0.75804 0.0319 0.23911 0.0
H1942 H 0.74528 0.99232 0.18989 0.0
H1943 H 0.75656 0.00072 0.1419 0.0
H1944 H 0.9975 0.75819 0.14343 0.0
H1945 H 0.00625 0.75576 0.19136 0.0
H1946 H 0.96554 0.7572 0.22772 0.0
H1947 H 0.95627 0.75872 0.17992 0.0
H1948 H 0.01605 0.77833 0.22954 0.0
H1949 H 0.96598 0.7241 0.27871 0.0
H1950 H 0.96712 0.72761 0.24056 0.0
H1951 H 0.95842 0.73629 0.26385 0.0
C1952 C 0.98996 0.75718 0.16146 0.0
C1953 C 0.97599 0.75834 0.15773 0.0
C1954 C 0.9951 0.75597 0.18897 0.0
C1955 C 0.98643 0.756 0.21326 0.0
C1956 C 0.9722 0.75662 0.20944 0.0
H1957 H 0.01845 0.80639 0.36696 0.0
H1958 H 0.01003 0.79516 0.31914 0.0
C1959 C 0.96701 0.7577 0.18202 0.0
C1960 C 0.99337 0.7579 0.24246 0.0
H1961 H 0.98293 0.74599 0.31194 0.0
C1962 C 0.00893 0.77097 0.24741 0.0
C1963 C 0.98427 0.7482 0.2659 0.0
C1964 C 0.9681 0.73316 0.26188 0.0
C1965 C 0.01509 0.77536 0.27524 0.0
C1966 C 0.0053 0.76669 0.29882 0.0
C1967 C 0.99029 0.75284 0.29386 0.0
C1968 C 0.0098 0.77289 0.32847 0.0
C1969 C 0.03187 0.78958 0.27915 0.0
C1970 C 0.01188 0.76383 0.34998 0.0
C1971 C 0.01664 0.77023 0.37763 0.0
C1972 C 0.01922 0.78571 0.38412 0.0
C1973 C 0.01672 0.7945 0.36262 0.0
C1974 C 0.01195 0.78812 0.33521 0.0
H1975 H 0.03953 0.79131 0.26009 0.0
H1976 H 0.03111 0.80071 0.28189 0.0
H1977 H 0.03783 0.78806 0.29834 0.0
H1978 H 0.0102 0.752 0.34521 0.0
H1979 H 0.01877 0.76328 0.39351 0.0
H1980 H 0.7921 0.74574 0.67653 0.0
H1981 H 0.78201 0.74339 0.72548 0.0
H1982 H 0.75546 0.7668 0.69966 0.0
H1983 H 0.76531 0.76888 0.65067 0.0
H1984 H 0.78951 0.76885 0.75757 0.0
H1985 H 0.72292 0.73245 0.75179 0.0
H1986 H 0.73578 0.73299 0.72299 0.0
H1987 H 0.73105 0.74889 0.72681 0.0
C1988 C 0.78369 0.7499 0.68117 0.0
C1989 C 0.77921 0.75718 0.65971 0.0
C1990 C 0.77795 0.74858 0.70912 0.0
C1991 C 0.76778 0.75471 0.71627 0.0
C1992 C 0.76286 0.76151 0.69458 0.0
H1993 H 0.74861 0.79245 0.86716 0.0
H1994 H 0.74866 0.78199 0.81935 0.0
C1995 C 0.76846 0.76266 0.66649 0.0
C1996 C 0.76422 0.75601 0.74685 0.0
H1997 H 0.73399 0.7489 0.79398 0.0
C1998 C 0.77734 0.76421 0.7656 0.0
C1999 C 0.74835 0.75007 0.75736 0.0
C2000 C 0.73372 0.74047 0.73873 0.0
C2001 C 0.7751 0.76713 0.79419 0.0
C2002 C 0.75928 0.76156 0.80449 0.0
C2003 C 0.7461 0.7531 0.786 0.0
C2004 C 0.7565 0.76555 0.83383 0.0
C2005 C 0.78973 0.77674 0.81289 0.0
C2006 C 0.76036 0.75936 0.85791 0.0
C2007 C 0.76033 0.7653 0.8853 0.0
C2008 C 0.75638 0.7775 0.88899 0.0
C2009 C 0.75167 0.78302 0.86497 0.0
C2010 C 0.75163 0.77703 0.83767 0.0
H2011 H 0.80113 0.78245 0.80034 0.0
H2012 H 0.78875 0.78633 0.82455 0.0
H2013 H 0.79047 0.76862 0.82902 0.0
H2014 H 0.76415 0.75049 0.85535 0.0
H2015 H 0.76444 0.76109 0.90314 0.0
H2016 H 0.19699 0.95878 0.86094 0.0
H2017 H 0.20806 0.96826 0.81336 0.0
H2018 H 0.25023 0.00853 0.85063 0.0
H2019 H 0.23877 -0.00043 0.89834 0.0
H2020 H 0.23794 0.01875 0.81232 0.0
H2021 H 0.24167 0.96851 0.76287 0.0
H2022 H 0.22187 0.96111 0.77736 0.0
H2023 H 0.2391 0.9695 0.80099 0.0
C2024 C 0.2088 0.96946 0.85909 0.0
C2025 C 0.21708 0.97826 0.88357 0.0
C2026 C 0.21523 0.97477 0.83179 0.0
C2027 C 0.23017 0.98894 0.82828 0.0
C2028 C 0.23879 0.99742 0.85277 0.0
H2029 H 0.25654 0.02152 0.64842 0.0
H2030 H 0.25884 0.01283 0.69685 0.0
C2031 C 0.23229 0.99217 0.88016 0.0
C2032 C 0.23545 0.996 0.79921 0.0
H2033 H 0.23726 0.98583 0.72969 0.0
C2034 C 0.23819 0.01166 0.7944 0.0
C2035 C 0.23609 0.98695 0.77572 0.0
C2036 C 0.2347 0.97066 0.7796 0.0
C2037 C 0.24026 0.018 0.76665 0.0
C2038 C 0.23917 0.00827 0.74298 0.0
C2039 C 0.23775 0.99314 0.74783 0.0
C2040 C 0.23778 0.01298 0.71331 0.0
C2041 C 0.24311 0.0349 0.76293 0.0
C2042 C 0.22496 0.01552 0.70635 0.0
C2043 C 0.22358 0.02037 0.67887 0.0
C2044 C 0.23484 0.02256 0.65749 0.0
C2045 C 0.24749 0.01964 0.66421 0.0
C2046 C 0.2489 0.01481 0.69193 0.0
H2047 H 0.24905 0.04243 0.7821 0.0
H2048 H 0.25071 0.04087 0.74385 0.0
H2049 H 0.23134 0.03436 0.76011 0.0
H2050 H 0.216 0.01379 0.72229 0.0
H2051 H 0.2136 0.02236 0.67436 0.0
H2052 H 0.95247 0.21269 0.67363 0.0
H2053 H 0.96141 0.22228 0.72247 0.0
H2054 H 0.0108 0.23997 0.69701 0.0
H2055 H 0.00191 0.23062 0.64817 0.0
H2056 H 0.97546 0.2104 0.75535 0.0
H2057 H 0.01631 0.27641 0.74773 0.0
H2058 H 0.0027 0.26479 0.71917 0.0
H2059 H 0.02176 0.2655 0.72322 0.0
C2060 C 0.96528 0.21908 0.67832 0.0
C2061 C 0.97653 0.22122 0.65698 0.0
C2062 C 0.97037 0.22453 0.70621 0.0
C2063 C 0.98681 0.23208 0.71342 0.0
C2064 C 0.99812 0.23468 0.69186 0.0
H2065 H 0.04173 0.24361 0.86432 0.0
H2066 H 0.03199 0.24476 0.81641 0.0
C2067 C 0.99303 0.22937 0.66384 0.0
C2068 C 0.99183 0.23517 0.74397 0.0
H2069 H 0.01864 0.26355 0.79041 0.0
C2070 C 0.9847 0.2221 0.7631 0.0
C2071 C 0.00396 0.25042 0.75409 0.0
C2072 C 0.01151 0.26511 0.73502 0.0
C2073 C 0.98975 0.22368 0.79169 0.0
C2074 C 0.00216 0.2388 0.80161 0.0
C2075 C 0.0091 0.25199 0.78273 0.0
C2076 C 0.00879 0.24068 0.83095 0.0
C2077 C 0.98225 0.20896 0.81077 0.0
C2078 C 0.99915 0.23852 0.85508 0.0
C2079 C 0.00468 0.23784 0.88252 0.0
C2080 C 0.01999 0.23941 0.88624 0.0
C2081 C 0.02989 0.24239 0.86212 0.0
C2082 C 0.02438 0.2431 0.83476 0.0
H2083 H 0.97498 0.19764 0.79843 0.0
H2084 H 0.9917 0.20795 0.82286 0.0
H2085 H 0.97417 0.21007 0.82651 0.0
H2086 H 0.98708 0.23667 0.85256 0.0
H2087 H 0.99657 0.23512 0.90046 0.0
H2088 H 0.88149 0.52796 0.50689 0.0
H2089 H 0.88382 0.53897 0.55475 0.0
H2090 H 0.92748 0.58219 0.53 0.0
H2091 H 0.92511 0.57118 0.48152 0.0
H2092 H 0.90885 0.54732 0.59248 0.0
H2093 H 0.90084 0.59991 0.56846 0.0
H2094 H 0.89572 0.5839 0.54291 0.0
H2095 H 0.91648 0.59859 0.54939 0.0
C2096 C 0.89156 0.53986 0.5115 0.0
C2097 C 0.90304 0.54876 0.49033 0.0
C2098 C 0.89287 0.54614 0.53889 0.0
C2099 C 0.90576 0.56144 0.54594 0.0
C2100 C 0.91727 0.57048 0.52487 0.0
H2101 H 0.90798 0.57562 0.73277 0.0
H2102 H 0.91944 0.5784 0.68494 0.0
C2103 C 0.91588 0.5642 0.49718 0.0
C2104 C 0.90705 0.56731 0.57577 0.0
H2105 H 0.90214 0.59406 0.61688 0.0
C2106 C 0.90766 0.5577 0.5979 0.0
C2107 C 0.9055 0.58086 0.58267 0.0
C2108 C 0.90449 0.59141 0.55971 0.0
C2109 C 0.90565 0.56058 0.62665 0.0
C2110 C 0.90349 0.57379 0.63357 0.0
C2111 C 0.90389 0.58401 0.61155 0.0
C2112 C 0.89835 0.57564 0.66269 0.0
C2113 C 0.90467 0.5487 0.649 0.0
C2114 C 0.88316 0.57427 0.66618 0.0
C2115 C 0.87677 0.57315 0.69348 0.0
C2116 C 0.88543 0.57338 0.71798 0.0
C2117 C 0.90108 0.57575 0.71455 0.0
C2118 C 0.90756 0.57706 0.68711 0.0
H2119 H 0.90345 0.53754 0.63928 0.0
H2120 H 0.91585 0.55436 0.66207 0.0
H2121 H 0.89425 0.54523 0.66352 0.0
H2122 H 0.87582 0.57319 0.6477 0.0
H2123 H 0.86471 0.5714 0.69536 0.0
H2124 H 0.43258 0.32877 0.47447 0.0
H2125 H 0.42195 0.31782 0.52193 0.0
H2126 H 0.44882 0.36556 0.55811 0.0
H2127 H 0.45919 0.37665 0.51061 0.0
H2128 H 0.44245 0.32051 0.56639 0.0
H2129 H 0.40508 0.34722 0.59866 0.0
H2130 H 0.41035 0.34635 0.5618 0.0
H2131 H 0.42468 0.36171 0.58534 0.0
C2132 C 0.43569 0.33704 0.49225 0.0
C2133 C 0.4465 0.35364 0.48867 0.0
C2134 C 0.42973 0.33073 0.51947 0.0
C2135 C 0.43439 0.3409 0.54352 0.0
C2136 C 0.44474 0.35753 0.53981 0.0
H2137 H 0.43825 0.33322 0.72603 0.0
H2138 H 0.43742 0.34161 0.67683 0.0
C2139 C 0.45076 0.36383 0.51267 0.0
C2140 C 0.4302 0.33397 0.57281 0.0
H2141 H 0.41342 0.33593 0.63623 0.0
C2142 C 0.43587 0.32367 0.58154 0.0
C2143 C 0.42179 0.33826 0.5926 0.0
C2144 C 0.41499 0.34888 0.58411 0.0
C2145 C 0.4339 0.318 0.6098 0.0
C2146 C 0.42564 0.32242 0.62976 0.0
C2147 C 0.41969 0.3325 0.6209 0.0
C2148 C 0.42383 0.31728 0.66019 0.0
C2149 C 0.44135 0.30792 0.6183 0.0
C2150 C 0.41591 0.30084 0.66741 0.0
C2151 C 0.41638 0.29604 0.6955 0.0
C2152 C 0.42441 0.30759 0.717 0.0
C2153 C 0.43151 0.32405 0.71013 0.0
C2154 C 0.43118 0.32885 0.68194 0.0
H2155 H 0.45057 0.309 0.6026 0.0
H2156 H 0.44711 0.31152 0.63972 0.0
H2157 H 0.43178 0.29504 0.61929 0.0
H2158 H 0.40991 0.2917 0.65108 0.0
H2159 H 0.41089 0.28328 0.70026 0.0
H2160 H 0.6885 0.09744 0.7269 0.0
H2161 H 0.68075 0.0862 0.6784 0.0
H2162 H 0.67412 0.126 0.6543 0.0
H2163 H 0.68154 0.13711 0.70235 0.0
H2164 H 0.65165 0.07749 0.64552 0.0
H2165 H 0.70637 0.12668 0.59457 0.0
H2166 H 0.70504 0.12271 0.63259 0.0
H2167 H 0.69658 0.13419 0.61758 0.0
C2168 C 0.6851 0.10363 0.71146 0.0
C2169 C 0.68554 0.11814 0.71863 0.0
C2170 C 0.68082 0.09726 0.68368 0.0
C2171 C 0.67712 0.10542 0.66266 0.0
C2172 C 0.67724 0.11968 0.67001 0.0
H2173 H 0.62312 0.08906 0.51428 0.0
H2174 H 0.63278 0.08786 0.56193 0.0
C2175 C 0.68147 0.12599 0.69757 0.0
C2176 C 0.67308 0.09934 0.63287 0.0
H2177 H 0.68326 0.11207 0.56388 0.0
C2178 C 0.65871 0.08484 0.62759 0.0
C2179 C 0.68249 0.10873 0.60949 0.0
C2180 C 0.69857 0.12386 0.6138 0.0
C2181 C 0.65287 0.08017 0.59953 0.0
C2182 C 0.66149 0.09043 0.57633 0.0
C2183 C 0.6765 0.10425 0.58157 0.0
C2184 C 0.65444 0.08827 0.54716 0.0
C2185 C 0.63733 0.06448 0.59515 0.0
C2186 C 0.66337 0.08897 0.52275 0.0
C2187 C 0.65795 0.0899 0.49532 0.0
C2188 C 0.64348 0.09015 0.49183 0.0
C2189 C 0.63425 0.08876 0.51622 0.0
C2190 C 0.63969 0.08789 0.54354 0.0
H2191 H 0.63579 0.05552 0.6118 0.0
H2192 H 0.62701 0.06666 0.5971 0.0
H2193 H 0.63686 0.05924 0.57371 0.0
H2194 H 0.67491 0.08953 0.525 0.0
H2195 H 0.66563 0.09147 0.4772 0.0
H2196 H 0.45086 0.07229 0.00864 0.0
H2197 H 0.44132 0.07182 0.05747 0.0
H2198 H 0.425 0.10467 0.03219 0.0
H2199 H 0.4343 0.10495 0.98337 0.0
H2200 H 0.45387 0.09777 0.09041 0.0
H2201 H 0.38815 0.07439 0.08287 0.0
H2202 H 0.3995 0.07199 0.05429 0.0
H2203 H 0.39939 0.09065 0.05833 0.0
C2204 C 0.44476 0.07899 0.01336 0.0
C2205 C 0.44299 0.08837 0.99209 0.0
C2206 C 0.43934 0.07874 0.04124 0.0
C2207 C 0.43221 0.08802 0.0485 0.0
C2208 C 0.42996 0.09699 0.027 0.0
H2209 H 0.42262 0.13293 0.19884 0.0
H2210 H 0.42107 0.12173 0.15106 0.0
C2211 C 0.43525 0.09711 0.99899 0.0
C2212 C 0.42923 0.09005 0.07906 0.0
H2213 H 0.40133 0.08952 0.12546 0.0
C2214 C 0.44228 0.09567 0.09816 0.0
C2215 C 0.41415 0.08741 0.08917 0.0
C2216 C 0.39946 0.08062 0.07014 0.0
C2217 C 0.44087 0.09931 0.12672 0.0
C2218 C 0.42593 0.0971 0.13663 0.0
C2219 C 0.41275 0.09115 0.11779 0.0
C2220 C 0.42429 0.10212 0.16589 0.0
C2221 C 0.45559 0.10618 0.14577 0.0
C2222 C 0.42611 0.09448 0.19012 0.0
C2223 C 0.42702 0.10087 0.21748 0.0
C2224 C 0.42602 0.11494 0.22101 0.0
C2225 C 0.4234 0.12206 0.19678 0.0
C2226 C 0.42245 0.11565 0.1695 0.0
H2227 H 0.46683 0.10982 0.13345 0.0
H2228 H 0.45698 0.11684 0.15769 0.0
H2229 H 0.45415 0.09693 0.16167 0.0
H2230 H 0.42752 0.08399 0.18774 0.0
H2231 H 0.42946 0.09532 0.23552 0.0
H2232 H 0.91221 0.3754 0.01193 0.0
H2233 H 0.91253 0.36535 0.05955 0.0
H2234 H 0.90658 0.32129 0.02299 0.0
H2235 H 0.90509 0.33081 0.97534 0.0
H2236 H 0.88561 0.31423 0.06223 0.0
H2237 H 0.94312 0.36021 0.10914 0.0
H2238 H 0.93267 0.36993 0.09546 0.0
H2239 H 0.93915 0.35958 0.07123 0.0
C2240 C 0.91129 0.36368 0.01389 0.0
C2241 C 0.90885 0.35406 0.98955 0.0
C2242 C 0.9117 0.35802 0.04125 0.0
C2243 C 0.90996 0.34267 0.04503 0.0
C2244 C 0.90818 0.33327 0.02068 0.0
H2245 H 0.90263 0.31068 0.22567 0.0
H2246 H 0.91339 0.31858 0.17683 0.0
C2247 C 0.90755 0.33886 0.99324 0.0
C2248 C 0.90764 0.3357 0.07434 0.0
H2249 H 0.92104 0.34533 0.14334 0.0
C2250 C 0.8936 0.32089 0.07979 0.0
C2251 C 0.91815 0.34411 0.09742 0.0
C2252 C 0.93419 0.35924 0.09289 0.0
C2253 C 0.8892 0.31492 0.10773 0.0
C2254 C 0.89879 0.32422 0.13104 0.0
C2255 C 0.91347 0.33837 0.12554 0.0
C2256 C 0.89296 0.32016 0.16103 0.0
C2257 C 0.87405 0.29883 0.11201 0.0
C2258 C 0.8782 0.31894 0.16856 0.0
C2259 C 0.87208 0.31446 0.19618 0.0
C2260 C 0.8807 0.31138 0.2172 0.0
C2261 C 0.8958 0.31318 0.21006 0.0
C2262 C 0.90191 0.31758 0.18214 0.0
H2263 H 0.87151 0.29091 0.09303 0.0
H2264 H 0.87496 0.29248 0.1312 0.0
H2265 H 0.86363 0.30079 0.11485 0.0
H2266 H 0.87131 0.32135 0.15292 0.0
H2267 H 0.86051 0.31337 0.2011 0.0
H2268 H 0.64821 0.52683 0.00604 0.0
H2269 H 0.65601 0.53764 0.05425 0.0
H2270 H 0.64963 0.57783 0.03188 0.0
H2271 H 0.64177 0.56701 0.9831 0.0
H2272 H 0.67762 0.5868 0.06447 0.0
H2273 H 0.6245 0.53568 0.11501 0.0
H2274 H 0.63483 0.52871 0.0922 0.0
H2275 H 0.62566 0.5395 0.07696 0.0
C2276 C 0.64845 0.53799 0.01129 0.0
C2277 C 0.64439 0.54607 0.99072 0.0
C2278 C 0.65286 0.54411 0.03892 0.0
C2279 C 0.65305 0.55834 0.04685 0.0
C2280 C 0.64945 0.56677 0.02621 0.0
H2281 H 0.66437 0.57002 0.23229 0.0
H2282 H 0.65445 0.57142 0.18497 0.0
C2283 C 0.64509 0.56064 0.99831 0.0
C2284 C 0.65706 0.56413 0.07681 0.0
H2285 H 0.64778 0.55049 0.14548 0.0
C2286 C 0.67094 0.57904 0.08228 0.0
C2287 C 0.64809 0.55424 0.10008 0.0
C2288 C 0.63234 0.53873 0.09578 0.0
C2289 C 0.67677 0.58371 0.11033 0.0
C2290 C 0.66873 0.57297 0.13333 0.0
C2291 C 0.65415 0.55867 0.12795 0.0
C2292 C 0.6759 0.57535 0.16244 0.0
C2293 C 0.69163 0.59996 0.1149 0.0
C2294 C 0.6914 0.57741 0.16579 0.0
C2295 C 0.69727 0.57702 0.19297 0.0
C2296 C 0.68772 0.57434 0.21749 0.0
C2297 C 0.67236 0.5727 0.21422 0.0
C2298 C 0.66655 0.57329 0.18698 0.0
H2299 H 0.69228 0.60883 0.09882 0.0
H2300 H 0.69188 0.60476 0.13666 0.0
H2301 H 0.70253 0.59881 0.1121 0.0
H2302 H 0.69869 0.57847 0.14728 0.0
H2303 H 0.70911 0.5782 0.19465 0.0
H2304 H 0.57399 0.90928 0.80747 0.0
H2305 H 0.57637 0.92071 0.85524 0.0
H2306 H 0.57794 0.88018 0.89212 0.0
H2307 H 0.57628 0.8691 0.8445 0.0
H2308 H 0.55409 0.90677 0.89469 0.0
H2309 H 0.61083 0.9156 0.94122 0.0
H2310 H 0.60683 0.91288 0.90321 0.0
H2311 H 0.59951 0.89565 0.92668 0.0
C2312 C 0.57561 0.90319 0.82557 0.0
C2313 C 0.57521 0.88839 0.82208 0.0
C2314 C 0.57681 0.90967 0.85298 0.0
C2315 C 0.57762 0.90148 0.87736 0.0
C2316 C 0.57783 0.88702 0.87373 0.0
H2317 H 0.52978 0.87924 0.03283 0.0
H2318 H 0.54092 0.88324 0.98476 0.0
C2319 C 0.57669 0.88059 0.84644 0.0
C2320 C 0.57574 0.90651 0.90659 0.0
H2321 H 0.58906 0.90952 0.97549 0.0
C2322 C 0.56201 0.90781 0.91219 0.0
C2323 C 0.58613 0.90811 0.92955 0.0
C2324 C 0.60174 0.90817 0.92476 0.0
C2325 C 0.5577 0.9093 0.94025 0.0
C2326 C 0.5672 0.90922 0.96338 0.0
C2327 C 0.58164 0.9093 0.95774 0.0
C2328 C 0.56118 0.907 0.99324 0.0
C2329 C 0.5426 0.91026 0.94501 0.0
C2330 C 0.56917 0.91887 0.0143 0.0
C2331 C 0.56277 0.91661 0.04209 0.0
C2332 C 0.54841 0.90237 0.0492 0.0
C2333 C 0.54077 0.89042 0.0281 0.0
C2334 C 0.54711 0.89268 0.00054 0.0
H2335 H 0.53962 0.91519 0.92589 0.0
H2336 H 0.53232 0.89795 0.94904 0.0
H2337 H 0.54391 0.91793 0.96382 0.0
H2338 H 0.58008 0.93 0.00904 0.0
H2339 H 0.56879 0.92622 0.05757 0.0
H2340 H 0.12049 0.65587 0.03914 0.0
H2341 H 0.11645 0.66322 0.99124 0.0
H2342 H 0.0676 0.65012 0.01299 0.0
H2343 H 0.07152 0.64251 0.06141 0.0
H2344 H 0.09093 0.64035 0.95309 0.0
H2345 H 0.08878 0.69659 0.97414 0.0
H2346 H 0.09836 0.68949 0.9989 0.0
H2347 H 0.07682 0.67891 0.99576 0.0
C2348 C 0.10889 0.65463 0.03392 0.0
C2349 C 0.09636 0.64869 0.05419 0.0
C2350 C 0.10662 0.65887 0.00652 0.0
C2351 C 0.09177 0.65726 0.99862 0.0
C2352 C 0.07923 0.65163 0.01884 0.0
H2353 H 0.08844 0.66635 0.81132 0.0
H2354 H 0.07707 0.65735 0.85915 0.0
C2355 C 0.08152 0.64738 0.04652 0.0
C2356 C 0.08957 0.66078 0.9686 0.0
H2357 H 0.09075 0.69039 0.92611 0.0
C2358 C 0.09051 0.65108 0.94705 0.0
C2359 C 0.08908 0.67482 0.961 0.0
C2360 C 0.08824 0.68566 0.98352 0.0
C2361 C 0.09208 0.65558 0.91813 0.0
C2362 C 0.09236 0.67006 0.9105 0.0
C2363 C 0.09043 0.67926 0.93197 0.0
C2364 C 0.09717 0.67699 0.88129 0.0
C2365 C 0.09467 0.64543 0.89633 0.0
C2366 C 0.11174 0.69153 0.87773 0.0
C2367 C 0.11808 0.69689 0.85042 0.0
C2368 C 0.10998 0.68787 0.82601 0.0
C2369 C 0.09487 0.67382 0.82948 0.0
C2370 C 0.08845 0.6685 0.85691 0.0
H2371 H 0.09696 0.63627 0.90654 0.0
H2372 H 0.08374 0.63896 0.88277 0.0
H2373 H 0.10505 0.65313 0.88218 0.0
H2374 H 0.11869 0.6983 0.8962 0.0
H2375 H 0.12971 0.70779 0.8485 0.0
H2376 H 0.33504 0.42758 0.80864 0.0
H2377 H 0.34439 0.42556 0.85615 0.0
H2378 H 0.30058 0.42009 0.893 0.0
H2379 H 0.29069 0.42096 0.84549 0.0
H2380 H 0.35163 0.44653 0.89551 0.0
H2381 H 0.30536 0.38907 0.94213 0.0
H2382 H 0.30605 0.39312 0.90424 0.0
H2383 H 0.29574 0.39963 0.92851 0.0
C2384 C 0.327 0.42511 0.82657 0.0
C2385 C 0.31194 0.42413 0.82303 0.0
C2386 C 0.33248 0.42416 0.85391 0.0
C2387 C 0.3231 0.42238 0.87829 0.0
C2388 C 0.30786 0.42091 0.87464 0.0
H2389 H 0.35143 0.47162 0.03386 0.0
H2390 H 0.34376 0.46071 0.98567 0.0
C2391 C 0.30231 0.42165 0.84737 0.0
C2392 C 0.33007 0.42455 0.90754 0.0
H2393 H 0.3202 0.41116 0.97647 0.0
C2394 C 0.34491 0.43854 0.91304 0.0
C2395 C 0.32157 0.41404 0.93055 0.0
C2396 C 0.3064 0.39804 0.92592 0.0
C2397 C 0.35079 0.44293 0.94101 0.0
C2398 C 0.34138 0.43337 0.96424 0.0
C2399 C 0.32723 0.4187 0.95869 0.0
C2400 C 0.34528 0.43927 0.99417 0.0
C2401 C 0.36686 0.45808 0.94542 0.0
C2402 C 0.34798 0.43048 0.01541 0.0
C2403 C 0.35222 0.43665 0.04329 0.0
C2404 C 0.35372 0.45165 0.05026 0.0
C2405 C 0.35055 0.46013 0.02908 0.0
C2406 C 0.34624 0.45394 0.00147 0.0
H2407 H 0.37485 0.46064 0.92653 0.0
H2408 H 0.36489 0.46849 0.94824 0.0
H2409 H 0.37314 0.45714 0.96469 0.0
H2410 H 0.34719 0.41907 0.01023 0.0
H2411 H 0.35484 0.42997 0.059 0.0
H2412 H 0.1205 0.46972 0.53366 0.0
H2413 H 0.11667 0.45861 0.48559 0.0
H2414 H 0.0701 0.41908 0.50976 0.0
H2415 H 0.0737 0.43035 0.55827 0.0
H2416 H 0.09105 0.41052 0.47636 0.0
H2417 H 0.08439 0.45937 0.42665 0.0
H2418 H 0.10158 0.46691 0.44995 0.0
H2419 H 0.0816 0.45501 0.46456 0.0
C2420 C 0.1094 0.45866 0.5289 0.0
C2421 C 0.09744 0.4509 0.54996 0.0
C2422 C 0.10724 0.45234 0.50135 0.0
C2423 C 0.09302 0.43816 0.49403 0.0
C2424 C 0.08115 0.43007 0.51504 0.0
H2425 H 0.09135 0.42555 0.30838 0.0
H2426 H 0.07974 0.42292 0.35605 0.0
C2427 C 0.0833 0.43645 0.54283 0.0
C2428 C 0.0909 0.43216 0.46421 0.0
H2429 H 0.09325 0.44524 0.39553 0.0
C2430 C 0.09114 0.41788 0.4586 0.0
C2431 C 0.09066 0.44157 0.44107 0.0
C2432 C 0.08937 0.45649 0.44581 0.0
C2433 C 0.0925 0.41348 0.43043 0.0
C2434 C 0.09396 0.42382 0.40748 0.0
C2435 C 0.09233 0.43737 0.41304 0.0
C2436 C 0.09916 0.4221 0.37832 0.0
C2437 C 0.09279 0.39805 0.42566 0.0
C2438 C 0.1138 0.42225 0.37482 0.0
C2439 C 0.12034 0.42353 0.34758 0.0
C2440 C 0.11246 0.42479 0.32316 0.0
C2441 C 0.09751 0.42408 0.32653 0.0
C2442 C 0.09092 0.42274 0.35388 0.0
H2443 H 0.08545 0.38888 0.44208 0.0
H2444 H 0.08818 0.39293 0.40409 0.0
H2445 H 0.10539 0.40052 0.42766 0.0
H2446 H 0.12068 0.42229 0.39327 0.0
H2447 H 0.13194 0.42418 0.34572 0.0
H2448 H 0.57468 0.66755 0.57351 0.0
H2449 H 0.58616 0.67683 0.52586 0.0
H2450 H 0.54483 0.63588 0.48813 0.0
H2451 H 0.53374 0.62607 0.53567 0.0
H2452 H 0.57261 0.64397 0.45836 0.0
H2453 H 0.56656 0.69809 0.47865 0.0
H2454 H 0.5798 0.69542 0.50239 0.0
H2455 H 0.55851 0.68117 0.50288 0.0
C2456 C 0.56834 0.66014 0.55524 0.0
C2457 C 0.55331 0.64598 0.55849 0.0
C2458 C 0.57482 0.66563 0.5279 0.0
C2459 C 0.56621 0.65723 0.50338 0.0
C2460 C 0.5517 0.6426 0.5067 0.0
H2461 H 0.54613 0.68271 0.34541 0.0
H2462 H 0.54909 0.67481 0.39353 0.0
C2463 C 0.54532 0.63705 0.53393 0.0
C2464 C 0.57111 0.6643 0.47428 0.0
H2465 H 0.57333 0.69457 0.43229 0.0
C2466 C 0.57307 0.65519 0.45267 0.0
C2467 C 0.57158 0.67889 0.4669 0.0
C2468 C 0.56889 0.68894 0.4888 0.0
C2469 C 0.57466 0.65984 0.42374 0.0
C2470 C 0.57448 0.67408 0.41636 0.0
C2471 C 0.57349 0.68367 0.4381 0.0
C2472 C 0.5729 0.67811 0.3863 0.0
C2473 C 0.57547 0.64901 0.40112 0.0
C2474 C 0.58526 0.68245 0.36605 0.0
C2475 C 0.58355 0.68695 0.3382 0.0
C2476 C 0.56949 0.68723 0.33041 0.0
C2477 C 0.55714 0.6827 0.35075 0.0
C2478 C 0.55881 0.67816 0.37829 0.0
H2479 H 0.57349 0.63742 0.41016 0.0
H2480 H 0.56629 0.64637 0.38425 0.0
H2481 H 0.58752 0.65526 0.39078 0.0
H2482 H 0.59635 0.68274 0.37195 0.0
H2483 H 0.59342 0.69071 0.32323 0.0
H2484 H 0.29077 0.86994 0.34646 0.0
H2485 H 0.30036 0.88116 0.39394 0.0
H2486 H 0.34313 0.92072 0.35669 0.0
H2487 H 0.33387 0.90914 0.30907 0.0
H2488 H 0.35076 0.90627 0.39636 0.0
H2489 H 0.30424 0.91739 0.44249 0.0
H2490 H 0.29495 0.89737 0.42807 0.0
H2491 H 0.30541 0.91449 0.40451 0.0
C2492 C 0.30203 0.88126 0.34828 0.0
C2493 C 0.31144 0.88874 0.32389 0.0
C2494 C 0.30743 0.88778 0.37548 0.0
C2495 C 0.32233 0.90199 0.37896 0.0
C2496 C 0.33147 0.90988 0.35452 0.0
H2497 H 0.35576 0.92565 0.55927 0.0
H2498 H 0.34876 0.92995 0.51069 0.0
C2499 C 0.32607 0.90332 0.32721 0.0
C2500 C 0.32931 0.90694 0.40814 0.0
H2501 H 0.31923 0.91044 0.47693 0.0
C2502 C 0.34405 0.90763 0.41382 0.0
C2503 C 0.32075 0.90897 0.43101 0.0
C2504 C 0.30555 0.9097 0.4261 0.0
C2505 C 0.34974 0.90889 0.4419 0.0
C2506 C 0.34031 0.90919 0.46496 0.0
C2507 C 0.3263 0.90992 0.45923 0.0
C2508 C 0.34381 0.90667 0.49481 0.0
C2509 C 0.36546 0.90916 0.44677 0.0
C2510 C 0.34293 0.89204 0.50207 0.0
C2511 C 0.34671 0.8895 0.52966 0.0
C2512 C 0.35135 0.90147 0.55081 0.0
C2513 C 0.35189 0.91603 0.54374 0.0
C2514 C 0.34805 0.91858 0.51592 0.0
H2515 H 0.37346 0.91389 0.42772 0.0
H2516 H 0.37196 0.91666 0.46565 0.0
H2517 H 0.36294 0.89667 0.45072 0.0
H2518 H 0.3394 0.88259 0.48623 0.0
H2519 H 0.34604 0.87809 0.53438 0.0
H2520 H 0.2319 0.15983 0.04734 0.0
H2521 H 0.22955 0.13323 0.04495 0.0
H2522 H 0.2084 0.12587 0.96081 0.0
H2523 H 0.21102 0.1526 0.96269 0.0
H2524 H 0.20229 0.1038 0.0393 0.0
H2525 H 0.24368 0.11477 0.94787 0.0
H2526 H 0.2429 0.13093 0.96638 0.0
H2527 H 0.22778 0.119 0.94026 0.0
C2528 C 0.22682 0.15261 0.02824 0.0
C2529 C 0.22172 0.15839 0.00515 0.0
C2530 C 0.22549 0.1374 0.02692 0.0
C2531 C 0.21905 0.12769 0.00251 0.0
C2532 C 0.21377 0.13333 0.97955 0.0
H2533 H 0.19299 0.02713 0.97453 0.0
H2534 H 0.19609 0.05413 0.96917 0.0
C2535 C 0.21519 0.14858 0.98077 0.0
C2536 C 0.21733 0.11143 0.00167 0.0
H2537 H 0.22879 0.08784 0.9651 0.0
C2538 C 0.2081 0.10033 0.02309 0.0
C2539 C 0.2249 0.10693 0.98042 0.0
C2540 C 0.23549 0.11856 0.95757 0.0
C2541 C 0.20627 0.08486 0.0239 0.0
C2542 C 0.2139 0.08043 0.00282 0.0
C2543 C 0.22293 0.09136 0.98112 0.0
C2544 C 0.21316 0.06467 0.00397 0.0
C2545 C 0.19621 0.07332 0.04731 0.0
C2546 C 0.22205 0.06191 0.02481 0.0
C2547 C 0.22041 0.04666 0.0277 0.0
C2548 C 0.20983 0.03393 0.00985 0.0
C2549 C 0.20134 0.03683 0.98832 0.0
C2550 C 0.20305 0.05216 0.98534 0.0
H2551 H 0.18899 0.07761 0.05914 0.0
H2552 H 0.18792 0.0612 0.03824 0.0
H2553 H 0.20428 0.072 0.06279 0.0
H2554 H 0.22998 0.07149 0.03923 0.0
H2555 H 0.22716 0.0447 0.04429 0.0
H2556 H 0.95476 0.18252 0.04534 0.0
H2557 H 0.92809 0.15841 0.04116 0.0
H2558 H 0.94567 0.14089 0.97287 0.0
H2559 H 0.97262 0.16479 0.97789 0.0
H2560 H 0.90659 0.14577 0.99736 0.0
H2561 H 0.92792 0.1036 0.02912 0.0
H2562 H 0.94033 0.1252 0.03268 0.0
H2563 H 0.93799 0.11575 0.99836 0.0
C2564 C 0.95288 0.17351 0.0294 0.0
C2565 C 0.96568 0.17538 0.01204 0.0
C2566 C 0.93767 0.1598 0.02697 0.0
C2567 C 0.93499 0.14771 0.00709 0.0
C2568 C 0.94759 0.14991 0.98878 0.0
H2569 H 0.84909 0.05648 0.96862 0.0
H2570 H 0.87571 0.08078 0.96817 0.0
C2571 C 0.96288 0.16362 0.99138 0.0
C2572 C 0.91906 0.13273 0.00619 0.0
H2573 H 0.90048 0.09189 0.01562 0.0
C2574 C 0.90525 0.13399 0.00134 0.0
C2575 C 0.91736 0.11738 0.01162 0.0
C2576 C 0.93166 0.11535 0.01851 0.0
C2577 C 0.88978 0.1203 0.00161 0.0
C2578 C 0.88812 0.10502 0.00697 0.0
C2579 C 0.90189 0.10369 0.01152 0.0
C2580 C 0.87214 0.09023 0.00782 0.0
C2581 C 0.87529 0.1222 0.99595 0.0
C2582 C 0.86148 0.08745 0.03057 0.0
C2583 C 0.84628 0.07351 0.03106 0.0
C2584 C 0.84149 0.06219 0.00867 0.0
C2585 C 0.85235 0.06498 0.98613 0.0
C2586 C 0.86757 0.07883 0.98581 0.0
H2587 H 0.87878 0.13439 0.98758 0.0
H2588 H 0.86706 0.11299 0.98034 0.0
H2589 H 0.8685 0.12031 0.0162 0.0
H2590 H 0.86492 0.09609 0.04789 0.0
H2591 H 0.83821 0.07172 0.04873 0.0
H2592 H 0.81274 0.76962 0.04089 0.0
H2593 H 0.83665 0.76664 0.03623 0.0
H2594 H 0.85805 0.80725 0.97848 0.0
H2595 H 0.83403 0.81023 0.98309 0.0
H2596 H 0.85257 0.76368 0.98209 0.0
H2597 H 0.8899 0.81769 0.04995 0.0
H2598 H 0.8681 0.80704 0.05081 0.0
H2599 H 0.87865 0.81983 0.02102 0.0
C2600 C 0.82248 0.77774 0.0269 0.0
C2601 C 0.82164 0.79009 0.0122 0.0
C2602 C 0.83607 0.77603 0.02426 0.0
C2603 C 0.84908 0.78679 0.00718 0.0
C2604 C 0.8481 0.79889 0.99184 0.0
H2605 H 0.93492 0.78259 0.96272 0.0
H2606 H 0.91067 0.78496 0.96213 0.0
C2607 C 0.83441 0.80052 0.99432 0.0
C2608 C 0.86392 0.78568 0.00655 0.0
H2609 H 0.90257 0.80383 0.03173 0.0
C2610 C 0.86354 0.77248 0.99276 0.0
C2611 C 0.87807 0.79709 0.0209 0.0
C2612 C 0.87881 0.8112 0.03671 0.0
C2613 C 0.87709 0.77044 0.9928 0.0
C2614 C 0.8913 0.78194 0.00694 0.0
C2615 C 0.89163 0.79509 0.02087 0.0
C2616 C 0.90598 0.78051 0.00747 0.0
C2617 C 0.87605 0.75588 0.9782 0.0
C2618 C 0.91147 0.7775 0.03331 0.0
C2619 C 0.92535 0.77611 0.03379 0.0
C2620 C 0.93403 0.77789 0.00843 0.0
C2621 C 0.92853 0.78112 0.98265 0.0
C2622 C 0.91464 0.78241 0.9822 0.0
H2623 H 0.86338 0.74658 0.97332 0.0
H2624 H 0.88285 0.75969 0.95774 0.0
H2625 H 0.88155 0.75037 0.99175 0.0
H2626 H 0.90494 0.77608 0.05306 0.0
H2627 H 0.92928 0.77368 0.054 0.0
H2628 H 0.15352 0.21944 0.5835 0.0
H2629 H 0.12688 0.2169 0.58658 0.0
H2630 H 0.12657 0.22265 0.49501 0.0
H2631 H 0.15343 0.2256 0.49175 0.0
H2632 H 0.1162 0.24061 0.52377 0.0
H2633 H 0.08456 0.17759 0.56409 0.0
H2634 H 0.10136 0.19129 0.58579 0.0
H2635 H 0.10477 0.18707 0.54974 0.0
C2636 C 0.1478 0.22014 0.56397 0.0
C2637 C 0.15558 0.22262 0.53733 0.0
C2638 C 0.13252 0.21859 0.56578 0.0
C2639 C 0.12461 0.21927 0.54098 0.0
C2640 C 0.13243 0.222 0.51441 0.0
H2641 H 0.02464 0.18699 0.5109 0.0
H2642 H 0.05155 0.19026 0.51649 0.0
C2643 C 0.14778 0.22367 0.51258 0.0
C2644 C 0.10825 0.2173 0.54268 0.0
H2645 H 0.0694 0.19099 0.56264 0.0
C2646 C 0.10596 0.22978 0.53231 0.0
C2647 C 0.0949 0.20309 0.55361 0.0
C2648 C 0.09643 0.18892 0.5637 0.0
C2649 C 0.09065 0.2284 0.53237 0.0
C2650 C 0.07735 0.2143 0.54375 0.0
C2651 C 0.07966 0.20187 0.55428 0.0
C2652 C 0.06073 0.2117 0.5428 0.0
C2653 C 0.08877 0.2418 0.5193 0.0
C2654 C 0.0568 0.22235 0.55656 0.0
C2655 C 0.04146 0.22057 0.55312 0.0
C2656 C 0.02988 0.20808 0.53601 0.0
C2657 C 0.03352 0.19689 0.52375 0.0
C2658 C 0.04883 0.19871 0.52704 0.0
H2659 H 0.09926 0.24988 0.50566 0.0
H2660 H 0.07764 0.23684 0.5061 0.0
H2661 H 0.08782 0.2492 0.53665 0.0
H2662 H 0.0657 0.23223 0.56939 0.0
H2663 H 0.03885 0.22927 0.56293 0.0
H2664 H 0.80563 0.83294 0.56884 0.0
H2665 H 0.80198 0.85643 0.57493 0.0
H2666 H 0.76698 0.83899 0.5065 0.0
H2667 H 0.77011 0.81528 0.50128 0.0
H2668 H 0.80829 0.87953 0.53568 0.0
H2669 H 0.74381 0.85029 0.56594 0.0
H2670 H 0.75499 0.8397 0.56667 0.0
H2671 H 0.74676 0.84205 0.53353 0.0
C2672 C 0.79685 0.83396 0.5557 0.0
C2673 C 0.78801 0.82229 0.53482 0.0
C2674 C 0.79486 0.8474 0.55902 0.0
C2675 C 0.784 0.84933 0.54149 0.0
C2676 C 0.7751 0.83756 0.52078 0.0
H2677 H 0.76654 0.92626 0.49483 0.0
H2678 H 0.76864 0.90182 0.49803 0.0
C2679 C 0.77701 0.82412 0.5176 0.0
C2680 C 0.78281 0.86417 0.54327 0.0
H2681 H 0.75591 0.87764 0.54904 0.0
C2682 C 0.79687 0.87913 0.539 0.0
C2683 C 0.7679 0.86363 0.54759 0.0
C2684 C 0.75255 0.84806 0.55399 0.0
C2685 C 0.79632 0.89351 0.53799 0.0
C2686 C 0.78135 0.89286 0.54138 0.0
C2687 C 0.76734 0.87799 0.5462 0.0
C2688 C 0.78001 0.90756 0.5397 0.0
C2689 C 0.81164 0.90926 0.53255 0.0
C2690 C 0.78564 0.91874 0.56219 0.0
C2691 C 0.78439 0.93265 0.56054 0.0
C2692 C 0.77755 0.93565 0.53627 0.0
C2693 C 0.77192 0.92436 0.51377 0.0
C2694 C 0.77307 0.91038 0.51556 0.0
H2695 H 0.82191 0.90747 0.52682 0.0
H2696 H 0.80977 0.91599 0.515 0.0
H2697 H 0.81492 0.91685 0.55211 0.0
H2698 H 0.79095 0.91667 0.58105 0.0
H2699 H 0.78886 0.94108 0.57826 0.0
H2700 H 0.18774 0.9608 0.55891 0.0
H2701 H 0.16416 0.93377 0.56558 0.0
H2702 H 0.13575 0.94706 0.51242 0.0
H2703 H 0.15912 0.97416 0.50652 0.0
H2704 H 0.1192 0.92963 0.56007 0.0
H2705 H 0.1479 0.89965 0.50239 0.0
H2706 H 0.15904 0.91156 0.53272 0.0
H2707 H 0.15622 0.92123 0.50204 0.0
C2708 C 0.17637 0.95795 0.54901 0.0
C2709 C 0.17521 0.96937 0.53187 0.0
C2710 C 0.16299 0.94252 0.55259 0.0
C2711 C 0.14833 0.93833 0.53896 0.0
C2712 C 0.147 0.95001 0.52291 0.0
H2713 H 0.06921 0.84531 0.49166 0.0
H2714 H 0.09304 0.87223 0.49403 0.0
C2715 C 0.16033 0.96542 0.51944 0.0
C2716 C 0.13442 0.92168 0.54058 0.0
H2717 H 0.12196 0.88272 0.52165 0.0
C2718 C 0.1198 0.91934 0.55181 0.0
C2719 C 0.13521 0.90836 0.52937 0.0
C2720 C 0.15038 0.91027 0.5157 0.0
C2721 C 0.10589 0.90402 0.55201 0.0
C2722 C 0.10674 0.89065 0.54119 0.0
C2723 C 0.12139 0.89298 0.53011 0.0
C2724 C 0.09242 0.87424 0.54011 0.0
C2725 C 0.09029 0.90239 0.56293 0.0
C2726 C 0.08432 0.86636 0.56529 0.0
C2727 C 0.07063 0.85102 0.56402 0.0
C2728 C 0.0649 0.84318 0.53753 0.0
C2729 C 0.07327 0.85099 0.5124 0.0
C2730 C 0.0869 0.86637 0.5137 0.0
H2731 H 0.09073 0.91422 0.56359 0.0
H2732 H 0.07995 0.89399 0.54932 0.0
H2733 H 0.08805 0.89747 0.58502 0.0
H2734 H 0.08859 0.87207 0.58595 0.0
H2735 H 0.06456 0.8453 0.58382 0.0
H2736 H 0.7632 0.83802 0.99458 0.0
H2737 H 0.76466 0.86435 0.99516 0.0
H2738 H 0.78792 0.87467 0.07768 0.0
H2739 H 0.78651 0.84847 0.07746 0.0
H2740 H 0.75185 0.87679 0.04204 0.0
H2741 H 0.81806 0.91362 0.02319 0.0
H2742 H 0.80649 0.8925 0.01382 0.0
H2743 H 0.81146 0.89837 0.05056 0.0
C2744 C 0.76865 0.8459 0.01283 0.0
C2745 C 0.77477 0.84114 0.03595 0.0
C2746 C 0.76944 0.86089 0.01314 0.0
C2747 C 0.7765 0.87142 0.03637 0.0
C2748 C 0.78256 0.86673 0.05946 0.0
H2749 H 0.80024 0.97079 0.06564 0.0
H2750 H 0.79632 0.94355 0.07147 0.0
C2751 C 0.78169 0.85173 0.05929 0.0
C2752 C 0.7775 0.88733 0.03661 0.0
H2753 H 0.80417 0.92772 0.03217 0.0
C2754 C 0.76325 0.88795 0.03985 0.0
C2755 C 0.79244 0.90179 0.03403 0.0
C2756 C 0.80802 0.90166 0.03001 0.0
C2757 C 0.76357 0.90278 0.04076 0.0
C2758 C 0.7785 0.91728 0.03764 0.0
C2759 C 0.79275 0.9166 0.03465 0.0
C2760 C 0.77959 0.93326 0.03606 0.0
C2761 C 0.74796 0.90276 0.04552 0.0
C2762 C 0.7714 0.93646 0.01441 0.0
C2763 C 0.77349 0.95189 0.01133 0.0
C2764 C 0.78395 0.96445 0.0296 0.0
C2765 C 0.79193 0.96122 0.05158 0.0
C2766 C 0.78979 0.94573 0.05477 0.0
H2767 H 0.73886 0.89154 0.05645 0.0
H2768 H 0.7499 0.9133 0.05852 0.0
H2769 H 0.74289 0.90336 0.0245 0.0
H2770 H 0.76379 0.92715 0.99932 0.0
H2771 H 0.7672 0.95412 0.99422 0.0
H2772 H 0.04255 0.81441 0.99651 0.0
H2773 H 0.06927 0.83855 0.0004 0.0
H2774 H 0.05232 0.85571 0.07016 0.0
H2775 H 0.02539 0.83162 0.06597 0.0
H2776 H 0.07323 0.87151 0.99554 0.0
H2777 H 0.09712 0.8605 0.09664 0.0
H2778 H 0.08168 0.84424 0.07561 0.0
H2779 H 0.07671 0.85679 0.09677 0.0
C2780 C 0.0446 0.82326 0.01287 0.0
C2781 C 0.032 0.82125 0.03093 0.0
C2782 C 0.05983 0.83699 0.01509 0.0
C2783 C 0.06272 0.84882 0.03562 0.0
C2784 C 0.05032 0.84658 0.05441 0.0
H2785 H 0.14741 0.94125 0.07271 0.0
H2786 H 0.12093 0.91684 0.07304 0.0
C2787 C 0.03501 0.83285 0.05208 0.0
C2788 C 0.07836 0.86402 0.03574 0.0
H2789 H 0.11328 0.88545 0.07351 0.0
C2790 C 0.08202 0.8746 0.01255 0.0
C2791 C 0.08965 0.86796 0.0581 0.0
C2792 C 0.08624 0.85679 0.0832 0.0
C2793 C 0.09673 0.88917 0.01115 0.0
C2794 C 0.10823 0.893 0.03321 0.0
C2795 C 0.10447 0.88245 0.05657 0.0
C2796 C 0.12422 0.90792 0.0325 0.0
C2797 C 0.09965 0.90045 0.98639 0.0
C2798 C 0.13491 0.91096 0.00963 0.0
C2799 C 0.15002 0.92501 0.0092 0.0
C2800 C 0.15482 0.93613 0.03189 0.0
C2801 C 0.14411 0.93295 0.05487 0.0
C2802 C 0.12897 0.91898 0.05515 0.0
H2803 H 0.08814 0.89807 0.97631 0.0
H2804 H 0.10638 0.91326 0.99336 0.0
H2805 H 0.10689 0.89863 0.96981 0.0
H2806 H 0.13163 0.90239 0.99225 0.0
H2807 H 0.15803 0.92701 0.99132 0.0
H2808 H 0.18739 0.22916 0.06003 0.0
H2809 H 0.16346 0.23205 0.06649 0.0
H2810 H 0.13545 0.18937 0.01531 0.0
H2811 H 0.15915 0.18623 0.00962 0.0
H2812 H 0.14682 0.23686 0.0235 0.0
H2813 H 0.10595 0.18111 0.08316 0.0
H2814 H 0.12732 0.18848 0.07974 0.0
H2815 H 0.11373 0.17709 0.05118 0.0
C2816 C 0.17601 0.22025 0.05074 0.0
C2817 C 0.17504 0.20755 0.0342 0.0
C2818 C 0.16241 0.22194 0.05428 0.0
C2819 C 0.14765 0.21085 0.04156 0.0
C2820 C 0.14662 0.19789 0.02574 0.0
H2821 H 0.06842 0.22483 0.99076 0.0
H2822 H 0.09282 0.22264 0.99294 0.0
C2823 C 0.16017 0.19619 0.02228 0.0
C2824 C 0.1336 0.21337 0.04304 0.0
H2825 H 0.09364 0.19469 0.06036 0.0
C2826 C 0.13522 0.22773 0.03183 0.0
C2827 C 0.11854 0.2015 0.05416 0.0
C2828 C 0.1163 0.18626 0.06801 0.0
C2829 C 0.12205 0.23034 0.03072 0.0
C2830 C 0.10679 0.21812 0.04053 0.0
C2831 C 0.1053 0.20396 0.05248 0.0
C2832 C 0.09224 0.2198 0.03901 0.0
C2833 C 0.12464 0.24623 0.01933 0.0
C2834 C 0.08362 0.21856 0.06406 0.0
C2835 C 0.0696 0.21959 0.06285 0.0
C2836 C 0.06388 0.2219 0.03651 0.0
C2837 C 0.07255 0.22317 0.01139 0.0
C2838 C 0.08656 0.22202 0.01263 0.0
H2839 H 0.13755 0.25579 0.02046 0.0
H2840 H 0.1209 0.24473 0.99653 0.0
H2841 H 0.11735 0.25034 0.03141 0.0
H2842 H 0.08776 0.21679 0.08462 0.0
H2843 H 0.06326 0.21859 0.08264 0.0
H2844 H 0.97389 0.81563 0.538 0.0
H2845 H 0.94678 0.81214 0.53451 0.0
H2846 H 0.93152 0.76944 0.48309 0.0
H2847 H 0.95856 0.77262 0.48747 0.0
H2848 H 0.92831 0.81098 0.48928 0.0
H2849 H 0.89888 0.75277 0.54823 0.0
H2850 H 0.92051 0.76566 0.54675 0.0
H2851 H 0.90983 0.75284 0.51694 0.0
C2852 C 0.96471 0.80551 0.52598 0.0
C2853 C 0.96812 0.79423 0.5134 0.0
C2854 C 0.94929 0.80356 0.5239 0.0
C2855 C 0.93705 0.79033 0.50909 0.0
C2856 C 0.94069 0.7795 0.49522 0.0
H2857 H 0.84458 0.78124 0.46474 0.0
H2858 H 0.87149 0.78437 0.46388 0.0
C2859 C 0.95613 0.78141 0.49746 0.0
C2860 C 0.92047 0.78782 0.50875 0.0
H2861 H 0.88166 0.7615 0.52889 0.0
C2862 C 0.91809 0.80015 0.49789 0.0
C2863 C 0.90723 0.77381 0.5205 0.0
C2864 C 0.9092 0.76057 0.53403 0.0
C2865 C 0.90281 0.79883 0.49829 0.0
C2866 C 0.88949 0.78461 0.50926 0.0
C2867 C 0.89188 0.77232 0.52028 0.0
C2868 C 0.87299 0.78234 0.50979 0.0
C2869 C 0.90119 0.81285 0.48764 0.0
C2870 C 0.86467 0.77959 0.53581 0.0
C2871 C 0.84915 0.77759 0.53639 0.0
C2872 C 0.84171 0.77831 0.5109 0.0
C2873 C 0.85002 0.7808 0.48482 0.0
C2874 C 0.86545 0.78268 0.48427 0.0
H2875 H 0.91297 0.82428 0.48767 0.0
H2876 H 0.89663 0.81043 0.46529 0.0
H2877 H 0.89253 0.81455 0.50096 0.0
H2878 H 0.87025 0.77918 0.55574 0.0
H2879 H 0.84309 0.77566 0.55681 0.0
H2880 H 0.18263 0.15874 0.53015 0.0
H2881 H 0.18623 0.13533 0.52358 0.0
H2882 H 0.22815 0.16403 0.47107 0.0
H2883 H 0.22488 0.18765 0.47853 0.0
H2884 H 0.18748 0.11873 0.47661 0.0
H2885 H 0.24606 0.14821 0.5346 0.0
H2886 H 0.23266 0.15638 0.53442 0.0
H2887 H 0.24527 0.15913 0.50394 0.0
C2888 C 0.19259 0.16 0.51718 0.0
C2889 C 0.20369 0.17499 0.50534 0.0
C2890 C 0.19459 0.14664 0.5133 0.0
C2891 C 0.20767 0.14805 0.49738 0.0
C2892 C 0.2182 0.1628 0.484 0.0
H2893 H 0.21794 0.06436 0.45585 0.0
H2894 H 0.21465 0.08804 0.45254 0.0
C2895 C 0.21624 0.17621 0.48803 0.0
C2896 C 0.21059 0.13425 0.49603 0.0
H2897 H 0.23733 0.12225 0.51586 0.0
C2898 C 0.19841 0.11949 0.48503 0.0
C2899 C 0.22476 0.13525 0.50749 0.0
C2900 C 0.23789 0.15053 0.52103 0.0
C2901 C 0.19996 0.10566 0.48534 0.0
C2902 C 0.21423 0.10672 0.49643 0.0
C2903 C 0.22646 0.12151 0.50721 0.0
C2904 C 0.21646 0.0925 0.49819 0.0
C2905 C 0.18607 0.08991 0.47473 0.0
C2906 C 0.21906 0.08744 0.52488 0.0
C2907 C 0.22115 0.07402 0.52684 0.0
C2908 C 0.22067 0.0654 0.50211 0.0
C2909 C 0.21824 0.07063 0.47535 0.0
C2910 C 0.21626 0.08411 0.47341 0.0
H2911 H 0.17463 0.09024 0.47388 0.0
H2912 H 0.18878 0.08754 0.45275 0.0
H2913 H 0.18423 0.07971 0.48865 0.0
H2914 H 0.21933 0.09379 0.54426 0.0
H2915 H 0.223 0.07034 0.54778 0.0
H2916 H 0.92961 0.15646 0.5518 0.0
H2917 H 0.90608 0.12932 0.54892 0.0
H2918 H 0.91135 0.12983 0.45714 0.0
H2919 H 0.93509 0.15674 0.45983 0.0
H2920 H 0.87746 0.11838 0.52143 0.0
H2921 H 0.90941 0.08792 0.4784 0.0
H2922 H 0.91997 0.10814 0.49271 0.0
H2923 H 0.91193 0.10458 0.45693 0.0
C2924 C 0.9258 0.15079 0.531 0.0
C2925 C 0.93432 0.15873 0.50608 0.0
C2926 C 0.91234 0.13528 0.5294 0.0
C2927 C 0.90714 0.12744 0.50287 0.0
C2928 C 0.9154 0.13548 0.4779 0.0
H2929 H 0.8119 0.04113 0.48136 0.0
H2930 H 0.83553 0.06821 0.47556 0.0
C2931 C 0.92892 0.15091 0.47949 0.0
C2932 C 0.89295 0.11094 0.50135 0.0
H2933 H 0.88084 0.07237 0.48015 0.0
C2934 C 0.87818 0.10831 0.5124 0.0
C2935 C 0.89398 0.0978 0.4898 0.0
C2936 C 0.9097 0.09967 0.47904 0.0
C2937 C 0.86441 0.09288 0.51233 0.0
C2938 C 0.86535 0.07982 0.50019 0.0
C2939 C 0.8801 0.08246 0.48907 0.0
C2940 C 0.85147 0.06311 0.50076 0.0
C2941 C 0.84915 0.09064 0.52613 0.0
C2942 C 0.85285 0.05106 0.51547 0.0
C2943 C 0.8395 0.03561 0.51833 0.0
C2944 C 0.82453 0.03198 0.5067 0.0
C2945 C 0.82333 0.04374 0.49066 0.0
C2946 C 0.83674 0.0592 0.48761 0.0
H2947 H 0.85156 0.1009 0.54042 0.0
H2948 H 0.84066 0.08988 0.5092 0.0
H2949 H 0.84315 0.07932 0.53884 0.0
H2950 H 0.86413 0.05376 0.52554 0.0
H2951 H 0.84074 0.02661 0.53038 0.0
H2952 H 0.89194 0.48895 0.38195 0.0
H2953 H 0.88956 0.46235 0.37856 0.0
H2954 H 0.88487 0.46313 0.28678 0.0
H2955 H 0.88682 0.48952 0.29 0.0
H2956 H 0.8625 0.43487 0.30894 0.0
H2957 H 0.92251 0.45059 0.35207 0.0
H2958 H 0.91138 0.45604 0.37608 0.0
H2959 H 0.91748 0.46571 0.34165 0.0
C2960 C 0.89052 0.48352 0.36102 0.0
C2961 C 0.88959 0.49138 0.33625 0.0
C2962 C 0.88927 0.46836 0.3591 0.0
C2963 C 0.88733 0.46088 0.33236 0.0
C2964 C 0.88644 0.46871 0.30761 0.0
H2965 H 0.89475 0.37363 0.31622 0.0
H2966 H 0.89865 0.40076 0.30848 0.0
C2967 C 0.88756 0.4838 0.30952 0.0
C2968 C 0.88546 0.44457 0.33032 0.0
H2969 H 0.90295 0.42242 0.34954 0.0
C2970 C 0.87143 0.43218 0.31756 0.0
C2971 C 0.89724 0.44113 0.34106 0.0
C2972 C 0.91307 0.45411 0.3532 0.0
C2973 C 0.86858 0.41632 0.3162 0.0
C2974 C 0.87989 0.41269 0.32854 0.0
C2975 C 0.8942 0.42518 0.34034 0.0
C2976 C 0.87681 0.39593 0.33071 0.0
C2977 C 0.85349 0.40363 0.30148 0.0
C2978 C 0.8632 0.38421 0.34551 0.0
C2979 C 0.8609 0.36875 0.34963 0.0
C2980 C 0.87233 0.36484 0.33949 0.0
C2981 C 0.88576 0.37641 0.32412 0.0
C2982 C 0.88802 0.39187 0.31984 0.0
H2983 H 0.84911 0.4091 0.28536 0.0
H2984 H 0.85557 0.39449 0.29065 0.0
H2985 H 0.84381 0.39739 0.31764 0.0
H2986 H 0.85457 0.38714 0.35461 0.0
H2987 H 0.8504 0.35995 0.36138 0.0
H2988 H 0.51074 0.40458 0.38366 0.0
H2989 H 0.53744 0.42873 0.38093 0.0
H2990 H 0.53763 0.42329 0.28926 0.0
H2991 H 0.51112 0.39897 0.29179 0.0
H2992 H 0.56584 0.42931 0.31305 0.0
H2993 H 0.54896 0.47336 0.35329 0.0
H2994 H 0.54335 0.45677 0.37739 0.0
H2995 H 0.53414 0.45315 0.34255 0.0
C2996 C 0.51641 0.40856 0.36289 0.0
C2997 C 0.50875 0.39985 0.33794 0.0
C2998 C 0.53164 0.42243 0.36135 0.0
C2999 C 0.5394 0.42797 0.33483 0.0
C3000 C 0.53182 0.41927 0.30993 0.0
H3001 H 0.62573 0.52305 0.31597 0.0
H3002 H 0.59881 0.49934 0.30905 0.0
C3003 C 0.51665 0.40537 0.31145 0.0
C3004 C 0.55567 0.4425 0.33311 0.0
H3005 H 0.57717 0.4824 0.35098 0.0
C3006 C 0.56829 0.44096 0.32113 0.0
C3007 C 0.55881 0.45775 0.34317 0.0
C3008 C 0.54557 0.46044 0.35455 0.0
C3009 C 0.58408 0.45413 0.31977 0.0
C3010 C 0.58737 0.46916 0.33127 0.0
C3011 C 0.57465 0.47084 0.34239 0.0
C3012 C 0.604 0.48311 0.33313 0.0
C3013 C 0.59703 0.45183 0.3059 0.0
C3014 C 0.61585 0.48181 0.3487 0.0
C3015 C 0.63117 0.49525 0.35241 0.0
C3016 C 0.63483 0.51028 0.34103 0.0
C3017 C 0.62315 0.51154 0.32486 0.0
C3018 C 0.6078 0.49806 0.32104 0.0
H3019 H 0.59181 0.44166 0.2904 0.0
H3020 H 0.606 0.46293 0.29456 0.0
H3021 H 0.60342 0.44895 0.32267 0.0
H3022 H 0.61311 0.47051 0.35871 0.0
H3023 H 0.64007 0.494 0.36478 0.0
H3024 H 0.60694 0.12463 0.30421 0.0
H3025 H 0.58309 0.12765 0.30478 0.0
H3026 H 0.56864 0.10257 0.38564 0.0
H3027 H 0.59272 0.09983 0.38564 0.0
H3028 H 0.55141 0.10477 0.30503 0.0
H3029 H 0.5661 0.14268 0.4025 0.0
H3030 H 0.5807 0.13896 0.38483 0.0
H3031 H 0.56595 0.12409 0.4086 0.0
C3032 C 0.59876 0.11982 0.32224 0.0
C3033 C 0.6018 0.11205 0.34498 0.0
C3034 C 0.58511 0.12155 0.32249 0.0
C3035 C 0.57421 0.11555 0.34543 0.0
C3036 C 0.57709 0.10763 0.36803 0.0
H3037 H 0.482 0.10641 0.38357 0.0
H3038 H 0.50598 0.10356 0.37964 0.0
C3039 C 0.59082 0.106 0.36793 0.0
C3040 C 0.55965 0.11727 0.3453 0.0
H3041 H 0.53948 0.13193 0.38397 0.0
C3042 C 0.54886 0.11081 0.32218 0.0
C3043 C 0.55639 0.12525 0.36762 0.0
C3044 C 0.56797 0.13328 0.39214 0.0
C3045 C 0.5347 0.11177 0.32116 0.0
C3046 C 0.53131 0.11941 0.34378 0.0
C3047 C 0.54214 0.12601 0.36674 0.0
C3048 C 0.51639 0.12039 0.34448 0.0
C3049 C 0.52325 0.10432 0.29631 0.0
C3050 C 0.51433 0.13073 0.32584 0.0
C3051 C 0.50069 0.13247 0.32821 0.0
C3052 C 0.48899 0.12386 0.3492 0.0
C3053 C 0.49092 0.11323 0.36732 0.0
C3054 C 0.50456 0.11157 0.36507 0.0
H3055 H 0.52649 0.09688 0.28259 0.0
H3056 H 0.5107 0.09666 0.3042 0.0
H3057 H 0.5235 0.11404 0.28294 0.0
H3058 H 0.52347 0.13778 0.31005 0.0
H3059 H 0.49956 0.14093 0.31433 0.0
H3060 H 0.68849 0.51389 0.85325 0.0
H3061 H 0.71543 0.51689 0.857 0.0
H3062 H 0.73563 0.56767 0.87488 0.0
H3063 H 0.70853 0.56446 0.87214 0.0
H3064 H 0.74062 0.53469 0.82348 0.0
H3065 H 0.7571 0.55528 0.93569 0.0
H3066 H 0.73678 0.54696 0.92235 0.0
H3067 H 0.75157 0.56771 0.91541 0.0
C3068 C 0.6987 0.52558 0.85859 0.0
C3069 C 0.69662 0.53894 0.86264 0.0
C3070 C 0.71404 0.52732 0.86059 0.0
C3071 C 0.72754 0.54247 0.8665 0.0
C3072 C 0.72537 0.5558 0.87099 0.0
H3073 H 0.82626 0.56666 0.82502 0.0
H3074 H 0.79954 0.56425 0.82488 0.0
C3075 C 0.70996 0.554 0.86932 0.0
C3076 C 0.74392 0.54445 0.86613 0.0
H3077 H 0.77824 0.55754 0.90564 0.0
C3078 C 0.74883 0.53961 0.84151 0.0
C3079 C 0.75456 0.55077 0.88973 0.0
C3080 C 0.74969 0.55533 0.91739 0.0
C3081 C 0.76407 0.54091 0.83981 0.0
C3082 C 0.77489 0.54768 0.86306 0.0
C3083 C 0.76998 0.5525 0.88771 0.0
C3084 C 0.79111 0.54926 0.86284 0.0
C3085 C 0.76822 0.53459 0.81344 0.0
C3086 C 0.79538 0.54199 0.88459 0.0
C3087 C 0.81068 0.54357 0.88499 0.0
C3088 C 0.82203 0.5524 0.86354 0.0
C3089 C 0.81773 0.55964 0.84168 0.0
C3090 C 0.80244 0.55821 0.8415 0.0
H3091 H 0.75722 0.52585 0.80154 0.0
H3092 H 0.77566 0.54482 0.79885 0.0
H3093 H 0.77522 0.52859 0.81907 0.0
H3094 H 0.78684 0.53504 0.90128 0.0
H3095 H 0.81358 0.5378 0.90211 0.0
H3096 H 0.44076 0.26144 0.82507 0.0
H3097 H 0.4434 0.23737 0.82908 0.0
H3098 H 0.44892 0.24388 0.9206 0.0
H3099 H 0.44669 0.26813 0.91678 0.0
H3100 H 0.47096 0.23735 0.89801 0.0
H3101 H 0.41004 0.19321 0.85798 0.0
H3102 H 0.42116 0.20946 0.83333 0.0
H3103 H 0.41556 0.21358 0.86776 0.0
C3104 C 0.44247 0.25772 0.84607 0.0
C3105 C 0.44346 0.26669 0.87061 0.0
C3106 C 0.44387 0.2439 0.84834 0.0
C3107 C 0.44606 0.23867 0.87521 0.0
C3108 C 0.44716 0.24766 0.89968 0.0
H3109 H 0.43596 0.14321 0.89656 0.0
H3110 H 0.43328 0.16722 0.90353 0.0
C3111 C 0.44587 0.26152 0.89743 0.0
C3112 C 0.44766 0.22409 0.87775 0.0
H3113 H 0.42904 0.184 0.8613 0.0
C3114 C 0.46173 0.22565 0.8902 0.0
C3115 C 0.43549 0.20877 0.8681 0.0
C3116 C 0.41964 0.20608 0.85632 0.0
C3117 C 0.4642 0.2124 0.89237 0.0
C3118 C 0.45242 0.1973 0.88121 0.0
C3119 C 0.43812 0.19562 0.86965 0.0
C3120 C 0.45498 0.18325 0.87997 0.0
C3121 C 0.47934 0.21473 0.90671 0.0
C3122 C 0.46818 0.18437 0.86482 0.0
C3123 C 0.46978 0.17076 0.86112 0.0
C3124 C 0.45805 0.15575 0.87201 0.0
C3125 C 0.44514 0.1547 0.888 0.0
C3126 C 0.44358 0.16835 0.89185 0.0
H3127 H 0.4842 0.22496 0.92209 0.0
H3128 H 0.47713 0.20367 0.91832 0.0
H3129 H 0.48873 0.21755 0.8902 0.0
H3130 H 0.47695 0.19564 0.85499 0.0
H3131 H 0.47992 0.17185 0.84896 0.0
H3132 H 0.73066 0.17803 0.91755 0.0
H3133 H 0.755 0.20451 0.91935 0.0
H3134 H 0.75787 0.20526 0.82713 0.0
H3135 H 0.73369 0.1785 0.82511 0.0
H3136 H 0.78702 0.21531 0.85196 0.0
H3137 H 0.75789 0.24712 0.90101 0.0
H3138 H 0.75535 0.23017 0.92159 0.0
H3139 H 0.74644 0.227 0.88655 0.0
C3140 C 0.73642 0.18382 0.8976 0.0
C3141 C 0.73016 0.17619 0.87115 0.0
C3142 C 0.7503 0.19901 0.89869 0.0
C3143 C 0.75806 0.207 0.87337 0.0
C3144 C 0.752 0.19934 0.84694 0.0
H3145 H 0.82617 0.30746 0.8467 0.0
H3146 H 0.80238 0.28061 0.85197 0.0
C3147 C 0.73818 0.18405 0.84582 0.0
C3148 C 0.77261 0.22327 0.87444 0.0
H3149 H 0.78645 0.26188 0.89745 0.0
C3150 C 0.78691 0.2255 0.86189 0.0
C3151 C 0.77238 0.23658 0.88719 0.0
C3152 C 0.75716 0.23518 0.8996 0.0
C3153 C 0.80099 0.24069 0.86165 0.0
C3154 C 0.80087 0.25391 0.875 0.0
C3155 C 0.78657 0.25167 0.8876 0.0
C3156 C 0.81508 0.27042 0.87419 0.0
C3157 C 0.8157 0.24253 0.84626 0.0
C3158 C 0.82998 0.27374 0.8858 0.0
C3159 C 0.84362 0.28904 0.88249 0.0
C3160 C 0.84245 0.3012 0.86775 0.0
C3161 C 0.82736 0.29814 0.85772 0.0
C3162 C 0.81379 0.28286 0.86083 0.0
H3163 H 0.81261 0.23232 0.83138 0.0
H3164 H 0.82174 0.25396 0.83386 0.0
H3165 H 0.82442 0.2428 0.86222 0.0
H3166 H 0.83114 0.26442 0.89684 0.0
H3167 H 0.85515 0.29121 0.89054 0.0
H3168 H 0.44208 0.17847 0.32383 0.0
H3169 H 0.44561 0.20564 0.32453 0.0
H3170 H 0.45015 0.20694 0.41651 0.0
H3171 H 0.44699 0.18002 0.41604 0.0
H3172 H 0.4277 0.21709 0.35099 0.0
H3173 H 0.49035 0.24837 0.39288 0.0
H3174 H 0.48065 0.22794 0.37957 0.0
H3175 H 0.47636 0.23202 0.41511 0.0
C3176 C 0.44386 0.18455 0.34421 0.0
C3177 C 0.44439 0.17712 0.36985 0.0
C3178 C 0.44587 0.20007 0.34456 0.0
C3179 C 0.44844 0.20841 0.37053 0.0
C3180 C 0.4486 0.20088 0.39618 0.0
H3181 H 0.43897 0.29425 0.39072 0.0
H3182 H 0.43588 0.2673 0.39624 0.0
C3183 C 0.4467 0.18544 0.39585 0.0
C3184 C 0.45076 0.22492 0.37083 0.0
H3185 H 0.47716 0.26379 0.39051 0.0
C3186 C 0.43852 0.22732 0.35959 0.0
C3187 C 0.46496 0.23825 0.38182 0.0
C3188 C 0.4789 0.23659 0.39278 0.0
C3189 C 0.44005 0.24269 0.35915 0.0
C3190 C 0.45406 0.25594 0.37084 0.0
C3191 C 0.46634 0.25356 0.38195 0.0
C3192 C 0.45664 0.27255 0.3701 0.0
C3193 C 0.42685 0.24467 0.34543 0.0
C3194 C 0.46979 0.28462 0.35488 0.0
C3195 C 0.47168 0.29999 0.3521 0.0
C3196 C 0.46041 0.30351 0.36439 0.0
C3197 C 0.44774 0.29173 0.38091 0.0
C3198 C 0.44588 0.27634 0.38381 0.0
H3199 H 0.41897 0.23426 0.33147 0.0
H3200 H 0.4192 0.24552 0.36242 0.0
H3201 H 0.43201 0.25587 0.33241 0.0
H3202 H 0.47833 0.282 0.3444 0.0
H3203 H 0.48171 0.30902 0.3397 0.0
H3204 H 0.71006 0.14745 0.33253 0.0
H3205 H 0.73679 0.1715 0.33753 0.0
H3206 H 0.71933 0.18786 0.40772 0.0
H3207 H 0.6924 0.16388 0.4024 0.0
H3208 H 0.74053 0.2048 0.33448 0.0
H3209 H 0.76418 0.19195 0.4341 0.0
H3210 H 0.7491 0.17603 0.41202 0.0
H3211 H 0.74366 0.18795 0.43393 0.0
C3212 C 0.71201 0.15611 0.34922 0.0
C3213 C 0.69926 0.15389 0.3671 0.0
C3214 C 0.72723 0.16977 0.35208 0.0
C3215 C 0.72998 0.18134 0.37306 0.0
C3216 C 0.71743 0.17892 0.39163 0.0
H3217 H 0.81585 0.27325 0.4112 0.0
H3218 H 0.78929 0.24887 0.41245 0.0
C3219 C 0.70212 0.16525 0.38866 0.0
C3220 C 0.74564 0.19652 0.37383 0.0
H3221 H 0.7807 0.21701 0.41159 0.0
C3222 C 0.74934 0.20752 0.35132 0.0
C3223 C 0.75693 0.2 0.396 0.0
C3224 C 0.75342 0.18839 0.42042 0.0
C3225 C 0.76414 0.222 0.35034 0.0
C3226 C 0.77569 0.22531 0.37208 0.0
C3227 C 0.77186 0.2144 0.39487 0.0
C3228 C 0.79188 0.23998 0.37135 0.0
C3229 C 0.76712 0.23372 0.32629 0.0
C3230 C 0.80224 0.24294 0.348 0.0
C3231 C 0.81737 0.25692 0.34707 0.0
C3232 C 0.82253 0.26811 0.36971 0.0
C3233 C 0.81225 0.26492 0.39337 0.0
C3234 C 0.79707 0.25098 0.39416 0.0
H3235 H 0.75562 0.23173 0.31676 0.0
H3236 H 0.77413 0.2464 0.33382 0.0
H3237 H 0.7741 0.23195 0.30912 0.0
H3238 H 0.79864 0.2344 0.33049 0.0
H3239 H 0.82504 0.25891 0.32867 0.0
H3240 H 0.73022 0.55337 0.41592 0.0
H3241 H 0.75427 0.55073 0.41905 0.0
H3242 H 0.75929 0.55459 0.32715 0.0
H3243 H 0.73545 0.55764 0.32382 0.0
H3244 H 0.76 0.52805 0.39735 0.0
H3245 H 0.80412 0.5878 0.35292 0.0
H3246 H 0.78402 0.58284 0.36355 0.0
H3247 H 0.78742 0.57644 0.32928 0.0
C3248 C 0.73646 0.55373 0.39634 0.0
C3249 C 0.73094 0.55581 0.36961 0.0
C3250 C 0.75022 0.55222 0.39819 0.0
C3251 C 0.75874 0.55274 0.3734 0.0
C3252 C 0.75314 0.55458 0.34664 0.0
H3253 H 0.8237 0.51641 0.34718 0.0
H3254 H 0.80035 0.52012 0.35335 0.0
C3255 C 0.73945 0.55621 0.34476 0.0
C3256 C 0.77318 0.55086 0.3755 0.0
H3257 H 0.81288 0.56845 0.35659 0.0
C3258 C 0.7716 0.53695 0.38865 0.0
C3259 C 0.78839 0.56262 0.36467 0.0
C3260 C 0.79117 0.57834 0.35209 0.0
C3261 C 0.78469 0.53421 0.39042 0.0
C3262 C 0.79964 0.54553 0.3781 0.0
C3263 C 0.80136 0.5597 0.36581 0.0
C3264 C 0.81348 0.54265 0.37657 0.0
C3265 C 0.78236 0.51928 0.40562 0.0
C3266 C 0.82866 0.55413 0.38733 0.0
C3267 C 0.84206 0.55214 0.38338 0.0
C3268 C 0.84046 0.5387 0.36844 0.0
C3269 C 0.82519 0.52694 0.35857 0.0
C3270 C 0.81184 0.52897 0.36235 0.0
H3271 H 0.77244 0.51493 0.42159 0.0
H3272 H 0.77906 0.5095 0.38971 0.0
H3273 H 0.79357 0.52153 0.41671 0.0
H3274 H 0.83021 0.5648 0.39828 0.0
H3275 H 0.85375 0.56136 0.39111 0.0
H3276 H 0.5124 0.12026 0.80138 0.0
H3277 H 0.53918 0.12294 0.7998 0.0
H3278 H 0.53039 0.09884 0.88133 0.0
H3279 H 0.50358 0.09616 0.88333 0.0
H3280 H 0.5643 0.13845 0.84732 0.0
H3281 H 0.54531 0.07452 0.82208 0.0
H3282 H 0.53293 0.08333 0.81367 0.0
H3283 H 0.53446 0.07809 0.84995 0.0
C3284 C 0.5161 0.11546 0.81896 0.0
C3285 C 0.50583 0.10797 0.84249 0.0
C3286 C 0.53141 0.11702 0.81799 0.0
C3287 C 0.53663 0.11096 0.84032 0.0
C3288 C 0.52645 0.10344 0.86378 0.0
H3289 H 0.62121 0.10543 0.88103 0.0
H3290 H 0.59419 0.10195 0.87626 0.0
C3291 C 0.51118 0.10199 0.86492 0.0
C3292 C 0.55294 0.11293 0.83949 0.0
H3293 H 0.57295 0.09199 0.8321 0.0
C3294 C 0.56626 0.12836 0.84382 0.0
C3295 C 0.55531 0.09968 0.835 0.0
C3296 C 0.5413 0.08294 0.82972 0.0
C3297 C 0.582 0.13083 0.84462 0.0
C3298 C 0.58444 0.11756 0.84014 0.0
C3299 C 0.57106 0.10215 0.83541 0.0
C3300 C 0.60067 0.11925 0.84177 0.0
C3301 C 0.59579 0.14751 0.85134 0.0
C3302 C 0.61321 0.12987 0.82356 0.0
C3303 C 0.62871 0.13202 0.82655 0.0
C3304 C 0.6318 0.12338 0.84748 0.0
C3305 C 0.61913 0.11233 0.86492 0.0
C3306 C 0.6037 0.11029 0.86211 0.0
H3307 H 0.59149 0.15521 0.86141 0.0
H3308 H 0.60464 0.14692 0.86593 0.0
H3309 H 0.6021 0.15345 0.83118 0.0
H3310 H 0.61105 0.13664 0.80731 0.0
H3311 H 0.63834 0.14068 0.813 0.0
H3312 H 0.87737 0.39243 0.79939 0.0
H3313 H 0.87557 0.41702 0.79841 0.0
H3314 H 0.89911 0.43093 0.88061 0.0
H3315 H 0.90097 0.40632 0.88192 0.0
H3316 H 0.86023 0.42705 0.84216 0.0
H3317 H 0.92552 0.47073 0.82617 0.0
H3318 H 0.91659 0.4495 0.81807 0.0
H3319 H 0.92057 0.45628 0.85455 0.0
C3320 C 0.88221 0.40071 0.81727 0.0
C3321 C 0.88937 0.39742 0.84071 0.0
C3322 C 0.88115 0.41475 0.81665 0.0
C3323 C 0.88738 0.42583 0.83926 0.0
C3324 C 0.89444 0.42259 0.86277 0.0
H3325 H 0.89365 0.51603 0.88275 0.0
H3326 H 0.89662 0.49218 0.87797 0.0
C3327 C 0.89542 0.40849 0.86353 0.0
C3328 C 0.88611 0.44059 0.83855 0.0
H3329 H 0.90853 0.48167 0.83504 0.0
C3330 C 0.87075 0.43901 0.84042 0.0
C3331 C 0.89989 0.45611 0.83631 0.0
C3332 C 0.9166 0.45836 0.83344 0.0
C3333 C 0.86883 0.45262 0.84097 0.0
C3334 C 0.88263 0.46818 0.83881 0.0
C3335 C 0.89798 0.46972 0.83657 0.0
C3336 C 0.88147 0.48304 0.84035 0.0
C3337 C 0.8521 0.45021 0.8449 0.0
C3338 C 0.87229 0.48601 0.82037 0.0
C3339 C 0.87043 0.49955 0.82329 0.0
C3340 C 0.8779 0.51037 0.84602 0.0
C3341 C 0.88762 0.50773 0.86525 0.0
C3342 C 0.88939 0.49418 0.86245 0.0
H3343 H 0.84353 0.43799 0.85334 0.0
H3344 H 0.85227 0.45934 0.85978 0.0
H3345 H 0.84747 0.45154 0.8239 0.0
H3346 H 0.86635 0.47774 0.8028 0.0
H3347 H 0.8628 0.5013 0.80829 0.0
H3348 H 0.59489 0.48727 0.88356 0.0
H3349 H 0.57065 0.46051 0.8815 0.0
H3350 H 0.57637 0.45903 0.7902 0.0
H3351 H 0.60062 0.48568 0.79189 0.0
H3352 H 0.54297 0.45074 0.81552 0.0
H3353 H 0.57181 0.41702 0.85905 0.0
H3354 H 0.5761 0.43554 0.87657 0.0
H3355 H 0.58322 0.43615 0.84082 0.0
C3356 C 0.591 0.48127 0.86303 0.0
C3357 C 0.59973 0.4886 0.8379 0.0
C3358 C 0.57719 0.466 0.86193 0.0
C3359 C 0.57186 0.45787 0.83572 0.0
C3360 C 0.58037 0.46517 0.8106 0.0
H3361 H 0.5002 0.3564 0.81183 0.0
H3362 H 0.52371 0.38358 0.80597 0.0
C3363 C 0.59424 0.48038 0.81167 0.0
C3364 C 0.55738 0.44168 0.83451 0.0
H3365 H 0.5437 0.40222 0.85111 0.0
C3366 C 0.54308 0.44009 0.8232 0.0
C3367 C 0.55774 0.4279 0.84423 0.0
C3368 C 0.57303 0.42908 0.85574 0.0
C3369 C 0.52893 0.42498 0.82194 0.0
C3370 C 0.52915 0.41123 0.83244 0.0
C3371 C 0.54358 0.41281 0.84312 0.0
C3372 C 0.5144 0.39517 0.8337 0.0
C3373 C 0.51389 0.42386 0.80929 0.0
C3374 C 0.50143 0.39277 0.85108 0.0
C3375 C 0.48806 0.37736 0.85428 0.0
C3376 C 0.48748 0.36412 0.84023 0.0
C3377 C 0.50032 0.36652 0.82245 0.0
C3378 C 0.51373 0.38197 0.81926 0.0
H3379 H 0.51677 0.43434 0.79527 0.0
H3380 H 0.507 0.41259 0.79667 0.0
H3381 H 0.50602 0.42372 0.82688 0.0
H3382 H 0.50186 0.40272 0.86288 0.0
H3383 H 0.47831 0.37569 0.86828 0.0
H3384 H 0.56625 0.828 0.71757 0.0
H3385 H 0.56444 0.80156 0.71789 0.0
H3386 H 0.5408 0.79065 0.63564 0.0
H3387 H 0.54285 0.8171 0.63478 0.0
H3388 H 0.53786 0.7714 0.71598 0.0
H3389 H 0.57671 0.78077 0.62143 0.0
H3390 H 0.57578 0.79714 0.63879 0.0
H3391 H 0.56023 0.78416 0.61411 0.0
C3392 C 0.56071 0.82 0.6995 0.0
C3393 C 0.55481 0.82474 0.67605 0.0
C3394 C 0.55969 0.8049 0.69971 0.0
C3395 C 0.55279 0.79428 0.67651 0.0
C3396 C 0.54658 0.79883 0.65339 0.0
H3397 H 0.5274 0.69419 0.64923 0.0
H3398 H 0.5307 0.72131 0.64458 0.0
C3399 C 0.54767 0.81393 0.65306 0.0
C3400 C 0.55163 0.77825 0.67686 0.0
H3401 H 0.56207 0.754 0.63983 0.0
C3402 C 0.54322 0.76764 0.69941 0.0
C3403 C 0.55863 0.77335 0.65516 0.0
C3404 C 0.56848 0.7845 0.63115 0.0
C3405 C 0.54146 0.75219 0.70069 0.0
C3406 C 0.54838 0.7473 0.67896 0.0
C3407 C 0.55673 0.75783 0.65634 0.0
C3408 C 0.54741 0.73141 0.68 0.0
C3409 C 0.53209 0.74112 0.72511 0.0
C3410 C 0.55606 0.72837 0.70089 0.0
C3411 C 0.55432 0.71305 0.70336 0.0
C3412 C 0.54387 0.70053 0.68502 0.0
C3413 C 0.53563 0.70372 0.66343 0.0
C3414 C 0.53744 0.71912 0.66086 0.0
H3415 H 0.52499 0.7455 0.73707 0.0
H3416 H 0.52375 0.72875 0.71709 0.0
H3417 H 0.54063 0.74036 0.74026 0.0
H3418 H 0.56395 0.73779 0.71562 0.0
H3419 H 0.56091 0.71089 0.71999 0.0
H3420 H 0.28817 0.85002 0.71759 0.0
H3421 H 0.2613 0.82607 0.71459 0.0
H3422 H 0.27714 0.80845 0.64378 0.0
H3423 H 0.3043 0.83212 0.64764 0.0
H3424 H 0.23901 0.81404 0.6721 0.0
H3425 H 0.25965 0.77068 0.69868 0.0
H3426 H 0.27248 0.79221 0.70262 0.0
H3427 H 0.26944 0.78296 0.66791 0.0
C3428 C 0.28589 0.841 0.70144 0.0
C3429 C 0.29827 0.8428 0.68297 0.0
C3430 C 0.27055 0.82738 0.69965 0.0
C3431 C 0.26731 0.81533 0.67933 0.0
C3432 C 0.27949 0.81743 0.66006 0.0
H3433 H 0.18083 0.72541 0.6383 0.0
H3434 H 0.20743 0.74972 0.63857 0.0
C3435 C 0.29491 0.83102 0.662 0.0
C3436 C 0.25122 0.80053 0.67874 0.0
H3437 H 0.23216 0.7595 0.68551 0.0
C3438 C 0.23751 0.80212 0.67509 0.0
C3439 C 0.2493 0.78499 0.68285 0.0
C3440 C 0.26347 0.78256 0.68852 0.0
C3441 C 0.22194 0.78857 0.67511 0.0
C3442 C 0.22007 0.77309 0.67899 0.0
C3443 C 0.23372 0.77145 0.6825 0.0
C3444 C 0.20398 0.75839 0.67921 0.0
C3445 C 0.20757 0.79083 0.67065 0.0
C3446 C 0.19337 0.75518 0.70222 0.0
C3447 C 0.17817 0.74122 0.70228 0.0
C3448 C 0.17333 0.73031 0.67923 0.0
C3449 C 0.18412 0.73358 0.65634 0.0
C3450 C 0.19933 0.74745 0.65643 0.0
H3451 H 0.21119 0.80324 0.66337 0.0
H3452 H 0.1992 0.78205 0.65463 0.0
H3453 H 0.20088 0.78854 0.69113 0.0
H3454 H 0.19687 0.76346 0.72013 0.0
H3455 H 0.17017 0.73907 0.72024 0.0
H3456 H 0.26023 0.43308 0.71652 0.0
H3457 H 0.2357 0.43503 0.71562 0.0
H3458 H 0.24934 0.45844 0.63321 0.0
H3459 H 0.27366 0.45621 0.63356 0.0
H3460 H 0.2325 0.4617 0.71303 0.0
H3461 H 0.2035 0.42295 0.61817 0.0
H3462 H 0.22058 0.42371 0.63607 0.0
H3463 H 0.22348 0.43932 0.61123 0.0
C3464 C 0.25799 0.43858 0.69814 0.0
C3465 C 0.26886 0.44439 0.67502 0.0
C3466 C 0.24396 0.43968 0.69766 0.0
C3467 C 0.24054 0.4466 0.6741 0.0
C3468 C 0.25151 0.45266 0.65125 0.0
H3469 H 0.16706 0.47347 0.64548 0.0
H3470 H 0.19081 0.47002 0.64154 0.0
C3471 C 0.26548 0.45148 0.6516 0.0
C3472 C 0.22577 0.44794 0.6739 0.0
H3473 H 0.19139 0.43773 0.63605 0.0
C3474 C 0.22349 0.45639 0.69627 0.0
C3475 C 0.21402 0.441 0.65197 0.0
C3476 C 0.2154 0.4311 0.62814 0.0
C3477 C 0.20985 0.45823 0.69716 0.0
C3478 C 0.1982 0.4514 0.67519 0.0
C3479 C 0.20046 0.44301 0.65274 0.0
C3480 C 0.18337 0.45251 0.67579 0.0
C3481 C 0.20799 0.46757 0.72147 0.0
C3482 C 0.17126 0.4435 0.69586 0.0
C3483 C 0.15771 0.44532 0.6979 0.0
C3484 C 0.15609 0.4562 0.67997 0.0
C3485 C 0.16799 0.46487 0.65929 0.0
C3486 C 0.18154 0.46298 0.65713 0.0
H3487 H 0.21928 0.47435 0.73408 0.0
H3488 H 0.2044 0.4762 0.71316 0.0
H3489 H 0.1983 0.45906 0.73606 0.0
H3490 H 0.17245 0.43527 0.71026 0.0
H3491 H 0.14862 0.43843 0.71387 0.0
H3492 H 0.49145 0.89838 0.15752 0.0
H3493 H 0.46523 0.89704 0.15868 0.0
H3494 H 0.4552 0.87356 0.24105 0.0
H3495 H 0.48145 0.87516 0.24044 0.0
H3496 H 0.43487 0.87082 0.16188 0.0
H3497 H 0.44656 0.91022 0.25655 0.0
H3498 H 0.46242 0.90885 0.23816 0.0
H3499 H 0.44962 0.89348 0.26329 0.0
C3500 C 0.48368 0.89296 0.17592 0.0
C3501 C 0.48861 0.887 0.19899 0.0
C3502 C 0.46871 0.89222 0.17655 0.0
C3503 C 0.45842 0.88551 0.20023 0.0
C3504 C 0.46314 0.87919 0.22294 0.0
H3505 H 0.35935 0.86227 0.23199 0.0
H3506 H 0.38629 0.86506 0.23559 0.0
C3507 C 0.47812 0.88002 0.22243 0.0
C3508 C 0.44257 0.88472 0.20082 0.0
H3509 H 0.41952 0.89612 0.23932 0.0
C3510 C 0.43155 0.87642 0.17873 0.0
C3511 C 0.43827 0.89203 0.22288 0.0
C3512 C 0.44988 0.90178 0.24642 0.0
C3513 C 0.41627 0.87507 0.17827 0.0
C3514 C 0.41198 0.88231 0.20036 0.0
C3515 C 0.4229 0.89054 0.22253 0.0
C3516 C 0.39629 0.88177 0.20014 0.0
C3517 C 0.40474 0.86582 0.1543 0.0
C3518 C 0.39328 0.89062 0.17961 0.0
C3519 C 0.37807 0.88917 0.17774 0.0
C3520 C 0.36564 0.87883 0.19634 0.0
C3521 C 0.36883 0.87044 0.21763 0.0
C3522 C 0.38412 0.87195 0.21959 0.0
H3523 H 0.40869 0.85848 0.14196 0.0
H3524 H 0.39244 0.85772 0.16287 0.0
H3525 H 0.404 0.87445 0.13937 0.0
H3526 H 0.40262 0.89838 0.16464 0.0
H3527 H 0.37589 0.89584 0.16129 0.0
H3528 H 0.12384 0.60623 0.24051 0.0
H3529 H 0.1258 0.58178 0.23894 0.0
H3530 H 0.10014 0.56854 0.15859 0.0
H3531 H 0.09849 0.59324 0.15955 0.0
H3532 H 0.10203 0.55057 0.23873 0.0
H3533 H 0.13882 0.56392 0.14001 0.0
H3534 H 0.13601 0.579 0.15809 0.0
H3535 H 0.12057 0.56456 0.13474 0.0
C3536 C 0.1187 0.59819 0.22237 0.0
C3537 C 0.11106 0.60173 0.20007 0.0
C3538 C 0.11982 0.5842 0.22155 0.0
C3539 C 0.11332 0.57345 0.19848 0.0
C3540 C 0.10558 0.57686 0.17627 0.0
H3541 H 0.10247 0.48019 0.15985 0.0
H3542 H 0.09957 0.50417 0.16355 0.0
C3543 C 0.10457 0.59095 0.17693 0.0
C3544 C 0.11428 0.55846 0.19817 0.0
H3545 H 0.12763 0.53735 0.15885 0.0
C3546 C 0.1077 0.54772 0.22134 0.0
C3547 C 0.12175 0.5548 0.1755 0.0
C3548 C 0.12983 0.56624 0.15082 0.0
C3549 C 0.10816 0.53329 0.22221 0.0
C3550 C 0.11541 0.52957 0.19938 0.0
C3551 C 0.12201 0.54028 0.17625 0.0
C3552 C 0.11625 0.51458 0.19891 0.0
C3553 C 0.10066 0.52197 0.24722 0.0
C3554 C 0.12651 0.5125 0.21775 0.0
C3555 C 0.12827 0.49888 0.21552 0.0
C3556 C 0.11978 0.4872 0.19444 0.0
C3557 C 0.10919 0.4891 0.17618 0.0
C3558 C 0.10751 0.50273 0.17829 0.0
H3559 H 0.09319 0.52529 0.26069 0.0
H3560 H 0.09302 0.50937 0.23958 0.0
H3561 H 0.11036 0.52235 0.26081 0.0
H3562 H 0.13351 0.52165 0.23355 0.0
H3563 H 0.13669 0.49778 0.22953 0.0
H3564 H 0.40288 0.51056 0.15872 0.0
H3565 H 0.42729 0.53708 0.16179 0.0
H3566 H 0.42189 0.53689 0.25346 0.0
H3567 H 0.39748 0.51039 0.25075 0.0
H3568 H 0.42942 0.56609 0.1872 0.0
H3569 H 0.46936 0.54683 0.23938 0.0
H3570 H 0.45116 0.53291 0.22049 0.0
H3571 H 0.44991 0.53983 0.25559 0.0
C3572 C 0.4069 0.51611 0.17957 0.0
C3573 C 0.39823 0.50833 0.2045 0.0
C3574 C 0.42083 0.53126 0.18125 0.0
C3575 C 0.42642 0.53881 0.20787 0.0
C3576 C 0.41784 0.53113 0.23278 0.0
H3577 H 0.49827 0.64045 0.23411 0.0
H3578 H 0.4744 0.61341 0.23899 0.0
C3579 C 0.40386 0.51602 0.23113 0.0
C3580 C 0.44101 0.55494 0.20943 0.0
H3581 H 0.48011 0.57485 0.2325 0.0
C3582 C 0.4405 0.56805 0.19718 0.0
C3583 C 0.45541 0.55734 0.22235 0.0
C3584 C 0.45665 0.5435 0.23506 0.0
C3585 C 0.45407 0.58359 0.19749 0.0
C3586 C 0.46845 0.58603 0.21057 0.0
C3587 C 0.46898 0.57291 0.22279 0.0
C3588 C 0.48332 0.60196 0.21008 0.0
C3589 C 0.4531 0.59723 0.1832 0.0
C3590 C 0.49633 0.60427 0.19292 0.0
C3591 C 0.50988 0.6196 0.1902 0.0
C3592 C 0.51066 0.63278 0.20481 0.0
C3593 C 0.49793 0.63038 0.22287 0.0
C3594 C 0.48431 0.61503 0.22549 0.0
H3595 H 0.44204 0.59282 0.16995 0.0
H3596 H 0.45297 0.60544 0.19984 0.0
H3597 H 0.46382 0.60436 0.16938 0.0
H3598 H 0.49576 0.59431 0.1809 0.0
H3599 H 0.51961 0.62125 0.17615 0.0
H3600 H 0.10115 0.62199 0.66409 0.0
H3601 H 0.09867 0.5953 0.66777 0.0
H3602 H 0.13181 0.61184 0.73897 0.0
H3603 H 0.13457 0.63875 0.73499 0.0
H3604 H 0.12786 0.59156 0.6641 0.0
H3605 H 0.09158 0.56671 0.76359 0.0
H3606 H 0.09095 0.58225 0.74256 0.0
H3607 H 0.10817 0.58716 0.76452 0.0
C3608 C 0.10775 0.61985 0.68072 0.0
C3609 C 0.11805 0.63234 0.69926 0.0
C3610 C 0.10631 0.60464 0.68282 0.0
C3611 C 0.115 0.60165 0.70369 0.0
C3612 C 0.12486 0.61392 0.72295 0.0
H3613 H 0.12345 0.51743 0.7413 0.0
H3614 H 0.12501 0.54369 0.74165 0.0
C3615 C 0.12639 0.62921 0.72074 0.0
C3616 C 0.11467 0.58605 0.70374 0.0
H3617 H 0.10097 0.55091 0.74094 0.0
C3618 C 0.12198 0.58263 0.68086 0.0
C3619 C 0.10709 0.57458 0.72576 0.0
C3620 C 0.09889 0.57771 0.7505 0.0
C3621 C 0.12203 0.56802 0.67948 0.0
C3622 C 0.11415 0.55635 0.70122 0.0
C3623 C 0.10694 0.55985 0.72425 0.0
C3624 C 0.11333 0.54047 0.70056 0.0
C3625 C 0.13082 0.56538 0.65511 0.0
C3626 C 0.10615 0.52988 0.67739 0.0
C3627 C 0.10537 0.5149 0.67696 0.0
C3628 C 0.11154 0.51013 0.69994 0.0
C3629 C 0.11858 0.52071 0.72323 0.0
C3630 C 0.11946 0.53572 0.72352 0.0
H3631 H 0.13998 0.57699 0.64537 0.0
H3632 H 0.13694 0.55875 0.66238 0.0
H3633 H 0.12202 0.55815 0.63817 0.0
H3634 H 0.10099 0.53314 0.65975 0.0
H3635 H 0.09974 0.50698 0.65883 0.0
H3636 H 0.37526 0.47711 0.72174 0.0
H3637 H 0.40212 0.50095 0.72844 0.0
H3638 H 0.38612 0.53034 0.6852 0.0
H3639 H 0.35923 0.50671 0.6795 0.0
H3640 H 0.42291 0.51928 0.68671 0.0
H3641 H 0.40814 0.55754 0.75458 0.0
H3642 H 0.39416 0.53635 0.74895 0.0
H3643 H 0.39612 0.551 0.72267 0.0
C3644 C 0.37747 0.48876 0.71425 0.0
C3645 C 0.36532 0.49016 0.70001 0.0
C3646 C 0.39278 0.50232 0.71792 0.0
C3647 C 0.39608 0.51746 0.70756 0.0
C3648 C 0.38378 0.51887 0.69388 0.0
H3649 H 0.48917 0.59861 0.66027 0.0
H3650 H 0.46259 0.57413 0.66101 0.0
C3651 C 0.36849 0.50536 0.69038 0.0
C3652 C 0.4126 0.5316 0.70936 0.0
H3653 H 0.43376 0.57092 0.73081 0.0
C3654 C 0.42533 0.53053 0.69661 0.0
C3655 C 0.41577 0.5462 0.72255 0.0
C3656 C 0.40285 0.54781 0.73822 0.0
C3657 C 0.44108 0.54381 0.69605 0.0
C3658 C 0.44407 0.55867 0.70793 0.0
C3659 C 0.43142 0.55959 0.72133 0.0
C3660 C 0.46027 0.57335 0.70721 0.0
C3661 C 0.45436 0.54172 0.68306 0.0
C3662 C 0.46759 0.58129 0.73282 0.0
C3663 C 0.48261 0.59539 0.73242 0.0
C3664 C 0.49068 0.60185 0.70637 0.0
C3665 C 0.48334 0.59388 0.68069 0.0
C3666 C 0.4682 0.57982 0.6811 0.0
H3667 H 0.45114 0.52884 0.68278 0.0
H3668 H 0.45635 0.54607 0.66058 0.0
H3669 H 0.46585 0.54876 0.69499 0.0
H3670 H 0.46168 0.57655 0.75319 0.0
H3671 H 0.48792 0.60117 0.75262 0.0
H3672 H 0.51748 0.89596 0.65966 0.0
H3673 H 0.49337 0.89859 0.66421 0.0
H3674 H 0.47757 0.86601 0.73622 0.0
H3675 H 0.50157 0.86307 0.73134 0.0
H3676 H 0.45992 0.86925 0.6628 0.0
H3677 H 0.47413 0.90734 0.76063 0.0
H3678 H 0.48971 0.90754 0.73844 0.0
H3679 H 0.47787 0.89065 0.7614 0.0
C3680 C 0.50891 0.88947 0.67659 0.0
C3681 C 0.51131 0.87932 0.69516 0.0
C3682 C 0.49521 0.89101 0.6792 0.0
C3683 C 0.4838 0.88255 0.70061 0.0
C3684 C 0.48638 0.87276 0.71977 0.0
H3685 H 0.39282 0.87708 0.74285 0.0
H3686 H 0.41721 0.87496 0.74247 0.0
C3687 C 0.50007 0.87114 0.71705 0.0
C3688 C 0.46869 0.88316 0.70153 0.0
H3689 H 0.44867 0.89824 0.73935 0.0
C3690 C 0.45741 0.87558 0.67951 0.0
C3691 C 0.4655 0.89132 0.72349 0.0
C3692 C 0.47743 0.89978 0.74735 0.0
C3693 C 0.4429 0.87585 0.67892 0.0
C3694 C 0.43983 0.88435 0.70053 0.0
C3695 C 0.45108 0.8918 0.72274 0.0
C3696 C 0.42502 0.88564 0.70049 0.0
C3697 C 0.43086 0.86675 0.65549 0.0
C3698 C 0.4214 0.8925 0.67711 0.0
C3699 C 0.40737 0.8936 0.67712 0.0
C3700 C 0.39683 0.88808 0.70073 0.0
C3701 C 0.40065 0.88144 0.7243 0.0
C3702 C 0.41461 0.88023 0.72416 0.0
H3703 H 0.4328 0.85717 0.64611 0.0
H3704 H 0.41829 0.86109 0.66359 0.0
H3705 H 0.43231 0.87526 0.63806 0.0
H3706 H 0.42948 0.89713 0.65892 0.0
H3707 H 0.40487 0.89892 0.65874 0.0
H3708 H 0.29176 0.43831 0.15277 0.0
H3709 H 0.26493 0.43554 0.14761 0.0
H3710 H 0.28067 0.47881 0.19764 0.0
H3711 H 0.30755 0.48186 0.2019 0.0
H3712 H 0.24404 0.43124 0.19079 0.0
H3713 H 0.25889 0.48691 0.1308 0.0
H3714 H 0.27284 0.47948 0.13403 0.0
H3715 H 0.27079 0.49094 0.16264 0.0
C3716 C 0.28951 0.44737 0.16209 0.0
C3717 C 0.30159 0.46025 0.17779 0.0
C3718 C 0.27421 0.44575 0.1593 0.0
C3719 C 0.27085 0.45705 0.17202 0.0
C3720 C 0.28307 0.47012 0.18718 0.0
H3721 H 0.17657 0.44204 0.22095 0.0
H3722 H 0.20357 0.44511 0.22019 0.0
C3723 C 0.29835 0.47178 0.18982 0.0
C3724 C 0.25432 0.45469 0.17105 0.0
H3725 H 0.23302 0.47332 0.15346 0.0
C3726 C 0.24159 0.44038 0.1824 0.0
C3727 C 0.25113 0.46655 0.15988 0.0
C3728 C 0.26411 0.48176 0.14589 0.0
C3729 C 0.22579 0.43774 0.18341 0.0
C3730 C 0.22274 0.44992 0.17338 0.0
C3731 C 0.23542 0.46409 0.1615 0.0
C3732 C 0.2064 0.44805 0.17419 0.0
C3733 C 0.21249 0.42185 0.19477 0.0
C3734 C 0.19924 0.44913 0.14873 0.0
C3735 C 0.18396 0.44761 0.14914 0.0
C3736 C 0.17548 0.44494 0.17506 0.0
C3737 C 0.18271 0.44395 0.20062 0.0
C3738 C 0.1981 0.44561 0.20019 0.0
H3739 H 0.21593 0.41234 0.19405 0.0
H3740 H 0.21004 0.42339 0.21743 0.0
H3741 H 0.20118 0.41762 0.18237 0.0
H3742 H 0.20545 0.45107 0.12845 0.0
H3743 H 0.17877 0.44841 0.12903 0.0
H3744 H 0.5658 0.73976 0.21942 0.0
H3745 H 0.56367 0.76422 0.21703 0.0
H3746 H 0.5403 0.74938 0.13484 0.0
H3747 H 0.54239 0.72497 0.13683 0.0
H3748 H 0.57601 0.7884 0.1673 0.0
H3749 H 0.51002 0.75879 0.18908 0.0
H3750 H 0.52201 0.74992 0.19989 0.0
H3751 H 0.51667 0.74952 0.16297 0.0
C3752 C 0.56016 0.74166 0.20087 0.0
C3753 C 0.55425 0.73039 0.17834 0.0
C3754 C 0.559 0.75564 0.19953 0.0
C3755 C 0.55176 0.75847 0.17584 0.0
C3756 C 0.54582 0.74729 0.15337 0.0
H3757 H 0.52648 0.83288 0.14371 0.0
H3758 H 0.53034 0.80947 0.1388 0.0
C3759 C 0.54707 0.73338 0.15456 0.0
C3760 C 0.55051 0.77322 0.17445 0.0
H3761 H 0.52361 0.78664 0.17908 0.0
C3762 C 0.56458 0.78808 0.16986 0.0
C3763 C 0.53554 0.77262 0.17749 0.0
C3764 C 0.52016 0.7569 0.1828 0.0
C3765 C 0.56407 0.80246 0.16818 0.0
C3766 C 0.54913 0.80194 0.17194 0.0
C3767 C 0.53503 0.78701 0.17615 0.0
C3768 C 0.54792 0.81677 0.17298 0.0
C3769 C 0.57948 0.81801 0.16199 0.0
C3770 C 0.55656 0.82864 0.19369 0.0
C3771 C 0.55452 0.84204 0.19621 0.0
C3772 C 0.54365 0.8437 0.17835 0.0
C3773 C 0.53512 0.83195 0.1574 0.0
C3774 C 0.53724 0.81857 0.15474 0.0
H3775 H 0.58837 0.81575 0.15065 0.0
H3776 H 0.57716 0.82629 0.1488 0.0
H3777 H 0.58502 0.82413 0.18251 0.0
H3778 H 0.56455 0.82732 0.20846 0.0
H3779 H 0.5612 0.85096 0.21256 0.0
H3780 H 0.25952 0.82788 0.22059 0.0
H3781 H 0.23502 0.80126 0.2216 0.0
H3782 H 0.24709 0.79027 0.13886 0.0
H3783 H 0.2715 0.81674 0.1375 0.0
H3784 H 0.20918 0.78811 0.17657 0.0
H3785 H 0.23939 0.75192 0.19337 0.0
H3786 H 0.24899 0.77315 0.20199 0.0
H3787 H 0.24746 0.76682 0.16538 0.0
C3788 C 0.257 0.81978 0.20265 0.0
C3789 C 0.26749 0.82444 0.17898 0.0
C3790 C 0.243 0.80461 0.20326 0.0
C3791 C 0.23938 0.79382 0.18041 0.0
C3792 C 0.2498 0.7984 0.15681 0.0
H3793 H 0.16436 0.69469 0.14926 0.0
H3794 H 0.18773 0.72201 0.14507 0.0
C3795 C 0.26372 0.81356 0.15608 0.0
C3796 C 0.22458 0.77782 0.1809 0.0
H3797 H 0.21133 0.7375 0.18461 0.0
C3798 C 0.20959 0.77701 0.17844 0.0
C3799 C 0.22526 0.76345 0.18306 0.0
C3800 C 0.24111 0.76377 0.18631 0.0
C3801 C 0.19517 0.76211 0.1777 0.0
C3802 C 0.19582 0.74769 0.18021 0.0
C3803 C 0.21086 0.74855 0.1826 0.0
C3804 C 0.18106 0.73159 0.18127 0.0
C3805 C 0.17945 0.76194 0.17363 0.0
C3806 C 0.16956 0.72794 0.2029 0.0
C3807 C 0.15615 0.71247 0.20503 0.0
C3808 C 0.15413 0.70031 0.18582 0.0
C3809 C 0.16555 0.70395 0.16403 0.0
C3810 C 0.17892 0.71949 0.16177 0.0
H3811 H 0.18135 0.77323 0.16332 0.0
H3812 H 0.17089 0.75152 0.16035 0.0
H3813 H 0.17381 0.76098 0.19485 0.0
H3814 H 0.17114 0.73696 0.21859 0.0
H3815 H 0.14749 0.70992 0.22202 0.0
H3816 H 0.23387 0.2253 0.65631 0.0
H3817 H 0.23204 0.22079 0.70798 0.0
H3818 H 0.18009 0.19608 0.70291 0.0
H3819 H 0.18178 0.2006 0.65112 0.0
H3820 H 0.1935 0.22093 0.7441 0.0
H3821 H 0.21775 0.17929 0.75477 0.0
H3822 H 0.23031 0.19693 0.73376 0.0
H3823 H 0.21045 0.18257 0.72119 0.0
C3824 C 0.22204 0.21871 0.66608 0.0
C3825 C 0.20797 0.21334 0.64963 0.0
C3826 C 0.22102 0.21607 0.69559 0.0
C3827 C 0.20593 0.20796 0.70915 0.0
C3828 C 0.19184 0.20229 0.69275 0.0
H3829 H 0.19881 0.18525 0.89181 0.0
H3830 H 0.19339 0.18307 0.84031 0.0
C3831 C 0.19284 0.20486 0.66319 0.0
C3832 C 0.20498 0.20653 0.74068 0.0
H3833 H 0.21687 0.19263 0.79754 0.0
C3834 C 0.19841 0.21457 0.75583 0.0
C3835 C 0.21123 0.19808 0.75583 0.0
C3836 C 0.2177 0.18859 0.74058 0.0
C3837 C 0.19857 0.21496 0.78585 0.0
C3838 C 0.20566 0.20728 0.80097 0.0
C3839 C 0.21157 0.19863 0.78584 0.0
C3840 C 0.20783 0.20872 0.83238 0.0
C3841 C 0.1913 0.22372 0.80111 0.0
C3842 C 0.21769 0.22388 0.8449 0.0
C3843 C 0.22083 0.22518 0.87426 0.0
C3844 C 0.21423 0.21131 0.89158 0.0
C3845 C 0.20408 0.19616 0.87905 0.0
C3846 C 0.20097 0.19488 0.84965 0.0
H3847 H 0.18242 0.22482 0.78738 0.0
H3848 H 0.18523 0.21743 0.82124 0.0
H3849 H 0.20103 0.23608 0.80666 0.0
H3850 H 0.22335 0.23468 0.83181 0.0
H3851 H 0.22874 0.23702 0.88322 0.0
H3852 H 0.81381 0.01549 0.88903 0.0
H3853 H 0.81468 0.01311 0.83699 0.0
H3854 H 0.76271 0.9889 0.83363 0.0
H3855 H 0.76167 0.99107 0.88566 0.0
H3856 H 0.7768 0.97481 0.7988 0.0
H3857 H 0.80487 0.04102 0.78198 0.0
H3858 H 0.81537 0.03487 0.80622 0.0
H3859 H 0.79566 0.03139 0.81547 0.0
C3860 C 0.80255 0.00954 0.87726 0.0
C3861 C 0.78766 0.0036 0.89142 0.0
C3862 C 0.80309 0.00827 0.84754 0.0
C3863 C 0.78878 0.00109 0.83154 0.0
C3864 C 0.77389 0.99457 0.84568 0.0
H3865 H 0.76913 0.00762 0.65455 0.0
H3866 H 0.77249 0.00979 0.70653 0.0
C3867 C 0.77332 0.99582 0.87539 0.0
C3868 C 0.78927 0.00077 0.79995 0.0
H3869 H 0.80074 0.02503 0.74089 0.0
C3870 C 0.7821 0.98576 0.78608 0.0
C3871 C 0.79605 0.01512 0.78358 0.0
C3872 C 0.80332 0.03153 0.79747 0.0
C3873 C 0.78146 0.98472 0.75611 0.0
C3874 C 0.78838 0.99907 0.73973 0.0
C3875 C 0.7956 0.01408 0.75361 0.0
C3876 C 0.78742 0.99872 0.70816 0.0
C3877 C 0.77296 0.96827 0.74223 0.0
C3878 C 0.79508 0.99218 0.6919 0.0
C3879 C 0.79319 0.9909 0.66219 0.0
C3880 C 0.78363 0.99621 0.6483 0.0
C3881 C 0.77651 0.00335 0.6646 0.0
C3882 C 0.77842 0.00462 0.69428 0.0
H3883 H 0.76542 0.9586 0.75776 0.0
H3884 H 0.76516 0.96797 0.72436 0.0
H3885 H 0.78209 0.96555 0.73327 0.0
H3886 H 0.80232 0.98783 0.70225 0.0
H3887 H 0.79893 0.98544 0.65022 0.0
H3888 H 0.994 0.7628 0.6581 0.0
H3889 H 0.99098 0.76428 0.70979 0.0
H3890 H 0.01358 0.81611 0.70441 0.0
H3891 H 0.01678 0.81479 0.65269 0.0
H3892 H 0.02677 0.80511 0.74657 0.0
H3893 H 0.96004 0.77443 0.75448 0.0
H3894 H 0.96728 0.76326 0.73457 0.0
H3895 H 0.97072 0.78235 0.72118 0.0
C3896 C 0.99817 0.77451 0.66783 0.0
C3897 C 0.00564 0.78868 0.65131 0.0
C3898 C 0.99637 0.77532 0.69734 0.0
C3899 C 0.0019 0.79029 0.71078 0.0
C3900 C 0.00917 0.80444 0.69434 0.0
H3901 H 0.98196 0.79821 0.8903 0.0
H3902 H 0.98558 0.80238 0.83856 0.0
C3903 C 0.01096 0.80365 0.66481 0.0
C3904 C 0.00091 0.79119 0.74222 0.0
H3905 H 0.97442 0.77777 0.79809 0.0
C3906 C 0.01533 0.79928 0.75788 0.0
C3907 C 0.98596 0.78374 0.75678 0.0
C3908 C 0.9701 0.77558 0.74091 0.0
C3909 C 0.01521 0.79962 0.78789 0.0
C3910 C 0.00029 0.79148 0.80248 0.0
C3911 C 0.98585 0.78389 0.78679 0.0
C3912 C -0.00066 0.79017 0.83402 0.0
C3913 C 0.03103 0.80865 0.80371 0.0
C3914 C 0.00597 0.78201 0.84852 0.0
C3915 C 0.00394 0.77961 0.87807 0.0
C3916 C 0.99514 0.78524 0.89353 0.0
C3917 C 0.9888 0.79372 0.879 0.0
C3918 C 0.99084 0.79611 0.84946 0.0
H3919 H 0.04071 0.81782 0.78984 0.0
H3920 H 0.02982 0.81475 0.82301 0.0
H3921 H 0.03485 0.79998 0.81075 0.0
H3922 H 0.01231 0.77707 0.83687 0.0
H3923 H 0.00892 0.77298 0.88861 0.0
H3924 H 0.76532 0.78347 0.39218 0.0
H3925 H 0.76613 0.78627 0.34002 0.0
H3926 H 0.81366 0.79163 0.33861 0.0
H3927 H 0.81321 0.78948 0.39072 0.0
H3928 H 0.81192 0.81188 0.30194 0.0
H3929 H 0.75923 0.75071 0.28611 0.0
H3930 H 0.75456 0.76327 0.30791 0.0
H3931 H 0.76887 0.75765 0.32044 0.0
C3932 C 0.77598 0.78536 0.38075 0.0
C3933 C 0.78913 0.7861 0.3955 0.0
C3934 C 0.77638 0.78684 0.35094 0.0
C3935 C 0.78978 0.78873 0.33538 0.0
C3936 C 0.80316 0.79007 0.35018 0.0
H3937 H 0.7846 0.76704 0.15372 0.0
H3938 H 0.78815 0.76753 0.20566 0.0
C3939 C 0.80287 0.78883 0.37997 0.0
C3940 C 0.7898 0.78901 0.30365 0.0
H3941 H 0.7687 0.76759 0.24503 0.0
C3942 C 0.80251 0.80217 0.28946 0.0
C3943 C 0.77772 0.77615 0.2874 0.0
C3944 C 0.76443 0.76107 0.30123 0.0
C3945 C 0.80332 0.80296 0.25945 0.0
C3946 C 0.7908 0.79049 0.24324 0.0
C3947 C 0.77823 0.77722 0.25746 0.0
C3948 C 0.79025 0.79096 0.21155 0.0
C3949 C 0.81776 0.81699 0.24551 0.0
C3950 C 0.79041 0.80403 0.19757 0.0
C3951 C 0.78866 0.80388 0.16788 0.0
C3952 C 0.78632 0.7905 0.1517 0.0
C3953 C 0.78634 0.7775 0.16565 0.0
C3954 C 0.78835 0.77776 0.19531 0.0
H3955 H 0.8284 0.82224 0.25998 0.0
H3956 H 0.82108 0.81331 0.22524 0.0
H3957 H 0.81485 0.8266 0.24063 0.0
H3958 H 0.79139 0.81413 0.20968 0.0
H3959 H 0.78852 0.814 0.15776 0.0
H3960 H 0.23246 0.99541 0.38404 0.0
H3961 H 0.22852 0.99278 0.33218 0.0
H3962 H 0.1968 0.01256 0.33758 0.0
H3963 H 0.20076 0.01539 0.38946 0.0
H3964 H 0.19989 0.97612 0.29914 0.0
H3965 H 0.23215 0.04239 0.28019 0.0
H3966 H 0.23345 0.03365 0.31364 0.0
H3967 H 0.21582 0.03501 0.30549 0.0
C3968 C 0.22456 0.99911 0.37426 0.0
C3969 C 0.21704 0.00575 0.39082 0.0
C3970 C 0.22232 0.99759 0.34464 0.0
C3971 C 0.21259 0.00273 0.3311 0.0
C3972 C 0.20459 0.00881 0.34764 0.0
H3973 H 0.18298 0.98312 0.15193 0.0
H3974 H 0.18301 0.98586 0.20402 0.0
C3975 C 0.20682 0.01034 0.37728 0.0
C3976 C 0.21114 0.00202 0.29957 0.0
H3977 H 0.22053 0.02561 0.23984 0.0
C3978 C 0.20432 0.98691 0.28613 0.0
C3979 C 0.21713 0.01617 0.28278 0.0
C3980 C 0.22518 0.03276 0.29615 0.0
C3981 C 0.20335 0.98557 0.2562 0.0
C3982 C 0.20916 -0.00029 0.23942 0.0
C3983 C 0.21595 0.01481 0.25286 0.0
C3984 C 0.20903 0.99909 0.2078 0.0
C3985 C 0.19655 0.96908 0.24275 0.0
C3986 C 0.22365 0.00616 0.1927 0.0
C3987 C 0.2237 0.0047 0.16296 0.0
C3988 C 0.2091 0.99618 0.14784 0.0
C3989 C 0.19444 0.98966 0.16297 0.0
C3990 C 0.19442 0.99113 0.19272 0.0
H3991 H 0.19583 0.95996 0.2583 0.0
H3992 H 0.18417 0.96506 0.23481 0.0
H3993 H 0.20402 0.96947 0.22424 0.0
H3994 H 0.23505 0.01243 0.20402 0.0
H3995 H 0.23518 0.00991 0.15194 0.0
H3996 H 0.01617 0.19979 0.15299 0.0
H3997 H 0.0134 0.19572 0.20483 0.0
H3998 H 0.985 0.21927 0.20837 0.0
H3999 H 0.98756 0.22325 0.15656 0.0
H4000 H 0.02435 0.22042 0.24503 0.0
H4001 H 0.95858 0.17853 0.25657 0.0
H4002 H 0.96902 0.1818 0.22283 0.0
H4003 H 0.96337 0.19605 0.23545 0.0
C4004 C 0.00914 0.2039 0.16473 0.0
C4005 C 0.00211 0.21188 0.15068 0.0
C4006 C 0.00758 0.20157 0.19433 0.0
C4007 C 0.99887 0.20705 0.21033 0.0
C4008 C 0.99152 0.21468 0.19631 0.0
H4009 H 0.00566 0.23708 0.38404 0.0
H4010 H 0.00851 0.23453 0.33264 0.0
C4011 C 0.99307 0.21702 0.16671 0.0
C4012 C 0.99846 0.20593 0.2419 0.0
H4013 H 0.97287 0.19228 0.29907 0.0
C4014 C 0.01312 0.2141 0.25688 0.0
C4015 C 0.98381 0.19751 0.25723 0.0
C4016 C 0.96781 0.18784 0.24222 0.0
C4017 C 0.01345 0.21465 0.28689 0.0
C4018 C 0.99873 0.20701 0.30216 0.0
C4019 C 0.98413 0.19825 0.28723 0.0
C4020 C 0.99812 0.20858 0.33355 0.0
C4021 C 0.02953 0.22349 0.30195 0.0
C4022 C 0.99123 0.19481 0.351 0.0
C4023 C 0.98952 0.19622 0.38039 0.0
C4024 C 0.99454 0.21142 0.39273 0.0
C4025 C 0.00172 0.22521 0.37523 0.0
C4026 C 0.00344 0.22379 0.34587 0.0
H4027 H 0.03947 0.22455 0.28815 0.0
H4028 H 0.03216 0.23588 0.30734 0.0
H4029 H 0.02939 0.2173 0.32216 0.0
H4030 H 0.98699 0.18296 0.34181 0.0
H4031 H 0.98393 0.18535 0.3933 0.0
H4032 H 0.85069 0.5443 0.98776 0.0
H4033 H 0.8507 0.54304 0.03995 0.0
H4034 H 0.89717 0.54592 0.03796 0.0
H4035 H 0.89754 0.54788 0.98567 0.0
H4036 H 0.85153 0.52285 0.07736 0.0
H4037 H 0.90645 0.5827 0.09037 0.0
H4038 H 0.89644 0.57566 0.05635 0.0
H4039 H 0.91009 0.56923 0.06913 0.0
C4040 C 0.86089 0.54459 0.99842 0.0
C4041 C 0.87422 0.54639 0.98269 0.0
C4042 C 0.86087 0.54388 0.02825 0.0
C4043 C 0.87411 0.54478 0.04287 0.0
C4044 C 0.88706 0.54572 0.02714 0.0
H4045 H 0.87542 0.52029 0.22043 0.0
H4046 H 0.87211 0.52007 0.16865 0.0
C4047 C 0.88721 0.54671 0.99728 0.0
C4048 C 0.87437 0.54495 0.07458 0.0
H4049 H 0.89679 0.56635 0.13214 0.0
C4050 C 0.86138 0.53241 0.08937 0.0
C4051 C 0.88704 0.55763 0.0902 0.0
C4052 C 0.9007 0.57215 0.07571 0.0
C4053 C 0.86086 0.53201 0.11939 0.0
C4054 C 0.87397 0.54422 0.13498 0.0
C4055 C 0.8868 0.55692 0.12018 0.0
C4056 C 0.87489 0.54395 0.16663 0.0
C4057 C 0.84613 0.51869 0.13397 0.0
C4058 C 0.87791 0.55759 0.18271 0.0
C4059 C 0.88019 0.5579 0.21229 0.0
C4060 C 0.87935 0.54451 0.2263 0.0
C4061 C 0.87595 0.53073 0.21027 0.0
C4062 C 0.87394 0.53053 0.18066 0.0
H4063 H 0.83533 0.51395 0.11994 0.0
H4064 H 0.84824 0.50854 0.1388 0.0
H4065 H 0.84348 0.5229 0.15433 0.0
H4066 H 0.87875 0.5681 0.17229 0.0
H4067 H 0.88278 0.56867 0.22413 0.0
H4068 H 0.48157 0.3513 0.22182 0.0
H4069 H 0.48272 0.34851 0.16989 0.0
H4070 H 0.43081 0.32501 0.16545 0.0
H4071 H 0.42949 0.32757 0.21728 0.0
H4072 H 0.44439 0.31004 0.13239 0.0
H4073 H 0.47406 0.37612 0.11231 0.0
H4074 H 0.48415 0.36986 0.13731 0.0
H4075 H 0.46466 0.36714 0.14606 0.0
C4076 C 0.47039 0.34544 0.20982 0.0
C4077 C 0.45544 0.33977 0.22363 0.0
C4078 C 0.47108 0.34394 0.18016 0.0
C4079 C 0.45686 0.33681 0.16387 0.0
C4080 C 0.44192 0.33063 0.17769 0.0
H4081 H 0.43691 0.34135 0.98647 0.0
H4082 H 0.44085 0.34445 0.03829 0.0
C4083 C 0.4412 0.33212 0.2073 0.0
C4084 C 0.45745 0.33601 0.13232 0.0
H4085 H 0.4692 0.35937 0.07208 0.0
C4086 C 0.44991 0.3208 0.11916 0.0
C4087 C 0.4645 0.35012 0.11524 0.0
C4088 C 0.4722 0.36676 0.12833 0.0
C4089 C 0.44909 0.3193 0.08925 0.0
C4090 C 0.45622 0.3334 0.07216 0.0
C4091 C 0.46388 0.34861 0.08532 0.0
C4092 C 0.45501 0.33256 0.04059 0.0
C4093 C 0.44012 0.30265 0.07619 0.0
C4094 C 0.46206 0.32525 0.02471 0.0
C4095 C 0.4598 0.32342 0.9951 0.0
C4096 C 0.45052 0.32896 0.9809 0.0
C4097 C 0.44406 0.33689 0.99676 0.0
C4098 C 0.44631 0.33869 0.02636 0.0
H4099 H 0.43245 0.29333 0.09216 0.0
H4100 H 0.43235 0.30231 0.05822 0.0
H4101 H 0.44895 0.29942 0.06757 0.0
H4102 H 0.46908 0.32072 0.03528 0.0
H4103 H 0.46506 0.31737 0.98346 0.0
H4104 H 0.65594 0.09651 0.99085 0.0
H4105 H 0.65337 0.0977 0.04275 0.0
H4106 H 0.67961 0.14972 0.03934 0.0
H4107 H 0.68239 0.14868 0.98747 0.0
H4108 H 0.69151 0.13694 0.07982 0.0
H4109 H 0.62524 0.11019 0.09032 0.0
H4110 H 0.63107 0.09813 0.06959 0.0
H4111 H 0.63571 0.1177 0.05672 0.0
C4112 C 0.66099 0.10821 0.00107 0.0
C4113 C 0.66939 0.1225 0.98505 0.0
C4114 C 0.65944 0.10886 0.03071 0.0
C4115 C 0.66616 0.1238 0.04478 0.0
C4116 C 0.67429 0.13808 0.02881 0.0
H4117 H 0.64962 0.13283 0.22571 0.0
H4118 H 0.65258 0.13674 0.17383 0.0
C4119 C 0.67585 0.13745 0.99918 0.0
C4120 C 0.66559 0.1245 0.07636 0.0
H4121 H 0.63977 0.11234 0.13321 0.0
C4122 C 0.68021 0.1317 0.09153 0.0
C4123 C 0.65084 0.11782 0.09148 0.0
C4124 C 0.63482 0.11066 0.07622 0.0
C4125 C 0.68046 0.13196 0.12155 0.0
C4126 C 0.66568 0.1246 0.13669 0.0
C4127 C 0.65107 0.11786 0.12151 0.0
C4128 C 0.66505 0.1233 0.16826 0.0
C4129 C 0.69652 0.1401 0.13678 0.0
C4130 C 0.67117 0.11452 0.18226 0.0
C4131 C 0.66955 0.1123 0.21188 0.0
C4132 C 0.66163 0.11869 0.22796 0.0
C4133 C 0.65578 0.12775 0.21393 0.0
C4134 C 0.65743 0.12998 0.1843 0.0
H4135 H 0.70631 0.14897 0.12271 0.0
H4136 H 0.69602 0.1464 0.1564 0.0
H4137 H 0.69967 0.13085 0.1432 0.0
H4138 H 0.67682 0.10901 0.17018 0.0
H4139 H 0.67411 0.1052 0.22201 0.0
H4140 H 0.42928 0.11209 0.72433 0.0
H4141 H 0.43057 0.1153 0.67226 0.0
H4142 H 0.47959 0.12459 0.67275 0.0
H4143 H 0.47862 0.12206 0.72486 0.0
H4144 H 0.47653 0.14388 0.63594 0.0
H4145 H 0.42706 0.08123 0.61806 0.0
H4146 H 0.42077 0.09255 0.63977 0.0
H4147 H 0.43606 0.08841 0.65277 0.0
C4148 C 0.44037 0.11494 0.71334 0.0
C4149 C 0.45379 0.11668 0.7286 0.0
C4150 C 0.44105 0.11664 0.68359 0.0
C4151 C 0.45502 0.11972 0.66856 0.0
C4152 C 0.46864 0.12208 0.68389 0.0
H4153 H 0.45181 0.10078 0.48564 0.0
H4154 H 0.45534 0.10061 0.53751 0.0
C4155 C 0.46807 0.12064 0.71367 0.0
C4156 C 0.45538 0.12022 0.63685 0.0
H4157 H 0.43548 0.09867 0.57751 0.0
C4158 C 0.46762 0.13396 0.62313 0.0
C4159 C 0.44399 0.10709 0.62016 0.0
C4160 C 0.43135 0.09143 0.63343 0.0
C4161 C 0.46855 0.13511 0.59316 0.0
C4162 C 0.45658 0.12238 0.57652 0.0
C4163 C 0.44457 0.10849 0.59026 0.0
C4164 C 0.45597 0.12327 0.5449 0.0
C4165 C 0.4825 0.14982 0.57974 0.0
C4166 C 0.45525 0.1361 0.53179 0.0
C4167 C 0.45351 0.13634 0.50216 0.0
C4168 C 0.45205 0.12356 0.48516 0.0
C4169 C 0.45287 0.11077 0.49823 0.0
C4170 C 0.45488 0.11066 0.52784 0.0
H4171 H 0.49312 0.15537 0.59426 0.0
H4172 H 0.4862 0.14683 0.55914 0.0
H4173 H 0.47887 0.15898 0.57559 0.0
H4174 H 0.45556 0.1457 0.54453 0.0
H4175 H 0.45274 0.14628 0.49271 0.0
H4176 H 0.86567 0.34909 0.72479 0.0
H4177 H 0.86042 0.34621 0.67322 0.0
H4178 H 0.88791 0.32187 0.66508 0.0
H4179 H 0.89311 0.32456 0.71654 0.0
H4180 H 0.88423 0.35912 0.63082 0.0
H4181 H 0.84657 0.2927 0.61995 0.0
H4182 H 0.84977 0.30295 0.65388 0.0
H4183 H 0.86488 0.29894 0.6396 0.0
C4184 C 0.87041 0.34292 0.7121 0.0
C4185 C 0.87983 0.33706 0.72474 0.0
C4186 C 0.86741 0.34131 0.68266 0.0
C4187 C 0.87363 0.33368 0.66546 0.0
C4188 C 0.88274 0.32753 0.67809 0.0
H4189 H 0.90073 0.34249 0.48998 0.0
H4190 H 0.89873 0.34521 0.5416 0.0
C4191 C 0.88577 0.32916 0.70749 0.0
C4192 C 0.87167 0.33318 0.63402 0.0
H4193 H 0.85866 0.30752 0.57692 0.0
C4194 C 0.87845 0.34784 0.61901 0.0
C4195 C 0.86395 0.31845 0.61876 0.0
C4196 C 0.85573 0.30236 0.63387 0.0
C4197 C 0.87837 0.34817 0.58899 0.0
C4198 C 0.8715 0.33346 0.57372 0.0
C4199 C 0.86405 0.31879 0.58873 0.0
C4200 C 0.87263 0.33299 0.5422 0.0
C4201 C 0.88577 0.36425 0.57388 0.0
C4202 C 0.8586 0.32514 0.52551 0.0
C4203 C 0.85969 0.32352 0.49599 0.0
C4204 C 0.87485 0.32958 0.48275 0.0
C4205 C 0.88888 0.33773 0.49949 0.0
C4206 C 0.88777 0.33938 0.52898 0.0
H4207 H 0.88623 0.37382 0.58801 0.0
H4208 H 0.89832 0.36791 0.56755 0.0
H4209 H 0.8789 0.3635 0.55422 0.0
H4210 H 0.84681 0.32006 0.5354 0.0
H4211 H 0.84865 0.31716 0.48369 0.0
H4212 H 0.65919 0.56487 0.48851 0.0
H4213 H 0.65648 0.56104 0.54037 0.0
H4214 H 0.67898 0.53169 0.53623 0.0
H4215 H 0.68189 0.53555 0.48432 0.0
H4216 H 0.64103 0.53231 0.57361 0.0
H4217 H 0.70716 0.56814 0.5934 0.0
H4218 H 0.69818 0.56869 0.55973 0.0
H4219 H 0.70073 0.5518 0.56832 0.0
C4220 C 0.66347 0.55751 0.49856 0.0
C4221 C 0.67089 0.55064 0.48235 0.0
C4222 C 0.6619 0.55533 0.52817 0.0
C4223 C 0.66777 0.54631 0.54206 0.0
C4224 C 0.67464 0.53893 0.52588 0.0
H4225 H 0.64888 0.51781 0.72177 0.0
H4226 H 0.65196 0.51759 0.66981 0.0
C4227 C 0.67622 0.54109 0.49624 0.0
C4228 C 0.667 0.54499 0.57359 0.0
H4229 H 0.69043 0.5562 0.63368 0.0
C4230 C 0.6518 0.53743 0.5868 0.0
C4231 C 0.68112 0.55189 0.59058 0.0
C4232 C 0.69775 0.56072 0.5774 0.0
C4233 C 0.65034 0.53664 0.61671 0.0
C4234 C 0.66446 0.54341 0.6337 0.0
C4235 C 0.67966 0.55091 0.62049 0.0
C4236 C 0.66368 0.54353 0.66526 0.0
C4237 C 0.63372 0.52902 0.62989 0.0
C4238 C 0.66979 0.55823 0.67989 0.0
C4239 C 0.66813 0.55843 0.70956 0.0
C4240 C 0.66036 0.5439 0.72506 0.0
C4241 C 0.65481 0.5292 0.71041 0.0
C4242 C 0.65649 0.52903 0.68074 0.0
H4243 H 0.6244 0.52749 0.61405 0.0
H4244 H 0.63044 0.51691 0.63834 0.0
H4245 H 0.63349 0.53641 0.64801 0.0
H4246 H 0.67546 0.56955 0.66824 0.0
H4247 H 0.6726 0.56994 0.72022 0.0
H4248 H 0.56831 0.89487 0.32116 0.0
H4249 H 0.56721 0.8908 0.37295 0.0
H4250 H 0.51526 0.86273 0.3692 0.0
H4251 H 0.5162 0.86686 0.31741 0.0
H4252 H 0.52676 0.88697 0.41033 0.0
H4253 H 0.55686 0.85044 0.41941 0.0
H4254 H 0.56823 0.86866 0.39911 0.0
H4255 H 0.54902 0.85312 0.38594 0.0
C4256 C 0.55665 0.88766 0.33127 0.0
C4257 C 0.54234 0.88121 0.31519 0.0
C4258 C 0.55606 0.88528 0.36085 0.0
C4259 C 0.54116 0.87632 0.3748 0.0
C4260 C 0.52687 0.86963 0.35876 0.0
H4261 H 0.53409 0.85058 0.55553 0.0
H4262 H 0.52981 0.84941 0.50375 0.0
C4263 C 0.52744 0.872 0.32919 0.0
C4264 C 0.54049 0.8748 0.40633 0.0
H4265 H 0.5541 0.86221 0.46265 0.0
C4266 C 0.53259 0.88141 0.4218 0.0
C4267 C 0.54793 0.86737 0.42115 0.0
C4268 C 0.55586 0.85935 0.40557 0.0
C4269 C 0.53242 0.88129 0.45183 0.0
C4270 C 0.54057 0.87459 0.46665 0.0
C4271 C 0.54798 0.86747 0.45118 0.0
C4272 C 0.54207 0.87532 0.49818 0.0
C4273 C 0.52356 0.88834 0.46741 0.0
C4274 C 0.55032 0.89028 0.51214 0.0
C4275 C 0.55277 0.89101 0.5417 0.0
C4276 C 0.54713 0.87676 0.55776 0.0
C4277 C 0.5386 0.86177 0.54377 0.0
C4278 C 0.53615 0.86107 0.5142 0.0
H4279 H 0.5143 0.8887 0.45355 0.0
H4280 H 0.51758 0.8813 0.487 0.0
H4281 H 0.53231 0.9009 0.47391 0.0
H4282 H 0.55524 0.90142 0.50005 0.0
H4283 H 0.55944 0.90273 0.5518 0.0
H4284 H 0.14618 0.68223 0.55945 0.0
H4285 H 0.14675 0.67908 0.50755 0.0
H4286 H 0.09475 0.65457 0.50514 0.0
H4287 H 0.09401 0.65744 0.55704 0.0
H4288 H 0.10821 0.64006 0.47116 0.0
H4289 H 0.13694 0.70602 0.45093 0.0
H4290 H 0.14768 0.70018 0.47523 0.0
H4291 H 0.12816 0.69704 0.48503 0.0
C4292 C 0.13485 0.67607 0.54791 0.0
C4293 C 0.12004 0.67022 0.56229 0.0
C4294 C 0.13522 0.67436 0.51827 0.0
C4295 C 0.12081 0.66687 0.50256 0.0
C4296 C 0.106 0.66047 0.51695 0.0
H4297 H 0.1017 0.67196 0.32447 0.0
H4298 H 0.10478 0.67451 0.37648 0.0
C4299 C 0.10561 0.66213 0.54658 0.0
C4300 C 0.12109 0.66603 0.471 0.0
H4301 H 0.13264 0.68934 0.41074 0.0
C4302 C 0.11361 0.65081 0.4579 0.0
C4303 C 0.12798 0.68012 0.45389 0.0
C4304 C 0.13553 0.69678 0.46689 0.0
C4305 C 0.11277 0.64927 0.428 0.0
C4306 C 0.11985 0.66336 0.41089 0.0
C4307 C 0.12737 0.67859 0.424 0.0
C4308 C 0.11885 0.66254 0.37933 0.0
C4309 C 0.10391 0.63261 0.41498 0.0
C4310 C 0.12609 0.65531 0.36375 0.0
C4311 C 0.12433 0.6538 0.33405 0.0
C4312 C 0.11537 0.65958 0.31947 0.0
C4313 C 0.10863 0.66733 0.33507 0.0
C4314 C 0.11038 0.66881 0.36477 0.0
H4315 H 0.09613 0.62332 0.4309 0.0
H4316 H 0.09627 0.63224 0.39676 0.0
H4317 H 0.11281 0.62939 0.40673 0.0
H4318 H 0.13296 0.6507 0.37461 0.0
H4319 H 0.12978 0.64789 0.32259 0.0
H4320 H 0.32621 0.42885 0.32462 0.0
H4321 H 0.32317 0.43081 0.37618 0.0
H4322 H 0.34569 0.48257 0.36921 0.0
H4323 H 0.34891 0.48078 0.31763 0.0
H4324 H 0.35917 0.47202 0.41146 0.0
H4325 H 0.29251 0.44134 0.42095 0.0
H4326 H 0.29958 0.42999 0.40117 0.0
H4327 H 0.30294 0.44896 0.38732 0.0
C4328 C 0.33034 0.44064 0.33397 0.0
C4329 C 0.33783 0.45466 0.31706 0.0
C4330 C 0.32851 0.44172 0.3634 0.0
C4331 C 0.33405 0.45682 0.37635 0.0
C4332 C 0.34127 0.47081 0.3595 0.0
H4333 H 0.31612 0.46532 0.55715 0.0
H4334 H 0.31923 0.46975 0.50537 0.0
C4335 C 0.34309 0.46975 0.33006 0.0
C4336 C 0.33328 0.45803 0.40776 0.0
H4337 H 0.30723 0.44482 0.46429 0.0
C4338 C 0.34782 0.46624 0.42304 0.0
C4339 C 0.31844 0.45065 0.42268 0.0
C4340 C 0.30246 0.44236 0.4072 0.0
C4341 C 0.34794 0.46669 0.45304 0.0
C4342 C 0.33314 0.45857 0.46799 0.0
C4343 C 0.31857 0.45094 0.45269 0.0
C4344 C 0.33249 0.45712 0.49949 0.0
C4345 C 0.36388 0.47574 0.46849 0.0
C4346 C 0.339 0.44862 0.5132 0.0
C4347 C 0.33723 0.44603 0.54271 0.0
C4348 C 0.32885 0.45185 0.55896 0.0
C4349 C 0.32266 0.46069 0.54522 0.0
C4350 C 0.3244 0.46323 0.51568 0.0
H4351 H 0.37346 0.48487 0.45441 0.0
H4352 H 0.36282 0.4819 0.48784 0.0
H4353 H 0.36772 0.46707 0.47542 0.0
H4354 H 0.34504 0.44357 0.50095 0.0
H4355 H 0.3421 0.43914 0.55263 0.0
H4356 H 0.10345 0.42935 0.81963 0.0
H4357 H 0.10625 0.42945 0.87168 0.0
H4358 H 0.13376 0.48148 0.8713 0.0
H4359 H 0.13089 0.48154 0.81928 0.0
H4360 H 0.13398 0.44272 0.90677 0.0
H4361 H 0.09611 0.47077 0.92663 0.0
H4362 H 0.0967 0.4623 0.89242 0.0
H4363 H 0.11287 0.48182 0.90282 0.0
C4364 C 0.11019 0.44082 0.83057 0.0
C4365 C 0.11681 0.45544 0.81538 0.0
C4366 C 0.11177 0.44085 0.86029 0.0
C4367 C 0.11996 0.45548 0.87527 0.0
C4368 C 0.12712 0.47008 0.8601 0.0
H4369 H 0.14711 0.46393 0.05533 0.0
H4370 H 0.14749 0.46719 0.00334 0.0
C4371 C 0.12553 0.47007 0.83039 0.0
C4372 C 0.12069 0.4554 0.90685 0.0
H4373 H 0.10837 0.46644 0.96703 0.0
C4374 C 0.12844 0.44794 0.92 0.0
C4375 C 0.11325 0.46206 0.92391 0.0
C4376 C 0.10413 0.46958 0.91082 0.0
C4377 C 0.12897 0.44697 0.9499 0.0
C4378 C 0.12177 0.45388 0.96696 0.0
C4379 C 0.114 0.46132 0.95381 0.0
C4380 C 0.12157 0.45286 0.99853 0.0
C4381 C 0.13684 0.43818 0.96296 0.0
C4382 C 0.10682 0.44423 0.01304 0.0
C4383 C 0.10654 0.44243 0.04273 0.0
C4384 C 0.12102 0.44927 0.05837 0.0
C4385 C 0.13575 0.4584 0.04385 0.0
C4386 C 0.13601 0.46021 0.01416 0.0
H4387 H 0.13847 0.43048 0.94704 0.0
H4388 H 0.14892 0.44713 0.9713 0.0
H4389 H 0.12956 0.43048 0.98112 0.0
H4390 H 0.09554 0.43855 0.00129 0.0
H4391 H 0.09499 0.43537 0.05329 0.0
H4392 H 0.51596 0.64883 0.82507 0.0
H4393 H 0.51481 0.65143 0.87699 0.0
H4394 H 0.56677 0.67957 0.8802 0.0
H4395 H 0.56806 0.6772 0.82831 0.0
H4396 H 0.5286 0.64027 0.91689 0.0
H4397 H 0.55267 0.70608 0.92871 0.0
H4398 H 0.54541 0.69569 0.89498 0.0
H4399 H 0.56529 0.7012 0.90747 0.0
C4400 C 0.52714 0.65577 0.83676 0.0
C4401 C 0.54212 0.66279 0.8226 0.0
C4402 C 0.52645 0.65722 0.8664 0.0
C4403 C 0.54069 0.66581 0.88232 0.0
C4404 C 0.55563 0.67314 0.8682 0.0
H4405 H 0.56219 0.65855 0.05782 0.0
H4406 H 0.55764 0.65576 0.00612 0.0
C4407 C 0.55634 0.6717 0.83856 0.0
C4408 C 0.54003 0.66617 0.91389 0.0
H4409 H 0.55175 0.69166 0.97116 0.0
C4410 C 0.5335 0.65149 0.9288 0.0
C4411 C 0.54626 0.6808 0.92927 0.0
C4412 C 0.55266 0.69683 0.91431 0.0
C4413 C 0.53356 0.65109 0.9588 0.0
C4414 C 0.54054 0.66578 0.97415 0.0
C4415 C 0.54653 0.68042 0.95927 0.0
C4416 C 0.54223 0.66633 0.00563 0.0
C4417 C 0.52619 0.63498 0.9738 0.0
C4418 C 0.53514 0.67327 0.02239 0.0
C4419 C 0.53778 0.67496 0.05189 0.0
C4420 C 0.54766 0.66984 0.0651 0.0
C4421 C 0.55447 0.66256 0.04831 0.0
C4422 C 0.55182 0.66088 0.0188 0.0
H4423 H 0.51747 0.62505 0.95978 0.0
H4424 H 0.53589 0.63237 0.97967 0.0
H4425 H 0.51989 0.63506 0.99373 0.0
H4426 H 0.52775 0.67759 0.01255 0.0
H4427 H 0.53235 0.6806 0.06423 0.0
H4428 H 0.32533 0.89682 0.82254 0.0
H4429 H 0.32269 0.89351 0.87452 0.0
H4430 H 0.34579 0.86468 0.87202 0.0
H4431 H 0.34872 0.86811 0.82007 0.0
H4432 H 0.30751 0.86578 0.90858 0.0
H4433 H 0.37359 0.90086 0.92867 0.0
H4434 H 0.3648 0.901 0.89455 0.0
H4435 H 0.36723 0.88418 0.90443 0.0
C4436 C 0.32978 0.8897 0.833 0.0
C4437 C 0.33739 0.88286 0.81724 0.0
C4438 C 0.32825 0.88782 0.86269 0.0
C4439 C 0.33431 0.8791 0.87708 0.0
C4440 C 0.34135 0.87175 0.86132 0.0
H4441 H 0.31429 0.85088 0.05688 0.0
H4442 H 0.31717 0.85052 0.00487 0.0
C4443 C 0.34294 0.87366 0.83165 0.0
C4444 C 0.33347 0.87798 0.90865 0.0
H4445 H 0.35679 0.8887 0.96887 0.0
C4446 C 0.31826 0.87073 0.92181 0.0
C4447 C 0.34756 0.88465 0.92574 0.0
C4448 C 0.36424 0.89325 0.91272 0.0
C4449 C 0.31675 0.86997 0.95172 0.0
C4450 C 0.33083 0.87641 0.96879 0.0
C4451 C 0.34604 0.88364 0.95563 0.0
C4452 C 0.33004 0.87651 0.00038 0.0
C4453 C 0.30013 0.86273 0.96478 0.0
C4454 C 0.33688 0.89125 0.01509 0.0
C4455 C 0.33536 0.89151 0.04478 0.0
C4456 C 0.327 0.87702 0.06025 0.0
C4457 C 0.32069 0.86225 0.04554 0.0
C4458 C 0.32224 0.86201 0.01583 0.0
H4459 H 0.29099 0.8617 0.94894 0.0
H4460 H 0.2964 0.85044 0.97281 0.0
H4461 H 0.30011 0.8701 0.98314 0.0
H4462 H 0.34303 0.90257 0.0035 0.0
H4463 H 0.34042 0.90308 0.05548 0.0
loop_
_geom_bond_atom_site_label_1
_geom_bond_atom_site_label_2
_geom_bond_distance
_geom_bond_site_symmetry_2
_ccdc_geom_bond_type
Co0 O3 1.970 . S
Co0 N17 1.989 . S
Co0 O25 1.967 . S
Co0 O32 1.920 . S
Co1 O4 1.966 . S
Co1 N10 2.022 . S
Co1 N18 1.993 . S
Co1 O26 1.941 . S
C2 O3 1.258 1_554 S
C2 O4 1.263 . S
O3 Co0 1.970 . S
O3 C2 1.258 1_556 S
O4 Co1 1.966 . S
O4 C2 1.263 . S
C5 O6 1.235 . S
C5 O32 1.289 . S
O6 C5 1.235 . S
C7 C9 1.400 . S
C7 N10 1.351 . S
C7 C12 1.501 . S
C8 C9 1.387 . S
C8 N11 1.341 . S
C9 C7 1.400 . S
C9 C8 1.387 . S
N10 Co1 2.022 . S
N10 C7 1.351 . S
N10 N11 1.365 . S
N11 C8 1.341 . S
N11 N10 1.365 . S
N11 H31 0.862 . S
C12 C7 1.501 . S
C12 H13 0.961 . S
C12 H14 0.961 . S
C12 H15 0.960 . S
H13 C12 0.961 . S
H14 C12 0.961 . S
H15 C12 0.960 . S
C16 N17 1.342 . S
C16 C20 1.401 1_556 S
C16 C21 1.499 . S
N17 Co0 1.989 . S
N17 C16 1.342 . S
N17 N18 1.388 1_556 S
N18 Co1 1.993 . S
N18 N17 1.388 1_554 S
N18 C19 1.346 . S
C19 N18 1.346 . S
C19 C20 1.396 . S
C19 C29 1.510 . S
C20 C16 1.401 1_554 S
C20 C19 1.396 . S
C21 C16 1.499 . S
C21 H22 0.959 . S
C21 H23 0.960 . S
C21 H24 0.961 . S
H22 C21 0.959 . S
H23 C21 0.960 . S
H24 C21 0.961 . S
O25 Co0 1.967 . S
O25 C33 1.258 1_556 S
O26 Co1 1.941 . S
O26 C33 1.266 . S
H27 C29 0.959 . S
H28 C29 0.961 . S
C29 C19 1.510 . S
C29 H27 0.959 . S
C29 H28 0.961 . S
C29 H30 0.960 . S
H30 C29 0.960 . S
H31 N11 0.862 . S
O32 Co0 1.920 . S
O32 C5 1.289 . S
C33 O25 1.258 1_554 S
C33 O26 1.266 . S
Co34 O37 1.970 . S
Co34 N51 1.989 1_545 S
Co34 O59 1.967 . S
Co34 O66 1.920 . S
Co35 O38 1.966 . S
Co35 N44 2.022 . S
Co35 N52 1.993 1_545 S
Co35 O60 1.941 . S
C36 O37 1.258 1_554 S
C36 O38 1.263 . S
O37 Co34 1.970 . S
O37 C36 1.258 1_556 S
O38 Co35 1.966 . S
O38 C36 1.263 . S
C39 O40 1.235 1_545 S
C39 O66 1.289 . S
O40 C39 1.235 1_565 S
C41 C43 1.400 . S
C41 N44 1.351 . S
C41 C46 1.501 . S
C42 C43 1.387 . S
C42 N45 1.341 . S
C43 C41 1.400 . S
C43 C42 1.387 . S
N44 Co35 2.022 . S
N44 C41 1.351 . S
N44 N45 1.365 . S
N45 C42 1.341 . S
N45 N44 1.365 . S
N45 H65 0.862 . S
C46 C41 1.501 . S
C46 H47 0.961 . S
C46 H48 0.961 . S
C46 H49 0.960 . S
H47 C46 0.961 . S
H48 C46 0.961 . S
H49 C46 0.960 . S
C50 N51 1.342 . S
C50 C54 1.401 1_556 S
C50 C55 1.499 . S
N51 Co34 1.989 1_565 S
N51 C50 1.342 . S
N51 N52 1.388 1_556 S
N52 Co35 1.993 1_565 S
N52 N51 1.388 1_554 S
N52 C53 1.346 . S
C53 N52 1.346 . S
C53 C54 1.396 . S
C53 C63 1.510 . S
C54 C50 1.401 1_554 S
C54 C53 1.396 . S
C55 C50 1.499 . S
C55 H56 0.959 . S
C55 H57 0.960 . S
C55 H58 0.961 . S
H56 C55 0.959 . S
H57 C55 0.960 . S
H58 C55 0.961 . S
O59 Co34 1.967 . S
O59 C67 1.258 1_556 S
O60 Co35 1.941 . S
O60 C67 1.266 . S
H61 C63 0.959 . S
H62 C63 0.961 . S
C63 C53 1.510 . S
C63 H61 0.959 . S
C63 H62 0.961 . S
C63 H64 0.960 . S
H64 C63 0.960 . S
H65 N45 0.862 . S
O66 Co34 1.920 . S
O66 C39 1.289 . S
C67 O59 1.258 1_554 S
C67 O60 1.266 . S
Co68 O71 1.970 . S
Co68 N85 1.989 1_655 S
Co68 O93 1.967 . S
Co68 O100 1.920 . S
Co69 O72 1.966 . S
Co69 N78 2.022 . S
Co69 N86 1.993 1_655 S
Co69 O94 1.941 . S
C70 O71 1.258 1_554 S
C70 O72 1.263 . S
O71 Co68 1.970 . S
O71 C70 1.258 1_556 S
O72 Co69 1.966 . S
O72 C70 1.263 . S
C73 O74 1.235 1_655 S
C73 O100 1.289 . S
O74 C73 1.235 1_455 S
C75 C77 1.400 . S
C75 N78 1.351 . S
C75 C80 1.501 . S
C76 C77 1.387 . S
C76 N79 1.341 . S
C77 C75 1.400 . S
C77 C76 1.387 . S
N78 Co69 2.022 . S
N78 C75 1.351 . S
N78 N79 1.365 . S
N79 C76 1.341 . S
N79 N78 1.365 . S
N79 H99 0.862 . S
C80 C75 1.501 . S
C80 H81 0.961 . S
C80 H82 0.961 . S
C80 H83 0.960 . S
H81 C80 0.961 . S
H82 C80 0.961 . S
H83 C80 0.960 . S
C84 N85 1.342 . S
C84 C88 1.401 1_556 S
C84 C89 1.499 . S
N85 Co68 1.989 1_455 S
N85 C84 1.342 . S
N85 N86 1.388 1_556 S
N86 Co69 1.993 1_455 S
N86 N85 1.388 1_554 S
N86 C87 1.346 . S
C87 N86 1.346 . S
C87 C88 1.396 . S
C87 C97 1.510 . S
C88 C84 1.401 1_554 S
C88 C87 1.396 . S
C89 C84 1.499 . S
C89 H90 0.959 . S
C89 H91 0.960 . S
C89 H92 0.961 . S
H90 C89 0.959 . S
H91 C89 0.960 . S
H92 C89 0.961 . S
O93 Co68 1.967 . S
O93 C101 1.258 1_556 S
O94 Co69 1.941 . S
O94 C101 1.266 . S
H95 C97 0.959 . S
H96 C97 0.961 . S
C97 C87 1.510 . S
C97 H95 0.959 . S
C97 H96 0.961 . S
C97 H98 0.960 . S
H98 C97 0.960 . S
H99 N79 0.862 . S
O100 Co68 1.920 . S
O100 C73 1.289 . S
C101 O93 1.258 1_554 S
C101 O94 1.266 . S
Co102 O105 1.970 . S
Co102 N119 1.989 . S
Co102 O127 1.967 . S
Co102 O134 1.920 . S
Co103 O106 1.966 . S
Co103 N112 2.022 . S
Co103 N120 1.993 . S
Co103 O128 1.941 . S
C104 O105 1.258 . S
C104 O106 1.263 . S
O105 Co102 1.970 . S
O105 C104 1.258 . S
O106 Co103 1.966 . S
O106 C104 1.263 . S
C107 O108 1.235 . S
C107 O134 1.289 . S
O108 C107 1.235 . S
C109 C111 1.400 . S
C109 N112 1.351 . S
C109 C114 1.501 . S
C110 C111 1.387 . S
C110 N113 1.341 . S
C111 C109 1.400 . S
C111 C110 1.387 . S
N112 Co103 2.022 . S
N112 C109 1.351 . S
N112 N113 1.365 . S
N113 C110 1.341 . S
N113 N112 1.365 . S
N113 H133 0.862 . S
C114 C109 1.501 . S
C114 H115 0.961 . S
C114 H116 0.961 . S
C114 H117 0.960 . S
H115 C114 0.961 . S
H116 C114 0.961 . S
H117 C114 0.960 . S
C118 N119 1.342 . S
C118 C122 1.401 . S
C118 C123 1.499 . S
N119 Co102 1.989 . S
N119 C118 1.342 . S
N119 N120 1.388 . S
N120 Co103 1.993 . S
N120 N119 1.388 . S
N120 C121 1.346 . S
C121 N120 1.346 . S
C121 C122 1.396 . S
C121 C131 1.510 . S
C122 C118 1.401 . S
C122 C121 1.396 . S
C123 C118 1.499 . S
C123 H124 0.959 . S
C123 H125 0.960 . S
C123 H126 0.961 . S
H124 C123 0.959 . S
H125 C123 0.960 . S
H126 C123 0.961 . S
O127 Co102 1.967 . S
O127 C135 1.258 . S
O128 Co103 1.941 . S
O128 C135 1.266 . S
H129 C131 0.959 . S
H130 C131 0.961 . S
C131 C121 1.510 . S
C131 H129 0.959 . S
C131 H130 0.961 . S
C131 H132 0.960 . S
H132 C131 0.960 . S
H133 N113 0.862 . S
O134 Co102 1.920 . S
O134 C107 1.289 . S
C135 O127 1.258 . S
C135 O128 1.266 . S
Co136 O139 1.970 . S
Co136 N153 1.989 1_565 S
Co136 O161 1.967 . S
Co136 O168 1.920 . S
Co137 O140 1.966 . S
Co137 N146 2.022 . S
Co137 N154 1.993 1_565 S
Co137 O162 1.941 . S
C138 O139 1.258 . S
C138 O140 1.263 . S
O139 Co136 1.970 . S
O139 C138 1.258 . S
O140 Co137 1.966 . S
O140 C138 1.263 . S
C141 O142 1.235 1_565 S
C141 O168 1.289 . S
O142 C141 1.235 1_545 S
C143 C145 1.400 . S
C143 N146 1.351 . S
C143 C148 1.501 . S
C144 C145 1.387 . S
C144 N147 1.341 . S
C145 C143 1.400 . S
C145 C144 1.387 . S
N146 Co137 2.022 . S
N146 C143 1.351 . S
N146 N147 1.365 . S
N147 C144 1.341 . S
N147 N146 1.365 . S
N147 H167 0.862 . S
C148 C143 1.501 . S
C148 H149 0.961 . S
C148 H150 0.961 . S
C148 H151 0.960 . S
H149 C148 0.961 . S
H150 C148 0.961 . S
H151 C148 0.960 . S
C152 N153 1.342 . S
C152 C156 1.401 . S
C152 C157 1.499 . S
N153 Co136 1.989 1_545 S
N153 C152 1.342 . S
N153 N154 1.388 . S
N154 Co137 1.993 1_545 S
N154 N153 1.388 . S
N154 C155 1.346 . S
C155 N154 1.346 . S
C155 C156 1.396 . S
C155 C165 1.510 . S
C156 C152 1.401 . S
C156 C155 1.396 . S
C157 C152 1.499 . S
C157 H158 0.959 . S
C157 H159 0.960 . S
C157 H160 0.961 . S
H158 C157 0.959 . S
H159 C157 0.960 . S
H160 C157 0.961 . S
O161 Co136 1.967 . S
O161 C169 1.258 . S
O162 Co137 1.941 . S
O162 C169 1.266 . S
H163 C165 0.959 . S
H164 C165 0.961 . S
C165 C155 1.510 . S
C165 H163 0.959 . S
C165 H164 0.961 . S
C165 H166 0.960 . S
H166 C165 0.960 . S
H167 N147 0.862 . S
O168 Co136 1.920 . S
O168 C141 1.289 . S
C169 O161 1.258 . S
C169 O162 1.266 . S
Co170 O173 1.970 . S
Co170 N187 1.989 1_455 S
Co170 O195 1.967 . S
Co170 O202 1.920 . S
Co171 O174 1.966 . S
Co171 N180 2.022 . S
Co171 N188 1.993 1_455 S
Co171 O196 1.941 . S
C172 O173 1.258 . S
C172 O174 1.263 . S
O173 Co170 1.970 . S
O173 C172 1.258 . S
O174 Co171 1.966 . S
O174 C172 1.263 . S
C175 O176 1.235 1_455 S
C175 O202 1.289 . S
O176 C175 1.235 1_655 S
C177 C179 1.400 . S
C177 N180 1.351 . S
C177 C182 1.501 . S
C178 C179 1.387 . S
C178 N181 1.341 . S
C179 C177 1.400 . S
C179 C178 1.387 . S
N180 Co171 2.022 . S
N180 C177 1.351 . S
N180 N181 1.365 . S
N181 C178 1.341 . S
N181 N180 1.365 . S
N181 H201 0.862 . S
C182 C177 1.501 . S
C182 H183 0.961 . S
C182 H184 0.961 . S
C182 H185 0.960 . S
H183 C182 0.961 . S
H184 C182 0.961 . S
H185 C182 0.960 . S
C186 N187 1.342 . S
C186 C190 1.401 . S
C186 C191 1.499 . S
N187 Co170 1.989 1_655 S
N187 C186 1.342 . S
N187 N188 1.388 . S
N188 Co171 1.993 1_655 S
N188 N187 1.388 . S
N188 C189 1.346 . S
C189 N188 1.346 . S
C189 C190 1.396 . S
C189 C199 1.510 . S
C190 C186 1.401 . S
C190 C189 1.396 . S
C191 C186 1.499 . S
C191 H192 0.959 . S
C191 H193 0.960 . S
C191 H194 0.961 . S
H192 C191 0.959 . S
H193 C191 0.960 . S
H194 C191 0.961 . S
O195 Co170 1.967 . S
O195 C203 1.258 . S
O196 Co171 1.941 . S
O196 C203 1.266 . S
H197 C199 0.959 . S
H198 C199 0.961 . S
C199 C189 1.510 . S
C199 H197 0.959 . S
C199 H198 0.961 . S
C199 H200 0.960 . S
H200 C199 0.960 . S
H201 N181 0.862 . S
O202 Co170 1.920 . S
O202 C175 1.289 . S
C203 O195 1.258 . S
C203 O196 1.266 . S
Co204 O207 1.970 . S
Co204 N221 1.989 . S
Co204 O229 1.967 . S
Co204 O236 1.920 . S
Co205 O208 1.966 . S
Co205 N214 2.022 1_554 S
Co205 N222 1.993 . S
Co205 O230 1.941 . S
C206 O207 1.258 . S
C206 O208 1.263 . S
O207 Co204 1.970 . S
O207 C206 1.258 . S
O208 Co205 1.966 . S
O208 C206 1.263 . S
C209 O210 1.235 . S
C209 O236 1.289 . S
O210 C209 1.235 . S
C211 C213 1.400 . S
C211 N214 1.351 . S
C211 C216 1.501 . S
C212 C213 1.387 . S
C212 N215 1.341 . S
C213 C211 1.400 . S
C213 C212 1.387 . S
N214 Co205 2.022 1_556 S
N214 C211 1.351 . S
N214 N215 1.365 . S
N215 C212 1.341 . S
N215 N214 1.365 . S
N215 H235 0.862 . S
C216 C211 1.501 . S
C216 H217 0.961 . S
C216 H218 0.961 . S
C216 H219 0.960 . S
H217 C216 0.961 . S
H218 C216 0.961 . S
H219 C216 0.960 . S
C220 N221 1.342 . S
C220 C224 1.401 . S
C220 C225 1.499 . S
N221 Co204 1.989 . S
N221 C220 1.342 . S
N221 N222 1.388 . S
N222 Co205 1.993 . S
N222 N221 1.388 . S
N222 C223 1.346 . S
C223 N222 1.346 . S
C223 C224 1.396 . S
C223 C233 1.510 1_554 S
C224 C220 1.401 . S
C224 C223 1.396 . S
C225 C220 1.499 . S
C225 H226 0.959 . S
C225 H227 0.960 . S
C225 H228 0.961 . S
H226 C225 0.959 . S
H227 C225 0.960 . S
H228 C225 0.961 . S
O229 Co204 1.967 . S
O229 C237 1.258 . S
O230 Co205 1.941 . S
O230 C237 1.266 . S
H231 C233 0.959 . S
H232 C233 0.961 . S
C233 C223 1.510 1_556 S
C233 H231 0.959 . S
C233 H232 0.961 . S
C233 H234 0.960 . S
H234 C233 0.960 . S
H235 N215 0.862 . S
O236 Co204 1.920 . S
O236 C209 1.289 . S
C237 O229 1.258 . S
C237 O230 1.266 . S
Co238 O241 1.970 . S
Co238 N255 1.989 1_565 S
Co238 O263 1.967 . S
Co238 O270 1.920 . S
Co239 O242 1.966 . S
Co239 N248 2.022 1_554 S
Co239 N256 1.993 1_565 S
Co239 O264 1.941 . S
C240 O241 1.258 . S
C240 O242 1.263 . S
O241 Co238 1.970 . S
O241 C240 1.258 . S
O242 Co239 1.966 . S
O242 C240 1.263 . S
C243 O244 1.235 1_565 S
C243 O270 1.289 . S
O244 C243 1.235 1_545 S
C245 C247 1.400 . S
C245 N248 1.351 . S
C245 C250 1.501 . S
C246 C247 1.387 . S
C246 N249 1.341 . S
C247 C245 1.400 . S
C247 C246 1.387 . S
N248 Co239 2.022 1_556 S
N248 C245 1.351 . S
N248 N249 1.365 . S
N249 C246 1.341 . S
N249 N248 1.365 . S
N249 H269 0.862 . S
C250 C245 1.501 . S
C250 H251 0.961 . S
C250 H252 0.961 . S
C250 H253 0.960 . S
H251 C250 0.961 . S
H252 C250 0.961 . S
H253 C250 0.960 . S
C254 N255 1.342 . S
C254 C258 1.401 . S
C254 C259 1.499 . S
N255 Co238 1.989 1_545 S
N255 C254 1.342 . S
N255 N256 1.388 . S
N256 Co239 1.993 1_545 S
N256 N255 1.388 . S
N256 C257 1.346 . S
C257 N256 1.346 . S
C257 C258 1.396 . S
C257 C267 1.510 1_554 S
C258 C254 1.401 . S
C258 C257 1.396 . S
C259 C254 1.499 . S
C259 H260 0.959 . S
C259 H261 0.960 . S
C259 H262 0.961 . S
H260 C259 0.959 . S
H261 C259 0.960 . S
H262 C259 0.961 . S
O263 Co238 1.967 . S
O263 C271 1.258 . S
O264 Co239 1.941 . S
O264 C271 1.266 . S
H265 C267 0.959 . S
H266 C267 0.961 . S
C267 C257 1.510 1_556 S
C267 H265 0.959 . S
C267 H266 0.961 . S
C267 H268 0.960 . S
H268 C267 0.960 . S
H269 N249 0.862 . S
O270 Co238 1.920 . S
O270 C243 1.289 . S
C271 O263 1.258 . S
C271 O264 1.266 . S
Co272 O275 1.970 . S
Co272 N289 1.989 1_455 S
Co272 O297 1.967 . S
Co272 O304 1.920 . S
Co273 O276 1.966 . S
Co273 N282 2.022 1_554 S
Co273 N290 1.993 1_455 S
Co273 O298 1.941 . S
C274 O275 1.258 . S
C274 O276 1.263 . S
O275 Co272 1.970 . S
O275 C274 1.258 . S
O276 Co273 1.966 . S
O276 C274 1.263 . S
C277 O278 1.235 1_455 S
C277 O304 1.289 . S
O278 C277 1.235 1_655 S
C279 C281 1.400 . S
C279 N282 1.351 . S
C279 C284 1.501 . S
C280 C281 1.387 . S
C280 N283 1.341 . S
C281 C279 1.400 . S
C281 C280 1.387 . S
N282 Co273 2.022 1_556 S
N282 C279 1.351 . S
N282 N283 1.365 . S
N283 C280 1.341 . S
N283 N282 1.365 . S
N283 H303 0.862 . S
C284 C279 1.501 . S
C284 H285 0.961 . S
C284 H286 0.961 . S
C284 H287 0.960 . S
H285 C284 0.961 . S
H286 C284 0.961 . S
H287 C284 0.960 . S
C288 N289 1.342 . S
C288 C292 1.401 . S
C288 C293 1.499 . S
N289 Co272 1.989 1_655 S
N289 C288 1.342 . S
N289 N290 1.388 . S
N290 Co273 1.993 1_655 S
N290 N289 1.388 . S
N290 C291 1.346 . S
C291 N290 1.346 . S
C291 C292 1.396 . S
C291 C301 1.510 1_554 S
C292 C288 1.401 . S
C292 C291 1.396 . S
C293 C288 1.499 . S
C293 H294 0.959 . S
C293 H295 0.960 . S
C293 H296 0.961 . S
H294 C293 0.959 . S
H295 C293 0.960 . S
H296 C293 0.961 . S
O297 Co272 1.967 . S
O297 C305 1.258 . S
O298 Co273 1.941 . S
O298 C305 1.266 . S
H299 C301 0.959 . S
H300 C301 0.961 . S
C301 C291 1.510 1_556 S
C301 H299 0.959 . S
C301 H300 0.961 . S
C301 H302 0.960 . S
H302 C301 0.960 . S
H303 N283 0.862 . S
O304 Co272 1.920 . S
O304 C277 1.289 . S
C305 O297 1.258 . S
C305 O298 1.266 . S
Co306 O309 1.970 . S
Co306 N323 1.989 . S
Co306 O331 1.967 . S
Co306 O338 1.920 . S
Co307 O310 1.966 . S
Co307 N316 2.022 . S
Co307 N324 1.993 . S
Co307 O332 1.941 . S
C308 O309 1.258 . S
C308 O310 1.263 . S
O309 Co306 1.970 . S
O309 C308 1.258 . S
O310 Co307 1.966 . S
O310 C308 1.263 . S
C311 O312 1.235 . S
C311 O338 1.289 . S
O312 C311 1.235 . S
C313 C315 1.400 . S
C313 N316 1.351 . S
C313 C318 1.501 . S
C314 C315 1.387 . S
C314 N317 1.341 . S
C315 C313 1.400 . S
C315 C314 1.387 . S
N316 Co307 2.022 . S
N316 C313 1.351 . S
N316 N317 1.365 . S
N317 C314 1.341 . S
N317 N316 1.365 . S
N317 H337 0.862 . S
C318 C313 1.501 . S
C318 H319 0.961 . S
C318 H320 0.961 . S
C318 H321 0.960 . S
H319 C318 0.961 . S
H320 C318 0.961 . S
H321 C318 0.960 . S
C322 N323 1.342 . S
C322 C326 1.401 . S
C322 C327 1.499 . S
N323 Co306 1.989 . S
N323 C322 1.342 . S
N323 N324 1.388 . S
N324 Co307 1.993 . S
N324 N323 1.388 . S
N324 C325 1.346 . S
C325 N324 1.346 . S
C325 C326 1.396 . S
C325 C335 1.510 . S
C326 C322 1.401 . S
C326 C325 1.396 . S
C327 C322 1.499 . S
C327 H328 0.959 . S
C327 H329 0.960 . S
C327 H330 0.961 . S
H328 C327 0.959 . S
H329 C327 0.960 . S
H330 C327 0.961 . S
O331 Co306 1.967 . S
O331 C339 1.258 . S
O332 Co307 1.941 . S
O332 C339 1.266 . S
H333 C335 0.959 . S
H334 C335 0.961 . S
C335 C325 1.510 . S
C335 H333 0.959 . S
C335 H334 0.961 . S
C335 H336 0.960 . S
H336 C335 0.960 . S
H337 N317 0.862 . S
O338 Co306 1.920 . S
O338 C311 1.289 . S
C339 O331 1.258 . S
C339 O332 1.266 . S
Co340 O343 1.970 . S
Co340 N357 1.989 1_545 S
Co340 O365 1.967 . S
Co340 O372 1.920 . S
Co341 O344 1.966 . S
Co341 N350 2.022 . S
Co341 N358 1.993 1_545 S
Co341 O366 1.941 . S
C342 O343 1.258 . S
C342 O344 1.263 . S
O343 Co340 1.970 . S
O343 C342 1.258 . S
O344 Co341 1.966 . S
O344 C342 1.263 . S
C345 O346 1.235 1_545 S
C345 O372 1.289 . S
O346 C345 1.235 1_565 S
C347 C349 1.400 . S
C347 N350 1.351 . S
C347 C352 1.501 . S
C348 C349 1.387 . S
C348 N351 1.341 . S
C349 C347 1.400 . S
C349 C348 1.387 . S
N350 Co341 2.022 . S
N350 C347 1.351 . S
N350 N351 1.365 . S
N351 C348 1.341 . S
N351 N350 1.365 . S
N351 H371 0.862 . S
C352 C347 1.501 . S
C352 H353 0.961 . S
C352 H354 0.961 . S
C352 H355 0.960 . S
H353 C352 0.961 . S
H354 C352 0.961 . S
H355 C352 0.960 . S
C356 N357 1.342 . S
C356 C360 1.401 . S
C356 C361 1.499 . S
N357 Co340 1.989 1_565 S
N357 C356 1.342 . S
N357 N358 1.388 . S
N358 Co341 1.993 1_565 S
N358 N357 1.388 . S
N358 C359 1.346 . S
C359 N358 1.346 . S
C359 C360 1.396 . S
C359 C369 1.510 . S
C360 C356 1.401 . S
C360 C359 1.396 . S
C361 C356 1.499 . S
C361 H362 0.959 . S
C361 H363 0.960 . S
C361 H364 0.961 . S
H362 C361 0.959 . S
H363 C361 0.960 . S
H364 C361 0.961 . S
O365 Co340 1.967 . S
O365 C373 1.258 . S
O366 Co341 1.941 . S
O366 C373 1.266 . S
H367 C369 0.959 . S
H368 C369 0.961 . S
C369 C359 1.510 . S
C369 H367 0.959 . S
C369 H368 0.961 . S
C369 H370 0.960 . S
H370 C369 0.960 . S
H371 N351 0.862 . S
O372 Co340 1.920 . S
O372 C345 1.289 . S
C373 O365 1.258 . S
C373 O366 1.266 . S
Co374 O377 1.970 . S
Co374 N391 1.989 1_655 S
Co374 O399 1.967 . S
Co374 O406 1.920 . S
Co375 O378 1.966 . S
Co375 N384 2.022 . S
Co375 N392 1.993 1_655 S
Co375 O400 1.941 . S
C376 O377 1.258 . S
C376 O378 1.263 . S
O377 Co374 1.970 . S
O377 C376 1.258 . S
O378 Co375 1.966 . S
O378 C376 1.263 . S
C379 O380 1.235 1_655 S
C379 O406 1.289 . S
O380 C379 1.235 1_455 S
C381 C383 1.400 . S
C381 N384 1.351 . S
C381 C386 1.501 . S
C382 C383 1.387 . S
C382 N385 1.341 . S
C383 C381 1.400 . S
C383 C382 1.387 . S
N384 Co375 2.022 . S
N384 C381 1.351 . S
N384 N385 1.365 . S
N385 C382 1.341 . S
N385 N384 1.365 . S
N385 H405 0.862 . S
C386 C381 1.501 . S
C386 H387 0.961 . S
C386 H388 0.961 . S
C386 H389 0.960 . S
H387 C386 0.961 . S
H388 C386 0.961 . S
H389 C386 0.960 . S
C390 N391 1.342 . S
C390 C394 1.401 . S
C390 C395 1.499 . S
N391 Co374 1.989 1_455 S
N391 C390 1.342 . S
N391 N392 1.388 . S
N392 Co375 1.993 1_455 S
N392 N391 1.388 . S
N392 C393 1.346 . S
C393 N392 1.346 . S
C393 C394 1.396 . S
C393 C403 1.510 . S
C394 C390 1.401 . S
C394 C393 1.396 . S
C395 C390 1.499 . S
C395 H396 0.959 . S
C395 H397 0.960 . S
C395 H398 0.961 . S
H396 C395 0.959 . S
H397 C395 0.960 . S
H398 C395 0.961 . S
O399 Co374 1.967 . S
O399 C407 1.258 . S
O400 Co375 1.941 . S
O400 C407 1.266 . S
H401 C403 0.959 . S
H402 C403 0.961 . S
C403 C393 1.510 . S
C403 H401 0.959 . S
C403 H402 0.961 . S
C403 H404 0.960 . S
H404 C403 0.960 . S
H405 N385 0.862 . S
O406 Co374 1.920 . S
O406 C379 1.289 . S
C407 O399 1.258 . S
C407 O400 1.266 . S
Co408 O411 1.970 . S
Co408 N425 1.989 . S
Co408 O433 1.967 . S
Co408 O440 1.920 . S
Co409 O412 1.966 . S
Co409 N418 2.022 . S
Co409 N426 1.993 . S
Co409 O434 1.941 . S
C410 O411 1.258 . S
C410 O412 1.263 . S
O411 Co408 1.970 . S
O411 C410 1.258 . S
O412 Co409 1.966 . S
O412 C410 1.263 . S
C413 O414 1.235 . S
C413 O440 1.289 . S
O414 C413 1.235 . S
C415 C417 1.400 . S
C415 N418 1.351 . S
C415 C420 1.501 . S
C416 C417 1.387 . S
C416 N419 1.341 . S
C417 C415 1.400 . S
C417 C416 1.387 . S
N418 Co409 2.022 . S
N418 C415 1.351 . S
N418 N419 1.365 . S
N419 C416 1.341 . S
N419 N418 1.365 . S
N419 H439 0.862 . S
C420 C415 1.501 . S
C420 H421 0.961 . S
C420 H422 0.961 . S
C420 H423 0.960 . S
H421 C420 0.961 . S
H422 C420 0.961 . S
H423 C420 0.960 . S
C424 N425 1.342 . S
C424 C428 1.401 . S
C424 C429 1.499 . S
N425 Co408 1.989 . S
N425 C424 1.342 . S
N425 N426 1.388 . S
N426 Co409 1.993 . S
N426 N425 1.388 . S
N426 C427 1.346 . S
C427 N426 1.346 . S
C427 C428 1.396 . S
C427 C437 1.510 . S
C428 C424 1.401 . S
C428 C427 1.396 . S
C429 C424 1.499 . S
C429 H430 0.959 . S
C429 H431 0.960 . S
C429 H432 0.961 . S
H430 C429 0.959 . S
H431 C429 0.960 . S
H432 C429 0.961 . S
O433 Co408 1.967 . S
O433 C441 1.258 . S
O434 Co409 1.941 . S
O434 C441 1.266 . S
H435 C437 0.959 . S
H436 C437 0.961 . S
C437 C427 1.510 . S
C437 H435 0.959 . S
C437 H436 0.961 . S
C437 H438 0.960 . S
H438 C437 0.960 . S
H439 N419 0.862 . S
O440 Co408 1.920 . S
O440 C413 1.289 . S
C441 O433 1.258 . S
C441 O434 1.266 . S
Co442 O445 1.970 . S
Co442 N459 1.989 . S
Co442 O467 1.967 . S
Co442 O474 1.920 . S
Co443 O446 1.966 . S
Co443 N452 2.022 . S
Co443 N460 1.993 . S
Co443 O468 1.941 . S
C444 O445 1.258 . S
C444 O446 1.263 . S
O445 Co442 1.970 . S
O445 C444 1.258 . S
O446 Co443 1.966 . S
O446 C444 1.263 . S
C447 O448 1.235 . S
C447 O474 1.289 . S
O448 C447 1.235 . S
C449 C451 1.400 . S
C449 N452 1.351 . S
C449 C454 1.501 . S
C450 C451 1.387 . S
C450 N453 1.341 . S
C451 C449 1.400 . S
C451 C450 1.387 . S
N452 Co443 2.022 . S
N452 C449 1.351 . S
N452 N453 1.365 . S
N453 C450 1.341 . S
N453 N452 1.365 . S
N453 H473 0.862 . S
C454 C449 1.501 . S
C454 H455 0.961 . S
C454 H456 0.961 . S
C454 H457 0.960 . S
H455 C454 0.961 . S
H456 C454 0.961 . S
H457 C454 0.960 . S
C458 N459 1.342 . S
C458 C462 1.401 . S
C458 C463 1.499 . S
N459 Co442 1.989 . S
N459 C458 1.342 . S
N459 N460 1.388 . S
N460 Co443 1.993 . S
N460 N459 1.388 . S
N460 C461 1.346 . S
C461 N460 1.346 . S
C461 C462 1.396 . S
C461 C471 1.510 . S
C462 C458 1.401 . S
C462 C461 1.396 . S
C463 C458 1.499 . S
C463 H464 0.959 . S
C463 H465 0.960 . S
C463 H466 0.961 . S
H464 C463 0.959 . S
H465 C463 0.960 . S
H466 C463 0.961 . S
O467 Co442 1.967 . S
O467 C475 1.258 . S
O468 Co443 1.941 . S
O468 C475 1.266 . S
H469 C471 0.959 . S
H470 C471 0.961 . S
C471 C461 1.510 . S
C471 H469 0.959 . S
C471 H470 0.961 . S
C471 H472 0.960 . S
H472 C471 0.960 . S
H473 N453 0.862 . S
O474 Co442 1.920 . S
O474 C447 1.289 . S
C475 O467 1.258 . S
C475 O468 1.266 . S
Co476 O479 1.970 . S
Co476 N493 1.989 . S
Co476 O501 1.967 . S
Co476 O508 1.920 . S
Co477 O480 1.966 . S
Co477 N486 2.022 . S
Co477 N494 1.993 . S
Co477 O502 1.941 . S
C478 O479 1.258 . S
C478 O480 1.263 . S
O479 Co476 1.970 . S
O479 C478 1.258 . S
O480 Co477 1.966 . S
O480 C478 1.263 . S
C481 O482 1.235 . S
C481 O508 1.289 . S
O482 C481 1.235 . S
C483 C485 1.400 . S
C483 N486 1.351 . S
C483 C488 1.501 . S
C484 C485 1.387 . S
C484 N487 1.341 . S
C485 C483 1.400 . S
C485 C484 1.387 . S
N486 Co477 2.022 . S
N486 C483 1.351 . S
N486 N487 1.365 . S
N487 C484 1.341 . S
N487 N486 1.365 . S
N487 H507 0.862 . S
C488 C483 1.501 . S
C488 H489 0.961 . S
C488 H490 0.961 . S
C488 H491 0.960 . S
H489 C488 0.961 . S
H490 C488 0.961 . S
H491 C488 0.960 . S
C492 N493 1.342 . S
C492 C496 1.401 . S
C492 C497 1.499 . S
N493 Co476 1.989 . S
N493 C492 1.342 . S
N493 N494 1.388 . S
N494 Co477 1.993 . S
N494 N493 1.388 . S
N494 C495 1.346 . S
C495 N494 1.346 . S
C495 C496 1.396 . S
C495 C505 1.510 . S
C496 C492 1.401 . S
C496 C495 1.396 . S
C497 C492 1.499 . S
C497 H498 0.959 . S
C497 H499 0.960 . S
C497 H500 0.961 . S
H498 C497 0.959 . S
H499 C497 0.960 . S
H500 C497 0.961 . S
O501 Co476 1.967 . S
O501 C509 1.258 . S
O502 Co477 1.941 . S
O502 C509 1.266 . S
H503 C505 0.959 . S
H504 C505 0.961 . S
C505 C495 1.510 . S
C505 H503 0.959 . S
C505 H504 0.961 . S
C505 H506 0.960 . S
H506 C505 0.960 . S
H507 N487 0.862 . S
O508 Co476 1.920 . S
O508 C481 1.289 . S
C509 O501 1.258 . S
C509 O502 1.266 . S
Co510 O513 1.970 . S
Co510 N527 1.989 . S
Co510 O535 1.967 . S
Co510 O542 1.920 . S
Co511 O514 1.966 . S
Co511 N520 2.022 . S
Co511 N528 1.993 . S
Co511 O536 1.941 . S
C512 O513 1.258 . S
C512 O514 1.263 . S
O513 Co510 1.970 . S
O513 C512 1.258 . S
O514 Co511 1.966 . S
O514 C512 1.263 . S
C515 O516 1.235 . S
C515 O542 1.289 . S
O516 C515 1.235 . S
C517 C519 1.400 . S
C517 N520 1.351 . S
C517 C522 1.501 . S
C518 C519 1.387 . S
C518 N521 1.341 . S
C519 C517 1.400 . S
C519 C518 1.387 . S
N520 Co511 2.022 . S
N520 C517 1.351 . S
N520 N521 1.365 . S
N521 C518 1.341 . S
N521 N520 1.365 . S
N521 H541 0.862 . S
C522 C517 1.501 . S
C522 H523 0.961 . S
C522 H524 0.961 . S
C522 H525 0.960 . S
H523 C522 0.961 . S
H524 C522 0.961 . S
H525 C522 0.960 . S
C526 N527 1.342 . S
C526 C530 1.401 . S
C526 C531 1.499 . S
N527 Co510 1.989 . S
N527 C526 1.342 . S
N527 N528 1.388 . S
N528 Co511 1.993 . S
N528 N527 1.388 . S
N528 C529 1.346 . S
C529 N528 1.346 . S
C529 C530 1.396 . S
C529 C539 1.510 . S
C530 C526 1.401 . S
C530 C529 1.396 . S
C531 C526 1.499 . S
C531 H532 0.959 . S
C531 H533 0.960 . S
C531 H534 0.961 . S
H532 C531 0.959 . S
H533 C531 0.960 . S
H534 C531 0.961 . S
O535 Co510 1.967 . S
O535 C543 1.258 . S
O536 Co511 1.941 . S
O536 C543 1.266 . S
H537 C539 0.959 . S
H538 C539 0.961 . S
C539 C529 1.510 . S
C539 H537 0.959 . S
C539 H538 0.961 . S
C539 H540 0.960 . S
H540 C539 0.960 . S
H541 N521 0.862 . S
O542 Co510 1.920 . S
O542 C515 1.289 . S
C543 O535 1.258 . S
C543 O536 1.266 . S
Co544 O547 1.970 . S
Co544 N561 1.989 . S
Co544 O569 1.967 . S
Co544 O576 1.920 . S
Co545 O548 1.966 . S
Co545 N554 2.022 . S
Co545 N562 1.993 . S
Co545 O570 1.941 . S
C546 O547 1.258 . S
C546 O548 1.263 . S
O547 Co544 1.970 . S
O547 C546 1.258 . S
O548 Co545 1.966 . S
O548 C546 1.263 . S
C549 O550 1.235 . S
C549 O576 1.289 . S
O550 C549 1.235 . S
C551 C553 1.400 . S
C551 N554 1.351 . S
C551 C556 1.501 . S
C552 C553 1.387 . S
C552 N555 1.341 . S
C553 C551 1.400 . S
C553 C552 1.387 . S
N554 Co545 2.022 . S
N554 C551 1.351 . S
N554 N555 1.365 . S
N555 C552 1.341 . S
N555 N554 1.365 . S
N555 H575 0.862 . S
C556 C551 1.501 . S
C556 H557 0.961 . S
C556 H558 0.961 . S
C556 H559 0.960 . S
H557 C556 0.961 . S
H558 C556 0.961 . S
H559 C556 0.960 . S
C560 N561 1.342 . S
C560 C564 1.401 . S
C560 C565 1.499 . S
N561 Co544 1.989 . S
N561 C560 1.342 . S
N561 N562 1.388 . S
N562 Co545 1.993 . S
N562 N561 1.388 . S
N562 C563 1.346 . S
C563 N562 1.346 . S
C563 C564 1.396 . S
C563 C573 1.510 . S
C564 C560 1.401 . S
C564 C563 1.396 . S
C565 C560 1.499 . S
C565 H566 0.959 . S
C565 H567 0.960 . S
C565 H568 0.961 . S
H566 C565 0.959 . S
H567 C565 0.960 . S
H568 C565 0.961 . S
O569 Co544 1.967 . S
O569 C577 1.258 . S
O570 Co545 1.941 . S
O570 C577 1.266 . S
H571 C573 0.959 . S
H572 C573 0.961 . S
C573 C563 1.510 . S
C573 H571 0.959 . S
C573 H572 0.961 . S
C573 H574 0.960 . S
H574 C573 0.960 . S
H575 N555 0.862 . S
O576 Co544 1.920 . S
O576 C549 1.289 . S
C577 O569 1.258 . S
C577 O570 1.266 . S
Co578 O581 1.970 . S
Co578 N595 1.989 . S
Co578 O603 1.967 . S
Co578 O610 1.920 . S
Co579 O582 1.966 . S
Co579 N588 2.022 . S
Co579 N596 1.993 . S
Co579 O604 1.941 . S
C580 O581 1.258 . S
C580 O582 1.263 . S
O581 Co578 1.970 . S
O581 C580 1.258 . S
O582 Co579 1.966 . S
O582 C580 1.263 . S
C583 O584 1.235 . S
C583 O610 1.289 . S
O584 C583 1.235 . S
C585 C587 1.400 . S
C585 N588 1.351 . S
C585 C590 1.501 . S
C586 C587 1.387 . S
C586 N589 1.341 . S
C587 C585 1.400 . S
C587 C586 1.387 . S
N588 Co579 2.022 . S
N588 C585 1.351 . S
N588 N589 1.365 . S
N589 C586 1.341 . S
N589 N588 1.365 . S
N589 H609 0.862 . S
C590 C585 1.501 . S
C590 H591 0.961 . S
C590 H592 0.961 . S
C590 H593 0.960 . S
H591 C590 0.961 . S
H592 C590 0.961 . S
H593 C590 0.960 . S
C594 N595 1.342 . S
C594 C598 1.401 . S
C594 C599 1.499 . S
N595 Co578 1.989 . S
N595 C594 1.342 . S
N595 N596 1.388 . S
N596 Co579 1.993 . S
N596 N595 1.388 . S
N596 C597 1.346 . S
C597 N596 1.346 . S
C597 C598 1.396 . S
C597 C607 1.510 . S
C598 C594 1.401 . S
C598 C597 1.396 . S
C599 C594 1.499 . S
C599 H600 0.959 . S
C599 H601 0.960 . S
C599 H602 0.961 . S
H600 C599 0.959 . S
H601 C599 0.960 . S
H602 C599 0.961 . S
O603 Co578 1.967 . S
O603 C611 1.258 . S
O604 Co579 1.941 . S
O604 C611 1.266 . S
H605 C607 0.959 . S
H606 C607 0.961 . S
C607 C597 1.510 . S
C607 H605 0.959 . S
C607 H606 0.961 . S
C607 H608 0.960 . S
H608 C607 0.960 . S
H609 N589 0.862 . S
O610 Co578 1.920 . S
O610 C583 1.289 . S
C611 O603 1.258 . S
C611 O604 1.266 . S
Co612 O615 1.970 . S
Co612 N629 1.989 . S
Co612 O637 1.967 . S
Co612 O644 1.920 . S
Co613 O616 1.966 . S
Co613 N622 2.022 . S
Co613 N630 1.993 . S
Co613 O638 1.941 . S
C614 O615 1.258 . S
C614 O616 1.263 . S
O615 Co612 1.970 . S
O615 C614 1.258 . S
O616 Co613 1.966 . S
O616 C614 1.263 . S
C617 O618 1.235 . S
C617 O644 1.289 . S
O618 C617 1.235 . S
C619 C621 1.400 . S
C619 N622 1.351 . S
C619 C624 1.501 . S
C620 C621 1.387 . S
C620 N623 1.341 . S
C621 C619 1.400 . S
C621 C620 1.387 . S
N622 Co613 2.022 . S
N622 C619 1.351 . S
N622 N623 1.365 . S
N623 C620 1.341 . S
N623 N622 1.365 . S
N623 H643 0.862 . S
C624 C619 1.501 . S
C624 H625 0.961 . S
C624 H626 0.961 . S
C624 H627 0.960 . S
H625 C624 0.961 . S
H626 C624 0.961 . S
H627 C624 0.960 . S
C628 N629 1.342 . S
C628 C632 1.401 . S
C628 C633 1.499 . S
N629 Co612 1.989 . S
N629 C628 1.342 . S
N629 N630 1.388 . S
N630 Co613 1.993 . S
N630 N629 1.388 . S
N630 C631 1.346 . S
C631 N630 1.346 . S
C631 C632 1.396 . S
C631 C641 1.510 . S
C632 C628 1.401 . S
C632 C631 1.396 . S
C633 C628 1.499 . S
C633 H634 0.959 . S
C633 H635 0.960 . S
C633 H636 0.961 . S
H634 C633 0.959 . S
H635 C633 0.960 . S
H636 C633 0.961 . S
O637 Co612 1.967 . S
O637 C645 1.258 . S
O638 Co613 1.941 . S
O638 C645 1.266 . S
H639 C641 0.959 . S
H640 C641 0.961 . S
C641 C631 1.510 . S
C641 H639 0.959 . S
C641 H640 0.961 . S
C641 H642 0.960 . S
H642 C641 0.960 . S
H643 N623 0.862 . S
O644 Co612 1.920 . S
O644 C617 1.289 . S
C645 O637 1.258 . S
C645 O638 1.266 . S
Co646 O649 1.970 . S
Co646 N663 1.989 . S
Co646 O671 1.967 . S
Co646 O678 1.920 . S
Co647 O650 1.966 . S
Co647 N656 2.022 . S
Co647 N664 1.993 . S
Co647 O672 1.941 . S
C648 O649 1.258 . S
C648 O650 1.263 . S
O649 Co646 1.970 . S
O649 C648 1.258 . S
O650 Co647 1.966 . S
O650 C648 1.263 . S
C651 O652 1.235 . S
C651 O678 1.289 . S
O652 C651 1.235 . S
C653 C655 1.400 . S
C653 N656 1.351 . S
C653 C658 1.501 . S
C654 C655 1.387 . S
C654 N657 1.341 . S
C655 C653 1.400 . S
C655 C654 1.387 . S
N656 Co647 2.022 . S
N656 C653 1.351 . S
N656 N657 1.365 . S
N657 C654 1.341 . S
N657 N656 1.365 . S
N657 H677 0.862 . S
C658 C653 1.501 . S
C658 H659 0.961 . S
C658 H660 0.961 . S
C658 H661 0.960 . S
H659 C658 0.961 . S
H660 C658 0.961 . S
H661 C658 0.960 . S
C662 N663 1.342 . S
C662 C666 1.401 . S
C662 C667 1.499 . S
N663 Co646 1.989 . S
N663 C662 1.342 . S
N663 N664 1.388 . S
N664 Co647 1.993 . S
N664 N663 1.388 . S
N664 C665 1.346 . S
C665 N664 1.346 . S
C665 C666 1.396 . S
C665 C675 1.510 . S
C666 C662 1.401 . S
C666 C665 1.396 . S
C667 C662 1.499 . S
C667 H668 0.959 . S
C667 H669 0.960 . S
C667 H670 0.961 . S
H668 C667 0.959 . S
H669 C667 0.960 . S
H670 C667 0.961 . S
O671 Co646 1.967 . S
O671 C679 1.258 . S
O672 Co647 1.941 . S
O672 C679 1.266 . S
H673 C675 0.959 . S
H674 C675 0.961 . S
C675 C665 1.510 . S
C675 H673 0.959 . S
C675 H674 0.961 . S
C675 H676 0.960 . S
H676 C675 0.960 . S
H677 N657 0.862 . S
O678 Co646 1.920 . S
O678 C651 1.289 . S
C679 O671 1.258 . S
C679 O672 1.266 . S
Co680 O683 1.970 . S
Co680 N697 1.989 . S
Co680 O705 1.967 . S
Co680 O712 1.920 . S
Co681 O684 1.966 . S
Co681 N690 2.022 . S
Co681 N698 1.993 . S
Co681 O706 1.941 . S
C682 O683 1.258 . S
C682 O684 1.263 . S
O683 Co680 1.970 . S
O683 C682 1.258 . S
O684 Co681 1.966 . S
O684 C682 1.263 . S
C685 O686 1.235 . S
C685 O712 1.289 . S
O686 C685 1.235 . S
C687 C689 1.400 . S
C687 N690 1.351 . S
C687 C692 1.501 . S
C688 C689 1.387 . S
C688 N691 1.341 . S
C689 C687 1.400 . S
C689 C688 1.387 . S
N690 Co681 2.022 . S
N690 C687 1.351 . S
N690 N691 1.365 . S
N691 C688 1.341 . S
N691 N690 1.365 . S
N691 H711 0.862 . S
C692 C687 1.501 . S
C692 H693 0.961 . S
C692 H694 0.961 . S
C692 H695 0.960 . S
H693 C692 0.961 . S
H694 C692 0.961 . S
H695 C692 0.960 . S
C696 N697 1.342 . S
C696 C700 1.401 . S
C696 C701 1.499 . S
N697 Co680 1.989 . S
N697 C696 1.342 . S
N697 N698 1.388 . S
N698 Co681 1.993 . S
N698 N697 1.388 . S
N698 C699 1.346 . S
C699 N698 1.346 . S
C699 C700 1.396 . S
C699 C709 1.510 . S
C700 C696 1.401 . S
C700 C699 1.396 . S
C701 C696 1.499 . S
C701 H702 0.959 . S
C701 H703 0.960 . S
C701 H704 0.961 . S
H702 C701 0.959 . S
H703 C701 0.960 . S
H704 C701 0.961 . S
O705 Co680 1.967 . S
O705 C713 1.258 . S
O706 Co681 1.941 . S
O706 C713 1.266 . S
H707 C709 0.959 . S
H708 C709 0.961 . S
C709 C699 1.510 . S
C709 H707 0.959 . S
C709 H708 0.961 . S
C709 H710 0.960 . S
H710 C709 0.960 . S
H711 N691 0.862 . S
O712 Co680 1.920 . S
O712 C685 1.289 . S
C713 O705 1.258 . S
C713 O706 1.266 . S
Co714 O717 1.970 . S
Co714 N731 1.989 . S
Co714 O739 1.967 . S
Co714 O746 1.920 . S
Co715 O718 1.966 . S
Co715 N724 2.022 . S
Co715 N732 1.993 . S
Co715 O740 1.941 . S
C716 O717 1.258 . S
C716 O718 1.263 . S
O717 Co714 1.970 . S
O717 C716 1.258 . S
O718 Co715 1.966 . S
O718 C716 1.263 . S
C719 O720 1.235 . S
C719 O746 1.289 . S
O720 C719 1.235 . S
C721 C723 1.400 . S
C721 N724 1.351 . S
C721 C726 1.501 . S
C722 C723 1.387 . S
C722 N725 1.341 . S
C723 C721 1.400 . S
C723 C722 1.387 . S
N724 Co715 2.022 . S
N724 C721 1.351 . S
N724 N725 1.365 . S
N725 C722 1.341 . S
N725 N724 1.365 . S
N725 H745 0.862 . S
C726 C721 1.501 . S
C726 H727 0.961 . S
C726 H728 0.961 . S
C726 H729 0.960 . S
H727 C726 0.961 . S
H728 C726 0.961 . S
H729 C726 0.960 . S
C730 N731 1.342 . S
C730 C734 1.401 . S
C730 C735 1.499 . S
N731 Co714 1.989 . S
N731 C730 1.342 . S
N731 N732 1.388 . S
N732 Co715 1.993 . S
N732 N731 1.388 . S
N732 C733 1.346 . S
C733 N732 1.346 . S
C733 C734 1.396 . S
C733 C743 1.510 . S
C734 C730 1.401 . S
C734 C733 1.396 . S
C735 C730 1.499 . S
C735 H736 0.959 . S
C735 H737 0.960 . S
C735 H738 0.961 . S
H736 C735 0.959 . S
H737 C735 0.960 . S
H738 C735 0.961 . S
O739 Co714 1.967 . S
O739 C747 1.258 . S
O740 Co715 1.941 . S
O740 C747 1.266 . S
H741 C743 0.959 . S
H742 C743 0.961 . S
C743 C733 1.510 . S
C743 H741 0.959 . S
C743 H742 0.961 . S
C743 H744 0.960 . S
H744 C743 0.960 . S
H745 N725 0.862 . S
O746 Co714 1.920 . S
O746 C719 1.289 . S
C747 O739 1.258 . S
C747 O740 1.266 . S
Co748 O751 1.970 . S
Co748 N765 1.989 . S
Co748 O773 1.967 . S
Co748 O780 1.920 . S
Co749 O752 1.966 . S
Co749 N758 2.022 . S
Co749 N766 1.993 . S
Co749 O774 1.941 . S
C750 O751 1.258 . S
C750 O752 1.263 . S
O751 Co748 1.970 . S
O751 C750 1.258 . S
O752 Co749 1.966 . S
O752 C750 1.263 . S
C753 O754 1.235 . S
C753 O780 1.289 . S
O754 C753 1.235 . S
C755 C757 1.400 . S
C755 N758 1.351 . S
C755 C760 1.501 . S
C756 C757 1.387 . S
C756 N759 1.341 . S
C757 C755 1.400 . S
C757 C756 1.387 . S
N758 Co749 2.022 . S
N758 C755 1.351 . S
N758 N759 1.365 . S
N759 C756 1.341 . S
N759 N758 1.365 . S
N759 H779 0.862 . S
C760 C755 1.501 . S
C760 H761 0.961 . S
C760 H762 0.961 . S
C760 H763 0.960 . S
H761 C760 0.961 . S
H762 C760 0.961 . S
H763 C760 0.960 . S
C764 N765 1.342 . S
C764 C768 1.401 . S
C764 C769 1.499 . S
N765 Co748 1.989 . S
N765 C764 1.342 . S
N765 N766 1.388 . S
N766 Co749 1.993 . S
N766 N765 1.388 . S
N766 C767 1.346 . S
C767 N766 1.346 . S
C767 C768 1.396 . S
C767 C777 1.510 . S
C768 C764 1.401 . S
C768 C767 1.396 . S
C769 C764 1.499 . S
C769 H770 0.959 . S
C769 H771 0.960 . S
C769 H772 0.961 . S
H770 C769 0.959 . S
H771 C769 0.960 . S
H772 C769 0.961 . S
O773 Co748 1.967 . S
O773 C781 1.258 . S
O774 Co749 1.941 . S
O774 C781 1.266 . S
H775 C777 0.959 . S
H776 C777 0.961 . S
C777 C767 1.510 . S
C777 H775 0.959 . S
C777 H776 0.961 . S
C777 H778 0.960 . S
H778 C777 0.960 . S
H779 N759 0.862 . S
O780 Co748 1.920 . S
O780 C753 1.289 . S
C781 O773 1.258 . S
C781 O774 1.266 . S
Co782 O785 1.970 . S
Co782 N799 1.989 . S
Co782 O807 1.967 . S
Co782 O814 1.920 . S
Co783 O786 1.966 . S
Co783 N792 2.022 . S
Co783 N800 1.993 . S
Co783 O808 1.941 . S
C784 O785 1.258 . S
C784 O786 1.263 . S
O785 Co782 1.970 . S
O785 C784 1.258 . S
O786 Co783 1.966 . S
O786 C784 1.263 . S
C787 O788 1.235 . S
C787 O814 1.289 . S
O788 C787 1.235 . S
C789 C791 1.400 . S
C789 N792 1.351 . S
C789 C794 1.501 . S
C790 C791 1.387 . S
C790 N793 1.341 . S
C791 C789 1.400 . S
C791 C790 1.387 . S
N792 Co783 2.022 . S
N792 C789 1.351 . S
N792 N793 1.365 . S
N793 C790 1.341 . S
N793 N792 1.365 . S
N793 H813 0.862 . S
C794 C789 1.501 . S
C794 H795 0.961 . S
C794 H796 0.961 . S
C794 H797 0.960 . S
H795 C794 0.961 . S
H796 C794 0.961 . S
H797 C794 0.960 . S
C798 N799 1.342 . S
C798 C802 1.401 . S
C798 C803 1.499 . S
N799 Co782 1.989 . S
N799 C798 1.342 . S
N799 N800 1.388 . S
N800 Co783 1.993 . S
N800 N799 1.388 . S
N800 C801 1.346 . S
C801 N800 1.346 . S
C801 C802 1.396 . S
C801 C811 1.510 . S
C802 C798 1.401 . S
C802 C801 1.396 . S
C803 C798 1.499 . S
C803 H804 0.959 . S
C803 H805 0.960 . S
C803 H806 0.961 . S
H804 C803 0.959 . S
H805 C803 0.960 . S
H806 C803 0.961 . S
O807 Co782 1.967 . S
O807 C815 1.258 . S
O808 Co783 1.941 . S
O808 C815 1.266 . S
H809 C811 0.959 . S
H810 C811 0.961 . S
C811 C801 1.510 . S
C811 H809 0.959 . S
C811 H810 0.961 . S
C811 H812 0.960 . S
H812 C811 0.960 . S
H813 N793 0.862 . S
O814 Co782 1.920 . S
O814 C787 1.289 . S
C815 O807 1.258 . S
C815 O808 1.266 . S
Co816 O819 1.970 . S
Co816 N833 1.989 . S
Co816 O841 1.967 . S
Co816 O848 1.920 . S
Co817 O820 1.966 . S
Co817 N826 2.022 . S
Co817 N834 1.993 . S
Co817 O842 1.941 . S
C818 O819 1.258 . S
C818 O820 1.263 . S
O819 Co816 1.970 . S
O819 C818 1.258 . S
O820 Co817 1.966 . S
O820 C818 1.263 . S
C821 O822 1.235 . S
C821 O848 1.289 . S
O822 C821 1.235 . S
C823 C825 1.400 . S
C823 N826 1.351 . S
C823 C828 1.501 . S
C824 C825 1.387 . S
C824 N827 1.341 . S
C825 C823 1.400 . S
C825 C824 1.387 . S
N826 Co817 2.022 . S
N826 C823 1.351 . S
N826 N827 1.365 . S
N827 C824 1.341 . S
N827 N826 1.365 . S
N827 H847 0.862 . S
C828 C823 1.501 . S
C828 H829 0.961 . S
C828 H830 0.961 . S
C828 H831 0.960 . S
H829 C828 0.961 . S
H830 C828 0.961 . S
H831 C828 0.960 . S
C832 N833 1.342 . S
C832 C836 1.401 . S
C832 C837 1.499 . S
N833 Co816 1.989 . S
N833 C832 1.342 . S
N833 N834 1.388 . S
N834 Co817 1.993 . S
N834 N833 1.388 . S
N834 C835 1.346 . S
C835 N834 1.346 . S
C835 C836 1.396 . S
C835 C845 1.510 . S
C836 C832 1.401 . S
C836 C835 1.396 . S
C837 C832 1.499 . S
C837 H838 0.959 . S
C837 H839 0.960 . S
C837 H840 0.961 . S
H838 C837 0.959 . S
H839 C837 0.960 . S
H840 C837 0.961 . S
O841 Co816 1.967 . S
O841 C849 1.258 . S
O842 Co817 1.941 . S
O842 C849 1.266 . S
H843 C845 0.959 . S
H844 C845 0.961 . S
C845 C835 1.510 . S
C845 H843 0.959 . S
C845 H844 0.961 . S
C845 H846 0.960 . S
H846 C845 0.960 . S
H847 N827 0.862 . S
O848 Co816 1.920 . S
O848 C821 1.289 . S
C849 O841 1.258 . S
C849 O842 1.266 . S
Co850 O853 1.970 . S
Co850 N867 1.989 . S
Co850 O875 1.967 . S
Co850 O882 1.920 . S
Co851 O854 1.966 . S
Co851 N860 2.022 . S
Co851 N868 1.993 . S
Co851 O876 1.941 . S
C852 O853 1.258 . S
C852 O854 1.263 . S
O853 Co850 1.970 . S
O853 C852 1.258 . S
O854 Co851 1.966 . S
O854 C852 1.263 . S
C855 O856 1.235 . S
C855 O882 1.289 . S
O856 C855 1.235 . S
C857 C859 1.400 . S
C857 N860 1.351 . S
C857 C862 1.501 . S
C858 C859 1.387 . S
C858 N861 1.341 . S
C859 C857 1.400 . S
C859 C858 1.387 . S
N860 Co851 2.022 . S
N860 C857 1.351 . S
N860 N861 1.365 . S
N861 C858 1.341 . S
N861 N860 1.365 . S
N861 H881 0.862 . S
C862 C857 1.501 . S
C862 H863 0.961 . S
C862 H864 0.961 . S
C862 H865 0.960 . S
H863 C862 0.961 . S
H864 C862 0.961 . S
H865 C862 0.960 . S
C866 N867 1.342 . S
C866 C870 1.401 . S
C866 C871 1.499 . S
N867 Co850 1.989 . S
N867 C866 1.342 . S
N867 N868 1.388 . S
N868 Co851 1.993 . S
N868 N867 1.388 . S
N868 C869 1.346 . S
C869 N868 1.346 . S
C869 C870 1.396 . S
C869 C879 1.510 . S
C870 C866 1.401 . S
C870 C869 1.396 . S
C871 C866 1.499 . S
C871 H872 0.959 . S
C871 H873 0.960 . S
C871 H874 0.961 . S
H872 C871 0.959 . S
H873 C871 0.960 . S
H874 C871 0.961 . S
O875 Co850 1.967 . S
O875 C883 1.258 . S
O876 Co851 1.941 . S
O876 C883 1.266 . S
H877 C879 0.959 . S
H878 C879 0.961 . S
C879 C869 1.510 . S
C879 H877 0.959 . S
C879 H878 0.961 . S
C879 H880 0.960 . S
H880 C879 0.960 . S
H881 N861 0.862 . S
O882 Co850 1.920 . S
O882 C855 1.289 . S
C883 O875 1.258 . S
C883 O876 1.266 . S
Co884 O887 1.970 . S
Co884 N901 1.989 . S
Co884 O909 1.967 . S
Co884 O916 1.920 . S
Co885 O888 1.966 . S
Co885 N894 2.022 . S
Co885 N902 1.993 . S
Co885 O910 1.941 . S
C886 O887 1.258 . S
C886 O888 1.263 . S
O887 Co884 1.970 . S
O887 C886 1.258 . S
O888 Co885 1.966 . S
O888 C886 1.263 . S
C889 O890 1.235 . S
C889 O916 1.289 . S
O890 C889 1.235 . S
C891 C893 1.400 . S
C891 N894 1.351 . S
C891 C896 1.501 . S
C892 C893 1.387 . S
C892 N895 1.341 . S
C893 C891 1.400 . S
C893 C892 1.387 . S
N894 Co885 2.022 . S
N894 C891 1.351 . S
N894 N895 1.365 . S
N895 C892 1.341 . S
N895 N894 1.365 . S
N895 H915 0.862 . S
C896 C891 1.501 . S
C896 H897 0.961 . S
C896 H898 0.961 . S
C896 H899 0.960 . S
H897 C896 0.961 . S
H898 C896 0.961 . S
H899 C896 0.960 . S
C900 N901 1.342 . S
C900 C904 1.401 . S
C900 C905 1.499 . S
N901 Co884 1.989 . S
N901 C900 1.342 . S
N901 N902 1.388 . S
N902 Co885 1.993 . S
N902 N901 1.388 . S
N902 C903 1.346 . S
C903 N902 1.346 . S
C903 C904 1.396 . S
C903 C913 1.510 . S
C904 C900 1.401 . S
C904 C903 1.396 . S
C905 C900 1.499 . S
C905 H906 0.959 . S
C905 H907 0.960 . S
C905 H908 0.961 . S
H906 C905 0.959 . S
H907 C905 0.960 . S
H908 C905 0.961 . S
O909 Co884 1.967 . S
O909 C917 1.258 . S
O910 Co885 1.941 . S
O910 C917 1.266 . S
H911 C913 0.959 . S
H912 C913 0.961 . S
C913 C903 1.510 . S
C913 H911 0.959 . S
C913 H912 0.961 . S
C913 H914 0.960 . S
H914 C913 0.960 . S
H915 N895 0.862 . S
O916 Co884 1.920 . S
O916 C889 1.289 . S
C917 O909 1.258 . S
C917 O910 1.266 . S
Co918 O921 1.970 . S
Co918 N935 1.989 . S
Co918 O943 1.967 . S
Co918 O950 1.920 . S
Co919 O922 1.966 . S
Co919 N928 2.022 . S
Co919 N936 1.993 . S
Co919 O944 1.941 . S
C920 O921 1.258 . S
C920 O922 1.263 . S
O921 Co918 1.970 . S
O921 C920 1.258 . S
O922 Co919 1.966 . S
O922 C920 1.263 . S
C923 O924 1.235 . S
C923 O950 1.289 . S
O924 C923 1.235 . S
C925 C927 1.400 . S
C925 N928 1.351 . S
C925 C930 1.501 . S
C926 C927 1.387 . S
C926 N929 1.341 . S
C927 C925 1.400 . S
C927 C926 1.387 . S
N928 Co919 2.022 . S
N928 C925 1.351 . S
N928 N929 1.365 . S
N929 C926 1.341 . S
N929 N928 1.365 . S
N929 H949 0.862 . S
C930 C925 1.501 . S
C930 H931 0.961 . S
C930 H932 0.961 . S
C930 H933 0.960 . S
H931 C930 0.961 . S
H932 C930 0.961 . S
H933 C930 0.960 . S
C934 N935 1.342 . S
C934 C938 1.401 . S
C934 C939 1.499 . S
N935 Co918 1.989 . S
N935 C934 1.342 . S
N935 N936 1.388 . S
N936 Co919 1.993 . S
N936 N935 1.388 . S
N936 C937 1.346 . S
C937 N936 1.346 . S
C937 C938 1.396 . S
C937 C947 1.510 . S
C938 C934 1.401 . S
C938 C937 1.396 . S
C939 C934 1.499 . S
C939 H940 0.959 . S
C939 H941 0.960 . S
C939 H942 0.961 . S
H940 C939 0.959 . S
H941 C939 0.960 . S
H942 C939 0.961 . S
O943 Co918 1.967 . S
O943 C951 1.258 . S
O944 Co919 1.941 . S
O944 C951 1.266 . S
H945 C947 0.959 . S
H946 C947 0.961 . S
C947 C937 1.510 . S
C947 H945 0.959 . S
C947 H946 0.961 . S
C947 H948 0.960 . S
H948 C947 0.960 . S
H949 N929 0.862 . S
O950 Co918 1.920 . S
O950 C923 1.289 . S
C951 O943 1.258 . S
C951 O944 1.266 . S
Co952 O955 1.970 . S
Co952 N969 1.989 . S
Co952 O977 1.967 . S
Co952 O984 1.920 . S
Co953 O956 1.966 . S
Co953 N962 2.022 . S
Co953 N970 1.993 . S
Co953 O978 1.941 . S
C954 O955 1.258 . S
C954 O956 1.263 . S
O955 Co952 1.970 . S
O955 C954 1.258 . S
O956 Co953 1.966 . S
O956 C954 1.263 . S
C957 O958 1.235 . S
C957 O984 1.289 . S
O958 C957 1.235 . S
C959 C961 1.400 . S
C959 N962 1.351 . S
C959 C964 1.501 . S
C960 C961 1.387 . S
C960 N963 1.341 . S
C961 C959 1.400 . S
C961 C960 1.387 . S
N962 Co953 2.022 . S
N962 C959 1.351 . S
N962 N963 1.365 . S
N963 C960 1.341 . S
N963 N962 1.365 . S
N963 H983 0.862 . S
C964 C959 1.501 . S
C964 H965 0.961 . S
C964 H966 0.961 . S
C964 H967 0.960 . S
H965 C964 0.961 . S
H966 C964 0.961 . S
H967 C964 0.960 . S
C968 N969 1.342 . S
C968 C972 1.401 . S
C968 C973 1.499 . S
N969 Co952 1.989 . S
N969 C968 1.342 . S
N969 N970 1.388 . S
N970 Co953 1.993 . S
N970 N969 1.388 . S
N970 C971 1.346 . S
C971 N970 1.346 . S
C971 C972 1.396 . S
C971 C981 1.510 . S
C972 C968 1.401 . S
C972 C971 1.396 . S
C973 C968 1.499 . S
C973 H974 0.959 . S
C973 H975 0.960 . S
C973 H976 0.961 . S
H974 C973 0.959 . S
H975 C973 0.960 . S
H976 C973 0.961 . S
O977 Co952 1.967 . S
O977 C985 1.258 . S
O978 Co953 1.941 . S
O978 C985 1.266 . S
H979 C981 0.959 . S
H980 C981 0.961 . S
C981 C971 1.510 . S
C981 H979 0.959 . S
C981 H980 0.961 . S
C981 H982 0.960 . S
H982 C981 0.960 . S
H983 N963 0.862 . S
O984 Co952 1.920 . S
O984 C957 1.289 . S
C985 O977 1.258 . S
C985 O978 1.266 . S
Co986 O989 1.970 . S
Co986 N1003 1.989 . S
Co986 O1011 1.967 . S
Co986 O1018 1.920 . S
Co987 O990 1.966 . S
Co987 N996 2.022 . S
Co987 N1004 1.993 . S
Co987 O1012 1.941 . S
C988 O989 1.258 . S
C988 O990 1.263 . S
O989 Co986 1.970 . S
O989 C988 1.258 . S
O990 Co987 1.966 . S
O990 C988 1.263 . S
C991 O992 1.235 . S
C991 O1018 1.289 . S
O992 C991 1.235 . S
C993 C995 1.400 . S
C993 N996 1.351 . S
C993 C998 1.501 . S
C994 C995 1.387 . S
C994 N997 1.341 . S
C995 C993 1.400 . S
C995 C994 1.387 . S
N996 Co987 2.022 . S
N996 C993 1.351 . S
N996 N997 1.365 . S
N997 C994 1.341 . S
N997 N996 1.365 . S
N997 H1017 0.862 . S
C998 C993 1.501 . S
C998 H999 0.961 . S
C998 H1000 0.961 . S
C998 H1001 0.960 . S
H999 C998 0.961 . S
H1000 C998 0.961 . S
H1001 C998 0.960 . S
C1002 N1003 1.342 . S
C1002 C1006 1.401 . S
C1002 C1007 1.499 . S
N1003 Co986 1.989 . S
N1003 C1002 1.342 . S
N1003 N1004 1.388 . S
N1004 Co987 1.993 . S
N1004 N1003 1.388 . S
N1004 C1005 1.346 . S
C1005 N1004 1.346 . S
C1005 C1006 1.396 . S
C1005 C1015 1.510 . S
C1006 C1002 1.401 . S
C1006 C1005 1.396 . S
C1007 C1002 1.499 . S
C1007 H1008 0.959 . S
C1007 H1009 0.960 . S
C1007 H1010 0.961 . S
H1008 C1007 0.959 . S
H1009 C1007 0.960 . S
H1010 C1007 0.961 . S
O1011 Co986 1.967 . S
O1011 C1019 1.258 . S
O1012 Co987 1.941 . S
O1012 C1019 1.266 . S
H1013 C1015 0.959 . S
H1014 C1015 0.961 . S
C1015 C1005 1.510 . S
C1015 H1013 0.959 . S
C1015 H1014 0.961 . S
C1015 H1016 0.960 . S
H1016 C1015 0.960 . S
H1017 N997 0.862 . S
O1018 Co986 1.920 . S
O1018 C991 1.289 . S
C1019 O1011 1.258 . S
C1019 O1012 1.266 . S
Co1020 O1023 1.970 . S
Co1020 N1037 1.989 . S
Co1020 O1045 1.967 . S
Co1020 O1052 1.920 . S
Co1021 O1024 1.966 . S
Co1021 N1030 2.022 . S
Co1021 N1038 1.993 . S
Co1021 O1046 1.941 . S
C1022 O1023 1.258 . S
C1022 O1024 1.263 . S
O1023 Co1020 1.970 . S
O1023 C1022 1.258 . S
O1024 Co1021 1.966 . S
O1024 C1022 1.263 . S
C1025 O1026 1.235 . S
C1025 O1052 1.289 . S
O1026 C1025 1.235 . S
C1027 C1029 1.400 . S
C1027 N1030 1.351 . S
C1027 C1032 1.501 . S
C1028 C1029 1.387 . S
C1028 N1031 1.341 . S
C1029 C1027 1.400 . S
C1029 C1028 1.387 . S
N1030 Co1021 2.022 . S
N1030 C1027 1.351 . S
N1030 N1031 1.365 . S
N1031 C1028 1.341 . S
N1031 N1030 1.365 . S
N1031 H1051 0.862 . S
C1032 C1027 1.501 . S
C1032 H1033 0.961 . S
C1032 H1034 0.961 . S
C1032 H1035 0.960 . S
H1033 C1032 0.961 . S
H1034 C1032 0.961 . S
H1035 C1032 0.960 . S
C1036 N1037 1.342 . S
C1036 C1040 1.401 . S
C1036 C1041 1.499 . S
N1037 Co1020 1.989 . S
N1037 C1036 1.342 . S
N1037 N1038 1.388 . S
N1038 Co1021 1.993 . S
N1038 N1037 1.388 . S
N1038 C1039 1.346 . S
C1039 N1038 1.346 . S
C1039 C1040 1.396 . S
C1039 C1049 1.510 . S
C1040 C1036 1.401 . S
C1040 C1039 1.396 . S
C1041 C1036 1.499 . S
C1041 H1042 0.959 . S
C1041 H1043 0.960 . S
C1041 H1044 0.961 . S
H1042 C1041 0.959 . S
H1043 C1041 0.960 . S
H1044 C1041 0.961 . S
O1045 Co1020 1.967 . S
O1045 C1053 1.258 . S
O1046 Co1021 1.941 . S
O1046 C1053 1.266 . S
H1047 C1049 0.959 . S
H1048 C1049 0.961 . S
C1049 C1039 1.510 . S
C1049 H1047 0.959 . S
C1049 H1048 0.961 . S
C1049 H1050 0.960 . S
H1050 C1049 0.960 . S
H1051 N1031 0.862 . S
O1052 Co1020 1.920 . S
O1052 C1025 1.289 . S
C1053 O1045 1.258 . S
C1053 O1046 1.266 . S
Co1054 O1057 1.970 . S
Co1054 N1071 1.989 . S
Co1054 O1079 1.967 . S
Co1054 O1086 1.920 . S
Co1055 O1058 1.966 . S
Co1055 N1064 2.022 . S
Co1055 N1072 1.993 . S
Co1055 O1080 1.941 . S
C1056 O1057 1.258 . S
C1056 O1058 1.263 . S
O1057 Co1054 1.970 . S
O1057 C1056 1.258 . S
O1058 Co1055 1.966 . S
O1058 C1056 1.263 . S
C1059 O1060 1.235 . S
C1059 O1086 1.289 . S
O1060 C1059 1.235 . S
C1061 C1063 1.400 . S
C1061 N1064 1.351 . S
C1061 C1066 1.501 . S
C1062 C1063 1.387 . S
C1062 N1065 1.341 . S
C1063 C1061 1.400 . S
C1063 C1062 1.387 . S
N1064 Co1055 2.022 . S
N1064 C1061 1.351 . S
N1064 N1065 1.365 . S
N1065 C1062 1.341 . S
N1065 N1064 1.365 . S
N1065 H1085 0.862 . S
C1066 C1061 1.501 . S
C1066 H1067 0.961 . S
C1066 H1068 0.961 . S
C1066 H1069 0.960 . S
H1067 C1066 0.961 . S
H1068 C1066 0.961 . S
H1069 C1066 0.960 . S
C1070 N1071 1.342 . S
C1070 C1074 1.401 . S
C1070 C1075 1.499 . S
N1071 Co1054 1.989 . S
N1071 C1070 1.342 . S
N1071 N1072 1.388 . S
N1072 Co1055 1.993 . S
N1072 N1071 1.388 . S
N1072 C1073 1.346 . S
C1073 N1072 1.346 . S
C1073 C1074 1.396 . S
C1073 C1083 1.510 . S
C1074 C1070 1.401 . S
C1074 C1073 1.396 . S
C1075 C1070 1.499 . S
C1075 H1076 0.959 . S
C1075 H1077 0.960 . S
C1075 H1078 0.961 . S
H1076 C1075 0.959 . S
H1077 C1075 0.960 . S
H1078 C1075 0.961 . S
O1079 Co1054 1.967 . S
O1079 C1087 1.258 . S
O1080 Co1055 1.941 . S
O1080 C1087 1.266 . S
H1081 C1083 0.959 . S
H1082 C1083 0.961 . S
C1083 C1073 1.510 . S
C1083 H1081 0.959 . S
C1083 H1082 0.961 . S
C1083 H1084 0.960 . S
H1084 C1083 0.960 . S
H1085 N1065 0.862 . S
O1086 Co1054 1.920 . S
O1086 C1059 1.289 . S
C1087 O1079 1.258 . S
C1087 O1080 1.266 . S
Co1088 O1091 1.970 . S
Co1088 N1105 1.989 . S
Co1088 O1113 1.967 . S
Co1088 O1120 1.920 . S
Co1089 O1092 1.966 . S
Co1089 N1098 2.022 . S
Co1089 N1106 1.993 . S
Co1089 O1114 1.941 . S
C1090 O1091 1.258 . S
C1090 O1092 1.263 . S
O1091 Co1088 1.970 . S
O1091 C1090 1.258 . S
O1092 Co1089 1.966 . S
O1092 C1090 1.263 . S
C1093 O1094 1.235 . S
C1093 O1120 1.289 . S
O1094 C1093 1.235 . S
C1095 C1097 1.400 . S
C1095 N1098 1.351 . S
C1095 C1100 1.501 . S
C1096 C1097 1.387 . S
C1096 N1099 1.341 . S
C1097 C1095 1.400 . S
C1097 C1096 1.387 . S
N1098 Co1089 2.022 . S
N1098 C1095 1.351 . S
N1098 N1099 1.365 . S
N1099 C1096 1.341 . S
N1099 N1098 1.365 . S
N1099 H1119 0.862 . S
C1100 C1095 1.501 . S
C1100 H1101 0.961 . S
C1100 H1102 0.961 . S
C1100 H1103 0.960 . S
H1101 C1100 0.961 . S
H1102 C1100 0.961 . S
H1103 C1100 0.960 . S
C1104 N1105 1.342 . S
C1104 C1108 1.401 . S
C1104 C1109 1.499 . S
N1105 Co1088 1.989 . S
N1105 C1104 1.342 . S
N1105 N1106 1.388 . S
N1106 Co1089 1.993 . S
N1106 N1105 1.388 . S
N1106 C1107 1.346 . S
C1107 N1106 1.346 . S
C1107 C1108 1.396 . S
C1107 C1117 1.510 . S
C1108 C1104 1.401 . S
C1108 C1107 1.396 . S
C1109 C1104 1.499 . S
C1109 H1110 0.959 . S
C1109 H1111 0.960 . S
C1109 H1112 0.961 . S
H1110 C1109 0.959 . S
H1111 C1109 0.960 . S
H1112 C1109 0.961 . S
O1113 Co1088 1.967 . S
O1113 C1121 1.258 . S
O1114 Co1089 1.941 . S
O1114 C1121 1.266 . S
H1115 C1117 0.959 . S
H1116 C1117 0.961 . S
C1117 C1107 1.510 . S
C1117 H1115 0.959 . S
C1117 H1116 0.961 . S
C1117 H1118 0.960 . S
H1118 C1117 0.960 . S
H1119 N1099 0.862 . S
O1120 Co1088 1.920 . S
O1120 C1093 1.289 . S
C1121 O1113 1.258 . S
C1121 O1114 1.266 . S
Co1122 O1125 1.970 . S
Co1122 N1139 1.989 . S
Co1122 O1147 1.967 . S
Co1122 O1154 1.920 . S
Co1123 O1126 1.966 . S
Co1123 N1132 2.022 . S
Co1123 N1140 1.993 . S
Co1123 O1148 1.941 . S
C1124 O1125 1.258 . S
C1124 O1126 1.263 . S
O1125 Co1122 1.970 . S
O1125 C1124 1.258 . S
O1126 Co1123 1.966 . S
O1126 C1124 1.263 . S
C1127 O1128 1.235 . S
C1127 O1154 1.289 . S
O1128 C1127 1.235 . S
C1129 C1131 1.400 . S
C1129 N1132 1.351 . S
C1129 C1134 1.501 . S
C1130 C1131 1.387 . S
C1130 N1133 1.341 . S
C1131 C1129 1.400 . S
C1131 C1130 1.387 . S
N1132 Co1123 2.022 . S
N1132 C1129 1.351 . S
N1132 N1133 1.365 . S
N1133 C1130 1.341 . S
N1133 N1132 1.365 . S
N1133 H1153 0.862 . S
C1134 C1129 1.501 . S
C1134 H1135 0.961 . S
C1134 H1136 0.961 . S
C1134 H1137 0.960 . S
H1135 C1134 0.961 . S
H1136 C1134 0.961 . S
H1137 C1134 0.960 . S
C1138 N1139 1.342 . S
C1138 C1142 1.401 . S
C1138 C1143 1.499 . S
N1139 Co1122 1.989 . S
N1139 C1138 1.342 . S
N1139 N1140 1.388 . S
N1140 Co1123 1.993 . S
N1140 N1139 1.388 . S
N1140 C1141 1.346 . S
C1141 N1140 1.346 . S
C1141 C1142 1.396 . S
C1141 C1151 1.510 . S
C1142 C1138 1.401 . S
C1142 C1141 1.396 . S
C1143 C1138 1.499 . S
C1143 H1144 0.959 . S
C1143 H1145 0.960 . S
C1143 H1146 0.961 . S
H1144 C1143 0.959 . S
H1145 C1143 0.960 . S
H1146 C1143 0.961 . S
O1147 Co1122 1.967 . S
O1147 C1155 1.258 . S
O1148 Co1123 1.941 . S
O1148 C1155 1.266 . S
H1149 C1151 0.959 . S
H1150 C1151 0.961 . S
C1151 C1141 1.510 . S
C1151 H1149 0.959 . S
C1151 H1150 0.961 . S
C1151 H1152 0.960 . S
H1152 C1151 0.960 . S
H1153 N1133 0.862 . S
O1154 Co1122 1.920 . S
O1154 C1127 1.289 . S
C1155 O1147 1.258 . S
C1155 O1148 1.266 . S
Co1156 O1159 1.970 . S
Co1156 N1173 1.989 . S
Co1156 O1181 1.967 . S
Co1156 O1188 1.920 . S
Co1157 O1160 1.966 . S
Co1157 N1166 2.022 . S
Co1157 N1174 1.993 . S
Co1157 O1182 1.941 . S
C1158 O1159 1.258 . S
C1158 O1160 1.263 . S
O1159 Co1156 1.970 . S
O1159 C1158 1.258 . S
O1160 Co1157 1.966 . S
O1160 C1158 1.263 . S
C1161 O1162 1.235 . S
C1161 O1188 1.289 . S
O1162 C1161 1.235 . S
C1163 C1165 1.400 . S
C1163 N1166 1.351 . S
C1163 C1168 1.501 . S
C1164 C1165 1.387 . S
C1164 N1167 1.341 . S
C1165 C1163 1.400 . S
C1165 C1164 1.387 . S
N1166 Co1157 2.022 . S
N1166 C1163 1.351 . S
N1166 N1167 1.365 . S
N1167 C1164 1.341 . S
N1167 N1166 1.365 . S
N1167 H1187 0.862 . S
C1168 C1163 1.501 . S
C1168 H1169 0.961 . S
C1168 H1170 0.961 . S
C1168 H1171 0.960 . S
H1169 C1168 0.961 . S
H1170 C1168 0.961 . S
H1171 C1168 0.960 . S
C1172 N1173 1.342 . S
C1172 C1176 1.401 . S
C1172 C1177 1.499 . S
N1173 Co1156 1.989 . S
N1173 C1172 1.342 . S
N1173 N1174 1.388 . S
N1174 Co1157 1.993 . S
N1174 N1173 1.388 . S
N1174 C1175 1.346 . S
C1175 N1174 1.346 . S
C1175 C1176 1.396 . S
C1175 C1185 1.510 . S
C1176 C1172 1.401 . S
C1176 C1175 1.396 . S
C1177 C1172 1.499 . S
C1177 H1178 0.959 . S
C1177 H1179 0.960 . S
C1177 H1180 0.961 . S
H1178 C1177 0.959 . S
H1179 C1177 0.960 . S
H1180 C1177 0.961 . S
O1181 Co1156 1.967 . S
O1181 C1189 1.258 . S
O1182 Co1157 1.941 . S
O1182 C1189 1.266 . S
H1183 C1185 0.959 . S
H1184 C1185 0.961 . S
C1185 C1175 1.510 . S
C1185 H1183 0.959 . S
C1185 H1184 0.961 . S
C1185 H1186 0.960 . S
H1186 C1185 0.960 . S
H1187 N1167 0.862 . S
O1188 Co1156 1.920 . S
O1188 C1161 1.289 . S
C1189 O1181 1.258 . S
C1189 O1182 1.266 . S
Co1190 O1193 1.970 . S
Co1190 N1207 1.989 . S
Co1190 O1215 1.967 . S
Co1190 O1222 1.920 . S
Co1191 O1194 1.966 . S
Co1191 N1200 2.022 . S
Co1191 N1208 1.993 . S
Co1191 O1216 1.941 . S
C1192 O1193 1.258 . S
C1192 O1194 1.263 . S
O1193 Co1190 1.970 . S
O1193 C1192 1.258 . S
O1194 Co1191 1.966 . S
O1194 C1192 1.263 . S
C1195 O1196 1.235 . S
C1195 O1222 1.289 . S
O1196 C1195 1.235 . S
C1197 C1199 1.400 . S
C1197 N1200 1.351 . S
C1197 C1202 1.501 . S
C1198 C1199 1.387 . S
C1198 N1201 1.341 . S
C1199 C1197 1.400 . S
C1199 C1198 1.387 . S
N1200 Co1191 2.022 . S
N1200 C1197 1.351 . S
N1200 N1201 1.365 . S
N1201 C1198 1.341 . S
N1201 N1200 1.365 . S
N1201 H1221 0.862 . S
C1202 C1197 1.501 . S
C1202 H1203 0.961 . S
C1202 H1204 0.961 . S
C1202 H1205 0.960 . S
H1203 C1202 0.961 . S
H1204 C1202 0.961 . S
H1205 C1202 0.960 . S
C1206 N1207 1.342 . S
C1206 C1210 1.401 . S
C1206 C1211 1.499 . S
N1207 Co1190 1.989 . S
N1207 C1206 1.342 . S
N1207 N1208 1.388 . S
N1208 Co1191 1.993 . S
N1208 N1207 1.388 . S
N1208 C1209 1.346 . S
C1209 N1208 1.346 . S
C1209 C1210 1.396 . S
C1209 C1219 1.510 . S
C1210 C1206 1.401 . S
C1210 C1209 1.396 . S
C1211 C1206 1.499 . S
C1211 H1212 0.959 . S
C1211 H1213 0.960 . S
C1211 H1214 0.961 . S
H1212 C1211 0.959 . S
H1213 C1211 0.960 . S
H1214 C1211 0.961 . S
O1215 Co1190 1.967 . S
O1215 C1223 1.258 . S
O1216 Co1191 1.941 . S
O1216 C1223 1.266 . S
H1217 C1219 0.959 . S
H1218 C1219 0.961 . S
C1219 C1209 1.510 . S
C1219 H1217 0.959 . S
C1219 H1218 0.961 . S
C1219 H1220 0.960 . S
H1220 C1219 0.960 . S
H1221 N1201 0.862 . S
O1222 Co1190 1.920 . S
O1222 C1195 1.289 . S
C1223 O1215 1.258 . S
C1223 O1216 1.266 . S
H1224 C1232 0.929 . S
H1225 C1234 0.930 . S
H1226 C1236 0.930 . S
H1227 C1239 0.929 . S
H1228 C1242 0.930 . S
H1229 C1244 0.960 . S
H1230 C1244 0.960 . S
H1231 C1244 0.960 . S
C1232 H1224 0.929 . S
C1232 C1233 1.377 . S
C1232 C1234 1.384 . S
C1233 C1232 1.377 . S
C1233 C1239 1.390 . S
C1234 H1225 0.930 . S
C1234 C1232 1.384 . S
C1234 C1235 1.372 . S
C1235 C1234 1.372 . S
C1235 C1236 1.400 . S
C1235 C1240 1.490 . S
C1236 H1226 0.930 . S
C1236 C1235 1.400 . S
C1236 C1239 1.386 . S
H1237 C1253 0.930 . S
H1238 C1254 0.921 1_554 S
C1239 H1227 0.929 . S
C1239 C1233 1.390 . S
C1239 C1236 1.386 . S
C1240 C1235 1.490 . S
C1240 C1242 1.395 . S
C1240 C1243 1.403 . S
H1241 C1247 0.930 . S
C1242 H1228 0.930 . S
C1242 C1240 1.395 . S
C1242 C1245 1.403 . S
C1243 C1240 1.403 . S
C1243 C1244 1.524 . S
C1243 C1247 1.400 . S
C1244 H1229 0.960 . S
C1244 H1230 0.960 . S
C1244 H1231 0.960 . S
C1244 C1243 1.524 . S
C1245 C1242 1.403 . S
C1245 C1246 1.392 . S
C1245 C1249 1.495 . S
C1246 C1245 1.392 . S
C1246 C1247 1.385 . S
C1246 C1248 1.478 . S
C1247 H1241 0.930 . S
C1247 C1243 1.400 . S
C1247 C1246 1.385 . S
C1248 C1246 1.478 . S
C1248 C1250 1.381 . S
C1248 C1254 1.383 . S
C1249 C1245 1.495 . S
C1249 H1255 0.959 . S
C1249 H1256 0.961 . S
C1249 H1257 0.960 . S
C1250 C1248 1.381 . S
C1250 C1251 1.394 . S
C1250 H1258 0.930 . S
C1251 C1250 1.394 . S
C1251 C1252 1.383 . S
C1251 H1259 0.929 . S
C1252 C1251 1.383 . S
C1252 C1253 1.377 1_556 S
C1253 H1237 0.930 . S
C1253 C1252 1.377 1_554 S
C1253 C1254 1.379 1_554 S
C1254 H1238 0.921 1_556 S
C1254 C1248 1.383 . S
C1254 C1253 1.379 1_556 S
H1255 C1249 0.959 . S
H1256 C1249 0.961 . S
H1257 C1249 0.960 . S
H1258 C1250 0.930 . S
H1259 C1251 0.929 . S
H1260 C1268 0.929 . S
H1261 C1270 0.930 . S
H1262 C1272 0.930 . S
H1263 C1275 0.929 . S
H1264 C1278 0.930 . S
H1265 C1280 0.960 . S
H1266 C1280 0.960 . S
H1267 C1280 0.960 . S
C1268 H1260 0.929 . S
C1268 C1269 1.377 . S
C1268 C1270 1.384 . S
C1269 C1268 1.377 . S
C1269 C1275 1.390 . S
C1270 H1261 0.930 . S
C1270 C1268 1.384 . S
C1270 C1271 1.372 . S
C1271 C1270 1.372 . S
C1271 C1272 1.400 . S
C1271 C1276 1.490 . S
C1272 H1262 0.930 . S
C1272 C1271 1.400 . S
C1272 C1275 1.386 . S
H1273 C1289 0.920 1_554 S
H1274 C1290 0.931 . S
C1275 H1263 0.929 . S
C1275 C1269 1.390 . S
C1275 C1272 1.386 . S
C1276 C1271 1.490 . S
C1276 C1278 1.395 . S
C1276 C1279 1.403 . S
H1277 C1283 0.930 . S
C1278 H1264 0.930 . S
C1278 C1276 1.395 . S
C1278 C1281 1.403 . S
C1279 C1276 1.403 . S
C1279 C1280 1.524 . S
C1279 C1283 1.400 . S
C1280 H1265 0.960 . S
C1280 H1266 0.960 . S
C1280 H1267 0.960 . S
C1280 C1279 1.524 . S
C1281 C1278 1.403 . S
C1281 C1282 1.392 . S
C1281 C1285 1.495 . S
C1282 C1281 1.392 . S
C1282 C1283 1.385 . S
C1282 C1284 1.478 . S
C1283 H1277 0.930 . S
C1283 C1279 1.400 . S
C1283 C1282 1.385 . S
C1284 C1282 1.478 . S
C1284 C1286 1.381 . S
C1284 C1290 1.383 . S
C1285 C1281 1.495 . S
C1285 H1291 0.959 . S
C1285 H1292 0.961 . S
C1285 H1293 0.960 . S
C1286 C1284 1.381 . S
C1286 C1287 1.394 . S
C1286 H1294 0.930 . S
C1287 C1286 1.394 . S
C1287 C1288 1.383 . S
C1287 H1295 0.929 . S
C1288 C1287 1.383 . S
C1288 C1289 1.380 . S
C1289 H1273 0.920 1_556 S
C1289 C1288 1.380 . S
C1289 C1290 1.386 . S
C1290 H1274 0.931 . S
C1290 C1284 1.383 . S
C1290 C1289 1.386 . S
H1291 C1285 0.959 . S
H1292 C1285 0.961 . S
H1293 C1285 0.960 . S
H1294 C1286 0.930 . S
H1295 C1287 0.929 . S
H1296 C1304 0.929 . S
H1297 C1306 0.930 . S
H1298 C1308 0.930 . S
H1299 C1311 0.929 . S
H1300 C1314 0.930 . S
H1301 C1316 0.960 . S
H1302 C1316 0.960 . S
H1303 C1316 0.960 . S
C1304 H1296 0.929 . S
C1304 C1305 1.377 . S
C1304 C1306 1.384 . S
C1305 C1304 1.377 . S
C1305 C1311 1.390 . S
C1306 H1297 0.930 . S
C1306 C1304 1.384 . S
C1306 C1307 1.372 . S
C1307 C1306 1.372 . S
C1307 C1308 1.400 . S
C1307 C1312 1.490 . S
C1308 H1298 0.930 . S
C1308 C1307 1.400 . S
C1308 C1311 1.386 . S
H1309 C1325 0.930 . S
H1310 C1326 0.931 . S
C1311 H1299 0.929 . S
C1311 C1305 1.390 . S
C1311 C1308 1.386 . S
C1312 C1307 1.490 . S
C1312 C1314 1.395 . S
C1312 C1315 1.403 . S
H1313 C1319 0.930 . S
C1314 H1300 0.930 . S
C1314 C1312 1.395 . S
C1314 C1317 1.403 . S
C1315 C1312 1.403 . S
C1315 C1316 1.524 . S
C1315 C1319 1.400 . S
C1316 H1301 0.960 . S
C1316 H1302 0.960 . S
C1316 H1303 0.960 . S
C1316 C1315 1.524 . S
C1317 C1314 1.403 . S
C1317 C1318 1.392 . S
C1317 C1321 1.495 1_556 S
C1318 C1317 1.392 . S
C1318 C1319 1.385 . S
C1318 C1320 1.478 . S
C1319 H1313 0.930 . S
C1319 C1315 1.400 . S
C1319 C1318 1.385 . S
C1320 C1318 1.478 . S
C1320 C1322 1.381 . S
C1320 C1326 1.383 . S
C1321 C1317 1.495 1_554 S
C1321 H1327 0.959 . S
C1321 H1328 0.961 . S
C1321 H1329 0.960 . S
C1322 C1320 1.381 . S
C1322 C1323 1.394 . S
C1322 H1330 0.930 . S
C1323 C1322 1.394 . S
C1323 C1324 1.383 . S
C1323 H1331 0.929 1_556 S
C1324 C1323 1.383 . S
C1324 C1325 1.377 . S
C1325 H1309 0.930 . S
C1325 C1324 1.377 . S
C1325 C1326 1.379 . S
C1326 H1310 0.931 . S
C1326 C1320 1.383 . S
C1326 C1325 1.379 . S
H1327 C1321 0.959 . S
H1328 C1321 0.961 . S
H1329 C1321 0.960 . S
H1330 C1322 0.930 . S
H1331 C1323 0.929 1_554 S
H1332 C1340 0.929 . S
H1333 C1342 0.930 . S
H1334 C1344 0.930 . S
H1335 C1347 0.929 . S
H1336 C1350 0.930 . S
H1337 C1352 0.960 . S
H1338 C1352 0.960 . S
H1339 C1352 0.960 . S
C1340 H1332 0.929 . S
C1340 C1341 1.377 . S
C1340 C1342 1.384 . S
C1341 C1340 1.377 . S
C1341 C1347 1.390 . S
C1342 H1333 0.930 . S
C1342 C1340 1.384 . S
C1342 C1343 1.372 . S
C1343 C1342 1.372 . S
C1343 C1344 1.400 . S
C1343 C1348 1.490 . S
C1344 H1334 0.930 . S
C1344 C1343 1.400 . S
C1344 C1347 1.386 . S
H1345 C1361 0.930 . S
H1346 C1362 0.931 . S
C1347 H1335 0.929 . S
C1347 C1341 1.390 . S
C1347 C1344 1.386 . S
C1348 C1343 1.490 . S
C1348 C1350 1.395 . S
C1348 C1351 1.403 . S
H1349 C1355 0.930 . S
C1350 H1336 0.930 . S
C1350 C1348 1.395 . S
C1350 C1353 1.403 . S
C1351 C1348 1.403 . S
C1351 C1352 1.524 . S
C1351 C1355 1.400 . S
C1352 H1337 0.960 . S
C1352 H1338 0.960 . S
C1352 H1339 0.960 . S
C1352 C1351 1.524 . S
C1353 C1350 1.403 . S
C1353 C1354 1.392 . S
C1353 C1357 1.495 . S
C1354 C1353 1.392 . S
C1354 C1355 1.385 . S
C1354 C1356 1.478 . S
C1355 H1349 0.930 . S
C1355 C1351 1.400 . S
C1355 C1354 1.385 . S
C1356 C1354 1.478 . S
C1356 C1358 1.381 . S
C1356 C1362 1.383 . S
C1357 C1353 1.495 . S
C1357 H1363 0.959 . S
C1357 H1364 0.961 . S
C1357 H1365 0.960 . S
C1358 C1356 1.381 . S
C1358 C1359 1.394 . S
C1358 H1366 0.930 . S
C1359 C1358 1.394 . S
C1359 C1360 1.383 . S
C1359 H1367 0.929 . S
C1360 C1359 1.383 . S
C1360 C1361 1.377 . S
C1361 H1345 0.930 . S
C1361 C1360 1.377 . S
C1361 C1362 1.379 . S
C1362 H1346 0.931 . S
C1362 C1356 1.383 . S
C1362 C1361 1.379 . S
H1363 C1357 0.959 . S
H1364 C1357 0.961 . S
H1365 C1357 0.960 . S
H1366 C1358 0.930 . S
H1367 C1359 0.929 . S
H1368 C1376 0.929 . S
H1369 C1378 0.930 . S
H1370 C1380 0.930 . S
H1371 C1383 0.929 . S
H1372 C1386 0.930 . S
H1373 C1388 0.960 . S
H1374 C1388 0.960 . S
H1375 C1388 0.960 . S
C1376 H1368 0.929 . S
C1376 C1377 1.377 . S
C1376 C1378 1.384 . S
C1377 C1376 1.377 . S
C1377 C1383 1.390 . S
C1378 H1369 0.930 . S
C1378 C1376 1.384 . S
C1378 C1379 1.372 . S
C1379 C1378 1.372 . S
C1379 C1380 1.400 . S
C1379 C1384 1.490 . S
C1380 H1370 0.930 . S
C1380 C1379 1.400 . S
C1380 C1383 1.386 . S
H1381 C1397 0.930 . S
H1382 C1398 0.931 . S
C1383 H1371 0.929 . S
C1383 C1377 1.390 . S
C1383 C1380 1.386 . S
C1384 C1379 1.490 . S
C1384 C1386 1.395 . S
C1384 C1387 1.403 . S
H1385 C1391 0.930 . S
C1386 H1372 0.930 . S
C1386 C1384 1.395 . S
C1386 C1389 1.403 . S
C1387 C1384 1.403 . S
C1387 C1388 1.524 . S
C1387 C1391 1.400 . S
C1388 H1373 0.960 . S
C1388 H1374 0.960 . S
C1388 H1375 0.960 . S
C1388 C1387 1.524 . S
C1389 C1386 1.403 . S
C1389 C1390 1.392 . S
C1389 C1393 1.495 . S
C1390 C1389 1.392 . S
C1390 C1391 1.385 . S
C1390 C1392 1.478 . S
C1391 H1385 0.930 . S
C1391 C1387 1.400 . S
C1391 C1390 1.385 . S
C1392 C1390 1.478 . S
C1392 C1394 1.381 . S
C1392 C1398 1.383 . S
C1393 C1389 1.495 . S
C1393 H1399 0.959 . S
C1393 H1400 0.961 . S
C1393 H1401 0.960 . S
C1394 C1392 1.381 . S
C1394 C1395 1.394 . S
C1394 H1402 0.930 . S
C1395 C1394 1.394 . S
C1395 C1396 1.383 . S
C1395 H1403 0.929 . S
C1396 C1395 1.383 . S
C1396 C1397 1.377 . S
C1397 H1381 0.930 . S
C1397 C1396 1.377 . S
C1397 C1398 1.379 . S
C1398 H1382 0.931 . S
C1398 C1392 1.383 . S
C1398 C1397 1.379 . S
H1399 C1393 0.959 . S
H1400 C1393 0.961 . S
H1401 C1393 0.960 . S
H1402 C1394 0.930 . S
H1403 C1395 0.929 . S
H1404 C1412 0.929 . S
H1405 C1414 0.930 . S
H1406 C1416 0.930 . S
H1407 C1419 0.929 . S
H1408 C1422 0.930 . S
H1409 C1424 0.960 . S
H1410 C1424 0.960 . S
H1411 C1424 0.960 . S
C1412 H1404 0.929 . S
C1412 C1413 1.377 . S
C1412 C1414 1.384 . S
C1413 C1412 1.377 . S
C1413 C1419 1.390 . S
C1414 H1405 0.930 . S
C1414 C1412 1.384 . S
C1414 C1415 1.372 . S
C1415 C1414 1.372 . S
C1415 C1416 1.400 . S
C1415 C1420 1.490 . S
C1416 H1406 0.930 . S
C1416 C1415 1.400 . S
C1416 C1419 1.386 . S
H1417 C1433 0.930 . S
H1418 C1434 0.931 . S
C1419 H1407 0.929 . S
C1419 C1413 1.390 . S
C1419 C1416 1.386 . S
C1420 C1415 1.490 . S
C1420 C1422 1.395 . S
C1420 C1423 1.403 . S
H1421 C1427 0.930 . S
C1422 H1408 0.930 . S
C1422 C1420 1.395 . S
C1422 C1425 1.403 . S
C1423 C1420 1.403 . S
C1423 C1424 1.524 . S
C1423 C1427 1.400 . S
C1424 H1409 0.960 . S
C1424 H1410 0.960 . S
C1424 H1411 0.960 . S
C1424 C1423 1.524 . S
C1425 C1422 1.403 . S
C1425 C1426 1.392 . S
C1425 C1429 1.495 . S
C1426 C1425 1.392 . S
C1426 C1427 1.385 . S
C1426 C1428 1.478 . S
C1427 H1421 0.930 . S
C1427 C1423 1.400 . S
C1427 C1426 1.385 . S
C1428 C1426 1.478 . S
C1428 C1430 1.381 . S
C1428 C1434 1.383 . S
C1429 C1425 1.495 . S
C1429 H1435 0.959 . S
C1429 H1436 0.961 . S
C1429 H1437 0.960 . S
C1430 C1428 1.381 . S
C1430 C1431 1.394 . S
C1430 H1438 0.930 . S
C1431 C1430 1.394 . S
C1431 C1432 1.383 . S
C1431 H1439 0.929 . S
C1432 C1431 1.383 . S
C1432 C1433 1.377 . S
C1433 H1417 0.930 . S
C1433 C1432 1.377 . S
C1433 C1434 1.379 . S
C1434 H1418 0.931 . S
C1434 C1428 1.383 . S
C1434 C1433 1.379 . S
H1435 C1429 0.959 . S
H1436 C1429 0.961 . S
H1437 C1429 0.960 . S
H1438 C1430 0.930 . S
H1439 C1431 0.929 . S
H1440 C1448 0.929 . S
H1441 C1450 0.930 . S
H1442 C1452 0.930 . S
H1443 C1455 0.929 . S
H1444 C1458 0.930 . S
H1445 C1460 0.960 . S
H1446 C1460 0.960 . S
H1447 C1460 0.960 . S
C1448 H1440 0.929 . S
C1448 C1449 1.377 . S
C1448 C1450 1.384 . S
C1449 C1448 1.377 . S
C1449 C1455 1.390 . S
C1450 H1441 0.930 . S
C1450 C1448 1.384 . S
C1450 C1451 1.372 . S
C1451 C1450 1.372 . S
C1451 C1452 1.400 . S
C1451 C1456 1.490 . S
C1452 H1442 0.930 . S
C1452 C1451 1.400 . S
C1452 C1455 1.386 . S
H1453 C1469 0.930 . S
H1454 C1470 0.931 . S
C1455 H1443 0.929 . S
C1455 C1449 1.390 . S
C1455 C1452 1.386 . S
C1456 C1451 1.490 . S
C1456 C1458 1.395 . S
C1456 C1459 1.403 . S
H1457 C1463 0.930 . S
C1458 H1444 0.930 . S
C1458 C1456 1.395 . S
C1458 C1461 1.403 . S
C1459 C1456 1.403 . S
C1459 C1460 1.524 . S
C1459 C1463 1.400 . S
C1460 H1445 0.960 . S
C1460 H1446 0.960 . S
C1460 H1447 0.960 . S
C1460 C1459 1.524 . S
C1461 C1458 1.403 . S
C1461 C1462 1.392 . S
C1461 C1465 1.495 . S
C1462 C1461 1.392 . S
C1462 C1463 1.385 . S
C1462 C1464 1.478 . S
C1463 H1457 0.930 . S
C1463 C1459 1.400 . S
C1463 C1462 1.385 . S
C1464 C1462 1.478 . S
C1464 C1466 1.381 . S
C1464 C1470 1.383 . S
C1465 C1461 1.495 . S
C1465 H1471 0.959 . S
C1465 H1472 0.961 . S
C1465 H1473 0.960 . S
C1466 C1464 1.381 . S
C1466 C1467 1.394 . S
C1466 H1474 0.930 . S
C1467 C1466 1.394 . S
C1467 C1468 1.383 . S
C1467 H1475 0.929 . S
C1468 C1467 1.383 . S
C1468 C1469 1.377 . S
C1469 H1453 0.930 . S
C1469 C1468 1.377 . S
C1469 C1470 1.379 . S
C1470 H1454 0.931 . S
C1470 C1464 1.383 . S
C1470 C1469 1.379 . S
H1471 C1465 0.959 . S
H1472 C1465 0.961 . S
H1473 C1465 0.960 . S
H1474 C1466 0.930 . S
H1475 C1467 0.929 . S
H1476 C1484 0.929 . S
H1477 C1486 0.930 . S
H1478 C1488 0.930 . S
H1479 C1491 0.929 . S
H1480 C1494 0.930 . S
H1481 C1496 0.960 . S
H1482 C1496 0.960 . S
H1483 C1496 0.960 . S
C1484 H1476 0.929 . S
C1484 C1485 1.377 . S
C1484 C1486 1.384 . S
C1485 C1484 1.377 . S
C1485 C1491 1.390 . S
C1486 H1477 0.930 . S
C1486 C1484 1.384 . S
C1486 C1487 1.372 . S
C1487 C1486 1.372 . S
C1487 C1488 1.400 . S
C1487 C1492 1.490 . S
C1488 H1478 0.930 . S
C1488 C1487 1.400 . S
C1488 C1491 1.386 . S
H1489 C1505 0.930 . S
H1490 C1506 0.931 . S
C1491 H1479 0.929 . S
C1491 C1485 1.390 . S
C1491 C1488 1.386 . S
C1492 C1487 1.490 . S
C1492 C1494 1.395 . S
C1492 C1495 1.403 . S
H1493 C1499 0.930 . S
C1494 H1480 0.930 . S
C1494 C1492 1.395 . S
C1494 C1497 1.403 . S
C1495 C1492 1.403 . S
C1495 C1496 1.524 . S
C1495 C1499 1.400 . S
C1496 H1481 0.960 . S
C1496 H1482 0.960 . S
C1496 H1483 0.960 . S
C1496 C1495 1.524 . S
C1497 C1494 1.403 . S
C1497 C1498 1.392 . S
C1497 C1501 1.495 . S
C1498 C1497 1.392 . S
C1498 C1499 1.385 . S
C1498 C1500 1.478 . S
C1499 H1493 0.930 . S
C1499 C1495 1.400 . S
C1499 C1498 1.385 . S
C1500 C1498 1.478 . S
C1500 C1502 1.381 . S
C1500 C1506 1.383 . S
C1501 C1497 1.495 . S
C1501 H1507 0.959 . S
C1501 H1508 0.961 . S
C1501 H1509 0.960 . S
C1502 C1500 1.381 . S
C1502 C1503 1.394 . S
C1502 H1510 0.930 . S
C1503 C1502 1.394 . S
C1503 C1504 1.383 . S
C1503 H1511 0.929 . S
C1504 C1503 1.383 . S
C1504 C1505 1.377 . S
C1505 H1489 0.930 . S
C1505 C1504 1.377 . S
C1505 C1506 1.379 . S
C1506 H1490 0.931 . S
C1506 C1500 1.383 . S
C1506 C1505 1.379 . S
H1507 C1501 0.959 . S
H1508 C1501 0.961 . S
H1509 C1501 0.960 . S
H1510 C1502 0.930 . S
H1511 C1503 0.929 . S
H1512 C1520 0.929 . S
H1513 C1522 0.930 . S
H1514 C1524 0.930 . S
H1515 C1527 0.929 . S
H1516 C1530 0.930 . S
H1517 C1532 0.960 . S
H1518 C1532 0.960 . S
H1519 C1532 0.960 . S
C1520 H1512 0.929 . S
C1520 C1521 1.377 . S
C1520 C1522 1.384 . S
C1521 C1520 1.377 . S
C1521 C1527 1.390 . S
C1522 H1513 0.930 . S
C1522 C1520 1.384 . S
C1522 C1523 1.372 . S
C1523 C1522 1.372 . S
C1523 C1524 1.400 . S
C1523 C1528 1.490 . S
C1524 H1514 0.930 . S
C1524 C1523 1.400 . S
C1524 C1527 1.386 . S
H1525 C1541 0.930 . S
H1526 C1542 0.931 . S
C1527 H1515 0.929 . S
C1527 C1521 1.390 . S
C1527 C1524 1.386 . S
C1528 C1523 1.490 . S
C1528 C1530 1.395 . S
C1528 C1531 1.403 . S
H1529 C1535 0.930 . S
C1530 H1516 0.930 . S
C1530 C1528 1.395 . S
C1530 C1533 1.403 . S
C1531 C1528 1.403 . S
C1531 C1532 1.524 . S
C1531 C1535 1.400 . S
C1532 H1517 0.960 . S
C1532 H1518 0.960 . S
C1532 H1519 0.960 . S
C1532 C1531 1.524 . S
C1533 C1530 1.403 . S
C1533 C1534 1.392 . S
C1533 C1537 1.495 . S
C1534 C1533 1.392 . S
C1534 C1535 1.385 . S
C1534 C1536 1.478 . S
C1535 H1529 0.930 . S
C1535 C1531 1.400 . S
C1535 C1534 1.385 . S
C1536 C1534 1.478 . S
C1536 C1538 1.381 . S
C1536 C1542 1.383 . S
C1537 C1533 1.495 . S
C1537 H1543 0.959 . S
C1537 H1544 0.961 . S
C1537 H1545 0.960 . S
C1538 C1536 1.381 . S
C1538 C1539 1.394 . S
C1538 H1546 0.930 . S
C1539 C1538 1.394 . S
C1539 C1540 1.383 . S
C1539 H1547 0.929 . S
C1540 C1539 1.383 . S
C1540 C1541 1.377 . S
C1541 H1525 0.930 . S
C1541 C1540 1.377 . S
C1541 C1542 1.379 . S
C1542 H1526 0.931 . S
C1542 C1536 1.383 . S
C1542 C1541 1.379 . S
H1543 C1537 0.959 . S
H1544 C1537 0.961 . S
H1545 C1537 0.960 . S
H1546 C1538 0.930 . S
H1547 C1539 0.929 . S
H1548 C1556 0.929 . S
H1549 C1558 0.930 . S
H1550 C1560 0.930 . S
H1551 C1563 0.929 . S
H1552 C1566 0.930 . S
H1553 C1568 0.960 . S
H1554 C1568 0.960 . S
H1555 C1568 0.960 . S
C1556 H1548 0.929 . S
C1556 C1557 1.377 . S
C1556 C1558 1.384 . S
C1557 C1556 1.377 . S
C1557 C1563 1.390 . S
C1558 H1549 0.930 . S
C1558 C1556 1.384 . S
C1558 C1559 1.372 . S
C1559 C1558 1.372 . S
C1559 C1560 1.400 . S
C1559 C1564 1.490 . S
C1560 H1550 0.930 . S
C1560 C1559 1.400 . S
C1560 C1563 1.386 . S
H1561 C1577 0.930 . S
H1562 C1578 0.931 . S
C1563 H1551 0.929 . S
C1563 C1557 1.390 . S
C1563 C1560 1.386 . S
C1564 C1559 1.490 . S
C1564 C1566 1.395 . S
C1564 C1567 1.403 . S
H1565 C1571 0.930 . S
C1566 H1552 0.930 . S
C1566 C1564 1.395 . S
C1566 C1569 1.403 . S
C1567 C1564 1.403 . S
C1567 C1568 1.524 . S
C1567 C1571 1.400 . S
C1568 H1553 0.960 . S
C1568 H1554 0.960 . S
C1568 H1555 0.960 . S
C1568 C1567 1.524 . S
C1569 C1566 1.403 . S
C1569 C1570 1.392 . S
C1569 C1573 1.495 . S
C1570 C1569 1.392 . S
C1570 C1571 1.385 . S
C1570 C1572 1.478 . S
C1571 H1565 0.930 . S
C1571 C1567 1.400 . S
C1571 C1570 1.385 . S
C1572 C1570 1.478 . S
C1572 C1574 1.381 . S
C1572 C1578 1.383 . S
C1573 C1569 1.495 . S
C1573 H1579 0.959 . S
C1573 H1580 0.961 . S
C1573 H1581 0.960 . S
C1574 C1572 1.381 . S
C1574 C1575 1.394 . S
C1574 H1582 0.930 . S
C1575 C1574 1.394 . S
C1575 C1576 1.383 . S
C1575 H1583 0.929 . S
C1576 C1575 1.383 . S
C1576 C1577 1.377 . S
C1577 H1561 0.930 . S
C1577 C1576 1.377 . S
C1577 C1578 1.379 . S
C1578 H1562 0.931 . S
C1578 C1572 1.383 . S
C1578 C1577 1.379 . S
H1579 C1573 0.959 . S
H1580 C1573 0.961 . S
H1581 C1573 0.960 . S
H1582 C1574 0.930 . S
H1583 C1575 0.929 . S
H1584 C1592 0.929 . S
H1585 C1594 0.930 . S
H1586 C1596 0.930 . S
H1587 C1599 0.929 . S
H1588 C1602 0.930 . S
H1589 C1604 0.960 . S
H1590 C1604 0.960 . S
H1591 C1604 0.960 . S
C1592 H1584 0.929 . S
C1592 C1593 1.377 . S
C1592 C1594 1.384 . S
C1593 C1592 1.377 . S
C1593 C1599 1.390 . S
C1594 H1585 0.930 . S
C1594 C1592 1.384 . S
C1594 C1595 1.372 . S
C1595 C1594 1.372 . S
C1595 C1596 1.400 . S
C1595 C1600 1.490 . S
C1596 H1586 0.930 . S
C1596 C1595 1.400 . S
C1596 C1599 1.386 . S
H1597 C1613 0.930 . S
H1598 C1614 0.931 . S
C1599 H1587 0.929 . S
C1599 C1593 1.390 . S
C1599 C1596 1.386 . S
C1600 C1595 1.490 . S
C1600 C1602 1.395 . S
C1600 C1603 1.403 . S
H1601 C1607 0.930 . S
C1602 H1588 0.930 . S
C1602 C1600 1.395 . S
C1602 C1605 1.403 . S
C1603 C1600 1.403 . S
C1603 C1604 1.524 . S
C1603 C1607 1.400 . S
C1604 H1589 0.960 . S
C1604 H1590 0.960 . S
C1604 H1591 0.960 . S
C1604 C1603 1.524 . S
C1605 C1602 1.403 . S
C1605 C1606 1.392 . S
C1605 C1609 1.495 . S
C1606 C1605 1.392 . S
C1606 C1607 1.385 . S
C1606 C1608 1.478 . S
C1607 H1601 0.930 . S
C1607 C1603 1.400 . S
C1607 C1606 1.385 . S
C1608 C1606 1.478 . S
C1608 C1610 1.381 . S
C1608 C1614 1.383 . S
C1609 C1605 1.495 . S
C1609 H1615 0.959 . S
C1609 H1616 0.961 . S
C1609 H1617 0.960 . S
C1610 C1608 1.381 . S
C1610 C1611 1.394 . S
C1610 H1618 0.930 . S
C1611 C1610 1.394 . S
C1611 C1612 1.383 . S
C1611 H1619 0.929 . S
C1612 C1611 1.383 . S
C1612 C1613 1.377 . S
C1613 H1597 0.930 . S
C1613 C1612 1.377 . S
C1613 C1614 1.379 . S
C1614 H1598 0.931 . S
C1614 C1608 1.383 . S
C1614 C1613 1.379 . S
H1615 C1609 0.959 . S
H1616 C1609 0.961 . S
H1617 C1609 0.960 . S
H1618 C1610 0.930 . S
H1619 C1611 0.929 . S
H1620 C1628 0.929 . S
H1621 C1630 0.930 . S
H1622 C1632 0.930 . S
H1623 C1635 0.929 . S
H1624 C1638 0.930 . S
H1625 C1640 0.960 . S
H1626 C1640 0.960 . S
H1627 C1640 0.960 . S
C1628 H1620 0.929 . S
C1628 C1629 1.377 . S
C1628 C1630 1.384 . S
C1629 C1628 1.377 . S
C1629 C1635 1.390 . S
C1630 H1621 0.930 . S
C1630 C1628 1.384 . S
C1630 C1631 1.372 . S
C1631 C1630 1.372 . S
C1631 C1632 1.400 . S
C1631 C1636 1.490 . S
C1632 H1622 0.930 . S
C1632 C1631 1.400 . S
C1632 C1635 1.386 . S
H1633 C1649 0.930 . S
H1634 C1650 0.931 . S
C1635 H1623 0.929 . S
C1635 C1629 1.390 . S
C1635 C1632 1.386 . S
C1636 C1631 1.490 . S
C1636 C1638 1.395 . S
C1636 C1639 1.403 . S
H1637 C1643 0.930 . S
C1638 H1624 0.930 . S
C1638 C1636 1.395 . S
C1638 C1641 1.403 . S
C1639 C1636 1.403 . S
C1639 C1640 1.524 . S
C1639 C1643 1.400 . S
C1640 H1625 0.960 . S
C1640 H1626 0.960 . S
C1640 H1627 0.960 . S
C1640 C1639 1.524 . S
C1641 C1638 1.403 . S
C1641 C1642 1.392 . S
C1641 C1645 1.495 . S
C1642 C1641 1.392 . S
C1642 C1643 1.385 . S
C1642 C1644 1.478 . S
C1643 H1637 0.930 . S
C1643 C1639 1.400 . S
C1643 C1642 1.385 . S
C1644 C1642 1.478 . S
C1644 C1646 1.381 . S
C1644 C1650 1.383 . S
C1645 C1641 1.495 . S
C1645 H1651 0.959 . S
C1645 H1652 0.961 . S
C1645 H1653 0.960 . S
C1646 C1644 1.381 . S
C1646 C1647 1.394 . S
C1646 H1654 0.930 . S
C1647 C1646 1.394 . S
C1647 C1648 1.383 . S
C1647 H1655 0.929 . S
C1648 C1647 1.383 . S
C1648 C1649 1.377 . S
C1649 H1633 0.930 . S
C1649 C1648 1.377 . S
C1649 C1650 1.379 . S
C1650 H1634 0.931 . S
C1650 C1644 1.383 . S
C1650 C1649 1.379 . S
H1651 C1645 0.959 . S
H1652 C1645 0.961 . S
H1653 C1645 0.960 . S
H1654 C1646 0.930 . S
H1655 C1647 0.929 . S
H1656 C1664 0.929 . S
H1657 C1666 0.930 . S
H1658 C1668 0.930 . S
H1659 C1671 0.929 . S
H1660 C1674 0.930 . S
H1661 C1676 0.960 1_455 S
H1662 C1676 0.960 . S
H1663 C1676 0.960 . S
C1664 H1656 0.929 . S
C1664 C1665 1.377 . S
C1664 C1666 1.384 . S
C1665 C1664 1.377 . S
C1665 C1671 1.390 . S
C1666 H1657 0.930 . S
C1666 C1664 1.384 . S
C1666 C1667 1.372 . S
C1667 C1666 1.372 . S
C1667 C1668 1.400 . S
C1667 C1672 1.490 . S
C1668 H1658 0.930 . S
C1668 C1667 1.400 . S
C1668 C1671 1.386 . S
H1669 C1685 0.930 . S
H1670 C1686 0.931 . S
C1671 H1659 0.929 . S
C1671 C1665 1.390 . S
C1671 C1668 1.386 . S
C1672 C1667 1.490 . S
C1672 C1674 1.395 . S
C1672 C1675 1.403 . S
H1673 C1679 0.930 . S
C1674 H1660 0.930 . S
C1674 C1672 1.395 . S
C1674 C1677 1.403 1_655 S
C1675 C1672 1.403 . S
C1675 C1676 1.524 . S
C1675 C1679 1.400 1_655 S
C1676 H1661 0.960 1_655 S
C1676 H1662 0.960 . S
C1676 H1663 0.960 . S
C1676 C1675 1.524 . S
C1677 C1674 1.403 1_455 S
C1677 C1678 1.392 . S
C1677 C1681 1.495 . S
C1678 C1677 1.392 . S
C1678 C1679 1.385 . S
C1678 C1680 1.478 . S
C1679 H1673 0.930 . S
C1679 C1675 1.400 1_455 S
C1679 C1678 1.385 . S
C1680 C1678 1.478 . S
C1680 C1682 1.381 . S
C1680 C1686 1.383 . S
C1681 C1677 1.495 . S
C1681 H1687 0.959 1_455 S
C1681 H1688 0.961 . S
C1681 H1689 0.960 . S
C1682 C1680 1.381 . S
C1682 C1683 1.394 . S
C1682 H1690 0.930 . S
C1683 C1682 1.394 . S
C1683 C1684 1.383 . S
C1683 H1691 0.929 . S
C1684 C1683 1.383 . S
C1684 C1685 1.377 . S
C1685 H1669 0.930 . S
C1685 C1684 1.377 . S
C1685 C1686 1.379 . S
C1686 H1670 0.931 . S
C1686 C1680 1.383 . S
C1686 C1685 1.379 . S
H1687 C1681 0.959 1_655 S
H1688 C1681 0.961 . S
H1689 C1681 0.960 . S
H1690 C1682 0.930 . S
H1691 C1683 0.929 . S
H1692 C1700 0.929 . S
H1693 C1702 0.930 . S
H1694 C1704 0.930 . S
H1695 C1707 0.929 . S
H1696 C1710 0.930 . S
H1697 C1712 0.960 . S
H1698 C1712 0.960 . S
H1699 C1712 0.960 . S
C1700 H1692 0.929 . S
C1700 C1701 1.377 . S
C1700 C1702 1.384 . S
C1701 C1700 1.377 . S
C1701 C1707 1.390 . S
C1702 H1693 0.930 . S
C1702 C1700 1.384 . S
C1702 C1703 1.372 . S
C1703 C1702 1.372 . S
C1703 C1704 1.400 . S
C1703 C1708 1.490 . S
C1704 H1694 0.930 . S
C1704 C1703 1.400 . S
C1704 C1707 1.386 . S
H1705 C1721 0.930 . S
H1706 C1722 0.931 . S
C1707 H1695 0.929 . S
C1707 C1701 1.390 . S
C1707 C1704 1.386 . S
C1708 C1703 1.490 . S
C1708 C1710 1.395 . S
C1708 C1711 1.403 . S
H1709 C1715 0.930 . S
C1710 H1696 0.930 . S
C1710 C1708 1.395 . S
C1710 C1713 1.403 . S
C1711 C1708 1.403 . S
C1711 C1712 1.524 . S
C1711 C1715 1.400 . S
C1712 H1697 0.960 . S
C1712 H1698 0.960 . S
C1712 H1699 0.960 . S
C1712 C1711 1.524 . S
C1713 C1710 1.403 . S
C1713 C1714 1.392 . S
C1713 C1717 1.495 . S
C1714 C1713 1.392 . S
C1714 C1715 1.385 . S
C1714 C1716 1.478 . S
C1715 H1709 0.930 . S
C1715 C1711 1.400 . S
C1715 C1714 1.385 . S
C1716 C1714 1.478 . S
C1716 C1718 1.381 . S
C1716 C1722 1.383 . S
C1717 C1713 1.495 . S
C1717 H1723 0.959 . S
C1717 H1724 0.961 . S
C1717 H1725 0.960 . S
C1718 C1716 1.381 . S
C1718 C1719 1.394 . S
C1718 H1726 0.930 . S
C1719 C1718 1.394 . S
C1719 C1720 1.383 . S
C1719 H1727 0.929 . S
C1720 C1719 1.383 . S
C1720 C1721 1.377 . S
C1721 H1705 0.930 . S
C1721 C1720 1.377 . S
C1721 C1722 1.379 . S
C1722 H1706 0.931 . S
C1722 C1716 1.383 . S
C1722 C1721 1.379 . S
H1723 C1717 0.959 . S
H1724 C1717 0.961 . S
H1725 C1717 0.960 . S
H1726 C1718 0.930 . S
H1727 C1719 0.929 . S
H1728 C1736 0.929 . S
H1729 C1738 0.930 . S
H1730 C1740 0.930 . S
H1731 C1743 0.929 . S
H1732 C1746 0.930 . S
H1733 C1748 0.954 . S
H1734 C1748 0.959 1_565 S
H1735 C1748 0.968 1_565 S
C1736 H1728 0.929 . S
C1736 C1737 1.377 . S
C1736 C1738 1.384 . S
C1737 C1736 1.377 . S
C1737 C1743 1.390 . S
C1738 H1729 0.930 . S
C1738 C1736 1.384 . S
C1738 C1739 1.372 . S
C1739 C1738 1.372 . S
C1739 C1740 1.400 . S
C1739 C1744 1.490 . S
C1740 H1730 0.930 . S
C1740 C1739 1.400 . S
C1740 C1743 1.386 . S
H1741 C1757 0.930 . S
H1742 C1758 0.931 . S
C1743 H1731 0.929 . S
C1743 C1737 1.390 . S
C1743 C1740 1.386 . S
C1744 C1739 1.490 . S
C1744 C1746 1.395 . S
C1744 C1747 1.432 . S
H1745 C1751 0.930 . S
C1746 H1732 0.930 . S
C1746 C1744 1.395 . S
C1746 C1749 1.399 1_565 S
C1747 C1744 1.432 . S
C1747 C1748 1.528 1_565 S
C1747 C1751 1.364 1_565 S
C1748 H1733 0.954 . S
C1748 H1734 0.959 1_545 S
C1748 H1735 0.968 1_545 S
C1748 C1747 1.528 1_545 S
C1749 C1746 1.399 1_545 S
C1749 C1750 1.396 . S
C1749 C1753 1.496 1_545 S
C1750 C1749 1.396 . S
C1750 C1751 1.385 . S
C1750 C1752 1.478 . S
C1751 H1745 0.930 . S
C1751 C1747 1.364 1_545 S
C1751 C1750 1.385 . S
C1752 C1750 1.478 . S
C1752 C1754 1.381 . S
C1752 C1758 1.383 . S
C1753 C1749 1.496 1_565 S
C1753 H1759 0.957 . S
C1753 H1760 0.961 1_565 S
C1753 H1761 0.962 1_565 S
C1754 C1752 1.381 . S
C1754 C1755 1.394 . S
C1754 H1762 0.930 . S
C1755 C1754 1.394 . S
C1755 C1756 1.383 . S
C1755 H1763 0.929 . S
C1756 C1755 1.383 . S
C1756 C1757 1.377 . S
C1757 H1741 0.930 . S
C1757 C1756 1.377 . S
C1757 C1758 1.379 . S
C1758 H1742 0.931 . S
C1758 C1752 1.383 . S
C1758 C1757 1.379 . S
H1759 C1753 0.957 . S
H1760 C1753 0.961 1_545 S
H1761 C1753 0.962 1_545 S
H1762 C1754 0.930 . S
H1763 C1755 0.929 . S
H1764 C1772 0.929 . S
H1765 C1774 0.930 . S
H1766 C1776 0.930 . S
H1767 C1779 0.929 . S
H1768 C1782 0.930 . S
H1769 C1784 0.960 . S
H1770 C1784 0.960 . S
H1771 C1784 0.960 . S
C1772 H1764 0.929 . S
C1772 C1773 1.377 . S
C1772 C1774 1.384 . S
C1773 C1772 1.377 . S
C1773 C1779 1.390 . S
C1774 H1765 0.930 . S
C1774 C1772 1.384 . S
C1774 C1775 1.372 . S
C1775 C1774 1.372 . S
C1775 C1776 1.400 . S
C1775 C1780 1.490 . S
C1776 H1766 0.930 . S
C1776 C1775 1.400 . S
C1776 C1779 1.386 . S
H1777 C1793 0.930 . S
H1778 C1794 0.931 . S
C1779 H1767 0.929 . S
C1779 C1773 1.390 . S
C1779 C1776 1.386 . S
C1780 C1775 1.490 . S
C1780 C1782 1.395 . S
C1780 C1783 1.403 . S
H1781 C1787 0.930 . S
C1782 H1768 0.930 . S
C1782 C1780 1.395 . S
C1782 C1785 1.403 1_565 S
C1783 C1780 1.403 . S
C1783 C1784 1.524 . S
C1783 C1787 1.400 1_565 S
C1784 H1769 0.960 . S
C1784 H1770 0.960 . S
C1784 H1771 0.960 . S
C1784 C1783 1.524 . S
C1785 C1782 1.403 1_545 S
C1785 C1786 1.392 . S
C1785 C1789 1.495 . S
C1786 C1785 1.392 . S
C1786 C1787 1.385 . S
C1786 C1788 1.478 . S
C1787 H1781 0.930 . S
C1787 C1783 1.400 1_545 S
C1787 C1786 1.385 . S
C1788 C1786 1.478 . S
C1788 C1790 1.381 . S
C1788 C1794 1.383 . S
C1789 C1785 1.495 . S
C1789 H1795 0.959 . S
C1789 H1796 0.961 . S
C1789 H1797 0.960 . S
C1790 C1788 1.381 . S
C1790 C1791 1.394 . S
C1790 H1798 0.930 . S
C1791 C1790 1.394 . S
C1791 C1792 1.383 . S
C1791 H1799 0.929 . S
C1792 C1791 1.383 . S
C1792 C1793 1.377 . S
C1793 H1777 0.930 . S
C1793 C1792 1.377 . S
C1793 C1794 1.379 . S
C1794 H1778 0.931 . S
C1794 C1788 1.383 . S
C1794 C1793 1.379 . S
H1795 C1789 0.959 . S
H1796 C1789 0.961 . S
H1797 C1789 0.960 . S
H1798 C1790 0.930 . S
H1799 C1791 0.929 . S
H1800 C1808 0.929 . S
H1801 C1810 0.930 . S
H1802 C1812 0.930 . S
H1803 C1815 0.929 . S
H1804 C1818 0.930 . S
H1805 C1820 0.959 1_455 S
H1806 C1820 0.960 . S
H1807 C1820 0.960 . S
C1808 H1800 0.929 . S
C1808 C1809 1.377 . S
C1808 C1810 1.384 . S
C1809 C1808 1.377 . S
C1809 C1815 1.390 . S
C1810 H1801 0.930 . S
C1810 C1808 1.384 . S
C1810 C1811 1.372 . S
C1811 C1810 1.372 . S
C1811 C1812 1.400 . S
C1811 C1816 1.490 . S
C1812 H1802 0.930 . S
C1812 C1811 1.400 . S
C1812 C1815 1.386 . S
H1813 C1829 0.930 . S
H1814 C1830 0.931 . S
C1815 H1803 0.929 . S
C1815 C1809 1.390 . S
C1815 C1812 1.386 . S
C1816 C1811 1.490 . S
C1816 C1818 1.395 . S
C1816 C1819 1.403 . S
H1817 C1823 0.930 . S
C1818 H1804 0.930 . S
C1818 C1816 1.395 . S
C1818 C1821 1.403 1_655 S
C1819 C1816 1.403 . S
C1819 C1820 1.524 . S
C1819 C1823 1.400 1_655 S
C1820 H1805 0.959 1_655 S
C1820 H1806 0.960 . S
C1820 H1807 0.960 . S
C1820 C1819 1.524 . S
C1821 C1818 1.403 1_455 S
C1821 C1822 1.392 . S
C1821 C1825 1.495 . S
C1822 C1821 1.392 . S
C1822 C1823 1.385 . S
C1822 C1824 1.478 . S
C1823 H1817 0.930 . S
C1823 C1819 1.400 1_455 S
C1823 C1822 1.385 . S
C1824 C1822 1.478 . S
C1824 C1826 1.381 . S
C1824 C1830 1.383 . S
C1825 C1821 1.495 . S
C1825 H1831 0.959 1_455 S
C1825 H1832 0.961 . S
C1825 H1833 0.960 . S
C1826 C1824 1.381 . S
C1826 C1827 1.394 . S
C1826 H1834 0.930 . S
C1827 C1826 1.394 . S
C1827 C1828 1.383 . S
C1827 H1835 0.929 . S
C1828 C1827 1.383 . S
C1828 C1829 1.377 . S
C1829 H1813 0.930 . S
C1829 C1828 1.377 . S
C1829 C1830 1.379 . S
C1830 H1814 0.931 . S
C1830 C1824 1.383 . S
C1830 C1829 1.379 . S
H1831 C1825 0.959 1_655 S
H1832 C1825 0.961 . S
H1833 C1825 0.960 . S
H1834 C1826 0.930 . S
H1835 C1827 0.929 . S
H1836 C1844 0.929 . S
H1837 C1846 0.930 . S
H1838 C1848 0.930 . S
H1839 C1851 0.929 . S
H1840 C1854 0.930 . S
H1841 C1856 0.960 . S
H1842 C1856 0.960 . S
H1843 C1856 0.960 . S
C1844 H1836 0.929 . S
C1844 C1845 1.377 . S
C1844 C1846 1.384 . S
C1845 C1844 1.377 . S
C1845 C1851 1.390 . S
C1846 H1837 0.930 . S
C1846 C1844 1.384 . S
C1846 C1847 1.372 . S
C1847 C1846 1.372 . S
C1847 C1848 1.400 . S
C1847 C1852 1.490 . S
C1848 H1838 0.930 . S
C1848 C1847 1.400 . S
C1848 C1851 1.386 . S
H1849 C1865 0.930 . S
H1850 C1866 0.931 . S
C1851 H1839 0.929 . S
C1851 C1845 1.390 . S
C1851 C1848 1.386 . S
C1852 C1847 1.490 . S
C1852 C1854 1.395 . S
C1852 C1855 1.403 . S
H1853 C1859 0.930 . S
C1854 H1840 0.930 . S
C1854 C1852 1.395 . S
C1854 C1857 1.403 . S
C1855 C1852 1.403 . S
C1855 C1856 1.524 . S
C1855 C1859 1.400 . S
C1856 H1841 0.960 . S
C1856 H1842 0.960 . S
C1856 H1843 0.960 . S
C1856 C1855 1.524 . S
C1857 C1854 1.403 . S
C1857 C1858 1.392 . S
C1857 C1861 1.495 . S
C1858 C1857 1.392 . S
C1858 C1859 1.385 . S
C1858 C1860 1.478 . S
C1859 H1853 0.930 . S
C1859 C1855 1.400 . S
C1859 C1858 1.385 . S
C1860 C1858 1.478 . S
C1860 C1862 1.381 . S
C1860 C1866 1.383 . S
C1861 C1857 1.495 . S
C1861 H1867 0.959 . S
C1861 H1868 0.961 . S
C1861 H1869 0.960 . S
C1862 C1860 1.381 . S
C1862 C1863 1.394 . S
C1862 H1870 0.930 . S
C1863 C1862 1.394 . S
C1863 C1864 1.383 . S
C1863 H1871 0.929 . S
C1864 C1863 1.383 . S
C1864 C1865 1.377 . S
C1865 H1849 0.930 . S
C1865 C1864 1.377 . S
C1865 C1866 1.379 . S
C1866 H1850 0.931 . S
C1866 C1860 1.383 . S
C1866 C1865 1.379 . S
H1867 C1861 0.959 . S
H1868 C1861 0.961 . S
H1869 C1861 0.960 . S
H1870 C1862 0.930 . S
H1871 C1863 0.929 . S
H1872 C1880 0.929 . S
H1873 C1882 0.930 . S
H1874 C1884 0.930 . S
H1875 C1887 0.929 . S
H1876 C1890 0.930 . S
H1877 C1892 0.960 . S
H1878 C1892 0.960 . S
H1879 C1892 0.960 . S
C1880 H1872 0.929 . S
C1880 C1881 1.377 . S
C1880 C1882 1.384 . S
C1881 C1880 1.377 . S
C1881 C1887 1.390 . S
C1882 H1873 0.930 . S
C1882 C1880 1.384 . S
C1882 C1883 1.372 . S
C1883 C1882 1.372 . S
C1883 C1884 1.400 . S
C1883 C1888 1.490 . S
C1884 H1874 0.930 . S
C1884 C1883 1.400 . S
C1884 C1887 1.386 . S
H1885 C1901 0.930 . S
H1886 C1902 0.931 . S
C1887 H1875 0.929 . S
C1887 C1881 1.390 . S
C1887 C1884 1.386 . S
C1888 C1883 1.490 . S
C1888 C1890 1.395 . S
C1888 C1891 1.403 . S
H1889 C1895 0.930 . S
C1890 H1876 0.930 . S
C1890 C1888 1.395 . S
C1890 C1893 1.403 . S
C1891 C1888 1.403 . S
C1891 C1892 1.524 . S
C1891 C1895 1.400 . S
C1892 H1877 0.960 . S
C1892 H1878 0.960 . S
C1892 H1879 0.960 . S
C1892 C1891 1.524 . S
C1893 C1890 1.403 . S
C1893 C1894 1.392 . S
C1893 C1897 1.495 . S
C1894 C1893 1.392 . S
C1894 C1895 1.385 . S
C1894 C1896 1.478 . S
C1895 H1889 0.930 . S
C1895 C1891 1.400 . S
C1895 C1894 1.385 . S
C1896 C1894 1.478 . S
C1896 C1898 1.381 . S
C1896 C1902 1.383 . S
C1897 C1893 1.495 . S
C1897 H1903 0.959 . S
C1897 H1904 0.961 . S
C1897 H1905 0.960 . S
C1898 C1896 1.381 . S
C1898 C1899 1.394 . S
C1898 H1906 0.930 . S
C1899 C1898 1.394 . S
C1899 C1900 1.383 . S
C1899 H1907 0.929 . S
C1900 C1899 1.383 . S
C1900 C1901 1.377 . S
C1901 H1885 0.930 . S
C1901 C1900 1.377 . S
C1901 C1902 1.379 . S
C1902 H1886 0.931 . S
C1902 C1896 1.383 . S
C1902 C1901 1.379 . S
H1903 C1897 0.959 . S
H1904 C1897 0.961 . S
H1905 C1897 0.960 . S
H1906 C1898 0.930 . S
H1907 C1899 0.929 . S
H1908 C1916 0.929 . S
H1909 C1918 0.930 . S
H1910 C1920 0.930 . S
H1911 C1923 0.920 . S
H1912 C1926 0.930 . S
H1913 C1928 0.960 . S
H1914 C1928 0.960 . S
H1915 C1928 0.960 . S
C1916 H1908 0.929 . S
C1916 C1917 1.377 . S
C1916 C1918 1.384 . S
C1917 C1916 1.377 . S
C1917 C1923 1.399 1_565 S
C1918 H1909 0.930 . S
C1918 C1916 1.384 . S
C1918 C1919 1.372 . S
C1919 C1918 1.372 . S
C1919 C1920 1.400 1_565 S
C1919 C1924 1.492 . S
C1920 H1910 0.930 . S
C1920 C1919 1.400 1_545 S
C1920 C1923 1.388 . S
H1921 C1937 0.930 . S
H1922 C1938 0.931 . S
C1923 H1911 0.920 . S
C1923 C1917 1.399 1_545 S
C1923 C1920 1.388 . S
C1924 C1919 1.492 . S
C1924 C1926 1.375 1_565 S
C1924 C1927 1.421 . S
H1925 C1931 0.930 . S
C1926 H1912 0.930 . S
C1926 C1924 1.375 1_545 S
C1926 C1929 1.403 . S
C1927 C1924 1.421 . S
C1927 C1928 1.524 . S
C1927 C1931 1.400 . S
C1928 H1913 0.960 . S
C1928 H1914 0.960 . S
C1928 H1915 0.960 . S
C1928 C1927 1.524 . S
C1929 C1926 1.403 . S
C1929 C1930 1.392 . S
C1929 C1933 1.495 . S
C1930 C1929 1.392 . S
C1930 C1931 1.385 1_545 S
C1930 C1932 1.478 . S
C1931 H1925 0.930 . S
C1931 C1927 1.400 . S
C1931 C1930 1.385 1_565 S
C1932 C1930 1.478 . S
C1932 C1934 1.383 1_545 S
C1932 C1938 1.383 . S
C1933 C1929 1.495 . S
C1933 H1939 0.959 . S
C1933 H1940 0.961 . S
C1933 H1941 0.960 . S
C1934 C1932 1.383 1_565 S
C1934 C1935 1.394 . S
C1934 H1942 0.927 . S
C1935 C1934 1.394 . S
C1935 C1936 1.389 1_565 S
C1935 H1943 0.925 . S
C1936 C1935 1.389 1_545 S
C1936 C1937 1.377 . S
C1937 H1921 0.930 . S
C1937 C1936 1.377 . S
C1937 C1938 1.379 . S
C1938 H1922 0.931 . S
C1938 C1932 1.383 . S
C1938 C1937 1.379 . S
H1939 C1933 0.959 . S
H1940 C1933 0.961 . S
H1941 C1933 0.960 . S
H1942 C1934 0.927 . S
H1943 C1935 0.925 . S
H1944 C1952 0.929 . S
H1945 C1954 0.930 . S
H1946 C1956 0.930 . S
H1947 C1959 0.929 . S
H1948 C1962 0.930 . S
H1949 C1964 0.960 . S
H1950 C1964 0.960 . S
H1951 C1964 0.960 . S
C1952 H1944 0.929 . S
C1952 C1953 1.377 1_455 S
C1952 C1954 1.384 . S
C1953 C1952 1.377 1_655 S
C1953 C1959 1.390 . S
C1954 H1945 0.930 . S
C1954 C1952 1.384 . S
C1954 C1955 1.372 1_455 S
C1955 C1954 1.372 1_655 S
C1955 C1956 1.400 . S
C1955 C1960 1.490 1_655 S
C1956 H1946 0.930 . S
C1956 C1955 1.400 . S
C1956 C1959 1.386 . S
H1957 C1973 0.930 . S
H1958 C1974 0.931 . S
C1959 H1947 0.929 . S
C1959 C1953 1.390 . S
C1959 C1956 1.386 . S
C1960 C1955 1.490 1_455 S
C1960 C1962 1.394 . S
C1960 C1963 1.403 1_455 S
H1961 C1967 0.930 . S
C1962 H1948 0.930 . S
C1962 C1960 1.394 . S
C1962 C1965 1.403 . S
C1963 C1960 1.403 1_655 S
C1963 C1964 1.524 . S
C1963 C1967 1.400 . S
C1964 H1949 0.960 . S
C1964 H1950 0.960 . S
C1964 H1951 0.960 . S
C1964 C1963 1.524 . S
C1965 C1962 1.403 . S
C1965 C1966 1.392 . S
C1965 C1969 1.495 . S
C1966 C1965 1.392 . S
C1966 C1967 1.385 1_455 S
C1966 C1968 1.478 . S
C1967 H1961 0.930 . S
C1967 C1963 1.400 . S
C1967 C1966 1.385 1_655 S
C1968 C1966 1.478 . S
C1968 C1970 1.381 . S
C1968 C1974 1.383 1_455 S
C1969 C1965 1.495 . S
C1969 H1975 0.959 . S
C1969 H1976 0.961 . S
C1969 H1977 0.960 . S
C1970 C1968 1.381 . S
C1970 C1971 1.394 . S
C1970 H1978 0.930 . S
C1971 C1970 1.394 . S
C1971 C1972 1.383 . S
C1971 H1979 0.929 . S
C1972 C1971 1.383 . S
C1972 C1973 1.377 1_455 S
C1973 H1957 0.930 . S
C1973 C1972 1.377 1_655 S
C1973 C1974 1.379 . S
C1974 H1958 0.931 . S
C1974 C1968 1.383 1_655 S
C1974 C1973 1.379 . S
H1975 C1969 0.959 . S
H1976 C1969 0.961 . S
H1977 C1969 0.960 . S
H1978 C1970 0.930 . S
H1979 C1971 0.929 . S
H1980 C1988 0.929 . S
H1981 C1990 0.930 . S
H1982 C1992 0.930 . S
H1983 C1995 0.929 . S
H1984 C1998 0.930 . S
H1985 C2000 0.960 . S
H1986 C2000 0.960 . S
H1987 C2000 0.960 . S
C1988 H1980 0.929 . S
C1988 C1989 1.377 . S
C1988 C1990 1.384 . S
C1989 C1988 1.377 . S
C1989 C1995 1.390 . S
C1990 H1981 0.930 . S
C1990 C1988 1.384 . S
C1990 C1991 1.372 . S
C1991 C1990 1.372 . S
C1991 C1992 1.400 . S
C1991 C1996 1.490 . S
C1992 H1982 0.930 . S
C1992 C1991 1.400 . S
C1992 C1995 1.386 . S
H1993 C2009 0.930 . S
H1994 C2010 0.931 . S
C1995 H1983 0.929 . S
C1995 C1989 1.390 . S
C1995 C1992 1.386 . S
C1996 C1991 1.490 . S
C1996 C1998 1.395 . S
C1996 C1999 1.403 . S
H1997 C2003 0.930 . S
C1998 H1984 0.930 . S
C1998 C1996 1.395 . S
C1998 C2001 1.403 . S
C1999 C1996 1.403 . S
C1999 C2000 1.524 . S
C1999 C2003 1.400 . S
C2000 H1985 0.960 . S
C2000 H1986 0.960 . S
C2000 H1987 0.960 . S
C2000 C1999 1.524 . S
C2001 C1998 1.403 . S
C2001 C2002 1.392 . S
C2001 C2005 1.495 . S
C2002 C2001 1.392 . S
C2002 C2003 1.385 . S
C2002 C2004 1.478 . S
C2003 H1997 0.930 . S
C2003 C1999 1.400 . S
C2003 C2002 1.385 . S
C2004 C2002 1.478 . S
C2004 C2006 1.381 . S
C2004 C2010 1.383 . S
C2005 C2001 1.495 . S
C2005 H2011 0.959 . S
C2005 H2012 0.961 . S
C2005 H2013 0.960 . S
C2006 C2004 1.381 . S
C2006 C2007 1.394 . S
C2006 H2014 0.930 . S
C2007 C2006 1.394 . S
C2007 C2008 1.383 . S
C2007 H2015 0.929 . S
C2008 C2007 1.383 . S
C2008 C2009 1.377 . S
C2009 H1993 0.930 . S
C2009 C2008 1.377 . S
C2009 C2010 1.379 . S
C2010 H1994 0.931 . S
C2010 C2004 1.383 . S
C2010 C2009 1.379 . S
H2011 C2005 0.959 . S
H2012 C2005 0.961 . S
H2013 C2005 0.960 . S
H2014 C2006 0.930 . S
H2015 C2007 0.929 . S
H2016 C2024 0.929 . S
H2017 C2026 0.930 . S
H2018 C2028 0.930 . S
H2019 C2031 0.929 . S
H2020 C2034 0.930 . S
H2021 C2036 0.960 . S
H2022 C2036 0.960 . S
H2023 C2036 0.960 . S
C2024 H2016 0.929 . S
C2024 C2025 1.377 . S
C2024 C2026 1.384 . S
C2025 C2024 1.377 . S
C2025 C2031 1.390 1_565 S
C2026 H2017 0.930 . S
C2026 C2024 1.384 . S
C2026 C2027 1.372 . S
C2027 C2026 1.372 . S
C2027 C2028 1.400 1_565 S
C2027 C2032 1.495 . S
C2028 H2018 0.930 . S
C2028 C2027 1.400 1_545 S
C2028 C2031 1.386 . S
H2029 C2045 0.930 . S
H2030 C2046 0.931 . S
C2031 H2019 0.929 . S
C2031 C2025 1.390 1_545 S
C2031 C2028 1.386 . S
C2032 C2027 1.495 . S
C2032 C2034 1.347 1_565 S
C2032 C2035 1.447 . S
H2033 C2039 0.930 . S
C2034 H2020 0.930 . S
C2034 C2032 1.347 1_545 S
C2034 C2037 1.403 . S
C2035 C2032 1.447 . S
C2035 C2036 1.524 . S
C2035 C2039 1.400 . S
C2036 H2021 0.960 . S
C2036 H2022 0.960 . S
C2036 H2023 0.960 . S
C2036 C2035 1.524 . S
C2037 C2034 1.403 . S
C2037 C2038 1.392 . S
C2037 C2041 1.495 . S
C2038 C2037 1.392 . S
C2038 C2039 1.385 1_545 S
C2038 C2040 1.478 . S
C2039 H2033 0.930 . S
C2039 C2035 1.400 . S
C2039 C2038 1.385 1_565 S
C2040 C2038 1.478 . S
C2040 C2042 1.381 1_545 S
C2040 C2046 1.383 . S
C2041 C2037 1.495 . S
C2041 H2047 0.959 . S
C2041 H2048 0.961 . S
C2041 H2049 0.960 . S
C2042 C2040 1.381 1_565 S
C2042 C2043 1.394 . S
C2042 H2050 0.930 . S
C2043 C2042 1.394 . S
C2043 C2044 1.383 1_565 S
C2043 H2051 0.929 . S
C2044 C2043 1.383 1_545 S
C2044 C2045 1.377 . S
C2045 H2029 0.930 . S
C2045 C2044 1.377 . S
C2045 C2046 1.379 . S
C2046 H2030 0.931 . S
C2046 C2040 1.383 . S
C2046 C2045 1.379 . S
H2047 C2041 0.959 . S
H2048 C2041 0.961 . S
H2049 C2041 0.960 . S
H2050 C2042 0.930 . S
H2051 C2043 0.929 . S
H2052 C2060 0.929 . S
H2053 C2062 0.930 . S
H2054 C2064 0.930 . S
H2055 C2067 0.929 . S
H2056 C2070 0.930 . S
H2057 C2072 0.960 . S
H2058 C2072 0.949 1_655 S
H2059 C2072 0.960 . S
C2060 H2052 0.929 . S
C2060 C2061 1.377 . S
C2060 C2062 1.384 . S
C2061 C2060 1.377 . S
C2061 C2067 1.390 1_655 S
C2062 H2053 0.930 . S
C2062 C2060 1.384 . S
C2062 C2063 1.372 . S
C2063 C2062 1.372 . S
C2063 C2064 1.400 1_655 S
C2063 C2068 1.490 . S
C2064 H2054 0.930 . S
C2064 C2063 1.400 1_455 S
C2064 C2067 1.386 . S
H2065 C2081 0.930 . S
H2066 C2082 0.931 . S
C2067 H2055 0.929 . S
C2067 C2061 1.390 1_455 S
C2067 C2064 1.386 . S
C2068 C2063 1.490 . S
C2068 C2070 1.395 . S
C2068 C2071 1.403 1_655 S
H2069 C2075 0.930 . S
C2070 H2056 0.930 . S
C2070 C2068 1.395 . S
C2070 C2073 1.403 . S
C2071 C2068 1.403 1_455 S
C2071 C2072 1.524 . S
C2071 C2075 1.400 . S
C2072 H2057 0.960 . S
C2072 H2058 0.949 1_455 S
C2072 H2059 0.960 . S
C2072 C2071 1.524 . S
C2073 C2070 1.403 . S
C2073 C2074 1.392 . S
C2073 C2077 1.495 . S
C2074 C2073 1.392 . S
C2074 C2075 1.385 1_655 S
C2074 C2076 1.478 . S
C2075 H2069 0.930 . S
C2075 C2071 1.400 . S
C2075 C2074 1.385 1_455 S
C2076 C2074 1.478 . S
C2076 C2078 1.386 . S
C2076 C2082 1.377 1_655 S
C2077 C2073 1.495 . S
C2077 H2083 0.959 . S
C2077 H2084 0.961 . S
C2077 H2085 0.960 . S
C2078 C2076 1.386 . S
C2078 C2079 1.394 . S
C2078 H2086 0.930 . S
C2079 C2078 1.394 . S
C2079 C2080 1.383 1_655 S
C2079 H2087 0.929 . S
C2080 C2079 1.383 1_455 S
C2080 C2081 1.377 . S
C2081 H2065 0.930 . S
C2081 C2080 1.377 . S
C2081 C2082 1.379 . S
C2082 H2066 0.931 . S
C2082 C2076 1.377 1_455 S
C2082 C2081 1.379 . S
H2083 C2077 0.959 . S
H2084 C2077 0.961 . S
H2085 C2077 0.960 . S
H2086 C2078 0.930 . S
H2087 C2079 0.929 . S
H2088 C2096 0.929 . S
H2089 C2098 0.930 . S
H2090 C2100 0.930 . S
H2091 C2103 0.929 . S
H2092 C2106 0.930 . S
H2093 C2108 0.960 . S
H2094 C2108 0.960 . S
H2095 C2108 0.960 . S
C2096 H2088 0.929 . S
C2096 C2097 1.377 . S
C2096 C2098 1.384 . S
C2097 C2096 1.377 . S
C2097 C2103 1.390 . S
C2098 H2089 0.930 . S
C2098 C2096 1.384 . S
C2098 C2099 1.372 . S
C2099 C2098 1.372 . S
C2099 C2100 1.400 . S
C2099 C2104 1.490 . S
C2100 H2090 0.930 . S
C2100 C2099 1.400 . S
C2100 C2103 1.386 . S
H2101 C2117 0.930 . S
H2102 C2118 0.931 . S
C2103 H2091 0.929 . S
C2103 C2097 1.390 . S
C2103 C2100 1.386 . S
C2104 C2099 1.490 . S
C2104 C2106 1.395 . S
C2104 C2107 1.403 . S
H2105 C2111 0.930 . S
C2106 H2092 0.930 . S
C2106 C2104 1.395 . S
C2106 C2109 1.403 . S
C2107 C2104 1.403 . S
C2107 C2108 1.524 . S
C2107 C2111 1.400 . S
C2108 H2093 0.960 . S
C2108 H2094 0.960 . S
C2108 H2095 0.960 . S
C2108 C2107 1.524 . S
C2109 C2106 1.403 . S
C2109 C2110 1.392 . S
C2109 C2113 1.495 . S
C2110 C2109 1.392 . S
C2110 C2111 1.385 . S
C2110 C2112 1.478 . S
C2111 H2105 0.930 . S
C2111 C2107 1.400 . S
C2111 C2110 1.385 . S
C2112 C2110 1.478 . S
C2112 C2114 1.381 . S
C2112 C2118 1.383 . S
C2113 C2109 1.495 . S
C2113 H2119 0.959 . S
C2113 H2120 0.961 . S
C2113 H2121 0.960 . S
C2114 C2112 1.381 . S
C2114 C2115 1.394 . S
C2114 H2122 0.930 . S
C2115 C2114 1.394 . S
C2115 C2116 1.383 . S
C2115 H2123 0.929 . S
C2116 C2115 1.383 . S
C2116 C2117 1.377 . S
C2117 H2101 0.930 . S
C2117 C2116 1.377 . S
C2117 C2118 1.379 . S
C2118 H2102 0.931 . S
C2118 C2112 1.383 . S
C2118 C2117 1.379 . S
H2119 C2113 0.959 . S
H2120 C2113 0.961 . S
H2121 C2113 0.960 . S
H2122 C2114 0.930 . S
H2123 C2115 0.929 . S
H2124 C2132 0.929 . S
H2125 C2134 0.930 . S
H2126 C2136 0.930 . S
H2127 C2139 0.929 . S
H2128 C2142 0.930 . S
H2129 C2144 0.960 . S
H2130 C2144 0.960 . S
H2131 C2144 0.960 . S
C2132 H2124 0.929 . S
C2132 C2133 1.377 . S
C2132 C2134 1.384 . S
C2133 C2132 1.377 . S
C2133 C2139 1.390 . S
C2134 H2125 0.930 . S
C2134 C2132 1.384 . S
C2134 C2135 1.372 . S
C2135 C2134 1.372 . S
C2135 C2136 1.400 . S
C2135 C2140 1.490 . S
C2136 H2126 0.930 . S
C2136 C2135 1.400 . S
C2136 C2139 1.386 . S
H2137 C2153 0.930 . S
H2138 C2154 0.931 . S
C2139 H2127 0.929 . S
C2139 C2133 1.390 . S
C2139 C2136 1.386 . S
C2140 C2135 1.490 . S
C2140 C2142 1.395 . S
C2140 C2143 1.403 . S
H2141 C2147 0.930 . S
C2142 H2128 0.930 . S
C2142 C2140 1.395 . S
C2142 C2145 1.403 . S
C2143 C2140 1.403 . S
C2143 C2144 1.524 . S
C2143 C2147 1.400 . S
C2144 H2129 0.960 . S
C2144 H2130 0.960 . S
C2144 H2131 0.960 . S
C2144 C2143 1.524 . S
C2145 C2142 1.403 . S
C2145 C2146 1.392 . S
C2145 C2149 1.495 . S
C2146 C2145 1.392 . S
C2146 C2147 1.385 . S
C2146 C2148 1.478 . S
C2147 H2141 0.930 . S
C2147 C2143 1.400 . S
C2147 C2146 1.385 . S
C2148 C2146 1.478 . S
C2148 C2150 1.381 . S
C2148 C2154 1.383 . S
C2149 C2145 1.495 . S
C2149 H2155 0.959 . S
C2149 H2156 0.961 . S
C2149 H2157 0.960 . S
C2150 C2148 1.381 . S
C2150 C2151 1.394 . S
C2150 H2158 0.930 . S
C2151 C2150 1.394 . S
C2151 C2152 1.383 . S
C2151 H2159 0.929 . S
C2152 C2151 1.383 . S
C2152 C2153 1.377 . S
C2153 H2137 0.930 . S
C2153 C2152 1.377 . S
C2153 C2154 1.379 . S
C2154 H2138 0.931 . S
C2154 C2148 1.383 . S
C2154 C2153 1.379 . S
H2155 C2149 0.959 . S
H2156 C2149 0.961 . S
H2157 C2149 0.960 . S
H2158 C2150 0.930 . S
H2159 C2151 0.929 . S
H2160 C2168 0.929 . S
H2161 C2170 0.930 . S
H2162 C2172 0.930 . S
H2163 C2175 0.929 . S
H2164 C2178 0.930 . S
H2165 C2180 0.960 . S
H2166 C2180 0.960 . S
H2167 C2180 0.960 . S
C2168 H2160 0.929 . S
C2168 C2169 1.377 . S
C2168 C2170 1.384 . S
C2169 C2168 1.377 . S
C2169 C2175 1.390 . S
C2170 H2161 0.930 . S
C2170 C2168 1.384 . S
C2170 C2171 1.372 . S
C2171 C2170 1.372 . S
C2171 C2172 1.400 . S
C2171 C2176 1.490 . S
C2172 H2162 0.930 . S
C2172 C2171 1.400 . S
C2172 C2175 1.386 . S
H2173 C2189 0.930 . S
H2174 C2190 0.931 . S
C2175 H2163 0.929 . S
C2175 C2169 1.390 . S
C2175 C2172 1.386 . S
C2176 C2171 1.490 . S
C2176 C2178 1.395 . S
C2176 C2179 1.403 . S
H2177 C2183 0.930 . S
C2178 H2164 0.930 . S
C2178 C2176 1.395 . S
C2178 C2181 1.403 . S
C2179 C2176 1.403 . S
C2179 C2180 1.524 . S
C2179 C2183 1.400 . S
C2180 H2165 0.960 . S
C2180 H2166 0.960 . S
C2180 H2167 0.960 . S
C2180 C2179 1.524 . S
C2181 C2178 1.403 . S
C2181 C2182 1.392 . S
C2181 C2185 1.495 . S
C2182 C2181 1.392 . S
C2182 C2183 1.385 . S
C2182 C2184 1.478 . S
C2183 H2177 0.930 . S
C2183 C2179 1.400 . S
C2183 C2182 1.385 . S
C2184 C2182 1.478 . S
C2184 C2186 1.381 . S
C2184 C2190 1.383 . S
C2185 C2181 1.495 . S
C2185 H2191 0.959 . S
C2185 H2192 0.961 . S
C2185 H2193 0.960 . S
C2186 C2184 1.381 . S
C2186 C2187 1.394 . S
C2186 H2194 0.930 . S
C2187 C2186 1.394 . S
C2187 C2188 1.383 . S
C2187 H2195 0.929 . S
C2188 C2187 1.383 . S
C2188 C2189 1.377 . S
C2189 H2173 0.930 . S
C2189 C2188 1.377 . S
C2189 C2190 1.379 . S
C2190 H2174 0.931 . S
C2190 C2184 1.383 . S
C2190 C2189 1.379 . S
H2191 C2185 0.959 . S
H2192 C2185 0.961 . S
H2193 C2185 0.960 . S
H2194 C2186 0.930 . S
H2195 C2187 0.929 . S
H2196 C2204 0.938 . S
H2197 C2206 0.930 . S
H2198 C2208 0.930 . S
H2199 C2211 0.929 . S
H2200 C2214 0.930 . S
H2201 C2216 0.960 . S
H2202 C2216 0.960 . S
H2203 C2216 0.960 . S
C2204 H2196 0.938 . S
C2204 C2205 1.388 . S
C2204 C2206 1.365 1_556 S
C2205 C2204 1.388 . S
C2205 C2211 1.390 . S
C2206 H2197 0.930 . S
C2206 C2204 1.365 1_554 S
C2206 C2207 1.372 . S
C2207 C2206 1.372 . S
C2207 C2208 1.400 . S
C2207 C2212 1.490 . S
C2208 H2198 0.930 . S
C2208 C2207 1.400 . S
C2208 C2211 1.386 1_554 S
H2209 C2225 0.930 . S
H2210 C2226 0.931 . S
C2211 H2199 0.929 . S
C2211 C2205 1.390 . S
C2211 C2208 1.386 1_556 S
C2212 C2207 1.490 . S
C2212 C2214 1.395 . S
C2212 C2215 1.403 . S
H2213 C2219 0.930 . S
C2214 H2200 0.930 . S
C2214 C2212 1.395 . S
C2214 C2217 1.403 . S
C2215 C2212 1.403 . S
C2215 C2216 1.524 . S
C2215 C2219 1.400 . S
C2216 H2201 0.960 . S
C2216 H2202 0.960 . S
C2216 H2203 0.960 . S
C2216 C2215 1.524 . S
C2217 C2214 1.403 . S
C2217 C2218 1.392 . S
C2217 C2221 1.495 . S
C2218 C2217 1.392 . S
C2218 C2219 1.385 . S
C2218 C2220 1.478 . S
C2219 H2213 0.930 . S
C2219 C2215 1.400 . S
C2219 C2218 1.385 . S
C2220 C2218 1.478 . S
C2220 C2222 1.381 . S
C2220 C2226 1.383 . S
C2221 C2217 1.495 . S
C2221 H2227 0.959 . S
C2221 H2228 0.961 . S
C2221 H2229 0.960 . S
C2222 C2220 1.381 . S
C2222 C2223 1.394 . S
C2222 H2230 0.930 . S
C2223 C2222 1.394 . S
C2223 C2224 1.383 . S
C2223 H2231 0.929 . S
C2224 C2223 1.383 . S
C2224 C2225 1.377 . S
C2225 H2209 0.930 . S
C2225 C2224 1.377 . S
C2225 C2226 1.379 . S
C2226 H2210 0.931 . S
C2226 C2220 1.383 . S
C2226 C2225 1.379 . S
H2227 C2221 0.959 . S
H2228 C2221 0.961 . S
H2229 C2221 0.960 . S
H2230 C2222 0.930 . S
H2231 C2223 0.929 . S
H2232 C2240 0.929 . S
H2233 C2242 0.930 . S
H2234 C2244 0.930 . S
H2235 C2247 0.929 . S
H2236 C2250 0.930 . S
H2237 C2252 0.960 . S
H2238 C2252 0.960 . S
H2239 C2252 0.960 . S
C2240 H2232 0.929 . S
C2240 C2241 1.377 . S
C2240 C2242 1.384 1_556 S
C2241 C2240 1.377 . S
C2241 C2247 1.390 . S
C2242 H2233 0.930 . S
C2242 C2240 1.384 1_554 S
C2242 C2243 1.372 . S
C2243 C2242 1.372 . S
C2243 C2244 1.400 . S
C2243 C2248 1.490 . S
C2244 H2234 0.930 . S
C2244 C2243 1.400 . S
C2244 C2247 1.386 1_554 S
H2245 C2261 0.930 . S
H2246 C2262 0.931 . S
C2247 H2235 0.929 . S
C2247 C2241 1.390 . S
C2247 C2244 1.386 1_556 S
C2248 C2243 1.490 . S
C2248 C2250 1.395 . S
C2248 C2251 1.403 . S
H2249 C2255 0.930 . S
C2250 H2236 0.930 . S
C2250 C2248 1.395 . S
C2250 C2253 1.403 . S
C2251 C2248 1.403 . S
C2251 C2252 1.524 . S
C2251 C2255 1.400 . S
C2252 H2237 0.960 . S
C2252 H2238 0.960 . S
C2252 H2239 0.960 . S
C2252 C2251 1.524 . S
C2253 C2250 1.403 . S
C2253 C2254 1.392 . S
C2253 C2257 1.495 . S
C2254 C2253 1.392 . S
C2254 C2255 1.385 . S
C2254 C2256 1.478 . S
C2255 H2249 0.930 . S
C2255 C2251 1.400 . S
C2255 C2254 1.385 . S
C2256 C2254 1.478 . S
C2256 C2258 1.381 . S
C2256 C2262 1.383 . S
C2257 C2253 1.495 . S
C2257 H2263 0.959 . S
C2257 H2264 0.961 . S
C2257 H2265 0.960 . S
C2258 C2256 1.381 . S
C2258 C2259 1.394 . S
C2258 H2266 0.930 . S
C2259 C2258 1.394 . S
C2259 C2260 1.383 . S
C2259 H2267 0.929 . S
C2260 C2259 1.383 . S
C2260 C2261 1.377 . S
C2261 H2245 0.930 . S
C2261 C2260 1.377 . S
C2261 C2262 1.379 . S
C2262 H2246 0.931 . S
C2262 C2256 1.383 . S
C2262 C2261 1.379 . S
H2263 C2257 0.959 . S
H2264 C2257 0.961 . S
H2265 C2257 0.960 . S
H2266 C2258 0.930 . S
H2267 C2259 0.929 . S
H2268 C2276 0.929 . S
H2269 C2278 0.930 . S
H2270 C2280 0.930 . S
H2271 C2283 0.929 1_556 S
H2272 C2286 0.930 . S
H2273 C2288 0.960 . S
H2274 C2288 0.960 . S
H2275 C2288 0.960 . S
C2276 H2268 0.929 . S
C2276 C2277 1.377 . S
C2276 C2278 1.384 1_556 S
C2277 C2276 1.377 . S
C2277 C2283 1.390 1_556 S
C2278 H2269 0.930 . S
C2278 C2276 1.384 1_554 S
C2278 C2279 1.372 . S
C2279 C2278 1.372 . S
C2279 C2280 1.400 . S
C2279 C2284 1.490 . S
C2280 H2270 0.930 . S
C2280 C2279 1.400 . S
C2280 C2283 1.386 . S
H2281 C2297 0.930 . S
H2282 C2298 0.931 . S
C2283 H2271 0.929 1_554 S
C2283 C2277 1.390 1_554 S
C2283 C2280 1.386 . S
C2284 C2279 1.490 . S
C2284 C2286 1.395 . S
C2284 C2287 1.403 . S
H2285 C2291 0.930 . S
C2286 H2272 0.930 . S
C2286 C2284 1.395 . S
C2286 C2289 1.403 . S
C2287 C2284 1.403 . S
C2287 C2288 1.524 . S
C2287 C2291 1.400 . S
C2288 H2273 0.960 . S
C2288 H2274 0.960 . S
C2288 H2275 0.960 . S
C2288 C2287 1.524 . S
C2289 C2286 1.403 . S
C2289 C2290 1.392 . S
C2289 C2293 1.495 . S
C2290 C2289 1.392 . S
C2290 C2291 1.385 . S
C2290 C2292 1.478 . S
C2291 H2285 0.930 . S
C2291 C2287 1.400 . S
C2291 C2290 1.385 . S
C2292 C2290 1.478 . S
C2292 C2294 1.381 . S
C2292 C2298 1.383 . S
C2293 C2289 1.495 . S
C2293 H2299 0.959 . S
C2293 H2300 0.961 . S
C2293 H2301 0.960 . S
C2294 C2292 1.381 . S
C2294 C2295 1.394 . S
C2294 H2302 0.930 . S
C2295 C2294 1.394 . S
C2295 C2296 1.383 . S
C2295 H2303 0.929 . S
C2296 C2295 1.383 . S
C2296 C2297 1.377 . S
C2297 H2281 0.930 . S
C2297 C2296 1.377 . S
C2297 C2298 1.379 . S
C2298 H2282 0.931 . S
C2298 C2292 1.383 . S
C2298 C2297 1.379 . S
H2299 C2293 0.959 . S
H2300 C2293 0.961 . S
H2301 C2293 0.960 . S
H2302 C2294 0.930 . S
H2303 C2295 0.929 . S
H2304 C2312 0.929 . S
H2305 C2314 0.930 . S
H2306 C2316 0.930 . S
H2307 C2319 0.929 . S
H2308 C2322 0.930 . S
H2309 C2324 0.960 . S
H2310 C2324 0.960 . S
H2311 C2324 0.960 . S
C2312 H2304 0.929 . S
C2312 C2313 1.377 . S
C2312 C2314 1.384 . S
C2313 C2312 1.377 . S
C2313 C2319 1.390 . S
C2314 H2305 0.930 . S
C2314 C2312 1.384 . S
C2314 C2315 1.372 . S
C2315 C2314 1.372 . S
C2315 C2316 1.400 . S
C2315 C2320 1.490 . S
C2316 H2306 0.930 . S
C2316 C2315 1.400 . S
C2316 C2319 1.386 . S
H2317 C2333 0.930 . S
H2318 C2334 0.931 . S
C2319 H2307 0.929 . S
C2319 C2313 1.390 . S
C2319 C2316 1.386 . S
C2320 C2315 1.490 . S
C2320 C2322 1.395 . S
C2320 C2323 1.403 . S
H2321 C2327 0.930 . S
C2322 H2308 0.930 . S
C2322 C2320 1.395 . S
C2322 C2325 1.403 . S
C2323 C2320 1.403 . S
C2323 C2324 1.524 . S
C2323 C2327 1.400 . S
C2324 H2309 0.960 . S
C2324 H2310 0.960 . S
C2324 H2311 0.960 . S
C2324 C2323 1.524 . S
C2325 C2322 1.403 . S
C2325 C2326 1.392 . S
C2325 C2329 1.495 . S
C2326 C2325 1.392 . S
C2326 C2327 1.385 . S
C2326 C2328 1.476 . S
C2327 H2321 0.930 . S
C2327 C2323 1.400 . S
C2327 C2326 1.385 . S
C2328 C2326 1.476 . S
C2328 C2330 1.382 1_556 S
C2328 C2334 1.383 1_556 S
C2329 C2325 1.495 . S
C2329 H2335 0.959 . S
C2329 H2336 0.961 . S
C2329 H2337 0.960 . S
C2330 C2328 1.382 1_554 S
C2330 C2331 1.394 . S
C2330 H2338 0.930 . S
C2331 C2330 1.394 . S
C2331 C2332 1.383 . S
C2331 H2339 0.929 . S
C2332 C2331 1.383 . S
C2332 C2333 1.377 . S
C2333 H2317 0.930 . S
C2333 C2332 1.377 . S
C2333 C2334 1.379 . S
C2334 H2318 0.931 . S
C2334 C2328 1.383 1_554 S
C2334 C2333 1.379 . S
H2335 C2329 0.959 . S
H2336 C2329 0.961 . S
H2337 C2329 0.960 . S
H2338 C2330 0.930 . S
H2339 C2331 0.929 . S
H2340 C2348 0.929 . S
H2341 C2350 0.930 . S
H2342 C2352 0.930 . S
H2343 C2355 0.929 . S
H2344 C2358 0.930 . S
H2345 C2360 0.960 . S
H2346 C2360 0.960 . S
H2347 C2360 0.960 . S
C2348 H2340 0.929 . S
C2348 C2349 1.377 . S
C2348 C2350 1.384 . S
C2349 C2348 1.377 . S
C2349 C2355 1.390 . S
C2350 H2341 0.930 . S
C2350 C2348 1.384 . S
C2350 C2351 1.369 1_554 S
C2351 C2350 1.369 1_556 S
C2351 C2352 1.397 1_556 S
C2351 C2356 1.495 . S
C2352 H2342 0.930 . S
C2352 C2351 1.397 1_554 S
C2352 C2355 1.386 . S
H2353 C2369 0.930 . S
H2354 C2370 0.931 . S
C2355 H2343 0.929 . S
C2355 C2349 1.390 . S
C2355 C2352 1.386 . S
C2356 C2351 1.495 . S
C2356 C2358 1.395 . S
C2356 C2359 1.403 . S
H2357 C2363 0.930 . S
C2358 H2344 0.930 . S
C2358 C2356 1.395 . S
C2358 C2361 1.403 . S
C2359 C2356 1.403 . S
C2359 C2360 1.524 . S
C2359 C2363 1.400 . S
C2360 H2345 0.960 . S
C2360 H2346 0.960 . S
C2360 H2347 0.960 . S
C2360 C2359 1.524 . S
C2361 C2358 1.403 . S
C2361 C2362 1.392 . S
C2361 C2365 1.495 . S
C2362 C2361 1.392 . S
C2362 C2363 1.385 . S
C2362 C2364 1.478 . S
C2363 H2357 0.930 . S
C2363 C2359 1.400 . S
C2363 C2362 1.385 . S
C2364 C2362 1.478 . S
C2364 C2366 1.381 . S
C2364 C2370 1.383 . S
C2365 C2361 1.495 . S
C2365 H2371 0.959 . S
C2365 H2372 0.961 . S
C2365 H2373 0.960 . S
C2366 C2364 1.381 . S
C2366 C2367 1.394 . S
C2366 H2374 0.930 . S
C2367 C2366 1.394 . S
C2367 C2368 1.383 . S
C2367 H2375 0.929 . S
C2368 C2367 1.383 . S
C2368 C2369 1.377 . S
C2369 H2353 0.930 . S
C2369 C2368 1.377 . S
C2369 C2370 1.379 . S
C2370 H2354 0.931 . S
C2370 C2364 1.383 . S
C2370 C2369 1.379 . S
H2371 C2365 0.959 . S
H2372 C2365 0.961 . S
H2373 C2365 0.960 . S
H2374 C2366 0.930 . S
H2375 C2367 0.929 . S
H2376 C2384 0.929 . S
H2377 C2386 0.930 . S
H2378 C2388 0.930 . S
H2379 C2391 0.929 . S
H2380 C2394 0.930 . S
H2381 C2396 0.960 . S
H2382 C2396 0.960 . S
H2383 C2396 0.960 . S
C2384 H2376 0.929 . S
C2384 C2385 1.377 . S
C2384 C2386 1.384 . S
C2385 C2384 1.377 . S
C2385 C2391 1.390 . S
C2386 H2377 0.930 . S
C2386 C2384 1.384 . S
C2386 C2387 1.372 . S
C2387 C2386 1.372 . S
C2387 C2388 1.400 . S
C2387 C2392 1.490 . S
C2388 H2378 0.930 . S
C2388 C2387 1.400 . S
C2388 C2391 1.386 . S
H2389 C2405 0.930 . S
H2390 C2406 0.931 . S
C2391 H2379 0.929 . S
C2391 C2385 1.390 . S
C2391 C2388 1.386 . S
C2392 C2387 1.490 . S
C2392 C2394 1.395 . S
C2392 C2395 1.403 . S
H2393 C2399 0.930 . S
C2394 H2380 0.930 . S
C2394 C2392 1.395 . S
C2394 C2397 1.403 . S
C2395 C2392 1.403 . S
C2395 C2396 1.524 . S
C2395 C2399 1.400 . S
C2396 H2381 0.960 . S
C2396 H2382 0.960 . S
C2396 H2383 0.960 . S
C2396 C2395 1.524 . S
C2397 C2394 1.403 . S
C2397 C2398 1.392 . S
C2397 C2401 1.495 . S
C2398 C2397 1.392 . S
C2398 C2399 1.385 . S
C2398 C2400 1.476 . S
C2399 H2393 0.930 . S
C2399 C2395 1.400 . S
C2399 C2398 1.385 . S
C2400 C2398 1.476 . S
C2400 C2402 1.382 1_556 S
C2400 C2406 1.383 1_556 S
C2401 C2397 1.495 . S
C2401 H2407 0.959 . S
C2401 H2408 0.961 . S
C2401 H2409 0.960 . S
C2402 C2400 1.382 1_554 S
C2402 C2403 1.394 . S
C2402 H2410 0.930 . S
C2403 C2402 1.394 . S
C2403 C2404 1.383 . S
C2403 H2411 0.929 . S
C2404 C2403 1.383 . S
C2404 C2405 1.377 . S
C2405 H2389 0.930 . S
C2405 C2404 1.377 . S
C2405 C2406 1.379 . S
C2406 H2390 0.931 . S
C2406 C2400 1.383 1_554 S
C2406 C2405 1.379 . S
H2407 C2401 0.959 . S
H2408 C2401 0.961 . S
H2409 C2401 0.960 . S
H2410 C2402 0.930 . S
H2411 C2403 0.929 . S
H2412 C2420 0.929 . S
H2413 C2422 0.930 . S
H2414 C2424 0.930 . S
H2415 C2427 0.929 . S
H2416 C2430 0.930 . S
H2417 C2432 0.960 . S
H2418 C2432 0.960 . S
H2419 C2432 0.960 . S
C2420 H2412 0.929 . S
C2420 C2421 1.377 . S
C2420 C2422 1.384 . S
C2421 C2420 1.377 . S
C2421 C2427 1.390 . S
C2422 H2413 0.930 . S
C2422 C2420 1.384 . S
C2422 C2423 1.372 . S
C2423 C2422 1.372 . S
C2423 C2424 1.400 . S
C2423 C2428 1.490 . S
C2424 H2414 0.930 . S
C2424 C2423 1.400 . S
C2424 C2427 1.386 . S
H2425 C2441 0.930 . S
H2426 C2442 0.931 . S
C2427 H2415 0.929 . S
C2427 C2421 1.390 . S
C2427 C2424 1.386 . S
C2428 C2423 1.490 . S
C2428 C2430 1.395 . S
C2428 C2431 1.403 . S
H2429 C2435 0.930 . S
C2430 H2416 0.930 . S
C2430 C2428 1.395 . S
C2430 C2433 1.403 . S
C2431 C2428 1.403 . S
C2431 C2432 1.524 . S
C2431 C2435 1.400 . S
C2432 H2417 0.960 . S
C2432 H2418 0.960 . S
C2432 H2419 0.960 . S
C2432 C2431 1.524 . S
C2433 C2430 1.403 . S
C2433 C2434 1.392 . S
C2433 C2437 1.495 . S
C2434 C2433 1.392 . S
C2434 C2435 1.385 . S
C2434 C2436 1.478 . S
C2435 H2429 0.930 . S
C2435 C2431 1.400 . S
C2435 C2434 1.385 . S
C2436 C2434 1.478 . S
C2436 C2438 1.381 . S
C2436 C2442 1.383 . S
C2437 C2433 1.495 . S
C2437 H2443 0.959 . S
C2437 H2444 0.961 . S
C2437 H2445 0.960 . S
C2438 C2436 1.381 . S
C2438 C2439 1.394 . S
C2438 H2446 0.930 . S
C2439 C2438 1.394 . S
C2439 C2440 1.383 . S
C2439 H2447 0.929 . S
C2440 C2439 1.383 . S
C2440 C2441 1.377 . S
C2441 H2425 0.930 . S
C2441 C2440 1.377 . S
C2441 C2442 1.379 . S
C2442 H2426 0.931 . S
C2442 C2436 1.383 . S
C2442 C2441 1.379 . S
H2443 C2437 0.959 . S
H2444 C2437 0.961 . S
H2445 C2437 0.960 . S
H2446 C2438 0.930 . S
H2447 C2439 0.929 . S
H2448 C2456 0.929 . S
H2449 C2458 0.930 . S
H2450 C2460 0.930 . S
H2451 C2463 0.929 . S
H2452 C2466 0.930 . S
H2453 C2468 0.960 . S
H2454 C2468 0.960 . S
H2455 C2468 0.960 . S
C2456 H2448 0.929 . S
C2456 C2457 1.377 . S
C2456 C2458 1.384 . S
C2457 C2456 1.377 . S
C2457 C2463 1.390 . S
C2458 H2449 0.930 . S
C2458 C2456 1.384 . S
C2458 C2459 1.372 . S
C2459 C2458 1.372 . S
C2459 C2460 1.400 . S
C2459 C2464 1.490 . S
C2460 H2450 0.930 . S
C2460 C2459 1.400 . S
C2460 C2463 1.386 . S
H2461 C2477 0.930 . S
H2462 C2478 0.931 . S
C2463 H2451 0.929 . S
C2463 C2457 1.390 . S
C2463 C2460 1.386 . S
C2464 C2459 1.490 . S
C2464 C2466 1.395 . S
C2464 C2467 1.403 . S
H2465 C2471 0.930 . S
C2466 H2452 0.930 . S
C2466 C2464 1.395 . S
C2466 C2469 1.403 . S
C2467 C2464 1.403 . S
C2467 C2468 1.524 . S
C2467 C2471 1.400 . S
C2468 H2453 0.960 . S
C2468 H2454 0.960 . S
C2468 H2455 0.960 . S
C2468 C2467 1.524 . S
C2469 C2466 1.403 . S
C2469 C2470 1.392 . S
C2469 C2473 1.495 . S
C2470 C2469 1.392 . S
C2470 C2471 1.385 . S
C2470 C2472 1.478 . S
C2471 H2465 0.930 . S
C2471 C2467 1.400 . S
C2471 C2470 1.385 . S
C2472 C2470 1.478 . S
C2472 C2474 1.381 . S
C2472 C2478 1.383 . S
C2473 C2469 1.495 . S
C2473 H2479 0.959 . S
C2473 H2480 0.961 . S
C2473 H2481 0.960 . S
C2474 C2472 1.381 . S
C2474 C2475 1.394 . S
C2474 H2482 0.930 . S
C2475 C2474 1.394 . S
C2475 C2476 1.383 . S
C2475 H2483 0.929 . S
C2476 C2475 1.383 . S
C2476 C2477 1.377 . S
C2477 H2461 0.930 . S
C2477 C2476 1.377 . S
C2477 C2478 1.379 . S
C2478 H2462 0.931 . S
C2478 C2472 1.383 . S
C2478 C2477 1.379 . S
H2479 C2473 0.959 . S
H2480 C2473 0.961 . S
H2481 C2473 0.960 . S
H2482 C2474 0.930 . S
H2483 C2475 0.929 . S
H2484 C2492 0.929 . S
H2485 C2494 0.930 . S
H2486 C2496 0.930 . S
H2487 C2499 0.929 . S
H2488 C2502 0.930 . S
H2489 C2504 0.960 . S
H2490 C2504 0.960 . S
H2491 C2504 0.960 . S
C2492 H2484 0.929 . S
C2492 C2493 1.377 . S
C2492 C2494 1.384 . S
C2493 C2492 1.377 . S
C2493 C2499 1.390 . S
C2494 H2485 0.930 . S
C2494 C2492 1.384 . S
C2494 C2495 1.372 . S
C2495 C2494 1.372 . S
C2495 C2496 1.400 . S
C2495 C2500 1.490 . S
C2496 H2486 0.930 . S
C2496 C2495 1.400 . S
C2496 C2499 1.386 . S
H2497 C2513 0.930 . S
H2498 C2514 0.931 . S
C2499 H2487 0.929 . S
C2499 C2493 1.390 . S
C2499 C2496 1.386 . S
C2500 C2495 1.490 . S
C2500 C2502 1.395 . S
C2500 C2503 1.403 . S
H2501 C2507 0.930 . S
C2502 H2488 0.930 . S
C2502 C2500 1.395 . S
C2502 C2505 1.403 . S
C2503 C2500 1.403 . S
C2503 C2504 1.524 . S
C2503 C2507 1.400 . S
C2504 H2489 0.960 . S
C2504 H2490 0.960 . S
C2504 H2491 0.960 . S
C2504 C2503 1.524 . S
C2505 C2502 1.403 . S
C2505 C2506 1.392 . S
C2505 C2509 1.495 . S
C2506 C2505 1.392 . S
C2506 C2507 1.385 . S
C2506 C2508 1.478 . S
C2507 H2501 0.930 . S
C2507 C2503 1.400 . S
C2507 C2506 1.385 . S
C2508 C2506 1.478 . S
C2508 C2510 1.381 . S
C2508 C2514 1.383 . S
C2509 C2505 1.495 . S
C2509 H2515 0.959 . S
C2509 H2516 0.961 . S
C2509 H2517 0.960 . S
C2510 C2508 1.381 . S
C2510 C2511 1.394 . S
C2510 H2518 0.930 . S
C2511 C2510 1.394 . S
C2511 C2512 1.383 . S
C2511 H2519 0.929 . S
C2512 C2511 1.383 . S
C2512 C2513 1.377 . S
C2513 H2497 0.930 . S
C2513 C2512 1.377 . S
C2513 C2514 1.379 . S
C2514 H2498 0.931 . S
C2514 C2508 1.383 . S
C2514 C2513 1.379 . S
H2515 C2509 0.959 . S
H2516 C2509 0.961 . S
H2517 C2509 0.960 . S
H2518 C2510 0.930 . S
H2519 C2511 0.929 . S
H2520 C2528 0.929 . S
H2521 C2530 0.930 . S
H2522 C2532 0.930 . S
H2523 C2535 0.929 . S
H2524 C2538 0.930 . S
H2525 C2540 0.960 . S
H2526 C2540 0.960 . S
H2527 C2540 0.960 . S
C2528 H2520 0.929 . S
C2528 C2529 1.377 . S
C2528 C2530 1.384 . S
C2529 C2528 1.377 . S
C2529 C2535 1.390 1_554 S
C2530 H2521 0.930 . S
C2530 C2528 1.384 . S
C2530 C2531 1.372 . S
C2531 C2530 1.372 . S
C2531 C2532 1.400 1_554 S
C2531 C2536 1.490 . S
C2532 H2522 0.930 . S
C2532 C2531 1.400 1_556 S
C2532 C2535 1.386 . S
H2533 C2549 0.930 . S
H2534 C2550 0.931 . S
C2535 H2523 0.929 . S
C2535 C2529 1.390 1_556 S
C2535 C2532 1.386 . S
C2536 C2531 1.490 . S
C2536 C2538 1.395 . S
C2536 C2539 1.403 1_554 S
H2537 C2543 0.930 . S
C2538 H2524 0.930 . S
C2538 C2536 1.395 . S
C2538 C2541 1.403 . S
C2539 C2536 1.403 1_556 S
C2539 C2540 1.524 . S
C2539 C2543 1.400 . S
C2540 H2525 0.960 . S
C2540 H2526 0.960 . S
C2540 H2527 0.960 . S
C2540 C2539 1.524 . S
C2541 C2538 1.403 . S
C2541 C2542 1.392 . S
C2541 C2545 1.495 . S
C2542 C2541 1.392 . S
C2542 C2543 1.385 1_554 S
C2542 C2544 1.478 . S
C2543 H2537 0.930 . S
C2543 C2539 1.400 . S
C2543 C2542 1.385 1_556 S
C2544 C2542 1.478 . S
C2544 C2546 1.381 . S
C2544 C2550 1.383 . S
C2545 C2541 1.495 . S
C2545 H2551 0.959 . S
C2545 H2552 0.961 . S
C2545 H2553 0.960 . S
C2546 C2544 1.381 . S
C2546 C2547 1.394 . S
C2546 H2554 0.930 . S
C2547 C2546 1.394 . S
C2547 C2548 1.383 . S
C2547 H2555 0.929 . S
C2548 C2547 1.383 . S
C2548 C2549 1.377 . S
C2549 H2533 0.930 . S
C2549 C2548 1.377 . S
C2549 C2550 1.379 . S
C2550 H2534 0.931 . S
C2550 C2544 1.383 . S
C2550 C2549 1.379 . S
H2551 C2545 0.959 . S
H2552 C2545 0.961 . S
H2553 C2545 0.960 . S
H2554 C2546 0.930 . S
H2555 C2547 0.929 . S
H2556 C2564 0.929 . S
H2557 C2566 0.930 . S
H2558 C2568 0.957 . S
H2559 C2571 0.906 1_556 S
H2560 C2574 0.930 . S
H2561 C2576 0.960 . S
H2562 C2576 0.960 . S
H2563 C2576 0.960 1_556 S
C2564 H2556 0.929 . S
C2564 C2565 1.377 . S
C2564 C2566 1.384 . S
C2565 C2564 1.377 . S
C2565 C2571 1.415 . S
C2566 H2557 0.930 . S
C2566 C2564 1.384 . S
C2566 C2567 1.372 . S
C2567 C2566 1.372 . S
C2567 C2568 1.375 1_554 S
C2567 C2572 1.490 . S
C2568 H2558 0.957 . S
C2568 C2567 1.375 1_556 S
C2568 C2571 1.384 1_556 S
H2569 C2585 0.930 . S
H2570 C2586 0.931 . S
C2571 H2559 0.906 1_554 S
C2571 C2565 1.415 . S
C2571 C2568 1.384 1_554 S
C2572 C2567 1.490 . S
C2572 C2574 1.395 . S
C2572 C2575 1.403 . S
H2573 C2579 0.930 . S
C2574 H2560 0.930 . S
C2574 C2572 1.395 . S
C2574 C2577 1.403 . S
C2575 C2572 1.403 . S
C2575 C2576 1.524 . S
C2575 C2579 1.400 . S
C2576 H2561 0.960 . S
C2576 H2562 0.960 . S
C2576 H2563 0.960 1_554 S
C2576 C2575 1.524 . S
C2577 C2574 1.403 . S
C2577 C2578 1.392 . S
C2577 C2581 1.495 . S
C2578 C2577 1.392 . S
C2578 C2579 1.385 . S
C2578 C2580 1.478 . S
C2579 H2573 0.930 . S
C2579 C2575 1.400 . S
C2579 C2578 1.385 . S
C2580 C2578 1.478 . S
C2580 C2582 1.381 . S
C2580 C2586 1.383 1_554 S
C2581 C2577 1.495 . S
C2581 H2587 0.959 . S
C2581 H2588 0.961 . S
C2581 H2589 0.960 . S
C2582 C2580 1.381 . S
C2582 C2583 1.394 . S
C2582 H2590 0.930 . S
C2583 C2582 1.394 . S
C2583 C2584 1.383 . S
C2583 H2591 0.929 . S
C2584 C2583 1.383 . S
C2584 C2585 1.377 1_554 S
C2585 H2569 0.930 . S
C2585 C2584 1.377 1_556 S
C2585 C2586 1.379 . S
C2586 H2570 0.931 . S
C2586 C2580 1.383 1_556 S
C2586 C2585 1.379 . S
H2587 C2581 0.959 . S
H2588 C2581 0.961 . S
H2589 C2581 0.960 . S
H2590 C2582 0.930 . S
H2591 C2583 0.929 . S
H2592 C2600 0.929 . S
H2593 C2602 0.930 . S
H2594 C2604 0.930 . S
H2595 C2607 0.929 . S
H2596 C2610 0.942 . S
H2597 C2612 0.960 . S
H2598 C2612 0.960 . S
H2599 C2612 0.960 . S
C2600 H2592 0.929 . S
C2600 C2601 1.377 . S
C2600 C2602 1.384 . S
C2601 C2600 1.377 . S
C2601 C2607 1.390 . S
C2602 H2593 0.930 . S
C2602 C2600 1.384 . S
C2602 C2603 1.372 . S
C2603 C2602 1.372 . S
C2603 C2604 1.400 . S
C2603 C2608 1.490 . S
C2604 H2594 0.930 . S
C2604 C2603 1.400 . S
C2604 C2607 1.386 . S
H2605 C2621 0.930 . S
H2606 C2622 0.931 . S
C2607 H2595 0.929 . S
C2607 C2601 1.390 . S
C2607 C2604 1.386 . S
C2608 C2603 1.490 . S
C2608 C2610 1.380 1_554 S
C2608 C2611 1.403 . S
H2609 C2615 0.930 . S
C2610 H2596 0.942 . S
C2610 C2608 1.380 1_556 S
C2610 C2613 1.407 . S
C2611 C2608 1.403 . S
C2611 C2612 1.524 . S
C2611 C2615 1.400 . S
C2612 H2597 0.960 . S
C2612 H2598 0.960 . S
C2612 H2599 0.960 . S
C2612 C2611 1.524 . S
C2613 C2610 1.407 . S
C2613 C2614 1.392 1_556 S
C2613 C2617 1.495 . S
C2614 C2613 1.392 1_554 S
C2614 C2615 1.385 . S
C2614 C2616 1.478 . S
C2615 H2609 0.930 . S
C2615 C2611 1.400 . S
C2615 C2614 1.385 . S
C2616 C2614 1.478 . S
C2616 C2618 1.381 . S
C2616 C2622 1.383 1_554 S
C2617 C2613 1.495 . S
C2617 H2623 0.959 . S
C2617 H2624 0.961 . S
C2617 H2625 0.960 . S
C2618 C2616 1.381 . S
C2618 C2619 1.394 . S
C2618 H2626 0.930 . S
C2619 C2618 1.394 . S
C2619 C2620 1.383 . S
C2619 H2627 0.929 . S
C2620 C2619 1.383 . S
C2620 C2621 1.377 1_554 S
C2621 H2605 0.930 . S
C2621 C2620 1.377 1_556 S
C2621 C2622 1.379 . S
C2622 H2606 0.931 . S
C2622 C2616 1.383 1_556 S
C2622 C2621 1.379 . S
H2623 C2617 0.959 . S
H2624 C2617 0.961 . S
H2625 C2617 0.960 . S
H2626 C2618 0.930 . S
H2627 C2619 0.929 . S
H2628 C2636 0.929 . S
H2629 C2638 0.930 . S
H2630 C2640 0.930 . S
H2631 C2643 0.929 . S
H2632 C2646 0.930 . S
H2633 C2648 0.960 . S
H2634 C2648 0.960 . S
H2635 C2648 0.960 . S
C2636 H2628 0.929 . S
C2636 C2637 1.377 . S
C2636 C2638 1.384 . S
C2637 C2636 1.377 . S
C2637 C2643 1.390 . S
C2638 H2629 0.930 . S
C2638 C2636 1.384 . S
C2638 C2639 1.372 . S
C2639 C2638 1.372 . S
C2639 C2640 1.400 . S
C2639 C2644 1.490 . S
C2640 H2630 0.930 . S
C2640 C2639 1.400 . S
C2640 C2643 1.386 . S
H2641 C2657 0.930 . S
H2642 C2658 0.931 . S
C2643 H2631 0.929 . S
C2643 C2637 1.390 . S
C2643 C2640 1.386 . S
C2644 C2639 1.490 . S
C2644 C2646 1.395 . S
C2644 C2647 1.403 . S
H2645 C2651 0.930 . S
C2646 H2632 0.930 . S
C2646 C2644 1.395 . S
C2646 C2649 1.403 . S
C2647 C2644 1.403 . S
C2647 C2648 1.524 . S
C2647 C2651 1.400 . S
C2648 H2633 0.960 . S
C2648 H2634 0.960 . S
C2648 H2635 0.960 . S
C2648 C2647 1.524 . S
C2649 C2646 1.403 . S
C2649 C2650 1.392 . S
C2649 C2653 1.495 . S
C2650 C2649 1.392 . S
C2650 C2651 1.385 . S
C2650 C2652 1.478 . S
C2651 H2645 0.930 . S
C2651 C2647 1.400 . S
C2651 C2650 1.385 . S
C2652 C2650 1.478 . S
C2652 C2654 1.381 . S
C2652 C2658 1.383 . S
C2653 C2649 1.495 . S
C2653 H2659 0.959 . S
C2653 H2660 0.961 . S
C2653 H2661 0.960 . S
C2654 C2652 1.381 . S
C2654 C2655 1.394 . S
C2654 H2662 0.930 . S
C2655 C2654 1.394 . S
C2655 C2656 1.383 . S
C2655 H2663 0.929 . S
C2656 C2655 1.383 . S
C2656 C2657 1.377 . S
C2657 H2641 0.930 . S
C2657 C2656 1.377 . S
C2657 C2658 1.379 . S
C2658 H2642 0.931 . S
C2658 C2652 1.383 . S
C2658 C2657 1.379 . S
H2659 C2653 0.959 . S
H2660 C2653 0.961 . S
H2661 C2653 0.960 . S
H2662 C2654 0.930 . S
H2663 C2655 0.929 . S
H2664 C2672 0.929 . S
H2665 C2674 0.930 . S
H2666 C2676 0.930 . S
H2667 C2679 0.929 . S
H2668 C2682 0.930 . S
H2669 C2684 0.960 . S
H2670 C2684 0.960 . S
H2671 C2684 0.960 . S
C2672 H2664 0.929 . S
C2672 C2673 1.377 . S
C2672 C2674 1.384 . S
C2673 C2672 1.377 . S
C2673 C2679 1.390 . S
C2674 H2665 0.930 . S
C2674 C2672 1.384 . S
C2674 C2675 1.372 . S
C2675 C2674 1.372 . S
C2675 C2676 1.400 . S
C2675 C2680 1.490 . S
C2676 H2666 0.930 . S
C2676 C2675 1.400 . S
C2676 C2679 1.386 . S
H2677 C2693 0.930 . S
H2678 C2694 0.931 . S
C2679 H2667 0.929 . S
C2679 C2673 1.390 . S
C2679 C2676 1.386 . S
C2680 C2675 1.490 . S
C2680 C2682 1.395 . S
C2680 C2683 1.403 . S
H2681 C2687 0.930 . S
C2682 H2668 0.930 . S
C2682 C2680 1.395 . S
C2682 C2685 1.403 . S
C2683 C2680 1.403 . S
C2683 C2684 1.524 . S
C2683 C2687 1.400 . S
C2684 H2669 0.960 . S
C2684 H2670 0.960 . S
C2684 H2671 0.960 . S
C2684 C2683 1.524 . S
C2685 C2682 1.403 . S
C2685 C2686 1.392 . S
C2685 C2689 1.495 . S
C2686 C2685 1.392 . S
C2686 C2687 1.385 . S
C2686 C2688 1.478 . S
C2687 H2681 0.930 . S
C2687 C2683 1.400 . S
C2687 C2686 1.385 . S
C2688 C2686 1.478 . S
C2688 C2690 1.381 . S
C2688 C2694 1.383 . S
C2689 C2685 1.495 . S
C2689 H2695 0.959 . S
C2689 H2696 0.961 . S
C2689 H2697 0.960 . S
C2690 C2688 1.381 . S
C2690 C2691 1.394 . S
C2690 H2698 0.930 . S
C2691 C2690 1.394 . S
C2691 C2692 1.383 . S
C2691 H2699 0.929 . S
C2692 C2691 1.383 . S
C2692 C2693 1.377 . S
C2693 H2677 0.930 . S
C2693 C2692 1.377 . S
C2693 C2694 1.379 . S
C2694 H2678 0.931 . S
C2694 C2688 1.383 . S
C2694 C2693 1.379 . S
H2695 C2689 0.959 . S
H2696 C2689 0.961 . S
H2697 C2689 0.960 . S
H2698 C2690 0.930 . S
H2699 C2691 0.929 . S
H2700 C2708 0.929 . S
H2701 C2710 0.930 . S
H2702 C2712 0.930 . S
H2703 C2715 0.929 . S
H2704 C2718 0.930 . S
H2705 C2720 0.960 . S
H2706 C2720 0.960 . S
H2707 C2720 0.960 . S
C2708 H2700 0.929 . S
C2708 C2709 1.377 . S
C2708 C2710 1.384 . S
C2709 C2708 1.377 . S
C2709 C2715 1.390 . S
C2710 H2701 0.930 . S
C2710 C2708 1.384 . S
C2710 C2711 1.372 . S
C2711 C2710 1.372 . S
C2711 C2712 1.400 . S
C2711 C2716 1.490 . S
C2712 H2702 0.930 . S
C2712 C2711 1.400 . S
C2712 C2715 1.386 . S
H2713 C2729 0.930 . S
H2714 C2730 0.931 . S
C2715 H2703 0.929 . S
C2715 C2709 1.390 . S
C2715 C2712 1.386 . S
C2716 C2711 1.490 . S
C2716 C2718 1.395 . S
C2716 C2719 1.403 . S
H2717 C2723 0.930 . S
C2718 H2704 0.930 . S
C2718 C2716 1.395 . S
C2718 C2721 1.403 . S
C2719 C2716 1.403 . S
C2719 C2720 1.524 . S
C2719 C2723 1.400 . S
C2720 H2705 0.960 . S
C2720 H2706 0.960 . S
C2720 H2707 0.960 . S
C2720 C2719 1.524 . S
C2721 C2718 1.403 . S
C2721 C2722 1.392 . S
C2721 C2725 1.495 . S
C2722 C2721 1.392 . S
C2722 C2723 1.385 . S
C2722 C2724 1.478 . S
C2723 H2717 0.930 . S
C2723 C2719 1.400 . S
C2723 C2722 1.385 . S
C2724 C2722 1.478 . S
C2724 C2726 1.381 . S
C2724 C2730 1.383 . S
C2725 C2721 1.495 . S
C2725 H2731 0.959 . S
C2725 H2732 0.961 . S
C2725 H2733 0.960 . S
C2726 C2724 1.381 . S
C2726 C2727 1.394 . S
C2726 H2734 0.930 . S
C2727 C2726 1.394 . S
C2727 C2728 1.383 . S
C2727 H2735 0.929 . S
C2728 C2727 1.383 . S
C2728 C2729 1.377 . S
C2729 H2713 0.930 . S
C2729 C2728 1.377 . S
C2729 C2730 1.379 . S
C2730 H2714 0.931 . S
C2730 C2724 1.383 . S
C2730 C2729 1.379 . S
H2731 C2725 0.959 . S
H2732 C2725 0.961 . S
H2733 C2725 0.960 . S
H2734 C2726 0.930 . S
H2735 C2727 0.929 . S
H2736 C2744 0.929 1_556 S
H2737 C2746 0.930 1_556 S
H2738 C2748 0.930 . S
H2739 C2751 0.929 . S
H2740 C2754 0.930 . S
H2741 C2756 0.960 . S
H2742 C2756 0.960 . S
H2743 C2756 0.960 . S
C2744 H2736 0.929 1_554 S
C2744 C2745 1.377 . S
C2744 C2746 1.384 . S
C2745 C2744 1.377 . S
C2745 C2751 1.390 . S
C2746 H2737 0.930 1_554 S
C2746 C2744 1.384 . S
C2746 C2747 1.372 . S
C2747 C2746 1.372 . S
C2747 C2748 1.400 . S
C2747 C2752 1.490 . S
C2748 H2738 0.930 . S
C2748 C2747 1.400 . S
C2748 C2751 1.386 . S
H2749 C2765 0.930 . S
H2750 C2766 0.931 . S
C2751 H2739 0.929 . S
C2751 C2745 1.390 . S
C2751 C2748 1.386 . S
C2752 C2747 1.490 . S
C2752 C2754 1.395 . S
C2752 C2755 1.403 . S
H2753 C2759 0.930 . S
C2754 H2740 0.930 . S
C2754 C2752 1.395 . S
C2754 C2757 1.403 . S
C2755 C2752 1.403 . S
C2755 C2756 1.524 . S
C2755 C2759 1.400 . S
C2756 H2741 0.960 . S
C2756 H2742 0.960 . S
C2756 H2743 0.960 . S
C2756 C2755 1.524 . S
C2757 C2754 1.403 . S
C2757 C2758 1.392 . S
C2757 C2761 1.495 . S
C2758 C2757 1.392 . S
C2758 C2759 1.385 . S
C2758 C2760 1.478 . S
C2759 H2753 0.930 . S
C2759 C2755 1.400 . S
C2759 C2758 1.385 . S
C2760 C2758 1.478 . S
C2760 C2762 1.381 1_554 S
C2760 C2766 1.383 . S
C2761 C2757 1.495 . S
C2761 H2767 0.959 . S
C2761 H2768 0.961 . S
C2761 H2769 0.960 1_554 S
C2762 C2760 1.381 1_556 S
C2762 C2763 1.394 . S
C2762 H2770 0.930 . S
C2763 C2762 1.394 . S
C2763 C2764 1.383 1_556 S
C2763 H2771 0.929 . S
C2764 C2763 1.383 1_554 S
C2764 C2765 1.377 . S
C2765 H2749 0.930 . S
C2765 C2764 1.377 . S
C2765 C2766 1.379 . S
C2766 H2750 0.931 . S
C2766 C2760 1.383 . S
C2766 C2765 1.379 . S
H2767 C2761 0.959 . S
H2768 C2761 0.961 . S
H2769 C2761 0.960 1_556 S
H2770 C2762 0.930 . S
H2771 C2763 0.929 . S
H2772 C2780 0.929 . S
H2773 C2782 0.930 . S
H2774 C2784 0.930 . S
H2775 C2787 0.929 . S
H2776 C2790 0.930 . S
H2777 C2792 0.960 . S
H2778 C2792 0.960 . S
H2779 C2792 0.960 . S
C2780 H2772 0.929 . S
C2780 C2781 1.377 . S
C2780 C2782 1.384 . S
C2781 C2780 1.377 . S
C2781 C2787 1.390 . S
C2782 H2773 0.930 . S
C2782 C2780 1.384 . S
C2782 C2783 1.372 . S
C2783 C2782 1.372 . S
C2783 C2784 1.400 . S
C2783 C2788 1.490 . S
C2784 H2774 0.930 . S
C2784 C2783 1.400 . S
C2784 C2787 1.386 . S
H2785 C2801 0.930 . S
H2786 C2802 0.931 . S
C2787 H2775 0.929 . S
C2787 C2781 1.390 . S
C2787 C2784 1.386 . S
C2788 C2783 1.490 . S
C2788 C2790 1.395 1_554 S
C2788 C2791 1.403 . S
H2789 C2795 0.930 . S
C2790 H2776 0.930 . S
C2790 C2788 1.395 1_556 S
C2790 C2793 1.403 . S
C2791 C2788 1.403 . S
C2791 C2792 1.524 . S
C2791 C2795 1.400 . S
C2792 H2777 0.960 . S
C2792 H2778 0.960 . S
C2792 H2779 0.960 . S
C2792 C2791 1.524 . S
C2793 C2790 1.403 . S
C2793 C2794 1.392 1_556 S
C2793 C2797 1.495 . S
C2794 C2793 1.392 1_554 S
C2794 C2795 1.385 . S
C2794 C2796 1.478 . S
C2795 H2789 0.930 . S
C2795 C2791 1.400 . S
C2795 C2794 1.385 . S
C2796 C2794 1.478 . S
C2796 C2798 1.381 . S
C2796 C2802 1.383 . S
C2797 C2793 1.495 . S
C2797 H2803 0.959 . S
C2797 H2804 0.961 . S
C2797 H2805 0.960 . S
C2798 C2796 1.381 . S
C2798 C2799 1.394 . S
C2798 H2806 0.930 . S
C2799 C2798 1.394 . S
C2799 C2800 1.383 . S
C2799 H2807 0.929 . S
C2800 C2799 1.383 . S
C2800 C2801 1.377 . S
C2801 H2785 0.930 . S
C2801 C2800 1.377 . S
C2801 C2802 1.379 . S
C2802 H2786 0.931 . S
C2802 C2796 1.383 . S
C2802 C2801 1.379 . S
H2803 C2797 0.959 . S
H2804 C2797 0.961 . S
H2805 C2797 0.960 . S
H2806 C2798 0.930 . S
H2807 C2799 0.929 . S
H2808 C2816 0.929 . S
H2809 C2818 0.930 . S
H2810 C2820 0.930 1_556 S
H2811 C2823 0.929 1_556 S
H2812 C2826 0.930 . S
H2813 C2828 0.960 . S
H2814 C2828 0.960 . S
H2815 C2828 0.960 . S
C2816 H2808 0.929 . S
C2816 C2817 1.377 . S
C2816 C2818 1.384 . S
C2817 C2816 1.377 . S
C2817 C2823 1.390 . S
C2818 H2809 0.930 . S
C2818 C2816 1.384 . S
C2818 C2819 1.372 . S
C2819 C2818 1.372 . S
C2819 C2820 1.400 . S
C2819 C2824 1.490 . S
C2820 H2810 0.930 1_554 S
C2820 C2819 1.400 . S
C2820 C2823 1.386 . S
H2821 C2837 0.930 . S
H2822 C2838 0.942 . S
C2823 H2811 0.929 1_554 S
C2823 C2817 1.390 . S
C2823 C2820 1.386 . S
C2824 C2819 1.490 . S
C2824 C2826 1.395 . S
C2824 C2827 1.403 . S
H2825 C2831 0.930 . S
C2826 H2812 0.930 . S
C2826 C2824 1.395 . S
C2826 C2829 1.403 . S
C2827 C2824 1.403 . S
C2827 C2828 1.524 . S
C2827 C2831 1.400 . S
C2828 H2813 0.960 . S
C2828 H2814 0.960 . S
C2828 H2815 0.960 . S
C2828 C2827 1.524 . S
C2829 C2826 1.403 . S
C2829 C2830 1.392 . S
C2829 C2833 1.495 . S
C2830 C2829 1.392 . S
C2830 C2831 1.385 . S
C2830 C2832 1.478 . S
C2831 H2825 0.930 . S
C2831 C2827 1.400 . S
C2831 C2830 1.385 . S
C2832 C2830 1.478 . S
C2832 C2834 1.381 . S
C2832 C2838 1.383 . S
C2833 C2829 1.495 . S
C2833 H2839 0.959 1_554 S
C2833 H2840 0.961 1_554 S
C2833 H2841 0.960 . S
C2834 C2832 1.381 . S
C2834 C2835 1.394 . S
C2834 H2842 0.930 . S
C2835 C2834 1.394 . S
C2835 C2836 1.383 . S
C2835 H2843 0.929 . S
C2836 C2835 1.383 . S
C2836 C2837 1.377 . S
C2837 H2821 0.930 . S
C2837 C2836 1.377 . S
C2837 C2838 1.379 . S
C2838 H2822 0.942 . S
C2838 C2832 1.383 . S
C2838 C2837 1.379 . S
H2839 C2833 0.959 1_556 S
H2840 C2833 0.961 1_556 S
H2841 C2833 0.960 . S
H2842 C2834 0.930 . S
H2843 C2835 0.929 . S
H2844 C2852 0.929 . S
H2845 C2854 0.930 . S
H2846 C2856 0.930 . S
H2847 C2859 0.929 . S
H2848 C2862 0.930 . S
H2849 C2864 0.960 . S
H2850 C2864 0.960 . S
H2851 C2864 0.960 . S
C2852 H2844 0.929 . S
C2852 C2853 1.377 . S
C2852 C2854 1.384 . S
C2853 C2852 1.377 . S
C2853 C2859 1.390 . S
C2854 H2845 0.930 . S
C2854 C2852 1.384 . S
C2854 C2855 1.372 . S
C2855 C2854 1.372 . S
C2855 C2856 1.400 . S
C2855 C2860 1.490 . S
C2856 H2846 0.930 . S
C2856 C2855 1.400 . S
C2856 C2859 1.386 . S
H2857 C2873 0.930 . S
H2858 C2874 0.931 . S
C2859 H2847 0.929 . S
C2859 C2853 1.390 . S
C2859 C2856 1.386 . S
C2860 C2855 1.490 . S
C2860 C2862 1.395 . S
C2860 C2863 1.403 . S
H2861 C2867 0.930 . S
C2862 H2848 0.930 . S
C2862 C2860 1.395 . S
C2862 C2865 1.403 . S
C2863 C2860 1.403 . S
C2863 C2864 1.524 . S
C2863 C2867 1.400 . S
C2864 H2849 0.960 . S
C2864 H2850 0.960 . S
C2864 H2851 0.960 . S
C2864 C2863 1.524 . S
C2865 C2862 1.403 . S
C2865 C2866 1.392 . S
C2865 C2869 1.495 . S
C2866 C2865 1.392 . S
C2866 C2867 1.385 . S
C2866 C2868 1.478 . S
C2867 H2861 0.930 . S
C2867 C2863 1.400 . S
C2867 C2866 1.385 . S
C2868 C2866 1.478 . S
C2868 C2870 1.381 . S
C2868 C2874 1.383 . S
C2869 C2865 1.495 . S
C2869 H2875 0.959 . S
C2869 H2876 0.961 . S
C2869 H2877 0.960 . S
C2870 C2868 1.381 . S
C2870 C2871 1.394 . S
C2870 H2878 0.930 . S
C2871 C2870 1.394 . S
C2871 C2872 1.383 . S
C2871 H2879 0.929 . S
C2872 C2871 1.383 . S
C2872 C2873 1.377 . S
C2873 H2857 0.930 . S
C2873 C2872 1.377 . S
C2873 C2874 1.379 . S
C2874 H2858 0.931 . S
C2874 C2868 1.383 . S
C2874 C2873 1.379 . S
H2875 C2869 0.959 . S
H2876 C2869 0.961 . S
H2877 C2869 0.960 . S
H2878 C2870 0.930 . S
H2879 C2871 0.929 . S
H2880 C2888 0.929 . S
H2881 C2890 0.930 . S
H2882 C2892 0.930 . S
H2883 C2895 0.929 . S
H2884 C2898 0.930 . S
H2885 C2900 0.960 . S
H2886 C2900 0.960 . S
H2887 C2900 0.960 . S
C2888 H2880 0.929 . S
C2888 C2889 1.377 . S
C2888 C2890 1.384 . S
C2889 C2888 1.377 . S
C2889 C2895 1.390 . S
C2890 H2881 0.930 . S
C2890 C2888 1.384 . S
C2890 C2891 1.372 . S
C2891 C2890 1.372 . S
C2891 C2892 1.400 . S
C2891 C2896 1.490 . S
C2892 H2882 0.930 . S
C2892 C2891 1.400 . S
C2892 C2895 1.386 . S
H2893 C2909 0.930 . S
H2894 C2910 0.931 . S
C2895 H2883 0.929 . S
C2895 C2889 1.390 . S
C2895 C2892 1.386 . S
C2896 C2891 1.490 . S
C2896 C2898 1.395 . S
C2896 C2899 1.403 . S
H2897 C2903 0.930 . S
C2898 H2884 0.930 . S
C2898 C2896 1.395 . S
C2898 C2901 1.403 . S
C2899 C2896 1.403 . S
C2899 C2900 1.524 . S
C2899 C2903 1.400 . S
C2900 H2885 0.960 . S
C2900 H2886 0.960 . S
C2900 H2887 0.960 . S
C2900 C2899 1.524 . S
C2901 C2898 1.403 . S
C2901 C2902 1.392 . S
C2901 C2905 1.495 . S
C2902 C2901 1.392 . S
C2902 C2903 1.385 . S
C2902 C2904 1.478 . S
C2903 H2897 0.930 . S
C2903 C2899 1.400 . S
C2903 C2902 1.385 . S
C2904 C2902 1.478 . S
C2904 C2906 1.381 . S
C2904 C2910 1.383 . S
C2905 C2901 1.495 . S
C2905 H2911 0.959 . S
C2905 H2912 0.961 . S
C2905 H2913 0.960 . S
C2906 C2904 1.381 . S
C2906 C2907 1.394 . S
C2906 H2914 0.930 . S
C2907 C2906 1.394 . S
C2907 C2908 1.383 . S
C2907 H2915 0.929 . S
C2908 C2907 1.383 . S
C2908 C2909 1.377 . S
C2909 H2893 0.930 . S
C2909 C2908 1.377 . S
C2909 C2910 1.379 . S
C2910 H2894 0.931 . S
C2910 C2904 1.383 . S
C2910 C2909 1.379 . S
H2911 C2905 0.959 . S
H2912 C2905 0.961 . S
H2913 C2905 0.960 . S
H2914 C2906 0.930 . S
H2915 C2907 0.929 . S
H2916 C2924 0.929 . S
H2917 C2926 0.930 . S
H2918 C2928 0.930 . S
H2919 C2931 0.929 . S
H2920 C2934 0.930 . S
H2921 C2936 0.960 . S
H2922 C2936 0.960 . S
H2923 C2936 0.960 . S
C2924 H2916 0.929 . S
C2924 C2925 1.377 . S
C2924 C2926 1.384 . S
C2925 C2924 1.377 . S
C2925 C2931 1.390 . S
C2926 H2917 0.930 . S
C2926 C2924 1.384 . S
C2926 C2927 1.372 . S
C2927 C2926 1.372 . S
C2927 C2928 1.400 . S
C2927 C2932 1.490 . S
C2928 H2918 0.930 . S
C2928 C2927 1.400 . S
C2928 C2931 1.386 . S
H2929 C2945 0.930 . S
H2930 C2946 0.931 . S
C2931 H2919 0.929 . S
C2931 C2925 1.390 . S
C2931 C2928 1.386 . S
C2932 C2927 1.490 . S
C2932 C2934 1.395 . S
C2932 C2935 1.403 . S
H2933 C2939 0.930 . S
C2934 H2920 0.930 . S
C2934 C2932 1.395 . S
C2934 C2937 1.403 . S
C2935 C2932 1.403 . S
C2935 C2936 1.524 . S
C2935 C2939 1.400 . S
C2936 H2921 0.960 . S
C2936 H2922 0.960 . S
C2936 H2923 0.960 . S
C2936 C2935 1.524 . S
C2937 C2934 1.403 . S
C2937 C2938 1.392 . S
C2937 C2941 1.495 . S
C2938 C2937 1.392 . S
C2938 C2939 1.385 . S
C2938 C2940 1.478 . S
C2939 H2933 0.930 . S
C2939 C2935 1.400 . S
C2939 C2938 1.385 . S
C2940 C2938 1.478 . S
C2940 C2942 1.381 . S
C2940 C2946 1.383 . S
C2941 C2937 1.495 . S
C2941 H2947 0.959 . S
C2941 H2948 0.961 . S
C2941 H2949 0.960 . S
C2942 C2940 1.381 . S
C2942 C2943 1.394 . S
C2942 H2950 0.930 . S
C2943 C2942 1.394 . S
C2943 C2944 1.383 . S
C2943 H2951 0.929 . S
C2944 C2943 1.383 . S
C2944 C2945 1.377 . S
C2945 H2929 0.930 . S
C2945 C2944 1.377 . S
C2945 C2946 1.379 . S
C2946 H2930 0.931 . S
C2946 C2940 1.383 . S
C2946 C2945 1.379 . S
H2947 C2941 0.959 . S
H2948 C2941 0.961 . S
H2949 C2941 0.960 . S
H2950 C2942 0.930 . S
H2951 C2943 0.929 . S
H2952 C2960 0.929 . S
H2953 C2962 0.930 . S
H2954 C2964 0.930 . S
H2955 C2967 0.929 . S
H2956 C2970 0.930 . S
H2957 C2972 0.960 . S
H2958 C2972 0.960 . S
H2959 C2972 0.960 . S
C2960 H2952 0.929 . S
C2960 C2961 1.377 . S
C2960 C2962 1.384 . S
C2961 C2960 1.377 . S
C2961 C2967 1.390 . S
C2962 H2953 0.930 . S
C2962 C2960 1.384 . S
C2962 C2963 1.372 . S
C2963 C2962 1.372 . S
C2963 C2964 1.400 . S
C2963 C2968 1.490 . S
C2964 H2954 0.930 . S
C2964 C2963 1.400 . S
C2964 C2967 1.386 . S
H2965 C2981 0.930 . S
H2966 C2982 0.931 . S
C2967 H2955 0.929 . S
C2967 C2961 1.390 . S
C2967 C2964 1.386 . S
C2968 C2963 1.490 . S
C2968 C2970 1.395 . S
C2968 C2971 1.403 . S
H2969 C2975 0.930 . S
C2970 H2956 0.930 . S
C2970 C2968 1.395 . S
C2970 C2973 1.403 . S
C2971 C2968 1.403 . S
C2971 C2972 1.524 . S
C2971 C2975 1.400 . S
C2972 H2957 0.960 . S
C2972 H2958 0.960 . S
C2972 H2959 0.960 . S
C2972 C2971 1.524 . S
C2973 C2970 1.403 . S
C2973 C2974 1.392 . S
C2973 C2977 1.495 . S
C2974 C2973 1.392 . S
C2974 C2975 1.385 . S
C2974 C2976 1.478 . S
C2975 H2969 0.930 . S
C2975 C2971 1.400 . S
C2975 C2974 1.385 . S
C2976 C2974 1.478 . S
C2976 C2978 1.381 . S
C2976 C2982 1.383 . S
C2977 C2973 1.495 . S
C2977 H2983 0.959 . S
C2977 H2984 0.961 . S
C2977 H2985 0.960 . S
C2978 C2976 1.381 . S
C2978 C2979 1.394 . S
C2978 H2986 0.930 . S
C2979 C2978 1.394 . S
C2979 C2980 1.383 . S
C2979 H2987 0.929 . S
C2980 C2979 1.383 . S
C2980 C2981 1.377 . S
C2981 H2965 0.930 . S
C2981 C2980 1.377 . S
C2981 C2982 1.379 . S
C2982 H2966 0.931 . S
C2982 C2976 1.383 . S
C2982 C2981 1.379 . S
H2983 C2977 0.959 . S
H2984 C2977 0.961 . S
H2985 C2977 0.960 . S
H2986 C2978 0.930 . S
H2987 C2979 0.929 . S
H2988 C2996 0.929 . S
H2989 C2998 0.930 . S
H2990 C3000 0.930 . S
H2991 C3003 0.929 . S
H2992 C3006 0.930 . S
H2993 C3008 0.960 . S
H2994 C3008 0.960 . S
H2995 C3008 0.960 . S
C2996 H2988 0.929 . S
C2996 C2997 1.377 . S
C2996 C2998 1.384 . S
C2997 C2996 1.377 . S
C2997 C3003 1.390 . S
C2998 H2989 0.930 . S
C2998 C2996 1.384 . S
C2998 C2999 1.372 . S
C2999 C2998 1.372 . S
C2999 C3000 1.400 . S
C2999 C3004 1.490 . S
C3000 H2990 0.930 . S
C3000 C2999 1.400 . S
C3000 C3003 1.386 . S
H3001 C3017 0.930 . S
H3002 C3018 0.931 . S
C3003 H2991 0.929 . S
C3003 C2997 1.390 . S
C3003 C3000 1.386 . S
C3004 C2999 1.490 . S
C3004 C3006 1.395 . S
C3004 C3007 1.403 . S
H3005 C3011 0.930 . S
C3006 H2992 0.930 . S
C3006 C3004 1.395 . S
C3006 C3009 1.403 . S
C3007 C3004 1.403 . S
C3007 C3008 1.524 . S
C3007 C3011 1.400 . S
C3008 H2993 0.960 . S
C3008 H2994 0.960 . S
C3008 H2995 0.960 . S
C3008 C3007 1.524 . S
C3009 C3006 1.403 . S
C3009 C3010 1.392 . S
C3009 C3013 1.495 . S
C3010 C3009 1.392 . S
C3010 C3011 1.385 . S
C3010 C3012 1.478 . S
C3011 H3005 0.930 . S
C3011 C3007 1.400 . S
C3011 C3010 1.385 . S
C3012 C3010 1.478 . S
C3012 C3014 1.381 . S
C3012 C3018 1.383 . S
C3013 C3009 1.495 . S
C3013 H3019 0.959 . S
C3013 H3020 0.961 . S
C3013 H3021 0.960 . S
C3014 C3012 1.381 . S
C3014 C3015 1.394 . S
C3014 H3022 0.930 . S
C3015 C3014 1.394 . S
C3015 C3016 1.383 . S
C3015 H3023 0.929 . S
C3016 C3015 1.383 . S
C3016 C3017 1.377 . S
C3017 H3001 0.930 . S
C3017 C3016 1.377 . S
C3017 C3018 1.379 . S
C3018 H3002 0.931 . S
C3018 C3012 1.383 . S
C3018 C3017 1.379 . S
H3019 C3013 0.959 . S
H3020 C3013 0.961 . S
H3021 C3013 0.960 . S
H3022 C3014 0.930 . S
H3023 C3015 0.929 . S
H3024 C3032 0.929 . S
H3025 C3034 0.930 . S
H3026 C3036 0.930 . S
H3027 C3039 0.929 . S
H3028 C3042 0.930 . S
H3029 C3044 0.960 . S
H3030 C3044 0.960 . S
H3031 C3044 0.960 . S
C3032 H3024 0.929 . S
C3032 C3033 1.377 . S
C3032 C3034 1.384 . S
C3033 C3032 1.377 . S
C3033 C3039 1.390 . S
C3034 H3025 0.930 . S
C3034 C3032 1.384 . S
C3034 C3035 1.372 . S
C3035 C3034 1.372 . S
C3035 C3036 1.400 . S
C3035 C3040 1.490 . S
C3036 H3026 0.930 . S
C3036 C3035 1.400 . S
C3036 C3039 1.386 . S
H3037 C3053 0.930 . S
H3038 C3054 0.931 . S
C3039 H3027 0.929 . S
C3039 C3033 1.390 . S
C3039 C3036 1.386 . S
C3040 C3035 1.490 . S
C3040 C3042 1.395 . S
C3040 C3043 1.403 . S
H3041 C3047 0.930 . S
C3042 H3028 0.930 . S
C3042 C3040 1.395 . S
C3042 C3045 1.403 . S
C3043 C3040 1.403 . S
C3043 C3044 1.524 . S
C3043 C3047 1.400 . S
C3044 H3029 0.960 . S
C3044 H3030 0.960 . S
C3044 H3031 0.960 . S
C3044 C3043 1.524 . S
C3045 C3042 1.403 . S
C3045 C3046 1.392 . S
C3045 C3049 1.495 . S
C3046 C3045 1.392 . S
C3046 C3047 1.385 . S
C3046 C3048 1.478 . S
C3047 H3041 0.930 . S
C3047 C3043 1.400 . S
C3047 C3046 1.385 . S
C3048 C3046 1.478 . S
C3048 C3050 1.381 . S
C3048 C3054 1.383 . S
C3049 C3045 1.495 . S
C3049 H3055 0.959 . S
C3049 H3056 0.961 . S
C3049 H3057 0.960 . S
C3050 C3048 1.381 . S
C3050 C3051 1.394 . S
C3050 H3058 0.930 . S
C3051 C3050 1.394 . S
C3051 C3052 1.383 . S
C3051 H3059 0.929 . S
C3052 C3051 1.383 . S
C3052 C3053 1.377 . S
C3053 H3037 0.930 . S
C3053 C3052 1.377 . S
C3053 C3054 1.379 . S
C3054 H3038 0.931 . S
C3054 C3048 1.383 . S
C3054 C3053 1.379 . S
H3055 C3049 0.959 . S
H3056 C3049 0.961 . S
H3057 C3049 0.960 . S
H3058 C3050 0.930 . S
H3059 C3051 0.929 . S
H3060 C3068 0.929 . S
H3061 C3070 0.930 . S
H3062 C3072 0.930 . S
H3063 C3075 0.929 . S
H3064 C3078 0.930 . S
H3065 C3080 0.960 . S
H3066 C3080 0.960 . S
H3067 C3080 0.960 . S
C3068 H3060 0.929 . S
C3068 C3069 1.377 . S
C3068 C3070 1.384 . S
C3069 C3068 1.377 . S
C3069 C3075 1.390 . S
C3070 H3061 0.930 . S
C3070 C3068 1.384 . S
C3070 C3071 1.372 . S
C3071 C3070 1.372 . S
C3071 C3072 1.400 . S
C3071 C3076 1.490 . S
C3072 H3062 0.930 . S
C3072 C3071 1.400 . S
C3072 C3075 1.386 . S
H3073 C3089 0.930 . S
H3074 C3090 0.931 . S
C3075 H3063 0.929 . S
C3075 C3069 1.390 . S
C3075 C3072 1.386 . S
C3076 C3071 1.490 . S
C3076 C3078 1.395 . S
C3076 C3079 1.403 . S
H3077 C3083 0.930 . S
C3078 H3064 0.930 . S
C3078 C3076 1.395 . S
C3078 C3081 1.403 . S
C3079 C3076 1.403 . S
C3079 C3080 1.524 . S
C3079 C3083 1.400 . S
C3080 H3065 0.960 . S
C3080 H3066 0.960 . S
C3080 H3067 0.960 . S
C3080 C3079 1.524 . S
C3081 C3078 1.403 . S
C3081 C3082 1.392 . S
C3081 C3085 1.495 . S
C3082 C3081 1.392 . S
C3082 C3083 1.385 . S
C3082 C3084 1.478 . S
C3083 H3077 0.930 . S
C3083 C3079 1.400 . S
C3083 C3082 1.385 . S
C3084 C3082 1.478 . S
C3084 C3086 1.381 . S
C3084 C3090 1.383 . S
C3085 C3081 1.495 . S
C3085 H3091 0.959 . S
C3085 H3092 0.961 . S
C3085 H3093 0.960 . S
C3086 C3084 1.381 . S
C3086 C3087 1.394 . S
C3086 H3094 0.930 . S
C3087 C3086 1.394 . S
C3087 C3088 1.383 . S
C3087 H3095 0.929 . S
C3088 C3087 1.383 . S
C3088 C3089 1.377 . S
C3089 H3073 0.930 . S
C3089 C3088 1.377 . S
C3089 C3090 1.379 . S
C3090 H3074 0.931 . S
C3090 C3084 1.383 . S
C3090 C3089 1.379 . S
H3091 C3085 0.959 . S
H3092 C3085 0.961 . S
H3093 C3085 0.960 . S
H3094 C3086 0.930 . S
H3095 C3087 0.929 . S
H3096 C3104 0.929 . S
H3097 C3106 0.930 . S
H3098 C3108 0.930 . S
H3099 C3111 0.929 . S
H3100 C3114 0.930 . S
H3101 C3116 0.960 . S
H3102 C3116 0.960 . S
H3103 C3116 0.960 . S
C3104 H3096 0.929 . S
C3104 C3105 1.377 . S
C3104 C3106 1.384 . S
C3105 C3104 1.377 . S
C3105 C3111 1.390 . S
C3106 H3097 0.930 . S
C3106 C3104 1.384 . S
C3106 C3107 1.372 . S
C3107 C3106 1.372 . S
C3107 C3108 1.400 . S
C3107 C3112 1.490 . S
C3108 H3098 0.930 . S
C3108 C3107 1.400 . S
C3108 C3111 1.386 . S
H3109 C3125 0.930 . S
H3110 C3126 0.931 . S
C3111 H3099 0.929 . S
C3111 C3105 1.390 . S
C3111 C3108 1.386 . S
C3112 C3107 1.490 . S
C3112 C3114 1.395 . S
C3112 C3115 1.403 . S
H3113 C3119 0.930 . S
C3114 H3100 0.930 . S
C3114 C3112 1.395 . S
C3114 C3117 1.403 . S
C3115 C3112 1.403 . S
C3115 C3116 1.524 . S
C3115 C3119 1.400 . S
C3116 H3101 0.960 . S
C3116 H3102 0.960 . S
C3116 H3103 0.960 . S
C3116 C3115 1.524 . S
C3117 C3114 1.403 . S
C3117 C3118 1.392 . S
C3117 C3121 1.495 . S
C3118 C3117 1.392 . S
C3118 C3119 1.385 . S
C3118 C3120 1.478 . S
C3119 H3113 0.930 . S
C3119 C3115 1.400 . S
C3119 C3118 1.385 . S
C3120 C3118 1.478 . S
C3120 C3122 1.381 . S
C3120 C3126 1.383 . S
C3121 C3117 1.495 . S
C3121 H3127 0.959 . S
C3121 H3128 0.961 . S
C3121 H3129 0.960 . S
C3122 C3120 1.381 . S
C3122 C3123 1.394 . S
C3122 H3130 0.930 . S
C3123 C3122 1.394 . S
C3123 C3124 1.383 . S
C3123 H3131 0.929 . S
C3124 C3123 1.383 . S
C3124 C3125 1.377 . S
C3125 H3109 0.930 . S
C3125 C3124 1.377 . S
C3125 C3126 1.379 . S
C3126 H3110 0.931 . S
C3126 C3120 1.383 . S
C3126 C3125 1.379 . S
H3127 C3121 0.959 . S
H3128 C3121 0.961 . S
H3129 C3121 0.960 . S
H3130 C3122 0.930 . S
H3131 C3123 0.929 . S
H3132 C3140 0.929 . S
H3133 C3142 0.930 . S
H3134 C3144 0.930 . S
H3135 C3147 0.929 . S
H3136 C3150 0.930 . S
H3137 C3152 0.960 . S
H3138 C3152 0.960 . S
H3139 C3152 0.960 . S
C3140 H3132 0.929 . S
C3140 C3141 1.377 . S
C3140 C3142 1.384 . S
C3141 C3140 1.377 . S
C3141 C3147 1.390 . S
C3142 H3133 0.930 . S
C3142 C3140 1.384 . S
C3142 C3143 1.372 . S
C3143 C3142 1.372 . S
C3143 C3144 1.400 . S
C3143 C3148 1.490 . S
C3144 H3134 0.930 . S
C3144 C3143 1.400 . S
C3144 C3147 1.386 . S
H3145 C3161 0.930 . S
H3146 C3162 0.931 . S
C3147 H3135 0.929 . S
C3147 C3141 1.390 . S
C3147 C3144 1.386 . S
C3148 C3143 1.490 . S
C3148 C3150 1.395 . S
C3148 C3151 1.403 . S
H3149 C3155 0.930 . S
C3150 H3136 0.930 . S
C3150 C3148 1.395 . S
C3150 C3153 1.403 . S
C3151 C3148 1.403 . S
C3151 C3152 1.524 . S
C3151 C3155 1.400 . S
C3152 H3137 0.960 . S
C3152 H3138 0.960 . S
C3152 H3139 0.960 . S
C3152 C3151 1.524 . S
C3153 C3150 1.403 . S
C3153 C3154 1.392 . S
C3153 C3157 1.495 . S
C3154 C3153 1.392 . S
C3154 C3155 1.385 . S
C3154 C3156 1.478 . S
C3155 H3149 0.930 . S
C3155 C3151 1.400 . S
C3155 C3154 1.385 . S
C3156 C3154 1.478 . S
C3156 C3158 1.381 . S
C3156 C3162 1.383 . S
C3157 C3153 1.495 . S
C3157 H3163 0.959 . S
C3157 H3164 0.961 . S
C3157 H3165 0.960 . S
C3158 C3156 1.381 . S
C3158 C3159 1.394 . S
C3158 H3166 0.930 . S
C3159 C3158 1.394 . S
C3159 C3160 1.383 . S
C3159 H3167 0.929 . S
C3160 C3159 1.383 . S
C3160 C3161 1.377 . S
C3161 H3145 0.930 . S
C3161 C3160 1.377 . S
C3161 C3162 1.379 . S
C3162 H3146 0.931 . S
C3162 C3156 1.383 . S
C3162 C3161 1.379 . S
H3163 C3157 0.959 . S
H3164 C3157 0.961 . S
H3165 C3157 0.960 . S
H3166 C3158 0.930 . S
H3167 C3159 0.929 . S
H3168 C3176 0.929 . S
H3169 C3178 0.930 . S
H3170 C3180 0.930 . S
H3171 C3183 0.929 . S
H3172 C3186 0.930 . S
H3173 C3188 0.960 . S
H3174 C3188 0.960 . S
H3175 C3188 0.960 . S
C3176 H3168 0.929 . S
C3176 C3177 1.377 . S
C3176 C3178 1.384 . S
C3177 C3176 1.377 . S
C3177 C3183 1.390 . S
C3178 H3169 0.930 . S
C3178 C3176 1.384 . S
C3178 C3179 1.372 . S
C3179 C3178 1.372 . S
C3179 C3180 1.400 . S
C3179 C3184 1.490 . S
C3180 H3170 0.930 . S
C3180 C3179 1.400 . S
C3180 C3183 1.386 . S
H3181 C3197 0.930 . S
H3182 C3198 0.931 . S
C3183 H3171 0.929 . S
C3183 C3177 1.390 . S
C3183 C3180 1.386 . S
C3184 C3179 1.490 . S
C3184 C3186 1.395 . S
C3184 C3187 1.403 . S
H3185 C3191 0.930 . S
C3186 H3172 0.930 . S
C3186 C3184 1.395 . S
C3186 C3189 1.403 . S
C3187 C3184 1.403 . S
C3187 C3188 1.524 . S
C3187 C3191 1.400 . S
C3188 H3173 0.960 . S
C3188 H3174 0.960 . S
C3188 H3175 0.960 . S
C3188 C3187 1.524 . S
C3189 C3186 1.403 . S
C3189 C3190 1.392 . S
C3189 C3193 1.495 . S
C3190 C3189 1.392 . S
C3190 C3191 1.385 . S
C3190 C3192 1.478 . S
C3191 H3185 0.930 . S
C3191 C3187 1.400 . S
C3191 C3190 1.385 . S
C3192 C3190 1.478 . S
C3192 C3194 1.381 . S
C3192 C3198 1.383 . S
C3193 C3189 1.495 . S
C3193 H3199 0.959 . S
C3193 H3200 0.961 . S
C3193 H3201 0.960 . S
C3194 C3192 1.381 . S
C3194 C3195 1.394 . S
C3194 H3202 0.930 . S
C3195 C3194 1.394 . S
C3195 C3196 1.383 . S
C3195 H3203 0.929 . S
C3196 C3195 1.383 . S
C3196 C3197 1.377 . S
C3197 H3181 0.930 . S
C3197 C3196 1.377 . S
C3197 C3198 1.379 . S
C3198 H3182 0.931 . S
C3198 C3192 1.383 . S
C3198 C3197 1.379 . S
H3199 C3193 0.959 . S
H3200 C3193 0.961 . S
H3201 C3193 0.960 . S
H3202 C3194 0.930 . S
H3203 C3195 0.929 . S
H3204 C3212 0.929 . S
H3205 C3214 0.930 . S
H3206 C3216 0.930 . S
H3207 C3219 0.929 . S
H3208 C3222 0.930 . S
H3209 C3224 0.960 . S
H3210 C3224 0.960 . S
H3211 C3224 0.960 . S
C3212 H3204 0.929 . S
C3212 C3213 1.377 . S
C3212 C3214 1.384 . S
C3213 C3212 1.377 . S
C3213 C3219 1.390 . S
C3214 H3205 0.930 . S
C3214 C3212 1.384 . S
C3214 C3215 1.372 . S
C3215 C3214 1.372 . S
C3215 C3216 1.400 . S
C3215 C3220 1.490 . S
C3216 H3206 0.930 . S
C3216 C3215 1.400 . S
C3216 C3219 1.386 . S
H3217 C3233 0.930 . S
H3218 C3234 0.931 . S
C3219 H3207 0.929 . S
C3219 C3213 1.390 . S
C3219 C3216 1.386 . S
C3220 C3215 1.490 . S
C3220 C3222 1.395 . S
C3220 C3223 1.403 . S
H3221 C3227 0.930 . S
C3222 H3208 0.930 . S
C3222 C3220 1.395 . S
C3222 C3225 1.403 . S
C3223 C3220 1.403 . S
C3223 C3224 1.524 . S
C3223 C3227 1.400 . S
C3224 H3209 0.960 . S
C3224 H3210 0.960 . S
C3224 H3211 0.960 . S
C3224 C3223 1.524 . S
C3225 C3222 1.403 . S
C3225 C3226 1.392 . S
C3225 C3229 1.495 . S
C3226 C3225 1.392 . S
C3226 C3227 1.385 . S
C3226 C3228 1.478 . S
C3227 H3221 0.930 . S
C3227 C3223 1.400 . S
C3227 C3226 1.385 . S
C3228 C3226 1.478 . S
C3228 C3230 1.381 . S
C3228 C3234 1.383 . S
C3229 C3225 1.495 . S
C3229 H3235 0.959 . S
C3229 H3236 0.961 . S
C3229 H3237 0.960 . S
C3230 C3228 1.381 . S
C3230 C3231 1.394 . S
C3230 H3238 0.930 . S
C3231 C3230 1.394 . S
C3231 C3232 1.383 . S
C3231 H3239 0.929 . S
C3232 C3231 1.383 . S
C3232 C3233 1.377 . S
C3233 H3217 0.930 . S
C3233 C3232 1.377 . S
C3233 C3234 1.379 . S
C3234 H3218 0.931 . S
C3234 C3228 1.383 . S
C3234 C3233 1.379 . S
H3235 C3229 0.959 . S
H3236 C3229 0.961 . S
H3237 C3229 0.960 . S
H3238 C3230 0.930 . S
H3239 C3231 0.929 . S
H3240 C3248 0.929 . S
H3241 C3250 0.930 . S
H3242 C3252 0.930 . S
H3243 C3255 0.929 . S
H3244 C3258 0.930 . S
H3245 C3260 0.960 . S
H3246 C3260 0.960 . S
H3247 C3260 0.960 . S
C3248 H3240 0.929 . S
C3248 C3249 1.377 . S
C3248 C3250 1.384 . S
C3249 C3248 1.377 . S
C3249 C3255 1.390 . S
C3250 H3241 0.930 . S
C3250 C3248 1.384 . S
C3250 C3251 1.372 . S
C3251 C3250 1.372 . S
C3251 C3252 1.400 . S
C3251 C3256 1.490 . S
C3252 H3242 0.930 . S
C3252 C3251 1.400 . S
C3252 C3255 1.386 . S
H3253 C3269 0.930 . S
H3254 C3270 0.931 . S
C3255 H3243 0.929 . S
C3255 C3249 1.390 . S
C3255 C3252 1.386 . S
C3256 C3251 1.490 . S
C3256 C3258 1.395 . S
C3256 C3259 1.403 . S
H3257 C3263 0.930 . S
C3258 H3244 0.930 . S
C3258 C3256 1.395 . S
C3258 C3261 1.403 . S
C3259 C3256 1.403 . S
C3259 C3260 1.524 . S
C3259 C3263 1.400 . S
C3260 H3245 0.960 . S
C3260 H3246 0.960 . S
C3260 H3247 0.960 . S
C3260 C3259 1.524 . S
C3261 C3258 1.403 . S
C3261 C3262 1.392 . S
C3261 C3265 1.495 . S
C3262 C3261 1.392 . S
C3262 C3263 1.385 . S
C3262 C3264 1.478 . S
C3263 H3257 0.930 . S
C3263 C3259 1.400 . S
C3263 C3262 1.385 . S
C3264 C3262 1.478 . S
C3264 C3266 1.381 . S
C3264 C3270 1.383 . S
C3265 C3261 1.495 . S
C3265 H3271 0.959 . S
C3265 H3272 0.961 . S
C3265 H3273 0.960 . S
C3266 C3264 1.381 . S
C3266 C3267 1.394 . S
C3266 H3274 0.930 . S
C3267 C3266 1.394 . S
C3267 C3268 1.383 . S
C3267 H3275 0.929 . S
C3268 C3267 1.383 . S
C3268 C3269 1.377 . S
C3269 H3253 0.930 . S
C3269 C3268 1.377 . S
C3269 C3270 1.379 . S
C3270 H3254 0.931 . S
C3270 C3264 1.383 . S
C3270 C3269 1.379 . S
H3271 C3265 0.959 . S
H3272 C3265 0.961 . S
H3273 C3265 0.960 . S
H3274 C3266 0.930 . S
H3275 C3267 0.929 . S
H3276 C3284 0.929 . S
H3277 C3286 0.930 . S
H3278 C3288 0.930 . S
H3279 C3291 0.929 . S
H3280 C3294 0.930 . S
H3281 C3296 0.960 . S
H3282 C3296 0.960 . S
H3283 C3296 0.960 . S
C3284 H3276 0.929 . S
C3284 C3285 1.377 . S
C3284 C3286 1.384 . S
C3285 C3284 1.377 . S
C3285 C3291 1.390 . S
C3286 H3277 0.930 . S
C3286 C3284 1.384 . S
C3286 C3287 1.372 . S
C3287 C3286 1.372 . S
C3287 C3288 1.400 . S
C3287 C3292 1.490 . S
C3288 H3278 0.930 . S
C3288 C3287 1.400 . S
C3288 C3291 1.386 . S
H3289 C3305 0.930 . S
H3290 C3306 0.931 . S
C3291 H3279 0.929 . S
C3291 C3285 1.390 . S
C3291 C3288 1.386 . S
C3292 C3287 1.490 . S
C3292 C3294 1.395 . S
C3292 C3295 1.403 . S
H3293 C3299 0.930 . S
C3294 H3280 0.930 . S
C3294 C3292 1.395 . S
C3294 C3297 1.403 . S
C3295 C3292 1.403 . S
C3295 C3296 1.524 . S
C3295 C3299 1.400 . S
C3296 H3281 0.960 . S
C3296 H3282 0.960 . S
C3296 H3283 0.960 . S
C3296 C3295 1.524 . S
C3297 C3294 1.403 . S
C3297 C3298 1.392 . S
C3297 C3301 1.495 . S
C3298 C3297 1.392 . S
C3298 C3299 1.385 . S
C3298 C3300 1.478 . S
C3299 H3293 0.930 . S
C3299 C3295 1.400 . S
C3299 C3298 1.385 . S
C3300 C3298 1.478 . S
C3300 C3302 1.381 . S
C3300 C3306 1.383 . S
C3301 C3297 1.495 . S
C3301 H3307 0.959 . S
C3301 H3308 0.961 . S
C3301 H3309 0.960 . S
C3302 C3300 1.381 . S
C3302 C3303 1.394 . S
C3302 H3310 0.930 . S
C3303 C3302 1.394 . S
C3303 C3304 1.383 . S
C3303 H3311 0.929 . S
C3304 C3303 1.383 . S
C3304 C3305 1.377 . S
C3305 H3289 0.930 . S
C3305 C3304 1.377 . S
C3305 C3306 1.379 . S
C3306 H3290 0.931 . S
C3306 C3300 1.383 . S
C3306 C3305 1.379 . S
H3307 C3301 0.959 . S
H3308 C3301 0.961 . S
H3309 C3301 0.960 . S
H3310 C3302 0.930 . S
H3311 C3303 0.929 . S
H3312 C3320 0.929 . S
H3313 C3322 0.930 . S
H3314 C3324 0.930 . S
H3315 C3327 0.929 . S
H3316 C3330 0.930 . S
H3317 C3332 0.960 . S
H3318 C3332 0.960 . S
H3319 C3332 0.960 . S
C3320 H3312 0.929 . S
C3320 C3321 1.377 . S
C3320 C3322 1.384 . S
C3321 C3320 1.377 . S
C3321 C3327 1.390 . S
C3322 H3313 0.930 . S
C3322 C3320 1.384 . S
C3322 C3323 1.372 . S
C3323 C3322 1.372 . S
C3323 C3324 1.400 . S
C3323 C3328 1.490 . S
C3324 H3314 0.930 . S
C3324 C3323 1.400 . S
C3324 C3327 1.386 . S
H3325 C3341 0.930 . S
H3326 C3342 0.931 . S
C3327 H3315 0.929 . S
C3327 C3321 1.390 . S
C3327 C3324 1.386 . S
C3328 C3323 1.490 . S
C3328 C3330 1.395 . S
C3328 C3331 1.403 . S
H3329 C3335 0.930 . S
C3330 H3316 0.930 . S
C3330 C3328 1.395 . S
C3330 C3333 1.403 . S
C3331 C3328 1.403 . S
C3331 C3332 1.524 . S
C3331 C3335 1.400 . S
C3332 H3317 0.960 . S
C3332 H3318 0.960 . S
C3332 H3319 0.960 . S
C3332 C3331 1.524 . S
C3333 C3330 1.403 . S
C3333 C3334 1.392 . S
C3333 C3337 1.495 . S
C3334 C3333 1.392 . S
C3334 C3335 1.385 . S
C3334 C3336 1.478 . S
C3335 H3329 0.930 . S
C3335 C3331 1.400 . S
C3335 C3334 1.385 . S
C3336 C3334 1.478 . S
C3336 C3338 1.381 . S
C3336 C3342 1.383 . S
C3337 C3333 1.495 . S
C3337 H3343 0.959 . S
C3337 H3344 0.961 . S
C3337 H3345 0.960 . S
C3338 C3336 1.381 . S
C3338 C3339 1.394 . S
C3338 H3346 0.930 . S
C3339 C3338 1.394 . S
C3339 C3340 1.383 . S
C3339 H3347 0.929 . S
C3340 C3339 1.383 . S
C3340 C3341 1.377 . S
C3341 H3325 0.930 . S
C3341 C3340 1.377 . S
C3341 C3342 1.379 . S
C3342 H3326 0.931 . S
C3342 C3336 1.383 . S
C3342 C3341 1.379 . S
H3343 C3337 0.959 . S
H3344 C3337 0.961 . S
H3345 C3337 0.960 . S
H3346 C3338 0.930 . S
H3347 C3339 0.929 . S
H3348 C3356 0.929 . S
H3349 C3358 0.930 . S
H3350 C3360 0.930 . S
H3351 C3363 0.929 . S
H3352 C3366 0.930 . S
H3353 C3368 0.960 . S
H3354 C3368 0.960 . S
H3355 C3368 0.960 . S
C3356 H3348 0.929 . S
C3356 C3357 1.377 . S
C3356 C3358 1.384 . S
C3357 C3356 1.377 . S
C3357 C3363 1.390 . S
C3358 H3349 0.930 . S
C3358 C3356 1.384 . S
C3358 C3359 1.372 . S
C3359 C3358 1.372 . S
C3359 C3360 1.400 . S
C3359 C3364 1.490 . S
C3360 H3350 0.930 . S
C3360 C3359 1.400 . S
C3360 C3363 1.386 . S
H3361 C3377 0.930 . S
H3362 C3378 0.931 . S
C3363 H3351 0.929 . S
C3363 C3357 1.390 . S
C3363 C3360 1.386 . S
C3364 C3359 1.490 . S
C3364 C3366 1.395 . S
C3364 C3367 1.403 . S
H3365 C3371 0.930 . S
C3366 H3352 0.930 . S
C3366 C3364 1.395 . S
C3366 C3369 1.403 . S
C3367 C3364 1.403 . S
C3367 C3368 1.524 . S
C3367 C3371 1.400 . S
C3368 H3353 0.960 . S
C3368 H3354 0.960 . S
C3368 H3355 0.960 . S
C3368 C3367 1.524 . S
C3369 C3366 1.403 . S
C3369 C3370 1.392 . S
C3369 C3373 1.495 . S
C3370 C3369 1.392 . S
C3370 C3371 1.385 . S
C3370 C3372 1.478 . S
C3371 H3365 0.930 . S
C3371 C3367 1.400 . S
C3371 C3370 1.385 . S
C3372 C3370 1.478 . S
C3372 C3374 1.381 . S
C3372 C3378 1.383 . S
C3373 C3369 1.495 . S
C3373 H3379 0.959 . S
C3373 H3380 0.961 . S
C3373 H3381 0.960 . S
C3374 C3372 1.381 . S
C3374 C3375 1.394 . S
C3374 H3382 0.930 . S
C3375 C3374 1.394 . S
C3375 C3376 1.383 . S
C3375 H3383 0.929 . S
C3376 C3375 1.383 . S
C3376 C3377 1.377 . S
C3377 H3361 0.930 . S
C3377 C3376 1.377 . S
C3377 C3378 1.379 . S
C3378 H3362 0.931 . S
C3378 C3372 1.383 . S
C3378 C3377 1.379 . S
H3379 C3373 0.959 . S
H3380 C3373 0.961 . S
H3381 C3373 0.960 . S
H3382 C3374 0.930 . S
H3383 C3375 0.929 . S
H3384 C3392 0.929 . S
H3385 C3394 0.930 . S
H3386 C3396 0.930 . S
H3387 C3399 0.929 . S
H3388 C3402 0.930 . S
H3389 C3404 0.960 . S
H3390 C3404 0.960 . S
H3391 C3404 0.960 . S
C3392 H3384 0.929 . S
C3392 C3393 1.377 . S
C3392 C3394 1.384 . S
C3393 C3392 1.377 . S
C3393 C3399 1.390 . S
C3394 H3385 0.930 . S
C3394 C3392 1.384 . S
C3394 C3395 1.372 . S
C3395 C3394 1.372 . S
C3395 C3396 1.400 . S
C3395 C3400 1.490 . S
C3396 H3386 0.930 . S
C3396 C3395 1.400 . S
C3396 C3399 1.386 . S
H3397 C3413 0.930 . S
H3398 C3414 0.931 . S
C3399 H3387 0.929 . S
C3399 C3393 1.390 . S
C3399 C3396 1.386 . S
C3400 C3395 1.490 . S
C3400 C3402 1.395 . S
C3400 C3403 1.403 . S
H3401 C3407 0.930 . S
C3402 H3388 0.930 . S
C3402 C3400 1.395 . S
C3402 C3405 1.403 . S
C3403 C3400 1.403 . S
C3403 C3404 1.524 . S
C3403 C3407 1.400 . S
C3404 H3389 0.960 . S
C3404 H3390 0.960 . S
C3404 H3391 0.960 . S
C3404 C3403 1.524 . S
C3405 C3402 1.403 . S
C3405 C3406 1.392 . S
C3405 C3409 1.495 . S
C3406 C3405 1.392 . S
C3406 C3407 1.385 . S
C3406 C3408 1.478 . S
C3407 H3401 0.930 . S
C3407 C3403 1.400 . S
C3407 C3406 1.385 . S
C3408 C3406 1.478 . S
C3408 C3410 1.381 . S
C3408 C3414 1.383 . S
C3409 C3405 1.495 . S
C3409 H3415 0.959 . S
C3409 H3416 0.961 . S
C3409 H3417 0.960 . S
C3410 C3408 1.381 . S
C3410 C3411 1.394 . S
C3410 H3418 0.930 . S
C3411 C3410 1.394 . S
C3411 C3412 1.383 . S
C3411 H3419 0.929 . S
C3412 C3411 1.383 . S
C3412 C3413 1.377 . S
C3413 H3397 0.930 . S
C3413 C3412 1.377 . S
C3413 C3414 1.379 . S
C3414 H3398 0.931 . S
C3414 C3408 1.383 . S
C3414 C3413 1.379 . S
H3415 C3409 0.959 . S
H3416 C3409 0.961 . S
H3417 C3409 0.960 . S
H3418 C3410 0.930 . S
H3419 C3411 0.929 . S
H3420 C3428 0.929 . S
H3421 C3430 0.930 . S
H3422 C3432 0.930 . S
H3423 C3435 0.929 . S
H3424 C3438 0.930 . S
H3425 C3440 0.960 . S
H3426 C3440 0.960 . S
H3427 C3440 0.960 . S
C3428 H3420 0.929 . S
C3428 C3429 1.377 . S
C3428 C3430 1.384 . S
C3429 C3428 1.377 . S
C3429 C3435 1.390 . S
C3430 H3421 0.930 . S
C3430 C3428 1.384 . S
C3430 C3431 1.372 . S
C3431 C3430 1.372 . S
C3431 C3432 1.400 . S
C3431 C3436 1.490 . S
C3432 H3422 0.930 . S
C3432 C3431 1.400 . S
C3432 C3435 1.386 . S
H3433 C3449 0.930 . S
H3434 C3450 0.931 . S
C3435 H3423 0.929 . S
C3435 C3429 1.390 . S
C3435 C3432 1.386 . S
C3436 C3431 1.490 . S
C3436 C3438 1.395 . S
C3436 C3439 1.403 . S
H3437 C3443 0.930 . S
C3438 H3424 0.930 . S
C3438 C3436 1.395 . S
C3438 C3441 1.403 . S
C3439 C3436 1.403 . S
C3439 C3440 1.524 . S
C3439 C3443 1.400 . S
C3440 H3425 0.960 . S
C3440 H3426 0.960 . S
C3440 H3427 0.960 . S
C3440 C3439 1.524 . S
C3441 C3438 1.403 . S
C3441 C3442 1.392 . S
C3441 C3445 1.495 . S
C3442 C3441 1.392 . S
C3442 C3443 1.385 . S
C3442 C3444 1.478 . S
C3443 H3437 0.930 . S
C3443 C3439 1.400 . S
C3443 C3442 1.385 . S
C3444 C3442 1.478 . S
C3444 C3446 1.381 . S
C3444 C3450 1.383 . S
C3445 C3441 1.495 . S
C3445 H3451 0.959 . S
C3445 H3452 0.961 . S
C3445 H3453 0.960 . S
C3446 C3444 1.381 . S
C3446 C3447 1.394 . S
C3446 H3454 0.930 . S
C3447 C3446 1.394 . S
C3447 C3448 1.383 . S
C3447 H3455 0.929 . S
C3448 C3447 1.383 . S
C3448 C3449 1.377 . S
C3449 H3433 0.930 . S
C3449 C3448 1.377 . S
C3449 C3450 1.379 . S
C3450 H3434 0.931 . S
C3450 C3444 1.383 . S
C3450 C3449 1.379 . S
H3451 C3445 0.959 . S
H3452 C3445 0.961 . S
H3453 C3445 0.960 . S
H3454 C3446 0.930 . S
H3455 C3447 0.929 . S
H3456 C3464 0.929 . S
H3457 C3466 0.930 . S
H3458 C3468 0.930 . S
H3459 C3471 0.929 . S
H3460 C3474 0.930 . S
H3461 C3476 0.960 . S
H3462 C3476 0.960 . S
H3463 C3476 0.960 . S
C3464 H3456 0.929 . S
C3464 C3465 1.377 . S
C3464 C3466 1.384 . S
C3465 C3464 1.377 . S
C3465 C3471 1.390 . S
C3466 H3457 0.930 . S
C3466 C3464 1.384 . S
C3466 C3467 1.372 . S
C3467 C3466 1.372 . S
C3467 C3468 1.400 . S
C3467 C3472 1.490 . S
C3468 H3458 0.930 . S
C3468 C3467 1.400 . S
C3468 C3471 1.386 . S
H3469 C3485 0.930 . S
H3470 C3486 0.931 . S
C3471 H3459 0.929 . S
C3471 C3465 1.390 . S
C3471 C3468 1.386 . S
C3472 C3467 1.490 . S
C3472 C3474 1.395 . S
C3472 C3475 1.403 . S
H3473 C3479 0.930 . S
C3474 H3460 0.930 . S
C3474 C3472 1.395 . S
C3474 C3477 1.403 . S
C3475 C3472 1.403 . S
C3475 C3476 1.524 . S
C3475 C3479 1.400 . S
C3476 H3461 0.960 . S
C3476 H3462 0.960 . S
C3476 H3463 0.960 . S
C3476 C3475 1.524 . S
C3477 C3474 1.403 . S
C3477 C3478 1.392 . S
C3477 C3481 1.495 . S
C3478 C3477 1.392 . S
C3478 C3479 1.385 . S
C3478 C3480 1.478 . S
C3479 H3473 0.930 . S
C3479 C3475 1.400 . S
C3479 C3478 1.385 . S
C3480 C3478 1.478 . S
C3480 C3482 1.381 . S
C3480 C3486 1.383 . S
C3481 C3477 1.495 . S
C3481 H3487 0.959 . S
C3481 H3488 0.961 . S
C3481 H3489 0.960 . S
C3482 C3480 1.381 . S
C3482 C3483 1.394 . S
C3482 H3490 0.930 . S
C3483 C3482 1.394 . S
C3483 C3484 1.383 . S
C3483 H3491 0.929 . S
C3484 C3483 1.383 . S
C3484 C3485 1.377 . S
C3485 H3469 0.930 . S
C3485 C3484 1.377 . S
C3485 C3486 1.379 . S
C3486 H3470 0.931 . S
C3486 C3480 1.383 . S
C3486 C3485 1.379 . S
H3487 C3481 0.959 . S
H3488 C3481 0.961 . S
H3489 C3481 0.960 . S
H3490 C3482 0.930 . S
H3491 C3483 0.929 . S
H3492 C3500 0.929 . S
H3493 C3502 0.930 . S
H3494 C3504 0.930 . S
H3495 C3507 0.929 . S
H3496 C3510 0.930 . S
H3497 C3512 0.960 . S
H3498 C3512 0.960 . S
H3499 C3512 0.960 . S
C3500 H3492 0.929 . S
C3500 C3501 1.377 . S
C3500 C3502 1.384 . S
C3501 C3500 1.377 . S
C3501 C3507 1.390 . S
C3502 H3493 0.930 . S
C3502 C3500 1.384 . S
C3502 C3503 1.372 . S
C3503 C3502 1.372 . S
C3503 C3504 1.400 . S
C3503 C3508 1.490 . S
C3504 H3494 0.930 . S
C3504 C3503 1.400 . S
C3504 C3507 1.386 . S
H3505 C3521 0.930 . S
H3506 C3522 0.931 . S
C3507 H3495 0.929 . S
C3507 C3501 1.390 . S
C3507 C3504 1.386 . S
C3508 C3503 1.490 . S
C3508 C3510 1.395 . S
C3508 C3511 1.403 . S
H3509 C3515 0.930 . S
C3510 H3496 0.930 . S
C3510 C3508 1.395 . S
C3510 C3513 1.403 . S
C3511 C3508 1.403 . S
C3511 C3512 1.524 . S
C3511 C3515 1.400 . S
C3512 H3497 0.960 . S
C3512 H3498 0.960 . S
C3512 H3499 0.960 . S
C3512 C3511 1.524 . S
C3513 C3510 1.403 . S
C3513 C3514 1.392 . S
C3513 C3517 1.495 . S
C3514 C3513 1.392 . S
C3514 C3515 1.385 . S
C3514 C3516 1.478 . S
C3515 H3509 0.930 . S
C3515 C3511 1.400 . S
C3515 C3514 1.385 . S
C3516 C3514 1.478 . S
C3516 C3518 1.381 . S
C3516 C3522 1.383 . S
C3517 C3513 1.495 . S
C3517 H3523 0.959 . S
C3517 H3524 0.961 . S
C3517 H3525 0.960 . S
C3518 C3516 1.381 . S
C3518 C3519 1.394 . S
C3518 H3526 0.930 . S
C3519 C3518 1.394 . S
C3519 C3520 1.383 . S
C3519 H3527 0.929 . S
C3520 C3519 1.383 . S
C3520 C3521 1.377 . S
C3521 H3505 0.930 . S
C3521 C3520 1.377 . S
C3521 C3522 1.379 . S
C3522 H3506 0.931 . S
C3522 C3516 1.383 . S
C3522 C3521 1.379 . S
H3523 C3517 0.959 . S
H3524 C3517 0.961 . S
H3525 C3517 0.960 . S
H3526 C3518 0.930 . S
H3527 C3519 0.929 . S
H3528 C3536 0.929 . S
H3529 C3538 0.930 . S
H3530 C3540 0.930 . S
H3531 C3543 0.929 . S
H3532 C3546 0.930 . S
H3533 C3548 0.960 . S
H3534 C3548 0.960 . S
H3535 C3548 0.960 . S
C3536 H3528 0.929 . S
C3536 C3537 1.377 . S
C3536 C3538 1.384 . S
C3537 C3536 1.377 . S
C3537 C3543 1.390 . S
C3538 H3529 0.930 . S
C3538 C3536 1.384 . S
C3538 C3539 1.372 . S
C3539 C3538 1.372 . S
C3539 C3540 1.400 . S
C3539 C3544 1.490 . S
C3540 H3530 0.930 . S
C3540 C3539 1.400 . S
C3540 C3543 1.386 . S
H3541 C3557 0.930 . S
H3542 C3558 0.931 . S
C3543 H3531 0.929 . S
C3543 C3537 1.390 . S
C3543 C3540 1.386 . S
C3544 C3539 1.490 . S
C3544 C3546 1.395 . S
C3544 C3547 1.403 . S
H3545 C3551 0.930 . S
C3546 H3532 0.930 . S
C3546 C3544 1.395 . S
C3546 C3549 1.403 . S
C3547 C3544 1.403 . S
C3547 C3548 1.524 . S
C3547 C3551 1.400 . S
C3548 H3533 0.960 . S
C3548 H3534 0.960 . S
C3548 H3535 0.960 . S
C3548 C3547 1.524 . S
C3549 C3546 1.403 . S
C3549 C3550 1.392 . S
C3549 C3553 1.495 . S
C3550 C3549 1.392 . S
C3550 C3551 1.385 . S
C3550 C3552 1.478 . S
C3551 H3545 0.930 . S
C3551 C3547 1.400 . S
C3551 C3550 1.385 . S
C3552 C3550 1.478 . S
C3552 C3554 1.381 . S
C3552 C3558 1.383 . S
C3553 C3549 1.495 . S
C3553 H3559 0.959 . S
C3553 H3560 0.961 . S
C3553 H3561 0.960 . S
C3554 C3552 1.381 . S
C3554 C3555 1.394 . S
C3554 H3562 0.930 . S
C3555 C3554 1.394 . S
C3555 C3556 1.383 . S
C3555 H3563 0.929 . S
C3556 C3555 1.383 . S
C3556 C3557 1.377 . S
C3557 H3541 0.930 . S
C3557 C3556 1.377 . S
C3557 C3558 1.379 . S
C3558 H3542 0.931 . S
C3558 C3552 1.383 . S
C3558 C3557 1.379 . S
H3559 C3553 0.959 . S
H3560 C3553 0.961 . S
H3561 C3553 0.960 . S
H3562 C3554 0.930 . S
H3563 C3555 0.929 . S
H3564 C3572 0.929 . S
H3565 C3574 0.930 . S
H3566 C3576 0.930 . S
H3567 C3579 0.929 . S
H3568 C3582 0.930 . S
H3569 C3584 0.960 . S
H3570 C3584 0.960 . S
H3571 C3584 0.960 . S
C3572 H3564 0.929 . S
C3572 C3573 1.377 . S
C3572 C3574 1.384 . S
C3573 C3572 1.377 . S
C3573 C3579 1.390 . S
C3574 H3565 0.930 . S
C3574 C3572 1.384 . S
C3574 C3575 1.372 . S
C3575 C3574 1.372 . S
C3575 C3576 1.400 . S
C3575 C3580 1.490 . S
C3576 H3566 0.930 . S
C3576 C3575 1.400 . S
C3576 C3579 1.386 . S
H3577 C3593 0.930 . S
H3578 C3594 0.931 . S
C3579 H3567 0.929 . S
C3579 C3573 1.390 . S
C3579 C3576 1.386 . S
C3580 C3575 1.490 . S
C3580 C3582 1.395 . S
C3580 C3583 1.403 . S
H3581 C3587 0.930 . S
C3582 H3568 0.930 . S
C3582 C3580 1.395 . S
C3582 C3585 1.403 . S
C3583 C3580 1.403 . S
C3583 C3584 1.524 . S
C3583 C3587 1.400 . S
C3584 H3569 0.960 . S
C3584 H3570 0.960 . S
C3584 H3571 0.960 . S
C3584 C3583 1.524 . S
C3585 C3582 1.403 . S
C3585 C3586 1.392 . S
C3585 C3589 1.495 . S
C3586 C3585 1.392 . S
C3586 C3587 1.385 . S
C3586 C3588 1.478 . S
C3587 H3581 0.930 . S
C3587 C3583 1.400 . S
C3587 C3586 1.385 . S
C3588 C3586 1.478 . S
C3588 C3590 1.381 . S
C3588 C3594 1.383 . S
C3589 C3585 1.495 . S
C3589 H3595 0.959 . S
C3589 H3596 0.961 . S
C3589 H3597 0.960 . S
C3590 C3588 1.381 . S
C3590 C3591 1.394 . S
C3590 H3598 0.930 . S
C3591 C3590 1.394 . S
C3591 C3592 1.383 . S
C3591 H3599 0.929 . S
C3592 C3591 1.383 . S
C3592 C3593 1.377 . S
C3593 H3577 0.930 . S
C3593 C3592 1.377 . S
C3593 C3594 1.379 . S
C3594 H3578 0.931 . S
C3594 C3588 1.383 . S
C3594 C3593 1.379 . S
H3595 C3589 0.959 . S
H3596 C3589 0.961 . S
H3597 C3589 0.960 . S
H3598 C3590 0.930 . S
H3599 C3591 0.929 . S
H3600 C3608 0.929 . S
H3601 C3610 0.930 . S
H3602 C3612 0.930 . S
H3603 C3615 0.929 . S
H3604 C3618 0.930 . S
H3605 C3620 0.960 . S
H3606 C3620 0.960 . S
H3607 C3620 0.960 . S
C3608 H3600 0.929 . S
C3608 C3609 1.377 . S
C3608 C3610 1.384 . S
C3609 C3608 1.377 . S
C3609 C3615 1.390 . S
C3610 H3601 0.930 . S
C3610 C3608 1.384 . S
C3610 C3611 1.372 . S
C3611 C3610 1.372 . S
C3611 C3612 1.400 . S
C3611 C3616 1.490 . S
C3612 H3602 0.930 . S
C3612 C3611 1.400 . S
C3612 C3615 1.386 . S
H3613 C3629 0.930 . S
H3614 C3630 0.931 . S
C3615 H3603 0.929 . S
C3615 C3609 1.390 . S
C3615 C3612 1.386 . S
C3616 C3611 1.490 . S
C3616 C3618 1.395 . S
C3616 C3619 1.403 . S
H3617 C3623 0.930 . S
C3618 H3604 0.930 . S
C3618 C3616 1.395 . S
C3618 C3621 1.403 . S
C3619 C3616 1.403 . S
C3619 C3620 1.524 . S
C3619 C3623 1.400 . S
C3620 H3605 0.960 . S
C3620 H3606 0.960 . S
C3620 H3607 0.960 . S
C3620 C3619 1.524 . S
C3621 C3618 1.403 . S
C3621 C3622 1.392 . S
C3621 C3625 1.495 . S
C3622 C3621 1.392 . S
C3622 C3623 1.385 . S
C3622 C3624 1.478 . S
C3623 H3617 0.930 . S
C3623 C3619 1.400 . S
C3623 C3622 1.385 . S
C3624 C3622 1.478 . S
C3624 C3626 1.381 . S
C3624 C3630 1.383 . S
C3625 C3621 1.495 . S
C3625 H3631 0.959 . S
C3625 H3632 0.961 . S
C3625 H3633 0.960 . S
C3626 C3624 1.381 . S
C3626 C3627 1.394 . S
C3626 H3634 0.930 . S
C3627 C3626 1.394 . S
C3627 C3628 1.383 . S
C3627 H3635 0.929 . S
C3628 C3627 1.383 . S
C3628 C3629 1.377 . S
C3629 H3613 0.930 . S
C3629 C3628 1.377 . S
C3629 C3630 1.379 . S
C3630 H3614 0.931 . S
C3630 C3624 1.383 . S
C3630 C3629 1.379 . S
H3631 C3625 0.959 . S
H3632 C3625 0.961 . S
H3633 C3625 0.960 . S
H3634 C3626 0.930 . S
H3635 C3627 0.929 . S
H3636 C3644 0.929 . S
H3637 C3646 0.930 . S
H3638 C3648 0.930 . S
H3639 C3651 0.929 . S
H3640 C3654 0.930 . S
H3641 C3656 0.960 . S
H3642 C3656 0.960 . S
H3643 C3656 0.960 . S
C3644 H3636 0.929 . S
C3644 C3645 1.377 . S
C3644 C3646 1.384 . S
C3645 C3644 1.377 . S
C3645 C3651 1.390 . S
C3646 H3637 0.930 . S
C3646 C3644 1.384 . S
C3646 C3647 1.372 . S
C3647 C3646 1.372 . S
C3647 C3648 1.400 . S
C3647 C3652 1.490 . S
C3648 H3638 0.930 . S
C3648 C3647 1.400 . S
C3648 C3651 1.386 . S
H3649 C3665 0.930 . S
H3650 C3666 0.931 . S
C3651 H3639 0.929 . S
C3651 C3645 1.390 . S
C3651 C3648 1.386 . S
C3652 C3647 1.490 . S
C3652 C3654 1.395 . S
C3652 C3655 1.403 . S
H3653 C3659 0.930 . S
C3654 H3640 0.930 . S
C3654 C3652 1.395 . S
C3654 C3657 1.403 . S
C3655 C3652 1.403 . S
C3655 C3656 1.524 . S
C3655 C3659 1.400 . S
C3656 H3641 0.960 . S
C3656 H3642 0.960 . S
C3656 H3643 0.960 . S
C3656 C3655 1.524 . S
C3657 C3654 1.403 . S
C3657 C3658 1.392 . S
C3657 C3661 1.495 . S
C3658 C3657 1.392 . S
C3658 C3659 1.385 . S
C3658 C3660 1.478 . S
C3659 H3653 0.930 . S
C3659 C3655 1.400 . S
C3659 C3658 1.385 . S
C3660 C3658 1.478 . S
C3660 C3662 1.381 . S
C3660 C3666 1.383 . S
C3661 C3657 1.495 . S
C3661 H3667 0.959 . S
C3661 H3668 0.961 . S
C3661 H3669 0.960 . S
C3662 C3660 1.381 . S
C3662 C3663 1.394 . S
C3662 H3670 0.930 . S
C3663 C3662 1.394 . S
C3663 C3664 1.383 . S
C3663 H3671 0.929 . S
C3664 C3663 1.383 . S
C3664 C3665 1.377 . S
C3665 H3649 0.930 . S
C3665 C3664 1.377 . S
C3665 C3666 1.379 . S
C3666 H3650 0.931 . S
C3666 C3660 1.383 . S
C3666 C3665 1.379 . S
H3667 C3661 0.959 . S
H3668 C3661 0.961 . S
H3669 C3661 0.960 . S
H3670 C3662 0.930 . S
H3671 C3663 0.929 . S
H3672 C3680 0.929 . S
H3673 C3682 0.930 . S
H3674 C3684 0.930 . S
H3675 C3687 0.929 . S
H3676 C3690 0.930 . S
H3677 C3692 0.960 . S
H3678 C3692 0.960 . S
H3679 C3692 0.960 . S
C3680 H3672 0.929 . S
C3680 C3681 1.377 . S
C3680 C3682 1.384 . S
C3681 C3680 1.377 . S
C3681 C3687 1.390 . S
C3682 H3673 0.930 . S
C3682 C3680 1.384 . S
C3682 C3683 1.372 . S
C3683 C3682 1.372 . S
C3683 C3684 1.400 . S
C3683 C3688 1.490 . S
C3684 H3674 0.930 . S
C3684 C3683 1.400 . S
C3684 C3687 1.386 . S
H3685 C3701 0.930 . S
H3686 C3702 0.931 . S
C3687 H3675 0.929 . S
C3687 C3681 1.390 . S
C3687 C3684 1.386 . S
C3688 C3683 1.490 . S
C3688 C3690 1.395 . S
C3688 C3691 1.403 . S
H3689 C3695 0.930 . S
C3690 H3676 0.930 . S
C3690 C3688 1.395 . S
C3690 C3693 1.403 . S
C3691 C3688 1.403 . S
C3691 C3692 1.524 . S
C3691 C3695 1.400 . S
C3692 H3677 0.960 . S
C3692 H3678 0.960 . S
C3692 H3679 0.960 . S
C3692 C3691 1.524 . S
C3693 C3690 1.403 . S
C3693 C3694 1.392 . S
C3693 C3697 1.495 . S
C3694 C3693 1.392 . S
C3694 C3695 1.385 . S
C3694 C3696 1.478 . S
C3695 H3689 0.930 . S
C3695 C3691 1.400 . S
C3695 C3694 1.385 . S
C3696 C3694 1.478 . S
C3696 C3698 1.381 . S
C3696 C3702 1.383 . S
C3697 C3693 1.495 . S
C3697 H3703 0.959 . S
C3697 H3704 0.961 . S
C3697 H3705 0.960 . S
C3698 C3696 1.381 . S
C3698 C3699 1.394 . S
C3698 H3706 0.930 . S
C3699 C3698 1.394 . S
C3699 C3700 1.383 . S
C3699 H3707 0.929 . S
C3700 C3699 1.383 . S
C3700 C3701 1.377 . S
C3701 H3685 0.930 . S
C3701 C3700 1.377 . S
C3701 C3702 1.379 . S
C3702 H3686 0.931 . S
C3702 C3696 1.383 . S
C3702 C3701 1.379 . S
H3703 C3697 0.959 . S
H3704 C3697 0.961 . S
H3705 C3697 0.960 . S
H3706 C3698 0.930 . S
H3707 C3699 0.929 . S
H3708 C3716 0.929 . S
H3709 C3718 0.930 . S
H3710 C3720 0.930 . S
H3711 C3723 0.929 . S
H3712 C3726 0.930 . S
H3713 C3728 0.960 . S
H3714 C3728 0.960 . S
H3715 C3728 0.960 . S
C3716 H3708 0.929 . S
C3716 C3717 1.377 . S
C3716 C3718 1.384 . S
C3717 C3716 1.377 . S
C3717 C3723 1.390 . S
C3718 H3709 0.930 . S
C3718 C3716 1.384 . S
C3718 C3719 1.372 . S
C3719 C3718 1.372 . S
C3719 C3720 1.400 . S
C3719 C3724 1.490 . S
C3720 H3710 0.930 . S
C3720 C3719 1.400 . S
C3720 C3723 1.386 . S
H3721 C3737 0.930 . S
H3722 C3738 0.931 . S
C3723 H3711 0.929 . S
C3723 C3717 1.390 . S
C3723 C3720 1.386 . S
C3724 C3719 1.490 . S
C3724 C3726 1.395 . S
C3724 C3727 1.403 . S
H3725 C3731 0.930 . S
C3726 H3712 0.930 . S
C3726 C3724 1.395 . S
C3726 C3729 1.403 . S
C3727 C3724 1.403 . S
C3727 C3728 1.524 . S
C3727 C3731 1.400 . S
C3728 H3713 0.960 . S
C3728 H3714 0.960 . S
C3728 H3715 0.960 . S
C3728 C3727 1.524 . S
C3729 C3726 1.403 . S
C3729 C3730 1.392 . S
C3729 C3733 1.495 . S
C3730 C3729 1.392 . S
C3730 C3731 1.385 . S
C3730 C3732 1.478 . S
C3731 H3725 0.930 . S
C3731 C3727 1.400 . S
C3731 C3730 1.385 . S
C3732 C3730 1.478 . S
C3732 C3734 1.381 . S
C3732 C3738 1.383 . S
C3733 C3729 1.495 . S
C3733 H3739 0.959 . S
C3733 H3740 0.961 . S
C3733 H3741 0.960 . S
C3734 C3732 1.381 . S
C3734 C3735 1.394 . S
C3734 H3742 0.930 . S
C3735 C3734 1.394 . S
C3735 C3736 1.383 . S
C3735 H3743 0.929 . S
C3736 C3735 1.383 . S
C3736 C3737 1.377 . S
C3737 H3721 0.930 . S
C3737 C3736 1.377 . S
C3737 C3738 1.379 . S
C3738 H3722 0.931 . S
C3738 C3732 1.383 . S
C3738 C3737 1.379 . S
H3739 C3733 0.959 . S
H3740 C3733 0.961 . S
H3741 C3733 0.960 . S
H3742 C3734 0.930 . S
H3743 C3735 0.929 . S
H3744 C3752 0.929 . S
H3745 C3754 0.930 . S
H3746 C3756 0.930 . S
H3747 C3759 0.929 . S
H3748 C3762 0.930 . S
H3749 C3764 0.960 . S
H3750 C3764 0.960 . S
H3751 C3764 0.960 . S
C3752 H3744 0.929 . S
C3752 C3753 1.377 . S
C3752 C3754 1.384 . S
C3753 C3752 1.377 . S
C3753 C3759 1.390 . S
C3754 H3745 0.930 . S
C3754 C3752 1.384 . S
C3754 C3755 1.372 . S
C3755 C3754 1.372 . S
C3755 C3756 1.400 . S
C3755 C3760 1.490 . S
C3756 H3746 0.930 . S
C3756 C3755 1.400 . S
C3756 C3759 1.386 . S
H3757 C3773 0.930 . S
H3758 C3774 0.931 . S
C3759 H3747 0.929 . S
C3759 C3753 1.390 . S
C3759 C3756 1.386 . S
C3760 C3755 1.490 . S
C3760 C3762 1.395 . S
C3760 C3763 1.403 . S
H3761 C3767 0.930 . S
C3762 H3748 0.930 . S
C3762 C3760 1.395 . S
C3762 C3765 1.403 . S
C3763 C3760 1.403 . S
C3763 C3764 1.524 . S
C3763 C3767 1.400 . S
C3764 H3749 0.960 . S
C3764 H3750 0.960 . S
C3764 H3751 0.960 . S
C3764 C3763 1.524 . S
C3765 C3762 1.403 . S
C3765 C3766 1.392 . S
C3765 C3769 1.495 . S
C3766 C3765 1.392 . S
C3766 C3767 1.385 . S
C3766 C3768 1.478 . S
C3767 H3761 0.930 . S
C3767 C3763 1.400 . S
C3767 C3766 1.385 . S
C3768 C3766 1.478 . S
C3768 C3770 1.381 . S
C3768 C3774 1.383 . S
C3769 C3765 1.495 . S
C3769 H3775 0.959 . S
C3769 H3776 0.961 . S
C3769 H3777 0.960 . S
C3770 C3768 1.381 . S
C3770 C3771 1.394 . S
C3770 H3778 0.930 . S
C3771 C3770 1.394 . S
C3771 C3772 1.383 . S
C3771 H3779 0.929 . S
C3772 C3771 1.383 . S
C3772 C3773 1.377 . S
C3773 H3757 0.930 . S
C3773 C3772 1.377 . S
C3773 C3774 1.379 . S
C3774 H3758 0.931 . S
C3774 C3768 1.383 . S
C3774 C3773 1.379 . S
H3775 C3769 0.959 . S
H3776 C3769 0.961 . S
H3777 C3769 0.960 . S
H3778 C3770 0.930 . S
H3779 C3771 0.929 . S
H3780 C3788 0.929 . S
H3781 C3790 0.930 . S
H3782 C3792 0.930 . S
H3783 C3795 0.929 . S
H3784 C3798 0.930 . S
H3785 C3800 0.960 . S
H3786 C3800 0.960 . S
H3787 C3800 0.960 . S
C3788 H3780 0.929 . S
C3788 C3789 1.377 . S
C3788 C3790 1.384 . S
C3789 C3788 1.377 . S
C3789 C3795 1.390 . S
C3790 H3781 0.930 . S
C3790 C3788 1.384 . S
C3790 C3791 1.372 . S
C3791 C3790 1.372 . S
C3791 C3792 1.400 . S
C3791 C3796 1.490 . S
C3792 H3782 0.930 . S
C3792 C3791 1.400 . S
C3792 C3795 1.386 . S
H3793 C3809 0.930 . S
H3794 C3810 0.931 . S
C3795 H3783 0.929 . S
C3795 C3789 1.390 . S
C3795 C3792 1.386 . S
C3796 C3791 1.490 . S
C3796 C3798 1.395 . S
C3796 C3799 1.403 . S
H3797 C3803 0.930 . S
C3798 H3784 0.930 . S
C3798 C3796 1.395 . S
C3798 C3801 1.403 . S
C3799 C3796 1.403 . S
C3799 C3800 1.524 . S
C3799 C3803 1.400 . S
C3800 H3785 0.960 . S
C3800 H3786 0.960 . S
C3800 H3787 0.960 . S
C3800 C3799 1.524 . S
C3801 C3798 1.403 . S
C3801 C3802 1.392 . S
C3801 C3805 1.495 . S
C3802 C3801 1.392 . S
C3802 C3803 1.385 . S
C3802 C3804 1.478 . S
C3803 H3797 0.930 . S
C3803 C3799 1.400 . S
C3803 C3802 1.385 . S
C3804 C3802 1.478 . S
C3804 C3806 1.381 . S
C3804 C3810 1.383 . S
C3805 C3801 1.495 . S
C3805 H3811 0.959 . S
C3805 H3812 0.961 . S
C3805 H3813 0.960 . S
C3806 C3804 1.381 . S
C3806 C3807 1.394 . S
C3806 H3814 0.930 . S
C3807 C3806 1.394 . S
C3807 C3808 1.383 . S
C3807 H3815 0.929 . S
C3808 C3807 1.383 . S
C3808 C3809 1.377 . S
C3809 H3793 0.930 . S
C3809 C3808 1.377 . S
C3809 C3810 1.379 . S
C3810 H3794 0.931 . S
C3810 C3804 1.383 . S
C3810 C3809 1.379 . S
H3811 C3805 0.959 . S
H3812 C3805 0.961 . S
H3813 C3805 0.960 . S
H3814 C3806 0.930 . S
H3815 C3807 0.929 . S
H3816 C3824 0.929 . S
H3817 C3826 0.930 . S
H3818 C3828 0.930 . S
H3819 C3831 0.929 . S
H3820 C3834 0.930 . S
H3821 C3836 0.960 . S
H3822 C3836 0.960 . S
H3823 C3836 0.960 . S
C3824 H3816 0.929 . S
C3824 C3825 1.377 . S
C3824 C3826 1.384 . S
C3825 C3824 1.377 . S
C3825 C3831 1.390 . S
C3826 H3817 0.930 . S
C3826 C3824 1.384 . S
C3826 C3827 1.372 . S
C3827 C3826 1.372 . S
C3827 C3828 1.400 . S
C3827 C3832 1.490 . S
C3828 H3818 0.930 . S
C3828 C3827 1.400 . S
C3828 C3831 1.386 . S
H3829 C3845 0.930 . S
H3830 C3846 0.931 . S
C3831 H3819 0.929 . S
C3831 C3825 1.390 . S
C3831 C3828 1.386 . S
C3832 C3827 1.490 . S
C3832 C3834 1.395 . S
C3832 C3835 1.403 . S
H3833 C3839 0.930 . S
C3834 H3820 0.930 . S
C3834 C3832 1.395 . S
C3834 C3837 1.403 . S
C3835 C3832 1.403 . S
C3835 C3836 1.524 . S
C3835 C3839 1.400 . S
C3836 H3821 0.960 . S
C3836 H3822 0.960 . S
C3836 H3823 0.960 . S
C3836 C3835 1.524 . S
C3837 C3834 1.403 . S
C3837 C3838 1.392 . S
C3837 C3841 1.495 . S
C3838 C3837 1.392 . S
C3838 C3839 1.385 . S
C3838 C3840 1.478 . S
C3839 H3833 0.930 . S
C3839 C3835 1.400 . S
C3839 C3838 1.385 . S
C3840 C3838 1.478 . S
C3840 C3842 1.381 . S
C3840 C3846 1.383 . S
C3841 C3837 1.495 . S
C3841 H3847 0.959 . S
C3841 H3848 0.961 . S
C3841 H3849 0.960 . S
C3842 C3840 1.381 . S
C3842 C3843 1.394 . S
C3842 H3850 0.930 . S
C3843 C3842 1.394 . S
C3843 C3844 1.383 . S
C3843 H3851 0.929 . S
C3844 C3843 1.383 . S
C3844 C3845 1.377 . S
C3845 H3829 0.930 . S
C3845 C3844 1.377 . S
C3845 C3846 1.379 . S
C3846 H3830 0.931 . S
C3846 C3840 1.383 . S
C3846 C3845 1.379 . S
H3847 C3841 0.959 . S
H3848 C3841 0.961 . S
H3849 C3841 0.960 . S
H3850 C3842 0.930 . S
H3851 C3843 0.929 . S
H3852 C3860 0.940 . S
H3853 C3862 0.930 . S
H3854 C3864 0.930 . S
H3855 C3867 0.929 . S
H3856 C3870 0.930 . S
H3857 C3872 0.960 . S
H3858 C3872 0.960 . S
H3859 C3872 0.960 . S
C3860 H3852 0.940 . S
C3860 C3861 1.366 1_565 S
C3860 C3862 1.385 . S
C3861 C3860 1.366 1_545 S
C3861 C3867 1.390 . S
C3862 H3853 0.930 . S
C3862 C3860 1.385 . S
C3862 C3863 1.372 1_565 S
C3863 C3862 1.372 1_545 S
C3863 C3864 1.400 . S
C3863 C3868 1.495 . S
C3864 H3854 0.930 . S
C3864 C3863 1.400 . S
C3864 C3867 1.386 . S
H3865 C3881 0.931 1_545 S
H3866 C3882 0.926 . S
C3867 H3855 0.929 . S
C3867 C3861 1.390 . S
C3867 C3864 1.386 . S
C3868 C3863 1.495 . S
C3868 C3870 1.349 1_545 S
C3868 C3871 1.443 . S
H3869 C3875 0.930 . S
C3870 H3856 0.930 . S
C3870 C3868 1.349 1_565 S
C3870 C3873 1.403 . S
C3871 C3868 1.443 . S
C3871 C3872 1.524 . S
C3871 C3875 1.400 . S
C3872 H3857 0.960 . S
C3872 H3858 0.960 . S
C3872 H3859 0.960 . S
C3872 C3871 1.524 . S
C3873 C3870 1.403 . S
C3873 C3874 1.392 . S
C3873 C3877 1.495 . S
C3874 C3873 1.392 . S
C3874 C3875 1.385 1_565 S
C3874 C3876 1.478 . S
C3875 H3869 0.930 . S
C3875 C3871 1.400 . S
C3875 C3874 1.385 1_545 S
C3876 C3874 1.478 . S
C3876 C3878 1.381 . S
C3876 C3882 1.383 . S
C3877 C3873 1.495 . S
C3877 H3883 0.959 . S
C3877 H3884 0.961 . S
C3877 H3885 0.960 . S
C3878 C3876 1.381 . S
C3878 C3879 1.394 . S
C3878 H3886 0.930 . S
C3879 C3878 1.394 . S
C3879 C3880 1.383 . S
C3879 H3887 0.929 . S
C3880 C3879 1.383 . S
C3880 C3881 1.377 . S
C3881 H3865 0.931 1_565 S
C3881 C3880 1.377 . S
C3881 C3882 1.379 . S
C3882 H3866 0.926 . S
C3882 C3876 1.383 . S
C3882 C3881 1.379 . S
H3883 C3877 0.959 . S
H3884 C3877 0.961 . S
H3885 C3877 0.960 . S
H3886 C3878 0.930 . S
H3887 C3879 0.929 . S
H3888 C3896 0.929 . S
H3889 C3898 0.915 . S
H3890 C3900 0.930 . S
H3891 C3903 0.929 . S
H3892 C3906 0.930 . S
H3893 C3908 0.960 . S
H3894 C3908 0.960 . S
H3895 C3908 0.960 . S
C3896 H3888 0.929 . S
C3896 C3897 1.377 . S
C3896 C3898 1.384 . S
C3897 C3896 1.377 . S
C3897 C3903 1.390 . S
C3898 H3889 0.915 . S
C3898 C3896 1.384 . S
C3898 C3899 1.372 . S
C3899 C3898 1.372 . S
C3899 C3900 1.400 . S
C3899 C3904 1.494 . S
C3900 H3890 0.930 . S
C3900 C3899 1.400 . S
C3900 C3903 1.386 . S
H3901 C3917 0.958 1_455 S
H3902 C3918 0.931 . S
C3903 H3891 0.929 . S
C3903 C3897 1.390 . S
C3903 C3900 1.386 . S
C3904 C3899 1.494 . S
C3904 C3906 1.464 . S
C3904 C3907 1.334 1_455 S
H3905 C3911 0.930 . S
C3906 H3892 0.930 . S
C3906 C3904 1.464 . S
C3906 C3909 1.403 . S
C3907 C3904 1.334 1_655 S
C3907 C3908 1.524 . S
C3907 C3911 1.400 . S
C3908 H3893 0.960 . S
C3908 H3894 0.960 . S
C3908 H3895 0.960 . S
C3908 C3907 1.524 . S
C3909 C3906 1.403 . S
C3909 C3910 1.467 . S
C3909 C3913 1.495 . S
C3910 C3909 1.467 . S
C3910 C3911 1.312 1_455 S
C3910 C3912 1.476 . S
C3911 H3905 0.930 . S
C3911 C3907 1.400 . S
C3911 C3910 1.312 1_655 S
C3912 C3910 1.476 . S
C3912 C3914 1.382 1_455 S
C3912 C3918 1.381 . S
C3913 C3909 1.495 . S
C3913 H3919 0.959 . S
C3913 H3920 0.961 . S
C3913 H3921 0.960 . S
C3914 C3912 1.382 1_655 S
C3914 C3915 1.394 . S
C3914 H3922 0.930 . S
C3915 C3914 1.394 . S
C3915 C3916 1.383 . S
C3915 H3923 0.929 . S
C3916 C3915 1.383 . S
C3916 C3917 1.372 . S
C3917 H3901 0.958 1_655 S
C3917 C3916 1.372 . S
C3917 C3918 1.377 1_655 S
C3918 H3902 0.931 . S
C3918 C3912 1.381 . S
C3918 C3917 1.377 1_455 S
H3919 C3913 0.959 . S
H3920 C3913 0.961 . S
H3921 C3913 0.960 . S
H3922 C3914 0.930 . S
H3923 C3915 0.929 . S
H3924 C3932 0.929 . S
H3925 C3934 0.930 . S
H3926 C3936 0.930 . S
H3927 C3939 0.929 . S
H3928 C3942 0.930 . S
H3929 C3944 0.960 . S
H3930 C3944 0.960 . S
H3931 C3944 0.960 . S
C3932 H3924 0.929 . S
C3932 C3933 1.377 . S
C3932 C3934 1.384 . S
C3933 C3932 1.377 . S
C3933 C3939 1.390 . S
C3934 H3925 0.930 . S
C3934 C3932 1.384 . S
C3934 C3935 1.372 . S
C3935 C3934 1.372 . S
C3935 C3936 1.400 . S
C3935 C3940 1.490 . S
C3936 H3926 0.930 . S
C3936 C3935 1.400 . S
C3936 C3939 1.386 . S
H3937 C3953 0.930 . S
H3938 C3954 0.931 . S
C3939 H3927 0.929 . S
C3939 C3933 1.390 . S
C3939 C3936 1.386 . S
C3940 C3935 1.490 . S
C3940 C3942 1.395 . S
C3940 C3943 1.403 . S
H3941 C3947 0.930 . S
C3942 H3928 0.930 . S
C3942 C3940 1.395 . S
C3942 C3945 1.403 . S
C3943 C3940 1.403 . S
C3943 C3944 1.524 . S
C3943 C3947 1.400 . S
C3944 H3929 0.960 . S
C3944 H3930 0.960 . S
C3944 H3931 0.960 . S
C3944 C3943 1.524 . S
C3945 C3942 1.403 . S
C3945 C3946 1.392 . S
C3945 C3949 1.495 . S
C3946 C3945 1.392 . S
C3946 C3947 1.385 . S
C3946 C3948 1.478 . S
C3947 H3941 0.930 . S
C3947 C3943 1.400 . S
C3947 C3946 1.385 . S
C3948 C3946 1.478 . S
C3948 C3950 1.381 . S
C3948 C3954 1.383 . S
C3949 C3945 1.495 . S
C3949 H3955 0.959 . S
C3949 H3956 0.961 . S
C3949 H3957 0.960 . S
C3950 C3948 1.381 . S
C3950 C3951 1.394 . S
C3950 H3958 0.930 . S
C3951 C3950 1.394 . S
C3951 C3952 1.383 . S
C3951 H3959 0.929 . S
C3952 C3951 1.383 . S
C3952 C3953 1.377 . S
C3953 H3937 0.930 . S
C3953 C3952 1.377 . S
C3953 C3954 1.379 . S
C3954 H3938 0.931 . S
C3954 C3948 1.383 . S
C3954 C3953 1.379 . S
H3955 C3949 0.959 . S
H3956 C3949 0.961 . S
H3957 C3949 0.960 . S
H3958 C3950 0.930 . S
H3959 C3951 0.929 . S
H3960 C3968 0.935 1_565 S
H3961 C3970 0.930 . S
H3962 C3972 0.930 . S
H3963 C3975 0.929 . S
H3964 C3978 0.930 . S
H3965 C3980 0.960 . S
H3966 C3980 0.960 . S
H3967 C3980 0.960 . S
C3968 H3960 0.935 1_545 S
C3968 C3969 1.372 . S
C3968 C3970 1.384 1_545 S
C3969 C3968 1.372 . S
C3969 C3975 1.390 . S
C3970 H3961 0.930 . S
C3970 C3968 1.384 1_565 S
C3970 C3971 1.372 1_565 S
C3971 C3970 1.372 1_545 S
C3971 C3972 1.400 . S
C3971 C3976 1.496 . S
C3972 H3962 0.930 . S
C3972 C3971 1.400 . S
C3972 C3975 1.386 . S
H3973 C3989 0.947 . S
H3974 C3990 0.953 . S
C3975 H3963 0.929 . S
C3975 C3969 1.390 . S
C3975 C3972 1.386 . S
C3976 C3971 1.496 . S
C3976 C3978 1.347 1_545 S
C3976 C3979 1.445 . S
H3977 C3983 0.930 . S
C3978 H3964 0.930 . S
C3978 C3976 1.347 1_565 S
C3978 C3981 1.403 . S
C3979 C3976 1.445 . S
C3979 C3980 1.524 . S
C3979 C3983 1.400 . S
C3980 H3965 0.960 . S
C3980 H3966 0.960 . S
C3980 H3967 0.960 . S
C3980 C3979 1.524 . S
C3981 C3978 1.403 . S
C3981 C3982 1.392 . S
C3981 C3985 1.495 . S
C3982 C3981 1.392 . S
C3982 C3983 1.385 1_565 S
C3982 C3984 1.478 . S
C3983 H3977 0.930 . S
C3983 C3979 1.400 . S
C3983 C3982 1.385 1_545 S
C3984 C3982 1.478 . S
C3984 C3986 1.381 . S
C3984 C3990 1.383 . S
C3985 C3981 1.495 . S
C3985 H3991 0.959 . S
C3985 H3992 0.961 . S
C3985 H3993 0.960 . S
C3986 C3984 1.381 . S
C3986 C3987 1.394 . S
C3986 H3994 0.930 . S
C3987 C3986 1.394 . S
C3987 C3988 1.383 . S
C3987 H3995 0.929 . S
C3988 C3987 1.383 . S
C3988 C3989 1.377 . S
C3989 H3973 0.947 . S
C3989 C3988 1.377 . S
C3989 C3990 1.379 . S
C3990 H3974 0.953 . S
C3990 C3984 1.383 . S
C3990 C3989 1.379 . S
H3991 C3985 0.959 . S
H3992 C3985 0.961 . S
H3993 C3985 0.960 . S
H3994 C3986 0.930 . S
H3995 C3987 0.929 . S
H3996 C4004 0.929 . S
H3997 C4006 0.930 . S
H3998 C4008 0.930 . S
H3999 C4011 0.929 . S
H4000 C4014 0.930 . S
H4001 C4016 0.960 . S
H4002 C4016 0.960 . S
H4003 C4016 0.960 . S
C4004 H3996 0.929 . S
C4004 C4005 1.377 . S
C4004 C4006 1.384 . S
C4005 C4004 1.377 . S
C4005 C4011 1.390 1_455 S
C4006 H3997 0.930 . S
C4006 C4004 1.384 . S
C4006 C4007 1.372 . S
C4007 C4006 1.372 . S
C4007 C4008 1.400 1_455 S
C4007 C4012 1.490 . S
C4008 H3998 0.930 . S
C4008 C4007 1.400 1_655 S
C4008 C4011 1.386 . S
H4009 C4025 0.930 . S
H4010 C4026 0.931 . S
C4011 H3999 0.929 . S
C4011 C4005 1.390 1_655 S
C4011 C4008 1.386 . S
C4012 C4007 1.490 . S
C4012 C4014 1.395 . S
C4012 C4015 1.403 1_455 S
H4013 C4019 0.930 . S
C4014 H4000 0.930 . S
C4014 C4012 1.395 . S
C4014 C4017 1.403 . S
C4015 C4012 1.403 1_655 S
C4015 C4016 1.524 . S
C4015 C4019 1.400 . S
C4016 H4001 0.960 . S
C4016 H4002 0.960 . S
C4016 H4003 0.960 . S
C4016 C4015 1.524 . S
C4017 C4014 1.403 . S
C4017 C4018 1.392 . S
C4017 C4021 1.495 . S
C4018 C4017 1.392 . S
C4018 C4019 1.385 1_455 S
C4018 C4020 1.482 . S
C4019 H4013 0.930 . S
C4019 C4015 1.400 . S
C4019 C4018 1.385 1_655 S
C4020 C4018 1.482 . S
C4020 C4022 1.416 . S
C4020 C4026 1.342 1_455 S
C4021 C4017 1.495 . S
C4021 H4027 0.959 . S
C4021 H4028 0.961 . S
C4021 H4029 0.960 . S
C4022 C4020 1.416 . S
C4022 C4023 1.394 . S
C4022 H4030 0.930 . S
C4023 C4022 1.394 . S
C4023 C4024 1.383 1_455 S
C4023 H4031 0.929 . S
C4024 C4023 1.383 1_655 S
C4024 C4025 1.377 . S
C4025 H4009 0.930 . S
C4025 C4024 1.377 . S
C4025 C4026 1.379 . S
C4026 H4010 0.931 . S
C4026 C4020 1.342 1_655 S
C4026 C4025 1.379 . S
H4027 C4021 0.959 . S
H4028 C4021 0.961 . S
H4029 C4021 0.960 . S
H4030 C4022 0.930 . S
H4031 C4023 0.929 . S
H4032 C4040 0.927 . S
H4033 C4042 0.930 . S
H4034 C4044 0.930 . S
H4035 C4047 0.929 . S
H4036 C4050 0.930 . S
H4037 C4052 0.960 . S
H4038 C4052 0.960 . S
H4039 C4052 0.960 . S
C4040 H4032 0.927 . S
C4040 C4041 1.375 . S
C4040 C4042 1.388 1_556 S
C4041 C4040 1.375 . S
C4041 C4047 1.390 . S
C4042 H4033 0.930 . S
C4042 C4040 1.388 1_554 S
C4042 C4043 1.372 . S
C4043 C4042 1.372 . S
C4043 C4044 1.400 . S
C4043 C4048 1.490 . S
C4044 H4034 0.930 . S
C4044 C4043 1.400 . S
C4044 C4047 1.386 1_554 S
H4045 C4061 0.930 . S
H4046 C4062 0.931 . S
C4047 H4035 0.929 . S
C4047 C4041 1.390 . S
C4047 C4044 1.386 1_556 S
C4048 C4043 1.490 . S
C4048 C4050 1.395 . S
C4048 C4051 1.403 . S
H4049 C4055 0.930 . S
C4050 H4036 0.930 . S
C4050 C4048 1.395 . S
C4050 C4053 1.403 . S
C4051 C4048 1.403 . S
C4051 C4052 1.524 . S
C4051 C4055 1.400 . S
C4052 H4037 0.960 . S
C4052 H4038 0.960 . S
C4052 H4039 0.960 . S
C4052 C4051 1.524 . S
C4053 C4050 1.403 . S
C4053 C4054 1.392 . S
C4053 C4057 1.495 . S
C4054 C4053 1.392 . S
C4054 C4055 1.385 . S
C4054 C4056 1.478 . S
C4055 H4049 0.930 . S
C4055 C4051 1.400 . S
C4055 C4054 1.385 . S
C4056 C4054 1.478 . S
C4056 C4058 1.381 . S
C4056 C4062 1.383 . S
C4057 C4053 1.495 . S
C4057 H4063 0.959 . S
C4057 H4064 0.961 . S
C4057 H4065 0.960 . S
C4058 C4056 1.381 . S
C4058 C4059 1.394 . S
C4058 H4066 0.930 . S
C4059 C4058 1.394 . S
C4059 C4060 1.383 . S
C4059 H4067 0.929 . S
C4060 C4059 1.383 . S
C4060 C4061 1.377 . S
C4061 H4045 0.930 . S
C4061 C4060 1.377 . S
C4061 C4062 1.379 . S
C4062 H4046 0.931 . S
C4062 C4056 1.383 . S
C4062 C4061 1.379 . S
H4063 C4057 0.959 . S
H4064 C4057 0.961 . S
H4065 C4057 0.960 . S
H4066 C4058 0.930 . S
H4067 C4059 0.929 . S
H4068 C4076 0.929 . S
H4069 C4078 0.930 . S
H4070 C4080 0.930 . S
H4071 C4083 0.929 . S
H4072 C4086 0.930 . S
H4073 C4088 0.960 . S
H4074 C4088 0.960 . S
H4075 C4088 0.960 . S
C4076 H4068 0.929 . S
C4076 C4077 1.377 . S
C4076 C4078 1.384 . S
C4077 C4076 1.377 . S
C4077 C4083 1.390 . S
C4078 H4069 0.930 . S
C4078 C4076 1.384 . S
C4078 C4079 1.372 . S
C4079 C4078 1.372 . S
C4079 C4080 1.400 . S
C4079 C4084 1.490 . S
C4080 H4070 0.930 . S
C4080 C4079 1.400 . S
C4080 C4083 1.386 . S
H4081 C4097 0.933 . S
H4082 C4098 0.931 . S
C4083 H4071 0.929 . S
C4083 C4077 1.390 . S
C4083 C4080 1.386 . S
C4084 C4079 1.490 . S
C4084 C4086 1.395 . S
C4084 C4087 1.403 . S
H4085 C4091 0.930 . S
C4086 H4072 0.930 . S
C4086 C4084 1.395 . S
C4086 C4089 1.403 . S
C4087 C4084 1.403 . S
C4087 C4088 1.524 . S
C4087 C4091 1.400 . S
C4088 H4073 0.960 . S
C4088 H4074 0.960 . S
C4088 H4075 0.960 . S
C4088 C4087 1.524 . S
C4089 C4086 1.403 . S
C4089 C4090 1.392 . S
C4089 C4093 1.495 . S
C4090 C4089 1.392 . S
C4090 C4091 1.385 . S
C4090 C4092 1.478 . S
C4091 H4085 0.930 . S
C4091 C4087 1.400 . S
C4091 C4090 1.385 . S
C4092 C4090 1.478 . S
C4092 C4094 1.381 . S
C4092 C4098 1.383 . S
C4093 C4089 1.495 . S
C4093 H4099 0.959 . S
C4093 H4100 0.961 . S
C4093 H4101 0.960 . S
C4094 C4092 1.381 . S
C4094 C4095 1.394 1_554 S
C4094 H4102 0.930 . S
C4095 C4094 1.394 1_556 S
C4095 C4096 1.383 . S
C4095 H4103 0.929 . S
C4096 C4095 1.383 . S
C4096 C4097 1.381 . S
C4097 H4081 0.933 . S
C4097 C4096 1.381 . S
C4097 C4098 1.373 1_556 S
C4098 H4082 0.931 . S
C4098 C4092 1.383 . S
C4098 C4097 1.373 1_554 S
H4099 C4093 0.959 . S
H4100 C4093 0.961 . S
H4101 C4093 0.960 . S
H4102 C4094 0.930 . S
H4103 C4095 0.929 . S
H4104 C4112 0.929 . S
H4105 C4114 0.930 . S
H4106 C4116 0.930 . S
H4107 C4119 0.924 1_556 S
H4108 C4122 0.930 . S
H4109 C4124 0.960 . S
H4110 C4124 0.960 . S
H4111 C4124 0.960 . S
C4112 H4104 0.929 . S
C4112 C4113 1.377 . S
C4112 C4114 1.384 1_556 S
C4113 C4112 1.377 . S
C4113 C4119 1.383 1_556 S
C4114 H4105 0.930 . S
C4114 C4112 1.384 1_554 S
C4114 C4115 1.372 . S
C4115 C4114 1.372 . S
C4115 C4116 1.400 . S
C4115 C4120 1.490 . S
C4116 H4106 0.930 . S
C4116 C4115 1.400 . S
C4116 C4119 1.398 . S
H4117 C4133 0.930 . S
H4118 C4134 0.931 . S
C4119 H4107 0.924 1_554 S
C4119 C4113 1.383 1_554 S
C4119 C4116 1.398 . S
C4120 C4115 1.490 . S
C4120 C4122 1.395 . S
C4120 C4123 1.403 . S
H4121 C4127 0.930 . S
C4122 H4108 0.930 . S
C4122 C4120 1.395 . S
C4122 C4125 1.403 . S
C4123 C4120 1.403 . S
C4123 C4124 1.524 . S
C4123 C4127 1.400 . S
C4124 H4109 0.960 . S
C4124 H4110 0.960 . S
C4124 H4111 0.960 . S
C4124 C4123 1.524 . S
C4125 C4122 1.403 . S
C4125 C4126 1.392 . S
C4125 C4129 1.495 . S
C4126 C4125 1.392 . S
C4126 C4127 1.385 . S
C4126 C4128 1.478 . S
C4127 H4121 0.930 . S
C4127 C4123 1.400 . S
C4127 C4126 1.385 . S
C4128 C4126 1.478 . S
C4128 C4130 1.381 . S
C4128 C4134 1.383 . S
C4129 C4125 1.495 . S
C4129 H4135 0.959 . S
C4129 H4136 0.961 . S
C4129 H4137 0.960 . S
C4130 C4128 1.381 . S
C4130 C4131 1.394 . S
C4130 H4138 0.930 . S
C4131 C4130 1.394 . S
C4131 C4132 1.383 . S
C4131 H4139 0.929 . S
C4132 C4131 1.383 . S
C4132 C4133 1.377 . S
C4133 H4117 0.930 . S
C4133 C4132 1.377 . S
C4133 C4134 1.379 . S
C4134 H4118 0.931 . S
C4134 C4128 1.383 . S
C4134 C4133 1.379 . S
H4135 C4129 0.959 . S
H4136 C4129 0.961 . S
H4137 C4129 0.960 . S
H4138 C4130 0.930 . S
H4139 C4131 0.929 . S
H4140 C4148 0.929 . S
H4141 C4150 0.930 . S
H4142 C4152 0.930 . S
H4143 C4155 0.929 . S
H4144 C4158 0.930 . S
H4145 C4160 0.960 . S
H4146 C4160 0.960 . S
H4147 C4160 0.960 . S
C4148 H4140 0.929 . S
C4148 C4149 1.377 . S
C4148 C4150 1.384 . S
C4149 C4148 1.377 . S
C4149 C4155 1.390 . S
C4150 H4141 0.930 . S
C4150 C4148 1.384 . S
C4150 C4151 1.372 . S
C4151 C4150 1.372 . S
C4151 C4152 1.400 . S
C4151 C4156 1.490 . S
C4152 H4142 0.930 . S
C4152 C4151 1.400 . S
C4152 C4155 1.386 . S
H4153 C4169 0.930 . S
H4154 C4170 0.931 . S
C4155 H4143 0.929 . S
C4155 C4149 1.390 . S
C4155 C4152 1.386 . S
C4156 C4151 1.490 . S
C4156 C4158 1.395 . S
C4156 C4159 1.403 . S
H4157 C4163 0.930 . S
C4158 H4144 0.930 . S
C4158 C4156 1.395 . S
C4158 C4161 1.403 . S
C4159 C4156 1.403 . S
C4159 C4160 1.524 . S
C4159 C4163 1.400 . S
C4160 H4145 0.960 . S
C4160 H4146 0.960 . S
C4160 H4147 0.960 . S
C4160 C4159 1.524 . S
C4161 C4158 1.403 . S
C4161 C4162 1.392 . S
C4161 C4165 1.495 . S
C4162 C4161 1.392 . S
C4162 C4163 1.385 . S
C4162 C4164 1.478 . S
C4163 H4157 0.930 . S
C4163 C4159 1.400 . S
C4163 C4162 1.385 . S
C4164 C4162 1.478 . S
C4164 C4166 1.381 . S
C4164 C4170 1.383 . S
C4165 C4161 1.495 . S
C4165 H4171 0.959 . S
C4165 H4172 0.961 . S
C4165 H4173 0.960 . S
C4166 C4164 1.381 . S
C4166 C4167 1.394 . S
C4166 H4174 0.930 . S
C4167 C4166 1.394 . S
C4167 C4168 1.383 . S
C4167 H4175 0.929 . S
C4168 C4167 1.383 . S
C4168 C4169 1.377 . S
C4169 H4153 0.930 . S
C4169 C4168 1.377 . S
C4169 C4170 1.379 . S
C4170 H4154 0.931 . S
C4170 C4164 1.383 . S
C4170 C4169 1.379 . S
H4171 C4165 0.959 . S
H4172 C4165 0.961 . S
H4173 C4165 0.960 . S
H4174 C4166 0.930 . S
H4175 C4167 0.929 . S
H4176 C4184 0.929 . S
H4177 C4186 0.930 . S
H4178 C4188 0.930 . S
H4179 C4191 0.929 . S
H4180 C4194 0.930 . S
H4181 C4196 0.960 . S
H4182 C4196 0.960 . S
H4183 C4196 0.960 . S
C4184 H4176 0.929 . S
C4184 C4185 1.377 . S
C4184 C4186 1.384 . S
C4185 C4184 1.377 . S
C4185 C4191 1.390 . S
C4186 H4177 0.930 . S
C4186 C4184 1.384 . S
C4186 C4187 1.372 . S
C4187 C4186 1.372 . S
C4187 C4188 1.400 . S
C4187 C4192 1.490 . S
C4188 H4178 0.930 . S
C4188 C4187 1.400 . S
C4188 C4191 1.386 . S
H4189 C4205 0.930 . S
H4190 C4206 0.931 . S
C4191 H4179 0.929 . S
C4191 C4185 1.390 . S
C4191 C4188 1.386 . S
C4192 C4187 1.490 . S
C4192 C4194 1.395 . S
C4192 C4195 1.403 . S
H4193 C4199 0.930 . S
C4194 H4180 0.930 . S
C4194 C4192 1.395 . S
C4194 C4197 1.403 . S
C4195 C4192 1.403 . S
C4195 C4196 1.524 . S
C4195 C4199 1.400 . S
C4196 H4181 0.960 . S
C4196 H4182 0.960 . S
C4196 H4183 0.960 . S
C4196 C4195 1.524 . S
C4197 C4194 1.403 . S
C4197 C4198 1.392 . S
C4197 C4201 1.495 . S
C4198 C4197 1.392 . S
C4198 C4199 1.385 . S
C4198 C4200 1.478 . S
C4199 H4193 0.930 . S
C4199 C4195 1.400 . S
C4199 C4198 1.385 . S
C4200 C4198 1.478 . S
C4200 C4202 1.381 . S
C4200 C4206 1.383 . S
C4201 C4197 1.495 . S
C4201 H4207 0.959 . S
C4201 H4208 0.961 . S
C4201 H4209 0.960 . S
C4202 C4200 1.381 . S
C4202 C4203 1.394 . S
C4202 H4210 0.930 . S
C4203 C4202 1.394 . S
C4203 C4204 1.383 . S
C4203 H4211 0.929 . S
C4204 C4203 1.383 . S
C4204 C4205 1.377 . S
C4205 H4189 0.930 . S
C4205 C4204 1.377 . S
C4205 C4206 1.379 . S
C4206 H4190 0.931 . S
C4206 C4200 1.383 . S
C4206 C4205 1.379 . S
H4207 C4201 0.959 . S
H4208 C4201 0.961 . S
H4209 C4201 0.960 . S
H4210 C4202 0.930 . S
H4211 C4203 0.929 . S
H4212 C4220 0.929 . S
H4213 C4222 0.930 . S
H4214 C4224 0.930 . S
H4215 C4227 0.929 . S
H4216 C4230 0.930 . S
H4217 C4232 0.960 . S
H4218 C4232 0.960 . S
H4219 C4232 0.960 . S
C4220 H4212 0.929 . S
C4220 C4221 1.377 . S
C4220 C4222 1.384 . S
C4221 C4220 1.377 . S
C4221 C4227 1.390 . S
C4222 H4213 0.930 . S
C4222 C4220 1.384 . S
C4222 C4223 1.372 . S
C4223 C4222 1.372 . S
C4223 C4224 1.400 . S
C4223 C4228 1.490 . S
C4224 H4214 0.930 . S
C4224 C4223 1.400 . S
C4224 C4227 1.386 . S
H4225 C4241 0.930 . S
H4226 C4242 0.931 . S
C4227 H4215 0.929 . S
C4227 C4221 1.390 . S
C4227 C4224 1.386 . S
C4228 C4223 1.490 . S
C4228 C4230 1.395 . S
C4228 C4231 1.403 . S
H4229 C4235 0.930 . S
C4230 H4216 0.930 . S
C4230 C4228 1.395 . S
C4230 C4233 1.403 . S
C4231 C4228 1.403 . S
C4231 C4232 1.524 . S
C4231 C4235 1.400 . S
C4232 H4217 0.960 . S
C4232 H4218 0.960 . S
C4232 H4219 0.960 . S
C4232 C4231 1.524 . S
C4233 C4230 1.403 . S
C4233 C4234 1.392 . S
C4233 C4237 1.495 . S
C4234 C4233 1.392 . S
C4234 C4235 1.385 . S
C4234 C4236 1.478 . S
C4235 H4229 0.930 . S
C4235 C4231 1.400 . S
C4235 C4234 1.385 . S
C4236 C4234 1.478 . S
C4236 C4238 1.381 . S
C4236 C4242 1.383 . S
C4237 C4233 1.495 . S
C4237 H4243 0.959 . S
C4237 H4244 0.961 . S
C4237 H4245 0.960 . S
C4238 C4236 1.381 . S
C4238 C4239 1.394 . S
C4238 H4246 0.930 . S
C4239 C4238 1.394 . S
C4239 C4240 1.383 . S
C4239 H4247 0.929 . S
C4240 C4239 1.383 . S
C4240 C4241 1.377 . S
C4241 H4225 0.930 . S
C4241 C4240 1.377 . S
C4241 C4242 1.379 . S
C4242 H4226 0.931 . S
C4242 C4236 1.383 . S
C4242 C4241 1.379 . S
H4243 C4237 0.959 . S
H4244 C4237 0.961 . S
H4245 C4237 0.960 . S
H4246 C4238 0.930 . S
H4247 C4239 0.929 . S
H4248 C4256 0.929 . S
H4249 C4258 0.930 . S
H4250 C4260 0.930 . S
H4251 C4263 0.929 . S
H4252 C4266 0.930 . S
H4253 C4268 0.960 . S
H4254 C4268 0.960 . S
H4255 C4268 0.960 . S
C4256 H4248 0.929 . S
C4256 C4257 1.377 . S
C4256 C4258 1.384 . S
C4257 C4256 1.377 . S
C4257 C4263 1.390 . S
C4258 H4249 0.930 . S
C4258 C4256 1.384 . S
C4258 C4259 1.372 . S
C4259 C4258 1.372 . S
C4259 C4260 1.400 . S
C4259 C4264 1.490 . S
C4260 H4250 0.930 . S
C4260 C4259 1.400 . S
C4260 C4263 1.386 . S
H4261 C4277 0.930 . S
H4262 C4278 0.931 . S
C4263 H4251 0.929 . S
C4263 C4257 1.390 . S
C4263 C4260 1.386 . S
C4264 C4259 1.490 . S
C4264 C4266 1.395 . S
C4264 C4267 1.403 . S
H4265 C4271 0.930 . S
C4266 H4252 0.930 . S
C4266 C4264 1.395 . S
C4266 C4269 1.403 . S
C4267 C4264 1.403 . S
C4267 C4268 1.524 . S
C4267 C4271 1.400 . S
C4268 H4253 0.960 . S
C4268 H4254 0.960 . S
C4268 H4255 0.960 . S
C4268 C4267 1.524 . S
C4269 C4266 1.403 . S
C4269 C4270 1.392 . S
C4269 C4273 1.495 . S
C4270 C4269 1.392 . S
C4270 C4271 1.385 . S
C4270 C4272 1.478 . S
C4271 H4265 0.930 . S
C4271 C4267 1.400 . S
C4271 C4270 1.385 . S
C4272 C4270 1.478 . S
C4272 C4274 1.381 . S
C4272 C4278 1.383 . S
C4273 C4269 1.495 . S
C4273 H4279 0.959 . S
C4273 H4280 0.961 . S
C4273 H4281 0.960 . S
C4274 C4272 1.381 . S
C4274 C4275 1.394 . S
C4274 H4282 0.930 . S
C4275 C4274 1.394 . S
C4275 C4276 1.383 . S
C4275 H4283 0.929 . S
C4276 C4275 1.383 . S
C4276 C4277 1.377 . S
C4277 H4261 0.930 . S
C4277 C4276 1.377 . S
C4277 C4278 1.379 . S
C4278 H4262 0.931 . S
C4278 C4272 1.383 . S
C4278 C4277 1.379 . S
H4279 C4273 0.959 . S
H4280 C4273 0.961 . S
H4281 C4273 0.960 . S
H4282 C4274 0.930 . S
H4283 C4275 0.929 . S
H4284 C4292 0.929 . S
H4285 C4294 0.930 . S
H4286 C4296 0.930 . S
H4287 C4299 0.929 . S
H4288 C4302 0.930 . S
H4289 C4304 0.960 . S
H4290 C4304 0.960 . S
H4291 C4304 0.960 . S
C4292 H4284 0.929 . S
C4292 C4293 1.377 . S
C4292 C4294 1.384 . S
C4293 C4292 1.377 . S
C4293 C4299 1.390 . S
C4294 H4285 0.930 . S
C4294 C4292 1.384 . S
C4294 C4295 1.372 . S
C4295 C4294 1.372 . S
C4295 C4296 1.400 . S
C4295 C4300 1.490 . S
C4296 H4286 0.930 . S
C4296 C4295 1.400 . S
C4296 C4299 1.386 . S
H4297 C4313 0.930 . S
H4298 C4314 0.931 . S
C4299 H4287 0.929 . S
C4299 C4293 1.390 . S
C4299 C4296 1.386 . S
C4300 C4295 1.490 . S
C4300 C4302 1.395 . S
C4300 C4303 1.403 . S
H4301 C4307 0.930 . S
C4302 H4288 0.930 . S
C4302 C4300 1.395 . S
C4302 C4305 1.403 . S
C4303 C4300 1.403 . S
C4303 C4304 1.524 . S
C4303 C4307 1.400 . S
C4304 H4289 0.960 . S
C4304 H4290 0.960 . S
C4304 H4291 0.960 . S
C4304 C4303 1.524 . S
C4305 C4302 1.403 . S
C4305 C4306 1.392 . S
C4305 C4309 1.495 . S
C4306 C4305 1.392 . S
C4306 C4307 1.385 . S
C4306 C4308 1.478 . S
C4307 H4301 0.930 . S
C4307 C4303 1.400 . S
C4307 C4306 1.385 . S
C4308 C4306 1.478 . S
C4308 C4310 1.381 . S
C4308 C4314 1.383 . S
C4309 C4305 1.495 . S
C4309 H4315 0.959 . S
C4309 H4316 0.961 . S
C4309 H4317 0.960 . S
C4310 C4308 1.381 . S
C4310 C4311 1.394 . S
C4310 H4318 0.930 . S
C4311 C4310 1.394 . S
C4311 C4312 1.383 . S
C4311 H4319 0.929 . S
C4312 C4311 1.383 . S
C4312 C4313 1.377 . S
C4313 H4297 0.930 . S
C4313 C4312 1.377 . S
C4313 C4314 1.379 . S
C4314 H4298 0.931 . S
C4314 C4308 1.383 . S
C4314 C4313 1.379 . S
H4315 C4309 0.959 . S
H4316 C4309 0.961 . S
H4317 C4309 0.960 . S
H4318 C4310 0.930 . S
H4319 C4311 0.929 . S
H4320 C4328 0.929 . S
H4321 C4330 0.930 . S
H4322 C4332 0.930 . S
H4323 C4335 0.929 . S
H4324 C4338 0.930 . S
H4325 C4340 0.960 . S
H4326 C4340 0.960 . S
H4327 C4340 0.960 . S
C4328 H4320 0.929 . S
C4328 C4329 1.377 . S
C4328 C4330 1.384 . S
C4329 C4328 1.377 . S
C4329 C4335 1.390 . S
C4330 H4321 0.930 . S
C4330 C4328 1.384 . S
C4330 C4331 1.372 . S
C4331 C4330 1.372 . S
C4331 C4332 1.400 . S
C4331 C4336 1.490 . S
C4332 H4322 0.930 . S
C4332 C4331 1.400 . S
C4332 C4335 1.386 . S
H4333 C4349 0.930 . S
H4334 C4350 0.931 . S
C4335 H4323 0.929 . S
C4335 C4329 1.390 . S
C4335 C4332 1.386 . S
C4336 C4331 1.490 . S
C4336 C4338 1.395 . S
C4336 C4339 1.403 . S
H4337 C4343 0.930 . S
C4338 H4324 0.930 . S
C4338 C4336 1.395 . S
C4338 C4341 1.403 . S
C4339 C4336 1.403 . S
C4339 C4340 1.524 . S
C4339 C4343 1.400 . S
C4340 H4325 0.960 . S
C4340 H4326 0.960 . S
C4340 H4327 0.960 . S
C4340 C4339 1.524 . S
C4341 C4338 1.403 . S
C4341 C4342 1.392 . S
C4341 C4345 1.495 . S
C4342 C4341 1.392 . S
C4342 C4343 1.385 . S
C4342 C4344 1.478 . S
C4343 H4337 0.930 . S
C4343 C4339 1.400 . S
C4343 C4342 1.385 . S
C4344 C4342 1.478 . S
C4344 C4346 1.381 . S
C4344 C4350 1.383 . S
C4345 C4341 1.495 . S
C4345 H4351 0.959 . S
C4345 H4352 0.961 . S
C4345 H4353 0.960 . S
C4346 C4344 1.381 . S
C4346 C4347 1.394 . S
C4346 H4354 0.930 . S
C4347 C4346 1.394 . S
C4347 C4348 1.383 . S
C4347 H4355 0.929 . S
C4348 C4347 1.383 . S
C4348 C4349 1.377 . S
C4349 H4333 0.930 . S
C4349 C4348 1.377 . S
C4349 C4350 1.379 . S
C4350 H4334 0.931 . S
C4350 C4344 1.383 . S
C4350 C4349 1.379 . S
H4351 C4345 0.959 . S
H4352 C4345 0.961 . S
H4353 C4345 0.960 . S
H4354 C4346 0.930 . S
H4355 C4347 0.929 . S
H4356 C4364 0.929 . S
H4357 C4366 0.930 . S
H4358 C4368 0.930 . S
H4359 C4371 0.929 . S
H4360 C4374 0.930 . S
H4361 C4376 0.960 . S
H4362 C4376 0.960 . S
H4363 C4376 0.960 . S
C4364 H4356 0.929 . S
C4364 C4365 1.377 . S
C4364 C4366 1.384 . S
C4365 C4364 1.377 . S
C4365 C4371 1.390 . S
C4366 H4357 0.930 . S
C4366 C4364 1.384 . S
C4366 C4367 1.372 . S
C4367 C4366 1.372 . S
C4367 C4368 1.400 . S
C4367 C4372 1.490 . S
C4368 H4358 0.930 . S
C4368 C4367 1.400 . S
C4368 C4371 1.386 . S
H4369 C4385 0.930 . S
H4370 C4386 0.931 . S
C4371 H4359 0.929 . S
C4371 C4365 1.390 . S
C4371 C4368 1.386 . S
C4372 C4367 1.490 . S
C4372 C4374 1.395 . S
C4372 C4375 1.403 . S
H4373 C4379 0.930 . S
C4374 H4360 0.930 . S
C4374 C4372 1.395 . S
C4374 C4377 1.403 . S
C4375 C4372 1.403 . S
C4375 C4376 1.524 . S
C4375 C4379 1.400 . S
C4376 H4361 0.960 . S
C4376 H4362 0.960 . S
C4376 H4363 0.960 . S
C4376 C4375 1.524 . S
C4377 C4374 1.403 . S
C4377 C4378 1.392 . S
C4377 C4381 1.495 . S
C4378 C4377 1.392 . S
C4378 C4379 1.385 . S
C4378 C4380 1.483 . S
C4379 H4373 0.930 . S
C4379 C4375 1.400 . S
C4379 C4378 1.385 . S
C4380 C4378 1.483 . S
C4380 C4382 1.378 1_556 S
C4380 C4386 1.379 1_556 S
C4381 C4377 1.495 . S
C4381 H4387 0.959 . S
C4381 H4388 0.961 . S
C4381 H4389 0.960 . S
C4382 C4380 1.378 1_554 S
C4382 C4383 1.394 . S
C4382 H4390 0.930 . S
C4383 C4382 1.394 . S
C4383 C4384 1.383 . S
C4383 H4391 0.929 . S
C4384 C4383 1.383 . S
C4384 C4385 1.377 . S
C4385 H4369 0.930 . S
C4385 C4384 1.377 . S
C4385 C4386 1.379 . S
C4386 H4370 0.931 . S
C4386 C4380 1.379 1_554 S
C4386 C4385 1.379 . S
H4387 C4381 0.959 . S
H4388 C4381 0.961 . S
H4389 C4381 0.960 . S
H4390 C4382 0.930 . S
H4391 C4383 0.929 . S
H4392 C4400 0.929 . S
H4393 C4402 0.930 . S
H4394 C4404 0.930 . S
H4395 C4407 0.929 . S
H4396 C4410 0.930 . S
H4397 C4412 0.960 . S
H4398 C4412 0.960 . S
H4399 C4412 0.960 . S
C4400 H4392 0.929 . S
C4400 C4401 1.377 . S
C4400 C4402 1.384 . S
C4401 C4400 1.377 . S
C4401 C4407 1.390 . S
C4402 H4393 0.930 . S
C4402 C4400 1.384 . S
C4402 C4403 1.372 . S
C4403 C4402 1.372 . S
C4403 C4404 1.400 . S
C4403 C4408 1.490 . S
C4404 H4394 0.930 . S
C4404 C4403 1.400 . S
C4404 C4407 1.386 . S
H4405 C4421 0.930 . S
H4406 C4422 0.931 . S
C4407 H4395 0.929 . S
C4407 C4401 1.390 . S
C4407 C4404 1.386 . S
C4408 C4403 1.490 . S
C4408 C4410 1.395 . S
C4408 C4411 1.403 . S
H4409 C4415 0.930 . S
C4410 H4396 0.930 . S
C4410 C4408 1.395 . S
C4410 C4413 1.403 . S
C4411 C4408 1.403 . S
C4411 C4412 1.524 . S
C4411 C4415 1.400 . S
C4412 H4397 0.960 . S
C4412 H4398 0.960 . S
C4412 H4399 0.960 . S
C4412 C4411 1.524 . S
C4413 C4410 1.403 . S
C4413 C4414 1.392 . S
C4413 C4417 1.495 . S
C4414 C4413 1.392 . S
C4414 C4415 1.385 . S
C4414 C4416 1.460 1_556 S
C4415 H4409 0.930 . S
C4415 C4411 1.400 . S
C4415 C4414 1.385 . S
C4416 C4414 1.460 1_554 S
C4416 C4418 1.391 . S
C4416 C4422 1.390 . S
C4417 C4413 1.495 . S
C4417 H4423 0.959 . S
C4417 H4424 0.961 . S
C4417 H4425 0.960 . S
C4418 C4416 1.391 . S
C4418 C4419 1.394 . S
C4418 H4426 0.930 . S
C4419 C4418 1.394 . S
C4419 C4420 1.383 . S
C4419 H4427 0.929 . S
C4420 C4419 1.383 . S
C4420 C4421 1.377 . S
C4421 H4405 0.930 . S
C4421 C4420 1.377 . S
C4421 C4422 1.379 . S
C4422 H4406 0.931 . S
C4422 C4416 1.390 . S
C4422 C4421 1.379 . S
H4423 C4417 0.959 . S
H4424 C4417 0.961 . S
H4425 C4417 0.960 . S
H4426 C4418 0.930 . S
H4427 C4419 0.929 . S
H4428 C4436 0.929 . S
H4429 C4438 0.930 . S
H4430 C4440 0.930 . S
H4431 C4443 0.929 . S
H4432 C4446 0.930 . S
H4433 C4448 0.960 . S
H4434 C4448 0.960 . S
H4435 C4448 0.960 . S
C4436 H4428 0.929 . S
C4436 C4437 1.377 . S
C4436 C4438 1.384 . S
C4437 C4436 1.377 . S
C4437 C4443 1.390 . S
C4438 H4429 0.930 . S
C4438 C4436 1.384 . S
C4438 C4439 1.372 . S
C4439 C4438 1.372 . S
C4439 C4440 1.400 . S
C4439 C4444 1.490 . S
C4440 H4430 0.930 . S
C4440 C4439 1.400 . S
C4440 C4443 1.386 . S
H4441 C4457 0.930 . S
H4442 C4458 0.931 . S
C4443 H4431 0.929 . S
C4443 C4437 1.390 . S
C4443 C4440 1.386 . S
C4444 C4439 1.490 . S
C4444 C4446 1.395 . S
C4444 C4447 1.403 . S
H4445 C4451 0.930 . S
C4446 H4432 0.930 . S
C4446 C4444 1.395 . S
C4446 C4449 1.403 . S
C4447 C4444 1.403 . S
C4447 C4448 1.524 . S
C4447 C4451 1.400 . S
C4448 H4433 0.960 . S
C4448 H4434 0.960 . S
C4448 H4435 0.960 . S
C4448 C4447 1.524 . S
C4449 C4446 1.403 . S
C4449 C4450 1.392 . S
C4449 C4453 1.495 . S
C4450 C4449 1.392 . S
C4450 C4451 1.385 . S
C4450 C4452 1.479 . S
C4451 H4445 0.930 . S
C4451 C4447 1.400 . S
C4451 C4450 1.385 . S
C4452 C4450 1.479 . S
C4452 C4454 1.380 1_556 S
C4452 C4458 1.382 1_556 S
C4453 C4449 1.495 . S
C4453 H4459 0.959 . S
C4453 H4460 0.961 . S
C4453 H4461 0.960 . S
C4454 C4452 1.380 1_554 S
C4454 C4455 1.394 . S
C4454 H4462 0.930 . S
C4455 C4454 1.394 . S
C4455 C4456 1.383 . S
C4455 H4463 0.929 . S
C4456 C4455 1.383 . S
C4456 C4457 1.377 . S
C4457 H4441 0.930 . S
C4457 C4456 1.377 . S
C4457 C4458 1.379 . S
C4458 H4442 0.931 . S
C4458 C4452 1.382 1_554 S
C4458 C4457 1.379 . S
H4459 C4453 0.959 . S
H4460 C4453 0.961 . S
H4461 C4453 0.960 . S
H4462 C4454 0.930 . S
H4463 C4455 0.929 . S
C1233 C546 1.624 . S
C1252 C2 1.618 1_556 S
C1269 C580 1.623 . S
C1288 C36 1.625 1_556 S
C1305 C512 1.620 . S
C1324 C70 1.635 1_556 S
C1341 C104 1.616 . S
C1360 C886 1.602 . S
C1377 C818 1.621 . S
C1396 C138 1.599 . S
C1413 C852 1.616 . S
C1432 C172 1.617 . S
C1449 C206 1.619 . S
C1468 C1158 1.624 . S
C1485 C1192 1.616 . S
C1504 C240 1.610 . S
C1521 C274 1.622 . S
C1540 C1124 1.635 . S
C1557 C682 1.616 . S
C1576 C308 1.611 . S
C1593 C342 1.616 . S
C1612 C614 1.604 . S
C1629 C648 1.619 . S
C1648 C376 1.602 . S
C1665 C410 1.623 . S
C1684 C954 1.629 . S
C1701 C988 1.623 . S
C1720 C444 1.625 . S
C1737 C920 1.622 . S
C1756 C478 1.633 . S
C1773 C1090 1.615 . S
C1792 C716 1.603 . S
C1809 C750 1.618 . S
C1828 C1022 1.619 . S
C1845 C1056 1.617 . S
C1864 C784 1.616 . S
C1881 C111 1.235 . S
C1900 C9 1.185 . S
C1917 C145 1.227 . S
C1936 C43 1.234 . S
C1953 C77 1.236 . S
C1972 C179 1.185 . S
C1989 C315 1.227 . S
C2008 C213 1.185 . S
C2025 C247 1.223 . S
C2044 C349 1.183 . S
C2061 C383 1.230 . S
C2080 C281 1.194 . S
C2097 C417 1.228 . S
C2116 C519 1.215 . S
C2133 C451 1.236 . S
C2152 C553 1.182 . S
C2169 C587 1.225 . S
C2188 C485 1.244 . S
C2205 C723 1.230 . S
C2224 C621 1.192 . S
C2241 C757 1.222 . S
C2260 C655 1.183 . S
C2277 C791 1.220 . S
C2296 C689 1.234 . S
C2313 C825 1.232 . S
C2332 C927 1.208 . S
C2349 C961 1.227 . S
C2368 C859 1.217 . S
C2385 C893 1.232 . S
C2404 C995 1.210 . S
C2421 C1029 1.220 . S
C2440 C1131 1.232 . S
C2457 C1063 1.228 . S
C2476 C1165 1.266 . S
C2493 C1199 1.225 . S
C2512 C1097 1.182 . S
C2529 C33 1.530 . S
C2548 C258 1.530 . S
C2565 C292 1.535 . S
C2584 C67 1.522 . S
C2601 C224 1.534 . S
C2620 C101 1.531 . S
C2637 C135 1.532 . S
C2656 C394 1.528 . S
C2673 C326 1.535 . S
C2692 C169 1.529 . S
C2709 C360 1.534 . S
C2728 C203 1.535 . S
C2745 C237 1.529 . S
C2764 C54 1.528 . S
C2781 C88 1.534 . S
C2800 C271 1.517 . S
C2817 C20 1.536 . S
C2836 C305 1.519 . S
C2853 C190 1.535 . S
C2872 C339 1.533 . S
C2889 C122 1.534 . S
C2908 C373 1.534 . S
C2925 C407 1.531 . S
C2944 C156 1.528 . S
C2961 C441 1.527 . S
C2980 C666 1.535 . S
C2997 C475 1.528 . S
C3016 C700 1.535 . S
C3033 C509 1.530 . S
C3052 C632 1.533 . S
C3069 C802 1.536 . S
C3088 C543 1.519 . S
C3105 C577 1.528 . S
C3124 C734 1.535 . S
C3141 C611 1.531 . S
C3160 C768 1.527 . S
C3177 C645 1.531 . S
C3196 C462 1.528 . S
C3213 C496 1.534 . S
C3232 C679 1.519 . S
C3249 C713 1.530 . S
C3268 C428 1.536 . S
C3285 C747 1.532 . S
C3304 C598 1.535 . S
C3321 C781 1.532 . S
C3340 C530 1.534 . S
C3357 C815 1.528 . S
C3376 C564 1.529 . S
C3393 C849 1.529 . S
C3412 C1074 1.531 . S
C3429 C1108 1.535 . S
C3448 C883 1.521 . S
C3465 C917 1.530 . S
C3484 C1040 1.530 . S
C3501 C951 1.530 . S
C3520 C1210 1.530 . S
C3537 C985 1.529 . S
C3556 C1142 1.535 . S
C3573 C1019 1.528 . S
C3592 C1176 1.535 . S
C3609 C870 1.534 . S
C3628 C1053 1.517 . S
C3645 C904 1.536 . S
C3664 C1087 1.522 . S
C3681 C836 1.535 . S
C3700 C1121 1.518 . S
C3717 C1006 1.536 . S
C3736 C1155 1.523 . S
C3753 C1189 1.528 . S
C3772 C938 1.530 . S
C3789 C1223 1.528 . S
C3808 C972 1.528 . S
C3825 C107 1.080 . S
C3844 C5 1.060 . S
C3861 C39 1.085 . S
C3880 C141 1.090 . S
C3897 C175 1.078 . S
C3916 C73 1.064 . S
C3933 C311 1.077 . S
C3952 C209 1.099 . S
C3969 C345 1.080 . S
C3988 C243 1.086 . S
C4005 C277 1.084 . S
C4024 C379 1.070 . S
C4041 C515 1.081 . S
C4060 C413 1.097 . S
C4077 C447 1.085 . S
C4096 C549 1.095 . S
C4113 C583 1.080 . S
C4132 C481 1.060 . S
C4149 C719 1.077 . S
C4168 C617 1.098 . S
C4185 C753 1.081 . S
C4204 C651 1.086 . S
C4221 C685 1.079 . S
C4240 C787 1.090 . S
C4257 C923 1.077 . S
C4276 C821 1.076 . S
C4293 C855 1.085 . S
C4312 C957 1.079 . S
C4329 C991 1.078 . S
C4348 C889 1.083 . S
C4365 C1025 1.078 . S
C4384 C1127 1.094 . S
C4401 C1059 1.085 . S
C4420 C1161 1.064 . S
C4437 C1093 1.082 . S
C4456 C1195 1.075 . S
