# Generated by pormake.
# Topology ukd, (4)-cn, num edge types: 1
# Building blocks:
#     Node 0, Type 0, BuildingBlock: QUQFOY_clean_sbu_3, # of connection points: 4
#     Node 1, Type 0, BuildingBlock: QUQFOY_clean_sbu_3, # of connection points: 4
#     Node 2, Type 0, BuildingBlock: QUQFOY_clean_sbu_3, # of connection points: 4
#     Node 3, Type 0, BuildingBlock: QUQFOY_clean_sbu_3, # of connection points: 4
#     Node 4, Type 0, BuildingBlock: QUQFOY_clean_sbu_3, # of connection points: 4
#     Node 5, Type 0, BuildingBlock: QUQFOY_clean_sbu_3, # of connection points: 4
#     Node 6, Type 0, BuildingBlock: QUQFOY_clean_sbu_3, # of connection points: 4
#     Node 7, Type 0, BuildingBlock: QUQFOY_clean_sbu_3, # of connection points: 4
#     Node 8, Type 0, BuildingBlock: QUQFOY_clean_sbu_3, # of connection points: 4
#     Node 9, Type 0, BuildingBlock: QUQFOY_clean_sbu_3, # of connection points: 4
#     Node 10, Type 0, BuildingBlock: QUQFOY_clean_sbu_3, # of connection points: 4
#     Node 11, Type 0, BuildingBlock: QUQFOY_clean_sbu_3, # of connection points: 4
#     Node 12, Type 0, BuildingBlock: QUQFOY_clean_sbu_3, # of connection points: 4
#     Node 13, Type 0, BuildingBlock: QUQFOY_clean_sbu_3, # of connection points: 4
#     Node 14, Type 0, BuildingBlock: QUQFOY_clean_sbu_3, # of connection points: 4
#     Node 15, Type 0, BuildingBlock: QUQFOY_clean_sbu_3, # of connection points: 4
#     Node 16, Type 0, BuildingBlock: QUQFOY_clean_sbu_3, # of connection points: 4
#     Node 17, Type 0, BuildingBlock: QUQFOY_clean_sbu_3, # of connection points: 4
#     Node 18, Type 0, BuildingBlock: QUQFOY_clean_sbu_3, # of connection points: 4
#     Node 19, Type 0, BuildingBlock: QUQFOY_clean_sbu_3, # of connection points: 4
#     Node 20, Type 0, BuildingBlock: QUQFOY_clean_sbu_3, # of connection points: 4
#     Node 21, Type 0, BuildingBlock: QUQFOY_clean_sbu_3, # of connection points: 4
#     Node 22, Type 0, BuildingBlock: QUQFOY_clean_sbu_3, # of connection points: 4
#     Node 23, Type 0, BuildingBlock: QUQFOY_clean_sbu_3, # of connection points: 4
#     Node 24, Type 0, BuildingBlock: QUQFOY_clean_sbu_3, # of connection points: 4
#     Node 25, Type 0, BuildingBlock: QUQFOY_clean_sbu_3, # of connection points: 4
#     Node 26, Type 0, BuildingBlock: QUQFOY_clean_sbu_3, # of connection points: 4
#     Node 27, Type 0, BuildingBlock: QUQFOY_clean_sbu_3, # of connection points: 4
#     Node 28, Type 0, BuildingBlock: QUQFOY_clean_sbu_3, # of connection points: 4
#     Node 29, Type 0, BuildingBlock: QUQFOY_clean_sbu_3, # of connection points: 4
#     Node 30, Type 0, BuildingBlock: QUQFOY_clean_sbu_3, # of connection points: 4
#     Node 31, Type 0, BuildingBlock: QUQFOY_clean_sbu_3, # of connection points: 4
#     Edge 32, Type (0, 0), BuildingBlock: EZIPEK_clean_linker_0, # of connection points: 2
#     Edge 33, Type (0, 0), BuildingBlock: EZIPEK_clean_linker_0, # of connection points: 2
#     Edge 34, Type (0, 0), BuildingBlock: EZIPEK_clean_linker_0, # of connection points: 2
#     Edge 35, Type (0, 0), BuildingBlock: EZIPEK_clean_linker_0, # of connection points: 2
#     Edge 36, Type (0, 0), BuildingBlock: EZIPEK_clean_linker_0, # of connection points: 2
#     Edge 37, Type (0, 0), BuildingBlock: EZIPEK_clean_linker_0, # of connection points: 2
#     Edge 38, Type (0, 0), BuildingBlock: EZIPEK_clean_linker_0, # of connection points: 2
#     Edge 39, Type (0, 0), BuildingBlock: EZIPEK_clean_linker_0, # of connection points: 2
#     Edge 40, Type (0, 0), BuildingBlock: EZIPEK_clean_linker_0, # of connection points: 2
#     Edge 41, Type (0, 0), BuildingBlock: EZIPEK_clean_linker_0, # of connection points: 2
#     Edge 42, Type (0, 0), BuildingBlock: EZIPEK_clean_linker_0, # of connection points: 2
#     Edge 43, Type (0, 0), BuildingBlock: EZIPEK_clean_linker_0, # of connection points: 2
#     Edge 44, Type (0, 0), BuildingBlock: EZIPEK_clean_linker_0, # of connection points: 2
#     Edge 45, Type (0, 0), BuildingBlock: EZIPEK_clean_linker_0, # of connection points: 2
#     Edge 46, Type (0, 0), BuildingBlock: EZIPEK_clean_linker_0, # of connection points: 2
#     Edge 47, Type (0, 0), BuildingBlock: EZIPEK_clean_linker_0, # of connection points: 2
#     Edge 48, Type (0, 0), BuildingBlock: EZIPEK_clean_linker_0, # of connection points: 2
#     Edge 49, Type (0, 0), BuildingBlock: EZIPEK_clean_linker_0, # of connection points: 2
#     Edge 50, Type (0, 0), BuildingBlock: EZIPEK_clean_linker_0, # of connection points: 2
#     Edge 51, Type (0, 0), BuildingBlock: EZIPEK_clean_linker_0, # of connection points: 2
#     Edge 52, Type (0, 0), BuildingBlock: EZIPEK_clean_linker_0, # of connection points: 2
#     Edge 53, Type (0, 0), BuildingBlock: EZIPEK_clean_linker_0, # of connection points: 2
#     Edge 54, Type (0, 0), BuildingBlock: EZIPEK_clean_linker_0, # of connection points: 2
#     Edge 55, Type (0, 0), BuildingBlock: EZIPEK_clean_linker_0, # of connection points: 2
#     Edge 56, Type (0, 0), BuildingBlock: EZIPEK_clean_linker_0, # of connection points: 2
#     Edge 57, Type (0, 0), BuildingBlock: EZIPEK_clean_linker_0, # of connection points: 2
#     Edge 58, Type (0, 0), BuildingBlock: EZIPEK_clean_linker_0, # of connection points: 2
#     Edge 59, Type (0, 0), BuildingBlock: EZIPEK_clean_linker_0, # of connection points: 2
#     Edge 60, Type (0, 0), BuildingBlock: EZIPEK_clean_linker_0, # of connection points: 2
#     Edge 61, Type (0, 0), BuildingBlock: EZIPEK_clean_linker_0, # of connection points: 2
#     Edge 62, Type (0, 0), BuildingBlock: EZIPEK_clean_linker_0, # of connection points: 2
#     Edge 63, Type (0, 0), BuildingBlock: EZIPEK_clean_linker_0, # of connection points: 2
#     Edge 64, Type (0, 0), BuildingBlock: EZIPEK_clean_linker_0, # of connection points: 2
#     Edge 65, Type (0, 0), BuildingBlock: EZIPEK_clean_linker_0, # of connection points: 2
#     Edge 66, Type (0, 0), BuildingBlock: EZIPEK_clean_linker_0, # of connection points: 2
#     Edge 67, Type (0, 0), BuildingBlock: EZIPEK_clean_linker_0, # of connection points: 2
#     Edge 68, Type (0, 0), BuildingBlock: EZIPEK_clean_linker_0, # of connection points: 2
#     Edge 69, Type (0, 0), BuildingBlock: EZIPEK_clean_linker_0, # of connection points: 2
#     Edge 70, Type (0, 0), BuildingBlock: EZIPEK_clean_linker_0, # of connection points: 2
#     Edge 71, Type (0, 0), BuildingBlock: EZIPEK_clean_linker_0, # of connection points: 2
#     Edge 72, Type (0, 0), BuildingBlock: EZIPEK_clean_linker_0, # of connection points: 2
#     Edge 73, Type (0, 0), BuildingBlock: EZIPEK_clean_linker_0, # of connection points: 2
#     Edge 74, Type (0, 0), BuildingBlock: EZIPEK_clean_linker_0, # of connection points: 2
#     Edge 75, Type (0, 0), BuildingBlock: EZIPEK_clean_linker_0, # of connection points: 2
#     Edge 76, Type (0, 0), BuildingBlock: EZIPEK_clean_linker_0, # of connection points: 2
#     Edge 77, Type (0, 0), BuildingBlock: EZIPEK_clean_linker_0, # of connection points: 2
#     Edge 78, Type (0, 0), BuildingBlock: EZIPEK_clean_linker_0, # of connection points: 2
#     Edge 79, Type (0, 0), BuildingBlock: EZIPEK_clean_linker_0, # of connection points: 2
#     Edge 80, Type (0, 0), BuildingBlock: EZIPEK_clean_linker_0, # of connection points: 2
#     Edge 81, Type (0, 0), BuildingBlock: EZIPEK_clean_linker_0, # of connection points: 2
#     Edge 82, Type (0, 0), BuildingBlock: EZIPEK_clean_linker_0, # of connection points: 2
#     Edge 83, Type (0, 0), BuildingBlock: EZIPEK_clean_linker_0, # of connection points: 2
#     Edge 84, Type (0, 0), BuildingBlock: EZIPEK_clean_linker_0, # of connection points: 2
#     Edge 85, Type (0, 0), BuildingBlock: EZIPEK_clean_linker_0, # of connection points: 2
#     Edge 86, Type (0, 0), BuildingBlock: EZIPEK_clean_linker_0, # of connection points: 2
#     Edge 87, Type (0, 0), BuildingBlock: EZIPEK_clean_linker_0, # of connection points: 2
#     Edge 88, Type (0, 0), BuildingBlock: EZIPEK_clean_linker_0, # of connection points: 2
#     Edge 89, Type (0, 0), BuildingBlock: EZIPEK_clean_linker_0, # of connection points: 2
#     Edge 90, Type (0, 0), BuildingBlock: EZIPEK_clean_linker_0, # of connection points: 2
#     Edge 91, Type (0, 0), BuildingBlock: EZIPEK_clean_linker_0, # of connection points: 2
#     Edge 92, Type (0, 0), BuildingBlock: EZIPEK_clean_linker_0, # of connection points: 2
#     Edge 93, Type (0, 0), BuildingBlock: EZIPEK_clean_linker_0, # of connection points: 2
#     Edge 94, Type (0, 0), BuildingBlock: EZIPEK_clean_linker_0, # of connection points: 2
#     Edge 95, Type (0, 0), BuildingBlock: EZIPEK_clean_linker_0, # of connection points: 2
# Relax obj value: 0.048
# Max RMSD: 0.083
# Mean RMSD: 0.077
data_MOF--net-ukd--node1-QUQFOY_clean_sbu_3--edge1-EZIPEK_clean_linker_0
_symmetry_space_group_name_H-M    P1
_symmetry_Int_Tables_number       1
_symmetry_cell_setting            triclinic
loop_
_symmetry_equiv_pos_as_xyz
'x, y, z'
_cell_length_a     35.57446
_cell_length_b     34.869498
_cell_length_c     56.773875
_cell_angle_alpha  89.933275
_cell_angle_beta   90.175662
_cell_angle_gamma 90.018662
loop_
_atom_site_label
_atom_site_type_symbol
_atom_site_fract_x
_atom_site_fract_y
_atom_site_fract_z
_atom_type_partial_charge
C0 C 0.17531 0.18237 0.27002 0.0
O1 O 0.14059 0.17404 0.26932 0.0
Cd2 Cd 0.10372 0.15914 0.30309 0.0
O3 O 0.19427 0.18012 0.28904 0.0
Cd4 Cd 0.18594 0.16239 0.33081 0.0
C5 C 0.13171 0.24182 0.33271 0.0
O6 O 0.13808 0.11445 0.32567 0.0
O7 O 0.14399 0.13549 0.36118 0.0
O8 O 0.23823 0.11868 0.32966 0.0
C9 C 0.12803 0.11252 0.34698 0.0
O10 O 0.10694 0.22108 0.32262 0.0
C11 C 0.25692 0.13406 0.34622 0.0
O12 O 0.1646 0.22888 0.33693 0.0
O13 O 0.24357 0.16467 0.35506 0.0
C14 C 0.01257 0.93093 0.52627 0.0
O15 O 0.01919 0.89515 0.52738 0.0
Cd16 Cd 0.03578 0.85979 0.56201 0.0
O17 O 0.01647 0.9528 0.54408 0.0
Cd18 Cd 0.03337 0.95032 0.58621 0.0
C19 C 0.9557 0.89336 0.59028 0.0
O20 O 0.07747 0.90001 0.58186 0.0
O21 O 0.06652 0.91475 0.61792 0.0
O22 O 0.07466 0.00425 0.58136 0.0
C23 C 0.08333 0.89311 0.60341 0.0
O24 O -0.02419 0.86659 0.58164 0.0
C25 C 0.06015 0.02482 0.59738 0.0
O26 O 0.96861 0.92724 0.59316 0.0
O27 O 0.03082 0.01181 0.60738 0.0
C28 C 0.25429 0.77412 0.77804 0.0
O29 O 0.28855 0.78413 0.77681 0.0
Cd30 Cd 0.32686 0.79874 0.81025 0.0
O31 O 0.23636 0.77512 0.79741 0.0
Cd32 Cd 0.24539 0.79173 0.83937 0.0
C33 C 0.30135 0.71376 0.83861 0.0
O34 O 0.29264 0.84023 0.83488 0.0
O35 O 0.28692 0.81837 0.87022 0.0
O36 O 0.1923 0.83387 0.83744 0.0
C37 C 0.30319 0.84132 0.85618 0.0
O38 O 0.32476 0.73556 0.82816 0.0
C39 C 0.17375 0.81833 0.85396 0.0
O40 O 0.2686 0.72561 0.84415 0.0
O41 O 0.18778 0.78842 0.86339 0.0
C42 C 0.44922 0.01628 0.02806 0.0
O43 O 0.4474 0.05256 0.02729 0.0
Cd44 Cd 0.43033 0.09215 0.05946 0.0
O45 O 0.43979 -0.00247 0.04639 0.0
Cd46 Cd 0.41495 0.01194 0.08625 0.0
C47 C 0.49498 0.0576 0.0998 0.0
O48 O 0.37465 0.06569 0.07572 0.0
O49 O 0.38557 0.05842 0.11288 0.0
O50 O 0.36795 0.96237 0.08181 0.0
C51 C 0.36787 0.07576 0.09668 0.0
O52 O 0.4824 0.08434 0.08672 0.0
C53 C 0.37548 0.94525 0.10096 0.0
O54 O 0.4774 0.02604 0.10231 0.0
O55 O 0.40283 0.95793 0.11311 0.0
C56 C 0.17252 0.75827 0.19162 0.0
O57 O 0.13696 0.75976 0.18963 0.0
Cd58 Cd 0.10181 0.78194 0.1564 0.0
O59 O 0.19436 0.77049 0.17548 0.0
Cd60 Cd 0.19085 0.80031 0.13579 0.0
C61 C 0.14492 0.7214 0.11596 0.0
O62 O 0.13568 0.83638 0.14501 0.0
O63 O 0.15462 0.84305 0.10941 0.0
O64 O 0.24241 0.84117 0.14807 0.0
C65 C 0.13006 0.85055 0.12483 0.0
O66 O 0.11679 0.7329 0.12783 0.0
C67 C 0.26036 0.83848 0.12884 0.0
O68 O 0.17624 0.73927 0.11606 0.0
O69 O 0.24746 0.81568 0.11334 0.0
C70 C 0.43056 0.94393 0.44952 0.0
O71 O 0.42717 0.9077 0.44944 0.0
Cd72 Cd 0.40886 0.87023 0.41628 0.0
O73 O 0.42247 0.96414 0.4315 0.0
Cd74 Cd 0.39883 0.95431 0.39085 0.0
C75 C 0.47685 0.90331 0.37788 0.0
O76 O 0.35629 0.90201 0.39953 0.0
O77 O 0.36704 0.9117 0.36262 0.0
O78 O 0.35225 0.0048 0.39281 0.0
C79 C 0.34935 0.89323 0.37834 0.0
O80 O 0.46279 0.87669 0.39042 0.0
C81 C 0.36634 0.02562 0.37676 0.0
O82 O 0.46053 0.9356 0.37538 0.0
O83 O 0.3971 0.01426 0.36785 0.0
C84 C 0.25747 0.19945 0.69136 0.0
O85 O 0.29308 0.19733 0.69024 0.0
Cd86 Cd 0.32978 0.17817 0.65706 0.0
O87 O 0.23641 0.1903 0.67403 0.0
Cd88 Cd 0.24202 0.16669 0.63297 0.0
C89 C 0.29385 0.24499 0.6176 0.0
O90 O 0.29474 0.1269 0.64178 0.0
O91 O 0.27898 0.12686 0.60522 0.0
O92 O 0.191 0.12151 0.63742 0.0
C93 C 0.30164 0.11569 0.6211 0.0
O94 O 0.32056 0.23121 0.62996 0.0
C95 C 0.17007 0.13586 0.62155 0.0
O96 O 0.26189 0.22853 0.61611 0.0
O97 O 0.18175 0.16624 0.61158 0.0
C98 C 0.00133 0.02468 0.94465 0.0
O99 O 5e-05 0.06051 0.94053 0.0
Cd100 Cd 0.0218 0.09411 0.90645 0.0
O101 O 0.01362 0.0012 0.92929 0.0
Cd102 Cd 0.03438 0.00255 0.88778 0.0
C103 C 0.95634 0.05256 0.86996 0.0
O104 O 0.07339 0.05749 0.8936 0.0
O105 O 0.07311 0.03618 0.85809 0.0
O106 O 0.07911 0.95108 0.89332 0.0
C107 C 0.08455 0.06124 0.87261 0.0
O108 O -0.02993 0.08198 0.88005 0.0
C109 C 0.0641 0.92827 0.87863 0.0
O110 O -0.02725 0.02004 0.87063 0.0
O111 O 0.0335 0.93905 0.86912 0.0
C112 C 0.67374 0.82255 0.60745 0.0
O113 O 0.67296 0.79668 0.59189 0.0
Cd114 Cd 0.73513 0.77353 0.58578 0.0
O115 O 0.70178 0.82441 0.62136 0.0
Cd116 Cd 0.7505 0.77535 0.63153 0.0
C117 C 0.80715 0.83193 0.60337 0.0
O118 O 0.74733 0.71582 0.60713 0.0
O119 O 0.80095 0.73269 0.62229 0.0
O120 O 0.71378 0.74566 0.66207 0.0
C121 C 0.78133 0.70752 0.61188 0.0
O122 O 0.78536 0.82228 0.58656 0.0
C123 C 0.73517 0.75584 0.67882 0.0
O124 O 0.80121 0.81925 0.62399 0.0
O125 O 0.76366 0.77622 0.67384 0.0
C126 C 0.86657 0.94061 0.37911 0.0
O127 O 0.90086 0.93124 0.37937 0.0
Cd128 Cd 0.91962 -0.00167 0.38527 0.0
O129 O 0.85889 0.97539 0.38322 0.0
Cd130 Cd 0.92035 0.01159 0.39557 0.0
C131 C 0.86919 0.07121 0.37745 0.0
O132 O -0.02479 0.00795 0.36598 0.0
O133 O 0.96892 0.05908 0.38696 0.0
O134 O 0.94739 0.96239 0.42124 0.0
C135 C -0.01186 0.04033 0.37215 0.0
O136 O 0.87497 0.04232 0.36445 0.0
C137 C 0.94553 -0.01702 0.4396 0.0
O138 O 0.88437 0.071 0.39762 0.0
O139 O 0.93018 0.0157 0.43779 0.0
C140 C 0.75965 0.13689 0.11018 0.0
O141 O 0.74701 0.15023 0.09093 0.0
Cd142 Cd 0.68979 0.18661 0.08989 0.0
O143 O 0.74463 0.14559 0.12971 0.0
Cd144 Cd 0.69463 0.18757 0.14423 0.0
C145 C 0.63134 0.12773 0.12216 0.0
O146 O 0.69272 0.24062 0.11577 0.0
O147 O 0.64349 0.23124 0.13749 0.0
O148 O 0.73778 0.21759 0.17143 0.0
C149 C 0.66089 0.25222 0.12291 0.0
O150 O 0.63988 0.14307 0.10253 0.0
C151 C 0.71839 0.21033 0.18961 0.0
O152 O 0.64906 0.13602 0.14097 0.0
O153 O 0.68818 0.19141 0.18685 0.0
C154 C 0.5644 0.00814 0.86031 0.0
O155 O 0.54119 0.00396 0.84356 0.0
Cd156 Cd 0.50945 0.94313 0.84171 0.0
O157 O 0.56317 -0.01465 0.87779 0.0
Cd158 Cd 0.51762 0.93774 0.89289 0.0
C159 C 0.56927 0.87477 0.86507 0.0
O160 O 0.45901 0.94148 0.86925 0.0
O161 O 0.47114 0.88853 0.88785 0.0
O162 O 0.49535 -0.01873 0.9226 0.0
C163 C 0.44796 0.90871 0.87622 0.0
O164 O 0.55309 0.88895 0.847 0.0
C165 C 0.50272 0.95933 0.93984 0.0
O166 O 0.56337 0.88827 0.8855 0.0
O167 O 0.51892 0.92768 0.93546 0.0
C168 C 0.68387 0.12245 0.85942 0.0
O169 O 0.69182 0.14224 0.87746 0.0
Cd170 Cd 0.75223 0.17283 0.87893 0.0
O171 O 0.70362 0.12612 0.84092 0.0
Cd172 Cd 0.75124 0.17301 0.82729 0.0
C173 C 0.81521 0.11544 0.84881 0.0
O174 O 0.75128 0.22832 0.85465 0.0
O175 O 0.80175 0.21734 0.83451 0.0
O176 O 0.7076 0.20203 0.7999 0.0
C177 C 0.7833 0.23969 0.84772 0.0
O178 O 0.80436 0.12981 0.86827 0.0
C179 C 0.72866 0.19804 0.78208 0.0
O180 O 0.79855 0.12359 0.82963 0.0
O181 O 0.75951 0.1803 0.78496 0.0
C182 C 0.55778 0.93906 0.61373 0.0
O183 O 0.53646 0.94349 0.63132 0.0
Cd184 Cd 0.51004 0.00653 0.63273 0.0
O185 O 0.55596 0.96262 0.59665 0.0
Cd186 Cd 0.51285 0.0146 0.58403 0.0
C187 C 0.57674 0.06757 0.60856 0.0
O188 O 0.45553 0.01251 0.60789 0.0
O189 O 0.47323 0.06827 0.59546 0.0
O190 O 0.48517 0.97371 0.55453 0.0
C191 C 0.44731 0.0473 0.60379 0.0
O192 O 0.56037 0.05452 0.62685 0.0
C193 C 0.49079 -0.00352 0.53748 0.0
O194 O 0.56486 0.05768 0.5884 0.0
O195 O 0.50807 0.0276 0.54178 0.0
C196 C 0.74665 0.83045 0.36571 0.0
O197 O 0.73469 0.81261 0.38364 0.0
Cd198 Cd 0.67869 0.77537 0.38118 0.0
O199 O 0.73118 0.82557 0.34569 0.0
Cd200 Cd 0.6808 0.78292 0.33028 0.0
C201 C 0.61577 0.83621 0.35434 0.0
O202 O 0.684 0.72357 0.3536 0.0
O203 O 0.62981 0.73892 0.33939 0.0
O204 O 0.72161 0.75702 0.30032 0.0
C205 C 0.65082 0.71337 0.3483 0.0
O206 O 0.62546 0.81799 0.37283 0.0
C207 C 0.69923 0.76299 0.28329 0.0
O208 O 0.63352 0.83203 0.33513 0.0
O209 O 0.66868 0.78028 0.28777 0.0
C210 C 0.87291 0.0191 0.11337 0.0
O211 O 0.88372 0.00536 0.13291 0.0
Cd212 Cd 0.91978 0.94719 0.13302 0.0
O213 O 0.88267 0.00368 0.09411 0.0
Cd214 Cd 0.92157 0.95023 0.08078 0.0
C215 C 0.86445 0.88418 0.10189 0.0
O216 O -0.02548 0.94981 0.10819 0.0
O217 O 0.96193 0.89657 0.09011 0.0
O218 O 0.96313 -0.01809 0.05355 0.0
C219 C -0.01495 0.91647 0.10203 0.0
O220 O 0.87835 0.89429 0.12162 0.0
C221 C 0.94565 0.97248 0.03499 0.0
O222 O 0.87298 0.90169 0.08301 0.0
O223 O 0.91636 0.95213 0.03762 0.0
C224 C 0.6824 0.69423 0.76571 0.0
O225 O 0.64707 0.68991 0.76436 0.0
Cd226 Cd 0.60832 0.66892 0.79582 0.0
O227 O 0.70068 0.68526 0.78424 0.0
Cd228 Cd 0.68774 0.65692 0.82347 0.0
C229 C 0.6384 0.73627 0.83652 0.0
O230 O 0.63652 0.61347 0.81287 0.0
O231 O 0.64481 0.62344 0.85002 0.0
O232 O 0.73966 0.61357 0.81706 0.0
C233 C 0.62755 0.60554 0.8339 0.0
O234 O 0.61322 0.72234 0.82305 0.0
C235 C 0.75543 0.61937 0.83681 0.0
O236 O 0.67 0.7197 0.83955 0.0
O237 O 0.74104 0.64464 0.85014 0.0
C238 C 0.49295 0.4444 0.0247 0.0
O239 O 0.49306 0.40806 0.02465 0.0
Cd240 Cd 0.51149 0.3699 0.0574 0.0
O241 O 0.50473 0.46342 0.04238 0.0
Cd242 Cd 0.53247 0.44995 0.08176 0.0
C243 C 0.45193 0.40923 0.0988 0.0
O244 O 0.56993 0.39314 0.07202 0.0
O245 O 0.56219 0.40525 0.10907 0.0
O246 O 0.57722 0.49979 0.07176 0.0
C247 C 0.57772 0.3852 0.09329 0.0
O248 O 0.46261 0.38121 0.08616 0.0
C249 C 0.577 0.51572 0.09183 0.0
O250 O 0.47056 0.44041 0.09982 0.0
O251 O 0.55389 0.50282 0.10693 0.0
C252 C 0.77212 0.26801 0.27841 0.0
O253 O 0.80733 0.27396 0.27945 0.0
Cd254 Cd 0.8417 0.29215 0.31399 0.0
O255 O 0.75078 0.27325 0.2961 0.0
Cd256 Cd 0.75376 0.29431 0.33756 0.0
C257 C 0.80801 0.21597 0.34768 0.0
O258 O 0.80343 0.33934 0.33084 0.0
O259 O 0.78709 0.33378 0.36705 0.0
O260 O 0.69897 0.33089 0.32716 0.0
C261 C 0.80883 0.3489 0.35205 0.0
O262 O 0.83412 0.23425 0.33719 0.0
C263 C 0.6819 0.32557 0.34649 0.0
O264 O 0.77495 0.22985 0.34966 0.0
O265 O 0.69671 0.3025 0.36121 0.0
C266 C 0.95033 0.50519 0.52651 0.0
O267 O 0.94537 0.541 0.52409 0.0
Cd268 Cd 0.92469 0.58215 0.55463 0.0
O269 O 0.94085 0.48788 0.54535 0.0
Cd270 Cd 0.90824 0.50334 0.58285 0.0
C271 C -0.01312 0.55027 0.59763 0.0
O272 O 0.86854 0.55725 0.57105 0.0
O273 O 0.87684 0.54934 0.60853 0.0
O274 O 0.86472 0.4525 0.57311 0.0
C275 C 0.86068 0.5673 0.59195 0.0
O276 O -0.02504 0.57583 0.58344 0.0
C277 C 0.86515 0.43691 0.59332 0.0
O278 O -0.03057 0.5187 0.60064 0.0
O279 O 0.88802 0.45039 0.60847 0.0
C280 C 0.67537 0.26655 0.69634 0.0
O281 O 0.63992 0.27027 0.6971 0.0
Cd282 Cd 0.60165 0.28592 0.66396 0.0
O283 O 0.69379 0.27422 0.67773 0.0
Cd284 Cd 0.68111 0.29631 0.6371 0.0
C285 C 0.63527 0.2124 0.62959 0.0
O286 O 0.62884 0.33951 0.64425 0.0
O287 O 0.63745 0.32302 0.60798 0.0
O288 O 0.73126 0.34263 0.6409 0.0
C289 C 0.61986 0.3434 0.62277 0.0
O290 O 0.60854 0.22732 0.64127 0.0
C291 C 0.74904 0.332 0.62272 0.0
O292 O 0.66606 0.23018 0.62608 0.0
O293 O 0.73599 0.30364 0.61126 0.0
C294 C 0.93714 0.4373 0.94303 0.0
O295 O 0.93307 0.40118 0.9438 0.0
Cd296 Cd 0.91614 0.36255 0.91113 0.0
O297 O 0.92974 0.45641 0.92444 0.0
Cd298 Cd 0.90465 0.44407 0.88435 0.0
C299 C -0.01531 0.3968 0.8733 0.0
O300 O 0.86276 0.391 0.89316 0.0
O301 O 0.87621 0.39877 0.85643 0.0
O302 O 0.85887 0.49453 0.88919 0.0
C303 C 0.8573 0.38124 0.87196 0.0
O304 O -0.02931 0.37025 0.88591 0.0
C305 C 0.8668 0.51205 0.87025 0.0
O306 O 0.9678 0.42862 0.87011 0.0
O307 O 0.89397 0.49918 0.85812 0.0
C308 C 0.75305 0.70143 0.19653 0.0
O309 O 0.78854 0.70042 0.19804 0.0
Cd310 Cd 0.82744 0.68115 0.16657 0.0
O311 O 0.73601 0.69002 0.17805 0.0
Cd312 Cd 0.75496 0.66263 0.1393 0.0
C313 C 0.79778 0.74429 0.12452 0.0
O314 O 0.80675 0.62036 0.15191 0.0
O315 O 0.80537 0.63495 0.11513 0.0
O316 O 0.70475 0.61552 0.14202 0.0
C317 C 0.82005 0.61518 0.13151 0.0
O318 O 0.82396 0.73225 0.13788 0.0
C319 C 0.69026 0.62332 0.12216 0.0
O320 O 0.76698 0.72605 0.12241 0.0
O321 O 0.70524 0.65003 0.11022 0.0
C322 C 0.49501 0.525 0.43717 0.0
O323 O 0.49841 0.56116 0.43554 0.0
Cd324 Cd 0.51916 0.59601 0.40178 0.0
O325 O 0.50438 0.50257 0.42046 0.0
Cd326 Cd 0.53188 0.50607 0.38035 0.0
C327 C 0.45541 0.55563 0.36224 0.0
O328 O 0.57096 0.56038 0.38881 0.0
O329 O 0.571 0.54301 0.35253 0.0
O330 O 0.57369 0.45421 0.39075 0.0
C331 C 0.58236 0.56636 0.36807 0.0
O332 O 0.46856 0.58357 0.37413 0.0
C333 C 0.56758 0.43462 0.37231 0.0
O334 O 0.4717 0.52305 0.36172 0.0
O335 O 0.54279 0.44697 0.35803 0.0
C336 C 0.18926 0.33062 0.10581 0.0
O337 O 0.20464 0.32045 0.0867 0.0
Cd338 Cd 0.2611 0.28262 0.0866 0.0
O339 O 0.20204 0.31926 0.12554 0.0
Cd340 Cd 0.25304 0.27814 0.14006 0.0
C341 C 0.31707 0.34022 0.12086 0.0
O342 O 0.25731 0.22627 0.11087 0.0
O343 O 0.30502 0.23565 0.13409 0.0
O344 O 0.21066 0.24404 0.16582 0.0
C345 C 0.28853 0.21456 0.11912 0.0
O346 O 0.31023 0.32541 0.10082 0.0
C347 C 0.2291 0.25109 0.18448 0.0
O348 O 0.29801 0.33101 0.13893 0.0
O349 O 0.25805 0.27221 0.18273 0.0
C350 C 0.37384 0.4331 0.85876 0.0
O351 O 0.38949 0.43821 0.83898 0.0
Cd352 Cd 0.42735 0.4935 0.83191 0.0
O353 O 0.38123 0.45468 0.87622 0.0
Cd354 Cd 0.42518 0.50718 0.88636 0.0
C355 C 0.37277 0.56722 0.85353 0.0
O356 O 0.47866 0.49776 0.85945 0.0
O357 O 0.47393 0.55195 0.87792 0.0
O358 O 0.45209 0.47188 0.91877 0.0
C359 C 0.49259 0.53042 0.86433 0.0
O360 O 0.38393 0.54706 0.83623 0.0
C361 C 0.44147 0.495 0.93464 0.0
O362 O 0.38309 0.55902 0.87444 0.0
O363 O 0.42226 0.52395 0.92828 0.0
C364 C 0.25289 0.63077 0.61354 0.0
O365 O 0.24146 0.64545 0.59441 0.0
Cd366 Cd 0.18473 0.68235 0.5948 0.0
O367 O 0.23655 0.6384 0.63286 0.0
Cd368 Cd 0.18471 0.68068 0.64553 0.0
C369 C 0.12239 0.62226 0.62253 0.0
O370 O 0.1867 0.73761 0.62029 0.0
O371 O 0.13255 0.72168 0.63423 0.0
O372 O 0.22471 0.71208 0.67401 0.0
C373 C 0.15319 0.74729 0.62508 0.0
O374 O 0.13233 0.63892 0.60357 0.0
C375 C 0.20331 0.70634 0.69146 0.0
O376 O 0.13922 0.62909 0.64186 0.0
O377 O 0.17359 0.68692 0.68795 0.0
C378 C 0.06709 0.52393 0.36404 0.0
O379 O 0.04632 0.52203 0.34595 0.0
Cd380 Cd 0.00965 0.46544 0.34144 0.0
O381 O 0.06408 0.49935 0.38049 0.0
Cd382 Cd 0.02015 0.44649 0.3906 0.0
C383 C 0.0672 0.38924 0.35522 0.0
O384 O 0.95985 0.45841 0.36996 0.0
O385 O -0.02621 0.39997 0.37942 0.0
O386 O -0.00114 0.47906 0.42543 0.0
C387 C 0.94928 0.42383 0.3725 0.0
O388 O 0.0529 0.41078 0.33945 0.0
C389 C 0.00892 0.45324 0.43985 0.0
O390 O 0.06107 0.39599 0.37686 0.0
O391 O 0.02576 0.4241 0.43163 0.0
C392 C 0.18798 0.63412 0.36468 0.0
O393 O 0.20685 0.64029 0.38335 0.0
Cd394 Cd 0.26547 0.67518 0.38766 0.0
O395 O 0.19805 0.64762 0.34483 0.0
Cd396 Cd 0.24818 0.68689 0.32755 0.0
C397 C 0.31882 0.62624 0.34686 0.0
O398 O 0.26586 0.72609 0.36051 0.0
O399 O 0.26253 0.75661 0.32795 0.0
O400 O 0.2019 0.70314 0.29826 0.0
C401 C 0.26983 0.75741 0.34969 0.0
O402 O 0.31098 0.63423 0.36821 0.0
C403 C 0.22465 0.70117 0.28106 0.0
O404 O 0.30051 0.64066 0.32962 0.0
O405 O 0.25817 0.69025 0.28529 0.0
C406 C 0.07519 0.44804 0.10679 0.0
O407 O 0.06634 0.46251 0.12648 0.0
Cd408 Cd 0.02808 0.51851 0.12899 0.0
O409 O 0.06273 0.46211 0.08762 0.0
Cd410 Cd 0.0199 0.51469 0.07586 0.0
C411 C 0.07896 0.58158 0.09574 0.0
O412 O -0.02883 0.51063 0.10651 0.0
O413 O -0.02801 0.56198 0.085 0.0
O414 O -0.00835 0.47229 0.04712 0.0
C415 C 0.95531 0.54158 0.10018 0.0
O416 O 0.06656 0.57242 0.11597 0.0
C417 C -0.00342 0.49483 0.02986 0.0
O418 O 0.06922 0.56301 0.07747 0.0
O419 O 0.01316 0.52641 0.03376 0.0
C420 C 0.2546 0.32147 0.86223 0.0
O421 O 0.24268 0.30691 0.88124 0.0
Cd422 Cd 0.18646 0.269 0.88015 0.0
O423 O 0.23873 0.31384 0.8427 0.0
Cd424 Cd 0.18747 0.27243 0.82843 0.0
C425 C 0.12398 0.32875 0.85222 0.0
O426 O 0.18971 0.21508 0.85361 0.0
O427 O 0.13639 0.22892 0.83745 0.0
O428 O 0.22816 0.24513 0.79881 0.0
C429 C 0.15672 0.20446 0.84802 0.0
O430 O 0.13348 0.31149 0.87109 0.0
C431 C 0.20673 0.2527 0.78154 0.0
O432 O 0.14158 0.32311 0.83309 0.0
O433 O 0.17643 0.27057 0.78585 0.0
C434 C 0.36883 0.51524 0.60961 0.0
O435 O 0.38332 0.50132 0.62818 0.0
Cd436 Cd 0.4212 0.44452 0.62752 0.0
O437 O 0.37662 0.50157 0.58943 0.0
Cd438 Cd 0.41821 0.45174 0.5728 0.0
C439 C 0.36298 0.38448 0.59576 0.0
O440 O 0.47186 0.45187 0.60029 0.0
O441 O 0.46492 0.40223 0.57785 0.0
O442 O 0.44174 0.49721 0.54406 0.0
C443 C 0.48495 0.42049 0.59251 0.0
O444 O 0.37906 0.39291 0.61515 0.0
C445 C 0.43664 0.47529 0.5265 0.0
O446 O 0.36952 0.40333 0.57702 0.0
O447 O 0.42129 0.443 0.53028 0.0
C448 C 0.11806 0.33966 0.36233 0.0
C449 C 0.08794 0.3539 0.34825 0.0
C450 C 0.09883 0.30165 0.32061 0.0
C451 C 0.12178 0.28255 0.33736 0.0
N452 N 0.14933 0.28253 0.37648 0.0
N453 N 0.04323 0.33986 0.31683 0.0
C454 C 0.13073 0.30135 0.35886 0.0
C455 C 0.07661 0.33281 0.32801 0.0
N456 N 0.13528 0.36274 0.3785 0.0
N457 N 0.09807 0.29014 0.29763 0.0
H458 H 0.02288 0.35852 0.32326 0.0
H459 H 0.03346 0.32283 0.30301 0.0
H460 H 0.11564 0.26865 0.29117 0.0
H461 H 0.08342 0.30522 0.28464 0.0
H462 H 0.15919 0.35432 0.38783 0.0
H463 H 0.12861 0.39169 0.38041 0.0
H464 H 0.15302 0.29428 0.3932 0.0
H465 H 0.15784 0.25405 0.37527 0.0
C466 C 0.89474 0.89255 0.6136 0.0
C467 C 0.91491 0.8854 0.59256 0.0
C468 C 0.86407 0.84483 0.5781 0.0
C469 C 0.8424 0.85351 0.59845 0.0
N470 N 0.83336 0.89518 0.63196 0.0
N471 N 0.91151 0.86782 0.55143 0.0
C472 C 0.85653 0.88048 0.6151 0.0
C473 C 0.89697 0.86615 0.57366 0.0
N474 N 0.91226 0.90903 0.63247 0.0
N475 N 0.85581 0.81416 0.56401 0.0
H476 H 0.93535 0.88386 0.5473 0.0
H477 H 0.8974 0.85683 0.53679 0.0
H478 H 0.83471 0.79438 0.56751 0.0
H479 H 0.87337 0.80536 0.55037 0.0
H480 H 0.89982 0.91106 0.64902 0.0
H481 H 0.94021 0.91794 0.6321 0.0
H482 H 0.84148 0.91716 0.64331 0.0
H483 H 0.80481 0.88848 0.63279 0.0
C484 C 0.32266 0.61518 0.86536 0.0
C485 C 0.35013 0.60247 0.84891 0.0
C486 C 0.33227 0.6554 0.82308 0.0
C487 C 0.31238 0.67301 0.8417 0.0
N488 N 0.29212 0.67059 0.88235 0.0
N489 N 0.38733 0.61886 0.81432 0.0
C490 C 0.30814 0.65312 0.86336 0.0
C491 C 0.35654 0.62459 0.82821 0.0
N492 N 0.30944 0.59095 0.88233 0.0
N493 N 0.32835 0.66826 0.80046 0.0
H494 H 0.40912 0.60023 0.81857 0.0
H495 H 0.39383 0.63679 0.80018 0.0
H496 H 0.30957 0.69 0.79584 0.0
H497 H 0.34042 0.65418 0.78616 0.0
H498 H 0.28735 0.59823 0.89349 0.0
H499 H 0.31717 0.56215 0.88328 0.0
H500 H 0.29204 0.65827 0.89909 0.0
H501 H 0.28194 0.69858 0.88194 0.0
C502 C 0.5314 0.09273 0.12994 0.0
C503 C 0.53086 0.06457 0.11207 0.0
C504 C 0.59929 0.068 0.10898 0.0
C505 C 0.59862 0.10171 0.12289 0.0
N506 N 0.56435 0.14663 0.14713 0.0
N507 N 0.56353 0.02265 0.08546 0.0
C508 C 0.56496 0.11367 0.1341 0.0
C509 C 0.56474 0.0507 0.10223 0.0
N510 N 0.49944 0.0997 0.14251 0.0
N511 N 0.63303 0.0529 0.10226 0.0
H512 H 0.53874 0.00834 0.08105 0.0
H513 H 0.58658 0.01447 0.0754 0.0
H514 H 0.65863 0.06505 0.10733 0.0
H515 H 0.63583 0.02677 0.09359 0.0
H516 H 0.49851 0.11758 0.15718 0.0
H517 H 0.47458 0.0845 0.13953 0.0
H518 H 0.53975 0.15928 0.15324 0.0
H519 H 0.58826 0.16286 0.15075 0.0
C520 C 0.11236 0.68344 0.0855 0.0
C521 C 0.14033 0.68491 0.10319 0.0
C522 C 0.1381 0.61516 0.10696 0.0
C523 C 0.10418 0.61513 0.09381 0.0
N524 N 0.05907 0.64892 0.06951 0.0
N525 N 0.18263 0.65256 0.12979 0.0
C526 C 0.09183 0.64895 0.08215 0.0
C527 C 0.15482 0.65073 0.11318 0.0
N528 N 0.10501 0.71555 0.0725 0.0
N529 N 0.15395 0.58111 0.11352 0.0
H530 H 0.19647 0.67802 0.13397 0.0
H531 H 0.191 0.62926 0.14001 0.0
H532 H 0.14224 0.5548 0.10874 0.0
H533 H 0.1802 0.57886 0.12156 0.0
H534 H 0.08694 0.71598 0.05804 0.0
H535 H 0.12015 0.74092 0.07491 0.0
H536 H 0.04642 0.67372 0.06305 0.0
H537 H 0.04313 0.62433 0.06654 0.0
C538 C 0.51401 0.86705 0.34857 0.0
C539 C 0.5131 0.89552 0.36628 0.0
C540 C 0.58174 0.89365 0.36935 0.0
C541 C 0.58171 0.8603 0.35513 0.0
N542 N 0.54833 0.81448 0.33096 0.0
N543 N 0.54528 0.93811 0.39292 0.0
C544 C 0.54812 0.84724 0.34419 0.0
C545 C 0.54685 0.91009 0.37615 0.0
N546 N 0.48201 0.85903 0.33612 0.0
N547 N 0.61519 0.90945 0.37621 0.0
H548 H 0.52036 0.95203 0.39731 0.0
H549 H 0.56822 0.94666 0.40305 0.0
H550 H 0.64107 0.89788 0.37131 0.0
H551 H 0.61749 0.93555 0.38497 0.0
H552 H 0.48123 0.84091 0.32158 0.0
H553 H 0.45681 0.8736 0.33904 0.0
H554 H 0.52406 0.80092 0.32497 0.0
H555 H 0.57277 0.7993 0.32706 0.0
C556 C 0.32761 0.28287 0.58747 0.0
C557 C 0.30077 0.28196 0.60576 0.0
C558 C 0.305 0.35165 0.60967 0.0
C559 C 0.33747 0.35109 0.59528 0.0
N560 N 0.38018 0.31648 0.57001 0.0
N561 N 0.26166 0.31497 0.63372 0.0
C562 C 0.34843 0.31699 0.58352 0.0
C563 C 0.2881 0.31637 0.61634 0.0
N564 N 0.33328 0.25077 0.57418 0.0
N565 N 0.29061 0.38599 0.6169 0.0
H566 H 0.24768 0.28975 0.63827 0.0
H567 H 0.25464 0.3383 0.64425 0.0
H568 H 0.30243 0.41215 0.6119 0.0
H569 H 0.26529 0.38874 0.62589 0.0
H570 H 0.35033 0.25012 0.55932 0.0
H571 H 0.31764 0.22579 0.57677 0.0
H572 H 0.39204 0.29145 0.56337 0.0
H573 H 0.39618 0.34086 0.56654 0.0
C574 C 0.88654 0.04315 0.86975 0.0
C575 C 0.91932 0.05722 0.85852 0.0
C576 C 0.88222 0.10431 0.83666 0.0
C577 C 0.84951 0.09147 0.84866 0.0
N578 N 0.81831 0.04194 0.87076 0.0
N579 N 0.94709 0.09124 0.82621 0.0
C580 C 0.85097 0.05845 0.86321 0.0
C581 C 0.91651 0.08427 0.84006 0.0
N582 N 0.8896 0.01723 0.88773 0.0
N583 N 0.88148 0.13733 0.82364 0.0
H584 H -0.02756 0.0766 0.82856 0.0
H585 H 0.94618 0.10827 0.81113 0.0
H586 H 0.85731 0.15359 0.82092 0.0
H587 H 0.90554 0.15034 0.81694 0.0
H588 H 0.86729 0.00964 0.89861 0.0
H589 H 0.91503 0.00458 0.89255 0.0
H590 H 0.81729 0.01592 0.87976 0.0
H591 H 0.79192 0.05255 0.86598 0.0
C592 C 0.85571 0.63865 0.5915 0.0
C593 C 0.83927 0.60271 0.59674 0.0
C594 C 0.78378 0.63525 0.61261 0.0
C595 C 0.79872 0.67084 0.6048 0.0
N596 N 0.84448 0.7049 0.58143 0.0
N597 N 0.78579 0.56588 0.60966 0.0
C598 C 0.83331 0.67203 0.59252 0.0
C599 C 0.80263 0.6007 0.60645 0.0
N600 N 0.89331 0.64131 0.58707 0.0
N601 N 0.75304 0.63447 0.62699 0.0
H602 H 0.79936 0.54006 0.6061 0.0
H603 H 0.75762 0.56274 0.61423 0.0
H604 H 0.73881 0.6591 0.63228 0.0
H605 H 0.74352 0.60968 0.6353 0.0
H606 H 0.90727 0.66739 0.58509 0.0
H607 H 0.91126 0.61784 0.58853 0.0
H608 H 0.86796 0.70619 0.57052 0.0
H609 H 0.82796 0.72959 0.58102 0.0
C610 C 0.05849 0.11434 0.3526 0.0
C611 C 0.09251 0.09323 0.35325 0.0
C612 C 0.05814 0.03585 0.36571 0.0
C613 C 0.0238 0.05631 0.3631 0.0
N614 N -0.00909 0.11189 0.34837 0.0
N615 N 0.12463 0.0326 0.35648 0.0
C616 C 0.02389 0.09465 0.35481 0.0
C617 C 0.09228 0.05347 0.35844 0.0
N618 N 0.05917 0.15336 0.3505 0.0
N619 N 0.05862 0.00075 0.37645 0.0
H620 H 0.15042 0.04491 0.35211 0.0
H621 H 0.12531 0.00278 0.35751 0.0
H622 H 0.03451 -0.01302 0.38249 0.0
H623 H 0.0833 -0.01337 0.38121 0.0
H624 H 0.03539 0.17052 0.35234 0.0
H625 H 0.08404 0.16892 0.34928 0.0
H626 H -0.01036 0.13849 0.34002 0.0
H627 H 0.96507 0.09782 0.34902 0.0
C628 C 0.58449 0.31415 0.09715 0.0
C629 C 0.60031 0.35123 0.09963 0.0
C630 C 0.65725 0.32341 0.11702 0.0
C631 C 0.64238 0.28629 0.11281 0.0
N632 N 0.5962 0.24605 0.09385 0.0
N633 N 0.65341 0.39157 0.10878 0.0
C634 C 0.60734 0.28159 0.10126 0.0
C635 C 0.63729 0.35599 0.10857 0.0
N636 N 0.54706 0.31 0.09232 0.0
N637 N 0.68933 0.32762 0.1301 0.0
H638 H 0.63915 0.41614 0.10331 0.0
H639 H 0.68164 0.39636 0.11269 0.0
H640 H 0.70489 0.30444 0.13642 0.0
H641 H 0.69911 0.35401 0.13612 0.0
H642 H 0.53329 0.28364 0.09255 0.0
H643 H 0.52889 0.33328 0.09077 0.0
H644 H 0.57257 0.24153 0.08333 0.0
H645 H 0.61269 0.22157 0.09616 0.0
C646 C 0.37718 0.9142 0.87488 0.0
C647 C 0.4105 0.89313 0.87005 0.0
C648 C 0.37284 0.83674 0.86025 0.0
C649 C 0.33966 0.85888 0.8624 0.0
N650 N 0.30991 0.9201 0.86855 0.0
N651 N 0.43941 0.83766 0.85217 0.0
C652 C 0.34172 0.89815 0.86864 0.0
C653 C 0.40816 0.85532 0.86101 0.0
N654 N 0.37911 0.94841 0.88654 0.0
N655 N 0.37076 0.79782 0.85804 0.0
H656 H 0.46556 0.85108 0.85115 0.0
H657 H 0.43841 0.81146 0.84337 0.0
H658 H 0.34535 0.78305 0.85833 0.0
H659 H 0.39426 0.78 0.85859 0.0
H660 H 0.3555 0.96291 0.89268 0.0
H661 H 0.40433 0.96072 0.89206 0.0
H662 H 0.31029 0.94982 0.87041 0.0
H663 H 0.28331 0.90884 0.86497 0.0
C664 C 0.85745 0.31016 0.86727 0.0
C665 C 0.83754 0.34528 0.86628 0.0
C666 C 0.78108 0.31147 0.85289 0.0
C667 C 0.80023 0.27602 0.85595 0.0
N668 N 0.85318 0.24149 0.87217 0.0
N669 N 0.77902 0.37941 0.86202 0.0
C670 C 0.83743 0.27532 0.86497 0.0
C671 C 0.79883 0.34595 0.86036 0.0
N672 N 0.89568 0.31004 0.86963 0.0
N673 N 0.74701 0.31258 0.84171 0.0
H674 H 0.79142 0.40532 0.86695 0.0
H675 H 0.74989 0.38087 0.86032 0.0
H676 H 0.73318 0.28816 0.83564 0.0
H677 H 0.73388 0.33799 0.83665 0.0
H678 H 0.91193 0.28531 0.86808 0.0
H679 H 0.91147 0.33512 0.87066 0.0
H680 H 0.87894 0.23994 0.8809 0.0
H681 H 0.8387 0.21547 0.87186 0.0
C682 C 0.3509 0.06645 0.63056 0.0
C683 C 0.33764 0.0962 0.61558 0.0
C684 C 0.39272 0.08747 0.59054 0.0
C685 C 0.40898 0.06279 0.60768 0.0
N686 N 0.40579 0.03531 0.64681 0.0
N687 N 0.35208 0.14181 0.58461 0.0
C688 C 0.38869 0.05387 0.62848 0.0
C689 C 0.36011 0.10861 0.59639 0.0
N690 N 0.32728 0.04944 0.64637 0.0
N691 N 0.40747 0.09 0.5684 0.0
H692 H 0.33044 0.16026 0.58942 0.0
H693 H 0.36991 0.15339 0.57191 0.0
H694 H 0.43007 0.07339 0.56276 0.0
H695 H 0.39434 0.10519 0.55485 0.0
H696 H 0.33484 0.02533 0.65617 0.0
H697 H 0.29891 0.05663 0.64775 0.0
H698 H 0.39295 0.03152 0.66312 0.0
H699 H 0.43408 0.02756 0.64674 0.0
C700 C 0.64466 0.65412 0.37391 0.0
C701 C 0.63631 0.6741 0.35269 0.0
C702 C 0.59054 0.62461 0.34227 0.0
C703 C 0.60219 0.60238 0.36195 0.0
N704 N 0.64792 0.59209 0.39288 0.0
N705 N 0.60988 0.67111 0.31334 0.0
C706 C 0.63169 0.61588 0.37664 0.0
C707 C 0.612 0.65707 0.33579 0.0
N708 N 0.6628 0.67198 0.39209 0.0
N709 N 0.55778 0.61668 0.33063 0.0
H710 H 0.62655 0.69364 0.30732 0.0
H711 H 0.59483 0.65733 0.30002 0.0
H712 H 0.53907 0.59542 0.33592 0.0
H713 H 0.5469 0.63451 0.31752 0.0
H714 H 0.66617 0.65934 0.40861 0.0
H715 H 0.67057 0.70075 0.39175 0.0
H716 H 0.67176 0.59973 0.40252 0.0
H717 H 0.64024 0.56338 0.39479 0.0
C718 C 0.07673 0.89508 0.1345 0.0
C719 C 0.09366 0.86875 0.11869 0.0
C720 C 0.043 0.88041 0.09051 0.0
C721 C 0.02295 0.9014 0.1078 0.0
N722 N 0.01806 0.92105 0.14859 0.0
N723 N 0.08579 0.828 0.08441 0.0
C724 C 0.03903 0.90677 0.13049 0.0
C725 C 0.07491 0.859 0.09741 0.0
N726 N 0.09678 0.9099 0.15293 0.0
N727 N 0.03262 0.88183 0.06733 0.0
H728 H 0.1067 0.80899 0.0898 0.0
H729 H 0.07061 0.81837 0.06983 0.0
H730 H 0.01112 0.89946 0.06106 0.0
H731 H 0.04851 0.86921 0.05402 0.0
H732 H 0.0865 0.93177 0.16363 0.0
H733 H 0.12504 0.90356 0.15589 0.0
H734 H 0.02785 0.92204 0.16591 0.0
H735 H -0.01036 0.92773 0.14697 0.0
C736 C 0.60072 0.77076 0.86627 0.0
C737 C 0.62926 0.77209 0.84902 0.0
C738 C 0.62583 0.8422 0.8484 0.0
C739 C 0.59276 0.84017 0.86224 0.0
N740 N 0.54695 0.80243 0.8835 0.0
N741 N 0.67011 0.80822 0.82354 0.0
C742 C 0.58009 0.80452 0.8714 0.0
C743 C 0.6427 0.80765 0.84035 0.0
N744 N 0.59326 0.73694 0.87753 0.0
N745 N 0.64109 0.87715 0.84317 0.0
H746 H 0.68404 0.78349 0.81805 0.0
H747 H 0.67788 0.83275 0.8143 0.0
H748 H 0.62933 0.90285 0.849 0.0
H749 H 0.66695 0.88063 0.83491 0.0
H750 H 0.57513 0.73463 0.89183 0.0
H751 H 0.60815 0.71181 0.87398 0.0
H752 H 0.53409 0.77667 0.88808 0.0
H753 H 0.53059 0.82631 0.8875 0.0
C754 C 0.38259 0.41808 0.10174 0.0
C755 C 0.41647 0.40442 0.11182 0.0
C756 C 0.38229 0.35632 0.1346 0.0
C757 C 0.34882 0.36739 0.12271 0.0
N758 N 0.31433 0.41548 0.10133 0.0
N759 N 0.44785 0.37077 0.14301 0.0
C760 C 0.34809 0.40083 0.1085 0.0
C761 C 0.41586 0.37717 0.13025 0.0
N762 N 0.38382 0.44557 0.08459 0.0
N763 N 0.38272 0.32422 0.14844 0.0
H764 H 0.47263 0.38597 0.1398 0.0
H765 H 0.44892 0.35346 0.15795 0.0
H766 H 0.35867 0.30842 0.15233 0.0
H767 H 0.4072 0.31203 0.15518 0.0
H768 H 0.36075 0.45349 0.07437 0.0
H769 H 0.40863 0.45967 0.08005 0.0
H770 H 0.31144 0.44139 0.09239 0.0
H771 H 0.28882 0.40314 0.10629 0.0
C772 C 0.85462 0.11976 0.34575 0.0
C773 C 0.84814 0.10528 0.36881 0.0
C774 C 0.81114 0.16276 0.37808 0.0
C775 C 0.81621 0.17587 0.35466 0.0
N776 N 0.83086 0.1598 0.31438 0.0
N777 N 0.8107 0.10778 0.40422 0.0
C778 C 0.83387 0.15188 0.3379 0.0
C779 C 0.82334 0.12514 0.38417 0.0
N780 N 0.88251 0.10523 0.33184 0.0
N781 N 0.79654 0.18658 0.39479 0.0
H782 H 0.81758 0.07959 0.40863 0.0
H783 H 0.79013 0.11976 0.41497 0.0
H784 H 0.78751 0.21438 0.3911 0.0
H785 H 0.79617 0.17974 0.41266 0.0
H786 H 0.89035 0.11788 0.31595 0.0
H787 H 0.90087 0.08364 0.33708 0.0
H788 H 0.84041 0.14113 0.30138 0.0
H789 H 0.81512 0.18276 0.30791 0.0
C790 C 0.05538 0.60736 0.63286 0.0
C791 C 0.08952 0.59631 0.62185 0.0
C792 C 0.05677 0.54572 0.60004 0.0
C793 C 0.02249 0.55824 0.61003 0.0
N794 N -0.01015 0.59213 0.64051 0.0
N795 N 0.12497 0.54902 0.60053 0.0
C796 C 0.0222 0.58598 0.62817 0.0
C797 C 0.09092 0.56332 0.60731 0.0
N798 N 0.05399 0.63985 0.6463 0.0
N799 N 0.05632 0.51867 0.58263 0.0
H800 H 0.15033 0.56141 0.60581 0.0
H801 H 0.12823 0.52323 0.59156 0.0
H802 H 0.03187 0.50421 0.57766 0.0
H803 H 0.07964 0.51171 0.57247 0.0
H804 H 0.02908 0.6519 0.65238 0.0
H805 H 0.07757 0.65638 0.65026 0.0
H806 H -0.0117 0.6096 0.65533 0.0
H807 H 0.96526 0.57667 0.63715 0.0
C808 C 0.61392 0.1243 0.59272 0.0
C809 C 0.60612 0.09804 0.61121 0.0
C810 C 0.63161 0.14305 0.64002 0.0
C811 C 0.63136 0.17199 0.6224 0.0
N812 N 0.62443 0.19071 0.58173 0.0
N813 N 0.62769 0.07502 0.64874 0.0
C814 C 0.62397 0.16262 0.59854 0.0
C815 C 0.62141 0.10509 0.63381 0.0
N816 N 0.61424 0.11201 0.5699 0.0
N817 N 0.63968 0.15229 0.66288 0.0
H818 H 0.62322 0.04668 0.6435 0.0
H819 H 0.64144 0.07755 0.66488 0.0
H820 H 0.64811 0.17967 0.668 0.0
H821 H 0.63598 0.13352 0.67696 0.0
H822 H 0.62197 0.12931 0.55576 0.0
H823 H 0.61244 0.08307 0.56549 0.0
H824 H 0.61465 0.18671 0.56461 0.0
H825 H 0.63262 0.21885 0.58532 0.0
C826 C 0.08976 0.38603 0.86738 0.0
C827 C 0.09024 0.35342 0.85249 0.0
C828 C 0.02324 0.36204 0.84412 0.0
C829 C 0.02152 0.38939 0.86244 0.0
N830 N 0.05229 0.42906 0.89132 0.0
N831 N 0.05746 0.30919 0.82684 0.0
C832 C 0.05468 0.40251 0.8737 0.0
C833 C 0.05718 0.34158 0.84041 0.0
N834 N 0.12291 0.40109 0.87534 0.0
N835 N -0.00793 0.35541 0.83059 0.0
H836 H 0.0816 0.29316 0.82362 0.0
H837 H 0.03326 0.29659 0.81999 0.0
H838 H 0.96688 0.37018 0.83317 0.0
H839 H -0.00784 0.3383 0.81557 0.0
H840 H 0.12484 0.42673 0.88464 0.0
H841 H 0.14896 0.38957 0.87077 0.0
H842 H 0.07466 0.43634 0.9023 0.0
H843 H 0.02716 0.44274 0.89563 0.0
C844 C 0.85197 0.81596 0.09018 0.0
C845 C 0.83961 0.85025 0.10121 0.0
C846 C 0.78972 0.81521 0.12156 0.0
C847 C 0.80404 0.78072 0.112 0.0
N848 N 0.83922 0.74883 0.08186 0.0
N849 N 0.79072 0.88487 0.12119 0.0
C850 C 0.83184 0.78147 0.0943 0.0
C851 C 0.80626 0.85061 0.1148 0.0
N852 N 0.88446 0.81562 0.07736 0.0
N853 N 0.76196 0.81381 0.13811 0.0
H854 H 0.80235 0.91111 0.11617 0.0
H855 H 0.76482 0.8874 0.12952 0.0
H856 H 0.74819 0.7884 0.14251 0.0
H857 H 0.75347 0.83734 0.14803 0.0
H858 H 0.89722 0.79062 0.07138 0.0
H859 H 0.90016 0.84016 0.07382 0.0
H860 H 0.85693 0.74796 0.0673 0.0
H861 H 0.82454 0.72334 0.08481 0.0
C862 C 0.38579 0.54636 0.3595 0.0
C863 C 0.41926 0.56207 0.35007 0.0
C864 C 0.38397 0.61407 0.33147 0.0
C865 C 0.35092 0.60028 0.3426 0.0
N866 N 0.31753 0.54719 0.3597 0.0
N867 N 0.44872 0.60101 0.3206 0.0
C868 C 0.35093 0.56408 0.35396 0.0
C869 C 0.4176 0.59245 0.3336 0.0
N870 N 0.38754 0.51658 0.37512 0.0
N871 N 0.38418 0.6491 0.32064 0.0
H872 H 0.4734 0.58497 0.32203 0.0
H873 H 0.44882 0.62098 0.30694 0.0
H874 H 0.36025 0.66596 0.31858 0.0
H875 H 0.40861 0.66256 0.31486 0.0
H876 H 0.36464 0.50722 0.38496 0.0
H877 H 0.41246 0.50218 0.37904 0.0
H878 H 0.31538 0.51944 0.36635 0.0
H879 H 0.29172 0.55979 0.35555 0.0
C880 C 0.36542 0.14692 0.10055 0.0
C881 C 0.34671 0.11111 0.10161 0.0
C882 C 0.28868 0.14297 0.11384 0.0
C883 C 0.3067 0.17901 0.11088 0.0
N884 N 0.35909 0.21557 0.09594 0.0
N885 N 0.28947 0.07472 0.10555 0.0
C886 C 0.34417 0.18107 0.10256 0.0
C887 C 0.30792 0.10903 0.10703 0.0
N888 N 0.40367 0.14837 0.09856 0.0
N889 N 0.25422 0.1409 0.12437 0.0
H890 H 0.30301 0.04912 0.10117 0.0
H891 H 0.26041 0.07207 0.10688 0.0
H892 H 0.23926 0.16501 0.12983 0.0
H893 H 0.24173 0.1152 0.12943 0.0
H894 H 0.4191 0.17361 0.10011 0.0
H895 H 0.42035 0.12381 0.09775 0.0
H896 H 0.38503 0.21825 0.08764 0.0
H897 H 0.34383 0.24114 0.09643 0.0
C898 C 0.56187 0.5267 0.85481 0.0
C899 C 0.52667 0.54565 0.85274 0.0
C900 C 0.55788 0.60357 0.83861 0.0
C901 C 0.59282 0.58418 0.83929 0.0
N902 N 0.62763 0.5253 0.84347 0.0
N903 N 0.49046 0.59726 0.83578 0.0
C904 C 0.59465 0.54497 0.84584 0.0
C905 C 0.5245 0.58255 0.84237 0.0
N906 N 0.56441 0.49251 0.86648 0.0
N907 N 0.55657 0.64242 0.83565 0.0
H908 H 0.4655 0.58181 0.83753 0.0
H909 H 0.48758 0.62265 0.82625 0.0
H910 H 0.58066 0.65916 0.83407 0.0
H911 H 0.53198 0.65838 0.83735 0.0
H912 H 0.58989 0.4796 0.87084 0.0
H913 H 0.54114 0.47829 0.87339 0.0
H914 H 0.62984 0.49576 0.84582 0.0
H915 H 0.65211 0.53811 0.83716 0.0
C916 C 0.11229 0.80266 0.63663 0.0
C917 C 0.13827 0.78641 0.62052 0.0
C918 C 0.13532 0.84557 0.59744 0.0
C919 C 0.1037 0.85783 0.61068 0.0
N920 N 0.05628 0.84083 0.63961 0.0
N921 N 0.16817 0.7905 0.58224 0.0
C922 C 0.09053 0.83458 0.62949 0.0
C923 C 0.14831 0.80734 0.59999 0.0
N924 N 0.10886 0.78851 0.65897 0.0
N925 N 0.15353 0.87046 0.58279 0.0
H926 H 0.17581 0.76168 0.58226 0.0
H927 H 0.17304 0.80411 0.56617 0.0
H928 H 0.14631 0.89937 0.58145 0.0
H929 H 0.17851 0.86341 0.57427 0.0
H930 H 0.09222 0.80172 0.6717 0.0
H931 H 0.12605 0.76685 0.66566 0.0
H932 H 0.04486 0.82218 0.65207 0.0
H933 H 0.03714 0.86119 0.63359 0.0
C934 C 0.88954 0.41985 0.34808 0.0
C935 C 0.90996 0.41098 0.3689 0.0
C936 C 0.86432 0.36131 0.37878 0.0
C937 C 0.84214 0.37194 0.35898 0.0
N938 N 0.82851 0.41957 0.32915 0.0
N939 N 0.90851 0.38372 0.40798 0.0
C940 C 0.85309 0.40388 0.34498 0.0
C941 C 0.89451 0.38521 0.38557 0.0
N942 N 0.90533 0.44154 0.33068 0.0
N943 N 0.85888 0.32716 0.39013 0.0
H944 H 0.92942 0.40242 0.41386 0.0
H945 H 0.89616 0.36736 0.42126 0.0
H946 H 0.83986 0.30639 0.38451 0.0
H947 H 0.87683 0.31736 0.40338 0.0
H948 H 0.89283 0.44516 0.3142 0.0
H949 H 0.93228 0.45306 0.3318 0.0
H950 H 0.83415 0.44486 0.32001 0.0
H951 H 0.80093 0.40989 0.32719 0.0
C952 C 0.26919 0.82367 0.36653 0.0
C953 C 0.28966 0.79049 0.36002 0.0
C954 C 0.34924 0.82457 0.36565 0.0
C955 C 0.3288 0.85762 0.37262 0.0
N956 N 0.27032 0.88756 0.38352 0.0
N957 N 0.34849 0.7565 0.35683 0.0
C958 C 0.28902 0.85678 0.37433 0.0
C959 C 0.32953 0.79005 0.36073 0.0
N960 N 0.23086 0.82375 0.36459 0.0
N961 N 0.38746 0.82644 0.36328 0.0
H962 H 0.33519 0.73086 0.35237 0.0
H963 H 0.37722 0.7531 0.35963 0.0
H964 H 0.40319 0.85042 0.36801 0.0
H965 H 0.40361 0.80516 0.35542 0.0
H966 H 0.21436 0.84821 0.36636 0.0
H967 H 0.21547 0.7994 0.35997 0.0
H968 H 0.24182 0.88737 0.38758 0.0
H969 H 0.28384 0.91281 0.38858 0.0
C970 C 0.91899 0.57147 0.13301 0.0
C971 C 0.91933 0.55433 0.11043 0.0
C972 C 0.85189 0.56644 0.10627 0.0
C973 C 0.85293 0.58979 0.12675 0.0
N974 N 0.88869 0.61499 0.15984 0.0
N975 N 0.88684 0.53582 0.07491 0.0
C976 C 0.88656 0.59187 0.14048 0.0
C977 C 0.88593 0.55175 0.0969 0.0
N978 N 0.94976 0.56838 0.14737 0.0
N979 N 0.81806 0.55709 0.09634 0.0
H980 H 0.91079 0.52279 0.06799 0.0
H981 H 0.86454 0.53745 0.06303 0.0
H982 H 0.79253 0.5656 0.10364 0.0
H983 H 0.81507 0.53751 0.08263 0.0
H984 H 0.94966 0.57593 0.16511 0.0
H985 H -0.02536 0.55528 0.14214 0.0
H986 H 0.91395 0.62269 0.16785 0.0
H987 H 0.86572 0.62793 0.16762 0.0
C988 C 0.11834 0.14707 0.8369 0.0
C989 C 0.14172 0.16578 0.85365 0.0
C990 C 0.13466 0.11055 0.87989 0.0
C991 C 0.10567 0.09589 0.86518 0.0
N992 N 0.06375 0.10707 0.83207 0.0
N993 N 0.1657 0.16782 0.89366 0.0
C994 C 0.09581 0.11584 0.84424 0.0
C995 C 0.1484 0.14819 0.87586 0.0
N996 N 0.11816 0.15833 0.81384 0.0
N997 N 0.14977 0.08837 0.89736 0.0
H998 H 0.17408 0.19632 0.89227 0.0
H999 H 0.1678 0.15705 0.91075 0.0
H1000 H 0.14183 0.05994 0.90016 0.0
H1001 H 0.17317 0.09679 0.90717 0.0
H1002 H 0.10377 0.14326 0.80077 0.0
H1003 H 0.13588 0.17964 0.80732 0.0
H1004 H 0.05418 0.12345 0.81789 0.0
H1005 H 0.04425 0.08681 0.83772 0.0
C1006 C 0.51696 0.36567 0.61231 0.0
C1007 C 0.51936 0.40289 0.60234 0.0
C1008 C 0.58756 0.403 0.60874 0.0
C1009 C 0.58541 0.36411 0.61591 0.0
N1010 N 0.54915 0.30616 0.62077 0.0
N1011 N 0.55708 0.45573 0.58835 0.0
C1012 C 0.5504 0.34477 0.61667 0.0
C1013 C 0.55468 0.42147 0.59999 0.0
N1014 N 0.48275 0.35081 0.61839 0.0
N1015 N 0.62093 0.42227 0.61044 0.0
H1016 H 0.53368 0.4701 0.58164 0.0
H1017 H 0.58246 0.46854 0.58375 0.0
H1018 H 0.64573 0.40925 0.61616 0.0
H1019 H 0.62347 0.45174 0.60785 0.0
H1020 H 0.4796 0.32539 0.62782 0.0
H1021 H 0.45763 0.36587 0.61624 0.0
H1022 H 0.52473 0.28986 0.61904 0.0
H1023 H 0.57313 0.28971 0.62373 0.0
C1024 C 0.20744 0.25719 0.2262 0.0
C1025 C 0.2182 0.23357 0.20708 0.0
C1026 C 0.20191 0.1759 0.22954 0.0
C1027 C 0.19269 0.19944 0.24898 0.0
N1028 N 0.19238 0.26166 0.26769 0.0
N1029 N 0.23359 0.17086 0.19194 0.0
C1030 C 0.19749 0.23985 0.24794 0.0
C1031 C 0.21766 0.19298 0.20912 0.0
N1032 N 0.20466 0.29602 0.22317 0.0
N1033 N 0.19515 0.13732 0.23051 0.0
H1034 H 0.24618 0.18238 0.17695 0.0
H1035 H 0.23746 0.14137 0.19346 0.0
H1036 H 0.18548 0.12357 0.24566 0.0
H1037 H 0.19697 0.11929 0.21595 0.0
H1038 H 0.19275 0.31436 0.23553 0.0
H1039 H 0.21144 0.30982 0.20745 0.0
H1040 H 0.19957 0.29056 0.26871 0.0
H1041 H 0.18352 0.25039 0.28375 0.0
C1042 C 0.01839 0.94893 0.4838 0.0
C1043 C -0.00382 0.94661 0.50443 0.0
C1044 C 0.94014 0.96567 0.48213 0.0
C1045 C 0.96281 0.97039 0.46189 0.0
N1046 N 0.02438 0.97405 0.44419 0.0
N1047 N 0.93736 0.95844 0.52447 0.0
C1048 C 0.00221 0.96399 0.46287 0.0
C1049 C 0.95752 0.95693 0.50401 0.0
N1050 N 0.0549 0.93666 0.48422 0.0
N1051 N 0.90184 0.96761 0.48019 0.0
H1052 H 0.94832 0.9508 0.54084 0.0
H1053 H 0.91045 0.97003 0.52556 0.0
H1054 H 0.88804 0.97353 0.46436 0.0
H1055 H 0.88354 0.96005 0.4937 0.0
H1056 H 0.07108 0.93315 0.46913 0.0
H1057 H 0.06848 0.92779 0.4996 0.0
H1058 H 0.05363 0.97391 0.44477 0.0
H1059 H 0.01374 -0.01408 0.42868 0.0
C1060 C 0.21402 0.76427 0.71632 0.0
C1061 C 0.21194 0.72371 0.71453 0.0
C1062 C 0.22954 0.71728 0.75607 0.0
C1063 C 0.23623 0.75748 0.75696 0.0
N1064 N 0.23655 0.81947 0.73816 0.0
N1065 N 0.22087 0.66102 0.73157 0.0
C1066 C 0.22885 0.78108 0.73714 0.0
C1067 C 0.22002 0.70001 0.73419 0.0
N1068 N 0.20064 0.78669 0.69836 0.0
N1069 N 0.23269 0.69552 0.77604 0.0
H1070 H 0.21403 0.64725 0.71584 0.0
H1071 H 0.23107 0.64228 0.74436 0.0
H1072 H 0.24155 0.70641 0.7922 0.0
H1073 H 0.22394 0.66708 0.7771 0.0
H1074 H 0.19766 0.81632 0.69951 0.0
H1075 H 0.18935 0.77539 0.68288 0.0
H1076 H 0.23639 0.83743 0.7235 0.0
H1077 H 0.24505 0.83321 0.7536 0.0
C1078 C 0.43647 -0.01056 -0.01179 0.0
C1079 C 0.46207 -0.00421 0.00695 0.0
C1080 C 0.51473 0.97537 0.98229 0.0
C1081 C 0.48902 0.96874 0.9636 0.0
N1082 N 0.42511 0.95974 0.95031 0.0
N1083 N 0.52368 -0.01206 0.024 0.0
C1084 C 0.44973 0.97285 0.96703 0.0
C1085 C 0.50064 -0.01369 0.0047 0.0
N1086 N 0.39968 0.0002 -0.00951 0.0
N1087 N 0.55255 0.97328 0.97826 0.0
H1088 H 0.51424 -0.00341 0.04053 0.0
H1089 H 0.55123 0.97788 0.02414 0.0
H1090 H 0.56384 0.96528 0.96207 0.0
H1091 H 0.57283 -0.01805 -0.00961 0.0
H1092 H 0.38072 0.00087 0.97649 0.0
H1093 H 0.38851 0.01061 0.0062 0.0
H1094 H 0.39614 0.95855 0.95272 0.0
H1095 H 0.43382 0.94653 0.93477 0.0
C1096 C 0.20393 0.75515 0.25535 0.0
C1097 C 0.21367 0.71583 0.25763 0.0
C1098 C 0.20241 0.70607 0.21546 0.0
C1099 C 0.18866 0.74419 0.21391 0.0
N1100 N 0.17303 0.80442 0.23229 0.0
N1101 N 0.21947 0.65268 0.24083 0.0
C1102 C 0.18848 0.76857 0.23384 0.0
C1103 C 0.21255 0.69096 0.23789 0.0
N1104 N 0.21106 0.78007 0.27342 0.0
N1105 N 0.20575 0.68447 0.19548 0.0
H1106 H 0.22698 0.64072 0.25702 0.0
H1107 H 0.21523 0.63227 0.22773 0.0
H1108 H 0.19738 0.69429 0.17892 0.0
H1109 H 0.21914 0.65795 0.19497 0.0
H1110 H 0.20852 0.80971 0.2719 0.0
H1111 H 0.22296 0.7716 0.28938 0.0
H1112 H 0.16757 0.82159 0.24688 0.0
H1113 H 0.16339 0.81627 0.21651 0.0
C1114 C 0.48408 0.97121 0.47251 0.0
C1115 C 0.44519 0.96258 0.4709 0.0
C1116 C 0.43575 -0.0158 0.51138 0.0
C1117 C 0.47528 -0.01211 0.51398 0.0
N1118 N 0.53779 -0.01759 0.49801 0.0
N1119 N 0.38378 0.95869 0.48854 0.0
C1120 C 0.4997 -0.01875 0.49472 0.0
C1121 C 0.42088 0.96865 0.49024 0.0
N1122 N 0.50601 0.96961 0.4528 0.0
N1123 N 0.41243 -0.00335 0.5289 0.0
H1124 H 0.37151 0.94905 0.47291 0.0
H1125 H 0.36561 0.95788 0.50287 0.0
H1126 H 0.42233 0.00853 0.54459 0.0
H1127 H 0.38335 -0.00156 0.52714 0.0
H1128 H 0.53366 -0.02068 0.4522 0.0
H1129 H 0.4956 0.96128 0.4364 0.0
H1130 H 0.55713 0.97353 0.48543 0.0
H1131 H 0.55027 -0.01027 0.51403 0.0
C1132 C 0.22164 0.26562 0.73907 0.0
C1133 C 0.21595 0.23902 0.75766 0.0
C1134 C 0.23575 0.18606 0.73225 0.0
C1135 C 0.24034 0.21247 0.71351 0.0
N1136 N 0.23141 0.27567 0.69722 0.0
N1137 N 0.20911 0.17347 0.7707 0.0
C1138 C 0.2311 0.25174 0.71632 0.0
C1139 C 0.22056 0.19905 0.75389 0.0
N1140 N 0.22012 0.30415 0.74347 0.0
N1141 N 0.2467 0.14874 0.72952 0.0
H1142 H 0.19731 0.18187 0.78667 0.0
H1143 H 0.20804 0.14396 0.76803 0.0
H1144 H 0.25628 0.13771 0.71354 0.0
H1145 H 0.2485 0.12924 0.74338 0.0
H1146 H 0.22814 0.32499 0.73135 0.0
H1147 H 0.21356 0.31546 0.75995 0.0
H1148 H 0.22119 0.30364 0.69755 0.0
H1149 H 0.23919 0.26658 0.68043 0.0
C1150 C -0.00466 0.03134 -0.01153 0.0
C1151 C -0.01237 0.01024 0.96767 0.0
C1152 C 0.95662 0.96116 -0.00846 0.0
C1153 C 0.95887 -0.01449 0.01154 0.0
N1154 N -0.02944 0.04978 0.02616 0.0
N1155 N 0.95093 0.95979 0.94923 0.0
C1156 C -0.02466 0.02243 0.00922 0.0
C1157 C 0.96537 0.97643 0.96906 0.0
N1158 N 0.02264 0.0589 -0.01115 0.0
N1159 N 0.94791 0.92319 -0.00615 0.0
H1160 H 0.95389 0.97152 0.93245 0.0
H1161 H 0.93204 0.93694 0.94987 0.0
H1162 H 0.94409 0.90983 0.01009 0.0
H1163 H 0.94911 0.90408 0.97976 0.0
H1164 H 0.03084 0.07274 0.00432 0.0
H1165 H 0.04022 0.06438 0.97458 0.0
H1166 H -0.02004 0.07792 0.02407 0.0
H1167 H 0.95307 0.04601 0.04068 0.0
C1168 C 0.70823 0.76627 0.71885 0.0
C1169 C 0.72789 0.7424 0.70293 0.0
C1170 C 0.72225 0.68775 0.72977 0.0
C1171 C 0.7021 0.71148 0.74556 0.0
N1172 N 0.68306 0.77445 0.75822 0.0
N1173 N 0.76095 0.68367 0.6947 0.0
C1174 C 0.69743 0.75121 0.74107 0.0
C1175 C 0.73735 0.70412 0.70893 0.0
N1176 N 0.69847 0.80269 0.71226 0.0
N1177 N 0.72533 0.64931 0.73419 0.0
H1178 H 0.77224 0.69488 0.67921 0.0
H1179 H 0.77183 0.65688 0.69909 0.0
H1180 H 0.71549 0.63658 0.74962 0.0
H1181 H 0.73572 0.62958 0.7221 0.0
H1182 H 0.68031 0.82005 0.72185 0.0
H1183 H 0.70697 0.81496 0.69638 0.0
H1184 H 0.68218 0.80421 0.75699 0.0
H1185 H 0.67478 0.7641 0.77466 0.0
C1186 C 0.73445 0.26526 0.2159 0.0
C1187 C 0.72981 0.22513 0.21287 0.0
C1188 C 0.74662 0.21426 0.25416 0.0
C1189 C 0.75574 0.25372 0.25627 0.0
N1190 N 0.76159 0.31669 0.23905 0.0
N1191 N 0.73607 0.16064 0.22786 0.0
C1192 C 0.75066 0.27922 0.23708 0.0
C1193 C 0.73681 0.19935 0.23171 0.0
N1194 N 0.72179 0.2901 0.19897 0.0
N1195 N 0.74726 0.19107 0.2736 0.0
H1196 H 0.72953 0.14855 0.21156 0.0
H1197 H 0.74507 0.14051 0.2402 0.0
H1198 H 0.75517 0.20073 0.29026 0.0
H1199 H 0.73702 0.16309 0.27366 0.0
H1200 H 0.72089 0.31972 0.2012 0.0
H1201 H 0.70874 0.28105 0.18347 0.0
H1202 H 0.76287 0.33548 0.22481 0.0
H1203 H 0.7717 0.32849 0.25471 0.0
C1204 C 0.71187 0.2564 0.75883 0.0
C1205 C 0.71894 0.21633 0.75941 0.0
C1206 C 0.70812 0.21262 0.71692 0.0
C1207 C 0.69493 0.25105 0.71721 0.0
N1208 N 0.68276 0.30967 0.73832 0.0
N1209 N 0.71995 0.15508 0.73968 0.0
C1210 C 0.69639 0.27302 0.73816 0.0
C1211 C 0.71649 0.1941 0.73859 0.0
N1212 N 0.72151 0.27881 0.77767 0.0
N1213 N 0.7126 0.19376 0.69603 0.0
H1214 H 0.72538 0.14029 0.75529 0.0
H1215 H 0.7141 0.13702 0.72553 0.0
H1216 H 0.70661 0.20616 0.67975 0.0
H1217 H 0.7256 0.16711 0.69465 0.0
H1218 H 0.72036 0.30865 0.77743 0.0
H1219 H 0.73441 0.26791 0.79277 0.0
H1220 H 0.67866 0.32538 0.7537 0.0
H1221 H 0.67366 0.32376 0.72311 0.0
C1222 C 0.71107 0.77095 0.23991 0.0
C1223 C 0.70705 0.7467 0.25982 0.0
C1224 C 0.72735 0.69116 0.23677 0.0
C1225 C 0.73173 0.71544 0.21697 0.0
N1226 N 0.72007 0.77574 0.19761 0.0
N1227 N 0.70149 0.68276 0.27583 0.0
C1228 C 0.7208 0.75448 0.21785 0.0
C1229 C 0.71216 0.70644 0.25782 0.0
N1230 N 0.70785 0.80981 0.24239 0.0
N1231 N 0.73877 0.65376 0.23561 0.0
H1232 H 0.68989 0.69288 0.29148 0.0
H1233 H 0.70086 0.653 0.27453 0.0
H1234 H 0.74795 0.641 0.22003 0.0
H1235 H 0.74098 0.6359 0.25026 0.0
H1236 H 0.71459 0.82935 0.22918 0.0
H1237 H 0.70089 0.82292 0.25828 0.0
H1238 H 0.70909 0.80335 0.19657 0.0
H1239 H 0.72757 0.76443 0.18129 0.0
C1240 C 0.50582 0.4766 -0.0137 0.0
C1241 C 0.47955 0.4646 0.00349 0.0
C1242 C 0.4272 0.47795 0.9766 0.0
C1243 C 0.45356 0.48929 0.95925 0.0
N1244 N 0.51639 0.5089 0.94903 0.0
N1245 N 0.41588 0.46179 0.01762 0.0
C1246 C 0.49245 0.49164 0.9646 0.0
C1247 C 0.44035 0.46798 -0.00052 0.0
N1248 N 0.54348 0.47205 -0.00966 0.0
N1249 N 0.38999 0.47475 0.97084 0.0
H1250 H 0.42486 0.45421 0.03451 0.0
H1251 H 0.38716 0.46721 0.01656 0.0
H1252 H 0.37933 0.48244 0.95437 0.0
H1253 H 0.36995 0.46242 0.98181 0.0
H1254 H 0.56393 0.47574 0.97746 0.0
H1255 H 0.55433 0.46242 0.00639 0.0
H1256 H 0.54446 0.51482 0.95276 0.0
H1257 H 0.50732 0.52055 0.93306 0.0
C1258 C 0.96857 0.43912 0.47454 0.0
C1259 C 0.00058 0.45768 0.46511 0.0
C1260 C 0.00592 0.49699 0.50054 0.0
C1261 C -0.03028 0.48429 0.50749 0.0
N1262 N 0.91567 0.4436 0.50119 0.0
N1263 N 0.05119 0.50309 0.46892 0.0
C1264 C 0.95106 0.45478 0.49483 0.0
C1265 C 0.02001 0.48596 0.47822 0.0
N1266 N 0.95475 0.40694 0.4639 0.0
N1267 N 0.02687 0.51912 0.51551 0.0
H1268 H 0.06344 0.49395 0.45321 0.0
H1269 H 0.06393 0.52724 0.47619 0.0
H1270 H 0.01748 0.52693 0.53223 0.0
H1271 H 0.05475 0.52658 0.51237 0.0
H1272 H 0.93332 0.39021 0.47097 0.0
H1273 H 0.96739 0.3948 0.44914 0.0
H1274 H 0.89892 0.42555 0.49101 0.0
H1275 H 0.90184 0.45438 0.51592 0.0
C1276 C 0.00515 0.45895 -0.00764 0.0
C1277 C -0.01658 0.48441 0.00616 0.0
C1278 C 0.932 0.48189 0.97745 0.0
C1279 C 0.9539 0.45664 0.96356 0.0
N1280 N 0.014 0.42842 0.95445 0.0
N1281 N 0.92993 0.52625 0.01035 0.0
C1282 C -0.00863 0.44737 0.97002 0.0
C1283 C 0.94806 0.49802 -0.00186 0.0
N1284 N 0.03852 0.44515 0.00088 0.0
N1285 N 0.89534 0.48883 0.97151 0.0
H1286 H 0.94052 0.53798 0.02591 0.0
H1287 H 0.90591 0.54014 0.00424 0.0
H1288 H 0.8828 0.47785 0.95632 0.0
H1289 H 0.87655 0.50338 0.9823 0.0
H1290 H 0.05344 0.42295 -0.007 0.0
H1291 H 0.05038 0.45442 0.01672 0.0
H1292 H 0.04267 0.42419 0.95709 0.0
H1293 H 0.00488 0.41989 0.93777 0.0
C1294 C 0.44066 0.50513 0.46209 0.0
C1295 C 0.48009 0.50881 0.45919 0.0
C1296 C 0.49092 0.48923 0.50006 0.0
C1297 C 0.45141 0.48549 0.50304 0.0
N1298 N 0.3887 0.48462 0.48675 0.0
N1299 N 0.54325 0.49926 0.47333 0.0
C1300 C 0.42627 0.49163 0.48393 0.0
C1301 C 0.50539 0.49935 0.4776 0.0
N1302 N 0.41709 0.51574 0.44412 0.0
N1303 N 0.51456 0.48322 0.51879 0.0
H1304 H 0.55476 0.5071 0.45714 0.0
H1305 H 0.56335 0.48903 0.48509 0.0
H1306 H 0.50561 0.47228 0.53493 0.0
H1307 H 0.54297 0.49025 0.51881 0.0
H1308 H 0.38806 0.51794 0.44572 0.0
H1309 H 0.42677 0.52432 0.4276 0.0
H1310 H 0.36934 0.48436 0.47299 0.0
H1311 H 0.37683 0.47702 0.50286 0.0
C1312 C 0.2982 0.10792 0.37912 0.0
C1313 C 0.29203 0.11549 0.35479 0.0
C1314 C 0.34005 0.06825 0.34436 0.0
C1315 C 0.34639 0.06077 0.36869 0.0
N1316 N 0.34186 0.08417 0.40851 0.0
N1317 N 0.3173 0.11391 0.3155 0.0
C1318 C 0.32895 0.08432 0.38583 0.0
C1319 C 0.31659 0.09943 0.33786 0.0
N1320 N 0.27352 0.1205 0.39581 0.0
N1321 N 0.35363 0.04423 0.32739 0.0
H1322 H 0.30112 0.13754 0.31047 0.0
H1323 H 0.33694 0.10538 0.30296 0.0
H1324 H 0.36962 0.01995 0.33091 0.0
H1325 H 0.34593 0.0465 0.30972 0.0
H1326 H 0.27479 0.11164 0.41333 0.0
H1327 H 0.24994 0.13706 0.3921 0.0
H1328 H 0.33221 0.1032 0.42128 0.0
H1329 H 0.36521 0.06811 0.41374 0.0
C1330 C 0.08752 0.06976 0.62817 0.0
C1331 C 0.07862 0.06141 0.60427 0.0
C1332 C 0.12509 0.10848 0.59106 0.0
C1333 C 0.13427 0.11657 0.61495 0.0
N1334 N 0.11381 0.11612 0.65536 0.0
N1335 N 0.07814 0.08364 0.56411 0.0
C1336 C 0.11182 0.10102 0.6332 0.0
C1337 C 0.0937 0.08466 0.58612 0.0
N1338 N 0.07554 0.04654 0.64605 0.0
N1339 N 0.14764 0.12061 0.57309 0.0
H1340 H 0.05447 0.06706 0.56024 0.0
H1341 H 0.08601 0.10235 0.55067 0.0
H1342 H 0.17175 0.13701 0.57546 0.0
H1343 H 0.14412 0.11143 0.55575 0.0
H1344 H 0.08537 0.04914 0.66328 0.0
H1345 H 0.05825 0.02283 0.64367 0.0
H1346 H 0.09572 0.10802 0.66889 0.0
H1347 H 0.13059 0.13983 0.65934 0.0
C1348 C 0.13106 0.84579 0.88545 0.0
C1349 C 0.13772 0.83583 0.86156 0.0
C1350 C 0.08935 0.88106 0.8486 0.0
C1351 C 0.08315 0.89172 0.87247 0.0
N1352 N 0.08743 0.87356 0.91334 0.0
N1353 N 0.11296 0.83231 0.82214 0.0
C1354 C 0.1004 0.87033 0.89081 0.0
C1355 C 0.11312 0.84942 0.84377 0.0
N1356 N 0.15522 0.83448 0.90287 0.0
N1357 N 0.07552 0.90262 0.83042 0.0
H1358 H 0.12971 0.80852 0.81837 0.0
H1359 H 0.09337 0.83893 0.80906 0.0
H1360 H 0.05905 0.92696 0.83258 0.0
H1361 H 0.08326 0.89817 0.81294 0.0
H1362 H 0.15391 0.84516 0.91999 0.0
H1363 H 0.17817 0.81663 0.9001 0.0
H1364 H 0.09687 0.85623 0.92711 0.0
H1365 H 0.06425 0.89052 0.91759 0.0
C1366 C 0.28458 0.90529 0.12415 0.0
C1367 C 0.2915 0.86517 0.12338 0.0
C1368 C 0.35512 0.87719 0.10843 0.0
C1369 C 0.34869 0.91711 0.11066 0.0
N1370 N 0.31115 0.96909 0.12575 0.0
N1371 N 0.33489 0.8127 0.11859 0.0
C1372 C 0.31465 0.93108 0.12023 0.0
C1373 C 0.32728 0.85098 0.1166 0.0
N1374 N 0.24881 0.91891 0.12702 0.0
N1375 N 0.38731 0.86446 0.09795 0.0
H1376 H 0.31519 0.79291 0.1247 0.0
H1377 H 0.36148 0.80098 0.11606 0.0
H1378 H 0.40863 0.88301 0.09252 0.0
H1379 H 0.39193 0.83595 0.09339 0.0
H1380 H 0.24171 0.94772 0.12508 0.0
H1381 H 0.22534 0.90128 0.12888 0.0
H1382 H 0.28845 -0.01985 0.1351 0.0
H1383 H 0.33259 -0.01097 0.12304 0.0
C1384 C 0.62501 0.86562 0.58869 0.0
C1385 C 0.64253 0.85077 0.6093 0.0
C1386 C 0.6064 0.8961 0.63306 0.0
C1387 C 0.58526 0.90696 0.61282 0.0
N1388 N 0.56752 0.89156 0.57272 0.0
N1389 N 0.64026 0.8444 0.65179 0.0
C1390 C 0.59233 0.88843 0.59103 0.0
C1391 C 0.63031 0.86364 0.63175 0.0
N1392 N 0.64042 0.86013 0.56694 0.0
N1393 N 0.60572 0.91767 0.65313 0.0
H1394 H 0.65538 0.81879 0.65162 0.0
H1395 H 0.6294 0.85134 0.66828 0.0
H1396 H 0.59127 0.94352 0.65452 0.0
H1397 H 0.62337 0.91218 0.66744 0.0
H1398 H 0.62981 0.87331 0.55182 0.0
H1399 H 0.66627 0.8468 0.56432 0.0
H1400 H 0.57047 0.87602 0.55715 0.0
H1401 H 0.54177 0.90564 0.57419 0.0
C1402 C 0.8372 0.88676 0.35586 0.0
C1403 C 0.83632 0.91197 0.37548 0.0
C1404 C 0.77429 0.88742 0.3862 0.0
C1405 C 0.77732 0.85884 0.36854 0.0
N1406 N 0.81523 0.82682 0.33931 0.0
N1407 N 0.80801 0.92925 0.41268 0.0
C1408 C 0.80977 0.85722 0.35407 0.0
C1409 C 0.80599 0.91035 0.39163 0.0
N1410 N 0.86312 0.8919 0.33843 0.0
N1411 N 0.74072 0.8939 0.39717 0.0
H1412 H 0.83156 0.94482 0.41804 0.0
H1413 H 0.78808 0.92583 0.42593 0.0
H1414 H 0.71614 0.87907 0.39295 0.0
H1415 H 0.73632 0.91693 0.40851 0.0
H1416 H 0.86249 0.87674 0.32263 0.0
H1417 H 0.88297 0.9139 0.33866 0.0
H1418 H 0.84023 0.82234 0.3302 0.0
H1419 H 0.79635 0.80406 0.3379 0.0
C1420 C 0.78064 0.07003 0.10221 0.0
C1421 C 0.78955 0.10765 0.10994 0.0
C1422 C 0.85409 0.08775 0.11907 0.0
C1423 C 0.84437 0.04969 0.1128 0.0
N1424 N 0.79736 0.00271 0.10237 0.0
N1425 N 0.83273 0.15224 0.12795 0.0
C1426 C 0.8074 0.04032 0.10533 0.0
C1427 C 0.82571 0.11649 0.11908 0.0
N1428 N 0.74653 0.06262 0.09196 0.0
N1429 N 0.89068 0.09658 0.12417 0.0
H1430 H 0.81329 0.1746 0.12704 0.0
H1431 H 0.85692 0.1593 0.13735 0.0
H1432 H 0.91201 0.07605 0.12455 0.0
H1433 H 0.90052 0.12444 0.12643 0.0
H1434 H 0.7402 0.03712 0.0833 0.0
H1435 H 0.72504 0.08283 0.09067 0.0
H1436 H 0.76983 -0.00641 0.09964 0.0
H1437 H 0.81603 -0.02004 0.10469 0.0
C1438 C 0.60682 0.05512 0.8813 0.0
C1439 C 0.59313 0.03939 0.85983 0.0
C1440 C 0.63205 0.08577 0.83869 0.0
C1441 C 0.65176 0.09483 0.85981 0.0
N1442 N 0.663 0.07687 0.90067 0.0
N1443 N 0.6028 0.03402 0.81754 0.0
C1444 C 0.6407 0.07639 0.88105 0.0
C1445 C 0.60849 0.05301 0.83827 0.0
N1446 N 0.58725 0.05118 0.90181 0.0
N1447 N 0.63435 0.10881 0.81928 0.0
H1448 H 0.58955 0.00746 0.81642 0.0
H1449 H 0.61599 0.04226 0.80194 0.0
H1450 H 0.64783 0.13535 0.81943 0.0
H1451 H 0.61831 0.10392 0.80417 0.0
H1452 H 0.59572 0.06447 0.91741 0.0
H1453 H 0.56029 0.03952 0.90251 0.0
H1454 H 0.65628 0.06141 0.91583 0.0
H1455 H 0.69026 0.08776 0.90081 0.0
C1456 C 0.82134 0.60638 0.85138 0.0
C1457 C 0.78489 0.59286 0.8454 0.0
C1458 C 0.80495 0.52671 0.85222 0.0
C1459 C 0.84013 0.5403 0.86045 0.0
N1460 N 0.88141 0.59267 0.87019 0.0
N1461 N 0.73952 0.54122 0.84534 0.0
C1462 C 0.84833 0.58009 0.86064 0.0
C1463 C 0.77602 0.55329 0.84719 0.0
N1464 N 0.83039 0.64396 0.84755 0.0
N1465 N 0.79943 0.48831 0.84865 0.0
H1466 H 0.71705 0.55989 0.8426 0.0
H1467 H 0.731 0.51327 0.84903 0.0
H1468 H 0.82011 0.46775 0.85192 0.0
H1469 H 0.77572 0.47719 0.84028 0.0
H1470 H 0.85749 0.65485 0.84933 0.0
H1471 H 0.81117 0.66383 0.8409 0.0
H1472 H 0.8875 0.62146 0.87317 0.0
H1473 H 0.90198 0.57394 0.87652 0.0
C1474 C 0.67124 0.56579 0.09931 0.0
C1475 C 0.6605 0.59869 0.11219 0.0
C1476 C 0.59421 0.58051 0.10828 0.0
C1477 C 0.60542 0.54511 0.09813 0.0
N1478 N 0.65556 0.50093 0.08834 0.0
N1479 N 0.61258 0.63665 0.13085 0.0
C1480 C 0.64418 0.53697 0.09461 0.0
C1481 C 0.62216 0.60592 0.11721 0.0
N1482 N 0.70737 0.56208 0.09149 0.0
N1483 N 0.55704 0.59041 0.10858 0.0
H1484 H 0.63229 0.65658 0.13685 0.0
H1485 H 0.58562 0.64108 0.13739 0.0
H1486 H 0.53596 0.57288 0.10169 0.0
H1487 H 0.54741 0.61734 0.11367 0.0
H1488 H 0.71584 0.54066 0.07988 0.0
H1489 H 0.7281 0.58256 0.09475 0.0
H1490 H 0.68363 0.49242 0.08823 0.0
H1491 H 0.63711 0.47818 0.0856 0.0
C1492 C 0.61513 0.33888 0.35918 0.0
C1493 C 0.65172 0.35223 0.35356 0.0
C1494 C 0.63087 0.41868 0.3573 0.0
C1495 C 0.59523 0.40558 0.36493 0.0
N1496 N 0.55376 0.35393 0.37563 0.0
N1497 N 0.6968 0.40422 0.35325 0.0
C1498 C 0.58734 0.3658 0.36657 0.0
C1499 C 0.66026 0.39196 0.35425 0.0
N1500 N 0.60678 0.30084 0.35681 0.0
N1501 N 0.6365 0.4567 0.35243 0.0
H1502 H 0.71968 0.38565 0.35204 0.0
H1503 H 0.70478 0.43255 0.35624 0.0
H1504 H 0.61574 0.47752 0.35447 0.0
H1505 H 0.66063 0.46705 0.34423 0.0
H1506 H 0.57975 0.28971 0.35841 0.0
H1507 H 0.62668 0.28058 0.35162 0.0
H1508 H 0.54762 0.32545 0.37955 0.0
H1509 H 0.53272 0.37311 0.3806 0.0
C1510 C 0.79755 0.41884 0.59761 0.0
C1511 C 0.83605 0.40847 0.59986 0.0
C1512 C 0.81771 0.34651 0.61693 0.0
C1513 C 0.77945 0.35621 0.61321 0.0
N1514 N 0.73293 0.39746 0.59544 0.0
N1515 N 0.8831 0.36054 0.6081 0.0
C1516 C 0.76942 0.39107 0.60206 0.0
C1517 C 0.84629 0.37171 0.60855 0.0
N1518 N 0.78768 0.45591 0.59262 0.0
N1519 N 0.8266 0.31381 0.629 0.0
H1520 H 0.90457 0.37826 0.60193 0.0
H1521 H 0.89203 0.33283 0.61202 0.0
H1522 H 0.80629 0.29431 0.63469 0.0
H1523 H 0.85371 0.30713 0.63462 0.0
H1524 H 0.76017 0.46598 0.59353 0.0
H1525 H 0.80716 0.47774 0.58986 0.0
H1526 H 0.72468 0.42049 0.58492 0.0
H1527 H 0.71134 0.37785 0.59852 0.0
C1528 C 0.14159 0.42727 0.11221 0.0
C1529 C 0.10409 0.41775 0.10601 0.0
C1530 C 0.1231 0.35168 0.09727 0.0
C1531 C 0.15984 0.36045 0.10545 0.0
N1532 N 0.20404 0.40532 0.12248 0.0
N1533 N 0.05756 0.37102 0.09473 0.0
C1534 C 0.16903 0.39786 0.11351 0.0
C1535 C 0.0944 0.38001 0.09894 0.0
N1536 N 0.15135 0.46481 0.11575 0.0
N1537 N 0.11578 0.31635 0.08789 0.0
H1538 H 0.03597 0.3912 0.09565 0.0
H1539 H 0.04786 0.34325 0.0919 0.0
H1540 H 0.13568 0.2944 0.08743 0.0
H1541 H 0.09085 0.30935 0.07928 0.0
H1542 H 0.17895 0.47429 0.11753 0.0
H1543 H 0.13208 0.48728 0.11494 0.0
H1544 H 0.21083 0.43032 0.13155 0.0
H1545 H 0.22609 0.38566 0.1221 0.0
C1546 C 0.35074 0.36787 0.87021 0.0
C1547 C 0.34333 0.40472 0.86072 0.0
C1548 C 0.27687 0.38842 0.85577 0.0
C1549 C 0.28504 0.35024 0.86279 0.0
N1550 N 0.32993 0.30192 0.8744 0.0
N1551 N 0.30074 0.44975 0.84245 0.0
C1552 C 0.322 0.3395 0.86959 0.0
C1553 C 0.30677 0.4149 0.85291 0.0
N1554 N 0.38511 0.36018 0.87996 0.0
N1555 N 0.24032 0.39977 0.85285 0.0
H1556 H 0.32147 0.47079 0.84102 0.0
H1557 H 0.27589 0.45696 0.83377 0.0
H1558 H 0.21752 0.38136 0.85519 0.0
H1559 H 0.23226 0.42816 0.85026 0.0
H1560 H 0.39107 0.33533 0.88943 0.0
H1561 H 0.40708 0.38001 0.88006 0.0
H1562 H 0.35705 0.29149 0.87696 0.0
H1563 H 0.30958 0.28039 0.87412 0.0
C1564 C 0.30376 0.53563 0.62017 0.0
C1565 C 0.33991 0.54544 0.61151 0.0
C1566 C 0.32001 0.61225 0.60626 0.0
C1567 C 0.28312 0.60172 0.61314 0.0
N1568 N 0.23789 0.55255 0.62278 0.0
N1569 N 0.38209 0.59147 0.59406 0.0
C1570 C 0.27448 0.56322 0.61922 0.0
C1571 C 0.34792 0.5833 0.60383 0.0
N1572 N 0.29733 0.49986 0.62925 0.0
N1573 N 0.32867 0.6501 0.60298 0.0
H1574 H 0.4039 0.57153 0.59317 0.0
H1575 H 0.38821 0.6172 0.58559 0.0
H1576 H 0.30892 0.67202 0.60473 0.0
H1577 H 0.35587 0.66019 0.60037 0.0
H1578 H 0.27314 0.49257 0.63851 0.0
H1579 H 0.31717 0.47789 0.62896 0.0
H1580 H 0.2292 0.52417 0.62447 0.0
H1581 H 0.21544 0.57171 0.62201 0.0
C1582 C 0.09434 0.58605 0.37835 0.0
C1583 C 0.09794 0.55216 0.36474 0.0
C1584 C 0.16193 0.57027 0.35362 0.0
C1585 C 0.15701 0.60593 0.36526 0.0
N1586 N 0.11789 0.65002 0.38672 0.0
N1587 N 0.13308 0.51311 0.33749 0.0
C1588 C 0.12309 0.61441 0.37723 0.0
C1589 C 0.13111 0.54465 0.35176 0.0
N1590 N 0.06362 0.59087 0.39246 0.0
N1591 N 0.19664 0.56011 0.34535 0.0
H1592 H 0.11199 0.49238 0.33658 0.0
H1593 H 0.15451 0.5087 0.32534 0.0
H1594 H 0.22021 0.57778 0.34667 0.0
H1595 H 0.20307 0.53283 0.33911 0.0
H1596 H 0.06111 0.61288 0.40472 0.0
H1597 H 0.04151 0.57123 0.39305 0.0
H1598 H 0.0924 0.65951 0.39351 0.0
H1599 H 0.13849 0.67131 0.3863 0.0
loop_
_geom_bond_atom_site_label_1
_geom_bond_atom_site_label_2
_geom_bond_distance
_geom_bond_site_symmetry_2
_ccdc_geom_bond_type
C0 O1 1.306 . S
C0 O3 1.160 . S
O1 C0 1.306 . S
O1 Cd2 2.228 . S
Cd2 O1 2.228 . S
Cd2 O6 2.273 . S
Cd2 O10 2.277 . S
O3 C0 1.160 . S
O3 Cd4 2.203 . S
Cd4 O3 2.203 . S
Cd4 O6 2.411 . S
Cd4 O7 2.333 . S
Cd4 O8 2.352 . S
Cd4 O12 2.277 . S
Cd4 O13 2.356 . S
C5 O10 1.209 . S
C5 O12 1.226 . S
O6 Cd2 2.273 . S
O6 Cd4 2.411 . S
O6 C9 1.320 . S
O7 Cd4 2.333 . S
O7 C9 1.214 . S
O8 Cd4 2.352 . S
O8 C11 1.258 . S
C9 O6 1.320 . S
C9 O7 1.214 . S
O10 Cd2 2.277 . S
O10 C5 1.209 . S
C11 O8 1.258 . S
C11 O13 1.282 . S
O12 Cd4 2.277 . S
O12 C5 1.226 . S
O13 Cd4 2.356 . S
O13 C11 1.282 . S
C14 O15 1.306 . S
C14 O17 1.160 . S
O15 C14 1.306 . S
O15 Cd16 2.228 . S
Cd16 O15 2.228 . S
Cd16 O20 2.273 . S
Cd16 O24 2.277 . S
O17 C14 1.160 . S
O17 Cd18 2.203 . S
Cd18 O17 2.203 . S
Cd18 O20 2.411 . S
Cd18 O21 2.333 . S
Cd18 O22 2.352 1_565 S
Cd18 O26 2.274 . S
Cd18 O27 2.356 1_565 S
C19 O24 1.209 1_655 S
C19 O26 1.227 1_655 S
O20 Cd16 2.273 . S
O20 Cd18 2.411 . S
O20 C23 1.320 . S
O21 Cd18 2.333 . S
O21 C23 1.214 . S
O22 Cd18 2.352 1_545 S
O22 C25 1.258 . S
C23 O20 1.320 . S
C23 O21 1.214 . S
O24 Cd16 2.277 . S
O24 C19 1.209 1_455 S
C25 O22 1.258 . S
C25 O27 1.282 . S
O26 Cd18 2.274 . S
O26 C19 1.227 1_455 S
O27 Cd18 2.356 1_545 S
O27 C25 1.282 . S
C28 O29 1.306 . S
C28 O31 1.160 . S
O29 C28 1.306 . S
O29 Cd30 2.228 . S
Cd30 O29 2.228 . S
Cd30 O34 2.273 . S
Cd30 O38 2.277 . S
O31 C28 1.160 . S
O31 Cd32 2.203 . S
Cd32 O31 2.203 . S
Cd32 O34 2.411 . S
Cd32 O35 2.333 . S
Cd32 O36 2.352 . S
Cd32 O40 2.277 . S
Cd32 O41 2.356 . S
C33 O38 1.209 . S
C33 O40 1.226 . S
O34 Cd30 2.273 . S
O34 Cd32 2.411 . S
O34 C37 1.320 . S
O35 Cd32 2.333 . S
O35 C37 1.214 . S
O36 Cd32 2.352 . S
O36 C39 1.258 . S
C37 O34 1.320 . S
C37 O35 1.214 . S
O38 Cd30 2.277 . S
O38 C33 1.209 . S
C39 O36 1.258 . S
C39 O41 1.282 . S
O40 Cd32 2.277 . S
O40 C33 1.226 . S
O41 Cd32 2.356 . S
O41 C39 1.282 . S
C42 O43 1.306 . S
C42 O45 1.160 . S
O43 C42 1.306 . S
O43 Cd44 2.228 . S
Cd44 O43 2.228 . S
Cd44 O48 2.273 . S
Cd44 O52 2.277 . S
O45 C42 1.160 . S
O45 Cd46 2.203 . S
Cd46 O45 2.203 . S
Cd46 O48 2.411 . S
Cd46 O49 2.333 . S
Cd46 O50 2.352 1_545 S
Cd46 O54 2.277 . S
Cd46 O55 2.356 1_545 S
C47 O52 1.209 . S
C47 O54 1.226 . S
O48 Cd44 2.273 . S
O48 Cd46 2.411 . S
O48 C51 1.320 . S
O49 Cd46 2.333 . S
O49 C51 1.214 . S
O50 Cd46 2.352 1_565 S
O50 C53 1.258 . S
C51 O48 1.320 . S
C51 O49 1.214 . S
O52 Cd44 2.277 . S
O52 C47 1.209 . S
C53 O50 1.258 . S
C53 O55 1.282 . S
O54 Cd46 2.277 . S
O54 C47 1.226 . S
O55 Cd46 2.356 1_565 S
O55 C53 1.282 . S
C56 O57 1.306 . S
C56 O59 1.160 . S
O57 C56 1.306 . S
O57 Cd58 2.228 . S
Cd58 O57 2.228 . S
Cd58 O62 2.273 . S
Cd58 O66 2.277 . S
O59 C56 1.160 . S
O59 Cd60 2.203 . S
Cd60 O59 2.203 . S
Cd60 O62 2.411 . S
Cd60 O63 2.333 . S
Cd60 O64 2.352 . S
Cd60 O68 2.277 . S
Cd60 O69 2.356 . S
C61 O66 1.209 . S
C61 O68 1.226 . S
O62 Cd58 2.273 . S
O62 Cd60 2.411 . S
O62 C65 1.320 . S
O63 Cd60 2.333 . S
O63 C65 1.214 . S
O64 Cd60 2.352 . S
O64 C67 1.258 . S
C65 O62 1.320 . S
C65 O63 1.214 . S
O66 Cd58 2.277 . S
O66 C61 1.209 . S
C67 O64 1.258 . S
C67 O69 1.282 . S
O68 Cd60 2.277 . S
O68 C61 1.226 . S
O69 Cd60 2.356 . S
O69 C67 1.282 . S
C70 O71 1.306 . S
C70 O73 1.160 . S
O71 C70 1.306 . S
O71 Cd72 2.228 . S
Cd72 O71 2.228 . S
Cd72 O76 2.273 . S
Cd72 O80 2.277 . S
O73 C70 1.160 . S
O73 Cd74 2.203 . S
Cd74 O73 2.203 . S
Cd74 O76 2.411 . S
Cd74 O77 2.333 . S
Cd74 O78 2.352 1_565 S
Cd74 O82 2.277 . S
Cd74 O83 2.356 1_565 S
C75 O80 1.209 . S
C75 O82 1.226 . S
O76 Cd72 2.273 . S
O76 Cd74 2.411 . S
O76 C79 1.320 . S
O77 Cd74 2.333 . S
O77 C79 1.214 . S
O78 Cd74 2.352 1_545 S
O78 C81 1.258 . S
C79 O76 1.320 . S
C79 O77 1.214 . S
O80 Cd72 2.277 . S
O80 C75 1.209 . S
C81 O78 1.258 . S
C81 O83 1.282 . S
O82 Cd74 2.277 . S
O82 C75 1.226 . S
O83 Cd74 2.356 1_545 S
O83 C81 1.282 . S
C84 O85 1.306 . S
C84 O87 1.160 . S
O85 C84 1.306 . S
O85 Cd86 2.228 . S
Cd86 O85 2.228 . S
Cd86 O90 2.273 . S
Cd86 O94 2.277 . S
O87 C84 1.160 . S
O87 Cd88 2.203 . S
Cd88 O87 2.203 . S
Cd88 O90 2.411 . S
Cd88 O91 2.333 . S
Cd88 O92 2.352 . S
Cd88 O96 2.277 . S
Cd88 O97 2.356 . S
C89 O94 1.209 . S
C89 O96 1.226 . S
O90 Cd86 2.273 . S
O90 Cd88 2.411 . S
O90 C93 1.320 . S
O91 Cd88 2.333 . S
O91 C93 1.214 . S
O92 Cd88 2.352 . S
O92 C95 1.258 . S
C93 O90 1.320 . S
C93 O91 1.214 . S
O94 Cd86 2.277 . S
O94 C89 1.209 . S
C95 O92 1.258 . S
C95 O97 1.282 . S
O96 Cd88 2.277 . S
O96 C89 1.226 . S
O97 Cd88 2.356 . S
O97 C95 1.282 . S
C98 O99 1.306 . S
C98 O101 1.160 . S
O99 C98 1.306 . S
O99 Cd100 2.228 . S
Cd100 O99 2.228 . S
Cd100 O104 2.273 . S
Cd100 O108 2.277 . S
O101 C98 1.160 . S
O101 Cd102 2.203 . S
Cd102 O101 2.203 . S
Cd102 O104 2.411 . S
Cd102 O105 2.333 . S
Cd102 O106 2.352 1_545 S
Cd102 O110 2.274 . S
Cd102 O111 2.356 1_545 S
C103 O108 1.209 1_655 S
C103 O110 1.227 1_655 S
O104 Cd100 2.273 . S
O104 Cd102 2.411 . S
O104 C107 1.320 . S
O105 Cd102 2.333 . S
O105 C107 1.214 . S
O106 Cd102 2.352 1_565 S
O106 C109 1.258 . S
C107 O104 1.320 . S
C107 O105 1.214 . S
O108 Cd100 2.277 . S
O108 C103 1.209 1_455 S
C109 O106 1.258 . S
C109 O111 1.282 . S
O110 Cd102 2.274 . S
O110 C103 1.227 1_455 S
O111 Cd102 2.356 1_565 S
O111 C109 1.282 . S
C112 O113 1.306 . S
C112 O115 1.160 . S
O113 C112 1.306 . S
O113 Cd114 2.228 . S
Cd114 O113 2.228 . S
Cd114 O118 2.273 . S
Cd114 O122 2.277 . S
O115 C112 1.160 . S
O115 Cd116 2.203 . S
Cd116 O115 2.203 . S
Cd116 O118 2.411 . S
Cd116 O119 2.333 . S
Cd116 O120 2.352 . S
Cd116 O124 2.277 . S
Cd116 O125 2.356 . S
C117 O122 1.209 . S
C117 O124 1.226 . S
O118 Cd114 2.273 . S
O118 Cd116 2.411 . S
O118 C121 1.320 . S
O119 Cd116 2.333 . S
O119 C121 1.214 . S
O120 Cd116 2.352 . S
O120 C123 1.258 . S
C121 O118 1.320 . S
C121 O119 1.214 . S
O122 Cd114 2.277 . S
O122 C117 1.209 . S
C123 O120 1.258 . S
C123 O125 1.282 . S
O124 Cd116 2.277 . S
O124 C117 1.226 . S
O125 Cd116 2.356 . S
O125 C123 1.282 . S
C126 O127 1.306 . S
C126 O129 1.160 . S
O127 C126 1.306 . S
O127 Cd128 2.228 1_565 S
Cd128 O127 2.228 1_545 S
Cd128 O132 2.273 . S
Cd128 O136 2.277 . S
O129 C126 1.160 . S
O129 Cd130 2.203 1_565 S
Cd130 O129 2.203 1_545 S
Cd130 O132 2.411 . S
Cd130 O133 2.333 1_655 S
Cd130 O134 2.352 1_545 S
Cd130 O138 2.277 . S
Cd130 O139 2.356 . S
C131 O136 1.209 . S
C131 O138 1.226 . S
O132 Cd128 2.273 . S
O132 Cd130 2.411 . S
O132 C135 1.320 1_655 S
O133 Cd130 2.333 1_455 S
O133 C135 1.214 . S
O134 Cd130 2.352 1_565 S
O134 C137 1.258 1_565 S
C135 O132 1.320 1_455 S
C135 O133 1.214 . S
O136 Cd128 2.277 . S
O136 C131 1.209 . S
C137 O134 1.258 1_545 S
C137 O139 1.282 . S
O138 Cd130 2.277 . S
O138 C131 1.226 . S
O139 Cd130 2.356 . S
O139 C137 1.282 . S
C140 O141 1.306 . S
C140 O143 1.160 . S
O141 C140 1.306 . S
O141 Cd142 2.228 . S
Cd142 O141 2.228 . S
Cd142 O146 2.273 . S
Cd142 O150 2.277 . S
O143 C140 1.160 . S
O143 Cd144 2.203 . S
Cd144 O143 2.203 . S
Cd144 O146 2.411 . S
Cd144 O147 2.333 . S
Cd144 O148 2.352 . S
Cd144 O152 2.277 . S
Cd144 O153 2.356 . S
C145 O150 1.209 . S
C145 O152 1.226 . S
O146 Cd142 2.273 . S
O146 Cd144 2.411 . S
O146 C149 1.320 . S
O147 Cd144 2.333 . S
O147 C149 1.214 . S
O148 Cd144 2.352 . S
O148 C151 1.258 . S
C149 O146 1.320 . S
C149 O147 1.214 . S
O150 Cd142 2.277 . S
O150 C145 1.209 . S
C151 O148 1.258 . S
C151 O153 1.282 . S
O152 Cd144 2.277 . S
O152 C145 1.226 . S
O153 Cd144 2.356 . S
O153 C151 1.282 . S
C154 O155 1.306 . S
C154 O157 1.160 . S
O155 C154 1.306 . S
O155 Cd156 2.228 1_545 S
Cd156 O155 2.228 1_565 S
Cd156 O160 2.273 . S
Cd156 O164 2.277 . S
O157 C154 1.160 . S
O157 Cd158 2.203 1_545 S
Cd158 O157 2.203 1_565 S
Cd158 O160 2.411 . S
Cd158 O161 2.333 . S
Cd158 O162 2.352 1_565 S
Cd158 O166 2.277 . S
Cd158 O167 2.356 . S
C159 O164 1.209 . S
C159 O166 1.226 . S
O160 Cd156 2.273 . S
O160 Cd158 2.411 . S
O160 C163 1.320 . S
O161 Cd158 2.333 . S
O161 C163 1.214 . S
O162 Cd158 2.352 1_545 S
O162 C165 1.258 1_545 S
C163 O160 1.320 . S
C163 O161 1.214 . S
O164 Cd156 2.277 . S
O164 C159 1.209 . S
C165 O162 1.258 1_565 S
C165 O167 1.282 . S
O166 Cd158 2.277 . S
O166 C159 1.226 . S
O167 Cd158 2.356 . S
O167 C165 1.282 . S
C168 O169 1.306 . S
C168 O171 1.160 . S
O169 C168 1.306 . S
O169 Cd170 2.228 . S
Cd170 O169 2.228 . S
Cd170 O174 2.273 . S
Cd170 O178 2.277 . S
O171 C168 1.160 . S
O171 Cd172 2.203 . S
Cd172 O171 2.203 . S
Cd172 O174 2.411 . S
Cd172 O175 2.333 . S
Cd172 O176 2.352 . S
Cd172 O180 2.277 . S
Cd172 O181 2.356 . S
C173 O178 1.209 . S
C173 O180 1.226 . S
O174 Cd170 2.273 . S
O174 Cd172 2.411 . S
O174 C177 1.320 . S
O175 Cd172 2.333 . S
O175 C177 1.214 . S
O176 Cd172 2.352 . S
O176 C179 1.258 . S
C177 O174 1.320 . S
C177 O175 1.214 . S
O178 Cd170 2.277 . S
O178 C173 1.209 . S
C179 O176 1.258 . S
C179 O181 1.282 . S
O180 Cd172 2.277 . S
O180 C173 1.226 . S
O181 Cd172 2.356 . S
O181 C179 1.282 . S
C182 O183 1.306 . S
C182 O185 1.160 . S
O183 C182 1.306 . S
O183 Cd184 2.228 1_565 S
Cd184 O183 2.228 1_545 S
Cd184 O188 2.273 . S
Cd184 O192 2.277 . S
O185 C182 1.160 . S
O185 Cd186 2.203 1_565 S
Cd186 O185 2.203 1_545 S
Cd186 O188 2.411 . S
Cd186 O189 2.333 . S
Cd186 O190 2.352 1_545 S
Cd186 O194 2.277 . S
Cd186 O195 2.356 . S
C187 O192 1.209 . S
C187 O194 1.226 . S
O188 Cd184 2.273 . S
O188 Cd186 2.411 . S
O188 C191 1.320 . S
O189 Cd186 2.333 . S
O189 C191 1.214 . S
O190 Cd186 2.352 1_565 S
O190 C193 1.258 1_565 S
C191 O188 1.320 . S
C191 O189 1.214 . S
O192 Cd184 2.277 . S
O192 C187 1.209 . S
C193 O190 1.258 1_545 S
C193 O195 1.282 . S
O194 Cd186 2.277 . S
O194 C187 1.226 . S
O195 Cd186 2.356 . S
O195 C193 1.282 . S
C196 O197 1.306 . S
C196 O199 1.160 . S
O197 C196 1.306 . S
O197 Cd198 2.228 . S
Cd198 O197 2.228 . S
Cd198 O202 2.273 . S
Cd198 O206 2.277 . S
O199 C196 1.160 . S
O199 Cd200 2.203 . S
Cd200 O199 2.203 . S
Cd200 O202 2.411 . S
Cd200 O203 2.333 . S
Cd200 O204 2.352 . S
Cd200 O208 2.277 . S
Cd200 O209 2.356 . S
C201 O206 1.209 . S
C201 O208 1.226 . S
O202 Cd198 2.273 . S
O202 Cd200 2.411 . S
O202 C205 1.320 . S
O203 Cd200 2.333 . S
O203 C205 1.214 . S
O204 Cd200 2.352 . S
O204 C207 1.258 . S
C205 O202 1.320 . S
C205 O203 1.214 . S
O206 Cd198 2.277 . S
O206 C201 1.209 . S
C207 O204 1.258 . S
C207 O209 1.282 . S
O208 Cd200 2.277 . S
O208 C201 1.226 . S
O209 Cd200 2.356 . S
O209 C207 1.282 . S
C210 O211 1.306 . S
C210 O213 1.160 . S
O211 C210 1.306 . S
O211 Cd212 2.228 1_545 S
Cd212 O211 2.228 1_565 S
Cd212 O216 2.273 . S
Cd212 O220 2.277 . S
O213 C210 1.160 . S
O213 Cd214 2.203 1_545 S
Cd214 O213 2.203 1_565 S
Cd214 O216 2.411 . S
Cd214 O217 2.333 1_655 S
Cd214 O218 2.352 1_565 S
Cd214 O222 2.277 . S
Cd214 O223 2.356 . S
C215 O220 1.209 . S
C215 O222 1.226 . S
O216 Cd212 2.273 . S
O216 Cd214 2.411 . S
O216 C219 1.320 1_655 S
O217 Cd214 2.333 1_455 S
O217 C219 1.214 . S
O218 Cd214 2.352 1_545 S
O218 C221 1.258 1_545 S
C219 O216 1.320 1_455 S
C219 O217 1.214 . S
O220 Cd212 2.277 . S
O220 C215 1.209 . S
C221 O218 1.258 1_565 S
C221 O223 1.282 . S
O222 Cd214 2.277 . S
O222 C215 1.226 . S
O223 Cd214 2.356 . S
O223 C221 1.282 . S
C224 O225 1.306 . S
C224 O227 1.160 . S
O225 C224 1.306 . S
O225 Cd226 2.228 . S
Cd226 O225 2.228 . S
Cd226 O230 2.273 . S
Cd226 O234 2.277 . S
O227 C224 1.160 . S
O227 Cd228 2.203 . S
Cd228 O227 2.203 . S
Cd228 O230 2.411 . S
Cd228 O231 2.333 . S
Cd228 O232 2.352 . S
Cd228 O236 2.277 . S
Cd228 O237 2.356 . S
C229 O234 1.209 . S
C229 O236 1.226 . S
O230 Cd226 2.273 . S
O230 Cd228 2.411 . S
O230 C233 1.320 . S
O231 Cd228 2.333 . S
O231 C233 1.214 . S
O232 Cd228 2.352 . S
O232 C235 1.258 . S
C233 O230 1.320 . S
C233 O231 1.214 . S
O234 Cd226 2.277 . S
O234 C229 1.209 . S
C235 O232 1.258 . S
C235 O237 1.282 . S
O236 Cd228 2.277 . S
O236 C229 1.226 . S
O237 Cd228 2.356 . S
O237 C235 1.282 . S
C238 O239 1.306 . S
C238 O241 1.160 . S
O239 C238 1.306 . S
O239 Cd240 2.228 . S
Cd240 O239 2.228 . S
Cd240 O244 2.273 . S
Cd240 O248 2.277 . S
O241 C238 1.160 . S
O241 Cd242 2.203 . S
Cd242 O241 2.203 . S
Cd242 O244 2.411 . S
Cd242 O245 2.333 . S
Cd242 O246 2.352 . S
Cd242 O250 2.277 . S
Cd242 O251 2.356 . S
C243 O248 1.209 . S
C243 O250 1.226 . S
O244 Cd240 2.273 . S
O244 Cd242 2.411 . S
O244 C247 1.320 . S
O245 Cd242 2.333 . S
O245 C247 1.214 . S
O246 Cd242 2.352 . S
O246 C249 1.258 . S
C247 O244 1.320 . S
C247 O245 1.214 . S
O248 Cd240 2.277 . S
O248 C243 1.209 . S
C249 O246 1.258 . S
C249 O251 1.282 . S
O250 Cd242 2.277 . S
O250 C243 1.226 . S
O251 Cd242 2.356 . S
O251 C249 1.282 . S
C252 O253 1.306 . S
C252 O255 1.160 . S
O253 C252 1.306 . S
O253 Cd254 2.228 . S
Cd254 O253 2.228 . S
Cd254 O258 2.273 . S
Cd254 O262 2.277 . S
O255 C252 1.160 . S
O255 Cd256 2.203 . S
Cd256 O255 2.203 . S
Cd256 O258 2.411 . S
Cd256 O259 2.333 . S
Cd256 O260 2.352 . S
Cd256 O264 2.277 . S
Cd256 O265 2.356 . S
C257 O262 1.209 . S
C257 O264 1.226 . S
O258 Cd254 2.273 . S
O258 Cd256 2.411 . S
O258 C261 1.320 . S
O259 Cd256 2.333 . S
O259 C261 1.214 . S
O260 Cd256 2.352 . S
O260 C263 1.258 . S
C261 O258 1.320 . S
C261 O259 1.214 . S
O262 Cd254 2.277 . S
O262 C257 1.209 . S
C263 O260 1.258 . S
C263 O265 1.282 . S
O264 Cd256 2.277 . S
O264 C257 1.226 . S
O265 Cd256 2.356 . S
O265 C263 1.282 . S
C266 O267 1.306 . S
C266 O269 1.160 . S
O267 C266 1.306 . S
O267 Cd268 2.228 . S
Cd268 O267 2.228 . S
Cd268 O272 2.273 . S
Cd268 O276 2.277 . S
O269 C266 1.160 . S
O269 Cd270 2.203 . S
Cd270 O269 2.203 . S
Cd270 O272 2.411 . S
Cd270 O273 2.333 . S
Cd270 O274 2.352 . S
Cd270 O278 2.274 . S
Cd270 O279 2.356 . S
C271 O276 1.209 1_455 S
C271 O278 1.227 1_455 S
O272 Cd268 2.273 . S
O272 Cd270 2.411 . S
O272 C275 1.320 . S
O273 Cd270 2.333 . S
O273 C275 1.214 . S
O274 Cd270 2.352 . S
O274 C277 1.258 . S
C275 O272 1.320 . S
C275 O273 1.214 . S
O276 Cd268 2.277 . S
O276 C271 1.209 1_655 S
C277 O274 1.258 . S
C277 O279 1.282 . S
O278 Cd270 2.274 . S
O278 C271 1.227 1_655 S
O279 Cd270 2.356 . S
O279 C277 1.282 . S
C280 O281 1.306 . S
C280 O283 1.160 . S
O281 C280 1.306 . S
O281 Cd282 2.228 . S
Cd282 O281 2.228 . S
Cd282 O286 2.273 . S
Cd282 O290 2.277 . S
O283 C280 1.160 . S
O283 Cd284 2.203 . S
Cd284 O283 2.203 . S
Cd284 O286 2.411 . S
Cd284 O287 2.333 . S
Cd284 O288 2.352 . S
Cd284 O292 2.277 . S
Cd284 O293 2.356 . S
C285 O290 1.209 . S
C285 O292 1.226 . S
O286 Cd282 2.273 . S
O286 Cd284 2.411 . S
O286 C289 1.320 . S
O287 Cd284 2.333 . S
O287 C289 1.214 . S
O288 Cd284 2.352 . S
O288 C291 1.258 . S
C289 O286 1.320 . S
C289 O287 1.214 . S
O290 Cd282 2.277 . S
O290 C285 1.209 . S
C291 O288 1.258 . S
C291 O293 1.282 . S
O292 Cd284 2.277 . S
O292 C285 1.226 . S
O293 Cd284 2.356 . S
O293 C291 1.282 . S
C294 O295 1.306 . S
C294 O297 1.160 . S
O295 C294 1.306 . S
O295 Cd296 2.228 . S
Cd296 O295 2.228 . S
Cd296 O300 2.273 . S
Cd296 O304 2.277 . S
O297 C294 1.160 . S
O297 Cd298 2.203 . S
Cd298 O297 2.203 . S
Cd298 O300 2.411 . S
Cd298 O301 2.333 . S
Cd298 O302 2.352 . S
Cd298 O306 2.274 . S
Cd298 O307 2.356 . S
C299 O304 1.209 1_455 S
C299 O306 1.227 1_455 S
O300 Cd296 2.273 . S
O300 Cd298 2.411 . S
O300 C303 1.320 . S
O301 Cd298 2.333 . S
O301 C303 1.214 . S
O302 Cd298 2.352 . S
O302 C305 1.258 . S
C303 O300 1.320 . S
C303 O301 1.214 . S
O304 Cd296 2.277 . S
O304 C299 1.209 1_655 S
C305 O302 1.258 . S
C305 O307 1.282 . S
O306 Cd298 2.274 . S
O306 C299 1.227 1_655 S
O307 Cd298 2.356 . S
O307 C305 1.282 . S
C308 O309 1.306 . S
C308 O311 1.160 . S
O309 C308 1.306 . S
O309 Cd310 2.228 . S
Cd310 O309 2.228 . S
Cd310 O314 2.273 . S
Cd310 O318 2.277 . S
O311 C308 1.160 . S
O311 Cd312 2.203 . S
Cd312 O311 2.203 . S
Cd312 O314 2.411 . S
Cd312 O315 2.333 . S
Cd312 O316 2.352 . S
Cd312 O320 2.277 . S
Cd312 O321 2.356 . S
C313 O318 1.209 . S
C313 O320 1.226 . S
O314 Cd310 2.273 . S
O314 Cd312 2.411 . S
O314 C317 1.320 . S
O315 Cd312 2.333 . S
O315 C317 1.214 . S
O316 Cd312 2.352 . S
O316 C319 1.258 . S
C317 O314 1.320 . S
C317 O315 1.214 . S
O318 Cd310 2.277 . S
O318 C313 1.209 . S
C319 O316 1.258 . S
C319 O321 1.282 . S
O320 Cd312 2.277 . S
O320 C313 1.226 . S
O321 Cd312 2.356 . S
O321 C319 1.282 . S
C322 O323 1.306 . S
C322 O325 1.160 . S
O323 C322 1.306 . S
O323 Cd324 2.228 . S
Cd324 O323 2.228 . S
Cd324 O328 2.273 . S
Cd324 O332 2.277 . S
O325 C322 1.160 . S
O325 Cd326 2.203 . S
Cd326 O325 2.203 . S
Cd326 O328 2.411 . S
Cd326 O329 2.333 . S
Cd326 O330 2.352 . S
Cd326 O334 2.277 . S
Cd326 O335 2.356 . S
C327 O332 1.209 . S
C327 O334 1.226 . S
O328 Cd324 2.273 . S
O328 Cd326 2.411 . S
O328 C331 1.320 . S
O329 Cd326 2.333 . S
O329 C331 1.214 . S
O330 Cd326 2.352 . S
O330 C333 1.258 . S
C331 O328 1.320 . S
C331 O329 1.214 . S
O332 Cd324 2.277 . S
O332 C327 1.209 . S
C333 O330 1.258 . S
C333 O335 1.282 . S
O334 Cd326 2.277 . S
O334 C327 1.226 . S
O335 Cd326 2.356 . S
O335 C333 1.282 . S
C336 O337 1.306 . S
C336 O339 1.160 . S
O337 C336 1.306 . S
O337 Cd338 2.228 . S
Cd338 O337 2.228 . S
Cd338 O342 2.273 . S
Cd338 O346 2.277 . S
O339 C336 1.160 . S
O339 Cd340 2.203 . S
Cd340 O339 2.203 . S
Cd340 O342 2.411 . S
Cd340 O343 2.333 . S
Cd340 O344 2.352 . S
Cd340 O348 2.277 . S
Cd340 O349 2.356 . S
C341 O346 1.209 . S
C341 O348 1.226 . S
O342 Cd338 2.273 . S
O342 Cd340 2.411 . S
O342 C345 1.320 . S
O343 Cd340 2.333 . S
O343 C345 1.214 . S
O344 Cd340 2.352 . S
O344 C347 1.258 . S
C345 O342 1.320 . S
C345 O343 1.214 . S
O346 Cd338 2.277 . S
O346 C341 1.209 . S
C347 O344 1.258 . S
C347 O349 1.282 . S
O348 Cd340 2.277 . S
O348 C341 1.226 . S
O349 Cd340 2.356 . S
O349 C347 1.282 . S
C350 O351 1.306 . S
C350 O353 1.160 . S
O351 C350 1.306 . S
O351 Cd352 2.228 . S
Cd352 O351 2.228 . S
Cd352 O356 2.273 . S
Cd352 O360 2.277 . S
O353 C350 1.160 . S
O353 Cd354 2.203 . S
Cd354 O353 2.203 . S
Cd354 O356 2.411 . S
Cd354 O357 2.333 . S
Cd354 O358 2.352 . S
Cd354 O362 2.277 . S
Cd354 O363 2.356 . S
C355 O360 1.209 . S
C355 O362 1.226 . S
O356 Cd352 2.273 . S
O356 Cd354 2.411 . S
O356 C359 1.320 . S
O357 Cd354 2.333 . S
O357 C359 1.214 . S
O358 Cd354 2.352 . S
O358 C361 1.258 . S
C359 O356 1.320 . S
C359 O357 1.214 . S
O360 Cd352 2.277 . S
O360 C355 1.209 . S
C361 O358 1.258 . S
C361 O363 1.282 . S
O362 Cd354 2.277 . S
O362 C355 1.226 . S
O363 Cd354 2.356 . S
O363 C361 1.282 . S
C364 O365 1.306 . S
C364 O367 1.160 . S
O365 C364 1.306 . S
O365 Cd366 2.228 . S
Cd366 O365 2.228 . S
Cd366 O370 2.273 . S
Cd366 O374 2.277 . S
O367 C364 1.160 . S
O367 Cd368 2.203 . S
Cd368 O367 2.203 . S
Cd368 O370 2.411 . S
Cd368 O371 2.333 . S
Cd368 O372 2.352 . S
Cd368 O376 2.277 . S
Cd368 O377 2.356 . S
C369 O374 1.209 . S
C369 O376 1.226 . S
O370 Cd366 2.273 . S
O370 Cd368 2.411 . S
O370 C373 1.320 . S
O371 Cd368 2.333 . S
O371 C373 1.214 . S
O372 Cd368 2.352 . S
O372 C375 1.258 . S
C373 O370 1.320 . S
C373 O371 1.214 . S
O374 Cd366 2.277 . S
O374 C369 1.209 . S
C375 O372 1.258 . S
C375 O377 1.282 . S
O376 Cd368 2.277 . S
O376 C369 1.226 . S
O377 Cd368 2.356 . S
O377 C375 1.282 . S
C378 O379 1.306 . S
C378 O381 1.160 . S
O379 C378 1.306 . S
O379 Cd380 2.228 . S
Cd380 O379 2.228 . S
Cd380 O384 2.273 . S
Cd380 O388 2.277 . S
O381 C378 1.160 . S
O381 Cd382 2.203 . S
Cd382 O381 2.203 . S
Cd382 O384 2.411 . S
Cd382 O385 2.333 1_455 S
Cd382 O386 2.352 . S
Cd382 O390 2.277 . S
Cd382 O391 2.356 . S
C383 O388 1.209 . S
C383 O390 1.226 . S
O384 Cd380 2.273 . S
O384 Cd382 2.411 . S
O384 C387 1.320 1_455 S
O385 Cd382 2.333 1_655 S
O385 C387 1.214 . S
O386 Cd382 2.352 . S
O386 C389 1.258 . S
C387 O384 1.320 1_655 S
C387 O385 1.214 . S
O388 Cd380 2.277 . S
O388 C383 1.209 . S
C389 O386 1.258 . S
C389 O391 1.282 . S
O390 Cd382 2.277 . S
O390 C383 1.226 . S
O391 Cd382 2.356 . S
O391 C389 1.282 . S
C392 O393 1.306 . S
C392 O395 1.160 . S
O393 C392 1.306 . S
O393 Cd394 2.228 . S
Cd394 O393 2.228 . S
Cd394 O398 2.273 . S
Cd394 O402 2.277 . S
O395 C392 1.160 . S
O395 Cd396 2.203 . S
Cd396 O395 2.203 . S
Cd396 O398 2.411 . S
Cd396 O399 2.333 . S
Cd396 O400 2.352 . S
Cd396 O404 2.277 . S
Cd396 O405 2.356 . S
C397 O402 1.209 . S
C397 O404 1.226 . S
O398 Cd394 2.273 . S
O398 Cd396 2.411 . S
O398 C401 1.320 . S
O399 Cd396 2.333 . S
O399 C401 1.214 . S
O400 Cd396 2.352 . S
O400 C403 1.258 . S
C401 O398 1.320 . S
C401 O399 1.214 . S
O402 Cd394 2.277 . S
O402 C397 1.209 . S
C403 O400 1.258 . S
C403 O405 1.282 . S
O404 Cd396 2.277 . S
O404 C397 1.226 . S
O405 Cd396 2.356 . S
O405 C403 1.282 . S
C406 O407 1.306 . S
C406 O409 1.160 . S
O407 C406 1.306 . S
O407 Cd408 2.228 . S
Cd408 O407 2.228 . S
Cd408 O412 2.273 . S
Cd408 O416 2.277 . S
O409 C406 1.160 . S
O409 Cd410 2.203 . S
Cd410 O409 2.203 . S
Cd410 O412 2.411 . S
Cd410 O413 2.333 1_455 S
Cd410 O414 2.352 . S
Cd410 O418 2.277 . S
Cd410 O419 2.356 . S
C411 O416 1.209 . S
C411 O418 1.226 . S
O412 Cd408 2.273 . S
O412 Cd410 2.411 . S
O412 C415 1.320 1_455 S
O413 Cd410 2.333 1_655 S
O413 C415 1.214 . S
O414 Cd410 2.352 . S
O414 C417 1.258 . S
C415 O412 1.320 1_655 S
C415 O413 1.214 . S
O416 Cd408 2.277 . S
O416 C411 1.209 . S
C417 O414 1.258 . S
C417 O419 1.282 . S
O418 Cd410 2.277 . S
O418 C411 1.226 . S
O419 Cd410 2.356 . S
O419 C417 1.282 . S
C420 O421 1.306 . S
C420 O423 1.160 . S
O421 C420 1.306 . S
O421 Cd422 2.228 . S
Cd422 O421 2.228 . S
Cd422 O426 2.273 . S
Cd422 O430 2.277 . S
O423 C420 1.160 . S
O423 Cd424 2.203 . S
Cd424 O423 2.203 . S
Cd424 O426 2.411 . S
Cd424 O427 2.333 . S
Cd424 O428 2.352 . S
Cd424 O432 2.277 . S
Cd424 O433 2.356 . S
C425 O430 1.209 . S
C425 O432 1.226 . S
O426 Cd422 2.273 . S
O426 Cd424 2.411 . S
O426 C429 1.320 . S
O427 Cd424 2.333 . S
O427 C429 1.214 . S
O428 Cd424 2.352 . S
O428 C431 1.258 . S
C429 O426 1.320 . S
C429 O427 1.214 . S
O430 Cd422 2.277 . S
O430 C425 1.209 . S
C431 O428 1.258 . S
C431 O433 1.282 . S
O432 Cd424 2.277 . S
O432 C425 1.226 . S
O433 Cd424 2.356 . S
O433 C431 1.282 . S
C434 O435 1.306 . S
C434 O437 1.160 . S
O435 C434 1.306 . S
O435 Cd436 2.228 . S
Cd436 O435 2.228 . S
Cd436 O440 2.273 . S
Cd436 O444 2.277 . S
O437 C434 1.160 . S
O437 Cd438 2.203 . S
Cd438 O437 2.203 . S
Cd438 O440 2.411 . S
Cd438 O441 2.333 . S
Cd438 O442 2.352 . S
Cd438 O446 2.277 . S
Cd438 O447 2.356 . S
C439 O444 1.209 . S
C439 O446 1.226 . S
O440 Cd436 2.273 . S
O440 Cd438 2.411 . S
O440 C443 1.320 . S
O441 Cd438 2.333 . S
O441 C443 1.214 . S
O442 Cd438 2.352 . S
O442 C445 1.258 . S
C443 O440 1.320 . S
C443 O441 1.214 . S
O444 Cd436 2.277 . S
O444 C439 1.209 . S
C445 O442 1.258 . S
C445 O447 1.282 . S
O446 Cd438 2.277 . S
O446 C439 1.226 . S
O447 Cd438 2.356 . S
O447 C445 1.282 . S
C448 C449 1.363 . S
C448 C454 1.379 . S
C448 N456 1.356 . S
C449 C448 1.363 . S
C449 C455 1.363 . S
C450 C451 1.363 . S
C450 C455 1.379 . S
C450 N457 1.356 . S
C451 C450 1.363 . S
C451 C454 1.363 . S
N452 C454 1.356 . S
N452 H464 0.984 . S
N452 H465 0.985 . S
N453 C455 1.356 . S
N453 H458 0.984 . S
N453 H459 0.985 . S
C454 C448 1.379 . S
C454 C451 1.363 . S
C454 N452 1.356 . S
C455 C449 1.363 . S
C455 C450 1.379 . S
C455 N453 1.356 . S
N456 C448 1.356 . S
N456 H462 0.984 . S
N456 H463 0.984 . S
N457 C450 1.356 . S
N457 H460 0.984 . S
N457 H461 0.985 . S
H458 N453 0.984 . S
H459 N453 0.985 . S
H460 N457 0.984 . S
H461 N457 0.985 . S
H462 N456 0.984 . S
H463 N456 0.984 . S
H464 N452 0.984 . S
H465 N452 0.985 . S
C466 C467 1.363 . S
C466 C472 1.379 . S
C466 N474 1.356 . S
C467 C466 1.363 . S
C467 C473 1.363 . S
C468 C469 1.363 . S
C468 C473 1.379 . S
C468 N475 1.356 . S
C469 C468 1.363 . S
C469 C472 1.363 . S
N470 C472 1.356 . S
N470 H482 0.984 . S
N470 H483 0.985 . S
N471 C473 1.356 . S
N471 H476 0.984 . S
N471 H477 0.985 . S
C472 C466 1.379 . S
C472 C469 1.363 . S
C472 N470 1.356 . S
C473 C467 1.363 . S
C473 C468 1.379 . S
C473 N471 1.356 . S
N474 C466 1.356 . S
N474 H480 0.984 . S
N474 H481 0.984 . S
N475 C468 1.356 . S
N475 H478 0.984 . S
N475 H479 0.985 . S
H476 N471 0.984 . S
H477 N471 0.985 . S
H478 N475 0.984 . S
H479 N475 0.985 . S
H480 N474 0.984 . S
H481 N474 0.984 . S
H482 N470 0.984 . S
H483 N470 0.985 . S
C484 C485 1.363 . S
C484 C490 1.379 . S
C484 N492 1.356 . S
C485 C484 1.363 . S
C485 C491 1.363 . S
C486 C487 1.363 . S
C486 C491 1.379 . S
C486 N493 1.356 . S
C487 C486 1.363 . S
C487 C490 1.363 . S
N488 C490 1.356 . S
N488 H500 0.984 . S
N488 H501 0.985 . S
N489 C491 1.356 . S
N489 H494 0.984 . S
N489 H495 0.985 . S
C490 C484 1.379 . S
C490 C487 1.363 . S
C490 N488 1.356 . S
C491 C485 1.363 . S
C491 C486 1.379 . S
C491 N489 1.356 . S
N492 C484 1.356 . S
N492 H498 0.984 . S
N492 H499 0.984 . S
N493 C486 1.356 . S
N493 H496 0.984 . S
N493 H497 0.985 . S
H494 N489 0.984 . S
H495 N489 0.985 . S
H496 N493 0.984 . S
H497 N493 0.985 . S
H498 N492 0.984 . S
H499 N492 0.984 . S
H500 N488 0.984 . S
H501 N488 0.985 . S
C502 C503 1.363 . S
C502 C508 1.379 . S
C502 N510 1.356 . S
C503 C502 1.363 . S
C503 C509 1.363 . S
C504 C505 1.363 . S
C504 C509 1.379 . S
C504 N511 1.356 . S
C505 C504 1.363 . S
C505 C508 1.363 . S
N506 C508 1.356 . S
N506 H518 0.984 . S
N506 H519 0.985 . S
N507 C509 1.356 . S
N507 H512 0.984 . S
N507 H513 0.985 . S
C508 C502 1.379 . S
C508 C505 1.363 . S
C508 N506 1.356 . S
C509 C503 1.363 . S
C509 C504 1.379 . S
C509 N507 1.356 . S
N510 C502 1.356 . S
N510 H516 0.984 . S
N510 H517 0.984 . S
N511 C504 1.356 . S
N511 H514 0.984 . S
N511 H515 0.985 . S
H512 N507 0.984 . S
H513 N507 0.985 . S
H514 N511 0.984 . S
H515 N511 0.985 . S
H516 N510 0.984 . S
H517 N510 0.984 . S
H518 N506 0.984 . S
H519 N506 0.985 . S
C520 C521 1.363 . S
C520 C526 1.379 . S
C520 N528 1.356 . S
C521 C520 1.363 . S
C521 C527 1.363 . S
C522 C523 1.363 . S
C522 C527 1.379 . S
C522 N529 1.356 . S
C523 C522 1.363 . S
C523 C526 1.363 . S
N524 C526 1.356 . S
N524 H536 0.984 . S
N524 H537 0.985 . S
N525 C527 1.356 . S
N525 H530 0.984 . S
N525 H531 0.985 . S
C526 C520 1.379 . S
C526 C523 1.363 . S
C526 N524 1.356 . S
C527 C521 1.363 . S
C527 C522 1.379 . S
C527 N525 1.356 . S
N528 C520 1.356 . S
N528 H534 0.984 . S
N528 H535 0.984 . S
N529 C522 1.356 . S
N529 H532 0.984 . S
N529 H533 0.985 . S
H530 N525 0.984 . S
H531 N525 0.985 . S
H532 N529 0.984 . S
H533 N529 0.985 . S
H534 N528 0.984 . S
H535 N528 0.984 . S
H536 N524 0.984 . S
H537 N524 0.985 . S
C538 C539 1.363 . S
C538 C544 1.379 . S
C538 N546 1.356 . S
C539 C538 1.363 . S
C539 C545 1.363 . S
C540 C541 1.363 . S
C540 C545 1.379 . S
C540 N547 1.356 . S
C541 C540 1.363 . S
C541 C544 1.363 . S
N542 C544 1.356 . S
N542 H554 0.984 . S
N542 H555 0.985 . S
N543 C545 1.356 . S
N543 H548 0.984 . S
N543 H549 0.985 . S
C544 C538 1.379 . S
C544 C541 1.363 . S
C544 N542 1.356 . S
C545 C539 1.363 . S
C545 C540 1.379 . S
C545 N543 1.356 . S
N546 C538 1.356 . S
N546 H552 0.984 . S
N546 H553 0.984 . S
N547 C540 1.356 . S
N547 H550 0.984 . S
N547 H551 0.985 . S
H548 N543 0.984 . S
H549 N543 0.985 . S
H550 N547 0.984 . S
H551 N547 0.985 . S
H552 N546 0.984 . S
H553 N546 0.984 . S
H554 N542 0.984 . S
H555 N542 0.985 . S
C556 C557 1.363 . S
C556 C562 1.379 . S
C556 N564 1.356 . S
C557 C556 1.363 . S
C557 C563 1.363 . S
C558 C559 1.363 . S
C558 C563 1.379 . S
C558 N565 1.356 . S
C559 C558 1.363 . S
C559 C562 1.363 . S
N560 C562 1.356 . S
N560 H572 0.984 . S
N560 H573 0.985 . S
N561 C563 1.356 . S
N561 H566 0.984 . S
N561 H567 0.985 . S
C562 C556 1.379 . S
C562 C559 1.363 . S
C562 N560 1.356 . S
C563 C557 1.363 . S
C563 C558 1.379 . S
C563 N561 1.356 . S
N564 C556 1.356 . S
N564 H570 0.984 . S
N564 H571 0.984 . S
N565 C558 1.356 . S
N565 H568 0.984 . S
N565 H569 0.985 . S
H566 N561 0.984 . S
H567 N561 0.985 . S
H568 N565 0.984 . S
H569 N565 0.985 . S
H570 N564 0.984 . S
H571 N564 0.984 . S
H572 N560 0.984 . S
H573 N560 0.985 . S
C574 C575 1.363 . S
C574 C580 1.379 . S
C574 N582 1.356 . S
C575 C574 1.363 . S
C575 C581 1.363 . S
C576 C577 1.363 . S
C576 C581 1.379 . S
C576 N583 1.356 . S
C577 C576 1.363 . S
C577 C580 1.363 . S
N578 C580 1.356 . S
N578 H590 0.984 . S
N578 H591 0.985 . S
N579 C581 1.356 . S
N579 H584 0.984 . S
N579 H585 0.985 . S
C580 C574 1.379 . S
C580 C577 1.363 . S
C580 N578 1.356 . S
C581 C575 1.363 . S
C581 C576 1.379 . S
C581 N579 1.356 . S
N582 C574 1.356 . S
N582 H588 0.984 . S
N582 H589 0.984 . S
N583 C576 1.356 . S
N583 H586 0.984 . S
N583 H587 0.985 . S
H584 N579 0.984 . S
H585 N579 0.985 . S
H586 N583 0.984 . S
H587 N583 0.985 . S
H588 N582 0.984 . S
H589 N582 0.984 . S
H590 N578 0.984 . S
H591 N578 0.985 . S
C592 C593 1.363 . S
C592 C598 1.379 . S
C592 N600 1.356 . S
C593 C592 1.363 . S
C593 C599 1.363 . S
C594 C595 1.363 . S
C594 C599 1.379 . S
C594 N601 1.356 . S
C595 C594 1.363 . S
C595 C598 1.363 . S
N596 C598 1.356 . S
N596 H608 0.984 . S
N596 H609 0.985 . S
N597 C599 1.356 . S
N597 H602 0.984 . S
N597 H603 0.985 . S
C598 C592 1.379 . S
C598 C595 1.363 . S
C598 N596 1.356 . S
C599 C593 1.363 . S
C599 C594 1.379 . S
C599 N597 1.356 . S
N600 C592 1.356 . S
N600 H606 0.984 . S
N600 H607 0.984 . S
N601 C594 1.356 . S
N601 H604 0.984 . S
N601 H605 0.985 . S
H602 N597 0.984 . S
H603 N597 0.985 . S
H604 N601 0.984 . S
H605 N601 0.985 . S
H606 N600 0.984 . S
H607 N600 0.984 . S
H608 N596 0.984 . S
H609 N596 0.985 . S
C610 C611 1.363 . S
C610 C616 1.379 . S
C610 N618 1.356 . S
C611 C610 1.363 . S
C611 C617 1.363 . S
C612 C613 1.363 . S
C612 C617 1.379 . S
C612 N619 1.356 . S
C613 C612 1.363 . S
C613 C616 1.363 . S
N614 C616 1.356 . S
N614 H626 0.984 1_455 S
N614 H627 0.985 1_455 S
N615 C617 1.356 . S
N615 H620 0.984 . S
N615 H621 0.985 . S
C616 C610 1.379 . S
C616 C613 1.363 . S
C616 N614 1.356 . S
C617 C611 1.363 . S
C617 C612 1.379 . S
C617 N615 1.356 . S
N618 C610 1.356 . S
N618 H624 0.984 . S
N618 H625 0.984 . S
N619 C612 1.356 . S
N619 H622 0.984 . S
N619 H623 0.985 . S
H620 N615 0.984 . S
H621 N615 0.985 . S
H622 N619 0.984 . S
H623 N619 0.985 . S
H624 N618 0.984 . S
H625 N618 0.984 . S
H626 N614 0.984 1_655 S
H627 N614 0.985 1_655 S
C628 C629 1.363 . S
C628 C634 1.379 . S
C628 N636 1.356 . S
C629 C628 1.363 . S
C629 C635 1.363 . S
C630 C631 1.363 . S
C630 C635 1.379 . S
C630 N637 1.356 . S
C631 C630 1.363 . S
C631 C634 1.363 . S
N632 C634 1.356 . S
N632 H644 0.984 . S
N632 H645 0.985 . S
N633 C635 1.356 . S
N633 H638 0.984 . S
N633 H639 0.985 . S
C634 C628 1.379 . S
C634 C631 1.363 . S
C634 N632 1.356 . S
C635 C629 1.363 . S
C635 C630 1.379 . S
C635 N633 1.356 . S
N636 C628 1.356 . S
N636 H642 0.984 . S
N636 H643 0.984 . S
N637 C630 1.356 . S
N637 H640 0.984 . S
N637 H641 0.985 . S
H638 N633 0.984 . S
H639 N633 0.985 . S
H640 N637 0.984 . S
H641 N637 0.985 . S
H642 N636 0.984 . S
H643 N636 0.984 . S
H644 N632 0.984 . S
H645 N632 0.985 . S
C646 C647 1.363 . S
C646 C652 1.379 . S
C646 N654 1.356 . S
C647 C646 1.363 . S
C647 C653 1.363 . S
C648 C649 1.363 . S
C648 C653 1.379 . S
C648 N655 1.356 . S
C649 C648 1.363 . S
C649 C652 1.363 . S
N650 C652 1.356 . S
N650 H662 0.984 . S
N650 H663 0.985 . S
N651 C653 1.356 . S
N651 H656 0.984 . S
N651 H657 0.985 . S
C652 C646 1.379 . S
C652 C649 1.363 . S
C652 N650 1.356 . S
C653 C647 1.363 . S
C653 C648 1.379 . S
C653 N651 1.356 . S
N654 C646 1.356 . S
N654 H660 0.995 . S
N654 H661 0.984 . S
N655 C648 1.356 . S
N655 H658 0.984 . S
N655 H659 0.985 . S
H656 N651 0.984 . S
H657 N651 0.985 . S
H658 N655 0.984 . S
H659 N655 0.985 . S
H660 N654 0.995 . S
H661 N654 0.984 . S
H662 N650 0.984 . S
H663 N650 0.985 . S
C664 C665 1.363 . S
C664 C670 1.379 . S
C664 N672 1.356 . S
C665 C664 1.363 . S
C665 C671 1.363 . S
C666 C667 1.363 . S
C666 C671 1.379 . S
C666 N673 1.356 . S
C667 C666 1.363 . S
C667 C670 1.363 . S
N668 C670 1.356 . S
N668 H680 0.984 . S
N668 H681 0.985 . S
N669 C671 1.356 . S
N669 H674 0.984 . S
N669 H675 0.985 . S
C670 C664 1.379 . S
C670 C667 1.363 . S
C670 N668 1.356 . S
C671 C665 1.363 . S
C671 C666 1.379 . S
C671 N669 1.356 . S
N672 C664 1.356 . S
N672 H678 0.984 . S
N672 H679 0.984 . S
N673 C666 1.356 . S
N673 H676 0.984 . S
N673 H677 0.985 . S
H674 N669 0.984 . S
H675 N669 0.985 . S
H676 N673 0.984 . S
H677 N673 0.985 . S
H678 N672 0.984 . S
H679 N672 0.984 . S
H680 N668 0.984 . S
H681 N668 0.985 . S
C682 C683 1.363 . S
C682 C688 1.379 . S
C682 N690 1.356 . S
C683 C682 1.363 . S
C683 C689 1.363 . S
C684 C685 1.363 . S
C684 C689 1.379 . S
C684 N691 1.356 . S
C685 C684 1.363 . S
C685 C688 1.363 . S
N686 C688 1.356 . S
N686 H698 0.984 . S
N686 H699 0.985 . S
N687 C689 1.356 . S
N687 H692 0.984 . S
N687 H693 0.985 . S
C688 C682 1.379 . S
C688 C685 1.363 . S
C688 N686 1.356 . S
C689 C683 1.363 . S
C689 C684 1.379 . S
C689 N687 1.356 . S
N690 C682 1.356 . S
N690 H696 0.984 . S
N690 H697 0.984 . S
N691 C684 1.356 . S
N691 H694 0.984 . S
N691 H695 0.985 . S
H692 N687 0.984 . S
H693 N687 0.985 . S
H694 N691 0.984 . S
H695 N691 0.985 . S
H696 N690 0.984 . S
H697 N690 0.984 . S
H698 N686 0.984 . S
H699 N686 0.985 . S
C700 C701 1.363 . S
C700 C706 1.379 . S
C700 N708 1.356 . S
C701 C700 1.363 . S
C701 C707 1.363 . S
C702 C703 1.363 . S
C702 C707 1.379 . S
C702 N709 1.356 . S
C703 C702 1.363 . S
C703 C706 1.363 . S
N704 C706 1.356 . S
N704 H716 0.984 . S
N704 H717 0.985 . S
N705 C707 1.356 . S
N705 H710 0.984 . S
N705 H711 0.985 . S
C706 C700 1.379 . S
C706 C703 1.363 . S
C706 N704 1.356 . S
C707 C701 1.363 . S
C707 C702 1.379 . S
C707 N705 1.356 . S
N708 C700 1.356 . S
N708 H714 0.984 . S
N708 H715 0.984 . S
N709 C702 1.356 . S
N709 H712 0.984 . S
N709 H713 0.985 . S
H710 N705 0.984 . S
H711 N705 0.985 . S
H712 N709 0.984 . S
H713 N709 0.985 . S
H714 N708 0.984 . S
H715 N708 0.984 . S
H716 N704 0.984 . S
H717 N704 0.985 . S
C718 C719 1.363 . S
C718 C724 1.379 . S
C718 N726 1.356 . S
C719 C718 1.363 . S
C719 C725 1.363 . S
C720 C721 1.363 . S
C720 C725 1.379 . S
C720 N727 1.356 . S
C721 C720 1.363 . S
C721 C724 1.363 . S
N722 C724 1.356 . S
N722 H734 0.984 . S
N722 H735 0.985 . S
N723 C725 1.356 . S
N723 H728 0.984 . S
N723 H729 0.985 . S
C724 C718 1.379 . S
C724 C721 1.363 . S
C724 N722 1.356 . S
C725 C719 1.363 . S
C725 C720 1.379 . S
C725 N723 1.356 . S
N726 C718 1.356 . S
N726 H732 0.984 . S
N726 H733 0.984 . S
N727 C720 1.356 . S
N727 H730 0.984 . S
N727 H731 0.985 . S
H728 N723 0.984 . S
H729 N723 0.985 . S
H730 N727 0.984 . S
H731 N727 0.985 . S
H732 N726 0.984 . S
H733 N726 0.984 . S
H734 N722 0.984 . S
H735 N722 0.985 . S
C736 C737 1.363 . S
C736 C742 1.379 . S
C736 N744 1.356 . S
C737 C736 1.363 . S
C737 C743 1.363 . S
C738 C739 1.363 . S
C738 C743 1.379 . S
C738 N745 1.356 . S
C739 C738 1.363 . S
C739 C742 1.363 . S
N740 C742 1.356 . S
N740 H752 0.984 . S
N740 H753 0.985 . S
N741 C743 1.356 . S
N741 H746 0.984 . S
N741 H747 0.985 . S
C742 C736 1.379 . S
C742 C739 1.363 . S
C742 N740 1.356 . S
C743 C737 1.363 . S
C743 C738 1.379 . S
C743 N741 1.356 . S
N744 C736 1.356 . S
N744 H750 0.984 . S
N744 H751 0.984 . S
N745 C738 1.356 . S
N745 H748 0.984 . S
N745 H749 0.985 . S
H746 N741 0.984 . S
H747 N741 0.985 . S
H748 N745 0.984 . S
H749 N745 0.985 . S
H750 N744 0.984 . S
H751 N744 0.984 . S
H752 N740 0.984 . S
H753 N740 0.985 . S
C754 C755 1.363 . S
C754 C760 1.379 . S
C754 N762 1.356 . S
C755 C754 1.363 . S
C755 C761 1.363 . S
C756 C757 1.363 . S
C756 C761 1.379 . S
C756 N763 1.356 . S
C757 C756 1.363 . S
C757 C760 1.363 . S
N758 C760 1.356 . S
N758 H770 0.984 . S
N758 H771 0.985 . S
N759 C761 1.356 . S
N759 H764 0.984 . S
N759 H765 0.985 . S
C760 C754 1.379 . S
C760 C757 1.363 . S
C760 N758 1.356 . S
C761 C755 1.363 . S
C761 C756 1.379 . S
C761 N759 1.356 . S
N762 C754 1.356 . S
N762 H768 0.984 . S
N762 H769 0.984 . S
N763 C756 1.356 . S
N763 H766 0.984 . S
N763 H767 0.985 . S
H764 N759 0.984 . S
H765 N759 0.985 . S
H766 N763 0.984 . S
H767 N763 0.985 . S
H768 N762 0.984 . S
H769 N762 0.984 . S
H770 N758 0.984 . S
H771 N758 0.985 . S
C772 C773 1.363 . S
C772 C778 1.379 . S
C772 N780 1.356 . S
C773 C772 1.363 . S
C773 C779 1.363 . S
C774 C775 1.363 . S
C774 C779 1.379 . S
C774 N781 1.356 . S
C775 C774 1.363 . S
C775 C778 1.363 . S
N776 C778 1.356 . S
N776 H788 0.984 . S
N776 H789 0.985 . S
N777 C779 1.356 . S
N777 H782 0.984 . S
N777 H783 0.985 . S
C778 C772 1.379 . S
C778 C775 1.363 . S
C778 N776 1.356 . S
C779 C773 1.363 . S
C779 C774 1.379 . S
C779 N777 1.356 . S
N780 C772 1.356 . S
N780 H786 0.984 . S
N780 H787 0.984 . S
N781 C774 1.356 . S
N781 H784 0.984 . S
N781 H785 0.985 . S
H782 N777 0.984 . S
H783 N777 0.985 . S
H784 N781 0.984 . S
H785 N781 0.985 . S
H786 N780 0.984 . S
H787 N780 0.984 . S
H788 N776 0.984 . S
H789 N776 0.985 . S
C790 C791 1.363 . S
C790 C796 1.379 . S
C790 N798 1.356 . S
C791 C790 1.363 . S
C791 C797 1.363 . S
C792 C793 1.363 . S
C792 C797 1.379 . S
C792 N799 1.356 . S
C793 C792 1.363 . S
C793 C796 1.363 . S
N794 C796 1.356 . S
N794 H806 0.984 . S
N794 H807 0.985 . S
N795 C797 1.356 . S
N795 H800 0.984 . S
N795 H801 0.985 . S
C796 C790 1.379 . S
C796 C793 1.363 . S
C796 N794 1.356 . S
C797 C791 1.363 . S
C797 C792 1.379 . S
C797 N795 1.356 . S
N798 C790 1.356 . S
N798 H804 0.984 . S
N798 H805 0.984 . S
N799 C792 1.356 . S
N799 H802 0.984 . S
N799 H803 0.985 . S
H800 N795 0.984 . S
H801 N795 0.985 . S
H802 N799 0.984 . S
H803 N799 0.985 . S
H804 N798 0.984 . S
H805 N798 0.984 . S
H806 N794 0.984 . S
H807 N794 0.985 . S
C808 C809 1.363 . S
C808 C814 1.379 . S
C808 N816 1.356 . S
C809 C808 1.363 . S
C809 C815 1.363 . S
C810 C811 1.363 . S
C810 C815 1.379 . S
C810 N817 1.356 . S
C811 C810 1.363 . S
C811 C814 1.363 . S
N812 C814 1.356 . S
N812 H824 0.984 . S
N812 H825 0.985 . S
N813 C815 1.356 . S
N813 H818 0.984 . S
N813 H819 0.985 . S
C814 C808 1.379 . S
C814 C811 1.363 . S
C814 N812 1.356 . S
C815 C809 1.363 . S
C815 C810 1.379 . S
C815 N813 1.356 . S
N816 C808 1.356 . S
N816 H822 0.984 . S
N816 H823 0.984 . S
N817 C810 1.356 . S
N817 H820 0.984 . S
N817 H821 0.985 . S
H818 N813 0.984 . S
H819 N813 0.985 . S
H820 N817 0.984 . S
H821 N817 0.985 . S
H822 N816 0.984 . S
H823 N816 0.984 . S
H824 N812 0.984 . S
H825 N812 0.985 . S
C826 C827 1.363 . S
C826 C832 1.379 . S
C826 N834 1.356 . S
C827 C826 1.363 . S
C827 C833 1.363 . S
C828 C829 1.363 . S
C828 C833 1.379 . S
C828 N835 1.356 . S
C829 C828 1.363 . S
C829 C832 1.363 . S
N830 C832 1.356 . S
N830 H842 0.984 . S
N830 H843 0.985 . S
N831 C833 1.356 . S
N831 H836 0.984 . S
N831 H837 0.985 . S
C832 C826 1.379 . S
C832 C829 1.363 . S
C832 N830 1.356 . S
C833 C827 1.363 . S
C833 C828 1.379 . S
C833 N831 1.356 . S
N834 C826 1.356 . S
N834 H840 0.984 . S
N834 H841 0.984 . S
N835 C828 1.356 . S
N835 H838 0.984 . S
N835 H839 0.985 . S
H836 N831 0.984 . S
H837 N831 0.985 . S
H838 N835 0.984 . S
H839 N835 0.985 . S
H840 N834 0.984 . S
H841 N834 0.984 . S
H842 N830 0.984 . S
H843 N830 0.985 . S
C844 C845 1.363 . S
C844 C850 1.379 . S
C844 N852 1.356 . S
C845 C844 1.363 . S
C845 C851 1.363 . S
C846 C847 1.363 . S
C846 C851 1.379 . S
C846 N853 1.356 . S
C847 C846 1.363 . S
C847 C850 1.363 . S
N848 C850 1.356 . S
N848 H860 0.984 . S
N848 H861 0.985 . S
N849 C851 1.356 . S
N849 H854 0.984 . S
N849 H855 0.985 . S
C850 C844 1.379 . S
C850 C847 1.363 . S
C850 N848 1.356 . S
C851 C845 1.363 . S
C851 C846 1.379 . S
C851 N849 1.356 . S
N852 C844 1.356 . S
N852 H858 0.984 . S
N852 H859 0.984 . S
N853 C846 1.356 . S
N853 H856 0.984 . S
N853 H857 0.985 . S
H854 N849 0.984 . S
H855 N849 0.985 . S
H856 N853 0.984 . S
H857 N853 0.985 . S
H858 N852 0.984 . S
H859 N852 0.984 . S
H860 N848 0.984 . S
H861 N848 0.985 . S
C862 C863 1.363 . S
C862 C868 1.379 . S
C862 N870 1.356 . S
C863 C862 1.363 . S
C863 C869 1.363 . S
C864 C865 1.363 . S
C864 C869 1.379 . S
C864 N871 1.356 . S
C865 C864 1.363 . S
C865 C868 1.363 . S
N866 C868 1.356 . S
N866 H878 0.984 . S
N866 H879 0.985 . S
N867 C869 1.356 . S
N867 H872 0.984 . S
N867 H873 0.985 . S
C868 C862 1.379 . S
C868 C865 1.363 . S
C868 N866 1.356 . S
C869 C863 1.363 . S
C869 C864 1.379 . S
C869 N867 1.356 . S
N870 C862 1.356 . S
N870 H876 0.984 . S
N870 H877 0.984 . S
N871 C864 1.356 . S
N871 H874 0.984 . S
N871 H875 0.985 . S
H872 N867 0.984 . S
H873 N867 0.985 . S
H874 N871 0.984 . S
H875 N871 0.985 . S
H876 N870 0.984 . S
H877 N870 0.984 . S
H878 N866 0.984 . S
H879 N866 0.985 . S
C880 C881 1.363 . S
C880 C886 1.379 . S
C880 N888 1.356 . S
C881 C880 1.363 . S
C881 C887 1.363 . S
C882 C883 1.363 . S
C882 C887 1.379 . S
C882 N889 1.356 . S
C883 C882 1.363 . S
C883 C886 1.363 . S
N884 C886 1.356 . S
N884 H896 0.984 . S
N884 H897 0.985 . S
N885 C887 1.356 . S
N885 H890 0.984 . S
N885 H891 0.985 . S
C886 C880 1.379 . S
C886 C883 1.363 . S
C886 N884 1.356 . S
C887 C881 1.363 . S
C887 C882 1.379 . S
C887 N885 1.356 . S
N888 C880 1.356 . S
N888 H894 0.984 . S
N888 H895 0.984 . S
N889 C882 1.356 . S
N889 H892 0.984 . S
N889 H893 0.985 . S
H890 N885 0.984 . S
H891 N885 0.985 . S
H892 N889 0.984 . S
H893 N889 0.985 . S
H894 N888 0.984 . S
H895 N888 0.984 . S
H896 N884 0.984 . S
H897 N884 0.985 . S
C898 C899 1.363 . S
C898 C904 1.379 . S
C898 N906 1.356 . S
C899 C898 1.363 . S
C899 C905 1.363 . S
C900 C901 1.363 . S
C900 C905 1.379 . S
C900 N907 1.356 . S
C901 C900 1.363 . S
C901 C904 1.363 . S
N902 C904 1.356 . S
N902 H914 0.984 . S
N902 H915 0.985 . S
N903 C905 1.356 . S
N903 H908 0.984 . S
N903 H909 0.985 . S
C904 C898 1.379 . S
C904 C901 1.363 . S
C904 N902 1.356 . S
C905 C899 1.363 . S
C905 C900 1.379 . S
C905 N903 1.356 . S
N906 C898 1.356 . S
N906 H912 0.984 . S
N906 H913 0.984 . S
N907 C900 1.356 . S
N907 H910 0.984 . S
N907 H911 0.985 . S
H908 N903 0.984 . S
H909 N903 0.985 . S
H910 N907 0.984 . S
H911 N907 0.985 . S
H912 N906 0.984 . S
H913 N906 0.984 . S
H914 N902 0.984 . S
H915 N902 0.985 . S
C916 C917 1.363 . S
C916 C922 1.379 . S
C916 N924 1.356 . S
C917 C916 1.363 . S
C917 C923 1.363 . S
C918 C919 1.363 . S
C918 C923 1.379 . S
C918 N925 1.356 . S
C919 C918 1.363 . S
C919 C922 1.363 . S
N920 C922 1.356 . S
N920 H932 0.984 . S
N920 H933 0.985 . S
N921 C923 1.356 . S
N921 H926 0.984 . S
N921 H927 0.985 . S
C922 C916 1.379 . S
C922 C919 1.363 . S
C922 N920 1.356 . S
C923 C917 1.363 . S
C923 C918 1.379 . S
C923 N921 1.356 . S
N924 C916 1.356 . S
N924 H930 0.984 . S
N924 H931 0.984 . S
N925 C918 1.356 . S
N925 H928 0.984 . S
N925 H929 0.985 . S
H926 N921 0.984 . S
H927 N921 0.985 . S
H928 N925 0.984 . S
H929 N925 0.985 . S
H930 N924 0.984 . S
H931 N924 0.984 . S
H932 N920 0.984 . S
H933 N920 0.985 . S
C934 C935 1.363 . S
C934 C940 1.379 . S
C934 N942 1.356 . S
C935 C934 1.363 . S
C935 C941 1.363 . S
C936 C937 1.363 . S
C936 C941 1.379 . S
C936 N943 1.356 . S
C937 C936 1.363 . S
C937 C940 1.363 . S
N938 C940 1.356 . S
N938 H950 0.984 . S
N938 H951 0.985 . S
N939 C941 1.356 . S
N939 H944 0.984 . S
N939 H945 0.985 . S
C940 C934 1.379 . S
C940 C937 1.363 . S
C940 N938 1.356 . S
C941 C935 1.363 . S
C941 C936 1.379 . S
C941 N939 1.356 . S
N942 C934 1.356 . S
N942 H948 0.984 . S
N942 H949 0.984 . S
N943 C936 1.356 . S
N943 H946 0.984 . S
N943 H947 0.985 . S
H944 N939 0.984 . S
H945 N939 0.985 . S
H946 N943 0.984 . S
H947 N943 0.985 . S
H948 N942 0.984 . S
H949 N942 0.984 . S
H950 N938 0.984 . S
H951 N938 0.985 . S
C952 C953 1.363 . S
C952 C958 1.379 . S
C952 N960 1.356 . S
C953 C952 1.363 . S
C953 C959 1.363 . S
C954 C955 1.363 . S
C954 C959 1.379 . S
C954 N961 1.356 . S
C955 C954 1.363 . S
C955 C958 1.363 . S
N956 C958 1.356 . S
N956 H968 0.984 . S
N956 H969 0.985 . S
N957 C959 1.356 . S
N957 H962 0.984 . S
N957 H963 0.985 . S
C958 C952 1.379 . S
C958 C955 1.363 . S
C958 N956 1.356 . S
C959 C953 1.363 . S
C959 C954 1.379 . S
C959 N957 1.356 . S
N960 C952 1.356 . S
N960 H966 0.984 . S
N960 H967 0.984 . S
N961 C954 1.356 . S
N961 H964 0.984 . S
N961 H965 0.985 . S
H962 N957 0.984 . S
H963 N957 0.985 . S
H964 N961 0.984 . S
H965 N961 0.985 . S
H966 N960 0.984 . S
H967 N960 0.984 . S
H968 N956 0.984 . S
H969 N956 0.985 . S
C970 C971 1.363 . S
C970 C976 1.379 . S
C970 N978 1.356 . S
C971 C970 1.363 . S
C971 C977 1.363 . S
C972 C973 1.363 . S
C972 C977 1.379 . S
C972 N979 1.356 . S
C973 C972 1.363 . S
C973 C976 1.363 . S
N974 C976 1.356 . S
N974 H986 0.984 . S
N974 H987 0.985 . S
N975 C977 1.356 . S
N975 H980 0.984 . S
N975 H981 0.985 . S
C976 C970 1.379 . S
C976 C973 1.363 . S
C976 N974 1.356 . S
C977 C971 1.363 . S
C977 C972 1.379 . S
C977 N975 1.356 . S
N978 C970 1.356 . S
N978 H984 0.984 . S
N978 H985 0.984 1_655 S
N979 C972 1.356 . S
N979 H982 0.984 . S
N979 H983 0.985 . S
H980 N975 0.984 . S
H981 N975 0.985 . S
H982 N979 0.984 . S
H983 N979 0.985 . S
H984 N978 0.984 . S
H985 N978 0.984 1_455 S
H986 N974 0.984 . S
H987 N974 0.985 . S
C988 C989 1.363 . S
C988 C994 1.379 . S
C988 N996 1.356 . S
C989 C988 1.363 . S
C989 C995 1.363 . S
C990 C991 1.363 . S
C990 C995 1.379 . S
C990 N997 1.356 . S
C991 C990 1.363 . S
C991 C994 1.363 . S
N992 C994 1.356 . S
N992 H1004 0.984 . S
N992 H1005 0.985 . S
N993 C995 1.356 . S
N993 H998 0.984 . S
N993 H999 0.985 . S
C994 C988 1.379 . S
C994 C991 1.363 . S
C994 N992 1.356 . S
C995 C989 1.363 . S
C995 C990 1.379 . S
C995 N993 1.356 . S
N996 C988 1.356 . S
N996 H1002 0.984 . S
N996 H1003 0.984 . S
N997 C990 1.356 . S
N997 H1000 0.984 . S
N997 H1001 0.985 . S
H998 N993 0.984 . S
H999 N993 0.985 . S
H1000 N997 0.984 . S
H1001 N997 0.985 . S
H1002 N996 0.984 . S
H1003 N996 0.984 . S
H1004 N992 0.984 . S
H1005 N992 0.985 . S
C1006 C1007 1.363 . S
C1006 C1012 1.379 . S
C1006 N1014 1.356 . S
C1007 C1006 1.363 . S
C1007 C1013 1.363 . S
C1008 C1009 1.363 . S
C1008 C1013 1.379 . S
C1008 N1015 1.356 . S
C1009 C1008 1.363 . S
C1009 C1012 1.363 . S
N1010 C1012 1.356 . S
N1010 H1022 0.984 . S
N1010 H1023 0.985 . S
N1011 C1013 1.356 . S
N1011 H1016 0.984 . S
N1011 H1017 0.985 . S
C1012 C1006 1.379 . S
C1012 C1009 1.363 . S
C1012 N1010 1.356 . S
C1013 C1007 1.363 . S
C1013 C1008 1.379 . S
C1013 N1011 1.356 . S
N1014 C1006 1.356 . S
N1014 H1020 0.984 . S
N1014 H1021 0.984 . S
N1015 C1008 1.356 . S
N1015 H1018 0.984 . S
N1015 H1019 0.985 . S
H1016 N1011 0.984 . S
H1017 N1011 0.985 . S
H1018 N1015 0.984 . S
H1019 N1015 0.985 . S
H1020 N1014 0.984 . S
H1021 N1014 0.984 . S
H1022 N1010 0.984 . S
H1023 N1010 0.985 . S
C1024 C1025 1.363 . S
C1024 C1030 1.379 . S
C1024 N1032 1.356 . S
C1025 C1024 1.363 . S
C1025 C1031 1.363 . S
C1026 C1027 1.363 . S
C1026 C1031 1.379 . S
C1026 N1033 1.356 . S
C1027 C1026 1.363 . S
C1027 C1030 1.363 . S
N1028 C1030 1.356 . S
N1028 H1040 0.984 . S
N1028 H1041 0.985 . S
N1029 C1031 1.356 . S
N1029 H1034 0.984 . S
N1029 H1035 0.985 . S
C1030 C1024 1.379 . S
C1030 C1027 1.363 . S
C1030 N1028 1.356 . S
C1031 C1025 1.363 . S
C1031 C1026 1.379 . S
C1031 N1029 1.356 . S
N1032 C1024 1.356 . S
N1032 H1038 0.984 . S
N1032 H1039 0.984 . S
N1033 C1026 1.356 . S
N1033 H1036 0.984 . S
N1033 H1037 0.985 . S
H1034 N1029 0.984 . S
H1035 N1029 0.985 . S
H1036 N1033 0.984 . S
H1037 N1033 0.985 . S
H1038 N1032 0.984 . S
H1039 N1032 0.984 . S
H1040 N1028 0.984 . S
H1041 N1028 0.985 . S
C1042 C1043 1.363 . S
C1042 C1048 1.379 . S
C1042 N1050 1.356 . S
C1043 C1042 1.363 . S
C1043 C1049 1.363 1_465 S
C1044 C1045 1.363 1_545 S
C1044 C1049 1.379 . S
C1044 N1051 1.356 . S
C1045 C1044 1.363 1_565 S
C1045 C1048 1.363 1_655 S
N1046 C1048 1.356 . S
N1046 H1058 0.984 . S
N1046 H1059 0.985 1_455 S
N1047 C1049 1.356 . S
N1047 H1052 0.984 1_655 S
N1047 H1053 0.985 . S
C1048 C1042 1.379 . S
C1048 C1045 1.363 1_455 S
C1048 N1046 1.356 . S
C1049 C1043 1.363 1_645 S
C1049 C1044 1.379 . S
C1049 N1047 1.356 . S
N1050 C1042 1.356 . S
N1050 H1056 0.984 . S
N1050 H1057 0.984 . S
N1051 C1044 1.356 . S
N1051 H1054 0.984 . S
N1051 H1055 0.985 . S
H1052 N1047 0.984 1_455 S
H1053 N1047 0.985 . S
H1054 N1051 0.984 . S
H1055 N1051 0.985 . S
H1056 N1050 0.984 . S
H1057 N1050 0.984 . S
H1058 N1046 0.984 . S
H1059 N1046 0.985 1_655 S
C1060 C1061 1.363 . S
C1060 C1066 1.379 . S
C1060 N1068 1.356 . S
C1061 C1060 1.363 . S
C1061 C1067 1.363 . S
C1062 C1063 1.363 . S
C1062 C1067 1.379 . S
C1062 N1069 1.356 . S
C1063 C1062 1.363 . S
C1063 C1066 1.363 . S
N1064 C1066 1.356 . S
N1064 H1076 0.984 . S
N1064 H1077 0.985 . S
N1065 C1067 1.356 . S
N1065 H1070 0.984 . S
N1065 H1071 0.985 . S
C1066 C1060 1.379 . S
C1066 C1063 1.363 . S
C1066 N1064 1.356 . S
C1067 C1061 1.363 . S
C1067 C1062 1.379 . S
C1067 N1065 1.356 . S
N1068 C1060 1.356 . S
N1068 H1074 0.984 . S
N1068 H1075 0.984 . S
N1069 C1062 1.356 . S
N1069 H1072 0.984 . S
N1069 H1073 0.985 . S
H1070 N1065 0.984 . S
H1071 N1065 0.985 . S
H1072 N1069 0.984 . S
H1073 N1069 0.985 . S
H1074 N1068 0.984 . S
H1075 N1068 0.984 . S
H1076 N1064 0.984 . S
H1077 N1064 0.985 . S
C1078 C1079 1.363 . S
C1078 C1084 1.379 1_554 S
C1078 N1086 1.356 . S
C1079 C1078 1.363 . S
C1079 C1085 1.363 1_545 S
C1080 C1081 1.363 1_565 S
C1080 C1085 1.379 1_556 S
C1080 N1087 1.356 . S
C1081 C1080 1.363 1_545 S
C1081 C1084 1.363 . S
N1082 C1084 1.356 . S
N1082 H1094 0.984 . S
N1082 H1095 0.985 . S
N1083 C1085 1.356 . S
N1083 H1088 0.984 . S
N1083 H1089 0.985 . S
C1084 C1078 1.379 1_556 S
C1084 C1081 1.363 . S
C1084 N1082 1.356 . S
C1085 C1079 1.363 1_565 S
C1085 C1080 1.379 1_554 S
C1085 N1083 1.356 . S
N1086 C1078 1.356 . S
N1086 H1092 0.984 . S
N1086 H1093 0.984 . S
N1087 C1080 1.356 . S
N1087 H1090 0.984 . S
N1087 H1091 0.985 . S
H1088 N1083 0.984 . S
H1089 N1083 0.985 . S
H1090 N1087 0.984 . S
H1091 N1087 0.985 . S
H1092 N1086 0.984 . S
H1093 N1086 0.984 . S
H1094 N1082 0.984 . S
H1095 N1082 0.985 . S
C1096 C1097 1.363 . S
C1096 C1102 1.379 . S
C1096 N1104 1.356 . S
C1097 C1096 1.363 . S
C1097 C1103 1.363 . S
C1098 C1099 1.363 . S
C1098 C1103 1.379 . S
C1098 N1105 1.356 . S
C1099 C1098 1.363 . S
C1099 C1102 1.363 . S
N1100 C1102 1.356 . S
N1100 H1112 0.984 . S
N1100 H1113 0.985 . S
N1101 C1103 1.356 . S
N1101 H1106 0.984 . S
N1101 H1107 0.985 . S
C1102 C1096 1.379 . S
C1102 C1099 1.363 . S
C1102 N1100 1.356 . S
C1103 C1097 1.363 . S
C1103 C1098 1.379 . S
C1103 N1101 1.356 . S
N1104 C1096 1.356 . S
N1104 H1110 0.984 . S
N1104 H1111 0.984 . S
N1105 C1098 1.356 . S
N1105 H1108 0.984 . S
N1105 H1109 0.985 . S
H1106 N1101 0.984 . S
H1107 N1101 0.985 . S
H1108 N1105 0.984 . S
H1109 N1105 0.985 . S
H1110 N1104 0.984 . S
H1111 N1104 0.984 . S
H1112 N1100 0.984 . S
H1113 N1100 0.985 . S
C1114 C1115 1.363 1_545 S
C1114 C1120 1.379 . S
C1114 N1122 1.356 . S
C1115 C1114 1.363 1_565 S
C1115 C1121 1.363 . S
C1116 C1117 1.363 . S
C1116 C1121 1.379 . S
C1116 N1123 1.356 . S
C1117 C1116 1.363 . S
C1117 C1120 1.363 1_565 S
N1118 C1120 1.356 . S
N1118 H1130 0.984 . S
N1118 H1131 0.985 . S
N1119 C1121 1.356 . S
N1119 H1124 0.984 . S
N1119 H1125 0.985 . S
C1120 C1114 1.379 . S
C1120 C1117 1.363 1_545 S
C1120 N1118 1.356 . S
C1121 C1115 1.363 . S
C1121 C1116 1.379 . S
C1121 N1119 1.356 . S
N1122 C1114 1.356 . S
N1122 H1128 0.984 . S
N1122 H1129 0.984 . S
N1123 C1116 1.356 . S
N1123 H1126 0.984 . S
N1123 H1127 0.985 . S
H1124 N1119 0.984 . S
H1125 N1119 0.985 . S
H1126 N1123 0.984 . S
H1127 N1123 0.985 . S
H1128 N1122 0.984 . S
H1129 N1122 0.984 . S
H1130 N1118 0.984 . S
H1131 N1118 0.985 . S
C1132 C1133 1.363 . S
C1132 C1138 1.379 . S
C1132 N1140 1.356 . S
C1133 C1132 1.363 . S
C1133 C1139 1.363 . S
C1134 C1135 1.363 . S
C1134 C1139 1.379 . S
C1134 N1141 1.356 . S
C1135 C1134 1.363 . S
C1135 C1138 1.363 . S
N1136 C1138 1.356 . S
N1136 H1148 0.984 . S
N1136 H1149 0.985 . S
N1137 C1139 1.356 . S
N1137 H1142 0.984 . S
N1137 H1143 0.985 . S
C1138 C1132 1.379 . S
C1138 C1135 1.363 . S
C1138 N1136 1.356 . S
C1139 C1133 1.363 . S
C1139 C1134 1.379 . S
C1139 N1137 1.356 . S
N1140 C1132 1.356 . S
N1140 H1146 0.984 . S
N1140 H1147 0.984 . S
N1141 C1134 1.356 . S
N1141 H1144 0.984 . S
N1141 H1145 0.985 . S
H1142 N1137 0.984 . S
H1143 N1137 0.985 . S
H1144 N1141 0.984 . S
H1145 N1141 0.985 . S
H1146 N1140 0.984 . S
H1147 N1140 0.984 . S
H1148 N1136 0.984 . S
H1149 N1136 0.985 . S
C1150 C1151 1.363 . S
C1150 C1156 1.379 1_456 S
C1150 N1158 1.356 . S
C1151 C1150 1.363 . S
C1151 C1157 1.363 1_545 S
C1152 C1153 1.363 1_565 S
C1152 C1157 1.379 1_654 S
C1152 N1159 1.356 . S
C1153 C1152 1.363 1_545 S
C1153 C1156 1.363 . S
N1154 C1156 1.356 . S
N1154 H1166 0.984 . S
N1154 H1167 0.985 . S
N1155 C1157 1.356 . S
N1155 H1160 0.984 . S
N1155 H1161 0.985 . S
C1156 C1150 1.379 1_654 S
C1156 C1153 1.363 . S
C1156 N1154 1.356 . S
C1157 C1151 1.363 1_565 S
C1157 C1152 1.379 1_456 S
C1157 N1155 1.356 . S
N1158 C1150 1.356 . S
N1158 H1164 0.984 . S
N1158 H1165 0.984 . S
N1159 C1152 1.356 . S
N1159 H1162 0.984 . S
N1159 H1163 0.985 . S
H1160 N1155 0.984 . S
H1161 N1155 0.985 . S
H1162 N1159 0.984 . S
H1163 N1159 0.985 . S
H1164 N1158 0.984 . S
H1165 N1158 0.984 . S
H1166 N1154 0.984 . S
H1167 N1154 0.985 . S
C1168 C1169 1.363 . S
C1168 C1174 1.379 . S
C1168 N1176 1.356 . S
C1169 C1168 1.363 . S
C1169 C1175 1.363 . S
C1170 C1171 1.363 . S
C1170 C1175 1.379 . S
C1170 N1177 1.356 . S
C1171 C1170 1.363 . S
C1171 C1174 1.363 . S
N1172 C1174 1.356 . S
N1172 H1184 0.984 . S
N1172 H1185 0.985 . S
N1173 C1175 1.356 . S
N1173 H1178 0.984 . S
N1173 H1179 0.985 . S
C1174 C1168 1.379 . S
C1174 C1171 1.363 . S
C1174 N1172 1.356 . S
C1175 C1169 1.363 . S
C1175 C1170 1.379 . S
C1175 N1173 1.356 . S
N1176 C1168 1.356 . S
N1176 H1182 0.984 . S
N1176 H1183 0.984 . S
N1177 C1170 1.356 . S
N1177 H1180 0.984 . S
N1177 H1181 0.985 . S
H1178 N1173 0.984 . S
H1179 N1173 0.985 . S
H1180 N1177 0.984 . S
H1181 N1177 0.985 . S
H1182 N1176 0.984 . S
H1183 N1176 0.984 . S
H1184 N1172 0.984 . S
H1185 N1172 0.985 . S
C1186 C1187 1.363 . S
C1186 C1192 1.379 . S
C1186 N1194 1.356 . S
C1187 C1186 1.363 . S
C1187 C1193 1.363 . S
C1188 C1189 1.363 . S
C1188 C1193 1.379 . S
C1188 N1195 1.356 . S
C1189 C1188 1.363 . S
C1189 C1192 1.363 . S
N1190 C1192 1.356 . S
N1190 H1202 0.984 . S
N1190 H1203 0.985 . S
N1191 C1193 1.356 . S
N1191 H1196 0.984 . S
N1191 H1197 0.985 . S
C1192 C1186 1.379 . S
C1192 C1189 1.363 . S
C1192 N1190 1.356 . S
C1193 C1187 1.363 . S
C1193 C1188 1.379 . S
C1193 N1191 1.356 . S
N1194 C1186 1.356 . S
N1194 H1200 0.984 . S
N1194 H1201 0.984 . S
N1195 C1188 1.356 . S
N1195 H1198 0.984 . S
N1195 H1199 0.985 . S
H1196 N1191 0.984 . S
H1197 N1191 0.985 . S
H1198 N1195 0.984 . S
H1199 N1195 0.985 . S
H1200 N1194 0.984 . S
H1201 N1194 0.984 . S
H1202 N1190 0.984 . S
H1203 N1190 0.985 . S
C1204 C1205 1.363 . S
C1204 C1210 1.379 . S
C1204 N1212 1.356 . S
C1205 C1204 1.363 . S
C1205 C1211 1.363 . S
C1206 C1207 1.363 . S
C1206 C1211 1.379 . S
C1206 N1213 1.356 . S
C1207 C1206 1.363 . S
C1207 C1210 1.363 . S
N1208 C1210 1.356 . S
N1208 H1220 0.984 . S
N1208 H1221 0.985 . S
N1209 C1211 1.356 . S
N1209 H1214 0.984 . S
N1209 H1215 0.985 . S
C1210 C1204 1.379 . S
C1210 C1207 1.363 . S
C1210 N1208 1.356 . S
C1211 C1205 1.363 . S
C1211 C1206 1.379 . S
C1211 N1209 1.356 . S
N1212 C1204 1.356 . S
N1212 H1218 0.984 . S
N1212 H1219 0.984 . S
N1213 C1206 1.356 . S
N1213 H1216 0.984 . S
N1213 H1217 0.985 . S
H1214 N1209 0.984 . S
H1215 N1209 0.985 . S
H1216 N1213 0.984 . S
H1217 N1213 0.985 . S
H1218 N1212 0.984 . S
H1219 N1212 0.984 . S
H1220 N1208 0.984 . S
H1221 N1208 0.985 . S
C1222 C1223 1.363 . S
C1222 C1228 1.379 . S
C1222 N1230 1.356 . S
C1223 C1222 1.363 . S
C1223 C1229 1.363 . S
C1224 C1225 1.363 . S
C1224 C1229 1.379 . S
C1224 N1231 1.356 . S
C1225 C1224 1.363 . S
C1225 C1228 1.363 . S
N1226 C1228 1.356 . S
N1226 H1238 0.984 . S
N1226 H1239 0.985 . S
N1227 C1229 1.356 . S
N1227 H1232 0.984 . S
N1227 H1233 0.985 . S
C1228 C1222 1.379 . S
C1228 C1225 1.363 . S
C1228 N1226 1.356 . S
C1229 C1223 1.363 . S
C1229 C1224 1.379 . S
C1229 N1227 1.356 . S
N1230 C1222 1.356 . S
N1230 H1236 0.984 . S
N1230 H1237 0.984 . S
N1231 C1224 1.356 . S
N1231 H1234 0.984 . S
N1231 H1235 0.985 . S
H1232 N1227 0.984 . S
H1233 N1227 0.985 . S
H1234 N1231 0.984 . S
H1235 N1231 0.985 . S
H1236 N1230 0.984 . S
H1237 N1230 0.984 . S
H1238 N1226 0.984 . S
H1239 N1226 0.985 . S
C1240 C1241 1.363 . S
C1240 C1246 1.379 1_554 S
C1240 N1248 1.356 . S
C1241 C1240 1.363 . S
C1241 C1247 1.363 . S
C1242 C1243 1.363 . S
C1242 C1247 1.379 1_556 S
C1242 N1249 1.356 . S
C1243 C1242 1.363 . S
C1243 C1246 1.363 . S
N1244 C1246 1.356 . S
N1244 H1256 0.984 . S
N1244 H1257 0.985 . S
N1245 C1247 1.356 . S
N1245 H1250 0.984 . S
N1245 H1251 0.985 . S
C1246 C1240 1.379 1_556 S
C1246 C1243 1.363 . S
C1246 N1244 1.356 . S
C1247 C1241 1.363 . S
C1247 C1242 1.379 1_554 S
C1247 N1245 1.356 . S
N1248 C1240 1.356 . S
N1248 H1254 0.984 . S
N1248 H1255 0.984 . S
N1249 C1242 1.356 . S
N1249 H1252 0.984 . S
N1249 H1253 0.985 . S
H1250 N1245 0.984 . S
H1251 N1245 0.985 . S
H1252 N1249 0.984 . S
H1253 N1249 0.985 . S
H1254 N1248 0.984 . S
H1255 N1248 0.984 . S
H1256 N1244 0.984 . S
H1257 N1244 0.985 . S
C1258 C1259 1.363 1_655 S
C1258 C1264 1.379 . S
C1258 N1266 1.356 . S
C1259 C1258 1.363 1_455 S
C1259 C1265 1.363 . S
C1260 C1261 1.363 1_455 S
C1260 C1265 1.379 . S
C1260 N1267 1.356 . S
C1261 C1260 1.363 1_655 S
C1261 C1264 1.363 . S
N1262 C1264 1.356 . S
N1262 H1274 0.984 . S
N1262 H1275 0.985 . S
N1263 C1265 1.356 . S
N1263 H1268 0.984 . S
N1263 H1269 0.985 . S
C1264 C1258 1.379 . S
C1264 C1261 1.363 . S
C1264 N1262 1.356 . S
C1265 C1259 1.363 . S
C1265 C1260 1.379 . S
C1265 N1263 1.356 . S
N1266 C1258 1.356 . S
N1266 H1272 0.984 . S
N1266 H1273 0.973 1_655 S
N1267 C1260 1.356 . S
N1267 H1270 0.984 1_455 S
N1267 H1271 0.985 . S
H1268 N1263 0.984 . S
H1269 N1263 0.985 . S
H1270 N1267 0.984 1_655 S
H1271 N1267 0.985 . S
H1272 N1266 0.984 . S
H1273 N1266 0.973 1_455 S
H1274 N1262 0.984 . S
H1275 N1262 0.985 . S
C1276 C1277 1.363 . S
C1276 C1282 1.379 1_554 S
C1276 N1284 1.356 . S
C1277 C1276 1.363 . S
C1277 C1283 1.363 1_455 S
C1278 C1279 1.363 . S
C1278 C1283 1.379 1_556 S
C1278 N1285 1.356 . S
C1279 C1278 1.363 . S
C1279 C1282 1.363 1_655 S
N1280 C1282 1.356 . S
N1280 H1292 0.984 . S
N1280 H1293 0.985 1_455 S
N1281 C1283 1.356 . S
N1281 H1286 0.978 1_655 S
N1281 H1287 0.985 . S
C1282 C1276 1.379 1_556 S
C1282 C1279 1.363 1_455 S
C1282 N1280 1.356 . S
C1283 C1277 1.363 1_655 S
C1283 C1278 1.379 1_554 S
C1283 N1281 1.356 . S
N1284 C1276 1.356 . S
N1284 H1290 0.984 . S
N1284 H1291 0.984 . S
N1285 C1278 1.356 . S
N1285 H1288 0.984 . S
N1285 H1289 0.985 . S
H1286 N1281 0.978 1_455 S
H1287 N1281 0.985 . S
H1288 N1285 0.984 . S
H1289 N1285 0.985 . S
H1290 N1284 0.984 . S
H1291 N1284 0.984 . S
H1292 N1280 0.984 . S
H1293 N1280 0.985 1_655 S
C1294 C1295 1.363 . S
C1294 C1300 1.379 . S
C1294 N1302 1.356 . S
C1295 C1294 1.363 . S
C1295 C1301 1.363 . S
C1296 C1297 1.363 . S
C1296 C1301 1.379 . S
C1296 N1303 1.356 . S
C1297 C1296 1.363 . S
C1297 C1300 1.363 . S
N1298 C1300 1.356 . S
N1298 H1310 0.984 . S
N1298 H1311 0.985 . S
N1299 C1301 1.356 . S
N1299 H1304 0.984 . S
N1299 H1305 0.985 . S
C1300 C1294 1.379 . S
C1300 C1297 1.363 . S
C1300 N1298 1.356 . S
C1301 C1295 1.363 . S
C1301 C1296 1.379 . S
C1301 N1299 1.356 . S
N1302 C1294 1.356 . S
N1302 H1308 0.984 . S
N1302 H1309 0.984 . S
N1303 C1296 1.356 . S
N1303 H1306 0.984 . S
N1303 H1307 0.985 . S
H1304 N1299 0.984 . S
H1305 N1299 0.985 . S
H1306 N1303 0.984 . S
H1307 N1303 0.985 . S
H1308 N1302 0.984 . S
H1309 N1302 0.984 . S
H1310 N1298 0.984 . S
H1311 N1298 0.985 . S
C1312 C1313 1.363 . S
C1312 C1318 1.379 . S
C1312 N1320 1.356 . S
C1313 C1312 1.363 . S
C1313 C1319 1.363 . S
C1314 C1315 1.363 . S
C1314 C1319 1.379 . S
C1314 N1321 1.356 . S
C1315 C1314 1.363 . S
C1315 C1318 1.363 . S
N1316 C1318 1.356 . S
N1316 H1328 0.984 . S
N1316 H1329 0.985 . S
N1317 C1319 1.356 . S
N1317 H1322 0.984 . S
N1317 H1323 0.985 . S
C1318 C1312 1.379 . S
C1318 C1315 1.363 . S
C1318 N1316 1.356 . S
C1319 C1313 1.363 . S
C1319 C1314 1.379 . S
C1319 N1317 1.356 . S
N1320 C1312 1.356 . S
N1320 H1326 0.984 . S
N1320 H1327 0.984 . S
N1321 C1314 1.356 . S
N1321 H1324 0.998 . S
N1321 H1325 0.985 . S
H1322 N1317 0.984 . S
H1323 N1317 0.985 . S
H1324 N1321 0.998 . S
H1325 N1321 0.985 . S
H1326 N1320 0.984 . S
H1327 N1320 0.984 . S
H1328 N1316 0.984 . S
H1329 N1316 0.985 . S
C1330 C1331 1.363 . S
C1330 C1336 1.379 . S
C1330 N1338 1.356 . S
C1331 C1330 1.363 . S
C1331 C1337 1.363 . S
C1332 C1333 1.363 . S
C1332 C1337 1.379 . S
C1332 N1339 1.356 . S
C1333 C1332 1.363 . S
C1333 C1336 1.363 . S
N1334 C1336 1.356 . S
N1334 H1346 0.984 . S
N1334 H1347 0.985 . S
N1335 C1337 1.356 . S
N1335 H1340 0.984 . S
N1335 H1341 0.985 . S
C1336 C1330 1.379 . S
C1336 C1333 1.363 . S
C1336 N1334 1.356 . S
C1337 C1331 1.363 . S
C1337 C1332 1.379 . S
C1337 N1335 1.356 . S
N1338 C1330 1.356 . S
N1338 H1344 0.984 . S
N1338 H1345 0.984 . S
N1339 C1332 1.356 . S
N1339 H1342 0.984 . S
N1339 H1343 0.985 . S
H1340 N1335 0.984 . S
H1341 N1335 0.985 . S
H1342 N1339 0.984 . S
H1343 N1339 0.985 . S
H1344 N1338 0.984 . S
H1345 N1338 0.984 . S
H1346 N1334 0.984 . S
H1347 N1334 0.985 . S
C1348 C1349 1.363 . S
C1348 C1354 1.379 . S
C1348 N1356 1.356 . S
C1349 C1348 1.363 . S
C1349 C1355 1.363 . S
C1350 C1351 1.363 . S
C1350 C1355 1.379 . S
C1350 N1357 1.356 . S
C1351 C1350 1.363 . S
C1351 C1354 1.363 . S
N1352 C1354 1.356 . S
N1352 H1364 0.984 . S
N1352 H1365 0.985 . S
N1353 C1355 1.356 . S
N1353 H1358 0.984 . S
N1353 H1359 0.985 . S
C1354 C1348 1.379 . S
C1354 C1351 1.363 . S
C1354 N1352 1.356 . S
C1355 C1349 1.363 . S
C1355 C1350 1.379 . S
C1355 N1353 1.356 . S
N1356 C1348 1.356 . S
N1356 H1362 0.984 . S
N1356 H1363 0.984 . S
N1357 C1350 1.356 . S
N1357 H1360 0.984 . S
N1357 H1361 0.985 . S
H1358 N1353 0.984 . S
H1359 N1353 0.985 . S
H1360 N1357 0.984 . S
H1361 N1357 0.985 . S
H1362 N1356 0.984 . S
H1363 N1356 0.984 . S
H1364 N1352 0.984 . S
H1365 N1352 0.985 . S
C1366 C1367 1.363 . S
C1366 C1372 1.379 . S
C1366 N1374 1.356 . S
C1367 C1366 1.363 . S
C1367 C1373 1.363 . S
C1368 C1369 1.363 . S
C1368 C1373 1.379 . S
C1368 N1375 1.356 . S
C1369 C1368 1.363 . S
C1369 C1372 1.363 . S
N1370 C1372 1.356 . S
N1370 H1382 0.984 1_565 S
N1370 H1383 0.985 1_565 S
N1371 C1373 1.356 . S
N1371 H1376 0.984 . S
N1371 H1377 0.985 . S
C1372 C1366 1.379 . S
C1372 C1369 1.363 . S
C1372 N1370 1.356 . S
C1373 C1367 1.363 . S
C1373 C1368 1.379 . S
C1373 N1371 1.356 . S
N1374 C1366 1.356 . S
N1374 H1380 0.984 . S
N1374 H1381 0.984 . S
N1375 C1368 1.356 . S
N1375 H1378 0.984 . S
N1375 H1379 0.985 . S
H1376 N1371 0.984 . S
H1377 N1371 0.985 . S
H1378 N1375 0.984 . S
H1379 N1375 0.985 . S
H1380 N1374 0.984 . S
H1381 N1374 0.984 . S
H1382 N1370 0.984 1_545 S
H1383 N1370 0.985 1_545 S
C1384 C1385 1.363 . S
C1384 C1390 1.379 . S
C1384 N1392 1.356 . S
C1385 C1384 1.363 . S
C1385 C1391 1.363 . S
C1386 C1387 1.363 . S
C1386 C1391 1.379 . S
C1386 N1393 1.356 . S
C1387 C1386 1.363 . S
C1387 C1390 1.363 . S
N1388 C1390 1.356 . S
N1388 H1400 0.984 . S
N1388 H1401 0.985 . S
N1389 C1391 1.356 . S
N1389 H1394 0.984 . S
N1389 H1395 0.985 . S
C1390 C1384 1.379 . S
C1390 C1387 1.363 . S
C1390 N1388 1.356 . S
C1391 C1385 1.363 . S
C1391 C1386 1.379 . S
C1391 N1389 1.356 . S
N1392 C1384 1.356 . S
N1392 H1398 0.984 . S
N1392 H1399 0.984 . S
N1393 C1386 1.356 . S
N1393 H1396 0.984 . S
N1393 H1397 0.985 . S
H1394 N1389 0.984 . S
H1395 N1389 0.985 . S
H1396 N1393 0.984 . S
H1397 N1393 0.985 . S
H1398 N1392 0.984 . S
H1399 N1392 0.984 . S
H1400 N1388 0.984 . S
H1401 N1388 0.985 . S
C1402 C1403 1.363 . S
C1402 C1408 1.379 . S
C1402 N1410 1.356 . S
C1403 C1402 1.363 . S
C1403 C1409 1.363 . S
C1404 C1405 1.363 . S
C1404 C1409 1.379 . S
C1404 N1411 1.356 . S
C1405 C1404 1.363 . S
C1405 C1408 1.363 . S
N1406 C1408 1.356 . S
N1406 H1418 0.984 . S
N1406 H1419 0.985 . S
N1407 C1409 1.356 . S
N1407 H1412 0.984 . S
N1407 H1413 0.985 . S
C1408 C1402 1.379 . S
C1408 C1405 1.363 . S
C1408 N1406 1.356 . S
C1409 C1403 1.363 . S
C1409 C1404 1.379 . S
C1409 N1407 1.356 . S
N1410 C1402 1.356 . S
N1410 H1416 0.984 . S
N1410 H1417 0.984 . S
N1411 C1404 1.356 . S
N1411 H1414 0.984 . S
N1411 H1415 0.985 . S
H1412 N1407 0.984 . S
H1413 N1407 0.985 . S
H1414 N1411 0.984 . S
H1415 N1411 0.985 . S
H1416 N1410 0.984 . S
H1417 N1410 0.984 . S
H1418 N1406 0.984 . S
H1419 N1406 0.985 . S
C1420 C1421 1.363 . S
C1420 C1426 1.379 . S
C1420 N1428 1.356 . S
C1421 C1420 1.363 . S
C1421 C1427 1.363 . S
C1422 C1423 1.363 . S
C1422 C1427 1.379 . S
C1422 N1429 1.356 . S
C1423 C1422 1.363 . S
C1423 C1426 1.363 . S
N1424 C1426 1.356 . S
N1424 H1436 0.984 . S
N1424 H1437 0.985 . S
N1425 C1427 1.356 . S
N1425 H1430 0.984 . S
N1425 H1431 0.985 . S
C1426 C1420 1.379 . S
C1426 C1423 1.363 . S
C1426 N1424 1.356 . S
C1427 C1421 1.363 . S
C1427 C1422 1.379 . S
C1427 N1425 1.356 . S
N1428 C1420 1.356 . S
N1428 H1434 0.984 . S
N1428 H1435 0.984 . S
N1429 C1422 1.356 . S
N1429 H1432 0.984 . S
N1429 H1433 0.985 . S
H1430 N1425 0.984 . S
H1431 N1425 0.985 . S
H1432 N1429 0.984 . S
H1433 N1429 0.985 . S
H1434 N1428 0.984 . S
H1435 N1428 0.984 . S
H1436 N1424 0.984 . S
H1437 N1424 0.985 . S
C1438 C1439 1.363 . S
C1438 C1444 1.379 . S
C1438 N1446 1.356 . S
C1439 C1438 1.363 . S
C1439 C1445 1.363 . S
C1440 C1441 1.363 . S
C1440 C1445 1.379 . S
C1440 N1447 1.356 . S
C1441 C1440 1.363 . S
C1441 C1444 1.363 . S
N1442 C1444 1.356 . S
N1442 H1454 0.984 . S
N1442 H1455 0.985 . S
N1443 C1445 1.356 . S
N1443 H1448 0.984 . S
N1443 H1449 0.985 . S
C1444 C1438 1.379 . S
C1444 C1441 1.363 . S
C1444 N1442 1.356 . S
C1445 C1439 1.363 . S
C1445 C1440 1.379 . S
C1445 N1443 1.356 . S
N1446 C1438 1.356 . S
N1446 H1452 0.984 . S
N1446 H1453 0.984 . S
N1447 C1440 1.356 . S
N1447 H1450 0.984 . S
N1447 H1451 0.985 . S
H1448 N1443 0.984 . S
H1449 N1443 0.985 . S
H1450 N1447 0.984 . S
H1451 N1447 0.985 . S
H1452 N1446 0.984 . S
H1453 N1446 0.984 . S
H1454 N1442 0.984 . S
H1455 N1442 0.985 . S
C1456 C1457 1.363 . S
C1456 C1462 1.379 . S
C1456 N1464 1.356 . S
C1457 C1456 1.363 . S
C1457 C1463 1.363 . S
C1458 C1459 1.363 . S
C1458 C1463 1.379 . S
C1458 N1465 1.356 . S
C1459 C1458 1.363 . S
C1459 C1462 1.363 . S
N1460 C1462 1.356 . S
N1460 H1472 0.984 . S
N1460 H1473 0.985 . S
N1461 C1463 1.356 . S
N1461 H1466 0.984 . S
N1461 H1467 0.985 . S
C1462 C1456 1.379 . S
C1462 C1459 1.363 . S
C1462 N1460 1.356 . S
C1463 C1457 1.363 . S
C1463 C1458 1.379 . S
C1463 N1461 1.356 . S
N1464 C1456 1.356 . S
N1464 H1470 0.984 . S
N1464 H1471 0.984 . S
N1465 C1458 1.356 . S
N1465 H1468 0.984 . S
N1465 H1469 0.985 . S
H1466 N1461 0.984 . S
H1467 N1461 0.985 . S
H1468 N1465 0.984 . S
H1469 N1465 0.985 . S
H1470 N1464 0.984 . S
H1471 N1464 0.984 . S
H1472 N1460 0.984 . S
H1473 N1460 0.985 . S
C1474 C1475 1.363 . S
C1474 C1480 1.379 . S
C1474 N1482 1.356 . S
C1475 C1474 1.363 . S
C1475 C1481 1.363 . S
C1476 C1477 1.363 . S
C1476 C1481 1.379 . S
C1476 N1483 1.356 . S
C1477 C1476 1.363 . S
C1477 C1480 1.363 . S
N1478 C1480 1.356 . S
N1478 H1490 0.984 . S
N1478 H1491 0.985 . S
N1479 C1481 1.356 . S
N1479 H1484 0.984 . S
N1479 H1485 0.985 . S
C1480 C1474 1.379 . S
C1480 C1477 1.363 . S
C1480 N1478 1.356 . S
C1481 C1475 1.363 . S
C1481 C1476 1.379 . S
C1481 N1479 1.356 . S
N1482 C1474 1.356 . S
N1482 H1488 0.984 . S
N1482 H1489 0.984 . S
N1483 C1476 1.356 . S
N1483 H1486 0.984 . S
N1483 H1487 0.985 . S
H1484 N1479 0.984 . S
H1485 N1479 0.985 . S
H1486 N1483 0.984 . S
H1487 N1483 0.985 . S
H1488 N1482 0.984 . S
H1489 N1482 0.984 . S
H1490 N1478 0.984 . S
H1491 N1478 0.985 . S
C1492 C1493 1.363 . S
C1492 C1498 1.379 . S
C1492 N1500 1.356 . S
C1493 C1492 1.363 . S
C1493 C1499 1.363 . S
C1494 C1495 1.363 . S
C1494 C1499 1.379 . S
C1494 N1501 1.356 . S
C1495 C1494 1.363 . S
C1495 C1498 1.363 . S
N1496 C1498 1.356 . S
N1496 H1508 0.984 . S
N1496 H1509 0.985 . S
N1497 C1499 1.356 . S
N1497 H1502 0.984 . S
N1497 H1503 0.985 . S
C1498 C1492 1.379 . S
C1498 C1495 1.363 . S
C1498 N1496 1.356 . S
C1499 C1493 1.363 . S
C1499 C1494 1.379 . S
C1499 N1497 1.356 . S
N1500 C1492 1.356 . S
N1500 H1506 0.984 . S
N1500 H1507 0.984 . S
N1501 C1494 1.356 . S
N1501 H1504 0.984 . S
N1501 H1505 0.985 . S
H1502 N1497 0.984 . S
H1503 N1497 0.985 . S
H1504 N1501 0.984 . S
H1505 N1501 0.985 . S
H1506 N1500 0.984 . S
H1507 N1500 0.984 . S
H1508 N1496 0.984 . S
H1509 N1496 0.985 . S
C1510 C1511 1.363 . S
C1510 C1516 1.379 . S
C1510 N1518 1.356 . S
C1511 C1510 1.363 . S
C1511 C1517 1.363 . S
C1512 C1513 1.363 . S
C1512 C1517 1.379 . S
C1512 N1519 1.356 . S
C1513 C1512 1.363 . S
C1513 C1516 1.363 . S
N1514 C1516 1.356 . S
N1514 H1526 0.984 . S
N1514 H1527 0.985 . S
N1515 C1517 1.356 . S
N1515 H1520 0.984 . S
N1515 H1521 0.985 . S
C1516 C1510 1.379 . S
C1516 C1513 1.363 . S
C1516 N1514 1.356 . S
C1517 C1511 1.363 . S
C1517 C1512 1.379 . S
C1517 N1515 1.356 . S
N1518 C1510 1.356 . S
N1518 H1524 0.984 . S
N1518 H1525 0.984 . S
N1519 C1512 1.356 . S
N1519 H1522 0.984 . S
N1519 H1523 0.985 . S
H1520 N1515 0.984 . S
H1521 N1515 0.985 . S
H1522 N1519 0.984 . S
H1523 N1519 0.985 . S
H1524 N1518 0.984 . S
H1525 N1518 0.984 . S
H1526 N1514 0.984 . S
H1527 N1514 0.985 . S
C1528 C1529 1.363 . S
C1528 C1534 1.379 . S
C1528 N1536 1.356 . S
C1529 C1528 1.363 . S
C1529 C1535 1.363 . S
C1530 C1531 1.363 . S
C1530 C1535 1.379 . S
C1530 N1537 1.356 . S
C1531 C1530 1.363 . S
C1531 C1534 1.363 . S
N1532 C1534 1.356 . S
N1532 H1544 0.984 . S
N1532 H1545 0.985 . S
N1533 C1535 1.356 . S
N1533 H1538 0.984 . S
N1533 H1539 0.985 . S
C1534 C1528 1.379 . S
C1534 C1531 1.363 . S
C1534 N1532 1.356 . S
C1535 C1529 1.363 . S
C1535 C1530 1.379 . S
C1535 N1533 1.356 . S
N1536 C1528 1.356 . S
N1536 H1542 0.984 . S
N1536 H1543 0.984 . S
N1537 C1530 1.356 . S
N1537 H1540 0.984 . S
N1537 H1541 0.985 . S
H1538 N1533 0.984 . S
H1539 N1533 0.985 . S
H1540 N1537 0.984 . S
H1541 N1537 0.985 . S
H1542 N1536 0.984 . S
H1543 N1536 0.984 . S
H1544 N1532 0.984 . S
H1545 N1532 0.985 . S
C1546 C1547 1.363 . S
C1546 C1552 1.379 . S
C1546 N1554 1.356 . S
C1547 C1546 1.363 . S
C1547 C1553 1.363 . S
C1548 C1549 1.363 . S
C1548 C1553 1.379 . S
C1548 N1555 1.356 . S
C1549 C1548 1.363 . S
C1549 C1552 1.363 . S
N1550 C1552 1.356 . S
N1550 H1562 0.984 . S
N1550 H1563 0.985 . S
N1551 C1553 1.356 . S
N1551 H1556 0.984 . S
N1551 H1557 0.985 . S
C1552 C1546 1.379 . S
C1552 C1549 1.363 . S
C1552 N1550 1.356 . S
C1553 C1547 1.363 . S
C1553 C1548 1.379 . S
C1553 N1551 1.356 . S
N1554 C1546 1.356 . S
N1554 H1560 0.984 . S
N1554 H1561 0.984 . S
N1555 C1548 1.356 . S
N1555 H1558 0.984 . S
N1555 H1559 0.985 . S
H1556 N1551 0.984 . S
H1557 N1551 0.985 . S
H1558 N1555 0.984 . S
H1559 N1555 0.985 . S
H1560 N1554 0.984 . S
H1561 N1554 0.984 . S
H1562 N1550 0.984 . S
H1563 N1550 0.985 . S
C1564 C1565 1.363 . S
C1564 C1570 1.379 . S
C1564 N1572 1.356 . S
C1565 C1564 1.363 . S
C1565 C1571 1.363 . S
C1566 C1567 1.363 . S
C1566 C1571 1.379 . S
C1566 N1573 1.356 . S
C1567 C1566 1.363 . S
C1567 C1570 1.363 . S
N1568 C1570 1.356 . S
N1568 H1580 0.984 . S
N1568 H1581 0.985 . S
N1569 C1571 1.356 . S
N1569 H1574 0.984 . S
N1569 H1575 0.985 . S
C1570 C1564 1.379 . S
C1570 C1567 1.363 . S
C1570 N1568 1.356 . S
C1571 C1565 1.363 . S
C1571 C1566 1.379 . S
C1571 N1569 1.356 . S
N1572 C1564 1.356 . S
N1572 H1578 0.984 . S
N1572 H1579 0.984 . S
N1573 C1566 1.356 . S
N1573 H1576 0.984 . S
N1573 H1577 0.985 . S
H1574 N1569 0.984 . S
H1575 N1569 0.985 . S
H1576 N1573 0.984 . S
H1577 N1573 0.985 . S
H1578 N1572 0.984 . S
H1579 N1572 0.984 . S
H1580 N1568 0.984 . S
H1581 N1568 0.985 . S
C1582 C1583 1.363 . S
C1582 C1588 1.379 . S
C1582 N1590 1.356 . S
C1583 C1582 1.363 . S
C1583 C1589 1.363 . S
C1584 C1585 1.363 . S
C1584 C1589 1.379 . S
C1584 N1591 1.356 . S
C1585 C1584 1.363 . S
C1585 C1588 1.363 . S
N1586 C1588 1.356 . S
N1586 H1598 0.984 . S
N1586 H1599 0.985 . S
N1587 C1589 1.356 . S
N1587 H1592 0.984 . S
N1587 H1593 0.985 . S
C1588 C1582 1.379 . S
C1588 C1585 1.363 . S
C1588 N1586 1.356 . S
C1589 C1583 1.363 . S
C1589 C1584 1.379 . S
C1589 N1587 1.356 . S
N1590 C1582 1.356 . S
N1590 H1596 0.984 . S
N1590 H1597 0.984 . S
N1591 C1584 1.356 . S
N1591 H1594 0.984 . S
N1591 H1595 0.985 . S
H1592 N1587 0.984 . S
H1593 N1587 0.985 . S
H1594 N1591 0.984 . S
H1595 N1591 0.985 . S
H1596 N1590 0.984 . S
H1597 N1590 0.984 . S
H1598 N1586 0.984 . S
H1599 N1586 0.985 . S
C449 C383 1.351 . S
C451 C5 1.345 . S
C467 C19 1.345 . S
C469 C117 1.351 . S
C485 C355 1.351 . S
C487 C33 1.345 . S
C503 C47 1.345 . S
C505 C145 1.351 . S
C521 C61 1.345 . S
C523 C411 1.351 . S
C539 C75 1.345 . S
C541 C201 1.351 . S
C557 C89 1.345 . S
C559 C439 1.351 . S
C575 C103 1.345 . S
C577 C173 1.351 . S
C593 C275 1.405 . S
C595 C121 1.382 . S
C611 C9 1.405 . S
C613 C135 1.382 . S
C629 C247 1.405 . S
C631 C149 1.382 . S
C647 C163 1.382 . S
C649 C37 1.405 . S
C665 C303 1.405 . S
C667 C177 1.382 . S
C683 C93 1.405 . S
C685 C191 1.382 . S
C701 C205 1.382 . S
C703 C331 1.405 . S
C719 C65 1.405 . S
C721 C219 1.382 . S
C737 C229 1.345 . S
C739 C159 1.351 . S
C755 C243 1.345 . S
C757 C341 1.351 . S
C773 C131 1.351 . S
C775 C257 1.345 . S
C791 C369 1.351 . S
C793 C271 1.345 . S
C809 C187 1.351 . S
C811 C285 1.345 . S
C827 C425 1.351 . S
C829 C299 1.345 . S
C845 C215 1.351 . S
C847 C313 1.345 . S
C863 C327 1.345 . S
C865 C397 1.351 . S
C881 C51 1.405 . S
C883 C345 1.382 . S
C899 C359 1.382 . S
C901 C233 1.405 . S
C917 C373 1.382 . S
C919 C23 1.405 . S
C935 C387 1.382 . S
C937 C261 1.405 . S
C953 C401 1.382 . S
C955 C79 1.405 . S
C971 C415 1.382 . S
C973 C317 1.405 . S
C989 C429 1.382 . S
C991 C107 1.405 . S
C1007 C443 1.382 . S
C1009 C289 1.405 . S
C1025 C347 1.510 . S
C1027 C0 1.504 . S
C1043 C14 1.504 . S
C1045 C137 1.510 1_565 S
C1061 C375 1.510 . S
C1063 C28 1.504 . S
C1079 C42 1.504 . S
C1081 C165 1.510 1_545 S
C1097 C403 1.510 . S
C1099 C56 1.504 . S
C1115 C70 1.504 . S
C1117 C193 1.510 1_565 S
C1133 C431 1.510 . S
C1135 C84 1.504 . S
C1151 C98 1.504 . S
C1153 C221 1.510 1_545 S
C1169 C123 1.510 . S
C1171 C224 1.504 . S
C1187 C151 1.510 . S
C1189 C252 1.504 . S
C1205 C179 1.510 . S
C1207 C280 1.504 . S
C1223 C207 1.510 . S
C1225 C308 1.504 . S
C1241 C238 1.504 . S
C1243 C361 1.510 . S
C1259 C389 1.510 . S
C1261 C266 1.504 . S
C1277 C417 1.510 . S
C1279 C294 1.504 . S
C1295 C322 1.504 . S
C1297 C445 1.510 . S
C1313 C11 1.416 . S
C1315 C81 1.416 . S
C1331 C25 1.416 . S
C1333 C95 1.416 . S
C1349 C39 1.416 . S
C1351 C109 1.416 . S
C1367 C67 1.416 . S
C1369 C53 1.416 . S
C1385 C112 1.559 . S
C1387 C182 1.559 . S
C1403 C126 1.559 . S
C1405 C196 1.559 . S
C1421 C140 1.559 . S
C1423 C210 1.559 . S
C1439 C154 1.559 . S
C1441 C168 1.559 . S
C1457 C235 1.416 . S
C1459 C305 1.416 . S
C1475 C319 1.416 . S
C1477 C249 1.416 . S
C1493 C263 1.416 . S
C1495 C333 1.416 . S
C1511 C277 1.416 . S
C1513 C291 1.416 . S
C1529 C406 1.559 . S
C1531 C336 1.559 . S
C1547 C350 1.559 . S
C1549 C420 1.559 . S
C1565 C434 1.559 . S
C1567 C364 1.559 . S
C1583 C378 1.559 . S
C1585 C392 1.559 . S
