# Generated by pormake.
# Topology lcy-a, (4)-cn, num edge types: 1
# Building blocks:
#     Node 0, Type 0, BuildingBlock: QUQFOY_clean_sbu_1, # of connection points: 4
#     Node 1, Type 0, BuildingBlock: QUQFOY_clean_sbu_1, # of connection points: 4
#     Node 2, Type 0, BuildingBlock: QUQFOY_clean_sbu_1, # of connection points: 4
#     Node 3, Type 0, BuildingBlock: QUQFOY_clean_sbu_1, # of connection points: 4
#     Node 4, Type 0, BuildingBlock: QUQFOY_clean_sbu_1, # of connection points: 4
#     Node 5, Type 0, BuildingBlock: QUQFOY_clean_sbu_1, # of connection points: 4
#     Node 6, Type 0, BuildingBlock: QUQFOY_clean_sbu_1, # of connection points: 4
#     Node 7, Type 0, BuildingBlock: QUQFOY_clean_sbu_1, # of connection points: 4
#     Node 8, Type 0, BuildingBlock: QUQFOY_clean_sbu_1, # of connection points: 4
#     Node 9, Type 0, BuildingBlock: QUQFOY_clean_sbu_1, # of connection points: 4
#     Node 10, Type 0, BuildingBlock: QUQFOY_clean_sbu_1, # of connection points: 4
#     Node 11, Type 0, BuildingBlock: QUQFOY_clean_sbu_1, # of connection points: 4
#     Node 12, Type 0, BuildingBlock: QUQFOY_clean_sbu_1, # of connection points: 4
#     Node 13, Type 0, BuildingBlock: QUQFOY_clean_sbu_1, # of connection points: 4
#     Node 14, Type 0, BuildingBlock: QUQFOY_clean_sbu_1, # of connection points: 4
#     Node 15, Type 0, BuildingBlock: QUQFOY_clean_sbu_1, # of connection points: 4
#     Node 16, Type 0, BuildingBlock: QUQFOY_clean_sbu_1, # of connection points: 4
#     Node 17, Type 0, BuildingBlock: QUQFOY_clean_sbu_1, # of connection points: 4
#     Node 18, Type 0, BuildingBlock: QUQFOY_clean_sbu_1, # of connection points: 4
#     Node 19, Type 0, BuildingBlock: QUQFOY_clean_sbu_1, # of connection points: 4
#     Node 20, Type 0, BuildingBlock: QUQFOY_clean_sbu_1, # of connection points: 4
#     Node 21, Type 0, BuildingBlock: QUQFOY_clean_sbu_1, # of connection points: 4
#     Node 22, Type 0, BuildingBlock: QUQFOY_clean_sbu_1, # of connection points: 4
#     Node 23, Type 0, BuildingBlock: QUQFOY_clean_sbu_1, # of connection points: 4
#     Edge 24, Type (0, 0), BuildingBlock: CIFDUS_clean_linker_0, # of connection points: 2
#     Edge 25, Type (0, 0), BuildingBlock: CIFDUS_clean_linker_0, # of connection points: 2
#     Edge 26, Type (0, 0), BuildingBlock: CIFDUS_clean_linker_0, # of connection points: 2
#     Edge 27, Type (0, 0), BuildingBlock: CIFDUS_clean_linker_0, # of connection points: 2
#     Edge 28, Type (0, 0), BuildingBlock: CIFDUS_clean_linker_0, # of connection points: 2
#     Edge 29, Type (0, 0), BuildingBlock: CIFDUS_clean_linker_0, # of connection points: 2
#     Edge 30, Type (0, 0), BuildingBlock: CIFDUS_clean_linker_0, # of connection points: 2
#     Edge 31, Type (0, 0), BuildingBlock: CIFDUS_clean_linker_0, # of connection points: 2
#     Edge 32, Type (0, 0), BuildingBlock: CIFDUS_clean_linker_0, # of connection points: 2
#     Edge 33, Type (0, 0), BuildingBlock: CIFDUS_clean_linker_0, # of connection points: 2
#     Edge 34, Type (0, 0), BuildingBlock: CIFDUS_clean_linker_0, # of connection points: 2
#     Edge 35, Type (0, 0), BuildingBlock: CIFDUS_clean_linker_0, # of connection points: 2
#     Edge 36, Type (0, 0), BuildingBlock: CIFDUS_clean_linker_0, # of connection points: 2
#     Edge 37, Type (0, 0), BuildingBlock: CIFDUS_clean_linker_0, # of connection points: 2
#     Edge 38, Type (0, 0), BuildingBlock: CIFDUS_clean_linker_0, # of connection points: 2
#     Edge 39, Type (0, 0), BuildingBlock: CIFDUS_clean_linker_0, # of connection points: 2
#     Edge 40, Type (0, 0), BuildingBlock: CIFDUS_clean_linker_0, # of connection points: 2
#     Edge 41, Type (0, 0), BuildingBlock: CIFDUS_clean_linker_0, # of connection points: 2
#     Edge 42, Type (0, 0), BuildingBlock: CIFDUS_clean_linker_0, # of connection points: 2
#     Edge 43, Type (0, 0), BuildingBlock: CIFDUS_clean_linker_0, # of connection points: 2
#     Edge 44, Type (0, 0), BuildingBlock: CIFDUS_clean_linker_0, # of connection points: 2
#     Edge 45, Type (0, 0), BuildingBlock: CIFDUS_clean_linker_0, # of connection points: 2
#     Edge 46, Type (0, 0), BuildingBlock: CIFDUS_clean_linker_0, # of connection points: 2
#     Edge 47, Type (0, 0), BuildingBlock: CIFDUS_clean_linker_0, # of connection points: 2
#     Edge 48, Type (0, 0), BuildingBlock: CIFDUS_clean_linker_0, # of connection points: 2
#     Edge 49, Type (0, 0), BuildingBlock: CIFDUS_clean_linker_0, # of connection points: 2
#     Edge 50, Type (0, 0), BuildingBlock: CIFDUS_clean_linker_0, # of connection points: 2
#     Edge 51, Type (0, 0), BuildingBlock: CIFDUS_clean_linker_0, # of connection points: 2
#     Edge 52, Type (0, 0), BuildingBlock: CIFDUS_clean_linker_0, # of connection points: 2
#     Edge 53, Type (0, 0), BuildingBlock: CIFDUS_clean_linker_0, # of connection points: 2
#     Edge 54, Type (0, 0), BuildingBlock: CIFDUS_clean_linker_0, # of connection points: 2
#     Edge 55, Type (0, 0), BuildingBlock: CIFDUS_clean_linker_0, # of connection points: 2
#     Edge 56, Type (0, 0), BuildingBlock: CIFDUS_clean_linker_0, # of connection points: 2
#     Edge 57, Type (0, 0), BuildingBlock: CIFDUS_clean_linker_0, # of connection points: 2
#     Edge 58, Type (0, 0), BuildingBlock: CIFDUS_clean_linker_0, # of connection points: 2
#     Edge 59, Type (0, 0), BuildingBlock: CIFDUS_clean_linker_0, # of connection points: 2
#     Edge 60, Type (0, 0), BuildingBlock: CIFDUS_clean_linker_0, # of connection points: 2
#     Edge 61, Type (0, 0), BuildingBlock: CIFDUS_clean_linker_0, # of connection points: 2
#     Edge 62, Type (0, 0), BuildingBlock: CIFDUS_clean_linker_0, # of connection points: 2
#     Edge 63, Type (0, 0), BuildingBlock: CIFDUS_clean_linker_0, # of connection points: 2
#     Edge 64, Type (0, 0), BuildingBlock: CIFDUS_clean_linker_0, # of connection points: 2
#     Edge 65, Type (0, 0), BuildingBlock: CIFDUS_clean_linker_0, # of connection points: 2
#     Edge 66, Type (0, 0), BuildingBlock: CIFDUS_clean_linker_0, # of connection points: 2
#     Edge 67, Type (0, 0), BuildingBlock: CIFDUS_clean_linker_0, # of connection points: 2
#     Edge 68, Type (0, 0), BuildingBlock: CIFDUS_clean_linker_0, # of connection points: 2
#     Edge 69, Type (0, 0), BuildingBlock: CIFDUS_clean_linker_0, # of connection points: 2
#     Edge 70, Type (0, 0), BuildingBlock: CIFDUS_clean_linker_0, # of connection points: 2
#     Edge 71, Type (0, 0), BuildingBlock: CIFDUS_clean_linker_0, # of connection points: 2
# Relax obj value: 0.377
# Max RMSD: 0.178
# Mean RMSD: 0.178
data_MOF--net-lcy-a--node1-QUQFOY_clean_sbu_1--edge1-CIFDUS_clean_linker_0
_symmetry_space_group_name_H-M    P1
_symmetry_Int_Tables_number       1
_symmetry_cell_setting            triclinic
loop_
_symmetry_equiv_pos_as_xyz
'x, y, z'
_cell_length_a     52.69462
_cell_length_b     52.790846
_cell_length_c     52.728154
_cell_angle_alpha  90.070321
_cell_angle_beta   90.052884
_cell_angle_gamma 90.15126
loop_
_atom_site_label
_atom_site_type_symbol
_atom_site_fract_x
_atom_site_fract_y
_atom_site_fract_z
_atom_type_partial_charge
O0 O 0.20179 0.24458 0.3741 0.0
Cd1 Cd 0.17445 0.27026 0.38452 0.0
Cd2 Cd 0.21116 0.29691 0.40715 0.0
O3 O 0.22989 0.26357 0.39854 0.0
O4 O 0.14212 0.25386 0.39435 0.0
O5 O 0.16851 0.27258 0.42165 0.0
C6 C 0.14805 0.25967 0.41744 0.0
C7 C 0.22913 0.31855 0.44162 0.0
C8 C 0.22387 0.2455 0.38375 0.0
C9 C 0.18474 0.31918 0.36076 0.0
O10 O 0.20214 0.32068 0.37741 0.0
O11 O 0.16964 0.30042 0.36058 0.0
O12 O 0.24106 0.31512 0.42071 0.0
O13 O 0.20637 0.30972 0.44341 0.0
O14 O 0.00321 0.95925 0.61619 0.0
Cd15 Cd 0.98259 0.92703 0.62231 0.0
Cd16 Cd 0.94941 0.95712 0.64776 0.0
O17 O 0.98109 0.98028 0.64451 0.0
O18 O 0.00719 0.89971 0.62795 0.0
O19 O 0.98154 0.91472 0.65799 0.0
C20 C 0.00036 0.9004 0.6515 0.0
C21 C 0.92182 0.97369 0.67859 0.0
C22 C -0.00011 0.97895 0.62951 0.0
C23 C 0.93415 0.93131 0.59709 0.0
O24 O 0.92976 0.94646 0.61532 0.0
O25 O 0.95487 0.91914 0.59622 0.0
O26 O 0.92637 0.98485 0.65751 0.0
O27 O 0.93274 0.95223 0.68255 0.0
O28 O 0.28894 0.75169 0.87752 0.0
Cd29 Cd 0.31462 0.7243 0.88779 0.0
Cd30 Cd 0.27606 0.70193 0.91307 0.0
O31 O 0.2614 0.73757 0.9056 0.0
O32 O 0.34835 0.73854 0.89645 0.0
O33 O 0.3213 0.7228 0.92485 0.0
C34 C 0.34253 0.73407 0.91985 0.0
C35 C 0.25633 0.68059 0.94681 0.0
C36 C 0.26807 0.75406 0.8893 0.0
C37 C 0.29895 0.67595 0.86629 0.0
O38 O 0.28181 0.67729 0.88315 0.0
O39 O 0.31616 0.69275 0.86509 0.0
O40 O 0.24449 0.68657 0.92641 0.0
O41 O 0.27979 0.68733 0.94875 0.0
O42 O 0.49861 0.01417 0.14647 0.0
Cd43 Cd 0.51475 0.04929 0.1501 0.0
Cd44 Cd 0.55614 0.02357 0.16457 0.0
O45 O 0.53153 0.99314 0.16098 0.0
O46 O 0.48597 0.07198 0.15674 0.0
O47 O 0.51728 0.06563 0.1843 0.0
C48 C 0.49571 0.07592 0.17887 0.0
C49 C 0.58967 0.01667 0.193 0.0
C50 C 0.50897 0.99337 0.15243 0.0
C51 C 0.55724 0.05436 0.1152 0.0
O52 O 0.56815 0.04012 0.13124 0.0
O53 O 0.53469 0.06179 0.11909 0.0
O54 O 0.58811 0.00525 0.17157 0.0
O55 O 0.57179 0.03219 0.19896 0.0
O56 O 0.71052 0.23788 0.61793 0.0
Cd57 Cd 0.68187 0.21433 0.60646 0.0
Cd58 Cd 0.72155 0.1841 0.59034 0.0
O59 O 0.73965 0.21879 0.59507 0.0
O60 O 0.65371 0.23767 0.59997 0.0
O61 O 0.67232 0.21485 0.56975 0.0
C62 C 0.6565 0.23239 0.57623 0.0
C63 C 0.74607 0.1551 0.56689 0.0
C64 C 0.73276 0.2373 0.60885 0.0
C65 C 0.68657 0.16858 0.63539 0.0
O66 O 0.70621 0.16601 0.62164 0.0
O67 O 0.67148 0.18687 0.63165 0.0
O68 O 0.75269 0.16318 0.58886 0.0
O69 O 0.72532 0.1639 0.55742 0.0
O70 O 0.98314 0.4685 0.87157 0.0
Cd71 Cd 0.00399 0.43694 0.86313 0.0
Cd72 Cd 0.03746 0.4729 0.84146 0.0
O73 O 0.00445 0.49359 0.84594 0.0
O74 O 0.979 0.40921 0.86132 0.0
O75 O 0.00129 0.42258 0.82815 0.0
C76 C 0.98362 0.4082 0.83729 0.0
C77 C 0.06714 0.49604 0.81735 0.0
C78 C 0.98578 0.48974 0.86068 0.0
C79 C 0.05206 0.44151 0.88934 0.0
O80 O 0.05573 0.45898 0.8732 0.0
O81 O 0.03217 0.42798 0.88828 0.0
O82 O 0.05928 0.50331 0.83913 0.0
O83 O 0.05793 0.47521 0.80845 0.0
O84 O 0.77491 0.74506 0.12273 0.0
Cd85 Cd 0.80616 0.7668 0.11582 0.0
Cd86 Cd 0.77208 0.80266 0.09576 0.0
O87 O 0.75073 0.7697 0.09937 0.0
O88 O 0.83347 0.74349 0.1062 0.0
O89 O 0.81631 0.77159 0.07973 0.0
C90 C 0.83162 0.75287 0.08364 0.0
C91 C 0.74848 0.83251 0.07239 0.0
C92 C 0.7539 0.7494 0.11192 0.0
C93 C 0.80559 0.81396 0.14358 0.0
O94 O 0.78917 0.81994 0.12693 0.0
O95 O 0.81616 0.79242 0.14309 0.0
O96 O 0.74233 0.82549 0.09482 0.0
O97 O 0.7687 0.82279 0.06271 0.0
O98 O 0.50167 0.52141 0.35724 0.0
Cd99 Cd 0.47684 0.55012 0.34885 0.0
Cd100 Cd 0.44616 0.51442 0.33051 0.0
O101 O 0.47947 0.49407 0.33467 0.0
O102 O 0.49489 0.58075 0.33738 0.0
O103 O 0.47173 0.55605 0.31192 0.0
C104 C 0.48662 0.57533 0.31492 0.0
C105 C 0.41688 0.49745 0.30156 0.0
C106 C 0.49916 0.49949 0.34759 0.0
C107 C 0.43102 0.54396 0.37837 0.0
O108 O 0.42735 0.5259 0.36286 0.0
O109 O 0.45009 0.55839 0.37575 0.0
O110 O 0.42287 0.48621 0.32227 0.0
O111 O 0.42844 0.51834 0.29628 0.0
O112 O 0.36626 0.21591 0.24973 0.0
Cd113 Cd 0.3732 0.18765 0.2753 0.0
Cd114 Cd 0.40058 0.22284 0.30204 0.0
O115 O 0.39339 0.24161 0.26831 0.0
O116 O 0.37242 0.15553 0.2563 0.0
O117 O 0.40727 0.17134 0.27415 0.0
C118 C 0.3966 0.15417 0.26017 0.0
C119 C 0.43627 0.24063 0.32195 0.0
C120 C 0.37822 0.23675 0.25021 0.0
C121 C 0.35185 0.20048 0.32502 0.0
O122 O 0.37043 0.21588 0.32644 0.0
O123 O 0.34954 0.18588 0.30602 0.0
O124 O 0.41543 0.25279 0.31917 0.0
O125 O 0.43711 0.21751 0.31414 0.0
O126 O 0.04763 0.11186 0.48805 0.0
Cd127 Cd 0.07251 0.12224 0.5162 0.0
Cd128 Cd 0.03119 0.13914 0.54211 0.0
O129 O 0.01663 0.13333 0.506 0.0
O130 O 0.10438 0.13659 0.50268 0.0
O131 O 0.07462 0.15938 0.52217 0.0
C132 C 0.09596 0.15834 0.51013 0.0
C133 C 0.00562 0.165 0.56792 0.0
C134 C 0.02511 0.12035 0.48751 0.0
C135 C 0.06188 0.09335 0.56155 0.0
O136 O 0.04289 0.10807 0.5627 0.0
O137 O 0.07832 0.09609 0.54424 0.0
O138 O -0.00179 0.14339 0.55957 0.0
O139 O 0.02777 0.1728 0.56104 0.0
O140 O 0.1351 0.78022 0.74548 0.0
Cd141 Cd 0.13238 0.81479 0.76259 0.0
Cd142 Cd 0.11054 0.78685 0.80242 0.0
O143 O 0.11147 0.76019 0.77349 0.0
O144 O 0.13099 0.83919 0.73441 0.0
O145 O 0.0987 0.83192 0.76047 0.0
C146 C 0.10752 0.84286 0.74036 0.0
C147 C 0.08393 0.77418 0.83596 0.0
C148 C 0.12352 0.76041 0.75261 0.0
C149 C 0.16229 0.81478 0.80891 0.0
O150 O 0.1445 0.80053 0.81682 0.0
O151 O 0.16124 0.82435 0.78689 0.0
O152 O 0.10491 0.76306 0.8309 0.0
O153 O 0.07722 0.79272 0.82158 0.0
O154 O 0.44925 0.88082 0.99582 0.0
Cd155 Cd 0.42797 0.86503 0.02452 0.0
Cd156 Cd 0.47129 0.84404 0.03983 0.0
O157 O 0.48078 0.85458 0.00329 0.0
O158 O 0.39415 0.85315 0.01301 0.0
O159 O 0.42597 0.82744 0.02333 0.0
C160 C 0.40316 0.83046 0.01484 0.0
C161 C 0.49519 0.81126 0.05769 0.0
C162 C 0.47068 0.8717 0.98969 0.0
C163 C 0.447 0.88579 0.07179 0.0
O164 O 0.46611 0.87222 0.06638 0.0
O165 O 0.4272 0.88477 0.05811 0.0
O166 O 0.50523 0.83234 0.05085 0.0
O167 O 0.47131 0.80797 0.05342 0.0
O168 O 0.86286 0.28025 0.74075 0.0
Cd169 Cd 0.87557 0.30681 0.7155 0.0
Cd170 Cd 0.89985 0.26748 0.69419 0.0
O171 O 0.89005 0.25109 0.72865 0.0
O172 O 0.88011 0.33826 0.73498 0.0
O173 O 0.91203 0.31691 0.71744 0.0
C174 C 0.90423 0.33521 0.73176 0.0
C175 C 0.93242 0.24755 0.6713 0.0
C176 C 0.87292 0.25868 0.74384 0.0
C177 C 0.85519 0.29395 0.66679 0.0
O178 O 0.87108 0.27604 0.66899 0.0
O179 O 0.854 0.31118 0.68353 0.0
O180 O 0.91124 0.2366 0.67627 0.0
O181 O 0.93615 0.26979 0.68077 0.0
O182 O 0.96239 0.62918 0.99346 0.0
Cd183 Cd 0.93378 0.6389 0.96909 0.0
Cd184 Cd 0.9702 0.66643 0.94485 0.0
O185 O 0.98764 0.65922 0.97937 0.0
O186 O 0.90234 0.63658 0.98905 0.0
O187 O 0.91785 0.67276 0.97405 0.0
C188 C 0.9012 0.66098 0.98771 0.0
C189 C 0.9883 0.70135 0.92394 0.0
C190 C 0.98273 0.64193 0.99538 0.0
C191 C 0.9469 0.61937 0.91928 0.0
O192 O 0.96393 0.63647 0.9201 0.0
O193 O 0.93052 0.61772 0.93682 0.0
O194 O 0.00067 0.68094 0.92836 0.0
O195 O 0.96504 0.7024 0.93141 0.0
O196 O 0.62033 0.71528 0.25168 0.0
Cd197 Cd 0.61057 0.68638 0.22749 0.0
Cd198 Cd 0.594 0.72232 0.19651 0.0
O199 O 0.60096 0.74414 0.22853 0.0
O200 O 0.59655 0.65693 0.24584 0.0
O201 O 0.57347 0.68271 0.2216 0.0
C202 C 0.57474 0.66365 0.23687 0.0
C203 C 0.56361 0.73677 0.16756 0.0
C204 C 0.61321 0.73803 0.24842 0.0
C205 C 0.64006 0.69017 0.18143 0.0
O206 O 0.62504 0.70849 0.17739 0.0
O207 O 0.63739 0.67656 0.20105 0.0
O208 O 0.5847 0.74845 0.17126 0.0
O209 O 0.55874 0.71726 0.18143 0.0
O210 O 0.53749 0.37635 0.49654 0.0
Cd211 Cd 0.56958 0.37039 0.47564 0.0
Cd212 Cd 0.5388 0.34498 0.44324 0.0
O213 O 0.51451 0.34989 0.47375 0.0
O214 O 0.59791 0.3674 0.49969 0.0
O215 O 0.58367 0.33544 0.47605 0.0
C216 C 0.59853 0.34362 0.49384 0.0
C217 C 0.52605 0.31221 0.41585 0.0
C218 C 0.51689 0.36443 0.49285 0.0
C219 C 0.56481 0.39511 0.42706 0.0
O220 O 0.54965 0.3768 0.42288 0.0
O221 O 0.57703 0.39622 0.44775 0.0
O222 O 0.51384 0.3331 0.41779 0.0
O223 O 0.54576 0.30917 0.43 0.0
O224 O 0.22771 0.35588 0.20849 0.0
Cd225 Cd 0.25078 0.3653 0.1788 0.0
Cd226 Cd 0.28077 0.38804 0.21456 0.0
O227 O 0.24679 0.38307 0.23374 0.0
O228 O 0.22863 0.37328 0.14998 0.0
O229 O 0.25284 0.40186 0.16974 0.0
C230 C 0.23553 0.39661 0.15311 0.0
C231 C 0.30748 0.41589 0.237 0.0
C232 C 0.22872 0.36767 0.22941 0.0
C233 C 0.29864 0.34027 0.18494 0.0
O234 O 0.30114 0.35677 0.20236 0.0
O235 O 0.27925 0.34043 0.17068 0.0
O236 O 0.30089 0.39418 0.24564 0.0
O237 O 0.29893 0.42236 0.21503 0.0
O238 O 0.73995 0.11903 0.7722 0.0
Cd239 Cd 0.7594 0.11648 0.80563 0.0
Cd240 Cd 0.79441 0.08654 0.77455 0.0
O241 O 0.76144 0.08875 0.75311 0.0
O242 O 0.73375 0.12055 0.83249 0.0
O243 O 0.75472 0.08474 0.82559 0.0
C244 C 0.73716 0.09689 0.83765 0.0
C245 C 0.82458 0.06158 0.75312 0.0
C246 C 0.74289 0.1041 0.75359 0.0
C247 C 0.80977 0.13822 0.8001 0.0
O248 O 0.81352 0.11874 0.78647 0.0
O249 O 0.78864 0.14148 0.81109 0.0
O250 O 0.81663 0.08284 0.74466 0.0
O251 O 0.81485 0.05344 0.774 0.0
O252 O 0.11009 0.49456 0.02469 0.0
Cd253 Cd 0.11407 0.51248 0.05884 0.0
Cd254 Cd 0.13783 0.55026 0.02841 0.0
O255 O 0.13569 0.51987 0.00346 0.0
O256 O 0.11285 0.48491 0.08389 0.0
O257 O 0.14715 0.5084 0.07691 0.0
C258 C 0.13656 0.48935 0.08817 0.0
C259 C 0.16365 0.58339 0.01324 0.0
C260 C 0.12215 0.49993 0.0046 0.0
C261 C 0.08693 0.56006 0.05712 0.0
O262 O 0.1047 0.56614 0.04204 0.0
O263 O 0.08694 0.53861 0.06789 0.0
O264 O 0.14274 0.577 0.00258 0.0
O265 O 0.17099 0.57027 0.03248 0.0
O266 O 0.75818 0.86232 0.29065 0.0
Cd267 Cd 0.73112 0.87682 0.31467 0.0
Cd268 Cd 0.71421 0.90293 0.27451 0.0
O269 O 0.74948 0.89128 0.26192 0.0
O270 O 0.74479 0.88621 0.34856 0.0
O271 O 0.73359 0.91411 0.31898 0.0
C272 C 0.74338 0.90946 0.34096 0.0
C273 C 0.69834 0.93975 0.25561 0.0
C274 C 0.7632 0.87308 0.2697 0.0
C275 C 0.68169 0.86009 0.29617 0.0
O276 O 0.68619 0.87585 0.27853 0.0
O277 O 0.69684 0.85809 0.3148 0.0
O278 O 0.70268 0.91951 0.24284 0.0
O279 O 0.70358 0.93966 0.2795 0.0
O280 O 0.37596 0.49875 0.51833 0.0
Cd281 Cd 0.37349 0.48168 0.55305 0.0
Cd282 Cd 0.35036 0.44251 0.52528 0.0
O283 O 0.35138 0.47126 0.49861 0.0
O284 O 0.37406 0.50967 0.57768 0.0
O285 O 0.34084 0.4843 0.572 0.0
C286 C 0.35084 0.50389 0.58292 0.0
C287 C 0.3238 0.40889 0.51276 0.0
C288 C 0.36404 0.49179 0.49862 0.0
C289 C 0.40236 0.43502 0.55212 0.0
O290 O 0.38431 0.42763 0.53793 0.0
O291 O 0.40177 0.45685 0.56211 0.0
O292 O 0.34449 0.41432 0.50124 0.0
O293 O 0.3172 0.4231 0.5315 0.0
O294 O 0.25711 0.62552 0.71694 0.0
Cd295 Cd 0.23451 0.61615 0.6867 0.0
Cd296 Cd 0.20458 0.59484 0.72148 0.0
O297 O 0.23683 0.6004 0.74328 0.0
O298 O 0.25755 0.61084 0.65801 0.0
O299 O 0.23402 0.58019 0.67509 0.0
C300 C 0.25134 0.58717 0.65916 0.0
C301 C 0.17628 0.56479 0.73832 0.0
C302 C 0.25521 0.6153 0.7386 0.0
C303 C 0.18741 0.6427 0.69267 0.0
O304 O 0.18467 0.62664 0.71039 0.0
O305 O 0.20645 0.64137 0.67806 0.0
O306 O 0.18158 0.58569 0.74955 0.0
O307 O 0.18779 0.56007 0.71728 0.0
O308 O 0.60642 0.00989 0.97127 0.0
Cd309 Cd 0.61287 0.98977 0.93883 0.0
Cd310 Cd 0.63861 0.95544 0.96882 0.0
O311 O 0.63351 0.98645 0.99261 0.0
O312 O 0.62064 0.01375 0.91133 0.0
O313 O 0.6488 0.98683 0.92758 0.0
C314 C 0.64367 0.00537 0.91241 0.0
C315 C 0.66948 0.92799 0.98569 0.0
C316 C 0.61898 0.00559 0.9913 0.0
C317 C 0.5892 0.94031 0.94 0.0
O318 O 0.60761 0.93538 0.95481 0.0
O319 O 0.58714 0.96205 0.93001 0.0
O320 O 0.64769 0.93123 0.99598 0.0
O321 O 0.67416 0.9403 0.9651 0.0
O322 O 0.89101 0.98463 0.44843 0.0
Cd323 Cd 0.87987 0.01137 0.4225 0.0
Cd324 Cd 0.85702 0.03549 0.46166 0.0
O325 O 0.86619 0.00088 0.47789 0.0
O326 O 0.86861 -0.00359 0.38985 0.0
O327 O 0.84244 0.01358 0.4182 0.0
C328 C 0.84576 0.00166 0.39704 0.0
C329 C 0.82386 0.05767 0.48147 0.0
C330 C 0.88134 0.98364 0.47047 0.0
C331 C 0.90249 0.06025 0.43466 0.0
O332 O 0.88608 0.06008 0.45229 0.0
O333 O 0.90335 0.04227 0.41871 0.0
O334 O 0.84512 0.05331 0.49252 0.0
O335 O 0.82071 0.04858 0.45897 0.0
H336 H 0.0743 0.19646 0.48489 0.0
H337 H 0.14586 0.17066 0.51459 0.0
H338 H 0.16807 0.20459 0.49188 0.0
H339 H 0.16758 0.23661 0.4582 0.0
H340 H 0.0968 0.25664 0.42263 0.0
H341 H 0.07355 0.23038 0.4531 0.0
C342 C 0.09467 0.19887 0.48693 0.0
C343 C 0.10855 0.18152 0.50147 0.0
C344 C 0.10734 0.2172 0.47246 0.0
C345 C 0.13495 0.1841 0.50357 0.0
C346 C 0.14758 0.20334 0.49049 0.0
C347 C 0.14701 0.23574 0.45769 0.0
C348 C 0.13376 0.24854 0.43852 0.0
C349 C 0.13407 0.21932 0.4741 0.0
C350 C 0.10722 0.24692 0.43742 0.0
C351 C 0.09401 0.23185 0.45471 0.0
H352 H 0.05027 0.89206 0.64859 0.0
H353 H 0.98599 0.88257 0.69822 0.0
H354 H 0.01383 0.86488 0.73111 0.0
H355 H 0.05667 0.85187 0.74524 0.0
H356 H 0.12067 0.86448 0.69559 0.0
H357 H 0.09268 0.88177 0.66338 0.0
C358 C 0.04228 0.88581 0.66649 0.0
C359 C 0.01613 0.88801 0.67086 0.0
C360 C 0.0584 0.87666 0.68541 0.0
C361 C 0.00609 0.88065 0.69439 0.0
C362 C 0.022 0.87073 0.71319 0.0
C363 C 0.0645 0.85871 0.7275 0.0
C364 C 0.09072 0.85674 0.72281 0.0
C365 C 0.04824 0.86871 0.70891 0.0
C366 C 0.10059 0.86573 0.69974 0.0
C367 C 0.08458 0.87548 0.68119 0.0
H368 H 0.32562 0.7581 0.96134 0.0
H369 H 0.39406 0.73525 0.92306 0.0
H370 H 0.41958 0.76004 0.95306 0.0
H371 H 0.42169 0.79284 0.98607 0.0
H372 H 0.3526 0.82103 0.01927 0.0
H373 H 0.32789 0.78939 0.99573 0.0
C374 C 0.34617 0.75806 0.96007 0.0
C375 C 0.3581 0.74482 0.94032 0.0
C376 C 0.36046 0.77357 0.97633 0.0
C377 C 0.38463 0.7453 0.93828 0.0
C378 C 0.39914 0.75953 0.95532 0.0
C379 C 0.40129 0.79155 0.98858 0.0
C380 C 0.38886 0.80894 0.00441 0.0
C381 C 0.38719 0.77442 0.97385 0.0
C382 C 0.36242 0.80767 0.00717 0.0
C383 C 0.34836 0.78969 0.99367 0.0
H384 H 0.4452 0.07854 0.18275 0.0
H385 H 0.51425 0.10522 0.21771 0.0
H386 H 0.48945 0.13068 0.24777 0.0
H387 H 0.44792 0.14716 0.26206 0.0
H388 H 0.37931 0.11846 0.22731 0.0
H389 H 0.40422 0.09155 0.19947 0.0
C390 C 0.45482 0.08996 0.19695 0.0
C391 C 0.48141 0.09052 0.19781 0.0
C392 C 0.44053 0.104 0.21426 0.0
C393 C 0.49373 0.10477 0.21665 0.0
C394 C 0.47957 0.11926 0.23379 0.0
C395 C 0.43844 0.13473 0.24866 0.0
C396 C 0.4118 0.13505 0.24658 0.0
C397 C 0.45292 0.11926 0.23254 0.0
C398 C 0.39978 0.11872 0.22924 0.0
C399 C 0.414 0.10339 0.21319 0.0
H400 H 0.6531 0.28242 0.57946 0.0
H401 H 0.63576 0.21967 0.53005 0.0
H402 H 0.61734 0.24901 0.49882 0.0
H403 H 0.60489 0.29268 0.48685 0.0
H404 H 0.6256 0.3549 0.53612 0.0
H405 H 0.64458 0.32554 0.56598 0.0
C406 C 0.6451 0.27516 0.56191 0.0
C407 C 0.64505 0.24905 0.55717 0.0
C408 C 0.63551 0.29205 0.54398 0.0
C409 C 0.63554 0.23979 0.5341 0.0
C410 C 0.62515 0.25653 0.51631 0.0
C411 C 0.61388 0.2998 0.50395 0.0
C412 C 0.61359 0.32593 0.50935 0.0
C413 C 0.62491 0.28274 0.52115 0.0
C414 C 0.62547 0.33491 0.53149 0.0
C415 C 0.63621 0.31812 0.5487 0.0
H416 H 0.89697 0.35052 0.77934 0.0
H417 H 0.95204 0.35159 0.719 0.0
H418 H 0.98213 0.37434 0.74655 0.0
H419 H 0.99235 0.39387 0.78819 0.0
H420 H 0.93763 0.38861 0.84894 0.0
H421 H 0.90792 0.36715 0.82092 0.0
C422 C 0.91547 0.35601 0.77213 0.0
C423 C 0.9222 0.35001 0.74714 0.0
C424 C 0.93279 0.36799 0.78827 0.0
C425 C 0.94645 0.3564 0.73817 0.0
C426 C 0.96362 0.36927 0.75393 0.0
C427 C 0.974 0.38783 0.79527 0.0
C428 C 0.96719 0.39289 0.82057 0.0
C429 C 0.95699 0.37509 0.77908 0.0
C430 C 0.94342 0.38483 0.82959 0.0
C431 C 0.9263 0.37271 0.81355 0.0
H432 H 0.83463 0.70312 0.07632 0.0
H433 H 0.85616 0.77459 0.04331 0.0
H434 H 0.87837 0.7523 0.00889 0.0
H435 H 0.89356 0.71212 0.99002 0.0
H436 H 0.86909 0.64107 0.02263 0.0
H437 H 0.84554 0.66362 0.05511 0.0
C438 C 0.84426 0.71377 0.06158 0.0
C439 C 0.84445 0.74028 0.06246 0.0
C440 C 0.85617 0.70092 0.04174 0.0
C441 C 0.85619 0.75407 0.043 0.0
C442 C 0.86877 0.74135 0.02338 0.0
C443 C 0.88274 0.70161 0.00399 0.0
C444 C 0.88337 0.67496 0.00408 0.0
C445 C 0.86913 0.71473 0.02275 0.0
C446 C 0.86906 0.66158 0.02216 0.0
C447 C 0.85569 0.67444 0.04089 0.0
H448 H 0.55959 0.61501 0.23154 0.0
H449 H 0.53929 0.68644 0.26532 0.0
H450 H 0.50682 0.66554 0.2911 0.0
H451 H 0.48954 0.62591 0.30872 0.0
H452 H 0.50761 0.55476 0.27304 0.0
H453 H 0.53528 0.5765 0.24275 0.0
C454 C 0.54745 0.62595 0.24401 0.0
C455 C 0.55169 0.652 0.2469 0.0
C456 C 0.52867 0.61386 0.25846 0.0
C457 C 0.53607 0.66629 0.26292 0.0
C458 C 0.51769 0.65436 0.27774 0.0
C459 C 0.49895 0.61538 0.29376 0.0
C460 C 0.49694 0.58893 0.29306 0.0
C461 C 0.51456 0.62802 0.27637 0.0
C462 C 0.50896 0.57524 0.2737 0.0
C463 C 0.52492 0.58761 0.25658 0.0
H464 H 0.18632 0.39571 0.14132 0.0
H465 H 0.25285 0.44322 0.13782 0.0
H466 H 0.22772 0.47716 0.11824 0.0
H467 H 0.18665 0.49261 0.10146 0.0
H468 H 0.12014 0.44503 0.1083 0.0
H469 H 0.14543 0.41195 0.12778 0.0
C470 C 0.19538 0.41341 0.13602 0.0
C471 C 0.2214 0.41689 0.14037 0.0
C472 C 0.18075 0.43289 0.12575 0.0
C473 C 0.23283 0.44013 0.13425 0.0
C474 C 0.21847 0.45949 0.12321 0.0
C475 C 0.17768 0.47512 0.1075 0.0
C476 C 0.15158 0.47125 0.10326 0.0
C477 C 0.19237 0.45605 0.11886 0.0
C478 C 0.14018 0.44854 0.1113 0.0
C479 C 0.15464 0.4295 0.12231 0.0
H480 H 0.64514 0.05457 0.90012 0.0
H481 H 0.68799 0.98537 0.89431 0.0
H482 H 0.72186 0.00795 0.87168 0.0
H483 H 0.73841 0.04737 0.85253 0.0
H484 H 0.69575 0.11667 0.86093 0.0
H485 H 0.66288 0.09408 0.88407 0.0
C486 C 0.66182 0.0444 0.89372 0.0
C487 C 0.66395 0.01834 0.89833 0.0
C488 C 0.68134 0.05757 0.8815 0.0
C489 C 0.68592 0.00545 0.89066 0.0
C490 C 0.70526 0.01835 0.87783 0.0
C491 C 0.72207 0.05756 0.85971 0.0
C492 C 0.71948 0.08363 0.85483 0.0
C493 C 0.70311 0.04443 0.87307 0.0
C494 C 0.69825 0.0966 0.86436 0.0
C495 C 0.67932 0.08369 0.87748 0.0
H496 H 0.77141 0.94736 0.32187 0.0
H497 H 0.74441 0.91587 0.39225 0.0
H498 H 0.77108 0.94564 0.41613 0.0
H499 H 0.80605 0.97658 0.41665 0.0
H500 H 0.83795 0.00256 0.34609 0.0
H501 H 0.80528 0.97933 0.32241 0.0
C502 C 0.77096 0.9475 0.34245 0.0
C503 C 0.75592 0.92975 0.35541 0.0
C504 C 0.78742 0.96354 0.35589 0.0
C505 C 0.75585 0.92952 0.38201 0.0
C506 C 0.77113 0.94644 0.39559 0.0
C507 C 0.80537 0.97758 0.3961 0.0
C508 C 0.82402 0.99135 0.38299 0.0
C509 C 0.78756 0.96297 0.38271 0.0
C510 C 0.82357 0.99211 0.35642 0.0
C511 C 0.80501 0.97878 0.34295 0.0
H512 H 0.29935 0.59199 0.64361 0.0
H513 H 0.236 0.54014 0.64294 0.0
H514 H 0.2616 0.50894 0.61977 0.0
H515 H 0.30212 0.49702 0.59929 0.0
H516 H 0.36557 0.54895 0.60284 0.0
H517 H 0.33982 0.57942 0.62573 0.0
C518 C 0.29104 0.57395 0.63818 0.0
C519 C 0.26578 0.56845 0.64447 0.0
C520 C 0.30597 0.55606 0.62569 0.0
C521 C 0.25542 0.54478 0.638 0.0
C522 C 0.27005 0.52698 0.62487 0.0
C523 C 0.31033 0.51491 0.60529 0.0
C524 C 0.33568 0.52074 0.59924 0.0
C525 C 0.29539 0.53244 0.61862 0.0
C526 C 0.34612 0.54394 0.60723 0.0
C527 C 0.33138 0.56148 0.62022 0.0
H528 H 0.27224 0.4013 0.51585 0.0
H529 H 0.34202 0.36726 0.49 0.0
H530 H 0.31838 0.33391 0.46872 0.0
H531 H 0.27844 0.31783 0.45256 0.0
H532 H 0.20786 0.35136 0.47612 0.0
H533 H 0.23108 0.38119 0.50358 0.0
C534 C 0.28215 0.38625 0.50598 0.0
C535 C 0.30878 0.38695 0.50408 0.0
C536 C 0.26832 0.36721 0.49321 0.0
C537 C 0.3215 0.36737 0.49131 0.0
C538 C 0.30803 0.34825 0.47915 0.0
C539 C 0.26811 0.33141 0.46406 0.0
C540 C 0.24164 0.33277 0.46215 0.0
C541 C 0.28151 0.34855 0.47919 0.0
C542 C 0.22833 0.35007 0.47736 0.0
C543 C 0.24162 0.36721 0.49285 0.0
H544 H 0.90788 0.02221 0.67851 0.0
H545 H 0.89762 0.95274 0.72022 0.0
H546 H 0.86692 0.97398 0.74823 0.0
H547 H 0.84141 0.01241 0.75914 0.0
H548 H 0.8531 0.0807 0.71542 0.0
H549 H 0.88481 0.05968 0.68994 0.0
C550 C 0.89899 0.01158 0.69372 0.0
C551 C 0.90475 0.98589 0.69711 0.0
C552 C 0.8815 0.02373 0.70935 0.0
C553 C 0.89339 0.97258 0.7172 0.0
C554 C 0.87581 0.98469 0.73312 0.0
C555 C 0.85103 0.02261 0.74411 0.0
C556 C 0.84461 0.04801 0.73905 0.0
C557 C 0.86944 0.01027 0.72914 0.0
C558 C 0.85733 0.06107 0.71958 0.0
C559 C 0.87559 0.04911 0.70497 0.0
H560 H 0.20615 0.67618 0.95302 0.0
H561 H 0.27728 0.64959 0.98323 0.0
H562 H 0.25459 0.618 0.00891 0.0
H563 H 0.2144 0.59484 0.0187 0.0
H564 H 0.14433 0.62172 0.98589 0.0
H565 H 0.16673 0.65623 0.96536 0.0
C566 C 0.21673 0.66369 0.96547 0.0
C567 C 0.24331 0.66495 0.96602 0.0
C568 C 0.20371 0.64538 0.97949 0.0
C569 C 0.25674 0.64894 0.98251 0.0
C570 C 0.24378 0.63076 -0.00299 0.0
C571 C 0.20411 0.60848 0.00731 0.0
C572 C 0.17783 0.60547 0.00347 0.0
C573 C 0.21727 0.62829 0.99505 0.0
C574 C 0.16464 0.62331 0.98877 0.0
C575 C 0.17739 0.64315 0.97706 0.0
H576 H 0.63646 0.00327 0.17889 0.0
H577 H 0.59055 0.01668 0.24511 0.0
H578 H 0.62348 -0.00232 0.27202 0.0
H579 H 0.66186 0.9706 0.27513 0.0
H580 H 0.70557 0.95561 0.20765 0.0
H581 H 0.67731 0.98236 0.18283 0.0
C582 C 0.63388 0.00247 0.19929 0.0
C583 C 0.61105 0.01084 0.21004 0.0
C584 C 0.65249 0.99112 0.21435 0.0
C585 C 0.60802 0.01019 0.23647 0.0
C586 C 0.62675 -0.00081 0.25179 0.0
C587 C 0.66559 0.97395 0.25518 0.0
C588 C 0.68555 0.96108 0.24309 0.0
C589 C 0.64861 0.98864 0.24077 0.0
C590 C 0.69016 0.96525 0.21722 0.0
C591 C 0.67396 0.98041 0.20301 0.0
H592 H 0.73898 0.13345 0.51982 0.0
H593 H 0.78904 0.13382 0.58482 0.0
H594 H 0.81613 0.1028 0.56466 0.0
H595 H 0.82663 0.07653 0.52871 0.0
H596 H 0.77847 0.07556 0.46252 0.0
H597 H 0.74947 0.10554 0.48315 0.0
C598 C 0.75581 0.12669 0.5295 0.0
C599 C 0.76197 0.13611 0.55377 0.0
C600 C 0.77161 0.10867 0.51769 0.0
C601 C 0.78381 0.12708 0.56612 0.0
C602 C 0.79938 0.10924 0.55464 0.0
C603 C 0.80973 0.0827 0.51872 0.0
C604 C 0.80477 0.07388 0.49408 0.0
C605 C 0.79355 0.10005 0.53045 0.0
C606 C 0.7827 0.08205 0.48155 0.0
C607 C 0.7662 0.09927 0.4933 0.0
H608 H 0.14826 0.57408 0.77958 0.0
H609 H 0.16016 0.51772 0.72152 0.0
H610 H 0.1267 0.49119 0.74038 0.0
H611 H 0.09405 0.48434 0.77405 0.0
H612 H 0.08355 0.54251 0.83086 0.0
H613 H 0.11642 0.56803 0.81157 0.0
C614 C 0.14371 0.55596 0.77095 0.0
C615 C 0.15678 0.54784 0.74926 0.0
C616 C 0.12457 0.54116 0.78164 0.0
C617 C 0.15042 0.52436 0.73833 0.0
C618 C 0.13127 0.50924 0.74907 0.0
C619 C 0.09892 0.50265 0.78203 0.0
C620 C 0.08637 0.5114 0.80394 0.0
C621 C 0.11816 0.5175 0.77079 0.0
C622 C 0.09291 0.53517 0.81412 0.0
C623 C 0.11176 0.54986 0.80312 0.0
H624 H 0.66505 0.90645 0.03146 0.0
H625 H 0.71559 0.91108 0.96733 0.0
H626 H 0.74505 0.88177 0.98839 0.0
H627 H 0.75586 0.85431 0.02539 0.0
H628 H 0.70397 0.85158 0.08882 0.0
H629 H 0.67568 0.88065 0.06754 0.0
C630 C 0.68248 0.90111 0.02193 0.0
C631 C 0.68804 0.91083 -0.0022 0.0
C632 C 0.69912 0.88453 0.03408 0.0
C633 C 0.71085 0.90381 0.98594 0.0
C634 C 0.72766 0.88705 -0.00203 0.0
C635 C 0.73838 0.86015 0.03449 0.0
C636 C 0.73212 0.85068 0.05868 0.0
C637 C 0.72193 0.87719 0.02209 0.0
C638 C 0.7094 0.85849 0.07026 0.0
C639 C 0.6931 0.87515 0.0581 0.0
H640 H 0.338 0.45516 0.22107 0.0
H641 H 0.31548 0.41251 0.28725 0.0
H642 H 0.34669 0.43473 0.31278 0.0
H643 H 0.3818 0.46391 0.31613 0.0
H644 H 0.40588 0.50745 0.25131 0.0
H645 H 0.37259 0.48733 0.22539 0.0
C646 C 0.33979 0.45105 0.24113 0.0
C647 C 0.32463 0.43202 0.25218 0.0
C648 C 0.35817 0.46381 0.25586 0.0
C649 C 0.32711 0.42684 0.2782 0.0
C650 C 0.34496 0.43952 0.29286 0.0
C651 C 0.37987 0.46906 0.2963 0.0
C652 C 0.3965 0.4868 0.28552 0.0
C653 C 0.36089 0.45759 0.2818 0.0
C654 C 0.39337 0.49365 0.25997 0.0
C655 C 0.37436 0.48215 0.24519 0.0
H656 H 0.50749 0.3214 0.3699 0.0
H657 H 0.52411 0.26037 0.42133 0.0
H658 H 0.5003 0.23075 0.3941 0.0
H659 H 0.46915 0.2243 0.35885 0.0
H660 H 0.45191 0.28715 0.30961 0.0
H661 H 0.4819 0.31391 0.33241 0.0
C662 C 0.50629 0.30148 0.37488 0.0
C663 C 0.51709 0.29303 0.39762 0.0
C664 C 0.49231 0.28498 0.35954 0.0
C665 C 0.51585 0.2672 0.40383 0.0
C666 C 0.50208 0.25038 0.38837 0.0
C667 C 0.47259 0.24364 0.35283 0.0
C668 C 0.45829 0.25394 0.3328 0.0
C669 C 0.48941 0.25928 0.36663 0.0
C670 C 0.46261 0.27902 0.32515 0.0
C671 C 0.47968 0.29433 0.33819 0.0
H672 H 0.01701 0.20792 0.59552 0.0
H673 H 0.95721 0.15377 0.5803 0.0
H674 H 0.93027 0.17404 0.61144 0.0
H675 H 0.92348 0.20618 0.64317 0.0
H676 H 0.98134 0.26198 0.65893 0.0
H677 H 0.00934 0.24187 0.62756 0.0
C678 C -0.00198 0.20075 0.59893 0.0
C679 C 0.98923 0.17927 0.58562 0.0
C680 C 0.98237 0.21257 0.61711 0.0
C681 C 0.96458 0.17016 0.59028 0.0
C682 C 0.9491 0.18171 0.60816 0.0
C683 C 0.94228 0.21397 0.63997 0.0
C684 C 0.95041 0.2354 0.65356 0.0
C685 C 0.95786 0.2027 0.62179 0.0
C686 C 0.97471 0.24536 0.64883 0.0
C687 C 0.99065 0.23393 0.63083 0.0
H688 H 0.03751 0.71306 0.9258 0.0
H689 H 0.96733 0.73543 0.89051 0.0
H690 H 0.99079 0.76325 0.86132 0.0
H691 H 0.03218 0.7763 0.84232 0.0
H692 H 0.10161 0.75159 0.878 0.0
H693 H 0.07757 0.72983 0.91069 0.0
C694 C 0.0273 0.72436 0.91197 0.0
C695 C 0.00088 0.72202 0.90996 0.0
C696 C 0.04086 0.7397 0.89518 0.0
C697 C 0.98775 0.73699 0.89232 0.0
C698 C 0.00118 0.7527 0.87554 0.0
C699 C 0.04192 0.76658 0.85758 0.0
C700 C 0.0686 0.76518 0.85755 0.0
C701 C 0.02787 0.75352 0.87622 0.0
C702 C 0.08107 0.75256 0.87739 0.0
C703 C 0.06737 0.74011 0.89612 0.0
H704 H 0.57762 0.76022 0.12493 0.0
H705 H 0.51174 0.73154 0.16396 0.0
H706 H 0.48414 0.74934 0.13088 0.0
H707 H 0.47905 0.77711 0.09315 0.0
H708 H 0.54596 0.80547 0.05535 0.0
H709 H 0.57295 0.78322 0.08538 0.0
C710 C 0.55721 0.75777 0.12617 0.0
C711 C 0.54661 0.74515 0.14704 0.0
C712 C 0.54171 0.76788 0.10722 0.0
C713 C 0.52024 0.74146 0.14812 0.0
C714 C 0.50451 0.75164 0.12924 0.0
C715 C 0.49952 0.77781 0.09116 0.0
C716 C 0.51055 0.79306 0.07224 0.0
C717 C 0.51504 0.76539 0.10897 0.0
C718 C 0.53707 0.79401 0.0699 0.0
C719 C 0.55253 0.78141 0.08713 0.0
H720 H 0.16758 0.3106 0.31298 0.0
H721 H 0.20495 0.36667 0.35958 0.0
H722 H 0.21812 0.38977 0.32175 0.0
H723 H 0.22614 0.38914 0.27613 0.0
H724 H 0.1917 0.33114 0.22955 0.0
H725 H 0.16993 0.31398 0.2666 0.0
C726 C 0.17787 0.32832 0.31488 0.0
C727 C 0.18564 0.33672 0.339 0.0
C728 C 0.18637 0.34089 0.29301 0.0
C729 C 0.19901 0.35969 0.34117 0.0
C730 C 0.20669 0.37281 0.31954 0.0
C731 C 0.21347 0.37305 0.27394 0.0
C732 C 0.21107 0.36106 0.25021 0.0
C733 C 0.20165 0.36281 0.29542 0.0
C734 C 0.1942 0.34053 0.24766 0.0
C735 C 0.1818 0.33063 0.26887 0.0
H736 H 0.85995 0.97196 0.51573 0.0
H737 H 0.92284 0.95265 0.4671 0.0
H738 H 0.94275 0.92933 0.50177 0.0
H739 H 0.94604 0.92185 0.54777 0.0
H740 H 0.88411 0.94365 0.59656 0.0
H741 H 0.85986 0.95798 0.5599 0.0
C742 C 0.87776 0.9622 0.51253 0.0
C743 C 0.89017 0.96456 0.48905 0.0
C744 C 0.88939 0.9494 0.5327 0.0
C745 C 0.91298 0.95138 0.48507 0.0
C746 C 0.92447 0.93814 0.50496 0.0
C747 C 0.92689 0.92891 0.55027 0.0
C748 C 0.91704 0.93207 0.57487 0.0
C749 C 0.91342 0.93806 0.52917 0.0
C750 C 0.89222 0.9413 0.57782 0.0
C751 C 0.8784 0.94966 0.55689 0.0
H752 H 0.25393 0.60012 0.78779 0.0
H753 H 0.29448 0.64931 0.73642 0.0
H754 H 0.31573 0.66966 0.77221 0.0
H755 H 0.31691 0.67837 0.81803 0.0
H756 H 0.27396 0.63092 0.86901 0.0
H757 H 0.25995 0.60476 0.83349 0.0
C758 C 0.2678 0.61493 0.78433 0.0
C759 C 0.27216 0.62352 0.75948 0.0
C760 C 0.27938 0.62706 0.80501 0.0
C761 C 0.29047 0.64252 0.75539 0.0
C762 C 0.30259 0.65426 0.77586 0.0
C763 C 0.3051 0.66187 0.82143 0.0
C764 C 0.29618 0.6568 0.84603 0.0
C765 C 0.29634 0.64744 0.80078 0.0
C766 C 0.28083 0.63538 0.85017 0.0
C767 C 0.27272 0.62047 0.82986 0.0
H768 H 0.60571 0.04361 0.10232 0.0
H769 H 0.53517 0.07084 0.07102 0.0
H770 H 0.55045 0.06187 0.02821 0.0
H771 H 0.58005 0.03814 0.00096 0.0
H772 H 0.64882 0.00781 0.03339 0.0
H773 H 0.63804 0.02617 0.07438 0.0
C774 C 0.59388 0.04821 0.08612 0.0
C775 C 0.5691 0.05728 0.08992 0.0
C776 C 0.60228 0.04188 0.06174 0.0
C777 C 0.55425 0.06362 0.06869 0.0
C778 C 0.56288 0.05822 0.04418 0.0
C779 C 0.59296 0.03606 0.01685 0.0
C780 C 0.61492 0.02115 0.01427 0.0
C781 C 0.58626 0.04603 0.04064 0.0
C782 C 0.63155 0.01879 0.03499 0.0
C783 C 0.62542 0.0293 0.05845 0.0
H784 H 0.70633 0.12209 0.64301 0.0
H785 H 0.6637 0.18101 0.68022 0.0
H786 H 0.67409 0.16287 0.72156 0.0
H787 H 0.70287 0.13607 0.74661 0.0
H788 H 0.74701 0.07845 0.7088 0.0
H789 H 0.7282 0.0901 0.66832 0.0
C790 C 0.69866 0.1305 0.66015 0.0
C791 C 0.68481 0.15315 0.65865 0.0
C792 C 0.70546 0.12052 0.6838 0.0
C793 C 0.67456 0.16363 0.6809 0.0
C794 C 0.68076 0.15343 0.70457 0.0
C795 C 0.70795 0.12566 0.72962 0.0
C796 C 0.72691 0.10694 0.73066 0.0
C797 C 0.69743 0.13279 0.70622 0.0
C798 C 0.73285 0.09329 0.70853 0.0
C799 C 0.72213 0.09996 0.68531 0.0
H800 H 0.09088 0.45912 -0.00109 0.0
H801 H 0.14398 0.50629 0.95804 0.0
H802 H 0.13037 0.48731 0.91814 0.0
H803 H 0.09813 0.46364 0.89469 0.0
H804 H 0.0429 0.41876 0.93518 0.0
H805 H 0.06323 0.42982 0.97535 0.0
C806 C 0.09987 0.4649 0.98134 0.0
C807 C 0.11795 0.48461 0.98143 0.0
C808 C 0.09148 0.45438 0.95835 0.0
C809 C 0.12969 0.49152 0.95852 0.0
C810 C 0.1219 0.48068 0.93565 0.0
C811 C 0.09089 0.45573 0.91225 0.0
C812 C 0.06863 0.44095 0.912 0.0
C813 C 0.10198 0.46304 0.93528 0.0
C814 C 0.05984 0.4304 0.93483 0.0
C815 C 0.07132 0.43694 0.95786 0.0
H816 H 0.78034 0.89335 0.22575 0.0
H817 H 0.78756 0.82734 0.27338 0.0
H818 H 0.80757 0.80425 0.23858 0.0
H819 H 0.8139 0.80017 0.19244 0.0
H820 H 0.80249 0.86525 0.14444 0.0
H821 H 0.79373 0.89146 0.18154 0.0
C822 C 0.78685 0.87411 0.22876 0.0
C823 C 0.78183 0.86188 0.25192 0.0
C824 C 0.79733 0.86065 0.2084 0.0
C825 C 0.79088 0.83713 0.25565 0.0
C826 C 0.80217 0.82383 0.23567 0.0
C827 C 0.81043 0.82029 0.19023 0.0
C828 C 0.80851 0.83075 0.16578 0.0
C829 C 0.80417 0.83497 0.21159 0.0
C830 C 0.80382 0.85679 0.1631 0.0
C831 C 0.79865 0.87173 0.18429 0.0
H832 H 0.39501 0.53227 0.48992 0.0
H833 H 0.34119 0.48252 0.45302 0.0
H834 H 0.35411 0.49874 0.41176 0.0
H835 H 0.38584 0.52089 0.3863 0.0
H836 H 0.44145 0.56874 0.42289 0.0
H837 H 0.42217 0.55997 0.46409 0.0
C838 C 0.3857 0.52536 0.47291 0.0
C839 C 0.36763 0.50573 0.47454 0.0
C840 C 0.39368 0.53428 0.44915 0.0
C841 C 0.35549 0.49729 0.45231 0.0
C842 C 0.36289 0.50652 0.42867 0.0
C843 C 0.3934 0.52989 0.40322 0.0
C844 C 0.41541 0.54493 0.40162 0.0
C845 C 0.3828 0.52408 0.42686 0.0
C846 C 0.42466 0.55688 0.42361 0.0
C847 C 0.41377 0.55169 0.44722 0.0
H848 H 0.27218 0.24251 0.40124 0.0
H849 H 0.22105 0.20935 0.34637 0.0
H850 H 0.2567 0.18814 0.3258 0.0
H851 H 0.3028 0.18541 0.31906 0.0
H852 H 0.35373 0.22149 0.37224 0.0
H853 H 0.31772 0.23482 0.398 0.0
C854 C 0.2687 0.23025 0.38508 0.0
C855 C 0.24402 0.22798 0.37506 0.0
C856 C 0.28934 0.21884 0.37285 0.0
C857 C 0.23987 0.21168 0.35435 0.0
C858 C 0.26029 0.19964 0.34247 0.0
C859 C 0.30607 0.19557 0.33665 0.0
C860 C 0.33089 0.20277 0.34352 0.0
C861 C 0.2852 0.20402 0.35089 0.0
C862 C 0.33478 0.21597 0.36637 0.0
C863 C 0.3142 0.22369 0.38106 0.0
H864 H 0.04062 0.98386 0.59794 0.0
H865 H 0.99523 0.02519 0.65212 0.0
H866 H 0.01515 0.06468 0.63906 0.0
H867 H 0.03915 0.08798 0.60703 0.0
H868 H 0.08332 0.04729 0.5516 0.0
H869 H 0.07085 0.00707 0.57092 0.0
C870 C 0.03546 0.00143 0.60726 0.0
C871 C 0.01594 0.00162 0.62547 0.0
C872 C 0.04669 0.02424 0.59936 0.0
C873 C 0.00984 0.0245 0.63771 0.0
C874 C 0.02121 0.04716 0.63024 0.0
C875 C 0.04663 0.07032 0.59963 0.0
C876 C 0.06166 0.07052 0.57764 0.0
C877 C 0.03872 0.04735 0.61028 0.0
C878 C 0.07161 0.04761 0.56847 0.0
C879 C 0.06423 0.02459 0.57933 0.0
H880 H 0.26896 0.78424 0.8472 0.0
H881 H 0.22496 0.76761 0.91423 0.0
H882 H 0.18904 0.79068 0.89682 0.0
H883 H 0.16765 0.80752 0.85935 0.0
H884 H 0.21057 0.82252 0.79139 0.0
H885 H 0.24947 0.80897 0.81263 0.0
C886 C 0.25177 0.78628 0.85831 0.0
C887 C 0.24944 0.77361 0.88169 0.0
C888 C 0.23084 0.7991 0.84789 0.0
C889 C 0.22711 0.77671 0.89595 0.0
C890 C 0.2065 0.78988 0.88599 0.0
C891 C 0.18566 0.80856 0.84943 0.0
C892 C 0.18615 0.81546 0.8237 0.0
C893 C 0.20773 0.79994 0.86146 0.0
C894 C 0.20964 0.81714 0.81119 0.0
C895 C 0.23187 0.8091 0.82325 0.0
H896 H 0.46247 0.98709 0.1307 0.0
H897 H 0.52668 0.94528 0.15947 0.0
H898 H 0.51018 0.90658 0.1403 0.0
H899 H 0.48174 0.88658 0.10953 0.0
H900 H 0.41867 0.92865 0.07889 0.0
H901 H 0.43021 0.96513 0.10511 0.0
C902 C 0.47261 0.96942 0.13324 0.0
C903 C 0.49611 0.96924 0.14601 0.0
C904 C 0.46334 0.94733 0.12162 0.0
C905 C 0.50877 0.94608 0.14944 0.0
C906 C 0.49938 0.92392 0.1384 0.0
C907 C 0.47019 0.90356 0.10896 0.0
C908 C 0.44972 0.90513 0.0919 0.0
C909 C 0.47734 0.92462 0.12351 0.0
C910 C 0.43464 0.92703 0.09173 0.0
C911 C 0.44135 0.94797 0.10658 0.0
H912 H 0.78108 0.24289 0.59175 0.0
H913 H 0.7268 0.27522 0.64374 0.0
H914 H 0.76017 0.30094 0.663 0.0
H915 H 0.80579 0.30768 0.67035 0.0
H916 H 0.86008 0.27295 0.6201 0.0
H917 H 0.8257 0.2554 0.59445 0.0
C918 C 0.77642 0.25592 0.60697 0.0
C919 C 0.75162 0.25661 0.61672 0.0
C920 C 0.79579 0.27022 0.61835 0.0
C921 C 0.74583 0.27398 0.63612 0.0
C922 C 0.76493 0.28869 0.6472 0.0
C923 C 0.81004 0.2971 0.65323 0.0
C924 C 0.83535 0.29132 0.64726 0.0
C925 C 0.79016 0.28608 0.63925 0.0
C926 C 0.84067 0.27744 0.62514 0.0
C927 C 0.82103 0.26722 0.6106 0.0
H928 H 0.98955 0.53855 0.84486 0.0
H929 H 0.94549 0.48953 0.89346 0.0
H930 H 0.92547 0.52637 0.91289 0.0
H931 H 0.92641 0.57211 0.92125 0.0
H932 H 0.97298 0.62074 0.87468 0.0
H933 H 0.98569 0.58447 0.849 0.0
C934 C 0.97517 0.53584 0.85932 0.0
C935 C 0.96947 0.51131 0.86807 0.0
C936 C 0.96436 0.5571 0.87099 0.0
C937 C 0.95053 0.50821 0.88659 0.0
C938 C 0.93912 0.52929 0.8978 0.0
C939 C 0.93877 0.5749 0.90505 0.0
C940 C 0.94908 0.59901 0.90015 0.0
C941 C 0.94677 0.55381 0.89095 0.0
C942 C 0.96504 0.6023 0.87906 0.0
C943 C 0.97241 0.58155 0.86443 0.0
H944 H 0.64592 0.70721 0.13365 0.0
H945 H 0.68633 0.67057 0.19451 0.0
H946 H 0.72679 0.68221 0.17501 0.0
H947 H 0.74979 0.71086 0.14613 0.0
H948 H 0.70847 0.74994 0.08726 0.0
H949 H 0.66936 0.72917 0.1004 0.0
C950 C 0.6636 0.70111 0.14225 0.0
C951 C 0.66319 0.68863 0.16576 0.0
C952 C 0.68665 0.70886 0.13159 0.0
C953 C 0.68615 0.68037 0.17647 0.0
C954 C 0.7093 0.68731 0.16549 0.0
C955 C 0.73235 0.71436 0.13579 0.0
C956 C 0.73192 0.73247 0.1162 0.0
C957 C 0.7097 0.70286 0.1439 0.0
C958 C 0.70924 0.73652 0.10277 0.0
C959 C 0.68683 0.72465 0.11026 0.0
H960 H 0.53703 0.50042 0.38298 0.0
H961 H 0.50173 0.45233 0.32671 0.0
H962 H 0.52399 0.41573 0.34365 0.0
H963 H 0.54666 0.3964 0.37905 0.0
H964 H 0.58018 0.44378 0.43686 0.0
H965 H 0.56617 0.48161 0.41425 0.0
C966 C 0.53469 0.48206 0.37402 0.0
C967 C 0.51722 0.47904 0.35401 0.0
C968 C 0.5471 0.46087 0.38427 0.0
C969 C 0.51466 0.45514 0.34244 0.0
C970 C 0.52738 0.43414 0.35214 0.0
C971 C 0.5515 0.41501 0.38638 0.0
C972 C 0.5639 0.41725 0.4099 0.0
C973 C 0.54261 0.4366 0.37379 0.0
C974 C 0.57046 0.44149 0.4189 0.0
C975 C 0.56222 0.46316 0.40609 0.0
H976 H 0.34301 0.2355 0.21218 0.0
H977 H 0.39954 0.28376 0.24695 0.0
H978 H 0.38264 0.32022 0.22447 0.0
H979 H 0.34684 0.33944 0.20224 0.0
H980 H 0.28907 0.29189 0.1689 0.0
H981 H 0.31188 0.2541 0.18277 0.0
C982 C 0.35202 0.25387 0.21438 0.0
C983 C 0.37202 0.257 0.23184 0.0
C984 C 0.34186 0.27496 0.20176 0.0
C985 C 0.38378 0.28086 0.23407 0.0
C986 C 0.3741 0.30179 0.22123 0.0
C987 C 0.33964 0.32078 0.19735 0.0
C988 C 0.31606 0.31842 0.18512 0.0
C989 C 0.35237 0.29925 0.20612 0.0
C990 C 0.30714 0.2942 0.17845 0.0
C991 C 0.32003 0.27258 0.18665 0.0
H992 H 0.80174 0.1886 0.8075 0.0
H993 H 0.85987 0.13447 0.78827 0.0
H994 H 0.88694 0.16847 0.77251 0.0
H995 H 0.89039 0.21194 0.75669 0.0
H996 H 0.83142 0.26583 0.77409 0.0
H997 H 0.80868 0.23372 0.79831 0.0
C998 C 0.82067 0.18434 0.80068 0.0
C999 C 0.82857 0.15901 0.79861 0.0
C1000 C 0.83582 0.20392 0.79077 0.0
C1001 C 0.85319 0.15381 0.78974 0.0
C1002 C 0.86864 0.17323 0.78055 0.0
C1003 C 0.87283 0.21683 0.7662 0.0
C1004 C 0.86234 0.24108 0.763 0.0
C1005 C 0.85956 0.19813 0.77971 0.0
C1006 C 0.83978 0.24721 0.77588 0.0
C1007 C 0.82668 0.22881 0.78972 0.0
H1008 H 0.98137 0.6024 0.02866 0.0
H1009 H 0.02852 0.66468 0.00389 0.0
H1010 H 0.06457 0.64695 0.02658 0.0
H1011 H 0.08438 0.60987 0.04583 0.0
H1012 H 0.03813 0.54633 0.0686 0.0
H1013 H -4e-05 0.56883 0.05514 0.0
C1014 C -0.00064 0.61241 0.0287 0.0
C1015 C 0.00239 0.63446 0.01398 0.0
C1016 C 0.02026 0.60179 0.04133 0.0
C1017 C 0.02574 0.64741 0.01463 0.0
C1018 C 0.04643 0.63727 0.02758 0.0
C1019 C 0.06587 0.60123 0.04852 0.0
C1020 C 0.06411 0.57626 0.05761 0.0
C1021 C 0.04419 0.61385 0.03986 0.0
C1022 C 0.04002 0.56548 0.06149 0.0
C1023 C 0.0182 0.57823 0.0535 0.0
H1024 H 0.67872 0.81201 0.31436 0.0
H1025 H 0.63856 0.86659 0.26872 0.0
H1026 H 0.61038 0.83338 0.25298 0.0
H1027 H 0.60236 0.78826 0.24642 0.0
H1028 H 0.64437 0.7331 0.28976 0.0
H1029 H 0.66623 0.76707 0.31245 0.0
C1030 C 0.6633 0.81673 0.3016 0.0
C1031 C 0.66092 0.84162 0.29245 0.0
C1032 C 0.64776 0.79734 0.29184 0.0
C1033 C 0.64093 0.84748 0.27581 0.0
C1034 C 0.62488 0.82848 0.26671 0.0
C1035 C 0.61593 0.78361 0.26118 0.0
C1036 C 0.6221 0.75815 0.26595 0.0
C1037 C 0.62895 0.8032 0.27364 0.0
C1038 C 0.63946 0.75252 0.28543 0.0
C1039 C 0.65207 0.77196 0.29838 0.0
H1040 H 0.40871 0.38724 0.53459 0.0
H1041 H 0.44939 0.44923 0.56955 0.0
H1042 H 0.48969 0.4299 0.55756 0.0
H1043 H 0.51251 0.40017 0.5299 0.0
H1044 H 0.47109 0.34016 0.49232 0.0
H1045 H 0.432 0.35394 0.51268 0.0
C1046 C 0.42639 0.39627 0.54015 0.0
C1047 C 0.42602 0.41998 0.55236 0.0
C1048 C 0.44938 0.38566 0.53223 0.0
C1049 C 0.44909 0.43111 0.55989 0.0
C1050 C 0.47217 0.42018 0.55281 0.0
C1051 C 0.49504 0.38977 0.52656 0.0
C1052 C 0.49462 0.36955 0.50912 0.0
C1053 C 0.47245 0.39821 0.53779 0.0
C1054 C 0.47188 0.35609 0.50529 0.0
C1055 C 0.44949 0.36395 0.51692 0.0
H1056 H 0.14362 0.6492 0.71859 0.0
H1057 H 0.195 0.68763 0.66772 0.0
H1058 H 0.17605 0.72827 0.67905 0.0
H1059 H 0.15124 0.753 0.70969 0.0
H1060 H 0.10219 0.71428 0.7627 0.0
H1061 H 0.11382 0.67366 0.74411 0.0
C1062 C 0.15029 0.6664 0.70948 0.0
C1063 C 0.17114 0.66547 0.69286 0.0
C1064 C 0.14009 0.68972 0.71689 0.0
C1065 C 0.17915 0.68783 0.6808 0.0
C1066 C 0.1685 0.71112 0.68747 0.0
C1067 C 0.1427 0.73574 0.71688 0.0
C1068 C 0.1264 0.73665 0.73801 0.0
C1069 C 0.14997 0.71236 0.70654 0.0
C1070 C 0.11517 0.71411 0.74676 0.0
C1071 C 0.12181 0.69085 0.73615 0.0
H1072 H 0.51503 0.85475 0.97008 0.0
H1073 H 0.4619 0.91663 0.96512 0.0
H1074 H 0.4936 0.94227 0.94312 0.0
H1075 H 0.53891 0.95007 0.93437 0.0
H1076 H 0.59252 0.88911 0.94323 0.0
H1077 H 0.55815 0.86007 0.95412 0.0
C1078 C 0.51013 0.87362 0.96363 0.0
C1079 C 0.48637 0.88399 0.96987 0.0
C1080 C 0.52875 0.88859 0.95195 0.0
C1081 C 0.48016 0.90826 0.96087 0.0
C1082 C 0.49837 0.92304 0.94844 0.0
C1083 C 0.54291 0.93021 0.93778 0.0
C1084 C 0.56821 0.92179 0.9384 0.0
C1085 C 0.52315 0.91389 0.9452 0.0
C1086 C 0.5732 0.89606 0.94294 0.0
C1087 C 0.55357 0.87949 0.94931 0.0
H1088 H 0.95208 0.05429 0.42202 0.0
H1089 H 0.89866 0.10867 0.45139 0.0
H1090 H 0.93348 0.13546 0.46609 0.0
H1091 H 0.97803 0.13872 0.47832 0.0
H1092 H 0.0315 0.08268 0.45222 0.0
H1093 H -0.00205 0.06164 0.42804 0.0
C1094 C 0.94813 0.07245 0.4308 0.0
C1095 C 0.9229 0.07939 0.43593 0.0
C1096 C 0.96828 0.08723 0.44025 0.0
C1097 C 0.91798 0.10286 0.44747 0.0
C1098 C 0.93787 0.11811 0.45602 0.0
C1099 C 0.98252 0.12223 0.46688 0.0
C1100 C 0.00709 0.11193 0.46761 0.0
C1101 C 0.96299 0.10975 0.45377 0.0
C1102 C 0.01268 0.09087 0.45226 0.0
C1103 C 0.99343 0.0787 0.43854 0.0
loop_
_geom_bond_atom_site_label_1
_geom_bond_atom_site_label_2
_geom_bond_distance
_geom_bond_site_symmetry_2
_ccdc_geom_bond_type
O0 Cd1 2.223 . S
O0 C8 1.315 . S
Cd1 O0 2.223 . S
Cd1 O4 2.297 . S
Cd1 O5 2.439 . S
Cd1 O11 2.240 . S
Cd2 O3 2.240 . S
Cd2 O10 2.223 . S
Cd2 O12 2.297 . S
Cd2 O13 2.439 . S
O3 Cd2 2.240 . S
O3 C8 1.279 . S
O4 Cd1 2.297 . S
O4 C6 1.247 . S
O5 Cd1 2.439 . S
O5 C6 1.208 . S
C6 O4 1.247 . S
C6 O5 1.208 . S
C7 O12 1.247 . S
C7 O13 1.208 . S
C8 O0 1.315 . S
C8 O3 1.279 . S
C9 O10 1.315 . S
C9 O11 1.279 . S
O10 Cd2 2.223 . S
O10 C9 1.315 . S
O11 Cd1 2.240 . S
O11 C9 1.279 . S
O12 Cd2 2.297 . S
O12 C7 1.247 . S
O13 Cd2 2.439 . S
O13 C7 1.208 . S
O14 Cd15 2.223 . S
O14 C22 1.315 . S
Cd15 O14 2.223 . S
Cd15 O18 2.297 1_655 S
Cd15 O19 2.439 . S
Cd15 O25 2.240 . S
Cd16 O17 2.240 . S
Cd16 O24 2.223 . S
Cd16 O26 2.297 . S
Cd16 O27 2.439 . S
O17 Cd16 2.240 . S
O17 C22 1.279 . S
O18 Cd15 2.297 1_455 S
O18 C20 1.247 1_455 S
O19 Cd15 2.439 . S
O19 C20 1.208 . S
C20 O18 1.247 1_655 S
C20 O19 1.208 . S
C21 O26 1.247 . S
C21 O27 1.208 . S
C22 O14 1.315 . S
C22 O17 1.279 . S
C23 O24 1.315 . S
C23 O25 1.279 . S
O24 Cd16 2.223 . S
O24 C23 1.315 . S
O25 Cd15 2.240 . S
O25 C23 1.279 . S
O26 Cd16 2.297 . S
O26 C21 1.247 . S
O27 Cd16 2.439 . S
O27 C21 1.208 . S
O28 Cd29 2.223 . S
O28 C36 1.315 . S
Cd29 O28 2.223 . S
Cd29 O32 2.297 . S
Cd29 O33 2.439 . S
Cd29 O39 2.240 . S
Cd30 O31 2.240 . S
Cd30 O38 2.223 . S
Cd30 O40 2.297 . S
Cd30 O41 2.439 . S
O31 Cd30 2.240 . S
O31 C36 1.279 . S
O32 Cd29 2.297 . S
O32 C34 1.247 . S
O33 Cd29 2.439 . S
O33 C34 1.208 . S
C34 O32 1.247 . S
C34 O33 1.208 . S
C35 O40 1.247 . S
C35 O41 1.208 . S
C36 O28 1.315 . S
C36 O31 1.279 . S
C37 O38 1.315 . S
C37 O39 1.279 . S
O38 Cd30 2.223 . S
O38 C37 1.315 . S
O39 Cd29 2.240 . S
O39 C37 1.279 . S
O40 Cd30 2.297 . S
O40 C35 1.247 . S
O41 Cd30 2.439 . S
O41 C35 1.208 . S
O42 Cd43 2.223 . S
O42 C50 1.315 . S
Cd43 O42 2.223 . S
Cd43 O46 2.297 . S
Cd43 O47 2.439 . S
Cd43 O53 2.240 . S
Cd44 O45 2.240 . S
Cd44 O52 2.223 . S
Cd44 O54 2.297 . S
Cd44 O55 2.439 . S
O45 Cd44 2.240 . S
O45 C50 1.279 . S
O46 Cd43 2.297 . S
O46 C48 1.247 . S
O47 Cd43 2.439 . S
O47 C48 1.208 . S
C48 O46 1.247 . S
C48 O47 1.208 . S
C49 O54 1.247 . S
C49 O55 1.208 . S
C50 O42 1.315 . S
C50 O45 1.279 . S
C51 O52 1.315 . S
C51 O53 1.279 . S
O52 Cd44 2.223 . S
O52 C51 1.315 . S
O53 Cd43 2.240 . S
O53 C51 1.279 . S
O54 Cd44 2.297 . S
O54 C49 1.247 . S
O55 Cd44 2.439 . S
O55 C49 1.208 . S
O56 Cd57 2.223 . S
O56 C64 1.315 . S
Cd57 O56 2.223 . S
Cd57 O60 2.297 . S
Cd57 O61 2.439 . S
Cd57 O67 2.240 . S
Cd58 O59 2.240 . S
Cd58 O66 2.223 . S
Cd58 O68 2.297 . S
Cd58 O69 2.439 . S
O59 Cd58 2.240 . S
O59 C64 1.279 . S
O60 Cd57 2.297 . S
O60 C62 1.247 . S
O61 Cd57 2.439 . S
O61 C62 1.208 . S
C62 O60 1.247 . S
C62 O61 1.208 . S
C63 O68 1.247 . S
C63 O69 1.208 . S
C64 O56 1.315 . S
C64 O59 1.279 . S
C65 O66 1.315 . S
C65 O67 1.279 . S
O66 Cd58 2.223 . S
O66 C65 1.315 . S
O67 Cd57 2.240 . S
O67 C65 1.279 . S
O68 Cd58 2.297 . S
O68 C63 1.247 . S
O69 Cd58 2.439 . S
O69 C63 1.208 . S
O70 Cd71 2.223 . S
O70 C78 1.315 . S
Cd71 O70 2.223 . S
Cd71 O74 2.297 1_455 S
Cd71 O75 2.439 . S
Cd71 O81 2.240 . S
Cd72 O73 2.240 . S
Cd72 O80 2.223 . S
Cd72 O82 2.297 . S
Cd72 O83 2.439 . S
O73 Cd72 2.240 . S
O73 C78 1.279 . S
O74 Cd71 2.297 1_655 S
O74 C76 1.247 1_655 S
O75 Cd71 2.439 . S
O75 C76 1.208 . S
C76 O74 1.247 1_455 S
C76 O75 1.208 . S
C77 O82 1.247 . S
C77 O83 1.208 . S
C78 O70 1.315 . S
C78 O73 1.279 . S
C79 O80 1.315 . S
C79 O81 1.279 . S
O80 Cd72 2.223 . S
O80 C79 1.315 . S
O81 Cd71 2.240 . S
O81 C79 1.279 . S
O82 Cd72 2.297 . S
O82 C77 1.247 . S
O83 Cd72 2.439 . S
O83 C77 1.208 . S
O84 Cd85 2.223 . S
O84 C92 1.315 . S
Cd85 O84 2.223 . S
Cd85 O88 2.297 . S
Cd85 O89 2.439 . S
Cd85 O95 2.240 . S
Cd86 O87 2.240 . S
Cd86 O94 2.223 . S
Cd86 O96 2.297 . S
Cd86 O97 2.439 . S
O87 Cd86 2.240 . S
O87 C92 1.279 . S
O88 Cd85 2.297 . S
O88 C90 1.247 . S
O89 Cd85 2.439 . S
O89 C90 1.208 . S
C90 O88 1.247 . S
C90 O89 1.208 . S
C91 O96 1.247 . S
C91 O97 1.208 . S
C92 O84 1.315 . S
C92 O87 1.279 . S
C93 O94 1.315 . S
C93 O95 1.279 . S
O94 Cd86 2.223 . S
O94 C93 1.315 . S
O95 Cd85 2.240 . S
O95 C93 1.279 . S
O96 Cd86 2.297 . S
O96 C91 1.247 . S
O97 Cd86 2.439 . S
O97 C91 1.208 . S
O98 Cd99 2.223 . S
O98 C106 1.315 . S
Cd99 O98 2.223 . S
Cd99 O102 2.297 . S
Cd99 O103 2.439 . S
Cd99 O109 2.240 . S
Cd100 O101 2.240 . S
Cd100 O108 2.223 . S
Cd100 O110 2.297 . S
Cd100 O111 2.439 . S
O101 Cd100 2.240 . S
O101 C106 1.279 . S
O102 Cd99 2.297 . S
O102 C104 1.247 . S
O103 Cd99 2.439 . S
O103 C104 1.208 . S
C104 O102 1.247 . S
C104 O103 1.208 . S
C105 O110 1.247 . S
C105 O111 1.208 . S
C106 O98 1.315 . S
C106 O101 1.279 . S
C107 O108 1.315 . S
C107 O109 1.279 . S
O108 Cd100 2.223 . S
O108 C107 1.315 . S
O109 Cd99 2.240 . S
O109 C107 1.279 . S
O110 Cd100 2.297 . S
O110 C105 1.247 . S
O111 Cd100 2.439 . S
O111 C105 1.208 . S
O112 Cd113 2.223 . S
O112 C120 1.315 . S
Cd113 O112 2.223 . S
Cd113 O116 2.297 . S
Cd113 O117 2.439 . S
Cd113 O123 2.240 . S
Cd114 O115 2.240 . S
Cd114 O122 2.223 . S
Cd114 O124 2.297 . S
Cd114 O125 2.439 . S
O115 Cd114 2.240 . S
O115 C120 1.279 . S
O116 Cd113 2.297 . S
O116 C118 1.247 . S
O117 Cd113 2.439 . S
O117 C118 1.208 . S
C118 O116 1.247 . S
C118 O117 1.208 . S
C119 O124 1.247 . S
C119 O125 1.208 . S
C120 O112 1.315 . S
C120 O115 1.279 . S
C121 O122 1.315 . S
C121 O123 1.279 . S
O122 Cd114 2.223 . S
O122 C121 1.315 . S
O123 Cd113 2.240 . S
O123 C121 1.279 . S
O124 Cd114 2.297 . S
O124 C119 1.247 . S
O125 Cd114 2.439 . S
O125 C119 1.208 . S
O126 Cd127 2.223 . S
O126 C134 1.315 . S
Cd127 O126 2.223 . S
Cd127 O130 2.297 . S
Cd127 O131 2.439 . S
Cd127 O137 2.240 . S
Cd128 O129 2.240 . S
Cd128 O136 2.223 . S
Cd128 O138 2.297 . S
Cd128 O139 2.439 . S
O129 Cd128 2.240 . S
O129 C134 1.279 . S
O130 Cd127 2.297 . S
O130 C132 1.247 . S
O131 Cd127 2.439 . S
O131 C132 1.208 . S
C132 O130 1.247 . S
C132 O131 1.208 . S
C133 O138 1.247 . S
C133 O139 1.208 . S
C134 O126 1.315 . S
C134 O129 1.279 . S
C135 O136 1.315 . S
C135 O137 1.279 . S
O136 Cd128 2.223 . S
O136 C135 1.315 . S
O137 Cd127 2.240 . S
O137 C135 1.279 . S
O138 Cd128 2.297 . S
O138 C133 1.247 . S
O139 Cd128 2.439 . S
O139 C133 1.208 . S
O140 Cd141 2.223 . S
O140 C148 1.315 . S
Cd141 O140 2.223 . S
Cd141 O144 2.297 . S
Cd141 O145 2.439 . S
Cd141 O151 2.240 . S
Cd142 O143 2.240 . S
Cd142 O150 2.223 . S
Cd142 O152 2.297 . S
Cd142 O153 2.439 . S
O143 Cd142 2.240 . S
O143 C148 1.279 . S
O144 Cd141 2.297 . S
O144 C146 1.247 . S
O145 Cd141 2.439 . S
O145 C146 1.208 . S
C146 O144 1.247 . S
C146 O145 1.208 . S
C147 O152 1.247 . S
C147 O153 1.208 . S
C148 O140 1.315 . S
C148 O143 1.279 . S
C149 O150 1.315 . S
C149 O151 1.279 . S
O150 Cd142 2.223 . S
O150 C149 1.315 . S
O151 Cd141 2.240 . S
O151 C149 1.279 . S
O152 Cd142 2.297 . S
O152 C147 1.247 . S
O153 Cd142 2.439 . S
O153 C147 1.208 . S
O154 Cd155 2.223 . S
O154 C162 1.315 . S
Cd155 O154 2.223 . S
Cd155 O158 2.297 1_554 S
Cd155 O159 2.439 . S
Cd155 O165 2.240 . S
Cd156 O157 2.240 . S
Cd156 O164 2.223 . S
Cd156 O166 2.297 . S
Cd156 O167 2.439 . S
O157 Cd156 2.240 . S
O157 C162 1.279 . S
O158 Cd155 2.297 1_556 S
O158 C160 1.247 1_556 S
O159 Cd155 2.439 . S
O159 C160 1.208 . S
C160 O158 1.247 1_554 S
C160 O159 1.208 . S
C161 O166 1.247 . S
C161 O167 1.208 . S
C162 O154 1.315 . S
C162 O157 1.279 . S
C163 O164 1.315 . S
C163 O165 1.279 . S
O164 Cd156 2.223 . S
O164 C163 1.315 . S
O165 Cd155 2.240 . S
O165 C163 1.279 . S
O166 Cd156 2.297 . S
O166 C161 1.247 . S
O167 Cd156 2.439 . S
O167 C161 1.208 . S
O168 Cd169 2.223 . S
O168 C176 1.315 . S
Cd169 O168 2.223 . S
Cd169 O172 2.297 . S
Cd169 O173 2.439 . S
Cd169 O179 2.240 . S
Cd170 O171 2.240 . S
Cd170 O178 2.223 . S
Cd170 O180 2.297 . S
Cd170 O181 2.439 . S
O171 Cd170 2.240 . S
O171 C176 1.279 . S
O172 Cd169 2.297 . S
O172 C174 1.247 . S
O173 Cd169 2.439 . S
O173 C174 1.208 . S
C174 O172 1.247 . S
C174 O173 1.208 . S
C175 O180 1.247 . S
C175 O181 1.208 . S
C176 O168 1.315 . S
C176 O171 1.279 . S
C177 O178 1.315 . S
C177 O179 1.279 . S
O178 Cd170 2.223 . S
O178 C177 1.315 . S
O179 Cd169 2.240 . S
O179 C177 1.279 . S
O180 Cd170 2.297 . S
O180 C175 1.247 . S
O181 Cd170 2.439 . S
O181 C175 1.208 . S
O182 Cd183 2.223 . S
O182 C190 1.315 . S
Cd183 O182 2.223 . S
Cd183 O186 2.297 1_556 S
Cd183 O187 2.439 . S
Cd183 O193 2.240 . S
Cd184 O185 2.240 . S
Cd184 O192 2.223 . S
Cd184 O194 2.297 . S
Cd184 O195 2.439 . S
O185 Cd184 2.240 . S
O185 C190 1.279 . S
O186 Cd183 2.297 1_554 S
O186 C188 1.247 1_554 S
O187 Cd183 2.439 . S
O187 C188 1.208 . S
C188 O186 1.247 1_556 S
C188 O187 1.208 . S
C189 O194 1.247 . S
C189 O195 1.208 . S
C190 O182 1.315 . S
C190 O185 1.279 . S
C191 O192 1.315 . S
C191 O193 1.279 . S
O192 Cd184 2.223 . S
O192 C191 1.315 . S
O193 Cd183 2.240 . S
O193 C191 1.279 . S
O194 Cd184 2.297 . S
O194 C189 1.247 . S
O195 Cd184 2.439 . S
O195 C189 1.208 . S
O196 Cd197 2.223 . S
O196 C204 1.315 . S
Cd197 O196 2.223 . S
Cd197 O200 2.297 . S
Cd197 O201 2.439 . S
Cd197 O207 2.240 . S
Cd198 O199 2.240 . S
Cd198 O206 2.223 . S
Cd198 O208 2.297 . S
Cd198 O209 2.439 . S
O199 Cd198 2.240 . S
O199 C204 1.279 . S
O200 Cd197 2.297 . S
O200 C202 1.247 . S
O201 Cd197 2.439 . S
O201 C202 1.208 . S
C202 O200 1.247 . S
C202 O201 1.208 . S
C203 O208 1.247 . S
C203 O209 1.208 . S
C204 O196 1.315 . S
C204 O199 1.279 . S
C205 O206 1.315 . S
C205 O207 1.279 . S
O206 Cd198 2.223 . S
O206 C205 1.315 . S
O207 Cd197 2.240 . S
O207 C205 1.279 . S
O208 Cd198 2.297 . S
O208 C203 1.247 . S
O209 Cd198 2.439 . S
O209 C203 1.208 . S
O210 Cd211 2.223 . S
O210 C218 1.315 . S
Cd211 O210 2.223 . S
Cd211 O214 2.297 . S
Cd211 O215 2.439 . S
Cd211 O221 2.240 . S
Cd212 O213 2.240 . S
Cd212 O220 2.223 . S
Cd212 O222 2.297 . S
Cd212 O223 2.439 . S
O213 Cd212 2.240 . S
O213 C218 1.279 . S
O214 Cd211 2.297 . S
O214 C216 1.247 . S
O215 Cd211 2.439 . S
O215 C216 1.208 . S
C216 O214 1.247 . S
C216 O215 1.208 . S
C217 O222 1.247 . S
C217 O223 1.208 . S
C218 O210 1.315 . S
C218 O213 1.279 . S
C219 O220 1.315 . S
C219 O221 1.279 . S
O220 Cd212 2.223 . S
O220 C219 1.315 . S
O221 Cd211 2.240 . S
O221 C219 1.279 . S
O222 Cd212 2.297 . S
O222 C217 1.247 . S
O223 Cd212 2.439 . S
O223 C217 1.208 . S
O224 Cd225 2.223 . S
O224 C232 1.315 . S
Cd225 O224 2.223 . S
Cd225 O228 2.297 . S
Cd225 O229 2.439 . S
Cd225 O235 2.240 . S
Cd226 O227 2.240 . S
Cd226 O234 2.223 . S
Cd226 O236 2.297 . S
Cd226 O237 2.439 . S
O227 Cd226 2.240 . S
O227 C232 1.279 . S
O228 Cd225 2.297 . S
O228 C230 1.247 . S
O229 Cd225 2.439 . S
O229 C230 1.208 . S
C230 O228 1.247 . S
C230 O229 1.208 . S
C231 O236 1.247 . S
C231 O237 1.208 . S
C232 O224 1.315 . S
C232 O227 1.279 . S
C233 O234 1.315 . S
C233 O235 1.279 . S
O234 Cd226 2.223 . S
O234 C233 1.315 . S
O235 Cd225 2.240 . S
O235 C233 1.279 . S
O236 Cd226 2.297 . S
O236 C231 1.247 . S
O237 Cd226 2.439 . S
O237 C231 1.208 . S
O238 Cd239 2.223 . S
O238 C246 1.315 . S
Cd239 O238 2.223 . S
Cd239 O242 2.297 . S
Cd239 O243 2.439 . S
Cd239 O249 2.240 . S
Cd240 O241 2.240 . S
Cd240 O248 2.223 . S
Cd240 O250 2.297 . S
Cd240 O251 2.439 . S
O241 Cd240 2.240 . S
O241 C246 1.279 . S
O242 Cd239 2.297 . S
O242 C244 1.247 . S
O243 Cd239 2.439 . S
O243 C244 1.208 . S
C244 O242 1.247 . S
C244 O243 1.208 . S
C245 O250 1.247 . S
C245 O251 1.208 . S
C246 O238 1.315 . S
C246 O241 1.279 . S
C247 O248 1.315 . S
C247 O249 1.279 . S
O248 Cd240 2.223 . S
O248 C247 1.315 . S
O249 Cd239 2.240 . S
O249 C247 1.279 . S
O250 Cd240 2.297 . S
O250 C245 1.247 . S
O251 Cd240 2.439 . S
O251 C245 1.208 . S
O252 Cd253 2.223 . S
O252 C260 1.315 . S
Cd253 O252 2.223 . S
Cd253 O256 2.297 . S
Cd253 O257 2.439 . S
Cd253 O263 2.240 . S
Cd254 O255 2.240 . S
Cd254 O262 2.223 . S
Cd254 O264 2.297 . S
Cd254 O265 2.439 . S
O255 Cd254 2.240 . S
O255 C260 1.279 . S
O256 Cd253 2.297 . S
O256 C258 1.247 . S
O257 Cd253 2.439 . S
O257 C258 1.208 . S
C258 O256 1.247 . S
C258 O257 1.208 . S
C259 O264 1.247 . S
C259 O265 1.208 . S
C260 O252 1.315 . S
C260 O255 1.279 . S
C261 O262 1.315 . S
C261 O263 1.279 . S
O262 Cd254 2.223 . S
O262 C261 1.315 . S
O263 Cd253 2.240 . S
O263 C261 1.279 . S
O264 Cd254 2.297 . S
O264 C259 1.247 . S
O265 Cd254 2.439 . S
O265 C259 1.208 . S
O266 Cd267 2.223 . S
O266 C274 1.315 . S
Cd267 O266 2.223 . S
Cd267 O270 2.297 . S
Cd267 O271 2.439 . S
Cd267 O277 2.240 . S
Cd268 O269 2.240 . S
Cd268 O276 2.223 . S
Cd268 O278 2.297 . S
Cd268 O279 2.439 . S
O269 Cd268 2.240 . S
O269 C274 1.279 . S
O270 Cd267 2.297 . S
O270 C272 1.247 . S
O271 Cd267 2.439 . S
O271 C272 1.208 . S
C272 O270 1.247 . S
C272 O271 1.208 . S
C273 O278 1.247 . S
C273 O279 1.208 . S
C274 O266 1.315 . S
C274 O269 1.279 . S
C275 O276 1.315 . S
C275 O277 1.279 . S
O276 Cd268 2.223 . S
O276 C275 1.315 . S
O277 Cd267 2.240 . S
O277 C275 1.279 . S
O278 Cd268 2.297 . S
O278 C273 1.247 . S
O279 Cd268 2.439 . S
O279 C273 1.208 . S
O280 Cd281 2.223 . S
O280 C288 1.315 . S
Cd281 O280 2.223 . S
Cd281 O284 2.297 . S
Cd281 O285 2.439 . S
Cd281 O291 2.240 . S
Cd282 O283 2.240 . S
Cd282 O290 2.223 . S
Cd282 O292 2.297 . S
Cd282 O293 2.439 . S
O283 Cd282 2.240 . S
O283 C288 1.279 . S
O284 Cd281 2.297 . S
O284 C286 1.247 . S
O285 Cd281 2.439 . S
O285 C286 1.208 . S
C286 O284 1.247 . S
C286 O285 1.208 . S
C287 O292 1.247 . S
C287 O293 1.208 . S
C288 O280 1.315 . S
C288 O283 1.279 . S
C289 O290 1.315 . S
C289 O291 1.279 . S
O290 Cd282 2.223 . S
O290 C289 1.315 . S
O291 Cd281 2.240 . S
O291 C289 1.279 . S
O292 Cd282 2.297 . S
O292 C287 1.247 . S
O293 Cd282 2.439 . S
O293 C287 1.208 . S
O294 Cd295 2.223 . S
O294 C302 1.315 . S
Cd295 O294 2.223 . S
Cd295 O298 2.297 . S
Cd295 O299 2.439 . S
Cd295 O305 2.240 . S
Cd296 O297 2.240 . S
Cd296 O304 2.223 . S
Cd296 O306 2.297 . S
Cd296 O307 2.439 . S
O297 Cd296 2.240 . S
O297 C302 1.279 . S
O298 Cd295 2.297 . S
O298 C300 1.247 . S
O299 Cd295 2.439 . S
O299 C300 1.208 . S
C300 O298 1.247 . S
C300 O299 1.208 . S
C301 O306 1.247 . S
C301 O307 1.208 . S
C302 O294 1.315 . S
C302 O297 1.279 . S
C303 O304 1.315 . S
C303 O305 1.279 . S
O304 Cd296 2.223 . S
O304 C303 1.315 . S
O305 Cd295 2.240 . S
O305 C303 1.279 . S
O306 Cd296 2.297 . S
O306 C301 1.247 . S
O307 Cd296 2.439 . S
O307 C301 1.208 . S
O308 Cd309 2.223 . S
O308 C316 1.315 . S
Cd309 O308 2.223 . S
Cd309 O312 2.297 1_565 S
Cd309 O313 2.439 . S
Cd309 O319 2.240 . S
Cd310 O311 2.240 . S
Cd310 O318 2.223 . S
Cd310 O320 2.297 . S
Cd310 O321 2.439 . S
O311 Cd310 2.240 . S
O311 C316 1.279 . S
O312 Cd309 2.297 1_545 S
O312 C314 1.247 1_545 S
O313 Cd309 2.439 . S
O313 C314 1.208 . S
C314 O312 1.247 1_565 S
C314 O313 1.208 . S
C315 O320 1.247 . S
C315 O321 1.208 . S
C316 O308 1.315 . S
C316 O311 1.279 . S
C317 O318 1.315 . S
C317 O319 1.279 . S
O318 Cd310 2.223 . S
O318 C317 1.315 . S
O319 Cd309 2.240 . S
O319 C317 1.279 . S
O320 Cd310 2.297 . S
O320 C315 1.247 . S
O321 Cd310 2.439 . S
O321 C315 1.208 . S
O322 Cd323 2.223 . S
O322 C330 1.315 . S
Cd323 O322 2.223 . S
Cd323 O326 2.297 1_545 S
Cd323 O327 2.439 . S
Cd323 O333 2.240 . S
Cd324 O325 2.240 . S
Cd324 O332 2.223 . S
Cd324 O334 2.297 . S
Cd324 O335 2.439 . S
O325 Cd324 2.240 . S
O325 C330 1.279 . S
O326 Cd323 2.297 1_565 S
O326 C328 1.247 1_565 S
O327 Cd323 2.439 . S
O327 C328 1.208 . S
C328 O326 1.247 1_545 S
C328 O327 1.208 . S
C329 O334 1.247 . S
C329 O335 1.208 . S
C330 O322 1.315 . S
C330 O325 1.279 . S
C331 O332 1.315 . S
C331 O333 1.279 . S
O332 Cd324 2.223 . S
O332 C331 1.315 . S
O333 Cd323 2.240 . S
O333 C331 1.279 . S
O334 Cd324 2.297 . S
O334 C329 1.247 . S
O335 Cd324 2.439 . S
O335 C329 1.208 . S
H336 C342 0.930 . S
H337 C345 0.930 . S
H338 C346 0.930 . S
H339 C347 0.930 . S
H340 C350 0.930 . S
H341 C351 0.930 . S
C342 H336 0.930 . S
C342 C343 1.355 . S
C342 C344 1.415 . S
C343 C342 1.355 . S
C343 C345 1.419 . S
C344 C342 1.415 . S
C344 C349 1.425 . S
C344 C351 1.409 . S
C345 H337 0.930 . S
C345 C343 1.419 . S
C345 C346 1.362 . S
C346 H338 0.930 . S
C346 C345 1.362 . S
C346 C349 1.409 . S
C347 H339 0.930 . S
C347 C348 1.355 . S
C347 C349 1.415 . S
C348 C347 1.355 . S
C348 C350 1.419 . S
C349 C344 1.425 . S
C349 C346 1.409 . S
C349 C347 1.415 . S
C350 H340 0.930 . S
C350 C348 1.419 . S
C350 C351 1.362 . S
C351 H341 0.930 . S
C351 C344 1.409 . S
C351 C350 1.362 . S
H352 C358 0.930 . S
H353 C361 0.930 . S
H354 C362 0.930 . S
H355 C363 0.930 . S
H356 C366 0.930 . S
H357 C367 0.930 . S
C358 H352 0.930 . S
C358 C359 1.355 . S
C358 C360 1.415 . S
C359 C358 1.355 . S
C359 C361 1.419 1_455 S
C360 C358 1.415 . S
C360 C365 1.425 . S
C360 C367 1.409 . S
C361 H353 0.930 . S
C361 C359 1.419 1_655 S
C361 C362 1.362 1_655 S
C362 H354 0.930 . S
C362 C361 1.362 1_455 S
C362 C365 1.409 . S
C363 H355 0.930 . S
C363 C364 1.355 . S
C363 C365 1.415 . S
C364 C363 1.355 . S
C364 C366 1.419 . S
C365 C360 1.425 . S
C365 C362 1.409 . S
C365 C363 1.415 . S
C366 H356 0.930 . S
C366 C364 1.419 . S
C366 C367 1.362 . S
C367 H357 0.930 . S
C367 C360 1.409 . S
C367 C366 1.362 . S
H368 C374 0.930 . S
H369 C377 0.930 . S
H370 C378 0.930 . S
H371 C379 0.930 . S
H372 C382 0.930 . S
H373 C383 0.930 . S
C374 H368 0.930 . S
C374 C375 1.355 . S
C374 C376 1.415 . S
C375 C374 1.355 . S
C375 C377 1.419 . S
C376 C374 1.415 . S
C376 C381 1.425 . S
C376 C383 1.409 . S
C377 H369 0.930 . S
C377 C375 1.419 . S
C377 C378 1.362 . S
C378 H370 0.930 . S
C378 C377 1.362 . S
C378 C381 1.409 . S
C379 H371 0.930 . S
C379 C380 1.355 . S
C379 C381 1.415 . S
C380 C379 1.355 . S
C380 C382 1.419 . S
C381 C376 1.425 . S
C381 C378 1.409 . S
C381 C379 1.415 . S
C382 H372 0.930 . S
C382 C380 1.419 . S
C382 C383 1.362 . S
C383 H373 0.930 . S
C383 C376 1.409 . S
C383 C382 1.362 . S
H384 C390 0.930 . S
H385 C393 0.930 . S
H386 C394 0.930 . S
H387 C395 0.930 . S
H388 C398 0.930 . S
H389 C399 0.930 . S
C390 H384 0.930 . S
C390 C391 1.355 . S
C390 C392 1.415 . S
C391 C390 1.355 . S
C391 C393 1.419 . S
C392 C390 1.415 . S
C392 C397 1.425 . S
C392 C399 1.409 . S
C393 H385 0.930 . S
C393 C391 1.419 . S
C393 C394 1.362 . S
C394 H386 0.930 . S
C394 C393 1.362 . S
C394 C397 1.409 . S
C395 H387 0.930 . S
C395 C396 1.355 . S
C395 C397 1.415 . S
C396 C395 1.355 . S
C396 C398 1.419 . S
C397 C392 1.425 . S
C397 C394 1.409 . S
C397 C395 1.415 . S
C398 H388 0.930 . S
C398 C396 1.419 . S
C398 C399 1.362 . S
C399 H389 0.930 . S
C399 C392 1.409 . S
C399 C398 1.362 . S
H400 C406 0.930 . S
H401 C409 0.930 . S
H402 C410 0.930 . S
H403 C411 0.930 . S
H404 C414 0.930 . S
H405 C415 0.930 . S
C406 H400 0.930 . S
C406 C407 1.355 . S
C406 C408 1.415 . S
C407 C406 1.355 . S
C407 C409 1.419 . S
C408 C406 1.415 . S
C408 C413 1.425 . S
C408 C415 1.409 . S
C409 H401 0.930 . S
C409 C407 1.419 . S
C409 C410 1.362 . S
C410 H402 0.930 . S
C410 C409 1.362 . S
C410 C413 1.409 . S
C411 H403 0.930 . S
C411 C412 1.355 . S
C411 C413 1.415 . S
C412 C411 1.355 . S
C412 C414 1.419 . S
C413 C408 1.425 . S
C413 C410 1.409 . S
C413 C411 1.415 . S
C414 H404 0.930 . S
C414 C412 1.419 . S
C414 C415 1.362 . S
C415 H405 0.930 . S
C415 C408 1.409 . S
C415 C414 1.362 . S
H416 C422 0.930 . S
H417 C425 0.930 . S
H418 C426 0.930 . S
H419 C427 0.930 1_455 S
H420 C430 0.930 . S
H421 C431 0.930 . S
C422 H416 0.930 . S
C422 C423 1.355 . S
C422 C424 1.415 . S
C423 C422 1.355 . S
C423 C425 1.419 . S
C424 C422 1.415 . S
C424 C429 1.425 . S
C424 C431 1.409 . S
C425 H417 0.930 . S
C425 C423 1.419 . S
C425 C426 1.362 . S
C426 H418 0.930 . S
C426 C425 1.362 . S
C426 C429 1.409 . S
C427 H419 0.930 1_655 S
C427 C428 1.355 . S
C427 C429 1.415 . S
C428 C427 1.355 . S
C428 C430 1.419 . S
C429 C424 1.425 . S
C429 C426 1.409 . S
C429 C427 1.415 . S
C430 H420 0.930 . S
C430 C428 1.419 . S
C430 C431 1.362 . S
C431 H421 0.930 . S
C431 C424 1.409 . S
C431 C430 1.362 . S
H432 C438 0.930 . S
H433 C441 0.930 . S
H434 C442 0.930 . S
H435 C443 0.930 1_556 S
H436 C446 0.930 . S
H437 C447 0.930 . S
C438 H432 0.930 . S
C438 C439 1.355 . S
C438 C440 1.415 . S
C439 C438 1.355 . S
C439 C441 1.419 . S
C440 C438 1.415 . S
C440 C445 1.425 . S
C440 C447 1.409 . S
C441 H433 0.930 . S
C441 C439 1.419 . S
C441 C442 1.362 . S
C442 H434 0.930 . S
C442 C441 1.362 . S
C442 C445 1.409 . S
C443 H435 0.930 1_554 S
C443 C444 1.355 . S
C443 C445 1.415 . S
C444 C443 1.355 . S
C444 C446 1.419 . S
C445 C440 1.425 . S
C445 C442 1.409 . S
C445 C443 1.415 . S
C446 H436 0.930 . S
C446 C444 1.419 . S
C446 C447 1.362 . S
C447 H437 0.930 . S
C447 C440 1.409 . S
C447 C446 1.362 . S
H448 C454 0.930 . S
H449 C457 0.930 . S
H450 C458 0.930 . S
H451 C459 0.930 . S
H452 C462 0.930 . S
H453 C463 0.930 . S
C454 H448 0.930 . S
C454 C455 1.355 . S
C454 C456 1.415 . S
C455 C454 1.355 . S
C455 C457 1.419 . S
C456 C454 1.415 . S
C456 C461 1.425 . S
C456 C463 1.409 . S
C457 H449 0.930 . S
C457 C455 1.419 . S
C457 C458 1.362 . S
C458 H450 0.930 . S
C458 C457 1.362 . S
C458 C461 1.409 . S
C459 H451 0.930 . S
C459 C460 1.355 . S
C459 C461 1.415 . S
C460 C459 1.355 . S
C460 C462 1.419 . S
C461 C456 1.425 . S
C461 C458 1.409 . S
C461 C459 1.415 . S
C462 H452 0.930 . S
C462 C460 1.419 . S
C462 C463 1.362 . S
C463 H453 0.930 . S
C463 C456 1.409 . S
C463 C462 1.362 . S
H464 C470 0.930 . S
H465 C473 0.930 . S
H466 C474 0.930 . S
H467 C475 0.930 . S
H468 C478 0.930 . S
H469 C479 0.930 . S
C470 H464 0.930 . S
C470 C471 1.355 . S
C470 C472 1.415 . S
C471 C470 1.355 . S
C471 C473 1.419 . S
C472 C470 1.415 . S
C472 C477 1.425 . S
C472 C479 1.409 . S
C473 H465 0.930 . S
C473 C471 1.419 . S
C473 C474 1.362 . S
C474 H466 0.930 . S
C474 C473 1.362 . S
C474 C477 1.409 . S
C475 H467 0.930 . S
C475 C476 1.355 . S
C475 C477 1.415 . S
C476 C475 1.355 . S
C476 C478 1.419 . S
C477 C472 1.425 . S
C477 C474 1.409 . S
C477 C475 1.415 . S
C478 H468 0.930 . S
C478 C476 1.419 . S
C478 C479 1.362 . S
C479 H469 0.930 . S
C479 C472 1.409 . S
C479 C478 1.362 . S
H480 C486 0.930 . S
H481 C489 0.908 1_565 S
H482 C490 0.930 . S
H483 C491 0.930 . S
H484 C494 0.930 . S
H485 C495 0.930 . S
C486 H480 0.930 . S
C486 C487 1.355 . S
C486 C488 1.415 . S
C487 C486 1.355 . S
C487 C489 1.428 . S
C488 C486 1.415 . S
C488 C493 1.425 . S
C488 C495 1.409 . S
C489 H481 0.908 1_545 S
C489 C487 1.428 . S
C489 C490 1.375 . S
C490 H482 0.930 . S
C490 C489 1.375 . S
C490 C493 1.409 . S
C491 H483 0.930 . S
C491 C492 1.355 . S
C491 C493 1.415 . S
C492 C491 1.355 . S
C492 C494 1.419 . S
C493 C488 1.425 . S
C493 C490 1.409 . S
C493 C491 1.415 . S
C494 H484 0.930 . S
C494 C492 1.419 . S
C494 C495 1.362 . S
C495 H485 0.930 . S
C495 C488 1.409 . S
C495 C494 1.362 . S
H496 C502 0.930 . S
H497 C505 0.930 . S
H498 C506 0.930 . S
H499 C507 0.930 . S
H500 C510 0.930 . S
H501 C511 0.930 . S
C502 H496 0.930 . S
C502 C503 1.355 . S
C502 C504 1.415 . S
C503 C502 1.355 . S
C503 C505 1.419 . S
C504 C502 1.415 . S
C504 C509 1.425 . S
C504 C511 1.409 . S
C505 H497 0.930 . S
C505 C503 1.419 . S
C505 C506 1.362 . S
C506 H498 0.930 . S
C506 C505 1.362 . S
C506 C509 1.409 . S
C507 H499 0.930 . S
C507 C508 1.355 . S
C507 C509 1.415 . S
C508 C507 1.355 . S
C508 C510 1.419 . S
C509 C504 1.425 . S
C509 C506 1.409 . S
C509 C507 1.415 . S
C510 H500 0.930 . S
C510 C508 1.419 . S
C510 C511 1.362 . S
C511 H501 0.930 . S
C511 C504 1.409 . S
C511 C510 1.362 . S
H512 C518 0.930 . S
H513 C521 0.930 . S
H514 C522 0.930 . S
H515 C523 0.930 . S
H516 C526 0.930 . S
H517 C527 0.930 . S
C518 H512 0.930 . S
C518 C519 1.355 . S
C518 C520 1.415 . S
C519 C518 1.355 . S
C519 C521 1.419 . S
C520 C518 1.415 . S
C520 C525 1.425 . S
C520 C527 1.409 . S
C521 H513 0.930 . S
C521 C519 1.419 . S
C521 C522 1.362 . S
C522 H514 0.930 . S
C522 C521 1.362 . S
C522 C525 1.409 . S
C523 H515 0.930 . S
C523 C524 1.355 . S
C523 C525 1.415 . S
C524 C523 1.355 . S
C524 C526 1.419 . S
C525 C520 1.425 . S
C525 C522 1.409 . S
C525 C523 1.415 . S
C526 H516 0.930 . S
C526 C524 1.419 . S
C526 C527 1.362 . S
C527 H517 0.930 . S
C527 C520 1.409 . S
C527 C526 1.362 . S
H528 C534 0.930 . S
H529 C537 0.930 . S
H530 C538 0.930 . S
H531 C539 0.930 . S
H532 C542 0.930 . S
H533 C543 0.930 . S
C534 H528 0.930 . S
C534 C535 1.355 . S
C534 C536 1.415 . S
C535 C534 1.355 . S
C535 C537 1.419 . S
C536 C534 1.415 . S
C536 C541 1.425 . S
C536 C543 1.409 . S
C537 H529 0.930 . S
C537 C535 1.419 . S
C537 C538 1.362 . S
C538 H530 0.930 . S
C538 C537 1.362 . S
C538 C541 1.409 . S
C539 H531 0.930 . S
C539 C540 1.355 . S
C539 C541 1.415 . S
C540 C539 1.355 . S
C540 C542 1.419 . S
C541 C536 1.425 . S
C541 C538 1.409 . S
C541 C539 1.415 . S
C542 H532 0.930 . S
C542 C540 1.419 . S
C542 C543 1.362 . S
C543 H533 0.930 . S
C543 C536 1.409 . S
C543 C542 1.362 . S
H544 C550 0.930 . S
H545 C553 0.930 . S
H546 C554 0.930 . S
H547 C555 0.930 . S
H548 C558 0.930 . S
H549 C559 0.930 . S
C550 H544 0.930 . S
C550 C551 1.355 1_545 S
C550 C552 1.415 . S
C551 C550 1.355 1_565 S
C551 C553 1.419 . S
C552 C550 1.415 . S
C552 C557 1.425 . S
C552 C559 1.409 . S
C553 H545 0.930 . S
C553 C551 1.419 . S
C553 C554 1.362 . S
C554 H546 0.930 . S
C554 C553 1.362 . S
C554 C557 1.409 1_565 S
C555 H547 0.930 . S
C555 C556 1.355 . S
C555 C557 1.415 . S
C556 C555 1.355 . S
C556 C558 1.419 . S
C557 C552 1.425 . S
C557 C554 1.409 1_545 S
C557 C555 1.415 . S
C558 H548 0.930 . S
C558 C556 1.419 . S
C558 C559 1.362 . S
C559 H549 0.930 . S
C559 C552 1.409 . S
C559 C558 1.362 . S
H560 C566 0.930 . S
H561 C569 0.930 . S
H562 C570 0.930 . S
H563 C571 0.930 . S
H564 C574 0.930 . S
H565 C575 0.930 . S
C566 H560 0.930 . S
C566 C567 1.355 . S
C566 C568 1.415 . S
C567 C566 1.355 . S
C567 C569 1.419 . S
C568 C566 1.415 . S
C568 C573 1.425 . S
C568 C575 1.409 . S
C569 H561 0.930 . S
C569 C567 1.419 . S
C569 C570 1.362 . S
C570 H562 0.930 . S
C570 C569 1.362 . S
C570 C573 1.409 . S
C571 H563 0.930 . S
C571 C572 1.355 . S
C571 C573 1.415 1_554 S
C572 C571 1.355 . S
C572 C574 1.419 1_554 S
C573 C568 1.425 . S
C573 C570 1.409 . S
C573 C571 1.415 1_556 S
C574 H564 0.930 . S
C574 C572 1.419 1_556 S
C574 C575 1.362 . S
C575 H565 0.930 . S
C575 C568 1.409 . S
C575 C574 1.362 . S
H576 C582 0.930 . S
H577 C585 0.930 . S
H578 C586 0.930 . S
H579 C587 0.930 . S
H580 C590 0.930 . S
H581 C591 0.930 . S
C582 H576 0.930 . S
C582 C583 1.355 1_565 S
C582 C584 1.415 . S
C583 C582 1.355 1_545 S
C583 C585 1.419 . S
C584 C582 1.415 . S
C584 C589 1.425 . S
C584 C591 1.409 . S
C585 H577 0.930 . S
C585 C583 1.419 . S
C585 C586 1.362 . S
C586 H578 0.930 . S
C586 C585 1.362 . S
C586 C589 1.409 1_545 S
C587 H579 0.930 . S
C587 C588 1.355 . S
C587 C589 1.415 . S
C588 C587 1.355 . S
C588 C590 1.419 . S
C589 C584 1.425 . S
C589 C586 1.409 1_565 S
C589 C587 1.415 . S
C590 H580 0.930 . S
C590 C588 1.419 . S
C590 C591 1.362 . S
C591 H581 0.930 . S
C591 C584 1.409 . S
C591 C590 1.362 . S
H592 C598 0.930 . S
H593 C601 0.930 . S
H594 C602 0.930 . S
H595 C603 0.930 . S
H596 C606 0.930 . S
H597 C607 0.930 . S
C598 H592 0.930 . S
C598 C599 1.355 . S
C598 C600 1.415 . S
C599 C598 1.355 . S
C599 C601 1.419 . S
C600 C598 1.415 . S
C600 C605 1.425 . S
C600 C607 1.409 . S
C601 H593 0.930 . S
C601 C599 1.419 . S
C601 C602 1.362 . S
C602 H594 0.930 . S
C602 C601 1.362 . S
C602 C605 1.409 . S
C603 H595 0.930 . S
C603 C604 1.355 . S
C603 C605 1.415 . S
C604 C603 1.355 . S
C604 C606 1.419 . S
C605 C600 1.425 . S
C605 C602 1.409 . S
C605 C603 1.415 . S
C606 H596 0.930 . S
C606 C604 1.419 . S
C606 C607 1.362 . S
C607 H597 0.930 . S
C607 C600 1.409 . S
C607 C606 1.362 . S
H608 C614 0.930 . S
H609 C617 0.930 . S
H610 C618 0.930 . S
H611 C619 0.930 . S
H612 C622 0.930 . S
H613 C623 0.930 . S
C614 H608 0.930 . S
C614 C615 1.355 . S
C614 C616 1.415 . S
C615 C614 1.355 . S
C615 C617 1.419 . S
C616 C614 1.415 . S
C616 C621 1.425 . S
C616 C623 1.409 . S
C617 H609 0.930 . S
C617 C615 1.419 . S
C617 C618 1.362 . S
C618 H610 0.930 . S
C618 C617 1.362 . S
C618 C621 1.409 . S
C619 H611 0.930 . S
C619 C620 1.355 . S
C619 C621 1.415 . S
C620 C619 1.355 . S
C620 C622 1.419 . S
C621 C616 1.425 . S
C621 C618 1.409 . S
C621 C619 1.415 . S
C622 H612 0.930 . S
C622 C620 1.419 . S
C622 C623 1.362 . S
C623 H613 0.930 . S
C623 C616 1.409 . S
C623 C622 1.362 . S
H624 C630 0.930 . S
H625 C633 0.930 . S
H626 C634 0.930 . S
H627 C635 0.930 . S
H628 C638 0.930 . S
H629 C639 0.930 . S
C630 H624 0.930 . S
C630 C631 1.355 1_554 S
C630 C632 1.415 . S
C631 C630 1.355 1_556 S
C631 C633 1.419 . S
C632 C630 1.415 . S
C632 C637 1.425 . S
C632 C639 1.409 . S
C633 H625 0.930 . S
C633 C631 1.419 . S
C633 C634 1.362 . S
C634 H626 0.930 . S
C634 C633 1.362 . S
C634 C637 1.409 1_556 S
C635 H627 0.930 . S
C635 C636 1.355 . S
C635 C637 1.415 . S
C636 C635 1.355 . S
C636 C638 1.419 . S
C637 C632 1.425 . S
C637 C634 1.409 1_554 S
C637 C635 1.415 . S
C638 H628 0.930 . S
C638 C636 1.419 . S
C638 C639 1.362 . S
C639 H629 0.930 . S
C639 C632 1.409 . S
C639 C638 1.362 . S
H640 C646 0.930 . S
H641 C649 0.930 . S
H642 C650 0.930 . S
H643 C651 0.930 . S
H644 C654 0.930 . S
H645 C655 0.930 . S
C646 H640 0.930 . S
C646 C647 1.355 . S
C646 C648 1.415 . S
C647 C646 1.355 . S
C647 C649 1.419 . S
C648 C646 1.415 . S
C648 C653 1.425 . S
C648 C655 1.409 . S
C649 H641 0.930 . S
C649 C647 1.419 . S
C649 C650 1.362 . S
C650 H642 0.930 . S
C650 C649 1.362 . S
C650 C653 1.409 . S
C651 H643 0.930 . S
C651 C652 1.355 . S
C651 C653 1.415 . S
C652 C651 1.355 . S
C652 C654 1.419 . S
C653 C648 1.425 . S
C653 C650 1.409 . S
C653 C651 1.415 . S
C654 H644 0.930 . S
C654 C652 1.419 . S
C654 C655 1.362 . S
C655 H645 0.930 . S
C655 C648 1.409 . S
C655 C654 1.362 . S
H656 C662 0.930 . S
H657 C665 0.930 . S
H658 C666 0.930 . S
H659 C667 0.930 . S
H660 C670 0.930 . S
H661 C671 0.930 . S
C662 H656 0.930 . S
C662 C663 1.355 . S
C662 C664 1.415 . S
C663 C662 1.355 . S
C663 C665 1.419 . S
C664 C662 1.415 . S
C664 C669 1.425 . S
C664 C671 1.409 . S
C665 H657 0.930 . S
C665 C663 1.419 . S
C665 C666 1.362 . S
C666 H658 0.930 . S
C666 C665 1.362 . S
C666 C669 1.409 . S
C667 H659 0.930 . S
C667 C668 1.355 . S
C667 C669 1.415 . S
C668 C667 1.355 . S
C668 C670 1.419 . S
C669 C664 1.425 . S
C669 C666 1.409 . S
C669 C667 1.415 . S
C670 H660 0.930 . S
C670 C668 1.419 . S
C670 C671 1.362 . S
C671 H661 0.930 . S
C671 C664 1.409 . S
C671 C670 1.362 . S
H672 C678 0.930 . S
H673 C681 0.930 . S
H674 C682 0.930 . S
H675 C683 0.930 . S
H676 C686 0.930 . S
H677 C687 0.930 1_455 S
C678 H672 0.930 . S
C678 C679 1.355 . S
C678 C680 1.415 1_455 S
C679 C678 1.355 . S
C679 C681 1.419 1_455 S
C680 C678 1.415 1_655 S
C680 C685 1.425 . S
C680 C687 1.409 . S
C681 H673 0.930 . S
C681 C679 1.419 1_655 S
C681 C682 1.362 . S
C682 H674 0.930 . S
C682 C681 1.362 . S
C682 C685 1.409 . S
C683 H675 0.930 . S
C683 C684 1.355 . S
C683 C685 1.415 . S
C684 C683 1.355 . S
C684 C686 1.419 . S
C685 C680 1.425 . S
C685 C682 1.409 . S
C685 C683 1.415 . S
C686 H676 0.930 . S
C686 C684 1.419 . S
C686 C687 1.362 . S
C687 H677 0.930 1_655 S
C687 C680 1.409 . S
C687 C686 1.362 . S
H688 C694 0.930 . S
H689 C697 0.930 . S
H690 C698 0.930 . S
H691 C699 0.930 . S
H692 C702 0.930 . S
H693 C703 0.930 . S
C694 H688 0.930 . S
C694 C695 1.355 1_455 S
C694 C696 1.415 . S
C695 C694 1.355 1_655 S
C695 C697 1.419 . S
C696 C694 1.415 . S
C696 C701 1.425 . S
C696 C703 1.409 . S
C697 H689 0.930 . S
C697 C695 1.419 . S
C697 C698 1.362 . S
C698 H690 0.930 . S
C698 C697 1.362 . S
C698 C701 1.409 1_655 S
C699 H691 0.930 . S
C699 C700 1.355 . S
C699 C701 1.415 . S
C700 C699 1.355 . S
C700 C702 1.419 . S
C701 C696 1.425 . S
C701 C698 1.409 1_455 S
C701 C699 1.415 . S
C702 H692 0.930 . S
C702 C700 1.419 . S
C702 C703 1.362 . S
C703 H693 0.930 . S
C703 C696 1.409 . S
C703 C702 1.362 . S
H704 C710 0.930 . S
H705 C713 0.930 . S
H706 C714 0.930 . S
H707 C715 0.930 . S
H708 C718 0.930 . S
H709 C719 0.930 . S
C710 H704 0.930 . S
C710 C711 1.355 . S
C710 C712 1.415 . S
C711 C710 1.355 . S
C711 C713 1.419 . S
C712 C710 1.415 . S
C712 C717 1.425 . S
C712 C719 1.409 . S
C713 H705 0.930 . S
C713 C711 1.419 . S
C713 C714 1.362 . S
C714 H706 0.930 . S
C714 C713 1.362 . S
C714 C717 1.409 . S
C715 H707 0.930 . S
C715 C716 1.355 . S
C715 C717 1.415 . S
C716 C715 1.355 . S
C716 C718 1.419 . S
C717 C712 1.425 . S
C717 C714 1.409 . S
C717 C715 1.415 . S
C718 H708 0.930 . S
C718 C716 1.419 . S
C718 C719 1.362 . S
C719 H709 0.930 . S
C719 C712 1.409 . S
C719 C718 1.362 . S
H720 C726 0.930 . S
H721 C729 0.930 . S
H722 C730 0.930 . S
H723 C731 0.930 . S
H724 C734 0.930 . S
H725 C735 0.930 . S
C726 H720 0.930 . S
C726 C727 1.355 . S
C726 C728 1.415 . S
C727 C726 1.355 . S
C727 C729 1.419 . S
C728 C726 1.415 . S
C728 C733 1.425 . S
C728 C735 1.409 . S
C729 H721 0.930 . S
C729 C727 1.419 . S
C729 C730 1.362 . S
C730 H722 0.930 . S
C730 C729 1.362 . S
C730 C733 1.409 . S
C731 H723 0.930 . S
C731 C732 1.355 . S
C731 C733 1.415 . S
C732 C731 1.355 . S
C732 C734 1.419 . S
C733 C728 1.425 . S
C733 C730 1.409 . S
C733 C731 1.415 . S
C734 H724 0.930 . S
C734 C732 1.419 . S
C734 C735 1.362 . S
C735 H725 0.930 . S
C735 C728 1.409 . S
C735 C734 1.362 . S
H736 C742 0.930 . S
H737 C745 0.930 . S
H738 C746 0.930 . S
H739 C747 0.930 . S
H740 C750 0.930 . S
H741 C751 0.930 . S
C742 H736 0.930 . S
C742 C743 1.355 . S
C742 C744 1.415 . S
C743 C742 1.355 . S
C743 C745 1.419 1_565 S
C744 C742 1.415 . S
C744 C749 1.425 . S
C744 C751 1.409 . S
C745 H737 0.930 . S
C745 C743 1.419 1_545 S
C745 C746 1.362 1_545 S
C746 H738 0.930 . S
C746 C745 1.362 1_565 S
C746 C749 1.409 . S
C747 H739 0.930 . S
C747 C748 1.355 . S
C747 C749 1.415 . S
C748 C747 1.355 . S
C748 C750 1.419 . S
C749 C744 1.425 . S
C749 C746 1.409 . S
C749 C747 1.415 . S
C750 H740 0.930 . S
C750 C748 1.419 . S
C750 C751 1.362 . S
C751 H741 0.930 . S
C751 C744 1.409 . S
C751 C750 1.362 . S
H752 C758 0.930 . S
H753 C761 0.930 . S
H754 C762 0.930 . S
H755 C763 0.930 . S
H756 C766 0.930 . S
H757 C767 0.930 . S
C758 H752 0.930 . S
C758 C759 1.355 . S
C758 C760 1.415 . S
C759 C758 1.355 . S
C759 C761 1.419 . S
C760 C758 1.415 . S
C760 C765 1.425 . S
C760 C767 1.409 . S
C761 H753 0.930 . S
C761 C759 1.419 . S
C761 C762 1.362 . S
C762 H754 0.930 . S
C762 C761 1.362 . S
C762 C765 1.409 . S
C763 H755 0.930 . S
C763 C764 1.355 . S
C763 C765 1.415 . S
C764 C763 1.355 . S
C764 C766 1.419 . S
C765 C760 1.425 . S
C765 C762 1.409 . S
C765 C763 1.415 . S
C766 H756 0.930 . S
C766 C764 1.419 . S
C766 C767 1.362 . S
C767 H757 0.930 . S
C767 C760 1.409 . S
C767 C766 1.362 . S
H768 C774 0.930 . S
H769 C777 0.930 . S
H770 C778 0.930 . S
H771 C779 0.930 . S
H772 C782 0.930 . S
H773 C783 0.930 . S
C774 H768 0.930 . S
C774 C775 1.355 . S
C774 C776 1.415 . S
C775 C774 1.355 . S
C775 C777 1.419 . S
C776 C774 1.415 . S
C776 C781 1.425 . S
C776 C783 1.409 1_545 S
C777 H769 0.930 . S
C777 C775 1.419 . S
C777 C778 1.362 . S
C778 H770 0.930 . S
C778 C777 1.362 . S
C778 C781 1.409 . S
C779 H771 0.930 . S
C779 C780 1.355 . S
C779 C781 1.415 1_556 S
C780 C779 1.355 . S
C780 C782 1.419 1_546 S
C781 C776 1.425 . S
C781 C778 1.409 . S
C781 C779 1.415 1_554 S
C782 H772 0.930 . S
C782 C780 1.419 1_564 S
C782 C783 1.362 . S
C783 H773 0.930 . S
C783 C776 1.409 1_565 S
C783 C782 1.362 . S
H784 C790 0.930 . S
H785 C793 0.930 . S
H786 C794 0.930 . S
H787 C795 0.930 . S
H788 C798 0.930 . S
H789 C799 0.930 . S
C790 H784 0.930 . S
C790 C791 1.355 . S
C790 C792 1.415 . S
C791 C790 1.355 . S
C791 C793 1.419 . S
C792 C790 1.415 . S
C792 C797 1.425 . S
C792 C799 1.409 . S
C793 H785 0.930 . S
C793 C791 1.419 . S
C793 C794 1.362 . S
C794 H786 0.930 . S
C794 C793 1.362 . S
C794 C797 1.409 . S
C795 H787 0.930 . S
C795 C796 1.355 . S
C795 C797 1.415 . S
C796 C795 1.355 . S
C796 C798 1.419 . S
C797 C792 1.425 . S
C797 C794 1.409 . S
C797 C795 1.415 . S
C798 H788 0.930 . S
C798 C796 1.419 . S
C798 C799 1.362 . S
C799 H789 0.930 . S
C799 C792 1.409 . S
C799 C798 1.362 . S
H800 C806 0.930 . S
H801 C809 0.925 1_554 S
H802 C810 0.930 . S
H803 C811 0.930 . S
H804 C814 0.930 . S
H805 C815 0.930 . S
C806 H800 0.930 . S
C806 C807 1.355 . S
C806 C808 1.415 1_554 S
C807 C806 1.355 . S
C807 C809 1.419 1_554 S
C808 C806 1.415 1_556 S
C808 C813 1.425 . S
C808 C815 1.409 . S
C809 H801 0.925 1_556 S
C809 C807 1.419 1_556 S
C809 C810 1.362 . S
C810 H802 0.930 . S
C810 C809 1.362 . S
C810 C813 1.409 . S
C811 H803 0.930 . S
C811 C812 1.355 . S
C811 C813 1.415 . S
C812 C811 1.355 . S
C812 C814 1.419 . S
C813 C808 1.425 . S
C813 C810 1.409 . S
C813 C811 1.415 . S
C814 H804 0.930 . S
C814 C812 1.419 . S
C814 C815 1.362 . S
C815 H805 0.930 . S
C815 C808 1.409 . S
C815 C814 1.362 . S
H816 C822 0.930 . S
H817 C825 0.930 . S
H818 C826 0.930 . S
H819 C827 0.930 . S
H820 C830 0.930 . S
H821 C831 0.930 . S
C822 H816 0.930 . S
C822 C823 1.355 . S
C822 C824 1.415 . S
C823 C822 1.355 . S
C823 C825 1.419 . S
C824 C822 1.415 . S
C824 C829 1.425 . S
C824 C831 1.409 . S
C825 H817 0.930 . S
C825 C823 1.419 . S
C825 C826 1.362 . S
C826 H818 0.930 . S
C826 C825 1.362 . S
C826 C829 1.409 . S
C827 H819 0.930 . S
C827 C828 1.355 . S
C827 C829 1.415 . S
C828 C827 1.355 . S
C828 C830 1.419 . S
C829 C824 1.425 . S
C829 C826 1.409 . S
C829 C827 1.415 . S
C830 H820 0.930 . S
C830 C828 1.419 . S
C830 C831 1.362 . S
C831 H821 0.930 . S
C831 C824 1.409 . S
C831 C830 1.362 . S
H832 C838 0.930 . S
H833 C841 0.930 . S
H834 C842 0.930 . S
H835 C843 0.930 . S
H836 C846 0.930 . S
H837 C847 0.930 . S
C838 H832 0.930 . S
C838 C839 1.355 . S
C838 C840 1.415 . S
C839 C838 1.355 . S
C839 C841 1.419 . S
C840 C838 1.415 . S
C840 C845 1.425 . S
C840 C847 1.409 . S
C841 H833 0.930 . S
C841 C839 1.419 . S
C841 C842 1.362 . S
C842 H834 0.930 . S
C842 C841 1.362 . S
C842 C845 1.409 . S
C843 H835 0.930 . S
C843 C844 1.355 . S
C843 C845 1.415 . S
C844 C843 1.355 . S
C844 C846 1.419 . S
C845 C840 1.425 . S
C845 C842 1.409 . S
C845 C843 1.415 . S
C846 H836 0.930 . S
C846 C844 1.419 . S
C846 C847 1.362 . S
C847 H837 0.930 . S
C847 C840 1.409 . S
C847 C846 1.362 . S
H848 C854 0.930 . S
H849 C857 0.930 . S
H850 C858 0.930 . S
H851 C859 0.930 . S
H852 C862 0.930 . S
H853 C863 0.930 . S
C854 H848 0.930 . S
C854 C855 1.355 . S
C854 C856 1.415 . S
C855 C854 1.355 . S
C855 C857 1.419 . S
C856 C854 1.415 . S
C856 C861 1.425 . S
C856 C863 1.409 . S
C857 H849 0.930 . S
C857 C855 1.419 . S
C857 C858 1.362 . S
C858 H850 0.930 . S
C858 C857 1.362 . S
C858 C861 1.409 . S
C859 H851 0.930 . S
C859 C860 1.355 . S
C859 C861 1.415 . S
C860 C859 1.355 . S
C860 C862 1.419 . S
C861 C856 1.425 . S
C861 C858 1.409 . S
C861 C859 1.415 . S
C862 H852 0.930 . S
C862 C860 1.419 . S
C862 C863 1.362 . S
C863 H853 0.930 . S
C863 C856 1.409 . S
C863 C862 1.362 . S
H864 C870 0.930 . S
H865 C873 0.918 1_565 S
H866 C874 0.930 . S
H867 C875 0.930 . S
H868 C878 0.930 . S
H869 C879 0.930 . S
C870 H864 0.930 . S
C870 C871 1.355 . S
C870 C872 1.415 1_565 S
C871 C870 1.355 . S
C871 C873 1.419 1_465 S
C872 C870 1.415 1_545 S
C872 C877 1.425 . S
C872 C879 1.409 . S
C873 H865 0.918 1_545 S
C873 C871 1.419 1_645 S
C873 C874 1.362 . S
C874 H866 0.930 . S
C874 C873 1.362 . S
C874 C877 1.409 1_655 S
C875 H867 0.930 . S
C875 C876 1.355 . S
C875 C877 1.415 . S
C876 C875 1.355 . S
C876 C878 1.419 . S
C877 C872 1.425 . S
C877 C874 1.409 1_455 S
C877 C875 1.415 . S
C878 H868 0.930 . S
C878 C876 1.419 . S
C878 C879 1.362 . S
C879 H869 0.930 . S
C879 C872 1.409 . S
C879 C878 1.362 . S
H880 C886 0.930 . S
H881 C889 0.930 . S
H882 C890 0.930 . S
H883 C891 0.930 . S
H884 C894 0.930 . S
H885 C895 0.930 . S
C886 H880 0.930 . S
C886 C887 1.355 . S
C886 C888 1.415 . S
C887 C886 1.355 . S
C887 C889 1.419 . S
C888 C886 1.415 . S
C888 C893 1.425 . S
C888 C895 1.409 . S
C889 H881 0.930 . S
C889 C887 1.419 . S
C889 C890 1.362 . S
C890 H882 0.930 . S
C890 C889 1.362 . S
C890 C893 1.409 . S
C891 H883 0.930 . S
C891 C892 1.355 . S
C891 C893 1.415 . S
C892 C891 1.355 . S
C892 C894 1.419 . S
C893 C888 1.425 . S
C893 C890 1.409 . S
C893 C891 1.415 . S
C894 H884 0.930 . S
C894 C892 1.419 . S
C894 C895 1.362 . S
C895 H885 0.930 . S
C895 C888 1.409 . S
C895 C894 1.362 . S
H896 C902 0.930 . S
H897 C905 0.930 1_545 S
H898 C906 0.930 . S
H899 C907 0.930 . S
H900 C910 0.930 . S
H901 C911 0.930 . S
C902 H896 0.930 . S
C902 C903 1.355 . S
C902 C904 1.415 1_545 S
C903 C902 1.355 . S
C903 C905 1.419 1_545 S
C904 C902 1.415 1_565 S
C904 C909 1.425 . S
C904 C911 1.409 . S
C905 H897 0.930 1_565 S
C905 C903 1.419 1_565 S
C905 C906 1.362 . S
C906 H898 0.930 . S
C906 C905 1.362 . S
C906 C909 1.409 . S
C907 H899 0.930 . S
C907 C908 1.355 . S
C907 C909 1.415 . S
C908 C907 1.355 . S
C908 C910 1.419 . S
C909 C904 1.425 . S
C909 C906 1.409 . S
C909 C907 1.415 . S
C910 H900 0.930 . S
C910 C908 1.419 . S
C910 C911 1.362 . S
C911 H901 0.930 . S
C911 C904 1.409 . S
C911 C910 1.362 . S
H912 C918 0.930 . S
H913 C921 0.930 . S
H914 C922 0.930 . S
H915 C923 0.930 . S
H916 C926 0.930 . S
H917 C927 0.930 . S
C918 H912 0.930 . S
C918 C919 1.355 . S
C918 C920 1.415 . S
C919 C918 1.355 . S
C919 C921 1.419 . S
C920 C918 1.415 . S
C920 C925 1.425 . S
C920 C927 1.409 . S
C921 H913 0.930 . S
C921 C919 1.419 . S
C921 C922 1.362 . S
C922 H914 0.930 . S
C922 C921 1.362 . S
C922 C925 1.409 . S
C923 H915 0.930 . S
C923 C924 1.355 . S
C923 C925 1.415 . S
C924 C923 1.355 . S
C924 C926 1.419 . S
C925 C920 1.425 . S
C925 C922 1.409 . S
C925 C923 1.415 . S
C926 H916 0.930 . S
C926 C924 1.419 . S
C926 C927 1.362 . S
C927 H917 0.930 . S
C927 C920 1.409 . S
C927 C926 1.362 . S
H928 C934 0.930 . S
H929 C937 0.930 . S
H930 C938 0.930 . S
H931 C939 0.930 . S
H932 C942 0.930 . S
H933 C943 0.944 . S
C934 H928 0.930 . S
C934 C935 1.355 1_455 S
C934 C936 1.415 1_455 S
C935 C934 1.355 1_655 S
C935 C937 1.419 . S
C936 C934 1.415 1_655 S
C936 C941 1.425 . S
C936 C943 1.403 1_655 S
C937 H929 0.930 . S
C937 C935 1.419 . S
C937 C938 1.362 . S
C938 H930 0.930 . S
C938 C937 1.362 . S
C938 C941 1.409 . S
C939 H931 0.930 . S
C939 C940 1.355 . S
C939 C941 1.415 . S
C940 C939 1.355 . S
C940 C942 1.419 . S
C941 C936 1.425 . S
C941 C938 1.409 . S
C941 C939 1.415 . S
C942 H932 0.930 . S
C942 C940 1.419 . S
C942 C943 1.354 1_655 S
C943 H933 0.944 . S
C943 C936 1.403 1_455 S
C943 C942 1.354 1_455 S
H944 C950 0.930 . S
H945 C953 0.930 . S
H946 C954 0.930 . S
H947 C955 0.930 . S
H948 C958 0.930 . S
H949 C959 0.930 . S
C950 H944 0.930 . S
C950 C951 1.355 . S
C950 C952 1.415 . S
C951 C950 1.355 . S
C951 C953 1.419 . S
C952 C950 1.415 . S
C952 C957 1.425 . S
C952 C959 1.409 . S
C953 H945 0.930 . S
C953 C951 1.419 . S
C953 C954 1.362 . S
C954 H946 0.930 . S
C954 C953 1.362 . S
C954 C957 1.409 . S
C955 H947 0.930 . S
C955 C956 1.355 . S
C955 C957 1.415 . S
C956 C955 1.355 . S
C956 C958 1.419 . S
C957 C952 1.425 . S
C957 C954 1.409 . S
C957 C955 1.415 . S
C958 H948 0.930 . S
C958 C956 1.419 . S
C958 C959 1.362 . S
C959 H949 0.930 . S
C959 C952 1.409 . S
C959 C958 1.362 . S
H960 C966 0.930 . S
H961 C969 0.930 . S
H962 C970 0.930 . S
H963 C971 0.930 . S
H964 C974 0.930 . S
H965 C975 0.930 . S
C966 H960 0.930 . S
C966 C967 1.355 . S
C966 C968 1.415 . S
C967 C966 1.355 . S
C967 C969 1.419 . S
C968 C966 1.415 . S
C968 C973 1.425 . S
C968 C975 1.409 . S
C969 H961 0.930 . S
C969 C967 1.419 . S
C969 C970 1.362 . S
C970 H962 0.930 . S
C970 C969 1.362 . S
C970 C973 1.409 . S
C971 H963 0.930 . S
C971 C972 1.355 . S
C971 C973 1.415 . S
C972 C971 1.355 . S
C972 C974 1.419 . S
C973 C968 1.425 . S
C973 C970 1.409 . S
C973 C971 1.415 . S
C974 H964 0.930 . S
C974 C972 1.419 . S
C974 C975 1.362 . S
C975 H965 0.930 . S
C975 C968 1.409 . S
C975 C974 1.362 . S
H976 C982 0.930 . S
H977 C985 0.930 . S
H978 C986 0.930 . S
H979 C987 0.930 . S
H980 C990 0.930 . S
H981 C991 0.930 . S
C982 H976 0.930 . S
C982 C983 1.355 . S
C982 C984 1.415 . S
C983 C982 1.355 . S
C983 C985 1.419 . S
C984 C982 1.415 . S
C984 C989 1.425 . S
C984 C991 1.409 . S
C985 H977 0.930 . S
C985 C983 1.419 . S
C985 C986 1.362 . S
C986 H978 0.930 . S
C986 C985 1.362 . S
C986 C989 1.409 . S
C987 H979 0.930 . S
C987 C988 1.355 . S
C987 C989 1.415 . S
C988 C987 1.355 . S
C988 C990 1.419 . S
C989 C984 1.425 . S
C989 C986 1.409 . S
C989 C987 1.415 . S
C990 H980 0.930 . S
C990 C988 1.419 . S
C990 C991 1.362 . S
C991 H981 0.930 . S
C991 C984 1.409 . S
C991 C990 1.362 . S
H992 C998 0.930 . S
H993 C1001 0.930 . S
H994 C1002 0.930 . S
H995 C1003 0.930 . S
H996 C1006 0.930 . S
H997 C1007 0.930 . S
C998 H992 0.930 . S
C998 C999 1.355 . S
C998 C1000 1.415 . S
C999 C998 1.355 . S
C999 C1001 1.419 . S
C1000 C998 1.415 . S
C1000 C1005 1.425 . S
C1000 C1007 1.409 . S
C1001 H993 0.930 . S
C1001 C999 1.419 . S
C1001 C1002 1.362 . S
C1002 H994 0.930 . S
C1002 C1001 1.362 . S
C1002 C1005 1.409 . S
C1003 H995 0.930 . S
C1003 C1004 1.355 . S
C1003 C1005 1.415 . S
C1004 C1003 1.355 . S
C1004 C1006 1.419 . S
C1005 C1000 1.425 . S
C1005 C1002 1.409 . S
C1005 C1003 1.415 . S
C1006 H996 0.930 . S
C1006 C1004 1.419 . S
C1006 C1007 1.362 . S
C1007 H997 0.930 . S
C1007 C1000 1.409 . S
C1007 C1006 1.362 . S
H1008 C1014 0.930 . S
H1009 C1017 0.930 . S
H1010 C1018 0.930 . S
H1011 C1019 0.930 . S
H1012 C1022 0.930 . S
H1013 C1023 0.930 . S
C1014 H1008 0.930 . S
C1014 C1015 1.355 . S
C1014 C1016 1.415 1_655 S
C1015 C1014 1.355 . S
C1015 C1017 1.419 1_654 S
C1016 C1014 1.415 1_455 S
C1016 C1021 1.425 . S
C1016 C1023 1.409 . S
C1017 H1009 0.930 . S
C1017 C1015 1.419 1_456 S
C1017 C1018 1.362 . S
C1018 H1010 0.930 . S
C1018 C1017 1.362 . S
C1018 C1021 1.409 1_556 S
C1019 H1011 0.930 . S
C1019 C1020 1.355 . S
C1019 C1021 1.415 . S
C1020 C1019 1.355 . S
C1020 C1022 1.419 . S
C1021 C1016 1.425 . S
C1021 C1018 1.409 1_554 S
C1021 C1019 1.415 . S
C1022 H1012 0.930 . S
C1022 C1020 1.419 . S
C1022 C1023 1.362 . S
C1023 H1013 0.930 . S
C1023 C1016 1.409 . S
C1023 C1022 1.362 . S
H1024 C1030 0.930 . S
H1025 C1033 0.930 . S
H1026 C1034 0.930 . S
H1027 C1035 0.930 . S
H1028 C1038 0.930 . S
H1029 C1039 0.930 . S
C1030 H1024 0.930 . S
C1030 C1031 1.355 . S
C1030 C1032 1.415 . S
C1031 C1030 1.355 . S
C1031 C1033 1.419 . S
C1032 C1030 1.415 . S
C1032 C1037 1.425 . S
C1032 C1039 1.409 . S
C1033 H1025 0.930 . S
C1033 C1031 1.419 . S
C1033 C1034 1.362 . S
C1034 H1026 0.930 . S
C1034 C1033 1.362 . S
C1034 C1037 1.409 . S
C1035 H1027 0.930 . S
C1035 C1036 1.355 . S
C1035 C1037 1.415 . S
C1036 C1035 1.355 . S
C1036 C1038 1.419 . S
C1037 C1032 1.425 . S
C1037 C1034 1.409 . S
C1037 C1035 1.415 . S
C1038 H1028 0.930 . S
C1038 C1036 1.419 . S
C1038 C1039 1.362 . S
C1039 H1029 0.930 . S
C1039 C1032 1.409 . S
C1039 C1038 1.362 . S
H1040 C1046 0.930 . S
H1041 C1049 0.930 . S
H1042 C1050 0.930 . S
H1043 C1051 0.930 . S
H1044 C1054 0.930 . S
H1045 C1055 0.930 . S
C1046 H1040 0.930 . S
C1046 C1047 1.355 . S
C1046 C1048 1.415 . S
C1047 C1046 1.355 . S
C1047 C1049 1.419 . S
C1048 C1046 1.415 . S
C1048 C1053 1.425 . S
C1048 C1055 1.409 . S
C1049 H1041 0.930 . S
C1049 C1047 1.419 . S
C1049 C1050 1.362 . S
C1050 H1042 0.930 . S
C1050 C1049 1.362 . S
C1050 C1053 1.409 . S
C1051 H1043 0.930 . S
C1051 C1052 1.355 . S
C1051 C1053 1.415 . S
C1052 C1051 1.355 . S
C1052 C1054 1.419 . S
C1053 C1048 1.425 . S
C1053 C1050 1.409 . S
C1053 C1051 1.415 . S
C1054 H1044 0.930 . S
C1054 C1052 1.419 . S
C1054 C1055 1.362 . S
C1055 H1045 0.930 . S
C1055 C1048 1.409 . S
C1055 C1054 1.362 . S
H1056 C1062 0.930 . S
H1057 C1065 0.930 . S
H1058 C1066 0.930 . S
H1059 C1067 0.930 . S
H1060 C1070 0.930 . S
H1061 C1071 0.930 . S
C1062 H1056 0.930 . S
C1062 C1063 1.355 . S
C1062 C1064 1.415 . S
C1063 C1062 1.355 . S
C1063 C1065 1.419 . S
C1064 C1062 1.415 . S
C1064 C1069 1.425 . S
C1064 C1071 1.409 . S
C1065 H1057 0.930 . S
C1065 C1063 1.419 . S
C1065 C1066 1.362 . S
C1066 H1058 0.930 . S
C1066 C1065 1.362 . S
C1066 C1069 1.409 . S
C1067 H1059 0.930 . S
C1067 C1068 1.355 . S
C1067 C1069 1.415 . S
C1068 C1067 1.355 . S
C1068 C1070 1.419 . S
C1069 C1064 1.425 . S
C1069 C1066 1.409 . S
C1069 C1067 1.415 . S
C1070 H1060 0.930 . S
C1070 C1068 1.419 . S
C1070 C1071 1.362 . S
C1071 H1061 0.930 . S
C1071 C1064 1.409 . S
C1071 C1070 1.362 . S
H1072 C1078 0.930 . S
H1073 C1081 0.930 . S
H1074 C1082 0.930 . S
H1075 C1083 0.930 . S
H1076 C1086 0.930 . S
H1077 C1087 0.930 . S
C1078 H1072 0.930 . S
C1078 C1079 1.355 . S
C1078 C1080 1.415 . S
C1079 C1078 1.355 . S
C1079 C1081 1.419 . S
C1080 C1078 1.415 . S
C1080 C1085 1.425 . S
C1080 C1087 1.409 . S
C1081 H1073 0.930 . S
C1081 C1079 1.419 . S
C1081 C1082 1.362 . S
C1082 H1074 0.930 . S
C1082 C1081 1.362 . S
C1082 C1085 1.409 . S
C1083 H1075 0.930 . S
C1083 C1084 1.355 . S
C1083 C1085 1.415 . S
C1084 C1083 1.355 . S
C1084 C1086 1.419 . S
C1085 C1080 1.425 . S
C1085 C1082 1.409 . S
C1085 C1083 1.415 . S
C1086 H1076 0.930 . S
C1086 C1084 1.419 . S
C1086 C1087 1.362 . S
C1087 H1077 0.930 . S
C1087 C1080 1.409 . S
C1087 C1086 1.362 . S
H1088 C1094 0.930 . S
H1089 C1097 0.930 . S
H1090 C1098 0.930 . S
H1091 C1099 0.930 . S
H1092 C1102 0.930 . S
H1093 C1103 0.930 . S
C1094 H1088 0.930 . S
C1094 C1095 1.355 . S
C1094 C1096 1.415 . S
C1095 C1094 1.355 . S
C1095 C1097 1.419 . S
C1096 C1094 1.415 . S
C1096 C1101 1.425 . S
C1096 C1103 1.409 . S
C1097 H1089 0.930 . S
C1097 C1095 1.419 . S
C1097 C1098 1.362 . S
C1098 H1090 0.930 . S
C1098 C1097 1.362 . S
C1098 C1101 1.409 . S
C1099 H1091 0.930 . S
C1099 C1100 1.355 1_655 S
C1099 C1101 1.415 . S
C1100 C1099 1.355 1_455 S
C1100 C1102 1.419 . S
C1101 C1096 1.425 . S
C1101 C1098 1.409 . S
C1101 C1099 1.415 . S
C1102 H1092 0.930 . S
C1102 C1100 1.419 . S
C1102 C1103 1.362 1_455 S
C1103 H1093 0.930 . S
C1103 C1096 1.409 . S
C1103 C1102 1.362 1_655 S
C343 C132 1.325 . S
C348 C6 1.344 . S
C359 C20 1.344 1_455 S
C364 C146 1.328 . S
C375 C34 1.341 . S
C380 C160 1.337 1_556 S
C391 C48 1.343 . S
C396 C118 1.322 . S
C407 C62 1.344 . S
C412 C216 1.324 . S
C423 C174 1.344 . S
C428 C76 1.324 1_655 S
C439 C90 1.344 . S
C444 C188 1.327 1_554 S
C455 C202 1.323 . S
C460 C104 1.322 . S
C471 C230 1.343 . S
C476 C258 1.323 . S
C487 C314 1.342 1_545 S
C492 C244 1.321 . S
C503 C272 1.344 . S
C508 C328 1.330 1_565 S
C519 C300 1.344 . S
C524 C286 1.328 . S
C535 C287 1.872 . S
C540 C7 1.861 . S
C551 C21 1.867 . S
C556 C245 1.806 . S
C567 C35 1.875 . S
C572 C259 1.817 . S
C583 C49 1.880 . S
C588 C273 1.835 . S
C599 C63 1.795 . S
C604 C329 1.852 . S
C615 C301 1.879 . S
C620 C77 1.843 . S
C631 C315 1.853 . S
C636 C91 1.796 . S
C647 C231 1.865 . S
C652 C105 1.869 . S
C663 C217 1.798 . S
C668 C119 1.816 . S
C679 C133 1.803 . S
C684 C175 1.864 . S
C695 C189 1.871 . S
C700 C147 1.810 . S
C711 C203 1.827 . S
C716 C161 1.794 . S
C727 C9 1.247 . S
C732 C232 1.306 . S
C743 C330 1.292 1_565 S
C748 C23 1.275 . S
C759 C302 1.309 . S
C764 C37 1.187 . S
C775 C51 1.271 . S
C780 C316 1.269 1_545 S
C791 C65 1.226 . S
C796 C246 1.272 . S
C807 C260 1.271 . S
C812 C79 1.226 . S
C823 C274 1.311 . S
C828 C93 1.193 . S
C839 C288 1.290 . S
C844 C107 1.186 . S
C855 C8 1.304 . S
C860 C121 1.251 . S
C871 C22 1.271 1_455 S
C876 C135 1.276 . S
C887 C36 1.269 . S
C892 C149 1.236 . S
C903 C50 1.274 . S
C908 C163 1.281 . S
C919 C64 1.278 . S
C924 C177 1.283 . S
C935 C78 1.311 1_655 S
C940 C191 1.196 . S
C951 C205 1.218 . S
C956 C92 1.274 . S
C967 C106 1.286 . S
C972 C219 1.191 . S
C983 C120 1.268 . S
C988 C233 1.257 . S
C999 C247 1.249 . S
C1004 C176 1.305 . S
C1015 C190 1.268 1_554 S
C1020 C261 1.250 . S
C1031 C275 1.199 . S
C1036 C204 1.312 . S
C1047 C289 1.276 . S
C1052 C218 1.271 . S
C1063 C303 1.193 . S
C1068 C148 1.285 . S
C1079 C162 1.302 1_556 S
C1084 C317 1.256 . S
C1095 C331 1.180 . S
C1100 C134 1.298 . S
