# Generated by pormake.
# Topology bsn, (6)-cn, num edge types: 1
# Building blocks:
#     Node 0, Type 0, BuildingBlock: CIFDUS_clean_sbu_1, # of connection points: 6
#     Node 1, Type 0, BuildingBlock: CIFDUS_clean_sbu_1, # of connection points: 6
#     Node 2, Type 0, BuildingBlock: CIFDUS_clean_sbu_1, # of connection points: 6
#     Node 3, Type 0, BuildingBlock: CIFDUS_clean_sbu_1, # of connection points: 6
#     Edge 4, Type (0, 0), BuildingBlock: UVAHIK_clean_linker_0, # of connection points: 2
#     Edge 5, Type (0, 0), BuildingBlock: UVAHIK_clean_linker_0, # of connection points: 2
#     Edge 6, Type (0, 0), BuildingBlock: UVAHIK_clean_linker_0, # of connection points: 2
#     Edge 7, Type (0, 0), BuildingBlock: UVAHIK_clean_linker_0, # of connection points: 2
#     Edge 8, Type (0, 0), BuildingBlock: UVAHIK_clean_linker_0, # of connection points: 2
#     Edge 9, Type (0, 0), BuildingBlock: UVAHIK_clean_linker_0, # of connection points: 2
#     Edge 10, Type (0, 0), BuildingBlock: UVAHIK_clean_linker_0, # of connection points: 2
#     Edge 11, Type (0, 0), BuildingBlock: UVAHIK_clean_linker_0, # of connection points: 2
#     Edge 12, Type (0, 0), BuildingBlock: UVAHIK_clean_linker_0, # of connection points: 2
#     Edge 13, Type (0, 0), BuildingBlock: UVAHIK_clean_linker_0, # of connection points: 2
#     Edge 14, Type (0, 0), BuildingBlock: UVAHIK_clean_linker_0, # of connection points: 2
#     Edge 15, Type (0, 0), BuildingBlock: UVAHIK_clean_linker_0, # of connection points: 2
# Relax obj value: 0.171
# Max RMSD: 0.185
# Mean RMSD: 0.185
data_MOF--net-bsn--node1-CIFDUS_clean_sbu_1--edge1-UVAHIK_clean_linker_0
_symmetry_space_group_name_H-M    P1
_symmetry_Int_Tables_number       1
_symmetry_cell_setting            triclinic
loop_
_symmetry_equiv_pos_as_xyz
'x, y, z'
_cell_length_a     39.555437
_cell_length_b     38.733498
_cell_length_c     20.179771
_cell_angle_alpha  90.247148
_cell_angle_beta   98.011321
_cell_angle_gamma 89.877648
loop_
_atom_site_label
_atom_site_type_symbol
_atom_site_fract_x
_atom_site_fract_y
_atom_site_fract_z
_atom_type_partial_charge
O0 O 0.09501 0.24604 0.34363 0.0
Mn1 Mn 0.04151 0.25712 0.34161 0.0
O2 O 0.11897 0.29609 0.31882 0.0
Mn3 Mn 0.07833 0.31907 0.29467 0.0
O4 O 0.98887 0.27222 0.33282 0.0
O5 O 0.03504 0.20209 0.33729 0.0
Mn6 Mn 0.99595 0.2051 0.37317 0.0
O7 O 0.04594 0.25567 0.44613 0.0
O8 O 0.95918 0.22433 0.32152 0.0
O9 O 0.03635 0.25838 0.2362 0.0
O10 O 0.0568 0.30973 0.20977 0.0
O11 O 0.99792 0.1604 0.35962 0.0
O12 O 1.00472 0.2184 0.46195 0.0
C13 C 0.05128 0.34342 0.36422 0.0
C14 C 0.12133 0.26422 0.33347 0.0
C15 C 0.96047 0.25645 0.31574 0.0
C16 C 0.02615 0.16884 0.33823 0.0
C17 C 0.02831 0.23929 0.48462 0.0
C18 C 0.04174 0.28141 0.19304 0.0
O19 O 0.04946 0.31003 0.35175 0.0
O20 O 0.07143 0.36078 0.33147 0.0
O21 O 0.97079 0.74969 0.59531 0.0
Mn22 Mn 0.02446 0.75984 0.59915 0.0
O23 O 0.94784 0.7998 0.62437 0.0
Mn24 Mn 0.98875 0.8225 0.64806 0.0
O25 O 0.0772 0.7749 0.60947 0.0
O26 O 0.02959 0.70435 0.60194 0.0
Mn27 Mn 0.07115 0.71089 0.57704 0.0
O28 O 0.02144 0.75829 0.49535 0.0
O29 O 0.10413 0.7278 0.64159 0.0
O30 O 0.02873 0.7607 0.70454 0.0
O31 O 0.01068 0.81296 0.73257 0.0
O32 O 0.07015 0.66575 0.57899 0.0
O33 O 0.06911 0.72839 0.49082 0.0
C34 C 0.01567 0.8461 0.57757 0.0
C35 C 0.94488 0.76817 0.60732 0.0
C36 C 0.10384 0.76001 0.64001 0.0
C37 C 0.04049 0.67187 0.59673 0.0
C38 C 0.0442 0.74611 0.46219 0.0
C39 C 0.02441 0.78392 0.74842 0.0
O40 O 0.01704 0.81277 0.58997 0.0
O41 O 0.99607 0.86395 0.6111 0.0
O42 O 0.59471 0.7459 0.84007 0.0
Mn43 Mn 0.54101 0.75688 0.83515 0.0
O44 O 0.61958 0.79637 0.82158 0.0
Mn45 Mn 0.57923 0.81917 0.79394 0.0
O46 O 0.48829 0.77235 0.82445 0.0
O47 O 0.53575 0.70141 0.82955 0.0
Mn48 Mn 0.49402 0.70723 0.8539 0.0
O49 O 0.54311 0.75424 0.93879 0.0
O50 O 0.46151 0.7254 0.79013 0.0
O51 O 0.53772 0.75916 0.72967 0.0
O52 O 0.56026 0.81011 0.7071 0.0
O53 O 0.49494 0.66222 0.84682 0.0
O54 O 0.49643 0.72256 0.94201 0.0
C55 C 0.55024 0.84298 0.86086 0.0
C56 C 0.62149 0.76422 0.83364 0.0
C57 C 0.46174 0.75759 0.79324 0.0
C58 C 0.52498 0.66875 0.83148 0.0
C59 C 0.52105 0.74046 -0.02853 0.0
C60 C 0.5451 0.78215 0.68793 0.0
O61 O 0.54866 0.8097 0.84736 0.0
O62 O 0.57126 0.86063 0.83067 0.0
O63 O 0.47007 0.24815 0.09311 0.0
Mn64 Mn 0.52377 0.25822 0.09777 0.0
O65 O 0.44711 0.29817 0.12269 0.0
Mn66 Mn 0.48799 0.32088 0.14662 0.0
O67 O 0.57661 0.27321 0.10934 0.0
O68 O 0.52862 0.20266 0.1 0.0
Mn69 Mn 0.57038 0.20933 0.07612 0.0
O70 O 0.52112 0.25686 -0.00593 0.0
O71 O 0.60279 0.2258 0.14212 0.0
O72 O 0.52766 0.25891 0.20315 0.0
O73 O 0.50985 0.31127 0.23116 0.0
O74 O 0.56935 0.1642 0.07731 0.0
O75 O 0.56894 0.22715 -0.0098 0.0
C76 C 0.51505 0.34448 0.07637 0.0
C77 C 0.44415 0.2666 0.10522 0.0
C78 C 0.60277 0.25801 0.14099 0.0
C79 C 0.53955 0.1702 0.0945 0.0
C80 C 0.54406 0.24482 0.96124 0.0
C81 C 0.52343 0.28217 0.24703 0.0
O82 O 0.51639 0.31116 0.08877 0.0
O83 O 0.49533 0.36233 0.10962 0.0
C84 C 1.00672 0.38665 0.379 0.0
C85 C 0.03157 0.36339 0.40902 0.0
C86 C 0.99872 0.417 0.41211 0.0
C87 C 0.03999 0.47671 0.54607 0.0
H88 H 0.95634 0.52915 0.50237 0.0
C89 C 0.03183 0.61524 0.64815 0.0
C90 C 0.01933 0.64046 0.60093 0.0
C91 C 0.02608 0.57989 0.63504 0.0
C92 C 0.97995 0.51497 0.51511 0.0
H93 H 0.06632 0.35335 0.49927 0.0
H94 H 0.05102 0.40489 0.55901 0.0
H95 H 0.95928 0.46959 0.46311 0.0
H96 H 0.98909 0.64784 0.50427 0.0
H97 H 0.97815 0.58646 0.48194 0.0
H98 H 0.06081 0.52208 0.59718 0.0
C99 C 0.03808 0.40028 0.50889 0.0
C100 C 0.98172 0.48059 0.49235 0.0
C101 C 0.04624 0.37 0.47536 0.0
C102 C 0.99808 0.62937 0.54296 0.0
C103 C 0.99231 0.5939 0.52965 0.0
C104 C 0.03812 0.51088 0.56915 0.0
C105 C 0.01545 0.42526 0.4766 0.0
C106 C 0.01198 0.46089 0.50658 0.0
C107 C 1.0078 0.56849 0.57389 0.0
C108 C 1.00824 0.53085 0.55351 0.0
H109 H 0.99585 0.38309 0.32709 0.0
H110 H 0.98141 0.43523 0.3846 0.0
H111 H 0.0641 0.46326 0.55721 0.0
H112 H 0.04909 0.62265 0.69239 0.0
H113 H 0.03782 0.5614 0.67129 0.0
C114 C 0.65986 0.72275 0.78163 0.0
C115 C 0.65581 0.74861 0.82928 0.0
C116 C 0.69177 0.71744 0.75892 0.0
C117 C 0.76872 0.76898 0.7387 0.0
H118 H 0.80874 0.68333 0.68664 0.0
C119 C 0.90592 0.72493 0.6525 0.0
C120 C 0.91027 0.75313 0.61057 0.0
C121 C 0.87407 0.71881 0.67481 0.0
C122 C 0.79795 0.70749 0.70099 0.0
H123 H 0.68299 0.78727 0.89351 0.0
H124 H 0.73817 0.77738 0.85619 0.0
H125 H 0.75622 0.68214 0.73944 0.0
H126 H 0.88367 0.79533 0.55587 0.0
H127 H 0.82863 0.7842 0.59253 0.0
H128 H 0.80987 0.7945 0.70062 0.0
C129 C 0.71677 0.7616 0.83495 0.0
C130 C 0.76766 0.70682 0.731 0.0
C131 C 0.68511 0.76689 0.85737 0.0
C132 C 0.88131 0.7732 0.58757 0.0
C133 C 0.84974 0.76713 0.60962 0.0
C134 C 0.79849 0.76967 0.70816 0.0
C135 C 0.72036 0.73798 0.78309 0.0
C136 C 0.75268 0.73763 0.75082 0.0
C137 C 0.84588 0.74085 0.65602 0.0
C138 C 0.81371 0.73903 0.68855 0.0
H139 H 0.63777 0.7088 0.75753 0.0
H140 H 0.69336 0.69898 0.71901 0.0
H141 H 0.75796 0.79335 0.75204 0.0
H142 H 0.92776 0.70944 0.67263 0.0
H143 H 0.87225 0.6983 0.71042 0.0
C144 C 0.51773 0.37347 0.96718 0.0
C145 C 0.5345 0.36375 0.03049 0.0
C146 C 0.52714 0.40367 0.93553 0.0
C147 C 0.56439 0.48959 -0.0161 0.0
H148 H 0.55671 0.50492 0.79291 0.0
C149 C 0.57077 0.62924 0.88434 0.0
C150 C 0.54674 0.63752 0.82853 0.0
C151 C 0.57816 0.5945 0.90182 0.0
C152 C 0.55872 0.50139 0.84647 0.0
H153 H 0.57524 0.37776 0.10869 0.0
H154 H 0.59238 0.42956 0.05317 0.0
H155 H 0.55237 0.44641 0.83544 0.0
H156 H 0.51373 0.61542 0.74479 0.0
H157 H 0.52662 0.55571 0.77383 0.0
H158 H 0.56912 0.54437 -0.00457 0.0
C159 C 0.57177 0.41404 0.02773 0.0
C160 C 0.55632 0.46755 0.87094 0.0
C161 C 0.56248 0.38376 0.05901 0.0
C162 C 0.53311 0.61016 0.78705 0.0
C163 C 0.54027 0.57555 0.80452 0.0
C164 C 0.56644 0.5234 0.9595 0.0
C165 C 0.55326 0.42539 0.96688 0.0
C166 C 0.55874 0.46107 0.94012 0.0
C167 C 0.56152 0.56695 0.86424 0.0
C168 C 0.5632 0.53015 0.89021 0.0
H169 H 0.49524 0.3595 0.94495 0.0
H170 H 0.51204 0.4114 0.88903 0.0
H171 H 0.5658 0.48605 0.03741 0.0
H172 H 0.58108 0.64945 0.91856 0.0
H173 H 0.59547 0.58938 0.94714 0.0
C174 C 0.90685 0.27889 0.35156 0.0
C175 C 0.92734 0.27476 0.30057 0.0
C176 C 0.87179 0.2858 0.33617 0.0
C177 C 0.80175 0.31129 0.20093 0.0
H178 H 0.74717 0.25156 0.29708 0.0
C179 C 0.65657 0.28527 0.11373 0.0
C180 C 0.63596 0.27542 0.16174 0.0
C181 C 0.69165 0.29168 0.13235 0.0
C182 C 0.76167 0.26913 0.27046 0.0
H183 H 0.92731 0.2753 0.19346 0.0
H184 H 0.86618 0.28822 0.16626 0.0
H185 H 0.80868 0.25209 0.32629 0.0
H186 H 0.63549 0.26601 0.26704 0.0
H187 H 0.69572 0.27922 0.3004 0.0
H188 H 0.75455 0.32827 0.14488 0.0
C189 C 0.87722 0.28655 0.21836 0.0
C190 C 0.79727 0.2693 0.28726 0.0
C191 C 0.91234 0.2794 0.23387 0.0
C192 C 0.65065 0.27409 0.22911 0.0
C193 C 0.68547 0.28102 0.24793 0.0
C194 C 0.76594 0.3114 0.18446 0.0
C195 C 0.85618 0.28856 0.26922 0.0
C196 C 0.81795 0.29022 0.25266 0.0
C197 C 0.70697 0.28849 0.1996 0.0
C198 C 0.74523 0.29015 0.21877 0.0
H199 H 0.91754 0.27457 0.40329 0.0
H200 H 0.85662 0.2876 0.37678 0.0
H201 H 0.81677 0.32789 0.17335 0.0
H202 H 0.64613 0.28553 0.06116 0.0
H203 H 0.70704 0.29704 0.09327 0.0
C204 C 0.38059 0.27147 0.08468 0.0
C205 C 0.40955 0.25153 0.10829 0.0
C206 C 0.34901 0.26557 0.10677 0.0
C207 C 0.29741 0.20666 0.20033 0.0
H208 H 0.2571 0.29294 0.24823 0.0
C209 C 0.18491 0.26738 0.35587 0.0
C210 C 0.15565 0.24869 0.32903 0.0
C211 C 0.21646 0.26197 0.33311 0.0
C212 C 0.26796 0.26846 0.23578 0.0
H213 H 0.42704 0.20828 0.17153 0.0
H214 H 0.37153 0.19745 0.20944 0.0
H215 H 0.30887 0.29367 0.19635 0.0
H216 H 0.13755 0.20811 0.25907 0.0
H217 H 0.19298 0.19808 0.21997 0.0
H218 H 0.25595 0.18162 0.24024 0.0
C219 C 0.37334 0.21769 0.17327 0.0
C220 C 0.29764 0.2689 0.20496 0.0
C221 C 0.40519 0.22362 0.15089 0.0
C222 C 0.15963 0.22238 0.28225 0.0
C223 C 0.19144 0.21694 0.2592 0.0
C224 C 0.26722 0.20623 0.23065 0.0
C225 C 0.34514 0.23963 0.15386 0.0
C226 C 0.31298 0.2381 0.18649 0.0
C227 C 0.21997 0.23782 0.28212 0.0
C228 C 0.25214 0.23721 0.24938 0.0
H229 H 0.38298 0.29339 0.05249 0.0
H230 H 0.32789 0.28254 0.08916 0.0
H231 H 0.3083 0.18238 0.18689 0.0
H232 H 0.1828 0.28814 0.39125 0.0
H233 H 0.23782 0.27805 0.35338 0.0
C234 C 0.41165 0.79108 0.82419 0.0
C235 C 0.42846 0.77539 0.77494 0.0
C236 C 0.37655 0.79885 0.81094 0.0
C237 C 0.30291 0.8096 0.67573 0.0
H238 H 0.24926 0.76966 0.80248 0.0
C239 C 0.15842 0.7802 0.60478 0.0
C240 C 0.13734 0.77757 0.65501 0.0
C241 C 0.19341 0.78733 0.62101 0.0
C242 C 0.26352 0.7818 0.76695 0.0
H243 H 0.42209 0.75685 0.67273 0.0
H244 H 0.36156 0.77182 0.6486 0.0
H245 H 0.31119 0.7704 0.82769 0.0
H246 H 0.13611 0.78119 0.76149 0.0
H247 H 0.19653 0.79575 0.78997 0.0
H248 H 0.2555 0.82129 0.615 0.0
C249 C 0.37521 0.77802 0.6975 0.0
C250 C 0.2993 0.78207 0.78154 0.0
C251 C 0.40998 0.76958 0.71119 0.0
C252 C 0.15164 0.7838 0.7216 0.0
C253 C 0.18655 0.79146 0.73789 0.0
C254 C 0.26708 0.80987 0.66155 0.0
C255 C 0.35769 0.79166 0.7478 0.0
C256 C 0.31955 0.79535 0.7356 0.0
C257 C 0.20839 0.79216 0.68814 0.0
C258 C 0.24667 0.79529 0.70624 0.0
H259 H 0.42502 0.79507 0.87424 0.0
H260 H 0.36391 0.80946 0.85076 0.0
H261 H 0.31766 0.82034 0.63942 0.0
H262 H 0.14828 0.77445 0.55324 0.0
H263 H 0.20895 0.78698 0.58092 0.0
C264 C 0.50224 0.88239 0.87513 0.0
C265 C 0.5299 0.86244 0.90525 0.0
C266 C 0.49267 0.91309 0.90526 0.0
C267 C 0.50755 0.9684 0.06098 0.0
H268 H 0.49544 0.04372 0.93414 0.0
C269 C 0.53252 0.11174 0.13962 0.0
C270 C 0.51837 0.13871 0.09805 0.0
C271 C 0.52518 0.07699 0.12329 0.0
C272 C 0.49795 0.02317 -0.02933 0.0
H273 H 0.56814 0.85865 -0.0075 0.0
H274 H 0.55093 0.91127 0.04625 0.0
H275 H 0.49839 0.9848 0.89396 0.0
H276 H 0.48329 0.14986 0.00874 0.0
H277 H 0.46879 0.08953 -0.01804 0.0
H278 H 0.50756 1.00687 0.13782 0.0
C279 C 0.53626 0.90323 -0.00058 0.0
C280 C 0.49975 0.98902 0.94734 0.0
C281 C 0.54591 0.8726 0.969 0.0
C282 C 0.49395 0.12996 0.04307 0.0
C283 C 0.48645 0.09508 0.02666 0.0
C284 C 0.50548 1.0026 0.08437 0.0
C285 C 0.5106 0.92492 0.96647 0.0
C286 C 0.50515 0.96101 -0.00799 0.0
C287 C 0.50334 0.06788 0.06454 0.0
C288 C 0.50128 0.03079 0.03972 0.0
H289 H 0.49006 0.87603 0.82512 0.0
H290 H 0.47237 0.92854 0.87863 0.0
H291 H 0.51128 0.94771 0.09718 0.0
H292 H 0.55223 0.11738 0.18114 0.0
H293 H 0.53906 0.05738 0.15402 0.0
C294 C 0.05999 0.88904 0.56079 0.0
C295 C 0.03519 0.86542 0.53184 0.0
C296 C 0.0682 0.91859 0.52604 0.0
C297 C 0.02772 0.97626 0.38876 0.0
H298 H 0.112 0.02777 0.42968 0.0
C299 C 0.03624 0.11346 0.28332 0.0
C300 C 0.04883 0.13891 0.33033 0.0
C301 C 0.04211 0.07815 0.29652 0.0
C302 C 0.08821 0.01386 0.41767 0.0
H303 H 1.00071 0.85385 0.44183 0.0
H304 H 0.01617 0.90418 0.37952 0.0
H305 H 0.10839 0.96903 0.47174 0.0
H306 H 0.08024 0.14671 0.42571 0.0
H307 H 0.09145 0.08554 0.44804 0.0
H308 H 1.00732 0.02113 0.33578 0.0
C309 C 0.02898 0.90039 0.42995 0.0
C310 C 0.08606 0.97995 0.44206 0.0
C311 C 0.02069 0.87085 0.46505 0.0
C312 C 0.07099 0.12809 0.38722 0.0
C313 C 0.07687 0.09269 0.40065 0.0
C314 C 0.02994 0.00998 0.36414 0.0
C315 C 0.0517 0.92571 0.46096 0.0
C316 C 0.05556 0.96063 0.42897 0.0
C317 C 0.06079 0.06706 0.35737 0.0
C318 C 0.06005 0.02966 0.37879 0.0
H319 H 0.07076 0.88638 0.61292 0.0
H320 H 0.08554 0.93714 0.55261 0.0
H321 H 1.00346 0.96306 0.37835 0.0
H322 H 0.0184 0.12061 0.2398 0.0
H323 H 0.03 0.05948 0.26081 0.0
C324 C 0.02975 0.30318 0.07638 0.0
C325 C 0.03282 0.27493 0.12036 0.0
C326 C 0.02747 0.2982 0.00754 0.0
C327 C 0.05097 0.235 0.88494 0.0
H328 H 1.00027 0.29731 0.7575 0.0
C329 C 0.03229 0.21462 0.59863 0.0
C330 C 0.03518 0.2435 0.55791 0.0
C331 C 0.03414 0.21828 0.66776 0.0
C332 C 0.0149 0.28003 0.79263 0.0
H333 H 0.03382 0.2191 0.12617 0.0
H334 H 0.02909 0.21021 0.0048 0.0
H335 H 0.99424 0.30186 0.87582 0.0
H336 H 0.04328 0.29872 0.55736 0.0
H337 H 0.04592 0.3054 0.67929 0.0
H338 H 0.07099 0.21275 0.801 0.0
C339 C 0.02918 0.23634 0.02412 0.0
C340 C 0.01138 0.2825 0.86043 0.0
C341 C 0.03145 0.24136 0.09353 0.0
C342 C 0.0412 0.27608 0.58783 0.0
C343 C 0.04241 0.27988 0.65728 0.0
C344 C 0.0542 0.2323 0.81696 0.0
C345 C 0.02804 0.26479 -0.01953 0.0
C346 C 0.02957 0.2602 0.9076 0.0
C347 C 0.03836 0.25102 0.6977 0.0
C348 C 0.03635 0.25493 0.7702 0.0
H349 H 0.03046 0.32942 0.09535 0.0
H350 H 0.02696 0.32076 -0.02409 0.0
H351 H 0.06588 0.21784 0.91985 0.0
H352 H 0.02777 0.18916 0.57671 0.0
H353 H 0.03075 0.19565 0.69748 0.0
C354 C 0.04024 0.80458 0.86545 0.0
C355 C 0.03285 0.77679 0.82081 0.0
C356 C 0.04223 0.79978 0.93428 0.0
C357 C 0.04977 0.73428 0.06861 0.0
H358 H 0.00857 0.80685 0.16396 0.0
C359 C 0.0693 0.74129 0.35561 0.0
C360 C 0.04176 0.7512 0.38879 0.0
C361 C 0.06707 0.74368 0.28626 0.0
C362 C 0.01983 0.78616 0.13811 0.0
H363 H 0.02338 0.72177 0.8135 0.0
H364 H 0.02655 0.71326 0.93455 0.0
H365 H 1.00778 0.81109 0.04346 0.0
H366 H 0.99043 0.77216 0.37466 0.0
H367 H 0.98635 0.7761 0.25266 0.0
H368 H 0.06118 0.70901 0.16317 0.0
C369 C 0.03105 0.73881 0.91608 0.0
C370 C 0.01984 0.7888 0.06905 0.0
C371 C 0.02934 0.74361 0.84677 0.0
C372 C 0.0121 0.76434 0.35072 0.0
C373 C 0.00982 0.76663 0.28083 0.0
C374 C 0.04967 0.73158 0.13771 0.0
C375 C 0.03653 0.76709 0.96048 0.0
C376 C 0.03527 0.76317 0.03353 0.0
C377 C 0.03719 0.75593 0.24774 0.0
C378 C 0.03515 0.75774 0.17352 0.0
H379 H 0.04351 0.83042 0.84697 0.0
H380 H 0.04758 0.82193 0.96696 0.0
H381 H 0.0619 0.71409 0.043 0.0
H382 H 0.09276 0.73142 0.3832 0.0
H383 H 0.08899 0.73608 0.26285 0.0
C384 C 0.54236 0.77104 0.07991 0.0
C385 C 0.52419 0.74382 0.04535 0.0
C386 C 0.54399 0.77403 0.14963 0.0
C387 C 0.50135 0.74251 0.29259 0.0
H388 H 0.58275 0.77869 0.39894 0.0
C389 C 0.52595 0.7444 0.5865 0.0
C390 C 0.5382 0.77612 0.61434 0.0
C391 C 0.52295 0.7388 0.51698 0.0
C392 C 0.5598 0.76857 0.36982 0.0
H393 H 0.49444 0.69779 0.0572 0.0
H394 H 0.49831 0.70225 0.17781 0.0
H395 H 0.581 0.7726 0.27834 0.0
H396 H 0.55537 0.82729 0.58979 0.0
H397 H 0.55041 0.81729 0.47055 0.0
H398 H 0.48054 0.73808 0.385 0.0
C399 C 0.51031 0.72208 0.15151 0.0
C400 C 0.55868 0.76532 0.30052 0.0
C401 C 0.50828 0.71939 0.08208 0.0
C402 C 0.54623 0.80231 0.57082 0.0
C403 C 0.54357 0.79661 0.50214 0.0
C404 C 0.50267 0.74539 0.36214 0.0
C405 C 0.5279 0.74958 0.18642 0.0
C406 C 0.52931 0.75256 0.26069 0.0
C407 C 0.5325 0.76469 0.47442 0.0
C408 C 0.53175 0.75886 0.40136 0.0
H409 H 0.5547 0.79038 0.05298 0.0
H410 H 0.55739 0.79588 0.17444 0.0
H411 H 0.47804 0.73308 0.26377 0.0
H412 H 0.51949 0.7237 0.61838 0.0
H413 H 0.51421 0.71392 0.49676 0.0
C414 C 0.5394 0.3029 0.36398 0.0
C415 C 0.53194 0.27508 0.31945 0.0
C416 C 0.5416 0.29814 0.43286 0.0
C417 C 0.54973 0.23281 0.56751 0.0
H418 H 0.50847 0.30531 0.66292 0.0
C419 C 0.56934 0.23998 0.85478 0.0
C420 C 0.54176 0.24988 0.88784 0.0
C421 C 0.56716 0.24232 0.78539 0.0
C422 C 0.51977 0.28464 0.63707 0.0
H423 H 0.5226 0.22003 0.31239 0.0
H424 H 0.52615 0.21159 0.43356 0.0
H425 H 0.50741 0.30943 0.54236 0.0
H426 H 0.49038 0.27071 0.87346 0.0
H427 H 0.48638 0.27456 0.75151 0.0
H428 H 0.56145 0.20767 0.66217 0.0
C429 C 0.53051 0.23714 0.41494 0.0
C430 C 0.51961 0.28721 0.56795 0.0
C431 C 0.52858 0.2419 0.34557 0.0
C432 C 0.5121 0.26292 0.84963 0.0
C433 C 0.50986 0.26517 0.77976 0.0
C434 C 0.54981 0.23018 0.63669 0.0
C435 C 0.53607 0.26546 0.45924 0.0
C436 C 0.53503 0.2616 0.53239 0.0
C437 C 0.53728 0.25451 0.74676 0.0
C438 C 0.53524 0.2563 0.67252 0.0
H439 H 0.54257 0.32873 0.3454 0.0
H440 H 0.547 0.32033 0.46544 0.0
H441 H 0.56187 0.21264 0.54186 0.0
H442 H 0.59279 0.23014 0.88248 0.0
H443 H 0.5891 0.23473 0.76206 0.0
loop_
_geom_bond_atom_site_label_1
_geom_bond_atom_site_label_2
_geom_bond_distance
_geom_bond_site_symmetry_2
_ccdc_geom_bond_type
O0 Mn1 2.163 . S
O0 C14 1.244 . S
Mn1 O0 2.163 . S
Mn1 O4 2.160 1_455 S
Mn1 O5 2.221 . S
Mn1 O7 2.163 . S
Mn1 O9 2.160 . S
Mn1 O19 2.221 . S
O2 Mn3 2.087 . S
O2 C14 1.256 . S
Mn3 O2 2.087 . S
Mn3 O10 2.089 . S
Mn3 O19 2.290 . S
Mn3 O20 2.251 . S
O4 Mn1 2.160 1_655 S
O4 C15 1.239 . S
O5 Mn1 2.221 . S
O5 Mn6 2.290 1_455 S
O5 C16 1.278 . S
Mn6 O5 2.290 1_655 S
Mn6 O8 2.089 . S
Mn6 O11 2.251 1_655 S
Mn6 O12 2.087 1_655 S
O7 Mn1 2.163 . S
O7 C17 1.244 . S
O8 Mn6 2.089 . S
O8 C15 1.256 . S
O9 Mn1 2.160 . S
O9 C18 1.239 . S
O10 Mn3 2.089 . S
O10 C18 1.256 . S
O11 Mn6 2.251 1_455 S
O11 C16 1.241 . S
O12 Mn6 2.087 1_455 S
O12 C17 1.256 . S
C13 O19 1.278 . S
C13 O20 1.241 . S
C14 O0 1.244 . S
C14 O2 1.256 . S
C15 O4 1.239 . S
C15 O8 1.256 . S
C16 O5 1.278 . S
C16 O11 1.241 . S
C17 O7 1.244 . S
C17 O12 1.256 . S
C18 O9 1.239 . S
C18 O10 1.256 . S
O19 Mn1 2.221 . S
O19 Mn3 2.290 . S
O19 C13 1.278 . S
O20 Mn3 2.251 . S
O20 C13 1.241 . S
O21 Mn22 2.163 1_655 S
O21 C35 1.244 . S
Mn22 O21 2.163 1_455 S
Mn22 O25 2.160 . S
Mn22 O26 2.221 . S
Mn22 O28 2.163 . S
Mn22 O30 2.160 . S
Mn22 O40 2.221 . S
O23 Mn24 2.087 . S
O23 C35 1.256 . S
Mn24 O23 2.087 . S
Mn24 O31 2.089 . S
Mn24 O40 2.290 1_655 S
Mn24 O41 2.251 . S
O25 Mn22 2.160 . S
O25 C36 1.239 . S
O26 Mn22 2.221 . S
O26 Mn27 2.290 . S
O26 C37 1.278 . S
Mn27 O26 2.290 . S
Mn27 O29 2.089 . S
Mn27 O32 2.251 . S
Mn27 O33 2.087 . S
O28 Mn22 2.163 . S
O28 C38 1.244 . S
O29 Mn27 2.089 . S
O29 C36 1.256 . S
O30 Mn22 2.160 . S
O30 C39 1.239 . S
O31 Mn24 2.089 . S
O31 C39 1.256 1_655 S
O32 Mn27 2.251 . S
O32 C37 1.241 . S
O33 Mn27 2.087 . S
O33 C38 1.256 . S
C34 O40 1.278 . S
C34 O41 1.241 1_455 S
C35 O21 1.244 . S
C35 O23 1.256 . S
C36 O25 1.239 . S
C36 O29 1.256 . S
C37 O26 1.278 . S
C37 O32 1.241 . S
C38 O28 1.244 . S
C38 O33 1.256 . S
C39 O30 1.239 . S
C39 O31 1.256 1_455 S
O40 Mn22 2.221 . S
O40 Mn24 2.290 1_455 S
O40 C34 1.278 . S
O41 Mn24 2.251 . S
O41 C34 1.241 1_655 S
O42 Mn43 2.163 . S
O42 C56 1.244 . S
Mn43 O42 2.163 . S
Mn43 O46 2.160 . S
Mn43 O47 2.221 . S
Mn43 O49 2.163 . S
Mn43 O51 2.160 . S
Mn43 O61 2.221 . S
O44 Mn45 2.087 . S
O44 C56 1.256 . S
Mn45 O44 2.087 . S
Mn45 O52 2.089 . S
Mn45 O61 2.290 . S
Mn45 O62 2.251 . S
O46 Mn43 2.160 . S
O46 C57 1.239 . S
O47 Mn43 2.221 . S
O47 Mn48 2.290 . S
O47 C58 1.278 . S
Mn48 O47 2.290 . S
Mn48 O50 2.089 . S
Mn48 O53 2.251 . S
Mn48 O54 2.087 1_556 S
O49 Mn43 2.163 . S
O49 C59 1.244 1_556 S
O50 Mn48 2.089 . S
O50 C57 1.256 . S
O51 Mn43 2.160 . S
O51 C60 1.239 . S
O52 Mn45 2.089 . S
O52 C60 1.256 . S
O53 Mn48 2.251 . S
O53 C58 1.241 . S
O54 Mn48 2.087 1_554 S
O54 C59 1.256 . S
C55 O61 1.278 . S
C55 O62 1.241 . S
C56 O42 1.244 . S
C56 O44 1.256 . S
C57 O46 1.239 . S
C57 O50 1.256 . S
C58 O47 1.278 . S
C58 O53 1.241 . S
C59 O49 1.244 1_554 S
C59 O54 1.256 . S
C60 O51 1.239 . S
C60 O52 1.256 . S
O61 Mn43 2.221 . S
O61 Mn45 2.290 . S
O61 C55 1.278 . S
O62 Mn45 2.251 . S
O62 C55 1.241 . S
O63 Mn64 2.163 . S
O63 C77 1.244 . S
Mn64 O63 2.163 . S
Mn64 O67 2.160 . S
Mn64 O68 2.221 . S
Mn64 O70 2.163 . S
Mn64 O72 2.160 . S
Mn64 O82 2.221 . S
O65 Mn66 2.087 . S
O65 C77 1.256 . S
Mn66 O65 2.087 . S
Mn66 O73 2.089 . S
Mn66 O82 2.290 . S
Mn66 O83 2.251 . S
O67 Mn64 2.160 . S
O67 C78 1.239 . S
O68 Mn64 2.221 . S
O68 Mn69 2.290 . S
O68 C79 1.278 . S
Mn69 O68 2.290 . S
Mn69 O71 2.089 . S
Mn69 O74 2.251 . S
Mn69 O75 2.087 1_554 S
O70 Mn64 2.163 . S
O70 C80 1.244 1_554 S
O71 Mn69 2.089 . S
O71 C78 1.256 . S
O72 Mn64 2.160 . S
O72 C81 1.239 . S
O73 Mn66 2.089 . S
O73 C81 1.256 . S
O74 Mn69 2.251 . S
O74 C79 1.241 . S
O75 Mn69 2.087 1_556 S
O75 C80 1.256 . S
C76 O82 1.278 . S
C76 O83 1.241 . S
C77 O63 1.244 . S
C77 O65 1.256 . S
C78 O67 1.239 . S
C78 O71 1.256 . S
C79 O68 1.278 . S
C79 O74 1.241 . S
C80 O70 1.244 1_556 S
C80 O75 1.256 . S
C81 O72 1.239 . S
C81 O73 1.256 . S
O82 Mn64 2.221 . S
O82 Mn66 2.290 . S
O82 C76 1.278 . S
O83 Mn66 2.251 . S
O83 C76 1.241 . S
C84 C85 1.349 1_655 S
C84 C86 1.327 . S
C84 H109 0.950 . S
C85 C84 1.349 1_455 S
C85 C101 1.349 . S
C86 C84 1.327 . S
C86 C105 1.429 1_655 S
C86 H110 0.950 . S
C87 C104 1.574 . S
C87 C106 1.368 . S
C87 H111 0.949 . S
H88 C92 0.949 . S
C89 C90 1.349 . S
C89 C91 1.327 . S
C89 H112 0.950 . S
C90 C89 1.349 . S
C90 C102 1.349 1_455 S
C91 C89 1.327 . S
C91 C107 1.429 . S
C91 H113 0.950 . S
C92 H88 0.949 . S
C92 C100 1.574 . S
C92 C108 1.368 1_655 S
H93 C101 0.950 . S
H94 C99 0.950 . S
H95 C100 0.949 . S
H96 C102 0.950 . S
H97 C103 0.950 . S
H98 C104 0.949 . S
C99 H94 0.950 . S
C99 C101 1.327 . S
C99 C105 1.429 . S
C100 C92 1.574 . S
C100 H95 0.949 . S
C100 C106 1.368 1_655 S
C101 C85 1.349 . S
C101 H93 0.950 . S
C101 C99 1.327 . S
C102 C90 1.349 1_655 S
C102 H96 0.950 . S
C102 C103 1.327 . S
C103 H97 0.950 . S
C103 C102 1.327 . S
C103 C107 1.429 1_655 S
C104 C87 1.574 . S
C104 H98 0.949 . S
C104 C108 1.368 . S
C105 C86 1.429 1_455 S
C105 C99 1.429 . S
C105 C106 1.523 . S
C106 C87 1.368 . S
C106 C100 1.368 1_455 S
C106 C105 1.523 . S
C107 C91 1.429 . S
C107 C103 1.429 1_455 S
C107 C108 1.523 . S
C108 C92 1.368 1_455 S
C108 C104 1.368 . S
C108 C107 1.523 . S
H109 C84 0.950 . S
H110 C86 0.950 . S
H111 C87 0.949 . S
H112 C89 0.950 . S
H113 C91 0.950 . S
C114 C115 1.349 . S
C114 C116 1.327 . S
C114 H139 0.950 . S
C115 C114 1.349 . S
C115 C131 1.349 . S
C116 C114 1.327 . S
C116 C135 1.429 . S
C116 H140 0.950 . S
C117 C134 1.574 . S
C117 C136 1.368 . S
C117 H141 0.949 . S
H118 C122 0.949 . S
C119 C120 1.349 . S
C119 C121 1.327 . S
C119 H142 0.950 . S
C120 C119 1.349 . S
C120 C132 1.349 . S
C121 C119 1.327 . S
C121 C137 1.429 . S
C121 H143 0.950 . S
C122 H118 0.949 . S
C122 C130 1.574 . S
C122 C138 1.368 . S
H123 C131 0.950 . S
H124 C129 0.950 . S
H125 C130 0.949 . S
H126 C132 0.950 . S
H127 C133 0.950 . S
H128 C134 0.949 . S
C129 H124 0.950 . S
C129 C131 1.327 . S
C129 C135 1.429 . S
C130 C122 1.574 . S
C130 H125 0.949 . S
C130 C136 1.368 . S
C131 C115 1.349 . S
C131 H123 0.950 . S
C131 C129 1.327 . S
C132 C120 1.349 . S
C132 H126 0.950 . S
C132 C133 1.327 . S
C133 H127 0.950 . S
C133 C132 1.327 . S
C133 C137 1.429 . S
C134 C117 1.574 . S
C134 H128 0.949 . S
C134 C138 1.368 . S
C135 C116 1.429 . S
C135 C129 1.429 . S
C135 C136 1.523 . S
C136 C117 1.368 . S
C136 C130 1.368 . S
C136 C135 1.523 . S
C137 C121 1.429 . S
C137 C133 1.429 . S
C137 C138 1.523 . S
C138 C122 1.368 . S
C138 C134 1.368 . S
C138 C137 1.523 . S
H139 C114 0.950 . S
H140 C116 0.950 . S
H141 C117 0.949 . S
H142 C119 0.950 . S
H143 C121 0.950 . S
C144 C145 1.349 . S
C144 C146 1.327 . S
C144 H169 0.950 . S
C145 C144 1.349 . S
C145 C161 1.349 . S
C146 C144 1.327 . S
C146 C165 1.429 . S
C146 H170 0.950 1_554 S
C147 C164 1.574 . S
C147 C166 1.368 . S
C147 H171 0.949 . S
H148 C152 0.949 . S
C149 C150 1.349 . S
C149 C151 1.327 . S
C149 H172 0.950 . S
C150 C149 1.349 . S
C150 C162 1.349 . S
C151 C149 1.327 . S
C151 C167 1.429 . S
C151 H173 0.950 1_556 S
C152 H148 0.949 . S
C152 C160 1.574 . S
C152 C168 1.368 . S
H153 C161 0.950 . S
H154 C159 0.950 . S
H155 C160 0.949 . S
H156 C162 0.950 . S
H157 C163 0.950 . S
H158 C164 0.949 . S
C159 H154 0.950 . S
C159 C161 1.327 . S
C159 C165 1.429 . S
C160 C152 1.574 . S
C160 H155 0.949 . S
C160 C166 1.368 1_556 S
C161 C145 1.349 . S
C161 H153 0.950 . S
C161 C159 1.327 . S
C162 C150 1.349 . S
C162 H156 0.950 . S
C162 C163 1.327 . S
C163 H157 0.950 . S
C163 C162 1.327 . S
C163 C167 1.429 . S
C164 C147 1.574 . S
C164 H158 0.949 . S
C164 C168 1.368 1_554 S
C165 C146 1.429 . S
C165 C159 1.429 . S
C165 C166 1.523 . S
C166 C147 1.368 . S
C166 C160 1.368 1_554 S
C166 C165 1.523 . S
C167 C151 1.429 . S
C167 C163 1.429 . S
C167 C168 1.523 . S
C168 C152 1.368 . S
C168 C164 1.368 1_556 S
C168 C167 1.523 . S
H169 C144 0.950 . S
H170 C146 0.950 1_556 S
H171 C147 0.949 . S
H172 C149 0.950 . S
H173 C151 0.950 1_554 S
C174 C175 1.349 . S
C174 C176 1.327 . S
C174 H199 0.950 . S
C175 C174 1.349 . S
C175 C191 1.349 . S
C176 C174 1.327 . S
C176 C195 1.429 . S
C176 H200 0.950 . S
C177 C194 1.574 . S
C177 C196 1.368 . S
C177 H201 0.949 . S
H178 C182 0.949 . S
C179 C180 1.349 . S
C179 C181 1.327 . S
C179 H202 0.950 . S
C180 C179 1.349 . S
C180 C192 1.349 . S
C181 C179 1.327 . S
C181 C197 1.429 . S
C181 H203 0.950 . S
C182 H178 0.949 . S
C182 C190 1.574 . S
C182 C198 1.368 . S
H183 C191 0.950 . S
H184 C189 0.950 . S
H185 C190 0.949 . S
H186 C192 0.950 . S
H187 C193 0.950 . S
H188 C194 0.949 . S
C189 H184 0.950 . S
C189 C191 1.327 . S
C189 C195 1.429 . S
C190 C182 1.574 . S
C190 H185 0.949 . S
C190 C196 1.368 . S
C191 C175 1.349 . S
C191 H183 0.950 . S
C191 C189 1.327 . S
C192 C180 1.349 . S
C192 H186 0.950 . S
C192 C193 1.327 . S
C193 H187 0.950 . S
C193 C192 1.327 . S
C193 C197 1.429 . S
C194 C177 1.574 . S
C194 H188 0.949 . S
C194 C198 1.368 . S
C195 C176 1.429 . S
C195 C189 1.429 . S
C195 C196 1.523 . S
C196 C177 1.368 . S
C196 C190 1.368 . S
C196 C195 1.523 . S
C197 C181 1.429 . S
C197 C193 1.429 . S
C197 C198 1.523 . S
C198 C182 1.368 . S
C198 C194 1.368 . S
C198 C197 1.523 . S
H199 C174 0.950 . S
H200 C176 0.950 . S
H201 C177 0.949 . S
H202 C179 0.950 . S
H203 C181 0.950 . S
C204 C205 1.349 . S
C204 C206 1.327 . S
C204 H229 0.950 . S
C205 C204 1.349 . S
C205 C221 1.349 . S
C206 C204 1.327 . S
C206 C225 1.429 . S
C206 H230 0.950 . S
C207 C224 1.574 . S
C207 C226 1.368 . S
C207 H231 0.949 . S
H208 C212 0.949 . S
C209 C210 1.349 . S
C209 C211 1.327 . S
C209 H232 0.950 . S
C210 C209 1.349 . S
C210 C222 1.349 . S
C211 C209 1.327 . S
C211 C227 1.429 . S
C211 H233 0.950 . S
C212 H208 0.949 . S
C212 C220 1.574 . S
C212 C228 1.368 . S
H213 C221 0.950 . S
H214 C219 0.950 . S
H215 C220 0.949 . S
H216 C222 0.950 . S
H217 C223 0.950 . S
H218 C224 0.949 . S
C219 H214 0.950 . S
C219 C221 1.327 . S
C219 C225 1.429 . S
C220 C212 1.574 . S
C220 H215 0.949 . S
C220 C226 1.368 . S
C221 C205 1.349 . S
C221 H213 0.950 . S
C221 C219 1.327 . S
C222 C210 1.349 . S
C222 H216 0.950 . S
C222 C223 1.327 . S
C223 H217 0.950 . S
C223 C222 1.327 . S
C223 C227 1.429 . S
C224 C207 1.574 . S
C224 H218 0.949 . S
C224 C228 1.368 . S
C225 C206 1.429 . S
C225 C219 1.429 . S
C225 C226 1.523 . S
C226 C207 1.368 . S
C226 C220 1.368 . S
C226 C225 1.523 . S
C227 C211 1.429 . S
C227 C223 1.429 . S
C227 C228 1.523 . S
C228 C212 1.368 . S
C228 C224 1.368 . S
C228 C227 1.523 . S
H229 C204 0.950 . S
H230 C206 0.950 . S
H231 C207 0.949 . S
H232 C209 0.950 . S
H233 C211 0.950 . S
C234 C235 1.349 . S
C234 C236 1.327 . S
C234 H259 0.950 . S
C235 C234 1.349 . S
C235 C251 1.349 . S
C236 C234 1.327 . S
C236 C255 1.429 . S
C236 H260 0.950 . S
C237 C254 1.574 . S
C237 C256 1.368 . S
C237 H261 0.949 . S
H238 C242 0.949 . S
C239 C240 1.349 . S
C239 C241 1.327 . S
C239 H262 0.950 . S
C240 C239 1.349 . S
C240 C252 1.349 . S
C241 C239 1.327 . S
C241 C257 1.429 . S
C241 H263 0.950 . S
C242 H238 0.949 . S
C242 C250 1.574 . S
C242 C258 1.368 . S
H243 C251 0.950 . S
H244 C249 0.950 . S
H245 C250 0.949 . S
H246 C252 0.950 . S
H247 C253 0.950 . S
H248 C254 0.949 . S
C249 H244 0.950 . S
C249 C251 1.327 . S
C249 C255 1.429 . S
C250 C242 1.574 . S
C250 H245 0.949 . S
C250 C256 1.368 . S
C251 C235 1.349 . S
C251 H243 0.950 . S
C251 C249 1.327 . S
C252 C240 1.349 . S
C252 H246 0.950 . S
C252 C253 1.327 . S
C253 H247 0.950 . S
C253 C252 1.327 . S
C253 C257 1.429 . S
C254 C237 1.574 . S
C254 H248 0.949 . S
C254 C258 1.368 . S
C255 C236 1.429 . S
C255 C249 1.429 . S
C255 C256 1.523 . S
C256 C237 1.368 . S
C256 C250 1.368 . S
C256 C255 1.523 . S
C257 C241 1.429 . S
C257 C253 1.429 . S
C257 C258 1.523 . S
C258 C242 1.368 . S
C258 C254 1.368 . S
C258 C257 1.523 . S
H259 C234 0.950 . S
H260 C236 0.950 . S
H261 C237 0.949 . S
H262 C239 0.950 . S
H263 C241 0.950 . S
C264 C265 1.349 . S
C264 C266 1.327 . S
C264 H289 0.950 . S
C265 C264 1.349 . S
C265 C281 1.349 . S
C266 C264 1.327 . S
C266 C285 1.429 . S
C266 H290 0.950 . S
C267 C284 1.574 1_565 S
C267 C286 1.368 1_554 S
C267 H291 0.949 . S
H268 C272 0.949 . S
C269 C270 1.349 . S
C269 C271 1.327 . S
C269 H292 0.950 . S
C270 C269 1.349 . S
C270 C282 1.349 . S
C271 C269 1.327 . S
C271 C287 1.429 . S
C271 H293 0.950 . S
C272 H268 0.949 . S
C272 C280 1.574 1_545 S
C272 C288 1.368 1_556 S
H273 C281 0.950 1_554 S
H274 C279 0.950 . S
H275 C280 0.949 . S
H276 C282 0.950 . S
H277 C283 0.950 1_556 S
H278 C284 0.949 . S
C279 H274 0.950 . S
C279 C281 1.327 1_554 S
C279 C285 1.429 1_554 S
C280 C272 1.574 1_565 S
C280 H275 0.949 . S
C280 C286 1.368 . S
C281 C265 1.349 . S
C281 H273 0.950 1_556 S
C281 C279 1.327 1_556 S
C282 C270 1.349 . S
C282 H276 0.950 . S
C282 C283 1.327 . S
C283 H277 0.950 1_554 S
C283 C282 1.327 . S
C283 C287 1.429 . S
C284 C267 1.574 1_545 S
C284 H278 0.949 . S
C284 C288 1.368 . S
C285 C266 1.429 . S
C285 C279 1.429 1_556 S
C285 C286 1.523 . S
C286 C267 1.368 1_556 S
C286 C280 1.368 . S
C286 C285 1.523 . S
C287 C271 1.429 . S
C287 C283 1.429 . S
C287 C288 1.523 . S
C288 C272 1.368 1_554 S
C288 C284 1.368 . S
C288 C287 1.523 . S
H289 C264 0.950 . S
H290 C266 0.950 . S
H291 C267 0.949 . S
H292 C269 0.950 . S
H293 C271 0.950 . S
C294 C295 1.349 . S
C294 C296 1.327 . S
C294 H319 0.950 . S
C295 C294 1.349 . S
C295 C311 1.349 . S
C296 C294 1.327 . S
C296 C315 1.429 . S
C296 H320 0.950 . S
C297 C314 1.574 1_565 S
C297 C316 1.368 . S
C297 H321 0.949 1_455 S
H298 C302 0.949 . S
C299 C300 1.349 . S
C299 C301 1.327 . S
C299 H322 0.950 . S
C300 C299 1.349 . S
C300 C312 1.349 . S
C301 C299 1.327 . S
C301 C317 1.429 . S
C301 H323 0.935 1_455 S
C302 H298 0.949 . S
C302 C310 1.574 1_545 S
C302 C318 1.368 . S
H303 C311 0.950 1_655 S
H304 C309 0.950 1_655 S
H305 C310 0.949 . S
H306 C312 0.950 . S
H307 C313 0.950 . S
H308 C314 0.949 1_655 S
C309 H304 0.950 1_455 S
C309 C311 1.327 . S
C309 C315 1.429 . S
C310 C302 1.574 1_565 S
C310 H305 0.949 . S
C310 C316 1.368 . S
C311 C295 1.349 . S
C311 H303 0.950 1_455 S
C311 C309 1.327 . S
C312 C300 1.349 . S
C312 H306 0.950 . S
C312 C313 1.327 . S
C313 H307 0.950 . S
C313 C312 1.327 . S
C313 C317 1.429 . S
C314 C297 1.574 1_545 S
C314 H308 0.949 1_455 S
C314 C318 1.368 . S
C315 C296 1.429 . S
C315 C309 1.429 . S
C315 C316 1.523 . S
C316 C297 1.368 . S
C316 C310 1.368 . S
C316 C315 1.523 . S
C317 C301 1.429 . S
C317 C313 1.429 . S
C317 C318 1.523 . S
C318 C302 1.368 . S
C318 C314 1.368 . S
C318 C317 1.523 . S
H319 C294 0.950 . S
H320 C296 0.950 . S
H321 C297 0.949 1_655 S
H322 C299 0.950 . S
H323 C301 0.935 1_655 S
C324 C325 1.349 1_655 S
C324 C326 1.327 . S
C324 H349 0.950 . S
C325 C324 1.349 1_455 S
C325 C341 1.349 . S
C326 C324 1.327 . S
C326 C345 1.429 1_655 S
C326 H350 0.950 . S
C327 C344 1.574 . S
C327 C346 1.368 . S
C327 H351 0.949 . S
H328 C332 0.949 . S
C329 C330 1.349 . S
C329 C331 1.327 . S
C329 H352 0.950 . S
C330 C329 1.349 . S
C330 C342 1.349 1_455 S
C331 C329 1.327 . S
C331 C347 1.429 . S
C331 H353 0.950 . S
C332 H328 0.949 . S
C332 C340 1.574 . S
C332 C348 1.368 1_655 S
H333 C341 0.950 . S
H334 C339 0.950 . S
H335 C340 0.949 . S
H336 C342 0.950 . S
H337 C343 0.950 . S
H338 C344 0.949 . S
C339 H334 0.950 . S
C339 C341 1.327 . S
C339 C345 1.429 . S
C340 C332 1.574 . S
C340 H335 0.949 . S
C340 C346 1.368 1_655 S
C341 C325 1.349 . S
C341 H333 0.950 . S
C341 C339 1.327 . S
C342 C330 1.349 1_655 S
C342 H336 0.950 . S
C342 C343 1.327 . S
C343 H337 0.950 . S
C343 C342 1.327 . S
C343 C347 1.429 1_655 S
C344 C327 1.574 . S
C344 H338 0.949 . S
C344 C348 1.368 . S
C345 C326 1.429 1_455 S
C345 C339 1.429 . S
C345 C346 1.523 1_554 S
C346 C327 1.368 . S
C346 C340 1.368 1_455 S
C346 C345 1.523 1_556 S
C347 C331 1.429 . S
C347 C343 1.429 1_455 S
C347 C348 1.523 . S
C348 C332 1.368 1_455 S
C348 C344 1.368 . S
C348 C347 1.523 . S
H349 C324 0.950 . S
H350 C326 0.950 . S
H351 C327 0.949 . S
H352 C329 0.950 . S
H353 C331 0.950 . S
C354 C355 1.349 . S
C354 C356 1.327 . S
C354 H379 0.950 1_455 S
C355 C354 1.349 . S
C355 C371 1.349 . S
C356 C354 1.327 . S
C356 C375 1.429 . S
C356 H380 0.950 1_455 S
C357 C374 1.574 . S
C357 C376 1.368 . S
C357 H381 0.949 . S
H358 C362 0.949 1_655 S
C359 C360 1.349 . S
C359 C361 1.327 . S
C359 H382 0.950 . S
C360 C359 1.349 . S
C360 C372 1.349 . S
C361 C359 1.327 . S
C361 C377 1.429 . S
C361 H383 0.950 . S
C362 H358 0.949 1_455 S
C362 C370 1.574 . S
C362 C378 1.368 . S
H363 C371 0.950 . S
H364 C369 0.950 . S
H365 C370 0.949 1_655 S
H366 C372 0.950 . S
H367 C373 0.938 1_655 S
H368 C374 0.949 . S
C369 H364 0.950 . S
C369 C371 1.327 . S
C369 C375 1.429 . S
C370 C362 1.574 . S
C370 H365 0.949 1_455 S
C370 C376 1.368 . S
C371 C355 1.349 . S
C371 H363 0.950 . S
C371 C369 1.327 . S
C372 C360 1.349 . S
C372 H366 0.950 . S
C372 C373 1.327 . S
C373 H367 0.938 1_455 S
C373 C372 1.327 . S
C373 C377 1.429 . S
C374 C357 1.574 . S
C374 H368 0.949 . S
C374 C378 1.368 . S
C375 C356 1.429 . S
C375 C369 1.429 . S
C375 C376 1.523 1_556 S
C376 C357 1.368 . S
C376 C370 1.368 . S
C376 C375 1.523 1_554 S
C377 C361 1.429 . S
C377 C373 1.429 . S
C377 C378 1.523 . S
C378 C362 1.368 . S
C378 C374 1.368 . S
C378 C377 1.523 . S
H379 C354 0.950 1_655 S
H380 C356 0.950 1_655 S
H381 C357 0.949 . S
H382 C359 0.950 . S
H383 C361 0.950 . S
C384 C385 1.349 . S
C384 C386 1.327 . S
C384 H409 0.950 . S
C385 C384 1.349 . S
C385 C401 1.349 . S
C386 C384 1.327 . S
C386 C405 1.429 . S
C386 H410 0.950 . S
C387 C404 1.574 . S
C387 C406 1.368 . S
C387 H411 0.949 . S
H388 C392 0.949 . S
C389 C390 1.349 . S
C389 C391 1.327 . S
C389 H412 0.950 . S
C390 C389 1.349 . S
C390 C402 1.349 . S
C391 C389 1.327 . S
C391 C407 1.429 . S
C391 H413 0.950 . S
C392 H388 0.949 . S
C392 C400 1.574 . S
C392 C408 1.368 . S
H393 C401 0.950 . S
H394 C399 0.950 . S
H395 C400 0.949 . S
H396 C402 0.950 . S
H397 C403 0.950 . S
H398 C404 0.949 . S
C399 H394 0.950 . S
C399 C401 1.327 . S
C399 C405 1.429 . S
C400 C392 1.574 . S
C400 H395 0.949 . S
C400 C406 1.368 . S
C401 C385 1.349 . S
C401 H393 0.950 . S
C401 C399 1.327 . S
C402 C390 1.349 . S
C402 H396 0.950 . S
C402 C403 1.327 . S
C403 H397 0.950 . S
C403 C402 1.327 . S
C403 C407 1.429 . S
C404 C387 1.574 . S
C404 H398 0.949 . S
C404 C408 1.368 . S
C405 C386 1.429 . S
C405 C399 1.429 . S
C405 C406 1.523 . S
C406 C387 1.368 . S
C406 C400 1.368 . S
C406 C405 1.523 . S
C407 C391 1.429 . S
C407 C403 1.429 . S
C407 C408 1.523 . S
C408 C392 1.368 . S
C408 C404 1.368 . S
C408 C407 1.523 . S
H409 C384 0.950 . S
H410 C386 0.950 . S
H411 C387 0.949 . S
H412 C389 0.950 . S
H413 C391 0.950 . S
C414 C415 1.349 . S
C414 C416 1.327 . S
C414 H439 0.950 . S
C415 C414 1.349 . S
C415 C431 1.349 . S
C416 C414 1.327 . S
C416 C435 1.429 . S
C416 H440 0.950 . S
C417 C434 1.574 . S
C417 C436 1.368 . S
C417 H441 0.949 . S
H418 C422 0.949 . S
C419 C420 1.349 . S
C419 C421 1.327 . S
C419 H442 0.950 . S
C420 C419 1.349 . S
C420 C432 1.349 . S
C421 C419 1.327 . S
C421 C437 1.429 . S
C421 H443 0.950 . S
C422 H418 0.949 . S
C422 C430 1.574 . S
C422 C438 1.368 . S
H423 C431 0.950 . S
H424 C429 0.950 . S
H425 C430 0.949 . S
H426 C432 0.950 . S
H427 C433 0.950 . S
H428 C434 0.949 . S
C429 H424 0.950 . S
C429 C431 1.327 . S
C429 C435 1.429 . S
C430 C422 1.574 . S
C430 H425 0.949 . S
C430 C436 1.368 . S
C431 C415 1.349 . S
C431 H423 0.950 . S
C431 C429 1.327 . S
C432 C420 1.349 . S
C432 H426 0.950 . S
C432 C433 1.327 . S
C433 H427 0.950 . S
C433 C432 1.327 . S
C433 C437 1.429 . S
C434 C417 1.574 . S
C434 H428 0.949 . S
C434 C438 1.368 . S
C435 C416 1.429 . S
C435 C429 1.429 . S
C435 C436 1.523 . S
C436 C417 1.368 . S
C436 C430 1.368 . S
C436 C435 1.523 . S
C437 C421 1.429 . S
C437 C433 1.429 . S
C437 C438 1.523 . S
C438 C422 1.368 . S
C438 C434 1.368 . S
C438 C437 1.523 . S
H439 C414 0.950 . S
H440 C416 0.950 . S
H441 C417 0.949 . S
H442 C419 0.950 . S
H443 C421 0.950 . S
C85 C13 1.665 . S
C90 C37 1.390 . S
C115 C56 2.111 . S
C120 C35 2.111 . S
C145 C76 1.665 . S
C150 C58 1.390 . S
C175 C15 1.271 . S
C180 C78 1.271 . S
C205 C77 2.111 . S
C210 C14 2.111 . S
C235 C57 1.271 . S
C240 C36 1.271 . S
C265 C55 1.665 . S
C270 C79 1.390 . S
C295 C34 1.665 . S
C300 C16 1.390 . S
C325 C18 0.827 . S
C330 C17 0.825 . S
C355 C39 0.827 . S
C360 C38 0.825 . S
C385 C59 0.825 . S
C390 C60 0.827 . S
C415 C81 0.827 . S
C420 C80 0.825 . S
