# Generated by pormake.
# Topology fns, (5)-cn, num edge types: 1
# Building blocks:
#     Node 0, Type 0, BuildingBlock: BEQFEK_clean_sbu_0, # of connection points: 5
#     Node 1, Type 0, BuildingBlock: BEQFEK_clean_sbu_0, # of connection points: 5
#     Node 2, Type 0, BuildingBlock: BEQFEK_clean_sbu_0, # of connection points: 5
#     Node 3, Type 0, BuildingBlock: BEQFEK_clean_sbu_0, # of connection points: 5
#     Node 4, Type 0, BuildingBlock: BEQFEK_clean_sbu_0, # of connection points: 5
#     Node 5, Type 0, BuildingBlock: BEQFEK_clean_sbu_0, # of connection points: 5
#     Edge 6, Type (0, 0), BuildingBlock: TEMPAE_clean_linker_10, # of connection points: 2
#     Edge 7, Type (0, 0), BuildingBlock: TEMPAE_clean_linker_10, # of connection points: 2
#     Edge 8, Type (0, 0), BuildingBlock: TEMPAE_clean_linker_10, # of connection points: 2
#     Edge 9, Type (0, 0), BuildingBlock: TEMPAE_clean_linker_10, # of connection points: 2
#     Edge 10, Type (0, 0), BuildingBlock: TEMPAE_clean_linker_10, # of connection points: 2
#     Edge 11, Type (0, 0), BuildingBlock: TEMPAE_clean_linker_10, # of connection points: 2
#     Edge 12, Type (0, 0), BuildingBlock: TEMPAE_clean_linker_10, # of connection points: 2
#     Edge 13, Type (0, 0), BuildingBlock: TEMPAE_clean_linker_10, # of connection points: 2
#     Edge 14, Type (0, 0), BuildingBlock: TEMPAE_clean_linker_10, # of connection points: 2
#     Edge 15, Type (0, 0), BuildingBlock: TEMPAE_clean_linker_10, # of connection points: 2
#     Edge 16, Type (0, 0), BuildingBlock: TEMPAE_clean_linker_10, # of connection points: 2
#     Edge 17, Type (0, 0), BuildingBlock: TEMPAE_clean_linker_10, # of connection points: 2
#     Edge 18, Type (0, 0), BuildingBlock: TEMPAE_clean_linker_10, # of connection points: 2
#     Edge 19, Type (0, 0), BuildingBlock: TEMPAE_clean_linker_10, # of connection points: 2
#     Edge 20, Type (0, 0), BuildingBlock: TEMPAE_clean_linker_10, # of connection points: 2
# Relax obj value: 0.269
# Max RMSD: 0.257
# Mean RMSD: 0.257
data_MOF--net-fns--node1-BEQFEK_clean_sbu_0--edge1-TEMPAE_clean_linker_10
_symmetry_space_group_name_H-M    P1
_symmetry_Int_Tables_number       1
_symmetry_cell_setting            triclinic
loop_
_symmetry_equiv_pos_as_xyz
'x, y, z'
_cell_length_a     55.163503
_cell_length_b     55.14881
_cell_length_c     18.699185
_cell_angle_alpha  90.005475
_cell_angle_beta   90.008902
_cell_angle_gamma 120.02767
loop_
_atom_site_label
_atom_site_type_symbol
_atom_site_fract_x
_atom_site_fract_y
_atom_site_fract_z
_atom_type_partial_charge
Co0 Co 0.17863 0.62844 0.09102 0.0
Co1 Co 0.16778 0.59872 0.2384 0.0
C2 C 0.20291 0.66188 0.21938 0.0
O3 O 0.19794 0.66251 0.15313 0.0
O4 O 0.193 0.63874 0.25216 0.0
C5 C 0.16988 0.65137 0.95652 0.0
O6 O 0.1548 0.65987 0.99134 0.0
C7 C 0.15197 0.59961 0.38317 0.0
C8 C 0.15719 0.56685 0.43657 0.0
C9 C 0.15197 0.5886 0.44964 0.0
N10 N 0.15745 0.5855 0.33334 0.0
N11 N 0.16022 0.56565 0.36528 0.0
C12 C 0.14602 0.62271 0.36638 0.0
H13 H 0.13792 0.62051 0.31105 0.0
H14 H 0.13067 0.62259 0.40497 0.0
H15 H 0.16551 0.64323 0.37016 0.0
C16 C 0.1171 0.5877 0.07909 0.0
N17 N 0.14091 0.6022 0.11743 0.0
N18 N 0.13655 0.59165 0.18237 0.0
C19 C 0.1097 0.5713 0.1889 0.0
C20 C 0.09652 0.56768 0.12327 0.0
C21 C 0.11566 0.58904 -0.00072 0.0
H22 H 0.13557 0.5928 0.9751 0.0
H23 H 0.11204 0.60643 0.98442 0.0
H24 H 0.09839 0.56931 0.97683 0.0
O25 O 0.19987 0.6085 0.09314 0.0
O26 O 0.18868 0.58231 0.19128 0.0
H27 H 0.1057 0.54023 0.26412 0.0
H28 H 0.07432 0.5428 0.25456 0.0
C29 C 0.09753 0.55478 0.25608 0.0
H30 H 0.10388 0.56908 0.30251 0.0
H31 H 0.16566 0.55236 0.339 0.0
O32 O 0.18093 0.63934 0.99011 0.0
C33 C 0.20156 0.5904 0.13173 0.0
Co34 Co 0.55135 0.17806 0.41107 0.0
Co35 Co 0.58106 0.17495 0.54933 0.0
C36 C 0.56288 0.21851 0.52336 0.0
O37 O 0.54981 0.20824 0.46501 0.0
O38 O 0.57559 0.20772 0.5553 0.0
C39 C 0.54612 0.19171 0.27024 0.0
O40 O 0.56385 0.21711 0.29282 0.0
C41 C 0.573 0.16588 0.70072 0.0
C42 C 0.61188 0.16802 0.73894 0.0
C43 C 0.5866 0.16501 0.76242 0.0
N44 N 0.58936 0.16916 0.64421 0.0
N45 N 0.6125 0.17018 0.66708 0.0
C46 C 0.54571 0.1655 0.69467 0.0
H47 H 0.54302 0.17212 0.64086 0.0
H48 H 0.52823 0.14381 0.70272 0.0
H49 H 0.54433 0.17928 0.73577 0.0
C50 C 0.51598 0.11789 0.44099 0.0
N51 N 0.5353 0.14396 0.46105 0.0
N52 N 0.54835 0.14252 0.51826 0.0
C53 C 0.53778 0.1155 0.53662 0.0
C54 C 0.51688 0.09898 0.48825 0.0
C55 C 0.49997 0.11104 0.37234 0.0
H56 H 0.49163 0.12545 0.36442 0.0
H57 H 0.48245 0.08903 0.37209 0.0
H58 H 0.51429 0.114 0.32729 0.0
O59 O 0.59068 0.18947 0.38919 0.0
O60 O 0.61239 0.18423 0.48266 0.0
H61 H 0.5741 0.11825 0.58654 0.0
H62 H 0.5442 0.08316 0.58398 0.0
C63 C 0.55097 0.10565 0.5908 0.0
H64 H 0.5449 0.10872 0.64513 0.0
H65 H 0.62902 0.17319 0.63397 0.0
O66 O 0.53482 0.17195 0.31538 0.0
C67 C 0.61221 0.19046 0.4171 0.0
Co68 Co 0.36773 0.55055 0.77229 0.0
Co69 Co 0.39943 0.57479 0.91627 0.0
C70 C 0.33571 0.5467 0.89853 0.0
O71 O 0.33411 0.5389 0.83371 0.0
O72 O 0.35929 0.56058 0.92928 0.0
C73 C 0.34357 0.51986 0.6326 0.0
O74 O 0.32899 0.49515 0.66274 0.0
C75 C 0.39911 0.55945 0.06209 0.0
C76 C 0.43114 0.59815 0.11451 0.0
C77 C 0.40997 0.57095 0.12822 0.0
N78 N 0.41271 0.57893 0.01168 0.0
N79 N 0.43216 0.60199 0.04304 0.0
C80 C 0.37616 0.5302 0.04659 0.0
H81 H 0.37854 0.52379 0.99203 0.0
H82 H 0.37626 0.51537 0.08658 0.0
H83 H 0.35561 0.52914 0.04937 0.0
C84 C 0.40293 0.52329 0.7754 0.0
N85 N 0.39211 0.53796 0.80597 0.0
N86 N 0.40549 0.54877 0.86633 0.0
C87 C 0.42491 0.54124 0.87644 0.0
C88 C 0.42379 0.52473 0.81953 0.0
C89 C 0.39616 0.51131 0.70155 0.0
H90 H 0.39883 0.52779 0.66311 0.0
H91 H 0.37404 0.49424 0.69991 0.0
H92 H 0.40975 0.50275 0.68527 0.0
O93 O 0.38928 0.59186 0.76816 0.0
O94 O 0.41605 0.61085 0.8637 0.0
H95 H 0.45532 0.57534 0.93971 0.0
H96 H 0.46308 0.54733 0.92653 0.0
C97 C 0.44616 0.55232 0.93534 0.0
H98 H 0.43563 0.54284 0.98672 0.0
H99 H 0.44507 0.62072 0.01622 0.0
O100 O 0.35839 0.54141 0.67051 0.0
C101 C 0.40757 0.61323 0.8021 0.0
Co102 Co 0.81388 0.36668 0.0519 0.0
Co103 Co 0.82189 0.39158 0.20595 0.0
C104 C 0.78175 0.33077 0.17107 0.0
O105 O 0.79005 0.33157 0.1072 0.0
O106 O 0.79199 0.35265 0.20939 0.0
C107 C 0.82963 0.34731 0.92443 0.0
O108 O 0.84617 0.34278 0.96593 0.0
C109 C 0.82783 0.38839 0.36034 0.0
C110 C 0.85317 0.43279 0.39215 0.0
C111 C 0.84187 0.40568 0.4178 0.0
N112 N 0.83168 0.40447 0.30262 0.0
N113 N 0.84635 0.43102 0.32233 0.0
C114 C 0.80881 0.35724 0.36128 0.0
H115 H 0.7881 0.35226 0.34002 0.0
H116 H 0.81759 0.34717 0.32662 0.0
H117 H 0.80515 0.34826 0.41578 0.0
C118 C 0.876 0.4041 0.05636 0.0
N119 N 0.85076 0.38927 0.08818 0.0
N120 N 0.85361 0.39513 0.15684 0.0
C121 C 0.88096 0.41142 0.17214 0.0
C122 C 0.89612 0.41835 0.10872 0.0
C123 C 0.87986 0.40974 0.97765 0.0
H124 H 0.85985 0.40491 0.95189 0.0
H125 H 0.88785 0.39677 0.95354 0.0
H126 H 0.89548 0.43204 0.96729 0.0
O127 O 0.79578 0.38951 0.052 0.0
O128 O 0.80677 0.41307 0.15485 0.0
H129 H 0.89278 0.43885 0.26258 0.0
H130 H 0.9141 0.42304 0.2491 0.0
C131 C 0.8924 0.41936 0.24642 0.0
H132 H 0.87909 0.40246 0.28444 0.0
H133 H 0.85254 0.44791 0.28756 0.0
O134 O 0.81463 0.35652 0.95117 0.0
C135 C 0.79544 0.40777 0.09301 0.0
Co136 Co 0.43866 0.81705 0.43606 0.0
Co137 Co 0.41545 0.82545 0.57982 0.0
C138 C 0.44101 0.78761 0.56092 0.0
O139 O 0.44951 0.7943 0.49677 0.0
O140 O 0.42754 0.79776 0.5916 0.0
C141 C 0.46896 0.82229 0.29678 0.0
O142 O 0.49353 0.83137 0.32691 0.0
C143 C 0.43062 0.83834 0.72616 0.0
C144 C 0.39364 0.83611 0.77798 0.0
C145 C 0.41971 0.8391 0.79205 0.0
N146 N 0.41184 0.83456 0.67549 0.0
N147 N 0.38983 0.83357 0.70646 0.0
C148 C 0.45869 0.84141 0.71102 0.0
H149 H 0.46588 0.85005 0.65662 0.0
H150 H 0.47429 0.85525 0.7513 0.0
H151 H 0.45715 0.82061 0.71358 0.0
C152 C 0.46823 0.87969 0.43998 0.0
N153 N 0.45269 0.85421 0.47003 0.0
N154 N 0.44277 0.85723 0.53133 0.0
C155 C 0.45199 0.8845 0.54296 0.0
C156 C 0.46853 0.89962 0.48578 0.0
C157 C 0.47989 0.88464 0.36583 0.0
H158 H 0.46303 0.87138 0.32757 0.0
H159 H 0.49626 0.87863 0.36328 0.0
H160 H 0.48929 0.90695 0.35004 0.0
O161 O 0.39736 0.79845 0.43188 0.0
O162 O 0.37952 0.8081 0.52682 0.0
H163 H 0.41895 0.88257 0.60731 0.0
H164 H 0.44833 0.91767 0.59534 0.0
C165 C 0.44207 0.89533 0.60297 0.0
H166 H 0.45116 0.89321 0.65389 0.0
H167 H 0.37176 0.82988 0.67927 0.0
O168 O 0.44767 0.81659 0.33462 0.0
C169 C 0.37653 0.79674 0.46568 0.0
Co170 Co 0.63474 0.459 0.75128 0.0
Co171 Co 0.60352 0.42804 0.89047 0.0
C172 C 0.66745 0.4599 0.87315 0.0
O173 O 0.66852 0.46938 0.81038 0.0
O174 O 0.64413 0.44392 0.90332 0.0
C175 C 0.65426 0.4664 0.60902 0.0
O176 O 0.66582 0.45186 0.63074 0.0
C177 C 0.59841 0.43542 0.0407 0.0
C178 C 0.56828 0.39288 0.0787 0.0
C179 C 0.58618 0.42003 0.10246 0.0
N180 N 0.58841 0.41817 0.98415 0.0
N181 N 0.57007 0.39283 0.00687 0.0
C182 C 0.62095 0.46551 0.03466 0.0
H183 H 0.63808 0.47029 0.0732 0.0
H184 H 0.62947 0.47065 0.97974 0.0
H185 H 0.61199 0.47913 0.04655 0.0
C186 C 0.59974 0.48516 0.7722 0.0
N187 N 0.60998 0.46887 0.79478 0.0
N188 N 0.59601 0.45496 0.85177 0.0
C189 C 0.57636 0.46175 0.86726 0.0
C190 C 0.57812 0.48118 0.81739 0.0
C191 C 0.60935 0.50283 0.70621 0.0
H192 H 0.63249 0.51343 0.70211 0.0
H193 H 0.60264 0.51875 0.70654 0.0
H194 H 0.60024 0.48919 0.65865 0.0
O195 O 0.61448 0.41811 0.73254 0.0
O196 O 0.58903 0.39503 0.82696 0.0
H197 H 0.548 0.42464 0.92537 0.0
H198 H 0.53515 0.44862 0.91057 0.0
C199 C 0.55402 0.44705 0.92251 0.0
H200 H 0.56231 0.45673 0.97547 0.0
H201 H 0.55986 0.37529 0.97381 0.0
O202 O 0.64321 0.47493 0.65468 0.0
C203 C 0.59696 0.39528 0.76284 0.0
C204 C 0.21215 0.55122 0.11999 0.0
C205 C 0.21871 0.57872 0.10443 0.0
C206 C 0.22741 0.53978 0.08855 0.0
C207 C 0.24994 0.55649 0.04195 0.0
C208 C 0.25679 0.58438 0.02717 0.0
C209 C 0.24097 0.59502 0.0581 0.0
C210 C 0.21927 0.50982 0.10437 0.0
C211 C 0.28107 0.60322 0.97914 0.0
C212 C 0.31348 0.54961 0.01156 0.0
C213 C 0.31066 0.54227 0.93879 0.0
C214 C 0.29246 0.55157 0.04823 0.0
C215 C 0.26786 0.54603 0.01134 0.0
C216 C 0.26357 0.53584 0.94012 0.0
C217 C 0.28513 0.53415 0.90441 0.0
C218 C 0.29803 0.56253 0.12407 0.0
C219 C 0.23729 0.52911 0.8996 0.0
H220 H 0.19469 0.53847 0.15508 0.0
H221 H 0.24619 0.61634 0.04621 0.0
H222 H 0.21379 0.49764 0.05385 0.0
H223 H 0.2372 0.50891 0.12823 0.0
H224 H 0.20117 0.49958 0.14151 0.0
H225 H 0.28356 0.6244 0.97329 0.0
H226 H 0.30082 0.60558 0.00112 0.0
H227 H 0.27802 0.59374 0.92522 0.0
H228 H 0.33297 0.55571 0.03916 0.0
H229 H 0.28262 0.52817 0.8485 0.0
H230 H 0.2793 0.55049 0.15816 0.0
H231 H 0.30298 0.58467 0.12412 0.0
H232 H 0.31593 0.56165 0.14851 0.0
H233 H 0.21857 0.5179 0.9343 0.0
H234 H 0.23452 0.51614 0.85151 0.0
H235 H 0.23848 0.54889 0.88193 0.0
C236 C 0.66373 0.20829 0.40309 0.0
C237 C 0.63781 0.20135 0.37274 0.0
C238 C 0.68864 0.22386 0.36416 0.0
C239 C 0.68747 0.23296 0.29402 0.0
C240 C 0.6612 0.22341 0.26075 0.0
C241 C 0.6367 0.20753 0.30034 0.0
C242 C 0.71628 0.23295 0.40064 0.0
C243 C 0.65891 0.23258 0.18614 0.0
C244 C 0.74077 0.3079 0.25114 0.0
C245 C 0.75808 0.30505 0.20109 0.0
C246 C 0.71809 0.28456 0.28201 0.0
C247 C 0.71258 0.25743 0.26305 0.0
C248 C 0.7301 0.25423 0.21303 0.0
C249 C 0.75256 0.27821 0.18167 0.0
C250 C 0.69972 0.28908 0.33407 0.0
C251 C 0.72508 0.22563 0.19245 0.0
H252 H 0.66477 0.2031 0.4585 0.0
H253 H 0.6167 0.2016 0.27564 0.0
H254 H 0.73154 0.2325 0.36278 0.0
H255 H 0.72516 0.2548 0.41993 0.0
H256 H 0.71383 0.21943 0.4473 0.0
H257 H 0.6371 0.22106 0.16557 0.0
H258 H 0.66594 0.25528 0.1864 0.0
H259 H 0.67265 0.22939 0.14874 0.0
H260 H 0.74462 0.32859 0.26534 0.0
H261 H 0.76598 0.276 0.14305 0.0
H262 H 0.69946 0.27959 0.38656 0.0
H263 H 0.67786 0.27868 0.31398 0.0
H264 H 0.70692 0.31162 0.34262 0.0
H265 H 0.72095 0.21236 0.24061 0.0
H266 H 0.74316 0.22685 0.16304 0.0
H267 H 0.70633 0.21505 0.15766 0.0
C268 C 0.43324 0.75861 0.6697 0.0
C269 C 0.44489 0.76658 0.60095 0.0
C270 C 0.43262 0.73608 0.70552 0.0
C271 C 0.44426 0.7212 0.67238 0.0
C272 C 0.45827 0.73059 0.6059 0.0
C273 C 0.45821 0.75308 0.57046 0.0
C274 C 0.41721 0.72673 0.77598 0.0
C275 C 0.47178 0.7158 0.57014 0.0
C276 C 0.4434 0.66448 0.79019 0.0
C277 C 0.41839 0.64097 0.76792 0.0
C278 C 0.45318 0.69064 0.75676 0.0
C279 C 0.43716 0.69331 0.70128 0.0
C280 C 0.41221 0.66949 0.67793 0.0
C281 C 0.40331 0.64368 0.71106 0.0
C282 C 0.48026 0.71546 0.78174 0.0
C283 C 0.39417 0.67141 0.61982 0.0
H284 H 0.42316 0.76904 0.6945 0.0
H285 H 0.46765 0.75935 0.51796 0.0
H286 H 0.39723 0.7068 0.76799 0.0
H287 H 0.42966 0.72274 0.81586 0.0
H288 H 0.41233 0.74246 0.79847 0.0
H289 H 0.48662 0.72887 0.52752 0.0
H290 H 0.48314 0.7102 0.60982 0.0
H291 H 0.45536 0.69607 0.54548 0.0
H292 H 0.45534 0.66244 0.83344 0.0
H293 H 0.38395 0.62566 0.69338 0.0
H294 H 0.47574 0.73 0.81223 0.0
H295 H 0.49344 0.72722 0.7353 0.0
H296 H 0.49238 0.70908 0.81673 0.0
H297 H 0.3864 0.68555 0.63725 0.0
H298 H 0.37584 0.65069 0.60641 0.0
H299 H 0.40665 0.68045 0.57052 0.0
C300 C 0.71768 0.47166 0.87477 0.0
C301 C 0.69308 0.46527 0.91162 0.0
C302 C 0.73922 0.46956 0.90922 0.0
C303 C 0.73576 0.46068 0.98152 0.0
C304 C 0.7125 0.4576 0.02087 0.0
C305 C 0.69151 0.46005 0.98544 0.0
C306 C 0.76421 0.47392 0.86617 0.0
C307 C 0.7079 0.44824 0.09804 0.0
C308 C 0.75677 0.40683 0.02425 0.0
C309 C 0.78038 0.42189 0.06757 0.0
C310 C 0.74231 0.4194 0.99605 0.0
C311 C 0.75203 0.44804 0.01022 0.0
C312 C 0.77598 0.46352 0.05377 0.0
C313 C 0.78978 0.45011 0.0828 0.0
C314 C 0.7164 0.4018 0.95155 0.0
C315 C 0.78729 0.49424 0.06842 0.0
H316 H 0.71921 0.47613 0.81797 0.0
H317 H 0.67284 0.45582 0.01477 0.0
H318 H 0.78361 0.48442 0.89874 0.0
H319 H 0.76113 0.45327 0.84925 0.0
H320 H 0.76706 0.4866 0.81744 0.0
H321 H 0.69193 0.4519 0.12427 0.0
H322 H 0.70051 0.42547 0.10036 0.0
H323 H 0.72765 0.45924 0.129 0.0
H324 H 0.74937 0.38494 0.0129 0.0
H325 H 0.80827 0.46181 0.11564 0.0
H326 H 0.71927 0.41071 0.89697 0.0
H327 H 0.6981 0.40194 0.97575 0.0
H328 H 0.71145 0.37971 0.9468 0.0
H329 H 0.79492 0.50617 0.01774 0.0
H330 H 0.80482 0.50276 0.10747 0.0
H331 H 0.77052 0.49785 0.08911 0.0
C332 C 0.3274 0.78712 0.44525 0.0
C333 C 0.34868 0.78085 0.43181 0.0
C334 C 0.30139 0.77233 0.41012 0.0
C335 C 0.29647 0.75034 0.36247 0.0
C336 C 0.31801 0.74411 0.34881 0.0
C337 C 0.34385 0.75961 0.383 0.0
C338 C 0.27914 0.78 0.42454 0.0
C339 C 0.31357 0.72046 0.29962 0.0
C340 C 0.22717 0.68535 0.33232 0.0
C341 C 0.22272 0.68755 0.25915 0.0
C342 C 0.24965 0.70703 0.36891 0.0
C343 C 0.26827 0.73172 0.33159 0.0
C344 C 0.26227 0.73537 0.25994 0.0
C345 C 0.23956 0.7131 0.22421 0.0
C346 C 0.25515 0.70203 0.44518 0.0
C347 C 0.28117 0.76182 0.21916 0.0
H348 H 0.33123 0.80381 0.48223 0.0
H349 H 0.36021 0.75464 0.37255 0.0
H350 H 0.2696 0.78147 0.37365 0.0
H351 H 0.26218 0.76342 0.45725 0.0
H352 H 0.28764 0.8002 0.45363 0.0
H353 H 0.33265 0.71864 0.29415 0.0
H354 H 0.29637 0.7003 0.32041 0.0
H355 H 0.30731 0.72366 0.24566 0.0
H356 H 0.21428 0.66585 0.36037 0.0
H357 H 0.23612 0.71516 0.16802 0.0
H358 H 0.26122 0.72077 0.47874 0.0
H359 H 0.27279 0.69776 0.44603 0.0
H360 H 0.23658 0.68389 0.46975 0.0
H361 H 0.28828 0.78052 0.25376 0.0
H362 H 0.27054 0.7641 0.17128 0.0
H363 H 0.30003 0.76126 0.20106 0.0
C364 C 0.58432 0.25857 0.60827 0.0
C365 C 0.56419 0.24368 0.55544 0.0
C366 C 0.58661 0.28265 0.63957 0.0
C367 C 0.56803 0.29199 0.61848 0.0
C368 C 0.5473 0.27688 0.56607 0.0
C369 C 0.54577 0.25297 0.53457 0.0
C370 C 0.60932 0.29838 0.69444 0.0
C371 C 0.52687 0.28605 0.54324 0.0
C372 C 0.56698 0.34299 0.75258 0.0
C373 C 0.58665 0.36875 0.72258 0.0
C374 C 0.5591 0.31772 0.71674 0.0
C375 C 0.57144 0.31827 0.64988 0.0
C376 C 0.59015 0.34425 0.61769 0.0
C377 C 0.59742 0.36914 0.65425 0.0
C378 C 0.53869 0.2904 0.75213 0.0
C379 C 0.60396 0.34581 0.54672 0.0
H380 H 0.59875 0.25167 0.62459 0.0
H381 H 0.53006 0.24145 0.49415 0.0
H382 H 0.62352 0.32009 0.6757 0.0
H383 H 0.59993 0.2998 0.74559 0.0
H384 H 0.62201 0.28823 0.70502 0.0
H385 H 0.5111 0.27123 0.50463 0.0
H386 H 0.5158 0.28788 0.59065 0.0
H387 H 0.53831 0.30705 0.51807 0.0
H388 H 0.55827 0.34249 0.80487 0.0
H389 H 0.61241 0.38892 0.63009 0.0
H390 H 0.55003 0.27981 0.77162 0.0
H391 H 0.52272 0.27614 0.71317 0.0
H392 H 0.52788 0.29355 0.79828 0.0
H393 H 0.6191 0.33829 0.55345 0.0
H394 H 0.61536 0.36748 0.52514 0.0
H395 H 0.58821 0.33205 0.50674 0.0
C396 C 0.14735 0.64925 0.83855 0.0
C397 C 0.1692 0.64958 0.87768 0.0
C398 C 0.14357 0.64179 0.76581 0.0
C399 C 0.16208 0.63459 0.73201 0.0
C400 C 0.18517 0.63666 0.77024 0.0
C401 C 0.18846 0.64419 0.84251 0.0
C402 C 0.11896 0.64018 0.72624 0.0
C403 C 0.20554 0.62938 0.73605 0.0
C404 C 0.13879 0.58278 0.57863 0.0
C405 C 0.15207 0.60049 0.52051 0.0
C406 C 0.14074 0.59375 0.64747 0.0
C407 C 0.15657 0.62312 0.65823 0.0
C408 C 0.1695 0.64112 0.59936 0.0
C409 C 0.16732 0.62956 0.53134 0.0
C410 C 0.12683 0.57387 0.70916 0.0
C411 C 0.1868 0.67249 0.60865 0.0
H412 H 0.13235 0.65329 0.86554 0.0
H413 H 0.20555 0.64467 0.8724 0.0
H414 H 0.12583 0.65132 0.67431 0.0
H415 H 0.10353 0.61796 0.7144 0.0
H416 H 0.10834 0.64929 0.75761 0.0
H417 H 0.22341 0.63391 0.77179 0.0
H418 H 0.19454 0.60677 0.72233 0.0
H419 H 0.2139 0.64124 0.68558 0.0
H420 H 0.12723 0.5603 0.57035 0.0
H421 H 0.17874 0.64334 0.48743 0.0
H422 H 0.11365 0.5801 0.74005 0.0
H423 H 0.14306 0.57486 0.74609 0.0
H424 H 0.11355 0.55186 0.69108 0.0
H425 H 0.17532 0.68027 0.64135 0.0
H426 H 0.19239 0.68369 0.55656 0.0
H427 H 0.20644 0.67786 0.63747 0.0
C428 C 0.55033 0.1524 0.85867 0.0
C429 C 0.57854 0.16528 0.83803 0.0
C430 C 0.54272 0.15566 0.92799 0.0
C431 C 0.56386 0.17085 0.97911 0.0
C432 C 0.59237 0.18223 0.96021 0.0
C433 C 0.59937 0.17955 0.88968 0.0
C434 C 0.5121 0.14341 0.94601 0.0
C435 C 0.61549 0.19761 0.01418 0.0
C436 C 0.55127 0.20456 0.141 0.0
C437 C 0.54634 0.18479 0.19426 0.0
C438 C 0.55572 0.19968 0.06982 0.0
C439 C 0.55624 0.17493 0.05244 0.0
C440 C 0.55067 0.15465 0.10586 0.0
C441 C 0.54536 0.15964 0.17596 0.0
C442 C 0.5607 0.22136 0.01367 0.0
C443 C 0.55194 0.12844 0.09003 0.0
H444 H 0.53402 0.1398 0.82094 0.0
H445 H 0.62124 0.18921 0.87464 0.0
H446 H 0.50616 0.12804 0.99016 0.0
H447 H 0.50819 0.16024 0.96486 0.0
H448 H 0.49827 0.13281 0.89947 0.0
H449 H 0.63648 0.20376 0.99204 0.0
H450 H 0.61557 0.21679 0.03237 0.0
H451 H 0.61181 0.18427 0.06196 0.0
H452 H 0.55213 0.22403 0.15528 0.0
H453 H 0.5421 0.14454 0.21732 0.0
H454 H 0.5468 0.2113 0.96697 0.0
H455 H 0.58261 0.23121 0.99428 0.0
H456 H 0.55696 0.23807 0.03449 0.0
H457 H 0.53829 0.11702 0.04402 0.0
H458 H 0.5455 0.11403 0.13662 0.0
H459 H 0.57365 0.13425 0.07503 0.0
C460 C 0.35498 0.54918 0.52363 0.0
C461 C 0.34691 0.52302 0.55427 0.0
C462 C 0.36311 0.55467 0.45188 0.0
C463 C 0.3634 0.53351 0.40974 0.0
C464 C 0.35397 0.50658 0.4393 0.0
C465 C 0.34567 0.50158 0.51144 0.0
C466 C 0.37257 0.58353 0.42218 0.0
C467 C 0.35396 0.48354 0.39576 0.0
C468 C 0.36899 0.54682 0.21003 0.0
C469 C 0.39794 0.55929 0.199 0.0
C470 C 0.35724 0.53719 0.27779 0.0
C471 C 0.37495 0.54032 0.33601 0.0
C472 C 0.40418 0.55245 0.32487 0.0
C473 C 0.41537 0.56205 0.25644 0.0
C474 C 0.32609 0.52492 0.28758 0.0
C475 C 0.42372 0.55609 0.38571 0.0
H476 H 0.35578 0.56576 0.55657 0.0
H477 H 0.33966 0.48141 0.53518 0.0
H478 H 0.39518 0.594 0.4088 0.0
H479 H 0.36111 0.582 0.37208 0.0
H480 H 0.36925 0.59698 0.4606 0.0
H481 H 0.34399 0.46322 0.42471 0.0
H482 H 0.34276 0.48078 0.34446 0.0
H483 H 0.37583 0.48937 0.38255 0.0
H484 H 0.35555 0.54561 0.16631 0.0
H485 H 0.43776 0.57189 0.24786 0.0
H486 H 0.32212 0.53965 0.31901 0.0
H487 H 0.31708 0.50501 0.31799 0.0
H488 H 0.3149 0.52089 0.23568 0.0
H489 H 0.42398 0.57132 0.42491 0.0
H490 H 0.44549 0.56374 0.36709 0.0
H491 H 0.41622 0.53593 0.41421 0.0
C492 C 0.86041 0.36257 0.8173 0.0
C493 C 0.8334 0.34917 0.84645 0.0
C494 C 0.86487 0.37153 0.74583 0.0
C495 C 0.84158 0.36573 0.70225 0.0
C496 C 0.8141 0.34978 0.72989 0.0
C497 C 0.81037 0.34222 0.80222 0.0
C498 C 0.89452 0.38922 0.71913 0.0
C499 C 0.78867 0.34208 0.68421 0.0
C500 C 0.84483 0.41257 0.55011 0.0
C501 C 0.84524 0.39737 0.49069 0.0
C502 C 0.84535 0.40334 0.61972 0.0
C503 C 0.84571 0.37804 0.62967 0.0
C504 C 0.84781 0.36355 0.56983 0.0
C505 C 0.84843 0.37392 0.50108 0.0
C506 C 0.84436 0.42004 0.68251 0.0
C507 C 0.84779 0.3363 0.57809 0.0
H508 H 0.87823 0.36798 0.8516 0.0
H509 H 0.78948 0.33175 0.82495 0.0
H510 H 0.89699 0.38247 0.6651 0.0
H511 H 0.89952 0.41132 0.7148 0.0
H512 H 0.90996 0.3884 0.75573 0.0
H513 H 0.76895 0.32656 0.71093 0.0
H514 H 0.78737 0.36113 0.6726 0.0
H515 H 0.79035 0.3333 0.63226 0.0
H516 H 0.84316 0.43116 0.54223 0.0
H517 H 0.85055 0.36312 0.45523 0.0
H518 H 0.86047 0.4231 0.72265 0.0
H519 H 0.82364 0.40838 0.70904 0.0
H520 H 0.84777 0.44088 0.66606 0.0
H521 H 0.86418 0.33872 0.61647 0.0
H522 H 0.8513 0.32858 0.52643 0.0
H523 H 0.82734 0.32013 0.60015 0.0
C524 C 0.43919 0.80531 0.1885 0.0
C525 C 0.46578 0.82223 0.21846 0.0
C526 C 0.4339 0.80801 0.11668 0.0
C527 C 0.45575 0.82825 0.07368 0.0
C528 C 0.48305 0.84442 0.10248 0.0
C529 C 0.4878 0.84115 0.17483 0.0
C530 C 0.40457 0.79008 0.08786 0.0
C531 C 0.50685 0.86609 0.05788 0.0
C532 C 0.44114 0.81965 0.87475 0.0
C533 C 0.43079 0.83793 0.86297 0.0
C534 C 0.45058 0.81721 0.94244 0.0
C535 C 0.44934 0.83323 -0.00015 0.0
C536 C 0.43925 0.85203 0.98802 0.0
C537 C 0.42986 0.85398 0.91963 0.0
C538 C 0.46073 0.7966 0.95307 0.0
C539 C 0.43753 0.8694 0.04811 0.0
H540 H 0.42215 0.79047 0.22203 0.0
H541 H 0.50833 0.85438 0.198 0.0
H542 H 0.39559 0.80353 0.07385 0.0
H543 H 0.40495 0.77923 0.03829 0.0
H544 H 0.39044 0.77409 0.12706 0.0
H545 H 0.52726 0.87517 0.0862 0.0
H546 H 0.50843 0.85675 0.00677 0.0
H547 H 0.50271 0.88327 0.04431 0.0
H548 H 0.44089 0.8064 0.83169 0.0
H549 H 0.42167 0.86796 0.91045 0.0
H550 H 0.4458 0.77915 0.98772 0.0
H551 H 0.48131 0.80684 0.98057 0.0
H552 H 0.46277 0.78765 0.90169 0.0
H553 H 0.42198 0.85545 0.08826 0.0
H554 H 0.4313 0.88457 0.02892 0.0
H555 H 0.45803 0.8811 0.07569 0.0
C556 C 0.59216 0.40852 0.22809 0.0
C557 C 0.59425 0.42847 0.17814 0.0
C558 C 0.602 0.41627 0.29827 0.0
C559 C 0.61486 0.44479 0.31851 0.0
C560 C 0.61634 0.4649 0.2692 0.0
C561 C 0.60525 0.45634 0.20036 0.0
C562 C 0.59899 0.394 0.35043 0.0
C563 C 0.63016 0.49557 0.28864 0.0
C564 C 0.61973 0.461 0.51638 0.0
C565 C 0.64627 0.46503 0.53334 0.0
C566 C 0.60937 0.45476 0.44644 0.0
C567 C 0.62636 0.45342 0.39174 0.0
C568 C 0.65378 0.45897 0.40781 0.0
C569 C 0.66324 0.46418 0.47893 0.0
C570 C 0.57967 0.44798 0.43205 0.0
C571 C 0.6728 0.45864 0.35025 0.0
H572 H 0.58336 0.38684 0.212 0.0
H573 H 0.60536 0.47166 0.16434 0.0
H574 H 0.61998 0.39773 0.36609 0.0
H575 H 0.58841 0.395 0.3999 0.0
H576 H 0.58683 0.37257 0.32766 0.0
H577 H 0.6307 0.50873 0.24301 0.0
H578 H 0.61886 0.49859 0.33366 0.0
H579 H 0.65195 0.50313 0.30679 0.0
H580 H 0.6063 0.46105 0.55863 0.0
H581 H 0.6837 0.4672 0.49218 0.0
H582 H 0.56691 0.42575 0.41534 0.0
H583 H 0.5791 0.46098 0.3876 0.0
H584 H 0.56974 0.45135 0.47981 0.0
H585 H 0.66427 0.43702 0.3296 0.0
H586 H 0.69438 0.46615 0.37023 0.0
H587 H 0.67382 0.47197 0.30459 0.0
C588 C 0.93761 0.46457 0.13988 0.0
C589 C 0.92581 0.44023 0.09808 0.0
C590 C 0.96598 0.48465 0.13432 0.0
C591 C 0.98256 0.48145 0.08157 0.0
C592 C 0.97033 0.45795 0.03539 0.0
C593 C 0.94228 0.43715 0.04575 0.0
C594 C 0.97833 0.50878 0.18672 0.0
C595 C 0.98671 0.45423 0.97602 0.0
C596 C 0.05055 0.54974 0.06064 0.0
C597 C 0.06853 0.54456 0.10252 0.0
C598 C 0.02302 0.52836 0.047 0.0
C599 C 0.013 0.50182 0.07939 0.0
C600 C 0.0316 0.49611 0.11817 0.0
C601 C 0.05942 0.51734 0.12699 0.0
C602 C 0.00438 0.53446 0.00036 0.0
C603 C 0.02175 0.46822 0.15432 0.0
H604 H 0.92478 0.46797 0.17764 0.0
H605 H 0.93338 0.41842 0.01309 0.0
H606 H 0.99672 0.50988 0.21405 0.0
H607 H 0.98569 0.52884 0.15802 0.0
H608 H 0.963 0.50685 0.22807 0.0
H609 H 0.97279 0.44263 0.93039 0.0
H610 H 0.0039 0.47458 0.95618 0.0
H611 H 0.99594 0.44168 0.99593 0.0
H612 H 0.05772 0.57065 0.04027 0.0
H613 H 0.07376 0.51289 0.15594 0.0
H614 H 0.9898 0.53776 0.03424 0.0
H615 H 0.99158 0.51647 0.96441 0.0
H616 H 0.01671 0.55354 0.96737 0.0
H617 H 0.00426 0.46363 0.19143 0.0
H618 H 0.0387 0.46768 0.18509 0.0
H619 H 0.01376 0.45129 0.11384 0.0
C620 C 0.48881 0.04926 0.52542 0.0
C621 C 0.50635 0.06908 0.47536 0.0
C622 C 0.48185 0.02119 0.51901 0.0
C623 C 0.49328 0.01316 0.46202 0.0
C624 C 0.51035 0.03308 0.4101 0.0
C625 C 0.51659 0.0609 0.41727 0.0
C626 C 0.46321 0.00039 0.57478 0.0
C627 C 0.52322 0.02537 0.34931 0.0
C628 C 0.50085 0.95024 0.5046 0.0
C629 C 0.47747 0.92893 0.46998 0.0
C630 C 0.50704 0.9781 0.49948 0.0
C631 C 0.48895 0.98441 0.46004 0.0
C632 C 0.46577 0.9629 0.42297 0.0
C633 C 0.46036 0.93528 0.42822 0.0
C634 C 0.53219 0.00057 0.53883 0.0
C635 C 0.44589 0.96881 0.38116 0.0
H636 H 0.48122 0.05592 0.57053 0.0
H637 H 0.53056 0.07656 0.37938 0.0
H638 H 0.44591 0.98161 0.54873 0.0
H639 H 0.47546 0.99329 0.6067 0.0
H640 H 0.45408 0.00945 0.61178 0.0
H641 H 0.53402 0.04272 0.31024 0.0
H642 H 0.53867 0.01998 0.37097 0.0
H643 H 0.50696 0.00662 0.32076 0.0
H644 H 0.51374 0.94495 0.53747 0.0
H645 H 0.44201 0.91844 0.40253 0.0
H646 H 0.52515 0.00895 0.58316 0.0
H647 H 0.54518 0.01828 0.50241 0.0
H648 H 0.54546 0.99257 0.56157 0.0
H649 H 0.43445 0.97521 0.41847 0.0
H650 H 0.43033 0.95024 0.35049 0.0
H651 H 0.45761 0.98641 0.34343 0.0
C652 C 0.47064 0.53763 0.77292 0.0
C653 C 0.44512 0.51729 0.80188 0.0
C654 C 0.49303 0.53259 0.76652 0.0
C655 C 0.48957 0.50665 0.78998 0.0
C656 C 0.46323 0.48553 0.81591 0.0
C657 C 0.44122 0.4912 0.82181 0.0
C658 C 0.52078 0.55556 0.73865 0.0
C659 C 0.45876 0.45757 0.84104 0.0
C660 C 0.54258 0.48463 0.74309 0.0
C661 C 0.55772 0.49061 0.80702 0.0
C662 C 0.52069 0.49042 0.73582 0.0
C663 C 0.51405 0.5025 0.79391 0.0
C664 C 0.53005 0.5095 0.85763 0.0
C665 C 0.55168 0.50332 0.8635 0.0
C666 C 0.50398 0.48259 0.6673 0.0
C667 C 0.52373 0.52266 0.92046 0.0
H668 H 0.47339 0.55787 0.75817 0.0
H669 H 0.42136 0.47572 0.84465 0.0
H670 H 0.53623 0.56375 0.78297 0.0
H671 H 0.52909 0.54728 0.69718 0.0
H672 H 0.51912 0.57324 0.71554 0.0
H673 H 0.43644 0.4426 0.85341 0.0
H674 H 0.46598 0.44816 0.79976 0.0
H675 H 0.47135 0.46056 0.88996 0.0
H676 H 0.54713 0.4744 0.69989 0.0
H677 H 0.56352 0.50783 0.91283 0.0
H678 H 0.50262 0.50069 0.6464 0.0
H679 H 0.48228 0.46552 0.67799 0.0
H680 H 0.51323 0.47541 0.62534 0.0
H681 H 0.52362 0.54186 0.90323 0.0
H682 H 0.53918 0.52826 0.96443 0.0
H683 H 0.50258 0.50791 0.94172 0.0
loop_
_geom_bond_atom_site_label_1
_geom_bond_atom_site_label_2
_geom_bond_distance
_geom_bond_site_symmetry_2
_ccdc_geom_bond_type
Co0 O3 1.970 . S
Co0 N17 1.989 . S
Co0 O25 1.967 . S
Co0 O32 1.920 1_554 S
Co1 O4 1.966 . S
Co1 N10 2.022 . S
Co1 N18 1.993 . S
Co1 O26 1.941 . S
C2 O3 1.258 . S
C2 O4 1.263 . S
O3 Co0 1.970 . S
O3 C2 1.258 . S
O4 Co1 1.966 . S
O4 C2 1.263 . S
C5 O6 1.235 . S
C5 O32 1.289 . S
O6 C5 1.235 . S
C7 C9 1.400 . S
C7 N10 1.351 . S
C7 C12 1.501 . S
C8 C9 1.387 . S
C8 N11 1.341 . S
C9 C7 1.400 . S
C9 C8 1.387 . S
N10 Co1 2.022 . S
N10 C7 1.351 . S
N10 N11 1.365 . S
N11 C8 1.341 . S
N11 N10 1.365 . S
N11 H31 0.862 . S
C12 C7 1.501 . S
C12 H13 0.961 . S
C12 H14 0.961 . S
C12 H15 0.960 . S
H13 C12 0.961 . S
H14 C12 0.961 . S
H15 C12 0.960 . S
C16 N17 1.342 . S
C16 C20 1.401 . S
C16 C21 1.499 . S
N17 Co0 1.989 . S
N17 C16 1.342 . S
N17 N18 1.388 . S
N18 Co1 1.993 . S
N18 N17 1.388 . S
N18 C19 1.346 . S
C19 N18 1.346 . S
C19 C20 1.396 . S
C19 C29 1.510 . S
C20 C16 1.401 . S
C20 C19 1.396 . S
C21 C16 1.499 . S
C21 H22 0.959 1_554 S
C21 H23 0.960 . S
C21 H24 0.961 1_554 S
H22 C21 0.959 1_556 S
H23 C21 0.960 . S
H24 C21 0.961 1_556 S
O25 Co0 1.967 . S
O25 C33 1.258 . S
O26 Co1 1.941 . S
O26 C33 1.266 . S
H27 C29 0.959 . S
H28 C29 0.961 . S
C29 C19 1.510 . S
C29 H27 0.959 . S
C29 H28 0.961 . S
C29 H30 0.960 . S
H30 C29 0.960 . S
H31 N11 0.862 . S
O32 Co0 1.920 1_556 S
O32 C5 1.289 . S
C33 O25 1.258 . S
C33 O26 1.266 . S
Co34 O37 1.970 . S
Co34 N51 1.989 . S
Co34 O59 1.967 . S
Co34 O66 1.920 . S
Co35 O38 1.966 . S
Co35 N44 2.022 . S
Co35 N52 1.993 . S
Co35 O60 1.941 . S
C36 O37 1.258 . S
C36 O38 1.263 . S
O37 Co34 1.970 . S
O37 C36 1.258 . S
O38 Co35 1.966 . S
O38 C36 1.263 . S
C39 O40 1.235 . S
C39 O66 1.289 . S
O40 C39 1.235 . S
C41 C43 1.400 . S
C41 N44 1.351 . S
C41 C46 1.501 . S
C42 C43 1.387 . S
C42 N45 1.341 . S
C43 C41 1.400 . S
C43 C42 1.387 . S
N44 Co35 2.022 . S
N44 C41 1.351 . S
N44 N45 1.365 . S
N45 C42 1.341 . S
N45 N44 1.365 . S
N45 H65 0.862 . S
C46 C41 1.501 . S
C46 H47 0.961 . S
C46 H48 0.961 . S
C46 H49 0.960 . S
H47 C46 0.961 . S
H48 C46 0.961 . S
H49 C46 0.960 . S
C50 N51 1.342 . S
C50 C54 1.401 . S
C50 C55 1.499 . S
N51 Co34 1.989 . S
N51 C50 1.342 . S
N51 N52 1.388 . S
N52 Co35 1.993 . S
N52 N51 1.388 . S
N52 C53 1.346 . S
C53 N52 1.346 . S
C53 C54 1.396 . S
C53 C63 1.510 . S
C54 C50 1.401 . S
C54 C53 1.396 . S
C55 C50 1.499 . S
C55 H56 0.959 . S
C55 H57 0.960 . S
C55 H58 0.961 . S
H56 C55 0.959 . S
H57 C55 0.960 . S
H58 C55 0.961 . S
O59 Co34 1.967 . S
O59 C67 1.258 . S
O60 Co35 1.941 . S
O60 C67 1.266 . S
H61 C63 0.959 . S
H62 C63 0.961 . S
C63 C53 1.510 . S
C63 H61 0.959 . S
C63 H62 0.961 . S
C63 H64 0.960 . S
H64 C63 0.960 . S
H65 N45 0.862 . S
O66 Co34 1.920 . S
O66 C39 1.289 . S
C67 O59 1.258 . S
C67 O60 1.266 . S
Co68 O71 1.970 . S
Co68 N85 1.989 . S
Co68 O93 1.967 . S
Co68 O100 1.920 . S
Co69 O72 1.966 . S
Co69 N78 2.022 1_556 S
Co69 N86 1.993 . S
Co69 O94 1.941 . S
C70 O71 1.258 . S
C70 O72 1.263 . S
O71 Co68 1.970 . S
O71 C70 1.258 . S
O72 Co69 1.966 . S
O72 C70 1.263 . S
C73 O74 1.235 . S
C73 O100 1.289 . S
O74 C73 1.235 . S
C75 C77 1.400 . S
C75 N78 1.351 . S
C75 C80 1.501 . S
C76 C77 1.387 . S
C76 N79 1.341 . S
C77 C75 1.400 . S
C77 C76 1.387 . S
N78 Co69 2.022 1_554 S
N78 C75 1.351 . S
N78 N79 1.365 . S
N79 C76 1.341 . S
N79 N78 1.365 . S
N79 H99 0.862 . S
C80 C75 1.501 . S
C80 H81 0.961 . S
C80 H82 0.961 . S
C80 H83 0.960 . S
H81 C80 0.961 . S
H82 C80 0.961 . S
H83 C80 0.960 . S
C84 N85 1.342 . S
C84 C88 1.401 . S
C84 C89 1.499 . S
N85 Co68 1.989 . S
N85 C84 1.342 . S
N85 N86 1.388 . S
N86 Co69 1.993 . S
N86 N85 1.388 . S
N86 C87 1.346 . S
C87 N86 1.346 . S
C87 C88 1.396 . S
C87 C97 1.510 . S
C88 C84 1.401 . S
C88 C87 1.396 . S
C89 C84 1.499 . S
C89 H90 0.959 . S
C89 H91 0.960 . S
C89 H92 0.961 . S
H90 C89 0.959 . S
H91 C89 0.960 . S
H92 C89 0.961 . S
O93 Co68 1.967 . S
O93 C101 1.258 . S
O94 Co69 1.941 . S
O94 C101 1.266 . S
H95 C97 0.959 . S
H96 C97 0.961 . S
C97 C87 1.510 . S
C97 H95 0.959 . S
C97 H96 0.961 . S
C97 H98 0.960 . S
H98 C97 0.960 . S
H99 N79 0.862 . S
O100 Co68 1.920 . S
O100 C73 1.289 . S
C101 O93 1.258 . S
C101 O94 1.266 . S
Co102 O105 1.970 . S
Co102 N119 1.989 . S
Co102 O127 1.967 . S
Co102 O134 1.920 1_554 S
Co103 O106 1.966 . S
Co103 N112 2.022 . S
Co103 N120 1.993 . S
Co103 O128 1.941 . S
C104 O105 1.258 . S
C104 O106 1.263 . S
O105 Co102 1.970 . S
O105 C104 1.258 . S
O106 Co103 1.966 . S
O106 C104 1.263 . S
C107 O108 1.235 . S
C107 O134 1.289 . S
O108 C107 1.235 . S
C109 C111 1.400 . S
C109 N112 1.351 . S
C109 C114 1.501 . S
C110 C111 1.387 . S
C110 N113 1.341 . S
C111 C109 1.400 . S
C111 C110 1.387 . S
N112 Co103 2.022 . S
N112 C109 1.351 . S
N112 N113 1.365 . S
N113 C110 1.341 . S
N113 N112 1.365 . S
N113 H133 0.862 . S
C114 C109 1.501 . S
C114 H115 0.961 . S
C114 H116 0.961 . S
C114 H117 0.960 . S
H115 C114 0.961 . S
H116 C114 0.961 . S
H117 C114 0.960 . S
C118 N119 1.342 . S
C118 C122 1.401 . S
C118 C123 1.499 . S
N119 Co102 1.989 . S
N119 C118 1.342 . S
N119 N120 1.388 . S
N120 Co103 1.993 . S
N120 N119 1.388 . S
N120 C121 1.346 . S
C121 N120 1.346 . S
C121 C122 1.396 . S
C121 C131 1.510 . S
C122 C118 1.401 . S
C122 C121 1.396 . S
C123 C118 1.499 . S
C123 H124 0.959 1_554 S
C123 H125 0.960 . S
C123 H126 0.961 1_554 S
H124 C123 0.959 1_556 S
H125 C123 0.960 . S
H126 C123 0.961 1_556 S
O127 Co102 1.967 . S
O127 C135 1.258 . S
O128 Co103 1.941 . S
O128 C135 1.266 . S
H129 C131 0.959 . S
H130 C131 0.961 . S
C131 C121 1.510 . S
C131 H129 0.959 . S
C131 H130 0.961 . S
C131 H132 0.960 . S
H132 C131 0.960 . S
H133 N113 0.862 . S
O134 Co102 1.920 1_556 S
O134 C107 1.289 . S
C135 O127 1.258 . S
C135 O128 1.266 . S
Co136 O139 1.970 . S
Co136 N153 1.989 . S
Co136 O161 1.967 . S
Co136 O168 1.920 . S
Co137 O140 1.966 . S
Co137 N146 2.022 . S
Co137 N154 1.993 . S
Co137 O162 1.941 . S
C138 O139 1.258 . S
C138 O140 1.263 . S
O139 Co136 1.970 . S
O139 C138 1.258 . S
O140 Co137 1.966 . S
O140 C138 1.263 . S
C141 O142 1.235 . S
C141 O168 1.289 . S
O142 C141 1.235 . S
C143 C145 1.400 . S
C143 N146 1.351 . S
C143 C148 1.501 . S
C144 C145 1.387 . S
C144 N147 1.341 . S
C145 C143 1.400 . S
C145 C144 1.387 . S
N146 Co137 2.022 . S
N146 C143 1.351 . S
N146 N147 1.365 . S
N147 C144 1.341 . S
N147 N146 1.365 . S
N147 H167 0.862 . S
C148 C143 1.501 . S
C148 H149 0.961 . S
C148 H150 0.961 . S
C148 H151 0.960 . S
H149 C148 0.961 . S
H150 C148 0.961 . S
H151 C148 0.960 . S
C152 N153 1.342 . S
C152 C156 1.401 . S
C152 C157 1.499 . S
N153 Co136 1.989 . S
N153 C152 1.342 . S
N153 N154 1.388 . S
N154 Co137 1.993 . S
N154 N153 1.388 . S
N154 C155 1.346 . S
C155 N154 1.346 . S
C155 C156 1.396 . S
C155 C165 1.510 . S
C156 C152 1.401 . S
C156 C155 1.396 . S
C157 C152 1.499 . S
C157 H158 0.959 . S
C157 H159 0.960 . S
C157 H160 0.961 . S
H158 C157 0.959 . S
H159 C157 0.960 . S
H160 C157 0.961 . S
O161 Co136 1.967 . S
O161 C169 1.258 . S
O162 Co137 1.941 . S
O162 C169 1.266 . S
H163 C165 0.959 . S
H164 C165 0.961 . S
C165 C155 1.510 . S
C165 H163 0.959 . S
C165 H164 0.961 . S
C165 H166 0.960 . S
H166 C165 0.960 . S
H167 N147 0.862 . S
O168 Co136 1.920 . S
O168 C141 1.289 . S
C169 O161 1.258 . S
C169 O162 1.266 . S
Co170 O173 1.970 . S
Co170 N187 1.989 . S
Co170 O195 1.967 . S
Co170 O202 1.920 . S
Co171 O174 1.966 . S
Co171 N180 2.022 1_556 S
Co171 N188 1.993 . S
Co171 O196 1.941 . S
C172 O173 1.258 . S
C172 O174 1.263 . S
O173 Co170 1.970 . S
O173 C172 1.258 . S
O174 Co171 1.966 . S
O174 C172 1.263 . S
C175 O176 1.235 . S
C175 O202 1.289 . S
O176 C175 1.235 . S
C177 C179 1.400 . S
C177 N180 1.351 . S
C177 C182 1.501 . S
C178 C179 1.387 . S
C178 N181 1.341 . S
C179 C177 1.400 . S
C179 C178 1.387 . S
N180 Co171 2.022 1_554 S
N180 C177 1.351 . S
N180 N181 1.365 . S
N181 C178 1.341 . S
N181 N180 1.365 . S
N181 H201 0.862 . S
C182 C177 1.501 . S
C182 H183 0.961 . S
C182 H184 0.961 . S
C182 H185 0.960 . S
H183 C182 0.961 . S
H184 C182 0.961 . S
H185 C182 0.960 . S
C186 N187 1.342 . S
C186 C190 1.401 . S
C186 C191 1.499 . S
N187 Co170 1.989 . S
N187 C186 1.342 . S
N187 N188 1.388 . S
N188 Co171 1.993 . S
N188 N187 1.388 . S
N188 C189 1.346 . S
C189 N188 1.346 . S
C189 C190 1.396 . S
C189 C199 1.510 . S
C190 C186 1.401 . S
C190 C189 1.396 . S
C191 C186 1.499 . S
C191 H192 0.959 . S
C191 H193 0.960 . S
C191 H194 0.961 . S
H192 C191 0.959 . S
H193 C191 0.960 . S
H194 C191 0.961 . S
O195 Co170 1.967 . S
O195 C203 1.258 . S
O196 Co171 1.941 . S
O196 C203 1.266 . S
H197 C199 0.959 . S
H198 C199 0.961 . S
C199 C189 1.510 . S
C199 H197 0.959 . S
C199 H198 0.961 . S
C199 H200 0.960 . S
H200 C199 0.960 . S
H201 N181 0.862 . S
O202 Co170 1.920 . S
O202 C175 1.289 . S
C203 O195 1.258 . S
C203 O196 1.266 . S
C204 C205 1.391 . S
C204 C206 1.394 . S
C204 H220 0.931 . S
C205 C204 1.391 . S
C205 C209 1.376 . S
C206 C204 1.394 . S
C206 C207 1.369 1_554 S
C206 C210 1.531 . S
C207 C206 1.369 1_556 S
C207 C208 1.410 . S
C207 C215 1.503 . S
C208 C207 1.410 . S
C208 C209 1.392 1_556 S
C208 C211 1.511 . S
C209 C205 1.376 . S
C209 C208 1.392 1_554 S
C209 H221 0.929 . S
C210 C206 1.531 . S
C210 H222 0.960 . S
C210 H223 0.962 . S
C210 H224 0.960 . S
C211 C208 1.511 . S
C211 H225 0.961 . S
C211 H226 0.961 . S
C211 H227 0.961 . S
C212 C213 1.370 . S
C212 C214 1.363 . S
C212 H228 0.931 . S
C213 C212 1.370 . S
C213 C217 1.408 . S
C214 C212 1.363 . S
C214 C215 1.370 . S
C214 C218 1.524 1_556 S
C215 C207 1.503 . S
C215 C214 1.370 . S
C215 C216 1.403 . S
C216 C215 1.403 . S
C216 C217 1.404 . S
C216 C219 1.539 . S
C217 C213 1.408 . S
C217 C216 1.404 . S
C217 H229 0.930 . S
C218 C214 1.524 1_554 S
C218 H230 0.956 . S
C218 H231 0.961 . S
C218 H232 0.961 . S
C219 C216 1.539 . S
C219 H233 0.958 . S
C219 H234 0.961 . S
C219 H235 0.960 . S
H220 C204 0.931 . S
H221 C209 0.929 . S
H222 C210 0.960 . S
H223 C210 0.962 . S
H224 C210 0.960 . S
H225 C211 0.961 . S
H226 C211 0.961 . S
H227 C211 0.961 . S
H228 C212 0.931 . S
H229 C217 0.930 . S
H230 C218 0.956 . S
H231 C218 0.961 . S
H232 C218 0.961 . S
H233 C219 0.958 . S
H234 C219 0.961 . S
H235 C219 0.960 . S
C236 C237 1.391 . S
C236 C238 1.394 . S
C236 H252 0.931 . S
C237 C236 1.391 . S
C237 C241 1.376 . S
C238 C236 1.394 . S
C238 C239 1.369 . S
C238 C242 1.531 . S
C239 C238 1.369 . S
C239 C240 1.410 . S
C239 C247 1.503 . S
C240 C239 1.410 . S
C240 C241 1.392 . S
C240 C243 1.511 . S
C241 C237 1.376 . S
C241 C240 1.392 . S
C241 H253 0.929 . S
C242 C238 1.531 . S
C242 H254 0.960 . S
C242 H255 0.962 . S
C242 H256 0.960 . S
C243 C240 1.511 . S
C243 H257 0.961 . S
C243 H258 0.961 . S
C243 H259 0.961 . S
C244 C245 1.370 . S
C244 C246 1.363 . S
C244 H260 0.931 . S
C245 C244 1.370 . S
C245 C249 1.408 . S
C246 C244 1.363 . S
C246 C247 1.370 . S
C246 C250 1.524 . S
C247 C239 1.503 . S
C247 C246 1.370 . S
C247 C248 1.403 . S
C248 C247 1.403 . S
C248 C249 1.404 . S
C248 C251 1.539 . S
C249 C245 1.408 . S
C249 C248 1.404 . S
C249 H261 0.930 . S
C250 C246 1.524 . S
C250 H262 0.956 . S
C250 H263 0.961 . S
C250 H264 0.961 . S
C251 C248 1.539 . S
C251 H265 0.958 . S
C251 H266 0.961 . S
C251 H267 0.960 . S
H252 C236 0.931 . S
H253 C241 0.929 . S
H254 C242 0.960 . S
H255 C242 0.962 . S
H256 C242 0.960 . S
H257 C243 0.961 . S
H258 C243 0.961 . S
H259 C243 0.961 . S
H260 C244 0.931 . S
H261 C249 0.930 . S
H262 C250 0.956 . S
H263 C250 0.961 . S
H264 C250 0.961 . S
H265 C251 0.958 . S
H266 C251 0.961 . S
H267 C251 0.960 . S
C268 C269 1.391 . S
C268 C270 1.394 . S
C268 H284 0.931 . S
C269 C268 1.391 . S
C269 C273 1.376 . S
C270 C268 1.394 . S
C270 C271 1.369 . S
C270 C274 1.531 . S
C271 C270 1.369 . S
C271 C272 1.410 . S
C271 C279 1.503 . S
C272 C271 1.410 . S
C272 C273 1.392 . S
C272 C275 1.511 . S
C273 C269 1.376 . S
C273 C272 1.392 . S
C273 H285 0.929 . S
C274 C270 1.531 . S
C274 H286 0.960 . S
C274 H287 0.962 . S
C274 H288 0.960 . S
C275 C272 1.511 . S
C275 H289 0.961 . S
C275 H290 0.961 . S
C275 H291 0.961 . S
C276 C277 1.370 . S
C276 C278 1.363 . S
C276 H292 0.931 . S
C277 C276 1.370 . S
C277 C281 1.408 . S
C278 C276 1.363 . S
C278 C279 1.370 . S
C278 C282 1.524 . S
C279 C271 1.503 . S
C279 C278 1.370 . S
C279 C280 1.403 . S
C280 C279 1.403 . S
C280 C281 1.404 . S
C280 C283 1.539 . S
C281 C277 1.408 . S
C281 C280 1.404 . S
C281 H293 0.930 . S
C282 C278 1.524 . S
C282 H294 0.956 . S
C282 H295 0.961 . S
C282 H296 0.961 . S
C283 C280 1.539 . S
C283 H297 0.958 . S
C283 H298 0.961 . S
C283 H299 0.960 . S
H284 C268 0.931 . S
H285 C273 0.929 . S
H286 C274 0.960 . S
H287 C274 0.962 . S
H288 C274 0.960 . S
H289 C275 0.961 . S
H290 C275 0.961 . S
H291 C275 0.961 . S
H292 C276 0.931 . S
H293 C281 0.930 . S
H294 C282 0.956 . S
H295 C282 0.961 . S
H296 C282 0.961 . S
H297 C283 0.958 . S
H298 C283 0.961 . S
H299 C283 0.960 . S
C300 C301 1.391 . S
C300 C302 1.394 . S
C300 H316 0.931 . S
C301 C300 1.391 . S
C301 C305 1.376 . S
C302 C300 1.394 . S
C302 C303 1.369 . S
C302 C306 1.531 . S
C303 C302 1.369 . S
C303 C304 1.410 . S
C303 C311 1.503 1_556 S
C304 C303 1.410 . S
C304 C305 1.392 . S
C304 C307 1.511 1_556 S
C305 C301 1.376 . S
C305 C304 1.392 . S
C305 H317 0.929 . S
C306 C302 1.531 . S
C306 H318 0.960 . S
C306 H319 0.962 . S
C306 H320 0.960 . S
C307 C304 1.511 1_554 S
C307 H321 0.961 . S
C307 H322 0.961 . S
C307 H323 0.961 . S
C308 C309 1.370 . S
C308 C310 1.363 . S
C308 H324 0.931 . S
C309 C308 1.370 . S
C309 C313 1.408 . S
C310 C308 1.363 . S
C310 C311 1.370 . S
C310 C314 1.524 . S
C311 C303 1.503 1_554 S
C311 C310 1.370 . S
C311 C312 1.403 . S
C312 C311 1.403 . S
C312 C313 1.404 . S
C312 C315 1.539 . S
C313 C309 1.408 . S
C313 C312 1.404 . S
C313 H325 0.930 . S
C314 C310 1.524 . S
C314 H326 0.956 1_554 S
C314 H327 0.961 . S
C314 H328 0.961 . S
C315 C312 1.539 . S
C315 H329 0.958 1_554 S
C315 H330 0.961 . S
C315 H331 0.960 1_554 S
H316 C300 0.931 . S
H317 C305 0.929 . S
H318 C306 0.960 . S
H319 C306 0.962 . S
H320 C306 0.960 . S
H321 C307 0.961 . S
H322 C307 0.961 . S
H323 C307 0.961 . S
H324 C308 0.931 . S
H325 C313 0.930 . S
H326 C314 0.956 1_556 S
H327 C314 0.961 . S
H328 C314 0.961 . S
H329 C315 0.958 1_556 S
H330 C315 0.961 . S
H331 C315 0.960 1_556 S
C332 C333 1.391 . S
C332 C334 1.394 . S
C332 H348 0.931 . S
C333 C332 1.391 . S
C333 C337 1.376 . S
C334 C332 1.394 . S
C334 C335 1.369 . S
C334 C338 1.531 . S
C335 C334 1.369 . S
C335 C336 1.410 . S
C335 C343 1.503 . S
C336 C335 1.410 . S
C336 C337 1.392 . S
C336 C339 1.511 . S
C337 C333 1.376 . S
C337 C336 1.392 . S
C337 H349 0.929 . S
C338 C334 1.531 . S
C338 H350 0.960 . S
C338 H351 0.962 . S
C338 H352 0.960 . S
C339 C336 1.511 . S
C339 H353 0.961 . S
C339 H354 0.961 . S
C339 H355 0.961 . S
C340 C341 1.370 . S
C340 C342 1.363 . S
C340 H356 0.931 . S
C341 C340 1.370 . S
C341 C345 1.408 . S
C342 C340 1.363 . S
C342 C343 1.370 . S
C342 C346 1.524 . S
C343 C335 1.503 . S
C343 C342 1.370 . S
C343 C344 1.403 . S
C344 C343 1.403 . S
C344 C345 1.404 . S
C344 C347 1.539 . S
C345 C341 1.408 . S
C345 C344 1.404 . S
C345 H357 0.930 . S
C346 C342 1.524 . S
C346 H358 0.956 . S
C346 H359 0.961 . S
C346 H360 0.961 . S
C347 C344 1.539 . S
C347 H361 0.958 . S
C347 H362 0.961 . S
C347 H363 0.960 . S
H348 C332 0.931 . S
H349 C337 0.929 . S
H350 C338 0.960 . S
H351 C338 0.962 . S
H352 C338 0.960 . S
H353 C339 0.961 . S
H354 C339 0.961 . S
H355 C339 0.961 . S
H356 C340 0.931 . S
H357 C345 0.930 . S
H358 C346 0.956 . S
H359 C346 0.961 . S
H360 C346 0.961 . S
H361 C347 0.958 . S
H362 C347 0.961 . S
H363 C347 0.960 . S
C364 C365 1.391 . S
C364 C366 1.394 . S
C364 H380 0.931 . S
C365 C364 1.391 . S
C365 C369 1.376 . S
C366 C364 1.394 . S
C366 C367 1.369 . S
C366 C370 1.531 . S
C367 C366 1.369 . S
C367 C368 1.410 . S
C367 C375 1.503 . S
C368 C367 1.410 . S
C368 C369 1.392 . S
C368 C371 1.511 . S
C369 C365 1.376 . S
C369 C368 1.392 . S
C369 H381 0.929 . S
C370 C366 1.531 . S
C370 H382 0.960 . S
C370 H383 0.962 . S
C370 H384 0.960 . S
C371 C368 1.511 . S
C371 H385 0.961 . S
C371 H386 0.961 . S
C371 H387 0.961 . S
C372 C373 1.370 . S
C372 C374 1.363 . S
C372 H388 0.931 . S
C373 C372 1.370 . S
C373 C377 1.408 . S
C374 C372 1.363 . S
C374 C375 1.370 . S
C374 C378 1.524 . S
C375 C367 1.503 . S
C375 C374 1.370 . S
C375 C376 1.403 . S
C376 C375 1.403 . S
C376 C377 1.404 . S
C376 C379 1.539 . S
C377 C373 1.408 . S
C377 C376 1.404 . S
C377 H389 0.930 . S
C378 C374 1.524 . S
C378 H390 0.956 . S
C378 H391 0.961 . S
C378 H392 0.961 . S
C379 C376 1.539 . S
C379 H393 0.958 . S
C379 H394 0.961 . S
C379 H395 0.960 . S
H380 C364 0.931 . S
H381 C369 0.929 . S
H382 C370 0.960 . S
H383 C370 0.962 . S
H384 C370 0.960 . S
H385 C371 0.961 . S
H386 C371 0.961 . S
H387 C371 0.961 . S
H388 C372 0.931 . S
H389 C377 0.930 . S
H390 C378 0.956 . S
H391 C378 0.961 . S
H392 C378 0.961 . S
H393 C379 0.958 . S
H394 C379 0.961 . S
H395 C379 0.960 . S
C396 C397 1.391 . S
C396 C398 1.394 . S
C396 H412 0.931 . S
C397 C396 1.391 . S
C397 C401 1.376 . S
C398 C396 1.394 . S
C398 C399 1.369 . S
C398 C402 1.531 . S
C399 C398 1.369 . S
C399 C400 1.410 . S
C399 C407 1.503 . S
C400 C399 1.410 . S
C400 C401 1.392 . S
C400 C403 1.511 . S
C401 C397 1.376 . S
C401 C400 1.392 . S
C401 H413 0.929 . S
C402 C398 1.531 . S
C402 H414 0.960 . S
C402 H415 0.962 . S
C402 H416 0.960 . S
C403 C400 1.511 . S
C403 H417 0.961 . S
C403 H418 0.961 . S
C403 H419 0.961 . S
C404 C405 1.370 . S
C404 C406 1.363 . S
C404 H420 0.931 . S
C405 C404 1.370 . S
C405 C409 1.408 . S
C406 C404 1.363 . S
C406 C407 1.370 . S
C406 C410 1.524 . S
C407 C399 1.503 . S
C407 C406 1.370 . S
C407 C408 1.403 . S
C408 C407 1.403 . S
C408 C409 1.404 . S
C408 C411 1.539 . S
C409 C405 1.408 . S
C409 C408 1.404 . S
C409 H421 0.930 . S
C410 C406 1.524 . S
C410 H422 0.956 . S
C410 H423 0.961 . S
C410 H424 0.961 . S
C411 C408 1.539 . S
C411 H425 0.958 . S
C411 H426 0.961 . S
C411 H427 0.960 . S
H412 C396 0.931 . S
H413 C401 0.929 . S
H414 C402 0.960 . S
H415 C402 0.962 . S
H416 C402 0.960 . S
H417 C403 0.961 . S
H418 C403 0.961 . S
H419 C403 0.961 . S
H420 C404 0.931 . S
H421 C409 0.930 . S
H422 C410 0.956 . S
H423 C410 0.961 . S
H424 C410 0.961 . S
H425 C411 0.958 . S
H426 C411 0.961 . S
H427 C411 0.960 . S
C428 C429 1.391 . S
C428 C430 1.394 . S
C428 H444 0.931 . S
C429 C428 1.391 . S
C429 C433 1.376 . S
C430 C428 1.394 . S
C430 C431 1.369 . S
C430 C434 1.531 . S
C431 C430 1.369 . S
C431 C432 1.410 . S
C431 C439 1.503 1_556 S
C432 C431 1.410 . S
C432 C433 1.392 . S
C432 C435 1.512 . S
C433 C429 1.376 . S
C433 C432 1.392 . S
C433 H445 0.929 . S
C434 C430 1.531 . S
C434 H446 0.960 1_556 S
C434 H447 0.962 . S
C434 H448 0.960 . S
C435 C432 1.512 . S
C435 H449 0.962 . S
C435 H450 0.960 1_556 S
C435 H451 0.960 1_556 S
C436 C437 1.370 . S
C436 C438 1.363 . S
C436 H452 0.931 . S
C437 C436 1.370 . S
C437 C441 1.408 . S
C438 C436 1.363 . S
C438 C439 1.370 . S
C438 C442 1.524 . S
C439 C431 1.503 1_554 S
C439 C438 1.370 . S
C439 C440 1.403 . S
C440 C439 1.403 . S
C440 C441 1.404 . S
C440 C443 1.539 . S
C441 C437 1.408 . S
C441 C440 1.404 . S
C441 H453 0.930 . S
C442 C438 1.524 . S
C442 H454 0.956 1_554 S
C442 H455 0.961 1_554 S
C442 H456 0.961 . S
C443 C440 1.539 . S
C443 H457 0.958 . S
C443 H458 0.961 . S
C443 H459 0.960 . S
H444 C428 0.931 . S
H445 C433 0.929 . S
H446 C434 0.960 1_554 S
H447 C434 0.962 . S
H448 C434 0.960 . S
H449 C435 0.962 . S
H450 C435 0.960 1_554 S
H451 C435 0.960 1_554 S
H452 C436 0.931 . S
H453 C441 0.930 . S
H454 C442 0.956 1_556 S
H455 C442 0.961 1_556 S
H456 C442 0.961 . S
H457 C443 0.958 . S
H458 C443 0.961 . S
H459 C443 0.960 . S
C460 C461 1.391 . S
C460 C462 1.394 . S
C460 H476 0.931 . S
C461 C460 1.391 . S
C461 C465 1.376 . S
C462 C460 1.394 . S
C462 C463 1.369 . S
C462 C466 1.531 . S
C463 C462 1.369 . S
C463 C464 1.410 . S
C463 C471 1.503 . S
C464 C463 1.410 . S
C464 C465 1.392 . S
C464 C467 1.511 . S
C465 C461 1.376 . S
C465 C464 1.392 . S
C465 H477 0.929 . S
C466 C462 1.531 . S
C466 H478 0.960 . S
C466 H479 0.962 . S
C466 H480 0.960 . S
C467 C464 1.511 . S
C467 H481 0.961 . S
C467 H482 0.961 . S
C467 H483 0.961 . S
C468 C469 1.370 . S
C468 C470 1.363 . S
C468 H484 0.931 . S
C469 C468 1.370 . S
C469 C473 1.408 . S
C470 C468 1.363 . S
C470 C471 1.370 . S
C470 C474 1.524 . S
C471 C463 1.503 . S
C471 C470 1.370 . S
C471 C472 1.403 . S
C472 C471 1.403 . S
C472 C473 1.404 . S
C472 C475 1.539 . S
C473 C469 1.408 . S
C473 C472 1.404 . S
C473 H485 0.930 . S
C474 C470 1.524 . S
C474 H486 0.956 . S
C474 H487 0.961 . S
C474 H488 0.961 . S
C475 C472 1.539 . S
C475 H489 0.958 . S
C475 H490 0.961 . S
C475 H491 0.960 . S
H476 C460 0.931 . S
H477 C465 0.929 . S
H478 C466 0.960 . S
H479 C466 0.962 . S
H480 C466 0.960 . S
H481 C467 0.961 . S
H482 C467 0.961 . S
H483 C467 0.961 . S
H484 C468 0.931 . S
H485 C473 0.930 . S
H486 C474 0.956 . S
H487 C474 0.961 . S
H488 C474 0.961 . S
H489 C475 0.958 . S
H490 C475 0.961 . S
H491 C475 0.960 . S
C492 C493 1.391 . S
C492 C494 1.394 . S
C492 H508 0.931 . S
C493 C492 1.391 . S
C493 C497 1.376 . S
C494 C492 1.394 . S
C494 C495 1.369 . S
C494 C498 1.531 . S
C495 C494 1.369 . S
C495 C496 1.410 . S
C495 C503 1.503 . S
C496 C495 1.410 . S
C496 C497 1.392 . S
C496 C499 1.511 . S
C497 C493 1.376 . S
C497 C496 1.392 . S
C497 H509 0.929 . S
C498 C494 1.531 . S
C498 H510 0.960 . S
C498 H511 0.962 . S
C498 H512 0.960 . S
C499 C496 1.511 . S
C499 H513 0.961 . S
C499 H514 0.961 . S
C499 H515 0.961 . S
C500 C501 1.370 . S
C500 C502 1.363 . S
C500 H516 0.931 . S
C501 C500 1.370 . S
C501 C505 1.408 . S
C502 C500 1.363 . S
C502 C503 1.370 . S
C502 C506 1.524 . S
C503 C495 1.503 . S
C503 C502 1.370 . S
C503 C504 1.403 . S
C504 C503 1.403 . S
C504 C505 1.404 . S
C504 C507 1.539 . S
C505 C501 1.408 . S
C505 C504 1.404 . S
C505 H517 0.930 . S
C506 C502 1.524 . S
C506 H518 0.956 . S
C506 H519 0.961 . S
C506 H520 0.961 . S
C507 C504 1.539 . S
C507 H521 0.958 . S
C507 H522 0.961 . S
C507 H523 0.960 . S
H508 C492 0.931 . S
H509 C497 0.929 . S
H510 C498 0.960 . S
H511 C498 0.962 . S
H512 C498 0.960 . S
H513 C499 0.961 . S
H514 C499 0.961 . S
H515 C499 0.961 . S
H516 C500 0.931 . S
H517 C505 0.930 . S
H518 C506 0.956 . S
H519 C506 0.961 . S
H520 C506 0.961 . S
H521 C507 0.958 . S
H522 C507 0.961 . S
H523 C507 0.960 . S
C524 C525 1.391 . S
C524 C526 1.394 . S
C524 H540 0.931 . S
C525 C524 1.391 . S
C525 C529 1.376 . S
C526 C524 1.394 . S
C526 C527 1.369 . S
C526 C530 1.531 . S
C527 C526 1.369 . S
C527 C528 1.410 . S
C527 C535 1.503 1_554 S
C528 C527 1.410 . S
C528 C529 1.392 . S
C528 C531 1.511 . S
C529 C525 1.376 . S
C529 C528 1.392 . S
C529 H541 0.929 . S
C530 C526 1.531 . S
C530 H542 0.960 . S
C530 H543 0.962 . S
C530 H544 0.960 . S
C531 C528 1.511 . S
C531 H545 0.961 . S
C531 H546 0.961 1_554 S
C531 H547 0.961 . S
C532 C533 1.370 . S
C532 C534 1.363 . S
C532 H548 0.931 . S
C533 C532 1.370 . S
C533 C537 1.408 . S
C534 C532 1.363 . S
C534 C535 1.370 . S
C534 C538 1.524 . S
C535 C527 1.503 1_556 S
C535 C534 1.370 . S
C535 C536 1.403 . S
C536 C535 1.403 . S
C536 C537 1.404 . S
C536 C539 1.539 1_556 S
C537 C533 1.408 . S
C537 C536 1.404 . S
C537 H549 0.930 . S
C538 C534 1.524 . S
C538 H550 0.956 1_556 S
C538 H551 0.961 . S
C538 H552 0.961 . S
C539 C536 1.539 1_554 S
C539 H553 0.958 . S
C539 H554 0.961 1_554 S
C539 H555 0.960 . S
H540 C524 0.931 . S
H541 C529 0.929 . S
H542 C530 0.960 . S
H543 C530 0.962 . S
H544 C530 0.960 . S
H545 C531 0.961 . S
H546 C531 0.961 1_556 S
H547 C531 0.961 . S
H548 C532 0.931 . S
H549 C537 0.930 . S
H550 C538 0.956 1_554 S
H551 C538 0.961 . S
H552 C538 0.961 . S
H553 C539 0.958 . S
H554 C539 0.961 1_556 S
H555 C539 0.960 . S
C556 C557 1.391 . S
C556 C558 1.394 . S
C556 H572 0.931 . S
C557 C556 1.391 . S
C557 C561 1.376 . S
C558 C556 1.394 . S
C558 C559 1.369 . S
C558 C562 1.531 . S
C559 C558 1.369 . S
C559 C560 1.410 . S
C559 C567 1.503 . S
C560 C559 1.410 . S
C560 C561 1.392 . S
C560 C563 1.511 . S
C561 C557 1.376 . S
C561 C560 1.392 . S
C561 H573 0.929 . S
C562 C558 1.531 . S
C562 H574 0.960 . S
C562 H575 0.962 . S
C562 H576 0.960 . S
C563 C560 1.511 . S
C563 H577 0.961 . S
C563 H578 0.961 . S
C563 H579 0.961 . S
C564 C565 1.370 . S
C564 C566 1.363 . S
C564 H580 0.931 . S
C565 C564 1.370 . S
C565 C569 1.408 . S
C566 C564 1.363 . S
C566 C567 1.370 . S
C566 C570 1.524 . S
C567 C559 1.503 . S
C567 C566 1.370 . S
C567 C568 1.403 . S
C568 C567 1.403 . S
C568 C569 1.404 . S
C568 C571 1.539 . S
C569 C565 1.408 . S
C569 C568 1.404 . S
C569 H581 0.930 . S
C570 C566 1.524 . S
C570 H582 0.956 . S
C570 H583 0.961 . S
C570 H584 0.961 . S
C571 C568 1.539 . S
C571 H585 0.958 . S
C571 H586 0.961 . S
C571 H587 0.960 . S
H572 C556 0.931 . S
H573 C561 0.929 . S
H574 C562 0.960 . S
H575 C562 0.962 . S
H576 C562 0.960 . S
H577 C563 0.961 . S
H578 C563 0.961 . S
H579 C563 0.961 . S
H580 C564 0.931 . S
H581 C569 0.930 . S
H582 C570 0.956 . S
H583 C570 0.961 . S
H584 C570 0.961 . S
H585 C571 0.958 . S
H586 C571 0.961 . S
H587 C571 0.960 . S
C588 C589 1.391 . S
C588 C590 1.394 . S
C588 H604 0.931 . S
C589 C588 1.391 . S
C589 C593 1.376 . S
C590 C588 1.394 . S
C590 C591 1.369 . S
C590 C594 1.531 . S
C591 C590 1.369 . S
C591 C592 1.410 . S
C591 C599 1.503 1_655 S
C592 C591 1.410 . S
C592 C593 1.392 . S
C592 C595 1.511 1_655 S
C593 C589 1.376 . S
C593 C592 1.392 . S
C593 H605 0.929 . S
C594 C590 1.531 . S
C594 H606 0.960 . S
C594 H607 0.962 . S
C594 H608 0.960 . S
C595 C592 1.511 1_455 S
C595 H609 0.961 1_455 S
C595 H610 0.961 . S
C595 H611 0.961 . S
C596 C597 1.370 . S
C596 C598 1.363 . S
C596 H612 0.931 . S
C597 C596 1.370 . S
C597 C601 1.408 . S
C598 C596 1.363 . S
C598 C599 1.370 . S
C598 C602 1.524 . S
C599 C591 1.503 1_455 S
C599 C598 1.370 . S
C599 C600 1.403 . S
C600 C599 1.403 . S
C600 C601 1.404 . S
C600 C603 1.539 . S
C601 C597 1.408 . S
C601 C600 1.404 . S
C601 H613 0.930 . S
C602 C598 1.524 . S
C602 H614 0.956 1_455 S
C602 H615 0.961 1_455 S
C602 H616 0.961 . S
C603 C600 1.539 . S
C603 H617 0.958 . S
C603 H618 0.961 . S
C603 H619 0.960 . S
H604 C588 0.931 . S
H605 C593 0.929 . S
H606 C594 0.960 . S
H607 C594 0.962 . S
H608 C594 0.960 . S
H609 C595 0.961 1_655 S
H610 C595 0.961 . S
H611 C595 0.961 . S
H612 C596 0.931 . S
H613 C601 0.930 . S
H614 C602 0.956 1_655 S
H615 C602 0.961 1_655 S
H616 C602 0.961 . S
H617 C603 0.958 . S
H618 C603 0.961 . S
H619 C603 0.960 . S
C620 C621 1.391 . S
C620 C622 1.394 . S
C620 H636 0.931 . S
C621 C620 1.391 . S
C621 C625 1.376 . S
C622 C620 1.394 . S
C622 C623 1.369 . S
C622 C626 1.521 1_545 S
C623 C622 1.369 . S
C623 C624 1.410 . S
C623 C631 1.503 1_545 S
C624 C623 1.410 . S
C624 C625 1.392 . S
C624 C627 1.511 . S
C625 C621 1.376 . S
C625 C624 1.392 . S
C625 H637 0.929 . S
C626 C622 1.521 1_565 S
C626 H638 0.980 . S
C626 H639 0.970 . S
C626 H640 0.942 1_565 S
C627 C624 1.511 . S
C627 H641 0.961 . S
C627 H642 0.961 . S
C627 H643 0.961 . S
C628 C629 1.370 . S
C628 C630 1.363 . S
C628 H644 0.931 . S
C629 C628 1.370 . S
C629 C633 1.408 . S
C630 C628 1.363 . S
C630 C631 1.370 . S
C630 C634 1.511 1_565 S
C631 C623 1.503 1_565 S
C631 C630 1.370 . S
C631 C632 1.403 . S
C632 C631 1.403 . S
C632 C633 1.404 . S
C632 C635 1.539 . S
C633 C629 1.408 . S
C633 C632 1.404 . S
C633 H645 0.930 . S
C634 C630 1.511 1_545 S
C634 H646 0.976 . S
C634 H647 0.979 . S
C634 H648 0.938 1_545 S
C635 C632 1.539 . S
C635 H649 0.958 . S
C635 H650 0.961 . S
C635 H651 0.960 . S
H636 C620 0.931 . S
H637 C625 0.929 . S
H638 C626 0.980 . S
H639 C626 0.970 . S
H640 C626 0.942 1_545 S
H641 C627 0.961 . S
H642 C627 0.961 . S
H643 C627 0.961 . S
H644 C628 0.931 . S
H645 C633 0.930 . S
H646 C634 0.976 . S
H647 C634 0.979 . S
H648 C634 0.938 1_565 S
H649 C635 0.958 . S
H650 C635 0.961 . S
H651 C635 0.960 . S
C652 C653 1.391 . S
C652 C654 1.394 . S
C652 H668 0.931 . S
C653 C652 1.391 . S
C653 C657 1.376 . S
C654 C652 1.394 . S
C654 C655 1.369 . S
C654 C658 1.531 . S
C655 C654 1.369 . S
C655 C656 1.410 . S
C655 C663 1.503 . S
C656 C655 1.410 . S
C656 C657 1.392 . S
C656 C659 1.511 . S
C657 C653 1.376 . S
C657 C656 1.392 . S
C657 H669 0.929 . S
C658 C654 1.531 . S
C658 H670 0.960 . S
C658 H671 0.962 . S
C658 H672 0.960 . S
C659 C656 1.511 . S
C659 H673 0.961 . S
C659 H674 0.961 . S
C659 H675 0.961 . S
C660 C661 1.370 . S
C660 C662 1.363 . S
C660 H676 0.931 . S
C661 C660 1.370 . S
C661 C665 1.408 . S
C662 C660 1.363 . S
C662 C663 1.370 . S
C662 C666 1.524 . S
C663 C655 1.503 . S
C663 C662 1.370 . S
C663 C664 1.403 . S
C664 C663 1.403 . S
C664 C665 1.404 . S
C664 C667 1.539 . S
C665 C661 1.408 . S
C665 C664 1.404 . S
C665 H677 0.930 . S
C666 C662 1.524 . S
C666 H678 0.956 . S
C666 H679 0.961 . S
C666 H680 0.961 . S
C667 C664 1.539 . S
C667 H681 0.958 . S
C667 H682 0.962 . S
C667 H683 0.960 . S
H668 C652 0.931 . S
H669 C657 0.929 . S
H670 C658 0.960 . S
H671 C658 0.962 . S
H672 C658 0.960 . S
H673 C659 0.961 . S
H674 C659 0.961 . S
H675 C659 0.961 . S
H676 C660 0.931 . S
H677 C665 0.930 . S
H678 C666 0.956 . S
H679 C666 0.961 . S
H680 C666 0.961 . S
H681 C667 0.958 . S
H682 C667 0.962 . S
H683 C667 0.960 . S
C205 C33 1.476 . S
C213 C70 1.454 . S
C237 C67 1.498 . S
C245 C104 1.453 . S
C269 C138 1.465 . S
C277 C101 1.485 . S
C301 C172 1.468 . S
C309 C135 1.492 . S
C333 C169 1.478 . S
C341 C2 1.455 . S
C365 C36 1.439 . S
C373 C203 1.482 . S
C397 C5 1.223 . S
C405 C9 1.218 . S
C429 C43 1.213 . S
C437 C39 1.203 . S
C461 C73 1.185 . S
C469 C77 1.220 . S
C493 C107 1.237 . S
C501 C111 1.226 . S
C525 C141 1.189 . S
C533 C145 1.226 . S
C557 C179 1.204 . S
C565 C175 1.217 . S
C589 C122 1.532 . S
C597 C20 1.527 . S
C621 C54 1.534 . S
C629 C156 1.527 . S
C653 C88 1.524 . S
C661 C190 1.529 . S
