# Generated by pormake.
# Topology sqp, (5)-cn, num edge types: 1
# Building blocks:
#     Node 0, Type 0, BuildingBlock: BEQFEK_clean_sbu_0, # of connection points: 5
#     Node 1, Type 0, BuildingBlock: BEQFEK_clean_sbu_0, # of connection points: 5
#     Node 2, Type 0, BuildingBlock: BEQFEK_clean_sbu_0, # of connection points: 5
#     Node 3, Type 0, BuildingBlock: BEQFEK_clean_sbu_0, # of connection points: 5
#     Edge 4, Type (0, 0), BuildingBlock: XIVTED_clean_linker_0, # of connection points: 2
#     Edge 5, Type (0, 0), BuildingBlock: XIVTED_clean_linker_0, # of connection points: 2
#     Edge 6, Type (0, 0), BuildingBlock: XIVTED_clean_linker_0, # of connection points: 2
#     Edge 7, Type (0, 0), BuildingBlock: XIVTED_clean_linker_0, # of connection points: 2
#     Edge 8, Type (0, 0), BuildingBlock: XIVTED_clean_linker_0, # of connection points: 2
#     Edge 9, Type (0, 0), BuildingBlock: XIVTED_clean_linker_0, # of connection points: 2
#     Edge 10, Type (0, 0), BuildingBlock: XIVTED_clean_linker_0, # of connection points: 2
#     Edge 11, Type (0, 0), BuildingBlock: XIVTED_clean_linker_0, # of connection points: 2
#     Edge 12, Type (0, 0), BuildingBlock: XIVTED_clean_linker_0, # of connection points: 2
#     Edge 13, Type (0, 0), BuildingBlock: XIVTED_clean_linker_0, # of connection points: 2
# Relax obj value: 0.030
# Max RMSD: 0.082
# Mean RMSD: 0.082
data_MOF--net-sqp--node1-BEQFEK_clean_sbu_0--edge1-XIVTED_clean_linker_0
_symmetry_space_group_name_H-M    P1
_symmetry_Int_Tables_number       1
_symmetry_cell_setting            triclinic
loop_
_symmetry_equiv_pos_as_xyz
'x, y, z'
_cell_length_a     24.639851
_cell_length_b     24.813809
_cell_length_c     39.073641
_cell_angle_alpha  97.176288
_cell_angle_beta   97.16554
_cell_angle_gamma 101.58102
loop_
_atom_site_label
_atom_site_type_symbol
_atom_site_fract_x
_atom_site_fract_y
_atom_site_fract_z
_atom_type_partial_charge
Co0 Co 0.04863 0.94602 0.29013 0.0
Co1 Co 0.97015 0.03169 0.29688 0.0
C2 C 0.92386 0.91444 0.26361 0.0
O3 O 0.97235 0.90373 0.26903 0.0
O4 O 0.91629 0.96333 0.27213 0.0
C5 C 0.09594 0.87198 0.24822 0.0
O6 O 0.05572 0.87822 0.22461 0.0
C7 C 0.89631 0.10955 0.28038 0.0
C8 C 0.91357 0.16652 0.33055 0.0
C9 C 0.88262 0.15671 0.29739 0.0
N10 N 0.93387 0.09299 0.30253 0.0
N11 N 0.94382 0.12727 0.33243 0.0
C12 C 0.87271 0.07922 0.24438 0.0
H13 H 0.87868 0.03593 0.24165 0.0
H14 H 0.895 0.10058 0.22519 0.0
H15 H 0.82743 0.079 0.23832 0.0
C16 C 0.11564 0.03892 0.26241 0.0
N17 N 0.06818 0.0147 0.27328 0.0
N18 N 0.03509 0.05019 0.27536 0.0
C19 C 0.06046 0.09813 0.2657 0.0
C20 C 0.11236 0.09256 0.25721 0.0
C21 C 0.16398 0.0117 0.25846 0.0
H22 H 0.15082 0.97607 0.23689 0.0
H23 H 0.20067 0.04059 0.25225 0.0
H24 H 0.17613 -0.00462 0.28279 0.0
O25 O 0.05042 0.95911 0.34128 0.0
O26 O 0.99291 0.01736 0.34459 0.0
H27 H 0.03267 0.16161 0.29657 0.0
H28 H 0.06783 0.18586 0.26184 0.0
C29 C 0.03878 0.15044 0.26916 0.0
H30 H 0.99761 0.14319 0.25225 0.0
H31 H 0.97136 0.12385 0.35421 0.0
O32 O 0.10157 0.89801 0.27906 0.0
C33 C 0.02409 0.98881 0.35905 0.0
Co34 Co 0.069 0.96387 0.68278 0.0
Co35 Co 0.98177 0.04066 0.67829 0.0
C36 C 0.10061 0.08919 0.70697 0.0
O37 O 0.11149 0.041 0.70163 0.0
O38 O 0.05077 0.09617 0.70019 0.0
C39 C 0.14083 0.91476 0.72506 0.0
O40 O 0.12908 0.95027 0.74941 0.0
C41 C 0.90876 0.11943 0.69293 0.0
C42 C 0.83197 0.07891 0.65571 0.0
C43 C 0.85428 0.12366 0.68189 0.0
N44 N 0.91815 0.07384 0.67419 0.0
N45 N 0.87234 0.05037 0.65167 0.0
C46 C 0.94978 0.15542 0.7224 0.0
H47 H 0.9723 0.12927 0.73742 0.0
H48 H 0.9286 0.18014 0.73996 0.0
H49 H 0.98124 0.18435 0.71153 0.0
C50 C 0.97894 0.89776 0.71387 0.0
N51 N 0.00226 0.94462 0.70222 0.0
N52 N 0.96738 0.97843 0.70232 0.0
C53 C 0.92144 0.95471 0.71499 0.0
C54 C 0.92688 0.9026 0.72234 0.0
C55 C 0.00245 0.8465 0.71215 0.0
H56 H 0.02516 0.84302 0.68948 0.0
H57 H 0.03238 0.84939 0.73635 0.0
H58 H 0.96896 0.8084 0.70994 0.0
O59 O 0.05115 0.95906 0.63173 0.0
O60 O 0.9915 0.0153 0.62978 0.0
H61 H 0.84469 0.97379 0.69358 0.0
H62 H 0.84745 0.96135 0.7381 0.0
C63 C 0.87223 0.98047 0.71912 0.0
H64 H 0.88673 0.02578 0.72834 0.0
H65 H 0.86812 0.01382 0.63418 0.0
O66 O 0.11933 0.91297 0.69353 0.0
C67 C 0.01907 0.98385 0.61452 0.0
Co68 Co 0.5511 0.446 0.79091 0.0
Co69 Co 0.47402 0.53311 0.79592 0.0
C70 C 0.42686 0.41706 0.76155 0.0
O71 O 0.47487 0.40551 0.76787 0.0
O72 O 0.41987 0.46614 0.77002 0.0
C73 C 0.61019 0.38197 0.74959 0.0
O74 O 0.58488 0.40219 0.72412 0.0
C75 C 0.40129 0.61254 0.78006 0.0
C76 C 0.42162 0.67025 0.83002 0.0
C77 C 0.3892 0.66039 0.79731 0.0
N78 N 0.43938 0.59561 0.80164 0.0
N79 N 0.45116 0.63038 0.8314 0.0
C80 C 0.37564 0.58201 0.7444 0.0
H81 H 0.38057 0.53841 0.74158 0.0
H82 H 0.39722 0.60261 0.72466 0.0
H83 H 0.33049 0.58274 0.73918 0.0
C84 C 0.62388 0.54113 0.76754 0.0
N85 N 0.57446 0.5159 0.77579 0.0
N86 N 0.54074 0.55093 0.77596 0.0
C87 C 0.56708 0.59892 0.76686 0.0
C88 C 0.62061 0.59432 0.7613 0.0
C89 C 0.67422 0.51586 0.7675 0.0
H90 H 0.676 0.48933 0.78825 0.0
H91 H 0.67111 0.48976 0.74185 0.0
H92 H 0.71374 0.54791 0.77133 0.0
O93 O 0.54987 0.45766 0.84169 0.0
O94 O 0.4937 0.51732 0.84375 0.0
H95 H 0.53902 0.66488 0.79502 0.0
H96 H 0.57193 0.68455 0.75848 0.0
C97 C 0.54407 0.65042 0.76782 0.0
H98 H 0.50229 0.64068 0.75138 0.0
H99 H 0.47941 0.62678 0.85279 0.0
O100 O 0.60228 0.39563 0.78072 0.0
C101 C 0.52319 0.48784 0.85878 0.0
Co102 Co 0.56544 0.46261 0.18343 0.0
Co103 Co 0.47834 0.5397 0.17684 0.0
C104 C 0.59685 0.58751 0.2077 0.0
O105 O 0.60816 0.53946 0.2029 0.0
O106 O 0.54719 0.59416 0.19975 0.0
C107 C 0.63497 0.41279 0.22693 0.0
O108 O 0.62229 0.44822 0.25093 0.0
C109 C 0.40093 0.6153 0.19148 0.0
C110 C 0.33702 0.58755 0.14424 0.0
C111 C 0.3507 0.62456 0.17523 0.0
N112 N 0.4155 0.57424 0.17109 0.0
N113 N 0.37711 0.55811 0.14291 0.0
C114 C 0.43545 0.64591 0.22511 0.0
H115 H 0.47977 0.64294 0.226 0.0
H116 H 0.41929 0.62696 0.24712 0.0
H117 H 0.4329 0.69037 0.22854 0.0
C118 C 0.47253 0.39646 0.21226 0.0
N119 N 0.49702 0.44356 0.20133 0.0
N120 N 0.46184 0.47705 0.20012 0.0
C121 C 0.41431 0.45277 0.21091 0.0
C122 C 0.41928 0.40075 0.21874 0.0
C123 C 0.49632 0.3454 0.21148 0.0
H124 H 0.52043 0.34198 0.18947 0.0
H125 H 0.52504 0.34857 0.23623 0.0
H126 H 0.46286 0.30713 0.2087 0.0
O127 O 0.5501 0.45802 0.13221 0.0
O128 O 0.49061 0.51431 0.12893 0.0
H129 H 0.34268 0.47631 0.18544 0.0
H130 H 0.33421 0.45564 0.22755 0.0
C131 C 0.36417 0.47795 0.21236 0.0
H132 H 0.37777 0.52208 0.22476 0.0
H133 H 0.37823 0.52675 0.12271 0.0
O134 O 0.61486 0.41125 0.19516 0.0
C135 C 0.51883 0.48283 0.11438 0.0
H136 H 0.08142 0.92986 0.4003 0.0
H137 H 0.95369 0.02913 0.56963 0.0
H138 H 0.97143 0.04522 0.40422 0.0
H139 H 0.07896 0.9297 0.57218 0.0
H140 H 0.95565 0.02943 0.50765 0.0
H141 H 0.07884 0.92521 0.46237 0.0
C142 C 0.05703 0.95443 0.41419 0.0
C143 C 0.02653 0.98792 0.39696 0.0
C144 C 0.98268 0.0074 0.52168 0.0
C145 C 0.02299 0.98231 0.46769 0.0
C146 C 0.98143 0.00702 0.55714 0.0
C147 C 0.01649 0.97963 0.57626 0.0
C148 C 0.01922 0.98019 0.50503 0.0
C149 C 0.05131 0.95148 0.55849 0.0
C150 C 0.05545 0.9516 0.44957 0.0
C151 C 0.99557 0.01874 0.41628 0.0
N152 N 0.05198 0.95268 0.52384 0.0
N153 N 0.99449 0.01502 0.4505 0.0
H154 H 0.57849 0.42641 0.07308 0.0
H155 H 0.4692 0.54513 0.90262 0.0
H156 H 0.45642 0.52937 0.06858 0.0
H157 H 0.57825 0.42877 0.9012 0.0
H158 H 0.46671 0.54085 0.96414 0.0
H159 H 0.58018 0.42631 0.01052 0.0
C160 C 0.55178 0.44863 0.05895 0.0
C161 C 0.51748 0.47818 0.07619 0.0
C162 C 0.49122 0.51619 0.95046 0.0
C163 C 0.51961 0.47858 0.00485 0.0
C164 C 0.49284 0.51874 0.91525 0.0
C165 C 0.52396 0.48718 0.89661 0.0
C166 C 0.52103 0.48194 0.9674 0.0
C167 C 0.55371 0.45381 0.91453 0.0
C168 C 0.55289 0.44866 0.02328 0.0
C169 C 0.48376 0.50622 0.05654 0.0
N170 N 0.5515 0.45204 0.949 0.0
N171 N 0.48592 0.50591 0.02203 0.0
H172 H 0.11027 0.15497 0.20467 0.0
H173 H 0.42319 0.33576 0.27004 0.0
H174 H 0.21631 0.13147 0.29542 0.0
H175 H 0.31424 0.36289 0.18169 0.0
H176 H 0.34869 0.25959 0.27939 0.0
H177 H 0.18517 0.23062 0.19523 0.0
C178 C 0.14956 0.1658 0.22247 0.0
C179 C 0.15765 0.13703 0.25062 0.0
C180 C 0.34095 0.28236 0.25804 0.0
C181 C 0.24322 0.22318 0.24029 0.0
C182 C 0.38341 0.32568 0.25275 0.0
C183 C 0.37437 0.3558 0.22536 0.0
C184 C 0.28929 0.269 0.23561 0.0
C185 C 0.32237 0.34124 0.20352 0.0
C186 C 0.19223 0.20885 0.21716 0.0
C187 C 0.20898 0.15241 0.27313 0.0
N188 N 0.28177 0.29885 0.2091 0.0
N189 N 0.24991 0.19448 0.26749 0.0
H190 H 0.85471 0.17989 0.23055 0.0
H191 H 0.6742 0.39736 0.29273 0.0
H192 H 0.82326 0.21447 0.33643 0.0
H193 H 0.67671 0.3399 0.18412 0.0
H194 H 0.73261 0.33333 0.30909 0.0
H195 H 0.79246 0.23988 0.21275 0.0
C196 C 0.83387 0.19889 0.24996 0.0
C197 C 0.84338 0.19089 0.28497 0.0
C198 C 0.72034 0.33459 0.28166 0.0
C199 C 0.77365 0.26156 0.26492 0.0
C200 C 0.68707 0.37131 0.27228 0.0
C201 C 0.67055 0.37409 0.23699 0.0
C202 C 0.73765 0.3005 0.25558 0.0
C203 C 0.68844 0.33913 0.21166 0.0
C204 C 0.79878 0.23381 0.23981 0.0
C205 C 0.81708 0.21915 0.30913 0.0
N206 N 0.72119 0.3039 0.22145 0.0
N207 N 0.78359 0.25318 0.29869 0.0
H208 H 0.59132 0.69784 0.21877 0.0
H209 H 0.9244 0.80515 0.24314 0.0
H210 H 0.70909 0.59025 0.22123 0.0
H211 H 0.81168 0.91624 0.25648 0.0
H212 H 0.84437 0.72647 0.23057 0.0
H213 H 0.67012 0.77872 0.2303 0.0
C214 C 0.63365 0.69115 0.22208 0.0
C215 C 0.64349 0.63701 0.21891 0.0
C216 C 0.83701 0.76803 0.23611 0.0
C217 C 0.73373 0.72941 0.23156 0.0
C218 C 0.88276 0.81315 0.24309 0.0
C219 C 0.87492 0.86754 0.25113 0.0
C220 C 0.78274 0.77707 0.23709 0.0
C221 C 0.81979 0.87508 0.2505 0.0
C222 C 0.6786 0.73738 0.2285 0.0
C223 C 0.6993 0.63104 0.2234 0.0
N224 N 0.77578 0.83029 0.2438 0.0
N225 N 0.74218 0.6766 0.22926 0.0
H226 H 0.17841 0.84241 0.29121 0.0
H227 H 0.28555 0.67474 0.13409 0.0
H228 H 0.10353 0.822 0.18314 0.0
H229 H 0.33546 0.66301 0.24229 0.0
H230 H 0.22504 0.73622 0.15196 0.0
H231 H 0.24289 0.78418 0.27413 0.0
C232 C 0.17553 0.82574 0.26391 0.0
C233 C 0.13537 0.83697 0.23857 0.0
C234 C 0.24961 0.72059 0.17185 0.0
C235 C 0.20917 0.77069 0.21888 0.0
C236 C 0.28425 0.68549 0.16167 0.0
C237 C 0.31668 0.66446 0.18672 0.0
C238 C 0.24703 0.7348 0.20743 0.0
C239 C 0.31296 0.67964 0.22207 0.0
C240 C 0.21229 0.79247 0.2542 0.0
C241 C 0.13361 0.81431 0.20359 0.0
N242 N 0.27878 0.71393 0.23138 0.0
N243 N 0.17001 0.78238 0.1948 0.0
H244 H 0.33218 0.71893 0.83763 0.0
H245 H 0.18011 0.84112 0.68127 0.0
H246 H 0.35853 0.68322 0.73076 0.0
H247 H 0.18313 0.89987 0.7904 0.0
H248 H 0.23912 0.77721 0.69796 0.0
H249 H 0.2711 0.77971 0.81985 0.0
C250 C 0.32479 0.72344 0.81033 0.0
C251 C 0.34983 0.69487 0.78559 0.0
C252 C 0.22688 0.80417 0.71821 0.0
C253 C 0.27984 0.7649 0.765 0.0
C254 C 0.19316 0.84062 0.70873 0.0
C255 C 0.17674 0.87603 0.73449 0.0
C256 C 0.24393 0.80283 0.75371 0.0
C257 C 0.19487 0.87352 0.76964 0.0
C258 C 0.28987 0.75824 0.8002 0.0
C259 C 0.3388 0.70265 0.75061 0.0
N260 N 0.22734 0.83751 0.77818 0.0
N261 N 0.30458 0.73691 0.74135 0.0
H262 H 0.21217 0.09001 0.72188 0.0
H263 H 0.31536 0.42156 0.75107 0.0
H264 H 0.09742 0.20036 0.71524 0.0
H265 H 0.42536 0.30664 0.74338 0.0
H266 H 0.23467 0.34241 0.73834 0.0
H267 H 0.29044 0.17028 0.73241 0.0
C268 C 0.2033 0.13117 0.72293 0.0
C269 C 0.14793 0.13827 0.71753 0.0
C270 C 0.27649 0.33466 0.73918 0.0
C271 C 0.23796 0.23082 0.72927 0.0
C272 C 0.32261 0.37983 0.74625 0.0
C273 C 0.37739 0.37084 0.74854 0.0
C274 C 0.28526 0.28017 0.73455 0.0
C275 C 0.38406 0.31577 0.74208 0.0
C276 C 0.24819 0.17708 0.72873 0.0
C277 C 0.13935 0.19282 0.71925 0.0
N278 N 0.33865 0.27266 0.73568 0.0
N279 N 0.18392 0.23703 0.72488 0.0
H280 H 0.88063 0.23651 0.6851 0.0
H281 H 0.63182 0.2973 0.7837 0.0
H282 H 0.75774 0.10254 0.70926 0.0
H283 H 0.67742 0.38454 0.69913 0.0
H284 H 0.69517 0.23549 0.76984 0.0
H285 H 0.82332 0.30243 0.70368 0.0
C286 C 0.842 0.22131 0.6948 0.0
C287 C 0.82351 0.16441 0.69575 0.0
C288 C 0.69135 0.26841 0.75452 0.0
C289 C 0.75896 0.23878 0.7173 0.0
C290 C 0.6555 0.30363 0.76242 0.0
C291 C 0.64923 0.34562 0.7423 0.0
C292 C 0.72223 0.27647 0.72705 0.0
C293 C 0.68073 0.35219 0.71498 0.0
C294 C 0.80937 0.25863 0.70514 0.0
C295 C 0.77306 0.14626 0.70816 0.0
N296 N 0.71631 0.31817 0.70827 0.0
N297 N 0.74258 0.18344 0.71872 0.0
H298 H 0.62315 0.64974 0.70558 0.0
H299 H 0.93222 0.83698 0.77336 0.0
H300 H 0.72003 0.64092 0.8036 0.0
H301 H 0.82112 0.86573 0.68659 0.0
H302 H 0.85779 0.76092 0.78321 0.0
H303 H 0.69802 0.72547 0.69625 0.0
C304 C 0.66047 0.66376 0.725 0.0
C305 C 0.66609 0.63896 0.75511 0.0
C306 C 0.84961 0.78411 0.76214 0.0
C307 C 0.75161 0.72522 0.7449 0.0
C308 C 0.892 0.8273 0.75655 0.0
C309 C 0.8823 0.85779 0.72944 0.0
C310 C 0.79753 0.77111 0.74016 0.0
C311 C 0.82979 0.84375 0.70818 0.0
C312 C 0.70308 0.70691 0.71977 0.0
C313 C 0.71484 0.65852 0.77972 0.0
N314 N 0.78941 0.80134 0.71392 0.0
N315 N 0.75591 0.70047 0.77404 0.0
loop_
_geom_bond_atom_site_label_1
_geom_bond_atom_site_label_2
_geom_bond_distance
_geom_bond_site_symmetry_2
_ccdc_geom_bond_type
Co0 O3 1.970 1_455 S
Co0 N17 1.989 1_565 S
Co0 O25 1.967 . S
Co0 O32 1.920 . S
Co1 O4 1.966 1_545 S
Co1 N10 2.022 . S
Co1 N18 1.993 1_655 S
Co1 O26 1.941 . S
C2 O3 1.258 . S
C2 O4 1.263 . S
O3 Co0 1.970 1_655 S
O3 C2 1.258 . S
O4 Co1 1.966 1_565 S
O4 C2 1.263 . S
C5 O6 1.235 . S
C5 O32 1.289 . S
O6 C5 1.235 . S
C7 C9 1.400 . S
C7 N10 1.351 . S
C7 C12 1.501 . S
C8 C9 1.387 . S
C8 N11 1.341 . S
C9 C7 1.400 . S
C9 C8 1.387 . S
N10 Co1 2.022 . S
N10 C7 1.351 . S
N10 N11 1.365 . S
N11 C8 1.341 . S
N11 N10 1.365 . S
N11 H31 0.862 . S
C12 C7 1.501 . S
C12 H13 0.961 . S
C12 H14 0.961 . S
C12 H15 0.960 . S
H13 C12 0.961 . S
H14 C12 0.961 . S
H15 C12 0.960 . S
C16 N17 1.342 . S
C16 C20 1.401 . S
C16 C21 1.499 . S
N17 Co0 1.989 1_545 S
N17 C16 1.342 . S
N17 N18 1.388 . S
N18 Co1 1.993 1_455 S
N18 N17 1.388 . S
N18 C19 1.346 . S
C19 N18 1.346 . S
C19 C20 1.396 . S
C19 C29 1.510 . S
C20 C16 1.401 . S
C20 C19 1.396 . S
C21 C16 1.499 . S
C21 H22 0.959 1_545 S
C21 H23 0.960 . S
C21 H24 0.961 . S
H22 C21 0.959 1_565 S
H23 C21 0.960 . S
H24 C21 0.961 . S
O25 Co0 1.967 . S
O25 C33 1.258 1_565 S
O26 Co1 1.941 . S
O26 C33 1.266 1_655 S
H27 C29 0.959 . S
H28 C29 0.961 . S
C29 C19 1.510 . S
C29 H27 0.959 . S
C29 H28 0.961 . S
C29 H30 0.960 1_455 S
H30 C29 0.960 1_655 S
H31 N11 0.862 . S
O32 Co0 1.920 . S
O32 C5 1.289 . S
C33 O25 1.258 1_545 S
C33 O26 1.266 1_455 S
Co34 O37 1.970 1_565 S
Co34 N51 1.989 1_455 S
Co34 O59 1.967 . S
Co34 O66 1.920 . S
Co35 O38 1.966 1_655 S
Co35 N44 2.022 . S
Co35 N52 1.993 1_545 S
Co35 O60 1.941 . S
C36 O37 1.258 . S
C36 O38 1.263 . S
O37 Co34 1.970 1_545 S
O37 C36 1.258 . S
O38 Co35 1.966 1_455 S
O38 C36 1.263 . S
C39 O40 1.235 . S
C39 O66 1.289 . S
O40 C39 1.235 . S
C41 C43 1.400 . S
C41 N44 1.351 . S
C41 C46 1.501 . S
C42 C43 1.387 . S
C42 N45 1.341 . S
C43 C41 1.400 . S
C43 C42 1.387 . S
N44 Co35 2.022 . S
N44 C41 1.351 . S
N44 N45 1.365 . S
N45 C42 1.341 . S
N45 N44 1.365 . S
N45 H65 0.862 . S
C46 C41 1.501 . S
C46 H47 0.961 1_655 S
C46 H48 0.961 . S
C46 H49 0.960 . S
H47 C46 0.961 1_455 S
H48 C46 0.961 . S
H49 C46 0.960 . S
C50 N51 1.342 . S
C50 C54 1.401 . S
C50 C55 1.499 . S
N51 Co34 1.989 1_655 S
N51 C50 1.342 . S
N51 N52 1.388 . S
N52 Co35 1.993 1_565 S
N52 N51 1.388 . S
N52 C53 1.346 . S
C53 N52 1.346 . S
C53 C54 1.396 . S
C53 C63 1.510 . S
C54 C50 1.401 . S
C54 C53 1.396 . S
C55 C50 1.499 . S
C55 H56 0.959 1_655 S
C55 H57 0.960 . S
C55 H58 0.961 . S
H56 C55 0.959 1_455 S
H57 C55 0.960 . S
H58 C55 0.961 . S
O59 Co34 1.967 . S
O59 C67 1.258 1_565 S
O60 Co35 1.941 . S
O60 C67 1.266 1_655 S
H61 C63 0.959 . S
H62 C63 0.961 . S
C63 C53 1.510 . S
C63 H61 0.959 . S
C63 H62 0.961 . S
C63 H64 0.960 1_565 S
H64 C63 0.960 1_545 S
H65 N45 0.862 . S
O66 Co34 1.920 . S
O66 C39 1.289 . S
C67 O59 1.258 1_545 S
C67 O60 1.266 1_455 S
Co68 O71 1.970 . S
Co68 N85 1.989 . S
Co68 O93 1.967 . S
Co68 O100 1.920 . S
Co69 O72 1.966 . S
Co69 N78 2.022 . S
Co69 N86 1.993 . S
Co69 O94 1.941 . S
C70 O71 1.258 . S
C70 O72 1.263 . S
O71 Co68 1.970 . S
O71 C70 1.258 . S
O72 Co69 1.966 . S
O72 C70 1.263 . S
C73 O74 1.235 . S
C73 O100 1.289 . S
O74 C73 1.235 . S
C75 C77 1.400 . S
C75 N78 1.351 . S
C75 C80 1.501 . S
C76 C77 1.387 . S
C76 N79 1.341 . S
C77 C75 1.400 . S
C77 C76 1.387 . S
N78 Co69 2.022 . S
N78 C75 1.351 . S
N78 N79 1.365 . S
N79 C76 1.341 . S
N79 N78 1.365 . S
N79 H99 0.862 . S
C80 C75 1.501 . S
C80 H81 0.961 . S
C80 H82 0.961 . S
C80 H83 0.960 . S
H81 C80 0.961 . S
H82 C80 0.961 . S
H83 C80 0.960 . S
C84 N85 1.342 . S
C84 C88 1.401 . S
C84 C89 1.499 . S
N85 Co68 1.989 . S
N85 C84 1.342 . S
N85 N86 1.388 . S
N86 Co69 1.993 . S
N86 N85 1.388 . S
N86 C87 1.346 . S
C87 N86 1.346 . S
C87 C88 1.396 . S
C87 C97 1.510 . S
C88 C84 1.401 . S
C88 C87 1.396 . S
C89 C84 1.499 . S
C89 H90 0.959 . S
C89 H91 0.960 . S
C89 H92 0.961 . S
H90 C89 0.959 . S
H91 C89 0.960 . S
H92 C89 0.961 . S
O93 Co68 1.967 . S
O93 C101 1.258 . S
O94 Co69 1.941 . S
O94 C101 1.266 . S
H95 C97 0.959 . S
H96 C97 0.961 . S
C97 C87 1.510 . S
C97 H95 0.959 . S
C97 H96 0.961 . S
C97 H98 0.960 . S
H98 C97 0.960 . S
H99 N79 0.862 . S
O100 Co68 1.920 . S
O100 C73 1.289 . S
C101 O93 1.258 . S
C101 O94 1.266 . S
Co102 O105 1.970 . S
Co102 N119 1.989 . S
Co102 O127 1.967 . S
Co102 O134 1.920 . S
Co103 O106 1.966 . S
Co103 N112 2.022 . S
Co103 N120 1.993 . S
Co103 O128 1.941 . S
C104 O105 1.258 . S
C104 O106 1.263 . S
O105 Co102 1.970 . S
O105 C104 1.258 . S
O106 Co103 1.966 . S
O106 C104 1.263 . S
C107 O108 1.235 . S
C107 O134 1.289 . S
O108 C107 1.235 . S
C109 C111 1.400 . S
C109 N112 1.351 . S
C109 C114 1.501 . S
C110 C111 1.387 . S
C110 N113 1.341 . S
C111 C109 1.400 . S
C111 C110 1.387 . S
N112 Co103 2.022 . S
N112 C109 1.351 . S
N112 N113 1.365 . S
N113 C110 1.341 . S
N113 N112 1.365 . S
N113 H133 0.862 . S
C114 C109 1.501 . S
C114 H115 0.961 . S
C114 H116 0.961 . S
C114 H117 0.960 . S
H115 C114 0.961 . S
H116 C114 0.961 . S
H117 C114 0.960 . S
C118 N119 1.342 . S
C118 C122 1.401 . S
C118 C123 1.499 . S
N119 Co102 1.989 . S
N119 C118 1.342 . S
N119 N120 1.388 . S
N120 Co103 1.993 . S
N120 N119 1.388 . S
N120 C121 1.346 . S
C121 N120 1.346 . S
C121 C122 1.396 . S
C121 C131 1.510 . S
C122 C118 1.401 . S
C122 C121 1.396 . S
C123 C118 1.499 . S
C123 H124 0.959 . S
C123 H125 0.960 . S
C123 H126 0.961 . S
H124 C123 0.959 . S
H125 C123 0.960 . S
H126 C123 0.961 . S
O127 Co102 1.967 . S
O127 C135 1.258 . S
O128 Co103 1.941 . S
O128 C135 1.266 . S
H129 C131 0.959 . S
H130 C131 0.961 . S
C131 C121 1.510 . S
C131 H129 0.959 . S
C131 H130 0.961 . S
C131 H132 0.960 . S
H132 C131 0.960 . S
H133 N113 0.862 . S
O134 Co102 1.920 . S
O134 C107 1.289 . S
C135 O127 1.258 . S
C135 O128 1.266 . S
H136 C142 0.930 . S
H137 C146 0.930 . S
H138 C151 0.929 . S
H139 C149 0.929 . S
H140 C144 0.929 . S
H141 C150 0.929 . S
C142 H136 0.930 . S
C142 C143 1.367 1_565 S
C142 C150 1.378 . S
C143 C142 1.367 1_545 S
C143 C151 1.433 1_455 S
C144 H140 0.929 . S
C144 C146 1.378 . S
C144 C148 1.349 1_655 S
C145 C148 1.462 . S
C145 C150 1.349 1_545 S
C145 N153 1.428 1_455 S
C146 H137 0.930 . S
C146 C144 1.378 . S
C146 C147 1.367 1_645 S
C147 C146 1.367 1_465 S
C147 C149 1.433 . S
C148 C144 1.349 1_455 S
C148 C145 1.462 . S
C148 N152 1.428 1_545 S
C149 H139 0.929 . S
C149 C147 1.433 . S
C149 N152 1.384 . S
C150 H141 0.929 . S
C150 C142 1.378 . S
C150 C145 1.349 1_565 S
C151 H138 0.929 . S
C151 C143 1.433 1_655 S
C151 N153 1.384 . S
N152 C148 1.428 1_565 S
N152 C149 1.384 . S
N153 C145 1.428 1_655 S
N153 C151 1.384 . S
H154 C160 0.930 . S
H155 C164 0.930 . S
H156 C169 0.929 . S
H157 C167 0.929 . S
H158 C162 0.929 . S
H159 C168 0.929 . S
C160 H154 0.930 . S
C160 C161 1.367 . S
C160 C168 1.378 . S
C161 C160 1.367 . S
C161 C169 1.433 . S
C162 H158 0.929 . S
C162 C164 1.378 . S
C162 C166 1.350 . S
C163 C166 1.463 1_554 S
C163 C168 1.350 . S
C163 N171 1.427 . S
C164 H155 0.930 . S
C164 C162 1.378 . S
C164 C165 1.367 . S
C165 C164 1.367 . S
C165 C167 1.433 . S
C166 C162 1.350 . S
C166 C163 1.463 1_556 S
C166 N170 1.427 . S
C167 H157 0.929 . S
C167 C165 1.433 . S
C167 N170 1.384 . S
C168 H159 0.929 . S
C168 C160 1.378 . S
C168 C163 1.350 . S
C169 H156 0.929 . S
C169 C161 1.433 . S
C169 N171 1.384 . S
N170 C166 1.427 . S
N170 C167 1.384 . S
N171 C163 1.427 . S
N171 C169 1.384 . S
H172 C178 0.930 . S
H173 C182 0.930 . S
H174 C187 0.929 . S
H175 C185 0.929 . S
H176 C180 0.929 . S
H177 C186 0.929 . S
C178 H172 0.930 . S
C178 C179 1.367 . S
C178 C186 1.378 . S
C179 C178 1.367 . S
C179 C187 1.433 . S
C180 H176 0.929 . S
C180 C182 1.378 . S
C180 C184 1.350 . S
C181 C184 1.463 . S
C181 C186 1.350 . S
C181 N189 1.427 . S
C182 H173 0.930 . S
C182 C180 1.378 . S
C182 C183 1.367 . S
C183 C182 1.367 . S
C183 C185 1.433 . S
C184 C180 1.350 . S
C184 C181 1.463 . S
C184 N188 1.427 . S
C185 H175 0.929 . S
C185 C183 1.433 . S
C185 N188 1.384 . S
C186 H177 0.929 . S
C186 C178 1.378 . S
C186 C181 1.350 . S
C187 H174 0.929 . S
C187 C179 1.433 . S
C187 N189 1.384 . S
N188 C184 1.427 . S
N188 C185 1.384 . S
N189 C181 1.427 . S
N189 C187 1.384 . S
H190 C196 0.930 . S
H191 C200 0.930 . S
H192 C205 0.929 . S
H193 C203 0.929 . S
H194 C198 0.929 . S
H195 C204 0.929 . S
C196 H190 0.930 . S
C196 C197 1.367 . S
C196 C204 1.378 . S
C197 C196 1.367 . S
C197 C205 1.433 . S
C198 H194 0.929 . S
C198 C200 1.378 . S
C198 C202 1.350 . S
C199 C202 1.463 . S
C199 C204 1.350 . S
C199 N207 1.427 . S
C200 H191 0.930 . S
C200 C198 1.378 . S
C200 C201 1.367 . S
C201 C200 1.367 . S
C201 C203 1.433 . S
C202 C198 1.350 . S
C202 C199 1.463 . S
C202 N206 1.427 . S
C203 H193 0.929 . S
C203 C201 1.433 . S
C203 N206 1.384 . S
C204 H195 0.929 . S
C204 C196 1.378 . S
C204 C199 1.350 . S
C205 H192 0.929 . S
C205 C197 1.433 . S
C205 N207 1.384 . S
N206 C202 1.427 . S
N206 C203 1.384 . S
N207 C199 1.427 . S
N207 C205 1.384 . S
H208 C214 0.930 . S
H209 C218 0.930 . S
H210 C223 0.929 . S
H211 C221 0.929 . S
H212 C216 0.929 . S
H213 C222 0.929 . S
C214 H208 0.930 . S
C214 C215 1.367 . S
C214 C222 1.378 . S
C215 C214 1.367 . S
C215 C223 1.433 . S
C216 H212 0.929 . S
C216 C218 1.378 . S
C216 C220 1.350 . S
C217 C220 1.463 . S
C217 C222 1.350 . S
C217 N225 1.427 . S
C218 H209 0.930 . S
C218 C216 1.378 . S
C218 C219 1.367 . S
C219 C218 1.367 . S
C219 C221 1.433 . S
C220 C216 1.350 . S
C220 C217 1.463 . S
C220 N224 1.427 . S
C221 H211 0.929 . S
C221 C219 1.433 . S
C221 N224 1.384 . S
C222 H213 0.929 . S
C222 C214 1.378 . S
C222 C217 1.350 . S
C223 H210 0.929 . S
C223 C215 1.433 . S
C223 N225 1.384 . S
N224 C220 1.427 . S
N224 C221 1.384 . S
N225 C217 1.427 . S
N225 C223 1.384 . S
H226 C232 0.930 . S
H227 C236 0.930 . S
H228 C241 0.929 . S
H229 C239 0.929 . S
H230 C234 0.929 . S
H231 C240 0.929 . S
C232 H226 0.930 . S
C232 C233 1.367 . S
C232 C240 1.378 . S
C233 C232 1.367 . S
C233 C241 1.433 . S
C234 H230 0.929 . S
C234 C236 1.378 . S
C234 C238 1.350 . S
C235 C238 1.463 . S
C235 C240 1.350 . S
C235 N243 1.427 . S
C236 H227 0.930 . S
C236 C234 1.378 . S
C236 C237 1.367 . S
C237 C236 1.367 . S
C237 C239 1.433 . S
C238 C234 1.350 . S
C238 C235 1.463 . S
C238 N242 1.427 . S
C239 H229 0.929 . S
C239 C237 1.433 . S
C239 N242 1.384 . S
C240 H231 0.929 . S
C240 C232 1.378 . S
C240 C235 1.350 . S
C241 H228 0.929 . S
C241 C233 1.433 . S
C241 N243 1.384 . S
N242 C238 1.427 . S
N242 C239 1.384 . S
N243 C235 1.427 . S
N243 C241 1.384 . S
H244 C250 0.930 . S
H245 C254 0.930 . S
H246 C259 0.929 . S
H247 C257 0.929 . S
H248 C252 0.929 . S
H249 C258 0.929 . S
C250 H244 0.930 . S
C250 C251 1.367 . S
C250 C258 1.378 . S
C251 C250 1.367 . S
C251 C259 1.433 . S
C252 H248 0.929 . S
C252 C254 1.378 . S
C252 C256 1.350 . S
C253 C256 1.463 . S
C253 C258 1.350 . S
C253 N261 1.427 . S
C254 H245 0.930 . S
C254 C252 1.378 . S
C254 C255 1.367 . S
C255 C254 1.367 . S
C255 C257 1.433 . S
C256 C252 1.350 . S
C256 C253 1.463 . S
C256 N260 1.427 . S
C257 H247 0.929 . S
C257 C255 1.433 . S
C257 N260 1.384 . S
C258 H249 0.929 . S
C258 C250 1.378 . S
C258 C253 1.350 . S
C259 H246 0.929 . S
C259 C251 1.433 . S
C259 N261 1.384 . S
N260 C256 1.427 . S
N260 C257 1.384 . S
N261 C253 1.427 . S
N261 C259 1.384 . S
H262 C268 0.930 . S
H263 C272 0.930 . S
H264 C277 0.929 . S
H265 C275 0.929 . S
H266 C270 0.929 . S
H267 C276 0.929 . S
C268 H262 0.930 . S
C268 C269 1.367 . S
C268 C276 1.378 . S
C269 C268 1.367 . S
C269 C277 1.433 . S
C270 H266 0.929 . S
C270 C272 1.378 . S
C270 C274 1.350 . S
C271 C274 1.463 . S
C271 C276 1.350 . S
C271 N279 1.427 . S
C272 H263 0.930 . S
C272 C270 1.378 . S
C272 C273 1.367 . S
C273 C272 1.367 . S
C273 C275 1.433 . S
C274 C270 1.350 . S
C274 C271 1.463 . S
C274 N278 1.427 . S
C275 H265 0.929 . S
C275 C273 1.433 . S
C275 N278 1.384 . S
C276 H267 0.929 . S
C276 C268 1.378 . S
C276 C271 1.350 . S
C277 H264 0.929 . S
C277 C269 1.433 . S
C277 N279 1.384 . S
N278 C274 1.427 . S
N278 C275 1.384 . S
N279 C271 1.427 . S
N279 C277 1.384 . S
H280 C286 0.930 . S
H281 C290 0.930 . S
H282 C295 0.929 . S
H283 C293 0.929 . S
H284 C288 0.929 . S
H285 C294 0.929 . S
C286 H280 0.930 . S
C286 C287 1.367 . S
C286 C294 1.378 . S
C287 C286 1.367 . S
C287 C295 1.433 . S
C288 H284 0.929 . S
C288 C290 1.378 . S
C288 C292 1.350 . S
C289 C292 1.463 . S
C289 C294 1.350 . S
C289 N297 1.427 . S
C290 H281 0.930 . S
C290 C288 1.378 . S
C290 C291 1.367 . S
C291 C290 1.367 . S
C291 C293 1.433 . S
C292 C288 1.350 . S
C292 C289 1.463 . S
C292 N296 1.427 . S
C293 H283 0.929 . S
C293 C291 1.433 . S
C293 N296 1.384 . S
C294 H285 0.929 . S
C294 C286 1.378 . S
C294 C289 1.350 . S
C295 H282 0.929 . S
C295 C287 1.433 . S
C295 N297 1.384 . S
N296 C292 1.427 . S
N296 C293 1.384 . S
N297 C289 1.427 . S
N297 C295 1.384 . S
H298 C304 0.930 . S
H299 C308 0.930 . S
H300 C313 0.929 . S
H301 C311 0.929 . S
H302 C306 0.929 . S
H303 C312 0.929 . S
C304 H298 0.930 . S
C304 C305 1.367 . S
C304 C312 1.378 . S
C305 C304 1.367 . S
C305 C313 1.433 . S
C306 H302 0.929 . S
C306 C308 1.378 . S
C306 C310 1.350 . S
C307 C310 1.463 . S
C307 C312 1.350 . S
C307 N315 1.427 . S
C308 H299 0.930 . S
C308 C306 1.378 . S
C308 C309 1.367 . S
C309 C308 1.367 . S
C309 C311 1.433 . S
C310 C306 1.350 . S
C310 C307 1.463 . S
C310 N314 1.427 . S
C311 H301 0.929 . S
C311 C309 1.433 . S
C311 N314 1.384 . S
C312 H303 0.929 . S
C312 C304 1.378 . S
C312 C307 1.350 . S
C313 H300 0.929 . S
C313 C305 1.433 . S
C313 N315 1.384 . S
N314 C310 1.427 . S
N314 C311 1.384 . S
N315 C307 1.427 . S
N315 C313 1.384 . S
C143 C33 1.512 . S
C147 C67 1.509 1_565 S
C161 C135 1.510 . S
C165 C101 1.509 . S
C179 C20 1.283 . S
C183 C122 1.282 . S
C197 C9 1.524 . S
C201 C107 1.532 . S
C215 C104 1.575 . S
C219 C2 1.574 . S
C233 C5 1.542 . S
C237 C111 1.512 . S
C251 C77 1.512 . S
C255 C39 1.542 . S
C269 C36 1.575 . S
C273 C70 1.576 . S
C287 C43 1.520 . S
C291 C73 1.539 . S
C305 C88 1.283 . S
C309 C54 1.282 . S
