# Generated by pormake.
# Topology fnk, (5)-cn, num edge types: 1
# Building blocks:
#     Node 0, Type 0, BuildingBlock: BEQFEK_clean_sbu_0, # of connection points: 5
#     Node 1, Type 0, BuildingBlock: BEQFEK_clean_sbu_0, # of connection points: 5
#     Node 2, Type 0, BuildingBlock: BEQFEK_clean_sbu_0, # of connection points: 5
#     Node 3, Type 0, BuildingBlock: BEQFEK_clean_sbu_0, # of connection points: 5
#     Node 4, Type 0, BuildingBlock: BEQFEK_clean_sbu_0, # of connection points: 5
#     Node 5, Type 0, BuildingBlock: BEQFEK_clean_sbu_0, # of connection points: 5
#     Node 6, Type 0, BuildingBlock: BEQFEK_clean_sbu_0, # of connection points: 5
#     Node 7, Type 0, BuildingBlock: BEQFEK_clean_sbu_0, # of connection points: 5
#     Node 8, Type 0, BuildingBlock: BEQFEK_clean_sbu_0, # of connection points: 5
#     Node 9, Type 0, BuildingBlock: BEQFEK_clean_sbu_0, # of connection points: 5
#     Node 10, Type 0, BuildingBlock: BEQFEK_clean_sbu_0, # of connection points: 5
#     Node 11, Type 0, BuildingBlock: BEQFEK_clean_sbu_0, # of connection points: 5
#     Node 12, Type 0, BuildingBlock: BEQFEK_clean_sbu_0, # of connection points: 5
#     Node 13, Type 0, BuildingBlock: BEQFEK_clean_sbu_0, # of connection points: 5
#     Node 14, Type 0, BuildingBlock: BEQFEK_clean_sbu_0, # of connection points: 5
#     Node 15, Type 0, BuildingBlock: BEQFEK_clean_sbu_0, # of connection points: 5
#     Edge 16, Type (0, 0), BuildingBlock: UVAHIK_clean_linker_0, # of connection points: 2
#     Edge 17, Type (0, 0), BuildingBlock: UVAHIK_clean_linker_0, # of connection points: 2
#     Edge 18, Type (0, 0), BuildingBlock: UVAHIK_clean_linker_0, # of connection points: 2
#     Edge 19, Type (0, 0), BuildingBlock: UVAHIK_clean_linker_0, # of connection points: 2
#     Edge 20, Type (0, 0), BuildingBlock: UVAHIK_clean_linker_0, # of connection points: 2
#     Edge 21, Type (0, 0), BuildingBlock: UVAHIK_clean_linker_0, # of connection points: 2
#     Edge 22, Type (0, 0), BuildingBlock: UVAHIK_clean_linker_0, # of connection points: 2
#     Edge 23, Type (0, 0), BuildingBlock: UVAHIK_clean_linker_0, # of connection points: 2
#     Edge 24, Type (0, 0), BuildingBlock: UVAHIK_clean_linker_0, # of connection points: 2
#     Edge 25, Type (0, 0), BuildingBlock: UVAHIK_clean_linker_0, # of connection points: 2
#     Edge 26, Type (0, 0), BuildingBlock: UVAHIK_clean_linker_0, # of connection points: 2
#     Edge 27, Type (0, 0), BuildingBlock: UVAHIK_clean_linker_0, # of connection points: 2
#     Edge 28, Type (0, 0), BuildingBlock: UVAHIK_clean_linker_0, # of connection points: 2
#     Edge 29, Type (0, 0), BuildingBlock: UVAHIK_clean_linker_0, # of connection points: 2
#     Edge 30, Type (0, 0), BuildingBlock: UVAHIK_clean_linker_0, # of connection points: 2
#     Edge 31, Type (0, 0), BuildingBlock: UVAHIK_clean_linker_0, # of connection points: 2
#     Edge 32, Type (0, 0), BuildingBlock: UVAHIK_clean_linker_0, # of connection points: 2
#     Edge 33, Type (0, 0), BuildingBlock: UVAHIK_clean_linker_0, # of connection points: 2
#     Edge 34, Type (0, 0), BuildingBlock: UVAHIK_clean_linker_0, # of connection points: 2
#     Edge 35, Type (0, 0), BuildingBlock: UVAHIK_clean_linker_0, # of connection points: 2
#     Edge 36, Type (0, 0), BuildingBlock: UVAHIK_clean_linker_0, # of connection points: 2
#     Edge 37, Type (0, 0), BuildingBlock: UVAHIK_clean_linker_0, # of connection points: 2
#     Edge 38, Type (0, 0), BuildingBlock: UVAHIK_clean_linker_0, # of connection points: 2
#     Edge 39, Type (0, 0), BuildingBlock: UVAHIK_clean_linker_0, # of connection points: 2
#     Edge 40, Type (0, 0), BuildingBlock: UVAHIK_clean_linker_0, # of connection points: 2
#     Edge 41, Type (0, 0), BuildingBlock: UVAHIK_clean_linker_0, # of connection points: 2
#     Edge 42, Type (0, 0), BuildingBlock: UVAHIK_clean_linker_0, # of connection points: 2
#     Edge 43, Type (0, 0), BuildingBlock: UVAHIK_clean_linker_0, # of connection points: 2
#     Edge 44, Type (0, 0), BuildingBlock: UVAHIK_clean_linker_0, # of connection points: 2
#     Edge 45, Type (0, 0), BuildingBlock: UVAHIK_clean_linker_0, # of connection points: 2
#     Edge 46, Type (0, 0), BuildingBlock: UVAHIK_clean_linker_0, # of connection points: 2
#     Edge 47, Type (0, 0), BuildingBlock: UVAHIK_clean_linker_0, # of connection points: 2
#     Edge 48, Type (0, 0), BuildingBlock: UVAHIK_clean_linker_0, # of connection points: 2
#     Edge 49, Type (0, 0), BuildingBlock: UVAHIK_clean_linker_0, # of connection points: 2
#     Edge 50, Type (0, 0), BuildingBlock: UVAHIK_clean_linker_0, # of connection points: 2
#     Edge 51, Type (0, 0), BuildingBlock: UVAHIK_clean_linker_0, # of connection points: 2
#     Edge 52, Type (0, 0), BuildingBlock: UVAHIK_clean_linker_0, # of connection points: 2
#     Edge 53, Type (0, 0), BuildingBlock: UVAHIK_clean_linker_0, # of connection points: 2
#     Edge 54, Type (0, 0), BuildingBlock: UVAHIK_clean_linker_0, # of connection points: 2
#     Edge 55, Type (0, 0), BuildingBlock: UVAHIK_clean_linker_0, # of connection points: 2
# Relax obj value: 0.379
# Max RMSD: 0.194
# Mean RMSD: 0.194
data_MOF--net-fnk--node1-BEQFEK_clean_sbu_0--edge1-UVAHIK_clean_linker_0
_symmetry_space_group_name_H-M    P1
_symmetry_Int_Tables_number       1
_symmetry_cell_setting            triclinic
loop_
_symmetry_equiv_pos_as_xyz
'x, y, z'
_cell_length_a     61.660032
_cell_length_b     61.648162
_cell_length_c     62.540432
_cell_angle_alpha  90.032682
_cell_angle_beta   90.067109
_cell_angle_gamma 90.014591
loop_
_atom_site_label
_atom_site_type_symbol
_atom_site_fract_x
_atom_site_fract_y
_atom_site_fract_z
_atom_type_partial_charge
Co0 Co 0.10434 0.39307 0.14832 0.0
Co1 Co 0.13687 0.36308 0.17301 0.0
C2 C 0.13861 0.41094 0.17803 0.0
O3 O 0.1226 0.41305 0.16529 0.0
O4 O 0.14636 0.39233 0.18254 0.0
C5 C 0.0889 0.4292 0.12304 0.0
O6 O 0.10816 0.43755 0.12666 0.0
C7 C 0.17747 0.34235 0.18717 0.0
C8 C 0.16603 0.30881 0.1927 0.0
C9 C 0.18432 0.3218 0.19291 0.0
N10 N 0.15599 0.34152 0.18355 0.0
N11 N 0.14923 0.32152 0.18719 0.0
C12 C 0.19118 0.36204 0.18375 0.0
H13 H 0.18492 0.37149 0.16995 0.0
H14 H 0.20839 0.35754 0.18104 0.0
H15 H 0.19021 0.37249 0.19817 0.0
C16 C 0.12258 0.36996 0.11137 0.0
N17 N 0.12166 0.37396 0.13245 0.0
N18 N 0.13538 0.36121 0.14256 0.0
C19 C 0.14558 0.34862 0.12803 0.0
C20 C 0.13768 0.35369 0.10785 0.0
C21 C 0.10979 0.38224 0.09501 0.0
H22 H 0.09223 0.37926 0.09758 0.0
H23 H 0.11275 0.39985 0.09711 0.0
H24 H 0.11424 0.37766 0.07845 0.0
O25 O 0.08526 0.37652 0.16747 0.0
O26 O 0.10836 0.35664 0.18634 0.0
H27 H 0.15415 0.31951 0.14451 0.0
H28 H 0.16734 0.32251 0.11903 0.0
C29 C 0.1617 0.33133 0.13344 0.0
H30 H 0.17584 0.33875 0.1416 0.0
H31 H 0.13321 0.31639 0.18524 0.0
O32 O 0.08457 0.41034 0.13002 0.0
C33 C 0.08915 0.36283 0.18216 0.0
Co34 Co 0.60417 0.10596 0.14484 0.0
Co35 Co 0.63676 0.13584 0.16965 0.0
C36 C 0.58886 0.13777 0.17749 0.0
O37 O 0.58502 0.12359 0.16317 0.0
O38 O 0.60812 0.14374 0.182 0.0
C39 C 0.5676 0.09118 0.11885 0.0
O40 O 0.55988 0.11097 0.12053 0.0
C41 C 0.65661 0.17445 0.18932 0.0
C42 C 0.69071 0.16373 0.1923 0.0
C43 C 0.67682 0.18074 0.1969 0.0
N44 N 0.65857 0.1546 0.18061 0.0
N45 N 0.67899 0.14837 0.18232 0.0
C46 C 0.63538 0.18586 0.19211 0.0
H47 H 0.62568 0.17711 0.20431 0.0
H48 H 0.62617 0.1854 0.17686 0.0
H49 H 0.63747 0.20286 0.19745 0.0
C50 C 0.62416 0.12799 0.10784 0.0
N51 N 0.62254 0.12424 0.12894 0.0
N52 N 0.63611 0.13703 0.13925 0.0
C53 C 0.64683 0.14937 0.12493 0.0
C54 C 0.63952 0.14409 0.1046 0.0
C55 C 0.61143 0.1161 0.09115 0.0
H56 H 0.61076 0.09859 0.09515 0.0
H57 H 0.59461 0.12246 0.0909 0.0
H58 H 0.61868 0.1181 0.07504 0.0
O59 O 0.6212 0.08578 0.16262 0.0
O60 O 0.64474 0.10655 0.17981 0.0
H61 H 0.6772 0.15925 0.13819 0.0
H62 H 0.66778 0.1763 0.11657 0.0
C63 C 0.6627 0.16676 0.13075 0.0
H64 H 0.65527 0.17782 0.14265 0.0
H65 H 0.68482 0.13338 0.1771 0.0
O66 O 0.58598 0.08673 0.12692 0.0
C67 C 0.63685 0.08797 0.17567 0.0
Co68 Co 0.89487 0.60405 0.14154 0.0
Co69 Co 0.86624 0.63741 0.16677 0.0
C70 C 0.86366 0.59005 0.17585 0.0
O71 O 0.87775 0.58586 0.16152 0.0
O72 O 0.85763 0.60941 0.17985 0.0
C73 C 0.90875 0.56501 0.11966 0.0
O74 O 0.89157 0.55606 0.12839 0.0
C75 C 0.83026 0.66002 0.1884 0.0
C76 C 0.8432 0.69348 0.18909 0.0
C77 C 0.82601 0.68078 0.19581 0.0
N78 N 0.84921 0.66048 0.17778 0.0
N79 N 0.85669 0.68056 0.17803 0.0
C80 C 0.81788 0.63973 0.19315 0.0
H81 H 0.82632 0.63071 0.20605 0.0
H82 H 0.8175 0.62922 0.17874 0.0
H83 H 0.80111 0.64337 0.19845 0.0
C84 C 0.87094 0.62284 0.10521 0.0
N85 N 0.876 0.62218 0.12609 0.0
N86 N 0.86384 0.63618 0.13653 0.0
C87 C 0.85065 0.64628 0.12249 0.0
C88 C 0.85477 0.63813 0.10226 0.0
C89 C 0.88089 0.60848 0.08862 0.0
H90 H 0.89882 0.60981 0.08947 0.0
H91 H 0.8765 0.59138 0.09204 0.0
H92 H 0.87534 0.61279 0.07227 0.0
O93 O 0.91655 0.6213 0.15752 0.0
O94 O 0.89614 0.6442 0.17594 0.0
H95 H 0.84142 0.677 0.13535 0.0
H96 H 0.82357 0.66714 0.11453 0.0
C97 C 0.83356 0.66236 0.12853 0.0
H98 H 0.82296 0.65528 0.14103 0.0
H99 H 0.87143 0.68528 0.1713 0.0
O100 O 0.91223 0.58513 0.12247 0.0
C101 C 0.91464 0.63671 0.1709 0.0
Co102 Co 0.39044 0.89392 0.15046 0.0
Co103 Co 0.35985 0.85788 0.16911 0.0
C104 C 0.40726 0.85808 0.17865 0.0
O105 O 0.41024 0.87489 0.16716 0.0
O106 O 0.38849 0.84977 0.18097 0.0
C107 C 0.42543 0.91318 0.12544 0.0
O108 O 0.43232 0.89326 0.12232 0.0
C109 C 0.34126 0.81682 0.18491 0.0
C110 C 0.30671 0.82107 0.1764 0.0
C111 C 0.32124 0.8067 0.1855 0.0
N112 N 0.33876 0.83632 0.1756 0.0
N113 N 0.31803 0.83882 0.17075 0.0
C114 C 0.36253 0.80785 0.19226 0.0
H115 H 0.37464 0.80937 0.17923 0.0
H116 H 0.36112 0.79057 0.197 0.0
H117 H 0.36839 0.81749 0.20609 0.0
C118 C 0.37251 0.87712 0.10965 0.0
N119 N 0.37377 0.87728 0.13114 0.0
N120 N 0.36155 0.8616 0.13886 0.0
C121 C 0.35259 0.85062 0.12239 0.0
C122 C 0.35912 0.8602 0.10345 0.0
C123 C 0.38351 0.8931 0.09531 0.0
H124 H 0.38374 0.90935 0.1029 0.0
H125 H 0.40045 0.88779 0.09252 0.0
H126 H 0.37514 0.89417 0.07962 0.0
O127 O 0.3713 0.91001 0.17002 0.0
O128 O 0.35 0.88464 0.18382 0.0
H129 H 0.32264 0.83418 0.12794 0.0
H130 H 0.34026 0.82049 0.10949 0.0
C131 C 0.33979 0.83009 0.12449 0.0
H132 H 0.34633 0.82007 0.13771 0.0
H133 H 0.31166 0.85261 0.16339 0.0
O134 O 0.4082 0.91639 0.13611 0.0
C135 C 0.35604 0.90432 0.18246 0.0
Co136 Co 0.10078 0.61098 0.34485 0.0
Co137 Co 0.13782 0.63828 0.32336 0.0
C138 C 0.13522 0.59066 0.31688 0.0
O139 O 0.11823 0.58981 0.32841 0.0
O140 O 0.14504 0.60853 0.31359 0.0
C141 C 0.08289 0.57561 0.36878 0.0
O142 O 0.10249 0.56752 0.36669 0.0
C143 C 0.17934 0.65447 0.30623 0.0
C144 C 0.1741 0.68989 0.30786 0.0
C145 C 0.189 0.67426 0.30186 0.0
N146 N 0.1596 0.65823 0.31455 0.0
N147 N 0.15656 0.67944 0.31539 0.0
C148 C 0.18888 0.63239 0.30316 0.0
H149 H 0.18158 0.62488 0.28873 0.0
H150 H 0.18502 0.62202 0.31714 0.0
H151 H 0.20674 0.63322 0.30109 0.0
C152 C 0.11901 0.63114 0.38372 0.0
N153 N 0.11876 0.62807 0.36244 0.0
N154 N 0.13461 0.63925 0.35366 0.0
C155 C 0.14573 0.64957 0.36924 0.0
C156 C 0.13607 0.64491 0.38874 0.0
C157 C 0.10392 0.61994 0.39887 0.0
H158 H 0.0869 0.62319 0.39405 0.0
H159 H 0.10664 0.6022 0.39785 0.0
H160 H 0.10644 0.6251 0.41566 0.0
O161 O 0.08455 0.62938 0.3247 0.0
O162 O 0.11088 0.64749 0.3084 0.0
H163 H 0.15897 0.67939 0.35796 0.0
H164 H 0.17323 0.66844 0.38048 0.0
C165 C 0.16474 0.66416 0.36543 0.0
H166 H 0.17631 0.65621 0.35435 0.0
H167 H 0.14241 0.68677 0.32101 0.0
O168 O 0.07893 0.59442 0.36143 0.0
C169 C 0.09088 0.64292 0.3107 0.0
Co170 Co 0.39185 0.10391 0.34663 0.0
Co171 Co 0.3596 0.13243 0.31999 0.0
C172 C 0.40754 0.13447 0.31279 0.0
O173 O 0.41128 0.12045 0.3273 0.0
O174 O 0.38831 0.14051 0.30834 0.0
C175 C 0.42954 0.08894 0.37018 0.0
O176 O 0.43943 0.10585 0.36192 0.0
C177 C 0.33991 0.17055 0.29967 0.0
C178 C 0.30777 0.15748 0.2907 0.0
C179 C 0.32093 0.17557 0.28895 0.0
N180 N 0.33807 0.1503 0.30741 0.0
N181 N 0.31872 0.1427 0.30225 0.0
C182 C 0.36018 0.18381 0.30074 0.0
H183 H 0.37058 0.17972 0.28684 0.0
H184 H 0.36928 0.18002 0.31559 0.0
H185 H 0.3564 0.2014 0.30009 0.0
C186 C 0.3705 0.12698 0.38215 0.0
N187 N 0.37308 0.12293 0.36121 0.0
N188 N 0.35923 0.13474 0.3502 0.0
C189 C 0.3472 0.1466 0.36388 0.0
C190 C 0.35407 0.14214 0.38453 0.0
C191 C 0.38294 0.11568 0.39943 0.0
H192 H 0.40029 0.1203 0.3983 0.0
H193 H 0.37674 0.11976 0.41558 0.0
H194 H 0.38184 0.09788 0.39701 0.0
O195 O 0.37489 0.08241 0.33013 0.0
O196 O 0.35261 0.10263 0.31072 0.0
H197 H 0.3224 0.17037 0.37117 0.0
H198 H 0.33704 0.17463 0.3465 0.0
C199 C 0.32991 0.1622 0.3572 0.0
H200 H 0.31724 0.1534 0.34805 0.0
H201 H 0.31333 0.12709 0.30587 0.0
O202 O 0.40947 0.08614 0.36651 0.0
C203 C 0.35988 0.08419 0.31629 0.0
Co204 Co 0.88877 0.39758 0.34823 0.0
Co205 Co 0.85868 0.36475 0.32386 0.0
C206 C 0.85611 0.41229 0.31552 0.0
O207 O 0.8709 0.41621 0.32924 0.0
O208 O 0.84968 0.39302 0.3118 0.0
C209 C 0.90331 0.43631 0.36994 0.0
O210 O 0.88544 0.4449 0.36226 0.0
C211 C 0.81991 0.34352 0.30615 0.0
C212 C 0.83278 0.31079 0.29918 0.0
C213 C 0.81445 0.32362 0.2973 0.0
N214 N 0.84057 0.34243 0.31294 0.0
N215 N 0.84809 0.32279 0.30889 0.0
C216 C 0.80681 0.36395 0.30618 0.0
H217 H 0.81232 0.37441 0.29281 0.0
H218 H 0.8096 0.37293 0.32133 0.0
H219 H 0.78927 0.36068 0.30408 0.0
C220 C 0.86918 0.37567 0.38545 0.0
N221 N 0.87104 0.37875 0.36427 0.0
N222 N 0.85819 0.36508 0.35419 0.0
C223 C 0.8476 0.35291 0.36873 0.0
C224 C 0.85431 0.35917 0.38899 0.0
C225 C 0.88135 0.38854 0.40184 0.0
H226 H 0.89892 0.38492 0.40045 0.0
H227 H 0.87909 0.40609 0.39866 0.0
H228 H 0.87579 0.38488 0.41832 0.0
O229 O 0.90946 0.38073 0.33071 0.0
O230 O 0.88802 0.35801 0.31312 0.0
H231 H 0.84128 0.32259 0.35339 0.0
H232 H 0.82601 0.32664 0.37767 0.0
C233 C 0.83251 0.33473 0.3632 0.0
H234 H 0.81887 0.34113 0.35349 0.0
H235 H 0.8639 0.31778 0.31225 0.0
O236 O 0.90711 0.41631 0.36672 0.0
C237 C 0.90678 0.36549 0.31723 0.0
Co238 Co 0.59937 0.89089 0.3432 0.0
Co239 Co 0.63453 0.861 0.32214 0.0
C240 C 0.58736 0.85478 0.31317 0.0
O241 O 0.5823 0.87005 0.32598 0.0
O242 O 0.60706 0.84955 0.30968 0.0
C243 C 0.56072 0.90543 0.36603 0.0
O244 O 0.55273 0.88604 0.36228 0.0
C245 C 0.66039 0.82289 0.30861 0.0
C246 C 0.6932 0.83741 0.30877 0.0
C247 C 0.68214 0.8182 0.30522 0.0
N248 N 0.65879 0.84393 0.31408 0.0
N249 N 0.67842 0.85252 0.31394 0.0
C250 C 0.64166 0.8075 0.30816 0.0
H251 H 0.62926 0.8125 0.32002 0.0
H252 H 0.64709 0.79067 0.31152 0.0
H253 H 0.63412 0.80792 0.29204 0.0
C254 C 0.62169 0.87668 0.38236 0.0
N255 N 0.61883 0.87606 0.36107 0.0
N256 N 0.63317 0.86284 0.35252 0.0
C257 C 0.64543 0.85431 0.36831 0.0
C258 C 0.63862 0.86294 0.38762 0.0
C259 C 0.60853 0.89037 0.39724 0.0
H260 H 0.59124 0.88555 0.39601 0.0
H261 H 0.61389 0.88861 0.41409 0.0
H262 H 0.60978 0.90763 0.39236 0.0
O263 O 0.61524 0.91076 0.32417 0.0
O264 O 0.64037 0.88986 0.30955 0.0
H265 H 0.67006 0.83244 0.3803 0.0
H266 H 0.65907 0.82573 0.3543 0.0
C267 C 0.66409 0.8392 0.36495 0.0
H268 H 0.67755 0.84813 0.35717 0.0
H269 H 0.68176 0.86866 0.31776 0.0
O270 O 0.57981 0.90994 0.35983 0.0
C271 C 0.63134 0.90826 0.31174 0.0
Co272 Co 0.89099 0.60498 0.84528 0.0
Co273 Co 0.86142 0.63806 0.82079 0.0
C274 C 0.90976 0.63949 0.81705 0.0
O275 O 0.91188 0.62357 0.82986 0.0
O276 O 0.89111 0.64684 0.81209 0.0
C277 C 0.92474 0.58811 0.87343 0.0
O278 O 0.93211 0.60809 0.87431 0.0
C279 C 0.84346 0.67939 0.80528 0.0
C280 C 0.81162 0.66855 0.79297 0.0
C281 C 0.82504 0.68647 0.79466 0.0
N282 N 0.84101 0.65817 0.80962 0.0
N283 N 0.82185 0.65188 0.80246 0.0
C284 C 0.86392 0.69179 0.80927 0.0
H285 H 0.87245 0.68516 0.82347 0.0
H286 H 0.86056 0.70929 0.81163 0.0
H287 H 0.87469 0.69003 0.79517 0.0
C288 C 0.86611 0.62198 0.882 0.0
N289 N 0.87115 0.6218 0.8611 0.0
N290 N 0.85894 0.63603 0.851 0.0
C291 C 0.84592 0.64594 0.86528 0.0
C292 C 0.85002 0.63728 0.88531 0.0
C293 C 0.87654 0.60771 0.89839 0.0
H294 H 0.89378 0.61249 0.90022 0.0
H295 H 0.86841 0.60901 0.91416 0.0
H296 H 0.87612 0.59062 0.89284 0.0
O297 O 0.87536 0.58681 0.82455 0.0
O298 O 0.85432 0.60987 0.80702 0.0
H299 H 0.82071 0.66866 0.87417 0.0
H300 H 0.83759 0.6767 0.85187 0.0
C301 C 0.82943 0.66281 0.85975 0.0
H302 H 0.81756 0.65591 0.84828 0.0
H303 H 0.81606 0.636 0.80341 0.0
O304 O 0.90744 0.58413 0.86308 0.0
C305 C 0.86125 0.59071 0.81023 0.0
Co306 Co 0.39619 0.8899 0.84159 0.0
Co307 Co 0.36289 0.8591 0.81885 0.0
C308 C 0.36315 0.90662 0.81016 0.0
O309 O 0.37905 0.90933 0.82289 0.0
O310 O 0.35495 0.88791 0.80704 0.0
C311 C 0.41215 0.92773 0.86355 0.0
O312 O 0.39372 0.93638 0.85737 0.0
C313 C 0.32176 0.84031 0.80384 0.0
C314 C 0.33251 0.80747 0.79437 0.0
C315 C 0.31472 0.82115 0.79453 0.0
N316 N 0.34283 0.83801 0.80891 0.0
N317 N 0.34906 0.81826 0.80347 0.0
C318 C 0.30953 0.86115 0.80582 0.0
H319 H 0.3162 0.87098 0.81916 0.0
H320 H 0.29201 0.85813 0.80845 0.0
H321 H 0.31134 0.87047 0.79076 0.0
C322 C 0.37629 0.87031 0.87982 0.0
N323 N 0.3777 0.8727 0.85853 0.0
N324 N 0.36368 0.85969 0.84917 0.0
C325 C 0.35283 0.84853 0.8643 0.0
C326 C 0.36057 0.85483 0.88421 0.0
C327 C 0.38942 0.88314 0.89551 0.0
H328 H 0.40681 0.87888 0.89371 0.0
H329 H 0.38764 0.90066 0.89194 0.0
H330 H 0.38426 0.88023 0.91224 0.0
O331 O 0.41507 0.87121 0.824 0.0
O332 O 0.3914 0.85019 0.80713 0.0
H333 H 0.3436 0.81903 0.84878 0.0
H334 H 0.33081 0.82309 0.87444 0.0
C335 C 0.33641 0.83128 0.85965 0.0
H336 H 0.3223 0.83866 0.85139 0.0
H337 H 0.36484 0.81242 0.80527 0.0
O338 O 0.41598 0.90795 0.85925 0.0
C339 C 0.41082 0.85611 0.81076 0.0
Co340 Co 0.10625 0.39604 0.84608 0.0
Co341 Co 0.13763 0.36202 0.82525 0.0
C342 C 0.09052 0.36168 0.81527 0.0
O343 O 0.08727 0.37781 0.82766 0.0
O344 O 0.10938 0.35365 0.81268 0.0
C345 C 0.06997 0.41272 0.8713 0.0
O346 O 0.06312 0.39257 0.8725 0.0
C347 C 0.15959 0.32532 0.80392 0.0
C348 C 0.19352 0.3314 0.81373 0.0
C349 C 0.18067 0.31779 0.80148 0.0
N350 N 0.16004 0.34246 0.81722 0.0
N351 N 0.18035 0.34594 0.82304 0.0
C352 C 0.13979 0.31833 0.79188 0.0
H353 H 0.13268 0.33258 0.78365 0.0
H354 H 0.12755 0.31213 0.80335 0.0
H355 H 0.14343 0.30568 0.77982 0.0
C356 C 0.1238 0.37626 0.88573 0.0
N357 N 0.12297 0.37822 0.86431 0.0
N358 N 0.13554 0.36338 0.85559 0.0
C359 C 0.14436 0.35118 0.87123 0.0
C360 C 0.13732 0.35904 0.89078 0.0
C361 C 0.11221 0.39084 0.90104 0.0
H362 H 0.11186 0.40764 0.89476 0.0
H363 H 0.09528 0.38507 0.90295 0.0
H364 H 0.12019 0.39077 0.91696 0.0
O365 O 0.12517 0.41426 0.82816 0.0
O366 O 0.14666 0.3901 0.81277 0.0
H367 H 0.17474 0.33567 0.8654 0.0
H368 H 0.15645 0.31998 0.88153 0.0
C369 C 0.1575 0.3311 0.86762 0.0
H370 H 0.15174 0.32247 0.85314 0.0
H371 H 0.18529 0.3587 0.83289 0.0
O372 O 0.08766 0.41688 0.86175 0.0
C373 C 0.14053 0.4096 0.81543 0.0
Co374 Co 0.60102 0.10918 0.84653 0.0
Co375 Co 0.63495 0.1383 0.82271 0.0
C376 C 0.63578 0.09071 0.81739 0.0
O377 O 0.61944 0.08923 0.82976 0.0
O378 O 0.64425 0.10902 0.81293 0.0
C379 C 0.58648 0.07275 0.87128 0.0
O380 O 0.60639 0.06575 0.86839 0.0
C381 C 0.67526 0.15967 0.80787 0.0
C382 C 0.66381 0.19361 0.8059 0.0
C383 C 0.68196 0.18066 0.80353 0.0
N384 N 0.65405 0.16026 0.81285 0.0
N385 N 0.64728 0.18054 0.81132 0.0
C386 C 0.68896 0.13969 0.80884 0.0
H387 H 0.68338 0.12905 0.82205 0.0
H388 H 0.70633 0.14385 0.81107 0.0
H389 H 0.68713 0.1306 0.79362 0.0
C390 C 0.61949 0.13139 0.88411 0.0
N391 N 0.61845 0.12781 0.86293 0.0
N392 N 0.63312 0.13974 0.85318 0.0
C393 C 0.64418 0.1512 0.86802 0.0
C394 C 0.63581 0.14636 0.88804 0.0
C395 C 0.60591 0.11957 0.90015 0.0
H396 H 0.5885 0.12181 0.89622 0.0
H397 H 0.60953 0.10199 0.89915 0.0
H398 H 0.60905 0.12511 0.91673 0.0
O399 O 0.58239 0.12595 0.82706 0.0
O400 O 0.60664 0.14522 0.8091 0.0
H401 H 0.65528 0.18044 0.8534 0.0
H402 H 0.66926 0.17389 0.87776 0.0
C403 C 0.66195 0.16695 0.86307 0.0
H404 H 0.67471 0.15872 0.8536 0.0
H405 H 0.63147 0.18554 0.81463 0.0
O406 O 0.58121 0.09135 0.86424 0.0
C407 C 0.5871 0.13956 0.81252 0.0
Co408 Co 0.8964 0.39119 0.64374 0.0
Co409 Co 0.86293 0.36302 0.6692 0.0
C410 C 0.9106 0.3603 0.67786 0.0
O411 O 0.91487 0.37387 0.66311 0.0
O412 O 0.89118 0.35486 0.68229 0.0
C413 C 0.93446 0.40366 0.61947 0.0
O414 O 0.94214 0.38455 0.62486 0.0
C415 C 0.84177 0.32589 0.69012 0.0
C416 C 0.80854 0.33868 0.69424 0.0
C417 C 0.8217 0.32112 0.69882 0.0
N418 N 0.84052 0.34548 0.68076 0.0
N419 N 0.82055 0.35289 0.68304 0.0
C420 C 0.86222 0.31308 0.69235 0.0
H421 H 0.87168 0.31954 0.70606 0.0
H422 H 0.87221 0.31483 0.6777 0.0
H423 H 0.85868 0.2957 0.69534 0.0
C424 C 0.87587 0.36854 0.60734 0.0
N425 N 0.8777 0.37269 0.62836 0.0
N426 N 0.8638 0.36056 0.63894 0.0
C427 C 0.85265 0.34823 0.62492 0.0
C428 C 0.86002 0.35282 0.60445 0.0
C429 C 0.88862 0.38004 0.59044 0.0
H430 H 0.88924 0.39764 0.59408 0.0
H431 H 0.90548 0.37376 0.59045 0.0
H432 H 0.88143 0.37771 0.57433 0.0
O433 O 0.87977 0.41269 0.66042 0.0
O434 O 0.85562 0.39296 0.67793 0.0
H435 H 0.82184 0.34004 0.63823 0.0
H436 H 0.83072 0.32183 0.61729 0.0
C437 C 0.83607 0.33169 0.63117 0.0
H438 H 0.84298 0.3208 0.64352 0.0
H439 H 0.81536 0.36804 0.67765 0.0
O440 O 0.9153 0.40879 0.62496 0.0
C441 C 0.86388 0.41126 0.67328 0.0
Co442 Co 0.60197 0.88629 0.65059 0.0
Co443 Co 0.6384 0.85928 0.67329 0.0
C444 C 0.63265 0.90591 0.68316 0.0
O445 O 0.61664 0.90678 0.67027 0.0
O446 O 0.64322 0.88838 0.68599 0.0
C447 C 0.58406 0.92106 0.6248 0.0
O448 O 0.60381 0.92905 0.62482 0.0
C449 C 0.68033 0.84339 0.69004 0.0
C450 C 0.67545 0.80796 0.68735 0.0
C451 C 0.69037 0.82355 0.69353 0.0
N452 N 0.66039 0.83961 0.68212 0.0
N453 N 0.65756 0.81841 0.68068 0.0
C454 C 0.68992 0.86551 0.69271 0.0
H455 H 0.68481 0.87221 0.70838 0.0
H456 H 0.68387 0.87647 0.67997 0.0
H457 H 0.7079 0.8649 0.69219 0.0
C458 C 0.62547 0.87137 0.61209 0.0
N459 N 0.62248 0.87198 0.63337 0.0
N460 N 0.63809 0.86095 0.64281 0.0
C461 C 0.65174 0.85333 0.62771 0.0
C462 C 0.64408 0.85966 0.60787 0.0
C463 C 0.611 0.88204 0.59602 0.0
H464 H 0.59384 0.88073 0.60111 0.0
H465 H 0.61538 0.89944 0.5948 0.0
H466 H 0.61294 0.87455 0.57998 0.0
O467 O 0.58525 0.86503 0.667 0.0
O468 O 0.61076 0.84723 0.68486 0.0
H469 H 0.66834 0.82507 0.6387 0.0
H470 H 0.68213 0.83921 0.61744 0.0
C471 C 0.67231 0.84131 0.63216 0.0
H472 H 0.68195 0.85023 0.64428 0.0
H473 H 0.64346 0.8111 0.6749 0.0
O474 O 0.58037 0.90306 0.634 0.0
C475 C 0.5909 0.85068 0.68046 0.0
Co476 Co 0.10734 0.60209 0.65016 0.0
Co477 Co 0.13786 0.63556 0.67312 0.0
C478 C 0.09053 0.63391 0.68274 0.0
O479 O 0.08779 0.61826 0.66967 0.0
O480 O 0.10915 0.6424 0.68565 0.0
C481 C 0.07004 0.58457 0.62774 0.0
O482 O 0.06019 0.60244 0.63379 0.0
C483 C 0.15618 0.67641 0.68974 0.0
C484 C 0.19123 0.66891 0.68899 0.0
C485 C 0.17649 0.68505 0.69407 0.0
N486 N 0.15886 0.65607 0.68243 0.0
N487 N 0.17983 0.65167 0.68215 0.0
C488 C 0.13475 0.6877 0.69096 0.0
H489 H 0.12712 0.68401 0.7066 0.0
H490 H 0.12386 0.68176 0.67809 0.0
H491 H 0.13674 0.70553 0.68953 0.0
C492 C 0.12402 0.62463 0.61201 0.0
N493 N 0.12333 0.62158 0.63327 0.0
N494 N 0.13629 0.63561 0.64271 0.0
C495 C 0.14568 0.6481 0.62761 0.0
C496 C 0.13815 0.64155 0.60773 0.0
C497 C 0.1118 0.6111 0.59618 0.0
H498 H 0.11395 0.59368 0.60005 0.0
H499 H 0.09427 0.61493 0.59737 0.0
H500 H 0.11736 0.61406 0.57957 0.0
O501 O 0.12706 0.58352 0.66681 0.0
O502 O 0.14767 0.60708 0.68435 0.0
H503 H 0.17595 0.66038 0.639 0.0
H504 H 0.16428 0.67611 0.61752 0.0
C505 C 0.16059 0.66668 0.63218 0.0
H506 H 0.15303 0.6776 0.64412 0.0
H507 H 0.18635 0.63694 0.67703 0.0
O508 O 0.08991 0.58187 0.63247 0.0
C509 C 0.14214 0.58768 0.68006 0.0
Co510 Co 0.39395 0.10251 0.64226 0.0
Co511 Co 0.36115 0.13342 0.66541 0.0
C512 C 0.36046 0.08637 0.67416 0.0
O513 O 0.37635 0.08373 0.66136 0.0
O514 O 0.35221 0.10505 0.6774 0.0
C515 C 0.40909 0.06566 0.61693 0.0
O516 O 0.38909 0.05834 0.61768 0.0
C517 C 0.32502 0.15794 0.68611 0.0
C518 C 0.33401 0.19106 0.67587 0.0
C519 C 0.31861 0.17957 0.68732 0.0
N520 N 0.34312 0.15687 0.67413 0.0
N521 N 0.34846 0.17674 0.6683 0.0
C522 C 0.31542 0.13891 0.69753 0.0
H523 H 0.32833 0.12729 0.70201 0.0
H524 H 0.30384 0.13054 0.68671 0.0
H525 H 0.30678 0.14407 0.71222 0.0
C526 C 0.37346 0.12176 0.60398 0.0
N527 N 0.3757 0.11981 0.62528 0.0
N528 N 0.36112 0.13199 0.63489 0.0
C529 C 0.34856 0.14147 0.61987 0.0
C530 C 0.35616 0.13549 0.59988 0.0
C531 C 0.38703 0.10986 0.588 0.0
H532 H 0.40438 0.11099 0.59257 0.0
H533 H 0.38236 0.09249 0.58811 0.0
H534 H 0.38474 0.11626 0.57159 0.0
O535 O 0.4134 0.12082 0.65926 0.0
O536 O 0.39014 0.1412 0.67724 0.0
H537 H 0.33569 0.17267 0.62743 0.0
H538 H 0.3183 0.15667 0.61075 0.0
C539 C 0.32968 0.15599 0.62446 0.0
H540 H 0.32086 0.15021 0.6388 0.0
H541 H 0.36203 0.18051 0.65906 0.0
O542 O 0.4136 0.08388 0.62533 0.0
C543 C 0.40946 0.13539 0.67305 0.0
C544 C 0.94479 0.56093 0.1017 0.0
C545 C 0.92583 0.55136 0.10988 0.0
C546 C 0.96253 0.54813 0.09595 0.0
C547 C 0.98109 0.49153 0.0865 0.0
H548 H 0.03381 0.51185 0.1138 0.0
C549 C 0.05011 0.43463 0.1125 0.0
C550 C 0.0715 0.4425 0.11332 0.0
C551 C 0.0331 0.44814 0.10618 0.0
C552 C 0.01945 0.50608 0.10559 0.0
H553 H 0.91005 0.52071 0.11683 0.0
H554 H 0.94108 0.49839 0.10698 0.0
H555 H 0.00218 0.53519 0.1128 0.0
H556 H 0.09199 0.47027 0.10662 0.0
H557 H 0.06233 0.49374 0.09518 0.0
H558 H 0.99829 0.46211 0.07985 0.0
C559 C 0.94221 0.5158 0.10493 0.0
C560 C 0.00124 0.5195 0.10505 0.0
C561 C 0.92444 0.52862 0.11069 0.0
C562 C 0.07567 0.46377 0.1064 0.0
C563 C 0.05864 0.47727 0.09995 0.0
C564 C -0.00062 0.4781 0.08695 0.0
C565 C 0.96171 0.52546 0.09822 0.0
C566 C 0.9817 0.51221 0.09595 0.0
C567 C 0.03707 0.46981 0.10039 0.0
C568 C 0.01863 0.48502 0.09699 0.0
H569 H 0.94631 0.5784 0.10061 0.0
H570 H 0.97719 0.55603 0.09045 0.0
H571 H 0.96634 0.48556 0.07914 0.0
H572 H 0.04632 0.41829 0.11764 0.0
H573 H 0.01671 0.44187 0.10695 0.0
C574 C 0.55959 0.0517 0.11491 0.0
C575 C 0.55382 0.07333 0.11069 0.0
C576 C 0.54539 0.03478 0.11008 0.0
C577 C 0.48677 0.02492 0.10147 0.0
H578 H 0.50741 0.96597 0.09463 0.0
C579 C 0.43518 0.9524 0.12727 0.0
C580 C 0.4382 0.93195 0.11786 0.0
C581 C 0.44814 0.96995 0.12138 0.0
C582 C 0.50116 0.9823 0.09608 0.0
H583 H 0.52924 0.09403 0.09667 0.0
H584 H 0.50474 0.06437 0.08733 0.0
H585 H 0.53264 0.99587 0.09127 0.0
H586 H 0.45648 0.91405 0.09414 0.0
H587 H 0.47857 0.94495 0.0831 0.0
H588 H 0.45515 0.01142 0.10548 0.0
C589 C 0.51994 0.06052 0.09512 0.0
C590 C 0.5158 -0.00046 0.09453 0.0
C591 C 0.53405 0.07754 0.10032 0.0
C592 C 0.45395 0.92959 0.10183 0.0
C593 C 0.46669 0.94731 0.0956 0.0
C594 C 0.47205 0.00772 0.10253 0.0
C595 C 0.52515 0.03893 0.10051 0.0
C596 C 0.50899 0.02104 0.0981 0.0
C597 C 0.46422 0.96767 0.10558 0.0
C598 C 0.47917 0.9861 0.10076 0.0
H599 H 0.57467 0.04783 0.12295 0.0
H600 H 0.54997 0.01856 0.1149 0.0
H601 H 0.48077 0.04115 0.10437 0.0
H602 H 0.42327 0.95472 0.13979 0.0
H603 H 0.44598 0.9851 0.12987 0.0
C604 C 0.93993 0.44119 0.38665 0.0
C605 C 0.92048 0.45032 0.37911 0.0
C606 C 0.9575 0.45444 0.39203 0.0
C607 C 0.97456 0.51166 0.40143 0.0
H608 H 0.02798 0.49239 0.37487 0.0
C609 C 0.04356 0.56965 0.37693 0.0
C610 C 0.06507 0.5621 0.37738 0.0
C611 C 0.02642 0.55592 0.38243 0.0
C612 C 0.01339 0.49788 0.38281 0.0
H613 H 0.90375 0.48059 0.37273 0.0
H614 H 0.93447 0.50365 0.38182 0.0
H615 H 0.99682 0.46839 0.37548 0.0
H616 H 0.08553 0.53464 0.38533 0.0
H617 H 0.05564 0.51078 0.39521 0.0
H618 H 0.99109 0.54149 0.40812 0.0
C619 C 0.93613 0.48627 0.38374 0.0
C620 C 0.99545 0.48408 0.38316 0.0
C621 C 0.91852 0.47302 0.37841 0.0
C622 C 0.06914 0.5409 0.3846 0.0
C623 C 0.05199 0.52719 0.39016 0.0
C624 C 0.99256 0.5255 0.40109 0.0
C625 C 0.95604 0.4771 0.38995 0.0
C626 C 0.9757 0.49093 0.3921 0.0
C627 C 0.03039 0.53434 0.38858 0.0
C628 C 0.01205 0.51892 0.39139 0.0
H629 H 0.9419 0.42376 0.38762 0.0
H630 H 0.97248 0.44688 0.39717 0.0
H631 H 0.95966 0.51732 0.40868 0.0
H632 H 0.03985 0.58591 0.37151 0.0
H633 H 0.00999 0.56193 0.38083 0.0
C634 C 0.55526 0.94393 0.37744 0.0
C635 C 0.54705 0.92275 0.37537 0.0
C636 C 0.54181 0.96095 0.38377 0.0
C637 C 0.48426 0.97611 0.38254 0.0
H638 H 0.50512 0.02727 0.41229 0.0
C639 C 0.43168 0.05235 0.38738 0.0
C640 C 0.44221 0.07121 0.38015 0.0
C641 C 0.44363 0.03398 0.39303 0.0
C642 C 0.49905 0.01306 0.40402 0.0
H643 H 0.51855 0.90262 0.3797 0.0
H644 H 0.49508 0.93233 0.39114 0.0
H645 H 0.52759 0.99464 0.41114 0.0
H646 H 0.47361 0.08614 0.37492 0.0
H647 H 0.49446 0.05404 0.38466 0.0
H648 H 0.45602 0.99463 0.37493 0.0
C649 C 0.51186 0.93583 0.38739 0.0
C650 C 0.51192 0.99439 0.4033 0.0
C651 C 0.52533 0.91878 0.38093 0.0
C652 C 0.46499 0.07184 0.3803 0.0
C653 C 0.47696 0.05346 0.38599 0.0
C654 C 0.47136 0.9947 0.38337 0.0
C655 C 0.5198 0.95723 0.38834 0.0
C656 C 0.50493 0.97588 0.39204 0.0
C657 C 0.46637 0.03409 0.39165 0.0
C658 C 0.47883 0.01356 0.39365 0.0
H659 H 0.57194 0.94758 0.37338 0.0
H660 H 0.54847 0.9772 0.38405 0.0
H661 H 0.47844 0.96234 0.37343 0.0
H662 H 0.41414 0.05138 0.38772 0.0
H663 H 0.43504 0.01941 0.3977 0.0
C664 C 0.956 0.57349 0.89484 0.0
C665 C 0.93787 0.56984 0.88171 0.0
C666 C 0.96972 0.55631 0.9005 0.0
C667 C 0.97512 0.49555 0.89718 0.0
H668 H 0.03644 0.509 0.89536 0.0
C669 C 0.03884 0.4271 0.89299 0.0
C670 C 0.05635 0.43081 0.87913 0.0
C671 C 0.02513 0.44418 0.89896 0.0
C672 C 0.01938 0.50487 0.89576 0.0
H673 H 0.91948 0.54515 0.86486 0.0
H674 H 0.94363 0.51566 0.87377 0.0
H675 H 0.01024 0.53823 0.89511 0.0
H676 H 0.07348 0.4554 0.86099 0.0
H677 H 0.04928 0.48471 0.87044 0.0
H678 H 0.98421 0.46218 0.89589 0.0
C679 C 0.94712 0.53151 0.88038 0.0
C680 C 0.00426 0.52176 0.89603 0.0
C681 C 0.93327 0.54856 0.87507 0.0
C682 C 0.0602 0.45199 0.87181 0.0
C683 C 0.04635 0.46893 0.87743 0.0
C684 C 0.99023 0.47867 0.89644 0.0
C685 C 0.9658 0.53516 0.89284 0.0
C686 C 0.98187 0.51734 0.89608 0.0
C687 C 0.02844 0.46527 0.8909 0.0
C688 C 0.01257 0.48309 0.89504 0.0
H689 H 0.95986 0.58969 0.90039 0.0
H690 H 0.98364 0.55974 0.91051 0.0
H691 H 0.95807 0.49143 0.89787 0.0
H692 H 0.03558 0.41098 0.89906 0.0
H693 H 0.0118 0.44075 0.90969 0.0
C694 C 0.42674 0.96404 0.87442 0.0
C695 C 0.42935 0.94143 0.87309 0.0
C696 C 0.44404 0.97727 0.88067 0.0
C697 C 0.50342 0.97716 0.87966 0.0
H698 H 0.49716 0.0316 0.91011 0.0
C699 C 0.57474 0.03655 0.88537 0.0
C700 C 0.56959 0.05802 0.87977 0.0
C701 C 0.55832 0.02171 0.89022 0.0
C702 C 0.49917 0.01644 0.90158 0.0
H703 H 0.45172 0.91487 0.87875 0.0
H704 H 0.48179 0.93794 0.88988 0.0
H705 H 0.46665 0.00634 0.90845 0.0
H706 H 0.54326 0.08111 0.87629 0.0
H707 H 0.51469 0.05521 0.88441 0.0
H708 H 0.53556 0.98747 0.87209 0.0
C709 C 0.46651 0.94548 0.88566 0.0
C710 C 0.4817 0.00198 0.90062 0.0
C711 C 0.44924 0.93225 0.87936 0.0
C712 C 0.54779 0.06466 0.88044 0.0
C713 C 0.53138 0.04982 0.88525 0.0
C714 C 0.52084 0.99158 0.8806 0.0
C715 C 0.4643 0.96818 0.8858 0.0
C716 C 0.48349 0.98237 0.88926 0.0
C717 C 0.5364 0.02801 0.88956 0.0
C718 C 0.5188 0.01161 0.89118 0.0
H719 H 0.41162 0.97163 0.86975 0.0
H720 H 0.44181 0.99469 0.88042 0.0
H721 H 0.50529 0.96239 0.87046 0.0
H722 H 0.59139 0.03095 0.8852 0.0
H723 H 0.56275 0.00512 0.89386 0.0
C724 C 0.97099 0.41609 0.60674 0.0
C725 C 0.94895 0.42049 0.61045 0.0
C726 C 0.98535 0.4329 0.60169 0.0
C727 C 0.98839 0.49179 0.58739 0.0
H728 H 0.04062 0.48991 0.62189 0.0
C729 C 0.06819 0.54714 0.61229 0.0
C730 C 0.05765 0.56654 0.61794 0.0
C731 C 0.05625 0.52903 0.60581 0.0
C732 C 0.02635 0.49059 0.61179 0.0
H733 H 0.92444 0.44576 0.61022 0.0
H734 H 0.94942 0.47497 0.60193 0.0
H735 H 0.01738 0.45822 0.62001 0.0
H736 H 0.02639 0.58253 0.61987 0.0
H737 H 0.00553 0.55086 0.60874 0.0
H738 H 0.99704 0.52464 0.58003 0.0
C739 C 0.95569 0.45858 0.60266 0.0
C740 C 0.013 0.47234 0.61066 0.0
C741 C 0.94134 0.44179 0.60759 0.0
C742 C 0.035 0.56782 0.61572 0.0
C743 C 0.02305 0.54969 0.60922 0.0
C744 C 0.00172 0.51012 0.58861 0.0
C745 C 0.97799 0.45447 0.60034 0.0
C746 C 0.9936 0.47284 0.59884 0.0
C747 C 0.0335 0.52991 0.60479 0.0
C748 C 0.02063 0.50985 0.60119 0.0
H749 H 0.97735 0.39982 0.6086 0.0
H750 H 0.00235 0.42909 0.59956 0.0
H751 H 0.97374 0.49263 0.57785 0.0
H752 H 0.08565 0.54566 0.61358 0.0
H753 H 0.06479 0.51414 0.60216 0.0
C754 C 0.42271 0.03276 0.59734 0.0
C755 C 0.42693 0.05174 0.60907 0.0
C756 C 0.43963 0.0186 0.592 0.0
C757 C 0.50049 0.01328 0.59366 0.0
H758 H 0.48714 0.9522 0.59947 0.0
C759 C 0.56928 0.95055 0.60131 0.0
C760 C 0.56577 0.93379 0.61608 0.0
C761 C 0.55203 0.96361 0.59451 0.0
C762 C 0.49125 0.9692 0.59799 0.0
H763 H 0.45228 0.07108 0.6238 0.0
H764 H 0.48129 0.04621 0.61554 0.0
H765 H 0.45792 0.97838 0.59889 0.0
H766 H 0.54143 0.91724 0.63501 0.0
H767 H 0.51179 0.94049 0.62423 0.0
H768 H 0.53386 0.00433 0.59483 0.0
C769 C 0.46522 0.04236 0.60971 0.0
C770 C 0.47436 0.98429 0.59721 0.0
C771 C 0.44844 0.05664 0.61466 0.0
C772 C 0.54464 0.92996 0.62349 0.0
C773 C 0.52753 0.94326 0.61709 0.0
C774 C 0.51739 0.99825 0.59498 0.0
C775 C 0.46107 0.02293 0.59861 0.0
C776 C 0.47875 0.00663 0.59575 0.0
C777 C 0.53097 0.96049 0.60272 0.0
C778 C 0.51304 0.97604 0.59786 0.0
H779 H 0.40631 0.02865 0.59263 0.0
H780 H 0.43579 0.00406 0.58304 0.0
H781 H 0.50459 0.03025 0.59181 0.0
H782 H 0.5854 0.95371 0.59516 0.0
H783 H 0.55533 0.97634 0.58306 0.0
C784 C 0.215 0.29786 0.18362 0.0
C785 C 0.20638 0.31393 0.19693 0.0
C786 C 0.23372 0.28676 0.18962 0.0
C787 C 0.2776 0.28264 0.23062 0.0
H788 H 0.26597 0.22121 0.22395 0.0
C789 C 0.31339 0.21507 0.28459 0.0
C790 C 0.31622 0.19448 0.2755 0.0
C791 C 0.30523 0.23212 0.27218 0.0
C792 C 0.26988 0.23826 0.22558 0.0
H793 H 0.21087 0.33223 0.2261 0.0
H794 H 0.2433 0.31219 0.2372 0.0
H795 H 0.2426 0.24722 0.20673 0.0
H796 H 0.31458 0.17565 0.24637 0.0
H797 H 0.30115 0.20549 0.22446 0.0
H798 H 0.30456 0.27331 0.25033 0.0
C799 C 0.23603 0.30847 0.22187 0.0
C800 C 0.25641 0.25326 0.21564 0.0
C801 C 0.21745 0.31989 0.21561 0.0
C802 C 0.31229 0.19144 0.25366 0.0
C803 C 0.30451 0.20848 0.24121 0.0
C804 C 0.29119 0.26751 0.24064 0.0
C805 C 0.24377 0.29112 0.20937 0.0
C806 C 0.2599 0.27564 0.21819 0.0
C807 C 0.29998 0.22875 0.25052 0.0
C808 C 0.28729 0.24514 0.2384 0.0
H809 H 0.20667 0.29319 0.16906 0.0
H810 H 0.23959 0.27388 0.17936 0.0
H811 H 0.28076 0.29978 0.23282 0.0
H812 H 0.31626 0.21761 0.3015 0.0
H813 H 0.30178 0.24747 0.27989 0.0
C814 C 0.77413 0.31888 0.29617 0.0
C815 C 0.79443 0.31707 0.28621 0.0
C816 C 0.75566 0.31004 0.28647 0.0
C817 C 0.72645 0.27329 0.27089 0.0
H818 H 0.7195 0.27053 0.2093 0.0
C819 C 0.69531 0.19826 0.22759 0.0
C820 C 0.68292 0.20036 0.20891 0.0
C821 C 0.70313 0.21659 0.23811 0.0
C822 C 0.72083 0.27145 0.22655 0.0
H823 H 0.81147 0.30528 0.2583 0.0
H824 H 0.77942 0.28983 0.24139 0.0
H825 H 0.74405 0.2972 0.22492 0.0
H826 H 0.669 0.2231 0.18638 0.0
H827 H 0.68265 0.25542 0.2049 0.0
H828 H 0.70383 0.247 0.27247 0.0
C829 C 0.77753 0.29832 0.25644 0.0
C830 C 0.73505 0.28659 0.23548 0.0
C831 C 0.79592 0.30697 0.26619 0.0
C832 C 0.67812 0.22114 0.20106 0.0
C833 C 0.68609 0.23956 0.21153 0.0
C834 C 0.71223 0.25814 0.26197 0.0
C835 C 0.75726 0.29934 0.26666 0.0
C836 C 0.7387 0.28703 0.25766 0.0
C837 C 0.69894 0.23745 0.23001 0.0
C838 C 0.70999 0.25645 0.23966 0.0
H839 H 0.77271 0.32618 0.31186 0.0
H840 H 0.74026 0.31103 0.29473 0.0
H841 H 0.72894 0.27317 0.28804 0.0
H842 H 0.69934 0.18236 0.23383 0.0
H843 H 0.71334 0.21436 0.25205 0.0
C844 C 0.6843 0.78497 0.28215 0.0
C845 C 0.69256 0.79766 0.29895 0.0
C846 C 0.69666 0.76795 0.27369 0.0
C847 C 0.75389 0.75531 0.26707 0.0
H848 H 0.73464 0.69935 0.246 0.0
C849 C 0.81491 0.69788 0.22983 0.0
C850 C 0.80895 0.68806 0.21051 0.0
C851 C 0.7993 0.70757 0.24275 0.0
C852 C 0.74017 0.71498 0.25172 0.0
H853 H 0.71919 0.80161 0.32121 0.0
H854 H 0.74051 0.77175 0.30683 0.0
H855 H 0.70913 0.72288 0.26527 0.0
H856 H 0.78217 0.67989 0.18964 0.0
H857 H 0.75464 0.69753 0.21201 0.0
H858 H 0.78454 0.74809 0.25317 0.0
C859 C 0.72479 0.77514 0.29984 0.0
C860 C 0.72561 0.72839 0.26276 0.0
C861 C 0.71258 0.79218 0.30811 0.0
C862 C 0.787 0.68726 0.20463 0.0
C863 C 0.77132 0.69728 0.21746 0.0
C864 C 0.76829 0.74207 0.25605 0.0
C865 C 0.71739 0.76345 0.28197 0.0
C866 C 0.73243 0.74863 0.27066 0.0
C867 C 0.77744 0.70811 0.23635 0.0
C868 C 0.76172 0.72169 0.24836 0.0
H869 H 0.66902 0.78909 0.27463 0.0
H870 H 0.69061 0.75928 0.25985 0.0
H871 H 0.75947 0.77108 0.27239 0.0
H872 H 0.83178 0.69851 0.23469 0.0
H873 H 0.8045 0.71528 0.25746 0.0
C874 C 0.21433 0.66844 0.27131 0.0
C875 C 0.20957 0.67871 0.29079 0.0
C876 C 0.2318 0.67552 0.25893 0.0
C877 C 0.28152 0.70836 0.25811 0.0
H878 H 0.25895 0.73151 0.20497 0.0
C879 C 0.31933 0.78217 0.21696 0.0
C880 C 0.31549 0.78579 0.19518 0.0
C881 C 0.31088 0.76377 0.22695 0.0
C882 C 0.26594 0.72468 0.21934 0.0
H883 H 0.21973 0.70342 0.31326 0.0
H884 H 0.25062 0.71551 0.29183 0.0
H885 H 0.23669 0.70743 0.2262 0.0
H886 H 0.30131 0.77274 0.16629 0.0
H887 H 0.28765 0.73985 0.1833 0.0
H888 H 0.31076 0.7257 0.25142 0.0
C889 C 0.24092 0.70201 0.28616 0.0
C890 C 0.25304 0.71089 0.23157 0.0
C891 C 0.22322 0.69523 0.29832 0.0
C892 C 0.30428 0.77022 0.18319 0.0
C893 C 0.29633 0.75152 0.19302 0.0
C894 C 0.29467 0.72181 0.24563 0.0
C895 C 0.24491 0.69271 0.26604 0.0
C896 C 0.26041 0.70326 0.2514 0.0
C897 C 0.29877 0.74844 0.21522 0.0
C898 C 0.28672 0.73086 0.22648 0.0
H899 H 0.20378 0.65591 0.26502 0.0
H900 H 0.23452 0.66823 0.2434 0.0
H901 H 0.28755 0.70253 0.27334 0.0
H902 H 0.32778 0.79418 0.22649 0.0
H903 H 0.31287 0.76231 0.24408 0.0
C904 C 0.71995 0.82975 0.72042 0.0
C905 C 0.71208 0.81885 0.70228 0.0
C906 C 0.73903 0.82278 0.73043 0.0
C907 C 0.78654 0.78602 0.72404 0.0
H908 H 0.77631 0.77216 0.78365 0.0
C909 C 0.81504 0.70806 0.76279 0.0
C910 C 0.82091 0.70755 0.78443 0.0
C911 C 0.80845 0.72741 0.75331 0.0
C912 C 0.77981 0.77639 0.7672 0.0
H913 H 0.71832 0.79292 0.67975 0.0
H914 H 0.75147 0.78076 0.69707 0.0
H915 H 0.75205 0.79707 0.76524 0.0
H916 H 0.82486 0.72667 0.81321 0.0
H917 H 0.81303 0.76079 0.79661 0.0
H918 H 0.81348 0.76419 0.72569 0.0
C919 C 0.7432 0.7948 0.70353 0.0
C920 C 0.76588 0.79069 0.75663 0.0
C921 C 0.72409 0.80162 0.6937 0.0
C922 C 0.82073 0.72682 0.79637 0.0
C923 C 0.81385 0.74624 0.78692 0.0
C924 C 0.80045 0.77172 0.73461 0.0
C925 C 0.75058 0.80491 0.72233 0.0
C926 C 0.76847 0.79478 0.73467 0.0
C927 C 0.80727 0.74661 0.76538 0.0
C928 C 0.79655 0.76592 0.75599 0.0
H929 H 0.71077 0.84286 0.72756 0.0
H930 H 0.74434 0.83085 0.74491 0.0
H931 H 0.78916 0.78922 0.70721 0.0
H932 H 0.81497 0.69332 0.75334 0.0
H933 H 0.80311 0.72703 0.73681 0.0
C934 C 0.20056 0.71731 0.69434 0.0
C935 C 0.18225 0.70666 0.70245 0.0
C936 C 0.20789 0.73648 0.70369 0.0
C937 C 0.2106 0.76186 0.75561 0.0
H938 H 0.23962 0.8071 0.72344 0.0
C939 C 0.27428 0.8175 0.79496 0.0
C940 C 0.29399 0.81659 0.7838 0.0
C941 C 0.2551 0.8104 0.78517 0.0
C942 C 0.23138 0.79474 0.73268 0.0
H943 H 0.15699 0.70773 0.72649 0.0
H944 H 0.16996 0.74137 0.74305 0.0
H945 H 0.2147 0.78248 0.70518 0.0
H946 H 0.30927 0.80846 0.75373 0.0
H947 H 0.27599 0.79623 0.7366 0.0
H948 H 0.22834 0.77322 0.78282 0.0
C949 C 0.17845 0.73498 0.72926 0.0
C950 C 0.21714 0.78066 0.72224 0.0
C951 C 0.17095 0.71586 0.71971 0.0
C952 C 0.29419 0.80937 0.76257 0.0
C953 C 0.2751 0.80257 0.75273 0.0
C954 C 0.22486 0.77595 0.76605 0.0
C955 C 0.19723 0.74526 0.72156 0.0
C956 C 0.20746 0.76342 0.73339 0.0
C957 C 0.25542 0.80254 0.76405 0.0
C958 C 0.23622 0.79182 0.75445 0.0
H959 H 0.20958 0.71049 0.68108 0.0
H960 H 0.22263 0.74377 0.6976 0.0
H961 H 0.20346 0.74867 0.76461 0.0
H962 H 0.27387 0.82271 0.81149 0.0
H963 H 0.24016 0.81048 0.79427 0.0
C964 C 0.27993 0.17903 0.70076 0.0
C965 C 0.29998 0.18971 0.6984 0.0
C966 C 0.26226 0.18978 0.71005 0.0
C967 C 0.23996 0.2435 0.71615 0.0
H968 H 0.21609 0.22682 0.77108 0.0
C969 C 0.2074 0.30554 0.77454 0.0
C970 C 0.189 0.301 0.78688 0.0
C971 C 0.21624 0.28974 0.76127 0.0
C972 C 0.22215 0.23142 0.75548 0.0
H973 H 0.3171 0.21998 0.70386 0.0
H974 H 0.28626 0.23872 0.71943 0.0
H975 H 0.24059 0.20203 0.75217 0.0
H976 H 0.16563 0.2763 0.79557 0.0
H977 H 0.18123 0.24834 0.77214 0.0
H978 H 0.22235 0.27313 0.71961 0.0
C979 C 0.28429 0.22203 0.7143 0.0
C980 C 0.23616 0.21726 0.74473 0.0
C981 C 0.30193 0.21127 0.70541 0.0
C982 C 0.17958 0.28027 0.78582 0.0
C983 C 0.18858 0.26429 0.7726 0.0
C984 C 0.2259 0.25752 0.72675 0.0
C985 C 0.2643 0.21148 0.71654 0.0
C986 C 0.24585 0.22367 0.72545 0.0
C987 C 0.207 0.26892 0.76018 0.0
C988 C 0.21767 0.25207 0.74698 0.0
H989 H 0.2776 0.16272 0.69481 0.0
H990 H 0.24688 0.18144 0.71155 0.0
H991 H 0.24711 0.24862 0.70115 0.0
H992 H 0.21503 0.32136 0.7752 0.0
H993 H 0.23072 0.29368 0.75229 0.0
C994 C 0.81355 0.28202 0.70529 0.0
C995 C 0.81579 0.30321 0.71312 0.0
C996 C 0.80435 0.2659 0.71819 0.0
C997 C 0.76573 0.26293 0.7625 0.0
H998 H 0.7781 0.20126 0.76185 0.0
C999 C 0.71184 0.20666 0.80975 0.0
C1000 C 0.7037 0.18887 0.79833 0.0
C1001 C 0.73014 0.21764 0.80251 0.0
C1002 C 0.7745 0.21845 0.76216 0.0
H1003 H 0.81193 0.32412 0.74061 0.0
H1004 H 0.79666 0.29593 0.76343 0.0
H1005 H 0.80231 0.22646 0.74308 0.0
H1006 H 0.7088 0.1676 0.77129 0.0
H1007 H 0.74059 0.18735 0.75802 0.0
H1008 H 0.73773 0.25521 0.78084 0.0
C1009 C 0.8013 0.29174 0.74725 0.0
C1010 C 0.78832 0.23285 0.75142 0.0
C1011 C 0.81013 0.30784 0.7343 0.0
C1012 C 0.71496 0.18125 0.78036 0.0
C1013 C 0.73315 0.19253 0.77284 0.0
C1014 C 0.75205 0.24866 0.77316 0.0
C1015 C 0.79744 0.27082 0.73908 0.0
C1016 C 0.784 0.25527 0.75144 0.0
C1017 C 0.74033 0.21141 0.78337 0.0
C1018 C 0.75617 0.22625 0.77311 0.0
H1019 H 0.81778 0.27826 0.6889 0.0
H1020 H 0.80149 0.25 0.71137 0.0
H1021 H 0.76148 0.27998 0.76234 0.0
H1022 H 0.70347 0.21264 0.82379 0.0
H1023 H 0.73562 0.23177 0.81131 0.0
C1024 C 0.16483 0.34455 0.07967 0.0
C1025 C 0.14343 0.34387 0.08717 0.0
C1026 C 0.16952 0.33826 0.0587 0.0
C1027 C 0.14489 0.31364 0.00959 0.0
H1028 H 0.17766 0.35855 0.98065 0.0
C1029 C 0.12523 0.34488 0.92603 0.0
C1030 C 0.14218 0.3503 0.91214 0.0
C1031 C 0.12973 0.3377 0.94669 0.0
C1032 C 0.16889 0.34556 0.98848 0.0
H1033 H 0.11044 0.33472 0.07965 0.0
H1034 H 0.11831 0.32434 0.04296 0.0
H1035 H 0.1783 0.35667 0.01944 0.0
H1036 H 0.17703 0.35194 0.90833 0.0
H1037 H 0.18501 0.33976 0.94488 0.0
H1038 H 0.13422 0.30368 0.97848 0.0
C1039 C 0.13165 0.32933 0.0531 0.0
C1040 C 0.1693 0.34441 0.01075 0.0
C1041 C 0.12704 0.3355 0.07403 0.0
C1042 C 0.16374 0.34784 0.9189 0.0
C1043 C 0.16827 0.34091 0.93971 0.0
C1044 C 0.14431 0.31495 0.98731 0.0
C1045 C 0.15282 0.3313 0.04494 0.0
C1046 C 0.15655 0.32903 0.0216 0.0
C1047 C 0.15128 0.33602 0.95385 0.0
C1048 C 0.15562 0.33147 0.97665 0.0
H1049 H 0.1777 0.35094 0.08966 0.0
H1050 H 0.18604 0.33969 0.053 0.0
H1051 H 0.13529 0.30128 0.01744 0.0
H1052 H 0.10849 0.34649 0.92099 0.0
H1053 H 0.11632 0.33433 0.95736 0.0
C1054 C 0.66404 0.15166 0.91619 0.0
C1055 C 0.64275 0.15486 0.90896 0.0
C1056 C 0.66986 0.15758 0.937 0.0
C1057 C 0.65025 0.18698 0.98549 0.0
H1058 H 0.67793 0.13957 0.01572 0.0
C1059 C 0.62971 0.16275 0.07081 0.0
C1060 C 0.64573 0.15383 0.08404 0.0
C1061 C 0.6348 0.16928 0.05009 0.0
C1062 C 0.6707 0.15326 0.00753 0.0
H1063 H 0.61115 0.16769 0.91695 0.0
H1064 H 0.62099 0.17758 0.95343 0.0
H1065 H 0.67709 0.13937 0.97691 0.0
H1066 H 0.67973 0.14567 0.0868 0.0
H1067 H 0.68876 0.15694 0.05022 0.0
H1068 H 0.64263 0.20006 0.01632 0.0
C1069 C 0.63339 0.17087 0.94312 0.0
C1070 C 0.67022 0.15316 0.98522 0.0
C1071 C 0.62764 0.165 0.92234 0.0
C1072 C 0.66718 0.15256 0.07675 0.0
C1073 C 0.67228 0.15892 0.05589 0.0
C1074 C 0.65064 0.18702 0.00782 0.0
C1075 C 0.65442 0.16673 0.95088 0.0
C1076 C 0.65917 0.16954 0.97399 0.0
C1077 C 0.656 0.16682 0.04219 0.0
C1078 C 0.66008 0.16969 0.01904 0.0
H1079 H 0.67592 0.14383 0.90603 0.0
H1080 H 0.68623 0.15438 0.94243 0.0
H1081 H 0.64203 0.20008 0.97726 0.0
H1082 H 0.61307 0.16389 0.07625 0.0
H1083 H 0.62184 0.17501 0.03985 0.0
C1084 C 0.82479 0.62758 0.91459 0.0
C1085 C 0.83942 0.64238 0.90569 0.0
C1086 C 0.81778 0.63017 0.93565 0.0
C1087 C 0.81964 0.66689 0.98314 0.0
H1088 H 0.82798 0.61273 0.01349 0.0
C1089 C 0.84925 0.66106 0.0701 0.0
C1090 C 0.8434 0.6429 0.08219 0.0
C1091 C 0.84154 0.66339 0.04921 0.0
C1092 C 0.82499 0.62795 0.00538 0.0
H1093 H 0.85743 0.672 0.91078 0.0
H1094 H 0.84569 0.6764 0.94788 0.0
H1095 H 0.82702 0.61268 0.97489 0.0
H1096 H 0.82401 0.61371 0.0831 0.0
H1097 H 0.8099 0.61798 0.04677 0.0
H1098 H 0.81865 0.68222 0.01391 0.0
C1099 C 0.83916 0.66305 0.93863 0.0
C1100 C 0.82444 0.62792 0.98312 0.0
C1101 C 0.846 0.66052 0.91749 0.0
C1102 C 0.82866 0.62783 0.07386 0.0
C1103 C 0.82075 0.63024 0.05309 0.0
C1104 C 0.82017 0.66692 0.00551 0.0
C1105 C 0.82562 0.64744 0.94819 0.0
C1106 C 0.82236 0.64744 0.97171 0.0
C1107 C 0.82781 0.64757 0.04021 0.0
C1108 C 0.82345 0.6475 0.01685 0.0
H1109 H 0.81959 0.61348 0.90559 0.0
H1110 H 0.80707 0.61808 0.94243 0.0
H1111 H 0.81774 0.68216 0.97479 0.0
H1112 H 0.86076 0.67274 0.07635 0.0
H1113 H 0.8475 0.6768 0.0397 0.0
C1114 C 0.33322 0.84776 0.9128 0.0
C1115 C 0.35461 0.84631 0.90537 0.0
C1116 C 0.32837 0.84244 0.934 0.0
C1117 C 0.35208 0.81804 0.98351 0.0
H1118 H 0.32029 0.86393 0.01207 0.0
C1119 C 0.37143 0.84817 0.06756 0.0
C1120 C 0.35436 0.85294 0.08154 0.0
C1121 C 0.3671 0.84189 0.04658 0.0
C1122 C 0.32879 0.85071 0.00432 0.0
H1123 H 0.38741 0.83688 0.91335 0.0
H1124 H 0.37925 0.82807 0.95036 0.0
H1125 H 0.32001 0.86194 0.97319 0.0
H1126 H 0.3195 0.85465 0.08509 0.0
H1127 H 0.31182 0.84418 0.0479 0.0
H1128 H 0.36213 0.80789 0.01474 0.0
C1129 C 0.36604 0.83298 0.94002 0.0
C1130 C 0.32859 0.8495 0.98202 0.0
C1131 C 0.37082 0.83825 0.9189 0.0
C1132 C 0.33286 0.85102 0.07444 0.0
C1133 C 0.3285 0.84506 0.05329 0.0
C1134 C 0.35247 0.81941 0.00577 0.0
C1135 C 0.34488 0.83558 0.94801 0.0
C1136 C 0.34098 0.8337 0.97135 0.0
C1137 C 0.34562 0.84055 0.03917 0.0
C1138 C 0.3415 0.83626 0.01629 0.0
H1139 H 0.32049 0.85393 0.90251 0.0
H1140 H 0.31188 0.84439 0.93962 0.0
H1141 H 0.36138 0.80537 0.97578 0.0
H1142 H 0.38813 0.84942 0.07284 0.0
H1143 H 0.38059 0.8388 0.03592 0.0
C1144 C 0.16312 0.64814 0.4183 0.0
C1145 C 0.14242 0.65262 0.41015 0.0
C1146 C 0.16826 0.65347 0.43942 0.0
C1147 C 0.14752 0.68287 0.48763 0.0
H1148 H 0.17453 0.63515 0.51799 0.0
C1149 C 0.12713 0.6584 0.57335 0.0
C1150 C 0.14363 0.65053 0.58665 0.0
C1151 C 0.13177 0.66454 0.55239 0.0
C1152 C 0.16743 0.64887 0.50974 0.0
H1153 H 0.11119 0.66698 0.41692 0.0
H1154 H 0.1197 0.67558 0.45401 0.0
H1155 H 0.17415 0.63509 0.47919 0.0
H1156 H 0.17794 0.64369 0.58925 0.0
H1157 H 0.18613 0.65411 0.55223 0.0
H1158 H 0.13948 0.69575 0.51846 0.0
C1159 C 0.13225 0.66845 0.44416 0.0
C1160 C 0.16723 0.64889 0.48744 0.0
C1161 C 0.12723 0.66331 0.42302 0.0
C1162 C 0.16503 0.64976 0.57913 0.0
C1163 C 0.16966 0.65566 0.55805 0.0
C1164 C 0.14752 0.68272 0.50996 0.0
C1165 C 0.15266 0.66315 0.45279 0.0
C1166 C 0.15658 0.66548 0.47612 0.0
C1167 C 0.15297 0.66265 0.54437 0.0
C1168 C 0.15683 0.66534 0.52119 0.0
H1169 H 0.17504 0.63981 0.40858 0.0
H1170 H 0.18422 0.64943 0.44546 0.0
H1171 H 0.13963 0.69615 0.4794 0.0
H1172 H 0.11053 0.65913 0.57896 0.0
H1173 H 0.11855 0.6696 0.54213 0.0
C1174 C 0.32451 0.14588 0.41139 0.0
C1175 C 0.34566 0.15081 0.40477 0.0
C1176 C 0.31798 0.1506 0.43229 0.0
C1177 C 0.33436 0.17908 0.48226 0.0
H1178 H 0.31614 0.12582 0.50988 0.0
C1179 C 0.36187 0.15514 0.56577 0.0
C1180 C 0.34828 0.14281 0.57891 0.0
C1181 C 0.35515 0.16099 0.54528 0.0
C1182 C 0.32065 0.14105 0.50249 0.0
H1183 H 0.37607 0.16574 0.4137 0.0
H1184 H 0.3648 0.17408 0.45014 0.0
H1185 H 0.31498 0.12847 0.47114 0.0
H1186 H 0.31692 0.12734 0.58164 0.0
H1187 H 0.30497 0.13759 0.54559 0.0
H1188 H 0.34118 0.19118 0.51364 0.0
C1189 C 0.35313 0.16675 0.43938 0.0
C1190 C 0.31996 0.14258 0.48024 0.0
C1191 C 0.35967 0.16187 0.41862 0.0
C1192 C 0.32758 0.13692 0.57164 0.0
C1193 C 0.32083 0.14272 0.55108 0.0
C1194 C 0.33501 0.17756 0.50452 0.0
C1195 C 0.3325 0.16046 0.44668 0.0
C1196 C 0.32777 0.16123 0.46988 0.0
C1197 C 0.3347 0.15455 0.53757 0.0
C1198 C 0.32914 0.15815 0.51478 0.0
H1199 H 0.31353 0.13728 0.40084 0.0
H1200 H 0.30197 0.14567 0.43748 0.0
H1201 H 0.34014 0.19377 0.47467 0.0
H1202 H 0.3779 0.15983 0.5712 0.0
H1203 H 0.3664 0.16974 0.53517 0.0
C1204 C 0.86489 0.34069 0.42266 0.0
C1205 C 0.84856 0.34938 0.40967 0.0
C1206 C 0.86006 0.33347 0.44322 0.0
C1207 C 0.82334 0.34615 0.4864 0.0
H1208 H 0.85432 0.2995 0.51463 0.0
C1209 C 0.83112 0.34481 0.57757 0.0
C1210 C 0.85287 0.34336 0.584 0.0
C1211 C 0.82511 0.33883 0.55682 0.0
C1212 C 0.8454 0.31248 0.50697 0.0
H1213 H 0.81431 0.35656 0.40719 0.0
H1214 H 0.80574 0.34404 0.44349 0.0
H1215 H 0.85359 0.30117 0.47562 0.0
H1216 H 0.8851 0.33323 0.57476 0.0
H1217 H 0.87481 0.32304 0.53851 0.0
H1218 H 0.81631 0.35829 0.51762 0.0
C1219 C 0.82226 0.3428 0.43777 0.0
C1220 C 0.84497 0.31343 0.48466 0.0
C1221 C 0.82711 0.34989 0.41708 0.0
C1222 C 0.86825 0.33457 0.57 0.0
C1223 C 0.86227 0.32854 0.54934 0.0
C1224 C 0.82381 0.34524 0.50869 0.0
C1225 C 0.8388 0.33494 0.4512 0.0
C1226 C 0.83477 0.33082 0.4742 0.0
C1227 C 0.84077 0.33124 0.54229 0.0
C1228 C 0.8357 0.32896 0.5192 0.0
H1229 H 0.88153 0.34013 0.41713 0.0
H1230 H 0.87323 0.32783 0.45326 0.0
H1231 H 0.81547 0.35985 0.47882 0.0
H1232 H 0.81903 0.35159 0.58821 0.0
H1233 H 0.80839 0.34093 0.55189 0.0
C1234 C 0.65924 0.87786 0.41831 0.0
C1235 C 0.64859 0.86028 0.40878 0.0
C1236 C 0.66629 0.87649 0.43945 0.0
C1237 C 0.67374 0.83901 0.48563 0.0
H1238 H 0.65593 0.88961 0.51797 0.0
C1239 C 0.6509 0.83812 0.575 0.0
C1240 C 0.65438 0.85703 0.58692 0.0
C1241 C 0.65683 0.8374 0.55345 0.0
C1242 C 0.66153 0.87552 0.50923 0.0
H1243 H 0.63771 0.82723 0.41296 0.0
H1244 H 0.64947 0.82489 0.45031 0.0
H1245 H 0.65421 0.89042 0.47937 0.0
H1246 H 0.66779 0.88942 0.58671 0.0
H1247 H 0.67876 0.88808 0.54917 0.0
H1248 H 0.68012 0.82386 0.51586 0.0
C1249 C 0.65284 0.83959 0.44144 0.0
C1250 C 0.66053 0.87597 0.48701 0.0
C1251 C 0.64598 0.84092 0.42017 0.0
C1252 C 0.66508 0.87468 0.57763 0.0
C1253 C 0.67117 0.87393 0.55619 0.0
C1254 C 0.67471 0.83854 0.50799 0.0
C1255 C 0.6625 0.85761 0.4515 0.0
C1256 C 0.66625 0.85763 0.47493 0.0
C1257 C 0.66629 0.85563 0.54362 0.0
C1258 C 0.66823 0.85669 0.52002 0.0
H1259 H 0.66148 0.89288 0.40959 0.0
H1260 H 0.67405 0.8905 0.44659 0.0
H1261 H 0.67848 0.8247 0.47675 0.0
H1262 H 0.64245 0.82445 0.58199 0.0
H1263 H 0.65265 0.82315 0.54418 0.0
C1264 C 0.13048 0.55144 0.30796 0.0
C1265 C 0.1423 0.57079 0.30553 0.0
C1266 C 0.13468 0.53365 0.29486 0.0
C1267 C 0.17236 0.50776 0.25756 0.0
H1268 H 0.11948 0.48932 0.2292 0.0
C1269 C 0.1599 0.42852 0.20763 0.0
C1270 C 0.14659 0.43042 0.18943 0.0
C1271 C 0.16378 0.44656 0.22071 0.0
C1272 C 0.13442 0.49439 0.23685 0.0
H1273 H 0.16902 0.58594 0.28859 0.0
H1274 H 0.17634 0.55462 0.26566 0.0
H1275 H 0.11798 0.5179 0.25594 0.0
H1276 H 0.12884 0.45316 0.1695 0.0
H1277 H 0.1356 0.48442 0.19226 0.0
H1278 H 0.18869 0.48381 0.23842 0.0
C1279 C 0.16378 0.55342 0.27769 0.0
C1280 C 0.13352 0.51056 0.25233 0.0
C1281 C 0.1595 0.57136 0.29076 0.0
C1282 C 0.13883 0.45103 0.1836 0.0
C1283 C 0.14268 0.46896 0.19663 0.0
C1284 C 0.17323 0.49123 0.24217 0.0
C1285 C 0.15086 0.53473 0.27914 0.0
C1286 C 0.15242 0.51737 0.26289 0.0
C1287 C 0.1544 0.46671 0.21575 0.0
C1288 C 0.15423 0.48451 0.23163 0.0
H1289 H 0.1173 0.55029 0.31934 0.0
H1290 H 0.12469 0.51928 0.29647 0.0
H1291 H 0.18715 0.5128 0.26551 0.0
H1292 H 0.16624 0.4129 0.21249 0.0
H1293 H 0.17287 0.44442 0.23539 0.0
C1294 C 0.54992 0.14796 0.18086 0.0
C1295 C 0.57055 0.14617 0.19013 0.0
C1296 C 0.53195 0.1531 0.19342 0.0
C1297 C 0.51499 0.16907 0.24901 0.0
H1298 H 0.46356 0.13643 0.23347 0.0
C1299 C 0.44732 0.14009 0.30674 0.0
C1300 C 0.42578 0.1428 0.29984 0.0
C1301 C 0.46457 0.14585 0.29343 0.0
C1302 C 0.4777 0.14589 0.23785 0.0
H1303 H 0.58888 0.14922 0.21954 0.0
H1304 H 0.55744 0.15691 0.24176 0.0
H1305 H 0.49451 0.13654 0.20964 0.0
H1306 H 0.40545 0.1546 0.27397 0.0
H1307 H 0.43565 0.16407 0.25054 0.0
H1308 H 0.49827 0.17696 0.27811 0.0
C1309 C 0.55503 0.15513 0.22471 0.0
C1310 C 0.49548 0.14612 0.22412 0.0
C1311 C 0.5731 0.15057 0.212 0.0
C1312 C 0.42185 0.15225 0.27975 0.0
C1313 C 0.43909 0.15766 0.26632 0.0
C1314 C 0.49729 0.16844 0.26299 0.0
C1315 C 0.53409 0.15587 0.21568 0.0
C1316 C 0.5145 0.15751 0.22956 0.0
C1317 C 0.46057 0.15411 0.27289 0.0
C1318 C 0.4786 0.15668 0.25756 0.0
H1319 H 0.5476 0.14495 0.16394 0.0
H1320 H 0.51627 0.15427 0.1857 0.0
H1321 H 0.52914 0.17836 0.25363 0.0
H1322 H 0.45086 0.133 0.3222 0.0
H1323 H 0.48102 0.14283 0.29876 0.0
C1324 C 0.85092 0.45194 0.30859 0.0
C1325 C 0.84787 0.43029 0.30219 0.0
C1326 C 0.84611 0.46895 0.29461 0.0
C1327 C 0.84933 0.48025 0.2389 0.0
H1328 H 0.81845 0.5335 0.25146 0.0
C1329 C 0.85336 0.55116 0.18004 0.0
C1330 C 0.85506 0.57204 0.18881 0.0
C1331 C 0.84724 0.53364 0.19281 0.0
C1332 C 0.82734 0.51885 0.24775 0.0
H1333 H 0.83628 0.40953 0.27657 0.0
H1334 H 0.82847 0.43931 0.25196 0.0
H1335 H 0.81697 0.50329 0.27672 0.0
H1336 H 0.85106 0.59121 0.21756 0.0
H1337 H 0.84168 0.56055 0.24021 0.0
H1338 H 0.86115 0.49589 0.21092 0.0
C1339 C 0.83439 0.44303 0.26787 0.0
C1340 C 0.82629 0.50151 0.26215 0.0
C1341 C 0.83882 0.42603 0.28197 0.0
C1342 C 0.84981 0.57525 0.2104 0.0
C1343 C 0.84426 0.55762 0.22334 0.0
C1344 C 0.85078 0.49767 0.22476 0.0
C1345 C 0.83849 0.46457 0.2739 0.0
C1346 C 0.83746 0.48216 0.2579 0.0
C1347 C 0.84333 0.53647 0.21482 0.0
C1348 C 0.84002 0.51734 0.22906 0.0
H1349 H 0.85775 0.45573 0.32412 0.0
H1350 H 0.84953 0.48545 0.29956 0.0
H1351 H 0.85838 0.4656 0.23545 0.0
H1352 H 0.857 0.54833 0.16333 0.0
H1353 H 0.84604 0.5178 0.18544 0.0
C1354 C 0.5495 0.84117 0.30978 0.0
C1355 C 0.56991 0.84466 0.30056 0.0
C1356 C 0.53183 0.83528 0.29706 0.0
C1357 C 0.51545 0.82176 0.24046 0.0
H1358 H 0.46255 0.85076 0.25791 0.0
C1359 C 0.44716 0.85366 0.18478 0.0
C1360 C 0.4257 0.84907 0.19087 0.0
C1361 C 0.46451 0.84725 0.19772 0.0
C1362 C 0.47711 0.8423 0.25297 0.0
H1363 H 0.58826 0.84381 0.2711 0.0
H1364 H 0.55731 0.83491 0.24863 0.0
H1365 H 0.49336 0.85021 0.28194 0.0
H1366 H 0.40566 0.83344 0.21485 0.0
H1367 H 0.43601 0.82287 0.23774 0.0
H1368 H 0.49924 0.81555 0.21063 0.0
C1369 C 0.55484 0.83584 0.26573 0.0
C1370 C 0.49483 0.84179 0.26683 0.0
C1371 C 0.57266 0.84106 0.27859 0.0
C1372 C 0.422 0.83717 0.20969 0.0
C1373 C 0.43932 0.83115 0.22281 0.0
C1374 C 0.49781 0.82274 0.22638 0.0
C1375 C 0.53399 0.83357 0.2747 0.0
C1376 C 0.51441 0.83178 0.26071 0.0
C1377 C 0.46067 0.8365 0.21713 0.0
C1378 C 0.4786 0.83323 0.23248 0.0
H1379 H 0.54707 0.84363 0.32677 0.0
H1380 H 0.5163 0.83289 0.30476 0.0
H1381 H 0.53001 0.8135 0.23526 0.0
H1382 H 0.45051 0.8627 0.17031 0.0
H1383 H 0.48085 0.85171 0.19312 0.0
C1384 C 0.86092 0.55143 0.80041 0.0
C1385 C 0.85368 0.57267 0.79648 0.0
C1386 C 0.85547 0.53459 0.78655 0.0
C1387 C 0.84129 0.52496 0.7306 0.0
H1388 H 0.83453 0.46595 0.75093 0.0
C1389 C 0.8382 0.43006 0.69827 0.0
C1390 C 0.85586 0.43105 0.68409 0.0
C1391 C 0.83219 0.44828 0.71019 0.0
C1392 C 0.83594 0.48234 0.74488 0.0
H1393 H 0.83422 0.59268 0.77533 0.0
H1394 H 0.82459 0.56308 0.75108 0.0
H1395 H 0.83341 0.49583 0.77628 0.0
H1396 H 0.88033 0.4523 0.67054 0.0
H1397 H 0.8702 0.48376 0.69159 0.0
H1398 H 0.84404 0.51142 0.6992 0.0
C1399 C 0.83471 0.5596 0.76482 0.0
C1400 C 0.83557 0.49946 0.75947 0.0
C1401 C 0.84016 0.57652 0.77876 0.0
C1402 C 0.86668 0.45092 0.68134 0.0
C1403 C 0.86074 0.46907 0.69332 0.0
C1404 C 0.84155 0.50782 0.71597 0.0
C1405 C 0.8426 0.53851 0.76841 0.0
C1406 C 0.83902 0.52089 0.7526 0.0
C1407 C 0.84374 0.46784 0.70824 0.0
C1408 C 0.83963 0.48625 0.72304 0.0
H1409 H 0.87132 0.54784 0.81393 0.0
H1410 H 0.86213 0.51863 0.78963 0.0
H1411 H 0.84406 0.54126 0.72477 0.0
H1412 H 0.82937 0.41506 0.70061 0.0
H1413 H 0.8188 0.44689 0.72129 0.0
C1414 C 0.55402 0.83448 0.68264 0.0
C1415 C 0.57376 0.83956 0.6926 0.0
C1416 C 0.53624 0.82787 0.69479 0.0
C1417 C 0.51817 0.81535 0.75094 0.0
H1418 H 0.4657 0.8438 0.73136 0.0
C1419 C 0.45036 0.84893 0.80512 0.0
C1420 C 0.42874 0.84614 0.79852 0.0
C1421 C 0.46741 0.84147 0.79241 0.0
C1422 C 0.48009 0.8354 0.73689 0.0
H1423 H 0.59096 0.84054 0.72276 0.0
H1424 H 0.55972 0.83024 0.7442 0.0
H1425 H 0.49703 0.84249 0.70814 0.0
H1426 H 0.40801 0.83241 0.77392 0.0
H1427 H 0.4379 0.81987 0.75146 0.0
H1428 H 0.50129 0.80992 0.78047 0.0
C1429 C 0.55792 0.83058 0.72699 0.0
C1430 C 0.49812 0.83451 0.72351 0.0
C1431 C 0.57589 0.8366 0.71473 0.0
C1432 C 0.42449 0.83487 0.77941 0.0
C1433 C 0.44156 0.82771 0.76655 0.0
C1434 C 0.50018 0.81663 0.7645 0.0
C1435 C 0.53762 0.82693 0.71725 0.0
C1436 C 0.51761 0.82488 0.73047 0.0
C1437 C 0.46316 0.83134 0.77274 0.0
C1438 C 0.48114 0.82704 0.7577 0.0
H1439 H 0.55211 0.83638 0.66552 0.0
H1440 H 0.52114 0.82445 0.6866 0.0
H1441 H 0.53268 0.80741 0.75674 0.0
H1442 H 0.45415 0.85739 0.81985 0.0
H1443 H 0.48392 0.84464 0.79744 0.0
C1444 C 0.16 0.42199 0.78257 0.0
C1445 C 0.15017 0.42696 0.80225 0.0
C1446 C 0.16626 0.43857 0.76866 0.0
C1447 C 0.17822 0.49652 0.7635 0.0
H1448 H 0.1456 0.49308 0.71061 0.0
C1449 C 0.15732 0.57198 0.71362 0.0
C1450 C 0.152 0.56957 0.69194 0.0
C1451 C 0.16306 0.5539 0.72585 0.0
C1452 C 0.15542 0.49422 0.72492 0.0
H1453 H 0.14066 0.45312 0.82346 0.0
H1454 H 0.15205 0.48208 0.79928 0.0
H1455 H 0.1459 0.46239 0.73477 0.0
H1456 H 0.1504 0.54697 0.66548 0.0
H1457 H 0.16179 0.51566 0.68637 0.0
H1458 H 0.18785 0.52832 0.75373 0.0
C1459 C 0.15471 0.46536 0.79461 0.0
C1460 C 0.15545 0.47657 0.73884 0.0
C1461 C 0.14805 0.44881 0.80834 0.0
C1462 C 0.15413 0.54915 0.68228 0.0
C1463 C 0.16047 0.53119 0.69435 0.0
C1464 C 0.17861 0.51407 0.74934 0.0
C1465 C 0.16324 0.46037 0.7744 0.0
C1466 C 0.16634 0.47778 0.75848 0.0
C1467 C 0.1641 0.53312 0.71651 0.0
C1468 C 0.16665 0.51342 0.73012 0.0
H1469 H 0.16183 0.40531 0.77742 0.0
H1470 H 0.17282 0.43437 0.75314 0.0
H1471 H 0.18684 0.49773 0.77856 0.0
H1472 H 0.15568 0.58757 0.72145 0.0
H1473 H 0.16544 0.55616 0.74285 0.0
C1474 C 0.4484 0.14581 0.67624 0.0
C1475 C 0.42768 0.14451 0.6854 0.0
C1476 C 0.46626 0.15182 0.68863 0.0
C1477 C 0.4826 0.17172 0.74315 0.0
H1478 H 0.53414 0.1379 0.73091 0.0
C1479 C 0.54787 0.14612 0.80461 0.0
C1480 C 0.5697 0.14765 0.79836 0.0
C1481 C 0.53129 0.15136 0.79029 0.0
C1482 C 0.52 0.14773 0.73433 0.0
H1483 H 0.40914 0.14925 0.71441 0.0
H1484 H 0.44037 0.15856 0.73639 0.0
H1485 H 0.50363 0.1365 0.70647 0.0
H1486 H 0.59131 0.15678 0.77252 0.0
H1487 H 0.56222 0.16537 0.7473 0.0
H1488 H 0.4988 0.18157 0.77198 0.0
C1489 C 0.44291 0.1557 0.71951 0.0
C1490 C 0.50246 0.14706 0.72025 0.0
C1491 C 0.42496 0.15023 0.70694 0.0
C1492 C 0.57464 0.15543 0.7778 0.0
C1493 C 0.55804 0.1603 0.76336 0.0
C1494 C 0.50004 0.17203 0.75747 0.0
C1495 C 0.46391 0.15603 0.71064 0.0
C1496 C 0.48336 0.15878 0.72459 0.0
C1497 C 0.53624 0.1579 0.76936 0.0
C1498 C 0.51876 0.15981 0.75328 0.0
H1499 H 0.45086 0.14178 0.65955 0.0
H1500 H 0.482 0.15256 0.68102 0.0
H1501 H 0.46839 0.18132 0.74686 0.0
H1502 H 0.54357 0.14029 0.82039 0.0
H1503 H 0.51458 0.14922 0.79522 0.0
C1504 C 0.63648 0.05041 0.8142 0.0
C1505 C 0.64349 0.07073 0.80671 0.0
C1506 C 0.64004 0.03173 0.80218 0.0
C1507 C 0.66865 0.00742 0.75628 0.0
H1508 H 0.61389 0.97746 0.74813 0.0
C1509 C 0.6559 0.92558 0.71002 0.0
C1510 C 0.6381 0.92542 0.69591 0.0
C1511 C 0.65967 0.94347 0.72334 0.0
C1512 C 0.6293 0.98566 0.75024 0.0
H1513 H 0.66142 0.0871 0.78163 0.0
H1514 H 0.66747 0.05424 0.76042 0.0
H1515 H 0.61599 0.00766 0.77305 0.0
H1516 H 0.61094 0.9444 0.68404 0.0
H1517 H 0.61741 0.97527 0.70736 0.0
H1518 H 0.68177 0.98523 0.73311 0.0
C1519 C 0.65925 0.05289 0.77565 0.0
C1520 C 0.63057 0.0028 0.76467 0.0
C1521 C 0.65572 0.07169 0.78776 0.0
C1522 C 0.6247 0.94384 0.69481 0.0
C1523 C 0.62835 0.96154 0.7082 0.0
C1524 C 0.66743 0.98996 0.74194 0.0
C1525 C 0.65064 0.0329 0.78237 0.0
C1526 C 0.65018 0.01397 0.76778 0.0
C1527 C 0.64557 0.96135 0.72289 0.0
C1528 C 0.64763 0.97916 0.73862 0.0
H1529 H 0.62735 0.04903 0.82892 0.0
H1530 H 0.63362 0.01645 0.80794 0.0
H1531 H 0.68396 0.01577 0.75841 0.0
H1532 H 0.66661 0.91171 0.71117 0.0
H1533 H 0.67304 0.94296 0.73458 0.0
C1534 C 0.92737 0.66348 0.78967 0.0
C1535 C 0.92927 0.64809 0.80616 0.0
C1536 C 0.94537 0.66896 0.7772 0.0
C1537 C 0.00541 0.66264 0.77293 0.0
H1538 H 0.99343 0.65898 0.71216 0.0
C1539 C 0.07438 0.65821 0.71077 0.0
C1540 C 0.0718 0.64177 0.69536 0.0
C1541 C 0.05696 0.66447 0.72367 0.0
C1542 C 0.99705 0.66011 0.72907 0.0
H1543 H 0.95193 0.6276 0.82345 0.0
H1544 H 0.98304 0.63685 0.8016 0.0
H1545 H 0.96346 0.66058 0.73737 0.0
H1546 H 0.04866 0.61957 0.68097 0.0
H1547 H 0.01853 0.63022 0.7036 0.0
H1548 H 0.039 0.66075 0.76467 0.0
C1549 C 0.96776 0.64486 0.79834 0.0
C1550 C 0.97986 0.66132 0.74354 0.0
C1551 C 0.94982 0.63941 0.81079 0.0
C1552 C 0.05126 0.63226 0.69268 0.0
C1553 C 0.0339 0.63851 0.70556 0.0
C1554 C 0.02261 0.66135 0.75846 0.0
C1555 C 0.96562 0.65919 0.78098 0.0
C1556 C 0.98383 0.66191 0.76567 0.0
C1557 C 0.0366 0.65447 0.72141 0.0
C1558 C 0.01859 0.65937 0.73641 0.0
H1559 H 0.91182 0.67063 0.78578 0.0
H1560 H 0.94327 0.68033 0.76416 0.0
H1561 H 0.00901 0.66341 0.78987 0.0
H1562 H 0.08995 0.66597 0.71318 0.0
H1563 H 0.0595 0.67698 0.73558 0.0
C1564 C 0.36138 0.04677 0.68272 0.0
C1565 C 0.35242 0.06741 0.68635 0.0
C1566 C 0.35564 0.02922 0.69559 0.0
C1567 C 0.3368 0.01779 0.74981 0.0
H1568 H 0.33717 0.95858 0.72886 0.0
C1569 C 0.364 0.94614 0.80121 0.0
C1570 C 0.35487 0.9255 0.798 0.0
C1571 C 0.35777 0.96364 0.78848 0.0
C1572 C 0.33658 0.97499 0.73502 0.0
H1573 H 0.32944 0.08548 0.70567 0.0
H1574 H 0.31932 0.05469 0.7281 0.0
H1575 H 0.33599 0.98853 0.70353 0.0
H1576 H 0.33119 0.90734 0.77954 0.0
H1577 H 0.3202 0.93804 0.75737 0.0
H1578 H 0.33769 0.00426 0.78129 0.0
C1579 C 0.33104 0.05223 0.71545 0.0
C1580 C 0.33616 0.99217 0.72047 0.0
C1581 C 0.33678 0.06984 0.70253 0.0
C1582 C 0.33866 0.92299 0.78234 0.0
C1583 C 0.33242 0.94055 0.76958 0.0
C1584 C 0.33713 0.00061 0.76436 0.0
C1585 C 0.34075 0.03182 0.71239 0.0
C1586 C 0.33707 0.01376 0.72769 0.0
C1587 C 0.34221 0.96098 0.77225 0.0
C1588 C 0.33782 0.97903 0.75711 0.0
H1589 H 0.3734 0.04424 0.67035 0.0
H1590 H 0.36368 0.01384 0.69294 0.0
H1591 H 0.33759 0.03421 0.75594 0.0
H1592 H 0.37647 0.94872 0.81315 0.0
H1593 H 0.3659 0.97904 0.79079 0.0
C1594 C 0.94928 0.34931 0.68196 0.0
C1595 C 0.92862 0.3519 0.69095 0.0
C1596 C 0.96698 0.34393 0.69483 0.0
C1597 C 0.98283 0.32863 0.75098 0.0
H1598 H 0.03574 0.35866 0.73532 0.0
C1599 C 0.05071 0.35732 0.8087 0.0
C1600 C 0.07222 0.35325 0.80245 0.0
C1601 C 0.03347 0.35166 0.79531 0.0
C1602 C 0.02117 0.34991 0.73973 0.0
H1603 H 0.90997 0.35016 0.72021 0.0
H1604 H 0.94097 0.34211 0.74295 0.0
H1605 H 0.00505 0.35919 0.71108 0.0
H1606 H 0.09247 0.33925 0.77768 0.0
H1607 H 0.06229 0.32997 0.75401 0.0
H1608 H 0.99889 0.3209 0.78051 0.0
C1609 C 0.94359 0.3434 0.7259 0.0
C1610 C 0.00353 0.35005 0.72577 0.0
C1611 C 0.92576 0.34817 0.71289 0.0
C1612 C 0.07609 0.34256 0.78296 0.0
C1613 C 0.05886 0.33729 0.76939 0.0
C1614 C 0.00039 0.32892 0.76518 0.0
C1615 C 0.96457 0.34174 0.71712 0.0
C1616 C 0.98397 0.33964 0.73126 0.0
C1617 C 0.03746 0.34218 0.77529 0.0
C1618 C 0.01961 0.33975 0.75971 0.0
H1619 H 0.95182 0.35179 0.665 0.0
H1620 H 0.98267 0.34207 0.6873 0.0
H1621 H 0.96827 0.32005 0.75565 0.0
H1622 H 0.04723 0.36543 0.82369 0.0
H1623 H 0.01708 0.35573 0.8001 0.0
C1624 C 0.34655 0.94268 0.19093 0.0
C1625 C 0.34663 0.92072 0.19688 0.0
C1626 C 0.34077 0.95865 0.20568 0.0
C1627 C 0.3479 0.96994 0.26064 0.0
H1628 H 0.30987 0.01909 0.25124 0.0
C1629 C 0.35306 0.0442 0.31567 0.0
C1630 C 0.35159 0.0645 0.30562 0.0
C1631 C 0.34686 0.02537 0.30484 0.0
C1632 C 0.32071 0.00558 0.25406 0.0
H1633 H 0.33986 0.8981 0.22256 0.0
H1634 H 0.33052 0.92625 0.24867 0.0
H1635 H 0.30861 0.98819 0.2268 0.0
H1636 H 0.34196 0.08115 0.27662 0.0
H1637 H 0.33232 0.0484 0.2573 0.0
H1638 H 0.36144 0.9877 0.28664 0.0
C1639 C 0.33455 0.93096 0.23247 0.0
C1640 C 0.31978 0.98783 0.24018 0.0
C1641 C 0.33984 0.91491 0.21754 0.0
C1642 C 0.34318 0.06571 0.2848 0.0
C1643 C 0.33747 0.04686 0.27378 0.0
C1644 C 0.3492 0.98785 0.27422 0.0
C1645 C 0.33543 0.95295 0.22674 0.0
C1646 C 0.33367 0.97008 0.24315 0.0
C1647 C 0.33957 0.02636 0.2835 0.0
C1648 C 0.33598 0.00617 0.27084 0.0
H1649 H 0.35165 0.94756 0.17507 0.0
H1650 H 0.34176 0.97554 0.20098 0.0
H1651 H 0.35899 0.95653 0.26304 0.0
H1652 H 0.35921 0.04285 0.33185 0.0
H1653 H 0.34819 0.01 0.3131 0.0
C1654 C 0.05032 0.35264 0.18637 0.0
C1655 C 0.07099 0.35513 0.19539 0.0
C1656 C 0.03252 0.34785 0.19928 0.0
C1657 C 0.0163 0.33372 0.25549 0.0
H1658 H 0.96377 0.36395 0.23889 0.0
C1659 C 0.94687 0.36186 0.3118 0.0
C1660 C 0.92559 0.35756 0.30488 0.0
C1661 C 0.96455 0.35654 0.29886 0.0
C1662 C 0.97824 0.35518 0.24358 0.0
H1663 H 0.08957 0.35391 0.22476 0.0
H1664 H 0.05839 0.34685 0.24757 0.0
H1665 H 0.99479 0.36421 0.21512 0.0
H1666 H 0.90622 0.34347 0.2794 0.0
H1667 H 0.93714 0.3348 0.25659 0.0
H1668 H -0.00022 0.32615 0.28479 0.0
C1669 C 0.05585 0.34776 0.23047 0.0
C1670 C 0.99605 0.35516 0.22989 0.0
C1671 C 0.07376 0.35195 0.21743 0.0
C1672 C 0.9224 0.34701 0.28519 0.0
C1673 C 0.94005 0.34207 0.27211 0.0
C1674 C 0.99856 0.33417 0.26942 0.0
C1675 C 0.03488 0.34616 0.22163 0.0
C1676 C 0.01542 0.34456 0.23568 0.0
C1677 C 0.96121 0.34718 0.27867 0.0
C1678 C 0.97946 0.34501 0.26357 0.0
H1679 H 0.04786 0.35472 0.16934 0.0
H1680 H 0.01682 0.34602 0.19173 0.0
H1681 H 0.03074 0.32506 0.2604 0.0
H1682 H 0.94983 0.36986 0.32696 0.0
H1683 H 0.98075 0.36076 0.30416 0.0
C1684 C 0.62932 0.94738 0.30142 0.0
C1685 C 0.63913 0.92695 0.29906 0.0
C1686 C 0.63557 0.96473 0.28853 0.0
C1687 C 0.65861 0.97592 0.23591 0.0
H1688 H 0.65738 0.03518 0.25669 0.0
C1689 C 0.66028 0.0708 0.20382 0.0
C1690 C 0.64484 0.0687 0.18738 0.0
C1691 C 0.66569 0.05299 0.21659 0.0
C1692 C 0.65825 0.01874 0.25062 0.0
H1693 H 0.66381 0.90895 0.28181 0.0
H1694 H 0.67475 0.93939 0.25929 0.0
H1695 H 0.65608 0.00529 0.28206 0.0
H1696 H 0.62402 0.04591 0.17061 0.0
H1697 H 0.63317 0.01511 0.19298 0.0
H1698 H 0.6604 0.98939 0.20443 0.0
C1699 C 0.66207 0.94185 0.27101 0.0
C1700 C 0.65722 0.00162 0.26516 0.0
C1701 C 0.65583 0.92445 0.28396 0.0
C1702 C 0.63588 0.04816 0.18322 0.0
C1703 C 0.64128 0.0304 0.19595 0.0
C1704 C 0.65968 0.99305 0.22135 0.0
C1705 C 0.65179 0.9621 0.27297 0.0
C1706 C 0.65664 0.98004 0.25792 0.0
C1707 C 0.65582 0.03273 0.21312 0.0
C1708 C 0.65877 0.01465 0.22851 0.0
H1709 H 0.61644 0.94992 0.31291 0.0
H1710 H 0.62707 0.98001 0.29023 0.0
H1711 H 0.65812 0.95948 0.2298 0.0
H1712 H 0.66762 0.08636 0.20735 0.0
H1713 H 0.67716 0.05522 0.22953 0.0
C1714 C 0.95477 0.6426 0.1728 0.0
C1715 C 0.93413 0.64499 0.18195 0.0
C1716 C 0.97333 0.64865 0.1842 0.0
C1717 C 0.99181 0.67607 0.23481 0.0
H1718 H 0.04018 0.63635 0.22903 0.0
C1719 C 0.05279 0.65258 0.30096 0.0
C1720 C 0.07485 0.65168 0.29544 0.0
C1721 C 0.03719 0.65768 0.28556 0.0
C1722 C 0.02695 0.64781 0.23056 0.0
H1723 H 0.91664 0.65613 0.20992 0.0
H1724 H 0.94883 0.66554 0.23021 0.0
H1725 H 0.0098 0.63369 0.20446 0.0
H1726 H 0.09801 0.65637 0.26976 0.0
H1727 H 0.07054 0.66459 0.24265 0.0
H1728 H 0.00856 0.68889 0.26216 0.0
C1729 C 0.9509 0.65977 0.21399 0.0
C1730 C 0.00951 0.6464 0.2164 0.0
C1731 C 0.93235 0.65419 0.20241 0.0
C1732 C 0.08112 0.65702 0.27448 0.0
C1733 C 0.06546 0.66165 0.25897 0.0
C1734 C 0.00908 0.67714 0.24928 0.0
C1735 C 0.9717 0.65672 0.20521 0.0
C1736 C 0.99145 0.6602 0.21858 0.0
C1737 C 0.04336 0.66155 0.2643 0.0
C1738 C 0.0266 0.66276 0.24746 0.0
H1739 H 0.9566 0.63581 0.15693 0.0
H1740 H 0.98897 0.64657 0.17663 0.0
H1741 H 0.9785 0.68736 0.23673 0.0
H1742 H 0.04752 0.64862 0.31701 0.0
H1743 H 0.02021 0.65734 0.28999 0.0
loop_
_geom_bond_atom_site_label_1
_geom_bond_atom_site_label_2
_geom_bond_distance
_geom_bond_site_symmetry_2
_ccdc_geom_bond_type
Co0 O3 1.970 . S
Co0 N17 1.989 . S
Co0 O25 1.967 . S
Co0 O32 1.920 . S
Co1 O4 1.966 . S
Co1 N10 2.022 . S
Co1 N18 1.993 . S
Co1 O26 1.941 . S
C2 O3 1.258 . S
C2 O4 1.263 . S
O3 Co0 1.970 . S
O3 C2 1.258 . S
O4 Co1 1.966 . S
O4 C2 1.263 . S
C5 O6 1.235 . S
C5 O32 1.289 . S
O6 C5 1.235 . S
C7 C9 1.400 . S
C7 N10 1.351 . S
C7 C12 1.501 . S
C8 C9 1.387 . S
C8 N11 1.341 . S
C9 C7 1.400 . S
C9 C8 1.387 . S
N10 Co1 2.022 . S
N10 C7 1.351 . S
N10 N11 1.365 . S
N11 C8 1.341 . S
N11 N10 1.365 . S
N11 H31 0.862 . S
C12 C7 1.501 . S
C12 H13 0.961 . S
C12 H14 0.961 . S
C12 H15 0.960 . S
H13 C12 0.961 . S
H14 C12 0.961 . S
H15 C12 0.960 . S
C16 N17 1.342 . S
C16 C20 1.401 . S
C16 C21 1.499 . S
N17 Co0 1.989 . S
N17 C16 1.342 . S
N17 N18 1.388 . S
N18 Co1 1.993 . S
N18 N17 1.388 . S
N18 C19 1.346 . S
C19 N18 1.346 . S
C19 C20 1.396 . S
C19 C29 1.510 . S
C20 C16 1.401 . S
C20 C19 1.396 . S
C21 C16 1.499 . S
C21 H22 0.959 . S
C21 H23 0.960 . S
C21 H24 0.961 . S
H22 C21 0.959 . S
H23 C21 0.960 . S
H24 C21 0.961 . S
O25 Co0 1.967 . S
O25 C33 1.258 . S
O26 Co1 1.941 . S
O26 C33 1.266 . S
H27 C29 0.959 . S
H28 C29 0.961 . S
C29 C19 1.510 . S
C29 H27 0.959 . S
C29 H28 0.961 . S
C29 H30 0.960 . S
H30 C29 0.960 . S
H31 N11 0.862 . S
O32 Co0 1.920 . S
O32 C5 1.289 . S
C33 O25 1.258 . S
C33 O26 1.266 . S
Co34 O37 1.970 . S
Co34 N51 1.989 . S
Co34 O59 1.967 . S
Co34 O66 1.920 . S
Co35 O38 1.966 . S
Co35 N44 2.022 . S
Co35 N52 1.993 . S
Co35 O60 1.941 . S
C36 O37 1.258 . S
C36 O38 1.263 . S
O37 Co34 1.970 . S
O37 C36 1.258 . S
O38 Co35 1.966 . S
O38 C36 1.263 . S
C39 O40 1.235 . S
C39 O66 1.289 . S
O40 C39 1.235 . S
C41 C43 1.400 . S
C41 N44 1.351 . S
C41 C46 1.501 . S
C42 C43 1.387 . S
C42 N45 1.341 . S
C43 C41 1.400 . S
C43 C42 1.387 . S
N44 Co35 2.022 . S
N44 C41 1.351 . S
N44 N45 1.365 . S
N45 C42 1.341 . S
N45 N44 1.365 . S
N45 H65 0.862 . S
C46 C41 1.501 . S
C46 H47 0.961 . S
C46 H48 0.961 . S
C46 H49 0.960 . S
H47 C46 0.961 . S
H48 C46 0.961 . S
H49 C46 0.960 . S
C50 N51 1.342 . S
C50 C54 1.401 . S
C50 C55 1.499 . S
N51 Co34 1.989 . S
N51 C50 1.342 . S
N51 N52 1.388 . S
N52 Co35 1.993 . S
N52 N51 1.388 . S
N52 C53 1.346 . S
C53 N52 1.346 . S
C53 C54 1.396 . S
C53 C63 1.510 . S
C54 C50 1.401 . S
C54 C53 1.396 . S
C55 C50 1.499 . S
C55 H56 0.959 . S
C55 H57 0.960 . S
C55 H58 0.961 . S
H56 C55 0.959 . S
H57 C55 0.960 . S
H58 C55 0.961 . S
O59 Co34 1.967 . S
O59 C67 1.258 . S
O60 Co35 1.941 . S
O60 C67 1.266 . S
H61 C63 0.959 . S
H62 C63 0.961 . S
C63 C53 1.510 . S
C63 H61 0.959 . S
C63 H62 0.961 . S
C63 H64 0.960 . S
H64 C63 0.960 . S
H65 N45 0.862 . S
O66 Co34 1.920 . S
O66 C39 1.289 . S
C67 O59 1.258 . S
C67 O60 1.266 . S
Co68 O71 1.970 . S
Co68 N85 1.989 . S
Co68 O93 1.967 . S
Co68 O100 1.920 . S
Co69 O72 1.966 . S
Co69 N78 2.022 . S
Co69 N86 1.993 . S
Co69 O94 1.941 . S
C70 O71 1.258 . S
C70 O72 1.263 . S
O71 Co68 1.970 . S
O71 C70 1.258 . S
O72 Co69 1.966 . S
O72 C70 1.263 . S
C73 O74 1.235 . S
C73 O100 1.289 . S
O74 C73 1.235 . S
C75 C77 1.400 . S
C75 N78 1.351 . S
C75 C80 1.501 . S
C76 C77 1.387 . S
C76 N79 1.341 . S
C77 C75 1.400 . S
C77 C76 1.387 . S
N78 Co69 2.022 . S
N78 C75 1.351 . S
N78 N79 1.365 . S
N79 C76 1.341 . S
N79 N78 1.365 . S
N79 H99 0.862 . S
C80 C75 1.501 . S
C80 H81 0.961 . S
C80 H82 0.961 . S
C80 H83 0.960 . S
H81 C80 0.961 . S
H82 C80 0.961 . S
H83 C80 0.960 . S
C84 N85 1.342 . S
C84 C88 1.401 . S
C84 C89 1.499 . S
N85 Co68 1.989 . S
N85 C84 1.342 . S
N85 N86 1.388 . S
N86 Co69 1.993 . S
N86 N85 1.388 . S
N86 C87 1.346 . S
C87 N86 1.346 . S
C87 C88 1.396 . S
C87 C97 1.510 . S
C88 C84 1.401 . S
C88 C87 1.396 . S
C89 C84 1.499 . S
C89 H90 0.959 . S
C89 H91 0.960 . S
C89 H92 0.961 . S
H90 C89 0.959 . S
H91 C89 0.960 . S
H92 C89 0.961 . S
O93 Co68 1.967 . S
O93 C101 1.258 . S
O94 Co69 1.941 . S
O94 C101 1.266 . S
H95 C97 0.959 . S
H96 C97 0.961 . S
C97 C87 1.510 . S
C97 H95 0.959 . S
C97 H96 0.961 . S
C97 H98 0.960 . S
H98 C97 0.960 . S
H99 N79 0.862 . S
O100 Co68 1.920 . S
O100 C73 1.289 . S
C101 O93 1.258 . S
C101 O94 1.266 . S
Co102 O105 1.970 . S
Co102 N119 1.989 . S
Co102 O127 1.967 . S
Co102 O134 1.920 . S
Co103 O106 1.966 . S
Co103 N112 2.022 . S
Co103 N120 1.993 . S
Co103 O128 1.941 . S
C104 O105 1.258 . S
C104 O106 1.263 . S
O105 Co102 1.970 . S
O105 C104 1.258 . S
O106 Co103 1.966 . S
O106 C104 1.263 . S
C107 O108 1.235 . S
C107 O134 1.289 . S
O108 C107 1.235 . S
C109 C111 1.400 . S
C109 N112 1.351 . S
C109 C114 1.501 . S
C110 C111 1.387 . S
C110 N113 1.341 . S
C111 C109 1.400 . S
C111 C110 1.387 . S
N112 Co103 2.022 . S
N112 C109 1.351 . S
N112 N113 1.365 . S
N113 C110 1.341 . S
N113 N112 1.365 . S
N113 H133 0.862 . S
C114 C109 1.501 . S
C114 H115 0.961 . S
C114 H116 0.961 . S
C114 H117 0.960 . S
H115 C114 0.961 . S
H116 C114 0.961 . S
H117 C114 0.960 . S
C118 N119 1.342 . S
C118 C122 1.401 . S
C118 C123 1.499 . S
N119 Co102 1.989 . S
N119 C118 1.342 . S
N119 N120 1.388 . S
N120 Co103 1.993 . S
N120 N119 1.388 . S
N120 C121 1.346 . S
C121 N120 1.346 . S
C121 C122 1.396 . S
C121 C131 1.510 . S
C122 C118 1.401 . S
C122 C121 1.396 . S
C123 C118 1.499 . S
C123 H124 0.959 . S
C123 H125 0.960 . S
C123 H126 0.961 . S
H124 C123 0.959 . S
H125 C123 0.960 . S
H126 C123 0.961 . S
O127 Co102 1.967 . S
O127 C135 1.258 . S
O128 Co103 1.941 . S
O128 C135 1.266 . S
H129 C131 0.959 . S
H130 C131 0.961 . S
C131 C121 1.510 . S
C131 H129 0.959 . S
C131 H130 0.961 . S
C131 H132 0.960 . S
H132 C131 0.960 . S
H133 N113 0.862 . S
O134 Co102 1.920 . S
O134 C107 1.289 . S
C135 O127 1.258 . S
C135 O128 1.266 . S
Co136 O139 1.970 . S
Co136 N153 1.989 . S
Co136 O161 1.967 . S
Co136 O168 1.920 . S
Co137 O140 1.966 . S
Co137 N146 2.022 . S
Co137 N154 1.993 . S
Co137 O162 1.941 . S
C138 O139 1.258 . S
C138 O140 1.263 . S
O139 Co136 1.970 . S
O139 C138 1.258 . S
O140 Co137 1.966 . S
O140 C138 1.263 . S
C141 O142 1.235 . S
C141 O168 1.289 . S
O142 C141 1.235 . S
C143 C145 1.400 . S
C143 N146 1.351 . S
C143 C148 1.501 . S
C144 C145 1.387 . S
C144 N147 1.341 . S
C145 C143 1.400 . S
C145 C144 1.387 . S
N146 Co137 2.022 . S
N146 C143 1.351 . S
N146 N147 1.365 . S
N147 C144 1.341 . S
N147 N146 1.365 . S
N147 H167 0.862 . S
C148 C143 1.501 . S
C148 H149 0.961 . S
C148 H150 0.961 . S
C148 H151 0.960 . S
H149 C148 0.961 . S
H150 C148 0.961 . S
H151 C148 0.960 . S
C152 N153 1.342 . S
C152 C156 1.401 . S
C152 C157 1.499 . S
N153 Co136 1.989 . S
N153 C152 1.342 . S
N153 N154 1.388 . S
N154 Co137 1.993 . S
N154 N153 1.388 . S
N154 C155 1.346 . S
C155 N154 1.346 . S
C155 C156 1.396 . S
C155 C165 1.510 . S
C156 C152 1.401 . S
C156 C155 1.396 . S
C157 C152 1.499 . S
C157 H158 0.959 . S
C157 H159 0.960 . S
C157 H160 0.961 . S
H158 C157 0.959 . S
H159 C157 0.960 . S
H160 C157 0.961 . S
O161 Co136 1.967 . S
O161 C169 1.258 . S
O162 Co137 1.941 . S
O162 C169 1.266 . S
H163 C165 0.959 . S
H164 C165 0.961 . S
C165 C155 1.510 . S
C165 H163 0.959 . S
C165 H164 0.961 . S
C165 H166 0.960 . S
H166 C165 0.960 . S
H167 N147 0.862 . S
O168 Co136 1.920 . S
O168 C141 1.289 . S
C169 O161 1.258 . S
C169 O162 1.266 . S
Co170 O173 1.970 . S
Co170 N187 1.989 . S
Co170 O195 1.967 . S
Co170 O202 1.920 . S
Co171 O174 1.966 . S
Co171 N180 2.022 . S
Co171 N188 1.993 . S
Co171 O196 1.941 . S
C172 O173 1.258 . S
C172 O174 1.263 . S
O173 Co170 1.970 . S
O173 C172 1.258 . S
O174 Co171 1.966 . S
O174 C172 1.263 . S
C175 O176 1.235 . S
C175 O202 1.289 . S
O176 C175 1.235 . S
C177 C179 1.400 . S
C177 N180 1.351 . S
C177 C182 1.501 . S
C178 C179 1.387 . S
C178 N181 1.341 . S
C179 C177 1.400 . S
C179 C178 1.387 . S
N180 Co171 2.022 . S
N180 C177 1.351 . S
N180 N181 1.365 . S
N181 C178 1.341 . S
N181 N180 1.365 . S
N181 H201 0.862 . S
C182 C177 1.501 . S
C182 H183 0.961 . S
C182 H184 0.961 . S
C182 H185 0.960 . S
H183 C182 0.961 . S
H184 C182 0.961 . S
H185 C182 0.960 . S
C186 N187 1.342 . S
C186 C190 1.401 . S
C186 C191 1.499 . S
N187 Co170 1.989 . S
N187 C186 1.342 . S
N187 N188 1.388 . S
N188 Co171 1.993 . S
N188 N187 1.388 . S
N188 C189 1.346 . S
C189 N188 1.346 . S
C189 C190 1.396 . S
C189 C199 1.510 . S
C190 C186 1.401 . S
C190 C189 1.396 . S
C191 C186 1.499 . S
C191 H192 0.959 . S
C191 H193 0.960 . S
C191 H194 0.961 . S
H192 C191 0.959 . S
H193 C191 0.960 . S
H194 C191 0.961 . S
O195 Co170 1.967 . S
O195 C203 1.258 . S
O196 Co171 1.941 . S
O196 C203 1.266 . S
H197 C199 0.959 . S
H198 C199 0.961 . S
C199 C189 1.510 . S
C199 H197 0.959 . S
C199 H198 0.961 . S
C199 H200 0.960 . S
H200 C199 0.960 . S
H201 N181 0.862 . S
O202 Co170 1.920 . S
O202 C175 1.289 . S
C203 O195 1.258 . S
C203 O196 1.266 . S
Co204 O207 1.970 . S
Co204 N221 1.989 . S
Co204 O229 1.967 . S
Co204 O236 1.920 . S
Co205 O208 1.966 . S
Co205 N214 2.022 . S
Co205 N222 1.993 . S
Co205 O230 1.941 . S
C206 O207 1.258 . S
C206 O208 1.263 . S
O207 Co204 1.970 . S
O207 C206 1.258 . S
O208 Co205 1.966 . S
O208 C206 1.263 . S
C209 O210 1.235 . S
C209 O236 1.289 . S
O210 C209 1.235 . S
C211 C213 1.400 . S
C211 N214 1.351 . S
C211 C216 1.501 . S
C212 C213 1.387 . S
C212 N215 1.341 . S
C213 C211 1.400 . S
C213 C212 1.387 . S
N214 Co205 2.022 . S
N214 C211 1.351 . S
N214 N215 1.365 . S
N215 C212 1.341 . S
N215 N214 1.365 . S
N215 H235 0.862 . S
C216 C211 1.501 . S
C216 H217 0.961 . S
C216 H218 0.961 . S
C216 H219 0.960 . S
H217 C216 0.961 . S
H218 C216 0.961 . S
H219 C216 0.960 . S
C220 N221 1.342 . S
C220 C224 1.401 . S
C220 C225 1.499 . S
N221 Co204 1.989 . S
N221 C220 1.342 . S
N221 N222 1.388 . S
N222 Co205 1.993 . S
N222 N221 1.388 . S
N222 C223 1.346 . S
C223 N222 1.346 . S
C223 C224 1.396 . S
C223 C233 1.510 . S
C224 C220 1.401 . S
C224 C223 1.396 . S
C225 C220 1.499 . S
C225 H226 0.959 . S
C225 H227 0.960 . S
C225 H228 0.961 . S
H226 C225 0.959 . S
H227 C225 0.960 . S
H228 C225 0.961 . S
O229 Co204 1.967 . S
O229 C237 1.258 . S
O230 Co205 1.941 . S
O230 C237 1.266 . S
H231 C233 0.959 . S
H232 C233 0.961 . S
C233 C223 1.510 . S
C233 H231 0.959 . S
C233 H232 0.961 . S
C233 H234 0.960 . S
H234 C233 0.960 . S
H235 N215 0.862 . S
O236 Co204 1.920 . S
O236 C209 1.289 . S
C237 O229 1.258 . S
C237 O230 1.266 . S
Co238 O241 1.970 . S
Co238 N255 1.989 . S
Co238 O263 1.967 . S
Co238 O270 1.920 . S
Co239 O242 1.966 . S
Co239 N248 2.022 . S
Co239 N256 1.993 . S
Co239 O264 1.941 . S
C240 O241 1.258 . S
C240 O242 1.263 . S
O241 Co238 1.970 . S
O241 C240 1.258 . S
O242 Co239 1.966 . S
O242 C240 1.263 . S
C243 O244 1.235 . S
C243 O270 1.289 . S
O244 C243 1.235 . S
C245 C247 1.400 . S
C245 N248 1.351 . S
C245 C250 1.501 . S
C246 C247 1.387 . S
C246 N249 1.341 . S
C247 C245 1.400 . S
C247 C246 1.387 . S
N248 Co239 2.022 . S
N248 C245 1.351 . S
N248 N249 1.365 . S
N249 C246 1.341 . S
N249 N248 1.365 . S
N249 H269 0.862 . S
C250 C245 1.501 . S
C250 H251 0.961 . S
C250 H252 0.961 . S
C250 H253 0.960 . S
H251 C250 0.961 . S
H252 C250 0.961 . S
H253 C250 0.960 . S
C254 N255 1.342 . S
C254 C258 1.401 . S
C254 C259 1.499 . S
N255 Co238 1.989 . S
N255 C254 1.342 . S
N255 N256 1.388 . S
N256 Co239 1.993 . S
N256 N255 1.388 . S
N256 C257 1.346 . S
C257 N256 1.346 . S
C257 C258 1.396 . S
C257 C267 1.510 . S
C258 C254 1.401 . S
C258 C257 1.396 . S
C259 C254 1.499 . S
C259 H260 0.959 . S
C259 H261 0.960 . S
C259 H262 0.961 . S
H260 C259 0.959 . S
H261 C259 0.960 . S
H262 C259 0.961 . S
O263 Co238 1.967 . S
O263 C271 1.258 . S
O264 Co239 1.941 . S
O264 C271 1.266 . S
H265 C267 0.959 . S
H266 C267 0.961 . S
C267 C257 1.510 . S
C267 H265 0.959 . S
C267 H266 0.961 . S
C267 H268 0.960 . S
H268 C267 0.960 . S
H269 N249 0.862 . S
O270 Co238 1.920 . S
O270 C243 1.289 . S
C271 O263 1.258 . S
C271 O264 1.266 . S
Co272 O275 1.970 . S
Co272 N289 1.989 . S
Co272 O297 1.967 . S
Co272 O304 1.920 . S
Co273 O276 1.966 . S
Co273 N282 2.022 . S
Co273 N290 1.993 . S
Co273 O298 1.941 . S
C274 O275 1.258 . S
C274 O276 1.263 . S
O275 Co272 1.970 . S
O275 C274 1.258 . S
O276 Co273 1.966 . S
O276 C274 1.263 . S
C277 O278 1.235 . S
C277 O304 1.289 . S
O278 C277 1.235 . S
C279 C281 1.400 . S
C279 N282 1.351 . S
C279 C284 1.501 . S
C280 C281 1.387 . S
C280 N283 1.341 . S
C281 C279 1.400 . S
C281 C280 1.387 . S
N282 Co273 2.022 . S
N282 C279 1.351 . S
N282 N283 1.365 . S
N283 C280 1.341 . S
N283 N282 1.365 . S
N283 H303 0.862 . S
C284 C279 1.501 . S
C284 H285 0.961 . S
C284 H286 0.961 . S
C284 H287 0.960 . S
H285 C284 0.961 . S
H286 C284 0.961 . S
H287 C284 0.960 . S
C288 N289 1.342 . S
C288 C292 1.401 . S
C288 C293 1.499 . S
N289 Co272 1.989 . S
N289 C288 1.342 . S
N289 N290 1.388 . S
N290 Co273 1.993 . S
N290 N289 1.388 . S
N290 C291 1.346 . S
C291 N290 1.346 . S
C291 C292 1.396 . S
C291 C301 1.510 . S
C292 C288 1.401 . S
C292 C291 1.396 . S
C293 C288 1.499 . S
C293 H294 0.959 . S
C293 H295 0.960 . S
C293 H296 0.961 . S
H294 C293 0.959 . S
H295 C293 0.960 . S
H296 C293 0.961 . S
O297 Co272 1.967 . S
O297 C305 1.258 . S
O298 Co273 1.941 . S
O298 C305 1.266 . S
H299 C301 0.959 . S
H300 C301 0.961 . S
C301 C291 1.510 . S
C301 H299 0.959 . S
C301 H300 0.961 . S
C301 H302 0.960 . S
H302 C301 0.960 . S
H303 N283 0.862 . S
O304 Co272 1.920 . S
O304 C277 1.289 . S
C305 O297 1.258 . S
C305 O298 1.266 . S
Co306 O309 1.970 . S
Co306 N323 1.989 . S
Co306 O331 1.967 . S
Co306 O338 1.920 . S
Co307 O310 1.966 . S
Co307 N316 2.022 . S
Co307 N324 1.993 . S
Co307 O332 1.941 . S
C308 O309 1.258 . S
C308 O310 1.263 . S
O309 Co306 1.970 . S
O309 C308 1.258 . S
O310 Co307 1.966 . S
O310 C308 1.263 . S
C311 O312 1.235 . S
C311 O338 1.289 . S
O312 C311 1.235 . S
C313 C315 1.400 . S
C313 N316 1.351 . S
C313 C318 1.501 . S
C314 C315 1.387 . S
C314 N317 1.341 . S
C315 C313 1.400 . S
C315 C314 1.387 . S
N316 Co307 2.022 . S
N316 C313 1.351 . S
N316 N317 1.365 . S
N317 C314 1.341 . S
N317 N316 1.365 . S
N317 H337 0.862 . S
C318 C313 1.501 . S
C318 H319 0.961 . S
C318 H320 0.961 . S
C318 H321 0.960 . S
H319 C318 0.961 . S
H320 C318 0.961 . S
H321 C318 0.960 . S
C322 N323 1.342 . S
C322 C326 1.401 . S
C322 C327 1.499 . S
N323 Co306 1.989 . S
N323 C322 1.342 . S
N323 N324 1.388 . S
N324 Co307 1.993 . S
N324 N323 1.388 . S
N324 C325 1.346 . S
C325 N324 1.346 . S
C325 C326 1.396 . S
C325 C335 1.510 . S
C326 C322 1.401 . S
C326 C325 1.396 . S
C327 C322 1.499 . S
C327 H328 0.959 . S
C327 H329 0.960 . S
C327 H330 0.961 . S
H328 C327 0.959 . S
H329 C327 0.960 . S
H330 C327 0.961 . S
O331 Co306 1.967 . S
O331 C339 1.258 . S
O332 Co307 1.941 . S
O332 C339 1.266 . S
H333 C335 0.959 . S
H334 C335 0.961 . S
C335 C325 1.510 . S
C335 H333 0.959 . S
C335 H334 0.961 . S
C335 H336 0.960 . S
H336 C335 0.960 . S
H337 N317 0.862 . S
O338 Co306 1.920 . S
O338 C311 1.289 . S
C339 O331 1.258 . S
C339 O332 1.266 . S
Co340 O343 1.970 . S
Co340 N357 1.989 . S
Co340 O365 1.967 . S
Co340 O372 1.920 . S
Co341 O344 1.966 . S
Co341 N350 2.022 . S
Co341 N358 1.993 . S
Co341 O366 1.941 . S
C342 O343 1.258 . S
C342 O344 1.263 . S
O343 Co340 1.970 . S
O343 C342 1.258 . S
O344 Co341 1.966 . S
O344 C342 1.263 . S
C345 O346 1.235 . S
C345 O372 1.289 . S
O346 C345 1.235 . S
C347 C349 1.400 . S
C347 N350 1.351 . S
C347 C352 1.501 . S
C348 C349 1.387 . S
C348 N351 1.341 . S
C349 C347 1.400 . S
C349 C348 1.387 . S
N350 Co341 2.022 . S
N350 C347 1.351 . S
N350 N351 1.365 . S
N351 C348 1.341 . S
N351 N350 1.365 . S
N351 H371 0.862 . S
C352 C347 1.501 . S
C352 H353 0.961 . S
C352 H354 0.961 . S
C352 H355 0.960 . S
H353 C352 0.961 . S
H354 C352 0.961 . S
H355 C352 0.960 . S
C356 N357 1.342 . S
C356 C360 1.401 . S
C356 C361 1.499 . S
N357 Co340 1.989 . S
N357 C356 1.342 . S
N357 N358 1.388 . S
N358 Co341 1.993 . S
N358 N357 1.388 . S
N358 C359 1.346 . S
C359 N358 1.346 . S
C359 C360 1.396 . S
C359 C369 1.510 . S
C360 C356 1.401 . S
C360 C359 1.396 . S
C361 C356 1.499 . S
C361 H362 0.959 . S
C361 H363 0.960 . S
C361 H364 0.961 . S
H362 C361 0.959 . S
H363 C361 0.960 . S
H364 C361 0.961 . S
O365 Co340 1.967 . S
O365 C373 1.258 . S
O366 Co341 1.941 . S
O366 C373 1.266 . S
H367 C369 0.959 . S
H368 C369 0.961 . S
C369 C359 1.510 . S
C369 H367 0.959 . S
C369 H368 0.961 . S
C369 H370 0.960 . S
H370 C369 0.960 . S
H371 N351 0.862 . S
O372 Co340 1.920 . S
O372 C345 1.289 . S
C373 O365 1.258 . S
C373 O366 1.266 . S
Co374 O377 1.970 . S
Co374 N391 1.989 . S
Co374 O399 1.967 . S
Co374 O406 1.920 . S
Co375 O378 1.966 . S
Co375 N384 2.022 . S
Co375 N392 1.993 . S
Co375 O400 1.941 . S
C376 O377 1.258 . S
C376 O378 1.263 . S
O377 Co374 1.970 . S
O377 C376 1.258 . S
O378 Co375 1.966 . S
O378 C376 1.263 . S
C379 O380 1.235 . S
C379 O406 1.289 . S
O380 C379 1.235 . S
C381 C383 1.400 . S
C381 N384 1.351 . S
C381 C386 1.501 . S
C382 C383 1.387 . S
C382 N385 1.341 . S
C383 C381 1.400 . S
C383 C382 1.387 . S
N384 Co375 2.022 . S
N384 C381 1.351 . S
N384 N385 1.365 . S
N385 C382 1.341 . S
N385 N384 1.365 . S
N385 H405 0.862 . S
C386 C381 1.501 . S
C386 H387 0.961 . S
C386 H388 0.961 . S
C386 H389 0.960 . S
H387 C386 0.961 . S
H388 C386 0.961 . S
H389 C386 0.960 . S
C390 N391 1.342 . S
C390 C394 1.401 . S
C390 C395 1.499 . S
N391 Co374 1.989 . S
N391 C390 1.342 . S
N391 N392 1.388 . S
N392 Co375 1.993 . S
N392 N391 1.388 . S
N392 C393 1.346 . S
C393 N392 1.346 . S
C393 C394 1.396 . S
C393 C403 1.510 . S
C394 C390 1.401 . S
C394 C393 1.396 . S
C395 C390 1.499 . S
C395 H396 0.959 . S
C395 H397 0.960 . S
C395 H398 0.961 . S
H396 C395 0.959 . S
H397 C395 0.960 . S
H398 C395 0.961 . S
O399 Co374 1.967 . S
O399 C407 1.258 . S
O400 Co375 1.941 . S
O400 C407 1.266 . S
H401 C403 0.959 . S
H402 C403 0.961 . S
C403 C393 1.510 . S
C403 H401 0.959 . S
C403 H402 0.961 . S
C403 H404 0.960 . S
H404 C403 0.960 . S
H405 N385 0.862 . S
O406 Co374 1.920 . S
O406 C379 1.289 . S
C407 O399 1.258 . S
C407 O400 1.266 . S
Co408 O411 1.970 . S
Co408 N425 1.989 . S
Co408 O433 1.967 . S
Co408 O440 1.920 . S
Co409 O412 1.966 . S
Co409 N418 2.022 . S
Co409 N426 1.993 . S
Co409 O434 1.941 . S
C410 O411 1.258 . S
C410 O412 1.263 . S
O411 Co408 1.970 . S
O411 C410 1.258 . S
O412 Co409 1.966 . S
O412 C410 1.263 . S
C413 O414 1.235 . S
C413 O440 1.289 . S
O414 C413 1.235 . S
C415 C417 1.400 . S
C415 N418 1.351 . S
C415 C420 1.501 . S
C416 C417 1.387 . S
C416 N419 1.341 . S
C417 C415 1.400 . S
C417 C416 1.387 . S
N418 Co409 2.022 . S
N418 C415 1.351 . S
N418 N419 1.365 . S
N419 C416 1.341 . S
N419 N418 1.365 . S
N419 H439 0.862 . S
C420 C415 1.501 . S
C420 H421 0.961 . S
C420 H422 0.961 . S
C420 H423 0.960 . S
H421 C420 0.961 . S
H422 C420 0.961 . S
H423 C420 0.960 . S
C424 N425 1.342 . S
C424 C428 1.401 . S
C424 C429 1.499 . S
N425 Co408 1.989 . S
N425 C424 1.342 . S
N425 N426 1.388 . S
N426 Co409 1.993 . S
N426 N425 1.388 . S
N426 C427 1.346 . S
C427 N426 1.346 . S
C427 C428 1.396 . S
C427 C437 1.510 . S
C428 C424 1.401 . S
C428 C427 1.396 . S
C429 C424 1.499 . S
C429 H430 0.959 . S
C429 H431 0.960 . S
C429 H432 0.961 . S
H430 C429 0.959 . S
H431 C429 0.960 . S
H432 C429 0.961 . S
O433 Co408 1.967 . S
O433 C441 1.258 . S
O434 Co409 1.941 . S
O434 C441 1.266 . S
H435 C437 0.959 . S
H436 C437 0.961 . S
C437 C427 1.510 . S
C437 H435 0.959 . S
C437 H436 0.961 . S
C437 H438 0.960 . S
H438 C437 0.960 . S
H439 N419 0.862 . S
O440 Co408 1.920 . S
O440 C413 1.289 . S
C441 O433 1.258 . S
C441 O434 1.266 . S
Co442 O445 1.970 . S
Co442 N459 1.989 . S
Co442 O467 1.967 . S
Co442 O474 1.920 . S
Co443 O446 1.966 . S
Co443 N452 2.022 . S
Co443 N460 1.993 . S
Co443 O468 1.941 . S
C444 O445 1.258 . S
C444 O446 1.263 . S
O445 Co442 1.970 . S
O445 C444 1.258 . S
O446 Co443 1.966 . S
O446 C444 1.263 . S
C447 O448 1.235 . S
C447 O474 1.289 . S
O448 C447 1.235 . S
C449 C451 1.400 . S
C449 N452 1.351 . S
C449 C454 1.501 . S
C450 C451 1.387 . S
C450 N453 1.341 . S
C451 C449 1.400 . S
C451 C450 1.387 . S
N452 Co443 2.022 . S
N452 C449 1.351 . S
N452 N453 1.365 . S
N453 C450 1.341 . S
N453 N452 1.365 . S
N453 H473 0.862 . S
C454 C449 1.501 . S
C454 H455 0.961 . S
C454 H456 0.961 . S
C454 H457 0.960 . S
H455 C454 0.961 . S
H456 C454 0.961 . S
H457 C454 0.960 . S
C458 N459 1.342 . S
C458 C462 1.401 . S
C458 C463 1.499 . S
N459 Co442 1.989 . S
N459 C458 1.342 . S
N459 N460 1.388 . S
N460 Co443 1.993 . S
N460 N459 1.388 . S
N460 C461 1.346 . S
C461 N460 1.346 . S
C461 C462 1.396 . S
C461 C471 1.510 . S
C462 C458 1.401 . S
C462 C461 1.396 . S
C463 C458 1.499 . S
C463 H464 0.959 . S
C463 H465 0.960 . S
C463 H466 0.961 . S
H464 C463 0.959 . S
H465 C463 0.960 . S
H466 C463 0.961 . S
O467 Co442 1.967 . S
O467 C475 1.258 . S
O468 Co443 1.941 . S
O468 C475 1.266 . S
H469 C471 0.959 . S
H470 C471 0.961 . S
C471 C461 1.510 . S
C471 H469 0.959 . S
C471 H470 0.961 . S
C471 H472 0.960 . S
H472 C471 0.960 . S
H473 N453 0.862 . S
O474 Co442 1.920 . S
O474 C447 1.289 . S
C475 O467 1.258 . S
C475 O468 1.266 . S
Co476 O479 1.970 . S
Co476 N493 1.989 . S
Co476 O501 1.967 . S
Co476 O508 1.920 . S
Co477 O480 1.966 . S
Co477 N486 2.022 . S
Co477 N494 1.993 . S
Co477 O502 1.941 . S
C478 O479 1.258 . S
C478 O480 1.263 . S
O479 Co476 1.970 . S
O479 C478 1.258 . S
O480 Co477 1.966 . S
O480 C478 1.263 . S
C481 O482 1.235 . S
C481 O508 1.289 . S
O482 C481 1.235 . S
C483 C485 1.400 . S
C483 N486 1.351 . S
C483 C488 1.501 . S
C484 C485 1.387 . S
C484 N487 1.341 . S
C485 C483 1.400 . S
C485 C484 1.387 . S
N486 Co477 2.022 . S
N486 C483 1.351 . S
N486 N487 1.365 . S
N487 C484 1.341 . S
N487 N486 1.365 . S
N487 H507 0.862 . S
C488 C483 1.501 . S
C488 H489 0.961 . S
C488 H490 0.961 . S
C488 H491 0.960 . S
H489 C488 0.961 . S
H490 C488 0.961 . S
H491 C488 0.960 . S
C492 N493 1.342 . S
C492 C496 1.401 . S
C492 C497 1.499 . S
N493 Co476 1.989 . S
N493 C492 1.342 . S
N493 N494 1.388 . S
N494 Co477 1.993 . S
N494 N493 1.388 . S
N494 C495 1.346 . S
C495 N494 1.346 . S
C495 C496 1.396 . S
C495 C505 1.510 . S
C496 C492 1.401 . S
C496 C495 1.396 . S
C497 C492 1.499 . S
C497 H498 0.959 . S
C497 H499 0.960 . S
C497 H500 0.961 . S
H498 C497 0.959 . S
H499 C497 0.960 . S
H500 C497 0.961 . S
O501 Co476 1.967 . S
O501 C509 1.258 . S
O502 Co477 1.941 . S
O502 C509 1.266 . S
H503 C505 0.959 . S
H504 C505 0.961 . S
C505 C495 1.510 . S
C505 H503 0.959 . S
C505 H504 0.961 . S
C505 H506 0.960 . S
H506 C505 0.960 . S
H507 N487 0.862 . S
O508 Co476 1.920 . S
O508 C481 1.289 . S
C509 O501 1.258 . S
C509 O502 1.266 . S
Co510 O513 1.970 . S
Co510 N527 1.989 . S
Co510 O535 1.967 . S
Co510 O542 1.920 . S
Co511 O514 1.966 . S
Co511 N520 2.022 . S
Co511 N528 1.993 . S
Co511 O536 1.941 . S
C512 O513 1.258 . S
C512 O514 1.263 . S
O513 Co510 1.970 . S
O513 C512 1.258 . S
O514 Co511 1.966 . S
O514 C512 1.263 . S
C515 O516 1.235 . S
C515 O542 1.289 . S
O516 C515 1.235 . S
C517 C519 1.400 . S
C517 N520 1.351 . S
C517 C522 1.501 . S
C518 C519 1.387 . S
C518 N521 1.341 . S
C519 C517 1.400 . S
C519 C518 1.387 . S
N520 Co511 2.022 . S
N520 C517 1.351 . S
N520 N521 1.365 . S
N521 C518 1.341 . S
N521 N520 1.365 . S
N521 H541 0.862 . S
C522 C517 1.501 . S
C522 H523 0.961 . S
C522 H524 0.961 . S
C522 H525 0.960 . S
H523 C522 0.961 . S
H524 C522 0.961 . S
H525 C522 0.960 . S
C526 N527 1.342 . S
C526 C530 1.401 . S
C526 C531 1.499 . S
N527 Co510 1.989 . S
N527 C526 1.342 . S
N527 N528 1.388 . S
N528 Co511 1.993 . S
N528 N527 1.388 . S
N528 C529 1.346 . S
C529 N528 1.346 . S
C529 C530 1.396 . S
C529 C539 1.510 . S
C530 C526 1.401 . S
C530 C529 1.396 . S
C531 C526 1.499 . S
C531 H532 0.959 . S
C531 H533 0.960 . S
C531 H534 0.961 . S
H532 C531 0.959 . S
H533 C531 0.960 . S
H534 C531 0.961 . S
O535 Co510 1.967 . S
O535 C543 1.258 . S
O536 Co511 1.941 . S
O536 C543 1.266 . S
H537 C539 0.959 . S
H538 C539 0.961 . S
C539 C529 1.510 . S
C539 H537 0.959 . S
C539 H538 0.961 . S
C539 H540 0.960 . S
H540 C539 0.960 . S
H541 N521 0.862 . S
O542 Co510 1.920 . S
O542 C515 1.289 . S
C543 O535 1.258 . S
C543 O536 1.266 . S
C544 C545 1.349 . S
C544 C546 1.327 . S
C544 H569 0.950 . S
C545 C544 1.349 . S
C545 C561 1.349 . S
C546 C544 1.327 . S
C546 C565 1.429 . S
C546 H570 0.950 . S
C547 C564 1.574 1_655 S
C547 C566 1.368 . S
C547 H571 0.949 . S
H548 C552 0.949 . S
C549 C550 1.349 . S
C549 C551 1.327 . S
C549 H572 0.950 . S
C550 C549 1.349 . S
C550 C562 1.349 . S
C551 C549 1.327 . S
C551 C567 1.429 . S
C551 H573 0.950 . S
C552 H548 0.949 . S
C552 C560 1.574 1_455 S
C552 C568 1.368 . S
H553 C561 0.950 . S
H554 C559 0.950 . S
H555 C560 0.949 . S
H556 C562 0.950 . S
H557 C563 0.950 . S
H558 C564 0.949 . S
C559 H554 0.950 . S
C559 C561 1.327 . S
C559 C565 1.429 . S
C560 C552 1.574 1_655 S
C560 H555 0.949 . S
C560 C566 1.368 . S
C561 C545 1.349 . S
C561 H553 0.950 . S
C561 C559 1.327 . S
C562 C550 1.349 . S
C562 H556 0.950 . S
C562 C563 1.327 . S
C563 H557 0.950 . S
C563 C562 1.327 . S
C563 C567 1.429 . S
C564 C547 1.574 1_455 S
C564 H558 0.949 . S
C564 C568 1.368 . S
C565 C546 1.429 . S
C565 C559 1.429 . S
C565 C566 1.523 . S
C566 C547 1.368 . S
C566 C560 1.368 . S
C566 C565 1.523 . S
C567 C551 1.429 . S
C567 C563 1.429 . S
C567 C568 1.523 . S
C568 C552 1.368 . S
C568 C564 1.368 . S
C568 C567 1.523 . S
H569 C544 0.950 . S
H570 C546 0.950 . S
H571 C547 0.949 . S
H572 C549 0.950 . S
H573 C551 0.950 . S
C574 C575 1.349 . S
C574 C576 1.327 . S
C574 H599 0.950 . S
C575 C574 1.349 . S
C575 C591 1.349 . S
C576 C574 1.327 . S
C576 C595 1.429 . S
C576 H600 0.950 . S
C577 C594 1.574 1_545 S
C577 C596 1.368 . S
C577 H601 0.949 . S
H578 C582 0.949 . S
C579 C580 1.349 . S
C579 C581 1.327 . S
C579 H602 0.950 . S
C580 C579 1.349 . S
C580 C592 1.349 . S
C581 C579 1.327 . S
C581 C597 1.429 . S
C581 H603 0.950 . S
C582 H578 0.949 . S
C582 C590 1.574 1_565 S
C582 C598 1.368 . S
H583 C591 0.950 . S
H584 C589 0.950 . S
H585 C590 0.949 . S
H586 C592 0.950 . S
H587 C593 0.950 . S
H588 C594 0.949 . S
C589 H584 0.950 . S
C589 C591 1.327 . S
C589 C595 1.429 . S
C590 C582 1.574 1_545 S
C590 H585 0.949 . S
C590 C596 1.368 . S
C591 C575 1.349 . S
C591 H583 0.950 . S
C591 C589 1.327 . S
C592 C580 1.349 . S
C592 H586 0.950 . S
C592 C593 1.327 . S
C593 H587 0.950 . S
C593 C592 1.327 . S
C593 C597 1.429 . S
C594 C577 1.574 1_565 S
C594 H588 0.949 . S
C594 C598 1.368 . S
C595 C576 1.429 . S
C595 C589 1.429 . S
C595 C596 1.523 . S
C596 C577 1.368 . S
C596 C590 1.368 . S
C596 C595 1.523 . S
C597 C581 1.429 . S
C597 C593 1.429 . S
C597 C598 1.523 . S
C598 C582 1.368 . S
C598 C594 1.368 . S
C598 C597 1.523 . S
H599 C574 0.950 . S
H600 C576 0.950 . S
H601 C577 0.949 . S
H602 C579 0.950 . S
H603 C581 0.950 . S
C604 C605 1.349 . S
C604 C606 1.327 . S
C604 H629 0.950 . S
C605 C604 1.349 . S
C605 C621 1.349 . S
C606 C604 1.327 . S
C606 C625 1.429 . S
C606 H630 0.950 . S
C607 C624 1.574 1_655 S
C607 C626 1.368 . S
C607 H631 0.949 . S
H608 C612 0.949 . S
C609 C610 1.349 . S
C609 C611 1.327 . S
C609 H632 0.950 . S
C610 C609 1.349 . S
C610 C622 1.349 . S
C611 C609 1.327 . S
C611 C627 1.429 . S
C611 H633 0.950 . S
C612 H608 0.949 . S
C612 C620 1.574 1_455 S
C612 C628 1.368 . S
H613 C621 0.950 . S
H614 C619 0.950 . S
H615 C620 0.949 . S
H616 C622 0.950 . S
H617 C623 0.950 . S
H618 C624 0.949 . S
C619 H614 0.950 . S
C619 C621 1.327 . S
C619 C625 1.429 . S
C620 C612 1.574 1_655 S
C620 H615 0.949 . S
C620 C626 1.368 . S
C621 C605 1.349 . S
C621 H613 0.950 . S
C621 C619 1.327 . S
C622 C610 1.349 . S
C622 H616 0.950 . S
C622 C623 1.327 . S
C623 H617 0.950 . S
C623 C622 1.327 . S
C623 C627 1.429 . S
C624 C607 1.574 1_455 S
C624 H618 0.949 . S
C624 C628 1.368 . S
C625 C606 1.429 . S
C625 C619 1.429 . S
C625 C626 1.523 . S
C626 C607 1.368 . S
C626 C620 1.368 . S
C626 C625 1.523 . S
C627 C611 1.429 . S
C627 C623 1.429 . S
C627 C628 1.523 . S
C628 C612 1.368 . S
C628 C624 1.368 . S
C628 C627 1.523 . S
H629 C604 0.950 . S
H630 C606 0.950 . S
H631 C607 0.949 . S
H632 C609 0.950 . S
H633 C611 0.950 . S
C634 C635 1.349 . S
C634 C636 1.327 . S
C634 H659 0.950 . S
C635 C634 1.349 . S
C635 C651 1.349 . S
C636 C634 1.327 . S
C636 C655 1.429 . S
C636 H660 0.950 . S
C637 C654 1.574 1_565 S
C637 C656 1.368 . S
C637 H661 0.949 . S
H638 C642 0.949 . S
C639 C640 1.349 . S
C639 C641 1.327 . S
C639 H662 0.950 . S
C640 C639 1.349 . S
C640 C652 1.349 . S
C641 C639 1.327 . S
C641 C657 1.429 . S
C641 H663 0.950 . S
C642 H638 0.949 . S
C642 C650 1.574 1_545 S
C642 C658 1.368 . S
H643 C651 0.950 . S
H644 C649 0.950 . S
H645 C650 0.949 . S
H646 C652 0.950 . S
H647 C653 0.950 . S
H648 C654 0.949 . S
C649 H644 0.950 . S
C649 C651 1.327 . S
C649 C655 1.429 . S
C650 C642 1.574 1_565 S
C650 H645 0.949 . S
C650 C656 1.368 . S
C651 C635 1.349 . S
C651 H643 0.950 . S
C651 C649 1.327 . S
C652 C640 1.349 . S
C652 H646 0.950 . S
C652 C653 1.327 . S
C653 H647 0.950 . S
C653 C652 1.327 . S
C653 C657 1.429 . S
C654 C637 1.574 1_545 S
C654 H648 0.949 . S
C654 C658 1.368 . S
C655 C636 1.429 . S
C655 C649 1.429 . S
C655 C656 1.523 . S
C656 C637 1.368 . S
C656 C650 1.368 . S
C656 C655 1.523 . S
C657 C641 1.429 . S
C657 C653 1.429 . S
C657 C658 1.523 . S
C658 C642 1.368 . S
C658 C654 1.368 . S
C658 C657 1.523 . S
H659 C634 0.950 . S
H660 C636 0.950 . S
H661 C637 0.949 . S
H662 C639 0.950 . S
H663 C641 0.950 . S
C664 C665 1.349 . S
C664 C666 1.327 . S
C664 H689 0.950 . S
C665 C664 1.349 . S
C665 C681 1.349 . S
C666 C664 1.327 . S
C666 C685 1.429 . S
C666 H690 0.950 . S
C667 C684 1.574 . S
C667 C686 1.368 . S
C667 H691 0.949 . S
H668 C672 0.949 . S
C669 C670 1.349 . S
C669 C671 1.327 . S
C669 H692 0.950 . S
C670 C669 1.349 . S
C670 C682 1.349 . S
C671 C669 1.327 . S
C671 C687 1.429 . S
C671 H693 0.950 . S
C672 H668 0.949 . S
C672 C680 1.574 . S
C672 C688 1.368 . S
H673 C681 0.950 . S
H674 C679 0.950 . S
H675 C680 0.949 . S
H676 C682 0.950 . S
H677 C683 0.950 . S
H678 C684 0.949 . S
C679 H674 0.950 . S
C679 C681 1.327 . S
C679 C685 1.429 . S
C680 C672 1.574 . S
C680 H675 0.949 . S
C680 C686 1.368 1_455 S
C681 C665 1.349 . S
C681 H673 0.950 . S
C681 C679 1.327 . S
C682 C670 1.349 . S
C682 H676 0.950 . S
C682 C683 1.327 . S
C683 H677 0.950 . S
C683 C682 1.327 . S
C683 C687 1.429 . S
C684 C667 1.574 . S
C684 H678 0.949 . S
C684 C688 1.368 1_655 S
C685 C666 1.429 . S
C685 C679 1.429 . S
C685 C686 1.523 . S
C686 C667 1.368 . S
C686 C680 1.368 1_655 S
C686 C685 1.523 . S
C687 C671 1.429 . S
C687 C683 1.429 . S
C687 C688 1.523 . S
C688 C672 1.368 . S
C688 C684 1.368 1_455 S
C688 C687 1.523 . S
H689 C664 0.950 . S
H690 C666 0.950 . S
H691 C667 0.949 . S
H692 C669 0.950 . S
H693 C671 0.950 . S
C694 C695 1.349 . S
C694 C696 1.327 . S
C694 H719 0.950 . S
C695 C694 1.349 . S
C695 C711 1.349 . S
C696 C694 1.327 . S
C696 C715 1.429 . S
C696 H720 0.950 . S
C697 C714 1.574 . S
C697 C716 1.368 . S
C697 H721 0.949 . S
H698 C702 0.949 . S
C699 C700 1.349 . S
C699 C701 1.327 . S
C699 H722 0.950 . S
C700 C699 1.349 . S
C700 C712 1.349 . S
C701 C699 1.327 . S
C701 C717 1.429 . S
C701 H723 0.950 . S
C702 H698 0.949 . S
C702 C710 1.574 . S
C702 C718 1.368 . S
H703 C711 0.950 . S
H704 C709 0.950 . S
H705 C710 0.949 . S
H706 C712 0.950 . S
H707 C713 0.950 . S
H708 C714 0.949 . S
C709 H704 0.950 . S
C709 C711 1.327 . S
C709 C715 1.429 . S
C710 C702 1.574 . S
C710 H705 0.949 . S
C710 C716 1.368 1_545 S
C711 C695 1.349 . S
C711 H703 0.950 . S
C711 C709 1.327 . S
C712 C700 1.349 . S
C712 H706 0.950 . S
C712 C713 1.327 . S
C713 H707 0.950 . S
C713 C712 1.327 . S
C713 C717 1.429 . S
C714 C697 1.574 . S
C714 H708 0.949 . S
C714 C718 1.368 1_565 S
C715 C696 1.429 . S
C715 C709 1.429 . S
C715 C716 1.523 . S
C716 C697 1.368 . S
C716 C710 1.368 1_565 S
C716 C715 1.523 . S
C717 C701 1.429 . S
C717 C713 1.429 . S
C717 C718 1.523 . S
C718 C702 1.368 . S
C718 C714 1.368 1_545 S
C718 C717 1.523 . S
H719 C694 0.950 . S
H720 C696 0.950 . S
H721 C697 0.949 . S
H722 C699 0.950 . S
H723 C701 0.950 . S
C724 C725 1.349 . S
C724 C726 1.327 . S
C724 H749 0.950 . S
C725 C724 1.349 . S
C725 C741 1.349 . S
C726 C724 1.327 . S
C726 C745 1.429 . S
C726 H750 0.950 . S
C727 C744 1.574 . S
C727 C746 1.368 . S
C727 H751 0.949 . S
H728 C732 0.949 . S
C729 C730 1.349 . S
C729 C731 1.327 . S
C729 H752 0.950 . S
C730 C729 1.349 . S
C730 C742 1.349 . S
C731 C729 1.327 . S
C731 C747 1.429 . S
C731 H753 0.950 . S
C732 H728 0.949 . S
C732 C740 1.574 . S
C732 C748 1.368 . S
H733 C741 0.950 . S
H734 C739 0.950 . S
H735 C740 0.949 . S
H736 C742 0.950 . S
H737 C743 0.950 . S
H738 C744 0.949 . S
C739 H734 0.950 . S
C739 C741 1.327 . S
C739 C745 1.429 . S
C740 C732 1.574 . S
C740 H735 0.949 . S
C740 C746 1.368 1_455 S
C741 C725 1.349 . S
C741 H733 0.950 . S
C741 C739 1.327 . S
C742 C730 1.349 . S
C742 H736 0.950 . S
C742 C743 1.327 . S
C743 H737 0.950 . S
C743 C742 1.327 . S
C743 C747 1.429 . S
C744 C727 1.574 . S
C744 H738 0.949 . S
C744 C748 1.368 1_655 S
C745 C726 1.429 . S
C745 C739 1.429 . S
C745 C746 1.523 . S
C746 C727 1.368 . S
C746 C740 1.368 1_655 S
C746 C745 1.523 . S
C747 C731 1.429 . S
C747 C743 1.429 . S
C747 C748 1.523 . S
C748 C732 1.368 . S
C748 C744 1.368 1_455 S
C748 C747 1.523 . S
H749 C724 0.950 . S
H750 C726 0.950 . S
H751 C727 0.949 . S
H752 C729 0.950 . S
H753 C731 0.950 . S
C754 C755 1.349 . S
C754 C756 1.327 . S
C754 H779 0.950 . S
C755 C754 1.349 . S
C755 C771 1.349 . S
C756 C754 1.327 . S
C756 C775 1.429 . S
C756 H780 0.950 . S
C757 C774 1.574 . S
C757 C776 1.368 . S
C757 H781 0.949 . S
H758 C762 0.949 . S
C759 C760 1.349 . S
C759 C761 1.327 . S
C759 H782 0.950 . S
C760 C759 1.349 . S
C760 C772 1.349 . S
C761 C759 1.327 . S
C761 C777 1.429 . S
C761 H783 0.950 . S
C762 H758 0.949 . S
C762 C770 1.574 . S
C762 C778 1.368 . S
H763 C771 0.950 . S
H764 C769 0.950 . S
H765 C770 0.949 . S
H766 C772 0.950 . S
H767 C773 0.950 . S
H768 C774 0.949 . S
C769 H764 0.950 . S
C769 C771 1.327 . S
C769 C775 1.429 . S
C770 C762 1.574 . S
C770 H765 0.949 . S
C770 C776 1.368 1_565 S
C771 C755 1.349 . S
C771 H763 0.950 . S
C771 C769 1.327 . S
C772 C760 1.349 . S
C772 H766 0.950 . S
C772 C773 1.327 . S
C773 H767 0.950 . S
C773 C772 1.327 . S
C773 C777 1.429 . S
C774 C757 1.574 . S
C774 H768 0.949 . S
C774 C778 1.368 1_545 S
C775 C756 1.429 . S
C775 C769 1.429 . S
C775 C776 1.523 . S
C776 C757 1.368 . S
C776 C770 1.368 1_545 S
C776 C775 1.523 . S
C777 C761 1.429 . S
C777 C773 1.429 . S
C777 C778 1.523 . S
C778 C762 1.368 . S
C778 C774 1.368 1_565 S
C778 C777 1.523 . S
H779 C754 0.950 . S
H780 C756 0.950 . S
H781 C757 0.949 . S
H782 C759 0.950 . S
H783 C761 0.950 . S
C784 C785 1.349 . S
C784 C786 1.327 . S
C784 H809 0.950 . S
C785 C784 1.349 . S
C785 C801 1.349 . S
C786 C784 1.327 . S
C786 C805 1.429 . S
C786 H810 0.950 . S
C787 C804 1.574 . S
C787 C806 1.368 . S
C787 H811 0.949 . S
H788 C792 0.949 . S
C789 C790 1.349 . S
C789 C791 1.327 . S
C789 H812 0.950 . S
C790 C789 1.349 . S
C790 C802 1.349 . S
C791 C789 1.327 . S
C791 C807 1.429 . S
C791 H813 0.950 . S
C792 H788 0.949 . S
C792 C800 1.574 . S
C792 C808 1.368 . S
H793 C801 0.950 . S
H794 C799 0.950 . S
H795 C800 0.949 . S
H796 C802 0.950 . S
H797 C803 0.950 . S
H798 C804 0.949 . S
C799 H794 0.950 . S
C799 C801 1.327 . S
C799 C805 1.429 . S
C800 C792 1.574 . S
C800 H795 0.949 . S
C800 C806 1.368 . S
C801 C785 1.349 . S
C801 H793 0.950 . S
C801 C799 1.327 . S
C802 C790 1.349 . S
C802 H796 0.950 . S
C802 C803 1.327 . S
C803 H797 0.950 . S
C803 C802 1.327 . S
C803 C807 1.429 . S
C804 C787 1.574 . S
C804 H798 0.949 . S
C804 C808 1.368 . S
C805 C786 1.429 . S
C805 C799 1.429 . S
C805 C806 1.523 . S
C806 C787 1.368 . S
C806 C800 1.368 . S
C806 C805 1.523 . S
C807 C791 1.429 . S
C807 C803 1.429 . S
C807 C808 1.523 . S
C808 C792 1.368 . S
C808 C804 1.368 . S
C808 C807 1.523 . S
H809 C784 0.950 . S
H810 C786 0.950 . S
H811 C787 0.949 . S
H812 C789 0.950 . S
H813 C791 0.950 . S
C814 C815 1.349 . S
C814 C816 1.327 . S
C814 H839 0.950 . S
C815 C814 1.349 . S
C815 C831 1.349 . S
C816 C814 1.327 . S
C816 C835 1.429 . S
C816 H840 0.950 . S
C817 C834 1.574 . S
C817 C836 1.368 . S
C817 H841 0.949 . S
H818 C822 0.949 . S
C819 C820 1.349 . S
C819 C821 1.327 . S
C819 H842 0.950 . S
C820 C819 1.349 . S
C820 C832 1.349 . S
C821 C819 1.327 . S
C821 C837 1.429 . S
C821 H843 0.950 . S
C822 H818 0.949 . S
C822 C830 1.574 . S
C822 C838 1.368 . S
H823 C831 0.950 . S
H824 C829 0.950 . S
H825 C830 0.949 . S
H826 C832 0.950 . S
H827 C833 0.950 . S
H828 C834 0.949 . S
C829 H824 0.950 . S
C829 C831 1.327 . S
C829 C835 1.429 . S
C830 C822 1.574 . S
C830 H825 0.949 . S
C830 C836 1.368 . S
C831 C815 1.349 . S
C831 H823 0.950 . S
C831 C829 1.327 . S
C832 C820 1.349 . S
C832 H826 0.950 . S
C832 C833 1.327 . S
C833 H827 0.950 . S
C833 C832 1.327 . S
C833 C837 1.429 . S
C834 C817 1.574 . S
C834 H828 0.949 . S
C834 C838 1.368 . S
C835 C816 1.429 . S
C835 C829 1.429 . S
C835 C836 1.523 . S
C836 C817 1.368 . S
C836 C830 1.368 . S
C836 C835 1.523 . S
C837 C821 1.429 . S
C837 C833 1.429 . S
C837 C838 1.523 . S
C838 C822 1.368 . S
C838 C834 1.368 . S
C838 C837 1.523 . S
H839 C814 0.950 . S
H840 C816 0.950 . S
H841 C817 0.949 . S
H842 C819 0.950 . S
H843 C821 0.950 . S
C844 C845 1.349 . S
C844 C846 1.327 . S
C844 H869 0.950 . S
C845 C844 1.349 . S
C845 C861 1.349 . S
C846 C844 1.327 . S
C846 C865 1.429 . S
C846 H870 0.950 . S
C847 C864 1.574 . S
C847 C866 1.368 . S
C847 H871 0.949 . S
H848 C852 0.949 . S
C849 C850 1.349 . S
C849 C851 1.327 . S
C849 H872 0.950 . S
C850 C849 1.349 . S
C850 C862 1.349 . S
C851 C849 1.327 . S
C851 C867 1.429 . S
C851 H873 0.950 . S
C852 H848 0.949 . S
C852 C860 1.574 . S
C852 C868 1.368 . S
H853 C861 0.950 . S
H854 C859 0.950 . S
H855 C860 0.949 . S
H856 C862 0.950 . S
H857 C863 0.950 . S
H858 C864 0.949 . S
C859 H854 0.950 . S
C859 C861 1.327 . S
C859 C865 1.429 . S
C860 C852 1.574 . S
C860 H855 0.949 . S
C860 C866 1.368 . S
C861 C845 1.349 . S
C861 H853 0.950 . S
C861 C859 1.327 . S
C862 C850 1.349 . S
C862 H856 0.950 . S
C862 C863 1.327 . S
C863 H857 0.950 . S
C863 C862 1.327 . S
C863 C867 1.429 . S
C864 C847 1.574 . S
C864 H858 0.949 . S
C864 C868 1.368 . S
C865 C846 1.429 . S
C865 C859 1.429 . S
C865 C866 1.523 . S
C866 C847 1.368 . S
C866 C860 1.368 . S
C866 C865 1.523 . S
C867 C851 1.429 . S
C867 C863 1.429 . S
C867 C868 1.523 . S
C868 C852 1.368 . S
C868 C864 1.368 . S
C868 C867 1.523 . S
H869 C844 0.950 . S
H870 C846 0.950 . S
H871 C847 0.949 . S
H872 C849 0.950 . S
H873 C851 0.950 . S
C874 C875 1.349 . S
C874 C876 1.327 . S
C874 H899 0.950 . S
C875 C874 1.349 . S
C875 C891 1.349 . S
C876 C874 1.327 . S
C876 C895 1.429 . S
C876 H900 0.950 . S
C877 C894 1.574 . S
C877 C896 1.368 . S
C877 H901 0.949 . S
H878 C882 0.949 . S
C879 C880 1.349 . S
C879 C881 1.327 . S
C879 H902 0.950 . S
C880 C879 1.349 . S
C880 C892 1.349 . S
C881 C879 1.327 . S
C881 C897 1.429 . S
C881 H903 0.950 . S
C882 H878 0.949 . S
C882 C890 1.574 . S
C882 C898 1.368 . S
H883 C891 0.950 . S
H884 C889 0.950 . S
H885 C890 0.949 . S
H886 C892 0.950 . S
H887 C893 0.950 . S
H888 C894 0.949 . S
C889 H884 0.950 . S
C889 C891 1.327 . S
C889 C895 1.429 . S
C890 C882 1.574 . S
C890 H885 0.949 . S
C890 C896 1.368 . S
C891 C875 1.349 . S
C891 H883 0.950 . S
C891 C889 1.327 . S
C892 C880 1.349 . S
C892 H886 0.950 . S
C892 C893 1.327 . S
C893 H887 0.950 . S
C893 C892 1.327 . S
C893 C897 1.429 . S
C894 C877 1.574 . S
C894 H888 0.949 . S
C894 C898 1.368 . S
C895 C876 1.429 . S
C895 C889 1.429 . S
C895 C896 1.523 . S
C896 C877 1.368 . S
C896 C890 1.368 . S
C896 C895 1.523 . S
C897 C881 1.429 . S
C897 C893 1.429 . S
C897 C898 1.523 . S
C898 C882 1.368 . S
C898 C894 1.368 . S
C898 C897 1.523 . S
H899 C874 0.950 . S
H900 C876 0.950 . S
H901 C877 0.949 . S
H902 C879 0.950 . S
H903 C881 0.950 . S
C904 C905 1.349 . S
C904 C906 1.327 . S
C904 H929 0.950 . S
C905 C904 1.349 . S
C905 C921 1.349 . S
C906 C904 1.327 . S
C906 C925 1.429 . S
C906 H930 0.950 . S
C907 C924 1.574 . S
C907 C926 1.368 . S
C907 H931 0.949 . S
H908 C912 0.949 . S
C909 C910 1.349 . S
C909 C911 1.327 . S
C909 H932 0.950 . S
C910 C909 1.349 . S
C910 C922 1.349 . S
C911 C909 1.327 . S
C911 C927 1.429 . S
C911 H933 0.950 . S
C912 H908 0.949 . S
C912 C920 1.574 . S
C912 C928 1.368 . S
H913 C921 0.950 . S
H914 C919 0.950 . S
H915 C920 0.949 . S
H916 C922 0.950 . S
H917 C923 0.950 . S
H918 C924 0.949 . S
C919 H914 0.950 . S
C919 C921 1.327 . S
C919 C925 1.429 . S
C920 C912 1.574 . S
C920 H915 0.949 . S
C920 C926 1.368 . S
C921 C905 1.349 . S
C921 H913 0.950 . S
C921 C919 1.327 . S
C922 C910 1.349 . S
C922 H916 0.950 . S
C922 C923 1.327 . S
C923 H917 0.950 . S
C923 C922 1.327 . S
C923 C927 1.429 . S
C924 C907 1.574 . S
C924 H918 0.949 . S
C924 C928 1.368 . S
C925 C906 1.429 . S
C925 C919 1.429 . S
C925 C926 1.523 . S
C926 C907 1.368 . S
C926 C920 1.368 . S
C926 C925 1.523 . S
C927 C911 1.429 . S
C927 C923 1.429 . S
C927 C928 1.523 . S
C928 C912 1.368 . S
C928 C924 1.368 . S
C928 C927 1.523 . S
H929 C904 0.950 . S
H930 C906 0.950 . S
H931 C907 0.949 . S
H932 C909 0.950 . S
H933 C911 0.950 . S
C934 C935 1.349 . S
C934 C936 1.327 . S
C934 H959 0.950 . S
C935 C934 1.349 . S
C935 C951 1.349 . S
C936 C934 1.327 . S
C936 C955 1.429 . S
C936 H960 0.950 . S
C937 C954 1.574 . S
C937 C956 1.368 . S
C937 H961 0.949 . S
H938 C942 0.949 . S
C939 C940 1.349 . S
C939 C941 1.327 . S
C939 H962 0.950 . S
C940 C939 1.349 . S
C940 C952 1.349 . S
C941 C939 1.327 . S
C941 C957 1.429 . S
C941 H963 0.950 . S
C942 H938 0.949 . S
C942 C950 1.574 . S
C942 C958 1.368 . S
H943 C951 0.950 . S
H944 C949 0.950 . S
H945 C950 0.949 . S
H946 C952 0.950 . S
H947 C953 0.950 . S
H948 C954 0.949 . S
C949 H944 0.950 . S
C949 C951 1.327 . S
C949 C955 1.429 . S
C950 C942 1.574 . S
C950 H945 0.949 . S
C950 C956 1.368 . S
C951 C935 1.349 . S
C951 H943 0.950 . S
C951 C949 1.327 . S
C952 C940 1.349 . S
C952 H946 0.950 . S
C952 C953 1.327 . S
C953 H947 0.950 . S
C953 C952 1.327 . S
C953 C957 1.429 . S
C954 C937 1.574 . S
C954 H948 0.949 . S
C954 C958 1.368 . S
C955 C936 1.429 . S
C955 C949 1.429 . S
C955 C956 1.523 . S
C956 C937 1.368 . S
C956 C950 1.368 . S
C956 C955 1.523 . S
C957 C941 1.429 . S
C957 C953 1.429 . S
C957 C958 1.523 . S
C958 C942 1.368 . S
C958 C954 1.368 . S
C958 C957 1.523 . S
H959 C934 0.950 . S
H960 C936 0.950 . S
H961 C937 0.949 . S
H962 C939 0.950 . S
H963 C941 0.950 . S
C964 C965 1.349 . S
C964 C966 1.327 . S
C964 H989 0.950 . S
C965 C964 1.349 . S
C965 C981 1.349 . S
C966 C964 1.327 . S
C966 C985 1.429 . S
C966 H990 0.950 . S
C967 C984 1.574 . S
C967 C986 1.368 . S
C967 H991 0.949 . S
H968 C972 0.949 . S
C969 C970 1.349 . S
C969 C971 1.327 . S
C969 H992 0.950 . S
C970 C969 1.349 . S
C970 C982 1.349 . S
C971 C969 1.327 . S
C971 C987 1.429 . S
C971 H993 0.950 . S
C972 H968 0.949 . S
C972 C980 1.574 . S
C972 C988 1.368 . S
H973 C981 0.950 . S
H974 C979 0.950 . S
H975 C980 0.949 . S
H976 C982 0.950 . S
H977 C983 0.950 . S
H978 C984 0.949 . S
C979 H974 0.950 . S
C979 C981 1.327 . S
C979 C985 1.429 . S
C980 C972 1.574 . S
C980 H975 0.949 . S
C980 C986 1.368 . S
C981 C965 1.349 . S
C981 H973 0.950 . S
C981 C979 1.327 . S
C982 C970 1.349 . S
C982 H976 0.950 . S
C982 C983 1.327 . S
C983 H977 0.950 . S
C983 C982 1.327 . S
C983 C987 1.429 . S
C984 C967 1.574 . S
C984 H978 0.949 . S
C984 C988 1.368 . S
C985 C966 1.429 . S
C985 C979 1.429 . S
C985 C986 1.523 . S
C986 C967 1.368 . S
C986 C980 1.368 . S
C986 C985 1.523 . S
C987 C971 1.429 . S
C987 C983 1.429 . S
C987 C988 1.523 . S
C988 C972 1.368 . S
C988 C984 1.368 . S
C988 C987 1.523 . S
H989 C964 0.950 . S
H990 C966 0.950 . S
H991 C967 0.949 . S
H992 C969 0.950 . S
H993 C971 0.950 . S
C994 C995 1.349 . S
C994 C996 1.327 . S
C994 H1019 0.950 . S
C995 C994 1.349 . S
C995 C1011 1.349 . S
C996 C994 1.327 . S
C996 C1015 1.429 . S
C996 H1020 0.950 . S
C997 C1014 1.574 . S
C997 C1016 1.368 . S
C997 H1021 0.949 . S
H998 C1002 0.949 . S
C999 C1000 1.349 . S
C999 C1001 1.327 . S
C999 H1022 0.950 . S
C1000 C999 1.349 . S
C1000 C1012 1.349 . S
C1001 C999 1.327 . S
C1001 C1017 1.429 . S
C1001 H1023 0.950 . S
C1002 H998 0.949 . S
C1002 C1010 1.574 . S
C1002 C1018 1.368 . S
H1003 C1011 0.950 . S
H1004 C1009 0.950 . S
H1005 C1010 0.949 . S
H1006 C1012 0.950 . S
H1007 C1013 0.950 . S
H1008 C1014 0.949 . S
C1009 H1004 0.950 . S
C1009 C1011 1.327 . S
C1009 C1015 1.429 . S
C1010 C1002 1.574 . S
C1010 H1005 0.949 . S
C1010 C1016 1.368 . S
C1011 C995 1.349 . S
C1011 H1003 0.950 . S
C1011 C1009 1.327 . S
C1012 C1000 1.349 . S
C1012 H1006 0.950 . S
C1012 C1013 1.327 . S
C1013 H1007 0.950 . S
C1013 C1012 1.327 . S
C1013 C1017 1.429 . S
C1014 C997 1.574 . S
C1014 H1008 0.949 . S
C1014 C1018 1.368 . S
C1015 C996 1.429 . S
C1015 C1009 1.429 . S
C1015 C1016 1.523 . S
C1016 C997 1.368 . S
C1016 C1010 1.368 . S
C1016 C1015 1.523 . S
C1017 C1001 1.429 . S
C1017 C1013 1.429 . S
C1017 C1018 1.523 . S
C1018 C1002 1.368 . S
C1018 C1014 1.368 . S
C1018 C1017 1.523 . S
H1019 C994 0.950 . S
H1020 C996 0.950 . S
H1021 C997 0.949 . S
H1022 C999 0.950 . S
H1023 C1001 0.950 . S
C1024 C1025 1.349 . S
C1024 C1026 1.327 . S
C1024 H1049 0.950 . S
C1025 C1024 1.349 . S
C1025 C1041 1.349 . S
C1026 C1024 1.327 . S
C1026 C1045 1.429 . S
C1026 H1050 0.950 . S
C1027 C1044 1.574 1_554 S
C1027 C1046 1.368 . S
C1027 H1051 0.949 . S
H1028 C1032 0.949 . S
C1029 C1030 1.349 . S
C1029 C1031 1.327 . S
C1029 H1052 0.950 . S
C1030 C1029 1.349 . S
C1030 C1042 1.349 . S
C1031 C1029 1.327 . S
C1031 C1047 1.429 . S
C1031 H1053 0.950 . S
C1032 H1028 0.949 . S
C1032 C1040 1.574 1_556 S
C1032 C1048 1.368 . S
H1033 C1041 0.950 . S
H1034 C1039 0.950 . S
H1035 C1040 0.949 . S
H1036 C1042 0.950 . S
H1037 C1043 0.950 . S
H1038 C1044 0.949 . S
C1039 H1034 0.950 . S
C1039 C1041 1.327 . S
C1039 C1045 1.429 . S
C1040 C1032 1.574 1_554 S
C1040 H1035 0.949 . S
C1040 C1046 1.368 . S
C1041 C1025 1.349 . S
C1041 H1033 0.950 . S
C1041 C1039 1.327 . S
C1042 C1030 1.349 . S
C1042 H1036 0.950 . S
C1042 C1043 1.327 . S
C1043 H1037 0.950 . S
C1043 C1042 1.327 . S
C1043 C1047 1.429 . S
C1044 C1027 1.574 1_556 S
C1044 H1038 0.949 . S
C1044 C1048 1.368 . S
C1045 C1026 1.429 . S
C1045 C1039 1.429 . S
C1045 C1046 1.523 . S
C1046 C1027 1.368 . S
C1046 C1040 1.368 . S
C1046 C1045 1.523 . S
C1047 C1031 1.429 . S
C1047 C1043 1.429 . S
C1047 C1048 1.523 . S
C1048 C1032 1.368 . S
C1048 C1044 1.368 . S
C1048 C1047 1.523 . S
H1049 C1024 0.950 . S
H1050 C1026 0.950 . S
H1051 C1027 0.949 . S
H1052 C1029 0.950 . S
H1053 C1031 0.950 . S
C1054 C1055 1.349 . S
C1054 C1056 1.327 . S
C1054 H1079 0.950 . S
C1055 C1054 1.349 . S
C1055 C1071 1.349 . S
C1056 C1054 1.327 . S
C1056 C1075 1.429 . S
C1056 H1080 0.950 . S
C1057 C1074 1.574 1_556 S
C1057 C1076 1.368 . S
C1057 H1081 0.949 . S
H1058 C1062 0.949 . S
C1059 C1060 1.349 . S
C1059 C1061 1.327 . S
C1059 H1082 0.950 . S
C1060 C1059 1.349 . S
C1060 C1072 1.349 . S
C1061 C1059 1.327 . S
C1061 C1077 1.429 . S
C1061 H1083 0.950 . S
C1062 H1058 0.949 . S
C1062 C1070 1.574 1_554 S
C1062 C1078 1.368 . S
H1063 C1071 0.950 . S
H1064 C1069 0.950 . S
H1065 C1070 0.949 . S
H1066 C1072 0.950 . S
H1067 C1073 0.950 . S
H1068 C1074 0.949 . S
C1069 H1064 0.950 . S
C1069 C1071 1.327 . S
C1069 C1075 1.429 . S
C1070 C1062 1.574 1_556 S
C1070 H1065 0.949 . S
C1070 C1076 1.368 . S
C1071 C1055 1.349 . S
C1071 H1063 0.950 . S
C1071 C1069 1.327 . S
C1072 C1060 1.349 . S
C1072 H1066 0.950 . S
C1072 C1073 1.327 . S
C1073 H1067 0.950 . S
C1073 C1072 1.327 . S
C1073 C1077 1.429 . S
C1074 C1057 1.574 1_554 S
C1074 H1068 0.949 . S
C1074 C1078 1.368 . S
C1075 C1056 1.429 . S
C1075 C1069 1.429 . S
C1075 C1076 1.523 . S
C1076 C1057 1.368 . S
C1076 C1070 1.368 . S
C1076 C1075 1.523 . S
C1077 C1061 1.429 . S
C1077 C1073 1.429 . S
C1077 C1078 1.523 . S
C1078 C1062 1.368 . S
C1078 C1074 1.368 . S
C1078 C1077 1.523 . S
H1079 C1054 0.950 . S
H1080 C1056 0.950 . S
H1081 C1057 0.949 . S
H1082 C1059 0.950 . S
H1083 C1061 0.950 . S
C1084 C1085 1.349 . S
C1084 C1086 1.327 . S
C1084 H1109 0.950 . S
C1085 C1084 1.349 . S
C1085 C1101 1.349 . S
C1086 C1084 1.327 . S
C1086 C1105 1.429 . S
C1086 H1110 0.950 . S
C1087 C1104 1.574 1_556 S
C1087 C1106 1.368 . S
C1087 H1111 0.949 . S
H1088 C1092 0.949 . S
C1089 C1090 1.349 . S
C1089 C1091 1.327 . S
C1089 H1112 0.950 . S
C1090 C1089 1.349 . S
C1090 C1102 1.349 . S
C1091 C1089 1.327 . S
C1091 C1107 1.429 . S
C1091 H1113 0.950 . S
C1092 H1088 0.949 . S
C1092 C1100 1.574 1_554 S
C1092 C1108 1.368 . S
H1093 C1101 0.950 . S
H1094 C1099 0.950 . S
H1095 C1100 0.949 . S
H1096 C1102 0.950 . S
H1097 C1103 0.950 . S
H1098 C1104 0.949 . S
C1099 H1094 0.950 . S
C1099 C1101 1.327 . S
C1099 C1105 1.429 . S
C1100 C1092 1.574 1_556 S
C1100 H1095 0.949 . S
C1100 C1106 1.368 . S
C1101 C1085 1.349 . S
C1101 H1093 0.950 . S
C1101 C1099 1.327 . S
C1102 C1090 1.349 . S
C1102 H1096 0.950 . S
C1102 C1103 1.327 . S
C1103 H1097 0.950 . S
C1103 C1102 1.327 . S
C1103 C1107 1.429 . S
C1104 C1087 1.574 1_554 S
C1104 H1098 0.949 . S
C1104 C1108 1.368 . S
C1105 C1086 1.429 . S
C1105 C1099 1.429 . S
C1105 C1106 1.523 . S
C1106 C1087 1.368 . S
C1106 C1100 1.368 . S
C1106 C1105 1.523 . S
C1107 C1091 1.429 . S
C1107 C1103 1.429 . S
C1107 C1108 1.523 . S
C1108 C1092 1.368 . S
C1108 C1104 1.368 . S
C1108 C1107 1.523 . S
H1109 C1084 0.950 . S
H1110 C1086 0.950 . S
H1111 C1087 0.949 . S
H1112 C1089 0.950 . S
H1113 C1091 0.950 . S
C1114 C1115 1.349 . S
C1114 C1116 1.327 . S
C1114 H1139 0.950 . S
C1115 C1114 1.349 . S
C1115 C1131 1.349 . S
C1116 C1114 1.327 . S
C1116 C1135 1.429 . S
C1116 H1140 0.950 . S
C1117 C1134 1.574 1_556 S
C1117 C1136 1.368 . S
C1117 H1141 0.949 . S
H1118 C1122 0.949 . S
C1119 C1120 1.349 . S
C1119 C1121 1.327 . S
C1119 H1142 0.950 . S
C1120 C1119 1.349 . S
C1120 C1132 1.349 . S
C1121 C1119 1.327 . S
C1121 C1137 1.429 . S
C1121 H1143 0.950 . S
C1122 H1118 0.949 . S
C1122 C1130 1.574 1_554 S
C1122 C1138 1.368 . S
H1123 C1131 0.950 . S
H1124 C1129 0.950 . S
H1125 C1130 0.949 . S
H1126 C1132 0.950 . S
H1127 C1133 0.950 . S
H1128 C1134 0.949 . S
C1129 H1124 0.950 . S
C1129 C1131 1.327 . S
C1129 C1135 1.429 . S
C1130 C1122 1.574 1_556 S
C1130 H1125 0.949 . S
C1130 C1136 1.368 . S
C1131 C1115 1.349 . S
C1131 H1123 0.950 . S
C1131 C1129 1.327 . S
C1132 C1120 1.349 . S
C1132 H1126 0.950 . S
C1132 C1133 1.327 . S
C1133 H1127 0.950 . S
C1133 C1132 1.327 . S
C1133 C1137 1.429 . S
C1134 C1117 1.574 1_554 S
C1134 H1128 0.949 . S
C1134 C1138 1.368 . S
C1135 C1116 1.429 . S
C1135 C1129 1.429 . S
C1135 C1136 1.523 . S
C1136 C1117 1.368 . S
C1136 C1130 1.368 . S
C1136 C1135 1.523 . S
C1137 C1121 1.429 . S
C1137 C1133 1.429 . S
C1137 C1138 1.523 . S
C1138 C1122 1.368 . S
C1138 C1134 1.368 . S
C1138 C1137 1.523 . S
H1139 C1114 0.950 . S
H1140 C1116 0.950 . S
H1141 C1117 0.949 . S
H1142 C1119 0.950 . S
H1143 C1121 0.950 . S
C1144 C1145 1.349 . S
C1144 C1146 1.327 . S
C1144 H1169 0.950 . S
C1145 C1144 1.349 . S
C1145 C1161 1.349 . S
C1146 C1144 1.327 . S
C1146 C1165 1.429 . S
C1146 H1170 0.950 . S
C1147 C1164 1.574 . S
C1147 C1166 1.368 . S
C1147 H1171 0.949 . S
H1148 C1152 0.949 . S
C1149 C1150 1.349 . S
C1149 C1151 1.327 . S
C1149 H1172 0.950 . S
C1150 C1149 1.349 . S
C1150 C1162 1.349 . S
C1151 C1149 1.327 . S
C1151 C1167 1.429 . S
C1151 H1173 0.950 . S
C1152 H1148 0.949 . S
C1152 C1160 1.574 . S
C1152 C1168 1.368 . S
H1153 C1161 0.950 . S
H1154 C1159 0.950 . S
H1155 C1160 0.949 . S
H1156 C1162 0.950 . S
H1157 C1163 0.950 . S
H1158 C1164 0.949 . S
C1159 H1154 0.950 . S
C1159 C1161 1.327 . S
C1159 C1165 1.429 . S
C1160 C1152 1.574 . S
C1160 H1155 0.949 . S
C1160 C1166 1.368 . S
C1161 C1145 1.349 . S
C1161 H1153 0.950 . S
C1161 C1159 1.327 . S
C1162 C1150 1.349 . S
C1162 H1156 0.950 . S
C1162 C1163 1.327 . S
C1163 H1157 0.950 . S
C1163 C1162 1.327 . S
C1163 C1167 1.429 . S
C1164 C1147 1.574 . S
C1164 H1158 0.949 . S
C1164 C1168 1.368 . S
C1165 C1146 1.429 . S
C1165 C1159 1.429 . S
C1165 C1166 1.523 . S
C1166 C1147 1.368 . S
C1166 C1160 1.368 . S
C1166 C1165 1.523 . S
C1167 C1151 1.429 . S
C1167 C1163 1.429 . S
C1167 C1168 1.523 . S
C1168 C1152 1.368 . S
C1168 C1164 1.368 . S
C1168 C1167 1.523 . S
H1169 C1144 0.950 . S
H1170 C1146 0.950 . S
H1171 C1147 0.949 . S
H1172 C1149 0.950 . S
H1173 C1151 0.950 . S
C1174 C1175 1.349 . S
C1174 C1176 1.327 . S
C1174 H1199 0.950 . S
C1175 C1174 1.349 . S
C1175 C1191 1.349 . S
C1176 C1174 1.327 . S
C1176 C1195 1.429 . S
C1176 H1200 0.950 . S
C1177 C1194 1.574 . S
C1177 C1196 1.368 . S
C1177 H1201 0.949 . S
H1178 C1182 0.949 . S
C1179 C1180 1.349 . S
C1179 C1181 1.327 . S
C1179 H1202 0.950 . S
C1180 C1179 1.349 . S
C1180 C1192 1.349 . S
C1181 C1179 1.327 . S
C1181 C1197 1.429 . S
C1181 H1203 0.950 . S
C1182 H1178 0.949 . S
C1182 C1190 1.574 . S
C1182 C1198 1.368 . S
H1183 C1191 0.950 . S
H1184 C1189 0.950 . S
H1185 C1190 0.949 . S
H1186 C1192 0.950 . S
H1187 C1193 0.950 . S
H1188 C1194 0.949 . S
C1189 H1184 0.950 . S
C1189 C1191 1.327 . S
C1189 C1195 1.429 . S
C1190 C1182 1.574 . S
C1190 H1185 0.949 . S
C1190 C1196 1.368 . S
C1191 C1175 1.349 . S
C1191 H1183 0.950 . S
C1191 C1189 1.327 . S
C1192 C1180 1.349 . S
C1192 H1186 0.950 . S
C1192 C1193 1.327 . S
C1193 H1187 0.950 . S
C1193 C1192 1.327 . S
C1193 C1197 1.429 . S
C1194 C1177 1.574 . S
C1194 H1188 0.949 . S
C1194 C1198 1.368 . S
C1195 C1176 1.429 . S
C1195 C1189 1.429 . S
C1195 C1196 1.523 . S
C1196 C1177 1.368 . S
C1196 C1190 1.368 . S
C1196 C1195 1.523 . S
C1197 C1181 1.429 . S
C1197 C1193 1.429 . S
C1197 C1198 1.523 . S
C1198 C1182 1.368 . S
C1198 C1194 1.368 . S
C1198 C1197 1.523 . S
H1199 C1174 0.950 . S
H1200 C1176 0.950 . S
H1201 C1177 0.949 . S
H1202 C1179 0.950 . S
H1203 C1181 0.950 . S
C1204 C1205 1.349 . S
C1204 C1206 1.327 . S
C1204 H1229 0.950 . S
C1205 C1204 1.349 . S
C1205 C1221 1.349 . S
C1206 C1204 1.327 . S
C1206 C1225 1.429 . S
C1206 H1230 0.950 . S
C1207 C1224 1.574 . S
C1207 C1226 1.368 . S
C1207 H1231 0.949 . S
H1208 C1212 0.949 . S
C1209 C1210 1.349 . S
C1209 C1211 1.327 . S
C1209 H1232 0.950 . S
C1210 C1209 1.349 . S
C1210 C1222 1.349 . S
C1211 C1209 1.327 . S
C1211 C1227 1.429 . S
C1211 H1233 0.950 . S
C1212 H1208 0.949 . S
C1212 C1220 1.574 . S
C1212 C1228 1.368 . S
H1213 C1221 0.950 . S
H1214 C1219 0.950 . S
H1215 C1220 0.949 . S
H1216 C1222 0.950 . S
H1217 C1223 0.950 . S
H1218 C1224 0.949 . S
C1219 H1214 0.950 . S
C1219 C1221 1.327 . S
C1219 C1225 1.429 . S
C1220 C1212 1.574 . S
C1220 H1215 0.949 . S
C1220 C1226 1.368 . S
C1221 C1205 1.349 . S
C1221 H1213 0.950 . S
C1221 C1219 1.327 . S
C1222 C1210 1.349 . S
C1222 H1216 0.950 . S
C1222 C1223 1.327 . S
C1223 H1217 0.950 . S
C1223 C1222 1.327 . S
C1223 C1227 1.429 . S
C1224 C1207 1.574 . S
C1224 H1218 0.949 . S
C1224 C1228 1.368 . S
C1225 C1206 1.429 . S
C1225 C1219 1.429 . S
C1225 C1226 1.523 . S
C1226 C1207 1.368 . S
C1226 C1220 1.368 . S
C1226 C1225 1.523 . S
C1227 C1211 1.429 . S
C1227 C1223 1.429 . S
C1227 C1228 1.523 . S
C1228 C1212 1.368 . S
C1228 C1224 1.368 . S
C1228 C1227 1.523 . S
H1229 C1204 0.950 . S
H1230 C1206 0.950 . S
H1231 C1207 0.949 . S
H1232 C1209 0.950 . S
H1233 C1211 0.950 . S
C1234 C1235 1.349 . S
C1234 C1236 1.327 . S
C1234 H1259 0.950 . S
C1235 C1234 1.349 . S
C1235 C1251 1.349 . S
C1236 C1234 1.327 . S
C1236 C1255 1.429 . S
C1236 H1260 0.950 . S
C1237 C1254 1.574 . S
C1237 C1256 1.368 . S
C1237 H1261 0.949 . S
H1238 C1242 0.949 . S
C1239 C1240 1.349 . S
C1239 C1241 1.327 . S
C1239 H1262 0.950 . S
C1240 C1239 1.349 . S
C1240 C1252 1.349 . S
C1241 C1239 1.327 . S
C1241 C1257 1.429 . S
C1241 H1263 0.950 . S
C1242 H1238 0.949 . S
C1242 C1250 1.574 . S
C1242 C1258 1.368 . S
H1243 C1251 0.950 . S
H1244 C1249 0.950 . S
H1245 C1250 0.949 . S
H1246 C1252 0.950 . S
H1247 C1253 0.950 . S
H1248 C1254 0.949 . S
C1249 H1244 0.950 . S
C1249 C1251 1.327 . S
C1249 C1255 1.429 . S
C1250 C1242 1.574 . S
C1250 H1245 0.949 . S
C1250 C1256 1.368 . S
C1251 C1235 1.349 . S
C1251 H1243 0.950 . S
C1251 C1249 1.327 . S
C1252 C1240 1.349 . S
C1252 H1246 0.950 . S
C1252 C1253 1.327 . S
C1253 H1247 0.950 . S
C1253 C1252 1.327 . S
C1253 C1257 1.429 . S
C1254 C1237 1.574 . S
C1254 H1248 0.949 . S
C1254 C1258 1.368 . S
C1255 C1236 1.429 . S
C1255 C1249 1.429 . S
C1255 C1256 1.523 . S
C1256 C1237 1.368 . S
C1256 C1250 1.368 . S
C1256 C1255 1.523 . S
C1257 C1241 1.429 . S
C1257 C1253 1.429 . S
C1257 C1258 1.523 . S
C1258 C1242 1.368 . S
C1258 C1254 1.368 . S
C1258 C1257 1.523 . S
H1259 C1234 0.950 . S
H1260 C1236 0.950 . S
H1261 C1237 0.949 . S
H1262 C1239 0.950 . S
H1263 C1241 0.950 . S
C1264 C1265 1.349 . S
C1264 C1266 1.327 . S
C1264 H1289 0.950 . S
C1265 C1264 1.349 . S
C1265 C1281 1.349 . S
C1266 C1264 1.327 . S
C1266 C1285 1.429 . S
C1266 H1290 0.950 . S
C1267 C1284 1.574 . S
C1267 C1286 1.368 . S
C1267 H1291 0.949 . S
H1268 C1272 0.949 . S
C1269 C1270 1.349 . S
C1269 C1271 1.327 . S
C1269 H1292 0.950 . S
C1270 C1269 1.349 . S
C1270 C1282 1.349 . S
C1271 C1269 1.327 . S
C1271 C1287 1.429 . S
C1271 H1293 0.950 . S
C1272 H1268 0.949 . S
C1272 C1280 1.574 . S
C1272 C1288 1.368 . S
H1273 C1281 0.950 . S
H1274 C1279 0.950 . S
H1275 C1280 0.949 . S
H1276 C1282 0.950 . S
H1277 C1283 0.950 . S
H1278 C1284 0.949 . S
C1279 H1274 0.950 . S
C1279 C1281 1.327 . S
C1279 C1285 1.429 . S
C1280 C1272 1.574 . S
C1280 H1275 0.949 . S
C1280 C1286 1.368 . S
C1281 C1265 1.349 . S
C1281 H1273 0.950 . S
C1281 C1279 1.327 . S
C1282 C1270 1.349 . S
C1282 H1276 0.950 . S
C1282 C1283 1.327 . S
C1283 H1277 0.950 . S
C1283 C1282 1.327 . S
C1283 C1287 1.429 . S
C1284 C1267 1.574 . S
C1284 H1278 0.949 . S
C1284 C1288 1.368 . S
C1285 C1266 1.429 . S
C1285 C1279 1.429 . S
C1285 C1286 1.523 . S
C1286 C1267 1.368 . S
C1286 C1280 1.368 . S
C1286 C1285 1.523 . S
C1287 C1271 1.429 . S
C1287 C1283 1.429 . S
C1287 C1288 1.523 . S
C1288 C1272 1.368 . S
C1288 C1284 1.368 . S
C1288 C1287 1.523 . S
H1289 C1264 0.950 . S
H1290 C1266 0.950 . S
H1291 C1267 0.949 . S
H1292 C1269 0.950 . S
H1293 C1271 0.950 . S
C1294 C1295 1.349 . S
C1294 C1296 1.327 . S
C1294 H1319 0.950 . S
C1295 C1294 1.349 . S
C1295 C1311 1.349 . S
C1296 C1294 1.327 . S
C1296 C1315 1.429 . S
C1296 H1320 0.950 . S
C1297 C1314 1.574 . S
C1297 C1316 1.368 . S
C1297 H1321 0.949 . S
H1298 C1302 0.949 . S
C1299 C1300 1.349 . S
C1299 C1301 1.327 . S
C1299 H1322 0.950 . S
C1300 C1299 1.349 . S
C1300 C1312 1.349 . S
C1301 C1299 1.327 . S
C1301 C1317 1.429 . S
C1301 H1323 0.950 . S
C1302 H1298 0.949 . S
C1302 C1310 1.574 . S
C1302 C1318 1.368 . S
H1303 C1311 0.950 . S
H1304 C1309 0.950 . S
H1305 C1310 0.949 . S
H1306 C1312 0.950 . S
H1307 C1313 0.950 . S
H1308 C1314 0.949 . S
C1309 H1304 0.950 . S
C1309 C1311 1.327 . S
C1309 C1315 1.429 . S
C1310 C1302 1.574 . S
C1310 H1305 0.949 . S
C1310 C1316 1.368 . S
C1311 C1295 1.349 . S
C1311 H1303 0.950 . S
C1311 C1309 1.327 . S
C1312 C1300 1.349 . S
C1312 H1306 0.950 . S
C1312 C1313 1.327 . S
C1313 H1307 0.950 . S
C1313 C1312 1.327 . S
C1313 C1317 1.429 . S
C1314 C1297 1.574 . S
C1314 H1308 0.949 . S
C1314 C1318 1.368 . S
C1315 C1296 1.429 . S
C1315 C1309 1.429 . S
C1315 C1316 1.523 . S
C1316 C1297 1.368 . S
C1316 C1310 1.368 . S
C1316 C1315 1.523 . S
C1317 C1301 1.429 . S
C1317 C1313 1.429 . S
C1317 C1318 1.523 . S
C1318 C1302 1.368 . S
C1318 C1314 1.368 . S
C1318 C1317 1.523 . S
H1319 C1294 0.950 . S
H1320 C1296 0.950 . S
H1321 C1297 0.949 . S
H1322 C1299 0.950 . S
H1323 C1301 0.950 . S
C1324 C1325 1.349 . S
C1324 C1326 1.327 . S
C1324 H1349 0.950 . S
C1325 C1324 1.349 . S
C1325 C1341 1.349 . S
C1326 C1324 1.327 . S
C1326 C1345 1.429 . S
C1326 H1350 0.950 . S
C1327 C1344 1.574 . S
C1327 C1346 1.368 . S
C1327 H1351 0.949 . S
H1328 C1332 0.949 . S
C1329 C1330 1.349 . S
C1329 C1331 1.327 . S
C1329 H1352 0.950 . S
C1330 C1329 1.349 . S
C1330 C1342 1.349 . S
C1331 C1329 1.327 . S
C1331 C1347 1.429 . S
C1331 H1353 0.950 . S
C1332 H1328 0.949 . S
C1332 C1340 1.574 . S
C1332 C1348 1.368 . S
H1333 C1341 0.950 . S
H1334 C1339 0.950 . S
H1335 C1340 0.949 . S
H1336 C1342 0.950 . S
H1337 C1343 0.950 . S
H1338 C1344 0.949 . S
C1339 H1334 0.950 . S
C1339 C1341 1.327 . S
C1339 C1345 1.429 . S
C1340 C1332 1.574 . S
C1340 H1335 0.949 . S
C1340 C1346 1.368 . S
C1341 C1325 1.349 . S
C1341 H1333 0.950 . S
C1341 C1339 1.327 . S
C1342 C1330 1.349 . S
C1342 H1336 0.950 . S
C1342 C1343 1.327 . S
C1343 H1337 0.950 . S
C1343 C1342 1.327 . S
C1343 C1347 1.429 . S
C1344 C1327 1.574 . S
C1344 H1338 0.949 . S
C1344 C1348 1.368 . S
C1345 C1326 1.429 . S
C1345 C1339 1.429 . S
C1345 C1346 1.523 . S
C1346 C1327 1.368 . S
C1346 C1340 1.368 . S
C1346 C1345 1.523 . S
C1347 C1331 1.429 . S
C1347 C1343 1.429 . S
C1347 C1348 1.523 . S
C1348 C1332 1.368 . S
C1348 C1344 1.368 . S
C1348 C1347 1.523 . S
H1349 C1324 0.950 . S
H1350 C1326 0.950 . S
H1351 C1327 0.949 . S
H1352 C1329 0.950 . S
H1353 C1331 0.950 . S
C1354 C1355 1.349 . S
C1354 C1356 1.327 . S
C1354 H1379 0.950 . S
C1355 C1354 1.349 . S
C1355 C1371 1.349 . S
C1356 C1354 1.327 . S
C1356 C1375 1.429 . S
C1356 H1380 0.950 . S
C1357 C1374 1.574 . S
C1357 C1376 1.368 . S
C1357 H1381 0.949 . S
H1358 C1362 0.949 . S
C1359 C1360 1.349 . S
C1359 C1361 1.327 . S
C1359 H1382 0.950 . S
C1360 C1359 1.349 . S
C1360 C1372 1.349 . S
C1361 C1359 1.327 . S
C1361 C1377 1.429 . S
C1361 H1383 0.950 . S
C1362 H1358 0.949 . S
C1362 C1370 1.574 . S
C1362 C1378 1.368 . S
H1363 C1371 0.950 . S
H1364 C1369 0.950 . S
H1365 C1370 0.949 . S
H1366 C1372 0.950 . S
H1367 C1373 0.950 . S
H1368 C1374 0.949 . S
C1369 H1364 0.950 . S
C1369 C1371 1.327 . S
C1369 C1375 1.429 . S
C1370 C1362 1.574 . S
C1370 H1365 0.949 . S
C1370 C1376 1.368 . S
C1371 C1355 1.349 . S
C1371 H1363 0.950 . S
C1371 C1369 1.327 . S
C1372 C1360 1.349 . S
C1372 H1366 0.950 . S
C1372 C1373 1.327 . S
C1373 H1367 0.950 . S
C1373 C1372 1.327 . S
C1373 C1377 1.429 . S
C1374 C1357 1.574 . S
C1374 H1368 0.949 . S
C1374 C1378 1.368 . S
C1375 C1356 1.429 . S
C1375 C1369 1.429 . S
C1375 C1376 1.523 . S
C1376 C1357 1.368 . S
C1376 C1370 1.368 . S
C1376 C1375 1.523 . S
C1377 C1361 1.429 . S
C1377 C1373 1.429 . S
C1377 C1378 1.523 . S
C1378 C1362 1.368 . S
C1378 C1374 1.368 . S
C1378 C1377 1.523 . S
H1379 C1354 0.950 . S
H1380 C1356 0.950 . S
H1381 C1357 0.949 . S
H1382 C1359 0.950 . S
H1383 C1361 0.950 . S
C1384 C1385 1.349 . S
C1384 C1386 1.327 . S
C1384 H1409 0.950 . S
C1385 C1384 1.349 . S
C1385 C1401 1.349 . S
C1386 C1384 1.327 . S
C1386 C1405 1.429 . S
C1386 H1410 0.950 . S
C1387 C1404 1.574 . S
C1387 C1406 1.368 . S
C1387 H1411 0.949 . S
H1388 C1392 0.949 . S
C1389 C1390 1.349 . S
C1389 C1391 1.327 . S
C1389 H1412 0.950 . S
C1390 C1389 1.349 . S
C1390 C1402 1.349 . S
C1391 C1389 1.327 . S
C1391 C1407 1.429 . S
C1391 H1413 0.950 . S
C1392 H1388 0.949 . S
C1392 C1400 1.574 . S
C1392 C1408 1.368 . S
H1393 C1401 0.950 . S
H1394 C1399 0.950 . S
H1395 C1400 0.949 . S
H1396 C1402 0.950 . S
H1397 C1403 0.950 . S
H1398 C1404 0.949 . S
C1399 H1394 0.950 . S
C1399 C1401 1.327 . S
C1399 C1405 1.429 . S
C1400 C1392 1.574 . S
C1400 H1395 0.949 . S
C1400 C1406 1.368 . S
C1401 C1385 1.349 . S
C1401 H1393 0.950 . S
C1401 C1399 1.327 . S
C1402 C1390 1.349 . S
C1402 H1396 0.950 . S
C1402 C1403 1.327 . S
C1403 H1397 0.950 . S
C1403 C1402 1.327 . S
C1403 C1407 1.429 . S
C1404 C1387 1.574 . S
C1404 H1398 0.949 . S
C1404 C1408 1.368 . S
C1405 C1386 1.429 . S
C1405 C1399 1.429 . S
C1405 C1406 1.523 . S
C1406 C1387 1.368 . S
C1406 C1400 1.368 . S
C1406 C1405 1.523 . S
C1407 C1391 1.429 . S
C1407 C1403 1.429 . S
C1407 C1408 1.523 . S
C1408 C1392 1.368 . S
C1408 C1404 1.368 . S
C1408 C1407 1.523 . S
H1409 C1384 0.950 . S
H1410 C1386 0.950 . S
H1411 C1387 0.949 . S
H1412 C1389 0.950 . S
H1413 C1391 0.950 . S
C1414 C1415 1.349 . S
C1414 C1416 1.327 . S
C1414 H1439 0.950 . S
C1415 C1414 1.349 . S
C1415 C1431 1.349 . S
C1416 C1414 1.327 . S
C1416 C1435 1.429 . S
C1416 H1440 0.950 . S
C1417 C1434 1.574 . S
C1417 C1436 1.368 . S
C1417 H1441 0.949 . S
H1418 C1422 0.949 . S
C1419 C1420 1.349 . S
C1419 C1421 1.327 . S
C1419 H1442 0.950 . S
C1420 C1419 1.349 . S
C1420 C1432 1.349 . S
C1421 C1419 1.327 . S
C1421 C1437 1.429 . S
C1421 H1443 0.950 . S
C1422 H1418 0.949 . S
C1422 C1430 1.574 . S
C1422 C1438 1.368 . S
H1423 C1431 0.950 . S
H1424 C1429 0.950 . S
H1425 C1430 0.949 . S
H1426 C1432 0.950 . S
H1427 C1433 0.950 . S
H1428 C1434 0.949 . S
C1429 H1424 0.950 . S
C1429 C1431 1.327 . S
C1429 C1435 1.429 . S
C1430 C1422 1.574 . S
C1430 H1425 0.949 . S
C1430 C1436 1.368 . S
C1431 C1415 1.349 . S
C1431 H1423 0.950 . S
C1431 C1429 1.327 . S
C1432 C1420 1.349 . S
C1432 H1426 0.950 . S
C1432 C1433 1.327 . S
C1433 H1427 0.950 . S
C1433 C1432 1.327 . S
C1433 C1437 1.429 . S
C1434 C1417 1.574 . S
C1434 H1428 0.949 . S
C1434 C1438 1.368 . S
C1435 C1416 1.429 . S
C1435 C1429 1.429 . S
C1435 C1436 1.523 . S
C1436 C1417 1.368 . S
C1436 C1430 1.368 . S
C1436 C1435 1.523 . S
C1437 C1421 1.429 . S
C1437 C1433 1.429 . S
C1437 C1438 1.523 . S
C1438 C1422 1.368 . S
C1438 C1434 1.368 . S
C1438 C1437 1.523 . S
H1439 C1414 0.950 . S
H1440 C1416 0.950 . S
H1441 C1417 0.949 . S
H1442 C1419 0.950 . S
H1443 C1421 0.950 . S
C1444 C1445 1.349 . S
C1444 C1446 1.327 . S
C1444 H1469 0.950 . S
C1445 C1444 1.349 . S
C1445 C1461 1.349 . S
C1446 C1444 1.327 . S
C1446 C1465 1.429 . S
C1446 H1470 0.950 . S
C1447 C1464 1.574 . S
C1447 C1466 1.368 . S
C1447 H1471 0.949 . S
H1448 C1452 0.949 . S
C1449 C1450 1.349 . S
C1449 C1451 1.327 . S
C1449 H1472 0.950 . S
C1450 C1449 1.349 . S
C1450 C1462 1.349 . S
C1451 C1449 1.327 . S
C1451 C1467 1.429 . S
C1451 H1473 0.950 . S
C1452 H1448 0.949 . S
C1452 C1460 1.574 . S
C1452 C1468 1.368 . S
H1453 C1461 0.950 . S
H1454 C1459 0.950 . S
H1455 C1460 0.949 . S
H1456 C1462 0.950 . S
H1457 C1463 0.950 . S
H1458 C1464 0.949 . S
C1459 H1454 0.950 . S
C1459 C1461 1.327 . S
C1459 C1465 1.429 . S
C1460 C1452 1.574 . S
C1460 H1455 0.949 . S
C1460 C1466 1.368 . S
C1461 C1445 1.349 . S
C1461 H1453 0.950 . S
C1461 C1459 1.327 . S
C1462 C1450 1.349 . S
C1462 H1456 0.950 . S
C1462 C1463 1.327 . S
C1463 H1457 0.950 . S
C1463 C1462 1.327 . S
C1463 C1467 1.429 . S
C1464 C1447 1.574 . S
C1464 H1458 0.949 . S
C1464 C1468 1.368 . S
C1465 C1446 1.429 . S
C1465 C1459 1.429 . S
C1465 C1466 1.523 . S
C1466 C1447 1.368 . S
C1466 C1460 1.368 . S
C1466 C1465 1.523 . S
C1467 C1451 1.429 . S
C1467 C1463 1.429 . S
C1467 C1468 1.523 . S
C1468 C1452 1.368 . S
C1468 C1464 1.368 . S
C1468 C1467 1.523 . S
H1469 C1444 0.950 . S
H1470 C1446 0.950 . S
H1471 C1447 0.949 . S
H1472 C1449 0.950 . S
H1473 C1451 0.950 . S
C1474 C1475 1.349 . S
C1474 C1476 1.327 . S
C1474 H1499 0.950 . S
C1475 C1474 1.349 . S
C1475 C1491 1.349 . S
C1476 C1474 1.327 . S
C1476 C1495 1.429 . S
C1476 H1500 0.950 . S
C1477 C1494 1.574 . S
C1477 C1496 1.368 . S
C1477 H1501 0.949 . S
H1478 C1482 0.949 . S
C1479 C1480 1.349 . S
C1479 C1481 1.327 . S
C1479 H1502 0.950 . S
C1480 C1479 1.349 . S
C1480 C1492 1.349 . S
C1481 C1479 1.327 . S
C1481 C1497 1.429 . S
C1481 H1503 0.950 . S
C1482 H1478 0.949 . S
C1482 C1490 1.574 . S
C1482 C1498 1.368 . S
H1483 C1491 0.950 . S
H1484 C1489 0.950 . S
H1485 C1490 0.949 . S
H1486 C1492 0.950 . S
H1487 C1493 0.950 . S
H1488 C1494 0.949 . S
C1489 H1484 0.950 . S
C1489 C1491 1.327 . S
C1489 C1495 1.429 . S
C1490 C1482 1.574 . S
C1490 H1485 0.949 . S
C1490 C1496 1.368 . S
C1491 C1475 1.349 . S
C1491 H1483 0.950 . S
C1491 C1489 1.327 . S
C1492 C1480 1.349 . S
C1492 H1486 0.950 . S
C1492 C1493 1.327 . S
C1493 H1487 0.950 . S
C1493 C1492 1.327 . S
C1493 C1497 1.429 . S
C1494 C1477 1.574 . S
C1494 H1488 0.949 . S
C1494 C1498 1.368 . S
C1495 C1476 1.429 . S
C1495 C1489 1.429 . S
C1495 C1496 1.523 . S
C1496 C1477 1.368 . S
C1496 C1490 1.368 . S
C1496 C1495 1.523 . S
C1497 C1481 1.429 . S
C1497 C1493 1.429 . S
C1497 C1498 1.523 . S
C1498 C1482 1.368 . S
C1498 C1494 1.368 . S
C1498 C1497 1.523 . S
H1499 C1474 0.950 . S
H1500 C1476 0.950 . S
H1501 C1477 0.949 . S
H1502 C1479 0.950 . S
H1503 C1481 0.950 . S
C1504 C1505 1.349 . S
C1504 C1506 1.327 . S
C1504 H1529 0.950 . S
C1505 C1504 1.349 . S
C1505 C1521 1.349 . S
C1506 C1504 1.327 . S
C1506 C1525 1.429 . S
C1506 H1530 0.950 . S
C1507 C1524 1.574 1_545 S
C1507 C1526 1.368 . S
C1507 H1531 0.949 . S
H1508 C1512 0.949 . S
C1509 C1510 1.349 . S
C1509 C1511 1.327 . S
C1509 H1532 0.950 . S
C1510 C1509 1.349 . S
C1510 C1522 1.349 . S
C1511 C1509 1.327 . S
C1511 C1527 1.429 . S
C1511 H1533 0.950 . S
C1512 H1508 0.949 . S
C1512 C1520 1.574 1_565 S
C1512 C1528 1.368 . S
H1513 C1521 0.950 . S
H1514 C1519 0.950 . S
H1515 C1520 0.949 . S
H1516 C1522 0.950 . S
H1517 C1523 0.950 . S
H1518 C1524 0.949 . S
C1519 H1514 0.950 . S
C1519 C1521 1.327 . S
C1519 C1525 1.429 . S
C1520 C1512 1.574 1_545 S
C1520 H1515 0.949 . S
C1520 C1526 1.368 . S
C1521 C1505 1.349 . S
C1521 H1513 0.950 . S
C1521 C1519 1.327 . S
C1522 C1510 1.349 . S
C1522 H1516 0.950 . S
C1522 C1523 1.327 . S
C1523 H1517 0.950 . S
C1523 C1522 1.327 . S
C1523 C1527 1.429 . S
C1524 C1507 1.574 1_565 S
C1524 H1518 0.949 . S
C1524 C1528 1.368 . S
C1525 C1506 1.429 . S
C1525 C1519 1.429 . S
C1525 C1526 1.523 . S
C1526 C1507 1.368 . S
C1526 C1520 1.368 . S
C1526 C1525 1.523 . S
C1527 C1511 1.429 . S
C1527 C1523 1.429 . S
C1527 C1528 1.523 . S
C1528 C1512 1.368 . S
C1528 C1524 1.368 . S
C1528 C1527 1.523 . S
H1529 C1504 0.950 . S
H1530 C1506 0.950 . S
H1531 C1507 0.949 . S
H1532 C1509 0.950 . S
H1533 C1511 0.950 . S
C1534 C1535 1.349 . S
C1534 C1536 1.327 . S
C1534 H1559 0.950 . S
C1535 C1534 1.349 . S
C1535 C1551 1.349 . S
C1536 C1534 1.327 . S
C1536 C1555 1.429 . S
C1536 H1560 0.950 . S
C1537 C1554 1.574 1_655 S
C1537 C1556 1.368 . S
C1537 H1561 0.949 . S
H1538 C1542 0.949 . S
C1539 C1540 1.349 . S
C1539 C1541 1.327 . S
C1539 H1562 0.950 . S
C1540 C1539 1.349 . S
C1540 C1552 1.349 . S
C1541 C1539 1.327 . S
C1541 C1557 1.429 . S
C1541 H1563 0.950 . S
C1542 H1538 0.949 . S
C1542 C1550 1.574 1_455 S
C1542 C1558 1.368 . S
H1543 C1551 0.950 . S
H1544 C1549 0.950 . S
H1545 C1550 0.949 . S
H1546 C1552 0.950 . S
H1547 C1553 0.950 . S
H1548 C1554 0.949 . S
C1549 H1544 0.950 . S
C1549 C1551 1.327 . S
C1549 C1555 1.429 . S
C1550 C1542 1.574 1_655 S
C1550 H1545 0.949 . S
C1550 C1556 1.368 . S
C1551 C1535 1.349 . S
C1551 H1543 0.950 . S
C1551 C1549 1.327 . S
C1552 C1540 1.349 . S
C1552 H1546 0.950 . S
C1552 C1553 1.327 . S
C1553 H1547 0.950 . S
C1553 C1552 1.327 . S
C1553 C1557 1.429 . S
C1554 C1537 1.574 1_455 S
C1554 H1548 0.949 . S
C1554 C1558 1.368 . S
C1555 C1536 1.429 . S
C1555 C1549 1.429 . S
C1555 C1556 1.523 . S
C1556 C1537 1.368 . S
C1556 C1550 1.368 . S
C1556 C1555 1.523 . S
C1557 C1541 1.429 . S
C1557 C1553 1.429 . S
C1557 C1558 1.523 . S
C1558 C1542 1.368 . S
C1558 C1554 1.368 . S
C1558 C1557 1.523 . S
H1559 C1534 0.950 . S
H1560 C1536 0.950 . S
H1561 C1537 0.949 . S
H1562 C1539 0.950 . S
H1563 C1541 0.950 . S
C1564 C1565 1.349 . S
C1564 C1566 1.327 . S
C1564 H1589 0.950 . S
C1565 C1564 1.349 . S
C1565 C1581 1.349 . S
C1566 C1564 1.327 . S
C1566 C1585 1.429 . S
C1566 H1590 0.950 . S
C1567 C1584 1.574 1_545 S
C1567 C1586 1.368 . S
C1567 H1591 0.949 . S
H1568 C1572 0.949 . S
C1569 C1570 1.349 . S
C1569 C1571 1.327 . S
C1569 H1592 0.950 . S
C1570 C1569 1.349 . S
C1570 C1582 1.349 . S
C1571 C1569 1.327 . S
C1571 C1587 1.429 . S
C1571 H1593 0.950 . S
C1572 H1568 0.949 . S
C1572 C1580 1.574 1_565 S
C1572 C1588 1.368 . S
H1573 C1581 0.950 . S
H1574 C1579 0.950 . S
H1575 C1580 0.949 . S
H1576 C1582 0.950 . S
H1577 C1583 0.950 . S
H1578 C1584 0.949 . S
C1579 H1574 0.950 . S
C1579 C1581 1.327 . S
C1579 C1585 1.429 . S
C1580 C1572 1.574 1_545 S
C1580 H1575 0.949 . S
C1580 C1586 1.368 . S
C1581 C1565 1.349 . S
C1581 H1573 0.950 . S
C1581 C1579 1.327 . S
C1582 C1570 1.349 . S
C1582 H1576 0.950 . S
C1582 C1583 1.327 . S
C1583 H1577 0.950 . S
C1583 C1582 1.327 . S
C1583 C1587 1.429 . S
C1584 C1567 1.574 1_565 S
C1584 H1578 0.949 . S
C1584 C1588 1.368 . S
C1585 C1566 1.429 . S
C1585 C1579 1.429 . S
C1585 C1586 1.523 . S
C1586 C1567 1.368 . S
C1586 C1580 1.368 . S
C1586 C1585 1.523 . S
C1587 C1571 1.429 . S
C1587 C1583 1.429 . S
C1587 C1588 1.523 . S
C1588 C1572 1.368 . S
C1588 C1584 1.368 . S
C1588 C1587 1.523 . S
H1589 C1564 0.950 . S
H1590 C1566 0.950 . S
H1591 C1567 0.949 . S
H1592 C1569 0.950 . S
H1593 C1571 0.950 . S
C1594 C1595 1.349 . S
C1594 C1596 1.327 . S
C1594 H1619 0.950 . S
C1595 C1594 1.349 . S
C1595 C1611 1.349 . S
C1596 C1594 1.327 . S
C1596 C1615 1.429 . S
C1596 H1620 0.950 . S
C1597 C1614 1.574 1_655 S
C1597 C1616 1.368 . S
C1597 H1621 0.949 . S
H1598 C1602 0.949 . S
C1599 C1600 1.349 . S
C1599 C1601 1.327 . S
C1599 H1622 0.950 . S
C1600 C1599 1.349 . S
C1600 C1612 1.349 . S
C1601 C1599 1.327 . S
C1601 C1617 1.429 . S
C1601 H1623 0.950 . S
C1602 H1598 0.949 . S
C1602 C1610 1.574 1_455 S
C1602 C1618 1.368 . S
H1603 C1611 0.950 . S
H1604 C1609 0.950 . S
H1605 C1610 0.949 . S
H1606 C1612 0.950 . S
H1607 C1613 0.950 . S
H1608 C1614 0.949 . S
C1609 H1604 0.950 . S
C1609 C1611 1.327 . S
C1609 C1615 1.429 . S
C1610 C1602 1.574 1_655 S
C1610 H1605 0.949 . S
C1610 C1616 1.368 . S
C1611 C1595 1.349 . S
C1611 H1603 0.950 . S
C1611 C1609 1.327 . S
C1612 C1600 1.349 . S
C1612 H1606 0.950 . S
C1612 C1613 1.327 . S
C1613 H1607 0.950 . S
C1613 C1612 1.327 . S
C1613 C1617 1.429 . S
C1614 C1597 1.574 1_455 S
C1614 H1608 0.949 . S
C1614 C1618 1.368 . S
C1615 C1596 1.429 . S
C1615 C1609 1.429 . S
C1615 C1616 1.523 . S
C1616 C1597 1.368 . S
C1616 C1610 1.368 . S
C1616 C1615 1.523 . S
C1617 C1601 1.429 . S
C1617 C1613 1.429 . S
C1617 C1618 1.523 . S
C1618 C1602 1.368 . S
C1618 C1614 1.368 . S
C1618 C1617 1.523 . S
H1619 C1594 0.950 . S
H1620 C1596 0.950 . S
H1621 C1597 0.949 . S
H1622 C1599 0.950 . S
H1623 C1601 0.950 . S
C1624 C1625 1.349 . S
C1624 C1626 1.327 . S
C1624 H1649 0.950 . S
C1625 C1624 1.349 . S
C1625 C1641 1.349 . S
C1626 C1624 1.327 . S
C1626 C1645 1.429 . S
C1626 H1650 0.950 . S
C1627 C1644 1.574 1_565 S
C1627 C1646 1.368 . S
C1627 H1651 0.949 . S
H1628 C1632 0.949 . S
C1629 C1630 1.349 . S
C1629 C1631 1.327 . S
C1629 H1652 0.950 . S
C1630 C1629 1.349 . S
C1630 C1642 1.349 . S
C1631 C1629 1.327 . S
C1631 C1647 1.429 . S
C1631 H1653 0.950 . S
C1632 H1628 0.949 . S
C1632 C1640 1.574 1_545 S
C1632 C1648 1.368 . S
H1633 C1641 0.950 . S
H1634 C1639 0.950 . S
H1635 C1640 0.949 . S
H1636 C1642 0.950 . S
H1637 C1643 0.950 . S
H1638 C1644 0.949 . S
C1639 H1634 0.950 . S
C1639 C1641 1.327 . S
C1639 C1645 1.429 . S
C1640 C1632 1.574 1_565 S
C1640 H1635 0.949 . S
C1640 C1646 1.368 . S
C1641 C1625 1.349 . S
C1641 H1633 0.950 . S
C1641 C1639 1.327 . S
C1642 C1630 1.349 . S
C1642 H1636 0.950 . S
C1642 C1643 1.327 . S
C1643 H1637 0.950 . S
C1643 C1642 1.327 . S
C1643 C1647 1.429 . S
C1644 C1627 1.574 1_545 S
C1644 H1638 0.949 . S
C1644 C1648 1.368 . S
C1645 C1626 1.429 . S
C1645 C1639 1.429 . S
C1645 C1646 1.523 . S
C1646 C1627 1.368 . S
C1646 C1640 1.368 . S
C1646 C1645 1.523 . S
C1647 C1631 1.429 . S
C1647 C1643 1.429 . S
C1647 C1648 1.523 . S
C1648 C1632 1.368 . S
C1648 C1644 1.368 . S
C1648 C1647 1.523 . S
H1649 C1624 0.950 . S
H1650 C1626 0.950 . S
H1651 C1627 0.949 . S
H1652 C1629 0.950 . S
H1653 C1631 0.950 . S
C1654 C1655 1.349 . S
C1654 C1656 1.327 . S
C1654 H1679 0.950 . S
C1655 C1654 1.349 . S
C1655 C1671 1.349 . S
C1656 C1654 1.327 . S
C1656 C1675 1.429 . S
C1656 H1680 0.950 . S
C1657 C1674 1.574 1_455 S
C1657 C1676 1.368 . S
C1657 H1681 0.949 . S
H1658 C1662 0.949 . S
C1659 C1660 1.349 . S
C1659 C1661 1.327 . S
C1659 H1682 0.950 . S
C1660 C1659 1.349 . S
C1660 C1672 1.349 . S
C1661 C1659 1.327 . S
C1661 C1677 1.429 . S
C1661 H1683 0.950 . S
C1662 H1658 0.949 . S
C1662 C1670 1.574 1_655 S
C1662 C1678 1.368 . S
H1663 C1671 0.950 . S
H1664 C1669 0.950 . S
H1665 C1670 0.949 . S
H1666 C1672 0.950 . S
H1667 C1673 0.950 . S
H1668 C1674 0.949 . S
C1669 H1664 0.950 . S
C1669 C1671 1.327 . S
C1669 C1675 1.429 . S
C1670 C1662 1.574 1_455 S
C1670 H1665 0.949 . S
C1670 C1676 1.368 . S
C1671 C1655 1.349 . S
C1671 H1663 0.950 . S
C1671 C1669 1.327 . S
C1672 C1660 1.349 . S
C1672 H1666 0.950 . S
C1672 C1673 1.327 . S
C1673 H1667 0.950 . S
C1673 C1672 1.327 . S
C1673 C1677 1.429 . S
C1674 C1657 1.574 1_655 S
C1674 H1668 0.949 . S
C1674 C1678 1.368 . S
C1675 C1656 1.429 . S
C1675 C1669 1.429 . S
C1675 C1676 1.523 . S
C1676 C1657 1.368 . S
C1676 C1670 1.368 . S
C1676 C1675 1.523 . S
C1677 C1661 1.429 . S
C1677 C1673 1.429 . S
C1677 C1678 1.523 . S
C1678 C1662 1.368 . S
C1678 C1674 1.368 . S
C1678 C1677 1.523 . S
H1679 C1654 0.950 . S
H1680 C1656 0.950 . S
H1681 C1657 0.949 . S
H1682 C1659 0.950 . S
H1683 C1661 0.950 . S
C1684 C1685 1.349 . S
C1684 C1686 1.327 . S
C1684 H1709 0.950 . S
C1685 C1684 1.349 . S
C1685 C1701 1.349 . S
C1686 C1684 1.327 . S
C1686 C1705 1.429 . S
C1686 H1710 0.950 . S
C1687 C1704 1.574 1_565 S
C1687 C1706 1.368 . S
C1687 H1711 0.949 . S
H1688 C1692 0.949 . S
C1689 C1690 1.349 . S
C1689 C1691 1.327 . S
C1689 H1712 0.950 . S
C1690 C1689 1.349 . S
C1690 C1702 1.349 . S
C1691 C1689 1.327 . S
C1691 C1707 1.429 . S
C1691 H1713 0.950 . S
C1692 H1688 0.949 . S
C1692 C1700 1.574 1_545 S
C1692 C1708 1.368 . S
H1693 C1701 0.950 . S
H1694 C1699 0.950 . S
H1695 C1700 0.949 . S
H1696 C1702 0.950 . S
H1697 C1703 0.950 . S
H1698 C1704 0.949 . S
C1699 H1694 0.950 . S
C1699 C1701 1.327 . S
C1699 C1705 1.429 . S
C1700 C1692 1.574 1_565 S
C1700 H1695 0.949 . S
C1700 C1706 1.368 . S
C1701 C1685 1.349 . S
C1701 H1693 0.950 . S
C1701 C1699 1.327 . S
C1702 C1690 1.349 . S
C1702 H1696 0.950 . S
C1702 C1703 1.327 . S
C1703 H1697 0.950 . S
C1703 C1702 1.327 . S
C1703 C1707 1.429 . S
C1704 C1687 1.574 1_545 S
C1704 H1698 0.949 . S
C1704 C1708 1.368 . S
C1705 C1686 1.429 . S
C1705 C1699 1.429 . S
C1705 C1706 1.523 . S
C1706 C1687 1.368 . S
C1706 C1700 1.368 . S
C1706 C1705 1.523 . S
C1707 C1691 1.429 . S
C1707 C1703 1.429 . S
C1707 C1708 1.523 . S
C1708 C1692 1.368 . S
C1708 C1704 1.368 . S
C1708 C1707 1.523 . S
H1709 C1684 0.950 . S
H1710 C1686 0.950 . S
H1711 C1687 0.949 . S
H1712 C1689 0.950 . S
H1713 C1691 0.950 . S
C1714 C1715 1.349 . S
C1714 C1716 1.327 . S
C1714 H1739 0.950 . S
C1715 C1714 1.349 . S
C1715 C1731 1.349 . S
C1716 C1714 1.327 . S
C1716 C1735 1.429 . S
C1716 H1740 0.950 . S
C1717 C1734 1.574 1_655 S
C1717 C1736 1.368 . S
C1717 H1741 0.949 . S
H1718 C1722 0.949 . S
C1719 C1720 1.349 . S
C1719 C1721 1.327 . S
C1719 H1742 0.950 . S
C1720 C1719 1.349 . S
C1720 C1732 1.349 . S
C1721 C1719 1.327 . S
C1721 C1737 1.429 . S
C1721 H1743 0.950 . S
C1722 H1718 0.949 . S
C1722 C1730 1.574 1_455 S
C1722 C1738 1.368 . S
H1723 C1731 0.950 . S
H1724 C1729 0.950 . S
H1725 C1730 0.949 . S
H1726 C1732 0.950 . S
H1727 C1733 0.950 . S
H1728 C1734 0.949 . S
C1729 H1724 0.950 . S
C1729 C1731 1.327 . S
C1729 C1735 1.429 . S
C1730 C1722 1.574 1_655 S
C1730 H1725 0.949 . S
C1730 C1736 1.368 . S
C1731 C1715 1.349 . S
C1731 H1723 0.950 . S
C1731 C1729 1.327 . S
C1732 C1720 1.349 . S
C1732 H1726 0.950 . S
C1732 C1733 1.327 . S
C1733 H1727 0.950 . S
C1733 C1732 1.327 . S
C1733 C1737 1.429 . S
C1734 C1717 1.574 1_455 S
C1734 H1728 0.949 . S
C1734 C1738 1.368 . S
C1735 C1716 1.429 . S
C1735 C1729 1.429 . S
C1735 C1736 1.523 . S
C1736 C1717 1.368 . S
C1736 C1730 1.368 . S
C1736 C1735 1.523 . S
C1737 C1721 1.429 . S
C1737 C1733 1.429 . S
C1737 C1738 1.523 . S
C1738 C1722 1.368 . S
C1738 C1734 1.368 . S
C1738 C1737 1.523 . S
H1739 C1714 0.950 . S
H1740 C1716 0.950 . S
H1741 C1717 0.949 . S
H1742 C1719 0.950 . S
H1743 C1721 0.950 . S
C545 C73 0.698 . S
C550 C5 0.698 . S
C575 C39 0.698 . S
C580 C107 0.698 . S
C605 C209 0.698 . S
C610 C141 0.698 . S
C635 C243 0.698 . S
C640 C175 0.698 . S
C665 C277 0.698 . S
C670 C345 0.698 . S
C695 C311 0.698 . S
C700 C379 0.698 . S
C725 C413 0.698 . S
C730 C481 0.698 . S
C755 C515 0.698 . S
C760 C447 0.698 . S
C785 C9 1.778 . S
C790 C179 1.778 . S
C815 C213 1.778 . S
C820 C43 1.778 . S
C845 C247 1.778 . S
C850 C77 1.778 . S
C875 C145 1.778 . S
C880 C111 1.778 . S
C905 C451 1.778 . S
C910 C281 1.778 . S
C935 C485 1.778 . S
C940 C315 1.778 . S
C965 C519 1.778 . S
C970 C349 1.778 . S
C995 C417 1.778 . S
C1000 C383 1.778 . S
C1025 C20 1.355 . S
C1030 C360 1.355 . S
C1055 C394 1.355 . S
C1060 C54 1.355 . S
C1085 C292 1.355 . S
C1090 C88 1.355 . S
C1115 C326 1.355 . S
C1120 C122 1.355 . S
C1145 C156 1.355 . S
C1150 C496 1.355 . S
C1175 C190 1.355 . S
C1180 C530 1.355 . S
C1205 C224 1.355 . S
C1210 C428 1.355 . S
C1235 C258 1.355 . S
C1240 C462 1.355 . S
C1265 C138 0.682 . S
C1270 C2 0.682 . S
C1295 C36 0.682 . S
C1300 C172 0.682 . S
C1325 C206 0.682 . S
C1330 C70 0.682 . S
C1355 C240 0.682 . S
C1360 C104 0.682 . S
C1385 C305 0.994 . S
C1390 C441 0.994 . S
C1415 C475 0.994 . S
C1420 C339 0.994 . S
C1445 C373 0.994 . S
C1450 C509 0.994 . S
C1475 C543 0.994 . S
C1480 C407 0.994 . S
C1505 C376 0.682 . S
C1510 C444 0.682 . S
C1535 C274 0.682 . S
C1540 C478 0.682 . S
C1565 C512 0.682 . S
C1570 C308 0.682 . S
C1595 C410 0.682 . S
C1600 C342 0.682 . S
C1625 C135 0.994 . S
C1630 C203 0.994 . S
C1655 C33 0.994 . S
C1660 C237 0.994 . S
C1685 C271 0.994 . S
C1690 C67 0.994 . S
C1715 C101 0.994 . S
C1720 C169 0.994 . S
