# Generated by pormake.
# Topology xfe, (7)-cn, num edge types: 1
# Building blocks:
#     Node 0, Type 0, BuildingBlock: NUHQUE_clean_sbu_2, # of connection points: 7
#     Node 1, Type 0, BuildingBlock: NUHQUE_clean_sbu_2, # of connection points: 7
#     Node 2, Type 0, BuildingBlock: NUHQUE_clean_sbu_2, # of connection points: 7
#     Node 3, Type 0, BuildingBlock: NUHQUE_clean_sbu_2, # of connection points: 7
#     Node 4, Type 0, BuildingBlock: NUHQUE_clean_sbu_2, # of connection points: 7
#     Node 5, Type 0, BuildingBlock: NUHQUE_clean_sbu_2, # of connection points: 7
#     Node 6, Type 0, BuildingBlock: NUHQUE_clean_sbu_2, # of connection points: 7
#     Node 7, Type 0, BuildingBlock: NUHQUE_clean_sbu_2, # of connection points: 7
#     Node 8, Type 0, BuildingBlock: NUHQUE_clean_sbu_2, # of connection points: 7
#     Node 9, Type 0, BuildingBlock: NUHQUE_clean_sbu_2, # of connection points: 7
#     Node 10, Type 0, BuildingBlock: NUHQUE_clean_sbu_2, # of connection points: 7
#     Node 11, Type 0, BuildingBlock: NUHQUE_clean_sbu_2, # of connection points: 7
#     Node 12, Type 0, BuildingBlock: NUHQUE_clean_sbu_2, # of connection points: 7
#     Node 13, Type 0, BuildingBlock: NUHQUE_clean_sbu_2, # of connection points: 7
#     Node 14, Type 0, BuildingBlock: NUHQUE_clean_sbu_2, # of connection points: 7
#     Node 15, Type 0, BuildingBlock: NUHQUE_clean_sbu_2, # of connection points: 7
#     Edge 16, Type (0, 0), BuildingBlock: XUDNAN_clean_linker_2, # of connection points: 2
#     Edge 17, Type (0, 0), BuildingBlock: XUDNAN_clean_linker_2, # of connection points: 2
#     Edge 18, Type (0, 0), BuildingBlock: XUDNAN_clean_linker_2, # of connection points: 2
#     Edge 19, Type (0, 0), BuildingBlock: XUDNAN_clean_linker_2, # of connection points: 2
#     Edge 20, Type (0, 0), BuildingBlock: XUDNAN_clean_linker_2, # of connection points: 2
#     Edge 21, Type (0, 0), BuildingBlock: XUDNAN_clean_linker_2, # of connection points: 2
#     Edge 22, Type (0, 0), BuildingBlock: XUDNAN_clean_linker_2, # of connection points: 2
#     Edge 23, Type (0, 0), BuildingBlock: XUDNAN_clean_linker_2, # of connection points: 2
#     Edge 24, Type (0, 0), BuildingBlock: XUDNAN_clean_linker_2, # of connection points: 2
#     Edge 25, Type (0, 0), BuildingBlock: XUDNAN_clean_linker_2, # of connection points: 2
#     Edge 26, Type (0, 0), BuildingBlock: XUDNAN_clean_linker_2, # of connection points: 2
#     Edge 27, Type (0, 0), BuildingBlock: XUDNAN_clean_linker_2, # of connection points: 2
#     Edge 28, Type (0, 0), BuildingBlock: XUDNAN_clean_linker_2, # of connection points: 2
#     Edge 29, Type (0, 0), BuildingBlock: XUDNAN_clean_linker_2, # of connection points: 2
#     Edge 30, Type (0, 0), BuildingBlock: XUDNAN_clean_linker_2, # of connection points: 2
#     Edge 31, Type (0, 0), BuildingBlock: XUDNAN_clean_linker_2, # of connection points: 2
#     Edge 32, Type (0, 0), BuildingBlock: XUDNAN_clean_linker_2, # of connection points: 2
#     Edge 33, Type (0, 0), BuildingBlock: XUDNAN_clean_linker_2, # of connection points: 2
#     Edge 34, Type (0, 0), BuildingBlock: XUDNAN_clean_linker_2, # of connection points: 2
#     Edge 35, Type (0, 0), BuildingBlock: XUDNAN_clean_linker_2, # of connection points: 2
#     Edge 36, Type (0, 0), BuildingBlock: XUDNAN_clean_linker_2, # of connection points: 2
#     Edge 37, Type (0, 0), BuildingBlock: XUDNAN_clean_linker_2, # of connection points: 2
#     Edge 38, Type (0, 0), BuildingBlock: XUDNAN_clean_linker_2, # of connection points: 2
#     Edge 39, Type (0, 0), BuildingBlock: XUDNAN_clean_linker_2, # of connection points: 2
#     Edge 40, Type (0, 0), BuildingBlock: XUDNAN_clean_linker_2, # of connection points: 2
#     Edge 41, Type (0, 0), BuildingBlock: XUDNAN_clean_linker_2, # of connection points: 2
#     Edge 42, Type (0, 0), BuildingBlock: XUDNAN_clean_linker_2, # of connection points: 2
#     Edge 43, Type (0, 0), BuildingBlock: XUDNAN_clean_linker_2, # of connection points: 2
#     Edge 44, Type (0, 0), BuildingBlock: XUDNAN_clean_linker_2, # of connection points: 2
#     Edge 45, Type (0, 0), BuildingBlock: XUDNAN_clean_linker_2, # of connection points: 2
#     Edge 46, Type (0, 0), BuildingBlock: XUDNAN_clean_linker_2, # of connection points: 2
#     Edge 47, Type (0, 0), BuildingBlock: XUDNAN_clean_linker_2, # of connection points: 2
#     Edge 48, Type (0, 0), BuildingBlock: XUDNAN_clean_linker_2, # of connection points: 2
#     Edge 49, Type (0, 0), BuildingBlock: XUDNAN_clean_linker_2, # of connection points: 2
#     Edge 50, Type (0, 0), BuildingBlock: XUDNAN_clean_linker_2, # of connection points: 2
#     Edge 51, Type (0, 0), BuildingBlock: XUDNAN_clean_linker_2, # of connection points: 2
#     Edge 52, Type (0, 0), BuildingBlock: XUDNAN_clean_linker_2, # of connection points: 2
#     Edge 53, Type (0, 0), BuildingBlock: XUDNAN_clean_linker_2, # of connection points: 2
#     Edge 54, Type (0, 0), BuildingBlock: XUDNAN_clean_linker_2, # of connection points: 2
#     Edge 55, Type (0, 0), BuildingBlock: XUDNAN_clean_linker_2, # of connection points: 2
#     Edge 56, Type (0, 0), BuildingBlock: XUDNAN_clean_linker_2, # of connection points: 2
#     Edge 57, Type (0, 0), BuildingBlock: XUDNAN_clean_linker_2, # of connection points: 2
#     Edge 58, Type (0, 0), BuildingBlock: XUDNAN_clean_linker_2, # of connection points: 2
#     Edge 59, Type (0, 0), BuildingBlock: XUDNAN_clean_linker_2, # of connection points: 2
#     Edge 60, Type (0, 0), BuildingBlock: XUDNAN_clean_linker_2, # of connection points: 2
#     Edge 61, Type (0, 0), BuildingBlock: XUDNAN_clean_linker_2, # of connection points: 2
#     Edge 62, Type (0, 0), BuildingBlock: XUDNAN_clean_linker_2, # of connection points: 2
#     Edge 63, Type (0, 0), BuildingBlock: XUDNAN_clean_linker_2, # of connection points: 2
#     Edge 64, Type (0, 0), BuildingBlock: XUDNAN_clean_linker_2, # of connection points: 2
#     Edge 65, Type (0, 0), BuildingBlock: XUDNAN_clean_linker_2, # of connection points: 2
#     Edge 66, Type (0, 0), BuildingBlock: XUDNAN_clean_linker_2, # of connection points: 2
#     Edge 67, Type (0, 0), BuildingBlock: XUDNAN_clean_linker_2, # of connection points: 2
#     Edge 68, Type (0, 0), BuildingBlock: XUDNAN_clean_linker_2, # of connection points: 2
#     Edge 69, Type (0, 0), BuildingBlock: XUDNAN_clean_linker_2, # of connection points: 2
#     Edge 70, Type (0, 0), BuildingBlock: XUDNAN_clean_linker_2, # of connection points: 2
#     Edge 71, Type (0, 0), BuildingBlock: XUDNAN_clean_linker_2, # of connection points: 2
# Relax obj value: 0.213
# Max RMSD: 0.239
# Mean RMSD: 0.239
data_MOF--net-xfe--node1-NUHQUE_clean_sbu_2--edge1-XUDNAN_clean_linker_2
_symmetry_space_group_name_H-M    P1
_symmetry_Int_Tables_number       1
_symmetry_cell_setting            triclinic
loop_
_symmetry_equiv_pos_as_xyz
'x, y, z'
_cell_length_a     38.99178
_cell_length_b     38.974591
_cell_length_c     49.788147
_cell_angle_alpha  90.12083
_cell_angle_beta   90.104496
_cell_angle_gamma 90.016416
loop_
_atom_site_label
_atom_site_type_symbol
_atom_site_fract_x
_atom_site_fract_y
_atom_site_fract_z
_atom_type_partial_charge
O0 O 0.05618 0.10668 0.07058 0.0
Tb1 Tb 1.01298 0.0952 0.09765 0.0
Eu2 Eu 1.00698 0.07644 0.16696 0.0
C3 C 0.08692 0.11272 0.08081 0.0
O4 O 0.09245 0.10445 0.10602 0.0
C5 C 1.02164 0.15103 0.1439 0.0
O6 O 0.98146 0.06537 0.2063 0.0
C7 C 0.06877 0.05286 0.1728 0.0
C8 C 0.94968 0.05471 0.20836 0.0
O9 O 0.92999 0.0537 0.18695 0.0
C10 C 0.97764 0.02836 0.12022 0.0
C11 C 0.09131 1.02351 0.17945 0.0
C12 C 0.12562 1.02628 0.17125 0.0
C13 C 0.14981 1.0017 0.17891 0.0
C14 C 0.1393 0.97365 0.19424 0.0
C15 C 0.10539 0.96971 0.20251 0.0
C16 C 0.08096 0.99503 0.19537 0.0
O17 O 0.03483 0.13632 0.12249 0.0
O18 O 1.00344 0.13356 0.16136 0.0
O19 O 0.98154 0.10589 0.06246 0.0
O20 O 0.96188 0.11773 0.10136 0.0
C21 C 0.95539 0.11797 0.07566 0.0
O22 O 0.97092 0.04325 0.14329 0.0
O23 O 1.00261 0.03994 0.10444 0.0
O24 O 0.05081 0.0662 0.19244 0.0
O25 O 0.05332 0.05395 0.14924 0.0
H26 H 0.13365 0.0479 0.15908 0.0
H27 H 0.15762 0.95366 0.19922 0.0
H28 H 0.05466 0.99275 0.2021 0.0
O29 O 0.21759 0.77173 0.31497 0.0
Tb30 Tb 0.23019 0.73637 0.34803 0.0
Eu31 Eu 0.24493 0.73299 0.41802 0.0
C32 C 0.20657 0.80341 0.31907 0.0
O33 O 0.21033 0.81721 0.34298 0.0
C34 C 0.17362 0.74919 0.39112 0.0
O35 O 0.25343 0.70787 0.45787 0.0
C36 C 0.27035 0.79415 0.42467 0.0
C37 C 0.26948 0.67849 0.46055 0.0
O38 O 0.27289 0.6581 0.4397 0.0
C39 C 0.29654 0.7038 0.37274 0.0
C40 C 0.30159 0.81561 0.42811 0.0
C41 C 0.30273 0.84601 0.41311 0.0
C42 C 0.33054 0.86868 0.41516 0.0
C43 C 0.35778 0.8601 0.4323 0.0
C44 C 0.35658 0.83135 0.44898 0.0
C45 C 0.32825 0.80867 0.44692 0.0
O46 O 0.19344 0.76377 0.37317 0.0
O47 O 0.18741 0.73145 0.4108 0.0
O48 O 0.21837 0.70181 0.31515 0.0
O49 O 0.20874 0.68506 0.35515 0.0
C50 C 0.20744 0.67656 0.32979 0.0
O51 O 0.28024 0.69721 0.3953 0.0
O52 O 0.28524 0.72784 0.35598 0.0
O53 O 0.26087 0.7744 0.44461 0.0
O54 O 0.26381 0.78099 0.40078 0.0
H55 H 0.28122 0.85224 0.40021 0.0
H56 H 0.38042 0.87618 0.43319 0.0
H57 H 0.327 0.78622 0.45967 0.0
O58 O 0.55214 0.94539 0.56767 0.0
Tb59 Tb 0.58928 0.95872 0.59959 0.0
Eu60 Eu 0.59802 0.97607 0.66986 0.0
C61 C 0.52089 0.93349 0.57237 0.0
O62 O 0.50828 0.93576 0.59675 0.0
C63 C 0.58255 0.90321 0.64467 0.0
O64 O 0.62546 0.98362 0.70913 0.0
C65 C 0.53672 0.99993 0.6788 0.0
C66 C 0.65492 0.99979 0.71087 0.0
O67 O 0.67298 1.00493 0.68902 0.0
C68 C 0.62315 1.02614 0.62241 0.0
C69 C 0.51545 0.03158 0.67981 0.0
C70 C 0.48773 0.03296 0.66184 0.0
C71 C 0.46686 0.06178 0.66123 0.0
C72 C 0.47569 0.09049 0.67637 0.0
C73 C 0.49675 0.08725 0.69905 0.0
C74 C 0.51847 0.05775 0.69996 0.0
O75 O 0.56579 0.9203 0.62605 0.0
O76 O 0.60225 0.91919 0.66212 0.0
O77 O 0.62184 0.94713 0.56529 0.0
O78 O 0.64227 0.94078 0.60464 0.0
C79 C 0.64872 0.93831 0.57901 0.0
O80 O 0.63114 1.01079 0.64506 0.0
O81 O 0.5981 1.01425 0.60666 0.0
O82 O 0.55938 0.99487 0.69786 0.0
O83 O 0.54708 0.98923 0.655 0.0
H84 H 0.48145 1.01107 0.64927 0.0
H85 H 0.46171 0.11391 0.67244 0.0
H86 H 0.53646 0.05448 0.71631 0.0
O87 O 0.38728 0.27987 0.82416 0.0
Tb88 Tb 0.37662 0.32197 0.85288 0.0
Eu89 Eu 0.35779 0.32436 0.92282 0.0
C90 C 0.39982 0.25009 0.83248 0.0
O91 O 0.39851 0.24266 0.85816 0.0
C92 C 0.43273 0.31356 0.89968 0.0
O93 O 0.3431 0.35596 0.95846 0.0
C94 C 0.33522 0.26267 0.93081 0.0
C95 C 0.34166 0.38954 0.95676 0.0
O96 O 0.35497 0.40485 0.93573 0.0
C97 C 0.30996 0.35678 0.87563 0.0
C98 C 0.30602 0.23863 0.93441 0.0
C99 C 0.30262 0.21278 0.91497 0.0
C100 C 0.27857 0.18689 0.91822 0.0
C101 C 0.25768 0.18621 0.94082 0.0
C102 C 0.25815 0.21274 0.9598 0.0
C103 C 0.28342 0.23886 0.95696 0.0
O104 O 0.41829 0.30126 0.87777 0.0
O105 O 0.41482 0.32915 0.91842 0.0
O106 O 0.39297 0.35289 0.81879 0.0
O107 O 0.39399 0.37497 0.858 0.0
C108 C 0.3998 0.38043 0.83261 0.0
O109 O 0.3243 0.36002 0.89933 0.0
O110 O 0.32116 0.33366 0.85801 0.0
O111 O 0.34348 0.28362 0.95052 0.0
O112 O 0.34087 0.27534 0.9066 0.0
H113 H 0.31857 0.21283 0.89713 0.0
H114 H 0.23973 0.16509 0.94279 0.0
H115 H 0.28532 0.25907 0.97185 0.0
O116 O 0.05385 0.9446 0.9086 0.0
Tb117 Tb 1.00662 0.95631 0.88577 0.0
Eu118 Eu 0.99453 0.97225 0.81394 0.0
C119 C 0.07843 0.9253 0.89818 0.0
O120 O 0.07807 0.91918 0.87225 0.0
C121 C 1.01417 0.89713 0.83854 0.0
O122 O 0.96079 0.97094 0.77734 0.0
C123 C 0.0455 1.01144 0.80158 0.0
C124 C 0.92946 0.98284 0.77917 0.0
O125 O 0.91262 0.97731 0.80156 0.0
C126 C 0.96792 1.01754 0.86072 0.0
C127 C 0.07474 0.03388 0.79454 0.0
C128 C 0.1038 0.03367 0.81122 0.0
C129 C 0.13206 0.05399 0.80498 0.0
C130 C 0.13212 0.07368 0.78164 0.0
C131 C 0.10293 0.07621 0.7656 0.0
C132 C 0.07395 0.05603 0.77189 0.0
O133 O 1.01181 0.90752 0.86381 0.0
O134 O 1.00965 0.91709 0.81748 0.0
O135 O 0.98283 0.96199 0.92519 0.0
O136 O 0.95529 0.93649 0.89398 0.0
C137 C 0.95435 0.94662 0.91887 0.0
O138 O 0.95677 0.99723 0.8417 0.0
O139 O 0.99717 1.00982 0.87286 0.0
O140 O 1.02081 1.00438 0.78452 0.0
O141 O 0.04237 0.99727 0.82549 0.0
H142 H 0.10396 1.01898 0.82969 0.0
H143 H 0.15387 0.09036 0.77765 0.0
H144 H 0.05099 0.05808 0.75971 0.0
O145 O 0.38239 0.77722 0.16414 0.0
Tb146 Tb 0.36951 0.74023 0.132 0.0
Eu147 Eu 0.35333 0.72941 0.06186 0.0
C148 C 0.39557 0.808 0.15959 0.0
O149 O 0.39515 0.82026 0.13505 0.0
C150 C 0.42478 0.74775 0.08724 0.0
O151 O 0.34873 0.7013 0.02265 0.0
C152 C 0.32862 0.79044 0.05298 0.0
C153 C 0.33473 0.67074 0.02106 0.0
O154 O 0.32942 0.65326 0.04319 0.0
C155 C 0.30318 0.70437 0.10896 0.0
C156 C 0.29668 0.81134 0.05324 0.0
C157 C 0.29299 0.835 0.07426 0.0
C158 C 0.26437 0.8563 0.07558 0.0
C159 C 0.23804 0.85217 0.05672 0.0
C160 C 0.24304 0.8334 0.03295 0.0
C161 C 0.27247 0.81179 0.03173 0.0
O162 O 0.40652 0.76488 0.10496 0.0
O163 O 0.40994 0.72661 0.07027 0.0
O164 O 0.377 0.70482 0.1652 0.0
O165 O 0.39568 0.69085 0.12654 0.0
C166 C 0.39259 0.68119 0.15147 0.0
O167 O 0.31894 0.69595 0.0866 0.0
O168 O 0.3144 0.73015 0.12422 0.0
O169 O 0.33232 0.76726 0.03408 0.0
O170 O 0.34116 0.78064 0.07636 0.0
H171 H 0.31333 0.83792 0.08897 0.0
H172 H 0.21433 0.8659 0.06002 0.0
H173 H 0.27726 0.7964 0.01403 0.0
O174 O 0.55251 0.11243 0.41613 0.0
Tb175 Tb 0.58738 0.09688 0.38385 0.0
Eu176 Eu 0.59589 0.08383 0.31527 0.0
C177 C 0.51891 0.11401 0.41328 0.0
O178 O 0.50443 0.09968 0.39223 0.0
C179 C 0.57108 0.15217 0.34119 0.0
O180 O 0.62366 0.07493 0.27637 0.0
C181 C 0.53496 0.05842 0.30798 0.0
C182 C 0.65418 0.06081 0.27562 0.0
O183 O 0.67378 0.06247 0.29703 0.0
C184 C 0.62184 0.03143 0.36058 0.0
C185 C 0.51106 0.02951 0.30298 0.0
C186 C 0.47872 0.03218 0.31514 0.0
C187 C 0.45309 1.00813 0.30969 0.0
C188 C 0.46013 0.98057 0.29261 0.0
C189 C 0.49227 0.9764 0.28069 0.0
C190 C 0.51805 1.00137 0.28552 0.0
O191 O 0.5571 0.13043 0.35808 0.0
O192 O 0.59419 0.141 0.32407 0.0
O193 O 0.6244 0.10437 0.41577 0.0
O194 O 0.63595 0.12389 0.37675 0.0
C195 C 0.64703 0.12041 0.40139 0.0
O196 O 0.63052 0.04856 0.33887 0.0
O197 O 0.59629 0.0421 0.37607 0.0
O198 O 0.55451 0.0691 0.28829 0.0
O199 O 0.5486 0.06239 0.332 0.0
H200 H 0.47323 0.05341 0.3286 0.0
H201 H 0.44056 0.96121 0.2892 0.0
H202 H 0.54293 0.99888 0.27608 0.0
O203 O 0.22708 0.27718 0.66113 0.0
Tb204 Tb 0.2374 0.31562 0.63009 0.0
Eu205 Eu 0.24597 0.32874 0.56425 0.0
C206 C 0.21836 0.24528 0.6553 0.0
O207 O 0.2237 0.23357 0.6309 0.0
C208 C 0.17663 0.30741 0.58924 0.0
O209 O 0.24854 0.35518 0.52466 0.0
C210 C 0.2693 0.26725 0.55593 0.0
C211 C 0.26277 0.38546 0.52237 0.0
O212 O 0.26367 0.406 0.5433 0.0
C213 C 0.30135 0.35366 0.60622 0.0
C214 C 0.29995 0.24517 0.55286 0.0
C215 C 0.30201 0.21653 0.56982 0.0
C216 C 0.32873 0.19285 0.56722 0.0
C217 C 0.35443 0.19901 0.54826 0.0
C218 C 0.35153 0.2253 0.52945 0.0
C219 C 0.32437 0.24909 0.53189 0.0
O220 O 0.1957 0.29133 0.60709 0.0
O221 O 0.19019 0.33056 0.57349 0.0
O222 O 0.22966 0.34938 0.66421 0.0
O223 O 0.21051 0.36437 0.62568 0.0
C224 C 0.2137 0.37304 0.65082 0.0
O225 O 0.28252 0.36337 0.58582 0.0
O226 O 0.29199 0.32718 0.62133 0.0
O227 O 0.26169 0.28863 0.5365 0.0
O228 O 0.26217 0.27917 0.58007 0.0
H229 H 0.28189 0.21206 0.58441 0.0
H230 H 0.37643 0.18207 0.54699 0.0
H231 H 0.32173 0.2695 0.5173 0.0
O232 O 0.87992 0.28089 0.65449 0.0
Tb233 Tb 0.87133 0.23307 0.63159 0.0
Eu234 Eu 0.85808 0.23344 0.5596 0.0
C235 C 0.89369 0.30821 0.64308 0.0
O236 O 0.89524 0.30923 0.61674 0.0
C237 C 0.9329 0.24011 0.58659 0.0
O238 O 0.84944 0.20952 0.51911 0.0
C239 C 0.8323 0.29459 0.55517 0.0
C240 C 0.83967 0.17751 0.51619 0.0
O241 O 0.84052 0.15677 0.53694 0.0
C242 C 0.8069 0.19997 0.60208 0.0
C243 C 0.79907 0.31311 0.55336 0.0
C244 C 0.78439 0.32514 0.57729 0.0
C245 C 0.75456 0.34442 0.57649 0.0
C246 C 0.73882 0.3521 0.55207 0.0
C247 C 0.75258 0.34119 0.52769 0.0
C248 C 0.78294 0.32108 0.52833 0.0
O249 O 0.92014 0.2435 0.61103 0.0
O250 O 0.91467 0.23205 0.56525 0.0
O251 O 0.87602 0.21449 0.67255 0.0
O252 O 0.88826 0.18058 0.64032 0.0
C253 C 0.88657 0.18386 0.66635 0.0
O254 O 0.82519 0.19473 0.58044 0.0
O255 O 0.81686 0.22242 0.62066 0.0
O256 O 0.84157 0.276 0.53442 0.0
O257 O 0.8405 0.2805 0.57842 0.0
H258 H 0.79607 0.31976 0.59661 0.0
H259 H 0.71476 0.36612 0.55233 0.0
H260 H 0.79414 0.31233 0.50965 0.0
O261 O 0.72348 0.78 0.15987 0.0
Tb262 Tb 0.73158 0.81845 0.12831 0.0
Eu263 Eu 0.73803 0.8258 0.05825 0.0
C264 C 0.71542 0.74761 0.15524 0.0
O265 O 0.72085 0.73434 0.13137 0.0
C266 C 0.6717 0.80369 0.08774 0.0
O267 O 0.74595 0.8569 0.02108 0.0
C268 C 0.76594 0.76601 0.0498 0.0
C269 C 0.75001 0.89025 0.02286 0.0
O270 O 0.73944 0.9062 0.0446 0.0
C271 C 0.79359 0.85489 0.10023 0.0
C272 C 0.79944 0.74758 0.04816 0.0
C273 C 0.8107 0.73097 0.07159 0.0
C274 C 0.84063 0.71161 0.0716 0.0
C275 C 0.86005 0.70908 0.0482 0.0
C276 C 0.84838 0.72207 0.02366 0.0
C277 C 0.81807 0.74245 0.02375 0.0
O278 O 0.69453 0.78974 0.10388 0.0
O279 O 0.68181 0.82471 0.06875 0.0
O280 O 0.7198 0.84557 0.16507 0.0
O281 O 0.70473 0.86821 0.12785 0.0
C282 C 0.70488 0.87167 0.15398 0.0
O283 O 0.77255 0.86227 0.08048 0.0
O284 O 0.78546 0.83146 0.11849 0.0
O285 O 0.75679 0.78656 0.03017 0.0
O286 O 0.75679 0.77751 0.07367 0.0
H287 H 0.79567 0.73216 0.08988 0.0
H288 H 0.88362 0.69439 0.04872 0.0
H289 H 0.80848 0.75298 0.00509 0.0
O290 O 0.72935 0.28982 0.82835 0.0
Tb291 Tb 0.73629 0.2448 0.85432 0.0
Eu292 Eu 0.75028 0.22875 0.92314 0.0
C293 C 0.69913 0.2945 0.81679 0.0
O294 O 0.67581 0.27043 0.81959 0.0
C295 C 0.67881 0.25375 0.89928 0.0
O296 O 0.7482 0.19777 0.96089 0.0
C297 C 0.78124 0.2861 0.93535 0.0
C298 C 0.75943 0.16609 0.9602 0.0
O299 O 0.76249 0.15079 0.93681 0.0
C300 C 0.79921 0.20531 0.87641 0.0
C301 C 0.81231 0.30717 0.93007 0.0
C302 C 0.81391 0.32575 0.90589 0.0
C303 C 0.84107 0.34799 0.90111 0.0
C304 C 0.86888 0.3484 0.91886 0.0
C305 C 0.8653 0.33614 0.9452 0.0
C306 C 0.83727 0.31392 0.95048 0.0
O307 O 0.69578 0.2678 0.87915 0.0
O308 O 0.69356 0.23305 0.91666 0.0
O309 O 0.72889 0.2125 0.81887 0.0
O310 O 0.70831 0.19623 0.85643 0.0
C311 C 0.71192 0.18841 0.83114 0.0
O312 O 0.77992 0.19387 0.89583 0.0
O313 O 0.79071 0.2338 0.86358 0.0
O314 O 0.78493 0.25787 0.94936 0.0
O315 O 0.75875 0.28282 0.9157 0.0
H316 H 0.7928 0.32516 0.89171 0.0
H317 H 0.89098 0.36394 0.91368 0.0
H318 H 0.83373 0.3037 0.97049 0.0
O319 O 0.86912 0.78082 0.32275 0.0
Tb320 Tb 0.86273 0.81866 0.35495 0.0
Eu321 Eu 0.85828 0.82433 0.42373 0.0
C322 C 0.87662 0.74838 0.32761 0.0
O323 O 0.87192 0.73616 0.35189 0.0
C324 C 0.92467 0.80241 0.39357 0.0
O325 O 0.84724 0.85108 0.46261 0.0
C326 C 0.83059 0.76413 0.42728 0.0
C327 C 0.8439 0.88454 0.46435 0.0
O328 O 0.85446 0.90409 0.44456 0.0
C329 C 0.8034 0.85666 0.38379 0.0
C330 C 0.80233 0.73932 0.43097 0.0
C331 C 0.80713 0.70745 0.4185 0.0
C332 C 0.78216 0.68183 0.41995 0.0
C333 C 0.752 0.68851 0.43431 0.0
C334 C 0.74662 0.71958 0.4478 0.0
C335 C 0.77218 0.74541 0.44631 0.0
O336 O 0.90152 0.78941 0.37715 0.0
O337 O 0.91481 0.82204 0.41365 0.0
O338 O 0.86933 0.85251 0.32091 0.0
O339 O 0.89177 0.86668 0.35848 0.0
C340 C 0.88708 0.87572 0.3335 0.0
O341 O 0.82561 0.86363 0.40287 0.0
O342 O 0.80961 0.83172 0.36634 0.0
O343 O 0.84302 0.78067 0.44814 0.0
O344 O 0.83358 0.7805 0.40428 0.0
H345 H 0.83061 0.7027 0.40746 0.0
H346 H 0.73173 0.6695 0.43472 0.0
H347 H 0.76851 0.76975 0.45645 0.0
O348 O 0.55207 0.60755 0.56726 0.0
Tb349 Tb 0.51605 0.59693 0.60036 0.0
Eu350 Eu 0.50105 0.58953 0.66978 0.0
C351 C 0.58278 0.62137 0.57089 0.0
O352 O 0.59596 0.62217 0.59516 0.0
C353 C 0.52806 0.6557 0.64221 0.0
O354 O 0.4716 0.58402 0.70843 0.0
C355 C 0.55981 0.56039 0.67962 0.0
C356 C 0.44128 0.56943 0.70926 0.0
O357 O 0.42439 0.56411 0.68684 0.0
C358 C 0.47741 0.53467 0.62557 0.0
C359 C 0.57256 0.52466 0.68278 0.0
C360 C 0.57529 0.50362 0.65988 0.0
C361 C 0.5869 0.47001 0.66222 0.0
C362 C 0.5957 0.45692 0.68734 0.0
C363 C 0.59499 0.47729 0.71035 0.0
C364 C 0.58345 0.51161 0.70812 0.0
O365 O 0.54331 0.63298 0.62667 0.0
O366 O 0.50422 0.64572 0.6591 0.0
O367 O 0.47887 0.60054 0.56794 0.0
O368 O 0.46926 0.62772 0.60437 0.0
C369 C 0.45766 0.62059 0.58042 0.0
O370 O 0.46696 0.55464 0.64525 0.0
O371 O 0.5048 0.54312 0.61117 0.0
O372 O 0.53963 0.57208 0.69859 0.0
O373 O 0.54977 0.5697 0.65543 0.0
H374 H 0.56956 0.51347 0.64002 0.0
H375 H 0.60648 0.43126 0.6886 0.0
H376 H 0.58311 0.52792 0.72576 0.0
O377 O 0.04745 0.44987 0.08352 0.0
Tb378 Tb 0.09662 0.45679 0.1049 0.0
Eu379 Eu 0.09937 0.47208 0.1763 0.0
C380 C 0.03162 0.4198 0.08139 0.0
O381 O 0.0431 0.39346 0.09497 0.0
C382 C 0.08679 0.39643 0.15031 0.0
O383 O 0.12786 0.47019 0.21555 0.0
C384 C 0.04648 0.51018 0.18493 0.0
C385 C 0.16062 0.47769 0.21665 0.0
O386 O 0.17862 0.47746 0.1944 0.0
C387 C 0.1334 0.51841 0.13288 0.0
C388 C 1.01631 0.53211 0.19004 0.0
C389 C 0.98775 0.52923 0.17299 0.0
C390 C 0.95833 0.5486 0.17793 0.0
C391 C 0.95697 0.57018 0.20031 0.0
C392 C 0.98607 0.57606 0.21597 0.0
C393 C 1.0158 0.5564 0.21129 0.0
O394 O 0.09458 0.40701 0.12583 0.0
O395 O 0.08512 0.41684 0.17138 0.0
O396 O 0.11651 0.46176 0.0641 0.0
O397 O 0.14794 0.43909 0.09424 0.0
C398 C 0.14625 0.44822 0.06919 0.0
O399 O 0.14086 0.49854 0.15313 0.0
O400 O 0.10714 0.51043 0.11724 0.0
O401 O 0.06893 0.50321 0.20379 0.0
O402 O 0.05296 0.49671 0.16114 0.0
H403 H 0.98886 0.51322 0.15517 0.0
H404 H 0.93469 0.58657 0.20305 0.0
H405 H 0.03856 0.56085 0.22331 0.0
O406 O 0.56084 0.45569 0.40776 0.0
Tb407 Tb 0.51363 0.46491 0.38416 0.0
Eu408 Eu 0.51455 0.47521 0.31274 0.0
C409 C 0.58587 0.43677 0.39759 0.0
O410 O 0.58544 0.43001 0.37175 0.0
C411 C 0.5202 0.40055 0.341 0.0
O412 O 0.49072 0.4857 0.27239 0.0
C413 C 0.57394 0.50472 0.31041 0.0
C414 C 0.45827 0.49386 0.26916 0.0
O415 O 0.43683 0.49067 0.2893 0.0
C416 C 0.47683 0.52502 0.35398 0.0
C417 C 0.59516 0.53548 0.30541 0.0
C418 C 0.62636 0.53697 0.31938 0.0
C419 C 0.65079 0.56191 0.31318 0.0
C420 C 0.64303 0.58692 0.29407 0.0
C421 C 0.61269 0.58574 0.27916 0.0
C422 C 0.58833 0.55978 0.28478 0.0
O423 O 0.51959 0.4143 0.36525 0.0
O424 O 0.5176 0.41805 0.3185 0.0
O425 O 0.48679 0.46323 0.42264 0.0
O426 O 0.46225 0.44408 0.38721 0.0
C427 C 0.45904 0.44936 0.41284 0.0
O428 O 0.47253 0.50474 0.33323 0.0
O429 O 0.50084 0.51814 0.37205 0.0
O430 O 0.55905 0.49011 0.28969 0.0
O431 O 0.55673 0.50195 0.3331 0.0
H432 H 0.63243 0.51739 0.33409 0.0
H433 H 0.66151 0.60705 0.28989 0.0
H434 H 0.5652 0.5578 0.27279 0.0
O435 O 0.0453 0.60349 0.91006 0.0
Tb436 Tb 0.08798 0.59308 0.88205 0.0
Eu437 Eu 0.08891 0.57659 0.81244 0.0
C438 C 1.01472 0.61248 0.90078 0.0
O439 O 1.0082 0.60845 0.87508 0.0
C440 C 0.07655 0.65126 0.83748 0.0
O441 O 0.11396 0.57056 0.77256 0.0
C442 C 0.02827 0.55049 0.80487 0.0
C443 C 0.1448 0.5579 0.76943 0.0
O444 O 0.16685 0.55866 0.78938 0.0
C445 C 0.12315 0.52797 0.85642 0.0
C446 C 1.00684 0.52007 0.79816 0.0
C447 C 0.97395 0.51896 0.80965 0.0
C448 C 0.95043 0.4937 0.80186 0.0
C449 C 0.96086 0.46779 0.78427 0.0
C450 C 0.99254 0.46867 0.77137 0.0
C451 C 1.01576 0.49543 0.77811 0.0
O452 O 0.06671 0.63697 0.86011 0.0
O453 O 0.0913 0.63362 0.81822 0.0
O454 O 0.12253 0.59964 0.91612 0.0
O455 O 0.13793 0.61775 0.87749 0.0
C456 C 0.14694 0.61442 0.90256 0.0
O457 O 0.12753 0.54331 0.8333 0.0
O458 O 0.09878 0.53829 0.87325 0.0
O459 O 0.04712 0.56349 0.78563 0.0
O460 O 0.04212 0.5534 0.829 0.0
H461 H 0.96612 0.53873 0.82372 0.0
H462 H 0.94298 0.44745 0.77923 0.0
H463 H 0.03996 0.49738 0.76762 0.0
H464 H 0.04454 0.20085 0.10873 0.0
H465 H 1.01833 0.18393 0.1924 0.0
H466 H 0.03366 0.24387 0.20282 0.0
H467 H 0.11648 0.25682 0.11942 0.0
H468 H 0.10651 0.28486 0.09174 0.0
H469 H 0.09368 0.24047 0.09058 0.0
H470 H 0.03067 0.25891 0.08254 0.0
H471 H 0.04333 0.30335 0.08368 0.0
H472 H 1.01036 0.28787 0.10587 0.0
H473 H 0.05207 0.30504 0.20463 0.0
H474 H 0.06984 0.3648 0.19754 0.0
H475 H 0.0842 0.34359 0.11253 0.0
C476 C 0.04208 0.20976 0.12925 0.0
C477 C 0.0303 0.1875 0.14979 0.0
C478 C 1.02714 0.20035 0.17631 0.0
C479 C 0.0359 0.2344 0.18245 0.0
C480 C 0.04746 0.25557 0.16184 0.0
C481 C 0.05028 0.24396 0.13571 0.0
C482 C 0.06255 0.27255 0.11729 0.0
C483 C 0.09685 0.2631 0.10398 0.0
C484 C 0.0351 0.28117 0.0961 0.0
C485 C 0.06684 0.30176 0.13733 0.0
C486 C 0.05785 0.2913 0.16285 0.0
C487 C 0.05914 0.31357 0.18472 0.0
C488 C 0.0694 0.3476 0.18044 0.0
C489 C 0.07837 0.35938 0.15443 0.0
C490 C 0.07741 0.33576 0.13267 0.0
H491 H 0.97876 0.80018 0.43082 0.0
H492 H 0.95368 0.78124 0.34707 0.0
H493 H 1.01339 0.76449 0.33835 0.0
H494 H 0.06375 0.83401 0.42041 0.0
H495 H 0.08268 0.81302 0.44906 0.0
H496 H 0.03775 0.82383 0.44923 0.0
H497 H 1.02241 0.76044 0.45897 0.0
H498 H 0.06732 0.74944 0.45882 0.0
H499 H 0.03794 0.72726 0.43683 0.0
H500 H 0.07606 0.75349 0.33737 0.0
H501 H 0.13783 0.74422 0.34504 0.0
H502 H 0.12421 0.7648 0.43001 0.0
C503 C 0.98593 0.79256 0.41068 0.0
C504 C 0.96132 0.79228 0.3896 0.0
C505 C 0.9718 0.7817 0.3636 0.0
C506 C 1.00579 0.77215 0.35839 0.0
C507 C 0.02935 0.77267 0.37943 0.0
C508 C 1.01997 0.78214 0.40515 0.0
C509 C 0.05069 0.77952 0.42408 0.0
C510 C 0.05922 0.81469 0.43642 0.0
C511 C 0.04419 0.75256 0.44598 0.0
C512 C 0.07875 0.76777 0.40483 0.0
C513 C 0.06567 0.7643 0.37914 0.0
C514 C 0.08649 0.75564 0.35746 0.0
C515 C 0.1216 0.75046 0.36202 0.0
C516 C 0.13581 0.75327 0.38813 0.0
C517 C 0.11395 0.76176 0.40992 0.0
H518 H 0.52491 0.86232 0.64907 0.0
H519 H 0.63549 0.85875 0.64089 0.0
H520 H 0.63331 0.79532 0.63925 0.0
H521 H 0.51998 0.788 0.69375 0.0
H522 H 0.4799 0.77285 0.68006 0.0
H523 H 0.48977 0.81802 0.67964 0.0
H524 H 0.48024 0.81926 0.62815 0.0
H525 H 0.47037 0.77411 0.62845 0.0
H526 H 0.50397 0.79011 0.60704 0.0
H527 H 0.61906 0.73291 0.63576 0.0
H528 H 0.59455 0.67459 0.63558 0.0
H529 H 0.49348 0.71679 0.65077 0.0
C530 C 0.54858 0.84802 0.64704 0.0
C531 C 0.58045 0.86527 0.64508 0.0
C532 C 0.61094 0.84591 0.64261 0.0
C533 C 0.6099 0.80993 0.64154 0.0
C534 C 0.5782 0.79359 0.64361 0.0
C535 C 0.5481 0.81188 0.64678 0.0
C536 C 0.51769 0.78767 0.64973 0.0
C537 C 0.50084 0.79189 0.67744 0.0
C538 C 0.49153 0.79312 0.62698 0.0
C539 C 0.53537 0.75301 0.64725 0.0
C540 C 0.57023 0.75719 0.64339 0.0
C541 C 0.5919 0.72929 0.6392 0.0
C542 C 0.57771 0.69623 0.63906 0.0
C543 C 0.54222 0.69106 0.64356 0.0
C544 C 0.52081 0.71992 0.64785 0.0
H545 H 0.48245 0.29579 0.86273 0.0
H546 H 0.46659 0.31402 0.94789 0.0
H547 H 0.52739 0.3005 0.95659 0.0
H548 H 0.54204 0.22567 0.86945 0.0
H549 H 0.56894 0.23863 0.84187 0.0
H550 H 0.524 0.24924 0.8417 0.0
H551 H 0.53842 0.31337 0.83596 0.0
H552 H 0.58351 0.3033 0.83585 0.0
H553 H 0.56687 0.33407 0.85954 0.0
H554 H 0.58893 0.28286 0.95664 0.0
H555 H 0.64899 0.26639 0.94758 0.0
H556 H 0.62718 0.26358 0.86216 0.0
C557 C 0.49177 0.29693 0.88322 0.0
C558 C 0.46959 0.30594 0.90468 0.0
C559 C 0.48295 0.30734 0.93113 0.0
C560 C 0.51748 0.29959 0.93628 0.0
C561 C 0.53859 0.29087 0.91476 0.0
C562 C 0.52644 0.28983 0.88869 0.0
C563 C 0.55498 0.28048 0.8692 0.0
C564 C 0.54701 0.24648 0.85472 0.0
C565 C 0.56131 0.30955 0.84895 0.0
C566 C 0.58503 0.27659 0.88846 0.0
C567 C 0.57477 0.28222 0.91466 0.0
C568 C 0.59737 0.27872 0.93619 0.0
C569 C 0.6314 0.2693 0.93087 0.0
C570 C 0.6428 0.26412 0.90421 0.0
C571 C 0.61928 0.26799 0.88271 0.0
H572 H 0.05886 0.70097 0.87475 0.0
H573 H 0.07642 0.68519 0.78947 0.0
H574 H 0.06242 0.74581 0.78095 0.0
H575 H 0.98823 0.75838 0.86899 0.0
H576 H 1.00098 0.78627 0.89617 0.0
H577 H 1.01324 0.74176 0.89655 0.0
H578 H 0.07708 0.75817 0.90099 0.0
H579 H 0.06536 0.80289 0.9013 0.0
H580 H 0.0959 0.78727 0.87707 0.0
H581 H 0.04504 0.80726 0.78107 0.0
H582 H 0.02771 0.86682 0.78999 0.0
H583 H 1.02277 0.84451 0.87542 0.0
C584 C 0.05975 0.71027 0.85428 0.0
C585 C 0.06863 0.68811 0.83274 0.0
C586 C 0.06978 0.70149 0.80632 0.0
C587 C 0.0618 0.73594 0.80124 0.0
C588 C 0.05305 0.75698 0.82281 0.0
C589 C 0.05229 0.74486 0.84886 0.0
C590 C 0.04249 0.7733 0.86836 0.0
C591 C 1.00924 0.76439 0.88338 0.0
C592 C 0.07196 0.78084 0.88809 0.0
C593 C 0.03714 0.80298 0.84906 0.0
C594 C 0.04347 0.79291 0.82292 0.0
C595 C 0.04008 0.8155 0.80147 0.0
C596 C 0.03009 0.84938 0.80679 0.0
C597 C 1.02363 0.86063 0.83342 0.0
C598 C 1.02732 0.8369 0.85481 0.0
H599 H 0.46513 0.80564 0.08237 0.0
H600 H 0.46944 0.69545 0.09337 0.0
H601 H 0.53279 0.69815 0.09535 0.0
H602 H 0.53868 0.80956 0.03797 0.0
H603 H 0.55384 0.85017 0.05068 0.0
H604 H 0.50875 0.84013 0.05172 0.0
H605 H 0.50812 0.85135 0.103 0.0
H606 H 0.55319 0.86148 0.10212 0.0
H607 H 0.53768 0.82852 0.12435 0.0
H608 H 0.59506 0.71289 0.09817 0.0
H609 H 0.65327 0.7376 0.09691 0.0
H610 H 0.61038 0.83771 0.0791 0.0
C611 C 0.47958 0.7822 0.08523 0.0
C612 C 0.46261 0.75027 0.0878 0.0
C613 C 0.48212 0.72004 0.09124 0.0
C614 C 0.51804 0.72138 0.0925 0.0
C615 C 0.53414 0.75311 0.08971 0.0
C616 C 0.51568 0.78296 0.08574 0.0
C617 C 0.53965 0.81337 0.08191 0.0
C618 C 0.53495 0.82924 0.0539 0.0
C619 C 0.53434 0.84026 0.10417 0.0
C620 C 0.5744 0.79594 0.0845 0.0
C621 C 0.57045 0.76127 0.08945 0.0
C622 C 0.5985 0.73988 0.0939 0.0
C623 C 0.63148 0.75417 0.09316 0.0
C624 C 0.6364 0.78941 0.08742 0.0
C625 C 0.6074 0.81053 0.08293 0.0
H626 H 0.57321 0.35845 0.32421 0.0
H627 H 0.47023 0.35738 0.35676 0.0
H628 H 0.47165 0.29399 0.35844 0.0
H629 H 0.56756 0.28094 0.2834 0.0
H630 H 0.61014 0.26628 0.29165 0.0
H631 H 0.60068 0.31153 0.29165 0.0
H632 H 0.62222 0.31631 0.34073 0.0
H633 H 0.63173 0.27107 0.34091 0.0
H634 H 0.60382 0.28904 0.36609 0.0
H635 H 0.48451 0.23161 0.3584 0.0
H636 H 0.50783 0.17305 0.3568 0.0
H637 H 0.60337 0.21224 0.32434 0.0
C638 C 0.55081 0.34466 0.33115 0.0
C639 C 0.5212 0.3626 0.33976 0.0
C640 C 0.49282 0.34397 0.34966 0.0
C641 C 0.49347 0.30801 0.35074 0.0
C642 C 0.52294 0.29096 0.3422 0.0
C643 C 0.55122 0.30852 0.33271 0.0
C644 C 0.58024 0.28367 0.32625 0.0
C645 C 0.59023 0.28573 0.29646 0.0
C646 C 0.61134 0.29043 0.34458 0.0
C647 C 0.56345 0.24942 0.33284 0.0
C648 C 0.53051 0.25449 0.34228 0.0
C649 C 0.51014 0.22729 0.35082 0.0
C650 C 0.5237 0.19403 0.34982 0.0
C651 C 0.55729 0.18782 0.34009 0.0
C652 C 0.57736 0.21601 0.33133 0.0
H653 H 0.12952 0.28129 0.62544 0.0
H654 H 0.14239 0.31055 0.54195 0.0
H655 H 0.08246 0.29479 0.53267 0.0
H656 H 0.07211 0.2092 0.61434 0.0
H657 H 0.04535 0.21841 0.64294 0.0
H658 H 0.08994 0.23057 0.64333 0.0
H659 H 0.07281 0.29345 0.65342 0.0
H660 H 0.02818 0.28148 0.65307 0.0
H661 H 0.04326 0.31517 0.63135 0.0
H662 H 1.02256 0.27556 0.53159 0.0
H663 H 0.96311 0.25754 0.53934 0.0
H664 H 0.98561 0.24337 0.62415 0.0
C665 C 0.11967 0.28404 0.6052 0.0
C666 C 0.14068 0.2969 0.58433 0.0
C667 C 0.12681 0.30077 0.55822 0.0
C668 C 0.0928 0.29179 0.55271 0.0
C669 C 0.07272 0.27937 0.5736 0.0
C670 C 0.0853 0.27579 0.59941 0.0
C671 C 0.05729 0.26326 0.61825 0.0
C672 C 0.06675 0.22828 0.63043 0.0
C673 C 0.04996 0.28993 0.64032 0.0
C674 C 1.02729 0.26013 0.59881 0.0
C675 C 0.03709 0.26932 0.57317 0.0
C676 C 1.01446 0.2683 0.55156 0.0
C677 C 0.98071 0.25781 0.55619 0.0
C678 C 0.96956 0.2488 0.58231 0.0
C679 C 0.9933 0.25003 0.60393 0.0
H680 H 0.19067 0.19174 0.95619 0.0
H681 H 0.26604 0.22824 0.01383 0.0
H682 H 0.22694 0.21178 0.05081 0.0
H683 H 0.11138 0.20977 -0.00566 0.0
H684 H 0.0917 0.17009 0.98378 0.0
H685 H 0.122 0.19135 0.96216 0.0
H686 H 0.15823 0.13593 0.95999 0.0
H687 H 0.1284 0.11454 0.98184 0.0
H688 H 0.17319 0.1166 0.99071 0.0
H689 H 0.18378 0.18336 0.08134 0.0
H690 H 0.13971 0.1482 0.10332 0.0
H691 H 0.09372 0.12572 0.02579 0.0
C692 C 0.199 0.19678 0.97658 0.0
C693 C 0.232 0.21099 0.98197 0.0
C694 C 0.24109 0.2177 0.009 0.0
C695 C 0.21905 0.2081 0.03016 0.0
C696 C 0.18799 0.19177 0.02402 0.0
C697 C 0.17786 0.18642 -0.00218 0.0
C698 C 0.14524 0.16494 -0.00358 0.0
C699 C 0.11583 0.18527 0.98342 0.0
C700 C 0.15166 0.131 0.98135 0.0
C701 C 0.13862 0.15863 0.02607 0.0
C702 C 0.16351 0.17459 0.04158 0.0
C703 C 0.16413 0.17102 0.06937 0.0
C704 C 0.139 0.15063 0.08166 0.0
C705 C 0.11321 0.13375 0.06638 0.0
C706 C 0.11291 0.13825 0.03812 0.0
H707 H 0.10791 0.96374 0.25676 0.0
H708 H 0.09475 0.90514 0.18372 0.0
H709 H 0.11564 0.85312 0.20683 0.0
H710 H 0.18278 0.93316 0.27431 0.0
H711 H 0.17695 0.93034 0.31015 0.0
H712 H 0.15201 0.96035 0.29099 0.0
H713 H 0.09531 0.93399 0.30841 0.0
H714 H 0.11996 0.90468 0.32871 0.0
H715 H 0.08836 0.88841 0.3055 0.0
H716 H 0.15095 0.81116 0.23524 0.0
H717 H 0.18787 0.78118 0.26829 0.0
H718 H 0.17787 0.86762 0.32273 0.0
C719 C 0.10691 0.93938 0.24629 0.0
C720 C 0.0986 0.93836 0.21865 0.0
C721 C 0.09966 0.9063 0.20513 0.0
C722 C 0.11216 0.87668 0.21804 0.0
C723 C 0.12293 0.87927 0.24473 0.0
C724 C 0.11921 0.90958 0.25899 0.0
C725 C 0.13567 0.90673 0.28655 0.0
C726 C 0.16349 0.93428 0.29071 0.0
C727 C 0.1082 0.90856 0.3086 0.0
C728 C 0.15121 0.87113 0.28495 0.0
C729 C 0.14325 0.85537 0.26086 0.0
C730 C 0.15663 0.8231 0.25439 0.0
C731 C 0.17792 0.80636 0.27321 0.0
C732 C 0.18602 0.82193 0.29821 0.0
C733 C 0.17232 0.85482 0.3039 0.0
H734 H 0.35574 0.84877 0.50222 0.0
H735 H 0.42258 0.81323 0.43878 0.0
H736 H 0.47306 0.83334 0.46447 0.0
H737 H 0.39563 0.92318 0.5152 0.0
H738 H 0.39165 0.92355 0.55127 0.0
H739 H 0.36124 0.90005 0.53121 0.0
H740 H 0.37477 0.84401 0.55696 0.0
H741 H 0.40439 0.86751 0.5779 0.0
H742 H 0.41863 0.8299 0.56001 0.0
H743 H 0.51498 0.86839 0.49287 0.0
H744 H 0.54579 0.90521 0.52553 0.0
H745 H 0.4522 0.9162 0.57171 0.0
C746 C 0.38114 0.84319 0.49461 0.0
C747 C 0.38519 0.8284 0.46881 0.0
C748 C 0.41888 0.82334 0.45886 0.0
C749 C 0.44772 0.83524 0.47318 0.0
C750 C 0.44268 0.85177 0.49775 0.0
C751 C 0.41029 0.85466 0.50886 0.0
C752 C 0.41161 0.8754 0.53475 0.0
C753 C 0.38867 0.90744 0.53298 0.0
C754 C 0.40177 0.85286 0.55884 0.0
C755 C 0.44933 0.88515 0.53581 0.0
C756 C 0.46689 0.87126 0.51431 0.0
C757 C 0.50154 0.8787 0.51009 0.0
C758 C 0.5188 0.90002 0.52864 0.0
C759 C 0.50161 0.9137 0.55135 0.0
C760 C 0.4663 0.90606 0.55474 0.0
H761 H 0.38623 0.22677 0.78084 0.0
H762 H 0.46199 0.2227 0.84446 0.0
H763 H 0.49794 0.1839 0.81698 0.0
H764 H 0.39089 0.13841 0.76465 0.0
H765 H 0.38452 0.14459 0.72912 0.0
H766 H 0.36744 0.17518 0.75261 0.0
H767 H 0.40016 0.22386 0.72806 0.0
H768 H 0.41769 0.19311 0.70476 0.0
H769 H 0.44594 0.22057 0.72378 0.0
H770 H 0.52584 0.14324 0.78117 0.0
H771 H 0.53882 0.10324 0.74366 0.0
H772 H 0.43941 0.12833 0.70891 0.0
C773 C 0.41061 0.2181 0.78876 0.0
C774 C 0.4214 0.22804 0.81471 0.0
C775 C 0.45319 0.21546 0.82459 0.0
C776 C 0.47392 0.19348 0.80906 0.0
C777 C 0.46239 0.18359 0.78367 0.0
C778 C 0.43121 0.19529 0.77379 0.0
C779 C 0.4231 0.17864 0.74705 0.0
C780 C 0.38952 0.15797 0.74846 0.0
C781 C 0.42164 0.20566 0.72459 0.0
C782 C 0.45404 0.15538 0.74373 0.0
C783 C 0.47708 0.15908 0.76446 0.0
C784 C 0.50776 0.14024 0.76482 0.0
C785 C 0.51489 0.11726 0.74338 0.0
C786 C 0.49113 0.11255 0.72201 0.0
C787 C 0.45996 0.13178 0.72317 0.0
H788 H 0.20239 0.891 0.02307 0.0
H789 H 0.22869 0.79199 0.98807 0.0
H790 H 0.19002 0.80489 0.94996 0.0
H791 H 0.11114 0.88421 0.00621 0.0
H792 H 0.10729 0.92991 0.00166 0.0
H793 H 0.1379 0.91303 0.02535 0.0
H794 H 0.18635 0.94637 0.00153 0.0
H795 H 0.1562 0.96306 0.97749 0.0
H796 H 0.19345 0.93987 0.9661 0.0
H797 H 0.14952 0.83079 0.91436 0.0
H798 H 0.10903 0.86419 0.88673 0.0
H799 H 0.10393 0.94231 0.94877 0.0
C800 C 0.19961 0.8709 0.00827 0.0
C801 C 0.21887 0.83979 0.00953 0.0
C802 C 0.21486 0.81604 0.98807 0.0
C803 C 0.19261 0.82308 0.96629 0.0
C804 C 0.1738 0.85368 0.96633 0.0
C805 C 0.1767 0.87683 0.98712 0.0
C806 C 0.15306 0.90744 0.98319 0.0
C807 C 0.12573 0.90871 0.00542 0.0
C808 C 0.17351 0.94116 0.982 0.0
C809 C 0.13714 0.89876 0.95622 0.0
C810 C 0.14951 0.86765 0.94678 0.0
C811 C 0.13961 0.85494 0.92177 0.0
C812 C 0.11668 0.87433 0.90611 0.0
C813 C 0.10329 0.9061 0.91544 0.0
C814 C 0.11353 0.91817 0.94105 0.0
H815 H 0.48971 0.97006 0.22581 0.0
H816 H 0.49803 0.91148 0.2992 0.0
H817 H 0.4771 0.85985 0.2755 0.0
H818 H 0.41607 0.93958 0.20335 0.0
H819 H 0.42581 0.93571 0.16809 0.0
H820 H 0.44894 0.96599 0.18849 0.0
H821 H 0.50688 0.93851 0.17507 0.0
H822 H 0.48413 0.90873 0.15373 0.0
H823 H 0.51297 0.89298 0.17918 0.0
H824 H 0.44294 0.81843 0.24623 0.0
H825 H 0.40906 0.78765 0.21165 0.0
H826 H 0.42511 0.87215 0.15648 0.0
C827 C 0.48937 0.9458 0.23635 0.0
C828 C 0.4964 0.94467 0.26423 0.0
C829 C 0.4939 0.91271 0.27769 0.0
C830 C 0.48149 0.88331 0.26443 0.0
C831 C 0.47245 0.88585 0.23739 0.0
C832 C 0.47761 0.91592 0.22319 0.0
C833 C 0.46401 0.91236 0.19469 0.0
C834 C 0.43711 0.94006 0.18831 0.0
C835 C 0.49376 0.9132 0.17446 0.0
C836 C 0.44795 0.87687 0.19576 0.0
C837 C 0.45346 0.86174 0.22044 0.0
C838 C 0.43924 0.82978 0.22662 0.0
C839 C 0.41968 0.81257 0.20689 0.0
C840 C 0.41425 0.82729 0.1812 0.0
C841 C 0.4287 0.85997 0.17581 0.0
H842 H 0.35135 0.17615 0.49149 0.0
H843 H 0.40769 0.26565 0.51804 0.0
H844 H 0.45713 0.24778 0.48981 0.0
H845 H 0.42065 0.12101 0.4972 0.0
H846 H 0.40894 0.09387 0.46931 0.0
H847 H 0.37631 0.11682 0.4875 0.0
H848 H 0.35529 0.14546 0.44343 0.0
H849 H 0.38733 0.12187 0.42504 0.0
H850 H 0.38558 0.16799 0.42257 0.0
H851 H 0.50346 0.21447 0.46364 0.0
H852 H 0.53918 0.17371 0.43763 0.0
H853 H 0.45184 0.10578 0.42892 0.0
C854 C 0.37342 0.19297 0.49017 0.0
C855 C 0.37525 0.22299 0.50616 0.0
C856 C 0.40527 0.24333 0.50518 0.0
C857 C 0.43364 0.23298 0.48953 0.0
C858 C 0.4316 0.20208 0.4752 0.0
C859 C 0.40194 0.18268 0.47514 0.0
C860 C 0.40698 0.14893 0.46044 0.0
C861 C 0.40297 0.11837 0.47976 0.0
C862 C 0.38234 0.14591 0.43643 0.0
C863 C 0.44384 0.15258 0.4514 0.0
C864 C 0.45792 0.18307 0.46053 0.0
C865 C 0.49241 0.19084 0.45612 0.0
C866 C 0.51261 0.16736 0.44154 0.0
C867 C 0.49827 0.1366 0.43116 0.0
C868 C 0.46344 0.12922 0.43635 0.0
H869 H 0.133 0.07589 0.71626 0.0
H870 H 0.0791 0.1408 0.77266 0.0
H871 H 0.10167 0.19234 0.74975 0.0
H872 H 0.20653 0.12123 0.71402 0.0
H873 H 0.21555 0.1163 0.67872 0.0
H874 H 0.19018 0.08464 0.69584 0.0
H875 H 0.14016 0.09294 0.66214 0.0
H876 H 0.16584 0.12374 0.64418 0.0
H877 H 0.12377 0.13547 0.65601 0.0
H878 H 0.13935 0.23616 0.72581 0.0
H879 H 0.1799 0.26902 0.69762 0.0
H880 H 0.20753 0.17553 0.65551 0.0
C881 C 0.1242 0.10097 0.72262 0.0
C882 C 0.10325 0.10437 0.7456 0.0
C883 C 0.0939 0.13765 0.75442 0.0
C884 C 0.10713 0.16707 0.74178 0.0
C885 C 0.12934 0.16281 0.72006 0.0
C886 C 0.1369 0.13057 0.71001 0.0
C887 C 0.16303 0.13278 0.68753 0.0
C888 C 0.19574 0.11253 0.69446 0.0
C889 C 0.14726 0.12051 0.66088 0.0
C890 C 0.16994 0.17105 0.68706 0.0
C891 C 0.15042 0.18798 0.70606 0.0
C892 C 0.15417 0.22317 0.7105 0.0
C893 C 0.17762 0.24159 0.69458 0.0
C894 C 0.19695 0.22493 0.67427 0.0
C895 C 0.19304 0.18911 0.67072 0.0
H896 H 0.91416 0.89079 0.92821 0.0
H897 H 0.92682 0.99832 0.94816 0.0
H898 H 0.87311 0.9968 0.97468 0.0
H899 H 0.82424 0.887 0.92218 0.0
H900 H 0.81936 0.84658 0.93931 0.0
H901 H 0.8586 0.85603 0.92184 0.0
H902 H 0.89363 0.84522 0.96534 0.0
H903 H 0.85448 0.83503 0.98272 0.0
H904 H 0.88243 0.868 -0.00436 0.0
H905 H 0.81728 0.9837 -0.00221 0.0
H906 H 0.76709 0.95841 0.02069 0.0
H907 H 0.79258 0.85884 0.98683 0.0
C908 C 0.90549 0.91389 0.93825 0.0
C909 C 0.92405 0.94476 0.93613 0.0
C910 C 0.91268 0.97448 0.94977 0.0
C911 C 0.88222 0.97387 0.96468 0.0
C912 C 0.86412 0.9431 0.96618 0.0
C913 C 0.87576 0.91343 0.95391 0.0
C914 C 0.8527 0.88325 0.96009 0.0
C915 C 0.83784 0.8673 0.93431 0.0
C916 C 0.87195 0.8563 0.97695 0.0
C917 C 0.82531 0.90098 0.97653 0.0
C918 C 0.83246 0.93541 0.98 0.0
C919 C 0.81139 0.95676 -0.00476 0.0
C920 C 0.78283 0.94223 0.008 0.0
C921 C 0.77567 0.90677 0.00536 0.0
C922 C 0.79687 0.88618 0.9889 0.0
H923 H 0.89125 0.11401 0.65921 0.0
H924 H 0.90286 0.19507 0.71841 0.0
H925 H 0.91708 0.1521 0.75296 0.0
H926 H 0.84974 0.05524 0.70319 0.0
H927 H 0.86986 1.01742 0.68953 0.0
H928 H 0.86335 0.05451 0.66861 0.0
H929 H 0.92833 0.05608 0.65764 0.0
H930 H 0.93497 1.01886 0.67841 0.0
H931 H 0.95905 0.05753 0.68473 0.0
H932 H 0.92897 0.10147 0.78103 0.0
H933 H 0.93503 0.04473 0.80222 0.0
H934 H 0.91392 0.99508 0.72605 0.0
C935 C 0.89722 0.12258 0.67939 0.0
C936 C 0.89614 0.15773 0.68625 0.0
C937 C 0.90352 0.16818 0.71286 0.0
C938 C 0.91175 0.14403 0.73256 0.0
C939 C 0.91217 0.10953 0.72533 0.0
C940 C 0.90501 0.09865 0.69948 0.0
C941 C 0.90535 0.05978 0.69765 0.0
C942 C 0.86997 0.04593 0.68925 0.0
C943 C 0.93362 0.04734 0.67847 0.0
C944 C 0.91356 0.05062 0.72654 0.0
C945 C 0.91763 0.07985 0.74201 0.0
C946 C 0.92527 0.07839 0.76926 0.0
C947 C 0.92832 0.04614 0.78118 0.0
C948 C 0.92371 1.01588 0.76591 0.0
C949 C 0.91678 1.01802 0.73816 0.0
H950 H 0.67872 0.09524 0.44537 0.0
H951 H 0.69069 0.16936 0.38126 0.0
H952 H 0.74594 0.18831 0.40134 0.0
H953 H 0.71027 0.14543 0.49805 0.0
H954 H 0.73187 0.1106 0.51476 0.0
H955 H 0.69493 0.10204 0.49418 0.0
H956 H 0.73066 0.05864 0.46617 0.0
H957 H 0.76783 0.06754 0.4866 0.0
H958 H 0.77002 0.07252 0.45066 0.0
H959 H 0.79662 0.20252 0.4312 0.0
H960 H 0.83848 0.21091 0.46794 0.0
H961 H 0.79419 0.12478 0.51072 0.0
C962 C 0.69316 0.11524 0.4354 0.0
C963 C 0.68069 0.13098 0.41185 0.0
C964 C 0.70013 0.15695 0.39926 0.0
C965 C 0.73144 0.16777 0.4105 0.0
C966 C 0.74301 0.15172 0.43389 0.0
C967 C 0.72453 0.1258 0.44603 0.0
C968 C 0.74177 0.11335 0.47144 0.0
C969 C 0.71832 0.11818 0.49604 0.0
C970 C 0.75325 0.07579 0.46853 0.0
C971 C 0.77223 0.13726 0.47237 0.0
C972 C 0.77272 0.15903 0.45045 0.0
C973 C 0.79689 0.18518 0.44815 0.0
C974 C 0.82059 0.1897 0.46909 0.0
C975 C 0.81987 0.16819 0.49199 0.0
C976 C 0.79598 0.14107 0.49318 0.0
H977 H 0.7157 0.94145 0.15358 0.0
H978 H 0.65764 0.86032 0.19178 0.0
H979 H 0.63603 0.90139 0.22546 0.0
H980 H 0.74349 0.97974 0.21309 0.0
H981 H 0.74089 1.02357 0.20179 0.0
H982 H 0.74785 0.98958 0.17789 0.0
H983 H 0.69435 1.00883 0.15084 0.0
H984 H 0.68756 0.04323 0.1745 0.0
H985 H 0.65367 1.01296 0.1677 0.0
H986 H 0.62534 0.94833 0.25719 0.0
H987 H 0.62388 1.00072 0.28504 0.0
H988 H 0.69018 0.05254 0.22826 0.0
C989 C 0.69736 0.9329 0.16844 0.0
C990 C 0.68744 0.89812 0.16985 0.0
C991 C 0.66479 0.88712 0.19021 0.0
C992 C 0.65252 0.91019 0.20942 0.0
C993 C 0.66348 0.94411 0.20813 0.0
C994 C 0.68519 0.95567 0.18814 0.0
C995 C 0.69514 0.99288 0.19297 0.0
C996 C 0.73415 0.99664 0.19665 0.0
C997 C 0.68188 1.01583 0.17014 0.0
C998 C 0.67622 1.00001 0.21901 0.0
C999 C 0.65795 0.97145 0.22716 0.0
C1000 C 0.6392 0.97098 0.25091 0.0
C1001 C 0.63867 1.00068 0.26662 0.0
C1002 C 0.65696 0.03024 0.25864 0.0
C1003 C 0.67606 0.03005 0.23462 0.0
H1004 H 0.82053 0.13362 0.95672 0.0
H1005 H 0.74835 0.17633 0.01386 0.0
H1006 H 0.79053 0.16728 0.05052 0.0
H1007 H 0.86169 0.07015 -0.00029 0.0
H1008 H 0.90355 0.07884 0.986 0.0
H1009 H 0.86591 0.0846 0.9655 0.0
H1010 H 0.88426 0.14726 0.95605 0.0
H1011 H 0.92163 0.14209 0.97692 0.0
H1012 H 0.89161 0.17613 0.9838 0.0
H1013 H 0.84215 0.15639 0.0802 0.0
H1014 H 0.8987 0.14394 0.10075 0.0
H1015 H 0.93757 0.11249 0.02292 0.0
C1016 C 0.81306 0.13982 0.97711 0.0
C1017 C 0.78089 0.15468 0.98275 0.0
C1018 C 0.77266 0.16415 0.0094 0.0
C1019 C 0.79649 0.15931 0.03023 0.0
C1020 C 0.8285 0.14557 0.02382 0.0
C1021 C 0.83676 0.13601 -0.00213 0.0
C1022 C 0.87379 0.12489 -0.00435 0.0
C1023 C 0.87637 0.08739 0.98617 0.0
C1024 C 0.89399 0.14903 0.97701 0.0
C1025 C 0.88499 0.12896 0.02457 0.0
C1026 C 0.85856 0.14095 0.04052 0.0
C1027 C 0.86299 0.14691 0.06793 0.0
C1028 C 0.89514 0.13989 0.07939 0.0
C1029 C 0.92233 0.12732 0.06338 0.0
C1030 C 0.9172 0.12214 0.03562 0.0
H1031 H 0.71059 0.04094 0.72076 0.0
H1032 H 0.61545 1.00496 0.75611 0.0
H1033 H 0.6219 0.04694 0.79279 0.0
H1034 H 0.7542 0.06041 0.78693 0.0
H1035 H 0.77548 0.09729 0.77293 0.0
H1036 H 0.76615 0.06065 0.75198 0.0
H1037 H 0.73364 0.10009 0.71882 0.0
H1038 H 0.74234 0.13672 0.73973 0.0
H1039 H 0.6987 0.12621 0.73098 0.0
H1040 H 0.63539 0.09695 0.82299 0.0
H1041 H 0.65617 0.15019 0.845 0.0
H1042 H 0.7409 0.15479 0.7889 0.0
C1043 C 0.69168 0.04111 0.73667 0.0
C1044 C 0.66262 1.01953 0.73557 0.0
C1045 C 0.63815 1.02097 0.75659 0.0
C1046 C 0.64153 0.04481 0.77754 0.0
C1047 C 0.66978 0.06667 0.77743 0.0
C1048 C 0.69475 0.06465 0.7578 0.0
C1049 C 0.72145 0.09251 0.76136 0.0
C1050 C 0.75639 0.07678 0.76874 0.0
C1051 C 0.72415 0.11522 0.73622 0.0
C1052 C 0.70636 0.11189 0.78492 0.0
C1053 C 0.67708 0.09603 0.7944 0.0
C1054 C 0.6585 0.10937 0.81594 0.0
C1055 C 0.67038 0.13957 0.82825 0.0
C1056 C 0.69992 0.15644 0.81848 0.0
C1057 C 0.71805 0.14242 0.79656 0.0
H1058 H 0.79196 0.85096 0.48909 0.0
H1059 H 0.84202 0.95017 0.48461 0.0
H1060 H 0.79928 0.9739 0.51652 0.0
H1061 H 0.70801 0.88462 0.48781 0.0
H1062 H 0.69037 0.85214 0.50952 0.0
H1063 H 0.7269 0.84244 0.48881 0.0
H1064 H 0.76134 0.82373 0.53077 0.0
H1065 H 0.72495 0.83317 0.55175 0.0
H1066 H 0.76584 0.85294 0.55869 0.0
H1067 H 0.75009 0.98652 0.5483 0.0
H1068 H 0.69594 0.98855 0.57433 0.0
H1069 H 0.67648 0.88195 0.55492 0.0
C1070 C 0.79456 0.87746 0.49536 0.0
C1071 C 0.82083 0.89858 0.48505 0.0
C1072 C 0.82241 0.9335 0.49275 0.0
C1073 C 0.79828 0.94711 0.51081 0.0
C1074 C 0.77255 0.92552 0.52051 0.0
C1075 C 0.77037 0.89154 0.51277 0.0
C1076 C 0.73866 0.87441 0.52398 0.0
C1077 C 0.71456 0.86274 0.50118 0.0
C1078 C 0.74829 0.84429 0.5424 0.0
C1079 C 0.72347 0.9039 0.53975 0.0
C1080 C 0.74353 0.9331 0.53768 0.0
C1081 C 0.7344 0.96375 0.55024 0.0
C1082 C 0.70385 0.96463 0.56508 0.0
C1083 C 0.68285 0.93517 0.567 0.0
C1084 C 0.6927 0.9045 0.55419 0.0
H1085 H 0.89628 1.01023 0.21518 0.0
H1086 H 0.98091 0.05869 0.25741 0.0
H1087 H 0.97064 1.02129 0.29648 0.0
H1088 H 0.84155 0.99367 0.27598 0.0
H1089 H 0.82748 0.95306 0.26252 0.0
H1090 H 0.8375 0.98796 0.24017 0.0
H1091 H 0.87987 0.94876 0.21517 0.0
H1092 H 0.87149 0.91383 0.23768 0.0
H1093 H 0.91481 0.92898 0.2332 0.0
H1094 H 0.95555 0.97396 0.32878 0.0
H1095 H 0.93595 0.92092 0.35166 0.0
H1096 H 0.86329 0.90272 0.28714 0.0
C1097 C 0.91181 1.01388 0.23301 0.0
C1098 C 0.93917 0.03752 0.23337 0.0
C1099 C 0.95962 0.04085 0.2568 0.0
C1100 C 0.95398 1.01975 0.27911 0.0
C1101 C 0.92768 0.99565 0.2777 0.0
C1102 C 0.90667 0.99289 0.25535 0.0
C1103 C 0.88243 0.96279 0.25775 0.0
C1104 C 0.84502 0.97512 0.2592 0.0
C1105 C 0.88752 0.93706 0.23459 0.0
C1106 C 0.89415 0.94817 0.28432 0.0
C1107 C 0.91973 0.96783 0.29586 0.0
C1108 C 0.93519 0.95861 0.32012 0.0
C1109 C 0.92404 0.92852 0.33292 0.0
C1110 C 0.89826 0.90795 0.32107 0.0
C1111 C 0.88313 0.91805 0.29659 0.0
H1112 H 0.73756 0.7233 0.50255 0.0
H1113 H 0.6821 0.71677 0.42736 0.0
H1114 H 0.63158 0.69397 0.45112 0.0
H1115 H 0.71339 0.65101 0.53039 0.0
H1116 H 0.70623 0.66514 0.56443 0.0
H1117 H 0.73515 0.6885 0.54319 0.0
H1118 H 0.70086 0.74461 0.55059 0.0
H1119 H 0.67232 0.72174 0.57274 0.0
H1120 H 0.6553 0.74498 0.54446 0.0
H1121 H 0.59234 0.65941 0.48158 0.0
H1122 H 0.56346 0.62669 0.51764 0.0
H1123 H 0.64296 0.65816 0.5736 0.0
C1124 C 0.71404 0.71922 0.49141 0.0
C1125 C 0.71376 0.72222 0.4631 0.0
C1126 C 0.68274 0.71534 0.44909 0.0
C1127 C 0.65397 0.70191 0.46241 0.0
C1128 C 0.65597 0.69664 0.49005 0.0
C1129 C 0.68465 0.70652 0.5046 0.0
C1130 C 0.68074 0.69657 0.53393 0.0
C1131 C 0.71066 0.67395 0.54351 0.0
C1132 C 0.6771 0.72889 0.55148 0.0
C1133 C 0.64725 0.67667 0.53303 0.0
C1134 C 0.63294 0.67754 0.50766 0.0
C1135 C 0.60296 0.65933 0.50168 0.0
C1136 C 0.58685 0.64048 0.52227 0.0
C1137 C 0.60083 0.63959 0.54857 0.0
C1138 C 0.63149 0.65808 0.55378 0.0
H1139 H 0.57418 0.41903 0.73521 0.0
H1140 H 0.6528 0.49731 0.73779 0.0
H1141 H 0.68858 0.45969 0.76668 0.0
H1142 H 0.58657 0.38203 0.80326 0.0
H1143 H 0.5793 0.33924 0.79067 0.0
H1144 H 0.55866 0.37525 0.77482 0.0
H1145 H 0.58474 0.35592 0.72931 0.0
H1146 H 0.60651 0.32078 0.74536 0.0
H1147 H 0.6306 0.35172 0.72625 0.0
H1148 H 0.71873 0.40915 0.7911 0.0
H1149 H 0.73721 0.35417 0.81164 0.0
H1150 H 0.63904 0.30907 0.79054 0.0
C1151 C 0.59816 0.42896 0.74305 0.0
C1152 C 0.61018 0.46162 0.73498 0.0
C1153 C 0.64248 0.47301 0.74454 0.0
C1154 C 0.66322 0.45148 0.76058 0.0
C1155 C 0.65134 0.41857 0.76684 0.0
C1156 C 0.61925 0.40765 0.75859 0.0
C1157 C 0.61336 0.3703 0.76565 0.0
C1158 C 0.58266 0.3665 0.78475 0.0
C1159 C 0.60852 0.34841 0.74013 0.0
C1160 C 0.64689 0.36181 0.77956 0.0
C1161 C 0.66869 0.38977 0.77997 0.0
C1162 C 0.70157 0.38732 0.79111 0.0
C1163 C 0.71198 0.35588 0.80263 0.0
C1164 C 0.68964 0.32717 0.80292 0.0
C1165 C 0.65682 0.33042 0.7909 0.0
H1166 H 0.99173 0.36165 0.07396 0.0
H1167 H 1.0088 0.46445 0.04306 0.0
H1168 H 0.96641 0.45354 0.00733 0.0
H1169 H 0.9835 0.3187 0.01186 0.0
H1170 H 0.94913 0.29048 0.02176 0.0
H1171 H 0.9787 0.30658 0.04659 0.0
H1172 H 0.92821 0.33116 0.07417 0.0
H1173 H 0.89838 0.31496 0.04947 0.0
H1174 H 0.89814 0.35982 0.05829 0.0
H1175 H 0.92329 0.43308 0.97593 0.0
H1176 H 0.88361 0.40345 0.94694 0.0
H1177 H 0.89508 0.30998 -0.0065 0.0
C1178 C 0.98617 0.38206 0.05989 0.0
C1179 C 1.00353 0.41419 0.06153 0.0
C1180 C 0.99568 0.43996 0.04256 0.0
C1181 C 0.97163 0.43393 0.02213 0.0
C1182 C 0.95534 0.40207 0.02098 0.0
C1183 C 0.96202 0.37648 0.03927 0.0
C1184 C 0.94111 0.34432 0.03263 0.0
C1185 C 0.96453 0.31318 0.02792 0.0
C1186 C 0.91491 0.33713 0.05497 0.0
C1187 C 0.923 0.35539 0.00688 0.0
C1188 C 0.93122 0.38918 0.00133 0.0
C1189 C 0.91719 0.40645 0.97978 0.0
C1190 C 0.89469 0.38885 0.96302 0.0
C1191 C 0.88693 0.35344 0.96658 0.0
C1192 C 0.90076 0.33667 0.98955 0.0
H1193 H 0.89919 0.68179 0.33228 0.0
H1194 H 0.89898 0.76838 0.27759 0.0
H1195 H 0.93572 0.73576 0.24618 0.0
H1196 H 0.98782 0.6552 0.31926 0.0
H1197 H 0.97791 0.61015 0.32165 0.0
H1198 H 0.95346 0.64099 0.3407 0.0
H1199 H 0.89692 0.6186 0.31927 0.0
H1200 H 0.92118 0.58723 0.30081 0.0
H1201 H 0.89333 0.61649 0.28319 0.0
H1202 H 0.9716 0.69295 0.2202 0.0
H1203 H 0.99495 0.64082 0.19867 0.0
H1204 H 0.97037 0.58159 0.26947 0.0
C1205 C 0.90676 0.69396 0.31368 0.0
C1206 C 0.89604 0.72775 0.30748 0.0
C1207 C 0.90665 0.74254 0.28285 0.0
C1208 C 0.92787 0.72432 0.26498 0.0
C1209 C 0.93848 0.69133 0.27201 0.0
C1210 C 0.92789 0.67614 0.29562 0.0
C1211 C 0.94116 0.63965 0.29776 0.0
C1212 C 0.96659 0.63631 0.32124 0.0
C1213 C 0.91137 0.61399 0.30039 0.0
C1214 C 0.95948 0.63597 0.27107 0.0
C1215 C 0.95865 0.6665 0.25691 0.0
C1216 C 0.97276 0.66913 0.2313 0.0
C1217 C 0.98644 0.63949 0.21936 0.0
C1218 C 0.98541 0.60746 0.23278 0.0
C1219 C 0.97267 0.60597 0.25926 0.0
H1220 H 0.62044 0.45777 0.44409 0.0
H1221 H 0.60666 0.37117 0.39029 0.0
H1222 H 0.64868 0.33772 0.41641 0.0
H1223 H 0.71137 0.44769 0.45154 0.0
H1224 H 0.71253 0.45967 0.48652 0.0
H1225 H 0.67943 0.47642 0.46494 0.0
H1226 H 0.63272 0.45266 0.49688 0.0
H1227 H 0.66578 0.43638 0.5187 0.0
H1228 H 0.63328 0.40786 0.50583 0.0
H1229 H 0.69338 0.31319 0.44841 0.0
H1230 H 0.73522 0.29995 0.48456 0.0
H1231 H 0.72375 0.40357 0.51521 0.0
C1232 C 0.62613 0.43171 0.43799 0.0
C1233 C 0.61033 0.41725 0.41496 0.0
C1234 C 0.6187 0.38305 0.4076 0.0
C1235 C 0.64252 0.36371 0.42239 0.0
C1236 C 0.65843 0.37889 0.44448 0.0
C1237 C 0.65056 0.41211 0.45232 0.0
C1238 C 0.67232 0.42261 0.47633 0.0
C1239 C 0.69527 0.45343 0.46941 0.0
C1240 C 0.64967 0.43032 0.50088 0.0
C1241 C 0.69354 0.39029 0.48057 0.0
C1242 C 0.685 0.36522 0.46217 0.0
C1243 C 0.70048 0.3328 0.4628 0.0
C1244 C 0.72461 0.32556 0.48319 0.0
C1245 C 0.73317 0.35063 0.50269 0.0
C1246 C 0.71793 0.3837 0.50066 0.0
H1247 H 0.98365 0.39865 0.77081 0.0
H1248 H 1.00431 0.48531 0.719 0.0
H1249 H 0.98376 0.45177 0.67999 0.0
H1250 H 1.00115 0.32796 0.71897 0.0
H1251 H 0.96645 0.30243 0.73204 0.0
H1252 H 0.9907 0.32993 0.7542 0.0
H1253 H 0.93417 0.35864 0.76923 0.0
H1254 H 0.90979 0.33234 0.74642 0.0
H1255 H 0.90679 0.37843 0.7445 0.0
H1256 H 0.9506 0.41361 0.64855 0.0
H1257 H 0.91566 0.37034 0.62503 0.0
H1258 H 0.91362 0.308 0.69716 0.0
C1259 C 0.98572 0.40983 0.75098 0.0
C1260 C 0.99611 0.44466 0.74798 0.0
C1261 C 0.99737 0.45865 0.72182 0.0
C1262 C 0.98512 0.43986 0.69957 0.0
C1263 C 0.97203 0.40687 0.70368 0.0
C1264 C 0.97311 0.39153 0.72863 0.0
C1265 C 0.95448 0.35709 0.72816 0.0
C1266 C 0.9797 0.3276 0.73366 0.0
C1267 C 0.92454 0.35663 0.74826 0.0
C1268 C 0.94156 0.35606 0.69929 0.0
C1269 C 0.95231 0.38494 0.68556 0.0
C1270 C 0.94265 0.39063 0.65899 0.0
C1271 C 0.92249 0.36588 0.64582 0.0
C1272 C 0.91169 0.33553 0.65905 0.0
C1273 C 0.92118 0.33088 0.68638 0.0
H1274 H 0.87607 0.6587 0.01315 0.0
H1275 H 0.86668 0.76035 0.97848 0.0
H1276 H 0.90815 0.74334 0.94288 0.0
H1277 H 0.96716 0.65615 0.00605 0.0
H1278 H 0.96844 0.61042 0.00072 0.0
H1279 H 0.93477 0.62907 0.0207 0.0
H1280 H 0.88895 0.60096 0.99003 0.0
H1281 H 0.92241 0.58189 0.97011 0.0
H1282 H 0.8903 0.60834 0.9543 0.0
H1283 H 0.95234 0.71388 0.91137 0.0
H1284 H 0.99451 0.67685 0.88807 0.0
H1285 H 0.98099 0.59833 0.94854 0.0
C1286 C 0.88256 0.67771 -0.00183 0.0
C1287 C 0.86809 0.71124 -0.001 0.0
C1288 C 0.87696 0.73454 0.97834 0.0
C1289 C 0.90085 0.72513 0.95822 0.0
C1290 C 0.91607 0.69252 0.95924 0.0
C1291 C 0.90727 0.66934 0.97892 0.0
C1292 C 0.92889 0.63696 0.97732 0.0
C1293 C 0.95113 0.63292 0.0027 0.0
C1294 C 0.90628 0.60516 0.97265 0.0
C1295 C 0.95079 0.64475 0.95298 0.0
C1296 C 0.9429 0.67685 0.9427 0.0
C1297 C 0.95879 0.68897 0.91952 0.0
C1298 C 0.98276 0.66775 0.90643 0.0
C1299 C 0.99134 0.6349 0.91668 0.0
C1300 C 0.97541 0.62352 0.9405 0.0
H1301 H 0.64848 0.58172 0.23314 0.0
H1302 H 0.57772 0.64683 0.27635 0.0
H1303 H 0.59455 0.69607 0.24767 0.0
H1304 H 0.71307 0.64111 0.23264 0.0
H1305 H 0.73059 0.62954 0.2004 0.0
H1306 H 0.70789 0.59809 0.21993 0.0
H1307 H 0.66554 0.58695 0.18067 0.0
H1308 H 0.68883 0.61743 0.16057 0.0
H1309 H 0.64332 0.6226 0.16553 0.0
H1310 H 0.62756 0.74032 0.21913 0.0
H1311 H 0.66672 0.77303 0.18952 0.0
H1312 H 0.71615 0.67831 0.16545 0.0
C1313 C 0.63497 0.60584 0.23539 0.0
C1314 C 0.61077 0.61012 0.25626 0.0
C1315 C 0.59524 0.64264 0.25981 0.0
C1316 C 0.60516 0.67087 0.24387 0.0
C1317 C 0.63085 0.66619 0.2246 0.0
C1318 C 0.64504 0.63421 0.22004 0.0
C1319 C 0.67475 0.63627 0.20049 0.0
C1320 C 0.70855 0.62561 0.21418 0.0
C1321 C 0.66767 0.61453 0.17531 0.0
C1322 C 0.67483 0.67424 0.19415 0.0
C1323 C 0.64974 0.6913 0.20857 0.0
C1324 C 0.64683 0.72699 0.20748 0.0
C1325 C 0.66946 0.74542 0.19081 0.0
C1326 C 0.69451 0.72822 0.17513 0.0
C1327 C 0.69711 0.69215 0.17699 0.0
H1328 H 0.28955 0.44523 0.50209 0.0
H1329 H 0.29612 0.33413 0.49645 0.0
H1330 H 0.34708 0.33919 0.46807 0.0
H1331 H 0.31869 0.45931 0.43098 0.0
H1332 H 0.34118 0.49816 0.4398 0.0
H1333 H 0.30321 0.48589 0.45803 0.0
H1334 H 0.33762 0.48916 0.5025 0.0
H1335 H 0.37583 0.50065 0.48443 0.0
H1336 H 0.376 0.46379 0.50628 0.0
H1337 H 0.39929 0.35515 0.44374 0.0
H1338 H 0.44787 0.38223 0.42 0.0
H1339 H 0.40843 0.48299 0.44024 0.0
C1340 C 0.3013 0.42211 0.49427 0.0
C1341 C 0.28877 0.3894 0.50131 0.0
C1342 C 0.30486 0.35955 0.49096 0.0
C1343 C 0.33404 0.36207 0.47496 0.0
C1344 C 0.34634 0.3946 0.46899 0.0
C1345 C 0.33016 0.42416 0.47769 0.0
C1346 C 0.34895 0.45587 0.46809 0.0
C1347 C 0.32669 0.476 0.44804 0.0
C1348 C 0.36029 0.47868 0.49175 0.0
C1349 C 0.37927 0.43936 0.45414 0.0
C1350 C 0.37686 0.40396 0.45465 0.0
C1351 C 0.40141 0.38281 0.44295 0.0
C1352 C 0.42885 0.3983 0.42969 0.0
C1353 C 0.43159 0.43437 0.42873 0.0
C1354 C 0.40683 0.45527 0.44122 0.0
H1355 H 0.40382 0.53744 0.26369 0.0
H1356 H 0.49174 0.49639 0.22108 0.0
H1357 H 0.48126 0.537 0.18398 0.0
H1358 H 0.3505 0.5573 0.20291 0.0
H1359 H 0.33427 0.59609 0.21801 0.0
H1360 H 0.34519 0.55989 0.23881 0.0
H1361 H 0.3854 0.59872 0.26672 0.0
H1362 H 0.37566 0.63494 0.24579 0.0
H1363 H 0.41959 0.62164 0.25027 0.0
H1364 H 0.46439 0.58544 0.15342 0.0
H1365 H 0.44294 0.63893 0.13235 0.0
H1366 H 0.36857 0.6501 0.1964 0.0
C1367 C 0.4201 0.53612 0.24612 0.0
C1368 C 0.44829 0.51343 0.24505 0.0
C1369 C 0.46976 0.51332 0.22214 0.0
C1370 C 0.46401 0.53628 0.20097 0.0
C1371 C 0.43668 0.55913 0.20303 0.0
C1372 C 0.41494 0.55911 0.22497 0.0
C1373 C 0.38947 0.58836 0.22352 0.0
C1374 C 0.35268 0.57458 0.22063 0.0
C1375 C 0.39278 0.61233 0.24802 0.0
C1376 C 0.40123 0.60565 0.19794 0.0
C1377 C 0.42792 0.58796 0.18605 0.0
C1378 C 0.44328 0.59934 0.16239 0.0
C1379 C 0.43102 0.62965 0.15058 0.0
C1380 C 0.40427 0.64842 0.16284 0.0
C1381 C 0.38917 0.63617 0.18671 0.0
H1382 H 0.17959 0.58541 0.94504 0.0
H1383 H 0.1894 0.66529 0.88513 0.0
H1384 H 0.24457 0.68338 0.90553 0.0
H1385 H 0.21007 0.62921 -3e-05 0.0
H1386 H 0.23377 0.59377 0.01411 0.0
H1387 H 0.19733 0.58559 -0.00702 0.0
H1388 H 0.23565 0.54785 0.96226 0.0
H1389 H 0.27226 0.55672 0.98334 0.0
H1390 H 0.27403 0.56584 0.94789 0.0
H1391 H 0.29447 0.69669 0.93556 0.0
H1392 H 0.33439 0.70545 0.97333 0.0
H1393 H 0.29332 0.61497 0.01259 0.0
C1394 C 0.19364 0.60645 0.93609 0.0
C1395 C 0.18044 0.62421 0.91372 0.0
C1396 C 0.19937 0.65142 0.90228 0.0
C1397 C 0.23071 0.6617 0.91364 0.0
C1398 C 0.24306 0.64374 0.93586 0.0
C1399 C 0.22531 0.6164 0.94675 0.0
C1400 C 0.24333 0.60236 0.97133 0.0
C1401 C 0.21971 0.60283 -0.00395 0.0
C1402 C 0.25714 0.56605 0.96587 0.0
C1403 C 0.27239 0.6279 0.97393 0.0
C1404 C 0.27238 0.65094 0.95283 0.0
C1405 C 0.29517 0.67842 0.95189 0.0
C1406 C 0.31779 0.68316 0.97349 0.0
C1407 C 0.31706 0.66082 -0.00408 0.0
C1408 C 0.29487 0.63219 -0.00441 0.0
H1409 H 0.24354 0.43037 0.67116 0.0
H1410 H 0.14616 0.37851 0.66042 0.0
H1411 H 0.11742 0.42323 0.68761 0.0
H1412 H 0.23366 0.45532 0.73749 0.0
H1413 H 0.25274 0.49725 0.7342 0.0
H1414 H 0.26516 0.46327 0.71174 0.0
H1415 H 0.24889 0.50098 0.67084 0.0
H1416 H 0.23655 0.53521 0.69325 0.0
H1417 H 0.20645 0.51914 0.66877 0.0
H1418 H 0.10036 0.4701 0.71752 0.0
H1419 H 0.09485 0.51739 0.74967 0.0
H1420 H 0.20354 0.53968 0.74219 0.0
C1421 C 0.21603 0.42917 0.67407 0.0
C1422 C 0.19658 0.40187 0.66351 0.0
C1423 C 0.16093 0.40004 0.66796 0.0
C1424 C 0.14456 0.42514 0.68336 0.0
C1425 C 0.16436 0.45188 0.69363 0.0
C1426 C 0.19922 0.45436 0.68905 0.0
C1427 C 0.21451 0.48518 0.7033 0.0
C1428 C 0.24319 0.47459 0.72286 0.0
C1429 C 0.22737 0.5117 0.68282 0.0
C1430 C 0.18318 0.4983 0.71796 0.0
C1431 C 0.15446 0.47911 0.71145 0.0
C1432 C 0.12247 0.48569 0.72245 0.0
C1433 C 0.11964 0.51272 0.74062 0.0
C1434 C 0.14874 0.5324 0.74803 0.0
C1435 C 0.18095 0.52514 0.73659 0.0
H1436 H 0.30365 0.62016 0.47598 0.0
H1437 H 0.28629 0.72661 0.49815 0.0
H1438 H 0.33017 0.72203 0.53342 0.0
H1439 H 0.32066 0.59033 0.54634 0.0
H1440 H 0.35255 0.56001 0.53525 0.0
H1441 H 0.31681 0.57045 0.51376 0.0
H1442 H 0.359 0.58746 0.47588 0.0
H1443 H 0.39472 0.57723 0.49727 0.0
H1444 H 0.3915 0.61932 0.48251 0.0
H1445 H 0.37875 0.70764 0.56402 0.0
H1446 H 0.42915 0.68366 0.58791 0.0
H1447 H 0.41604 0.58749 0.5452 0.0
C1448 C 0.30844 0.64218 0.48875 0.0
C1449 C 0.29124 0.67355 0.48449 0.0
C1450 C 0.29861 0.70204 0.50132 0.0
C1451 C 0.32364 0.69979 0.52139 0.0
C1452 C 0.34064 0.66874 0.52472 0.0
C1453 C 0.33313 0.64029 0.50911 0.0
C1454 C 0.35625 0.61042 0.51611 0.0
C1455 C 0.33532 0.58107 0.52861 0.0
C1456 C 0.37657 0.59792 0.49147 0.0
C1457 C 0.37923 0.62725 0.53687 0.0
C1458 C 0.36921 0.66061 0.54206 0.0
C1459 C 0.38661 0.6814 0.56043 0.0
C1460 C 0.41504 0.66764 0.57393 0.0
C1461 C 0.42605 0.63387 0.56837 0.0
C1462 C 0.40791 0.61345 0.54972 0.0
H1463 H 0.20043 0.66038 0.27725 0.0
H1464 H 0.19472 0.61657 0.3571 0.0
H1465 H 0.18409 0.55911 0.33702 0.0
H1466 H 0.13323 0.60812 0.2498 0.0
H1467 H 0.15214 0.60339 0.21717 0.0
H1468 H 0.15995 0.64176 0.23647 0.0
H1469 H 0.22529 0.63382 0.23459 0.0
H1470 H 0.21946 0.59641 0.21384 0.0
H1471 H 0.24402 0.59346 0.24447 0.0
H1472 H 0.17284 0.50644 0.30724 0.0
H1473 H 0.16218 0.46408 0.27068 0.0
H1474 H 0.17963 0.54338 0.21151 0.0
C1475 C 0.19686 0.63873 0.29057 0.0
C1476 C 0.1984 0.64271 0.31869 0.0
C1477 C 0.1934 0.61391 0.33547 0.0
C1478 C 0.18754 0.58126 0.32424 0.0
C1479 C 0.18675 0.57813 0.2963 0.0
C1480 C 0.19111 0.60624 0.27976 0.0
C1481 C 0.18837 0.5966 0.25045 0.0
C1482 C 0.15658 0.6135 0.23772 0.0
C1483 C 0.22125 0.6056 0.23495 0.0
C1484 C 0.18364 0.55832 0.25293 0.0
C1485 C 0.18186 0.54808 0.27947 0.0
C1486 C 0.17481 0.5141 0.28643 0.0
C1487 C 0.16904 0.49022 0.26567 0.0
C1488 C 0.17144 0.50043 0.23853 0.0
C1489 C 0.17911 0.53475 0.23218 0.0
H1490 H 0.19333 0.39725 0.06512 0.0
H1491 H 0.16301 0.49468 0.0307 0.0
H1492 H 0.21361 0.49312 0.00061 0.0
H1493 H 0.28399 0.40747 0.06343 0.0
H1494 H 0.29254 0.36404 0.05288 0.0
H1495 H 0.25479 0.37346 0.07232 0.0
H1496 H 0.21631 0.3461 0.03549 0.0
H1497 H 0.25403 0.33601 0.01624 0.0
H1498 H 0.21999 0.36077 0.0013 0.0
H1499 H 0.26792 0.48075 0.97477 0.0
H1500 H 0.31708 0.45507 0.95077 0.0
H1501 H 0.30986 0.36469 0.00132 0.0
C1502 C 0.19752 0.41822 0.05126 0.0
C1503 C 0.17482 0.44624 0.0502 0.0
C1504 C 0.18036 0.47301 0.03159 0.0
C1505 C 0.20905 0.47243 0.01463 0.0
C1506 C 0.23131 0.44453 0.01632 0.0
C1507 C 0.2254 0.41755 0.03373 0.0
C1508 C 0.25164 0.38938 0.03022 0.0
C1509 C 0.27194 0.38326 0.05627 0.0
C1510 C 0.23447 0.35612 0.02022 0.0
C1511 C 0.27386 0.40516 0.00871 0.0
C1512 C 0.26185 0.437 0.00097 0.0
C1513 C 0.27762 0.45587 0.98069 0.0
C1514 C 0.30569 0.4412 0.96734 0.0
C1515 C 0.31739 0.40796 0.97427 0.0
C1516 C 0.30175 0.39027 -0.0043 0.0
H1517 H 0.45708 0.50264 0.71371 0.0
H1518 H 0.40936 0.58692 0.75636 0.0
H1519 H 0.39765 0.54824 0.79498 0.0
H1520 H 0.40128 0.43742 0.7328 0.0
H1521 H 0.43366 0.40485 0.73691 0.0
H1522 H 0.44078 0.43959 0.71394 0.0
H1523 H 0.49716 0.45539 0.738 0.0
H1524 H 0.49077 0.42045 0.7611 0.0
H1525 H 0.49694 0.46341 0.77366 0.0
H1526 H 0.38976 0.49934 0.82808 0.0
H1527 H 0.38268 0.44377 0.85158 0.0
H1528 H 0.43467 0.39186 0.78627 0.0
C1529 C 0.44427 0.51284 0.73131 0.0
C1530 C 0.43383 0.54742 0.73234 0.0
C1531 C 0.41735 0.56032 0.75546 0.0
C1532 C 0.41083 0.53863 0.7774 0.0
C1533 C 0.42149 0.50445 0.77583 0.0
C1534 C 0.43797 0.4917 0.75335 0.0
C1535 C 0.44602 0.4539 0.75624 0.0
C1536 C 0.42938 0.43271 0.73363 0.0
C1537 C 0.48503 0.44795 0.75732 0.0
C1538 C 0.42964 0.44679 0.78315 0.0
C1539 C 0.41655 0.47642 0.79455 0.0
C1540 C 0.40007 0.47606 0.81939 0.0
C1541 C 0.39628 0.44449 0.83263 0.0
C1542 C 0.40819 0.41382 0.82062 0.0
C1543 C 0.42539 0.41508 0.79579 0.0
H1544 H 0.23961 0.91974 0.06478 0.0
H1545 H 0.28672 0.86004 0.12834 0.0
H1546 H 0.27982 0.90902 0.15931 0.0
H1547 H 0.26132 1.01011 0.09072 0.0
H1548 H 0.21909 1.02463 0.0813 0.0
H1549 H 0.24048 0.99228 0.06151 0.0
H1550 H 0.18849 0.95136 0.06722 0.0
H1551 H 0.16706 0.98376 0.08621 0.0
H1552 H 0.17342 0.94178 0.1006 0.0
H1553 H 0.25742 0.95743 0.18527 0.0
H1554 H 0.20938 0.9883 0.206 0.0
H1555 H 0.16874 1.01198 0.12731 0.0
C1556 C 0.24894 0.91703 0.08515 0.0
C1557 C 0.2634 0.88597 0.09421 0.0
C1558 C 0.27586 0.88373 0.12083 0.0
C1559 C 0.27235 0.91162 0.13848 0.0
C1560 C 0.25631 0.94141 0.12918 0.0
C1561 C 0.24432 0.94394 0.10311 0.0
C1562 C 0.21995 0.97374 0.09968 0.0
C1563 C 0.2362 1.00186 0.08228 0.0
C1564 C 0.18521 0.96191 0.0878 0.0
C1565 C 0.21697 0.98532 0.12857 0.0
C1566 C 0.24029 0.96824 0.14486 0.0
C1567 C 0.23944 0.97122 0.17272 0.0
C1568 C 0.21202 0.98884 0.18434 0.0
C1569 C 0.18505 1.00147 0.16807 0.0
C1570 C 0.18926 1.00272 0.14003 0.0
H1571 H 0.44275 1.01286 0.36334 0.0
H1572 H 0.38959 1.00151 0.28753 0.0
H1573 H 0.34001 0.97669 0.31085 0.0
H1574 H 0.42874 0.94068 0.3866 0.0
H1575 H 0.42048 0.94941 0.42156 0.0
H1576 H 0.44493 0.97926 0.40223 0.0
H1577 H 0.40292 0.02838 0.41371 0.0
H1578 H 0.37862 0.99894 0.43411 0.0
H1579 H 0.3576 1.02287 0.40788 0.0
H1580 H 0.31268 0.93168 0.33658 0.0
H1581 H 0.30202 0.88198 0.36523 0.0
H1582 H 0.36334 0.92907 0.42835 0.0
C1583 C 0.41958 1.00754 0.35206 0.0
C1584 C 0.41985 1.00864 0.32379 0.0
C1585 C 0.3897 1.00061 0.30928 0.0
C1586 C 0.3614 0.98655 0.32239 0.0
C1587 C 0.36331 0.98188 0.35008 0.0
C1588 C 0.39094 0.99372 0.36506 0.0
C1589 C 0.38952 0.98027 0.39357 0.0
C1590 C 0.42286 0.96128 0.40138 0.0
C1591 C 0.38167 1.00936 0.41349 0.0
C1592 C 0.35949 0.95584 0.39117 0.0
C1593 C 0.34448 0.95734 0.36605 0.0
C1594 C 0.32259 0.9315 0.3569 0.0
C1595 C 0.31664 0.90312 0.37346 0.0
C1596 C 0.33191 0.90106 0.39926 0.0
C1597 C 0.35174 0.92907 0.40861 0.0
H1598 H 0.35292 0.13035 0.55149 0.0
H1599 H 0.30828 0.18321 0.61978 0.0
H1600 H 0.3227 0.13422 0.64843 0.0
H1601 H 0.3513 0.03646 0.5785 0.0
H1602 H 0.39425 0.03029 0.56606 0.0
H1603 H 0.36452 0.05708 0.54784 0.0
H1604 H 0.40814 0.1072 0.54952 0.0
H1605 H 0.43765 0.08071 0.56745 0.0
H1606 H 0.42449 0.12127 0.58162 0.0
H1607 H 0.35446 0.09065 0.67184 0.0
H1608 H 0.409 0.06928 0.68957 0.0
H1609 H 0.44682 0.05378 0.60884 0.0
C1610 C 0.34563 0.13144 0.57243 0.0
C1611 C 0.33001 0.16097 0.58342 0.0
C1612 C 0.31989 0.16081 0.61066 0.0
C1613 C 0.32791 0.13284 0.62711 0.0
C1614 C 0.34675 0.10567 0.6162 0.0
C1615 C 0.35599 0.10511 0.58939 0.0
C1616 C 0.38546 0.08063 0.58425 0.0
C1617 C 0.37313 0.04924 0.56822 0.0
C1618 C 0.41569 0.09856 0.56993 0.0
C1619 C 0.39419 0.0708 0.61279 0.0
C1620 C 0.36948 0.08289 0.63051 0.0
C1621 C 0.37357 0.08063 0.65818 0.0
C1622 C 0.40472 0.06864 0.66805 0.0
C1623 C 0.43188 0.06064 0.6503 0.0
C1624 C 0.426 0.05943 0.6225 0.0
H1625 H 0.2255 0.1963 0.8863 0.0
H1626 H 0.30804 0.1256 0.90363 0.0
H1627 H 0.27895 0.08073 0.87615 0.0
H1628 H 0.16287 0.13777 0.89863 0.0
H1629 H 0.13288 0.15346 0.87394 0.0
H1630 H 0.16356 0.18226 0.88886 0.0
H1631 H 0.18758 0.19904 0.84208 0.0
H1632 H 0.15558 0.17193 0.82688 0.0
H1633 H 0.20022 0.16574 0.81893 0.0
H1634 H 0.23749 0.04323 0.84821 0.0
H1635 H 0.18921 1.01816 0.82173 0.0
H1636 H 0.13166 0.11217 0.83215 0.0
C1637 C 0.23817 0.17186 0.88312 0.0
C1638 C 0.26918 0.16427 0.89607 0.0
C1639 C 0.28465 0.13177 0.89292 0.0
C1640 C 0.26812 0.10621 0.87772 0.0
C1641 C 0.2361 0.11385 0.86664 0.0
C1642 C 0.22149 0.14605 0.86919 0.0
C1643 C 0.1853 0.14712 0.85884 0.0
C1644 C 0.15967 0.15564 0.88141 0.0
C1645 C 0.182 0.17244 0.83528 0.0
C1646 C 0.18171 0.11056 0.8497 0.0
C1647 C 0.21121 0.09162 0.85392 0.0
C1648 C 0.21414 0.05769 0.84508 0.0
C1649 C 0.18668 0.04352 0.83043 0.0
C1650 C 0.157 0.06331 0.8256 0.0
C1651 C 0.15403 0.0965 0.83627 0.0
H1652 H 0.90218 0.03306 0.84492 0.0
H1653 H 0.98842 0.07552 0.88895 0.0
H1654 H 0.95617 0.12996 0.89489 0.0
H1655 H 0.87753 0.11069 0.80974 0.0
H1656 H 0.83243 0.10139 0.81216 0.0
H1657 H 0.86299 0.06678 0.81126 0.0
H1658 H 0.83789 0.04358 0.856 0.0
H1659 H 0.8077 0.07849 0.85671 0.0
H1660 H 0.83593 0.07149 0.88488 0.0
H1661 H 0.91381 0.18091 0.89509 0.0
H1662 H 0.86387 0.22038 0.89376 0.0
H1663 H 0.80549 0.14397 0.85013 0.0
C1664 C 0.91453 0.05381 0.85572 0.0
C1665 C 0.94828 0.04997 0.86614 0.0
C1666 C 0.96285 0.07771 0.88062 0.0
C1667 C 0.94471 0.10885 0.88394 0.0
C1668 C 0.9119 0.112 0.87273 0.0
C1669 C 0.89685 0.08496 0.85914 0.0
C1670 C 0.86089 0.09423 0.8497 0.0
C1671 C 0.85835 0.09319 0.81888 0.0
C1672 C 0.83402 0.07055 0.86261 0.0
C1673 C 0.85787 0.13078 0.86013 0.0
C1674 C 0.88767 0.14076 0.8731 0.0
C1675 C 0.8906 0.17335 0.8847 0.0
C1676 C 0.86226 0.19585 0.88356 0.0
C1677 C 0.83126 0.18581 0.87098 0.0
C1678 C 0.82927 0.15284 0.85904 0.0
H1679 H 0.7763 0.16312 0.64422 0.0
H1680 H 0.76277 0.19183 0.56078 0.0
H1681 H 0.71316 0.153 0.55713 0.0
H1682 H 0.75712 0.07495 0.63559 0.0
H1683 H 0.73393 0.06984 0.66662 0.0
H1684 H 0.76655 0.10232 0.66391 0.0
H1685 H 0.72271 0.14832 0.67829 0.0
H1686 H 0.68944 0.11627 0.68059 0.0
H1687 H 0.68341 0.15332 0.65956 0.0
H1688 H 0.66673 0.10748 0.56118 0.0
H1689 H 0.62706 0.06031 0.57359 0.0
H1690 H 0.66998 0.06058 0.65409 0.0
C1691 C 0.76215 0.16207 0.62551 0.0
C1692 C 0.77323 0.18129 0.60292 0.0
C1693 C 0.75464 0.17793 0.57849 0.0
C1694 C 0.72639 0.15573 0.57614 0.0
C1695 C 0.71655 0.13657 0.5984 0.0
C1696 C 0.73368 0.13962 0.62272 0.0
C1697 C 0.71853 0.11477 0.6431 0.0
C1698 C 0.74565 0.08894 0.65286 0.0
C1699 C 0.7026 0.13436 0.6668 0.0
C1700 C 0.69088 0.09714 0.62632 0.0
C1701 C 0.68997 0.11019 0.60063 0.0
C1702 C 0.66697 0.09736 0.58141 0.0
C1703 C 0.64435 0.07057 0.58863 0.0
C1704 C 0.64484 0.05659 0.61486 0.0
C1705 C 0.66851 0.07049 0.63383 0.0
H1706 H 0.76748 0.88606 0.34068 0.0
H1707 H 0.76775 0.87626 0.42746 0.0
H1708 H 0.71961 0.91683 0.43059 0.0
H1709 H 0.75139 0.97574 0.33955 0.0
H1710 H 0.72342 0.97524 0.31067 0.0
H1711 H 0.75573 0.9426 0.31446 0.0
H1712 H 0.70912 0.89557 0.31058 0.0
H1713 H 0.67673 0.9282 0.30673 0.0
H1714 H 0.67278 0.89656 0.3329 0.0
H1715 H 0.67277 0.96027 0.42513 0.0
H1716 H 0.63206 1.00555 0.41119 0.0
H1717 H 0.6626 0.99067 0.32822 0.0
C1718 C 0.75665 0.89172 0.3602 0.0
C1719 C 0.77105 0.87726 0.38383 0.0
C1720 C 0.75695 0.88649 0.40907 0.0
C1721 C 0.72953 0.90963 0.41109 0.0
C1722 C 0.71622 0.92386 0.38766 0.0
C1723 C 0.72922 0.91539 0.36263 0.0
C1724 C 0.71127 0.93633 0.34089 0.0
C1725 C 0.737 0.95881 0.3255 0.0
C1726 C 0.69129 0.91275 0.32164 0.0
C1727 C 0.68686 0.9581 0.35771 0.0
C1728 C 0.6898 0.95003 0.38459 0.0
C1729 C 0.67005 0.96663 0.40408 0.0
C1730 C 0.64679 0.99224 0.39598 0.0
C1731 C 0.64372 1.00161 0.36862 0.0
C1732 C 0.6641 0.98406 0.3493 0.0
H1733 H 0.93412 0.99099 0.15254 0.0
H1734 H 0.96941 0.99842 0.07014 0.0
H1735 H 0.92874 0.95231 0.05719 0.0
H1736 H 0.92181 0.89738 0.15298 0.0
H1737 H 0.8847 0.90045 0.17439 0.0
H1738 H 0.91812 0.93238 0.17646 0.0
H1739 H 0.87216 0.97973 0.16804 0.0
H1740 H 0.83936 0.94737 0.16546 0.0
H1741 H 0.84578 0.97724 0.13833 0.0
H1742 H 0.88163 0.90769 0.05281 0.0
H1743 H 0.83272 0.86809 0.05693 0.0
H1744 H 0.82804 0.88797 0.14258 0.0
C1745 C 0.93369 0.98276 0.13176 0.0
C1746 C 0.95545 0.99841 0.11237 0.0
C1747 C 0.95359 0.98673 0.08545 0.0
C1748 C 0.93038 0.96058 0.07792 0.0
C1749 C 0.90928 0.94595 0.09754 0.0
C1750 C 0.91086 0.95654 0.12395 0.0
C1751 C 0.885 0.93706 0.1411 0.0
C1752 C 0.90349 0.91554 0.16252 0.0
C1753 C 0.85904 0.96183 0.15398 0.0
C1754 C 0.868 0.91416 0.12013 0.0
C1755 C 0.88259 0.91973 0.09515 0.0
C1756 C 0.8705 0.90286 0.07234 0.0
C1757 C 0.84268 0.88022 0.07494 0.0
C1758 C 0.82688 0.8741 0.10017 0.0
C1759 C 0.84014 0.89111 0.12318 0.0
H1760 H 0.63826 0.48772 0.62933 0.0
H1761 H 0.5647 0.40727 0.64582 0.0
H1762 H 0.60656 0.36381 0.63099 0.0
H1763 H 0.68227 0.44172 0.5699 0.0
H1764 H 0.72257 0.46023 0.58018 0.0
H1765 H 0.68333 0.48358 0.58539 0.0
H1766 H 0.70086 0.48888 0.63558 0.0
H1767 H 0.73817 0.46239 0.63097 0.0
H1768 H 0.7062 0.45052 0.65535 0.0
H1769 H 0.65943 0.32961 0.62496 0.0
H1770 H 0.71359 0.30575 0.6075 0.0
H1771 H 0.75317 0.40849 0.59647 0.0
C1772 C 0.63014 0.46118 0.62785 0.0
C1773 C 0.5987 0.45045 0.63893 0.0
C1774 C 0.58879 0.41563 0.63722 0.0
C1775 C 0.6127 0.39082 0.62954 0.0
C1776 C 0.6455 0.40183 0.62281 0.0
C1777 C 0.65372 0.43618 0.62026 0.0
C1778 C 0.69119 0.44106 0.61346 0.0
C1779 C 0.69506 0.4576 0.58558 0.0
C1780 C 0.71019 0.46195 0.63515 0.0
C1781 C 0.70281 0.40411 0.61341 0.0
C1782 C 0.67619 0.38199 0.61937 0.0
C1783 C 0.68039 0.34654 0.61981 0.0
C1784 C 0.71147 0.3332 0.61062 0.0
C1785 C 0.73695 0.35552 0.6007 0.0
C1786 C 0.73402 0.39118 0.6045 0.0
H1787 H 0.85103 0.41438 0.91286 0.0
H1788 H 0.82133 0.34764 0.84741 0.0
H1789 H 0.82512 0.39698 0.81623 0.0
H1790 H 0.82933 0.50316 0.88269 0.0
H1791 H 0.86957 0.51954 0.89518 0.0
H1792 H 0.84638 0.48765 0.91407 0.0
H1793 H 0.90021 0.44894 0.91438 0.0
H1794 H 0.92324 0.48037 0.89577 0.0
H1795 H 0.9199 0.43713 0.88295 0.0
H1796 H 0.84378 0.44845 0.79138 0.0
H1797 H 0.89242 0.48037 0.77291 0.0
H1798 H 0.92796 0.50367 0.85328 0.0
C1799 C 0.84525 0.41011 0.89199 0.0
C1800 C 0.83715 0.37711 0.88234 0.0
C1801 C 0.82784 0.37281 0.85517 0.0
C1802 C 0.82956 0.40086 0.83748 0.0
C1803 C 0.84111 0.43258 0.84736 0.0
C1804 C 0.84967 0.43687 0.8741 0.0
C1805 C 0.8727 0.46764 0.87858 0.0
C1806 C 0.85332 0.4962 0.89349 0.0
C1807 C 0.90596 0.45787 0.89372 0.0
C1808 C 0.87928 0.47762 0.84976 0.0
C1809 C 0.85777 0.45967 0.83245 0.0
C1810 C 0.86072 0.4624 0.80474 0.0
C1811 C 0.88865 0.4804 0.79447 0.0
C1812 C 0.91473 0.49259 0.81191 0.0
C1813 C 0.90842 0.49422 0.83969 0.0
H1814 H 0.97397 0.59116 0.13904 0.0
H1815 H 0.8906 0.53096 0.1714 0.0
H1816 H 0.8487 0.56839 0.14794 0.0
H1817 H 0.93648 0.66553 0.15691 0.0
H1818 H 0.95243 0.69113 0.12953 0.0
H1819 H 0.97631 0.65438 0.1408 0.0
H1820 H 0.97517 0.62702 0.0932 0.0
H1821 H 0.95347 0.66478 0.08124 0.0
H1822 H 0.93487 0.62304 0.07564 0.0
H1823 H 0.81669 0.61669 0.12393 0.0
H1824 H 0.79795 0.66792 0.09859 0.0
H1825 H 0.90351 0.70226 0.09355 0.0
C1826 C 0.94696 0.58452 0.1396 0.0
C1827 C 0.93524 0.55765 0.15595 0.0
C1828 C 0.89976 0.55077 0.15799 0.0
C1829 C 0.87594 0.57227 0.14518 0.0
C1830 C 0.8884 0.6008 0.13139 0.0
C1831 C 0.92316 0.60679 0.12851 0.0
C1832 C 0.9304 0.64182 0.1171 0.0
C1833 C 0.95006 0.66452 0.13729 0.0
C1834 C 0.94959 0.63898 0.09019 0.0
C1835 C 0.89428 0.65444 0.11333 0.0
C1836 C 0.87029 0.63047 0.12137 0.0
C1837 C 0.83524 0.63576 0.11778 0.0
C1838 C 0.82479 0.6652 0.10382 0.0
C1839 C 0.84943 0.68887 0.09417 0.0
C1840 C 0.88423 0.6845 0.10075 0.0
H1841 H 0.66622 0.55188 0.36605 0.0
H1842 H 0.71231 0.57282 0.28873 0.0
H1843 H 0.76597 0.5893 0.31097 0.0
H1844 H 0.68953 0.61656 0.39761 0.0
H1845 H 0.7007 0.59892 0.4299 0.0
H1846 H 0.67173 0.57619 0.40854 0.0
H1847 H 0.71073 0.52258 0.41031 0.0
H1848 H 0.7402 0.54527 0.43196 0.0
H1849 H 0.75535 0.52597 0.40126 0.0
H1850 H 0.79975 0.62609 0.3391 0.0
H1851 H 0.81266 0.67235 0.37055 0.0
H1852 H 0.75719 0.61843 0.43302 0.0
C1853 C 0.68835 0.55797 0.35388 0.0
C1854 C 0.68504 0.56193 0.32589 0.0
C1855 C 0.71415 0.57052 0.31037 0.0
C1856 C 0.74496 0.57939 0.32281 0.0
C1857 C 0.74668 0.57829 0.35072 0.0
C1858 C 0.7196 0.56635 0.36612 0.0
C1859 C 0.72572 0.57328 0.39566 0.0
C1860 C 0.69515 0.5924 0.40861 0.0
C1861 C 0.73348 0.53977 0.41067 0.0
C1862 C 0.75744 0.59562 0.39392 0.0
C1863 C 0.76973 0.59743 0.36787 0.0
C1864 C 0.79183 0.62365 0.35983 0.0
C1865 C 0.7992 0.65005 0.37802 0.0
C1866 C 0.78524 0.64949 0.40424 0.0
C1867 C 0.76744 0.61999 0.41289 0.0
H1868 H 0.33253 0.65895 0.40569 0.0
H1869 H 0.32941 0.69757 0.324 0.0
H1870 H 0.37685 0.65843 0.31187 0.0
H1871 H 0.42598 0.64875 0.40961 0.0
H1872 H 0.42353 0.61007 0.42933 0.0
H1873 H 0.39014 0.6419 0.43179 0.0
H1874 H 0.34495 0.59578 0.41996 0.0
H1875 H 0.37823 0.56395 0.41734 0.0
H1876 H 0.34953 0.57114 0.38949 0.0
H1877 H 0.42263 0.61347 0.3078 0.0
H1878 H 0.46355 0.56569 0.31156 0.0
H1879 H 0.43972 0.55561 0.39625 0.0
C1880 C 0.34198 0.65949 0.38527 0.0
C1881 C 0.32707 0.68184 0.36583 0.0
C1882 C 0.34038 0.68128 0.33937 0.0
C1883 C 0.36736 0.65896 0.33228 0.0
C1884 C 0.38128 0.63735 0.35185 0.0
C1885 C 0.36918 0.63747 0.37788 0.0
C1886 C 0.3885 0.61117 0.39492 0.0
C1887 C 0.40822 0.62904 0.41777 0.0
C1888 C 0.36383 0.58389 0.40607 0.0
C1889 C 0.41306 0.59582 0.37427 0.0
C1890 C 0.40831 0.61154 0.34961 0.0
C1891 C 0.42673 0.60129 0.32704 0.0
C1892 C 0.45014 0.57411 0.32944 0.0
C1893 C 0.45566 0.55719 0.35428 0.0
C1894 C 0.43699 0.56858 0.37715 0.0
H1895 H 0.17062 0.54715 0.09083 0.0
H1896 H 0.13911 0.56478 0.17311 0.0
H1897 H 0.17612 0.61636 0.17522 0.0
H1898 H 0.25765 0.56916 0.1002 0.0
H1899 H 0.2631 0.59032 0.06832 0.0
H1900 H 0.23137 0.55709 0.07187 0.0
H1901 H 0.18514 0.59875 0.05467 0.0
H1902 H 0.21599 0.6331 0.05196 0.0
H1903 H 0.17798 0.63884 0.0719 0.0
H1904 H 0.22018 0.66387 0.17005 0.0
H1905 H 0.26708 0.70349 0.157 0.0
H1906 H 0.27089 0.65475 0.07858 0.0
C1907 C 0.17075 0.5625 0.10899 0.0
C1908 C 0.15132 0.55229 0.13167 0.0
C1909 C 0.15332 0.57236 0.1554 0.0
C1910 C 0.17436 0.60163 0.15686 0.0
C1911 C 0.19381 0.61065 0.13453 0.0
C1912 C 0.19212 0.5918 0.11094 0.0
C1913 C 0.21716 0.60616 0.09041 0.0
C1914 C 0.2439 0.57907 0.08223 0.0
C1915 C 0.1979 0.62 0.06576 0.0
C1916 C 0.23353 0.63532 0.10634 0.0
C1917 C 0.21949 0.63777 0.13166 0.0
C1918 C 0.2311 0.66236 0.15012 0.0
C1919 C 0.25776 0.68491 0.14252 0.0
C1920 C 0.27285 0.68271 0.11672 0.0
C1921 C 0.26009 0.65754 0.09848 0.0
H1922 H 0.24157 0.35635 0.85563 0.0
H1923 H 0.32411 0.42347 0.88147 0.0
H1924 H 0.28449 0.47239 0.88223 0.0
H1925 H 0.19966 0.42266 0.81152 0.0
H1926 H 0.15693 0.40828 0.81943 0.0
H1927 H 0.19207 0.37825 0.81965 0.0
H1928 H 0.17679 0.36166 0.86851 0.0
H1929 H 0.14211 0.39223 0.86866 0.0
H1930 H 0.17513 0.39457 0.89398 0.0
H1931 H 0.23546 0.51338 0.88514 0.0
H1932 H 0.18203 0.54692 0.88055 0.0
H1933 H 0.12998 0.45716 0.84909 0.0
C1934 C 0.25146 0.38155 0.86052 0.0
C1935 C 0.28632 0.38582 0.86841 0.0
C1936 C 0.29777 0.41932 0.87528 0.0
C1937 C 0.27532 0.44739 0.87599 0.0
C1938 C 0.24104 0.44224 0.86932 0.0
C1939 C 0.22919 0.41052 0.86086 0.0
C1940 C 0.19092 0.41291 0.8543 0.0
C1941 C 0.18452 0.40506 0.82445 0.0
C1942 C 0.17 0.3889 0.87244 0.0
C1943 C 0.1833 0.45055 0.86078 0.0
C1944 C 0.21266 0.46668 0.86986 0.0
C1945 C 0.21237 0.50105 0.87784 0.0
C1946 C 0.18172 0.51986 0.87551 0.0
C1947 C 0.15149 0.50463 0.86515 0.0
C1948 C 0.15236 0.46933 0.85779 0.0
H1949 H 0.32011 0.40202 0.64423 0.0
H1950 H 0.35559 0.34976 0.57271 0.0
H1951 H 0.40539 0.38898 0.57028 0.0
H1952 H 0.34088 0.48557 0.62207 0.0
H1953 H 0.35426 0.50168 0.6544 0.0
H1954 H 0.32334 0.46745 0.65238 0.0
H1955 H 0.36161 0.42946 0.6825 0.0
H1956 H 0.39245 0.46379 0.68479 0.0
H1957 H 0.40561 0.42193 0.67314 0.0
H1958 H 0.44987 0.43686 0.5739 0.0
H1959 H 0.4856 0.48786 0.58414 0.0
H1960 H 0.42114 0.50967 0.65305 0.0
C1961 C 0.33923 0.39795 0.6288 0.0
C1962 C 0.33483 0.37169 0.60935 0.0
C1963 C 0.35925 0.36867 0.58844 0.0
C1964 C 0.38744 0.39113 0.58675 0.0
C1965 C 0.39094 0.41701 0.60597 0.0
C1966 C 0.36757 0.42045 0.62672 0.0
C1967 C 0.37622 0.45171 0.64382 0.0
C1968 C 0.34693 0.47816 0.64311 0.0
C1969 C 0.38447 0.44107 0.67279 0.0
C1970 C 0.40804 0.46515 0.62956 0.0
C1971 C 0.4161 0.44484 0.60773 0.0
C1972 C 0.44396 0.45269 0.59115 0.0
C1973 C 0.46423 0.48178 0.59714 0.0
C1974 C 0.45668 0.50298 0.61952 0.0
C1975 C 0.42804 0.49419 0.63584 0.0
loop_
_geom_bond_atom_site_label_1
_geom_bond_atom_site_label_2
_geom_bond_distance
_geom_bond_site_symmetry_2
_ccdc_geom_bond_type
O0 Tb1 2.292 1_455 S
O0 C3 1.255 . S
Tb1 O0 2.292 1_655 S
Tb1 O17 2.326 . S
Tb1 O19 2.500 . S
Tb1 O20 2.473 . S
Tb1 O23 2.324 . S
Eu2 O6 2.292 . S
Eu2 C7 2.852 1_645 S
Eu2 O18 2.324 . S
Eu2 O22 2.326 . S
Eu2 O24 2.500 1_645 S
Eu2 O25 2.473 1_655 S
C3 O0 1.255 . S
C3 O4 1.247 . S
O4 C3 1.247 . S
C5 O17 1.242 . S
C5 O18 1.258 . S
O6 Eu2 2.292 . S
O6 C8 1.255 . S
C7 Eu2 2.852 1_465 S
C7 C11 1.503 . S
C7 O24 1.273 . S
C7 O25 1.257 1_565 S
C8 O6 1.255 . S
C8 O9 1.247 . S
O9 C8 1.247 . S
C10 O22 1.242 1_565 S
C10 O23 1.258 1_565 S
C11 C7 1.503 . S
C11 C12 1.379 . S
C11 C16 1.392 . S
C12 C11 1.379 . S
C12 C13 1.404 . S
C12 H26 0.929 . S
C13 C12 1.404 . S
C13 C14 1.389 . S
C14 C13 1.389 . S
C14 C15 1.399 . S
C14 H27 0.931 . S
C15 C14 1.399 . S
C15 C16 1.390 . S
C16 C11 1.392 . S
C16 C15 1.390 . S
C16 H28 0.929 . S
O17 Tb1 2.326 . S
O17 C5 1.242 . S
O18 Eu2 2.324 . S
O18 C5 1.258 . S
O19 Tb1 2.500 . S
O19 C21 1.273 . S
O20 Tb1 2.473 . S
O20 C21 1.257 . S
C21 O19 1.273 . S
C21 O20 1.257 . S
O22 Eu2 2.326 . S
O22 C10 1.242 1_545 S
O23 Tb1 2.324 . S
O23 C10 1.258 1_545 S
O24 Eu2 2.500 1_465 S
O24 C7 1.273 . S
O25 Eu2 2.473 1_455 S
O25 C7 1.257 1_545 S
H26 C12 0.929 . S
H27 C14 0.931 . S
H28 C16 0.929 . S
O29 Tb30 2.292 . S
O29 C32 1.255 . S
Tb30 O29 2.292 . S
Tb30 O46 2.326 . S
Tb30 O48 2.500 . S
Tb30 O49 2.473 . S
Tb30 O52 2.324 . S
Eu31 O35 2.292 . S
Eu31 C36 2.852 . S
Eu31 O47 2.324 . S
Eu31 O51 2.326 . S
Eu31 O53 2.500 . S
Eu31 O54 2.473 . S
C32 O29 1.255 . S
C32 O33 1.247 . S
O33 C32 1.247 . S
C34 O46 1.242 . S
C34 O47 1.258 . S
O35 Eu31 2.292 . S
O35 C37 1.255 . S
C36 Eu31 2.852 . S
C36 C40 1.503 . S
C36 O53 1.273 . S
C36 O54 1.257 . S
C37 O35 1.255 . S
C37 O38 1.247 . S
O38 C37 1.247 . S
C39 O51 1.242 . S
C39 O52 1.258 . S
C40 C36 1.503 . S
C40 C41 1.379 . S
C40 C45 1.392 . S
C41 C40 1.379 . S
C41 C42 1.404 . S
C41 H55 0.929 . S
C42 C41 1.404 . S
C42 C43 1.389 . S
C43 C42 1.389 . S
C43 C44 1.399 . S
C43 H56 0.931 . S
C44 C43 1.399 . S
C44 C45 1.390 . S
C45 C40 1.392 . S
C45 C44 1.390 . S
C45 H57 0.929 . S
O46 Tb30 2.326 . S
O46 C34 1.242 . S
O47 Eu31 2.324 . S
O47 C34 1.258 . S
O48 Tb30 2.500 . S
O48 C50 1.273 . S
O49 Tb30 2.473 . S
O49 C50 1.257 . S
C50 O48 1.273 . S
C50 O49 1.257 . S
O51 Eu31 2.326 . S
O51 C39 1.242 . S
O52 Tb30 2.324 . S
O52 C39 1.258 . S
O53 Eu31 2.500 . S
O53 C36 1.273 . S
O54 Eu31 2.473 . S
O54 C36 1.257 . S
H55 C41 0.929 . S
H56 C43 0.931 . S
H57 C45 0.929 . S
O58 Tb59 2.292 . S
O58 C61 1.255 . S
Tb59 O58 2.292 . S
Tb59 O75 2.326 . S
Tb59 O77 2.500 . S
Tb59 O78 2.473 . S
Tb59 O81 2.324 . S
Eu60 O64 2.292 . S
Eu60 C65 2.852 1_565 S
Eu60 O76 2.324 . S
Eu60 O80 2.326 . S
Eu60 O82 2.500 1_565 S
Eu60 O83 2.473 . S
C61 O58 1.255 . S
C61 O62 1.247 . S
O62 C61 1.247 . S
C63 O75 1.242 . S
C63 O76 1.258 . S
O64 Eu60 2.292 . S
O64 C66 1.255 . S
C65 Eu60 2.852 1_545 S
C65 C69 1.503 . S
C65 O82 1.273 . S
C65 O83 1.257 1_545 S
C66 O64 1.255 . S
C66 O67 1.247 . S
O67 C66 1.247 . S
C68 O80 1.242 1_545 S
C68 O81 1.258 1_545 S
C69 C65 1.503 . S
C69 C70 1.379 . S
C69 C74 1.392 . S
C70 C69 1.379 . S
C70 C71 1.404 . S
C70 H84 0.929 . S
C71 C70 1.404 . S
C71 C72 1.389 . S
C72 C71 1.389 . S
C72 C73 1.399 . S
C72 H85 0.931 . S
C73 C72 1.399 . S
C73 C74 1.390 . S
C74 C69 1.392 . S
C74 C73 1.390 . S
C74 H86 0.929 . S
O75 Tb59 2.326 . S
O75 C63 1.242 . S
O76 Eu60 2.324 . S
O76 C63 1.258 . S
O77 Tb59 2.500 . S
O77 C79 1.273 . S
O78 Tb59 2.473 . S
O78 C79 1.257 . S
C79 O77 1.273 . S
C79 O78 1.257 . S
O80 Eu60 2.326 . S
O80 C68 1.242 1_565 S
O81 Tb59 2.324 . S
O81 C68 1.258 1_565 S
O82 Eu60 2.500 1_545 S
O82 C65 1.273 . S
O83 Eu60 2.473 . S
O83 C65 1.257 1_565 S
H84 C70 0.929 . S
H85 C72 0.931 . S
H86 C74 0.929 . S
O87 Tb88 2.292 . S
O87 C90 1.255 . S
Tb88 O87 2.292 . S
Tb88 O104 2.326 . S
Tb88 O106 2.500 . S
Tb88 O107 2.473 . S
Tb88 O110 2.324 . S
Eu89 O93 2.292 . S
Eu89 C94 2.852 . S
Eu89 O105 2.324 . S
Eu89 O109 2.326 . S
Eu89 O111 2.500 . S
Eu89 O112 2.473 . S
C90 O87 1.255 . S
C90 O91 1.247 . S
O91 C90 1.247 . S
C92 O104 1.242 . S
C92 O105 1.258 . S
O93 Eu89 2.292 . S
O93 C95 1.255 . S
C94 Eu89 2.852 . S
C94 C98 1.503 . S
C94 O111 1.273 . S
C94 O112 1.257 . S
C95 O93 1.255 . S
C95 O96 1.247 . S
O96 C95 1.247 . S
C97 O109 1.242 . S
C97 O110 1.258 . S
C98 C94 1.503 . S
C98 C99 1.379 . S
C98 C103 1.392 . S
C99 C98 1.379 . S
C99 C100 1.404 . S
C99 H113 0.929 . S
C100 C99 1.404 . S
C100 C101 1.389 . S
C101 C100 1.389 . S
C101 C102 1.399 . S
C101 H114 0.931 . S
C102 C101 1.399 . S
C102 C103 1.390 . S
C103 C98 1.392 . S
C103 C102 1.390 . S
C103 H115 0.929 . S
O104 Tb88 2.326 . S
O104 C92 1.242 . S
O105 Eu89 2.324 . S
O105 C92 1.258 . S
O106 Tb88 2.500 . S
O106 C108 1.273 . S
O107 Tb88 2.473 . S
O107 C108 1.257 . S
C108 O106 1.273 . S
C108 O107 1.257 . S
O109 Eu89 2.326 . S
O109 C97 1.242 . S
O110 Tb88 2.324 . S
O110 C97 1.258 . S
O111 Eu89 2.500 . S
O111 C94 1.273 . S
O112 Eu89 2.473 . S
O112 C94 1.257 . S
H113 C99 0.929 . S
H114 C101 0.931 . S
H115 C103 0.929 . S
O116 Tb117 2.292 1_455 S
O116 C119 1.255 . S
Tb117 O116 2.292 1_655 S
Tb117 O133 2.326 . S
Tb117 O135 2.500 . S
Tb117 O136 2.473 . S
Tb117 O139 2.324 . S
Eu118 O122 2.292 . S
Eu118 C123 2.852 1_665 S
Eu118 O134 2.324 . S
Eu118 O138 2.326 . S
Eu118 O140 2.500 1_665 S
Eu118 O141 2.473 1_655 S
C119 O116 1.255 . S
C119 O120 1.247 . S
O120 C119 1.247 . S
C121 O133 1.242 . S
C121 O134 1.258 . S
O122 Eu118 2.292 . S
O122 C124 1.255 . S
C123 Eu118 2.852 1_445 S
C123 C127 1.503 . S
C123 O140 1.273 . S
C123 O141 1.257 1_545 S
C124 O122 1.255 . S
C124 O125 1.247 . S
O125 C124 1.247 . S
C126 O138 1.242 1_545 S
C126 O139 1.258 1_545 S
C127 C123 1.503 . S
C127 C128 1.379 . S
C127 C132 1.392 . S
C128 C127 1.379 . S
C128 C129 1.404 . S
C128 H142 0.929 . S
C129 C128 1.404 . S
C129 C130 1.389 . S
C130 C129 1.389 . S
C130 C131 1.399 . S
C130 H143 0.931 . S
C131 C130 1.399 . S
C131 C132 1.390 . S
C132 C127 1.392 . S
C132 C131 1.390 . S
C132 H144 0.929 . S
O133 Tb117 2.326 . S
O133 C121 1.242 . S
O134 Eu118 2.324 . S
O134 C121 1.258 . S
O135 Tb117 2.500 . S
O135 C137 1.273 . S
O136 Tb117 2.473 . S
O136 C137 1.257 . S
C137 O135 1.273 . S
C137 O136 1.257 . S
O138 Eu118 2.326 . S
O138 C126 1.242 1_565 S
O139 Tb117 2.324 . S
O139 C126 1.258 1_565 S
O140 Eu118 2.500 1_445 S
O140 C123 1.273 . S
O141 Eu118 2.473 1_455 S
O141 C123 1.257 1_565 S
H142 C128 0.929 . S
H143 C130 0.931 . S
H144 C132 0.929 . S
O145 Tb146 2.292 . S
O145 C148 1.255 . S
Tb146 O145 2.292 . S
Tb146 O162 2.326 . S
Tb146 O164 2.500 . S
Tb146 O165 2.473 . S
Tb146 O168 2.324 . S
Eu147 O151 2.292 . S
Eu147 C152 2.852 . S
Eu147 O163 2.324 . S
Eu147 O167 2.326 . S
Eu147 O169 2.500 . S
Eu147 O170 2.473 . S
C148 O145 1.255 . S
C148 O149 1.247 . S
O149 C148 1.247 . S
C150 O162 1.242 . S
C150 O163 1.258 . S
O151 Eu147 2.292 . S
O151 C153 1.255 . S
C152 Eu147 2.852 . S
C152 C156 1.503 . S
C152 O169 1.273 . S
C152 O170 1.257 . S
C153 O151 1.255 . S
C153 O154 1.247 . S
O154 C153 1.247 . S
C155 O167 1.242 . S
C155 O168 1.258 . S
C156 C152 1.503 . S
C156 C157 1.379 . S
C156 C161 1.392 . S
C157 C156 1.379 . S
C157 C158 1.404 . S
C157 H171 0.929 . S
C158 C157 1.404 . S
C158 C159 1.389 . S
C159 C158 1.389 . S
C159 C160 1.399 . S
C159 H172 0.931 . S
C160 C159 1.399 . S
C160 C161 1.390 . S
C161 C156 1.392 . S
C161 C160 1.390 . S
C161 H173 0.929 . S
O162 Tb146 2.326 . S
O162 C150 1.242 . S
O163 Eu147 2.324 . S
O163 C150 1.258 . S
O164 Tb146 2.500 . S
O164 C166 1.273 . S
O165 Tb146 2.473 . S
O165 C166 1.257 . S
C166 O164 1.273 . S
C166 O165 1.257 . S
O167 Eu147 2.326 . S
O167 C155 1.242 . S
O168 Tb146 2.324 . S
O168 C155 1.258 . S
O169 Eu147 2.500 . S
O169 C152 1.273 . S
O170 Eu147 2.473 . S
O170 C152 1.257 . S
H171 C157 0.929 . S
H172 C159 0.931 . S
H173 C161 0.929 . S
O174 Tb175 2.292 . S
O174 C177 1.255 . S
Tb175 O174 2.292 . S
Tb175 O191 2.326 . S
Tb175 O193 2.500 . S
Tb175 O194 2.473 . S
Tb175 O197 2.324 . S
Eu176 O180 2.292 . S
Eu176 C181 2.852 1_545 S
Eu176 O192 2.324 . S
Eu176 O196 2.326 . S
Eu176 O198 2.500 1_545 S
Eu176 O199 2.473 . S
C177 O174 1.255 . S
C177 O178 1.247 . S
O178 C177 1.247 . S
C179 O191 1.242 . S
C179 O192 1.258 . S
O180 Eu176 2.292 . S
O180 C182 1.255 . S
C181 Eu176 2.852 1_565 S
C181 C185 1.503 . S
C181 O198 1.273 . S
C181 O199 1.257 1_565 S
C182 O180 1.255 . S
C182 O183 1.247 . S
O183 C182 1.247 . S
C184 O196 1.242 1_565 S
C184 O197 1.258 1_565 S
C185 C181 1.503 . S
C185 C186 1.379 . S
C185 C190 1.392 . S
C186 C185 1.379 . S
C186 C187 1.404 . S
C186 H200 0.929 . S
C187 C186 1.404 . S
C187 C188 1.389 . S
C188 C187 1.389 . S
C188 C189 1.399 . S
C188 H201 0.931 . S
C189 C188 1.399 . S
C189 C190 1.390 . S
C190 C185 1.392 . S
C190 C189 1.390 . S
C190 H202 0.929 . S
O191 Tb175 2.326 . S
O191 C179 1.242 . S
O192 Eu176 2.324 . S
O192 C179 1.258 . S
O193 Tb175 2.500 . S
O193 C195 1.273 . S
O194 Tb175 2.473 . S
O194 C195 1.257 . S
C195 O193 1.273 . S
C195 O194 1.257 . S
O196 Eu176 2.326 . S
O196 C184 1.242 1_545 S
O197 Tb175 2.324 . S
O197 C184 1.258 1_545 S
O198 Eu176 2.500 1_565 S
O198 C181 1.273 . S
O199 Eu176 2.473 . S
O199 C181 1.257 1_545 S
H200 C186 0.929 . S
H201 C188 0.931 . S
H202 C190 0.929 . S
O203 Tb204 2.292 . S
O203 C206 1.255 . S
Tb204 O203 2.292 . S
Tb204 O220 2.326 . S
Tb204 O222 2.500 . S
Tb204 O223 2.473 . S
Tb204 O226 2.324 . S
Eu205 O209 2.292 . S
Eu205 C210 2.852 . S
Eu205 O221 2.324 . S
Eu205 O225 2.326 . S
Eu205 O227 2.500 . S
Eu205 O228 2.473 . S
C206 O203 1.255 . S
C206 O207 1.247 . S
O207 C206 1.247 . S
C208 O220 1.242 . S
C208 O221 1.258 . S
O209 Eu205 2.292 . S
O209 C211 1.255 . S
C210 Eu205 2.852 . S
C210 C214 1.503 . S
C210 O227 1.273 . S
C210 O228 1.257 . S
C211 O209 1.255 . S
C211 O212 1.247 . S
O212 C211 1.247 . S
C213 O225 1.242 . S
C213 O226 1.258 . S
C214 C210 1.503 . S
C214 C215 1.379 . S
C214 C219 1.392 . S
C215 C214 1.379 . S
C215 C216 1.404 . S
C215 H229 0.929 . S
C216 C215 1.404 . S
C216 C217 1.389 . S
C217 C216 1.389 . S
C217 C218 1.399 . S
C217 H230 0.931 . S
C218 C217 1.399 . S
C218 C219 1.390 . S
C219 C214 1.392 . S
C219 C218 1.390 . S
C219 H231 0.929 . S
O220 Tb204 2.326 . S
O220 C208 1.242 . S
O221 Eu205 2.324 . S
O221 C208 1.258 . S
O222 Tb204 2.500 . S
O222 C224 1.273 . S
O223 Tb204 2.473 . S
O223 C224 1.257 . S
C224 O222 1.273 . S
C224 O223 1.257 . S
O225 Eu205 2.326 . S
O225 C213 1.242 . S
O226 Tb204 2.324 . S
O226 C213 1.258 . S
O227 Eu205 2.500 . S
O227 C210 1.273 . S
O228 Eu205 2.473 . S
O228 C210 1.257 . S
H229 C215 0.929 . S
H230 C217 0.931 . S
H231 C219 0.929 . S
O232 Tb233 2.292 . S
O232 C235 1.255 . S
Tb233 O232 2.292 . S
Tb233 O249 2.326 . S
Tb233 O251 2.500 . S
Tb233 O252 2.473 . S
Tb233 O255 2.324 . S
Eu234 O238 2.292 . S
Eu234 C239 2.852 . S
Eu234 O250 2.324 . S
Eu234 O254 2.326 . S
Eu234 O256 2.500 . S
Eu234 O257 2.473 . S
C235 O232 1.255 . S
C235 O236 1.247 . S
O236 C235 1.247 . S
C237 O249 1.242 . S
C237 O250 1.258 . S
O238 Eu234 2.292 . S
O238 C240 1.255 . S
C239 Eu234 2.852 . S
C239 C243 1.503 . S
C239 O256 1.273 . S
C239 O257 1.257 . S
C240 O238 1.255 . S
C240 O241 1.247 . S
O241 C240 1.247 . S
C242 O254 1.242 . S
C242 O255 1.258 . S
C243 C239 1.503 . S
C243 C244 1.379 . S
C243 C248 1.392 . S
C244 C243 1.379 . S
C244 C245 1.404 . S
C244 H258 0.929 . S
C245 C244 1.404 . S
C245 C246 1.389 . S
C246 C245 1.389 . S
C246 C247 1.399 . S
C246 H259 0.931 . S
C247 C246 1.399 . S
C247 C248 1.390 . S
C248 C243 1.392 . S
C248 C247 1.390 . S
C248 H260 0.929 . S
O249 Tb233 2.326 . S
O249 C237 1.242 . S
O250 Eu234 2.324 . S
O250 C237 1.258 . S
O251 Tb233 2.500 . S
O251 C253 1.273 . S
O252 Tb233 2.473 . S
O252 C253 1.257 . S
C253 O251 1.273 . S
C253 O252 1.257 . S
O254 Eu234 2.326 . S
O254 C242 1.242 . S
O255 Tb233 2.324 . S
O255 C242 1.258 . S
O256 Eu234 2.500 . S
O256 C239 1.273 . S
O257 Eu234 2.473 . S
O257 C239 1.257 . S
H258 C244 0.929 . S
H259 C246 0.931 . S
H260 C248 0.929 . S
O261 Tb262 2.292 . S
O261 C264 1.255 . S
Tb262 O261 2.292 . S
Tb262 O278 2.326 . S
Tb262 O280 2.500 . S
Tb262 O281 2.473 . S
Tb262 O284 2.324 . S
Eu263 O267 2.292 . S
Eu263 C268 2.852 . S
Eu263 O279 2.324 . S
Eu263 O283 2.326 . S
Eu263 O285 2.500 . S
Eu263 O286 2.473 . S
C264 O261 1.255 . S
C264 O265 1.247 . S
O265 C264 1.247 . S
C266 O278 1.242 . S
C266 O279 1.258 . S
O267 Eu263 2.292 . S
O267 C269 1.255 . S
C268 Eu263 2.852 . S
C268 C272 1.503 . S
C268 O285 1.273 . S
C268 O286 1.257 . S
C269 O267 1.255 . S
C269 O270 1.247 . S
O270 C269 1.247 . S
C271 O283 1.242 . S
C271 O284 1.258 . S
C272 C268 1.503 . S
C272 C273 1.379 . S
C272 C277 1.392 . S
C273 C272 1.379 . S
C273 C274 1.404 . S
C273 H287 0.929 . S
C274 C273 1.404 . S
C274 C275 1.389 . S
C275 C274 1.389 . S
C275 C276 1.399 . S
C275 H288 0.931 . S
C276 C275 1.399 . S
C276 C277 1.390 . S
C277 C272 1.392 . S
C277 C276 1.390 . S
C277 H289 0.929 . S
O278 Tb262 2.326 . S
O278 C266 1.242 . S
O279 Eu263 2.324 . S
O279 C266 1.258 . S
O280 Tb262 2.500 . S
O280 C282 1.273 . S
O281 Tb262 2.473 . S
O281 C282 1.257 . S
C282 O280 1.273 . S
C282 O281 1.257 . S
O283 Eu263 2.326 . S
O283 C271 1.242 . S
O284 Tb262 2.324 . S
O284 C271 1.258 . S
O285 Eu263 2.500 . S
O285 C268 1.273 . S
O286 Eu263 2.473 . S
O286 C268 1.257 . S
H287 C273 0.929 . S
H288 C275 0.931 . S
H289 C277 0.929 . S
O290 Tb291 2.292 . S
O290 C293 1.255 . S
Tb291 O290 2.292 . S
Tb291 O307 2.326 . S
Tb291 O309 2.500 . S
Tb291 O310 2.473 . S
Tb291 O313 2.324 . S
Eu292 O296 2.292 . S
Eu292 C297 2.852 . S
Eu292 O308 2.324 . S
Eu292 O312 2.326 . S
Eu292 O314 2.500 . S
Eu292 O315 2.473 . S
C293 O290 1.255 . S
C293 O294 1.247 . S
O294 C293 1.247 . S
C295 O307 1.242 . S
C295 O308 1.258 . S
O296 Eu292 2.292 . S
O296 C298 1.255 . S
C297 Eu292 2.852 . S
C297 C301 1.503 . S
C297 O314 1.273 . S
C297 O315 1.257 . S
C298 O296 1.255 . S
C298 O299 1.247 . S
O299 C298 1.247 . S
C300 O312 1.242 . S
C300 O313 1.258 . S
C301 C297 1.503 . S
C301 C302 1.379 . S
C301 C306 1.392 . S
C302 C301 1.379 . S
C302 C303 1.404 . S
C302 H316 0.929 . S
C303 C302 1.404 . S
C303 C304 1.389 . S
C304 C303 1.389 . S
C304 C305 1.399 . S
C304 H317 0.931 . S
C305 C304 1.399 . S
C305 C306 1.390 . S
C306 C301 1.392 . S
C306 C305 1.390 . S
C306 H318 0.929 . S
O307 Tb291 2.326 . S
O307 C295 1.242 . S
O308 Eu292 2.324 . S
O308 C295 1.258 . S
O309 Tb291 2.500 . S
O309 C311 1.273 . S
O310 Tb291 2.473 . S
O310 C311 1.257 . S
C311 O309 1.273 . S
C311 O310 1.257 . S
O312 Eu292 2.326 . S
O312 C300 1.242 . S
O313 Tb291 2.324 . S
O313 C300 1.258 . S
O314 Eu292 2.500 . S
O314 C297 1.273 . S
O315 Eu292 2.473 . S
O315 C297 1.257 . S
H316 C302 0.929 . S
H317 C304 0.931 . S
H318 C306 0.929 . S
O319 Tb320 2.292 . S
O319 C322 1.255 . S
Tb320 O319 2.292 . S
Tb320 O336 2.326 . S
Tb320 O338 2.500 . S
Tb320 O339 2.473 . S
Tb320 O342 2.324 . S
Eu321 O325 2.292 . S
Eu321 C326 2.852 . S
Eu321 O337 2.324 . S
Eu321 O341 2.326 . S
Eu321 O343 2.500 . S
Eu321 O344 2.473 . S
C322 O319 1.255 . S
C322 O323 1.247 . S
O323 C322 1.247 . S
C324 O336 1.242 . S
C324 O337 1.258 . S
O325 Eu321 2.292 . S
O325 C327 1.255 . S
C326 Eu321 2.852 . S
C326 C330 1.503 . S
C326 O343 1.273 . S
C326 O344 1.257 . S
C327 O325 1.255 . S
C327 O328 1.247 . S
O328 C327 1.247 . S
C329 O341 1.242 . S
C329 O342 1.258 . S
C330 C326 1.503 . S
C330 C331 1.379 . S
C330 C335 1.392 . S
C331 C330 1.379 . S
C331 C332 1.404 . S
C331 H345 0.929 . S
C332 C331 1.404 . S
C332 C333 1.389 . S
C333 C332 1.389 . S
C333 C334 1.399 . S
C333 H346 0.931 . S
C334 C333 1.399 . S
C334 C335 1.390 . S
C335 C330 1.392 . S
C335 C334 1.390 . S
C335 H347 0.929 . S
O336 Tb320 2.326 . S
O336 C324 1.242 . S
O337 Eu321 2.324 . S
O337 C324 1.258 . S
O338 Tb320 2.500 . S
O338 C340 1.273 . S
O339 Tb320 2.473 . S
O339 C340 1.257 . S
C340 O338 1.273 . S
C340 O339 1.257 . S
O341 Eu321 2.326 . S
O341 C329 1.242 . S
O342 Tb320 2.324 . S
O342 C329 1.258 . S
O343 Eu321 2.500 . S
O343 C326 1.273 . S
O344 Eu321 2.473 . S
O344 C326 1.257 . S
H345 C331 0.929 . S
H346 C333 0.931 . S
H347 C335 0.929 . S
O348 Tb349 2.292 . S
O348 C351 1.255 . S
Tb349 O348 2.292 . S
Tb349 O365 2.326 . S
Tb349 O367 2.500 . S
Tb349 O368 2.473 . S
Tb349 O371 2.324 . S
Eu350 O354 2.292 . S
Eu350 C355 2.852 . S
Eu350 O366 2.324 . S
Eu350 O370 2.326 . S
Eu350 O372 2.500 . S
Eu350 O373 2.473 . S
C351 O348 1.255 . S
C351 O352 1.247 . S
O352 C351 1.247 . S
C353 O365 1.242 . S
C353 O366 1.258 . S
O354 Eu350 2.292 . S
O354 C356 1.255 . S
C355 Eu350 2.852 . S
C355 C359 1.503 . S
C355 O372 1.273 . S
C355 O373 1.257 . S
C356 O354 1.255 . S
C356 O357 1.247 . S
O357 C356 1.247 . S
C358 O370 1.242 . S
C358 O371 1.258 . S
C359 C355 1.503 . S
C359 C360 1.379 . S
C359 C364 1.392 . S
C360 C359 1.379 . S
C360 C361 1.404 . S
C360 H374 0.929 . S
C361 C360 1.404 . S
C361 C362 1.389 . S
C362 C361 1.389 . S
C362 C363 1.399 . S
C362 H375 0.931 . S
C363 C362 1.399 . S
C363 C364 1.390 . S
C364 C359 1.392 . S
C364 C363 1.390 . S
C364 H376 0.929 . S
O365 Tb349 2.326 . S
O365 C353 1.242 . S
O366 Eu350 2.324 . S
O366 C353 1.258 . S
O367 Tb349 2.500 . S
O367 C369 1.273 . S
O368 Tb349 2.473 . S
O368 C369 1.257 . S
C369 O367 1.273 . S
C369 O368 1.257 . S
O370 Eu350 2.326 . S
O370 C358 1.242 . S
O371 Tb349 2.324 . S
O371 C358 1.258 . S
O372 Eu350 2.500 . S
O372 C355 1.273 . S
O373 Eu350 2.473 . S
O373 C355 1.257 . S
H374 C360 0.929 . S
H375 C362 0.931 . S
H376 C364 0.929 . S
O377 Tb378 2.292 . S
O377 C380 1.255 1_455 S
Tb378 O377 2.292 . S
Tb378 O394 2.326 . S
Tb378 O396 2.500 . S
Tb378 O397 2.473 . S
Tb378 O400 2.324 . S
Eu379 O383 2.292 . S
Eu379 C384 2.852 . S
Eu379 O395 2.324 . S
Eu379 O399 2.326 . S
Eu379 O401 2.500 . S
Eu379 O402 2.473 . S
C380 O377 1.255 1_655 S
C380 O381 1.247 . S
O381 C380 1.247 . S
C382 O394 1.242 . S
C382 O395 1.258 . S
O383 Eu379 2.292 . S
O383 C385 1.255 . S
C384 Eu379 2.852 . S
C384 C388 1.503 1_455 S
C384 O401 1.273 . S
C384 O402 1.257 . S
C385 O383 1.255 . S
C385 O386 1.247 . S
O386 C385 1.247 . S
C387 O399 1.242 . S
C387 O400 1.258 . S
C388 C384 1.503 1_655 S
C388 C389 1.379 . S
C388 C393 1.392 . S
C389 C388 1.379 . S
C389 C390 1.404 . S
C389 H403 0.929 . S
C390 C389 1.404 . S
C390 C391 1.389 . S
C391 C390 1.389 . S
C391 C392 1.399 . S
C391 H404 0.931 . S
C392 C391 1.399 . S
C392 C393 1.390 . S
C393 C388 1.392 . S
C393 C392 1.390 . S
C393 H405 0.929 1_655 S
O394 Tb378 2.326 . S
O394 C382 1.242 . S
O395 Eu379 2.324 . S
O395 C382 1.258 . S
O396 Tb378 2.500 . S
O396 C398 1.273 . S
O397 Tb378 2.473 . S
O397 C398 1.257 . S
C398 O396 1.273 . S
C398 O397 1.257 . S
O399 Eu379 2.326 . S
O399 C387 1.242 . S
O400 Tb378 2.324 . S
O400 C387 1.258 . S
O401 Eu379 2.500 . S
O401 C384 1.273 . S
O402 Eu379 2.473 . S
O402 C384 1.257 . S
H403 C389 0.929 . S
H404 C391 0.931 . S
H405 C393 0.929 1_455 S
O406 Tb407 2.292 . S
O406 C409 1.255 . S
Tb407 O406 2.292 . S
Tb407 O423 2.326 . S
Tb407 O425 2.500 . S
Tb407 O426 2.473 . S
Tb407 O429 2.324 . S
Eu408 O412 2.292 . S
Eu408 C413 2.852 . S
Eu408 O424 2.324 . S
Eu408 O428 2.326 . S
Eu408 O430 2.500 . S
Eu408 O431 2.473 . S
C409 O406 1.255 . S
C409 O410 1.247 . S
O410 C409 1.247 . S
C411 O423 1.242 . S
C411 O424 1.258 . S
O412 Eu408 2.292 . S
O412 C414 1.255 . S
C413 Eu408 2.852 . S
C413 C417 1.503 . S
C413 O430 1.273 . S
C413 O431 1.257 . S
C414 O412 1.255 . S
C414 O415 1.247 . S
O415 C414 1.247 . S
C416 O428 1.242 . S
C416 O429 1.258 . S
C417 C413 1.503 . S
C417 C418 1.379 . S
C417 C422 1.392 . S
C418 C417 1.379 . S
C418 C419 1.404 . S
C418 H432 0.929 . S
C419 C418 1.404 . S
C419 C420 1.389 . S
C420 C419 1.389 . S
C420 C421 1.399 . S
C420 H433 0.931 . S
C421 C420 1.399 . S
C421 C422 1.390 . S
C422 C417 1.392 . S
C422 C421 1.390 . S
C422 H434 0.929 . S
O423 Tb407 2.326 . S
O423 C411 1.242 . S
O424 Eu408 2.324 . S
O424 C411 1.258 . S
O425 Tb407 2.500 . S
O425 C427 1.273 . S
O426 Tb407 2.473 . S
O426 C427 1.257 . S
C427 O425 1.273 . S
C427 O426 1.257 . S
O428 Eu408 2.326 . S
O428 C416 1.242 . S
O429 Tb407 2.324 . S
O429 C416 1.258 . S
O430 Eu408 2.500 . S
O430 C413 1.273 . S
O431 Eu408 2.473 . S
O431 C413 1.257 . S
H432 C418 0.929 . S
H433 C420 0.931 . S
H434 C422 0.929 . S
O435 Tb436 2.292 . S
O435 C438 1.255 1_455 S
Tb436 O435 2.292 . S
Tb436 O452 2.326 . S
Tb436 O454 2.500 . S
Tb436 O455 2.473 . S
Tb436 O458 2.324 . S
Eu437 O441 2.292 . S
Eu437 C442 2.852 . S
Eu437 O453 2.324 . S
Eu437 O457 2.326 . S
Eu437 O459 2.500 . S
Eu437 O460 2.473 . S
C438 O435 1.255 1_655 S
C438 O439 1.247 . S
O439 C438 1.247 . S
C440 O452 1.242 . S
C440 O453 1.258 . S
O441 Eu437 2.292 . S
O441 C443 1.255 . S
C442 Eu437 2.852 . S
C442 C446 1.503 1_455 S
C442 O459 1.273 . S
C442 O460 1.257 . S
C443 O441 1.255 . S
C443 O444 1.247 . S
O444 C443 1.247 . S
C445 O457 1.242 . S
C445 O458 1.258 . S
C446 C442 1.503 1_655 S
C446 C447 1.379 . S
C446 C451 1.392 . S
C447 C446 1.379 . S
C447 C448 1.404 . S
C447 H461 0.929 . S
C448 C447 1.404 . S
C448 C449 1.389 . S
C449 C448 1.389 . S
C449 C450 1.399 . S
C449 H462 0.931 . S
C450 C449 1.399 . S
C450 C451 1.390 . S
C451 C446 1.392 . S
C451 C450 1.390 . S
C451 H463 0.929 1_655 S
O452 Tb436 2.326 . S
O452 C440 1.242 . S
O453 Eu437 2.324 . S
O453 C440 1.258 . S
O454 Tb436 2.500 . S
O454 C456 1.273 . S
O455 Tb436 2.473 . S
O455 C456 1.257 . S
C456 O454 1.273 . S
C456 O455 1.257 . S
O457 Eu437 2.326 . S
O457 C445 1.242 . S
O458 Tb436 2.324 . S
O458 C445 1.258 . S
O459 Eu437 2.500 . S
O459 C442 1.273 . S
O460 Eu437 2.473 . S
O460 C442 1.257 . S
H461 C447 0.929 . S
H462 C449 0.931 . S
H463 C451 0.929 1_455 S
H464 C476 0.930 . S
H465 C478 0.942 . S
H466 C479 0.930 1_655 S
H467 C483 0.959 . S
H468 C483 0.959 . S
H469 C483 0.961 . S
H470 C484 0.961 . S
H471 C484 0.961 . S
H472 C484 0.959 1_655 S
H473 C487 0.929 . S
H474 C488 0.931 . S
H475 C490 0.930 . S
C476 H464 0.930 . S
C476 C477 1.399 . S
C476 C481 1.399 . S
C477 C476 1.399 . S
C477 C478 1.368 1_455 S
C478 H465 0.942 . S
C478 C477 1.368 1_655 S
C478 C479 1.387 1_655 S
C479 H466 0.930 1_455 S
C479 C478 1.387 1_455 S
C479 C480 1.390 . S
C480 C479 1.390 . S
C480 C481 1.394 . S
C480 C486 1.465 . S
C481 C476 1.399 . S
C481 C480 1.394 . S
C481 C482 1.516 . S
C482 C481 1.516 . S
C482 C483 1.502 . S
C482 C484 1.561 . S
C482 C485 1.526 . S
C483 H467 0.959 . S
C483 H468 0.959 . S
C483 H469 0.961 . S
C483 C482 1.502 . S
C484 H470 0.961 . S
C484 H471 0.961 . S
C484 H472 0.959 1_455 S
C484 C482 1.561 . S
C485 C482 1.526 . S
C485 C486 1.396 . S
C485 C490 1.390 . S
C486 C480 1.465 . S
C486 C485 1.396 . S
C486 C487 1.399 . S
C487 H473 0.929 . S
C487 C486 1.399 . S
C487 C488 1.385 . S
C488 H474 0.931 . S
C488 C487 1.385 . S
C488 C489 1.389 . S
C489 C488 1.389 . S
C489 C490 1.387 . S
C490 H475 0.930 . S
C490 C485 1.390 . S
C490 C489 1.387 . S
H491 C503 0.930 . S
H492 C505 0.930 . S
H493 C506 0.930 . S
H494 C510 0.959 . S
H495 C510 0.959 . S
H496 C510 0.961 . S
H497 C511 0.937 1_655 S
H498 C511 0.961 . S
H499 C511 0.959 . S
H500 C514 0.929 . S
H501 C515 0.931 . S
H502 C517 0.930 . S
C503 H491 0.930 . S
C503 C504 1.399 . S
C503 C508 1.399 . S
C504 C503 1.399 . S
C504 C505 1.376 . S
C505 H492 0.930 . S
C505 C504 1.376 . S
C505 C506 1.388 . S
C506 H493 0.930 . S
C506 C505 1.388 . S
C506 C507 1.390 1_655 S
C507 C506 1.390 1_455 S
C507 C508 1.394 1_455 S
C507 C513 1.465 . S
C508 C503 1.399 . S
C508 C507 1.394 1_655 S
C508 C509 1.516 1_655 S
C509 C508 1.516 1_455 S
C509 C510 1.502 . S
C509 C511 1.561 . S
C509 C512 1.526 . S
C510 H494 0.959 . S
C510 H495 0.959 . S
C510 H496 0.961 . S
C510 C509 1.502 . S
C511 H497 0.937 1_455 S
C511 H498 0.961 . S
C511 H499 0.959 . S
C511 C509 1.561 . S
C512 C509 1.526 . S
C512 C513 1.396 . S
C512 C517 1.390 . S
C513 C507 1.465 . S
C513 C512 1.396 . S
C513 C514 1.399 . S
C514 H500 0.929 . S
C514 C513 1.399 . S
C514 C515 1.385 . S
C515 H501 0.931 . S
C515 C514 1.385 . S
C515 C516 1.389 . S
C516 C515 1.389 . S
C516 C517 1.387 . S
C517 H502 0.930 . S
C517 C512 1.390 . S
C517 C516 1.387 . S
H518 C530 0.930 . S
H519 C532 0.930 . S
H520 C533 0.930 . S
H521 C537 0.959 . S
H522 C537 0.959 . S
H523 C537 0.961 . S
H524 C538 0.960 . S
H525 C538 0.961 . S
H526 C538 0.959 . S
H527 C541 0.929 . S
H528 C542 0.931 . S
H529 C544 0.930 . S
C530 H518 0.930 . S
C530 C531 1.399 . S
C530 C535 1.399 . S
C531 C530 1.399 . S
C531 C532 1.376 . S
C532 H519 0.930 . S
C532 C531 1.376 . S
C532 C533 1.388 . S
C533 H520 0.930 . S
C533 C532 1.388 . S
C533 C534 1.390 . S
C534 C533 1.390 . S
C534 C535 1.394 . S
C534 C540 1.465 . S
C535 C530 1.399 . S
C535 C534 1.394 . S
C535 C536 1.516 . S
C536 C535 1.516 . S
C536 C537 1.502 . S
C536 C538 1.561 . S
C536 C539 1.526 . S
C537 H521 0.959 . S
C537 H522 0.959 . S
C537 H523 0.961 . S
C537 C536 1.502 . S
C538 H524 0.960 . S
C538 H525 0.961 . S
C538 H526 0.959 . S
C538 C536 1.561 . S
C539 C536 1.526 . S
C539 C540 1.396 . S
C539 C544 1.390 . S
C540 C534 1.465 . S
C540 C539 1.396 . S
C540 C541 1.399 . S
C541 H527 0.929 . S
C541 C540 1.399 . S
C541 C542 1.385 . S
C542 H528 0.931 . S
C542 C541 1.385 . S
C542 C543 1.389 . S
C543 C542 1.389 . S
C543 C544 1.387 . S
C544 H529 0.930 . S
C544 C539 1.390 . S
C544 C543 1.387 . S
H545 C557 0.930 . S
H546 C559 0.930 . S
H547 C560 0.930 . S
H548 C564 0.959 . S
H549 C564 0.959 . S
H550 C564 0.961 . S
H551 C565 0.960 . S
H552 C565 0.961 . S
H553 C565 0.959 . S
H554 C568 0.929 . S
H555 C569 0.931 . S
H556 C571 0.930 . S
C557 H545 0.930 . S
C557 C558 1.399 . S
C557 C562 1.399 . S
C558 C557 1.399 . S
C558 C559 1.376 . S
C559 H546 0.930 . S
C559 C558 1.376 . S
C559 C560 1.388 . S
C560 H547 0.930 . S
C560 C559 1.388 . S
C560 C561 1.390 . S
C561 C560 1.390 . S
C561 C562 1.394 . S
C561 C567 1.465 . S
C562 C557 1.399 . S
C562 C561 1.394 . S
C562 C563 1.516 . S
C563 C562 1.516 . S
C563 C564 1.502 . S
C563 C565 1.561 . S
C563 C566 1.526 . S
C564 H548 0.959 . S
C564 H549 0.959 . S
C564 H550 0.961 . S
C564 C563 1.502 . S
C565 H551 0.960 . S
C565 H552 0.961 . S
C565 H553 0.959 . S
C565 C563 1.561 . S
C566 C563 1.526 . S
C566 C567 1.396 . S
C566 C571 1.390 . S
C567 C561 1.465 . S
C567 C566 1.396 . S
C567 C568 1.399 . S
C568 H554 0.929 . S
C568 C567 1.399 . S
C568 C569 1.385 . S
C569 H555 0.931 . S
C569 C568 1.385 . S
C569 C570 1.389 . S
C570 C569 1.389 . S
C570 C571 1.387 . S
C571 H556 0.930 . S
C571 C566 1.390 . S
C571 C570 1.387 . S
H572 C584 0.930 . S
H573 C586 0.930 . S
H574 C587 0.930 . S
H575 C591 0.959 . S
H576 C591 0.959 . S
H577 C591 0.961 . S
H578 C592 0.960 . S
H579 C592 0.961 . S
H580 C592 0.959 . S
H581 C595 0.929 . S
H582 C596 0.931 . S
H583 C598 0.930 1_655 S
C584 H572 0.930 . S
C584 C585 1.399 . S
C584 C589 1.399 . S
C585 C584 1.399 . S
C585 C586 1.376 . S
C586 H573 0.930 . S
C586 C585 1.376 . S
C586 C587 1.388 . S
C587 H574 0.930 . S
C587 C586 1.388 . S
C587 C588 1.390 . S
C588 C587 1.390 . S
C588 C589 1.394 . S
C588 C594 1.465 . S
C589 C584 1.399 . S
C589 C588 1.394 . S
C589 C590 1.516 . S
C590 C589 1.516 . S
C590 C591 1.502 1_455 S
C590 C592 1.561 . S
C590 C593 1.526 . S
C591 H575 0.959 . S
C591 H576 0.959 . S
C591 H577 0.961 . S
C591 C590 1.502 1_655 S
C592 H578 0.960 . S
C592 H579 0.961 . S
C592 H580 0.959 . S
C592 C590 1.561 . S
C593 C590 1.526 . S
C593 C594 1.396 . S
C593 C598 1.390 . S
C594 C588 1.465 . S
C594 C593 1.396 . S
C594 C595 1.399 . S
C595 H581 0.929 . S
C595 C594 1.399 . S
C595 C596 1.385 . S
C596 H582 0.931 . S
C596 C595 1.385 . S
C596 C597 1.389 . S
C597 C596 1.389 . S
C597 C598 1.387 . S
C598 H583 0.930 1_455 S
C598 C593 1.390 . S
C598 C597 1.387 . S
H599 C611 0.930 . S
H600 C613 0.930 . S
H601 C614 0.930 . S
H602 C618 0.959 . S
H603 C618 0.959 . S
H604 C618 0.961 . S
H605 C619 0.960 . S
H606 C619 0.961 . S
H607 C619 0.959 . S
H608 C622 0.929 . S
H609 C623 0.931 . S
H610 C625 0.930 . S
C611 H599 0.930 . S
C611 C612 1.399 . S
C611 C616 1.399 . S
C612 C611 1.399 . S
C612 C613 1.376 . S
C613 H600 0.930 . S
C613 C612 1.376 . S
C613 C614 1.388 . S
C614 H601 0.930 . S
C614 C613 1.388 . S
C614 C615 1.390 . S
C615 C614 1.390 . S
C615 C616 1.394 . S
C615 C621 1.465 . S
C616 C611 1.399 . S
C616 C615 1.394 . S
C616 C617 1.516 . S
C617 C616 1.516 . S
C617 C618 1.502 . S
C617 C619 1.561 . S
C617 C620 1.526 . S
C618 H602 0.959 . S
C618 H603 0.959 . S
C618 H604 0.961 . S
C618 C617 1.502 . S
C619 H605 0.960 . S
C619 H606 0.961 . S
C619 H607 0.959 . S
C619 C617 1.561 . S
C620 C617 1.526 . S
C620 C621 1.396 . S
C620 C625 1.390 . S
C621 C615 1.465 . S
C621 C620 1.396 . S
C621 C622 1.399 . S
C622 H608 0.929 . S
C622 C621 1.399 . S
C622 C623 1.385 . S
C623 H609 0.931 . S
C623 C622 1.385 . S
C623 C624 1.389 . S
C624 C623 1.389 . S
C624 C625 1.387 . S
C625 H610 0.930 . S
C625 C620 1.390 . S
C625 C624 1.387 . S
H626 C638 0.930 . S
H627 C640 0.930 . S
H628 C641 0.930 . S
H629 C645 0.959 . S
H630 C645 0.959 . S
H631 C645 0.961 . S
H632 C646 0.960 . S
H633 C646 0.961 . S
H634 C646 0.959 . S
H635 C649 0.929 . S
H636 C650 0.931 . S
H637 C652 0.930 . S
C638 H626 0.930 . S
C638 C639 1.399 . S
C638 C643 1.399 . S
C639 C638 1.399 . S
C639 C640 1.376 . S
C640 H627 0.930 . S
C640 C639 1.376 . S
C640 C641 1.388 . S
C641 H628 0.930 . S
C641 C640 1.388 . S
C641 C642 1.390 . S
C642 C641 1.390 . S
C642 C643 1.394 . S
C642 C648 1.465 . S
C643 C638 1.399 . S
C643 C642 1.394 . S
C643 C644 1.516 . S
C644 C643 1.516 . S
C644 C645 1.502 . S
C644 C646 1.561 . S
C644 C647 1.526 . S
C645 H629 0.959 . S
C645 H630 0.959 . S
C645 H631 0.961 . S
C645 C644 1.502 . S
C646 H632 0.960 . S
C646 H633 0.961 . S
C646 H634 0.959 . S
C646 C644 1.561 . S
C647 C644 1.526 . S
C647 C648 1.396 . S
C647 C652 1.390 . S
C648 C642 1.465 . S
C648 C647 1.396 . S
C648 C649 1.399 . S
C649 H635 0.929 . S
C649 C648 1.399 . S
C649 C650 1.385 . S
C650 H636 0.931 . S
C650 C649 1.385 . S
C650 C651 1.389 . S
C651 C650 1.389 . S
C651 C652 1.387 . S
C652 H637 0.930 . S
C652 C647 1.390 . S
C652 C651 1.387 . S
H653 C665 0.930 . S
H654 C667 0.930 . S
H655 C668 0.930 . S
H656 C672 0.959 . S
H657 C672 0.959 . S
H658 C672 0.961 . S
H659 C673 0.960 . S
H660 C673 0.961 . S
H661 C673 0.959 . S
H662 C676 0.929 . S
H663 C677 0.931 . S
H664 C679 0.930 . S
C665 H653 0.930 . S
C665 C666 1.399 . S
C665 C670 1.399 . S
C666 C665 1.399 . S
C666 C667 1.376 . S
C667 H654 0.930 . S
C667 C666 1.376 . S
C667 C668 1.388 . S
C668 H655 0.930 . S
C668 C667 1.388 . S
C668 C669 1.390 . S
C669 C668 1.390 . S
C669 C670 1.394 . S
C669 C675 1.465 . S
C670 C665 1.399 . S
C670 C669 1.394 . S
C670 C671 1.516 . S
C671 C670 1.516 . S
C671 C672 1.502 . S
C671 C673 1.561 . S
C671 C674 1.526 1_455 S
C672 H656 0.959 . S
C672 H657 0.959 . S
C672 H658 0.961 . S
C672 C671 1.502 . S
C673 H659 0.960 . S
C673 H660 0.961 . S
C673 H661 0.959 . S
C673 C671 1.561 . S
C674 C671 1.526 1_655 S
C674 C675 1.396 1_655 S
C674 C679 1.390 . S
C675 C669 1.465 . S
C675 C674 1.396 1_455 S
C675 C676 1.399 1_455 S
C676 H662 0.929 . S
C676 C675 1.399 1_655 S
C676 C677 1.385 . S
C677 H663 0.931 . S
C677 C676 1.385 . S
C677 C678 1.389 . S
C678 C677 1.389 . S
C678 C679 1.387 . S
C679 H664 0.930 . S
C679 C674 1.390 . S
C679 C678 1.387 . S
H680 C692 0.930 . S
H681 C694 0.930 . S
H682 C695 0.930 . S
H683 C699 0.959 . S
H684 C699 0.959 . S
H685 C699 0.961 . S
H686 C700 0.960 . S
H687 C700 0.961 . S
H688 C700 0.959 . S
H689 C703 0.929 . S
H690 C704 0.931 . S
H691 C706 0.930 . S
C692 H680 0.930 . S
C692 C693 1.399 . S
C692 C697 1.399 . S
C693 C692 1.399 . S
C693 C694 1.376 . S
C694 H681 0.930 . S
C694 C693 1.376 . S
C694 C695 1.388 1_556 S
C695 H682 0.930 . S
C695 C694 1.388 1_554 S
C695 C696 1.390 . S
C696 C695 1.390 . S
C696 C697 1.394 1_554 S
C696 C702 1.465 . S
C697 C692 1.399 . S
C697 C696 1.394 1_556 S
C697 C698 1.516 . S
C698 C697 1.516 . S
C698 C699 1.502 . S
C698 C700 1.561 . S
C698 C701 1.526 1_556 S
C699 H683 0.959 . S
C699 H684 0.959 . S
C699 H685 0.961 . S
C699 C698 1.502 . S
C700 H686 0.960 . S
C700 H687 0.961 . S
C700 H688 0.959 . S
C700 C698 1.561 . S
C701 C698 1.526 1_554 S
C701 C702 1.396 . S
C701 C706 1.390 . S
C702 C696 1.465 . S
C702 C701 1.396 . S
C702 C703 1.399 . S
C703 H689 0.929 . S
C703 C702 1.399 . S
C703 C704 1.385 . S
C704 H690 0.931 . S
C704 C703 1.385 . S
C704 C705 1.389 . S
C705 C704 1.389 . S
C705 C706 1.387 . S
C706 H691 0.930 . S
C706 C701 1.390 . S
C706 C705 1.387 . S
H707 C719 0.930 . S
H708 C721 0.930 . S
H709 C722 0.930 . S
H710 C726 0.959 . S
H711 C726 0.959 . S
H712 C726 0.961 . S
H713 C727 0.960 . S
H714 C727 0.961 . S
H715 C727 0.959 . S
H716 C730 0.929 . S
H717 C731 0.931 . S
H718 C733 0.930 . S
C719 H707 0.930 . S
C719 C720 1.399 . S
C719 C724 1.399 . S
C720 C719 1.399 . S
C720 C721 1.376 . S
C721 H708 0.930 . S
C721 C720 1.376 . S
C721 C722 1.388 . S
C722 H709 0.930 . S
C722 C721 1.388 . S
C722 C723 1.390 . S
C723 C722 1.390 . S
C723 C724 1.394 . S
C723 C729 1.465 . S
C724 C719 1.399 . S
C724 C723 1.394 . S
C724 C725 1.516 . S
C725 C724 1.516 . S
C725 C726 1.502 . S
C725 C727 1.561 . S
C725 C728 1.526 . S
C726 H710 0.959 . S
C726 H711 0.959 . S
C726 H712 0.961 . S
C726 C725 1.502 . S
C727 H713 0.960 . S
C727 H714 0.961 . S
C727 H715 0.959 . S
C727 C725 1.561 . S
C728 C725 1.526 . S
C728 C729 1.396 . S
C728 C733 1.390 . S
C729 C723 1.465 . S
C729 C728 1.396 . S
C729 C730 1.399 . S
C730 H716 0.929 . S
C730 C729 1.399 . S
C730 C731 1.385 . S
C731 H717 0.931 . S
C731 C730 1.385 . S
C731 C732 1.389 . S
C732 C731 1.389 . S
C732 C733 1.387 . S
C733 H718 0.930 . S
C733 C728 1.390 . S
C733 C732 1.387 . S
H734 C746 0.930 . S
H735 C748 0.930 . S
H736 C749 0.930 . S
H737 C753 0.959 . S
H738 C753 0.959 . S
H739 C753 0.961 . S
H740 C754 0.960 . S
H741 C754 0.961 . S
H742 C754 0.959 . S
H743 C757 0.929 . S
H744 C758 0.931 . S
H745 C760 0.930 . S
C746 H734 0.930 . S
C746 C747 1.399 . S
C746 C751 1.399 . S
C747 C746 1.399 . S
C747 C748 1.376 . S
C748 H735 0.930 . S
C748 C747 1.376 . S
C748 C749 1.388 . S
C749 H736 0.930 . S
C749 C748 1.388 . S
C749 C750 1.390 . S
C750 C749 1.390 . S
C750 C751 1.394 . S
C750 C756 1.465 . S
C751 C746 1.399 . S
C751 C750 1.394 . S
C751 C752 1.516 . S
C752 C751 1.516 . S
C752 C753 1.502 . S
C752 C754 1.561 . S
C752 C755 1.526 . S
C753 H737 0.959 . S
C753 H738 0.959 . S
C753 H739 0.961 . S
C753 C752 1.502 . S
C754 H740 0.960 . S
C754 H741 0.961 . S
C754 H742 0.959 . S
C754 C752 1.561 . S
C755 C752 1.526 . S
C755 C756 1.396 . S
C755 C760 1.390 . S
C756 C750 1.465 . S
C756 C755 1.396 . S
C756 C757 1.399 . S
C757 H743 0.929 . S
C757 C756 1.399 . S
C757 C758 1.385 . S
C758 H744 0.931 . S
C758 C757 1.385 . S
C758 C759 1.389 . S
C759 C758 1.389 . S
C759 C760 1.387 . S
C760 H745 0.930 . S
C760 C755 1.390 . S
C760 C759 1.387 . S
H761 C773 0.930 . S
H762 C775 0.930 . S
H763 C776 0.930 . S
H764 C780 0.959 . S
H765 C780 0.959 . S
H766 C780 0.961 . S
H767 C781 0.960 . S
H768 C781 0.961 . S
H769 C781 0.959 . S
H770 C784 0.929 . S
H771 C785 0.931 . S
H772 C787 0.930 . S
C773 H761 0.930 . S
C773 C774 1.399 . S
C773 C778 1.399 . S
C774 C773 1.399 . S
C774 C775 1.376 . S
C775 H762 0.930 . S
C775 C774 1.376 . S
C775 C776 1.388 . S
C776 H763 0.930 . S
C776 C775 1.388 . S
C776 C777 1.390 . S
C777 C776 1.390 . S
C777 C778 1.394 . S
C777 C783 1.465 . S
C778 C773 1.399 . S
C778 C777 1.394 . S
C778 C779 1.516 . S
C779 C778 1.516 . S
C779 C780 1.502 . S
C779 C781 1.561 . S
C779 C782 1.526 . S
C780 H764 0.959 . S
C780 H765 0.959 . S
C780 H766 0.961 . S
C780 C779 1.502 . S
C781 H767 0.960 . S
C781 H768 0.961 . S
C781 H769 0.959 . S
C781 C779 1.561 . S
C782 C779 1.526 . S
C782 C783 1.396 . S
C782 C787 1.390 . S
C783 C777 1.465 . S
C783 C782 1.396 . S
C783 C784 1.399 . S
C784 H770 0.929 . S
C784 C783 1.399 . S
C784 C785 1.385 . S
C785 H771 0.931 . S
C785 C784 1.385 . S
C785 C786 1.389 . S
C786 C785 1.389 . S
C786 C787 1.387 . S
C787 H772 0.930 . S
C787 C782 1.390 . S
C787 C786 1.387 . S
H788 C800 0.930 . S
H789 C802 0.930 . S
H790 C803 0.930 . S
H791 C807 0.959 . S
H792 C807 0.959 . S
H793 C807 0.961 . S
H794 C808 0.960 . S
H795 C808 0.961 . S
H796 C808 0.959 . S
H797 C811 0.929 . S
H798 C812 0.931 . S
H799 C814 0.930 . S
C800 H788 0.930 . S
C800 C801 1.399 . S
C800 C805 1.399 . S
C801 C800 1.399 . S
C801 C802 1.376 . S
C802 H789 0.930 . S
C802 C801 1.376 . S
C802 C803 1.388 1_554 S
C803 H790 0.930 . S
C803 C802 1.388 1_556 S
C803 C804 1.390 . S
C804 C803 1.390 . S
C804 C805 1.394 1_556 S
C804 C810 1.465 . S
C805 C800 1.399 . S
C805 C804 1.394 1_554 S
C805 C806 1.516 . S
C806 C805 1.516 . S
C806 C807 1.502 . S
C806 C808 1.561 . S
C806 C809 1.526 1_554 S
C807 H791 0.959 . S
C807 H792 0.959 . S
C807 H793 0.961 . S
C807 C806 1.502 . S
C808 H794 0.960 . S
C808 H795 0.961 . S
C808 H796 0.959 . S
C808 C806 1.561 . S
C809 C806 1.526 1_556 S
C809 C810 1.396 . S
C809 C814 1.390 . S
C810 C804 1.465 . S
C810 C809 1.396 . S
C810 C811 1.399 . S
C811 H797 0.929 . S
C811 C810 1.399 . S
C811 C812 1.385 . S
C812 H798 0.931 . S
C812 C811 1.385 . S
C812 C813 1.389 . S
C813 C812 1.389 . S
C813 C814 1.387 . S
C814 H799 0.930 . S
C814 C809 1.390 . S
C814 C813 1.387 . S
H815 C827 0.930 . S
H816 C829 0.930 . S
H817 C830 0.930 . S
H818 C834 0.959 . S
H819 C834 0.959 . S
H820 C834 0.961 . S
H821 C835 0.960 . S
H822 C835 0.961 . S
H823 C835 0.959 . S
H824 C838 0.929 . S
H825 C839 0.931 . S
H826 C841 0.930 . S
C827 H815 0.930 . S
C827 C828 1.399 . S
C827 C832 1.399 . S
C828 C827 1.399 . S
C828 C829 1.376 . S
C829 H816 0.930 . S
C829 C828 1.376 . S
C829 C830 1.388 . S
C830 H817 0.930 . S
C830 C829 1.388 . S
C830 C831 1.390 . S
C831 C830 1.390 . S
C831 C832 1.394 . S
C831 C837 1.465 . S
C832 C827 1.399 . S
C832 C831 1.394 . S
C832 C833 1.516 . S
C833 C832 1.516 . S
C833 C834 1.502 . S
C833 C835 1.561 . S
C833 C836 1.526 . S
C834 H818 0.959 . S
C834 H819 0.959 . S
C834 H820 0.961 . S
C834 C833 1.502 . S
C835 H821 0.960 . S
C835 H822 0.961 . S
C835 H823 0.959 . S
C835 C833 1.561 . S
C836 C833 1.526 . S
C836 C837 1.396 . S
C836 C841 1.390 . S
C837 C831 1.465 . S
C837 C836 1.396 . S
C837 C838 1.399 . S
C838 H824 0.929 . S
C838 C837 1.399 . S
C838 C839 1.385 . S
C839 H825 0.931 . S
C839 C838 1.385 . S
C839 C840 1.389 . S
C840 C839 1.389 . S
C840 C841 1.387 . S
C841 H826 0.930 . S
C841 C836 1.390 . S
C841 C840 1.387 . S
H842 C854 0.930 . S
H843 C856 0.930 . S
H844 C857 0.930 . S
H845 C861 0.959 . S
H846 C861 0.959 . S
H847 C861 0.961 . S
H848 C862 0.960 . S
H849 C862 0.961 . S
H850 C862 0.959 . S
H851 C865 0.929 . S
H852 C866 0.931 . S
H853 C868 0.930 . S
C854 H842 0.930 . S
C854 C855 1.399 . S
C854 C859 1.399 . S
C855 C854 1.399 . S
C855 C856 1.376 . S
C856 H843 0.930 . S
C856 C855 1.376 . S
C856 C857 1.388 . S
C857 H844 0.930 . S
C857 C856 1.388 . S
C857 C858 1.390 . S
C858 C857 1.390 . S
C858 C859 1.394 . S
C858 C864 1.465 . S
C859 C854 1.399 . S
C859 C858 1.394 . S
C859 C860 1.516 . S
C860 C859 1.516 . S
C860 C861 1.502 . S
C860 C862 1.561 . S
C860 C863 1.526 . S
C861 H845 0.959 . S
C861 H846 0.959 . S
C861 H847 0.961 . S
C861 C860 1.502 . S
C862 H848 0.960 . S
C862 H849 0.961 . S
C862 H850 0.959 . S
C862 C860 1.561 . S
C863 C860 1.526 . S
C863 C864 1.396 . S
C863 C868 1.390 . S
C864 C858 1.465 . S
C864 C863 1.396 . S
C864 C865 1.399 . S
C865 H851 0.929 . S
C865 C864 1.399 . S
C865 C866 1.385 . S
C866 H852 0.931 . S
C866 C865 1.385 . S
C866 C867 1.389 . S
C867 C866 1.389 . S
C867 C868 1.387 . S
C868 H853 0.930 . S
C868 C863 1.390 . S
C868 C867 1.387 . S
H869 C881 0.930 . S
H870 C883 0.930 . S
H871 C884 0.930 . S
H872 C888 0.959 . S
H873 C888 0.959 . S
H874 C888 0.961 . S
H875 C889 0.960 . S
H876 C889 0.961 . S
H877 C889 0.959 . S
H878 C892 0.929 . S
H879 C893 0.931 . S
H880 C895 0.930 . S
C881 H869 0.930 . S
C881 C882 1.399 . S
C881 C886 1.399 . S
C882 C881 1.399 . S
C882 C883 1.376 . S
C883 H870 0.930 . S
C883 C882 1.376 . S
C883 C884 1.388 . S
C884 H871 0.930 . S
C884 C883 1.388 . S
C884 C885 1.390 . S
C885 C884 1.390 . S
C885 C886 1.394 . S
C885 C891 1.465 . S
C886 C881 1.399 . S
C886 C885 1.394 . S
C886 C887 1.516 . S
C887 C886 1.516 . S
C887 C888 1.502 . S
C887 C889 1.561 . S
C887 C890 1.526 . S
C888 H872 0.959 . S
C888 H873 0.959 . S
C888 H874 0.961 . S
C888 C887 1.502 . S
C889 H875 0.960 . S
C889 H876 0.961 . S
C889 H877 0.959 . S
C889 C887 1.561 . S
C890 C887 1.526 . S
C890 C891 1.396 . S
C890 C895 1.390 . S
C891 C885 1.465 . S
C891 C890 1.396 . S
C891 C892 1.399 . S
C892 H878 0.929 . S
C892 C891 1.399 . S
C892 C893 1.385 . S
C893 H879 0.931 . S
C893 C892 1.385 . S
C893 C894 1.389 . S
C894 C893 1.389 . S
C894 C895 1.387 . S
C895 H880 0.930 . S
C895 C890 1.390 . S
C895 C894 1.387 . S
H896 C908 0.930 . S
H897 C910 0.930 . S
H898 C911 0.930 . S
H899 C915 0.959 . S
H900 C915 0.959 . S
H901 C915 0.961 . S
H902 C916 0.960 . S
H903 C916 0.961 1_554 S
H904 C916 0.959 1_554 S
H905 C919 0.929 . S
H906 C920 0.931 . S
H907 C922 0.930 . S
C908 H896 0.930 . S
C908 C909 1.399 . S
C908 C913 1.399 . S
C909 C908 1.399 . S
C909 C910 1.376 . S
C910 H897 0.930 . S
C910 C909 1.376 . S
C910 C911 1.388 . S
C911 H898 0.930 . S
C911 C910 1.388 . S
C911 C912 1.390 . S
C912 C911 1.390 . S
C912 C913 1.394 . S
C912 C918 1.465 . S
C913 C908 1.399 . S
C913 C912 1.394 . S
C913 C914 1.516 . S
C914 C913 1.516 . S
C914 C915 1.502 . S
C914 C916 1.561 . S
C914 C917 1.526 . S
C915 H899 0.959 . S
C915 H900 0.959 . S
C915 H901 0.961 . S
C915 C914 1.502 . S
C916 H902 0.960 . S
C916 H903 0.961 1_556 S
C916 H904 0.959 1_556 S
C916 C914 1.561 . S
C917 C914 1.526 . S
C917 C918 1.396 . S
C917 C922 1.390 1_556 S
C918 C912 1.465 . S
C918 C917 1.396 . S
C918 C919 1.399 1_556 S
C919 H905 0.929 . S
C919 C918 1.399 1_554 S
C919 C920 1.385 . S
C920 H906 0.931 . S
C920 C919 1.385 . S
C920 C921 1.389 . S
C921 C920 1.389 . S
C921 C922 1.387 . S
C922 H907 0.930 . S
C922 C917 1.390 1_554 S
C922 C921 1.387 . S
H923 C935 0.930 . S
H924 C937 0.930 . S
H925 C938 0.930 . S
H926 C942 0.959 . S
H927 C942 0.959 . S
H928 C942 0.961 . S
H929 C943 0.960 . S
H930 C943 0.961 . S
H931 C943 0.959 . S
H932 C946 0.929 . S
H933 C947 0.931 . S
H934 C949 0.930 1_565 S
C935 H923 0.930 . S
C935 C936 1.399 . S
C935 C940 1.399 . S
C936 C935 1.399 . S
C936 C937 1.376 . S
C937 H924 0.930 . S
C937 C936 1.376 . S
C937 C938 1.388 . S
C938 H925 0.930 . S
C938 C937 1.388 . S
C938 C939 1.390 . S
C939 C938 1.390 . S
C939 C940 1.394 . S
C939 C945 1.465 . S
C940 C935 1.399 . S
C940 C939 1.394 . S
C940 C941 1.516 . S
C941 C940 1.516 . S
C941 C942 1.502 . S
C941 C943 1.561 . S
C941 C944 1.526 . S
C942 H926 0.959 . S
C942 H927 0.959 . S
C942 H928 0.961 . S
C942 C941 1.502 . S
C943 H929 0.960 . S
C943 H930 0.961 . S
C943 H931 0.959 . S
C943 C941 1.561 . S
C944 C941 1.526 . S
C944 C945 1.396 . S
C944 C949 1.390 . S
C945 C939 1.465 . S
C945 C944 1.396 . S
C945 C946 1.399 . S
C946 H932 0.929 . S
C946 C945 1.399 . S
C946 C947 1.385 . S
C947 H933 0.931 . S
C947 C946 1.385 . S
C947 C948 1.389 . S
C948 C947 1.389 . S
C948 C949 1.387 . S
C949 H934 0.930 1_545 S
C949 C944 1.390 . S
C949 C948 1.387 . S
H950 C962 0.930 . S
H951 C964 0.930 . S
H952 C965 0.930 . S
H953 C969 0.959 . S
H954 C969 0.959 . S
H955 C969 0.961 . S
H956 C970 0.960 . S
H957 C970 0.961 . S
H958 C970 0.959 . S
H959 C973 0.929 . S
H960 C974 0.931 . S
H961 C976 0.930 . S
C962 H950 0.930 . S
C962 C963 1.399 . S
C962 C967 1.399 . S
C963 C962 1.399 . S
C963 C964 1.376 . S
C964 H951 0.930 . S
C964 C963 1.376 . S
C964 C965 1.388 . S
C965 H952 0.930 . S
C965 C964 1.388 . S
C965 C966 1.390 . S
C966 C965 1.390 . S
C966 C967 1.394 . S
C966 C972 1.465 . S
C967 C962 1.399 . S
C967 C966 1.394 . S
C967 C968 1.516 . S
C968 C967 1.516 . S
C968 C969 1.502 . S
C968 C970 1.561 . S
C968 C971 1.526 . S
C969 H953 0.959 . S
C969 H954 0.959 . S
C969 H955 0.961 . S
C969 C968 1.502 . S
C970 H956 0.960 . S
C970 H957 0.961 . S
C970 H958 0.959 . S
C970 C968 1.561 . S
C971 C968 1.526 . S
C971 C972 1.396 . S
C971 C976 1.390 . S
C972 C966 1.465 . S
C972 C971 1.396 . S
C972 C973 1.399 . S
C973 H959 0.929 . S
C973 C972 1.399 . S
C973 C974 1.385 . S
C974 H960 0.931 . S
C974 C973 1.385 . S
C974 C975 1.389 . S
C975 C974 1.389 . S
C975 C976 1.387 . S
C976 H961 0.930 . S
C976 C971 1.390 . S
C976 C975 1.387 . S
H977 C989 0.930 . S
H978 C991 0.930 . S
H979 C992 0.930 . S
H980 C996 0.959 . S
H981 C996 0.959 . S
H982 C996 0.961 . S
H983 C997 0.960 . S
H984 C997 0.942 1_545 S
H985 C997 0.959 . S
H986 C1000 0.929 . S
H987 C1001 0.931 . S
H988 C1003 0.930 1_545 S
C989 H977 0.930 . S
C989 C990 1.399 . S
C989 C994 1.399 . S
C990 C989 1.399 . S
C990 C991 1.376 . S
C991 H978 0.930 . S
C991 C990 1.376 . S
C991 C992 1.388 . S
C992 H979 0.930 . S
C992 C991 1.388 . S
C992 C993 1.390 . S
C993 C992 1.390 . S
C993 C994 1.394 . S
C993 C999 1.465 . S
C994 C989 1.399 . S
C994 C993 1.394 . S
C994 C995 1.516 . S
C995 C994 1.516 . S
C995 C996 1.502 . S
C995 C997 1.561 . S
C995 C998 1.526 . S
C996 H980 0.959 . S
C996 H981 0.959 . S
C996 H982 0.961 . S
C996 C995 1.502 . S
C997 H983 0.960 . S
C997 H984 0.942 1_565 S
C997 H985 0.959 . S
C997 C995 1.561 . S
C998 C995 1.526 . S
C998 C999 1.396 . S
C998 C1003 1.390 . S
C999 C993 1.465 . S
C999 C998 1.396 . S
C999 C1000 1.399 . S
C1000 H986 0.929 . S
C1000 C999 1.399 . S
C1000 C1001 1.385 . S
C1001 H987 0.931 . S
C1001 C1000 1.385 . S
C1001 C1002 1.389 . S
C1002 C1001 1.389 . S
C1002 C1003 1.387 . S
C1003 H988 0.930 1_565 S
C1003 C998 1.390 . S
C1003 C1002 1.387 . S
H1004 C1016 0.930 . S
H1005 C1018 0.930 . S
H1006 C1019 0.930 . S
H1007 C1023 0.959 1_554 S
H1008 C1023 0.959 . S
H1009 C1023 0.961 . S
H1010 C1024 0.960 . S
H1011 C1024 0.961 . S
H1012 C1024 0.959 . S
H1013 C1027 0.929 . S
H1014 C1028 0.931 . S
H1015 C1030 0.930 . S
C1016 H1004 0.930 . S
C1016 C1017 1.399 . S
C1016 C1021 1.420 . S
C1017 C1016 1.399 . S
C1017 C1018 1.376 . S
C1018 H1005 0.930 . S
C1018 C1017 1.376 . S
C1018 C1019 1.388 1_556 S
C1019 H1006 0.930 . S
C1019 C1018 1.388 1_554 S
C1019 C1020 1.390 . S
C1020 C1019 1.390 . S
C1020 C1021 1.373 1_554 S
C1020 C1026 1.465 . S
C1021 C1016 1.420 . S
C1021 C1020 1.373 1_556 S
C1021 C1022 1.512 1_556 S
C1022 C1021 1.512 1_554 S
C1022 C1023 1.502 1_554 S
C1022 C1024 1.561 1_554 S
C1022 C1025 1.526 . S
C1023 H1007 0.959 1_556 S
C1023 H1008 0.959 . S
C1023 H1009 0.961 . S
C1023 C1022 1.502 1_556 S
C1024 H1010 0.960 . S
C1024 H1011 0.961 . S
C1024 H1012 0.959 . S
C1024 C1022 1.561 1_556 S
C1025 C1022 1.526 . S
C1025 C1026 1.396 . S
C1025 C1030 1.390 . S
C1026 C1020 1.465 . S
C1026 C1025 1.396 . S
C1026 C1027 1.399 . S
C1027 H1013 0.929 . S
C1027 C1026 1.399 . S
C1027 C1028 1.385 . S
C1028 H1014 0.931 . S
C1028 C1027 1.385 . S
C1028 C1029 1.389 . S
C1029 C1028 1.389 . S
C1029 C1030 1.387 . S
C1030 H1015 0.930 . S
C1030 C1025 1.390 . S
C1030 C1029 1.387 . S
H1031 C1043 0.930 . S
H1032 C1045 0.930 . S
H1033 C1046 0.930 . S
H1034 C1050 0.959 . S
H1035 C1050 0.959 . S
H1036 C1050 0.961 . S
H1037 C1051 0.960 . S
H1038 C1051 0.961 . S
H1039 C1051 0.959 . S
H1040 C1054 0.929 . S
H1041 C1055 0.931 . S
H1042 C1057 0.930 . S
C1043 H1031 0.930 . S
C1043 C1044 1.399 . S
C1043 C1048 1.399 . S
C1044 C1043 1.399 . S
C1044 C1045 1.376 . S
C1045 H1032 0.930 . S
C1045 C1044 1.376 . S
C1045 C1046 1.388 . S
C1046 H1033 0.930 . S
C1046 C1045 1.388 . S
C1046 C1047 1.390 . S
C1047 C1046 1.390 . S
C1047 C1048 1.394 . S
C1047 C1053 1.465 . S
C1048 C1043 1.399 . S
C1048 C1047 1.394 . S
C1048 C1049 1.516 . S
C1049 C1048 1.516 . S
C1049 C1050 1.502 . S
C1049 C1051 1.561 . S
C1049 C1052 1.526 . S
C1050 H1034 0.959 . S
C1050 H1035 0.959 . S
C1050 H1036 0.961 . S
C1050 C1049 1.502 . S
C1051 H1037 0.960 . S
C1051 H1038 0.961 . S
C1051 H1039 0.959 . S
C1051 C1049 1.561 . S
C1052 C1049 1.526 . S
C1052 C1053 1.396 . S
C1052 C1057 1.390 . S
C1053 C1047 1.465 . S
C1053 C1052 1.396 . S
C1053 C1054 1.399 . S
C1054 H1040 0.929 . S
C1054 C1053 1.399 . S
C1054 C1055 1.385 . S
C1055 H1041 0.931 . S
C1055 C1054 1.385 . S
C1055 C1056 1.389 . S
C1056 C1055 1.389 . S
C1056 C1057 1.387 . S
C1057 H1042 0.930 . S
C1057 C1052 1.390 . S
C1057 C1056 1.387 . S
H1058 C1070 0.930 . S
H1059 C1072 0.930 . S
H1060 C1073 0.930 . S
H1061 C1077 0.959 . S
H1062 C1077 0.959 . S
H1063 C1077 0.961 . S
H1064 C1078 0.960 . S
H1065 C1078 0.961 . S
H1066 C1078 0.959 . S
H1067 C1081 0.929 . S
H1068 C1082 0.931 . S
H1069 C1084 0.930 . S
C1070 H1058 0.930 . S
C1070 C1071 1.399 . S
C1070 C1075 1.399 . S
C1071 C1070 1.399 . S
C1071 C1072 1.376 . S
C1072 H1059 0.930 . S
C1072 C1071 1.376 . S
C1072 C1073 1.388 . S
C1073 H1060 0.930 . S
C1073 C1072 1.388 . S
C1073 C1074 1.390 . S
C1074 C1073 1.390 . S
C1074 C1075 1.394 . S
C1074 C1080 1.465 . S
C1075 C1070 1.399 . S
C1075 C1074 1.394 . S
C1075 C1076 1.516 . S
C1076 C1075 1.516 . S
C1076 C1077 1.502 . S
C1076 C1078 1.561 . S
C1076 C1079 1.526 . S
C1077 H1061 0.959 . S
C1077 H1062 0.959 . S
C1077 H1063 0.961 . S
C1077 C1076 1.502 . S
C1078 H1064 0.960 . S
C1078 H1065 0.961 . S
C1078 H1066 0.959 . S
C1078 C1076 1.561 . S
C1079 C1076 1.526 . S
C1079 C1080 1.396 . S
C1079 C1084 1.390 . S
C1080 C1074 1.465 . S
C1080 C1079 1.396 . S
C1080 C1081 1.399 . S
C1081 H1067 0.929 . S
C1081 C1080 1.399 . S
C1081 C1082 1.385 . S
C1082 H1068 0.931 . S
C1082 C1081 1.385 . S
C1082 C1083 1.389 . S
C1083 C1082 1.389 . S
C1083 C1084 1.387 . S
C1084 H1069 0.930 . S
C1084 C1079 1.390 . S
C1084 C1083 1.387 . S
H1085 C1097 0.930 . S
H1086 C1099 0.930 1_545 S
H1087 C1100 0.930 . S
H1088 C1104 0.959 . S
H1089 C1104 0.959 . S
H1090 C1104 0.961 . S
H1091 C1105 0.960 . S
H1092 C1105 0.961 . S
H1093 C1105 0.959 . S
H1094 C1108 0.929 . S
H1095 C1109 0.931 . S
H1096 C1111 0.930 . S
C1097 H1085 0.930 . S
C1097 C1098 1.399 . S
C1097 C1102 1.399 . S
C1098 C1097 1.399 . S
C1098 C1099 1.376 . S
C1099 H1086 0.930 1_565 S
C1099 C1098 1.376 . S
C1099 C1100 1.388 . S
C1100 H1087 0.930 . S
C1100 C1099 1.388 . S
C1100 C1101 1.390 . S
C1101 C1100 1.390 . S
C1101 C1102 1.394 . S
C1101 C1107 1.465 . S
C1102 C1097 1.399 . S
C1102 C1101 1.394 . S
C1102 C1103 1.516 . S
C1103 C1102 1.516 . S
C1103 C1104 1.502 . S
C1103 C1105 1.561 . S
C1103 C1106 1.526 . S
C1104 H1088 0.959 . S
C1104 H1089 0.959 . S
C1104 H1090 0.961 . S
C1104 C1103 1.502 . S
C1105 H1091 0.960 . S
C1105 H1092 0.961 . S
C1105 H1093 0.959 . S
C1105 C1103 1.561 . S
C1106 C1103 1.526 . S
C1106 C1107 1.396 . S
C1106 C1111 1.390 . S
C1107 C1101 1.465 . S
C1107 C1106 1.396 . S
C1107 C1108 1.399 . S
C1108 H1094 0.929 . S
C1108 C1107 1.399 . S
C1108 C1109 1.385 . S
C1109 H1095 0.931 . S
C1109 C1108 1.385 . S
C1109 C1110 1.389 . S
C1110 C1109 1.389 . S
C1110 C1111 1.387 . S
C1111 H1096 0.930 . S
C1111 C1106 1.390 . S
C1111 C1110 1.387 . S
H1112 C1124 0.930 . S
H1113 C1126 0.930 . S
H1114 C1127 0.930 . S
H1115 C1131 0.959 . S
H1116 C1131 0.959 . S
H1117 C1131 0.961 . S
H1118 C1132 0.960 . S
H1119 C1132 0.961 . S
H1120 C1132 0.959 . S
H1121 C1135 0.929 . S
H1122 C1136 0.931 . S
H1123 C1138 0.930 . S
C1124 H1112 0.930 . S
C1124 C1125 1.399 . S
C1124 C1129 1.399 . S
C1125 C1124 1.399 . S
C1125 C1126 1.376 . S
C1126 H1113 0.930 . S
C1126 C1125 1.376 . S
C1126 C1127 1.388 . S
C1127 H1114 0.930 . S
C1127 C1126 1.388 . S
C1127 C1128 1.390 . S
C1128 C1127 1.390 . S
C1128 C1129 1.394 . S
C1128 C1134 1.465 . S
C1129 C1124 1.399 . S
C1129 C1128 1.394 . S
C1129 C1130 1.516 . S
C1130 C1129 1.516 . S
C1130 C1131 1.502 . S
C1130 C1132 1.561 . S
C1130 C1133 1.526 . S
C1131 H1115 0.959 . S
C1131 H1116 0.959 . S
C1131 H1117 0.961 . S
C1131 C1130 1.502 . S
C1132 H1118 0.960 . S
C1132 H1119 0.961 . S
C1132 H1120 0.959 . S
C1132 C1130 1.561 . S
C1133 C1130 1.526 . S
C1133 C1134 1.396 . S
C1133 C1138 1.390 . S
C1134 C1128 1.465 . S
C1134 C1133 1.396 . S
C1134 C1135 1.399 . S
C1135 H1121 0.929 . S
C1135 C1134 1.399 . S
C1135 C1136 1.385 . S
C1136 H1122 0.931 . S
C1136 C1135 1.385 . S
C1136 C1137 1.389 . S
C1137 C1136 1.389 . S
C1137 C1138 1.387 . S
C1138 H1123 0.930 . S
C1138 C1133 1.390 . S
C1138 C1137 1.387 . S
H1139 C1151 0.930 . S
H1140 C1153 0.930 . S
H1141 C1154 0.930 . S
H1142 C1158 0.959 . S
H1143 C1158 0.959 . S
H1144 C1158 0.961 . S
H1145 C1159 0.960 . S
H1146 C1159 0.961 . S
H1147 C1159 0.959 . S
H1148 C1162 0.929 . S
H1149 C1163 0.931 . S
H1150 C1165 0.930 . S
C1151 H1139 0.930 . S
C1151 C1152 1.399 . S
C1151 C1156 1.399 . S
C1152 C1151 1.399 . S
C1152 C1153 1.376 . S
C1153 H1140 0.930 . S
C1153 C1152 1.376 . S
C1153 C1154 1.388 . S
C1154 H1141 0.930 . S
C1154 C1153 1.388 . S
C1154 C1155 1.390 . S
C1155 C1154 1.390 . S
C1155 C1156 1.394 . S
C1155 C1161 1.465 . S
C1156 C1151 1.399 . S
C1156 C1155 1.394 . S
C1156 C1157 1.516 . S
C1157 C1156 1.516 . S
C1157 C1158 1.502 . S
C1157 C1159 1.561 . S
C1157 C1160 1.526 . S
C1158 H1142 0.959 . S
C1158 H1143 0.959 . S
C1158 H1144 0.961 . S
C1158 C1157 1.502 . S
C1159 H1145 0.960 . S
C1159 H1146 0.961 . S
C1159 H1147 0.959 . S
C1159 C1157 1.561 . S
C1160 C1157 1.526 . S
C1160 C1161 1.396 . S
C1160 C1165 1.390 . S
C1161 C1155 1.465 . S
C1161 C1160 1.396 . S
C1161 C1162 1.399 . S
C1162 H1148 0.929 . S
C1162 C1161 1.399 . S
C1162 C1163 1.385 . S
C1163 H1149 0.931 . S
C1163 C1162 1.385 . S
C1163 C1164 1.389 . S
C1164 C1163 1.389 . S
C1164 C1165 1.387 . S
C1165 H1150 0.930 . S
C1165 C1160 1.390 . S
C1165 C1164 1.387 . S
H1166 C1178 0.930 . S
H1167 C1180 0.930 . S
H1168 C1181 0.930 1_556 S
H1169 C1185 0.959 . S
H1170 C1185 0.959 . S
H1171 C1185 0.961 . S
H1172 C1186 0.960 . S
H1173 C1186 0.961 . S
H1174 C1186 0.959 . S
H1175 C1189 0.929 . S
H1176 C1190 0.931 . S
H1177 C1192 0.930 . S
C1178 H1166 0.930 . S
C1178 C1179 1.399 . S
C1178 C1183 1.399 . S
C1179 C1178 1.399 . S
C1179 C1180 1.376 . S
C1180 H1167 0.930 . S
C1180 C1179 1.376 . S
C1180 C1181 1.388 . S
C1181 H1168 0.930 1_554 S
C1181 C1180 1.388 . S
C1181 C1182 1.390 . S
C1182 C1181 1.390 . S
C1182 C1183 1.394 . S
C1182 C1188 1.465 1_554 S
C1183 C1178 1.399 . S
C1183 C1182 1.394 . S
C1183 C1184 1.516 . S
C1184 C1183 1.516 . S
C1184 C1185 1.502 . S
C1184 C1186 1.561 . S
C1184 C1187 1.526 . S
C1185 H1169 0.959 . S
C1185 H1170 0.959 . S
C1185 H1171 0.961 . S
C1185 C1184 1.502 . S
C1186 H1172 0.960 . S
C1186 H1173 0.961 . S
C1186 H1174 0.959 . S
C1186 C1184 1.561 . S
C1187 C1184 1.526 . S
C1187 C1188 1.396 1_554 S
C1187 C1192 1.390 1_554 S
C1188 C1182 1.465 1_556 S
C1188 C1187 1.396 1_556 S
C1188 C1189 1.399 . S
C1189 H1175 0.929 . S
C1189 C1188 1.399 . S
C1189 C1190 1.385 . S
C1190 H1176 0.931 . S
C1190 C1189 1.385 . S
C1190 C1191 1.389 . S
C1191 C1190 1.389 . S
C1191 C1192 1.387 . S
C1192 H1177 0.930 . S
C1192 C1187 1.390 1_556 S
C1192 C1191 1.387 . S
H1193 C1205 0.930 . S
H1194 C1207 0.930 . S
H1195 C1208 0.930 . S
H1196 C1212 0.959 . S
H1197 C1212 0.959 . S
H1198 C1212 0.961 . S
H1199 C1213 0.960 . S
H1200 C1213 0.961 . S
H1201 C1213 0.959 . S
H1202 C1216 0.929 . S
H1203 C1217 0.931 . S
H1204 C1219 0.930 . S
C1205 H1193 0.930 . S
C1205 C1206 1.399 . S
C1205 C1210 1.399 . S
C1206 C1205 1.399 . S
C1206 C1207 1.376 . S
C1207 H1194 0.930 . S
C1207 C1206 1.376 . S
C1207 C1208 1.388 . S
C1208 H1195 0.930 . S
C1208 C1207 1.388 . S
C1208 C1209 1.390 . S
C1209 C1208 1.390 . S
C1209 C1210 1.394 . S
C1209 C1215 1.465 . S
C1210 C1205 1.399 . S
C1210 C1209 1.394 . S
C1210 C1211 1.516 . S
C1211 C1210 1.516 . S
C1211 C1212 1.502 . S
C1211 C1213 1.561 . S
C1211 C1214 1.526 . S
C1212 H1196 0.959 . S
C1212 H1197 0.959 . S
C1212 H1198 0.961 . S
C1212 C1211 1.502 . S
C1213 H1199 0.960 . S
C1213 H1200 0.961 . S
C1213 H1201 0.959 . S
C1213 C1211 1.561 . S
C1214 C1211 1.526 . S
C1214 C1215 1.396 . S
C1214 C1219 1.390 . S
C1215 C1209 1.465 . S
C1215 C1214 1.396 . S
C1215 C1216 1.399 . S
C1216 H1202 0.929 . S
C1216 C1215 1.399 . S
C1216 C1217 1.385 . S
C1217 H1203 0.931 . S
C1217 C1216 1.385 . S
C1217 C1218 1.389 . S
C1218 C1217 1.389 . S
C1218 C1219 1.387 . S
C1219 H1204 0.930 . S
C1219 C1214 1.390 . S
C1219 C1218 1.387 . S
H1220 C1232 0.930 . S
H1221 C1234 0.930 . S
H1222 C1235 0.930 . S
H1223 C1239 0.959 . S
H1224 C1239 0.959 . S
H1225 C1239 0.961 . S
H1226 C1240 0.960 . S
H1227 C1240 0.961 . S
H1228 C1240 0.959 . S
H1229 C1243 0.929 . S
H1230 C1244 0.931 . S
H1231 C1246 0.930 . S
C1232 H1220 0.930 . S
C1232 C1233 1.399 . S
C1232 C1237 1.399 . S
C1233 C1232 1.399 . S
C1233 C1234 1.376 . S
C1234 H1221 0.930 . S
C1234 C1233 1.376 . S
C1234 C1235 1.388 . S
C1235 H1222 0.930 . S
C1235 C1234 1.388 . S
C1235 C1236 1.390 . S
C1236 C1235 1.390 . S
C1236 C1237 1.394 . S
C1236 C1242 1.465 . S
C1237 C1232 1.399 . S
C1237 C1236 1.394 . S
C1237 C1238 1.516 . S
C1238 C1237 1.516 . S
C1238 C1239 1.502 . S
C1238 C1240 1.561 . S
C1238 C1241 1.526 . S
C1239 H1223 0.959 . S
C1239 H1224 0.959 . S
C1239 H1225 0.961 . S
C1239 C1238 1.502 . S
C1240 H1226 0.960 . S
C1240 H1227 0.961 . S
C1240 H1228 0.959 . S
C1240 C1238 1.561 . S
C1241 C1238 1.526 . S
C1241 C1242 1.396 . S
C1241 C1246 1.390 . S
C1242 C1236 1.465 . S
C1242 C1241 1.396 . S
C1242 C1243 1.399 . S
C1243 H1229 0.929 . S
C1243 C1242 1.399 . S
C1243 C1244 1.385 . S
C1244 H1230 0.931 . S
C1244 C1243 1.385 . S
C1244 C1245 1.389 . S
C1245 C1244 1.389 . S
C1245 C1246 1.387 . S
C1246 H1231 0.930 . S
C1246 C1241 1.390 . S
C1246 C1245 1.387 . S
H1247 C1259 0.930 . S
H1248 C1261 0.930 . S
H1249 C1262 0.930 . S
H1250 C1266 0.959 . S
H1251 C1266 0.959 . S
H1252 C1266 0.961 . S
H1253 C1267 0.960 . S
H1254 C1267 0.961 . S
H1255 C1267 0.959 . S
H1256 C1270 0.929 . S
H1257 C1271 0.931 . S
H1258 C1273 0.930 . S
C1259 H1247 0.930 . S
C1259 C1260 1.399 . S
C1259 C1264 1.399 . S
C1260 C1259 1.399 . S
C1260 C1261 1.376 . S
C1261 H1248 0.930 . S
C1261 C1260 1.376 . S
C1261 C1262 1.388 . S
C1262 H1249 0.930 . S
C1262 C1261 1.388 . S
C1262 C1263 1.390 . S
C1263 C1262 1.390 . S
C1263 C1264 1.394 . S
C1263 C1269 1.465 . S
C1264 C1259 1.399 . S
C1264 C1263 1.394 . S
C1264 C1265 1.516 . S
C1265 C1264 1.516 . S
C1265 C1266 1.502 . S
C1265 C1267 1.561 . S
C1265 C1268 1.526 . S
C1266 H1250 0.959 . S
C1266 H1251 0.959 . S
C1266 H1252 0.961 . S
C1266 C1265 1.502 . S
C1267 H1253 0.960 . S
C1267 H1254 0.961 . S
C1267 H1255 0.959 . S
C1267 C1265 1.561 . S
C1268 C1265 1.526 . S
C1268 C1269 1.396 . S
C1268 C1273 1.390 . S
C1269 C1263 1.465 . S
C1269 C1268 1.396 . S
C1269 C1270 1.399 . S
C1270 H1256 0.929 . S
C1270 C1269 1.399 . S
C1270 C1271 1.385 . S
C1271 H1257 0.931 . S
C1271 C1270 1.385 . S
C1271 C1272 1.389 . S
C1272 C1271 1.389 . S
C1272 C1273 1.387 . S
C1273 H1258 0.930 . S
C1273 C1268 1.390 . S
C1273 C1272 1.387 . S
H1274 C1286 0.930 . S
H1275 C1288 0.930 . S
H1276 C1289 0.930 . S
H1277 C1293 0.959 . S
H1278 C1293 0.959 . S
H1279 C1293 0.961 . S
H1280 C1294 0.960 . S
H1281 C1294 0.961 . S
H1282 C1294 0.959 1_556 S
H1283 C1297 0.929 . S
H1284 C1298 0.931 . S
H1285 C1300 0.930 . S
C1286 H1274 0.930 . S
C1286 C1287 1.399 . S
C1286 C1291 1.399 . S
C1287 C1286 1.399 . S
C1287 C1288 1.376 . S
C1288 H1275 0.930 . S
C1288 C1287 1.376 . S
C1288 C1289 1.388 1_554 S
C1289 H1276 0.930 . S
C1289 C1288 1.388 1_556 S
C1289 C1290 1.390 . S
C1290 C1289 1.390 . S
C1290 C1291 1.394 1_556 S
C1290 C1296 1.465 . S
C1291 C1286 1.399 . S
C1291 C1290 1.394 1_554 S
C1291 C1292 1.516 . S
C1292 C1291 1.516 . S
C1292 C1293 1.502 . S
C1292 C1294 1.561 . S
C1292 C1295 1.526 1_554 S
C1293 H1277 0.959 . S
C1293 H1278 0.959 . S
C1293 H1279 0.961 . S
C1293 C1292 1.502 . S
C1294 H1280 0.960 . S
C1294 H1281 0.961 . S
C1294 H1282 0.959 1_554 S
C1294 C1292 1.561 . S
C1295 C1292 1.526 1_556 S
C1295 C1296 1.396 . S
C1295 C1300 1.390 . S
C1296 C1290 1.465 . S
C1296 C1295 1.396 . S
C1296 C1297 1.399 . S
C1297 H1283 0.929 . S
C1297 C1296 1.399 . S
C1297 C1298 1.385 . S
C1298 H1284 0.931 . S
C1298 C1297 1.385 . S
C1298 C1299 1.389 . S
C1299 C1298 1.389 . S
C1299 C1300 1.387 . S
C1300 H1285 0.930 . S
C1300 C1295 1.390 . S
C1300 C1299 1.387 . S
H1301 C1313 0.930 . S
H1302 C1315 0.930 . S
H1303 C1316 0.930 . S
H1304 C1320 0.959 . S
H1305 C1320 0.959 . S
H1306 C1320 0.961 . S
H1307 C1321 0.960 . S
H1308 C1321 0.961 . S
H1309 C1321 0.959 . S
H1310 C1324 0.929 . S
H1311 C1325 0.931 . S
H1312 C1327 0.930 . S
C1313 H1301 0.930 . S
C1313 C1314 1.399 . S
C1313 C1318 1.399 . S
C1314 C1313 1.399 . S
C1314 C1315 1.376 . S
C1315 H1302 0.930 . S
C1315 C1314 1.376 . S
C1315 C1316 1.388 . S
C1316 H1303 0.930 . S
C1316 C1315 1.388 . S
C1316 C1317 1.390 . S
C1317 C1316 1.390 . S
C1317 C1318 1.394 . S
C1317 C1323 1.465 . S
C1318 C1313 1.399 . S
C1318 C1317 1.394 . S
C1318 C1319 1.516 . S
C1319 C1318 1.516 . S
C1319 C1320 1.502 . S
C1319 C1321 1.561 . S
C1319 C1322 1.526 . S
C1320 H1304 0.959 . S
C1320 H1305 0.959 . S
C1320 H1306 0.961 . S
C1320 C1319 1.502 . S
C1321 H1307 0.960 . S
C1321 H1308 0.961 . S
C1321 H1309 0.959 . S
C1321 C1319 1.561 . S
C1322 C1319 1.526 . S
C1322 C1323 1.396 . S
C1322 C1327 1.390 . S
C1323 C1317 1.465 . S
C1323 C1322 1.396 . S
C1323 C1324 1.399 . S
C1324 H1310 0.929 . S
C1324 C1323 1.399 . S
C1324 C1325 1.385 . S
C1325 H1311 0.931 . S
C1325 C1324 1.385 . S
C1325 C1326 1.389 . S
C1326 C1325 1.389 . S
C1326 C1327 1.387 . S
C1327 H1312 0.930 . S
C1327 C1322 1.390 . S
C1327 C1326 1.387 . S
H1328 C1340 0.930 . S
H1329 C1342 0.930 . S
H1330 C1343 0.930 . S
H1331 C1347 0.959 . S
H1332 C1347 0.959 . S
H1333 C1347 0.961 . S
H1334 C1348 0.960 . S
H1335 C1348 0.961 . S
H1336 C1348 0.959 . S
H1337 C1351 0.929 . S
H1338 C1352 0.931 . S
H1339 C1354 0.930 . S
C1340 H1328 0.930 . S
C1340 C1341 1.399 . S
C1340 C1345 1.399 . S
C1341 C1340 1.399 . S
C1341 C1342 1.376 . S
C1342 H1329 0.930 . S
C1342 C1341 1.376 . S
C1342 C1343 1.388 . S
C1343 H1330 0.930 . S
C1343 C1342 1.388 . S
C1343 C1344 1.390 . S
C1344 C1343 1.390 . S
C1344 C1345 1.394 . S
C1344 C1350 1.465 . S
C1345 C1340 1.399 . S
C1345 C1344 1.394 . S
C1345 C1346 1.516 . S
C1346 C1345 1.516 . S
C1346 C1347 1.502 . S
C1346 C1348 1.561 . S
C1346 C1349 1.526 . S
C1347 H1331 0.959 . S
C1347 H1332 0.959 . S
C1347 H1333 0.961 . S
C1347 C1346 1.502 . S
C1348 H1334 0.960 . S
C1348 H1335 0.961 . S
C1348 H1336 0.959 . S
C1348 C1346 1.561 . S
C1349 C1346 1.526 . S
C1349 C1350 1.396 . S
C1349 C1354 1.390 . S
C1350 C1344 1.465 . S
C1350 C1349 1.396 . S
C1350 C1351 1.399 . S
C1351 H1337 0.929 . S
C1351 C1350 1.399 . S
C1351 C1352 1.385 . S
C1352 H1338 0.931 . S
C1352 C1351 1.385 . S
C1352 C1353 1.389 . S
C1353 C1352 1.389 . S
C1353 C1354 1.387 . S
C1354 H1339 0.930 . S
C1354 C1349 1.390 . S
C1354 C1353 1.387 . S
H1355 C1367 0.930 . S
H1356 C1369 0.930 . S
H1357 C1370 0.930 . S
H1358 C1374 0.959 . S
H1359 C1374 0.959 . S
H1360 C1374 0.961 . S
H1361 C1375 0.960 . S
H1362 C1375 0.961 . S
H1363 C1375 0.959 . S
H1364 C1378 0.929 . S
H1365 C1379 0.931 . S
H1366 C1381 0.930 . S
C1367 H1355 0.930 . S
C1367 C1368 1.399 . S
C1367 C1372 1.399 . S
C1368 C1367 1.399 . S
C1368 C1369 1.376 . S
C1369 H1356 0.930 . S
C1369 C1368 1.376 . S
C1369 C1370 1.388 . S
C1370 H1357 0.930 . S
C1370 C1369 1.388 . S
C1370 C1371 1.390 . S
C1371 C1370 1.390 . S
C1371 C1372 1.394 . S
C1371 C1377 1.465 . S
C1372 C1367 1.399 . S
C1372 C1371 1.394 . S
C1372 C1373 1.516 . S
C1373 C1372 1.516 . S
C1373 C1374 1.502 . S
C1373 C1375 1.561 . S
C1373 C1376 1.526 . S
C1374 H1358 0.959 . S
C1374 H1359 0.959 . S
C1374 H1360 0.961 . S
C1374 C1373 1.502 . S
C1375 H1361 0.960 . S
C1375 H1362 0.961 . S
C1375 H1363 0.959 . S
C1375 C1373 1.561 . S
C1376 C1373 1.526 . S
C1376 C1377 1.396 . S
C1376 C1381 1.390 . S
C1377 C1371 1.465 . S
C1377 C1376 1.396 . S
C1377 C1378 1.399 . S
C1378 H1364 0.929 . S
C1378 C1377 1.399 . S
C1378 C1379 1.385 . S
C1379 H1365 0.931 . S
C1379 C1378 1.385 . S
C1379 C1380 1.389 . S
C1380 C1379 1.389 . S
C1380 C1381 1.387 . S
C1381 H1366 0.930 . S
C1381 C1376 1.390 . S
C1381 C1380 1.387 . S
H1382 C1394 0.930 . S
H1383 C1396 0.930 . S
H1384 C1397 0.930 . S
H1385 C1401 0.959 . S
H1386 C1401 0.959 . S
H1387 C1401 0.961 1_556 S
H1388 C1402 0.960 . S
H1389 C1402 0.961 . S
H1390 C1402 0.959 . S
H1391 C1405 0.929 . S
H1392 C1406 0.931 . S
H1393 C1408 0.930 . S
C1394 H1382 0.930 . S
C1394 C1395 1.399 . S
C1394 C1399 1.399 . S
C1395 C1394 1.399 . S
C1395 C1396 1.376 . S
C1396 H1383 0.930 . S
C1396 C1395 1.376 . S
C1396 C1397 1.388 . S
C1397 H1384 0.930 . S
C1397 C1396 1.388 . S
C1397 C1398 1.390 . S
C1398 C1397 1.390 . S
C1398 C1399 1.394 . S
C1398 C1404 1.465 . S
C1399 C1394 1.399 . S
C1399 C1398 1.394 . S
C1399 C1400 1.516 . S
C1400 C1399 1.516 . S
C1400 C1401 1.502 1_556 S
C1400 C1402 1.561 . S
C1400 C1403 1.526 . S
C1401 H1385 0.959 . S
C1401 H1386 0.959 . S
C1401 H1387 0.961 1_554 S
C1401 C1400 1.502 1_554 S
C1402 H1388 0.960 . S
C1402 H1389 0.961 . S
C1402 H1390 0.959 . S
C1402 C1400 1.561 . S
C1403 C1400 1.526 . S
C1403 C1404 1.396 . S
C1403 C1408 1.390 1_556 S
C1404 C1398 1.465 . S
C1404 C1403 1.396 . S
C1404 C1405 1.399 . S
C1405 H1391 0.929 . S
C1405 C1404 1.399 . S
C1405 C1406 1.385 1_556 S
C1406 H1392 0.931 . S
C1406 C1405 1.385 1_554 S
C1406 C1407 1.389 . S
C1407 C1406 1.389 . S
C1407 C1408 1.387 . S
C1408 H1393 0.930 . S
C1408 C1403 1.390 1_554 S
C1408 C1407 1.387 . S
H1409 C1421 0.930 . S
H1410 C1423 0.930 . S
H1411 C1424 0.930 . S
H1412 C1428 0.959 . S
H1413 C1428 0.959 . S
H1414 C1428 0.961 . S
H1415 C1429 0.960 . S
H1416 C1429 0.961 . S
H1417 C1429 0.959 . S
H1418 C1432 0.929 . S
H1419 C1433 0.931 . S
H1420 C1435 0.930 . S
C1421 H1409 0.930 . S
C1421 C1422 1.399 . S
C1421 C1426 1.399 . S
C1422 C1421 1.399 . S
C1422 C1423 1.376 . S
C1423 H1410 0.930 . S
C1423 C1422 1.376 . S
C1423 C1424 1.388 . S
C1424 H1411 0.930 . S
C1424 C1423 1.388 . S
C1424 C1425 1.390 . S
C1425 C1424 1.390 . S
C1425 C1426 1.394 . S
C1425 C1431 1.465 . S
C1426 C1421 1.399 . S
C1426 C1425 1.394 . S
C1426 C1427 1.516 . S
C1427 C1426 1.516 . S
C1427 C1428 1.502 . S
C1427 C1429 1.561 . S
C1427 C1430 1.526 . S
C1428 H1412 0.959 . S
C1428 H1413 0.959 . S
C1428 H1414 0.961 . S
C1428 C1427 1.502 . S
C1429 H1415 0.960 . S
C1429 H1416 0.961 . S
C1429 H1417 0.959 . S
C1429 C1427 1.561 . S
C1430 C1427 1.526 . S
C1430 C1431 1.396 . S
C1430 C1435 1.390 . S
C1431 C1425 1.465 . S
C1431 C1430 1.396 . S
C1431 C1432 1.399 . S
C1432 H1418 0.929 . S
C1432 C1431 1.399 . S
C1432 C1433 1.385 . S
C1433 H1419 0.931 . S
C1433 C1432 1.385 . S
C1433 C1434 1.389 . S
C1434 C1433 1.389 . S
C1434 C1435 1.387 . S
C1435 H1420 0.930 . S
C1435 C1430 1.390 . S
C1435 C1434 1.387 . S
H1436 C1448 0.930 . S
H1437 C1450 0.930 . S
H1438 C1451 0.930 . S
H1439 C1455 0.959 . S
H1440 C1455 0.959 . S
H1441 C1455 0.961 . S
H1442 C1456 0.960 . S
H1443 C1456 0.961 . S
H1444 C1456 0.959 . S
H1445 C1459 0.929 . S
H1446 C1460 0.931 . S
H1447 C1462 0.930 . S
C1448 H1436 0.930 . S
C1448 C1449 1.399 . S
C1448 C1453 1.399 . S
C1449 C1448 1.399 . S
C1449 C1450 1.376 . S
C1450 H1437 0.930 . S
C1450 C1449 1.376 . S
C1450 C1451 1.388 . S
C1451 H1438 0.930 . S
C1451 C1450 1.388 . S
C1451 C1452 1.390 . S
C1452 C1451 1.390 . S
C1452 C1453 1.394 . S
C1452 C1458 1.465 . S
C1453 C1448 1.399 . S
C1453 C1452 1.394 . S
C1453 C1454 1.516 . S
C1454 C1453 1.516 . S
C1454 C1455 1.502 . S
C1454 C1456 1.561 . S
C1454 C1457 1.526 . S
C1455 H1439 0.959 . S
C1455 H1440 0.959 . S
C1455 H1441 0.961 . S
C1455 C1454 1.502 . S
C1456 H1442 0.960 . S
C1456 H1443 0.961 . S
C1456 H1444 0.959 . S
C1456 C1454 1.561 . S
C1457 C1454 1.526 . S
C1457 C1458 1.396 . S
C1457 C1462 1.390 . S
C1458 C1452 1.465 . S
C1458 C1457 1.396 . S
C1458 C1459 1.399 . S
C1459 H1445 0.929 . S
C1459 C1458 1.399 . S
C1459 C1460 1.385 . S
C1460 H1446 0.931 . S
C1460 C1459 1.385 . S
C1460 C1461 1.389 . S
C1461 C1460 1.389 . S
C1461 C1462 1.387 . S
C1462 H1447 0.930 . S
C1462 C1457 1.390 . S
C1462 C1461 1.387 . S
H1463 C1475 0.930 . S
H1464 C1477 0.930 . S
H1465 C1478 0.930 . S
H1466 C1482 0.959 . S
H1467 C1482 0.959 . S
H1468 C1482 0.961 . S
H1469 C1483 0.960 . S
H1470 C1483 0.961 . S
H1471 C1483 0.959 . S
H1472 C1486 0.929 . S
H1473 C1487 0.931 . S
H1474 C1489 0.930 . S
C1475 H1463 0.930 . S
C1475 C1476 1.399 . S
C1475 C1480 1.399 . S
C1476 C1475 1.399 . S
C1476 C1477 1.376 . S
C1477 H1464 0.930 . S
C1477 C1476 1.376 . S
C1477 C1478 1.388 . S
C1478 H1465 0.930 . S
C1478 C1477 1.388 . S
C1478 C1479 1.390 . S
C1479 C1478 1.390 . S
C1479 C1480 1.394 . S
C1479 C1485 1.465 . S
C1480 C1475 1.399 . S
C1480 C1479 1.394 . S
C1480 C1481 1.516 . S
C1481 C1480 1.516 . S
C1481 C1482 1.502 . S
C1481 C1483 1.561 . S
C1481 C1484 1.526 . S
C1482 H1466 0.959 . S
C1482 H1467 0.959 . S
C1482 H1468 0.961 . S
C1482 C1481 1.502 . S
C1483 H1469 0.960 . S
C1483 H1470 0.961 . S
C1483 H1471 0.959 . S
C1483 C1481 1.561 . S
C1484 C1481 1.526 . S
C1484 C1485 1.396 . S
C1484 C1489 1.390 . S
C1485 C1479 1.465 . S
C1485 C1484 1.396 . S
C1485 C1486 1.399 . S
C1486 H1472 0.929 . S
C1486 C1485 1.399 . S
C1486 C1487 1.385 . S
C1487 H1473 0.931 . S
C1487 C1486 1.385 . S
C1487 C1488 1.389 . S
C1488 C1487 1.389 . S
C1488 C1489 1.387 . S
C1489 H1474 0.930 . S
C1489 C1484 1.390 . S
C1489 C1488 1.387 . S
H1490 C1502 0.930 . S
H1491 C1504 0.930 . S
H1492 C1505 0.930 . S
H1493 C1509 0.959 . S
H1494 C1509 0.959 . S
H1495 C1509 0.961 . S
H1496 C1510 0.960 . S
H1497 C1510 0.961 . S
H1498 C1510 0.959 . S
H1499 C1513 0.929 . S
H1500 C1514 0.931 . S
H1501 C1516 0.930 . S
C1502 H1490 0.930 . S
C1502 C1503 1.399 . S
C1502 C1507 1.399 . S
C1503 C1502 1.399 . S
C1503 C1504 1.376 . S
C1504 H1491 0.930 . S
C1504 C1503 1.376 . S
C1504 C1505 1.388 . S
C1505 H1492 0.930 . S
C1505 C1504 1.388 . S
C1505 C1506 1.390 . S
C1506 C1505 1.390 . S
C1506 C1507 1.394 . S
C1506 C1512 1.465 . S
C1507 C1502 1.399 . S
C1507 C1506 1.394 . S
C1507 C1508 1.516 . S
C1508 C1507 1.516 . S
C1508 C1509 1.502 . S
C1508 C1510 1.561 . S
C1508 C1511 1.526 . S
C1509 H1493 0.959 . S
C1509 H1494 0.959 . S
C1509 H1495 0.961 . S
C1509 C1508 1.502 . S
C1510 H1496 0.960 . S
C1510 H1497 0.961 . S
C1510 H1498 0.959 . S
C1510 C1508 1.561 . S
C1511 C1508 1.526 . S
C1511 C1512 1.396 . S
C1511 C1516 1.390 1_554 S
C1512 C1506 1.465 . S
C1512 C1511 1.396 . S
C1512 C1513 1.399 1_554 S
C1513 H1499 0.929 . S
C1513 C1512 1.399 1_556 S
C1513 C1514 1.385 . S
C1514 H1500 0.931 . S
C1514 C1513 1.385 . S
C1514 C1515 1.389 . S
C1515 C1514 1.389 . S
C1515 C1516 1.387 . S
C1516 H1501 0.930 . S
C1516 C1511 1.390 1_556 S
C1516 C1515 1.387 . S
H1517 C1529 0.930 . S
H1518 C1531 0.930 . S
H1519 C1532 0.930 . S
H1520 C1536 0.959 . S
H1521 C1536 0.959 . S
H1522 C1536 0.961 . S
H1523 C1537 0.960 . S
H1524 C1537 0.961 . S
H1525 C1537 0.959 . S
H1526 C1540 0.929 . S
H1527 C1541 0.931 . S
H1528 C1543 0.930 . S
C1529 H1517 0.930 . S
C1529 C1530 1.399 . S
C1529 C1534 1.399 . S
C1530 C1529 1.399 . S
C1530 C1531 1.376 . S
C1531 H1518 0.930 . S
C1531 C1530 1.376 . S
C1531 C1532 1.388 . S
C1532 H1519 0.930 . S
C1532 C1531 1.388 . S
C1532 C1533 1.390 . S
C1533 C1532 1.390 . S
C1533 C1534 1.394 . S
C1533 C1539 1.465 . S
C1534 C1529 1.399 . S
C1534 C1533 1.394 . S
C1534 C1535 1.516 . S
C1535 C1534 1.516 . S
C1535 C1536 1.502 . S
C1535 C1537 1.561 . S
C1535 C1538 1.526 . S
C1536 H1520 0.959 . S
C1536 H1521 0.959 . S
C1536 H1522 0.961 . S
C1536 C1535 1.502 . S
C1537 H1523 0.960 . S
C1537 H1524 0.961 . S
C1537 H1525 0.959 . S
C1537 C1535 1.561 . S
C1538 C1535 1.526 . S
C1538 C1539 1.396 . S
C1538 C1543 1.390 . S
C1539 C1533 1.465 . S
C1539 C1538 1.396 . S
C1539 C1540 1.399 . S
C1540 H1526 0.929 . S
C1540 C1539 1.399 . S
C1540 C1541 1.385 . S
C1541 H1527 0.931 . S
C1541 C1540 1.385 . S
C1541 C1542 1.389 . S
C1542 C1541 1.389 . S
C1542 C1543 1.387 . S
C1543 H1528 0.930 . S
C1543 C1538 1.390 . S
C1543 C1542 1.387 . S
H1544 C1556 0.930 . S
H1545 C1558 0.930 . S
H1546 C1559 0.930 . S
H1547 C1563 0.959 . S
H1548 C1563 0.959 . S
H1549 C1563 0.961 . S
H1550 C1564 0.960 . S
H1551 C1564 0.961 . S
H1552 C1564 0.959 . S
H1553 C1567 0.929 . S
H1554 C1568 0.931 . S
H1555 C1570 0.930 . S
C1556 H1544 0.930 . S
C1556 C1557 1.399 . S
C1556 C1561 1.399 . S
C1557 C1556 1.399 . S
C1557 C1558 1.376 . S
C1558 H1545 0.930 . S
C1558 C1557 1.376 . S
C1558 C1559 1.388 . S
C1559 H1546 0.930 . S
C1559 C1558 1.388 . S
C1559 C1560 1.390 . S
C1560 C1559 1.390 . S
C1560 C1561 1.394 . S
C1560 C1566 1.465 . S
C1561 C1556 1.399 . S
C1561 C1560 1.394 . S
C1561 C1562 1.516 . S
C1562 C1561 1.516 . S
C1562 C1563 1.502 . S
C1562 C1564 1.561 . S
C1562 C1565 1.526 . S
C1563 H1547 0.959 . S
C1563 H1548 0.959 . S
C1563 H1549 0.961 . S
C1563 C1562 1.502 . S
C1564 H1550 0.960 . S
C1564 H1551 0.961 . S
C1564 H1552 0.959 . S
C1564 C1562 1.561 . S
C1565 C1562 1.526 . S
C1565 C1566 1.396 . S
C1565 C1570 1.390 . S
C1566 C1560 1.465 . S
C1566 C1565 1.396 . S
C1566 C1567 1.399 . S
C1567 H1553 0.929 . S
C1567 C1566 1.399 . S
C1567 C1568 1.385 . S
C1568 H1554 0.931 . S
C1568 C1567 1.385 . S
C1568 C1569 1.389 . S
C1569 C1568 1.389 . S
C1569 C1570 1.387 . S
C1570 H1555 0.930 . S
C1570 C1565 1.390 . S
C1570 C1569 1.387 . S
H1571 C1583 0.930 . S
H1572 C1585 0.930 . S
H1573 C1586 0.930 . S
H1574 C1590 0.959 . S
H1575 C1590 0.959 . S
H1576 C1590 0.961 . S
H1577 C1591 0.960 . S
H1578 C1591 0.961 . S
H1579 C1591 0.959 . S
H1580 C1594 0.929 . S
H1581 C1595 0.931 . S
H1582 C1597 0.930 . S
C1583 H1571 0.930 . S
C1583 C1584 1.399 . S
C1583 C1588 1.399 . S
C1584 C1583 1.399 . S
C1584 C1585 1.376 . S
C1585 H1572 0.930 . S
C1585 C1584 1.376 . S
C1585 C1586 1.388 . S
C1586 H1573 0.930 . S
C1586 C1585 1.388 . S
C1586 C1587 1.390 . S
C1587 C1586 1.390 . S
C1587 C1588 1.394 . S
C1587 C1593 1.465 . S
C1588 C1583 1.399 . S
C1588 C1587 1.394 . S
C1588 C1589 1.516 . S
C1589 C1588 1.516 . S
C1589 C1590 1.502 . S
C1589 C1591 1.561 . S
C1589 C1592 1.526 . S
C1590 H1574 0.959 . S
C1590 H1575 0.959 . S
C1590 H1576 0.961 . S
C1590 C1589 1.502 . S
C1591 H1577 0.960 . S
C1591 H1578 0.961 . S
C1591 H1579 0.959 . S
C1591 C1589 1.561 . S
C1592 C1589 1.526 . S
C1592 C1593 1.396 . S
C1592 C1597 1.390 . S
C1593 C1587 1.465 . S
C1593 C1592 1.396 . S
C1593 C1594 1.399 . S
C1594 H1580 0.929 . S
C1594 C1593 1.399 . S
C1594 C1595 1.385 . S
C1595 H1581 0.931 . S
C1595 C1594 1.385 . S
C1595 C1596 1.389 . S
C1596 C1595 1.389 . S
C1596 C1597 1.387 . S
C1597 H1582 0.930 . S
C1597 C1592 1.390 . S
C1597 C1596 1.387 . S
H1598 C1610 0.930 . S
H1599 C1612 0.930 . S
H1600 C1613 0.930 . S
H1601 C1617 0.959 . S
H1602 C1617 0.959 . S
H1603 C1617 0.961 . S
H1604 C1618 0.960 . S
H1605 C1618 0.961 . S
H1606 C1618 0.959 . S
H1607 C1621 0.929 . S
H1608 C1622 0.931 . S
H1609 C1624 0.930 . S
C1610 H1598 0.930 . S
C1610 C1611 1.399 . S
C1610 C1615 1.399 . S
C1611 C1610 1.399 . S
C1611 C1612 1.376 . S
C1612 H1599 0.930 . S
C1612 C1611 1.376 . S
C1612 C1613 1.388 . S
C1613 H1600 0.930 . S
C1613 C1612 1.388 . S
C1613 C1614 1.390 . S
C1614 C1613 1.390 . S
C1614 C1615 1.394 . S
C1614 C1620 1.465 . S
C1615 C1610 1.399 . S
C1615 C1614 1.394 . S
C1615 C1616 1.516 . S
C1616 C1615 1.516 . S
C1616 C1617 1.502 . S
C1616 C1618 1.561 . S
C1616 C1619 1.526 . S
C1617 H1601 0.959 . S
C1617 H1602 0.959 . S
C1617 H1603 0.961 . S
C1617 C1616 1.502 . S
C1618 H1604 0.960 . S
C1618 H1605 0.961 . S
C1618 H1606 0.959 . S
C1618 C1616 1.561 . S
C1619 C1616 1.526 . S
C1619 C1620 1.396 . S
C1619 C1624 1.390 . S
C1620 C1614 1.465 . S
C1620 C1619 1.396 . S
C1620 C1621 1.399 . S
C1621 H1607 0.929 . S
C1621 C1620 1.399 . S
C1621 C1622 1.385 . S
C1622 H1608 0.931 . S
C1622 C1621 1.385 . S
C1622 C1623 1.389 . S
C1623 C1622 1.389 . S
C1623 C1624 1.387 . S
C1624 H1609 0.930 . S
C1624 C1619 1.390 . S
C1624 C1623 1.387 . S
H1625 C1637 0.930 . S
H1626 C1639 0.930 . S
H1627 C1640 0.930 . S
H1628 C1644 0.959 . S
H1629 C1644 0.959 . S
H1630 C1644 0.961 . S
H1631 C1645 0.960 . S
H1632 C1645 0.961 . S
H1633 C1645 0.959 . S
H1634 C1648 0.929 . S
H1635 C1649 0.931 . S
H1636 C1651 0.930 . S
C1637 H1625 0.930 . S
C1637 C1638 1.399 . S
C1637 C1642 1.399 . S
C1638 C1637 1.399 . S
C1638 C1639 1.376 . S
C1639 H1626 0.930 . S
C1639 C1638 1.376 . S
C1639 C1640 1.388 . S
C1640 H1627 0.930 . S
C1640 C1639 1.388 . S
C1640 C1641 1.390 . S
C1641 C1640 1.390 . S
C1641 C1642 1.394 . S
C1641 C1647 1.465 . S
C1642 C1637 1.399 . S
C1642 C1641 1.394 . S
C1642 C1643 1.516 . S
C1643 C1642 1.516 . S
C1643 C1644 1.502 . S
C1643 C1645 1.561 . S
C1643 C1646 1.526 . S
C1644 H1628 0.959 . S
C1644 H1629 0.959 . S
C1644 H1630 0.961 . S
C1644 C1643 1.502 . S
C1645 H1631 0.960 . S
C1645 H1632 0.961 . S
C1645 H1633 0.959 . S
C1645 C1643 1.561 . S
C1646 C1643 1.526 . S
C1646 C1647 1.396 . S
C1646 C1651 1.390 . S
C1647 C1641 1.465 . S
C1647 C1646 1.396 . S
C1647 C1648 1.399 . S
C1648 H1634 0.929 . S
C1648 C1647 1.399 . S
C1648 C1649 1.385 . S
C1649 H1635 0.931 . S
C1649 C1648 1.385 . S
C1649 C1650 1.389 . S
C1650 C1649 1.389 . S
C1650 C1651 1.387 . S
C1651 H1636 0.930 . S
C1651 C1646 1.390 . S
C1651 C1650 1.387 . S
H1652 C1664 0.930 . S
H1653 C1666 0.930 . S
H1654 C1667 0.930 . S
H1655 C1671 0.959 . S
H1656 C1671 0.959 . S
H1657 C1671 0.961 . S
H1658 C1672 0.960 . S
H1659 C1672 0.961 . S
H1660 C1672 0.959 . S
H1661 C1675 0.929 . S
H1662 C1676 0.931 . S
H1663 C1678 0.930 . S
C1664 H1652 0.930 . S
C1664 C1665 1.399 . S
C1664 C1669 1.399 . S
C1665 C1664 1.399 . S
C1665 C1666 1.376 . S
C1666 H1653 0.930 . S
C1666 C1665 1.376 . S
C1666 C1667 1.388 . S
C1667 H1654 0.930 . S
C1667 C1666 1.388 . S
C1667 C1668 1.390 . S
C1668 C1667 1.390 . S
C1668 C1669 1.394 . S
C1668 C1674 1.465 . S
C1669 C1664 1.399 . S
C1669 C1668 1.394 . S
C1669 C1670 1.516 . S
C1670 C1669 1.516 . S
C1670 C1671 1.502 . S
C1670 C1672 1.561 . S
C1670 C1673 1.526 . S
C1671 H1655 0.959 . S
C1671 H1656 0.959 . S
C1671 H1657 0.961 . S
C1671 C1670 1.502 . S
C1672 H1658 0.960 . S
C1672 H1659 0.961 . S
C1672 H1660 0.959 . S
C1672 C1670 1.561 . S
C1673 C1670 1.526 . S
C1673 C1674 1.396 . S
C1673 C1678 1.390 . S
C1674 C1668 1.465 . S
C1674 C1673 1.396 . S
C1674 C1675 1.399 . S
C1675 H1661 0.929 . S
C1675 C1674 1.399 . S
C1675 C1676 1.385 . S
C1676 H1662 0.931 . S
C1676 C1675 1.385 . S
C1676 C1677 1.389 . S
C1677 C1676 1.389 . S
C1677 C1678 1.387 . S
C1678 H1663 0.930 . S
C1678 C1673 1.390 . S
C1678 C1677 1.387 . S
H1679 C1691 0.930 . S
H1680 C1693 0.930 . S
H1681 C1694 0.930 . S
H1682 C1698 0.959 . S
H1683 C1698 0.959 . S
H1684 C1698 0.961 . S
H1685 C1699 0.960 . S
H1686 C1699 0.961 . S
H1687 C1699 0.959 . S
H1688 C1702 0.929 . S
H1689 C1703 0.931 . S
H1690 C1705 0.930 . S
C1691 H1679 0.930 . S
C1691 C1692 1.399 . S
C1691 C1696 1.399 . S
C1692 C1691 1.399 . S
C1692 C1693 1.376 . S
C1693 H1680 0.930 . S
C1693 C1692 1.376 . S
C1693 C1694 1.388 . S
C1694 H1681 0.930 . S
C1694 C1693 1.388 . S
C1694 C1695 1.390 . S
C1695 C1694 1.390 . S
C1695 C1696 1.394 . S
C1695 C1701 1.465 . S
C1696 C1691 1.399 . S
C1696 C1695 1.394 . S
C1696 C1697 1.516 . S
C1697 C1696 1.516 . S
C1697 C1698 1.502 . S
C1697 C1699 1.561 . S
C1697 C1700 1.526 . S
C1698 H1682 0.959 . S
C1698 H1683 0.959 . S
C1698 H1684 0.961 . S
C1698 C1697 1.502 . S
C1699 H1685 0.960 . S
C1699 H1686 0.961 . S
C1699 H1687 0.959 . S
C1699 C1697 1.561 . S
C1700 C1697 1.526 . S
C1700 C1701 1.396 . S
C1700 C1705 1.390 . S
C1701 C1695 1.465 . S
C1701 C1700 1.396 . S
C1701 C1702 1.399 . S
C1702 H1688 0.929 . S
C1702 C1701 1.399 . S
C1702 C1703 1.385 . S
C1703 H1689 0.931 . S
C1703 C1702 1.385 . S
C1703 C1704 1.389 . S
C1704 C1703 1.389 . S
C1704 C1705 1.387 . S
C1705 H1690 0.930 . S
C1705 C1700 1.390 . S
C1705 C1704 1.387 . S
H1706 C1718 0.930 . S
H1707 C1720 0.930 . S
H1708 C1721 0.930 . S
H1709 C1725 0.959 . S
H1710 C1725 0.959 . S
H1711 C1725 0.961 . S
H1712 C1726 0.960 . S
H1713 C1726 0.961 . S
H1714 C1726 0.959 . S
H1715 C1729 0.929 . S
H1716 C1730 0.931 . S
H1717 C1732 0.930 . S
C1718 H1706 0.930 . S
C1718 C1719 1.399 . S
C1718 C1723 1.399 . S
C1719 C1718 1.399 . S
C1719 C1720 1.376 . S
C1720 H1707 0.930 . S
C1720 C1719 1.376 . S
C1720 C1721 1.388 . S
C1721 H1708 0.930 . S
C1721 C1720 1.388 . S
C1721 C1722 1.390 . S
C1722 C1721 1.390 . S
C1722 C1723 1.394 . S
C1722 C1728 1.465 . S
C1723 C1718 1.399 . S
C1723 C1722 1.394 . S
C1723 C1724 1.516 . S
C1724 C1723 1.516 . S
C1724 C1725 1.502 . S
C1724 C1726 1.561 . S
C1724 C1727 1.526 . S
C1725 H1709 0.959 . S
C1725 H1710 0.959 . S
C1725 H1711 0.961 . S
C1725 C1724 1.502 . S
C1726 H1712 0.960 . S
C1726 H1713 0.961 . S
C1726 H1714 0.959 . S
C1726 C1724 1.561 . S
C1727 C1724 1.526 . S
C1727 C1728 1.396 . S
C1727 C1732 1.390 . S
C1728 C1722 1.465 . S
C1728 C1727 1.396 . S
C1728 C1729 1.399 . S
C1729 H1715 0.929 . S
C1729 C1728 1.399 . S
C1729 C1730 1.385 . S
C1730 H1716 0.931 . S
C1730 C1729 1.385 . S
C1730 C1731 1.389 . S
C1731 C1730 1.389 . S
C1731 C1732 1.387 . S
C1732 H1717 0.930 . S
C1732 C1727 1.390 . S
C1732 C1731 1.387 . S
H1733 C1745 0.930 . S
H1734 C1747 0.930 . S
H1735 C1748 0.930 . S
H1736 C1752 0.959 . S
H1737 C1752 0.959 . S
H1738 C1752 0.961 . S
H1739 C1753 0.960 . S
H1740 C1753 0.961 . S
H1741 C1753 0.959 . S
H1742 C1756 0.929 . S
H1743 C1757 0.931 . S
H1744 C1759 0.930 . S
C1745 H1733 0.930 . S
C1745 C1746 1.399 . S
C1745 C1750 1.399 . S
C1746 C1745 1.399 . S
C1746 C1747 1.376 . S
C1747 H1734 0.930 . S
C1747 C1746 1.376 . S
C1747 C1748 1.388 . S
C1748 H1735 0.930 . S
C1748 C1747 1.388 . S
C1748 C1749 1.390 . S
C1749 C1748 1.390 . S
C1749 C1750 1.394 . S
C1749 C1755 1.465 . S
C1750 C1745 1.399 . S
C1750 C1749 1.394 . S
C1750 C1751 1.516 . S
C1751 C1750 1.516 . S
C1751 C1752 1.502 . S
C1751 C1753 1.561 . S
C1751 C1754 1.526 . S
C1752 H1736 0.959 . S
C1752 H1737 0.959 . S
C1752 H1738 0.961 . S
C1752 C1751 1.502 . S
C1753 H1739 0.960 . S
C1753 H1740 0.961 . S
C1753 H1741 0.959 . S
C1753 C1751 1.561 . S
C1754 C1751 1.526 . S
C1754 C1755 1.396 . S
C1754 C1759 1.390 . S
C1755 C1749 1.465 . S
C1755 C1754 1.396 . S
C1755 C1756 1.399 . S
C1756 H1742 0.929 . S
C1756 C1755 1.399 . S
C1756 C1757 1.385 . S
C1757 H1743 0.931 . S
C1757 C1756 1.385 . S
C1757 C1758 1.389 . S
C1758 C1757 1.389 . S
C1758 C1759 1.387 . S
C1759 H1744 0.930 . S
C1759 C1754 1.390 . S
C1759 C1758 1.387 . S
H1760 C1772 0.930 . S
H1761 C1774 0.930 . S
H1762 C1775 0.930 . S
H1763 C1779 0.959 . S
H1764 C1779 0.959 . S
H1765 C1779 0.961 . S
H1766 C1780 0.960 . S
H1767 C1780 0.961 . S
H1768 C1780 0.959 . S
H1769 C1783 0.929 . S
H1770 C1784 0.931 . S
H1771 C1786 0.930 . S
C1772 H1760 0.930 . S
C1772 C1773 1.399 . S
C1772 C1777 1.399 . S
C1773 C1772 1.399 . S
C1773 C1774 1.376 . S
C1774 H1761 0.930 . S
C1774 C1773 1.376 . S
C1774 C1775 1.388 . S
C1775 H1762 0.930 . S
C1775 C1774 1.388 . S
C1775 C1776 1.390 . S
C1776 C1775 1.390 . S
C1776 C1777 1.394 . S
C1776 C1782 1.465 . S
C1777 C1772 1.399 . S
C1777 C1776 1.394 . S
C1777 C1778 1.516 . S
C1778 C1777 1.516 . S
C1778 C1779 1.502 . S
C1778 C1780 1.561 . S
C1778 C1781 1.526 . S
C1779 H1763 0.959 . S
C1779 H1764 0.959 . S
C1779 H1765 0.961 . S
C1779 C1778 1.502 . S
C1780 H1766 0.960 . S
C1780 H1767 0.961 . S
C1780 H1768 0.959 . S
C1780 C1778 1.561 . S
C1781 C1778 1.526 . S
C1781 C1782 1.396 . S
C1781 C1786 1.390 . S
C1782 C1776 1.465 . S
C1782 C1781 1.396 . S
C1782 C1783 1.399 . S
C1783 H1769 0.929 . S
C1783 C1782 1.399 . S
C1783 C1784 1.385 . S
C1784 H1770 0.931 . S
C1784 C1783 1.385 . S
C1784 C1785 1.389 . S
C1785 C1784 1.389 . S
C1785 C1786 1.387 . S
C1786 H1771 0.930 . S
C1786 C1781 1.390 . S
C1786 C1785 1.387 . S
H1787 C1799 0.930 . S
H1788 C1801 0.930 . S
H1789 C1802 0.930 . S
H1790 C1806 0.959 . S
H1791 C1806 0.959 . S
H1792 C1806 0.961 . S
H1793 C1807 0.960 . S
H1794 C1807 0.961 . S
H1795 C1807 0.959 . S
H1796 C1810 0.929 . S
H1797 C1811 0.931 . S
H1798 C1813 0.930 . S
C1799 H1787 0.930 . S
C1799 C1800 1.399 . S
C1799 C1804 1.399 . S
C1800 C1799 1.399 . S
C1800 C1801 1.376 . S
C1801 H1788 0.930 . S
C1801 C1800 1.376 . S
C1801 C1802 1.388 . S
C1802 H1789 0.930 . S
C1802 C1801 1.388 . S
C1802 C1803 1.390 . S
C1803 C1802 1.390 . S
C1803 C1804 1.394 . S
C1803 C1809 1.465 . S
C1804 C1799 1.399 . S
C1804 C1803 1.394 . S
C1804 C1805 1.516 . S
C1805 C1804 1.516 . S
C1805 C1806 1.502 . S
C1805 C1807 1.561 . S
C1805 C1808 1.526 . S
C1806 H1790 0.959 . S
C1806 H1791 0.959 . S
C1806 H1792 0.961 . S
C1806 C1805 1.502 . S
C1807 H1793 0.960 . S
C1807 H1794 0.961 . S
C1807 H1795 0.959 . S
C1807 C1805 1.561 . S
C1808 C1805 1.526 . S
C1808 C1809 1.396 . S
C1808 C1813 1.390 . S
C1809 C1803 1.465 . S
C1809 C1808 1.396 . S
C1809 C1810 1.399 . S
C1810 H1796 0.929 . S
C1810 C1809 1.399 . S
C1810 C1811 1.385 . S
C1811 H1797 0.931 . S
C1811 C1810 1.385 . S
C1811 C1812 1.389 . S
C1812 C1811 1.389 . S
C1812 C1813 1.387 . S
C1813 H1798 0.930 . S
C1813 C1808 1.390 . S
C1813 C1812 1.387 . S
H1814 C1826 0.930 . S
H1815 C1828 0.930 . S
H1816 C1829 0.930 . S
H1817 C1833 0.959 . S
H1818 C1833 0.959 . S
H1819 C1833 0.961 . S
H1820 C1834 0.960 . S
H1821 C1834 0.961 . S
H1822 C1834 0.959 . S
H1823 C1837 0.929 . S
H1824 C1838 0.931 . S
H1825 C1840 0.930 . S
C1826 H1814 0.930 . S
C1826 C1827 1.399 . S
C1826 C1831 1.399 . S
C1827 C1826 1.399 . S
C1827 C1828 1.376 . S
C1828 H1815 0.930 . S
C1828 C1827 1.376 . S
C1828 C1829 1.388 . S
C1829 H1816 0.930 . S
C1829 C1828 1.388 . S
C1829 C1830 1.390 . S
C1830 C1829 1.390 . S
C1830 C1831 1.394 . S
C1830 C1836 1.465 . S
C1831 C1826 1.399 . S
C1831 C1830 1.394 . S
C1831 C1832 1.516 . S
C1832 C1831 1.516 . S
C1832 C1833 1.502 . S
C1832 C1834 1.561 . S
C1832 C1835 1.526 . S
C1833 H1817 0.959 . S
C1833 H1818 0.959 . S
C1833 H1819 0.961 . S
C1833 C1832 1.502 . S
C1834 H1820 0.960 . S
C1834 H1821 0.961 . S
C1834 H1822 0.959 . S
C1834 C1832 1.561 . S
C1835 C1832 1.526 . S
C1835 C1836 1.396 . S
C1835 C1840 1.390 . S
C1836 C1830 1.465 . S
C1836 C1835 1.396 . S
C1836 C1837 1.399 . S
C1837 H1823 0.929 . S
C1837 C1836 1.399 . S
C1837 C1838 1.385 . S
C1838 H1824 0.931 . S
C1838 C1837 1.385 . S
C1838 C1839 1.389 . S
C1839 C1838 1.389 . S
C1839 C1840 1.387 . S
C1840 H1825 0.930 . S
C1840 C1835 1.390 . S
C1840 C1839 1.387 . S
H1841 C1853 0.930 . S
H1842 C1855 0.930 . S
H1843 C1856 0.930 . S
H1844 C1860 0.959 . S
H1845 C1860 0.959 . S
H1846 C1860 0.961 . S
H1847 C1861 0.960 . S
H1848 C1861 0.961 . S
H1849 C1861 0.959 . S
H1850 C1864 0.929 . S
H1851 C1865 0.931 . S
H1852 C1867 0.930 . S
C1853 H1841 0.930 . S
C1853 C1854 1.399 . S
C1853 C1858 1.399 . S
C1854 C1853 1.399 . S
C1854 C1855 1.376 . S
C1855 H1842 0.930 . S
C1855 C1854 1.376 . S
C1855 C1856 1.388 . S
C1856 H1843 0.930 . S
C1856 C1855 1.388 . S
C1856 C1857 1.390 . S
C1857 C1856 1.390 . S
C1857 C1858 1.394 . S
C1857 C1863 1.465 . S
C1858 C1853 1.399 . S
C1858 C1857 1.394 . S
C1858 C1859 1.516 . S
C1859 C1858 1.516 . S
C1859 C1860 1.502 . S
C1859 C1861 1.561 . S
C1859 C1862 1.526 . S
C1860 H1844 0.959 . S
C1860 H1845 0.959 . S
C1860 H1846 0.961 . S
C1860 C1859 1.502 . S
C1861 H1847 0.960 . S
C1861 H1848 0.961 . S
C1861 H1849 0.959 . S
C1861 C1859 1.561 . S
C1862 C1859 1.526 . S
C1862 C1863 1.396 . S
C1862 C1867 1.390 . S
C1863 C1857 1.465 . S
C1863 C1862 1.396 . S
C1863 C1864 1.399 . S
C1864 H1850 0.929 . S
C1864 C1863 1.399 . S
C1864 C1865 1.385 . S
C1865 H1851 0.931 . S
C1865 C1864 1.385 . S
C1865 C1866 1.389 . S
C1866 C1865 1.389 . S
C1866 C1867 1.387 . S
C1867 H1852 0.930 . S
C1867 C1862 1.390 . S
C1867 C1866 1.387 . S
H1868 C1880 0.930 . S
H1869 C1882 0.930 . S
H1870 C1883 0.930 . S
H1871 C1887 0.959 . S
H1872 C1887 0.959 . S
H1873 C1887 0.961 . S
H1874 C1888 0.960 . S
H1875 C1888 0.961 . S
H1876 C1888 0.959 . S
H1877 C1891 0.929 . S
H1878 C1892 0.931 . S
H1879 C1894 0.930 . S
C1880 H1868 0.930 . S
C1880 C1881 1.399 . S
C1880 C1885 1.399 . S
C1881 C1880 1.399 . S
C1881 C1882 1.376 . S
C1882 H1869 0.930 . S
C1882 C1881 1.376 . S
C1882 C1883 1.388 . S
C1883 H1870 0.930 . S
C1883 C1882 1.388 . S
C1883 C1884 1.390 . S
C1884 C1883 1.390 . S
C1884 C1885 1.394 . S
C1884 C1890 1.465 . S
C1885 C1880 1.399 . S
C1885 C1884 1.394 . S
C1885 C1886 1.516 . S
C1886 C1885 1.516 . S
C1886 C1887 1.502 . S
C1886 C1888 1.561 . S
C1886 C1889 1.526 . S
C1887 H1871 0.959 . S
C1887 H1872 0.959 . S
C1887 H1873 0.961 . S
C1887 C1886 1.502 . S
C1888 H1874 0.960 . S
C1888 H1875 0.961 . S
C1888 H1876 0.959 . S
C1888 C1886 1.561 . S
C1889 C1886 1.526 . S
C1889 C1890 1.396 . S
C1889 C1894 1.390 . S
C1890 C1884 1.465 . S
C1890 C1889 1.396 . S
C1890 C1891 1.399 . S
C1891 H1877 0.929 . S
C1891 C1890 1.399 . S
C1891 C1892 1.385 . S
C1892 H1878 0.931 . S
C1892 C1891 1.385 . S
C1892 C1893 1.389 . S
C1893 C1892 1.389 . S
C1893 C1894 1.387 . S
C1894 H1879 0.930 . S
C1894 C1889 1.390 . S
C1894 C1893 1.387 . S
H1895 C1907 0.930 . S
H1896 C1909 0.930 . S
H1897 C1910 0.930 . S
H1898 C1914 0.959 . S
H1899 C1914 0.959 . S
H1900 C1914 0.961 . S
H1901 C1915 0.960 . S
H1902 C1915 0.961 . S
H1903 C1915 0.959 . S
H1904 C1918 0.929 . S
H1905 C1919 0.931 . S
H1906 C1921 0.930 . S
C1907 H1895 0.930 . S
C1907 C1908 1.399 . S
C1907 C1912 1.399 . S
C1908 C1907 1.399 . S
C1908 C1909 1.376 . S
C1909 H1896 0.930 . S
C1909 C1908 1.376 . S
C1909 C1910 1.388 . S
C1910 H1897 0.930 . S
C1910 C1909 1.388 . S
C1910 C1911 1.390 . S
C1911 C1910 1.390 . S
C1911 C1912 1.394 . S
C1911 C1917 1.465 . S
C1912 C1907 1.399 . S
C1912 C1911 1.394 . S
C1912 C1913 1.516 . S
C1913 C1912 1.516 . S
C1913 C1914 1.502 . S
C1913 C1915 1.561 . S
C1913 C1916 1.526 . S
C1914 H1898 0.959 . S
C1914 H1899 0.959 . S
C1914 H1900 0.961 . S
C1914 C1913 1.502 . S
C1915 H1901 0.960 . S
C1915 H1902 0.961 . S
C1915 H1903 0.959 . S
C1915 C1913 1.561 . S
C1916 C1913 1.526 . S
C1916 C1917 1.396 . S
C1916 C1921 1.390 . S
C1917 C1911 1.465 . S
C1917 C1916 1.396 . S
C1917 C1918 1.399 . S
C1918 H1904 0.929 . S
C1918 C1917 1.399 . S
C1918 C1919 1.385 . S
C1919 H1905 0.931 . S
C1919 C1918 1.385 . S
C1919 C1920 1.389 . S
C1920 C1919 1.389 . S
C1920 C1921 1.387 . S
C1921 H1906 0.930 . S
C1921 C1916 1.390 . S
C1921 C1920 1.387 . S
H1922 C1934 0.930 . S
H1923 C1936 0.930 . S
H1924 C1937 0.930 . S
H1925 C1941 0.959 . S
H1926 C1941 0.959 . S
H1927 C1941 0.961 . S
H1928 C1942 0.960 . S
H1929 C1942 0.961 . S
H1930 C1942 0.959 . S
H1931 C1945 0.929 . S
H1932 C1946 0.931 . S
H1933 C1948 0.930 . S
C1934 H1922 0.930 . S
C1934 C1935 1.399 . S
C1934 C1939 1.399 . S
C1935 C1934 1.399 . S
C1935 C1936 1.376 . S
C1936 H1923 0.930 . S
C1936 C1935 1.376 . S
C1936 C1937 1.388 . S
C1937 H1924 0.930 . S
C1937 C1936 1.388 . S
C1937 C1938 1.390 . S
C1938 C1937 1.390 . S
C1938 C1939 1.394 . S
C1938 C1944 1.465 . S
C1939 C1934 1.399 . S
C1939 C1938 1.394 . S
C1939 C1940 1.516 . S
C1940 C1939 1.516 . S
C1940 C1941 1.502 . S
C1940 C1942 1.561 . S
C1940 C1943 1.526 . S
C1941 H1925 0.959 . S
C1941 H1926 0.959 . S
C1941 H1927 0.961 . S
C1941 C1940 1.502 . S
C1942 H1928 0.960 . S
C1942 H1929 0.961 . S
C1942 H1930 0.959 . S
C1942 C1940 1.561 . S
C1943 C1940 1.526 . S
C1943 C1944 1.396 . S
C1943 C1948 1.390 . S
C1944 C1938 1.465 . S
C1944 C1943 1.396 . S
C1944 C1945 1.399 . S
C1945 H1931 0.929 . S
C1945 C1944 1.399 . S
C1945 C1946 1.385 . S
C1946 H1932 0.931 . S
C1946 C1945 1.385 . S
C1946 C1947 1.389 . S
C1947 C1946 1.389 . S
C1947 C1948 1.387 . S
C1948 H1933 0.930 . S
C1948 C1943 1.390 . S
C1948 C1947 1.387 . S
H1949 C1961 0.930 . S
H1950 C1963 0.930 . S
H1951 C1964 0.930 . S
H1952 C1968 0.959 . S
H1953 C1968 0.959 . S
H1954 C1968 0.961 . S
H1955 C1969 0.960 . S
H1956 C1969 0.961 . S
H1957 C1969 0.959 . S
H1958 C1972 0.929 . S
H1959 C1973 0.931 . S
H1960 C1975 0.930 . S
C1961 H1949 0.930 . S
C1961 C1962 1.399 . S
C1961 C1966 1.399 . S
C1962 C1961 1.399 . S
C1962 C1963 1.376 . S
C1963 H1950 0.930 . S
C1963 C1962 1.376 . S
C1963 C1964 1.388 . S
C1964 H1951 0.930 . S
C1964 C1963 1.388 . S
C1964 C1965 1.390 . S
C1965 C1964 1.390 . S
C1965 C1966 1.394 . S
C1965 C1971 1.465 . S
C1966 C1961 1.399 . S
C1966 C1965 1.394 . S
C1966 C1967 1.516 . S
C1967 C1966 1.516 . S
C1967 C1968 1.502 . S
C1967 C1969 1.561 . S
C1967 C1970 1.526 . S
C1968 H1952 0.959 . S
C1968 H1953 0.959 . S
C1968 H1954 0.961 . S
C1968 C1967 1.502 . S
C1969 H1955 0.960 . S
C1969 H1956 0.961 . S
C1969 H1957 0.959 . S
C1969 C1967 1.561 . S
C1970 C1967 1.526 . S
C1970 C1971 1.396 . S
C1970 C1975 1.390 . S
C1971 C1965 1.465 . S
C1971 C1970 1.396 . S
C1971 C1972 1.399 . S
C1972 H1958 0.929 . S
C1972 C1971 1.399 . S
C1972 C1973 1.385 . S
C1973 H1959 0.931 . S
C1973 C1972 1.385 . S
C1973 C1974 1.389 . S
C1974 C1973 1.389 . S
C1974 C1975 1.387 . S
C1975 H1960 0.930 . S
C1975 C1970 1.390 . S
C1975 C1974 1.387 . S
C477 C5 2.856 1_455 S
C489 C382 2.866 . S
C504 C324 2.879 . S
C516 C34 2.870 . S
C531 C63 2.865 . S
C543 C353 2.880 . S
C558 C92 2.856 . S
C570 C295 2.867 . S
C585 C440 2.856 . S
C597 C121 2.867 1_455 S
C612 C150 2.865 . S
C624 C266 2.880 . S
C639 C411 2.865 . S
C651 C179 2.880 . S
C666 C208 2.855 . S
C678 C237 2.869 . S
C693 C102 1.368 . S
C705 C3 1.420 . S
C720 C15 1.395 . S
C732 C32 1.437 . S
C747 C44 1.409 . S
C759 C61 1.445 . S
C774 C90 1.442 . S
C786 C73 1.409 . S
C801 C160 1.375 . S
C813 C119 1.424 . S
C828 C189 1.389 . S
C840 C148 1.436 . S
C855 C218 1.415 . S
C867 C177 1.445 . S
C882 C131 1.418 . S
C894 C206 1.447 . S
C909 C137 1.109 . S
C921 C269 1.389 . S
C936 C253 1.189 . S
C948 C124 1.357 1_545 S
C963 C195 1.268 . S
C975 C240 1.341 . S
C990 C282 1.201 . S
C1002 C182 1.353 1_565 S
C1017 C298 1.344 . S
C1029 C21 1.267 . S
C1044 C66 1.341 1_545 S
C1056 C311 1.249 . S
C1071 C327 1.379 . S
C1083 C79 1.156 . S
C1098 C8 1.340 1_565 S
C1110 C340 1.265 . S
C1125 C334 1.368 . S
C1137 C351 1.427 . S
C1152 C363 1.339 . S
C1164 C293 1.412 . S
C1179 C380 1.413 . S
C1191 C305 1.344 . S
C1206 C322 1.427 . S
C1218 C392 1.371 . S
C1233 C409 1.448 . S
C1245 C247 1.419 . S
C1260 C450 1.339 . S
C1272 C235 1.409 . S
C1287 C276 1.389 . S
C1299 C438 1.432 . S
C1314 C421 1.420 . S
C1326 C264 1.448 . S
C1341 C211 1.352 . S
C1353 C427 1.203 . S
C1368 C414 1.340 . S
C1380 C166 1.254 . S
C1395 C456 1.268 . S
C1407 C153 1.342 . S
C1422 C224 1.240 . S
C1434 C443 1.344 . S
C1449 C37 1.350 . S
C1461 C369 1.213 . S
C1476 C50 1.192 . S
C1488 C385 1.370 . S
C1503 C398 1.106 . S
C1515 C95 1.384 . S
C1530 C356 1.359 . S
C1542 C108 1.228 . S
C1557 C158 0.792 . S
C1569 C13 0.719 . S
C1584 C187 0.816 . S
C1596 C42 0.906 . S
C1611 C216 0.790 . S
C1623 C71 0.721 . S
C1638 C100 0.915 . S
C1650 C129 0.893 . S
C1665 C126 1.646 . S
C1677 C300 1.671 . S
C1692 C242 1.669 . S
C1704 C68 1.640 . S
C1719 C329 1.661 . S
C1731 C184 1.624 . S
C1746 C10 1.614 . S
C1758 C271 1.646 . S
C1773 C361 0.721 . S
C1785 C245 0.802 . S
C1800 C303 0.811 . S
C1812 C448 0.726 . S
C1827 C390 0.908 . S
C1839 C274 0.905 . S
C1854 C419 0.786 . S
C1866 C332 0.889 . S
C1881 C39 1.615 . S
C1893 C416 1.648 . S
C1908 C387 1.669 . S
C1920 C155 1.641 . S
C1935 C97 1.635 . S
C1947 C445 1.614 . S
C1962 C213 1.669 . S
C1974 C358 1.641 . S
