# Generated by pormake.
# Topology kag, (6)-cn, num edge types: 1
# Building blocks:
#     Node 0, Type 0, BuildingBlock: JUFBIX_clean_sbu_0, # of connection points: 6
#     Node 1, Type 0, BuildingBlock: JUFBIX_clean_sbu_0, # of connection points: 6
#     Node 2, Type 0, BuildingBlock: JUFBIX_clean_sbu_0, # of connection points: 6
#     Edge 3, Type (0, 0), BuildingBlock: KIFKEQ_clean_linker_1, # of connection points: 2
#     Edge 4, Type (0, 0), BuildingBlock: KIFKEQ_clean_linker_1, # of connection points: 2
#     Edge 5, Type (0, 0), BuildingBlock: KIFKEQ_clean_linker_1, # of connection points: 2
#     Edge 6, Type (0, 0), BuildingBlock: KIFKEQ_clean_linker_1, # of connection points: 2
#     Edge 7, Type (0, 0), BuildingBlock: KIFKEQ_clean_linker_1, # of connection points: 2
#     Edge 8, Type (0, 0), BuildingBlock: KIFKEQ_clean_linker_1, # of connection points: 2
#     Edge 9, Type (0, 0), BuildingBlock: KIFKEQ_clean_linker_1, # of connection points: 2
#     Edge 10, Type (0, 0), BuildingBlock: KIFKEQ_clean_linker_1, # of connection points: 2
#     Edge 11, Type (0, 0), BuildingBlock: KIFKEQ_clean_linker_1, # of connection points: 2
# Relax obj value: 0.258
# Max RMSD: 0.228
# Mean RMSD: 0.152
data_MOF--net-kag--node1-JUFBIX_clean_sbu_0--edge1-KIFKEQ_clean_linker_1
_symmetry_space_group_name_H-M    P1
_symmetry_Int_Tables_number       1
_symmetry_cell_setting            triclinic
loop_
_symmetry_equiv_pos_as_xyz
'x, y, z'
_cell_length_a     30.407242
_cell_length_b     38.440093
_cell_length_c     15.185182
_cell_angle_alpha  90.322275
_cell_angle_beta   92.866655
_cell_angle_gamma 120.5982
loop_
_atom_site_label
_atom_site_type_symbol
_atom_site_fract_x
_atom_site_fract_y
_atom_site_fract_z
_atom_type_partial_charge
Co0 Co 0.98663 0.46565 1.00411 0.0
C1 C 1.00682 0.50047 0.84011 0.0
Co2 Co 0.0273 0.53249 0.01063 0.0
C3 C 0.91058 0.38079 0.02319 0.0
C4 C 0.97621 0.38934 0.95868 0.0
N5 N 0.95626 0.40978 0.99614 0.0
N6 N 0.9018 0.34329 0.00485 0.0
C7 C 0.94305 0.34856 0.96455 0.0
H8 H 0.88422 0.38699 0.05549 0.0
H9 H 0.01218 0.40313 0.92733 0.0
C10 C 1.00722 0.49764 0.17463 0.0
N11 N 0.05787 0.58835 0.01831 0.0
C12 C 0.10282 0.61691 0.98805 0.0
C13 C 0.03893 0.60927 0.05697 0.0
N14 N 0.11216 0.65461 0.00557 0.0
C15 C 0.07201 0.64995 0.04864 0.0
C16 C 0.91978 0.49368 1.00191 0.0
O17 O 0.98588 0.46452 0.12931 0.0
O18 O 0.02821 0.53094 0.13538 0.0
O19 O 0.96158 0.52739 0.0075 0.0
O20 O 0.92114 0.46123 0.99743 0.0
O21 O 0.02612 0.53354 0.88518 0.0
H22 H 1.00359 0.59589 0.09023 0.0
H23 H 0.12814 0.61025 0.95352 0.0
O24 O 0.98768 0.46727 0.87961 0.0
O25 O 0.05241 0.47077 0.01076 0.0
O26 O 0.09271 0.53692 0.01412 0.0
C27 C 0.09415 0.50448 0.01338 0.0
H28 H 0.94801 0.32458 0.93846 0.0
H29 H 0.06769 0.67429 0.07442 0.0
Co30 Co 0.53022 0.98432 0.9876 0.0
C31 C 0.50744 0.00037 0.81893 0.0
Co32 Co 0.48217 0.01259 0.9845 0.0
C33 C 0.56046 0.92514 0.02333 0.0
C34 C 0.61296 0.97318 0.94527 0.0
N35 N 0.56999 0.96039 0.9884 0.0
N36 N 0.59555 0.9151 1.00293 0.0
C37 C 0.6287 0.94557 0.95397 0.0
H38 H 0.52761 0.90685 0.06119 0.0
H39 H 0.63059 9e-05 0.9069 0.0
C40 C 0.50476 0.99651 0.15309 0.0
N41 N 0.44217 0.03709 0.9815 0.0
C42 C 0.45851 0.07698 0.97672 0.0
C43 C 0.39065 0.01902 0.98158 0.0
N44 N 0.41958 0.08432 0.9736 0.0
C45 C 0.37673 0.04792 0.97633 0.0
C46 C 0.42601 0.92875 0.97264 0.0
O47 O 0.52981 0.98367 0.11283 0.0
O48 O 0.48036 0.01009 0.10896 0.0
O49 O 0.42247 0.96029 0.97303 0.0
O50 O 0.46998 0.93245 0.97869 0.0
O51 O 0.48437 0.01487 0.85946 0.0
H52 H 0.36445 0.9869 0.98552 0.0
H53 H 0.49817 0.10052 0.97429 0.0
O54 O 0.52994 0.98526 0.8629 0.0
O55 O 0.5904 0.03643 0.99621 0.0
O56 O 0.54282 0.06408 0.99701 0.0
C57 C 0.58682 0.06788 1.00047 0.0
H58 H 0.66085 0.94715 0.92282 0.0
H59 H 0.33822 0.04269 0.97647 0.0
Co60 Co 0.48458 0.46564 0.01434 0.0
C61 C 0.50997 0.50132 0.18388 0.0
Co62 Co 0.52979 0.53261 0.01828 0.0
C63 C 0.45509 0.38145 0.98413 0.0
C64 C 0.40428 0.38881 0.06452 0.0
N65 N 0.44552 0.40963 0.01645 0.0
N66 N 0.42195 0.34415 0.01162 0.0
C67 C 0.38992 0.34866 0.06203 0.0
H68 H 0.48768 0.38846 0.94626 0.0
H69 H 0.38747 0.40231 0.10309 0.0
C70 C 0.50476 0.49709 0.84884 0.0
N71 N 0.56891 0.5889 0.01826 0.0
C72 C 0.55567 0.61612 0.04232 0.0
C73 C 0.61678 0.61147 0.99087 0.0
N74 N 0.59339 0.65455 0.03138 0.0
C75 C 0.632 0.65175 0.9994 0.0
C76 C 0.58884 0.49574 0.02091 0.0
O77 O 0.48134 0.46396 0.88868 0.0
O78 O 0.52847 0.53034 0.89355 0.0
O79 O 0.59048 0.52943 0.02424 0.0
O80 O 0.5456 0.46322 0.01649 0.0
O81 O 0.53079 0.53439 0.14366 0.0
H82 H 0.63896 0.59953 0.96431 0.0
H83 H 0.51901 0.60805 0.06705 0.0
O84 O 0.48844 0.46806 0.13944 0.0
O85 O 0.42384 0.46858 0.01244 0.0
O86 O 0.46852 0.53472 0.01171 0.0
C87 C 0.42538 0.50223 0.01126 0.0
H88 H 0.35956 0.32483 0.09729 0.0
H89 H 0.66789 0.67698 0.98039 0.0
H90 H 0.99093 0.43865 0.72925 0.0
H91 H 0.02311 0.56182 0.7311 0.0
H92 H 0.9921 0.43808 0.56933 0.0
H93 H 0.0219 0.56076 0.57046 0.0
H94 H 0.06749 0.56061 0.29054 0.0
H95 H 0.06812 0.56124 0.45076 0.0
H96 H 0.94608 0.43604 0.43889 0.0
H97 H 0.94732 0.43503 0.27862 0.0
C98 C 0.99775 0.46551 0.6953 0.0
C99 C 1.00695 0.5003 0.74276 0.0
C100 C 0.99808 0.46511 0.60338 0.0
C101 C 1.00692 0.49932 0.55644 0.0
C102 C 0.01583 0.53407 0.6042 0.0
C103 C 0.01622 0.53464 0.69634 0.0
C104 C 0.04089 0.53319 0.32225 0.0
C105 C 0.00744 0.49773 0.272 0.0
C106 C 0.04096 0.53362 0.41424 0.0
C107 C 1.00704 0.49874 0.45827 0.0
C108 C 0.9734 0.4633 0.40765 0.0
C109 C 0.97386 0.46273 0.31563 0.0
H110 H 0.5701 0.98843 0.26959 0.0
H111 H 0.43945 0.00464 0.25654 0.0
H112 H 0.57191 0.99073 0.43001 0.0
H113 H 0.43954 0.00499 0.41683 0.0
H114 H 0.48321 0.04414 0.70603 0.0
H115 H 0.4836 0.04383 0.54556 0.0
H116 H 0.52945 0.95418 0.5517 0.0
H117 H 0.5314 0.95607 0.7119 0.0
C118 C 0.54138 0.99201 0.30107 0.0
C119 C 0.50469 0.99641 0.25045 0.0
C120 C 0.5422 0.99312 0.39318 0.0
C121 C 0.50584 0.99803 0.4369 0.0
C122 C 0.46878 0.00196 0.38585 0.0
C123 C 0.46845 0.00144 0.29378 0.0
C124 C 0.49349 0.02448 0.67292 0.0
C125 C 0.5074 0.00023 0.72158 0.0
C126 C 0.49339 0.02405 0.5808 0.0
C127 C 0.50648 0.99892 0.53515 0.0
C128 C 0.5201 0.97452 0.58426 0.0
C129 C 0.52091 0.97539 0.67629 0.0
H130 H 0.44227 0.43578 0.7295 0.0
H131 H 0.56858 0.55916 0.74829 0.0
H132 H 0.4427 0.43721 0.56902 0.0
H133 H 0.57073 0.5601 0.58857 0.0
H134 H 0.53034 0.56367 0.29831 0.0
H135 H 0.52743 0.56226 0.45841 0.0
H136 H 0.48877 0.43729 0.44934 0.0
H137 H 0.48936 0.43831 0.28933 0.0
C138 C 0.4704 0.46308 0.69932 0.0
C139 C 0.50524 0.49737 0.75151 0.0
C140 C 0.47091 0.46387 0.60726 0.0
C141 C 0.50678 0.4988 0.56535 0.0
C142 C 0.54187 0.53294 0.61805 0.0
C143 C 0.54088 0.53231 0.70986 0.0
C144 C 0.52128 0.53595 0.3307 0.0
C145 C 0.51004 0.50112 0.28125 0.0
C146 C 0.51984 0.53514 0.42261 0.0
C147 C 0.50785 0.49963 0.4673 0.0
C148 C 0.49715 0.46495 0.41746 0.0
C149 C 0.49789 0.46561 0.32558 0.0
H150 H 0.19083 0.56829 0.05634 0.0
H151 H 0.10875 0.44265 0.96876 0.0
H152 H 0.27134 0.56848 0.05791 0.0
H153 H 0.18873 0.44323 0.96576 0.0
H154 H 0.33123 0.44184 0.05286 0.0
H155 H 0.25272 0.44372 0.0566 0.0
H156 H 0.33219 0.56692 0.97056 0.0
H157 H 0.41154 0.56553 0.97141 0.0
C158 C 0.19005 0.54082 0.03681 0.0
C159 C 0.1434 0.50538 0.01318 0.0
C160 C 0.23624 0.54096 0.03706 0.0
C161 C 0.23681 0.50578 0.01244 0.0
C162 C 0.18998 0.47063 0.98734 0.0
C163 C 0.14395 0.47034 0.98845 0.0
C164 C 0.33193 0.46932 0.03466 0.0
C165 C 0.37753 0.50346 0.01146 0.0
C166 C 0.28674 0.47037 0.03626 0.0
C167 C 0.28568 0.50538 0.01315 0.0
C168 C 0.33149 0.5396 0.98997 0.0
C169 C 0.37697 0.53873 0.98974 0.0
H170 H 0.59412 0.13829 0.05642 0.0
H171 H 0.68403 0.08914 0.96353 0.0
H172 H 0.67032 0.20543 0.06939 0.0
H173 H 0.75974 0.15643 0.97178 0.0
H174 H 0.89759 0.27492 0.05641 0.0
H175 H 0.82117 0.20843 0.06543 0.0
H176 H 0.72715 0.25891 0.98578 0.0
H177 H 0.80392 0.32566 0.98157 0.0
C178 C 0.63019 0.14194 0.03817 0.0
C179 C 0.63316 0.1085 0.00892 0.0
C180 C 0.67389 0.1805 0.04512 0.0
C181 C 0.72145 0.18662 0.02159 0.0
C182 C 0.72418 0.15295 0.99238 0.0
C183 C 0.68066 0.11432 0.9869 0.0
C184 C 0.86041 0.27164 0.04189 0.0
C185 C 0.85645 0.30518 0.01805 0.0
C186 C 0.81659 0.23355 0.04627 0.0
C187 C 0.76775 0.22794 0.02504 0.0
C188 C 0.76389 0.26196 1.0037 0.0
C189 C 0.8078 0.30025 1.00101 0.0
H190 H 0.5163 0.84397 0.05726 0.0
H191 H 0.67441 0.90132 0.99105 0.0
H192 H 0.51517 0.78103 0.07932 0.0
H193 H 0.67202 0.83795 0.00655 0.0
H194 H 0.67048 0.72708 0.09349 0.0
H195 H 0.67034 0.79038 0.10168 0.0
H196 H 0.51255 0.72779 0.99842 0.0
H197 H 0.51255 0.66434 0.9948 0.0
C198 C 0.55095 0.84346 0.04762 0.0
C199 C 0.59535 0.8781 0.02138 0.0
C200 C 0.55005 0.80699 0.05921 0.0
C201 C 0.59335 0.80403 0.04417 0.0
C202 C 0.63802 0.83891 0.02005 0.0
C203 C 0.63913 0.87539 0.0096 0.0
C204 C 0.63574 0.72699 0.07349 0.0
C205 C 0.59166 0.69099 0.04312 0.0
C206 C 0.63562 0.76326 0.07756 0.0
C207 C 0.59164 0.76457 0.04951 0.0
C208 C 0.54698 0.72809 0.02172 0.0
C209 C 0.54691 0.69167 0.01926 0.0
H210 H 0.82299 0.43073 0.95505 0.0
H211 H 0.90535 0.55459 0.05506 0.0
H212 H 0.74256 0.43052 0.95787 0.0
H213 H 0.82551 0.55389 0.06243 0.0
H214 H 0.68334 0.55718 0.98403 0.0
H215 H 0.76165 0.55539 0.97583 0.0
H216 H 0.68164 0.43014 0.04826 0.0
H217 H 0.6024 0.43156 0.05177 0.0
C218 C 0.82385 0.4578 0.97816 0.0
C219 C 0.87057 0.49278 1.00401 0.0
C220 C 0.77771 0.45764 0.98047 0.0
C221 C 0.77724 0.49228 0.00994 0.0
C222 C 0.82414 0.52694 0.03714 0.0
C223 C 0.87012 0.52729 0.03347 0.0
C224 C 0.68246 0.52928 0.99841 0.0
C225 C 0.63671 0.49459 0.019 0.0
C226 C 0.72756 0.52825 0.99422 0.0
C227 C 0.72844 0.49269 0.0121 0.0
C228 C 0.6825 0.45793 0.03284 0.0
C229 C 0.63709 0.4588 0.03562 0.0
H230 H 0.21031 0.67265 0.02332 0.0
H231 H 0.11469 0.72166 0.94871 0.0
H232 H 0.28656 0.73893 0.00924 0.0
H233 H 0.19042 0.78751 0.92924 0.0
H234 H 0.32974 0.90891 0.01194 0.0
H235 H 0.25417 0.8419 0.0129 0.0
H236 H 0.34115 0.78992 0.91939 0.0
H237 H 0.41752 0.85704 0.92366 0.0
C238 C 0.20585 0.69756 1.00187 0.0
C239 C 0.1569 0.69235 0.9877 0.0
C240 C 0.24946 0.73556 0.99339 0.0
C241 C 0.24495 0.76898 0.96883 0.0
C242 C 0.19564 0.76297 0.95071 0.0
C243 C 0.15217 0.72523 0.96109 0.0
C244 C 0.33259 0.88316 0.99119 0.0
C245 C 0.37951 0.88819 0.96791 0.0
C246 C 0.28909 0.84462 0.99105 0.0
C247 C 0.29117 0.81017 0.96592 0.0
C248 C 0.33809 0.81548 0.94072 0.0
C249 C 0.38186 0.85401 0.94253 0.0
H250 H 0.41578 0.29432 0.13995 0.0
H251 H 0.435 0.31323 0.86157 0.0
H252 H 0.41906 0.23225 0.12443 0.0
H253 H 0.43675 0.25006 0.84529 0.0
H254 H 0.35547 0.10302 0.88492 0.0
H255 H 0.35987 0.16863 0.88759 0.0
H256 H 0.49571 0.21848 0.06286 0.0
H257 H 0.492 0.15327 0.05878 0.0
C258 C 0.42047 0.28496 0.07541 0.0
C259 C 0.42491 0.30823 1.00179 0.0
C260 C 0.42262 0.24972 0.06666 0.0
C261 C 0.42811 0.23661 0.98375 0.0
C262 C 0.43245 0.25972 0.90982 0.0
C263 C 0.43161 0.29568 0.91906 0.0
C264 C 0.3864 0.12813 0.92338 0.0
C265 C 0.42332 0.12315 0.97181 0.0
C266 C 0.38912 0.16558 0.92434 0.0
C267 C 0.42818 0.19835 0.97526 0.0
C268 C 0.46536 0.19355 0.02296 0.0
C269 C 0.4633 0.1564 0.02044 0.0
loop_
_geom_bond_atom_site_label_1
_geom_bond_atom_site_label_2
_geom_bond_distance
_geom_bond_site_symmetry_2
_ccdc_geom_bond_type
Co0 N5 2.057 1_554 S
Co0 O17 2.021 . S
Co0 O20 2.062 . S
Co0 O24 2.117 1_554 S
Co0 O25 2.020 1_655 S
C1 O21 1.259 . S
C1 O24 1.258 1_455 S
Co2 N11 2.057 1_556 S
Co2 O18 2.117 1_556 S
Co2 O19 2.020 1_455 S
Co2 O21 2.021 . S
Co2 O26 2.062 . S
C3 N5 1.316 1_554 S
C3 N6 1.347 1_554 S
C3 H8 0.931 . S
C4 N5 1.375 . S
C4 C7 1.350 . S
C4 H9 0.930 . S
N5 Co0 2.057 1_556 S
N5 C3 1.316 1_556 S
N5 C4 1.375 . S
N6 C3 1.347 1_556 S
N6 C7 1.373 . S
C7 C4 1.350 . S
C7 N6 1.373 . S
C7 H28 0.931 . S
H8 C3 0.931 . S
H9 C4 0.930 . S
C10 O17 1.259 . S
C10 O18 1.258 1_655 S
N11 Co2 2.057 1_554 S
N11 C12 1.316 1_554 S
N11 C13 1.375 . S
C12 N11 1.316 1_556 S
C12 N14 1.347 1_556 S
C12 H23 0.931 . S
C13 N11 1.375 . S
C13 C15 1.350 . S
C13 H22 0.930 . S
N14 C12 1.347 1_554 S
N14 C15 1.373 . S
C15 C13 1.350 . S
C15 N14 1.373 . S
C15 H29 0.931 . S
C16 O19 1.256 1_554 S
C16 O20 1.255 . S
O17 Co0 2.021 . S
O17 C10 1.259 . S
O18 Co2 2.117 1_554 S
O18 C10 1.258 1_455 S
O19 Co2 2.020 1_655 S
O19 C16 1.256 1_556 S
O20 Co0 2.062 . S
O20 C16 1.255 . S
O21 C1 1.259 . S
O21 Co2 2.021 . S
H22 C13 0.930 . S
H23 C12 0.931 . S
O24 Co0 2.117 1_556 S
O24 C1 1.258 1_655 S
O25 Co0 2.020 1_455 S
O25 C27 1.256 1_554 S
O26 Co2 2.062 . S
O26 C27 1.255 . S
C27 O25 1.256 1_556 S
C27 O26 1.255 . S
H28 C7 0.931 . S
H29 C15 0.931 . S
Co30 N35 2.057 1_554 S
Co30 O47 2.021 . S
Co30 O50 2.062 . S
Co30 O54 2.117 1_554 S
Co30 O55 2.020 1_565 S
C31 O51 1.259 . S
C31 O54 1.258 1_545 S
Co32 N41 2.057 1_556 S
Co32 O48 2.117 1_556 S
Co32 O49 2.020 1_545 S
Co32 O51 2.021 . S
Co32 O56 2.062 . S
C33 N35 1.316 1_554 S
C33 N36 1.347 1_554 S
C33 H38 0.931 . S
C34 N35 1.375 . S
C34 C37 1.350 . S
C34 H39 0.930 . S
N35 Co30 2.057 1_556 S
N35 C33 1.316 1_556 S
N35 C34 1.375 . S
N36 C33 1.347 1_556 S
N36 C37 1.373 . S
C37 C34 1.350 . S
C37 N36 1.373 . S
C37 H58 0.931 . S
H38 C33 0.931 . S
H39 C34 0.930 . S
C40 O47 1.259 . S
C40 O48 1.258 1_565 S
N41 Co32 2.057 1_554 S
N41 C42 1.316 1_554 S
N41 C43 1.375 . S
C42 N41 1.316 1_556 S
C42 N44 1.347 1_556 S
C42 H53 0.931 . S
C43 N41 1.375 . S
C43 C45 1.350 . S
C43 H52 0.930 . S
N44 C42 1.347 1_554 S
N44 C45 1.373 . S
C45 C43 1.350 . S
C45 N44 1.373 . S
C45 H59 0.931 . S
C46 O49 1.256 . S
C46 O50 1.254 1_556 S
O47 Co30 2.021 . S
O47 C40 1.259 . S
O48 Co32 2.117 1_554 S
O48 C40 1.258 1_545 S
O49 Co32 2.020 1_565 S
O49 C46 1.256 . S
O50 Co30 2.062 . S
O50 C46 1.254 1_554 S
O51 C31 1.259 . S
O51 Co32 2.021 . S
H52 C43 0.930 . S
H53 C42 0.931 . S
O54 Co30 2.117 1_556 S
O54 C31 1.258 1_565 S
O55 Co30 2.020 1_545 S
O55 C57 1.257 . S
O56 Co32 2.062 . S
O56 C57 1.254 1_556 S
C57 O55 1.257 . S
C57 O56 1.254 1_554 S
H58 C37 0.931 . S
H59 C45 0.931 . S
Co60 N65 2.057 1_556 S
Co60 O77 2.021 . S
Co60 O80 2.062 . S
Co60 O84 2.117 1_556 S
Co60 O85 2.020 . S
C61 O81 1.259 . S
C61 O84 1.258 . S
Co62 N71 2.057 1_554 S
Co62 O78 2.117 1_554 S
Co62 O79 2.020 . S
Co62 O81 2.021 . S
Co62 O86 2.062 . S
C63 N65 1.316 1_556 S
C63 N66 1.347 1_556 S
C63 H68 0.931 . S
C64 N65 1.375 . S
C64 C67 1.350 . S
C64 H69 0.930 . S
N65 Co60 2.057 1_554 S
N65 C63 1.316 1_554 S
N65 C64 1.375 . S
N66 C63 1.347 1_554 S
N66 C67 1.373 . S
C67 C64 1.350 . S
C67 N66 1.373 . S
C67 H88 0.931 . S
H68 C63 0.931 . S
H69 C64 0.930 . S
C70 O77 1.259 . S
C70 O78 1.258 . S
N71 Co62 2.057 1_556 S
N71 C72 1.316 1_556 S
N71 C73 1.375 . S
C72 N71 1.316 1_554 S
C72 N74 1.347 1_554 S
C72 H83 0.931 . S
C73 N71 1.375 . S
C73 C75 1.350 . S
C73 H82 0.930 . S
N74 C72 1.347 1_556 S
N74 C75 1.373 . S
C75 C73 1.350 . S
C75 N74 1.373 . S
C75 H89 0.931 . S
C76 O79 1.256 . S
C76 O80 1.254 1_554 S
O77 Co60 2.021 . S
O77 C70 1.259 . S
O78 Co62 2.117 1_556 S
O78 C70 1.258 . S
O79 Co62 2.020 . S
O79 C76 1.256 . S
O80 Co60 2.062 . S
O80 C76 1.254 1_556 S
O81 C61 1.259 . S
O81 Co62 2.021 . S
H82 C73 0.930 . S
H83 C72 0.931 . S
O84 Co60 2.117 1_554 S
O84 C61 1.258 . S
O85 Co60 2.020 . S
O85 C87 1.256 . S
O86 Co62 2.062 . S
O86 C87 1.254 1_554 S
C87 O85 1.256 . S
C87 O86 1.254 1_556 S
H88 C67 0.931 . S
H89 C75 0.931 . S
H90 C98 0.950 . S
H91 C103 0.950 . S
H92 C100 0.950 . S
H93 C102 0.950 . S
H94 C104 0.950 . S
H95 C106 0.950 . S
H96 C108 0.950 . S
H97 C109 0.950 . S
C98 H90 0.950 . S
C98 C99 1.390 . S
C98 C100 1.391 . S
C99 C98 1.390 . S
C99 C103 1.388 1_655 S
C100 H92 0.950 . S
C100 C98 1.391 . S
C100 C101 1.403 . S
C101 C100 1.403 . S
C101 C102 1.397 1_655 S
C101 C107 1.488 1_655 S
C102 H93 0.950 . S
C102 C101 1.397 1_455 S
C102 C103 1.391 . S
C103 H91 0.950 . S
C103 C99 1.388 1_455 S
C103 C102 1.391 . S
C104 H94 0.950 . S
C104 C105 1.386 . S
C104 C106 1.391 . S
C105 C104 1.386 . S
C105 C109 1.393 1_455 S
C106 H95 0.950 . S
C106 C104 1.391 . S
C106 C107 1.404 . S
C107 C101 1.488 1_455 S
C107 C106 1.404 . S
C107 C108 1.396 1_455 S
C108 H96 0.950 . S
C108 C107 1.396 1_655 S
C108 C109 1.391 . S
C109 H97 0.950 . S
C109 C105 1.393 1_655 S
C109 C108 1.391 . S
H110 C118 0.950 . S
H111 C123 0.950 . S
H112 C120 0.950 . S
H113 C122 0.950 . S
H114 C124 0.950 . S
H115 C126 0.950 . S
H116 C128 0.950 . S
H117 C129 0.950 . S
C118 H110 0.950 . S
C118 C119 1.396 . S
C118 C120 1.391 . S
C119 C118 1.396 . S
C119 C123 1.382 1_565 S
C120 H112 0.950 . S
C120 C118 1.391 . S
C120 C121 1.393 1_565 S
C121 C120 1.393 1_545 S
C121 C122 1.405 . S
C121 C127 1.491 1_545 S
C122 H113 0.950 . S
C122 C121 1.405 . S
C122 C123 1.391 . S
C123 H111 0.950 . S
C123 C119 1.382 1_545 S
C123 C122 1.391 . S
C124 H114 0.950 . S
C124 C125 1.402 . S
C124 C126 1.391 . S
C125 C124 1.402 . S
C125 C129 1.376 1_545 S
C126 H115 0.950 . S
C126 C124 1.391 . S
C126 C127 1.400 1_545 S
C127 C121 1.491 1_565 S
C127 C126 1.400 1_565 S
C127 C128 1.399 . S
C128 H116 0.950 . S
C128 C127 1.399 . S
C128 C129 1.391 . S
C129 H117 0.950 . S
C129 C125 1.376 1_565 S
C129 C128 1.391 . S
H130 C138 0.950 . S
H131 C143 0.950 . S
H132 C140 0.950 . S
H133 C142 0.950 . S
H134 C144 0.950 . S
H135 C146 0.950 . S
H136 C148 0.950 . S
H137 C149 0.950 . S
C138 H130 0.950 . S
C138 C139 1.386 . S
C138 C140 1.391 . S
C139 C138 1.386 . S
C139 C143 1.393 . S
C140 H132 0.950 . S
C140 C138 1.391 . S
C140 C141 1.400 . S
C141 C140 1.400 . S
C141 C142 1.398 . S
C141 C147 1.491 . S
C142 H133 0.950 . S
C142 C141 1.398 . S
C142 C143 1.391 . S
C143 H131 0.950 . S
C143 C139 1.393 . S
C143 C142 1.391 . S
C144 H134 0.950 . S
C144 C145 1.386 . S
C144 C146 1.391 . S
C145 C144 1.386 . S
C145 C149 1.393 . S
C146 H135 0.950 . S
C146 C144 1.391 . S
C146 C147 1.400 . S
C147 C141 1.491 . S
C147 C146 1.400 . S
C147 C148 1.398 . S
C148 H136 0.950 . S
C148 C147 1.398 . S
C148 C149 1.391 . S
C149 H137 0.950 . S
C149 C145 1.393 . S
C149 C148 1.391 . S
H150 C158 0.950 . S
H151 C163 0.950 . S
H152 C160 0.950 . S
H153 C162 0.950 . S
H154 C164 0.950 . S
H155 C166 0.950 . S
H156 C168 0.950 . S
H157 C169 0.950 . S
C158 H150 0.950 . S
C158 C159 1.386 . S
C158 C160 1.391 . S
C159 C158 1.386 . S
C159 C163 1.393 1_554 S
C160 H152 0.950 . S
C160 C158 1.391 . S
C160 C161 1.403 . S
C161 C160 1.403 . S
C161 C162 1.396 1_554 S
C161 C167 1.490 1_554 S
C162 H153 0.950 . S
C162 C161 1.396 1_556 S
C162 C163 1.391 . S
C163 H151 0.950 . S
C163 C159 1.393 1_556 S
C163 C162 1.391 . S
C164 H154 0.950 . S
C164 C165 1.386 . S
C164 C166 1.391 . S
C165 C164 1.386 . S
C165 C169 1.393 1_556 S
C166 H155 0.950 . S
C166 C164 1.391 . S
C166 C167 1.400 . S
C167 C161 1.490 1_556 S
C167 C166 1.400 . S
C167 C168 1.398 1_556 S
C168 H156 0.950 . S
C168 C167 1.398 1_554 S
C168 C169 1.391 . S
C169 H157 0.950 . S
C169 C165 1.393 1_554 S
C169 C168 1.391 . S
H170 C178 0.950 . S
H171 C183 0.950 . S
H172 C180 0.950 . S
H173 C182 0.950 . S
H174 C184 0.950 . S
H175 C186 0.950 . S
H176 C188 0.950 . S
H177 C189 0.950 . S
C178 H170 0.950 . S
C178 C179 1.386 . S
C178 C180 1.391 . S
C179 C178 1.386 . S
C179 C183 1.393 1_554 S
C180 H172 0.950 . S
C180 C178 1.391 . S
C180 C181 1.400 . S
C181 C180 1.400 . S
C181 C182 1.398 1_554 S
C181 C187 1.491 1_554 S
C182 H173 0.950 . S
C182 C181 1.398 1_556 S
C182 C183 1.391 . S
C183 H171 0.950 . S
C183 C179 1.393 1_556 S
C183 C182 1.391 . S
C184 H174 0.950 . S
C184 C185 1.386 . S
C184 C186 1.391 . S
C185 C184 1.386 . S
C185 C189 1.393 1_556 S
C186 H175 0.950 . S
C186 C184 1.391 . S
C186 C187 1.400 . S
C187 C181 1.491 1_556 S
C187 C186 1.400 . S
C187 C188 1.398 1_556 S
C188 H176 0.950 . S
C188 C187 1.398 1_554 S
C188 C189 1.391 . S
C189 H177 0.950 . S
C189 C185 1.393 1_554 S
C189 C188 1.391 . S
H190 C198 0.950 . S
H191 C203 0.950 . S
H192 C200 0.950 . S
H193 C202 0.950 . S
H194 C204 0.950 . S
H195 C206 0.950 . S
H196 C208 0.950 . S
H197 C209 0.950 . S
C198 H190 0.950 . S
C198 C199 1.386 1_556 S
C198 C200 1.391 . S
C199 C198 1.386 1_554 S
C199 C203 1.393 . S
C200 H192 0.950 . S
C200 C198 1.391 . S
C200 C201 1.400 1_556 S
C201 C200 1.400 1_554 S
C201 C202 1.398 . S
C201 C207 1.491 . S
C202 H193 0.950 . S
C202 C201 1.398 . S
C202 C203 1.391 . S
C203 H191 0.950 . S
C203 C199 1.393 . S
C203 C202 1.391 . S
C204 H194 0.950 . S
C204 C205 1.386 . S
C204 C206 1.391 . S
C205 C204 1.386 . S
C205 C209 1.393 1_554 S
C206 H195 0.950 . S
C206 C204 1.391 . S
C206 C207 1.400 . S
C207 C201 1.491 . S
C207 C206 1.400 . S
C207 C208 1.398 1_554 S
C208 H196 0.950 . S
C208 C207 1.398 1_556 S
C208 C209 1.391 . S
C209 H197 0.950 . S
C209 C205 1.393 1_556 S
C209 C208 1.391 . S
H210 C218 0.950 . S
H211 C223 0.950 . S
H212 C220 0.950 . S
H213 C222 0.950 . S
H214 C224 0.950 . S
H215 C226 0.950 . S
H216 C228 0.950 . S
H217 C229 0.950 . S
C218 H210 0.950 . S
C218 C219 1.386 . S
C218 C220 1.391 . S
C219 C218 1.386 . S
C219 C223 1.393 1_554 S
C220 H212 0.950 . S
C220 C218 1.391 . S
C220 C221 1.400 . S
C221 C220 1.400 . S
C221 C222 1.398 1_554 S
C221 C227 1.491 1_554 S
C222 H213 0.950 . S
C222 C221 1.398 1_556 S
C222 C223 1.391 . S
C223 H211 0.950 . S
C223 C219 1.393 1_556 S
C223 C222 1.391 . S
C224 H214 0.950 . S
C224 C225 1.389 . S
C224 C226 1.391 . S
C225 C224 1.389 . S
C225 C229 1.391 1_556 S
C226 H215 0.950 . S
C226 C224 1.391 . S
C226 C227 1.400 . S
C227 C221 1.491 1_556 S
C227 C226 1.400 . S
C227 C228 1.398 1_556 S
C228 H216 0.950 . S
C228 C227 1.398 1_554 S
C228 C229 1.391 . S
C229 H217 0.950 . S
C229 C225 1.391 1_554 S
C229 C228 1.391 . S
H230 C238 0.950 . S
H231 C243 0.950 . S
H232 C240 0.950 . S
H233 C242 0.950 . S
H234 C244 0.950 . S
H235 C246 0.950 . S
H236 C248 0.950 . S
H237 C249 0.950 . S
C238 H230 0.950 . S
C238 C239 1.386 . S
C238 C240 1.391 . S
C239 C238 1.386 . S
C239 C243 1.393 1_556 S
C240 H232 0.950 . S
C240 C238 1.391 . S
C240 C241 1.400 . S
C241 C240 1.400 . S
C241 C242 1.398 1_556 S
C241 C247 1.490 . S
C242 H233 0.950 . S
C242 C241 1.398 1_554 S
C242 C243 1.391 . S
C243 H231 0.950 . S
C243 C239 1.393 1_554 S
C243 C242 1.391 . S
C244 H234 0.950 . S
C244 C245 1.381 1_554 S
C244 C246 1.391 . S
C245 C244 1.381 1_556 S
C245 C249 1.397 . S
C246 H235 0.950 . S
C246 C244 1.391 . S
C246 C247 1.395 1_554 S
C247 C241 1.490 . S
C247 C246 1.395 1_556 S
C247 C248 1.404 . S
C248 H236 0.950 . S
C248 C247 1.404 . S
C248 C249 1.391 . S
C249 H237 0.950 . S
C249 C245 1.397 . S
C249 C248 1.391 . S
H250 C258 0.950 . S
H251 C263 0.950 . S
H252 C260 0.950 . S
H253 C262 0.950 . S
H254 C264 0.950 . S
H255 C266 0.950 . S
H256 C268 0.950 . S
H257 C269 0.950 . S
C258 H250 0.950 . S
C258 C259 1.386 1_554 S
C258 C260 1.391 . S
C259 C258 1.386 1_556 S
C259 C263 1.393 . S
C260 H252 0.950 . S
C260 C258 1.391 . S
C260 C261 1.400 1_554 S
C261 C260 1.400 1_556 S
C261 C262 1.398 . S
C261 C267 1.491 . S
C262 H253 0.950 . S
C262 C261 1.398 . S
C262 C263 1.391 . S
C263 H251 0.950 . S
C263 C259 1.393 . S
C263 C262 1.391 . S
C264 H254 0.950 . S
C264 C265 1.386 . S
C264 C266 1.391 . S
C265 C264 1.386 . S
C265 C269 1.393 1_556 S
C266 H255 0.950 . S
C266 C264 1.391 . S
C266 C267 1.400 . S
C267 C261 1.491 . S
C267 C266 1.400 . S
C267 C268 1.398 1_556 S
C268 H256 0.950 . S
C268 C267 1.398 1_554 S
C268 C269 1.391 . S
C269 H257 0.950 . S
C269 C265 1.393 1_554 S
C269 C268 1.391 . S
C99 C1 1.495 1_655 S
C105 C10 1.493 1_455 S
C119 C40 1.499 . S
C125 C31 1.499 . S
C139 C70 1.502 . S
C145 C61 1.502 . S
C159 C27 1.613 1_554 S
C165 C87 1.596 . S
C179 C57 1.131 . S
C185 N6 1.108 . S
C199 N36 0.749 1_554 S
C205 N74 0.786 1_554 S
C219 C16 1.611 . S
C225 C76 1.600 1_556 S
C239 N14 1.117 1_556 S
C245 C46 1.117 . S
C259 N66 0.755 1_556 S
C265 N44 0.760 1_556 S
