# Generated by pormake.
# Topology lcv-a, (4)-cn, num edge types: 1
# Building blocks:
#     Node 0, Type 0, BuildingBlock: NAHDIM_clean_sbu_0, # of connection points: 4
#     Node 1, Type 0, BuildingBlock: NAHDIM_clean_sbu_0, # of connection points: 4
#     Node 2, Type 0, BuildingBlock: NAHDIM_clean_sbu_0, # of connection points: 4
#     Node 3, Type 0, BuildingBlock: NAHDIM_clean_sbu_0, # of connection points: 4
#     Node 4, Type 0, BuildingBlock: NAHDIM_clean_sbu_0, # of connection points: 4
#     Node 5, Type 0, BuildingBlock: NAHDIM_clean_sbu_0, # of connection points: 4
#     Node 6, Type 0, BuildingBlock: NAHDIM_clean_sbu_0, # of connection points: 4
#     Node 7, Type 0, BuildingBlock: NAHDIM_clean_sbu_0, # of connection points: 4
#     Node 8, Type 0, BuildingBlock: NAHDIM_clean_sbu_0, # of connection points: 4
#     Node 9, Type 0, BuildingBlock: NAHDIM_clean_sbu_0, # of connection points: 4
#     Node 10, Type 0, BuildingBlock: NAHDIM_clean_sbu_0, # of connection points: 4
#     Node 11, Type 0, BuildingBlock: NAHDIM_clean_sbu_0, # of connection points: 4
#     Node 12, Type 0, BuildingBlock: NAHDIM_clean_sbu_0, # of connection points: 4
#     Node 13, Type 0, BuildingBlock: NAHDIM_clean_sbu_0, # of connection points: 4
#     Node 14, Type 0, BuildingBlock: NAHDIM_clean_sbu_0, # of connection points: 4
#     Node 15, Type 0, BuildingBlock: NAHDIM_clean_sbu_0, # of connection points: 4
#     Node 16, Type 0, BuildingBlock: NAHDIM_clean_sbu_0, # of connection points: 4
#     Node 17, Type 0, BuildingBlock: NAHDIM_clean_sbu_0, # of connection points: 4
#     Node 18, Type 0, BuildingBlock: NAHDIM_clean_sbu_0, # of connection points: 4
#     Node 19, Type 0, BuildingBlock: NAHDIM_clean_sbu_0, # of connection points: 4
#     Node 20, Type 0, BuildingBlock: NAHDIM_clean_sbu_0, # of connection points: 4
#     Node 21, Type 0, BuildingBlock: NAHDIM_clean_sbu_0, # of connection points: 4
#     Node 22, Type 0, BuildingBlock: NAHDIM_clean_sbu_0, # of connection points: 4
#     Node 23, Type 0, BuildingBlock: NAHDIM_clean_sbu_0, # of connection points: 4
#     Node 24, Type 0, BuildingBlock: NAHDIM_clean_sbu_0, # of connection points: 4
#     Node 25, Type 0, BuildingBlock: NAHDIM_clean_sbu_0, # of connection points: 4
#     Node 26, Type 0, BuildingBlock: NAHDIM_clean_sbu_0, # of connection points: 4
#     Node 27, Type 0, BuildingBlock: NAHDIM_clean_sbu_0, # of connection points: 4
#     Node 28, Type 0, BuildingBlock: NAHDIM_clean_sbu_0, # of connection points: 4
#     Node 29, Type 0, BuildingBlock: NAHDIM_clean_sbu_0, # of connection points: 4
#     Node 30, Type 0, BuildingBlock: NAHDIM_clean_sbu_0, # of connection points: 4
#     Node 31, Type 0, BuildingBlock: NAHDIM_clean_sbu_0, # of connection points: 4
#     Node 32, Type 0, BuildingBlock: NAHDIM_clean_sbu_0, # of connection points: 4
#     Node 33, Type 0, BuildingBlock: NAHDIM_clean_sbu_0, # of connection points: 4
#     Node 34, Type 0, BuildingBlock: NAHDIM_clean_sbu_0, # of connection points: 4
#     Node 35, Type 0, BuildingBlock: NAHDIM_clean_sbu_0, # of connection points: 4
#     Node 36, Type 0, BuildingBlock: NAHDIM_clean_sbu_0, # of connection points: 4
#     Node 37, Type 0, BuildingBlock: NAHDIM_clean_sbu_0, # of connection points: 4
#     Node 38, Type 0, BuildingBlock: NAHDIM_clean_sbu_0, # of connection points: 4
#     Node 39, Type 0, BuildingBlock: NAHDIM_clean_sbu_0, # of connection points: 4
#     Node 40, Type 0, BuildingBlock: NAHDIM_clean_sbu_0, # of connection points: 4
#     Node 41, Type 0, BuildingBlock: NAHDIM_clean_sbu_0, # of connection points: 4
#     Node 42, Type 0, BuildingBlock: NAHDIM_clean_sbu_0, # of connection points: 4
#     Node 43, Type 0, BuildingBlock: NAHDIM_clean_sbu_0, # of connection points: 4
#     Node 44, Type 0, BuildingBlock: NAHDIM_clean_sbu_0, # of connection points: 4
#     Node 45, Type 0, BuildingBlock: NAHDIM_clean_sbu_0, # of connection points: 4
#     Node 46, Type 0, BuildingBlock: NAHDIM_clean_sbu_0, # of connection points: 4
#     Node 47, Type 0, BuildingBlock: NAHDIM_clean_sbu_0, # of connection points: 4
#     Edge 48, Type (0, 0), None
#     Edge 49, Type (0, 0), None
#     Edge 50, Type (0, 0), None
#     Edge 51, Type (0, 0), None
#     Edge 52, Type (0, 0), None
#     Edge 53, Type (0, 0), None
#     Edge 54, Type (0, 0), None
#     Edge 55, Type (0, 0), None
#     Edge 56, Type (0, 0), None
#     Edge 57, Type (0, 0), None
#     Edge 58, Type (0, 0), None
#     Edge 59, Type (0, 0), None
#     Edge 60, Type (0, 0), None
#     Edge 61, Type (0, 0), None
#     Edge 62, Type (0, 0), None
#     Edge 63, Type (0, 0), None
#     Edge 64, Type (0, 0), None
#     Edge 65, Type (0, 0), None
#     Edge 66, Type (0, 0), None
#     Edge 67, Type (0, 0), None
#     Edge 68, Type (0, 0), None
#     Edge 69, Type (0, 0), None
#     Edge 70, Type (0, 0), None
#     Edge 71, Type (0, 0), None
#     Edge 72, Type (0, 0), None
#     Edge 73, Type (0, 0), None
#     Edge 74, Type (0, 0), None
#     Edge 75, Type (0, 0), None
#     Edge 76, Type (0, 0), None
#     Edge 77, Type (0, 0), None
#     Edge 78, Type (0, 0), None
#     Edge 79, Type (0, 0), None
#     Edge 80, Type (0, 0), None
#     Edge 81, Type (0, 0), None
#     Edge 82, Type (0, 0), None
#     Edge 83, Type (0, 0), None
#     Edge 84, Type (0, 0), None
#     Edge 85, Type (0, 0), None
#     Edge 86, Type (0, 0), None
#     Edge 87, Type (0, 0), None
#     Edge 88, Type (0, 0), None
#     Edge 89, Type (0, 0), None
#     Edge 90, Type (0, 0), None
#     Edge 91, Type (0, 0), None
#     Edge 92, Type (0, 0), None
#     Edge 93, Type (0, 0), None
#     Edge 94, Type (0, 0), None
#     Edge 95, Type (0, 0), None
#     Edge 96, Type (0, 0), None
#     Edge 97, Type (0, 0), None
#     Edge 98, Type (0, 0), None
#     Edge 99, Type (0, 0), None
#     Edge 100, Type (0, 0), None
#     Edge 101, Type (0, 0), None
#     Edge 102, Type (0, 0), None
#     Edge 103, Type (0, 0), None
#     Edge 104, Type (0, 0), None
#     Edge 105, Type (0, 0), None
#     Edge 106, Type (0, 0), None
#     Edge 107, Type (0, 0), None
#     Edge 108, Type (0, 0), None
#     Edge 109, Type (0, 0), None
#     Edge 110, Type (0, 0), None
#     Edge 111, Type (0, 0), None
#     Edge 112, Type (0, 0), None
#     Edge 113, Type (0, 0), None
#     Edge 114, Type (0, 0), None
#     Edge 115, Type (0, 0), None
#     Edge 116, Type (0, 0), None
#     Edge 117, Type (0, 0), None
#     Edge 118, Type (0, 0), None
#     Edge 119, Type (0, 0), None
#     Edge 120, Type (0, 0), None
#     Edge 121, Type (0, 0), None
#     Edge 122, Type (0, 0), None
#     Edge 123, Type (0, 0), None
#     Edge 124, Type (0, 0), None
#     Edge 125, Type (0, 0), None
#     Edge 126, Type (0, 0), None
#     Edge 127, Type (0, 0), None
#     Edge 128, Type (0, 0), None
#     Edge 129, Type (0, 0), None
#     Edge 130, Type (0, 0), None
#     Edge 131, Type (0, 0), None
#     Edge 132, Type (0, 0), None
#     Edge 133, Type (0, 0), None
#     Edge 134, Type (0, 0), None
#     Edge 135, Type (0, 0), None
#     Edge 136, Type (0, 0), None
#     Edge 137, Type (0, 0), None
#     Edge 138, Type (0, 0), None
#     Edge 139, Type (0, 0), None
#     Edge 140, Type (0, 0), None
#     Edge 141, Type (0, 0), None
#     Edge 142, Type (0, 0), None
#     Edge 143, Type (0, 0), None
# Relax obj value: 0.743
# Max RMSD: 0.338
# Mean RMSD: 0.309
data_MOF--net-lcv-a--node1-NAHDIM_clean_sbu_0--edge1-none
_symmetry_space_group_name_H-M    P1
_symmetry_Int_Tables_number       1
_symmetry_cell_setting            triclinic
loop_
_symmetry_equiv_pos_as_xyz
'x, y, z'
_cell_length_a     40.626611
_cell_length_b     40.627431
_cell_length_c     40.626271
_cell_angle_alpha  89.191469
_cell_angle_beta   89.193229
_cell_angle_gamma 89.191553
loop_
_atom_site_label
_atom_site_type_symbol
_atom_site_fract_x
_atom_site_fract_y
_atom_site_fract_z
_atom_type_partial_charge
C0 C 0.95201 0.29526 0.31515 0.0
O1 O 0.92546 0.27727 0.31728 0.0
O2 O -0.00073 0.20806 0.27203 0.0
Zn3 Zn 0.97058 0.24865 0.26563 0.0
O4 O 0.924 0.2332 0.26451 0.0
C5 C 0.00901 0.26623 0.20636 0.0
O6 O 0.03464 0.26071 0.22509 0.0
O7 O 0.9759 0.28604 0.2968 0.0
C8 C 0.90491 0.24634 0.24357 0.0
O9 O 0.91362 0.27384 0.22871 0.0
C10 C 0.98549 0.18069 0.27831 0.0
O11 O 0.95546 0.18066 0.29066 0.0
O12 O 0.98027 0.26433 0.2189 0.0
C13 C 0.90093 0.79298 0.40221 0.0
O14 O 0.91867 0.81382 0.41848 0.0
O15 O 0.98674 0.81043 0.3936 0.0
Zn16 Zn 0.96242 0.77622 0.36856 0.0
O17 O 0.97798 0.73367 0.38798 0.0
C18 C -0.00097 0.77056 0.30259 0.0
O19 O -0.00271 0.77117 0.27033 0.0
O20 O 0.91367 0.7774 0.37819 0.0
C21 C 0.98468 0.70749 0.37263 0.0
O22 O 0.98096 0.70644 0.34063 0.0
C23 C 0.99078 0.80475 0.42421 0.0
O24 O 0.97627 0.77938 0.43824 0.0
O25 O 0.97292 0.77687 0.31938 0.0
C26 C 0.56294 0.64698 0.77816 0.0
O27 O 0.57473 0.67545 0.78686 0.0
O28 O 0.49106 0.71507 0.76665 0.0
Zn29 Zn 0.52081 0.68715 0.73787 0.0
O30 O 0.5586 0.71582 0.72483 0.0
C31 C 0.46899 0.68748 0.68765 0.0
O32 O 0.44904 0.69634 0.71175 0.0
O33 O 0.53862 0.64607 0.75887 0.0
C34 C 0.57107 0.71342 0.69615 0.0
O35 O 0.5628 0.68879 0.67755 0.0
C36 C 0.50294 0.73983 0.78094 0.0
O37 O 0.53502 0.74254 0.78277 0.0
O38 O 0.49848 0.67913 0.69416 0.0
C39 C 0.56561 0.37106 0.03012 0.0
O40 O 0.55086 0.39553 0.01454 0.0
O41 O 0.4843 0.33084 -0.00658 0.0
Zn42 Zn 0.5332 0.32714 0.98457 0.0
O43 O 0.54287 0.35134 0.94192 0.0
C44 C 0.52444 0.25626 0.97655 0.0
O45 O 0.49743 0.26025 -0.00573 0.0
O46 O 0.56074 0.34159 0.02166 0.0
C47 C 0.56162 0.33771 0.92062 0.0
O48 O 0.58033 0.31258 0.92937 0.0
C49 C 0.46662 0.35232 0.97864 0.0
O50 O 0.48091 0.37594 0.96157 0.0
O51 O 0.54417 0.28 0.97323 0.0
C52 C 0.05222 0.59287 0.37693 0.0
O53 O 0.06353 0.6096 0.3514 0.0
O54 O 0.10681 0.65809 0.37006 0.0
Zn55 Zn 0.0672 0.6524 0.4004 0.0
O56 O 0.02994 0.67163 0.37459 0.0
C57 C 0.08872 0.70032 0.44919 0.0
O58 O 0.11653 0.70073 0.43234 0.0
O59 O 0.05428 0.60517 0.4054 0.0
C60 C 0.00466 0.68274 0.38944 0.0
O61 O 0.00217 0.67943 0.42156 0.0
C62 C 0.10593 0.68228 0.3498 0.0
O63 O 0.08239 0.70451 0.35253 0.0
O64 O 0.06714 0.67927 0.44224 0.0
C65 C 0.61659 0.78503 0.58112 0.0
O66 O 0.58968 0.77002 0.5726 0.0
O67 O 0.5366 0.79734 0.60237 0.0
Zn68 Zn 0.5746 0.79615 0.63392 0.0
O69 O 0.57514 0.74999 0.65155 0.0
C70 C 0.54314 0.8416 0.68042 0.0
O71 O 0.52235 0.84785 0.65659 0.0
O72 O 0.61683 0.80083 0.60794 0.0
C73 C 0.584 0.74318 0.68071 0.0
O74 O 0.59577 0.76643 0.69913 0.0
C75 C 0.51099 0.78013 0.60705 0.0
O76 O 0.50513 0.7671 0.63625 0.0
O77 O 0.56881 0.82446 0.67434 0.0
C78 C 0.58382 0.33902 0.78415 0.0
O79 O 0.59647 0.31115 0.79521 0.0
O80 O 0.52892 0.27356 0.80585 0.0
Zn81 Zn 0.53034 0.31903 0.8251 0.0
O82 O 0.55594 0.31766 0.86698 0.0
C83 C 0.45763 0.32798 0.83857 0.0
O84 O 0.45246 0.29943 0.82495 0.0
O85 O 0.55492 0.34771 0.79317 0.0
C86 C 0.55382 0.34236 0.88586 0.0
O87 O 0.53708 0.36862 0.87639 0.0
C88 C 0.52452 0.24535 0.81903 0.0
O89 O 0.52791 0.2192 0.80058 0.0
O90 O 0.48646 0.33969 0.83836 0.0
C91 C 0.81293 0.23515 0.14857 0.0
O92 O 0.84055 0.25147 0.1461 0.0
O93 O 0.88464 0.20097 0.1232 0.0
Zn94 Zn 0.86117 0.19388 0.16723 0.0
O95 O 0.87814 0.2286 0.19685 0.0
C96 C 0.89087 0.12813 0.17854 0.0
O97 O 0.89953 0.1299 0.1473 0.0
O98 O 0.81365 0.20551 0.15915 0.0
C99 C 0.88146 0.22513 0.22767 0.0
O100 O 0.87181 0.19788 0.2424 0.0
C101 C 0.91042 0.21833 0.12046 0.0
O102 O 0.92497 0.22842 0.14704 0.0
O103 O 0.87166 0.15016 0.19024 0.0
C104 C 0.31529 0.95188 0.29522 0.0
O105 O 0.31743 0.92533 0.27723 0.0
O106 O 0.27218 -0.00086 0.20801 0.0
Zn107 Zn 0.26578 0.97045 0.2486 0.0
O108 O 0.26466 0.92387 0.23315 0.0
C109 C 0.2065 0.00888 0.26617 0.0
O110 O 0.22523 0.03451 0.26066 0.0
O111 O 0.29694 0.97578 0.286 0.0
C112 C 0.24372 0.90479 0.24628 0.0
O113 O 0.22886 0.91349 0.27378 0.0
C114 C 0.27846 0.98536 0.18064 0.0
O115 O 0.29081 0.95533 0.18061 0.0
O116 O 0.21904 0.98014 0.26427 0.0
C117 C 0.3711 0.03022 0.56541 0.0
O118 O 0.39557 0.01464 0.55066 0.0
O119 O 0.33089 -0.00651 0.48413 0.0
Zn120 Zn 0.32718 0.98465 0.53302 0.0
O121 O 0.35138 0.942 0.54271 0.0
C122 C 0.2563 0.97663 0.52425 0.0
O123 O 0.2603 -0.00565 0.49723 0.0
O124 O 0.34164 0.02175 0.56056 0.0
C125 C 0.33774 0.92071 0.56147 0.0
O126 O 0.31261 0.92948 0.58017 0.0
C127 C 0.35238 0.9787 0.46645 0.0
O128 O 0.37599 0.96164 0.48076 0.0
O129 O 0.28003 0.97332 0.54398 0.0
C130 C 0.25138 0.13714 0.78265 0.0
O131 O 0.23577 0.1365 0.7546 0.0
O132 O 0.30033 0.12685 0.70658 0.0
Zn133 Zn 0.3091 0.10466 0.75076 0.0
O134 O 0.35508 0.11528 0.76298 0.0
C135 C 0.31803 0.03109 0.76324 0.0
O136 O 0.34912 0.03592 0.76981 0.0
O137 O 0.28054 0.12575 0.78485 0.0
C138 C 0.36647 0.11159 0.7917 0.0
O139 O 0.34815 0.0986 0.81525 0.0
C140 C 0.32039 0.12705 0.6822 0.0
O141 O 0.31314 0.14454 0.65579 0.0
O142 O 0.29967 0.05516 0.75392 0.0
C143 C 0.23322 0.05482 0.02819 0.0
O144 O 0.22624 0.04128 3e-05 0.0
O145 O 0.24482 0.08291 0.94768 0.0
Zn146 Zn 0.23792 0.1121 0.9872 0.0
O147 O 0.19353 0.13207 0.98249 0.0
C148 C 0.26512 0.17038 0.0127 0.0
O149 O 0.2534 0.15787 0.04036 0.0
O150 O 0.2398 0.08528 0.02906 0.0
C151 C 0.17496 0.14548 0.0039 0.0
O152 O 0.18171 0.14294 0.03534 0.0
C153 C 0.23293 0.08834 0.91925 0.0
O154 O 0.23571 0.06542 0.89688 0.0
O155 O 0.26611 0.15263 0.98714 0.0
C156 C 0.23056 0.03555 0.05873 0.0
O157 O 0.23352 0.05005 0.08718 0.0
O158 O 0.25367 0.97644 0.12949 0.0
Zn159 Zn 0.21342 0.98216 0.10082 0.0
O160 O 0.1803 0.0089 0.12699 0.0
C161 C 0.20176 0.91177 0.10921 0.0
O162 O 0.23309 0.91034 0.11676 0.0
O163 O 0.22278 0.0054 0.05795 0.0
C164 C 0.17027 -0.00813 0.15145 0.0
O165 O 0.18366 0.96282 0.15712 0.0
C166 C 0.26058 -0.00287 0.15154 0.0
O167 O 0.24397 0.02504 0.15302 0.0
O168 O 0.19038 0.93802 0.09589 0.0
C169 C 0.32558 0.9503 0.32957 0.0
O170 O 0.31867 0.97521 0.34884 0.0
O171 O 0.35524 0.94508 0.41984 0.0
Zn172 Zn 0.32559 0.91829 0.39119 0.0
O173 O 0.27984 0.93477 0.40107 0.0
C174 C 0.34152 0.86251 0.43351 0.0
O175 O 0.36562 0.88142 0.44256 0.0
O176 O 0.3329 0.92251 0.34242 0.0
C177 C 0.25597 0.91497 0.4018 0.0
O178 O 0.26045 0.88488 0.39108 0.0
C179 C 0.34409 0.97163 0.4323 0.0
O180 O 0.31767 0.98566 0.41984 0.0
O181 O 0.3244 0.87115 0.40883 0.0
C182 C 0.37704 0.05216 0.5928 0.0
O183 O 0.35151 0.06347 0.60954 0.0
O184 O 0.37018 0.10675 0.65801 0.0
Zn185 Zn 0.40054 0.06716 0.65232 0.0
O186 O 0.37475 0.02989 0.67156 0.0
C187 C 0.44933 0.0887 0.70021 0.0
O188 O 0.43246 0.11651 0.70063 0.0
O189 O 0.40552 0.05423 0.60508 0.0
C190 C 0.38961 0.00462 0.68268 0.0
O191 O 0.42174 0.00215 0.67935 0.0
C192 C 0.34993 0.10587 0.6822 0.0
O193 O 0.35268 0.08233 0.70444 0.0
O194 O 0.44239 0.06713 0.67916 0.0
C195 C 0.23524 0.14863 0.81276 0.0
O196 O 0.25156 0.14615 0.84038 0.0
O197 O 0.20106 0.12325 0.88447 0.0
Zn198 Zn 0.19398 0.16729 0.861 0.0
O199 O 0.22871 0.19689 0.87799 0.0
C200 C 0.12823 0.1786 0.89071 0.0
O201 O 0.13 0.14735 0.89937 0.0
O202 O 0.2056 0.15921 0.81348 0.0
C203 C 0.22525 0.22771 0.88131 0.0
O204 O 0.198 0.24244 0.87165 0.0
C205 C 0.21843 0.1205 0.91025 0.0
O206 O 0.22854 0.14707 0.92479 0.0
O207 O 0.15026 0.1903 0.87151 0.0
C208 C 0.29539 0.31518 0.95186 0.0
O209 O 0.27739 0.31733 0.92531 0.0
O210 O 0.2082 0.27204 -0.00089 0.0
Zn211 Zn 0.24879 0.26565 0.97042 0.0
O212 O 0.23333 0.26454 0.92384 0.0
C213 C 0.26637 0.20638 0.00884 0.0
O214 O 0.26085 0.22509 0.03447 0.0
O215 O 0.28618 0.29682 0.97575 0.0
C216 C 0.24647 0.24362 0.90475 0.0
O217 O 0.27397 0.22873 0.91344 0.0
C218 C 0.18082 0.27833 0.98533 0.0
O219 O 0.18079 0.29069 0.95531 0.0
O220 O 0.26447 0.21892 0.9801 0.0
C221 C 0.78282 0.25129 0.13707 0.0
O222 O 0.75477 0.23568 0.13641 0.0
O223 O 0.70676 0.30025 0.12676 0.0
Zn224 Zn 0.75094 0.30901 0.10458 0.0
O225 O 0.76318 0.35499 0.11519 0.0
C226 C 0.76343 0.31793 0.031 0.0
O227 O 0.77 0.34901 0.03583 0.0
O228 O 0.78503 0.28045 0.12567 0.0
C229 C 0.7919 0.36637 0.1115 0.0
O230 O 0.81544 0.34804 0.09851 0.0
C231 C 0.68239 0.32032 0.12696 0.0
O232 O 0.65598 0.31308 0.14445 0.0
O233 O 0.75411 0.29958 0.05508 0.0
C234 C 0.03028 0.56547 0.37101 0.0
O235 O 0.01469 0.55074 0.39548 0.0
O236 O -0.00642 0.48417 0.33078 0.0
Zn237 Zn 0.98474 0.53306 0.32707 0.0
O238 O 0.94209 0.54274 0.35127 0.0
C239 C 0.97673 0.5243 0.25619 0.0
O240 O -0.00555 0.49729 0.26019 0.0
O241 O 0.02183 0.5606 0.34153 0.0
C242 C 0.92079 0.56149 0.33762 0.0
O243 O 0.92955 0.5802 0.31249 0.0
C244 C 0.97879 0.46649 0.35226 0.0
O245 O 0.96173 0.48079 0.37587 0.0
O246 O 0.97341 0.54403 0.27992 0.0
C247 C 0.64703 0.77821 0.56273 0.0
O248 O 0.6755 0.78692 0.5745 0.0
O249 O 0.71511 0.76669 0.49083 0.0
Zn250 Zn 0.6872 0.73792 0.5206 0.0
O251 O 0.71588 0.7249 0.55839 0.0
C252 C 0.68754 0.68767 0.4688 0.0
O253 O 0.69639 0.71177 0.44884 0.0
O254 O 0.64611 0.75891 0.53841 0.0
C255 C 0.7135 0.69623 0.57087 0.0
O256 O 0.68887 0.67761 0.56262 0.0
C257 C 0.73987 0.78099 0.5027 0.0
O258 O 0.74258 0.78284 0.53478 0.0
O259 O 0.67918 0.69419 0.49829 0.0
C260 C 0.14874 0.8128 0.23508 0.0
O261 O 0.14626 0.84041 0.2514 0.0
O262 O 0.12335 0.88451 0.2009 0.0
Zn263 Zn 0.16739 0.86104 0.19381 0.0
O264 O 0.197 0.87802 0.22854 0.0
C265 C 0.17869 0.89073 0.12806 0.0
O266 O 0.14744 0.89939 0.1298 0.0
O267 O 0.15931 0.81352 0.20544 0.0
C268 C 0.22782 0.88133 0.22507 0.0
O269 O 0.24256 0.87168 0.19782 0.0
C270 C 0.12061 0.91029 0.21826 0.0
O271 O 0.14719 0.92484 0.22834 0.0
O272 O 0.1904 0.87154 0.15009 0.0
C273 C 0.13231 0.88141 0.49908 0.0
O274 O 0.1466 0.87024 0.52586 0.0
O275 O 0.21205 0.86555 0.51254 0.0
Zn276 Zn 0.19633 0.90504 0.48583 0.0
O277 O 0.21761 0.89818 0.44171 0.0
C278 C 0.23027 0.95195 0.52583 0.0
O279 O 0.23287 0.92723 0.54686 0.0
O280 O 0.14765 0.90129 0.48017 0.0
C281 C 0.22874 0.92193 0.4245 0.0
O282 O 0.22312 0.95231 0.43388 0.0
C283 C 0.24113 0.85364 0.5138 0.0
O284 O 0.26571 0.86982 0.5003 0.0
O285 O 0.21217 0.94903 0.50092 0.0
C286 C 0.95042 0.32961 0.32544 0.0
O287 O 0.97533 0.34888 0.31853 0.0
O288 O 0.94518 0.41987 0.35511 0.0
Zn289 Zn 0.9184 0.39122 0.32546 0.0
O290 O 0.93488 0.40112 0.27971 0.0
C291 C 0.86261 0.43352 0.34138 0.0
O292 O 0.88151 0.44258 0.36549 0.0
O293 O 0.92262 0.34246 0.33276 0.0
C294 C 0.91509 0.40184 0.25584 0.0
O295 O 0.885 0.39111 0.26031 0.0
C296 C 0.97173 0.43234 0.34396 0.0
O297 O 0.98576 0.41989 0.31754 0.0
O298 O 0.87125 0.40886 0.32425 0.0
C299 C 0.58133 0.61654 0.78499 0.0
O300 O 0.5728 0.58962 0.76998 0.0
O301 O 0.60256 0.53654 0.7973 0.0
Zn302 Zn 0.63412 0.57453 0.79611 0.0
O303 O 0.65174 0.57507 0.74994 0.0
C304 C 0.68061 0.54305 0.84155 0.0
O305 O 0.65678 0.52227 0.8478 0.0
O306 O 0.60816 0.61677 0.80079 0.0
C307 C 0.6809 0.58392 0.74313 0.0
O308 O 0.69933 0.59568 0.76637 0.0
C309 C 0.60722 0.51094 0.78009 0.0
O310 O 0.63642 0.50507 0.76705 0.0
O311 O 0.67454 0.56873 0.82441 0.0
C312 C 0.41727 0.87042 0.78063 0.0
O313 O 0.40028 0.85164 0.76131 0.0
O314 O 0.49612 0.79728 0.77912 0.0
Zn315 Zn 0.47178 0.83306 0.75412 0.0
O316 O 0.44029 0.80922 0.72562 0.0
C317 C 0.53142 0.84339 0.71482 0.0
O318 O 0.54548 0.82423 0.73697 0.0
O319 O 0.44827 0.86624 0.78254 0.0
C320 C 0.43684 0.8172 0.69552 0.0
O321 O 0.44988 0.8444 0.68385 0.0
C322 C 0.48233 0.7696 0.78347 0.0
O323 O 0.45053 0.76736 0.77874 0.0
O324 O 0.50246 0.85436 0.72035 0.0
C325 C 0.32974 0.32548 0.95027 0.0
O326 O 0.34901 0.31856 0.97517 0.0
O327 O 0.41999 0.35517 0.94503 0.0
Zn328 Zn 0.39134 0.32552 0.91825 0.0
O329 O 0.40125 0.27977 0.93471 0.0
C330 C 0.43363 0.34148 0.86245 0.0
O331 O 0.44268 0.3656 0.88134 0.0
O332 O 0.34258 0.33282 0.92248 0.0
C333 C 0.40198 0.25591 0.91492 0.0
O334 O 0.39125 0.26039 0.88483 0.0
C335 C 0.43246 0.34402 0.97157 0.0
O336 O 0.42002 0.3176 0.9856 0.0
O337 O 0.40897 0.32434 0.87109 0.0
C338 C 0.03568 0.05879 0.23039 0.0
O339 O 0.05017 0.08724 0.23335 0.0
O340 O 0.97656 0.12955 0.25351 0.0
Zn341 Zn 0.98228 0.10088 0.21326 0.0
O342 O 0.00902 0.12706 0.18015 0.0
C343 C 0.91189 0.10927 0.20162 0.0
O344 O 0.91044 0.11681 0.23294 0.0
O345 O 0.00552 0.05801 0.22262 0.0
C346 C -0.008 0.15152 0.17012 0.0
O347 O 0.96295 0.15719 0.18351 0.0
C348 C -0.00275 0.15159 0.26043 0.0
O349 O 0.02516 0.15308 0.24382 0.0
O350 O 0.93814 0.09596 0.19022 0.0
C351 C 0.10566 0.86256 0.48516 0.0
O352 O 0.09213 0.87277 0.45762 0.0
O353 O 0.03208 0.80317 0.46366 0.0
Zn354 Zn 0.08136 0.80159 0.46356 0.0
O355 O 0.09389 0.81325 0.41679 0.0
C356 C 0.07798 0.73001 0.46704 0.0
O357 O 0.04629 0.73541 0.47147 0.0
O358 O 0.10245 0.83273 0.49431 0.0
C359 C 0.11524 0.79599 0.40159 0.0
O360 O 0.13376 0.775 0.41806 0.0
C361 C 0.01834 0.81975 0.44076 0.0
O362 O 0.03497 0.84273 0.42508 0.0
O363 O 0.09756 0.75406 0.46848 0.0
C364 C 0.49928 0.13228 0.8813 0.0
O365 O 0.52605 0.14658 0.87013 0.0
O366 O 0.51272 0.21201 0.86546 0.0
Zn367 Zn 0.48602 0.19628 0.90496 0.0
O368 O 0.4419 0.21755 0.89811 0.0
C369 C 0.52603 0.23022 0.95186 0.0
O370 O 0.54705 0.23283 0.92714 0.0
O371 O 0.48038 0.14761 0.9012 0.0
C372 C 0.42469 0.22868 0.92187 0.0
O373 O 0.43408 0.22306 0.95225 0.0
C374 C 0.51395 0.2411 0.85356 0.0
O375 O 0.50046 0.26568 0.86974 0.0
O376 O 0.50112 0.21212 0.94895 0.0
C377 C 0.02837 0.2331 0.0548 0.0
O378 O 0.00021 0.22611 0.04126 0.0
O379 O 0.94787 0.24472 0.08288 0.0
Zn380 Zn 0.98738 0.2378 0.11207 0.0
O381 O 0.98267 0.1934 0.13202 0.0
C382 C 0.01289 0.26499 0.17037 0.0
O383 O 0.04056 0.25328 0.15787 0.0
O384 O 0.02925 0.23969 0.08526 0.0
C385 C 0.00407 0.17484 0.14544 0.0
O386 O 0.03551 0.18161 0.14295 0.0
C387 C 0.91943 0.23284 0.0883 0.0
O388 O 0.89707 0.23563 0.06537 0.0
O389 O 0.98733 0.26597 0.15261 0.0
C390 C 0.13723 0.78269 0.25122 0.0
O391 O 0.13658 0.75464 0.2356 0.0
O392 O 0.12694 0.70664 0.3002 0.0
Zn393 Zn 0.10474 0.75081 0.30894 0.0
O394 O 0.11534 0.76306 0.35492 0.0
C395 C 0.03116 0.7633 0.31784 0.0
O396 O 0.03599 0.76987 0.34893 0.0
O397 O 0.12584 0.78489 0.28038 0.0
C398 C 0.11164 0.79178 0.3663 0.0
O399 O 0.09864 0.81531 0.34797 0.0
C400 C 0.12712 0.68226 0.32026 0.0
O401 O 0.14462 0.65585 0.31304 0.0
O402 O 0.05525 0.75398 0.29949 0.0
C403 C 0.36302 0.76731 0.60471 0.0
O404 O 0.35963 0.76837 0.63684 0.0
O405 O 0.46697 0.75297 0.58 0.0
Zn406 Zn 0.43239 0.75244 0.61612 0.0
O407 O 0.43698 0.79269 0.64342 0.0
C408 C 0.46121 0.69759 0.65363 0.0
O409 O 0.48515 0.69907 0.63163 0.0
O410 O 0.39019 0.75809 0.59192 0.0
C411 C 0.42605 0.79225 0.67287 0.0
O412 O 0.41106 0.76606 0.68449 0.0
C413 C 0.49479 0.76691 0.57808 0.0
O414 O 0.51071 0.76699 0.54972 0.0
O415 O 0.43485 0.71403 0.64869 0.0
C416 C 0.78081 0.41716 0.87032 0.0
O417 O 0.76146 0.40017 0.85155 0.0
O418 O 0.77928 0.49601 0.79718 0.0
Zn419 Zn 0.75429 0.47167 0.83297 0.0
O420 O 0.72577 0.44019 0.80913 0.0
C421 C 0.71501 0.53131 0.84333 0.0
O422 O 0.73716 0.54538 0.82417 0.0
O423 O 0.78271 0.44815 0.86614 0.0
C424 C 0.69568 0.43674 0.81713 0.0
O425 O 0.68402 0.44979 0.84432 0.0
C426 C 0.7836 0.48223 0.76949 0.0
O427 O 0.77886 0.45044 0.76726 0.0
O428 O 0.72053 0.50235 0.85428 0.0
C429 C 0.86267 0.48523 0.10554 0.0
O430 O 0.87287 0.45769 0.09201 0.0
O431 O 0.80327 0.46374 0.03196 0.0
Zn432 Zn 0.8017 0.46363 0.08124 0.0
O433 O 0.81337 0.41686 0.09378 0.0
C434 C 0.73012 0.46709 0.07787 0.0
O435 O 0.73554 0.47152 0.04619 0.0
O436 O 0.83284 0.49438 0.10234 0.0
C437 C 0.79612 0.40166 0.11513 0.0
O438 O 0.7751 0.41811 0.13364 0.0
C439 C 0.81985 0.44083 0.01822 0.0
O440 O 0.84283 0.42516 0.03485 0.0
O441 O 0.75418 0.46855 0.09745 0.0
C442 C 0.78432 0.58371 0.3389 0.0
O443 O 0.79538 0.59636 0.31103 0.0
O444 O 0.80604 0.52881 0.27344 0.0
Zn445 Zn 0.82527 0.53023 0.31892 0.0
O446 O 0.86716 0.55582 0.31757 0.0
C447 C 0.83872 0.45752 0.32788 0.0
O448 O 0.82511 0.45234 0.29932 0.0
O449 O 0.79334 0.55481 0.34759 0.0
C450 C 0.88603 0.5537 0.34226 0.0
O451 O 0.87655 0.53697 0.36852 0.0
C452 C 0.81923 0.5244 0.24524 0.0
O453 O 0.80078 0.5278 0.21908 0.0
O454 O 0.83852 0.48636 0.33958 0.0
C455 C 0.78513 0.58124 0.61643 0.0
O456 O 0.77012 0.57271 0.58952 0.0
O457 O 0.79744 0.60246 0.53643 0.0
Zn458 Zn 0.79625 0.63403 0.57442 0.0
O459 O 0.75008 0.65163 0.57496 0.0
C460 C 0.84168 0.68052 0.54293 0.0
O461 O 0.84793 0.65669 0.52215 0.0
O462 O 0.80094 0.60806 0.61666 0.0
C463 C 0.74326 0.6808 0.58381 0.0
O464 O 0.7665 0.69923 0.59556 0.0
C465 C 0.78023 0.60712 0.51082 0.0
O466 O 0.76719 0.63632 0.50495 0.0
O467 O 0.82454 0.67445 0.56861 0.0
C468 C 0.77831 0.56286 0.64688 0.0
O469 O 0.78703 0.57464 0.67534 0.0
O470 O 0.7668 0.49098 0.71497 0.0
Zn471 Zn 0.73803 0.52074 0.68706 0.0
O472 O 0.725 0.55853 0.71574 0.0
C473 C 0.68778 0.46894 0.6874 0.0
O474 O 0.71188 0.44898 0.69625 0.0
O475 O 0.75901 0.53854 0.64597 0.0
C476 C 0.69633 0.57101 0.71335 0.0
O477 O 0.6777 0.56276 0.68873 0.0
C478 C 0.78111 0.50285 0.73973 0.0
O479 O 0.78295 0.53493 0.74245 0.0
O480 O 0.6943 0.49843 0.67905 0.0
C481 C 0.79311 0.40233 0.90078 0.0
O482 O 0.81394 0.41861 0.91852 0.0
O483 O 0.81055 0.3937 0.98659 0.0
Zn484 Zn 0.77635 0.36867 0.96226 0.0
O485 O 0.73379 0.38808 0.97783 0.0
C486 C 0.7707 0.30269 -0.00114 0.0
O487 O 0.7713 0.27043 -0.00289 0.0
O488 O 0.77752 0.37831 0.91352 0.0
C489 C 0.70762 0.37272 0.98453 0.0
O490 O 0.70656 0.34072 0.9808 0.0
C491 C 0.80487 0.4243 0.99064 0.0
O492 O 0.77951 0.43835 0.97613 0.0
O493 O 0.777 0.31949 0.97275 0.0
C494 C 0.88154 0.49916 0.13219 0.0
O495 O 0.87036 0.52594 0.14647 0.0
O496 O 0.86566 0.51258 0.21191 0.0
Zn497 Zn 0.90516 0.48588 0.1962 0.0
O498 O 0.8983 0.44176 0.21746 0.0
C499 C 0.95206 0.52588 0.23015 0.0
O500 O 0.92733 0.54691 0.23275 0.0
O501 O 0.90141 0.48024 0.14752 0.0
C502 C 0.92206 0.42454 0.2286 0.0
O503 O 0.95243 0.43393 0.223 0.0
C504 C 0.85375 0.51383 0.241 0.0
O505 O 0.86992 0.50033 0.26558 0.0
O506 O 0.94915 0.50098 0.21205 0.0
C507 C 0.76737 0.60472 0.36285 0.0
O508 O 0.76843 0.63685 0.35945 0.0
O509 O 0.75307 0.58005 0.46682 0.0
Zn510 Zn 0.75252 0.61615 0.43222 0.0
O511 O 0.79276 0.64346 0.43679 0.0
C512 C 0.69766 0.65365 0.46103 0.0
O513 O 0.69915 0.63167 0.48499 0.0
O514 O 0.75816 0.59194 0.39002 0.0
C515 C 0.79232 0.67292 0.42585 0.0
O516 O 0.76611 0.68451 0.41085 0.0
C517 C 0.76701 0.57814 0.49463 0.0
O518 O 0.76711 0.54979 0.51056 0.0
O519 O 0.7141 0.64871 0.43467 0.0
C520 C 0.87046 0.7807 0.41703 0.0
O521 O 0.8517 0.76135 0.40003 0.0
O522 O 0.79731 0.77918 0.49587 0.0
Zn523 Zn 0.83311 0.75419 0.47154 0.0
O524 O 0.80927 0.72567 0.44006 0.0
C525 C 0.84346 0.71491 0.53119 0.0
O526 O 0.82429 0.73706 0.54524 0.0
O527 O 0.86628 0.78261 0.44802 0.0
C528 C 0.81727 0.69558 0.43661 0.0
O529 O 0.84447 0.68391 0.44966 0.0
C530 C 0.76963 0.78351 0.48208 0.0
O531 O 0.76738 0.77877 0.45029 0.0
O532 O 0.85441 0.72044 0.50223 0.0
C533 C 0.33906 0.78424 0.58371 0.0
O534 O 0.31119 0.79531 0.59638 0.0
O535 O 0.27358 0.80594 0.52881 0.0
Zn536 Zn 0.31905 0.82519 0.53022 0.0
O537 O 0.31769 0.86708 0.55581 0.0
C538 C 0.32802 0.83863 0.45751 0.0
O539 O 0.29947 0.82501 0.45232 0.0
O540 O 0.34774 0.79326 0.5548 0.0
C541 C 0.34239 0.88595 0.55369 0.0
O542 O 0.36865 0.87647 0.53695 0.0
C543 C 0.24538 0.81913 0.52439 0.0
O544 O 0.21922 0.80068 0.52779 0.0
O545 O 0.33971 0.83844 0.48634 0.0
C546 C 0.48536 0.10563 0.86245 0.0
O547 O 0.45783 0.09209 0.87267 0.0
O548 O 0.46385 0.03207 0.80304 0.0
Zn549 Zn 0.46374 0.08135 0.80147 0.0
O550 O 0.41697 0.09388 0.81316 0.0
C551 C 0.4672 0.07798 0.72989 0.0
O552 O 0.47166 0.04629 0.73529 0.0
O553 O 0.49449 0.10244 0.83261 0.0
C554 C 0.40176 0.11522 0.79591 0.0
O555 O 0.4182 0.13374 0.77489 0.0
C556 C 0.44094 0.01833 0.81962 0.0
O557 O 0.42528 0.03495 0.84261 0.0
O558 O 0.46864 0.09756 0.75395 0.0
C559 C 0.05891 0.23044 0.03553 0.0
O560 O 0.08737 0.23341 0.05003 0.0
O561 O 0.12967 0.25355 0.97642 0.0
Zn562 Zn 0.101 0.2133 0.98213 0.0
O563 O 0.12718 0.18018 0.00887 0.0
C564 C 0.10937 0.20167 0.91174 0.0
O565 O 0.11692 0.23299 0.91029 0.0
O566 O 0.05813 0.22266 0.00538 0.0
C567 C 0.15164 0.17016 -0.00816 0.0
O568 O 0.1573 0.18357 0.96279 0.0
C569 C 0.15172 0.26046 -0.0029 0.0
O570 O 0.15321 0.24384 0.02501 0.0
O571 O 0.09607 0.19028 0.93799 0.0
C572 C 0.60483 0.36297 0.76721 0.0
O573 O 0.63696 0.35957 0.76827 0.0
O574 O 0.58015 0.46694 0.75292 0.0
Zn575 Zn 0.61625 0.43234 0.75237 0.0
O576 O 0.64356 0.43691 0.79262 0.0
C577 C 0.65376 0.46117 0.69752 0.0
O578 O 0.63177 0.48512 0.69901 0.0
O579 O 0.59205 0.39015 0.75801 0.0
C580 C 0.67302 0.42597 0.79217 0.0
O581 O 0.68462 0.41098 0.76597 0.0
C582 C 0.57824 0.49475 0.76687 0.0
O583 O 0.54989 0.51068 0.76697 0.0
O584 O 0.64882 0.43481 0.71395 0.0
C585 C 0.593 0.37699 0.05207 0.0
O586 O 0.60973 0.35145 0.06337 0.0
O587 O 0.65821 0.37012 0.10666 0.0
Zn588 Zn 0.65252 0.40047 0.06706 0.0
O589 O 0.67176 0.37467 0.02979 0.0
C590 C 0.70042 0.44926 0.08861 0.0
O591 O 0.70083 0.43241 0.11643 0.0
O592 O 0.60529 0.40546 0.05413 0.0
C593 C 0.68287 0.38953 0.00452 0.0
O594 O 0.67956 0.42165 0.00204 0.0
C595 C 0.6824 0.34985 0.10577 0.0
O596 O 0.70463 0.3526 0.08223 0.0
O597 O 0.67938 0.44231 0.06702 0.0
C598 C 0.40244 0.90088 0.79293 0.0
O599 O 0.41873 0.91863 0.81375 0.0
O600 O 0.39381 0.98669 0.81034 0.0
Zn601 Zn 0.36878 0.96235 0.77615 0.0
O602 O 0.38818 0.97791 0.73359 0.0
C603 C 0.30279 -0.00105 0.77051 0.0
O604 O 0.27054 -0.0028 0.77112 0.0
O605 O 0.37842 0.91361 0.77734 0.0
C606 C 0.37281 0.98461 0.70742 0.0
O607 O 0.34081 0.9809 0.70637 0.0
C608 C 0.42442 0.99074 0.80465 0.0
O609 O 0.43846 0.97623 0.77929 0.0
O610 O 0.31959 0.97284 0.77681 0.0
C611 C 0.05494 0.02824 0.23305 0.0
O612 O 0.04139 9e-05 0.22607 0.0
O613 O 0.08303 0.94774 0.24464 0.0
Zn614 Zn 0.11222 0.98725 0.23773 0.0
O615 O 0.13217 0.98254 0.19333 0.0
C616 C 0.17051 0.01275 0.26493 0.0
O617 O 0.15801 0.04043 0.25322 0.0
O618 O 0.08541 0.02912 0.23962 0.0
C619 C 0.14559 0.00395 0.17477 0.0
O620 O 0.1431 0.03538 0.18155 0.0
C621 C 0.08845 0.9193 0.23276 0.0
O622 O 0.06552 0.89694 0.23555 0.0
O623 O 0.15276 0.98719 0.26591 0.0
loop_
_geom_bond_atom_site_label_1
_geom_bond_atom_site_label_2
_geom_bond_distance
_geom_bond_site_symmetry_2
_ccdc_geom_bond_type
C0 O1 1.160 1_455 S
C0 O7 1.185 . S
O1 C0 1.160 1_655 S
O2 Zn3 1.899 . S
O2 C10 1.284 . S
Zn3 O2 1.899 . S
Zn3 O4 2.032 1_455 S
Zn3 O7 2.086 . S
Zn3 O12 1.977 . S
O4 Zn3 2.032 1_655 S
O4 C8 1.278 . S
C5 O6 1.203 . S
C5 O12 1.267 . S
O6 C5 1.203 . S
O7 C0 1.185 . S
O7 Zn3 2.086 . S
C8 O4 1.278 . S
C8 O9 1.211 . S
O9 C8 1.211 . S
C10 O2 1.284 . S
C10 O11 1.283 . S
O11 C10 1.283 . S
O12 Zn3 1.977 . S
O12 C5 1.267 . S
C13 O14 1.160 . S
C13 O20 1.185 . S
O14 C13 1.160 . S
O15 Zn16 1.899 . S
O15 C23 1.284 1_655 S
Zn16 O15 1.899 . S
Zn16 O17 2.032 . S
Zn16 O20 2.086 . S
Zn16 O25 1.977 . S
O17 Zn16 2.032 . S
O17 C21 1.278 . S
C18 O19 1.203 1_655 S
C18 O25 1.267 . S
O19 C18 1.203 1_455 S
O20 C13 1.185 . S
O20 Zn16 2.086 . S
C21 O17 1.278 . S
C21 O22 1.211 1_655 S
O22 C21 1.211 1_455 S
C23 O15 1.284 1_455 S
C23 O24 1.273 . S
O24 C23 1.273 . S
O25 Zn16 1.977 . S
O25 C18 1.267 . S
C26 O27 1.160 . S
C26 O33 1.185 . S
O27 C26 1.160 . S
O28 Zn29 1.899 . S
O28 C36 1.284 . S
Zn29 O28 1.899 . S
Zn29 O30 2.032 . S
Zn29 O33 2.086 . S
Zn29 O38 1.977 . S
O30 Zn29 2.032 . S
O30 C34 1.278 . S
C31 O32 1.203 . S
C31 O38 1.267 . S
O32 C31 1.203 . S
O33 C26 1.185 . S
O33 Zn29 2.086 . S
C34 O30 1.278 . S
C34 O35 1.211 . S
O35 C34 1.211 . S
C36 O28 1.284 . S
C36 O37 1.273 . S
O37 C36 1.273 . S
O38 Zn29 1.977 . S
O38 C31 1.267 . S
C39 O40 1.160 . S
C39 O46 1.185 . S
O40 C39 1.160 . S
O41 Zn42 1.899 . S
O41 C49 1.284 . S
Zn42 O41 1.899 . S
Zn42 O43 2.032 1_554 S
Zn42 O46 2.086 . S
Zn42 O51 1.977 . S
O43 Zn42 2.032 1_556 S
O43 C47 1.278 . S
C44 O45 1.199 1_554 S
C44 O51 1.270 . S
O45 C44 1.199 1_556 S
O46 C39 1.185 . S
O46 Zn42 2.086 . S
C47 O43 1.278 . S
C47 O48 1.211 . S
O48 C47 1.211 . S
C49 O41 1.284 . S
C49 O50 1.273 1_554 S
O50 C49 1.273 1_556 S
O51 Zn42 1.977 . S
O51 C44 1.270 . S
C52 O53 1.160 . S
C52 O59 1.185 . S
O53 C52 1.160 . S
O54 Zn55 1.899 . S
O54 C62 1.284 . S
Zn55 O54 1.899 . S
Zn55 O56 2.032 . S
Zn55 O59 2.086 . S
Zn55 O64 1.977 . S
O56 Zn55 2.032 . S
O56 C60 1.278 1_455 S
C57 O58 1.203 . S
C57 O64 1.267 . S
O58 C57 1.203 . S
O59 C52 1.185 . S
O59 Zn55 2.086 . S
C60 O56 1.278 1_655 S
C60 O61 1.211 1_655 S
O61 C60 1.211 1_455 S
C62 O54 1.284 . S
C62 O63 1.273 . S
O63 C62 1.273 . S
O64 Zn55 1.977 . S
O64 C57 1.267 . S
C65 O66 1.160 . S
C65 O72 1.185 . S
O66 C65 1.160 . S
O67 Zn68 1.899 . S
O67 C75 1.284 . S
Zn68 O67 1.899 . S
Zn68 O69 2.032 . S
Zn68 O72 2.086 . S
Zn68 O77 1.977 . S
O69 Zn68 2.032 . S
O69 C73 1.278 . S
C70 O71 1.203 . S
C70 O77 1.267 . S
O71 C70 1.203 . S
O72 C65 1.185 . S
O72 Zn68 2.086 . S
C73 O69 1.278 . S
C73 O74 1.211 . S
O74 C73 1.211 . S
C75 O67 1.284 . S
C75 O76 1.273 . S
O76 C75 1.273 . S
O77 Zn68 1.977 . S
O77 C70 1.267 . S
C78 O79 1.160 . S
C78 O85 1.185 . S
O79 C78 1.160 . S
O80 Zn81 1.899 . S
O80 C88 1.284 . S
Zn81 O80 1.899 . S
Zn81 O82 2.032 . S
Zn81 O85 2.086 . S
Zn81 O90 1.977 . S
O82 Zn81 2.032 . S
O82 C86 1.278 . S
C83 O84 1.203 . S
C83 O90 1.267 . S
O84 C83 1.203 . S
O85 C78 1.185 . S
O85 Zn81 2.086 . S
C86 O82 1.278 . S
C86 O87 1.211 . S
O87 C86 1.211 . S
C88 O80 1.284 . S
C88 O89 1.273 . S
O89 C88 1.273 . S
O90 Zn81 1.977 . S
O90 C83 1.267 . S
C91 O92 1.160 . S
C91 O98 1.185 . S
O92 C91 1.160 . S
O93 Zn94 1.899 . S
O93 C101 1.284 . S
Zn94 O93 1.899 . S
Zn94 O95 2.032 . S
Zn94 O98 2.086 . S
Zn94 O103 1.977 . S
O95 Zn94 2.032 . S
O95 C99 1.278 . S
C96 O97 1.203 . S
C96 O103 1.267 . S
O97 C96 1.203 . S
O98 C91 1.185 . S
O98 Zn94 2.086 . S
C99 O95 1.278 . S
C99 O100 1.211 . S
O100 C99 1.211 . S
C101 O93 1.284 . S
C101 O102 1.273 . S
O102 C101 1.273 . S
O103 Zn94 1.977 . S
O103 C96 1.267 . S
C104 O105 1.160 1_545 S
C104 O111 1.185 . S
O105 C104 1.160 1_565 S
O106 Zn107 1.899 . S
O106 C114 1.284 . S
Zn107 O106 1.899 . S
Zn107 O108 2.032 1_545 S
Zn107 O111 2.086 . S
Zn107 O116 1.977 . S
O108 Zn107 2.032 1_565 S
O108 C112 1.278 . S
C109 O110 1.203 . S
C109 O116 1.267 . S
O110 C109 1.203 . S
O111 C104 1.185 . S
O111 Zn107 2.086 . S
C112 O108 1.278 . S
C112 O113 1.211 . S
O113 C112 1.211 . S
C114 O106 1.284 . S
C114 O115 1.283 . S
O115 C114 1.283 . S
O116 Zn107 1.977 . S
O116 C109 1.267 . S
C117 O118 1.160 . S
C117 O124 1.185 . S
O118 C117 1.160 . S
O119 Zn120 1.899 . S
O119 C127 1.284 . S
Zn120 O119 1.899 . S
Zn120 O121 2.032 1_545 S
Zn120 O124 2.086 . S
Zn120 O129 1.977 . S
O121 Zn120 2.032 1_565 S
O121 C125 1.278 . S
C122 O123 1.199 1_545 S
C122 O129 1.270 . S
O123 C122 1.199 1_565 S
O124 C117 1.185 . S
O124 Zn120 2.086 . S
C125 O121 1.278 . S
C125 O126 1.211 . S
O126 C125 1.211 . S
C127 O119 1.284 . S
C127 O128 1.273 1_545 S
O128 C127 1.273 1_565 S
O129 Zn120 1.977 . S
O129 C122 1.270 . S
C130 O131 1.160 . S
C130 O137 1.185 . S
O131 C130 1.160 . S
O132 Zn133 1.899 . S
O132 C140 1.284 . S
Zn133 O132 1.899 . S
Zn133 O134 2.032 . S
Zn133 O137 2.086 . S
Zn133 O142 1.977 . S
O134 Zn133 2.032 . S
O134 C138 1.278 . S
C135 O136 1.203 . S
C135 O142 1.267 . S
O136 C135 1.203 . S
O137 C130 1.185 . S
O137 Zn133 2.086 . S
C138 O134 1.278 . S
C138 O139 1.211 . S
O139 C138 1.211 . S
C140 O132 1.284 . S
C140 O141 1.273 . S
O141 C140 1.273 . S
O142 Zn133 1.977 . S
O142 C135 1.267 . S
C143 O144 1.160 . S
C143 O150 1.185 . S
O144 C143 1.160 . S
O145 Zn146 1.899 1_556 S
O145 C153 1.284 . S
Zn146 O145 1.899 1_554 S
Zn146 O147 2.032 . S
Zn146 O150 2.086 . S
Zn146 O155 1.977 . S
O147 Zn146 2.032 . S
O147 C151 1.278 . S
C148 O149 1.203 1_554 S
C148 O155 1.267 . S
O149 C148 1.203 1_556 S
O150 C143 1.185 . S
O150 Zn146 2.086 . S
C151 O147 1.278 . S
C151 O152 1.211 . S
O152 C151 1.211 . S
C153 O145 1.284 . S
C153 O154 1.273 . S
O154 C153 1.273 . S
O155 Zn146 1.977 . S
O155 C148 1.267 . S
C156 O157 1.160 . S
C156 O163 1.185 . S
O157 C156 1.160 . S
O158 Zn159 1.899 1_545 S
O158 C166 1.284 . S
Zn159 O158 1.899 1_565 S
Zn159 O160 2.032 1_565 S
Zn159 O163 2.086 1_565 S
Zn159 O168 1.977 . S
O160 Zn159 2.032 1_545 S
O160 C164 1.278 . S
C161 O162 1.203 . S
C161 O168 1.267 . S
O162 C161 1.203 . S
O163 C156 1.185 . S
O163 Zn159 2.086 1_545 S
C164 O160 1.278 . S
C164 O165 1.211 1_545 S
O165 C164 1.211 1_565 S
C166 O158 1.284 . S
C166 O167 1.273 . S
O167 C166 1.273 . S
O168 Zn159 1.977 . S
O168 C161 1.267 . S
C169 O170 1.160 . S
C169 O176 1.185 . S
O170 C169 1.160 . S
O171 Zn172 1.899 . S
O171 C179 1.284 . S
Zn172 O171 1.899 . S
Zn172 O173 2.032 . S
Zn172 O176 2.086 . S
Zn172 O181 1.977 . S
O173 Zn172 2.032 . S
O173 C177 1.278 . S
C174 O175 1.203 . S
C174 O181 1.267 . S
O175 C174 1.203 . S
O176 C169 1.185 . S
O176 Zn172 2.086 . S
C177 O173 1.278 . S
C177 O178 1.211 . S
O178 C177 1.211 . S
C179 O171 1.284 . S
C179 O180 1.273 . S
O180 C179 1.273 . S
O181 Zn172 1.977 . S
O181 C174 1.267 . S
C182 O183 1.160 . S
C182 O189 1.185 . S
O183 C182 1.160 . S
O184 Zn185 1.899 . S
O184 C192 1.284 . S
Zn185 O184 1.899 . S
Zn185 O186 2.032 . S
Zn185 O189 2.086 . S
Zn185 O194 1.977 . S
O186 Zn185 2.032 . S
O186 C190 1.278 1_545 S
C187 O188 1.203 . S
C187 O194 1.267 . S
O188 C187 1.203 . S
O189 C182 1.185 . S
O189 Zn185 2.086 . S
C190 O186 1.278 1_565 S
C190 O191 1.211 1_565 S
O191 C190 1.211 1_545 S
C192 O184 1.284 . S
C192 O193 1.273 . S
O193 C192 1.273 . S
O194 Zn185 1.977 . S
O194 C187 1.267 . S
C195 O196 1.160 . S
C195 O202 1.185 . S
O196 C195 1.160 . S
O197 Zn198 1.899 . S
O197 C205 1.284 . S
Zn198 O197 1.899 . S
Zn198 O199 2.032 . S
Zn198 O202 2.086 . S
Zn198 O207 1.977 . S
O199 Zn198 2.032 . S
O199 C203 1.278 . S
C200 O201 1.203 . S
C200 O207 1.267 . S
O201 C200 1.203 . S
O202 C195 1.185 . S
O202 Zn198 2.086 . S
C203 O199 1.278 . S
C203 O204 1.211 . S
O204 C203 1.211 . S
C205 O197 1.284 . S
C205 O206 1.273 . S
O206 C205 1.273 . S
O207 Zn198 1.977 . S
O207 C200 1.267 . S
C208 O209 1.160 1_554 S
C208 O215 1.185 . S
O209 C208 1.160 1_556 S
O210 Zn211 1.899 . S
O210 C218 1.284 . S
Zn211 O210 1.899 . S
Zn211 O212 2.032 1_554 S
Zn211 O215 2.086 . S
Zn211 O220 1.977 . S
O212 Zn211 2.032 1_556 S
O212 C216 1.278 . S
C213 O214 1.203 . S
C213 O220 1.267 . S
O214 C213 1.203 . S
O215 C208 1.185 . S
O215 Zn211 2.086 . S
C216 O212 1.278 . S
C216 O217 1.211 . S
O217 C216 1.211 . S
C218 O210 1.284 . S
C218 O219 1.283 . S
O219 C218 1.283 . S
O220 Zn211 1.977 . S
O220 C213 1.267 . S
C221 O222 1.160 . S
C221 O228 1.185 . S
O222 C221 1.160 . S
O223 Zn224 1.899 . S
O223 C231 1.284 . S
Zn224 O223 1.899 . S
Zn224 O225 2.032 . S
Zn224 O228 2.086 . S
Zn224 O233 1.977 . S
O225 Zn224 2.032 . S
O225 C229 1.278 . S
C226 O227 1.203 . S
C226 O233 1.267 . S
O227 C226 1.203 . S
O228 C221 1.185 . S
O228 Zn224 2.086 . S
C229 O225 1.278 . S
C229 O230 1.211 . S
O230 C229 1.211 . S
C231 O223 1.284 . S
C231 O232 1.273 . S
O232 C231 1.273 . S
O233 Zn224 1.977 . S
O233 C226 1.267 . S
C234 O235 1.160 . S
C234 O241 1.185 . S
O235 C234 1.160 . S
O236 Zn237 1.899 . S
O236 C244 1.284 . S
Zn237 O236 1.899 . S
Zn237 O238 2.032 1_455 S
Zn237 O241 2.086 . S
Zn237 O246 1.977 . S
O238 Zn237 2.032 1_655 S
O238 C242 1.278 . S
C239 O240 1.199 1_455 S
C239 O246 1.270 . S
O240 C239 1.199 1_655 S
O241 C234 1.185 . S
O241 Zn237 2.086 . S
C242 O238 1.278 . S
C242 O243 1.211 . S
O243 C242 1.211 . S
C244 O236 1.284 . S
C244 O245 1.273 1_455 S
O245 C244 1.273 1_655 S
O246 Zn237 1.977 . S
O246 C239 1.270 . S
C247 O248 1.160 . S
C247 O254 1.185 . S
O248 C247 1.160 . S
O249 Zn250 1.899 . S
O249 C257 1.284 . S
Zn250 O249 1.899 . S
Zn250 O251 2.032 . S
Zn250 O254 2.086 . S
Zn250 O259 1.977 . S
O251 Zn250 2.032 . S
O251 C255 1.278 . S
C252 O253 1.203 . S
C252 O259 1.267 . S
O253 C252 1.203 . S
O254 C247 1.185 . S
O254 Zn250 2.086 . S
C255 O251 1.278 . S
C255 O256 1.211 . S
O256 C255 1.211 . S
C257 O249 1.284 . S
C257 O258 1.273 . S
O258 C257 1.273 . S
O259 Zn250 1.977 . S
O259 C252 1.267 . S
C260 O261 1.160 . S
C260 O267 1.185 . S
O261 C260 1.160 . S
O262 Zn263 1.899 . S
O262 C270 1.284 . S
Zn263 O262 1.899 . S
Zn263 O264 2.032 . S
Zn263 O267 2.086 . S
Zn263 O272 1.977 . S
O264 Zn263 2.032 . S
O264 C268 1.278 . S
C265 O266 1.203 . S
C265 O272 1.267 . S
O266 C265 1.203 . S
O267 C260 1.185 . S
O267 Zn263 2.086 . S
C268 O264 1.278 . S
C268 O269 1.211 . S
O269 C268 1.211 . S
C270 O262 1.284 . S
C270 O271 1.273 . S
O271 C270 1.273 . S
O272 Zn263 1.977 . S
O272 C265 1.267 . S
C273 O274 1.160 . S
C273 O280 1.185 . S
O274 C273 1.160 . S
O275 Zn276 1.899 . S
O275 C283 1.284 . S
Zn276 O275 1.899 . S
Zn276 O277 2.032 . S
Zn276 O280 2.086 . S
Zn276 O285 1.977 . S
O277 Zn276 2.032 . S
O277 C281 1.278 . S
C278 O279 1.203 . S
C278 O285 1.267 . S
O279 C278 1.203 . S
O280 C273 1.185 . S
O280 Zn276 2.086 . S
C281 O277 1.278 . S
C281 O282 1.211 . S
O282 C281 1.211 . S
C283 O275 1.284 . S
C283 O284 1.273 . S
O284 C283 1.273 . S
O285 Zn276 1.977 . S
O285 C278 1.267 . S
C286 O287 1.160 . S
C286 O293 1.185 . S
O287 C286 1.160 . S
O288 Zn289 1.899 . S
O288 C296 1.284 . S
Zn289 O288 1.899 . S
Zn289 O290 2.032 . S
Zn289 O293 2.086 . S
Zn289 O298 1.977 . S
O290 Zn289 2.032 . S
O290 C294 1.278 . S
C291 O292 1.203 . S
C291 O298 1.267 . S
O292 C291 1.203 . S
O293 C286 1.185 . S
O293 Zn289 2.086 . S
C294 O290 1.278 . S
C294 O295 1.211 . S
O295 C294 1.211 . S
C296 O288 1.284 . S
C296 O297 1.273 . S
O297 C296 1.273 . S
O298 Zn289 1.977 . S
O298 C291 1.267 . S
C299 O300 1.160 . S
C299 O306 1.185 . S
O300 C299 1.160 . S
O301 Zn302 1.899 . S
O301 C309 1.284 . S
Zn302 O301 1.899 . S
Zn302 O303 2.032 . S
Zn302 O306 2.086 . S
Zn302 O311 1.977 . S
O303 Zn302 2.032 . S
O303 C307 1.278 . S
C304 O305 1.203 . S
C304 O311 1.267 . S
O305 C304 1.203 . S
O306 C299 1.185 . S
O306 Zn302 2.086 . S
C307 O303 1.278 . S
C307 O308 1.211 . S
O308 C307 1.211 . S
C309 O301 1.284 . S
C309 O310 1.273 . S
O310 C309 1.273 . S
O311 Zn302 1.977 . S
O311 C304 1.267 . S
C312 O313 1.160 . S
C312 O319 1.185 . S
O313 C312 1.160 . S
O314 Zn315 1.899 . S
O314 C322 1.284 . S
Zn315 O314 1.899 . S
Zn315 O316 2.032 . S
Zn315 O319 2.086 . S
Zn315 O324 1.977 . S
O316 Zn315 2.032 . S
O316 C320 1.278 . S
C317 O318 1.203 . S
C317 O324 1.267 . S
O318 C317 1.203 . S
O319 C312 1.185 . S
O319 Zn315 2.086 . S
C320 O316 1.278 . S
C320 O321 1.211 . S
O321 C320 1.211 . S
C322 O314 1.284 . S
C322 O323 1.273 . S
O323 C322 1.273 . S
O324 Zn315 1.977 . S
O324 C317 1.267 . S
C325 O326 1.160 . S
C325 O332 1.185 . S
O326 C325 1.160 . S
O327 Zn328 1.899 . S
O327 C335 1.284 . S
Zn328 O327 1.899 . S
Zn328 O329 2.032 . S
Zn328 O332 2.086 . S
Zn328 O337 1.977 . S
O329 Zn328 2.032 . S
O329 C333 1.278 . S
C330 O331 1.203 . S
C330 O337 1.267 . S
O331 C330 1.203 . S
O332 C325 1.185 . S
O332 Zn328 2.086 . S
C333 O329 1.278 . S
C333 O334 1.211 . S
O334 C333 1.211 . S
C335 O327 1.284 . S
C335 O336 1.273 . S
O336 C335 1.273 . S
O337 Zn328 1.977 . S
O337 C330 1.267 . S
C338 O339 1.160 . S
C338 O345 1.185 . S
O339 C338 1.160 . S
O340 Zn341 1.899 1_455 S
O340 C348 1.284 . S
Zn341 O340 1.899 1_655 S
Zn341 O342 2.032 1_655 S
Zn341 O345 2.086 1_655 S
Zn341 O350 1.977 . S
O342 Zn341 2.032 1_455 S
O342 C346 1.278 . S
C343 O344 1.203 . S
C343 O350 1.267 . S
O344 C343 1.203 . S
O345 C338 1.185 . S
O345 Zn341 2.086 1_455 S
C346 O342 1.278 . S
C346 O347 1.211 1_455 S
O347 C346 1.211 1_655 S
C348 O340 1.284 . S
C348 O349 1.273 . S
O349 C348 1.273 . S
O350 Zn341 1.977 . S
O350 C343 1.267 . S
C351 O352 1.160 . S
C351 O358 1.185 . S
O352 C351 1.160 . S
O353 Zn354 1.899 . S
O353 C361 1.284 . S
Zn354 O353 1.899 . S
Zn354 O355 2.032 . S
Zn354 O358 2.086 . S
Zn354 O363 1.977 . S
O355 Zn354 2.032 . S
O355 C359 1.278 . S
C356 O357 1.203 . S
C356 O363 1.267 . S
O357 C356 1.203 . S
O358 C351 1.185 . S
O358 Zn354 2.086 . S
C359 O355 1.278 . S
C359 O360 1.211 . S
O360 C359 1.211 . S
C361 O353 1.284 . S
C361 O362 1.273 . S
O362 C361 1.273 . S
O363 Zn354 1.977 . S
O363 C356 1.267 . S
C364 O365 1.160 . S
C364 O371 1.185 . S
O365 C364 1.160 . S
O366 Zn367 1.899 . S
O366 C374 1.284 . S
Zn367 O366 1.899 . S
Zn367 O368 2.032 . S
Zn367 O371 2.086 . S
Zn367 O376 1.977 . S
O368 Zn367 2.032 . S
O368 C372 1.278 . S
C369 O370 1.203 . S
C369 O376 1.267 . S
O370 C369 1.203 . S
O371 C364 1.185 . S
O371 Zn367 2.086 . S
C372 O368 1.278 . S
C372 O373 1.211 . S
O373 C372 1.211 . S
C374 O366 1.284 . S
C374 O375 1.273 . S
O375 C374 1.273 . S
O376 Zn367 1.977 . S
O376 C369 1.267 . S
C377 O378 1.160 . S
C377 O384 1.185 . S
O378 C377 1.160 . S
O379 Zn380 1.899 1_655 S
O379 C387 1.284 . S
Zn380 O379 1.899 1_455 S
Zn380 O381 2.032 . S
Zn380 O384 2.086 . S
Zn380 O389 1.977 . S
O381 Zn380 2.032 . S
O381 C385 1.278 . S
C382 O383 1.203 1_455 S
C382 O389 1.267 . S
O383 C382 1.203 1_655 S
O384 C377 1.185 . S
O384 Zn380 2.086 . S
C385 O381 1.278 . S
C385 O386 1.211 . S
O386 C385 1.211 . S
C387 O379 1.284 . S
C387 O388 1.273 . S
O388 C387 1.273 . S
O389 Zn380 1.977 . S
O389 C382 1.267 . S
C390 O391 1.160 . S
C390 O397 1.185 . S
O391 C390 1.160 . S
O392 Zn393 1.899 . S
O392 C400 1.284 . S
Zn393 O392 1.899 . S
Zn393 O394 2.032 . S
Zn393 O397 2.086 . S
Zn393 O402 1.977 . S
O394 Zn393 2.032 . S
O394 C398 1.278 . S
C395 O396 1.203 . S
C395 O402 1.267 . S
O396 C395 1.203 . S
O397 C390 1.185 . S
O397 Zn393 2.086 . S
C398 O394 1.278 . S
C398 O399 1.211 . S
O399 C398 1.211 . S
C400 O392 1.284 . S
C400 O401 1.273 . S
O401 C400 1.273 . S
O402 Zn393 1.977 . S
O402 C395 1.267 . S
C403 O404 1.160 . S
C403 O410 1.185 . S
O404 C403 1.160 . S
O405 Zn406 1.899 . S
O405 C413 1.284 . S
Zn406 O405 1.899 . S
Zn406 O407 2.032 . S
Zn406 O410 2.086 . S
Zn406 O415 1.977 . S
O407 Zn406 2.032 . S
O407 C411 1.278 . S
C408 O409 1.203 . S
C408 O415 1.267 . S
O409 C408 1.203 . S
O410 C403 1.185 . S
O410 Zn406 2.086 . S
C411 O407 1.278 . S
C411 O412 1.211 . S
O412 C411 1.211 . S
C413 O405 1.284 . S
C413 O414 1.273 . S
O414 C413 1.273 . S
O415 Zn406 1.977 . S
O415 C408 1.267 . S
C416 O417 1.160 . S
C416 O423 1.185 . S
O417 C416 1.160 . S
O418 Zn419 1.899 . S
O418 C426 1.284 . S
Zn419 O418 1.899 . S
Zn419 O420 2.032 . S
Zn419 O423 2.086 . S
Zn419 O428 1.977 . S
O420 Zn419 2.032 . S
O420 C424 1.278 . S
C421 O422 1.203 . S
C421 O428 1.267 . S
O422 C421 1.203 . S
O423 C416 1.185 . S
O423 Zn419 2.086 . S
C424 O420 1.278 . S
C424 O425 1.211 . S
O425 C424 1.211 . S
C426 O418 1.284 . S
C426 O427 1.273 . S
O427 C426 1.273 . S
O428 Zn419 1.977 . S
O428 C421 1.267 . S
C429 O430 1.160 . S
C429 O436 1.185 . S
O430 C429 1.160 . S
O431 Zn432 1.899 . S
O431 C439 1.284 . S
Zn432 O431 1.899 . S
Zn432 O433 2.032 . S
Zn432 O436 2.086 . S
Zn432 O441 1.977 . S
O433 Zn432 2.032 . S
O433 C437 1.278 . S
C434 O435 1.203 . S
C434 O441 1.267 . S
O435 C434 1.203 . S
O436 C429 1.185 . S
O436 Zn432 2.086 . S
C437 O433 1.278 . S
C437 O438 1.211 . S
O438 C437 1.211 . S
C439 O431 1.284 . S
C439 O440 1.273 . S
O440 C439 1.273 . S
O441 Zn432 1.977 . S
O441 C434 1.267 . S
C442 O443 1.160 . S
C442 O449 1.185 . S
O443 C442 1.160 . S
O444 Zn445 1.899 . S
O444 C452 1.284 . S
Zn445 O444 1.899 . S
Zn445 O446 2.032 . S
Zn445 O449 2.086 . S
Zn445 O454 1.977 . S
O446 Zn445 2.032 . S
O446 C450 1.278 . S
C447 O448 1.203 . S
C447 O454 1.267 . S
O448 C447 1.203 . S
O449 C442 1.185 . S
O449 Zn445 2.086 . S
C450 O446 1.278 . S
C450 O451 1.211 . S
O451 C450 1.211 . S
C452 O444 1.284 . S
C452 O453 1.273 . S
O453 C452 1.273 . S
O454 Zn445 1.977 . S
O454 C447 1.267 . S
C455 O456 1.160 . S
C455 O462 1.185 . S
O456 C455 1.160 . S
O457 Zn458 1.899 . S
O457 C465 1.284 . S
Zn458 O457 1.899 . S
Zn458 O459 2.032 . S
Zn458 O462 2.086 . S
Zn458 O467 1.977 . S
O459 Zn458 2.032 . S
O459 C463 1.278 . S
C460 O461 1.203 . S
C460 O467 1.267 . S
O461 C460 1.203 . S
O462 C455 1.185 . S
O462 Zn458 2.086 . S
C463 O459 1.278 . S
C463 O464 1.211 . S
O464 C463 1.211 . S
C465 O457 1.284 . S
C465 O466 1.273 . S
O466 C465 1.273 . S
O467 Zn458 1.977 . S
O467 C460 1.267 . S
C468 O469 1.160 . S
C468 O475 1.185 . S
O469 C468 1.160 . S
O470 Zn471 1.899 . S
O470 C478 1.284 . S
Zn471 O470 1.899 . S
Zn471 O472 2.032 . S
Zn471 O475 2.086 . S
Zn471 O480 1.977 . S
O472 Zn471 2.032 . S
O472 C476 1.278 . S
C473 O474 1.203 . S
C473 O480 1.267 . S
O474 C473 1.203 . S
O475 C468 1.185 . S
O475 Zn471 2.086 . S
C476 O472 1.278 . S
C476 O477 1.211 . S
O477 C476 1.211 . S
C478 O470 1.284 . S
C478 O479 1.273 . S
O479 C478 1.273 . S
O480 Zn471 1.977 . S
O480 C473 1.267 . S
C481 O482 1.160 . S
C481 O488 1.185 . S
O482 C481 1.160 . S
O483 Zn484 1.899 . S
O483 C491 1.284 1_556 S
Zn484 O483 1.899 . S
Zn484 O485 2.032 . S
Zn484 O488 2.086 . S
Zn484 O493 1.977 . S
O485 Zn484 2.032 . S
O485 C489 1.278 . S
C486 O487 1.203 1_556 S
C486 O493 1.267 . S
O487 C486 1.203 1_554 S
O488 C481 1.185 . S
O488 Zn484 2.086 . S
C489 O485 1.278 . S
C489 O490 1.211 1_556 S
O490 C489 1.211 1_554 S
C491 O483 1.284 1_554 S
C491 O492 1.273 . S
O492 C491 1.273 . S
O493 Zn484 1.977 . S
O493 C486 1.267 . S
C494 O495 1.160 . S
C494 O501 1.185 . S
O495 C494 1.160 . S
O496 Zn497 1.899 . S
O496 C504 1.284 . S
Zn497 O496 1.899 . S
Zn497 O498 2.032 . S
Zn497 O501 2.086 . S
Zn497 O506 1.977 . S
O498 Zn497 2.032 . S
O498 C502 1.278 . S
C499 O500 1.203 . S
C499 O506 1.267 . S
O500 C499 1.203 . S
O501 C494 1.185 . S
O501 Zn497 2.086 . S
C502 O498 1.278 . S
C502 O503 1.211 . S
O503 C502 1.211 . S
C504 O496 1.284 . S
C504 O505 1.273 . S
O505 C504 1.273 . S
O506 Zn497 1.977 . S
O506 C499 1.267 . S
C507 O508 1.160 . S
C507 O514 1.185 . S
O508 C507 1.160 . S
O509 Zn510 1.899 . S
O509 C517 1.284 . S
Zn510 O509 1.899 . S
Zn510 O511 2.032 . S
Zn510 O514 2.086 . S
Zn510 O519 1.977 . S
O511 Zn510 2.032 . S
O511 C515 1.278 . S
C512 O513 1.203 . S
C512 O519 1.267 . S
O513 C512 1.203 . S
O514 C507 1.185 . S
O514 Zn510 2.086 . S
C515 O511 1.278 . S
C515 O516 1.211 . S
O516 C515 1.211 . S
C517 O509 1.284 . S
C517 O518 1.273 . S
O518 C517 1.273 . S
O519 Zn510 1.977 . S
O519 C512 1.267 . S
C520 O521 1.160 . S
C520 O527 1.185 . S
O521 C520 1.160 . S
O522 Zn523 1.899 . S
O522 C530 1.284 . S
Zn523 O522 1.899 . S
Zn523 O524 2.032 . S
Zn523 O527 2.086 . S
Zn523 O532 1.977 . S
O524 Zn523 2.032 . S
O524 C528 1.278 . S
C525 O526 1.203 . S
C525 O532 1.267 . S
O526 C525 1.203 . S
O527 C520 1.185 . S
O527 Zn523 2.086 . S
C528 O524 1.278 . S
C528 O529 1.211 . S
O529 C528 1.211 . S
C530 O522 1.284 . S
C530 O531 1.273 . S
O531 C530 1.273 . S
O532 Zn523 1.977 . S
O532 C525 1.267 . S
C533 O534 1.160 . S
C533 O540 1.185 . S
O534 C533 1.160 . S
O535 Zn536 1.899 . S
O535 C543 1.284 . S
Zn536 O535 1.899 . S
Zn536 O537 2.032 . S
Zn536 O540 2.086 . S
Zn536 O545 1.977 . S
O537 Zn536 2.032 . S
O537 C541 1.278 . S
C538 O539 1.203 . S
C538 O545 1.267 . S
O539 C538 1.203 . S
O540 C533 1.185 . S
O540 Zn536 2.086 . S
C541 O537 1.278 . S
C541 O542 1.211 . S
O542 C541 1.211 . S
C543 O535 1.284 . S
C543 O544 1.273 . S
O544 C543 1.273 . S
O545 Zn536 1.977 . S
O545 C538 1.267 . S
C546 O547 1.160 . S
C546 O553 1.185 . S
O547 C546 1.160 . S
O548 Zn549 1.899 . S
O548 C556 1.284 . S
Zn549 O548 1.899 . S
Zn549 O550 2.032 . S
Zn549 O553 2.086 . S
Zn549 O558 1.977 . S
O550 Zn549 2.032 . S
O550 C554 1.278 . S
C551 O552 1.203 . S
C551 O558 1.267 . S
O552 C551 1.203 . S
O553 C546 1.185 . S
O553 Zn549 2.086 . S
C554 O550 1.278 . S
C554 O555 1.211 . S
O555 C554 1.211 . S
C556 O548 1.284 . S
C556 O557 1.273 . S
O557 C556 1.273 . S
O558 Zn549 1.977 . S
O558 C551 1.267 . S
C559 O560 1.160 . S
C559 O566 1.185 . S
O560 C559 1.160 . S
O561 Zn562 1.899 1_554 S
O561 C569 1.284 . S
Zn562 O561 1.899 1_556 S
Zn562 O563 2.032 1_556 S
Zn562 O566 2.086 1_556 S
Zn562 O571 1.977 . S
O563 Zn562 2.032 1_554 S
O563 C567 1.278 . S
C564 O565 1.203 . S
C564 O571 1.267 . S
O565 C564 1.203 . S
O566 C559 1.185 . S
O566 Zn562 2.086 1_554 S
C567 O563 1.278 . S
C567 O568 1.211 1_554 S
O568 C567 1.211 1_556 S
C569 O561 1.284 . S
C569 O570 1.273 . S
O570 C569 1.273 . S
O571 Zn562 1.977 . S
O571 C564 1.267 . S
C572 O573 1.160 . S
C572 O579 1.185 . S
O573 C572 1.160 . S
O574 Zn575 1.899 . S
O574 C582 1.284 . S
Zn575 O574 1.899 . S
Zn575 O576 2.032 . S
Zn575 O579 2.086 . S
Zn575 O584 1.977 . S
O576 Zn575 2.032 . S
O576 C580 1.278 . S
C577 O578 1.203 . S
C577 O584 1.267 . S
O578 C577 1.203 . S
O579 C572 1.185 . S
O579 Zn575 2.086 . S
C580 O576 1.278 . S
C580 O581 1.211 . S
O581 C580 1.211 . S
C582 O574 1.284 . S
C582 O583 1.273 . S
O583 C582 1.273 . S
O584 Zn575 1.977 . S
O584 C577 1.267 . S
C585 O586 1.160 . S
C585 O592 1.185 . S
O586 C585 1.160 . S
O587 Zn588 1.899 . S
O587 C595 1.284 . S
Zn588 O587 1.899 . S
Zn588 O589 2.032 . S
Zn588 O592 2.086 . S
Zn588 O597 1.977 . S
O589 Zn588 2.032 . S
O589 C593 1.278 1_554 S
C590 O591 1.203 . S
C590 O597 1.267 . S
O591 C590 1.203 . S
O592 C585 1.185 . S
O592 Zn588 2.086 . S
C593 O589 1.278 1_556 S
C593 O594 1.211 1_556 S
O594 C593 1.211 1_554 S
C595 O587 1.284 . S
C595 O596 1.273 . S
O596 C595 1.273 . S
O597 Zn588 1.977 . S
O597 C590 1.267 . S
C598 O599 1.160 . S
C598 O605 1.185 . S
O599 C598 1.160 . S
O600 Zn601 1.899 . S
O600 C608 1.284 1_565 S
Zn601 O600 1.899 . S
Zn601 O602 2.032 . S
Zn601 O605 2.086 . S
Zn601 O610 1.977 . S
O602 Zn601 2.032 . S
O602 C606 1.278 . S
C603 O604 1.203 1_565 S
C603 O610 1.267 . S
O604 C603 1.203 1_545 S
O605 C598 1.185 . S
O605 Zn601 2.086 . S
C606 O602 1.278 . S
C606 O607 1.211 1_565 S
O607 C606 1.211 1_545 S
C608 O600 1.284 1_545 S
C608 O609 1.273 . S
O609 C608 1.273 . S
O610 Zn601 1.977 . S
O610 C603 1.267 . S
C611 O612 1.160 . S
C611 O618 1.185 . S
O612 C611 1.160 . S
O613 Zn614 1.899 1_565 S
O613 C621 1.284 . S
Zn614 O613 1.899 1_545 S
Zn614 O615 2.032 . S
Zn614 O618 2.086 . S
Zn614 O623 1.977 . S
O615 Zn614 2.032 . S
O615 C619 1.278 . S
C616 O617 1.203 1_545 S
C616 O623 1.267 . S
O617 C616 1.203 1_565 S
O618 C611 1.185 . S
O618 Zn614 2.086 . S
C619 O615 1.278 . S
C619 O620 1.211 . S
O620 C619 1.211 . S
C621 O613 1.284 . S
C621 O622 1.273 . S
O622 C621 1.273 . S
O623 Zn614 1.977 . S
O623 C616 1.267 . S
C10 C348 1.030 . S
C361 C23 1.018 . S
C36 C322 1.162 . S
C335 C49 1.135 1_556 S
C62 C400 1.125 . S
C75 C413 1.077 . S
C88 C374 1.142 . S
C101 C387 1.076 . S
C166 C114 1.030 . S
C127 C179 1.135 1_545 S
C192 C140 1.125 . S
C153 C205 1.076 . S
C569 C218 1.030 . S
C595 C231 1.125 . S
C296 C244 1.135 1_655 S
C530 C257 1.162 . S
C621 C270 1.076 . S
C543 C283 1.142 . S
C309 C582 1.077 . S
C426 C478 1.162 . S
C491 C439 1.018 . S
C452 C504 1.142 . S
C517 C465 1.078 . S
C556 C608 1.018 . S
C8 C99 0.640 . S
C60 C21 1.058 . S
C34 C73 1.106 . S
C47 C86 0.632 . S
C268 C112 0.641 . S
C541 C125 0.632 . S
C138 C554 0.682 . S
C151 C567 0.713 . S
C619 C164 0.713 . S
C177 C281 1.011 . S
C190 C606 1.058 . S
C203 C216 0.640 . S
C229 C437 0.682 . S
C242 C450 0.632 . S
C463 C255 1.106 . S
C294 C502 1.011 . S
C476 C307 1.106 . S
C411 C320 0.476 . S
C333 C372 1.011 . S
C385 C346 0.713 . S
C359 C398 0.682 . S
C424 C580 0.477 . S
C593 C489 1.058 . S
C528 C515 0.477 . S
C5 C382 1.784 . S
C395 C18 2.014 1_455 S
C31 C408 1.498 . S
C44 C369 1.592 1_554 S
C356 C57 1.663 . S
C70 C317 1.511 . S
C330 C83 1.948 . S
C96 C343 1.499 . S
C616 C109 1.784 . S
C122 C278 1.592 1_545 S
C135 C603 2.014 1_545 S
C213 C148 1.784 . S
C161 C265 1.499 . S
C174 C538 1.948 . S
C551 C187 1.663 . S
C564 C200 1.499 . S
C486 C226 2.014 1_556 S
C499 C239 1.592 1_655 S
C512 C252 1.498 . S
C291 C447 1.948 . S
C421 C304 1.511 . S
C434 C590 1.663 . S
C460 C525 1.511 . S
C577 C473 1.498 . S
C0 C286 2.362 1_455 S
C13 C520 1.888 . S
C299 C26 1.981 . S
C585 C39 1.761 . S
C234 C52 1.761 . S
C247 C65 1.981 . S
C78 C572 2.475 . S
C91 C221 1.876 . S
C169 C104 2.362 1_565 S
C117 C182 1.761 . S
C195 C130 1.876 . S
C156 C143 2.285 . S
C208 C325 2.362 1_554 S
C390 C260 1.876 . S
C351 C273 1.545 . S
C312 C598 1.888 . S
C611 C338 2.285 . S
C546 C364 1.545 . S
C559 C377 2.285 . S
C533 C403 2.475 . S
C481 C416 1.888 . S
C494 C429 1.544 . S
C442 C507 2.475 . S
C455 C468 1.981 . S
