# Generated by pormake.
# Topology vbk, (5)-cn, num edge types: 1
# Building blocks:
#     Node 0, Type 0, BuildingBlock: XOMCOT_clean_sbu_0, # of connection points: 5
#     Node 1, Type 0, BuildingBlock: XOMCOT_clean_sbu_0, # of connection points: 5
#     Node 2, Type 0, BuildingBlock: XOMCOT_clean_sbu_0, # of connection points: 5
#     Node 3, Type 0, BuildingBlock: XOMCOT_clean_sbu_0, # of connection points: 5
#     Node 4, Type 0, BuildingBlock: XOMCOT_clean_sbu_0, # of connection points: 5
#     Node 5, Type 0, BuildingBlock: XOMCOT_clean_sbu_0, # of connection points: 5
#     Node 6, Type 0, BuildingBlock: XOMCOT_clean_sbu_0, # of connection points: 5
#     Node 7, Type 0, BuildingBlock: XOMCOT_clean_sbu_0, # of connection points: 5
#     Node 8, Type 0, BuildingBlock: XOMCOT_clean_sbu_0, # of connection points: 5
#     Node 9, Type 0, BuildingBlock: XOMCOT_clean_sbu_0, # of connection points: 5
#     Node 10, Type 0, BuildingBlock: XOMCOT_clean_sbu_0, # of connection points: 5
#     Node 11, Type 0, BuildingBlock: XOMCOT_clean_sbu_0, # of connection points: 5
#     Node 12, Type 0, BuildingBlock: XOMCOT_clean_sbu_0, # of connection points: 5
#     Node 13, Type 0, BuildingBlock: XOMCOT_clean_sbu_0, # of connection points: 5
#     Node 14, Type 0, BuildingBlock: XOMCOT_clean_sbu_0, # of connection points: 5
#     Node 15, Type 0, BuildingBlock: XOMCOT_clean_sbu_0, # of connection points: 5
#     Edge 16, Type (0, 0), BuildingBlock: OJICUG_clean_linker_0, # of connection points: 2
#     Edge 17, Type (0, 0), BuildingBlock: OJICUG_clean_linker_0, # of connection points: 2
#     Edge 18, Type (0, 0), BuildingBlock: OJICUG_clean_linker_0, # of connection points: 2
#     Edge 19, Type (0, 0), BuildingBlock: OJICUG_clean_linker_0, # of connection points: 2
#     Edge 20, Type (0, 0), BuildingBlock: OJICUG_clean_linker_0, # of connection points: 2
#     Edge 21, Type (0, 0), BuildingBlock: OJICUG_clean_linker_0, # of connection points: 2
#     Edge 22, Type (0, 0), BuildingBlock: OJICUG_clean_linker_0, # of connection points: 2
#     Edge 23, Type (0, 0), BuildingBlock: OJICUG_clean_linker_0, # of connection points: 2
#     Edge 24, Type (0, 0), BuildingBlock: OJICUG_clean_linker_0, # of connection points: 2
#     Edge 25, Type (0, 0), BuildingBlock: OJICUG_clean_linker_0, # of connection points: 2
#     Edge 26, Type (0, 0), BuildingBlock: OJICUG_clean_linker_0, # of connection points: 2
#     Edge 27, Type (0, 0), BuildingBlock: OJICUG_clean_linker_0, # of connection points: 2
#     Edge 28, Type (0, 0), BuildingBlock: OJICUG_clean_linker_0, # of connection points: 2
#     Edge 29, Type (0, 0), BuildingBlock: OJICUG_clean_linker_0, # of connection points: 2
#     Edge 30, Type (0, 0), BuildingBlock: OJICUG_clean_linker_0, # of connection points: 2
#     Edge 31, Type (0, 0), BuildingBlock: OJICUG_clean_linker_0, # of connection points: 2
#     Edge 32, Type (0, 0), BuildingBlock: OJICUG_clean_linker_0, # of connection points: 2
#     Edge 33, Type (0, 0), BuildingBlock: OJICUG_clean_linker_0, # of connection points: 2
#     Edge 34, Type (0, 0), BuildingBlock: OJICUG_clean_linker_0, # of connection points: 2
#     Edge 35, Type (0, 0), BuildingBlock: OJICUG_clean_linker_0, # of connection points: 2
#     Edge 36, Type (0, 0), BuildingBlock: OJICUG_clean_linker_0, # of connection points: 2
#     Edge 37, Type (0, 0), BuildingBlock: OJICUG_clean_linker_0, # of connection points: 2
#     Edge 38, Type (0, 0), BuildingBlock: OJICUG_clean_linker_0, # of connection points: 2
#     Edge 39, Type (0, 0), BuildingBlock: OJICUG_clean_linker_0, # of connection points: 2
#     Edge 40, Type (0, 0), BuildingBlock: OJICUG_clean_linker_0, # of connection points: 2
#     Edge 41, Type (0, 0), BuildingBlock: OJICUG_clean_linker_0, # of connection points: 2
#     Edge 42, Type (0, 0), BuildingBlock: OJICUG_clean_linker_0, # of connection points: 2
#     Edge 43, Type (0, 0), BuildingBlock: OJICUG_clean_linker_0, # of connection points: 2
#     Edge 44, Type (0, 0), BuildingBlock: OJICUG_clean_linker_0, # of connection points: 2
#     Edge 45, Type (0, 0), BuildingBlock: OJICUG_clean_linker_0, # of connection points: 2
#     Edge 46, Type (0, 0), BuildingBlock: OJICUG_clean_linker_0, # of connection points: 2
#     Edge 47, Type (0, 0), BuildingBlock: OJICUG_clean_linker_0, # of connection points: 2
#     Edge 48, Type (0, 0), BuildingBlock: OJICUG_clean_linker_0, # of connection points: 2
#     Edge 49, Type (0, 0), BuildingBlock: OJICUG_clean_linker_0, # of connection points: 2
#     Edge 50, Type (0, 0), BuildingBlock: OJICUG_clean_linker_0, # of connection points: 2
#     Edge 51, Type (0, 0), BuildingBlock: OJICUG_clean_linker_0, # of connection points: 2
#     Edge 52, Type (0, 0), BuildingBlock: OJICUG_clean_linker_0, # of connection points: 2
#     Edge 53, Type (0, 0), BuildingBlock: OJICUG_clean_linker_0, # of connection points: 2
#     Edge 54, Type (0, 0), BuildingBlock: OJICUG_clean_linker_0, # of connection points: 2
#     Edge 55, Type (0, 0), BuildingBlock: OJICUG_clean_linker_0, # of connection points: 2
# Relax obj value: 0.113
# Max RMSD: 0.183
# Mean RMSD: 0.183
data_MOF--net-vbk--node1-XOMCOT_clean_sbu_0--edge1-OJICUG_clean_linker_0
_symmetry_space_group_name_H-M    P1
_symmetry_Int_Tables_number       1
_symmetry_cell_setting            triclinic
loop_
_symmetry_equiv_pos_as_xyz
'x, y, z'
_cell_length_a     51.766115
_cell_length_b     36.385526
_cell_length_c     19.384668
_cell_angle_alpha  90.140988
_cell_angle_beta   89.837855
_cell_angle_gamma 89.443843
loop_
_atom_site_label
_atom_site_type_symbol
_atom_site_fract_x
_atom_site_fract_y
_atom_site_fract_z
_atom_type_partial_charge
Co0 Co 0.15677 0.14935 0.10447 0.0
C1 C 0.09935 0.14091 0.07764 0.0
C2 C 0.10847 0.18851 0.13761 0.0
C3 C 0.08227 0.18717 0.1306 0.0
N4 N 0.11959 0.16003 0.10354 0.0
N5 N 0.07635 0.1573 0.09316 0.0
H6 H 0.10117 0.11525 0.04972 0.0
H7 H 0.1183 0.20811 0.16955 0.0
C8 C 0.17579 0.19203 0.22745 0.0
O9 O 0.19603 0.20201 0.19122 0.0
N10 N 0.19372 0.1384 0.10946 0.0
C11 C 0.21281 0.14445 0.06342 0.0
C12 C 0.23627 0.13753 0.09468 0.0
C13 C 0.20594 0.12639 0.16689 0.0
N14 N 0.23192 0.12688 0.16024 0.0
C15 C 0.16781 0.19295 0.98671 0.0
C16 C 0.15563 0.26125 0.04035 0.0
C17 C 0.15934 0.25731 0.96926 0.0
C18 C 0.16645 0.22306 0.94302 0.0
C19 C 0.15775 0.23023 0.08309 0.0
N20 N 0.16276 0.19602 0.05585 0.0
H21 H 0.17183 0.16675 0.96305 0.0
H22 H 0.1539 0.23407 0.13706 0.0
H23 H 0.21042 0.15472 1.0118 0.0
H24 H 0.19596 0.11986 0.21438 0.0
O25 O 0.15393 0.11887 0.02357 0.0
O26 O 0.15037 0.0981 0.12985 0.0
O27 O 0.15829 0.17222 0.19995 0.0
C28 C 0.15103 0.09098 0.06375 0.0
H29 H 0.06845 0.2055 0.15529 0.0
H30 H 0.25509 0.14246 0.07226 0.0
H31 H 0.15002 0.28758 0.06219 0.0
H32 H 0.1694 0.21909 0.88809 0.0
Co33 Co 0.39601 0.86139 0.62946 0.0
C34 C 0.45463 0.86364 0.59889 0.0
C35 C 0.44032 0.90922 0.65772 0.0
C36 C 0.46631 0.91379 0.64761 0.0
N37 N 0.43243 0.87803 0.62648 0.0
N38 N 0.47551 0.88524 0.61051 0.0
H39 H 0.45596 0.83738 0.57316 0.0
H40 H 0.42826 0.92746 0.68812 0.0
C41 C 0.42099 0.82001 0.74499 0.0
O42 O 0.44034 0.81222 0.70345 0.0
N43 N 0.35978 0.84742 0.63672 0.0
C44 C 0.34398 0.83446 0.58744 0.0
C45 C 0.31892 0.83456 0.61276 0.0
C46 C 0.34407 0.85559 0.69077 0.0
N47 N 0.3189 0.84817 0.67775 0.0
C48 C 0.41345 0.81997 0.51454 0.0
C49 C 0.39477 0.75249 0.55481 0.0
C50 C 0.40409 0.75688 0.48722 0.0
C51 C 0.4142 0.79076 0.46819 0.0
C52 C 0.39523 0.78244 0.60103 0.0
N53 N 0.40412 0.81591 0.58006 0.0
H54 H 0.41943 0.84662 0.49643 0.0
H55 H 0.38661 0.77953 0.65157 0.0
H56 H 0.35002 0.82702 0.53575 0.0
H57 H 0.35098 0.86798 0.73794 0.0
O58 O 0.38825 0.88993 0.5491 0.0
O59 O 0.38529 0.91084 0.65621 0.0
O60 O 0.4018 0.83899 0.72326 0.0
C61 C 0.38293 0.91703 0.5902 0.0
H62 H 0.47775 0.93577 0.66902 0.0
H63 H 0.30189 0.82694 0.58401 0.0
H64 H 0.38616 0.72683 0.5706 0.0
H65 H 0.42095 0.79541 0.41598 0.0
Co66 Co 0.15174 0.88562 0.90495 0.0
C67 C 0.0953 0.88089 0.95373 0.0
C68 C 0.10127 0.90504 0.85416 0.0
C69 C 0.0754 0.90648 0.86872 0.0
N70 N 0.11402 0.88915 0.90694 0.0
N71 N 0.07145 0.89129 0.93103 0.0
H72 H 0.09891 0.86774 1.00282 0.0
H73 H 0.11035 0.91507 0.80764 0.0
C74 C 0.15474 0.82729 0.79646 0.0
O75 O 0.16835 0.80729 0.83965 0.0
N76 N 0.19006 0.88456 0.89664 0.0
C77 C 0.20692 0.9007 0.94016 0.0
C78 C 0.23158 0.89772 0.91409 0.0
C79 C 0.20523 0.87359 0.84248 0.0
N80 N 0.23072 0.88069 0.85232 0.0
C81 C 0.16866 0.83806 1.0108 0.0
C82 C 0.13147 0.78448 1.0008 0.0
C83 C 0.14861 0.78401 0.05689 0.0
C84 C 0.16785 0.81048 0.05968 0.0
C85 C 0.13324 0.81279 0.9513 0.0
N86 N 0.15162 0.83953 0.95729 0.0
H87 H 0.182 0.85979 1.01984 0.0
H88 H 0.11927 0.81402 0.90998 0.0
H89 H 0.20183 0.91433 0.98797 0.0
H90 H 0.1979 0.86249 0.79493 0.0
O91 O 0.15325 0.91665 0.98498 0.0
O92 O 0.15222 0.93749 0.87799 0.0
O93 O 0.14826 0.86029 0.81194 0.0
C94 C 0.15259 0.94469 0.94419 0.0
H95 H 0.06041 0.91682 0.83488 0.0
H96 H 0.2488 0.90768 0.93914 0.0
H97 H 0.11617 0.76449 0.99721 0.0
H98 H 0.18141 0.81121 0.10218 0.0
Co99 Co 0.38519 0.11714 0.43215 0.0
C100 C 0.44344 0.12673 0.44941 0.0
C101 C 0.43266 0.07067 0.43494 0.0
C102 C 0.45892 0.07184 0.44307 0.0
N103 N 0.42246 0.10505 0.43956 0.0
N104 N 0.46569 0.10699 0.45206 0.0
H105 H 0.44279 0.15617 0.45596 0.0
H106 H 0.42217 0.04578 0.42484 0.0
C107 C 0.40362 0.16619 0.31893 0.0
O108 O 0.41886 0.18229 0.36326 0.0
N109 N 0.34857 0.12715 0.42181 0.0
C110 C 0.33077 0.13522 0.47033 0.0
C111 C 0.30676 0.13639 0.43931 0.0
C112 C 0.33525 0.12313 0.36261 0.0
N113 N 0.30955 0.12868 0.37127 0.0
C114 C 0.40156 0.16269 0.54182 0.0
C115 C 0.37605 0.22622 0.50206 0.0
C116 C 0.38839 0.22513 0.56645 0.0
C117 C 0.40172 0.19312 0.58531 0.0
C118 C 0.37684 0.19519 0.4591 0.0
N119 N 0.38957 0.16391 0.47926 0.0
H120 H 0.41028 0.13738 0.55979 0.0
H121 H 0.36622 0.19568 0.41118 0.0
H122 H 0.33489 0.13925 0.52449 0.0
H123 H 0.3444 0.1156 0.31442 0.0
O124 O 0.37837 0.08914 0.5137 0.0
O125 O 0.37815 0.0666 0.40725 0.0
O126 O 0.39027 0.1386 0.33699 0.0
C127 C 0.37527 0.06106 0.47346 0.0
H128 H 0.47222 0.04874 0.43952 0.0
H129 H 0.28869 0.14178 0.4657 0.0
H130 H 0.36515 0.2503 0.48623 0.0
H131 H 0.41075 0.19066 0.63546 0.0
Co132 Co 0.88674 0.86504 0.94219 0.0
C133 C 0.94418 0.87037 0.97397 0.0
C134 C 0.93472 0.82336 0.91281 0.0
C135 C 0.96089 0.82323 0.92319 0.0
N136 N 0.92379 0.8524 0.94564 0.0
N137 N 0.96703 0.85274 0.96142 0.0
H138 H 0.94257 0.89616 1.00157 0.0
H139 H 0.92484 0.80435 0.87964 0.0
C140 C 0.86601 0.82017 0.8269 0.0
O141 O 0.84654 0.81233 0.86782 0.0
N142 N 0.84993 0.87852 0.93482 0.0
C143 C 0.83097 0.87832 0.9827 0.0
C144 C 0.80788 0.88769 0.95172 0.0
C145 C 0.83802 0.88986 0.87615 0.0
N146 N 0.81216 0.89439 0.88417 0.0
C147 C 0.87186 0.82501 0.06147 0.0
C148 C 0.88076 0.75441 1.01447 0.0
C149 C 0.87292 0.75997 0.08286 0.0
C150 C 0.86825 0.79569 0.10581 0.0
C151 C 0.88352 0.78484 0.97061 0.0
N152 N 0.87903 0.81996 0.99411 0.0
H153 H 0.86929 0.85198 0.0832 0.0
H154 H 0.88966 0.77958 0.91853 0.0
H155 H 0.83317 0.87172 0.03642 0.0
H156 H 0.84805 0.89269 0.82747 0.0
O157 O 0.89007 0.89642 0.02077 0.0
O158 O 0.89444 0.9152 0.91312 0.0
O159 O 0.88448 0.84009 0.849 0.0
C160 C 0.89328 0.92341 0.97878 0.0
H161 H 0.97463 0.80418 0.90016 0.0
H162 H 0.78932 0.88895 0.9774 0.0
H163 H 0.88481 0.72696 0.99529 0.0
H164 H 0.86275 0.80112 0.1589 0.0
Co165 Co 0.6518 0.13879 0.41099 0.0
C166 C 0.59326 0.13805 0.44031 0.0
C167 C 0.60523 0.11626 0.34238 0.0
C168 C 0.5788 0.11557 0.34518 0.0
N169 N 0.61459 0.13102 0.40113 0.0
N170 N 0.57133 0.12929 0.40646 0.0
H171 H 0.59316 0.1495 0.49154 0.0
H172 H 0.61703 0.1072 0.29931 0.0
C173 C 0.63523 0.18686 0.29513 0.0
O174 O 0.61611 0.1975 0.33544 0.0
N175 N 0.68897 0.14485 0.41353 0.0
C176 C 0.70449 0.15584 0.46502 0.0
C177 C 0.72951 0.15793 0.43967 0.0
C178 C 0.70464 0.14016 0.35828 0.0
N179 N 0.72957 0.14819 0.3722 0.0
C180 C 0.63611 0.18194 0.52534 0.0
C181 C 0.65532 0.24903 0.48508 0.0
C182 C 0.64294 0.24604 0.54949 0.0
C183 C 0.63346 0.21188 0.56905 0.0
C184 C 0.65711 0.21796 0.44142 0.0
N185 N 0.64686 0.18505 0.46126 0.0
H186 H 0.62991 0.15578 0.54469 0.0
H187 H 0.66737 0.22012 0.39299 0.0
H188 H 0.69805 0.16261 0.51669 0.0
H189 H 0.69771 0.13102 0.3086 0.0
O190 O 0.6529 0.10786 0.49113 0.0
O191 O 0.6569 0.08707 0.38469 0.0
O192 O 0.65198 0.16374 0.31738 0.0
C193 C 0.65547 0.0799 0.45068 0.0
H194 H 0.56598 0.10528 0.3057 0.0
H195 H 0.74617 0.16688 0.46852 0.0
H196 H 0.66359 0.27486 0.46898 0.0
H197 H 0.62475 0.20789 0.61938 0.0
Co198 Co 0.8918 0.12725 0.13129 0.0
C199 C 0.94976 0.12959 0.09955 0.0
C200 C 0.93903 0.08588 0.16694 0.0
C201 C 0.96526 0.08406 0.15672 0.0
N202 N 0.92891 0.11418 0.13056 0.0
N203 N 0.97211 0.11156 0.11435 0.0
H204 H 0.94913 0.1544 0.06949 0.0
H205 H 0.92828 0.06809 0.20083 0.0
C206 C 0.91387 0.16977 0.24917 0.0
O207 O 0.93383 0.17724 0.20997 0.0
N208 N 0.85514 0.13865 0.13607 0.0
C209 C 0.83942 0.15122 0.0861 0.0
C210 C 0.81491 0.15582 0.11348 0.0
C211 C 0.84002 0.13554 0.19277 0.0
N212 N 0.81523 0.14597 0.18079 0.0
C213 C 0.90626 0.16826 1.01477 0.0
C214 C 0.89267 0.2378 0.06006 0.0
C215 C 0.90251 0.23307 0.99288 0.0
C216 C 0.90917 0.19778 0.97077 0.0
C217 C 0.89046 0.20699 0.1038 0.0
N218 N 0.89782 0.1728 0.08108 0.0
H219 H 0.91165 0.14146 0.99538 0.0
H220 H 0.88224 0.21046 0.15475 0.0
H221 H 0.84538 0.15693 0.03372 0.0
H222 H 0.8471 0.12541 0.24165 0.0
O223 O 0.88659 0.09719 0.05117 0.0
O224 O 0.88437 0.07681 0.15823 0.0
O225 O 0.89534 0.15077 0.22527 0.0
C226 C 0.88397 0.0696 0.09218 0.0
H227 H 0.97842 0.06501 0.1816 0.0
H228 H 0.79827 0.1662 0.08579 0.0
H229 H 0.8868 0.26477 0.07832 0.0
H230 H 0.91632 0.19284 0.91892 0.0
Co231 Co 0.66358 0.8759 0.60638 0.0
C232 C 0.60536 0.87552 0.57937 0.0
C233 C 0.61863 0.83131 0.64311 0.0
C234 C 0.59247 0.82847 0.63633 0.0
N235 N 0.62724 0.86031 0.60657 0.0
N236 N 0.58387 0.85614 0.59646 0.0
H237 H 0.60499 0.90048 0.54916 0.0
H238 H 0.63009 0.81402 0.6763 0.0
C239 C 0.68721 0.83245 0.72091 0.0
O240 O 0.70659 0.82517 0.6789 0.0
N241 N 0.69976 0.89177 0.6117 0.0
C242 C 0.71956 0.88833 0.56654 0.0
C243 C 0.74241 0.89598 0.60007 0.0
C244 C 0.71102 0.90333 0.67093 0.0
N245 N 0.73711 0.90457 0.66637 0.0
C246 C 0.67944 0.83664 0.4865 0.0
C247 C 0.67398 0.76559 0.53303 0.0
C248 C 0.68114 0.77164 0.46435 0.0
C249 C 0.68403 0.80761 0.44164 0.0
C250 C 0.67014 0.79581 0.57742 0.0
N251 N 0.67296 0.83116 0.55415 0.0
H252 H 0.68102 0.86378 0.46524 0.0
H253 H 0.66462 0.79018 0.62974 0.0
H254 H 0.71829 0.87903 0.51397 0.0
H255 H 0.70033 0.90774 0.71833 0.0
O256 O 0.65786 0.9065 0.52736 0.0
O257 O 0.65358 0.92599 0.63451 0.0
O258 O 0.66801 0.85177 0.69992 0.0
C259 C 0.65359 0.93369 0.56861 0.0
H260 H 0.58043 0.8087 0.66256 0.0
H261 H 0.76158 0.89254 0.57844 0.0
H262 H 0.67135 0.73791 0.55209 0.0
H263 H 0.68905 0.8134 0.38845 0.0
Co264 Co 0.66786 0.63972 0.10465 0.0
C265 C 0.61023 0.63519 0.0733 0.0
C266 C 0.62016 0.68206 0.13425 0.0
C267 C 0.59397 0.68257 0.12429 0.0
N268 N 0.63084 0.65287 0.1013 0.0
N269 N 0.58751 0.65315 0.08619 0.0
H270 H 0.6116 0.60941 0.04559 0.0
H271 H 0.63023 0.70095 0.16722 0.0
C272 C 0.68872 0.68458 0.2201 0.0
O273 O 0.70821 0.69229 0.17917 0.0
N274 N 0.70463 0.62578 0.11207 0.0
C275 C 0.72348 0.62537 0.06386 0.0
C276 C 0.74663 0.61622 0.09471 0.0
C277 C 0.71668 0.61492 0.17091 0.0
N278 N 0.74253 0.61022 0.16256 0.0
C279 C 0.68319 0.67954 0.98542 0.0
C280 C 0.67492 0.75032 0.03208 0.0
C281 C 0.68295 0.74459 0.96385 0.0
C282 C 0.68726 0.70875 0.9411 0.0
C283 C 0.67169 0.71997 0.07597 0.0
N284 N 0.67592 0.68474 0.05268 0.0
H285 H 0.68549 0.65253 0.96369 0.0
H286 H 0.66545 0.72538 0.12792 0.0
H287 H 0.72116 0.63138 1.00993 0.0
H288 H 0.7068 0.61257 0.21989 0.0
O289 O 0.66432 0.60849 0.02589 0.0
O290 O 0.65978 0.58949 0.13324 0.0
O291 O 0.67025 0.66464 0.19805 0.0
C292 C 0.66083 0.58142 0.06749 0.0
H293 H 0.58043 0.70189 0.14738 0.0
H294 H 0.76513 0.6146 0.06874 0.0
H295 H 0.6711 0.77785 0.05114 0.0
H296 H 0.69283 0.70314 0.88812 0.0
Co297 Co 0.89631 0.36556 0.63106 0.0
C298 C 0.95466 0.36578 0.6007 0.0
C299 C 0.94319 0.38743 0.69919 0.0
C300 C 0.96961 0.38784 0.69563 0.0
N301 N 0.93354 0.3729 0.64056 0.0
N302 N 0.97675 0.37421 0.63399 0.0
H303 H 0.95449 0.35455 0.54932 0.0
H304 H 0.93161 0.39652 0.74263 0.0
C305 C 0.91277 0.31771 0.74733 0.0
O306 O 0.93197 0.30676 0.70758 0.0
N307 N 0.85914 0.35983 0.62872 0.0
C308 C 0.8436 0.3486 0.57746 0.0
C309 C 0.81866 0.34619 0.60317 0.0
C310 C 0.84356 0.3643 0.68422 0.0
N311 N 0.81868 0.35591 0.67064 0.0
C312 C 0.9115 0.32259 0.51607 0.0
C313 C 0.89314 0.25518 0.55724 0.0
C314 C 0.90534 0.25833 0.4926 0.0
C315 C 0.91434 0.29265 0.47252 0.0
C316 C 0.89115 0.2863 0.60073 0.0
N317 N 0.90103 0.31937 0.58046 0.0
H318 H 0.91751 0.3488 0.49649 0.0
H319 H 0.88109 0.28401 0.64944 0.0
H320 H 0.84999 0.34176 0.52579 0.0
H321 H 0.85054 0.37341 0.73387 0.0
O322 O 0.89532 0.3967 0.5513 0.0
O323 O 0.89162 0.41714 0.65813 0.0
O324 O 0.89606 0.34065 0.72442 0.0
C325 C 0.89319 0.42453 0.59226 0.0
H326 H 0.98265 0.39788 0.73482 0.0
H327 H 0.80201 0.33692 0.57462 0.0
H328 H 0.88522 0.22919 0.57368 0.0
H329 H 0.92288 0.2967 0.42202 0.0
Co330 Co 0.65704 0.37814 0.9102 0.0
C331 C 0.59849 0.37807 0.93515 0.0
C332 C 0.61141 0.42143 0.86986 0.0
C333 C 0.58504 0.42396 0.87539 0.0
N334 N 0.62026 0.39289 0.90786 0.0
N335 N 0.57678 0.39666 0.91635 0.0
H336 H 0.59808 0.35317 0.96491 0.0
H337 H 0.62314 0.43872 0.83742 0.0
C338 C 0.6354 0.33526 0.79262 0.0
O339 O 0.61576 0.32727 0.8326 0.0
N340 N 0.69348 0.36535 0.90722 0.0
C341 C 0.70894 0.35223 0.95727 0.0
C342 C 0.73348 0.34716 0.93007 0.0
C343 C 0.70874 0.36835 0.85085 0.0
N344 N 0.73336 0.35728 0.8629 0.0
C345 C 0.63986 0.33756 0.02467 0.0
C346 C 0.65559 0.26813 0.98383 0.0
C347 C 0.64458 0.27308 0.0497 0.0
C348 C 0.63671 0.30834 0.06938 0.0
C349 C 0.65792 0.29856 0.9392 0.0
N350 N 0.64966 0.33274 0.95976 0.0
H351 H 0.634 0.36447 0.04259 0.0
H352 H 0.66716 0.29493 0.88951 0.0
H353 H 0.70281 0.34652 1.00952 0.0
H354 H 0.70188 0.379 0.80212 0.0
O355 O 0.6621 0.40761 0.99126 0.0
O356 O 0.66587 0.42842 0.88485 0.0
O357 O 0.65374 0.3549 0.81579 0.0
C358 C 0.66584 0.43526 0.95107 0.0
H359 H 0.57283 0.44326 0.84794 0.0
H360 H 0.75 0.33637 0.95775 0.0
H361 H 0.66238 0.24126 0.96736 0.0
H362 H 0.62868 0.31359 0.12021 0.0
Co363 Co 0.89204 0.62903 0.44132 0.0
C364 C 0.95003 0.62745 0.47195 0.0
C365 C 0.93793 0.67331 0.4107 0.0
C366 C 0.96401 0.6757 0.42066 0.0
N367 N 0.92862 0.64363 0.44394 0.0
N368 N 0.97185 0.64699 0.45896 0.0
H369 H 0.94988 0.60173 0.4998 0.0
H370 H 0.92703 0.69137 0.37762 0.0
C371 C 0.86951 0.67311 0.32655 0.0
O372 O 0.85 0.6805 0.36806 0.0
N373 N 0.85566 0.61404 0.43398 0.0
C374 C 0.83591 0.61688 0.4794 0.0
C375 C 0.81304 0.60944 0.44583 0.0
C376 C 0.84436 0.60299 0.37441 0.0
N377 N 0.81826 0.60149 0.3792 0.0
C378 C 0.87595 0.66825 0.56109 0.0
C379 C 0.88168 0.7393 0.51478 0.0
C380 C 0.87411 0.73322 0.58311 0.0
C381 C 0.87111 0.69727 0.60576 0.0
C382 C 0.88577 0.7091 0.4706 0.0
N383 N 0.88279 0.67375 0.49371 0.0
H384 H 0.87424 0.64112 0.5823 0.0
H385 H 0.89156 0.71478 0.41852 0.0
H386 H 0.83727 0.62539 0.53242 0.0
H387 H 0.85501 0.59885 0.32688 0.0
O388 O 0.89673 0.5979 0.51993 0.0
O389 O 0.90154 0.57894 0.41251 0.0
O390 O 0.88862 0.65374 0.34805 0.0
C391 C 0.90084 0.57085 0.47821 0.0
H392 H 0.97661 0.69583 0.39747 0.0
H393 H 0.7939 0.61234 0.46789 0.0
H394 H 0.88444 0.76697 0.49585 0.0
H395 H 0.86581 0.69149 0.65876 0.0
Co396 Co 0.39077 0.35846 0.92959 0.0
C397 C 0.44866 0.37177 0.93833 0.0
C398 C 0.43819 0.31831 0.90137 0.0
C399 C 0.46454 0.31991 0.90395 0.0
N400 N 0.42801 0.35058 0.92313 0.0
N401 N 0.47128 0.35333 0.92741 0.0
H402 H 0.4473 0.39962 0.95769 0.0
H403 H 0.4271 0.29476 0.88537 0.0
C404 C 0.37036 0.31592 0.80419 0.0
O405 O 0.34722 0.3127 0.83102 0.0
N406 N 0.35352 0.36612 0.93224 0.0
C407 C 0.336 0.35317 0.97726 0.0
C408 C 0.31164 0.35829 0.9496 0.0
C409 C 0.33956 0.38098 0.88031 0.0
N410 N 0.31393 0.37493 0.88758 0.0
C411 C 0.4047 0.31461 0.04103 0.0
C412 C 0.37333 0.25458 0.02239 0.0
C413 C 0.38847 0.25705 0.08218 0.0
C414 C 0.40488 0.28692 0.08955 0.0
C415 C 0.37399 0.28324 0.97354 0.0
N416 N 0.38914 0.31337 0.98432 0.0
H417 H 0.41719 0.3377 0.04989 0.0
H418 H 0.36161 0.28147 0.92956 0.0
H419 H 0.34055 0.33863 0.02432 0.0
H420 H 0.34838 0.3922 0.83441 0.0
O421 O 0.39393 0.39066 1.00752 0.0
O422 O 0.39434 0.40964 0.89943 0.0
O423 O 0.38849 0.33206 0.837 0.0
C424 C 0.39505 0.41792 0.96516 0.0
H425 H 0.47776 0.29818 0.88841 0.0
H426 H 0.29392 0.34753 0.97088 0.0
H427 H 0.36046 0.23164 1.01487 0.0
H428 H 0.4174 0.28949 0.13402 0.0
Co429 Co 0.15838 0.6394 0.40546 0.0
C430 C 0.10151 0.63668 0.44979 0.0
C431 C 0.11042 0.61139 0.35236 0.0
C432 C 0.08468 0.60651 0.36571 0.0
N433 N 0.12125 0.63004 0.40476 0.0
N434 N 0.07888 0.62231 0.42676 0.0
H435 H 0.10358 0.65141 0.498 0.0
H436 H 0.1207 0.60188 0.30695 0.0
C437 C 0.16241 0.69778 0.30047 0.0
O438 O 0.17702 0.71494 0.34529 0.0
N439 N 0.19623 0.64607 0.40038 0.0
C440 C 0.21389 0.63967 0.45041 0.0
C441 C 0.23831 0.63915 0.42234 0.0
C442 C 0.2107 0.64704 0.34154 0.0
N443 N 0.23645 0.64367 0.35365 0.0
C444 C 0.16598 0.68585 0.52097 0.0
C445 C 0.13083 0.74095 0.49104 0.0
C446 C 0.14447 0.7421 0.55358 0.0
C447 C 0.16237 0.71435 0.56741 0.0
C448 C 0.13529 0.71147 0.44475 0.0
N449 N 0.15316 0.68456 0.45966 0.0
H450 H 0.17809 0.66364 0.5373 0.0
H451 H 0.12387 0.70971 0.39826 0.0
H452 H 0.20974 0.63171 0.50277 0.0
H453 H 0.20249 0.64816 0.29038 0.0
O454 O 0.1623 0.60784 0.48307 0.0
O455 O 0.16442 0.58876 0.37468 0.0
O456 O 0.1539 0.66579 0.31428 0.0
C457 C 0.16581 0.58095 0.44042 0.0
H458 H 0.071 0.5933 0.33181 0.0
H459 H 0.25595 0.63281 0.44992 0.0
H460 H 0.11633 0.76164 0.47939 0.0
H461 H 0.17285 0.71379 0.61578 0.0
Co462 Co 0.40126 0.6239 0.12034 0.0
C463 C 0.45875 0.62816 0.0831 0.0
C464 C 0.45003 0.59843 0.17561 0.0
C465 C 0.47621 0.59698 0.16524 0.0
N466 N 0.43881 0.61768 0.12432 0.0
N467 N 0.4819 0.61563 0.10734 0.0
H468 H 0.4565 0.64444 0.03682 0.0
H469 H 0.43973 0.58633 0.21839 0.0
C470 C 0.39149 0.67834 0.23322 0.0
O471 O 0.37658 0.69606 0.18947 0.0
N472 N 0.36306 0.62772 0.12173 0.0
C473 C 0.34615 0.62333 0.0694 0.0
C474 C 0.32123 0.62515 0.09469 0.0
C475 C 0.34769 0.62929 0.17876 0.0
N476 N 0.32209 0.62924 0.16379 0.0
C477 C 0.39315 0.67303 1.00887 0.0
C478 C 0.42474 0.72937 0.05105 0.0
C479 C 0.41181 0.73222 0.98766 0.0
C480 C 0.39581 0.70367 0.96722 0.0
C481 C 0.42081 0.69826 0.09285 0.0
N482 N 0.40477 0.67069 0.07178 0.0
H483 H 0.38279 0.65031 0.98796 0.0
H484 H 0.43134 0.69573 0.14071 0.0
H485 H 0.35108 0.61697 1.01662 0.0
H486 H 0.35506 0.62887 0.23078 0.0
O487 O 0.40026 0.59326 0.0393 0.0
O488 O 0.39781 0.57228 0.146 0.0
O489 O 0.40293 0.64853 0.21464 0.0
C490 C 0.39831 0.56524 0.07982 0.0
H491 H 0.49021 0.58421 0.19925 0.0
H492 H 0.30388 0.62295 0.06408 0.0
H493 H 0.43791 0.75059 0.06751 0.0
H494 H 0.38643 0.70411 0.9173 0.0
Co495 Co 0.16229 0.38248 0.60614 0.0
C496 C 0.10415 0.37449 0.58644 0.0
C497 C 0.11561 0.43048 0.59735 0.0
C498 C 0.08936 0.42982 0.58872 0.0
N499 N 0.12536 0.39577 0.59538 0.0
N500 N 0.08217 0.39469 0.58205 0.0
H501 H 0.10444 0.34491 0.58228 0.0
H502 H 0.12639 0.45523 0.60642 0.0
C503 C 0.14079 0.33923 0.72532 0.0
O504 O 0.12514 0.3222 0.68332 0.0
N505 N 0.1986 0.37139 0.62033 0.0
C506 C 0.21649 0.35858 0.57562 0.0
C507 C 0.24004 0.35693 0.60912 0.0
C508 C 0.21149 0.37789 0.67953 0.0
N509 N 0.23687 0.36911 0.67467 0.0
C510 C 0.14605 0.33584 0.49895 0.0
C511 C 0.1707 0.2723 0.54211 0.0
C512 C 0.15948 0.27347 0.47626 0.0
C513 C 0.14637 0.30531 0.45594 0.0
C514 C 0.16901 0.30336 0.58525 0.0
N515 N 0.15719 0.33488 0.56266 0.0
H516 H 0.13788 0.36117 0.47936 0.0
H517 H 0.17869 0.30294 0.63461 0.0
H518 H 0.2127 0.35107 0.52259 0.0
H519 H 0.20245 0.38988 0.72473 0.0
O520 O 0.17033 0.40825 0.52251 0.0
O521 O 0.16999 0.43326 0.62695 0.0
O522 O 0.15596 0.36387 0.7027 0.0
C523 C 0.17325 0.43725 0.56046 0.0
H524 H 0.07633 0.45327 0.59088 0.0
H525 H 0.25803 0.34722 0.58676 0.0
H526 H 0.18142 0.24824 0.55883 0.0
H527 H 0.13809 0.30758 0.40481 0.0
C528 C 0.24484 0.13636 0.28207 0.0
C529 C 0.25088 0.12454 0.21473 0.0
H530 H 0.25841 0.14767 0.38366 0.0
C531 C 0.27626 0.11293 0.20041 0.0
H532 H 0.22558 0.14609 0.29471 0.0
C533 C 0.29525 0.11362 0.25169 0.0
C534 C 0.28953 0.12639 0.31892 0.0
H535 H 0.28147 0.10343 0.14922 0.0
H536 H 0.31442 0.10425 0.23774 0.0
C537 C 0.26388 0.13742 0.3333 0.0
C538 C 0.27618 0.89161 0.81478 0.0
C539 C 0.25262 0.87289 0.80675 0.0
H540 H 0.31516 0.89894 0.78091 0.0
C541 C 0.25132 0.84593 0.75452 0.0
H542 H 0.27811 0.91307 0.85302 0.0
C543 C 0.27292 0.83781 0.71244 0.0
C544 C 0.29653 0.8563 0.7213 0.0
H545 H 0.23377 0.83058 0.74677 0.0
H546 H 0.27118 0.81658 0.6736 0.0
C547 C 0.29769 0.88342 0.77306 0.0
C548 C 0.74844 0.89378 0.78929 0.0
C549 C 0.75549 0.90563 0.72284 0.0
H550 H 0.76048 0.88044 0.89139 0.0
C551 C 0.78138 0.91563 0.71156 0.0
H552 H 0.72892 0.88508 0.80008 0.0
C553 C 0.79976 0.91301 0.76464 0.0
C554 C 0.79285 0.90012 0.83065 0.0
H555 H 0.78752 0.92515 0.66134 0.0
H556 H 0.81943 0.9208 0.75347 0.0
C557 C 0.76677 0.89103 0.84216 0.0
C558 C 0.77698 0.14655 0.34782 0.0
C559 C 0.75126 0.14768 0.32419 0.0
H560 H 0.81723 0.14551 0.32183 0.0
C561 C 0.74717 0.1484 0.25234 0.0
H562 H 0.7811 0.14576 0.40247 0.0
C563 C 0.76798 0.14776 0.20582 0.0
C564 C 0.7937 0.14653 0.22931 0.0
H565 H 0.72784 0.14984 0.23148 0.0
H566 H 0.76375 0.14791 0.15124 0.0
C567 C 0.79784 0.146 0.30119 0.0
C568 C 0.78803 0.61422 0.20374 0.0
C569 C 0.76201 0.60497 0.21587 0.0
H570 H 0.82599 0.6206 0.24503 0.0
C571 C 0.75534 0.59231 0.28219 0.0
H572 H 0.79413 0.62465 0.15421 0.0
C573 C 0.77388 0.59001 0.33493 0.0
C574 C 0.79971 0.60017 0.32306 0.0
H575 H 0.73572 0.58442 0.29382 0.0
H576 H 0.7679 0.58059 0.38535 0.0
C577 C 0.80653 0.61182 0.2563 0.0
C578 C 0.80133 0.35491 0.79078 0.0
C579 C 0.7971 0.356 0.71898 0.0
H580 H 0.78487 0.35487 0.89213 0.0
C581 C 0.77137 0.35708 0.69564 0.0
H582 H 0.82071 0.35345 0.81134 0.0
C583 C 0.7506 0.35736 0.74248 0.0
C584 C 0.75486 0.3566 0.81431 0.0
H585 H 0.76716 0.3581 0.64106 0.0
H586 H 0.73119 0.35787 0.72201 0.0
C587 C 0.78059 0.35526 0.83757 0.0
C588 C 0.2492 0.37421 0.7985 0.0
C589 C 0.25629 0.37225 0.72827 0.0
H590 H 0.26172 0.37736 0.90365 0.0
C591 C 0.28276 0.37306 0.71167 0.0
H592 H 0.22913 0.37334 0.81388 0.0
C593 C 0.30152 0.3751 0.76351 0.0
C594 C 0.29446 0.37641 0.8338 0.0
H595 H 0.28912 0.37202 0.65851 0.0
H596 H 0.32161 0.37449 0.74807 0.0
C597 C 0.26798 0.37628 0.85037 0.0
C598 C 0.28295 0.6505 0.32446 0.0
C599 C 0.25769 0.64113 0.30453 0.0
H600 H 0.32278 0.65468 0.29635 0.0
C601 C 0.25398 0.62802 0.23697 0.0
H602 H 0.28658 0.66124 0.37559 0.0
C603 C 0.27496 0.62388 0.1912 0.0
C604 C 0.30033 0.63294 0.21137 0.0
H605 H 0.23495 0.6201 0.21982 0.0
H606 H 0.27119 0.61306 0.14028 0.0
C607 C 0.30386 0.64657 0.27874 0.0
C608 C 1.00425 0.15875 0.08276 0.0
C609 C 0.99827 0.12195 0.09696 0.0
H610 H 0.03395 0.19855 0.06867 0.0
C611 C 1.01868 0.09596 0.09921 0.0
H612 H 0.98927 0.17962 0.08059 0.0
C613 C 0.04447 0.10697 0.09255 0.0
C614 C 0.05037 0.14422 0.08369 0.0
H615 H 1.01479 0.06723 0.1085 0.0
H616 H 0.05978 0.08677 0.09871 0.0
C617 C 0.02995 0.16968 0.07622 0.0
C618 C 0.54719 0.90048 0.58789 0.0
C619 C 0.55673 0.86427 0.58543 0.0
H620 H 0.51389 0.93561 0.59663 0.0
C621 C 0.53878 0.83537 0.58231 0.0
H622 H 0.5604 0.92333 0.59046 0.0
C623 C 0.51213 0.84222 0.58688 0.0
C624 C 0.50259 0.87825 0.5947 0.0
H625 H 0.54547 0.80713 0.57942 0.0
H626 H 0.49918 0.81907 0.58808 0.0
C627 C 0.52047 0.90738 0.59249 0.0
C628 C 1.01313 0.83874 0.98479 0.0
C629 C 0.99326 0.8648 0.97295 0.0
H630 H 0.05396 0.82705 0.98244 0.0
C631 C 1.0002 0.90138 0.96043 0.0
H632 H 1.00835 0.81034 0.99482 0.0
C633 C 0.0263 0.91079 0.95298 0.0
C634 C 0.04607 0.88403 0.95891 0.0
H635 H 0.98546 0.92199 0.95056 0.0
H636 H 0.03104 0.93856 0.93786 0.0
C637 C 0.03925 0.84829 0.97831 0.0
C638 C 0.52651 0.15049 0.39134 0.0
C639 C 0.54504 0.13114 0.43011 0.0
H640 H 0.48616 0.15873 0.36988 0.0
C641 C 0.53683 0.10815 0.48356 0.0
H642 H 0.53256 0.16797 0.34926 0.0
C643 C 0.51043 0.10221 0.49423 0.0
C644 C 0.49188 0.11986 0.45266 0.0
H645 H 0.55084 0.09255 0.51313 0.0
H646 H 0.50446 0.08226 0.53229 0.0
C647 C 0.50009 0.1453 0.40318 0.0
C648 C 0.5275 0.59616 0.09092 0.0
C649 C 0.50797 0.62326 0.0845 0.0
H650 H 0.56825 0.58421 0.09506 0.0
C651 C 0.51528 0.65911 0.06716 0.0
H652 H 0.52244 0.56823 0.10407 0.0
C653 C 0.54155 0.66828 0.06262 0.0
C654 C 0.56113 0.64174 0.0743 0.0
H655 H 0.50079 0.68061 0.06244 0.0
H656 H 0.54663 0.69667 0.05363 0.0
C657 C 0.55376 0.60521 0.08538 0.0
C658 C 0.04789 0.35761 0.63453 0.0
C659 C 0.05588 0.38236 0.58355 0.0
H660 H 1.01571 0.33594 0.69102 0.0
C661 C 0.03715 0.39979 0.54226 0.0
H662 H 0.06198 0.34435 0.66759 0.0
C663 C 1.01081 0.39432 0.55459 0.0
C664 C 1.00288 0.37205 0.60943 0.0
H665 H 0.04297 0.41918 0.50302 0.0
H666 H 0.99667 0.4097 0.52508 0.0
C667 C 1.02156 0.35291 0.64799 0.0
C668 C 0.51753 0.34024 0.94789 0.0
C669 C 0.49753 0.3658 0.93501 0.0
H670 H 0.55808 0.32956 0.95146 0.0
C671 C 0.50403 0.40262 0.92342 0.0
H672 H 0.5132 0.31178 0.95862 0.0
C673 C 0.53003 0.41306 0.9203 0.0
C674 C 0.5501 0.38691 0.92863 0.0
H675 H 0.48913 0.42298 0.91355 0.0
H676 H 0.53435 0.44151 0.90961 0.0
C677 C 0.54342 0.35058 0.94456 0.0
C678 C 1.00848 0.6027 0.454 0.0
C679 C 0.9988 0.63781 0.47037 0.0
H680 H 0.04195 0.5702 0.42787 0.0
C681 C 1.01662 0.66594 0.48461 0.0
H682 H 0.99533 0.58063 0.4421 0.0
C683 C 0.04335 0.66 0.4769 0.0
C684 C 0.05284 0.62588 0.4538 0.0
H685 H 1.0097 0.69331 0.49736 0.0
H686 H 0.05635 0.68289 0.48329 0.0
C687 C 0.03518 0.59689 0.4454 0.0
C688 C 0.15053 0.0222 0.07586 0.0
C689 C 0.14994 0.05345 0.03385 0.0
H690 H 0.15205 0.96355 0.08036 0.0
C691 C 0.14985 0.04871 0.96153 0.0
H692 H 0.15075 0.02487 0.13152 0.0
C693 C 0.15069 0.01356 0.9319 0.0
C694 C 0.15168 0.98232 0.97393 0.0
H695 H 0.14942 0.07227 0.92749 0.0
H696 H 0.1507 0.01088 0.87624 0.0
C697 C 0.15142 0.98707 0.04625 0.0
C698 C 0.37469 0.98448 0.60428 0.0
C699 C 0.37671 0.9535 0.56151 0.0
H700 H 0.3722 0.04306 0.60958 0.0
C701 C 0.37496 0.95794 0.48953 0.0
H702 H 0.37585 0.98184 0.65984 0.0
C703 C 0.37297 0.99291 0.46061 0.0
C704 C 0.3726 0.02405 0.50319 0.0
H705 H 0.37622 0.93447 0.45515 0.0
H706 H 0.3729 0.99558 0.40497 0.0
C707 C 0.3726 0.01949 0.57533 0.0
C708 C 0.88862 0.99155 0.9631 0.0
C709 C 0.8924 0.96125 1.00637 0.0
H710 H 0.88223 0.04957 0.95669 0.0
C711 C 0.89249 0.96671 0.07844 0.0
H712 H 0.88805 0.98811 0.9076 0.0
C713 C 0.88877 1.00167 0.10674 0.0
C714 C 0.88492 0.03198 0.06358 0.0
H715 H 0.89524 0.94381 0.11337 0.0
H716 H 0.88934 0.00501 0.16226 0.0
C717 C 0.88491 0.0266 0.99146 0.0
C718 C 0.65371 0.01117 0.43797 0.0
C719 C 0.65488 0.04233 0.48025 0.0
H720 H 0.65172 0.95263 0.43293 0.0
C721 C 0.65416 0.03764 0.55258 0.0
H722 H 0.65391 0.01382 0.38233 0.0
C723 C 0.65275 0.00255 0.58193 0.0
C724 C 0.65196 0.97136 0.53962 0.0
H725 H 0.65486 0.06116 0.58685 0.0
H726 H 0.65285 0.99986 0.63757 0.0
C727 C 0.65222 0.97613 0.46729 0.0
C728 C 0.66321 0.51285 0.08186 0.0
C729 C 0.6609 0.54366 0.03915 0.0
H730 H 0.66725 0.45437 0.08719 0.0
C731 C 0.66115 0.53861 0.96694 0.0
H732 H 0.66344 0.51589 0.13746 0.0
C733 C 0.66371 0.50358 0.938 0.0
C734 C 0.66601 0.47275 0.98058 0.0
H735 H 0.65953 0.56185 0.93236 0.0
H736 H 0.66343 0.50063 0.88238 0.0
C737 C 0.66573 0.47772 0.05284 0.0
C738 C 0.89604 0.46723 0.49145 0.0
C739 C 0.89502 0.46213 0.56362 0.0
H740 H 0.89908 0.5054 0.40747 0.0
C741 C 0.89751 0.49278 0.60674 0.0
H742 H 0.89439 0.44406 0.45659 0.0
C743 C 0.90058 0.52778 0.57836 0.0
C744 C 0.90115 0.533 0.50619 0.0
H745 H 0.89719 0.48974 0.66231 0.0
H746 H 0.90207 0.55093 0.61331 0.0
C747 C 0.89904 0.50228 0.46303 0.0
C748 C 0.39676 0.46136 0.06515 0.0
C749 C 0.39638 0.45589 0.99303 0.0
H750 H 0.39752 0.49984 0.14909 0.0
C751 C 0.39656 0.48673 0.94989 0.0
H752 H 0.39661 0.43821 0.10017 0.0
C753 C 0.39707 0.5222 0.97835 0.0
C754 C 0.39735 0.52756 0.05053 0.0
H755 H 0.39619 0.4835 0.89434 0.0
H756 H 0.3972 0.54547 0.94362 0.0
C757 C 0.39721 0.49672 0.09352 0.0
C758 C 0.17086 0.51253 0.42624 0.0
C759 C 0.17099 0.54391 0.46819 0.0
H760 H 0.17189 0.45372 0.42286 0.0
C761 C 0.17492 0.53989 0.5397 0.0
H762 H 0.16804 0.51485 0.37108 0.0
C763 C 0.17711 0.5052 0.56933 0.0
C764 C 0.17555 0.47371 0.52812 0.0
H765 H 0.17551 0.56361 0.57352 0.0
H766 H 0.17904 0.50308 0.62482 0.0
C767 C 0.17315 0.47763 0.45603 0.0
C768 C 0.16749 0.32861 0.83137 0.0
C769 C 0.14378 0.32538 0.79655 0.0
H770 H 0.19108 0.30925 0.9151 0.0
C771 C 0.12396 0.30484 0.82693 0.0
H772 H 0.18318 0.34406 0.80903 0.0
C773 C 0.12837 0.28566 0.88814 0.0
C774 C 0.1527 0.2865 0.91975 0.0
H775 H 0.10547 0.30202 0.80153 0.0
H776 H 0.11339 0.26796 0.90804 0.0
C777 C 0.17201 0.30892 0.89223 0.0
C778 C 0.4205 0.70961 0.40296 0.0
C779 C 0.39971 0.72941 0.43211 0.0
H780 H 0.43404 0.67688 0.3173 0.0
C781 C 0.37571 0.72916 0.3987 0.0
H782 H 0.43934 0.71017 0.42708 0.0
C783 C 0.3729 0.71127 0.33526 0.0
C784 C 0.39391 0.6927 0.30448 0.0
H785 H 0.35958 0.74489 0.41944 0.0
H786 H 0.35445 0.71299 0.30915 0.0
C787 C 0.4175 0.69083 0.3401 0.0
C788 C 0.14944 0.72127 0.11255 0.0
C789 C 0.14582 0.75954 0.11751 0.0
H790 H 0.15745 0.67106 0.1678 0.0
C791 C 0.14437 0.77586 0.1832 0.0
H792 H 0.15085 0.70812 0.06248 0.0
C793 C 0.14883 0.7552 0.24236 0.0
C794 C 0.15425 0.71748 0.23758 0.0
H795 H 0.14143 0.80527 0.18849 0.0
H796 H 0.14885 0.76903 0.29195 0.0
C797 C 0.15342 0.70023 0.17256 0.0
C798 C 0.35511 0.28821 0.69377 0.0
C799 C 0.3757 0.29807 0.73701 0.0
H800 H 0.34314 0.25792 0.60481 0.0
C801 C 0.40101 0.28822 0.71772 0.0
H802 H 0.3354 0.29585 0.70676 0.0
C803 C 0.40541 0.26644 0.65921 0.0
C804 C 0.38462 0.25462 0.61848 0.0
H805 H 0.41728 0.29563 0.74971 0.0
H806 H 0.42495 0.25749 0.64744 0.0
C807 C 0.35954 0.26685 0.63488 0.0
C808 C 0.84696 0.70553 0.23068 0.0
C809 C 0.86963 0.68919 0.25661 0.0
H810 H 0.83022 0.74015 0.15336 0.0
C811 C 0.89244 0.69077 0.21715 0.0
H812 H 0.82894 0.70418 0.25908 0.0
C813 C 0.89302 0.71108 0.15582 0.0
C814 C 0.87079 0.72988 0.13333 0.0
H815 H 0.91017 0.67821 0.23561 0.0
H816 H 0.91122 0.71435 0.1289 0.0
C817 C 0.84756 0.72574 0.16976 0.0
C818 C 0.61655 0.28342 0.63166 0.0
C819 C 0.64059 0.27668 0.59997 0.0
H820 H 0.59612 0.30705 0.71713 0.0
C821 C 0.66263 0.29368 0.62703 0.0
H822 H 0.59923 0.27072 0.61176 0.0
C823 C 0.66087 0.31465 0.68791 0.0
C824 C 0.63707 0.31863 0.72272 0.0
H825 H 0.68144 0.28858 0.6041 0.0
H826 H 0.67837 0.32579 0.70985 0.0
C827 C 0.61482 0.30397 0.69239 0.0
C828 C 0.88417 0.28141 0.91441 0.0
C829 C 0.90576 0.26337 0.94281 0.0
H830 H 0.86939 0.31308 0.82942 0.0
C831 C 0.93001 0.26767 0.91132 0.0
H832 H 0.86521 0.27798 0.93715 0.0
C833 C 0.93232 0.28682 0.84943 0.0
C834 C 0.91048 0.30246 0.81785 0.0
H835 H 0.94691 0.25386 0.93207 0.0
H836 H 0.95111 0.28801 0.82482 0.0
C837 C 0.88654 0.30106 0.85242 0.0
C838 C 0.66334 0.72147 0.39083 0.0
C839 C 0.68464 0.74175 0.41351 0.0
H840 H 0.6478 0.68732 0.31091 0.0
C841 C 0.70801 0.73924 0.37694 0.0
H842 H 0.64502 0.7235 0.4178 0.0
C843 C 0.70958 0.71903 0.3159 0.0
C844 C 0.68776 0.70103 0.28993 0.0
H845 H 0.72463 0.75486 0.3934 0.0
H846 H 0.72763 0.71895 0.28748 0.0
C847 C 0.66489 0.70115 0.32938 0.0
C848 C 0.66371 0.79473 0.89199 0.0
C849 C 0.68555 0.77464 0.91328 0.0
H850 H 0.64699 0.82892 0.81355 0.0
C851 C 0.70867 0.77774 0.8759 0.0
H852 H 0.64559 0.79233 0.91961 0.0
C853 C 0.70948 0.79826 0.81532 0.0
C854 C 0.68711 0.81596 0.79061 0.0
H855 H 0.72573 0.76238 0.89138 0.0
H856 H 0.72737 0.7988 0.78621 0.0
C857 C 0.66448 0.81531 0.83099 0.0
C858 C 0.93413 0.20092 0.35011 0.0
C859 C 0.91201 0.18626 0.31913 0.0
H860 H 0.94935 0.23402 0.43146 0.0
C861 C 0.8881 0.18994 0.35354 0.0
H862 H 0.9529 0.19806 0.3257 0.0
C863 C 0.88609 0.21063 0.41465 0.0
C864 C 0.908 0.22766 0.44237 0.0
H865 H 0.8707 0.17876 0.33115 0.0
H866 H 0.8672 0.21556 0.43723 0.0
C867 C 0.93216 0.22121 0.4111 0.0
C868 C 0.61544 0.21909 0.19474 0.0
C869 C 0.63734 0.20282 0.22499 0.0
H870 H 0.60053 0.2528 0.11359 0.0
C871 C 0.66111 0.20438 0.1896 0.0
H872 H 0.59675 0.21782 0.2199 0.0
C873 C 0.66325 0.22459 0.12807 0.0
C874 C 0.6416 0.24313 0.10097 0.0
H875 H 0.67831 0.19193 0.21151 0.0
H876 H 0.68209 0.22786 0.10455 0.0
C877 C 0.61752 0.23882 0.13342 0.0
C878 C 0.84699 0.76548 0.67005 0.0
C879 C 0.87041 0.76312 0.63372 0.0
H880 H 0.82722 0.78562 0.75938 0.0
C881 C 0.89161 0.7836 0.65641 0.0
H882 H 0.83045 0.74973 0.65348 0.0
C883 C 0.88993 0.8039 0.71779 0.0
C884 C 0.86704 0.80381 0.7571 0.0
H885 H 0.90996 0.7817 0.62956 0.0
H886 H 0.90695 0.81786 0.73635 0.0
C887 C 0.84529 0.78568 0.73105 0.0
C888 C 0.38403 0.24541 0.20729 0.0
C889 C 0.38684 0.23091 0.14043 0.0
H890 H 0.38786 0.23626 0.31545 0.0
C891 C 0.39231 0.19321 0.13226 0.0
H892 H 0.37946 0.27427 0.21505 0.0
C893 C 0.39673 0.17108 0.19056 0.0
C894 C 0.39618 0.1868 0.25687 0.0
H895 H 0.39466 0.18147 0.0812 0.0
H896 H 0.40194 0.14239 0.18374 0.0
C897 C 0.389 0.22377 0.2647 0.0
C898 C 0.1529 0.82549 0.66676 0.0
C899 C 0.14643 0.81035 0.73112 0.0
H900 H 0.157 0.8153 0.55769 0.0
C901 C 0.13445 0.77601 0.73345 0.0
H902 H 0.1623 0.85191 0.664 0.0
C903 C 0.13069 0.75583 0.67314 0.0
C904 C 0.13939 0.76917 0.60931 0.0
H905 H 0.12919 0.76391 0.78251 0.0
H906 H 0.12305 0.72828 0.67711 0.0
C907 C 0.14964 0.80478 0.60605 0.0
C908 C 0.44185 0.78483 0.84185 0.0
C909 C 0.42012 0.80334 0.81479 0.0
H910 H 0.45639 0.74849 0.92018 0.0
C911 C 0.39696 0.80332 0.85286 0.0
H912 H 0.46005 0.78457 0.81415 0.0
C913 C 0.39498 0.78277 0.91347 0.0
C914 C 0.4162 0.7623 0.93788 0.0
H915 H 0.37989 0.81739 0.83381 0.0
H916 H 0.37639 0.78097 0.93902 0.0
C917 C 0.43991 0.76458 0.90303 0.0
C918 C 0.14724 0.20966 0.32705 0.0
C919 C 0.1721 0.20687 0.298 0.0
H920 H 0.12377 0.23302 0.40768 0.0
C921 C 0.19319 0.22083 0.33501 0.0
H922 H 0.13062 0.19905 0.29999 0.0
C923 C 0.1893 0.23936 0.39758 0.0
C924 C 0.16422 0.2447 0.42363 0.0
H925 H 0.21261 0.21871 0.3143 0.0
H926 H 0.20566 0.25189 0.42286 0.0
C927 C 0.14331 0.22881 0.38892 0.0
loop_
_geom_bond_atom_site_label_1
_geom_bond_atom_site_label_2
_geom_bond_distance
_geom_bond_site_symmetry_2
_ccdc_geom_bond_type
Co0 N4 2.148 . S
Co0 N10 2.128 . S
Co0 N20 2.194 . S
Co0 O25 2.351 . S
Co0 O26 2.155 . S
Co0 O27 2.096 . S
C1 N4 1.301 . S
C1 N5 1.328 . S
C1 H6 0.930 . S
C2 C3 1.333 . S
C2 N4 1.317 . S
C2 H7 0.930 . S
C3 C2 1.333 . S
C3 N5 1.350 . S
C3 H29 0.931 . S
N4 Co0 2.148 . S
N4 C1 1.301 . S
N4 C2 1.317 . S
N5 C1 1.328 . S
N5 C3 1.350 . S
H6 C1 0.930 . S
H7 C2 0.930 . S
C8 O9 1.224 . S
C8 O27 1.247 . S
O9 C8 1.224 . S
N10 Co0 2.128 . S
N10 C11 1.355 . S
N10 C13 1.311 . S
C11 N10 1.355 . S
C11 C12 1.363 . S
C11 H23 0.929 . S
C12 C11 1.363 . S
C12 N14 1.375 . S
C12 H30 0.931 . S
C13 N10 1.311 . S
C13 N14 1.347 . S
C13 H24 0.929 . S
N14 C12 1.375 . S
N14 C13 1.347 . S
C15 C18 1.365 . S
C15 N20 1.328 1_556 S
C15 H21 0.929 . S
C16 C17 1.362 . S
C16 C19 1.378 1_556 S
C16 H31 0.929 . S
C17 C16 1.362 . S
C17 C18 1.366 . S
C18 C15 1.365 . S
C18 C17 1.366 . S
C18 H32 0.930 . S
C19 C16 1.378 1_554 S
C19 N20 1.315 . S
C19 H22 0.930 . S
N20 Co0 2.194 . S
N20 C15 1.328 1_554 S
N20 C19 1.315 . S
H21 C15 0.929 . S
H22 C19 0.930 . S
H23 C11 0.929 . S
H24 C13 0.929 . S
O25 Co0 2.351 . S
O25 C28 1.244 . S
O26 Co0 2.155 . S
O26 C28 1.240 . S
O27 Co0 2.096 . S
O27 C8 1.247 . S
C28 O25 1.244 . S
C28 O26 1.240 . S
H29 C3 0.931 . S
H30 C12 0.931 . S
H31 C16 0.929 . S
H32 C18 0.930 . S
Co33 N37 2.148 . S
Co33 N43 2.128 . S
Co33 N53 2.194 . S
Co33 O58 2.351 . S
Co33 O59 2.155 . S
Co33 O60 2.096 . S
C34 N37 1.301 . S
C34 N38 1.328 . S
C34 H39 0.930 . S
C35 C36 1.333 . S
C35 N37 1.317 . S
C35 H40 0.930 . S
C36 C35 1.333 . S
C36 N38 1.350 . S
C36 H62 0.931 . S
N37 Co33 2.148 . S
N37 C34 1.301 . S
N37 C35 1.317 . S
N38 C34 1.328 . S
N38 C36 1.350 . S
H39 C34 0.930 . S
H40 C35 0.930 . S
C41 O42 1.224 . S
C41 O60 1.247 . S
O42 C41 1.224 . S
N43 Co33 2.128 . S
N43 C44 1.355 . S
N43 C46 1.311 . S
C44 N43 1.355 . S
C44 C45 1.363 . S
C44 H56 0.929 . S
C45 C44 1.363 . S
C45 N47 1.375 . S
C45 H63 0.931 . S
C46 N43 1.311 . S
C46 N47 1.347 . S
C46 H57 0.929 . S
N47 C45 1.375 . S
N47 C46 1.347 . S
C48 C51 1.365 . S
C48 N53 1.328 . S
C48 H54 0.929 . S
C49 C50 1.362 . S
C49 C52 1.378 . S
C49 H64 0.929 . S
C50 C49 1.362 . S
C50 C51 1.366 . S
C51 C48 1.365 . S
C51 C50 1.366 . S
C51 H65 0.930 . S
C52 C49 1.378 . S
C52 N53 1.315 . S
C52 H55 0.930 . S
N53 Co33 2.194 . S
N53 C48 1.328 . S
N53 C52 1.315 . S
H54 C48 0.929 . S
H55 C52 0.930 . S
H56 C44 0.929 . S
H57 C46 0.929 . S
O58 Co33 2.351 . S
O58 C61 1.244 . S
O59 Co33 2.155 . S
O59 C61 1.240 . S
O60 Co33 2.096 . S
O60 C41 1.247 . S
C61 O58 1.244 . S
C61 O59 1.240 . S
H62 C36 0.931 . S
H63 C45 0.931 . S
H64 C49 0.929 . S
H65 C51 0.930 . S
Co66 N70 2.148 . S
Co66 N76 2.128 . S
Co66 N86 2.194 . S
Co66 O91 2.351 . S
Co66 O92 2.155 . S
Co66 O93 2.096 . S
C67 N70 1.301 . S
C67 N71 1.328 . S
C67 H72 0.930 . S
C68 C69 1.333 . S
C68 N70 1.317 . S
C68 H73 0.930 . S
C69 C68 1.333 . S
C69 N71 1.350 . S
C69 H95 0.931 . S
N70 Co66 2.148 . S
N70 C67 1.301 . S
N70 C68 1.317 . S
N71 C67 1.328 . S
N71 C69 1.350 . S
H72 C67 0.930 . S
H73 C68 0.930 . S
C74 O75 1.224 . S
C74 O93 1.247 . S
O75 C74 1.224 . S
N76 Co66 2.128 . S
N76 C77 1.355 . S
N76 C79 1.311 . S
C77 N76 1.355 . S
C77 C78 1.363 . S
C77 H89 0.929 . S
C78 C77 1.363 . S
C78 N80 1.375 . S
C78 H96 0.931 . S
C79 N76 1.311 . S
C79 N80 1.347 . S
C79 H90 0.929 . S
N80 C78 1.375 . S
N80 C79 1.347 . S
C81 C84 1.365 . S
C81 N86 1.328 1_554 S
C81 H87 0.929 . S
C82 C83 1.362 . S
C82 C85 1.378 1_554 S
C82 H97 0.929 . S
C83 C82 1.362 . S
C83 C84 1.366 . S
C84 C81 1.365 . S
C84 C83 1.366 . S
C84 H98 0.930 . S
C85 C82 1.378 1_556 S
C85 N86 1.315 . S
C85 H88 0.930 . S
N86 Co66 2.194 . S
N86 C81 1.328 1_556 S
N86 C85 1.315 . S
H87 C81 0.929 . S
H88 C85 0.930 . S
H89 C77 0.929 . S
H90 C79 0.929 . S
O91 Co66 2.351 . S
O91 C94 1.244 . S
O92 Co66 2.155 . S
O92 C94 1.240 . S
O93 Co66 2.096 . S
O93 C74 1.247 . S
C94 O91 1.244 . S
C94 O92 1.240 . S
H95 C69 0.931 . S
H96 C78 0.931 . S
H97 C82 0.929 . S
H98 C84 0.930 . S
Co99 N103 2.148 . S
Co99 N109 2.128 . S
Co99 N119 2.194 . S
Co99 O124 2.351 . S
Co99 O125 2.155 . S
Co99 O126 2.096 . S
C100 N103 1.301 . S
C100 N104 1.328 . S
C100 H105 0.930 . S
C101 C102 1.333 . S
C101 N103 1.317 . S
C101 H106 0.930 . S
C102 C101 1.333 . S
C102 N104 1.350 . S
C102 H128 0.931 . S
N103 Co99 2.148 . S
N103 C100 1.301 . S
N103 C101 1.317 . S
N104 C100 1.328 . S
N104 C102 1.350 . S
H105 C100 0.930 . S
H106 C101 0.930 . S
C107 O108 1.224 . S
C107 O126 1.247 . S
O108 C107 1.224 . S
N109 Co99 2.128 . S
N109 C110 1.355 . S
N109 C112 1.311 . S
C110 N109 1.355 . S
C110 C111 1.363 . S
C110 H122 0.929 . S
C111 C110 1.363 . S
C111 N113 1.375 . S
C111 H129 0.931 . S
C112 N109 1.311 . S
C112 N113 1.347 . S
C112 H123 0.929 . S
N113 C111 1.375 . S
N113 C112 1.347 . S
C114 C117 1.365 . S
C114 N119 1.328 . S
C114 H120 0.929 . S
C115 C116 1.362 . S
C115 C118 1.378 . S
C115 H130 0.929 . S
C116 C115 1.362 . S
C116 C117 1.366 . S
C117 C114 1.365 . S
C117 C116 1.366 . S
C117 H131 0.930 . S
C118 C115 1.378 . S
C118 N119 1.315 . S
C118 H121 0.930 . S
N119 Co99 2.194 . S
N119 C114 1.328 . S
N119 C118 1.315 . S
H120 C114 0.929 . S
H121 C118 0.930 . S
H122 C110 0.929 . S
H123 C112 0.929 . S
O124 Co99 2.351 . S
O124 C127 1.244 . S
O125 Co99 2.155 . S
O125 C127 1.240 . S
O126 Co99 2.096 . S
O126 C107 1.247 . S
C127 O124 1.244 . S
C127 O125 1.240 . S
H128 C102 0.931 . S
H129 C111 0.931 . S
H130 C115 0.929 . S
H131 C117 0.930 . S
Co132 N136 2.148 . S
Co132 N142 2.128 . S
Co132 N152 2.194 . S
Co132 O157 2.351 . S
Co132 O158 2.155 . S
Co132 O159 2.096 . S
C133 N136 1.301 . S
C133 N137 1.328 . S
C133 H138 0.930 . S
C134 C135 1.333 . S
C134 N136 1.317 . S
C134 H139 0.930 . S
C135 C134 1.333 . S
C135 N137 1.350 . S
C135 H161 0.931 . S
N136 Co132 2.148 . S
N136 C133 1.301 . S
N136 C134 1.317 . S
N137 C133 1.328 . S
N137 C135 1.350 . S
H138 C133 0.930 . S
H139 C134 0.930 . S
C140 O141 1.224 . S
C140 O159 1.247 . S
O141 C140 1.224 . S
N142 Co132 2.128 . S
N142 C143 1.355 . S
N142 C145 1.311 . S
C143 N142 1.355 . S
C143 C144 1.363 . S
C143 H155 0.929 . S
C144 C143 1.363 . S
C144 N146 1.375 . S
C144 H162 0.931 . S
C145 N142 1.311 . S
C145 N146 1.347 . S
C145 H156 0.929 . S
N146 C144 1.375 . S
N146 C145 1.347 . S
C147 C150 1.365 . S
C147 N152 1.328 1_554 S
C147 H153 0.929 . S
C148 C149 1.362 . S
C148 C151 1.378 1_554 S
C148 H163 0.929 . S
C149 C148 1.362 . S
C149 C150 1.366 . S
C150 C147 1.365 . S
C150 C149 1.366 . S
C150 H164 0.930 . S
C151 C148 1.378 1_556 S
C151 N152 1.315 . S
C151 H154 0.930 . S
N152 Co132 2.194 . S
N152 C147 1.328 1_556 S
N152 C151 1.315 . S
H153 C147 0.929 . S
H154 C151 0.930 . S
H155 C143 0.929 . S
H156 C145 0.929 . S
O157 Co132 2.351 . S
O157 C160 1.244 . S
O158 Co132 2.155 . S
O158 C160 1.240 . S
O159 Co132 2.096 . S
O159 C140 1.247 . S
C160 O157 1.244 . S
C160 O158 1.240 . S
H161 C135 0.931 . S
H162 C144 0.931 . S
H163 C148 0.929 . S
H164 C150 0.930 . S
Co165 N169 2.148 . S
Co165 N175 2.128 . S
Co165 N185 2.194 . S
Co165 O190 2.351 . S
Co165 O191 2.155 . S
Co165 O192 2.096 . S
C166 N169 1.301 . S
C166 N170 1.328 . S
C166 H171 0.930 . S
C167 C168 1.333 . S
C167 N169 1.317 . S
C167 H172 0.930 . S
C168 C167 1.333 . S
C168 N170 1.350 . S
C168 H194 0.931 . S
N169 Co165 2.148 . S
N169 C166 1.301 . S
N169 C167 1.317 . S
N170 C166 1.328 . S
N170 C168 1.350 . S
H171 C166 0.930 . S
H172 C167 0.930 . S
C173 O174 1.224 . S
C173 O192 1.247 . S
O174 C173 1.224 . S
N175 Co165 2.128 . S
N175 C176 1.355 . S
N175 C178 1.311 . S
C176 N175 1.355 . S
C176 C177 1.363 . S
C176 H188 0.929 . S
C177 C176 1.363 . S
C177 N179 1.375 . S
C177 H195 0.931 . S
C178 N175 1.311 . S
C178 N179 1.347 . S
C178 H189 0.929 . S
N179 C177 1.375 . S
N179 C178 1.347 . S
C180 C183 1.365 . S
C180 N185 1.328 . S
C180 H186 0.929 . S
C181 C182 1.362 . S
C181 C184 1.378 . S
C181 H196 0.929 . S
C182 C181 1.362 . S
C182 C183 1.366 . S
C183 C180 1.365 . S
C183 C182 1.366 . S
C183 H197 0.930 . S
C184 C181 1.378 . S
C184 N185 1.315 . S
C184 H187 0.930 . S
N185 Co165 2.194 . S
N185 C180 1.328 . S
N185 C184 1.315 . S
H186 C180 0.929 . S
H187 C184 0.930 . S
H188 C176 0.929 . S
H189 C178 0.929 . S
O190 Co165 2.351 . S
O190 C193 1.244 . S
O191 Co165 2.155 . S
O191 C193 1.240 . S
O192 Co165 2.096 . S
O192 C173 1.247 . S
C193 O190 1.244 . S
C193 O191 1.240 . S
H194 C168 0.931 . S
H195 C177 0.931 . S
H196 C181 0.929 . S
H197 C183 0.930 . S
Co198 N202 2.148 . S
Co198 N208 2.128 . S
Co198 N218 2.194 . S
Co198 O223 2.351 . S
Co198 O224 2.155 . S
Co198 O225 2.096 . S
C199 N202 1.301 . S
C199 N203 1.328 . S
C199 H204 0.930 . S
C200 C201 1.333 . S
C200 N202 1.317 . S
C200 H205 0.930 . S
C201 C200 1.333 . S
C201 N203 1.350 . S
C201 H227 0.931 . S
N202 Co198 2.148 . S
N202 C199 1.301 . S
N202 C200 1.317 . S
N203 C199 1.328 . S
N203 C201 1.350 . S
H204 C199 0.930 . S
H205 C200 0.930 . S
C206 O207 1.224 . S
C206 O225 1.247 . S
O207 C206 1.224 . S
N208 Co198 2.128 . S
N208 C209 1.355 . S
N208 C211 1.311 . S
C209 N208 1.355 . S
C209 C210 1.363 . S
C209 H221 0.929 . S
C210 C209 1.363 . S
C210 N212 1.375 . S
C210 H228 0.931 . S
C211 N208 1.311 . S
C211 N212 1.347 . S
C211 H222 0.929 . S
N212 C210 1.375 . S
N212 C211 1.347 . S
C213 C216 1.365 . S
C213 N218 1.328 1_556 S
C213 H219 0.929 . S
C214 C215 1.362 . S
C214 C217 1.378 1_556 S
C214 H229 0.929 . S
C215 C214 1.362 . S
C215 C216 1.366 . S
C216 C213 1.365 . S
C216 C215 1.366 . S
C216 H230 0.930 . S
C217 C214 1.378 1_554 S
C217 N218 1.315 . S
C217 H220 0.930 . S
N218 Co198 2.194 . S
N218 C213 1.328 1_554 S
N218 C217 1.315 . S
H219 C213 0.929 . S
H220 C217 0.930 . S
H221 C209 0.929 . S
H222 C211 0.929 . S
O223 Co198 2.351 . S
O223 C226 1.244 . S
O224 Co198 2.155 . S
O224 C226 1.240 . S
O225 Co198 2.096 . S
O225 C206 1.247 . S
C226 O223 1.244 . S
C226 O224 1.240 . S
H227 C201 0.931 . S
H228 C210 0.931 . S
H229 C214 0.929 . S
H230 C216 0.930 . S
Co231 N235 2.148 . S
Co231 N241 2.128 . S
Co231 N251 2.194 . S
Co231 O256 2.351 . S
Co231 O257 2.155 . S
Co231 O258 2.096 . S
C232 N235 1.301 . S
C232 N236 1.328 . S
C232 H237 0.930 . S
C233 C234 1.333 . S
C233 N235 1.317 . S
C233 H238 0.930 . S
C234 C233 1.333 . S
C234 N236 1.350 . S
C234 H260 0.931 . S
N235 Co231 2.148 . S
N235 C232 1.301 . S
N235 C233 1.317 . S
N236 C232 1.328 . S
N236 C234 1.350 . S
H237 C232 0.930 . S
H238 C233 0.930 . S
C239 O240 1.224 . S
C239 O258 1.247 . S
O240 C239 1.224 . S
N241 Co231 2.128 . S
N241 C242 1.355 . S
N241 C244 1.311 . S
C242 N241 1.355 . S
C242 C243 1.363 . S
C242 H254 0.929 . S
C243 C242 1.363 . S
C243 N245 1.375 . S
C243 H261 0.931 . S
C244 N241 1.311 . S
C244 N245 1.347 . S
C244 H255 0.929 . S
N245 C243 1.375 . S
N245 C244 1.347 . S
C246 C249 1.365 . S
C246 N251 1.328 . S
C246 H252 0.929 . S
C247 C248 1.362 . S
C247 C250 1.378 . S
C247 H262 0.929 . S
C248 C247 1.362 . S
C248 C249 1.366 . S
C249 C246 1.365 . S
C249 C248 1.366 . S
C249 H263 0.930 . S
C250 C247 1.378 . S
C250 N251 1.315 . S
C250 H253 0.930 . S
N251 Co231 2.194 . S
N251 C246 1.328 . S
N251 C250 1.315 . S
H252 C246 0.929 . S
H253 C250 0.930 . S
H254 C242 0.929 . S
H255 C244 0.929 . S
O256 Co231 2.351 . S
O256 C259 1.244 . S
O257 Co231 2.155 . S
O257 C259 1.240 . S
O258 Co231 2.096 . S
O258 C239 1.247 . S
C259 O256 1.244 . S
C259 O257 1.240 . S
H260 C234 0.931 . S
H261 C243 0.931 . S
H262 C247 0.929 . S
H263 C249 0.930 . S
Co264 N268 2.148 . S
Co264 N274 2.128 . S
Co264 N284 2.194 . S
Co264 O289 2.351 . S
Co264 O290 2.155 . S
Co264 O291 2.096 . S
C265 N268 1.301 . S
C265 N269 1.328 . S
C265 H270 0.930 . S
C266 C267 1.333 . S
C266 N268 1.317 . S
C266 H271 0.930 . S
C267 C266 1.333 . S
C267 N269 1.350 . S
C267 H293 0.931 . S
N268 Co264 2.148 . S
N268 C265 1.301 . S
N268 C266 1.317 . S
N269 C265 1.328 . S
N269 C267 1.350 . S
H270 C265 0.930 . S
H271 C266 0.930 . S
C272 O273 1.224 . S
C272 O291 1.247 . S
O273 C272 1.224 . S
N274 Co264 2.128 . S
N274 C275 1.355 . S
N274 C277 1.311 . S
C275 N274 1.355 . S
C275 C276 1.363 . S
C275 H287 0.929 . S
C276 C275 1.363 . S
C276 N278 1.375 . S
C276 H294 0.931 . S
C277 N274 1.311 . S
C277 N278 1.347 . S
C277 H288 0.929 . S
N278 C276 1.375 . S
N278 C277 1.347 . S
C279 C282 1.365 . S
C279 N284 1.328 1_556 S
C279 H285 0.929 . S
C280 C281 1.362 . S
C280 C283 1.378 1_556 S
C280 H295 0.929 . S
C281 C280 1.362 . S
C281 C282 1.366 . S
C282 C279 1.365 . S
C282 C281 1.366 . S
C282 H296 0.930 . S
C283 C280 1.378 1_554 S
C283 N284 1.315 . S
C283 H286 0.930 . S
N284 Co264 2.194 . S
N284 C279 1.328 1_554 S
N284 C283 1.315 . S
H285 C279 0.929 . S
H286 C283 0.930 . S
H287 C275 0.929 . S
H288 C277 0.929 . S
O289 Co264 2.351 . S
O289 C292 1.244 . S
O290 Co264 2.155 . S
O290 C292 1.240 . S
O291 Co264 2.096 . S
O291 C272 1.247 . S
C292 O289 1.244 . S
C292 O290 1.240 . S
H293 C267 0.931 . S
H294 C276 0.931 . S
H295 C280 0.929 . S
H296 C282 0.930 . S
Co297 N301 2.148 . S
Co297 N307 2.128 . S
Co297 N317 2.194 . S
Co297 O322 2.351 . S
Co297 O323 2.155 . S
Co297 O324 2.096 . S
C298 N301 1.301 . S
C298 N302 1.328 . S
C298 H303 0.930 . S
C299 C300 1.333 . S
C299 N301 1.317 . S
C299 H304 0.930 . S
C300 C299 1.333 . S
C300 N302 1.350 . S
C300 H326 0.931 . S
N301 Co297 2.148 . S
N301 C298 1.301 . S
N301 C299 1.317 . S
N302 C298 1.328 . S
N302 C300 1.350 . S
H303 C298 0.930 . S
H304 C299 0.930 . S
C305 O306 1.224 . S
C305 O324 1.247 . S
O306 C305 1.224 . S
N307 Co297 2.128 . S
N307 C308 1.355 . S
N307 C310 1.311 . S
C308 N307 1.355 . S
C308 C309 1.363 . S
C308 H320 0.929 . S
C309 C308 1.363 . S
C309 N311 1.375 . S
C309 H327 0.931 . S
C310 N307 1.311 . S
C310 N311 1.347 . S
C310 H321 0.929 . S
N311 C309 1.375 . S
N311 C310 1.347 . S
C312 C315 1.365 . S
C312 N317 1.328 . S
C312 H318 0.929 . S
C313 C314 1.362 . S
C313 C316 1.378 . S
C313 H328 0.929 . S
C314 C313 1.362 . S
C314 C315 1.366 . S
C315 C312 1.365 . S
C315 C314 1.366 . S
C315 H329 0.930 . S
C316 C313 1.378 . S
C316 N317 1.315 . S
C316 H319 0.930 . S
N317 Co297 2.194 . S
N317 C312 1.328 . S
N317 C316 1.315 . S
H318 C312 0.929 . S
H319 C316 0.930 . S
H320 C308 0.929 . S
H321 C310 0.929 . S
O322 Co297 2.351 . S
O322 C325 1.244 . S
O323 Co297 2.155 . S
O323 C325 1.240 . S
O324 Co297 2.096 . S
O324 C305 1.247 . S
C325 O322 1.244 . S
C325 O323 1.240 . S
H326 C300 0.931 . S
H327 C309 0.931 . S
H328 C313 0.929 . S
H329 C315 0.930 . S
Co330 N334 2.148 . S
Co330 N340 2.128 . S
Co330 N350 2.194 . S
Co330 O355 2.351 . S
Co330 O356 2.155 . S
Co330 O357 2.096 . S
C331 N334 1.301 . S
C331 N335 1.328 . S
C331 H336 0.930 . S
C332 C333 1.333 . S
C332 N334 1.317 . S
C332 H337 0.930 . S
C333 C332 1.333 . S
C333 N335 1.350 . S
C333 H359 0.931 . S
N334 Co330 2.148 . S
N334 C331 1.301 . S
N334 C332 1.317 . S
N335 C331 1.328 . S
N335 C333 1.350 . S
H336 C331 0.930 . S
H337 C332 0.930 . S
C338 O339 1.224 . S
C338 O357 1.247 . S
O339 C338 1.224 . S
N340 Co330 2.128 . S
N340 C341 1.355 . S
N340 C343 1.311 . S
C341 N340 1.355 . S
C341 C342 1.363 . S
C341 H353 0.929 . S
C342 C341 1.363 . S
C342 N344 1.375 . S
C342 H360 0.931 . S
C343 N340 1.311 . S
C343 N344 1.347 . S
C343 H354 0.929 . S
N344 C342 1.375 . S
N344 C343 1.347 . S
C345 C348 1.365 . S
C345 N350 1.328 1_554 S
C345 H351 0.929 . S
C346 C347 1.362 . S
C346 C349 1.378 1_554 S
C346 H361 0.929 . S
C347 C346 1.362 . S
C347 C348 1.366 . S
C348 C345 1.365 . S
C348 C347 1.366 . S
C348 H362 0.930 . S
C349 C346 1.378 1_556 S
C349 N350 1.315 . S
C349 H352 0.930 . S
N350 Co330 2.194 . S
N350 C345 1.328 1_556 S
N350 C349 1.315 . S
H351 C345 0.929 . S
H352 C349 0.930 . S
H353 C341 0.929 . S
H354 C343 0.929 . S
O355 Co330 2.351 . S
O355 C358 1.244 . S
O356 Co330 2.155 . S
O356 C358 1.240 . S
O357 Co330 2.096 . S
O357 C338 1.247 . S
C358 O355 1.244 . S
C358 O356 1.240 . S
H359 C333 0.931 . S
H360 C342 0.931 . S
H361 C346 0.929 . S
H362 C348 0.930 . S
Co363 N367 2.148 . S
Co363 N373 2.128 . S
Co363 N383 2.194 . S
Co363 O388 2.351 . S
Co363 O389 2.155 . S
Co363 O390 2.096 . S
C364 N367 1.301 . S
C364 N368 1.328 . S
C364 H369 0.930 . S
C365 C366 1.333 . S
C365 N367 1.317 . S
C365 H370 0.930 . S
C366 C365 1.333 . S
C366 N368 1.350 . S
C366 H392 0.931 . S
N367 Co363 2.148 . S
N367 C364 1.301 . S
N367 C365 1.317 . S
N368 C364 1.328 . S
N368 C366 1.350 . S
H369 C364 0.930 . S
H370 C365 0.930 . S
C371 O372 1.224 . S
C371 O390 1.247 . S
O372 C371 1.224 . S
N373 Co363 2.128 . S
N373 C374 1.355 . S
N373 C376 1.311 . S
C374 N373 1.355 . S
C374 C375 1.363 . S
C374 H386 0.929 . S
C375 C374 1.363 . S
C375 N377 1.375 . S
C375 H393 0.931 . S
C376 N373 1.311 . S
C376 N377 1.347 . S
C376 H387 0.929 . S
N377 C375 1.375 . S
N377 C376 1.347 . S
C378 C381 1.365 . S
C378 N383 1.328 . S
C378 H384 0.929 . S
C379 C380 1.362 . S
C379 C382 1.378 . S
C379 H394 0.929 . S
C380 C379 1.362 . S
C380 C381 1.366 . S
C381 C378 1.365 . S
C381 C380 1.366 . S
C381 H395 0.930 . S
C382 C379 1.378 . S
C382 N383 1.315 . S
C382 H385 0.930 . S
N383 Co363 2.194 . S
N383 C378 1.328 . S
N383 C382 1.315 . S
H384 C378 0.929 . S
H385 C382 0.930 . S
H386 C374 0.929 . S
H387 C376 0.929 . S
O388 Co363 2.351 . S
O388 C391 1.244 . S
O389 Co363 2.155 . S
O389 C391 1.240 . S
O390 Co363 2.096 . S
O390 C371 1.247 . S
C391 O388 1.244 . S
C391 O389 1.240 . S
H392 C366 0.931 . S
H393 C375 0.931 . S
H394 C379 0.929 . S
H395 C381 0.930 . S
Co396 N400 2.148 . S
Co396 N406 2.128 . S
Co396 N416 2.194 . S
Co396 O421 2.351 . S
Co396 O422 2.155 . S
Co396 O423 2.096 . S
C397 N400 1.301 . S
C397 N401 1.328 . S
C397 H402 0.930 . S
C398 C399 1.333 . S
C398 N400 1.317 . S
C398 H403 0.930 . S
C399 C398 1.333 . S
C399 N401 1.350 . S
C399 H425 0.931 . S
N400 Co396 2.148 . S
N400 C397 1.301 . S
N400 C398 1.317 . S
N401 C397 1.328 . S
N401 C399 1.350 . S
H402 C397 0.930 . S
H403 C398 0.930 . S
C404 O405 1.224 . S
C404 O423 1.247 . S
O405 C404 1.224 . S
N406 Co396 2.128 . S
N406 C407 1.355 . S
N406 C409 1.311 . S
C407 N406 1.355 . S
C407 C408 1.363 . S
C407 H419 0.929 . S
C408 C407 1.363 . S
C408 N410 1.375 . S
C408 H426 0.931 . S
C409 N406 1.311 . S
C409 N410 1.347 . S
C409 H420 0.929 . S
N410 C408 1.375 . S
N410 C409 1.347 . S
C411 C414 1.365 . S
C411 N416 1.328 1_554 S
C411 H417 0.929 . S
C412 C413 1.362 . S
C412 C415 1.378 1_554 S
C412 H427 0.929 . S
C413 C412 1.362 . S
C413 C414 1.366 . S
C414 C411 1.365 . S
C414 C413 1.366 . S
C414 H428 0.930 . S
C415 C412 1.378 1_556 S
C415 N416 1.315 . S
C415 H418 0.930 . S
N416 Co396 2.194 . S
N416 C411 1.328 1_556 S
N416 C415 1.315 . S
H417 C411 0.929 . S
H418 C415 0.930 . S
H419 C407 0.929 . S
H420 C409 0.929 . S
O421 Co396 2.351 . S
O421 C424 1.244 . S
O422 Co396 2.155 . S
O422 C424 1.240 . S
O423 Co396 2.096 . S
O423 C404 1.247 . S
C424 O421 1.244 . S
C424 O422 1.240 . S
H425 C399 0.931 . S
H426 C408 0.931 . S
H427 C412 0.929 . S
H428 C414 0.930 . S
Co429 N433 2.148 . S
Co429 N439 2.128 . S
Co429 N449 2.194 . S
Co429 O454 2.351 . S
Co429 O455 2.155 . S
Co429 O456 2.096 . S
C430 N433 1.301 . S
C430 N434 1.328 . S
C430 H435 0.930 . S
C431 C432 1.333 . S
C431 N433 1.317 . S
C431 H436 0.930 . S
C432 C431 1.333 . S
C432 N434 1.350 . S
C432 H458 0.931 . S
N433 Co429 2.148 . S
N433 C430 1.301 . S
N433 C431 1.317 . S
N434 C430 1.328 . S
N434 C432 1.350 . S
H435 C430 0.930 . S
H436 C431 0.930 . S
C437 O438 1.224 . S
C437 O456 1.247 . S
O438 C437 1.224 . S
N439 Co429 2.128 . S
N439 C440 1.355 . S
N439 C442 1.311 . S
C440 N439 1.355 . S
C440 C441 1.363 . S
C440 H452 0.929 . S
C441 C440 1.363 . S
C441 N443 1.375 . S
C441 H459 0.931 . S
C442 N439 1.311 . S
C442 N443 1.347 . S
C442 H453 0.929 . S
N443 C441 1.375 . S
N443 C442 1.347 . S
C444 C447 1.365 . S
C444 N449 1.328 . S
C444 H450 0.929 . S
C445 C446 1.362 . S
C445 C448 1.378 . S
C445 H460 0.929 . S
C446 C445 1.362 . S
C446 C447 1.366 . S
C447 C444 1.365 . S
C447 C446 1.366 . S
C447 H461 0.930 . S
C448 C445 1.378 . S
C448 N449 1.315 . S
C448 H451 0.930 . S
N449 Co429 2.194 . S
N449 C444 1.328 . S
N449 C448 1.315 . S
H450 C444 0.929 . S
H451 C448 0.930 . S
H452 C440 0.929 . S
H453 C442 0.929 . S
O454 Co429 2.351 . S
O454 C457 1.244 . S
O455 Co429 2.155 . S
O455 C457 1.240 . S
O456 Co429 2.096 . S
O456 C437 1.247 . S
C457 O454 1.244 . S
C457 O455 1.240 . S
H458 C432 0.931 . S
H459 C441 0.931 . S
H460 C445 0.929 . S
H461 C447 0.930 . S
Co462 N466 2.148 . S
Co462 N472 2.128 . S
Co462 N482 2.194 . S
Co462 O487 2.351 . S
Co462 O488 2.155 . S
Co462 O489 2.096 . S
C463 N466 1.301 . S
C463 N467 1.328 . S
C463 H468 0.930 . S
C464 C465 1.333 . S
C464 N466 1.317 . S
C464 H469 0.930 . S
C465 C464 1.333 . S
C465 N467 1.350 . S
C465 H491 0.931 . S
N466 Co462 2.148 . S
N466 C463 1.301 . S
N466 C464 1.317 . S
N467 C463 1.328 . S
N467 C465 1.350 . S
H468 C463 0.930 . S
H469 C464 0.930 . S
C470 O471 1.224 . S
C470 O489 1.247 . S
O471 C470 1.224 . S
N472 Co462 2.128 . S
N472 C473 1.355 . S
N472 C475 1.311 . S
C473 N472 1.355 . S
C473 C474 1.363 . S
C473 H485 0.929 . S
C474 C473 1.363 . S
C474 N476 1.375 . S
C474 H492 0.931 . S
C475 N472 1.311 . S
C475 N476 1.347 . S
C475 H486 0.929 . S
N476 C474 1.375 . S
N476 C475 1.347 . S
C477 C480 1.365 . S
C477 N482 1.328 1_556 S
C477 H483 0.929 . S
C478 C479 1.362 . S
C478 C481 1.378 1_556 S
C478 H493 0.929 . S
C479 C478 1.362 . S
C479 C480 1.366 . S
C480 C477 1.365 . S
C480 C479 1.366 . S
C480 H494 0.930 . S
C481 C478 1.378 1_554 S
C481 N482 1.315 . S
C481 H484 0.930 . S
N482 Co462 2.194 . S
N482 C477 1.328 1_554 S
N482 C481 1.315 . S
H483 C477 0.929 . S
H484 C481 0.930 . S
H485 C473 0.929 . S
H486 C475 0.929 . S
O487 Co462 2.351 . S
O487 C490 1.244 . S
O488 Co462 2.155 . S
O488 C490 1.240 . S
O489 Co462 2.096 . S
O489 C470 1.247 . S
C490 O487 1.244 . S
C490 O488 1.240 . S
H491 C465 0.931 . S
H492 C474 0.931 . S
H493 C478 0.929 . S
H494 C480 0.930 . S
Co495 N499 2.148 . S
Co495 N505 2.128 . S
Co495 N515 2.194 . S
Co495 O520 2.351 . S
Co495 O521 2.155 . S
Co495 O522 2.096 . S
C496 N499 1.301 . S
C496 N500 1.328 . S
C496 H501 0.930 . S
C497 C498 1.333 . S
C497 N499 1.317 . S
C497 H502 0.930 . S
C498 C497 1.333 . S
C498 N500 1.350 . S
C498 H524 0.931 . S
N499 Co495 2.148 . S
N499 C496 1.301 . S
N499 C497 1.317 . S
N500 C496 1.328 . S
N500 C498 1.350 . S
H501 C496 0.930 . S
H502 C497 0.930 . S
C503 O504 1.224 . S
C503 O522 1.247 . S
O504 C503 1.224 . S
N505 Co495 2.128 . S
N505 C506 1.355 . S
N505 C508 1.311 . S
C506 N505 1.355 . S
C506 C507 1.363 . S
C506 H518 0.929 . S
C507 C506 1.363 . S
C507 N509 1.375 . S
C507 H525 0.931 . S
C508 N505 1.311 . S
C508 N509 1.347 . S
C508 H519 0.929 . S
N509 C507 1.375 . S
N509 C508 1.347 . S
C510 C513 1.365 . S
C510 N515 1.328 . S
C510 H516 0.929 . S
C511 C512 1.362 . S
C511 C514 1.378 . S
C511 H526 0.929 . S
C512 C511 1.362 . S
C512 C513 1.366 . S
C513 C510 1.365 . S
C513 C512 1.366 . S
C513 H527 0.930 . S
C514 C511 1.378 . S
C514 N515 1.315 . S
C514 H517 0.930 . S
N515 Co495 2.194 . S
N515 C510 1.328 . S
N515 C514 1.315 . S
H516 C510 0.929 . S
H517 C514 0.930 . S
H518 C506 0.929 . S
H519 C508 0.929 . S
O520 Co495 2.351 . S
O520 C523 1.244 . S
O521 Co495 2.155 . S
O521 C523 1.240 . S
O522 Co495 2.096 . S
O522 C503 1.247 . S
C523 O520 1.244 . S
C523 O521 1.240 . S
H524 C498 0.931 . S
H525 C507 0.931 . S
H526 C511 0.929 . S
H527 C513 0.930 . S
C528 C529 1.387 . S
C528 H532 0.950 . S
C528 C537 1.390 . S
C529 C528 1.387 . S
C529 C531 1.387 . S
H530 C537 0.950 . S
C531 C529 1.387 . S
C531 C533 1.390 . S
C531 H535 0.950 . S
H532 C528 0.950 . S
C533 C531 1.390 . S
C533 C534 1.387 . S
C533 H536 0.950 . S
C534 C533 1.387 . S
C534 C537 1.387 . S
H535 C531 0.950 . S
H536 C533 0.950 . S
C537 C528 1.390 . S
C537 H530 0.950 . S
C537 C534 1.387 . S
C538 C539 1.387 . S
C538 H542 0.950 . S
C538 C547 1.390 . S
C539 C538 1.387 . S
C539 C541 1.387 . S
H540 C547 0.950 . S
C541 C539 1.387 . S
C541 C543 1.390 . S
C541 H545 0.950 . S
H542 C538 0.950 . S
C543 C541 1.390 . S
C543 C544 1.387 . S
C543 H546 0.950 . S
C544 C543 1.387 . S
C544 C547 1.387 . S
H545 C541 0.950 . S
H546 C543 0.950 . S
C547 C538 1.390 . S
C547 H540 0.950 . S
C547 C544 1.387 . S
C548 C549 1.387 . S
C548 H552 0.950 . S
C548 C557 1.390 . S
C549 C548 1.387 . S
C549 C551 1.387 . S
H550 C557 0.950 . S
C551 C549 1.387 . S
C551 C553 1.390 . S
C551 H555 0.950 . S
H552 C548 0.950 . S
C553 C551 1.390 . S
C553 C554 1.387 . S
C553 H556 0.950 . S
C554 C553 1.387 . S
C554 C557 1.387 . S
H555 C551 0.950 . S
H556 C553 0.950 . S
C557 C548 1.390 . S
C557 H550 0.950 . S
C557 C554 1.387 . S
C558 C559 1.387 . S
C558 H562 0.950 . S
C558 C567 1.390 . S
C559 C558 1.387 . S
C559 C561 1.387 . S
H560 C567 0.950 . S
C561 C559 1.387 . S
C561 C563 1.390 . S
C561 H565 0.950 . S
H562 C558 0.950 . S
C563 C561 1.390 . S
C563 C564 1.387 . S
C563 H566 0.950 . S
C564 C563 1.387 . S
C564 C567 1.387 . S
H565 C561 0.950 . S
H566 C563 0.950 . S
C567 C558 1.390 . S
C567 H560 0.950 . S
C567 C564 1.387 . S
C568 C569 1.387 . S
C568 H572 0.950 . S
C568 C577 1.390 . S
C569 C568 1.387 . S
C569 C571 1.387 . S
H570 C577 0.950 . S
C571 C569 1.387 . S
C571 C573 1.390 . S
C571 H575 0.950 . S
H572 C568 0.950 . S
C573 C571 1.390 . S
C573 C574 1.387 . S
C573 H576 0.950 . S
C574 C573 1.387 . S
C574 C577 1.387 . S
H575 C571 0.950 . S
H576 C573 0.950 . S
C577 C568 1.390 . S
C577 H570 0.950 . S
C577 C574 1.387 . S
C578 C579 1.387 . S
C578 H582 0.950 . S
C578 C587 1.390 . S
C579 C578 1.387 . S
C579 C581 1.387 . S
H580 C587 0.950 . S
C581 C579 1.387 . S
C581 C583 1.390 . S
C581 H585 0.950 . S
H582 C578 0.950 . S
C583 C581 1.390 . S
C583 C584 1.387 . S
C583 H586 0.950 . S
C584 C583 1.387 . S
C584 C587 1.387 . S
H585 C581 0.950 . S
H586 C583 0.950 . S
C587 C578 1.390 . S
C587 H580 0.950 . S
C587 C584 1.387 . S
C588 C589 1.387 . S
C588 H592 0.950 . S
C588 C597 1.390 . S
C589 C588 1.387 . S
C589 C591 1.387 . S
H590 C597 0.950 . S
C591 C589 1.387 . S
C591 C593 1.390 . S
C591 H595 0.950 . S
H592 C588 0.950 . S
C593 C591 1.390 . S
C593 C594 1.387 . S
C593 H596 0.950 . S
C594 C593 1.387 . S
C594 C597 1.387 . S
H595 C591 0.950 . S
H596 C593 0.950 . S
C597 C588 1.390 . S
C597 H590 0.950 . S
C597 C594 1.387 . S
C598 C599 1.387 . S
C598 H602 0.950 . S
C598 C607 1.390 . S
C599 C598 1.387 . S
C599 C601 1.387 . S
H600 C607 0.950 . S
C601 C599 1.387 . S
C601 C603 1.390 . S
C601 H605 0.950 . S
H602 C598 0.950 . S
C603 C601 1.390 . S
C603 C604 1.387 . S
C603 H606 0.950 . S
C604 C603 1.387 . S
C604 C607 1.387 . S
H605 C601 0.950 . S
H606 C603 0.950 . S
C607 C598 1.390 . S
C607 H600 0.950 . S
C607 C604 1.387 . S
C608 C609 1.387 1_556 S
C608 H612 0.950 . S
C608 C617 1.390 1_655 S
C609 C608 1.387 1_554 S
C609 C611 1.387 . S
H610 C617 0.950 . S
C611 C609 1.387 . S
C611 C613 1.390 1_655 S
C611 H615 0.950 . S
H612 C608 0.950 . S
C613 C611 1.390 1_455 S
C613 C614 1.387 . S
C613 H616 0.950 . S
C614 C613 1.387 . S
C614 C617 1.387 1_554 S
H615 C611 0.950 . S
H616 C613 0.950 . S
C617 C608 1.390 1_455 S
C617 H610 0.950 . S
C617 C614 1.387 1_556 S
C618 C619 1.387 . S
C618 H622 0.950 . S
C618 C627 1.390 . S
C619 C618 1.387 . S
C619 C621 1.387 . S
H620 C627 0.950 . S
C621 C619 1.387 . S
C621 C623 1.390 . S
C621 H625 0.950 . S
H622 C618 0.950 . S
C623 C621 1.390 . S
C623 C624 1.387 . S
C623 H626 0.950 . S
C624 C623 1.387 . S
C624 C627 1.387 . S
H625 C621 0.950 . S
H626 C623 0.950 . S
C627 C618 1.390 . S
C627 H620 0.950 . S
C627 C624 1.387 . S
C628 C629 1.387 1_554 S
C628 H632 0.950 . S
C628 C637 1.390 1_655 S
C629 C628 1.387 1_556 S
C629 C631 1.387 . S
H630 C637 0.950 . S
C631 C629 1.387 . S
C631 C633 1.390 1_655 S
C631 H635 0.950 . S
H632 C628 0.950 . S
C633 C631 1.390 1_455 S
C633 C634 1.387 . S
C633 H636 0.950 . S
C634 C633 1.387 . S
C634 C637 1.387 1_556 S
H635 C631 0.950 . S
H636 C633 0.950 . S
C637 C628 1.390 1_455 S
C637 H630 0.950 . S
C637 C634 1.387 1_554 S
C638 C639 1.387 . S
C638 H642 0.950 . S
C638 C647 1.390 . S
C639 C638 1.387 . S
C639 C641 1.387 . S
H640 C647 0.950 . S
C641 C639 1.387 . S
C641 C643 1.390 . S
C641 H645 0.950 . S
H642 C638 0.950 . S
C643 C641 1.390 . S
C643 C644 1.387 . S
C643 H646 0.950 . S
C644 C643 1.387 . S
C644 C647 1.387 . S
H645 C641 0.950 . S
H646 C643 0.950 . S
C647 C638 1.390 . S
C647 H640 0.950 . S
C647 C644 1.387 . S
C648 C649 1.387 . S
C648 H652 0.950 . S
C648 C657 1.390 . S
C649 C648 1.387 . S
C649 C651 1.387 1_554 S
H650 C657 0.950 . S
C651 C649 1.387 1_556 S
C651 C653 1.390 . S
C651 H655 0.950 . S
H652 C648 0.950 . S
C653 C651 1.390 . S
C653 C654 1.387 1_556 S
C653 H656 0.950 . S
C654 C653 1.387 1_554 S
C654 C657 1.387 . S
H655 C651 0.950 . S
H656 C653 0.950 . S
C657 C648 1.390 . S
C657 H650 0.950 . S
C657 C654 1.387 . S
C658 C659 1.387 . S
C658 H662 0.950 . S
C658 C667 1.390 1_455 S
C659 C658 1.387 . S
C659 C661 1.387 . S
H660 C667 0.950 . S
C661 C659 1.387 . S
C661 C663 1.390 1_455 S
C661 H665 0.950 . S
H662 C658 0.950 . S
C663 C661 1.390 1_655 S
C663 C664 1.387 . S
C663 H666 0.950 . S
C664 C663 1.387 . S
C664 C667 1.387 . S
H665 C661 0.950 . S
H666 C663 0.950 . S
C667 C658 1.390 1_655 S
C667 H660 0.950 . S
C667 C664 1.387 . S
C668 C669 1.387 1_554 S
C668 H672 0.950 . S
C668 C677 1.390 . S
C669 C668 1.387 1_556 S
C669 C671 1.387 . S
H670 C677 0.950 . S
C671 C669 1.387 . S
C671 C673 1.390 . S
C671 H675 0.950 . S
H672 C668 0.950 . S
C673 C671 1.390 . S
C673 C674 1.387 . S
C673 H676 0.950 . S
C674 C673 1.387 . S
C674 C677 1.387 1_556 S
H675 C671 0.950 . S
H676 C673 0.950 . S
C677 C668 1.390 . S
C677 H670 0.950 . S
C677 C674 1.387 1_554 S
C678 C679 1.387 . S
C678 H682 0.950 . S
C678 C687 1.390 1_655 S
C679 C678 1.387 . S
C679 C681 1.387 . S
H680 C687 0.950 . S
C681 C679 1.387 . S
C681 C683 1.390 1_655 S
C681 H685 0.950 . S
H682 C678 0.950 . S
C683 C681 1.390 1_455 S
C683 C684 1.387 . S
C683 H686 0.950 . S
C684 C683 1.387 . S
C684 C687 1.387 . S
H685 C681 0.950 . S
H686 C683 0.950 . S
C687 C678 1.390 1_455 S
C687 H680 0.950 . S
C687 C684 1.387 . S
C688 C689 1.387 . S
C688 H692 0.950 . S
C688 C697 1.390 1_544 S
C689 C688 1.387 . S
C689 C691 1.387 . S
H690 C697 0.950 . S
C691 C689 1.387 . S
C691 C693 1.390 1_544 S
C691 H695 0.950 . S
H692 C688 0.950 . S
C693 C691 1.390 1_566 S
C693 C694 1.387 . S
C693 H696 0.950 . S
C694 C693 1.387 . S
C694 C697 1.387 . S
H695 C691 0.950 . S
H696 C693 0.950 . S
C697 C688 1.390 1_566 S
C697 H690 0.950 . S
C697 C694 1.387 . S
C698 C699 1.387 . S
C698 H702 0.950 . S
C698 C707 1.390 1_565 S
C699 C698 1.387 . S
C699 C701 1.387 . S
H700 C707 0.950 . S
C701 C699 1.387 . S
C701 C703 1.390 1_565 S
C701 H705 0.950 . S
H702 C698 0.950 . S
C703 C701 1.390 1_545 S
C703 C704 1.387 . S
C703 H706 0.950 . S
C704 C703 1.387 . S
C704 C707 1.387 . S
H705 C701 0.950 . S
H706 C703 0.950 . S
C707 C698 1.390 1_545 S
C707 H700 0.950 . S
C707 C704 1.387 . S
C708 C709 1.387 . S
C708 H712 0.950 . S
C708 C717 1.390 1_566 S
C709 C708 1.387 . S
C709 C711 1.387 . S
H710 C717 0.950 . S
C711 C709 1.387 . S
C711 C713 1.390 1_566 S
C711 H715 0.950 . S
H712 C708 0.950 . S
C713 C711 1.390 1_544 S
C713 C714 1.387 . S
C713 H716 0.950 . S
C714 C713 1.387 . S
C714 C717 1.387 . S
H715 C711 0.950 . S
H716 C713 0.950 . S
C717 C708 1.390 1_544 S
C717 H710 0.950 . S
C717 C714 1.387 . S
C718 C719 1.387 . S
C718 H722 0.950 . S
C718 C727 1.390 1_545 S
C719 C718 1.387 . S
C719 C721 1.387 . S
H720 C727 0.950 . S
C721 C719 1.387 . S
C721 C723 1.390 1_545 S
C721 H725 0.950 . S
H722 C718 0.950 . S
C723 C721 1.390 1_565 S
C723 C724 1.387 . S
C723 H726 0.950 . S
C724 C723 1.387 . S
C724 C727 1.387 . S
H725 C721 0.950 . S
H726 C723 0.950 . S
C727 C718 1.390 1_565 S
C727 H720 0.950 . S
C727 C724 1.387 . S
C728 C729 1.387 . S
C728 H732 0.950 . S
C728 C737 1.390 1_554 S
C729 C728 1.387 . S
C729 C731 1.387 . S
H730 C737 0.950 . S
C731 C729 1.387 . S
C731 C733 1.390 1_554 S
C731 H735 0.950 . S
H732 C728 0.950 . S
C733 C731 1.390 1_556 S
C733 C734 1.387 . S
C733 H736 0.950 . S
C734 C733 1.387 . S
C734 C737 1.387 . S
H735 C731 0.950 . S
H736 C733 0.950 . S
C737 C728 1.390 1_556 S
C737 H730 0.950 . S
C737 C734 1.387 . S
C738 C739 1.387 . S
C738 H742 0.950 . S
C738 C747 1.390 . S
C739 C738 1.387 . S
C739 C741 1.387 . S
H740 C747 0.950 . S
C741 C739 1.387 . S
C741 C743 1.390 . S
C741 H745 0.950 . S
H742 C738 0.950 . S
C743 C741 1.390 . S
C743 C744 1.387 . S
C743 H746 0.950 . S
C744 C743 1.387 . S
C744 C747 1.387 . S
H745 C741 0.950 . S
H746 C743 0.950 . S
C747 C738 1.390 . S
C747 H740 0.950 . S
C747 C744 1.387 . S
C748 C749 1.387 . S
C748 H752 0.950 . S
C748 C757 1.390 1_556 S
C749 C748 1.387 . S
C749 C751 1.387 . S
H750 C757 0.950 . S
C751 C749 1.387 . S
C751 C753 1.390 1_556 S
C751 H755 0.950 . S
H752 C748 0.950 . S
C753 C751 1.390 1_554 S
C753 C754 1.387 . S
C753 H756 0.950 . S
C754 C753 1.387 . S
C754 C757 1.387 . S
H755 C751 0.950 . S
H756 C753 0.950 . S
C757 C748 1.390 1_554 S
C757 H750 0.950 . S
C757 C754 1.387 . S
C758 C759 1.387 . S
C758 H762 0.950 . S
C758 C767 1.390 . S
C759 C758 1.387 . S
C759 C761 1.387 . S
H760 C767 0.950 . S
C761 C759 1.387 . S
C761 C763 1.390 . S
C761 H765 0.950 . S
H762 C758 0.950 . S
C763 C761 1.390 . S
C763 C764 1.387 . S
C763 H766 0.950 . S
C764 C763 1.387 . S
C764 C767 1.387 . S
H765 C761 0.950 . S
H766 C763 0.950 . S
C767 C758 1.390 . S
C767 H760 0.950 . S
C767 C764 1.387 . S
C768 C769 1.387 . S
C768 H772 0.950 . S
C768 C777 1.390 . S
C769 C768 1.387 . S
C769 C771 1.387 . S
H770 C777 0.950 . S
C771 C769 1.387 . S
C771 C773 1.390 . S
C771 H775 0.950 . S
H772 C768 0.950 . S
C773 C771 1.390 . S
C773 C774 1.387 . S
C773 H776 0.950 . S
C774 C773 1.387 . S
C774 C777 1.387 . S
H775 C771 0.950 . S
H776 C773 0.950 . S
C777 C768 1.390 . S
C777 H770 0.950 . S
C777 C774 1.387 . S
C778 C779 1.387 . S
C778 H782 0.950 . S
C778 C787 1.390 . S
C779 C778 1.387 . S
C779 C781 1.387 . S
H780 C787 0.950 . S
C781 C779 1.387 . S
C781 C783 1.390 . S
C781 H785 0.950 . S
H782 C778 0.950 . S
C783 C781 1.390 . S
C783 C784 1.387 . S
C783 H786 0.950 . S
C784 C783 1.387 . S
C784 C787 1.387 . S
H785 C781 0.950 . S
H786 C783 0.950 . S
C787 C778 1.390 . S
C787 H780 0.950 . S
C787 C784 1.387 . S
C788 C789 1.387 . S
C788 H792 0.950 . S
C788 C797 1.390 . S
C789 C788 1.387 . S
C789 C791 1.387 . S
H790 C797 0.950 . S
C791 C789 1.387 . S
C791 C793 1.390 . S
C791 H795 0.950 . S
H792 C788 0.950 . S
C793 C791 1.390 . S
C793 C794 1.387 . S
C793 H796 0.950 . S
C794 C793 1.387 . S
C794 C797 1.387 . S
H795 C791 0.950 . S
H796 C793 0.950 . S
C797 C788 1.390 . S
C797 H790 0.950 . S
C797 C794 1.387 . S
C798 C799 1.387 . S
C798 H802 0.950 . S
C798 C807 1.390 . S
C799 C798 1.387 . S
C799 C801 1.387 . S
H800 C807 0.950 . S
C801 C799 1.387 . S
C801 C803 1.390 . S
C801 H805 0.950 . S
H802 C798 0.950 . S
C803 C801 1.390 . S
C803 C804 1.387 . S
C803 H806 0.950 . S
C804 C803 1.387 . S
C804 C807 1.387 . S
H805 C801 0.950 . S
H806 C803 0.950 . S
C807 C798 1.390 . S
C807 H800 0.950 . S
C807 C804 1.387 . S
C808 C809 1.387 . S
C808 H812 0.950 . S
C808 C817 1.390 . S
C809 C808 1.387 . S
C809 C811 1.387 . S
H810 C817 0.950 . S
C811 C809 1.387 . S
C811 C813 1.390 . S
C811 H815 0.950 . S
H812 C808 0.950 . S
C813 C811 1.390 . S
C813 C814 1.387 . S
C813 H816 0.950 . S
C814 C813 1.387 . S
C814 C817 1.387 . S
H815 C811 0.950 . S
H816 C813 0.950 . S
C817 C808 1.390 . S
C817 H810 0.950 . S
C817 C814 1.387 . S
C818 C819 1.387 . S
C818 H822 0.950 . S
C818 C827 1.390 . S
C819 C818 1.387 . S
C819 C821 1.387 . S
H820 C827 0.950 . S
C821 C819 1.387 . S
C821 C823 1.390 . S
C821 H825 0.950 . S
H822 C818 0.950 . S
C823 C821 1.390 . S
C823 C824 1.387 . S
C823 H826 0.950 . S
C824 C823 1.387 . S
C824 C827 1.387 . S
H825 C821 0.950 . S
H826 C823 0.950 . S
C827 C818 1.390 . S
C827 H820 0.950 . S
C827 C824 1.387 . S
C828 C829 1.387 . S
C828 H832 0.950 . S
C828 C837 1.390 . S
C829 C828 1.387 . S
C829 C831 1.387 . S
H830 C837 0.950 . S
C831 C829 1.387 . S
C831 C833 1.390 . S
C831 H835 0.950 . S
H832 C828 0.950 . S
C833 C831 1.390 . S
C833 C834 1.387 . S
C833 H836 0.950 . S
C834 C833 1.387 . S
C834 C837 1.387 . S
H835 C831 0.950 . S
H836 C833 0.950 . S
C837 C828 1.390 . S
C837 H830 0.950 . S
C837 C834 1.387 . S
C838 C839 1.387 . S
C838 H842 0.950 . S
C838 C847 1.390 . S
C839 C838 1.387 . S
C839 C841 1.387 . S
H840 C847 0.950 . S
C841 C839 1.387 . S
C841 C843 1.390 . S
C841 H845 0.950 . S
H842 C838 0.950 . S
C843 C841 1.390 . S
C843 C844 1.387 . S
C843 H846 0.950 . S
C844 C843 1.387 . S
C844 C847 1.387 . S
H845 C841 0.950 . S
H846 C843 0.950 . S
C847 C838 1.390 . S
C847 H840 0.950 . S
C847 C844 1.387 . S
C848 C849 1.387 . S
C848 H852 0.950 . S
C848 C857 1.390 . S
C849 C848 1.387 . S
C849 C851 1.387 . S
H850 C857 0.950 . S
C851 C849 1.387 . S
C851 C853 1.390 . S
C851 H855 0.950 . S
H852 C848 0.950 . S
C853 C851 1.390 . S
C853 C854 1.387 . S
C853 H856 0.950 . S
C854 C853 1.387 . S
C854 C857 1.387 . S
H855 C851 0.950 . S
H856 C853 0.950 . S
C857 C848 1.390 . S
C857 H850 0.950 . S
C857 C854 1.387 . S
C858 C859 1.387 . S
C858 H862 0.950 . S
C858 C867 1.390 . S
C859 C858 1.387 . S
C859 C861 1.387 . S
H860 C867 0.950 . S
C861 C859 1.387 . S
C861 C863 1.390 . S
C861 H865 0.950 . S
H862 C858 0.950 . S
C863 C861 1.390 . S
C863 C864 1.387 . S
C863 H866 0.950 . S
C864 C863 1.387 . S
C864 C867 1.387 . S
H865 C861 0.950 . S
H866 C863 0.950 . S
C867 C858 1.390 . S
C867 H860 0.950 . S
C867 C864 1.387 . S
C868 C869 1.387 . S
C868 H872 0.950 . S
C868 C877 1.390 . S
C869 C868 1.387 . S
C869 C871 1.387 . S
H870 C877 0.950 . S
C871 C869 1.387 . S
C871 C873 1.390 . S
C871 H875 0.950 . S
H872 C868 0.950 . S
C873 C871 1.390 . S
C873 C874 1.387 . S
C873 H876 0.950 . S
C874 C873 1.387 . S
C874 C877 1.387 . S
H875 C871 0.950 . S
H876 C873 0.950 . S
C877 C868 1.390 . S
C877 H870 0.950 . S
C877 C874 1.387 . S
C878 C879 1.387 . S
C878 H882 0.950 . S
C878 C887 1.390 . S
C879 C878 1.387 . S
C879 C881 1.387 . S
H880 C887 0.950 . S
C881 C879 1.387 . S
C881 C883 1.390 . S
C881 H885 0.950 . S
H882 C878 0.950 . S
C883 C881 1.390 . S
C883 C884 1.387 . S
C883 H886 0.950 . S
C884 C883 1.387 . S
C884 C887 1.387 . S
H885 C881 0.950 . S
H886 C883 0.950 . S
C887 C878 1.390 . S
C887 H880 0.950 . S
C887 C884 1.387 . S
C888 C889 1.387 . S
C888 H892 0.950 . S
C888 C897 1.390 . S
C889 C888 1.387 . S
C889 C891 1.387 . S
H890 C897 0.950 . S
C891 C889 1.387 . S
C891 C893 1.390 . S
C891 H895 0.950 . S
H892 C888 0.950 . S
C893 C891 1.390 . S
C893 C894 1.387 . S
C893 H896 0.950 . S
C894 C893 1.387 . S
C894 C897 1.387 . S
H895 C891 0.950 . S
H896 C893 0.950 . S
C897 C888 1.390 . S
C897 H890 0.950 . S
C897 C894 1.387 . S
C898 C899 1.387 . S
C898 H902 0.950 . S
C898 C907 1.390 . S
C899 C898 1.387 . S
C899 C901 1.387 . S
H900 C907 0.950 . S
C901 C899 1.387 . S
C901 C903 1.390 . S
C901 H905 0.950 . S
H902 C898 0.950 . S
C903 C901 1.390 . S
C903 C904 1.387 . S
C903 H906 0.950 . S
C904 C903 1.387 . S
C904 C907 1.387 . S
H905 C901 0.950 . S
H906 C903 0.950 . S
C907 C898 1.390 . S
C907 H900 0.950 . S
C907 C904 1.387 . S
C908 C909 1.387 . S
C908 H912 0.950 . S
C908 C917 1.390 . S
C909 C908 1.387 . S
C909 C911 1.387 . S
H910 C917 0.950 . S
C911 C909 1.387 . S
C911 C913 1.390 . S
C911 H915 0.950 . S
H912 C908 0.950 . S
C913 C911 1.390 . S
C913 C914 1.387 . S
C913 H916 0.950 . S
C914 C913 1.387 . S
C914 C917 1.387 . S
H915 C911 0.950 . S
H916 C913 0.950 . S
C917 C908 1.390 . S
C917 H910 0.950 . S
C917 C914 1.387 . S
C918 C919 1.387 . S
C918 H922 0.950 . S
C918 C927 1.390 . S
C919 C918 1.387 . S
C919 C921 1.387 . S
H920 C927 0.950 . S
C921 C919 1.387 . S
C921 C923 1.390 . S
C921 H925 0.950 . S
H922 C918 0.950 . S
C923 C921 1.390 . S
C923 C924 1.387 . S
C923 H926 0.950 . S
C924 C923 1.387 . S
C924 C927 1.387 . S
H925 C921 0.950 . S
H926 C923 0.950 . S
C927 C918 1.390 . S
C927 H920 0.950 . S
C927 C924 1.387 . S
C529 N14 1.902 . S
C534 N113 1.902 . S
C539 N80 1.904 . S
C544 N47 1.904 . S
C549 N245 1.903 . S
C554 N146 1.903 . S
C559 N179 1.904 . S
C564 N212 1.904 . S
C569 N278 1.904 . S
C574 N377 1.904 . S
C579 N311 1.904 . S
C584 N344 1.904 . S
C589 N509 1.903 . S
C594 N410 1.903 . S
C599 N443 1.904 . S
C604 N476 1.904 . S
C609 N203 1.612 . S
C614 N5 1.611 . S
C619 N236 1.611 . S
C624 N38 1.612 . S
C629 N137 1.612 . S
C634 N71 1.611 . S
C639 N170 1.612 . S
C644 N104 1.611 . S
C649 N467 1.611 . S
C654 N269 1.612 . S
C659 N500 1.612 . S
C664 N302 1.610 . S
C669 N401 1.612 . S
C674 N335 1.611 . S
C679 N368 1.612 . S
C684 N434 1.611 . S
C689 C28 1.648 . S
C694 C94 1.648 . S
C699 C61 1.647 . S
C704 C127 1.647 . S
C709 C160 1.648 . S
C714 C226 1.648 . S
C719 C193 1.650 . S
C724 C259 1.650 . S
C729 C292 1.650 . S
C734 C358 1.650 . S
C739 C325 1.650 . S
C744 C391 1.650 . S
C749 C424 1.650 . S
C754 C490 1.650 . S
C759 C457 1.647 . S
C764 C523 1.647 . S
C769 C503 1.187 . S
C774 C17 1.192 . S
C779 C50 1.192 . S
C784 C470 1.189 . S
C789 C83 1.190 . S
C794 C437 1.187 . S
C799 C404 1.186 . S
C804 C116 1.191 . S
C809 C371 1.189 . S
C814 C149 1.192 . S
C819 C182 1.192 . S
C824 C338 1.187 . S
C829 C215 1.191 . S
C834 C305 1.188 . S
C839 C248 1.190 . S
C844 C272 1.187 . S
C849 C281 1.193 . S
C854 C239 1.189 . S
C859 C206 1.189 . S
C864 C314 1.192 . S
C869 C173 1.189 . S
C874 C347 1.191 . S
C879 C380 1.190 . S
C884 C140 1.186 . S
C889 C413 1.190 . S
C894 C107 1.187 . S
C899 C74 1.189 . S
C904 C446 1.193 . S
C909 C41 1.188 . S
C914 C479 1.192 . S
C919 C8 1.186 . S
C924 C512 1.191 . S
