# Generated by pormake.
# Topology snk, (6)-cn, num edge types: 1
# Building blocks:
#     Node 0, Type 0, BuildingBlock: LEVNOQ01_clean_sbu_1, # of connection points: 6
#     Node 1, Type 0, BuildingBlock: LEVNOQ01_clean_sbu_1, # of connection points: 6
#     Node 2, Type 0, BuildingBlock: LEVNOQ01_clean_sbu_1, # of connection points: 6
#     Node 3, Type 0, BuildingBlock: LEVNOQ01_clean_sbu_1, # of connection points: 6
#     Node 4, Type 0, BuildingBlock: LEVNOQ01_clean_sbu_1, # of connection points: 6
#     Node 5, Type 0, BuildingBlock: LEVNOQ01_clean_sbu_1, # of connection points: 6
#     Node 6, Type 0, BuildingBlock: LEVNOQ01_clean_sbu_1, # of connection points: 6
#     Node 7, Type 0, BuildingBlock: LEVNOQ01_clean_sbu_1, # of connection points: 6
#     Edge 8, Type (0, 0), BuildingBlock: AJUNOK_clean_linker_0, # of connection points: 2
#     Edge 9, Type (0, 0), BuildingBlock: AJUNOK_clean_linker_0, # of connection points: 2
#     Edge 10, Type (0, 0), BuildingBlock: AJUNOK_clean_linker_0, # of connection points: 2
#     Edge 11, Type (0, 0), BuildingBlock: AJUNOK_clean_linker_0, # of connection points: 2
#     Edge 12, Type (0, 0), BuildingBlock: AJUNOK_clean_linker_0, # of connection points: 2
#     Edge 13, Type (0, 0), BuildingBlock: AJUNOK_clean_linker_0, # of connection points: 2
#     Edge 14, Type (0, 0), BuildingBlock: AJUNOK_clean_linker_0, # of connection points: 2
#     Edge 15, Type (0, 0), BuildingBlock: AJUNOK_clean_linker_0, # of connection points: 2
#     Edge 16, Type (0, 0), BuildingBlock: AJUNOK_clean_linker_0, # of connection points: 2
#     Edge 17, Type (0, 0), BuildingBlock: AJUNOK_clean_linker_0, # of connection points: 2
#     Edge 18, Type (0, 0), BuildingBlock: AJUNOK_clean_linker_0, # of connection points: 2
#     Edge 19, Type (0, 0), BuildingBlock: AJUNOK_clean_linker_0, # of connection points: 2
#     Edge 20, Type (0, 0), BuildingBlock: AJUNOK_clean_linker_0, # of connection points: 2
#     Edge 21, Type (0, 0), BuildingBlock: AJUNOK_clean_linker_0, # of connection points: 2
#     Edge 22, Type (0, 0), BuildingBlock: AJUNOK_clean_linker_0, # of connection points: 2
#     Edge 23, Type (0, 0), BuildingBlock: AJUNOK_clean_linker_0, # of connection points: 2
#     Edge 24, Type (0, 0), BuildingBlock: AJUNOK_clean_linker_0, # of connection points: 2
#     Edge 25, Type (0, 0), BuildingBlock: AJUNOK_clean_linker_0, # of connection points: 2
#     Edge 26, Type (0, 0), BuildingBlock: AJUNOK_clean_linker_0, # of connection points: 2
#     Edge 27, Type (0, 0), BuildingBlock: AJUNOK_clean_linker_0, # of connection points: 2
#     Edge 28, Type (0, 0), BuildingBlock: AJUNOK_clean_linker_0, # of connection points: 2
#     Edge 29, Type (0, 0), BuildingBlock: AJUNOK_clean_linker_0, # of connection points: 2
#     Edge 30, Type (0, 0), BuildingBlock: AJUNOK_clean_linker_0, # of connection points: 2
#     Edge 31, Type (0, 0), BuildingBlock: AJUNOK_clean_linker_0, # of connection points: 2
# Relax obj value: 0.028
# Max RMSD: 0.083
# Mean RMSD: 0.077
data_MOF--net-snk--node1-LEVNOQ01_clean_sbu_1--edge1-AJUNOK_clean_linker_0
_symmetry_space_group_name_H-M    P1
_symmetry_Int_Tables_number       1
_symmetry_cell_setting            triclinic
loop_
_symmetry_equiv_pos_as_xyz
'x, y, z'
_cell_length_a     32.276841
_cell_length_b     32.14064
_cell_length_c     11.918766
_cell_angle_alpha  90.97794
_cell_angle_beta   90.767099
_cell_angle_gamma 89.45974
loop_
_atom_site_label
_atom_site_type_symbol
_atom_site_fract_x
_atom_site_fract_y
_atom_site_fract_z
_atom_type_partial_charge
O0 O 0.0635 0.98852 0.26057 0.0
Mg1 Mg 0.09357 0.98465 0.41864 0.0
O2 O -0.00072 0.99511 0.32268 0.0
Mg3 Mg 0.00085 0.00325 0.51348 0.0
O4 O 0.05752 0.96209 0.54363 0.0
O5 O 0.10278 0.9224 0.45754 0.0
O6 O 0.00055 0.01152 0.70594 0.0
O7 O 0.96019 0.94469 0.53172 0.0
Mg8 Mg 0.9123 0.0327 0.61932 0.0
O9 O 0.94656 0.04711 0.48522 0.0
O10 O 0.9454 0.04576 0.76963 0.0
O11 O 0.8995 0.96927 0.59347 0.0
O12 O 0.88642 0.07818 0.51855 0.0
C13 C 0.0791 0.07141 0.4959 0.0
C14 C 0.02485 0.99136 0.24296 0.0
C15 C 0.07314 0.92546 0.52826 0.0
C16 C 0.98003 0.02781 0.78645 0.0
C17 C 0.92282 0.9394 0.5615 0.0
C18 C 0.91849 0.07378 0.45596 0.0
O19 O 0.10747 0.04363 0.49281 0.0
O20 O 0.04089 0.06175 0.49421 0.0
O21 O 0.25695 0.80376 0.48543 0.0
Mg22 Mg 0.2608 0.82575 0.65236 0.0
O23 O 0.2518 0.73926 0.54086 0.0
Mg24 Mg 0.24437 0.74519 0.73431 0.0
O25 O 0.29629 0.79601 0.77067 0.0
O26 O 0.31519 0.8545 0.68561 0.0
O27 O 0.23683 0.74821 0.92195 0.0
O28 O 0.3044 0.70154 0.75281 0.0
Mg29 Mg 0.23796 0.67092 0.7777 0.0
O30 O 0.18655 0.69902 0.71026 0.0
O31 O 0.25674 0.68389 0.94897 0.0
O32 O 0.28094 0.6492 0.65667 0.0
O33 O 0.18715 0.63569 0.78715 0.0
C34 C 0.17841 0.82761 0.73159 0.0
C35 C 0.25465 0.76534 0.46233 0.0
C36 C 0.32126 0.82756 0.76311 0.0
C37 C 0.24815 0.71973 0.98838 0.0
C38 C 0.31133 0.66651 0.70484 0.0
C39 C 0.16724 0.66545 0.73861 0.0
O40 O 0.20777 0.85314 0.72475 0.0
O41 O 0.18594 0.78881 0.72167 0.0
O42 O 0.45374 0.02846 0.23371 0.0
Mg43 Mg 0.43378 0.01031 0.06823 0.0
O44 O 0.5128 0.00011 0.18741 0.0
Mg45 Mg 0.50056 0.00683 -0.00298 0.0
O46 O 0.44584 0.95474 0.98954 0.0
O47 O 0.39152 0.96651 0.10023 0.0
O48 O 0.4946 0.01227 0.80534 0.0
O49 O 0.53181 0.94167 0.96744 0.0
Mg50 Mg 0.57762 0.00164 0.94172 0.0
O51 O 0.55499 0.05664 0.00589 0.0
O52 O 0.55936 0.99309 0.77098 0.0
O53 O 0.5924 0.94923 0.04343 0.0
O54 O 0.62041 0.04689 0.94869 0.0
C55 C 0.43023 0.08342 0.97993 0.0
C56 C 0.48937 0.0156 0.2619 0.0
C57 C 0.41106 0.94232 0.03181 0.0
C58 C 0.52328 0.00285 0.73645 0.0
C59 C 0.5652 0.92519 0.00304 0.0
C60 C 0.59182 0.07117 0.98787 0.0
O61 O 0.40587 0.05386 0.96024 0.0
O62 O 0.46636 0.07396 0.01681 0.0
O63 O 0.26163 0.18306 0.48205 0.0
Mg64 Mg 0.26462 0.15063 0.32397 0.0
O65 O 0.26267 0.24884 0.42619 0.0
Mg66 Mg 0.25075 0.24714 0.23373 0.0
O67 O 0.28847 0.18925 0.20951 0.0
O68 O 0.32547 0.13701 0.26802 0.0
O69 O 0.23894 0.24659 0.04221 0.0
O70 O 0.31065 0.28556 0.19932 0.0
Mg71 Mg 0.23693 0.34306 0.16202 0.0
O72 O 0.20837 0.30184 0.25694 0.0
O73 O 0.23986 0.31366 -0.00265 0.0
O74 O 0.29229 0.34814 0.25754 0.0
O75 O 0.18216 0.36468 0.23542 0.0
C76 C 0.17923 0.17256 0.26275 0.0
C77 C 0.26265 0.22192 0.50401 0.0
C78 C 0.32359 0.17036 0.21008 0.0
C79 C 0.23945 0.27521 0.96894 0.0
C80 C 0.32016 0.32292 0.2257 0.0
C81 C 0.18053 0.32898 0.28254 0.0
O82 O 0.2049 0.14281 0.24721 0.0
O83 O 0.19168 0.20999 0.26884 0.0
O84 O 0.74583 0.31488 0.0151 0.0
Mg85 Mg 0.76124 0.34339 0.17308 0.0
O86 O 0.74972 0.24883 0.06751 0.0
Mg87 Mg 0.75267 0.24717 0.25942 0.0
O88 O 0.79382 0.30346 0.27374 0.0
O89 O 0.82561 0.35273 0.18722 0.0
O90 O 0.75397 0.24437 0.45428 0.0
O91 O 0.81254 0.20541 0.24756 0.0
Mg92 Mg 0.73547 0.15126 0.34933 0.0
O93 O 0.70916 0.19352 0.24715 0.0
O94 O 0.73581 0.18118 0.51041 0.0
O95 O 0.79393 0.13972 0.2734 0.0
O96 O 0.67975 0.13305 0.27114 0.0
C97 C 0.68246 0.32655 0.27982 0.0
C98 C 0.7449 0.27618 -0.00761 0.0
C99 C 0.82846 0.31973 0.24654 0.0
C100 C 0.74586 0.2187 0.53166 0.0
C101 C 0.82077 0.16638 0.2461 0.0
C102 C 0.67931 0.16865 0.22309 0.0
O103 O 0.70958 0.35501 0.279 0.0
O104 O 0.69316 0.28842 0.26621 0.0
O105 O 0.82231 0.73352 -0.00489 0.0
Mg106 Mg 0.80225 0.68904 0.87551 0.0
O107 O 0.76123 0.75533 0.94079 0.0
Mg108 Mg 0.75202 0.74416 0.74546 0.0
O109 O 0.80561 0.69749 0.70662 0.0
O110 O 0.8488 0.65578 0.8028 0.0
O111 O 0.73986 0.73776 0.55028 0.0
O112 O 0.80647 0.78883 0.70618 0.0
Mg113 Mg 0.73679 0.81866 0.69633 0.0
O114 O 0.69305 0.78862 0.78447 0.0
O115 O 0.7411 0.80506 0.52294 0.0
O116 O 0.78748 0.84722 0.78168 0.0
O117 O 0.68589 0.85322 0.71536 0.0
C118 C 0.71161 0.66251 0.85465 0.0
C119 C 0.7892 0.75292 0.01692 0.0
C120 C 0.83606 0.67085 0.7087 0.0
C121 C 0.74044 0.76843 0.48327 0.0
C122 C 0.81584 0.82514 0.7394 0.0
C123 C 0.67153 0.82281 0.77166 0.0
O124 O 0.746 0.65723 0.90623 0.0
O125 O 0.70645 0.6917 0.78423 0.0
O126 O 0.50294 0.43516 0.74771 0.0
Mg127 Mg 0.55161 0.45078 0.86109 0.0
O128 O 0.49425 0.49907 0.80305 0.0
Mg129 Mg 0.50241 0.49768 -0.00332 0.0
O130 O 0.5451 0.43959 0.02706 0.0
O131 O 0.58371 0.39989 0.91155 0.0
O132 O 0.51274 0.49907 0.1958 0.0
O133 O 0.45193 0.44926 -0.00087 0.0
Mg134 Mg 0.4524 0.53028 0.12497 0.0
O135 O 0.45524 0.55366 0.96563 0.0
O136 O 0.49055 0.5612 0.24165 0.0
O137 O 0.43623 0.46761 0.16988 0.0
O138 O 0.40017 0.56032 0.07937 0.0
C139 C 0.58444 0.53892 0.90643 0.0
C140 C 0.49108 0.47156 0.72589 0.0
C141 C 0.56959 0.40791 0.01041 0.0
C142 C 0.50797 0.52768 0.27051 0.0
C143 C 0.43659 0.4404 0.09237 0.0
C144 C 0.41803 0.56767 0.98575 0.0
O145 O 0.58676 0.50663 0.84325 0.0
O146 O 0.55634 0.5427 0.98019 0.0
O147 O 0.94413 0.5031 0.72238 0.0
Mg148 Mg 0.92691 0.47671 0.56126 0.0
O149 O 0.00571 0.48093 0.67945 0.0
Mg150 Mg -0.00027 0.48615 0.48782 0.0
O151 O 0.95429 0.42991 0.46508 0.0
O152 O 0.90415 0.41909 0.58845 0.0
O153 O 0.0012 0.49304 0.2945 0.0
O154 O 0.04332 0.4288 0.48049 0.0
Mg155 Mg 0.09091 0.50323 0.42251 0.0
O156 O 0.04805 0.53683 0.51256 0.0
O157 O 0.06791 0.49999 0.25268 0.0
O158 O 0.10795 0.44756 0.50607 0.0
O159 O 0.11171 0.55961 0.48512 0.0
C160 C 0.9139 0.54779 0.46201 0.0
C161 C 0.98093 0.49513 0.75232 0.0
C162 C 0.92801 0.40506 0.51046 0.0
C163 C 0.02993 0.49773 0.22293 0.0
C164 C 0.08084 0.41937 0.50173 0.0
C165 C 0.07542 0.56559 0.52664 0.0
O166 O 0.89233 0.51531 0.45562 0.0
O167 O 0.95234 0.54399 0.48891 0.0
C168 C 0.12516 0.13192 0.50849 0.0
C169 C 0.09081 0.11264 0.45771 0.0
C170 C 0.15077 0.15715 0.44586 0.0
C171 C 0.14337 0.1625 0.33041 0.0
H172 H 0.13495 0.12361 0.59258 0.0
H173 H 0.17923 0.16824 0.4846 0.0
S174 S 0.05113 0.12818 0.16788 0.0
N175 N 0.04495 0.10881 0.29407 0.0
N176 N 0.09511 0.15413 0.17393 0.0
C177 C 0.10613 0.14835 0.28298 0.0
C178 C 0.07908 0.12401 0.34809 0.0
C179 C 0.09745 0.90966 0.71634 0.0
C180 C 0.07567 0.89581 0.62017 0.0
C181 C 0.1274 0.88411 0.76686 0.0
C182 C 0.13559 0.84398 0.72341 0.0
H183 H 0.09676 0.94233 0.74051 0.0
H184 H 0.14791 0.8978 0.82976 0.0
S185 S 0.07413 0.78844 0.50355 0.0
N186 N 0.05482 0.83625 0.5061 0.0
N187 N 0.11045 0.78745 0.6026 0.0
C188 C 0.10744 0.82698 0.64431 0.0
C189 C 0.07724 0.85325 0.59233 0.0
C190 C 0.38922 0.84469 0.85603 0.0
C191 C 0.34576 0.84235 0.86089 0.0
C192 C 0.41118 0.87461 0.92055 0.0
C193 C 0.39016 0.90374 0.98959 0.0
H194 H 0.40588 0.82585 0.79505 0.0
H195 H 0.44431 0.87709 0.9092 0.0
S196 S 0.27633 0.90774 0.03613 0.0
N197 N 0.28305 0.86874 0.9464 0.0
N198 N 0.32324 0.92502 0.06587 0.0
C199 C 0.347 0.8988 0.00246 0.0
C200 C 0.32508 0.86809 0.9383 0.0
C201 C 0.42476 0.1482 0.09524 0.0
C202 C 0.41156 0.12513 0.00019 0.0
C203 C 0.39638 0.17277 0.15587 0.0
C204 C 0.35452 0.17507 0.122 0.0
H205 H 0.45486 0.1422 0.13311 0.0
H206 H 0.40562 0.18418 0.23849 0.0
S207 S 0.30962 0.13476 0.85484 0.0
N208 N 0.35777 0.11679 0.85658 0.0
N209 N 0.30489 0.16356 0.97019 0.0
C210 C 0.34386 0.1603 0.01412 0.0
C211 C 0.37242 0.1348 0.95308 0.0
C212 C 0.91797 0.87346 0.66249 0.0
C213 C 0.90535 0.89792 0.57095 0.0
C214 C 0.88952 0.84757 0.71536 0.0
C215 C 0.84812 0.84631 0.67776 0.0
H216 H 0.94824 0.87796 0.70104 0.0
H217 H 0.89903 0.83107 0.79004 0.0
S218 S 0.80286 0.89816 0.42869 0.0
N219 N 0.85163 0.91315 0.43326 0.0
N220 N 0.79773 0.86695 0.53594 0.0
C221 C 0.83683 0.8671 0.57943 0.0
C222 C 0.86584 0.892 0.52413 0.0
C223 C 0.92095 0.14237 0.3739 0.0
C224 C 0.92052 0.09905 0.35481 0.0
C225 C 0.89271 0.16835 0.31737 0.0
C226 C 0.86402 0.15118 0.24024 0.0
H227 H 0.93723 0.15503 0.44674 0.0
H228 H 0.88855 0.19994 0.34878 0.0
S229 S 0.86585 0.04398 0.12225 0.0
N230 N 0.90033 0.04329 0.22604 0.0
N231 N 0.84829 0.09239 0.11688 0.0
C232 C 0.8714 0.11045 0.20016 0.0
C233 C 0.89971 0.08402 0.25858 0.0
C234 C 0.66071 0.16323 0.02788 0.0
C235 C 0.64815 0.17625 0.13504 0.0
C236 C 0.63895 0.13157 0.97111 0.0
C237 C 0.60296 0.11465 0.01756 0.0
H238 H 0.69154 0.17048 -0.00044 0.0
H239 H 0.65306 0.11709 0.89811 0.0
S240 S 0.54493 0.16032 0.25656 0.0
N241 N 0.5891 0.18592 0.25648 0.0
N242 N 0.5469 0.12706 0.1493 0.0
C243 C 0.58434 0.1367 0.10659 0.0
C244 C 0.60698 0.1686 0.16416 0.0
C245 C 0.63461 0.83296 0.95025 0.0
C246 C 0.63293 0.83084 0.83244 0.0
C247 C 0.60842 0.86042 0.00958 0.0
C248 C 0.57908 0.88519 0.95257 0.0
H249 H 0.65978 0.81786 -0.00473 0.0
H250 H 0.61397 0.86534 0.09865 0.0
S251 S 0.55594 0.8822 0.64631 0.0
N252 N 0.59535 0.84965 0.66285 0.0
N253 N 0.54436 0.89903 0.77382 0.0
C254 C 0.57268 0.87777 0.83669 0.0
C255 C 0.60013 0.85096 0.77646 0.0
C256 C 0.60636 0.61341 0.89616 0.0
C257 C 0.61662 0.57076 0.89755 0.0
C258 C 0.63713 0.64343 0.88081 0.0
C259 C 0.67897 0.63153 0.86993 0.0
H260 H 0.57438 0.62347 0.90414 0.0
H261 H 0.62827 0.67601 0.87857 0.0
S262 S 0.72159 0.524 0.87289 0.0
N263 N 0.67125 0.51837 0.88895 0.0
N264 N 0.72895 0.57455 0.86342 0.0
C265 C 0.68946 0.58909 0.87385 0.0
C266 C 0.65828 0.55873 0.88683 0.0
C267 C 0.62647 0.38015 0.27493 0.0
C268 C 0.6397 0.33926 0.24856 0.0
C269 C 0.59889 0.40143 0.20368 0.0
C270 C 0.58412 0.38228 0.10438 0.0
H271 H 0.64137 0.39744 0.34285 0.0
H272 H 0.59311 0.43426 0.21957 0.0
S273 S 0.59809 0.27194 0.0175 0.0
N274 N 0.62694 0.27734 0.13221 0.0
N275 N 0.57604 0.31783 -0.00221 0.0
C276 C 0.59154 0.33961 0.08749 0.0
C277 C 0.61893 0.31774 0.16067 0.0
C278 C 0.88624 0.34041 0.50322 0.0
C279 C 0.91802 0.36424 0.45701 0.0
C280 C 0.86051 0.31595 0.43391 0.0
C281 C 0.866 0.31526 0.31734 0.0
H282 H 0.87723 0.34547 0.58959 0.0
H283 H 0.8322 0.30431 0.46891 0.0
S284 S 0.95776 0.35291 0.16766 0.0
N285 N 0.96363 0.37121 0.29726 0.0
N286 N 0.91467 0.32552 0.16693 0.0
C287 C 0.9038 0.3296 0.27635 0.0
C288 C 0.9301 0.35447 0.34667 0.0
C289 C 0.89539 0.65316 0.58797 0.0
C290 C 0.85251 0.65221 0.60523 0.0
C291 C 0.91502 0.62211 0.52364 0.0
C292 C 0.89238 0.58843 0.47817 0.0
H293 H 0.91436 0.67549 0.6338 0.0
H294 H 0.94858 0.62188 0.52177 0.0
S295 S 0.77774 0.57805 0.47751 0.0
N296 N 0.78693 0.62024 0.5546 0.0
N297 N 0.82345 0.56157 0.43353 0.0
C298 C 0.84867 0.59094 0.4805 0.0
C299 C 0.82876 0.62287 0.54519 0.0
C300 C 0.39441 0.34366 0.22012 0.0
C301 C 0.35488 0.34241 0.16982 0.0
C302 C 0.423 0.3738 0.18802 0.0
C303 C 0.41253 0.40265 0.10448 0.0
H304 H 0.40188 0.32388 0.29039 0.0
H305 H 0.45219 0.37636 0.23347 0.0
S306 S 0.3141 0.41036 0.94454 0.0
N307 N 0.30782 0.37092 0.02933 0.0
N308 N 0.36188 0.42646 0.96781 0.0
C309 C 0.37469 0.39921 0.04745 0.0
C310 C 0.34566 0.36919 0.08058 0.0
C311 C 0.35411 0.57855 0.87453 0.0
C312 C 0.39466 0.59096 0.90047 0.0
C313 C 0.32894 0.60172 0.80261 0.0
C314 C 0.34286 0.63902 0.75627 0.0
H315 H 0.34138 0.55108 0.91221 0.0
H316 H 0.29729 0.59159 0.78927 0.0
S317 S 0.44741 0.68423 0.79652 0.0
N318 N 0.44884 0.64132 0.87106 0.0
N319 N 0.40049 0.68666 0.73916 0.0
C320 C 0.38383 0.65136 0.77942 0.0
C321 C 0.41004 0.62681 0.85064 0.0
C322 C 0.1112 0.66642 0.59329 0.0
C323 C 0.12389 0.65769 0.70355 0.0
C324 C 0.08236 0.64057 0.53796 0.0
C325 C 0.06794 0.60456 0.59026 0.0
H326 H 0.12791 0.68874 0.54449 0.0
H327 H 0.07857 0.64366 0.44798 0.0
S328 S 0.07394 0.58432 0.89467 0.0
N329 N 0.10578 0.62351 0.87628 0.0
N330 N 0.05355 0.57339 0.76966 0.0
C331 C 0.07157 0.60305 0.70742 0.0
C332 C 0.10001 0.62985 0.76469 0.0
C333 C 0.10773 0.32764 0.32995 0.0
C334 C 0.1489 0.3224 0.36709 0.0
C335 C 0.08089 0.35447 0.3884 0.0
C336 C 0.09507 0.37609 0.48494 0.0
H337 H 0.09879 0.31756 0.24586 0.0
H338 H 0.05207 0.36347 0.34752 0.0
S339 S 0.19199 0.35533 0.64317 0.0
N340 N 0.19649 0.32738 0.5261 0.0
N341 N 0.14599 0.37814 0.63627 0.0
C342 C 0.13191 0.36251 0.53641 0.0
C343 C 0.15896 0.33494 0.47732 0.0
C344 C 0.98317 0.04653 0.99007 0.0
C345 C 0.99231 0.01831 0.90236 0.0
C346 C 0.99207 0.03646 0.10153 0.0
C347 C 0.01038 -0.00193 0.12825 0.0
H348 H 0.96932 0.07659 0.97243 0.0
H349 H 0.98562 0.05927 0.16705 0.0
S350 S 0.03182 0.91015 0.93291 0.0
N351 N 0.01462 0.94789 0.85173 0.0
N352 N 0.03252 0.92979 0.06187 0.0
C353 C 0.01795 0.96887 0.04252 0.0
C354 C 0.00861 0.97884 0.92914 0.0
C355 C 0.24797 0.78183 0.25995 0.0
C356 C 0.25405 0.7517 0.34292 0.0
C357 C 0.24647 0.7709 0.1464 0.0
C358 C 0.25109 0.7293 0.11003 0.0
H359 H 0.24388 0.81439 0.28251 0.0
H360 H 0.24156 0.79558 0.08673 0.0
S361 S 0.26902 0.6382 0.29264 0.0
N362 N 0.2656 0.67824 0.38088 0.0
N363 N 0.26288 0.65755 0.16592 0.0
C364 C 0.25773 0.69863 0.19154 0.0
C365 C 0.25909 0.70985 0.30823 0.0
C366 C 0.48481 0.982 0.56281 0.0
C367 C 0.5158 0.00587 0.61541 0.0
C368 C 0.47712 0.98509 0.44733 0.0
C369 C 0.50014 0.01214 0.38145 0.0
H370 H 0.46654 0.9608 0.61114 0.0
H371 H 0.45286 0.9663 0.40917 0.0
S372 S 0.58422 0.08193 0.4814 0.0
N373 N 0.56952 0.05756 0.59497 0.0
N374 N 0.55505 0.06342 0.37718 0.0
C375 C 0.53161 0.03586 0.43298 0.0
C376 C 0.53945 0.03266 0.55055 0.0
C377 C 0.23054 0.22416 0.8094 0.0
C378 C 0.24428 0.26319 0.84887 0.0
C379 C 0.23751 0.21082 0.69856 0.0
C380 C 0.25859 0.23593 0.62256 0.0
H381 H 0.21423 0.20367 0.86459 0.0
H382 H 0.22565 0.18077 0.67191 0.0
S383 S 0.30443 0.33911 0.6865 0.0
N384 N 0.2821 0.32584 0.8043 0.0
N385 N 0.2954 0.30053 0.59654 0.0
C386 C 0.27318 0.27468 0.66126 0.0
C387 C 0.26591 0.28838 0.77408 0.0
C388 C 0.70977 0.24328 0.8263 0.0
C389 C 0.74458 0.26273 0.8747 0.0
C390 C 0.71054 0.22875 0.71464 0.0
C391 C 0.74608 0.23344 0.64902 0.0
H392 H 0.68198 0.23934 0.87483 0.0
H393 H 0.68313 0.21413 0.67905 0.0
S394 S 0.8463 0.2781 0.74357 0.0
N395 N 0.81587 0.28371 0.85314 0.0
N396 N 0.81771 0.2558 0.6438 0.0
C397 C 0.78119 0.25216 0.69783 0.0
C398 C 0.7803 0.26701 0.81088 0.0
C399 C 0.7706 0.72823 0.32185 0.0
C400 C 0.74765 0.76276 0.36102 0.0
C401 C 0.78536 0.72642 0.21161 0.0
C402 C 0.77717 0.75868 0.13554 0.0
H403 H 0.77871 0.70316 0.37792 0.0
H404 H 0.80284 0.6991 0.18519 0.0
S405 S 0.71655 0.85488 0.1935 0.0
N406 N 0.71602 0.82945 0.31278 0.0
N407 N 0.74348 0.82541 0.10542 0.0
C408 C 0.75324 0.79277 0.17214 0.0
C409 C 0.73851 0.79492 0.28475 0.0
C410 C 0.50711 0.45908 0.52435 0.0
C411 C 0.49015 0.48516 0.60818 0.0
C412 C 0.5155 0.47407 0.41781 0.0
C413 C 0.50676 0.51565 0.38983 0.0
H414 H 0.51539 0.42708 0.54189 0.0
H415 H 0.52824 0.45248 0.35629 0.0
S416 S 0.45948 0.59604 0.57785 0.0
N417 N 0.46249 0.55389 0.65471 0.0
N418 N 0.47924 0.58263 0.45531 0.0
C419 C 0.48927 0.54204 0.47277 0.0
C420 C 0.4803 0.52654 0.58107 0.0
C421 C 0.03026 0.47788 0.90875 0.0
C422 C -0.00544 0.49944 0.87136 0.0
C423 C 0.0423 0.47854 0.02224 0.0
C424 C 0.01889 0.50047 0.10263 0.0
H425 H 0.0485 0.45935 0.85051 0.0
H426 H 0.06926 0.46053 0.04775 0.0
S427 S 0.92897 0.56986 0.04571 0.0
N428 N 0.94014 0.54902 0.92194 0.0
N429 N 0.96262 0.54963 0.13555 0.0
C430 C 0.98492 0.52446 0.06574 0.0
C431 C 0.97278 0.5241 0.95001 0.0
loop_
_geom_bond_atom_site_label_1
_geom_bond_atom_site_label_2
_geom_bond_distance
_geom_bond_site_symmetry_2
_ccdc_geom_bond_type
O0 Mg1 1.990 . S
O0 C14 1.253 . S
Mg1 O0 1.990 . S
Mg1 O4 2.180 . S
Mg1 O5 2.117 . S
Mg1 O19 2.030 1_565 S
O2 Mg3 2.072 1_655 S
O2 C14 1.260 1_645 S
Mg3 O2 2.072 1_455 S
Mg3 O4 2.099 1_545 S
Mg3 O6 2.079 . S
Mg3 O7 2.072 1_445 S
Mg3 O9 2.099 1_455 S
Mg3 O20 2.079 . S
O4 Mg1 2.180 . S
O4 Mg3 2.099 1_565 S
O4 C15 1.279 . S
O5 Mg1 2.117 . S
O5 C15 1.250 . S
O6 Mg3 2.079 . S
O6 C16 1.264 1_455 S
O7 Mg3 2.072 1_665 S
O7 C17 1.260 . S
Mg8 O9 2.180 . S
Mg8 O10 2.030 . S
Mg8 O11 1.990 1_545 S
Mg8 O12 2.117 . S
O9 Mg3 2.099 1_655 S
O9 Mg8 2.180 . S
O9 C18 1.279 . S
O10 Mg8 2.030 . S
O10 C16 1.248 . S
O11 Mg8 1.990 1_565 S
O11 C17 1.253 . S
O12 Mg8 2.117 . S
O12 C18 1.250 . S
C13 O19 1.248 . S
C13 O20 1.264 . S
C14 O0 1.253 . S
C14 O2 1.260 1_465 S
C15 O4 1.279 . S
C15 O5 1.250 . S
C16 O6 1.264 1_655 S
C16 O10 1.248 . S
C17 O7 1.260 . S
C17 O11 1.253 . S
C18 O9 1.279 . S
C18 O12 1.250 . S
O19 Mg1 2.030 1_545 S
O19 C13 1.248 . S
O20 Mg3 2.079 . S
O20 C13 1.264 . S
O21 Mg22 1.990 . S
O21 C35 1.253 . S
Mg22 O21 1.990 . S
Mg22 O25 2.180 . S
Mg22 O26 2.117 . S
Mg22 O40 2.030 . S
O23 Mg24 2.072 . S
O23 C35 1.260 . S
Mg24 O23 2.072 . S
Mg24 O25 2.099 . S
Mg24 O27 2.079 . S
Mg24 O28 2.072 . S
Mg24 O30 2.099 . S
Mg24 O41 2.079 . S
O25 Mg22 2.180 . S
O25 Mg24 2.099 . S
O25 C36 1.279 . S
O26 Mg22 2.117 . S
O26 C36 1.250 . S
O27 Mg24 2.079 . S
O27 C37 1.264 1_556 S
O28 Mg24 2.072 . S
O28 C38 1.260 . S
Mg29 O30 2.180 . S
Mg29 O31 2.030 1_556 S
Mg29 O32 1.990 . S
Mg29 O33 2.117 . S
O30 Mg24 2.099 . S
O30 Mg29 2.180 . S
O30 C39 1.279 . S
O31 Mg29 2.030 1_554 S
O31 C37 1.248 . S
O32 Mg29 1.990 . S
O32 C38 1.253 . S
O33 Mg29 2.117 . S
O33 C39 1.250 . S
C34 O40 1.248 . S
C34 O41 1.264 . S
C35 O21 1.253 . S
C35 O23 1.260 . S
C36 O25 1.279 . S
C36 O26 1.250 . S
C37 O27 1.264 1_554 S
C37 O31 1.248 . S
C38 O28 1.260 . S
C38 O32 1.253 . S
C39 O30 1.279 . S
C39 O33 1.250 . S
O40 Mg22 2.030 . S
O40 C34 1.248 . S
O41 Mg24 2.079 . S
O41 C34 1.264 . S
O42 Mg43 1.990 . S
O42 C56 1.253 . S
Mg43 O42 1.990 . S
Mg43 O46 2.180 1_554 S
Mg43 O47 2.117 . S
Mg43 O61 2.030 1_565 S
O44 Mg45 2.072 1_554 S
O44 C56 1.260 1_545 S
Mg45 O44 2.072 1_556 S
Mg45 O46 2.099 1_545 S
Mg45 O48 2.079 . S
Mg45 O49 2.072 1_545 S
Mg45 O51 2.099 . S
Mg45 O62 2.079 1_556 S
O46 Mg43 2.180 1_556 S
O46 Mg45 2.099 1_565 S
O46 C57 1.279 . S
O47 Mg43 2.117 . S
O47 C57 1.250 1_554 S
O48 Mg45 2.079 . S
O48 C58 1.264 . S
O49 Mg45 2.072 1_565 S
O49 C59 1.260 . S
Mg50 O51 2.180 . S
Mg50 O52 2.030 . S
Mg50 O53 1.990 1_545 S
Mg50 O54 2.117 1_556 S
O51 Mg45 2.099 . S
O51 Mg50 2.180 . S
O51 C60 1.279 1_556 S
O52 Mg50 2.030 . S
O52 C58 1.248 . S
O53 Mg50 1.990 1_565 S
O53 C59 1.253 . S
O54 Mg50 2.117 1_554 S
O54 C60 1.250 . S
C55 O61 1.248 . S
C55 O62 1.264 . S
C56 O42 1.253 . S
C56 O44 1.260 1_565 S
C57 O46 1.279 . S
C57 O47 1.250 1_556 S
C58 O48 1.264 . S
C58 O52 1.248 . S
C59 O49 1.260 . S
C59 O53 1.253 . S
C60 O51 1.279 1_554 S
C60 O54 1.250 . S
O61 Mg43 2.030 1_545 S
O61 C55 1.248 . S
O62 Mg45 2.079 1_554 S
O62 C55 1.264 . S
O63 Mg64 1.990 . S
O63 C77 1.253 . S
Mg64 O63 1.990 . S
Mg64 O67 2.180 . S
Mg64 O68 2.117 . S
Mg64 O82 2.030 . S
O65 Mg66 2.072 . S
O65 C77 1.260 . S
Mg66 O65 2.072 . S
Mg66 O67 2.099 . S
Mg66 O69 2.079 . S
Mg66 O70 2.072 . S
Mg66 O72 2.099 . S
Mg66 O83 2.079 . S
O67 Mg64 2.180 . S
O67 Mg66 2.099 . S
O67 C78 1.279 . S
O68 Mg64 2.117 . S
O68 C78 1.250 . S
O69 Mg66 2.079 . S
O69 C79 1.264 1_554 S
O70 Mg66 2.072 . S
O70 C80 1.260 . S
Mg71 O72 2.180 . S
Mg71 O73 2.030 1_554 S
Mg71 O74 1.990 . S
Mg71 O75 2.117 . S
O72 Mg66 2.099 . S
O72 Mg71 2.180 . S
O72 C81 1.279 . S
O73 Mg71 2.030 1_556 S
O73 C79 1.248 . S
O74 Mg71 1.990 . S
O74 C80 1.253 . S
O75 Mg71 2.117 . S
O75 C81 1.250 . S
C76 O82 1.248 . S
C76 O83 1.264 . S
C77 O63 1.253 . S
C77 O65 1.260 . S
C78 O67 1.279 . S
C78 O68 1.250 . S
C79 O69 1.264 1_556 S
C79 O73 1.248 . S
C80 O70 1.260 . S
C80 O74 1.253 . S
C81 O72 1.279 . S
C81 O75 1.250 . S
O82 Mg64 2.030 . S
O82 C76 1.248 . S
O83 Mg66 2.079 . S
O83 C76 1.264 . S
O84 Mg85 1.990 . S
O84 C98 1.253 . S
Mg85 O84 1.990 . S
Mg85 O88 2.180 . S
Mg85 O89 2.117 . S
Mg85 O103 2.030 . S
O86 Mg87 2.072 . S
O86 C98 1.260 . S
Mg87 O86 2.072 . S
Mg87 O88 2.099 . S
Mg87 O90 2.079 . S
Mg87 O91 2.072 . S
Mg87 O93 2.099 . S
Mg87 O104 2.079 . S
O88 Mg85 2.180 . S
O88 Mg87 2.099 . S
O88 C99 1.279 . S
O89 Mg85 2.117 . S
O89 C99 1.250 . S
O90 Mg87 2.079 . S
O90 C100 1.264 . S
O91 Mg87 2.072 . S
O91 C101 1.260 . S
Mg92 O93 2.180 . S
Mg92 O94 2.030 . S
Mg92 O95 1.990 . S
Mg92 O96 2.117 . S
O93 Mg87 2.099 . S
O93 Mg92 2.180 . S
O93 C102 1.279 . S
O94 Mg92 2.030 . S
O94 C100 1.248 . S
O95 Mg92 1.990 . S
O95 C101 1.253 . S
O96 Mg92 2.117 . S
O96 C102 1.250 . S
C97 O103 1.248 . S
C97 O104 1.264 . S
C98 O84 1.253 . S
C98 O86 1.260 . S
C99 O88 1.279 . S
C99 O89 1.250 . S
C100 O90 1.264 . S
C100 O94 1.248 . S
C101 O91 1.260 . S
C101 O95 1.253 . S
C102 O93 1.279 . S
C102 O96 1.250 . S
O103 Mg85 2.030 . S
O103 C97 1.248 . S
O104 Mg87 2.079 . S
O104 C97 1.264 . S
O105 Mg106 1.990 1_554 S
O105 C119 1.254 . S
Mg106 O105 1.990 1_556 S
Mg106 O109 2.180 . S
Mg106 O110 2.117 . S
Mg106 O124 2.030 . S
O107 Mg108 2.072 . S
O107 C119 1.255 1_556 S
Mg108 O107 2.072 . S
Mg108 O109 2.099 . S
Mg108 O111 2.079 . S
Mg108 O112 2.072 . S
Mg108 O114 2.099 . S
Mg108 O125 2.079 . S
O109 Mg106 2.180 . S
O109 Mg108 2.099 . S
O109 C120 1.279 . S
O110 Mg106 2.117 . S
O110 C120 1.250 . S
O111 Mg108 2.079 . S
O111 C121 1.264 . S
O112 Mg108 2.072 . S
O112 C122 1.260 . S
Mg113 O114 2.180 . S
Mg113 O115 2.030 . S
Mg113 O116 1.990 . S
Mg113 O117 2.117 . S
O114 Mg108 2.099 . S
O114 Mg113 2.180 . S
O114 C123 1.279 . S
O115 Mg113 2.030 . S
O115 C121 1.248 . S
O116 Mg113 1.990 . S
O116 C122 1.253 . S
O117 Mg113 2.117 . S
O117 C123 1.250 . S
C118 O124 1.248 . S
C118 O125 1.264 . S
C119 O105 1.254 . S
C119 O107 1.255 1_554 S
C120 O109 1.279 . S
C120 O110 1.250 . S
C121 O111 1.264 . S
C121 O115 1.248 . S
C122 O112 1.260 . S
C122 O116 1.253 . S
C123 O114 1.279 . S
C123 O117 1.250 . S
O124 Mg106 2.030 . S
O124 C118 1.248 . S
O125 Mg108 2.079 . S
O125 C118 1.264 . S
O126 Mg127 1.990 . S
O126 C140 1.253 . S
Mg127 O126 1.990 . S
Mg127 O130 2.180 1_556 S
Mg127 O131 2.117 . S
Mg127 O145 2.030 . S
O128 Mg129 2.072 1_556 S
O128 C140 1.260 . S
Mg129 O128 2.072 1_554 S
Mg129 O130 2.099 . S
Mg129 O132 2.079 . S
Mg129 O133 2.072 . S
Mg129 O135 2.099 . S
Mg129 O146 2.079 . S
O130 Mg127 2.180 1_554 S
O130 Mg129 2.099 . S
O130 C141 1.279 . S
O131 Mg127 2.117 . S
O131 C141 1.250 1_556 S
O132 Mg129 2.079 . S
O132 C142 1.264 . S
O133 Mg129 2.072 . S
O133 C143 1.260 . S
Mg134 O135 2.180 . S
Mg134 O136 2.030 . S
Mg134 O137 1.990 . S
Mg134 O138 2.117 . S
O135 Mg129 2.099 . S
O135 Mg134 2.180 . S
O135 C144 1.279 1_554 S
O136 Mg134 2.030 . S
O136 C142 1.248 . S
O137 Mg134 1.990 . S
O137 C143 1.253 . S
O138 Mg134 2.117 . S
O138 C144 1.250 1_554 S
C139 O145 1.248 . S
C139 O146 1.264 1_556 S
C140 O126 1.253 . S
C140 O128 1.260 . S
C141 O130 1.279 . S
C141 O131 1.250 1_554 S
C142 O132 1.264 . S
C142 O136 1.248 . S
C143 O133 1.260 . S
C143 O137 1.253 . S
C144 O135 1.279 1_556 S
C144 O138 1.250 1_556 S
O145 Mg127 2.030 . S
O145 C139 1.248 . S
O146 Mg129 2.079 . S
O146 C139 1.264 1_554 S
O147 Mg148 1.990 . S
O147 C161 1.253 . S
Mg148 O147 1.990 . S
Mg148 O151 2.180 . S
Mg148 O152 2.117 . S
Mg148 O166 2.030 . S
O149 Mg150 2.072 . S
O149 C161 1.260 1_455 S
Mg150 O149 2.072 . S
Mg150 O151 2.099 1_455 S
Mg150 O153 2.079 1_455 S
Mg150 O154 2.072 . S
Mg150 O156 2.099 . S
Mg150 O167 2.079 1_455 S
O151 Mg148 2.180 . S
O151 Mg150 2.099 1_655 S
O151 C162 1.279 . S
O152 Mg148 2.117 . S
O152 C162 1.250 . S
O153 Mg150 2.079 1_655 S
O153 C163 1.264 1_655 S
O154 Mg150 2.072 . S
O154 C164 1.260 . S
Mg155 O156 2.180 . S
Mg155 O157 2.030 . S
Mg155 O158 1.990 . S
Mg155 O159 2.117 . S
O156 Mg150 2.099 . S
O156 Mg155 2.180 . S
O156 C165 1.279 . S
O157 Mg155 2.030 . S
O157 C163 1.248 . S
O158 Mg155 1.990 . S
O158 C164 1.253 . S
O159 Mg155 2.117 . S
O159 C165 1.250 . S
C160 O166 1.248 . S
C160 O167 1.264 . S
C161 O147 1.253 . S
C161 O149 1.260 1_655 S
C162 O151 1.279 . S
C162 O152 1.250 . S
C163 O153 1.264 1_455 S
C163 O157 1.248 . S
C164 O154 1.260 . S
C164 O158 1.253 . S
C165 O156 1.279 . S
C165 O159 1.250 . S
O166 Mg148 2.030 . S
O166 C160 1.248 . S
O167 Mg150 2.079 1_655 S
O167 C160 1.264 . S
C168 C169 1.369 . S
C168 C170 1.419 . S
C168 H172 0.930 . S
C169 C168 1.369 . S
C169 C178 1.429 . S
C170 C168 1.419 . S
C170 C171 1.363 . S
C170 H173 0.929 . S
C171 C170 1.363 . S
C171 C177 1.428 . S
H172 C168 0.930 . S
H173 C170 0.929 . S
S174 N175 1.613 . S
S174 N176 1.610 . S
N175 S174 1.613 . S
N175 C178 1.350 . S
N176 S174 1.610 . S
N176 C177 1.351 . S
C177 C171 1.428 . S
C177 N176 1.351 . S
C177 C178 1.434 . S
C178 C169 1.429 . S
C178 N175 1.350 . S
C178 C177 1.434 . S
C179 C180 1.369 . S
C179 C181 1.419 . S
C179 H183 0.930 . S
C180 C179 1.369 . S
C180 C189 1.429 . S
C181 C179 1.419 . S
C181 C182 1.363 . S
C181 H184 0.929 . S
C182 C181 1.363 . S
C182 C188 1.428 . S
H183 C179 0.930 . S
H184 C181 0.929 . S
S185 N186 1.613 . S
S185 N187 1.610 . S
N186 S185 1.613 . S
N186 C189 1.350 . S
N187 S185 1.610 . S
N187 C188 1.351 . S
C188 C182 1.428 . S
C188 N187 1.351 . S
C188 C189 1.434 . S
C189 C180 1.429 . S
C189 N186 1.350 . S
C189 C188 1.434 . S
C190 C191 1.369 . S
C190 C192 1.419 . S
C190 H194 0.930 . S
C191 C190 1.369 . S
C191 C200 1.429 . S
C192 C190 1.419 . S
C192 C193 1.363 . S
C192 H195 0.929 . S
C193 C192 1.363 . S
C193 C199 1.428 . S
H194 C190 0.930 . S
H195 C192 0.929 . S
S196 N197 1.613 . S
S196 N198 1.610 . S
N197 S196 1.613 . S
N197 C200 1.350 . S
N198 S196 1.610 . S
N198 C199 1.351 . S
C199 C193 1.428 . S
C199 N198 1.351 . S
C199 C200 1.434 . S
C200 C191 1.429 . S
C200 N197 1.350 . S
C200 C199 1.434 . S
C201 C202 1.369 . S
C201 C203 1.419 . S
C201 H205 0.930 . S
C202 C201 1.369 . S
C202 C211 1.429 . S
C203 C201 1.419 . S
C203 C204 1.363 . S
C203 H206 0.929 . S
C204 C203 1.363 . S
C204 C210 1.428 . S
H205 C201 0.930 . S
H206 C203 0.929 . S
S207 N208 1.613 . S
S207 N209 1.610 1_556 S
N208 S207 1.613 . S
N208 C211 1.350 1_556 S
N209 S207 1.610 1_554 S
N209 C210 1.351 . S
C210 C204 1.428 . S
C210 N209 1.351 . S
C210 C211 1.434 . S
C211 C202 1.429 . S
C211 N208 1.350 1_554 S
C211 C210 1.434 . S
C212 C213 1.369 . S
C212 C214 1.419 . S
C212 H216 0.930 . S
C213 C212 1.369 . S
C213 C222 1.429 . S
C214 C212 1.419 . S
C214 C215 1.363 . S
C214 H217 0.929 . S
C215 C214 1.363 . S
C215 C221 1.428 . S
H216 C212 0.930 . S
H217 C214 0.929 . S
S218 N219 1.613 . S
S218 N220 1.610 . S
N219 S218 1.613 . S
N219 C222 1.350 . S
N220 S218 1.610 . S
N220 C221 1.351 . S
C221 C215 1.428 . S
C221 N220 1.351 . S
C221 C222 1.434 . S
C222 C213 1.429 . S
C222 N219 1.350 . S
C222 C221 1.434 . S
C223 C224 1.369 . S
C223 C225 1.419 . S
C223 H227 0.930 . S
C224 C223 1.369 . S
C224 C233 1.429 . S
C225 C223 1.419 . S
C225 C226 1.363 . S
C225 H228 0.929 . S
C226 C225 1.363 . S
C226 C232 1.428 . S
H227 C223 0.930 . S
H228 C225 0.929 . S
S229 N230 1.613 . S
S229 N231 1.610 . S
N230 S229 1.613 . S
N230 C233 1.350 . S
N231 S229 1.610 . S
N231 C232 1.351 . S
C232 C226 1.428 . S
C232 N231 1.351 . S
C232 C233 1.434 . S
C233 C224 1.429 . S
C233 N230 1.350 . S
C233 C232 1.434 . S
C234 C235 1.369 . S
C234 C236 1.419 . S
C234 H238 0.930 . S
C235 C234 1.369 . S
C235 C244 1.429 . S
C236 C234 1.419 . S
C236 C237 1.363 . S
C236 H239 0.929 . S
C237 C236 1.363 . S
C237 C243 1.428 . S
H238 C234 0.930 . S
H239 C236 0.929 . S
S240 N241 1.613 . S
S240 N242 1.610 . S
N241 S240 1.613 . S
N241 C244 1.350 . S
N242 S240 1.610 . S
N242 C243 1.351 . S
C243 C237 1.428 . S
C243 N242 1.351 . S
C243 C244 1.434 . S
C244 C235 1.429 . S
C244 N241 1.350 . S
C244 C243 1.434 . S
C245 C246 1.369 . S
C245 C247 1.419 . S
C245 H249 0.930 . S
C246 C245 1.369 . S
C246 C255 1.429 . S
C247 C245 1.419 . S
C247 C248 1.363 . S
C247 H250 0.929 1_556 S
C248 C247 1.363 . S
C248 C254 1.428 . S
H249 C245 0.930 . S
H250 C247 0.929 1_554 S
S251 N252 1.613 . S
S251 N253 1.610 . S
N252 S251 1.613 . S
N252 C255 1.350 . S
N253 S251 1.610 . S
N253 C254 1.351 . S
C254 C248 1.428 . S
C254 N253 1.351 . S
C254 C255 1.434 . S
C255 C246 1.429 . S
C255 N252 1.350 . S
C255 C254 1.434 . S
C256 C257 1.369 . S
C256 C258 1.419 . S
C256 H260 0.930 . S
C257 C256 1.369 . S
C257 C266 1.429 . S
C258 C256 1.419 . S
C258 C259 1.363 . S
C258 H261 0.929 . S
C259 C258 1.363 . S
C259 C265 1.428 . S
H260 C256 0.930 . S
H261 C258 0.929 . S
S262 N263 1.613 . S
S262 N264 1.610 . S
N263 S262 1.613 . S
N263 C266 1.350 . S
N264 S262 1.610 . S
N264 C265 1.351 . S
C265 C259 1.428 . S
C265 N264 1.351 . S
C265 C266 1.434 . S
C266 C257 1.429 . S
C266 N263 1.350 . S
C266 C265 1.434 . S
C267 C268 1.369 . S
C267 C269 1.419 . S
C267 H271 0.930 . S
C268 C267 1.369 . S
C268 C277 1.429 . S
C269 C267 1.419 . S
C269 C270 1.363 . S
C269 H272 0.929 . S
C270 C269 1.363 . S
C270 C276 1.428 . S
H271 C267 0.930 . S
H272 C269 0.929 . S
S273 N274 1.613 1_556 S
S273 N275 1.610 . S
N274 S273 1.613 1_554 S
N274 C277 1.350 . S
N275 S273 1.610 . S
N275 C276 1.351 1_556 S
C276 C270 1.428 . S
C276 N275 1.351 1_554 S
C276 C277 1.434 . S
C277 C268 1.429 . S
C277 N274 1.350 . S
C277 C276 1.434 . S
C278 C279 1.369 . S
C278 C280 1.419 . S
C278 H282 0.930 . S
C279 C278 1.369 . S
C279 C288 1.429 . S
C280 C278 1.419 . S
C280 C281 1.363 . S
C280 H283 0.929 . S
C281 C280 1.363 . S
C281 C287 1.428 . S
H282 C278 0.930 . S
H283 C280 0.929 . S
S284 N285 1.613 . S
S284 N286 1.610 . S
N285 S284 1.613 . S
N285 C288 1.350 . S
N286 S284 1.610 . S
N286 C287 1.351 . S
C287 C281 1.428 . S
C287 N286 1.351 . S
C287 C288 1.434 . S
C288 C279 1.429 . S
C288 N285 1.350 . S
C288 C287 1.434 . S
C289 C290 1.369 . S
C289 C291 1.419 . S
C289 H293 0.930 . S
C290 C289 1.369 . S
C290 C299 1.429 . S
C291 C289 1.419 . S
C291 C292 1.363 . S
C291 H294 0.929 . S
C292 C291 1.363 . S
C292 C298 1.428 . S
H293 C289 0.930 . S
H294 C291 0.929 . S
S295 N296 1.613 . S
S295 N297 1.610 . S
N296 S295 1.613 . S
N296 C299 1.350 . S
N297 S295 1.610 . S
N297 C298 1.351 . S
C298 C292 1.428 . S
C298 N297 1.351 . S
C298 C299 1.434 . S
C299 C290 1.429 . S
C299 N296 1.350 . S
C299 C298 1.434 . S
C300 C301 1.369 . S
C300 C302 1.419 . S
C300 H304 0.930 . S
C301 C300 1.369 . S
C301 C310 1.429 . S
C302 C300 1.419 . S
C302 C303 1.363 . S
C302 H305 0.929 . S
C303 C302 1.363 . S
C303 C309 1.428 . S
H304 C300 0.930 . S
H305 C302 0.929 . S
S306 N307 1.613 1_556 S
S306 N308 1.610 . S
N307 S306 1.613 1_554 S
N307 C310 1.350 . S
N308 S306 1.610 . S
N308 C309 1.351 1_556 S
C309 C303 1.428 . S
C309 N308 1.351 1_554 S
C309 C310 1.434 . S
C310 C301 1.429 . S
C310 N307 1.350 . S
C310 C309 1.434 . S
C311 C312 1.369 . S
C311 C313 1.419 . S
C311 H315 0.930 1_556 S
C312 C311 1.369 . S
C312 C321 1.429 . S
C313 C311 1.419 . S
C313 C314 1.363 . S
C313 H316 0.929 . S
C314 C313 1.363 . S
C314 C320 1.428 . S
H315 C311 0.930 1_554 S
H316 C313 0.929 . S
S317 N318 1.613 . S
S317 N319 1.610 . S
N318 S317 1.613 . S
N318 C321 1.350 . S
N319 S317 1.610 . S
N319 C320 1.351 . S
C320 C314 1.428 . S
C320 N319 1.351 . S
C320 C321 1.434 . S
C321 C312 1.429 . S
C321 N318 1.350 . S
C321 C320 1.434 . S
C322 C323 1.369 . S
C322 C324 1.419 . S
C322 H326 0.930 . S
C323 C322 1.369 . S
C323 C332 1.429 . S
C324 C322 1.419 . S
C324 C325 1.363 . S
C324 H327 0.929 . S
C325 C324 1.363 . S
C325 C331 1.428 . S
H326 C322 0.930 . S
H327 C324 0.929 . S
S328 N329 1.613 . S
S328 N330 1.610 . S
N329 S328 1.613 . S
N329 C332 1.350 . S
N330 S328 1.610 . S
N330 C331 1.351 . S
C331 C325 1.428 . S
C331 N330 1.351 . S
C331 C332 1.434 . S
C332 C323 1.429 . S
C332 N329 1.350 . S
C332 C331 1.434 . S
C333 C334 1.369 . S
C333 C335 1.419 . S
C333 H337 0.930 . S
C334 C333 1.369 . S
C334 C343 1.429 . S
C335 C333 1.419 . S
C335 C336 1.363 . S
C335 H338 0.929 . S
C336 C335 1.363 . S
C336 C342 1.428 . S
H337 C333 0.930 . S
H338 C335 0.929 . S
S339 N340 1.613 . S
S339 N341 1.610 . S
N340 S339 1.613 . S
N340 C343 1.350 . S
N341 S339 1.610 . S
N341 C342 1.351 . S
C342 C336 1.428 . S
C342 N341 1.351 . S
C342 C343 1.434 . S
C343 C334 1.429 . S
C343 N340 1.350 . S
C343 C342 1.434 . S
C344 C345 1.369 1_655 S
C344 C346 1.419 1_556 S
C344 H348 0.930 . S
C345 C344 1.369 1_455 S
C345 C354 1.429 1_545 S
C346 C344 1.419 1_554 S
C346 C347 1.363 1_645 S
C346 H349 0.929 . S
C347 C346 1.363 1_465 S
C347 C353 1.428 . S
H348 C344 0.930 . S
H349 C346 0.929 . S
S350 N351 1.608 1_554 S
S350 N352 1.616 . S
N351 S350 1.608 1_556 S
N351 C354 1.350 . S
N352 S350 1.616 . S
N352 C353 1.351 . S
C353 C347 1.428 . S
C353 N352 1.351 . S
C353 C354 1.434 1_554 S
C354 C345 1.429 1_565 S
C354 N351 1.350 . S
C354 C353 1.434 1_556 S
C355 C356 1.369 . S
C355 C357 1.419 . S
C355 H359 0.930 . S
C356 C355 1.369 . S
C356 C365 1.429 . S
C357 C355 1.419 . S
C357 C358 1.363 . S
C357 H360 0.929 . S
C358 C357 1.363 . S
C358 C364 1.428 . S
H359 C355 0.930 . S
H360 C357 0.929 . S
S361 N362 1.613 . S
S361 N363 1.610 . S
N362 S361 1.613 . S
N362 C365 1.350 . S
N363 S361 1.610 . S
N363 C364 1.351 . S
C364 C358 1.428 . S
C364 N363 1.351 . S
C364 C365 1.434 . S
C365 C356 1.429 . S
C365 N362 1.350 . S
C365 C364 1.434 . S
C366 C367 1.369 1_565 S
C366 C368 1.419 . S
C366 H370 0.930 . S
C367 C366 1.369 1_545 S
C367 C376 1.429 . S
C368 C366 1.419 . S
C368 C369 1.349 1_565 S
C368 H371 0.929 . S
C369 C368 1.349 1_545 S
C369 C375 1.444 . S
H370 C366 0.930 . S
H371 C368 0.929 . S
S372 N373 1.613 . S
S372 N374 1.610 . S
N373 S372 1.613 . S
N373 C376 1.350 . S
N374 S372 1.610 . S
N374 C375 1.351 . S
C375 C369 1.444 . S
C375 N374 1.351 . S
C375 C376 1.434 . S
C376 C367 1.429 . S
C376 N373 1.350 . S
C376 C375 1.434 . S
C377 C378 1.369 . S
C377 C379 1.419 . S
C377 H381 0.930 . S
C378 C377 1.369 . S
C378 C387 1.429 . S
C379 C377 1.419 . S
C379 C380 1.363 . S
C379 H382 0.929 . S
C380 C379 1.363 . S
C380 C386 1.428 . S
H381 C377 0.930 . S
H382 C379 0.929 . S
S383 N384 1.613 . S
S383 N385 1.610 . S
N384 S383 1.613 . S
N384 C387 1.350 . S
N385 S383 1.610 . S
N385 C386 1.351 . S
C386 C380 1.428 . S
C386 N385 1.351 . S
C386 C387 1.434 . S
C387 C378 1.429 . S
C387 N384 1.350 . S
C387 C386 1.434 . S
C388 C389 1.369 . S
C388 C390 1.419 . S
C388 H392 0.930 . S
C389 C388 1.369 . S
C389 C398 1.429 . S
C390 C388 1.419 . S
C390 C391 1.363 . S
C390 H393 0.929 . S
C391 C390 1.363 . S
C391 C397 1.428 . S
H392 C388 0.930 . S
H393 C390 0.929 . S
S394 N395 1.613 . S
S394 N396 1.610 . S
N395 S394 1.613 . S
N395 C398 1.350 . S
N396 S394 1.610 . S
N396 C397 1.351 . S
C397 C391 1.428 . S
C397 N396 1.351 . S
C397 C398 1.434 . S
C398 C389 1.429 . S
C398 N395 1.350 . S
C398 C397 1.434 . S
C399 C400 1.369 . S
C399 C401 1.419 . S
C399 H403 0.930 . S
C400 C399 1.369 . S
C400 C409 1.429 . S
C401 C399 1.419 . S
C401 C402 1.363 . S
C401 H404 0.929 . S
C402 C401 1.363 . S
C402 C408 1.428 . S
H403 C399 0.930 . S
H404 C401 0.929 . S
S405 N406 1.613 . S
S405 N407 1.610 . S
N406 S405 1.613 . S
N406 C409 1.350 . S
N407 S405 1.610 . S
N407 C408 1.351 . S
C408 C402 1.428 . S
C408 N407 1.351 . S
C408 C409 1.434 . S
C409 C400 1.429 . S
C409 N406 1.350 . S
C409 C408 1.434 . S
C410 C411 1.369 . S
C410 C412 1.419 . S
C410 H414 0.930 . S
C411 C410 1.369 . S
C411 C420 1.429 . S
C412 C410 1.419 . S
C412 C413 1.363 . S
C412 H415 0.929 . S
C413 C412 1.363 . S
C413 C419 1.428 . S
H414 C410 0.930 . S
H415 C412 0.929 . S
S416 N417 1.613 . S
S416 N418 1.610 . S
N417 S416 1.613 . S
N417 C420 1.350 . S
N418 S416 1.610 . S
N418 C419 1.351 . S
C419 C413 1.428 . S
C419 N418 1.351 . S
C419 C420 1.434 . S
C420 C411 1.429 . S
C420 N417 1.350 . S
C420 C419 1.434 . S
C421 C422 1.369 . S
C421 C423 1.419 1_556 S
C421 H425 0.930 . S
C422 C421 1.369 . S
C422 C431 1.429 1_455 S
C423 C421 1.419 1_554 S
C423 C424 1.363 . S
C423 H426 0.929 . S
C424 C423 1.363 . S
C424 C430 1.428 1_455 S
H425 C421 0.930 . S
H426 C423 0.929 . S
S427 N428 1.613 . S
S427 N429 1.610 1_556 S
N428 S427 1.613 . S
N428 C431 1.350 . S
N429 S427 1.610 1_554 S
N429 C430 1.351 . S
C430 C424 1.428 1_655 S
C430 N429 1.351 . S
C430 C431 1.434 1_554 S
C431 C422 1.429 1_655 S
C431 N428 1.350 . S
C431 C430 1.434 1_556 S
C169 C13 1.304 . S
C171 C76 1.311 . S
C180 C15 1.344 . S
C182 C34 1.463 . S
C191 C36 1.466 . S
C193 C57 1.469 . S
C202 C55 1.462 . S
C204 C78 1.343 . S
C213 C17 1.447 . S
C215 C122 1.448 . S
C224 C18 1.319 . S
C226 C101 1.420 . S
C235 C102 1.277 . S
C237 C60 1.286 . S
C246 C123 1.307 . S
C248 C59 1.419 . S
C257 C139 1.303 . S
C259 C118 1.302 . S
C268 C97 1.459 . S
C270 C141 1.339 . S
C279 C162 1.479 . S
C281 C99 1.469 . S
C290 C120 1.333 . S
C292 C160 1.457 . S
C301 C80 1.449 . S
C303 C143 1.450 . S
C312 C144 1.322 . S
C314 C38 1.426 . S
C323 C39 1.273 . S
C325 C165 1.286 . S
C334 C81 1.320 . S
C336 C164 1.421 . S
C345 C16 1.382 1_455 S
C347 C14 1.388 . S
C356 C35 1.376 . S
C358 C37 1.367 . S
C367 C58 1.370 . S
C369 C56 1.372 1_545 S
C378 C79 1.377 . S
C380 C77 1.393 . S
C389 C98 1.370 1_556 S
C391 C100 1.371 . S
C400 C121 1.378 . S
C402 C119 1.399 . S
C411 C140 1.393 . S
C413 C142 1.380 . S
C422 C161 1.373 1_455 S
C424 C163 1.372 . S
