# Generated by pormake.
# Topology cag, (4)-cn, num edge types: 1
# Building blocks:
#     Node 0, Type 0, BuildingBlock: CEKHIL_clean_sbu_0, # of connection points: 4
#     Node 1, Type 0, BuildingBlock: CEKHIL_clean_sbu_0, # of connection points: 4
#     Node 2, Type 0, BuildingBlock: CEKHIL_clean_sbu_0, # of connection points: 4
#     Node 3, Type 0, BuildingBlock: CEKHIL_clean_sbu_0, # of connection points: 4
#     Node 4, Type 0, BuildingBlock: CEKHIL_clean_sbu_0, # of connection points: 4
#     Node 5, Type 0, BuildingBlock: CEKHIL_clean_sbu_0, # of connection points: 4
#     Node 6, Type 0, BuildingBlock: CEKHIL_clean_sbu_0, # of connection points: 4
#     Node 7, Type 0, BuildingBlock: CEKHIL_clean_sbu_0, # of connection points: 4
#     Node 8, Type 0, BuildingBlock: CEKHIL_clean_sbu_0, # of connection points: 4
#     Node 9, Type 0, BuildingBlock: CEKHIL_clean_sbu_0, # of connection points: 4
#     Node 10, Type 0, BuildingBlock: CEKHIL_clean_sbu_0, # of connection points: 4
#     Node 11, Type 0, BuildingBlock: CEKHIL_clean_sbu_0, # of connection points: 4
#     Node 12, Type 0, BuildingBlock: CEKHIL_clean_sbu_0, # of connection points: 4
#     Node 13, Type 0, BuildingBlock: CEKHIL_clean_sbu_0, # of connection points: 4
#     Node 14, Type 0, BuildingBlock: CEKHIL_clean_sbu_0, # of connection points: 4
#     Node 15, Type 0, BuildingBlock: CEKHIL_clean_sbu_0, # of connection points: 4
#     Edge 16, Type (0, 0), BuildingBlock: XUDNAN_clean_linker_2, # of connection points: 2
#     Edge 17, Type (0, 0), BuildingBlock: XUDNAN_clean_linker_2, # of connection points: 2
#     Edge 18, Type (0, 0), BuildingBlock: XUDNAN_clean_linker_2, # of connection points: 2
#     Edge 19, Type (0, 0), BuildingBlock: XUDNAN_clean_linker_2, # of connection points: 2
#     Edge 20, Type (0, 0), BuildingBlock: XUDNAN_clean_linker_2, # of connection points: 2
#     Edge 21, Type (0, 0), BuildingBlock: XUDNAN_clean_linker_2, # of connection points: 2
#     Edge 22, Type (0, 0), BuildingBlock: XUDNAN_clean_linker_2, # of connection points: 2
#     Edge 23, Type (0, 0), BuildingBlock: XUDNAN_clean_linker_2, # of connection points: 2
#     Edge 24, Type (0, 0), BuildingBlock: XUDNAN_clean_linker_2, # of connection points: 2
#     Edge 25, Type (0, 0), BuildingBlock: XUDNAN_clean_linker_2, # of connection points: 2
#     Edge 26, Type (0, 0), BuildingBlock: XUDNAN_clean_linker_2, # of connection points: 2
#     Edge 27, Type (0, 0), BuildingBlock: XUDNAN_clean_linker_2, # of connection points: 2
#     Edge 28, Type (0, 0), BuildingBlock: XUDNAN_clean_linker_2, # of connection points: 2
#     Edge 29, Type (0, 0), BuildingBlock: XUDNAN_clean_linker_2, # of connection points: 2
#     Edge 30, Type (0, 0), BuildingBlock: XUDNAN_clean_linker_2, # of connection points: 2
#     Edge 31, Type (0, 0), BuildingBlock: XUDNAN_clean_linker_2, # of connection points: 2
#     Edge 32, Type (0, 0), BuildingBlock: XUDNAN_clean_linker_2, # of connection points: 2
#     Edge 33, Type (0, 0), BuildingBlock: XUDNAN_clean_linker_2, # of connection points: 2
#     Edge 34, Type (0, 0), BuildingBlock: XUDNAN_clean_linker_2, # of connection points: 2
#     Edge 35, Type (0, 0), BuildingBlock: XUDNAN_clean_linker_2, # of connection points: 2
#     Edge 36, Type (0, 0), BuildingBlock: XUDNAN_clean_linker_2, # of connection points: 2
#     Edge 37, Type (0, 0), BuildingBlock: XUDNAN_clean_linker_2, # of connection points: 2
#     Edge 38, Type (0, 0), BuildingBlock: XUDNAN_clean_linker_2, # of connection points: 2
#     Edge 39, Type (0, 0), BuildingBlock: XUDNAN_clean_linker_2, # of connection points: 2
#     Edge 40, Type (0, 0), BuildingBlock: XUDNAN_clean_linker_2, # of connection points: 2
#     Edge 41, Type (0, 0), BuildingBlock: XUDNAN_clean_linker_2, # of connection points: 2
#     Edge 42, Type (0, 0), BuildingBlock: XUDNAN_clean_linker_2, # of connection points: 2
#     Edge 43, Type (0, 0), BuildingBlock: XUDNAN_clean_linker_2, # of connection points: 2
#     Edge 44, Type (0, 0), BuildingBlock: XUDNAN_clean_linker_2, # of connection points: 2
#     Edge 45, Type (0, 0), BuildingBlock: XUDNAN_clean_linker_2, # of connection points: 2
#     Edge 46, Type (0, 0), BuildingBlock: XUDNAN_clean_linker_2, # of connection points: 2
#     Edge 47, Type (0, 0), BuildingBlock: XUDNAN_clean_linker_2, # of connection points: 2
# Relax obj value: 0.094
# Max RMSD: 0.132
# Mean RMSD: 0.131
data_MOF--net-cag--node1-CEKHIL_clean_sbu_0--edge1-XUDNAN_clean_linker_2
_symmetry_space_group_name_H-M    P1
_symmetry_Int_Tables_number       1
_symmetry_cell_setting            triclinic
loop_
_symmetry_equiv_pos_as_xyz
'x, y, z'
_cell_length_a     43.856687
_cell_length_b     48.508576
_cell_length_c     40.177083
_cell_angle_alpha  90.00007
_cell_angle_beta   90.057898
_cell_angle_gamma 90.040023
loop_
_atom_site_label
_atom_site_type_symbol
_atom_site_fract_x
_atom_site_fract_y
_atom_site_fract_z
_atom_type_partial_charge
Co0 Co 0.32379 0.14369 0.08168 0.0
O1 O 0.28219 0.15072 0.06757 0.0
O2 O 0.31887 0.18193 0.06916 0.0
C3 C 0.32974 0.10462 0.05157 0.0
O4 O 0.36979 0.14501 0.09058 0.0
Co5 Co 0.3451 0.09239 0.1204 0.0
O6 O 0.38684 0.10366 0.10739 0.0
C7 C 0.3112 0.13622 0.15595 0.0
C8 C 0.29095 0.1758 0.06132 0.0
C9 C 0.39165 0.12802 0.09688 0.0
O10 O 0.31269 0.15194 0.13002 0.0
O11 O 0.32106 0.11138 0.15601 0.0
O12 O 0.33273 0.1287 0.03782 0.0
O13 O 0.32129 0.10474 0.0824 0.0
Co14 Co 0.17984 0.86492 0.58138 0.0
O15 O 0.21902 0.85574 0.56239 0.0
O16 O 0.18106 0.82625 0.56918 0.0
C17 C 0.17286 0.90419 0.55175 0.0
O18 O 0.1355 0.86681 0.59705 0.0
Co19 Co 0.16999 0.91808 0.62262 0.0
O20 O 0.12617 0.90801 0.62077 0.0
C21 C 0.20518 0.87221 0.65124 0.0
C22 C 0.2085 0.83095 0.55832 0.0
C23 C 0.11728 0.88467 0.60994 0.0
O24 O 0.19557 0.85614 0.62791 0.0
O25 O 0.20021 0.8982 0.65148 0.0
O26 O 0.16683 0.88026 0.53875 0.0
O27 O 0.1853 0.90351 0.58091 0.0
Co28 Co 0.32623 0.8757 0.93238 0.0
O29 O 0.28414 0.86795 0.94492 0.0
O30 O 0.32317 0.83965 0.95209 0.0
C31 C 0.32839 0.91906 0.95351 0.0
O32 O 0.37258 0.87515 0.9268 0.0
Co33 Co 0.34925 0.92216 0.88594 0.0
O34 O 0.3907 0.91325 0.90218 0.0
C35 C 0.31684 0.87387 0.85749 0.0
C36 C 0.29441 0.84456 0.95619 0.0
C37 C 0.39486 0.89076 0.9178 0.0
O38 O 0.31822 0.86079 0.88555 0.0
O39 O 0.32587 0.89879 0.85406 0.0
O40 O 0.3314 0.89787 0.97309 0.0
O41 O 0.3224 0.91341 0.92285 0.0
Co42 Co 0.18092 0.1339 0.43626 0.0
O43 O 0.22123 0.14133 0.45497 0.0
O44 O 0.18183 0.16972 0.45679 0.0
C45 C 0.17569 0.09057 0.45671 0.0
O46 O 0.13581 0.1349 0.42366 0.0
Co47 Co 0.16339 0.08802 0.38629 0.0
O48 O 0.12023 0.09734 0.39604 0.0
C49 C 0.20174 0.13501 0.36477 0.0
C50 C 0.20973 0.16455 0.46531 0.0
C51 C 0.11452 0.11982 0.41113 0.0
O52 O 0.19456 0.14888 0.39113 0.0
O53 O 0.194 0.10984 0.3603 0.0
O54 O 0.17064 0.11177 0.47571 0.0
O55 O 0.1854 0.09609 0.42716 0.0
Co56 Co 0.67373 0.88007 0.9154 0.0
O57 O 0.71022 0.88435 0.88776 0.0
O58 O 0.6651 0.87058 0.8699 0.0
C59 C 0.67636 0.92033 0.94442 0.0
O60 O 0.63041 0.87447 0.93262 0.0
Co61 Co 0.67279 0.87596 0.99238 0.0
O62 O 0.62768 0.87459 0.9884 0.0
C63 C 0.69943 0.83135 0.95302 0.0
C64 C 0.69317 0.87653 0.86288 0.0
C65 C 0.61508 0.87351 0.95987 0.0
O66 O 0.68599 0.84046 0.92654 0.0
O67 O 0.7001 0.84471 0.9804 0.0
O68 O 0.66608 0.92022 0.91401 0.0
O69 O 0.68732 0.89718 0.95462 0.0
Co70 Co 0.82939 0.12811 0.41506 0.0
O71 O 0.78847 0.12328 0.3979 0.0
O72 O 0.82809 0.13607 0.36767 0.0
C73 C 0.83188 0.08876 0.44571 0.0
O74 O 0.8751 0.13431 0.42278 0.0
Co75 Co 0.8419 0.13462 0.49107 0.0
O76 O 0.88539 0.13589 0.47774 0.0
C77 C 0.8096 0.178 0.45461 0.0
C78 C 0.79914 0.13049 0.36899 0.0
C79 C 0.89385 0.13627 0.44741 0.0
O80 O 0.81921 0.16802 0.4267 0.0
O81 O 0.81298 0.16563 0.48246 0.0
O82 O 0.83662 0.08786 0.41375 0.0
O83 O 0.82305 0.11229 0.45691 0.0
Co84 Co 0.67205 0.13298 0.10071 0.0
O85 O 0.70913 0.12939 0.12735 0.0
O86 O 0.66603 0.14794 0.14463 0.0
C87 C 0.6713 0.08954 0.07995 0.0
O88 O 0.62855 0.13893 0.08399 0.0
Co89 Co 0.66893 0.12737 0.02396 0.0
O90 O 0.62402 0.1306 0.0292 0.0
C91 C 0.69784 0.17624 0.054 0.0
C92 C 0.69368 0.14038 0.1516 0.0
C93 C 0.61244 0.13654 0.05736 0.0
O94 O 0.68628 0.17004 0.08261 0.0
O95 O 0.69632 0.16025 0.02872 0.0
O96 O 0.6617 0.09455 0.10995 0.0
O97 O 0.68341 0.11023 0.06466 0.0
Co98 Co 0.82876 0.87572 0.60044 0.0
O99 O 0.78704 0.87984 0.61567 0.0
O100 O 0.82456 0.86246 0.64576 0.0
C101 C 0.83356 0.91859 0.57852 0.0
O102 O 0.87463 0.86963 0.59595 0.0
Co103 Co 0.84891 0.87911 0.52682 0.0
O104 O 0.89131 0.87901 0.54441 0.0
C105 C 0.81343 0.83123 0.55027 0.0
C106 C 0.7962 0.86998 0.64408 0.0
C107 C 0.89635 0.87304 0.5748 0.0
O108 O 0.81874 0.83808 0.58082 0.0
O109 O 0.82073 0.84646 0.52551 0.0
O110 O 0.83674 0.91449 0.61031 0.0
O111 O 0.82545 0.89726 0.56142 0.0
Co112 Co 0.82578 0.63557 0.07073 0.0
O113 O 0.78535 0.64365 0.0539 0.0
O114 O 0.82225 0.67429 0.06 0.0
C115 C 0.83255 0.59761 0.0389 0.0
O116 O 0.87085 0.6357 0.08422 0.0
Co117 Co 0.844 0.58189 0.10695 0.0
O118 O 0.88581 0.59205 0.09254 0.0
C119 C 0.80884 0.62502 0.14311 0.0
C120 C 0.79481 0.66879 0.04971 0.0
C121 C 0.89188 0.61731 0.08711 0.0
O122 O 0.81175 0.64192 0.11842 0.0
O123 O 0.81859 0.60014 0.14214 0.0
O124 O 0.83729 0.62204 0.02669 0.0
O125 O 0.82243 0.59691 0.06904 0.0
Co126 Co 0.68282 0.37309 0.57393 0.0
O127 O 0.72273 0.36472 0.55575 0.0
O128 O 0.68293 0.33669 0.55451 0.0
C129 C 0.679 0.41634 0.55291 0.0
O130 O 0.6377 0.37407 0.58693 0.0
Co131 Co 0.67049 0.42074 0.62403 0.0
O132 O 0.62695 0.41212 0.61675 0.0
C133 C 0.69905 0.36918 0.64789 0.0
C134 C 0.71119 0.34121 0.54659 0.0
C135 C 0.61875 0.39035 0.60151 0.0
O136 O 0.69537 0.35756 0.6192 0.0
O137 O 0.69245 0.39442 0.65362 0.0
O138 O 0.67321 0.39513 0.53412 0.0
O139 O 0.68925 0.4107 0.5822 0.0
Co140 Co 0.8242 0.36846 0.92368 0.0
O141 O 0.78496 0.36001 0.9433 0.0
O142 O 0.82499 0.33229 0.94401 0.0
C143 C 0.82809 0.41202 0.94346 0.0
O144 O 0.86886 0.37028 0.90907 0.0
Co145 Co 0.83266 0.41524 0.87134 0.0
O146 O 0.87673 0.40767 0.87694 0.0
C147 C 0.80083 0.36419 0.85268 0.0
C148 C 0.79688 0.33675 0.95266 0.0
C149 C 0.88652 0.3868 0.89294 0.0
O150 O 0.81043 0.3521 0.87934 0.0
O151 O 0.80455 0.38989 0.84693 0.0
O152 O 0.83468 0.39122 0.96259 0.0
O153 O 0.81684 0.40573 0.9148 0.0
Co154 Co 0.67888 0.64028 0.42565 0.0
O155 O 0.72027 0.64735 0.44038 0.0
O156 O 0.68393 0.67879 0.43711 0.0
C157 C 0.67221 0.60173 0.45642 0.0
O158 O 0.63308 0.64142 0.41586 0.0
Co159 Co 0.65824 0.58818 0.38756 0.0
O160 O 0.61618 0.60013 0.39837 0.0
C161 C 0.69679 0.62973 0.35412 0.0
C162 C 0.71168 0.67263 0.44558 0.0
C163 C 0.61133 0.62448 0.40888 0.0
O164 O 0.69105 0.64733 0.37741 0.0
O165 O 0.68807 0.60457 0.35543 0.0
O166 O 0.66912 0.62598 0.46976 0.0
O167 O 0.68112 0.6015 0.42579 0.0
Co168 Co 0.17441 0.38339 0.91726 0.0
O169 O 0.21639 0.38743 0.90227 0.0
O170 O 0.17761 0.37584 0.87011 0.0
C171 C 0.17184 0.42254 0.94847 0.0
O172 O 0.12835 0.37849 0.9203 0.0
Co173 Co 0.1523 0.3774 0.99013 0.0
O174 O 0.11009 0.37973 0.97233 0.0
C175 C 0.18809 0.33316 0.95864 0.0
C176 C 0.20648 0.3811 0.87262 0.0
C177 C 0.10598 0.37857 0.94099 0.0
O178 O 0.18261 0.34324 0.92945 0.0
O179 O 0.18091 0.34548 0.98566 0.0
O180 O 0.16894 0.42384 0.91624 0.0
O181 O 0.17813 0.39846 0.96013 0.0
Co182 Co 0.32932 0.62288 0.4163 0.0
O183 O 0.28958 0.6202 0.39553 0.0
O184 O 0.33035 0.63803 0.37143 0.0
C185 C 0.33125 0.57922 0.43668 0.0
O186 O 0.37428 0.62839 0.42858 0.0
Co187 Co 0.33713 0.61696 0.49293 0.0
O188 O 0.38137 0.61984 0.48313 0.0
C189 C 0.30758 0.66631 0.46531 0.0
C190 C 0.30163 0.6316 0.36941 0.0
C191 C 0.39163 0.62591 0.45435 0.0
O192 O 0.31755 0.66002 0.43605 0.0
O193 O 0.31004 0.65021 0.49041 0.0
O194 O 0.33801 0.58423 0.40575 0.0
O195 O 0.32087 0.60004 0.4531 0.0
Co196 Co 0.17627 0.63734 0.10076 0.0
O197 O 0.21412 0.634 0.12644 0.0
O198 O 0.17169 0.6533 0.14431 0.0
C199 C 0.17486 0.59338 0.08133 0.0
O200 O 0.13233 0.64372 0.08581 0.0
Co201 Co 0.16795 0.62958 0.02505 0.0
O202 O 0.12412 0.62422 0.03609 0.0
C203 C 0.19449 0.68185 0.05077 0.0
C204 C 0.1994 0.64571 0.15078 0.0
C205 C 0.11427 0.63484 0.06295 0.0
O206 O 0.18991 0.67394 0.08109 0.0
O207 O 0.1886 0.66661 0.0255 0.0
O208 O 0.16604 0.5991 0.11144 0.0
O209 O 0.18615 0.61381 0.06479 0.0
Co210 Co 0.33311 0.37009 0.60273 0.0
O211 O 0.29439 0.37509 0.62704 0.0
O212 O 0.33828 0.36291 0.6492 0.0
C213 C 0.3314 0.40901 0.57103 0.0
O214 O 0.37802 0.36482 0.59208 0.0
Co215 Co 0.34708 0.36416 0.52804 0.0
O216 O 0.39093 0.36951 0.5387 0.0
C217 C 0.3197 0.31717 0.56459 0.0
C218 C 0.31002 0.36922 0.65382 0.0
C219 C 0.39825 0.36686 0.56914 0.0
O220 O 0.32275 0.32987 0.59277 0.0
O221 O 0.3266 0.32808 0.5366 0.0
O222 O 0.33926 0.41038 0.60224 0.0
O223 O 0.32335 0.38491 0.56065 0.0
H224 H 0.2977 0.23188 0.0567 0.0
H225 H 0.24037 0.16434 0.02363 0.0
H226 H 0.2108 0.19667 0.98851 0.0
H227 H 0.23722 0.28153 0.06293 0.0
H228 H 0.26079 0.30988 0.04949 0.0
H229 H 0.27774 0.28097 0.07057 0.0
H230 H 0.31483 0.2744 0.02099 0.0
H231 H 0.29751 0.30298 0.99946 0.0
H232 H 0.29966 0.2697 0.97966 0.0
H233 H 0.18785 0.23708 0.95588 0.0
H234 H 0.16892 0.28257 0.93624 0.0
H235 H 0.23986 0.3232 0.993 0.0
C236 C 0.27887 0.22389 0.04214 0.0
C237 C 0.27139 0.19556 0.04286 0.0
C238 C 0.24642 0.18599 0.02363 0.0
C239 C 0.22967 0.20416 1.00335 0.0
C240 C 0.23798 0.23193 1.00276 0.0
C241 C 0.26166 0.24179 0.02218 0.0
C242 C 0.26494 0.27273 0.01874 0.0
C243 C 0.25985 0.28712 0.05243 0.0
C244 C 0.29609 0.28039 1.00382 0.0
C245 C 0.23931 0.27883 0.99454 0.0
C246 C 0.22433 0.25503 0.98501 0.0
C247 C 0.19951 0.25581 0.96313 0.0
C248 C 0.1891 0.28165 0.95176 0.0
C249 C 0.20328 0.30621 0.96271 0.0
C250 C 0.22899 0.30463 0.98381 0.0
H251 H 0.26185 0.67883 0.50876 0.0
H252 H 0.32264 0.71573 0.43628 0.0
H253 H 0.30366 0.76209 0.45196 0.0
H254 H 0.19833 0.72672 0.49449 0.0
H255 H 0.18722 0.72661 0.53768 0.0
H256 H 0.20501 0.69662 0.51977 0.0
H257 H 0.24653 0.69814 0.56565 0.0
H258 H 0.2291 0.7283 0.58348 0.0
H259 H 0.26865 0.72913 0.57134 0.0
H260 H 0.28156 0.80457 0.48004 0.0
H261 H 0.2532 0.83952 0.51237 0.0
H262 H 0.20392 0.77454 0.56337 0.0
C263 C 0.27091 0.69667 0.49591 0.0
C264 C 0.29381 0.69375 0.47138 0.0
C265 C 0.30497 0.71751 0.45497 0.0
C266 C 0.29444 0.7439 0.46387 0.0
C267 C 0.27232 0.74607 0.48873 0.0
C268 C 0.2602 0.72301 0.50397 0.0
C269 C 0.23638 0.73083 0.52962 0.0
C270 C 0.20487 0.71953 0.51979 0.0
C271 C 0.24574 0.72102 0.56458 0.0
C272 C 0.23739 0.76196 0.52704 0.0
C273 C 0.25849 0.77036 0.50355 0.0
C274 C 0.26467 0.79819 0.49808 0.0
C275 C 0.24859 0.81788 0.51673 0.0
C276 C 0.22624 0.80974 0.5402 0.0
C277 C 0.22062 0.78137 0.54532 0.0
H278 H 0.25366 0.80517 0.93522 0.0
H279 H 0.29571 0.84033 0.02302 0.0
H280 H 0.27135 0.80456 0.05805 0.0
H281 H 0.18122 0.78268 0.97612 0.0
H282 H 0.17937 0.75143 0.95194 0.0
H283 H 0.19678 0.78188 0.93462 0.0
H284 H 0.24619 0.75422 0.92321 0.0
H285 H 0.22905 0.7238 0.9407 0.0
H286 H 0.2647 0.73645 0.95708 0.0
H287 H 0.24578 0.76259 0.08287 0.0
H288 H 0.2216 0.71763 0.09523 0.0
H289 H 0.1972 0.7092 0.99095 0.0
C290 C 0.25684 0.80574 0.96194 0.0
C291 C 0.27585 0.82578 0.97672 0.0
C292 C 0.28061 0.8254 0.01153 0.0
C293 C 0.26694 0.80516 0.03155 0.0
C294 C 0.24865 0.78531 0.01631 0.0
C295 C 0.24344 0.78551 0.9823 0.0
C296 C 0.22472 0.76067 0.97187 0.0
C297 C 0.19368 0.76971 0.95781 0.0
C298 C 0.24222 0.74273 0.94674 0.0
C299 C 0.22105 0.7461 0.00505 0.0
C300 C 0.2346 0.76082 0.03048 0.0
C301 C 0.23485 0.75101 0.06317 0.0
C302 C 0.22105 0.72542 0.06998 0.0
C303 C 0.20748 0.70972 0.04416 0.0
C304 C 0.20737 0.72053 0.01136 0.0
H305 H 0.33235 0.27645 0.52003 0.0
H306 H 0.2734 0.29629 0.60317 0.0
H307 H 0.24156 0.25547 0.59005 0.0
H308 H 0.27713 0.25863 0.46492 0.0
H309 H 0.29705 0.23049 0.44534 0.0
H310 H 0.31824 0.25793 0.4646 0.0
H311 H 0.34671 0.22285 0.50191 0.0
H312 H 0.32598 0.19512 0.48234 0.0
H313 H 0.32519 0.19894 0.52696 0.0
H314 H 0.21089 0.21869 0.56087 0.0
H315 H 0.18712 0.18505 0.52261 0.0
H316 H 0.26751 0.18686 0.46012 0.0
C317 C 0.31336 0.27162 0.53624 0.0
C318 C 0.30543 0.28945 0.56281 0.0
C319 C 0.2802 0.28269 0.58312 0.0
C320 C 0.26188 0.25964 0.57565 0.0
C321 C 0.26954 0.24326 0.54826 0.0
C322 C 0.29517 0.24856 0.52938 0.0
C323 C 0.29731 0.22904 0.49989 0.0
C324 C 0.29743 0.24499 0.46675 0.0
C325 C 0.32547 0.21038 0.50297 0.0
C326 C 0.26812 0.21267 0.50414 0.0
C327 C 0.25247 0.2212 0.53225 0.0
C328 C 0.22337 0.21132 0.53943 0.0
C329 C 0.20999 0.19235 0.51746 0.0
C330 C 0.22574 0.18306 0.48883 0.0
C331 C 0.25538 0.19306 0.48236 0.0
H332 H 0.80646 0.72399 0.04246 0.0
H333 H 0.74211 0.66017 0.0143 0.0
H334 H 0.71391 0.69388 0.97978 0.0
H335 H 0.7517 0.77765 0.05057 0.0
H336 H 0.77691 0.80397 0.03489 0.0
H337 H 0.79239 0.77419 0.0555 0.0
H338 H 0.82582 0.76427 1.00365 0.0
H339 H 0.80987 0.79373 0.98261 0.0
H340 H 0.80792 0.76015 0.96354 0.0
H341 H 0.69207 0.73562 0.94877 0.0
H342 H 0.67507 0.78228 0.93124 0.0
H343 H 0.75353 0.81797 0.98064 0.0
C344 C 0.78645 0.71706 0.02903 0.0
C345 C 0.77654 0.68941 0.03106 0.0
C346 C 0.75009 0.68128 0.01325 0.0
C347 C 0.73408 0.70023 0.99331 0.0
C348 C 0.74475 0.72729 0.99145 0.0
C349 C 0.77013 0.73571 0.00924 0.0
C350 C 0.77593 0.76623 1.00482 0.0
C351 C 0.7741 0.78139 0.03843 0.0
C352 C 0.80671 0.77138 0.98763 0.0
C353 C 0.74959 0.77383 0.98225 0.0
C354 C 0.73209 0.75108 0.9742 0.0
C355 C 0.70578 0.75352 0.95471 0.0
C356 C 0.69644 0.78002 0.9445 0.0
C357 C 0.71322 0.80358 0.95424 0.0
C358 C 0.74056 0.80021 0.97241 0.0
H359 H 0.7572 0.19068 0.48635 0.0
H360 H 0.83044 0.22698 0.42893 0.0
H361 H 0.81193 0.27372 0.44414 0.0
H362 H 0.69888 0.2445 0.46687 0.0
H363 H 0.6827 0.24203 0.50799 0.0
H364 H 0.69985 0.21218 0.48899 0.0
H365 H 0.73524 0.20686 0.54026 0.0
H366 H 0.71874 0.23698 0.5591 0.0
H367 H 0.75933 0.23525 0.55248 0.0
H368 H 0.78965 0.31608 0.47358 0.0
H369 H 0.76132 0.35036 0.50728 0.0
H370 H 0.70111 0.28575 0.54244 0.0
C371 C 0.7687 0.20853 0.47606 0.0
C372 C 0.795 0.20538 0.4562 0.0
C373 C 0.80988 0.22906 0.44363 0.0
C374 C 0.79966 0.25562 0.45242 0.0
C375 C 0.77425 0.25799 0.47323 0.0
C376 C 0.75851 0.235 0.48411 0.0
C377 C 0.73261 0.24278 0.50717 0.0
C378 C 0.70168 0.23491 0.49183 0.0
C379 C 0.73675 0.22969 0.54179 0.0
C380 C 0.73668 0.27372 0.5085 0.0
C381 C 0.76089 0.28218 0.48895 0.0
C382 C 0.77028 0.30969 0.48835 0.0
C383 C 0.75422 0.32898 0.50777 0.0
C384 C 0.72888 0.32073 0.52721 0.0
C385 C 0.7201 0.29273 0.52742 0.0
H386 H 0.80481 0.2808 0.95571 0.0
H387 H 0.74965 0.34729 0.99517 0.0
H388 H 0.72137 0.31386 0.03009 0.0
H389 H 0.74346 0.233 0.94852 0.0
H390 H 0.76636 0.20337 0.95892 0.0
H391 H 0.78374 0.23292 0.93959 0.0
H392 H 0.82242 0.23608 0.98827 0.0
H393 H 0.80492 0.20667 0.00793 0.0
H394 H 0.80861 0.23867 0.0304 0.0
H395 H 0.69906 0.27248 0.06103 0.0
H396 H 0.68 0.22654 0.07868 0.0
H397 H 0.74737 0.18741 0.01556 0.0
C398 C 0.78696 0.28833 0.97194 0.0
C399 C 0.77958 0.31664 0.97302 0.0
C400 C 0.75566 0.32566 0.99402 0.0
C401 C 0.73963 0.30685 0.01411 0.0
C402 C 0.74751 0.27902 0.01256 0.0
C403 C 0.7703 0.26977 0.99156 0.0
C404 C 0.7727 0.23863 0.99236 0.0
C405 C 0.76616 0.22626 0.9578 0.0
C406 C 0.80402 0.22948 0.00553 0.0
C407 C 0.7476 0.23176 0.01689 0.0
C408 C 0.73371 0.25531 0.02887 0.0
C409 C 0.70978 0.25392 0.05177 0.0
C410 C 0.69924 0.22779 0.06187 0.0
C411 C 0.71222 0.2035 0.04851 0.0
C412 C 0.73703 0.20567 0.02621 0.0
H413 H 0.76898 0.82138 0.50451 0.0
H414 H 0.8263 0.78054 0.57724 0.0
H415 H 0.80735 0.73511 0.55749 0.0
H416 H 0.70425 0.77379 0.51298 0.0
H417 H 0.69455 0.77611 0.46947 0.0
H418 H 0.7123 0.80493 0.49011 0.0
H419 H 0.75516 0.80486 0.44578 0.0
H420 H 0.73785 0.77577 0.42532 0.0
H421 H 0.77696 0.77388 0.43895 0.0
H422 H 0.78563 0.6941 0.52531 0.0
H423 H 0.75669 0.6611 0.49046 0.0
H424 H 0.71031 0.72918 0.44225 0.0
C425 C 0.7772 0.80285 0.51659 0.0
C426 C 0.79913 0.80436 0.54235 0.0
C427 C 0.80931 0.77977 0.55767 0.0
C428 C 0.79885 0.75393 0.54641 0.0
C429 C 0.77774 0.75316 0.52033 0.0
C430 C 0.76645 0.77705 0.50623 0.0
C431 C 0.74335 0.77075 0.47917 0.0
C432 C 0.71174 0.78206 0.4885 0.0
C433 C 0.75398 0.78199 0.44531 0.0
C434 C 0.74375 0.73953 0.47969 0.0
C435 C 0.76405 0.72975 0.50326 0.0
C436 C 0.76938 0.70159 0.50715 0.0
C437 C 0.75303 0.683 0.48704 0.0
C438 C 0.73121 0.69258 0.46373 0.0
C439 C 0.7267 0.72125 0.46 0.0
H440 H 0.32409 0.05101 0.07383 0.0
H441 H 0.34634 0.0998 0.98655 0.0
H442 H 0.35164 0.05727 0.95356 0.0
H443 H 0.37608 0.99316 0.05502 0.0
H444 H 0.34986 0.96747 0.07025 0.0
H445 H 0.34979 1.00163 0.08793 0.0
H446 H 0.29224 0.00626 0.0746 0.0
H447 H 0.29214 0.97219 0.05683 0.0
H448 H 0.27917 1.00113 0.03249 0.0
H449 H 0.35015 0.01068 0.92887 0.0
H450 H 0.34386 0.96203 0.91373 0.0
H451 H 0.32443 0.94165 0.01676 0.0
C452 C 0.33048 0.05268 0.04788 0.0
C453 C 0.33482 0.07877 0.03275 0.0
C454 C 0.34294 0.08011 0.9987 0.0
C455 C 0.34605 0.05604 0.97975 0.0
C456 C 0.34121 0.03072 0.99523 0.0
C457 C 0.33383 0.02876 0.02855 0.0
C458 C 0.32882 0.99886 0.03856 0.0
C459 C 0.35256 0.98975 0.06448 0.0
C460 C 0.29615 0.99436 0.05137 0.0
C461 C 0.33386 0.98446 0.00544 0.0
C462 C 0.34106 1.00337 0.98093 0.0
C463 C 0.34499 0.99561 0.94791 0.0
C464 C 0.34129 0.96783 0.93956 0.0
C465 C 0.33398 0.9479 0.96409 0.0
C466 C 0.33057 0.95633 0.9976 0.0
H467 H 0.18109 0.95741 0.57422 0.0
H468 H 0.15265 0.91 0.48796 0.0
H469 H 0.14688 0.95298 0.45582 0.0
H470 H 0.12963 0.0165 0.55937 0.0
H471 H 0.15729 0.04143 0.57344 0.0
H472 H 0.1573 0.00708 0.59057 0.0
H473 H 0.21396 1.00133 0.57383 0.0
H474 H 0.2141 0.03559 0.55662 0.0
H475 H 0.22501 0.00667 0.5311 0.0
H476 H 0.14918 1.00002 0.43139 0.0
H477 H 0.15667 0.04882 0.41675 0.0
H478 H 0.1809 0.06719 0.51907 0.0
C479 C 0.17326 0.95613 0.5487 0.0
C480 C 0.16734 0.93031 0.53357 0.0
C481 C 0.15727 0.9295 0.5001 0.0
C482 C 0.1539 0.95382 0.48163 0.0
C483 C 0.16034 0.97888 0.49707 0.0
C484 C 0.16949 0.98032 0.52993 0.0
C485 C 0.17582 0.00996 0.54008 0.0
C486 C 0.15368 0.01929 0.56749 0.0
C487 C 0.20921 0.01359 0.55105 0.0
C488 C 0.16952 0.02484 0.50755 0.0
C489 C 0.16062 0.00642 0.48313 0.0
C490 C 0.15561 0.01472 0.45042 0.0
C491 C 0.16002 0.04251 0.44232 0.0
C492 C 0.16899 0.06186 0.46683 0.0
C493 C 0.17338 0.05294 0.5 0.0
H494 H 0.67976 0.97678 0.93313 0.0
H495 H 0.6621 0.91601 0.00997 0.0
H496 H 0.65581 0.95262 0.05113 0.0
H497 H 0.72528 0.02019 0.98491 0.0
H498 H 0.7119 0.05224 0.96753 0.0
H499 H 0.71194 0.02146 0.94247 0.0
H500 H 0.65426 0.02764 0.93083 0.0
H501 H 0.65407 0.05849 0.95584 0.0
H502 H 0.62816 0.03072 0.96527 0.0
H503 H 0.65263 0.995 0.08495 0.0
H504 H 0.65614 0.04123 0.11022 0.0
H505 H 0.67918 0.07582 0.0138 0.0
C506 C 0.67407 0.97132 0.95851 0.0
C507 C 0.67113 0.94336 0.96811 0.0
C508 C 0.66442 0.93705 1.00174 0.0
C509 C 0.66066 0.95782 0.02548 0.0
C510 C 0.6641 0.98504 0.0155 0.0
C511 C 0.67089 0.99199 0.98295 0.0
C512 C 0.67559 0.02295 0.97982 0.0
C513 C 0.70812 0.02959 0.96799 0.0
C514 C 0.65159 0.0357 0.95656 0.0
C515 C 0.67069 0.03202 0.01568 0.0
C516 C 0.6636 0.00977 0.03563 0.0
C517 C 0.65813 0.01265 0.06962 0.0
C518 C 0.66016 0.039 0.08376 0.0
C519 C 0.66802 0.06211 0.06409 0.0
C520 C 0.67321 0.05852 0.02952 0.0
H521 H 0.82762 0.03262 0.43362 0.0
H522 H 0.8493 0.09246 0.51035 0.0
H523 H 0.85573 0.05519 0.55103 0.0
H524 H 0.78268 0.98989 0.48533 0.0
H525 H 0.79479 0.9577 0.46725 0.0
H526 H 0.79523 0.98871 0.44263 0.0
H527 H 0.85251 0.98132 0.42983 0.0
H528 H 0.85222 0.9502 0.45435 0.0
H529 H 0.87911 0.97724 0.46372 0.0
H530 H 0.85669 0.01237 0.58463 0.0
H531 H 0.85093 0.96615 0.60943 0.0
H532 H 0.82715 0.93299 0.51244 0.0
C533 C 0.83435 0.03773 0.45882 0.0
C534 C 0.83817 0.06552 0.4687 0.0
C535 C 0.84624 0.07144 0.50209 0.0
C536 C 0.85008 0.05034 0.52546 0.0
C537 C 0.84557 0.02326 0.51525 0.0
C538 C 0.83785 0.01677 0.48279 0.0
C539 C 0.83219 0.98599 0.47927 0.0
C540 C 0.79927 0.98025 0.46796 0.0
C541 C 0.85539 0.97292 0.45537 0.0
C542 C 0.83744 0.97645 0.51487 0.0
C543 C 0.84548 0.99831 0.53505 0.0
C544 C 0.85063 0.995 0.56906 0.0
C545 C 0.84725 0.96866 0.58295 0.0
C546 C 0.83863 0.94594 0.56295 0.0
C547 C 0.83393 0.94993 0.52837 0.0
H548 H 0.82912 0.43519 0.00595 0.0
H549 H 0.84028 0.45442 0.90124 0.0
H550 H 0.84746 0.50343 0.91504 0.0
H551 H 0.78432 0.49342 0.02416 0.0
H552 H 0.7999 0.49915 0.06512 0.0
H553 H 0.79963 0.46497 0.04771 0.0
H554 H 0.85804 0.46142 0.05647 0.0
H555 H 0.85847 0.49563 0.07397 0.0
H556 H 0.88265 0.48748 0.03909 0.0
H557 H 0.85054 0.55067 0.93944 0.0
H558 H 0.8461 0.59332 0.9727 0.0
H559 H 0.83027 0.54427 0.06138 0.0
C560 C 0.83374 0.44969 0.98608 0.0
C561 C 0.83449 0.44097 0.95255 0.0
C562 C 0.83973 0.4606 0.9271 0.0
C563 C 0.84397 0.48851 0.9347 0.0
C564 C 0.84261 0.49659 0.96789 0.0
C565 C 0.83745 0.47783 0.99321 0.0
C566 C 0.83429 0.49238 0.02644 0.0
C567 C 0.80265 0.48717 0.04174 0.0
C568 C 0.85989 0.48371 0.05041 0.0
C569 C 0.83795 0.52217 0.01568 0.0
C570 C 0.84325 0.52408 0.98189 0.0
C571 C 0.84658 0.54946 0.96598 0.0
C572 C 0.84404 0.57357 0.98506 0.0
C573 C 0.83782 0.57212 0.01956 0.0
C574 C 0.8351 0.54604 0.03504 0.0
H575 H 0.67979 0.4392 0.49005 0.0
H576 H 0.6638 0.45865 0.59396 0.0
H577 H 0.65574 0.5073 0.57949 0.0
H578 H 0.7234 0.49877 0.47352 0.0
H579 H 0.70925 0.50397 0.43185 0.0
H580 H 0.70998 0.46984 0.44941 0.0
H581 H 0.65213 0.46459 0.43796 0.0
H582 H 0.65124 0.49873 0.42029 0.0
H583 H 0.626 0.48997 0.45405 0.0
H584 H 0.65246 0.55417 0.55498 0.0
H585 H 0.65675 0.59689 0.52196 0.0
H586 H 0.67705 0.54837 0.43394 0.0
C587 C 0.67394 0.45366 0.50956 0.0
C588 C 0.6721 0.44505 0.5431 0.0
C589 C 0.66523 0.46467 0.56811 0.0
C590 C 0.66047 0.4924 0.56012 0.0
C591 C 0.66295 0.50038 0.52699 0.0
C592 C 0.66966 0.4817 0.50205 0.0
C593 C 0.67362 0.49629 0.46891 0.0
C594 C 0.70599 0.49196 0.45513 0.0
C595 C 0.64929 0.48683 0.44382 0.0
C596 C 0.66855 0.52602 0.47935 0.0
C597 C 0.662 0.52781 0.51288 0.0
C598 C 0.65737 0.55307 0.52862 0.0
C599 C 0.65987 0.57723 0.50967 0.0
C600 C 0.66722 0.57599 0.47542 0.0
C601 C 0.67126 0.54998 0.46006 0.0
H602 H 0.18464 0.57795 0.01611 0.0
H603 H 0.15449 0.54646 0.11171 0.0
H604 H 0.14768 0.50031 0.08686 0.0
H605 H 0.13232 0.53658 0.96532 0.0
H606 H 0.15975 0.53122 0.93257 0.0
H607 H 0.16129 0.56214 0.95741 0.0
H608 H 0.21743 0.55161 0.97281 0.0
H609 H 0.2161 0.52072 0.94801 0.0
H610 H 0.22688 0.51882 0.99126 0.0
H611 H 0.14729 0.45726 0.0531 0.0
H612 H 0.1522 0.41978 0.01238 0.0
H613 H 0.18057 0.47846 0.937 0.0
C614 C 0.17643 0.56137 0.03177 0.0
C615 C 0.17013 0.56583 0.06597 0.0
C616 C 0.15944 0.54359 0.08554 0.0
C617 C 0.15546 0.51729 0.07161 0.0
C618 C 0.16199 0.51356 0.03794 0.0
C619 C 0.17209 0.53496 0.01816 0.0
C620 C 0.17797 0.52513 0.98278 0.0
C621 C 0.15655 0.53963 0.95806 0.0
C622 C 0.21159 0.52932 0.97316 0.0
C623 C 0.17018 0.49471 0.98594 0.0
C624 C 0.16098 0.48862 0.01804 0.0
C625 C 0.15411 0.46183 0.02781 0.0
C626 C 0.15703 0.44062 1.0044 0.0
C627 C 0.16649 0.44612 0.97134 0.0
C628 C 0.17273 0.47367 0.96189 0.0
H629 H 0.32692 0.565 0.50306 0.0
H630 H 0.34391 0.53089 0.40493 0.0
H631 H 0.34789 0.48439 0.42942 0.0
H632 H 0.37944 0.51901 0.54776 0.0
H633 H 0.35512 0.51616 0.58374 0.0
H634 H 0.3545 0.54707 0.55884 0.0
H635 H 0.29623 0.54168 0.55068 0.0
H636 H 0.29667 0.51076 0.57548 0.0
H637 H 0.2813 0.50996 0.53387 0.0
H638 H 0.34596 0.44161 0.46316 0.0
H639 H 0.34153 0.40474 0.50456 0.0
H640 H 0.32904 0.4655 0.58268 0.0
C641 C 0.3317 0.54775 0.48679 0.0
C642 C 0.33504 0.55158 0.45199 0.0
C643 C 0.34131 0.5285 0.43158 0.0
C644 C 0.3436 0.50199 0.44528 0.0
C645 C 0.33994 0.49887 0.47955 0.0
C646 C 0.33445 0.52108 0.50016 0.0
C647 C 0.33122 0.51178 0.53618 0.0
C648 C 0.35658 0.52425 0.55791 0.0
C649 C 0.29946 0.51898 0.54985 0.0
C650 C 0.33518 0.4808 0.53244 0.0
C651 C 0.34008 0.47397 0.49945 0.0
C652 C 0.34262 0.44673 0.48912 0.0
C653 C 0.34002 0.42585 0.51298 0.0
C654 C 0.33535 0.4321 0.54707 0.0
C655 C 0.33318 0.46006 0.55694 0.0
H656 H 0.57359 0.11666 0.10493 0.0
H657 H 0.57608 0.16496 0.01423 0.0
H658 H 0.52013 0.17146 0.0174 0.0
H659 H 0.50558 0.08043 0.0838 0.0
H660 H 0.49144 0.07884 0.12587 0.0
H661 H 0.53185 0.08053 0.11835 0.0
H662 H 0.53561 0.12382 0.15593 0.0
H663 H 0.49513 0.12233 0.16344 0.0
H664 H 0.51204 0.15335 0.147 0.0
H665 H 0.46381 0.17276 0.03075 0.0
H666 H 0.41082 0.16348 0.04847 0.0
H667 H 0.44442 0.11052 0.12738 0.0
C668 C 0.56232 0.12893 0.08604 0.0
C669 C 0.57909 0.14071 0.05959 0.0
C670 C 0.56358 0.15594 0.03477 0.0
C671 C 0.53188 0.15984 0.03648 0.0
C672 C 0.51594 0.1479 0.06285 0.0
C673 C 0.53057 0.13236 0.08688 0.0
C674 C 0.50783 0.11967 0.11086 0.0
C675 C 0.50926 0.088 0.10963 0.0
C676 C 0.51297 0.13044 0.14641 0.0
C677 C 0.47812 0.13038 0.09649 0.0
C678 C 0.48335 0.14714 0.06926 0.0
C679 C 0.45946 0.15962 0.05199 0.0
C680 C 0.42943 0.15436 0.06236 0.0
C681 C 0.42347 0.13629 0.08929 0.0
C682 C 0.44826 0.1244 0.10669 0.0
H683 H 0.94899 0.86808 0.53748 0.0
H684 H 0.91644 0.8741 0.63927 0.0
H685 H 0.96951 0.87436 0.65947 0.0
H686 H 0.01437 0.82287 0.55623 0.0
H687 H 0.03861 0.83928 0.52592 0.0
H688 H 0.99797 0.83803 0.51937 0.0
H689 H 0.99673 0.89118 0.51327 0.0
H690 H 0.03731 0.8926 0.51981 0.0
H691 H 0.01221 0.91238 0.54606 0.0
H692 H 0.02583 0.87926 0.66834 0.0
H693 H 0.08187 0.88499 0.66529 0.0
H694 H 0.07863 0.8723 0.55863 0.0
C695 C 0.953 0.86913 0.56405 0.0
C696 C 0.9284 0.87108 0.58675 0.0
C697 C 0.93476 0.87244 0.62133 0.0
C698 C 0.96489 0.87264 0.63309 0.0
C699 C 0.98854 0.87103 0.61006 0.0
C700 C 0.983 0.86894 0.57629 0.0
C701 C 0.01265 0.86804 0.55684 0.0
C702 C 0.0161 0.84041 0.53851 0.0
C703 C 0.01484 0.89251 0.53257 0.0
C704 C 0.03567 0.87065 0.58489 0.0
C705 C 0.02123 0.87244 0.61539 0.0
C706 C 0.03743 0.87725 0.64471 0.0
C707 C 0.06918 0.88049 0.64279 0.0
C708 C 0.08442 0.87841 0.6119 0.0
C709 C 0.0675 0.87311 0.58266 0.0
H710 H 0.44885 0.90725 0.88896 0.0
H711 H 0.41218 0.85659 0.9685 0.0
H712 H 0.46447 0.84587 0.98723 0.0
H713 H 0.51385 0.86251 0.87073 0.0
H714 H 0.539 0.89096 0.86179 0.0
H715 H 0.49865 0.89423 0.85425 0.0
H716 H 0.49714 0.93772 0.89163 0.0
H717 H 0.53742 0.93453 0.89941 0.0
H718 H 0.51109 0.93569 0.93379 0.0
H719 H 0.52066 0.84388 1.00024 0.0
H720 H 0.57693 0.84696 1.00306 0.0
H721 H 0.57732 0.89596 0.91276 0.0
C722 C 0.45183 0.89374 0.91017 0.0
C723 C 0.42637 0.88281 0.9273 0.0
C724 C 0.43128 0.86509 0.95484 0.0
C725 C 0.46091 0.85896 0.96577 0.0
C726 C 0.48548 0.87032 0.94858 0.0
C727 C 0.48129 0.88698 0.92105 0.0
C728 C 0.51161 0.89634 0.90686 0.0
C729 C 0.51603 0.88535 0.8713 0.0
C730 C 0.51447 0.92794 0.90801 0.0
C731 C 0.53347 0.88272 0.93104 0.0
C732 C 0.51792 0.86801 0.9551 0.0
C733 C 0.5331 0.85498 0.98124 0.0
C734 C 0.56502 0.85693 0.98272 0.0
C735 C 0.58145 0.8714 0.95794 0.0
C736 C 0.56537 0.88432 0.93171 0.0
H737 H 0.06173 0.0946 0.3882 0.0
H738 H 0.09406 0.16495 0.44522 0.0
H739 H 0.04108 0.17822 0.45696 0.0
H740 H 0.99417 0.12925 0.35261 0.0
H741 H 0.97071 0.09881 0.35549 0.0
H742 H 0.01128 0.09557 0.34945 0.0
H743 H 0.01489 0.06468 0.40188 0.0
H744 H 0.97441 0.06786 0.40811 0.0
H745 H 1.00039 0.0773 0.44098 0.0
H746 H 0.98547 0.18147 0.46764 0.0
H747 H 0.92979 0.17583 0.47388 0.0
H748 H 0.93192 0.10526 0.40774 0.0
C749 C 0.05769 0.11302 0.40275 0.0
C750 C 0.0823 0.1287 0.41573 0.0
C751 C 0.07583 0.15256 0.43486 0.0
C752 C 0.04572 0.16033 0.4417 0.0
C753 C 0.02212 0.14426 0.429 0.0
C754 C 0.02763 0.12126 0.40965 0.0
C755 C 0.99793 0.10716 0.40006 0.0
C756 C 0.99325 0.10774 0.36214 0.0
C757 C 0.99685 0.0775 0.41357 0.0
C758 C 0.97499 0.12552 0.41764 0.0
C759 C 0.98957 0.14676 0.43421 0.0
C760 C 0.97372 0.16525 0.45428 0.0
C761 C 0.94216 0.16187 0.45774 0.0
C762 C 0.92665 0.14044 0.44087 0.0
C763 C 0.94322 0.12223 0.42021 0.0
H764 H 0.06898 0.59875 0.04505 0.0
H765 H 0.08471 0.67765 0.09279 0.0
H766 H 0.02925 0.68272 0.10229 0.0
H767 H 0.99674 0.61497 0.00548 0.0
H768 H 0.98041 0.58156 0.01377 0.0
H769 H 0.02103 0.5851 0.00858 0.0
H770 H 0.02977 0.56231 0.06613 0.0
H771 H 0.98921 0.55871 0.07149 0.0
H772 H 0.0115 0.57663 0.10239 0.0
H773 H 0.9717 0.67955 0.10541 0.0
H774 H 0.91719 0.66619 0.10718 0.0
H775 H 0.93964 0.58751 0.06223 0.0
C776 C 0.06064 0.61723 0.05712 0.0
C777 C 0.08101 0.63801 0.0678 0.0
C778 C 0.06942 0.66157 0.08429 0.0
C779 C 0.03797 0.66466 0.0897 0.0
C780 C 0.01846 0.64375 0.07902 0.0
C781 C 0.02938 0.62031 0.06348 0.0
C782 C 1.00381 0.60007 0.05645 0.0
C783 C 1.00029 0.59515 0.01883 0.0
C784 C 0.00888 0.57283 0.07524 0.0
C785 C 0.97682 0.6158 0.07037 0.0
C786 C 0.98566 0.64115 0.08278 0.0
C787 C 0.96456 0.65966 0.09601 0.0
C788 C 0.93367 0.65195 0.09684 0.0
C789 C 0.92429 0.62574 0.08518 0.0
C790 C 0.94623 0.60753 0.07176 0.0
H791 H 0.58041 0.37888 0.549 0.0
H792 H 0.58371 0.38667 0.65643 0.0
H793 H 0.52831 0.3779 0.65947 0.0
H794 H 0.51093 0.41539 0.53953 0.0
H795 H 0.49652 0.39471 0.50572 0.0
H796 H 0.53702 0.39816 0.51181 0.0
H797 H 0.54238 0.34505 0.5148 0.0
H798 H 0.50186 0.34142 0.50859 0.0
H799 H 0.51983 0.32593 0.54436 0.0
H800 H 0.47323 0.37044 0.65129 0.0
H801 H 0.42014 0.36742 0.63261 0.0
H802 H 0.45033 0.36719 0.52954 0.0
C803 C 0.56941 0.3781 0.5731 0.0
C804 C 0.58618 0.38298 0.6026 0.0
C805 C 0.57113 0.38273 0.63369 0.0
C806 C 0.53976 0.37771 0.63563 0.0
C807 C 0.52369 0.37337 0.60618 0.0
C808 C 0.53781 0.3737 0.57544 0.0
C809 C 0.51451 0.37079 0.5476 0.0
C810 C 0.51477 0.39628 0.52483 0.0
C811 C 0.51998 0.34421 0.52766 0.0
C812 C 0.48516 0.36908 0.56757 0.0
C813 C 0.49123 0.37021 0.6013 0.0
C814 C 0.46815 0.36944 0.62495 0.0
C815 C 0.43796 0.36771 0.61397 0.0
C816 C 0.43082 0.36706 0.57951 0.0
C817 C 0.45492 0.36759 0.55602 0.0
H818 H 0.05167 0.37056 0.97486 0.0
H819 H 0.08869 0.38514 0.87612 0.0
H820 H 0.03677 0.38564 0.853 0.0
H821 H 0.98918 0.32545 0.94779 0.0
H822 H 0.96271 0.33892 0.97797 0.0
H823 H 1.00297 0.33855 0.98702 0.0
H824 H 1.00165 0.39111 0.9983 0.0
H825 H 0.96142 0.39162 0.98938 0.0
H826 H 0.98691 0.41396 0.96678 0.0
H827 H 0.98125 0.38851 0.84093 0.0
H828 H 0.92504 0.39171 0.84051 0.0
H829 H 0.92297 0.37263 0.94591 0.0
C830 C 0.04888 0.37366 0.94834 0.0
C831 C 0.07444 0.37781 0.92738 0.0
C832 C 0.06965 0.3818 0.89279 0.0
C833 C 0.04018 0.38212 0.87934 0.0
C834 C 0.01557 0.37811 0.90064 0.0
C835 C 0.01952 0.37374 0.93435 0.0
C836 C 0.98896 0.37054 0.95171 0.0
C837 C 0.98578 0.34164 0.96702 0.0
C838 C 0.98448 0.39316 0.9781 0.0
C839 C 0.96731 0.37432 0.92256 0.0
C840 C 0.98325 0.37871 0.89337 0.0
C841 C 0.96849 0.38464 0.86349 0.0
C842 C 0.93661 0.38644 0.86348 0.0
C843 C 0.91977 0.38195 0.89301 0.0
C844 C 0.93532 0.37542 0.92283 0.0
H845 H 0.55832 0.61422 0.37386 0.0
H846 H 0.59308 0.65082 0.46477 0.0
H847 H 0.54042 0.65726 0.48499 0.0
H848 H 0.49048 0.66167 0.36853 0.0
H849 H 0.46651 0.63512 0.35113 0.0
H850 H 0.5069 0.63516 0.34273 0.0
H851 H 0.51072 0.58525 0.36524 0.0
H852 H 0.4705 0.58515 0.37403 0.0
H853 H 0.49745 0.57773 0.40673 0.0
H854 H 0.48507 0.65376 0.49855 0.0
H855 H 0.42953 0.64645 0.50187 0.0
H856 H 0.42902 0.61625 0.4002 0.0
C857 C 0.5547 0.62417 0.39766 0.0
C858 C 0.57971 0.63219 0.41773 0.0
C859 C 0.57423 0.64495 0.44883 0.0
C860 C 0.5444 0.64853 0.46059 0.0
C861 C 0.52023 0.63997 0.44055 0.0
C862 C 0.52493 0.62875 0.40935 0.0
C863 C 0.49476 0.6214 0.39293 0.0
C864 C 0.48935 0.63941 0.36199 0.0
C865 C 0.49329 0.59055 0.38424 0.0
C866 C 0.47257 0.62874 0.42053 0.0
C867 C 0.48785 0.63946 0.44773 0.0
C868 C 0.47276 0.64597 0.47717 0.0
C869 C 0.44122 0.64158 0.47887 0.0
C870 C 0.42487 0.63105 0.4512 0.0
C871 C 0.44081 0.62481 0.42153 0.0
H872 H 0.31545 0.11278 0.2174 0.0
H873 H 0.27381 0.18176 0.16593 0.0
H874 H 0.24588 0.19397 0.21766 0.0
H875 H 0.25132 0.09152 0.25902 0.0
H876 H 0.27115 0.08109 0.29626 0.0
H877 H 0.29068 0.08093 0.257 0.0
H878 H 0.3325 0.11286 0.28153 0.0
H879 H 0.31294 0.11322 0.32096 0.0
H880 H 0.32179 0.1452 0.30026 0.0
H881 H 0.2177 0.19469 0.27487 0.0
H882 H 0.19204 0.18256 0.32817 0.0
H883 H 0.25292 0.11307 0.33963 0.0
C884 C 0.30091 0.13081 0.21693 0.0
C885 C 0.29691 0.1463 0.18741 0.0
C886 C 0.2775 0.16966 0.18821 0.0
C887 C 0.26154 0.17673 0.21755 0.0
C888 C 0.26551 0.16046 0.246 0.0
C889 C 0.28499 0.13806 0.24572 0.0
C890 C 0.28375 0.12223 0.27809 0.0
C891 C 0.27361 0.09219 0.27222 0.0
C892 C 0.31458 0.12346 0.29628 0.0
C893 C 0.25972 0.1385 0.29647 0.0
C894 C 0.24967 0.16083 0.27806 0.0
C895 C 0.22588 0.17755 0.2896 0.0
C896 C 0.21155 0.17069 0.32001 0.0
C897 C 0.22088 0.14716 0.33817 0.0
C898 C 0.24575 0.13148 0.32652 0.0
H899 H 0.32601 0.88956 0.79363 0.0
H900 H 0.2749 0.83089 0.85288 0.0
H901 H 0.24482 0.81814 0.80266 0.0
H902 H 0.26499 0.91619 0.75349 0.0
H903 H 0.28413 0.92227 0.71449 0.0
H904 H 0.30563 0.92173 0.75251 0.0
H905 H 0.34073 0.88358 0.72863 0.0
H906 H 0.31941 0.88413 0.69025 0.0
H907 H 0.32413 0.85224 0.71268 0.0
H908 H 0.21566 0.81699 0.74614 0.0
H909 H 0.19017 0.8291 0.69274 0.0
H910 H 0.25903 0.89114 0.67435 0.0
C911 C 0.30908 0.87342 0.79607 0.0
C912 C 0.30293 0.86117 0.8273 0.0
C913 C 0.28037 0.84031 0.82919 0.0
C914 C 0.26311 0.83304 0.80075 0.0
C915 C 0.26887 0.84669 0.77066 0.0
C916 C 0.29159 0.86636 0.76836 0.0
C917 C 0.29124 0.88082 0.73502 0.0
C918 C 0.28618 0.91208 0.73915 0.0
C919 C 0.32062 0.87482 0.71549 0.0
C920 C 0.26406 0.86706 0.71904 0.0
C921 C 0.25176 0.84689 0.73939 0.0
C922 C 0.22546 0.83249 0.73 0.0
C923 C 0.21118 0.83939 0.69961 0.0
C924 C 0.22285 0.8609 0.67949 0.0
C925 C 0.24987 0.87442 0.68918 0.0
H926 H 0.75276 0.87502 0.83872 0.0
H927 H 0.65799 0.87469 0.80738 0.0
H928 H 0.67402 0.87215 0.74883 0.0
H929 H 0.78192 0.91597 0.77057 0.0
H930 H 0.81676 0.89658 0.76638 0.0
H931 H 0.79809 0.89873 0.80621 0.0
H932 H 0.79626 0.84544 0.80945 0.0
H933 H 0.81484 0.84314 0.76957 0.0
H934 H 0.77874 0.82622 0.77611 0.0
H935 H 0.69973 0.87136 0.6934 0.0
H936 H 0.73395 0.87039 0.64458 0.0
H937 H 0.8124 0.86845 0.71042 0.0
C938 C 0.73545 0.87448 0.81949 0.0
C939 C 0.70405 0.87513 0.8278 0.0
C940 C 0.68214 0.87415 0.80183 0.0
C941 C 0.69101 0.87274 0.76837 0.0
C942 C 0.72198 0.87201 0.76097 0.0
C943 C 0.74394 0.87265 0.7857 0.0
C944 C 0.77569 0.87111 0.77061 0.0
C945 C 0.7942 0.89715 0.77894 0.0
C946 C 0.79236 0.84492 0.78212 0.0
C947 C 0.76804 0.86976 0.73368 0.0
C948 C 0.73688 0.87047 0.72877 0.0
C949 C 0.72417 0.87053 0.69692 0.0
C950 C 0.74378 0.86998 0.66932 0.0
C951 C 0.7758 0.86902 0.6736 0.0
C952 C 0.78799 0.8687 0.70632 0.0
H953 H 0.81464 0.12812 0.30228 0.0
H954 H 0.73781 0.13892 0.36897 0.0
H955 H 0.70358 0.14458 0.32067 0.0
H956 H 0.79048 0.1761 0.23828 0.0
H957 H 0.80297 0.1548 0.20416 0.0
H958 H 0.82201 0.15271 0.24385 0.0
H959 H 0.81183 0.10016 0.24589 0.0
H960 H 0.79289 0.10206 0.20616 0.0
H961 H 0.77335 0.08757 0.24152 0.0
H962 H 0.6778 0.15026 0.26573 0.0
H963 H 0.66069 0.15082 0.20741 0.0
H964 H 0.75298 0.13314 0.17478 0.0
C965 C 0.79062 0.13179 0.30664 0.0
C966 C 0.77891 0.13326 0.33947 0.0
C967 C 0.7473 0.13769 0.34414 0.0
C968 C 0.72768 0.14106 0.31682 0.0
C969 C 0.73988 0.13955 0.28485 0.0
C970 C 0.77051 0.13465 0.27952 0.0
C971 C 0.77727 0.13263 0.24244 0.0
C972 C 0.7995 0.15542 0.23155 0.0
C973 C 0.78956 0.10389 0.23348 0.0
C974 C 0.74567 0.13725 0.22784 0.0
C975 C 0.72461 0.14158 0.25287 0.0
C976 C 0.69405 0.14676 0.24592 0.0
C977 C 0.68458 0.14714 0.2126 0.0
C978 C 0.70541 0.14199 0.18636 0.0
C979 C 0.73647 0.13711 0.19421 0.0
H980 H 0.7362 0.59736 0.32051 0.0
H981 H 0.69813 0.67975 0.32039 0.0
H982 H 0.72481 0.68949 0.26693 0.0
H983 H 0.81034 0.61589 0.28521 0.0
H984 H 0.81269 0.58405 0.26223 0.0
H985 H 0.79236 0.58518 0.30114 0.0
H986 H 0.74412 0.56594 0.27181 0.0
H987 H 0.76418 0.56494 0.23283 0.0
H988 H 0.7289 0.58377 0.23609 0.0
H989 H 0.75312 0.68754 0.20944 0.0
H990 H 0.78113 0.67524 0.15777 0.0
H991 H 0.80032 0.59451 0.19935 0.0
C992 C 0.73366 0.61762 0.30949 0.0
C993 C 0.71494 0.63776 0.32446 0.0
C994 C 0.71248 0.66406 0.30938 0.0
C995 C 0.72748 0.66968 0.27898 0.0
C996 C 0.74522 0.64893 0.26445 0.0
C997 C 0.74861 0.62358 0.27972 0.0
C998 C 0.76813 0.60429 0.25937 0.0
C999 C 0.79763 0.59693 0.2781 0.0
C1000 C 0.75025 0.57821 0.24944 0.0
C1001 C 0.77463 0.6223 0.22958 0.0
C1002 C 0.76149 0.64805 0.23269 0.0
C1003 C 0.76374 0.66752 0.2071 0.0
C1004 C 0.77968 0.66033 0.1778 0.0
C1005 C 0.79312 0.63389 0.17428 0.0
C1006 C 0.79059 0.61495 0.20091 0.0
H1007 H 0.68211 0.37436 0.71199 0.0
H1008 H 0.74568 0.33081 0.64867 0.0
H1009 H 0.77395 0.31505 0.69881 0.0
H1010 H 0.73352 0.40226 0.76228 0.0
H1011 H 0.71157 0.40032 0.80013 0.0
H1012 H 0.69243 0.40147 0.76074 0.0
H1013 H 0.66414 0.35599 0.77481 0.0
H1014 H 0.68329 0.35474 0.81452 0.0
H1015 H 0.68571 0.32586 0.78641 0.0
H1016 H 0.80118 0.31311 0.75517 0.0
H1017 H 0.82401 0.32585 0.80959 0.0
H1018 H 0.74238 0.37101 0.8349 0.0
C1019 C 0.70131 0.36058 0.70873 0.0
C1020 C 0.71165 0.35365 0.67655 0.0
C1021 C 0.73709 0.33596 0.67316 0.0
C1022 C 0.75328 0.327 0.70155 0.0
C1023 C 0.74333 0.33551 0.73304 0.0
C1024 C 0.71752 0.35161 0.73662 0.0
C1025 C 0.71362 0.36147 0.77208 0.0
C1026 C 0.71277 0.39323 0.77388 0.0
C1027 C 0.68499 0.34874 0.78789 0.0
C1028 C 0.74227 0.34998 0.7877 0.0
C1029 C 0.75884 0.33439 0.7652 0.0
C1030 C 0.7879 0.32452 0.7732 0.0
C1031 C 0.80067 0.33165 0.80425 0.0
C1032 C 0.78447 0.34868 0.82665 0.0
C1033 C 0.75464 0.35709 0.81863 0.0
H1034 H 0.24964 0.3716 0.67745 0.0
H1035 H 0.34427 0.37191 0.70958 0.0
H1036 H 0.32808 0.37559 0.76769 0.0
H1037 H 0.22176 0.41977 0.74001 0.0
H1038 H 0.18634 0.40177 0.74684 0.0
H1039 H 0.20489 0.39981 0.70691 0.0
H1040 H 0.20505 0.34653 0.71069 0.0
H1041 H 0.18649 0.34835 0.75062 0.0
H1042 H 0.22202 0.33003 0.74638 0.0
H1043 H 0.30277 0.37989 0.82263 0.0
H1044 H 0.26885 0.38234 0.87158 0.0
H1045 H 0.19005 0.37744 0.80636 0.0
C1046 C 0.26686 0.37253 0.69674 0.0
C1047 C 0.2983 0.37144 0.68863 0.0
C1048 C 0.32006 0.37254 0.71482 0.0
C1049 C 0.31113 0.37474 0.74812 0.0
C1050 C 0.28021 0.37564 0.75537 0.0
C1051 C 0.25828 0.3744 0.73061 0.0
C1052 C 0.22654 0.37504 0.74591 0.0
C1053 C 0.20884 0.40062 0.73422 0.0
C1054 C 0.20899 0.3484 0.73792 0.0
C1055 C 0.23427 0.37687 0.78285 0.0
C1056 C 0.26542 0.37739 0.78759 0.0
C1057 C 0.27829 0.3794 0.81929 0.0
C1058 C 0.25885 0.38082 0.84699 0.0
C1059 C 0.22681 0.37997 0.84298 0.0
C1060 C 0.21446 0.37797 0.81035 0.0
H1061 H 0.31817 0.62723 0.30312 0.0
H1062 H 0.24281 0.64849 0.36799 0.0
H1063 H 0.21035 0.65743 0.31891 0.0
H1064 H 0.30132 0.67576 0.23553 0.0
H1065 H 0.31086 0.65171 0.20297 0.0
H1066 H 0.32936 0.64931 0.24295 0.0
H1067 H 0.31207 0.59846 0.24817 0.0
H1068 H 0.29357 0.6007 0.20822 0.0
H1069 H 0.27215 0.59011 0.2443 0.0
H1070 H 0.18593 0.66385 0.2637 0.0
H1071 H 0.16868 0.66293 0.20558 0.0
H1072 H 0.25791 0.63393 0.1745 0.0
C1073 C 0.29495 0.63414 0.30683 0.0
C1074 C 0.28303 0.63754 0.33937 0.0
C1075 C 0.25236 0.64589 0.34333 0.0
C1076 C 0.23381 0.65112 0.31559 0.0
C1077 C 0.24605 0.64743 0.28389 0.0
C1078 C 0.27575 0.63878 0.27923 0.0
C1079 C 0.28223 0.63437 0.24235 0.0
C1080 C 0.30744 0.65396 0.23024 0.0
C1081 C 0.29049 0.60411 0.23535 0.0
C1082 C 0.25152 0.64185 0.22713 0.0
C1083 C 0.23127 0.64974 0.25168 0.0
C1084 C 0.20155 0.65765 0.24426 0.0
C1085 C 0.19199 0.6571 0.211 0.0
C1086 C 0.21183 0.64832 0.18523 0.0
C1087 C 0.24217 0.64079 0.19351 0.0
loop_
_geom_bond_atom_site_label_1
_geom_bond_atom_site_label_2
_geom_bond_distance
_geom_bond_site_symmetry_2
_ccdc_geom_bond_type
Co0 O1 2.216 . S
Co0 O2 2.091 . S
Co0 O4 2.004 . S
Co0 O10 2.021 . S
Co0 O12 2.137 . S
Co0 O13 2.244 . S
O1 Co0 2.216 . S
O1 C8 1.247 . S
O2 Co0 2.091 . S
O2 C8 1.261 . S
C3 O12 1.247 . S
C3 O13 1.272 . S
O4 Co0 2.004 . S
O4 C9 1.259 . S
Co5 O6 2.061 . S
Co5 O11 2.052 . S
Co5 O13 2.135 . S
O6 Co5 2.061 . S
O6 C9 1.235 . S
C7 O10 1.238 . S
C7 O11 1.241 . S
C8 O1 1.247 . S
C8 O2 1.261 . S
C9 O4 1.259 . S
C9 O6 1.235 . S
O10 Co0 2.021 . S
O10 C7 1.238 . S
O11 Co5 2.052 . S
O11 C7 1.241 . S
O12 Co0 2.137 . S
O12 C3 1.247 . S
O13 Co0 2.244 . S
O13 C3 1.272 . S
O13 Co5 2.135 . S
Co14 O15 2.216 . S
Co14 O16 2.091 . S
Co14 O18 2.004 . S
Co14 O24 2.021 . S
Co14 O26 2.137 . S
Co14 O27 2.244 . S
O15 Co14 2.216 . S
O15 C22 1.247 . S
O16 Co14 2.091 . S
O16 C22 1.261 . S
C17 O26 1.247 . S
C17 O27 1.272 . S
O18 Co14 2.004 . S
O18 C23 1.259 . S
Co19 O20 2.061 . S
Co19 O25 2.052 . S
Co19 O27 2.135 . S
O20 Co19 2.061 . S
O20 C23 1.235 . S
C21 O24 1.238 . S
C21 O25 1.241 . S
C22 O15 1.247 . S
C22 O16 1.261 . S
C23 O18 1.259 . S
C23 O20 1.235 . S
O24 Co14 2.021 . S
O24 C21 1.238 . S
O25 Co19 2.052 . S
O25 C21 1.241 . S
O26 Co14 2.137 . S
O26 C17 1.247 . S
O27 Co14 2.244 . S
O27 C17 1.272 . S
O27 Co19 2.135 . S
Co28 O29 2.216 . S
Co28 O30 2.091 . S
Co28 O32 2.004 . S
Co28 O38 2.021 . S
Co28 O40 2.137 . S
Co28 O41 2.244 . S
O29 Co28 2.216 . S
O29 C36 1.247 . S
O30 Co28 2.091 . S
O30 C36 1.261 . S
C31 O40 1.247 . S
C31 O41 1.272 . S
O32 Co28 2.004 . S
O32 C37 1.259 . S
Co33 O34 2.061 . S
Co33 O39 2.052 . S
Co33 O41 2.135 . S
O34 Co33 2.061 . S
O34 C37 1.235 . S
C35 O38 1.238 . S
C35 O39 1.241 . S
C36 O29 1.247 . S
C36 O30 1.261 . S
C37 O32 1.259 . S
C37 O34 1.235 . S
O38 Co28 2.021 . S
O38 C35 1.238 . S
O39 Co33 2.052 . S
O39 C35 1.241 . S
O40 Co28 2.137 . S
O40 C31 1.247 . S
O41 Co28 2.244 . S
O41 C31 1.272 . S
O41 Co33 2.135 . S
Co42 O43 2.216 . S
Co42 O44 2.091 . S
Co42 O46 2.004 . S
Co42 O52 2.021 . S
Co42 O54 2.137 . S
Co42 O55 2.244 . S
O43 Co42 2.216 . S
O43 C50 1.247 . S
O44 Co42 2.091 . S
O44 C50 1.261 . S
C45 O54 1.247 . S
C45 O55 1.272 . S
O46 Co42 2.004 . S
O46 C51 1.259 . S
Co47 O48 2.061 . S
Co47 O53 2.052 . S
Co47 O55 2.135 . S
O48 Co47 2.061 . S
O48 C51 1.235 . S
C49 O52 1.238 . S
C49 O53 1.241 . S
C50 O43 1.247 . S
C50 O44 1.261 . S
C51 O46 1.259 . S
C51 O48 1.235 . S
O52 Co42 2.021 . S
O52 C49 1.238 . S
O53 Co47 2.052 . S
O53 C49 1.241 . S
O54 Co42 2.137 . S
O54 C45 1.247 . S
O55 Co42 2.244 . S
O55 C45 1.272 . S
O55 Co47 2.135 . S
Co56 O57 2.216 . S
Co56 O58 2.091 . S
Co56 O60 2.004 . S
Co56 O66 2.021 . S
Co56 O68 2.137 . S
Co56 O69 2.244 . S
O57 Co56 2.216 . S
O57 C64 1.247 . S
O58 Co56 2.091 . S
O58 C64 1.261 . S
C59 O68 1.247 . S
C59 O69 1.272 . S
O60 Co56 2.004 . S
O60 C65 1.259 . S
Co61 O62 2.061 . S
Co61 O67 2.052 . S
Co61 O69 2.135 . S
O62 Co61 2.061 . S
O62 C65 1.235 . S
C63 O66 1.238 . S
C63 O67 1.241 . S
C64 O57 1.247 . S
C64 O58 1.261 . S
C65 O60 1.259 . S
C65 O62 1.235 . S
O66 Co56 2.021 . S
O66 C63 1.238 . S
O67 Co61 2.052 . S
O67 C63 1.241 . S
O68 Co56 2.137 . S
O68 C59 1.247 . S
O69 Co56 2.244 . S
O69 C59 1.272 . S
O69 Co61 2.135 . S
Co70 O71 2.216 . S
Co70 O72 2.091 . S
Co70 O74 2.004 . S
Co70 O80 2.021 . S
Co70 O82 2.137 . S
Co70 O83 2.244 . S
O71 Co70 2.216 . S
O71 C78 1.247 . S
O72 Co70 2.091 . S
O72 C78 1.261 . S
C73 O82 1.247 . S
C73 O83 1.272 . S
O74 Co70 2.004 . S
O74 C79 1.259 . S
Co75 O76 2.061 . S
Co75 O81 2.052 . S
Co75 O83 2.135 . S
O76 Co75 2.061 . S
O76 C79 1.235 . S
C77 O80 1.238 . S
C77 O81 1.241 . S
C78 O71 1.247 . S
C78 O72 1.261 . S
C79 O74 1.259 . S
C79 O76 1.235 . S
O80 Co70 2.021 . S
O80 C77 1.238 . S
O81 Co75 2.052 . S
O81 C77 1.241 . S
O82 Co70 2.137 . S
O82 C73 1.247 . S
O83 Co70 2.244 . S
O83 C73 1.272 . S
O83 Co75 2.135 . S
Co84 O85 2.216 . S
Co84 O86 2.091 . S
Co84 O88 2.004 . S
Co84 O94 2.021 . S
Co84 O96 2.137 . S
Co84 O97 2.244 . S
O85 Co84 2.216 . S
O85 C92 1.247 . S
O86 Co84 2.091 . S
O86 C92 1.261 . S
C87 O96 1.247 . S
C87 O97 1.272 . S
O88 Co84 2.004 . S
O88 C93 1.259 . S
Co89 O90 2.061 . S
Co89 O95 2.052 . S
Co89 O97 2.135 . S
O90 Co89 2.061 . S
O90 C93 1.235 . S
C91 O94 1.238 . S
C91 O95 1.241 . S
C92 O85 1.247 . S
C92 O86 1.261 . S
C93 O88 1.259 . S
C93 O90 1.235 . S
O94 Co84 2.021 . S
O94 C91 1.238 . S
O95 Co89 2.052 . S
O95 C91 1.241 . S
O96 Co84 2.137 . S
O96 C87 1.247 . S
O97 Co84 2.244 . S
O97 C87 1.272 . S
O97 Co89 2.135 . S
Co98 O99 2.216 . S
Co98 O100 2.091 . S
Co98 O102 2.004 . S
Co98 O108 2.021 . S
Co98 O110 2.137 . S
Co98 O111 2.244 . S
O99 Co98 2.216 . S
O99 C106 1.247 . S
O100 Co98 2.091 . S
O100 C106 1.261 . S
C101 O110 1.247 . S
C101 O111 1.272 . S
O102 Co98 2.004 . S
O102 C107 1.259 . S
Co103 O104 2.061 . S
Co103 O109 2.052 . S
Co103 O111 2.135 . S
O104 Co103 2.061 . S
O104 C107 1.235 . S
C105 O108 1.238 . S
C105 O109 1.241 . S
C106 O99 1.247 . S
C106 O100 1.261 . S
C107 O102 1.259 . S
C107 O104 1.235 . S
O108 Co98 2.021 . S
O108 C105 1.238 . S
O109 Co103 2.052 . S
O109 C105 1.241 . S
O110 Co98 2.137 . S
O110 C101 1.247 . S
O111 Co98 2.244 . S
O111 C101 1.272 . S
O111 Co103 2.135 . S
Co112 O113 2.216 . S
Co112 O114 2.091 . S
Co112 O116 2.004 . S
Co112 O122 2.021 . S
Co112 O124 2.137 . S
Co112 O125 2.244 . S
O113 Co112 2.216 . S
O113 C120 1.247 . S
O114 Co112 2.091 . S
O114 C120 1.261 . S
C115 O124 1.247 . S
C115 O125 1.272 . S
O116 Co112 2.004 . S
O116 C121 1.259 . S
Co117 O118 2.061 . S
Co117 O123 2.052 . S
Co117 O125 2.135 . S
O118 Co117 2.061 . S
O118 C121 1.235 . S
C119 O122 1.238 . S
C119 O123 1.241 . S
C120 O113 1.247 . S
C120 O114 1.261 . S
C121 O116 1.259 . S
C121 O118 1.235 . S
O122 Co112 2.021 . S
O122 C119 1.238 . S
O123 Co117 2.052 . S
O123 C119 1.241 . S
O124 Co112 2.137 . S
O124 C115 1.247 . S
O125 Co112 2.244 . S
O125 C115 1.272 . S
O125 Co117 2.135 . S
Co126 O127 2.216 . S
Co126 O128 2.091 . S
Co126 O130 2.004 . S
Co126 O136 2.021 . S
Co126 O138 2.137 . S
Co126 O139 2.244 . S
O127 Co126 2.216 . S
O127 C134 1.247 . S
O128 Co126 2.091 . S
O128 C134 1.261 . S
C129 O138 1.247 . S
C129 O139 1.272 . S
O130 Co126 2.004 . S
O130 C135 1.259 . S
Co131 O132 2.061 . S
Co131 O137 2.052 . S
Co131 O139 2.135 . S
O132 Co131 2.061 . S
O132 C135 1.235 . S
C133 O136 1.238 . S
C133 O137 1.241 . S
C134 O127 1.247 . S
C134 O128 1.261 . S
C135 O130 1.259 . S
C135 O132 1.235 . S
O136 Co126 2.021 . S
O136 C133 1.238 . S
O137 Co131 2.052 . S
O137 C133 1.241 . S
O138 Co126 2.137 . S
O138 C129 1.247 . S
O139 Co126 2.244 . S
O139 C129 1.272 . S
O139 Co131 2.135 . S
Co140 O141 2.216 . S
Co140 O142 2.091 . S
Co140 O144 2.004 . S
Co140 O150 2.021 . S
Co140 O152 2.137 . S
Co140 O153 2.244 . S
O141 Co140 2.216 . S
O141 C148 1.247 . S
O142 Co140 2.091 . S
O142 C148 1.261 . S
C143 O152 1.247 . S
C143 O153 1.272 . S
O144 Co140 2.004 . S
O144 C149 1.259 . S
Co145 O146 2.061 . S
Co145 O151 2.052 . S
Co145 O153 2.135 . S
O146 Co145 2.061 . S
O146 C149 1.235 . S
C147 O150 1.238 . S
C147 O151 1.241 . S
C148 O141 1.247 . S
C148 O142 1.261 . S
C149 O144 1.259 . S
C149 O146 1.235 . S
O150 Co140 2.021 . S
O150 C147 1.238 . S
O151 Co145 2.052 . S
O151 C147 1.241 . S
O152 Co140 2.137 . S
O152 C143 1.247 . S
O153 Co140 2.244 . S
O153 C143 1.272 . S
O153 Co145 2.135 . S
Co154 O155 2.216 . S
Co154 O156 2.091 . S
Co154 O158 2.004 . S
Co154 O164 2.021 . S
Co154 O166 2.137 . S
Co154 O167 2.244 . S
O155 Co154 2.216 . S
O155 C162 1.247 . S
O156 Co154 2.091 . S
O156 C162 1.261 . S
C157 O166 1.247 . S
C157 O167 1.272 . S
O158 Co154 2.004 . S
O158 C163 1.259 . S
Co159 O160 2.061 . S
Co159 O165 2.052 . S
Co159 O167 2.135 . S
O160 Co159 2.061 . S
O160 C163 1.235 . S
C161 O164 1.238 . S
C161 O165 1.241 . S
C162 O155 1.247 . S
C162 O156 1.261 . S
C163 O158 1.259 . S
C163 O160 1.235 . S
O164 Co154 2.021 . S
O164 C161 1.238 . S
O165 Co159 2.052 . S
O165 C161 1.241 . S
O166 Co154 2.137 . S
O166 C157 1.247 . S
O167 Co154 2.244 . S
O167 C157 1.272 . S
O167 Co159 2.135 . S
Co168 O169 2.216 . S
Co168 O170 2.091 . S
Co168 O172 2.004 . S
Co168 O178 2.021 . S
Co168 O180 2.137 . S
Co168 O181 2.244 . S
O169 Co168 2.216 . S
O169 C176 1.247 . S
O170 Co168 2.091 . S
O170 C176 1.261 . S
C171 O180 1.247 . S
C171 O181 1.272 . S
O172 Co168 2.004 . S
O172 C177 1.259 . S
Co173 O174 2.061 . S
Co173 O179 2.052 . S
Co173 O181 2.135 . S
O174 Co173 2.061 . S
O174 C177 1.235 . S
C175 O178 1.238 . S
C175 O179 1.241 . S
C176 O169 1.247 . S
C176 O170 1.261 . S
C177 O172 1.259 . S
C177 O174 1.235 . S
O178 Co168 2.021 . S
O178 C175 1.238 . S
O179 Co173 2.052 . S
O179 C175 1.241 . S
O180 Co168 2.137 . S
O180 C171 1.247 . S
O181 Co168 2.244 . S
O181 C171 1.272 . S
O181 Co173 2.135 . S
Co182 O183 2.216 . S
Co182 O184 2.091 . S
Co182 O186 2.004 . S
Co182 O192 2.021 . S
Co182 O194 2.137 . S
Co182 O195 2.244 . S
O183 Co182 2.216 . S
O183 C190 1.247 . S
O184 Co182 2.091 . S
O184 C190 1.261 . S
C185 O194 1.247 . S
C185 O195 1.272 . S
O186 Co182 2.004 . S
O186 C191 1.259 . S
Co187 O188 2.061 . S
Co187 O193 2.052 . S
Co187 O195 2.135 . S
O188 Co187 2.061 . S
O188 C191 1.235 . S
C189 O192 1.238 . S
C189 O193 1.241 . S
C190 O183 1.247 . S
C190 O184 1.261 . S
C191 O186 1.259 . S
C191 O188 1.235 . S
O192 Co182 2.021 . S
O192 C189 1.238 . S
O193 Co187 2.052 . S
O193 C189 1.241 . S
O194 Co182 2.137 . S
O194 C185 1.247 . S
O195 Co182 2.244 . S
O195 C185 1.272 . S
O195 Co187 2.135 . S
Co196 O197 2.216 . S
Co196 O198 2.091 . S
Co196 O200 2.004 . S
Co196 O206 2.021 . S
Co196 O208 2.137 . S
Co196 O209 2.244 . S
O197 Co196 2.216 . S
O197 C204 1.247 . S
O198 Co196 2.091 . S
O198 C204 1.261 . S
C199 O208 1.247 . S
C199 O209 1.272 . S
O200 Co196 2.004 . S
O200 C205 1.259 . S
Co201 O202 2.061 . S
Co201 O207 2.052 . S
Co201 O209 2.135 . S
O202 Co201 2.061 . S
O202 C205 1.235 . S
C203 O206 1.238 . S
C203 O207 1.241 . S
C204 O197 1.247 . S
C204 O198 1.261 . S
C205 O200 1.259 . S
C205 O202 1.235 . S
O206 Co196 2.021 . S
O206 C203 1.238 . S
O207 Co201 2.052 . S
O207 C203 1.241 . S
O208 Co196 2.137 . S
O208 C199 1.247 . S
O209 Co196 2.244 . S
O209 C199 1.272 . S
O209 Co201 2.135 . S
Co210 O211 2.216 . S
Co210 O212 2.091 . S
Co210 O214 2.004 . S
Co210 O220 2.021 . S
Co210 O222 2.137 . S
Co210 O223 2.244 . S
O211 Co210 2.216 . S
O211 C218 1.247 . S
O212 Co210 2.091 . S
O212 C218 1.261 . S
C213 O222 1.247 . S
C213 O223 1.272 . S
O214 Co210 2.004 . S
O214 C219 1.259 . S
Co215 O216 2.061 . S
Co215 O221 2.052 . S
Co215 O223 2.135 . S
O216 Co215 2.061 . S
O216 C219 1.235 . S
C217 O220 1.238 . S
C217 O221 1.241 . S
C218 O211 1.247 . S
C218 O212 1.261 . S
C219 O214 1.259 . S
C219 O216 1.235 . S
O220 Co210 2.021 . S
O220 C217 1.238 . S
O221 Co215 2.052 . S
O221 C217 1.241 . S
O222 Co210 2.137 . S
O222 C213 1.247 . S
O223 Co210 2.244 . S
O223 C213 1.272 . S
O223 Co215 2.135 . S
H224 C236 0.930 1_556 S
H225 C238 0.930 . S
H226 C239 0.930 . S
H227 C243 0.959 . S
H228 C243 0.959 . S
H229 C243 0.961 . S
H230 C244 0.960 . S
H231 C244 0.961 . S
H232 C244 0.959 . S
H233 C247 0.929 . S
H234 C248 0.931 . S
H235 C250 0.930 . S
C236 H224 0.930 1_554 S
C236 C237 1.399 . S
C236 C241 1.399 1_554 S
C237 C236 1.399 . S
C237 C238 1.376 . S
C238 H225 0.930 . S
C238 C237 1.376 . S
C238 C239 1.388 . S
C239 H226 0.930 . S
C239 C238 1.388 . S
C239 C240 1.390 . S
C240 C239 1.390 . S
C240 C241 1.394 1_554 S
C240 C246 1.465 1_554 S
C241 C236 1.399 1_556 S
C241 C240 1.394 1_556 S
C241 C242 1.516 . S
C242 C241 1.516 . S
C242 C243 1.502 . S
C242 C244 1.561 . S
C242 C245 1.526 . S
C243 H227 0.959 . S
C243 H228 0.959 . S
C243 H229 0.961 . S
C243 C242 1.502 . S
C244 H230 0.960 . S
C244 H231 0.961 . S
C244 H232 0.959 . S
C244 C242 1.561 . S
C245 C242 1.526 . S
C245 C246 1.396 . S
C245 C250 1.390 . S
C246 C240 1.465 1_556 S
C246 C245 1.396 . S
C246 C247 1.399 1_556 S
C247 H233 0.929 . S
C247 C246 1.399 1_554 S
C247 C248 1.385 1_554 S
C248 H234 0.931 . S
C248 C247 1.385 1_556 S
C248 C249 1.389 . S
C249 C248 1.389 . S
C249 C250 1.387 . S
C250 H235 0.930 . S
C250 C245 1.390 . S
C250 C249 1.387 . S
H251 C263 0.930 . S
H252 C265 0.930 . S
H253 C266 0.930 . S
H254 C270 0.959 . S
H255 C270 0.959 . S
H256 C270 0.961 . S
H257 C271 0.960 . S
H258 C271 0.961 . S
H259 C271 0.959 . S
H260 C274 0.929 . S
H261 C275 0.931 . S
H262 C277 0.930 . S
C263 H251 0.930 . S
C263 C264 1.399 . S
C263 C268 1.399 . S
C264 C263 1.399 . S
C264 C265 1.376 . S
C265 H252 0.930 . S
C265 C264 1.376 . S
C265 C266 1.388 . S
C266 H253 0.930 . S
C266 C265 1.388 . S
C266 C267 1.390 . S
C267 C266 1.390 . S
C267 C268 1.394 . S
C267 C273 1.465 . S
C268 C263 1.399 . S
C268 C267 1.394 . S
C268 C269 1.516 . S
C269 C268 1.516 . S
C269 C270 1.502 . S
C269 C271 1.561 . S
C269 C272 1.526 . S
C270 H254 0.959 . S
C270 H255 0.959 . S
C270 H256 0.961 . S
C270 C269 1.502 . S
C271 H257 0.960 . S
C271 H258 0.961 . S
C271 H259 0.959 . S
C271 C269 1.561 . S
C272 C269 1.526 . S
C272 C273 1.396 . S
C272 C277 1.390 . S
C273 C267 1.465 . S
C273 C272 1.396 . S
C273 C274 1.399 . S
C274 H260 0.929 . S
C274 C273 1.399 . S
C274 C275 1.385 . S
C275 H261 0.931 . S
C275 C274 1.385 . S
C275 C276 1.389 . S
C276 C275 1.389 . S
C276 C277 1.387 . S
C277 H262 0.930 . S
C277 C272 1.390 . S
C277 C276 1.387 . S
H278 C290 0.930 1_554 S
H279 C292 0.930 . S
H280 C293 0.930 . S
H281 C297 0.959 . S
H282 C297 0.959 . S
H283 C297 0.961 . S
H284 C298 0.960 . S
H285 C298 0.961 . S
H286 C298 0.959 . S
H287 C301 0.929 . S
H288 C302 0.931 . S
H289 C304 0.930 . S
C290 H278 0.930 1_556 S
C290 C291 1.399 . S
C290 C295 1.399 1_556 S
C291 C290 1.399 . S
C291 C292 1.376 . S
C292 H279 0.930 . S
C292 C291 1.376 . S
C292 C293 1.388 . S
C293 H280 0.930 . S
C293 C292 1.388 . S
C293 C294 1.390 . S
C294 C293 1.390 . S
C294 C295 1.394 1_556 S
C294 C300 1.465 1_556 S
C295 C290 1.399 1_554 S
C295 C294 1.394 1_554 S
C295 C296 1.516 . S
C296 C295 1.516 . S
C296 C297 1.502 . S
C296 C298 1.561 . S
C296 C299 1.526 . S
C297 H281 0.959 . S
C297 H282 0.959 . S
C297 H283 0.961 . S
C297 C296 1.502 . S
C298 H284 0.960 . S
C298 H285 0.961 . S
C298 H286 0.959 . S
C298 C296 1.561 . S
C299 C296 1.526 . S
C299 C300 1.396 . S
C299 C304 1.390 . S
C300 C294 1.465 1_554 S
C300 C299 1.396 . S
C300 C301 1.399 1_554 S
C301 H287 0.929 . S
C301 C300 1.399 1_556 S
C301 C302 1.385 1_556 S
C302 H288 0.931 . S
C302 C301 1.385 1_554 S
C302 C303 1.389 . S
C303 C302 1.389 . S
C303 C304 1.387 . S
C304 H289 0.930 . S
C304 C299 1.390 . S
C304 C303 1.387 . S
H305 C317 0.930 . S
H306 C319 0.930 . S
H307 C320 0.930 . S
H308 C324 0.959 . S
H309 C324 0.959 . S
H310 C324 0.961 . S
H311 C325 0.960 . S
H312 C325 0.961 . S
H313 C325 0.959 . S
H314 C328 0.929 . S
H315 C329 0.931 . S
H316 C331 0.930 . S
C317 H305 0.930 . S
C317 C318 1.399 . S
C317 C322 1.399 . S
C318 C317 1.399 . S
C318 C319 1.376 . S
C319 H306 0.930 . S
C319 C318 1.376 . S
C319 C320 1.388 . S
C320 H307 0.930 . S
C320 C319 1.388 . S
C320 C321 1.390 . S
C321 C320 1.390 . S
C321 C322 1.394 . S
C321 C327 1.465 . S
C322 C317 1.399 . S
C322 C321 1.394 . S
C322 C323 1.516 . S
C323 C322 1.516 . S
C323 C324 1.502 . S
C323 C325 1.561 . S
C323 C326 1.526 . S
C324 H308 0.959 . S
C324 H309 0.959 . S
C324 H310 0.961 . S
C324 C323 1.502 . S
C325 H311 0.960 . S
C325 H312 0.961 . S
C325 H313 0.959 . S
C325 C323 1.561 . S
C326 C323 1.526 . S
C326 C327 1.396 . S
C326 C331 1.390 . S
C327 C321 1.465 . S
C327 C326 1.396 . S
C327 C328 1.399 . S
C328 H314 0.929 . S
C328 C327 1.399 . S
C328 C329 1.385 . S
C329 H315 0.931 . S
C329 C328 1.385 . S
C329 C330 1.389 . S
C330 C329 1.389 . S
C330 C331 1.387 . S
C331 H316 0.930 . S
C331 C326 1.390 . S
C331 C330 1.387 . S
H332 C344 0.916 1_556 S
H333 C346 0.930 . S
H334 C347 0.930 . S
H335 C351 0.959 . S
H336 C351 0.959 . S
H337 C351 0.961 . S
H338 C352 0.960 . S
H339 C352 0.961 . S
H340 C352 0.959 . S
H341 C355 0.929 . S
H342 C356 0.931 . S
H343 C358 0.930 . S
C344 H332 0.916 1_554 S
C344 C345 1.420 . S
C344 C349 1.393 1_554 S
C345 C344 1.420 . S
C345 C346 1.376 . S
C346 H333 0.930 . S
C346 C345 1.376 . S
C346 C347 1.388 . S
C347 H334 0.930 . S
C347 C346 1.388 . S
C347 C348 1.390 . S
C348 C347 1.390 . S
C348 C349 1.394 1_554 S
C348 C354 1.465 1_554 S
C349 C344 1.393 1_556 S
C349 C348 1.394 1_556 S
C349 C350 1.516 . S
C350 C349 1.516 . S
C350 C351 1.502 . S
C350 C352 1.561 . S
C350 C353 1.526 . S
C351 H335 0.959 . S
C351 H336 0.959 . S
C351 H337 0.961 . S
C351 C350 1.502 . S
C352 H338 0.960 . S
C352 H339 0.961 . S
C352 H340 0.959 . S
C352 C350 1.561 . S
C353 C350 1.526 . S
C353 C354 1.396 . S
C353 C358 1.390 . S
C354 C348 1.465 1_556 S
C354 C353 1.396 . S
C354 C355 1.399 1_556 S
C355 H341 0.929 . S
C355 C354 1.399 1_554 S
C355 C356 1.385 1_554 S
C356 H342 0.931 . S
C356 C355 1.385 1_556 S
C356 C357 1.389 . S
C357 C356 1.389 . S
C357 C358 1.387 . S
C358 H343 0.930 . S
C358 C353 1.390 . S
C358 C357 1.387 . S
H359 C371 0.930 . S
H360 C373 0.930 . S
H361 C374 0.930 . S
H362 C378 0.959 . S
H363 C378 0.959 . S
H364 C378 0.961 . S
H365 C379 0.960 . S
H366 C379 0.961 . S
H367 C379 0.959 . S
H368 C382 0.929 . S
H369 C383 0.931 . S
H370 C385 0.930 . S
C371 H359 0.930 . S
C371 C372 1.399 . S
C371 C376 1.399 . S
C372 C371 1.399 . S
C372 C373 1.376 . S
C373 H360 0.930 . S
C373 C372 1.376 . S
C373 C374 1.388 . S
C374 H361 0.930 . S
C374 C373 1.388 . S
C374 C375 1.390 . S
C375 C374 1.390 . S
C375 C376 1.394 . S
C375 C381 1.465 . S
C376 C371 1.399 . S
C376 C375 1.394 . S
C376 C377 1.516 . S
C377 C376 1.516 . S
C377 C378 1.502 . S
C377 C379 1.561 . S
C377 C380 1.526 . S
C378 H362 0.959 . S
C378 H363 0.959 . S
C378 H364 0.961 . S
C378 C377 1.502 . S
C379 H365 0.960 . S
C379 H366 0.961 . S
C379 H367 0.959 . S
C379 C377 1.561 . S
C380 C377 1.526 . S
C380 C381 1.396 . S
C380 C385 1.390 . S
C381 C375 1.465 . S
C381 C380 1.396 . S
C381 C382 1.399 . S
C382 H368 0.929 . S
C382 C381 1.399 . S
C382 C383 1.385 . S
C383 H369 0.931 . S
C383 C382 1.385 . S
C383 C384 1.389 . S
C384 C383 1.389 . S
C384 C385 1.387 . S
C385 H370 0.930 . S
C385 C380 1.390 . S
C385 C384 1.387 . S
H386 C398 0.930 . S
H387 C400 0.930 . S
H388 C401 0.930 . S
H389 C405 0.959 . S
H390 C405 0.959 . S
H391 C405 0.961 . S
H392 C406 0.960 . S
H393 C406 0.961 . S
H394 C406 0.959 . S
H395 C409 0.929 . S
H396 C410 0.931 . S
H397 C412 0.930 . S
C398 H386 0.930 . S
C398 C399 1.399 . S
C398 C403 1.399 . S
C399 C398 1.399 . S
C399 C400 1.376 . S
C400 H387 0.930 . S
C400 C399 1.376 . S
C400 C401 1.388 1_556 S
C401 H388 0.930 . S
C401 C400 1.388 1_554 S
C401 C402 1.390 . S
C402 C401 1.390 . S
C402 C403 1.394 1_554 S
C402 C408 1.465 . S
C403 C398 1.399 . S
C403 C402 1.394 1_556 S
C403 C404 1.516 1_556 S
C404 C403 1.516 1_554 S
C404 C405 1.502 1_554 S
C404 C406 1.561 . S
C404 C407 1.526 . S
C405 H389 0.959 . S
C405 H390 0.959 . S
C405 H391 0.961 . S
C405 C404 1.502 1_556 S
C406 H392 0.960 . S
C406 H393 0.961 . S
C406 H394 0.959 . S
C406 C404 1.561 . S
C407 C404 1.526 . S
C407 C408 1.396 . S
C407 C412 1.390 . S
C408 C402 1.465 . S
C408 C407 1.396 . S
C408 C409 1.399 . S
C409 H395 0.929 . S
C409 C408 1.399 . S
C409 C410 1.385 . S
C410 H396 0.931 . S
C410 C409 1.385 . S
C410 C411 1.389 . S
C411 C410 1.389 . S
C411 C412 1.387 . S
C412 H397 0.930 . S
C412 C407 1.390 . S
C412 C411 1.387 . S
H413 C425 0.930 . S
H414 C427 0.930 . S
H415 C428 0.930 . S
H416 C432 0.959 . S
H417 C432 0.959 . S
H418 C432 0.961 . S
H419 C433 0.960 . S
H420 C433 0.961 . S
H421 C433 0.959 . S
H422 C436 0.929 . S
H423 C437 0.931 . S
H424 C439 0.930 . S
C425 H413 0.930 . S
C425 C426 1.399 . S
C425 C430 1.399 . S
C426 C425 1.399 . S
C426 C427 1.376 . S
C427 H414 0.930 . S
C427 C426 1.376 . S
C427 C428 1.388 . S
C428 H415 0.930 . S
C428 C427 1.388 . S
C428 C429 1.390 . S
C429 C428 1.390 . S
C429 C430 1.394 . S
C429 C435 1.465 . S
C430 C425 1.399 . S
C430 C429 1.394 . S
C430 C431 1.516 . S
C431 C430 1.516 . S
C431 C432 1.502 . S
C431 C433 1.561 . S
C431 C434 1.526 . S
C432 H416 0.959 . S
C432 H417 0.959 . S
C432 H418 0.961 . S
C432 C431 1.502 . S
C433 H419 0.960 . S
C433 H420 0.961 . S
C433 H421 0.959 . S
C433 C431 1.561 . S
C434 C431 1.526 . S
C434 C435 1.396 . S
C434 C439 1.390 . S
C435 C429 1.465 . S
C435 C434 1.396 . S
C435 C436 1.399 . S
C436 H422 0.929 . S
C436 C435 1.399 . S
C436 C437 1.385 . S
C437 H423 0.931 . S
C437 C436 1.385 . S
C437 C438 1.389 . S
C438 C437 1.389 . S
C438 C439 1.387 . S
C439 H424 0.930 . S
C439 C434 1.390 . S
C439 C438 1.387 . S
H440 C452 0.930 . S
H441 C454 0.930 . S
H442 C455 0.930 . S
H443 C459 0.966 1_556 S
H444 C459 0.959 . S
H445 C459 0.961 1_545 S
H446 C460 0.960 . S
H447 C460 0.961 . S
H448 C460 0.959 . S
H449 C463 0.929 . S
H450 C464 0.931 . S
H451 C466 0.919 1_554 S
C452 H440 0.930 . S
C452 C453 1.399 . S
C452 C457 1.399 . S
C453 C452 1.399 . S
C453 C454 1.376 . S
C454 H441 0.930 . S
C454 C453 1.376 . S
C454 C455 1.388 1_554 S
C455 H442 0.930 . S
C455 C454 1.388 1_556 S
C455 C456 1.390 1_556 S
C456 C455 1.390 1_554 S
C456 C457 1.395 . S
C456 C462 1.464 1_544 S
C457 C452 1.399 . S
C457 C456 1.395 . S
C457 C458 1.516 1_545 S
C458 C457 1.516 1_565 S
C458 C459 1.502 . S
C458 C460 1.561 . S
C458 C461 1.540 . S
C459 H443 0.966 1_554 S
C459 H444 0.959 . S
C459 H445 0.961 1_565 S
C459 C458 1.502 . S
C460 H446 0.960 . S
C460 H447 0.961 . S
C460 H448 0.959 . S
C460 C458 1.561 . S
C461 C458 1.540 . S
C461 C462 1.388 1_554 S
C461 C466 1.384 1_554 S
C462 C456 1.464 1_566 S
C462 C461 1.388 1_556 S
C462 C463 1.399 . S
C463 H449 0.929 . S
C463 C462 1.399 . S
C463 C464 1.385 . S
C464 H450 0.931 . S
C464 C463 1.385 . S
C464 C465 1.389 . S
C465 C464 1.389 . S
C465 C466 1.387 . S
C466 H451 0.919 1_556 S
C466 C461 1.384 1_556 S
C466 C465 1.387 . S
H467 C479 0.930 . S
H468 C481 0.930 . S
H469 C482 0.930 . S
H470 C486 0.959 . S
H471 C486 0.959 . S
H472 C486 0.936 1_565 S
H473 C487 0.960 . S
H474 C487 0.961 . S
H475 C487 0.959 . S
H476 C490 0.929 . S
H477 C491 0.931 . S
H478 C493 0.930 . S
C479 H467 0.930 . S
C479 C480 1.399 . S
C479 C484 1.399 . S
C480 C479 1.399 . S
C480 C481 1.376 . S
C481 H468 0.930 . S
C481 C480 1.376 . S
C481 C482 1.388 . S
C482 H469 0.930 . S
C482 C481 1.388 . S
C482 C483 1.390 . S
C483 C482 1.390 . S
C483 C484 1.394 . S
C483 C489 1.465 1_565 S
C484 C479 1.399 . S
C484 C483 1.394 . S
C484 C485 1.516 1_565 S
C485 C484 1.516 1_545 S
C485 C486 1.502 . S
C485 C487 1.561 . S
C485 C488 1.526 . S
C486 H470 0.959 . S
C486 H471 0.959 . S
C486 H472 0.936 1_545 S
C486 C485 1.502 . S
C487 H473 0.960 . S
C487 H474 0.961 . S
C487 H475 0.959 . S
C487 C485 1.561 . S
C488 C485 1.526 . S
C488 C489 1.396 . S
C488 C493 1.390 . S
C489 C483 1.465 1_545 S
C489 C488 1.396 . S
C489 C490 1.399 . S
C490 H476 0.929 . S
C490 C489 1.399 . S
C490 C491 1.385 . S
C491 H477 0.931 . S
C491 C490 1.385 . S
C491 C492 1.389 . S
C492 C491 1.389 . S
C492 C493 1.387 . S
C493 H478 0.930 . S
C493 C488 1.390 . S
C493 C492 1.387 . S
H494 C506 0.930 . S
H495 C508 0.930 . S
H496 C509 0.930 . S
H497 C513 0.959 . S
H498 C513 0.959 . S
H499 C513 0.961 . S
H500 C514 0.960 1_565 S
H501 C514 0.961 . S
H502 C514 0.959 1_564 S
H503 C517 0.929 1_565 S
H504 C518 0.931 . S
H505 C520 0.930 . S
C506 H494 0.930 . S
C506 C507 1.399 . S
C506 C511 1.399 . S
C507 C506 1.399 . S
C507 C508 1.376 . S
C508 H495 0.930 . S
C508 C507 1.376 . S
C508 C509 1.388 1_556 S
C509 H496 0.930 . S
C509 C508 1.388 1_554 S
C509 C510 1.392 . S
C510 C509 1.392 . S
C510 C511 1.372 1_554 S
C510 C516 1.483 1_565 S
C511 C506 1.399 . S
C511 C510 1.372 1_556 S
C511 C512 1.516 1_565 S
C512 C511 1.516 1_545 S
C512 C513 1.502 . S
C512 C514 1.561 . S
C512 C515 1.526 1_556 S
C513 H497 0.959 . S
C513 H498 0.959 . S
C513 H499 0.961 . S
C513 C512 1.502 . S
C514 H500 0.960 1_545 S
C514 H501 0.961 . S
C514 H502 0.959 1_546 S
C514 C512 1.561 . S
C515 C512 1.526 1_554 S
C515 C516 1.396 . S
C515 C520 1.390 . S
C516 C510 1.483 1_545 S
C516 C515 1.396 . S
C516 C517 1.399 . S
C517 H503 0.929 1_545 S
C517 C516 1.399 . S
C517 C518 1.385 . S
C518 H504 0.931 . S
C518 C517 1.385 . S
C518 C519 1.389 . S
C519 C518 1.389 . S
C519 C520 1.387 . S
C520 H505 0.930 . S
C520 C515 1.390 . S
C520 C519 1.387 . S
H521 C533 0.930 . S
H522 C535 0.930 . S
H523 C536 0.930 . S
H524 C540 0.959 . S
H525 C540 0.959 . S
H526 C540 0.961 . S
H527 C541 0.960 . S
H528 C541 0.961 . S
H529 C541 0.959 . S
H530 C544 0.918 1_545 S
H531 C545 0.931 . S
H532 C547 0.930 . S
C533 H521 0.930 . S
C533 C534 1.399 . S
C533 C538 1.399 . S
C534 C533 1.399 . S
C534 C535 1.376 . S
C535 H522 0.930 . S
C535 C534 1.376 . S
C535 C536 1.388 . S
C536 H523 0.930 . S
C536 C535 1.388 . S
C536 C537 1.390 . S
C537 C536 1.390 . S
C537 C538 1.394 . S
C537 C543 1.465 1_545 S
C538 C533 1.399 . S
C538 C537 1.394 . S
C538 C539 1.516 1_545 S
C539 C538 1.516 1_565 S
C539 C540 1.502 . S
C539 C541 1.561 . S
C539 C542 1.526 . S
C540 H524 0.959 . S
C540 H525 0.959 . S
C540 H526 0.961 . S
C540 C539 1.502 . S
C541 H527 0.960 . S
C541 H528 0.961 . S
C541 H529 0.959 . S
C541 C539 1.561 . S
C542 C539 1.526 . S
C542 C543 1.396 . S
C542 C547 1.390 . S
C543 C537 1.465 1_565 S
C543 C542 1.396 . S
C543 C544 1.399 . S
C544 H530 0.918 1_565 S
C544 C543 1.399 . S
C544 C545 1.385 . S
C545 H531 0.931 . S
C545 C544 1.385 . S
C545 C546 1.389 . S
C546 C545 1.389 . S
C546 C547 1.387 . S
C547 H532 0.930 . S
C547 C542 1.390 . S
C547 C546 1.387 . S
H548 C560 0.930 1_554 S
H549 C562 0.930 . S
H550 C563 0.930 . S
H551 C567 0.959 . S
H552 C567 0.959 . S
H553 C567 0.961 . S
H554 C568 0.960 . S
H555 C568 0.961 . S
H556 C568 0.959 . S
H557 C571 0.929 . S
H558 C572 0.931 1_556 S
H559 C574 0.930 . S
C560 H548 0.930 1_556 S
C560 C561 1.399 . S
C560 C565 1.399 1_556 S
C561 C560 1.399 . S
C561 C562 1.376 . S
C562 H549 0.930 . S
C562 C561 1.376 . S
C562 C563 1.388 . S
C563 H550 0.930 . S
C563 C562 1.388 . S
C563 C564 1.390 . S
C564 C563 1.390 . S
C564 C565 1.394 1_556 S
C564 C570 1.465 . S
C565 C560 1.399 1_554 S
C565 C564 1.394 1_554 S
C565 C566 1.516 . S
C566 C565 1.516 . S
C566 C567 1.502 . S
C566 C568 1.561 . S
C566 C569 1.526 . S
C567 H551 0.959 . S
C567 H552 0.959 . S
C567 H553 0.961 . S
C567 C566 1.502 . S
C568 H554 0.960 . S
C568 H555 0.961 . S
C568 H556 0.959 . S
C568 C566 1.561 . S
C569 C566 1.526 . S
C569 C570 1.396 1_554 S
C569 C574 1.390 . S
C570 C564 1.465 . S
C570 C569 1.396 1_556 S
C570 C571 1.399 . S
C571 H557 0.929 . S
C571 C570 1.399 . S
C571 C572 1.385 1_556 S
C572 H558 0.931 1_554 S
C572 C571 1.385 1_554 S
C572 C573 1.389 . S
C573 C572 1.389 . S
C573 C574 1.387 . S
C574 H559 0.930 . S
C574 C569 1.390 . S
C574 C573 1.387 . S
H575 C587 0.930 . S
H576 C589 0.930 . S
H577 C590 0.930 . S
H578 C594 0.959 . S
H579 C594 0.959 . S
H580 C594 0.961 . S
H581 C595 0.960 . S
H582 C595 0.961 . S
H583 C595 0.959 . S
H584 C598 0.929 . S
H585 C599 0.931 . S
H586 C601 0.930 . S
C587 H575 0.930 . S
C587 C588 1.399 . S
C587 C592 1.399 . S
C588 C587 1.399 . S
C588 C589 1.376 . S
C589 H576 0.930 . S
C589 C588 1.376 . S
C589 C590 1.388 . S
C590 H577 0.930 . S
C590 C589 1.388 . S
C590 C591 1.390 . S
C591 C590 1.390 . S
C591 C592 1.394 . S
C591 C597 1.465 . S
C592 C587 1.399 . S
C592 C591 1.394 . S
C592 C593 1.516 . S
C593 C592 1.516 . S
C593 C594 1.502 . S
C593 C595 1.561 . S
C593 C596 1.526 . S
C594 H578 0.959 . S
C594 H579 0.959 . S
C594 H580 0.961 . S
C594 C593 1.502 . S
C595 H581 0.960 . S
C595 H582 0.961 . S
C595 H583 0.959 . S
C595 C593 1.561 . S
C596 C593 1.526 . S
C596 C597 1.396 . S
C596 C601 1.390 . S
C597 C591 1.465 . S
C597 C596 1.396 . S
C597 C598 1.399 . S
C598 H584 0.929 . S
C598 C597 1.399 . S
C598 C599 1.385 . S
C599 H585 0.931 . S
C599 C598 1.385 . S
C599 C600 1.389 . S
C600 C599 1.389 . S
C600 C601 1.387 . S
C601 H586 0.930 . S
C601 C596 1.390 . S
C601 C600 1.387 . S
H602 C614 0.930 . S
H603 C616 0.930 . S
H604 C617 0.930 . S
H605 C621 0.959 . S
H606 C621 0.959 . S
H607 C621 0.961 . S
H608 C622 0.960 . S
H609 C622 0.961 . S
H610 C622 0.959 . S
H611 C625 0.929 . S
H612 C626 0.931 . S
H613 C628 0.930 . S
C614 H602 0.930 . S
C614 C615 1.399 . S
C614 C619 1.399 . S
C615 C614 1.399 . S
C615 C616 1.376 . S
C616 H603 0.930 . S
C616 C615 1.376 . S
C616 C617 1.388 . S
C617 H604 0.930 . S
C617 C616 1.388 . S
C617 C618 1.390 . S
C618 C617 1.390 . S
C618 C619 1.394 . S
C618 C624 1.465 1_554 S
C619 C614 1.399 . S
C619 C618 1.394 . S
C619 C620 1.516 1_554 S
C620 C619 1.516 1_556 S
C620 C621 1.502 . S
C620 C622 1.561 . S
C620 C623 1.526 . S
C621 H605 0.959 . S
C621 H606 0.959 . S
C621 H607 0.961 . S
C621 C620 1.502 . S
C622 H608 0.960 . S
C622 H609 0.961 . S
C622 H610 0.959 . S
C622 C620 1.561 . S
C623 C620 1.526 . S
C623 C624 1.396 . S
C623 C628 1.390 . S
C624 C618 1.465 1_556 S
C624 C623 1.396 . S
C624 C625 1.399 1_556 S
C625 H611 0.929 . S
C625 C624 1.399 1_554 S
C625 C626 1.385 1_554 S
C626 H612 0.931 . S
C626 C625 1.385 1_556 S
C626 C627 1.389 . S
C627 C626 1.389 . S
C627 C628 1.387 . S
C628 H613 0.930 . S
C628 C623 1.390 . S
C628 C627 1.387 . S
H629 C641 0.930 . S
H630 C643 0.930 . S
H631 C644 0.930 . S
H632 C648 0.959 . S
H633 C648 0.959 . S
H634 C648 0.961 . S
H635 C649 0.960 . S
H636 C649 0.961 . S
H637 C649 0.959 . S
H638 C652 0.929 . S
H639 C653 0.931 . S
H640 C655 0.930 . S
C641 H629 0.930 . S
C641 C642 1.399 . S
C641 C646 1.399 . S
C642 C641 1.399 . S
C642 C643 1.376 . S
C643 H630 0.930 . S
C643 C642 1.376 . S
C643 C644 1.388 . S
C644 H631 0.930 . S
C644 C643 1.388 . S
C644 C645 1.390 . S
C645 C644 1.390 . S
C645 C646 1.394 . S
C645 C651 1.465 . S
C646 C641 1.399 . S
C646 C645 1.394 . S
C646 C647 1.516 . S
C647 C646 1.516 . S
C647 C648 1.502 . S
C647 C649 1.561 . S
C647 C650 1.526 . S
C648 H632 0.959 . S
C648 H633 0.959 . S
C648 H634 0.961 . S
C648 C647 1.502 . S
C649 H635 0.960 . S
C649 H636 0.961 . S
C649 H637 0.959 . S
C649 C647 1.561 . S
C650 C647 1.526 . S
C650 C651 1.396 . S
C650 C655 1.390 . S
C651 C645 1.465 . S
C651 C650 1.396 . S
C651 C652 1.399 . S
C652 H638 0.929 . S
C652 C651 1.399 . S
C652 C653 1.385 . S
C653 H639 0.931 . S
C653 C652 1.385 . S
C653 C654 1.389 . S
C654 C653 1.389 . S
C654 C655 1.387 . S
C655 H640 0.930 . S
C655 C650 1.390 . S
C655 C654 1.387 . S
H656 C668 0.930 . S
H657 C670 0.930 . S
H658 C671 0.930 . S
H659 C675 0.959 . S
H660 C675 0.959 . S
H661 C675 0.961 . S
H662 C676 0.960 . S
H663 C676 0.961 . S
H664 C676 0.959 . S
H665 C679 0.929 . S
H666 C680 0.931 . S
H667 C682 0.930 . S
C668 H656 0.930 . S
C668 C669 1.399 . S
C668 C673 1.399 . S
C669 C668 1.399 . S
C669 C670 1.376 . S
C670 H657 0.930 . S
C670 C669 1.376 . S
C670 C671 1.388 . S
C671 H658 0.930 . S
C671 C670 1.388 . S
C671 C672 1.390 . S
C672 C671 1.390 . S
C672 C673 1.394 . S
C672 C678 1.465 . S
C673 C668 1.399 . S
C673 C672 1.394 . S
C673 C674 1.516 . S
C674 C673 1.516 . S
C674 C675 1.502 . S
C674 C676 1.561 . S
C674 C677 1.526 . S
C675 H659 0.959 . S
C675 H660 0.959 . S
C675 H661 0.961 . S
C675 C674 1.502 . S
C676 H662 0.960 . S
C676 H663 0.961 . S
C676 H664 0.959 . S
C676 C674 1.561 . S
C677 C674 1.526 . S
C677 C678 1.396 . S
C677 C682 1.390 . S
C678 C672 1.465 . S
C678 C677 1.396 . S
C678 C679 1.399 . S
C679 H665 0.929 . S
C679 C678 1.399 . S
C679 C680 1.385 . S
C680 H666 0.931 . S
C680 C679 1.385 . S
C680 C681 1.389 . S
C681 C680 1.389 . S
C681 C682 1.387 . S
C682 H667 0.930 . S
C682 C677 1.390 . S
C682 C681 1.387 . S
H683 C695 0.930 . S
H684 C697 0.930 . S
H685 C698 0.930 . S
H686 C702 0.959 . S
H687 C702 0.959 . S
H688 C702 0.961 . S
H689 C703 0.960 . S
H690 C703 0.961 . S
H691 C703 0.959 . S
H692 C706 0.929 . S
H693 C707 0.931 . S
H694 C709 0.930 . S
C695 H683 0.930 . S
C695 C696 1.399 . S
C695 C700 1.399 1_655 S
C696 C695 1.399 . S
C696 C697 1.376 . S
C697 H684 0.930 . S
C697 C696 1.376 . S
C697 C698 1.388 . S
C698 H685 0.930 . S
C698 C697 1.388 . S
C698 C699 1.390 1_655 S
C699 C698 1.390 1_455 S
C699 C700 1.394 . S
C699 C705 1.465 . S
C700 C695 1.399 1_455 S
C700 C699 1.394 . S
C700 C701 1.516 . S
C701 C700 1.516 . S
C701 C702 1.502 . S
C701 C703 1.561 . S
C701 C704 1.526 . S
C702 H686 0.959 . S
C702 H687 0.959 . S
C702 H688 0.961 . S
C702 C701 1.502 . S
C703 H689 0.960 . S
C703 H690 0.961 . S
C703 H691 0.959 . S
C703 C701 1.561 . S
C704 C701 1.526 . S
C704 C705 1.396 . S
C704 C709 1.390 . S
C705 C699 1.465 . S
C705 C704 1.396 . S
C705 C706 1.399 . S
C706 H692 0.929 . S
C706 C705 1.399 . S
C706 C707 1.385 . S
C707 H693 0.931 . S
C707 C706 1.385 . S
C707 C708 1.389 . S
C708 C707 1.389 . S
C708 C709 1.387 . S
C709 H694 0.930 . S
C709 C704 1.390 . S
C709 C708 1.387 . S
H710 C722 0.930 . S
H711 C724 0.930 . S
H712 C725 0.930 . S
H713 C729 0.959 . S
H714 C729 0.959 . S
H715 C729 0.961 . S
H716 C730 0.960 . S
H717 C730 0.961 . S
H718 C730 0.959 . S
H719 C733 0.929 . S
H720 C734 0.931 . S
H721 C736 0.930 . S
C722 H710 0.930 . S
C722 C723 1.399 . S
C722 C727 1.399 . S
C723 C722 1.399 . S
C723 C724 1.376 . S
C724 H711 0.930 . S
C724 C723 1.376 . S
C724 C725 1.388 . S
C725 H712 0.930 . S
C725 C724 1.388 . S
C725 C726 1.390 . S
C726 C725 1.390 . S
C726 C727 1.394 . S
C726 C732 1.465 . S
C727 C722 1.399 . S
C727 C726 1.394 . S
C727 C728 1.516 . S
C728 C727 1.516 . S
C728 C729 1.502 . S
C728 C730 1.561 . S
C728 C731 1.526 . S
C729 H713 0.959 . S
C729 H714 0.959 . S
C729 H715 0.961 . S
C729 C728 1.502 . S
C730 H716 0.960 . S
C730 H717 0.961 . S
C730 H718 0.959 . S
C730 C728 1.561 . S
C731 C728 1.526 . S
C731 C732 1.396 . S
C731 C736 1.390 . S
C732 C726 1.465 . S
C732 C731 1.396 . S
C732 C733 1.399 . S
C733 H719 0.929 . S
C733 C732 1.399 . S
C733 C734 1.385 . S
C734 H720 0.931 . S
C734 C733 1.385 . S
C734 C735 1.389 . S
C735 C734 1.389 . S
C735 C736 1.387 . S
C736 H721 0.930 . S
C736 C731 1.390 . S
C736 C735 1.387 . S
H737 C749 0.930 . S
H738 C751 0.930 . S
H739 C752 0.930 . S
H740 C756 0.959 . S
H741 C756 0.959 . S
H742 C756 0.961 . S
H743 C757 0.960 . S
H744 C757 0.961 . S
H745 C757 0.959 . S
H746 C760 0.924 1_455 S
H747 C761 0.931 . S
H748 C763 0.930 . S
C749 H737 0.930 . S
C749 C750 1.399 . S
C749 C754 1.399 . S
C750 C749 1.399 . S
C750 C751 1.376 . S
C751 H738 0.930 . S
C751 C750 1.376 . S
C751 C752 1.388 . S
C752 H739 0.930 . S
C752 C751 1.388 . S
C752 C753 1.390 . S
C753 C752 1.390 . S
C753 C754 1.394 . S
C753 C759 1.465 . S
C754 C749 1.399 . S
C754 C753 1.394 . S
C754 C755 1.516 . S
C755 C754 1.516 . S
C755 C756 1.502 . S
C755 C757 1.561 . S
C755 C758 1.526 . S
C756 H740 0.959 . S
C756 H741 0.959 . S
C756 H742 0.961 . S
C756 C755 1.502 . S
C757 H743 0.960 . S
C757 H744 0.961 . S
C757 H745 0.959 . S
C757 C755 1.561 . S
C758 C755 1.526 . S
C758 C759 1.396 . S
C758 C763 1.389 1_455 S
C759 C753 1.465 . S
C759 C758 1.396 . S
C759 C760 1.399 1_455 S
C760 H746 0.924 1_655 S
C760 C759 1.399 1_655 S
C760 C761 1.385 . S
C761 H747 0.931 . S
C761 C760 1.385 . S
C761 C762 1.389 . S
C762 C761 1.389 . S
C762 C763 1.387 . S
C763 H748 0.930 . S
C763 C758 1.389 1_655 S
C763 C762 1.387 . S
H764 C776 0.930 . S
H765 C778 0.930 . S
H766 C779 0.930 . S
H767 C783 0.959 . S
H768 C783 0.959 . S
H769 C783 0.961 . S
H770 C784 0.960 . S
H771 C784 0.961 . S
H772 C784 0.959 . S
H773 C787 0.929 . S
H774 C788 0.931 . S
H775 C790 0.930 . S
C776 H764 0.930 . S
C776 C777 1.399 . S
C776 C781 1.399 1_455 S
C777 C776 1.399 . S
C777 C778 1.376 . S
C778 H765 0.930 . S
C778 C777 1.376 . S
C778 C779 1.388 . S
C779 H766 0.930 . S
C779 C778 1.388 . S
C779 C780 1.390 1_455 S
C780 C779 1.390 1_655 S
C780 C781 1.394 . S
C780 C786 1.465 . S
C781 C776 1.399 1_655 S
C781 C780 1.394 . S
C781 C782 1.516 . S
C782 C781 1.516 . S
C782 C783 1.502 . S
C782 C784 1.561 . S
C782 C785 1.526 . S
C783 H767 0.959 . S
C783 H768 0.959 . S
C783 H769 0.961 . S
C783 C782 1.502 . S
C784 H770 0.960 . S
C784 H771 0.961 . S
C784 H772 0.959 . S
C784 C782 1.561 . S
C785 C782 1.526 . S
C785 C786 1.396 . S
C785 C790 1.390 . S
C786 C780 1.465 . S
C786 C785 1.396 . S
C786 C787 1.399 . S
C787 H773 0.929 . S
C787 C786 1.399 . S
C787 C788 1.385 . S
C788 H774 0.931 . S
C788 C787 1.385 . S
C788 C789 1.389 . S
C789 C788 1.389 . S
C789 C790 1.387 . S
C790 H775 0.930 . S
C790 C785 1.390 . S
C790 C789 1.387 . S
H791 C803 0.930 . S
H792 C805 0.930 . S
H793 C806 0.930 . S
H794 C810 0.959 . S
H795 C810 0.959 . S
H796 C810 0.961 . S
H797 C811 0.960 . S
H798 C811 0.961 . S
H799 C811 0.959 . S
H800 C814 0.929 . S
H801 C815 0.931 . S
H802 C817 0.930 . S
C803 H791 0.930 . S
C803 C804 1.399 . S
C803 C808 1.399 . S
C804 C803 1.399 . S
C804 C805 1.376 . S
C805 H792 0.930 . S
C805 C804 1.376 . S
C805 C806 1.388 . S
C806 H793 0.930 . S
C806 C805 1.388 . S
C806 C807 1.390 . S
C807 C806 1.390 . S
C807 C808 1.394 . S
C807 C813 1.465 . S
C808 C803 1.399 . S
C808 C807 1.394 . S
C808 C809 1.516 . S
C809 C808 1.516 . S
C809 C810 1.502 . S
C809 C811 1.561 . S
C809 C812 1.526 . S
C810 H794 0.959 . S
C810 H795 0.959 . S
C810 H796 0.961 . S
C810 C809 1.502 . S
C811 H797 0.960 . S
C811 H798 0.961 . S
C811 H799 0.959 . S
C811 C809 1.561 . S
C812 C809 1.526 . S
C812 C813 1.396 . S
C812 C817 1.390 . S
C813 C807 1.465 . S
C813 C812 1.396 . S
C813 C814 1.399 . S
C814 H800 0.929 . S
C814 C813 1.399 . S
C814 C815 1.385 . S
C815 H801 0.931 . S
C815 C814 1.385 . S
C815 C816 1.389 . S
C816 C815 1.389 . S
C816 C817 1.387 . S
C817 H802 0.930 . S
C817 C812 1.390 . S
C817 C816 1.387 . S
H818 C830 0.930 . S
H819 C832 0.930 . S
H820 C833 0.930 . S
H821 C837 0.959 . S
H822 C837 0.959 . S
H823 C837 0.961 . S
H824 C838 0.960 . S
H825 C838 0.961 . S
H826 C838 0.959 . S
H827 C841 0.929 . S
H828 C842 0.931 . S
H829 C844 0.930 . S
C830 H818 0.930 . S
C830 C831 1.399 . S
C830 C835 1.399 1_455 S
C831 C830 1.399 . S
C831 C832 1.376 . S
C832 H819 0.930 . S
C832 C831 1.376 . S
C832 C833 1.388 . S
C833 H820 0.930 . S
C833 C832 1.388 . S
C833 C834 1.390 1_455 S
C834 C833 1.390 1_655 S
C834 C835 1.394 . S
C834 C840 1.465 . S
C835 C830 1.399 1_655 S
C835 C834 1.394 . S
C835 C836 1.516 . S
C836 C835 1.516 . S
C836 C837 1.502 . S
C836 C838 1.561 . S
C836 C839 1.526 . S
C837 H821 0.959 . S
C837 H822 0.959 . S
C837 H823 0.961 . S
C837 C836 1.502 . S
C838 H824 0.960 . S
C838 H825 0.961 . S
C838 H826 0.959 . S
C838 C836 1.561 . S
C839 C836 1.526 . S
C839 C840 1.396 . S
C839 C844 1.390 . S
C840 C834 1.465 . S
C840 C839 1.396 . S
C840 C841 1.399 . S
C841 H827 0.929 . S
C841 C840 1.399 . S
C841 C842 1.385 . S
C842 H828 0.931 . S
C842 C841 1.385 . S
C842 C843 1.389 . S
C843 C842 1.389 . S
C843 C844 1.387 . S
C844 H829 0.930 . S
C844 C839 1.390 . S
C844 C843 1.387 . S
H845 C857 0.930 . S
H846 C859 0.930 . S
H847 C860 0.930 . S
H848 C864 0.959 . S
H849 C864 0.959 . S
H850 C864 0.961 . S
H851 C865 0.960 . S
H852 C865 0.961 . S
H853 C865 0.959 . S
H854 C868 0.929 . S
H855 C869 0.931 . S
H856 C871 0.930 . S
C857 H845 0.930 . S
C857 C858 1.399 . S
C857 C862 1.399 . S
C858 C857 1.399 . S
C858 C859 1.376 . S
C859 H846 0.930 . S
C859 C858 1.376 . S
C859 C860 1.388 . S
C860 H847 0.930 . S
C860 C859 1.388 . S
C860 C861 1.390 . S
C861 C860 1.390 . S
C861 C862 1.394 . S
C861 C867 1.465 . S
C862 C857 1.399 . S
C862 C861 1.394 . S
C862 C863 1.516 . S
C863 C862 1.516 . S
C863 C864 1.502 . S
C863 C865 1.561 . S
C863 C866 1.526 . S
C864 H848 0.959 . S
C864 H849 0.959 . S
C864 H850 0.961 . S
C864 C863 1.502 . S
C865 H851 0.960 . S
C865 H852 0.961 . S
C865 H853 0.959 . S
C865 C863 1.561 . S
C866 C863 1.526 . S
C866 C867 1.396 . S
C866 C871 1.390 . S
C867 C861 1.465 . S
C867 C866 1.396 . S
C867 C868 1.399 . S
C868 H854 0.929 . S
C868 C867 1.399 . S
C868 C869 1.385 . S
C869 H855 0.931 . S
C869 C868 1.385 . S
C869 C870 1.389 . S
C870 C869 1.389 . S
C870 C871 1.387 . S
C871 H856 0.930 . S
C871 C866 1.390 . S
C871 C870 1.387 . S
H872 C884 0.930 . S
H873 C886 0.930 . S
H874 C887 0.930 . S
H875 C891 0.959 . S
H876 C891 0.959 . S
H877 C891 0.961 . S
H878 C892 0.960 . S
H879 C892 0.961 . S
H880 C892 0.959 . S
H881 C895 0.929 . S
H882 C896 0.931 . S
H883 C898 0.930 . S
C884 H872 0.930 . S
C884 C885 1.399 . S
C884 C889 1.399 . S
C885 C884 1.399 . S
C885 C886 1.376 . S
C886 H873 0.930 . S
C886 C885 1.376 . S
C886 C887 1.388 . S
C887 H874 0.930 . S
C887 C886 1.388 . S
C887 C888 1.390 . S
C888 C887 1.390 . S
C888 C889 1.394 . S
C888 C894 1.465 . S
C889 C884 1.399 . S
C889 C888 1.394 . S
C889 C890 1.516 . S
C890 C889 1.516 . S
C890 C891 1.502 . S
C890 C892 1.561 . S
C890 C893 1.526 . S
C891 H875 0.959 . S
C891 H876 0.959 . S
C891 H877 0.961 . S
C891 C890 1.502 . S
C892 H878 0.960 . S
C892 H879 0.961 . S
C892 H880 0.959 . S
C892 C890 1.561 . S
C893 C890 1.526 . S
C893 C894 1.396 . S
C893 C898 1.390 . S
C894 C888 1.465 . S
C894 C893 1.396 . S
C894 C895 1.399 . S
C895 H881 0.929 . S
C895 C894 1.399 . S
C895 C896 1.385 . S
C896 H882 0.931 . S
C896 C895 1.385 . S
C896 C897 1.389 . S
C897 C896 1.389 . S
C897 C898 1.387 . S
C898 H883 0.930 . S
C898 C893 1.390 . S
C898 C897 1.387 . S
H899 C911 0.930 . S
H900 C913 0.930 . S
H901 C914 0.930 . S
H902 C918 0.959 . S
H903 C918 0.959 . S
H904 C918 0.961 . S
H905 C919 0.960 . S
H906 C919 0.961 . S
H907 C919 0.959 . S
H908 C922 0.929 . S
H909 C923 0.931 . S
H910 C925 0.930 . S
C911 H899 0.930 . S
C911 C912 1.399 . S
C911 C916 1.399 . S
C912 C911 1.399 . S
C912 C913 1.376 . S
C913 H900 0.930 . S
C913 C912 1.376 . S
C913 C914 1.388 . S
C914 H901 0.930 . S
C914 C913 1.388 . S
C914 C915 1.390 . S
C915 C914 1.390 . S
C915 C916 1.394 . S
C915 C921 1.465 . S
C916 C911 1.399 . S
C916 C915 1.394 . S
C916 C917 1.516 . S
C917 C916 1.516 . S
C917 C918 1.502 . S
C917 C919 1.561 . S
C917 C920 1.526 . S
C918 H902 0.959 . S
C918 H903 0.959 . S
C918 H904 0.961 . S
C918 C917 1.502 . S
C919 H905 0.960 . S
C919 H906 0.961 . S
C919 H907 0.959 . S
C919 C917 1.561 . S
C920 C917 1.526 . S
C920 C921 1.396 . S
C920 C925 1.390 . S
C921 C915 1.465 . S
C921 C920 1.396 . S
C921 C922 1.399 . S
C922 H908 0.929 . S
C922 C921 1.399 . S
C922 C923 1.385 . S
C923 H909 0.931 . S
C923 C922 1.385 . S
C923 C924 1.389 . S
C924 C923 1.389 . S
C924 C925 1.387 . S
C925 H910 0.930 . S
C925 C920 1.390 . S
C925 C924 1.387 . S
H926 C938 0.930 . S
H927 C940 0.930 . S
H928 C941 0.930 . S
H929 C945 0.959 . S
H930 C945 0.959 . S
H931 C945 0.961 . S
H932 C946 0.960 . S
H933 C946 0.961 . S
H934 C946 0.959 . S
H935 C949 0.929 . S
H936 C950 0.931 . S
H937 C952 0.930 . S
C938 H926 0.930 . S
C938 C939 1.399 . S
C938 C943 1.399 . S
C939 C938 1.399 . S
C939 C940 1.376 . S
C940 H927 0.930 . S
C940 C939 1.376 . S
C940 C941 1.388 . S
C941 H928 0.930 . S
C941 C940 1.388 . S
C941 C942 1.390 . S
C942 C941 1.390 . S
C942 C943 1.394 . S
C942 C948 1.465 . S
C943 C938 1.399 . S
C943 C942 1.394 . S
C943 C944 1.516 . S
C944 C943 1.516 . S
C944 C945 1.502 . S
C944 C946 1.561 . S
C944 C947 1.526 . S
C945 H929 0.959 . S
C945 H930 0.959 . S
C945 H931 0.961 . S
C945 C944 1.502 . S
C946 H932 0.960 . S
C946 H933 0.961 . S
C946 H934 0.959 . S
C946 C944 1.561 . S
C947 C944 1.526 . S
C947 C948 1.396 . S
C947 C952 1.390 . S
C948 C942 1.465 . S
C948 C947 1.396 . S
C948 C949 1.399 . S
C949 H935 0.929 . S
C949 C948 1.399 . S
C949 C950 1.385 . S
C950 H936 0.931 . S
C950 C949 1.385 . S
C950 C951 1.389 . S
C951 C950 1.389 . S
C951 C952 1.387 . S
C952 H937 0.930 . S
C952 C947 1.390 . S
C952 C951 1.387 . S
H953 C965 0.930 . S
H954 C967 0.930 . S
H955 C968 0.930 . S
H956 C972 0.959 . S
H957 C972 0.959 . S
H958 C972 0.961 . S
H959 C973 0.960 . S
H960 C973 0.961 . S
H961 C973 0.959 . S
H962 C976 0.929 . S
H963 C977 0.931 . S
H964 C979 0.930 . S
C965 H953 0.930 . S
C965 C966 1.399 . S
C965 C970 1.399 . S
C966 C965 1.399 . S
C966 C967 1.376 . S
C967 H954 0.930 . S
C967 C966 1.376 . S
C967 C968 1.388 . S
C968 H955 0.930 . S
C968 C967 1.388 . S
C968 C969 1.390 . S
C969 C968 1.390 . S
C969 C970 1.394 . S
C969 C975 1.465 . S
C970 C965 1.399 . S
C970 C969 1.394 . S
C970 C971 1.516 . S
C971 C970 1.516 . S
C971 C972 1.502 . S
C971 C973 1.561 . S
C971 C974 1.526 . S
C972 H956 0.959 . S
C972 H957 0.959 . S
C972 H958 0.961 . S
C972 C971 1.502 . S
C973 H959 0.960 . S
C973 H960 0.961 . S
C973 H961 0.959 . S
C973 C971 1.561 . S
C974 C971 1.526 . S
C974 C975 1.396 . S
C974 C979 1.390 . S
C975 C969 1.465 . S
C975 C974 1.396 . S
C975 C976 1.399 . S
C976 H962 0.929 . S
C976 C975 1.399 . S
C976 C977 1.385 . S
C977 H963 0.931 . S
C977 C976 1.385 . S
C977 C978 1.389 . S
C978 C977 1.389 . S
C978 C979 1.387 . S
C979 H964 0.930 . S
C979 C974 1.390 . S
C979 C978 1.387 . S
H980 C992 0.930 . S
H981 C994 0.930 . S
H982 C995 0.930 . S
H983 C999 0.959 . S
H984 C999 0.959 . S
H985 C999 0.961 . S
H986 C1000 0.960 . S
H987 C1000 0.961 . S
H988 C1000 0.959 . S
H989 C1003 0.929 . S
H990 C1004 0.931 . S
H991 C1006 0.930 . S
C992 H980 0.930 . S
C992 C993 1.399 . S
C992 C997 1.399 . S
C993 C992 1.399 . S
C993 C994 1.376 . S
C994 H981 0.930 . S
C994 C993 1.376 . S
C994 C995 1.388 . S
C995 H982 0.930 . S
C995 C994 1.388 . S
C995 C996 1.390 . S
C996 C995 1.390 . S
C996 C997 1.394 . S
C996 C1002 1.465 . S
C997 C992 1.399 . S
C997 C996 1.394 . S
C997 C998 1.516 . S
C998 C997 1.516 . S
C998 C999 1.502 . S
C998 C1000 1.561 . S
C998 C1001 1.526 . S
C999 H983 0.959 . S
C999 H984 0.959 . S
C999 H985 0.961 . S
C999 C998 1.502 . S
C1000 H986 0.960 . S
C1000 H987 0.961 . S
C1000 H988 0.959 . S
C1000 C998 1.561 . S
C1001 C998 1.526 . S
C1001 C1002 1.396 . S
C1001 C1006 1.390 . S
C1002 C996 1.465 . S
C1002 C1001 1.396 . S
C1002 C1003 1.399 . S
C1003 H989 0.929 . S
C1003 C1002 1.399 . S
C1003 C1004 1.385 . S
C1004 H990 0.931 . S
C1004 C1003 1.385 . S
C1004 C1005 1.389 . S
C1005 C1004 1.389 . S
C1005 C1006 1.387 . S
C1006 H991 0.930 . S
C1006 C1001 1.390 . S
C1006 C1005 1.387 . S
H1007 C1019 0.930 . S
H1008 C1021 0.930 . S
H1009 C1022 0.930 . S
H1010 C1026 0.959 . S
H1011 C1026 0.959 . S
H1012 C1026 0.961 . S
H1013 C1027 0.960 . S
H1014 C1027 0.961 . S
H1015 C1027 0.959 . S
H1016 C1030 0.929 . S
H1017 C1031 0.931 . S
H1018 C1033 0.930 . S
C1019 H1007 0.930 . S
C1019 C1020 1.399 . S
C1019 C1024 1.399 . S
C1020 C1019 1.399 . S
C1020 C1021 1.376 . S
C1021 H1008 0.930 . S
C1021 C1020 1.376 . S
C1021 C1022 1.388 . S
C1022 H1009 0.930 . S
C1022 C1021 1.388 . S
C1022 C1023 1.390 . S
C1023 C1022 1.390 . S
C1023 C1024 1.394 . S
C1023 C1029 1.465 . S
C1024 C1019 1.399 . S
C1024 C1023 1.394 . S
C1024 C1025 1.516 . S
C1025 C1024 1.516 . S
C1025 C1026 1.502 . S
C1025 C1027 1.561 . S
C1025 C1028 1.526 . S
C1026 H1010 0.959 . S
C1026 H1011 0.959 . S
C1026 H1012 0.961 . S
C1026 C1025 1.502 . S
C1027 H1013 0.960 . S
C1027 H1014 0.961 . S
C1027 H1015 0.959 . S
C1027 C1025 1.561 . S
C1028 C1025 1.526 . S
C1028 C1029 1.396 . S
C1028 C1033 1.390 . S
C1029 C1023 1.465 . S
C1029 C1028 1.396 . S
C1029 C1030 1.399 . S
C1030 H1016 0.929 . S
C1030 C1029 1.399 . S
C1030 C1031 1.385 . S
C1031 H1017 0.931 . S
C1031 C1030 1.385 . S
C1031 C1032 1.389 . S
C1032 C1031 1.389 . S
C1032 C1033 1.387 . S
C1033 H1018 0.930 . S
C1033 C1028 1.390 . S
C1033 C1032 1.387 . S
H1034 C1046 0.930 . S
H1035 C1048 0.930 . S
H1036 C1049 0.930 . S
H1037 C1053 0.959 . S
H1038 C1053 0.959 . S
H1039 C1053 0.961 . S
H1040 C1054 0.960 . S
H1041 C1054 0.961 . S
H1042 C1054 0.959 . S
H1043 C1057 0.929 . S
H1044 C1058 0.931 . S
H1045 C1060 0.930 . S
C1046 H1034 0.930 . S
C1046 C1047 1.399 . S
C1046 C1051 1.399 . S
C1047 C1046 1.399 . S
C1047 C1048 1.376 . S
C1048 H1035 0.930 . S
C1048 C1047 1.376 . S
C1048 C1049 1.388 . S
C1049 H1036 0.930 . S
C1049 C1048 1.388 . S
C1049 C1050 1.390 . S
C1050 C1049 1.390 . S
C1050 C1051 1.394 . S
C1050 C1056 1.465 . S
C1051 C1046 1.399 . S
C1051 C1050 1.394 . S
C1051 C1052 1.516 . S
C1052 C1051 1.516 . S
C1052 C1053 1.502 . S
C1052 C1054 1.561 . S
C1052 C1055 1.526 . S
C1053 H1037 0.959 . S
C1053 H1038 0.959 . S
C1053 H1039 0.961 . S
C1053 C1052 1.502 . S
C1054 H1040 0.960 . S
C1054 H1041 0.961 . S
C1054 H1042 0.959 . S
C1054 C1052 1.561 . S
C1055 C1052 1.526 . S
C1055 C1056 1.396 . S
C1055 C1060 1.390 . S
C1056 C1050 1.465 . S
C1056 C1055 1.396 . S
C1056 C1057 1.399 . S
C1057 H1043 0.929 . S
C1057 C1056 1.399 . S
C1057 C1058 1.385 . S
C1058 H1044 0.931 . S
C1058 C1057 1.385 . S
C1058 C1059 1.389 . S
C1059 C1058 1.389 . S
C1059 C1060 1.387 . S
C1060 H1045 0.930 . S
C1060 C1055 1.390 . S
C1060 C1059 1.387 . S
H1061 C1073 0.930 . S
H1062 C1075 0.930 . S
H1063 C1076 0.930 . S
H1064 C1080 0.959 . S
H1065 C1080 0.959 . S
H1066 C1080 0.961 . S
H1067 C1081 0.960 . S
H1068 C1081 0.961 . S
H1069 C1081 0.959 . S
H1070 C1084 0.929 . S
H1071 C1085 0.931 . S
H1072 C1087 0.930 . S
C1073 H1061 0.930 . S
C1073 C1074 1.399 . S
C1073 C1078 1.399 . S
C1074 C1073 1.399 . S
C1074 C1075 1.376 . S
C1075 H1062 0.930 . S
C1075 C1074 1.376 . S
C1075 C1076 1.388 . S
C1076 H1063 0.930 . S
C1076 C1075 1.388 . S
C1076 C1077 1.390 . S
C1077 C1076 1.390 . S
C1077 C1078 1.394 . S
C1077 C1083 1.465 . S
C1078 C1073 1.399 . S
C1078 C1077 1.394 . S
C1078 C1079 1.516 . S
C1079 C1078 1.516 . S
C1079 C1080 1.502 . S
C1079 C1081 1.561 . S
C1079 C1082 1.526 . S
C1080 H1064 0.959 . S
C1080 H1065 0.959 . S
C1080 H1066 0.961 . S
C1080 C1079 1.502 . S
C1081 H1067 0.960 . S
C1081 H1068 0.961 . S
C1081 H1069 0.959 . S
C1081 C1079 1.561 . S
C1082 C1079 1.526 . S
C1082 C1083 1.396 . S
C1082 C1087 1.390 . S
C1083 C1077 1.465 . S
C1083 C1082 1.396 . S
C1083 C1084 1.399 . S
C1084 H1070 0.929 . S
C1084 C1083 1.399 . S
C1084 C1085 1.385 . S
C1085 H1071 0.931 . S
C1085 C1084 1.385 . S
C1085 C1086 1.389 . S
C1086 C1085 1.389 . S
C1086 C1087 1.387 . S
C1087 H1072 0.930 . S
C1087 C1082 1.390 . S
C1087 C1086 1.387 . S
C237 C8 1.513 . S
C249 C175 1.440 . S
C264 C189 1.490 . S
C276 C22 1.497 . S
C291 C36 1.503 . S
C303 C203 1.436 . S
C318 C217 1.454 . S
C330 C50 1.487 . S
C345 C120 1.510 . S
C357 C63 1.436 . S
C372 C77 1.475 . S
C384 C134 1.506 . S
C399 C148 1.504 . S
C411 C91 1.479 . S
C426 C105 1.435 . S
C438 C162 1.510 . S
C453 C3 1.539 . S
C465 C31 1.532 . S
C480 C17 1.542 . S
C492 C45 1.526 . S
C507 C59 1.525 . S
C519 C87 1.545 . S
C534 C73 1.526 . S
C546 C101 1.538 . S
C561 C143 1.518 . S
C573 C115 1.528 . S
C588 C129 1.514 . S
C600 C157 1.538 . S
C615 C199 1.543 . S
C627 C171 1.530 . S
C642 C185 1.545 . S
C654 C213 1.527 . S
C669 C93 1.495 . S
C681 C9 1.513 . S
C696 C107 1.494 . S
C708 C23 1.514 . S
C723 C37 1.520 . S
C735 C65 1.508 . S
C750 C51 1.532 . S
C762 C79 1.526 . S
C777 C205 1.523 . S
C789 C121 1.531 . S
C804 C135 1.523 . S
C816 C219 1.510 . S
C831 C177 1.518 . S
C843 C149 1.528 . S
C858 C163 1.514 . S
C870 C191 1.496 . S
C885 C7 1.258 . S
C897 C49 1.228 . S
C912 C35 1.305 . S
C924 C21 1.301 . S
C939 C64 1.607 . S
C951 C106 1.617 . S
C966 C78 1.620 . S
C978 C92 1.606 . S
C993 C161 1.282 . S
C1005 C119 1.309 . S
C1020 C133 1.308 . S
C1032 C147 1.274 . S
C1047 C218 1.614 . S
C1059 C176 1.612 . S
C1074 C190 1.621 . S
C1086 C204 1.604 . S
