# Generated by pormake.
# Topology wiu, (6)-cn, num edge types: 1
# Building blocks:
#     Node 0, Type 0, BuildingBlock: NUHQIS_clean_sbu_0, # of connection points: 6
#     Node 1, Type 0, BuildingBlock: NUHQIS_clean_sbu_0, # of connection points: 6
#     Node 2, Type 0, BuildingBlock: NUHQIS_clean_sbu_0, # of connection points: 6
#     Node 3, Type 0, BuildingBlock: NUHQIS_clean_sbu_0, # of connection points: 6
#     Node 4, Type 0, BuildingBlock: NUHQIS_clean_sbu_0, # of connection points: 6
#     Node 5, Type 0, BuildingBlock: NUHQIS_clean_sbu_0, # of connection points: 6
#     Node 6, Type 0, BuildingBlock: NUHQIS_clean_sbu_0, # of connection points: 6
#     Node 7, Type 0, BuildingBlock: NUHQIS_clean_sbu_0, # of connection points: 6
#     Node 8, Type 0, BuildingBlock: NUHQIS_clean_sbu_0, # of connection points: 6
#     Node 9, Type 0, BuildingBlock: NUHQIS_clean_sbu_0, # of connection points: 6
#     Node 10, Type 0, BuildingBlock: NUHQIS_clean_sbu_0, # of connection points: 6
#     Node 11, Type 0, BuildingBlock: NUHQIS_clean_sbu_0, # of connection points: 6
#     Node 12, Type 0, BuildingBlock: NUHQIS_clean_sbu_0, # of connection points: 6
#     Node 13, Type 0, BuildingBlock: NUHQIS_clean_sbu_0, # of connection points: 6
#     Node 14, Type 0, BuildingBlock: NUHQIS_clean_sbu_0, # of connection points: 6
#     Node 15, Type 0, BuildingBlock: NUHQIS_clean_sbu_0, # of connection points: 6
#     Edge 16, Type (0, 0), BuildingBlock: OJICUG_clean_linker_0, # of connection points: 2
#     Edge 17, Type (0, 0), BuildingBlock: OJICUG_clean_linker_0, # of connection points: 2
#     Edge 18, Type (0, 0), BuildingBlock: OJICUG_clean_linker_0, # of connection points: 2
#     Edge 19, Type (0, 0), BuildingBlock: OJICUG_clean_linker_0, # of connection points: 2
#     Edge 20, Type (0, 0), BuildingBlock: OJICUG_clean_linker_0, # of connection points: 2
#     Edge 21, Type (0, 0), BuildingBlock: OJICUG_clean_linker_0, # of connection points: 2
#     Edge 22, Type (0, 0), BuildingBlock: OJICUG_clean_linker_0, # of connection points: 2
#     Edge 23, Type (0, 0), BuildingBlock: OJICUG_clean_linker_0, # of connection points: 2
#     Edge 24, Type (0, 0), BuildingBlock: OJICUG_clean_linker_0, # of connection points: 2
#     Edge 25, Type (0, 0), BuildingBlock: OJICUG_clean_linker_0, # of connection points: 2
#     Edge 26, Type (0, 0), BuildingBlock: OJICUG_clean_linker_0, # of connection points: 2
#     Edge 27, Type (0, 0), BuildingBlock: OJICUG_clean_linker_0, # of connection points: 2
#     Edge 28, Type (0, 0), BuildingBlock: OJICUG_clean_linker_0, # of connection points: 2
#     Edge 29, Type (0, 0), BuildingBlock: OJICUG_clean_linker_0, # of connection points: 2
#     Edge 30, Type (0, 0), BuildingBlock: OJICUG_clean_linker_0, # of connection points: 2
#     Edge 31, Type (0, 0), BuildingBlock: OJICUG_clean_linker_0, # of connection points: 2
#     Edge 32, Type (0, 0), BuildingBlock: OJICUG_clean_linker_0, # of connection points: 2
#     Edge 33, Type (0, 0), BuildingBlock: OJICUG_clean_linker_0, # of connection points: 2
#     Edge 34, Type (0, 0), BuildingBlock: OJICUG_clean_linker_0, # of connection points: 2
#     Edge 35, Type (0, 0), BuildingBlock: OJICUG_clean_linker_0, # of connection points: 2
#     Edge 36, Type (0, 0), BuildingBlock: OJICUG_clean_linker_0, # of connection points: 2
#     Edge 37, Type (0, 0), BuildingBlock: OJICUG_clean_linker_0, # of connection points: 2
#     Edge 38, Type (0, 0), BuildingBlock: OJICUG_clean_linker_0, # of connection points: 2
#     Edge 39, Type (0, 0), BuildingBlock: OJICUG_clean_linker_0, # of connection points: 2
#     Edge 40, Type (0, 0), BuildingBlock: OJICUG_clean_linker_0, # of connection points: 2
#     Edge 41, Type (0, 0), BuildingBlock: OJICUG_clean_linker_0, # of connection points: 2
#     Edge 42, Type (0, 0), BuildingBlock: OJICUG_clean_linker_0, # of connection points: 2
#     Edge 43, Type (0, 0), BuildingBlock: OJICUG_clean_linker_0, # of connection points: 2
#     Edge 44, Type (0, 0), BuildingBlock: OJICUG_clean_linker_0, # of connection points: 2
#     Edge 45, Type (0, 0), BuildingBlock: OJICUG_clean_linker_0, # of connection points: 2
#     Edge 46, Type (0, 0), BuildingBlock: OJICUG_clean_linker_0, # of connection points: 2
#     Edge 47, Type (0, 0), BuildingBlock: OJICUG_clean_linker_0, # of connection points: 2
#     Edge 48, Type (0, 0), BuildingBlock: OJICUG_clean_linker_0, # of connection points: 2
#     Edge 49, Type (0, 0), BuildingBlock: OJICUG_clean_linker_0, # of connection points: 2
#     Edge 50, Type (0, 0), BuildingBlock: OJICUG_clean_linker_0, # of connection points: 2
#     Edge 51, Type (0, 0), BuildingBlock: OJICUG_clean_linker_0, # of connection points: 2
#     Edge 52, Type (0, 0), BuildingBlock: OJICUG_clean_linker_0, # of connection points: 2
#     Edge 53, Type (0, 0), BuildingBlock: OJICUG_clean_linker_0, # of connection points: 2
#     Edge 54, Type (0, 0), BuildingBlock: OJICUG_clean_linker_0, # of connection points: 2
#     Edge 55, Type (0, 0), BuildingBlock: OJICUG_clean_linker_0, # of connection points: 2
#     Edge 56, Type (0, 0), BuildingBlock: OJICUG_clean_linker_0, # of connection points: 2
#     Edge 57, Type (0, 0), BuildingBlock: OJICUG_clean_linker_0, # of connection points: 2
#     Edge 58, Type (0, 0), BuildingBlock: OJICUG_clean_linker_0, # of connection points: 2
#     Edge 59, Type (0, 0), BuildingBlock: OJICUG_clean_linker_0, # of connection points: 2
#     Edge 60, Type (0, 0), BuildingBlock: OJICUG_clean_linker_0, # of connection points: 2
#     Edge 61, Type (0, 0), BuildingBlock: OJICUG_clean_linker_0, # of connection points: 2
#     Edge 62, Type (0, 0), BuildingBlock: OJICUG_clean_linker_0, # of connection points: 2
#     Edge 63, Type (0, 0), BuildingBlock: OJICUG_clean_linker_0, # of connection points: 2
# Relax obj value: 0.685
# Max RMSD: 0.331
# Mean RMSD: 0.331
data_MOF--net-wiu--node1-NUHQIS_clean_sbu_0--edge1-OJICUG_clean_linker_0
_symmetry_space_group_name_H-M    P1
_symmetry_Int_Tables_number       1
_symmetry_cell_setting            triclinic
loop_
_symmetry_equiv_pos_as_xyz
'x, y, z'
_cell_length_a     28.760002
_cell_length_b     28.751973
_cell_length_c     37.786563
_cell_angle_alpha  89.62935
_cell_angle_beta   89.859796
_cell_angle_gamma 90.020645
loop_
_atom_site_label
_atom_site_type_symbol
_atom_site_fract_x
_atom_site_fract_y
_atom_site_fract_z
_atom_type_partial_charge
Tb0 Tb 0.38882 0.20987 0.39652 0.0
Eu1 Eu 0.45438 0.13505 0.35826 0.0
C2 C 0.49013 0.23571 0.3756 0.0
C3 C 0.37257 0.18927 0.3139 0.0
C4 C 0.33693 0.32454 0.40479 0.0
C5 C 0.31795 0.40675 0.40868 0.0
C6 C 0.32884 0.3643 0.42506 0.0
C7 C 0.33586 0.32835 0.36768 0.0
C8 C 0.32559 0.37085 0.35121 0.0
C9 C 0.31598 0.41062 0.37146 0.0
C10 C 0.34732 0.27938 0.42199 0.0
O11 O 0.34459 0.14814 0.39527 0.0
O12 O 0.38254 0.10531 0.35254 0.0
O13 O 0.44062 0.10289 0.41116 0.0
O14 O 0.41684 0.16747 0.44156 0.0
C15 C 0.34522 0.11472 0.37145 0.0
O16 O 0.50372 0.11892 0.3164 0.0
O17 O 0.49013 0.0681 0.35787 0.0
O18 O 0.50002 0.19193 0.38077 0.0
O19 O 0.44651 0.2466 0.3701 0.0
O20 O 0.35761 0.20808 0.34354 0.0
O21 O 0.41224 0.16602 0.3126 0.0
C22 C 0.4302 0.12322 0.44099 0.0
O23 O 0.32605 0.2435 0.40879 0.0
O24 O 0.39119 0.2706 0.42748 0.0
C25 C 0.56698 0.07538 0.33734 0.0
C26 C 0.66463 0.07627 0.33425 0.0
C27 C 0.63911 1.03751 0.32208 0.0
C28 C 0.59067 1.03741 0.32328 0.0
C29 C 0.59211 0.11085 0.35411 0.0
C30 C 0.6407 0.11125 0.35269 0.0
C31 C 0.51682 0.08004 0.33143 0.0
H32 H 0.31037 0.43632 0.42531 0.0
H33 H 0.33098 0.36261 0.45356 0.0
H34 H 0.34302 0.29842 0.35134 0.0
H35 H 0.3255 0.37253 0.32258 0.0
H36 H 0.65583 1.00958 0.30781 0.0
H37 H 0.57175 1.00931 0.31086 0.0
H38 H 0.57414 0.13988 0.36598 0.0
H39 H 0.65917 0.14116 0.36285 0.0
Tb40 Tb 0.66067 0.6334 0.64742 0.0
Eu41 Eu 0.73299 0.70074 0.60711 0.0
C42 C 0.6322 0.73488 0.62739 0.0
C43 C 0.67801 0.61873 0.56405 0.0
C44 C 0.54762 0.57746 0.66125 0.0
C45 C 0.4728 0.60196 0.63711 0.0
C46 C 0.51474 0.61255 0.65406 0.0
C47 C 0.53695 0.53144 0.65191 0.0
C48 C 0.49522 0.52093 0.63468 0.0
C49 C 0.4629 0.55614 0.62672 0.0
C50 C 0.59444 0.58875 0.67542 0.0
O51 O 0.72353 0.59088 0.64425 0.0
O52 O 0.76326 0.62951 0.59981 0.0
O53 O 0.76741 0.68694 0.65905 0.0
O54 O 0.70414 0.66226 0.69108 0.0
C55 C 0.75545 0.59199 0.61905 0.0
O56 O 0.74667 0.75085 0.56501 0.0
O57 O 0.79936 0.73749 0.60482 0.0
O58 O 0.67612 0.74519 0.63107 0.0
O59 O 0.62113 0.691 0.62317 0.0
O60 O 0.66008 0.6034 0.59408 0.0
O61 O 0.70109 0.65851 0.56225 0.0
C62 C 0.74813 0.67622 0.68938 0.0
O63 O 0.62921 0.5691 0.65927 0.0
O64 O 0.60329 0.63232 0.68217 0.0
C65 C 0.79022 0.8145 0.58491 0.0
C66 C 0.78951 0.91223 0.58272 0.0
C67 C 0.8285 0.88695 0.57057 0.0
C68 C 0.82854 0.83847 0.57134 0.0
C69 C 0.7543 0.83931 0.60152 0.0
C70 C 0.75393 0.88793 0.6005 0.0
C71 C 0.78594 0.76435 0.5789 0.0
H72 H 0.44859 0.62985 0.63135 0.0
H73 H 0.52173 0.64842 0.6608 0.0
H74 H 0.56145 0.50366 0.65722 0.0
H75 H 0.48817 0.48515 0.62767 0.0
H76 H 0.85679 0.904 0.55668 0.0
H77 H 0.85698 0.8198 0.55904 0.0
H78 H 0.725 0.82107 0.613 0.0
H79 H 0.72373 0.90621 0.61048 0.0
Tb80 Tb 0.23759 0.90885 0.89941 0.0
Eu81 Eu 0.17058 0.98156 0.85946 0.0
C82 C 0.13643 0.88023 0.87878 0.0
C83 C 0.25237 0.9265 0.81601 0.0
C84 C 0.29368 0.79597 0.9125 0.0
C85 C 0.26953 0.72154 0.88789 0.0
C86 C 0.25877 0.763 0.90534 0.0
C87 C 0.33971 0.78586 0.90262 0.0
C88 C 0.35039 0.74459 0.8849 0.0
C89 C 0.31534 0.71221 0.87697 0.0
C90 C 0.2821 0.84245 0.92708 0.0
O91 O 0.28034 0.97159 0.89594 0.0
O92 O 0.24197 1.01163 0.8517 0.0
O93 O 0.18443 1.0155 0.91139 0.0
O94 O 0.20861 0.95191 0.94325 0.0
C95 C 0.2794 1.00364 0.87075 0.0
O96 O 0.12109 0.99621 0.81744 0.0
O97 O 0.13406 1.04805 0.85774 0.0
O98 O 0.1258 0.92405 0.88271 0.0
O99 O 0.18044 0.86939 0.87491 0.0
O100 O 0.26768 0.90843 0.84594 0.0
O101 O 0.21273 0.94974 0.81444 0.0
C102 C 0.19502 0.996 0.94165 0.0
O103 O 0.30185 0.87761 0.91122 0.0
O104 O 0.23841 0.85099 0.93387 0.0
C105 C 1.05744 1.04001 0.83732 0.0
C106 C 0.9598 1.04083 0.83458 0.0
C107 C 0.98594 0.07975 0.82305 0.0
C108 C 1.03436 0.07905 0.82412 0.0
C109 C 1.03176 1.00398 0.8533 0.0
C110 C 0.98316 1.00439 0.85203 0.0
C111 C 0.10764 1.03532 0.83158 0.0
H112 H 0.24178 0.69723 0.88218 0.0
H113 H 0.22289 0.76959 0.91248 0.0
H114 H 0.36736 0.81045 0.9079 0.0
H115 H 0.38617 0.73792 0.87747 0.0
H116 H 0.96967 0.10866 0.8094 0.0
H117 H 1.05372 0.10756 0.81231 0.0
H118 H 1.0493 0.97409 0.86451 0.0
H119 H 0.96421 0.97424 0.86159 0.0
Tb120 Tb 0.96187 0.48196 1.14525 0.0
Eu121 Eu 0.88758 0.41599 1.1074 0.0
C122 C 0.98877 0.38095 1.12437 0.0
C123 C 0.94075 0.49845 1.06269 0.0
C124 C 0.07633 0.534 1.15303 0.0
C125 C 0.15597 0.5616 1.15635 0.0
C126 C 0.11371 0.55069 1.17284 0.0
C127 C 0.08213 0.52722 1.11646 0.0
C128 C 0.12443 0.53797 1.09989 0.0
C129 C 0.16184 0.55555 1.11961 0.0
C130 C 1.0312 0.52408 1.17013 0.0
O131 O 0.89955 0.52528 1.14466 0.0
O132 O 0.85748 0.48774 1.10151 0.0
O133 O 0.85593 0.42823 1.1606 0.0
O134 O 0.91994 0.4542 1.19071 0.0
C135 C 0.86617 0.52474 1.12074 0.0
O136 O 0.87145 0.3667 1.0658 0.0
O137 O 0.82038 0.38073 1.10676 0.0
O138 O 0.94512 0.37034 1.12942 0.0
O139 O 0.99908 0.42481 1.11903 0.0
O140 O 0.95923 0.51365 1.0923 0.0
O141 O 0.91808 0.45844 1.06152 0.0
C142 C 0.87604 0.43971 1.19029 0.0
O143 O 0.99556 0.54503 1.15608 0.0
O144 O 1.02231 0.48037 1.17664 0.0
C145 C 0.82656 0.30398 1.08642 0.0
C146 C 0.82463 0.20643 1.08297 0.0
C147 C 0.78612 0.2332 1.07168 0.0
C148 C 0.7874 0.28159 1.07308 0.0
C149 C 0.86193 0.27765 1.10246 0.0
C150 C 0.86087 0.22908 1.10093 0.0
C151 C 0.83223 0.35407 1.08051 0.0
H152 H 0.18381 0.57558 1.17235 0.0
H153 H 0.1102 0.55553 1.20101 0.0
H154 H 1.05385 0.51377 1.10067 0.0
H155 H 0.12792 0.53224 1.07171 0.0
H156 H 0.75721 0.21755 1.05785 0.0
H157 H 0.75936 0.30147 1.06128 0.0
H158 H 0.89193 0.29463 1.1138 0.0
H159 H 0.89056 0.20963 1.11056 0.0
Tb160 Tb 0.68103 0.97961 1.08097 0.0
Eu161 Eu 0.74047 0.90395 1.0386 0.0
C162 C 0.7881 0.9983 1.0627 0.0
C163 C 0.69041 0.99148 0.99675 0.0
C164 C 0.66393 1.05455 1.15341 0.0
C165 C 0.72686 0.0965 1.18271 0.0
C166 C 0.70067 0.08719 1.15232 0.0
C167 C 0.65331 1.03258 1.18564 0.0
C168 C 0.67986 1.04118 1.21557 0.0
C169 C 0.71736 0.07258 1.21434 0.0
C170 C 0.6425 1.03692 1.12055 0.0
O171 O 0.62998 0.92745 1.06289 0.0
O172 O 0.68037 0.86775 1.06687 0.0
O173 O 0.77686 0.90635 1.09203 0.0
O174 O 0.71916 0.94228 1.12342 0.0
C175 C 0.63726 0.88237 1.0652 0.0
O176 O 0.80295 0.86649 1.02261 0.0
O177 O 0.73566 0.84142 1.00607 0.0
O178 O 0.78756 0.96666 1.03771 0.0
O179 O 0.75226 1.00462 1.08373 0.0
O180 O 0.67962 1.00955 1.02763 0.0
O181 O 0.70905 0.94945 0.9944 0.0
C182 C 0.76048 0.92226 1.12213 0.0
O183 O 0.66289 1.0491 1.09104 0.0
O184 O 0.63203 0.99267 1.12091 0.0
C185 C 0.78917 0.7862 1.02721 0.0
C186 C 0.80656 0.70012 1.06112 0.0
C187 C 0.80417 0.70321 1.02391 0.0
C188 C 0.79518 0.74587 1.00715 0.0
C189 C 0.79069 0.78307 1.0643 0.0
C190 C 0.79932 0.74057 1.08107 0.0
C191 C 0.77954 0.8314 1.01016 0.0
H192 H 0.75462 0.12195 1.18148 0.0
H193 H 0.71 0.10467 1.12784 0.0
H194 H 0.62537 1.00737 1.18748 0.0
H195 H 0.67044 1.02367 0.24003 0.0
H196 H 0.80991 0.67282 1.00768 0.0
H197 H 0.79278 0.74728 0.97864 0.0
H198 H 0.78503 0.81358 1.0804 0.0
H199 H 0.79995 0.73937 1.10972 0.0
Tb200 Tb 0.39622 0.43252 0.83146 0.0
Eu201 Eu 0.46998 0.49349 0.78704 0.0
C202 C 0.37605 0.53962 0.81429 0.0
C203 C 0.38146 0.44262 0.74766 0.0
C204 C 0.32303 0.41518 0.9053 0.0
C205 C 0.27867 0.47635 0.93473 0.0
C206 C 0.28838 0.44998 0.90453 0.0
C207 C 0.34693 0.40688 0.937 0.0
C208 C 0.33782 0.43357 0.96675 0.0
C209 C 0.30402 0.46895 0.96592 0.0
C210 C 0.34018 0.39356 0.87231 0.0
O211 O 0.4485 0.38205 0.81271 0.0
O212 O 0.50856 0.43279 0.81283 0.0
O213 O 0.46967 0.52861 0.8409 0.0
O214 O 0.43459 0.4705 0.87295 0.0
C215 C 0.49365 0.38961 0.81311 0.0
O216 O 0.50703 0.55726 0.77289 0.0
O217 O 0.5274 0.49228 0.749 0.0
O218 O 0.4064 0.53949 0.78819 0.0
O219 O 0.37099 0.50353 0.83541 0.0
O220 O 0.36468 0.43089 0.77891 0.0
O221 O 0.42285 0.46234 0.74427 0.0
C222 C 0.4545 0.51187 0.87128 0.0
O223 O 0.32718 0.41359 0.8429 0.0
O224 O 0.3845 0.38345 0.87186 0.0
C225 C 0.58733 0.54389 0.76727 0.0
C226 C 0.67315 0.5622 0.80067 0.0
C227 C 0.6586 0.51619 0.79507 0.0
C228 C 0.61598 0.5071 0.77873 0.0
C229 C 0.60299 0.5898 0.7713 0.0
C230 C 0.64538 0.59888 0.78795 0.0
C231 C 0.53914 0.53532 0.75528 0.0
H232 H 0.25149 0.5024 0.93376 0.0
H233 H 0.26945 0.45757 0.88044 0.0
H234 H 0.37375 0.3805 0.9386 0.0
H235 H 0.35662 0.42556 0.99084 0.0
H236 H 0.67929 0.48726 0.80462 0.0
H237 H 0.60482 0.47129 0.77626 0.0
H238 H 0.5816 0.61874 0.76271 0.0
H239 H 0.65616 0.63468 0.79135 0.0
Tb240 Tb 0.93985 0.14597 0.57981 0.0
Eu241 Eu 0.879 0.21976 0.53561 0.0
C242 C 0.83281 0.12571 0.56334 0.0
C243 C 0.93009 0.1316 0.49601 0.0
C244 C 0.95739 0.07267 0.65377 0.0
C245 C 0.89656 1.02809 0.68397 0.0
C246 C 0.92262 1.03798 0.65344 0.0
C247 C 0.96595 0.09648 0.68534 0.0
C248 C 0.93956 0.0872 0.71543 0.0
C249 C 0.90425 1.0533 0.71506 0.0
C250 C 0.97883 0.08986 0.62051 0.0
O251 O 0.99015 0.19904 0.56153 0.0
O252 O 0.93893 0.25869 0.56163 0.0
O253 O 0.84378 0.21934 0.58962 0.0
O254 O 0.9018 0.18416 0.62141 0.0
C255 C 0.9822 0.24413 0.56229 0.0
O256 O 0.81516 0.25641 0.52147 0.0
O257 O 0.88032 0.27751 0.49768 0.0
O258 O 0.83307 0.15607 0.53714 0.0
O259 O 0.86881 0.12072 0.58433 0.0
O260 O 0.94169 0.11468 0.52721 0.0
O261 O 0.91055 0.17307 0.4927 0.0
C262 C 0.86053 0.20418 0.61993 0.0
O263 O 0.95868 0.07689 0.59132 0.0
O264 O 0.98896 0.13418 0.61985 0.0
C265 C 0.82831 0.33686 0.51642 0.0
C266 C 0.80976 0.42183 0.55082 0.0
C267 C 0.85579 0.40788 0.54434 0.0
C268 C 0.86501 0.3657 0.52748 0.0
C269 C 0.78235 0.35195 0.52133 0.0
C270 C 0.77314 0.39392 0.53847 0.0
C271 C 0.83717 0.28892 0.50406 0.0
H272 H 0.87054 1.00086 0.68333 0.0
H273 H 0.91483 1.01912 0.62945 0.0
H274 H 0.99232 0.12334 0.6866 0.0
H275 H 0.94779 0.10589 0.73942 0.0
H276 H 0.88468 0.42868 0.55357 0.0
H277 H 0.90087 0.35498 0.52434 0.0
H278 H 0.75347 0.3304 0.51307 0.0
H279 H 0.73731 0.40426 0.54254 0.0
Tb280 Tb 0.23067 0.69312 0.33139 0.0
Eu281 Eu 0.15512 0.6333 0.28988 0.0
C282 C 0.24972 0.58594 0.31418 0.0
C283 C 0.24221 0.68289 0.24724 0.0
C284 C 0.30728 0.71066 0.40288 0.0
C285 C 0.34811 0.64632 0.43187 0.0
C286 C 0.33824 0.67254 0.4014 0.0
C287 C 0.28774 0.72273 0.43556 0.0
C288 C 0.29689 0.69618 0.46561 0.0
C289 C 0.32638 0.65723 0.46397 0.0
C290 C 0.28842 0.73215 0.37027 0.0
O291 O 0.17761 0.74385 0.3137 0.0
O292 O 0.11853 0.69275 0.31804 0.0
O293 O 0.15765 0.59714 0.34348 0.0
O294 O 0.19439 0.65464 0.37433 0.0
C295 C 0.13265 0.73603 0.31635 0.0
O296 O 0.11702 0.57072 0.27547 0.0
O297 O 0.09296 0.63777 0.2568 0.0
O298 O 0.21782 0.5862 0.28929 0.0
O299 O 0.25601 0.62194 0.33488 0.0
O300 O 0.26032 0.69423 0.27798 0.0
O301 O 0.20022 0.66415 0.24516 0.0
C302 C 0.17389 0.61352 0.37339 0.0
O303 O 0.30009 0.71236 0.34059 0.0
O304 O 0.24402 0.74179 0.37126 0.0
C305 C 1.03711 0.58552 0.27893 0.0
C306 C 0.95126 0.56797 0.31257 0.0
C307 C 0.95572 0.56393 0.27556 0.0
C308 C 0.99835 0.57278 0.25889 0.0
C309 C 1.03257 0.59042 0.31573 0.0
C310 C 0.99011 0.5816 0.33241 0.0
C311 C 0.0824 0.59414 0.26208 0.0
H312 H 0.37208 0.61735 0.4303 0.0
H313 H 0.3538 0.66208 0.37656 0.0
H314 H 0.26384 0.75171 0.43764 0.0
H315 H 0.28114 0.70649 0.49042 0.0
H316 H 0.9265 0.55305 0.25957 0.0
H317 H 1.00107 0.56953 0.23048 0.0
H318 H 0.06201 0.60093 0.33162 0.0
H319 H 0.98764 0.58565 0.36083 0.0
Tb320 Tb 0.88699 0.71034 0.89517 0.0
Eu321 Eu 0.95372 0.6368 0.85658 0.0
C322 C 0.98876 0.7376 0.87571 0.0
C323 C 0.87262 0.69175 0.81206 0.0
C324 C 0.83147 0.82416 0.90612 0.0
C325 C 0.85511 0.90043 0.88378 0.0
C326 C 0.86584 0.85845 0.90094 0.0
C327 C 0.78602 0.83331 0.89436 0.0
C328 C 0.77542 0.87506 0.87693 0.0
C329 C 0.8099 0.90896 0.8712 0.0
C330 C 0.84301 0.77777 0.92133 0.0
O331 O 0.84364 0.64803 0.89263 0.0
O332 O 0.88212 0.60713 0.84916 0.0
O333 O 0.93901 0.60326 0.90887 0.0
O334 O 0.91452 0.66708 0.93983 0.0
C335 C 0.84452 0.61571 0.86796 0.0
O336 O 1.00415 0.62189 0.81522 0.0
O337 O 0.98949 0.56989 0.85564 0.0
O338 O 0.99873 0.69363 0.87997 0.0
O339 O 0.9451 0.74882 0.87069 0.0
O340 O 0.85738 0.7104 0.84167 0.0
O341 O 0.91212 0.66823 0.81087 0.0
C342 C 0.92796 0.6229 0.93884 0.0
O343 O 0.82303 0.74241 0.90631 0.0
O344 O 0.88662 0.76911 0.9282 0.0
C345 C 0.06684 0.5776 0.83638 0.0
C346 C 0.16455 0.57707 0.83484 0.0
C347 C 0.13881 0.53833 0.82288 0.0
C348 C 0.09036 0.53893 0.8233 0.0
C349 C 0.09199 0.61316 0.853 0.0
C350 C 0.14061 0.61286 0.85236 0.0
C351 C 1.01686 0.58258 0.82981 0.0
H352 H 0.88242 0.92591 0.87978 0.0
H353 H 0.90123 0.85267 0.90962 0.0
H354 H 0.75872 0.80775 0.89813 0.0
H355 H 0.74006 0.88102 0.8682 0.0
H356 H 0.15551 0.50977 0.80933 0.0
H357 H 0.0714 0.51072 0.81106 0.0
H358 H 0.0741 0.64273 0.86415 0.0
H359 H 0.15921 0.64278 0.86237 0.0
Tb360 Tb 0.16155 0.1352 1.14728 0.0
Eu361 Eu 0.23522 0.20173 1.10831 0.0
C362 C 0.13388 0.23588 1.12562 0.0
C363 C 0.1812 0.12015 1.06433 0.0
C364 C 1.04807 0.08149 1.15569 0.0
C365 C 0.96481 0.06715 1.15846 0.0
C366 C 1.0068 0.07795 1.17524 0.0
C367 C 1.04628 0.07602 1.11877 0.0
C368 C 1.00428 0.06616 1.10185 0.0
C369 C 0.96291 0.06108 1.12144 0.0
C370 C 0.09257 0.09284 1.17322 0.0
O371 O 0.22331 0.09112 1.14455 0.0
O372 O 0.26531 0.13017 1.10151 0.0
O373 O 0.26824 0.18707 1.16063 0.0
O374 O 0.20392 0.1635 1.19183 0.0
C375 C 0.25635 0.09238 1.1202 0.0
O376 O 0.25103 0.2515 1.06639 0.0
O377 O 0.30173 0.23827 1.10768 0.0
O378 O 0.17744 0.24655 1.13077 0.0
O379 O 0.12378 0.192 1.12064 0.0
O380 O 0.16295 0.1047 1.09418 0.0
O381 O 0.20427 0.15994 1.06281 0.0
C382 C 0.24823 0.17654 1.19072 0.0
O383 O 0.1292 0.07196 1.16068 0.0
O384 O 0.10046 0.13696 1.17825 0.0
C385 C 0.29394 0.31511 1.08716 0.0
C386 C 0.29373 0.41285 1.08492 0.0
C387 C 0.33278 0.38735 1.07311 0.0
C388 C 0.33258 0.33888 1.07393 0.0
C389 C 0.25784 0.34008 1.10339 0.0
C390 C 0.25776 0.38871 1.10238 0.0
C391 C 0.28968 0.26495 1.08127 0.0
H392 H 0.93399 0.0631 1.17469 0.0
H393 H 1.00688 0.08379 1.20344 0.0
H394 H 0.07736 0.07965 1.10283 0.0
H395 H 1.0043 0.06298 1.07332 0.0
H396 H 0.36138 0.40422 1.05948 0.0
H397 H 0.36114 0.32007 1.06193 0.0
H398 H 0.22825 0.32202 1.11462 0.0
H399 H 0.22754 0.40715 1.11216 0.0
Tb400 Tb 0.73773 0.40889 0.39854 0.0
Eu401 Eu 0.66978 0.48048 0.35829 0.0
C402 C 0.63681 0.37914 0.3779 0.0
C403 C 0.75349 0.42749 0.31529 0.0
C404 C 0.79434 0.29614 0.41169 0.0
C405 C 0.77008 0.22169 0.3871 0.0
C406 C 0.75933 0.26334 0.40433 0.0
C407 C 0.84044 0.28565 0.40225 0.0
C408 C 0.85112 0.2442 0.38476 0.0
C409 C 0.81599 0.21199 0.37659 0.0
C410 C 0.7829 0.34278 0.42604 0.0
O411 O 0.77854 0.47299 0.39678 0.0
O412 O 0.74059 0.51189 0.35181 0.0
O413 O 0.68073 0.51391 0.41089 0.0
O414 O 0.70824 0.4514 0.44256 0.0
C415 C 0.77741 0.50526 0.37177 0.0
O416 O 0.61959 0.4934 0.31645 0.0
O417 O 0.63366 0.54711 0.35513 0.0
O418 O 0.62564 0.42281 0.38173 0.0
O419 O 0.68096 0.36885 0.37398 0.0
O420 O 0.76907 0.41016 0.3454 0.0
O421 O 0.71306 0.44932 0.31348 0.0
C422 C 0.69253 0.49482 0.44107 0.0
O423 O 0.80226 0.37779 0.40971 0.0
O424 O 0.73933 0.35132 0.43327 0.0
C425 C 0.55663 0.5388 0.33563 0.0
C426 C 0.45902 0.54162 0.33309 0.0
C427 C 0.4859 0.5803 0.32207 0.0
C428 C 0.53429 0.5786 0.32301 0.0
C429 C 0.53031 0.50303 0.35134 0.0
C430 C 0.48173 0.50448 0.35022 0.0
C431 C 0.60669 0.53329 0.32963 0.0
H432 H 0.74226 0.19756 0.3812 0.0
H433 H 0.72341 0.27022 0.41113 0.0
H434 H 0.86816 0.3101 0.40769 0.0
H435 H 0.88696 0.23728 0.37766 0.0
H436 H 0.47022 0.60987 0.30885 0.0
H437 H 0.55417 0.60696 0.31151 0.0
H438 H 0.54729 0.47257 0.36218 0.0
H439 H 0.46222 0.47457 0.35957 0.0
Tb440 Tb 0.46235 0.98447 0.64885 0.0
Eu441 Eu 0.38902 0.91781 0.60955 0.0
C442 C 0.49016 0.88306 0.6284 0.0
C443 C 0.4437 1.00009 0.56564 0.0
C444 C 0.57542 1.04085 0.661 0.0
C445 C 0.65049 1.01738 0.63669 0.0
C446 C 0.60882 1.00624 0.65408 0.0
C447 C 0.58527 0.08696 0.65089 0.0
C448 C 0.62672 0.09801 0.63322 0.0
C449 C 0.65959 0.06328 0.6256 0.0
C450 C 0.52895 1.02896 0.67581 0.0
O451 O 0.39936 1.02683 0.64682 0.0
O452 O 0.35893 0.98937 0.6027 0.0
O453 O 0.3559 0.93081 0.66205 0.0
O454 O 0.4197 0.95508 0.69318 0.0
C455 C 0.36707 1.02637 0.62204 0.0
O456 O 0.37392 0.8687 0.5676 0.0
O457 O 0.32242 0.88143 0.60847 0.0
O458 O 0.44626 0.87266 0.63241 0.0
O459 O 0.50134 0.92702 0.62429 0.0
O460 O 0.46199 1.01518 0.59541 0.0
O461 O 0.4206 0.96035 0.56427 0.0
C462 C 0.37569 0.94116 0.69209 0.0
O463 O 0.49375 1.0487 0.66021 0.0
O464 O 0.5205 0.9852 0.68263 0.0
C465 C 0.33028 0.8049 0.58787 0.0
C466 C 0.33094 0.7073 0.58427 0.0
C467 C 0.29203 0.73311 0.5725 0.0
C468 C 0.29204 0.78153 0.57394 0.0
C469 C 0.36592 0.7794 0.60432 0.0
C470 C 0.36622 0.73082 0.60266 0.0
C471 C 0.33489 0.85517 0.58214 0.0
H472 H 0.67516 0.98987 0.63121 0.0
H473 H 0.60246 0.97032 0.6614 0.0
H474 H 0.56038 0.11441 0.656 0.0
H475 H 0.63318 0.13384 0.62566 0.0
H476 H 0.26385 0.71673 0.55831 0.0
H477 H 0.26379 0.80073 0.56179 0.0
H478 H 0.39513 0.79713 0.61613 0.0
H479 H 0.39624 0.71212 0.61257 0.0
Tb480 Tb 0.1815 0.47717 0.58242 0.0
Eu481 Eu 0.24149 0.40221 0.53965 0.0
C482 C 0.28897 0.49598 0.56552 0.0
C483 C 0.19316 0.49143 0.49864 0.0
C484 C 0.16442 0.55151 0.65508 0.0
C485 C 0.22741 0.59368 0.68411 0.0
C486 C 0.20098 0.58434 0.65385 0.0
C487 C 0.15429 0.52928 0.6873 0.0
C488 C 0.18107 0.53794 0.7171 0.0
C489 C 0.21834 0.56964 0.71576 0.0
C490 C 0.14275 0.53396 0.62228 0.0
O491 O 0.13056 0.42518 0.56375 0.0
O492 O 0.18073 0.36495 0.56628 0.0
O493 O 0.27678 0.40305 0.59342 0.0
O494 O 0.21902 0.43915 0.62469 0.0
C495 C 0.13769 0.37997 0.56528 0.0
O496 O 0.30449 0.36386 0.52621 0.0
O497 O 0.23878 0.34346 0.50325 0.0
O498 O 0.2886 0.465 0.54005 0.0
O499 O 0.25282 0.50193 0.58632 0.0
O500 O 0.1813 0.50858 0.52959 0.0
O501 O 0.21182 0.44949 0.4959 0.0
C502 C 0.26016 0.41881 0.62348 0.0
O503 O 0.16278 0.54645 0.59271 0.0
O504 O 0.13254 0.48965 0.62252 0.0
C505 C 0.29034 0.28358 0.52225 0.0
C506 C 0.30981 0.19799 0.55609 0.0
C507 C 0.26375 0.21363 0.5529 0.0
C508 C 0.2541 0.25621 0.53635 0.0
C509 C 0.33611 0.26684 0.52396 0.0
C510 C 0.3458 0.22456 0.54087 0.0
C511 C 0.28181 0.33152 0.50952 0.0
H512 H 0.25497 0.61933 0.68277 0.0
H513 H 0.20997 0.60198 0.62936 0.0
H514 H 0.12653 0.5039 0.68923 0.0
H515 H 0.17193 0.52031 0.74158 0.0
H516 H 0.23538 0.19382 0.5644 0.0
H517 H 0.21847 0.26831 0.53566 0.0
H518 H 0.36459 0.28729 0.51328 0.0
H519 H 0.38155 0.21288 0.54246 0.0
Tb520 Tb 0.89598 0.93161 0.33075 0.0
Eu521 Eu 0.9707 0.99238 0.28773 0.0
C522 C 0.87669 1.03922 0.314 0.0
C523 C 0.8823 0.94298 0.24685 0.0
C524 C 0.82113 0.91389 0.40352 0.0
C525 C 0.77467 0.97386 0.43249 0.0
C526 C 0.78525 0.94738 0.40251 0.0
C527 C 0.84541 0.90698 0.43525 0.0
C528 C 0.83544 0.9338 0.46476 0.0
C529 C 0.80034 0.96788 0.46371 0.0
C530 C 0.83897 0.8924 0.37068 0.0
O531 O 0.94933 0.88128 0.31319 0.0
O532 O 1.00862 0.93262 0.31502 0.0
O533 O 0.96941 1.02745 0.34153 0.0
O534 O 0.93289 0.96964 0.37298 0.0
C535 C 0.99436 0.88931 0.31485 0.0
O536 O 1.00908 1.05556 0.27428 0.0
O537 O 1.0295 0.99009 0.251 0.0
O538 O 0.90792 1.03936 0.2885 0.0
O539 O 0.8707 1.00275 0.33465 0.0
O540 O 0.86529 0.93047 0.27786 0.0
O541 O 0.92388 0.96256 0.24402 0.0
C542 C 0.95338 1.01075 0.37166 0.0
O543 O 0.82666 0.91268 0.34119 0.0
O544 O 0.88326 0.88217 0.37071 0.0
C545 C 0.08934 1.04118 0.2703 0.0
C546 C 0.1743 1.05957 0.30479 0.0
C547 C 0.15873 1.01361 0.30073 0.0
C548 C 0.11651 1.0045 0.28384 0.0
C549 C 0.10602 0.0869 0.27284 0.0
C550 C 0.14799 0.09605 0.29005 0.0
C551 C 1.04153 1.03301 0.25748 0.0
H552 H 0.74655 0.99887 0.43133 0.0
H553 H 0.766 0.95387 0.37838 0.0
H554 H 0.87318 0.88163 0.43706 0.0
H555 H 0.85459 0.92682 0.48887 0.0
H556 H 0.17831 0.98485 0.31183 0.0
H557 H 0.10448 0.96888 0.28247 0.0
H558 H 0.08573 0.11573 0.26261 0.0
H559 H 0.15962 0.13176 0.29225 0.0
Tb560 Tb 0.44168 0.64695 1.0797 0.0
Eu561 Eu 0.37955 0.72 1.03599 0.0
C562 C 0.33548 0.62451 1.06231 0.0
C563 C 0.43156 0.63276 0.99583 0.0
C564 C 0.45978 0.57218 1.15259 0.0
C565 C 0.39477 0.53234 1.18157 0.0
C566 C 0.42106 0.54197 1.15112 0.0
C567 C 0.47228 0.59133 1.1852 0.0
C568 C 0.44569 0.58239 1.21525 0.0
C569 C 0.40622 0.55355 1.21365 0.0
C570 C 0.48146 0.59088 1.11995 0.0
O571 O 0.49128 0.70054 1.06143 0.0
O572 O 0.43936 0.75956 1.06175 0.0
O573 O 0.34414 0.71827 1.09001 0.0
O574 O 0.40274 0.68384 1.12163 0.0
C575 C 0.48281 0.74549 1.06227 0.0
O576 O 0.31525 0.75648 1.02283 0.0
O577 O 0.37969 0.7776 0.99791 0.0
O578 O 0.33526 0.65514 1.03631 0.0
O579 O 0.37117 0.62049 1.08369 0.0
O580 O 0.44373 0.61596 1.02696 0.0
O581 O 0.41135 0.67395 0.99272 0.0
C582 C 0.36114 0.70325 1.12029 0.0
O583 O 0.4625 0.5782 1.09022 0.0
O584 O 0.49009 0.63551 1.12032 0.0
C585 C 0.3281 0.83693 1.01734 0.0
C586 C 0.30993 0.92203 1.05172 0.0
C587 C 0.3559 0.90774 1.04543 0.0
C588 C 0.36492 0.86549 1.02859 0.0
C589 C 0.28222 0.85236 1.02209 0.0
C590 C 0.2732 0.89439 1.0392 0.0
C591 C 0.3367 0.78896 1.00497 0.0
H592 H 0.36539 0.50887 1.18002 0.0
H593 H 0.4102 0.52679 1.12632 0.0
H594 H 0.5017 0.61472 1.18722 0.0
H595 H 0.45648 0.59768 0.24005 0.0
H596 H 0.38488 0.9283 1.0548 0.0
H597 H 0.40072 0.85449 1.02559 0.0
H598 H 0.25325 0.83101 1.0137 0.0
H599 H 0.23742 0.90499 1.04312 0.0
Tb600 Tb 0.72643 0.19059 0.82923 0.0
Eu601 Eu 0.65227 0.12977 0.786 0.0
C602 C 0.74679 0.08388 0.8122 0.0
C603 C 0.74007 0.18087 0.7453 0.0
C604 C 0.80196 0.20816 0.90137 0.0
C605 C 0.83958 0.14207 0.93059 0.0
C606 C 0.83048 0.16817 0.89994 0.0
C607 C 0.78422 0.22226 0.93413 0.0
C608 C 0.79266 0.19591 0.96441 0.0
C609 C 0.81952 0.15509 0.96282 0.0
C610 C 0.78326 0.22975 0.86879 0.0
O611 O 0.67375 0.24108 0.81093 0.0
O612 O 0.61377 0.19021 0.8118 0.0
O613 O 0.65328 0.09435 0.84011 0.0
O614 O 0.68867 0.15236 0.87141 0.0
C615 C 0.62863 0.23342 0.81192 0.0
O616 O 0.61551 0.06581 0.77269 0.0
O617 O 0.5944 0.13079 0.74857 0.0
O618 O 0.71639 0.0845 0.78625 0.0
O619 O 0.75166 0.11951 0.83343 0.0
O620 O 0.75734 0.19212 0.77631 0.0
O621 O 0.69849 0.16154 0.74247 0.0
C622 C 0.66861 0.11106 0.87025 0.0
O623 O 0.7955 0.21043 0.83907 0.0
O624 O 0.73874 0.23881 0.86962 0.0
C625 C 0.53511 0.07863 0.76779 0.0
C626 C 0.44992 1.05928 0.80222 0.0
C627 C 0.46437 0.10545 0.79682 0.0
C628 C 0.5067 0.11506 0.77997 0.0
C629 C 0.51954 1.03261 0.77166 0.0
C630 C 0.47746 1.02299 0.78883 0.0
C631 C 0.58307 0.08762 0.75524 0.0
H632 H 0.86154 0.11154 0.92906 0.0
H633 H 0.84458 0.15613 0.87503 0.0
H634 H 0.76214 0.25267 0.9361 0.0
H635 H 0.77829 0.2077 0.98933 0.0
H636 H 0.44386 0.13408 0.80689 0.0
H637 H 0.51783 0.15094 0.77768 0.0
H638 H 0.5408 1.00395 0.76256 0.0
H639 H 0.46673 0.98709 0.79208 0.0
C640 C 0.51677 0.32007 0.37569 0.0
C641 C 0.52782 0.27233 0.37562 0.0
H642 H 0.54157 0.39047 0.37687 0.0
C643 C 0.57538 0.26011 0.3761 0.0
H644 H 0.48077 0.33115 0.37548 0.0
C645 C 0.61056 0.29441 0.37649 0.0
C646 C 0.59946 0.34217 0.37689 0.0
H647 H 0.5856 0.2239 0.37608 0.0
H648 H 0.64655 0.28338 0.37676 0.0
C649 C 0.55189 0.35431 0.37653 0.0
C650 C 0.60833 0.82023 0.62787 0.0
C651 C 0.59572 0.77275 0.62732 0.0
H652 H 0.58588 0.89163 0.62825 0.0
C653 C 0.54786 0.76217 0.62696 0.0
H654 H 0.64459 0.83019 0.62826 0.0
C655 C 0.51396 0.79768 0.62741 0.0
C656 C 0.52659 0.84516 0.6278 0.0
H657 H 0.53643 0.72629 0.62658 0.0
H658 H 0.47768 0.78774 0.62736 0.0
C659 C 0.57445 0.85574 0.62788 0.0
C660 C 0.10949 0.79574 0.87727 0.0
C661 C 0.09872 0.84358 0.87773 0.0
H662 H 0.08416 0.7254 0.87661 0.0
C663 C 1.05122 0.85599 0.87731 0.0
H664 H 0.14541 0.78446 0.87759 0.0
C665 C 1.01587 0.82195 0.8763 0.0
C666 C 1.02662 0.77411 0.87611 0.0
H667 H 1.04112 0.89222 0.8777 0.0
H668 H 0.97995 0.83324 0.87597 0.0
C669 C 0.07411 0.76166 0.87669 0.0
C670 C 1.04904 0.26134 1.12439 0.0
C671 C 0.09668 0.27302 1.12475 0.0
H672 H 0.97822 0.28537 1.12428 0.0
C673 C 0.10827 0.32073 1.12465 0.0
H674 H 1.03843 0.22519 1.12456 0.0
C675 C 0.07356 0.35545 1.1241 0.0
C676 C 1.02592 0.34378 1.12408 0.0
H677 H 0.14433 0.33145 1.12494 0.0
H678 H 0.08417 0.3916 1.12408 0.0
C679 C 1.01431 0.29606 1.12428 0.0
C680 C 0.60594 0.79918 1.06585 0.0
C681 C 0.5974 0.8476 1.06524 0.0
H682 H 0.57776 0.72977 1.06539 0.0
C683 C 0.55046 0.86187 1.06396 0.0
H684 H 0.64131 0.78632 1.06674 0.0
C685 C 0.51368 0.82909 1.06322 0.0
C686 C 0.52228 0.78066 1.06363 0.0
H687 H 0.542 0.89856 1.06339 0.0
H688 H 0.4783 0.84189 1.06216 0.0
C689 C 0.56921 0.76645 1.06503 0.0
C690 C 0.60893 0.32031 0.81285 0.0
C691 C 0.5941 0.27349 0.81281 0.0
H692 H 0.58994 0.39274 0.81306 0.0
C693 C 0.54559 0.26548 0.81322 0.0
H694 H 0.6457 0.32841 0.81252 0.0
C695 C 0.51332 0.30267 0.81351 0.0
C696 C 0.52815 0.3495 0.81343 0.0
H697 H 0.53232 0.23024 0.81319 0.0
H698 H 0.47655 0.29458 0.81368 0.0
C699 C 0.57666 0.3575 0.81317 0.0
C700 C 1.05075 0.36 0.56383 0.0
C701 C 0.09759 0.34542 0.56524 0.0
H702 H 0.97847 0.34053 0.56189 0.0
C703 C 0.10577 0.29693 0.56602 0.0
H704 H 1.04254 0.39675 0.56315 0.0
C705 C 0.06881 0.26443 0.56519 0.0
C706 C 1.02199 0.27897 0.56364 0.0
H707 H 0.14101 0.28382 0.56714 0.0
H708 H 0.07709 0.2277 0.5657 0.0
C709 C 1.01375 0.32747 0.56308 0.0
C710 C 1.04902 0.76635 0.31676 0.0
C711 C 0.09737 0.77545 0.31679 0.0
H712 H 0.97929 0.79386 0.31606 0.0
C713 C 0.11113 0.82255 0.31664 0.0
H714 H 1.03654 0.7308 0.31679 0.0
C715 C 0.07799 0.85896 0.31636 0.0
C716 C 1.02963 0.84988 0.31602 0.0
H717 H 0.14772 0.83145 0.31666 0.0
H718 H 0.09048 0.89447 0.31625 0.0
C719 C 1.01587 0.80277 0.31631 0.0
C720 C 0.71379 0.12848 0.29822 0.0
C721 C 0.71042 0.08642 0.31744 0.0
H722 H 0.72072 0.15705 0.24618 0.0
C723 C 0.73785 1.04886 0.30604 0.0
H724 H 0.69593 0.15945 0.30709 0.0
C725 C 0.75273 1.04778 0.27084 0.0
C726 C 0.74031 0.0845 0.248 0.0
H727 H 0.73895 1.0169 0.32139 0.0
H728 H 0.76447 1.01498 0.2601 0.0
C729 C 0.72834 0.12733 0.26296 0.0
C730 C 0.81808 0.98642 0.55643 0.0
C731 C 0.78004 0.95849 0.56643 0.0
H732 H 0.85449 1.01469 0.51189 0.0
C733 C 0.73918 0.96208 0.5461 0.0
H734 H 0.84906 0.98727 0.57268 0.0
C735 C 0.74248 0.9772 0.51099 0.0
C736 C 0.78618 0.98972 0.49741 0.0
H737 H 0.70782 0.94383 0.55392 0.0
H738 H 0.71385 0.96969 0.49334 0.0
C739 C 0.82118 1.00225 0.52147 0.0
C740 C 0.88675 0.07139 0.80813 0.0
C741 C 0.91364 1.03261 0.81806 0.0
H742 H 0.85966 0.1087 0.76367 0.0
C743 C 0.90922 0.99195 0.79772 0.0
H744 H 0.8865 0.10228 0.8244 0.0
C745 C 0.89418 0.99573 0.76272 0.0
C746 C 0.88267 1.03974 0.74917 0.0
H747 H 0.92666 0.96011 0.80547 0.0
H748 H 0.90093 0.96696 0.74505 0.0
C749 C 0.87122 0.07506 0.77323 0.0
C750 C 0.87498 0.15603 1.04668 0.0
C751 C 0.83299 0.16081 1.06566 0.0
H752 H 0.90361 0.14785 0.9949 0.0
C753 C 0.79443 0.13495 1.05408 0.0
H754 H 0.90658 0.17266 1.05563 0.0
C755 C 0.79302 0.12021 1.01896 0.0
C756 C 0.8304 0.13109 0.99637 0.0
H757 H 0.76241 0.13485 1.06925 0.0
H758 H 0.75986 0.10987 1.00802 0.0
C759 C 0.87353 0.1414 1.01155 0.0
C760 C 0.24694 0.47908 1.01358 0.0
C761 C 0.29069 0.49089 0.99975 0.0
H762 H 0.21219 0.44594 1.05653 0.0
C763 C 0.32624 0.50253 1.02361 0.0
H764 H 0.21798 0.4723 0.99607 0.0
C765 C 0.32319 0.48669 1.05856 0.0
C766 C 0.28482 0.45928 1.06869 0.0
H767 H 0.35963 0.51443 1.01381 0.0
H768 H 0.35433 0.48707 1.07464 0.0
C769 C 0.2438 0.46369 1.04862 0.0
C770 C 0.3827 0.65878 0.54784 0.0
C771 C 0.34078 0.66187 0.5671 0.0
H772 H 0.41093 0.65288 0.49573 0.0
C773 C 0.30302 0.63487 0.55552 0.0
H774 H 0.4138 0.6763 0.55682 0.0
C775 C 0.30162 0.62093 0.5202 0.0
C776 C 0.33834 0.63353 0.49747 0.0
H777 H 0.27117 0.63353 0.57088 0.0
H778 H 0.26868 0.60968 0.50937 0.0
C779 C 0.38128 0.64503 0.51249 0.0
C780 C 0.25299 0.54571 0.7728 0.0
C781 C 0.24124 0.58201 0.74937 0.0
H782 H 0.23835 0.51634 0.82369 0.0
C783 C 0.22998 0.62544 0.76365 0.0
H784 H 0.26432 0.51249 0.76259 0.0
C785 C 0.21527 0.62773 0.79885 0.0
C786 C 0.21089 0.58618 0.81857 0.0
H787 H 0.22303 0.65488 0.74641 0.0
H788 H 0.19792 0.65925 0.80716 0.0
C789 C 0.23789 0.54794 0.80791 0.0
C790 C 0.38713 0.57378 0.30581 0.0
C791 C 0.41281 0.53442 0.3163 0.0
H792 H 0.36214 0.6112 0.2607 0.0
C793 C 0.40733 0.49352 0.29636 0.0
H794 H 0.38751 0.60493 0.32179 0.0
C795 C 0.39265 0.49709 0.26126 0.0
C796 C 0.38275 0.54118 0.24719 0.0
H797 H 0.42366 0.46128 0.30451 0.0
H798 H 0.39866 0.46786 0.24387 0.0
C799 C 0.37227 0.57734 0.27074 0.0
C800 C 0.31697 0.49816 0.36889 0.0
C801 C 0.30318 0.45567 0.35404 0.0
H802 H 0.31169 0.57211 0.36784 0.0
C803 C 0.2755 0.45678 0.32328 0.0
H804 H 0.33931 0.49899 0.39191 0.0
C805 C 0.26032 0.49918 0.30882 0.0
C806 C 0.27225 0.54147 0.32486 0.0
H807 H 0.2638 0.42485 0.31117 0.0
H808 H 0.23757 0.49862 0.28603 0.0
C809 C 0.3015 0.54034 0.3547 0.0
C810 C 0.41838 0.51531 0.57864 0.0
C811 C 0.41868 0.54483 0.60821 0.0
H812 H 0.37731 0.47779 0.54106 0.0
C813 C 0.37619 0.56208 0.62088 0.0
H814 H 0.45068 0.50192 0.568 0.0
C815 C 0.33425 0.54821 0.60558 0.0
C816 C 0.33366 0.51727 0.57681 0.0
H817 H 0.37518 0.58477 0.64365 0.0
H818 H 0.30215 0.56068 0.61718 0.0
C819 C 0.37635 0.5019 0.56295 0.0
C820 C 0.31001 0.62562 0.87078 0.0
C821 C 0.32682 0.6684 0.85808 0.0
H822 H 0.3119 0.55167 0.86678 0.0
C823 C 0.35602 0.66874 0.82812 0.0
H824 H 0.2876 0.62412 0.89384 0.0
C825 C 0.36953 0.62701 0.81205 0.0
C826 C 0.35458 0.58403 0.82592 0.0
H827 H 0.36908 0.7013 0.81749 0.0
H828 H 0.39341 0.62842 0.78987 0.0
C829 C 0.32399 0.58402 0.85512 0.0
C830 C 0.24894 0.55894 1.11923 0.0
C831 C 0.20665 0.5683 1.10217 0.0
H832 H 0.32231 0.56837 1.11984 0.0
C833 C 0.20761 0.59194 1.06938 0.0
H834 H 0.24969 0.53983 1.14402 0.0
C835 C 0.24974 0.60813 1.05508 0.0
C836 C 0.29173 0.60085 1.07324 0.0
H837 H 0.17561 0.59982 1.05555 0.0
H838 H 0.24913 0.62795 1.03062 0.0
C839 C 0.29078 0.57505 1.10506 0.0
C840 C 0.86085 0.61166 1.1237 0.0
C841 C 0.84449 0.56941 1.10994 0.0
H842 H 0.86265 0.68573 1.11866 0.0
C843 C 0.81264 0.57074 1.08173 0.0
H844 H 0.88574 0.61205 1.14517 0.0
C845 C 0.79939 0.61312 1.06648 0.0
C846 C 0.8176 0.65523 1.07908 0.0
H847 H 0.7993 0.53894 1.07038 0.0
H848 H 0.77545 0.61282 1.0444 0.0
C849 C 0.84764 0.65402 1.10841 0.0
C850 C 0.71642 0.60552 0.84759 0.0
C851 C 0.71641 0.57209 0.82063 0.0
H852 H 0.75656 0.64438 0.88464 0.0
C853 C 0.75806 0.54891 0.81258 0.0
H854 H 0.68464 0.6234 0.85475 0.0
C855 C 0.7994 0.56084 0.82975 0.0
C856 C 0.79985 0.5958 0.85566 0.0
H857 H 0.75904 0.52295 0.79194 0.0
H858 H 0.83134 0.54396 0.82168 0.0
C859 C 0.75758 0.61702 0.86509 0.0
C860 C 0.76653 0.46415 0.59846 0.0
C861 C 0.79982 0.4647 0.57118 0.0
H862 H 0.72753 0.50365 0.63597 0.0
C863 C 0.82275 0.50658 0.56309 0.0
H864 H 0.74886 0.43217 0.60565 0.0
C865 C 0.81067 0.54763 0.58054 0.0
C866 C 0.77575 0.54756 0.6067 0.0
H867 H 0.84859 0.50801 0.54221 0.0
H868 H 0.82733 0.57977 0.57242 0.0
C869 C 0.75485 0.50504 0.61621 0.0
C870 C 0.86372 0.51574 0.37676 0.0
C871 C 0.82133 0.52827 0.36092 0.0
H872 H 0.93801 0.51795 0.37362 0.0
C873 C 0.82211 0.55743 0.33085 0.0
H874 H 0.86449 0.49311 0.39977 0.0
C875 C 0.86424 0.57137 0.31575 0.0
C876 C 0.9066 0.5568 0.33047 0.0
H877 H 0.79018 0.56785 0.3179 0.0
H878 H 0.86365 0.59281 0.29208 0.0
C879 C 0.90591 0.52991 0.36171 0.0
C880 C 0.81243 0.99601 0.86798 0.0
C881 C 0.79817 0.95368 0.85328 0.0
H882 H 0.80785 0.07 0.86644 0.0
C883 C 0.77077 0.95457 0.82245 0.0
H884 H 0.83335 0.99656 0.89177 0.0
C885 C 0.75646 0.99696 0.80747 0.0
C886 C 0.76884 1.03932 0.82325 0.0
H887 H 0.75969 0.92242 0.8103 0.0
H888 H 0.73407 0.99639 0.78448 0.0
C889 C 0.7977 1.03821 0.85334 0.0
C890 C 0.87526 1.00522 1.05891 0.0
C891 C 0.83276 1.02005 1.07333 0.0
H892 H 0.94937 1.00515 1.06323 0.0
C893 C 0.83361 1.05105 1.10201 0.0
H894 H 0.87601 0.98088 1.03717 0.0
C895 C 0.87565 0.06567 1.11662 0.0
C896 C 0.91822 1.04895 1.10353 0.0
H897 H 0.80164 0.06334 1.11392 0.0
H898 H 0.87455 0.08965 1.13857 0.0
C899 C 0.91746 1.01927 1.07395 0.0
C900 C 0.82405 0.08373 0.35444 0.0
C901 C 0.85524 0.08368 0.32561 0.0
H902 H 0.78718 0.12393 0.39288 0.0
C903 C 0.87076 0.12664 0.31207 0.0
H904 H 0.81151 1.05139 0.36583 0.0
C905 C 0.85724 0.16838 0.32811 0.0
C906 C 0.82746 0.16812 0.35773 0.0
H907 H 0.89507 0.12803 0.29016 0.0
H908 H 0.87075 0.20088 0.31771 0.0
C909 C 0.81007 0.12537 0.37009 0.0
C910 C 0.78814 0.07351 0.60443 0.0
C911 C 0.78838 0.10397 0.57505 0.0
H912 H 0.74764 1.03671 0.64311 0.0
C913 C 0.74552 0.11833 0.56089 0.0
H914 H 0.82037 0.06183 0.61629 0.0
C915 C 0.70363 0.10434 0.57679 0.0
C916 C 0.70367 0.07522 0.60688 0.0
H917 H 0.7443 0.14208 0.53854 0.0
H918 H 0.67115 0.11694 0.5659 0.0
C919 C 0.74638 1.05903 0.61993 0.0
C920 C 0.35608 0.1545 0.60153 0.0
C921 C 0.32063 0.15474 0.57603 0.0
H922 H 0.39748 0.114 0.63708 0.0
C923 C 0.29654 0.11329 0.56918 0.0
H924 H 0.37475 0.18615 0.60768 0.0
C925 C 0.30956 0.0718 0.58599 0.0
C926 C 0.34645 0.07112 0.61039 0.0
H927 H 0.26901 0.11256 0.54967 0.0
H928 H 0.29193 1.03994 0.57882 0.0
C929 C 0.36861 0.11323 0.61874 0.0
C930 C 0.21735 0.10498 0.35062 0.0
C931 C 0.21722 0.06973 0.32505 0.0
H932 H 0.25759 0.14575 0.38638 0.0
C933 C 0.25851 1.04519 0.31844 0.0
H934 H 0.18581 0.12395 0.35665 0.0
C935 C 0.29977 1.0576 0.33551 0.0
C936 C 0.30043 0.09442 0.35987 0.0
H937 H 0.25936 1.0178 0.2989 0.0
H938 H 0.33154 1.03964 0.32846 0.0
C939 C 0.25841 0.11697 0.36805 0.0
C940 C 0.2551 1.00543 1.11702 0.0
C941 C 0.27645 1.04784 1.10779 0.0
H942 H 0.24861 0.93267 1.10623 0.0
C943 C 0.31162 1.04774 1.08181 0.0
H944 H 0.22761 1.00414 1.13665 0.0
C945 C 0.32351 1.00667 1.0643 0.0
C946 C 0.30015 0.96493 1.07212 0.0
H947 H 0.32863 0.07978 1.07388 0.0
H948 H 0.34957 1.00799 1.04357 0.0
C949 C 0.26661 0.96454 1.09922 0.0
C950 C 0.3652 0.07219 0.81513 0.0
C951 C 0.40693 1.04879 0.82259 0.0
H952 H 0.29202 0.07681 0.82499 0.0
C953 C 0.40724 1.01455 0.84929 0.0
H954 H 0.36398 0.09877 0.7947 0.0
C955 C 0.36628 1.00251 0.86712 0.0
C956 C 0.32392 1.02398 0.85825 0.0
H957 H 0.4391 0.99646 0.85598 0.0
H958 H 0.36749 0.97454 0.88643 0.0
C959 C 0.32406 1.05972 0.83262 0.0
C960 C 0.35764 0.17996 0.24829 0.0
C961 C 0.34039 0.18827 0.28246 0.0
H962 H 0.3427 0.16999 1.19344 0.0
C963 C 0.29153 0.19154 0.28662 0.0
H964 H 0.39471 0.17658 0.24389 0.0
C965 C 0.26106 0.18654 0.2575 0.0
C966 C 0.27863 0.17913 1.22319 0.0
H967 H 0.27666 0.19699 0.31262 0.0
H968 H 0.22392 0.18921 0.26177 0.0
C969 C 0.32746 0.17601 1.21925 0.0
C970 C 0.68338 0.50748 0.5079 0.0
C971 C 0.68875 0.5253 0.47334 0.0
H972 H 0.67422 0.52267 0.56324 0.0
C973 C 0.6892 0.57422 0.46912 0.0
H974 H 0.68284 0.47025 0.51241 0.0
C975 C 0.6849 0.60426 0.49818 0.0
C976 C 0.67877 0.58668 0.53263 0.0
H977 H 0.69359 0.58965 0.4431 0.0
H978 H 0.68641 0.64145 0.49359 0.0
C979 C 0.67792 0.53773 0.53704 0.0
C980 C 0.26663 0.93432 0.75017 0.0
C981 C 0.2843 0.92726 0.78438 0.0
H982 H 0.28103 0.94393 0.69507 0.0
C983 C 0.33323 0.92559 0.78834 0.0
H984 H 0.22945 0.93647 0.74595 0.0
C985 C 0.36339 0.93113 0.75897 0.0
C986 C 0.34544 0.93747 0.72465 0.0
H987 H 0.34834 0.92119 0.81437 0.0
H988 H 0.40062 0.92989 0.76308 0.0
C989 C 0.29655 0.93879 0.72089 0.0
C990 C 0.93612 0.60998 1.00579 0.0
C991 C 0.93054 0.59233 0.9714 0.0
H992 H 0.94495 0.59446 1.06122 0.0
C993 C 0.92907 0.54343 0.96759 0.0
H994 H 0.93737 0.64718 1.00998 0.0
C995 C 0.93293 0.51325 0.99685 0.0
C996 C 0.93949 0.53064 1.03109 0.0
H997 H 0.92444 0.52813 0.94171 0.0
H998 H 0.93092 0.47609 0.99256 0.0
C999 C 0.94101 0.57955 1.03514 0.0
C1000 C 0.87008 0.93459 1.17993 0.0
C1001 C 0.85185 0.93599 1.21458 0.0
H1002 H 0.85624 0.92776 1.12418 0.0
C1003 C 0.80312 0.93124 1.21834 0.0
H1004 H 0.90714 0.93835 1.17563 0.0
C1005 C 0.77371 0.92624 1.18873 0.0
C1006 C 0.79193 0.9241 1.15416 0.0
H1007 H 0.78731 0.93239 0.24436 0.0
H1008 H 0.73651 0.92407 1.19296 0.0
C1009 C 0.84072 0.92812 1.15032 0.0
C1010 C 0.44167 0.62105 0.92907 0.0
C1011 C 0.43951 0.60253 0.96367 0.0
H1012 H 0.44955 0.60764 0.87335 0.0
C1013 C 0.44423 0.55379 0.96746 0.0
H1014 H 0.43794 0.65814 0.92478 0.0
C1015 C 0.44993 0.52462 0.93785 0.0
C1016 C 0.45272 0.54312 0.90331 0.0
H1017 H 0.44238 0.53781 0.99345 0.0
H1018 H 0.45193 0.48738 0.94205 0.0
C1019 C 0.44877 0.59193 0.89948 0.0
C1020 C 0.81894 0.1932 0.71632 0.0
C1021 C 0.77019 0.18892 0.71293 0.0
H1022 H 0.88527 0.20074 0.69037 0.0
C1023 C 0.75152 0.1917 0.67852 0.0
H1024 H 0.83501 0.19088 0.74216 0.0
C1025 C 0.78056 0.19892 0.64871 0.0
C1026 C 0.82938 0.20242 0.65216 0.0
H1027 H 0.71439 0.18834 0.67457 0.0
H1028 H 0.76477 0.20012 0.62273 0.0
C1029 C 0.848 0.19908 0.6865 0.0
C1030 C 0.18296 0.57089 0.46979 0.0
C1031 C 0.18657 0.52207 0.46629 0.0
H1032 H 0.17698 0.63764 0.44398 0.0
C1033 C 0.18445 0.50384 0.4318 0.0
H1034 H 0.18473 0.58663 0.49571 0.0
C1035 C 0.1784 0.53331 0.40205 0.0
C1036 C 0.17548 0.58216 0.40561 0.0
H1037 H 0.18733 0.46669 0.42775 0.0
H1038 H 0.17747 0.51781 0.37601 0.0
C1039 C 0.17832 0.60039 0.44001 0.0
C1040 C 0.76119 0.6868 0.75594 0.0
C1041 C 0.77878 0.67983 0.72159 0.0
H1042 H 0.77675 0.69756 0.811 0.0
C1043 C 0.82764 0.67805 0.71745 0.0
H1044 H 0.72401 0.68843 0.76035 0.0
C1045 C 0.85785 0.68273 0.74641 0.0
C1046 C 0.84052 0.69053 0.78062 0.0
H1047 H 0.84285 0.67243 0.69158 0.0
H1048 H 0.89498 0.68022 0.74193 0.0
C1049 C 0.79164 0.69259 0.78494 0.0
C1050 C 0.18494 1.00887 1.00829 0.0
C1051 C 0.19186 1.02654 0.97386 0.0
H1052 H 0.17465 1.0243 1.06343 0.0
C1053 C 0.19415 0.07541 0.96965 0.0
H1054 H 0.18293 0.97168 1.01274 0.0
C1055 C 0.18999 0.10555 0.99864 0.0
C1056 C 0.18224 0.08814 1.03294 0.0
H1057 H 0.19976 0.09068 0.94371 0.0
H1058 H 0.19281 0.14268 0.9941 0.0
C1059 C 0.17968 1.03925 1.03732 0.0
C1060 C 0.79709 0.43654 1.21966 0.0
C1061 C 0.84607 0.43681 1.22319 0.0
H1062 H 0.73019 0.43358 0.24503 0.0
C1063 C 0.86429 0.43307 0.25765 0.0
H1064 H 0.78126 0.43975 1.19378 0.0
C1065 C 0.83439 0.42838 0.28734 0.0
C1066 C 0.78539 0.42824 0.28353 0.0
H1067 H 0.90155 0.43325 0.26168 0.0
H1068 H 0.84972 0.42599 0.31344 0.0
C1069 C 0.76743 0.43287 0.24919 0.0
C1070 C 0.44502 0.08106 0.53757 0.0
C1071 C 0.44295 1.0321 0.53389 0.0
H1072 H 0.44143 0.14844 0.51194 0.0
C1073 C 0.43567 1.0144 0.49982 0.0
H1074 H 0.44958 0.09622 0.56349 0.0
C1075 C 0.43143 1.04426 0.47041 0.0
C1076 C 0.43328 0.09319 0.47384 0.0
H1077 H 0.4332 0.97722 0.49578 0.0
H1078 H 0.42614 1.02864 0.44472 0.0
C1079 C 0.43978 0.1112 0.50804 0.0
C1080 C 0.30242 0.42936 0.7195 0.0
C1081 C 0.35107 0.43452 0.71563 0.0
H1082 H 0.23592 0.42117 0.69417 0.0
C1083 C 0.36942 0.43249 0.68105 0.0
H1084 H 0.28661 0.43091 0.7455 0.0
C1085 C 0.34019 0.42516 0.65155 0.0
C1086 C 0.29146 0.42088 0.65547 0.0
H1087 H 0.40644 0.4365 0.67671 0.0
H1088 H 0.35574 0.42446 0.62543 0.0
C1089 C 0.27312 0.4235 0.68996 0.0
C1090 C 0.94123 0.11989 0.42942 0.0
C1091 C 0.938 0.10129 0.46395 0.0
H1092 H 0.95005 0.10651 0.37381 0.0
C1093 C 0.94169 1.05247 0.46773 0.0
H1094 H 0.93831 0.15706 0.42516 0.0
C1095 C 0.94747 1.0233 0.43815 0.0
C1096 C 0.95135 1.04187 0.4037 0.0
H1097 H 0.93899 1.03647 0.49367 0.0
H1098 H 0.94869 0.98601 0.4423 0.0
C1099 C 0.9484 0.09074 0.39989 0.0
C1100 C 0.2528 0.69146 1.18004 0.0
C1101 C 0.27186 0.69006 1.21438 0.0
H1102 H 0.26536 0.698 1.12396 0.0
C1103 C 0.32066 0.69479 1.21726 0.0
H1104 H 0.21565 0.68769 1.17642 0.0
C1105 C 0.34934 0.69978 1.18709 0.0
C1106 C 0.33032 0.70179 1.15281 0.0
H1107 H 0.33709 0.6936 0.243 0.0
H1108 H 0.38663 0.70192 1.19067 0.0
C1109 C 0.28146 0.69779 1.14985 0.0
C1110 C 0.67718 0.06993 0.96701 0.0
C1111 C 0.68266 1.02122 0.96401 0.0
H1112 H 0.66921 0.13602 0.94059 0.0
C1113 C 0.68143 1.00239 0.92965 0.0
H1114 H 0.67808 0.08618 0.99277 0.0
C1115 C 0.67469 1.03121 0.89957 0.0
C1116 C 0.67011 0.08 0.90267 0.0
H1117 H 0.6857 0.96532 0.92594 0.0
H1118 H 0.6747 1.01532 0.87366 0.0
C1119 C 0.67183 0.09878 0.93695 0.0
loop_
_geom_bond_atom_site_label_1
_geom_bond_atom_site_label_2
_geom_bond_distance
_geom_bond_site_symmetry_2
_ccdc_geom_bond_type
Tb0 C10 2.825 . S
Tb0 O11 2.347 . S
Tb0 O14 2.366 . S
Tb0 O19 2.418 . S
Tb0 O20 2.384 . S
Tb0 O23 2.479 . S
Tb0 O24 2.471 . S
Eu1 O12 2.418 . S
Eu1 O13 2.384 . S
Eu1 O16 2.479 . S
Eu1 O17 2.471 . S
Eu1 O18 2.347 . S
Eu1 O21 2.366 . S
Eu1 C31 2.825 . S
C2 O18 1.259 . S
C2 O19 1.265 . S
C3 O20 1.255 . S
C3 O21 1.265 . S
C4 C6 1.380 . S
C4 C7 1.374 . S
C4 C10 1.507 . S
C5 C6 1.384 . S
C5 C9 1.387 . S
C5 H32 0.930 . S
C6 C4 1.380 . S
C6 C5 1.384 . S
C6 H33 0.931 . S
C7 C4 1.374 . S
C7 C8 1.390 . S
C7 H34 0.930 . S
C8 C7 1.390 . S
C8 C9 1.391 . S
C8 H35 0.930 . S
C9 C5 1.387 . S
C9 C8 1.391 . S
C10 Tb0 2.825 . S
C10 C4 1.507 . S
C10 O23 1.238 . S
C10 O24 1.247 . S
O11 Tb0 2.347 . S
O11 C15 1.259 . S
O12 Eu1 2.418 . S
O12 C15 1.265 . S
O13 Eu1 2.384 . S
O13 C22 1.255 . S
O14 Tb0 2.366 . S
O14 C22 1.265 . S
C15 O11 1.259 . S
C15 O12 1.265 . S
O16 Eu1 2.479 . S
O16 C31 1.238 . S
O17 Eu1 2.471 . S
O17 C31 1.247 . S
O18 Eu1 2.347 . S
O18 C2 1.259 . S
O19 Tb0 2.418 . S
O19 C2 1.265 . S
O20 Tb0 2.384 . S
O20 C3 1.255 . S
O21 Eu1 2.366 . S
O21 C3 1.265 . S
C22 O13 1.255 . S
C22 O14 1.265 . S
O23 Tb0 2.479 . S
O23 C10 1.238 . S
O24 Tb0 2.471 . S
O24 C10 1.247 . S
C25 C28 1.380 1_545 S
C25 C29 1.374 . S
C25 C31 1.507 . S
C26 C27 1.387 . S
C26 C30 1.391 1_565 S
C27 C26 1.387 . S
C27 C28 1.384 . S
C27 H36 0.930 . S
C28 C25 1.380 1_565 S
C28 C27 1.384 . S
C28 H37 0.931 . S
C29 C25 1.374 . S
C29 C30 1.390 . S
C29 H38 0.930 . S
C30 C26 1.391 1_545 S
C30 C29 1.390 . S
C30 H39 0.904 1_554 S
C31 Eu1 2.825 . S
C31 O16 1.238 . S
C31 O17 1.247 . S
C31 C25 1.507 . S
H32 C5 0.930 . S
H33 C6 0.931 . S
H34 C7 0.930 . S
H35 C8 0.930 . S
H36 C27 0.930 . S
H37 C28 0.931 . S
H38 C29 0.930 . S
H39 C30 0.904 1_556 S
Tb40 C50 2.825 . S
Tb40 O51 2.347 . S
Tb40 O54 2.366 . S
Tb40 O59 2.418 . S
Tb40 O60 2.384 . S
Tb40 O63 2.479 . S
Tb40 O64 2.471 . S
Eu41 O52 2.418 . S
Eu41 O53 2.384 . S
Eu41 O56 2.479 . S
Eu41 O57 2.471 . S
Eu41 O58 2.347 . S
Eu41 O61 2.366 . S
Eu41 C71 2.825 . S
C42 O58 1.259 . S
C42 O59 1.265 . S
C43 O60 1.255 . S
C43 O61 1.265 . S
C44 C46 1.380 . S
C44 C47 1.374 . S
C44 C50 1.507 . S
C45 C46 1.384 . S
C45 C49 1.387 . S
C45 H72 0.930 . S
C46 C44 1.380 . S
C46 C45 1.384 . S
C46 H73 0.931 . S
C47 C44 1.374 . S
C47 C48 1.390 . S
C47 H74 0.930 . S
C48 C47 1.390 . S
C48 C49 1.391 . S
C48 H75 0.930 . S
C49 C45 1.387 . S
C49 C48 1.391 . S
C50 Tb40 2.825 . S
C50 C44 1.507 . S
C50 O63 1.238 . S
C50 O64 1.247 . S
O51 Tb40 2.347 . S
O51 C55 1.259 . S
O52 Eu41 2.418 . S
O52 C55 1.265 . S
O53 Eu41 2.384 . S
O53 C62 1.255 . S
O54 Tb40 2.366 . S
O54 C62 1.265 . S
C55 O51 1.259 . S
C55 O52 1.265 . S
O56 Eu41 2.479 . S
O56 C71 1.238 . S
O57 Eu41 2.471 . S
O57 C71 1.247 . S
O58 Eu41 2.347 . S
O58 C42 1.259 . S
O59 Tb40 2.418 . S
O59 C42 1.265 . S
O60 Tb40 2.384 . S
O60 C43 1.255 . S
O61 Eu41 2.366 . S
O61 C43 1.265 . S
C62 O53 1.255 . S
C62 O54 1.265 . S
O63 Tb40 2.479 . S
O63 C50 1.238 . S
O64 Tb40 2.471 . S
O64 C50 1.247 . S
C65 C68 1.380 . S
C65 C69 1.374 . S
C65 C71 1.507 . S
C66 C67 1.387 . S
C66 C70 1.391 . S
C67 C66 1.387 . S
C67 C68 1.384 . S
C67 H76 0.930 . S
C68 C65 1.380 . S
C68 C67 1.384 . S
C68 H77 0.931 . S
C69 C65 1.374 . S
C69 C70 1.390 . S
C69 H78 0.930 . S
C70 C66 1.391 . S
C70 C69 1.390 . S
C70 H79 0.930 . S
C71 Eu41 2.825 . S
C71 O56 1.238 . S
C71 O57 1.247 . S
C71 C65 1.507 . S
H72 C45 0.930 . S
H73 C46 0.931 . S
H74 C47 0.930 . S
H75 C48 0.930 . S
H76 C67 0.930 . S
H77 C68 0.931 . S
H78 C69 0.930 . S
H79 C70 0.930 . S
Tb80 C90 2.825 . S
Tb80 O91 2.347 . S
Tb80 O94 2.366 . S
Tb80 O99 2.418 . S
Tb80 O100 2.384 . S
Tb80 O103 2.479 . S
Tb80 O104 2.471 . S
Eu81 O92 2.418 . S
Eu81 O93 2.384 . S
Eu81 O96 2.479 . S
Eu81 O97 2.471 . S
Eu81 O98 2.347 . S
Eu81 O101 2.366 . S
Eu81 C111 2.825 . S
C82 O98 1.259 . S
C82 O99 1.265 . S
C83 O100 1.255 . S
C83 O101 1.265 . S
C84 C86 1.380 . S
C84 C87 1.374 . S
C84 C90 1.507 . S
C85 C86 1.384 . S
C85 C89 1.387 . S
C85 H112 0.930 . S
C86 C84 1.380 . S
C86 C85 1.384 . S
C86 H113 0.931 . S
C87 C84 1.374 . S
C87 C88 1.390 . S
C87 H114 0.930 . S
C88 C87 1.390 . S
C88 C89 1.391 . S
C88 H115 0.930 . S
C89 C85 1.387 . S
C89 C88 1.391 . S
C90 Tb80 2.825 . S
C90 C84 1.507 . S
C90 O103 1.238 . S
C90 O104 1.247 . S
O91 Tb80 2.347 . S
O91 C95 1.259 . S
O92 Eu81 2.418 . S
O92 C95 1.265 . S
O93 Eu81 2.384 . S
O93 C102 1.255 . S
O94 Tb80 2.366 . S
O94 C102 1.265 . S
C95 O91 1.259 . S
C95 O92 1.265 . S
O96 Eu81 2.479 . S
O96 C111 1.238 . S
O97 Eu81 2.471 . S
O97 C111 1.247 . S
O98 Eu81 2.347 . S
O98 C82 1.259 . S
O99 Tb80 2.418 . S
O99 C82 1.265 . S
O100 Tb80 2.384 . S
O100 C83 1.255 . S
O101 Eu81 2.366 . S
O101 C83 1.265 . S
C102 O93 1.255 . S
C102 O94 1.265 . S
O103 Tb80 2.479 . S
O103 C90 1.238 . S
O104 Tb80 2.471 . S
O104 C90 1.247 . S
C105 C108 1.380 1_565 S
C105 C109 1.374 . S
C105 C111 1.507 . S
C106 C107 1.387 . S
C106 C110 1.391 1_545 S
C107 C106 1.387 . S
C107 C108 1.384 . S
C107 H116 0.930 . S
C108 C105 1.380 1_545 S
C108 C107 1.384 . S
C108 H117 0.931 . S
C109 C105 1.374 . S
C109 C110 1.390 . S
C109 H118 0.930 . S
C110 C106 1.391 1_565 S
C110 C109 1.390 . S
C110 H119 0.930 . S
C111 Eu81 2.825 . S
C111 O96 1.238 . S
C111 O97 1.247 . S
C111 C105 1.507 . S
H112 C85 0.930 . S
H113 C86 0.931 . S
H114 C87 0.930 . S
H115 C88 0.930 . S
H116 C107 0.930 . S
H117 C108 0.931 . S
H118 C109 0.930 . S
H119 C110 0.930 . S
Tb120 C130 2.825 1_655 S
Tb120 O131 2.347 . S
Tb120 O134 2.366 . S
Tb120 O139 2.418 . S
Tb120 O140 2.384 . S
Tb120 O143 2.479 1_655 S
Tb120 O144 2.471 . S
Eu121 O132 2.418 . S
Eu121 O133 2.384 . S
Eu121 O136 2.479 . S
Eu121 O137 2.471 . S
Eu121 O138 2.347 . S
Eu121 O141 2.366 . S
Eu121 C151 2.825 . S
C122 O138 1.259 . S
C122 O139 1.265 . S
C123 O140 1.255 . S
C123 O141 1.265 . S
C124 C126 1.380 . S
C124 C127 1.374 . S
C124 C130 1.507 . S
C125 C126 1.384 . S
C125 C129 1.387 . S
C125 H152 0.930 . S
C126 C124 1.380 . S
C126 C125 1.384 . S
C126 H153 0.931 . S
C127 C124 1.374 . S
C127 C128 1.390 . S
C127 H154 0.930 1_455 S
C128 C127 1.390 . S
C128 C129 1.391 . S
C128 H155 0.930 . S
C129 C125 1.387 . S
C129 C128 1.391 . S
C130 Tb120 2.825 1_455 S
C130 C124 1.507 . S
C130 O143 1.238 . S
C130 O144 1.247 1_455 S
O131 Tb120 2.347 . S
O131 C135 1.259 . S
O132 Eu121 2.418 . S
O132 C135 1.265 . S
O133 Eu121 2.384 . S
O133 C142 1.255 . S
O134 Tb120 2.366 . S
O134 C142 1.265 . S
C135 O131 1.259 . S
C135 O132 1.265 . S
O136 Eu121 2.479 . S
O136 C151 1.238 . S
O137 Eu121 2.471 . S
O137 C151 1.247 . S
O138 Eu121 2.347 . S
O138 C122 1.259 . S
O139 Tb120 2.418 . S
O139 C122 1.265 . S
O140 Tb120 2.384 . S
O140 C123 1.255 . S
O141 Eu121 2.366 . S
O141 C123 1.265 . S
C142 O133 1.255 . S
C142 O134 1.265 . S
O143 Tb120 2.479 1_455 S
O143 C130 1.238 . S
O144 Tb120 2.471 . S
O144 C130 1.247 1_655 S
C145 C148 1.380 . S
C145 C149 1.374 . S
C145 C151 1.507 . S
C146 C147 1.387 . S
C146 C150 1.391 . S
C147 C146 1.387 . S
C147 C148 1.384 . S
C147 H156 0.930 . S
C148 C145 1.380 . S
C148 C147 1.384 . S
C148 H157 0.931 . S
C149 C145 1.374 . S
C149 C150 1.390 . S
C149 H158 0.930 . S
C150 C146 1.391 . S
C150 C149 1.390 . S
C150 H159 0.930 . S
C151 Eu121 2.825 . S
C151 O136 1.238 . S
C151 O137 1.247 . S
C151 C145 1.507 . S
H152 C125 0.930 . S
H153 C126 0.931 . S
H154 C127 0.930 1_655 S
H155 C128 0.930 . S
H156 C147 0.930 . S
H157 C148 0.931 . S
H158 C149 0.930 . S
H159 C150 0.930 . S
Tb160 C170 2.825 . S
Tb160 O171 2.347 . S
Tb160 O174 2.366 . S
Tb160 O179 2.418 . S
Tb160 O180 2.384 . S
Tb160 O183 2.479 . S
Tb160 O184 2.471 . S
Eu161 O172 2.418 . S
Eu161 O173 2.384 . S
Eu161 O176 2.479 . S
Eu161 O177 2.471 . S
Eu161 O178 2.347 . S
Eu161 O181 2.366 . S
Eu161 C191 2.825 . S
C162 O178 1.259 . S
C162 O179 1.265 . S
C163 O180 1.255 . S
C163 O181 1.265 . S
C164 C166 1.380 1_565 S
C164 C167 1.374 . S
C164 C170 1.507 . S
C165 C166 1.384 . S
C165 C169 1.387 . S
C165 H192 0.930 . S
C166 C164 1.380 1_545 S
C166 C165 1.384 . S
C166 H193 0.931 . S
C167 C164 1.374 . S
C167 C168 1.390 . S
C167 H194 0.930 . S
C168 C167 1.390 . S
C168 C169 1.391 1_565 S
C168 H195 0.904 1_556 S
C169 C165 1.387 . S
C169 C168 1.391 1_545 S
C170 Tb160 2.825 . S
C170 C164 1.507 . S
C170 O183 1.238 . S
C170 O184 1.247 . S
O171 Tb160 2.347 . S
O171 C175 1.259 . S
O172 Eu161 2.418 . S
O172 C175 1.265 . S
O173 Eu161 2.384 . S
O173 C182 1.255 . S
O174 Tb160 2.366 . S
O174 C182 1.265 . S
C175 O171 1.259 . S
C175 O172 1.265 . S
O176 Eu161 2.479 . S
O176 C191 1.238 . S
O177 Eu161 2.471 . S
O177 C191 1.247 . S
O178 Eu161 2.347 . S
O178 C162 1.259 . S
O179 Tb160 2.418 . S
O179 C162 1.265 . S
O180 Tb160 2.384 . S
O180 C163 1.255 . S
O181 Eu161 2.366 . S
O181 C163 1.265 . S
C182 O173 1.255 . S
C182 O174 1.265 . S
O183 Tb160 2.479 . S
O183 C170 1.238 . S
O184 Tb160 2.471 . S
O184 C170 1.247 . S
C185 C188 1.380 . S
C185 C189 1.374 . S
C185 C191 1.507 . S
C186 C187 1.387 . S
C186 C190 1.391 . S
C187 C186 1.387 . S
C187 C188 1.384 . S
C187 H196 0.930 . S
C188 C185 1.380 . S
C188 C187 1.384 . S
C188 H197 0.931 . S
C189 C185 1.374 . S
C189 C190 1.390 . S
C189 H198 0.930 . S
C190 C186 1.391 . S
C190 C189 1.390 . S
C190 H199 0.930 . S
C191 Eu161 2.825 . S
C191 O176 1.238 . S
C191 O177 1.247 . S
C191 C185 1.507 . S
H192 C165 0.930 . S
H193 C166 0.931 . S
H194 C167 0.930 . S
H195 C168 0.904 1_554 S
H196 C187 0.930 . S
H197 C188 0.931 . S
H198 C189 0.930 . S
H199 C190 0.930 . S
Tb200 C210 2.825 . S
Tb200 O211 2.347 . S
Tb200 O214 2.366 . S
Tb200 O219 2.418 . S
Tb200 O220 2.384 . S
Tb200 O223 2.479 . S
Tb200 O224 2.471 . S
Eu201 O212 2.418 . S
Eu201 O213 2.384 . S
Eu201 O216 2.479 . S
Eu201 O217 2.471 . S
Eu201 O218 2.347 . S
Eu201 O221 2.366 . S
Eu201 C231 2.825 . S
C202 O218 1.259 . S
C202 O219 1.265 . S
C203 O220 1.255 . S
C203 O221 1.265 . S
C204 C206 1.380 . S
C204 C207 1.374 . S
C204 C210 1.507 . S
C205 C206 1.384 . S
C205 C209 1.387 . S
C205 H232 0.930 . S
C206 C204 1.380 . S
C206 C205 1.384 . S
C206 H233 0.931 . S
C207 C204 1.374 . S
C207 C208 1.390 . S
C207 H234 0.930 . S
C208 C207 1.390 . S
C208 C209 1.391 . S
C208 H235 0.930 . S
C209 C205 1.387 . S
C209 C208 1.391 . S
C210 Tb200 2.825 . S
C210 C204 1.507 . S
C210 O223 1.238 . S
C210 O224 1.247 . S
O211 Tb200 2.347 . S
O211 C215 1.259 . S
O212 Eu201 2.418 . S
O212 C215 1.265 . S
O213 Eu201 2.384 . S
O213 C222 1.255 . S
O214 Tb200 2.366 . S
O214 C222 1.265 . S
C215 O211 1.259 . S
C215 O212 1.265 . S
O216 Eu201 2.479 . S
O216 C231 1.238 . S
O217 Eu201 2.471 . S
O217 C231 1.247 . S
O218 Eu201 2.347 . S
O218 C202 1.259 . S
O219 Tb200 2.418 . S
O219 C202 1.265 . S
O220 Tb200 2.384 . S
O220 C203 1.255 . S
O221 Eu201 2.366 . S
O221 C203 1.265 . S
C222 O213 1.255 . S
C222 O214 1.265 . S
O223 Tb200 2.479 . S
O223 C210 1.238 . S
O224 Tb200 2.471 . S
O224 C210 1.247 . S
C225 C228 1.380 . S
C225 C229 1.374 . S
C225 C231 1.507 . S
C226 C227 1.387 . S
C226 C230 1.391 . S
C227 C226 1.387 . S
C227 C228 1.384 . S
C227 H236 0.930 . S
C228 C225 1.380 . S
C228 C227 1.384 . S
C228 H237 0.931 . S
C229 C225 1.374 . S
C229 C230 1.390 . S
C229 H238 0.930 . S
C230 C226 1.391 . S
C230 C229 1.390 . S
C230 H239 0.930 . S
C231 Eu201 2.825 . S
C231 O216 1.238 . S
C231 O217 1.247 . S
C231 C225 1.507 . S
H232 C205 0.930 . S
H233 C206 0.931 . S
H234 C207 0.930 . S
H235 C208 0.930 . S
H236 C227 0.930 . S
H237 C228 0.931 . S
H238 C229 0.930 . S
H239 C230 0.930 . S
Tb240 C250 2.825 . S
Tb240 O251 2.347 . S
Tb240 O254 2.366 . S
Tb240 O259 2.418 . S
Tb240 O260 2.384 . S
Tb240 O263 2.479 . S
Tb240 O264 2.471 . S
Eu241 O252 2.418 . S
Eu241 O253 2.384 . S
Eu241 O256 2.479 . S
Eu241 O257 2.471 . S
Eu241 O258 2.347 . S
Eu241 O261 2.366 . S
Eu241 C271 2.825 . S
C242 O258 1.259 . S
C242 O259 1.265 . S
C243 O260 1.255 . S
C243 O261 1.265 . S
C244 C246 1.380 1_545 S
C244 C247 1.374 . S
C244 C250 1.507 . S
C245 C246 1.384 . S
C245 C249 1.387 . S
C245 H272 0.930 . S
C246 C244 1.380 1_565 S
C246 C245 1.384 . S
C246 H273 0.931 . S
C247 C244 1.374 . S
C247 C248 1.390 . S
C247 H274 0.930 . S
C248 C247 1.390 . S
C248 C249 1.391 1_545 S
C248 H275 0.930 . S
C249 C245 1.387 . S
C249 C248 1.391 1_565 S
C250 Tb240 2.825 . S
C250 C244 1.507 . S
C250 O263 1.238 . S
C250 O264 1.247 . S
O251 Tb240 2.347 . S
O251 C255 1.259 . S
O252 Eu241 2.418 . S
O252 C255 1.265 . S
O253 Eu241 2.384 . S
O253 C262 1.255 . S
O254 Tb240 2.366 . S
O254 C262 1.265 . S
C255 O251 1.259 . S
C255 O252 1.265 . S
O256 Eu241 2.479 . S
O256 C271 1.238 . S
O257 Eu241 2.471 . S
O257 C271 1.247 . S
O258 Eu241 2.347 . S
O258 C242 1.259 . S
O259 Tb240 2.418 . S
O259 C242 1.265 . S
O260 Tb240 2.384 . S
O260 C243 1.255 . S
O261 Eu241 2.366 . S
O261 C243 1.265 . S
C262 O253 1.255 . S
C262 O254 1.265 . S
O263 Tb240 2.479 . S
O263 C250 1.238 . S
O264 Tb240 2.471 . S
O264 C250 1.247 . S
C265 C268 1.380 . S
C265 C269 1.374 . S
C265 C271 1.507 . S
C266 C267 1.387 . S
C266 C270 1.391 . S
C267 C266 1.387 . S
C267 C268 1.384 . S
C267 H276 0.930 . S
C268 C265 1.380 . S
C268 C267 1.384 . S
C268 H277 0.931 . S
C269 C265 1.374 . S
C269 C270 1.390 . S
C269 H278 0.930 . S
C270 C266 1.391 . S
C270 C269 1.390 . S
C270 H279 0.930 . S
C271 Eu241 2.825 . S
C271 O256 1.238 . S
C271 O257 1.247 . S
C271 C265 1.507 . S
H272 C245 0.930 . S
H273 C246 0.931 . S
H274 C247 0.930 . S
H275 C248 0.930 . S
H276 C267 0.930 . S
H277 C268 0.931 . S
H278 C269 0.930 . S
H279 C270 0.930 . S
Tb280 C290 2.825 . S
Tb280 O291 2.347 . S
Tb280 O294 2.366 . S
Tb280 O299 2.418 . S
Tb280 O300 2.384 . S
Tb280 O303 2.479 . S
Tb280 O304 2.471 . S
Eu281 O292 2.418 . S
Eu281 O293 2.384 . S
Eu281 O296 2.479 1_455 S
Eu281 O297 2.471 . S
Eu281 O298 2.347 . S
Eu281 O301 2.366 . S
Eu281 C311 2.825 1_455 S
C282 O298 1.259 . S
C282 O299 1.265 . S
C283 O300 1.255 . S
C283 O301 1.265 . S
C284 C286 1.380 . S
C284 C287 1.374 . S
C284 C290 1.507 . S
C285 C286 1.384 . S
C285 C289 1.387 . S
C285 H312 0.930 . S
C286 C284 1.380 . S
C286 C285 1.384 . S
C286 H313 0.931 . S
C287 C284 1.374 . S
C287 C288 1.390 . S
C287 H314 0.930 . S
C288 C287 1.390 . S
C288 C289 1.391 . S
C288 H315 0.930 . S
C289 C285 1.387 . S
C289 C288 1.391 . S
C290 Tb280 2.825 . S
C290 C284 1.507 . S
C290 O303 1.238 . S
C290 O304 1.247 . S
O291 Tb280 2.347 . S
O291 C295 1.259 . S
O292 Eu281 2.418 . S
O292 C295 1.265 . S
O293 Eu281 2.384 . S
O293 C302 1.255 . S
O294 Tb280 2.366 . S
O294 C302 1.265 . S
C295 O291 1.259 . S
C295 O292 1.265 . S
O296 Eu281 2.479 1_655 S
O296 C311 1.238 . S
O297 Eu281 2.471 . S
O297 C311 1.247 1_455 S
O298 Eu281 2.347 . S
O298 C282 1.259 . S
O299 Tb280 2.418 . S
O299 C282 1.265 . S
O300 Tb280 2.384 . S
O300 C283 1.255 . S
O301 Eu281 2.366 . S
O301 C283 1.265 . S
C302 O293 1.255 . S
C302 O294 1.265 . S
O303 Tb280 2.479 . S
O303 C290 1.238 . S
O304 Tb280 2.471 . S
O304 C290 1.247 . S
C305 C308 1.380 . S
C305 C309 1.374 . S
C305 C311 1.507 . S
C306 C307 1.387 . S
C306 C310 1.391 . S
C307 C306 1.387 . S
C307 C308 1.384 . S
C307 H316 0.930 . S
C308 C305 1.380 . S
C308 C307 1.384 . S
C308 H317 0.931 . S
C309 C305 1.374 . S
C309 C310 1.390 . S
C309 H318 0.930 1_655 S
C310 C306 1.391 . S
C310 C309 1.390 . S
C310 H319 0.930 . S
C311 Eu281 2.825 1_655 S
C311 O296 1.238 . S
C311 O297 1.247 1_655 S
C311 C305 1.507 . S
H312 C285 0.930 . S
H313 C286 0.931 . S
H314 C287 0.930 . S
H315 C288 0.930 . S
H316 C307 0.930 . S
H317 C308 0.931 . S
H318 C309 0.930 1_455 S
H319 C310 0.930 . S
Tb320 C330 2.825 . S
Tb320 O331 2.347 . S
Tb320 O334 2.366 . S
Tb320 O339 2.418 . S
Tb320 O340 2.384 . S
Tb320 O343 2.479 . S
Tb320 O344 2.471 . S
Eu321 O332 2.418 . S
Eu321 O333 2.384 . S
Eu321 O336 2.479 . S
Eu321 O337 2.471 . S
Eu321 O338 2.347 . S
Eu321 O341 2.366 . S
Eu321 C351 2.825 . S
C322 O338 1.259 . S
C322 O339 1.265 . S
C323 O340 1.255 . S
C323 O341 1.265 . S
C324 C326 1.380 . S
C324 C327 1.374 . S
C324 C330 1.507 . S
C325 C326 1.384 . S
C325 C329 1.387 . S
C325 H352 0.930 . S
C326 C324 1.380 . S
C326 C325 1.384 . S
C326 H353 0.931 . S
C327 C324 1.374 . S
C327 C328 1.390 . S
C327 H354 0.930 . S
C328 C327 1.390 . S
C328 C329 1.391 . S
C328 H355 0.930 . S
C329 C325 1.387 . S
C329 C328 1.391 . S
C330 Tb320 2.825 . S
C330 C324 1.507 . S
C330 O343 1.238 . S
C330 O344 1.247 . S
O331 Tb320 2.347 . S
O331 C335 1.259 . S
O332 Eu321 2.418 . S
O332 C335 1.265 . S
O333 Eu321 2.384 . S
O333 C342 1.255 . S
O334 Tb320 2.366 . S
O334 C342 1.265 . S
C335 O331 1.259 . S
C335 O332 1.265 . S
O336 Eu321 2.479 . S
O336 C351 1.238 . S
O337 Eu321 2.471 . S
O337 C351 1.247 . S
O338 Eu321 2.347 . S
O338 C322 1.259 . S
O339 Tb320 2.418 . S
O339 C322 1.265 . S
O340 Tb320 2.384 . S
O340 C323 1.255 . S
O341 Eu321 2.366 . S
O341 C323 1.265 . S
C342 O333 1.255 . S
C342 O334 1.265 . S
O343 Tb320 2.479 . S
O343 C330 1.238 . S
O344 Tb320 2.471 . S
O344 C330 1.247 . S
C345 C348 1.380 . S
C345 C349 1.374 . S
C345 C351 1.507 . S
C346 C347 1.387 . S
C346 C350 1.391 . S
C347 C346 1.387 . S
C347 C348 1.384 . S
C347 H356 0.930 . S
C348 C345 1.380 . S
C348 C347 1.384 . S
C348 H357 0.931 . S
C349 C345 1.374 . S
C349 C350 1.390 . S
C349 H358 0.930 . S
C350 C346 1.391 . S
C350 C349 1.390 . S
C350 H359 0.930 . S
C351 Eu321 2.825 . S
C351 O336 1.238 . S
C351 O337 1.247 . S
C351 C345 1.507 . S
H352 C325 0.930 . S
H353 C326 0.931 . S
H354 C327 0.930 . S
H355 C328 0.930 . S
H356 C347 0.930 . S
H357 C348 0.931 . S
H358 C349 0.930 . S
H359 C350 0.930 . S
Tb360 C370 2.825 1_445 S
Tb360 O371 2.347 . S
Tb360 O374 2.366 . S
Tb360 O379 2.418 . S
Tb360 O380 2.384 . S
Tb360 O383 2.479 1_455 S
Tb360 O384 2.471 1_545 S
Eu361 O372 2.418 . S
Eu361 O373 2.384 . S
Eu361 O376 2.479 . S
Eu361 O377 2.471 . S
Eu361 O378 2.347 . S
Eu361 O381 2.366 . S
Eu361 C391 2.825 . S
C362 O378 1.259 . S
C362 O379 1.265 . S
C363 O380 1.255 . S
C363 O381 1.265 . S
C364 C366 1.380 . S
C364 C367 1.374 . S
C364 C370 1.507 . S
C365 C366 1.384 . S
C365 C369 1.387 . S
C365 H392 0.930 . S
C366 C364 1.380 . S
C366 C365 1.384 . S
C366 H393 0.931 1_565 S
C367 C364 1.374 . S
C367 C368 1.390 . S
C367 H394 0.930 1_655 S
C368 C367 1.390 . S
C368 C369 1.391 . S
C368 H395 0.930 . S
C369 C365 1.387 . S
C369 C368 1.391 . S
C370 Tb360 2.825 1_665 S
C370 C364 1.507 . S
C370 O383 1.238 1_565 S
C370 O384 1.247 1_655 S
O371 Tb360 2.347 . S
O371 C375 1.259 1_545 S
O372 Eu361 2.418 . S
O372 C375 1.265 1_545 S
O373 Eu361 2.384 . S
O373 C382 1.255 . S
O374 Tb360 2.366 . S
O374 C382 1.265 . S
C375 O371 1.259 1_565 S
C375 O372 1.265 1_565 S
O376 Eu361 2.479 . S
O376 C391 1.238 . S
O377 Eu361 2.471 . S
O377 C391 1.247 . S
O378 Eu361 2.347 . S
O378 C362 1.259 . S
O379 Tb360 2.418 . S
O379 C362 1.265 . S
O380 Tb360 2.384 . S
O380 C363 1.255 . S
O381 Eu361 2.366 . S
O381 C363 1.265 . S
C382 O373 1.255 . S
C382 O374 1.265 . S
O383 Tb360 2.479 1_655 S
O383 C370 1.238 1_545 S
O384 Tb360 2.471 1_565 S
O384 C370 1.247 1_455 S
C385 C388 1.380 . S
C385 C389 1.374 . S
C385 C391 1.507 . S
C386 C387 1.387 . S
C386 C390 1.391 . S
C387 C386 1.387 . S
C387 C388 1.384 . S
C387 H396 0.930 . S
C388 C385 1.380 . S
C388 C387 1.384 . S
C388 H397 0.931 . S
C389 C385 1.374 . S
C389 C390 1.390 . S
C389 H398 0.930 . S
C390 C386 1.391 . S
C390 C389 1.390 . S
C390 H399 0.930 . S
C391 Eu361 2.825 . S
C391 O376 1.238 . S
C391 O377 1.247 . S
C391 C385 1.507 . S
H392 C365 0.930 . S
H393 C366 0.931 1_545 S
H394 C367 0.930 1_455 S
H395 C368 0.930 . S
H396 C387 0.930 . S
H397 C388 0.931 . S
H398 C389 0.930 . S
H399 C390 0.930 . S
Tb400 C410 2.825 . S
Tb400 O411 2.347 . S
Tb400 O414 2.366 . S
Tb400 O419 2.418 . S
Tb400 O420 2.384 . S
Tb400 O423 2.479 . S
Tb400 O424 2.471 . S
Eu401 O412 2.418 . S
Eu401 O413 2.384 . S
Eu401 O416 2.479 . S
Eu401 O417 2.471 . S
Eu401 O418 2.347 . S
Eu401 O421 2.366 . S
Eu401 C431 2.825 . S
C402 O418 1.259 . S
C402 O419 1.265 . S
C403 O420 1.255 . S
C403 O421 1.265 . S
C404 C406 1.380 . S
C404 C407 1.374 . S
C404 C410 1.507 . S
C405 C406 1.384 . S
C405 C409 1.387 . S
C405 H432 0.930 . S
C406 C404 1.380 . S
C406 C405 1.384 . S
C406 H433 0.931 . S
C407 C404 1.374 . S
C407 C408 1.390 . S
C407 H434 0.930 . S
C408 C407 1.390 . S
C408 C409 1.391 . S
C408 H435 0.930 . S
C409 C405 1.387 . S
C409 C408 1.391 . S
C410 Tb400 2.825 . S
C410 C404 1.507 . S
C410 O423 1.238 . S
C410 O424 1.247 . S
O411 Tb400 2.347 . S
O411 C415 1.259 . S
O412 Eu401 2.418 . S
O412 C415 1.265 . S
O413 Eu401 2.384 . S
O413 C422 1.255 . S
O414 Tb400 2.366 . S
O414 C422 1.265 . S
C415 O411 1.259 . S
C415 O412 1.265 . S
O416 Eu401 2.479 . S
O416 C431 1.238 . S
O417 Eu401 2.471 . S
O417 C431 1.247 . S
O418 Eu401 2.347 . S
O418 C402 1.259 . S
O419 Tb400 2.418 . S
O419 C402 1.265 . S
O420 Tb400 2.384 . S
O420 C403 1.255 . S
O421 Eu401 2.366 . S
O421 C403 1.265 . S
C422 O413 1.255 . S
C422 O414 1.265 . S
O423 Tb400 2.479 . S
O423 C410 1.238 . S
O424 Tb400 2.471 . S
O424 C410 1.247 . S
C425 C428 1.380 . S
C425 C429 1.374 . S
C425 C431 1.507 . S
C426 C427 1.387 . S
C426 C430 1.391 . S
C427 C426 1.387 . S
C427 C428 1.384 . S
C427 H436 0.930 . S
C428 C425 1.380 . S
C428 C427 1.384 . S
C428 H437 0.931 . S
C429 C425 1.374 . S
C429 C430 1.390 . S
C429 H438 0.930 . S
C430 C426 1.391 . S
C430 C429 1.390 . S
C430 H439 0.904 1_554 S
C431 Eu401 2.825 . S
C431 O416 1.238 . S
C431 O417 1.247 . S
C431 C425 1.507 . S
H432 C405 0.930 . S
H433 C406 0.931 . S
H434 C407 0.930 . S
H435 C408 0.930 . S
H436 C427 0.930 . S
H437 C428 0.931 . S
H438 C429 0.930 . S
H439 C430 0.904 1_556 S
Tb440 C450 2.825 1_565 S
Tb440 O451 2.347 . S
Tb440 O454 2.366 . S
Tb440 O459 2.418 . S
Tb440 O460 2.384 . S
Tb440 O463 2.479 . S
Tb440 O464 2.471 1_565 S
Eu441 O452 2.418 . S
Eu441 O453 2.384 . S
Eu441 O456 2.479 . S
Eu441 O457 2.471 . S
Eu441 O458 2.347 . S
Eu441 O461 2.366 . S
Eu441 C471 2.825 . S
C442 O458 1.259 . S
C442 O459 1.265 . S
C443 O460 1.255 . S
C443 O461 1.265 . S
C444 C446 1.380 . S
C444 C447 1.374 . S
C444 C450 1.507 . S
C445 C446 1.384 . S
C445 C449 1.387 . S
C445 H472 0.930 . S
C446 C444 1.380 . S
C446 C445 1.384 . S
C446 H473 0.931 1_545 S
C447 C444 1.374 . S
C447 C448 1.390 . S
C447 H474 0.930 . S
C448 C447 1.390 . S
C448 C449 1.391 . S
C448 H475 0.930 . S
C449 C445 1.387 . S
C449 C448 1.391 . S
C450 Tb440 2.825 1_545 S
C450 C444 1.507 . S
C450 O463 1.238 1_545 S
C450 O464 1.247 . S
O451 Tb440 2.347 . S
O451 C455 1.259 1_565 S
O452 Eu441 2.418 . S
O452 C455 1.265 1_565 S
O453 Eu441 2.384 . S
O453 C462 1.255 . S
O454 Tb440 2.366 . S
O454 C462 1.265 . S
C455 O451 1.259 1_545 S
C455 O452 1.265 1_545 S
O456 Eu441 2.479 . S
O456 C471 1.238 . S
O457 Eu441 2.471 . S
O457 C471 1.247 . S
O458 Eu441 2.347 . S
O458 C442 1.259 . S
O459 Tb440 2.418 . S
O459 C442 1.265 . S
O460 Tb440 2.384 . S
O460 C443 1.255 . S
O461 Eu441 2.366 . S
O461 C443 1.265 . S
C462 O453 1.255 . S
C462 O454 1.265 . S
O463 Tb440 2.479 . S
O463 C450 1.238 1_565 S
O464 Tb440 2.471 1_545 S
O464 C450 1.247 . S
C465 C468 1.380 . S
C465 C469 1.374 . S
C465 C471 1.507 . S
C466 C467 1.387 . S
C466 C470 1.391 . S
C467 C466 1.387 . S
C467 C468 1.384 . S
C467 H476 0.930 . S
C468 C465 1.380 . S
C468 C467 1.384 . S
C468 H477 0.931 . S
C469 C465 1.374 . S
C469 C470 1.390 . S
C469 H478 0.930 . S
C470 C466 1.391 . S
C470 C469 1.390 . S
C470 H479 0.930 . S
C471 Eu441 2.825 . S
C471 O456 1.238 . S
C471 O457 1.247 . S
C471 C465 1.507 . S
H472 C445 0.930 . S
H473 C446 0.931 1_565 S
H474 C447 0.930 . S
H475 C448 0.930 . S
H476 C467 0.930 . S
H477 C468 0.931 . S
H478 C469 0.930 . S
H479 C470 0.930 . S
Tb480 C490 2.825 . S
Tb480 O491 2.347 . S
Tb480 O494 2.366 . S
Tb480 O499 2.418 . S
Tb480 O500 2.384 . S
Tb480 O503 2.479 . S
Tb480 O504 2.471 . S
Eu481 O492 2.418 . S
Eu481 O493 2.384 . S
Eu481 O496 2.479 . S
Eu481 O497 2.471 . S
Eu481 O498 2.347 . S
Eu481 O501 2.366 . S
Eu481 C511 2.825 . S
C482 O498 1.259 . S
C482 O499 1.265 . S
C483 O500 1.255 . S
C483 O501 1.265 . S
C484 C486 1.380 . S
C484 C487 1.374 . S
C484 C490 1.507 . S
C485 C486 1.384 . S
C485 C489 1.387 . S
C485 H512 0.930 . S
C486 C484 1.380 . S
C486 C485 1.384 . S
C486 H513 0.931 . S
C487 C484 1.374 . S
C487 C488 1.390 . S
C487 H514 0.930 . S
C488 C487 1.390 . S
C488 C489 1.391 . S
C488 H515 0.930 . S
C489 C485 1.387 . S
C489 C488 1.391 . S
C490 Tb480 2.825 . S
C490 C484 1.507 . S
C490 O503 1.238 . S
C490 O504 1.247 . S
O491 Tb480 2.347 . S
O491 C495 1.259 . S
O492 Eu481 2.418 . S
O492 C495 1.265 . S
O493 Eu481 2.384 . S
O493 C502 1.255 . S
O494 Tb480 2.366 . S
O494 C502 1.265 . S
C495 O491 1.259 . S
C495 O492 1.265 . S
O496 Eu481 2.479 . S
O496 C511 1.238 . S
O497 Eu481 2.471 . S
O497 C511 1.247 . S
O498 Eu481 2.347 . S
O498 C482 1.259 . S
O499 Tb480 2.418 . S
O499 C482 1.265 . S
O500 Tb480 2.384 . S
O500 C483 1.255 . S
O501 Eu481 2.366 . S
O501 C483 1.265 . S
C502 O493 1.255 . S
C502 O494 1.265 . S
O503 Tb480 2.479 . S
O503 C490 1.238 . S
O504 Tb480 2.471 . S
O504 C490 1.247 . S
C505 C508 1.380 . S
C505 C509 1.374 . S
C505 C511 1.507 . S
C506 C507 1.387 . S
C506 C510 1.391 . S
C507 C506 1.387 . S
C507 C508 1.384 . S
C507 H516 0.930 . S
C508 C505 1.380 . S
C508 C507 1.384 . S
C508 H517 0.931 . S
C509 C505 1.374 . S
C509 C510 1.390 . S
C509 H518 0.930 . S
C510 C506 1.391 . S
C510 C509 1.390 . S
C510 H519 0.930 . S
C511 Eu481 2.825 . S
C511 O496 1.238 . S
C511 O497 1.247 . S
C511 C505 1.507 . S
H512 C485 0.930 . S
H513 C486 0.931 . S
H514 C487 0.930 . S
H515 C488 0.930 . S
H516 C507 0.930 . S
H517 C508 0.931 . S
H518 C509 0.930 . S
H519 C510 0.930 . S
Tb520 C530 2.825 . S
Tb520 O531 2.347 . S
Tb520 O534 2.366 . S
Tb520 O539 2.418 . S
Tb520 O540 2.384 . S
Tb520 O543 2.479 . S
Tb520 O544 2.471 . S
Eu521 O532 2.418 . S
Eu521 O533 2.384 . S
Eu521 O536 2.479 1_655 S
Eu521 O537 2.471 1_565 S
Eu521 O538 2.347 . S
Eu521 O541 2.366 . S
Eu521 C551 2.825 1_665 S
C522 O538 1.259 1_545 S
C522 O539 1.265 1_545 S
C523 O540 1.255 . S
C523 O541 1.265 . S
C524 C526 1.380 . S
C524 C527 1.374 . S
C524 C530 1.507 . S
C525 C526 1.384 . S
C525 C529 1.387 . S
C525 H552 0.930 . S
C526 C524 1.380 . S
C526 C525 1.384 . S
C526 H553 0.931 . S
C527 C524 1.374 . S
C527 C528 1.390 . S
C527 H554 0.930 . S
C528 C527 1.390 . S
C528 C529 1.391 . S
C528 H555 0.930 . S
C529 C525 1.387 . S
C529 C528 1.391 . S
C530 Tb520 2.825 . S
C530 C524 1.507 . S
C530 O543 1.238 . S
C530 O544 1.247 . S
O531 Tb520 2.347 . S
O531 C535 1.259 . S
O532 Eu521 2.418 . S
O532 C535 1.265 . S
O533 Eu521 2.384 . S
O533 C542 1.255 . S
O534 Tb520 2.366 . S
O534 C542 1.265 . S
C535 O531 1.259 . S
C535 O532 1.265 . S
O536 Eu521 2.479 1_455 S
O536 C551 1.238 1_565 S
O537 Eu521 2.471 1_545 S
O537 C551 1.247 1_655 S
O538 Eu521 2.347 . S
O538 C522 1.259 1_565 S
O539 Tb520 2.418 . S
O539 C522 1.265 1_565 S
O540 Tb520 2.384 . S
O540 C523 1.255 . S
O541 Eu521 2.366 . S
O541 C523 1.265 . S
C542 O533 1.255 . S
C542 O534 1.265 . S
O543 Tb520 2.479 . S
O543 C530 1.238 . S
O544 Tb520 2.471 . S
O544 C530 1.247 . S
C545 C548 1.380 . S
C545 C549 1.374 . S
C545 C551 1.507 . S
C546 C547 1.387 . S
C546 C550 1.391 . S
C547 C546 1.387 . S
C547 C548 1.384 . S
C547 H556 0.930 . S
C548 C545 1.380 . S
C548 C547 1.384 . S
C548 H557 0.931 1_545 S
C549 C545 1.374 . S
C549 C550 1.390 . S
C549 H558 0.930 1_455 S
C550 C546 1.391 . S
C550 C549 1.390 . S
C550 H559 0.930 . S
C551 Eu521 2.825 1_445 S
C551 O536 1.238 1_545 S
C551 O537 1.247 1_455 S
C551 C545 1.507 . S
H552 C525 0.930 . S
H553 C526 0.931 . S
H554 C527 0.930 . S
H555 C528 0.930 . S
H556 C547 0.930 . S
H557 C548 0.931 1_565 S
H558 C549 0.930 1_655 S
H559 C550 0.930 . S
Tb560 C570 2.825 . S
Tb560 O571 2.347 . S
Tb560 O574 2.366 . S
Tb560 O579 2.418 . S
Tb560 O580 2.384 . S
Tb560 O583 2.479 . S
Tb560 O584 2.471 . S
Eu561 O572 2.418 . S
Eu561 O573 2.384 . S
Eu561 O576 2.479 . S
Eu561 O577 2.471 . S
Eu561 O578 2.347 . S
Eu561 O581 2.366 . S
Eu561 C591 2.825 . S
C562 O578 1.259 . S
C562 O579 1.265 . S
C563 O580 1.255 . S
C563 O581 1.265 . S
C564 C566 1.380 . S
C564 C567 1.374 . S
C564 C570 1.507 . S
C565 C566 1.384 . S
C565 C569 1.387 . S
C565 H592 0.930 . S
C566 C564 1.380 . S
C566 C565 1.384 . S
C566 H593 0.931 . S
C567 C564 1.374 . S
C567 C568 1.390 . S
C567 H594 0.930 . S
C568 C567 1.390 . S
C568 C569 1.391 . S
C568 H595 0.904 1_556 S
C569 C565 1.387 . S
C569 C568 1.391 . S
C570 Tb560 2.825 . S
C570 C564 1.507 . S
C570 O583 1.238 . S
C570 O584 1.247 . S
O571 Tb560 2.347 . S
O571 C575 1.259 . S
O572 Eu561 2.418 . S
O572 C575 1.265 . S
O573 Eu561 2.384 . S
O573 C582 1.255 . S
O574 Tb560 2.366 . S
O574 C582 1.265 . S
C575 O571 1.259 . S
C575 O572 1.265 . S
O576 Eu561 2.479 . S
O576 C591 1.238 . S
O577 Eu561 2.471 . S
O577 C591 1.247 . S
O578 Eu561 2.347 . S
O578 C562 1.259 . S
O579 Tb560 2.418 . S
O579 C562 1.265 . S
O580 Tb560 2.384 . S
O580 C563 1.255 . S
O581 Eu561 2.366 . S
O581 C563 1.265 . S
C582 O573 1.255 . S
C582 O574 1.265 . S
O583 Tb560 2.479 . S
O583 C570 1.238 . S
O584 Tb560 2.471 . S
O584 C570 1.247 . S
C585 C588 1.380 . S
C585 C589 1.374 . S
C585 C591 1.507 . S
C586 C587 1.387 . S
C586 C590 1.391 . S
C587 C586 1.387 . S
C587 C588 1.384 . S
C587 H596 0.930 . S
C588 C585 1.380 . S
C588 C587 1.384 . S
C588 H597 0.931 . S
C589 C585 1.374 . S
C589 C590 1.390 . S
C589 H598 0.930 . S
C590 C586 1.391 . S
C590 C589 1.390 . S
C590 H599 0.930 . S
C591 Eu561 2.825 . S
C591 O576 1.238 . S
C591 O577 1.247 . S
C591 C585 1.507 . S
H592 C565 0.930 . S
H593 C566 0.931 . S
H594 C567 0.930 . S
H595 C568 0.904 1_554 S
H596 C587 0.930 . S
H597 C588 0.931 . S
H598 C589 0.930 . S
H599 C590 0.930 . S
Tb600 C610 2.825 . S
Tb600 O611 2.347 . S
Tb600 O614 2.366 . S
Tb600 O619 2.418 . S
Tb600 O620 2.384 . S
Tb600 O623 2.479 . S
Tb600 O624 2.471 . S
Eu601 O612 2.418 . S
Eu601 O613 2.384 . S
Eu601 O616 2.479 . S
Eu601 O617 2.471 1_545 S
Eu601 O618 2.347 . S
Eu601 O621 2.366 . S
Eu601 C631 2.825 1_545 S
C602 O618 1.259 1_565 S
C602 O619 1.265 1_565 S
C603 O620 1.255 . S
C603 O621 1.265 . S
C604 C606 1.380 . S
C604 C607 1.374 . S
C604 C610 1.507 . S
C605 C606 1.384 . S
C605 C609 1.387 . S
C605 H632 0.930 . S
C606 C604 1.380 . S
C606 C605 1.384 . S
C606 H633 0.931 . S
C607 C604 1.374 . S
C607 C608 1.390 . S
C607 H634 0.930 . S
C608 C607 1.390 . S
C608 C609 1.391 . S
C608 H635 0.930 . S
C609 C605 1.387 . S
C609 C608 1.391 . S
C610 Tb600 2.825 . S
C610 C604 1.507 . S
C610 O623 1.238 . S
C610 O624 1.247 . S
O611 Tb600 2.347 . S
O611 C615 1.259 . S
O612 Eu601 2.418 . S
O612 C615 1.265 . S
O613 Eu601 2.384 . S
O613 C622 1.255 . S
O614 Tb600 2.366 . S
O614 C622 1.265 . S
C615 O611 1.259 . S
C615 O612 1.265 . S
O616 Eu601 2.479 . S
O616 C631 1.238 1_545 S
O617 Eu601 2.471 1_565 S
O617 C631 1.247 . S
O618 Eu601 2.347 . S
O618 C602 1.259 1_545 S
O619 Tb600 2.418 . S
O619 C602 1.265 1_545 S
O620 Tb600 2.384 . S
O620 C603 1.255 . S
O621 Eu601 2.366 . S
O621 C603 1.265 . S
C622 O613 1.255 . S
C622 O614 1.265 . S
O623 Tb600 2.479 . S
O623 C610 1.238 . S
O624 Tb600 2.471 . S
O624 C610 1.247 . S
C625 C628 1.380 . S
C625 C629 1.374 . S
C625 C631 1.507 . S
C626 C627 1.387 . S
C626 C630 1.391 . S
C627 C626 1.387 . S
C627 C628 1.384 . S
C627 H636 0.930 . S
C628 C625 1.380 . S
C628 C627 1.384 . S
C628 H637 0.931 1_565 S
C629 C625 1.374 . S
C629 C630 1.390 . S
C629 H638 0.930 . S
C630 C626 1.391 . S
C630 C629 1.390 . S
C630 H639 0.930 . S
C631 Eu601 2.825 1_565 S
C631 O616 1.238 1_565 S
C631 O617 1.247 . S
C631 C625 1.507 . S
H632 C605 0.930 . S
H633 C606 0.931 . S
H634 C607 0.930 . S
H635 C608 0.930 . S
H636 C627 0.930 . S
H637 C628 0.931 1_545 S
H638 C629 0.930 . S
H639 C630 0.930 . S
C640 C641 1.387 . S
C640 H644 0.950 . S
C640 C649 1.390 . S
C641 C640 1.387 . S
C641 C643 1.387 . S
H642 C649 0.950 . S
C643 C641 1.387 . S
C643 C645 1.390 . S
C643 H647 0.950 . S
H644 C640 0.950 . S
C645 C643 1.390 . S
C645 C646 1.387 . S
C645 H648 0.950 . S
C646 C645 1.387 . S
C646 C649 1.387 . S
H647 C643 0.950 . S
H648 C645 0.950 . S
C649 C640 1.390 . S
C649 H642 0.950 . S
C649 C646 1.387 . S
C650 C651 1.387 . S
C650 H654 0.950 . S
C650 C659 1.390 . S
C651 C650 1.387 . S
C651 C653 1.387 . S
H652 C659 0.950 . S
C653 C651 1.387 . S
C653 C655 1.390 . S
C653 H657 0.950 . S
H654 C650 0.950 . S
C655 C653 1.390 . S
C655 C656 1.387 . S
C655 H658 0.950 . S
C656 C655 1.387 . S
C656 C659 1.387 . S
H657 C653 0.950 . S
H658 C655 0.950 . S
C659 C650 1.390 . S
C659 H652 0.950 . S
C659 C656 1.387 . S
C660 C661 1.387 . S
C660 H664 0.950 . S
C660 C669 1.390 1_455 S
C661 C660 1.387 . S
C661 C663 1.387 . S
H662 C669 0.950 . S
C663 C661 1.387 . S
C663 C665 1.390 1_455 S
C663 H667 0.950 . S
H664 C660 0.950 . S
C665 C663 1.390 1_655 S
C665 C666 1.387 . S
C665 H668 0.950 . S
C666 C665 1.387 . S
C666 C669 1.387 . S
H667 C663 0.950 . S
H668 C665 0.950 . S
C669 C660 1.390 1_655 S
C669 H662 0.950 . S
C669 C666 1.387 . S
C670 C671 1.387 . S
C670 H674 0.950 . S
C670 C679 1.390 1_455 S
C671 C670 1.387 . S
C671 C673 1.387 . S
H672 C679 0.950 . S
C673 C671 1.387 . S
C673 C675 1.390 1_455 S
C673 H677 0.950 . S
H674 C670 0.950 . S
C675 C673 1.390 1_655 S
C675 C676 1.387 . S
C675 H678 0.950 . S
C676 C675 1.387 . S
C676 C679 1.387 . S
H677 C673 0.950 . S
H678 C675 0.950 . S
C679 C670 1.390 1_655 S
C679 H672 0.950 . S
C679 C676 1.387 . S
C680 C681 1.387 . S
C680 H684 0.950 . S
C680 C689 1.390 . S
C681 C680 1.387 . S
C681 C683 1.387 . S
H682 C689 0.950 . S
C683 C681 1.387 . S
C683 C685 1.390 . S
C683 H687 0.950 . S
H684 C680 0.950 . S
C685 C683 1.390 . S
C685 C686 1.387 . S
C685 H688 0.950 . S
C686 C685 1.387 . S
C686 C689 1.387 . S
H687 C683 0.950 . S
H688 C685 0.950 . S
C689 C680 1.390 . S
C689 H682 0.950 . S
C689 C686 1.387 . S
C690 C691 1.387 . S
C690 H694 0.950 . S
C690 C699 1.390 . S
C691 C690 1.387 . S
C691 C693 1.387 . S
H692 C699 0.950 . S
C693 C691 1.387 . S
C693 C695 1.390 . S
C693 H697 0.950 . S
H694 C690 0.950 . S
C695 C693 1.390 . S
C695 C696 1.387 . S
C695 H698 0.950 . S
C696 C695 1.387 . S
C696 C699 1.387 . S
H697 C693 0.950 . S
H698 C695 0.950 . S
C699 C690 1.390 . S
C699 H692 0.950 . S
C699 C696 1.387 . S
C700 C701 1.387 . S
C700 H704 0.950 . S
C700 C709 1.390 1_455 S
C701 C700 1.387 . S
C701 C703 1.387 . S
H702 C709 0.950 . S
C703 C701 1.387 . S
C703 C705 1.390 1_455 S
C703 H707 0.950 . S
H704 C700 0.950 . S
C705 C703 1.390 1_655 S
C705 C706 1.387 . S
C705 H708 0.950 . S
C706 C705 1.387 . S
C706 C709 1.387 . S
H707 C703 0.950 . S
H708 C705 0.950 . S
C709 C700 1.390 1_655 S
C709 H702 0.950 . S
C709 C706 1.387 . S
C710 C711 1.387 . S
C710 H714 0.950 . S
C710 C719 1.390 1_455 S
C711 C710 1.387 . S
C711 C713 1.387 . S
H712 C719 0.950 . S
C713 C711 1.387 . S
C713 C715 1.390 1_455 S
C713 H717 0.950 . S
H714 C710 0.950 . S
C715 C713 1.390 1_655 S
C715 C716 1.387 . S
C715 H718 0.950 . S
C716 C715 1.387 . S
C716 C719 1.387 . S
H717 C713 0.950 . S
H718 C715 0.950 . S
C719 C710 1.390 1_655 S
C719 H712 0.950 . S
C719 C716 1.387 . S
C720 C721 1.387 . S
C720 H724 0.950 . S
C720 C729 1.390 1_565 S
C721 C720 1.387 . S
C721 C723 1.387 1_556 S
H722 C729 0.950 . S
C723 C721 1.387 1_554 S
C723 C725 1.390 1_565 S
C723 H727 0.950 . S
H724 C720 0.950 . S
C725 C723 1.390 1_545 S
C725 C726 1.387 . S
C725 H728 0.950 . S
C726 C725 1.387 . S
C726 C729 1.387 1_554 S
H727 C723 0.950 . S
H728 C725 0.950 . S
C729 C720 1.390 1_545 S
C729 H722 0.950 . S
C729 C726 1.387 1_556 S
C730 C731 1.387 . S
C730 H734 0.950 . S
C730 C739 1.390 . S
C731 C730 1.387 . S
C731 C733 1.387 . S
H732 C739 0.950 . S
C733 C731 1.387 . S
C733 C735 1.390 . S
C733 H737 0.950 . S
H734 C730 0.950 . S
C735 C733 1.390 . S
C735 C736 1.387 . S
C735 H738 0.950 . S
C736 C735 1.387 . S
C736 C739 1.387 . S
H737 C733 0.950 . S
H738 C735 0.950 . S
C739 C730 1.390 . S
C739 H732 0.950 . S
C739 C736 1.387 . S
C740 C741 1.387 . S
C740 H744 0.950 . S
C740 C749 1.390 1_445 S
C741 C740 1.387 . S
C741 C743 1.387 . S
H742 C749 0.950 . S
C743 C741 1.387 . S
C743 C745 1.390 1_445 S
C743 H747 0.950 . S
H744 C740 0.950 . S
C745 C743 1.390 1_665 S
C745 C746 1.387 . S
C745 H748 0.950 . S
C746 C745 1.387 . S
C746 C749 1.387 . S
H747 C743 0.950 . S
H748 C745 0.950 . S
C749 C740 1.390 1_665 S
C749 H742 0.950 . S
C749 C746 1.387 . S
C750 C751 1.387 . S
C750 H754 0.950 . S
C750 C759 1.390 . S
C751 C750 1.387 . S
C751 C753 1.387 . S
H752 C759 0.950 . S
C753 C751 1.387 . S
C753 C755 1.390 . S
C753 H757 0.950 . S
H754 C750 0.950 . S
C755 C753 1.390 . S
C755 C756 1.387 . S
C755 H758 0.950 . S
C756 C755 1.387 . S
C756 C759 1.387 . S
H757 C753 0.950 . S
H758 C755 0.950 . S
C759 C750 1.390 . S
C759 H752 0.950 . S
C759 C756 1.387 . S
C760 C761 1.387 . S
C760 H764 0.950 . S
C760 C769 1.390 . S
C761 C760 1.387 . S
C761 C763 1.387 . S
H762 C769 0.950 . S
C763 C761 1.387 . S
C763 C765 1.390 . S
C763 H767 0.950 . S
H764 C760 0.950 . S
C765 C763 1.390 . S
C765 C766 1.387 . S
C765 H768 0.950 . S
C766 C765 1.387 . S
C766 C769 1.387 . S
H767 C763 0.950 . S
H768 C765 0.950 . S
C769 C760 1.390 . S
C769 H762 0.950 . S
C769 C766 1.387 . S
C770 C771 1.387 . S
C770 H774 0.950 . S
C770 C779 1.390 . S
C771 C770 1.387 . S
C771 C773 1.387 . S
H772 C779 0.950 . S
C773 C771 1.387 . S
C773 C775 1.390 . S
C773 H777 0.950 . S
H774 C770 0.950 . S
C775 C773 1.390 . S
C775 C776 1.387 . S
C775 H778 0.950 . S
C776 C775 1.387 . S
C776 C779 1.387 . S
H777 C773 0.950 . S
H778 C775 0.950 . S
C779 C770 1.390 . S
C779 H772 0.950 . S
C779 C776 1.387 . S
C780 C781 1.387 . S
C780 H784 0.950 . S
C780 C789 1.390 1_455 S
C781 C780 1.387 . S
C781 C783 1.387 . S
H782 C789 0.950 . S
C783 C781 1.387 . S
C783 C785 1.390 1_455 S
C783 H787 0.950 . S
H784 C780 0.950 . S
C785 C783 1.390 1_655 S
C785 C786 1.387 . S
C785 H788 0.950 . S
C786 C785 1.387 . S
C786 C789 1.387 . S
H787 C783 0.950 . S
H788 C785 0.950 . S
C789 C780 1.390 1_655 S
C789 H782 0.950 . S
C789 C786 1.387 . S
C790 C791 1.387 1_554 S
C790 H794 0.950 . S
C790 C799 1.390 . S
C791 C790 1.387 1_556 S
C791 C793 1.387 . S
H792 C799 0.950 . S
C793 C791 1.387 . S
C793 C795 1.390 . S
C793 H797 0.950 . S
H794 C790 0.950 . S
C795 C793 1.390 . S
C795 C796 1.387 1_556 S
C795 H798 0.950 . S
C796 C795 1.387 1_554 S
C796 C799 1.387 . S
H797 C793 0.950 . S
H798 C795 0.950 . S
C799 C790 1.390 . S
C799 H792 0.950 . S
C799 C796 1.387 . S
C800 C801 1.387 . S
C800 H804 0.950 . S
C800 C809 1.390 . S
C801 C800 1.387 . S
C801 C803 1.387 . S
H802 C809 0.950 . S
C803 C801 1.387 . S
C803 C805 1.390 . S
C803 H807 0.950 . S
H804 C800 0.950 . S
C805 C803 1.390 . S
C805 C806 1.387 . S
C805 H808 0.950 . S
C806 C805 1.387 . S
C806 C809 1.387 . S
H807 C803 0.950 . S
H808 C805 0.950 . S
C809 C800 1.390 . S
C809 H802 0.950 . S
C809 C806 1.387 . S
C810 C811 1.387 . S
C810 H814 0.950 . S
C810 C819 1.390 . S
C811 C810 1.387 . S
C811 C813 1.387 . S
H812 C819 0.950 . S
C813 C811 1.387 . S
C813 C815 1.390 . S
C813 H817 0.950 . S
H814 C810 0.950 . S
C815 C813 1.390 . S
C815 C816 1.387 . S
C815 H818 0.950 . S
C816 C815 1.387 . S
C816 C819 1.387 . S
H817 C813 0.950 . S
H818 C815 0.950 . S
C819 C810 1.390 . S
C819 H812 0.950 . S
C819 C816 1.387 . S
C820 C821 1.387 . S
C820 H824 0.950 . S
C820 C829 1.390 . S
C821 C820 1.387 . S
C821 C823 1.387 . S
H822 C829 0.950 . S
C823 C821 1.387 . S
C823 C825 1.390 . S
C823 H827 0.950 . S
H824 C820 0.950 . S
C825 C823 1.390 . S
C825 C826 1.387 . S
C825 H828 0.950 . S
C826 C825 1.387 . S
C826 C829 1.387 . S
H827 C823 0.950 . S
H828 C825 0.950 . S
C829 C820 1.390 . S
C829 H822 0.950 . S
C829 C826 1.387 . S
C830 C831 1.387 . S
C830 H834 0.950 . S
C830 C839 1.390 . S
C831 C830 1.387 . S
C831 C833 1.387 . S
H832 C839 0.950 . S
C833 C831 1.387 . S
C833 C835 1.390 . S
C833 H837 0.950 . S
H834 C830 0.950 . S
C835 C833 1.390 . S
C835 C836 1.387 . S
C835 H838 0.950 . S
C836 C835 1.387 . S
C836 C839 1.387 . S
H837 C833 0.950 . S
H838 C835 0.950 . S
C839 C830 1.390 . S
C839 H832 0.950 . S
C839 C836 1.387 . S
C840 C841 1.387 . S
C840 H844 0.950 . S
C840 C849 1.390 . S
C841 C840 1.387 . S
C841 C843 1.387 . S
H842 C849 0.950 . S
C843 C841 1.387 . S
C843 C845 1.390 . S
C843 H847 0.950 . S
H844 C840 0.950 . S
C845 C843 1.390 . S
C845 C846 1.387 . S
C845 H848 0.950 . S
C846 C845 1.387 . S
C846 C849 1.387 . S
H847 C843 0.950 . S
H848 C845 0.950 . S
C849 C840 1.390 . S
C849 H842 0.950 . S
C849 C846 1.387 . S
C850 C851 1.387 . S
C850 H854 0.950 . S
C850 C859 1.390 . S
C851 C850 1.387 . S
C851 C853 1.387 . S
H852 C859 0.950 . S
C853 C851 1.387 . S
C853 C855 1.390 . S
C853 H857 0.950 . S
H854 C850 0.950 . S
C855 C853 1.390 . S
C855 C856 1.387 . S
C855 H858 0.950 . S
C856 C855 1.387 . S
C856 C859 1.387 . S
H857 C853 0.950 . S
H858 C855 0.950 . S
C859 C850 1.390 . S
C859 H852 0.950 . S
C859 C856 1.387 . S
C860 C861 1.387 . S
C860 H864 0.950 . S
C860 C869 1.390 . S
C861 C860 1.387 . S
C861 C863 1.387 . S
H862 C869 0.950 . S
C863 C861 1.387 . S
C863 C865 1.390 . S
C863 H867 0.950 . S
H864 C860 0.950 . S
C865 C863 1.390 . S
C865 C866 1.387 . S
C865 H868 0.950 . S
C866 C865 1.387 . S
C866 C869 1.387 . S
H867 C863 0.950 . S
H868 C865 0.950 . S
C869 C860 1.390 . S
C869 H862 0.950 . S
C869 C866 1.387 . S
C870 C871 1.387 . S
C870 H874 0.950 . S
C870 C879 1.390 . S
C871 C870 1.387 . S
C871 C873 1.387 . S
H872 C879 0.950 . S
C873 C871 1.387 . S
C873 C875 1.390 . S
C873 H877 0.950 . S
H874 C870 0.950 . S
C875 C873 1.390 . S
C875 C876 1.387 . S
C875 H878 0.950 . S
C876 C875 1.387 . S
C876 C879 1.387 . S
H877 C873 0.950 . S
H878 C875 0.950 . S
C879 C870 1.390 . S
C879 H872 0.950 . S
C879 C876 1.387 . S
C880 C881 1.387 . S
C880 H884 0.950 . S
C880 C889 1.390 . S
C881 C880 1.387 . S
C881 C883 1.387 . S
H882 C889 0.950 . S
C883 C881 1.387 . S
C883 C885 1.390 . S
C883 H887 0.950 . S
H884 C880 0.950 . S
C885 C883 1.390 . S
C885 C886 1.387 . S
C885 H888 0.950 . S
C886 C885 1.387 . S
C886 C889 1.387 . S
H887 C883 0.950 . S
H888 C885 0.950 . S
C889 C880 1.390 . S
C889 H882 0.950 . S
C889 C886 1.387 . S
C890 C891 1.387 . S
C890 H894 0.950 . S
C890 C899 1.390 . S
C891 C890 1.387 . S
C891 C893 1.387 . S
H892 C899 0.950 . S
C893 C891 1.387 . S
C893 C895 1.390 . S
C893 H897 0.950 . S
H894 C890 0.950 . S
C895 C893 1.390 . S
C895 C896 1.387 . S
C895 H898 0.950 . S
C896 C895 1.387 . S
C896 C899 1.387 . S
H897 C893 0.950 . S
H898 C895 0.950 . S
C899 C890 1.390 . S
C899 H892 0.950 . S
C899 C896 1.387 . S
C900 C901 1.387 . S
C900 H904 0.950 . S
C900 C909 1.390 . S
C901 C900 1.387 . S
C901 C903 1.387 . S
H902 C909 0.950 . S
C903 C901 1.387 . S
C903 C905 1.390 . S
C903 H907 0.950 . S
H904 C900 0.950 . S
C905 C903 1.390 . S
C905 C906 1.387 . S
C905 H908 0.950 . S
C906 C905 1.387 . S
C906 C909 1.387 . S
H907 C903 0.950 . S
H908 C905 0.950 . S
C909 C900 1.390 . S
C909 H902 0.950 . S
C909 C906 1.387 . S
C910 C911 1.387 . S
C910 H914 0.950 . S
C910 C919 1.390 . S
C911 C910 1.387 . S
C911 C913 1.387 . S
H912 C919 0.950 . S
C913 C911 1.387 . S
C913 C915 1.390 . S
C913 H917 0.950 . S
H914 C910 0.950 . S
C915 C913 1.390 . S
C915 C916 1.387 . S
C915 H918 0.950 . S
C916 C915 1.387 . S
C916 C919 1.387 . S
H917 C913 0.950 . S
H918 C915 0.950 . S
C919 C910 1.390 . S
C919 H912 0.950 . S
C919 C916 1.387 . S
C920 C921 1.387 . S
C920 H924 0.950 . S
C920 C929 1.390 . S
C921 C920 1.387 . S
C921 C923 1.387 . S
H922 C929 0.950 . S
C923 C921 1.387 . S
C923 C925 1.390 . S
C923 H927 0.950 . S
H924 C920 0.950 . S
C925 C923 1.390 . S
C925 C926 1.387 . S
C925 H928 0.950 . S
C926 C925 1.387 . S
C926 C929 1.387 . S
H927 C923 0.950 . S
H928 C925 0.950 . S
C929 C920 1.390 . S
C929 H922 0.950 . S
C929 C926 1.387 . S
C930 C931 1.387 . S
C930 H934 0.950 . S
C930 C939 1.390 . S
C931 C930 1.387 . S
C931 C933 1.387 . S
H932 C939 0.950 . S
C933 C931 1.387 . S
C933 C935 1.390 . S
C933 H937 0.950 . S
H934 C930 0.950 . S
C935 C933 1.390 . S
C935 C936 1.387 . S
C935 H938 0.950 . S
C936 C935 1.387 . S
C936 C939 1.387 . S
H937 C933 0.950 . S
H938 C935 0.950 . S
C939 C930 1.390 . S
C939 H932 0.950 . S
C939 C936 1.387 . S
C940 C941 1.387 . S
C940 H944 0.950 . S
C940 C949 1.390 . S
C941 C940 1.387 . S
C941 C943 1.387 . S
H942 C949 0.950 . S
C943 C941 1.387 . S
C943 C945 1.390 . S
C943 H947 0.950 . S
H944 C940 0.950 . S
C945 C943 1.390 . S
C945 C946 1.387 . S
C945 H948 0.950 . S
C946 C945 1.387 . S
C946 C949 1.387 . S
H947 C943 0.950 . S
H948 C945 0.950 . S
C949 C940 1.390 . S
C949 H942 0.950 . S
C949 C946 1.387 . S
C950 C951 1.387 . S
C950 H954 0.950 . S
C950 C959 1.390 . S
C951 C950 1.387 . S
C951 C953 1.387 . S
H952 C959 0.950 . S
C953 C951 1.387 . S
C953 C955 1.390 . S
C953 H957 0.950 . S
H954 C950 0.950 . S
C955 C953 1.390 . S
C955 C956 1.387 . S
C955 H958 0.950 . S
C956 C955 1.387 . S
C956 C959 1.387 . S
H957 C953 0.950 . S
H958 C955 0.950 . S
C959 C950 1.390 . S
C959 H952 0.950 . S
C959 C956 1.387 . S
C960 C961 1.387 . S
C960 H964 0.950 . S
C960 C969 1.390 . S
C961 C960 1.387 . S
C961 C963 1.387 . S
H962 C969 0.950 . S
C963 C961 1.387 . S
C963 C965 1.390 . S
C963 H967 0.950 1_556 S
H964 C960 0.950 . S
C965 C963 1.390 . S
C965 C966 1.387 . S
C965 H968 0.950 . S
C966 C965 1.387 . S
C966 C969 1.387 . S
H967 C963 0.950 1_554 S
H968 C965 0.950 . S
C969 C960 1.390 . S
C969 H962 0.950 . S
C969 C966 1.387 . S
C970 C971 1.387 . S
C970 H974 0.950 . S
C970 C979 1.390 . S
C971 C970 1.387 . S
C971 C973 1.387 . S
H972 C979 0.950 . S
C973 C971 1.387 . S
C973 C975 1.390 . S
C973 H977 0.950 . S
H974 C970 0.950 . S
C975 C973 1.390 . S
C975 C976 1.387 . S
C975 H978 0.950 . S
C976 C975 1.387 . S
C976 C979 1.387 . S
H977 C973 0.950 . S
H978 C975 0.950 . S
C979 C970 1.390 . S
C979 H972 0.950 . S
C979 C976 1.387 . S
C980 C981 1.387 . S
C980 H984 0.950 . S
C980 C989 1.390 . S
C981 C980 1.387 . S
C981 C983 1.387 . S
H982 C989 0.950 . S
C983 C981 1.387 . S
C983 C985 1.390 . S
C983 H987 0.950 . S
H984 C980 0.950 . S
C985 C983 1.390 . S
C985 C986 1.387 . S
C985 H988 0.950 . S
C986 C985 1.387 . S
C986 C989 1.387 . S
H987 C983 0.950 . S
H988 C985 0.950 . S
C989 C980 1.390 . S
C989 H982 0.950 . S
C989 C986 1.387 . S
C990 C991 1.387 . S
C990 H994 0.950 . S
C990 C999 1.390 . S
C991 C990 1.387 . S
C991 C993 1.387 . S
H992 C999 0.950 . S
C993 C991 1.387 . S
C993 C995 1.390 . S
C993 H997 0.950 . S
H994 C990 0.950 . S
C995 C993 1.390 . S
C995 C996 1.387 . S
C995 H998 0.950 . S
C996 C995 1.387 . S
C996 C999 1.387 . S
H997 C993 0.950 . S
H998 C995 0.950 . S
C999 C990 1.390 . S
C999 H992 0.950 . S
C999 C996 1.387 . S
C1000 C1001 1.387 . S
C1000 H1004 0.950 . S
C1000 C1009 1.390 . S
C1001 C1000 1.387 . S
C1001 C1003 1.387 . S
H1002 C1009 0.950 . S
C1003 C1001 1.387 . S
C1003 C1005 1.390 . S
C1003 H1007 0.950 . S
H1004 C1000 0.950 . S
C1005 C1003 1.390 . S
C1005 C1006 1.387 . S
C1005 H1008 0.951 . S
C1006 C1005 1.387 . S
C1006 C1009 1.387 . S
H1007 C1003 0.950 . S
H1008 C1005 0.951 . S
C1009 C1000 1.390 . S
C1009 H1002 0.950 . S
C1009 C1006 1.387 . S
C1010 C1011 1.387 . S
C1010 H1014 0.950 . S
C1010 C1019 1.390 . S
C1011 C1010 1.387 . S
C1011 C1013 1.387 . S
H1012 C1019 0.950 . S
C1013 C1011 1.387 . S
C1013 C1015 1.390 . S
C1013 H1017 0.950 . S
H1014 C1010 0.950 . S
C1015 C1013 1.390 . S
C1015 C1016 1.387 . S
C1015 H1018 0.950 . S
C1016 C1015 1.387 . S
C1016 C1019 1.387 . S
H1017 C1013 0.950 . S
H1018 C1015 0.950 . S
C1019 C1010 1.390 . S
C1019 H1012 0.950 . S
C1019 C1016 1.387 . S
C1020 C1021 1.387 . S
C1020 H1024 0.950 . S
C1020 C1029 1.390 . S
C1021 C1020 1.387 . S
C1021 C1023 1.387 . S
H1022 C1029 0.950 . S
C1023 C1021 1.387 . S
C1023 C1025 1.390 . S
C1023 H1027 0.950 . S
H1024 C1020 0.950 . S
C1025 C1023 1.390 . S
C1025 C1026 1.387 . S
C1025 H1028 0.950 . S
C1026 C1025 1.387 . S
C1026 C1029 1.387 . S
H1027 C1023 0.950 . S
H1028 C1025 0.950 . S
C1029 C1020 1.390 . S
C1029 H1022 0.950 . S
C1029 C1026 1.387 . S
C1030 C1031 1.387 . S
C1030 H1034 0.950 . S
C1030 C1039 1.390 . S
C1031 C1030 1.387 . S
C1031 C1033 1.387 . S
H1032 C1039 0.950 . S
C1033 C1031 1.387 . S
C1033 C1035 1.390 . S
C1033 H1037 0.950 . S
H1034 C1030 0.950 . S
C1035 C1033 1.390 . S
C1035 C1036 1.387 . S
C1035 H1038 0.950 . S
C1036 C1035 1.387 . S
C1036 C1039 1.387 . S
H1037 C1033 0.950 . S
H1038 C1035 0.950 . S
C1039 C1030 1.390 . S
C1039 H1032 0.950 . S
C1039 C1036 1.387 . S
C1040 C1041 1.387 . S
C1040 H1044 0.950 . S
C1040 C1049 1.390 . S
C1041 C1040 1.387 . S
C1041 C1043 1.387 . S
H1042 C1049 0.950 . S
C1043 C1041 1.387 . S
C1043 C1045 1.390 . S
C1043 H1047 0.950 . S
H1044 C1040 0.950 . S
C1045 C1043 1.390 . S
C1045 C1046 1.387 . S
C1045 H1048 0.950 . S
C1046 C1045 1.387 . S
C1046 C1049 1.387 . S
H1047 C1043 0.950 . S
H1048 C1045 0.950 . S
C1049 C1040 1.390 . S
C1049 H1042 0.950 . S
C1049 C1046 1.387 . S
C1050 C1051 1.387 . S
C1050 H1054 0.950 . S
C1050 C1059 1.390 . S
C1051 C1050 1.387 . S
C1051 C1053 1.387 . S
H1052 C1059 0.950 . S
C1053 C1051 1.387 . S
C1053 C1055 1.390 . S
C1053 H1057 0.950 . S
H1054 C1050 0.950 . S
C1055 C1053 1.390 . S
C1055 C1056 1.387 . S
C1055 H1058 0.950 . S
C1056 C1055 1.387 . S
C1056 C1059 1.387 . S
H1057 C1053 0.950 . S
H1058 C1055 0.950 . S
C1059 C1050 1.390 . S
C1059 H1052 0.950 . S
C1059 C1056 1.387 . S
C1060 C1061 1.387 . S
C1060 H1064 0.950 . S
C1060 C1069 1.390 . S
C1061 C1060 1.387 . S
C1061 C1063 1.387 . S
H1062 C1069 0.950 . S
C1063 C1061 1.387 . S
C1063 C1065 1.390 . S
C1063 H1067 0.950 . S
H1064 C1060 0.950 . S
C1065 C1063 1.390 . S
C1065 C1066 1.387 . S
C1065 H1068 0.950 . S
C1066 C1065 1.387 . S
C1066 C1069 1.387 . S
H1067 C1063 0.950 . S
H1068 C1065 0.950 . S
C1069 C1060 1.390 . S
C1069 H1062 0.950 . S
C1069 C1066 1.387 . S
C1070 C1071 1.387 . S
C1070 H1074 0.950 . S
C1070 C1079 1.390 . S
C1071 C1070 1.387 . S
C1071 C1073 1.387 . S
H1072 C1079 0.950 . S
C1073 C1071 1.387 . S
C1073 C1075 1.390 . S
C1073 H1077 0.950 1_545 S
H1074 C1070 0.950 . S
C1075 C1073 1.390 . S
C1075 C1076 1.387 . S
C1075 H1078 0.950 . S
C1076 C1075 1.387 . S
C1076 C1079 1.387 . S
H1077 C1073 0.950 1_565 S
H1078 C1075 0.950 . S
C1079 C1070 1.390 . S
C1079 H1072 0.950 . S
C1079 C1076 1.387 . S
C1080 C1081 1.387 . S
C1080 H1084 0.950 . S
C1080 C1089 1.390 . S
C1081 C1080 1.387 . S
C1081 C1083 1.387 . S
H1082 C1089 0.950 . S
C1083 C1081 1.387 . S
C1083 C1085 1.390 . S
C1083 H1087 0.950 . S
H1084 C1080 0.950 . S
C1085 C1083 1.390 . S
C1085 C1086 1.387 . S
C1085 H1088 0.950 . S
C1086 C1085 1.387 . S
C1086 C1089 1.387 . S
H1087 C1083 0.950 . S
H1088 C1085 0.950 . S
C1089 C1080 1.390 . S
C1089 H1082 0.950 . S
C1089 C1086 1.387 . S
C1090 C1091 1.387 . S
C1090 H1094 0.950 . S
C1090 C1099 1.390 . S
C1091 C1090 1.387 . S
C1091 C1093 1.387 . S
H1092 C1099 0.950 . S
C1093 C1091 1.387 . S
C1093 C1095 1.390 . S
C1093 H1097 0.950 . S
H1094 C1090 0.950 . S
C1095 C1093 1.390 . S
C1095 C1096 1.387 . S
C1095 H1098 0.950 . S
C1096 C1095 1.387 . S
C1096 C1099 1.387 . S
H1097 C1093 0.950 . S
H1098 C1095 0.950 . S
C1099 C1090 1.390 . S
C1099 H1092 0.950 . S
C1099 C1096 1.387 . S
C1100 C1101 1.387 . S
C1100 H1104 0.950 . S
C1100 C1109 1.390 . S
C1101 C1100 1.387 . S
C1101 C1103 1.387 . S
H1102 C1109 0.950 1_556 S
C1103 C1101 1.387 . S
C1103 C1105 1.390 . S
C1103 H1107 0.950 . S
H1104 C1100 0.950 . S
C1105 C1103 1.390 . S
C1105 C1106 1.387 . S
C1105 H1108 0.950 . S
C1106 C1105 1.387 . S
C1106 C1109 1.387 . S
H1107 C1103 0.950 . S
H1108 C1105 0.950 . S
C1109 C1100 1.390 . S
C1109 H1102 0.950 1_554 S
C1109 C1106 1.387 . S
C1110 C1111 1.387 . S
C1110 H1114 0.950 . S
C1110 C1119 1.390 . S
C1111 C1110 1.387 . S
C1111 C1113 1.387 . S
H1112 C1119 0.950 . S
C1113 C1111 1.387 . S
C1113 C1115 1.390 . S
C1113 H1117 0.950 . S
H1114 C1110 0.950 . S
C1115 C1113 1.390 . S
C1115 C1116 1.387 . S
C1115 H1118 0.950 . S
C1116 C1115 1.387 . S
C1116 C1119 1.387 . S
H1117 C1113 0.950 . S
H1118 C1115 0.950 . S
C1119 C1110 1.390 . S
C1119 H1112 0.950 . S
C1119 C1116 1.387 . S
C641 C2 3.078 . S
C646 C402 3.078 . S
C651 C42 3.078 . S
C656 C442 3.078 . S
C661 C82 3.079 . S
C666 C322 3.079 . S
C671 C362 3.079 . S
C676 C122 3.079 . S
C681 C175 3.079 . S
C686 C575 3.079 . S
C691 C615 3.079 . S
C696 C215 3.079 . S
C701 C495 3.079 . S
C706 C255 3.079 . S
C711 C295 3.078 . S
C716 C535 3.078 . S
C721 C26 1.345 1_556 S
C726 C169 1.345 1_554 S
C731 C66 1.341 . S
C736 C529 1.341 . S
C741 C106 1.340 . S
C746 C249 1.340 . S
C751 C146 1.345 . S
C756 C609 1.345 . S
C761 C209 1.345 . S
C766 C386 1.345 . S
C771 C466 1.344 . S
C776 C289 1.344 . S
C781 C489 1.340 . S
C786 C346 1.340 . S
C791 C426 1.340 1_556 S
C796 C569 1.340 1_554 S
C801 C9 1.528 . S
C806 C282 1.911 . S
C811 C49 1.524 . S
C816 C482 1.909 . S
C821 C89 1.528 . S
C826 C202 1.909 . S
C831 C129 1.528 . S
C836 C562 1.911 . S
C841 C135 1.911 . S
C846 C186 1.528 . S
C851 C226 1.527 . S
C856 C335 1.909 . S
C861 C266 1.528 . S
C866 C55 1.911 . S
C871 C415 1.911 . S
C876 C306 1.528 . S
C881 C329 1.529 . S
C886 C602 1.911 . S
C891 C162 1.907 . S
C896 C369 1.523 . S
C901 C522 1.909 . S
C906 C409 1.528 . S
C911 C242 1.909 . S
C916 C449 1.528 . S
C921 C506 1.528 . S
C926 C455 1.911 . S
C931 C546 1.529 . S
C936 C15 1.911 . S
C941 C375 1.911 . S
C946 C586 1.529 . S
C951 C626 1.525 . S
C956 C95 1.909 . S
C961 C3 4.094 1_556 S
C966 C382 4.020 . S
C971 C422 4.019 . S
C976 C43 4.093 . S
C981 C83 4.093 . S
C986 C462 4.019 . S
C991 C342 4.020 . S
C996 C123 4.093 . S
C1001 C523 4.020 . S
C1006 C182 4.094 1_554 S
C1011 C563 4.020 . S
C1016 C222 4.094 . S
C1021 C603 4.020 . S
C1026 C262 4.094 . S
C1031 C483 4.019 . S
C1036 C302 4.093 . S
C1041 C62 4.019 . S
C1046 C323 4.093 . S
C1051 C102 4.019 . S
C1056 C363 4.093 1_565 S
C1061 C142 4.020 . S
C1066 C403 4.094 1_556 S
C1071 C443 4.093 1_545 S
C1076 C22 4.020 . S
C1081 C203 4.019 . S
C1086 C502 4.093 . S
C1091 C243 4.020 . S
C1096 C542 4.094 1_545 S
C1101 C283 4.020 . S
C1106 C582 4.094 1_554 S
C1111 C163 4.019 . S
C1116 C622 4.093 1_565 S
