# Generated by pormake.
# Topology sma, (6)-cn, num edge types: 1
# Building blocks:
#     Node 0, Type 0, BuildingBlock: INOVEN_clean_sbu_0, # of connection points: 6
#     Node 1, Type 0, BuildingBlock: INOVEN_clean_sbu_0, # of connection points: 6
#     Node 2, Type 0, BuildingBlock: INOVEN_clean_sbu_0, # of connection points: 6
#     Edge 3, Type (0, 0), BuildingBlock: TEMPAE_clean_linker_10, # of connection points: 2
#     Edge 4, Type (0, 0), BuildingBlock: TEMPAE_clean_linker_10, # of connection points: 2
#     Edge 5, Type (0, 0), BuildingBlock: TEMPAE_clean_linker_10, # of connection points: 2
#     Edge 6, Type (0, 0), BuildingBlock: TEMPAE_clean_linker_10, # of connection points: 2
#     Edge 7, Type (0, 0), BuildingBlock: TEMPAE_clean_linker_10, # of connection points: 2
#     Edge 8, Type (0, 0), BuildingBlock: TEMPAE_clean_linker_10, # of connection points: 2
#     Edge 9, Type (0, 0), BuildingBlock: TEMPAE_clean_linker_10, # of connection points: 2
#     Edge 10, Type (0, 0), BuildingBlock: TEMPAE_clean_linker_10, # of connection points: 2
#     Edge 11, Type (0, 0), BuildingBlock: TEMPAE_clean_linker_10, # of connection points: 2
# Relax obj value: 0.128
# Max RMSD: 0.261
# Mean RMSD: 0.204
data_MOF--net-sma--node1-INOVEN_clean_sbu_0--edge1-TEMPAE_clean_linker_10
_symmetry_space_group_name_H-M    P1
_symmetry_Int_Tables_number       1
_symmetry_cell_setting            triclinic
loop_
_symmetry_equiv_pos_as_xyz
'x, y, z'
_cell_length_a     40.723394
_cell_length_b     47.466861
_cell_length_c     13.857207
_cell_angle_alpha  95.580805
_cell_angle_beta   89.175075
_cell_angle_gamma 139.72785
loop_
_atom_site_label
_atom_site_type_symbol
_atom_site_fract_x
_atom_site_fract_y
_atom_site_fract_z
_atom_type_partial_charge
Gd0 Gd 0.14301 0.6581 0.15459 0.0
Gd1 Gd 1.07851 0.669 0.2202 0.0
C2 C 0.20249 0.75548 0.21408 0.0
C3 C 0.17853 0.63722 0.05888 0.0
C4 C 0.22511 0.65136 0.03928 0.0
C5 C 0.25425 0.65785 0.11357 0.0
C6 C 0.23703 0.65316 0.94277 0.0
C7 C 0.30376 0.66428 -0.00594 0.0
C8 C 0.27597 0.65967 0.92039 0.0
C9 C 0.29308 0.66423 0.09121 0.0
C10 C 0.15027 0.67837 0.34507 0.0
C11 C 1.02547 0.57393 0.20381 0.0
C12 C 1.03663 0.68763 0.29066 0.0
C13 C 1.01019 0.69445 0.24909 0.0
C14 C 1.01512 0.70338 0.1528 0.0
C15 C 0.97801 0.6903 0.30504 0.0
C16 C 0.95527 0.70339 0.16864 0.0
C17 C 0.95084 0.6947 0.26538 0.0
C18 C 0.98804 0.7079 0.11304 0.0
C19 C 1.07713 0.65364 0.02702 0.0
O20 O 0.20356 0.7313 0.16156 0.0
O21 O 0.16079 0.73782 0.25313 0.0
O22 O 0.16239 0.62653 0.14551 0.0
O23 O 0.17188 0.65721 0.02216 0.0
O24 O 0.18678 0.68876 0.30361 0.0
O25 O 0.11101 0.65379 0.28723 0.0
O26 O 1.02985 0.60163 0.25639 0.0
O27 O 1.06041 0.58832 0.14422 0.0
O28 O 1.08551 0.71745 0.28106 0.0
O29 O 1.01267 0.6476 0.27389 0.0
O30 O 1.03942 0.64119 0.06683 0.0
O31 O 0.11392 0.67672 0.08969 0.0
H32 H 0.2459 0.65641 0.18873 0.0
H33 H 0.21503 0.64803 0.88401 0.0
H34 H 0.28365 0.66027 0.845 0.0
H35 H 0.31322 0.6672 0.14984 0.0
H36 H 1.03963 0.70652 0.10812 0.0
H37 H 0.97333 0.68303 0.37919 0.0
H38 H 0.92538 0.69021 0.30998 0.0
H39 H 0.99289 0.71503 0.03878 0.0
Gd40 Gd 0.65187 0.16312 0.38944 0.0
Gd41 Gd 0.599 0.18476 0.33394 0.0
C42 C 0.52934 0.08517 0.33894 0.0
C43 C 0.69492 0.15097 0.479 0.0
C44 C 0.68777 0.11577 0.49094 0.0
C45 C 0.71281 0.11127 0.43428 0.0
C46 C 0.65897 0.08844 0.56399 0.0
C47 C 0.68112 1.0535 0.52434 0.0
C48 C 0.65554 1.05761 0.5802 0.0
C49 C 0.7094 0.08046 0.45055 0.0
C50 C 0.61825 0.14157 0.20056 0.0
C51 C 0.72183 0.25872 0.32885 0.0
C52 C 0.57544 0.21967 0.28906 0.0
C53 C 0.55073 0.22879 0.33333 0.0
C54 C 0.52917 0.21424 0.42211 0.0
C55 C 0.55725 0.25903 0.29575 0.0
C56 C 0.52554 0.26353 0.43971 0.0
C57 C 0.54477 0.27621 0.34819 0.0
C58 C 0.51648 0.23131 0.47463 0.0
C59 C 0.60206 0.17611 0.52165 0.0
O60 O 0.56725 0.10008 0.39622 0.0
O61 O 0.53499 0.11159 0.29199 0.0
O62 O 0.70758 0.16595 0.39456 0.0
O63 O 0.66265 0.14765 0.51791 0.0
O64 O 0.62229 0.12102 0.24324 0.0
O65 O 0.63678 0.1742 0.25652 0.0
O66 O 0.67902 0.24195 0.2931 0.0
O67 O 0.72156 0.23622 0.37947 0.0
O68 O 0.54708 0.17873 0.25721 0.0
O69 O 0.61843 0.24153 0.3368 0.0
O70 O 0.56436 0.16367 0.47707 0.0
O71 O 0.63704 0.19455 0.46688 0.0
H72 H 0.73577 0.13206 0.37816 0.0
H73 H 0.63983 0.09142 0.61021 0.0
H74 H 0.63404 1.03791 0.63858 0.0
H75 H 0.72915 0.0779 0.40541 0.0
H76 H 0.52442 0.19131 0.45301 0.0
H77 H 0.57473 0.27129 0.22826 0.0
H78 H 0.55298 0.30131 0.31933 0.0
H79 H 0.50103 0.22024 0.544 0.0
Gd80 Gd 0.66569 0.71839 0.8604 0.0
Gd81 Gd 0.58479 0.62296 0.90856 0.0
C82 C 0.54692 0.66057 0.88357 0.0
C83 C 0.71177 0.78486 0.77036 0.0
C84 C 0.70347 0.80878 0.74437 0.0
C85 C 0.73893 0.85327 0.78207 0.0
C86 C 0.66128 0.78831 0.68161 0.0
C87 C 0.69044 0.85658 0.69536 0.0
C88 C 0.65494 0.81202 0.65719 0.0
C89 C 0.73244 0.87683 0.75821 0.0
C90 C 0.65515 0.71114 0.04998 0.0
C91 C 0.70634 0.68607 0.92517 0.0
C92 C 0.53402 0.54773 0.95849 0.0
C93 C 0.53203 0.51685 0.91436 0.0
C94 C 0.5554 0.52509 0.82834 0.0
C95 C 0.50692 0.47921 0.95593 0.0
C96 C 0.52804 0.45798 0.82457 0.0
C97 C 0.50494 0.45 0.91147 0.0
C98 C 0.55324 0.49597 0.78377 0.0
C99 C 0.60026 0.63358 0.72003 0.0
O100 O 0.58948 0.69159 0.84069 0.0
O101 O 0.54013 0.63376 0.93161 0.0
O102 O 0.72248 0.78883 0.86296 0.0
O103 O 0.68104 0.74494 0.72554 0.0
O104 O 0.69788 0.74583 0.01759 0.0
O105 O 0.61975 0.68486 -0.01739 0.0
O106 O 0.66023 0.65238 0.95346 0.0
O107 O 0.71698 0.71422 0.87432 0.0
O108 O 0.51389 0.55299 0.90222 0.0
O109 O 0.57809 0.58509 0.00328 0.0
O110 O 0.55566 0.60182 0.74969 0.0
O111 O 0.63372 0.65725 0.79025 0.0
H112 H 0.77196 0.86995 0.82991 0.0
H113 H 0.63314 0.75403 0.65129 0.0
H114 H 0.62198 0.79535 0.60919 0.0
H115 H 0.76088 0.91124 0.78776 0.0
H116 H 0.57501 0.55401 0.79504 0.0
H117 H 0.48884 0.47239 0.02253 0.0
H118 H 0.48573 0.42141 0.94565 0.0
H119 H 0.57069 0.50295 0.71622 0.0
C120 C 0.33114 0.63984 0.88804 0.0
C121 C 0.34157 0.66656 -0.03054 0.0
C122 C 0.36465 0.63938 0.86735 0.0
C123 C 0.40971 0.66608 0.92976 0.0
C124 C 0.42109 0.69385 0.0108 0.0
C125 C 0.38701 0.69382 0.02953 0.0
C126 C 0.35107 0.60933 0.78017 0.0
C127 C 0.46874 0.72289 0.07913 0.0
C128 C 0.46804 0.63122 0.94451 0.0
C129 C 0.50992 0.66002 0.8893 0.0
C130 C 0.43493 0.63256 0.95716 0.0
C131 C 0.44361 0.66334 0.91331 0.0
C132 C 0.48509 0.69182 0.85557 0.0
C133 C 0.51773 0.68984 0.84428 0.0
C134 C 0.39118 0.60156 0.01925 0.0
C135 C 0.49556 0.72494 0.80708 0.0
H136 H 0.29587 0.61814 0.84187 0.0
H137 H 0.39589 0.71505 0.09175 0.0
H138 H 0.38323 0.62818 0.73368 0.0
H139 H 0.34419 0.58373 0.80486 0.0
H140 H 0.31643 0.59281 0.73524 0.0
H141 H 0.47316 0.74388 0.13654 0.0
H142 H 0.46762 0.70226 0.11485 0.0
H143 H 0.50293 0.74442 0.03779 0.0
H144 H 0.46156 0.60804 -0.02033 0.0
H145 H 0.54986 0.71221 0.80129 0.0
H146 H 0.35454 0.58173 -0.02308 0.0
H147 H 0.39561 0.62068 0.08282 0.0
H148 H 0.38885 0.57884 0.0463 0.0
H149 H 0.46134 0.70806 0.75997 0.0
H150 H 0.52836 0.74377 0.76207 0.0
H151 H 0.5038 0.74847 0.86316 0.0
C152 C 0.76949 0.31995 0.22914 0.0
C153 C 0.77044 0.30313 0.30563 0.0
C154 C 0.81325 0.36306 0.2098 0.0
C155 C 0.8595 0.39054 0.26852 0.0
C156 C 0.86143 0.37336 0.34351 0.0
C157 C 0.81684 0.32972 0.36101 0.0
C158 C 0.80933 0.37973 0.12872 0.0
C159 C 0.91005 0.40162 0.40764 0.0
C160 C 0.97897 0.49658 0.17138 0.0
C161 C 0.98338 0.52689 0.2197 0.0
C162 C 0.93983 0.45235 0.18863 0.0
C163 C 0.90421 0.43803 0.2557 0.0
C164 C 0.90892 0.46861 0.30547 0.0
C165 C 0.94825 0.51248 0.28685 0.0
C166 C 0.93607 0.42076 0.13395 0.0
C167 C 0.87172 0.45482 0.37725 0.0
H168 H 0.73407 0.29954 0.18474 0.0
H169 H 0.81794 0.31701 0.4201 0.0
H170 H 0.81525 0.40592 0.15988 0.0
H171 H 0.83953 0.39446 0.07914 0.0
H172 H 0.77164 0.35329 0.08521 0.0
H173 H 0.90668 0.3824 0.45642 0.0
H174 H 0.94217 0.41767 0.36254 0.0
H175 H 0.91979 0.42814 0.45321 0.0
H176 H 1.00605 0.50735 0.1199 0.0
H177 H 0.9513 0.53551 0.3252 0.0
H178 H 0.90002 0.39516 0.08545 0.0
H179 H 0.935 0.4037 0.18573 0.0
H180 H 0.9685 0.43752 0.08903 0.0
H181 H 0.83291 0.43045 0.33905 0.0
H182 H 0.88225 0.48305 0.41388 0.0
H183 H 0.86983 0.43868 0.43371 0.0
C184 C 0.72428 1.03513 0.54486 0.0
C185 C 0.67981 1.02236 0.54526 0.0
C186 C 0.72418 1.0068 0.56714 0.0
C187 C 0.67852 0.96453 0.59068 0.0
C188 C 0.63336 0.9512 0.59034 0.0
C189 C 0.63454 0.98023 0.56771 0.0
C190 C 0.77324 1.02242 0.56694 0.0
C191 C 0.58386 0.90639 0.61472 0.0
C192 C 0.67145 0.87925 0.57211 0.0
C193 C 0.68444 0.88229 0.66903 0.0
C194 C 0.66854 0.90523 0.54573 0.0
C195 C 0.67856 0.93484 0.61803 0.0
C196 C 0.69044 0.93724 0.71632 0.0
C197 C 0.69335 0.91108 0.74052 0.0
C198 C 0.65598 0.90179 0.44009 0.0
C199 C 0.7009 0.96801 0.79586 0.0
H200 H 0.75963 0.0678 0.52916 0.0
H201 H 0.59984 0.9698 0.56708 0.0
H202 H 0.78439 1.02339 0.64089 0.0
H203 H 0.76767 0.99907 0.51697 0.0
H204 H 0.80511 1.05567 0.54417 0.0
H205 H 0.55187 0.90066 0.60948 0.0
H206 H 0.57355 0.88039 0.56474 0.0
H207 H 0.58843 0.90286 0.68975 0.0
H208 H 0.66497 0.85741 0.51628 0.0
H209 H 0.70265 0.91315 0.81577 0.0
H210 H 0.68879 0.93371 0.41282 0.0
H211 H 0.62292 0.89451 0.43238 0.0
H212 H 0.64697 0.87582 0.39339 0.0
H213 H 0.73491 1.00253 0.78195 0.0
H214 H 0.7077 0.96478 0.86914 0.0
H215 H 0.66823 0.96139 0.79612 0.0
C216 C 0.79731 0.72812 0.93398 0.0
C217 C 0.74627 0.69142 0.95288 0.0
C218 C 0.83488 0.73333 0.96372 0.0
C219 C 0.82112 0.70112 0.01347 0.0
C220 C 0.76958 0.66381 0.03145 0.0
C221 C 0.733 0.65945 0.00108 0.0
C222 C 0.88939 0.77351 0.94289 0.0
C223 C 0.753 0.62857 0.08399 0.0
C224 C 0.90168 0.68744 0.0295 0.0
C225 C 0.92461 0.70638 0.12559 0.0
C226 C 0.86981 0.68728 -0.00951 0.0
C227 C 0.86025 0.70632 0.04888 0.0
C228 C 0.88462 0.72679 0.14469 0.0
C229 C 0.91649 0.72667 0.18168 0.0
C230 C 0.84466 0.6651 0.88802 0.0
C231 C 0.87554 0.74747 0.20957 0.0
H232 H 0.80805 0.75301 0.89688 0.0
H233 H 0.69376 0.63077 0.01594 0.0
H234 H 0.91418 0.79304 0.01232 0.0
H235 H 0.90332 0.7635 0.9011 0.0
H236 H 0.89372 0.79486 0.90101 0.0
H237 H 0.76324 0.61487 0.04475 0.0
H238 H 0.77328 0.643 0.15813 0.0
H239 H 0.71127 0.60116 0.09071 0.0
H240 H 0.90713 0.67127 -0.01439 0.0
H241 H 0.93472 0.74217 0.25525 0.0
H242 H 0.85015 0.68701 0.84597 0.0
H243 H 0.80298 0.63489 0.89019 0.0
H244 H 0.8599 0.65584 0.84878 0.0
H245 H 0.88269 0.77112 0.17179 0.0
H246 H 0.90022 0.76493 0.2794 0.0
H247 H 0.83508 0.72164 0.22608 0.0
C248 C 0.47041 1.00915 0.38182 0.0
C249 C 0.48 1.03714 0.32379 0.0
C250 C 0.42495 0.96341 0.36537 0.0
C251 C 0.38819 0.94505 0.28863 0.0
C252 C 0.39737 0.97313 0.23042 0.0
C253 C 0.44304 1.01879 0.24887 0.0
C254 C 0.41648 0.93468 0.42959 0.0
C255 C 0.35926 0.95486 0.14767 0.0
C256 C 0.29382 0.82457 0.18682 0.0
C257 C 0.24991 0.80403 0.23223 0.0
C258 C 0.33893 0.8704 0.2041 0.0
C259 C 0.34036 0.89642 0.26868 0.0
C260 C 0.2962 0.87595 0.31461 0.0
C261 C 0.25156 0.8301 0.29574 0.0
C262 C 0.38514 0.89098 0.15336 0.0
C263 C 0.29617 0.90248 0.38417 0.0
H264 H 0.49856 1.02294 0.44015 0.0
H265 H 0.45013 1.04003 0.20322 0.0
H266 H 0.38045 0.91477 0.4644 0.0
H267 H 0.41254 0.91139 0.38487 0.0
H268 H 0.44825 0.95413 0.48756 0.0
H269 H 0.37177 0.98111 0.11001 0.0
H270 H 0.35337 0.9322 0.09363 0.0
H271 H 0.3218 0.9355 0.17534 0.0
H272 H 0.29305 0.80487 0.13745 0.0
H273 H 0.21799 0.8147 0.33149 0.0
H274 H 0.41736 0.90843 0.20808 0.0
H275 H 0.39745 0.91576 0.10971 0.0
H276 H 0.37767 0.86627 0.10443 0.0
H277 H 0.32576 0.92041 0.44588 0.0
H278 H 0.25867 0.88163 0.41375 0.0
H279 H 0.30589 0.92747 0.34673 0.0
C280 C 0.56776 0.44301 0.73045 0.0
C281 C 0.52566 0.4269 0.77543 0.0
C282 C 0.56536 0.41442 0.67879 0.0
C283 C 0.51992 0.36837 0.67259 0.0
C284 C 0.4777 0.35177 0.71987 0.0
C285 C 0.48098 0.38117 0.77034 0.0
C286 C 0.61132 0.4336 0.62955 0.0
C287 C 0.42875 0.30291 0.7158 0.0
C288 C 0.50129 0.29917 0.45875 0.0
C289 C 0.51901 0.28648 0.50117 0.0
C290 C 0.50009 0.32478 0.51416 0.0
C291 C 0.5166 0.33785 0.61488 0.0
C292 C 0.53267 0.32378 0.659 0.0
C293 C 0.53389 0.29849 0.6017 0.0
C294 C 0.48272 0.33908 0.46414 0.0
C295 C 0.55032 0.33675 0.7662 0.0
H296 H 0.60285 0.47819 0.73549 0.0
H297 H 0.44803 0.36826 0.80381 0.0
H298 H 0.62384 0.42146 0.65681 0.0
H299 H 0.6011 0.4227 0.54995 0.0
H300 H 0.64393 0.47012 0.64198 0.0
H301 H 0.40026 0.29523 0.76013 0.0
H302 H 0.41179 0.28803 0.6393 0.0
H303 H 0.43666 0.28707 0.74232 0.0
H304 H 0.48895 0.28956 0.3816 0.0
H305 H 0.54838 0.28955 0.63529 0.0
H306 H 0.51485 0.37543 0.46779 0.0
H307 H 0.45176 0.32965 0.50199 0.0
H308 H 0.46873 0.32442 0.38647 0.0
H309 H 0.58604 0.37284 0.78137 0.0
H310 H 0.55756 0.32018 0.79105 0.0
H311 H 0.52138 0.32854 0.80988 0.0
C312 C 1.06091 0.62696 0.85289 0.0
C313 C 1.08597 0.66161 0.92673 0.0
C314 C 1.07576 0.63565 0.75844 0.0
C315 C 0.11594 0.67989 0.7393 0.0
C316 C 0.13968 0.7148 0.81341 0.0
C317 C 0.12455 0.70516 0.90713 0.0
C318 C 1.04983 0.59775 0.68012 0.0
C319 C 0.18188 0.76216 0.79444 0.0
C320 C 0.18007 0.69467 0.51807 0.0
C321 C 0.15092 0.68907 0.44719 0.0
C322 C 0.17126 0.69449 0.61603 0.0
C323 C 0.13321 0.68932 0.64145 0.0
C324 C 0.10747 0.68809 0.57067 0.0
C325 C 0.11645 0.68764 0.47371 0.0
C326 C 0.19939 0.69604 0.69073 0.0
C327 C 1.06748 0.68356 0.59589 0.0
H328 H 1.03149 0.59348 0.86996 0.0
H329 H 0.14368 0.73171 0.96585 0.0
H330 H 1.03317 0.59808 0.61826 0.0
H331 H 1.07827 0.60126 0.65154 0.0
H332 H 1.01901 0.56538 0.7073 0.0
H333 H 0.19369 0.78501 0.85897 0.0
H334 H 0.21562 0.77179 0.77438 0.0
H335 H 0.16948 0.76625 0.73222 0.0
H336 H 0.20676 0.69585 0.49646 0.0
H337 H 0.09452 0.68386 0.41801 0.0
H338 H 0.17266 0.66319 0.71515 0.0
H339 H 0.2142 0.71981 0.75582 0.0
H340 H 0.23176 0.7053 0.66109 0.0
H341 H 1.03259 0.64971 0.61238 0.0
H342 H 1.05696 0.68984 0.53514 0.0
H343 H 1.08108 0.7066 0.66168 0.0
C344 C 0.59904 0.10694 0.03031 0.0
C345 C 0.60354 0.134 0.09724 0.0
C346 C 0.59282 0.1056 0.93 0.0
C347 C 0.59123 0.13196 0.89777 0.0
C348 C 0.59233 0.15695 0.96576 0.0
C349 C 0.59838 0.15755 0.06484 0.0
C350 C 0.5909 0.07808 0.85888 0.0
C351 C 0.59046 0.18535 0.93417 0.0
C352 C 0.64392 0.18453 0.66854 0.0
C353 C 0.59919 0.16171 0.6131 0.0
C354 C 0.64171 0.17283 0.75924 0.0
C355 C 0.59354 0.13744 0.79414 0.0
C356 C 0.54819 0.11248 0.73526 0.0
C357 C 0.55158 0.12527 0.64536 0.0
C358 C 0.6909 0.20027 0.82042 0.0
C359 C 0.49625 0.07407 0.76962 0.0
H360 H 0.60274 0.08854 0.05599 0.0
H361 H 0.60118 0.178 0.11709 0.0
H362 H 0.5604 1.05977 0.79889 0.0
H363 H 0.62762 0.09986 0.82566 0.0
H364 H 0.58421 1.05428 0.89479 0.0
H365 H 0.5885 0.20051 -0.00351 0.0
H366 H 0.62506 0.21208 0.89739 0.0
H367 H 0.55687 0.16566 0.8811 0.0
H368 H 0.68063 0.21251 0.64253 0.0
H369 H 0.51698 0.10717 0.601 0.0
H370 H 0.69003 0.17887 0.85026 0.0
H371 H 0.69554 0.21982 0.88309 0.0
H372 H 0.72471 0.22325 0.77833 0.0
H373 H 0.49493 1.0532 0.80462 0.0
H374 H 0.46549 1.05339 0.70887 0.0
H375 H 0.48838 0.0865 0.82491 0.0
C376 C 0.64534 0.65672 0.57255 0.0
C377 C 0.6092 0.6476 0.62513 0.0
C378 C 0.65463 0.67037 0.48093 0.0
C379 C 0.62866 0.67679 0.44455 0.0
C380 C 0.59404 0.66981 0.50036 0.0
C381 C 0.58372 0.65413 0.58971 0.0
C382 C 0.69051 0.67615 0.42162 0.0
C383 C 0.56762 0.67837 0.46528 0.0
C384 C 0.68218 0.73836 0.22653 0.0
C385 C 0.64785 0.70347 0.15142 0.0
C386 C 0.67504 0.73046 0.32372 0.0
C387 C 0.63407 0.6866 0.34428 0.0
C388 C 0.59927 0.65139 0.26828 0.0
C389 C 0.60597 0.66047 0.17263 0.0
C390 C 0.71137 0.76875 0.40404 0.0
C391 C 0.55597 0.60405 0.28753 0.0
H392 H 0.66511 0.65188 0.60197 0.0
H393 H 0.55672 0.64795 0.63293 0.0
H394 H 0.66942 0.65274 0.35325 0.0
H395 H 0.72133 0.70978 0.40078 0.0
H396 H 0.70818 0.67047 0.46167 0.0
H397 H 0.54644 0.67605 0.52241 0.0
H398 H 0.59591 0.71158 0.44209 0.0
H399 H 0.5403 0.65418 0.40101 0.0
H400 H 0.71412 0.77169 0.20937 0.0
H401 H 0.57914 0.63371 0.11409 0.0
H402 H 0.73447 0.76784 0.44101 0.0
H403 H 0.68977 0.76645 0.45979 0.0
H404 H 0.73769 0.8009 0.37613 0.0
H405 H 0.57132 0.59605 0.32614 0.0
H406 H 0.53323 0.5806 0.21943 0.0
H407 H 0.53009 0.59895 0.33531 0.0
loop_
_geom_bond_atom_site_label_1
_geom_bond_atom_site_label_2
_geom_bond_distance
_geom_bond_site_symmetry_2
_ccdc_geom_bond_type
Gd0 C3 2.818 . S
Gd0 O20 2.377 . S
Gd0 O22 2.448 . S
Gd0 O23 2.506 . S
Gd0 O24 2.435 . S
Gd0 O25 2.717 . S
Gd0 O27 2.395 1_455 S
Gd0 O31 2.327 . S
Gd1 C12 2.818 1_455 S
Gd1 O21 2.395 . S
Gd1 O25 2.327 . S
Gd1 O26 2.377 1_455 S
Gd1 O28 2.448 1_455 S
Gd1 O29 2.506 1_455 S
Gd1 O30 2.435 1_554 S
Gd1 O31 2.717 . S
C2 O20 1.240 . S
C2 O21 1.240 . S
C3 Gd0 2.818 . S
C3 C4 1.510 . S
C3 O22 1.249 . S
C3 O23 1.252 . S
C4 C3 1.510 . S
C4 C5 1.404 . S
C4 C6 1.352 . S
C5 C4 1.404 . S
C5 C9 1.389 . S
C5 H32 0.930 . S
C6 C4 1.352 . S
C6 C8 1.374 . S
C6 H33 0.931 . S
C7 C8 1.359 . S
C7 C9 1.364 . S
C8 C6 1.374 . S
C8 C7 1.359 . S
C8 H34 0.931 1_554 S
C9 C5 1.389 . S
C9 C7 1.364 . S
C9 H35 0.931 . S
C10 O24 1.256 . S
C10 O25 1.257 . S
C11 O26 1.240 . S
C11 O27 1.240 . S
C12 Gd1 2.818 1_655 S
C12 C13 1.510 . S
C12 O28 1.249 . S
C12 O29 1.252 . S
C13 C12 1.510 . S
C13 C14 1.404 . S
C13 C15 1.352 . S
C14 C13 1.404 . S
C14 C18 1.389 . S
C14 H36 0.930 . S
C15 C13 1.352 . S
C15 C17 1.374 . S
C15 H37 0.931 . S
C16 C17 1.359 . S
C16 C18 1.364 . S
C17 C15 1.374 . S
C17 C16 1.359 . S
C17 H38 0.931 . S
C18 C14 1.389 . S
C18 C16 1.364 . S
C18 H39 0.931 . S
C19 O30 1.256 . S
C19 O31 1.257 1_556 S
O20 Gd0 2.377 . S
O20 C2 1.240 . S
O21 Gd1 2.395 . S
O21 C2 1.240 . S
O22 Gd0 2.448 . S
O22 C3 1.249 . S
O23 Gd0 2.506 . S
O23 C3 1.252 . S
O24 Gd0 2.435 . S
O24 C10 1.256 . S
O25 Gd0 2.717 . S
O25 Gd1 2.327 . S
O25 C10 1.257 . S
O26 Gd1 2.377 1_655 S
O26 C11 1.240 . S
O27 Gd0 2.395 1_655 S
O27 C11 1.240 . S
O28 Gd1 2.448 1_655 S
O28 C12 1.249 . S
O29 Gd1 2.506 1_655 S
O29 C12 1.252 . S
O30 Gd1 2.435 1_556 S
O30 C19 1.256 . S
O31 Gd0 2.327 . S
O31 Gd1 2.717 . S
O31 C19 1.257 1_554 S
H32 C5 0.930 . S
H33 C6 0.931 . S
H34 C8 0.931 1_556 S
H35 C9 0.931 . S
H36 C14 0.930 . S
H37 C15 0.931 . S
H38 C17 0.931 . S
H39 C18 0.931 . S
Gd40 C43 2.818 . S
Gd40 O60 2.377 . S
Gd40 O62 2.448 . S
Gd40 O63 2.506 . S
Gd40 O64 2.435 . S
Gd40 O65 2.717 . S
Gd40 O67 2.395 . S
Gd40 O71 2.327 . S
Gd41 C52 2.818 . S
Gd41 O61 2.395 . S
Gd41 O65 2.327 . S
Gd41 O66 2.377 . S
Gd41 O68 2.448 . S
Gd41 O69 2.506 . S
Gd41 O70 2.435 . S
Gd41 O71 2.717 . S
C42 O60 1.240 . S
C42 O61 1.240 . S
C43 Gd40 2.818 . S
C43 C44 1.521 . S
C43 O62 1.249 . S
C43 O63 1.252 . S
C44 C43 1.521 . S
C44 C45 1.398 1_545 S
C44 C46 1.347 1_545 S
C45 C44 1.398 1_565 S
C45 C49 1.389 . S
C45 H72 0.930 1_565 S
C46 C44 1.347 1_565 S
C46 C48 1.374 . S
C46 H73 0.931 . S
C47 C48 1.359 . S
C47 C49 1.364 . S
C48 C46 1.374 . S
C48 C47 1.359 . S
C48 H74 0.931 . S
C49 C45 1.389 . S
C49 C47 1.364 . S
C49 H75 0.931 . S
C50 O64 1.256 . S
C50 O65 1.257 . S
C51 O66 1.240 . S
C51 O67 1.240 . S
C52 Gd41 2.818 . S
C52 C53 1.510 . S
C52 O68 1.249 . S
C52 O69 1.252 . S
C53 C52 1.510 . S
C53 C54 1.404 . S
C53 C55 1.352 . S
C54 C53 1.404 . S
C54 C58 1.389 . S
C54 H76 0.930 . S
C55 C53 1.352 . S
C55 C57 1.374 . S
C55 H77 0.931 . S
C56 C57 1.359 . S
C56 C58 1.364 . S
C57 C55 1.374 . S
C57 C56 1.359 . S
C57 H78 0.931 . S
C58 C54 1.389 . S
C58 C56 1.364 . S
C58 H79 0.931 . S
C59 O70 1.256 . S
C59 O71 1.257 . S
O60 Gd40 2.377 . S
O60 C42 1.240 . S
O61 Gd41 2.395 . S
O61 C42 1.240 . S
O62 Gd40 2.448 . S
O62 C43 1.249 . S
O63 Gd40 2.506 . S
O63 C43 1.252 . S
O64 Gd40 2.435 . S
O64 C50 1.256 . S
O65 Gd40 2.717 . S
O65 Gd41 2.327 . S
O65 C50 1.257 . S
O66 Gd41 2.377 . S
O66 C51 1.240 . S
O67 Gd40 2.395 . S
O67 C51 1.240 . S
O68 Gd41 2.448 . S
O68 C52 1.249 . S
O69 Gd41 2.506 . S
O69 C52 1.252 . S
O70 Gd41 2.435 . S
O70 C59 1.256 . S
O71 Gd40 2.327 . S
O71 Gd41 2.717 . S
O71 C59 1.257 . S
H72 C45 0.930 1_545 S
H73 C46 0.931 . S
H74 C48 0.931 . S
H75 C49 0.931 . S
H76 C54 0.930 . S
H77 C55 0.931 . S
H78 C57 0.931 . S
H79 C58 0.931 . S
Gd80 C83 2.818 . S
Gd80 O100 2.377 . S
Gd80 O102 2.448 . S
Gd80 O103 2.506 . S
Gd80 O104 2.435 1_556 S
Gd80 O105 2.717 . S
Gd80 O107 2.395 . S
Gd80 O111 2.327 . S
Gd81 C92 2.818 . S
Gd81 O101 2.395 . S
Gd81 O105 2.327 . S
Gd81 O106 2.377 . S
Gd81 O108 2.448 . S
Gd81 O109 2.506 . S
Gd81 O110 2.435 . S
Gd81 O111 2.717 . S
C82 O100 1.240 . S
C82 O101 1.240 . S
C83 Gd80 2.818 . S
C83 C84 1.510 . S
C83 O102 1.249 . S
C83 O103 1.252 . S
C84 C83 1.510 . S
C84 C85 1.404 . S
C84 C86 1.352 . S
C85 C84 1.404 . S
C85 C89 1.389 . S
C85 H112 0.930 1_556 S
C86 C84 1.352 . S
C86 C88 1.374 . S
C86 H113 0.931 . S
C87 C88 1.359 . S
C87 C89 1.364 . S
C88 C86 1.374 . S
C88 C87 1.359 . S
C88 H114 0.931 . S
C89 C85 1.389 . S
C89 C87 1.364 . S
C89 H115 0.931 . S
C90 O104 1.256 . S
C90 O105 1.257 1_554 S
C91 O106 1.240 . S
C91 O107 1.240 . S
C92 Gd81 2.818 . S
C92 C93 1.510 . S
C92 O108 1.249 . S
C92 O109 1.252 . S
C93 C92 1.510 . S
C93 C94 1.404 . S
C93 C95 1.352 . S
C94 C93 1.404 . S
C94 C98 1.389 . S
C94 H116 0.930 . S
C95 C93 1.352 . S
C95 C97 1.374 . S
C95 H117 0.931 . S
C96 C97 1.359 . S
C96 C98 1.364 . S
C97 C95 1.374 . S
C97 C96 1.359 . S
C97 H118 0.931 . S
C98 C94 1.389 . S
C98 C96 1.364 . S
C98 H119 0.931 . S
C99 O110 1.256 . S
C99 O111 1.257 . S
O100 Gd80 2.377 . S
O100 C82 1.240 . S
O101 Gd81 2.395 . S
O101 C82 1.240 . S
O102 Gd80 2.448 . S
O102 C83 1.249 . S
O103 Gd80 2.506 . S
O103 C83 1.252 . S
O104 Gd80 2.435 1_554 S
O104 C90 1.256 . S
O105 Gd80 2.717 . S
O105 Gd81 2.327 . S
O105 C90 1.257 1_556 S
O106 Gd81 2.377 . S
O106 C91 1.240 . S
O107 Gd80 2.395 . S
O107 C91 1.240 . S
O108 Gd81 2.448 . S
O108 C92 1.249 . S
O109 Gd81 2.506 . S
O109 C92 1.252 . S
O110 Gd81 2.435 . S
O110 C99 1.256 . S
O111 Gd80 2.327 . S
O111 Gd81 2.717 . S
O111 C99 1.257 . S
H112 C85 0.930 1_554 S
H113 C86 0.931 . S
H114 C88 0.931 . S
H115 C89 0.931 . S
H116 C94 0.930 . S
H117 C95 0.931 . S
H118 C97 0.931 . S
H119 C98 0.931 . S
C120 C121 1.391 . S
C120 C122 1.394 1_554 S
C120 H136 0.931 1_554 S
C121 C120 1.391 . S
C121 C125 1.376 . S
C122 C120 1.394 1_556 S
C122 C123 1.369 . S
C122 C126 1.531 . S
C123 C122 1.369 . S
C123 C124 1.410 1_556 S
C123 C131 1.503 . S
C124 C123 1.410 1_554 S
C124 C125 1.392 . S
C124 C127 1.511 . S
C125 C121 1.376 . S
C125 C124 1.392 . S
C125 H137 0.929 . S
C126 C122 1.531 . S
C126 H138 0.960 . S
C126 H139 0.962 . S
C126 H140 0.960 . S
C127 C124 1.511 . S
C127 H141 0.961 . S
C127 H142 0.961 . S
C127 H143 0.961 . S
C128 C129 1.370 . S
C128 C130 1.363 1_556 S
C128 H144 0.931 1_556 S
C129 C128 1.370 . S
C129 C133 1.408 . S
C130 C128 1.363 1_554 S
C130 C131 1.370 1_554 S
C130 C134 1.524 . S
C131 C123 1.503 . S
C131 C130 1.370 1_556 S
C131 C132 1.403 . S
C132 C131 1.403 . S
C132 C133 1.404 . S
C132 C135 1.539 . S
C133 C129 1.408 . S
C133 C132 1.404 . S
C133 H145 0.930 . S
C134 C130 1.524 . S
C134 H146 0.956 . S
C134 H147 0.961 . S
C134 H148 0.961 . S
C135 C132 1.539 . S
C135 H149 0.958 . S
C135 H150 0.961 . S
C135 H151 0.960 . S
H136 C120 0.931 1_556 S
H137 C125 0.929 . S
H138 C126 0.960 . S
H139 C126 0.962 . S
H140 C126 0.960 . S
H141 C127 0.961 . S
H142 C127 0.961 . S
H143 C127 0.961 . S
H144 C128 0.931 1_554 S
H145 C133 0.930 . S
H146 C134 0.956 . S
H147 C134 0.961 . S
H148 C134 0.961 . S
H149 C135 0.958 . S
H150 C135 0.961 . S
H151 C135 0.960 . S
C152 C153 1.391 . S
C152 C154 1.394 . S
C152 H168 0.931 . S
C153 C152 1.391 . S
C153 C157 1.376 . S
C154 C152 1.394 . S
C154 C155 1.369 . S
C154 C158 1.531 . S
C155 C154 1.369 . S
C155 C156 1.410 . S
C155 C163 1.503 . S
C156 C155 1.410 . S
C156 C157 1.392 . S
C156 C159 1.511 . S
C157 C153 1.376 . S
C157 C156 1.392 . S
C157 H169 0.929 . S
C158 C154 1.531 . S
C158 H170 0.960 . S
C158 H171 0.962 . S
C158 H172 0.960 . S
C159 C156 1.511 . S
C159 H173 0.961 . S
C159 H174 0.961 . S
C159 H175 0.961 . S
C160 C161 1.370 . S
C160 C162 1.363 . S
C160 H176 0.931 . S
C161 C160 1.370 . S
C161 C165 1.408 . S
C162 C160 1.363 . S
C162 C163 1.370 . S
C162 C166 1.524 . S
C163 C155 1.503 . S
C163 C162 1.370 . S
C163 C164 1.403 . S
C164 C163 1.403 . S
C164 C165 1.404 . S
C164 C167 1.539 . S
C165 C161 1.408 . S
C165 C164 1.404 . S
C165 H177 0.930 . S
C166 C162 1.524 . S
C166 H178 0.956 . S
C166 H179 0.961 . S
C166 H180 0.961 . S
C167 C164 1.539 . S
C167 H181 0.958 . S
C167 H182 0.961 . S
C167 H183 0.960 . S
H168 C152 0.931 . S
H169 C157 0.929 . S
H170 C158 0.960 . S
H171 C158 0.962 . S
H172 C158 0.960 . S
H173 C159 0.961 . S
H174 C159 0.961 . S
H175 C159 0.961 . S
H176 C160 0.931 . S
H177 C165 0.930 . S
H178 C166 0.956 . S
H179 C166 0.961 . S
H180 C166 0.961 . S
H181 C167 0.958 . S
H182 C167 0.961 . S
H183 C167 0.960 . S
C184 C185 1.391 . S
C184 C186 1.394 . S
C184 H200 0.931 . S
C185 C184 1.391 . S
C185 C189 1.376 . S
C186 C184 1.394 . S
C186 C187 1.369 . S
C186 C190 1.531 . S
C187 C186 1.369 . S
C187 C188 1.410 . S
C187 C195 1.503 . S
C188 C187 1.410 . S
C188 C189 1.392 . S
C188 C191 1.511 . S
C189 C185 1.376 . S
C189 C188 1.392 . S
C189 H201 0.929 . S
C190 C186 1.531 . S
C190 H202 0.960 . S
C190 H203 0.962 . S
C190 H204 0.960 . S
C191 C188 1.511 . S
C191 H205 0.961 . S
C191 H206 0.961 . S
C191 H207 0.961 . S
C192 C193 1.370 . S
C192 C194 1.363 . S
C192 H208 0.931 . S
C193 C192 1.370 . S
C193 C197 1.408 . S
C194 C192 1.363 . S
C194 C195 1.370 . S
C194 C198 1.524 . S
C195 C187 1.503 . S
C195 C194 1.370 . S
C195 C196 1.403 . S
C196 C195 1.403 . S
C196 C197 1.404 . S
C196 C199 1.539 . S
C197 C193 1.408 . S
C197 C196 1.404 . S
C197 H209 0.930 . S
C198 C194 1.524 . S
C198 H210 0.956 . S
C198 H211 0.961 . S
C198 H212 0.961 . S
C199 C196 1.539 . S
C199 H213 0.958 . S
C199 H214 0.961 . S
C199 H215 0.960 . S
H200 C184 0.931 . S
H201 C189 0.929 . S
H202 C190 0.960 . S
H203 C190 0.962 . S
H204 C190 0.960 . S
H205 C191 0.961 . S
H206 C191 0.961 . S
H207 C191 0.961 . S
H208 C192 0.931 . S
H209 C197 0.930 . S
H210 C198 0.956 . S
H211 C198 0.961 . S
H212 C198 0.961 . S
H213 C199 0.958 . S
H214 C199 0.961 . S
H215 C199 0.960 . S
C216 C217 1.391 . S
C216 C218 1.394 1_556 S
C216 H232 0.931 . S
C217 C216 1.391 . S
C217 C221 1.376 . S
C218 C216 1.394 1_554 S
C218 C219 1.369 . S
C218 C222 1.531 . S
C219 C218 1.369 . S
C219 C220 1.410 . S
C219 C227 1.503 . S
C220 C219 1.410 . S
C220 C221 1.392 1_554 S
C220 C223 1.511 . S
C221 C217 1.376 . S
C221 C220 1.392 1_556 S
C221 H233 0.929 . S
C222 C218 1.531 . S
C222 H234 0.960 . S
C222 H235 0.962 1_554 S
C222 H236 0.960 . S
C223 C220 1.511 . S
C223 H237 0.961 1_554 S
C223 H238 0.961 . S
C223 H239 0.961 . S
C224 C225 1.370 . S
C224 C226 1.363 . S
C224 H240 0.931 . S
C225 C224 1.370 . S
C225 C229 1.408 . S
C226 C224 1.363 . S
C226 C227 1.370 . S
C226 C230 1.524 1_554 S
C227 C219 1.503 . S
C227 C226 1.370 . S
C227 C228 1.403 . S
C228 C227 1.403 . S
C228 C229 1.404 . S
C228 C231 1.539 . S
C229 C225 1.408 . S
C229 C228 1.404 . S
C229 H241 0.930 . S
C230 C226 1.524 1_556 S
C230 H242 0.956 . S
C230 H243 0.961 . S
C230 H244 0.961 . S
C231 C228 1.539 . S
C231 H245 0.958 . S
C231 H246 0.961 . S
C231 H247 0.960 . S
H232 C216 0.931 . S
H233 C221 0.929 . S
H234 C222 0.960 . S
H235 C222 0.962 1_556 S
H236 C222 0.960 . S
H237 C223 0.961 1_556 S
H238 C223 0.961 . S
H239 C223 0.961 . S
H240 C224 0.931 . S
H241 C229 0.930 . S
H242 C230 0.956 . S
H243 C230 0.961 . S
H244 C230 0.961 . S
H245 C231 0.958 . S
H246 C231 0.961 . S
H247 C231 0.960 . S
C248 C249 1.391 . S
C248 C250 1.394 . S
C248 H264 0.931 . S
C249 C248 1.391 . S
C249 C253 1.376 . S
C250 C248 1.394 . S
C250 C251 1.369 . S
C250 C254 1.531 . S
C251 C250 1.369 . S
C251 C252 1.410 . S
C251 C259 1.503 . S
C252 C251 1.410 . S
C252 C253 1.392 . S
C252 C255 1.511 . S
C253 C249 1.376 . S
C253 C252 1.392 . S
C253 H265 0.929 . S
C254 C250 1.531 . S
C254 H266 0.960 . S
C254 H267 0.962 . S
C254 H268 0.960 . S
C255 C252 1.511 . S
C255 H269 0.961 . S
C255 H270 0.961 . S
C255 H271 0.961 . S
C256 C257 1.370 . S
C256 C258 1.363 . S
C256 H272 0.931 . S
C257 C256 1.370 . S
C257 C261 1.408 . S
C258 C256 1.363 . S
C258 C259 1.370 . S
C258 C262 1.524 . S
C259 C251 1.503 . S
C259 C258 1.370 . S
C259 C260 1.403 . S
C260 C259 1.403 . S
C260 C261 1.404 . S
C260 C263 1.539 . S
C261 C257 1.408 . S
C261 C260 1.404 . S
C261 H273 0.930 . S
C262 C258 1.524 . S
C262 H274 0.956 . S
C262 H275 0.961 . S
C262 H276 0.961 . S
C263 C260 1.539 . S
C263 H277 0.958 . S
C263 H278 0.961 . S
C263 H279 0.960 . S
H264 C248 0.931 . S
H265 C253 0.929 . S
H266 C254 0.960 . S
H267 C254 0.962 . S
H268 C254 0.960 . S
H269 C255 0.961 . S
H270 C255 0.961 . S
H271 C255 0.961 . S
H272 C256 0.931 . S
H273 C261 0.930 . S
H274 C262 0.956 . S
H275 C262 0.961 . S
H276 C262 0.961 . S
H277 C263 0.958 . S
H278 C263 0.961 . S
H279 C263 0.960 . S
C280 C281 1.391 . S
C280 C282 1.394 . S
C280 H296 0.931 . S
C281 C280 1.391 . S
C281 C285 1.376 . S
C282 C280 1.394 . S
C282 C283 1.369 . S
C282 C286 1.531 . S
C283 C282 1.369 . S
C283 C284 1.410 . S
C283 C291 1.503 . S
C284 C283 1.410 . S
C284 C285 1.392 . S
C284 C287 1.511 . S
C285 C281 1.376 . S
C285 C284 1.392 . S
C285 H297 0.929 . S
C286 C282 1.531 . S
C286 H298 0.960 . S
C286 H299 0.962 . S
C286 H300 0.960 . S
C287 C284 1.511 . S
C287 H301 0.961 . S
C287 H302 0.961 . S
C287 H303 0.961 . S
C288 C289 1.370 . S
C288 C290 1.363 . S
C288 H304 0.931 . S
C289 C288 1.370 . S
C289 C293 1.408 . S
C290 C288 1.363 . S
C290 C291 1.370 . S
C290 C294 1.524 . S
C291 C283 1.503 . S
C291 C290 1.370 . S
C291 C292 1.403 . S
C292 C291 1.403 . S
C292 C293 1.404 . S
C292 C295 1.539 . S
C293 C289 1.408 . S
C293 C292 1.404 . S
C293 H305 0.930 . S
C294 C290 1.524 . S
C294 H306 0.956 . S
C294 H307 0.961 . S
C294 H308 0.961 . S
C295 C292 1.539 . S
C295 H309 0.958 . S
C295 H310 0.961 . S
C295 H311 0.960 . S
H296 C280 0.931 . S
H297 C285 0.929 . S
H298 C286 0.960 . S
H299 C286 0.962 . S
H300 C286 0.960 . S
H301 C287 0.961 . S
H302 C287 0.961 . S
H303 C287 0.961 . S
H304 C288 0.931 . S
H305 C293 0.930 . S
H306 C294 0.956 . S
H307 C294 0.961 . S
H308 C294 0.961 . S
H309 C295 0.958 . S
H310 C295 0.961 . S
H311 C295 0.960 . S
C312 C313 1.391 . S
C312 C314 1.399 . S
C312 H328 0.931 1_455 S
C313 C312 1.391 . S
C313 C317 1.376 . S
C314 C312 1.399 . S
C314 C315 1.354 . S
C314 C318 1.541 1_455 S
C315 C314 1.354 . S
C315 C316 1.410 . S
C315 C323 1.503 . S
C316 C315 1.410 . S
C316 C317 1.392 . S
C316 C319 1.511 . S
C317 C313 1.376 . S
C317 C316 1.392 . S
C317 H329 0.929 . S
C318 C314 1.541 1_655 S
C318 H330 0.960 . S
C318 H331 0.962 1_655 S
C318 H332 0.960 . S
C319 C316 1.511 . S
C319 H333 0.961 . S
C319 H334 0.961 . S
C319 H335 0.961 . S
C320 C321 1.370 . S
C320 C322 1.363 . S
C320 H336 0.931 . S
C321 C320 1.370 . S
C321 C325 1.408 1_455 S
C322 C320 1.363 . S
C322 C323 1.370 . S
C322 C326 1.524 . S
C323 C315 1.503 . S
C323 C322 1.370 . S
C323 C324 1.403 1_455 S
C324 C323 1.403 1_655 S
C324 C325 1.404 . S
C324 C327 1.539 . S
C325 C321 1.408 1_655 S
C325 C324 1.404 . S
C325 H337 0.930 . S
C326 C322 1.524 . S
C326 H338 0.956 . S
C326 H339 0.961 . S
C326 H340 0.961 . S
C327 C324 1.539 . S
C327 H341 0.958 . S
C327 H342 0.961 . S
C327 H343 0.960 . S
H328 C312 0.931 1_655 S
H329 C317 0.929 . S
H330 C318 0.960 . S
H331 C318 0.962 1_455 S
H332 C318 0.960 . S
H333 C319 0.961 . S
H334 C319 0.961 . S
H335 C319 0.961 . S
H336 C320 0.931 . S
H337 C325 0.930 . S
H338 C326 0.956 . S
H339 C326 0.961 . S
H340 C326 0.961 . S
H341 C327 0.958 . S
H342 C327 0.961 . S
H343 C327 0.960 . S
C344 C345 1.391 . S
C344 C346 1.394 . S
C344 H360 0.931 . S
C345 C344 1.391 . S
C345 C349 1.376 . S
C346 C344 1.394 . S
C346 C347 1.369 . S
C346 C350 1.531 . S
C347 C346 1.369 . S
C347 C348 1.410 . S
C347 C355 1.503 1_554 S
C348 C347 1.410 . S
C348 C349 1.392 . S
C348 C351 1.511 . S
C349 C345 1.376 . S
C349 C348 1.392 . S
C349 H361 0.929 . S
C350 C346 1.531 . S
C350 H362 0.960 1_554 S
C350 H363 0.962 . S
C350 H364 0.960 . S
C351 C348 1.511 . S
C351 H365 0.961 . S
C351 H366 0.961 1_554 S
C351 H367 0.961 1_554 S
C352 C353 1.370 . S
C352 C354 1.363 . S
C352 H368 0.931 . S
C353 C352 1.370 . S
C353 C357 1.408 . S
C354 C352 1.363 . S
C354 C355 1.370 . S
C354 C358 1.524 . S
C355 C347 1.503 1_556 S
C355 C354 1.370 . S
C355 C356 1.403 . S
C356 C355 1.403 . S
C356 C357 1.404 . S
C356 C359 1.539 . S
C357 C353 1.408 . S
C357 C356 1.404 . S
C357 H369 0.930 . S
C358 C354 1.524 . S
C358 H370 0.956 . S
C358 H371 0.961 . S
C358 H372 0.961 . S
C359 C356 1.539 . S
C359 H373 0.958 . S
C359 H374 0.961 . S
C359 H375 0.960 . S
H360 C344 0.931 . S
H361 C349 0.929 . S
H362 C350 0.960 1_556 S
H363 C350 0.962 . S
H364 C350 0.960 . S
H365 C351 0.961 . S
H366 C351 0.961 1_556 S
H367 C351 0.961 1_556 S
H368 C352 0.931 . S
H369 C357 0.930 . S
H370 C358 0.956 . S
H371 C358 0.961 . S
H372 C358 0.961 . S
H373 C359 0.958 . S
H374 C359 0.961 . S
H375 C359 0.960 . S
C376 C377 1.391 . S
C376 C378 1.394 . S
C376 H392 0.931 . S
C377 C376 1.391 . S
C377 C381 1.376 . S
C378 C376 1.394 . S
C378 C379 1.369 . S
C378 C382 1.531 . S
C379 C378 1.369 . S
C379 C380 1.410 . S
C379 C387 1.503 . S
C380 C379 1.410 . S
C380 C381 1.392 . S
C380 C383 1.511 . S
C381 C377 1.376 . S
C381 C380 1.392 . S
C381 H393 0.929 . S
C382 C378 1.531 . S
C382 H394 0.960 . S
C382 H395 0.962 . S
C382 H396 0.960 . S
C383 C380 1.511 . S
C383 H397 0.961 . S
C383 H398 0.961 . S
C383 H399 0.961 . S
C384 C385 1.370 . S
C384 C386 1.363 . S
C384 H400 0.931 . S
C385 C384 1.370 . S
C385 C389 1.408 . S
C386 C384 1.363 . S
C386 C387 1.370 . S
C386 C390 1.524 . S
C387 C379 1.503 . S
C387 C386 1.370 . S
C387 C388 1.403 . S
C388 C387 1.403 . S
C388 C389 1.404 . S
C388 C391 1.539 . S
C389 C385 1.408 . S
C389 C388 1.404 . S
C389 H401 0.930 . S
C390 C386 1.524 . S
C390 H402 0.956 . S
C390 H403 0.961 . S
C390 H404 0.961 . S
C391 C388 1.539 . S
C391 H405 0.958 . S
C391 H406 0.961 . S
C391 H407 0.960 . S
H392 C376 0.931 . S
H393 C381 0.929 . S
H394 C382 0.960 . S
H395 C382 0.962 . S
H396 C382 0.960 . S
H397 C383 0.961 . S
H398 C383 0.961 . S
H399 C383 0.961 . S
H400 C384 0.931 . S
H401 C389 0.930 . S
H402 C390 0.956 . S
H403 C390 0.961 . S
H404 C390 0.961 . S
H405 C391 0.958 . S
H406 C391 0.961 . S
H407 C391 0.960 . S
C121 C7 2.158 . S
C129 C82 2.173 . S
C153 C51 3.025 . S
C161 C11 2.996 . S
C185 C47 1.527 . S
C193 C87 1.569 . S
C217 C91 2.608 . S
C225 C16 2.516 . S
C249 C42 2.670 1_565 S
C257 C2 2.623 . S
C281 C96 1.564 . S
C289 C56 1.526 . S
C313 C19 0.492 . S
C321 C10 0.594 . S
C345 C50 0.537 . S
C353 C59 0.534 . S
C377 C99 0.459 . S
C385 C90 0.570 . S
