# Generated by pormake.
# Topology lll, (7)-cn, num edge types: 1
# Building blocks:
#     Node 0, Type 0, BuildingBlock: NUHQUE_clean_sbu_2, # of connection points: 7
#     Node 1, Type 0, BuildingBlock: NUHQUE_clean_sbu_2, # of connection points: 7
#     Node 2, Type 0, BuildingBlock: NUHQUE_clean_sbu_2, # of connection points: 7
#     Node 3, Type 0, BuildingBlock: NUHQUE_clean_sbu_2, # of connection points: 7
#     Node 4, Type 0, BuildingBlock: NUHQUE_clean_sbu_2, # of connection points: 7
#     Node 5, Type 0, BuildingBlock: NUHQUE_clean_sbu_2, # of connection points: 7
#     Node 6, Type 0, BuildingBlock: NUHQUE_clean_sbu_2, # of connection points: 7
#     Node 7, Type 0, BuildingBlock: NUHQUE_clean_sbu_2, # of connection points: 7
#     Node 8, Type 0, BuildingBlock: NUHQUE_clean_sbu_2, # of connection points: 7
#     Node 9, Type 0, BuildingBlock: NUHQUE_clean_sbu_2, # of connection points: 7
#     Node 10, Type 0, BuildingBlock: NUHQUE_clean_sbu_2, # of connection points: 7
#     Node 11, Type 0, BuildingBlock: NUHQUE_clean_sbu_2, # of connection points: 7
#     Node 12, Type 0, BuildingBlock: NUHQUE_clean_sbu_2, # of connection points: 7
#     Node 13, Type 0, BuildingBlock: NUHQUE_clean_sbu_2, # of connection points: 7
#     Node 14, Type 0, BuildingBlock: NUHQUE_clean_sbu_2, # of connection points: 7
#     Node 15, Type 0, BuildingBlock: NUHQUE_clean_sbu_2, # of connection points: 7
#     Edge 16, Type (0, 0), BuildingBlock: OJICUG_clean_linker_0, # of connection points: 2
#     Edge 17, Type (0, 0), BuildingBlock: OJICUG_clean_linker_0, # of connection points: 2
#     Edge 18, Type (0, 0), BuildingBlock: OJICUG_clean_linker_0, # of connection points: 2
#     Edge 19, Type (0, 0), BuildingBlock: OJICUG_clean_linker_0, # of connection points: 2
#     Edge 20, Type (0, 0), BuildingBlock: OJICUG_clean_linker_0, # of connection points: 2
#     Edge 21, Type (0, 0), BuildingBlock: OJICUG_clean_linker_0, # of connection points: 2
#     Edge 22, Type (0, 0), BuildingBlock: OJICUG_clean_linker_0, # of connection points: 2
#     Edge 23, Type (0, 0), BuildingBlock: OJICUG_clean_linker_0, # of connection points: 2
#     Edge 24, Type (0, 0), BuildingBlock: OJICUG_clean_linker_0, # of connection points: 2
#     Edge 25, Type (0, 0), BuildingBlock: OJICUG_clean_linker_0, # of connection points: 2
#     Edge 26, Type (0, 0), BuildingBlock: OJICUG_clean_linker_0, # of connection points: 2
#     Edge 27, Type (0, 0), BuildingBlock: OJICUG_clean_linker_0, # of connection points: 2
#     Edge 28, Type (0, 0), BuildingBlock: OJICUG_clean_linker_0, # of connection points: 2
#     Edge 29, Type (0, 0), BuildingBlock: OJICUG_clean_linker_0, # of connection points: 2
#     Edge 30, Type (0, 0), BuildingBlock: OJICUG_clean_linker_0, # of connection points: 2
#     Edge 31, Type (0, 0), BuildingBlock: OJICUG_clean_linker_0, # of connection points: 2
#     Edge 32, Type (0, 0), BuildingBlock: OJICUG_clean_linker_0, # of connection points: 2
#     Edge 33, Type (0, 0), BuildingBlock: OJICUG_clean_linker_0, # of connection points: 2
#     Edge 34, Type (0, 0), BuildingBlock: OJICUG_clean_linker_0, # of connection points: 2
#     Edge 35, Type (0, 0), BuildingBlock: OJICUG_clean_linker_0, # of connection points: 2
#     Edge 36, Type (0, 0), BuildingBlock: OJICUG_clean_linker_0, # of connection points: 2
#     Edge 37, Type (0, 0), BuildingBlock: OJICUG_clean_linker_0, # of connection points: 2
#     Edge 38, Type (0, 0), BuildingBlock: OJICUG_clean_linker_0, # of connection points: 2
#     Edge 39, Type (0, 0), BuildingBlock: OJICUG_clean_linker_0, # of connection points: 2
#     Edge 40, Type (0, 0), BuildingBlock: OJICUG_clean_linker_0, # of connection points: 2
#     Edge 41, Type (0, 0), BuildingBlock: OJICUG_clean_linker_0, # of connection points: 2
#     Edge 42, Type (0, 0), BuildingBlock: OJICUG_clean_linker_0, # of connection points: 2
#     Edge 43, Type (0, 0), BuildingBlock: OJICUG_clean_linker_0, # of connection points: 2
#     Edge 44, Type (0, 0), BuildingBlock: OJICUG_clean_linker_0, # of connection points: 2
#     Edge 45, Type (0, 0), BuildingBlock: OJICUG_clean_linker_0, # of connection points: 2
#     Edge 46, Type (0, 0), BuildingBlock: OJICUG_clean_linker_0, # of connection points: 2
#     Edge 47, Type (0, 0), BuildingBlock: OJICUG_clean_linker_0, # of connection points: 2
#     Edge 48, Type (0, 0), BuildingBlock: OJICUG_clean_linker_0, # of connection points: 2
#     Edge 49, Type (0, 0), BuildingBlock: OJICUG_clean_linker_0, # of connection points: 2
#     Edge 50, Type (0, 0), BuildingBlock: OJICUG_clean_linker_0, # of connection points: 2
#     Edge 51, Type (0, 0), BuildingBlock: OJICUG_clean_linker_0, # of connection points: 2
#     Edge 52, Type (0, 0), BuildingBlock: OJICUG_clean_linker_0, # of connection points: 2
#     Edge 53, Type (0, 0), BuildingBlock: OJICUG_clean_linker_0, # of connection points: 2
#     Edge 54, Type (0, 0), BuildingBlock: OJICUG_clean_linker_0, # of connection points: 2
#     Edge 55, Type (0, 0), BuildingBlock: OJICUG_clean_linker_0, # of connection points: 2
#     Edge 56, Type (0, 0), BuildingBlock: OJICUG_clean_linker_0, # of connection points: 2
#     Edge 57, Type (0, 0), BuildingBlock: OJICUG_clean_linker_0, # of connection points: 2
#     Edge 58, Type (0, 0), BuildingBlock: OJICUG_clean_linker_0, # of connection points: 2
#     Edge 59, Type (0, 0), BuildingBlock: OJICUG_clean_linker_0, # of connection points: 2
#     Edge 60, Type (0, 0), BuildingBlock: OJICUG_clean_linker_0, # of connection points: 2
#     Edge 61, Type (0, 0), BuildingBlock: OJICUG_clean_linker_0, # of connection points: 2
#     Edge 62, Type (0, 0), BuildingBlock: OJICUG_clean_linker_0, # of connection points: 2
#     Edge 63, Type (0, 0), BuildingBlock: OJICUG_clean_linker_0, # of connection points: 2
#     Edge 64, Type (0, 0), BuildingBlock: OJICUG_clean_linker_0, # of connection points: 2
#     Edge 65, Type (0, 0), BuildingBlock: OJICUG_clean_linker_0, # of connection points: 2
#     Edge 66, Type (0, 0), BuildingBlock: OJICUG_clean_linker_0, # of connection points: 2
#     Edge 67, Type (0, 0), BuildingBlock: OJICUG_clean_linker_0, # of connection points: 2
#     Edge 68, Type (0, 0), BuildingBlock: OJICUG_clean_linker_0, # of connection points: 2
#     Edge 69, Type (0, 0), BuildingBlock: OJICUG_clean_linker_0, # of connection points: 2
#     Edge 70, Type (0, 0), BuildingBlock: OJICUG_clean_linker_0, # of connection points: 2
#     Edge 71, Type (0, 0), BuildingBlock: OJICUG_clean_linker_0, # of connection points: 2
# Relax obj value: 0.519
# Max RMSD: 0.286
# Mean RMSD: 0.286
data_MOF--net-lll--node1-NUHQUE_clean_sbu_2--edge1-OJICUG_clean_linker_0
_symmetry_space_group_name_H-M    P1
_symmetry_Int_Tables_number       1
_symmetry_cell_setting            triclinic
loop_
_symmetry_equiv_pos_as_xyz
'x, y, z'
_cell_length_a     37.342055
_cell_length_b     37.87355
_cell_length_c     34.143722
_cell_angle_alpha  90.655855
_cell_angle_beta   88.739438
_cell_angle_gamma 90.966141
loop_
_atom_site_label
_atom_site_type_symbol
_atom_site_fract_x
_atom_site_fract_y
_atom_site_fract_z
_atom_type_partial_charge
O0 O 0.71556 0.06336 1.0456 0.0
Tb1 Tb 0.75407 0.10594 1.05568 0.0
Eu2 Eu 0.67617 0.11483 0.1067 0.0
C3 C 0.71313 0.04494 1.01259 0.0
O4 O 0.69025 0.01824 1.01157 0.0
C5 C 0.69586 0.15325 1.02522 0.0
O6 O 0.67469 0.16736 0.13557 0.0
C7 C 0.61765 0.08592 0.13402 0.0
C8 C 0.69972 0.1918 0.13308 0.0
O9 O 0.72764 0.18799 0.10955 0.0
C10 C 0.75251 0.11862 0.14614 0.0
C11 C 0.59817 0.07704 0.17092 0.0
C12 C 0.56567 0.05866 0.16696 0.0
C13 C 0.54301 0.0524 0.1994 0.0
C14 C 0.55316 0.06459 0.23642 0.0
C15 C 0.58568 0.0829 0.2416 0.0
C16 C 0.60846 0.08933 0.20858 0.0
O17 O 0.73027 0.15231 1.03212 0.0
O18 O 0.67326 0.13078 1.04241 0.0
O19 O 0.80462 0.07853 1.05869 0.0
O20 O 0.79675 0.11318 1.01192 0.0
C21 C 0.82021 0.09347 1.02855 0.0
O22 O 0.72131 0.10208 0.14755 0.0
O23 O 0.76659 0.12867 0.11253 0.0
O24 O 0.62113 0.11967 0.12647 0.0
O25 O 0.64552 0.06707 0.12271 0.0
H26 H 0.55746 0.04998 0.13807 0.0
H27 H 0.53598 0.05907 0.26174 0.0
H28 H 0.63337 0.104 0.21199 0.0
O29 O 0.9266 0.21032 0.28111 0.0
Tb30 Tb 0.88319 0.21371 0.32488 0.0
Eu31 Eu 0.83806 0.11448 0.36307 0.0
C32 C 0.9195 0.19886 0.24549 0.0
O33 O 0.89197 0.17747 0.24079 0.0
C34 C 0.8287 0.15973 0.28683 0.0
O35 O 0.79666 0.07613 0.3396 0.0
C36 C 0.88781 0.07758 0.39346 0.0
C37 C 0.76709 0.06668 0.3584 0.0
O38 O 0.74695 0.04122 0.34377 0.0
C39 C 0.8489 0.187 0.40147 0.0
C40 C 0.91083 0.07473 0.42768 0.0
C41 C 0.94101 0.05344 0.42373 0.0
C42 C 0.96174 0.04588 0.45616 0.0
C43 C 0.95245 0.06089 0.49287 0.0
C44 C 0.92253 0.08286 0.49734 0.0
C45 C 0.90152 0.08954 0.46457 0.0
O46 O 0.83601 0.19356 0.29386 0.0
O47 O 0.84875 0.13515 0.30194 0.0
O48 O 0.86255 0.2666 0.3185 0.0
O49 O 0.90238 0.2579 0.36102 0.0
C50 C 0.88289 0.28139 0.34469 0.0
O51 O 0.82573 0.16064 0.40257 0.0
O52 O 0.87749 0.1834 0.37838 0.0
O53 O 0.85342 0.07138 0.39968 0.0
O54 O 0.89488 0.10304 0.36833 0.0
H55 H 0.94743 0.04135 0.39553 0.0
H56 H 0.96844 0.05538 0.51814 0.0
H57 H 0.87793 0.10569 0.46784 0.0
O58 O 0.77588 0.37698 0.52119 0.0
Tb59 Tb 0.77534 0.34258 0.57173 0.0
Eu60 Eu 0.85485 0.33541 0.60034 0.0
C61 C 0.75388 0.36644 0.49361 0.0
O62 O 0.73942 0.33465 0.49624 0.0
C63 C 0.82473 0.29499 0.52128 0.0
O64 O 0.8812 0.29174 0.63115 0.0
C65 C 0.89537 0.39037 0.61274 0.0
C66 C 0.86529 0.26071 0.6328 0.0
O67 O 0.84082 0.25285 0.60687 0.0
C68 C 0.78691 0.30943 0.64935 0.0
C69 C 0.91052 0.40659 0.64856 0.0
C70 C 0.93968 0.4305 0.6449 0.0
C71 C 0.95756 0.44311 0.67829 0.0
C72 C 0.94529 0.43208 0.71541 0.0
C73 C 0.91647 0.40819 0.71977 0.0
C74 C 0.89897 0.39541 0.68624 0.0
O75 O 0.79142 0.29952 0.53353 0.0
O76 O 0.85184 0.31188 0.53815 0.0
O77 O 0.71768 0.34274 0.57207 0.0
O78 O 0.74611 0.3759 0.61345 0.0
C79 C 0.71458 0.36618 0.60047 0.0
O80 O 0.81452 0.33119 0.65121 0.0
O81 O 0.77523 0.30102 0.61475 0.0
O82 O 0.908 0.35909 0.60359 0.0
O83 O 0.86045 0.39254 0.60816 0.0
H84 H 0.94931 0.43815 0.61599 0.0
H85 H 0.95841 0.44202 0.74144 0.0
H86 H 0.87724 0.37623 0.68933 0.0
O87 O 0.59012 0.29192 0.79676 0.0
Tb88 Tb 0.621 0.24766 0.8167 0.0
Eu89 Eu 0.6588 0.32176 0.8601 0.0
C90 C 0.57217 0.29383 0.76391 0.0
O91 O 0.55358 0.32242 0.75832 0.0
C92 C 0.68599 0.28816 0.77889 0.0
O93 O 0.69903 0.35693 0.88939 0.0
C94 C 0.59844 0.34748 0.88516 0.0
C95 C 0.72941 0.34421 0.90086 0.0
O96 O 0.73864 0.3123 0.88959 0.0
C97 C 0.65593 0.24635 0.90005 0.0
C98 C 0.58679 0.36848 0.92025 0.0
C99 C 0.56599 0.39854 0.91417 0.0
C100 C 0.55584 0.42077 0.9456 0.0
C101 C 0.56625 0.41236 0.98345 0.0
C102 C 0.58678 0.38267 0.99062 0.0
C103 C 0.59727 0.36055 0.95889 0.0
O104 O 0.67378 0.25669 0.78937 0.0
O105 O 0.67367 0.31717 0.79572 0.0
O106 O 0.62357 0.19773 0.78438 0.0
O107 O 0.57936 0.20661 0.82166 0.0
C108 C 0.59506 0.18281 0.79991 0.0
O109 O 0.6766 0.27373 0.89206 0.0
O110 O 0.62725 0.23928 0.87948 0.0
O111 O 0.6201 0.36406 0.86041 0.0
O112 O 0.60681 0.31419 0.8899 0.0
H113 H 0.55826 0.40498 0.8847 0.0
H114 H 0.55758 0.42868 1.00809 0.0
H115 H 0.61341 0.33766 0.96421 0.0
O116 O 0.70836 0.42466 0.33086 0.0
Tb117 Tb 0.74263 0.37872 0.33035 0.0
Eu118 Eu 0.66888 0.3643 0.2843 0.0
C119 C 0.7032 0.44307 0.36339 0.0
O120 O 0.68338 0.47134 0.36312 0.0
C121 C 0.68514 0.32879 0.36711 0.0
O122 O 0.6643 0.31047 0.25905 0.0
C123 C 0.61412 0.39862 0.26045 0.0
C124 C 0.69111 0.28881 0.26089 0.0
O125 O 0.71839 0.29661 0.28313 0.0
C126 C 0.74786 0.35955 0.2409 0.0
C127 C 0.59678 0.41009 0.22435 0.0
C128 C 0.56794 0.43326 0.22832 0.0
C129 C 0.5484 0.44276 0.19564 0.0
C130 C 0.55758 0.4285 0.15869 0.0
C131 C 0.58598 0.40478 0.154 0.0
C132 C 0.60593 0.39589 0.187 0.0
O133 O 0.71941 0.33211 0.3585 0.0
O134 O 0.66189 0.34779 0.34832 0.0
O135 O 0.79509 0.40476 0.33154 0.0
O136 O 0.77829 0.37407 0.37944 0.0
C137 C 0.80518 0.39209 0.36467 0.0
O138 O 0.71382 0.36773 0.23746 0.0
O139 O 0.7625 0.35726 0.27526 0.0
O140 O 0.61375 0.36443 0.26636 0.0
O141 O 0.64416 0.41465 0.27092 0.0
H142 H 0.56055 0.44385 0.25698 0.0
H143 H 0.54224 0.43563 0.13343 0.0
H144 H 0.62761 0.37732 0.18389 0.0
O145 O 0.58029 0.19166 0.60407 0.0
Tb146 Tb 0.61965 0.23205 0.58739 0.0
Eu147 Eu 0.63364 0.15568 0.53373 0.0
C148 C 0.56269 0.19022 0.63809 0.0
O149 O 0.53837 0.16511 0.64298 0.0
C150 C 0.67086 0.1763 0.6135 0.0
O151 O 0.67667 0.12444 0.50356 0.0
C152 C 0.57573 0.12217 0.51168 0.0
C153 C 0.70714 0.13869 0.49149 0.0
O154 O 0.71502 0.17163 0.50072 0.0
C155 C 0.64172 0.23584 0.49637 0.0
C156 C 0.56236 0.10451 0.47545 0.0
C157 C 0.53634 0.0771 0.47913 0.0
C158 C 0.52602 0.05656 0.44636 0.0
C159 C 0.54181 0.06444 0.40962 0.0
C160 C 0.56776 0.09143 0.40509 0.0
C161 C 0.57796 0.11161 0.43814 0.0
O162 O 0.67061 0.20917 0.60194 0.0
O163 O 0.64834 0.15321 0.59812 0.0
O164 O 0.59171 0.28067 0.60405 0.0
O165 O 0.6384 0.26733 0.63348 0.0
C166 C 0.61372 0.29089 0.63113 0.0
O167 O 0.65029 0.20211 0.49491 0.0
O168 O 0.62515 0.25037 0.52692 0.0
O169 O 0.60295 0.10679 0.52758 0.0
O170 O 0.5785 0.15695 0.51279 0.0
H171 H 0.52514 0.07092 0.50784 0.0
H172 H 0.53371 0.04957 0.38388 0.0
H173 H 0.59853 0.13198 0.43505 0.0
O174 O 0.79419 0.08915 0.84271 0.0
Tb175 Tb 0.75119 0.12705 0.83969 0.0
Eu176 Eu 0.82992 0.15571 0.79473 0.0
C177 C 0.7991 0.06557 0.87037 0.0
O178 O 0.82615 0.0441 0.86543 0.0
C179 C 0.80644 0.17257 0.8835 0.0
O180 O 0.82332 0.21296 0.81241 0.0
C181 C 0.89197 0.13832 0.76512 0.0
C182 C 0.83351 0.24059 0.79207 0.0
O183 O 0.8313 0.27211 0.80829 0.0
C184 C 0.75413 0.14978 0.75175 0.0
C185 C 0.91092 0.12286 0.73036 0.0
C186 C 0.94291 0.10486 0.73687 0.0
C187 C 0.96376 0.09197 0.70534 0.0
C188 C 0.95221 0.09654 0.66715 0.0
C189 C 0.92009 0.11345 0.6596 0.0
C190 C 0.89919 0.12682 0.69136 0.0
O191 O 0.77205 0.16972 0.87592 0.0
O192 O 0.83015 0.15509 0.86169 0.0
O193 O 0.70966 0.08758 0.82813 0.0
O194 O 0.70121 0.12413 0.87418 0.0
C195 C 0.68606 0.09887 0.85369 0.0
O196 O 0.7884 0.14254 0.74903 0.0
O197 O 0.73811 0.15407 0.78602 0.0
O198 O 0.87842 0.16994 0.76171 0.0
O199 O 0.8723 0.11695 0.78741 0.0
H200 H 0.95198 0.10146 0.76653 0.0
H201 H 0.96796 0.0858 0.64284 0.0
H202 H 0.87449 0.14033 0.68583 0.0
O203 O 0.94319 0.29873 0.08784 0.0
Tb204 Tb 0.89566 0.27038 1.06673 0.0
Eu205 Eu 0.84639 0.35825 1.03219 0.0
C206 C 0.96214 0.29263 0.1194 0.0
O207 O 0.9914 0.31177 0.12438 0.0
C208 C 0.84362 0.3202 0.1112 0.0
O209 O 0.80604 0.3942 1.06188 0.0
C210 C 0.89018 0.39733 0.99095 0.0
C211 C 0.77776 0.40585 1.04421 0.0
O212 O 0.75797 0.43008 1.06139 0.0
C213 C 0.84991 0.28243 0.99464 0.0
C214 C 0.9105 0.40533 0.95441 0.0
C215 C 0.93873 0.4302 0.95703 0.0
C216 C 0.95628 0.44304 0.92321 0.0
C217 C 0.94636 0.42936 0.8866 0.0
C218 C 0.91818 0.40464 0.88312 0.0
C219 C 0.89984 0.39277 0.9172 0.0
O220 O 0.8475 0.28693 0.1002 0.0
O221 O 0.86266 0.34493 0.09331 0.0
O222 O 0.89079 0.21598 0.08762 0.0
O223 O 0.91588 0.2256 1.03261 0.0
C224 C 0.90649 0.20127 1.05734 0.0
O225 O 0.82774 0.30856 1.00079 0.0
O226 O 0.88271 0.28602 1.00751 0.0
O227 O 0.85513 0.40032 0.99051 0.0
O228 O 0.90141 0.37254 1.01436 0.0
H229 H 0.94564 0.44111 0.98544 0.0
H230 H 0.96004 0.43874 0.86026 0.0
H231 H 0.87727 0.37458 0.91476 0.0
O232 O 0.25953 0.56632 0.50183 0.0
Tb233 Tb 0.27038 0.60553 0.54693 0.0
Eu234 Eu 0.18391 0.64736 0.59351 0.0
C235 C 0.23393 0.57006 0.47653 0.0
O236 O 0.20792 0.59199 0.4846 0.0
C237 C 0.22344 0.66609 0.51306 0.0
O238 O 0.1646 0.7009 0.61153 0.0
C239 C 0.13695 0.59952 0.61483 0.0
C240 C 0.15848 0.70877 0.6486 0.0
O241 O 0.16536 0.68542 0.67546 0.0
C242 C 0.25217 0.62199 0.63169 0.0
C243 C 0.12079 0.58416 0.65072 0.0
C244 C 0.0936 0.55833 0.64681 0.0
C245 C 0.07705 0.54308 0.68001 0.0
C246 C 0.08799 0.55425 0.71733 0.0
C247 C 0.1148 0.58032 0.72185 0.0
C248 C 0.13129 0.59534 0.6884 0.0
O249 O 0.2553 0.65836 0.52657 0.0
O250 O 0.19376 0.65229 0.52838 0.0
O251 O 0.32578 0.6198 0.53163 0.0
O252 O 0.31585 0.5869 0.57996 0.0
C253 C 0.34084 0.60211 0.55902 0.0
O254 O 0.23126 0.64928 0.63236 0.0
O255 O 0.24697 0.59729 0.60499 0.0
O256 O 0.12873 0.63235 0.6076 0.0
O257 O 0.1707 0.5924 0.60686 0.0
H258 H 0.08554 0.54987 0.61781 0.0
H259 H 0.075 0.54315 0.74324 0.0
H260 H 0.15205 0.61541 0.69163 0.0
O261 O 0.37028 0.73212 0.76309 0.0
Tb262 Tb 0.3522 0.68881 0.80047 0.0
Eu263 Eu 0.3382 0.61732 0.85826 0.0
C264 C 0.39342 0.72737 0.73394 0.0
O265 O 0.40956 0.69693 0.73025 0.0
C266 C 0.3421 0.61798 0.76545 0.0
O267 O 0.29367 0.59903 0.89842 0.0
C268 C 0.39424 0.5825 0.87616 0.0
C269 C 0.26061 0.60888 0.89325 0.0
O270 O 0.25166 0.62003 0.85859 0.0
C271 C 0.352 0.69856 0.89072 0.0
C272 C 0.41236 0.57253 0.91198 0.0
C273 C 0.44084 0.54901 0.90869 0.0
C274 C 0.45697 0.53619 0.94223 0.0
C275 C 0.44468 0.54779 0.9793 0.0
C276 C 0.41572 0.57089 0.98311 0.0
C277 C 0.3994 0.58315 0.94928 0.0
O278 O 0.3684 0.6407 0.77153 0.0
O279 O 0.32154 0.60895 0.79554 0.0
O280 O 0.30187 0.7028 0.77401 0.0
O281 O 0.3005 0.67312 0.82608 0.0
C282 C 0.28115 0.68687 0.79941 0.0
O283 O 0.33379 0.66845 0.89387 0.0
O284 O 0.3696 0.7072 0.85804 0.0
O285 O 0.3625 0.56765 0.87165 0.0
O286 O 0.39588 0.61609 0.86629 0.0
H287 H 0.44996 0.54009 0.87992 0.0
H288 H 0.45648 0.53744 1.00546 0.0
H289 H 0.37652 0.60034 0.95193 0.0
O290 O 0.34291 0.89404 1.02909 0.0
Tb291 Tb 0.30068 0.8626 1.05804 0.0
Eu292 Eu 0.3694 0.82918 0.09808 0.0
C293 C 0.34055 0.90628 0.99304 0.0
O294 O 0.36553 0.92817 0.97988 0.0
C295 C 0.33849 0.80034 1.01986 0.0
O296 O 0.42102 0.8 0.08722 0.0
C297 C 0.39067 0.88923 0.12598 0.0
C298 C 0.42842 0.76877 0.10056 0.0
O299 O 0.46061 0.75615 0.09421 0.0
C300 C 0.29657 0.8315 0.1447 0.0
C301 C 0.38778 0.91335 0.15992 0.0
C302 C 0.40788 0.94463 0.15714 0.0
C303 C 0.41602 0.96448 0.19065 0.0
C304 C 0.39994 0.95522 0.22661 0.0
C305 C 0.3785 0.92452 0.23011 0.0
C306 C 0.37315 0.9029 0.19666 0.0
O307 O 0.30684 0.80924 1.03393 0.0
O308 O 0.36669 0.81732 1.03314 0.0
O309 O 0.26164 0.90506 1.06039 0.0
O310 O 0.25349 0.86147 1.02217 0.0
C311 C 0.24081 0.89159 1.03406 0.0
O312 O 0.32309 0.80975 0.13664 0.0
O313 O 0.29097 0.85872 0.12184 0.0
O314 O 0.40674 0.85932 0.13257 0.0
O315 O 0.36394 0.88656 0.10145 0.0
H316 H 0.42042 0.95162 0.12924 0.0
H317 H 0.40685 0.97003 0.25283 0.0
H318 H 0.35909 0.87776 0.19944 0.0
O319 O 0.10866 0.83258 0.32252 0.0
Tb320 Tb 0.13556 0.78169 0.32374 0.0
Eu321 Eu 0.16593 0.8425 0.36858 0.0
C322 C 0.08943 0.84435 0.29355 0.0
O323 O 0.07755 0.87676 0.29587 0.0
C324 C 0.19921 0.81743 0.28096 0.0
O325 O 0.1171 0.81037 0.39165 0.0
C326 C 0.15963 0.90748 0.39551 0.0
C327 C 0.11258 0.7984 0.42793 0.0
O328 O 0.08566 0.77672 0.43585 0.0
C329 C 0.19182 0.76826 0.39388 0.0
C330 C 0.141 0.92901 0.42715 0.0
C331 C 0.10621 0.94231 0.42132 0.0
C332 C 0.0875 0.95986 0.45197 0.0
C333 C 0.10308 0.9629 0.4887 0.0
C334 C 0.13746 0.95089 0.49517 0.0
C335 C 0.15739 0.93638 0.46353 0.0
O336 O 0.17942 0.78846 0.28242 0.0
O337 O 0.1954 0.84289 0.30791 0.0
O338 O 0.11566 0.7394 0.2858 0.0
O339 O 0.09269 0.7457 0.34262 0.0
C340 C 0.093 0.72572 0.31134 0.0
O341 O 0.19968 0.80226 0.39867 0.0
O342 O 0.16702 0.75752 0.36927 0.0
O343 O 0.18594 0.88657 0.4051 0.0
O344 O 0.13925 0.89324 0.36833 0.0
H345 H 0.09356 0.93886 0.39325 0.0
H346 H 0.0884 0.97533 0.5128 0.0
H347 H 0.18538 0.93098 0.46726 0.0
O348 O 0.21975 0.87158 0.85707 0.0
Tb349 Tb 0.17771 0.84668 0.82176 0.0
Eu350 Eu 0.11095 0.85419 0.75728 0.0
C351 C 0.22453 0.86202 0.89359 0.0
O352 O 0.20278 0.83846 0.90963 0.0
C353 C 0.10155 0.83694 0.84782 0.0
O354 O 0.06758 0.84733 0.71277 0.0
C355 C 0.11867 0.92227 0.75969 0.0
C356 C 0.06844 0.82642 0.68187 0.0
O357 O 0.04289 0.82865 0.65623 0.0
C358 C 0.19231 0.84074 0.73185 0.0
C359 C 0.11613 0.94861 0.72819 0.0
C360 C 0.09342 0.97723 0.73459 0.0
C361 C 0.08491 -0.00025 0.70393 0.0
C362 C 0.10142 -0.00552 0.66687 0.0
C363 C 0.12522 0.96651 0.65971 0.0
C364 C 0.132 0.94324 0.6906 0.0
O365 O 0.12756 0.86058 0.85097 0.0
O366 O 0.09402 0.82515 0.81253 0.0
O367 O 0.19306 0.79735 0.84793 0.0
O368 O 0.1613 0.79541 0.79743 0.0
C369 C 0.1765 0.77657 0.82358 0.0
O370 O 0.15901 0.82965 0.72661 0.0
O371 O 0.20129 0.85868 0.7638 0.0
O372 O 0.08849 0.90601 0.76928 0.0
O373 O 0.14592 0.901 0.75792 0.0
H374 H 0.08105 0.98095 0.76334 0.0
H375 H 0.09395 0.01088 0.64267 0.0
H376 H 0.14893 0.92066 0.6852 0.0
O377 O 0.06179 0.77911 0.11874 0.0
Tb378 Tb 0.09611 0.7653 0.06869 0.0
Eu379 Eu 0.12709 0.68098 1.02161 0.0
C380 C 0.06345 0.76306 0.15266 0.0
O381 O 0.07293 0.7299 0.15356 0.0
C382 C 0.13456 0.70255 0.10927 0.0
O383 O 0.18318 0.69725 1.03912 0.0
C384 C 0.11246 0.61902 0.99206 0.0
C385 C 0.21435 0.68496 1.0274 0.0
O386 O 0.24313 0.69636 1.04538 0.0
C387 C 0.08657 0.74552 0.9819 0.0
C388 C 0.10124 0.60107 0.95541 0.0
C389 C 0.07494 0.57408 0.95828 0.0
C390 C 0.06341 0.55574 0.92476 0.0
C391 C 0.07917 0.56403 0.88835 0.0
C392 C 0.10548 0.59065 0.88466 0.0
C393 C 0.11633 0.60961 0.91823 0.0
O394 O 0.13583 0.73655 0.10156 0.0
O395 O 0.11644 0.68055 0.08676 0.0
O396 O 0.09606 0.82283 0.07246 0.0
O397 O 0.13534 0.79712 1.03651 0.0
C398 C 0.12256 0.8274 1.04785 0.0
O399 O 0.11336 0.72344 0.97916 0.0
O400 O 0.06834 0.74981 1.0153 0.0
O401 O 0.14507 0.63246 0.99324 0.0
O402 O 0.08838 0.63851 1.01054 0.0
H403 H 0.06305 0.56771 0.98664 0.0
H404 H 0.07096 0.5495 0.86238 0.0
H405 H 0.13639 0.63045 0.91546 0.0
O406 O 0.25535 0.56835 0.28864 0.0
Tb407 Tb 0.22927 0.61724 0.30587 0.0
Eu408 Eu 0.30742 0.63074 0.25615 0.0
C409 C 0.26405 0.54368 0.31343 0.0
O410 O 0.28265 0.51665 0.30053 0.0
C411 C 0.29002 0.65912 0.34856 0.0
O412 O 0.33948 0.66898 0.22 0.0
C413 C 0.34698 0.57505 0.24665 0.0
C414 C 0.32672 0.69018 0.19387 0.0
O415 O 0.29218 0.69144 0.18808 0.0
C416 C 0.23174 0.65206 0.22655 0.0
C417 C 0.37063 0.56272 0.21396 0.0
C418 C 0.4006 0.5419 0.22205 0.0
C419 C 0.42553 0.53309 0.19203 0.0
C420 C 0.41948 0.54456 0.15392 0.0
C421 C 0.3904 0.56567 0.14535 0.0
C422 C 0.36571 0.57463 0.17535 0.0
O423 O 0.26061 0.63969 0.3532 0.0
O424 O 0.30815 0.66095 0.31483 0.0
O425 O 0.17612 0.59933 0.28851 0.0
O426 O 0.18235 0.62095 0.34505 0.0
C427 C 0.1589 0.60899 0.32021 0.0
O428 O 0.25919 0.63239 0.21671 0.0
O429 O 0.22605 0.65952 0.26364 0.0
O430 O 0.35791 0.60403 0.26424 0.0
O431 O 0.31234 0.57473 0.24077 0.0
H432 H 0.4051 0.53365 0.25181 0.0
H433 H 0.43778 0.53704 0.13026 0.0
H434 H 0.34347 0.59151 0.16895 0.0
O435 O 0.38286 0.81146 0.57024 0.0
Tb436 Tb 0.35373 0.76145 0.56759 0.0
Eu437 Eu 0.32184 0.8269 0.52203 0.0
C438 C 0.39981 0.82153 0.6021 0.0
O439 O 0.41717 0.85195 0.60257 0.0
C440 C 0.29725 0.80572 0.60991 0.0
O441 O 0.26162 0.81618 0.52063 0.0
C442 C 0.35076 0.88645 0.49818 0.0
C443 C 0.23998 0.8343 0.49913 0.0
O444 O 0.25353 0.85843 0.47558 0.0
C445 C 0.33053 0.75026 0.48045 0.0
C446 C 0.36995 0.90355 0.46455 0.0
C447 C 0.39763 0.92857 0.47201 0.0
C448 C 0.41612 0.94567 0.44095 0.0
C449 C 0.40602 0.93795 0.40238 0.0
C450 C 0.37825 0.91371 0.39433 0.0
C451 C 0.3604 0.89626 0.42543 0.0
O452 O 0.3066 0.77286 0.60335 0.0
O453 O 0.31082 0.83129 0.58793 0.0
O454 O 0.40214 0.73054 0.56156 0.0
O455 O 0.36717 0.72147 0.61009 0.0
C456 C 0.3967 0.7113 0.59249 0.0
O457 O 0.33414 0.78464 0.47569 0.0
O458 O 0.33073 0.73677 0.51571 0.0
O459 O 0.31675 0.87802 0.49412 0.0
O460 O 0.36832 0.86284 0.51786 0.0
H461 H 0.405 0.93445 0.50195 0.0
H462 H 0.41949 0.95146 0.37822 0.0
H463 H 0.33891 0.87757 0.41921 0.0
C464 C 0.87153 0.12619 0.99917 0.0
C465 C 0.8578 0.10545 1.02998 0.0
H466 H 0.90029 0.17353 0.98411 0.0
C467 C 0.87282 0.10934 1.06727 0.0
H468 H 0.86081 0.12337 0.97003 0.0
C469 C 0.89361 0.13927 0.07583 0.0
C470 C 0.90125 0.16397 1.04651 0.0
H471 H 0.8634 0.09317 0.09149 0.0
H472 H 0.89987 0.14516 0.10608 0.0
C473 C 0.89374 0.15525 1.00741 0.0
C474 C 0.84777 0.35726 0.4012 0.0
C475 C 0.84183 0.37976 0.36964 0.0
H476 H 0.8664 0.30647 0.41722 0.0
C477 C 0.86294 0.37596 0.3353 0.0
H478 H 0.83247 0.36014 0.42837 0.0
C479 C 0.88079 0.34442 0.32833 0.0
C480 C 0.87996 0.31828 0.35697 0.0
H481 H 0.85991 0.39364 0.3109 0.0
H482 H 0.89152 0.33887 0.2992 0.0
C483 C 0.86679 0.32624 0.39469 0.0
C484 C 0.67781 0.35574 0.6593 0.0
C485 C 0.6805 0.37043 0.62181 0.0
H486 H 0.64969 0.31726 0.69402 0.0
C487 C 0.64956 0.37236 0.59942 0.0
H488 H 0.70113 0.35472 0.67753 0.0
C489 C 0.61952 0.35172 0.60957 0.0
C490 C 0.62187 0.328 0.64065 0.0
H491 H 0.65083 0.38436 0.57074 0.0
H492 H 0.59867 0.34849 0.58817 0.0
C493 C 0.64812 0.33433 0.66888 0.0
C494 C 0.59848 0.14072 0.85375 0.0
C495 C 0.5975 0.14602 0.81303 0.0
H496 H 0.62962 0.12028 0.90008 0.0
C497 C 0.6148 0.12176 0.78812 0.0
H498 H 0.58445 0.15833 0.87379 0.0
C499 C 0.63953 0.0986 0.80346 0.0
C500 C 0.64794 0.10092 0.84345 0.0
H501 H 0.61389 0.12474 0.75663 0.0
H502 H 0.65649 0.0841 0.783 0.0
C503 C 0.62441 0.11879 0.86901 0.0
C504 C 0.39412 0.65356 0.62419 0.0
C505 C 0.40917 0.67481 0.59453 0.0
H506 H 0.3602 0.60864 0.63517 0.0
C507 C 0.41863 0.65876 0.55854 0.0
H508 H 0.38841 0.66467 0.65299 0.0
C509 C 0.40087 0.6276 0.54761 0.0
C510 C 0.37611 0.61213 0.57394 0.0
H511 H 0.43235 0.67382 0.53578 0.0
H512 H 0.4013 0.61979 0.51697 0.0
C513 C 0.37768 0.6215 0.61379 0.0
C514 C 0.20154 0.72276 0.84942 0.0
C515 C 0.18689 0.74002 0.81764 0.0
H516 H 0.24519 0.69214 0.86792 0.0
C517 C 0.19531 0.72879 0.77929 0.0
H518 H 0.19506 0.73101 0.87921 0.0
C519 C 0.22395 0.70622 0.77278 0.0
C520 C 0.24332 0.69461 0.80471 0.0
H521 H 0.18426 0.74188 0.75439 0.0
H522 H 0.23377 0.7018 0.74304 0.0
C523 C 0.23014 0.70031 0.84293 0.0
C524 C 0.18626 0.88595 0.99731 0.0
C525 C 0.20293 0.89945 1.03069 0.0
H526 H 0.14632 0.84957 0.97714 0.0
C527 C 0.18295 0.90241 1.06584 0.0
H528 H 0.20069 0.88486 0.96968 0.0
C529 C 0.15121 0.88269 0.07019 0.0
C530 C 0.14003 0.86102 1.03909 0.0
H531 H 0.195 0.91364 0.09185 0.0
H532 H 0.13925 0.87982 0.09921 0.0
C533 C 0.15521 0.86558 1.00167 0.0
C534 C 0.09328 0.66695 0.27944 0.0
C535 C 0.08695 0.6873 0.31335 0.0
H536 H 0.12038 0.62231 0.25542 0.0
C537 C 0.09001 0.67136 0.35012 0.0
H538 H 0.09032 0.67834 0.25073 0.0
C539 C 0.10859 0.63982 0.35293 0.0
C540 C 0.12279 0.62385 0.31889 0.0
H541 H 0.08435 0.68609 0.37687 0.0
H542 H 0.11681 0.6314 0.38156 0.0
C543 C 0.11069 0.63476 0.28226 0.0
C544 C 0.64323 0.19354 0.94306 0.0
C545 C 0.6645 0.22343 0.93364 0.0
H546 H 0.63622 0.14789 0.97941 0.0
C547 C 0.69485 0.23087 0.95617 0.0
H548 H 0.61937 0.18719 0.92662 0.0
C549 C 0.7044 0.20828 0.98618 0.0
C550 C 0.6838 0.17787 0.99483 0.0
H551 H 0.71162 0.25376 0.95023 0.0
H552 H 0.72832 0.21463 1.00256 0.0
C553 C 0.65266 0.17101 0.97342 0.0
C554 C 0.80943 0.17102 0.21801 0.0
C555 C 0.8071 0.15029 0.25187 0.0
H556 H 0.7957 0.17625 0.15779 0.0
C557 C 0.78566 0.11938 0.251 0.0
H558 H 0.82544 0.1951 0.2176 0.0
C559 C 0.76713 0.10935 0.21715 0.0
C560 C 0.77082 0.12931 0.18283 0.0
H561 H 0.783 0.10301 0.27653 0.0
H562 H 0.7507 0.08551 0.21752 0.0
C563 C 0.79232 0.16018 0.18369 0.0
C564 C 0.80291 0.25463 0.46729 0.0
C565 C 0.83169 0.26984 0.48791 0.0
H566 H 0.78597 0.21728 0.42352 0.0
C567 C 0.86671 0.25944 0.47734 0.0
H568 H 0.77557 0.26195 0.47425 0.0
C569 C 0.87263 0.23399 0.44758 0.0
C570 C 0.84366 0.21799 0.42814 0.0
H571 H 0.88955 0.27044 0.49251 0.0
H572 H 0.89975 0.22575 0.44099 0.0
C573 C 0.80883 0.22897 0.43805 0.0
C574 C 0.73898 0.31947 0.74794 0.0
C575 C 0.71382 0.29141 0.74719 0.0
H576 H 0.78259 0.34639 0.71845 0.0
C577 C 0.71507 0.26738 0.71549 0.0
H578 H 0.73897 0.33819 0.77217 0.0
C579 C 0.73963 0.27254 0.68422 0.0
C580 C 0.7642 0.30118 0.68456 0.0
H581 H 0.69615 0.24541 0.71408 0.0
H582 H 0.73897 0.25445 0.65943 0.0
C583 C 0.7642 0.32399 0.71731 0.0
C584 C 0.69432 0.27566 0.40969 0.0
C585 C 0.67321 0.30453 0.39949 0.0
H586 H 0.70061 0.23105 0.44716 0.0
C587 C 0.64119 0.31014 0.42106 0.0
H588 H 0.71913 0.27043 0.39381 0.0
C589 C 0.63106 0.28803 0.45248 0.0
C590 C 0.65199 0.25895 0.46238 0.0
H591 H 0.62439 0.33218 0.41429 0.0
H592 H 0.60661 0.29358 0.46889 0.0
C593 C 0.6836 0.25291 0.44024 0.0
C594 C 0.72984 0.17174 0.64687 0.0
C595 C 0.69242 0.16712 0.64785 0.0
H596 H 0.77887 0.16745 0.67806 0.0
C597 C 0.67563 0.15533 0.68263 0.0
H598 H 0.74348 0.18064 0.62035 0.0
C599 C 0.69564 0.15002 0.71634 0.0
C600 C 0.73313 0.15466 0.71553 0.0
H601 H 0.64685 0.15126 0.68415 0.0
H602 H 0.68176 0.14206 0.74303 0.0
C603 C 0.75005 0.16457 0.68001 0.0
C604 C 0.8653 0.23238 0.94756 0.0
C605 C 0.8395 0.25231 0.96837 0.0
H606 H 0.87541 0.19149 0.90463 0.0
C607 C 0.80315 0.24389 0.96294 0.0
H608 H 0.89358 0.23806 0.95105 0.0
C609 C 0.79279 0.21731 0.93644 0.0
C610 C 0.81836 0.1981 0.91458 0.0
H611 H 0.78257 0.258 0.97912 0.0
H612 H 0.76455 0.21228 0.93241 0.0
C613 C 0.85487 0.20563 0.92092 0.0
C614 C 0.83074 0.35128 0.17488 0.0
C615 C 0.81839 0.33025 0.14369 0.0
H616 H 0.81835 0.37639 0.23002 0.0
C617 C 0.78187 0.32028 0.14347 0.0
H618 H 0.85865 0.35948 0.17576 0.0
C619 C 0.75825 0.33136 0.17385 0.0
C620 C 0.771 0.35139 0.2058 0.0
H621 H 0.77154 0.30436 0.11957 0.0
H622 H 0.73033 0.32322 0.17304 0.0
C623 C 0.80757 0.3611 0.20585 0.0
C624 C 0.2335 0.74657 0.44664 0.0
C625 C 0.20556 0.7404 0.42034 0.0
H626 H 0.25954 0.72872 0.49844 0.0
C627 C 0.1872 0.70749 0.42209 0.0
H628 H 0.2485 0.77127 0.44597 0.0
C629 C 0.19421 0.68309 0.4512 0.0
C630 C 0.22012 0.69036 0.47934 0.0
H631 H 0.16579 0.70104 0.40221 0.0
H632 H 0.17844 0.65882 0.45237 0.0
C633 C 0.24017 0.72203 0.47637 0.0
C634 C 0.32345 0.64719 0.70411 0.0
C635 C 0.32535 0.61641 0.72655 0.0
H636 H 0.29801 0.6732 0.65694 0.0
C637 C 0.30565 0.58626 0.7149 0.0
H638 H 0.33799 0.67095 0.71249 0.0
C639 C 0.28354 0.58726 0.68226 0.0
C640 C 0.27974 0.61884 0.66174 0.0
H641 H 0.3063 0.56235 0.73197 0.0
H642 H 0.26773 0.56405 0.6746 0.0
C643 C 0.30035 0.64859 0.67249 0.0
C644 C 0.31891 0.72386 0.9494 0.0
C645 C 0.3492 0.72452 0.92395 0.0
H646 H 0.29145 0.74746 0.99882 0.0
C647 C 0.37591 0.75041 0.93042 0.0
H648 H 0.29758 0.70453 0.94518 0.0
C649 C 0.37268 0.77458 0.96187 0.0
C650 C 0.34219 0.77415 0.98697 0.0
H651 H 0.39951 0.75174 0.91145 0.0
H652 H 0.39387 0.79403 0.96613 0.0
C653 C 0.31526 0.7486 0.98014 0.0
C654 C 0.24063 0.7912 0.22889 0.0
C655 C 0.22588 0.8213 0.24756 0.0
H656 H 0.27507 0.77064 0.18287 0.0
C657 C 0.23613 0.85466 0.23308 0.0
H658 H 0.2336 0.76502 0.23928 0.0
C659 C 0.25931 0.85777 0.20012 0.0
C660 C 0.27382 0.82769 0.18128 0.0
H661 H 0.2254 0.87839 0.2465 0.0
H662 H 0.26586 0.88392 0.18929 0.0
C663 C 0.26463 0.79436 0.19661 0.0
C664 C 0.08925 0.77749 0.8773 0.0
C665 C 0.09154 0.81441 0.88217 0.0
H666 H 0.08602 0.72697 0.90502 0.0
C667 C 0.08713 0.82862 0.92023 0.0
H668 H 0.09281 0.7655 0.84855 0.0
C669 C 0.0816 0.80628 0.95268 0.0
C670 C 0.08192 0.76929 0.94791 0.0
H671 H 0.08878 0.85691 0.92499 0.0
H672 H 0.07944 0.81792 0.98169 0.0
C673 C 0.08517 0.75529 0.90972 0.0
C674 C 0.17765 0.65771 0.13343 0.0
C675 C 0.15812 0.68873 0.14001 0.0
H676 H 0.21701 0.62245 0.15495 0.0
C677 C 0.16307 0.70765 0.17522 0.0
H678 H 0.17478 0.64282 0.10636 0.0
C679 C 0.1866 0.69552 0.20346 0.0
C680 C 0.20676 0.6649 0.19654 0.0
H681 H 0.14854 0.73173 0.18106 0.0
H682 H 0.18943 0.71047 0.23048 0.0
C683 C 0.20209 0.64623 0.16109 0.0
C684 C 0.30317 0.66857 0.42025 0.0
C685 C 0.30245 0.68172 0.38198 0.0
H686 H 0.31442 0.67907 0.48062 0.0
C687 C 0.31318 0.71711 0.37589 0.0
H688 H 0.29524 0.64142 0.42595 0.0
C689 C 0.32299 0.73921 0.40748 0.0
C690 C 0.32334 0.72624 0.44597 0.0
H691 H 0.31286 0.7281 0.34674 0.0
H692 H 0.32976 0.76661 0.40176 0.0
C693 C 0.31434 0.69024 0.45159 0.0
C694 C 0.27213 0.84788 0.66082 0.0
C695 C 0.27172 0.81431 0.64264 0.0
H696 H 0.24785 0.88235 0.70399 0.0
C697 C 0.24556 0.78942 0.65486 0.0
H698 H 0.29199 0.86761 0.65216 0.0
C699 C 0.21982 0.79822 0.68369 0.0
C700 C 0.22012 0.83177 0.70174 0.0
H701 H 0.24437 0.76339 0.6414 0.0
H702 H 0.19984 0.7786 0.69222 0.0
C703 C 0.24694 0.85632 0.69052 0.0
C704 C 0.72781 0.25358 0.21368 0.0
C705 C 0.69418 0.26218 0.23001 0.0
H706 H 0.75599 0.22608 0.16767 0.0
C707 C 0.66288 0.2495 0.21255 0.0
H708 H 0.75229 0.26393 0.22621 0.0
C709 C 0.66501 0.22827 0.17939 0.0
C710 C 0.69849 0.21946 0.163 0.0
H711 H 0.63667 0.25623 0.22439 0.0
H712 H 0.64038 0.21821 0.1669 0.0
C713 C 0.72993 0.23266 0.17986 0.0
C714 C 0.72589 0.08304 0.45828 0.0
C715 C 0.72767 0.12007 0.46074 0.0
H716 H 0.73756 0.03692 0.42363 0.0
C717 C 0.74441 0.13917 0.4303 0.0
H718 H 0.71265 0.06778 0.48119 0.0
C719 C 0.75796 0.12155 0.39722 0.0
C720 C 0.7558 0.08468 0.39462 0.0
H721 H 0.74491 0.16775 0.43089 0.0
H722 H 0.76848 0.13679 0.37276 0.0
C723 C 0.73989 0.06545 0.42541 0.0
C724 C 0.88767 0.25541 0.70025 0.0
C725 C 0.863 0.24463 0.67178 0.0
H726 H 0.89688 0.26327 0.76148 0.0
C727 C 0.83141 0.22671 0.68357 0.0
H728 H 0.91228 0.26925 0.69198 0.0
C729 C 0.82284 0.22317 0.72331 0.0
C730 C 0.84584 0.23731 0.75145 0.0
H731 H 0.81163 0.21888 0.66234 0.0
H732 H 0.79691 0.21233 0.73197 0.0
C733 C 0.87883 0.25232 0.73991 0.0
C734 C 0.76648 0.35427 1.00144 0.0
C735 C 0.76753 0.39093 1.00634 0.0
H736 H 0.75459 0.31079 0.96328 0.0
C737 C 0.75719 0.41265 0.97573 0.0
H738 H 0.77219 0.33726 1.02574 0.0
C739 C 0.74629 0.39757 0.94026 0.0
C740 C 0.74601 0.36071 0.93514 0.0
H741 H 0.75724 0.4411 0.97938 0.0
H742 H 0.73748 0.41456 0.91718 0.0
C743 C 0.75638 0.33924 0.9659 0.0
C744 C 0.10369 0.77602 0.70533 0.0
C745 C 0.09625 0.8 0.67573 0.0
H746 H 0.1291 0.72778 0.7198 0.0
C747 C 0.11184 0.79557 0.63834 0.0
H748 H 0.09145 0.77882 0.73424 0.0
C749 C 0.1337 0.76683 0.63016 0.0
C750 C 0.13973 0.74164 0.65909 0.0
H751 H 0.10624 0.8138 0.6151 0.0
H752 H 0.14472 0.76368 0.60073 0.0
C753 C 0.12521 0.74691 0.69702 0.0
C754 C 0.21348 0.64593 0.92561 0.0
C755 C 0.24012 0.62035 0.9285 0.0
H756 H 0.18542 0.68803 0.95487 0.0
C757 C 0.2528 0.61208 0.9657 0.0
H758 H 0.20231 0.65208 0.89759 0.0
C759 C 0.24224 0.63179 0.99851 0.0
C760 C 0.21861 0.65983 0.99478 0.0
H761 H 0.27304 0.59224 0.96906 0.0
H762 H 0.25413 0.62642 1.02645 0.0
C763 C 0.20363 0.66637 0.95833 0.0
C764 C 0.38865 0.71184 0.17964 0.0
C765 C 0.35221 0.71112 0.17007 0.0
H766 H 0.44137 0.73083 0.16475 0.0
C767 C 0.34104 0.72922 0.13699 0.0
H768 H 0.39815 0.69798 0.20487 0.0
C769 C 0.36602 0.74795 0.11403 0.0
C770 C 0.40219 0.74896 0.12411 0.0
H771 H 0.31322 0.72864 0.12862 0.0
H772 H 0.35714 0.76132 0.08825 0.0
C773 C 0.41345 0.73049 0.1567 0.0
C774 C 0.18678 0.79153 0.50097 0.0
C775 C 0.20115 0.82584 0.49714 0.0
H776 H 0.14643 0.75486 0.48004 0.0
C777 C 0.17905 0.85192 0.48341 0.0
H778 H 0.20163 0.77139 0.5154 0.0
C779 C 0.14752 0.84311 0.46437 0.0
C780 C 0.13796 0.80784 0.45896 0.0
H781 H 0.18835 0.87866 0.48464 0.0
H782 H 0.13173 0.86331 0.45152 0.0
C783 C 0.15515 0.78226 0.48119 0.0
C784 C 0.77265 0.02782 0.92351 0.0
C785 C 0.77569 0.06126 0.90604 0.0
H786 H 0.75085 -0.00323 0.97073 0.0
C787 C 0.75876 0.0898 0.92489 0.0
H788 H 0.78543 0.00513 0.91002 0.0
C789 C 0.73902 0.08497 0.96005 0.0
C790 C 0.73633 0.05159 0.97747 0.0
H791 H 0.7612 0.11589 0.91304 0.0
H792 H 0.72542 0.10718 0.97312 0.0
C793 C 0.753 0.02301 0.95847 0.0
C794 C 0.91623 0.25547 0.15543 0.0
C795 C 0.95188 0.26624 0.14976 0.0
H796 H 0.87832 0.22482 0.18887 0.0
C797 C 0.97756 0.25404 0.17595 0.0
H798 H 0.89575 0.26602 0.13771 0.0
C799 C 0.96752 0.2316 0.20692 0.0
C800 C 0.93179 0.22023 0.21163 0.0
H801 H 0.00537 0.26236 0.17297 0.0
H802 H 0.98756 0.22327 0.22717 0.0
C803 C 0.90634 0.23214 0.18529 0.0
C804 C 0.75996 0.41943 0.44942 0.0
C805 C 0.73999 0.39052 0.46409 0.0
H806 H 0.7638 0.45912 0.40465 0.0
C807 C 0.70581 0.38325 0.4492 0.0
H808 H 0.7861 0.42592 0.46087 0.0
C809 C 0.69309 0.40231 0.41804 0.0
C810 C 0.71442 0.42862 0.40072 0.0
H811 H 0.68907 0.36215 0.46105 0.0
H812 H 0.66707 0.39552 0.40643 0.0
C813 C 0.74723 0.43837 0.41751 0.0
C814 C 0.53802 0.25877 0.71477 0.0
C815 C 0.57053 0.26523 0.7338 0.0
H816 H 0.5104 0.23023 0.6697 0.0
C817 C 0.60112 0.24724 0.72042 0.0
H818 H 0.51399 0.27244 0.7241 0.0
C819 C 0.59906 0.22315 0.68876 0.0
C820 C 0.56656 0.21725 0.66953 0.0
H821 H 0.62675 0.25258 0.7335 0.0
H822 H 0.62291 0.20957 0.67902 0.0
C823 C 0.53598 0.23483 0.6834 0.0
C824 C 0.27445 0.54774 0.42289 0.0
C825 C 0.23994 0.55767 0.43574 0.0
H826 H 0.30918 0.5362 0.37369 0.0
C827 C 0.21274 0.55998 0.40814 0.0
H828 H 0.29608 0.54573 0.44333 0.0
C829 C 0.22041 0.55413 0.36835 0.0
C830 C 0.25539 0.54698 0.35546 0.0
H831 H 0.18579 0.56708 0.41716 0.0
H832 H 0.19909 0.55512 0.34755 0.0
C833 C 0.2821 0.54249 0.38305 0.0
C834 C 0.3713 0.78012 0.69834 0.0
C835 C 0.3973 0.75402 0.7025 0.0
H836 H 0.35207 0.82221 0.66324 0.0
C837 C 0.42547 0.75204 0.67455 0.0
H838 H 0.34932 0.78254 0.71939 0.0
C839 C 0.42682 0.77476 0.64241 0.0
C840 C 0.3996 0.79919 0.63716 0.0
H841 H 0.44604 0.73241 0.677 0.0
H842 H 0.44843 0.77237 0.62089 0.0
C843 C 0.37252 0.80254 0.66598 0.0
C844 C 0.2608 0.91035 0.92584 0.0
C845 C 0.25596 0.87454 0.91572 0.0
H846 H 0.29097 0.94839 0.95968 0.0
C847 C 0.27991 0.84978 0.92979 0.0
H848 H 0.2426 0.92991 0.91534 0.0
C849 C 0.3078 0.86051 0.95408 0.0
C850 C 0.31116 0.89565 0.96675 0.0
H851 H 0.27718 0.82211 0.92177 0.0
H852 H 0.3272 0.84153 0.96234 0.0
C853 C 0.28815 0.92081 0.9514 0.0
C854 C 0.05662 0.77136 0.22562 0.0
C855 C 0.06654 0.7849 0.18873 0.0
H856 H 0.05411 0.78105 0.28785 0.0
C857 C 0.08327 0.81842 0.18679 0.0
H858 H 0.04349 0.74573 0.22797 0.0
C859 C 0.09117 0.83734 0.22101 0.0
C860 C 0.08229 0.82331 0.25786 0.0
H861 H 0.09156 0.8295 0.15885 0.0
H862 H 0.10465 0.86282 0.21871 0.0
C863 C 0.06355 0.79097 0.25984 0.0
C864 C 0.57042 0.1236 0.34119 0.0
C865 C 0.58359 0.09704 0.3651 0.0
H866 H 0.56189 0.1405 0.28228 0.0
C867 C 0.60487 0.07061 0.34765 0.0
H868 H 0.55329 0.14379 0.35371 0.0
C869 C 0.61018 0.06898 0.30682 0.0
C870 C 0.59412 0.09359 0.28253 0.0
H871 H 0.61476 0.04943 0.36529 0.0
H872 H 0.62366 0.04637 0.29403 0.0
C873 C 0.57552 0.12181 0.30028 0.0
C874 C 0.88917 0.08 0.56198 0.0
C875 C 0.91355 0.09772 0.5368 0.0
H876 H 0.87106 0.07223 0.62155 0.0
C877 C 0.93388 0.12609 0.55179 0.0
H878 H 0.87356 0.05771 0.55118 0.0
C879 C 0.932 0.13476 0.59181 0.0
C880 C 0.90998 0.11505 0.61776 0.0
H881 H 0.95313 0.1399 0.53306 0.0
H882 H 0.95038 0.15463 0.60313 0.0
C883 C 0.88742 0.08857 0.60216 0.0
C884 C 0.93031 0.37396 0.77918 0.0
C885 C 0.90696 0.39648 0.76009 0.0
H886 H 0.95141 0.35815 0.83412 0.0
C887 C 0.88156 0.41521 0.78265 0.0
H888 H 0.95065 0.35988 0.76248 0.0
C889 C 0.88189 0.41408 0.82375 0.0
C890 C 0.90769 0.3943 0.84284 0.0
H891 H 0.8639 0.43339 0.76868 0.0
H892 H 0.8645 0.43149 0.84052 0.0
C893 C 0.93071 0.37293 0.82017 0.0
C894 C 0.5671 0.36747 0.09689 0.0
C895 C 0.59319 0.38937 0.11429 0.0
H896 H 0.54576 0.34662 1.04339 0.0
C897 C 0.62197 0.40196 0.09088 0.0
H898 H 0.54438 0.35782 0.11417 0.0
C899 C 0.62274 0.39552 1.0502 0.0
C900 C 0.59496 0.37606 1.03233 0.0
H901 H 0.64209 0.41938 0.10342 0.0
H902 H 0.64316 0.40857 1.03227 0.0
C903 C 0.56807 0.36076 1.0564 0.0
C904 C 0.10662 0.61992 0.78033 0.0
C905 C 0.12413 0.59129 0.76224 0.0
H906 H 0.08788 0.64291 0.83472 0.0
C907 C 0.14286 0.56789 0.78557 0.0
H908 H 0.09146 0.6379 0.76295 0.0
C909 C 0.14108 0.57093 0.82646 0.0
C910 C 0.12032 0.59726 0.84473 0.0
H911 H 0.15603 0.54531 0.77231 0.0
H912 H 0.15273 0.55046 0.8438 0.0
C913 C 0.10471 0.62288 0.82136 0.0
C914 C 0.36421 0.56149 0.07864 0.0
C915 C 0.38808 0.57812 0.10449 0.0
H916 H 0.35414 0.54677 1.01881 0.0
C917 C 0.41667 0.59857 0.08896 0.0
H918 H 0.34245 0.54499 0.08992 0.0
C919 C 0.42367 0.59911 1.0486 0.0
C920 C 0.40189 0.57964 1.02299 0.0
H921 H 0.43573 0.61119 0.10834 0.0
H922 H 0.44776 0.61234 1.03766 0.0
C923 C 0.37103 0.56234 1.03804 0.0
C924 C 0.38427 0.8854 0.2882 0.0
C925 C 0.3674 0.91379 0.27039 0.0
H926 H 0.40064 0.86287 0.34241 0.0
C927 C 0.34787 0.93752 0.29416 0.0
H928 H 0.40014 0.86721 0.27065 0.0
C929 C 0.34815 0.93501 0.33501 0.0
C930 C 0.3679 0.9087 0.35291 0.0
H931 H 0.33511 0.95993 0.28121 0.0
H932 H 0.33552 0.95546 0.35266 0.0
C933 C 0.38467 0.88298 0.32923 0.0
C934 C 0.15491 0.98511 0.55465 0.0
C935 C 0.14942 0.95207 0.53645 0.0
H936 H 0.15238 0.01543 0.60797 0.0
C937 C 0.14258 0.92254 0.56029 0.0
H938 H 0.15941 0.00843 0.53702 0.0
C939 C 0.13775 0.92657 0.60107 0.0
C940 C 0.13951 0.96032 0.61879 0.0
H941 H 0.13722 0.89692 0.54701 0.0
H942 H 0.12948 0.90377 0.61807 0.0
C943 C 0.15018 0.98916 0.59529 0.0
C944 C 0.50926 0.00097 0.17185 0.0
C945 C 0.5093 0.03189 0.19479 0.0
H946 H 0.47999 0.95548 0.15294 0.0
C947 C 0.47751 0.0421 0.21432 0.0
H948 H 0.53351 0.99211 0.15705 0.0
C949 C 0.44647 0.02112 0.21175 0.0
C950 C 0.44678 0.98966 0.18957 0.0
H951 H 0.47676 0.06609 0.23188 0.0
H952 H 0.42245 0.02913 0.22761 0.0
C953 C 0.47843 0.98008 0.16934 0.0
C954 C 0.99561 -0.00642 0.47864 0.0
C955 C 0.99209 0.02107 0.45187 0.0
H956 H 0.02772 0.9513 0.49821 0.0
C957 C 0.01767 0.02455 0.42113 0.0
H958 H 0.97588 0.98965 0.50198 0.0
C959 C 0.04749 0.00248 0.41891 0.0
C960 C 0.05205 0.97641 0.44721 0.0
H961 H 0.01548 0.04538 0.3999 0.0
H962 H 0.06805 0.00727 0.39664 0.0
C963 C 0.02505 0.97136 0.47614 0.0
C964 C 0.04769 0.4859 0.7002 0.0
C965 C 0.04803 0.51583 0.67627 0.0
H966 H 0.01962 0.43918 0.71873 0.0
C967 C 0.01963 0.52021 0.6504 0.0
H968 H 0.0695 0.48133 0.71982 0.0
C969 C 0.99072 0.49603 0.64991 0.0
C970 C 0.9897 0.46696 0.67522 0.0
H971 H 0.01906 0.54308 0.63169 0.0
H972 H 0.96855 0.50086 0.63087 0.0
C973 C 0.01903 0.46177 0.69958 0.0
C974 C 0.47928 0.47847 0.91529 0.0
C975 C 0.48473 0.50867 0.93894 0.0
H976 H 0.49736 0.42683 0.89899 0.0
C977 C 0.51564 0.51121 0.96147 0.0
H978 H 0.45552 0.47572 0.89781 0.0
C979 C 0.53979 0.48347 0.96176 0.0
C980 C 0.53331 0.4523 0.93999 0.0
H981 H 0.52078 0.53441 0.97948 0.0
H982 H 0.5631 0.48605 0.97998 0.0
C983 C 0.5033 0.45051 0.91587 0.0
C984 C 0.52014 0.49961 0.17916 0.0
C985 C 0.51841 0.46778 0.1996 0.0
H986 H 0.49294 0.54606 0.16267 0.0
C987 C 0.48728 0.45935 0.22176 0.0
H988 H 0.54404 0.50689 0.16237 0.0
C989 C 0.45743 0.48147 0.22133 0.0
C990 C 0.45849 0.51248 0.199 0.0
H991 H 0.48548 0.43488 0.23787 0.0
H992 H 0.43305 0.47341 0.23675 0.0
C993 C 0.49078 0.5219 0.17931 0.0
C994 C 0.46805 0.02859 0.47318 0.0
C995 C 0.49948 0.02634 0.44966 0.0
H996 H 0.41703 0.00476 0.48919 0.0
C997 C 0.50455 -0.00459 0.42702 0.0
H998 H 0.46311 0.05192 0.49098 0.0
C999 C 0.47818 0.96876 0.42579 0.0
C1000 C 0.44597 0.97181 0.44755 0.0
H1001 H 0.52875 0.99201 0.40942 0.0
H1002 H 0.48263 0.94597 0.40694 0.0
C1003 C 0.44161 0.00156 0.47219 0.0
C1004 C 0.05782 0.05863 0.6896 0.0
C1005 C 0.05602 0.02626 0.70939 0.0
H1006 H 0.02998 0.10508 0.67327 0.0
C1007 C 0.02496 0.01815 0.73203 0.0
H1008 H 0.08147 0.06613 0.67255 0.0
C1009 C 0.99584 0.04092 0.73314 0.0
C1010 C 0.99694 0.07201 0.71125 0.0
H1011 H 0.02222 -0.00671 0.74721 0.0
H1012 H 0.97162 0.0331 0.74905 0.0
C1013 C 0.02851 0.08111 0.6903 0.0
C1014 C 0.035 0.50129 0.95502 0.0
C1015 C 0.03469 0.5281 0.92688 0.0
H1016 H 0.01079 0.45291 0.97565 0.0
C1017 C 0.00756 0.52751 0.89901 0.0
H1018 H 0.05569 0.50098 0.97674 0.0
C1019 C 0.98207 0.50021 0.89834 0.0
C1020 C 0.983 0.47262 0.92548 0.0
H1021 H 0.00615 0.54818 0.87744 0.0
H1022 H 0.96152 0.50077 0.87646 0.0
C1023 C 0.00937 0.47376 0.95432 0.0
loop_
_geom_bond_atom_site_label_1
_geom_bond_atom_site_label_2
_geom_bond_distance
_geom_bond_site_symmetry_2
_ccdc_geom_bond_type
O0 Tb1 2.292 1_556 S
O0 C3 1.255 . S
Tb1 O0 2.292 1_554 S
Tb1 O17 2.326 1_554 S
Tb1 O19 2.500 1_554 S
Tb1 O20 2.473 . S
Tb1 O23 2.324 . S
Eu2 O6 2.292 . S
Eu2 C7 2.852 . S
Eu2 O18 2.324 . S
Eu2 O22 2.326 . S
Eu2 O24 2.500 . S
Eu2 O25 2.473 . S
C3 O0 1.255 . S
C3 O4 1.247 . S
O4 C3 1.247 . S
C5 O17 1.242 . S
C5 O18 1.258 1_556 S
O6 Eu2 2.292 . S
O6 C8 1.255 . S
C7 Eu2 2.852 . S
C7 C11 1.503 . S
C7 O24 1.273 . S
C7 O25 1.257 . S
C8 O6 1.255 . S
C8 O9 1.247 . S
O9 C8 1.247 . S
C10 O22 1.242 . S
C10 O23 1.258 . S
C11 C7 1.503 . S
C11 C12 1.379 . S
C11 C16 1.392 . S
C12 C11 1.379 . S
C12 C13 1.404 . S
C12 H26 0.929 . S
C13 C12 1.404 . S
C13 C14 1.389 . S
C14 C13 1.389 . S
C14 C15 1.399 . S
C14 H27 0.931 1_545 S
C15 C14 1.399 . S
C15 C16 1.390 . S
C16 C11 1.392 . S
C16 C15 1.390 . S
C16 H28 0.929 . S
O17 Tb1 2.326 1_556 S
O17 C5 1.242 . S
O18 Eu2 2.324 . S
O18 C5 1.258 1_554 S
O19 Tb1 2.500 1_556 S
O19 C21 1.273 . S
O20 Tb1 2.473 . S
O20 C21 1.257 1_554 S
C21 O19 1.273 . S
C21 O20 1.257 1_556 S
O22 Eu2 2.326 . S
O22 C10 1.242 . S
O23 Tb1 2.324 . S
O23 C10 1.258 . S
O24 Eu2 2.500 . S
O24 C7 1.273 . S
O25 Eu2 2.473 . S
O25 C7 1.257 . S
H26 C12 0.929 . S
H27 C14 0.931 1_565 S
H28 C16 0.929 . S
O29 Tb30 2.292 . S
O29 C32 1.255 . S
Tb30 O29 2.292 . S
Tb30 O46 2.326 . S
Tb30 O48 2.500 . S
Tb30 O49 2.473 . S
Tb30 O52 2.324 . S
Eu31 O35 2.292 . S
Eu31 C36 2.852 . S
Eu31 O47 2.324 . S
Eu31 O51 2.326 . S
Eu31 O53 2.500 . S
Eu31 O54 2.473 . S
C32 O29 1.255 . S
C32 O33 1.247 . S
O33 C32 1.247 . S
C34 O46 1.242 . S
C34 O47 1.258 . S
O35 Eu31 2.292 . S
O35 C37 1.255 . S
C36 Eu31 2.852 . S
C36 C40 1.503 . S
C36 O53 1.273 . S
C36 O54 1.257 . S
C37 O35 1.255 . S
C37 O38 1.247 . S
O38 C37 1.247 . S
C39 O51 1.242 . S
C39 O52 1.258 . S
C40 C36 1.503 . S
C40 C41 1.379 . S
C40 C45 1.392 . S
C41 C40 1.379 . S
C41 C42 1.404 . S
C41 H55 0.929 . S
C42 C41 1.404 . S
C42 C43 1.389 . S
C43 C42 1.389 . S
C43 C44 1.399 . S
C43 H56 0.931 1_655 S
C44 C43 1.399 . S
C44 C45 1.390 . S
C45 C40 1.392 . S
C45 C44 1.390 . S
C45 H57 0.929 . S
O46 Tb30 2.326 . S
O46 C34 1.242 . S
O47 Eu31 2.324 . S
O47 C34 1.258 . S
O48 Tb30 2.500 . S
O48 C50 1.273 . S
O49 Tb30 2.473 . S
O49 C50 1.257 . S
C50 O48 1.273 . S
C50 O49 1.257 . S
O51 Eu31 2.326 . S
O51 C39 1.242 . S
O52 Tb30 2.324 . S
O52 C39 1.258 . S
O53 Eu31 2.500 . S
O53 C36 1.273 . S
O54 Eu31 2.473 . S
O54 C36 1.257 . S
H55 C41 0.929 . S
H56 C43 0.931 1_455 S
H57 C45 0.929 . S
O58 Tb59 2.292 . S
O58 C61 1.255 . S
Tb59 O58 2.292 . S
Tb59 O75 2.326 . S
Tb59 O77 2.500 . S
Tb59 O78 2.473 . S
Tb59 O81 2.324 . S
Eu60 O64 2.292 . S
Eu60 C65 2.852 . S
Eu60 O76 2.324 . S
Eu60 O80 2.326 . S
Eu60 O82 2.500 . S
Eu60 O83 2.473 . S
C61 O58 1.255 . S
C61 O62 1.247 . S
O62 C61 1.247 . S
C63 O75 1.242 . S
C63 O76 1.258 . S
O64 Eu60 2.292 . S
O64 C66 1.255 . S
C65 Eu60 2.852 . S
C65 C69 1.503 . S
C65 O82 1.273 . S
C65 O83 1.257 . S
C66 O64 1.255 . S
C66 O67 1.247 . S
O67 C66 1.247 . S
C68 O80 1.242 . S
C68 O81 1.258 . S
C69 C65 1.503 . S
C69 C70 1.379 . S
C69 C74 1.392 . S
C70 C69 1.379 . S
C70 C71 1.404 . S
C70 H84 0.929 . S
C71 C70 1.404 . S
C71 C72 1.389 . S
C72 C71 1.389 . S
C72 C73 1.399 . S
C72 H85 0.931 . S
C73 C72 1.399 . S
C73 C74 1.390 . S
C74 C69 1.392 . S
C74 C73 1.390 . S
C74 H86 0.929 . S
O75 Tb59 2.326 . S
O75 C63 1.242 . S
O76 Eu60 2.324 . S
O76 C63 1.258 . S
O77 Tb59 2.500 . S
O77 C79 1.273 . S
O78 Tb59 2.473 . S
O78 C79 1.257 . S
C79 O77 1.273 . S
C79 O78 1.257 . S
O80 Eu60 2.326 . S
O80 C68 1.242 . S
O81 Tb59 2.324 . S
O81 C68 1.258 . S
O82 Eu60 2.500 . S
O82 C65 1.273 . S
O83 Eu60 2.473 . S
O83 C65 1.257 . S
H84 C70 0.929 . S
H85 C72 0.931 . S
H86 C74 0.929 . S
O87 Tb88 2.292 . S
O87 C90 1.255 . S
Tb88 O87 2.292 . S
Tb88 O104 2.326 . S
Tb88 O106 2.500 . S
Tb88 O107 2.473 . S
Tb88 O110 2.324 . S
Eu89 O93 2.292 . S
Eu89 C94 2.852 . S
Eu89 O105 2.324 . S
Eu89 O109 2.326 . S
Eu89 O111 2.500 . S
Eu89 O112 2.473 . S
C90 O87 1.255 . S
C90 O91 1.247 . S
O91 C90 1.247 . S
C92 O104 1.242 . S
C92 O105 1.258 . S
O93 Eu89 2.292 . S
O93 C95 1.255 . S
C94 Eu89 2.852 . S
C94 C98 1.503 . S
C94 O111 1.273 . S
C94 O112 1.257 . S
C95 O93 1.255 . S
C95 O96 1.247 . S
O96 C95 1.247 . S
C97 O109 1.242 . S
C97 O110 1.258 . S
C98 C94 1.503 . S
C98 C99 1.379 . S
C98 C103 1.392 . S
C99 C98 1.379 . S
C99 C100 1.404 . S
C99 H113 0.929 . S
C100 C99 1.404 . S
C100 C101 1.389 . S
C101 C100 1.389 . S
C101 C102 1.399 . S
C101 H114 0.931 . S
C102 C101 1.399 . S
C102 C103 1.390 . S
C103 C98 1.392 . S
C103 C102 1.390 . S
C103 H115 0.929 . S
O104 Tb88 2.326 . S
O104 C92 1.242 . S
O105 Eu89 2.324 . S
O105 C92 1.258 . S
O106 Tb88 2.500 . S
O106 C108 1.273 . S
O107 Tb88 2.473 . S
O107 C108 1.257 . S
C108 O106 1.273 . S
C108 O107 1.257 . S
O109 Eu89 2.326 . S
O109 C97 1.242 . S
O110 Tb88 2.324 . S
O110 C97 1.258 . S
O111 Eu89 2.500 . S
O111 C94 1.273 . S
O112 Eu89 2.473 . S
O112 C94 1.257 . S
H113 C99 0.929 . S
H114 C101 0.931 . S
H115 C103 0.929 . S
O116 Tb117 2.292 . S
O116 C119 1.255 . S
Tb117 O116 2.292 . S
Tb117 O133 2.326 . S
Tb117 O135 2.500 . S
Tb117 O136 2.473 . S
Tb117 O139 2.324 . S
Eu118 O122 2.292 . S
Eu118 C123 2.852 . S
Eu118 O134 2.324 . S
Eu118 O138 2.326 . S
Eu118 O140 2.500 . S
Eu118 O141 2.473 . S
C119 O116 1.255 . S
C119 O120 1.247 . S
O120 C119 1.247 . S
C121 O133 1.242 . S
C121 O134 1.258 . S
O122 Eu118 2.292 . S
O122 C124 1.255 . S
C123 Eu118 2.852 . S
C123 C127 1.503 . S
C123 O140 1.273 . S
C123 O141 1.257 . S
C124 O122 1.255 . S
C124 O125 1.247 . S
O125 C124 1.247 . S
C126 O138 1.242 . S
C126 O139 1.258 . S
C127 C123 1.503 . S
C127 C128 1.379 . S
C127 C132 1.392 . S
C128 C127 1.379 . S
C128 C129 1.404 . S
C128 H142 0.929 . S
C129 C128 1.404 . S
C129 C130 1.389 . S
C130 C129 1.389 . S
C130 C131 1.399 . S
C130 H143 0.931 . S
C131 C130 1.399 . S
C131 C132 1.390 . S
C132 C127 1.392 . S
C132 C131 1.390 . S
C132 H144 0.929 . S
O133 Tb117 2.326 . S
O133 C121 1.242 . S
O134 Eu118 2.324 . S
O134 C121 1.258 . S
O135 Tb117 2.500 . S
O135 C137 1.273 . S
O136 Tb117 2.473 . S
O136 C137 1.257 . S
C137 O135 1.273 . S
C137 O136 1.257 . S
O138 Eu118 2.326 . S
O138 C126 1.242 . S
O139 Tb117 2.324 . S
O139 C126 1.258 . S
O140 Eu118 2.500 . S
O140 C123 1.273 . S
O141 Eu118 2.473 . S
O141 C123 1.257 . S
H142 C128 0.929 . S
H143 C130 0.931 . S
H144 C132 0.929 . S
O145 Tb146 2.292 . S
O145 C148 1.255 . S
Tb146 O145 2.292 . S
Tb146 O162 2.326 . S
Tb146 O164 2.500 . S
Tb146 O165 2.473 . S
Tb146 O168 2.324 . S
Eu147 O151 2.292 . S
Eu147 C152 2.852 . S
Eu147 O163 2.324 . S
Eu147 O167 2.326 . S
Eu147 O169 2.500 . S
Eu147 O170 2.473 . S
C148 O145 1.255 . S
C148 O149 1.247 . S
O149 C148 1.247 . S
C150 O162 1.242 . S
C150 O163 1.258 . S
O151 Eu147 2.292 . S
O151 C153 1.255 . S
C152 Eu147 2.852 . S
C152 C156 1.503 . S
C152 O169 1.273 . S
C152 O170 1.257 . S
C153 O151 1.255 . S
C153 O154 1.247 . S
O154 C153 1.247 . S
C155 O167 1.242 . S
C155 O168 1.258 . S
C156 C152 1.503 . S
C156 C157 1.379 . S
C156 C161 1.392 . S
C157 C156 1.379 . S
C157 C158 1.404 . S
C157 H171 0.929 . S
C158 C157 1.404 . S
C158 C159 1.389 . S
C159 C158 1.389 . S
C159 C160 1.399 . S
C159 H172 0.931 . S
C160 C159 1.399 . S
C160 C161 1.390 . S
C161 C156 1.392 . S
C161 C160 1.390 . S
C161 H173 0.929 . S
O162 Tb146 2.326 . S
O162 C150 1.242 . S
O163 Eu147 2.324 . S
O163 C150 1.258 . S
O164 Tb146 2.500 . S
O164 C166 1.273 . S
O165 Tb146 2.473 . S
O165 C166 1.257 . S
C166 O164 1.273 . S
C166 O165 1.257 . S
O167 Eu147 2.326 . S
O167 C155 1.242 . S
O168 Tb146 2.324 . S
O168 C155 1.258 . S
O169 Eu147 2.500 . S
O169 C152 1.273 . S
O170 Eu147 2.473 . S
O170 C152 1.257 . S
H171 C157 0.929 . S
H172 C159 0.931 . S
H173 C161 0.929 . S
O174 Tb175 2.292 . S
O174 C177 1.255 . S
Tb175 O174 2.292 . S
Tb175 O191 2.326 . S
Tb175 O193 2.500 . S
Tb175 O194 2.473 . S
Tb175 O197 2.324 . S
Eu176 O180 2.292 . S
Eu176 C181 2.852 . S
Eu176 O192 2.324 . S
Eu176 O196 2.326 . S
Eu176 O198 2.500 . S
Eu176 O199 2.473 . S
C177 O174 1.255 . S
C177 O178 1.247 . S
O178 C177 1.247 . S
C179 O191 1.242 . S
C179 O192 1.258 . S
O180 Eu176 2.292 . S
O180 C182 1.255 . S
C181 Eu176 2.852 . S
C181 C185 1.503 . S
C181 O198 1.273 . S
C181 O199 1.257 . S
C182 O180 1.255 . S
C182 O183 1.247 . S
O183 C182 1.247 . S
C184 O196 1.242 . S
C184 O197 1.258 . S
C185 C181 1.503 . S
C185 C186 1.379 . S
C185 C190 1.392 . S
C186 C185 1.379 . S
C186 C187 1.404 . S
C186 H200 0.929 . S
C187 C186 1.404 . S
C187 C188 1.389 . S
C188 C187 1.389 . S
C188 C189 1.399 . S
C188 H201 0.931 1_545 S
C189 C188 1.399 . S
C189 C190 1.390 . S
C190 C185 1.392 . S
C190 C189 1.390 . S
C190 H202 0.929 . S
O191 Tb175 2.326 . S
O191 C179 1.242 . S
O192 Eu176 2.324 . S
O192 C179 1.258 . S
O193 Tb175 2.500 . S
O193 C195 1.273 . S
O194 Tb175 2.473 . S
O194 C195 1.257 . S
C195 O193 1.273 . S
C195 O194 1.257 . S
O196 Eu176 2.326 . S
O196 C184 1.242 . S
O197 Tb175 2.324 . S
O197 C184 1.258 . S
O198 Eu176 2.500 . S
O198 C181 1.273 . S
O199 Eu176 2.473 . S
O199 C181 1.257 . S
H200 C186 0.929 . S
H201 C188 0.931 1_565 S
H202 C190 0.929 . S
O203 Tb204 2.292 1_554 S
O203 C206 1.255 . S
Tb204 O203 2.292 1_556 S
Tb204 O220 2.326 1_556 S
Tb204 O222 2.500 1_556 S
Tb204 O223 2.473 . S
Tb204 O226 2.324 . S
Eu205 O209 2.292 . S
Eu205 C210 2.852 . S
Eu205 O221 2.324 . S
Eu205 O225 2.326 . S
Eu205 O227 2.500 . S
Eu205 O228 2.473 . S
C206 O203 1.255 . S
C206 O207 1.247 . S
O207 C206 1.247 . S
C208 O220 1.242 . S
C208 O221 1.258 1_554 S
O209 Eu205 2.292 . S
O209 C211 1.255 . S
C210 Eu205 2.852 . S
C210 C214 1.503 . S
C210 O227 1.273 . S
C210 O228 1.257 . S
C211 O209 1.255 . S
C211 O212 1.247 . S
O212 C211 1.247 . S
C213 O225 1.242 . S
C213 O226 1.258 . S
C214 C210 1.503 . S
C214 C215 1.379 . S
C214 C219 1.392 . S
C215 C214 1.379 . S
C215 C216 1.404 . S
C215 H229 0.929 . S
C216 C215 1.404 . S
C216 C217 1.389 . S
C217 C216 1.389 . S
C217 C218 1.399 . S
C217 H230 0.931 1_655 S
C218 C217 1.399 . S
C218 C219 1.390 . S
C219 C214 1.392 . S
C219 C218 1.390 . S
C219 H231 0.929 . S
O220 Tb204 2.326 1_554 S
O220 C208 1.242 . S
O221 Eu205 2.324 . S
O221 C208 1.258 1_556 S
O222 Tb204 2.500 1_554 S
O222 C224 1.273 . S
O223 Tb204 2.473 . S
O223 C224 1.257 1_556 S
C224 O222 1.273 . S
C224 O223 1.257 1_554 S
O225 Eu205 2.326 . S
O225 C213 1.242 . S
O226 Tb204 2.324 . S
O226 C213 1.258 . S
O227 Eu205 2.500 . S
O227 C210 1.273 . S
O228 Eu205 2.473 . S
O228 C210 1.257 . S
H229 C215 0.929 . S
H230 C217 0.931 1_455 S
H231 C219 0.929 . S
O232 Tb233 2.292 . S
O232 C235 1.255 . S
Tb233 O232 2.292 . S
Tb233 O249 2.326 . S
Tb233 O251 2.500 . S
Tb233 O252 2.473 . S
Tb233 O255 2.324 . S
Eu234 O238 2.292 . S
Eu234 C239 2.852 . S
Eu234 O250 2.324 . S
Eu234 O254 2.326 . S
Eu234 O256 2.500 . S
Eu234 O257 2.473 . S
C235 O232 1.255 . S
C235 O236 1.247 . S
O236 C235 1.247 . S
C237 O249 1.242 . S
C237 O250 1.258 . S
O238 Eu234 2.292 . S
O238 C240 1.255 . S
C239 Eu234 2.852 . S
C239 C243 1.503 . S
C239 O256 1.273 . S
C239 O257 1.257 . S
C240 O238 1.255 . S
C240 O241 1.247 . S
O241 C240 1.247 . S
C242 O254 1.242 . S
C242 O255 1.258 . S
C243 C239 1.503 . S
C243 C244 1.379 . S
C243 C248 1.392 . S
C244 C243 1.379 . S
C244 C245 1.404 . S
C244 H258 0.929 . S
C245 C244 1.404 . S
C245 C246 1.389 . S
C246 C245 1.389 . S
C246 C247 1.399 . S
C246 H259 0.931 . S
C247 C246 1.399 . S
C247 C248 1.390 . S
C248 C243 1.392 . S
C248 C247 1.390 . S
C248 H260 0.929 . S
O249 Tb233 2.326 . S
O249 C237 1.242 . S
O250 Eu234 2.324 . S
O250 C237 1.258 . S
O251 Tb233 2.500 . S
O251 C253 1.273 . S
O252 Tb233 2.473 . S
O252 C253 1.257 . S
C253 O251 1.273 . S
C253 O252 1.257 . S
O254 Eu234 2.326 . S
O254 C242 1.242 . S
O255 Tb233 2.324 . S
O255 C242 1.258 . S
O256 Eu234 2.500 . S
O256 C239 1.273 . S
O257 Eu234 2.473 . S
O257 C239 1.257 . S
H258 C244 0.929 . S
H259 C246 0.931 . S
H260 C248 0.929 . S
O261 Tb262 2.292 . S
O261 C264 1.255 . S
Tb262 O261 2.292 . S
Tb262 O278 2.326 . S
Tb262 O280 2.500 . S
Tb262 O281 2.473 . S
Tb262 O284 2.324 . S
Eu263 O267 2.292 . S
Eu263 C268 2.852 . S
Eu263 O279 2.324 . S
Eu263 O283 2.326 . S
Eu263 O285 2.500 . S
Eu263 O286 2.473 . S
C264 O261 1.255 . S
C264 O265 1.247 . S
O265 C264 1.247 . S
C266 O278 1.242 . S
C266 O279 1.258 . S
O267 Eu263 2.292 . S
O267 C269 1.255 . S
C268 Eu263 2.852 . S
C268 C272 1.503 . S
C268 O285 1.273 . S
C268 O286 1.257 . S
C269 O267 1.255 . S
C269 O270 1.247 . S
O270 C269 1.247 . S
C271 O283 1.242 . S
C271 O284 1.258 . S
C272 C268 1.503 . S
C272 C273 1.379 . S
C272 C277 1.392 . S
C273 C272 1.379 . S
C273 C274 1.404 . S
C273 H287 0.929 . S
C274 C273 1.404 . S
C274 C275 1.389 . S
C275 C274 1.389 . S
C275 C276 1.399 . S
C275 H288 0.931 . S
C276 C275 1.399 . S
C276 C277 1.390 . S
C277 C272 1.392 . S
C277 C276 1.390 . S
C277 H289 0.929 . S
O278 Tb262 2.326 . S
O278 C266 1.242 . S
O279 Eu263 2.324 . S
O279 C266 1.258 . S
O280 Tb262 2.500 . S
O280 C282 1.273 . S
O281 Tb262 2.473 . S
O281 C282 1.257 . S
C282 O280 1.273 . S
C282 O281 1.257 . S
O283 Eu263 2.326 . S
O283 C271 1.242 . S
O284 Tb262 2.324 . S
O284 C271 1.258 . S
O285 Eu263 2.500 . S
O285 C268 1.273 . S
O286 Eu263 2.473 . S
O286 C268 1.257 . S
H287 C273 0.929 . S
H288 C275 0.931 . S
H289 C277 0.929 . S
O290 Tb291 2.292 1_556 S
O290 C293 1.255 . S
Tb291 O290 2.292 1_554 S
Tb291 O307 2.326 1_554 S
Tb291 O309 2.500 1_554 S
Tb291 O310 2.473 . S
Tb291 O313 2.324 . S
Eu292 O296 2.292 . S
Eu292 C297 2.852 . S
Eu292 O308 2.324 . S
Eu292 O312 2.326 . S
Eu292 O314 2.500 . S
Eu292 O315 2.473 . S
C293 O290 1.255 . S
C293 O294 1.247 . S
O294 C293 1.247 . S
C295 O307 1.242 . S
C295 O308 1.258 1_556 S
O296 Eu292 2.292 . S
O296 C298 1.255 . S
C297 Eu292 2.852 . S
C297 C301 1.503 . S
C297 O314 1.273 . S
C297 O315 1.257 . S
C298 O296 1.255 . S
C298 O299 1.247 . S
O299 C298 1.247 . S
C300 O312 1.242 . S
C300 O313 1.258 . S
C301 C297 1.503 . S
C301 C302 1.379 . S
C301 C306 1.392 . S
C302 C301 1.379 . S
C302 C303 1.404 . S
C302 H316 0.929 . S
C303 C302 1.404 . S
C303 C304 1.389 . S
C304 C303 1.389 . S
C304 C305 1.399 . S
C304 H317 0.931 1_565 S
C305 C304 1.399 . S
C305 C306 1.390 . S
C306 C301 1.392 . S
C306 C305 1.390 . S
C306 H318 0.929 . S
O307 Tb291 2.326 1_556 S
O307 C295 1.242 . S
O308 Eu292 2.324 . S
O308 C295 1.258 1_554 S
O309 Tb291 2.500 1_556 S
O309 C311 1.273 . S
O310 Tb291 2.473 . S
O310 C311 1.257 1_554 S
C311 O309 1.273 . S
C311 O310 1.257 1_556 S
O312 Eu292 2.326 . S
O312 C300 1.242 . S
O313 Tb291 2.324 . S
O313 C300 1.258 . S
O314 Eu292 2.500 . S
O314 C297 1.273 . S
O315 Eu292 2.473 . S
O315 C297 1.257 . S
H316 C302 0.929 . S
H317 C304 0.931 1_545 S
H318 C306 0.929 . S
O319 Tb320 2.292 . S
O319 C322 1.255 . S
Tb320 O319 2.292 . S
Tb320 O336 2.326 . S
Tb320 O338 2.500 . S
Tb320 O339 2.473 . S
Tb320 O342 2.324 . S
Eu321 O325 2.292 . S
Eu321 C326 2.852 . S
Eu321 O337 2.324 . S
Eu321 O341 2.326 . S
Eu321 O343 2.500 . S
Eu321 O344 2.473 . S
C322 O319 1.255 . S
C322 O323 1.247 . S
O323 C322 1.247 . S
C324 O336 1.242 . S
C324 O337 1.258 . S
O325 Eu321 2.292 . S
O325 C327 1.255 . S
C326 Eu321 2.852 . S
C326 C330 1.503 . S
C326 O343 1.273 . S
C326 O344 1.257 . S
C327 O325 1.255 . S
C327 O328 1.247 . S
O328 C327 1.247 . S
C329 O341 1.242 . S
C329 O342 1.258 . S
C330 C326 1.503 . S
C330 C331 1.379 . S
C330 C335 1.392 . S
C331 C330 1.379 . S
C331 C332 1.404 . S
C331 H345 0.929 . S
C332 C331 1.404 . S
C332 C333 1.389 . S
C333 C332 1.389 . S
C333 C334 1.399 . S
C333 H346 0.931 1_455 S
C334 C333 1.399 . S
C334 C335 1.390 . S
C335 C330 1.392 . S
C335 C334 1.390 . S
C335 H347 0.929 . S
O336 Tb320 2.326 . S
O336 C324 1.242 . S
O337 Eu321 2.324 . S
O337 C324 1.258 . S
O338 Tb320 2.500 . S
O338 C340 1.273 . S
O339 Tb320 2.473 . S
O339 C340 1.257 . S
C340 O338 1.273 . S
C340 O339 1.257 . S
O341 Eu321 2.326 . S
O341 C329 1.242 . S
O342 Tb320 2.324 . S
O342 C329 1.258 . S
O343 Eu321 2.500 . S
O343 C326 1.273 . S
O344 Eu321 2.473 . S
O344 C326 1.257 . S
H345 C331 0.929 . S
H346 C333 0.931 1_655 S
H347 C335 0.929 . S
O348 Tb349 2.292 . S
O348 C351 1.255 . S
Tb349 O348 2.292 . S
Tb349 O365 2.326 . S
Tb349 O367 2.500 . S
Tb349 O368 2.473 . S
Tb349 O371 2.324 . S
Eu350 O354 2.292 . S
Eu350 C355 2.852 . S
Eu350 O366 2.324 . S
Eu350 O370 2.326 . S
Eu350 O372 2.500 . S
Eu350 O373 2.473 . S
C351 O348 1.255 . S
C351 O352 1.247 . S
O352 C351 1.247 . S
C353 O365 1.242 . S
C353 O366 1.258 . S
O354 Eu350 2.292 . S
O354 C356 1.255 . S
C355 Eu350 2.852 . S
C355 C359 1.503 . S
C355 O372 1.273 . S
C355 O373 1.257 . S
C356 O354 1.255 . S
C356 O357 1.247 . S
O357 C356 1.247 . S
C358 O370 1.242 . S
C358 O371 1.258 . S
C359 C355 1.503 . S
C359 C360 1.379 . S
C359 C364 1.392 . S
C360 C359 1.379 . S
C360 C361 1.404 . S
C360 H374 0.929 . S
C361 C360 1.404 . S
C361 C362 1.389 . S
C362 C361 1.389 . S
C362 C363 1.399 . S
C362 H375 0.931 1_565 S
C363 C362 1.399 . S
C363 C364 1.390 . S
C364 C359 1.392 . S
C364 C363 1.390 . S
C364 H376 0.929 . S
O365 Tb349 2.326 . S
O365 C353 1.242 . S
O366 Eu350 2.324 . S
O366 C353 1.258 . S
O367 Tb349 2.500 . S
O367 C369 1.273 . S
O368 Tb349 2.473 . S
O368 C369 1.257 . S
C369 O367 1.273 . S
C369 O368 1.257 . S
O370 Eu350 2.326 . S
O370 C358 1.242 . S
O371 Tb349 2.324 . S
O371 C358 1.258 . S
O372 Eu350 2.500 . S
O372 C355 1.273 . S
O373 Eu350 2.473 . S
O373 C355 1.257 . S
H374 C360 0.929 . S
H375 C362 0.931 1_545 S
H376 C364 0.929 . S
O377 Tb378 2.292 1_554 S
O377 C380 1.255 . S
Tb378 O377 2.292 1_556 S
Tb378 O394 2.326 1_556 S
Tb378 O396 2.500 1_556 S
Tb378 O397 2.473 . S
Tb378 O400 2.324 . S
Eu379 O383 2.292 . S
Eu379 C384 2.852 . S
Eu379 O395 2.324 . S
Eu379 O399 2.326 . S
Eu379 O401 2.500 . S
Eu379 O402 2.473 . S
C380 O377 1.255 . S
C380 O381 1.247 . S
O381 C380 1.247 . S
C382 O394 1.242 . S
C382 O395 1.258 1_554 S
O383 Eu379 2.292 . S
O383 C385 1.255 . S
C384 Eu379 2.852 . S
C384 C388 1.503 . S
C384 O401 1.273 . S
C384 O402 1.257 . S
C385 O383 1.255 . S
C385 O386 1.247 . S
O386 C385 1.247 . S
C387 O399 1.242 . S
C387 O400 1.258 . S
C388 C384 1.503 . S
C388 C389 1.379 . S
C388 C393 1.392 . S
C389 C388 1.379 . S
C389 C390 1.404 . S
C389 H403 0.929 . S
C390 C389 1.404 . S
C390 C391 1.389 . S
C391 C390 1.389 . S
C391 C392 1.399 . S
C391 H404 0.931 1_455 S
C392 C391 1.399 . S
C392 C393 1.390 . S
C393 C388 1.392 . S
C393 C392 1.390 . S
C393 H405 0.929 . S
O394 Tb378 2.326 1_554 S
O394 C382 1.242 . S
O395 Eu379 2.324 . S
O395 C382 1.258 1_556 S
O396 Tb378 2.500 1_554 S
O396 C398 1.273 . S
O397 Tb378 2.473 . S
O397 C398 1.257 1_556 S
C398 O396 1.273 . S
C398 O397 1.257 1_554 S
O399 Eu379 2.326 . S
O399 C387 1.242 . S
O400 Tb378 2.324 . S
O400 C387 1.258 . S
O401 Eu379 2.500 . S
O401 C384 1.273 . S
O402 Eu379 2.473 . S
O402 C384 1.257 . S
H403 C389 0.929 . S
H404 C391 0.931 1_655 S
H405 C393 0.929 . S
O406 Tb407 2.292 . S
O406 C409 1.255 . S
Tb407 O406 2.292 . S
Tb407 O423 2.326 . S
Tb407 O425 2.500 . S
Tb407 O426 2.473 . S
Tb407 O429 2.324 . S
Eu408 O412 2.292 . S
Eu408 C413 2.852 . S
Eu408 O424 2.324 . S
Eu408 O428 2.326 . S
Eu408 O430 2.500 . S
Eu408 O431 2.473 . S
C409 O406 1.255 . S
C409 O410 1.247 . S
O410 C409 1.247 . S
C411 O423 1.242 . S
C411 O424 1.258 . S
O412 Eu408 2.292 . S
O412 C414 1.255 . S
C413 Eu408 2.852 . S
C413 C417 1.503 . S
C413 O430 1.273 . S
C413 O431 1.257 . S
C414 O412 1.255 . S
C414 O415 1.247 . S
O415 C414 1.247 . S
C416 O428 1.242 . S
C416 O429 1.258 . S
C417 C413 1.503 . S
C417 C418 1.379 . S
C417 C422 1.392 . S
C418 C417 1.379 . S
C418 C419 1.404 . S
C418 H432 0.929 . S
C419 C418 1.404 . S
C419 C420 1.389 . S
C420 C419 1.389 . S
C420 C421 1.399 . S
C420 H433 0.931 . S
C421 C420 1.399 . S
C421 C422 1.390 . S
C422 C417 1.392 . S
C422 C421 1.390 . S
C422 H434 0.929 . S
O423 Tb407 2.326 . S
O423 C411 1.242 . S
O424 Eu408 2.324 . S
O424 C411 1.258 . S
O425 Tb407 2.500 . S
O425 C427 1.273 . S
O426 Tb407 2.473 . S
O426 C427 1.257 . S
C427 O425 1.273 . S
C427 O426 1.257 . S
O428 Eu408 2.326 . S
O428 C416 1.242 . S
O429 Tb407 2.324 . S
O429 C416 1.258 . S
O430 Eu408 2.500 . S
O430 C413 1.273 . S
O431 Eu408 2.473 . S
O431 C413 1.257 . S
H432 C418 0.929 . S
H433 C420 0.931 . S
H434 C422 0.929 . S
O435 Tb436 2.292 . S
O435 C438 1.255 . S
Tb436 O435 2.292 . S
Tb436 O452 2.326 . S
Tb436 O454 2.500 . S
Tb436 O455 2.473 . S
Tb436 O458 2.324 . S
Eu437 O441 2.292 . S
Eu437 C442 2.852 . S
Eu437 O453 2.324 . S
Eu437 O457 2.326 . S
Eu437 O459 2.500 . S
Eu437 O460 2.473 . S
C438 O435 1.255 . S
C438 O439 1.247 . S
O439 C438 1.247 . S
C440 O452 1.242 . S
C440 O453 1.258 . S
O441 Eu437 2.292 . S
O441 C443 1.255 . S
C442 Eu437 2.852 . S
C442 C446 1.503 . S
C442 O459 1.273 . S
C442 O460 1.257 . S
C443 O441 1.255 . S
C443 O444 1.247 . S
O444 C443 1.247 . S
C445 O457 1.242 . S
C445 O458 1.258 . S
C446 C442 1.503 . S
C446 C447 1.379 . S
C446 C451 1.392 . S
C447 C446 1.379 . S
C447 C448 1.404 . S
C447 H461 0.929 . S
C448 C447 1.404 . S
C448 C449 1.389 . S
C449 C448 1.389 . S
C449 C450 1.399 . S
C449 H462 0.931 . S
C450 C449 1.399 . S
C450 C451 1.390 . S
C451 C446 1.392 . S
C451 C450 1.390 . S
C451 H463 0.929 . S
O452 Tb436 2.326 . S
O452 C440 1.242 . S
O453 Eu437 2.324 . S
O453 C440 1.258 . S
O454 Tb436 2.500 . S
O454 C456 1.273 . S
O455 Tb436 2.473 . S
O455 C456 1.257 . S
C456 O454 1.273 . S
C456 O455 1.257 . S
O457 Eu437 2.326 . S
O457 C445 1.242 . S
O458 Tb436 2.324 . S
O458 C445 1.258 . S
O459 Eu437 2.500 . S
O459 C442 1.273 . S
O460 Eu437 2.473 . S
O460 C442 1.257 . S
H461 C447 0.929 . S
H462 C449 0.931 . S
H463 C451 0.929 . S
C464 C465 1.387 . S
C464 H468 0.950 . S
C464 C473 1.390 . S
C465 C464 1.387 . S
C465 C467 1.387 1_556 S
H466 C473 0.950 . S
C467 C465 1.387 1_554 S
C467 C469 1.390 . S
C467 H471 0.950 . S
H468 C464 0.950 . S
C469 C467 1.390 . S
C469 C470 1.387 . S
C469 H472 0.950 . S
C470 C469 1.387 . S
C470 C473 1.387 1_554 S
H471 C467 0.950 . S
H472 C469 0.950 . S
C473 C464 1.390 . S
C473 H466 0.950 . S
C473 C470 1.387 1_556 S
C474 C475 1.387 . S
C474 H478 0.950 . S
C474 C483 1.390 . S
C475 C474 1.387 . S
C475 C477 1.387 . S
H476 C483 0.950 . S
C477 C475 1.387 . S
C477 C479 1.390 . S
C477 H481 0.950 . S
H478 C474 0.950 . S
C479 C477 1.390 . S
C479 C480 1.387 . S
C479 H482 0.950 . S
C480 C479 1.387 . S
C480 C483 1.387 . S
H481 C477 0.950 . S
H482 C479 0.950 . S
C483 C474 1.390 . S
C483 H476 0.950 . S
C483 C480 1.387 . S
C484 C485 1.387 . S
C484 H488 0.950 . S
C484 C493 1.390 . S
C485 C484 1.387 . S
C485 C487 1.387 . S
H486 C493 0.950 . S
C487 C485 1.387 . S
C487 C489 1.390 . S
C487 H491 0.950 . S
H488 C484 0.950 . S
C489 C487 1.390 . S
C489 C490 1.387 . S
C489 H492 0.950 . S
C490 C489 1.387 . S
C490 C493 1.387 . S
H491 C487 0.950 . S
H492 C489 0.950 . S
C493 C484 1.390 . S
C493 H486 0.950 . S
C493 C490 1.387 . S
C494 C495 1.387 . S
C494 H498 0.950 . S
C494 C503 1.390 . S
C495 C494 1.387 . S
C495 C497 1.387 . S
H496 C503 0.950 . S
C497 C495 1.387 . S
C497 C499 1.390 . S
C497 H501 0.950 . S
H498 C494 0.950 . S
C499 C497 1.390 . S
C499 C500 1.387 . S
C499 H502 0.950 . S
C500 C499 1.387 . S
C500 C503 1.387 . S
H501 C497 0.950 . S
H502 C499 0.950 . S
C503 C494 1.390 . S
C503 H496 0.950 . S
C503 C500 1.387 . S
C504 C505 1.387 . S
C504 H508 0.950 . S
C504 C513 1.390 . S
C505 C504 1.387 . S
C505 C507 1.387 . S
H506 C513 0.950 . S
C507 C505 1.387 . S
C507 C509 1.390 . S
C507 H511 0.950 . S
H508 C504 0.950 . S
C509 C507 1.390 . S
C509 C510 1.387 . S
C509 H512 0.950 . S
C510 C509 1.387 . S
C510 C513 1.387 . S
H511 C507 0.950 . S
H512 C509 0.950 . S
C513 C504 1.390 . S
C513 H506 0.950 . S
C513 C510 1.387 . S
C514 C515 1.387 . S
C514 H518 0.950 . S
C514 C523 1.390 . S
C515 C514 1.387 . S
C515 C517 1.387 . S
H516 C523 0.950 . S
C517 C515 1.387 . S
C517 C519 1.390 . S
C517 H521 0.950 . S
H518 C514 0.950 . S
C519 C517 1.390 . S
C519 C520 1.387 . S
C519 H522 0.950 . S
C520 C519 1.387 . S
C520 C523 1.387 . S
H521 C517 0.950 . S
H522 C519 0.950 . S
C523 C514 1.390 . S
C523 H516 0.950 . S
C523 C520 1.387 . S
C524 C525 1.387 . S
C524 H528 0.950 . S
C524 C533 1.390 1_556 S
C525 C524 1.387 . S
C525 C527 1.387 . S
H526 C533 0.950 . S
C527 C525 1.387 . S
C527 C529 1.390 1_556 S
C527 H531 0.950 . S
H528 C524 0.950 . S
C529 C527 1.390 1_554 S
C529 C530 1.387 . S
C529 H532 0.950 . S
C530 C529 1.387 . S
C530 C533 1.387 . S
H531 C527 0.950 . S
H532 C529 0.950 . S
C533 C524 1.390 1_554 S
C533 H526 0.950 . S
C533 C530 1.387 . S
C534 C535 1.387 . S
C534 H538 0.950 . S
C534 C543 1.390 . S
C535 C534 1.387 . S
C535 C537 1.387 . S
H536 C543 0.950 . S
C537 C535 1.387 . S
C537 C539 1.390 . S
C537 H541 0.950 . S
H538 C534 0.950 . S
C539 C537 1.390 . S
C539 C540 1.387 . S
C539 H542 0.950 . S
C540 C539 1.387 . S
C540 C543 1.387 . S
H541 C537 0.950 . S
H542 C539 0.950 . S
C543 C534 1.390 . S
C543 H536 0.950 . S
C543 C540 1.387 . S
C544 C545 1.387 . S
C544 H548 0.950 . S
C544 C553 1.390 . S
C545 C544 1.387 . S
C545 C547 1.387 . S
H546 C553 0.950 . S
C547 C545 1.387 . S
C547 C549 1.390 . S
C547 H551 0.950 . S
H548 C544 0.950 . S
C549 C547 1.390 . S
C549 C550 1.387 . S
C549 H552 0.950 . S
C550 C549 1.387 . S
C550 C553 1.387 . S
H551 C547 0.950 . S
H552 C549 0.950 . S
C553 C544 1.390 . S
C553 H546 0.950 . S
C553 C550 1.387 . S
C554 C555 1.387 . S
C554 H558 0.950 . S
C554 C563 1.390 . S
C555 C554 1.387 . S
C555 C557 1.387 . S
H556 C563 0.950 . S
C557 C555 1.387 . S
C557 C559 1.390 . S
C557 H561 0.950 . S
H558 C554 0.950 . S
C559 C557 1.390 . S
C559 C560 1.387 . S
C559 H562 0.950 . S
C560 C559 1.387 . S
C560 C563 1.387 . S
H561 C557 0.950 . S
H562 C559 0.950 . S
C563 C554 1.390 . S
C563 H556 0.950 . S
C563 C560 1.387 . S
C564 C565 1.387 . S
C564 H568 0.950 . S
C564 C573 1.390 . S
C565 C564 1.387 . S
C565 C567 1.387 . S
H566 C573 0.950 . S
C567 C565 1.387 . S
C567 C569 1.390 . S
C567 H571 0.950 . S
H568 C564 0.950 . S
C569 C567 1.390 . S
C569 C570 1.387 . S
C569 H572 0.950 . S
C570 C569 1.387 . S
C570 C573 1.387 . S
H571 C567 0.950 . S
H572 C569 0.950 . S
C573 C564 1.390 . S
C573 H566 0.950 . S
C573 C570 1.387 . S
C574 C575 1.387 . S
C574 H578 0.950 . S
C574 C583 1.390 . S
C575 C574 1.387 . S
C575 C577 1.387 . S
H576 C583 0.950 . S
C577 C575 1.387 . S
C577 C579 1.390 . S
C577 H581 0.950 . S
H578 C574 0.950 . S
C579 C577 1.390 . S
C579 C580 1.387 . S
C579 H582 0.950 . S
C580 C579 1.387 . S
C580 C583 1.387 . S
H581 C577 0.950 . S
H582 C579 0.950 . S
C583 C574 1.390 . S
C583 H576 0.950 . S
C583 C580 1.387 . S
C584 C585 1.387 . S
C584 H588 0.950 . S
C584 C593 1.390 . S
C585 C584 1.387 . S
C585 C587 1.387 . S
H586 C593 0.950 . S
C587 C585 1.387 . S
C587 C589 1.390 . S
C587 H591 0.950 . S
H588 C584 0.950 . S
C589 C587 1.390 . S
C589 C590 1.387 . S
C589 H592 0.950 . S
C590 C589 1.387 . S
C590 C593 1.387 . S
H591 C587 0.950 . S
H592 C589 0.950 . S
C593 C584 1.390 . S
C593 H586 0.950 . S
C593 C590 1.387 . S
C594 C595 1.387 . S
C594 H598 0.950 . S
C594 C603 1.390 . S
C595 C594 1.387 . S
C595 C597 1.387 . S
H596 C603 0.950 . S
C597 C595 1.387 . S
C597 C599 1.390 . S
C597 H601 0.950 . S
H598 C594 0.950 . S
C599 C597 1.390 . S
C599 C600 1.387 . S
C599 H602 0.950 . S
C600 C599 1.387 . S
C600 C603 1.387 . S
H601 C597 0.950 . S
H602 C599 0.950 . S
C603 C594 1.390 . S
C603 H596 0.950 . S
C603 C600 1.387 . S
C604 C605 1.387 . S
C604 H608 0.950 . S
C604 C613 1.390 . S
C605 C604 1.387 . S
C605 C607 1.387 . S
H606 C613 0.950 . S
C607 C605 1.387 . S
C607 C609 1.390 . S
C607 H611 0.950 . S
H608 C604 0.950 . S
C609 C607 1.390 . S
C609 C610 1.387 . S
C609 H612 0.950 . S
C610 C609 1.387 . S
C610 C613 1.387 . S
H611 C607 0.950 . S
H612 C609 0.950 . S
C613 C604 1.390 . S
C613 H606 0.950 . S
C613 C610 1.387 . S
C614 C615 1.387 . S
C614 H618 0.950 . S
C614 C623 1.390 . S
C615 C614 1.387 . S
C615 C617 1.387 . S
H616 C623 0.950 . S
C617 C615 1.387 . S
C617 C619 1.390 . S
C617 H621 0.950 . S
H618 C614 0.950 . S
C619 C617 1.390 . S
C619 C620 1.387 . S
C619 H622 0.950 . S
C620 C619 1.387 . S
C620 C623 1.387 . S
H621 C617 0.950 . S
H622 C619 0.950 . S
C623 C614 1.390 . S
C623 H616 0.950 . S
C623 C620 1.387 . S
C624 C625 1.387 . S
C624 H628 0.950 . S
C624 C633 1.390 . S
C625 C624 1.387 . S
C625 C627 1.387 . S
H626 C633 0.950 . S
C627 C625 1.387 . S
C627 C629 1.390 . S
C627 H631 0.950 . S
H628 C624 0.950 . S
C629 C627 1.390 . S
C629 C630 1.387 . S
C629 H632 0.950 . S
C630 C629 1.387 . S
C630 C633 1.387 . S
H631 C627 0.950 . S
H632 C629 0.950 . S
C633 C624 1.390 . S
C633 H626 0.950 . S
C633 C630 1.387 . S
C634 C635 1.387 . S
C634 H638 0.950 . S
C634 C643 1.390 . S
C635 C634 1.387 . S
C635 C637 1.387 . S
H636 C643 0.950 . S
C637 C635 1.387 . S
C637 C639 1.390 . S
C637 H641 0.950 . S
H638 C634 0.950 . S
C639 C637 1.390 . S
C639 C640 1.387 . S
C639 H642 0.950 . S
C640 C639 1.387 . S
C640 C643 1.387 . S
H641 C637 0.950 . S
H642 C639 0.950 . S
C643 C634 1.390 . S
C643 H636 0.950 . S
C643 C640 1.387 . S
C644 C645 1.387 . S
C644 H648 0.950 . S
C644 C653 1.390 . S
C645 C644 1.387 . S
C645 C647 1.387 . S
H646 C653 0.950 . S
C647 C645 1.387 . S
C647 C649 1.390 . S
C647 H651 0.950 . S
H648 C644 0.950 . S
C649 C647 1.390 . S
C649 C650 1.387 . S
C649 H652 0.950 . S
C650 C649 1.387 . S
C650 C653 1.387 . S
H651 C647 0.950 . S
H652 C649 0.950 . S
C653 C644 1.390 . S
C653 H646 0.950 . S
C653 C650 1.387 . S
C654 C655 1.387 . S
C654 H658 0.950 . S
C654 C663 1.390 . S
C655 C654 1.387 . S
C655 C657 1.387 . S
H656 C663 0.950 . S
C657 C655 1.387 . S
C657 C659 1.390 . S
C657 H661 0.950 . S
H658 C654 0.950 . S
C659 C657 1.390 . S
C659 C660 1.387 . S
C659 H662 0.950 . S
C660 C659 1.387 . S
C660 C663 1.387 . S
H661 C657 0.950 . S
H662 C659 0.950 . S
C663 C654 1.390 . S
C663 H656 0.950 . S
C663 C660 1.387 . S
C664 C665 1.387 . S
C664 H668 0.950 . S
C664 C673 1.390 . S
C665 C664 1.387 . S
C665 C667 1.387 . S
H666 C673 0.950 . S
C667 C665 1.387 . S
C667 C669 1.390 . S
C667 H671 0.950 . S
H668 C664 0.950 . S
C669 C667 1.390 . S
C669 C670 1.387 . S
C669 H672 0.950 . S
C670 C669 1.387 . S
C670 C673 1.387 . S
H671 C667 0.950 . S
H672 C669 0.950 . S
C673 C664 1.390 . S
C673 H666 0.950 . S
C673 C670 1.387 . S
C674 C675 1.387 . S
C674 H678 0.950 . S
C674 C683 1.390 . S
C675 C674 1.387 . S
C675 C677 1.387 . S
H676 C683 0.950 . S
C677 C675 1.387 . S
C677 C679 1.390 . S
C677 H681 0.950 . S
H678 C674 0.950 . S
C679 C677 1.390 . S
C679 C680 1.387 . S
C679 H682 0.950 . S
C680 C679 1.387 . S
C680 C683 1.387 . S
H681 C677 0.950 . S
H682 C679 0.950 . S
C683 C674 1.390 . S
C683 H676 0.950 . S
C683 C680 1.387 . S
C684 C685 1.387 . S
C684 H688 0.950 . S
C684 C693 1.390 . S
C685 C684 1.387 . S
C685 C687 1.387 . S
H686 C693 0.950 . S
C687 C685 1.387 . S
C687 C689 1.390 . S
C687 H691 0.950 . S
H688 C684 0.950 . S
C689 C687 1.390 . S
C689 C690 1.387 . S
C689 H692 0.950 . S
C690 C689 1.387 . S
C690 C693 1.387 . S
H691 C687 0.950 . S
H692 C689 0.950 . S
C693 C684 1.390 . S
C693 H686 0.950 . S
C693 C690 1.387 . S
C694 C695 1.387 . S
C694 H698 0.950 . S
C694 C703 1.390 . S
C695 C694 1.387 . S
C695 C697 1.387 . S
H696 C703 0.950 . S
C697 C695 1.387 . S
C697 C699 1.390 . S
C697 H701 0.950 . S
H698 C694 0.950 . S
C699 C697 1.390 . S
C699 C700 1.387 . S
C699 H702 0.950 . S
C700 C699 1.387 . S
C700 C703 1.387 . S
H701 C697 0.950 . S
H702 C699 0.950 . S
C703 C694 1.390 . S
C703 H696 0.950 . S
C703 C700 1.387 . S
C704 C705 1.387 . S
C704 H708 0.950 . S
C704 C713 1.390 . S
C705 C704 1.387 . S
C705 C707 1.387 . S
H706 C713 0.950 . S
C707 C705 1.387 . S
C707 C709 1.390 . S
C707 H711 0.950 . S
H708 C704 0.950 . S
C709 C707 1.390 . S
C709 C710 1.387 . S
C709 H712 0.950 . S
C710 C709 1.387 . S
C710 C713 1.387 . S
H711 C707 0.950 . S
H712 C709 0.950 . S
C713 C704 1.390 . S
C713 H706 0.950 . S
C713 C710 1.387 . S
C714 C715 1.387 . S
C714 H718 0.950 . S
C714 C723 1.390 . S
C715 C714 1.387 . S
C715 C717 1.387 . S
H716 C723 0.950 . S
C717 C715 1.387 . S
C717 C719 1.390 . S
C717 H721 0.950 . S
H718 C714 0.950 . S
C719 C717 1.390 . S
C719 C720 1.387 . S
C719 H722 0.950 . S
C720 C719 1.387 . S
C720 C723 1.387 . S
H721 C717 0.950 . S
H722 C719 0.950 . S
C723 C714 1.390 . S
C723 H716 0.950 . S
C723 C720 1.387 . S
C724 C725 1.387 . S
C724 H728 0.950 . S
C724 C733 1.390 . S
C725 C724 1.387 . S
C725 C727 1.387 . S
H726 C733 0.950 . S
C727 C725 1.387 . S
C727 C729 1.390 . S
C727 H731 0.950 . S
H728 C724 0.950 . S
C729 C727 1.390 . S
C729 C730 1.387 . S
C729 H732 0.950 . S
C730 C729 1.387 . S
C730 C733 1.387 . S
H731 C727 0.950 . S
H732 C729 0.950 . S
C733 C724 1.390 . S
C733 H726 0.950 . S
C733 C730 1.387 . S
C734 C735 1.387 . S
C734 H738 0.950 . S
C734 C743 1.390 . S
C735 C734 1.387 . S
C735 C737 1.387 . S
H736 C743 0.950 . S
C737 C735 1.387 . S
C737 C739 1.390 . S
C737 H741 0.950 . S
H738 C734 0.950 . S
C739 C737 1.390 . S
C739 C740 1.387 . S
C739 H742 0.950 . S
C740 C739 1.387 . S
C740 C743 1.387 . S
H741 C737 0.950 . S
H742 C739 0.950 . S
C743 C734 1.390 . S
C743 H736 0.950 . S
C743 C740 1.387 . S
C744 C745 1.387 . S
C744 H748 0.950 . S
C744 C753 1.390 . S
C745 C744 1.387 . S
C745 C747 1.387 . S
H746 C753 0.950 . S
C747 C745 1.387 . S
C747 C749 1.390 . S
C747 H751 0.950 . S
H748 C744 0.950 . S
C749 C747 1.390 . S
C749 C750 1.387 . S
C749 H752 0.950 . S
C750 C749 1.387 . S
C750 C753 1.387 . S
H751 C747 0.950 . S
H752 C749 0.950 . S
C753 C744 1.390 . S
C753 H746 0.950 . S
C753 C750 1.387 . S
C754 C755 1.387 . S
C754 H758 0.950 . S
C754 C763 1.390 . S
C755 C754 1.387 . S
C755 C757 1.387 . S
H756 C763 0.950 . S
C757 C755 1.387 . S
C757 C759 1.390 . S
C757 H761 0.950 . S
H758 C754 0.950 . S
C759 C757 1.390 . S
C759 C760 1.387 . S
C759 H762 0.950 . S
C760 C759 1.387 . S
C760 C763 1.387 . S
H761 C757 0.950 . S
H762 C759 0.950 . S
C763 C754 1.390 . S
C763 H756 0.950 . S
C763 C760 1.387 . S
C764 C765 1.387 . S
C764 H768 0.950 . S
C764 C773 1.390 . S
C765 C764 1.387 . S
C765 C767 1.387 . S
H766 C773 0.950 . S
C767 C765 1.387 . S
C767 C769 1.390 . S
C767 H771 0.950 . S
H768 C764 0.950 . S
C769 C767 1.390 . S
C769 C770 1.387 . S
C769 H772 0.950 . S
C770 C769 1.387 . S
C770 C773 1.387 . S
H771 C767 0.950 . S
H772 C769 0.950 . S
C773 C764 1.390 . S
C773 H766 0.950 . S
C773 C770 1.387 . S
C774 C775 1.387 . S
C774 H778 0.950 . S
C774 C783 1.390 . S
C775 C774 1.387 . S
C775 C777 1.387 . S
H776 C783 0.950 . S
C777 C775 1.387 . S
C777 C779 1.390 . S
C777 H781 0.950 . S
H778 C774 0.950 . S
C779 C777 1.390 . S
C779 C780 1.387 . S
C779 H782 0.950 . S
C780 C779 1.387 . S
C780 C783 1.387 . S
H781 C777 0.950 . S
H782 C779 0.950 . S
C783 C774 1.390 . S
C783 H776 0.950 . S
C783 C780 1.387 . S
C784 C785 1.392 . S
C784 H788 0.945 1_545 S
C784 C793 1.390 . S
C785 C784 1.392 . S
C785 C787 1.387 . S
H786 C793 0.945 1_565 S
C787 C785 1.387 . S
C787 C789 1.390 . S
C787 H791 0.950 . S
H788 C784 0.945 1_565 S
C789 C787 1.390 . S
C789 C790 1.387 . S
C789 H792 0.950 . S
C790 C789 1.387 . S
C790 C793 1.392 . S
H791 C787 0.950 . S
H792 C789 0.950 . S
C793 C784 1.390 . S
C793 H786 0.945 1_545 S
C793 C790 1.392 . S
C794 C795 1.387 . S
C794 H798 0.950 . S
C794 C803 1.390 . S
C795 C794 1.387 . S
C795 C797 1.392 . S
H796 C803 0.950 . S
C797 C795 1.392 . S
C797 C799 1.390 . S
C797 H801 0.945 1_655 S
H798 C794 0.950 . S
C799 C797 1.390 . S
C799 C800 1.392 . S
C799 H802 0.945 1_655 S
C800 C799 1.392 . S
C800 C803 1.387 . S
H801 C797 0.945 1_455 S
H802 C799 0.945 1_455 S
C803 C794 1.390 . S
C803 H796 0.950 . S
C803 C800 1.387 . S
C804 C805 1.387 . S
C804 H808 0.950 . S
C804 C813 1.390 . S
C805 C804 1.387 . S
C805 C807 1.387 . S
H806 C813 0.950 . S
C807 C805 1.387 . S
C807 C809 1.390 . S
C807 H811 0.950 . S
H808 C804 0.950 . S
C809 C807 1.390 . S
C809 C810 1.387 . S
C809 H812 0.950 . S
C810 C809 1.387 . S
C810 C813 1.387 . S
H811 C807 0.950 . S
H812 C809 0.950 . S
C813 C804 1.390 . S
C813 H806 0.950 . S
C813 C810 1.387 . S
C814 C815 1.387 . S
C814 H818 0.950 . S
C814 C823 1.390 . S
C815 C814 1.387 . S
C815 C817 1.387 . S
H816 C823 0.950 . S
C817 C815 1.387 . S
C817 C819 1.390 . S
C817 H821 0.950 . S
H818 C814 0.950 . S
C819 C817 1.390 . S
C819 C820 1.387 . S
C819 H822 0.950 . S
C820 C819 1.387 . S
C820 C823 1.387 . S
H821 C817 0.950 . S
H822 C819 0.950 . S
C823 C814 1.390 . S
C823 H816 0.950 . S
C823 C820 1.387 . S
C824 C825 1.387 . S
C824 H828 0.950 . S
C824 C833 1.390 . S
C825 C824 1.387 . S
C825 C827 1.387 . S
H826 C833 0.950 . S
C827 C825 1.387 . S
C827 C829 1.390 . S
C827 H831 0.950 . S
H828 C824 0.950 . S
C829 C827 1.390 . S
C829 C830 1.387 . S
C829 H832 0.950 . S
C830 C829 1.387 . S
C830 C833 1.387 . S
H831 C827 0.950 . S
H832 C829 0.950 . S
C833 C824 1.390 . S
C833 H826 0.950 . S
C833 C830 1.387 . S
C834 C835 1.387 . S
C834 H838 0.950 . S
C834 C843 1.390 . S
C835 C834 1.387 . S
C835 C837 1.387 . S
H836 C843 0.950 . S
C837 C835 1.387 . S
C837 C839 1.390 . S
C837 H841 0.950 . S
H838 C834 0.950 . S
C839 C837 1.390 . S
C839 C840 1.387 . S
C839 H842 0.950 . S
C840 C839 1.387 . S
C840 C843 1.387 . S
H841 C837 0.950 . S
H842 C839 0.950 . S
C843 C834 1.390 . S
C843 H836 0.950 . S
C843 C840 1.387 . S
C844 C845 1.392 . S
C844 H848 0.945 1_565 S
C844 C853 1.390 . S
C845 C844 1.392 . S
C845 C847 1.387 . S
H846 C853 0.945 1_545 S
C847 C845 1.387 . S
C847 C849 1.390 . S
C847 H851 0.950 . S
H848 C844 0.945 1_545 S
C849 C847 1.390 . S
C849 C850 1.387 . S
C849 H852 0.950 . S
C850 C849 1.387 . S
C850 C853 1.392 . S
H851 C847 0.950 . S
H852 C849 0.950 . S
C853 C844 1.390 . S
C853 H846 0.945 1_565 S
C853 C850 1.392 . S
C854 C855 1.392 . S
C854 H858 0.945 1_455 S
C854 C863 1.390 . S
C855 C854 1.392 . S
C855 C857 1.387 . S
H856 C863 0.945 1_655 S
C857 C855 1.387 . S
C857 C859 1.390 . S
C857 H861 0.950 . S
H858 C854 0.945 1_655 S
C859 C857 1.390 . S
C859 C860 1.387 . S
C859 H862 0.950 . S
C860 C859 1.387 . S
C860 C863 1.392 . S
H861 C857 0.950 . S
H862 C859 0.950 . S
C863 C854 1.390 . S
C863 H856 0.945 1_455 S
C863 C860 1.392 . S
C864 C865 1.387 . S
C864 H868 0.950 . S
C864 C873 1.390 . S
C865 C864 1.387 . S
C865 C867 1.387 . S
H866 C873 0.950 . S
C867 C865 1.387 . S
C867 C869 1.390 . S
C867 H871 0.950 . S
H868 C864 0.950 . S
C869 C867 1.390 . S
C869 C870 1.387 . S
C869 H872 0.950 1_545 S
C870 C869 1.387 . S
C870 C873 1.387 . S
H871 C867 0.950 . S
H872 C869 0.950 1_565 S
C873 C864 1.390 . S
C873 H866 0.950 . S
C873 C870 1.387 . S
C874 C875 1.387 . S
C874 H878 0.950 . S
C874 C883 1.390 . S
C875 C874 1.387 . S
C875 C877 1.387 . S
H876 C883 0.950 1_565 S
C877 C875 1.387 . S
C877 C879 1.390 . S
C877 H881 0.950 . S
H878 C874 0.950 . S
C879 C877 1.390 . S
C879 C880 1.387 . S
C879 H882 0.950 . S
C880 C879 1.387 . S
C880 C883 1.387 . S
H881 C877 0.950 . S
H882 C879 0.950 . S
C883 C874 1.390 . S
C883 H876 0.950 1_545 S
C883 C880 1.387 . S
C884 C885 1.387 . S
C884 H888 0.950 . S
C884 C893 1.390 . S
C885 C884 1.387 . S
C885 C887 1.387 . S
H886 C893 0.950 1_455 S
C887 C885 1.387 . S
C887 C889 1.390 . S
C887 H891 0.950 . S
H888 C884 0.950 . S
C889 C887 1.390 . S
C889 C890 1.387 . S
C889 H892 0.950 . S
C890 C889 1.387 . S
C890 C893 1.387 . S
H891 C887 0.950 . S
H892 C889 0.950 . S
C893 C884 1.390 . S
C893 H886 0.950 1_655 S
C893 C890 1.387 . S
C894 C895 1.387 . S
C894 H898 0.950 . S
C894 C903 1.390 1_554 S
C895 C894 1.387 . S
C895 C897 1.387 . S
H896 C903 0.950 . S
C897 C895 1.387 . S
C897 C899 1.390 1_554 S
C897 H901 0.950 . S
H898 C894 0.950 . S
C899 C897 1.390 1_556 S
C899 C900 1.387 . S
C899 H902 0.950 . S
C900 C899 1.387 . S
C900 C903 1.387 . S
H901 C897 0.950 . S
H902 C899 0.950 . S
C903 C894 1.390 1_556 S
C903 H896 0.950 . S
C903 C900 1.387 . S
C904 C905 1.387 . S
C904 H908 0.950 . S
C904 C913 1.390 . S
C905 C904 1.387 . S
C905 C907 1.387 . S
H906 C913 0.950 . S
C907 C905 1.387 . S
C907 C909 1.390 . S
C907 H911 0.950 . S
H908 C904 0.950 . S
C909 C907 1.390 . S
C909 C910 1.387 . S
C909 H912 0.950 . S
C910 C909 1.387 . S
C910 C913 1.387 . S
H911 C907 0.950 . S
H912 C909 0.950 . S
C913 C904 1.390 . S
C913 H906 0.950 . S
C913 C910 1.387 . S
C914 C915 1.387 . S
C914 H918 0.950 . S
C914 C923 1.390 1_554 S
C915 C914 1.387 . S
C915 C917 1.387 . S
H916 C923 0.950 . S
C917 C915 1.387 . S
C917 C919 1.390 1_554 S
C917 H921 0.950 . S
H918 C914 0.950 . S
C919 C917 1.390 1_556 S
C919 C920 1.387 . S
C919 H922 0.950 . S
C920 C919 1.387 . S
C920 C923 1.387 . S
H921 C917 0.950 . S
H922 C919 0.950 . S
C923 C914 1.390 1_556 S
C923 H916 0.950 . S
C923 C920 1.387 . S
C924 C925 1.387 . S
C924 H928 0.950 . S
C924 C933 1.390 . S
C925 C924 1.387 . S
C925 C927 1.387 . S
H926 C933 0.950 . S
C927 C925 1.387 . S
C927 C929 1.390 . S
C927 H931 0.950 1_565 S
H928 C924 0.950 . S
C929 C927 1.390 . S
C929 C930 1.387 . S
C929 H932 0.950 . S
C930 C929 1.387 . S
C930 C933 1.387 . S
H931 C927 0.950 1_545 S
H932 C929 0.950 . S
C933 C924 1.390 . S
C933 H926 0.950 . S
C933 C930 1.387 . S
C934 C935 1.387 . S
C934 H938 0.950 . S
C934 C943 1.390 . S
C935 C934 1.387 . S
C935 C937 1.387 . S
H936 C943 0.950 1_545 S
C937 C935 1.387 . S
C937 C939 1.390 . S
C937 H941 0.950 . S
H938 C934 0.950 . S
C939 C937 1.390 . S
C939 C940 1.387 . S
C939 H942 0.950 . S
C940 C939 1.387 . S
C940 C943 1.387 . S
H941 C937 0.950 . S
H942 C939 0.950 . S
C943 C934 1.390 . S
C943 H936 0.950 1_565 S
C943 C940 1.387 . S
C944 C945 1.387 . S
C944 H948 0.950 . S
C944 C953 1.390 1_565 S
C945 C944 1.387 . S
C945 C947 1.387 . S
H946 C953 0.950 . S
C947 C945 1.387 . S
C947 C949 1.390 1_565 S
C947 H951 0.950 . S
H948 C944 0.950 . S
C949 C947 1.390 1_545 S
C949 C950 1.387 . S
C949 H952 0.950 . S
C950 C949 1.387 . S
C950 C953 1.387 . S
H951 C947 0.950 . S
H952 C949 0.950 . S
C953 C944 1.390 1_545 S
C953 H946 0.950 . S
C953 C950 1.387 . S
C954 C955 1.387 . S
C954 H958 0.950 . S
C954 C963 1.390 1_445 S
C955 C954 1.387 . S
C955 C957 1.387 . S
H956 C963 0.950 . S
C957 C955 1.387 . S
C957 C959 1.390 1_445 S
C957 H961 0.950 . S
H958 C954 0.950 . S
C959 C957 1.390 1_665 S
C959 C960 1.387 . S
C959 H962 0.950 . S
C960 C959 1.387 . S
C960 C963 1.387 . S
H961 C957 0.950 . S
H962 C959 0.950 . S
C963 C954 1.390 1_665 S
C963 H956 0.950 . S
C963 C960 1.387 . S
C964 C965 1.387 . S
C964 H968 0.950 . S
C964 C973 1.390 1_455 S
C965 C964 1.387 . S
C965 C967 1.387 . S
H966 C973 0.950 . S
C967 C965 1.387 . S
C967 C969 1.390 1_455 S
C967 H971 0.950 . S
H968 C964 0.950 . S
C969 C967 1.390 1_655 S
C969 C970 1.387 . S
C969 H972 0.950 . S
C970 C969 1.387 . S
C970 C973 1.387 . S
H971 C967 0.950 . S
H972 C969 0.950 . S
C973 C964 1.390 1_655 S
C973 H966 0.950 . S
C973 C970 1.387 . S
C974 C975 1.387 . S
C974 H978 0.950 . S
C974 C983 1.390 . S
C975 C974 1.387 . S
C975 C977 1.387 . S
H976 C983 0.950 . S
C977 C975 1.387 . S
C977 C979 1.390 . S
C977 H981 0.950 . S
H978 C974 0.950 . S
C979 C977 1.390 . S
C979 C980 1.387 . S
C979 H982 0.950 . S
C980 C979 1.387 . S
C980 C983 1.387 . S
H981 C977 0.950 . S
H982 C979 0.950 . S
C983 C974 1.390 . S
C983 H976 0.950 . S
C983 C980 1.387 . S
C984 C985 1.387 . S
C984 H988 0.950 . S
C984 C993 1.390 . S
C985 C984 1.387 . S
C985 C987 1.387 . S
H986 C993 0.950 . S
C987 C985 1.387 . S
C987 C989 1.390 . S
C987 H991 0.950 . S
H988 C984 0.950 . S
C989 C987 1.390 . S
C989 C990 1.387 . S
C989 H992 0.950 . S
C990 C989 1.387 . S
C990 C993 1.387 . S
H991 C987 0.950 . S
H992 C989 0.950 . S
C993 C984 1.390 . S
C993 H986 0.950 . S
C993 C990 1.387 . S
C994 C995 1.387 . S
C994 H998 0.950 . S
C994 C1003 1.390 1_545 S
C995 C994 1.387 . S
C995 C997 1.387 . S
H996 C1003 0.950 . S
C997 C995 1.387 . S
C997 C999 1.390 1_545 S
C997 H1001 0.950 . S
H998 C994 0.950 . S
C999 C997 1.390 1_565 S
C999 C1000 1.387 . S
C999 H1002 0.950 . S
C1000 C999 1.387 . S
C1000 C1003 1.387 . S
H1001 C997 0.950 . S
H1002 C999 0.950 . S
C1003 C994 1.390 1_565 S
C1003 H996 0.950 . S
C1003 C1000 1.387 . S
C1004 C1005 1.387 . S
C1004 H1008 0.950 . S
C1004 C1013 1.390 1_445 S
C1005 C1004 1.387 . S
C1005 C1007 1.387 . S
H1006 C1013 0.950 . S
C1007 C1005 1.387 . S
C1007 C1009 1.390 1_445 S
C1007 H1011 0.950 . S
H1008 C1004 0.950 . S
C1009 C1007 1.390 1_665 S
C1009 C1010 1.387 . S
C1009 H1012 0.950 . S
C1010 C1009 1.387 . S
C1010 C1013 1.387 . S
H1011 C1007 0.950 . S
H1012 C1009 0.950 . S
C1013 C1004 1.390 1_665 S
C1013 H1006 0.950 . S
C1013 C1010 1.387 . S
C1014 C1015 1.387 . S
C1014 H1018 0.950 . S
C1014 C1023 1.390 1_655 S
C1015 C1014 1.387 . S
C1015 C1017 1.387 . S
H1016 C1023 0.950 . S
C1017 C1015 1.387 . S
C1017 C1019 1.390 1_655 S
C1017 H1021 0.950 . S
H1018 C1014 0.950 . S
C1019 C1017 1.390 1_455 S
C1019 C1020 1.387 . S
C1019 H1022 0.950 . S
C1020 C1019 1.387 . S
C1020 C1023 1.387 . S
H1021 C1017 0.950 . S
H1022 C1019 0.950 . S
C1023 C1014 1.390 1_455 S
C1023 H1016 0.950 . S
C1023 C1020 1.387 . S
C465 C21 0.771 . S
C470 C224 0.774 . S
C475 C137 0.769 . S
C480 C50 0.772 . S
C485 C79 0.774 . S
C490 C166 0.771 . S
C495 C108 0.774 . S
C500 C195 0.771 . S
C505 C456 0.771 . S
C510 C253 0.774 . S
C515 C369 0.766 . S
C520 C282 0.766 . S
C525 C311 0.775 . S
C530 C398 0.775 . S
C535 C340 0.768 . S
C540 C427 0.772 . S
C545 C97 2.530 . S
C550 C5 2.525 . S
C555 C34 2.523 . S
C560 C10 2.528 . S
C565 C63 2.524 . S
C570 C39 2.528 . S
C575 C92 2.525 . S
C580 C68 2.530 . S
C585 C121 2.525 . S
C590 C155 2.530 . S
C595 C150 2.524 . S
C600 C184 2.528 . S
C605 C213 2.530 . S
C610 C179 2.525 . S
C615 C208 2.524 . S
C620 C126 2.530 . S
C625 C329 2.528 . S
C630 C237 2.523 . S
C635 C266 2.525 . S
C640 C242 2.530 . S
C645 C271 2.528 . S
C650 C295 2.523 . S
C655 C324 2.524 . S
C660 C300 2.530 . S
C665 C353 2.524 . S
C670 C387 2.528 . S
C675 C382 2.525 . S
C680 C416 2.530 . S
C685 C411 2.524 . S
C690 C445 2.528 . S
C695 C440 2.524 . S
C700 C358 2.528 . S
C705 C124 0.707 . S
C710 C8 0.707 . S
C715 C153 0.695 . S
C720 C37 0.695 . S
C725 C66 0.695 . S
C730 C182 0.695 . S
C735 C211 0.707 . S
C740 C95 0.707 . S
C745 C356 0.707 . S
C750 C240 0.707 . S
C755 C269 0.707 . S
C760 C385 0.707 . S
C765 C414 0.695 . S
C770 C298 0.695 . S
C775 C443 0.700 . S
C780 C327 0.702 . S
C785 C177 2.097 . S
C790 C3 2.097 . S
C795 C206 2.099 . S
C800 C32 2.099 . S
C805 C61 2.097 . S
C810 C119 2.097 . S
C815 C90 2.097 . S
C820 C148 2.097 . S
C825 C235 2.098 . S
C830 C409 2.099 . S
C835 C264 2.099 . S
C840 C438 2.099 . S
C845 C351 2.097 . S
C850 C293 2.097 . S
C855 C380 2.097 . S
C860 C322 2.097 . S
C865 C160 2.245 . S
C870 C15 2.244 . S
C875 C44 2.243 . S
C880 C189 2.244 . S
C885 C73 2.243 . S
C890 C218 2.244 . S
C895 C131 2.243 . S
C900 C102 2.244 . S
C905 C247 2.243 . S
C910 C392 2.243 . S
C915 C421 2.244 . S
C920 C276 2.243 . S
C925 C305 2.244 . S
C930 C450 2.245 . S
C935 C334 2.243 . S
C940 C363 2.244 . S
C945 C13 2.012 1_565 S
C950 C303 2.012 1_545 S
C955 C42 2.015 1_455 S
C960 C332 2.015 1_655 S
C965 C245 2.015 . S
C970 C71 2.015 . S
C975 C274 2.012 . S
C980 C100 2.012 . S
C985 C129 2.015 . S
C990 C419 2.015 . S
C995 C158 2.012 . S
C1000 C448 2.012 . S
C1005 C361 2.015 1_545 S
C1010 C187 2.015 1_565 S
C1015 C390 2.012 1_655 S
C1020 C216 2.012 1_455 S
