# Generated by pormake.
# Topology und, (4)-cn, num edge types: 1
# Building blocks:
#     Node 0, Type 0, BuildingBlock: CEKHIL_clean_sbu_0, # of connection points: 4
#     Node 1, Type 0, BuildingBlock: CEKHIL_clean_sbu_0, # of connection points: 4
#     Node 2, Type 0, BuildingBlock: CEKHIL_clean_sbu_0, # of connection points: 4
#     Node 3, Type 0, BuildingBlock: CEKHIL_clean_sbu_0, # of connection points: 4
#     Node 4, Type 0, BuildingBlock: CEKHIL_clean_sbu_0, # of connection points: 4
#     Node 5, Type 0, BuildingBlock: CEKHIL_clean_sbu_0, # of connection points: 4
#     Node 6, Type 0, BuildingBlock: CEKHIL_clean_sbu_0, # of connection points: 4
#     Node 7, Type 0, BuildingBlock: CEKHIL_clean_sbu_0, # of connection points: 4
#     Node 8, Type 0, BuildingBlock: CEKHIL_clean_sbu_0, # of connection points: 4
#     Node 9, Type 0, BuildingBlock: CEKHIL_clean_sbu_0, # of connection points: 4
#     Node 10, Type 0, BuildingBlock: CEKHIL_clean_sbu_0, # of connection points: 4
#     Node 11, Type 0, BuildingBlock: CEKHIL_clean_sbu_0, # of connection points: 4
#     Node 12, Type 0, BuildingBlock: CEKHIL_clean_sbu_0, # of connection points: 4
#     Node 13, Type 0, BuildingBlock: CEKHIL_clean_sbu_0, # of connection points: 4
#     Node 14, Type 0, BuildingBlock: CEKHIL_clean_sbu_0, # of connection points: 4
#     Node 15, Type 0, BuildingBlock: CEKHIL_clean_sbu_0, # of connection points: 4
#     Edge 16, Type (0, 0), BuildingBlock: MIFKUJ_clean_linker_0, # of connection points: 2
#     Edge 17, Type (0, 0), BuildingBlock: MIFKUJ_clean_linker_0, # of connection points: 2
#     Edge 18, Type (0, 0), BuildingBlock: MIFKUJ_clean_linker_0, # of connection points: 2
#     Edge 19, Type (0, 0), BuildingBlock: MIFKUJ_clean_linker_0, # of connection points: 2
#     Edge 20, Type (0, 0), BuildingBlock: MIFKUJ_clean_linker_0, # of connection points: 2
#     Edge 21, Type (0, 0), BuildingBlock: MIFKUJ_clean_linker_0, # of connection points: 2
#     Edge 22, Type (0, 0), BuildingBlock: MIFKUJ_clean_linker_0, # of connection points: 2
#     Edge 23, Type (0, 0), BuildingBlock: MIFKUJ_clean_linker_0, # of connection points: 2
#     Edge 24, Type (0, 0), BuildingBlock: MIFKUJ_clean_linker_0, # of connection points: 2
#     Edge 25, Type (0, 0), BuildingBlock: MIFKUJ_clean_linker_0, # of connection points: 2
#     Edge 26, Type (0, 0), BuildingBlock: MIFKUJ_clean_linker_0, # of connection points: 2
#     Edge 27, Type (0, 0), BuildingBlock: MIFKUJ_clean_linker_0, # of connection points: 2
#     Edge 28, Type (0, 0), BuildingBlock: MIFKUJ_clean_linker_0, # of connection points: 2
#     Edge 29, Type (0, 0), BuildingBlock: MIFKUJ_clean_linker_0, # of connection points: 2
#     Edge 30, Type (0, 0), BuildingBlock: MIFKUJ_clean_linker_0, # of connection points: 2
#     Edge 31, Type (0, 0), BuildingBlock: MIFKUJ_clean_linker_0, # of connection points: 2
#     Edge 32, Type (0, 0), BuildingBlock: MIFKUJ_clean_linker_0, # of connection points: 2
#     Edge 33, Type (0, 0), BuildingBlock: MIFKUJ_clean_linker_0, # of connection points: 2
#     Edge 34, Type (0, 0), BuildingBlock: MIFKUJ_clean_linker_0, # of connection points: 2
#     Edge 35, Type (0, 0), BuildingBlock: MIFKUJ_clean_linker_0, # of connection points: 2
#     Edge 36, Type (0, 0), BuildingBlock: MIFKUJ_clean_linker_0, # of connection points: 2
#     Edge 37, Type (0, 0), BuildingBlock: MIFKUJ_clean_linker_0, # of connection points: 2
#     Edge 38, Type (0, 0), BuildingBlock: MIFKUJ_clean_linker_0, # of connection points: 2
#     Edge 39, Type (0, 0), BuildingBlock: MIFKUJ_clean_linker_0, # of connection points: 2
#     Edge 40, Type (0, 0), BuildingBlock: MIFKUJ_clean_linker_0, # of connection points: 2
#     Edge 41, Type (0, 0), BuildingBlock: MIFKUJ_clean_linker_0, # of connection points: 2
#     Edge 42, Type (0, 0), BuildingBlock: MIFKUJ_clean_linker_0, # of connection points: 2
#     Edge 43, Type (0, 0), BuildingBlock: MIFKUJ_clean_linker_0, # of connection points: 2
#     Edge 44, Type (0, 0), BuildingBlock: MIFKUJ_clean_linker_0, # of connection points: 2
#     Edge 45, Type (0, 0), BuildingBlock: MIFKUJ_clean_linker_0, # of connection points: 2
#     Edge 46, Type (0, 0), BuildingBlock: MIFKUJ_clean_linker_0, # of connection points: 2
#     Edge 47, Type (0, 0), BuildingBlock: MIFKUJ_clean_linker_0, # of connection points: 2
# Relax obj value: 0.005
# Max RMSD: 0.041
# Mean RMSD: 0.041
data_MOF--net-und--node1-CEKHIL_clean_sbu_0--edge1-MIFKUJ_clean_linker_0
_symmetry_space_group_name_H-M    P1
_symmetry_Int_Tables_number       1
_symmetry_cell_setting            triclinic
loop_
_symmetry_equiv_pos_as_xyz
'x, y, z'
_cell_length_a     77.165033
_cell_length_b     77.188387
_cell_length_c     28.676408
_cell_angle_alpha  90.043848
_cell_angle_beta   89.982694
_cell_angle_gamma 93.264171
loop_
_atom_site_label
_atom_site_type_symbol
_atom_site_fract_x
_atom_site_fract_y
_atom_site_fract_z
_atom_type_partial_charge
Co0 Co 0.24566 0.35188 0.03241 0.0
O1 O 0.23943 0.36972 0.07508 0.0
O2 O 0.22595 0.36387 0.00846 0.0
C3 C 0.24744 0.33124 0.08763 0.0
O4 O 0.24834 0.33377 0.9805 0.0
Co5 Co 0.28123 0.33548 0.04245 0.0
O6 O 0.27069 0.31771 0.99975 0.0
C7 C 0.2795 0.36999 0.99843 0.0
C8 C 0.22699 0.37299 0.04673 0.0
C9 C 0.25767 0.32056 0.97416 0.0
O10 O 0.2628 0.36885 1.00069 0.0
O11 O 0.2891 0.35854 0.01539 0.0
O12 O 0.23258 0.33441 0.06929 0.0
O13 O 0.26043 0.34141 0.07474 0.0
Co14 Co 0.91679 0.02232 0.25378 0.0
O15 O 0.8997 0.02966 0.21047 0.0
O16 O 0.90492 0.04193 0.2791 0.0
C17 C 0.93818 0.02073 0.20042 0.0
O18 O 0.93406 0.01805 0.30662 0.0
Co19 Co 0.93116 0.98588 0.23927 0.0
O20 O 0.94682 0.99307 0.29144 0.0
C21 C 0.89558 0.98892 0.27358 0.0
C22 C 0.89616 0.04156 0.24021 0.0
C23 C 0.94514 0.0066 0.31626 0.0
O24 O 0.89894 0.00517 0.28177 0.0
O25 O 0.90603 0.97944 0.25189 0.0
O26 O 0.93515 0.03545 0.21986 0.0
O27 O 0.92733 0.00798 0.21081 0.0
Co28 Co 0.25777 0.68121 0.53427 0.0
O29 O 0.2638 0.66421 0.57932 0.0
O30 O 0.27717 0.66827 0.51184 0.0
C31 C 0.25632 0.7029 0.58666 0.0
O32 O 0.25499 0.69838 0.48028 0.0
Co33 Co 0.22199 0.69745 0.5438 0.0
O34 O 0.23235 0.71437 0.49821 0.0
C35 C 0.22385 0.66154 0.51009 0.0
C36 C 0.27603 0.65997 0.55142 0.0
C37 C 0.24544 0.71135 0.47292 0.0
O38 O 0.24039 0.66389 0.50519 0.0
O39 O 0.21442 0.67269 0.52918 0.0
O40 O 0.27114 0.69921 0.56888 0.0
O41 O 0.24329 0.69258 0.57508 0.0
Co42 Co 0.58686 0.0086 0.75735 0.0
O43 O 0.6049 0.00312 0.71448 0.0
O44 O 0.59921 0.98901 0.7803 0.0
C45 C 0.56621 0.01039 0.7022 0.0
O46 O 0.56867 0.01051 0.80931 0.0
Co47 Co 0.5696 0.0438 0.74961 0.0
O48 O 0.55172 0.03219 0.79014 0.0
C49 C 0.6043 0.04244 0.7931 0.0
C50 C 0.60838 0.99056 0.74221 0.0
C51 C 0.55501 0.0192 0.81536 0.0
O52 O 0.60342 0.02576 0.79014 0.0
O53 O 0.59265 0.05192 0.77664 0.0
O54 O 0.56973 0.99547 0.71955 0.0
O55 O 0.57607 0.02347 0.71602 0.0
Co56 Co 0.75919 0.68077 0.00489 0.0
O57 O 0.76416 0.66307 0.96044 0.0
O58 O 0.77788 0.66703 0.0275 0.0
C59 C 0.75889 0.70225 0.9516 0.0
O60 O 0.75776 0.69843 0.0585 0.0
Co61 Co 0.72499 0.70001 0.99664 0.0
O62 O 0.73711 0.71667 0.03964 0.0
C63 C 0.72418 0.66451 0.03617 0.0
C64 C 0.77635 0.65859 0.98819 0.0
C65 C 0.74968 0.71244 0.06528 0.0
O66 O 0.74088 0.66462 0.03509 0.0
O67 O 0.71557 0.67685 0.01982 0.0
O68 O 0.77346 0.69771 0.96908 0.0
O69 O 0.74527 0.69292 0.96408 0.0
Co70 Co 0.08657 0.01053 0.78373 0.0
O71 O 0.10266 0.00387 0.8306 0.0
O72 O 0.10007 0.99154 0.76126 0.0
C73 C 0.06392 0.0112 0.83365 0.0
O74 O 0.07039 0.01378 0.72759 0.0
Co75 Co 0.0695 0.04587 0.79391 0.0
O76 O 0.05489 0.03714 0.74143 0.0
C77 C 0.10543 0.04512 0.75849 0.0
C78 C 0.1074 0.992 0.80222 0.0
C79 C 0.05836 0.02407 0.71665 0.0
O80 O 0.10436 0.02839 0.75812 0.0
O81 O 0.09344 0.05427 0.77448 0.0
O82 O 0.06798 0.99667 0.81482 0.0
O83 O 0.07432 0.02443 0.82441 0.0
Co84 Co 0.7474 0.35028 0.50362 0.0
O85 O 0.74154 0.36678 0.45701 0.0
O86 O 0.7279 0.36344 0.52436 0.0
C87 C 0.74904 0.32793 0.45318 0.0
O88 O 0.74994 0.33376 0.55935 0.0
Co89 Co 0.78325 0.334 0.49653 0.0
O90 O 0.77426 0.31934 0.54856 0.0
C91 C 0.78128 0.36952 0.53341 0.0
C92 C 0.72925 0.37137 0.48429 0.0
C93 C 0.76059 0.32223 0.5716 0.0
O94 O 0.76458 0.36799 0.53205 0.0
O95 O 0.79101 0.35791 0.51793 0.0
O96 O 0.73418 0.33187 0.47026 0.0
O97 O 0.76205 0.3384 0.46404 0.0
Co98 Co 0.41721 0.02171 0.28803 0.0
O99 O 0.40032 0.0272 0.33409 0.0
O100 O 0.40365 0.04076 0.26664 0.0
C101 C 0.43928 0.0208 0.33935 0.0
O102 O 0.43414 0.0197 0.23306 0.0
Co103 Co 0.43517 0.98684 0.29468 0.0
O104 O 0.45198 0.99865 0.25142 0.0
C105 C 0.39971 0.98732 0.25567 0.0
C106 C 0.39573 0.03946 0.30676 0.0
C107 C 0.44791 0.01129 0.22586 0.0
O108 O 0.40022 0.00399 0.25886 0.0
O109 O 0.4119 0.97814 0.27036 0.0
O110 O 0.43501 0.03549 0.32201 0.0
O111 O 0.42933 0.00744 0.32799 0.0
Co112 Co 0.74514 0.85058 0.53533 0.0
O113 O 0.73927 0.86818 0.57903 0.0
O114 O 0.72591 0.86338 0.51172 0.0
C115 C 0.74625 0.8293 0.58887 0.0
O116 O 0.74767 0.83289 0.4824 0.0
Co117 Co 0.78056 0.83365 0.54554 0.0
O118 O 0.76988 0.81649 0.50118 0.0
C119 C 0.77943 0.86912 0.50743 0.0
C120 C 0.72708 0.87212 0.55062 0.0
C121 C 0.75692 0.81966 0.47562 0.0
O122 O 0.76276 0.86739 0.5051 0.0
O123 O 0.78872 0.85774 0.52605 0.0
O124 O 0.73149 0.83316 0.57112 0.0
O125 O 0.75948 0.83928 0.57679 0.0
Co126 Co 0.41816 0.52363 0.75484 0.0
O127 O 0.4021 0.52986 0.70743 0.0
O128 O 0.4044 0.54251 0.77655 0.0
C129 C 0.44084 0.523 0.70534 0.0
O130 O 0.43429 0.52092 0.81124 0.0
Co131 Co 0.43601 0.48868 0.74756 0.0
O132 O 0.45238 0.50006 0.79281 0.0
C133 C 0.39954 0.48895 0.77939 0.0
C134 C 0.39724 0.54182 0.73538 0.0
C135 C 0.44802 0.51249 0.81879 0.0
O136 O 0.40063 0.50566 0.78068 0.0
O137 O 0.41178 0.47994 0.76407 0.0
O138 O 0.43653 0.53759 0.72331 0.0
O139 O 0.4307 0.50964 0.71527 0.0
Co140 Co 0.75904 0.18033 0.03416 0.0
O141 O 0.76636 0.16315 0.07751 0.0
O142 O 0.77813 0.16799 0.008 0.0
C143 C 0.75851 0.20193 0.08726 0.0
O144 O 0.75502 0.19754 0.98089 0.0
Co145 Co 0.72352 0.19663 0.04933 0.0
O146 O 0.7309 0.2117 0.99644 0.0
C147 C 0.72453 0.16102 0.01186 0.0
C148 C 0.77799 0.15945 0.04716 0.0
C149 C 0.74408 0.2091 0.97113 0.0
O150 O 0.74116 0.16282 0.00745 0.0
O151 O 0.71552 0.17241 0.03141 0.0
O152 O 0.77295 0.1984 0.06707 0.0
O153 O 0.74532 0.19153 0.07756 0.0
Co154 Co 0.08683 0.50885 0.25184 0.0
O155 O 0.1041 0.50103 0.20966 0.0
O156 O 0.09812 0.48915 0.27845 0.0
C157 C 0.06595 0.51047 0.19742 0.0
O158 O 0.06932 0.51349 0.30381 0.0
Co159 Co 0.0724 0.54508 0.23631 0.0
O160 O 0.05549 0.53744 0.28514 0.0
C161 C 0.10759 0.5424 0.27484 0.0
C162 C 0.10713 0.48919 0.24002 0.0
C163 C 0.05746 0.52435 0.31132 0.0
O164 O 0.10471 0.52592 0.28021 0.0
O165 O 0.09697 0.55195 0.25405 0.0
O166 O 0.06845 0.49581 0.21776 0.0
O167 O 0.07687 0.52317 0.20767 0.0
Co168 Co 0.25839 0.18219 0.5024 0.0
O169 O 0.26546 0.16606 0.45623 0.0
O170 O 0.27772 0.1693 0.52553 0.0
C171 C 0.25723 0.20451 0.45185 0.0
O172 O 0.25464 0.19861 0.55765 0.0
Co173 Co 0.22258 0.1981 0.49138 0.0
O174 O 0.23214 0.2146 0.53897 0.0
C175 C 0.22425 0.16232 0.5269 0.0
C176 C 0.27744 0.16176 0.48481 0.0
C177 C 0.24489 0.21141 0.56527 0.0
O178 O 0.24094 0.16418 0.5286 0.0
O179 O 0.21478 0.17385 0.50984 0.0
O180 O 0.27186 0.20092 0.47087 0.0
O181 O 0.24424 0.19381 0.46114 0.0
Co182 Co 0.58733 0.50862 0.28644 0.0
O183 O 0.60541 0.50398 0.32997 0.0
O184 O 0.60096 0.48983 0.26372 0.0
C185 C 0.56635 0.50927 0.34109 0.0
O186 O 0.56923 0.50971 0.23393 0.0
Co187 Co 0.5681 0.54278 0.29427 0.0
O188 O 0.55083 0.53009 0.25399 0.0
C189 C 0.60328 0.54339 0.25254 0.0
C190 C 0.60974 0.49166 0.30241 0.0
C191 C 0.55497 0.51749 0.22832 0.0
O192 O 0.60315 0.5267 0.25438 0.0
O193 O 0.59108 0.55211 0.26931 0.0
O194 O 0.57071 0.49458 0.32384 0.0
O195 O 0.57557 0.52279 0.3274 0.0
Co196 Co 0.24529 0.85125 0.0033 0.0
O197 O 0.24003 0.86833 0.95756 0.0
O198 O 0.22647 0.86514 0.02503 0.0
C199 C 0.24581 0.82929 0.95134 0.0
O200 O 0.24712 0.83415 0.05806 0.0
Co201 Co 0.27989 0.83276 0.99539 0.0
O202 O 0.26826 0.81634 0.03997 0.0
C203 C 0.28015 0.86875 0.03107 0.0
C204 C 0.22792 0.87315 0.98507 0.0
C205 C 0.25559 0.82041 0.06547 0.0
O206 O 0.26342 0.86797 0.03196 0.0
O207 O 0.28896 0.85657 0.01455 0.0
O208 O 0.2312 0.83367 0.96903 0.0
O209 O 0.25927 0.839 0.96298 0.0
Co210 Co 0.91756 0.52326 0.7804 0.0
O211 O 0.90027 0.53021 0.8237 0.0
O212 O 0.90548 0.54279 0.75546 0.0
C213 C 0.93872 0.52187 0.83412 0.0
O214 O 0.935 0.51952 0.72748 0.0
Co215 Co 0.93316 0.48746 0.79336 0.0
O216 O 0.94983 0.49612 0.74516 0.0
C217 C 0.89772 0.48933 0.75564 0.0
C218 C 0.89664 0.54214 0.79422 0.0
C219 C 0.94729 0.5092 0.71944 0.0
O220 O 0.89995 0.50595 0.75191 0.0
O221 O 0.90885 0.47993 0.77484 0.0
O222 O 0.93575 0.53656 0.81456 0.0
O223 O 0.92813 0.50895 0.82346 0.0
H224 H 0.22377 0.30502 0.11027 0.0
H225 H 0.22585 0.28367 0.17265 0.0
H226 H 0.2767 0.30586 0.20873 0.0
H227 H 0.27494 0.32681 0.1452 0.0
H228 H 0.27654 0.27207 0.21381 0.0
H229 H 0.23904 0.31508 0.27127 0.0
H230 H 0.2138 0.33329 0.26889 0.0
H231 H 0.17932 0.28763 0.26623 0.0
H232 H 0.20436 0.26915 0.268 0.0
H233 H 0.2813 0.23096 0.43365 0.0
H234 H 0.27983 0.25339 0.37374 0.0
H235 H 0.22896 0.23243 0.33352 0.0
H236 H 0.23011 0.21042 0.39441 0.0
H237 H 0.22957 0.26627 0.33192 0.0
H238 H 0.26701 0.2233 0.2725 0.0
H239 H 0.2922 0.20502 0.27454 0.0
H240 H 0.32675 0.25058 0.28074 0.0
H241 H 0.30175 0.26913 0.27932 0.0
C242 C 0.23544 0.30526 0.13132 0.0
C243 C 0.24914 0.31764 0.12316 0.0
C244 C 0.23657 0.29313 0.16715 0.0
C245 C 0.25127 0.29341 0.19612 0.0
C246 C 0.26519 0.30545 0.18702 0.0
C247 C 0.26417 0.31742 0.15074 0.0
C248 C 0.25206 0.28131 0.2362 0.0
C249 C 0.26638 0.27098 0.23998 0.0
C250 C 0.23865 0.27963 0.26993 0.0
C251 C 0.22358 0.29074 0.26939 0.0
C252 C 0.22607 0.30893 0.26991 0.0
C253 C 0.2118 0.3193 0.2687 0.0
C254 C 0.19497 0.31162 0.26731 0.0
C255 C 0.19236 0.29356 0.26727 0.0
C256 C 0.20659 0.28313 0.26843 0.0
C257 C 0.26975 0.23126 0.41228 0.0
C258 C 0.25588 0.21889 0.41842 0.0
C259 C 0.26896 0.24401 0.37788 0.0
C260 C 0.25444 0.24437 0.34842 0.0
C261 C 0.24033 0.23237 0.35566 0.0
C262 C 0.24102 0.21978 0.39044 0.0
C263 C 0.254 0.25697 0.30939 0.0
C264 C 0.23975 0.2674 0.30581 0.0
C265 C 0.26747 0.25874 0.27585 0.0
C266 C 0.28251 0.24759 0.27624 0.0
C267 C 0.27998 0.22941 0.27458 0.0
C268 C 0.29422 0.21901 0.27559 0.0
C269 C 0.31106 0.22663 0.27789 0.0
C270 C 0.3137 0.24469 0.27902 0.0
C271 C 0.2995 0.25516 0.27808 0.0
H272 H 0.32207 0.21855 0.27869 0.0
H273 H 0.18394 0.31967 0.26635 0.0
H274 H 0.95454 0.03637 0.36592 0.0
H275 H 0.97427 0.03901 0.43328 0.0
H276 H 0.98059 0.98389 0.42917 0.0
H277 H 0.96118 0.98116 0.3623 0.0
H278 H 0.97575 0.9956 0.5188 0.0
H279 H 0.01151 0.01011 0.38607 0.0
H280 H 0.02 0.02607 0.31443 0.0
H281 H 0.02372 0.0739 0.39128 0.0
H282 H 0.01497 0.05825 0.46331 0.0
H283 H 0.05066 0.99369 0.66775 0.0
H284 H 0.03188 0.99003 0.59852 0.0
H285 H 0.02456 0.04499 0.59784 0.0
H286 H 0.04298 0.0487 0.66638 0.0
H287 H 0.0303 0.0327 0.5098 0.0
H288 H 0.99392 0.0184 0.64195 0.0
H289 H 0.98528 0.00258 0.7137 0.0
H290 H 0.98263 0.95448 0.63804 0.0
H291 H 0.99152 0.97 0.56591 0.0
C292 C 0.96007 0.02483 0.37956 0.0
C293 C 0.95635 0.00859 0.35841 0.0
C294 C 0.97139 0.02635 0.41793 0.0
C295 C 0.97901 0.01164 0.43612 0.0
C296 C 0.97491 0.99541 0.41582 0.0
C297 C 0.96384 0.99392 0.37731 0.0
C298 C 0.99153 0.01305 0.47569 0.0
C299 C 0.98777 0.00356 0.51662 0.0
C300 C 0.00713 0.02358 0.47317 0.0
C301 C 0.01239 0.03304 0.42996 0.0
C302 C 0.01398 0.02406 0.38761 0.0
C303 C 0.01887 0.03304 0.34695 0.0
C304 C 0.02235 0.051 0.34827 0.0
C305 C 0.02098 0.06 0.3903 0.0
C306 C 0.01607 0.05108 0.43106 0.0
C307 C 0.04515 0.00497 0.65251 0.0
C308 C 0.04822 0.02144 0.67286 0.0
C309 C 0.03437 0.00287 0.61312 0.0
C310 C 0.0267 0.01725 0.59315 0.0
C311 C 0.03029 0.03372 0.61253 0.0
C312 C 0.04078 0.03578 0.65199 0.0
C313 C 0.0145 0.01529 0.55297 0.0
C314 C 0.01831 0.02469 0.51193 0.0
C315 C 0.99894 0.00469 0.55541 0.0
C316 C 0.9936 0.99533 0.59868 0.0
C317 C 0.99166 0.00443 0.64071 0.0
C318 C 0.98669 0.99552 0.68143 0.0
C319 C 0.98347 0.97753 0.68047 0.0
C320 C 0.98517 0.96841 0.63874 0.0
C321 C 0.99017 0.97725 0.59793 0.0
H322 H 0.9796 0.97066 0.71202 0.0
H323 H 0.02614 0.05793 0.31676 0.0
H324 H 0.22678 0.71308 0.62839 0.0
H325 H 0.22445 0.73494 0.68956 0.0
H326 H 0.2799 0.74578 0.68493 0.0
H327 H 0.28228 0.72418 0.62326 0.0
H328 H 0.23801 0.73571 0.77553 0.0
H329 H 0.2895 0.788 0.71195 0.0
H330 H 0.30177 0.79935 0.63785 0.0
H331 H 0.25457 0.78341 0.56671 0.0
H332 H 0.24192 0.7722 0.64047 0.0
H333 H 0.27477 0.81818 0.90888 0.0
H334 H 0.27622 0.79635 0.8474 0.0
H335 H 0.2206 0.78703 0.85359 0.0
H336 H 0.21908 0.80869 0.91555 0.0
H337 H 0.26197 0.7965 0.7617 0.0
H338 H 0.21027 0.74464 0.82513 0.0
H339 H 0.1979 0.73325 0.89909 0.0
H340 H 0.24534 0.74837 0.97023 0.0
H341 H 0.25808 0.75961 0.8966 0.0
C342 C 0.23845 0.72026 0.64007 0.0
C343 C 0.25472 0.71696 0.62102 0.0
C344 C 0.2371 0.73269 0.67514 0.0
C345 C 0.25198 0.74205 0.69163 0.0
C346 C 0.26822 0.73889 0.67227 0.0
C347 C 0.26956 0.72652 0.63709 0.0
C348 C 0.25061 0.75476 0.73008 0.0
C349 C 0.24301 0.74908 0.77229 0.0
C350 C 0.25749 0.77208 0.72615 0.0
C351 C 0.26484 0.77911 0.68171 0.0
C352 C 0.28171 0.78699 0.68054 0.0
C353 C 0.28874 0.79339 0.63858 0.0
C354 C 0.27898 0.79205 0.59757 0.0
C355 C 0.26214 0.78438 0.59847 0.0
C356 C 0.25504 0.77799 0.64034 0.0
C357 C 0.26287 0.81135 0.8975 0.0
C358 C 0.24681 0.81513 0.917 0.0
C359 C 0.26371 0.79894 0.86224 0.0
C360 C 0.24854 0.79003 0.84602 0.0
C361 C 0.2325 0.7936 0.86597 0.0
C362 C 0.23165 0.80599 0.90131 0.0
C363 C 0.24945 0.77743 0.80719 0.0
C364 C 0.25695 0.78314 0.7649 0.0
C365 C 0.24245 0.76015 0.81103 0.0
C366 C 0.23505 0.75314 0.8554 0.0
C367 C 0.21808 0.74547 0.85652 0.0
C368 C 0.21101 0.73905 0.89839 0.0
C369 C 0.22081 0.74014 0.93937 0.0
C370 C 0.23774 0.74759 0.93851 0.0
C371 C 0.24488 0.75401 0.89672 0.0
H372 H 0.2153 0.73519 0.97176 0.0
H373 H 0.28445 0.79698 0.5651 0.0
H374 H 0.43874 0.02433 0.14056 0.0
H375 H 0.45665 0.02596 0.06956 0.0
H376 H 0.50003 0.00803 0.14707 0.0
H377 H 0.48233 0.00637 0.21757 0.0
H378 H 0.51049 0.03344 0.08639 0.0
H379 H 0.47604 0.97991 0.08365 0.0
H380 H 0.44914 0.96111 0.08628 0.0
H381 H 0.43023 0.98628 0.9645 0.0
H382 H 0.45696 0.00542 0.96151 0.0
H383 H 0.56265 0.0048 0.90005 0.0
H384 H 0.54403 0.00317 0.96964 0.0
H385 H 0.50227 0.02364 0.89072 0.0
H386 H 0.52073 0.0254 0.8215 0.0
H387 H 0.49078 0.99716 0.95145 0.0
H388 H 0.52653 0.05046 0.9549 0.0
H389 H 0.55423 0.06803 0.95304 0.0
H390 H 0.57141 0.04189 0.07529 0.0
H391 H 0.54389 0.02397 0.07746 0.0
C392 C 0.45219 0.02109 0.14257 0.0
C393 C 0.45909 0.01513 0.1846 0.0
C394 C 0.46237 0.02188 0.10194 0.0
C395 C 0.47963 0.01688 0.10285 0.0
C396 C 0.48676 0.01189 0.1454 0.0
C397 C 0.47659 0.01092 0.18569 0.0
C398 C 0.49012 0.016 0.0594 0.0
C399 C 0.50623 0.0254 0.05706 0.0
C400 C 0.48455 0.0056 0.02091 0.0
C401 C 0.46841 0.99423 0.02268 0.0
C402 C 0.46608 0.98156 0.0577 0.0
C403 C 0.45088 0.97082 0.0592 0.0
C404 C 0.43797 0.97252 0.02563 0.0
C405 C 0.44023 0.98499 0.9905 0.0
C406 C 0.45541 0.99578 0.98887 0.0
C407 C 0.54939 0.0086 0.89734 0.0
C408 C 0.5432 0.01532 0.85535 0.0
C409 C 0.5388 0.00778 0.93717 0.0
C410 C 0.52182 0.0135 0.93551 0.0
C411 C 0.51532 0.01922 0.89291 0.0
C412 C 0.52593 0.02024 0.85339 0.0
C413 C 0.51112 0.01459 0.97851 0.0
C414 C 0.49499 0.00524 0.98074 0.0
C415 C 0.51673 0.02492 0.01708 0.0
C416 C 0.53323 0.03575 0.01603 0.0
C417 C 0.53627 0.04836 0.98116 0.0
C418 C 0.55193 0.0584 0.98008 0.0
C419 C 0.56459 0.05604 0.01395 0.0
C420 C 0.5616 0.04368 0.04904 0.0
C421 C 0.54597 0.03358 0.05022 0.0
H422 H 0.57671 0.06382 0.01306 0.0
H423 H 0.42627 0.96413 0.02676 0.0
H424 H 0.26172 0.78628 0.07446 0.0
H425 H 0.25918 0.76831 0.14409 0.0
H426 H 0.23834 0.81067 0.21999 0.0
H427 H 0.24097 0.82896 0.14973 0.0
H428 H 0.26455 0.79578 0.26827 0.0
H429 H 0.21232 0.77581 0.19188 0.0
H430 H 0.19411 0.76486 0.12641 0.0
H431 H 0.2232 0.71915 0.1188 0.0
H432 H 0.24175 0.72994 0.18385 0.0
H433 H 0.2375 0.74508 0.46518 0.0
H434 H 0.2395 0.76359 0.3963 0.0
H435 H 0.26245 0.72277 0.31906 0.0
H436 H 0.26055 0.70404 0.38854 0.0
H437 H 0.23474 0.73711 0.27213 0.0
H438 H 0.28713 0.75746 0.34849 0.0
H439 H 0.30504 0.76848 0.41445 0.0
H440 H 0.27515 0.81364 0.42268 0.0
H441 H 0.25689 0.80276 0.35713 0.0
C442 C 0.25639 0.79178 0.10575 0.0
C443 C 0.25157 0.80911 0.10649 0.0
C444 C 0.25488 0.78142 0.14559 0.0
C445 C 0.24852 0.78807 0.18737 0.0
C446 C 0.24329 0.80525 0.18813 0.0
C447 C 0.24466 0.81564 0.14789 0.0
C448 C 0.24815 0.77718 0.23036 0.0
C449 C 0.25777 0.78309 0.2694 0.0
C450 C 0.23973 0.76037 0.23146 0.0
C451 C 0.22853 0.75377 0.1925 0.0
C452 C 0.21493 0.76349 0.17602 0.0
C453 C 0.20452 0.7573 0.13902 0.0
C454 C 0.20752 0.74134 0.11837 0.0
C455 C 0.2209 0.73152 0.1348 0.0
C456 C 0.23135 0.73765 0.17178 0.0
C457 C 0.24318 0.74006 0.43373 0.0
C458 C 0.24885 0.72305 0.43236 0.0
C459 C 0.24435 0.75071 0.39436 0.0
C460 C 0.25113 0.74461 0.35244 0.0
C461 C 0.25716 0.72775 0.35106 0.0
C462 C 0.2562 0.71711 0.39083 0.0
C463 C 0.25118 0.7557 0.3099 0.0
C464 C 0.2415 0.74982 0.27098 0.0
C465 C 0.25949 0.77254 0.30897 0.0
C466 C 0.27052 0.7792 0.34817 0.0
C467 C 0.28428 0.76967 0.3646 0.0
C468 C 0.29451 0.77591 0.40187 0.0
C469 C 0.2912 0.79173 0.42283 0.0
C470 C 0.27769 0.80137 0.40644 0.0
C471 C 0.2674 0.79519 0.36919 0.0
H472 H 0.29913 0.79653 0.45172 0.0
H473 H 0.19946 0.73658 0.08971 0.0
H474 H 0.44915 0.9921 0.38557 0.0
H475 H 0.47136 0.99084 0.44615 0.0
H476 H 0.48446 0.04551 0.42816 0.0
H477 H 0.46206 0.04694 0.3682 0.0
H478 H 0.50603 0.99767 0.44839 0.0
H479 H 0.49395 0.06349 0.53419 0.0
H480 H 0.47037 0.0836 0.54227 0.0
H481 H 0.43242 0.04104 0.52807 0.0
H482 H 0.45575 0.02066 0.52056 0.0
H483 H 0.55788 0.03969 0.65598 0.0
H484 H 0.53678 0.0419 0.59282 0.0
H485 H 0.52242 0.98728 0.6061 0.0
H486 H 0.54367 0.98492 0.6686 0.0
H487 H 0.50212 0.0358 0.58702 0.0
H488 H 0.51447 0.97012 0.4988 0.0
H489 H 0.53817 0.95019 0.49048 0.0
H490 H 0.57587 0.99271 0.50932 0.0
H491 H 0.55241 0.01293 0.51704 0.0
C492 C 0.45686 0.00382 0.3943 0.0
C493 C 0.45377 0.01965 0.37253 0.0
C494 C 0.46956 0.00307 0.42882 0.0
C495 C 0.47935 0.01814 0.44217 0.0
C496 C 0.47681 0.0338 0.419 0.0
C497 C 0.46407 0.03458 0.38463 0.0
C498 C 0.49181 0.01754 0.48138 0.0
C499 C 0.50507 0.00586 0.47893 0.0
C500 C 0.49077 0.02852 0.52074 0.0
C501 C 0.47661 0.04059 0.52632 0.0
C502 C 0.48057 0.05842 0.53301 0.0
C503 C 0.46725 0.06986 0.53745 0.0
C504 C 0.44991 0.06361 0.5355 0.0
C505 C 0.44585 0.04588 0.52938 0.0
C506 C 0.45912 0.03438 0.52499 0.0
C507 C 0.55015 0.02818 0.64559 0.0
C508 C 0.55252 0.0121 0.6669 0.0
C509 C 0.53809 0.02947 0.60958 0.0
C510 C 0.52826 0.0147 0.59427 0.0
C511 C 0.53013 0.99877 0.61677 0.0
C512 C 0.54222 0.99746 0.65261 0.0
C513 C 0.51627 0.01586 0.55417 0.0
C514 C 0.50311 0.02764 0.55643 0.0
C515 C 0.51742 0.00499 0.51459 0.0
C516 C 0.53166 0.993 0.50897 0.0
C517 C 0.52782 0.97523 0.50093 0.0
C518 C 0.54121 0.96388 0.49636 0.0
C519 C 0.55852 0.97018 0.49953 0.0
C520 C 0.56246 0.98785 0.50705 0.0
C521 C 0.54912 0.99925 0.51156 0.0
H522 H 0.56887 0.96137 0.49608 0.0
H523 H 0.43962 0.07249 0.53883 0.0
H524 H 0.23072 0.24233 0.58235 0.0
H525 H 0.2332 0.26023 0.65191 0.0
H526 H 0.26782 0.22467 0.71313 0.0
H527 H 0.2652 0.2063 0.64306 0.0
H528 H 0.24274 0.23373 0.77461 0.0
H529 H 0.28329 0.26406 0.67348 0.0
H530 H 0.29349 0.27822 0.60067 0.0
H531 H 0.25444 0.3154 0.61356 0.0
H532 H 0.24383 0.30131 0.68613 0.0
H533 H 0.27079 0.28891 0.96023 0.0
H534 H 0.26803 0.27039 0.89179 0.0
H535 H 0.23419 0.30608 0.82789 0.0
H536 H 0.23712 0.32505 0.89665 0.0
H537 H 0.25907 0.2968 0.7679 0.0
H538 H 0.21842 0.26647 0.86878 0.0
H539 H 0.2081 0.2523 0.94146 0.0
H540 H 0.2472 0.21514 0.92904 0.0
H541 H 0.25792 0.22925 0.8566 0.0
C542 C 0.23897 0.23824 0.61035 0.0
C543 C 0.24775 0.22277 0.60693 0.0
C544 C 0.24044 0.24862 0.65017 0.0
C545 C 0.25082 0.24394 0.6877 0.0
C546 C 0.25975 0.22858 0.68452 0.0
C547 C 0.25833 0.21814 0.64436 0.0
C548 C 0.25177 0.25492 0.73051 0.0
C549 C 0.2466 0.24746 0.7733 0.0
C550 C 0.25628 0.27297 0.72863 0.0
C551 C 0.26267 0.28153 0.68506 0.0
C552 C 0.27679 0.27517 0.66061 0.0
C553 C 0.28266 0.2832 0.61941 0.0
C554 C 0.2746 0.29767 0.60244 0.0
C555 C 0.26067 0.30418 0.62672 0.0
C556 C 0.25473 0.29618 0.66792 0.0
C557 C 0.2626 0.29285 0.93191 0.0
C558 C 0.2542 0.30857 0.93408 0.0
C559 C 0.26097 0.28212 0.89276 0.0
C560 C 0.2508 0.28671 0.85469 0.0
C561 C 0.2421 0.30224 0.85688 0.0
C562 C 0.2437 0.31302 0.89633 0.0
C563 C 0.25 0.27562 0.81204 0.0
C564 C 0.25521 0.28307 0.76926 0.0
C565 C 0.24552 0.25757 0.81394 0.0
C566 C 0.23908 0.24902 0.85746 0.0
C567 C 0.22491 0.25536 0.88173 0.0
C568 C 0.21897 0.24733 0.92286 0.0
C569 C 0.22701 0.23286 0.93992 0.0
C570 C 0.24099 0.22637 0.91581 0.0
C571 C 0.24699 0.23437 0.87469 0.0
H572 H 0.2224 0.22665 0.97176 0.0
H573 H 0.27916 0.30387 0.57054 0.0
H574 H 0.04026 0.98532 0.85974 0.0
H575 H 0.01803 0.98656 0.92043 0.0
H576 H 0.03357 0.04033 0.94582 0.0
H577 H 0.05546 0.03929 0.88461 0.0
H578 H 0.02189 0.99244 0.01122 0.0
H579 H 0.99974 0.06217 0.98365 0.0
H580 H 0.99618 0.08288 0.91935 0.0
H581 H 0.98929 0.04063 0.8224 0.0
H582 H 0.99256 0.01967 0.88619 0.0
H583 H 0.96229 0.0457 0.17179 0.0
H584 H 0.98374 0.04352 0.10951 0.0
H585 H 0.96629 0.99009 0.08657 0.0
H586 H 0.94506 0.99209 0.14933 0.0
H587 H 0.97835 0.03723 0.01886 0.0
H588 H 0.99991 0.96747 0.0465 0.0
H589 H 0.00348 0.94673 0.11074 0.0
H590 H 0.01148 0.98897 0.20729 0.0
H591 H 0.0082 0.00996 0.14356 0.0
C592 C 0.03876 0.99746 0.87785 0.0
C593 C 0.04956 0.01222 0.86738 0.0
C594 C 0.02612 0.99813 0.91265 0.0
C595 C 0.02404 0.01356 0.93747 0.0
C596 C 0.03471 0.02836 0.92662 0.0
C597 C 0.04726 0.02773 0.89169 0.0
C598 C 0.01122 0.01406 0.97598 0.0
C599 C 0.01218 0.00206 0.01252 0.0
C600 C 0.99884 0.02688 0.97825 0.0
C601 C 0.99656 0.03936 0.93968 0.0
C602 C 0.99738 0.0573 0.94865 0.0
C603 C 0.99543 0.06909 0.91228 0.0
C604 C 0.99257 0.06308 0.8668 0.0
C605 C 0.99158 0.04527 0.85762 0.0
C606 C 0.9935 0.03343 0.89386 0.0
C607 C 0.96317 0.03343 0.15383 0.0
C608 C 0.95201 0.01906 0.16541 0.0
C609 C 0.97537 0.03223 0.11814 0.0
C610 C 0.97668 0.01663 0.09352 0.0
C611 C 0.9657 0.00218 0.10551 0.0
C612 C 0.95354 0.00336 0.14131 0.0
C613 C 0.98908 0.01567 0.05419 0.0
C614 C 0.98803 0.02758 0.01748 0.0
C615 C 1.00136 0.00276 0.05176 0.0
C616 C 0.00362 0.99027 0.09029 0.0
C617 C 0.0025 0.97233 0.08141 0.0
C618 C 0.00446 0.96053 0.11774 0.0
C619 C 0.00765 0.96653 0.16309 0.0
C620 C 0.00895 0.98434 0.17218 0.0
C621 C 0.00701 0.99619 0.13597 0.0
H622 H 0.00915 0.95737 0.19117 0.0
H623 H 0.99108 0.07223 0.83869 0.0
H624 H 0.73095 0.72069 0.92959 0.0
H625 H 0.72913 0.74271 0.8688 0.0
H626 H 0.78284 0.73669 0.83324 0.0
H627 H 0.78492 0.71538 0.89576 0.0
H628 H 0.77683 0.76899 0.82838 0.0
H629 H 0.74674 0.71685 0.76952 0.0
H630 H 0.72481 0.69231 0.77196 0.0
H631 H 0.68406 0.7279 0.77752 0.0
H632 H 0.70576 0.75264 0.77564 0.0
H633 H 0.77481 0.81161 0.61024 0.0
H634 H 0.77726 0.7894 0.67034 0.0
H635 H 0.72344 0.79411 0.70702 0.0
H636 H 0.72073 0.81551 0.64511 0.0
H637 H 0.72986 0.76216 0.71063 0.0
H638 H 0.7599 0.8143 0.77065 0.0
H639 H 0.78179 0.83887 0.76844 0.0
H640 H 0.82257 0.80336 0.7609 0.0
H641 H 0.80091 0.77859 0.76254 0.0
C642 C 0.74239 0.7242 0.909 0.0
C643 C 0.75805 0.7163 0.9171 0.0
C644 C 0.74131 0.73668 0.87403 0.0
C645 C 0.75572 0.74105 0.84552 0.0
C646 C 0.77152 0.73349 0.85456 0.0
C647 C 0.7727 0.72132 0.89027 0.0
C648 C 0.75435 0.75334 0.80597 0.0
C649 C 0.76668 0.76736 0.80231 0.0
C650 C 0.74092 0.75146 0.77237 0.0
C651 C 0.72787 0.73658 0.77279 0.0
C652 C 0.7331 0.71943 0.77147 0.0
C653 C 0.72072 0.70549 0.77274 0.0
C654 C 0.70306 0.70855 0.775 0.0
C655 C 0.69774 0.72555 0.77581 0.0
C656 C 0.71007 0.73953 0.77458 0.0
C657 C 0.7635 0.80778 0.63097 0.0
C658 C 0.74761 0.81529 0.6233 0.0
C659 C 0.76493 0.79519 0.66555 0.0
C660 C 0.75065 0.79036 0.69414 0.0
C661 C 0.73467 0.79762 0.68562 0.0
C662 C 0.73312 0.80987 0.65027 0.0
C663 C 0.75229 0.77788 0.73315 0.0
C664 C 0.74002 0.76379 0.73668 0.0
C665 C 0.76577 0.77971 0.76665 0.0
C666 C 0.77878 0.79461 0.76634 0.0
C667 C 0.77353 0.81174 0.76832 0.0
C668 C 0.7859 0.8257 0.76718 0.0
C669 C 0.80356 0.82268 0.76442 0.0
C670 C 0.80889 0.80569 0.76298 0.0
C671 C 0.79658 0.79169 0.76408 0.0
H672 H 0.81311 0.8335 0.7635 0.0
H673 H 0.69349 0.69774 0.77603 0.0
H674 H 0.77841 0.31777 0.4104 0.0
H675 H 0.78035 0.29626 0.34809 0.0
H676 H 0.72511 0.28455 0.35703 0.0
H677 H 0.72305 0.30611 0.419 0.0
H678 H 0.77207 0.26139 0.34217 0.0
H679 H 0.70931 0.27853 0.24646 0.0
H680 H 0.69128 0.30362 0.23591 0.0
H681 H 0.73571 0.33845 0.2607 0.0
H682 H 0.75405 0.31358 0.27071 0.0
H683 H 0.7297 0.21223 0.13228 0.0
H684 H 0.72845 0.23376 0.19467 0.0
H685 H 0.78372 0.24481 0.18312 0.0
H686 H 0.78509 0.22322 0.12087 0.0
H687 H 0.73714 0.26856 0.19884 0.0
H688 H 0.79996 0.2514 0.29381 0.0
H689 H 0.81795 0.22629 0.30461 0.0
H690 H 0.77337 0.1915 0.28136 0.0
H691 H 0.75508 0.21639 0.2711 0.0
C692 C 0.76671 0.31049 0.39938 0.0
C693 C 0.75056 0.31371 0.41926 0.0
C694 C 0.76784 0.2982 0.36385 0.0
C695 C 0.75284 0.28903 0.34747 0.0
C696 C 0.73681 0.29171 0.36865 0.0
C697 C 0.73567 0.30397 0.40419 0.0
C698 C 0.75385 0.27706 0.30729 0.0
C699 C 0.76462 0.26307 0.31058 0.0
C700 C 0.74386 0.27911 0.26645 0.0
C701 C 0.733 0.29418 0.25984 0.0
C702 C 0.71524 0.29154 0.24949 0.0
C703 C 0.70497 0.30573 0.24362 0.0
C704 C 0.71233 0.32262 0.2478 0.0
C705 C 0.73001 0.32536 0.25766 0.0
C706 C 0.74034 0.31122 0.26349 0.0
C707 C 0.74157 0.21934 0.14279 0.0
C708 C 0.75751 0.21597 0.12194 0.0
C709 C 0.74082 0.23165 0.17836 0.0
C710 C 0.75602 0.24069 0.19392 0.0
C711 C 0.77188 0.23777 0.17207 0.0
C712 C 0.77263 0.2255 0.13638 0.0
C713 C 0.75533 0.25286 0.23376 0.0
C714 C 0.74462 0.26688 0.2304 0.0
C715 C 0.76537 0.25085 0.27451 0.0
C716 C 0.77621 0.23577 0.28115 0.0
C717 C 0.794 0.23839 0.29115 0.0
C718 C 0.80424 0.2242 0.29717 0.0
C719 C 0.79682 0.20731 0.2935 0.0
C720 C 0.77912 0.20458 0.28399 0.0
C721 C 0.76881 0.21873 0.27801 0.0
H722 H 0.80478 0.19634 0.29814 0.0
H723 H 0.70435 0.33358 0.2433 0.0
H724 H 0.77419 0.22048 0.92588 0.0
H725 H 0.77669 0.24001 0.85796 0.0
H726 H 0.72093 0.24083 0.85127 0.0
H727 H 0.71836 0.22175 0.91897 0.0
H728 H 0.73649 0.23688 0.76328 0.0
H729 H 0.74139 0.27359 0.8985 0.0
H730 H 0.7536 0.28375 0.97377 0.0
H731 H 0.80347 0.29373 0.90969 0.0
H732 H 0.7916 0.28336 0.83411 0.0
H733 H 0.72968 0.31095 0.61349 0.0
H734 H 0.72614 0.29184 0.68212 0.0
H735 H 0.78177 0.29172 0.69631 0.0
H736 H 0.78536 0.31044 0.62828 0.0
H737 H 0.76568 0.29547 0.78104 0.0
H738 H 0.76119 0.25844 0.64647 0.0
H739 H 0.74933 0.24807 0.571 0.0
H740 H 0.69912 0.23846 0.63343 0.0
H741 H 0.71064 0.24904 0.7092 0.0
C742 C 0.76251 0.22472 0.90959 0.0
C743 C 0.74611 0.21967 0.928 0.0
C744 C 0.76393 0.23592 0.87096 0.0
C745 C 0.74897 0.24195 0.84971 0.0
C746 C 0.73262 0.23637 0.86704 0.0
C747 C 0.73121 0.22551 0.90594 0.0
C748 C 0.75019 0.25455 0.8104 0.0
C749 C 0.74271 0.24976 0.76729 0.0
C750 C 0.75847 0.27128 0.81543 0.0
C751 C 0.76566 0.27749 0.86079 0.0
C752 C 0.755 0.27778 0.90056 0.0
C753 C 0.76185 0.28361 0.94326 0.0
C754 C 0.77932 0.28933 0.94655 0.0
C755 C 0.78995 0.28926 0.90711 0.0
C756 C 0.78317 0.28342 0.86432 0.0
C757 C 0.7411 0.30697 0.63164 0.0
C758 C 0.75778 0.31209 0.61523 0.0
C759 C 0.73909 0.296 0.67065 0.0
C760 C 0.75372 0.29024 0.69417 0.0
C761 C 0.7703 0.29595 0.67881 0.0
C762 C 0.77231 0.3066 0.63969 0.0
C763 C 0.75202 0.2778 0.73381 0.0
C764 C 0.75941 0.28261 0.77702 0.0
C765 C 0.74371 0.26107 0.72882 0.0
C766 C 0.73672 0.25475 0.68334 0.0
C767 C 0.74758 0.25429 0.644 0.0
C768 C 0.74093 0.24834 0.6012 0.0
C769 C 0.72347 0.24267 0.59738 0.0
C770 C 0.71263 0.2429 0.63641 0.0
C771 C 0.71921 0.24887 0.6793 0.0
H772 H 0.71834 0.23805 0.56422 0.0
H773 H 0.78459 0.29385 0.97963 0.0
H774 H 0.74383 0.74666 0.07429 0.0
H775 H 0.74606 0.76445 0.14435 0.0
H776 H 0.76653 0.72189 0.22001 0.0
H777 H 0.76419 0.70378 0.14939 0.0
H778 H 0.73998 0.73606 0.26701 0.0
H779 H 0.79243 0.75748 0.19422 0.0
H780 H 0.8111 0.76936 0.13076 0.0
H781 H 0.7813 0.81461 0.12452 0.0
H782 H 0.76228 0.80289 0.18752 0.0
H783 H 0.76469 0.78588 0.46759 0.0
H784 H 0.76317 0.76767 0.39805 0.0
H785 H 0.74065 0.80877 0.32114 0.0
H786 H 0.74211 0.82721 0.39121 0.0
H787 H 0.76867 0.79515 0.2754 0.0
H788 H 0.71606 0.7734 0.34793 0.0
H789 H 0.6976 0.76145 0.41173 0.0
H790 H 0.72811 0.71671 0.41887 0.0
H791 H 0.74692 0.72851 0.35552 0.0
C792 C 0.74907 0.7411 0.1056 0.0
C793 C 0.7538 0.72375 0.10622 0.0
C794 C 0.75039 0.75135 0.14569 0.0
C795 C 0.75651 0.74457 0.18754 0.0
C796 C 0.76177 0.72741 0.18809 0.0
C797 C 0.76057 0.71712 0.14764 0.0
C798 C 0.75636 0.7552 0.23096 0.0
C799 C 0.74653 0.74885 0.26914 0.0
C800 C 0.76444 0.77213 0.23331 0.0
C801 C 0.77583 0.77922 0.19533 0.0
C802 C 0.78976 0.7699 0.17905 0.0
C803 C 0.80042 0.77662 0.14321 0.0
C804 C 0.79736 0.79271 0.12354 0.0
C805 C 0.78364 0.80214 0.13975 0.0
C806 C 0.77293 0.79547 0.17557 0.0
C807 C 0.75917 0.79101 0.43609 0.0
C808 C 0.75353 0.80803 0.43495 0.0
C809 C 0.75827 0.78053 0.39634 0.0
C810 C 0.75178 0.78681 0.35433 0.0
C811 C 0.74571 0.80366 0.35322 0.0
C812 C 0.74641 0.81413 0.39333 0.0
C813 C 0.75226 0.77603 0.3113 0.0
C814 C 0.76215 0.78235 0.27324 0.0
C815 C 0.74428 0.75906 0.3091 0.0
C816 C 0.73301 0.75193 0.34727 0.0
C817 C 0.71893 0.76109 0.36338 0.0
C818 C 0.70839 0.75432 0.39941 0.0
C819 C 0.71171 0.73835 0.41943 0.0
C820 C 0.72557 0.72909 0.40337 0.0
C821 C 0.73617 0.73581 0.36737 0.0
H822 H 0.70353 0.73314 0.44731 0.0
H823 H 0.80564 0.7979 0.09581 0.0
H824 H 0.56412 0.50815 0.13979 0.0
H825 H 0.54533 0.50703 0.07052 0.0
H826 H 0.5011 0.51659 0.15676 0.0
H827 H 0.51981 0.51805 0.22571 0.0
H828 H 0.49347 0.49196 0.0851 0.0
H829 H 0.5182 0.5494 0.10581 0.0
H830 H 0.54171 0.57187 0.11864 0.0
H831 H 0.5656 0.55796 0.98971 0.0
H832 H 0.54231 0.53519 0.97642 0.0
H833 H 0.43764 0.52184 0.90653 0.0
H834 H 0.45544 0.52285 0.97781 0.0
H835 H 0.50061 0.5121 0.89655 0.0
H836 H 0.48293 0.51077 0.82576 0.0
H837 H 0.50714 0.53776 0.96708 0.0
H838 H 0.48077 0.4798 0.9481 0.0
H839 H 0.456 0.45854 0.93747 0.0
H840 H 0.43376 0.47497 0.06629 0.0
H841 H 0.4583 0.49652 0.07735 0.0
C842 C 0.55033 0.50956 0.14405 0.0
C843 C 0.54344 0.51321 0.18811 0.0
C844 C 0.53962 0.50905 0.10447 0.0
C845 C 0.52183 0.51189 0.10845 0.0
C846 C 0.51476 0.51437 0.15284 0.0
C847 C 0.52548 0.51522 0.19218 0.0
C848 C 0.51085 0.51363 0.06622 0.0
C849 C 0.49637 0.50205 0.05951 0.0
C850 C 0.5146 0.52682 0.03281 0.0
C851 C 0.52864 0.54046 0.04041 0.0
C852 C 0.52856 0.55101 0.08041 0.0
C853 C 0.54181 0.56382 0.08772 0.0
C854 C 0.55515 0.56631 0.05508 0.0
C855 C 0.55526 0.55599 0.01499 0.0
C856 C 0.54203 0.54314 0.00753 0.0
C857 C 0.45143 0.52007 0.90385 0.0
C858 C 0.45889 0.51618 0.86065 0.0
C859 C 0.46156 0.52053 0.94456 0.0
C860 C 0.47933 0.51739 0.94251 0.0
C861 C 0.48695 0.51453 0.899 0.0
C862 C 0.47681 0.51375 0.8586 0.0
C863 C 0.48986 0.51597 0.98568 0.0
C864 C 0.50425 0.52764 0.99261 0.0
C865 C 0.4859 0.50299 0.01954 0.0
C866 C 0.47126 0.4899 0.01328 0.0
C867 C 0.47053 0.47898 0.97398 0.0
C868 C 0.45654 0.46686 0.9679 0.0
C869 C 0.44328 0.46544 1.00111 0.0
C870 C 0.44402 0.4761 0.04056 0.0
C871 C 0.45797 0.48826 0.04676 0.0
H872 H 0.43246 0.45606 0.99633 0.0
H873 H 0.56535 0.57628 0.06082 0.0
H874 H 0.05601 0.49828 0.37755 0.0
H875 H 0.0372 0.4959 0.44655 0.0
H876 H 0.01395 0.54331 0.40802 0.0
H877 H 0.03259 0.54589 0.33974 0.0
H878 H 0.02145 0.54346 0.49911 0.0
H879 H 0.99252 0.50418 0.3909 0.0
H880 H 0.99001 0.4795 0.33618 0.0
H881 H 0.00312 0.44476 0.44591 0.0
H882 H 0.00595 0.46929 0.50117 0.0
H883 H 0.94791 0.53557 0.65392 0.0
H884 H 0.96643 0.53857 0.58432 0.0
H885 H 0.99088 0.49162 0.62105 0.0
H886 H 0.97263 0.48848 0.68984 0.0
H887 H 0.98239 0.4915 0.5302 0.0
H888 H 0.0116 0.53085 0.63818 0.0
H889 H 0.01413 0.55553 0.69286 0.0
H890 H 1.00043 0.59017 0.58348 0.0
H891 H 0.99758 0.56563 0.52827 0.0
C892 C 0.04686 0.50817 0.38367 0.0
C893 C 0.04587 0.52225 0.35281 0.0
C894 C 0.03607 0.50677 0.42311 0.0
C895 C 0.02407 0.5194 0.43244 0.0
C896 C 0.02311 0.53344 0.40176 0.0
C897 C 0.03379 0.53482 0.36245 0.0
C898 C 0.01251 0.51817 0.47414 0.0
C899 C 0.01276 0.53217 0.50558 0.0
C900 C 1.00134 0.50337 0.48315 0.0
C901 C 0.99963 0.4886 0.45004 0.0
C902 C 0.99502 0.4913 0.40327 0.0
C903 C 0.99351 0.47734 0.37217 0.0
C904 C 0.99645 0.46058 0.38753 0.0
C905 C 1.00087 0.45775 0.43405 0.0
C906 C 0.00242 0.47168 0.46528 0.0
C907 C 0.95727 0.52593 0.64726 0.0
C908 C 0.95871 0.5118 0.67774 0.0
C909 C 0.96788 0.52768 0.60749 0.0
C910 C 0.9801 0.51532 0.59744 0.0
C911 C 0.98153 0.50128 0.62784 0.0
C912 C 0.97107 0.49957 0.66746 0.0
C913 C 0.99138 0.51676 0.55523 0.0
C914 C 0.99107 0.5028 0.52368 0.0
C915 C 0.00248 0.53161 0.54613 0.0
C916 C 0.00418 0.54637 0.57924 0.0
C917 C 0.00897 0.5437 0.62589 0.0
C918 C 0.01049 0.55767 0.65696 0.0
C919 C 0.00739 0.5744 0.64169 0.0
C920 C 0.00279 0.5772 0.59528 0.0
C921 C 1.00123 0.56327 0.56408 0.0
H922 H 0.00858 0.5852 0.66579 0.0
H923 H 0.99527 0.44979 0.36341 0.0
H924 H 0.03276 0.49646 0.1988 0.0
H925 H 0.01051 0.49912 0.13867 0.0
H926 H 0.04719 0.52991 0.05485 0.0
H927 H 0.0688 0.52849 0.11675 0.0
H928 H 0.01853 0.54277 0.04592 0.0
H929 H 0.03486 0.4828 0.03866 0.0
H930 H 0.03878 0.45375 0.07161 0.0
H931 H 0.98467 0.44864 0.1071 0.0
H932 H 0.98046 0.47771 0.07476 0.0
H933 H 0.97177 0.53628 0.83327 0.0
H934 H 0.99392 0.53389 0.89381 0.0
H935 H 0.95731 0.50286 0.97725 0.0
H936 H 0.93583 0.504 0.91494 0.0
H937 H 0.98591 0.49014 0.9865 0.0
H938 H 0.96949 0.55001 0.99373 0.0
H939 H 0.96548 0.57908 0.96103 0.0
H940 H 0.01963 0.58445 0.92593 0.0
H941 H 0.02391 0.55535 0.95801 0.0
C942 C 0.03593 0.50386 0.16755 0.0
C943 C 0.05241 0.51222 0.16205 0.0
C944 C 0.0233 0.50526 0.13299 0.0
C945 C 0.02726 0.51431 0.09138 0.0
C946 C 0.04375 0.52282 0.08641 0.0
C947 C 0.05612 0.52198 0.1217 0.0
C948 C 0.01436 0.51504 0.05291 0.0
C949 C 0.01156 0.53121 0.03261 0.0
C950 C 0.00487 0.50007 0.03603 0.0
C951 C 0.00738 0.48246 0.0546 0.0
C952 C 0.02382 0.47549 0.05361 0.0
C953 C 0.02609 0.45903 0.07218 0.0
C954 C 0.01199 0.44937 0.09151 0.0
C955 C 0.99557 0.45613 0.09214 0.0
C956 C 0.99324 0.47258 0.07364 0.0
C957 C 0.9686 0.52889 0.86453 0.0
C958 C 0.9522 0.52035 0.86977 0.0
C959 C 0.98117 0.52765 0.89933 0.0
C960 C 0.97721 0.51858 0.94093 0.0
C961 C 0.96076 0.50995 0.94569 0.0
C962 C 0.94847 0.51063 0.91017 0.0
C963 C 0.99007 0.51788 0.9795 0.0
C964 C 0.99287 0.50172 0.99981 0.0
C965 C 0.99954 0.53286 0.99642 0.0
C966 C 0.99698 0.55047 0.97796 0.0
C967 C 0.98052 0.55738 0.97891 0.0
C968 C 0.9782 0.57386 0.96048 0.0
C969 C 0.99228 0.58359 0.94133 0.0
C970 C 0.00873 0.57689 0.94074 0.0
C971 C 0.01111 0.56043 0.9591 0.0
H972 H 0.99046 0.59633 0.92702 0.0
H973 H 0.01378 0.43665 0.10594 0.0
H974 H 0.45575 0.49392 0.67482 0.0
H975 H 0.47776 0.49197 0.61386 0.0
H976 H 0.47997 0.54762 0.59814 0.0
H977 H 0.45809 0.5497 0.65957 0.0
H978 H 0.47553 0.52886 0.51322 0.0
H979 H 0.51237 0.53126 0.64764 0.0
H980 H 0.52218 0.52263 0.72561 0.0
H981 H 0.53012 0.47132 0.67495 0.0
H982 H 0.52008 0.47957 0.59678 0.0
H983 H 0.55154 0.53836 0.37205 0.0
H984 H 0.52995 0.54038 0.43404 0.0
H985 H 0.52864 0.48486 0.45219 0.0
H986 H 0.55014 0.4827 0.38984 0.0
H987 H 0.53262 0.50355 0.536 0.0
H988 H 0.49585 0.5009 0.40194 0.0
H989 H 0.48589 0.50923 0.32387 0.0
H990 H 0.47756 0.56058 0.37358 0.0
H991 H 0.48777 0.55264 0.45183 0.0
C992 C 0.46107 0.50576 0.65875 0.0
C993 C 0.45524 0.52197 0.67187 0.0
C994 C 0.47364 0.50462 0.624 0.0
C995 C 0.48044 0.51966 0.60158 0.0
C996 C 0.47482 0.53588 0.61507 0.0
C997 C 0.46243 0.53705 0.65029 0.0
C998 C 0.493 0.51833 0.56297 0.0
C999 C 0.48813 0.52357 0.51825 0.0
C1000 C 0.50919 0.51099 0.56955 0.0
C1001 C 0.51529 0.50598 0.61646 0.0
C1002 C 0.51605 0.51808 0.65322 0.0
C1003 C 0.52168 0.51327 0.69743 0.0
C1004 C 0.52672 0.49642 0.70526 0.0
C1005 C 0.52618 0.48436 0.66884 0.0
C1006 C 0.52053 0.4891 0.62457 0.0
C1007 C 0.54654 0.52657 0.38898 0.0
C1008 C 0.5525 0.51037 0.37618 0.0
C1009 C 0.53421 0.52774 0.4243 0.0
C1010 C 0.52773 0.51276 0.44758 0.0
C1011 C 0.53354 0.49655 0.43462 0.0
C1012 C 0.54573 0.49535 0.39889 0.0
C1013 C 0.51518 0.51411 0.48623 0.0
C1014 C 0.52004 0.50885 0.53096 0.0
C1015 C 0.49896 0.5214 0.47963 0.0
C1016 C 0.49277 0.52623 0.43265 0.0
C1017 C 0.49206 0.51403 0.39613 0.0
C1018 C 0.48634 0.51866 0.35186 0.0
C1019 C 0.48114 0.53544 0.34374 0.0
C1020 C 0.48162 0.5476 0.37991 0.0
C1021 C 0.48737 0.54303 0.42425 0.0
H1022 H 0.47671 0.53901 0.30944 0.0
H1023 H 0.53109 0.49272 0.73951 0.0
H1024 H 0.10205 0.45392 0.23935 0.0
H1025 H 0.12131 0.43318 0.20494 0.0
H1026 H 0.16019 0.4748 0.18171 0.0
H1027 H 0.14037 0.49554 0.2128 0.0
H1028 H 0.15886 0.45779 0.10907 0.0
H1029 H 0.16245 0.43981 0.26888 0.0
H1030 H 0.15152 0.42978 0.34565 0.0
H1031 H 0.12767 0.38394 0.2825 0.0
H1032 H 0.13829 0.39379 0.20524 0.0
H1033 H 0.23177 0.39987 0.10719 0.0
H1034 H 0.20999 0.41874 0.13758 0.0
H1035 H 0.17112 0.39306 0.04988 0.0
H1036 H 0.19308 0.37433 0.01812 0.0
H1037 H 0.17118 0.40029 0.17419 0.0
H1038 H 0.16789 0.42222 0.01075 0.0
H1039 H 0.18256 0.4332 0.93929 0.0
H1040 H 0.2102 0.47302 0.01883 0.0
H1041 H 0.19585 0.46208 0.09084 0.0
C1042 C 0.11488 0.45848 0.22786 0.0
C1043 C 0.11987 0.47624 0.22918 0.0
C1044 C 0.12593 0.44663 0.20814 0.0
C1045 C 0.1424 0.45228 0.1908 0.0
C1046 C 0.14757 0.47 0.19431 0.0
C1047 C 0.13634 0.48186 0.2126 0.0
C1048 C 0.15388 0.4401 0.16657 0.0
C1049 C 0.1615 0.44527 0.12376 0.0
C1050 C 0.1574 0.42357 0.18483 0.0
C1051 C 0.15101 0.41763 0.23123 0.0
C1052 C 0.15477 0.42765 0.27133 0.0
C1053 C 0.14865 0.42199 0.31493 0.0
C1054 C 0.13886 0.40626 0.31893 0.0
C1055 C 0.13522 0.39614 0.27934 0.0
C1056 C 0.1413 0.40174 0.23565 0.0
C1057 C 0.21865 0.39841 0.09374 0.0
C1058 C 0.21415 0.38566 0.0601 0.0
C1059 C 0.20622 0.40916 0.11127 0.0
C1060 C 0.18898 0.40728 0.096 0.0
C1061 C 0.18442 0.39478 0.06185 0.0
C1062 C 0.19697 0.38416 0.04359 0.0
C1063 C 0.17582 0.41811 0.11736 0.0
C1064 C 0.16813 0.41273 0.15966 0.0
C1065 C 0.1725 0.43457 0.09934 0.0
C1066 C 0.18098 0.44121 0.05611 0.0
C1067 C 0.17723 0.43319 0.01301 0.0
C1068 C 0.18545 0.43944 0.97242 0.0
C1069 C 0.19735 0.45376 0.97454 0.0
C1070 C 0.20101 0.46191 0.01724 0.0
C1071 C 0.19283 0.4557 0.05793 0.0
H1072 H 0.2037 0.45858 0.94308 0.0
H1073 H 0.13414 0.4019 0.35272 0.0
H1074 H 0.76624 0.89287 0.44746 0.0
H1075 H 0.78249 0.91614 0.40516 0.0
H1076 H 0.82931 0.90364 0.47669 0.0
H1077 H 0.81338 0.88032 0.51832 0.0
H1078 H 0.80297 0.9456 0.42678 0.0
H1079 H 0.86178 0.90294 0.40004 0.0
H1080 H 0.86758 0.87193 0.39333 0.0
H1081 H 0.81552 0.86049 0.34497 0.0
H1082 H 0.80949 0.89145 0.35072 0.0
H1083 H 0.87928 0.99545 0.35585 0.0
H1084 H 0.85559 0.97778 0.39202 0.0
H1085 H 0.85165 0.94564 0.26872 0.0
H1086 H 0.87591 0.96266 0.23381 0.0
H1087 H 0.85327 0.92599 0.33717 0.0
H1088 H 0.81901 0.97399 0.30567 0.0
H1089 H 0.8115 0.00462 0.30525 0.0
H1090 H 0.81096 0.00509 0.45496 0.0
H1091 H 0.81872 0.97453 0.45632 0.0
C1092 C 0.77996 0.89522 0.45459 0.0
C1093 C 0.78856 0.88452 0.48571 0.0
C1094 C 0.7892 0.90856 0.4305 0.0
C1095 C 0.80716 0.91141 0.43722 0.0
C1096 C 0.81552 0.90145 0.47036 0.0
C1097 C 0.80637 0.88809 0.49411 0.0
C1098 C 0.81756 0.92376 0.4073 0.0
C1099 C 0.81395 0.94138 0.40699 0.0
C1100 C 0.83155 0.91813 0.38044 0.0
C1101 C 0.83515 0.8995 0.37623 0.0
C1102 C 0.8516 0.89382 0.38777 0.0
C1103 C 0.85492 0.87625 0.38417 0.0
C1104 C 0.84191 0.86424 0.36887 0.0
C1105 C 0.82557 0.86979 0.35697 0.0
C1106 C 0.82219 0.88735 0.36044 0.0
C1107 C 0.8731 0.98481 0.33624 0.0
C1108 C 0.87949 0.9803 0.29226 0.0
C1109 C 0.85949 0.97475 0.35681 0.0
C1110 C 0.85173 0.96034 0.33314 0.0
C1111 C 0.85748 0.95656 0.28795 0.0
C1112 C 0.87132 0.96632 0.26795 0.0
C1113 C 0.83901 0.9481 0.35699 0.0
C1114 C 0.84222 0.93037 0.35639 0.0
C1115 C 0.8244 0.95364 0.38173 0.0
C1116 C 0.81958 0.97198 0.38108 0.0
C1117 C 0.81741 0.98065 0.33852 0.0
C1118 C 0.81309 0.998 0.33811 0.0
C1119 C 0.81079 0.0068 0.38005 0.0
C1120 C 0.81276 0.99825 0.42249 0.0
C1121 C 0.81709 0.98091 0.42311 0.0
H1122 H 0.80747 0.02024 0.37965 0.0
H1123 H 0.8445 0.85065 0.36615 0.0
H1124 H 0.27447 0.64081 0.63078 0.0
H1125 H 0.29542 0.62113 0.66018 0.0
H1126 H 0.32666 0.62981 0.53682 0.0
H1127 H 0.3055 0.64974 0.5067 0.0
H1128 H 0.32313 0.5947 0.56446 0.0
H1129 H 0.33855 0.65009 0.63556 0.0
H1130 H 0.33259 0.67653 0.67971 0.0
H1131 H 0.31644 0.64552 0.79788 0.0
H1132 H 0.32207 0.61887 0.7542 0.0
H1133 H 0.39643 0.55534 0.64895 0.0
H1134 H 0.37664 0.57582 0.61755 0.0
H1135 H 0.35057 0.57732 0.75064 0.0
H1136 H 0.37142 0.55758 0.78319 0.0
H1137 H 0.3514 0.60767 0.71694 0.0
H1138 H 0.33434 0.55262 0.64935 0.0
H1139 H 0.33828 0.52528 0.60707 0.0
H1140 H 0.35483 0.554 0.48525 0.0
H1141 H 0.3512 0.58152 0.52699 0.0
C1142 C 0.28573 0.63853 0.60957 0.0
C1143 C 0.28836 0.64697 0.56641 0.0
C1144 C 0.29775 0.62729 0.62664 0.0
C1145 C 0.31277 0.62422 0.60116 0.0
C1146 C 0.3152 0.6321 0.55722 0.0
C1147 C 0.30311 0.64346 0.54003 0.0
C1148 C 0.3259 0.61291 0.62108 0.0
C1149 C 0.32955 0.59765 0.59741 0.0
C1150 C 0.33377 0.61644 0.66495 0.0
C1151 C 0.33062 0.63248 0.69147 0.0
C1152 C 0.33363 0.6489 0.67086 0.0
C1153 C 0.33032 0.66393 0.69581 0.0
C1154 C 0.3241 0.6627 0.74154 0.0
C1155 C 0.32124 0.64645 0.76245 0.0
C1156 C 0.32451 0.63138 0.73763 0.0
C1157 C 0.3865 0.56008 0.6716 0.0
C1158 C 0.38532 0.55475 0.71837 0.0
C1159 C 0.37506 0.5717 0.65346 0.0
C1160 C 0.36162 0.57775 0.68106 0.0
C1161 C 0.36069 0.57276 0.72835 0.0
C1162 C 0.37256 0.56148 0.74699 0.0
C1163 C 0.34873 0.5893 0.66039 0.0
C1164 C 0.34506 0.60464 0.68394 0.0
C1165 C 0.34057 0.58566 0.61675 0.0
C1166 C 0.34263 0.56913 0.59144 0.0
C1167 C 0.33891 0.5531 0.61363 0.0
C1168 C 0.34108 0.53758 0.58975 0.0
C1169 C 0.34684 0.53791 0.54354 0.0
C1170 C 0.35039 0.55377 0.52106 0.0
C1171 C 0.34826 0.56933 0.54479 0.0
H1172 H 0.34852 0.52587 0.52513 0.0
H1173 H 0.32154 0.67435 0.76079 0.0
H1174 H 0.6896 0.15588 1.0008 0.0
H1175 H 0.67347 0.13087 0.96851 0.0
H1176 H 0.7211 0.10539 0.94622 0.0
H1177 H 0.73767 0.1309 0.97799 0.0
H1178 H 0.69994 0.10118 0.87204 0.0
H1179 H 0.6936 0.09146 0.03377 0.0
H1180 H 0.6884 0.09853 0.11626 0.0
H1181 H 0.63634 0.11118 0.08339 0.0
H1182 H 0.64129 0.10444 1.00057 0.0
H1183 H 0.63658 0.03035 0.81006 0.0
H1184 H 0.66096 0.04559 0.85113 0.0
H1185 H 0.62968 0.08937 0.87374 0.0
H1186 H 0.60555 0.07453 0.83253 0.0
H1187 H 0.64752 0.07716 0.95516 0.0
H1188 H 0.65752 0.0922 0.79074 0.0
H1189 H 0.66323 0.0847 0.70875 0.0
H1190 H 0.70939 0.06016 0.74988 0.0
H1191 H 0.7038 0.06733 0.83225 0.0
C1192 C 0.69677 0.14498 0.98943 0.0
C1193 C 0.71499 0.1454 0.99244 0.0
C1194 C 0.68746 0.13059 0.97109 0.0
C1195 C 0.69601 0.11605 0.95593 0.0
C1196 C 0.71422 0.11641 0.95814 0.0
C1197 C 0.72366 0.13098 0.97632 0.0
C1198 C 0.6856 0.10093 0.93662 0.0
C1199 C 0.68875 0.09558 0.8907 0.0
C1200 C 0.671 0.09353 0.96092 0.0
C1201 C 0.66785 0.09748 0.01085 0.0
C1202 C 0.68107 0.09583 0.04406 0.0
C1203 C 0.67816 0.09978 0.0909 0.0
C1204 C 0.66205 0.10531 0.10505 0.0
C1205 C 0.6488 0.10688 0.07239 0.0
C1206 C 0.65165 0.10296 0.02549 0.0
C1207 C 0.63493 0.04322 0.82386 0.0
C1208 C 0.61915 0.05126 0.81791 0.0
C1209 C 0.64886 0.05189 0.84717 0.0
C1210 C 0.64706 0.06857 0.86543 0.0
C1211 C 0.63129 0.07648 0.85997 0.0
C1212 C 0.61754 0.068 0.83617 0.0
C1213 C 0.66146 0.07815 0.89019 0.0
C1214 C 0.65903 0.08239 0.93717 0.0
C1215 C 0.67678 0.08431 0.8671 0.0
C1216 C 0.68012 0.08008 0.81764 0.0
C1217 C 0.66879 0.08505 0.78233 0.0
C1218 C 0.67202 0.0809 0.73579 0.0
C1219 C 0.68662 0.0719 0.72413 0.0
C1220 C 0.69806 0.06709 0.75898 0.0
C1221 C 0.69487 0.0712 0.80558 0.0
H1222 H 0.68911 0.0687 0.68808 0.0
H1223 H 0.65983 0.10836 0.14133 0.0
H1224 H 0.1294 0.52984 0.34122 0.0
H1225 H 0.1523 0.54645 0.38425 0.0
H1226 H 0.14402 0.59132 0.29944 0.0
H1227 H 0.1212 0.57506 0.25679 0.0
H1228 H 0.18348 0.56644 0.36288 0.0
H1229 H 0.14 0.62517 0.3714 0.0
H1230 H 0.10883 0.63079 0.3708 0.0
H1231 H 0.09644 0.57992 0.42626 0.0
H1232 H 0.12753 0.57412 0.42789 0.0
H1233 H 0.23175 0.64393 0.43094 0.0
H1234 H 0.21464 0.61985 0.3948 0.0
H1235 H 0.17937 0.6187 0.51189 0.0
H1236 H 0.19584 0.64342 0.54642 0.0
H1237 H 0.16148 0.61836 0.44024 0.0
H1238 H 0.20907 0.58528 0.48551 0.0
H1239 H 0.23971 0.57812 0.49204 0.0
H1240 H 0.24339 0.57466 0.34295 0.0
H1241 H 0.21283 0.58204 0.33547 0.0
C1242 C 0.13269 0.54315 0.33119 0.0
C1243 C 0.12323 0.55121 0.29614 0.0
C1244 C 0.1458 0.55259 0.35572 0.0
C1245 C 0.14962 0.57017 0.34548 0.0
C1246 C 0.14108 0.57783 0.30832 0.0
C1247 C 0.12799 0.56849 0.28405 0.0
C1248 C 0.16115 0.58117 0.37609 0.0
C1249 C 0.17875 0.57777 0.38007 0.0
C1250 C 0.15481 0.59566 0.39943 0.0
C1251 C 0.13608 0.59917 0.39934 0.0
C1252 C 0.13062 0.61523 0.38367 0.0
C1253 C 0.11297 0.61843 0.38313 0.0
C1254 C 0.10066 0.6057 0.39835 0.0
C1255 C 0.10598 0.58975 0.41433 0.0
C1256 C 0.12361 0.58649 0.41502 0.0
C1257 C 0.22048 0.63833 0.44916 0.0
C1258 C 0.21501 0.64558 0.49124 0.0
C1259 C 0.21076 0.62448 0.42866 0.0
C1260 C 0.19571 0.61729 0.45067 0.0
C1261 C 0.19082 0.62404 0.49394 0.0
C1262 C 0.20024 0.63816 0.51373 0.0
C1263 C 0.18413 0.60396 0.42682 0.0
C1264 C 0.16638 0.60696 0.42378 0.0
C1265 C 0.19033 0.5889 0.40556 0.0
C1266 C 0.20868 0.58434 0.40994 0.0
C1267 C 0.21644 0.5831 0.4541 0.0
C1268 C 0.23379 0.57899 0.45797 0.0
C1269 C 0.2435 0.57597 0.41793 0.0
C1270 C 0.23586 0.57701 0.37393 0.0
C1271 C 0.21851 0.58113 0.36986 0.0
H1272 H 0.25693 0.5728 0.42101 0.0
H1273 H 0.087 0.6082 0.39784 0.0
H1274 H 0.63642 0.99682 0.68651 0.0
H1275 H 0.65556 0.9758 0.65407 0.0
H1276 H 0.62788 0.93481 0.73065 0.0
H1277 H 0.60918 0.95611 0.7651 0.0
H1278 H 0.65976 0.92818 0.72955 0.0
H1279 H 0.62066 0.94262 0.61015 0.0
H1280 H 0.6046 0.96164 0.55864 0.0
H1281 H 0.65256 0.98194 0.49878 0.0
H1282 H 0.66893 0.96321 0.55036 0.0
H1283 H 0.69451 0.87694 0.51527 0.0
H1284 H 0.67286 0.89593 0.54713 0.0
H1285 H 0.71015 0.91565 0.6489 0.0
H1286 H 0.73146 0.89653 0.61827 0.0
H1287 H 0.66959 0.92937 0.55847 0.0
H1288 H 0.69167 0.92223 0.752 0.0
H1289 H 0.70425 0.90019 0.80204 0.0
H1290 H 0.68403 0.85979 0.71084 0.0
H1291 H 0.67111 0.88154 0.66066 0.0
C1292 C 0.63458 0.98335 0.69697 0.0
C1293 C 0.62127 0.97808 0.7282 0.0
C1294 C 0.64542 0.97129 0.67799 0.0
C1295 C 0.64287 0.95356 0.68861 0.0
C1296 C 0.63006 0.94837 0.7215 0.0
C1297 C 0.6194 0.96055 0.74134 0.0
C1298 C 0.65348 0.94056 0.66492 0.0
C1299 C 0.66186 0.92846 0.69215 0.0
C1300 C 0.65582 0.9404 0.6158 0.0
C1301 C 0.64603 0.95159 0.58437 0.0
C1302 C 0.62779 0.95121 0.58618 0.0
C1303 C 0.61863 0.96193 0.55696 0.0
C1304 C 0.62755 0.97301 0.52553 0.0
C1305 C 0.64566 0.97336 0.52316 0.0
C1306 C 0.65489 0.96267 0.55234 0.0
C1307 C 0.6981 0.88549 0.54407 0.0
C1308 C 0.71463 0.88512 0.56454 0.0
C1309 C 0.68572 0.89631 0.56234 0.0
C1310 C 0.68971 0.90694 0.60124 0.0
C1311 C 0.70655 0.90724 0.6198 0.0
C1312 C 0.71879 0.89636 0.60199 0.0
C1313 C 0.67634 0.91749 0.62337 0.0
C1314 C 0.66741 0.92908 0.59584 0.0
C1315 C 0.67298 0.91674 0.67199 0.0
C1316 C 0.68056 0.90355 0.70234 0.0
C1317 C 0.68984 0.90864 0.74274 0.0
C1318 C 0.69704 0.89619 0.77111 0.0
C1319 C 0.69498 0.87861 0.75955 0.0
C1320 C 0.68566 0.87342 0.71967 0.0
C1321 C 0.67842 0.8858 0.69123 0.0
H1322 H 0.70058 0.869 0.78153 0.0
H1323 H 0.62044 0.98131 0.50295 0.0
H1324 H 0.37189 0.50214 0.82572 0.0
H1325 H 0.3468 0.4858 0.85974 0.0
H1326 H 0.36645 0.43805 0.80927 0.0
H1327 H 0.39127 0.45412 0.77492 0.0
H1328 H 0.33226 0.43799 0.79621 0.0
H1329 H 0.37273 0.45117 0.92176 0.0
H1330 H 0.39083 0.47044 0.973 0.0
H1331 H 0.34552 0.4955 0.01859 0.0
H1332 H 0.32717 0.47649 0.96713 0.0
H1333 H 0.31067 0.37061 0.95447 0.0
H1334 H 0.32573 0.39486 0.91416 0.0
H1335 H 0.28383 0.42746 0.94669 0.0
H1336 H 0.26828 0.40291 0.9865 0.0
H1337 H 0.32339 0.43977 0.96752 0.0
H1338 H 0.28269 0.42125 0.84821 0.0
H1339 H 0.26644 0.39955 0.79961 0.0
H1340 H 0.31427 0.3824 0.74431 0.0
H1341 H 0.33082 0.40382 0.79318 0.0
C1342 C 0.37079 0.48817 0.82152 0.0
C1343 C 0.3837 0.47946 0.7978 0.0
C1344 C 0.35646 0.47886 0.84112 0.0
C1345 C 0.35481 0.46068 0.83735 0.0
C1346 C 0.36741 0.45206 0.81254 0.0
C1347 C 0.38168 0.4613 0.7931 0.0
C1348 C 0.34046 0.45034 0.86056 0.0
C1349 C 0.33026 0.43847 0.83363 0.0
C1350 C 0.33761 0.45115 0.90931 0.0
C1351 C 0.34862 0.46259 0.94014 0.0
C1352 C 0.36665 0.4609 0.9424 0.0
C1353 C 0.37695 0.47174 0.97154 0.0
C1354 C 0.36934 0.48423 0.99889 0.0
C1355 C 0.3514 0.48585 0.99728 0.0
C1356 C 0.34104 0.47505 0.96815 0.0
C1357 C 0.3046 0.38291 0.95314 0.0
C1358 C 0.2883 0.38486 0.97377 0.0
C1359 C 0.31322 0.39673 0.92999 0.0
C1360 C 0.30587 0.41288 0.92752 0.0
C1361 C 0.28966 0.41504 0.94831 0.0
C1362 C 0.2808 0.40103 0.97079 0.0
C1363 C 0.31552 0.4273 0.90318 0.0
C1364 C 0.32497 0.43978 0.92991 0.0
C1365 C 0.31788 0.4269 0.85435 0.0
C1366 C 0.30799 0.41407 0.82463 0.0
C1367 C 0.28975 0.41275 0.826 0.0
C1368 C 0.28048 0.40052 0.79834 0.0
C1369 C 0.28932 0.38958 0.76895 0.0
C1370 C 0.30744 0.39088 0.7671 0.0
C1371 C 0.31677 0.40308 0.79473 0.0
H1372 H 0.28212 0.38012 0.74756 0.0
H1373 H 0.37733 0.49261 0.02145 0.0
H1374 H 0.81243 0.16645 0.06099 0.0
H1375 H 0.83293 0.14738 0.09678 0.0
H1376 H 0.79338 0.10544 0.09689 0.0
H1377 H 0.7726 0.12505 0.06456 0.0
H1378 H 0.80759 0.10422 0.1733 0.0
H1379 H 0.83208 0.10887 0.02052 0.0
H1380 H 0.84396 0.12336 0.94986 0.0
H1381 H 0.8851 0.14822 0.0307 0.0
H1382 H 0.87334 0.13404 0.10198 0.0
H1383 H 0.86748 0.03571 0.18703 0.0
H1384 H 0.84771 0.05694 0.15816 0.0
H1385 H 0.87618 0.09742 0.23436 0.0
H1386 H 0.89582 0.07598 0.2648 0.0
H1387 H 0.86882 0.10025 0.12375 0.0
H1388 H 0.8426 0.09201 0.27712 0.0
H1389 H 0.8306 0.07353 0.34084 0.0
H1390 H 0.792 0.05084 0.24796 0.0
H1391 H 0.80394 0.06902 0.1835 0.0
C1392 C 0.80832 0.15303 0.06772 0.0
C1393 C 0.79111 0.14705 0.05924 0.0
C1394 C 0.82004 0.14208 0.08817 0.0
C1395 C 0.81493 0.12474 0.09917 0.0
C1396 C 0.79777 0.11869 0.08908 0.0
C1397 C 0.78592 0.12982 0.07002 0.0
C1398 C 0.82706 0.11317 0.12332 0.0
C1399 C 0.82091 0.10332 0.16188 0.0
C1400 C 0.84462 0.11197 0.10942 0.0
C1401 C 0.85172 0.12054 0.06666 0.0
C1402 C 0.84359 0.11753 0.02328 0.0
C1403 C 0.85031 0.12567 0.98311 0.0
C1404 C 0.86525 0.13674 0.98581 0.0
C1405 C 0.87352 0.13966 0.02868 0.0
C1406 C 0.86684 0.13156 0.06897 0.0
C1407 C 0.86937 0.04909 0.19831 0.0
C1408 C 0.88314 0.05421 0.22829 0.0
C1409 C 0.85809 0.06119 0.18169 0.0
C1410 C 0.86054 0.07873 0.19395 0.0
C1411 C 0.8741 0.08391 0.22454 0.0
C1412 C 0.8852 0.07167 0.24215 0.0
C1413 C 0.84922 0.09155 0.173 0.0
C1414 C 0.85552 0.10146 0.13503 0.0
C1415 C 0.83168 0.09241 0.18643 0.0
C1416 C 0.82426 0.08176 0.22541 0.0
C1417 C 0.83164 0.08298 0.2702 0.0
C1418 C 0.82483 0.07258 0.30647 0.0
C1419 C 0.81058 0.06098 0.29843 0.0
C1420 C 0.80305 0.05982 0.25414 0.0
C1421 C 0.80982 0.07019 0.21774 0.0
H1422 H 0.80535 0.05291 0.32652 0.0
H1423 H 0.87044 0.14303 0.95467 0.0
H1424 H 0.8076 0.65093 0.02749 0.0
H1425 H 0.8292 0.63211 0.99474 0.0
H1426 H 0.79436 0.61825 0.88143 0.0
H1427 H 0.77302 0.63707 0.9133 0.0
H1428 H 0.83054 0.59856 0.97505 0.0
H1429 H 0.81632 0.61501 0.78077 0.0
H1430 H 0.80676 0.63974 0.73487 0.0
H1431 H 0.82549 0.67504 0.84169 0.0
H1432 H 0.8354 0.65056 0.88787 0.0
H1433 H 0.8662 0.53493 0.83854 0.0
H1434 H 0.8463 0.55542 0.87018 0.0
H1435 H 0.87827 0.59802 0.81334 0.0
H1436 H 0.89768 0.57727 0.77901 0.0
H1437 H 0.84697 0.60632 0.80869 0.0
H1438 H 0.88018 0.58432 0.93306 0.0
H1439 H 0.89277 0.56196 0.98198 0.0
H1440 H 0.84165 0.54225 0.02086 0.0
H1441 H 0.82875 0.56434 0.97168 0.0
C1442 C 0.8045 0.64369 0.99593 0.0
C1443 C 0.78864 0.64561 0.97285 0.0
C1444 C 0.81686 0.63297 0.97716 0.0
C1445 C 0.81359 0.62404 0.93499 0.0
C1446 C 0.79741 0.62531 0.91332 0.0
C1447 C 0.78514 0.63603 0.93184 0.0
C1448 C 0.82703 0.61355 0.91292 0.0
C1449 C 0.83416 0.60028 0.93872 0.0
C1450 C 0.83221 0.61609 0.86585 0.0
C1451 C 0.82645 0.63091 0.83797 0.0
C1452 C 0.81847 0.62805 0.79436 0.0
C1453 C 0.81298 0.64203 0.76831 0.0
C1454 C 0.81546 0.65894 0.78542 0.0
C1455 C 0.82351 0.66193 0.82855 0.0
C1456 C 0.82905 0.648 0.8547 0.0
C1457 C 0.86878 0.54866 0.83205 0.0
C1458 C 0.88347 0.55455 0.80644 0.0
C1459 C 0.85751 0.5604 0.85066 0.0
C1460 C 0.86104 0.57837 0.84574 0.0
C1461 C 0.87529 0.58425 0.8181 0.0
C1462 C 0.88636 0.57241 0.79831 0.0
C1463 C 0.85008 0.59088 0.87034 0.0
C1464 C 0.84343 0.60459 0.84506 0.0
C1465 C 0.84579 0.58909 0.91835 0.0
C1466 C 0.8535 0.57592 0.94843 0.0
C1467 C 0.87163 0.57516 0.95187 0.0
C1468 C 0.87882 0.56254 0.97965 0.0
C1469 C 0.86802 0.55068 0.00445 0.0
C1470 C 0.85 0.55144 1.00162 0.0
C1471 C 0.84274 0.56402 0.97385 0.0
H1472 H 0.87361 0.54091 0.02591 0.0
H1473 H 0.81119 0.66974 0.76521 0.0
H1474 H 0.18934 0.15469 0.53257 0.0
H1475 H 0.17429 0.13121 0.57539 0.0
H1476 H 0.22323 0.1109 0.61313 0.0
H1477 H 0.23868 0.13465 0.57034 0.0
H1478 H 0.19263 0.08511 0.58338 0.0
H1479 H 0.20918 0.13049 0.69303 0.0
H1480 H 0.21262 0.16101 0.71857 0.0
H1481 H 0.15762 0.16577 0.70669 0.0
H1482 H 0.15389 0.13536 0.68036 0.0
H1483 H 0.13844 0.03395 0.74523 0.0
H1484 H 0.16342 0.05051 0.71069 0.0
H1485 H 0.13133 0.0937 0.6873 0.0
H1486 H 0.10687 0.07769 0.72306 0.0
H1487 H 0.16024 0.10548 0.72053 0.0
H1488 H 0.14369 0.06332 0.5991 0.0
H1489 H 0.13887 0.03371 0.56741 0.0
H1490 H 0.19188 0.02339 0.59657 0.0
H1491 H 0.19695 0.0529 0.62888 0.0
C1492 C 0.19703 0.14519 0.54938 0.0
C1493 C 0.21529 0.14674 0.54836 0.0
C1494 C 0.18835 0.13173 0.57381 0.0
C1495 C 0.19766 0.11944 0.59763 0.0
C1496 C 0.21584 0.12029 0.59487 0.0
C1497 C 0.22462 0.13391 0.57055 0.0
C1498 C 0.18811 0.10675 0.62822 0.0
C1499 C 0.18583 0.08938 0.61406 0.0
C1500 C 0.17912 0.11246 0.66777 0.0
C1501 C 0.18128 0.13067 0.68451 0.0
C1502 C 0.19784 0.13808 0.6956 0.0
C1503 C 0.19983 0.15536 0.71025 0.0
C1504 C 0.18535 0.16533 0.7142 0.0
C1505 C 0.16883 0.15803 0.70363 0.0
C1506 C 0.16677 0.14077 0.68891 0.0
C1507 C 0.13681 0.047 0.73274 0.0
C1508 C 0.12072 0.05456 0.73724 0.0
C1509 C 0.15105 0.05642 0.71284 0.0
C1510 C 0.14929 0.07338 0.69618 0.0
C1511 C 0.13315 0.08074 0.70028 0.0
C1512 C 0.11911 0.07153 0.72077 0.0
C1513 C 0.16398 0.08386 0.6746 0.0
C1514 C 0.16731 0.10094 0.69061 0.0
C1515 C 0.1737 0.07788 0.63643 0.0
C1516 C 0.17064 0.06021 0.61691 0.0
C1517 C 0.15428 0.05469 0.59903 0.0
C1518 C 0.15151 0.03794 0.58092 0.0
C1519 C 0.16504 0.02666 0.58013 0.0
C1520 C 0.1814 0.03213 0.59731 0.0
C1521 C 0.18423 0.04886 0.6155 0.0
H1522 H 0.16287 0.01369 0.56609 0.0
H1523 H 0.18693 0.17871 0.72552 0.0
H1524 H 0.69834 0.38041 0.5237 0.0
H1525 H 0.67812 0.40104 0.4924 0.0
H1526 H 0.71296 0.41236 0.37736 0.0
H1527 H 0.73306 0.39213 0.40831 0.0
H1528 H 0.70095 0.44141 0.40948 0.0
H1529 H 0.67697 0.38511 0.36401 0.0
H1530 H 0.66552 0.35502 0.37693 0.0
H1531 H 0.62465 0.3734 0.46222 0.0
H1532 H 0.63601 0.40361 0.45029 0.0
H1533 H 0.61894 0.46133 0.26057 0.0
H1534 H 0.63972 0.44091 0.2899 0.0
H1535 H 0.651 0.47447 0.40763 0.0
H1536 H 0.63066 0.49485 0.37849 0.0
H1537 H 0.64011 0.42251 0.37079 0.0
H1538 H 0.69289 0.47261 0.43924 0.0
H1539 H 0.70508 0.50198 0.42003 0.0
H1540 H 0.68982 0.49464 0.27707 0.0
H1541 H 0.67776 0.46515 0.29528 0.0
C1542 C 0.70172 0.38744 0.492 0.0
C1543 C 0.71729 0.38458 0.46848 0.0
C1544 C 0.69012 0.39913 0.47396 0.0
C1545 C 0.69393 0.40816 0.4322 0.0
C1546 C 0.70969 0.4056 0.40955 0.0
C1547 C 0.72117 0.39395 0.42733 0.0
C1548 C 0.68161 0.42017 0.4113 0.0
C1549 C 0.68762 0.43728 0.40129 0.0
C1550 C 0.66432 0.41473 0.39953 0.0
C1551 C 0.65745 0.3966 0.40666 0.0
C1552 C 0.66562 0.38273 0.38582 0.0
C1553 C 0.65914 0.36565 0.39291 0.0
C1554 C 0.6444 0.3623 0.42049 0.0
C1555 C 0.63609 0.37602 0.44093 0.0
C1556 C 0.64254 0.39312 0.43399 0.0
C1557 C 0.62603 0.46443 0.29235 0.0
C1558 C 0.62319 0.47976 0.31701 0.0
C1559 C 0.6378 0.4527 0.30928 0.0
C1560 C 0.64702 0.45619 0.35088 0.0
C1561 C 0.64426 0.47156 0.37519 0.0
C1562 C 0.63256 0.48322 0.35842 0.0
C1563 C 0.65942 0.44379 0.36955 0.0
C1564 C 0.65342 0.42664 0.37919 0.0
C1565 C 0.67684 0.44909 0.38025 0.0
C1566 C 0.68428 0.46673 0.36877 0.0
C1567 C 0.69221 0.47724 0.40367 0.0
C1568 C 0.69908 0.49391 0.39296 0.0
C1569 C 0.69818 0.50019 0.34739 0.0
C1570 C 0.69045 0.48979 0.31239 0.0
C1571 C 0.68358 0.4731 0.3229 0.0
H1572 H 0.70349 0.51311 0.33918 0.0
H1573 H 0.63939 0.34907 0.42593 0.0
H1574 H 0.39864 0.95518 0.21644 0.0
H1575 H 0.37465 0.94024 0.17491 0.0
H1576 H 0.3428 0.98343 0.19936 0.0
H1577 H 0.36704 0.99882 0.24068 0.0
H1578 H 0.32719 0.94708 0.21903 0.0
H1579 H 0.3536 0.982 0.09883 0.0
H1580 H 0.37777 0.99533 0.0526 0.0
H1581 H 0.39266 0.94484 0.01099 0.0
H1582 H 0.36871 0.93118 0.05756 0.0
H1583 H 0.26729 0.89832 0.06878 0.0
H1584 H 0.28395 0.92315 0.10326 0.0
H1585 H 0.3316 0.89867 0.07346 0.0
H1586 H 0.31529 0.87418 0.03853 0.0
H1587 H 0.33493 0.93205 0.05233 0.0
H1588 H 0.31233 0.89745 0.1832 0.0
H1589 H 0.28899 0.8835 0.23131 0.0
H1590 H 0.26755 0.93294 0.25402 0.0
H1591 H 0.29067 0.94715 0.20555 0.0
C1592 C 0.38654 0.96154 0.21332 0.0
C1593 C 0.38476 0.97821 0.23195 0.0
C1594 C 0.37287 0.95299 0.18938 0.0
C1595 C 0.35703 0.96079 0.18395 0.0
C1596 C 0.35497 0.97726 0.20321 0.0
C1597 C 0.36882 0.98601 0.22662 0.0
C1598 C 0.34289 0.95144 0.15768 0.0
C1599 C 0.32857 0.94413 0.18226 0.0
C1600 C 0.34492 0.94746 0.10996 0.0
C1601 C 0.3594 0.95556 0.08192 0.0
C1602 C 0.36211 0.97373 0.08016 0.0
C1603 C 0.37575 0.98134 0.05382 0.0
C1604 C 0.38673 0.97094 0.02887 0.0
C1605 C 0.38412 0.95288 0.03029 0.0
C1606 C 0.37049 0.94519 0.0566 0.0
C1607 C 0.28133 0.89827 0.0694 0.0
C1608 C 0.28991 0.88417 0.05097 0.0
C1609 C 0.29082 0.91246 0.08923 0.0
C1610 C 0.30903 0.91273 0.09122 0.0
C1611 C 0.31757 0.89881 0.07217 0.0
C1612 C 0.30817 0.88474 0.05231 0.0
C1613 C 0.31948 0.92711 0.11402 0.0
C1614 C 0.33319 0.93535 0.08875 0.0
C1615 C 0.31692 0.93186 0.16116 0.0
C1616 C 0.30307 0.92332 0.1903 0.0
C1617 C 0.30255 0.90532 0.19816 0.0
C1618 C 0.28939 0.89737 0.22554 0.0
C1619 C 0.27676 0.90732 0.24557 0.0
C1620 C 0.27731 0.92524 0.23838 0.0
C1621 C 0.29044 0.93325 0.21098 0.0
H1622 H 0.26658 0.90114 0.26677 0.0
H1623 H 0.39723 0.97688 0.00833 0.0
H1624 H 0.76919 0.40219 0.54274 0.0
H1625 H 0.78386 0.42738 0.58196 0.0
H1626 H 0.82682 0.39639 0.61617 0.0
H1627 H 0.81265 0.37151 0.57635 0.0
H1628 H 0.80941 0.41756 0.69366 0.0
H1629 H 0.83556 0.41947 0.53622 0.0
H1630 H 0.83329 0.42194 0.45072 0.0
H1631 H 0.80903 0.47035 0.46575 0.0
H1632 H 0.81095 0.468 0.55146 0.0
H1633 H 0.88886 0.45465 0.75708 0.0
H1634 H 0.86378 0.4394 0.72231 0.0
H1635 H 0.8451 0.48792 0.67448 0.0
H1636 H 0.87064 0.50351 0.70887 0.0
H1637 H 0.84278 0.46392 0.60658 0.0
H1638 H 0.82374 0.46605 0.76227 0.0
H1639 H 0.82532 0.46427 0.84796 0.0
H1640 H 0.8338 0.40988 0.83888 0.0
H1641 H 0.83254 0.41137 0.75309 0.0
C1642 C 0.78178 0.40082 0.55854 0.0
C1643 C 0.78982 0.38492 0.55628 0.0
C1644 C 0.79011 0.41517 0.58083 0.0
C1645 C 0.80636 0.41364 0.6019 0.0
C1646 C 0.81426 0.39777 0.60009 0.0
C1647 C 0.80618 0.38361 0.57709 0.0
C1648 C 0.81544 0.4284 0.62616 0.0
C1649 C 0.81665 0.42779 0.67486 0.0
C1650 C 0.82426 0.44205 0.60151 0.0
C1651 C 0.82315 0.44343 0.55014 0.0
C1652 C 0.82956 0.43053 0.52128 0.0
C1653 C 0.82839 0.43194 0.4728 0.0
C1654 C 0.82095 0.44626 0.45281 0.0
C1655 C 0.81473 0.45924 0.48128 0.0
C1656 C 0.81586 0.45788 0.5298 0.0
C1657 C 0.87944 0.46221 0.73953 0.0
C1658 C 0.88183 0.48037 0.73589 0.0
C1659 C 0.86497 0.45343 0.71987 0.0
C1660 C 0.85236 0.46252 0.6965 0.0
C1661 C 0.85461 0.48066 0.69268 0.0
C1662 C 0.86919 0.48953 0.71241 0.0
C1663 C 0.83748 0.45266 0.67429 0.0
C1664 C 0.83514 0.45412 0.62591 0.0
C1665 C 0.82739 0.4399 0.6994 0.0
C1666 C 0.82809 0.43885 0.75112 0.0
C1667 C 0.82604 0.45373 0.7785 0.0
C1668 C 0.82687 0.45277 0.82712 0.0
C1669 C 0.82967 0.43698 0.84885 0.0
C1670 C 0.83162 0.42211 0.82199 0.0
C1671 C 0.83081 0.42299 0.77335 0.0
H1672 H 0.83031 0.43626 0.88649 0.0
H1673 H 0.82006 0.44733 0.41527 0.0
H1674 H 0.28712 0.1558 0.3961 0.0
H1675 H 0.30755 0.13548 0.36748 0.0
H1676 H 0.31746 0.11932 0.50856 0.0
H1677 H 0.29739 0.14056 0.5378 0.0
H1678 H 0.34645 0.12028 0.46234 0.0
H1679 H 0.29022 0.09453 0.43064 0.0
H1680 H 0.26012 0.09279 0.4014 0.0
H1681 H 0.27861 0.10179 0.26178 0.0
H1682 H 0.30882 0.10382 0.29027 0.0
H1683 H 0.38154 0.0412 0.39318 0.0
H1684 H 0.362 0.06225 0.42311 0.0
H1685 H 0.36133 0.08697 0.28843 0.0
H1686 H 0.38124 0.06585 0.25792 0.0
H1687 H 0.32774 0.08095 0.33252 0.0
H1688 H 0.3849 0.106 0.3692 0.0
H1689 H 0.41437 0.10532 0.40214 0.0
H1690 H 0.39288 0.0946 0.53791 0.0
H1691 H 0.36326 0.09498 0.50564 0.0
C1692 C 0.29363 0.14794 0.4212 0.0
C1693 C 0.29047 0.14962 0.46923 0.0
C1694 C 0.30528 0.13622 0.40468 0.0
C1695 C 0.31372 0.12541 0.43559 0.0
C1696 C 0.311 0.12738 0.48388 0.0
C1697 C 0.29953 0.13948 0.50061 0.0
C1698 C 0.32526 0.11213 0.41694 0.0
C1699 C 0.34222 0.11154 0.43443 0.0
C1700 C 0.31994 0.10076 0.38002 0.0
C1701 C 0.30178 0.09947 0.36267 0.0
C1702 C 0.28786 0.09625 0.39375 0.0
C1703 C 0.27078 0.0952 0.3773 0.0
C1704 C 0.26746 0.09722 0.32978 0.0
C1705 C 0.28121 0.10025 0.29859 0.0
C1706 C 0.29832 0.10133 0.31486 0.0
C1707 C 0.37722 0.05104 0.36964 0.0
C1708 C 0.38299 0.05184 0.32305 0.0
C1709 C 0.36608 0.06313 0.38699 0.0
C1710 C 0.36036 0.07629 0.35821 0.0
C1711 C 0.36567 0.07693 0.31128 0.0
C1712 C 0.37703 0.06488 0.2939 0.0
C1713 C 0.34884 0.08932 0.37758 0.0
C1714 C 0.33189 0.08978 0.36034 0.0
C1715 C 0.35406 0.10027 0.4153 0.0
C1716 C 0.37186 0.10037 0.43491 0.0
C1717 C 0.38645 0.10338 0.40602 0.0
C1718 C 0.40319 0.10307 0.42458 0.0
C1719 C 0.4055 0.09987 0.47206 0.0
C1720 C 0.39107 0.09706 0.50112 0.0
C1721 C 0.37431 0.09734 0.48273 0.0
H1722 H 0.41846 0.0996 0.48635 0.0
H1723 H 0.25422 0.0964 0.31711 0.0
H1724 H 0.60551 0.57777 0.23003 0.0
H1725 H 0.62878 0.59395 0.18916 0.0
H1726 H 0.65761 0.54785 0.17977 0.0
H1727 H 0.63416 0.5313 0.22102 0.0
H1728 H 0.678 0.57849 0.20676 0.0
H1729 H 0.6394 0.55961 0.08526 0.0
H1730 H 0.61151 0.55432 0.0443 0.0
H1731 H 0.60392 0.60898 0.04384 0.0
H1732 H 0.63164 0.6146 0.08545 0.0
H1733 H 0.73475 0.63169 0.05518 0.0
H1734 H 0.71711 0.60714 0.08799 0.0
H1735 H 0.67355 0.63954 0.09986 0.0
H1736 H 0.69075 0.66373 0.06637 0.0
H1737 H 0.66346 0.60982 0.06225 0.0
H1738 H 0.69963 0.62794 0.19511 0.0
H1739 H 0.72759 0.63345 0.23571 0.0
H1740 H 0.73972 0.58041 0.21451 0.0
H1741 H 0.71191 0.57464 0.1733 0.0
C1742 C 0.61677 0.57097 0.21954 0.0
C1743 C 0.61788 0.55316 0.22874 0.0
C1744 C 0.63006 0.58028 0.19597 0.0
C1745 C 0.64482 0.57206 0.18099 0.0
C1746 C 0.64627 0.5544 0.19092 0.0
C1747 C 0.63284 0.54497 0.21433 0.0
C1748 C 0.65847 0.5822 0.15466 0.0
C1749 C 0.67499 0.58508 0.17461 0.0
C1750 C 0.65447 0.59085 0.11292 0.0
C1751 C 0.6376 0.58751 0.08865 0.0
C1752 C 0.63171 0.57049 0.07683 0.0
C1753 C 0.61594 0.56744 0.05342 0.0
C1754 C 0.60597 0.58131 0.0414 0.0
C1755 C 0.61168 0.59826 0.05308 0.0
C1756 C 0.62743 0.60139 0.07654 0.0
C1757 C 0.72142 0.63355 0.06499 0.0
C1758 C 0.71413 0.64965 0.05783 0.0
C1759 C 0.71137 0.61953 0.08384 0.0
C1760 C 0.69398 0.62148 0.09646 0.0
C1761 C 0.68687 0.63763 0.09002 0.0
C1762 C 0.69677 0.6515 0.07086 0.0
C1763 C 0.68275 0.60686 0.11553 0.0
C1764 C 0.66664 0.60304 0.09397 0.0
C1765 C 0.68715 0.59744 0.15579 0.0
C1766 C 0.70381 0.60092 0.18065 0.0
C1767 C 0.70833 0.61749 0.19881 0.0
C1768 C 0.72413 0.62066 0.22198 0.0
C1769 C 0.73545 0.60731 0.22754 0.0
C1770 C 0.73096 0.59075 0.21008 0.0
C1771 C 0.71518 0.58752 0.18684 0.0
H1772 H 0.74768 0.60978 0.24549 0.0
H1773 H 0.59388 0.57893 0.02281 0.0
H1774 H 0.22883 0.89025 0.90235 0.0
H1775 H 0.20844 0.91026 0.87211 0.0
H1776 H 0.1793 0.9063 1.00043 0.0
H1777 H 0.19965 0.88563 0.0308 0.0
H1778 H 0.15778 0.9047 0.92868 0.0
H1779 H 0.20526 0.94312 0.97252 0.0
H1780 H 0.23571 0.9545 0.97737 0.0
H1781 H 0.23725 0.96104 0.82872 0.0
H1782 H 0.20687 0.94945 0.82287 0.0
H1783 H 0.11394 0.98306 0.89141 0.0
H1784 H 0.13414 0.96234 0.92012 0.0
H1785 H 0.14943 0.95141 0.77906 0.0
H1786 H 0.12863 0.97196 0.7496 0.0
H1787 H 0.17764 0.96082 0.85667 0.0
H1788 H 0.12882 0.92168 0.81631 0.0
H1789 H 0.09788 0.91175 0.81662 0.0
H1790 H 0.09865 0.90856 0.96608 0.0
H1791 H 0.12955 0.91875 0.96669 0.0
C1792 C 0.21818 0.89368 0.92452 0.0
C1793 C 0.21594 0.88635 0.96921 0.0
C1794 C 0.20653 0.90525 0.90712 0.0
C1795 C 0.19242 0.91006 0.93409 0.0
C1796 C 0.19012 0.90285 0.97893 0.0
C1797 C 0.2018 0.89112 0.9964 0.0
C1798 C 0.17991 0.92221 0.9145 0.0
C1799 C 0.16215 0.91706 0.91352 0.0
C1800 C 0.18553 0.93828 0.89392 0.0
C1801 C 0.20382 0.94525 0.89722 0.0
C1802 C 0.21213 0.94685 0.94081 0.0
C1803 C 0.22937 0.95336 0.94375 0.0
C1804 C 0.23842 0.95845 0.90337 0.0
C1805 C 0.23023 0.95707 0.85996 0.0
C1806 C 0.21299 0.95054 0.85682 0.0
C1807 C 0.12155 0.97625 0.86631 0.0
C1808 C 0.11973 0.97918 0.81816 0.0
C1809 C 0.13306 0.96438 0.88287 0.0
C1810 C 0.14325 0.95536 0.85177 0.0
C1811 C 0.14163 0.95827 0.80359 0.0
C1812 C 0.12975 0.96994 0.78682 0.0
C1813 C 0.15572 0.94313 0.87041 0.0
C1814 C 0.1734 0.94838 0.87158 0.0
C1815 C 0.15 0.92732 0.89182 0.0
C1816 C 0.13144 0.92117 0.89156 0.0
C1817 C 0.12235 0.91905 0.84927 0.0
C1818 C 0.10483 0.91333 0.84927 0.0
C1819 C 0.09629 0.90958 0.89135 0.0
C1820 C 0.10527 0.9115 0.93352 0.0
C1821 C 0.12279 0.91723 0.9337 0.0
H1822 H 0.08273 0.90514 0.89128 0.0
H1823 H 0.25177 0.96349 0.90572 0.0
loop_
_geom_bond_atom_site_label_1
_geom_bond_atom_site_label_2
_geom_bond_distance
_geom_bond_site_symmetry_2
_ccdc_geom_bond_type
Co0 O1 2.216 . S
Co0 O2 2.091 . S
Co0 O4 2.004 1_554 S
Co0 O10 2.021 1_554 S
Co0 O12 2.137 . S
Co0 O13 2.244 . S
O1 Co0 2.216 . S
O1 C8 1.247 . S
O2 Co0 2.091 . S
O2 C8 1.261 . S
C3 O12 1.247 . S
C3 O13 1.272 . S
O4 Co0 2.004 1_556 S
O4 C9 1.259 . S
Co5 O6 2.061 1_554 S
Co5 O11 2.052 . S
Co5 O13 2.135 . S
O6 Co5 2.061 1_556 S
O6 C9 1.235 . S
C7 O10 1.238 . S
C7 O11 1.241 1_556 S
C8 O1 1.247 . S
C8 O2 1.261 . S
C9 O4 1.259 . S
C9 O6 1.235 . S
O10 Co0 2.021 1_556 S
O10 C7 1.238 . S
O11 Co5 2.052 . S
O11 C7 1.241 1_554 S
O12 Co0 2.137 . S
O12 C3 1.247 . S
O13 Co0 2.244 . S
O13 C3 1.272 . S
O13 Co5 2.135 . S
Co14 O15 2.216 . S
Co14 O16 2.091 . S
Co14 O18 2.004 . S
Co14 O24 2.021 . S
Co14 O26 2.137 . S
Co14 O27 2.244 . S
O15 Co14 2.216 . S
O15 C22 1.247 . S
O16 Co14 2.091 . S
O16 C22 1.261 . S
C17 O26 1.247 . S
C17 O27 1.272 . S
O18 Co14 2.004 . S
O18 C23 1.259 . S
Co19 O20 2.085 . S
Co19 O25 2.052 . S
Co19 O27 2.135 1_565 S
O20 Co19 2.085 . S
O20 C23 1.198 1_565 S
C21 O24 1.238 1_565 S
C21 O25 1.241 . S
C22 O15 1.247 . S
C22 O16 1.261 . S
C23 O18 1.259 . S
C23 O20 1.198 1_545 S
O24 Co14 2.021 . S
O24 C21 1.238 1_545 S
O25 Co19 2.052 . S
O25 C21 1.241 . S
O26 Co14 2.137 . S
O26 C17 1.247 . S
O27 Co14 2.244 . S
O27 C17 1.272 . S
O27 Co19 2.135 1_545 S
Co28 O29 2.216 . S
Co28 O30 2.091 . S
Co28 O32 2.004 . S
Co28 O38 2.021 . S
Co28 O40 2.137 . S
Co28 O41 2.244 . S
O29 Co28 2.216 . S
O29 C36 1.247 . S
O30 Co28 2.091 . S
O30 C36 1.261 . S
C31 O40 1.247 . S
C31 O41 1.272 . S
O32 Co28 2.004 . S
O32 C37 1.259 . S
Co33 O34 2.061 . S
Co33 O39 2.052 . S
Co33 O41 2.135 . S
O34 Co33 2.061 . S
O34 C37 1.235 . S
C35 O38 1.238 . S
C35 O39 1.241 . S
C36 O29 1.247 . S
C36 O30 1.261 . S
C37 O32 1.259 . S
C37 O34 1.235 . S
O38 Co28 2.021 . S
O38 C35 1.238 . S
O39 Co33 2.052 . S
O39 C35 1.241 . S
O40 Co28 2.137 . S
O40 C31 1.247 . S
O41 Co28 2.244 . S
O41 C31 1.272 . S
O41 Co33 2.135 . S
Co42 O43 2.216 . S
Co42 O44 2.091 1_545 S
Co42 O46 2.004 . S
Co42 O52 2.021 . S
Co42 O54 2.137 1_545 S
Co42 O55 2.244 . S
O43 Co42 2.216 . S
O43 C50 1.247 1_545 S
O44 Co42 2.091 1_565 S
O44 C50 1.261 . S
C45 O54 1.247 1_545 S
C45 O55 1.272 . S
O46 Co42 2.004 . S
O46 C51 1.259 . S
Co47 O48 2.061 . S
Co47 O53 2.052 . S
Co47 O55 2.135 . S
O48 Co47 2.061 . S
O48 C51 1.235 . S
C49 O52 1.238 . S
C49 O53 1.241 . S
C50 O43 1.247 1_565 S
C50 O44 1.261 . S
C51 O46 1.259 . S
C51 O48 1.235 . S
O52 Co42 2.021 . S
O52 C49 1.238 . S
O53 Co47 2.052 . S
O53 C49 1.241 . S
O54 Co42 2.137 1_565 S
O54 C45 1.247 1_565 S
O55 Co42 2.244 . S
O55 C45 1.272 . S
O55 Co47 2.135 . S
Co56 O57 2.216 1_554 S
Co56 O58 2.091 . S
Co56 O60 2.004 . S
Co56 O66 2.021 . S
Co56 O68 2.137 1_554 S
Co56 O69 2.244 1_554 S
O57 Co56 2.216 1_556 S
O57 C64 1.247 . S
O58 Co56 2.091 . S
O58 C64 1.261 1_554 S
C59 O68 1.247 . S
C59 O69 1.272 . S
O60 Co56 2.004 . S
O60 C65 1.259 . S
Co61 O62 2.061 . S
Co61 O67 2.052 . S
Co61 O69 2.135 1_554 S
O62 Co61 2.061 . S
O62 C65 1.235 . S
C63 O66 1.238 . S
C63 O67 1.241 . S
C64 O57 1.247 . S
C64 O58 1.261 1_556 S
C65 O60 1.259 . S
C65 O62 1.235 . S
O66 Co56 2.021 . S
O66 C63 1.238 . S
O67 Co61 2.052 . S
O67 C63 1.241 . S
O68 Co56 2.137 1_556 S
O68 C59 1.247 . S
O69 Co56 2.244 1_556 S
O69 C59 1.272 . S
O69 Co61 2.135 1_556 S
Co70 O71 2.216 . S
Co70 O72 2.091 1_545 S
Co70 O74 2.004 . S
Co70 O80 2.021 . S
Co70 O82 2.137 1_545 S
Co70 O83 2.244 . S
O71 Co70 2.216 . S
O71 C78 1.247 1_545 S
O72 Co70 2.091 1_565 S
O72 C78 1.261 . S
C73 O82 1.247 1_545 S
C73 O83 1.272 . S
O74 Co70 2.004 . S
O74 C79 1.259 . S
Co75 O76 2.061 . S
Co75 O81 2.052 . S
Co75 O83 2.135 . S
O76 Co75 2.061 . S
O76 C79 1.235 . S
C77 O80 1.238 . S
C77 O81 1.241 . S
C78 O71 1.247 1_565 S
C78 O72 1.261 . S
C79 O74 1.259 . S
C79 O76 1.235 . S
O80 Co70 2.021 . S
O80 C77 1.238 . S
O81 Co75 2.052 . S
O81 C77 1.241 . S
O82 Co70 2.137 1_565 S
O82 C73 1.247 1_565 S
O83 Co70 2.244 . S
O83 C73 1.272 . S
O83 Co75 2.135 . S
Co84 O85 2.216 . S
Co84 O86 2.091 . S
Co84 O88 2.004 . S
Co84 O94 2.021 . S
Co84 O96 2.137 . S
Co84 O97 2.244 . S
O85 Co84 2.216 . S
O85 C92 1.247 . S
O86 Co84 2.091 . S
O86 C92 1.261 . S
C87 O96 1.247 . S
C87 O97 1.272 . S
O88 Co84 2.004 . S
O88 C93 1.259 . S
Co89 O90 2.061 . S
Co89 O95 2.052 . S
Co89 O97 2.135 . S
O90 Co89 2.061 . S
O90 C93 1.235 . S
C91 O94 1.238 . S
C91 O95 1.241 . S
C92 O85 1.247 . S
C92 O86 1.261 . S
C93 O88 1.259 . S
C93 O90 1.235 . S
O94 Co84 2.021 . S
O94 C91 1.238 . S
O95 Co89 2.052 . S
O95 C91 1.241 . S
O96 Co84 2.137 . S
O96 C87 1.247 . S
O97 Co84 2.244 . S
O97 C87 1.272 . S
O97 Co89 2.135 . S
Co98 O99 2.216 . S
Co98 O100 2.091 . S
Co98 O102 2.004 . S
Co98 O108 2.021 . S
Co98 O110 2.137 . S
Co98 O111 2.244 . S
O99 Co98 2.216 . S
O99 C106 1.247 . S
O100 Co98 2.091 . S
O100 C106 1.261 . S
C101 O110 1.247 . S
C101 O111 1.272 . S
O102 Co98 2.004 . S
O102 C107 1.259 . S
Co103 O104 2.085 . S
Co103 O109 2.052 . S
Co103 O111 2.135 1_565 S
O104 Co103 2.085 . S
O104 C107 1.199 1_565 S
C105 O108 1.238 1_565 S
C105 O109 1.241 . S
C106 O99 1.247 . S
C106 O100 1.261 . S
C107 O102 1.259 . S
C107 O104 1.199 1_545 S
O108 Co98 2.021 . S
O108 C105 1.238 1_545 S
O109 Co103 2.052 . S
O109 C105 1.241 . S
O110 Co98 2.137 . S
O110 C101 1.247 . S
O111 Co98 2.244 . S
O111 C101 1.272 . S
O111 Co103 2.135 1_545 S
Co112 O113 2.216 . S
Co112 O114 2.091 . S
Co112 O116 2.004 . S
Co112 O122 2.021 . S
Co112 O124 2.137 . S
Co112 O125 2.244 . S
O113 Co112 2.216 . S
O113 C120 1.247 . S
O114 Co112 2.091 . S
O114 C120 1.261 . S
C115 O124 1.247 . S
C115 O125 1.272 . S
O116 Co112 2.004 . S
O116 C121 1.259 . S
Co117 O118 2.061 . S
Co117 O123 2.052 . S
Co117 O125 2.135 . S
O118 Co117 2.061 . S
O118 C121 1.235 . S
C119 O122 1.238 . S
C119 O123 1.241 . S
C120 O113 1.247 . S
C120 O114 1.261 . S
C121 O116 1.259 . S
C121 O118 1.235 . S
O122 Co112 2.021 . S
O122 C119 1.238 . S
O123 Co117 2.052 . S
O123 C119 1.241 . S
O124 Co112 2.137 . S
O124 C115 1.247 . S
O125 Co112 2.244 . S
O125 C115 1.272 . S
O125 Co117 2.135 . S
Co126 O127 2.216 . S
Co126 O128 2.091 . S
Co126 O130 2.004 . S
Co126 O136 2.021 . S
Co126 O138 2.137 . S
Co126 O139 2.244 . S
O127 Co126 2.216 . S
O127 C134 1.247 . S
O128 Co126 2.091 . S
O128 C134 1.261 . S
C129 O138 1.247 . S
C129 O139 1.272 . S
O130 Co126 2.004 . S
O130 C135 1.259 . S
Co131 O132 2.061 . S
Co131 O137 2.052 . S
Co131 O139 2.135 . S
O132 Co131 2.061 . S
O132 C135 1.235 . S
C133 O136 1.238 . S
C133 O137 1.241 . S
C134 O127 1.247 . S
C134 O128 1.261 . S
C135 O130 1.259 . S
C135 O132 1.235 . S
O136 Co126 2.021 . S
O136 C133 1.238 . S
O137 Co131 2.052 . S
O137 C133 1.241 . S
O138 Co126 2.137 . S
O138 C129 1.247 . S
O139 Co126 2.244 . S
O139 C129 1.272 . S
O139 Co131 2.135 . S
Co140 O141 2.216 . S
Co140 O142 2.091 . S
Co140 O144 2.004 1_554 S
Co140 O150 2.021 1_554 S
Co140 O152 2.137 . S
Co140 O153 2.244 . S
O141 Co140 2.216 . S
O141 C148 1.247 . S
O142 Co140 2.091 . S
O142 C148 1.261 . S
C143 O152 1.247 . S
C143 O153 1.272 . S
O144 Co140 2.004 1_556 S
O144 C149 1.259 . S
Co145 O146 2.061 1_554 S
Co145 O151 2.052 . S
Co145 O153 2.135 . S
O146 Co145 2.061 1_556 S
O146 C149 1.235 . S
C147 O150 1.238 . S
C147 O151 1.241 1_556 S
C148 O141 1.247 . S
C148 O142 1.261 . S
C149 O144 1.259 . S
C149 O146 1.235 . S
O150 Co140 2.021 1_556 S
O150 C147 1.238 . S
O151 Co145 2.052 . S
O151 C147 1.241 1_554 S
O152 Co140 2.137 . S
O152 C143 1.247 . S
O153 Co140 2.244 . S
O153 C143 1.272 . S
O153 Co145 2.135 . S
Co154 O155 2.216 . S
Co154 O156 2.091 . S
Co154 O158 2.004 . S
Co154 O164 2.021 . S
Co154 O166 2.137 . S
Co154 O167 2.244 . S
O155 Co154 2.216 . S
O155 C162 1.247 . S
O156 Co154 2.091 . S
O156 C162 1.261 . S
C157 O166 1.247 . S
C157 O167 1.272 . S
O158 Co154 2.004 . S
O158 C163 1.259 . S
Co159 O160 2.061 . S
Co159 O165 2.052 . S
Co159 O167 2.135 . S
O160 Co159 2.061 . S
O160 C163 1.235 . S
C161 O164 1.238 . S
C161 O165 1.241 . S
C162 O155 1.247 . S
C162 O156 1.261 . S
C163 O158 1.259 . S
C163 O160 1.235 . S
O164 Co154 2.021 . S
O164 C161 1.238 . S
O165 Co159 2.052 . S
O165 C161 1.241 . S
O166 Co154 2.137 . S
O166 C157 1.247 . S
O167 Co154 2.244 . S
O167 C157 1.272 . S
O167 Co159 2.135 . S
Co168 O169 2.216 . S
Co168 O170 2.091 . S
Co168 O172 2.004 . S
Co168 O178 2.021 . S
Co168 O180 2.137 . S
Co168 O181 2.244 . S
O169 Co168 2.216 . S
O169 C176 1.247 . S
O170 Co168 2.091 . S
O170 C176 1.261 . S
C171 O180 1.247 . S
C171 O181 1.272 . S
O172 Co168 2.004 . S
O172 C177 1.259 . S
Co173 O174 2.061 . S
Co173 O179 2.052 . S
Co173 O181 2.135 . S
O174 Co173 2.061 . S
O174 C177 1.235 . S
C175 O178 1.238 . S
C175 O179 1.241 . S
C176 O169 1.247 . S
C176 O170 1.261 . S
C177 O172 1.259 . S
C177 O174 1.235 . S
O178 Co168 2.021 . S
O178 C175 1.238 . S
O179 Co173 2.052 . S
O179 C175 1.241 . S
O180 Co168 2.137 . S
O180 C171 1.247 . S
O181 Co168 2.244 . S
O181 C171 1.272 . S
O181 Co173 2.135 . S
Co182 O183 2.216 . S
Co182 O184 2.091 . S
Co182 O186 2.004 . S
Co182 O192 2.021 . S
Co182 O194 2.137 . S
Co182 O195 2.244 . S
O183 Co182 2.216 . S
O183 C190 1.247 . S
O184 Co182 2.091 . S
O184 C190 1.261 . S
C185 O194 1.247 . S
C185 O195 1.272 . S
O186 Co182 2.004 . S
O186 C191 1.259 . S
Co187 O188 2.061 . S
Co187 O193 2.052 . S
Co187 O195 2.135 . S
O188 Co187 2.061 . S
O188 C191 1.235 . S
C189 O192 1.238 . S
C189 O193 1.241 . S
C190 O183 1.247 . S
C190 O184 1.261 . S
C191 O186 1.259 . S
C191 O188 1.235 . S
O192 Co182 2.021 . S
O192 C189 1.238 . S
O193 Co187 2.052 . S
O193 C189 1.241 . S
O194 Co182 2.137 . S
O194 C185 1.247 . S
O195 Co182 2.244 . S
O195 C185 1.272 . S
O195 Co187 2.135 . S
Co196 O197 2.216 1_554 S
Co196 O198 2.091 . S
Co196 O200 2.004 . S
Co196 O206 2.021 . S
Co196 O208 2.137 1_554 S
Co196 O209 2.244 1_554 S
O197 Co196 2.216 1_556 S
O197 C204 1.247 . S
O198 Co196 2.091 . S
O198 C204 1.261 1_554 S
C199 O208 1.247 . S
C199 O209 1.272 . S
O200 Co196 2.004 . S
O200 C205 1.259 . S
Co201 O202 2.061 . S
Co201 O207 2.052 . S
Co201 O209 2.135 1_554 S
O202 Co201 2.061 . S
O202 C205 1.235 . S
C203 O206 1.238 . S
C203 O207 1.241 . S
C204 O197 1.247 . S
C204 O198 1.261 1_556 S
C205 O200 1.259 . S
C205 O202 1.235 . S
O206 Co196 2.021 . S
O206 C203 1.238 . S
O207 Co201 2.052 . S
O207 C203 1.241 . S
O208 Co196 2.137 1_556 S
O208 C199 1.247 . S
O209 Co196 2.244 1_556 S
O209 C199 1.272 . S
O209 Co201 2.135 1_556 S
Co210 O211 2.216 . S
Co210 O212 2.091 . S
Co210 O214 2.004 . S
Co210 O220 2.021 . S
Co210 O222 2.137 . S
Co210 O223 2.244 . S
O211 Co210 2.216 . S
O211 C218 1.247 . S
O212 Co210 2.091 . S
O212 C218 1.261 . S
C213 O222 1.247 . S
C213 O223 1.272 . S
O214 Co210 2.004 . S
O214 C219 1.259 . S
Co215 O216 2.061 . S
Co215 O221 2.052 . S
Co215 O223 2.135 . S
O216 Co215 2.061 . S
O216 C219 1.235 . S
C217 O220 1.238 . S
C217 O221 1.241 . S
C218 O211 1.247 . S
C218 O212 1.261 . S
C219 O214 1.259 . S
C219 O216 1.235 . S
O220 Co210 2.021 . S
O220 C217 1.238 . S
O221 Co215 2.052 . S
O221 C217 1.241 . S
O222 Co210 2.137 . S
O222 C213 1.247 . S
O223 Co210 2.244 . S
O223 C213 1.272 . S
O223 Co215 2.135 . S
H224 C242 0.951 . S
H225 C244 0.951 . S
H226 C246 0.950 . S
H227 C247 0.950 . S
H228 C249 0.950 . S
H229 C252 0.950 . S
H230 C253 0.950 . S
H231 C255 0.950 . S
H232 C256 0.950 . S
H233 C257 0.951 . S
H234 C259 0.951 . S
H235 C261 0.950 . S
H236 C262 0.950 . S
H237 C264 0.950 . S
H238 C267 0.950 . S
H239 C268 0.950 . S
H240 C270 0.950 . S
H241 C271 0.950 . S
C242 H224 0.951 . S
C242 C243 1.366 . S
C242 C244 1.388 . S
C243 C242 1.366 . S
C243 C247 1.385 . S
C244 H225 0.951 . S
C244 C242 1.388 . S
C244 C245 1.366 . S
C245 C244 1.366 . S
C245 C246 1.414 . S
C245 C248 1.499 . S
C246 H226 0.950 . S
C246 C245 1.414 . S
C246 C247 1.374 . S
C247 H227 0.950 . S
C247 C243 1.385 . S
C247 C246 1.374 . S
C248 C245 1.499 . S
C248 C249 1.373 . S
C248 C250 1.389 . S
C249 H228 0.950 . S
C249 C248 1.373 . S
C249 C265 1.377 . S
C250 C248 1.389 . S
C250 C251 1.524 . S
C250 C264 1.377 . S
C251 C250 1.524 . S
C251 C252 1.397 . S
C251 C256 1.363 . S
C252 H229 0.950 . S
C252 C251 1.397 . S
C252 C253 1.334 . S
C253 H230 0.950 . S
C253 C252 1.334 . S
C253 C254 1.287 . S
C254 C253 1.287 . S
C254 C255 1.524 . S
C254 H273 0.913 . S
C255 H231 0.950 . S
C255 C254 1.524 . S
C255 C256 1.415 . S
C256 H232 0.950 . S
C256 C251 1.363 . S
C256 C255 1.415 . S
C257 H233 0.951 . S
C257 C258 1.366 . S
C257 C259 1.388 . S
C258 C257 1.366 . S
C258 C262 1.385 . S
C259 H234 0.951 . S
C259 C257 1.388 . S
C259 C260 1.366 . S
C260 C259 1.366 . S
C260 C261 1.414 . S
C260 C263 1.499 . S
C261 H235 0.950 . S
C261 C260 1.414 . S
C261 C262 1.374 . S
C262 H236 0.950 . S
C262 C258 1.385 . S
C262 C261 1.374 . S
C263 C260 1.499 . S
C263 C264 1.373 . S
C263 C265 1.389 . S
C264 H237 0.950 . S
C264 C250 1.377 . S
C264 C263 1.373 . S
C265 C249 1.377 . S
C265 C263 1.389 . S
C265 C266 1.524 . S
C266 C265 1.524 . S
C266 C267 1.397 . S
C266 C271 1.363 . S
C267 H238 0.950 . S
C267 C266 1.397 . S
C267 C268 1.334 . S
C268 H239 0.950 . S
C268 C267 1.334 . S
C268 C269 1.287 . S
C269 C268 1.287 . S
C269 C270 1.524 . S
C269 H272 0.999 . S
C270 H240 0.950 . S
C270 C269 1.524 . S
C270 C271 1.415 . S
C271 H241 0.950 . S
C271 C266 1.363 . S
C271 C270 1.415 . S
H272 C269 0.999 . S
H273 C254 0.913 . S
H274 C292 0.951 . S
H275 C294 0.951 . S
H276 C296 0.950 1_565 S
H277 C297 0.950 1_565 S
H278 C299 0.950 . S
H279 C302 0.946 1_565 S
H280 C303 0.950 . S
H281 C305 0.950 . S
H282 C306 0.950 . S
H283 C307 0.951 . S
H284 C309 0.989 . S
H285 C311 0.950 . S
H286 C312 0.950 . S
H287 C314 0.950 . S
H288 C317 0.950 . S
H289 C318 0.950 . S
H290 C320 0.950 . S
H291 C321 0.950 . S
C292 H274 0.951 . S
C292 C293 1.366 . S
C292 C294 1.388 . S
C293 C292 1.366 . S
C293 C297 1.385 . S
C294 H275 0.951 . S
C294 C292 1.388 . S
C294 C295 1.366 . S
C295 C294 1.366 . S
C295 C296 1.414 . S
C295 C298 1.499 . S
C296 H276 0.950 1_545 S
C296 C295 1.414 . S
C296 C297 1.374 . S
C297 H277 0.950 1_545 S
C297 C293 1.385 . S
C297 C296 1.374 . S
C298 C295 1.499 . S
C298 C299 1.373 . S
C298 C300 1.389 1_655 S
C299 H278 0.950 . S
C299 C298 1.373 . S
C299 C315 1.377 . S
C300 C298 1.389 1_455 S
C300 C301 1.524 . S
C300 C314 1.377 . S
C301 C300 1.524 . S
C301 C302 1.397 . S
C301 C306 1.363 . S
C302 H279 0.946 1_545 S
C302 C301 1.397 . S
C302 C303 1.334 . S
C303 H280 0.950 . S
C303 C302 1.334 . S
C303 C304 1.287 . S
C304 C303 1.287 . S
C304 C305 1.524 . S
C304 H323 0.913 . S
C305 H281 0.950 . S
C305 C304 1.524 . S
C305 C306 1.415 . S
C306 H282 0.950 . S
C306 C301 1.363 . S
C306 C305 1.415 . S
C307 H283 0.951 . S
C307 C308 1.366 1_565 S
C307 C309 1.393 . S
C308 C307 1.366 1_545 S
C308 C312 1.385 . S
C309 H284 0.989 . S
C309 C307 1.393 . S
C309 C310 1.324 1_565 S
C310 C309 1.324 1_545 S
C310 C311 1.414 . S
C310 C313 1.499 . S
C311 H285 0.950 . S
C311 C310 1.414 . S
C311 C312 1.374 . S
C312 H286 0.950 . S
C312 C308 1.385 . S
C312 C311 1.374 . S
C313 C310 1.499 . S
C313 C314 1.373 . S
C313 C315 1.389 1_455 S
C314 H287 0.950 . S
C314 C300 1.377 . S
C314 C313 1.373 . S
C315 C299 1.377 . S
C315 C313 1.389 1_655 S
C315 C316 1.524 . S
C316 C315 1.524 . S
C316 C317 1.397 . S
C316 C321 1.363 1_545 S
C317 H288 0.950 . S
C317 C316 1.397 . S
C317 C318 1.334 . S
C318 H289 0.950 . S
C318 C317 1.334 . S
C318 C319 1.287 . S
C319 C318 1.287 . S
C319 C320 1.524 1_545 S
C319 H322 0.999 . S
C320 H290 0.950 . S
C320 C319 1.524 1_565 S
C320 C321 1.415 . S
C321 H291 0.950 . S
C321 C316 1.363 1_565 S
C321 C320 1.415 . S
H322 C319 0.999 . S
H323 C304 0.913 . S
H324 C342 0.951 . S
H325 C344 0.951 . S
H326 C346 0.950 . S
H327 C347 0.950 . S
H328 C349 0.950 . S
H329 C352 0.950 . S
H330 C353 0.950 . S
H331 C355 0.950 . S
H332 C356 0.950 . S
H333 C357 0.951 . S
H334 C359 0.951 . S
H335 C361 0.950 . S
H336 C362 0.950 . S
H337 C364 0.950 . S
H338 C367 0.950 . S
H339 C368 0.950 . S
H340 C370 0.950 . S
H341 C371 0.950 . S
C342 H324 0.951 . S
C342 C343 1.366 . S
C342 C344 1.388 . S
C343 C342 1.366 . S
C343 C347 1.385 . S
C344 H325 0.951 . S
C344 C342 1.388 . S
C344 C345 1.366 . S
C345 C344 1.366 . S
C345 C346 1.414 . S
C345 C348 1.499 . S
C346 H326 0.950 . S
C346 C345 1.414 . S
C346 C347 1.374 . S
C347 H327 0.950 . S
C347 C343 1.385 . S
C347 C346 1.374 . S
C348 C345 1.499 . S
C348 C349 1.373 . S
C348 C350 1.389 . S
C349 H328 0.950 . S
C349 C348 1.373 . S
C349 C365 1.377 . S
C350 C348 1.389 . S
C350 C351 1.524 . S
C350 C364 1.377 . S
C351 C350 1.524 . S
C351 C352 1.397 . S
C351 C356 1.363 . S
C352 H329 0.950 . S
C352 C351 1.397 . S
C352 C353 1.334 . S
C353 H330 0.950 . S
C353 C352 1.334 . S
C353 C354 1.287 . S
C354 C353 1.287 . S
C354 C355 1.524 . S
C354 H373 0.913 . S
C355 H331 0.950 . S
C355 C354 1.524 . S
C355 C356 1.415 . S
C356 H332 0.950 . S
C356 C351 1.363 . S
C356 C355 1.415 . S
C357 H333 0.951 . S
C357 C358 1.366 . S
C357 C359 1.388 . S
C358 C357 1.366 . S
C358 C362 1.385 . S
C359 H334 0.951 . S
C359 C357 1.388 . S
C359 C360 1.366 . S
C360 C359 1.366 . S
C360 C361 1.414 . S
C360 C363 1.499 . S
C361 H335 0.950 . S
C361 C360 1.414 . S
C361 C362 1.374 . S
C362 H336 0.950 . S
C362 C358 1.385 . S
C362 C361 1.374 . S
C363 C360 1.499 . S
C363 C364 1.373 . S
C363 C365 1.389 . S
C364 H337 0.950 . S
C364 C350 1.377 . S
C364 C363 1.373 . S
C365 C349 1.377 . S
C365 C363 1.389 . S
C365 C366 1.524 . S
C366 C365 1.524 . S
C366 C367 1.397 . S
C366 C371 1.363 . S
C367 H338 0.950 . S
C367 C366 1.397 . S
C367 C368 1.334 . S
C368 H339 0.950 . S
C368 C367 1.334 . S
C368 C369 1.287 . S
C369 C368 1.287 . S
C369 C370 1.524 . S
C369 H372 0.999 . S
C370 H340 0.950 . S
C370 C369 1.524 . S
C370 C371 1.415 . S
C371 H341 0.950 . S
C371 C366 1.363 . S
C371 C370 1.415 . S
H372 C369 0.999 . S
H373 C354 0.913 . S
H374 C392 0.951 . S
H375 C394 0.951 . S
H376 C396 0.950 . S
H377 C397 0.950 . S
H378 C399 0.950 . S
H379 C402 0.950 . S
H380 C403 0.950 . S
H381 C405 0.950 . S
H382 C406 0.950 . S
H383 C407 0.951 . S
H384 C409 0.951 . S
H385 C411 0.950 . S
H386 C412 0.950 . S
H387 C414 0.950 1_565 S
H388 C417 0.950 . S
H389 C418 0.950 . S
H390 C420 0.950 . S
H391 C421 0.950 . S
C392 H374 0.951 . S
C392 C393 1.366 . S
C392 C394 1.388 . S
C393 C392 1.366 . S
C393 C397 1.385 . S
C394 H375 0.951 . S
C394 C392 1.388 . S
C394 C395 1.366 . S
C395 C394 1.366 . S
C395 C396 1.414 . S
C395 C398 1.499 . S
C396 H376 0.950 . S
C396 C395 1.414 . S
C396 C397 1.374 . S
C397 H377 0.950 . S
C397 C393 1.385 . S
C397 C396 1.374 . S
C398 C395 1.499 . S
C398 C399 1.373 . S
C398 C400 1.389 . S
C399 H378 0.950 . S
C399 C398 1.373 . S
C399 C415 1.377 . S
C400 C398 1.389 . S
C400 C401 1.524 1_545 S
C400 C414 1.377 1_554 S
C401 C400 1.524 1_565 S
C401 C402 1.397 . S
C401 C406 1.363 1_554 S
C402 H379 0.950 . S
C402 C401 1.397 . S
C402 C403 1.334 . S
C403 H380 0.950 . S
C403 C402 1.334 . S
C403 C404 1.287 . S
C404 C403 1.287 . S
C404 C405 1.524 1_554 S
C404 H423 0.913 . S
C405 H381 0.950 . S
C405 C404 1.524 1_556 S
C405 C406 1.415 . S
C406 H382 0.950 . S
C406 C401 1.363 1_556 S
C406 C405 1.415 . S
C407 H383 0.951 . S
C407 C408 1.366 . S
C407 C409 1.388 . S
C408 C407 1.366 . S
C408 C412 1.385 . S
C409 H384 0.951 . S
C409 C407 1.388 . S
C409 C410 1.366 . S
C410 C409 1.366 . S
C410 C411 1.414 . S
C410 C413 1.499 . S
C411 H385 0.950 . S
C411 C410 1.414 . S
C411 C412 1.374 . S
C412 H386 0.950 . S
C412 C408 1.385 . S
C412 C411 1.374 . S
C413 C410 1.499 . S
C413 C414 1.373 . S
C413 C415 1.389 1_556 S
C414 H387 0.950 1_545 S
C414 C400 1.377 1_556 S
C414 C413 1.373 . S
C415 C399 1.377 . S
C415 C413 1.389 1_554 S
C415 C416 1.524 . S
C416 C415 1.524 . S
C416 C417 1.397 1_554 S
C416 C421 1.363 . S
C417 H388 0.950 . S
C417 C416 1.397 1_556 S
C417 C418 1.334 . S
C418 H389 0.950 . S
C418 C417 1.334 . S
C418 C419 1.287 1_556 S
C419 C418 1.287 1_554 S
C419 C420 1.524 . S
C419 H422 0.999 . S
C420 H390 0.950 . S
C420 C419 1.524 . S
C420 C421 1.415 . S
C421 H391 0.950 . S
C421 C416 1.363 . S
C421 C420 1.415 . S
H422 C419 0.999 . S
H423 C404 0.913 . S
H424 C442 0.951 . S
H425 C444 0.951 . S
H426 C446 0.950 . S
H427 C447 0.950 . S
H428 C449 0.950 . S
H429 C452 0.950 . S
H430 C453 0.950 . S
H431 C455 0.950 . S
H432 C456 0.950 . S
H433 C457 0.951 . S
H434 C459 0.951 . S
H435 C461 0.950 . S
H436 C462 0.950 . S
H437 C464 0.950 . S
H438 C467 0.950 . S
H439 C468 0.950 . S
H440 C470 0.950 . S
H441 C471 0.950 . S
C442 H424 0.951 . S
C442 C443 1.366 . S
C442 C444 1.388 . S
C443 C442 1.366 . S
C443 C447 1.385 . S
C444 H425 0.951 . S
C444 C442 1.388 . S
C444 C445 1.366 . S
C445 C444 1.366 . S
C445 C446 1.414 . S
C445 C448 1.499 . S
C446 H426 0.950 . S
C446 C445 1.414 . S
C446 C447 1.374 . S
C447 H427 0.950 . S
C447 C443 1.385 . S
C447 C446 1.374 . S
C448 C445 1.499 . S
C448 C449 1.373 . S
C448 C450 1.389 . S
C449 H428 0.950 . S
C449 C448 1.373 . S
C449 C465 1.377 . S
C450 C448 1.389 . S
C450 C451 1.524 . S
C450 C464 1.377 . S
C451 C450 1.524 . S
C451 C452 1.397 . S
C451 C456 1.363 . S
C452 H429 0.950 . S
C452 C451 1.397 . S
C452 C453 1.334 . S
C453 H430 0.950 . S
C453 C452 1.334 . S
C453 C454 1.287 . S
C454 C453 1.287 . S
C454 C455 1.524 . S
C454 H473 0.913 . S
C455 H431 0.950 . S
C455 C454 1.524 . S
C455 C456 1.415 . S
C456 H432 0.950 . S
C456 C451 1.363 . S
C456 C455 1.415 . S
C457 H433 0.951 . S
C457 C458 1.366 . S
C457 C459 1.388 . S
C458 C457 1.366 . S
C458 C462 1.385 . S
C459 H434 0.951 . S
C459 C457 1.388 . S
C459 C460 1.366 . S
C460 C459 1.366 . S
C460 C461 1.414 . S
C460 C463 1.499 . S
C461 H435 0.950 . S
C461 C460 1.414 . S
C461 C462 1.374 . S
C462 H436 0.950 . S
C462 C458 1.385 . S
C462 C461 1.374 . S
C463 C460 1.499 . S
C463 C464 1.373 . S
C463 C465 1.389 . S
C464 H437 0.950 . S
C464 C450 1.377 . S
C464 C463 1.373 . S
C465 C449 1.377 . S
C465 C463 1.389 . S
C465 C466 1.524 . S
C466 C465 1.524 . S
C466 C467 1.397 . S
C466 C471 1.363 . S
C467 H438 0.950 . S
C467 C466 1.397 . S
C467 C468 1.334 . S
C468 H439 0.950 . S
C468 C467 1.334 . S
C468 C469 1.287 . S
C469 C468 1.287 . S
C469 C470 1.524 . S
C469 H472 0.999 . S
C470 H440 0.950 . S
C470 C469 1.524 . S
C470 C471 1.415 . S
C471 H441 0.950 . S
C471 C466 1.363 . S
C471 C470 1.415 . S
H472 C469 0.999 . S
H473 C454 0.913 . S
H474 C492 0.951 . S
H475 C494 0.951 . S
H476 C496 0.950 . S
H477 C497 0.950 . S
H478 C499 0.950 1_565 S
H479 C502 0.950 . S
H480 C503 0.950 . S
H481 C505 0.950 . S
H482 C506 0.950 . S
H483 C507 0.951 . S
H484 C509 0.951 . S
H485 C511 0.950 . S
H486 C512 0.950 . S
H487 C514 0.950 . S
H488 C517 0.950 . S
H489 C518 0.950 . S
H490 C520 0.950 . S
H491 C521 0.950 . S
C492 H474 0.951 . S
C492 C493 1.366 . S
C492 C494 1.388 . S
C493 C492 1.366 . S
C493 C497 1.385 . S
C494 H475 0.951 . S
C494 C492 1.388 . S
C494 C495 1.366 . S
C495 C494 1.366 . S
C495 C496 1.414 . S
C495 C498 1.499 . S
C496 H476 0.950 . S
C496 C495 1.414 . S
C496 C497 1.374 . S
C497 H477 0.950 . S
C497 C493 1.385 . S
C497 C496 1.374 . S
C498 C495 1.499 . S
C498 C499 1.373 . S
C498 C500 1.389 . S
C499 H478 0.950 1_545 S
C499 C498 1.373 . S
C499 C515 1.377 . S
C500 C498 1.389 . S
C500 C501 1.524 . S
C500 C514 1.377 . S
C501 C500 1.524 . S
C501 C502 1.397 . S
C501 C506 1.363 . S
C502 H479 0.950 . S
C502 C501 1.397 . S
C502 C503 1.334 . S
C503 H480 0.950 . S
C503 C502 1.334 . S
C503 C504 1.287 . S
C504 C503 1.287 . S
C504 C505 1.524 . S
C504 H523 0.913 . S
C505 H481 0.950 . S
C505 C504 1.524 . S
C505 C506 1.415 . S
C506 H482 0.950 . S
C506 C501 1.363 . S
C506 C505 1.415 . S
C507 H483 0.951 . S
C507 C508 1.366 . S
C507 C509 1.388 . S
C508 C507 1.366 . S
C508 C512 1.385 . S
C509 H484 0.951 . S
C509 C507 1.388 . S
C509 C510 1.366 . S
C510 C509 1.366 . S
C510 C511 1.414 . S
C510 C513 1.499 . S
C511 H485 0.950 . S
C511 C510 1.414 . S
C511 C512 1.374 . S
C512 H486 0.950 . S
C512 C508 1.385 . S
C512 C511 1.374 . S
C513 C510 1.499 . S
C513 C514 1.373 . S
C513 C515 1.389 . S
C514 H487 0.950 . S
C514 C500 1.377 . S
C514 C513 1.373 . S
C515 C499 1.377 . S
C515 C513 1.389 . S
C515 C516 1.524 1_545 S
C516 C515 1.524 1_565 S
C516 C517 1.397 . S
C516 C521 1.363 . S
C517 H488 0.950 . S
C517 C516 1.397 . S
C517 C518 1.334 . S
C518 H489 0.950 . S
C518 C517 1.334 . S
C518 C519 1.287 . S
C519 C518 1.287 . S
C519 C520 1.524 . S
C519 H522 0.999 . S
C520 H490 0.950 . S
C520 C519 1.524 . S
C520 C521 1.415 . S
C521 H491 0.950 . S
C521 C516 1.363 . S
C521 C520 1.415 . S
H522 C519 0.999 . S
H523 C504 0.913 . S
H524 C542 0.951 . S
H525 C544 0.951 . S
H526 C546 0.950 . S
H527 C547 0.950 . S
H528 C549 0.950 . S
H529 C552 0.950 . S
H530 C553 0.950 . S
H531 C555 0.950 . S
H532 C556 0.950 . S
H533 C557 0.951 . S
H534 C559 0.951 . S
H535 C561 0.950 . S
H536 C562 0.950 . S
H537 C564 0.950 . S
H538 C567 0.950 . S
H539 C568 0.950 . S
H540 C570 0.950 . S
H541 C571 0.950 . S
C542 H524 0.951 . S
C542 C543 1.366 . S
C542 C544 1.388 . S
C543 C542 1.366 . S
C543 C547 1.385 . S
C544 H525 0.951 . S
C544 C542 1.388 . S
C544 C545 1.366 . S
C545 C544 1.366 . S
C545 C546 1.414 . S
C545 C548 1.499 . S
C546 H526 0.950 . S
C546 C545 1.414 . S
C546 C547 1.374 . S
C547 H527 0.950 . S
C547 C543 1.385 . S
C547 C546 1.374 . S
C548 C545 1.499 . S
C548 C549 1.373 . S
C548 C550 1.389 . S
C549 H528 0.950 . S
C549 C548 1.373 . S
C549 C565 1.377 . S
C550 C548 1.389 . S
C550 C551 1.524 . S
C550 C564 1.377 . S
C551 C550 1.524 . S
C551 C552 1.397 . S
C551 C556 1.363 . S
C552 H529 0.950 . S
C552 C551 1.397 . S
C552 C553 1.334 . S
C553 H530 0.950 . S
C553 C552 1.334 . S
C553 C554 1.287 . S
C554 C553 1.287 . S
C554 C555 1.524 . S
C554 H573 0.913 . S
C555 H531 0.950 . S
C555 C554 1.524 . S
C555 C556 1.415 . S
C556 H532 0.950 . S
C556 C551 1.363 . S
C556 C555 1.415 . S
C557 H533 0.951 . S
C557 C558 1.366 . S
C557 C559 1.388 . S
C558 C557 1.366 . S
C558 C562 1.385 . S
C559 H534 0.951 . S
C559 C557 1.388 . S
C559 C560 1.366 . S
C560 C559 1.366 . S
C560 C561 1.414 . S
C560 C563 1.499 . S
C561 H535 0.950 . S
C561 C560 1.414 . S
C561 C562 1.374 . S
C562 H536 0.950 . S
C562 C558 1.385 . S
C562 C561 1.374 . S
C563 C560 1.499 . S
C563 C564 1.373 . S
C563 C565 1.389 . S
C564 H537 0.950 . S
C564 C550 1.377 . S
C564 C563 1.373 . S
C565 C549 1.377 . S
C565 C563 1.389 . S
C565 C566 1.524 . S
C566 C565 1.524 . S
C566 C567 1.397 . S
C566 C571 1.363 . S
C567 H538 0.950 . S
C567 C566 1.397 . S
C567 C568 1.334 . S
C568 H539 0.950 . S
C568 C567 1.334 . S
C568 C569 1.287 . S
C569 C568 1.287 . S
C569 C570 1.524 . S
C569 H572 0.999 . S
C570 H540 0.950 . S
C570 C569 1.524 . S
C570 C571 1.415 . S
C571 H541 0.950 . S
C571 C566 1.363 . S
C571 C570 1.415 . S
H572 C569 0.999 . S
H573 C554 0.913 . S
H574 C592 0.951 . S
H575 C594 0.951 . S
H576 C596 0.950 . S
H577 C597 0.950 . S
H578 C599 0.950 1_565 S
H579 C602 0.950 . S
H580 C603 0.950 . S
H581 C605 0.950 . S
H582 C606 0.950 . S
H583 C607 0.951 . S
H584 C609 0.951 . S
H585 C611 0.950 . S
H586 C612 0.950 . S
H587 C614 0.950 . S
H588 C617 0.950 . S
H589 C618 0.950 . S
H590 C620 0.950 . S
H591 C621 0.950 . S
C592 H574 0.951 . S
C592 C593 1.366 . S
C592 C594 1.388 . S
C593 C592 1.366 . S
C593 C597 1.385 . S
C594 H575 0.951 . S
C594 C592 1.388 . S
C594 C595 1.366 . S
C595 C594 1.366 . S
C595 C596 1.414 . S
C595 C598 1.499 . S
C596 H576 0.950 . S
C596 C595 1.414 . S
C596 C597 1.374 . S
C597 H577 0.950 . S
C597 C593 1.385 . S
C597 C596 1.374 . S
C598 C595 1.499 . S
C598 C599 1.373 1_556 S
C598 C600 1.439 . S
C599 H578 0.950 1_545 S
C599 C598 1.373 1_554 S
C599 C615 1.378 1_455 S
C600 C598 1.439 . S
C600 C601 1.526 . S
C600 C614 1.328 1_456 S
C601 C600 1.526 . S
C601 C602 1.397 . S
C601 C606 1.363 1_455 S
C602 H579 0.950 . S
C602 C601 1.397 . S
C602 C603 1.334 . S
C603 H580 0.950 . S
C603 C602 1.334 . S
C603 C604 1.287 . S
C604 C603 1.287 . S
C604 C605 1.524 1_455 S
C604 H623 0.913 . S
C605 H581 0.950 . S
C605 C604 1.524 1_655 S
C605 C606 1.415 . S
C606 H582 0.950 . S
C606 C601 1.363 1_655 S
C606 C605 1.415 . S
C607 H583 0.951 . S
C607 C608 1.366 . S
C607 C609 1.388 . S
C608 C607 1.366 . S
C608 C612 1.385 . S
C609 H584 0.951 . S
C609 C607 1.388 . S
C609 C610 1.366 . S
C610 C609 1.366 . S
C610 C611 1.414 . S
C610 C613 1.499 . S
C611 H585 0.950 . S
C611 C610 1.414 . S
C611 C612 1.374 . S
C612 H586 0.950 . S
C612 C608 1.385 . S
C612 C611 1.374 . S
C613 C610 1.499 . S
C613 C614 1.373 . S
C613 C615 1.428 . S
C614 H587 0.950 . S
C614 C600 1.328 1_654 S
C614 C613 1.373 . S
C615 C599 1.378 1_655 S
C615 C613 1.428 . S
C615 C616 1.482 1_545 S
C616 C615 1.482 1_565 S
C616 C617 1.397 . S
C616 C621 1.363 1_655 S
C617 H588 0.950 . S
C617 C616 1.397 . S
C617 C618 1.334 . S
C618 H589 0.950 . S
C618 C617 1.334 . S
C618 C619 1.287 . S
C619 C618 1.287 . S
C619 C620 1.524 1_655 S
C619 H622 0.999 . S
C620 H590 0.950 . S
C620 C619 1.524 1_455 S
C620 C621 1.415 . S
C621 H591 0.950 . S
C621 C616 1.363 1_455 S
C621 C620 1.415 . S
H622 C619 0.999 . S
H623 C604 0.913 . S
H624 C642 0.951 . S
H625 C644 0.951 . S
H626 C646 0.950 . S
H627 C647 0.950 . S
H628 C649 0.950 . S
H629 C652 0.950 . S
H630 C653 0.950 . S
H631 C655 0.950 . S
H632 C656 0.950 . S
H633 C657 0.951 . S
H634 C659 0.951 . S
H635 C661 0.950 . S
H636 C662 0.950 . S
H637 C664 0.950 . S
H638 C667 0.950 . S
H639 C668 0.950 . S
H640 C670 0.950 . S
H641 C671 0.950 . S
C642 H624 0.951 . S
C642 C643 1.366 . S
C642 C644 1.388 . S
C643 C642 1.366 . S
C643 C647 1.385 . S
C644 H625 0.951 . S
C644 C642 1.388 . S
C644 C645 1.366 . S
C645 C644 1.366 . S
C645 C646 1.414 . S
C645 C648 1.499 . S
C646 H626 0.950 . S
C646 C645 1.414 . S
C646 C647 1.374 . S
C647 H627 0.950 . S
C647 C643 1.385 . S
C647 C646 1.374 . S
C648 C645 1.499 . S
C648 C649 1.373 . S
C648 C650 1.389 . S
C649 H628 0.950 . S
C649 C648 1.373 . S
C649 C665 1.377 . S
C650 C648 1.389 . S
C650 C651 1.524 . S
C650 C664 1.377 . S
C651 C650 1.524 . S
C651 C652 1.397 . S
C651 C656 1.363 . S
C652 H629 0.950 . S
C652 C651 1.397 . S
C652 C653 1.334 . S
C653 H630 0.950 . S
C653 C652 1.334 . S
C653 C654 1.287 . S
C654 C653 1.287 . S
C654 C655 1.524 . S
C654 H673 0.913 . S
C655 H631 0.950 . S
C655 C654 1.524 . S
C655 C656 1.415 . S
C656 H632 0.950 . S
C656 C651 1.363 . S
C656 C655 1.415 . S
C657 H633 0.951 . S
C657 C658 1.366 . S
C657 C659 1.388 . S
C658 C657 1.366 . S
C658 C662 1.385 . S
C659 H634 0.951 . S
C659 C657 1.388 . S
C659 C660 1.366 . S
C660 C659 1.366 . S
C660 C661 1.414 . S
C660 C663 1.499 . S
C661 H635 0.950 . S
C661 C660 1.414 . S
C661 C662 1.374 . S
C662 H636 0.950 . S
C662 C658 1.385 . S
C662 C661 1.374 . S
C663 C660 1.499 . S
C663 C664 1.373 . S
C663 C665 1.389 . S
C664 H637 0.950 . S
C664 C650 1.377 . S
C664 C663 1.373 . S
C665 C649 1.377 . S
C665 C663 1.389 . S
C665 C666 1.524 . S
C666 C665 1.524 . S
C666 C667 1.397 . S
C666 C671 1.363 . S
C667 H638 0.950 . S
C667 C666 1.397 . S
C667 C668 1.334 . S
C668 H639 0.950 . S
C668 C667 1.334 . S
C668 C669 1.287 . S
C669 C668 1.287 . S
C669 C670 1.524 . S
C669 H672 0.999 . S
C670 H640 0.950 . S
C670 C669 1.524 . S
C670 C671 1.415 . S
C671 H641 0.950 . S
C671 C666 1.363 . S
C671 C670 1.415 . S
H672 C669 0.999 . S
H673 C654 0.913 . S
H674 C692 0.951 . S
H675 C694 0.951 . S
H676 C696 0.950 . S
H677 C697 0.950 . S
H678 C699 0.950 . S
H679 C702 0.950 . S
H680 C703 0.950 . S
H681 C705 0.950 . S
H682 C706 0.950 . S
H683 C707 0.951 . S
H684 C709 0.951 . S
H685 C711 0.950 . S
H686 C712 0.950 . S
H687 C714 0.950 . S
H688 C717 0.950 . S
H689 C718 0.950 . S
H690 C720 0.950 . S
H691 C721 0.950 . S
C692 H674 0.951 . S
C692 C693 1.366 . S
C692 C694 1.388 . S
C693 C692 1.366 . S
C693 C697 1.385 . S
C694 H675 0.951 . S
C694 C692 1.388 . S
C694 C695 1.366 . S
C695 C694 1.366 . S
C695 C696 1.414 . S
C695 C698 1.499 . S
C696 H676 0.950 . S
C696 C695 1.414 . S
C696 C697 1.374 . S
C697 H677 0.950 . S
C697 C693 1.385 . S
C697 C696 1.374 . S
C698 C695 1.499 . S
C698 C699 1.373 . S
C698 C700 1.389 . S
C699 H678 0.950 . S
C699 C698 1.373 . S
C699 C715 1.377 . S
C700 C698 1.389 . S
C700 C701 1.524 . S
C700 C714 1.377 . S
C701 C700 1.524 . S
C701 C702 1.397 . S
C701 C706 1.363 . S
C702 H679 0.950 . S
C702 C701 1.397 . S
C702 C703 1.334 . S
C703 H680 0.950 . S
C703 C702 1.334 . S
C703 C704 1.287 . S
C704 C703 1.287 . S
C704 C705 1.524 . S
C704 H723 0.913 . S
C705 H681 0.950 . S
C705 C704 1.524 . S
C705 C706 1.415 . S
C706 H682 0.950 . S
C706 C701 1.363 . S
C706 C705 1.415 . S
C707 H683 0.951 . S
C707 C708 1.366 . S
C707 C709 1.388 . S
C708 C707 1.366 . S
C708 C712 1.385 . S
C709 H684 0.951 . S
C709 C707 1.388 . S
C709 C710 1.366 . S
C710 C709 1.366 . S
C710 C711 1.414 . S
C710 C713 1.499 . S
C711 H685 0.950 . S
C711 C710 1.414 . S
C711 C712 1.374 . S
C712 H686 0.950 . S
C712 C708 1.385 . S
C712 C711 1.374 . S
C713 C710 1.499 . S
C713 C714 1.373 . S
C713 C715 1.389 . S
C714 H687 0.950 . S
C714 C700 1.377 . S
C714 C713 1.373 . S
C715 C699 1.377 . S
C715 C713 1.389 . S
C715 C716 1.524 . S
C716 C715 1.524 . S
C716 C717 1.397 . S
C716 C721 1.363 . S
C717 H688 0.950 . S
C717 C716 1.397 . S
C717 C718 1.334 . S
C718 H689 0.950 . S
C718 C717 1.334 . S
C718 C719 1.287 . S
C719 C718 1.287 . S
C719 C720 1.524 . S
C719 H722 0.999 . S
C720 H690 0.950 . S
C720 C719 1.524 . S
C720 C721 1.415 . S
C721 H691 0.950 . S
C721 C716 1.363 . S
C721 C720 1.415 . S
H722 C719 0.999 . S
H723 C704 0.913 . S
H724 C742 0.951 . S
H725 C744 0.951 . S
H726 C746 0.950 . S
H727 C747 0.950 . S
H728 C749 0.950 . S
H729 C752 0.950 . S
H730 C753 0.950 . S
H731 C755 0.950 . S
H732 C756 0.950 . S
H733 C757 0.951 . S
H734 C759 0.951 . S
H735 C761 0.950 . S
H736 C762 0.950 . S
H737 C764 0.950 . S
H738 C767 0.950 . S
H739 C768 0.950 . S
H740 C770 0.950 . S
H741 C771 0.950 . S
C742 H724 0.951 . S
C742 C743 1.366 . S
C742 C744 1.388 . S
C743 C742 1.366 . S
C743 C747 1.385 . S
C744 H725 0.951 . S
C744 C742 1.388 . S
C744 C745 1.366 . S
C745 C744 1.366 . S
C745 C746 1.414 . S
C745 C748 1.499 . S
C746 H726 0.950 . S
C746 C745 1.414 . S
C746 C747 1.374 . S
C747 H727 0.950 . S
C747 C743 1.385 . S
C747 C746 1.374 . S
C748 C745 1.499 . S
C748 C749 1.373 . S
C748 C750 1.389 . S
C749 H728 0.950 . S
C749 C748 1.373 . S
C749 C765 1.377 . S
C750 C748 1.389 . S
C750 C751 1.524 . S
C750 C764 1.377 . S
C751 C750 1.524 . S
C751 C752 1.397 . S
C751 C756 1.363 . S
C752 H729 0.950 . S
C752 C751 1.397 . S
C752 C753 1.334 . S
C753 H730 0.950 . S
C753 C752 1.334 . S
C753 C754 1.287 . S
C754 C753 1.287 . S
C754 C755 1.524 . S
C754 H773 0.913 . S
C755 H731 0.950 . S
C755 C754 1.524 . S
C755 C756 1.415 . S
C756 H732 0.950 . S
C756 C751 1.363 . S
C756 C755 1.415 . S
C757 H733 0.951 . S
C757 C758 1.366 . S
C757 C759 1.388 . S
C758 C757 1.366 . S
C758 C762 1.385 . S
C759 H734 0.951 . S
C759 C757 1.388 . S
C759 C760 1.366 . S
C760 C759 1.366 . S
C760 C761 1.414 . S
C760 C763 1.499 . S
C761 H735 0.950 . S
C761 C760 1.414 . S
C761 C762 1.374 . S
C762 H736 0.950 . S
C762 C758 1.385 . S
C762 C761 1.374 . S
C763 C760 1.499 . S
C763 C764 1.373 . S
C763 C765 1.389 . S
C764 H737 0.950 . S
C764 C750 1.377 . S
C764 C763 1.373 . S
C765 C749 1.377 . S
C765 C763 1.389 . S
C765 C766 1.524 . S
C766 C765 1.524 . S
C766 C767 1.397 . S
C766 C771 1.363 . S
C767 H738 0.950 . S
C767 C766 1.397 . S
C767 C768 1.334 . S
C768 H739 0.950 . S
C768 C767 1.334 . S
C768 C769 1.287 . S
C769 C768 1.287 . S
C769 C770 1.524 . S
C769 H772 0.999 . S
C770 H740 0.950 . S
C770 C769 1.524 . S
C770 C771 1.415 . S
C771 H741 0.950 . S
C771 C766 1.363 . S
C771 C770 1.415 . S
H772 C769 0.999 . S
H773 C754 0.913 . S
H774 C792 0.951 . S
H775 C794 0.951 . S
H776 C796 0.950 . S
H777 C797 0.950 . S
H778 C799 0.950 . S
H779 C802 0.950 . S
H780 C803 0.950 . S
H781 C805 0.950 . S
H782 C806 0.950 . S
H783 C807 0.951 . S
H784 C809 0.951 . S
H785 C811 0.950 . S
H786 C812 0.950 . S
H787 C814 0.950 . S
H788 C817 0.950 . S
H789 C818 0.950 . S
H790 C820 0.950 . S
H791 C821 0.950 . S
C792 H774 0.951 . S
C792 C793 1.366 . S
C792 C794 1.388 . S
C793 C792 1.366 . S
C793 C797 1.385 . S
C794 H775 0.951 . S
C794 C792 1.388 . S
C794 C795 1.366 . S
C795 C794 1.366 . S
C795 C796 1.414 . S
C795 C798 1.499 . S
C796 H776 0.950 . S
C796 C795 1.414 . S
C796 C797 1.374 . S
C797 H777 0.950 . S
C797 C793 1.385 . S
C797 C796 1.374 . S
C798 C795 1.499 . S
C798 C799 1.373 . S
C798 C800 1.389 . S
C799 H778 0.950 . S
C799 C798 1.373 . S
C799 C815 1.377 . S
C800 C798 1.389 . S
C800 C801 1.524 . S
C800 C814 1.377 . S
C801 C800 1.524 . S
C801 C802 1.397 . S
C801 C806 1.363 . S
C802 H779 0.950 . S
C802 C801 1.397 . S
C802 C803 1.334 . S
C803 H780 0.950 . S
C803 C802 1.334 . S
C803 C804 1.287 . S
C804 C803 1.287 . S
C804 C805 1.524 . S
C804 H823 0.913 . S
C805 H781 0.950 . S
C805 C804 1.524 . S
C805 C806 1.415 . S
C806 H782 0.950 . S
C806 C801 1.363 . S
C806 C805 1.415 . S
C807 H783 0.951 . S
C807 C808 1.366 . S
C807 C809 1.388 . S
C808 C807 1.366 . S
C808 C812 1.385 . S
C809 H784 0.951 . S
C809 C807 1.388 . S
C809 C810 1.366 . S
C810 C809 1.366 . S
C810 C811 1.414 . S
C810 C813 1.499 . S
C811 H785 0.950 . S
C811 C810 1.414 . S
C811 C812 1.374 . S
C812 H786 0.950 . S
C812 C808 1.385 . S
C812 C811 1.374 . S
C813 C810 1.499 . S
C813 C814 1.373 . S
C813 C815 1.389 . S
C814 H787 0.950 . S
C814 C800 1.377 . S
C814 C813 1.373 . S
C815 C799 1.377 . S
C815 C813 1.389 . S
C815 C816 1.524 . S
C816 C815 1.524 . S
C816 C817 1.397 . S
C816 C821 1.363 . S
C817 H788 0.950 . S
C817 C816 1.397 . S
C817 C818 1.334 . S
C818 H789 0.950 . S
C818 C817 1.334 . S
C818 C819 1.287 . S
C819 C818 1.287 . S
C819 C820 1.524 . S
C819 H822 0.999 . S
C820 H790 0.950 . S
C820 C819 1.524 . S
C820 C821 1.415 . S
C821 H791 0.950 . S
C821 C816 1.363 . S
C821 C820 1.415 . S
H822 C819 0.999 . S
H823 C804 0.913 . S
H824 C842 0.951 . S
H825 C844 0.951 . S
H826 C846 0.950 . S
H827 C847 0.950 . S
H828 C849 0.950 . S
H829 C852 0.950 . S
H830 C853 0.950 . S
H831 C855 0.950 . S
H832 C856 0.950 1_556 S
H833 C857 0.951 . S
H834 C859 0.951 . S
H835 C861 0.950 . S
H836 C862 0.950 . S
H837 C864 0.950 . S
H838 C867 0.950 . S
H839 C868 0.950 . S
H840 C870 0.950 1_554 S
H841 C871 0.950 . S
C842 H824 0.951 . S
C842 C843 1.366 . S
C842 C844 1.388 . S
C843 C842 1.366 . S
C843 C847 1.385 . S
C844 H825 0.951 . S
C844 C842 1.388 . S
C844 C845 1.366 . S
C845 C844 1.366 . S
C845 C846 1.414 . S
C845 C848 1.499 . S
C846 H826 0.950 . S
C846 C845 1.414 . S
C846 C847 1.374 . S
C847 H827 0.950 . S
C847 C843 1.385 . S
C847 C846 1.374 . S
C848 C845 1.499 . S
C848 C849 1.373 . S
C848 C850 1.389 . S
C849 H828 0.950 . S
C849 C848 1.373 . S
C849 C865 1.387 . S
C850 C848 1.389 . S
C850 C851 1.524 . S
C850 C864 1.377 1_554 S
C851 C850 1.524 . S
C851 C852 1.397 . S
C851 C856 1.363 . S
C852 H829 0.950 . S
C852 C851 1.397 . S
C852 C853 1.334 . S
C853 H830 0.950 . S
C853 C852 1.334 . S
C853 C854 1.287 . S
C854 C853 1.287 . S
C854 C855 1.524 . S
C854 H873 0.913 . S
C855 H831 0.950 . S
C855 C854 1.524 . S
C855 C856 1.415 . S
C856 H832 0.950 1_554 S
C856 C851 1.363 . S
C856 C855 1.415 . S
C857 H833 0.951 . S
C857 C858 1.366 . S
C857 C859 1.388 . S
C858 C857 1.366 . S
C858 C862 1.385 . S
C859 H834 0.951 . S
C859 C857 1.388 . S
C859 C860 1.366 . S
C860 C859 1.366 . S
C860 C861 1.414 . S
C860 C863 1.499 . S
C861 H835 0.950 . S
C861 C860 1.414 . S
C861 C862 1.374 . S
C862 H836 0.950 . S
C862 C858 1.385 . S
C862 C861 1.374 . S
C863 C860 1.499 . S
C863 C864 1.373 . S
C863 C865 1.383 1_556 S
C864 H837 0.950 . S
C864 C850 1.377 1_556 S
C864 C863 1.373 . S
C865 C849 1.387 . S
C865 C863 1.383 1_554 S
C865 C866 1.520 1_554 S
C866 C865 1.520 1_556 S
C866 C867 1.397 . S
C866 C871 1.363 1_556 S
C867 H838 0.950 . S
C867 C866 1.397 . S
C867 C868 1.334 . S
C868 H839 0.950 . S
C868 C867 1.334 . S
C868 C869 1.287 . S
C869 C868 1.287 . S
C869 C870 1.524 . S
C869 H872 0.999 . S
C870 H840 0.950 1_556 S
C870 C869 1.524 . S
C870 C871 1.415 1_556 S
C871 H841 0.950 . S
C871 C866 1.363 1_554 S
C871 C870 1.415 1_554 S
H872 C869 0.999 . S
H873 C854 0.913 . S
H874 C892 0.951 . S
H875 C894 0.951 . S
H876 C896 0.950 . S
H877 C897 0.950 . S
H878 C899 0.950 . S
H879 C902 0.950 . S
H880 C903 0.950 . S
H881 C905 0.950 . S
H882 C906 0.950 . S
H883 C907 0.951 . S
H884 C909 0.951 . S
H885 C911 0.950 . S
H886 C912 0.950 . S
H887 C914 0.950 . S
H888 C917 0.950 . S
H889 C918 0.950 . S
H890 C920 0.950 . S
H891 C921 0.950 . S
C892 H874 0.951 . S
C892 C893 1.366 . S
C892 C894 1.388 . S
C893 C892 1.366 . S
C893 C897 1.385 . S
C894 H875 0.951 . S
C894 C892 1.388 . S
C894 C895 1.366 . S
C895 C894 1.366 . S
C895 C896 1.414 . S
C895 C898 1.499 . S
C896 H876 0.950 . S
C896 C895 1.414 . S
C896 C897 1.374 . S
C897 H877 0.950 . S
C897 C893 1.385 . S
C897 C896 1.374 . S
C898 C895 1.499 . S
C898 C899 1.373 . S
C898 C900 1.389 1_455 S
C899 H878 0.950 . S
C899 C898 1.373 . S
C899 C915 1.377 . S
C900 C898 1.389 1_655 S
C900 C901 1.524 . S
C900 C914 1.377 . S
C901 C900 1.524 . S
C901 C902 1.397 . S
C901 C906 1.363 . S
C902 H879 0.950 . S
C902 C901 1.397 . S
C902 C903 1.334 . S
C903 H880 0.950 . S
C903 C902 1.334 . S
C903 C904 1.287 . S
C904 C903 1.287 . S
C904 C905 1.524 . S
C904 H923 0.913 . S
C905 H881 0.950 . S
C905 C904 1.524 . S
C905 C906 1.415 . S
C906 H882 0.950 . S
C906 C901 1.363 . S
C906 C905 1.415 . S
C907 H883 0.951 . S
C907 C908 1.366 . S
C907 C909 1.388 . S
C908 C907 1.366 . S
C908 C912 1.385 . S
C909 H884 0.951 . S
C909 C907 1.388 . S
C909 C910 1.366 . S
C910 C909 1.366 . S
C910 C911 1.414 . S
C910 C913 1.499 . S
C911 H885 0.950 . S
C911 C910 1.414 . S
C911 C912 1.374 . S
C912 H886 0.950 . S
C912 C908 1.385 . S
C912 C911 1.374 . S
C913 C910 1.499 . S
C913 C914 1.373 . S
C913 C915 1.389 1_655 S
C914 H887 0.950 . S
C914 C900 1.377 . S
C914 C913 1.373 . S
C915 C899 1.377 . S
C915 C913 1.389 1_455 S
C915 C916 1.524 . S
C916 C915 1.524 . S
C916 C917 1.397 . S
C916 C921 1.363 . S
C917 H888 0.950 . S
C917 C916 1.397 . S
C917 C918 1.334 . S
C918 H889 0.950 . S
C918 C917 1.334 . S
C918 C919 1.287 . S
C919 C918 1.287 . S
C919 C920 1.524 . S
C919 H922 0.999 . S
C920 H890 0.950 . S
C920 C919 1.524 . S
C920 C921 1.415 . S
C921 H891 0.950 . S
C921 C916 1.363 . S
C921 C920 1.415 . S
H922 C919 0.999 . S
H923 C904 0.913 . S
H924 C942 0.951 . S
H925 C944 0.951 . S
H926 C946 0.950 . S
H927 C947 0.950 . S
H928 C949 0.950 . S
H929 C952 0.950 . S
H930 C953 0.950 . S
H931 C955 0.950 . S
H932 C956 0.950 . S
H933 C957 0.951 . S
H934 C959 0.951 . S
H935 C961 0.950 . S
H936 C962 0.950 . S
H937 C964 0.950 . S
H938 C967 0.950 . S
H939 C968 0.950 . S
H940 C970 0.950 . S
H941 C971 0.950 . S
C942 H924 0.951 . S
C942 C943 1.366 . S
C942 C944 1.388 . S
C943 C942 1.366 . S
C943 C947 1.385 . S
C944 H925 0.951 . S
C944 C942 1.388 . S
C944 C945 1.366 . S
C945 C944 1.366 . S
C945 C946 1.414 . S
C945 C948 1.499 . S
C946 H926 0.950 . S
C946 C945 1.414 . S
C946 C947 1.374 . S
C947 H927 0.950 . S
C947 C943 1.385 . S
C947 C946 1.374 . S
C948 C945 1.499 . S
C948 C949 1.373 . S
C948 C950 1.389 1_455 S
C949 H928 0.950 . S
C949 C948 1.373 . S
C949 C965 1.377 1_554 S
C950 C948 1.389 1_655 S
C950 C951 1.524 . S
C950 C964 1.377 . S
C951 C950 1.524 . S
C951 C952 1.397 1_655 S
C951 C956 1.363 . S
C952 H929 0.950 . S
C952 C951 1.397 1_455 S
C952 C953 1.334 . S
C953 H930 0.950 . S
C953 C952 1.334 . S
C953 C954 1.287 1_455 S
C954 C953 1.287 1_655 S
C954 C955 1.524 . S
C954 H973 0.913 . S
C955 H931 0.950 . S
C955 C954 1.524 . S
C955 C956 1.415 . S
C956 H932 0.950 . S
C956 C951 1.363 . S
C956 C955 1.415 . S
C957 H933 0.951 . S
C957 C958 1.366 . S
C957 C959 1.388 . S
C958 C957 1.366 . S
C958 C962 1.385 . S
C959 H934 0.951 . S
C959 C957 1.388 . S
C959 C960 1.366 . S
C960 C959 1.366 . S
C960 C961 1.414 . S
C960 C963 1.499 . S
C961 H935 0.950 . S
C961 C960 1.414 . S
C961 C962 1.374 . S
C962 H936 0.950 . S
C962 C958 1.385 . S
C962 C961 1.374 . S
C963 C960 1.499 . S
C963 C964 1.373 1_556 S
C963 C965 1.389 1_655 S
C964 H937 0.950 . S
C964 C950 1.377 . S
C964 C963 1.373 1_554 S
C965 C949 1.377 1_556 S
C965 C963 1.389 1_455 S
C965 C966 1.524 . S
C966 C965 1.524 . S
C966 C967 1.397 1_455 S
C966 C971 1.363 . S
C967 H938 0.950 . S
C967 C966 1.397 1_655 S
C967 C968 1.334 . S
C968 H939 0.950 . S
C968 C967 1.334 . S
C968 C969 1.287 1_655 S
C969 C968 1.287 1_455 S
C969 C970 1.524 . S
C969 H972 0.999 . S
C970 H940 0.950 . S
C970 C969 1.524 . S
C970 C971 1.415 . S
C971 H941 0.950 . S
C971 C966 1.363 . S
C971 C970 1.415 . S
H972 C969 0.999 . S
H973 C954 0.913 . S
H974 C992 0.951 . S
H975 C994 0.951 . S
H976 C996 0.950 . S
H977 C997 0.950 . S
H978 C999 0.950 . S
H979 C1002 0.950 . S
H980 C1003 0.950 . S
H981 C1005 0.950 . S
H982 C1006 0.950 . S
H983 C1007 0.951 . S
H984 C1009 0.951 . S
H985 C1011 0.950 . S
H986 C1012 0.950 . S
H987 C1014 0.950 . S
H988 C1017 0.950 . S
H989 C1018 0.950 . S
H990 C1020 0.950 . S
H991 C1021 0.950 . S
C992 H974 0.951 . S
C992 C993 1.366 . S
C992 C994 1.388 . S
C993 C992 1.366 . S
C993 C997 1.385 . S
C994 H975 0.951 . S
C994 C992 1.388 . S
C994 C995 1.366 . S
C995 C994 1.366 . S
C995 C996 1.414 . S
C995 C998 1.499 . S
C996 H976 0.950 . S
C996 C995 1.414 . S
C996 C997 1.374 . S
C997 H977 0.950 . S
C997 C993 1.385 . S
C997 C996 1.374 . S
C998 C995 1.499 . S
C998 C999 1.373 . S
C998 C1000 1.389 . S
C999 H978 0.950 . S
C999 C998 1.373 . S
C999 C1015 1.377 . S
C1000 C998 1.389 . S
C1000 C1001 1.524 . S
C1000 C1014 1.377 . S
C1001 C1000 1.524 . S
C1001 C1002 1.397 . S
C1001 C1006 1.363 . S
C1002 H979 0.950 . S
C1002 C1001 1.397 . S
C1002 C1003 1.334 . S
C1003 H980 0.950 . S
C1003 C1002 1.334 . S
C1003 C1004 1.287 . S
C1004 C1003 1.287 . S
C1004 C1005 1.524 . S
C1004 H1023 0.913 . S
C1005 H981 0.950 . S
C1005 C1004 1.524 . S
C1005 C1006 1.415 . S
C1006 H982 0.950 . S
C1006 C1001 1.363 . S
C1006 C1005 1.415 . S
C1007 H983 0.951 . S
C1007 C1008 1.366 . S
C1007 C1009 1.388 . S
C1008 C1007 1.366 . S
C1008 C1012 1.385 . S
C1009 H984 0.951 . S
C1009 C1007 1.388 . S
C1009 C1010 1.366 . S
C1010 C1009 1.366 . S
C1010 C1011 1.414 . S
C1010 C1013 1.499 . S
C1011 H985 0.950 . S
C1011 C1010 1.414 . S
C1011 C1012 1.374 . S
C1012 H986 0.950 . S
C1012 C1008 1.385 . S
C1012 C1011 1.374 . S
C1013 C1010 1.499 . S
C1013 C1014 1.373 . S
C1013 C1015 1.389 . S
C1014 H987 0.950 . S
C1014 C1000 1.377 . S
C1014 C1013 1.373 . S
C1015 C999 1.377 . S
C1015 C1013 1.389 . S
C1015 C1016 1.524 . S
C1016 C1015 1.524 . S
C1016 C1017 1.397 . S
C1016 C1021 1.363 . S
C1017 H988 0.950 . S
C1017 C1016 1.397 . S
C1017 C1018 1.334 . S
C1018 H989 0.950 . S
C1018 C1017 1.334 . S
C1018 C1019 1.287 . S
C1019 C1018 1.287 . S
C1019 C1020 1.524 . S
C1019 H1022 0.999 . S
C1020 H990 0.950 . S
C1020 C1019 1.524 . S
C1020 C1021 1.415 . S
C1021 H991 0.950 . S
C1021 C1016 1.363 . S
C1021 C1020 1.415 . S
H1022 C1019 0.999 . S
H1023 C1004 0.913 . S
H1024 C1042 0.951 . S
H1025 C1044 0.951 . S
H1026 C1046 0.950 . S
H1027 C1047 0.950 . S
H1028 C1049 0.950 . S
H1029 C1052 0.950 . S
H1030 C1053 0.950 . S
H1031 C1055 0.950 . S
H1032 C1056 0.950 . S
H1033 C1057 0.951 . S
H1034 C1059 0.951 . S
H1035 C1061 0.950 . S
H1036 C1062 0.950 . S
H1037 C1064 0.950 . S
H1038 C1067 0.950 . S
H1039 C1068 0.950 . S
H1040 C1070 0.950 . S
H1041 C1071 0.950 . S
C1042 H1024 0.951 . S
C1042 C1043 1.366 . S
C1042 C1044 1.388 . S
C1043 C1042 1.366 . S
C1043 C1047 1.385 . S
C1044 H1025 0.951 . S
C1044 C1042 1.388 . S
C1044 C1045 1.366 . S
C1045 C1044 1.366 . S
C1045 C1046 1.414 . S
C1045 C1048 1.499 . S
C1046 H1026 0.950 . S
C1046 C1045 1.414 . S
C1046 C1047 1.374 . S
C1047 H1027 0.950 . S
C1047 C1043 1.385 . S
C1047 C1046 1.374 . S
C1048 C1045 1.499 . S
C1048 C1049 1.373 . S
C1048 C1050 1.389 . S
C1049 H1028 0.950 . S
C1049 C1048 1.373 . S
C1049 C1065 1.377 . S
C1050 C1048 1.389 . S
C1050 C1051 1.524 . S
C1050 C1064 1.377 . S
C1051 C1050 1.524 . S
C1051 C1052 1.397 . S
C1051 C1056 1.363 . S
C1052 H1029 0.950 . S
C1052 C1051 1.397 . S
C1052 C1053 1.334 . S
C1053 H1030 0.950 . S
C1053 C1052 1.334 . S
C1053 C1054 1.287 . S
C1054 C1053 1.287 . S
C1054 C1055 1.524 . S
C1054 H1073 0.913 . S
C1055 H1031 0.950 . S
C1055 C1054 1.524 . S
C1055 C1056 1.415 . S
C1056 H1032 0.950 . S
C1056 C1051 1.363 . S
C1056 C1055 1.415 . S
C1057 H1033 0.951 . S
C1057 C1058 1.366 . S
C1057 C1059 1.388 . S
C1058 C1057 1.366 . S
C1058 C1062 1.385 . S
C1059 H1034 0.951 . S
C1059 C1057 1.388 . S
C1059 C1060 1.366 . S
C1060 C1059 1.366 . S
C1060 C1061 1.414 . S
C1060 C1063 1.499 . S
C1061 H1035 0.950 . S
C1061 C1060 1.414 . S
C1061 C1062 1.374 . S
C1062 H1036 0.950 . S
C1062 C1058 1.385 . S
C1062 C1061 1.374 . S
C1063 C1060 1.499 . S
C1063 C1064 1.373 . S
C1063 C1065 1.389 . S
C1064 H1037 0.950 . S
C1064 C1050 1.377 . S
C1064 C1063 1.373 . S
C1065 C1049 1.377 . S
C1065 C1063 1.389 . S
C1065 C1066 1.524 . S
C1066 C1065 1.524 . S
C1066 C1067 1.397 . S
C1066 C1071 1.363 . S
C1067 H1038 0.950 . S
C1067 C1066 1.397 . S
C1067 C1068 1.334 1_554 S
C1068 H1039 0.950 . S
C1068 C1067 1.334 1_556 S
C1068 C1069 1.287 . S
C1069 C1068 1.287 . S
C1069 C1070 1.524 1_556 S
C1069 H1072 0.999 . S
C1070 H1040 0.950 . S
C1070 C1069 1.524 1_554 S
C1070 C1071 1.415 . S
C1071 H1041 0.950 . S
C1071 C1066 1.363 . S
C1071 C1070 1.415 . S
H1072 C1069 0.999 . S
H1073 C1054 0.913 . S
H1074 C1092 0.951 . S
H1075 C1094 0.951 . S
H1076 C1096 0.950 . S
H1077 C1097 0.950 . S
H1078 C1099 0.950 . S
H1079 C1102 0.950 . S
H1080 C1103 0.950 . S
H1081 C1105 0.950 . S
H1082 C1106 0.950 . S
H1083 C1107 0.951 . S
H1084 C1109 0.951 . S
H1085 C1111 0.950 . S
H1086 C1112 0.950 . S
H1087 C1114 0.950 . S
H1088 C1117 0.950 . S
H1089 C1118 0.950 1_545 S
H1090 C1120 0.950 . S
H1091 C1121 0.950 . S
C1092 H1074 0.951 . S
C1092 C1093 1.366 . S
C1092 C1094 1.388 . S
C1093 C1092 1.366 . S
C1093 C1097 1.385 . S
C1094 H1075 0.951 . S
C1094 C1092 1.388 . S
C1094 C1095 1.366 . S
C1095 C1094 1.366 . S
C1095 C1096 1.414 . S
C1095 C1098 1.499 . S
C1096 H1076 0.950 . S
C1096 C1095 1.414 . S
C1096 C1097 1.374 . S
C1097 H1077 0.950 . S
C1097 C1093 1.385 . S
C1097 C1096 1.374 . S
C1098 C1095 1.499 . S
C1098 C1099 1.373 . S
C1098 C1100 1.389 . S
C1099 H1078 0.950 . S
C1099 C1098 1.373 . S
C1099 C1115 1.377 . S
C1100 C1098 1.389 . S
C1100 C1101 1.524 . S
C1100 C1114 1.377 . S
C1101 C1100 1.524 . S
C1101 C1102 1.397 . S
C1101 C1106 1.363 . S
C1102 H1079 0.950 . S
C1102 C1101 1.397 . S
C1102 C1103 1.334 . S
C1103 H1080 0.950 . S
C1103 C1102 1.334 . S
C1103 C1104 1.287 . S
C1104 C1103 1.287 . S
C1104 C1105 1.524 . S
C1104 H1123 0.913 . S
C1105 H1081 0.950 . S
C1105 C1104 1.524 . S
C1105 C1106 1.415 . S
C1106 H1082 0.950 . S
C1106 C1101 1.363 . S
C1106 C1105 1.415 . S
C1107 H1083 0.951 . S
C1107 C1108 1.366 . S
C1107 C1109 1.388 . S
C1108 C1107 1.366 . S
C1108 C1112 1.385 . S
C1109 H1084 0.951 . S
C1109 C1107 1.388 . S
C1109 C1110 1.366 . S
C1110 C1109 1.366 . S
C1110 C1111 1.414 . S
C1110 C1113 1.499 . S
C1111 H1085 0.950 . S
C1111 C1110 1.414 . S
C1111 C1112 1.374 . S
C1112 H1086 0.950 . S
C1112 C1108 1.385 . S
C1112 C1111 1.374 . S
C1113 C1110 1.499 . S
C1113 C1114 1.373 . S
C1113 C1115 1.389 . S
C1114 H1087 0.950 . S
C1114 C1100 1.377 . S
C1114 C1113 1.373 . S
C1115 C1099 1.377 . S
C1115 C1113 1.389 . S
C1115 C1116 1.524 . S
C1116 C1115 1.524 . S
C1116 C1117 1.397 . S
C1116 C1121 1.363 . S
C1117 H1088 0.950 . S
C1117 C1116 1.397 . S
C1117 C1118 1.334 . S
C1118 H1089 0.950 1_565 S
C1118 C1117 1.334 . S
C1118 C1119 1.298 . S
C1119 C1118 1.298 . S
C1119 C1120 1.544 . S
C1119 H1122 0.965 1_565 S
C1120 H1090 0.950 . S
C1120 C1119 1.544 . S
C1120 C1121 1.415 . S
C1121 H1091 0.950 . S
C1121 C1116 1.363 . S
C1121 C1120 1.415 . S
H1122 C1119 0.965 1_545 S
H1123 C1104 0.913 . S
H1124 C1142 0.951 . S
H1125 C1144 0.951 . S
H1126 C1146 0.950 . S
H1127 C1147 0.950 . S
H1128 C1149 0.950 . S
H1129 C1152 0.950 . S
H1130 C1153 0.950 . S
H1131 C1155 0.950 . S
H1132 C1156 0.950 . S
H1133 C1157 0.951 . S
H1134 C1159 0.951 . S
H1135 C1161 0.950 . S
H1136 C1162 0.950 . S
H1137 C1164 0.950 . S
H1138 C1167 0.950 . S
H1139 C1168 0.950 . S
H1140 C1170 0.950 . S
H1141 C1171 0.950 . S
C1142 H1124 0.951 . S
C1142 C1143 1.366 . S
C1142 C1144 1.388 . S
C1143 C1142 1.366 . S
C1143 C1147 1.385 . S
C1144 H1125 0.951 . S
C1144 C1142 1.388 . S
C1144 C1145 1.366 . S
C1145 C1144 1.366 . S
C1145 C1146 1.414 . S
C1145 C1148 1.499 . S
C1146 H1126 0.950 . S
C1146 C1145 1.414 . S
C1146 C1147 1.374 . S
C1147 H1127 0.950 . S
C1147 C1143 1.385 . S
C1147 C1146 1.374 . S
C1148 C1145 1.499 . S
C1148 C1149 1.373 . S
C1148 C1150 1.389 . S
C1149 H1128 0.950 . S
C1149 C1148 1.373 . S
C1149 C1165 1.377 . S
C1150 C1148 1.389 . S
C1150 C1151 1.524 . S
C1150 C1164 1.377 . S
C1151 C1150 1.524 . S
C1151 C1152 1.397 . S
C1151 C1156 1.363 . S
C1152 H1129 0.950 . S
C1152 C1151 1.397 . S
C1152 C1153 1.334 . S
C1153 H1130 0.950 . S
C1153 C1152 1.334 . S
C1153 C1154 1.287 . S
C1154 C1153 1.287 . S
C1154 C1155 1.524 . S
C1154 H1173 0.913 . S
C1155 H1131 0.950 . S
C1155 C1154 1.524 . S
C1155 C1156 1.415 . S
C1156 H1132 0.950 . S
C1156 C1151 1.363 . S
C1156 C1155 1.415 . S
C1157 H1133 0.951 . S
C1157 C1158 1.366 . S
C1157 C1159 1.388 . S
C1158 C1157 1.366 . S
C1158 C1162 1.385 . S
C1159 H1134 0.951 . S
C1159 C1157 1.388 . S
C1159 C1160 1.366 . S
C1160 C1159 1.366 . S
C1160 C1161 1.414 . S
C1160 C1163 1.499 . S
C1161 H1135 0.950 . S
C1161 C1160 1.414 . S
C1161 C1162 1.374 . S
C1162 H1136 0.950 . S
C1162 C1158 1.385 . S
C1162 C1161 1.374 . S
C1163 C1160 1.499 . S
C1163 C1164 1.373 . S
C1163 C1165 1.389 . S
C1164 H1137 0.950 . S
C1164 C1150 1.377 . S
C1164 C1163 1.373 . S
C1165 C1149 1.377 . S
C1165 C1163 1.389 . S
C1165 C1166 1.524 . S
C1166 C1165 1.524 . S
C1166 C1167 1.397 . S
C1166 C1171 1.363 . S
C1167 H1138 0.950 . S
C1167 C1166 1.397 . S
C1167 C1168 1.334 . S
C1168 H1139 0.950 . S
C1168 C1167 1.334 . S
C1168 C1169 1.287 . S
C1169 C1168 1.287 . S
C1169 C1170 1.524 . S
C1169 H1172 0.999 . S
C1170 H1140 0.950 . S
C1170 C1169 1.524 . S
C1170 C1171 1.415 . S
C1171 H1141 0.950 . S
C1171 C1166 1.363 . S
C1171 C1170 1.415 . S
H1172 C1169 0.999 . S
H1173 C1154 0.913 . S
H1174 C1192 0.951 . S
H1175 C1194 0.951 . S
H1176 C1196 0.950 . S
H1177 C1197 0.950 . S
H1178 C1199 0.950 . S
H1179 C1202 0.950 . S
H1180 C1203 0.950 . S
H1181 C1205 0.950 . S
H1182 C1206 0.950 . S
H1183 C1207 0.951 . S
H1184 C1209 0.951 . S
H1185 C1211 0.950 . S
H1186 C1212 0.950 . S
H1187 C1214 0.950 . S
H1188 C1217 0.950 . S
H1189 C1218 0.950 . S
H1190 C1220 0.950 . S
H1191 C1221 0.950 . S
C1192 H1174 0.951 . S
C1192 C1193 1.366 . S
C1192 C1194 1.388 . S
C1193 C1192 1.366 . S
C1193 C1197 1.385 . S
C1194 H1175 0.951 . S
C1194 C1192 1.388 . S
C1194 C1195 1.366 . S
C1195 C1194 1.366 . S
C1195 C1196 1.414 . S
C1195 C1198 1.499 . S
C1196 H1176 0.950 . S
C1196 C1195 1.414 . S
C1196 C1197 1.374 . S
C1197 H1177 0.950 . S
C1197 C1193 1.385 . S
C1197 C1196 1.374 . S
C1198 C1195 1.499 . S
C1198 C1199 1.373 . S
C1198 C1200 1.389 . S
C1199 H1178 0.950 . S
C1199 C1198 1.373 . S
C1199 C1215 1.377 . S
C1200 C1198 1.389 . S
C1200 C1201 1.524 . S
C1200 C1214 1.377 . S
C1201 C1200 1.524 . S
C1201 C1202 1.397 1_556 S
C1201 C1206 1.363 . S
C1202 H1179 0.950 . S
C1202 C1201 1.397 1_554 S
C1202 C1203 1.334 . S
C1203 H1180 0.950 . S
C1203 C1202 1.334 . S
C1203 C1204 1.287 . S
C1204 C1203 1.287 . S
C1204 C1205 1.524 . S
C1204 H1223 0.913 . S
C1205 H1181 0.950 . S
C1205 C1204 1.524 . S
C1205 C1206 1.415 1_554 S
C1206 H1182 0.950 . S
C1206 C1201 1.363 . S
C1206 C1205 1.415 1_556 S
C1207 H1183 0.951 . S
C1207 C1208 1.366 . S
C1207 C1209 1.388 . S
C1208 C1207 1.366 . S
C1208 C1212 1.385 . S
C1209 H1184 0.951 . S
C1209 C1207 1.388 . S
C1209 C1210 1.366 . S
C1210 C1209 1.366 . S
C1210 C1211 1.414 . S
C1210 C1213 1.499 . S
C1211 H1185 0.950 . S
C1211 C1210 1.414 . S
C1211 C1212 1.374 . S
C1212 H1186 0.950 . S
C1212 C1208 1.385 . S
C1212 C1211 1.374 . S
C1213 C1210 1.499 . S
C1213 C1214 1.373 . S
C1213 C1215 1.389 . S
C1214 H1187 0.950 . S
C1214 C1200 1.377 . S
C1214 C1213 1.373 . S
C1215 C1199 1.377 . S
C1215 C1213 1.389 . S
C1215 C1216 1.524 . S
C1216 C1215 1.524 . S
C1216 C1217 1.397 . S
C1216 C1221 1.363 . S
C1217 H1188 0.950 . S
C1217 C1216 1.397 . S
C1217 C1218 1.334 . S
C1218 H1189 0.950 . S
C1218 C1217 1.334 . S
C1218 C1219 1.287 . S
C1219 C1218 1.287 . S
C1219 C1220 1.524 . S
C1219 H1222 0.999 . S
C1220 H1190 0.950 . S
C1220 C1219 1.524 . S
C1220 C1221 1.415 . S
C1221 H1191 0.950 . S
C1221 C1216 1.363 . S
C1221 C1220 1.415 . S
H1222 C1219 0.999 . S
H1223 C1204 0.913 . S
H1224 C1242 0.951 . S
H1225 C1244 0.951 . S
H1226 C1246 0.950 . S
H1227 C1247 0.950 . S
H1228 C1249 0.950 . S
H1229 C1252 0.950 . S
H1230 C1253 0.950 . S
H1231 C1255 0.950 . S
H1232 C1256 0.950 . S
H1233 C1257 0.951 . S
H1234 C1259 0.951 . S
H1235 C1261 0.950 . S
H1236 C1262 0.950 . S
H1237 C1264 0.950 . S
H1238 C1267 0.950 . S
H1239 C1268 0.950 . S
H1240 C1270 0.950 . S
H1241 C1271 0.950 . S
C1242 H1224 0.951 . S
C1242 C1243 1.366 . S
C1242 C1244 1.388 . S
C1243 C1242 1.366 . S
C1243 C1247 1.385 . S
C1244 H1225 0.951 . S
C1244 C1242 1.388 . S
C1244 C1245 1.366 . S
C1245 C1244 1.366 . S
C1245 C1246 1.414 . S
C1245 C1248 1.499 . S
C1246 H1226 0.950 . S
C1246 C1245 1.414 . S
C1246 C1247 1.374 . S
C1247 H1227 0.950 . S
C1247 C1243 1.385 . S
C1247 C1246 1.374 . S
C1248 C1245 1.499 . S
C1248 C1249 1.373 . S
C1248 C1250 1.389 . S
C1249 H1228 0.950 . S
C1249 C1248 1.373 . S
C1249 C1265 1.377 . S
C1250 C1248 1.389 . S
C1250 C1251 1.524 . S
C1250 C1264 1.377 . S
C1251 C1250 1.524 . S
C1251 C1252 1.397 . S
C1251 C1256 1.363 . S
C1252 H1229 0.950 . S
C1252 C1251 1.397 . S
C1252 C1253 1.334 . S
C1253 H1230 0.950 . S
C1253 C1252 1.334 . S
C1253 C1254 1.287 . S
C1254 C1253 1.287 . S
C1254 C1255 1.524 . S
C1254 H1273 0.913 . S
C1255 H1231 0.950 . S
C1255 C1254 1.524 . S
C1255 C1256 1.415 . S
C1256 H1232 0.950 . S
C1256 C1251 1.363 . S
C1256 C1255 1.415 . S
C1257 H1233 0.951 . S
C1257 C1258 1.366 . S
C1257 C1259 1.388 . S
C1258 C1257 1.366 . S
C1258 C1262 1.385 . S
C1259 H1234 0.951 . S
C1259 C1257 1.388 . S
C1259 C1260 1.366 . S
C1260 C1259 1.366 . S
C1260 C1261 1.414 . S
C1260 C1263 1.499 . S
C1261 H1235 0.950 . S
C1261 C1260 1.414 . S
C1261 C1262 1.374 . S
C1262 H1236 0.950 . S
C1262 C1258 1.385 . S
C1262 C1261 1.374 . S
C1263 C1260 1.499 . S
C1263 C1264 1.373 . S
C1263 C1265 1.389 . S
C1264 H1237 0.950 . S
C1264 C1250 1.377 . S
C1264 C1263 1.373 . S
C1265 C1249 1.377 . S
C1265 C1263 1.389 . S
C1265 C1266 1.524 . S
C1266 C1265 1.524 . S
C1266 C1267 1.397 . S
C1266 C1271 1.363 . S
C1267 H1238 0.950 . S
C1267 C1266 1.397 . S
C1267 C1268 1.334 . S
C1268 H1239 0.950 . S
C1268 C1267 1.334 . S
C1268 C1269 1.287 . S
C1269 C1268 1.287 . S
C1269 C1270 1.524 . S
C1269 H1272 0.999 . S
C1270 H1240 0.950 . S
C1270 C1269 1.524 . S
C1270 C1271 1.415 . S
C1271 H1241 0.950 . S
C1271 C1266 1.363 . S
C1271 C1270 1.415 . S
H1272 C1269 0.999 . S
H1273 C1254 0.913 . S
H1274 C1292 0.951 . S
H1275 C1294 0.951 . S
H1276 C1296 0.950 . S
H1277 C1297 0.950 . S
H1278 C1299 0.950 . S
H1279 C1302 0.950 . S
H1280 C1303 0.950 . S
H1281 C1305 0.950 . S
H1282 C1306 0.950 . S
H1283 C1307 0.951 . S
H1284 C1309 0.951 . S
H1285 C1311 0.950 . S
H1286 C1312 0.950 . S
H1287 C1314 0.950 . S
H1288 C1317 0.950 . S
H1289 C1318 0.950 . S
H1290 C1320 0.950 . S
H1291 C1321 0.950 . S
C1292 H1274 0.951 . S
C1292 C1293 1.366 . S
C1292 C1294 1.388 . S
C1293 C1292 1.366 . S
C1293 C1297 1.385 . S
C1294 H1275 0.951 . S
C1294 C1292 1.388 . S
C1294 C1295 1.366 . S
C1295 C1294 1.366 . S
C1295 C1296 1.414 . S
C1295 C1298 1.499 . S
C1296 H1276 0.950 . S
C1296 C1295 1.414 . S
C1296 C1297 1.374 . S
C1297 H1277 0.950 . S
C1297 C1293 1.385 . S
C1297 C1296 1.374 . S
C1298 C1295 1.499 . S
C1298 C1299 1.373 . S
C1298 C1300 1.389 . S
C1299 H1278 0.950 . S
C1299 C1298 1.373 . S
C1299 C1315 1.377 . S
C1300 C1298 1.389 . S
C1300 C1301 1.524 . S
C1300 C1314 1.377 . S
C1301 C1300 1.524 . S
C1301 C1302 1.397 . S
C1301 C1306 1.363 . S
C1302 H1279 0.950 . S
C1302 C1301 1.397 . S
C1302 C1303 1.334 . S
C1303 H1280 0.950 . S
C1303 C1302 1.334 . S
C1303 C1304 1.287 . S
C1304 C1303 1.287 . S
C1304 C1305 1.524 . S
C1304 H1323 0.913 . S
C1305 H1281 0.950 . S
C1305 C1304 1.524 . S
C1305 C1306 1.415 . S
C1306 H1282 0.950 . S
C1306 C1301 1.363 . S
C1306 C1305 1.415 . S
C1307 H1283 0.951 . S
C1307 C1308 1.366 . S
C1307 C1309 1.388 . S
C1308 C1307 1.366 . S
C1308 C1312 1.385 . S
C1309 H1284 0.951 . S
C1309 C1307 1.388 . S
C1309 C1310 1.366 . S
C1310 C1309 1.366 . S
C1310 C1311 1.414 . S
C1310 C1313 1.499 . S
C1311 H1285 0.950 . S
C1311 C1310 1.414 . S
C1311 C1312 1.374 . S
C1312 H1286 0.950 . S
C1312 C1308 1.385 . S
C1312 C1311 1.374 . S
C1313 C1310 1.499 . S
C1313 C1314 1.373 . S
C1313 C1315 1.389 . S
C1314 H1287 0.950 . S
C1314 C1300 1.377 . S
C1314 C1313 1.373 . S
C1315 C1299 1.377 . S
C1315 C1313 1.389 . S
C1315 C1316 1.524 . S
C1316 C1315 1.524 . S
C1316 C1317 1.397 . S
C1316 C1321 1.363 . S
C1317 H1288 0.950 . S
C1317 C1316 1.397 . S
C1317 C1318 1.334 . S
C1318 H1289 0.950 . S
C1318 C1317 1.334 . S
C1318 C1319 1.287 . S
C1319 C1318 1.287 . S
C1319 C1320 1.524 . S
C1319 H1322 0.999 . S
C1320 H1290 0.950 . S
C1320 C1319 1.524 . S
C1320 C1321 1.415 . S
C1321 H1291 0.950 . S
C1321 C1316 1.363 . S
C1321 C1320 1.415 . S
H1322 C1319 0.999 . S
H1323 C1304 0.913 . S
H1324 C1342 0.951 . S
H1325 C1344 0.951 . S
H1326 C1346 0.950 . S
H1327 C1347 0.950 . S
H1328 C1349 0.950 . S
H1329 C1352 0.950 . S
H1330 C1353 0.950 . S
H1331 C1355 0.950 . S
H1332 C1356 0.950 . S
H1333 C1357 0.951 . S
H1334 C1359 0.951 . S
H1335 C1361 0.950 . S
H1336 C1362 0.950 1_554 S
H1337 C1364 0.950 . S
H1338 C1367 0.950 . S
H1339 C1368 0.950 . S
H1340 C1370 0.950 . S
H1341 C1371 0.950 . S
C1342 H1324 0.951 . S
C1342 C1343 1.366 . S
C1342 C1344 1.388 . S
C1343 C1342 1.366 . S
C1343 C1347 1.385 . S
C1344 H1325 0.951 . S
C1344 C1342 1.388 . S
C1344 C1345 1.366 . S
C1345 C1344 1.366 . S
C1345 C1346 1.414 . S
C1345 C1348 1.499 . S
C1346 H1326 0.950 . S
C1346 C1345 1.414 . S
C1346 C1347 1.374 . S
C1347 H1327 0.950 . S
C1347 C1343 1.385 . S
C1347 C1346 1.374 . S
C1348 C1345 1.499 . S
C1348 C1349 1.373 . S
C1348 C1350 1.389 . S
C1349 H1328 0.950 . S
C1349 C1348 1.373 . S
C1349 C1365 1.377 . S
C1350 C1348 1.389 . S
C1350 C1351 1.524 . S
C1350 C1364 1.377 . S
C1351 C1350 1.524 . S
C1351 C1352 1.397 . S
C1351 C1356 1.363 . S
C1352 H1329 0.950 . S
C1352 C1351 1.397 . S
C1352 C1353 1.334 . S
C1353 H1330 0.950 . S
C1353 C1352 1.334 . S
C1353 C1354 1.287 1_556 S
C1354 C1353 1.287 1_554 S
C1354 C1355 1.524 . S
C1354 H1373 0.913 . S
C1355 H1331 0.950 . S
C1355 C1354 1.524 . S
C1355 C1356 1.415 1_554 S
C1356 H1332 0.950 . S
C1356 C1351 1.363 . S
C1356 C1355 1.415 1_556 S
C1357 H1333 0.951 . S
C1357 C1358 1.366 . S
C1357 C1359 1.388 . S
C1358 C1357 1.366 . S
C1358 C1362 1.385 . S
C1359 H1334 0.951 . S
C1359 C1357 1.388 . S
C1359 C1360 1.366 . S
C1360 C1359 1.366 . S
C1360 C1361 1.414 . S
C1360 C1363 1.499 . S
C1361 H1335 0.950 . S
C1361 C1360 1.414 . S
C1361 C1362 1.374 . S
C1362 H1336 0.950 1_556 S
C1362 C1358 1.385 . S
C1362 C1361 1.374 . S
C1363 C1360 1.499 . S
C1363 C1364 1.373 . S
C1363 C1365 1.389 . S
C1364 H1337 0.950 . S
C1364 C1350 1.377 . S
C1364 C1363 1.373 . S
C1365 C1349 1.377 . S
C1365 C1363 1.389 . S
C1365 C1366 1.524 . S
C1366 C1365 1.524 . S
C1366 C1367 1.397 . S
C1366 C1371 1.363 . S
C1367 H1338 0.950 . S
C1367 C1366 1.397 . S
C1367 C1368 1.334 . S
C1368 H1339 0.950 . S
C1368 C1367 1.334 . S
C1368 C1369 1.287 . S
C1369 C1368 1.287 . S
C1369 C1370 1.524 . S
C1369 H1372 0.999 . S
C1370 H1340 0.950 . S
C1370 C1369 1.524 . S
C1370 C1371 1.415 . S
C1371 H1341 0.950 . S
C1371 C1366 1.363 . S
C1371 C1370 1.415 . S
H1372 C1369 0.999 . S
H1373 C1354 0.913 . S
H1374 C1392 0.951 . S
H1375 C1394 0.951 . S
H1376 C1396 0.950 . S
H1377 C1397 0.950 . S
H1378 C1399 0.950 . S
H1379 C1402 0.950 . S
H1380 C1403 0.950 . S
H1381 C1405 0.950 . S
H1382 C1406 0.950 . S
H1383 C1407 0.951 . S
H1384 C1409 0.951 . S
H1385 C1411 0.950 . S
H1386 C1412 0.950 . S
H1387 C1414 0.950 . S
H1388 C1417 0.950 . S
H1389 C1418 0.950 . S
H1390 C1420 0.950 . S
H1391 C1421 0.950 . S
C1392 H1374 0.951 . S
C1392 C1393 1.366 . S
C1392 C1394 1.388 . S
C1393 C1392 1.366 . S
C1393 C1397 1.385 . S
C1394 H1375 0.951 . S
C1394 C1392 1.388 . S
C1394 C1395 1.366 . S
C1395 C1394 1.366 . S
C1395 C1396 1.414 . S
C1395 C1398 1.499 . S
C1396 H1376 0.950 . S
C1396 C1395 1.414 . S
C1396 C1397 1.374 . S
C1397 H1377 0.950 . S
C1397 C1393 1.385 . S
C1397 C1396 1.374 . S
C1398 C1395 1.499 . S
C1398 C1399 1.373 . S
C1398 C1400 1.389 . S
C1399 H1378 0.950 . S
C1399 C1398 1.373 . S
C1399 C1415 1.377 . S
C1400 C1398 1.389 . S
C1400 C1401 1.524 . S
C1400 C1414 1.377 . S
C1401 C1400 1.524 . S
C1401 C1402 1.397 . S
C1401 C1406 1.363 . S
C1402 H1379 0.950 . S
C1402 C1401 1.397 . S
C1402 C1403 1.334 1_554 S
C1403 H1380 0.950 . S
C1403 C1402 1.334 1_556 S
C1403 C1404 1.287 . S
C1404 C1403 1.287 . S
C1404 C1405 1.524 1_556 S
C1404 H1423 0.913 . S
C1405 H1381 0.950 . S
C1405 C1404 1.524 1_554 S
C1405 C1406 1.415 . S
C1406 H1382 0.950 . S
C1406 C1401 1.363 . S
C1406 C1405 1.415 . S
C1407 H1383 0.951 . S
C1407 C1408 1.366 . S
C1407 C1409 1.388 . S
C1408 C1407 1.366 . S
C1408 C1412 1.385 . S
C1409 H1384 0.951 . S
C1409 C1407 1.388 . S
C1409 C1410 1.366 . S
C1410 C1409 1.366 . S
C1410 C1411 1.414 . S
C1410 C1413 1.499 . S
C1411 H1385 0.950 . S
C1411 C1410 1.414 . S
C1411 C1412 1.374 . S
C1412 H1386 0.950 . S
C1412 C1408 1.385 . S
C1412 C1411 1.374 . S
C1413 C1410 1.499 . S
C1413 C1414 1.373 . S
C1413 C1415 1.389 . S
C1414 H1387 0.950 . S
C1414 C1400 1.377 . S
C1414 C1413 1.373 . S
C1415 C1399 1.377 . S
C1415 C1413 1.389 . S
C1415 C1416 1.524 . S
C1416 C1415 1.524 . S
C1416 C1417 1.397 . S
C1416 C1421 1.363 . S
C1417 H1388 0.950 . S
C1417 C1416 1.397 . S
C1417 C1418 1.334 . S
C1418 H1389 0.950 . S
C1418 C1417 1.334 . S
C1418 C1419 1.287 . S
C1419 C1418 1.287 . S
C1419 C1420 1.524 . S
C1419 H1422 0.999 . S
C1420 H1390 0.950 . S
C1420 C1419 1.524 . S
C1420 C1421 1.415 . S
C1421 H1391 0.950 . S
C1421 C1416 1.363 . S
C1421 C1420 1.415 . S
H1422 C1419 0.999 . S
H1423 C1404 0.913 . S
H1424 C1442 0.951 . S
H1425 C1444 0.951 . S
H1426 C1446 0.950 . S
H1427 C1447 0.950 . S
H1428 C1449 0.950 . S
H1429 C1452 0.950 . S
H1430 C1453 0.950 . S
H1431 C1455 0.950 . S
H1432 C1456 0.950 . S
H1433 C1457 0.951 . S
H1434 C1459 0.951 . S
H1435 C1461 0.950 . S
H1436 C1462 0.950 . S
H1437 C1464 0.950 . S
H1438 C1467 0.950 . S
H1439 C1468 0.950 . S
H1440 C1470 0.950 . S
H1441 C1471 0.950 . S
C1442 H1424 0.951 . S
C1442 C1443 1.366 . S
C1442 C1444 1.388 . S
C1443 C1442 1.366 . S
C1443 C1447 1.385 . S
C1444 H1425 0.951 . S
C1444 C1442 1.388 . S
C1444 C1445 1.366 . S
C1445 C1444 1.366 . S
C1445 C1446 1.414 . S
C1445 C1448 1.499 . S
C1446 H1426 0.950 . S
C1446 C1445 1.414 . S
C1446 C1447 1.374 . S
C1447 H1427 0.950 . S
C1447 C1443 1.385 . S
C1447 C1446 1.374 . S
C1448 C1445 1.499 . S
C1448 C1449 1.373 . S
C1448 C1450 1.389 . S
C1449 H1428 0.950 . S
C1449 C1448 1.373 . S
C1449 C1465 1.377 . S
C1450 C1448 1.389 . S
C1450 C1451 1.524 . S
C1450 C1464 1.377 . S
C1451 C1450 1.524 . S
C1451 C1452 1.397 . S
C1451 C1456 1.363 . S
C1452 H1429 0.950 . S
C1452 C1451 1.397 . S
C1452 C1453 1.334 . S
C1453 H1430 0.950 . S
C1453 C1452 1.334 . S
C1453 C1454 1.287 . S
C1454 C1453 1.287 . S
C1454 C1455 1.524 . S
C1454 H1473 0.913 . S
C1455 H1431 0.950 . S
C1455 C1454 1.524 . S
C1455 C1456 1.415 . S
C1456 H1432 0.950 . S
C1456 C1451 1.363 . S
C1456 C1455 1.415 . S
C1457 H1433 0.951 . S
C1457 C1458 1.366 . S
C1457 C1459 1.388 . S
C1458 C1457 1.366 . S
C1458 C1462 1.385 . S
C1459 H1434 0.951 . S
C1459 C1457 1.388 . S
C1459 C1460 1.366 . S
C1460 C1459 1.366 . S
C1460 C1461 1.414 . S
C1460 C1463 1.499 . S
C1461 H1435 0.950 . S
C1461 C1460 1.414 . S
C1461 C1462 1.374 . S
C1462 H1436 0.950 . S
C1462 C1458 1.385 . S
C1462 C1461 1.374 . S
C1463 C1460 1.499 . S
C1463 C1464 1.373 . S
C1463 C1465 1.389 . S
C1464 H1437 0.950 . S
C1464 C1450 1.377 . S
C1464 C1463 1.373 . S
C1465 C1449 1.377 . S
C1465 C1463 1.389 . S
C1465 C1466 1.524 . S
C1466 C1465 1.524 . S
C1466 C1467 1.397 . S
C1466 C1471 1.363 . S
C1467 H1438 0.950 . S
C1467 C1466 1.397 . S
C1467 C1468 1.334 . S
C1468 H1439 0.950 . S
C1468 C1467 1.334 . S
C1468 C1469 1.287 . S
C1469 C1468 1.287 . S
C1469 C1470 1.524 . S
C1469 H1472 0.999 1_556 S
C1470 H1440 0.950 . S
C1470 C1469 1.524 . S
C1470 C1471 1.415 . S
C1471 H1441 0.950 . S
C1471 C1466 1.363 . S
C1471 C1470 1.415 . S
H1472 C1469 0.999 1_554 S
H1473 C1454 0.913 . S
H1474 C1492 0.951 . S
H1475 C1494 0.951 . S
H1476 C1496 0.950 . S
H1477 C1497 0.950 . S
H1478 C1499 0.950 . S
H1479 C1502 0.950 . S
H1480 C1503 0.950 . S
H1481 C1505 0.950 . S
H1482 C1506 0.950 . S
H1483 C1507 0.951 . S
H1484 C1509 0.951 . S
H1485 C1511 0.950 . S
H1486 C1512 0.950 . S
H1487 C1514 0.950 . S
H1488 C1517 0.950 . S
H1489 C1518 0.950 . S
H1490 C1520 0.950 . S
H1491 C1521 0.950 . S
C1492 H1474 0.951 . S
C1492 C1493 1.366 . S
C1492 C1494 1.388 . S
C1493 C1492 1.366 . S
C1493 C1497 1.385 . S
C1494 H1475 0.951 . S
C1494 C1492 1.388 . S
C1494 C1495 1.366 . S
C1495 C1494 1.366 . S
C1495 C1496 1.414 . S
C1495 C1498 1.499 . S
C1496 H1476 0.950 . S
C1496 C1495 1.414 . S
C1496 C1497 1.374 . S
C1497 H1477 0.950 . S
C1497 C1493 1.385 . S
C1497 C1496 1.374 . S
C1498 C1495 1.499 . S
C1498 C1499 1.373 . S
C1498 C1500 1.389 . S
C1499 H1478 0.950 . S
C1499 C1498 1.373 . S
C1499 C1515 1.377 . S
C1500 C1498 1.389 . S
C1500 C1501 1.524 . S
C1500 C1514 1.377 . S
C1501 C1500 1.524 . S
C1501 C1502 1.397 . S
C1501 C1506 1.363 . S
C1502 H1479 0.950 . S
C1502 C1501 1.397 . S
C1502 C1503 1.334 . S
C1503 H1480 0.950 . S
C1503 C1502 1.334 . S
C1503 C1504 1.287 . S
C1504 C1503 1.287 . S
C1504 C1505 1.524 . S
C1504 H1523 0.913 . S
C1505 H1481 0.950 . S
C1505 C1504 1.524 . S
C1505 C1506 1.415 . S
C1506 H1482 0.950 . S
C1506 C1501 1.363 . S
C1506 C1505 1.415 . S
C1507 H1483 0.951 . S
C1507 C1508 1.366 . S
C1507 C1509 1.388 . S
C1508 C1507 1.366 . S
C1508 C1512 1.385 . S
C1509 H1484 0.951 . S
C1509 C1507 1.388 . S
C1509 C1510 1.366 . S
C1510 C1509 1.366 . S
C1510 C1511 1.414 . S
C1510 C1513 1.499 . S
C1511 H1485 0.950 . S
C1511 C1510 1.414 . S
C1511 C1512 1.374 . S
C1512 H1486 0.950 . S
C1512 C1508 1.385 . S
C1512 C1511 1.374 . S
C1513 C1510 1.499 . S
C1513 C1514 1.373 . S
C1513 C1515 1.389 . S
C1514 H1487 0.950 . S
C1514 C1500 1.377 . S
C1514 C1513 1.373 . S
C1515 C1499 1.377 . S
C1515 C1513 1.389 . S
C1515 C1516 1.524 . S
C1516 C1515 1.524 . S
C1516 C1517 1.397 . S
C1516 C1521 1.363 . S
C1517 H1488 0.950 . S
C1517 C1516 1.397 . S
C1517 C1518 1.334 . S
C1518 H1489 0.950 . S
C1518 C1517 1.334 . S
C1518 C1519 1.287 . S
C1519 C1518 1.287 . S
C1519 C1520 1.524 . S
C1519 H1522 0.999 . S
C1520 H1490 0.950 . S
C1520 C1519 1.524 . S
C1520 C1521 1.415 . S
C1521 H1491 0.950 . S
C1521 C1516 1.363 . S
C1521 C1520 1.415 . S
H1522 C1519 0.999 . S
H1523 C1504 0.913 . S
H1524 C1542 0.951 . S
H1525 C1544 0.951 . S
H1526 C1546 0.950 . S
H1527 C1547 0.950 . S
H1528 C1549 0.950 . S
H1529 C1552 0.950 . S
H1530 C1553 0.950 . S
H1531 C1555 0.950 . S
H1532 C1556 0.950 . S
H1533 C1557 0.951 . S
H1534 C1559 0.951 . S
H1535 C1561 0.950 . S
H1536 C1562 0.950 . S
H1537 C1564 0.950 . S
H1538 C1567 0.950 . S
H1539 C1568 0.950 . S
H1540 C1570 0.950 . S
H1541 C1571 0.950 . S
C1542 H1524 0.951 . S
C1542 C1543 1.366 . S
C1542 C1544 1.388 . S
C1543 C1542 1.366 . S
C1543 C1547 1.385 . S
C1544 H1525 0.951 . S
C1544 C1542 1.388 . S
C1544 C1545 1.366 . S
C1545 C1544 1.366 . S
C1545 C1546 1.414 . S
C1545 C1548 1.499 . S
C1546 H1526 0.950 . S
C1546 C1545 1.414 . S
C1546 C1547 1.374 . S
C1547 H1527 0.950 . S
C1547 C1543 1.385 . S
C1547 C1546 1.374 . S
C1548 C1545 1.499 . S
C1548 C1549 1.373 . S
C1548 C1550 1.389 . S
C1549 H1528 0.950 . S
C1549 C1548 1.373 . S
C1549 C1565 1.377 . S
C1550 C1548 1.389 . S
C1550 C1551 1.524 . S
C1550 C1564 1.377 . S
C1551 C1550 1.524 . S
C1551 C1552 1.397 . S
C1551 C1556 1.363 . S
C1552 H1529 0.950 . S
C1552 C1551 1.397 . S
C1552 C1553 1.334 . S
C1553 H1530 0.950 . S
C1553 C1552 1.334 . S
C1553 C1554 1.287 . S
C1554 C1553 1.287 . S
C1554 C1555 1.524 . S
C1554 H1573 0.913 . S
C1555 H1531 0.950 . S
C1555 C1554 1.524 . S
C1555 C1556 1.415 . S
C1556 H1532 0.950 . S
C1556 C1551 1.363 . S
C1556 C1555 1.415 . S
C1557 H1533 0.951 . S
C1557 C1558 1.366 . S
C1557 C1559 1.388 . S
C1558 C1557 1.366 . S
C1558 C1562 1.385 . S
C1559 H1534 0.951 . S
C1559 C1557 1.388 . S
C1559 C1560 1.366 . S
C1560 C1559 1.366 . S
C1560 C1561 1.414 . S
C1560 C1563 1.499 . S
C1561 H1535 0.950 . S
C1561 C1560 1.414 . S
C1561 C1562 1.374 . S
C1562 H1536 0.950 . S
C1562 C1558 1.385 . S
C1562 C1561 1.374 . S
C1563 C1560 1.499 . S
C1563 C1564 1.373 . S
C1563 C1565 1.389 . S
C1564 H1537 0.950 . S
C1564 C1550 1.377 . S
C1564 C1563 1.373 . S
C1565 C1549 1.377 . S
C1565 C1563 1.389 . S
C1565 C1566 1.524 . S
C1566 C1565 1.524 . S
C1566 C1567 1.397 . S
C1566 C1571 1.363 . S
C1567 H1538 0.950 . S
C1567 C1566 1.397 . S
C1567 C1568 1.334 . S
C1568 H1539 0.950 . S
C1568 C1567 1.334 . S
C1568 C1569 1.287 . S
C1569 C1568 1.287 . S
C1569 C1570 1.524 . S
C1569 H1572 0.999 . S
C1570 H1540 0.950 . S
C1570 C1569 1.524 . S
C1570 C1571 1.415 . S
C1571 H1541 0.950 . S
C1571 C1566 1.363 . S
C1571 C1570 1.415 . S
H1572 C1569 0.999 . S
H1573 C1554 0.913 . S
H1574 C1592 0.951 . S
H1575 C1594 0.951 . S
H1576 C1596 0.950 . S
H1577 C1597 0.950 . S
H1578 C1599 0.950 . S
H1579 C1602 0.950 . S
H1580 C1603 0.950 . S
H1581 C1605 0.950 . S
H1582 C1606 0.950 . S
H1583 C1607 0.951 . S
H1584 C1609 0.951 . S
H1585 C1611 0.950 . S
H1586 C1612 0.950 . S
H1587 C1614 0.950 . S
H1588 C1617 0.950 . S
H1589 C1618 0.950 . S
H1590 C1620 0.950 . S
H1591 C1621 0.950 . S
C1592 H1574 0.951 . S
C1592 C1593 1.366 . S
C1592 C1594 1.388 . S
C1593 C1592 1.366 . S
C1593 C1597 1.385 . S
C1594 H1575 0.951 . S
C1594 C1592 1.388 . S
C1594 C1595 1.366 . S
C1595 C1594 1.366 . S
C1595 C1596 1.414 . S
C1595 C1598 1.499 . S
C1596 H1576 0.950 . S
C1596 C1595 1.414 . S
C1596 C1597 1.374 . S
C1597 H1577 0.950 . S
C1597 C1593 1.385 . S
C1597 C1596 1.374 . S
C1598 C1595 1.499 . S
C1598 C1599 1.373 . S
C1598 C1600 1.389 . S
C1599 H1578 0.950 . S
C1599 C1598 1.373 . S
C1599 C1615 1.377 . S
C1600 C1598 1.389 . S
C1600 C1601 1.524 . S
C1600 C1614 1.377 . S
C1601 C1600 1.524 . S
C1601 C1602 1.397 . S
C1601 C1606 1.363 . S
C1602 H1579 0.950 . S
C1602 C1601 1.397 . S
C1602 C1603 1.334 . S
C1603 H1580 0.950 . S
C1603 C1602 1.334 . S
C1603 C1604 1.287 . S
C1604 C1603 1.287 . S
C1604 C1605 1.524 . S
C1604 H1623 0.913 . S
C1605 H1581 0.950 . S
C1605 C1604 1.524 . S
C1605 C1606 1.415 . S
C1606 H1582 0.950 . S
C1606 C1601 1.363 . S
C1606 C1605 1.415 . S
C1607 H1583 0.951 . S
C1607 C1608 1.366 . S
C1607 C1609 1.388 . S
C1608 C1607 1.366 . S
C1608 C1612 1.385 . S
C1609 H1584 0.951 . S
C1609 C1607 1.388 . S
C1609 C1610 1.366 . S
C1610 C1609 1.366 . S
C1610 C1611 1.414 . S
C1610 C1613 1.499 . S
C1611 H1585 0.950 . S
C1611 C1610 1.414 . S
C1611 C1612 1.374 . S
C1612 H1586 0.950 . S
C1612 C1608 1.385 . S
C1612 C1611 1.374 . S
C1613 C1610 1.499 . S
C1613 C1614 1.373 . S
C1613 C1615 1.389 . S
C1614 H1587 0.950 . S
C1614 C1600 1.377 . S
C1614 C1613 1.373 . S
C1615 C1599 1.377 . S
C1615 C1613 1.389 . S
C1615 C1616 1.524 . S
C1616 C1615 1.524 . S
C1616 C1617 1.397 . S
C1616 C1621 1.363 . S
C1617 H1588 0.950 . S
C1617 C1616 1.397 . S
C1617 C1618 1.334 . S
C1618 H1589 0.950 . S
C1618 C1617 1.334 . S
C1618 C1619 1.287 . S
C1619 C1618 1.287 . S
C1619 C1620 1.524 . S
C1619 H1622 0.999 . S
C1620 H1590 0.950 . S
C1620 C1619 1.524 . S
C1620 C1621 1.415 . S
C1621 H1591 0.950 . S
C1621 C1616 1.363 . S
C1621 C1620 1.415 . S
H1622 C1619 0.999 . S
H1623 C1604 0.913 . S
H1624 C1642 0.951 . S
H1625 C1644 0.951 . S
H1626 C1646 0.950 . S
H1627 C1647 0.950 . S
H1628 C1649 0.950 . S
H1629 C1652 0.950 . S
H1630 C1653 0.950 . S
H1631 C1655 0.950 . S
H1632 C1656 0.950 . S
H1633 C1657 0.951 . S
H1634 C1659 0.951 . S
H1635 C1661 0.950 . S
H1636 C1662 0.950 . S
H1637 C1664 0.950 . S
H1638 C1667 0.950 . S
H1639 C1668 0.950 . S
H1640 C1670 0.950 . S
H1641 C1671 0.950 . S
C1642 H1624 0.951 . S
C1642 C1643 1.366 . S
C1642 C1644 1.388 . S
C1643 C1642 1.366 . S
C1643 C1647 1.385 . S
C1644 H1625 0.951 . S
C1644 C1642 1.388 . S
C1644 C1645 1.366 . S
C1645 C1644 1.366 . S
C1645 C1646 1.414 . S
C1645 C1648 1.499 . S
C1646 H1626 0.950 . S
C1646 C1645 1.414 . S
C1646 C1647 1.374 . S
C1647 H1627 0.950 . S
C1647 C1643 1.385 . S
C1647 C1646 1.374 . S
C1648 C1645 1.499 . S
C1648 C1649 1.373 . S
C1648 C1650 1.389 . S
C1649 H1628 0.950 . S
C1649 C1648 1.373 . S
C1649 C1665 1.377 . S
C1650 C1648 1.389 . S
C1650 C1651 1.524 . S
C1650 C1664 1.377 . S
C1651 C1650 1.524 . S
C1651 C1652 1.397 . S
C1651 C1656 1.363 . S
C1652 H1629 0.950 . S
C1652 C1651 1.397 . S
C1652 C1653 1.334 . S
C1653 H1630 0.950 . S
C1653 C1652 1.334 . S
C1653 C1654 1.287 . S
C1654 C1653 1.287 . S
C1654 C1655 1.524 . S
C1654 H1673 0.913 . S
C1655 H1631 0.950 . S
C1655 C1654 1.524 . S
C1655 C1656 1.415 . S
C1656 H1632 0.950 . S
C1656 C1651 1.363 . S
C1656 C1655 1.415 . S
C1657 H1633 0.951 . S
C1657 C1658 1.366 . S
C1657 C1659 1.388 . S
C1658 C1657 1.366 . S
C1658 C1662 1.385 . S
C1659 H1634 0.951 . S
C1659 C1657 1.388 . S
C1659 C1660 1.366 . S
C1660 C1659 1.366 . S
C1660 C1661 1.414 . S
C1660 C1663 1.499 . S
C1661 H1635 0.950 . S
C1661 C1660 1.414 . S
C1661 C1662 1.374 . S
C1662 H1636 0.950 . S
C1662 C1658 1.385 . S
C1662 C1661 1.374 . S
C1663 C1660 1.499 . S
C1663 C1664 1.373 . S
C1663 C1665 1.389 . S
C1664 H1637 0.950 . S
C1664 C1650 1.377 . S
C1664 C1663 1.373 . S
C1665 C1649 1.377 . S
C1665 C1663 1.389 . S
C1665 C1666 1.524 . S
C1666 C1665 1.524 . S
C1666 C1667 1.397 . S
C1666 C1671 1.363 . S
C1667 H1638 0.950 . S
C1667 C1666 1.397 . S
C1667 C1668 1.334 . S
C1668 H1639 0.950 . S
C1668 C1667 1.334 . S
C1668 C1669 1.287 . S
C1669 C1668 1.287 . S
C1669 C1670 1.524 . S
C1669 H1672 0.999 . S
C1670 H1640 0.950 . S
C1670 C1669 1.524 . S
C1670 C1671 1.415 . S
C1671 H1641 0.950 . S
C1671 C1666 1.363 . S
C1671 C1670 1.415 . S
H1672 C1669 0.999 . S
H1673 C1654 0.913 . S
H1674 C1692 0.951 . S
H1675 C1694 0.951 . S
H1676 C1696 0.950 . S
H1677 C1697 0.950 . S
H1678 C1699 0.950 . S
H1679 C1702 0.950 . S
H1680 C1703 0.950 . S
H1681 C1705 0.950 . S
H1682 C1706 0.950 . S
H1683 C1707 0.951 . S
H1684 C1709 0.951 . S
H1685 C1711 0.950 . S
H1686 C1712 0.950 . S
H1687 C1714 0.950 . S
H1688 C1717 0.950 . S
H1689 C1718 0.950 . S
H1690 C1720 0.950 . S
H1691 C1721 0.950 . S
C1692 H1674 0.951 . S
C1692 C1693 1.366 . S
C1692 C1694 1.388 . S
C1693 C1692 1.366 . S
C1693 C1697 1.385 . S
C1694 H1675 0.951 . S
C1694 C1692 1.388 . S
C1694 C1695 1.366 . S
C1695 C1694 1.366 . S
C1695 C1696 1.414 . S
C1695 C1698 1.499 . S
C1696 H1676 0.950 . S
C1696 C1695 1.414 . S
C1696 C1697 1.374 . S
C1697 H1677 0.950 . S
C1697 C1693 1.385 . S
C1697 C1696 1.374 . S
C1698 C1695 1.499 . S
C1698 C1699 1.373 . S
C1698 C1700 1.389 . S
C1699 H1678 0.950 . S
C1699 C1698 1.373 . S
C1699 C1715 1.377 . S
C1700 C1698 1.389 . S
C1700 C1701 1.524 . S
C1700 C1714 1.377 . S
C1701 C1700 1.524 . S
C1701 C1702 1.397 . S
C1701 C1706 1.363 . S
C1702 H1679 0.950 . S
C1702 C1701 1.397 . S
C1702 C1703 1.334 . S
C1703 H1680 0.950 . S
C1703 C1702 1.334 . S
C1703 C1704 1.287 . S
C1704 C1703 1.287 . S
C1704 C1705 1.524 . S
C1704 H1723 0.913 . S
C1705 H1681 0.950 . S
C1705 C1704 1.524 . S
C1705 C1706 1.415 . S
C1706 H1682 0.950 . S
C1706 C1701 1.363 . S
C1706 C1705 1.415 . S
C1707 H1683 0.951 . S
C1707 C1708 1.366 . S
C1707 C1709 1.388 . S
C1708 C1707 1.366 . S
C1708 C1712 1.385 . S
C1709 H1684 0.951 . S
C1709 C1707 1.388 . S
C1709 C1710 1.366 . S
C1710 C1709 1.366 . S
C1710 C1711 1.414 . S
C1710 C1713 1.499 . S
C1711 H1685 0.950 . S
C1711 C1710 1.414 . S
C1711 C1712 1.374 . S
C1712 H1686 0.950 . S
C1712 C1708 1.385 . S
C1712 C1711 1.374 . S
C1713 C1710 1.499 . S
C1713 C1714 1.373 . S
C1713 C1715 1.389 . S
C1714 H1687 0.950 . S
C1714 C1700 1.377 . S
C1714 C1713 1.373 . S
C1715 C1699 1.377 . S
C1715 C1713 1.389 . S
C1715 C1716 1.524 . S
C1716 C1715 1.524 . S
C1716 C1717 1.397 . S
C1716 C1721 1.363 . S
C1717 H1688 0.950 . S
C1717 C1716 1.397 . S
C1717 C1718 1.334 . S
C1718 H1689 0.950 . S
C1718 C1717 1.334 . S
C1718 C1719 1.287 . S
C1719 C1718 1.287 . S
C1719 C1720 1.524 . S
C1719 H1722 0.999 . S
C1720 H1690 0.950 . S
C1720 C1719 1.524 . S
C1720 C1721 1.415 . S
C1721 H1691 0.950 . S
C1721 C1716 1.363 . S
C1721 C1720 1.415 . S
H1722 C1719 0.999 . S
H1723 C1704 0.913 . S
H1724 C1742 0.951 . S
H1725 C1744 0.951 . S
H1726 C1746 0.950 . S
H1727 C1747 0.950 . S
H1728 C1749 0.950 . S
H1729 C1752 0.950 . S
H1730 C1753 0.950 . S
H1731 C1755 0.950 . S
H1732 C1756 0.950 . S
H1733 C1757 0.951 . S
H1734 C1759 0.951 . S
H1735 C1761 0.950 . S
H1736 C1762 0.950 . S
H1737 C1764 0.950 . S
H1738 C1767 0.950 . S
H1739 C1768 0.950 . S
H1740 C1770 0.950 . S
H1741 C1771 0.950 . S
C1742 H1724 0.951 . S
C1742 C1743 1.366 . S
C1742 C1744 1.388 . S
C1743 C1742 1.366 . S
C1743 C1747 1.385 . S
C1744 H1725 0.951 . S
C1744 C1742 1.388 . S
C1744 C1745 1.366 . S
C1745 C1744 1.366 . S
C1745 C1746 1.414 . S
C1745 C1748 1.499 . S
C1746 H1726 0.950 . S
C1746 C1745 1.414 . S
C1746 C1747 1.374 . S
C1747 H1727 0.950 . S
C1747 C1743 1.385 . S
C1747 C1746 1.374 . S
C1748 C1745 1.499 . S
C1748 C1749 1.373 . S
C1748 C1750 1.389 . S
C1749 H1728 0.950 . S
C1749 C1748 1.373 . S
C1749 C1765 1.377 . S
C1750 C1748 1.389 . S
C1750 C1751 1.524 . S
C1750 C1764 1.377 . S
C1751 C1750 1.524 . S
C1751 C1752 1.397 . S
C1751 C1756 1.363 . S
C1752 H1729 0.950 . S
C1752 C1751 1.397 . S
C1752 C1753 1.334 . S
C1753 H1730 0.950 . S
C1753 C1752 1.334 . S
C1753 C1754 1.287 . S
C1754 C1753 1.287 . S
C1754 C1755 1.524 . S
C1754 H1773 0.913 . S
C1755 H1731 0.950 . S
C1755 C1754 1.524 . S
C1755 C1756 1.415 . S
C1756 H1732 0.950 . S
C1756 C1751 1.363 . S
C1756 C1755 1.415 . S
C1757 H1733 0.951 . S
C1757 C1758 1.366 . S
C1757 C1759 1.388 . S
C1758 C1757 1.366 . S
C1758 C1762 1.385 . S
C1759 H1734 0.951 . S
C1759 C1757 1.388 . S
C1759 C1760 1.366 . S
C1760 C1759 1.366 . S
C1760 C1761 1.414 . S
C1760 C1763 1.499 . S
C1761 H1735 0.950 . S
C1761 C1760 1.414 . S
C1761 C1762 1.374 . S
C1762 H1736 0.950 . S
C1762 C1758 1.385 . S
C1762 C1761 1.374 . S
C1763 C1760 1.499 . S
C1763 C1764 1.373 . S
C1763 C1765 1.389 . S
C1764 H1737 0.950 . S
C1764 C1750 1.377 . S
C1764 C1763 1.373 . S
C1765 C1749 1.377 . S
C1765 C1763 1.389 . S
C1765 C1766 1.524 . S
C1766 C1765 1.524 . S
C1766 C1767 1.397 . S
C1766 C1771 1.363 . S
C1767 H1738 0.950 . S
C1767 C1766 1.397 . S
C1767 C1768 1.334 . S
C1768 H1739 0.950 . S
C1768 C1767 1.334 . S
C1768 C1769 1.287 . S
C1769 C1768 1.287 . S
C1769 C1770 1.524 . S
C1769 H1772 0.999 . S
C1770 H1740 0.950 . S
C1770 C1769 1.524 . S
C1770 C1771 1.415 . S
C1771 H1741 0.950 . S
C1771 C1766 1.363 . S
C1771 C1770 1.415 . S
H1772 C1769 0.999 . S
H1773 C1754 0.913 . S
H1774 C1792 0.951 . S
H1775 C1794 0.951 . S
H1776 C1796 0.950 . S
H1777 C1797 0.950 1_554 S
H1778 C1799 0.950 . S
H1779 C1802 0.950 . S
H1780 C1803 0.950 1_554 S
H1781 C1805 0.950 . S
H1782 C1806 0.950 . S
H1783 C1807 0.951 . S
H1784 C1809 0.951 . S
H1785 C1811 0.950 . S
H1786 C1812 0.950 . S
H1787 C1814 0.950 . S
H1788 C1817 0.950 . S
H1789 C1818 0.950 . S
H1790 C1820 0.950 . S
H1791 C1821 0.950 . S
C1792 H1774 0.951 . S
C1792 C1793 1.366 . S
C1792 C1794 1.388 . S
C1793 C1792 1.366 . S
C1793 C1797 1.385 . S
C1794 H1775 0.951 . S
C1794 C1792 1.388 . S
C1794 C1795 1.366 . S
C1795 C1794 1.366 . S
C1795 C1796 1.414 . S
C1795 C1798 1.499 . S
C1796 H1776 0.950 . S
C1796 C1795 1.414 . S
C1796 C1797 1.374 . S
C1797 H1777 0.950 1_556 S
C1797 C1793 1.385 . S
C1797 C1796 1.374 . S
C1798 C1795 1.499 . S
C1798 C1799 1.373 . S
C1798 C1800 1.389 . S
C1799 H1778 0.950 . S
C1799 C1798 1.373 . S
C1799 C1815 1.377 . S
C1800 C1798 1.389 . S
C1800 C1801 1.524 . S
C1800 C1814 1.377 . S
C1801 C1800 1.524 . S
C1801 C1802 1.397 . S
C1801 C1806 1.363 . S
C1802 H1779 0.950 . S
C1802 C1801 1.397 . S
C1802 C1803 1.334 . S
C1803 H1780 0.950 1_556 S
C1803 C1802 1.334 . S
C1803 C1804 1.287 . S
C1804 C1803 1.287 . S
C1804 C1805 1.524 . S
C1804 H1823 0.913 . S
C1805 H1781 0.950 . S
C1805 C1804 1.524 . S
C1805 C1806 1.415 . S
C1806 H1782 0.950 . S
C1806 C1801 1.363 . S
C1806 C1805 1.415 . S
C1807 H1783 0.951 . S
C1807 C1808 1.366 . S
C1807 C1809 1.388 . S
C1808 C1807 1.366 . S
C1808 C1812 1.385 . S
C1809 H1784 0.951 . S
C1809 C1807 1.388 . S
C1809 C1810 1.366 . S
C1810 C1809 1.366 . S
C1810 C1811 1.414 . S
C1810 C1813 1.499 . S
C1811 H1785 0.950 . S
C1811 C1810 1.414 . S
C1811 C1812 1.374 . S
C1812 H1786 0.950 . S
C1812 C1808 1.385 . S
C1812 C1811 1.374 . S
C1813 C1810 1.499 . S
C1813 C1814 1.373 . S
C1813 C1815 1.389 . S
C1814 H1787 0.950 . S
C1814 C1800 1.377 . S
C1814 C1813 1.373 . S
C1815 C1799 1.377 . S
C1815 C1813 1.389 . S
C1815 C1816 1.524 . S
C1816 C1815 1.524 . S
C1816 C1817 1.397 . S
C1816 C1821 1.363 . S
C1817 H1788 0.950 . S
C1817 C1816 1.397 . S
C1817 C1818 1.334 . S
C1818 H1789 0.950 . S
C1818 C1817 1.334 . S
C1818 C1819 1.287 . S
C1819 C1818 1.287 . S
C1819 C1820 1.524 . S
C1819 H1822 0.999 . S
C1820 H1790 0.950 . S
C1820 C1819 1.524 . S
C1820 C1821 1.415 . S
C1821 H1791 0.950 . S
C1821 C1816 1.363 . S
C1821 C1820 1.415 . S
H1822 C1819 0.999 . S
H1823 C1804 0.913 . S
C243 C3 1.482 . S
C258 C171 1.482 . S
C293 C23 1.294 . S
C308 C79 1.294 . S
C343 C31 1.482 . S
C358 C199 1.482 . S
C393 C107 1.295 . S
C408 C51 1.294 . S
C443 C205 1.294 . S
C458 C37 1.294 . S
C493 C101 1.483 . S
C508 C45 1.483 . S
C543 C177 1.294 . S
C558 C9 1.294 . S
C593 C73 1.482 . S
C608 C17 1.482 . S
C643 C59 1.482 . S
C658 C115 1.482 . S
C693 C87 1.482 . S
C708 C143 1.482 . S
C743 C149 1.295 . S
C758 C93 1.295 . S
C793 C65 1.294 . S
C808 C121 1.294 . S
C843 C191 1.295 . S
C858 C135 1.295 . S
C893 C163 1.295 . S
C908 C219 1.295 . S
C943 C157 1.482 . S
C958 C213 1.482 . S
C993 C129 1.482 . S
C1008 C185 1.482 . S
C1043 C162 1.483 . S
C1058 C8 1.483 . S
C1093 C119 1.464 . S
C1108 C21 1.464 . S
C1143 C36 1.483 . S
C1158 C134 1.483 . S
C1193 C147 1.464 . S
C1208 C49 1.464 . S
C1243 C161 1.464 . S
C1258 C35 1.464 . S
C1293 C50 1.483 . S
C1308 C120 1.483 . S
C1343 C133 1.464 . S
C1358 C7 1.464 . S
C1393 C148 1.483 . S
C1408 C22 1.483 . S
C1443 C64 1.483 . S
C1458 C218 1.483 . S
C1493 C175 1.464 . S
C1508 C77 1.464 . S
C1543 C92 1.483 . S
C1558 C190 1.483 . S
C1593 C105 1.464 . S
C1608 C203 1.464 . S
C1643 C91 1.464 . S
C1658 C217 1.464 . S
C1693 C176 1.483 . S
C1708 C106 1.483 . S
C1743 C189 1.464 . S
C1758 C63 1.464 . S
C1793 C204 1.483 . S
C1808 C78 1.483 . S
