# Generated by pormake.
# Topology uke, (4)-cn, num edge types: 1
# Building blocks:
#     Node 0, Type 0, BuildingBlock: CEKHIL_clean_sbu_0, # of connection points: 4
#     Node 1, Type 0, BuildingBlock: CEKHIL_clean_sbu_0, # of connection points: 4
#     Node 2, Type 0, BuildingBlock: CEKHIL_clean_sbu_0, # of connection points: 4
#     Node 3, Type 0, BuildingBlock: CEKHIL_clean_sbu_0, # of connection points: 4
#     Node 4, Type 0, BuildingBlock: CEKHIL_clean_sbu_0, # of connection points: 4
#     Node 5, Type 0, BuildingBlock: CEKHIL_clean_sbu_0, # of connection points: 4
#     Node 6, Type 0, BuildingBlock: CEKHIL_clean_sbu_0, # of connection points: 4
#     Node 7, Type 0, BuildingBlock: CEKHIL_clean_sbu_0, # of connection points: 4
#     Node 8, Type 0, BuildingBlock: CEKHIL_clean_sbu_0, # of connection points: 4
#     Node 9, Type 0, BuildingBlock: CEKHIL_clean_sbu_0, # of connection points: 4
#     Node 10, Type 0, BuildingBlock: CEKHIL_clean_sbu_0, # of connection points: 4
#     Node 11, Type 0, BuildingBlock: CEKHIL_clean_sbu_0, # of connection points: 4
#     Node 12, Type 0, BuildingBlock: CEKHIL_clean_sbu_0, # of connection points: 4
#     Node 13, Type 0, BuildingBlock: CEKHIL_clean_sbu_0, # of connection points: 4
#     Node 14, Type 0, BuildingBlock: CEKHIL_clean_sbu_0, # of connection points: 4
#     Node 15, Type 0, BuildingBlock: CEKHIL_clean_sbu_0, # of connection points: 4
#     Node 16, Type 0, BuildingBlock: CEKHIL_clean_sbu_0, # of connection points: 4
#     Node 17, Type 0, BuildingBlock: CEKHIL_clean_sbu_0, # of connection points: 4
#     Node 18, Type 0, BuildingBlock: CEKHIL_clean_sbu_0, # of connection points: 4
#     Node 19, Type 0, BuildingBlock: CEKHIL_clean_sbu_0, # of connection points: 4
#     Node 20, Type 0, BuildingBlock: CEKHIL_clean_sbu_0, # of connection points: 4
#     Node 21, Type 0, BuildingBlock: CEKHIL_clean_sbu_0, # of connection points: 4
#     Node 22, Type 0, BuildingBlock: CEKHIL_clean_sbu_0, # of connection points: 4
#     Node 23, Type 0, BuildingBlock: CEKHIL_clean_sbu_0, # of connection points: 4
#     Node 24, Type 0, BuildingBlock: CEKHIL_clean_sbu_0, # of connection points: 4
#     Node 25, Type 0, BuildingBlock: CEKHIL_clean_sbu_0, # of connection points: 4
#     Node 26, Type 0, BuildingBlock: CEKHIL_clean_sbu_0, # of connection points: 4
#     Node 27, Type 0, BuildingBlock: CEKHIL_clean_sbu_0, # of connection points: 4
#     Node 28, Type 0, BuildingBlock: CEKHIL_clean_sbu_0, # of connection points: 4
#     Node 29, Type 0, BuildingBlock: CEKHIL_clean_sbu_0, # of connection points: 4
#     Node 30, Type 0, BuildingBlock: CEKHIL_clean_sbu_0, # of connection points: 4
#     Node 31, Type 0, BuildingBlock: CEKHIL_clean_sbu_0, # of connection points: 4
#     Edge 32, Type (0, 0), BuildingBlock: OJICUG_clean_linker_0, # of connection points: 2
#     Edge 33, Type (0, 0), BuildingBlock: OJICUG_clean_linker_0, # of connection points: 2
#     Edge 34, Type (0, 0), BuildingBlock: OJICUG_clean_linker_0, # of connection points: 2
#     Edge 35, Type (0, 0), BuildingBlock: OJICUG_clean_linker_0, # of connection points: 2
#     Edge 36, Type (0, 0), BuildingBlock: OJICUG_clean_linker_0, # of connection points: 2
#     Edge 37, Type (0, 0), BuildingBlock: OJICUG_clean_linker_0, # of connection points: 2
#     Edge 38, Type (0, 0), BuildingBlock: OJICUG_clean_linker_0, # of connection points: 2
#     Edge 39, Type (0, 0), BuildingBlock: OJICUG_clean_linker_0, # of connection points: 2
#     Edge 40, Type (0, 0), BuildingBlock: OJICUG_clean_linker_0, # of connection points: 2
#     Edge 41, Type (0, 0), BuildingBlock: OJICUG_clean_linker_0, # of connection points: 2
#     Edge 42, Type (0, 0), BuildingBlock: OJICUG_clean_linker_0, # of connection points: 2
#     Edge 43, Type (0, 0), BuildingBlock: OJICUG_clean_linker_0, # of connection points: 2
#     Edge 44, Type (0, 0), BuildingBlock: OJICUG_clean_linker_0, # of connection points: 2
#     Edge 45, Type (0, 0), BuildingBlock: OJICUG_clean_linker_0, # of connection points: 2
#     Edge 46, Type (0, 0), BuildingBlock: OJICUG_clean_linker_0, # of connection points: 2
#     Edge 47, Type (0, 0), BuildingBlock: OJICUG_clean_linker_0, # of connection points: 2
#     Edge 48, Type (0, 0), BuildingBlock: OJICUG_clean_linker_0, # of connection points: 2
#     Edge 49, Type (0, 0), BuildingBlock: OJICUG_clean_linker_0, # of connection points: 2
#     Edge 50, Type (0, 0), BuildingBlock: OJICUG_clean_linker_0, # of connection points: 2
#     Edge 51, Type (0, 0), BuildingBlock: OJICUG_clean_linker_0, # of connection points: 2
#     Edge 52, Type (0, 0), BuildingBlock: OJICUG_clean_linker_0, # of connection points: 2
#     Edge 53, Type (0, 0), BuildingBlock: OJICUG_clean_linker_0, # of connection points: 2
#     Edge 54, Type (0, 0), BuildingBlock: OJICUG_clean_linker_0, # of connection points: 2
#     Edge 55, Type (0, 0), BuildingBlock: OJICUG_clean_linker_0, # of connection points: 2
#     Edge 56, Type (0, 0), BuildingBlock: OJICUG_clean_linker_0, # of connection points: 2
#     Edge 57, Type (0, 0), BuildingBlock: OJICUG_clean_linker_0, # of connection points: 2
#     Edge 58, Type (0, 0), BuildingBlock: OJICUG_clean_linker_0, # of connection points: 2
#     Edge 59, Type (0, 0), BuildingBlock: OJICUG_clean_linker_0, # of connection points: 2
#     Edge 60, Type (0, 0), BuildingBlock: OJICUG_clean_linker_0, # of connection points: 2
#     Edge 61, Type (0, 0), BuildingBlock: OJICUG_clean_linker_0, # of connection points: 2
#     Edge 62, Type (0, 0), BuildingBlock: OJICUG_clean_linker_0, # of connection points: 2
#     Edge 63, Type (0, 0), BuildingBlock: OJICUG_clean_linker_0, # of connection points: 2
#     Edge 64, Type (0, 0), BuildingBlock: OJICUG_clean_linker_0, # of connection points: 2
#     Edge 65, Type (0, 0), BuildingBlock: OJICUG_clean_linker_0, # of connection points: 2
#     Edge 66, Type (0, 0), BuildingBlock: OJICUG_clean_linker_0, # of connection points: 2
#     Edge 67, Type (0, 0), BuildingBlock: OJICUG_clean_linker_0, # of connection points: 2
#     Edge 68, Type (0, 0), BuildingBlock: OJICUG_clean_linker_0, # of connection points: 2
#     Edge 69, Type (0, 0), BuildingBlock: OJICUG_clean_linker_0, # of connection points: 2
#     Edge 70, Type (0, 0), BuildingBlock: OJICUG_clean_linker_0, # of connection points: 2
#     Edge 71, Type (0, 0), BuildingBlock: OJICUG_clean_linker_0, # of connection points: 2
#     Edge 72, Type (0, 0), BuildingBlock: OJICUG_clean_linker_0, # of connection points: 2
#     Edge 73, Type (0, 0), BuildingBlock: OJICUG_clean_linker_0, # of connection points: 2
#     Edge 74, Type (0, 0), BuildingBlock: OJICUG_clean_linker_0, # of connection points: 2
#     Edge 75, Type (0, 0), BuildingBlock: OJICUG_clean_linker_0, # of connection points: 2
#     Edge 76, Type (0, 0), BuildingBlock: OJICUG_clean_linker_0, # of connection points: 2
#     Edge 77, Type (0, 0), BuildingBlock: OJICUG_clean_linker_0, # of connection points: 2
#     Edge 78, Type (0, 0), BuildingBlock: OJICUG_clean_linker_0, # of connection points: 2
#     Edge 79, Type (0, 0), BuildingBlock: OJICUG_clean_linker_0, # of connection points: 2
#     Edge 80, Type (0, 0), BuildingBlock: OJICUG_clean_linker_0, # of connection points: 2
#     Edge 81, Type (0, 0), BuildingBlock: OJICUG_clean_linker_0, # of connection points: 2
#     Edge 82, Type (0, 0), BuildingBlock: OJICUG_clean_linker_0, # of connection points: 2
#     Edge 83, Type (0, 0), BuildingBlock: OJICUG_clean_linker_0, # of connection points: 2
#     Edge 84, Type (0, 0), BuildingBlock: OJICUG_clean_linker_0, # of connection points: 2
#     Edge 85, Type (0, 0), BuildingBlock: OJICUG_clean_linker_0, # of connection points: 2
#     Edge 86, Type (0, 0), BuildingBlock: OJICUG_clean_linker_0, # of connection points: 2
#     Edge 87, Type (0, 0), BuildingBlock: OJICUG_clean_linker_0, # of connection points: 2
#     Edge 88, Type (0, 0), BuildingBlock: OJICUG_clean_linker_0, # of connection points: 2
#     Edge 89, Type (0, 0), BuildingBlock: OJICUG_clean_linker_0, # of connection points: 2
#     Edge 90, Type (0, 0), BuildingBlock: OJICUG_clean_linker_0, # of connection points: 2
#     Edge 91, Type (0, 0), BuildingBlock: OJICUG_clean_linker_0, # of connection points: 2
#     Edge 92, Type (0, 0), BuildingBlock: OJICUG_clean_linker_0, # of connection points: 2
#     Edge 93, Type (0, 0), BuildingBlock: OJICUG_clean_linker_0, # of connection points: 2
#     Edge 94, Type (0, 0), BuildingBlock: OJICUG_clean_linker_0, # of connection points: 2
#     Edge 95, Type (0, 0), BuildingBlock: OJICUG_clean_linker_0, # of connection points: 2
# Relax obj value: 0.082
# Max RMSD: 0.184
# Mean RMSD: 0.183
data_MOF--net-uke--node1-CEKHIL_clean_sbu_0--edge1-OJICUG_clean_linker_0
_symmetry_space_group_name_H-M    P1
_symmetry_Int_Tables_number       1
_symmetry_cell_setting            triclinic
loop_
_symmetry_equiv_pos_as_xyz
'x, y, z'
_cell_length_a     14.542526
_cell_length_b     79.025412
_cell_length_c     39.397609
_cell_angle_alpha  89.777534
_cell_angle_beta   89.997434
_cell_angle_gamma 89.995322
loop_
_atom_site_label
_atom_site_type_symbol
_atom_site_fract_x
_atom_site_fract_y
_atom_site_fract_z
_atom_type_partial_charge
Co0 Co 0.09174 0.04715 0.29211 0.0
O1 O 0.08165 0.04672 0.34019 0.0
O2 O 0.96608 0.05249 0.30547 0.0
C3 C 0.16613 0.02277 0.28652 0.0
O4 O 0.08966 0.0482 0.2397 0.0
Co5 Co 0.29307 0.05233 0.26977 0.0
O6 O 0.2399 0.04573 0.2257 0.0
C7 C 0.18492 0.08203 0.28753 0.0
C8 C -0.00353 0.05077 0.33655 0.0
C9 C 0.15516 0.04638 0.21751 0.0
O10 O 0.11884 0.07183 0.29338 0.0
O11 O 0.26536 0.07694 0.27919 0.0
O12 O 0.07773 0.02298 0.29013 0.0
O13 O 0.20772 0.03705 0.29241 0.0
Co14 Co 0.1675 0.18734 0.2593 0.0
O15 O 0.18649 0.18901 0.30669 0.0
O16 O 0.2973 0.18341 0.26999 0.0
C17 C 0.08569 0.211 0.25485 0.0
O18 O 0.16041 0.18539 0.2073 0.0
Co19 Co 0.96868 0.17952 0.24259 0.0
O20 O 0.0083 0.18501 0.19584 0.0
C21 C 0.08184 0.15205 0.26715 0.0
C22 C 0.27149 0.1854 0.30156 0.0
C23 C 0.09183 0.18582 0.18621 0.0
O24 O 0.14782 0.16257 0.26484 0.0
O25 O -0.00167 0.15638 0.26179 0.0
O26 O 0.17458 0.21132 0.25394 0.0
O27 O 0.04857 0.19656 0.26323 0.0
Co28 Co 0.09605 0.18984 0.96592 0.0
O29 O 0.08825 0.19041 0.91773 0.0
O30 O 0.97138 0.1844 0.9517 0.0
C31 C 0.16897 0.21432 0.97241 0.0
O32 O 0.09106 0.18867 0.01831 0.0
Co33 Co 0.29629 0.18494 0.98983 0.0
O34 O 0.24029 0.19133 0.03354 0.0
C35 C 0.19033 0.1551 0.97115 0.0
C36 C 0.00296 0.18631 0.92083 0.0
C37 C 0.15512 0.19054 0.04103 0.0
O38 O 0.12423 0.1652 0.96462 0.0
O39 O 0.26992 0.16031 0.98025 0.0
O40 O 0.08084 0.21399 0.96803 0.0
O41 O 0.21161 0.20014 0.96662 0.0
Co42 Co 0.17866 0.04988 0.99928 0.0
O43 O 0.19901 0.04847 0.95197 0.0
O44 O 0.30827 0.05433 0.98915 0.0
C45 C 0.09904 0.02598 1.0033 0.0
O46 O 0.16949 0.05163 0.05127 0.0
Co47 Co 0.97796 0.05709 0.01481 0.0
O48 O 0.01672 0.05163 0.0617 0.0
C49 C 0.09002 0.08492 0.99126 0.0
C50 C 0.28336 0.05243 0.95747 0.0
C51 C 0.09985 0.051 0.07188 0.0
O52 O 0.1567 0.07458 0.99407 0.0
O53 O 0.00656 0.08035 0.99586 0.0
O54 O 0.18796 0.02587 1.00426 0.0
O55 O 0.06091 0.04033 0.99493 0.0
Co56 Co 0.89962 0.93996 0.7214 0.0
O57 O 0.9078 0.94081 0.67329 0.0
O58 O 0.02397 0.93424 0.70717 0.0
C59 C 0.82846 0.96457 0.72829 0.0
O60 O 0.90383 0.93846 0.77373 0.0
Co61 Co 0.69928 0.93513 0.74456 0.0
O62 O 0.75442 0.94116 0.78863 0.0
C63 C 0.80319 0.90531 0.72476 0.0
C64 C 0.99256 0.93636 0.67632 0.0
C65 C 0.83942 0.94026 0.79633 0.0
O66 O 0.86989 0.91542 0.71928 0.0
O67 O 0.72348 0.91053 0.73372 0.0
O68 O 0.91666 0.96402 0.72422 0.0
O69 O 0.7847 0.95054 0.7221 0.0
Co70 Co 0.81435 0.79951 0.74505 0.0
O71 O 0.79453 0.79836 0.69769 0.0
O72 O 0.68479 0.80397 0.73487 0.0
C73 C 0.89401 0.77557 0.7487 0.0
O74 O 0.8233 0.80104 0.79709 0.0
Co75 Co 0.01542 0.80659 0.76073 0.0
O76 O 0.97613 0.80081 0.80739 0.0
C77 C 0.90262 0.8347 0.73874 0.0
C78 C 0.71004 0.80223 0.70318 0.0
C79 C 0.89305 0.80028 0.81764 0.0
O80 O 0.83612 0.82427 0.74052 0.0
O81 O 0.98607 0.83013 0.74342 0.0
O82 O 0.8051 0.77546 0.74945 0.0
O83 O 0.93209 0.78997 0.74067 0.0
Co84 Co 0.90754 0.79756 0.03769 0.0
O85 O 0.91961 0.79702 0.08564 0.0
O86 O 0.03419 0.8026 0.05034 0.0
C87 C 0.8314 0.77336 0.03257 0.0
O88 O 0.90714 0.79866 0.98532 0.0
Co89 Co 0.70586 0.80338 0.01691 0.0
O90 O 0.756 0.7967 0.97237 0.0
C91 C 0.81609 0.83266 0.03526 0.0
C92 C 0.00482 0.80092 0.08157 0.0
C93 C 0.84038 0.79704 0.9636 0.0
O94 O 0.88217 0.82228 0.03945 0.0
O95 O 0.73457 0.82781 0.02782 0.0
O96 O 0.92 0.7734 0.03543 0.0
O97 O 0.79087 0.78771 0.03877 0.0
Co98 Co 0.83221 0.93833 0.01494 0.0
O99 O 0.81444 0.94007 0.06241 0.0
O100 O 0.70309 0.93418 0.0261 0.0
C101 C 0.91254 0.9621 0.00973 0.0
O102 O 0.83779 0.93624 0.96293 0.0
Co103 Co 0.03127 0.93087 0.99733 0.0
O104 O 0.98956 0.93635 0.95085 0.0
C105 C 0.91939 0.90305 0.02134 0.0
C106 C 0.72949 0.93631 0.05755 0.0
C107 C 0.9057 0.93683 0.94155 0.0
O108 O 0.85337 0.91362 0.02047 0.0
O109 O 0.0024 0.90742 0.01511 0.0
O110 O 0.82361 0.9623 0.00946 0.0
O111 O 0.95072 0.94775 0.01811 0.0
Co112 Co 0.09255 0.54773 0.79411 0.0
O113 O 0.0817 0.5475 0.84218 0.0
O114 O 0.96658 0.55299 0.80705 0.0
C115 C 0.16741 0.52339 0.78887 0.0
O116 O 0.09104 0.5485 0.74169 0.0
Co117 Co 0.29337 0.55327 0.77211 0.0
O118 O 0.24161 0.54632 0.72803 0.0
C119 C 0.18422 0.5828 0.78972 0.0
C120 C -0.00359 0.55141 0.83823 0.0
C121 C 0.15694 0.54666 0.71969 0.0
O122 O 0.11857 0.57245 0.79506 0.0
O123 O 0.26523 0.57786 0.78177 0.0
O124 O 0.07905 0.5236 0.79256 0.0
O125 O 0.209 0.5377 0.79466 0.0
Co126 Co 0.1637 0.68835 0.76555 0.0
O127 O 0.17986 0.6904 0.81304 0.0
O128 O 0.29255 0.68438 0.77739 0.0
C129 C 0.08266 0.71199 0.75927 0.0
O130 O 0.15954 0.68592 0.71356 0.0
Co131 Co 0.96537 0.68042 0.74773 0.0
O132 O 0.00789 0.6857 0.70126 0.0
C133 C 0.07812 0.65293 0.77258 0.0
C134 C 0.26502 0.68665 0.80868 0.0
C135 C 0.09184 0.68627 0.69207 0.0
O136 O 0.14352 0.66362 0.77156 0.0
O137 O 0.99492 0.65711 0.76618 0.0
O138 O 0.17158 0.7123 0.75949 0.0
O139 O 0.04476 0.69765 0.76794 0.0
Co140 Co 0.09659 0.68782 0.47194 0.0
O141 O 0.08726 0.6882 0.42385 0.0
O142 O 0.97187 0.68198 0.45837 0.0
C143 C 0.16765 0.71251 0.47753 0.0
O144 O 0.09337 0.68682 0.52432 0.0
Co145 Co 0.29702 0.6833 0.49502 0.0
O146 O 0.24277 0.68983 0.53894 0.0
C147 C 0.19313 0.65324 0.47664 0.0
C148 C 0.0025 0.68384 0.42735 0.0
C149 C 0.15787 0.68891 0.54678 0.0
O150 O 0.12646 0.66328 0.47066 0.0
O151 O 0.27275 0.65856 0.48546 0.0
O152 O 0.07935 0.71187 0.47387 0.0
O153 O 0.21154 0.69843 0.47181 0.0
Co154 Co 0.17734 0.5476 0.5011 0.0
O155 O 0.19602 0.54609 0.45372 0.0
O156 O 0.30708 0.55163 0.49034 0.0
C157 C 0.09553 0.52391 0.50534 0.0
O158 O 0.16961 0.54947 0.55311 0.0
Co159 Co 0.97725 0.55529 0.51723 0.0
O160 O 0.01705 0.54973 0.56393 0.0
C161 C 0.09161 0.58294 0.49399 0.0
C162 C 0.2809 0.54978 0.45878 0.0
C163 C 0.10033 0.54903 0.57391 0.0
O164 O 0.15756 0.57239 0.49601 0.0
O165 O 0.00795 0.57858 0.49894 0.0
O166 O 0.18444 0.52354 0.50611 0.0
O167 O 0.05874 0.53839 0.49714 0.0
Co168 Co 0.89919 0.43888 0.22026 0.0
O169 O 0.9085 0.43918 0.17215 0.0
O170 O 0.02436 0.43333 0.20669 0.0
C171 C 0.82609 0.4634 0.22573 0.0
O172 O 0.9023 0.43798 0.27267 0.0
Co173 Co 0.69832 0.43405 0.24327 0.0
O174 O 0.75255 0.44073 0.28712 0.0
C175 C 0.80448 0.40416 0.22527 0.0
C176 C 0.9936 0.43505 0.17566 0.0
C177 C 0.83745 0.43998 0.29504 0.0
O178 O 0.87094 0.41425 0.21928 0.0
O179 O 0.72445 0.40939 0.2338 0.0
O180 O 0.91441 0.46302 0.22194 0.0
O181 O 0.78361 0.44918 0.22013 0.0
Co182 Co 0.81765 0.29866 0.25122 0.0
O183 O 0.79866 0.29719 0.20382 0.0
O184 O 0.68795 0.30277 0.24057 0.0
C185 C 0.89871 0.27488 0.25528 0.0
O186 O 0.825 0.30044 0.30325 0.0
Co187 Co 0.01715 0.30613 0.26787 0.0
O188 O 0.97724 0.30059 0.31456 0.0
C189 C 0.90456 0.33387 0.24405 0.0
C190 C 0.71381 0.30088 0.20899 0.0
C191 C 0.89374 0.29989 0.32426 0.0
O192 O 0.83819 0.32342 0.24609 0.0
O193 O 0.98794 0.32942 0.24927 0.0
O194 O 0.80981 0.27464 0.25621 0.0
O195 O 0.93615 0.28932 0.24713 0.0
Co196 Co 0.89203 0.29665 0.54455 0.0
O197 O 0.90074 0.29615 0.59273 0.0
O198 O 0.01696 0.3021 0.5584 0.0
C199 C 0.81856 0.27223 0.53815 0.0
O200 O 0.89622 0.29775 0.49215 0.0
Co201 Co 0.6918 0.30185 0.52113 0.0
O202 O 0.7466 0.29533 0.47729 0.0
C203 C 0.79876 0.33155 0.53957 0.0
C204 C 0.98592 0.3003 0.58937 0.0
C205 C 0.83168 0.29594 0.46959 0.0
O206 O 0.86446 0.32132 0.54581 0.0
O207 O 0.71874 0.32647 0.53069 0.0
O208 O 0.90672 0.27251 0.54251 0.0
O209 O 0.77619 0.28644 0.54405 0.0
Co210 Co 0.81999 0.43704 0.51345 0.0
O211 O 0.8007 0.43852 0.56085 0.0
O212 O 0.68992 0.43328 0.52392 0.0
C213 C 0.90286 0.46059 0.50938 0.0
O214 O 0.82768 0.43529 0.46141 0.0
Co215 Co 0.01919 0.42902 0.49706 0.0
O216 O 0.98006 0.43477 0.45037 0.0
C217 C 0.90408 0.40158 0.52069 0.0
C218 C 0.71557 0.43509 0.55554 0.0
C219 C 0.89674 0.4357 0.44052 0.0
O220 O 0.83854 0.41221 0.51851 0.0
O221 O 0.98788 0.40582 0.51565 0.0
O222 O 0.81399 0.46108 0.50856 0.0
O223 O 0.93921 0.44606 0.51757 0.0
Co224 Co 0.60106 0.04907 0.79289 0.0
O225 O 0.59251 0.04869 0.84104 0.0
O226 O 0.4763 0.0547 0.80677 0.0
C227 C 0.6733 0.0245 0.78702 0.0
O228 O 0.59696 0.05007 0.74049 0.0
Co229 Co 0.80118 0.05389 0.76942 0.0
O230 O 0.74636 0.04731 0.72563 0.0
C231 C 0.69552 0.08382 0.78747 0.0
C232 C 0.50744 0.05289 0.83772 0.0
C233 C 0.66135 0.04811 0.71792 0.0
O234 O 0.62963 0.07368 0.794 0.0
O235 O 0.7752 0.07861 0.77845 0.0
O236 O 0.58508 0.02498 0.79104 0.0
O237 O 0.71651 0.03865 0.79267 0.0
Co238 Co 0.67407 0.18913 0.75901 0.0
O239 O 0.6944 0.19075 0.8063 0.0
O240 O 0.8043 0.18525 0.76916 0.0
C241 C 0.59132 0.21272 0.75501 0.0
O242 O 0.66497 0.18721 0.70705 0.0
Co243 Co 0.4745 0.18109 0.7436 0.0
O244 O 0.51228 0.18653 0.6966 0.0
C245 C 0.58992 0.15374 0.76726 0.0
C246 C 0.7792 0.18711 0.80084 0.0
C247 C 0.59531 0.18747 0.68643 0.0
O248 O 0.65542 0.16433 0.76445 0.0
O249 O 0.50596 0.15799 0.76264 0.0
O250 O 0.68018 0.21316 0.75378 0.0
O251 O 0.55512 0.19822 0.7635 0.0
Co252 Co 0.59023 0.18984 0.46607 0.0
O253 O 0.58129 0.19004 0.41792 0.0
O254 O 0.46505 0.18439 0.45242 0.0
C255 C 0.66396 0.2143 0.47174 0.0
O256 O 0.58666 0.18907 0.51849 0.0
Co257 Co 0.79097 0.18477 0.48916 0.0
O258 O 0.7366 0.19159 0.5329 0.0
C259 C 0.6837 0.15498 0.4715 0.0
C260 C 0.496 0.18602 0.4214 0.0
C261 C 0.65165 0.19105 0.54082 0.0
O262 O 0.6176 0.16515 0.46542 0.0
O263 O 0.764 0.16013 0.47987 0.0
O264 O 0.57578 0.21401 0.4675 0.0
O265 O 0.70608 0.20003 0.46617 0.0
Co266 Co 0.67002 0.04958 0.49931 0.0
O267 O 0.6878 0.04768 0.45187 0.0
O268 O 0.7993 0.05362 0.48807 0.0
C269 C 0.58909 0.02586 0.50473 0.0
O270 O 0.66422 0.05183 0.5513 0.0
Co271 Co 0.4709 0.05722 0.51659 0.0
O272 O 0.51233 0.05191 0.5632 0.0
C273 C 0.58293 0.08479 0.49153 0.0
C274 C 0.77279 0.05142 0.45664 0.0
C275 C 0.59611 0.05136 0.57261 0.0
O276 O 0.64923 0.0743 0.49338 0.0
O277 O 0.49975 0.08042 0.49742 0.0
O278 O 0.67802 0.02559 0.50512 0.0
O279 O 0.55142 0.04023 0.4962 0.0
Co280 Co 0.40693 0.93989 0.22109 0.0
O281 O 0.4182 0.9403 0.17307 0.0
O282 O 0.53329 0.93484 0.20822 0.0
C283 C 0.33095 0.96411 0.2264 0.0
O284 O 0.40766 0.93895 0.27348 0.0
Co285 Co 0.20566 0.93408 0.24249 0.0
O286 O 0.25674 0.94087 0.28681 0.0
C287 C 0.31575 0.90477 0.22425 0.0
C288 C 0.50355 0.93646 0.17703 0.0
C289 C 0.34129 0.94061 0.29535 0.0
O290 O 0.38166 0.91516 0.21972 0.0
O291 O 0.23432 0.90963 0.23181 0.0
O292 O 0.41941 0.96406 0.223 0.0
O293 O 0.29021 0.94975 0.22039 0.0
Co294 Co 0.33048 0.79909 0.24447 0.0
O295 O 0.31412 0.79728 0.19694 0.0
O296 O 0.20191 0.80337 0.23277 0.0
C297 C 0.40982 0.77525 0.25039 0.0
O298 O 0.33468 0.80127 0.29651 0.0
Co299 Co 0.52947 0.80643 0.26262 0.0
O300 O 0.48626 0.80107 0.30897 0.0
C301 C 0.41861 0.83433 0.23835 0.0
C302 C 0.22914 0.80115 0.20144 0.0
C303 C 0.4022 0.80067 0.31805 0.0
O304 O 0.35251 0.82378 0.23891 0.0
O305 O 0.50141 0.82994 0.24489 0.0
O306 O 0.32089 0.77513 0.25009 0.0
O307 O 0.44874 0.78953 0.24199 0.0
Co308 Co 0.39473 0.79802 0.53816 0.0
O309 O 0.40314 0.79734 0.58626 0.0
O310 O 0.51915 0.80379 0.5522 0.0
C311 C 0.32359 0.7734 0.53174 0.0
O312 O 0.39888 0.79935 0.48581 0.0
Co313 Co 0.19493 0.80284 0.51477 0.0
O314 O 0.24966 0.79646 0.47085 0.0
C315 C 0.29903 0.83271 0.53403 0.0
C316 C 0.48787 0.80179 0.5831 0.0
C317 C 0.33466 0.79739 0.46319 0.0
O318 O 0.3652 0.82256 0.53998 0.0
O319 O 0.21947 0.82752 0.52484 0.0
O320 O 0.41183 0.774 0.53565 0.0
O321 O 0.27965 0.78746 0.53773 0.0
Co322 Co 0.31813 0.93849 0.51391 0.0
O323 O 0.29886 0.93959 0.56131 0.0
O324 O 0.18829 0.93437 0.52427 0.0
C325 C 0.39954 0.96224 0.51047 0.0
O326 O 0.32646 0.93706 0.46185 0.0
Co327 Co 0.51815 0.93093 0.49787 0.0
O328 O 0.47915 0.93696 0.45131 0.0
C329 C 0.40346 0.90305 0.5196 0.0
C330 C 0.214 0.93598 0.55593 0.0
C331 C 0.39601 0.93771 0.4412 0.0
O332 O 0.33783 0.91367 0.51815 0.0
O333 O 0.48722 0.9074 0.51485 0.0
O334 O 0.31065 0.96255 0.50971 0.0
O335 O 0.43673 0.94774 0.51835 0.0
Co336 Co 0.5934 0.54697 0.29257 0.0
O337 O 0.58623 0.54631 0.34072 0.0
O338 O 0.46865 0.55224 0.30705 0.0
C339 C 0.66715 0.52259 0.28592 0.0
O340 O 0.58814 0.54821 0.2402 0.0
Co341 Co 0.79314 0.55231 0.26878 0.0
O342 O 0.73756 0.54579 0.22507 0.0
C343 C 0.68622 0.58189 0.28811 0.0
C344 C 0.50083 0.55034 0.33785 0.0
C345 C 0.65238 0.54643 0.21752 0.0
O346 O 0.62047 0.57164 0.29408 0.0
O347 O 0.76626 0.57685 0.27913 0.0
O348 O 0.57902 0.52284 0.29027 0.0
O349 O 0.7094 0.53682 0.29174 0.0
Co350 Co 0.67371 0.6874 0.26603 0.0
O351 O 0.69376 0.6886 0.31339 0.0
O352 O 0.80298 0.68271 0.27617 0.0
C353 C 0.59516 0.71141 0.2621 0.0
O354 O 0.66478 0.68579 0.21401 0.0
Co355 Co 0.47271 0.68046 0.25029 0.0
O356 O 0.51203 0.68616 0.20359 0.0
C357 C 0.58431 0.6523 0.2726 0.0
C358 C 0.77798 0.68453 0.30786 0.0
C359 C 0.59518 0.68661 0.1934 0.0
O360 O 0.65088 0.66271 0.27077 0.0
O361 O 0.50097 0.6569 0.26776 0.0
O362 O 0.68409 0.7114 0.26144 0.0
O363 O 0.55631 0.69709 0.27028 0.0
Co364 Co 0.58386 0.68966 0.97329 0.0
O365 O 0.57282 0.6902 0.9253 0.0
O366 O 0.45749 0.68462 0.96024 0.0
C367 C 0.65966 0.71391 0.97858 0.0
O368 O 0.58323 0.68857 0.02567 0.0
Co369 Co 0.78547 0.68404 0.99463 0.0
O370 O 0.73407 0.69067 0.03901 0.0
C371 C 0.67586 0.65463 0.97633 0.0
C372 C 0.48749 0.68634 0.92911 0.0
C373 C 0.64955 0.69023 0.04757 0.0
O374 O 0.6096 0.66494 0.97168 0.0
O375 O 0.75705 0.65958 0.984 0.0
O376 O 0.57112 0.71384 0.9755 0.0
O377 O 0.70037 0.69957 0.97251 0.0
Co378 Co 0.66441 0.54908 0.99918 0.0
O379 O 0.68398 0.5475 0.9518 0.0
O380 O 0.79376 0.55348 0.98872 0.0
C381 C 0.58497 0.52518 1.00369 0.0
O382 O 0.65694 0.55101 0.05119 0.0
Co383 Co 0.46461 0.55623 0.01594 0.0
O384 O 0.50482 0.55084 0.06266 0.0
C385 C 0.57556 0.58418 0.9921 0.0
C386 C 0.76854 0.55141 0.95712 0.0
C387 C 0.58842 0.55036 0.07228 0.0
O388 O 0.64222 0.57377 0.99372 0.0
O389 O 0.49252 0.57965 0.99777 0.0
O390 O 0.6739 0.52511 1.00448 0.0
O391 O 0.54644 0.53949 0.99531 0.0
Co392 Co 0.39674 0.43997 0.72003 0.0
O393 O 0.40631 0.44076 0.67192 0.0
O394 O 0.52152 0.43425 0.7063 0.0
C395 C 0.32508 0.46457 0.72668 0.0
O396 O 0.39968 0.4385 0.77239 0.0
Co397 Co 0.19555 0.43524 0.74269 0.0
O398 O 0.24996 0.44122 0.7869 0.0
C399 C 0.30036 0.40533 0.72383 0.0
C400 C 0.49103 0.43633 0.67532 0.0
C401 C 0.3348 0.44029 0.79482 0.0
O402 O 0.36705 0.4154 0.71801 0.0
O403 O 0.22064 0.41059 0.73267 0.0
O404 O 0.41337 0.46407 0.72279 0.0
O405 O 0.28181 0.4505 0.72037 0.0
Co406 Co 0.31683 0.29976 0.75067 0.0
O407 O 0.2965 0.29829 0.70335 0.0
O408 O 0.18649 0.30355 0.74057 0.0
C409 C 0.3996 0.27616 0.75437 0.0
O410 O 0.32567 0.30149 0.80268 0.0
Co411 Co 0.51646 0.30765 0.7665 0.0
O412 O 0.47825 0.30202 0.81336 0.0
C413 C 0.40155 0.33512 0.74281 0.0
C414 C 0.21148 0.30172 0.70888 0.0
C415 C 0.39511 0.30107 0.8234 0.0
O416 O 0.33559 0.3246 0.74551 0.0
O417 O 0.48533 0.33077 0.7475 0.0
O418 O 0.31076 0.27572 0.75559 0.0
O419 O 0.43582 0.29069 0.74611 0.0
Co420 Co 0.39783 0.29697 0.04374 0.0
O421 O 0.40607 0.29646 0.09189 0.0
O422 O 0.52279 0.30235 0.05778 0.0
C423 C 0.32419 0.27256 0.03743 0.0
O424 O 0.40203 0.29809 0.99133 0.0
Co425 Co 0.19751 0.3022 0.02041 0.0
O426 O 0.25232 0.2956 0.97661 0.0
C427 C 0.30476 0.33186 0.03894 0.0
C428 C 0.49133 0.30054 0.0887 0.0
C429 C 0.33734 0.29624 0.96884 0.0
O430 O 0.37053 0.32163 0.045 0.0
O431 O 0.22458 0.3268 0.0302 0.0
O432 O 0.41236 0.27283 0.04171 0.0
O433 O 0.28195 0.28679 0.04325 0.0
Co434 Co 0.32047 0.43724 0.01326 0.0
O435 O 0.30186 0.43893 0.06066 0.0
O436 O 0.19113 0.43301 0.02413 0.0
C437 C 0.40062 0.46105 0.00836 0.0
O438 O 0.32738 0.43522 0.96126 0.0
Co439 Co 0.5198 0.42974 0.99657 0.0
O440 O 0.47957 0.43519 0.94988 0.0
C441 C 0.40778 0.40203 0.02066 0.0
C442 C 0.21713 0.43507 0.05565 0.0
C443 C 0.39603 0.43578 0.9402 0.0
O444 O 0.34166 0.41254 0.01883 0.0
O445 O 0.4911 0.40642 0.01512 0.0
O446 O 0.3117 0.4612 0.00779 0.0
O447 O 0.43882 0.44672 0.01687 0.0
C448 C 0.1988 0.04467 0.12258 0.0
C449 C 0.11358 0.04939 0.10913 0.0
H450 H 0.27756 0.03943 0.16687 0.0
C451 C 0.03938 0.05212 0.1317 0.0
H452 H 0.25683 0.04223 0.10606 0.0
C453 C 0.05091 0.05058 0.1669 0.0
C454 C 0.13681 0.0462 0.18036 0.0
H455 H 0.97223 0.05573 0.12223 0.0
H456 H 0.99333 0.05323 0.18349 0.0
C457 C 0.2101 0.04299 0.15762 0.0
C458 C 0.04826 0.18604 0.09082 0.0
C459 C 0.13454 0.19067 0.07803 0.0
H460 H 0.96746 0.18069 0.13489 0.0
C461 C 0.20621 0.19409 0.10132 0.0
H462 H 0.99189 0.18322 0.07378 0.0
C463 C 0.19303 0.19238 0.13627 0.0
C464 C 0.10746 0.18743 0.14906 0.0
H465 H 0.27387 0.19784 0.09261 0.0
H466 H 0.24988 0.195 0.15322 0.0
C467 C 0.03481 0.18448 0.12593 0.0
C468 C 0.96229 0.93601 0.88119 0.0
C469 C 0.88892 0.93806 0.90441 0.0
H470 H 0.00513 0.93513 0.82901 0.0
C471 C 0.80122 0.94157 0.89168 0.0
H472 H 0.03125 0.93331 0.89006 0.0
C473 C 0.78687 0.9428 0.85672 0.0
C474 C 0.85964 0.94039 0.83336 0.0
H475 H 0.74354 0.9434 0.90868 0.0
H476 H 0.71763 0.94545 0.84808 0.0
C477 C 0.94779 0.93712 0.84608 0.0
C478 C 0.94407 0.79981 0.91248 0.0
C479 C 0.85716 0.7966 0.92635 0.0
H480 H 0.02332 0.80361 0.86749 0.0
C481 C 0.78227 0.7941 0.90396 0.0
H482 H 0.00296 0.80185 0.92879 0.0
C483 C 0.79329 0.79531 0.86881 0.0
C484 C 0.87969 0.79887 0.85495 0.0
H485 H 0.71391 0.79147 0.91352 0.0
H486 H 0.73406 0.79348 0.85256 0.0
C487 C 0.95523 0.8009 0.87722 0.0
C488 C 0.05195 0.54941 0.66894 0.0
C489 C 0.13886 0.54594 0.68255 0.0
H490 H 0.97189 0.55324 0.62415 0.0
C491 C 0.21275 0.54296 0.65995 0.0
H492 H 0.99383 0.55183 0.68542 0.0
C493 C 0.20086 0.54398 0.62482 0.0
C494 C 0.11454 0.54782 0.6112 0.0
H495 H 0.28104 0.54011 0.66933 0.0
H496 H 0.25938 0.54179 0.6084 0.0
C497 C 0.0399 0.55031 0.6337 0.0
C498 C 0.19622 0.69096 0.64208 0.0
C499 C 0.10877 0.68731 0.65491 0.0
H500 H 0.27949 0.69476 0.59834 0.0
C501 C 0.03556 0.68495 0.63174 0.0
H502 H 0.25374 0.69302 0.65904 0.0
C503 C 0.04995 0.68589 0.59663 0.0
C504 C 0.13782 0.68929 0.5838 0.0
H505 H 0.96678 0.68214 0.64066 0.0
H506 H 0.99273 0.68366 0.57963 0.0
C507 C 0.21046 0.69201 0.60708 0.0
C508 C 0.79651 0.44202 0.39013 0.0
C509 C 0.88207 0.43731 0.40331 0.0
H510 H 0.71651 0.44712 0.34608 0.0
C511 C 0.95559 0.43449 0.38048 0.0
H512 H 0.73896 0.44452 0.40684 0.0
C513 C 0.94305 0.43591 0.34531 0.0
C514 C 0.8568 0.44027 0.33213 0.0
H515 H 0.02297 0.43089 0.38972 0.0
H516 H 0.00014 0.4332 0.32854 0.0
C517 C 0.7842 0.44359 0.35511 0.0
C518 C 0.79238 0.29385 0.37444 0.0
C519 C 0.87838 0.2984 0.36144 0.0
H520 H 0.71137 0.28894 0.41832 0.0
C521 C 0.95161 0.30116 0.38442 0.0
H522 H 0.73503 0.2914 0.35762 0.0
C523 C 0.93837 0.29983 0.41957 0.0
C524 C 0.85169 0.29562 0.43256 0.0
H525 H 0.0193 0.30464 0.37531 0.0
H526 H 0.99526 0.30248 0.43647 0.0
C527 C 0.77937 0.29237 0.40944 0.0
C528 C 0.5533 0.05121 0.66805 0.0
C529 C 0.6412 0.04782 0.68089 0.0
H530 H 0.47035 0.05512 0.62398 0.0
C531 C 0.71398 0.04524 0.6576 0.0
H532 H 0.49596 0.05333 0.68506 0.0
C533 C 0.69996 0.04647 0.62262 0.0
C534 C 0.61255 0.05013 0.60978 0.0
H535 H 0.78304 0.04249 0.66632 0.0
H536 H 0.75767 0.04452 0.60569 0.0
C537 C 0.53911 0.05231 0.63293 0.0
C538 C 0.69347 0.19404 0.63567 0.0
C539 C 0.60898 0.18893 0.64916 0.0
H540 H 0.7718 0.19934 0.5913 0.0
C541 C 0.53548 0.1856 0.62661 0.0
H542 H 0.75087 0.19696 0.65217 0.0
C543 C 0.54718 0.18689 0.59137 0.0
C544 C 0.63251 0.19161 0.57789 0.0
H545 H 0.4689 0.18169 0.63612 0.0
H546 H 0.49033 0.18375 0.5748 0.0
C547 C 0.70489 0.19548 0.60059 0.0
C548 C 0.45756 0.93709 0.38151 0.0
C549 C 0.38231 0.93916 0.40391 0.0
H550 H 0.50452 0.93598 0.32986 0.0
C551 C 0.29574 0.94271 0.39019 0.0
H552 H 0.52578 0.93439 0.39113 0.0
C553 C 0.28421 0.94382 0.35505 0.0
C554 C 0.35875 0.94123 0.33254 0.0
H555 H 0.23673 0.94457 0.40653 0.0
H556 H 0.21571 0.94643 0.3456 0.0
C557 C 0.44588 0.93808 0.34626 0.0
C558 C 0.44312 0.80069 0.41355 0.0
C559 C 0.35515 0.7972 0.42619 0.0
H560 H 0.52668 0.80467 0.36969 0.0
C561 C 0.28278 0.79455 0.40276 0.0
H562 H 0.50012 0.80287 0.43068 0.0
C563 C 0.29736 0.79578 0.3678 0.0
C564 C 0.3849 0.79951 0.35516 0.0
H565 H 0.2137 0.79173 0.41135 0.0
H566 H 0.24004 0.79376 0.35073 0.0
C567 C 0.45785 0.8018 0.37848 0.0
C568 C 0.69064 0.54454 0.12229 0.0
C569 C 0.60426 0.54894 0.10944 0.0
H570 H 0.77243 0.53974 0.16599 0.0
C571 C 0.53118 0.55159 0.13254 0.0
H572 H 0.74791 0.54218 0.10537 0.0
C573 C 0.54492 0.55026 0.16767 0.0
C574 C 0.63194 0.54617 0.18051 0.0
H575 H 0.46322 0.55496 0.12354 0.0
H576 H 0.4881 0.55281 0.18467 0.0
C577 C 0.70415 0.54307 0.15725 0.0
C578 C 0.69533 0.69173 0.14244 0.0
C579 C 0.60886 0.68807 0.15612 0.0
H580 H 0.77514 0.69578 0.09792 0.0
C581 C 0.53362 0.68604 0.13371 0.0
H582 H 0.75432 0.69357 0.1588 0.0
C583 C 0.54517 0.68724 0.09847 0.0
C584 C 0.63217 0.69057 0.08478 0.0
H585 H 0.4655 0.68325 0.14332 0.0
H586 H 0.48653 0.6852 0.08205 0.0
C587 C 0.70673 0.69306 0.10733 0.0
C588 C 0.44112 0.43629 0.84493 0.0
C589 C 0.35412 0.44025 0.83192 0.0
H590 H 0.52228 0.4316 0.88917 0.0
C591 C 0.28118 0.44305 0.85503 0.0
H592 H 0.4985 0.43397 0.82804 0.0
C593 C 0.29411 0.44147 0.89001 0.0
C594 C 0.38058 0.43724 0.90302 0.0
H595 H 0.21285 0.44625 0.84616 0.0
H596 H 0.23635 0.44362 0.90682 0.0
C597 C 0.45423 0.43484 0.88006 0.0
C598 C 0.45422 0.30253 0.88338 0.0
C599 C 0.38103 0.29935 0.86061 0.0
H600 H 0.49885 0.30396 0.93532 0.0
C601 C 0.29651 0.29406 0.87382 0.0
H602 H 0.52081 0.30657 0.87409 0.0
C603 C 0.28479 0.2923 0.90883 0.0
C604 C 0.35688 0.29601 0.93177 0.0
H605 H 0.23934 0.29125 0.85714 0.0
H606 H 0.21788 0.28831 0.91789 0.0
C607 C 0.44223 0.30092 0.91856 0.0
C608 C 0.33928 -0.00609 0.24572 0.0
C609 C 0.28641 0.97916 0.24062 0.0
H610 H 0.34331 0.01925 0.2648 0.0
C611 C 0.19492 0.9788 0.25132 0.0
H612 H 0.41048 -0.00546 0.23774 0.0
C613 C 0.15703 0.99296 0.26701 0.0
C614 C 0.21001 0.00769 0.27215 0.0
H615 H 0.15316 0.96758 0.24797 0.0
H616 H 0.08582 0.99235 0.275 0.0
C617 C 0.30145 0.00804 0.26143 0.0
C618 C 0.90069 0.24386 0.26529 0.0
C619 C 0.94847 0.25875 0.25632 0.0
H620 H 0.90603 0.21691 0.27126 0.0
C621 C 0.04021 0.25771 0.24608 0.0
H622 H 0.82943 0.24431 0.27326 0.0
C623 C 0.08339 0.24199 0.24466 0.0
C624 C 0.03567 0.2271 0.25368 0.0
H625 H 0.0781 0.26894 0.23872 0.0
H626 H 0.15464 0.24155 0.23669 0.0
C627 C 0.94389 0.22814 0.26389 0.0
C628 C 0.30112 0.22902 0.99983 0.0
C629 C 0.21074 0.22932 0.98793 0.0
H630 H 0.40688 0.24243 0.02567 0.0
C631 C 0.15633 0.24387 0.99314 0.0
H632 H 0.34402 0.21795 0.99643 0.0
C633 C 0.19168 0.25788 0.01011 0.0
C634 C 0.2821 0.25757 0.02199 0.0
H635 H 0.0859 0.24444 0.98427 0.0
H636 H 0.14882 0.26895 0.0135 0.0
C637 C 0.33644 0.24301 0.0168 0.0
C638 C 0.09878 -0.00495 0.01447 0.0
C639 C 0.04972 0.00983 1.00569 0.0
H640 H 0.09431 0.9682 0.02212 0.0
C641 C 0.95655 0.00868 0.99748 0.0
H642 H 0.17115 -0.00443 0.0209 0.0
C643 C 0.91314 0.99297 0.99797 0.0
C644 C 0.96213 0.9782 0.00685 0.0
H645 H 0.91758 0.01983 0.99039 0.0
H646 H 0.84075 0.99245 0.99158 0.0
C647 C 0.05537 0.97934 0.01496 0.0
C648 C 0.66001 -0.0054 0.76852 0.0
C649 C 0.71515 0.00912 0.77308 0.0
H650 H 0.65203 0.96912 0.75031 0.0
C651 C 0.80658 0.0089 0.76233 0.0
H652 H 0.58879 -0.00559 0.77657 0.0
C653 C 0.84218 -0.00558 0.74712 0.0
C654 C 0.78695 0.97993 0.74249 0.0
H655 H 0.85009 0.01993 0.76529 0.0
H656 H 0.91339 -0.00539 0.73906 0.0
C657 C 0.69558 0.98013 0.75329 0.0
C658 C 0.08161 0.74277 0.74642 0.0
C659 C 0.03255 0.72798 0.75523 0.0
H660 H 0.07667 0.76956 0.73791 0.0
C661 C 0.93851 0.72904 0.76202 0.0
H662 H 0.15459 0.74232 0.741 0.0
C663 C 0.89441 0.74467 0.76038 0.0
C664 C 0.94362 0.75947 0.7518 0.0
H665 H 0.89942 0.71789 0.76903 0.0
H666 H 0.82146 0.74513 0.76586 0.0
C667 C 0.03754 0.7584 0.74482 0.0
C668 C 0.79791 0.72891 1.00071 0.0
C669 C 0.70522 0.72913 0.99156 0.0
H670 H 0.90989 0.74278 0.02152 0.0
C671 C 0.653 0.74396 0.99658 0.0
H672 H 0.83924 0.71763 0.99737 0.0
C673 C 0.69287 0.75836 0.01059 0.0
C674 C 0.7856 0.75814 0.01972 0.0
H675 H 0.58088 0.74447 0.98978 0.0
H676 H 0.65157 0.76964 0.01393 0.0
C677 C 0.83777 0.7433 0.01472 0.0
C678 C 0.15632 0.49367 0.76927 0.0
C679 C 0.21049 0.50827 0.77429 0.0
H680 H 0.14934 0.46845 0.74967 0.0
C681 C 0.30152 0.50843 0.76304 0.0
H682 H 0.08545 0.49317 0.77767 0.0
C683 C 0.33756 0.49425 0.74682 0.0
C684 C 0.28316 0.47969 0.74168 0.0
H685 H 0.34427 0.51953 0.76632 0.0
H686 H 0.40842 0.4947 0.73839 0.0
C687 C 0.19226 0.47952 0.75301 0.0
C688 C 0.18983 0.75736 0.50867 0.0
C689 C 0.28189 0.75784 0.51859 0.0
H690 H 0.08215 0.74258 0.48727 0.0
C691 C 0.33745 0.74336 0.5143 0.0
H692 H 0.14599 0.76835 0.51144 0.0
C693 C 0.30152 0.72861 0.5003 0.0
C694 C 0.20942 0.72811 0.49043 0.0
H695 H 0.40918 0.74338 0.52171 0.0
H696 H 0.34534 0.71762 0.49756 0.0
C697 C 0.15389 0.74261 0.49466 0.0
C698 C 0.04715 0.47735 0.51589 0.0
C699 C 0.95406 0.47656 0.50734 0.0
H700 H 0.1643 0.49318 0.52269 0.0
C701 C 0.90671 0.49155 0.49874 0.0
H702 H 0.08484 0.46603 0.52285 0.0
C703 C 0.95157 0.50712 0.49888 0.0
C704 C 0.04464 0.50792 0.50743 0.0
H705 H 0.83448 0.49131 0.49204 0.0
H706 H 0.91384 0.51843 0.49192 0.0
C707 C 0.09205 0.49293 0.51601 0.0
C708 C 0.65568 0.49282 0.26652 0.0
C709 C 0.70978 0.50745 0.27131 0.0
H710 H 0.64944 0.46742 0.24781 0.0
C711 C 0.80093 0.50757 0.26021 0.0
H712 H 0.58467 0.49238 0.27479 0.0
C713 C 0.8374 0.49328 0.24456 0.0
C714 C 0.78334 0.47864 0.23987 0.0
H715 H 0.8436 0.51869 0.26331 0.0
H716 H 0.90843 0.4937 0.23632 0.0
C717 C 0.69212 0.47855 0.25087 0.0
C718 C 0.68658 0.25769 0.51017 0.0
C719 C 0.77676 0.25731 0.52229 0.0
H720 H 0.58121 0.24442 0.4838 0.0
C721 C 0.83119 0.24279 0.51687 0.0
H722 H 0.64366 0.26875 0.51372 0.0
C723 C 0.79612 0.22888 0.4995 0.0
C724 C 0.70591 0.22925 0.48742 0.0
H725 H 0.90148 0.24215 0.52588 0.0
H726 H 0.83903 0.21782 0.49597 0.0
C727 C 0.65151 0.24379 0.4928 0.0
C728 C 0.40378 0.24516 0.76464 0.0
C729 C 0.4506 0.26016 0.75564 0.0
H730 H 0.41102 0.21825 0.77093 0.0
C731 C 0.54269 0.25932 0.74574 0.0
H732 H 0.33231 0.24544 0.77236 0.0
C733 C 0.58715 0.24372 0.74469 0.0
C734 C 0.54033 0.22872 0.7537 0.0
H735 H 0.5799 0.27064 0.73841 0.0
H736 H 0.65862 0.24344 0.73697 0.0
C737 C 0.44824 0.22956 0.76359 0.0
C738 C 0.58734 -0.00508 0.51603 0.0
C739 C 0.53894 0.00981 0.50745 0.0
H740 H 0.58165 0.96803 0.52321 0.0
C741 C 0.44556 0.00884 0.49949 0.0
H742 H 0.65984 -0.0047 0.52229 0.0
C743 C 0.40141 0.9932 0.49981 0.0
C744 C 0.44982 0.9783 0.50828 0.0
H745 H 0.40703 0.02007 0.49258 0.0
H746 H 0.32895 0.99283 0.49349 0.0
C747 C 0.54316 0.97927 0.51635 0.0
C748 C 0.4522 0.72878 0.26516 0.0
C749 C 0.54634 0.72757 0.25869 0.0
H750 H 0.33571 0.74504 0.26825 0.0
C751 C 0.59649 0.74228 0.25026 0.0
H752 H 0.41233 0.71769 0.27192 0.0
C753 C 0.55316 0.75797 0.24831 0.0
C754 C 0.45894 0.75917 0.2546 0.0
H755 H 0.66963 0.74172 0.24517 0.0
H756 H 0.593 0.76905 0.24147 0.0
C757 C 0.40887 0.74447 0.26322 0.0
C758 C 0.54244 0.47847 0.01496 0.0
C759 C 0.44983 0.47721 0.00598 0.0
H760 H 0.65709 0.49487 0.02204 0.0
C761 C 0.4008 0.49193 0.99678 0.0
H762 H 0.58136 0.46737 0.02239 0.0
C763 C 0.44352 0.50771 0.99681 0.0
C764 C 0.53608 0.50898 1.00585 0.0
H765 H 0.32889 0.49132 0.98971 0.0
H766 H 0.40456 0.51881 0.9894 0.0
C767 C 0.58519 0.49425 0.01497 0.0
C768 C 0.04147 0.12211 0.28325 0.0
C769 C 0.10762 0.13429 0.27495 0.0
H770 H 0.01426 0.09621 0.29474 0.0
C771 C 0.20105 0.12939 0.27366 0.0
H772 H 0.96937 0.12546 0.28479 0.0
C773 C 0.22725 0.11259 0.27913 0.0
C774 C 0.16085 0.10029 0.28641 0.0
H775 H 0.25441 0.13846 0.26749 0.0
H776 H 0.29912 0.1092 0.27676 0.0
C777 C 0.0678 0.10533 0.28916 0.0
C778 C 0.07453 0.13158 0.96871 0.0
C779 C 0.16708 0.13681 0.97223 0.0
H780 H 0.97699 0.11126 0.9724 0.0
C781 C 0.23362 0.12466 0.98031 0.0
H782 H 0.0209 0.14059 0.9625 0.0
C783 C 0.20803 0.10784 0.98578 0.0
C784 C 0.11502 0.10274 0.98367 0.0
H785 H 0.30513 0.12819 0.98331 0.0
H786 H 0.2615 0.0989 0.99257 0.0
C787 C 0.04874 0.11477 0.9746 0.0
C788 C 0.9182 0.88176 0.72012 0.0
C789 C 0.82585 0.88699 0.72441 0.0
H790 H 0.01541 0.86134 0.72171 0.0
C791 C 0.75921 0.87471 0.7316 0.0
H792 H 0.97192 0.89084 0.71451 0.0
C793 C 0.7846 0.85776 0.73545 0.0
C794 C 0.87748 0.85265 0.73259 0.0
H795 H 0.68787 0.87823 0.73513 0.0
H796 H 0.73117 0.84871 0.74162 0.0
C797 C 0.94376 0.86483 0.72442 0.0
C798 C 0.96066 0.87264 0.03279 0.0
C799 C 0.8939 0.88516 0.02791 0.0
H800 H 0.98839 0.84638 0.03975 0.0
C801 C 0.80013 0.8804 0.02819 0.0
H802 H 0.03309 0.87583 0.03297 0.0
C803 C 0.774 0.86348 0.03175 0.0
C804 C 0.84087 0.85088 0.03556 0.0
H805 H 0.74629 0.88972 0.02466 0.0
H806 H 0.70167 0.86025 0.03072 0.0
C807 C 0.93447 0.85573 0.03681 0.0
C808 C 0.22525 0.61357 0.78339 0.0
C809 C 0.15914 0.60102 0.78913 0.0
H810 H 0.25157 0.63969 0.77392 0.0
C811 C 0.06561 0.60584 0.7913 0.0
H812 H 0.29749 0.61036 0.78154 0.0
C813 C 0.03863 0.62266 0.78636 0.0
C814 C 0.10457 0.63512 0.77966 0.0
H815 H 0.01224 0.59653 0.79571 0.0
H816 H 0.96623 0.62583 0.78738 0.0
C817 C 0.19838 0.63041 0.77893 0.0
C818 C 0.2363 0.62273 0.48564 0.0
C819 C 0.17033 0.63492 0.47714 0.0
H820 H 0.26314 0.59686 0.49755 0.0
C821 C 0.07815 0.62969 0.47246 0.0
H822 H 0.30748 0.62626 0.48954 0.0
C823 C 0.05199 0.61286 0.47766 0.0
C824 C 0.11753 0.60078 0.48712 0.0
H825 H 0.02493 0.6387 0.46583 0.0
H826 H 0.98046 0.60936 0.47457 0.0
C827 C 0.21033 0.60585 0.49038 0.0
C828 C 0.78631 0.35677 0.23852 0.0
C829 C 0.87944 0.35171 0.23677 0.0
H830 H 0.68919 0.37714 0.23616 0.0
C831 C 0.946 0.36383 0.2285 0.0
H832 H 0.73268 0.34776 0.24471 0.0
C833 C 0.92037 0.38067 0.22302 0.0
C834 C 0.82766 0.38586 0.22617 0.0
H835 H 0.01788 0.36036 0.22662 0.0
H836 H 0.97423 0.38972 0.2174 0.0
C837 C 0.76083 0.37364 0.23348 0.0
C838 C 0.75736 0.36215 0.53086 0.0
C839 C 0.82308 0.3498 0.53871 0.0
H840 H 0.73139 0.38805 0.51913 0.0
C841 C 0.91597 0.3548 0.54232 0.0
H842 H 0.68563 0.35879 0.52779 0.0
C843 C 0.94292 0.37157 0.53676 0.0
C844 C 0.87751 0.3838 0.52796 0.0
H845 H 0.96901 0.34565 0.54837 0.0
H846 H 0.01492 0.37488 0.53902 0.0
C847 C 0.78414 0.37895 0.52575 0.0
C848 C 0.73681 0.11432 0.77735 0.0
C849 C 0.67155 0.10208 0.78635 0.0
H850 H 0.76218 0.1401 0.76432 0.0
C851 C 0.57904 0.10718 0.79076 0.0
H852 H 0.80821 0.11089 0.77363 0.0
C853 C 0.55188 0.1239 0.78481 0.0
C854 C 0.61673 0.13601 0.77483 0.0
H855 H 0.52636 0.09812 0.79774 0.0
H856 H 0.48014 0.12728 0.78772 0.0
C857 C 0.70984 0.13108 0.77185 0.0
C858 C 0.56682 0.13163 0.47067 0.0
C859 C 0.65993 0.13671 0.4727 0.0
H860 H 0.46901 0.11142 0.47543 0.0
C861 C 0.72697 0.1244 0.47912 0.0
H862 H 0.5128 0.14075 0.46579 0.0
C863 C 0.70141 0.10755 0.48438 0.0
C864 C 0.608 0.1026 0.48378 0.0
H865 H 0.79893 0.12782 0.4809 0.0
H866 H 0.75529 0.09848 0.48986 0.0
C867 C 0.54114 0.1148 0.47639 0.0
C868 C 0.27362 0.87395 0.2277 0.0
C869 C 0.34058 0.88654 0.22414 0.0
H870 H 0.24567 0.84771 0.23456 0.0
C871 C 0.43421 0.8817 0.22325 0.0
H872 H 0.20127 0.87719 0.22846 0.0
C873 C 0.46028 0.86478 0.22728 0.0
C874 C 0.39337 0.85225 0.23182 0.0
H875 H 0.4882 0.89105 0.22055 0.0
H876 H 0.5327 0.86157 0.22735 0.0
C877 C 0.29962 0.85702 0.23126 0.0
C878 C 0.44164 0.87293 0.53495 0.0
C879 C 0.37689 0.88516 0.52553 0.0
H880 H 0.46731 0.84697 0.54615 0.0
C881 C 0.2841 0.8802 0.52151 0.0
H882 H 0.51312 0.87632 0.5386 0.0
C883 C 0.25736 0.86333 0.52555 0.0
C884 C 0.32253 0.851 0.53411 0.0
H885 H 0.23192 0.88932 0.51429 0.0
H886 H 0.18626 0.85991 0.52112 0.0
C887 C 0.41469 0.85609 0.53946 0.0
C888 C 0.54318 0.62209 0.28646 0.0
C889 C 0.60953 0.63438 0.27904 0.0
H890 H 0.51562 0.59601 0.29608 0.0
C891 C 0.70285 0.62942 0.27723 0.0
H892 H 0.47117 0.62546 0.28833 0.0
C893 C 0.72876 0.61253 0.28142 0.0
C894 C 0.66223 0.60015 0.28792 0.0
H895 H 0.7564 0.63855 0.27166 0.0
H896 H 0.80057 0.60914 0.27876 0.0
C897 C 0.56927 0.6052 0.29109 0.0
C898 C 0.7191 0.62391 0.98062 0.0
C899 C 0.65171 0.63638 0.97643 0.0
H900 H 0.74799 0.59778 0.98847 0.0
C901 C 0.55832 0.6314 0.97534 0.0
H902 H 0.79129 0.62725 0.98155 0.0
C903 C 0.53286 0.61448 0.97985 0.0
C904 C 0.60017 0.60209 0.98512 0.0
H905 H 0.50404 0.64066 0.97214 0.0
H906 H 0.46058 0.61117 0.97976 0.0
C907 C 0.69372 0.60698 0.98469 0.0
C908 C 0.4155 0.38176 0.72022 0.0
C909 C 0.32319 0.38701 0.72442 0.0
H910 H 0.51316 0.36145 0.72319 0.0
C911 C 0.25696 0.37484 0.73281 0.0
H912 H 0.46889 0.39076 0.71369 0.0
C913 C 0.28279 0.35799 0.73801 0.0
C914 C 0.37571 0.35291 0.73533 0.0
H915 H 0.18565 0.37838 0.73634 0.0
H916 H 0.22976 0.34903 0.74511 0.0
C917 C 0.44151 0.36495 0.72586 0.0
C918 C 0.28863 0.37935 0.02699 0.0
C919 C 0.38218 0.38421 0.02796 0.0
H920 H 0.19045 0.35916 0.02979 0.0
C921 C 0.44855 0.37191 0.03528 0.0
H922 H 0.23509 0.38849 0.02156 0.0
C923 C 0.42225 0.35509 0.04059 0.0
C924 C 0.32902 0.3501 0.03819 0.0
H925 H 0.52075 0.37521 0.0365 0.0
H926 H 0.47593 0.34589 0.04543 0.0
C927 C 0.26247 0.3625 0.03184 0.0
C928 C 0.98118 0.05255 0.39951 0.0
C929 C 0.93939 0.05285 0.36713 0.0
H930 H 0.96147 0.05198 0.45356 0.0
C931 C 0.84393 0.05421 0.36478 0.0
H932 H 0.05519 0.0517 0.40212 0.0
C933 C 0.79087 0.05436 0.39423 0.0
C934 C 0.83224 0.05322 0.42659 0.0
H935 H 0.81008 0.05459 0.34029 0.0
H936 H 0.71681 0.05498 0.39151 0.0
C937 C 0.928 0.05277 0.42904 0.0
C938 C 0.42725 0.18442 0.32886 0.0
C939 C 0.33159 0.18352 0.33141 0.0
H940 H 0.55449 0.18588 0.35569 0.0
C941 C 0.29068 0.18192 0.36377 0.0
H942 H 0.46035 0.18557 0.30433 0.0
C943 C 0.34393 0.18211 0.39316 0.0
C944 C 0.43916 0.18393 0.39076 0.0
H945 H 0.21676 0.18094 0.36656 0.0
H946 H 0.3103 0.18139 0.41766 0.0
C947 C 0.48066 0.18466 0.35835 0.0
C948 C 0.79849 0.18264 0.86275 0.0
C949 C 0.83946 0.18485 0.83053 0.0
H950 H 0.81776 0.18129 0.91658 0.0
C951 C 0.93506 0.18597 0.82811 0.0
H952 H 0.72462 0.18144 0.86541 0.0
C953 C 0.98829 0.18587 0.85767 0.0
C954 C 0.94661 0.18455 0.88999 0.0
H955 H 0.96819 0.1876 0.80369 0.0
H956 H 0.06205 0.1873 0.85517 0.0
C957 C 0.85151 0.18248 0.89217 0.0
C958 C 0.30276 0.05698 0.89559 0.0
C959 C 0.34361 0.05484 0.92784 0.0
H960 H 0.32228 0.05812 0.84174 0.0
C961 C 0.43919 0.05373 0.93033 0.0
H962 H 0.22889 0.05816 0.8929 0.0
C963 C 0.49252 0.05373 0.90082 0.0
C964 C 0.45096 0.0549 0.86846 0.0
H965 H 0.47222 0.05215 0.95479 0.0
H966 H 0.56626 0.05228 0.90338 0.0
C967 C 0.35591 0.05703 0.86619 0.0
C968 C 0.19512 0.9312 0.61776 0.0
C969 C 0.15399 0.93376 0.58567 0.0
H970 H 0.17662 0.92999 0.67166 0.0
C971 C 0.05868 0.93556 0.5835 0.0
H972 H 0.26875 0.92949 0.62018 0.0
C973 C 0.0061 0.93584 0.61318 0.0
C974 C 0.04812 0.93424 0.64539 0.0
H975 H 0.02546 0.93749 0.55918 0.0
H976 H 0.93266 0.9378 0.61086 0.0
C977 C 0.14271 0.93144 0.64733 0.0
C978 C 0.55453 0.8028 0.67583 0.0
C979 C 0.64985 0.80455 0.67354 0.0
H980 H 0.42831 0.80055 0.64861 0.0
C981 C 0.69078 0.80707 0.64142 0.0
H982 H 0.52148 0.8009 0.70019 0.0
C983 C 0.63816 0.8068 0.61189 0.0
C984 C 0.54358 0.80401 0.61395 0.0
H985 H 0.76442 0.80874 0.63892 0.0
H986 H 0.67191 0.8082 0.58753 0.0
C987 C 0.50175 0.8025 0.64621 0.0
C988 C 0.07451 0.80333 0.17378 0.0
C989 C 0.17024 0.80298 0.17126 0.0
H990 H 0.94705 0.80305 0.14701 0.0
C991 C 0.21169 0.80348 0.13884 0.0
H992 H 0.04098 0.80306 0.19833 0.0
C993 C 0.15843 0.80349 0.10943 0.0
C994 C 0.06276 0.80293 0.11191 0.0
H995 H 0.2858 0.80347 0.13607 0.0
H996 H 0.19211 0.80334 0.0849 0.0
C997 C 0.02117 0.80326 0.14432 0.0
C998 C 0.57409 0.93448 0.08481 0.0
C999 C 0.66982 0.93445 0.08751 0.0
H1000 H 0.44629 0.93507 0.11137 0.0
C1001 C 0.71072 0.93358 0.11999 0.0
H1002 H 0.54099 0.93505 0.0602 0.0
C1003 C 0.65707 0.93358 0.1493 0.0
C1004 C 0.56151 0.93451 0.14667 0.0
H1005 H 0.78478 0.93328 0.12291 0.0
H1006 H 0.69045 0.93342 0.17388 0.0
C1007 C 0.52033 0.93455 0.11418 0.0
C1008 C 0.97899 0.55301 0.90113 0.0
C1009 C 0.93835 0.55342 0.86856 0.0
H1010 H 0.95727 0.55217 0.95505 0.0
C1011 C 0.84298 0.55478 0.86574 0.0
H1012 H 0.0529 0.55216 0.90409 0.0
C1013 C 0.78884 0.55479 0.89491 0.0
C1014 C 0.82905 0.55348 0.92745 0.0
H1015 H 0.81002 0.55525 0.8411 0.0
H1016 H 0.71489 0.55539 0.89184 0.0
C1017 C 0.92471 0.55308 0.93039 0.0
C1018 C 0.41926 0.68433 0.83668 0.0
C1019 C 0.32351 0.68483 0.83898 0.0
H1020 H 0.54629 0.68429 0.86375 0.0
C1021 C 0.28152 0.68434 0.87131 0.0
H1022 H 0.45319 0.68457 0.81221 0.0
C1023 C 0.33427 0.68414 0.90085 0.0
C1024 C 0.43 0.6845 0.89859 0.0
H1025 H 0.20737 0.68447 0.87394 0.0
H1026 H 0.30019 0.68429 0.92529 0.0
C1027 C 0.47212 0.68421 0.86627 0.0
C1028 C 0.85063 0.67977 0.39909 0.0
C1029 C 0.94577 0.68174 0.39672 0.0
H1030 H 0.7234 0.67887 0.37248 0.0
C1031 C 0.98721 0.68279 0.36432 0.0
H1032 H 0.81711 0.67878 0.42357 0.0
C1033 C 0.93373 0.68286 0.33487 0.0
C1034 C 0.83812 0.68197 0.33745 0.0
H1035 H 0.06101 0.68409 0.36169 0.0
H1036 H 0.96671 0.68437 0.31039 0.0
C1037 C 0.79732 0.6799 0.36973 0.0
C1038 C 0.35017 0.55421 0.36708 0.0
C1039 C 0.44531 0.55214 0.36888 0.0
H1040 H 0.22416 0.55534 0.39441 0.0
C1041 C 0.48802 0.55091 0.40103 0.0
H1042 H 0.31566 0.55534 0.34281 0.0
C1043 C 0.43578 0.55089 0.43081 0.0
C1044 C 0.34013 0.55202 0.42881 0.0
H1045 H 0.56186 0.54948 0.40323 0.0
H1046 H 0.46971 0.54931 0.4551 0.0
C1047 C 0.29811 0.55415 0.39675 0.0
C1048 C 0.14586 0.43152 0.14734 0.0
C1049 C 0.05044 0.43299 0.14503 0.0
H1050 H 0.27294 0.43084 0.1206 0.0
C1051 C 0.00862 0.43352 0.11266 0.0
H1052 H 0.17972 0.43096 0.17181 0.0
C1053 C 0.06181 0.43347 0.08312 0.0
C1054 C 0.15756 0.43297 0.08558 0.0
H1055 H 0.93464 0.43445 0.11008 0.0
H1056 H 0.02839 0.43448 0.05863 0.0
C1057 C 0.19889 0.43153 0.1179 0.0
C1058 C 0.55838 0.30171 0.18144 0.0
C1059 C 0.65396 0.30294 0.17913 0.0
H1060 H 0.43177 0.29999 0.15427 0.0
C1061 C 0.69524 0.30492 0.14691 0.0
H1062 H 0.52502 0.30024 0.20586 0.0
C1063 C 0.64253 0.30475 0.1174 0.0
C1064 C 0.54749 0.30257 0.11952 0.0
H1065 H 0.7691 0.30617 0.14434 0.0
H1066 H 0.67649 0.30577 0.093 0.0
C1067 C 0.50551 0.30148 0.15182 0.0
C1068 C 0.00159 0.30113 0.65249 0.0
C1069 C 0.04251 0.30249 0.62005 0.0
H1070 H 0.02275 0.29999 0.70646 0.0
C1071 C 0.13708 0.30522 0.6176 0.0
H1072 H 0.92821 0.2992 0.65519 0.0
C1073 C 0.19049 0.30572 0.64692 0.0
C1074 C 0.15043 0.3035 0.67928 0.0
H1075 H 0.17022 0.30647 0.59309 0.0
H1076 H 0.26402 0.30741 0.64409 0.0
C1077 C 0.05518 0.30168 0.68193 0.0
C1078 C 0.64229 0.43155 0.64698 0.0
C1079 C 0.54757 0.43413 0.64463 0.0
H1080 H 0.76913 0.42957 0.62033 0.0
C1081 C 0.50633 0.4354 0.61223 0.0
H1082 H 0.67566 0.43037 0.67146 0.0
C1083 C 0.55968 0.43493 0.58274 0.0
C1084 C 0.65503 0.43328 0.58528 0.0
H1085 H 0.43284 0.43721 0.6096 0.0
H1086 H 0.52693 0.43655 0.55825 0.0
C1087 C 0.69549 0.43114 0.61759 0.0
loop_
_geom_bond_atom_site_label_1
_geom_bond_atom_site_label_2
_geom_bond_distance
_geom_bond_site_symmetry_2
_ccdc_geom_bond_type
Co0 O1 2.216 . S
Co0 O2 2.091 1_455 S
Co0 O4 2.004 . S
Co0 O10 2.021 . S
Co0 O12 2.137 . S
Co0 O13 2.244 . S
O1 Co0 2.216 . S
O1 C8 1.247 1_455 S
O2 Co0 2.091 1_655 S
O2 C8 1.261 . S
C3 O12 1.247 . S
C3 O13 1.272 . S
O4 Co0 2.004 . S
O4 C9 1.259 . S
Co5 O6 2.061 . S
Co5 O11 2.052 . S
Co5 O13 2.135 . S
O6 Co5 2.061 . S
O6 C9 1.235 . S
C7 O10 1.238 . S
C7 O11 1.241 . S
C8 O1 1.247 1_655 S
C8 O2 1.261 . S
C9 O4 1.259 . S
C9 O6 1.235 . S
O10 Co0 2.021 . S
O10 C7 1.238 . S
O11 Co5 2.052 . S
O11 C7 1.241 . S
O12 Co0 2.137 . S
O12 C3 1.247 . S
O13 Co0 2.244 . S
O13 C3 1.272 . S
O13 Co5 2.135 . S
Co14 O15 2.216 . S
Co14 O16 2.091 . S
Co14 O18 2.004 . S
Co14 O24 2.021 . S
Co14 O26 2.137 . S
Co14 O27 2.244 . S
O15 Co14 2.216 . S
O15 C22 1.247 . S
O16 Co14 2.091 . S
O16 C22 1.261 . S
C17 O26 1.247 . S
C17 O27 1.272 . S
O18 Co14 2.004 . S
O18 C23 1.259 . S
Co19 O20 2.061 1_655 S
Co19 O25 2.052 1_655 S
Co19 O27 2.135 1_655 S
O20 Co19 2.061 1_455 S
O20 C23 1.235 . S
C21 O24 1.238 . S
C21 O25 1.241 . S
C22 O15 1.247 . S
C22 O16 1.261 . S
C23 O18 1.259 . S
C23 O20 1.235 . S
O24 Co14 2.021 . S
O24 C21 1.238 . S
O25 Co19 2.052 1_455 S
O25 C21 1.241 . S
O26 Co14 2.137 . S
O26 C17 1.247 . S
O27 Co14 2.244 . S
O27 C17 1.272 . S
O27 Co19 2.135 1_455 S
Co28 O29 2.216 . S
Co28 O30 2.091 1_455 S
Co28 O32 2.004 1_556 S
Co28 O38 2.021 . S
Co28 O40 2.137 . S
Co28 O41 2.244 . S
O29 Co28 2.216 . S
O29 C36 1.247 1_455 S
O30 Co28 2.091 1_655 S
O30 C36 1.261 . S
C31 O40 1.247 . S
C31 O41 1.272 . S
O32 Co28 2.004 1_554 S
O32 C37 1.259 . S
Co33 O34 2.061 . S
Co33 O39 2.042 1_554 S
Co33 O41 2.135 1_554 S
O34 Co33 2.061 . S
O34 C37 1.235 . S
C35 O38 1.238 . S
C35 O39 1.246 . S
C36 O29 1.247 1_655 S
C36 O30 1.261 . S
C37 O32 1.259 . S
C37 O34 1.235 . S
O38 Co28 2.021 . S
O38 C35 1.238 . S
O39 Co33 2.042 1_556 S
O39 C35 1.246 . S
O40 Co28 2.137 . S
O40 C31 1.247 . S
O41 Co28 2.244 . S
O41 C31 1.272 . S
O41 Co33 2.135 1_556 S
Co42 O43 2.216 . S
Co42 O44 2.091 . S
Co42 O46 2.004 1_556 S
Co42 O52 2.021 . S
Co42 O54 2.137 . S
Co42 O55 2.244 . S
O43 Co42 2.216 . S
O43 C50 1.247 . S
O44 Co42 2.091 . S
O44 C50 1.261 . S
C45 O54 1.247 . S
C45 O55 1.272 . S
O46 Co42 2.004 1_554 S
O46 C51 1.259 . S
Co47 O48 2.061 1_655 S
Co47 O53 2.042 1_654 S
Co47 O55 2.135 1_654 S
O48 Co47 2.061 1_455 S
O48 C51 1.235 . S
C49 O52 1.238 . S
C49 O53 1.246 . S
C50 O43 1.247 . S
C50 O44 1.261 . S
C51 O46 1.259 . S
C51 O48 1.235 . S
O52 Co42 2.021 . S
O52 C49 1.238 . S
O53 Co47 2.042 1_456 S
O53 C49 1.246 . S
O54 Co42 2.137 . S
O54 C45 1.247 . S
O55 Co42 2.244 . S
O55 C45 1.272 . S
O55 Co47 2.135 1_456 S
Co56 O57 2.216 . S
Co56 O58 2.091 1_655 S
Co56 O60 2.004 . S
Co56 O66 2.021 . S
Co56 O68 2.137 . S
Co56 O69 2.244 . S
O57 Co56 2.216 . S
O57 C64 1.247 1_655 S
O58 Co56 2.091 1_455 S
O58 C64 1.261 . S
C59 O68 1.247 . S
C59 O69 1.272 . S
O60 Co56 2.004 . S
O60 C65 1.259 . S
Co61 O62 2.061 . S
Co61 O67 2.052 . S
Co61 O69 2.135 . S
O62 Co61 2.061 . S
O62 C65 1.235 . S
C63 O66 1.238 . S
C63 O67 1.241 . S
C64 O57 1.247 1_455 S
C64 O58 1.261 . S
C65 O60 1.259 . S
C65 O62 1.235 . S
O66 Co56 2.021 . S
O66 C63 1.238 . S
O67 Co61 2.052 . S
O67 C63 1.241 . S
O68 Co56 2.137 . S
O68 C59 1.247 . S
O69 Co56 2.244 . S
O69 C59 1.272 . S
O69 Co61 2.135 . S
Co70 O71 2.216 . S
Co70 O72 2.091 . S
Co70 O74 2.004 . S
Co70 O80 2.021 . S
Co70 O82 2.137 . S
Co70 O83 2.244 . S
O71 Co70 2.216 . S
O71 C78 1.247 . S
O72 Co70 2.091 . S
O72 C78 1.261 . S
C73 O82 1.247 . S
C73 O83 1.272 . S
O74 Co70 2.004 . S
O74 C79 1.259 . S
Co75 O76 2.061 1_455 S
Co75 O81 2.052 1_455 S
Co75 O83 2.135 1_455 S
O76 Co75 2.061 1_655 S
O76 C79 1.235 . S
C77 O80 1.238 . S
C77 O81 1.241 . S
C78 O71 1.247 . S
C78 O72 1.261 . S
C79 O74 1.259 . S
C79 O76 1.235 . S
O80 Co70 2.021 . S
O80 C77 1.238 . S
O81 Co75 2.052 1_655 S
O81 C77 1.241 . S
O82 Co70 2.137 . S
O82 C73 1.247 . S
O83 Co70 2.244 . S
O83 C73 1.272 . S
O83 Co75 2.135 1_655 S
Co84 O85 2.216 . S
Co84 O86 2.091 1_655 S
Co84 O88 2.004 1_554 S
Co84 O94 2.021 . S
Co84 O96 2.137 . S
Co84 O97 2.244 . S
O85 Co84 2.216 . S
O85 C92 1.247 1_655 S
O86 Co84 2.091 1_455 S
O86 C92 1.261 . S
C87 O96 1.247 . S
C87 O97 1.272 . S
O88 Co84 2.004 1_556 S
O88 C93 1.259 . S
Co89 O90 2.061 . S
Co89 O95 2.042 1_556 S
Co89 O97 2.135 1_556 S
O90 Co89 2.061 . S
O90 C93 1.235 . S
C91 O94 1.238 . S
C91 O95 1.246 . S
C92 O85 1.247 1_455 S
C92 O86 1.261 . S
C93 O88 1.259 . S
C93 O90 1.235 . S
O94 Co84 2.021 . S
O94 C91 1.238 . S
O95 Co89 2.042 1_554 S
O95 C91 1.246 . S
O96 Co84 2.137 . S
O96 C87 1.247 . S
O97 Co84 2.244 . S
O97 C87 1.272 . S
O97 Co89 2.135 1_554 S
Co98 O99 2.216 . S
Co98 O100 2.091 . S
Co98 O102 2.004 1_554 S
Co98 O108 2.021 . S
Co98 O110 2.137 . S
Co98 O111 2.244 . S
O99 Co98 2.216 . S
O99 C106 1.247 . S
O100 Co98 2.091 . S
O100 C106 1.261 . S
C101 O110 1.247 . S
C101 O111 1.272 . S
O102 Co98 2.004 1_556 S
O102 C107 1.259 . S
Co103 O104 2.061 1_455 S
Co103 O109 2.042 1_456 S
Co103 O111 2.135 1_456 S
O104 Co103 2.061 1_655 S
O104 C107 1.235 . S
C105 O108 1.238 . S
C105 O109 1.246 . S
C106 O99 1.247 . S
C106 O100 1.261 . S
C107 O102 1.259 . S
C107 O104 1.235 . S
O108 Co98 2.021 . S
O108 C105 1.238 . S
O109 Co103 2.042 1_654 S
O109 C105 1.246 . S
O110 Co98 2.137 . S
O110 C101 1.247 . S
O111 Co98 2.244 . S
O111 C101 1.272 . S
O111 Co103 2.135 1_654 S
Co112 O113 2.216 . S
Co112 O114 2.091 1_455 S
Co112 O116 2.004 . S
Co112 O122 2.021 . S
Co112 O124 2.137 . S
Co112 O125 2.244 . S
O113 Co112 2.216 . S
O113 C120 1.247 1_455 S
O114 Co112 2.091 1_655 S
O114 C120 1.261 . S
C115 O124 1.247 . S
C115 O125 1.272 . S
O116 Co112 2.004 . S
O116 C121 1.259 . S
Co117 O118 2.061 . S
Co117 O123 2.052 . S
Co117 O125 2.135 . S
O118 Co117 2.061 . S
O118 C121 1.235 . S
C119 O122 1.238 . S
C119 O123 1.241 . S
C120 O113 1.247 1_655 S
C120 O114 1.261 . S
C121 O116 1.259 . S
C121 O118 1.235 . S
O122 Co112 2.021 . S
O122 C119 1.238 . S
O123 Co117 2.052 . S
O123 C119 1.241 . S
O124 Co112 2.137 . S
O124 C115 1.247 . S
O125 Co112 2.244 . S
O125 C115 1.272 . S
O125 Co117 2.135 . S
Co126 O127 2.216 . S
Co126 O128 2.091 . S
Co126 O130 2.004 . S
Co126 O136 2.021 . S
Co126 O138 2.137 . S
Co126 O139 2.244 . S
O127 Co126 2.216 . S
O127 C134 1.247 . S
O128 Co126 2.091 . S
O128 C134 1.261 . S
C129 O138 1.247 . S
C129 O139 1.272 . S
O130 Co126 2.004 . S
O130 C135 1.259 . S
Co131 O132 2.061 1_655 S
Co131 O137 2.052 1_655 S
Co131 O139 2.135 1_655 S
O132 Co131 2.061 1_455 S
O132 C135 1.235 . S
C133 O136 1.238 . S
C133 O137 1.241 . S
C134 O127 1.247 . S
C134 O128 1.261 . S
C135 O130 1.259 . S
C135 O132 1.235 . S
O136 Co126 2.021 . S
O136 C133 1.238 . S
O137 Co131 2.052 1_455 S
O137 C133 1.241 . S
O138 Co126 2.137 . S
O138 C129 1.247 . S
O139 Co126 2.244 . S
O139 C129 1.272 . S
O139 Co131 2.135 1_455 S
Co140 O141 2.216 . S
Co140 O142 2.091 1_455 S
Co140 O144 2.004 . S
Co140 O150 2.021 . S
Co140 O152 2.137 . S
Co140 O153 2.244 . S
O141 Co140 2.216 . S
O141 C148 1.247 1_455 S
O142 Co140 2.091 1_655 S
O142 C148 1.261 . S
C143 O152 1.247 . S
C143 O153 1.272 . S
O144 Co140 2.004 . S
O144 C149 1.259 . S
Co145 O146 2.061 . S
Co145 O151 2.052 . S
Co145 O153 2.135 . S
O146 Co145 2.061 . S
O146 C149 1.235 . S
C147 O150 1.238 . S
C147 O151 1.241 . S
C148 O141 1.247 1_655 S
C148 O142 1.261 . S
C149 O144 1.259 . S
C149 O146 1.235 . S
O150 Co140 2.021 . S
O150 C147 1.238 . S
O151 Co145 2.052 . S
O151 C147 1.241 . S
O152 Co140 2.137 . S
O152 C143 1.247 . S
O153 Co140 2.244 . S
O153 C143 1.272 . S
O153 Co145 2.135 . S
Co154 O155 2.216 . S
Co154 O156 2.091 . S
Co154 O158 2.004 . S
Co154 O164 2.021 . S
Co154 O166 2.137 . S
Co154 O167 2.244 . S
O155 Co154 2.216 . S
O155 C162 1.247 . S
O156 Co154 2.091 . S
O156 C162 1.261 . S
C157 O166 1.247 . S
C157 O167 1.272 . S
O158 Co154 2.004 . S
O158 C163 1.259 . S
Co159 O160 2.061 1_655 S
Co159 O165 2.052 1_655 S
Co159 O167 2.135 1_655 S
O160 Co159 2.061 1_455 S
O160 C163 1.235 . S
C161 O164 1.238 . S
C161 O165 1.241 . S
C162 O155 1.247 . S
C162 O156 1.261 . S
C163 O158 1.259 . S
C163 O160 1.235 . S
O164 Co154 2.021 . S
O164 C161 1.238 . S
O165 Co159 2.052 1_455 S
O165 C161 1.241 . S
O166 Co154 2.137 . S
O166 C157 1.247 . S
O167 Co154 2.244 . S
O167 C157 1.272 . S
O167 Co159 2.135 1_455 S
Co168 O169 2.216 . S
Co168 O170 2.091 1_655 S
Co168 O172 2.004 . S
Co168 O178 2.021 . S
Co168 O180 2.137 . S
Co168 O181 2.244 . S
O169 Co168 2.216 . S
O169 C176 1.247 1_655 S
O170 Co168 2.091 1_455 S
O170 C176 1.261 . S
C171 O180 1.247 . S
C171 O181 1.272 . S
O172 Co168 2.004 . S
O172 C177 1.259 . S
Co173 O174 2.061 . S
Co173 O179 2.052 . S
Co173 O181 2.135 . S
O174 Co173 2.061 . S
O174 C177 1.235 . S
C175 O178 1.238 . S
C175 O179 1.241 . S
C176 O169 1.247 1_455 S
C176 O170 1.261 . S
C177 O172 1.259 . S
C177 O174 1.235 . S
O178 Co168 2.021 . S
O178 C175 1.238 . S
O179 Co173 2.052 . S
O179 C175 1.241 . S
O180 Co168 2.137 . S
O180 C171 1.247 . S
O181 Co168 2.244 . S
O181 C171 1.272 . S
O181 Co173 2.135 . S
Co182 O183 2.216 . S
Co182 O184 2.091 . S
Co182 O186 2.004 . S
Co182 O192 2.021 . S
Co182 O194 2.137 . S
Co182 O195 2.244 . S
O183 Co182 2.216 . S
O183 C190 1.247 . S
O184 Co182 2.091 . S
O184 C190 1.261 . S
C185 O194 1.247 . S
C185 O195 1.272 . S
O186 Co182 2.004 . S
O186 C191 1.259 . S
Co187 O188 2.061 1_455 S
Co187 O193 2.052 1_455 S
Co187 O195 2.135 1_455 S
O188 Co187 2.061 1_655 S
O188 C191 1.235 . S
C189 O192 1.238 . S
C189 O193 1.241 . S
C190 O183 1.247 . S
C190 O184 1.261 . S
C191 O186 1.259 . S
C191 O188 1.235 . S
O192 Co182 2.021 . S
O192 C189 1.238 . S
O193 Co187 2.052 1_655 S
O193 C189 1.241 . S
O194 Co182 2.137 . S
O194 C185 1.247 . S
O195 Co182 2.244 . S
O195 C185 1.272 . S
O195 Co187 2.135 1_655 S
Co196 O197 2.216 . S
Co196 O198 2.091 1_655 S
Co196 O200 2.004 . S
Co196 O206 2.021 . S
Co196 O208 2.137 . S
Co196 O209 2.244 . S
O197 Co196 2.216 . S
O197 C204 1.247 1_655 S
O198 Co196 2.091 1_455 S
O198 C204 1.261 . S
C199 O208 1.247 . S
C199 O209 1.272 . S
O200 Co196 2.004 . S
O200 C205 1.259 . S
Co201 O202 2.061 . S
Co201 O207 2.052 . S
Co201 O209 2.135 . S
O202 Co201 2.061 . S
O202 C205 1.235 . S
C203 O206 1.238 . S
C203 O207 1.241 . S
C204 O197 1.247 1_455 S
C204 O198 1.261 . S
C205 O200 1.259 . S
C205 O202 1.235 . S
O206 Co196 2.021 . S
O206 C203 1.238 . S
O207 Co201 2.052 . S
O207 C203 1.241 . S
O208 Co196 2.137 . S
O208 C199 1.247 . S
O209 Co196 2.244 . S
O209 C199 1.272 . S
O209 Co201 2.135 . S
Co210 O211 2.216 . S
Co210 O212 2.091 . S
Co210 O214 2.004 . S
Co210 O220 2.021 . S
Co210 O222 2.137 . S
Co210 O223 2.244 . S
O211 Co210 2.216 . S
O211 C218 1.247 . S
O212 Co210 2.091 . S
O212 C218 1.261 . S
C213 O222 1.247 . S
C213 O223 1.272 . S
O214 Co210 2.004 . S
O214 C219 1.259 . S
Co215 O216 2.061 1_455 S
Co215 O221 2.052 1_455 S
Co215 O223 2.135 1_455 S
O216 Co215 2.061 1_655 S
O216 C219 1.235 . S
C217 O220 1.238 . S
C217 O221 1.241 . S
C218 O211 1.247 . S
C218 O212 1.261 . S
C219 O214 1.259 . S
C219 O216 1.235 . S
O220 Co210 2.021 . S
O220 C217 1.238 . S
O221 Co215 2.052 1_655 S
O221 C217 1.241 . S
O222 Co210 2.137 . S
O222 C213 1.247 . S
O223 Co210 2.244 . S
O223 C213 1.272 . S
O223 Co215 2.135 1_655 S
Co224 O225 2.216 . S
Co224 O226 2.091 . S
Co224 O228 2.004 . S
Co224 O234 2.021 . S
Co224 O236 2.137 . S
Co224 O237 2.244 . S
O225 Co224 2.216 . S
O225 C232 1.247 . S
O226 Co224 2.091 . S
O226 C232 1.261 . S
C227 O236 1.247 . S
C227 O237 1.272 . S
O228 Co224 2.004 . S
O228 C233 1.259 . S
Co229 O230 2.061 . S
Co229 O235 2.052 . S
Co229 O237 2.135 . S
O230 Co229 2.061 . S
O230 C233 1.235 . S
C231 O234 1.238 . S
C231 O235 1.241 . S
C232 O225 1.247 . S
C232 O226 1.261 . S
C233 O228 1.259 . S
C233 O230 1.235 . S
O234 Co224 2.021 . S
O234 C231 1.238 . S
O235 Co229 2.052 . S
O235 C231 1.241 . S
O236 Co224 2.137 . S
O236 C227 1.247 . S
O237 Co224 2.244 . S
O237 C227 1.272 . S
O237 Co229 2.135 . S
Co238 O239 2.216 . S
Co238 O240 2.091 . S
Co238 O242 2.004 . S
Co238 O248 2.021 . S
Co238 O250 2.137 . S
Co238 O251 2.244 . S
O239 Co238 2.216 . S
O239 C246 1.247 . S
O240 Co238 2.091 . S
O240 C246 1.261 . S
C241 O250 1.247 . S
C241 O251 1.272 . S
O242 Co238 2.004 . S
O242 C247 1.259 . S
Co243 O244 2.061 . S
Co243 O249 2.052 . S
Co243 O251 2.135 . S
O244 Co243 2.061 . S
O244 C247 1.235 . S
C245 O248 1.238 . S
C245 O249 1.241 . S
C246 O239 1.247 . S
C246 O240 1.261 . S
C247 O242 1.259 . S
C247 O244 1.235 . S
O248 Co238 2.021 . S
O248 C245 1.238 . S
O249 Co243 2.052 . S
O249 C245 1.241 . S
O250 Co238 2.137 . S
O250 C241 1.247 . S
O251 Co238 2.244 . S
O251 C241 1.272 . S
O251 Co243 2.135 . S
Co252 O253 2.216 . S
Co252 O254 2.091 . S
Co252 O256 2.004 . S
Co252 O262 2.021 . S
Co252 O264 2.137 . S
Co252 O265 2.244 . S
O253 Co252 2.216 . S
O253 C260 1.247 . S
O254 Co252 2.091 . S
O254 C260 1.261 . S
C255 O264 1.247 . S
C255 O265 1.272 . S
O256 Co252 2.004 . S
O256 C261 1.259 . S
Co257 O258 2.061 . S
Co257 O263 2.052 . S
Co257 O265 2.135 . S
O258 Co257 2.061 . S
O258 C261 1.235 . S
C259 O262 1.238 . S
C259 O263 1.241 . S
C260 O253 1.247 . S
C260 O254 1.261 . S
C261 O256 1.259 . S
C261 O258 1.235 . S
O262 Co252 2.021 . S
O262 C259 1.238 . S
O263 Co257 2.052 . S
O263 C259 1.241 . S
O264 Co252 2.137 . S
O264 C255 1.247 . S
O265 Co252 2.244 . S
O265 C255 1.272 . S
O265 Co257 2.135 . S
Co266 O267 2.216 . S
Co266 O268 2.091 . S
Co266 O270 2.004 . S
Co266 O276 2.021 . S
Co266 O278 2.137 . S
Co266 O279 2.244 . S
O267 Co266 2.216 . S
O267 C274 1.247 . S
O268 Co266 2.091 . S
O268 C274 1.261 . S
C269 O278 1.247 . S
C269 O279 1.272 . S
O270 Co266 2.004 . S
O270 C275 1.259 . S
Co271 O272 2.061 . S
Co271 O277 2.052 . S
Co271 O279 2.135 . S
O272 Co271 2.061 . S
O272 C275 1.235 . S
C273 O276 1.238 . S
C273 O277 1.241 . S
C274 O267 1.247 . S
C274 O268 1.261 . S
C275 O270 1.259 . S
C275 O272 1.235 . S
O276 Co266 2.021 . S
O276 C273 1.238 . S
O277 Co271 2.052 . S
O277 C273 1.241 . S
O278 Co266 2.137 . S
O278 C269 1.247 . S
O279 Co266 2.244 . S
O279 C269 1.272 . S
O279 Co271 2.135 . S
Co280 O281 2.216 . S
Co280 O282 2.091 . S
Co280 O284 2.004 . S
Co280 O290 2.021 . S
Co280 O292 2.137 . S
Co280 O293 2.244 . S
O281 Co280 2.216 . S
O281 C288 1.247 . S
O282 Co280 2.091 . S
O282 C288 1.261 . S
C283 O292 1.247 . S
C283 O293 1.272 . S
O284 Co280 2.004 . S
O284 C289 1.259 . S
Co285 O286 2.061 . S
Co285 O291 2.052 . S
Co285 O293 2.135 . S
O286 Co285 2.061 . S
O286 C289 1.235 . S
C287 O290 1.238 . S
C287 O291 1.241 . S
C288 O281 1.247 . S
C288 O282 1.261 . S
C289 O284 1.259 . S
C289 O286 1.235 . S
O290 Co280 2.021 . S
O290 C287 1.238 . S
O291 Co285 2.052 . S
O291 C287 1.241 . S
O292 Co280 2.137 . S
O292 C283 1.247 . S
O293 Co280 2.244 . S
O293 C283 1.272 . S
O293 Co285 2.135 . S
Co294 O295 2.216 . S
Co294 O296 2.091 . S
Co294 O298 2.004 . S
Co294 O304 2.021 . S
Co294 O306 2.137 . S
Co294 O307 2.244 . S
O295 Co294 2.216 . S
O295 C302 1.247 . S
O296 Co294 2.091 . S
O296 C302 1.261 . S
C297 O306 1.247 . S
C297 O307 1.272 . S
O298 Co294 2.004 . S
O298 C303 1.259 . S
Co299 O300 2.061 . S
Co299 O305 2.052 . S
Co299 O307 2.135 . S
O300 Co299 2.061 . S
O300 C303 1.235 . S
C301 O304 1.238 . S
C301 O305 1.241 . S
C302 O295 1.247 . S
C302 O296 1.261 . S
C303 O298 1.259 . S
C303 O300 1.235 . S
O304 Co294 2.021 . S
O304 C301 1.238 . S
O305 Co299 2.052 . S
O305 C301 1.241 . S
O306 Co294 2.137 . S
O306 C297 1.247 . S
O307 Co294 2.244 . S
O307 C297 1.272 . S
O307 Co299 2.135 . S
Co308 O309 2.216 . S
Co308 O310 2.091 . S
Co308 O312 2.004 . S
Co308 O318 2.021 . S
Co308 O320 2.137 . S
Co308 O321 2.244 . S
O309 Co308 2.216 . S
O309 C316 1.247 . S
O310 Co308 2.091 . S
O310 C316 1.261 . S
C311 O320 1.247 . S
C311 O321 1.272 . S
O312 Co308 2.004 . S
O312 C317 1.259 . S
Co313 O314 2.061 . S
Co313 O319 2.052 . S
Co313 O321 2.135 . S
O314 Co313 2.061 . S
O314 C317 1.235 . S
C315 O318 1.238 . S
C315 O319 1.241 . S
C316 O309 1.247 . S
C316 O310 1.261 . S
C317 O312 1.259 . S
C317 O314 1.235 . S
O318 Co308 2.021 . S
O318 C315 1.238 . S
O319 Co313 2.052 . S
O319 C315 1.241 . S
O320 Co308 2.137 . S
O320 C311 1.247 . S
O321 Co308 2.244 . S
O321 C311 1.272 . S
O321 Co313 2.135 . S
Co322 O323 2.216 . S
Co322 O324 2.091 . S
Co322 O326 2.004 . S
Co322 O332 2.021 . S
Co322 O334 2.137 . S
Co322 O335 2.244 . S
O323 Co322 2.216 . S
O323 C330 1.247 . S
O324 Co322 2.091 . S
O324 C330 1.261 . S
C325 O334 1.247 . S
C325 O335 1.272 . S
O326 Co322 2.004 . S
O326 C331 1.259 . S
Co327 O328 2.061 . S
Co327 O333 2.052 . S
Co327 O335 2.135 . S
O328 Co327 2.061 . S
O328 C331 1.235 . S
C329 O332 1.238 . S
C329 O333 1.241 . S
C330 O323 1.247 . S
C330 O324 1.261 . S
C331 O326 1.259 . S
C331 O328 1.235 . S
O332 Co322 2.021 . S
O332 C329 1.238 . S
O333 Co327 2.052 . S
O333 C329 1.241 . S
O334 Co322 2.137 . S
O334 C325 1.247 . S
O335 Co322 2.244 . S
O335 C325 1.272 . S
O335 Co327 2.135 . S
Co336 O337 2.216 . S
Co336 O338 2.091 . S
Co336 O340 2.004 . S
Co336 O346 2.021 . S
Co336 O348 2.137 . S
Co336 O349 2.244 . S
O337 Co336 2.216 . S
O337 C344 1.247 . S
O338 Co336 2.091 . S
O338 C344 1.261 . S
C339 O348 1.247 . S
C339 O349 1.272 . S
O340 Co336 2.004 . S
O340 C345 1.259 . S
Co341 O342 2.061 . S
Co341 O347 2.052 . S
Co341 O349 2.135 . S
O342 Co341 2.061 . S
O342 C345 1.235 . S
C343 O346 1.238 . S
C343 O347 1.241 . S
C344 O337 1.247 . S
C344 O338 1.261 . S
C345 O340 1.259 . S
C345 O342 1.235 . S
O346 Co336 2.021 . S
O346 C343 1.238 . S
O347 Co341 2.052 . S
O347 C343 1.241 . S
O348 Co336 2.137 . S
O348 C339 1.247 . S
O349 Co336 2.244 . S
O349 C339 1.272 . S
O349 Co341 2.135 . S
Co350 O351 2.216 . S
Co350 O352 2.091 . S
Co350 O354 2.004 . S
Co350 O360 2.021 . S
Co350 O362 2.137 . S
Co350 O363 2.244 . S
O351 Co350 2.216 . S
O351 C358 1.247 . S
O352 Co350 2.091 . S
O352 C358 1.261 . S
C353 O362 1.247 . S
C353 O363 1.272 . S
O354 Co350 2.004 . S
O354 C359 1.259 . S
Co355 O356 2.061 . S
Co355 O361 2.052 . S
Co355 O363 2.135 . S
O356 Co355 2.061 . S
O356 C359 1.235 . S
C357 O360 1.238 . S
C357 O361 1.241 . S
C358 O351 1.247 . S
C358 O352 1.261 . S
C359 O354 1.259 . S
C359 O356 1.235 . S
O360 Co350 2.021 . S
O360 C357 1.238 . S
O361 Co355 2.052 . S
O361 C357 1.241 . S
O362 Co350 2.137 . S
O362 C353 1.247 . S
O363 Co350 2.244 . S
O363 C353 1.272 . S
O363 Co355 2.135 . S
Co364 O365 2.216 . S
Co364 O366 2.091 . S
Co364 O368 2.004 1_556 S
Co364 O374 2.021 . S
Co364 O376 2.137 . S
Co364 O377 2.244 . S
O365 Co364 2.216 . S
O365 C372 1.247 . S
O366 Co364 2.091 . S
O366 C372 1.261 . S
C367 O376 1.247 . S
C367 O377 1.272 . S
O368 Co364 2.004 1_554 S
O368 C373 1.259 . S
Co369 O370 2.061 . S
Co369 O375 2.042 1_554 S
Co369 O377 2.135 1_554 S
O370 Co369 2.061 . S
O370 C373 1.235 . S
C371 O374 1.238 . S
C371 O375 1.246 . S
C372 O365 1.247 . S
C372 O366 1.261 . S
C373 O368 1.259 . S
C373 O370 1.235 . S
O374 Co364 2.021 . S
O374 C371 1.238 . S
O375 Co369 2.042 1_556 S
O375 C371 1.246 . S
O376 Co364 2.137 . S
O376 C367 1.247 . S
O377 Co364 2.244 . S
O377 C367 1.272 . S
O377 Co369 2.135 1_556 S
Co378 O379 2.216 . S
Co378 O380 2.091 . S
Co378 O382 2.004 1_556 S
Co378 O388 2.021 . S
Co378 O390 2.137 . S
Co378 O391 2.244 . S
O379 Co378 2.216 . S
O379 C386 1.247 . S
O380 Co378 2.091 . S
O380 C386 1.261 . S
C381 O390 1.247 . S
C381 O391 1.272 . S
O382 Co378 2.004 1_554 S
O382 C387 1.259 . S
Co383 O384 2.061 . S
Co383 O389 2.042 1_554 S
Co383 O391 2.135 1_554 S
O384 Co383 2.061 . S
O384 C387 1.235 . S
C385 O388 1.238 . S
C385 O389 1.246 . S
C386 O379 1.247 . S
C386 O380 1.261 . S
C387 O382 1.259 . S
C387 O384 1.235 . S
O388 Co378 2.021 . S
O388 C385 1.238 . S
O389 Co383 2.042 1_556 S
O389 C385 1.246 . S
O390 Co378 2.137 . S
O390 C381 1.247 . S
O391 Co378 2.244 . S
O391 C381 1.272 . S
O391 Co383 2.135 1_556 S
Co392 O393 2.216 . S
Co392 O394 2.091 . S
Co392 O396 2.004 . S
Co392 O402 2.021 . S
Co392 O404 2.137 . S
Co392 O405 2.244 . S
O393 Co392 2.216 . S
O393 C400 1.247 . S
O394 Co392 2.091 . S
O394 C400 1.261 . S
C395 O404 1.247 . S
C395 O405 1.272 . S
O396 Co392 2.004 . S
O396 C401 1.259 . S
Co397 O398 2.061 . S
Co397 O403 2.052 . S
Co397 O405 2.135 . S
O398 Co397 2.061 . S
O398 C401 1.235 . S
C399 O402 1.238 . S
C399 O403 1.241 . S
C400 O393 1.247 . S
C400 O394 1.261 . S
C401 O396 1.259 . S
C401 O398 1.235 . S
O402 Co392 2.021 . S
O402 C399 1.238 . S
O403 Co397 2.052 . S
O403 C399 1.241 . S
O404 Co392 2.137 . S
O404 C395 1.247 . S
O405 Co392 2.244 . S
O405 C395 1.272 . S
O405 Co397 2.135 . S
Co406 O407 2.216 . S
Co406 O408 2.091 . S
Co406 O410 2.004 . S
Co406 O416 2.021 . S
Co406 O418 2.137 . S
Co406 O419 2.244 . S
O407 Co406 2.216 . S
O407 C414 1.247 . S
O408 Co406 2.091 . S
O408 C414 1.261 . S
C409 O418 1.247 . S
C409 O419 1.272 . S
O410 Co406 2.004 . S
O410 C415 1.259 . S
Co411 O412 2.061 . S
Co411 O417 2.052 . S
Co411 O419 2.135 . S
O412 Co411 2.061 . S
O412 C415 1.235 . S
C413 O416 1.238 . S
C413 O417 1.241 . S
C414 O407 1.247 . S
C414 O408 1.261 . S
C415 O410 1.259 . S
C415 O412 1.235 . S
O416 Co406 2.021 . S
O416 C413 1.238 . S
O417 Co411 2.052 . S
O417 C413 1.241 . S
O418 Co406 2.137 . S
O418 C409 1.247 . S
O419 Co406 2.244 . S
O419 C409 1.272 . S
O419 Co411 2.135 . S
Co420 O421 2.216 . S
Co420 O422 2.091 . S
Co420 O424 2.004 1_554 S
Co420 O430 2.021 . S
Co420 O432 2.137 . S
Co420 O433 2.244 . S
O421 Co420 2.216 . S
O421 C428 1.247 . S
O422 Co420 2.091 . S
O422 C428 1.261 . S
C423 O432 1.247 . S
C423 O433 1.272 . S
O424 Co420 2.004 1_556 S
O424 C429 1.259 . S
Co425 O426 2.061 . S
Co425 O431 2.042 1_556 S
Co425 O433 2.135 1_556 S
O426 Co425 2.061 . S
O426 C429 1.235 . S
C427 O430 1.238 . S
C427 O431 1.246 . S
C428 O421 1.247 . S
C428 O422 1.261 . S
C429 O424 1.259 . S
C429 O426 1.235 . S
O430 Co420 2.021 . S
O430 C427 1.238 . S
O431 Co425 2.042 1_554 S
O431 C427 1.246 . S
O432 Co420 2.137 . S
O432 C423 1.247 . S
O433 Co420 2.244 . S
O433 C423 1.272 . S
O433 Co425 2.135 1_554 S
Co434 O435 2.216 . S
Co434 O436 2.091 . S
Co434 O438 2.004 1_554 S
Co434 O444 2.021 . S
Co434 O446 2.137 . S
Co434 O447 2.244 . S
O435 Co434 2.216 . S
O435 C442 1.247 . S
O436 Co434 2.091 . S
O436 C442 1.261 . S
C437 O446 1.247 . S
C437 O447 1.272 . S
O438 Co434 2.004 1_556 S
O438 C443 1.259 . S
Co439 O440 2.061 . S
Co439 O445 2.042 1_556 S
Co439 O447 2.135 1_556 S
O440 Co439 2.061 . S
O440 C443 1.235 . S
C441 O444 1.238 . S
C441 O445 1.246 . S
C442 O435 1.247 . S
C442 O436 1.261 . S
C443 O438 1.259 . S
C443 O440 1.235 . S
O444 Co434 2.021 . S
O444 C441 1.238 . S
O445 Co439 2.042 1_554 S
O445 C441 1.246 . S
O446 Co434 2.137 . S
O446 C437 1.247 . S
O447 Co434 2.244 . S
O447 C437 1.272 . S
O447 Co439 2.135 1_554 S
C448 C449 1.387 . S
C448 H452 0.950 . S
C448 C457 1.390 . S
C449 C448 1.387 . S
C449 C451 1.387 . S
H450 C457 0.950 . S
C451 C449 1.387 . S
C451 C453 1.390 . S
C451 H455 0.950 . S
H452 C448 0.950 . S
C453 C451 1.390 . S
C453 C454 1.387 . S
C453 H456 0.950 . S
C454 C453 1.387 . S
C454 C457 1.387 . S
H455 C451 0.950 . S
H456 C453 0.950 . S
C457 C448 1.390 . S
C457 H450 0.950 . S
C457 C454 1.387 . S
C458 C459 1.387 . S
C458 H462 0.950 . S
C458 C467 1.390 . S
C459 C458 1.387 . S
C459 C461 1.387 . S
H460 C467 0.950 . S
C461 C459 1.387 . S
C461 C463 1.390 . S
C461 H465 0.950 . S
H462 C458 0.950 . S
C463 C461 1.390 . S
C463 C464 1.387 . S
C463 H466 0.950 . S
C464 C463 1.387 . S
C464 C467 1.387 . S
H465 C461 0.950 . S
H466 C463 0.950 . S
C467 C458 1.390 . S
C467 H460 0.950 . S
C467 C464 1.387 . S
C468 C469 1.387 . S
C468 H472 0.950 . S
C468 C477 1.390 . S
C469 C468 1.387 . S
C469 C471 1.387 . S
H470 C477 0.950 . S
C471 C469 1.387 . S
C471 C473 1.390 . S
C471 H475 0.950 . S
H472 C468 0.950 . S
C473 C471 1.390 . S
C473 C474 1.387 . S
C473 H476 0.950 . S
C474 C473 1.387 . S
C474 C477 1.387 . S
H475 C471 0.950 . S
H476 C473 0.950 . S
C477 C468 1.390 . S
C477 H470 0.950 . S
C477 C474 1.387 . S
C478 C479 1.387 . S
C478 H482 0.950 . S
C478 C487 1.390 . S
C479 C478 1.387 . S
C479 C481 1.387 . S
H480 C487 0.950 . S
C481 C479 1.387 . S
C481 C483 1.390 . S
C481 H485 0.950 . S
H482 C478 0.950 . S
C483 C481 1.390 . S
C483 C484 1.387 . S
C483 H486 0.950 . S
C484 C483 1.387 . S
C484 C487 1.387 . S
H485 C481 0.950 . S
H486 C483 0.950 . S
C487 C478 1.390 . S
C487 H480 0.950 . S
C487 C484 1.387 . S
C488 C489 1.387 . S
C488 H492 0.950 . S
C488 C497 1.390 . S
C489 C488 1.387 . S
C489 C491 1.387 . S
H490 C497 0.950 . S
C491 C489 1.387 . S
C491 C493 1.390 . S
C491 H495 0.950 . S
H492 C488 0.950 . S
C493 C491 1.390 . S
C493 C494 1.387 . S
C493 H496 0.950 . S
C494 C493 1.387 . S
C494 C497 1.387 . S
H495 C491 0.950 . S
H496 C493 0.950 . S
C497 C488 1.390 . S
C497 H490 0.950 . S
C497 C494 1.387 . S
C498 C499 1.387 . S
C498 H502 0.950 . S
C498 C507 1.390 . S
C499 C498 1.387 . S
C499 C501 1.387 . S
H500 C507 0.950 . S
C501 C499 1.387 . S
C501 C503 1.390 . S
C501 H505 0.950 . S
H502 C498 0.950 . S
C503 C501 1.390 . S
C503 C504 1.387 . S
C503 H506 0.950 . S
C504 C503 1.387 . S
C504 C507 1.387 . S
H505 C501 0.950 . S
H506 C503 0.950 . S
C507 C498 1.390 . S
C507 H500 0.950 . S
C507 C504 1.387 . S
C508 C509 1.387 . S
C508 H512 0.950 . S
C508 C517 1.390 . S
C509 C508 1.387 . S
C509 C511 1.387 . S
H510 C517 0.950 . S
C511 C509 1.387 . S
C511 C513 1.390 . S
C511 H515 0.950 . S
H512 C508 0.950 . S
C513 C511 1.390 . S
C513 C514 1.387 . S
C513 H516 0.950 . S
C514 C513 1.387 . S
C514 C517 1.387 . S
H515 C511 0.950 . S
H516 C513 0.950 . S
C517 C508 1.390 . S
C517 H510 0.950 . S
C517 C514 1.387 . S
C518 C519 1.387 . S
C518 H522 0.950 . S
C518 C527 1.390 . S
C519 C518 1.387 . S
C519 C521 1.387 . S
H520 C527 0.950 . S
C521 C519 1.387 . S
C521 C523 1.390 . S
C521 H525 0.950 . S
H522 C518 0.950 . S
C523 C521 1.390 . S
C523 C524 1.387 . S
C523 H526 0.950 . S
C524 C523 1.387 . S
C524 C527 1.387 . S
H525 C521 0.950 . S
H526 C523 0.950 . S
C527 C518 1.390 . S
C527 H520 0.950 . S
C527 C524 1.387 . S
C528 C529 1.387 . S
C528 H532 0.950 . S
C528 C537 1.390 . S
C529 C528 1.387 . S
C529 C531 1.387 . S
H530 C537 0.950 . S
C531 C529 1.387 . S
C531 C533 1.390 . S
C531 H535 0.950 . S
H532 C528 0.950 . S
C533 C531 1.390 . S
C533 C534 1.387 . S
C533 H536 0.950 . S
C534 C533 1.387 . S
C534 C537 1.387 . S
H535 C531 0.950 . S
H536 C533 0.950 . S
C537 C528 1.390 . S
C537 H530 0.950 . S
C537 C534 1.387 . S
C538 C539 1.387 . S
C538 H542 0.950 . S
C538 C547 1.390 . S
C539 C538 1.387 . S
C539 C541 1.387 . S
H540 C547 0.950 . S
C541 C539 1.387 . S
C541 C543 1.390 . S
C541 H545 0.950 . S
H542 C538 0.950 . S
C543 C541 1.390 . S
C543 C544 1.387 . S
C543 H546 0.950 . S
C544 C543 1.387 . S
C544 C547 1.387 . S
H545 C541 0.950 . S
H546 C543 0.950 . S
C547 C538 1.390 . S
C547 H540 0.950 . S
C547 C544 1.387 . S
C548 C549 1.387 . S
C548 H552 0.950 . S
C548 C557 1.390 . S
C549 C548 1.387 . S
C549 C551 1.387 . S
H550 C557 0.950 . S
C551 C549 1.387 . S
C551 C553 1.390 . S
C551 H555 0.950 . S
H552 C548 0.950 . S
C553 C551 1.390 . S
C553 C554 1.387 . S
C553 H556 0.950 . S
C554 C553 1.387 . S
C554 C557 1.387 . S
H555 C551 0.950 . S
H556 C553 0.950 . S
C557 C548 1.390 . S
C557 H550 0.950 . S
C557 C554 1.387 . S
C558 C559 1.387 . S
C558 H562 0.950 . S
C558 C567 1.390 . S
C559 C558 1.387 . S
C559 C561 1.387 . S
H560 C567 0.950 . S
C561 C559 1.387 . S
C561 C563 1.390 . S
C561 H565 0.950 . S
H562 C558 0.950 . S
C563 C561 1.390 . S
C563 C564 1.387 . S
C563 H566 0.950 . S
C564 C563 1.387 . S
C564 C567 1.387 . S
H565 C561 0.950 . S
H566 C563 0.950 . S
C567 C558 1.390 . S
C567 H560 0.950 . S
C567 C564 1.387 . S
C568 C569 1.387 . S
C568 H572 0.950 . S
C568 C577 1.390 . S
C569 C568 1.387 . S
C569 C571 1.387 . S
H570 C577 0.950 . S
C571 C569 1.387 . S
C571 C573 1.390 . S
C571 H575 0.950 . S
H572 C568 0.950 . S
C573 C571 1.390 . S
C573 C574 1.387 . S
C573 H576 0.950 . S
C574 C573 1.387 . S
C574 C577 1.387 . S
H575 C571 0.950 . S
H576 C573 0.950 . S
C577 C568 1.390 . S
C577 H570 0.950 . S
C577 C574 1.387 . S
C578 C579 1.387 . S
C578 H582 0.950 . S
C578 C587 1.390 . S
C579 C578 1.387 . S
C579 C581 1.387 . S
H580 C587 0.950 . S
C581 C579 1.387 . S
C581 C583 1.390 . S
C581 H585 0.950 . S
H582 C578 0.950 . S
C583 C581 1.390 . S
C583 C584 1.387 . S
C583 H586 0.950 . S
C584 C583 1.387 . S
C584 C587 1.387 . S
H585 C581 0.950 . S
H586 C583 0.950 . S
C587 C578 1.390 . S
C587 H580 0.950 . S
C587 C584 1.387 . S
C588 C589 1.387 . S
C588 H592 0.950 . S
C588 C597 1.390 . S
C589 C588 1.387 . S
C589 C591 1.387 . S
H590 C597 0.950 . S
C591 C589 1.387 . S
C591 C593 1.390 . S
C591 H595 0.950 . S
H592 C588 0.950 . S
C593 C591 1.390 . S
C593 C594 1.387 . S
C593 H596 0.950 . S
C594 C593 1.387 . S
C594 C597 1.387 . S
H595 C591 0.950 . S
H596 C593 0.950 . S
C597 C588 1.390 . S
C597 H590 0.950 . S
C597 C594 1.387 . S
C598 C599 1.387 . S
C598 H602 0.950 . S
C598 C607 1.390 . S
C599 C598 1.387 . S
C599 C601 1.387 . S
H600 C607 0.950 . S
C601 C599 1.387 . S
C601 C603 1.390 . S
C601 H605 0.950 . S
H602 C598 0.950 . S
C603 C601 1.390 . S
C603 C604 1.387 . S
C603 H606 0.950 . S
C604 C603 1.387 . S
C604 C607 1.387 . S
H605 C601 0.950 . S
H606 C603 0.950 . S
C607 C598 1.390 . S
C607 H600 0.950 . S
C607 C604 1.387 . S
C608 C609 1.387 . S
C608 H612 0.950 . S
C608 C617 1.390 1_565 S
C609 C608 1.387 . S
C609 C611 1.387 . S
H610 C617 0.950 . S
C611 C609 1.387 . S
C611 C613 1.390 1_565 S
C611 H615 0.950 . S
H612 C608 0.950 . S
C613 C611 1.390 1_545 S
C613 C614 1.387 . S
C613 H616 0.950 . S
C614 C613 1.387 . S
C614 C617 1.387 . S
H615 C611 0.950 . S
H616 C613 0.950 . S
C617 C608 1.390 1_545 S
C617 H610 0.950 . S
C617 C614 1.387 . S
C618 C619 1.387 . S
C618 H622 0.950 . S
C618 C627 1.390 1_655 S
C619 C618 1.387 . S
C619 C621 1.387 . S
H620 C627 0.950 . S
C621 C619 1.387 . S
C621 C623 1.390 1_655 S
C621 H625 0.950 . S
H622 C618 0.950 . S
C623 C621 1.390 1_455 S
C623 C624 1.387 . S
C623 H626 0.950 . S
C624 C623 1.387 . S
C624 C627 1.387 . S
H625 C621 0.950 . S
H626 C623 0.950 . S
C627 C618 1.390 1_455 S
C627 H620 0.950 . S
C627 C624 1.387 . S
C628 C629 1.387 1_554 S
C628 H632 0.950 . S
C628 C637 1.390 . S
C629 C628 1.387 1_556 S
C629 C631 1.387 . S
H630 C637 0.950 . S
C631 C629 1.387 . S
C631 C633 1.390 . S
C631 H635 0.950 . S
H632 C628 0.950 . S
C633 C631 1.390 . S
C633 C634 1.387 1_556 S
C633 H636 0.950 . S
C634 C633 1.387 1_554 S
C634 C637 1.387 . S
H635 C631 0.950 . S
H636 C633 0.950 . S
C637 C628 1.390 . S
C637 H630 0.950 . S
C637 C634 1.387 . S
C638 C639 1.387 1_554 S
C638 H642 0.950 . S
C638 C647 1.390 1_445 S
C639 C638 1.387 1_556 S
C639 C641 1.387 . S
H640 C647 0.950 . S
C641 C639 1.387 . S
C641 C643 1.390 1_445 S
C641 H645 0.950 . S
H642 C638 0.950 . S
C643 C641 1.390 1_665 S
C643 C644 1.387 1_556 S
C643 H646 0.950 . S
C644 C643 1.387 1_554 S
C644 C647 1.387 . S
H645 C641 0.950 . S
H646 C643 0.950 . S
C647 C638 1.390 1_665 S
C647 H640 0.950 . S
C647 C644 1.387 . S
C648 C649 1.387 . S
C648 H652 0.950 . S
C648 C657 1.390 1_545 S
C649 C648 1.387 . S
C649 C651 1.387 . S
H650 C657 0.950 . S
C651 C649 1.387 . S
C651 C653 1.390 1_545 S
C651 H655 0.950 . S
H652 C648 0.950 . S
C653 C651 1.390 1_565 S
C653 C654 1.387 . S
C653 H656 0.950 . S
C654 C653 1.387 . S
C654 C657 1.387 . S
H655 C651 0.950 . S
H656 C653 0.950 . S
C657 C648 1.390 1_565 S
C657 H650 0.950 . S
C657 C654 1.387 . S
C658 C659 1.387 . S
C658 H662 0.950 . S
C658 C667 1.390 . S
C659 C658 1.387 . S
C659 C661 1.387 1_455 S
H660 C667 0.950 . S
C661 C659 1.387 1_655 S
C661 C663 1.390 . S
C661 H665 0.950 . S
H662 C658 0.950 . S
C663 C661 1.390 . S
C663 C664 1.387 . S
C663 H666 0.950 . S
C664 C663 1.387 . S
C664 C667 1.387 1_655 S
H665 C661 0.950 . S
H666 C663 0.950 . S
C667 C658 1.390 . S
C667 H660 0.950 . S
C667 C664 1.387 1_455 S
C668 C669 1.387 1_554 S
C668 H672 0.950 . S
C668 C677 1.390 . S
C669 C668 1.387 1_556 S
C669 C671 1.387 . S
H670 C677 0.950 . S
C671 C669 1.387 . S
C671 C673 1.390 . S
C671 H675 0.950 . S
H672 C668 0.950 . S
C673 C671 1.390 . S
C673 C674 1.387 1_556 S
C673 H676 0.950 . S
C674 C673 1.387 1_554 S
C674 C677 1.387 . S
H675 C671 0.950 . S
H676 C673 0.950 . S
C677 C668 1.390 . S
C677 H670 0.950 . S
C677 C674 1.387 . S
C678 C679 1.387 . S
C678 H682 0.950 . S
C678 C687 1.390 . S
C679 C678 1.387 . S
C679 C681 1.387 . S
H680 C687 0.950 . S
C681 C679 1.387 . S
C681 C683 1.390 . S
C681 H685 0.950 . S
H682 C678 0.950 . S
C683 C681 1.390 . S
C683 C684 1.387 . S
C683 H686 0.950 . S
C684 C683 1.387 . S
C684 C687 1.387 . S
H685 C681 0.950 . S
H686 C683 0.950 . S
C687 C678 1.390 . S
C687 H680 0.950 . S
C687 C684 1.387 . S
C688 C689 1.387 . S
C688 H692 0.950 . S
C688 C697 1.390 . S
C689 C688 1.387 . S
C689 C691 1.387 . S
H690 C697 0.950 . S
C691 C689 1.387 . S
C691 C693 1.390 . S
C691 H695 0.950 . S
H692 C688 0.950 . S
C693 C691 1.390 . S
C693 C694 1.387 . S
C693 H696 0.950 . S
C694 C693 1.387 . S
C694 C697 1.387 . S
H695 C691 0.950 . S
H696 C693 0.950 . S
C697 C688 1.390 . S
C697 H690 0.950 . S
C697 C694 1.387 . S
C698 C699 1.387 1_455 S
C698 H702 0.950 . S
C698 C707 1.390 . S
C699 C698 1.387 1_655 S
C699 C701 1.387 . S
H700 C707 0.950 . S
C701 C699 1.387 . S
C701 C703 1.390 . S
C701 H705 0.950 . S
H702 C698 0.950 . S
C703 C701 1.390 . S
C703 C704 1.387 1_655 S
C703 H706 0.950 . S
C704 C703 1.387 1_455 S
C704 C707 1.387 . S
H705 C701 0.950 . S
H706 C703 0.950 . S
C707 C698 1.390 . S
C707 H700 0.950 . S
C707 C704 1.387 . S
C708 C709 1.387 . S
C708 H712 0.950 . S
C708 C717 1.390 . S
C709 C708 1.387 . S
C709 C711 1.387 . S
H710 C717 0.950 . S
C711 C709 1.387 . S
C711 C713 1.390 . S
C711 H715 0.950 . S
H712 C708 0.950 . S
C713 C711 1.390 . S
C713 C714 1.387 . S
C713 H716 0.950 . S
C714 C713 1.387 . S
C714 C717 1.387 . S
H715 C711 0.950 . S
H716 C713 0.950 . S
C717 C708 1.390 . S
C717 H710 0.950 . S
C717 C714 1.387 . S
C718 C719 1.387 . S
C718 H722 0.950 . S
C718 C727 1.390 . S
C719 C718 1.387 . S
C719 C721 1.387 . S
H720 C727 0.950 . S
C721 C719 1.387 . S
C721 C723 1.390 . S
C721 H725 0.950 . S
H722 C718 0.950 . S
C723 C721 1.390 . S
C723 C724 1.387 . S
C723 H726 0.950 . S
C724 C723 1.387 . S
C724 C727 1.387 . S
H725 C721 0.950 . S
H726 C723 0.950 . S
C727 C718 1.390 . S
C727 H720 0.950 . S
C727 C724 1.387 . S
C728 C729 1.387 . S
C728 H732 0.950 . S
C728 C737 1.390 . S
C729 C728 1.387 . S
C729 C731 1.387 . S
H730 C737 0.950 . S
C731 C729 1.387 . S
C731 C733 1.390 . S
C731 H735 0.950 . S
H732 C728 0.950 . S
C733 C731 1.390 . S
C733 C734 1.387 . S
C733 H736 0.950 . S
C734 C733 1.387 . S
C734 C737 1.387 . S
H735 C731 0.950 . S
H736 C733 0.950 . S
C737 C728 1.390 . S
C737 H730 0.950 . S
C737 C734 1.387 . S
C738 C739 1.387 . S
C738 H742 0.950 . S
C738 C747 1.390 1_545 S
C739 C738 1.387 . S
C739 C741 1.387 . S
H740 C747 0.950 . S
C741 C739 1.387 . S
C741 C743 1.390 1_545 S
C741 H745 0.950 . S
H742 C738 0.950 . S
C743 C741 1.390 1_565 S
C743 C744 1.387 . S
C743 H746 0.950 . S
C744 C743 1.387 . S
C744 C747 1.387 . S
H745 C741 0.950 . S
H746 C743 0.950 . S
C747 C738 1.390 1_565 S
C747 H740 0.950 . S
C747 C744 1.387 . S
C748 C749 1.387 . S
C748 H752 0.950 . S
C748 C757 1.390 . S
C749 C748 1.387 . S
C749 C751 1.387 . S
H750 C757 0.950 . S
C751 C749 1.387 . S
C751 C753 1.390 . S
C751 H755 0.950 . S
H752 C748 0.950 . S
C753 C751 1.390 . S
C753 C754 1.387 . S
C753 H756 0.950 . S
C754 C753 1.387 . S
C754 C757 1.387 . S
H755 C751 0.950 . S
H756 C753 0.950 . S
C757 C748 1.390 . S
C757 H750 0.950 . S
C757 C754 1.387 . S
C758 C759 1.387 . S
C758 H762 0.950 . S
C758 C767 1.390 . S
C759 C758 1.387 . S
C759 C761 1.387 1_554 S
H760 C767 0.950 . S
C761 C759 1.387 1_556 S
C761 C763 1.390 . S
C761 H765 0.950 . S
H762 C758 0.950 . S
C763 C761 1.390 . S
C763 C764 1.387 . S
C763 H766 0.950 . S
C764 C763 1.387 . S
C764 C767 1.387 1_556 S
H765 C761 0.950 . S
H766 C763 0.950 . S
C767 C758 1.390 . S
C767 H760 0.950 . S
C767 C764 1.387 1_554 S
C768 C769 1.387 . S
C768 H772 0.950 . S
C768 C777 1.390 . S
C769 C768 1.387 . S
C769 C771 1.387 . S
H770 C777 0.950 . S
C771 C769 1.387 . S
C771 C773 1.390 . S
C771 H775 0.950 . S
H772 C768 0.950 . S
C773 C771 1.390 . S
C773 C774 1.387 . S
C773 H776 0.950 . S
C774 C773 1.387 . S
C774 C777 1.387 . S
H775 C771 0.950 . S
H776 C773 0.950 . S
C777 C768 1.390 . S
C777 H770 0.950 . S
C777 C774 1.387 . S
C778 C779 1.387 . S
C778 H782 0.950 . S
C778 C787 1.390 . S
C779 C778 1.387 . S
C779 C781 1.387 1_556 S
H780 C787 0.950 . S
C781 C779 1.387 1_554 S
C781 C783 1.390 . S
C781 H785 0.950 . S
H782 C778 0.950 . S
C783 C781 1.390 . S
C783 C784 1.387 1_554 S
C783 H786 0.950 . S
C784 C783 1.387 1_556 S
C784 C787 1.387 . S
H785 C781 0.950 . S
H786 C783 0.950 . S
C787 C778 1.390 . S
C787 H780 0.950 . S
C787 C784 1.387 . S
C788 C789 1.387 . S
C788 H792 0.950 . S
C788 C797 1.390 . S
C789 C788 1.387 . S
C789 C791 1.387 . S
H790 C797 0.950 . S
C791 C789 1.387 . S
C791 C793 1.390 . S
C791 H795 0.950 . S
H792 C788 0.950 . S
C793 C791 1.390 . S
C793 C794 1.387 . S
C793 H796 0.950 . S
C794 C793 1.387 . S
C794 C797 1.387 . S
H795 C791 0.950 . S
H796 C793 0.950 . S
C797 C788 1.390 . S
C797 H790 0.950 . S
C797 C794 1.387 . S
C798 C799 1.387 1_556 S
C798 H802 0.950 . S
C798 C807 1.390 . S
C799 C798 1.387 1_554 S
C799 C801 1.387 . S
H800 C807 0.950 . S
C801 C799 1.387 . S
C801 C803 1.390 . S
C801 H805 0.950 . S
H802 C798 0.950 . S
C803 C801 1.390 . S
C803 C804 1.387 . S
C803 H806 0.950 . S
C804 C803 1.387 . S
C804 C807 1.387 1_554 S
H805 C801 0.950 . S
H806 C803 0.950 . S
C807 C798 1.390 . S
C807 H800 0.950 . S
C807 C804 1.387 1_556 S
C808 C809 1.387 . S
C808 H812 0.950 . S
C808 C817 1.390 . S
C809 C808 1.387 . S
C809 C811 1.387 . S
H810 C817 0.950 . S
C811 C809 1.387 . S
C811 C813 1.390 . S
C811 H815 0.950 . S
H812 C808 0.950 . S
C813 C811 1.390 . S
C813 C814 1.387 . S
C813 H816 0.950 . S
C814 C813 1.387 . S
C814 C817 1.387 . S
H815 C811 0.950 . S
H816 C813 0.950 . S
C817 C808 1.390 . S
C817 H810 0.950 . S
C817 C814 1.387 . S
C818 C819 1.387 . S
C818 H822 0.950 . S
C818 C827 1.390 . S
C819 C818 1.387 . S
C819 C821 1.387 . S
H820 C827 0.950 . S
C821 C819 1.387 . S
C821 C823 1.390 . S
C821 H825 0.950 . S
H822 C818 0.950 . S
C823 C821 1.390 . S
C823 C824 1.387 . S
C823 H826 0.950 . S
C824 C823 1.387 . S
C824 C827 1.387 . S
H825 C821 0.950 . S
H826 C823 0.950 . S
C827 C818 1.390 . S
C827 H820 0.950 . S
C827 C824 1.387 . S
C828 C829 1.387 . S
C828 H832 0.950 . S
C828 C837 1.390 . S
C829 C828 1.387 . S
C829 C831 1.387 . S
H830 C837 0.950 . S
C831 C829 1.387 . S
C831 C833 1.390 . S
C831 H835 0.950 . S
H832 C828 0.950 . S
C833 C831 1.390 . S
C833 C834 1.387 . S
C833 H836 0.950 . S
C834 C833 1.387 . S
C834 C837 1.387 . S
H835 C831 0.950 . S
H836 C833 0.950 . S
C837 C828 1.390 . S
C837 H830 0.950 . S
C837 C834 1.387 . S
C838 C839 1.387 . S
C838 H842 0.950 . S
C838 C847 1.390 . S
C839 C838 1.387 . S
C839 C841 1.387 . S
H840 C847 0.950 . S
C841 C839 1.387 . S
C841 C843 1.390 . S
C841 H845 0.950 . S
H842 C838 0.950 . S
C843 C841 1.390 . S
C843 C844 1.387 . S
C843 H846 0.950 . S
C844 C843 1.387 . S
C844 C847 1.387 . S
H845 C841 0.950 . S
H846 C843 0.950 . S
C847 C838 1.390 . S
C847 H840 0.950 . S
C847 C844 1.387 . S
C848 C849 1.387 . S
C848 H852 0.950 . S
C848 C857 1.390 . S
C849 C848 1.387 . S
C849 C851 1.387 . S
H850 C857 0.950 . S
C851 C849 1.387 . S
C851 C853 1.390 . S
C851 H855 0.950 . S
H852 C848 0.950 . S
C853 C851 1.390 . S
C853 C854 1.387 . S
C853 H856 0.950 . S
C854 C853 1.387 . S
C854 C857 1.387 . S
H855 C851 0.950 . S
H856 C853 0.950 . S
C857 C848 1.390 . S
C857 H850 0.950 . S
C857 C854 1.387 . S
C858 C859 1.387 . S
C858 H862 0.950 . S
C858 C867 1.390 . S
C859 C858 1.387 . S
C859 C861 1.387 . S
H860 C867 0.950 . S
C861 C859 1.387 . S
C861 C863 1.390 . S
C861 H865 0.950 . S
H862 C858 0.950 . S
C863 C861 1.390 . S
C863 C864 1.387 . S
C863 H866 0.950 . S
C864 C863 1.387 . S
C864 C867 1.387 . S
H865 C861 0.950 . S
H866 C863 0.950 . S
C867 C858 1.390 . S
C867 H860 0.950 . S
C867 C864 1.387 . S
C868 C869 1.387 . S
C868 H872 0.950 . S
C868 C877 1.390 . S
C869 C868 1.387 . S
C869 C871 1.387 . S
H870 C877 0.950 . S
C871 C869 1.387 . S
C871 C873 1.390 . S
C871 H875 0.950 . S
H872 C868 0.950 . S
C873 C871 1.390 . S
C873 C874 1.387 . S
C873 H876 0.950 . S
C874 C873 1.387 . S
C874 C877 1.387 . S
H875 C871 0.950 . S
H876 C873 0.950 . S
C877 C868 1.390 . S
C877 H870 0.950 . S
C877 C874 1.387 . S
C878 C879 1.387 . S
C878 H882 0.950 . S
C878 C887 1.390 . S
C879 C878 1.387 . S
C879 C881 1.387 . S
H880 C887 0.950 . S
C881 C879 1.387 . S
C881 C883 1.390 . S
C881 H885 0.950 . S
H882 C878 0.950 . S
C883 C881 1.390 . S
C883 C884 1.387 . S
C883 H886 0.950 . S
C884 C883 1.387 . S
C884 C887 1.387 . S
H885 C881 0.950 . S
H886 C883 0.950 . S
C887 C878 1.390 . S
C887 H880 0.950 . S
C887 C884 1.387 . S
C888 C889 1.387 . S
C888 H892 0.950 . S
C888 C897 1.390 . S
C889 C888 1.387 . S
C889 C891 1.387 . S
H890 C897 0.950 . S
C891 C889 1.387 . S
C891 C893 1.390 . S
C891 H895 0.950 . S
H892 C888 0.950 . S
C893 C891 1.390 . S
C893 C894 1.387 . S
C893 H896 0.950 . S
C894 C893 1.387 . S
C894 C897 1.387 . S
H895 C891 0.950 . S
H896 C893 0.950 . S
C897 C888 1.390 . S
C897 H890 0.950 . S
C897 C894 1.387 . S
C898 C899 1.387 . S
C898 H902 0.950 . S
C898 C907 1.390 . S
C899 C898 1.387 . S
C899 C901 1.387 1_556 S
H900 C907 0.950 . S
C901 C899 1.387 1_554 S
C901 C903 1.390 . S
C901 H905 0.950 . S
H902 C898 0.950 . S
C903 C901 1.390 . S
C903 C904 1.387 1_554 S
C903 H906 0.950 . S
C904 C903 1.387 1_556 S
C904 C907 1.387 . S
H905 C901 0.950 . S
H906 C903 0.950 . S
C907 C898 1.390 . S
C907 H900 0.950 . S
C907 C904 1.387 . S
C908 C909 1.387 . S
C908 H912 0.950 . S
C908 C917 1.390 . S
C909 C908 1.387 . S
C909 C911 1.387 . S
H910 C917 0.950 . S
C911 C909 1.387 . S
C911 C913 1.390 . S
C911 H915 0.950 . S
H912 C908 0.950 . S
C913 C911 1.390 . S
C913 C914 1.387 . S
C913 H916 0.950 . S
C914 C913 1.387 . S
C914 C917 1.387 . S
H915 C911 0.950 . S
H916 C913 0.950 . S
C917 C908 1.390 . S
C917 H910 0.950 . S
C917 C914 1.387 . S
C918 C919 1.387 . S
C918 H922 0.950 . S
C918 C927 1.390 . S
C919 C918 1.387 . S
C919 C921 1.387 1_554 S
H920 C927 0.950 . S
C921 C919 1.387 1_556 S
C921 C923 1.390 . S
C921 H925 0.950 . S
H922 C918 0.950 . S
C923 C921 1.390 . S
C923 C924 1.387 1_556 S
C923 H926 0.950 . S
C924 C923 1.387 1_554 S
C924 C927 1.387 . S
H925 C921 0.950 . S
H926 C923 0.950 . S
C927 C918 1.390 . S
C927 H920 0.950 . S
C927 C924 1.387 . S
C928 C929 1.387 . S
C928 H932 0.950 . S
C928 C937 1.390 . S
C929 C928 1.387 . S
C929 C931 1.387 . S
H930 C937 0.950 . S
C931 C929 1.387 . S
C931 C933 1.390 . S
C931 H935 0.950 . S
H932 C928 0.950 . S
C933 C931 1.390 . S
C933 C934 1.387 . S
C933 H936 0.950 . S
C934 C933 1.387 . S
C934 C937 1.387 . S
H935 C931 0.950 . S
H936 C933 0.950 . S
C937 C928 1.390 . S
C937 H930 0.950 . S
C937 C934 1.387 . S
C938 C939 1.387 . S
C938 H942 0.950 . S
C938 C947 1.390 . S
C939 C938 1.387 . S
C939 C941 1.387 . S
H940 C947 0.950 . S
C941 C939 1.387 . S
C941 C943 1.390 . S
C941 H945 0.950 . S
H942 C938 0.950 . S
C943 C941 1.390 . S
C943 C944 1.387 . S
C943 H946 0.950 . S
C944 C943 1.387 . S
C944 C947 1.387 . S
H945 C941 0.950 . S
H946 C943 0.950 . S
C947 C938 1.390 . S
C947 H940 0.950 . S
C947 C944 1.387 . S
C948 C949 1.387 . S
C948 H952 0.950 . S
C948 C957 1.390 . S
C949 C948 1.387 . S
C949 C951 1.387 . S
H950 C957 0.950 . S
C951 C949 1.387 . S
C951 C953 1.390 . S
C951 H955 0.950 . S
H952 C948 0.950 . S
C953 C951 1.390 . S
C953 C954 1.387 . S
C953 H956 0.950 . S
C954 C953 1.387 . S
C954 C957 1.387 . S
H955 C951 0.950 . S
H956 C953 0.950 . S
C957 C948 1.390 . S
C957 H950 0.950 . S
C957 C954 1.387 . S
C958 C959 1.387 . S
C958 H962 0.950 . S
C958 C967 1.390 . S
C959 C958 1.387 . S
C959 C961 1.387 . S
H960 C967 0.950 . S
C961 C959 1.387 . S
C961 C963 1.390 . S
C961 H965 0.950 . S
H962 C958 0.950 . S
C963 C961 1.390 . S
C963 C964 1.387 . S
C963 H966 0.950 . S
C964 C963 1.387 . S
C964 C967 1.387 . S
H965 C961 0.950 . S
H966 C963 0.950 . S
C967 C958 1.390 . S
C967 H960 0.950 . S
C967 C964 1.387 . S
C968 C969 1.387 . S
C968 H972 0.950 . S
C968 C977 1.390 . S
C969 C968 1.387 . S
C969 C971 1.387 . S
H970 C977 0.950 . S
C971 C969 1.387 . S
C971 C973 1.390 . S
C971 H975 0.950 . S
H972 C968 0.950 . S
C973 C971 1.390 . S
C973 C974 1.387 . S
C973 H976 0.950 . S
C974 C973 1.387 . S
C974 C977 1.387 . S
H975 C971 0.950 . S
H976 C973 0.950 . S
C977 C968 1.390 . S
C977 H970 0.950 . S
C977 C974 1.387 . S
C978 C979 1.387 . S
C978 H982 0.950 . S
C978 C987 1.390 . S
C979 C978 1.387 . S
C979 C981 1.387 . S
H980 C987 0.950 . S
C981 C979 1.387 . S
C981 C983 1.390 . S
C981 H985 0.950 . S
H982 C978 0.950 . S
C983 C981 1.390 . S
C983 C984 1.387 . S
C983 H986 0.950 . S
C984 C983 1.387 . S
C984 C987 1.387 . S
H985 C981 0.950 . S
H986 C983 0.950 . S
C987 C978 1.390 . S
C987 H980 0.950 . S
C987 C984 1.387 . S
C988 C989 1.387 . S
C988 H992 0.950 . S
C988 C997 1.390 . S
C989 C988 1.387 . S
C989 C991 1.387 . S
H990 C997 0.950 . S
C991 C989 1.387 . S
C991 C993 1.390 . S
C991 H995 0.950 . S
H992 C988 0.950 . S
C993 C991 1.390 . S
C993 C994 1.387 . S
C993 H996 0.950 . S
C994 C993 1.387 . S
C994 C997 1.387 . S
H995 C991 0.950 . S
H996 C993 0.950 . S
C997 C988 1.390 . S
C997 H990 0.950 . S
C997 C994 1.387 . S
C998 C999 1.387 . S
C998 H1002 0.950 . S
C998 C1007 1.390 . S
C999 C998 1.387 . S
C999 C1001 1.387 . S
H1000 C1007 0.950 . S
C1001 C999 1.387 . S
C1001 C1003 1.390 . S
C1001 H1005 0.950 . S
H1002 C998 0.950 . S
C1003 C1001 1.390 . S
C1003 C1004 1.387 . S
C1003 H1006 0.950 . S
C1004 C1003 1.387 . S
C1004 C1007 1.387 . S
H1005 C1001 0.950 . S
H1006 C1003 0.950 . S
C1007 C998 1.390 . S
C1007 H1000 0.950 . S
C1007 C1004 1.387 . S
C1008 C1009 1.387 . S
C1008 H1012 0.950 . S
C1008 C1017 1.390 . S
C1009 C1008 1.387 . S
C1009 C1011 1.387 . S
H1010 C1017 0.950 . S
C1011 C1009 1.387 . S
C1011 C1013 1.390 . S
C1011 H1015 0.950 . S
H1012 C1008 0.950 . S
C1013 C1011 1.390 . S
C1013 C1014 1.387 . S
C1013 H1016 0.950 . S
C1014 C1013 1.387 . S
C1014 C1017 1.387 . S
H1015 C1011 0.950 . S
H1016 C1013 0.950 . S
C1017 C1008 1.390 . S
C1017 H1010 0.950 . S
C1017 C1014 1.387 . S
C1018 C1019 1.387 . S
C1018 H1022 0.950 . S
C1018 C1027 1.390 . S
C1019 C1018 1.387 . S
C1019 C1021 1.387 . S
H1020 C1027 0.950 . S
C1021 C1019 1.387 . S
C1021 C1023 1.390 . S
C1021 H1025 0.950 . S
H1022 C1018 0.950 . S
C1023 C1021 1.390 . S
C1023 C1024 1.387 . S
C1023 H1026 0.950 . S
C1024 C1023 1.387 . S
C1024 C1027 1.387 . S
H1025 C1021 0.950 . S
H1026 C1023 0.950 . S
C1027 C1018 1.390 . S
C1027 H1020 0.950 . S
C1027 C1024 1.387 . S
C1028 C1029 1.387 . S
C1028 H1032 0.950 . S
C1028 C1037 1.390 . S
C1029 C1028 1.387 . S
C1029 C1031 1.387 . S
H1030 C1037 0.950 . S
C1031 C1029 1.387 . S
C1031 C1033 1.390 . S
C1031 H1035 0.950 . S
H1032 C1028 0.950 . S
C1033 C1031 1.390 . S
C1033 C1034 1.387 . S
C1033 H1036 0.950 . S
C1034 C1033 1.387 . S
C1034 C1037 1.387 . S
H1035 C1031 0.950 . S
H1036 C1033 0.950 . S
C1037 C1028 1.390 . S
C1037 H1030 0.950 . S
C1037 C1034 1.387 . S
C1038 C1039 1.387 . S
C1038 H1042 0.950 . S
C1038 C1047 1.390 . S
C1039 C1038 1.387 . S
C1039 C1041 1.387 . S
H1040 C1047 0.950 . S
C1041 C1039 1.387 . S
C1041 C1043 1.390 . S
C1041 H1045 0.950 . S
H1042 C1038 0.950 . S
C1043 C1041 1.390 . S
C1043 C1044 1.387 . S
C1043 H1046 0.950 . S
C1044 C1043 1.387 . S
C1044 C1047 1.387 . S
H1045 C1041 0.950 . S
H1046 C1043 0.950 . S
C1047 C1038 1.390 . S
C1047 H1040 0.950 . S
C1047 C1044 1.387 . S
C1048 C1049 1.387 . S
C1048 H1052 0.950 . S
C1048 C1057 1.390 . S
C1049 C1048 1.387 . S
C1049 C1051 1.387 . S
H1050 C1057 0.950 . S
C1051 C1049 1.387 . S
C1051 C1053 1.390 . S
C1051 H1055 0.950 . S
H1052 C1048 0.950 . S
C1053 C1051 1.390 . S
C1053 C1054 1.387 . S
C1053 H1056 0.950 . S
C1054 C1053 1.387 . S
C1054 C1057 1.387 . S
H1055 C1051 0.950 . S
H1056 C1053 0.950 . S
C1057 C1048 1.390 . S
C1057 H1050 0.950 . S
C1057 C1054 1.387 . S
C1058 C1059 1.387 . S
C1058 H1062 0.950 . S
C1058 C1067 1.390 . S
C1059 C1058 1.387 . S
C1059 C1061 1.387 . S
H1060 C1067 0.950 . S
C1061 C1059 1.387 . S
C1061 C1063 1.390 . S
C1061 H1065 0.950 . S
H1062 C1058 0.950 . S
C1063 C1061 1.390 . S
C1063 C1064 1.387 . S
C1063 H1066 0.950 . S
C1064 C1063 1.387 . S
C1064 C1067 1.387 . S
H1065 C1061 0.950 . S
H1066 C1063 0.950 . S
C1067 C1058 1.390 . S
C1067 H1060 0.950 . S
C1067 C1064 1.387 . S
C1068 C1069 1.387 . S
C1068 H1072 0.950 . S
C1068 C1077 1.390 . S
C1069 C1068 1.387 . S
C1069 C1071 1.387 . S
H1070 C1077 0.950 . S
C1071 C1069 1.387 . S
C1071 C1073 1.390 . S
C1071 H1075 0.950 . S
H1072 C1068 0.950 . S
C1073 C1071 1.390 . S
C1073 C1074 1.387 . S
C1073 H1076 0.950 . S
C1074 C1073 1.387 . S
C1074 C1077 1.387 . S
H1075 C1071 0.950 . S
H1076 C1073 0.950 . S
C1077 C1068 1.390 . S
C1077 H1070 0.950 . S
C1077 C1074 1.387 . S
C1078 C1079 1.387 . S
C1078 H1082 0.950 . S
C1078 C1087 1.390 . S
C1079 C1078 1.387 . S
C1079 C1081 1.387 . S
H1080 C1087 0.950 . S
C1081 C1079 1.387 . S
C1081 C1083 1.390 . S
C1081 H1085 0.950 . S
H1082 C1078 0.950 . S
C1083 C1081 1.390 . S
C1083 C1084 1.387 . S
C1083 H1086 0.950 . S
C1084 C1083 1.387 . S
C1084 C1087 1.387 . S
H1085 C1081 0.950 . S
H1086 C1083 0.950 . S
C1087 C1078 1.390 . S
C1087 H1080 0.950 . S
C1087 C1084 1.387 . S
C449 C51 1.202 . S
C454 C9 1.202 . S
C459 C37 1.207 . S
C464 C23 1.207 . S
C469 C107 1.202 . S
C474 C65 1.202 . S
C479 C93 1.202 . S
C484 C79 1.202 . S
C489 C121 1.207 . S
C494 C163 1.207 . S
C499 C135 1.202 . S
C504 C149 1.202 . S
C509 C219 1.207 . S
C514 C177 1.207 . S
C519 C191 1.207 . S
C524 C205 1.207 . S
C529 C233 1.202 . S
C534 C275 1.202 . S
C539 C247 1.202 . S
C544 C261 1.202 . S
C549 C331 1.207 . S
C554 C289 1.207 . S
C559 C317 1.202 . S
C564 C303 1.202 . S
C569 C387 1.202 . S
C574 C345 1.202 . S
C579 C359 1.207 . S
C584 C373 1.207 . S
C589 C401 1.202 . S
C594 C443 1.202 . S
C599 C415 1.202 . S
C604 C429 1.202 . S
C609 C283 1.375 . S
C614 C3 1.375 . S
C619 C185 1.378 . S
C624 C17 1.378 . S
C629 C31 1.375 . S
C634 C423 1.375 . S
C639 C45 1.376 . S
C644 C101 1.376 . S
C649 C227 1.377 . S
C654 C59 1.377 . S
C659 C129 1.379 . S
C664 C73 1.379 . S
C669 C367 1.375 . S
C674 C87 1.375 . S
C679 C115 1.378 . S
C684 C395 1.377 . S
C689 C311 1.378 . S
C694 C143 1.378 . S
C699 C213 1.378 . S
C704 C157 1.378 . S
C709 C339 1.378 . S
C714 C171 1.378 . S
C719 C199 1.379 . S
C724 C255 1.379 . S
C729 C409 1.378 . S
C734 C241 1.378 . S
C739 C269 1.378 . S
C744 C325 1.378 . S
C749 C353 1.375 . S
C754 C297 1.375 . S
C759 C437 1.376 . S
C764 C381 1.376 . S
C769 C21 1.426 . S
C774 C7 1.426 . S
C779 C35 1.426 . S
C784 C49 1.426 . S
C789 C63 1.427 . S
C794 C77 1.427 . S
C799 C105 1.426 . S
C804 C91 1.426 . S
C809 C119 1.427 . S
C814 C133 1.427 . S
C819 C147 1.427 . S
C824 C161 1.427 . S
C829 C189 1.426 . S
C834 C175 1.426 . S
C839 C203 1.427 . S
C844 C217 1.427 . S
C849 C231 1.427 . S
C854 C245 1.427 . S
C859 C259 1.427 . S
C864 C273 1.427 . S
C869 C287 1.427 . S
C874 C301 1.427 . S
C879 C329 1.427 . S
C884 C315 1.427 . S
C889 C357 1.426 . S
C894 C343 1.426 . S
C899 C371 1.426 . S
C904 C385 1.426 . S
C909 C399 1.427 . S
C914 C413 1.427 . S
C919 C441 1.427 . S
C924 C427 1.427 . S
C929 C8 1.542 . S
C934 C274 1.542 . S
C939 C22 1.542 . S
C944 C260 1.542 . S
C949 C246 1.543 . S
C954 C36 1.543 . S
C959 C50 1.542 . S
C964 C232 1.542 . S
C969 C330 1.543 . S
C974 C64 1.543 . S
C979 C78 1.542 . S
C984 C316 1.542 . S
C989 C302 1.543 . S
C994 C92 1.543 . S
C999 C106 1.543 . S
C1004 C288 1.543 . S
C1009 C120 1.542 . S
C1014 C386 1.542 . S
C1019 C134 1.542 . S
C1024 C372 1.542 . S
C1029 C148 1.542 . S
C1034 C358 1.542 . S
C1039 C344 1.542 . S
C1044 C162 1.542 . S
C1049 C176 1.542 . S
C1054 C442 1.542 . S
C1059 C190 1.542 . S
C1064 C428 1.542 . S
C1069 C204 1.543 . S
C1074 C414 1.543 . S
C1079 C400 1.543 . S
C1084 C218 1.543 . S
