# Generated by pormake.
# Topology rob, (6)-cn, num edge types: 1
# Building blocks:
#     Node 0, Type 0, BuildingBlock: BETFEN_clean_sbu_0, # of connection points: 6
#     Node 1, Type 0, BuildingBlock: BETFEN_clean_sbu_0, # of connection points: 6
#     Node 2, Type 0, BuildingBlock: BETFEN_clean_sbu_0, # of connection points: 6
#     Node 3, Type 0, BuildingBlock: BETFEN_clean_sbu_0, # of connection points: 6
#     Edge 4, Type (0, 0), BuildingBlock: TEMPAE_clean_linker_10, # of connection points: 2
#     Edge 5, Type (0, 0), BuildingBlock: TEMPAE_clean_linker_10, # of connection points: 2
#     Edge 6, Type (0, 0), BuildingBlock: TEMPAE_clean_linker_10, # of connection points: 2
#     Edge 7, Type (0, 0), BuildingBlock: TEMPAE_clean_linker_10, # of connection points: 2
#     Edge 8, Type (0, 0), BuildingBlock: TEMPAE_clean_linker_10, # of connection points: 2
#     Edge 9, Type (0, 0), BuildingBlock: TEMPAE_clean_linker_10, # of connection points: 2
#     Edge 10, Type (0, 0), BuildingBlock: TEMPAE_clean_linker_10, # of connection points: 2
#     Edge 11, Type (0, 0), BuildingBlock: TEMPAE_clean_linker_10, # of connection points: 2
#     Edge 12, Type (0, 0), BuildingBlock: TEMPAE_clean_linker_10, # of connection points: 2
#     Edge 13, Type (0, 0), BuildingBlock: TEMPAE_clean_linker_10, # of connection points: 2
#     Edge 14, Type (0, 0), BuildingBlock: TEMPAE_clean_linker_10, # of connection points: 2
#     Edge 15, Type (0, 0), BuildingBlock: TEMPAE_clean_linker_10, # of connection points: 2
# Relax obj value: 0.051
# Max RMSD: 0.163
# Mean RMSD: 0.163
data_MOF--net-rob--node1-BETFEN_clean_sbu_0--edge1-TEMPAE_clean_linker_10
_symmetry_space_group_name_H-M    P1
_symmetry_Int_Tables_number       1
_symmetry_cell_setting            triclinic
loop_
_symmetry_equiv_pos_as_xyz
'x, y, z'
_cell_length_a     14.943102
_cell_length_b     25.242669
_cell_length_c     37.649768
_cell_angle_alpha  96.720603
_cell_angle_beta   89.64215
_cell_angle_gamma 89.972109
loop_
_atom_site_label
_atom_site_type_symbol
_atom_site_fract_x
_atom_site_fract_y
_atom_site_fract_z
_atom_type_partial_charge
Pr0 Pr 0.14394 0.27671 0.03584 0.0
Pr1 Pr 0.34847 0.23832 0.99885 0.0
C2 C 0.99085 0.2698 0.07278 0.0
C3 C 0.96224 0.28184 0.1104 0.0
C4 C 0.99238 0.32759 0.13175 0.0
C5 C 0.97527 0.33416 0.16861 0.0
C6 C 0.92899 0.2947 0.18495 0.0
C7 C 0.89702 0.24964 0.16314 0.0
C8 C 0.91324 0.24344 0.12629 0.0
C9 C 0.26644 0.36118 0.0347 0.0
C10 C 0.3215 0.24769 0.08713 0.0
C11 C 0.50039 0.24174 0.96074 0.0
C12 C 0.5168 0.23907 0.92195 0.0
C13 C 0.45647 0.21236 0.89759 0.0
C14 C 0.46769 0.21381 0.86081 0.0
C15 C 0.53881 0.24255 0.84774 0.0
C16 C 0.59921 0.26916 0.87222 0.0
C17 C 0.58826 0.2674 0.90902 0.0
C18 C 0.22251 0.15465 0.99764 0.0
C19 C 0.17313 0.27005 0.94789 0.0
O20 O 0.04874 0.23075 0.06714 0.0
O21 O 0.00826 0.30998 0.05451 0.0
O22 O 0.27714 0.3124 0.02452 0.0
O23 O 0.18564 0.36858 0.04765 0.0
O24 O 0.38023 0.2429 0.06021 0.0
O25 O 0.23454 0.25603 0.08307 0.0
O26 O 0.45838 0.2846 0.97491 0.0
O27 O 0.47167 0.19801 0.97275 0.0
O28 O 0.21287 0.20347 1.00796 0.0
O29 O 0.30518 0.14671 0.98713 0.0
O30 O 0.1134 0.27079 0.97434 0.0
O31 O 0.26059 0.26405 0.95229 0.0
H32 H 0.03135 0.3575 0.12018 0.0
H33 H -0.00043 0.36983 0.18435 0.0
H34 H 0.86248 0.21795 0.17463 0.0
H35 H 0.89063 0.20744 0.11037 0.0
H36 H 0.39958 0.19125 0.90704 0.0
H37 H 0.41945 0.19357 0.84263 0.0
H38 H 0.65503 0.29128 0.86289 0.0
H39 H 0.63471 0.28889 0.92741 0.0
Pr40 Pr 0.65094 0.7792 0.02803 0.0
Pr41 Pr 0.83081 0.73948 0.99955 0.0
C42 C 0.50388 0.7935 0.06962 0.0
C43 C 0.49064 0.7959 0.10884 0.0
C44 C 0.54306 0.82962 0.13282 0.0
C45 C 0.53357 0.8291 0.16981 0.0
C46 C 0.47238 0.79441 0.18363 0.0
C47 C 0.42042 0.76051 0.15964 0.0
C48 C 0.42926 0.76141 0.12266 0.0
C49 C 0.77266 0.85986 0.01801 0.0
C50 C 0.80987 0.74647 0.08487 0.0
C51 C 0.97916 0.72779 0.95834 0.0
C52 C -0.00505 0.7291 0.91956 0.0
C53 C 0.93527 0.7044 0.894 0.0
C54 C 0.94839 0.70828 0.85752 0.0
C55 C 0.02069 0.73754 0.84583 0.0
C56 C 0.07987 0.76256 0.87146 0.0
C57 C 0.06724 0.75824 0.90793 0.0
C58 C 0.70945 0.65827 1.00942 0.0
C59 C 0.67029 0.77142 0.94302 0.0
O60 O 0.52718 0.74695 0.05322 0.0
O61 O 0.547 0.83307 0.05775 0.0
O62 O 0.79053 0.81822 0.0322 0.0
O63 O 0.68912 0.86151 1.00871 0.0
O64 O 0.87155 0.74739 0.05971 0.0
O65 O 0.72412 0.75049 0.07746 0.0
O66 O 0.95618 0.7732 0.97642 0.0
O67 O 0.93387 0.68732 0.96786 0.0
O68 O 0.6912 0.7003 0.99569 0.0
O69 O 0.79393 0.65605 0.0174 0.0
O70 O 0.6091 0.76934 0.9682 0.0
O71 O 0.75637 0.76856 0.95031 0.0
H72 H 0.5923 0.85596 0.12305 0.0
H73 H 0.57525 0.85519 0.18762 0.0
H74 H 0.37222 0.73363 0.16951 0.0
H75 H 0.38878 0.73466 0.10478 0.0
H76 H 0.87778 0.68261 0.90222 0.0
H77 H 0.90099 0.68921 0.83847 0.0
H78 H 0.13651 0.78509 0.86326 0.0
H79 H 0.11353 0.77811 0.92712 0.0
Pr80 Pr 0.14308 0.76401 0.49925 0.0
Pr81 Pr 0.33636 0.80675 0.53192 0.0
C82 C 0.99034 0.76722 0.46242 0.0
C83 C 0.97118 0.76489 0.42366 0.0
C84 C 0.91547 0.7249 0.40683 0.0
C85 C 0.9003 0.72127 0.3699 0.0
C86 C 0.94017 0.75781 0.3491 0.0
C87 C -0.00482 0.7981 0.3661 0.0
C88 C 0.0108 0.8015 0.40285 0.0
C89 C 0.26654 0.67974 0.50006 0.0
C90 C 0.31642 0.78974 0.44504 0.0
C91 C 0.48154 0.8212 0.57358 0.0
C92 C 0.49706 0.81538 0.61168 0.0
C93 C 0.4348 0.83533 0.6381 0.0
C94 C 0.44906 0.82902 0.67401 0.0
C95 C 0.52522 0.80205 0.68424 0.0
C96 C 0.58665 0.78123 0.65774 0.0
C97 C 0.57279 0.78801 0.62178 0.0
C98 C 0.21235 0.88359 0.51723 0.0
C99 C 0.16938 0.76817 0.58601 0.0
O100 O 0.03153 0.81009 0.47701 0.0
O101 O 0.01949 0.72326 0.4739 0.0
O102 O 0.27721 0.72853 0.50973 0.0
O103 O 0.18509 0.67198 0.48852 0.0
O104 O 0.37537 0.79128 0.47132 0.0
O105 O 0.22891 0.7872 0.45072 0.0
O106 O 0.4675 0.77701 0.55245 0.0
O107 O 0.42901 0.86038 0.56694 0.0
O108 O 0.1947 0.84137 0.53096 0.0
O109 O 0.29808 0.88842 0.51183 0.0
O110 O 0.10942 0.76316 0.55998 0.0
O111 O 0.25447 0.78029 0.58064 0.0
H112 H 0.88415 0.69621 0.4222 0.0
H113 H 0.85671 0.69014 0.35769 0.0
H114 H 0.02768 0.82654 0.35087 0.0
H115 H 0.05487 0.83258 0.4148 0.0
H116 H 0.37476 0.85566 0.63105 0.0
H117 H 0.39995 0.84473 0.69379 0.0
H118 H 0.64616 0.76049 0.66491 0.0
H119 H 0.62115 0.77182 0.60184 0.0
Pr120 Pr 0.65192 0.27042 0.50118 0.0
Pr121 Pr 0.84416 0.30955 0.53586 0.0
C122 C 0.50217 0.27596 0.46294 0.0
C123 C 0.48629 0.26654 0.4241 0.0
C124 C 0.5426 0.2323 0.40188 0.0
C125 C 0.53417 0.2282 0.36464 0.0
C126 C 0.47009 0.25881 0.34894 0.0
C127 C 0.41343 0.29274 0.37132 0.0
C128 C 0.42151 0.29655 0.40856 0.0
C129 C 0.77417 0.18482 0.498 0.0
C130 C 0.82686 0.3003 0.4499 0.0
C131 C 0.98657 0.32146 0.57919 0.0
C132 C -0.00227 0.31613 0.61764 0.0
C133 C 0.93703 0.34038 0.64331 0.0
C134 C 0.9467 0.33403 0.67949 0.0
C135 C 0.01648 0.30274 0.69073 0.0
C136 C 0.07625 0.27777 0.66499 0.0
C137 C 0.0671 0.28457 0.6288 0.0
C138 C 0.72022 0.38827 0.52427 0.0
C139 C 0.67539 0.26876 0.58748 0.0
O140 O 0.55192 0.31765 0.47301 0.0
O141 O 0.52201 0.23419 0.47919 0.0
O142 O 0.78576 0.23279 0.50998 0.0
O143 O 0.69297 0.17898 0.48593 0.0
O144 O 0.88542 0.29631 0.47566 0.0
O145 O 0.73924 0.3001 0.45518 0.0
O146 O 0.97103 0.27727 0.55831 0.0
O147 O 0.9382 0.36172 0.5713 0.0
O148 O 0.70255 0.34475 0.53629 0.0
O149 O 0.80584 0.39331 0.51871 0.0
O150 O 0.61554 0.26752 0.56152 0.0
O151 O 0.76117 0.27916 0.58256 0.0
H152 H 0.59461 0.20972 0.41328 0.0
H153 H 0.57941 0.20221 0.34811 0.0
H154 H 0.36287 0.31645 0.36 0.0
H155 H 0.37849 0.32385 0.4252 0.0
H156 H 0.88164 0.36406 0.63547 0.0
H157 H 0.89899 0.35311 0.69867 0.0
H158 H 0.13098 0.25368 0.67295 0.0
H159 H 0.11407 0.26503 0.60949 0.0
C160 C 0.55655 0.61804 1.00069 0.0
C161 C 0.64439 0.61481 1.01318 0.0
C162 C 0.49451 0.57689 1.00389 0.0
C163 C 0.52065 0.53147 0.02018 0.0
C164 C 0.60921 0.52822 0.03301 0.0
C165 C 0.66998 0.56982 0.02929 0.0
C166 C 0.40097 0.58198 0.98974 0.0
C167 C 0.63978 0.48075 0.05072 0.0
C168 C 0.3381 0.44767 0.05771 0.0
C169 C 0.33211 0.40413 0.03112 0.0
C170 C 0.3995 0.48919 0.05463 0.0
C171 C 0.45536 0.48748 0.02393 0.0
C172 C 0.44833 0.44381 0.99674 0.0
C173 C 0.3864 0.40288 1.00062 0.0
C174 C 0.40481 0.53481 0.08429 0.0
C175 C 0.50545 0.44059 0.96334 0.0
H176 H 0.5363 0.65273 0.98824 0.0
H177 H 0.73768 0.56715 0.03912 0.0
H178 H 0.38627 0.54775 0.96936 0.0
H179 H 0.35146 0.58089 1.01172 0.0
H180 H 0.39138 0.61954 0.97751 0.0
H181 H 0.71061 0.48435 0.05946 0.0
H182 H 0.59701 0.47631 0.07439 0.0
H183 H 0.63254 0.44373 0.03195 0.0
H184 H 0.29529 0.44895 0.08116 0.0
H185 H 0.37817 0.37078 0.97922 0.0
H186 H 0.39005 0.57302 0.07365 0.0
H187 H 0.47366 0.53779 0.09521 0.0
H188 H 0.35727 0.53006 0.10649 0.0
H189 H 0.49105 0.47515 0.94858 0.0
H190 H 0.49371 0.40327 0.94521 0.0
H191 H 0.57734 0.44261 0.97055 0.0
C192 C 0.40098 0.64402 0.52869 0.0
C193 C 0.33378 0.63731 0.5028 0.0
C194 C 0.46379 0.60341 0.53215 0.0
C195 C 0.46029 0.55522 0.50868 0.0
C196 C 0.39292 0.5486 0.48218 0.0
C197 C 0.32977 0.58944 0.4799 0.0
C198 C 0.53296 0.61177 0.56133 0.0
C199 C 0.38782 0.49847 0.45612 0.0
C200 C 0.67273 0.47067 0.49832 0.0
C201 C 0.65287 0.42993 0.51941 0.0
C202 C 0.61016 0.51112 0.49407 0.0
C203 C 0.52648 0.5116 0.51206 0.0
C204 C 0.50627 0.47045 0.53343 0.0
C205 C 0.56923 0.42977 0.53648 0.0
C206 C 0.63362 0.55336 0.47032 0.0
C207 C 0.41868 0.46986 0.55359 0.0
H208 H 0.40287 0.68049 0.54692 0.0
H209 H 0.27784 0.58422 0.45981 0.0
H210 H 0.52627 0.58031 0.57943 0.0
H211 H 0.6012 0.60829 0.54953 0.0
H212 H 0.52649 0.65139 0.57744 0.0
H213 H 0.3333 0.50022 0.43636 0.0
H214 H 0.45229 0.49191 0.44146 0.0
H215 H 0.37646 0.4634 0.47076 0.0
H216 H 0.73709 0.4707 0.48487 0.0
H217 H 0.55373 0.39842 0.55291 0.0
H218 H 0.63455 0.59317 0.48629 0.0
H219 H 0.58192 0.55462 0.4494 0.0
H220 H 0.69987 0.54617 0.45707 0.0
H221 H 0.41105 0.5074 0.57188 0.0
H222 H 0.41379 0.43561 0.56954 0.0
H223 H 0.36196 0.46778 0.53462 0.0
C224 C 0.06626 0.12423 1.00962 0.0
C225 C 0.15452 0.11201 0.999 0.0
C226 C 0.00325 0.08375 1.01319 0.0
C227 C 0.02752 0.02963 1.00362 0.0
C228 C 0.11534 1.01723 0.99082 0.0
C229 C 0.17812 0.05845 0.98928 0.0
C230 C 0.91125 0.09894 0.02778 0.0
C231 C 0.14307 0.9604 0.97873 0.0
C232 C 0.9001 0.91752 0.04127 0.0
C233 C 0.83769 0.90299 1.01429 0.0
C234 C 0.96066 0.95954 0.03853 0.0
C235 C 0.96158 0.98597 1.0073 0.0
C236 C 0.89998 0.97028 0.97954 0.0
C237 C 0.83739 0.92979 0.98376 0.0
C238 C 0.02273 0.97618 0.06931 0.0
C239 C 0.90121 0.99555 0.94513 0.0
H240 H 0.04633 0.16547 1.01502 0.0
H241 H 0.24582 0.04867 0.98028 0.0
H242 H 0.86001 0.08744 1.00715 0.0
H243 H 0.89591 0.07706 0.05099 0.0
H244 H 0.90517 0.14243 0.0364 0.0
H245 H 0.21141 0.95785 0.96686 0.0
H246 H 0.14158 0.9367 1.00172 0.0
H247 H 0.09521 0.94166 0.95861 0.0
H248 H 0.89989 0.89692 0.06498 0.0
H249 H 0.78964 0.91807 0.96273 0.0
H250 H 0.01443 1.0194 0.07823 0.0
H251 H 0.09329 0.96979 0.06057 0.0
H252 H 0.01025 0.95361 0.09248 0.0
H253 H 0.88585 0.03871 0.95063 0.0
H254 H 0.85209 0.97691 0.92545 0.0
H255 H 0.96902 0.99191 0.93288 0.0
C256 C 0.90713 0.14504 0.52521 0.0
C257 C 0.83949 0.14096 0.49946 0.0
C258 C 0.96721 0.10273 0.52779 0.0
C259 C 0.96041 0.05543 0.5036 0.0
C260 C 0.89272 0.05149 0.47721 0.0
C261 C 0.83244 0.09404 0.47575 0.0
C262 C 0.03704 0.10835 0.55679 0.0
C263 C 0.88411 1.00235 0.45044 0.0
C264 C 0.16763 0.96664 0.49152 0.0
C265 C 0.14605 0.92586 0.51237 0.0
C266 C 0.10719 1.00838 0.48783 0.0
C267 C 0.02376 1.01006 0.50605 0.0
C268 C 0.00147 0.96869 0.52697 0.0
C269 C 0.06248 0.92682 0.52957 0.0
C270 C 0.1329 0.0509 0.46462 0.0
C271 C 0.91393 0.96925 0.54724 0.0
H272 H 0.91141 0.18076 0.54405 0.0
H273 H 0.78013 0.0908 0.45579 0.0
H274 H 0.02839 0.07629 0.57433 0.0
H275 H 0.10493 0.10372 0.54475 0.0
H276 H 0.03326 0.14758 0.57355 0.0
H277 H 0.82969 1.00616 0.43092 0.0
H278 H 0.94802 0.9947 0.43555 0.0
H279 H 0.87038 0.96698 0.46453 0.0
H280 H 0.23197 0.96589 0.47801 0.0
H281 H 0.04563 0.89549 0.54584 0.0
H282 H 0.13676 0.09021 0.48113 0.0
H283 H 0.08093 0.05412 0.44406 0.0
H284 H 0.19838 0.04258 0.45097 0.0
H285 H 0.90903 1.00613 0.56634 0.0
H286 H 0.90665 0.93422 0.56234 0.0
H287 H 0.85706 0.96962 0.52848 0.0
C288 C 0.45436 0.30237 0.29275 0.0
C289 C 0.46236 0.25569 0.30936 0.0
C290 C 0.44139 0.30007 0.25568 0.0
C291 C 0.43532 0.24985 0.23469 0.0
C292 C 0.44666 0.2026 0.25112 0.0
C293 C 0.46048 0.2061 0.28823 0.0
C294 C 0.43074 0.35143 0.23921 0.0
C295 C 0.44 0.14828 0.2298 0.0
C296 C 0.28951 0.24509 0.15222 0.0
C297 C 0.35277 0.24524 0.12442 0.0
C298 C 0.31575 0.2459 0.18795 0.0
C299 C 0.40787 0.2468 0.19645 0.0
C300 C 0.47247 0.24608 0.16864 0.0
C301 C 0.44417 0.24522 0.13291 0.0
C302 C 0.24443 0.24665 0.21668 0.0
C303 C 0.57134 0.2473 0.17674 0.0
H304 H 0.45748 0.34082 0.30887 0.0
H305 H 0.4664 0.16988 0.30094 0.0
H306 H 0.47542 0.35151 0.21558 0.0
H307 H 0.36099 0.35487 0.22981 0.0
H308 H 0.44593 0.38705 0.25845 0.0
H309 H 0.4584 0.11569 0.24582 0.0
H310 H 0.37041 0.14156 0.22019 0.0
H311 H 0.48416 0.14599 0.20587 0.0
H312 H 0.21865 0.24485 0.14622 0.0
H313 H 0.49363 0.24551 0.11176 0.0
H314 H 0.24987 0.28379 0.23546 0.0
H315 H 0.25418 0.21263 0.23244 0.0
H316 H 0.17568 0.24442 0.20551 0.0
H317 H 0.58814 0.2848 0.19378 0.0
H318 H 0.61316 0.2446 0.15209 0.0
H319 H 0.58923 0.21384 0.19201 0.0
C320 C 0.45944 0.7456 0.23785 0.0
C321 C 0.46175 0.79398 0.22294 0.0
C322 C 0.44459 0.74451 0.27467 0.0
C323 C 0.43032 0.79292 0.29711 0.0
C324 C 0.43499 0.84197 0.28233 0.0
C325 C 0.45121 0.84191 0.24549 0.0
C326 C 0.44119 0.6914 0.28935 0.0
C327 C 0.41928 0.89444 0.30516 0.0
C328 C 0.28432 0.78789 0.37967 0.0
C329 C 0.34737 0.79089 0.4074 0.0
C330 C 0.31065 0.78828 0.34387 0.0
C331 C 0.40258 0.79199 0.33524 0.0
C332 C 0.46688 0.79496 0.36295 0.0
C333 C 0.43855 0.79437 0.39871 0.0
C334 C 0.23968 0.78498 0.31526 0.0
C335 C 0.56555 0.79868 0.35478 0.0
H336 H 0.46889 0.70849 0.2206 0.0
H337 H 0.45245 0.87939 0.23408 0.0
H338 H 0.48555 0.69186 0.3129 0.0
H339 H 0.37212 0.68383 0.29848 0.0
H340 H 0.46158 0.65789 0.26912 0.0
H341 H 0.43164 0.92918 0.29022 0.0
H342 H 0.34909 0.89636 0.31504 0.0
H343 H 0.46329 0.89775 0.32893 0.0
H344 H 0.21367 0.78506 0.3858 0.0
H345 H 0.48789 0.7966 0.4198 0.0
H346 H 0.25439 0.75157 0.29418 0.0
H347 H 0.23966 0.82224 0.30229 0.0
H348 H 0.17164 0.77899 0.32611 0.0
H349 H 0.58669 0.7639 0.3358 0.0
H350 H 0.60721 0.80008 0.37921 0.0
H351 H 0.57904 0.83498 0.34163 0.0
C352 C 0.71045 0.78625 0.88041 0.0
C353 C 0.64436 0.77653 0.90556 0.0
C354 C 0.68894 0.78989 0.84458 0.0
C355 C 0.59901 0.78328 0.83335 0.0
C356 C 0.53182 0.77334 0.85849 0.0
C357 C 0.55523 0.77036 0.89437 0.0
C358 C 0.76271 0.80082 0.81877 0.0
C359 C 0.43539 0.76537 0.84739 0.0
C360 C 0.53389 0.84124 0.74835 0.0
C361 C 0.5412 0.79662 0.72255 0.0
C362 C 0.55148 0.83733 0.78454 0.0
C363 C 0.57564 0.78737 0.79532 0.0
C364 C 0.58123 0.74192 0.76947 0.0
C365 C 0.56465 0.74718 0.73334 0.0
C366 C 0.54645 0.88694 0.81111 0.0
C367 C 0.60551 0.68782 0.77995 0.0
H368 H 0.77958 0.79119 0.8887 0.0
H369 H 0.50389 0.76248 0.91352 0.0
H370 H 0.76853 0.76704 0.79722 0.0
H371 H 0.74651 0.83697 0.80589 0.0
H372 H 0.82874 0.80673 0.83206 0.0
H373 H 0.39139 0.75719 0.87001 0.0
H374 H 0.41015 0.8014 0.83639 0.0
H375 H 0.43022 0.73156 0.82584 0.0
H376 H 0.51656 0.87962 0.74003 0.0
H377 H 0.56937 0.71251 0.7135 0.0
H378 H 0.61308 0.89529 0.82335 0.0
H379 H 0.4991 0.88078 0.83306 0.0
H380 H 0.52463 0.92247 0.79857 0.0
H381 H 0.67437 0.68881 0.79084 0.0
H382 H 0.60209 0.65595 0.757 0.0
H383 H 0.55979 0.67731 0.80137 0.0
C384 C 0.71337 0.25181 0.64964 0.0
C385 C 0.64759 0.26014 0.62433 0.0
C386 C 0.69094 0.24733 0.68534 0.0
C387 C 0.60025 0.25149 0.69634 0.0
C388 C 0.53308 0.25882 0.6709 0.0
C389 C 0.55752 0.26284 0.63511 0.0
C390 C 0.76488 0.23933 0.71145 0.0
C391 C 0.43573 0.26386 0.68173 0.0
C392 C 0.54438 0.19867 0.78444 0.0
C393 C 0.54965 0.24515 0.80871 0.0
C394 C 0.55832 0.20029 0.74763 0.0
C395 C 0.57689 0.24967 0.73474 0.0
C396 C 0.57957 0.29694 0.75903 0.0
C397 C 0.56643 0.29406 0.79572 0.0
C398 C 0.55639 0.14891 0.72271 0.0
C399 C 0.59826 0.35046 0.74636 0.0
H400 H 0.78324 0.24927 0.64169 0.0
H401 H 0.50635 0.26951 0.61584 0.0
H402 H 0.77007 0.27507 0.73149 0.0
H403 H 0.74957 0.20481 0.72617 0.0
H404 H 0.831 0.23251 0.69802 0.0
H405 H 0.39133 0.2675 0.65859 0.0
H406 H 0.41458 0.22866 0.69477 0.0
H407 H 0.42625 0.29952 0.70161 0.0
H408 H 0.53198 0.16074 0.79439 0.0
H409 H 0.56919 0.33018 0.81434 0.0
H410 H 0.62387 0.14072 0.71084 0.0
H411 H 0.50965 0.15247 0.70034 0.0
H412 H 0.53579 0.11434 0.73659 0.0
H413 H 0.66725 0.35093 0.73534 0.0
H414 H 0.59141 0.38384 0.76822 0.0
H415 H 0.55177 0.35748 0.72452 0.0
C416 C 0.92347 0.74727 0.13423 0.0
C417 C 0.83438 0.74298 0.12275 0.0
C418 C 0.94487 0.74788 0.17068 0.0
C419 C 0.87558 0.7439 0.19617 0.0
C420 C 0.78584 0.73829 0.18457 0.0
C421 C 0.76646 0.73799 0.14817 0.0
C422 C 0.04133 0.7541 0.18206 0.0
C423 C 0.70965 0.73402 0.21069 0.0
C424 C 0.92693 0.70456 0.28857 0.0
C425 C 0.92482 0.7541 0.3098 0.0
C426 C 0.91283 0.7007 0.25146 0.0
C427 C 0.89594 0.74748 0.23514 0.0
C428 C 0.89423 0.79762 0.2564 0.0
C429 C 0.90874 0.80031 0.2934 0.0
C430 C 0.91485 0.64649 0.22975 0.0
C431 C 0.8756 0.84841 0.24016 0.0
H432 H 0.97631 0.75135 0.11489 0.0
H433 H 0.69725 0.73455 0.13975 0.0
H434 H 0.04965 0.79194 0.19994 0.0
H435 H 0.0609 0.72114 0.19751 0.0
H436 H 0.0877 0.75443 0.15891 0.0
H437 H 0.6451 0.72435 0.19696 0.0
H438 H 0.72409 0.70286 0.22834 0.0
H439 H 0.70176 0.77242 0.22805 0.0
H440 H 0.94047 0.66875 0.30095 0.0
H441 H 0.90591 0.83868 0.30965 0.0
H442 H 0.96454 0.64614 0.20771 0.0
H443 H 0.84854 0.63768 0.21734 0.0
H444 H 0.9319 0.61419 0.24622 0.0
H445 H 0.92356 0.85256 0.21804 0.0
H446 H 0.88042 0.88441 0.26007 0.0
H447 H 0.80744 0.84685 0.22857 0.0
C448 C 0.8263 0.34702 0.39559 0.0
C449 C 0.8578 0.30499 0.41327 0.0
C450 C 0.8433 0.34836 0.35901 0.0
C451 C 0.88975 0.30543 0.33942 0.0
C452 C 0.92309 0.26327 0.35742 0.0
C453 C 0.90778 0.26398 0.39437 0.0
C454 C 0.80915 0.39489 0.34117 0.0
C455 C 0.97057 0.21603 0.33733 0.0
C456 C 0.8396 0.28018 0.23996 0.0
C457 C 0.91754 0.29914 0.22464 0.0
C458 C 0.83015 0.28144 0.27719 0.0
C459 C 0.89941 0.30342 0.29986 0.0
C460 C 0.97731 0.32373 0.28472 0.0
C461 C 0.98592 0.32073 0.24736 0.0
C462 C 0.74626 0.25877 0.29221 0.0
C463 C 0.05161 0.34871 0.30798 0.0
H464 H 0.78699 0.37849 0.41036 0.0
H465 H 0.93034 0.23097 0.40807 0.0
H466 H 0.86324 0.4109 0.32515 0.0
H467 H 0.75432 0.38146 0.32254 0.0
H468 H 0.78331 0.42765 0.36085 0.0
H469 H -0.00459 0.18761 0.35544 0.0
H470 H 0.92401 0.19455 0.3178 0.0
H471 H 0.02801 0.22953 0.32193 0.0
H472 H 0.7856 0.26428 0.22283 0.0
H473 H 0.04717 0.33459 0.23599 0.0
H474 H 0.70963 0.29045 0.30935 0.0
H475 H 0.76421 0.22747 0.30932 0.0
H476 H 0.70033 0.24119 0.27091 0.0
H477 H 0.02455 0.38185 0.327 0.0
H478 H 0.10628 0.36449 0.29208 0.0
H479 H 0.08041 0.3189 0.3241 0.0
C480 C 0.04228 0.247 0.74068 0.0
C481 C 0.02826 0.29726 0.72929 0.0
C482 C 0.05792 0.2417 0.77687 0.0
C483 C 0.06103 0.28786 0.80218 0.0
C484 C 0.04485 0.33859 0.79089 0.0
C485 C 0.02805 0.34262 0.75464 0.0
C486 C 0.0735 0.18684 0.78786 0.0
C487 C 0.04889 0.38885 0.81686 0.0
C488 C 0.05143 0.27413 0.90206 0.0
C489 C 0.14257 0.27561 0.91095 0.0
C490 C 0.02361 0.27785 0.86674 0.0
C491 C 0.08841 0.28357 0.83978 0.0
C492 C 0.18031 0.28544 0.84867 0.0
C493 C 0.20613 0.28135 0.88397 0.0
C494 C 0.92502 0.27523 0.85818 0.0
C495 C 0.25177 0.29171 0.82086 0.0
H496 H 0.04126 0.2118 0.7212 0.0
H497 H 0.01781 0.38157 0.74588 0.0
H498 H 0.14359 0.18347 0.79689 0.0
H499 H 0.02927 0.18028 0.81072 0.0
H500 H 0.06113 0.15475 0.76563 0.0
H501 H 0.02935 0.42481 0.80431 0.0
H502 H 0.0042 0.38541 0.84011 0.0
H503 H 0.11796 0.39458 0.82727 0.0
H504 H 0.00181 0.26946 0.92257 0.0
H505 H 0.27678 0.28275 0.89033 0.0
H506 H 0.91183 0.24128 0.83739 0.0
H507 H 0.90393 0.31208 0.84711 0.0
H508 H 0.88307 0.27043 0.88206 0.0
H509 H 0.24916 0.25765 0.79942 0.0
H510 H 0.32021 0.29369 0.83232 0.0
H511 H 0.2396 0.32856 0.80818 0.0
C512 C 0.20751 0.75401 0.64891 0.0
C513 C 0.14192 0.76108 0.62327 0.0
C514 C 0.18451 0.74936 0.68463 0.0
C515 C 0.09347 0.75241 0.69537 0.0
C516 C 0.0267 0.75924 0.66966 0.0
C517 C 0.05164 0.76311 0.63387 0.0
C518 C 0.25804 0.74166 0.71093 0.0
C519 C 0.92903 0.76344 0.68013 0.0
C520 C 0.03237 0.696 0.782 0.0
C521 C 0.03482 0.74172 0.80704 0.0
C522 C 0.04987 0.69897 0.74552 0.0
C523 C 0.06887 0.74903 0.73362 0.0
C524 C 0.06886 0.79553 0.75868 0.0
C525 C 0.05255 0.79126 0.79508 0.0
C526 C 0.05075 0.6483 0.71988 0.0
C527 C 0.08734 0.84978 0.74712 0.0
H528 H 0.27748 0.75203 0.64109 0.0
H529 H 0.00053 0.7689 0.6144 0.0
H530 H 0.26095 0.77674 0.73159 0.0
H531 H 0.24384 0.7062 0.7249 0.0
H532 H 0.32481 0.73646 0.69783 0.0
H533 H 0.8852 0.76838 0.65701 0.0
H534 H 0.90777 0.72723 0.692 0.0
H535 H 0.91872 0.79798 0.70085 0.0
H536 H 0.01934 0.65755 0.79113 0.0
H537 H 0.05334 0.82682 0.81425 0.0
H538 H 0.11873 0.64163 0.70816 0.0
H539 H 0.00417 0.65189 0.69746 0.0
H540 H 0.03152 0.61283 0.73309 0.0
H541 H 0.15673 0.85111 0.73662 0.0
H542 H 0.07908 0.88237 0.76943 0.0
H543 H 0.04165 0.85736 0.72515 0.0
loop_
_geom_bond_atom_site_label_1
_geom_bond_atom_site_label_2
_geom_bond_distance
_geom_bond_site_symmetry_2
_ccdc_geom_bond_type
Pr0 C2 2.880 . S
Pr0 O20 2.562 . S
Pr0 O21 2.490 . S
Pr0 O22 2.695 1_554 S
Pr0 O23 2.512 . S
Pr0 O25 2.437 . S
Pr0 O28 2.436 . S
Pr0 O30 2.438 1_554 S
Pr1 C11 2.880 . S
Pr1 O22 2.436 . S
Pr1 O24 2.438 1_556 S
Pr1 O26 2.562 . S
Pr1 O27 2.490 . S
Pr1 O28 2.695 1_556 S
Pr1 O29 2.512 . S
Pr1 O31 2.437 . S
C2 Pr0 2.880 . S
C2 C3 1.491 . S
C2 O20 1.254 . S
C2 O21 1.225 . S
C3 C2 1.491 . S
C3 C4 1.392 . S
C3 C8 1.356 . S
C4 C3 1.392 . S
C4 C5 1.368 . S
C4 H32 0.929 . S
C5 C4 1.368 . S
C5 C6 1.386 1_455 S
C5 H33 0.929 1_455 S
C6 C5 1.386 1_655 S
C6 C7 1.373 1_655 S
C7 C6 1.373 1_455 S
C7 C8 1.409 . S
C7 H34 0.931 . S
C8 C3 1.356 . S
C8 C7 1.409 . S
C8 H35 0.930 . S
C9 O22 1.270 1_554 S
C9 O23 1.248 . S
C10 O24 1.267 . S
C10 O25 1.278 . S
C11 Pr1 2.880 . S
C11 C12 1.491 . S
C11 O26 1.254 . S
C11 O27 1.225 . S
C12 C11 1.491 . S
C12 C13 1.392 . S
C12 C17 1.356 . S
C13 C12 1.392 . S
C13 C14 1.368 . S
C13 H36 0.929 . S
C14 C13 1.368 . S
C14 C15 1.386 . S
C14 H37 0.929 . S
C15 C14 1.386 . S
C15 C16 1.373 . S
C16 C15 1.373 . S
C16 C17 1.409 . S
C16 H38 0.931 . S
C17 C12 1.356 . S
C17 C16 1.409 . S
C17 H39 0.930 . S
C18 O28 1.270 1_556 S
C18 O29 1.248 . S
C19 O30 1.267 . S
C19 O31 1.278 . S
O20 Pr0 2.562 . S
O20 C2 1.254 . S
O21 Pr0 2.490 . S
O21 C2 1.225 . S
O22 Pr0 2.695 1_556 S
O22 Pr1 2.436 . S
O22 C9 1.270 1_556 S
O23 Pr0 2.512 . S
O23 C9 1.248 . S
O24 Pr1 2.438 1_554 S
O24 C10 1.267 . S
O25 Pr0 2.437 . S
O25 C10 1.278 . S
O26 Pr1 2.562 . S
O26 C11 1.254 . S
O27 Pr1 2.490 . S
O27 C11 1.225 . S
O28 Pr0 2.436 . S
O28 Pr1 2.695 1_554 S
O28 C18 1.270 1_554 S
O29 Pr1 2.512 . S
O29 C18 1.248 . S
O30 Pr0 2.438 1_556 S
O30 C19 1.267 . S
O31 Pr1 2.437 . S
O31 C19 1.278 . S
H32 C4 0.929 . S
H33 C5 0.929 1_655 S
H34 C7 0.931 . S
H35 C8 0.930 . S
H36 C13 0.929 . S
H37 C14 0.929 . S
H38 C16 0.931 . S
H39 C17 0.930 . S
Pr40 C42 2.880 . S
Pr40 O60 2.562 . S
Pr40 O61 2.490 . S
Pr40 O62 2.695 1_554 S
Pr40 O63 2.512 . S
Pr40 O65 2.437 . S
Pr40 O68 2.436 . S
Pr40 O70 2.438 1_554 S
Pr41 C51 2.880 . S
Pr41 O62 2.436 . S
Pr41 O64 2.438 1_556 S
Pr41 O66 2.562 . S
Pr41 O67 2.490 . S
Pr41 O68 2.695 1_556 S
Pr41 O69 2.512 . S
Pr41 O71 2.437 . S
C42 Pr40 2.880 . S
C42 C43 1.491 . S
C42 O60 1.254 . S
C42 O61 1.225 . S
C43 C42 1.491 . S
C43 C44 1.392 . S
C43 C48 1.356 . S
C44 C43 1.392 . S
C44 C45 1.368 . S
C44 H72 0.929 . S
C45 C44 1.368 . S
C45 C46 1.386 . S
C45 H73 0.929 . S
C46 C45 1.386 . S
C46 C47 1.373 . S
C47 C46 1.373 . S
C47 C48 1.409 . S
C47 H74 0.931 . S
C48 C43 1.356 . S
C48 C47 1.409 . S
C48 H75 0.930 . S
C49 O62 1.270 1_554 S
C49 O63 1.248 . S
C50 O64 1.267 . S
C50 O65 1.278 . S
C51 Pr41 2.880 . S
C51 C52 1.491 . S
C51 O66 1.254 . S
C51 O67 1.225 . S
C52 C51 1.491 . S
C52 C53 1.392 . S
C52 C57 1.356 . S
C53 C52 1.392 . S
C53 C54 1.368 . S
C53 H76 0.929 . S
C54 C53 1.368 . S
C54 C55 1.386 1_655 S
C54 H77 0.929 1_655 S
C55 C54 1.386 1_455 S
C55 C56 1.373 1_455 S
C56 C55 1.373 1_655 S
C56 C57 1.409 . S
C56 H78 0.931 . S
C57 C52 1.356 . S
C57 C56 1.409 . S
C57 H79 0.930 . S
C58 O68 1.270 1_556 S
C58 O69 1.248 . S
C59 O70 1.267 . S
C59 O71 1.278 . S
O60 Pr40 2.562 . S
O60 C42 1.254 . S
O61 Pr40 2.490 . S
O61 C42 1.225 . S
O62 Pr40 2.695 1_556 S
O62 Pr41 2.436 . S
O62 C49 1.270 1_556 S
O63 Pr40 2.512 . S
O63 C49 1.248 . S
O64 Pr41 2.438 1_554 S
O64 C50 1.267 . S
O65 Pr40 2.437 . S
O65 C50 1.278 . S
O66 Pr41 2.562 . S
O66 C51 1.254 . S
O67 Pr41 2.490 . S
O67 C51 1.225 . S
O68 Pr40 2.436 . S
O68 Pr41 2.695 1_554 S
O68 C58 1.270 1_554 S
O69 Pr41 2.512 . S
O69 C58 1.248 . S
O70 Pr40 2.438 1_556 S
O70 C59 1.267 . S
O71 Pr41 2.437 . S
O71 C59 1.278 . S
H72 C44 0.929 . S
H73 C45 0.929 . S
H74 C47 0.931 . S
H75 C48 0.930 . S
H76 C53 0.929 . S
H77 C54 0.929 1_455 S
H78 C56 0.931 . S
H79 C57 0.930 . S
Pr80 C82 2.880 . S
Pr80 O100 2.562 . S
Pr80 O101 2.490 . S
Pr80 O102 2.695 . S
Pr80 O103 2.512 . S
Pr80 O105 2.437 . S
Pr80 O108 2.436 . S
Pr80 O110 2.438 . S
Pr81 C91 2.880 . S
Pr81 O102 2.436 . S
Pr81 O104 2.438 . S
Pr81 O106 2.562 . S
Pr81 O107 2.490 . S
Pr81 O108 2.695 . S
Pr81 O109 2.512 . S
Pr81 O111 2.437 . S
C82 Pr80 2.880 . S
C82 C83 1.491 . S
C82 O100 1.254 . S
C82 O101 1.225 . S
C83 C82 1.491 . S
C83 C84 1.392 . S
C83 C88 1.356 . S
C84 C83 1.392 . S
C84 C85 1.368 . S
C84 H112 0.929 . S
C85 C84 1.368 . S
C85 C86 1.386 1_455 S
C85 H113 0.929 1_455 S
C86 C85 1.386 1_655 S
C86 C87 1.373 1_655 S
C87 C86 1.373 1_455 S
C87 C88 1.409 . S
C87 H114 0.931 . S
C88 C83 1.356 . S
C88 C87 1.409 . S
C88 H115 0.930 . S
C89 O102 1.270 . S
C89 O103 1.248 . S
C90 O104 1.267 . S
C90 O105 1.278 . S
C91 Pr81 2.880 . S
C91 C92 1.491 . S
C91 O106 1.254 . S
C91 O107 1.225 . S
C92 C91 1.491 . S
C92 C93 1.392 . S
C92 C97 1.356 . S
C93 C92 1.392 . S
C93 C94 1.368 . S
C93 H116 0.929 . S
C94 C93 1.368 . S
C94 C95 1.386 . S
C94 H117 0.929 . S
C95 C94 1.386 . S
C95 C96 1.373 . S
C96 C95 1.373 . S
C96 C97 1.409 . S
C96 H118 0.931 . S
C97 C92 1.356 . S
C97 C96 1.409 . S
C97 H119 0.930 . S
C98 O108 1.270 . S
C98 O109 1.248 . S
C99 O110 1.267 . S
C99 O111 1.278 . S
O100 Pr80 2.562 . S
O100 C82 1.254 . S
O101 Pr80 2.490 . S
O101 C82 1.225 . S
O102 Pr80 2.695 . S
O102 Pr81 2.436 . S
O102 C89 1.270 . S
O103 Pr80 2.512 . S
O103 C89 1.248 . S
O104 Pr81 2.438 . S
O104 C90 1.267 . S
O105 Pr80 2.437 . S
O105 C90 1.278 . S
O106 Pr81 2.562 . S
O106 C91 1.254 . S
O107 Pr81 2.490 . S
O107 C91 1.225 . S
O108 Pr80 2.436 . S
O108 Pr81 2.695 . S
O108 C98 1.270 . S
O109 Pr81 2.512 . S
O109 C98 1.248 . S
O110 Pr80 2.438 . S
O110 C99 1.267 . S
O111 Pr81 2.437 . S
O111 C99 1.278 . S
H112 C84 0.929 . S
H113 C85 0.929 1_655 S
H114 C87 0.931 . S
H115 C88 0.930 . S
H116 C93 0.929 . S
H117 C94 0.929 . S
H118 C96 0.931 . S
H119 C97 0.930 . S
Pr120 C122 2.880 . S
Pr120 O140 2.562 . S
Pr120 O141 2.490 . S
Pr120 O142 2.695 . S
Pr120 O143 2.512 . S
Pr120 O145 2.437 . S
Pr120 O148 2.436 . S
Pr120 O150 2.438 . S
Pr121 C131 2.880 . S
Pr121 O142 2.436 . S
Pr121 O144 2.438 . S
Pr121 O146 2.562 . S
Pr121 O147 2.490 . S
Pr121 O148 2.695 . S
Pr121 O149 2.512 . S
Pr121 O151 2.437 . S
C122 Pr120 2.880 . S
C122 C123 1.491 . S
C122 O140 1.254 . S
C122 O141 1.225 . S
C123 C122 1.491 . S
C123 C124 1.392 . S
C123 C128 1.356 . S
C124 C123 1.392 . S
C124 C125 1.368 . S
C124 H152 0.929 . S
C125 C124 1.368 . S
C125 C126 1.386 . S
C125 H153 0.929 . S
C126 C125 1.386 . S
C126 C127 1.373 . S
C127 C126 1.373 . S
C127 C128 1.409 . S
C127 H154 0.931 . S
C128 C123 1.356 . S
C128 C127 1.409 . S
C128 H155 0.930 . S
C129 O142 1.270 . S
C129 O143 1.248 . S
C130 O144 1.267 . S
C130 O145 1.278 . S
C131 Pr121 2.880 . S
C131 C132 1.491 . S
C131 O146 1.254 . S
C131 O147 1.225 . S
C132 C131 1.491 . S
C132 C133 1.392 . S
C132 C137 1.356 . S
C133 C132 1.392 . S
C133 C134 1.368 . S
C133 H156 0.929 . S
C134 C133 1.368 . S
C134 C135 1.386 1_655 S
C134 H157 0.929 1_655 S
C135 C134 1.386 1_455 S
C135 C136 1.373 1_455 S
C136 C135 1.373 1_655 S
C136 C137 1.409 . S
C136 H158 0.931 . S
C137 C132 1.356 . S
C137 C136 1.409 . S
C137 H159 0.930 . S
C138 O148 1.270 . S
C138 O149 1.248 . S
C139 O150 1.267 . S
C139 O151 1.278 . S
O140 Pr120 2.562 . S
O140 C122 1.254 . S
O141 Pr120 2.490 . S
O141 C122 1.225 . S
O142 Pr120 2.695 . S
O142 Pr121 2.436 . S
O142 C129 1.270 . S
O143 Pr120 2.512 . S
O143 C129 1.248 . S
O144 Pr121 2.438 . S
O144 C130 1.267 . S
O145 Pr120 2.437 . S
O145 C130 1.278 . S
O146 Pr121 2.562 . S
O146 C131 1.254 . S
O147 Pr121 2.490 . S
O147 C131 1.225 . S
O148 Pr120 2.436 . S
O148 Pr121 2.695 . S
O148 C138 1.270 . S
O149 Pr121 2.512 . S
O149 C138 1.248 . S
O150 Pr120 2.438 . S
O150 C139 1.267 . S
O151 Pr121 2.437 . S
O151 C139 1.278 . S
H152 C124 0.929 . S
H153 C125 0.929 . S
H154 C127 0.931 . S
H155 C128 0.930 . S
H156 C133 0.929 . S
H157 C134 0.929 1_455 S
H158 C136 0.931 . S
H159 C137 0.930 . S
C160 C161 1.391 . S
C160 C162 1.394 . S
C160 H176 0.931 . S
C161 C160 1.391 . S
C161 C165 1.376 1_556 S
C162 C160 1.394 . S
C162 C163 1.369 . S
C162 C166 1.531 . S
C163 C162 1.369 . S
C163 C164 1.410 1_556 S
C163 C171 1.503 . S
C164 C163 1.410 1_554 S
C164 C165 1.392 . S
C164 C167 1.511 . S
C165 C161 1.376 1_554 S
C165 C164 1.392 . S
C165 H177 0.929 . S
C166 C162 1.531 . S
C166 H178 0.960 . S
C166 H179 0.962 . S
C166 H180 0.960 . S
C167 C164 1.511 . S
C167 H181 0.961 . S
C167 H182 0.961 . S
C167 H183 0.958 1_554 S
C168 C169 1.355 1_554 S
C168 C170 1.363 . S
C168 H184 0.931 . S
C169 C168 1.355 1_556 S
C169 C173 1.427 . S
C170 C168 1.363 . S
C170 C171 1.370 1_554 S
C170 C174 1.524 . S
C171 C163 1.503 . S
C171 C170 1.370 1_556 S
C171 C172 1.403 . S
C172 C171 1.403 . S
C172 C173 1.404 . S
C172 C175 1.539 . S
C173 C169 1.427 . S
C173 C172 1.404 . S
C173 H185 0.930 . S
C174 C170 1.524 . S
C174 H186 0.956 . S
C174 H187 0.961 . S
C174 H188 0.961 . S
C175 C172 1.539 . S
C175 H189 0.958 . S
C175 H190 0.961 . S
C175 H191 0.960 . S
H176 C160 0.931 . S
H177 C165 0.929 . S
H178 C166 0.960 . S
H179 C166 0.962 . S
H180 C166 0.960 . S
H181 C167 0.961 . S
H182 C167 0.961 . S
H183 C167 0.958 1_556 S
H184 C168 0.931 . S
H185 C173 0.930 . S
H186 C174 0.956 . S
H187 C174 0.961 . S
H188 C174 0.961 . S
H189 C175 0.958 . S
H190 C175 0.961 . S
H191 C175 0.960 . S
C192 C193 1.391 . S
C192 C194 1.394 . S
C192 H208 0.931 . S
C193 C192 1.391 . S
C193 C197 1.376 . S
C194 C192 1.394 . S
C194 C195 1.369 . S
C194 C198 1.531 . S
C195 C194 1.369 . S
C195 C196 1.410 . S
C195 C203 1.503 . S
C196 C195 1.410 . S
C196 C197 1.392 . S
C196 C199 1.511 . S
C197 C193 1.376 . S
C197 C196 1.392 . S
C197 H209 0.929 . S
C198 C194 1.531 . S
C198 H210 0.960 . S
C198 H211 0.962 . S
C198 H212 0.960 . S
C199 C196 1.511 . S
C199 H213 0.961 . S
C199 H214 0.961 . S
C199 H215 0.961 . S
C200 C201 1.370 . S
C200 C202 1.363 . S
C200 H216 0.931 . S
C201 C200 1.370 . S
C201 C205 1.408 . S
C202 C200 1.363 . S
C202 C203 1.370 . S
C202 C206 1.524 . S
C203 C195 1.503 . S
C203 C202 1.370 . S
C203 C204 1.403 . S
C204 C203 1.403 . S
C204 C205 1.404 . S
C204 C207 1.539 . S
C205 C201 1.408 . S
C205 C204 1.404 . S
C205 H217 0.930 . S
C206 C202 1.524 . S
C206 H218 0.956 . S
C206 H219 0.961 . S
C206 H220 0.961 . S
C207 C204 1.539 . S
C207 H221 0.958 . S
C207 H222 0.961 . S
C207 H223 0.960 . S
H208 C192 0.931 . S
H209 C197 0.929 . S
H210 C198 0.960 . S
H211 C198 0.962 . S
H212 C198 0.960 . S
H213 C199 0.961 . S
H214 C199 0.961 . S
H215 C199 0.961 . S
H216 C200 0.931 . S
H217 C205 0.930 . S
H218 C206 0.956 . S
H219 C206 0.961 . S
H220 C206 0.961 . S
H221 C207 0.958 . S
H222 C207 0.961 . S
H223 C207 0.960 . S
C224 C225 1.391 1_554 S
C224 C226 1.394 1_455 S
C224 H240 0.931 . S
C225 C224 1.391 1_556 S
C225 C229 1.376 . S
C226 C224 1.394 1_655 S
C226 C227 1.369 1_654 S
C226 C230 1.531 . S
C227 C226 1.369 1_456 S
C227 C228 1.410 . S
C227 C235 1.503 1_445 S
C228 C227 1.410 . S
C228 C229 1.392 . S
C228 C231 1.511 1_545 S
C229 C225 1.376 . S
C229 C228 1.392 . S
C229 H241 0.929 . S
C230 C226 1.531 . S
C230 H242 0.960 . S
C230 H243 0.962 . S
C230 H244 0.960 . S
C231 C228 1.511 1_565 S
C231 H245 0.961 . S
C231 H246 0.961 . S
C231 H247 0.961 . S
C232 C233 1.352 1_554 S
C232 C234 1.363 . S
C232 H248 0.931 . S
C233 C232 1.352 1_556 S
C233 C237 1.431 . S
C234 C232 1.363 . S
C234 C235 1.370 1_554 S
C234 C238 1.524 1_655 S
C235 C227 1.503 1_665 S
C235 C234 1.370 1_556 S
C235 C236 1.403 . S
C236 C235 1.403 . S
C236 C237 1.404 . S
C236 C239 1.539 . S
C237 C233 1.431 . S
C237 C236 1.404 . S
C237 H249 0.930 . S
C238 C234 1.524 1_455 S
C238 H250 0.956 . S
C238 H251 0.961 . S
C238 H252 0.961 . S
C239 C236 1.539 . S
C239 H253 0.958 1_565 S
C239 H254 0.961 . S
C239 H255 0.960 1_565 S
H240 C224 0.931 . S
H241 C229 0.929 . S
H242 C230 0.960 . S
H243 C230 0.962 . S
H244 C230 0.960 . S
H245 C231 0.961 . S
H246 C231 0.961 . S
H247 C231 0.961 . S
H248 C232 0.931 . S
H249 C237 0.930 . S
H250 C238 0.956 . S
H251 C238 0.961 . S
H252 C238 0.961 . S
H253 C239 0.958 1_545 S
H254 C239 0.961 . S
H255 C239 0.960 1_545 S
C256 C257 1.391 . S
C256 C258 1.394 . S
C256 H272 0.931 . S
C257 C256 1.391 . S
C257 C261 1.376 . S
C258 C256 1.394 . S
C258 C259 1.369 . S
C258 C262 1.531 1_655 S
C259 C258 1.369 . S
C259 C260 1.410 . S
C259 C267 1.503 1_645 S
C260 C259 1.410 . S
C260 C261 1.392 . S
C260 C263 1.511 1_545 S
C261 C257 1.376 . S
C261 C260 1.392 . S
C261 H273 0.929 . S
C262 C258 1.531 1_455 S
C262 H274 0.960 . S
C262 H275 0.962 . S
C262 H276 0.960 . S
C263 C260 1.511 1_565 S
C263 H277 0.961 . S
C263 H278 0.961 . S
C263 H279 0.961 . S
C264 C265 1.370 . S
C264 C266 1.363 . S
C264 H280 0.931 . S
C265 C264 1.370 . S
C265 C269 1.408 . S
C266 C264 1.363 . S
C266 C267 1.370 . S
C266 C270 1.524 1_565 S
C267 C259 1.503 1_465 S
C267 C266 1.370 . S
C267 C268 1.403 1_455 S
C268 C267 1.403 1_655 S
C268 C269 1.404 1_655 S
C268 C271 1.539 . S
C269 C265 1.408 . S
C269 C268 1.404 1_455 S
C269 H281 0.930 . S
C270 C266 1.524 1_545 S
C270 H282 0.956 . S
C270 H283 0.961 . S
C270 H284 0.961 . S
C271 C268 1.539 . S
C271 H285 0.958 . S
C271 H286 0.961 . S
C271 H287 0.960 . S
H272 C256 0.931 . S
H273 C261 0.929 . S
H274 C262 0.960 . S
H275 C262 0.962 . S
H276 C262 0.960 . S
H277 C263 0.961 . S
H278 C263 0.961 . S
H279 C263 0.961 . S
H280 C264 0.931 . S
H281 C269 0.930 . S
H282 C270 0.956 . S
H283 C270 0.961 . S
H284 C270 0.961 . S
H285 C271 0.958 . S
H286 C271 0.961 . S
H287 C271 0.960 . S
C288 C289 1.391 . S
C288 C290 1.394 . S
C288 H304 0.931 . S
C289 C288 1.391 . S
C289 C293 1.376 . S
C290 C288 1.394 . S
C290 C291 1.369 . S
C290 C294 1.531 . S
C291 C290 1.369 . S
C291 C292 1.410 . S
C291 C299 1.503 . S
C292 C291 1.410 . S
C292 C293 1.392 . S
C292 C295 1.511 . S
C293 C289 1.376 . S
C293 C292 1.392 . S
C293 H305 0.929 . S
C294 C290 1.531 . S
C294 H306 0.960 . S
C294 H307 0.962 . S
C294 H308 0.960 . S
C295 C292 1.511 . S
C295 H309 0.961 . S
C295 H310 0.961 . S
C295 H311 0.961 . S
C296 C297 1.370 . S
C296 C298 1.363 . S
C296 H312 0.931 . S
C297 C296 1.370 . S
C297 C301 1.408 . S
C298 C296 1.363 . S
C298 C299 1.370 . S
C298 C302 1.524 . S
C299 C291 1.503 . S
C299 C298 1.370 . S
C299 C300 1.403 . S
C300 C299 1.403 . S
C300 C301 1.404 . S
C300 C303 1.539 . S
C301 C297 1.408 . S
C301 C300 1.404 . S
C301 H313 0.930 . S
C302 C298 1.524 . S
C302 H314 0.956 . S
C302 H315 0.961 . S
C302 H316 0.961 . S
C303 C300 1.539 . S
C303 H317 0.958 . S
C303 H318 0.961 . S
C303 H319 0.960 . S
H304 C288 0.931 . S
H305 C293 0.929 . S
H306 C294 0.960 . S
H307 C294 0.962 . S
H308 C294 0.960 . S
H309 C295 0.961 . S
H310 C295 0.961 . S
H311 C295 0.961 . S
H312 C296 0.931 . S
H313 C301 0.930 . S
H314 C302 0.956 . S
H315 C302 0.961 . S
H316 C302 0.961 . S
H317 C303 0.958 . S
H318 C303 0.961 . S
H319 C303 0.960 . S
C320 C321 1.391 . S
C320 C322 1.394 . S
C320 H336 0.931 . S
C321 C320 1.391 . S
C321 C325 1.376 . S
C322 C320 1.394 . S
C322 C323 1.369 . S
C322 C326 1.531 . S
C323 C322 1.369 . S
C323 C324 1.410 . S
C323 C331 1.503 . S
C324 C323 1.410 . S
C324 C325 1.392 . S
C324 C327 1.511 . S
C325 C321 1.376 . S
C325 C324 1.392 . S
C325 H337 0.929 . S
C326 C322 1.531 . S
C326 H338 0.960 . S
C326 H339 0.962 . S
C326 H340 0.960 . S
C327 C324 1.511 . S
C327 H341 0.961 . S
C327 H342 0.961 . S
C327 H343 0.961 . S
C328 C329 1.370 . S
C328 C330 1.363 . S
C328 H344 0.931 . S
C329 C328 1.370 . S
C329 C333 1.408 . S
C330 C328 1.363 . S
C330 C331 1.370 . S
C330 C334 1.524 . S
C331 C323 1.503 . S
C331 C330 1.370 . S
C331 C332 1.403 . S
C332 C331 1.403 . S
C332 C333 1.404 . S
C332 C335 1.539 . S
C333 C329 1.408 . S
C333 C332 1.404 . S
C333 H345 0.930 . S
C334 C330 1.524 . S
C334 H346 0.956 . S
C334 H347 0.961 . S
C334 H348 0.961 . S
C335 C332 1.539 . S
C335 H349 0.958 . S
C335 H350 0.961 . S
C335 H351 0.960 . S
H336 C320 0.931 . S
H337 C325 0.929 . S
H338 C326 0.960 . S
H339 C326 0.962 . S
H340 C326 0.960 . S
H341 C327 0.961 . S
H342 C327 0.961 . S
H343 C327 0.961 . S
H344 C328 0.931 . S
H345 C333 0.930 . S
H346 C334 0.956 . S
H347 C334 0.961 . S
H348 C334 0.961 . S
H349 C335 0.958 . S
H350 C335 0.961 . S
H351 C335 0.960 . S
C352 C353 1.391 . S
C352 C354 1.394 . S
C352 H368 0.931 . S
C353 C352 1.391 . S
C353 C357 1.376 . S
C354 C352 1.394 . S
C354 C355 1.369 . S
C354 C358 1.531 . S
C355 C354 1.369 . S
C355 C356 1.410 . S
C355 C363 1.503 . S
C356 C355 1.410 . S
C356 C357 1.392 . S
C356 C359 1.511 . S
C357 C353 1.376 . S
C357 C356 1.392 . S
C357 H369 0.929 . S
C358 C354 1.531 . S
C358 H370 0.960 . S
C358 H371 0.962 . S
C358 H372 0.960 . S
C359 C356 1.511 . S
C359 H373 0.961 . S
C359 H374 0.961 . S
C359 H375 0.961 . S
C360 C361 1.370 . S
C360 C362 1.363 . S
C360 H376 0.931 . S
C361 C360 1.370 . S
C361 C365 1.408 . S
C362 C360 1.363 . S
C362 C363 1.370 . S
C362 C366 1.524 . S
C363 C355 1.503 . S
C363 C362 1.370 . S
C363 C364 1.403 . S
C364 C363 1.403 . S
C364 C365 1.404 . S
C364 C367 1.539 . S
C365 C361 1.408 . S
C365 C364 1.404 . S
C365 H377 0.930 . S
C366 C362 1.524 . S
C366 H378 0.956 . S
C366 H379 0.961 . S
C366 H380 0.961 . S
C367 C364 1.539 . S
C367 H381 0.958 . S
C367 H382 0.961 . S
C367 H383 0.960 . S
H368 C352 0.931 . S
H369 C357 0.929 . S
H370 C358 0.960 . S
H371 C358 0.962 . S
H372 C358 0.960 . S
H373 C359 0.961 . S
H374 C359 0.961 . S
H375 C359 0.961 . S
H376 C360 0.931 . S
H377 C365 0.930 . S
H378 C366 0.956 . S
H379 C366 0.961 . S
H380 C366 0.961 . S
H381 C367 0.958 . S
H382 C367 0.961 . S
H383 C367 0.960 . S
C384 C385 1.391 . S
C384 C386 1.394 . S
C384 H400 0.931 . S
C385 C384 1.391 . S
C385 C389 1.376 . S
C386 C384 1.394 . S
C386 C387 1.369 . S
C386 C390 1.531 . S
C387 C386 1.369 . S
C387 C388 1.410 . S
C387 C395 1.503 . S
C388 C387 1.410 . S
C388 C389 1.392 . S
C388 C391 1.511 . S
C389 C385 1.376 . S
C389 C388 1.392 . S
C389 H401 0.929 . S
C390 C386 1.531 . S
C390 H402 0.960 . S
C390 H403 0.962 . S
C390 H404 0.960 . S
C391 C388 1.511 . S
C391 H405 0.961 . S
C391 H406 0.961 . S
C391 H407 0.961 . S
C392 C393 1.370 . S
C392 C394 1.363 . S
C392 H408 0.931 . S
C393 C392 1.370 . S
C393 C397 1.408 . S
C394 C392 1.363 . S
C394 C395 1.370 . S
C394 C398 1.524 . S
C395 C387 1.503 . S
C395 C394 1.370 . S
C395 C396 1.403 . S
C396 C395 1.403 . S
C396 C397 1.404 . S
C396 C399 1.539 . S
C397 C393 1.408 . S
C397 C396 1.404 . S
C397 H409 0.930 . S
C398 C394 1.524 . S
C398 H410 0.956 . S
C398 H411 0.961 . S
C398 H412 0.961 . S
C399 C396 1.539 . S
C399 H413 0.958 . S
C399 H414 0.961 . S
C399 H415 0.960 . S
H400 C384 0.931 . S
H401 C389 0.929 . S
H402 C390 0.960 . S
H403 C390 0.962 . S
H404 C390 0.960 . S
H405 C391 0.961 . S
H406 C391 0.961 . S
H407 C391 0.961 . S
H408 C392 0.931 . S
H409 C397 0.930 . S
H410 C398 0.956 . S
H411 C398 0.961 . S
H412 C398 0.961 . S
H413 C399 0.958 . S
H414 C399 0.961 . S
H415 C399 0.960 . S
C416 C417 1.391 . S
C416 C418 1.394 . S
C416 H432 0.931 . S
C417 C416 1.391 . S
C417 C421 1.376 . S
C418 C416 1.394 . S
C418 C419 1.369 . S
C418 C422 1.531 1_655 S
C419 C418 1.369 . S
C419 C420 1.410 . S
C419 C427 1.503 . S
C420 C419 1.410 . S
C420 C421 1.392 . S
C420 C423 1.511 . S
C421 C417 1.376 . S
C421 C420 1.392 . S
C421 H433 0.929 . S
C422 C418 1.531 1_455 S
C422 H434 0.960 . S
C422 H435 0.962 . S
C422 H436 0.960 . S
C423 C420 1.511 . S
C423 H437 0.961 . S
C423 H438 0.961 . S
C423 H439 0.961 . S
C424 C425 1.370 . S
C424 C426 1.363 . S
C424 H440 0.931 1_655 S
C425 C424 1.370 . S
C425 C429 1.408 . S
C426 C424 1.363 . S
C426 C427 1.370 . S
C426 C430 1.524 . S
C427 C419 1.503 . S
C427 C426 1.370 . S
C427 C428 1.403 . S
C428 C427 1.403 . S
C428 C429 1.404 . S
C428 C431 1.539 . S
C429 C425 1.408 . S
C429 C428 1.404 . S
C429 H441 0.930 . S
C430 C426 1.524 . S
C430 H442 0.956 1_655 S
C430 H443 0.961 . S
C430 H444 0.964 . S
C431 C428 1.539 . S
C431 H445 0.958 . S
C431 H446 0.961 . S
C431 H447 0.960 . S
H432 C416 0.931 . S
H433 C421 0.929 . S
H434 C422 0.960 . S
H435 C422 0.962 . S
H436 C422 0.960 . S
H437 C423 0.961 . S
H438 C423 0.961 . S
H439 C423 0.961 . S
H440 C424 0.931 1_455 S
H441 C429 0.930 . S
H442 C430 0.956 1_455 S
H443 C430 0.961 . S
H444 C430 0.964 . S
H445 C431 0.958 . S
H446 C431 0.961 . S
H447 C431 0.960 . S
C448 C449 1.391 . S
C448 C450 1.394 . S
C448 H464 0.931 . S
C449 C448 1.391 . S
C449 C453 1.376 . S
C450 C448 1.394 . S
C450 C451 1.369 . S
C450 C454 1.531 . S
C451 C450 1.369 . S
C451 C452 1.410 . S
C451 C459 1.503 . S
C452 C451 1.410 . S
C452 C453 1.392 . S
C452 C455 1.511 1_655 S
C453 C449 1.376 . S
C453 C452 1.392 . S
C453 H465 0.929 . S
C454 C450 1.531 . S
C454 H466 0.960 . S
C454 H467 0.962 . S
C454 H468 0.960 . S
C455 C452 1.511 1_455 S
C455 H469 0.961 . S
C455 H470 0.961 . S
C455 H471 0.961 . S
C456 C457 1.370 . S
C456 C458 1.363 . S
C456 H472 0.931 . S
C457 C456 1.370 . S
C457 C461 1.408 1_655 S
C458 C456 1.363 . S
C458 C459 1.370 . S
C458 C462 1.524 . S
C459 C451 1.503 . S
C459 C458 1.370 . S
C459 C460 1.403 . S
C460 C459 1.403 . S
C460 C461 1.404 1_655 S
C460 C463 1.539 1_655 S
C461 C457 1.408 1_455 S
C461 C460 1.404 1_455 S
C461 H473 0.930 . S
C462 C458 1.524 . S
C462 H474 0.956 . S
C462 H475 0.961 . S
C462 H476 0.961 . S
C463 C460 1.539 1_455 S
C463 H477 0.958 . S
C463 H478 0.961 . S
C463 H479 0.960 . S
H464 C448 0.931 . S
H465 C453 0.929 . S
H466 C454 0.960 . S
H467 C454 0.962 . S
H468 C454 0.960 . S
H469 C455 0.961 . S
H470 C455 0.961 . S
H471 C455 0.961 . S
H472 C456 0.931 . S
H473 C461 0.930 . S
H474 C462 0.956 . S
H475 C462 0.961 . S
H476 C462 0.961 . S
H477 C463 0.958 . S
H478 C463 0.961 . S
H479 C463 0.960 . S
C480 C481 1.391 1_655 S
C480 C482 1.394 1_655 S
C480 H496 0.931 . S
C481 C480 1.391 1_455 S
C481 C485 1.376 . S
C482 C480 1.394 1_455 S
C482 C483 1.369 . S
C482 C486 1.531 1_455 S
C483 C482 1.369 . S
C483 C484 1.410 . S
C483 C491 1.503 . S
C484 C483 1.410 . S
C484 C485 1.392 . S
C484 C487 1.511 . S
C485 C481 1.376 . S
C485 C484 1.392 . S
C485 H497 0.929 . S
C486 C482 1.531 1_655 S
C486 H498 0.960 . S
C486 H499 0.962 . S
C486 H500 0.960 . S
C487 C484 1.511 . S
C487 H501 0.961 . S
C487 H502 0.961 . S
C487 H503 0.961 . S
C488 C489 1.370 . S
C488 C490 1.363 . S
C488 H504 0.931 . S
C489 C488 1.370 . S
C489 C493 1.408 . S
C490 C488 1.363 . S
C490 C491 1.370 . S
C490 C494 1.524 . S
C491 C483 1.503 . S
C491 C490 1.370 . S
C491 C492 1.403 . S
C492 C491 1.403 . S
C492 C493 1.404 . S
C492 C495 1.539 . S
C493 C489 1.408 . S
C493 C492 1.404 . S
C493 H505 0.930 . S
C494 C490 1.524 . S
C494 H506 0.956 1_455 S
C494 H507 0.961 . S
C494 H508 0.962 . S
C495 C492 1.539 . S
C495 H509 0.958 . S
C495 H510 0.961 . S
C495 H511 0.960 . S
H496 C480 0.931 . S
H497 C485 0.929 . S
H498 C486 0.960 . S
H499 C486 0.962 . S
H500 C486 0.960 . S
H501 C487 0.961 . S
H502 C487 0.961 . S
H503 C487 0.961 . S
H504 C488 0.931 . S
H505 C493 0.930 . S
H506 C494 0.956 1_655 S
H507 C494 0.961 . S
H508 C494 0.962 . S
H509 C495 0.958 . S
H510 C495 0.961 . S
H511 C495 0.960 . S
C512 C513 1.391 . S
C512 C514 1.394 . S
C512 H528 0.931 . S
C513 C512 1.391 . S
C513 C517 1.376 . S
C514 C512 1.394 . S
C514 C515 1.369 . S
C514 C518 1.531 . S
C515 C514 1.369 . S
C515 C516 1.410 . S
C515 C523 1.503 . S
C516 C515 1.410 . S
C516 C517 1.392 . S
C516 C519 1.511 1_455 S
C517 C513 1.376 . S
C517 C516 1.392 . S
C517 H529 0.929 . S
C518 C514 1.531 . S
C518 H530 0.960 . S
C518 H531 0.962 . S
C518 H532 0.960 . S
C519 C516 1.511 1_655 S
C519 H533 0.961 . S
C519 H534 0.961 . S
C519 H535 0.961 . S
C520 C521 1.370 . S
C520 C522 1.363 . S
C520 H536 0.931 . S
C521 C520 1.370 . S
C521 C525 1.408 . S
C522 C520 1.363 . S
C522 C523 1.370 . S
C522 C526 1.524 . S
C523 C515 1.503 . S
C523 C522 1.370 . S
C523 C524 1.403 . S
C524 C523 1.403 . S
C524 C525 1.404 . S
C524 C527 1.539 1_455 S
C525 C521 1.408 . S
C525 C524 1.404 . S
C525 H537 0.930 1_455 S
C526 C522 1.524 . S
C526 H538 0.956 . S
C526 H539 0.961 . S
C526 H540 0.961 . S
C527 C524 1.539 1_655 S
C527 H541 0.958 1_655 S
C527 H542 0.961 . S
C527 H543 0.960 . S
H528 C512 0.931 . S
H529 C517 0.929 . S
H530 C518 0.960 . S
H531 C518 0.962 . S
H532 C518 0.960 . S
H533 C519 0.961 . S
H534 C519 0.961 . S
H535 C519 0.961 . S
H536 C520 0.931 . S
H537 C525 0.930 1_655 S
H538 C526 0.956 . S
H539 C526 0.961 . S
H540 C526 0.961 . S
H541 C527 0.958 1_455 S
H542 C527 0.961 . S
H543 C527 0.960 . S
C161 C58 1.493 . S
C169 C9 1.519 1_556 S
C193 C89 1.512 . S
C201 C138 1.516 . S
C225 C18 1.508 . S
C233 C49 1.512 1_556 S
C257 C129 1.508 . S
C265 C98 1.518 . S
C289 C126 1.279 . S
C297 C10 1.280 . S
C321 C46 1.281 . S
C329 C90 1.280 . S
C353 C59 1.264 . S
C361 C95 1.263 . S
C385 C139 1.268 . S
C393 C15 1.264 . S
C417 C50 1.262 . S
C425 C86 1.263 . S
C449 C130 1.286 . S
C457 C6 1.267 . S
C481 C135 1.259 . S
C489 C19 1.276 . S
C513 C99 1.264 . S
C521 C55 1.264 . S
