# Generated by pormake.
# Topology mmt, (4)-cn, num edge types: 1
# Building blocks:
#     Node 0, Type 0, BuildingBlock: QUQFOY_clean_sbu_1, # of connection points: 4
#     Node 1, Type 0, BuildingBlock: QUQFOY_clean_sbu_1, # of connection points: 4
#     Node 2, Type 0, BuildingBlock: QUQFOY_clean_sbu_1, # of connection points: 4
#     Node 3, Type 0, BuildingBlock: QUQFOY_clean_sbu_1, # of connection points: 4
#     Node 4, Type 0, BuildingBlock: QUQFOY_clean_sbu_1, # of connection points: 4
#     Node 5, Type 0, BuildingBlock: QUQFOY_clean_sbu_1, # of connection points: 4
#     Node 6, Type 0, BuildingBlock: QUQFOY_clean_sbu_1, # of connection points: 4
#     Node 7, Type 0, BuildingBlock: QUQFOY_clean_sbu_1, # of connection points: 4
#     Edge 8, Type (0, 0), BuildingBlock: AJUNOK_clean_linker_0, # of connection points: 2
#     Edge 9, Type (0, 0), BuildingBlock: AJUNOK_clean_linker_0, # of connection points: 2
#     Edge 10, Type (0, 0), BuildingBlock: AJUNOK_clean_linker_0, # of connection points: 2
#     Edge 11, Type (0, 0), BuildingBlock: AJUNOK_clean_linker_0, # of connection points: 2
#     Edge 12, Type (0, 0), BuildingBlock: AJUNOK_clean_linker_0, # of connection points: 2
#     Edge 13, Type (0, 0), BuildingBlock: AJUNOK_clean_linker_0, # of connection points: 2
#     Edge 14, Type (0, 0), BuildingBlock: AJUNOK_clean_linker_0, # of connection points: 2
#     Edge 15, Type (0, 0), BuildingBlock: AJUNOK_clean_linker_0, # of connection points: 2
#     Edge 16, Type (0, 0), BuildingBlock: AJUNOK_clean_linker_0, # of connection points: 2
#     Edge 17, Type (0, 0), BuildingBlock: AJUNOK_clean_linker_0, # of connection points: 2
#     Edge 18, Type (0, 0), BuildingBlock: AJUNOK_clean_linker_0, # of connection points: 2
#     Edge 19, Type (0, 0), BuildingBlock: AJUNOK_clean_linker_0, # of connection points: 2
#     Edge 20, Type (0, 0), BuildingBlock: AJUNOK_clean_linker_0, # of connection points: 2
#     Edge 21, Type (0, 0), BuildingBlock: AJUNOK_clean_linker_0, # of connection points: 2
#     Edge 22, Type (0, 0), BuildingBlock: AJUNOK_clean_linker_0, # of connection points: 2
#     Edge 23, Type (0, 0), BuildingBlock: AJUNOK_clean_linker_0, # of connection points: 2
# Relax obj value: 0.024
# Max RMSD: 0.102
# Mean RMSD: 0.102
data_MOF--net-mmt--node1-QUQFOY_clean_sbu_1--edge1-AJUNOK_clean_linker_0
_symmetry_space_group_name_H-M    P1
_symmetry_Int_Tables_number       1
_symmetry_cell_setting            triclinic
loop_
_symmetry_equiv_pos_as_xyz
'x, y, z'
_cell_length_a     17.512927
_cell_length_b     31.330899
_cell_length_c     33.102862
_cell_angle_alpha  90.024197
_cell_angle_beta   89.742732
_cell_angle_gamma 89.873068
loop_
_atom_site_label
_atom_site_type_symbol
_atom_site_fract_x
_atom_site_fract_y
_atom_site_fract_z
_atom_type_partial_charge
O0 O 0.19839 0.58218 0.33938 0.0
Cd1 Cd 0.1024 0.61779 0.35141 0.0
Cd2 Cd 0.07737 0.54013 0.39243 0.0
O3 O 0.18859 0.52494 0.37788 0.0
O4 O 0.13261 0.67125 0.32302 0.0
O5 O 0.11461 0.66895 0.38877 0.0
C6 C 0.13553 0.69037 0.35734 0.0
C7 C 0.02582 0.5308 0.45718 0.0
C8 C 0.22587 0.54745 0.35277 0.0
C9 C -0.0216 0.56233 0.32032 0.0
O10 O 0.00224 0.5348 0.34547 0.0
O11 O 0.00473 0.60013 0.32044 0.0
O12 O 0.04025 0.49875 0.4339 0.0
O13 O 0.04369 0.56839 0.44411 0.0
O14 O 0.23538 0.97061 0.33202 0.0
Cd15 Cd 0.31863 0.93037 0.35325 0.0
Cd16 Cd 0.33686 1.00395 0.39721 0.0
O17 O 0.23044 1.02231 0.37713 0.0
O18 O 0.28911 0.87694 0.32467 0.0
O19 O 0.28912 0.88176 0.39095 0.0
C20 C 0.27468 0.85958 0.35904 0.0
C21 C 0.38026 1.0146 0.46327 0.0
C22 C 0.20536 1.00484 0.34521 0.0
C23 C 0.4502 0.98156 0.33031 0.0
O24 O 0.42003 1.00906 0.35367 0.0
O25 O 0.42534 0.94349 0.32957 0.0
O26 O 0.36941 0.0461 0.43893 0.0
O27 O 0.36232 0.97688 0.45067 0.0
O28 O 0.70136 0.471 0.23544 0.0
Cd29 Cd 0.6059 0.43454 0.22566 0.0
Cd30 Cd 0.57943 0.51237 0.18227 0.0
O31 O 0.69013 0.52807 0.19675 0.0
O32 O 0.63621 0.38392 0.25833 0.0
O33 O 0.61925 0.37997 0.19273 0.0
C34 C 0.63913 0.36149 0.2259 0.0
C35 C 0.52837 0.52125 0.11753 0.0
C36 C 0.72799 0.50578 0.2217 0.0
C37 C 0.47984 0.49108 0.25483 0.0
O38 O 0.50328 0.51811 0.22905 0.0
O39 O 0.50744 0.45352 0.25576 0.0
O40 O 0.5424 0.55346 0.14057 0.0
O41 O 0.54656 0.48376 0.13077 0.0
O42 O 0.72379 0.07901 0.24477 0.0
Cd43 Cd 0.8131 0.11866 0.23129 0.0
Cd44 Cd 0.84275 0.0422 0.1844 0.0
O45 O 0.73825 1.02193 0.20618 0.0
O46 O 0.78065 0.17001 0.26241 0.0
O47 O 0.79128 0.17053 0.1962 0.0
C48 C 0.77232 0.19031 0.22898 0.0
C49 C 0.88243 0.03195 0.11752 0.0
C50 C 0.70063 0.04296 0.2324 0.0
C51 C 0.95436 0.06931 0.25015 0.0
O52 O 0.93126 0.04223 0.22444 0.0
O53 O 0.91756 0.10365 0.2567 0.0
O54 O 0.87697 1.00052 0.14245 0.0
O55 O 0.86079 0.06918 0.13006 0.0
O56 O 0.71795 0.46716 0.7393 0.0
Cd57 Cd 0.81176 0.43149 0.72385 0.0
Cd58 Cd 0.83199 0.50702 0.6809 0.0
O59 O 0.7231 0.52332 0.6992 0.0
O60 O 0.78482 0.37779 0.7526 0.0
O61 O 0.79487 0.38092 0.68639 0.0
C62 C 0.77762 0.35915 0.71823 0.0
C63 C 0.87563 0.51195 0.61425 0.0
C64 C 0.68908 0.50163 0.7262 0.0
C65 C 0.94078 0.48645 0.74926 0.0
O66 O 0.91395 0.51343 0.7244 0.0
O67 O 0.91286 0.44908 0.75135 0.0
O68 O 0.8646 0.54556 0.63608 0.0
O69 O 0.85815 0.4754 0.62987 0.0
O70 O 0.70037 0.08006 0.73913 0.0
Cd71 Cd 0.60692 0.11681 0.72525 0.0
Cd72 Cd 0.58251 0.04094 0.68389 0.0
O73 O 0.6925 1.02417 0.69888 0.0
O74 O 0.63718 0.17017 0.75359 0.0
O75 O 0.6232 0.16741 0.68765 0.0
C76 C 0.64274 0.18893 0.71919 0.0
C77 C 0.53253 0.03543 0.61879 0.0
C78 C 0.72789 0.0453 0.72561 0.0
C79 C 0.4805 0.06274 0.75513 0.0
O80 O 0.50556 0.03511 0.73029 0.0
O81 O 0.5069 0.10051 0.7551 0.0
O82 O 0.54504 1.00203 0.64061 0.0
O83 O 0.55181 0.07208 0.63351 0.0
O84 O 0.22056 0.58162 0.83552 0.0
Cd85 Cd 0.31309 0.61756 0.85202 0.0
Cd86 Cd 0.33014 0.54301 0.89554 0.0
O87 O 0.22081 0.52755 0.87803 0.0
O88 O 0.28909 0.67038 0.82118 0.0
O89 O 0.29453 0.66976 0.88752 0.0
C90 C 0.28089 0.69057 0.85469 0.0
C91 C 0.37514 0.53885 0.96179 0.0
C92 C 0.18991 0.54784 0.84915 0.0
C93 C 0.43948 0.561 0.8266 0.0
O94 O 0.41071 0.53437 0.85122 0.0
O95 O 0.41508 0.59921 0.82546 0.0
O96 O 0.36233 0.50495 0.94074 0.0
O97 O 0.35851 0.57529 0.94569 0.0
O98 O 0.20299 0.97113 0.84098 0.0
Cd99 Cd 0.1094 0.93377 0.85264 0.0
Cd100 Cd 0.08156 1.01058 0.89473 0.0
O101 O 0.19108 0.02828 0.87949 0.0
O102 O 0.14241 0.88292 0.82105 0.0
O103 O 0.12632 0.8805 0.88685 0.0
C104 C 0.14798 0.86167 0.85405 0.0
C105 C 0.03188 1.01466 0.96017 0.0
C106 C 0.22898 1.00622 0.85421 0.0
C107 C -0.01992 0.98764 0.82411 0.0
O108 O 0.00382 1.01542 0.849 0.0
O109 O 0.00948 0.95049 0.82323 0.0
O110 O 0.0425 0.04848 0.93863 0.0
O111 O 0.05286 0.97844 0.94495 0.0
C112 C 0.30936 0.48854 0.32642 0.0
C113 C 0.29837 0.53213 0.33502 0.0
C114 C 0.37005 0.47495 0.30157 0.0
C115 C 0.42116 0.5046 0.28452 0.0
H116 H 0.26843 0.46513 0.33695 0.0
H117 H 0.37478 0.44137 0.29417 0.0
S118 S 0.42484 0.62131 0.30429 0.0
N119 N 0.34923 0.60396 0.3292 0.0
N120 N 0.46278 0.5787 0.28275 0.0
C121 C 0.41374 0.54783 0.29545 0.0
C122 C 0.35248 0.56152 0.32068 0.0
C123 C 0.02834 0.06779 0.31492 0.0
C124 C 0.02361 0.05886 0.27332 0.0
C125 C 0.08852 0.05129 0.33828 0.0
C126 C 0.14529 0.02537 0.32062 0.0
H127 H -0.01648 0.08585 0.32981 0.0
H128 H 0.08897 0.05749 0.37048 0.0
S129 S 0.16538 0.99953 0.21146 0.0
N130 N 0.08543 0.02728 0.21466 0.0
N131 N 0.19816 0.99661 0.25802 0.0
C132 C 0.14346 1.01876 0.27854 0.0
C133 C 0.08268 0.03543 0.25502 0.0
C134 C 0.80907 0.56499 0.24871 0.0
C135 C 0.80005 0.52152 0.23912 0.0
C136 C 0.86887 0.57859 0.27382 0.0
C137 C 0.921 0.54907 0.29015 0.0
H138 H 0.76716 0.58819 0.23886 0.0
H139 H 0.87198 0.61201 0.28206 0.0
S140 S 0.92994 0.43299 0.26759 0.0
N141 N 0.85391 0.45015 0.24317 0.0
N142 N -0.03417 0.47542 0.29006 0.0
C143 C 0.91566 0.50608 0.27813 0.0
C144 C 0.85531 0.49239 0.25265 0.0
C145 C 0.62614 0.9822 0.2622 0.0
C146 C 0.63091 0.0255 0.25118 0.0
C147 C 0.56635 0.96751 0.28709 0.0
C148 C 0.51009 0.99581 0.30172 0.0
H149 H 0.67077 0.96008 0.2533 0.0
H150 H 0.56585 0.9343 0.29616 0.0
S151 S 0.49038 0.11058 0.27527 0.0
N152 N 0.5696 0.09509 0.25239 0.0
N153 N 0.45777 0.06787 0.29875 0.0
C154 C 0.51193 0.03853 0.28857 0.0
C155 C 0.57221 0.05327 0.26337 0.0
C156 C 0.54895 0.57537 0.77909 0.0
C157 C 0.49895 0.54622 0.79784 0.0
C158 C 0.60805 0.56112 0.75353 0.0
C159 C 0.61869 0.51734 0.74589 0.0
H160 H 0.54408 0.60922 0.78528 0.0
H161 H 0.64779 0.58429 0.74136 0.0
S162 S 0.49581 0.42877 0.78192 0.0
N163 N 0.45881 0.47196 0.80284 0.0
N164 N 0.56941 0.44555 0.75508 0.0
C165 C 0.56624 0.48826 0.76238 0.0
C166 C 0.50654 0.50259 0.78833 0.0
C167 C 0.84571 0.05795 0.76485 0.0
C168 C 0.79835 0.02889 0.74461 0.0
C169 C 0.9049 0.04401 0.78958 0.0
C170 C 0.91976 1.00026 0.7952 0.0
H171 H 0.83556 0.09203 0.76265 0.0
H172 H 0.93843 0.06798 0.80498 0.0
S173 S 0.81627 0.91088 0.74644 0.0
N174 N 0.7728 0.95424 0.72975 0.0
N175 N 0.88532 0.92776 0.77627 0.0
C176 C 0.87552 0.97069 0.77349 0.0
C177 C 0.81461 0.98503 0.74814 0.0
C178 C 0.08447 0.55823 0.80029 0.0
C179 C 0.12167 0.53131 0.82796 0.0
C180 C 0.02664 0.54315 0.77534 0.0
C181 C 0.0026 0.50036 0.77685 0.0
H182 H 0.10108 0.59136 0.79711 0.0
H183 H 0.00109 0.56553 0.75443 0.0
S184 S 0.07809 0.41694 0.84576 0.0
N185 N 0.12835 0.45993 0.85671 0.0
N186 N 0.01824 0.43144 0.80984 0.0
C187 C 0.03739 0.47316 0.8053 0.0
C188 C 0.09701 0.48867 0.83088 0.0
C189 C 0.30946 0.06549 0.82641 0.0
C190 C 0.30077 1.02208 0.83632 0.0
C191 C 0.36955 0.07905 0.8012 0.0
C192 C 0.42225 0.04953 0.78509 0.0
H193 H 0.26721 0.08864 0.83618 0.0
H194 H 0.37258 0.11241 0.79278 0.0
S195 S 0.43187 0.93365 0.80837 0.0
N196 N 0.35532 0.95082 0.8327 0.0
N197 N 0.46771 0.97601 0.78561 0.0
C198 C 0.41706 1.00662 0.79734 0.0
C199 C 0.35646 0.99299 0.82292 0.0
C200 C -0.0286 0.56037 0.52161 0.0
C201 C -0.01242 0.52479 0.49705 0.0
C202 C 0.93407 0.55586 0.55894 0.0
C203 C 0.91119 0.51556 0.57345 0.0
H204 H -0.01231 0.59213 0.51202 0.0
H205 H 0.92374 0.58436 0.57669 0.0
S206 S 0.93849 0.41206 0.52055 0.0
N207 N -0.02339 0.44767 0.4898 0.0
N208 N 0.90666 0.43931 0.55986 0.0
C209 C 0.92641 0.47967 0.54909 0.0
C210 C -0.03546 0.48425 0.51101 0.0
C211 C 0.43317 0.98597 0.52813 0.0
C212 C 0.41646 1.02125 0.50339 0.0
C213 C 0.47122 0.99095 0.56503 0.0
C214 C 0.49431 0.03143 0.57889 0.0
H215 H 0.4174 0.95405 0.51884 0.0
H216 H 0.48249 0.96263 0.58281 0.0
S217 S 0.46366 0.13444 0.52585 0.0
N218 N 0.42556 0.09841 0.49571 0.0
N219 N 0.49689 0.10764 0.56494 0.0
C220 C 0.47764 0.06708 0.5546 0.0
C221 C 0.43878 0.06203 0.51697 0.0
C222 C 0.47197 0.49111 0.05412 0.0
C223 C 0.48983 0.52696 0.07786 0.0
C224 C 0.43381 0.49533 1.01716 0.0
C225 C 0.41177 0.5356 1.0022 0.0
H226 H 0.48743 0.45934 0.06412 0.0
H227 H 0.4221 0.46662 1.00006 0.0
S228 S 0.44401 0.6398 0.05279 0.0
N229 N 0.4817 0.60434 0.08375 0.0
N230 N 0.41022 0.61217 1.0144 0.0
C231 C 0.42886 0.57178 1.02569 0.0
C232 C 0.4678 0.56749 0.0634 0.0
C233 C -0.03268 0.05754 1.01441 0.0
C234 C -0.00604 1.01769 1.00041 0.0
C235 C 0.92982 0.06161 0.05174 0.0
C236 C 0.91734 0.02603 0.07681 0.0
H237 H -0.02461 0.08605 0.99642 0.0
H238 H 0.91134 0.09311 0.06115 0.0
S239 S -0.02531 0.9142 0.0541 0.0
N240 N 0.00421 0.94171 1.01453 0.0
N241 N 0.93399 0.94927 0.08461 0.0
C242 C 0.94308 0.98585 0.06307 0.0
C243 C -0.01869 0.98172 1.02497 0.0
C244 C 0.18758 0.75537 0.32383 0.0
C245 C 0.1671 0.73434 0.35982 0.0
C246 C 0.2228 0.79535 0.32427 0.0
C247 C 0.23931 0.81646 0.36072 0.0
H248 H 0.17709 0.74072 0.29474 0.0
H249 H 0.23712 0.80976 0.29548 0.0
S250 S 0.19652 0.77577 0.4637 0.0
N251 N 0.16537 0.73789 0.43325 0.0
N252 N 0.23139 0.81348 0.43408 0.0
C253 C 0.21861 0.79613 0.39711 0.0
C254 C 0.18252 0.75508 0.39666 0.0
C255 C 0.72421 0.25513 0.1918 0.0
C256 C 0.73859 0.23399 0.22856 0.0
C257 C 0.69012 0.29584 0.19098 0.0
C258 C 0.6692 0.31704 0.2269 0.0
H259 H 0.73935 0.24017 0.16335 0.0
H260 H 0.6813 0.31104 0.16199 0.0
S261 S 0.69185 0.27506 0.33118 0.0
N262 N 0.7273 0.23727 0.30187 0.0
N263 N 0.66342 0.31311 0.30029 0.0
C264 C 0.68237 0.29599 0.26382 0.0
C265 C 0.71701 0.25472 0.26467 0.0
C266 C 0.69442 0.25375 0.75293 0.0
C267 C 0.67508 0.23273 0.71683 0.0
C268 C 0.72885 0.29393 0.75267 0.0
C269 C 0.74568 0.31525 0.71632 0.0
H270 H 0.68326 0.23905 0.78196 0.0
H271 H 0.7419 0.30844 0.78153 0.0
S272 S 0.70689 0.27438 0.61312 0.0
N273 N 0.67564 0.23627 0.6434 0.0
N274 N 0.74019 0.31226 0.64292 0.0
C275 C 0.72684 0.29475 0.67981 0.0
C276 C 0.69151 0.25349 0.68007 0.0
C277 C 0.2206 0.75328 0.89029 0.0
C278 C 0.25176 0.73517 0.85491 0.0
C279 C 0.18654 0.79402 0.88987 0.0
C280 C 0.18236 0.81816 0.85405 0.0
H281 H 0.22105 0.73555 0.91838 0.0
H282 H 0.16299 0.80651 0.91779 0.0
S283 S 0.26054 0.78635 0.75377 0.0
N284 N 0.27969 0.74557 0.78354 0.0
N285 N 0.21594 0.82144 0.7826 0.0
C286 C 0.21484 0.80066 0.81867 0.0
C287 C 0.24949 0.75941 0.81914 0.0
loop_
_geom_bond_atom_site_label_1
_geom_bond_atom_site_label_2
_geom_bond_distance
_geom_bond_site_symmetry_2
_ccdc_geom_bond_type
O0 Cd1 2.223 . S
O0 C8 1.315 . S
Cd1 O0 2.223 . S
Cd1 O4 2.297 . S
Cd1 O5 2.439 . S
Cd1 O11 2.240 . S
Cd2 O3 2.240 . S
Cd2 O10 2.223 . S
Cd2 O12 2.297 . S
Cd2 O13 2.439 . S
O3 Cd2 2.240 . S
O3 C8 1.279 . S
O4 Cd1 2.297 . S
O4 C6 1.247 . S
O5 Cd1 2.439 . S
O5 C6 1.208 . S
C6 O4 1.247 . S
C6 O5 1.208 . S
C7 O12 1.247 . S
C7 O13 1.208 . S
C8 O0 1.315 . S
C8 O3 1.279 . S
C9 O10 1.315 . S
C9 O11 1.279 . S
O10 Cd2 2.223 . S
O10 C9 1.315 . S
O11 Cd1 2.240 . S
O11 C9 1.279 . S
O12 Cd2 2.297 . S
O12 C7 1.247 . S
O13 Cd2 2.439 . S
O13 C7 1.208 . S
O14 Cd15 2.223 . S
O14 C22 1.315 . S
Cd15 O14 2.223 . S
Cd15 O18 2.297 . S
Cd15 O19 2.439 . S
Cd15 O25 2.240 . S
Cd16 O17 2.240 . S
Cd16 O24 2.223 1_565 S
Cd16 O26 2.297 1_565 S
Cd16 O27 2.439 . S
O17 Cd16 2.240 . S
O17 C22 1.279 . S
O18 Cd15 2.297 . S
O18 C20 1.247 . S
O19 Cd15 2.439 . S
O19 C20 1.208 . S
C20 O18 1.247 . S
C20 O19 1.208 . S
C21 O26 1.247 1_565 S
C21 O27 1.208 . S
C22 O14 1.315 . S
C22 O17 1.279 . S
C23 O24 1.315 1_565 S
C23 O25 1.279 . S
O24 Cd16 2.223 1_545 S
O24 C23 1.315 1_545 S
O25 Cd15 2.240 . S
O25 C23 1.279 . S
O26 Cd16 2.297 1_545 S
O26 C21 1.247 1_545 S
O27 Cd16 2.439 . S
O27 C21 1.208 . S
O28 Cd29 2.223 . S
O28 C36 1.315 . S
Cd29 O28 2.223 . S
Cd29 O32 2.297 . S
Cd29 O33 2.439 . S
Cd29 O39 2.240 . S
Cd30 O31 2.240 . S
Cd30 O38 2.223 . S
Cd30 O40 2.297 . S
Cd30 O41 2.439 . S
O31 Cd30 2.240 . S
O31 C36 1.279 . S
O32 Cd29 2.297 . S
O32 C34 1.247 . S
O33 Cd29 2.439 . S
O33 C34 1.208 . S
C34 O32 1.247 . S
C34 O33 1.208 . S
C35 O40 1.247 . S
C35 O41 1.208 . S
C36 O28 1.315 . S
C36 O31 1.279 . S
C37 O38 1.315 . S
C37 O39 1.279 . S
O38 Cd30 2.223 . S
O38 C37 1.315 . S
O39 Cd29 2.240 . S
O39 C37 1.279 . S
O40 Cd30 2.297 . S
O40 C35 1.247 . S
O41 Cd30 2.439 . S
O41 C35 1.208 . S
O42 Cd43 2.223 . S
O42 C50 1.315 . S
Cd43 O42 2.223 . S
Cd43 O46 2.297 . S
Cd43 O47 2.439 . S
Cd43 O53 2.240 . S
Cd44 O45 2.240 . S
Cd44 O52 2.223 1_545 S
Cd44 O54 2.297 1_545 S
Cd44 O55 2.439 . S
O45 Cd44 2.240 . S
O45 C50 1.279 . S
O46 Cd43 2.297 . S
O46 C48 1.247 . S
O47 Cd43 2.439 . S
O47 C48 1.208 . S
C48 O46 1.247 . S
C48 O47 1.208 . S
C49 O54 1.247 1_545 S
C49 O55 1.208 . S
C50 O42 1.315 . S
C50 O45 1.279 . S
C51 O52 1.315 1_545 S
C51 O53 1.279 . S
O52 Cd44 2.223 1_565 S
O52 C51 1.315 1_565 S
O53 Cd43 2.240 . S
O53 C51 1.279 . S
O54 Cd44 2.297 1_565 S
O54 C49 1.247 1_565 S
O55 Cd44 2.439 . S
O55 C49 1.208 . S
O56 Cd57 2.223 . S
O56 C64 1.315 . S
Cd57 O56 2.223 . S
Cd57 O60 2.297 . S
Cd57 O61 2.439 . S
Cd57 O67 2.240 . S
Cd58 O59 2.240 . S
Cd58 O66 2.223 . S
Cd58 O68 2.297 . S
Cd58 O69 2.439 . S
O59 Cd58 2.240 . S
O59 C64 1.279 . S
O60 Cd57 2.297 . S
O60 C62 1.247 . S
O61 Cd57 2.439 . S
O61 C62 1.208 . S
C62 O60 1.247 . S
C62 O61 1.208 . S
C63 O68 1.247 . S
C63 O69 1.208 . S
C64 O56 1.315 . S
C64 O59 1.279 . S
C65 O66 1.315 . S
C65 O67 1.279 . S
O66 Cd58 2.223 . S
O66 C65 1.315 . S
O67 Cd57 2.240 . S
O67 C65 1.279 . S
O68 Cd58 2.297 . S
O68 C63 1.247 . S
O69 Cd58 2.439 . S
O69 C63 1.208 . S
O70 Cd71 2.223 . S
O70 C78 1.315 . S
Cd71 O70 2.223 . S
Cd71 O74 2.297 . S
Cd71 O75 2.439 . S
Cd71 O81 2.240 . S
Cd72 O73 2.240 . S
Cd72 O80 2.223 1_545 S
Cd72 O82 2.297 1_545 S
Cd72 O83 2.439 . S
O73 Cd72 2.240 . S
O73 C78 1.279 . S
O74 Cd71 2.297 . S
O74 C76 1.247 . S
O75 Cd71 2.439 . S
O75 C76 1.208 . S
C76 O74 1.247 . S
C76 O75 1.208 . S
C77 O82 1.247 1_545 S
C77 O83 1.208 . S
C78 O70 1.315 . S
C78 O73 1.279 . S
C79 O80 1.315 1_545 S
C79 O81 1.279 . S
O80 Cd72 2.223 1_565 S
O80 C79 1.315 1_565 S
O81 Cd71 2.240 . S
O81 C79 1.279 . S
O82 Cd72 2.297 1_565 S
O82 C77 1.247 1_565 S
O83 Cd72 2.439 . S
O83 C77 1.208 . S
O84 Cd85 2.223 . S
O84 C92 1.315 . S
Cd85 O84 2.223 . S
Cd85 O88 2.297 . S
Cd85 O89 2.439 . S
Cd85 O95 2.240 . S
Cd86 O87 2.240 . S
Cd86 O94 2.223 . S
Cd86 O96 2.297 . S
Cd86 O97 2.439 . S
O87 Cd86 2.240 . S
O87 C92 1.279 . S
O88 Cd85 2.297 . S
O88 C90 1.247 . S
O89 Cd85 2.439 . S
O89 C90 1.208 . S
C90 O88 1.247 . S
C90 O89 1.208 . S
C91 O96 1.247 . S
C91 O97 1.208 . S
C92 O84 1.315 . S
C92 O87 1.279 . S
C93 O94 1.315 . S
C93 O95 1.279 . S
O94 Cd86 2.223 . S
O94 C93 1.315 . S
O95 Cd85 2.240 . S
O95 C93 1.279 . S
O96 Cd86 2.297 . S
O96 C91 1.247 . S
O97 Cd86 2.439 . S
O97 C91 1.208 . S
O98 Cd99 2.223 . S
O98 C106 1.315 . S
Cd99 O98 2.223 . S
Cd99 O102 2.297 . S
Cd99 O103 2.439 . S
Cd99 O109 2.240 . S
Cd100 O101 2.240 . S
Cd100 O108 2.223 1_565 S
Cd100 O110 2.297 1_565 S
Cd100 O111 2.439 . S
O101 Cd100 2.240 . S
O101 C106 1.279 . S
O102 Cd99 2.297 . S
O102 C104 1.247 . S
O103 Cd99 2.439 . S
O103 C104 1.208 . S
C104 O102 1.247 . S
C104 O103 1.208 . S
C105 O110 1.247 1_565 S
C105 O111 1.208 . S
C106 O98 1.315 . S
C106 O101 1.279 . S
C107 O108 1.315 1_565 S
C107 O109 1.279 . S
O108 Cd100 2.223 1_545 S
O108 C107 1.315 1_545 S
O109 Cd99 2.240 . S
O109 C107 1.279 . S
O110 Cd100 2.297 1_545 S
O110 C105 1.247 1_545 S
O111 Cd100 2.439 . S
O111 C105 1.208 . S
C112 C113 1.369 . S
C112 C114 1.419 . S
C112 H116 0.930 . S
C113 C112 1.369 . S
C113 C122 1.429 . S
C114 C112 1.419 . S
C114 C115 1.363 . S
C114 H117 0.929 . S
C115 C114 1.363 . S
C115 C121 1.428 . S
H116 C112 0.930 . S
H117 C114 0.929 . S
S118 N119 1.613 . S
S118 N120 1.610 . S
N119 S118 1.613 . S
N119 C122 1.350 . S
N120 S118 1.610 . S
N120 C121 1.351 . S
C121 C115 1.428 . S
C121 N120 1.351 . S
C121 C122 1.434 . S
C122 C113 1.429 . S
C122 N119 1.350 . S
C122 C121 1.434 . S
C123 C124 1.369 . S
C123 C125 1.426 . S
C123 H127 0.930 . S
C124 C123 1.369 . S
C124 C133 1.429 1_545 S
C125 C123 1.426 . S
C125 C126 1.352 1_545 S
C125 H128 0.934 . S
C126 C125 1.352 1_565 S
C126 C132 1.428 . S
H127 C123 0.930 . S
H128 C125 0.934 . S
S129 N130 1.613 . S
S129 N131 1.610 . S
N130 S129 1.613 . S
N130 C133 1.350 . S
N131 S129 1.610 . S
N131 C132 1.351 . S
C132 C126 1.428 . S
C132 N131 1.351 . S
C132 C133 1.434 . S
C133 C124 1.429 1_565 S
C133 N130 1.350 . S
C133 C132 1.434 . S
C134 C135 1.369 . S
C134 C136 1.419 . S
C134 H138 0.930 . S
C135 C134 1.369 . S
C135 C144 1.429 . S
C136 C134 1.419 . S
C136 C137 1.363 . S
C136 H139 0.929 . S
C137 C136 1.363 . S
C137 C143 1.428 . S
H138 C134 0.930 . S
H139 C136 0.929 . S
S140 N141 1.613 . S
S140 N142 1.610 . S
N141 S140 1.613 . S
N141 C144 1.350 . S
N142 S140 1.610 . S
N142 C143 1.351 . S
C143 C137 1.428 . S
C143 N142 1.351 . S
C143 C144 1.434 . S
C144 C135 1.429 . S
C144 N141 1.350 . S
C144 C143 1.434 . S
C145 C146 1.369 1_565 S
C145 C147 1.419 . S
C145 H149 0.930 . S
C146 C145 1.369 1_545 S
C146 C155 1.429 . S
C147 C145 1.419 . S
C147 C148 1.363 . S
C147 H150 0.929 . S
C148 C147 1.363 . S
C148 C154 1.428 1_565 S
H149 C145 0.930 . S
H150 C147 0.929 . S
S151 N152 1.613 . S
S151 N153 1.610 . S
N152 S151 1.613 . S
N152 C155 1.350 . S
N153 S151 1.610 . S
N153 C154 1.351 . S
C154 C148 1.428 1_545 S
C154 N153 1.351 . S
C154 C155 1.434 . S
C155 C146 1.429 . S
C155 N152 1.350 . S
C155 C154 1.434 . S
C156 C157 1.369 . S
C156 C158 1.419 . S
C156 H160 0.930 . S
C157 C156 1.369 . S
C157 C166 1.429 . S
C158 C156 1.419 . S
C158 C159 1.363 . S
C158 H161 0.929 . S
C159 C158 1.363 . S
C159 C165 1.428 . S
H160 C156 0.930 . S
H161 C158 0.929 . S
S162 N163 1.613 . S
S162 N164 1.610 . S
N163 S162 1.613 . S
N163 C166 1.350 . S
N164 S162 1.610 . S
N164 C165 1.351 . S
C165 C159 1.428 . S
C165 N164 1.351 . S
C165 C166 1.434 . S
C166 C157 1.429 . S
C166 N163 1.350 . S
C166 C165 1.434 . S
C167 C168 1.369 . S
C167 C169 1.419 . S
C167 H171 0.930 . S
C168 C167 1.369 . S
C168 C177 1.429 1_545 S
C169 C167 1.419 . S
C169 C170 1.363 1_545 S
C169 H172 0.929 . S
C170 C169 1.363 1_565 S
C170 C176 1.428 . S
H171 C167 0.930 . S
H172 C169 0.929 . S
S173 N174 1.613 . S
S173 N175 1.610 . S
N174 S173 1.613 . S
N174 C177 1.350 . S
N175 S173 1.610 . S
N175 C176 1.351 . S
C176 C170 1.428 . S
C176 N175 1.351 . S
C176 C177 1.434 . S
C177 C168 1.429 1_565 S
C177 N174 1.350 . S
C177 C176 1.434 . S
C178 C179 1.369 . S
C178 C180 1.419 . S
C178 H182 0.930 . S
C179 C178 1.369 . S
C179 C188 1.429 . S
C180 C178 1.419 . S
C180 C181 1.363 . S
C180 H183 0.929 . S
C181 C180 1.363 . S
C181 C187 1.428 . S
H182 C178 0.930 . S
H183 C180 0.929 . S
S184 N185 1.613 . S
S184 N186 1.610 1_455 S
N185 S184 1.613 . S
N185 C188 1.350 . S
N186 S184 1.610 1_655 S
N186 C187 1.351 1_655 S
C187 C181 1.428 . S
C187 N186 1.351 1_455 S
C187 C188 1.434 . S
C188 C179 1.429 . S
C188 N185 1.350 . S
C188 C187 1.434 . S
C189 C190 1.381 . S
C189 C191 1.411 1_565 S
C189 H193 0.926 1_565 S
C190 C189 1.381 . S
C190 C199 1.429 . S
C191 C189 1.411 1_545 S
C191 C192 1.363 . S
C191 H194 0.929 . S
C192 C191 1.363 . S
C192 C198 1.428 1_545 S
H193 C189 0.926 1_545 S
H194 C191 0.929 . S
S195 N196 1.613 . S
S195 N197 1.610 . S
N196 S195 1.613 . S
N196 C199 1.350 . S
N197 S195 1.610 . S
N197 C198 1.351 . S
C198 C192 1.428 1_565 S
C198 N197 1.351 . S
C198 C199 1.434 . S
C199 C190 1.429 . S
C199 N196 1.350 . S
C199 C198 1.434 . S
C200 C201 1.369 1_655 S
C200 C202 1.419 . S
C200 H204 0.930 . S
C201 C200 1.369 1_455 S
C201 C210 1.429 . S
C202 C200 1.419 . S
C202 C203 1.363 . S
C202 H205 0.929 . S
C203 C202 1.363 . S
C203 C209 1.428 1_655 S
H204 C200 0.930 . S
H205 C202 0.929 . S
S206 N207 1.613 . S
S206 N208 1.610 . S
N207 S206 1.613 . S
N207 C210 1.350 . S
N208 S206 1.610 . S
N208 C209 1.351 . S
C209 C203 1.428 1_455 S
C209 N208 1.351 . S
C209 C210 1.434 . S
C210 C201 1.429 . S
C210 N207 1.350 . S
C210 C209 1.434 . S
C211 C212 1.369 . S
C211 C213 1.419 . S
C211 H215 0.930 . S
C212 C211 1.369 . S
C212 C221 1.429 1_565 S
C213 C211 1.419 . S
C213 C214 1.363 1_565 S
C213 H216 0.929 . S
C214 C213 1.363 1_545 S
C214 C220 1.428 . S
H215 C211 0.930 . S
H216 C213 0.929 . S
S217 N218 1.613 . S
S217 N219 1.610 . S
N218 S217 1.613 . S
N218 C221 1.350 . S
N219 S217 1.610 . S
N219 C220 1.351 . S
C220 C214 1.428 . S
C220 N219 1.351 . S
C220 C221 1.434 . S
C221 C212 1.429 1_545 S
C221 N218 1.350 . S
C221 C220 1.434 . S
C222 C223 1.369 . S
C222 C224 1.419 1_554 S
C222 H226 0.930 . S
C223 C222 1.369 . S
C223 C232 1.429 . S
C224 C222 1.419 1_556 S
C224 C225 1.363 . S
C224 H227 0.929 . S
C225 C224 1.363 . S
C225 C231 1.428 . S
H226 C222 0.930 . S
H227 C224 0.929 . S
S228 N229 1.613 . S
S228 N230 1.610 1_554 S
N229 S228 1.613 . S
N229 C232 1.350 . S
N230 S228 1.610 1_556 S
N230 C231 1.351 . S
C231 C225 1.428 . S
C231 N230 1.351 . S
C231 C232 1.434 1_556 S
C232 C223 1.429 . S
C232 N229 1.350 . S
C232 C231 1.434 1_554 S
C233 C234 1.369 1_655 S
C233 C235 1.419 1_566 S
C233 H237 0.930 . S
C234 C233 1.369 1_455 S
C234 C243 1.429 . S
C235 C233 1.419 1_544 S
C235 C236 1.363 . S
C235 H238 0.929 . S
C236 C235 1.363 . S
C236 C242 1.428 1_655 S
H237 C233 0.930 . S
H238 C235 0.929 . S
S239 N240 1.613 1_544 S
S239 N241 1.610 . S
N240 S239 1.613 1_566 S
N240 C243 1.350 . S
N241 S239 1.610 . S
N241 C242 1.351 . S
C242 C236 1.428 1_455 S
C242 N241 1.351 . S
C242 C243 1.434 1_544 S
C243 C234 1.429 . S
C243 N240 1.350 . S
C243 C242 1.434 1_566 S
C244 C245 1.369 . S
C244 C246 1.419 . S
C244 H248 0.930 . S
C245 C244 1.369 . S
C245 C254 1.429 . S
C246 C244 1.419 . S
C246 C247 1.363 . S
C246 H249 0.929 . S
C247 C246 1.363 . S
C247 C253 1.428 . S
H248 C244 0.930 . S
H249 C246 0.929 . S
S250 N251 1.613 . S
S250 N252 1.610 . S
N251 S250 1.613 . S
N251 C254 1.350 . S
N252 S250 1.610 . S
N252 C253 1.351 . S
C253 C247 1.428 . S
C253 N252 1.351 . S
C253 C254 1.434 . S
C254 C245 1.429 . S
C254 N251 1.350 . S
C254 C253 1.434 . S
C255 C256 1.369 . S
C255 C257 1.419 . S
C255 H259 0.930 . S
C256 C255 1.369 . S
C256 C265 1.429 . S
C257 C255 1.419 . S
C257 C258 1.363 . S
C257 H260 0.929 . S
C258 C257 1.363 . S
C258 C264 1.428 . S
H259 C255 0.930 . S
H260 C257 0.929 . S
S261 N262 1.613 . S
S261 N263 1.610 . S
N262 S261 1.613 . S
N262 C265 1.350 . S
N263 S261 1.610 . S
N263 C264 1.351 . S
C264 C258 1.428 . S
C264 N263 1.351 . S
C264 C265 1.434 . S
C265 C256 1.429 . S
C265 N262 1.350 . S
C265 C264 1.434 . S
C266 C267 1.369 . S
C266 C268 1.419 . S
C266 H270 0.930 . S
C267 C266 1.369 . S
C267 C276 1.429 . S
C268 C266 1.419 . S
C268 C269 1.363 . S
C268 H271 0.929 . S
C269 C268 1.363 . S
C269 C275 1.428 . S
H270 C266 0.930 . S
H271 C268 0.929 . S
S272 N273 1.613 . S
S272 N274 1.610 . S
N273 S272 1.613 . S
N273 C276 1.350 . S
N274 S272 1.610 . S
N274 C275 1.351 . S
C275 C269 1.428 . S
C275 N274 1.351 . S
C275 C276 1.434 . S
C276 C267 1.429 . S
C276 N273 1.350 . S
C276 C275 1.434 . S
C277 C278 1.369 . S
C277 C279 1.419 . S
C277 H281 0.930 . S
C278 C277 1.369 . S
C278 C287 1.429 . S
C279 C277 1.419 . S
C279 C280 1.363 . S
C279 H282 0.929 . S
C280 C279 1.363 . S
C280 C286 1.428 . S
H281 C277 0.930 . S
H282 C279 0.929 . S
S283 N284 1.613 . S
S283 N285 1.610 . S
N284 S283 1.613 . S
N284 C287 1.350 . S
N285 S283 1.610 . S
N285 C286 1.351 . S
C286 C280 1.428 . S
C286 N285 1.351 . S
C286 C287 1.434 . S
C287 C278 1.429 . S
C287 N284 1.350 . S
C287 C286 1.434 . S
C113 C8 1.650 . S
C115 C37 1.657 . S
C124 C51 1.656 1_455 S
C126 C22 1.651 . S
C135 C36 1.650 . S
C137 C9 1.657 1_655 S
C146 C50 1.651 . S
C148 C23 1.658 . S
C157 C93 1.658 . S
C159 C64 1.652 . S
C168 C78 1.655 . S
C170 C107 1.659 1_655 S
C179 C92 1.655 . S
C181 C65 1.660 1_455 S
C190 C106 1.653 . S
C192 C79 1.659 . S
C201 C7 1.483 . S
C203 C63 1.490 . S
C212 C21 1.487 . S
C214 C77 1.487 . S
C223 C35 1.487 . S
C225 C91 1.487 . S
C234 C105 1.486 . S
C236 C49 1.488 . S
C245 C6 1.497 . S
C247 C20 1.491 . S
C256 C48 1.489 . S
C258 C34 1.490 . S
C267 C76 1.496 . S
C269 C62 1.491 . S
C278 C90 1.490 . S
C280 C104 1.495 . S
