# Generated by pormake.
# Topology wjp, (5)-cn, num edge types: 1
# Building blocks:
#     Node 0, Type 0, BuildingBlock: BEQFEK_clean_sbu_0, # of connection points: 5
#     Node 1, Type 0, BuildingBlock: BEQFEK_clean_sbu_0, # of connection points: 5
#     Node 2, Type 0, BuildingBlock: BEQFEK_clean_sbu_0, # of connection points: 5
#     Node 3, Type 0, BuildingBlock: BEQFEK_clean_sbu_0, # of connection points: 5
#     Node 4, Type 0, BuildingBlock: BEQFEK_clean_sbu_0, # of connection points: 5
#     Node 5, Type 0, BuildingBlock: BEQFEK_clean_sbu_0, # of connection points: 5
#     Node 6, Type 0, BuildingBlock: BEQFEK_clean_sbu_0, # of connection points: 5
#     Node 7, Type 0, BuildingBlock: BEQFEK_clean_sbu_0, # of connection points: 5
#     Node 8, Type 0, BuildingBlock: BEQFEK_clean_sbu_0, # of connection points: 5
#     Node 9, Type 0, BuildingBlock: BEQFEK_clean_sbu_0, # of connection points: 5
#     Node 10, Type 0, BuildingBlock: BEQFEK_clean_sbu_0, # of connection points: 5
#     Node 11, Type 0, BuildingBlock: BEQFEK_clean_sbu_0, # of connection points: 5
#     Edge 12, Type (0, 0), BuildingBlock: UVAHIK_clean_linker_0, # of connection points: 2
#     Edge 13, Type (0, 0), BuildingBlock: UVAHIK_clean_linker_0, # of connection points: 2
#     Edge 14, Type (0, 0), BuildingBlock: UVAHIK_clean_linker_0, # of connection points: 2
#     Edge 15, Type (0, 0), BuildingBlock: UVAHIK_clean_linker_0, # of connection points: 2
#     Edge 16, Type (0, 0), BuildingBlock: UVAHIK_clean_linker_0, # of connection points: 2
#     Edge 17, Type (0, 0), BuildingBlock: UVAHIK_clean_linker_0, # of connection points: 2
#     Edge 18, Type (0, 0), BuildingBlock: UVAHIK_clean_linker_0, # of connection points: 2
#     Edge 19, Type (0, 0), BuildingBlock: UVAHIK_clean_linker_0, # of connection points: 2
#     Edge 20, Type (0, 0), BuildingBlock: UVAHIK_clean_linker_0, # of connection points: 2
#     Edge 21, Type (0, 0), BuildingBlock: UVAHIK_clean_linker_0, # of connection points: 2
#     Edge 22, Type (0, 0), BuildingBlock: UVAHIK_clean_linker_0, # of connection points: 2
#     Edge 23, Type (0, 0), BuildingBlock: UVAHIK_clean_linker_0, # of connection points: 2
#     Edge 24, Type (0, 0), BuildingBlock: UVAHIK_clean_linker_0, # of connection points: 2
#     Edge 25, Type (0, 0), BuildingBlock: UVAHIK_clean_linker_0, # of connection points: 2
#     Edge 26, Type (0, 0), BuildingBlock: UVAHIK_clean_linker_0, # of connection points: 2
#     Edge 27, Type (0, 0), BuildingBlock: UVAHIK_clean_linker_0, # of connection points: 2
#     Edge 28, Type (0, 0), BuildingBlock: UVAHIK_clean_linker_0, # of connection points: 2
#     Edge 29, Type (0, 0), BuildingBlock: UVAHIK_clean_linker_0, # of connection points: 2
#     Edge 30, Type (0, 0), BuildingBlock: UVAHIK_clean_linker_0, # of connection points: 2
#     Edge 31, Type (0, 0), BuildingBlock: UVAHIK_clean_linker_0, # of connection points: 2
#     Edge 32, Type (0, 0), BuildingBlock: UVAHIK_clean_linker_0, # of connection points: 2
#     Edge 33, Type (0, 0), BuildingBlock: UVAHIK_clean_linker_0, # of connection points: 2
#     Edge 34, Type (0, 0), BuildingBlock: UVAHIK_clean_linker_0, # of connection points: 2
#     Edge 35, Type (0, 0), BuildingBlock: UVAHIK_clean_linker_0, # of connection points: 2
#     Edge 36, Type (0, 0), BuildingBlock: UVAHIK_clean_linker_0, # of connection points: 2
#     Edge 37, Type (0, 0), BuildingBlock: UVAHIK_clean_linker_0, # of connection points: 2
#     Edge 38, Type (0, 0), BuildingBlock: UVAHIK_clean_linker_0, # of connection points: 2
#     Edge 39, Type (0, 0), BuildingBlock: UVAHIK_clean_linker_0, # of connection points: 2
#     Edge 40, Type (0, 0), BuildingBlock: UVAHIK_clean_linker_0, # of connection points: 2
#     Edge 41, Type (0, 0), BuildingBlock: UVAHIK_clean_linker_0, # of connection points: 2
# Relax obj value: 0.461
# Max RMSD: 0.250
# Mean RMSD: 0.250
data_MOF--net-wjp--node1-BEQFEK_clean_sbu_0--edge1-UVAHIK_clean_linker_0
_symmetry_space_group_name_H-M    P1
_symmetry_Int_Tables_number       1
_symmetry_cell_setting            triclinic
loop_
_symmetry_equiv_pos_as_xyz
'x, y, z'
_cell_length_a     51.046147
_cell_length_b     51.055159
_cell_length_c     76.650531
_cell_angle_alpha  90.003645
_cell_angle_beta   89.954239
_cell_angle_gamma 120.01384
loop_
_atom_site_label
_atom_site_type_symbol
_atom_site_fract_x
_atom_site_fract_y
_atom_site_fract_z
_atom_type_partial_charge
Co0 Co 0.28995 0.21878 0.49073 0.0
Co1 Co 0.34076 0.28537 0.48302 0.0
C2 C 0.34941 0.2494 0.51034 0.0
O3 O 0.32329 0.22735 0.50687 0.0
O4 O 0.36009 0.27457 0.50234 0.0
C5 C 0.27212 0.15751 0.49403 0.0
O6 O 0.30165 0.1694 0.49368 0.0
C7 C 0.3984 0.33546 0.46983 0.0
C8 C 0.38342 0.36644 0.45986 0.0
C9 C 0.40819 0.36221 0.46061 0.0
N10 N 0.36909 0.32425 0.474 0.0
N11 N 0.36051 0.34324 0.46834 0.0
C12 C 0.41538 0.31902 0.47294 0.0
H13 H 0.39949 0.29469 0.47549 0.0
H14 H 0.42995 0.32152 0.46158 0.0
H15 H 0.43015 0.3289 0.48452 0.0
C16 C 0.29828 0.21135 0.45333 0.0
N17 N 0.30482 0.22861 0.46773 0.0
N18 N 0.32716 0.25609 0.46434 0.0
C19 C 0.33581 0.2568 0.44755 0.0
C20 C 0.31789 0.22852 0.44013 0.0
C21 C 0.27529 0.17832 0.45264 0.0
H22 H 0.25499 0.17372 0.46028 0.0
H23 H 0.28524 0.16524 0.45825 0.0
H24 H 0.26823 0.17038 0.4391 0.0
O25 O 0.26981 0.24152 0.49748 0.0
O26 O 0.30606 0.28891 0.49269 0.0
H27 H 0.35856 0.304 0.44123 0.0
H28 H 0.35973 0.28026 0.42419 0.0
C29 C 0.3606 0.2838 0.43851 0.0
H30 H 0.38273 0.28778 0.44333 0.0
H31 H 0.33852 0.33953 0.46946 0.0
O32 O 0.26105 0.17488 0.49291 0.0
C33 C 0.27932 0.26981 0.49768 0.0
Co34 Co 0.06426 0.27868 0.65797 0.0
Co35 Co 0.05293 0.33252 0.65132 0.0
C36 C 0.09673 0.33693 0.67828 0.0
O37 O 0.09086 0.31028 0.67463 0.0
O38 O 0.08366 0.34929 0.67049 0.0
C39 C 0.10135 0.25296 0.66331 0.0
O40 O 0.12165 0.28137 0.66625 0.0
C41 C 0.06532 0.39243 0.63958 0.0
C42 C 0.01902 0.38416 0.63502 0.0
C43 C 0.04926 0.40617 0.63402 0.0
N44 N 0.04539 0.36348 0.64355 0.0
N45 N 0.01778 0.35874 0.64088 0.0
C46 C 0.09876 0.40686 0.64223 0.0
H47 H 0.10542 0.38937 0.64381 0.0
H48 H 0.11131 0.42191 0.63116 0.0
H49 H 0.10512 0.42097 0.65419 0.0
C50 C 0.08199 0.28884 0.62093 0.0
N51 N 0.07092 0.29505 0.63529 0.0
N52 N 0.06675 0.31807 0.63217 0.0
C53 C 0.07515 0.3272 0.61551 0.0
C54 C 0.08515 0.30905 0.60789 0.0
C55 C 0.09248 0.26619 0.62048 0.0
H56 H 0.07436 0.24418 0.62556 0.0
H57 H 0.11258 0.27419 0.629 0.0
H58 H 0.09885 0.26284 0.60721 0.0
O59 O 0.02148 0.26104 0.66466 0.0
O60 O 0.01356 0.29956 0.66075 0.0
H61 H 0.07479 0.35124 0.59243 0.0
H62 H 0.09339 0.37445 0.6111 0.0
C63 C 0.0738 0.35274 0.60684 0.0
H64 H 0.05264 0.35239 0.61051 0.0
H65 H 0.99807 0.33804 0.64291 0.0
O66 O 0.07458 0.24624 0.65925 0.0
C67 C 0.00417 0.27226 0.66527 0.0
Co68 Co 0.77555 0.05598 0.822 0.0
Co69 Co 0.71248 0.05073 0.81778 0.0
C70 C 0.7542 0.09051 0.84482 0.0
O71 O 0.77241 0.08179 0.84003 0.0
O72 O 0.72871 0.08058 0.83736 0.0
C73 C 0.83643 0.09562 0.82362 0.0
O74 O 0.82521 0.11369 0.82185 0.0
C75 C 0.66722 0.06773 0.80899 0.0
C76 C 0.62821 0.02369 0.80134 0.0
C77 C 0.63783 0.05423 0.80274 0.0
N78 N 0.67468 0.04612 0.81099 0.0
N79 N 0.65121 0.01983 0.80655 0.0
C80 C 0.68739 0.10008 0.81411 0.0
H81 H 0.71139 0.10704 0.81152 0.0
H82 H 0.68127 0.11543 0.80734 0.0
H83 H 0.68505 0.10222 0.82836 0.0
C84 C 0.78147 0.07427 0.78496 0.0
N85 N 0.76552 0.06468 0.79989 0.0
N86 N 0.73958 0.06407 0.79805 0.0
C87 C 0.73867 0.07407 0.78183 0.0
C88 C 0.76521 0.08097 0.77307 0.0
C89 C 0.8128 0.07925 0.78265 0.0
H90 H 0.81575 0.06277 0.79056 0.0
H91 H 0.82945 0.10253 0.78688 0.0
H92 H 0.81762 0.07682 0.76886 0.0
O93 O 0.74924 0.0132 0.82775 0.0
O94 O 0.70422 0.00986 0.82608 0.0
H95 H 0.69126 0.05629 0.77755 0.0
H96 H 0.71519 0.08058 0.76031 0.0
C97 C 0.71303 0.07701 0.77464 0.0
H98 H 0.71295 0.09661 0.78079 0.0
H99 H 0.65109 -0.00067 0.80677 0.0
O100 O 0.81854 0.0672 0.82321 0.0
C101 C 0.72056 0.99794 0.82914 0.0
Co102 Co 0.72061 0.77813 0.98171 0.0
Co103 Co 0.66364 0.71401 0.98058 0.0
C104 C 0.66939 0.75624 0.00826 0.0
O105 O 0.69533 0.77441 0.00203 0.0
O106 O 0.65241 0.73082 0.00101 0.0
C107 C 0.7409 0.83897 0.98377 0.0
O108 O 0.7114 0.82735 0.98429 0.0
C109 C 0.60107 0.66633 0.97422 0.0
C110 C 0.60725 0.62777 0.96719 0.0
C111 C 0.5856 0.6364 0.9688 0.0
N112 N 0.63057 0.67501 0.97552 0.0
N113 N 0.63406 0.65178 0.97151 0.0
C114 C 0.58817 0.68601 0.97905 0.0
H115 H 0.60538 0.71022 0.97726 0.0
H116 H 0.56759 0.68031 0.97142 0.0
H117 H 0.58177 0.6824 0.99305 0.0
C118 C 0.70108 0.78135 0.94598 0.0
N119 N 0.69776 0.7664 0.96101 0.0
N120 N 0.67306 0.73966 0.96032 0.0
C121 C 0.65958 0.73712 0.94471 0.0
C122 C 0.67684 0.76345 0.93519 0.0
C123 C 0.7259 0.81309 0.94259 0.0
H124 H 0.74722 0.81695 0.94867 0.0
H125 H 0.71954 0.82907 0.94833 0.0
H126 H 0.72985 0.81805 0.92847 0.0
O127 O 0.73959 0.75364 0.98539 0.0
O128 O 0.69871 0.70798 0.987 0.0
H129 H 0.63141 0.68911 0.9419 0.0
H130 H 0.62798 0.71086 0.92439 0.0
C131 C 0.63099 0.71004 0.93869 0.0
H132 H 0.61145 0.7095 0.94533 0.0
H133 H 0.65489 0.65255 0.97129 0.0
O134 O 0.75153 0.8214 0.98159 0.0
C135 C 0.72736 0.72529 0.98785 0.0
Co136 Co 0.93478 0.71979 0.14765 0.0
Co137 Co 0.94782 0.66636 0.14465 0.0
C138 C 0.90296 0.6631 0.17004 0.0
O139 O 0.9089 0.68913 0.16487 0.0
O140 O 0.91641 0.65 0.1636 0.0
C141 C 0.89221 0.73835 0.1482 0.0
O142 O 0.8746 0.70888 0.14705 0.0
C143 C 0.93958 0.60704 0.1346 0.0
C144 C 0.9862 0.62012 0.12671 0.0
C145 C 0.9568 0.59596 0.12698 0.0
N146 N 0.95796 0.63652 0.13824 0.0
N147 N 0.98588 0.64394 0.13391 0.0
C148 C 0.90591 0.59107 0.13659 0.0
H149 H 0.89798 0.60761 0.13806 0.0
H150 H 0.89466 0.57617 0.12522 0.0
H151 H 0.89942 0.57671 0.14845 0.0
C152 C 0.92073 0.7071 0.11038 0.0
N153 N 0.93001 0.70176 0.1257 0.0
N154 N 0.93401 0.67827 0.12416 0.0
C155 C 0.92672 0.66772 0.10761 0.0
C156 C 0.91806 0.6856 0.09848 0.0
C157 C 0.91285 0.73133 0.10741 0.0
H158 H 0.92839 0.75192 0.11487 0.0
H159 H 0.88933 0.7231 0.11187 0.0
H160 H 0.9142 0.73717 0.09338 0.0
O161 O 0.97719 0.73978 0.15479 0.0
O162 O 0.98619 0.70151 0.15401 0.0
H163 H 0.9493 0.64221 0.10429 0.0
H164 H 0.92659 0.64075 0.08589 0.0
C165 C 0.92796 0.64119 0.10035 0.0
H166 H 0.90854 0.62009 0.1054 0.0
H167 H 0.00446 0.66577 0.13493 0.0
O168 O 0.9207 0.74944 0.14783 0.0
C169 C 0.99486 0.72925 0.15701 0.0
Co170 Co 0.21107 0.93295 0.32294 0.0
Co171 Co 0.27484 0.93946 0.31844 0.0
C172 C 0.23083 0.89532 0.34364 0.0
O173 O 0.21224 0.9039 0.33937 0.0
O174 O 0.25703 0.90718 0.33676 0.0
C175 C 0.1477 0.89778 0.32453 0.0
O176 O 0.1543 0.87599 0.32437 0.0
C177 C 0.32046 0.92352 0.30795 0.0
C178 C 0.36018 0.9687 0.30315 0.0
C179 C 0.35033 0.93806 0.30237 0.0
N180 N 0.31298 0.9447 0.31163 0.0
N181 N 0.33688 0.97164 0.30889 0.0
C182 C 0.2998 0.89035 0.31082 0.0
H183 H 0.27582 0.88465 0.30996 0.0
H184 H 0.30426 0.8766 0.3014 0.0
H185 H 0.30374 0.88449 0.32413 0.0
C186 C 0.20698 0.91916 0.28536 0.0
N187 N 0.22235 0.9272 0.3005 0.0
N188 N 0.2487 0.92874 0.29838 0.0
C189 C 0.25055 0.92116 0.28168 0.0
C190 C 0.22421 0.91485 0.27298 0.0
C191 C 0.17532 0.91326 0.28322 0.0
H192 H 0.17262 0.93075 0.29023 0.0
H193 H 0.15935 0.8908 0.28884 0.0
H194 H 0.1694 0.91318 0.26931 0.0
O195 O 0.23767 0.97461 0.33065 0.0
O196 O 0.28317 0.9794 0.32829 0.0
H197 H 0.29825 0.94 0.27789 0.0
H198 H 0.27535 0.91853 0.25956 0.0
C199 C 0.27676 0.91974 0.27401 0.0
H200 H 0.27665 0.89928 0.2789 0.0
H201 H 0.33711 0.99203 0.31061 0.0
O202 O 0.16901 0.92505 0.32344 0.0
C203 C 0.26625 0.99029 0.33222 0.0
Co204 Co 0.77814 0.72873 0.34896 0.0
Co205 Co 0.71609 0.66872 0.35044 0.0
C206 C 0.7631 0.67653 0.32463 0.0
O207 O 0.78003 0.70317 0.33043 0.0
O208 O 0.73696 0.65939 0.33116 0.0
C209 C 0.83184 0.77915 0.33719 0.0
O210 O 0.81667 0.77186 0.32245 0.0
C211 C 0.67178 0.60505 0.3585 0.0
C212 C 0.63025 0.60774 0.36226 0.0
C213 C 0.64142 0.58803 0.36303 0.0
N214 N 0.67822 0.63361 0.35543 0.0
N215 N 0.65322 0.63495 0.35752 0.0
C216 C 0.69393 0.59426 0.35607 0.0
H217 H 0.71743 0.61368 0.35589 0.0
H218 H 0.69156 0.5781 0.36643 0.0
H219 H 0.68932 0.58223 0.3434 0.0
C220 C 0.78181 0.71281 0.38516 0.0
N221 N 0.7666 0.7074 0.37007 0.0
N222 N 0.74064 0.6819 0.37121 0.0
C223 C 0.73858 0.67034 0.38739 0.0
C224 C 0.76458 0.68957 0.39668 0.0
C225 C 0.81352 0.7383 0.38771 0.0
H226 H 0.82831 0.73719 0.37747 0.0
H227 H 0.82274 0.73758 0.40068 0.0
H228 H 0.81396 0.76013 0.38621 0.0
O229 O 0.7504 0.74301 0.34253 0.0
O230 O 0.70625 0.70031 0.34223 0.0
H231 H 0.69085 0.63967 0.38965 0.0
H232 H 0.71259 0.64084 0.40854 0.0
C233 C 0.71242 0.64164 0.39407 0.0
H234 H 0.71402 0.62217 0.389 0.0
H235 H 0.652 0.65465 0.35611 0.0
O236 O 0.81909 0.76397 0.35083 0.0
C237 C 0.72199 0.72887 0.34 0.0
Co238 Co 0.05866 0.77459 0.50733 0.0
Co239 Co 0.0427 0.70913 0.51778 0.0
C240 C 0.07893 0.73763 0.4863 0.0
O241 O 0.07529 0.76021 0.4888 0.0
O242 O 0.06866 0.71549 0.4969 0.0
C243 C 0.10268 0.8337 0.49829 0.0
O244 O 0.11864 0.82011 0.49659 0.0
C245 C 0.04945 0.65882 0.53128 0.0
C246 C 0.00566 0.63179 0.54479 0.0
C247 C 0.03336 0.63365 0.54191 0.0
N248 N 0.03214 0.67139 0.52834 0.0
N249 N 0.0058 0.65476 0.53616 0.0
C250 C 0.08169 0.67262 0.52548 0.0
H251 H 0.091 0.69679 0.52204 0.0
H252 H 0.09572 0.67058 0.53586 0.0
H253 H 0.08275 0.66045 0.51375 0.0
C254 C 0.08655 0.78834 0.54228 0.0
N255 N 0.0704 0.76856 0.52962 0.0
N256 N 0.06387 0.74117 0.53438 0.0
C257 C 0.07588 0.74287 0.55038 0.0
C258 C 0.091 0.77289 0.55571 0.0
C259 C 0.09732 0.82151 0.54171 0.0
H260 H 0.07981 0.82544 0.53575 0.0
H261 H 0.11822 0.83308 0.53374 0.0
H262 H 0.10249 0.83148 0.555 0.0
O263 O 0.0146 0.75358 0.50551 0.0
O264 O 0.00342 0.70618 0.51033 0.0
H265 H 0.0514 0.69714 0.5596 0.0
H266 H 0.08181 0.72248 0.57373 0.0
C267 C 0.07469 0.71676 0.55995 0.0
H268 H 0.09021 0.71045 0.55359 0.0
H269 H 0.98844 0.65994 0.53627 0.0
O270 O 0.07516 0.81824 0.50295 0.0
C271 C 0.99542 0.72549 0.50646 0.0
Co272 Co 0.28635 0.06492 0.6765 0.0
Co273 Co 0.33941 0.0528 0.68341 0.0
C274 C 0.34532 0.10025 0.65801 0.0
O275 O 0.31868 0.09477 0.66148 0.0
O276 O 0.3565 0.08538 0.66505 0.0
C277 C 0.24058 0.07393 0.66166 0.0
O278 O 0.25129 0.07006 0.64689 0.0
C279 C 0.39856 0.06579 0.6968 0.0
C280 C 0.3889 0.01983 0.70386 0.0
C281 C 0.4109 0.05011 0.70489 0.0
N282 N 0.3704 0.04564 0.69155 0.0
N283 N 0.36504 0.01819 0.69544 0.0
C284 C 0.41174 0.09934 0.69581 0.0
H285 H 0.39366 0.10506 0.69378 0.0
H286 H 0.42459 0.11039 0.70786 0.0
H287 H 0.42764 0.10821 0.68462 0.0
C288 C 0.29298 0.07841 0.71381 0.0
N289 N 0.30066 0.06892 0.69936 0.0
N290 N 0.32327 0.06428 0.70281 0.0
C291 C 0.33047 0.07056 0.7199 0.0
C292 C 0.31153 0.0797 0.72732 0.0
C293 C 0.27024 0.08879 0.71411 0.0
H294 H 0.2759 0.10609 0.70381 0.0
H295 H 0.26949 0.09855 0.72689 0.0
H296 H 0.24752 0.06932 0.71116 0.0
O297 O 0.27068 0.02364 0.6679 0.0
O298 O 0.30757 0.01377 0.673 0.0
H299 H 0.35504 0.04737 0.72478 0.0
H300 H 0.35116 0.06664 0.74352 0.0
C301 C 0.35475 0.06788 0.72919 0.0
H302 H 0.37694 0.08808 0.72634 0.0
H303 H 0.34446 0.99845 0.69322 0.0
O304 O 0.25245 0.07267 0.67594 0.0
C305 C 0.28111 0.00568 0.66738 0.0
Co306 Co 0.21712 0.27986 0.84875 0.0
Co307 Co 0.28408 0.331 0.85384 0.0
C308 C 0.24516 0.33712 0.82728 0.0
O309 O 0.22351 0.31138 0.83176 0.0
O310 O 0.27108 0.34841 0.83446 0.0
C311 C 0.15546 0.26035 0.84705 0.0
O312 O 0.16648 0.28977 0.84699 0.0
C313 C 0.334 0.38971 0.86524 0.0
C314 C 0.3675 0.37693 0.87363 0.0
C315 C 0.36184 0.40081 0.87342 0.0
N316 N 0.32356 0.36051 0.8612 0.0
N317 N 0.34402 0.35324 0.86585 0.0
C318 C 0.31593 0.40526 0.86309 0.0
H319 H 0.2916 0.38846 0.86132 0.0
H320 H 0.31887 0.4198 0.87453 0.0
H321 H 0.32407 0.41991 0.85135 0.0
C322 C 0.21305 0.29114 0.88603 0.0
N323 N 0.22891 0.29669 0.87112 0.0
N324 N 0.25678 0.31901 0.87359 0.0
C325 C 0.25914 0.32853 0.89033 0.0
C326 C 0.23153 0.31125 0.8986 0.0
C327 C 0.1803 0.2679 0.88806 0.0
H328 H 0.17524 0.24695 0.881 0.0
H329 H 0.1663 0.2769 0.88254 0.0
H330 H 0.17402 0.26235 0.90197 0.0
O331 O 0.23937 0.25942 0.84204 0.0
O332 O 0.28728 0.29574 0.84476 0.0
H333 H 0.30701 0.35141 0.89473 0.0
H334 H 0.28516 0.35214 0.91306 0.0
C335 C 0.28711 0.35325 0.89862 0.0
H336 H 0.2904 0.37541 0.89435 0.0
H337 H 0.34116 0.3316 0.86463 0.0
O338 O 0.17354 0.25014 0.84803 0.0
C339 C 0.2675 0.26859 0.84092 0.0
Co340 Co 0.93799 0.21589 0.01835 0.0
Co341 Co 0.94794 0.28108 0.02059 0.0
C342 C 0.90513 0.23789 0.99484 0.0
O343 O 0.91205 0.21861 1.00024 0.0
O344 O 0.91727 0.26428 0.00143 0.0
C345 C 0.89776 0.15429 0.01854 0.0
O346 O 0.87904 0.16492 0.01898 0.0
C347 C 0.93438 0.32925 0.02817 0.0
C348 C 0.97967 0.36739 0.03471 0.0
C349 C 0.9494 0.35909 0.03373 0.0
N350 N 0.95486 0.32026 0.0262 0.0
N351 N 0.98191 0.34323 0.02994 0.0
C352 C 0.90154 0.30992 0.02378 0.0
H353 H 0.89383 0.28581 0.02658 0.0
H354 H 0.88731 0.31716 0.03085 0.0
H355 H 0.89862 0.31189 0.00958 0.0
C356 C 0.92111 0.21419 0.05536 0.0
N357 N 0.93124 0.2288 0.04006 0.0
N358 N 0.93391 0.25577 0.04113 0.0
C359 C 0.92469 0.25871 0.05722 0.0
C360 C 0.91618 0.23244 0.06669 0.0
C361 C 0.91382 0.18228 0.05855 0.0
H362 H 0.92976 0.17755 0.05129 0.0
H363 H 0.89039 0.16655 0.05413 0.0
H364 H 0.91522 0.1779 0.07256 0.0
O365 O 0.98065 0.23981 0.01194 0.0
O366 O 0.98781 0.28644 0.01218 0.0
H367 H 0.94492 0.30674 0.06006 0.0
H368 H 0.92078 0.28515 0.07799 0.0
C369 C 0.9237 0.28589 0.06361 0.0
H370 H 0.90438 0.28652 0.0575 0.0
H371 H 0.00182 0.34219 0.02964 0.0
O372 O 0.92604 0.17276 0.01872 0.0
C373 C 0.99763 0.26813 0.00974 0.0
Co374 Co 0.71096 0.93655 0.18017 0.0
Co375 Co 0.65583 0.94673 0.18435 0.0
C376 C 0.65348 0.90288 0.1586 0.0
O377 O 0.68003 0.90981 0.16328 0.0
O378 O 0.63977 0.91542 0.16542 0.0
C379 C 0.73124 0.89538 0.17948 0.0
O380 O 0.70185 0.87722 0.18065 0.0
C381 C 0.59582 0.93639 0.19497 0.0
C382 C 0.60802 0.98218 0.20404 0.0
C383 C 0.58424 0.95264 0.20325 0.0
N384 N 0.62523 0.95544 0.19145 0.0
N385 N 0.63212 0.98289 0.19648 0.0
C386 C 0.58036 0.90289 0.19227 0.0
H387 H 0.5972 0.89545 0.19037 0.0
H388 H 0.5655 0.89076 0.20353 0.0
H389 H 0.56598 0.89696 0.18044 0.0
C390 C 0.69933 0.92118 0.21756 0.0
N391 N 0.69347 0.93086 0.2025 0.0
N392 N 0.66916 0.93337 0.20438 0.0
C393 C 0.65852 0.92463 0.22081 0.0
C394 C 0.67714 0.91646 0.22959 0.0
C395 C 0.72425 0.91409 0.21993 0.0
H396 H 0.74425 0.92979 0.21209 0.0
H397 H 0.71621 0.89052 0.21566 0.0
H398 H 0.73116 0.91599 0.23377 0.0
O399 O 0.72938 0.97904 0.17309 0.0
O400 O 0.68982 0.98588 0.175 0.0
H401 H 0.63099 0.94483 0.22495 0.0
H402 H 0.63019 0.92118 0.24263 0.0
C403 C 0.63099 0.92373 0.22823 0.0
H404 H 0.61055 0.90417 0.22269 0.0
H405 H 0.65377 0.00179 0.19571 0.0
O406 O 0.74165 0.92379 0.17949 0.0
C407 C 0.71765 0.99579 0.17146 0.0
C408 C 0.63537 0.54848 0.38449 0.0
C409 C 0.62433 0.55707 0.37011 0.0
C410 C 0.61653 0.52164 0.39347 0.0
C411 C 0.54125 0.45092 0.39187 0.0
H412 H 0.54108 0.46343 0.44178 0.0
C413 C 0.43464 0.38971 0.43361 0.0
C414 C 0.43632 0.37966 0.4504 0.0
C415 C 0.46073 0.4065 0.42371 0.0
C416 C 0.54118 0.45927 0.42793 0.0
H417 H 0.58547 0.54428 0.35357 0.0
H418 H 0.55251 0.49758 0.36918 0.0
H419 H 0.58214 0.50121 0.42394 0.0
H420 H 0.46667 0.37965 0.47013 0.0
H421 H 0.51271 0.40951 0.45277 0.0
H422 H 0.4994 0.4097 0.39582 0.0
C423 C 0.57581 0.51103 0.37337 0.0
C424 C 0.56476 0.4809 0.41768 0.0
C425 C 0.59461 0.53785 0.36445 0.0
C426 C 0.46471 0.38676 0.45713 0.0
C427 C 0.49101 0.40396 0.44725 0.0
C428 C 0.51763 0.42938 0.40211 0.0
C429 C 0.58625 0.50304 0.38831 0.0
C430 C 0.56452 0.47748 0.39945 0.0
C431 C 0.48923 0.41398 0.43043 0.0
C432 C 0.51683 0.43385 0.42016 0.0
H433 H 0.65781 0.56344 0.38955 0.0
H434 H 0.62528 0.51608 0.40488 0.0
H435 H 0.54069 0.44731 0.37792 0.0
H436 H 0.41304 0.3845 0.42807 0.0
H437 H 0.45864 0.41434 0.41093 0.0
C438 C 0.08036 0.44649 0.61239 0.0
C439 C 0.06059 0.43662 0.62674 0.0
C440 C 0.08697 0.47315 0.60366 0.0
C441 C 0.08071 0.54232 0.60667 0.0
H442 H 0.06465 0.53068 0.55699 0.0
C443 C 0.03467 0.60632 0.56841 0.0
C444 C 0.0442 0.61549 0.55119 0.0
C445 C 0.04422 0.58898 0.5775 0.0
C446 C 0.06989 0.53465 0.57076 0.0
H447 H 0.03272 0.44678 0.64349 0.0
H448 H 0.04434 0.49346 0.62838 0.0
H449 H 0.06928 0.49269 0.57381 0.0
H450 H 0.0707 0.61304 0.5298 0.0
H451 H 0.08775 0.5828 0.54581 0.0
H452 H 0.08024 0.58375 0.60375 0.0
C453 C 0.05515 0.481 0.62399 0.0
C454 C 0.07256 0.51287 0.5804 0.0
C455 C 0.04836 0.45425 0.63259 0.0
C456 C 0.06349 0.60685 0.54318 0.0
C457 C 0.07301 0.58932 0.55229 0.0
C458 C 0.07815 0.56413 0.59703 0.0
C459 C 0.07392 0.49034 0.60917 0.0
C460 C 0.07694 0.516 0.59856 0.0
C461 C 0.06344 0.58019 0.56956 0.0
C462 C 0.0716 0.55998 0.57909 0.0
H463 H 0.08928 0.43274 0.60729 0.0
H464 H 0.10146 0.4798 0.59226 0.0
H465 H 0.08459 0.54554 0.6206 0.0
H466 H 0.01979 0.61261 0.57494 0.0
H467 H 0.03587 0.58181 0.59064 0.0
C468 C 0.46604 0.08663 0.71038 0.0
C469 C 0.43824 0.06221 0.71586 0.0
C470 C 0.49181 0.09683 0.72086 0.0
C471 C 0.51614 0.09339 0.76593 0.0
H472 H 0.5846 0.09345 0.74399 0.0
C473 C 0.59006 0.05566 0.80076 0.0
C474 C 0.62067 0.06841 0.79635 0.0
C475 C 0.57205 0.06532 0.7925 0.0
C476 C 0.56609 0.09436 0.75032 0.0
H477 H 0.41525 0.02987 0.73663 0.0
H478 H 0.45992 0.04755 0.75482 0.0
H479 H 0.54447 0.09163 0.72592 0.0
H480 H 0.65666 0.10119 0.77985 0.0
H481 H 0.62526 0.11854 0.76553 0.0
H482 H 0.53699 0.09461 0.79036 0.0
C483 C 0.46195 0.05903 0.74258 0.0
C484 C 0.54308 0.09329 0.73994 0.0
C485 C 0.43646 0.04864 0.73206 0.0
C486 C 0.63331 0.09169 0.78389 0.0
C487 C 0.61525 0.1013 0.77553 0.0
C488 C 0.53915 0.09455 0.7763 0.0
C489 C 0.48997 0.08303 0.73705 0.0
C490 C 0.51727 0.09142 0.74768 0.0
C491 C 0.58424 0.08768 0.77944 0.0
C492 C 0.5637 0.09367 0.76862 0.0
H493 H 0.46801 0.09725 0.69785 0.0
H494 H 0.51319 0.11528 0.71628 0.0
H495 H 0.4967 0.09252 0.77222 0.0
H496 H 0.57978 0.03737 0.81015 0.0
H497 H 0.54815 0.05395 0.7956 0.0
C498 C 0.53716 0.58771 0.9677 0.0
C499 C 0.55418 0.61812 0.9627 0.0
C500 C 0.50981 0.56841 0.95943 0.0
C501 C 0.47539 0.55875 0.91669 0.0
H502 H 0.40829 0.48953 0.939 0.0
C503 C 0.3835 0.45685 0.87749 0.0
C504 C 0.3788 0.42891 0.88366 0.0
C505 C 0.39976 0.48308 0.88754 0.0
C506 C 0.42679 0.50884 0.93259 0.0
H507 H 0.55615 0.65242 0.94522 0.0
H508 H 0.50795 0.6188 0.93094 0.0
H509 H 0.4456 0.53105 0.95686 0.0
H510 H 0.38706 0.40635 0.90513 0.0
H511 H 0.41543 0.45182 0.9225 0.0
H512 H 0.45732 0.53588 0.89247 0.0
C513 C 0.51559 0.60992 0.94137 0.0
C514 C 0.44812 0.53259 0.9428 0.0
C515 C 0.54292 0.62928 0.94973 0.0
C516 C 0.39042 0.4276 0.90001 0.0
C517 C 0.40633 0.45359 0.91007 0.0
C518 C 0.45401 0.53499 0.90647 0.0
C519 C 0.49917 0.57908 0.94581 0.0
C520 C 0.47329 0.55724 0.935 0.0
C521 C 0.41128 0.48164 0.90396 0.0
C522 C 0.43019 0.50927 0.91437 0.0
H523 H 0.54569 0.57856 0.97748 0.0
H524 H 0.49801 0.54469 0.96298 0.0
H525 H 0.49465 0.57729 0.91027 0.0
H526 H 0.37512 0.45854 0.86482 0.0
H527 H 0.40338 0.50444 0.88248 0.0
C528 C 0.91454 0.36666 0.05324 0.0
C529 C 0.93683 0.3777 0.04018 0.0
C530 C 0.90656 0.38606 0.06156 0.0
C531 C 0.91513 0.4627 0.05928 0.0
H532 H 0.92049 0.46101 0.10971 0.0
C533 C 0.95964 0.56867 0.10091 0.0
C534 C 0.94627 0.56759 0.1171 0.0
C535 C 0.95027 0.54244 0.09119 0.0
C536 C 0.91822 0.46142 0.09568 0.0
H537 H 0.9679 0.41717 0.0253 0.0
H538 H 0.95406 0.45112 0.03972 0.0
H539 H 0.91775 0.41957 0.09246 0.0
H540 H 0.91288 0.53814 0.13598 0.0
H541 H 0.89652 0.49178 0.11892 0.0
H542 H 0.9171 0.50529 0.06247 0.0
C543 C 0.94223 0.42744 0.04336 0.0
C544 C 0.91663 0.43767 0.08578 0.0
C545 C 0.95031 0.40811 0.03516 0.0
C546 C 0.92329 0.53963 0.12343 0.0
C547 C 0.91406 0.51316 0.11373 0.0
C548 C 0.91674 0.48643 0.06916 0.0
C549 C 0.92083 0.41683 0.05696 0.0
C550 C 0.91623 0.43864 0.06744 0.0
C551 C 0.92747 0.51438 0.09748 0.0
C552 C 0.91951 0.48659 0.08741 0.0
H553 H 0.90455 0.34351 0.05775 0.0
H554 H 0.89002 0.37725 0.07198 0.0
H555 H 0.91426 0.46379 0.04519 0.0
H556 H 0.97734 0.58992 0.09566 0.0
H557 H 0.96148 0.54407 0.07889 0.0
C558 C 0.55693 0.95237 0.23008 0.0
C559 C 0.55588 0.94088 0.21331 0.0
C560 C 0.53067 0.94187 0.23996 0.0
C561 C 0.45002 0.91127 0.23595 0.0
H562 H 0.45173 0.90007 0.28591 0.0
C563 C 0.35643 0.90507 0.2806 0.0
C564 C 0.36791 0.92521 0.29473 0.0
C565 C 0.3752 0.89736 0.2713 0.0
C566 C 0.45081 0.90298 0.27197 0.0
H567 H 0.52655 0.90959 0.19358 0.0
H568 H 0.48005 0.89138 0.2109 0.0
H569 H 0.49301 0.90452 0.2677 0.0
H570 H 0.40751 0.95264 0.31048 0.0
H571 H 0.44034 0.93934 0.29434 0.0
H572 H 0.40871 0.91145 0.2403 0.0
C573 C 0.50144 0.90828 0.21641 0.0
C574 C 0.4744 0.90547 0.26155 0.0
C575 C 0.52796 0.91858 0.20656 0.0
C576 C 0.39807 0.93669 0.29979 0.0
C577 C 0.41678 0.92891 0.29059 0.0
C578 C 0.42644 0.90888 0.24639 0.0
C579 C 0.50262 0.91984 0.23324 0.0
C580 C 0.47481 0.91083 0.24354 0.0
C581 C 0.40579 0.90978 0.27595 0.0
C582 C 0.4272 0.90589 0.2646 0.0
H583 H 0.57817 0.96947 0.23565 0.0
H584 H 0.53224 0.95162 0.25274 0.0
H585 H 0.44983 0.91556 0.22212 0.0
H586 H 0.33353 0.89676 0.27605 0.0
H587 H 0.36609 0.88258 0.2601 0.0
C588 C 0.14831 0.88384 0.49226 0.0
C589 C 0.1173 0.86681 0.49611 0.0
C590 C 0.1626 0.91524 0.49085 0.0
C591 C 0.15546 0.98056 0.50437 0.0
H592 H 0.21882 0.02239 0.46999 0.0
C593 C 0.22068 0.11109 0.4953 0.0
C594 C 0.25229 0.12432 0.49409 0.0
C595 C 0.20212 0.07963 0.49482 0.0
C596 C 0.20124 0.011 0.47969 0.0
H597 H 0.07681 0.86932 0.50129 0.0
H598 H 0.10178 0.92429 0.49858 0.0
H599 H 0.18967 0.96731 0.46994 0.0
H600 H 0.28919 0.11498 0.49153 0.0
H601 H 0.25684 0.06029 0.49067 0.0
H602 H 0.16728 0.02446 0.51413 0.0
C603 C 0.11509 0.91332 0.49688 0.0
C604 C 0.18459 0.97948 0.4797 0.0
C605 C 0.10076 0.88183 0.49833 0.0
C606 C 0.26494 0.10552 0.49248 0.0
C607 C 0.24641 0.07419 0.49186 0.0
C608 C 0.17204 0.01217 0.5043 0.0
C609 C 0.14621 0.93037 0.4932 0.0
C610 C 0.16192 0.96387 0.49225 0.0
C611 C 0.21484 0.06093 0.49294 0.0
C612 C 0.19548 0.02763 0.49217 0.0
H613 H 0.16174 0.87299 0.49056 0.0
H614 H 0.1867 0.92771 0.48831 0.0
H615 H 0.13835 0.96922 0.51432 0.0
H616 H 0.21028 0.12501 0.49654 0.0
H617 H 0.17782 0.06995 0.49562 0.0
C618 C 0.13943 0.23708 0.66903 0.0
C619 C 0.11 0.22941 0.66403 0.0
C620 C 0.14796 0.21511 0.6696 0.0
C621 C 0.1299 0.14154 0.65173 0.0
H622 H 0.18216 0.14444 0.68926 0.0
C623 C 0.20259 0.08208 0.67751 0.0
C624 C 0.21691 0.08242 0.66179 0.0
C625 C 0.18299 0.09362 0.6782 0.0
C626 C 0.16712 0.14283 0.67884 0.0
H627 H 0.06637 0.19268 0.65567 0.0
H628 H 0.08138 0.15411 0.65673 0.0
H629 H 0.1604 0.17717 0.69028 0.0
H630 H 0.22056 0.09336 0.63424 0.0
H631 H 0.187 0.11439 0.63553 0.0
H632 H 0.13688 0.10725 0.64023 0.0
C633 C 0.09781 0.17722 0.66013 0.0
C634 C 0.15499 0.16192 0.67932 0.0
C635 C 0.08922 0.19926 0.6596 0.0
C636 C 0.20991 0.09291 0.64655 0.0
C637 C 0.1905 0.10476 0.64728 0.0
C638 C 0.14203 0.12233 0.65125 0.0
C639 C 0.12726 0.18496 0.66518 0.0
C640 C 0.13692 0.16205 0.66557 0.0
C641 C 0.17756 0.10607 0.66323 0.0
C642 C 0.16132 0.12327 0.66463 0.0
H643 H 0.15601 0.26012 0.67246 0.0
H644 H 0.17099 0.22186 0.67323 0.0
H645 H 0.11608 0.14121 0.64092 0.0
H646 H 0.20717 0.07366 0.68942 0.0
H647 H 0.17284 0.0937 0.6906 0.0
C648 C 0.1104 0.20813 0.84565 0.0
C649 C 0.12249 0.23961 0.84663 0.0
C650 C 0.07911 0.1887 0.84501 0.0
C651 C 0.00699 0.18563 0.85485 0.0
H652 H 0.97337 0.12432 0.8187 0.0
C653 C 0.88736 0.13979 0.82936 0.0
C654 C 0.86906 0.1085 0.82681 0.0
C655 C 0.9179 0.15228 0.83326 0.0
C656 C 0.98245 0.14098 0.82905 0.0
H657 H 0.11134 0.27539 0.84786 0.0
H658 H 0.05695 0.24159 0.84666 0.0
H659 H 0.02814 0.15278 0.82328 0.0
H660 H 0.8685 0.06574 0.82601 0.0
H661 H 0.92244 0.08787 0.83273 0.0
H662 H 0.96152 0.17458 0.86027 0.0
C663 C 0.07157 0.23188 0.84658 0.0
C664 C 0.01373 0.15723 0.83167 0.0
C665 C 0.10275 0.25125 0.84713 0.0
C666 C 0.88209 0.08995 0.82793 0.0
C667 C 0.91288 0.10256 0.83175 0.0
C668 C 0.97584 0.16947 0.85221 0.0
C669 C 0.05943 0.20043 0.84548 0.0
C670 C 0.0263 0.18032 0.84426 0.0
C671 C 0.93091 0.13381 0.83466 0.0
C672 C 0.96337 0.14764 0.83896 0.0
H673 H 0.12509 0.1985 0.84527 0.0
H674 H 0.0703 0.16453 0.84424 0.0
H675 H 0.01605 0.20286 0.86489 0.0
H676 H 0.87806 0.15473 0.82855 0.0
H677 H 0.93143 0.17653 0.83511 0.0
C678 C 0.79265 0.88439 0.9871 0.0
C679 C 0.76102 0.87148 0.98716 0.0
C680 C 0.8113 0.91471 0.99178 0.0
C681 C 0.80946 0.9744 0.01731 0.0
H682 H 0.87667 0.03084 0.98854 0.0
C683 C 0.85463 0.10141 0.01917 0.0
C684 C 0.88587 0.12141 0.01769 0.0
C685 C 0.8429 0.07038 0.01745 0.0
C686 C 0.85836 0.01523 0.9969 0.0
H687 H 0.72417 0.88039 0.99161 0.0
H688 H 0.7566 0.93301 0.99969 0.0
H689 H 0.84951 0.97704 0.98106 0.0
H690 H 0.92946 0.12463 0.01363 0.0
H691 H 0.90877 0.07005 0.01057 0.0
H692 H 0.81769 0.01246 0.03291 0.0
C693 C 0.76698 0.91966 0.99628 0.0
C694 C 0.84282 0.98451 0.99259 0.0
C695 C 0.74844 0.88958 0.99152 0.0
C696 C 0.90526 0.10971 0.01481 0.0
C697 C 0.89345 0.07856 0.01298 0.0
C698 C 0.82499 0.00498 0.02164 0.0
C699 C 0.79853 0.93238 0.99673 0.0
C700 C 0.81765 0.96404 0.00246 0.0
C701 C 0.86212 0.05864 0.01418 0.0
C702 C 0.84897 0.02582 0.01116 0.0
H703 H 0.80298 0.87098 0.98377 0.0
H704 H 0.83559 0.92408 0.99199 0.0
H705 H 0.79052 0.95892 0.02535 0.0
H706 H 0.8391 0.10971 0.0214 0.0
H707 H 0.8186 0.05563 0.01816 0.0
C708 C 0.73944 0.85125 0.17898 0.0
C709 C 0.75156 0.8827 0.17825 0.0
C710 C 0.75814 0.83883 0.17723 0.0
C711 C 0.83045 0.85401 0.15871 0.0
H712 H 0.81451 0.78372 0.18616 0.0
C713 C 0.89723 0.78948 0.15196 0.0
C714 C 0.87891 0.75783 0.15113 0.0
C715 C 0.88454 0.80749 0.15599 0.0
C716 C 0.81916 0.80331 0.17838 0.0
H717 H 0.79289 0.9259 0.17539 0.0
H718 H 0.82576 0.90402 0.17236 0.0
H719 H 0.78769 0.81078 0.19283 0.0
H720 H 0.8329 0.72033 0.15341 0.0
H721 H 0.81092 0.75169 0.1604 0.0
H722 H 0.86168 0.8461 0.14411 0.0
C723 C 0.80168 0.88906 0.17416 0.0
C724 C 0.80384 0.81878 0.18219 0.0
C725 C 0.78291 0.90155 0.17597 0.0
C726 C 0.84766 0.74462 0.154 0.0
C727 C 0.83508 0.76255 0.15814 0.0
C728 C 0.84593 0.83855 0.15494 0.0
C729 C 0.78943 0.85754 0.17473 0.0
C730 C 0.80869 0.84378 0.1721 0.0
C731 C 0.85342 0.79408 0.1594 0.0
C732 C 0.83978 0.81258 0.16446 0.0
H733 H 0.71538 0.83609 0.1807 0.0
H734 H 0.74793 0.81443 0.17742 0.0
H735 H 0.83452 0.87311 0.15065 0.0
H736 H 0.9214 0.80029 0.14976 0.0
H737 H 0.89913 0.83178 0.15688 0.0
C738 C 0.10852 0.91361 0.32651 0.0
C739 C 0.11597 0.89056 0.3263 0.0
C740 C 0.07852 0.90657 0.32883 0.0
C741 C 0.00575 0.84656 0.34623 0.0
H742 H 0.97006 0.88237 0.31695 0.0
C743 C 0.88045 0.81274 0.3217 0.0
C744 C 0.86453 0.80142 0.3374 0.0
C745 C 0.91201 0.8298 0.32169 0.0
C746 C 0.97975 0.87226 0.32526 0.0
H747 H 0.09778 0.84206 0.32805 0.0
H748 H 0.04561 0.82984 0.33192 0.0
H749 H 0.02381 0.89886 0.31396 0.0
H750 H 0.86894 0.80127 0.36555 0.0
H751 H 0.92397 0.83152 0.36556 0.0
H752 H 0.9617 0.81898 0.35698 0.0
C753 C 0.06295 0.85337 0.33058 0.0
C754 C 0.01055 0.88187 0.32364 0.0
C755 C 0.09284 0.86037 0.32823 0.0
C756 C 0.88061 0.80933 0.35321 0.0
C757 C 0.91214 0.82655 0.35321 0.0
C758 C 0.97507 0.83698 0.34784 0.0
C759 C 0.05549 0.87638 0.33106 0.0
C760 C 0.02367 0.86858 0.33384 0.0
C761 C 0.92823 0.83603 0.33741 0.0
C762 C 0.96156 0.84927 0.33714 0.0
H763 H 0.12588 0.9371 0.32504 0.0
H764 H 0.07343 0.92477 0.32921 0.0
H765 H 0.01535 0.83626 0.35447 0.0
H766 H 0.8687 0.80711 0.3093 0.0
H767 H 0.92369 0.83656 0.30928 0.0
C768 C 0.26159 0.03518 0.34036 0.0
C769 C 0.27964 0.02163 0.33892 0.0
C770 C 0.27325 0.064 0.3475 0.0
C771 C 0.3296 0.11458 0.37869 0.0
H772 H 0.30482 0.1708 0.36232 0.0
C773 C 0.34906 0.21512 0.42114 0.0
C774 C 0.32271 0.21681 0.42356 0.0
C775 C 0.35094 0.1981 0.40741 0.0
C776 C 0.31202 0.1554 0.36704 0.0
H777 H 0.3245 0.02824 0.34342 0.0
H778 H 0.34487 0.07876 0.35615 0.0
H779 H 0.29485 0.12722 0.34441 0.0
H780 H 0.27881 0.20449 0.41298 0.0
H781 H 0.28175 0.1745 0.38908 0.0
H782 H 0.34543 0.1418 0.40167 0.0
C783 C 0.32161 0.06687 0.35171 0.0
C784 C 0.30632 0.13046 0.35678 0.0
C785 C 0.30997 0.038 0.3444 0.0
C786 C 0.29928 0.20333 0.41132 0.0
C787 C 0.30111 0.18632 0.3976 0.0
C788 C 0.33524 0.13948 0.38897 0.0
C789 C 0.30324 0.08004 0.35349 0.0
C790 C 0.31414 0.10923 0.36277 0.0
C791 C 0.32649 0.18254 0.39587 0.0
C792 C 0.32562 0.15964 0.38352 0.0
H793 H 0.23818 0.02334 0.33619 0.0
H794 H 0.25834 0.07326 0.34891 0.0
H795 H 0.33567 0.09852 0.38375 0.0
H796 H 0.3674 0.22542 0.43049 0.0
H797 H 0.37099 0.19604 0.40628 0.0
C798 C 0.22807 0.25981 0.50693 0.0
C799 C 0.25899 0.28049 0.50436 0.0
C800 C 0.20909 0.26915 0.51431 0.0
C801 C 0.17072 0.29722 0.52387 0.0
H802 H 0.19973 0.34128 0.56732 0.0
C803 C 0.12847 0.34056 0.58803 0.0
C804 C 0.10127 0.3136 0.59115 0.0
C805 C 0.14706 0.34256 0.57407 0.0
C806 C 0.19138 0.32964 0.55501 0.0
H807 H 0.29399 0.32751 0.50704 0.0
H808 H 0.26074 0.34377 0.52018 0.0
H809 H 0.23418 0.3337 0.54892 0.0
H810 H 0.07071 0.26864 0.58151 0.0
H811 H 0.10318 0.27168 0.55733 0.0
H812 H 0.12768 0.29245 0.53019 0.0
C813 C 0.2513 0.32029 0.51646 0.0
C814 C 0.21119 0.32523 0.54447 0.0
C815 C 0.2703 0.31098 0.50888 0.0
C816 C 0.09174 0.28958 0.57935 0.0
C817 C 0.11032 0.29147 0.56545 0.0
C818 C 0.15093 0.3018 0.53436 0.0
C819 C 0.22056 0.29937 0.51944 0.0
C820 C 0.20085 0.30817 0.52906 0.0
C821 C 0.13875 0.31758 0.56301 0.0
C822 C 0.16076 0.31725 0.55035 0.0
H823 H 0.21854 0.23618 0.50351 0.0
H824 H 0.18561 0.2524 0.51663 0.0
H825 H 0.16223 0.2844 0.51192 0.0
H826 H 0.1362 0.35942 0.59698 0.0
H827 H 0.16851 0.36322 0.57237 0.0
C828 C 0.78852 0.08791 0.74354 0.0
C829 C 0.77722 0.09848 0.75677 0.0
C830 C 0.80612 0.1072 0.7301 0.0
C831 C 0.85668 0.18886 0.72299 0.0
H832 H 0.86756 0.16177 0.67772 0.0
C833 C 0.95575 0.26643 0.6774 0.0
C834 C 0.97286 0.2533 0.67186 0.0
C835 C 0.92717 0.24857 0.68494 0.0
C836 C 0.86467 0.16969 0.6903 0.0
H837 H 0.77266 0.13627 0.76556 0.0
H838 H 0.80239 0.16978 0.74169 0.0
H839 H 0.82381 0.12818 0.69558 0.0
H840 H 0.97274 0.21092 0.66913 0.0
H841 H 0.92297 0.1799 0.68213 0.0
H842 H 0.89784 0.23012 0.71782 0.0
C843 C 0.79868 0.14696 0.74196 0.0
C844 C 0.83968 0.15043 0.70056 0.0
C845 C 0.78132 0.1277 0.7555 0.0
C846 C 0.96026 0.22181 0.67336 0.0
C847 C 0.9316 0.20396 0.68067 0.0
C848 C 0.88146 0.20819 0.71265 0.0
C849 C 0.81243 0.13738 0.72951 0.0
C850 C 0.83585 0.15942 0.71729 0.0
C851 C 0.91497 0.21719 0.68683 0.0
C852 C 0.88621 0.19848 0.69643 0.0
H853 H 0.78517 0.06523 0.74414 0.0
H854 H 0.81632 0.09892 0.72085 0.0
H855 H 0.85488 0.19651 0.73588 0.0
H856 H 0.96478 0.29061 0.6764 0.0
H857 H 0.91477 0.25934 0.6895 0.0
C858 C 0.67656 0.95082 0.84154 0.0
C859 C 0.70632 0.96607 0.83503 0.0
C860 C 0.66446 0.92176 0.84866 0.0
C861 C 0.67595 0.85559 0.85197 0.0
H862 H 0.64572 0.84909 0.89908 0.0
C863 C 0.68855 0.78362 0.90484 0.0
C864 C 0.66861 0.77338 0.91905 0.0
C865 C 0.68464 0.79972 0.89133 0.0
C866 C 0.65329 0.84997 0.88579 0.0
H867 H 0.74602 0.96207 0.82998 0.0
H868 H 0.72495 0.91164 0.8423 0.0
H869 H 0.65454 0.89187 0.88106 0.0
H870 H 0.6273 0.76897 0.92963 0.0
H871 H 0.6198 0.79639 0.90576 0.0
H872 H 0.67567 0.81417 0.8569 0.0
C873 C 0.71092 0.92201 0.84192 0.0
C874 C 0.65843 0.87464 0.87545 0.0
C875 C 0.72311 0.95108 0.83501 0.0
C876 C 0.64305 0.77686 0.91879 0.0
C877 C 0.63899 0.79282 0.90523 0.0
C878 C 0.67061 0.83078 0.86226 0.0
C879 C 0.68172 0.90727 0.84917 0.0
C880 C 0.67085 0.87829 0.85867 0.0
C881 C 0.6605 0.80564 0.89174 0.0
C882 C 0.66028 0.82825 0.87954 0.0
H883 H 0.663 0.9617 0.8417 0.0
H884 H 0.64182 0.91086 0.85407 0.0
H885 H 0.68509 0.85758 0.83896 0.0
H886 H 0.70825 0.78084 0.90473 0.0
H887 H 0.70179 0.8093 0.88126 0.0
C888 C 0.73607 0.68691 0.00331 0.0
C889 C 0.74708 0.71303 0.99295 0.0
C890 C 0.75608 0.67863 0.01056 0.0
C891 C 0.83569 0.71579 0.02413 0.0
H892 H 0.81789 0.63444 0.03523 0.0
C893 C 0.91665 0.69947 0.06754 0.0
C894 C 0.90261 0.67963 0.08151 0.0
C895 C 0.8997 0.6987 0.05304 0.0
C896 C 0.82318 0.65729 0.0322 0.0
H897 H 0.78716 0.74923 0.98066 0.0
H898 H 0.82177 0.73435 0.9928 0.0
H899 H 0.78351 0.64195 0.01635 0.0
H900 H 0.86071 0.64229 0.09112 0.0
H901 H 0.83076 0.64113 0.06597 0.0
H902 H 0.87452 0.73132 0.04037 0.0
C903 C 0.79792 0.72083 0.99589 0.0
C904 C 0.80348 0.66158 0.02141 0.0
C905 C 0.77806 0.7293 0.98887 0.0
C906 C 0.87194 0.65757 0.08033 0.0
C907 C 0.85487 0.65693 0.0659 0.0
C908 C 0.85527 0.71153 0.03485 0.0
C909 C 0.7874 0.69616 0.0074 0.0
C910 C 0.80933 0.69094 0.01744 0.0
C911 C 0.8683 0.67837 0.05244 0.0
C912 C 0.84912 0.68226 0.03924 0.0
H913 H 0.71229 0.67393 0.00667 0.0
H914 H 0.7472 0.65956 0.01942 0.0
H915 H 0.84062 0.73872 0.02173 0.0
H916 H 0.94031 0.71673 0.06831 0.0
H917 H 0.91088 0.7151 0.04274 0.0
C918 C 0.03818 0.78117 0.16238 0.0
C919 C 0.02558 0.74971 0.16387 0.0
C920 C 0.06557 0.80088 0.17046 0.0
C921 C 0.13218 0.80608 0.19368 0.0
H922 H 0.12972 0.87161 0.21775 0.0
C923 C 0.20581 0.87011 0.2535 0.0
C924 C 0.21341 0.90033 0.25585 0.0
C925 C 0.18875 0.85383 0.23903 0.0
C926 C 0.1312 0.85389 0.21084 0.0
H927 H 0.03261 0.71422 0.17426 0.0
H928 H 0.08016 0.74872 0.18889 0.0
H929 H 0.08848 0.83881 0.19869 0.0
H930 H 0.2118 0.93824 0.24449 0.0
H931 H 0.18261 0.91016 0.21892 0.0
H932 H 0.17464 0.82083 0.20655 0.0
C933 C 0.06908 0.75817 0.18121 0.0
C934 C 0.10744 0.83497 0.19987 0.0
C935 C 0.04175 0.73837 0.17291 0.0
C936 C 0.20602 0.91487 0.24288 0.0
C937 C 0.18913 0.89871 0.22838 0.0
C938 C 0.15604 0.82506 0.20476 0.0
C939 C 0.08087 0.78966 0.18047 0.0
C940 C 0.10745 0.81068 0.19123 0.0
C941 C 0.17912 0.86765 0.2267 0.0
C942 C 0.15567 0.84905 0.21357 0.0
H943 H 0.02655 0.79065 0.15524 0.0
H944 H 0.07438 0.82499 0.1692 0.0
H945 H 0.13303 0.78776 0.1871 0.0
H946 H 0.2112 0.8585 0.26347 0.0
H947 H 0.18131 0.82994 0.23819 0.0
C948 C 0.94552 0.68737 0.49358 0.0
C949 C 0.96368 0.71538 0.50178 0.0
C950 C 0.91752 0.68041 0.48641 0.0
C951 C 0.88073 0.72124 0.46892 0.0
H952 H 0.81154 0.64092 0.46267 0.0
C953 C 0.7827 0.70633 0.42693 0.0
C954 C 0.77466 0.68463 0.41375 0.0
C955 C 0.79921 0.70605 0.44137 0.0
C956 C 0.83069 0.66348 0.46436 0.0
H957 H 0.96568 0.75676 0.5104 0.0
H958 H 0.91653 0.74417 0.49862 0.0
H959 H 0.85329 0.64808 0.4816 0.0
H960 H 0.77522 0.6443 0.40574 0.0
H961 H 0.8045 0.64389 0.43092 0.0
H962 H 0.85886 0.73667 0.45145 0.0
C963 C 0.92426 0.72805 0.49702 0.0
C964 C 0.85464 0.66758 0.47516 0.0
C965 C 0.95237 0.73521 0.50388 0.0
C966 C 0.78111 0.66115 0.41587 0.0
C967 C 0.79784 0.66095 0.43028 0.0
C968 C 0.85688 0.71718 0.45828 0.0
C969 C 0.90704 0.70117 0.48753 0.0
C970 C 0.88013 0.69652 0.4774 0.0
C971 C 0.80824 0.68422 0.44278 0.0
C972 C 0.83171 0.68825 0.45569 0.0
H973 H 0.95373 0.67167 0.49176 0.0
H974 H 0.90498 0.65956 0.47914 0.0
H975 H 0.90025 0.74373 0.46989 0.0
H976 H 0.77782 0.72458 0.42551 0.0
H977 H 0.80633 0.72393 0.45096 0.0
C978 C 0.14174 0.80927 0.56744 0.0
C979 C 0.11176 0.78671 0.57062 0.0
C980 C 0.16078 0.8255 0.58122 0.0
C981 C 0.20095 0.85348 0.61241 0.0
H982 H 0.16321 0.88076 0.64613 0.0
C983 C 0.27179 0.9539 0.65905 0.0
C984 C 0.26183 0.97506 0.65996 0.0
C985 C 0.25342 0.9254 0.65151 0.0
C986 C 0.17413 0.87333 0.63684 0.0
H987 H 0.07829 0.76234 0.59058 0.0
H988 H 0.11188 0.79024 0.61493 0.0
H989 H 0.13175 0.83996 0.62627 0.0
H990 H 0.2245 0.98254 0.65391 0.0
H991 H 0.19316 0.93367 0.64059 0.0
H992 H 0.24341 0.88853 0.62214 0.0
C993 C 0.1206 0.79573 0.60174 0.0
C994 C 0.15604 0.84956 0.62559 0.0
C995 C 0.10145 0.77955 0.58787 0.0
C996 C 0.23298 0.96689 0.65347 0.0
C997 C 0.21477 0.9386 0.64597 0.0
C998 C 0.21907 0.87747 0.62357 0.0
C999 C 0.15029 0.81945 0.59854 0.0
C1000 C 0.16924 0.84012 0.61276 0.0
C1001 C 0.22474 0.91752 0.64478 0.0
C1002 C 0.20585 0.88847 0.63543 0.0
H1003 H 0.15016 0.81508 0.5542 0.0
H1004 H 0.18323 0.84385 0.57815 0.0
H1005 H 0.21188 0.84631 0.60297 0.0
H1006 H 0.29383 0.95942 0.664 0.0
H1007 H 0.26171 0.90961 0.65088 0.0
C1008 C 0.25617 0.21598 0.83478 0.0
C1009 C 0.27687 0.24721 0.8344 0.0
C1010 C 0.26319 0.19563 0.82692 0.0
C1011 C 0.32457 0.18649 0.80698 0.0
H1012 H 0.25844 0.12736 0.77868 0.0
C1013 C 0.33796 0.12192 0.74849 0.0
C1014 C 0.31358 0.09316 0.74461 0.0
C1015 C 0.33632 0.1382 0.76274 0.0
C1016 C 0.27702 0.14321 0.78678 0.0
H1017 H 0.32188 0.28146 0.82633 0.0
H1018 H 0.33392 0.24581 0.81212 0.0
H1019 H 0.25046 0.16101 0.79727 0.0
H1020 H 0.26968 0.05758 0.75308 0.0
H1021 H 0.26713 0.08539 0.77837 0.0
H1022 H 0.35133 0.16894 0.79591 0.0
C1023 C 0.31238 0.23708 0.81872 0.0
C1024 C 0.27244 0.16263 0.79745 0.0
C1025 C 0.30544 0.25752 0.82678 0.0
C1026 C 0.28871 0.07978 0.75592 0.0
C1027 C 0.28717 0.09585 0.77024 0.0
C1028 C 0.32918 0.16693 0.79622 0.0
C1029 C 0.29094 0.20597 0.81828 0.0
C1030 C 0.29613 0.1846 0.80765 0.0
C1031 C 0.31029 0.12581 0.77332 0.0
C1032 C 0.30544 0.14513 0.78594 0.0
H1033 H 0.23417 0.20723 0.84083 0.0
H1034 H 0.24647 0.17176 0.82723 0.0
H1035 H 0.34323 0.20306 0.81475 0.0
H1036 H 0.35722 0.13267 0.73977 0.0
H1037 H 0.35446 0.16123 0.76466 0.0
C1038 C 0.04467 0.30627 0.994 0.0
C1039 C 0.02896 0.2793 0.00361 0.0
C1040 C 0.0726 0.31427 0.98628 0.0
C1041 C 0.11376 0.27683 0.97035 0.0
H1042 H 0.17956 0.35855 0.96248 0.0
C1043 C 0.21409 0.2953 0.92904 0.0
C1044 C 0.22133 0.31635 0.91557 0.0
C1045 C 0.19684 0.29512 0.94324 0.0
C1046 C 0.16137 0.3356 0.96461 0.0
H1047 H 0.03132 0.24098 0.01392 0.0
H1048 H 0.08013 0.2553 0.00099 0.0
H1049 H 0.13683 0.35005 0.98098 0.0
H1050 H 0.21821 0.35485 0.90663 0.0
H1051 H 0.1877 0.35448 0.93135 0.0
H1052 H 0.13747 0.26227 0.9537 0.0
C1053 C 0.07055 0.26977 0.99883 0.0
C1054 C 0.13686 0.33075 0.97515 0.0
C1055 C 0.04259 0.26161 0.00631 0.0
C1056 C 0.2131 0.33866 0.91706 0.0
C1057 C 0.19565 0.33839 0.93121 0.0
C1058 C 0.13813 0.28166 0.95991 0.0
C1059 C 0.08542 0.29559 0.9882 0.0
C1060 C 0.11263 0.30127 0.97802 0.0
C1061 C 0.18618 0.31576 0.94406 0.0
C1062 C 0.16213 0.31108 0.95675 0.0
H1063 H 0.03471 0.32037 0.99172 0.0
H1064 H 0.08336 0.33425 0.97812 0.0
H1065 H 0.09522 0.25388 0.97186 0.0
H1066 H 0.22012 0.2778 0.92801 0.0
H1067 H 0.19043 0.27776 0.9531 0.0
C1068 C 0.72383 0.044 0.15873 0.0
C1069 C 0.7368 0.02717 0.16502 0.0
C1070 C 0.74208 0.0728 0.15154 0.0
C1071 C 0.82121 0.13606 0.14847 0.0
H1072 H 0.79852 0.14652 0.10187 0.0
C1073 C 0.90741 0.21089 0.09674 0.0
C1074 C 0.89812 0.22223 0.0829 0.0
C1075 C 0.8871 0.19403 0.10999 0.0
C1076 C 0.80498 0.14454 0.11504 0.0
H1077 H 0.77922 0.02802 0.16943 0.0
H1078 H 0.81086 0.07808 0.157 0.0
H1079 H 0.76334 0.10327 0.11922 0.0
H1080 H 0.86164 0.2278 0.07281 0.0
H1081 H 0.82632 0.19929 0.09629 0.0
H1082 H 0.86319 0.17694 0.14414 0.0
C1083 C 0.78665 0.06909 0.15762 0.0
C1084 C 0.78475 0.11959 0.12498 0.0
C1085 C 0.76844 0.04025 0.1646 0.0
C1086 C 0.86923 0.21912 0.08336 0.0
C1087 C 0.84893 0.20246 0.09669 0.0
C1088 C 0.84137 0.16119 0.13859 0.0
C1089 C 0.77367 0.08549 0.15075 0.0
C1090 C 0.79303 0.11455 0.14156 0.0
C1091 C 0.85716 0.18847 0.10971 0.0
C1092 C 0.83392 0.16522 0.12151 0.0
H1093 H 0.69953 0.03461 0.15891 0.0
H1094 H 0.73148 0.08499 0.14641 0.0
H1095 H 0.828 0.13298 0.16134 0.0
H1096 H 0.92976 0.21335 0.0967 0.0
H1097 H 0.89434 0.1836 0.1197 0.0
C1098 C 0.72413 0.77793 0.33375 0.0
C1099 C 0.70768 0.74613 0.33357 0.0
C1100 C 0.71236 0.79464 0.32612 0.0
C1101 C 0.66158 0.78881 0.29105 0.0
H1102 H 0.67942 0.86755 0.30816 0.0
C1103 C 0.6449 0.86979 0.24681 0.0
C1104 C 0.67055 0.89873 0.24585 0.0
C1105 C 0.64171 0.85025 0.26048 0.0
C1106 C 0.6742 0.84558 0.30322 0.0
H1107 H 0.66525 0.70696 0.32591 0.0
H1108 H 0.64466 0.73632 0.31244 0.0
H1109 H 0.68771 0.83386 0.32705 0.0
H1110 H 0.71163 0.9311 0.25893 0.0
H1111 H 0.70645 0.89703 0.28273 0.0
H1112 H 0.64938 0.80095 0.26698 0.0
C1113 C 0.66681 0.74822 0.31844 0.0
C1114 C 0.67893 0.82628 0.31404 0.0
C1115 C 0.67854 0.73142 0.32622 0.0
C1116 C 0.69178 0.90874 0.2594 0.0
C1117 C 0.68864 0.88926 0.27307 0.0
C1118 C 0.65687 0.80811 0.28023 0.0
C1119 C 0.68385 0.78003 0.31803 0.0
C1120 C 0.67361 0.79808 0.30787 0.0
C1121 C 0.66413 0.85939 0.27342 0.0
C1122 C 0.66403 0.83711 0.28599 0.0
H1123 H 0.74657 0.79004 0.33939 0.0
H1124 H 0.72629 0.81905 0.32585 0.0
H1125 H 0.65757 0.76741 0.28581 0.0
H1126 H 0.62824 0.86164 0.23645 0.0
H1127 H 0.62233 0.82758 0.26051 0.0
C1128 C 0.3798 0.26611 0.53788 0.0
C1129 C 0.36661 0.245 0.52433 0.0
C1130 C 0.38986 0.25843 0.55303 0.0
C1131 C 0.40772 0.2029 0.57276 0.0
H1132 H 0.36104 0.20468 0.61213 0.0
C1133 C 0.37108 0.11717 0.6292 0.0
C1134 C 0.36284 0.12418 0.64522 0.0
C1135 C 0.38137 0.13826 0.61556 0.0
C1136 C 0.37508 0.20462 0.60156 0.0
H1137 H 0.35584 0.20058 0.51519 0.0
H1138 H 0.37415 0.18756 0.54128 0.0
H1139 H 0.36361 0.23197 0.58578 0.0
H1140 H 0.36095 0.15907 0.6602 0.0
H1141 H 0.38088 0.19667 0.63696 0.0
H1142 H 0.41891 0.17518 0.58842 0.0
C1143 C 0.37654 0.20983 0.54039 0.0
C1144 C 0.37644 0.22033 0.58637 0.0
C1145 C 0.36591 0.21721 0.5255 0.0
C1146 C 0.36715 0.15323 0.64788 0.0
C1147 C 0.3782 0.17459 0.63446 0.0
C1148 C 0.40683 0.18758 0.5881 0.0
C1149 C 0.3875 0.22984 0.55459 0.0
C1150 C 0.39191 0.21881 0.57162 0.0
C1151 C 0.3841 0.16697 0.61782 0.0
C1152 C 0.38959 0.18733 0.60254 0.0
H1153 H 0.38034 0.28757 0.53731 0.0
H1154 H 0.39822 0.27424 0.56381 0.0
H1155 H 0.41994 0.20149 0.56157 0.0
H1156 H 0.36752 0.0947 0.62684 0.0
H1157 H 0.38528 0.13123 0.60298 0.0
C1158 C 0.11118 0.35906 0.70809 0.0
C1159 C 0.11962 0.35336 0.69176 0.0
C1160 C 0.13151 0.3683 0.72209 0.0
C1161 C 0.19877 0.3635 0.73587 0.0
H1162 H 0.19245 0.40404 0.77706 0.0
C1163 C 0.26039 0.36736 0.79957 0.0
C1164 C 0.23942 0.35317 0.81311 0.0
C1165 C 0.25202 0.37705 0.78453 0.0
C1166 C 0.19472 0.393 0.76555 0.0
H1167 H 0.15606 0.35462 0.67671 0.0
H1168 H 0.19225 0.37266 0.70069 0.0
H1169 H 0.16648 0.40405 0.7503 0.0
H1170 H 0.19435 0.3401 0.82228 0.0
H1171 H 0.18012 0.35771 0.79637 0.0
H1172 H 0.22669 0.35219 0.75125 0.0
C1173 C 0.16973 0.3689 0.70309 0.0
C1174 C 0.17961 0.39273 0.75025 0.0
C1175 C 0.14918 0.35897 0.68925 0.0
C1176 C 0.2109 0.3509 0.81197 0.0
C1177 C 0.20281 0.36115 0.79719 0.0
C1178 C 0.21425 0.36424 0.75105 0.0
C1179 C 0.16081 0.37244 0.71991 0.0
C1180 C 0.1806 0.3771 0.73534 0.0
C1181 C 0.22286 0.37334 0.78306 0.0
C1182 C 0.21161 0.37816 0.7662 0.0
H1183 H 0.08828 0.35438 0.71032 0.0
H1184 H 0.1235 0.37036 0.73481 0.0
H1185 H 0.1998 0.35071 0.7249 0.0
H1186 H 0.28245 0.36919 0.80011 0.0
H1187 H 0.2679 0.38641 0.77379 0.0
C1188 C 0.79488 0.13071 0.86294 0.0
C1189 C 0.76388 0.11303 0.8591 0.0
C1190 C 0.80476 0.15048 0.87707 0.0
C1191 C 0.78095 0.15863 0.92021 0.0
H1192 H 0.85813 0.23343 0.91932 0.0
C1193 C 0.87994 0.25003 0.97029 0.0
C1194 C 0.88242 0.22868 0.98068 0.0
C1195 C 0.86006 0.24056 0.95602 0.0
C1196 C 0.83624 0.21298 0.91983 0.0
H1197 H 0.71896 0.10309 0.86675 0.0
H1198 H 0.73635 0.13755 0.89195 0.0
H1199 H 0.83318 0.20962 0.89197 0.0
H1200 H 0.86474 0.18063 0.98482 0.0
H1201 H 0.83048 0.16436 0.96021 0.0
H1202 H 0.78463 0.16134 0.94807 0.0
C1203 C 0.75291 0.13601 0.88383 0.0
C1204 C 0.82206 0.19919 0.90415 0.0
C1205 C 0.74297 0.11637 0.86943 0.0
C1206 C 0.86364 0.19775 0.97702 0.0
C1207 C 0.84366 0.18835 0.96298 0.0
C1208 C 0.79516 0.1724 0.9359 0.0
C1209 C 0.78394 0.15303 0.88789 0.0
C1210 C 0.79495 0.17118 0.90417 0.0
C1211 C 0.84197 0.20958 0.9521 0.0
C1212 C 0.82361 0.19901 0.93586 0.0
H1213 H 0.81166 0.12891 0.8552 0.0
H1214 H 0.82874 0.16282 0.87995 0.0
H1215 H 0.76012 0.13707 0.92069 0.0
H1216 H 0.89404 0.27401 0.97283 0.0
H1217 H 0.85919 0.25745 0.94788 0.0
C1218 C 0.62974 0.74987 0.0304 0.0
C1219 C 0.65974 0.76561 0.02423 0.0
C1220 C 0.62155 0.75969 0.04552 0.0
C1221 C 0.61254 0.80191 0.07225 0.0
H1222 H 0.6668 0.8193 0.11144 0.0
C1223 C 0.63015 0.88493 0.12912 0.0
C1224 C 0.63894 0.87904 0.14531 0.0
C1225 C 0.62434 0.86513 0.11505 0.0
C1226 C 0.651 0.81411 0.1008 0.0
H1227 H 0.70446 0.80415 0.02907 0.0
H1228 H 0.6903 0.82062 0.05523 0.0
H1229 H 0.67303 0.79582 0.08548 0.0
H1230 H 0.64581 0.84691 0.16013 0.0
H1231 H 0.63456 0.81191 0.13596 0.0
H1232 H 0.5911 0.82123 0.08757 0.0
C1233 C 0.67312 0.80079 0.04848 0.0
C1234 C 0.65479 0.80087 0.08585 0.0
C1235 C 0.68117 0.79131 0.03341 0.0
C1236 C 0.63919 0.85194 0.1477 0.0
C1237 C 0.63298 0.83205 0.13382 0.0
C1238 C 0.60884 0.81547 0.08729 0.0
C1239 C 0.64335 0.78504 0.05479 0.0
C1240 C 0.63606 0.79518 0.07129 0.0
C1241 C 0.6271 0.83917 0.11709 0.0
C1242 C 0.62833 0.82208 0.10166 0.0
H1243 H 0.61266 0.73013 0.02355 0.0
H1244 H 0.59842 0.74717 0.05016 0.0
H1245 H 0.5979 0.79788 0.06114 0.0
H1246 H 0.63015 0.9059 0.12697 0.0
H1247 H 0.61996 0.87135 0.10233 0.0
C1248 C 0.85437 0.65218 0.18333 0.0
C1249 C 0.8801 0.64898 0.18395 0.0
C1250 C 0.83614 0.64622 0.19801 0.0
C1251 C 0.81971 0.6166 0.24327 0.0
H1252 H 0.81162 0.68737 0.2509 0.0
C1253 C 0.80291 0.68647 0.3025 0.0
C1254 C 0.77425 0.66649 0.30958 0.0
C1255 C 0.81303 0.67891 0.2875 0.0
C1256 C 0.81353 0.66737 0.24893 0.0
H1257 H 0.90571 0.63473 0.19988 0.0
H1258 H 0.87393 0.62476 0.22593 0.0
H1259 H 0.83256 0.68198 0.2236 0.0
H1260 H 0.73444 0.62206 0.30682 0.0
H1261 H 0.75254 0.60876 0.28033 0.0
H1262 H 0.80105 0.60263 0.26907 0.0
C1263 C 0.86768 0.63152 0.21396 0.0
C1264 C 0.82531 0.66412 0.23322 0.0
C1265 C 0.88586 0.6372 0.19908 0.0
C1266 C 0.75654 0.63803 0.30165 0.0
C1267 C 0.7669 0.63035 0.28657 0.0
C1268 C 0.80749 0.61974 0.25906 0.0
C1269 C 0.8435 0.6374 0.21377 0.0
C1270 C 0.82884 0.63889 0.23022 0.0
C1271 C 0.79494 0.65111 0.27916 0.0
C1272 C 0.80485 0.64548 0.26209 0.0
H1273 H 0.84927 0.66093 0.17174 0.0
H1274 H 0.81727 0.65029 0.19732 0.0
H1275 H 0.82216 0.59693 0.24131 0.0
H1276 H 0.81742 0.70846 0.30828 0.0
H1277 H 0.8349 0.69517 0.28217 0.0
C1278 C 0.24142 0.86658 0.36678 0.0
C1279 C 0.22078 0.87055 0.35656 0.0
C1280 C 0.23092 0.84427 0.37984 0.0
C1281 C 0.1618 0.77487 0.39498 0.0
H1282 H 0.19032 0.80429 0.4417 0.0
C1283 C 0.08537 0.74075 0.45431 0.0
C1284 C 0.09592 0.7382 0.47071 0.0
C1285 C 0.10404 0.74833 0.43969 0.0
C1286 C 0.18258 0.79534 0.42873 0.0
H1287 H 0.1731 0.85329 0.35145 0.0
H1288 H 0.15506 0.81475 0.37383 0.0
H1289 H 0.2185 0.83482 0.41655 0.0
H1290 H 0.13373 0.74068 0.48489 0.0
H1291 H 0.16703 0.75471 0.45918 0.0
H1292 H 0.12475 0.73641 0.40715 0.0
C1293 C 0.17925 0.82865 0.37189 0.0
C1294 C 0.19874 0.81285 0.41432 0.0
C1295 C 0.18964 0.85105 0.35915 0.0
C1296 C 0.12503 0.74202 0.47223 0.0
C1297 C 0.14407 0.75026 0.45761 0.0
C1298 C 0.14564 0.75745 0.40935 0.0
C1299 C 0.19966 0.8252 0.38256 0.0
C1300 C 0.18764 0.80347 0.39733 0.0
C1301 C 0.13395 0.75421 0.44127 0.0
C1302 C 0.15507 0.7682 0.42637 0.0
H1303 H 0.26555 0.88128 0.36507 0.0
H1304 H 0.24715 0.84213 0.38791 0.0
H1305 H 0.15302 0.7668 0.38202 0.0
H1306 H 0.06314 0.73836 0.45295 0.0
H1307 H 0.09572 0.75165 0.42737 0.0
loop_
_geom_bond_atom_site_label_1
_geom_bond_atom_site_label_2
_geom_bond_distance
_geom_bond_site_symmetry_2
_ccdc_geom_bond_type
Co0 O3 1.970 . S
Co0 N17 1.989 . S
Co0 O25 1.967 . S
Co0 O32 1.920 . S
Co1 O4 1.966 . S
Co1 N10 2.022 . S
Co1 N18 1.993 . S
Co1 O26 1.941 . S
C2 O3 1.258 . S
C2 O4 1.263 . S
O3 Co0 1.970 . S
O3 C2 1.258 . S
O4 Co1 1.966 . S
O4 C2 1.263 . S
C5 O6 1.235 . S
C5 O32 1.289 . S
O6 C5 1.235 . S
C7 C9 1.400 . S
C7 N10 1.351 . S
C7 C12 1.501 . S
C8 C9 1.387 . S
C8 N11 1.341 . S
C9 C7 1.400 . S
C9 C8 1.387 . S
N10 Co1 2.022 . S
N10 C7 1.351 . S
N10 N11 1.365 . S
N11 C8 1.341 . S
N11 N10 1.365 . S
N11 H31 0.862 . S
C12 C7 1.501 . S
C12 H13 0.961 . S
C12 H14 0.961 . S
C12 H15 0.960 . S
H13 C12 0.961 . S
H14 C12 0.961 . S
H15 C12 0.960 . S
C16 N17 1.342 . S
C16 C20 1.401 . S
C16 C21 1.499 . S
N17 Co0 1.989 . S
N17 C16 1.342 . S
N17 N18 1.388 . S
N18 Co1 1.993 . S
N18 N17 1.388 . S
N18 C19 1.346 . S
C19 N18 1.346 . S
C19 C20 1.396 . S
C19 C29 1.510 . S
C20 C16 1.401 . S
C20 C19 1.396 . S
C21 C16 1.499 . S
C21 H22 0.959 . S
C21 H23 0.960 . S
C21 H24 0.961 . S
H22 C21 0.959 . S
H23 C21 0.960 . S
H24 C21 0.961 . S
O25 Co0 1.967 . S
O25 C33 1.258 . S
O26 Co1 1.941 . S
O26 C33 1.266 . S
H27 C29 0.959 . S
H28 C29 0.961 . S
C29 C19 1.510 . S
C29 H27 0.959 . S
C29 H28 0.961 . S
C29 H30 0.960 . S
H30 C29 0.960 . S
H31 N11 0.862 . S
O32 Co0 1.920 . S
O32 C5 1.289 . S
C33 O25 1.258 . S
C33 O26 1.266 . S
Co34 O37 1.970 . S
Co34 N51 1.989 . S
Co34 O59 1.967 . S
Co34 O66 1.920 . S
Co35 O38 1.966 . S
Co35 N44 2.022 . S
Co35 N52 1.993 . S
Co35 O60 1.941 . S
C36 O37 1.258 . S
C36 O38 1.263 . S
O37 Co34 1.970 . S
O37 C36 1.258 . S
O38 Co35 1.966 . S
O38 C36 1.263 . S
C39 O40 1.235 . S
C39 O66 1.289 . S
O40 C39 1.235 . S
C41 C43 1.400 . S
C41 N44 1.351 . S
C41 C46 1.501 . S
C42 C43 1.387 . S
C42 N45 1.341 . S
C43 C41 1.400 . S
C43 C42 1.387 . S
N44 Co35 2.022 . S
N44 C41 1.351 . S
N44 N45 1.365 . S
N45 C42 1.341 . S
N45 N44 1.365 . S
N45 H65 0.862 . S
C46 C41 1.501 . S
C46 H47 0.961 . S
C46 H48 0.961 . S
C46 H49 0.960 . S
H47 C46 0.961 . S
H48 C46 0.961 . S
H49 C46 0.960 . S
C50 N51 1.342 . S
C50 C54 1.401 . S
C50 C55 1.499 . S
N51 Co34 1.989 . S
N51 C50 1.342 . S
N51 N52 1.388 . S
N52 Co35 1.993 . S
N52 N51 1.388 . S
N52 C53 1.346 . S
C53 N52 1.346 . S
C53 C54 1.396 . S
C53 C63 1.510 . S
C54 C50 1.401 . S
C54 C53 1.396 . S
C55 C50 1.499 . S
C55 H56 0.959 . S
C55 H57 0.960 . S
C55 H58 0.961 . S
H56 C55 0.959 . S
H57 C55 0.960 . S
H58 C55 0.961 . S
O59 Co34 1.967 . S
O59 C67 1.258 . S
O60 Co35 1.941 . S
O60 C67 1.266 . S
H61 C63 0.959 . S
H62 C63 0.961 . S
C63 C53 1.510 . S
C63 H61 0.959 . S
C63 H62 0.961 . S
C63 H64 0.960 . S
H64 C63 0.960 . S
H65 N45 0.862 . S
O66 Co34 1.920 . S
O66 C39 1.289 . S
C67 O59 1.258 . S
C67 O60 1.266 . S
Co68 O71 1.970 . S
Co68 N85 1.989 . S
Co68 O93 1.967 . S
Co68 O100 1.920 . S
Co69 O72 1.966 . S
Co69 N78 2.022 . S
Co69 N86 1.993 . S
Co69 O94 1.941 . S
C70 O71 1.258 . S
C70 O72 1.263 . S
O71 Co68 1.970 . S
O71 C70 1.258 . S
O72 Co69 1.966 . S
O72 C70 1.263 . S
C73 O74 1.235 . S
C73 O100 1.289 . S
O74 C73 1.235 . S
C75 C77 1.400 . S
C75 N78 1.351 . S
C75 C80 1.501 . S
C76 C77 1.387 . S
C76 N79 1.341 . S
C77 C75 1.400 . S
C77 C76 1.387 . S
N78 Co69 2.022 . S
N78 C75 1.351 . S
N78 N79 1.365 . S
N79 C76 1.341 . S
N79 N78 1.365 . S
N79 H99 0.862 . S
C80 C75 1.501 . S
C80 H81 0.961 . S
C80 H82 0.961 . S
C80 H83 0.960 . S
H81 C80 0.961 . S
H82 C80 0.961 . S
H83 C80 0.960 . S
C84 N85 1.342 . S
C84 C88 1.401 . S
C84 C89 1.499 . S
N85 Co68 1.989 . S
N85 C84 1.342 . S
N85 N86 1.388 . S
N86 Co69 1.993 . S
N86 N85 1.388 . S
N86 C87 1.346 . S
C87 N86 1.346 . S
C87 C88 1.396 . S
C87 C97 1.510 . S
C88 C84 1.401 . S
C88 C87 1.396 . S
C89 C84 1.499 . S
C89 H90 0.959 . S
C89 H91 0.960 . S
C89 H92 0.961 . S
H90 C89 0.959 . S
H91 C89 0.960 . S
H92 C89 0.961 . S
O93 Co68 1.967 . S
O93 C101 1.258 . S
O94 Co69 1.941 . S
O94 C101 1.266 . S
H95 C97 0.959 . S
H96 C97 0.961 . S
C97 C87 1.510 . S
C97 H95 0.959 . S
C97 H96 0.961 . S
C97 H98 0.960 . S
H98 C97 0.960 . S
H99 N79 0.862 . S
O100 Co68 1.920 . S
O100 C73 1.289 . S
C101 O93 1.258 . S
C101 O94 1.266 . S
Co102 O105 1.970 . S
Co102 N119 1.989 . S
Co102 O127 1.967 . S
Co102 O134 1.920 . S
Co103 O106 1.966 . S
Co103 N112 2.022 . S
Co103 N120 1.993 . S
Co103 O128 1.941 . S
C104 O105 1.258 . S
C104 O106 1.263 . S
O105 Co102 1.970 . S
O105 C104 1.258 . S
O106 Co103 1.966 . S
O106 C104 1.263 . S
C107 O108 1.235 . S
C107 O134 1.289 . S
O108 C107 1.235 . S
C109 C111 1.400 . S
C109 N112 1.351 . S
C109 C114 1.501 . S
C110 C111 1.387 . S
C110 N113 1.341 . S
C111 C109 1.400 . S
C111 C110 1.387 . S
N112 Co103 2.022 . S
N112 C109 1.351 . S
N112 N113 1.365 . S
N113 C110 1.341 . S
N113 N112 1.365 . S
N113 H133 0.862 . S
C114 C109 1.501 . S
C114 H115 0.961 . S
C114 H116 0.961 . S
C114 H117 0.960 . S
H115 C114 0.961 . S
H116 C114 0.961 . S
H117 C114 0.960 . S
C118 N119 1.342 . S
C118 C122 1.401 . S
C118 C123 1.499 . S
N119 Co102 1.989 . S
N119 C118 1.342 . S
N119 N120 1.388 . S
N120 Co103 1.993 . S
N120 N119 1.388 . S
N120 C121 1.346 . S
C121 N120 1.346 . S
C121 C122 1.396 . S
C121 C131 1.510 . S
C122 C118 1.401 . S
C122 C121 1.396 . S
C123 C118 1.499 . S
C123 H124 0.959 . S
C123 H125 0.960 . S
C123 H126 0.961 . S
H124 C123 0.959 . S
H125 C123 0.960 . S
H126 C123 0.961 . S
O127 Co102 1.967 . S
O127 C135 1.258 . S
O128 Co103 1.941 . S
O128 C135 1.266 . S
H129 C131 0.959 . S
H130 C131 0.961 . S
C131 C121 1.510 . S
C131 H129 0.959 . S
C131 H130 0.961 . S
C131 H132 0.960 . S
H132 C131 0.960 . S
H133 N113 0.862 . S
O134 Co102 1.920 . S
O134 C107 1.289 . S
C135 O127 1.258 . S
C135 O128 1.266 . S
Co136 O139 1.970 . S
Co136 N153 1.989 . S
Co136 O161 1.967 . S
Co136 O168 1.920 . S
Co137 O140 1.966 . S
Co137 N146 2.022 . S
Co137 N154 1.993 . S
Co137 O162 1.941 . S
C138 O139 1.258 . S
C138 O140 1.263 . S
O139 Co136 1.970 . S
O139 C138 1.258 . S
O140 Co137 1.966 . S
O140 C138 1.263 . S
C141 O142 1.235 . S
C141 O168 1.289 . S
O142 C141 1.235 . S
C143 C145 1.400 . S
C143 N146 1.351 . S
C143 C148 1.501 . S
C144 C145 1.387 . S
C144 N147 1.341 . S
C145 C143 1.400 . S
C145 C144 1.387 . S
N146 Co137 2.022 . S
N146 C143 1.351 . S
N146 N147 1.365 . S
N147 C144 1.341 . S
N147 N146 1.365 . S
N147 H167 0.862 . S
C148 C143 1.501 . S
C148 H149 0.961 . S
C148 H150 0.961 . S
C148 H151 0.960 . S
H149 C148 0.961 . S
H150 C148 0.961 . S
H151 C148 0.960 . S
C152 N153 1.342 . S
C152 C156 1.401 . S
C152 C157 1.499 . S
N153 Co136 1.989 . S
N153 C152 1.342 . S
N153 N154 1.388 . S
N154 Co137 1.993 . S
N154 N153 1.388 . S
N154 C155 1.346 . S
C155 N154 1.346 . S
C155 C156 1.396 . S
C155 C165 1.510 . S
C156 C152 1.401 . S
C156 C155 1.396 . S
C157 C152 1.499 . S
C157 H158 0.959 . S
C157 H159 0.960 . S
C157 H160 0.961 . S
H158 C157 0.959 . S
H159 C157 0.960 . S
H160 C157 0.961 . S
O161 Co136 1.967 . S
O161 C169 1.258 . S
O162 Co137 1.941 . S
O162 C169 1.266 . S
H163 C165 0.959 . S
H164 C165 0.961 . S
C165 C155 1.510 . S
C165 H163 0.959 . S
C165 H164 0.961 . S
C165 H166 0.960 . S
H166 C165 0.960 . S
H167 N147 0.862 . S
O168 Co136 1.920 . S
O168 C141 1.289 . S
C169 O161 1.258 . S
C169 O162 1.266 . S
Co170 O173 1.970 . S
Co170 N187 1.989 . S
Co170 O195 1.967 . S
Co170 O202 1.920 . S
Co171 O174 1.966 . S
Co171 N180 2.022 . S
Co171 N188 1.993 . S
Co171 O196 1.941 . S
C172 O173 1.258 . S
C172 O174 1.263 . S
O173 Co170 1.970 . S
O173 C172 1.258 . S
O174 Co171 1.966 . S
O174 C172 1.263 . S
C175 O176 1.235 . S
C175 O202 1.289 . S
O176 C175 1.235 . S
C177 C179 1.400 . S
C177 N180 1.351 . S
C177 C182 1.501 . S
C178 C179 1.387 . S
C178 N181 1.341 . S
C179 C177 1.400 . S
C179 C178 1.387 . S
N180 Co171 2.022 . S
N180 C177 1.351 . S
N180 N181 1.365 . S
N181 C178 1.341 . S
N181 N180 1.365 . S
N181 H201 0.862 . S
C182 C177 1.501 . S
C182 H183 0.961 . S
C182 H184 0.961 . S
C182 H185 0.960 . S
H183 C182 0.961 . S
H184 C182 0.961 . S
H185 C182 0.960 . S
C186 N187 1.342 . S
C186 C190 1.401 . S
C186 C191 1.499 . S
N187 Co170 1.989 . S
N187 C186 1.342 . S
N187 N188 1.388 . S
N188 Co171 1.993 . S
N188 N187 1.388 . S
N188 C189 1.346 . S
C189 N188 1.346 . S
C189 C190 1.396 . S
C189 C199 1.510 . S
C190 C186 1.401 . S
C190 C189 1.396 . S
C191 C186 1.499 . S
C191 H192 0.959 . S
C191 H193 0.960 . S
C191 H194 0.961 . S
H192 C191 0.959 . S
H193 C191 0.960 . S
H194 C191 0.961 . S
O195 Co170 1.967 . S
O195 C203 1.258 . S
O196 Co171 1.941 . S
O196 C203 1.266 . S
H197 C199 0.959 . S
H198 C199 0.961 . S
C199 C189 1.510 . S
C199 H197 0.959 . S
C199 H198 0.961 . S
C199 H200 0.960 . S
H200 C199 0.960 . S
H201 N181 0.862 . S
O202 Co170 1.920 . S
O202 C175 1.289 . S
C203 O195 1.258 . S
C203 O196 1.266 . S
Co204 O207 1.970 . S
Co204 N221 1.989 . S
Co204 O229 1.967 . S
Co204 O236 1.920 . S
Co205 O208 1.966 . S
Co205 N214 2.022 . S
Co205 N222 1.993 . S
Co205 O230 1.941 . S
C206 O207 1.258 . S
C206 O208 1.263 . S
O207 Co204 1.970 . S
O207 C206 1.258 . S
O208 Co205 1.966 . S
O208 C206 1.263 . S
C209 O210 1.235 . S
C209 O236 1.289 . S
O210 C209 1.235 . S
C211 C213 1.400 . S
C211 N214 1.351 . S
C211 C216 1.501 . S
C212 C213 1.387 . S
C212 N215 1.341 . S
C213 C211 1.400 . S
C213 C212 1.387 . S
N214 Co205 2.022 . S
N214 C211 1.351 . S
N214 N215 1.365 . S
N215 C212 1.341 . S
N215 N214 1.365 . S
N215 H235 0.862 . S
C216 C211 1.501 . S
C216 H217 0.961 . S
C216 H218 0.961 . S
C216 H219 0.960 . S
H217 C216 0.961 . S
H218 C216 0.961 . S
H219 C216 0.960 . S
C220 N221 1.342 . S
C220 C224 1.401 . S
C220 C225 1.499 . S
N221 Co204 1.989 . S
N221 C220 1.342 . S
N221 N222 1.388 . S
N222 Co205 1.993 . S
N222 N221 1.388 . S
N222 C223 1.346 . S
C223 N222 1.346 . S
C223 C224 1.396 . S
C223 C233 1.510 . S
C224 C220 1.401 . S
C224 C223 1.396 . S
C225 C220 1.499 . S
C225 H226 0.959 . S
C225 H227 0.960 . S
C225 H228 0.961 . S
H226 C225 0.959 . S
H227 C225 0.960 . S
H228 C225 0.961 . S
O229 Co204 1.967 . S
O229 C237 1.258 . S
O230 Co205 1.941 . S
O230 C237 1.266 . S
H231 C233 0.959 . S
H232 C233 0.961 . S
C233 C223 1.510 . S
C233 H231 0.959 . S
C233 H232 0.961 . S
C233 H234 0.960 . S
H234 C233 0.960 . S
H235 N215 0.862 . S
O236 Co204 1.920 . S
O236 C209 1.289 . S
C237 O229 1.258 . S
C237 O230 1.266 . S
Co238 O241 1.970 . S
Co238 N255 1.989 . S
Co238 O263 1.967 . S
Co238 O270 1.920 . S
Co239 O242 1.966 . S
Co239 N248 2.022 . S
Co239 N256 1.993 . S
Co239 O264 1.941 . S
C240 O241 1.258 . S
C240 O242 1.263 . S
O241 Co238 1.970 . S
O241 C240 1.258 . S
O242 Co239 1.966 . S
O242 C240 1.263 . S
C243 O244 1.235 . S
C243 O270 1.289 . S
O244 C243 1.235 . S
C245 C247 1.400 . S
C245 N248 1.351 . S
C245 C250 1.501 . S
C246 C247 1.387 . S
C246 N249 1.341 . S
C247 C245 1.400 . S
C247 C246 1.387 . S
N248 Co239 2.022 . S
N248 C245 1.351 . S
N248 N249 1.365 . S
N249 C246 1.341 . S
N249 N248 1.365 . S
N249 H269 0.862 . S
C250 C245 1.501 . S
C250 H251 0.961 . S
C250 H252 0.961 . S
C250 H253 0.960 . S
H251 C250 0.961 . S
H252 C250 0.961 . S
H253 C250 0.960 . S
C254 N255 1.342 . S
C254 C258 1.401 . S
C254 C259 1.499 . S
N255 Co238 1.989 . S
N255 C254 1.342 . S
N255 N256 1.388 . S
N256 Co239 1.993 . S
N256 N255 1.388 . S
N256 C257 1.346 . S
C257 N256 1.346 . S
C257 C258 1.396 . S
C257 C267 1.510 . S
C258 C254 1.401 . S
C258 C257 1.396 . S
C259 C254 1.499 . S
C259 H260 0.959 . S
C259 H261 0.960 . S
C259 H262 0.961 . S
H260 C259 0.959 . S
H261 C259 0.960 . S
H262 C259 0.961 . S
O263 Co238 1.967 . S
O263 C271 1.258 . S
O264 Co239 1.941 . S
O264 C271 1.266 . S
H265 C267 0.959 . S
H266 C267 0.961 . S
C267 C257 1.510 . S
C267 H265 0.959 . S
C267 H266 0.961 . S
C267 H268 0.960 . S
H268 C267 0.960 . S
H269 N249 0.862 . S
O270 Co238 1.920 . S
O270 C243 1.289 . S
C271 O263 1.258 . S
C271 O264 1.266 . S
Co272 O275 1.970 . S
Co272 N289 1.989 . S
Co272 O297 1.967 . S
Co272 O304 1.920 . S
Co273 O276 1.966 . S
Co273 N282 2.022 . S
Co273 N290 1.993 . S
Co273 O298 1.941 . S
C274 O275 1.258 . S
C274 O276 1.263 . S
O275 Co272 1.970 . S
O275 C274 1.258 . S
O276 Co273 1.966 . S
O276 C274 1.263 . S
C277 O278 1.235 . S
C277 O304 1.289 . S
O278 C277 1.235 . S
C279 C281 1.400 . S
C279 N282 1.351 . S
C279 C284 1.501 . S
C280 C281 1.387 . S
C280 N283 1.341 . S
C281 C279 1.400 . S
C281 C280 1.387 . S
N282 Co273 2.022 . S
N282 C279 1.351 . S
N282 N283 1.365 . S
N283 C280 1.341 . S
N283 N282 1.365 . S
N283 H303 0.862 . S
C284 C279 1.501 . S
C284 H285 0.961 . S
C284 H286 0.961 . S
C284 H287 0.960 . S
H285 C284 0.961 . S
H286 C284 0.961 . S
H287 C284 0.960 . S
C288 N289 1.342 . S
C288 C292 1.401 . S
C288 C293 1.499 . S
N289 Co272 1.989 . S
N289 C288 1.342 . S
N289 N290 1.388 . S
N290 Co273 1.993 . S
N290 N289 1.388 . S
N290 C291 1.346 . S
C291 N290 1.346 . S
C291 C292 1.396 . S
C291 C301 1.510 . S
C292 C288 1.401 . S
C292 C291 1.396 . S
C293 C288 1.499 . S
C293 H294 0.959 . S
C293 H295 0.960 . S
C293 H296 0.961 . S
H294 C293 0.959 . S
H295 C293 0.960 . S
H296 C293 0.961 . S
O297 Co272 1.967 . S
O297 C305 1.258 . S
O298 Co273 1.941 . S
O298 C305 1.266 . S
H299 C301 0.959 . S
H300 C301 0.961 . S
C301 C291 1.510 . S
C301 H299 0.959 . S
C301 H300 0.961 . S
C301 H302 0.960 . S
H302 C301 0.960 . S
H303 N283 0.862 . S
O304 Co272 1.920 . S
O304 C277 1.289 . S
C305 O297 1.258 . S
C305 O298 1.266 . S
Co306 O309 1.970 . S
Co306 N323 1.989 . S
Co306 O331 1.967 . S
Co306 O338 1.920 . S
Co307 O310 1.966 . S
Co307 N316 2.022 . S
Co307 N324 1.993 . S
Co307 O332 1.941 . S
C308 O309 1.258 . S
C308 O310 1.263 . S
O309 Co306 1.970 . S
O309 C308 1.258 . S
O310 Co307 1.966 . S
O310 C308 1.263 . S
C311 O312 1.235 . S
C311 O338 1.289 . S
O312 C311 1.235 . S
C313 C315 1.400 . S
C313 N316 1.351 . S
C313 C318 1.501 . S
C314 C315 1.387 . S
C314 N317 1.341 . S
C315 C313 1.400 . S
C315 C314 1.387 . S
N316 Co307 2.022 . S
N316 C313 1.351 . S
N316 N317 1.365 . S
N317 C314 1.341 . S
N317 N316 1.365 . S
N317 H337 0.862 . S
C318 C313 1.501 . S
C318 H319 0.961 . S
C318 H320 0.961 . S
C318 H321 0.960 . S
H319 C318 0.961 . S
H320 C318 0.961 . S
H321 C318 0.960 . S
C322 N323 1.342 . S
C322 C326 1.401 . S
C322 C327 1.499 . S
N323 Co306 1.989 . S
N323 C322 1.342 . S
N323 N324 1.388 . S
N324 Co307 1.993 . S
N324 N323 1.388 . S
N324 C325 1.346 . S
C325 N324 1.346 . S
C325 C326 1.396 . S
C325 C335 1.510 . S
C326 C322 1.401 . S
C326 C325 1.396 . S
C327 C322 1.499 . S
C327 H328 0.959 . S
C327 H329 0.960 . S
C327 H330 0.961 . S
H328 C327 0.959 . S
H329 C327 0.960 . S
H330 C327 0.961 . S
O331 Co306 1.967 . S
O331 C339 1.258 . S
O332 Co307 1.941 . S
O332 C339 1.266 . S
H333 C335 0.959 . S
H334 C335 0.961 . S
C335 C325 1.510 . S
C335 H333 0.959 . S
C335 H334 0.961 . S
C335 H336 0.960 . S
H336 C335 0.960 . S
H337 N317 0.862 . S
O338 Co306 1.920 . S
O338 C311 1.289 . S
C339 O331 1.258 . S
C339 O332 1.266 . S
Co340 O343 1.970 . S
Co340 N357 1.989 . S
Co340 O365 1.967 . S
Co340 O372 1.920 . S
Co341 O344 1.966 . S
Co341 N350 2.022 . S
Co341 N358 1.993 . S
Co341 O366 1.941 . S
C342 O343 1.258 . S
C342 O344 1.263 . S
O343 Co340 1.970 . S
O343 C342 1.258 . S
O344 Co341 1.966 . S
O344 C342 1.263 . S
C345 O346 1.235 . S
C345 O372 1.289 . S
O346 C345 1.235 . S
C347 C349 1.400 . S
C347 N350 1.351 . S
C347 C352 1.501 . S
C348 C349 1.387 . S
C348 N351 1.341 . S
C349 C347 1.400 . S
C349 C348 1.387 . S
N350 Co341 2.022 . S
N350 C347 1.351 . S
N350 N351 1.365 . S
N351 C348 1.341 . S
N351 N350 1.365 . S
N351 H371 0.862 . S
C352 C347 1.501 . S
C352 H353 0.961 . S
C352 H354 0.961 . S
C352 H355 0.960 . S
H353 C352 0.961 . S
H354 C352 0.961 . S
H355 C352 0.960 . S
C356 N357 1.342 . S
C356 C360 1.401 . S
C356 C361 1.499 . S
N357 Co340 1.989 . S
N357 C356 1.342 . S
N357 N358 1.388 . S
N358 Co341 1.993 . S
N358 N357 1.388 . S
N358 C359 1.346 . S
C359 N358 1.346 . S
C359 C360 1.396 . S
C359 C369 1.510 . S
C360 C356 1.401 . S
C360 C359 1.396 . S
C361 C356 1.499 . S
C361 H362 0.959 . S
C361 H363 0.960 . S
C361 H364 0.961 . S
H362 C361 0.959 . S
H363 C361 0.960 . S
H364 C361 0.961 . S
O365 Co340 1.967 . S
O365 C373 1.258 . S
O366 Co341 1.941 . S
O366 C373 1.266 . S
H367 C369 0.959 . S
H368 C369 0.961 . S
C369 C359 1.510 . S
C369 H367 0.959 . S
C369 H368 0.961 . S
C369 H370 0.960 . S
H370 C369 0.960 . S
H371 N351 0.862 . S
O372 Co340 1.920 . S
O372 C345 1.289 . S
C373 O365 1.258 . S
C373 O366 1.266 . S
Co374 O377 1.970 . S
Co374 N391 1.989 . S
Co374 O399 1.967 . S
Co374 O406 1.920 . S
Co375 O378 1.966 . S
Co375 N384 2.022 . S
Co375 N392 1.993 . S
Co375 O400 1.941 . S
C376 O377 1.258 . S
C376 O378 1.263 . S
O377 Co374 1.970 . S
O377 C376 1.258 . S
O378 Co375 1.966 . S
O378 C376 1.263 . S
C379 O380 1.235 . S
C379 O406 1.289 . S
O380 C379 1.235 . S
C381 C383 1.400 . S
C381 N384 1.351 . S
C381 C386 1.501 . S
C382 C383 1.387 . S
C382 N385 1.341 . S
C383 C381 1.400 . S
C383 C382 1.387 . S
N384 Co375 2.022 . S
N384 C381 1.351 . S
N384 N385 1.365 . S
N385 C382 1.341 . S
N385 N384 1.365 . S
N385 H405 0.862 . S
C386 C381 1.501 . S
C386 H387 0.961 . S
C386 H388 0.961 . S
C386 H389 0.960 . S
H387 C386 0.961 . S
H388 C386 0.961 . S
H389 C386 0.960 . S
C390 N391 1.342 . S
C390 C394 1.401 . S
C390 C395 1.499 . S
N391 Co374 1.989 . S
N391 C390 1.342 . S
N391 N392 1.388 . S
N392 Co375 1.993 . S
N392 N391 1.388 . S
N392 C393 1.346 . S
C393 N392 1.346 . S
C393 C394 1.396 . S
C393 C403 1.510 . S
C394 C390 1.401 . S
C394 C393 1.396 . S
C395 C390 1.499 . S
C395 H396 0.959 . S
C395 H397 0.960 . S
C395 H398 0.961 . S
H396 C395 0.959 . S
H397 C395 0.960 . S
H398 C395 0.961 . S
O399 Co374 1.967 . S
O399 C407 1.258 . S
O400 Co375 1.941 . S
O400 C407 1.266 . S
H401 C403 0.959 . S
H402 C403 0.961 . S
C403 C393 1.510 . S
C403 H401 0.959 . S
C403 H402 0.961 . S
C403 H404 0.960 . S
H404 C403 0.960 . S
H405 N385 0.862 . S
O406 Co374 1.920 . S
O406 C379 1.289 . S
C407 O399 1.258 . S
C407 O400 1.266 . S
C408 C409 1.349 . S
C408 C410 1.327 . S
C408 H433 0.950 . S
C409 C408 1.349 . S
C409 C425 1.349 . S
C410 C408 1.327 . S
C410 C429 1.429 . S
C410 H434 0.950 . S
C411 C428 1.574 . S
C411 C430 1.368 . S
C411 H435 0.949 . S
H412 C416 0.949 . S
C413 C414 1.349 . S
C413 C415 1.327 . S
C413 H436 0.950 . S
C414 C413 1.349 . S
C414 C426 1.349 . S
C415 C413 1.327 . S
C415 C431 1.429 . S
C415 H437 0.950 . S
C416 H412 0.949 . S
C416 C424 1.574 . S
C416 C432 1.368 . S
H417 C425 0.950 . S
H418 C423 0.950 . S
H419 C424 0.949 . S
H420 C426 0.950 . S
H421 C427 0.950 . S
H422 C428 0.949 . S
C423 H418 0.950 . S
C423 C425 1.327 . S
C423 C429 1.429 . S
C424 C416 1.574 . S
C424 H419 0.949 . S
C424 C430 1.368 . S
C425 C409 1.349 . S
C425 H417 0.950 . S
C425 C423 1.327 . S
C426 C414 1.349 . S
C426 H420 0.950 . S
C426 C427 1.327 . S
C427 H421 0.950 . S
C427 C426 1.327 . S
C427 C431 1.429 . S
C428 C411 1.574 . S
C428 H422 0.949 . S
C428 C432 1.368 . S
C429 C410 1.429 . S
C429 C423 1.429 . S
C429 C430 1.523 . S
C430 C411 1.368 . S
C430 C424 1.368 . S
C430 C429 1.523 . S
C431 C415 1.429 . S
C431 C427 1.429 . S
C431 C432 1.523 . S
C432 C416 1.368 . S
C432 C428 1.368 . S
C432 C431 1.523 . S
H433 C408 0.950 . S
H434 C410 0.950 . S
H435 C411 0.949 . S
H436 C413 0.950 . S
H437 C415 0.950 . S
C438 C439 1.349 . S
C438 C440 1.327 . S
C438 H463 0.950 . S
C439 C438 1.349 . S
C439 C455 1.349 . S
C440 C438 1.327 . S
C440 C459 1.429 . S
C440 H464 0.950 . S
C441 C458 1.574 . S
C441 C460 1.368 . S
C441 H465 0.949 . S
H442 C446 0.949 . S
C443 C444 1.349 . S
C443 C445 1.327 . S
C443 H466 0.950 . S
C444 C443 1.349 . S
C444 C456 1.349 . S
C445 C443 1.327 . S
C445 C461 1.429 . S
C445 H467 0.950 . S
C446 H442 0.949 . S
C446 C454 1.574 . S
C446 C462 1.368 . S
H447 C455 0.950 . S
H448 C453 0.950 . S
H449 C454 0.949 . S
H450 C456 0.950 . S
H451 C457 0.950 . S
H452 C458 0.949 . S
C453 H448 0.950 . S
C453 C455 1.327 . S
C453 C459 1.429 . S
C454 C446 1.574 . S
C454 H449 0.949 . S
C454 C460 1.368 . S
C455 C439 1.349 . S
C455 H447 0.950 . S
C455 C453 1.327 . S
C456 C444 1.349 . S
C456 H450 0.950 . S
C456 C457 1.327 . S
C457 H451 0.950 . S
C457 C456 1.327 . S
C457 C461 1.429 . S
C458 C441 1.574 . S
C458 H452 0.949 . S
C458 C462 1.368 . S
C459 C440 1.429 . S
C459 C453 1.429 . S
C459 C460 1.523 . S
C460 C441 1.368 . S
C460 C454 1.368 . S
C460 C459 1.523 . S
C461 C445 1.429 . S
C461 C457 1.429 . S
C461 C462 1.523 . S
C462 C446 1.368 . S
C462 C458 1.368 . S
C462 C461 1.523 . S
H463 C438 0.950 . S
H464 C440 0.950 . S
H465 C441 0.949 . S
H466 C443 0.950 . S
H467 C445 0.950 . S
C468 C469 1.349 . S
C468 C470 1.327 . S
C468 H493 0.950 . S
C469 C468 1.349 . S
C469 C485 1.349 . S
C470 C468 1.327 . S
C470 C489 1.429 . S
C470 H494 0.950 . S
C471 C488 1.574 . S
C471 C490 1.368 . S
C471 H495 0.949 . S
H472 C476 0.949 . S
C473 C474 1.349 . S
C473 C475 1.327 . S
C473 H496 0.950 . S
C474 C473 1.349 . S
C474 C486 1.349 . S
C475 C473 1.327 . S
C475 C491 1.429 . S
C475 H497 0.950 . S
C476 H472 0.949 . S
C476 C484 1.574 . S
C476 C492 1.368 . S
H477 C485 0.950 . S
H478 C483 0.950 . S
H479 C484 0.949 . S
H480 C486 0.950 . S
H481 C487 0.950 . S
H482 C488 0.949 . S
C483 H478 0.950 . S
C483 C485 1.327 . S
C483 C489 1.429 . S
C484 C476 1.574 . S
C484 H479 0.949 . S
C484 C490 1.368 . S
C485 C469 1.349 . S
C485 H477 0.950 . S
C485 C483 1.327 . S
C486 C474 1.349 . S
C486 H480 0.950 . S
C486 C487 1.327 . S
C487 H481 0.950 . S
C487 C486 1.327 . S
C487 C491 1.429 . S
C488 C471 1.574 . S
C488 H482 0.949 . S
C488 C492 1.368 . S
C489 C470 1.429 . S
C489 C483 1.429 . S
C489 C490 1.523 . S
C490 C471 1.368 . S
C490 C484 1.368 . S
C490 C489 1.523 . S
C491 C475 1.429 . S
C491 C487 1.429 . S
C491 C492 1.523 . S
C492 C476 1.368 . S
C492 C488 1.368 . S
C492 C491 1.523 . S
H493 C468 0.950 . S
H494 C470 0.950 . S
H495 C471 0.949 . S
H496 C473 0.950 . S
H497 C475 0.950 . S
C498 C499 1.349 . S
C498 C500 1.327 . S
C498 H523 0.950 . S
C499 C498 1.349 . S
C499 C515 1.349 . S
C500 C498 1.327 . S
C500 C519 1.429 . S
C500 H524 0.950 . S
C501 C518 1.574 . S
C501 C520 1.368 . S
C501 H525 0.949 . S
H502 C506 0.949 . S
C503 C504 1.349 . S
C503 C505 1.327 . S
C503 H526 0.950 . S
C504 C503 1.349 . S
C504 C516 1.349 . S
C505 C503 1.327 . S
C505 C521 1.429 . S
C505 H527 0.950 . S
C506 H502 0.949 . S
C506 C514 1.574 . S
C506 C522 1.368 . S
H507 C515 0.950 . S
H508 C513 0.950 . S
H509 C514 0.949 . S
H510 C516 0.950 . S
H511 C517 0.950 . S
H512 C518 0.949 . S
C513 H508 0.950 . S
C513 C515 1.327 . S
C513 C519 1.429 . S
C514 C506 1.574 . S
C514 H509 0.949 . S
C514 C520 1.368 . S
C515 C499 1.349 . S
C515 H507 0.950 . S
C515 C513 1.327 . S
C516 C504 1.349 . S
C516 H510 0.950 . S
C516 C517 1.327 . S
C517 H511 0.950 . S
C517 C516 1.327 . S
C517 C521 1.429 . S
C518 C501 1.574 . S
C518 H512 0.949 . S
C518 C522 1.368 . S
C519 C500 1.429 . S
C519 C513 1.429 . S
C519 C520 1.523 . S
C520 C501 1.368 . S
C520 C514 1.368 . S
C520 C519 1.523 . S
C521 C505 1.429 . S
C521 C517 1.429 . S
C521 C522 1.523 . S
C522 C506 1.368 . S
C522 C518 1.368 . S
C522 C521 1.523 . S
H523 C498 0.950 . S
H524 C500 0.950 . S
H525 C501 0.949 . S
H526 C503 0.950 . S
H527 C505 0.950 . S
C528 C529 1.349 . S
C528 C530 1.327 . S
C528 H553 0.950 . S
C529 C528 1.349 . S
C529 C545 1.349 . S
C530 C528 1.327 . S
C530 C549 1.429 . S
C530 H554 0.950 . S
C531 C548 1.574 . S
C531 C550 1.368 . S
C531 H555 0.949 . S
H532 C536 0.949 . S
C533 C534 1.349 . S
C533 C535 1.327 . S
C533 H556 0.950 . S
C534 C533 1.349 . S
C534 C546 1.349 . S
C535 C533 1.327 . S
C535 C551 1.429 . S
C535 H557 0.950 . S
C536 H532 0.949 . S
C536 C544 1.574 . S
C536 C552 1.368 . S
H537 C545 0.950 . S
H538 C543 0.950 . S
H539 C544 0.949 . S
H540 C546 0.950 . S
H541 C547 0.950 . S
H542 C548 0.949 . S
C543 H538 0.950 . S
C543 C545 1.327 . S
C543 C549 1.429 . S
C544 C536 1.574 . S
C544 H539 0.949 . S
C544 C550 1.368 . S
C545 C529 1.349 . S
C545 H537 0.950 . S
C545 C543 1.327 . S
C546 C534 1.349 . S
C546 H540 0.950 . S
C546 C547 1.327 . S
C547 H541 0.950 . S
C547 C546 1.327 . S
C547 C551 1.429 . S
C548 C531 1.574 . S
C548 H542 0.949 . S
C548 C552 1.368 . S
C549 C530 1.429 . S
C549 C543 1.429 . S
C549 C550 1.523 . S
C550 C531 1.368 . S
C550 C544 1.368 . S
C550 C549 1.523 . S
C551 C535 1.429 . S
C551 C547 1.429 . S
C551 C552 1.523 . S
C552 C536 1.368 . S
C552 C548 1.368 . S
C552 C551 1.523 . S
H553 C528 0.950 . S
H554 C530 0.950 . S
H555 C531 0.949 . S
H556 C533 0.950 . S
H557 C535 0.950 . S
C558 C559 1.349 . S
C558 C560 1.327 . S
C558 H583 0.950 . S
C559 C558 1.349 . S
C559 C575 1.349 . S
C560 C558 1.327 . S
C560 C579 1.429 . S
C560 H584 0.950 . S
C561 C578 1.574 . S
C561 C580 1.368 . S
C561 H585 0.949 . S
H562 C566 0.949 . S
C563 C564 1.349 . S
C563 C565 1.327 . S
C563 H586 0.950 . S
C564 C563 1.349 . S
C564 C576 1.349 . S
C565 C563 1.327 . S
C565 C581 1.429 . S
C565 H587 0.950 . S
C566 H562 0.949 . S
C566 C574 1.574 . S
C566 C582 1.368 . S
H567 C575 0.950 . S
H568 C573 0.950 . S
H569 C574 0.949 . S
H570 C576 0.950 . S
H571 C577 0.950 . S
H572 C578 0.949 . S
C573 H568 0.950 . S
C573 C575 1.327 . S
C573 C579 1.429 . S
C574 C566 1.574 . S
C574 H569 0.949 . S
C574 C580 1.368 . S
C575 C559 1.349 . S
C575 H567 0.950 . S
C575 C573 1.327 . S
C576 C564 1.349 . S
C576 H570 0.950 . S
C576 C577 1.327 . S
C577 H571 0.950 . S
C577 C576 1.327 . S
C577 C581 1.429 . S
C578 C561 1.574 . S
C578 H572 0.949 . S
C578 C582 1.368 . S
C579 C560 1.429 . S
C579 C573 1.429 . S
C579 C580 1.523 . S
C580 C561 1.368 . S
C580 C574 1.368 . S
C580 C579 1.523 . S
C581 C565 1.429 . S
C581 C577 1.429 . S
C581 C582 1.523 . S
C582 C566 1.368 . S
C582 C578 1.368 . S
C582 C581 1.523 . S
H583 C558 0.950 . S
H584 C560 0.950 . S
H585 C561 0.949 . S
H586 C563 0.950 . S
H587 C565 0.950 . S
C588 C589 1.349 . S
C588 C590 1.327 . S
C588 H613 0.950 . S
C589 C588 1.349 . S
C589 C605 1.349 . S
C590 C588 1.327 . S
C590 C609 1.429 . S
C590 H614 0.950 . S
C591 C608 1.574 1_565 S
C591 C610 1.368 . S
C591 H615 0.949 . S
H592 C596 0.949 . S
C593 C594 1.349 . S
C593 C595 1.327 . S
C593 H616 0.950 . S
C594 C593 1.349 . S
C594 C606 1.349 . S
C595 C593 1.327 . S
C595 C611 1.429 . S
C595 H617 0.950 . S
C596 H592 0.949 . S
C596 C604 1.574 1_545 S
C596 C612 1.368 . S
H597 C605 0.950 . S
H598 C603 0.950 . S
H599 C604 0.949 . S
H600 C606 0.950 . S
H601 C607 0.950 . S
H602 C608 0.949 . S
C603 H598 0.950 . S
C603 C605 1.327 . S
C603 C609 1.429 . S
C604 C596 1.574 1_565 S
C604 H599 0.949 . S
C604 C610 1.368 . S
C605 C589 1.349 . S
C605 H597 0.950 . S
C605 C603 1.327 . S
C606 C594 1.349 . S
C606 H600 0.950 . S
C606 C607 1.327 . S
C607 H601 0.950 . S
C607 C606 1.327 . S
C607 C611 1.429 . S
C608 C591 1.574 1_545 S
C608 H602 0.949 . S
C608 C612 1.368 . S
C609 C590 1.429 . S
C609 C603 1.429 . S
C609 C610 1.523 . S
C610 C591 1.368 . S
C610 C604 1.368 . S
C610 C609 1.523 . S
C611 C595 1.429 . S
C611 C607 1.429 . S
C611 C612 1.523 . S
C612 C596 1.368 . S
C612 C608 1.368 . S
C612 C611 1.523 . S
H613 C588 0.950 . S
H614 C590 0.950 . S
H615 C591 0.949 . S
H616 C593 0.950 . S
H617 C595 0.950 . S
C618 C619 1.349 . S
C618 C620 1.327 . S
C618 H643 0.950 . S
C619 C618 1.349 . S
C619 C635 1.349 . S
C620 C618 1.327 . S
C620 C639 1.429 . S
C620 H644 0.950 . S
C621 C638 1.574 . S
C621 C640 1.368 . S
C621 H645 0.949 . S
H622 C626 0.949 . S
C623 C624 1.349 . S
C623 C625 1.327 . S
C623 H646 0.950 . S
C624 C623 1.349 . S
C624 C636 1.349 . S
C625 C623 1.327 . S
C625 C641 1.429 . S
C625 H647 0.950 . S
C626 H622 0.949 . S
C626 C634 1.574 . S
C626 C642 1.368 . S
H627 C635 0.950 . S
H628 C633 0.950 . S
H629 C634 0.949 . S
H630 C636 0.950 . S
H631 C637 0.950 . S
H632 C638 0.949 . S
C633 H628 0.950 . S
C633 C635 1.327 . S
C633 C639 1.429 . S
C634 C626 1.574 . S
C634 H629 0.949 . S
C634 C640 1.368 . S
C635 C619 1.349 . S
C635 H627 0.950 . S
C635 C633 1.327 . S
C636 C624 1.349 . S
C636 H630 0.950 . S
C636 C637 1.327 . S
C637 H631 0.950 . S
C637 C636 1.327 . S
C637 C641 1.429 . S
C638 C621 1.574 . S
C638 H632 0.949 . S
C638 C642 1.368 . S
C639 C620 1.429 . S
C639 C633 1.429 . S
C639 C640 1.523 . S
C640 C621 1.368 . S
C640 C634 1.368 . S
C640 C639 1.523 . S
C641 C625 1.429 . S
C641 C637 1.429 . S
C641 C642 1.523 . S
C642 C626 1.368 . S
C642 C638 1.368 . S
C642 C641 1.523 . S
H643 C618 0.950 . S
H644 C620 0.950 . S
H645 C621 0.949 . S
H646 C623 0.950 . S
H647 C625 0.950 . S
C648 C649 1.349 . S
C648 C650 1.327 . S
C648 H673 0.950 . S
C649 C648 1.349 . S
C649 C665 1.349 . S
C650 C648 1.327 . S
C650 C669 1.429 . S
C650 H674 0.950 . S
C651 C668 1.574 1_455 S
C651 C670 1.368 . S
C651 H675 0.949 . S
H652 C656 0.949 . S
C653 C654 1.349 . S
C653 C655 1.327 . S
C653 H676 0.950 . S
C654 C653 1.349 . S
C654 C666 1.349 . S
C655 C653 1.327 . S
C655 C671 1.429 . S
C655 H677 0.950 . S
C656 H652 0.949 . S
C656 C664 1.574 1_655 S
C656 C672 1.368 . S
H657 C665 0.950 . S
H658 C663 0.950 . S
H659 C664 0.949 . S
H660 C666 0.950 . S
H661 C667 0.950 . S
H662 C668 0.949 . S
C663 H658 0.950 . S
C663 C665 1.327 . S
C663 C669 1.429 . S
C664 C656 1.574 1_455 S
C664 H659 0.949 . S
C664 C670 1.368 . S
C665 C649 1.349 . S
C665 H657 0.950 . S
C665 C663 1.327 . S
C666 C654 1.349 . S
C666 H660 0.950 . S
C666 C667 1.327 . S
C667 H661 0.950 . S
C667 C666 1.327 . S
C667 C671 1.429 . S
C668 C651 1.574 1_655 S
C668 H662 0.949 . S
C668 C672 1.368 . S
C669 C650 1.429 . S
C669 C663 1.429 . S
C669 C670 1.523 . S
C670 C651 1.368 . S
C670 C664 1.368 . S
C670 C669 1.523 . S
C671 C655 1.429 . S
C671 C667 1.429 . S
C671 C672 1.523 . S
C672 C656 1.368 . S
C672 C668 1.368 . S
C672 C671 1.523 . S
H673 C648 0.950 . S
H674 C650 0.950 . S
H675 C651 0.949 . S
H676 C653 0.950 . S
H677 C655 0.950 . S
C678 C679 1.349 . S
C678 C680 1.327 . S
C678 H703 0.948 . S
C679 C678 1.349 . S
C679 C695 1.349 . S
C680 C678 1.327 . S
C680 C699 1.429 . S
C680 H704 0.950 1_556 S
C681 C698 1.574 1_565 S
C681 C700 1.368 . S
C681 H705 0.949 . S
H682 C686 0.949 . S
C683 C684 1.349 . S
C683 C685 1.327 . S
C683 H706 0.948 . S
C684 C683 1.349 . S
C684 C696 1.349 . S
C685 C683 1.327 . S
C685 C701 1.429 . S
C685 H707 0.950 1_554 S
C686 H682 0.949 . S
C686 C694 1.574 1_545 S
C686 C702 1.368 . S
H687 C695 0.950 . S
H688 C693 0.950 . S
H689 C694 0.949 . S
H690 C696 0.950 . S
H691 C697 0.950 . S
H692 C698 0.949 . S
C693 H688 0.950 . S
C693 C695 1.327 . S
C693 C699 1.429 . S
C694 C686 1.574 1_565 S
C694 H689 0.949 . S
C694 C700 1.368 1_554 S
C695 C679 1.349 . S
C695 H687 0.950 . S
C695 C693 1.327 . S
C696 C684 1.349 . S
C696 H690 0.950 . S
C696 C697 1.327 . S
C697 H691 0.950 . S
C697 C696 1.327 . S
C697 C701 1.429 . S
C698 C681 1.574 1_545 S
C698 H692 0.949 . S
C698 C702 1.368 1_556 S
C699 C680 1.429 . S
C699 C693 1.429 . S
C699 C700 1.523 . S
C700 C681 1.368 . S
C700 C694 1.368 1_556 S
C700 C699 1.523 . S
C701 C685 1.429 . S
C701 C697 1.429 . S
C701 C702 1.523 . S
C702 C686 1.368 . S
C702 C698 1.368 1_554 S
C702 C701 1.523 . S
H703 C678 0.948 . S
H704 C680 0.950 1_554 S
H705 C681 0.949 . S
H706 C683 0.948 . S
H707 C685 0.950 1_556 S
C708 C709 1.349 . S
C708 C710 1.327 . S
C708 H733 0.950 . S
C709 C708 1.349 . S
C709 C725 1.349 . S
C710 C708 1.327 . S
C710 C729 1.429 . S
C710 H734 0.950 . S
C711 C728 1.574 . S
C711 C730 1.368 . S
C711 H735 0.949 . S
H712 C716 0.949 . S
C713 C714 1.349 . S
C713 C715 1.327 . S
C713 H736 0.950 . S
C714 C713 1.349 . S
C714 C726 1.349 . S
C715 C713 1.327 . S
C715 C731 1.429 . S
C715 H737 0.950 . S
C716 H712 0.949 . S
C716 C724 1.574 . S
C716 C732 1.368 . S
H717 C725 0.950 . S
H718 C723 0.950 . S
H719 C724 0.949 . S
H720 C726 0.950 . S
H721 C727 0.950 . S
H722 C728 0.949 . S
C723 H718 0.950 . S
C723 C725 1.327 . S
C723 C729 1.429 . S
C724 C716 1.574 . S
C724 H719 0.949 . S
C724 C730 1.368 . S
C725 C709 1.349 . S
C725 H717 0.950 . S
C725 C723 1.327 . S
C726 C714 1.349 . S
C726 H720 0.950 . S
C726 C727 1.327 . S
C727 H721 0.950 . S
C727 C726 1.327 . S
C727 C731 1.429 . S
C728 C711 1.574 . S
C728 H722 0.949 . S
C728 C732 1.368 . S
C729 C710 1.429 . S
C729 C723 1.429 . S
C729 C730 1.523 . S
C730 C711 1.368 . S
C730 C724 1.368 . S
C730 C729 1.523 . S
C731 C715 1.429 . S
C731 C727 1.429 . S
C731 C732 1.523 . S
C732 C716 1.368 . S
C732 C728 1.368 . S
C732 C731 1.523 . S
H733 C708 0.950 . S
H734 C710 0.950 . S
H735 C711 0.949 . S
H736 C713 0.950 . S
H737 C715 0.950 . S
C738 C739 1.349 . S
C738 C740 1.327 . S
C738 H763 0.950 . S
C739 C738 1.349 . S
C739 C755 1.349 . S
C740 C738 1.327 . S
C740 C759 1.429 . S
C740 H764 0.950 . S
C741 C758 1.574 1_455 S
C741 C760 1.368 . S
C741 H765 0.949 . S
H742 C746 0.949 . S
C743 C744 1.349 . S
C743 C745 1.327 . S
C743 H766 0.950 . S
C744 C743 1.349 . S
C744 C756 1.349 . S
C745 C743 1.327 . S
C745 C761 1.429 . S
C745 H767 0.950 . S
C746 H742 0.949 . S
C746 C754 1.574 1_655 S
C746 C762 1.368 . S
H747 C755 0.950 . S
H748 C753 0.950 . S
H749 C754 0.949 . S
H750 C756 0.950 . S
H751 C757 0.950 . S
H752 C758 0.949 . S
C753 H748 0.950 . S
C753 C755 1.327 . S
C753 C759 1.429 . S
C754 C746 1.574 1_455 S
C754 H749 0.949 . S
C754 C760 1.368 . S
C755 C739 1.349 . S
C755 H747 0.950 . S
C755 C753 1.327 . S
C756 C744 1.349 . S
C756 H750 0.950 . S
C756 C757 1.327 . S
C757 H751 0.950 . S
C757 C756 1.327 . S
C757 C761 1.429 . S
C758 C741 1.574 1_655 S
C758 H752 0.949 . S
C758 C762 1.368 . S
C759 C740 1.429 . S
C759 C753 1.429 . S
C759 C760 1.523 . S
C760 C741 1.368 . S
C760 C754 1.368 . S
C760 C759 1.523 . S
C761 C745 1.429 . S
C761 C757 1.429 . S
C761 C762 1.523 . S
C762 C746 1.368 . S
C762 C758 1.368 . S
C762 C761 1.523 . S
H763 C738 0.950 . S
H764 C740 0.950 . S
H765 C741 0.949 . S
H766 C743 0.950 . S
H767 C745 0.950 . S
C768 C769 1.382 . S
C768 C770 1.301 1_565 S
C768 H793 0.943 . S
C769 C768 1.382 . S
C769 C785 1.349 . S
C770 C768 1.301 1_545 S
C770 C789 1.429 . S
C770 H794 0.950 . S
C771 C788 1.574 . S
C771 C790 1.368 . S
C771 H795 0.949 . S
H772 C776 0.949 . S
C773 C774 1.349 . S
C773 C775 1.327 . S
C773 H796 0.950 . S
C774 C773 1.349 . S
C774 C786 1.349 . S
C775 C773 1.327 . S
C775 C791 1.429 . S
C775 H797 0.950 . S
C776 H772 0.949 . S
C776 C784 1.574 . S
C776 C792 1.368 . S
H777 C785 0.950 . S
H778 C783 0.950 . S
H779 C784 0.949 . S
H780 C786 0.950 . S
H781 C787 0.950 . S
H782 C788 0.949 . S
C783 H778 0.950 . S
C783 C785 1.327 1_545 S
C783 C789 1.429 . S
C784 C776 1.574 . S
C784 H779 0.949 . S
C784 C790 1.368 . S
C785 C769 1.349 . S
C785 H777 0.950 . S
C785 C783 1.327 1_565 S
C786 C774 1.349 . S
C786 H780 0.950 . S
C786 C787 1.327 . S
C787 H781 0.950 . S
C787 C786 1.327 . S
C787 C791 1.429 . S
C788 C771 1.574 . S
C788 H782 0.949 . S
C788 C792 1.368 . S
C789 C770 1.429 . S
C789 C783 1.429 . S
C789 C790 1.523 . S
C790 C771 1.368 . S
C790 C784 1.368 . S
C790 C789 1.523 . S
C791 C775 1.429 . S
C791 C787 1.429 . S
C791 C792 1.523 . S
C792 C776 1.368 . S
C792 C788 1.368 . S
C792 C791 1.523 . S
H793 C768 0.943 . S
H794 C770 0.950 . S
H795 C771 0.949 . S
H796 C773 0.950 . S
H797 C775 0.950 . S
C798 C799 1.349 . S
C798 C800 1.327 . S
C798 H823 0.950 . S
C799 C798 1.349 . S
C799 C815 1.349 . S
C800 C798 1.327 . S
C800 C819 1.429 . S
C800 H824 0.950 . S
C801 C818 1.574 . S
C801 C820 1.368 . S
C801 H825 0.949 . S
H802 C806 0.949 . S
C803 C804 1.349 . S
C803 C805 1.327 . S
C803 H826 0.950 . S
C804 C803 1.349 . S
C804 C816 1.349 . S
C805 C803 1.327 . S
C805 C821 1.429 . S
C805 H827 0.950 . S
C806 H802 0.949 . S
C806 C814 1.574 . S
C806 C822 1.368 . S
H807 C815 0.950 . S
H808 C813 0.950 . S
H809 C814 0.949 . S
H810 C816 0.950 . S
H811 C817 0.950 . S
H812 C818 0.949 . S
C813 H808 0.950 . S
C813 C815 1.327 . S
C813 C819 1.429 . S
C814 C806 1.574 . S
C814 H809 0.949 . S
C814 C820 1.368 . S
C815 C799 1.349 . S
C815 H807 0.950 . S
C815 C813 1.327 . S
C816 C804 1.349 . S
C816 H810 0.950 . S
C816 C817 1.327 . S
C817 H811 0.950 . S
C817 C816 1.327 . S
C817 C821 1.429 . S
C818 C801 1.574 . S
C818 H812 0.949 . S
C818 C822 1.368 . S
C819 C800 1.429 . S
C819 C813 1.429 . S
C819 C820 1.523 . S
C820 C801 1.368 . S
C820 C814 1.368 . S
C820 C819 1.523 . S
C821 C805 1.429 . S
C821 C817 1.429 . S
C821 C822 1.523 . S
C822 C806 1.368 . S
C822 C818 1.368 . S
C822 C821 1.523 . S
H823 C798 0.950 . S
H824 C800 0.950 . S
H825 C801 0.949 . S
H826 C803 0.950 . S
H827 C805 0.950 . S
C828 C829 1.349 . S
C828 C830 1.327 . S
C828 H853 0.950 . S
C829 C828 1.349 . S
C829 C845 1.349 . S
C830 C828 1.327 . S
C830 C849 1.429 . S
C830 H854 0.950 . S
C831 C848 1.574 . S
C831 C850 1.368 . S
C831 H855 0.949 . S
H832 C836 0.949 . S
C833 C834 1.349 . S
C833 C835 1.327 1_455 S
C833 H856 0.950 . S
C834 C833 1.349 . S
C834 C846 1.349 1_455 S
C835 C833 1.327 1_655 S
C835 C851 1.429 . S
C835 H857 0.950 . S
C836 H832 0.949 . S
C836 C844 1.574 . S
C836 C852 1.368 . S
H837 C845 0.950 . S
H838 C843 0.950 . S
H839 C844 0.949 . S
H840 C846 0.950 . S
H841 C847 0.950 . S
H842 C848 0.949 . S
C843 H838 0.950 . S
C843 C845 1.327 . S
C843 C849 1.429 . S
C844 C836 1.574 . S
C844 H839 0.949 . S
C844 C850 1.368 . S
C845 C829 1.349 . S
C845 H837 0.950 . S
C845 C843 1.327 . S
C846 C834 1.349 1_655 S
C846 H840 0.950 . S
C846 C847 1.327 . S
C847 H841 0.950 . S
C847 C846 1.327 . S
C847 C851 1.429 . S
C848 C831 1.574 . S
C848 H842 0.949 . S
C848 C852 1.368 . S
C849 C830 1.429 . S
C849 C843 1.429 . S
C849 C850 1.523 . S
C850 C831 1.368 . S
C850 C844 1.368 . S
C850 C849 1.523 . S
C851 C835 1.429 . S
C851 C847 1.429 . S
C851 C852 1.523 . S
C852 C836 1.368 . S
C852 C848 1.368 . S
C852 C851 1.523 . S
H853 C828 0.950 . S
H854 C830 0.950 . S
H855 C831 0.949 . S
H856 C833 0.950 . S
H857 C835 0.950 . S
C858 C859 1.349 . S
C858 C860 1.327 . S
C858 H883 0.950 . S
C859 C858 1.349 . S
C859 C875 1.349 1_545 S
C860 C858 1.327 . S
C860 C879 1.429 1_545 S
C860 H884 0.950 . S
C861 C878 1.574 . S
C861 C880 1.368 . S
C861 H885 0.949 . S
H862 C866 0.949 . S
C863 C864 1.349 . S
C863 C865 1.327 . S
C863 H886 0.950 . S
C864 C863 1.349 . S
C864 C876 1.349 . S
C865 C863 1.327 . S
C865 C881 1.429 . S
C865 H887 0.950 . S
C866 H862 0.949 . S
C866 C874 1.574 . S
C866 C882 1.368 . S
H867 C875 0.950 . S
H868 C873 0.950 . S
H869 C874 0.949 . S
H870 C876 0.950 . S
H871 C877 0.950 . S
H872 C878 0.949 . S
C873 H868 0.950 . S
C873 C875 1.327 . S
C873 C879 1.429 . S
C874 C866 1.574 . S
C874 H869 0.949 . S
C874 C880 1.368 . S
C875 C859 1.349 1_565 S
C875 H867 0.950 . S
C875 C873 1.327 . S
C876 C864 1.349 . S
C876 H870 0.950 . S
C876 C877 1.327 . S
C877 H871 0.950 . S
C877 C876 1.327 . S
C877 C881 1.429 . S
C878 C861 1.574 . S
C878 H872 0.949 . S
C878 C882 1.368 . S
C879 C860 1.429 1_565 S
C879 C873 1.429 . S
C879 C880 1.523 . S
C880 C861 1.368 . S
C880 C874 1.368 . S
C880 C879 1.523 . S
C881 C865 1.429 . S
C881 C877 1.429 . S
C881 C882 1.523 . S
C882 C866 1.368 . S
C882 C878 1.368 . S
C882 C881 1.523 . S
H883 C858 0.950 . S
H884 C860 0.950 . S
H885 C861 0.949 . S
H886 C863 0.950 . S
H887 C865 0.950 . S
C888 C889 1.349 . S
C888 C890 1.327 . S
C888 H913 0.950 . S
C889 C888 1.349 . S
C889 C905 1.349 . S
C890 C888 1.327 . S
C890 C909 1.429 1_556 S
C890 H914 0.950 . S
C891 C908 1.574 . S
C891 C910 1.368 . S
C891 H915 0.949 . S
H892 C896 0.949 . S
C893 C894 1.349 . S
C893 C895 1.327 . S
C893 H916 0.950 . S
C894 C893 1.349 . S
C894 C906 1.349 . S
C895 C893 1.327 . S
C895 C911 1.429 . S
C895 H917 0.950 . S
C896 H892 0.949 . S
C896 C904 1.574 . S
C896 C912 1.368 . S
H897 C905 0.950 . S
H898 C903 0.950 . S
H899 C904 0.959 . S
H900 C906 0.950 . S
H901 C907 0.950 . S
H902 C908 0.949 . S
C903 H898 0.950 . S
C903 C905 1.327 1_554 S
C903 C909 1.429 . S
C904 C896 1.574 . S
C904 H899 0.959 . S
C904 C910 1.368 . S
C905 C889 1.349 . S
C905 H897 0.950 . S
C905 C903 1.327 1_556 S
C906 C894 1.349 . S
C906 H900 0.950 . S
C906 C907 1.327 . S
C907 H901 0.950 . S
C907 C906 1.327 . S
C907 C911 1.429 . S
C908 C891 1.574 . S
C908 H902 0.949 . S
C908 C912 1.368 . S
C909 C890 1.429 1_554 S
C909 C903 1.429 . S
C909 C910 1.523 . S
C910 C891 1.368 . S
C910 C904 1.368 . S
C910 C909 1.523 . S
C911 C895 1.429 . S
C911 C907 1.429 . S
C911 C912 1.523 . S
C912 C896 1.368 . S
C912 C908 1.368 . S
C912 C911 1.523 . S
H913 C888 0.950 . S
H914 C890 0.950 . S
H915 C891 0.949 . S
H916 C893 0.950 . S
H917 C895 0.950 . S
C918 C919 1.349 . S
C918 C920 1.327 . S
C918 H943 0.950 . S
C919 C918 1.349 . S
C919 C935 1.349 1_655 S
C920 C918 1.327 . S
C920 C939 1.429 1_655 S
C920 H944 0.950 . S
C921 C938 1.574 . S
C921 C940 1.368 . S
C921 H945 0.949 . S
H922 C926 0.949 . S
C923 C924 1.349 . S
C923 C925 1.327 . S
C923 H946 0.950 . S
C924 C923 1.349 . S
C924 C936 1.349 . S
C925 C923 1.327 . S
C925 C941 1.429 . S
C925 H947 0.950 . S
C926 H922 0.949 . S
C926 C934 1.574 . S
C926 C942 1.368 . S
H927 C935 0.950 . S
H928 C933 0.950 . S
H929 C934 0.949 . S
H930 C936 0.950 . S
H931 C937 0.950 . S
H932 C938 0.949 . S
C933 H928 0.950 . S
C933 C935 1.327 . S
C933 C939 1.429 . S
C934 C926 1.574 . S
C934 H929 0.949 . S
C934 C940 1.368 . S
C935 C919 1.349 1_455 S
C935 H927 0.950 . S
C935 C933 1.327 . S
C936 C924 1.349 . S
C936 H930 0.950 . S
C936 C937 1.327 . S
C937 H931 0.950 . S
C937 C936 1.327 . S
C937 C941 1.429 . S
C938 C921 1.574 . S
C938 H932 0.949 . S
C938 C942 1.368 . S
C939 C920 1.429 1_455 S
C939 C933 1.429 . S
C939 C940 1.523 . S
C940 C921 1.368 . S
C940 C934 1.368 . S
C940 C939 1.523 . S
C941 C925 1.429 . S
C941 C937 1.429 . S
C941 C942 1.523 . S
C942 C926 1.368 . S
C942 C938 1.368 . S
C942 C941 1.523 . S
H943 C918 0.950 . S
H944 C920 0.950 . S
H945 C921 0.949 . S
H946 C923 0.950 . S
H947 C925 0.950 . S
C948 C949 1.349 1_655 S
C948 C950 1.327 . S
C948 H973 0.950 . S
C949 C948 1.349 1_455 S
C949 C965 1.349 . S
C950 C948 1.327 . S
C950 C969 1.429 . S
C950 H974 0.950 . S
C951 C968 1.574 . S
C951 C970 1.368 . S
C951 H975 0.949 . S
H952 C956 0.949 . S
C953 C954 1.349 . S
C953 C955 1.327 . S
C953 H976 0.950 . S
C954 C953 1.349 . S
C954 C966 1.349 . S
C955 C953 1.327 . S
C955 C971 1.429 . S
C955 H977 0.950 . S
C956 H952 0.949 . S
C956 C964 1.574 . S
C956 C972 1.368 . S
H957 C965 0.950 . S
H958 C963 0.938 . S
H959 C964 0.949 . S
H960 C966 0.950 . S
H961 C967 0.950 . S
H962 C968 0.949 . S
C963 H958 0.938 . S
C963 C965 1.327 1_655 S
C963 C969 1.429 . S
C964 C956 1.574 . S
C964 H959 0.949 . S
C964 C970 1.368 . S
C965 C949 1.349 . S
C965 H957 0.950 . S
C965 C963 1.327 1_455 S
C966 C954 1.349 . S
C966 H960 0.950 . S
C966 C967 1.327 . S
C967 H961 0.950 . S
C967 C966 1.327 . S
C967 C971 1.429 . S
C968 C951 1.574 . S
C968 H962 0.949 . S
C968 C972 1.368 . S
C969 C950 1.429 . S
C969 C963 1.429 . S
C969 C970 1.523 . S
C970 C951 1.368 . S
C970 C964 1.368 . S
C970 C969 1.523 . S
C971 C955 1.429 . S
C971 C967 1.429 . S
C971 C972 1.523 . S
C972 C956 1.368 . S
C972 C968 1.368 . S
C972 C971 1.523 . S
H973 C948 0.950 . S
H974 C950 0.950 . S
H975 C951 0.949 . S
H976 C953 0.950 . S
H977 C955 0.950 . S
C978 C979 1.349 . S
C978 C980 1.327 . S
C978 H1003 0.950 . S
C979 C978 1.349 . S
C979 C995 1.349 . S
C980 C978 1.327 . S
C980 C999 1.429 . S
C980 H1004 0.950 . S
C981 C998 1.574 . S
C981 C1000 1.368 . S
C981 H1005 0.949 . S
H982 C986 0.949 . S
C983 C984 1.349 1_565 S
C983 C985 1.327 . S
C983 H1006 0.950 . S
C984 C983 1.349 1_545 S
C984 C996 1.349 . S
C985 C983 1.327 . S
C985 C1001 1.429 . S
C985 H1007 0.950 . S
C986 H982 0.949 . S
C986 C994 1.574 . S
C986 C1002 1.368 . S
H987 C995 0.950 . S
H988 C993 0.950 . S
H989 C994 0.949 . S
H990 C996 0.950 . S
H991 C997 0.950 . S
H992 C998 0.949 . S
C993 H988 0.950 . S
C993 C995 1.327 . S
C993 C999 1.429 . S
C994 C986 1.574 . S
C994 H989 0.949 . S
C994 C1000 1.368 . S
C995 C979 1.349 . S
C995 H987 0.950 . S
C995 C993 1.327 . S
C996 C984 1.349 . S
C996 H990 0.950 . S
C996 C997 1.327 . S
C997 H991 0.950 . S
C997 C996 1.327 . S
C997 C1001 1.429 1_545 S
C998 C981 1.574 . S
C998 H992 0.949 . S
C998 C1002 1.368 . S
C999 C980 1.429 . S
C999 C993 1.429 . S
C999 C1000 1.523 . S
C1000 C981 1.368 . S
C1000 C994 1.368 . S
C1000 C999 1.523 . S
C1001 C985 1.429 . S
C1001 C997 1.429 1_565 S
C1001 C1002 1.523 . S
C1002 C986 1.368 . S
C1002 C998 1.368 . S
C1002 C1001 1.523 . S
H1003 C978 0.950 . S
H1004 C980 0.950 . S
H1005 C981 0.949 . S
H1006 C983 0.950 . S
H1007 C985 0.950 . S
C1008 C1009 1.349 . S
C1008 C1010 1.327 . S
C1008 H1033 0.950 . S
C1009 C1008 1.349 . S
C1009 C1025 1.349 . S
C1010 C1008 1.327 . S
C1010 C1029 1.429 . S
C1010 H1034 0.950 . S
C1011 C1028 1.574 . S
C1011 C1030 1.368 . S
C1011 H1035 0.949 . S
H1012 C1016 0.949 . S
C1013 C1014 1.349 . S
C1013 C1015 1.327 . S
C1013 H1036 0.950 . S
C1014 C1013 1.349 . S
C1014 C1026 1.349 . S
C1015 C1013 1.327 . S
C1015 C1031 1.429 . S
C1015 H1037 0.950 . S
C1016 H1012 0.949 . S
C1016 C1024 1.574 . S
C1016 C1032 1.368 . S
H1017 C1025 0.950 . S
H1018 C1023 0.950 . S
H1019 C1024 0.949 . S
H1020 C1026 0.950 . S
H1021 C1027 0.950 . S
H1022 C1028 0.949 . S
C1023 H1018 0.950 . S
C1023 C1025 1.327 . S
C1023 C1029 1.429 . S
C1024 C1016 1.574 . S
C1024 H1019 0.949 . S
C1024 C1030 1.368 . S
C1025 C1009 1.349 . S
C1025 H1017 0.950 . S
C1025 C1023 1.327 . S
C1026 C1014 1.349 . S
C1026 H1020 0.950 . S
C1026 C1027 1.327 . S
C1027 H1021 0.950 . S
C1027 C1026 1.327 . S
C1027 C1031 1.429 . S
C1028 C1011 1.574 . S
C1028 H1022 0.949 . S
C1028 C1032 1.368 . S
C1029 C1010 1.429 . S
C1029 C1023 1.429 . S
C1029 C1030 1.523 . S
C1030 C1011 1.368 . S
C1030 C1024 1.368 . S
C1030 C1029 1.523 . S
C1031 C1015 1.429 . S
C1031 C1027 1.429 . S
C1031 C1032 1.523 . S
C1032 C1016 1.368 . S
C1032 C1028 1.368 . S
C1032 C1031 1.523 . S
H1033 C1008 0.950 . S
H1034 C1010 0.950 . S
H1035 C1011 0.949 . S
H1036 C1013 0.950 . S
H1037 C1015 0.950 . S
C1038 C1039 1.349 1_455 S
C1038 C1040 1.327 . S
C1038 H1063 0.950 . S
C1039 C1038 1.349 1_655 S
C1039 C1055 1.349 . S
C1040 C1038 1.327 . S
C1040 C1059 1.429 1_554 S
C1040 H1064 0.950 . S
C1041 C1058 1.574 . S
C1041 C1060 1.368 . S
C1041 H1065 0.949 . S
H1042 C1046 0.949 . S
C1043 C1044 1.349 . S
C1043 C1045 1.327 . S
C1043 H1066 0.950 . S
C1044 C1043 1.349 . S
C1044 C1056 1.349 . S
C1045 C1043 1.327 . S
C1045 C1061 1.429 . S
C1045 H1067 0.950 . S
C1046 H1042 0.949 . S
C1046 C1054 1.574 . S
C1046 C1062 1.368 . S
H1047 C1055 0.962 . S
H1048 C1053 0.950 . S
H1049 C1054 0.949 1_554 S
H1050 C1056 0.950 . S
H1051 C1057 0.950 . S
H1052 C1058 0.949 . S
C1053 H1048 0.950 . S
C1053 C1055 1.327 1_556 S
C1053 C1059 1.429 1_655 S
C1054 C1046 1.574 . S
C1054 H1049 0.949 1_556 S
C1054 C1060 1.368 . S
C1055 C1039 1.349 . S
C1055 H1047 0.962 . S
C1055 C1053 1.327 1_554 S
C1056 C1044 1.349 . S
C1056 H1050 0.950 . S
C1056 C1057 1.327 . S
C1057 H1051 0.950 . S
C1057 C1056 1.327 . S
C1057 C1061 1.429 . S
C1058 C1041 1.574 . S
C1058 H1052 0.949 . S
C1058 C1062 1.368 . S
C1059 C1040 1.429 1_556 S
C1059 C1053 1.429 1_455 S
C1059 C1060 1.523 . S
C1060 C1041 1.368 . S
C1060 C1054 1.368 . S
C1060 C1059 1.523 . S
C1061 C1045 1.429 . S
C1061 C1057 1.429 . S
C1061 C1062 1.523 . S
C1062 C1046 1.368 . S
C1062 C1058 1.368 . S
C1062 C1061 1.523 . S
H1063 C1038 0.950 . S
H1064 C1040 0.950 . S
H1065 C1041 0.949 . S
H1066 C1043 0.950 . S
H1067 C1045 0.950 . S
C1068 C1069 1.349 . S
C1068 C1070 1.327 1_565 S
C1068 H1093 0.950 . S
C1069 C1068 1.349 . S
C1069 C1085 1.349 . S
C1070 C1068 1.327 1_545 S
C1070 C1089 1.429 . S
C1070 H1094 0.950 . S
C1071 C1088 1.574 . S
C1071 C1090 1.368 . S
C1071 H1095 0.949 . S
H1072 C1076 0.949 . S
C1073 C1074 1.349 . S
C1073 C1075 1.327 . S
C1073 H1096 0.950 . S
C1074 C1073 1.349 . S
C1074 C1086 1.349 . S
C1075 C1073 1.327 . S
C1075 C1091 1.429 . S
C1075 H1097 0.950 . S
C1076 H1072 0.949 . S
C1076 C1084 1.574 . S
C1076 C1092 1.368 . S
H1077 C1085 0.950 . S
H1078 C1083 0.950 . S
H1079 C1084 0.949 . S
H1080 C1086 0.950 . S
H1081 C1087 0.950 . S
H1082 C1088 0.949 . S
C1083 H1078 0.950 . S
C1083 C1085 1.327 1_545 S
C1083 C1089 1.429 . S
C1084 C1076 1.574 . S
C1084 H1079 0.949 . S
C1084 C1090 1.368 . S
C1085 C1069 1.349 . S
C1085 H1077 0.950 . S
C1085 C1083 1.327 1_565 S
C1086 C1074 1.349 . S
C1086 H1080 0.950 . S
C1086 C1087 1.327 . S
C1087 H1081 0.950 . S
C1087 C1086 1.327 . S
C1087 C1091 1.429 . S
C1088 C1071 1.574 . S
C1088 H1082 0.949 . S
C1088 C1092 1.368 . S
C1089 C1070 1.429 . S
C1089 C1083 1.429 . S
C1089 C1090 1.523 . S
C1090 C1071 1.368 . S
C1090 C1084 1.368 . S
C1090 C1089 1.523 . S
C1091 C1075 1.429 . S
C1091 C1087 1.429 . S
C1091 C1092 1.523 . S
C1092 C1076 1.368 . S
C1092 C1088 1.368 . S
C1092 C1091 1.523 . S
H1093 C1068 0.950 . S
H1094 C1070 0.950 . S
H1095 C1071 0.949 . S
H1096 C1073 0.950 . S
H1097 C1075 0.950 . S
C1098 C1099 1.349 . S
C1098 C1100 1.327 . S
C1098 H1123 0.950 . S
C1099 C1098 1.349 . S
C1099 C1115 1.349 . S
C1100 C1098 1.327 . S
C1100 C1119 1.429 . S
C1100 H1124 0.950 . S
C1101 C1118 1.574 . S
C1101 C1120 1.368 . S
C1101 H1125 0.949 . S
H1102 C1106 0.949 . S
C1103 C1104 1.349 . S
C1103 C1105 1.327 . S
C1103 H1126 0.950 . S
C1104 C1103 1.349 . S
C1104 C1116 1.349 . S
C1105 C1103 1.327 . S
C1105 C1121 1.429 . S
C1105 H1127 0.950 . S
C1106 H1102 0.949 . S
C1106 C1114 1.574 . S
C1106 C1122 1.368 . S
H1107 C1115 0.950 . S
H1108 C1113 0.950 . S
H1109 C1114 0.949 . S
H1110 C1116 0.950 . S
H1111 C1117 0.950 . S
H1112 C1118 0.949 . S
C1113 H1108 0.950 . S
C1113 C1115 1.327 . S
C1113 C1119 1.429 . S
C1114 C1106 1.574 . S
C1114 H1109 0.949 . S
C1114 C1120 1.368 . S
C1115 C1099 1.349 . S
C1115 H1107 0.950 . S
C1115 C1113 1.327 . S
C1116 C1104 1.349 . S
C1116 H1110 0.950 . S
C1116 C1117 1.327 . S
C1117 H1111 0.950 . S
C1117 C1116 1.327 . S
C1117 C1121 1.429 . S
C1118 C1101 1.574 . S
C1118 H1112 0.949 . S
C1118 C1122 1.368 . S
C1119 C1100 1.429 . S
C1119 C1113 1.429 . S
C1119 C1120 1.523 . S
C1120 C1101 1.368 . S
C1120 C1114 1.368 . S
C1120 C1119 1.523 . S
C1121 C1105 1.429 . S
C1121 C1117 1.429 . S
C1121 C1122 1.523 . S
C1122 C1106 1.368 . S
C1122 C1118 1.368 . S
C1122 C1121 1.523 . S
H1123 C1098 0.950 . S
H1124 C1100 0.950 . S
H1125 C1101 0.949 . S
H1126 C1103 0.950 . S
H1127 C1105 0.950 . S
C1128 C1129 1.349 . S
C1128 C1130 1.327 . S
C1128 H1153 0.950 . S
C1129 C1128 1.349 . S
C1129 C1145 1.349 . S
C1130 C1128 1.327 . S
C1130 C1149 1.429 . S
C1130 H1154 0.950 . S
C1131 C1148 1.574 . S
C1131 C1150 1.368 . S
C1131 H1155 0.949 . S
H1132 C1136 0.949 . S
C1133 C1134 1.349 . S
C1133 C1135 1.327 . S
C1133 H1156 0.950 . S
C1134 C1133 1.349 . S
C1134 C1146 1.349 . S
C1135 C1133 1.327 . S
C1135 C1151 1.429 . S
C1135 H1157 0.950 . S
C1136 H1132 0.949 . S
C1136 C1144 1.574 . S
C1136 C1152 1.368 . S
H1137 C1145 0.950 . S
H1138 C1143 0.950 . S
H1139 C1144 0.949 . S
H1140 C1146 0.950 . S
H1141 C1147 0.950 . S
H1142 C1148 0.949 . S
C1143 H1138 0.950 . S
C1143 C1145 1.327 . S
C1143 C1149 1.429 . S
C1144 C1136 1.574 . S
C1144 H1139 0.949 . S
C1144 C1150 1.368 . S
C1145 C1129 1.349 . S
C1145 H1137 0.950 . S
C1145 C1143 1.327 . S
C1146 C1134 1.349 . S
C1146 H1140 0.950 . S
C1146 C1147 1.327 . S
C1147 H1141 0.950 . S
C1147 C1146 1.327 . S
C1147 C1151 1.429 . S
C1148 C1131 1.574 . S
C1148 H1142 0.949 . S
C1148 C1152 1.368 . S
C1149 C1130 1.429 . S
C1149 C1143 1.429 . S
C1149 C1150 1.523 . S
C1150 C1131 1.368 . S
C1150 C1144 1.368 . S
C1150 C1149 1.523 . S
C1151 C1135 1.429 . S
C1151 C1147 1.429 . S
C1151 C1152 1.523 . S
C1152 C1136 1.368 . S
C1152 C1148 1.368 . S
C1152 C1151 1.523 . S
H1153 C1128 0.950 . S
H1154 C1130 0.950 . S
H1155 C1131 0.949 . S
H1156 C1133 0.950 . S
H1157 C1135 0.950 . S
C1158 C1159 1.349 . S
C1158 C1160 1.327 . S
C1158 H1183 0.950 . S
C1159 C1158 1.349 . S
C1159 C1175 1.349 . S
C1160 C1158 1.327 . S
C1160 C1179 1.429 . S
C1160 H1184 0.950 . S
C1161 C1178 1.574 . S
C1161 C1180 1.368 . S
C1161 H1185 0.949 . S
H1162 C1166 0.949 . S
C1163 C1164 1.349 . S
C1163 C1165 1.327 . S
C1163 H1186 0.950 . S
C1164 C1163 1.349 . S
C1164 C1176 1.349 . S
C1165 C1163 1.327 . S
C1165 C1181 1.429 . S
C1165 H1187 0.950 . S
C1166 H1162 0.949 . S
C1166 C1174 1.574 . S
C1166 C1182 1.368 . S
H1167 C1175 0.950 . S
H1168 C1173 0.950 . S
H1169 C1174 0.949 . S
H1170 C1176 0.950 . S
H1171 C1177 0.950 . S
H1172 C1178 0.949 . S
C1173 H1168 0.950 . S
C1173 C1175 1.327 . S
C1173 C1179 1.429 . S
C1174 C1166 1.574 . S
C1174 H1169 0.949 . S
C1174 C1180 1.368 . S
C1175 C1159 1.349 . S
C1175 H1167 0.950 . S
C1175 C1173 1.327 . S
C1176 C1164 1.349 . S
C1176 H1170 0.950 . S
C1176 C1177 1.327 . S
C1177 H1171 0.950 . S
C1177 C1176 1.327 . S
C1177 C1181 1.429 . S
C1178 C1161 1.574 . S
C1178 H1172 0.949 . S
C1178 C1182 1.368 . S
C1179 C1160 1.429 . S
C1179 C1173 1.429 . S
C1179 C1180 1.523 . S
C1180 C1161 1.368 . S
C1180 C1174 1.368 . S
C1180 C1179 1.523 . S
C1181 C1165 1.429 . S
C1181 C1177 1.429 . S
C1181 C1182 1.523 . S
C1182 C1166 1.368 . S
C1182 C1178 1.368 . S
C1182 C1181 1.523 . S
H1183 C1158 0.950 . S
H1184 C1160 0.950 . S
H1185 C1161 0.949 . S
H1186 C1163 0.950 . S
H1187 C1165 0.950 . S
C1188 C1189 1.349 . S
C1188 C1190 1.327 . S
C1188 H1213 0.950 . S
C1189 C1188 1.349 . S
C1189 C1205 1.349 . S
C1190 C1188 1.327 . S
C1190 C1209 1.429 . S
C1190 H1214 0.950 . S
C1191 C1208 1.574 . S
C1191 C1210 1.368 . S
C1191 H1215 0.949 . S
H1192 C1196 0.949 . S
C1193 C1194 1.349 . S
C1193 C1195 1.327 . S
C1193 H1216 0.950 . S
C1194 C1193 1.349 . S
C1194 C1206 1.349 . S
C1195 C1193 1.327 . S
C1195 C1211 1.429 . S
C1195 H1217 0.950 . S
C1196 H1192 0.949 . S
C1196 C1204 1.574 . S
C1196 C1212 1.368 . S
H1197 C1205 0.950 . S
H1198 C1203 0.950 . S
H1199 C1204 0.949 . S
H1200 C1206 0.950 . S
H1201 C1207 0.950 . S
H1202 C1208 0.949 . S
C1203 H1198 0.950 . S
C1203 C1205 1.327 . S
C1203 C1209 1.429 . S
C1204 C1196 1.574 . S
C1204 H1199 0.949 . S
C1204 C1210 1.368 . S
C1205 C1189 1.349 . S
C1205 H1197 0.950 . S
C1205 C1203 1.327 . S
C1206 C1194 1.349 . S
C1206 H1200 0.950 . S
C1206 C1207 1.327 . S
C1207 H1201 0.950 . S
C1207 C1206 1.327 . S
C1207 C1211 1.429 . S
C1208 C1191 1.574 . S
C1208 H1202 0.949 . S
C1208 C1212 1.368 . S
C1209 C1190 1.429 . S
C1209 C1203 1.429 . S
C1209 C1210 1.523 . S
C1210 C1191 1.368 . S
C1210 C1204 1.368 . S
C1210 C1209 1.523 . S
C1211 C1195 1.429 . S
C1211 C1207 1.429 . S
C1211 C1212 1.523 . S
C1212 C1196 1.368 . S
C1212 C1208 1.368 . S
C1212 C1211 1.523 . S
H1213 C1188 0.950 . S
H1214 C1190 0.950 . S
H1215 C1191 0.949 . S
H1216 C1193 0.950 . S
H1217 C1195 0.950 . S
C1218 C1219 1.349 . S
C1218 C1220 1.327 . S
C1218 H1243 0.950 . S
C1219 C1218 1.349 . S
C1219 C1235 1.349 . S
C1220 C1218 1.327 . S
C1220 C1239 1.429 . S
C1220 H1244 0.950 . S
C1221 C1238 1.574 . S
C1221 C1240 1.368 . S
C1221 H1245 0.949 . S
H1222 C1226 0.949 . S
C1223 C1224 1.349 . S
C1223 C1225 1.327 . S
C1223 H1246 0.950 . S
C1224 C1223 1.349 . S
C1224 C1236 1.349 . S
C1225 C1223 1.327 . S
C1225 C1241 1.429 . S
C1225 H1247 0.950 . S
C1226 H1222 0.949 . S
C1226 C1234 1.574 . S
C1226 C1242 1.368 . S
H1227 C1235 0.950 . S
H1228 C1233 0.950 . S
H1229 C1234 0.949 . S
H1230 C1236 0.950 . S
H1231 C1237 0.950 . S
H1232 C1238 0.949 . S
C1233 H1228 0.950 . S
C1233 C1235 1.327 . S
C1233 C1239 1.429 . S
C1234 C1226 1.574 . S
C1234 H1229 0.949 . S
C1234 C1240 1.368 . S
C1235 C1219 1.349 . S
C1235 H1227 0.950 . S
C1235 C1233 1.327 . S
C1236 C1224 1.349 . S
C1236 H1230 0.950 . S
C1236 C1237 1.327 . S
C1237 H1231 0.950 . S
C1237 C1236 1.327 . S
C1237 C1241 1.429 . S
C1238 C1221 1.574 . S
C1238 H1232 0.949 . S
C1238 C1242 1.368 . S
C1239 C1220 1.429 . S
C1239 C1233 1.429 . S
C1239 C1240 1.523 . S
C1240 C1221 1.368 . S
C1240 C1234 1.368 . S
C1240 C1239 1.523 . S
C1241 C1225 1.429 . S
C1241 C1237 1.429 . S
C1241 C1242 1.523 . S
C1242 C1226 1.368 . S
C1242 C1238 1.368 . S
C1242 C1241 1.523 . S
H1243 C1218 0.950 . S
H1244 C1220 0.950 . S
H1245 C1221 0.949 . S
H1246 C1223 0.950 . S
H1247 C1225 0.950 . S
C1248 C1249 1.349 . S
C1248 C1250 1.327 . S
C1248 H1273 0.950 . S
C1249 C1248 1.349 . S
C1249 C1265 1.349 . S
C1250 C1248 1.327 . S
C1250 C1269 1.429 . S
C1250 H1274 0.950 . S
C1251 C1268 1.574 . S
C1251 C1270 1.368 . S
C1251 H1275 0.949 . S
H1252 C1256 0.949 . S
C1253 C1254 1.349 . S
C1253 C1255 1.327 . S
C1253 H1276 0.950 . S
C1254 C1253 1.349 . S
C1254 C1266 1.349 . S
C1255 C1253 1.327 . S
C1255 C1271 1.429 . S
C1255 H1277 0.950 . S
C1256 H1252 0.949 . S
C1256 C1264 1.574 . S
C1256 C1272 1.368 . S
H1257 C1265 0.950 . S
H1258 C1263 0.950 . S
H1259 C1264 0.949 . S
H1260 C1266 0.950 . S
H1261 C1267 0.950 . S
H1262 C1268 0.949 . S
C1263 H1258 0.950 . S
C1263 C1265 1.327 . S
C1263 C1269 1.429 . S
C1264 C1256 1.574 . S
C1264 H1259 0.949 . S
C1264 C1270 1.368 . S
C1265 C1249 1.349 . S
C1265 H1257 0.950 . S
C1265 C1263 1.327 . S
C1266 C1254 1.349 . S
C1266 H1260 0.950 . S
C1266 C1267 1.327 . S
C1267 H1261 0.950 . S
C1267 C1266 1.327 . S
C1267 C1271 1.429 . S
C1268 C1251 1.574 . S
C1268 H1262 0.949 . S
C1268 C1272 1.368 . S
C1269 C1250 1.429 . S
C1269 C1263 1.429 . S
C1269 C1270 1.523 . S
C1270 C1251 1.368 . S
C1270 C1264 1.368 . S
C1270 C1269 1.523 . S
C1271 C1255 1.429 . S
C1271 C1267 1.429 . S
C1271 C1272 1.523 . S
C1272 C1256 1.368 . S
C1272 C1268 1.368 . S
C1272 C1271 1.523 . S
H1273 C1248 0.950 . S
H1274 C1250 0.950 . S
H1275 C1251 0.949 . S
H1276 C1253 0.950 . S
H1277 C1255 0.950 . S
C1278 C1279 1.349 . S
C1278 C1280 1.327 . S
C1278 H1303 0.950 . S
C1279 C1278 1.349 . S
C1279 C1295 1.349 . S
C1280 C1278 1.327 . S
C1280 C1299 1.429 . S
C1280 H1304 0.950 . S
C1281 C1298 1.574 . S
C1281 C1300 1.368 . S
C1281 H1305 0.949 . S
H1282 C1286 0.949 . S
C1283 C1284 1.349 . S
C1283 C1285 1.327 . S
C1283 H1306 0.950 . S
C1284 C1283 1.349 . S
C1284 C1296 1.349 . S
C1285 C1283 1.327 . S
C1285 C1301 1.429 . S
C1285 H1307 0.950 . S
C1286 H1282 0.949 . S
C1286 C1294 1.574 . S
C1286 C1302 1.368 . S
H1287 C1295 0.950 . S
H1288 C1293 0.950 . S
H1289 C1294 0.949 . S
H1290 C1296 0.950 . S
H1291 C1297 0.950 . S
H1292 C1298 0.949 . S
C1293 H1288 0.950 . S
C1293 C1295 1.327 . S
C1293 C1299 1.429 . S
C1294 C1286 1.574 . S
C1294 H1289 0.949 . S
C1294 C1300 1.368 . S
C1295 C1279 1.349 . S
C1295 H1287 0.950 . S
C1295 C1293 1.327 . S
C1296 C1284 1.349 . S
C1296 H1290 0.950 . S
C1296 C1297 1.327 . S
C1297 H1291 0.950 . S
C1297 C1296 1.327 . S
C1297 C1301 1.429 . S
C1298 C1281 1.574 . S
C1298 H1292 0.949 . S
C1298 C1302 1.368 . S
C1299 C1280 1.429 . S
C1299 C1293 1.429 . S
C1299 C1300 1.523 . S
C1300 C1281 1.368 . S
C1300 C1294 1.368 . S
C1300 C1299 1.523 . S
C1301 C1285 1.429 . S
C1301 C1297 1.429 . S
C1301 C1302 1.523 . S
C1302 C1286 1.368 . S
C1302 C1298 1.368 . S
C1302 C1301 1.523 . S
H1303 C1278 0.950 . S
H1304 C1280 0.950 . S
H1305 C1281 0.949 . S
H1306 C1283 0.950 . S
H1307 C1285 0.950 . S
C409 C213 1.364 . S
C414 C9 1.364 . S
C439 C43 1.364 . S
C444 C247 1.364 . S
C469 C281 1.364 . S
C474 C77 1.364 . S
C499 C111 1.364 . S
C504 C315 1.364 . S
C529 C349 1.364 . S
C534 C145 1.364 . S
C559 C383 1.364 . S
C564 C179 1.364 . S
C589 C243 0.391 . S
C594 C5 0.391 . S
C619 C39 0.391 . S
C624 C277 0.391 . S
C649 C311 0.391 . S
C654 C73 0.391 . S
C679 C107 0.391 . S
C684 C345 0.391 . S
C709 C379 0.391 . S
C714 C141 0.391 . S
C739 C175 0.391 . S
C744 C209 0.391 . S
C769 C203 1.197 . S
C774 C20 1.166 . S
C799 C33 1.197 . S
C804 C54 1.166 . S
C829 C88 1.166 . S
C834 C67 1.197 . S
C859 C101 1.197 . S
C864 C122 1.166 . S
C889 C135 1.197 . S
C894 C156 1.166 . S
C919 C169 1.197 . S
C924 C190 1.166 . S
C949 C271 1.197 . S
C954 C224 1.166 . S
C979 C258 1.166 . S
C984 C305 1.197 . S
C1009 C339 1.197 . S
C1014 C292 1.166 . S
C1039 C373 1.197 . S
C1044 C326 1.166 . S
C1069 C407 1.197 . S
C1074 C360 1.166 . S
C1099 C237 1.197 . S
C1104 C394 1.166 . S
C1129 C2 1.768 . S
C1134 C274 1.768 . S
C1159 C36 1.768 . S
C1164 C308 1.768 . S
C1189 C70 1.768 . S
C1194 C342 1.768 1_556 S
C1219 C104 1.768 1_554 S
C1224 C376 1.768 . S
C1249 C138 1.768 . S
C1254 C206 1.768 . S
C1279 C172 1.768 . S
C1284 C240 1.768 . S
