# Generated by pormake.
# Topology ato, (4)-cn, num edge types: 1
# Building blocks:
#     Node 0, Type 0, BuildingBlock: NAHDIM_clean_sbu_0, # of connection points: 4
#     Node 1, Type 0, BuildingBlock: NAHDIM_clean_sbu_0, # of connection points: 4
#     Node 2, Type 0, BuildingBlock: NAHDIM_clean_sbu_0, # of connection points: 4
#     Node 3, Type 0, BuildingBlock: NAHDIM_clean_sbu_0, # of connection points: 4
#     Node 4, Type 0, BuildingBlock: NAHDIM_clean_sbu_0, # of connection points: 4
#     Node 5, Type 0, BuildingBlock: NAHDIM_clean_sbu_0, # of connection points: 4
#     Node 6, Type 0, BuildingBlock: NAHDIM_clean_sbu_0, # of connection points: 4
#     Node 7, Type 0, BuildingBlock: NAHDIM_clean_sbu_0, # of connection points: 4
#     Node 8, Type 0, BuildingBlock: NAHDIM_clean_sbu_0, # of connection points: 4
#     Node 9, Type 0, BuildingBlock: NAHDIM_clean_sbu_0, # of connection points: 4
#     Node 10, Type 0, BuildingBlock: NAHDIM_clean_sbu_0, # of connection points: 4
#     Node 11, Type 0, BuildingBlock: NAHDIM_clean_sbu_0, # of connection points: 4
#     Node 12, Type 0, BuildingBlock: NAHDIM_clean_sbu_0, # of connection points: 4
#     Node 13, Type 0, BuildingBlock: NAHDIM_clean_sbu_0, # of connection points: 4
#     Node 14, Type 0, BuildingBlock: NAHDIM_clean_sbu_0, # of connection points: 4
#     Node 15, Type 0, BuildingBlock: NAHDIM_clean_sbu_0, # of connection points: 4
#     Node 16, Type 0, BuildingBlock: NAHDIM_clean_sbu_0, # of connection points: 4
#     Node 17, Type 0, BuildingBlock: NAHDIM_clean_sbu_0, # of connection points: 4
#     Node 18, Type 0, BuildingBlock: NAHDIM_clean_sbu_0, # of connection points: 4
#     Node 19, Type 0, BuildingBlock: NAHDIM_clean_sbu_0, # of connection points: 4
#     Node 20, Type 0, BuildingBlock: NAHDIM_clean_sbu_0, # of connection points: 4
#     Node 21, Type 0, BuildingBlock: NAHDIM_clean_sbu_0, # of connection points: 4
#     Node 22, Type 0, BuildingBlock: NAHDIM_clean_sbu_0, # of connection points: 4
#     Node 23, Type 0, BuildingBlock: NAHDIM_clean_sbu_0, # of connection points: 4
#     Node 24, Type 0, BuildingBlock: NAHDIM_clean_sbu_0, # of connection points: 4
#     Node 25, Type 0, BuildingBlock: NAHDIM_clean_sbu_0, # of connection points: 4
#     Node 26, Type 0, BuildingBlock: NAHDIM_clean_sbu_0, # of connection points: 4
#     Node 27, Type 0, BuildingBlock: NAHDIM_clean_sbu_0, # of connection points: 4
#     Node 28, Type 0, BuildingBlock: NAHDIM_clean_sbu_0, # of connection points: 4
#     Node 29, Type 0, BuildingBlock: NAHDIM_clean_sbu_0, # of connection points: 4
#     Node 30, Type 0, BuildingBlock: NAHDIM_clean_sbu_0, # of connection points: 4
#     Node 31, Type 0, BuildingBlock: NAHDIM_clean_sbu_0, # of connection points: 4
#     Node 32, Type 0, BuildingBlock: NAHDIM_clean_sbu_0, # of connection points: 4
#     Node 33, Type 0, BuildingBlock: NAHDIM_clean_sbu_0, # of connection points: 4
#     Node 34, Type 0, BuildingBlock: NAHDIM_clean_sbu_0, # of connection points: 4
#     Node 35, Type 0, BuildingBlock: NAHDIM_clean_sbu_0, # of connection points: 4
#     Edge 36, Type (0, 0), None
#     Edge 37, Type (0, 0), None
#     Edge 38, Type (0, 0), None
#     Edge 39, Type (0, 0), None
#     Edge 40, Type (0, 0), None
#     Edge 41, Type (0, 0), None
#     Edge 42, Type (0, 0), None
#     Edge 43, Type (0, 0), None
#     Edge 44, Type (0, 0), None
#     Edge 45, Type (0, 0), None
#     Edge 46, Type (0, 0), None
#     Edge 47, Type (0, 0), None
#     Edge 48, Type (0, 0), None
#     Edge 49, Type (0, 0), None
#     Edge 50, Type (0, 0), None
#     Edge 51, Type (0, 0), None
#     Edge 52, Type (0, 0), None
#     Edge 53, Type (0, 0), None
#     Edge 54, Type (0, 0), None
#     Edge 55, Type (0, 0), None
#     Edge 56, Type (0, 0), None
#     Edge 57, Type (0, 0), None
#     Edge 58, Type (0, 0), None
#     Edge 59, Type (0, 0), None
#     Edge 60, Type (0, 0), None
#     Edge 61, Type (0, 0), None
#     Edge 62, Type (0, 0), None
#     Edge 63, Type (0, 0), None
#     Edge 64, Type (0, 0), None
#     Edge 65, Type (0, 0), None
#     Edge 66, Type (0, 0), None
#     Edge 67, Type (0, 0), None
#     Edge 68, Type (0, 0), None
#     Edge 69, Type (0, 0), None
#     Edge 70, Type (0, 0), None
#     Edge 71, Type (0, 0), None
#     Edge 72, Type (0, 0), None
#     Edge 73, Type (0, 0), None
#     Edge 74, Type (0, 0), None
#     Edge 75, Type (0, 0), None
#     Edge 76, Type (0, 0), None
#     Edge 77, Type (0, 0), None
#     Edge 78, Type (0, 0), None
#     Edge 79, Type (0, 0), None
#     Edge 80, Type (0, 0), None
#     Edge 81, Type (0, 0), None
#     Edge 82, Type (0, 0), None
#     Edge 83, Type (0, 0), None
#     Edge 84, Type (0, 0), None
#     Edge 85, Type (0, 0), None
#     Edge 86, Type (0, 0), None
#     Edge 87, Type (0, 0), None
#     Edge 88, Type (0, 0), None
#     Edge 89, Type (0, 0), None
#     Edge 90, Type (0, 0), None
#     Edge 91, Type (0, 0), None
#     Edge 92, Type (0, 0), None
#     Edge 93, Type (0, 0), None
#     Edge 94, Type (0, 0), None
#     Edge 95, Type (0, 0), None
#     Edge 96, Type (0, 0), None
#     Edge 97, Type (0, 0), None
#     Edge 98, Type (0, 0), None
#     Edge 99, Type (0, 0), None
#     Edge 100, Type (0, 0), None
#     Edge 101, Type (0, 0), None
#     Edge 102, Type (0, 0), None
#     Edge 103, Type (0, 0), None
#     Edge 104, Type (0, 0), None
#     Edge 105, Type (0, 0), None
#     Edge 106, Type (0, 0), None
#     Edge 107, Type (0, 0), None
# Relax obj value: 0.053
# Max RMSD: 0.058
# Mean RMSD: 0.058
data_MOF--net-ato--node1-NAHDIM_clean_sbu_0--edge1-none
_symmetry_space_group_name_H-M    P1
_symmetry_Int_Tables_number       1
_symmetry_cell_setting            triclinic
loop_
_symmetry_equiv_pos_as_xyz
'x, y, z'
_cell_length_a     43.402437
_cell_length_b     43.430253
_cell_length_c     11.914864
_cell_angle_alpha  89.510696
_cell_angle_beta   90.338345
_cell_angle_gamma 120.05005
loop_
_atom_site_label
_atom_site_type_symbol
_atom_site_fract_x
_atom_site_fract_y
_atom_site_fract_z
_atom_type_partial_charge
C0 C 0.24274 0.03291 0.41077 0.0
O1 O 0.21939 0.03887 0.35927 0.0
O2 O 0.26966 0.10962 0.22921 0.0
Zn3 Zn 0.28154 0.0701 0.21815 0.0
O4 O 0.251 0.03235 0.10659 0.0
C5 C 0.34514 0.11964 0.10194 0.0
O6 O 0.32441 0.13234 0.07307 0.0
O7 O 0.27346 0.04486 0.36801 0.0
C8 C 0.2514 0.03834 0.00206 0.0
O9 O 0.27036 0.07097 0.96347 0.0
C10 C 0.24324 0.11075 0.18717 0.0
O11 O 0.21849 0.08323 0.13266 0.0
O12 O 0.3332 0.09266 0.16695 0.0
C13 C 1.02439 0.21921 0.42457 0.0
O14 O 1.01769 0.18949 0.37577 0.0
O15 O 0.94809 0.17145 0.23682 0.0
Zn16 Zn 0.9887 0.2225 0.22921 0.0
O17 O 1.02611 0.22883 0.11886 0.0
C18 C 0.93577 0.24286 0.20602 0.0
O19 O 0.91882 0.21512 0.27252 0.0
O20 O 1.01338 0.23853 0.37927 0.0
C21 C 1.01953 0.22532 0.0145 0.0
O22 O 0.98717 0.21525 -0.02121 0.0
C23 C 0.94671 0.14381 0.19627 0.0
O24 O 0.97461 0.14618 0.14561 0.0
O25 O 0.9676 0.25284 0.17748 0.0
C26 C 0.83862 0.81777 0.4101 0.0
O27 O 0.86745 0.84116 0.35696 0.0
O28 O 0.88606 0.78879 0.22273 0.0
Zn29 Zn 0.83468 0.77748 0.21957 0.0
O30 O 0.82594 0.80682 0.10746 0.0
C31 C 0.81466 0.70417 0.20702 0.0
O32 O 0.84245 0.71556 0.27343 0.0
O33 O 0.81981 0.78681 0.36953 0.0
C34 C 0.83117 0.80523 0.00373 0.0
O35 O 0.84492 0.78599 -0.03017 0.0
C36 C 0.91369 0.81551 0.18268 0.0
O37 O 0.91128 0.84144 0.13392 0.0
O38 O 0.80459 0.72569 0.17457 0.0
C39 C 0.04425 0.22951 0.53068 0.0
O40 O 0.04917 0.20614 0.58662 0.0
O41 O 0.12122 0.25803 0.71468 0.0
Zn42 Zn 0.0817 0.27013 0.71966 0.0
O43 O 0.04326 0.24138 0.8319 0.0
C44 C 0.12985 0.33375 0.83561 0.0
O45 O 0.14095 0.31244 0.87286 0.0
O46 O 0.05704 0.2608 0.56907 0.0
C47 C 0.04904 0.23846 0.93479 0.0
O48 O 0.08187 0.25239 -0.0284 0.0
C49 C 0.12184 0.23098 0.75354 0.0
O50 O 0.09345 0.2051 0.80188 0.0
O51 O 0.10435 0.32214 0.76509 0.0
C52 C 0.82862 0.82756 0.51554 0.0
O53 O 0.8518 0.85651 0.5681 0.0
O54 O 0.80001 0.87459 0.70372 0.0
Zn55 Zn 0.78836 0.82313 0.70693 0.0
O56 O 0.81773 0.81427 0.81851 0.0
C57 C 0.7153 0.80434 0.72772 0.0
O58 O 0.72691 0.83329 0.66637 0.0
O59 O 0.79773 0.80842 0.5568 0.0
C60 C 0.81643 0.81977 0.92216 0.0
O61 O 0.79737 0.8337 0.95627 0.0
C62 C 0.82635 0.90184 0.74654 0.0
O63 O 0.8516 0.8989 0.79794 0.0
O64 O 0.73648 0.79314 0.75334 0.0
C65 C 0.23306 1.013 0.51719 0.0
O66 O 0.20411 1.0072 0.56971 0.0
O67 O 0.18416 0.93656 0.70051 0.0
Zn68 Zn 0.23575 0.97612 0.70977 0.0
O69 O 0.24381 1.01419 0.82065 0.0
C70 C 0.2504 0.92762 0.83002 0.0
O71 O 0.21744 0.91597 0.86165 0.0
O72 O 0.25201 1.00103 0.55923 0.0
C73 C 0.2362 1.00841 0.92416 0.0
O74 O 0.21979 0.97566 0.96301 0.0
C75 C 0.15672 0.93603 0.73986 0.0
O76 O 0.15973 0.96421 0.78992 0.0
O77 O 0.26503 0.95363 0.76126 0.0
C78 C 0.82654 1.01335 0.52508 0.0
O79 O 0.84989 1.00738 0.57657 0.0
O80 O 0.79963 0.93664 0.70663 0.0
Zn81 Zn 0.78774 0.97616 0.71769 0.0
O82 O 0.81829 1.01391 0.82925 0.0
C83 C 0.72414 0.92662 0.8339 0.0
O84 O 0.74488 0.91392 0.86277 0.0
O85 O 0.79583 1.0014 0.56783 0.0
C86 C 0.81788 1.00792 0.93378 0.0
O87 O 0.79892 0.97529 -0.02763 0.0
C88 C 0.82605 0.93551 0.74867 0.0
O89 O 0.8508 0.96303 0.80318 0.0
O90 O 0.73608 0.9536 0.76889 0.0
C91 C 0.04489 0.82705 0.51127 0.0
O92 O 0.05159 0.85677 0.56008 0.0
O93 O 0.12119 0.87481 0.69902 0.0
Zn94 Zn 0.08059 0.82375 0.70663 0.0
O95 O 0.04318 0.81743 0.81699 0.0
C96 C 0.13352 0.8034 0.72983 0.0
O97 O 0.15047 0.83114 0.66333 0.0
O98 O 0.0559 0.80773 0.55657 0.0
C99 C 0.04976 0.82094 0.92134 0.0
O100 O 0.08211 0.83101 0.95705 0.0
C101 C 0.12257 0.90245 0.73957 0.0
O102 O 0.09467 0.90008 0.79023 0.0
O103 O 0.10168 0.79342 0.75836 0.0
C104 C 0.23066 0.22849 0.52574 0.0
O105 O 0.20183 0.2051 0.57888 0.0
O106 O 0.18322 0.25747 0.71311 0.0
Zn107 Zn 0.2346 0.26878 0.71627 0.0
O108 O 0.24334 0.23944 0.82837 0.0
C109 C 0.25463 0.34209 0.72882 0.0
O110 O 0.22683 0.3307 0.66241 0.0
O111 O 0.24948 0.25945 0.5663 0.0
C112 C 0.23811 0.24103 0.9321 0.0
O113 O 0.22436 0.26027 0.96601 0.0
C114 C 0.15559 0.23075 0.75316 0.0
O115 O 0.158 0.20481 0.80191 0.0
O116 O 0.26469 0.32057 0.76127 0.0
C117 C 1.02503 0.81675 0.40517 0.0
O118 O 1.02011 0.84012 0.34923 0.0
O119 O 0.94806 0.78823 0.22117 0.0
Zn120 Zn 0.98759 0.77613 0.21618 0.0
O121 O 1.02602 0.80488 0.10395 0.0
C122 C 0.93943 0.71251 0.10024 0.0
O123 O 0.92834 0.73382 0.06299 0.0
O124 O 1.01224 0.78546 0.36677 0.0
C125 C 1.02025 0.8078 0.00105 0.0
O126 O 0.98742 0.79387 0.96424 0.0
C127 C 0.94745 0.81528 0.1823 0.0
O128 O 0.97583 0.84116 0.13396 0.0
O129 O 0.96493 0.72412 0.17075 0.0
C130 C 0.24066 0.2187 0.42029 0.0
O131 O 0.21748 0.18975 0.36773 0.0
O132 O 0.26927 0.17166 0.23212 0.0
Zn133 Zn 0.28093 0.22313 0.22891 0.0
O134 O 0.25156 0.23199 0.11733 0.0
C135 C 0.35398 0.24192 0.20811 0.0
O136 O 0.34237 0.21297 0.26947 0.0
O137 O 0.27155 0.23784 0.37904 0.0
C138 C 0.25285 0.22649 0.01368 0.0
O139 O 0.27192 0.21256 -0.02043 0.0
C140 C 0.24293 0.14442 0.1893 0.0
O141 O 0.21768 0.14736 0.1379 0.0
O142 O 0.3328 0.25312 0.18249 0.0
C143 C 0.83622 0.03326 0.41865 0.0
O144 O 0.86518 0.03906 0.36613 0.0
O145 O 0.88512 0.1097 0.23533 0.0
Zn146 Zn 0.83354 0.07014 0.22607 0.0
O147 O 0.82547 0.03207 0.11519 0.0
C148 C 0.81889 0.11864 0.10582 0.0
O149 O 0.85184 0.13029 0.07419 0.0
O150 O 0.81727 0.04523 0.37661 0.0
C151 C 0.83309 0.03785 0.01168 0.0
O152 O 0.8495 0.0706 -0.02716 0.0
C153 C 0.91256 0.11023 0.19598 0.0
O154 O 0.90956 0.08204 0.14592 0.0
O155 O 0.80426 0.09263 0.17459 0.0
C156 C 0.90941 0.36624 0.74418 0.0
O157 O 0.88606 0.37221 0.69271 0.0
O158 O 0.93631 0.44295 0.5626 0.0
Zn159 Zn 0.9482 0.40342 0.55154 0.0
O160 O 0.91765 0.36568 0.43998 0.0
C161 C 1.0118 0.45298 0.43533 0.0
O162 O 0.99107 0.46568 0.40648 0.0
O163 O 0.94012 0.37819 0.7014 0.0
C164 C 0.91807 0.37167 0.33545 0.0
O165 O 0.93705 0.40429 0.29686 0.0
C166 C 0.90989 0.44408 0.52053 0.0
O167 O 0.88516 0.41656 0.46599 0.0
O168 O 0.99986 0.42599 0.50033 0.0
C169 C 0.69106 0.55256 0.75788 0.0
O170 O 0.68436 0.52284 0.70906 0.0
O171 O 0.61476 0.5048 0.57012 0.0
Zn172 Zn 0.65536 0.55586 0.56253 0.0
O173 O 0.69277 0.56219 0.45217 0.0
C174 C 0.60243 0.57621 0.53935 0.0
O175 O 0.58548 0.54847 0.60585 0.0
O176 O 0.68004 0.57188 0.71259 0.0
C177 C 0.68619 0.55868 0.34782 0.0
O178 O 0.65384 0.54859 0.31211 0.0
C179 C 0.61339 0.47716 0.52958 0.0
O180 O 0.64129 0.47954 0.47894 0.0
O181 O 0.63426 0.58619 0.51081 0.0
C182 C 0.50532 0.15111 0.74342 0.0
O183 O 0.53415 0.1745 0.69029 0.0
O184 O 0.55275 0.12212 0.55604 0.0
Zn185 Zn 0.50137 0.11082 0.55288 0.0
O186 O 0.49264 0.14017 0.44077 0.0
C187 C 0.48132 0.0375 0.54035 0.0
O188 O 0.50911 0.04889 0.60678 0.0
O189 O 0.4865 0.12016 0.70284 0.0
C190 C 0.49787 0.13858 0.33704 0.0
O191 O 0.51161 0.11934 0.30314 0.0
C192 C 0.58038 0.14884 0.51602 0.0
O193 O 0.57798 0.17478 0.46728 0.0
O194 O 0.47127 0.05903 0.50787 0.0
C195 C 0.71092 0.56286 0.86398 0.0
O196 O 0.71584 0.53949 0.91991 0.0
O197 O 0.78789 0.59137 0.04799 0.0
Zn198 Zn 0.74836 0.60348 0.05298 0.0
O199 O 0.70992 0.57472 0.16521 0.0
C200 C 0.79652 0.6671 0.16891 0.0
O201 O 0.80762 0.64579 0.20615 0.0
O202 O 0.72371 0.59415 0.90239 0.0
C203 C 0.7157 0.57181 0.26811 0.0
O204 O 0.74853 0.58575 0.30491 0.0
C205 C 0.7885 0.56433 0.08687 0.0
O206 O 0.76012 0.53845 0.13522 0.0
O207 O 0.77102 0.65549 0.09841 0.0
C208 C 0.49532 0.1609 0.84886 0.0
O209 O 0.5185 0.18985 0.90143 0.0
O210 O 0.46671 0.20794 0.03703 0.0
Zn211 Zn 0.45505 0.15648 0.04024 0.0
O212 O 0.48443 0.14762 0.15182 0.0
C213 C 0.382 0.13768 0.06103 0.0
O214 O 0.39361 0.16663 -0.00034 0.0
O215 O 0.46443 0.14177 0.89011 0.0
C216 C 0.48313 0.15312 0.25547 0.0
O217 O 0.46407 0.16705 0.28958 0.0
C218 C 0.49305 0.23518 0.07984 0.0
O219 O 0.5183 0.23225 0.13123 0.0
O220 O 0.40318 0.12649 0.08666 0.0
C221 C 0.89974 0.34633 0.8506 0.0
O222 O 0.87079 0.34053 0.90314 0.0
O223 O 0.85084 0.26989 0.0339 0.0
Zn224 Zn 0.90243 0.30944 0.04316 0.0
O225 O 0.91049 0.34751 0.15404 0.0
C226 C 0.91708 0.26095 0.1634 0.0
O227 O 0.88413 0.2493 0.19506 0.0
O228 O 0.91869 0.33435 0.89261 0.0
C229 C 0.90287 0.34173 0.25755 0.0
O230 O 0.88645 0.30899 0.29639 0.0
C231 C 0.8234 0.26935 0.07324 0.0
O232 O 0.8264 0.29754 0.12329 0.0
O233 O 0.93171 0.28696 0.09462 0.0
C234 C 0.49323 0.3467 0.85835 0.0
O235 O 0.51658 0.34073 0.90983 0.0
O236 O 0.46632 0.26998 0.03992 0.0
Zn237 Zn 0.45444 0.30951 0.05098 0.0
O238 O 0.48499 0.34726 0.16254 0.0
C239 C 0.39084 0.25996 0.16719 0.0
O240 O 0.41157 0.24726 0.19605 0.0
O241 O 0.46252 0.33474 0.90112 0.0
C242 C 0.48457 0.34126 0.26707 0.0
O243 O 0.4656 0.30864 0.30566 0.0
C244 C 0.49275 0.26886 0.08196 0.0
O245 O 0.51749 0.29638 0.13647 0.0
O246 O 0.40278 0.28695 0.10219 0.0
C247 C 0.71158 0.16037 0.84461 0.0
O248 O 0.71828 0.1901 0.8934 0.0
O249 O 0.78787 0.20813 0.03238 0.0
Zn250 Zn 0.74727 0.15708 0.03998 0.0
O251 O 0.70986 0.15075 0.15034 0.0
C252 C 0.8002 0.13673 0.0632 0.0
O253 O 0.81715 0.16447 -0.00328 0.0
O254 O 0.72258 0.14105 0.88992 0.0
C255 C 0.71643 0.15425 0.25469 0.0
O256 O 0.74879 0.16432 0.2904 0.0
C257 C 0.78925 0.23577 0.07294 0.0
O258 O 0.76135 0.2334 0.12361 0.0
O259 O 0.76836 0.12674 0.09172 0.0
C260 C 0.89732 0.56183 0.85909 0.0
O261 O 0.86849 0.53844 0.91224 0.0
O262 O 0.84988 0.59082 0.04646 0.0
Zn263 Zn 0.90127 0.60212 0.04961 0.0
O264 O 0.91001 0.57279 0.16172 0.0
C265 C 0.9213 0.67544 0.06214 0.0
O266 O 0.8935 0.66404 -0.00427 0.0
O267 O 0.91614 0.59278 0.89965 0.0
C268 C 0.90477 0.57436 0.26545 0.0
O269 O 0.89101 0.59359 0.29936 0.0
C270 C 0.82225 0.5641 0.08649 0.0
O271 O 0.82466 0.53816 0.13525 0.0
O272 O 0.93136 0.65391 0.09461 0.0
C273 C 0.69172 0.15008 0.73851 0.0
O274 O 0.6868 0.17345 0.68255 0.0
O275 O 0.61474 0.12156 0.55451 0.0
Zn276 Zn 0.65426 0.10945 0.54953 0.0
O277 O 0.6927 0.13819 0.4373 0.0
C278 C 0.6061 0.04583 0.43359 0.0
O279 O 0.59502 0.06714 0.39633 0.0
O280 O 0.67892 0.11878 0.70012 0.0
C281 C 0.68693 0.14112 0.3344 0.0
O282 O 0.6541 0.1272 0.2976 0.0
C283 C 0.61413 0.14861 0.51565 0.0
O284 O 0.64252 0.17449 0.46732 0.0
O285 O 0.6316 0.05743 0.50411 0.0
C286 C 0.90732 0.55203 0.75365 0.0
O287 O 0.88414 0.52309 0.7011 0.0
O288 O 0.93592 0.50499 0.56549 0.0
Zn289 Zn 0.94758 0.55645 0.56226 0.0
O290 O 0.9182 0.56531 0.45067 0.0
C291 C 1.02063 0.57525 0.54144 0.0
O292 O 1.00902 0.54629 0.60279 0.0
O293 O 0.93821 0.57117 0.71239 0.0
C294 C 0.91951 0.55982 0.34702 0.0
O295 O 0.93858 0.54591 0.31291 0.0
C296 C 0.90959 0.47775 0.52265 0.0
O297 O 0.88434 0.48068 0.4712 0.0
O298 O 0.99945 0.58644 0.51583 0.0
C299 C 0.5029 0.3666 0.75193 0.0
O300 O 0.53186 0.37241 0.69939 0.0
O301 O 0.5518 0.44304 0.56861 0.0
Zn302 Zn 0.50021 0.40348 0.55936 0.0
O303 O 0.49215 0.36542 0.44847 0.0
C304 C 0.48555 0.45197 0.43911 0.0
O305 O 0.5185 0.46362 0.40745 0.0
O306 O 0.48395 0.37858 0.7099 0.0
C307 C 0.49978 0.3712 0.34497 0.0
O308 O 0.51619 0.40394 0.30613 0.0
C309 C 0.57924 0.44358 0.52928 0.0
O310 O 0.57624 0.4154 0.47924 0.0
O311 O 0.47093 0.42596 0.50789 0.0
C312 C 0.57606 0.69956 0.07748 0.0
O313 O 0.5527 0.70553 0.02601 0.0
O314 O 0.60296 0.77628 0.89591 0.0
Zn315 Zn 0.61484 0.73675 0.88485 0.0
O316 O 0.5843 0.699 0.7733 0.0
C317 C 0.67845 0.7863 0.76864 0.0
O318 O 0.65771 0.799 0.73979 0.0
O319 O 0.60677 0.71152 0.03471 0.0
C320 C 0.58471 0.705 0.66877 0.0
O321 O 0.60368 0.73763 0.63018 0.0
C322 C 0.57654 0.7774 0.85388 0.0
O323 O 0.55179 0.74988 0.79937 0.0
O324 O 0.6665 0.75931 0.83364 0.0
C325 C 0.35771 0.88589 0.09124 0.0
O326 O 0.351 0.85616 0.04245 0.0
O327 O 0.28142 0.83813 0.90347 0.0
Zn328 Zn 0.32202 0.88918 0.89586 0.0
O329 O 0.35943 0.89551 0.78551 0.0
C330 C 0.26909 0.90954 0.87264 0.0
O331 O 0.25213 0.88179 0.93913 0.0
O332 O 0.3467 0.90521 0.04592 0.0
C333 C 0.35285 0.89201 0.68115 0.0
O334 O 0.3205 0.88194 0.64545 0.0
C335 C 0.28004 0.81049 0.8629 0.0
O336 O 0.30794 0.81287 0.81224 0.0
O337 O 0.30092 0.91952 0.84413 0.0
C338 C 0.17196 0.48443 0.07675 0.0
O339 O 0.20079 0.50782 0.0236 0.0
O340 O 0.2194 0.45544 0.88938 0.0
Zn341 Zn 0.16802 0.44414 0.88623 0.0
O342 O 0.15928 0.47347 0.77412 0.0
C343 C 0.14799 0.37082 0.8737 0.0
O344 O 0.17578 0.38222 0.94012 0.0
O345 O 0.15315 0.45348 0.03619 0.0
C346 C 0.16452 0.4719 0.67039 0.0
O347 O 0.17827 0.45267 0.63648 0.0
C348 C 0.24703 0.48216 0.84934 0.0
O349 O 0.24462 0.5081 0.80059 0.0
O350 O 0.13793 0.39234 0.84123 0.0
C351 C 0.37757 0.89619 0.19734 0.0
O352 O 0.38248 0.87281 0.2533 0.0
O353 O 0.45454 0.92471 0.38133 0.0
Zn354 Zn 0.41502 0.93682 0.38631 0.0
O355 O 0.37658 0.90807 0.49855 0.0
C356 C 0.46318 1.00043 0.50225 0.0
O357 O 0.47427 0.97912 0.53952 0.0
O358 O 0.39037 0.92748 0.23572 0.0
C359 C 0.38236 0.90515 0.60144 0.0
O360 O 0.41519 0.91907 0.63825 0.0
C361 C 0.45515 0.89766 0.4202 0.0
O362 O 0.42677 0.87178 0.46853 0.0
O363 O 0.43769 0.98883 0.43173 0.0
C364 C 0.16197 0.49423 0.18219 0.0
O365 O 0.18515 0.52318 0.23474 0.0
O366 O 0.13337 0.54127 0.37036 0.0
Zn367 Zn 0.12171 0.48981 0.37358 0.0
O368 O 0.15108 0.48095 0.48517 0.0
C369 C 0.04866 0.47102 0.39441 0.0
O370 O 0.06027 0.49997 0.33306 0.0
O371 O 0.13108 0.47509 0.22346 0.0
C372 C 0.14978 0.48644 0.58882 0.0
O373 O 0.1307 0.50035 0.62293 0.0
C374 C 0.1597 0.56851 0.4132 0.0
O375 O 0.18494 0.56557 0.46464 0.0
O376 O 0.06983 0.45982 0.42002 0.0
C377 C 0.56638 0.67966 0.18391 0.0
O378 O 0.53742 0.67385 0.23644 0.0
O379 O 0.51749 0.60322 0.36722 0.0
Zn380 Zn 0.56907 0.64278 0.37648 0.0
O381 O 0.57713 0.68084 0.48736 0.0
C382 C 0.58374 0.59429 0.49673 0.0
O383 O 0.55078 0.58264 0.52839 0.0
O384 O 0.58533 0.66769 0.22593 0.0
C385 C 0.56951 0.67506 0.59086 0.0
O386 O 0.55309 0.64232 0.6297 0.0
C387 C 0.49005 0.60268 0.40655 0.0
O388 O 0.49304 0.63087 0.45659 0.0
O389 O 0.59836 0.6203 0.42795 0.0
C390 C 0.15987 0.68002 0.19167 0.0
O391 O 0.18323 0.67405 0.24314 0.0
O392 O 0.13298 0.60331 0.37325 0.0
Zn393 Zn 0.12109 0.64284 0.38431 0.0
O394 O 0.15163 0.68059 0.49586 0.0
C395 C 0.05749 0.59329 0.50051 0.0
O396 O 0.07822 0.58059 0.52936 0.0
O397 O 0.12916 0.66807 0.23445 0.0
C398 C 0.15122 0.67459 0.6004 0.0
O399 O 0.13224 0.64197 0.63899 0.0
C400 C 0.15939 0.60219 0.41531 0.0
O401 O 0.18413 0.6297 0.46986 0.0
O402 O 0.06943 0.62027 0.43552 0.0
C403 C 0.37823 0.4937 0.17795 0.0
O404 O 0.38492 0.52342 0.22676 0.0
O405 O 0.45452 0.54146 0.36571 0.0
Zn406 Zn 0.41392 0.4904 0.37331 0.0
O407 O 0.37651 0.48407 0.48366 0.0
C408 C 0.46686 0.47005 0.39649 0.0
O409 O 0.4838 0.49779 0.32999 0.0
O410 O 0.38924 0.47438 0.22325 0.0
C411 C 0.38309 0.48758 0.58802 0.0
O412 O 0.41545 0.49767 0.62373 0.0
C413 C 0.45589 0.5691 0.40625 0.0
O414 O 0.428 0.56672 0.45689 0.0
O415 O 0.43502 0.46007 0.42503 0.0
C416 C 0.56397 0.89516 0.19243 0.0
O417 O 0.53513 0.87176 0.24556 0.0
O418 O 0.51654 0.92415 0.3798 0.0
Zn419 Zn 0.56792 0.93544 0.38297 0.0
O420 O 0.57665 0.9061 0.49507 0.0
C421 C 0.58796 1.00876 0.3955 0.0
O422 O 0.56017 0.99737 0.32907 0.0
O423 O 0.58279 0.9261 0.233 0.0
C424 C 0.57142 0.90769 0.5988 0.0
O425 O 0.55767 0.92693 0.6327 0.0
C426 C 0.4889 0.89742 0.41983 0.0
O427 O 0.49131 0.87148 0.46857 0.0
O428 O 0.59801 0.98723 0.42797 0.0
C429 C 0.35836 0.4834 0.07185 0.0
O430 O 0.35344 0.50678 0.01591 0.0
O431 O 0.2814 0.45489 0.88784 0.0
Zn432 Zn 0.32092 0.44278 0.88286 0.0
O433 O 0.35936 0.47154 0.77063 0.0
C434 C 0.27276 0.37916 0.76692 0.0
O435 O 0.26166 0.40047 0.72968 0.0
O436 O 0.34558 0.45211 0.03345 0.0
C437 C 0.35358 0.47445 0.66773 0.0
O438 O 0.32075 0.46051 0.63092 0.0
C439 C 0.28078 0.48193 0.84897 0.0
O440 O 0.30916 0.50781 0.80062 0.0
O441 O 0.29826 0.39077 0.83742 0.0
C442 C 0.57396 0.88536 0.08698 0.0
O443 O 0.55078 0.85642 0.03442 0.0
O444 O 0.60257 0.83832 0.89882 0.0
Zn445 Zn 0.61423 0.88978 0.89561 0.0
O446 O 0.58486 0.89864 0.78402 0.0
C447 C 0.68728 0.90858 0.87482 0.0
O448 O 0.67567 0.87963 0.93618 0.0
O449 O 0.60486 0.90449 0.04574 0.0
C450 C 0.58615 0.89315 0.68038 0.0
O451 O 0.60521 0.87922 0.64627 0.0
C452 C 0.57623 0.81108 0.856 0.0
O453 O 0.55098 0.81401 0.80461 0.0
O454 O 0.66611 0.91977 0.84919 0.0
C455 C 0.16955 0.69993 0.08525 0.0
O456 O 0.1985 0.70573 0.0327 0.0
O457 O 0.21845 0.77637 0.90195 0.0
Zn458 Zn 0.16686 0.73682 0.89269 0.0
O459 O 0.1588 0.69875 0.7818 0.0
C460 C 0.15221 0.78531 0.77244 0.0
O461 O 0.18516 0.79696 0.74079 0.0
O462 O 0.1506 0.71191 0.04323 0.0
C463 C 0.16642 0.70453 0.6783 0.0
O464 O 0.18284 0.73727 0.63945 0.0
C465 C 0.24589 0.77691 0.86261 0.0
O466 O 0.24289 0.74873 0.81255 0.0
O467 O 0.13758 0.7593 0.84122 0.0
loop_
_geom_bond_atom_site_label_1
_geom_bond_atom_site_label_2
_geom_bond_distance
_geom_bond_site_symmetry_2
_ccdc_geom_bond_type
C0 O1 1.160 . S
C0 O7 1.185 . S
O1 C0 1.160 . S
O2 Zn3 1.899 . S
O2 C10 1.284 . S
Zn3 O2 1.899 . S
Zn3 O4 2.032 . S
Zn3 O7 2.086 . S
Zn3 O12 1.977 . S
O4 Zn3 2.032 . S
O4 C8 1.278 . S
C5 O6 1.203 . S
C5 O12 1.267 . S
O6 C5 1.203 . S
O7 C0 1.185 . S
O7 Zn3 2.086 . S
C8 O4 1.278 . S
C8 O9 1.211 1_554 S
O9 C8 1.211 1_556 S
C10 O2 1.284 . S
C10 O11 1.273 . S
O11 C10 1.273 . S
O12 Zn3 1.977 . S
O12 C5 1.267 . S
C13 O14 1.160 . S
C13 O20 1.185 . S
O14 C13 1.160 . S
O15 Zn16 1.899 . S
O15 C23 1.284 . S
Zn16 O15 1.899 . S
Zn16 O17 2.032 . S
Zn16 O20 2.086 . S
Zn16 O25 1.977 . S
O17 Zn16 2.032 . S
O17 C21 1.278 . S
C18 O19 1.203 . S
C18 O25 1.267 . S
O19 C18 1.203 . S
O20 C13 1.185 . S
O20 Zn16 2.086 . S
C21 O17 1.278 . S
C21 O22 1.211 1_554 S
O22 C21 1.211 1_556 S
C23 O15 1.284 . S
C23 O24 1.273 . S
O24 C23 1.273 . S
O25 Zn16 1.977 . S
O25 C18 1.267 . S
C26 O27 1.160 . S
C26 O33 1.185 . S
O27 C26 1.160 . S
O28 Zn29 1.899 . S
O28 C36 1.284 . S
Zn29 O28 1.899 . S
Zn29 O30 2.032 . S
Zn29 O33 2.086 . S
Zn29 O38 1.977 . S
O30 Zn29 2.032 . S
O30 C34 1.278 . S
C31 O32 1.203 . S
C31 O38 1.267 . S
O32 C31 1.203 . S
O33 C26 1.185 . S
O33 Zn29 2.086 . S
C34 O30 1.278 . S
C34 O35 1.211 1_554 S
O35 C34 1.211 1_556 S
C36 O28 1.284 . S
C36 O37 1.273 . S
O37 C36 1.273 . S
O38 Zn29 1.977 . S
O38 C31 1.267 . S
C39 O40 1.160 . S
C39 O46 1.185 . S
O40 C39 1.160 . S
O41 Zn42 1.899 . S
O41 C49 1.284 . S
Zn42 O41 1.899 . S
Zn42 O43 2.032 . S
Zn42 O46 2.086 . S
Zn42 O51 1.977 . S
O43 Zn42 2.032 . S
O43 C47 1.278 . S
C44 O45 1.203 . S
C44 O51 1.267 . S
O45 C44 1.203 . S
O46 C39 1.185 . S
O46 Zn42 2.086 . S
C47 O43 1.278 . S
C47 O48 1.211 1_556 S
O48 C47 1.211 1_554 S
C49 O41 1.284 . S
C49 O50 1.273 . S
O50 C49 1.273 . S
O51 Zn42 1.977 . S
O51 C44 1.267 . S
C52 O53 1.160 . S
C52 O59 1.185 . S
O53 C52 1.160 . S
O54 Zn55 1.899 . S
O54 C62 1.284 . S
Zn55 O54 1.899 . S
Zn55 O56 2.032 . S
Zn55 O59 2.086 . S
Zn55 O64 1.977 . S
O56 Zn55 2.032 . S
O56 C60 1.278 . S
C57 O58 1.203 . S
C57 O64 1.267 . S
O58 C57 1.203 . S
O59 C52 1.185 . S
O59 Zn55 2.086 . S
C60 O56 1.278 . S
C60 O61 1.211 1_556 S
O61 C60 1.211 1_554 S
C62 O54 1.284 . S
C62 O63 1.273 . S
O63 C62 1.273 . S
O64 Zn55 1.977 . S
O64 C57 1.267 . S
C65 O66 1.160 . S
C65 O72 1.185 . S
O66 C65 1.160 . S
O67 Zn68 1.899 . S
O67 C75 1.284 . S
Zn68 O67 1.899 . S
Zn68 O69 2.032 . S
Zn68 O72 2.086 . S
Zn68 O77 1.977 . S
O69 Zn68 2.032 . S
O69 C73 1.278 . S
C70 O71 1.203 . S
C70 O77 1.267 . S
O71 C70 1.203 . S
O72 C65 1.185 . S
O72 Zn68 2.086 . S
C73 O69 1.278 . S
C73 O74 1.211 1_556 S
O74 C73 1.211 1_554 S
C75 O67 1.284 . S
C75 O76 1.273 . S
O76 C75 1.273 . S
O77 Zn68 1.977 . S
O77 C70 1.267 . S
C78 O79 1.160 . S
C78 O85 1.185 . S
O79 C78 1.160 . S
O80 Zn81 1.899 . S
O80 C88 1.284 . S
Zn81 O80 1.899 . S
Zn81 O82 2.032 . S
Zn81 O85 2.086 . S
Zn81 O90 1.977 . S
O82 Zn81 2.032 . S
O82 C86 1.278 . S
C83 O84 1.203 . S
C83 O90 1.267 . S
O84 C83 1.203 . S
O85 C78 1.185 . S
O85 Zn81 2.086 . S
C86 O82 1.278 . S
C86 O87 1.211 1_556 S
O87 C86 1.211 1_554 S
C88 O80 1.284 . S
C88 O89 1.273 . S
O89 C88 1.273 . S
O90 Zn81 1.977 . S
O90 C83 1.267 . S
C91 O92 1.160 . S
C91 O98 1.185 . S
O92 C91 1.160 . S
O93 Zn94 1.899 . S
O93 C101 1.284 . S
Zn94 O93 1.899 . S
Zn94 O95 2.032 . S
Zn94 O98 2.086 . S
Zn94 O103 1.977 . S
O95 Zn94 2.032 . S
O95 C99 1.278 . S
C96 O97 1.203 . S
C96 O103 1.267 . S
O97 C96 1.203 . S
O98 C91 1.185 . S
O98 Zn94 2.086 . S
C99 O95 1.278 . S
C99 O100 1.211 1_556 S
O100 C99 1.211 1_554 S
C101 O93 1.284 . S
C101 O102 1.273 . S
O102 C101 1.273 . S
O103 Zn94 1.977 . S
O103 C96 1.267 . S
C104 O105 1.160 . S
C104 O111 1.185 . S
O105 C104 1.160 . S
O106 Zn107 1.899 . S
O106 C114 1.284 . S
Zn107 O106 1.899 . S
Zn107 O108 2.032 . S
Zn107 O111 2.086 . S
Zn107 O116 1.977 . S
O108 Zn107 2.032 . S
O108 C112 1.278 . S
C109 O110 1.203 . S
C109 O116 1.267 . S
O110 C109 1.203 . S
O111 C104 1.185 . S
O111 Zn107 2.086 . S
C112 O108 1.278 . S
C112 O113 1.211 1_556 S
O113 C112 1.211 1_554 S
C114 O106 1.284 . S
C114 O115 1.273 . S
O115 C114 1.273 . S
O116 Zn107 1.977 . S
O116 C109 1.267 . S
C117 O118 1.160 . S
C117 O124 1.185 . S
O118 C117 1.160 . S
O119 Zn120 1.899 . S
O119 C127 1.284 . S
Zn120 O119 1.899 . S
Zn120 O121 2.032 . S
Zn120 O124 2.086 . S
Zn120 O129 1.977 . S
O121 Zn120 2.032 . S
O121 C125 1.278 . S
C122 O123 1.203 . S
C122 O129 1.267 . S
O123 C122 1.203 . S
O124 C117 1.185 . S
O124 Zn120 2.086 . S
C125 O121 1.278 . S
C125 O126 1.211 1_554 S
O126 C125 1.211 1_556 S
C127 O119 1.284 . S
C127 O128 1.273 . S
O128 C127 1.273 . S
O129 Zn120 1.977 . S
O129 C122 1.267 . S
C130 O131 1.160 . S
C130 O137 1.185 . S
O131 C130 1.160 . S
O132 Zn133 1.899 . S
O132 C140 1.284 . S
Zn133 O132 1.899 . S
Zn133 O134 2.032 . S
Zn133 O137 2.086 . S
Zn133 O142 1.977 . S
O134 Zn133 2.032 . S
O134 C138 1.278 . S
C135 O136 1.203 . S
C135 O142 1.267 . S
O136 C135 1.203 . S
O137 C130 1.185 . S
O137 Zn133 2.086 . S
C138 O134 1.278 . S
C138 O139 1.211 1_554 S
O139 C138 1.211 1_556 S
C140 O132 1.284 . S
C140 O141 1.273 . S
O141 C140 1.273 . S
O142 Zn133 1.977 . S
O142 C135 1.267 . S
C143 O144 1.160 . S
C143 O150 1.185 . S
O144 C143 1.160 . S
O145 Zn146 1.899 . S
O145 C153 1.284 . S
Zn146 O145 1.899 . S
Zn146 O147 2.032 . S
Zn146 O150 2.086 . S
Zn146 O155 1.977 . S
O147 Zn146 2.032 . S
O147 C151 1.278 . S
C148 O149 1.203 . S
C148 O155 1.267 . S
O149 C148 1.203 . S
O150 C143 1.185 . S
O150 Zn146 2.086 . S
C151 O147 1.278 . S
C151 O152 1.211 1_554 S
O152 C151 1.211 1_556 S
C153 O145 1.284 . S
C153 O154 1.273 . S
O154 C153 1.273 . S
O155 Zn146 1.977 . S
O155 C148 1.267 . S
C156 O157 1.160 . S
C156 O163 1.185 . S
O157 C156 1.160 . S
O158 Zn159 1.899 . S
O158 C166 1.284 . S
Zn159 O158 1.899 . S
Zn159 O160 2.032 . S
Zn159 O163 2.086 . S
Zn159 O168 1.977 . S
O160 Zn159 2.032 . S
O160 C164 1.278 . S
C161 O162 1.203 . S
C161 O168 1.267 . S
O162 C161 1.203 . S
O163 C156 1.185 . S
O163 Zn159 2.086 . S
C164 O160 1.278 . S
C164 O165 1.211 . S
O165 C164 1.211 . S
C166 O158 1.284 . S
C166 O167 1.273 . S
O167 C166 1.273 . S
O168 Zn159 1.977 . S
O168 C161 1.267 . S
C169 O170 1.160 . S
C169 O176 1.185 . S
O170 C169 1.160 . S
O171 Zn172 1.899 . S
O171 C179 1.284 . S
Zn172 O171 1.899 . S
Zn172 O173 2.032 . S
Zn172 O176 2.086 . S
Zn172 O181 1.977 . S
O173 Zn172 2.032 . S
O173 C177 1.278 . S
C174 O175 1.203 . S
C174 O181 1.267 . S
O175 C174 1.203 . S
O176 C169 1.185 . S
O176 Zn172 2.086 . S
C177 O173 1.278 . S
C177 O178 1.211 . S
O178 C177 1.211 . S
C179 O171 1.284 . S
C179 O180 1.273 . S
O180 C179 1.273 . S
O181 Zn172 1.977 . S
O181 C174 1.267 . S
C182 O183 1.160 . S
C182 O189 1.185 . S
O183 C182 1.160 . S
O184 Zn185 1.899 . S
O184 C192 1.284 . S
Zn185 O184 1.899 . S
Zn185 O186 2.032 . S
Zn185 O189 2.086 . S
Zn185 O194 1.977 . S
O186 Zn185 2.032 . S
O186 C190 1.278 . S
C187 O188 1.203 . S
C187 O194 1.267 . S
O188 C187 1.203 . S
O189 C182 1.185 . S
O189 Zn185 2.086 . S
C190 O186 1.278 . S
C190 O191 1.211 . S
O191 C190 1.211 . S
C192 O184 1.284 . S
C192 O193 1.273 . S
O193 C192 1.273 . S
O194 Zn185 1.977 . S
O194 C187 1.267 . S
C195 O196 1.160 . S
C195 O202 1.185 . S
O196 C195 1.160 . S
O197 Zn198 1.899 . S
O197 C205 1.284 . S
Zn198 O197 1.899 . S
Zn198 O199 2.032 . S
Zn198 O202 2.086 1_554 S
Zn198 O207 1.977 . S
O199 Zn198 2.032 . S
O199 C203 1.278 . S
C200 O201 1.203 . S
C200 O207 1.267 . S
O201 C200 1.203 . S
O202 C195 1.185 . S
O202 Zn198 2.086 1_556 S
C203 O199 1.278 . S
C203 O204 1.211 . S
O204 C203 1.211 . S
C205 O197 1.284 . S
C205 O206 1.273 . S
O206 C205 1.273 . S
O207 Zn198 1.977 . S
O207 C200 1.267 . S
C208 O209 1.160 . S
C208 O215 1.185 . S
O209 C208 1.160 . S
O210 Zn211 1.899 . S
O210 C218 1.284 . S
Zn211 O210 1.899 . S
Zn211 O212 2.032 . S
Zn211 O215 2.086 1_554 S
Zn211 O220 1.977 . S
O212 Zn211 2.032 . S
O212 C216 1.278 . S
C213 O214 1.203 . S
C213 O220 1.267 . S
O214 C213 1.203 . S
O215 C208 1.185 . S
O215 Zn211 2.086 1_556 S
C216 O212 1.278 . S
C216 O217 1.211 . S
O217 C216 1.211 . S
C218 O210 1.284 . S
C218 O219 1.273 . S
O219 C218 1.273 . S
O220 Zn211 1.977 . S
O220 C213 1.267 . S
C221 O222 1.160 . S
C221 O228 1.185 . S
O222 C221 1.160 . S
O223 Zn224 1.899 . S
O223 C231 1.284 . S
Zn224 O223 1.899 . S
Zn224 O225 2.032 . S
Zn224 O228 2.086 1_554 S
Zn224 O233 1.977 . S
O225 Zn224 2.032 . S
O225 C229 1.278 . S
C226 O227 1.203 . S
C226 O233 1.267 . S
O227 C226 1.203 . S
O228 C221 1.185 . S
O228 Zn224 2.086 1_556 S
C229 O225 1.278 . S
C229 O230 1.211 . S
O230 C229 1.211 . S
C231 O223 1.284 . S
C231 O232 1.273 . S
O232 C231 1.273 . S
O233 Zn224 1.977 . S
O233 C226 1.267 . S
C234 O235 1.160 . S
C234 O241 1.185 . S
O235 C234 1.160 . S
O236 Zn237 1.899 . S
O236 C244 1.284 . S
Zn237 O236 1.899 . S
Zn237 O238 2.032 . S
Zn237 O241 2.086 1_554 S
Zn237 O246 1.977 . S
O238 Zn237 2.032 . S
O238 C242 1.278 . S
C239 O240 1.203 . S
C239 O246 1.267 . S
O240 C239 1.203 . S
O241 C234 1.185 . S
O241 Zn237 2.086 1_556 S
C242 O238 1.278 . S
C242 O243 1.211 . S
O243 C242 1.211 . S
C244 O236 1.284 . S
C244 O245 1.273 . S
O245 C244 1.273 . S
O246 Zn237 1.977 . S
O246 C239 1.267 . S
C247 O248 1.160 . S
C247 O254 1.185 . S
O248 C247 1.160 . S
O249 Zn250 1.899 . S
O249 C257 1.284 . S
Zn250 O249 1.899 . S
Zn250 O251 2.032 . S
Zn250 O254 2.086 1_554 S
Zn250 O259 1.977 . S
O251 Zn250 2.032 . S
O251 C255 1.278 . S
C252 O253 1.203 . S
C252 O259 1.267 . S
O253 C252 1.203 . S
O254 C247 1.185 . S
O254 Zn250 2.086 1_556 S
C255 O251 1.278 . S
C255 O256 1.211 . S
O256 C255 1.211 . S
C257 O249 1.284 . S
C257 O258 1.273 . S
O258 C257 1.273 . S
O259 Zn250 1.977 . S
O259 C252 1.267 . S
C260 O261 1.160 . S
C260 O267 1.185 . S
O261 C260 1.160 . S
O262 Zn263 1.899 . S
O262 C270 1.284 . S
Zn263 O262 1.899 . S
Zn263 O264 2.032 . S
Zn263 O267 2.086 1_554 S
Zn263 O272 1.977 . S
O264 Zn263 2.032 . S
O264 C268 1.278 . S
C265 O266 1.203 . S
C265 O272 1.267 . S
O266 C265 1.203 . S
O267 C260 1.185 . S
O267 Zn263 2.086 1_556 S
C268 O264 1.278 . S
C268 O269 1.211 . S
O269 C268 1.211 . S
C270 O262 1.284 . S
C270 O271 1.273 . S
O271 C270 1.273 . S
O272 Zn263 1.977 . S
O272 C265 1.267 . S
C273 O274 1.160 . S
C273 O280 1.185 . S
O274 C273 1.160 . S
O275 Zn276 1.899 . S
O275 C283 1.284 . S
Zn276 O275 1.899 . S
Zn276 O277 2.032 . S
Zn276 O280 2.086 . S
Zn276 O285 1.977 . S
O277 Zn276 2.032 . S
O277 C281 1.278 . S
C278 O279 1.203 . S
C278 O285 1.267 . S
O279 C278 1.203 . S
O280 C273 1.185 . S
O280 Zn276 2.086 . S
C281 O277 1.278 . S
C281 O282 1.211 . S
O282 C281 1.211 . S
C283 O275 1.284 . S
C283 O284 1.273 . S
O284 C283 1.273 . S
O285 Zn276 1.977 . S
O285 C278 1.267 . S
C286 O287 1.160 . S
C286 O293 1.185 . S
O287 C286 1.160 . S
O288 Zn289 1.899 . S
O288 C296 1.284 . S
Zn289 O288 1.899 . S
Zn289 O290 2.032 . S
Zn289 O293 2.086 . S
Zn289 O298 1.977 . S
O290 Zn289 2.032 . S
O290 C294 1.278 . S
C291 O292 1.203 . S
C291 O298 1.267 . S
O292 C291 1.203 . S
O293 C286 1.185 . S
O293 Zn289 2.086 . S
C294 O290 1.278 . S
C294 O295 1.211 . S
O295 C294 1.211 . S
C296 O288 1.284 . S
C296 O297 1.273 . S
O297 C296 1.273 . S
O298 Zn289 1.977 . S
O298 C291 1.267 . S
C299 O300 1.160 . S
C299 O306 1.185 . S
O300 C299 1.160 . S
O301 Zn302 1.899 . S
O301 C309 1.284 . S
Zn302 O301 1.899 . S
Zn302 O303 2.032 . S
Zn302 O306 2.086 . S
Zn302 O311 1.977 . S
O303 Zn302 2.032 . S
O303 C307 1.278 . S
C304 O305 1.203 . S
C304 O311 1.267 . S
O305 C304 1.203 . S
O306 C299 1.185 . S
O306 Zn302 2.086 . S
C307 O303 1.278 . S
C307 O308 1.211 . S
O308 C307 1.211 . S
C309 O301 1.284 . S
C309 O310 1.273 . S
O310 C309 1.273 . S
O311 Zn302 1.977 . S
O311 C304 1.267 . S
C312 O313 1.160 . S
C312 O319 1.185 . S
O313 C312 1.160 . S
O314 Zn315 1.899 . S
O314 C322 1.284 . S
Zn315 O314 1.899 . S
Zn315 O316 2.032 . S
Zn315 O319 2.086 1_556 S
Zn315 O324 1.977 . S
O316 Zn315 2.032 . S
O316 C320 1.278 . S
C317 O318 1.203 . S
C317 O324 1.267 . S
O318 C317 1.203 . S
O319 C312 1.185 . S
O319 Zn315 2.086 1_554 S
C320 O316 1.278 . S
C320 O321 1.211 . S
O321 C320 1.211 . S
C322 O314 1.284 . S
C322 O323 1.273 . S
O323 C322 1.273 . S
O324 Zn315 1.977 . S
O324 C317 1.267 . S
C325 O326 1.160 . S
C325 O332 1.185 . S
O326 C325 1.160 . S
O327 Zn328 1.899 . S
O327 C335 1.284 . S
Zn328 O327 1.899 . S
Zn328 O329 2.032 . S
Zn328 O332 2.086 1_556 S
Zn328 O337 1.977 . S
O329 Zn328 2.032 . S
O329 C333 1.278 . S
C330 O331 1.203 . S
C330 O337 1.267 . S
O331 C330 1.203 . S
O332 C325 1.185 . S
O332 Zn328 2.086 1_554 S
C333 O329 1.278 . S
C333 O334 1.211 . S
O334 C333 1.211 . S
C335 O327 1.284 . S
C335 O336 1.273 . S
O336 C335 1.273 . S
O337 Zn328 1.977 . S
O337 C330 1.267 . S
C338 O339 1.160 . S
C338 O345 1.185 . S
O339 C338 1.160 . S
O340 Zn341 1.899 . S
O340 C348 1.284 . S
Zn341 O340 1.899 . S
Zn341 O342 2.032 . S
Zn341 O345 2.086 1_556 S
Zn341 O350 1.977 . S
O342 Zn341 2.032 . S
O342 C346 1.278 . S
C343 O344 1.203 . S
C343 O350 1.267 . S
O344 C343 1.203 . S
O345 C338 1.185 . S
O345 Zn341 2.086 1_554 S
C346 O342 1.278 . S
C346 O347 1.211 . S
O347 C346 1.211 . S
C348 O340 1.284 . S
C348 O349 1.273 . S
O349 C348 1.273 . S
O350 Zn341 1.977 . S
O350 C343 1.267 . S
C351 O352 1.160 . S
C351 O358 1.185 . S
O352 C351 1.160 . S
O353 Zn354 1.899 . S
O353 C361 1.284 . S
Zn354 O353 1.899 . S
Zn354 O355 2.032 . S
Zn354 O358 2.086 . S
Zn354 O363 1.977 . S
O355 Zn354 2.032 . S
O355 C359 1.278 . S
C356 O357 1.203 . S
C356 O363 1.267 . S
O357 C356 1.203 . S
O358 C351 1.185 . S
O358 Zn354 2.086 . S
C359 O355 1.278 . S
C359 O360 1.211 . S
O360 C359 1.211 . S
C361 O353 1.284 . S
C361 O362 1.273 . S
O362 C361 1.273 . S
O363 Zn354 1.977 . S
O363 C356 1.267 . S
C364 O365 1.160 . S
C364 O371 1.185 . S
O365 C364 1.160 . S
O366 Zn367 1.899 . S
O366 C374 1.284 . S
Zn367 O366 1.899 . S
Zn367 O368 2.032 . S
Zn367 O371 2.086 . S
Zn367 O376 1.977 . S
O368 Zn367 2.032 . S
O368 C372 1.278 . S
C369 O370 1.203 . S
C369 O376 1.267 . S
O370 C369 1.203 . S
O371 C364 1.185 . S
O371 Zn367 2.086 . S
C372 O368 1.278 . S
C372 O373 1.211 . S
O373 C372 1.211 . S
C374 O366 1.284 . S
C374 O375 1.273 . S
O375 C374 1.273 . S
O376 Zn367 1.977 . S
O376 C369 1.267 . S
C377 O378 1.160 . S
C377 O384 1.185 . S
O378 C377 1.160 . S
O379 Zn380 1.899 . S
O379 C387 1.284 . S
Zn380 O379 1.899 . S
Zn380 O381 2.032 . S
Zn380 O384 2.086 . S
Zn380 O389 1.977 . S
O381 Zn380 2.032 . S
O381 C385 1.278 . S
C382 O383 1.203 . S
C382 O389 1.267 . S
O383 C382 1.203 . S
O384 C377 1.185 . S
O384 Zn380 2.086 . S
C385 O381 1.278 . S
C385 O386 1.211 . S
O386 C385 1.211 . S
C387 O379 1.284 . S
C387 O388 1.273 . S
O388 C387 1.273 . S
O389 Zn380 1.977 . S
O389 C382 1.267 . S
C390 O391 1.160 . S
C390 O397 1.185 . S
O391 C390 1.160 . S
O392 Zn393 1.899 . S
O392 C400 1.284 . S
Zn393 O392 1.899 . S
Zn393 O394 2.032 . S
Zn393 O397 2.086 . S
Zn393 O402 1.977 . S
O394 Zn393 2.032 . S
O394 C398 1.278 . S
C395 O396 1.203 . S
C395 O402 1.267 . S
O396 C395 1.203 . S
O397 C390 1.185 . S
O397 Zn393 2.086 . S
C398 O394 1.278 . S
C398 O399 1.211 . S
O399 C398 1.211 . S
C400 O392 1.284 . S
C400 O401 1.273 . S
O401 C400 1.273 . S
O402 Zn393 1.977 . S
O402 C395 1.267 . S
C403 O404 1.160 . S
C403 O410 1.185 . S
O404 C403 1.160 . S
O405 Zn406 1.899 . S
O405 C413 1.284 . S
Zn406 O405 1.899 . S
Zn406 O407 2.032 . S
Zn406 O410 2.086 . S
Zn406 O415 1.977 . S
O407 Zn406 2.032 . S
O407 C411 1.278 . S
C408 O409 1.203 . S
C408 O415 1.267 . S
O409 C408 1.203 . S
O410 C403 1.185 . S
O410 Zn406 2.086 . S
C411 O407 1.278 . S
C411 O412 1.211 . S
O412 C411 1.211 . S
C413 O405 1.284 . S
C413 O414 1.273 . S
O414 C413 1.273 . S
O415 Zn406 1.977 . S
O415 C408 1.267 . S
C416 O417 1.160 . S
C416 O423 1.185 . S
O417 C416 1.160 . S
O418 Zn419 1.899 . S
O418 C426 1.284 . S
Zn419 O418 1.899 . S
Zn419 O420 2.032 . S
Zn419 O423 2.086 . S
Zn419 O428 1.977 . S
O420 Zn419 2.032 . S
O420 C424 1.278 . S
C421 O422 1.203 . S
C421 O428 1.267 . S
O422 C421 1.203 . S
O423 C416 1.185 . S
O423 Zn419 2.086 . S
C424 O420 1.278 . S
C424 O425 1.211 . S
O425 C424 1.211 . S
C426 O418 1.284 . S
C426 O427 1.273 . S
O427 C426 1.273 . S
O428 Zn419 1.977 . S
O428 C421 1.267 . S
C429 O430 1.160 . S
C429 O436 1.185 . S
O430 C429 1.160 . S
O431 Zn432 1.899 . S
O431 C439 1.284 . S
Zn432 O431 1.899 . S
Zn432 O433 2.032 . S
Zn432 O436 2.086 1_556 S
Zn432 O441 1.977 . S
O433 Zn432 2.032 . S
O433 C437 1.278 . S
C434 O435 1.203 . S
C434 O441 1.267 . S
O435 C434 1.203 . S
O436 C429 1.185 . S
O436 Zn432 2.086 1_554 S
C437 O433 1.278 . S
C437 O438 1.211 . S
O438 C437 1.211 . S
C439 O431 1.284 . S
C439 O440 1.273 . S
O440 C439 1.273 . S
O441 Zn432 1.977 . S
O441 C434 1.267 . S
C442 O443 1.160 . S
C442 O449 1.185 . S
O443 C442 1.160 . S
O444 Zn445 1.899 . S
O444 C452 1.284 . S
Zn445 O444 1.899 . S
Zn445 O446 2.032 . S
Zn445 O449 2.086 1_556 S
Zn445 O454 1.977 . S
O446 Zn445 2.032 . S
O446 C450 1.278 . S
C447 O448 1.203 . S
C447 O454 1.267 . S
O448 C447 1.203 . S
O449 C442 1.185 . S
O449 Zn445 2.086 1_554 S
C450 O446 1.278 . S
C450 O451 1.211 . S
O451 C450 1.211 . S
C452 O444 1.284 . S
C452 O453 1.273 . S
O453 C452 1.273 . S
O454 Zn445 1.977 . S
O454 C447 1.267 . S
C455 O456 1.160 . S
C455 O462 1.185 . S
O456 C455 1.160 . S
O457 Zn458 1.899 . S
O457 C465 1.284 . S
Zn458 O457 1.899 . S
Zn458 O459 2.032 . S
Zn458 O462 2.086 1_556 S
Zn458 O467 1.977 . S
O459 Zn458 2.032 . S
O459 C463 1.278 . S
C460 O461 1.203 . S
C460 O467 1.267 . S
O461 C460 1.203 . S
O462 C455 1.185 . S
O462 Zn458 2.086 1_554 S
C463 O459 1.278 . S
C463 O464 1.211 . S
O464 C463 1.211 . S
C465 O457 1.284 . S
C465 O466 1.273 . S
O466 C465 1.273 . S
O467 Zn458 1.977 . S
O467 C460 1.267 . S
C65 C0 1.475 1_565 S
C39 C13 1.475 1_455 S
C26 C52 1.474 . S
C78 C143 1.475 1_565 S
C91 C117 1.475 1_455 S
C130 C104 1.474 . S
C156 C221 1.475 . S
C169 C195 1.475 . S
C182 C208 1.474 . S
C299 C234 1.475 . S
C247 C273 1.475 . S
C286 C260 1.474 . S
C377 C312 1.475 . S
C351 C325 1.475 . S
C364 C338 1.474 . S
C390 C455 1.475 . S
C403 C429 1.475 . S
C416 C442 1.474 . S
C73 C8 1.270 1_566 S
C21 C47 1.270 1_654 S
C60 C34 1.270 1_556 S
C86 C151 1.270 1_566 S
C99 C125 1.270 1_456 S
C138 C112 1.270 1_554 S
C164 C229 1.270 . S
C203 C177 1.270 . S
C216 C190 1.270 . S
C242 C307 1.270 . S
C255 C281 1.270 . S
C294 C268 1.270 . S
C385 C320 1.270 . S
C333 C359 1.270 . S
C346 C372 1.270 . S
C463 C398 1.270 . S
C437 C411 1.270 . S
C450 C424 1.270 . S
C213 C5 1.513 . S
C226 C18 1.513 . S
C200 C31 1.514 . S
C44 C343 1.513 . S
C57 C317 1.514 . S
C70 C330 1.513 . S
C83 C447 1.514 . S
C96 C460 1.513 . S
C109 C434 1.514 . S
C122 C265 1.513 . S
C239 C135 1.513 . S
C252 C148 1.513 . S
C369 C161 1.513 1_455 S
C174 C382 1.513 . S
C187 C356 1.513 1_545 S
C278 C421 1.514 1_545 S
C291 C395 1.513 1_655 S
C408 C304 1.513 . S
C10 C140 1.358 . S
C153 C23 1.359 . S
C127 C36 1.358 . S
C49 C114 1.358 . S
C62 C88 1.358 . S
C75 C101 1.359 . S
C166 C296 1.359 . S
C309 C179 1.359 . S
C283 C192 1.358 . S
C205 C270 1.358 . S
C218 C244 1.358 . S
C257 C231 1.359 . S
C322 C452 1.359 . S
C465 C335 1.359 . S
C348 C439 1.358 . S
C361 C426 1.359 . S
C400 C374 1.358 . S
C387 C413 1.359 . S
