# Generated by pormake.
# Topology pcl, (4)-cn, num edge types: 1
# Building blocks:
#     Node 0, Type 0, BuildingBlock: TATPOV_clean_sbu_0, # of connection points: 4
#     Node 1, Type 0, BuildingBlock: TATPOV_clean_sbu_0, # of connection points: 4
#     Node 2, Type 0, BuildingBlock: TATPOV_clean_sbu_0, # of connection points: 4
#     Node 3, Type 0, BuildingBlock: TATPOV_clean_sbu_0, # of connection points: 4
#     Node 4, Type 0, BuildingBlock: TATPOV_clean_sbu_0, # of connection points: 4
#     Node 5, Type 0, BuildingBlock: TATPOV_clean_sbu_0, # of connection points: 4
#     Node 6, Type 0, BuildingBlock: TATPOV_clean_sbu_0, # of connection points: 4
#     Node 7, Type 0, BuildingBlock: TATPOV_clean_sbu_0, # of connection points: 4
#     Node 8, Type 0, BuildingBlock: TATPOV_clean_sbu_0, # of connection points: 4
#     Node 9, Type 0, BuildingBlock: TATPOV_clean_sbu_0, # of connection points: 4
#     Node 10, Type 0, BuildingBlock: TATPOV_clean_sbu_0, # of connection points: 4
#     Node 11, Type 0, BuildingBlock: TATPOV_clean_sbu_0, # of connection points: 4
#     Node 12, Type 0, BuildingBlock: TATPOV_clean_sbu_0, # of connection points: 4
#     Node 13, Type 0, BuildingBlock: TATPOV_clean_sbu_0, # of connection points: 4
#     Node 14, Type 0, BuildingBlock: TATPOV_clean_sbu_0, # of connection points: 4
#     Node 15, Type 0, BuildingBlock: TATPOV_clean_sbu_0, # of connection points: 4
#     Edge 16, Type (0, 0), BuildingBlock: AJUNOK_clean_linker_0, # of connection points: 2
#     Edge 17, Type (0, 0), BuildingBlock: AJUNOK_clean_linker_0, # of connection points: 2
#     Edge 18, Type (0, 0), BuildingBlock: AJUNOK_clean_linker_0, # of connection points: 2
#     Edge 19, Type (0, 0), BuildingBlock: AJUNOK_clean_linker_0, # of connection points: 2
#     Edge 20, Type (0, 0), BuildingBlock: AJUNOK_clean_linker_0, # of connection points: 2
#     Edge 21, Type (0, 0), BuildingBlock: AJUNOK_clean_linker_0, # of connection points: 2
#     Edge 22, Type (0, 0), BuildingBlock: AJUNOK_clean_linker_0, # of connection points: 2
#     Edge 23, Type (0, 0), BuildingBlock: AJUNOK_clean_linker_0, # of connection points: 2
#     Edge 24, Type (0, 0), BuildingBlock: AJUNOK_clean_linker_0, # of connection points: 2
#     Edge 25, Type (0, 0), BuildingBlock: AJUNOK_clean_linker_0, # of connection points: 2
#     Edge 26, Type (0, 0), BuildingBlock: AJUNOK_clean_linker_0, # of connection points: 2
#     Edge 27, Type (0, 0), BuildingBlock: AJUNOK_clean_linker_0, # of connection points: 2
#     Edge 28, Type (0, 0), BuildingBlock: AJUNOK_clean_linker_0, # of connection points: 2
#     Edge 29, Type (0, 0), BuildingBlock: AJUNOK_clean_linker_0, # of connection points: 2
#     Edge 30, Type (0, 0), BuildingBlock: AJUNOK_clean_linker_0, # of connection points: 2
#     Edge 31, Type (0, 0), BuildingBlock: AJUNOK_clean_linker_0, # of connection points: 2
#     Edge 32, Type (0, 0), BuildingBlock: AJUNOK_clean_linker_0, # of connection points: 2
#     Edge 33, Type (0, 0), BuildingBlock: AJUNOK_clean_linker_0, # of connection points: 2
#     Edge 34, Type (0, 0), BuildingBlock: AJUNOK_clean_linker_0, # of connection points: 2
#     Edge 35, Type (0, 0), BuildingBlock: AJUNOK_clean_linker_0, # of connection points: 2
#     Edge 36, Type (0, 0), BuildingBlock: AJUNOK_clean_linker_0, # of connection points: 2
#     Edge 37, Type (0, 0), BuildingBlock: AJUNOK_clean_linker_0, # of connection points: 2
#     Edge 38, Type (0, 0), BuildingBlock: AJUNOK_clean_linker_0, # of connection points: 2
#     Edge 39, Type (0, 0), BuildingBlock: AJUNOK_clean_linker_0, # of connection points: 2
#     Edge 40, Type (0, 0), BuildingBlock: AJUNOK_clean_linker_0, # of connection points: 2
#     Edge 41, Type (0, 0), BuildingBlock: AJUNOK_clean_linker_0, # of connection points: 2
#     Edge 42, Type (0, 0), BuildingBlock: AJUNOK_clean_linker_0, # of connection points: 2
#     Edge 43, Type (0, 0), BuildingBlock: AJUNOK_clean_linker_0, # of connection points: 2
#     Edge 44, Type (0, 0), BuildingBlock: AJUNOK_clean_linker_0, # of connection points: 2
#     Edge 45, Type (0, 0), BuildingBlock: AJUNOK_clean_linker_0, # of connection points: 2
#     Edge 46, Type (0, 0), BuildingBlock: AJUNOK_clean_linker_0, # of connection points: 2
#     Edge 47, Type (0, 0), BuildingBlock: AJUNOK_clean_linker_0, # of connection points: 2
# Relax obj value: 0.052
# Max RMSD: 0.068
# Mean RMSD: 0.058
data_MOF--net-pcl--node1-TATPOV_clean_sbu_0--edge1-AJUNOK_clean_linker_0
_symmetry_space_group_name_H-M    P1
_symmetry_Int_Tables_number       1
_symmetry_cell_setting            triclinic
loop_
_symmetry_equiv_pos_as_xyz
'x, y, z'
_cell_length_a     31.740802
_cell_length_b     36.419072
_cell_length_c     33.734116
_cell_angle_alpha  90.09733
_cell_angle_beta   89.952245
_cell_angle_gamma 89.996948
loop_
_atom_site_label
_atom_site_type_symbol
_atom_site_fract_x
_atom_site_fract_y
_atom_site_fract_z
_atom_type_partial_charge
Zn0 Zn 0.15401 0.42873 0.11655 0.0
Zn1 Zn 0.1685 0.37276 0.06997 0.0
O2 O 0.18604 0.41955 0.03871 0.0
O3 O 0.17126 0.46641 0.07733 0.0
O4 O 0.18613 0.33256 0.03177 0.0
O5 O 0.19646 0.41153 0.15541 0.0
O6 O 0.20334 0.36062 0.12076 0.0
C7 C 0.1851 0.45417 0.04478 0.0
C8 C 0.07882 0.38654 0.09914 0.0
O9 O 0.10343 0.36801 0.07678 0.0
O10 O 0.09345 0.4126 0.11991 0.0
C11 C 0.19662 0.30054 0.04312 0.0
O12 O 0.19316 0.29227 0.08086 0.0
C13 C 0.21257 0.38008 0.15095 0.0
Zn14 Zn 0.86345 0.58753 0.62105 0.0
Zn15 Zn 0.84856 0.64306 0.57384 0.0
O16 O 0.8331 0.59572 0.54262 0.0
O17 O 0.84821 0.54927 0.58152 0.0
O18 O 0.83084 0.68243 0.5348 0.0
O19 O 0.82016 0.60442 0.65936 0.0
O20 O 0.81361 0.65528 0.62474 0.0
C21 C 0.83508 0.56115 0.54861 0.0
C22 C 0.93769 0.63107 0.60414 0.0
O23 O 0.91321 0.64862 0.58091 0.0
O24 O 0.92343 0.6051 0.62518 0.0
C25 C 0.81663 0.71368 0.54517 0.0
O26 O 0.81567 0.72211 0.58302 0.0
C27 C 0.80425 0.63593 0.65493 0.0
Zn28 Zn 0.15729 0.58393 0.84763 0.0
Zn29 Zn 0.16734 0.64016 0.89454 0.0
O30 O 0.18793 0.59389 0.92542 0.0
O31 O 0.18139 0.54725 0.8845 0.0
O32 O 0.18407 0.68256 0.93046 0.0
O33 O 0.19365 0.60483 0.80584 0.0
O34 O 0.19997 0.65434 0.84289 0.0
C35 C 0.19169 0.55959 0.91812 0.0
C36 C 0.07837 0.61784 0.87142 0.0
O37 O 0.10166 0.64027 0.89063 0.0
O38 O 0.09504 0.59315 0.85009 0.0
C39 C 0.18932 0.67949 0.96768 0.0
O40 O 0.18007 0.64815 0.98481 0.0
C41 C 0.20835 0.63664 0.81124 0.0
Zn42 Zn 0.86214 0.4265 0.35009 0.0
Zn43 Zn 0.84742 0.372 0.39855 0.0
O44 O 0.83243 0.41996 0.42908 0.0
O45 O 0.84664 0.46552 0.3886 0.0
O46 O 0.83029 0.33321 0.43847 0.0
O47 O 0.81887 0.40889 0.31225 0.0
O48 O 0.8115 0.35908 0.34847 0.0
C49 C 0.83388 0.45438 0.42193 0.0
C50 C 0.9366 0.38341 0.36756 0.0
O51 O 0.91196 0.36591 0.39073 0.0
O52 O 0.92226 0.4092 0.34632 0.0
C53 C 0.81726 0.30147 0.42851 0.0
O54 O 0.81719 0.29244 0.39081 0.0
C55 C 0.80232 0.37778 0.31776 0.0
Zn56 Zn 0.81601 0.57753 0.85321 0.0
Zn57 Zn 0.80621 0.6347 0.89572 0.0
O58 O 0.78219 0.64878 0.83997 0.0
O59 O 0.78313 0.59629 0.80786 0.0
O60 O 0.78755 0.67736 0.93026 0.0
O61 O 0.79025 0.54086 0.88862 0.0
O62 O 0.78345 0.58896 0.92741 0.0
C63 C 0.77396 0.63001 0.80896 0.0
C64 C 0.89511 0.61261 0.87696 0.0
O65 O 0.87151 0.63557 0.89499 0.0
O66 O 0.87871 0.58676 0.85703 0.0
C67 C 0.79327 0.71056 0.91995 0.0
O68 O 0.81311 0.71728 0.88655 0.0
C69 C 0.77907 0.55443 0.9214 0.0
Zn70 Zn 0.19369 0.42815 0.34997 0.0
Zn71 Zn 0.20863 0.37102 0.39108 0.0
O72 O 0.23405 0.361 0.33485 0.0
O73 O 0.23275 0.41509 0.3064 0.0
O74 O 0.23092 0.32912 0.42469 0.0
O75 O 0.21134 0.46538 0.38921 0.0
O76 O 0.2271 0.41678 0.42458 0.0
C77 C 0.24305 0.38161 0.30553 0.0
C78 C 0.11879 0.38461 0.36813 0.0
O79 O 0.14384 0.36563 0.3894 0.0
O80 O 0.13294 0.41122 0.3479 0.0
C81 C 0.24495 0.2991 0.41054 0.0
O82 O 0.24281 0.29346 0.37212 0.0
C83 C 0.22572 0.45167 0.42076 0.0
Zn84 Zn 0.82008 0.42801 0.11991 0.0
Zn85 Zn 0.80576 0.37152 0.07779 0.0
O86 O 0.78094 0.35957 0.13384 0.0
O87 O 0.78236 0.41309 0.16377 0.0
O88 O 0.78569 0.32839 0.04453 0.0
O89 O 0.80005 0.46532 0.08196 0.0
O90 O 0.78398 0.41724 0.04569 0.0
C91 C 0.77221 0.37957 0.16382 0.0
C92 C 0.89606 0.3874 0.09988 0.0
O93 O 0.87108 0.36816 0.0787 0.0
O94 O 0.8815 0.41334 0.12092 0.0
C95 C 0.7879 0.29575 0.05776 0.0
O96 O 0.80474 0.29038 0.09283 0.0
C97 C 0.78456 0.4521 0.05059 0.0
Zn98 Zn 0.19401 0.58249 0.61973 0.0
Zn99 Zn 0.20779 0.63679 0.57389 0.0
O100 O 0.23297 0.6517 0.62873 0.0
O101 O 0.23516 0.59915 0.66029 0.0
O102 O 0.22922 0.67531 0.53561 0.0
O103 O 0.21011 0.54221 0.58321 0.0
O104 O 0.22643 0.58864 0.54479 0.0
C105 C 0.24374 0.63298 0.65895 0.0
C106 C 0.11898 0.62581 0.60037 0.0
O107 O 0.14323 0.64243 0.57617 0.0
O108 O 0.13355 0.60066 0.62242 0.0
C109 C 0.24405 0.70651 0.54525 0.0
O110 O 0.24367 0.71641 0.58271 0.0
C111 C 0.225 0.55403 0.55098 0.0
Zn112 Zn 0.65443 0.91975 0.12149 0.0
Zn113 Zn 0.67173 0.86472 0.07512 0.0
O114 O 0.68583 0.91253 0.04351 0.0
O115 O 0.66853 0.9585 0.08246 0.0
O116 O 0.69107 0.82409 0.03788 0.0
O117 O 0.698 0.90494 0.1602 0.0
O118 O 0.70694 0.85388 0.12619 0.0
C119 C 0.68264 0.94705 0.04968 0.0
C120 C 0.5817 0.87458 0.10511 0.0
O121 O 0.60703 0.85738 0.08224 0.0
O122 O 0.59504 0.90105 0.12602 0.0
C123 C 0.72567 0.82825 0.01929 0.0
O124 O 0.74735 0.85853 0.02488 0.0
C125 C 0.71538 0.87397 0.15614 0.0
Zn126 Zn 0.35672 0.08885 0.62429 0.0
Zn127 Zn 0.34221 0.14534 0.58026 0.0
O128 O 0.32566 0.09956 0.54629 0.0
O129 O 0.34135 0.05209 0.58352 0.0
O130 O 0.32373 0.18795 0.54603 0.0
O131 O 0.3137 0.10327 0.66383 0.0
O132 O 0.30802 0.1557 0.63204 0.0
C133 C 0.32784 0.06482 0.55114 0.0
C134 C 0.43166 0.13147 0.60878 0.0
O135 O 0.40712 0.1501 0.58659 0.0
O136 O 0.41699 0.10529 0.62926 0.0
C137 C 0.32732 0.18812 0.50851 0.0
O138 O 0.34635 0.16046 0.49101 0.0
C139 C 0.29822 0.1351 0.66112 0.0
Zn140 Zn 0.65883 0.08352 0.85359 0.0
Zn141 Zn 0.67296 0.13809 0.90177 0.0
O142 O 0.6879 0.08982 0.93239 0.0
O143 O 0.67508 0.04432 0.89127 0.0
O144 O 0.69052 0.17906 0.93956 0.0
O145 O 0.70109 0.10098 0.81483 0.0
O146 O 0.70744 0.15119 0.85071 0.0
C147 C 0.6871 0.0554 0.92488 0.0
C148 C 0.5836 0.12534 0.87201 0.0
O149 O 0.60812 0.14331 0.89493 0.0
O150 O 0.59829 0.09983 0.85047 0.0
C151 C 0.72219 0.17467 0.96223 0.0
O152 O 0.74264 0.14334 0.96117 0.0
C153 C 0.71674 0.13251 0.81991 0.0
Zn154 Zn 0.35639 0.93253 0.35044 0.0
Zn155 Zn 0.34327 0.87768 0.39933 0.0
O156 O 0.32751 0.92543 0.42974 0.0
O157 O 0.34139 0.97131 0.38957 0.0
O158 O 0.32683 0.83853 0.43896 0.0
O159 O 0.31184 0.91427 0.31402 0.0
O160 O 0.30732 0.86398 0.34982 0.0
C161 C 0.32865 0.95989 0.42281 0.0
C162 C 0.43152 0.88947 0.36656 0.0
O163 O 0.40768 0.8723 0.39074 0.0
O164 O 0.41659 0.91506 0.34539 0.0
C165 C 0.31844 0.80575 0.42855 0.0
O166 O 0.32317 0.79645 0.39118 0.0
C167 C 0.2965 0.88269 0.31964 0.0
Zn168 Zn 0.32692 0.07683 0.85383 0.0
Zn169 Zn 0.31151 0.13139 0.90009 0.0
O170 O 0.28385 0.14552 0.84613 0.0
O171 O 0.28663 0.09374 0.81283 0.0
O172 O 0.2899 0.1699 0.93858 0.0
O173 O 0.30974 0.03688 0.89018 0.0
O174 O 0.29382 0.08313 0.92921 0.0
C175 C 0.27483 0.12678 0.81535 0.0
C176 C 0.40137 0.12018 0.87438 0.0
O177 O 0.37624 0.1376 0.8972 0.0
O178 O 0.38744 0.0945 0.85258 0.0
C179 C 0.2753 0.20109 0.92866 0.0
O180 O 0.27637 0.21078 0.89118 0.0
C181 C 0.29516 0.04856 0.92264 0.0
Zn182 Zn 0.68944 0.93279 0.35003 0.0
Zn183 Zn 0.70202 0.87607 0.39431 0.0
O184 O 0.72975 0.86294 0.33996 0.0
O185 O 0.73079 0.91611 0.30942 0.0
O186 O 0.72143 0.83651 0.43245 0.0
O187 O 0.70635 0.9709 0.38913 0.0
O188 O 0.72038 0.92273 0.42572 0.0
C189 C 0.74071 0.88253 0.3104 0.0
C190 C 0.61339 0.89006 0.36727 0.0
O191 O 0.6373 0.87175 0.39031 0.0
O192 O 0.62851 0.91599 0.34662 0.0
C193 C 0.74522 0.80953 0.4238 0.0
O194 O 0.75613 0.80412 0.38668 0.0
C195 C 0.71977 0.95754 0.42124 0.0
Zn196 Zn 0.32705 0.92095 0.12229 0.0
Zn197 Zn 0.3095 0.86429 0.08135 0.0
O198 O 0.28207 0.85546 0.13702 0.0
O199 O 0.28614 0.90986 0.16482 0.0
O200 O 0.28602 0.8227 0.0478 0.0
O201 O 0.31174 0.95835 0.08263 0.0
O202 O 0.29241 0.9103 0.04773 0.0
C203 C 0.27329 0.87707 0.16562 0.0
C204 C 0.40003 0.87529 0.10528 0.0
O205 O 0.37435 0.85724 0.08362 0.0
O206 O 0.38685 0.90219 0.12571 0.0
C207 C 0.27412 0.79214 0.06219 0.0
O208 O 0.2797 0.78597 0.10018 0.0
C209 C 0.29586 0.94512 0.05144 0.0
Zn210 Zn 0.68876 0.08301 0.62385 0.0
Zn211 Zn 0.70347 0.1394 0.58045 0.0
O212 O 0.73084 0.15197 0.63526 0.0
O213 O 0.72875 0.09874 0.6657 0.0
O214 O 0.72365 0.17882 0.54255 0.0
O215 O 0.70632 0.04454 0.58563 0.0
O216 O 0.72138 0.09244 0.54889 0.0
C217 C 0.73999 0.13201 0.66508 0.0
C218 C 0.61384 0.12646 0.60566 0.0
O219 O 0.63878 0.14496 0.58378 0.0
O220 O 0.62799 0.09999 0.62609 0.0
C221 C 0.74815 0.20536 0.55092 0.0
O222 O 0.75992 0.21037 0.58786 0.0
C223 C 0.72048 0.05765 0.55369 0.0
C224 C 0.00961 0.39361 0.13285 0.0
C225 C 0.03257 0.38 0.1003 0.0
C226 C 0.96563 0.39407 0.13289 0.0
C227 C 0.9423 0.38089 0.10041 0.0
H228 H 0.02575 0.40526 0.15822 0.0
H229 H 0.94981 0.40596 0.15833 0.0
S230 S 0.98681 0.33884 0.00928 0.0
N231 N 0.0286 0.35024 0.03578 0.0
N232 N 0.94538 0.351 0.03594 0.0
C233 C 0.96459 0.36497 0.06861 0.0
C234 C 0.00982 0.36455 0.06854 0.0
C235 C 1.00594 0.64585 0.56985 0.0
C236 C 0.98363 0.63805 0.60495 0.0
C237 C 0.05028 0.64413 0.56881 0.0
C238 C 0.07345 0.63448 0.60282 0.0
H239 H 0.98905 0.65093 0.54252 0.0
H240 H 0.06624 0.64816 0.54076 0.0
S241 S 0.03015 0.61922 0.70371 0.0
N242 N 0.9883 0.62591 0.67563 0.0
N243 N 0.07108 0.6227 0.67373 0.0
C244 C 0.05154 0.62977 0.6387 0.0
C245 C 1.00675 0.63156 0.63975 0.0
C246 C 0.96348 0.64806 0.88304 0.0
C247 C 0.94178 0.61441 0.87957 0.0
C248 C 1.00794 0.64941 0.88151 0.0
C249 C 0.03187 0.61716 0.87636 0.0
H250 H 0.94603 0.67351 0.88561 0.0
H251 H 0.02353 0.67583 0.88306 0.0
S252 S 0.99031 0.52182 0.87282 0.0
N253 N 0.948 0.54796 0.87569 0.0
N254 N 0.03056 0.55043 0.87279 0.0
C255 C 0.01041 0.58335 0.87511 0.0
C256 C 0.96565 0.58199 0.87671 0.0
C257 C 0.0498 0.38955 0.33391 0.0
C258 C 0.07281 0.3773 0.36694 0.0
C259 C 1.00582 0.38903 0.33365 0.0
C260 C 0.98268 0.37632 0.36645 0.0
H261 H 0.06586 0.40093 0.30837 0.0
H262 H 0.98984 0.40011 0.30794 0.0
S263 S 0.02775 0.33738 0.45876 0.0
N264 N 0.06935 0.34893 0.43206 0.0
N265 N 0.98616 0.34807 0.43169 0.0
C266 C 1.00517 0.36156 0.39869 0.0
C267 C 0.05036 0.36202 0.39891 0.0
C268 C 0.46889 0.87745 0.14005 0.0
C269 C 0.44578 0.86693 0.10634 0.0
C270 C 0.51288 0.87712 0.14008 0.0
C271 C 0.5359 0.86632 0.10636 0.0
H272 H 0.45288 0.8876 0.16626 0.0
H273 H 0.52899 0.88708 0.16629 0.0
S274 S 0.49061 0.832 0.01196 0.0
N275 N 0.44906 0.84193 0.03952 0.0
N276 N 0.53228 0.84141 0.0395 0.0
C277 C 0.51335 0.85299 0.07341 0.0
C278 C 0.46815 0.85327 0.07341 0.0
C279 C 0.54508 0.12213 0.64062 0.0
C280 C 0.56799 0.13439 0.60748 0.0
C281 C 0.50114 0.12372 0.64158 0.0
C282 C 0.47792 0.13757 0.6094 0.0
H283 H 0.56114 0.11 0.66572 0.0
H284 H 0.48519 0.1126 0.6673 0.0
S285 S 0.52276 0.17685 0.51711 0.0
N286 N 0.56439 0.16389 0.54293 0.0
N287 N 0.48128 0.16672 0.54464 0.0
C288 C 0.50037 0.15226 0.57708 0.0
C289 C 0.54552 0.1507 0.57613 0.0
C290 C 0.51419 0.11899 0.83866 0.0
C291 C 0.53732 0.13148 0.87158 0.0
C292 C 0.47025 0.11742 0.83939 0.0
C293 C 0.44721 0.12832 0.87305 0.0
H294 H 0.53024 0.1089 0.81245 0.0
H295 H 0.45428 0.10632 0.81365 0.0
S296 S 0.49216 0.167 0.96564 0.0
N297 N 0.53373 0.15798 0.93775 0.0
N298 N 0.45061 0.15514 0.93905 0.0
C299 C 0.46959 0.14331 0.90527 0.0
C300 C 0.51475 0.14488 0.90454 0.0
C301 C 0.50015 0.87216 0.39882 0.0
C302 C 0.47746 0.8822 0.36464 0.0
C303 C 0.54453 0.87246 0.39906 0.0
C304 C 0.56747 0.88287 0.36515 0.0
H305 H 0.48361 0.86619 0.42617 0.0
H306 H 0.56083 0.86664 0.42654 0.0
S307 S 0.52298 0.904 0.26605 0.0
N308 N 0.48139 0.89735 0.29456 0.0
N309 N 0.56427 0.89799 0.29504 0.0
C310 C 0.54509 0.88998 0.33004 0.0
C311 C 0.50021 0.88961 0.32977 0.0
C312 C 0.26887 0.38885 0.19989 0.0
C313 C 0.23768 0.36574 0.18405 0.0
C314 C 0.27733 0.38898 0.24057 0.0
C315 C 0.25442 0.36629 0.26648 0.0
H316 H 0.28248 0.41036 0.18178 0.0
H317 H 0.29714 0.41064 0.25236 0.0
S318 S 0.17935 0.29316 0.2375 0.0
N319 N 0.19169 0.31362 0.19538 0.0
N320 N 0.20741 0.31386 0.27219 0.0
C321 C 0.22927 0.33841 0.24993 0.0
C322 C 0.22074 0.33825 0.20836 0.0
C323 C 0.74715 0.62847 0.70325 0.0
C324 C 0.77972 0.65061 0.68833 0.0
C325 C 0.73898 0.62706 0.74399 0.0
C326 C 0.76349 0.64748 0.77084 0.0
H327 H 0.73211 0.60839 0.6842 0.0
H328 H 0.71788 0.60593 0.75483 0.0
S329 S 0.84332 0.71763 0.74503 0.0
N330 N 0.82928 0.6997 0.702 0.0
N331 N 0.81409 0.69698 0.77887 0.0
C332 C 0.7904 0.67464 0.75554 0.0
C333 C 0.79863 0.67613 0.71393 0.0
C334 C 0.21314 0.67653 0.75243 0.0
C335 C 0.23329 0.65251 0.77886 0.0
C336 C 0.2233 0.67598 0.71188 0.0
C337 C 0.2532 0.65086 0.69709 0.0
H338 H 0.18552 0.69169 0.76189 0.0
H339 H 0.20293 0.69071 0.69163 0.0
S340 S 0.32347 0.59155 0.75652 0.0
N341 N 0.29139 0.61043 0.78932 0.0
N342 N 0.31011 0.60903 0.71315 0.0
C343 C 0.27868 0.63217 0.72436 0.0
C344 C 0.26857 0.63292 0.76545 0.0
C345 C 0.73717 0.38558 0.22861 0.0
C346 C 0.76084 0.36358 0.20251 0.0
C347 C 0.74537 0.38527 0.26935 0.0
C348 C 0.77711 0.3627 0.28505 0.0
H349 H 0.71692 0.40697 0.21699 0.0
H350 H 0.73119 0.40644 0.28763 0.0
S351 S 0.83765 0.29176 0.2309 0.0
N352 N 0.80923 0.31218 0.19634 0.0
N353 N 0.82451 0.3116 0.27323 0.0
C354 C 0.79486 0.33573 0.26044 0.0
C355 C 0.78658 0.33607 0.21882 0.0
C356 C 0.7284 0.83762 0.2567 0.0
C357 C 0.75385 0.86568 0.27259 0.0
C358 C 0.72162 0.83526 0.2156 0.0
C359 C 0.74045 0.8607 0.18978 0.0
H360 H 0.70861 0.82132 0.27607 0.0
H361 H 0.69685 0.81734 0.20491 0.0
S362 S 0.82076 0.93019 0.21594 0.0
N363 N 0.8064 0.91235 0.25887 0.0
N364 N 0.79368 0.90783 0.18177 0.0
C365 C 0.77201 0.88376 0.20481 0.0
C366 C 0.77882 0.88623 0.24642 0.0
C367 C 0.23668 0.12313 0.75209 0.0
C368 C 0.2611 0.14436 0.77825 0.0
C369 C 0.24326 0.12512 0.71114 0.0
C370 C 0.27412 0.1486 0.69538 0.0
H371 H 0.21729 0.10102 0.76346 0.0
H372 H 0.22866 0.10451 0.69244 0.0
S373 S 0.33556 0.21825 0.75046 0.0
N374 N 0.30881 0.19616 0.78504 0.0
N375 N 0.32111 0.19987 0.70777 0.0
C376 C 0.29234 0.1749 0.72049 0.0
C377 C 0.28567 0.17287 0.76231 0.0
C378 C 0.77174 0.12594 0.76919 0.0
C379 C 0.74043 0.1481 0.78643 0.0
C380 C 0.77821 0.12601 0.72814 0.0
C381 C 0.75324 0.14801 0.70327 0.0
H382 H 0.78691 0.10476 0.78663 0.0
H383 H 0.79812 0.10484 0.71547 0.0
S384 S 0.67682 0.21886 0.73555 0.0
N385 N 0.69197 0.19884 0.77708 0.0
N386 N 0.70403 0.19898 0.69966 0.0
C387 C 0.72791 0.17516 0.72095 0.0
C388 C 0.72137 0.17511 0.76287 0.0
C389 C 0.28381 0.83677 0.22328 0.0
C390 C 0.25871 0.86326 0.20423 0.0
C391 C 0.29047 0.83857 0.26442 0.0
C392 C 0.27189 0.8667 0.28704 0.0
H393 H 0.3036 0.81859 0.20592 0.0
H394 H 0.31501 0.82164 0.27721 0.0
S395 S 0.19207 0.93348 0.25284 0.0
N396 N 0.20639 0.91125 0.21228 0.0
N397 N 0.21892 0.91463 0.28947 0.0
C398 C 0.24048 0.88824 0.26941 0.0
C399 C 0.23371 0.8864 0.22779 0.0
C400 C 0.24187 0.26101 0.94759 0.0
C401 C 0.25544 0.22568 0.95866 0.0
C402 C 0.22242 0.28466 0.97488 0.0
C403 C 0.21558 0.27406 0.01451 0.0
H404 H 0.24637 0.27069 0.91755 0.0
H405 H 0.21299 0.31164 0.96475 0.0
S406 S 0.24399 0.18393 0.05856 0.0
N407 N 0.25982 0.18094 0.01206 0.0
N408 N 0.22329 0.22527 0.06322 0.0
C409 C 0.22862 0.23864 0.02595 0.0
C410 C 0.24854 0.21454 -0.00187 0.0
C411 C 0.79894 0.729 0.47461 0.0
C412 C 0.79891 0.73912 0.51494 0.0
C413 C 0.78132 0.75179 0.44553 0.0
C414 C 0.76262 0.7856 0.45549 0.0
H415 H 0.81256 0.70312 0.46526 0.0
H416 H 0.78222 0.74264 0.41497 0.0
S417 S 0.75541 0.82578 0.55658 0.0
N418 N 0.77929 0.786 0.56312 0.0
N419 N 0.74609 0.82862 0.50857 0.0
C420 C 0.76249 0.79624 0.49566 0.0
C421 C 0.78068 0.77311 0.5253 0.0
C422 C 0.24023 0.73048 0.05372 0.0
C423 C 0.25241 0.76428 0.03707 0.0
C424 C 0.21923 0.70374 0.03126 0.0
C425 C 0.20941 0.70951 -0.00895 0.0
H426 H 0.24704 0.72439 0.08447 0.0
H427 H 0.21106 0.67814 0.04563 0.0
S428 S 0.2331 0.79383 0.93326 0.0
N429 N 0.25217 0.80239 0.97783 0.0
N430 N 0.21277 0.75218 0.93565 0.0
C431 C 0.22095 0.74337 0.97402 0.0
C432 C 0.24242 0.77068 -0.00305 0.0
C433 C 0.7848 0.26277 0.5288 0.0
C434 C 0.76511 0.22934 0.51903 0.0
C435 C 0.80176 0.28566 0.49944 0.0
C436 C 0.80013 0.27599 0.45901 0.0
H437 H 0.78694 0.27156 0.55943 0.0
H438 H 0.81624 0.31122 0.50864 0.0
S439 S 0.75332 0.19056 0.41769 0.0
N440 N 0.74578 0.18725 0.46595 0.0
N441 N 0.77779 0.23003 0.41089 0.0
C442 C 0.78091 0.24239 0.44883 0.0
C443 C 0.76335 0.21919 0.47875 0.0
C444 C 0.72961 0.76224 -0.00198 0.0
C445 C 0.74237 0.79893 -0.0071 0.0
C446 C 0.7465 0.7339 0.97459 0.0
C447 C 0.77637 0.74114 0.94466 0.0
H448 H 0.70692 0.7552 0.02077 0.0
H449 H 0.73578 0.70611 0.9799 0.0
S450 S 0.81892 0.83292 0.91817 0.0
N451 N 0.78597 0.84113 0.955 0.0
N452 N 0.81728 0.78813 0.91079 0.0
C453 C 0.78888 0.77784 0.93884 0.0
C454 C 0.77203 0.80663 0.96299 0.0
C455 C 0.30306 0.21294 0.44322 0.0
C456 C 0.30721 0.2175 0.48447 0.0
C457 C 0.28263 0.23926 0.41983 0.0
C458 C 0.26556 0.27145 0.43658 0.0
H459 H 0.31524 0.18857 0.42873 0.0
H460 H 0.2803 0.2342 0.38826 0.0
S461 S 0.26904 0.29729 0.54316 0.0
N462 N 0.29316 0.25718 0.5411 0.0
N463 N 0.25492 0.30666 0.4972 0.0
C464 C 0.26978 0.27657 0.47781 0.0
C465 C 0.29053 0.24965 0.50169 0.0
C466 C 0.74618 0.27091 0.0003 0.0
C467 C 0.77081 0.26438 0.03433 0.0
C468 C 0.72964 0.24183 0.97772 0.0
C469 C 0.73754 0.20502 -0.01208 0.0
H470 H 0.73952 0.29874 -0.00908 0.0
H471 H 0.71129 0.24829 0.95159 0.0
S472 S 0.79845 0.17273 0.07506 0.0
N473 N 0.8009 0.21793 0.07776 0.0
N474 N 0.77031 0.16357 0.03514 0.0
C475 C 0.76164 0.19805 0.02208 0.0
C476 C 0.77811 0.22761 0.04531 0.0
C477 C 0.27524 0.76692 0.52509 0.0
C478 C 0.26305 0.73098 0.5148 0.0
C479 C 0.29357 0.79058 0.49721 0.0
C480 C 0.30067 0.77935 0.45779 0.0
H481 H 0.27041 0.77709 0.55494 0.0
H482 H 0.30194 0.81804 0.50674 0.0
S483 S 0.27594 0.68743 0.4158 0.0
N484 N 0.26041 0.68496 0.46241 0.0
N485 N 0.29486 0.7293 0.41016 0.0
C486 C 0.28911 0.74329 0.44715 0.0
C487 C 0.27029 0.7192 0.47555 0.0
C488 C 0.19587 0.54438 -0.00991 0.0
C489 C 0.20074 0.53324 0.95046 0.0
C490 C 0.19354 0.51858 0.02069 0.0
C491 C 0.19609 0.48059 0.01295 0.0
H492 H 0.19099 0.57302 -0.00259 0.0
H493 H 0.18748 0.52859 0.05041 0.0
S494 S 0.21803 0.43768 0.91521 0.0
N495 N 0.21489 0.48206 0.9058 0.0
N496 N 0.21036 0.43355 0.96339 0.0
C497 C 0.20509 0.46929 0.97397 0.0
C498 C 0.20746 0.49562 0.94272 0.0
C499 C 0.82832 0.49658 0.52425 0.0
C500 C 0.82648 0.53454 0.51625 0.0
C501 C 0.8278 0.47059 0.49364 0.0
C502 C 0.82563 0.4815 0.45378 0.0
H503 H 0.83209 0.48675 0.55432 0.0
H504 H 0.83154 0.44189 0.5013 0.0
S505 S 0.81273 0.577 0.41713 0.0
N506 N 0.81683 0.58137 0.46567 0.0
N507 N 0.81588 0.53252 0.40812 0.0
C508 C 0.82038 0.51915 0.44547 0.0
C509 C 0.82076 0.54565 0.47671 0.0
C510 C 0.77492 0.51598 0.0251 0.0
C511 C 0.77233 0.47778 0.01836 0.0
C512 C 0.77307 0.54113 -0.00621 0.0
C513 C 0.76857 0.52913 0.95445 0.0
H514 H 0.78099 0.52662 0.05454 0.0
H515 H 0.7783 0.56991 0.00034 0.0
S516 S 0.75032 0.4329 0.92176 0.0
N517 N 0.75774 0.42979 0.97007 0.0
N518 N 0.75393 0.47703 0.91118 0.0
C519 C 0.7613 0.49138 0.94775 0.0
C520 C 0.76325 0.46572 0.97971 0.0
C521 C 0.23649 0.51486 0.44775 0.0
C522 C 0.23555 0.47664 0.45433 0.0
C523 C 0.23637 0.53985 0.47932 0.0
C524 C 0.2351 0.52764 0.51879 0.0
H525 H 0.23506 0.52574 0.41791 0.0
H526 H 0.23457 0.56888 0.47255 0.0
S527 S 0.24091 0.43059 0.55225 0.0
N528 N 0.2397 0.42791 0.50341 0.0
N529 N 0.23951 0.47485 0.56285 0.0
C530 C 0.23816 0.48958 0.52587 0.0
C531 C 0.23845 0.46408 0.49362 0.0
C532 C 0.69046 0.03841 -0.00353 0.0
C533 C 0.69475 0.02805 0.95656 0.0
C534 C 0.68889 0.01201 0.02654 0.0
C535 C 0.69177 0.97415 0.01797 0.0
H536 H 0.68585 0.06697 0.00446 0.0
H537 H 0.68356 0.02142 0.0566 0.0
S538 S 0.71133 0.93318 0.91884 0.0
N539 N 0.70772 0.97772 0.91047 0.0
N540 N 0.70484 0.92811 0.96707 0.0
C541 C 0.69963 0.96363 0.97854 0.0
C542 C 0.70107 0.99056 0.94782 0.0
C543 C 0.3209 0.97524 0.49455 0.0
C544 C 0.31984 0.98671 0.45484 0.0
C545 C 0.32071 1.00078 0.52556 0.0
C546 C 0.31926 0.03886 0.51816 0.0
H547 H 0.3243 0.94643 0.50185 0.0
H548 H 0.3237 0.99049 0.55552 0.0
S549 S 0.30783 0.08276 0.41955 0.0
N550 N 0.31126 0.03841 0.40983 0.0
N551 N 0.31071 0.08641 0.46824 0.0
C552 C 0.31442 0.05054 0.47873 0.0
C553 C 0.31483 0.02449 0.44704 0.0
C554 C 0.28558 0.0086 0.02547 0.0
C555 C 0.28594 0.97044 0.01834 0.0
C556 C 0.28521 0.03386 -0.00573 0.0
C557 C 0.28544 0.02198 0.95463 0.0
H558 H 0.28776 0.0192 0.05543 0.0
H559 H 0.28748 0.06281 0.00139 0.0
S560 S 0.278 0.92527 0.91996 0.0
N561 N 0.28028 0.92215 0.96873 0.0
N562 N 0.27958 0.96961 0.90993 0.0
C563 C 0.28188 0.984 0.94708 0.0
C564 C 0.28207 0.95823 0.97896 0.0
C565 C 0.72776 0.04536 0.48115 0.0
C566 C 0.73013 0.03247 0.52032 0.0
C567 C 0.72732 0.02092 0.44904 0.0
C568 C 0.72945 0.98262 0.45481 0.0
H569 H 0.7235 0.07436 0.47522 0.0
H570 H 0.72307 0.03219 0.41962 0.0
S571 S 0.7449 0.93547 0.55122 0.0
N572 N 0.74112 0.9794 0.56284 0.0
N573 N 0.74044 0.93346 0.50252 0.0
C574 C 0.73587 0.96964 0.4936 0.0
C575 C 0.73613 0.99455 0.52634 0.0
loop_
_geom_bond_atom_site_label_1
_geom_bond_atom_site_label_2
_geom_bond_distance
_geom_bond_site_symmetry_2
_ccdc_geom_bond_type
Zn0 O3 2.031 . S
Zn0 O5 2.049 . S
Zn0 O10 2.067 . S
Zn1 O2 1.962 . S
Zn1 O4 1.986 . S
Zn1 O6 1.996 . S
Zn1 O9 1.943 . S
O2 Zn1 1.962 . S
O2 C7 1.254 . S
O3 Zn0 2.031 . S
O3 C7 1.269 . S
O4 Zn1 1.986 . S
O4 C11 1.262 . S
O5 Zn0 2.049 . S
O5 C13 1.260 . S
O6 Zn1 1.996 . S
O6 C13 1.257 . S
C7 O2 1.254 . S
C7 O3 1.269 . S
C8 O9 1.249 . S
C8 O10 1.270 . S
O9 Zn1 1.943 . S
O9 C8 1.249 . S
O10 Zn0 2.067 . S
O10 C8 1.270 . S
C11 O4 1.262 . S
C11 O12 1.232 . S
O12 C11 1.232 . S
C13 O5 1.260 . S
C13 O6 1.257 . S
Zn14 O17 2.031 . S
Zn14 O19 2.049 . S
Zn14 O24 2.067 . S
Zn15 O16 1.962 . S
Zn15 O18 1.986 . S
Zn15 O20 1.996 . S
Zn15 O23 1.943 . S
O16 Zn15 1.962 . S
O16 C21 1.254 . S
O17 Zn14 2.031 . S
O17 C21 1.269 . S
O18 Zn15 1.986 . S
O18 C25 1.262 . S
O19 Zn14 2.049 . S
O19 C27 1.260 . S
O20 Zn15 1.996 . S
O20 C27 1.257 . S
C21 O16 1.254 . S
C21 O17 1.269 . S
C22 O23 1.249 . S
C22 O24 1.270 . S
O23 Zn15 1.943 . S
O23 C22 1.249 . S
O24 Zn14 2.067 . S
O24 C22 1.270 . S
C25 O18 1.262 . S
C25 O26 1.232 . S
O26 C25 1.232 . S
C27 O19 1.260 . S
C27 O20 1.257 . S
Zn28 O31 2.031 . S
Zn28 O33 2.049 . S
Zn28 O38 2.067 . S
Zn29 O30 1.962 . S
Zn29 O32 1.986 . S
Zn29 O34 1.996 . S
Zn29 O37 1.943 . S
O30 Zn29 1.962 . S
O30 C35 1.254 . S
O31 Zn28 2.031 . S
O31 C35 1.269 . S
O32 Zn29 1.986 . S
O32 C39 1.262 . S
O33 Zn28 2.049 . S
O33 C41 1.260 . S
O34 Zn29 1.996 . S
O34 C41 1.257 . S
C35 O30 1.254 . S
C35 O31 1.269 . S
C36 O37 1.249 . S
C36 O38 1.270 . S
O37 Zn29 1.943 . S
O37 C36 1.249 . S
O38 Zn28 2.067 . S
O38 C36 1.270 . S
C39 O32 1.262 . S
C39 O40 1.232 . S
O40 C39 1.232 . S
C41 O33 1.260 . S
C41 O34 1.257 . S
Zn42 O45 2.031 . S
Zn42 O47 2.049 . S
Zn42 O52 2.067 . S
Zn43 O44 1.962 . S
Zn43 O46 1.986 . S
Zn43 O48 1.996 . S
Zn43 O51 1.943 . S
O44 Zn43 1.962 . S
O44 C49 1.254 . S
O45 Zn42 2.031 . S
O45 C49 1.269 . S
O46 Zn43 1.986 . S
O46 C53 1.262 . S
O47 Zn42 2.049 . S
O47 C55 1.260 . S
O48 Zn43 1.996 . S
O48 C55 1.257 . S
C49 O44 1.254 . S
C49 O45 1.269 . S
C50 O51 1.249 . S
C50 O52 1.270 . S
O51 Zn43 1.943 . S
O51 C50 1.249 . S
O52 Zn42 2.067 . S
O52 C50 1.270 . S
C53 O46 1.262 . S
C53 O54 1.232 . S
O54 C53 1.232 . S
C55 O47 1.260 . S
C55 O48 1.257 . S
Zn56 O59 2.031 . S
Zn56 O61 2.049 . S
Zn56 O66 2.067 . S
Zn57 O58 1.962 . S
Zn57 O60 1.986 . S
Zn57 O62 1.996 . S
Zn57 O65 1.943 . S
O58 Zn57 1.962 . S
O58 C63 1.254 . S
O59 Zn56 2.031 . S
O59 C63 1.269 . S
O60 Zn57 1.986 . S
O60 C67 1.262 . S
O61 Zn56 2.049 . S
O61 C69 1.260 . S
O62 Zn57 1.996 . S
O62 C69 1.257 . S
C63 O58 1.254 . S
C63 O59 1.269 . S
C64 O65 1.249 . S
C64 O66 1.270 . S
O65 Zn57 1.943 . S
O65 C64 1.249 . S
O66 Zn56 2.067 . S
O66 C64 1.270 . S
C67 O60 1.262 . S
C67 O68 1.232 . S
O68 C67 1.232 . S
C69 O61 1.260 . S
C69 O62 1.257 . S
Zn70 O73 2.031 . S
Zn70 O75 2.049 . S
Zn70 O80 2.067 . S
Zn71 O72 1.962 . S
Zn71 O74 1.986 . S
Zn71 O76 1.996 . S
Zn71 O79 1.943 . S
O72 Zn71 1.962 . S
O72 C77 1.254 . S
O73 Zn70 2.031 . S
O73 C77 1.269 . S
O74 Zn71 1.986 . S
O74 C81 1.262 . S
O75 Zn70 2.049 . S
O75 C83 1.260 . S
O76 Zn71 1.996 . S
O76 C83 1.257 . S
C77 O72 1.254 . S
C77 O73 1.269 . S
C78 O79 1.249 . S
C78 O80 1.270 . S
O79 Zn71 1.943 . S
O79 C78 1.249 . S
O80 Zn70 2.067 . S
O80 C78 1.270 . S
C81 O74 1.262 . S
C81 O82 1.232 . S
O82 C81 1.232 . S
C83 O75 1.260 . S
C83 O76 1.257 . S
Zn84 O87 2.031 . S
Zn84 O89 2.049 . S
Zn84 O94 2.067 . S
Zn85 O86 1.962 . S
Zn85 O88 1.986 . S
Zn85 O90 1.996 . S
Zn85 O93 1.943 . S
O86 Zn85 1.962 . S
O86 C91 1.254 . S
O87 Zn84 2.031 . S
O87 C91 1.269 . S
O88 Zn85 1.986 . S
O88 C95 1.262 . S
O89 Zn84 2.049 . S
O89 C97 1.260 . S
O90 Zn85 1.996 . S
O90 C97 1.257 . S
C91 O86 1.254 . S
C91 O87 1.269 . S
C92 O93 1.249 . S
C92 O94 1.270 . S
O93 Zn85 1.943 . S
O93 C92 1.249 . S
O94 Zn84 2.067 . S
O94 C92 1.270 . S
C95 O88 1.262 . S
C95 O96 1.232 . S
O96 C95 1.232 . S
C97 O89 1.260 . S
C97 O90 1.257 . S
Zn98 O101 2.031 . S
Zn98 O103 2.049 . S
Zn98 O108 2.067 . S
Zn99 O100 1.962 . S
Zn99 O102 1.986 . S
Zn99 O104 1.996 . S
Zn99 O107 1.943 . S
O100 Zn99 1.962 . S
O100 C105 1.254 . S
O101 Zn98 2.031 . S
O101 C105 1.269 . S
O102 Zn99 1.986 . S
O102 C109 1.262 . S
O103 Zn98 2.049 . S
O103 C111 1.260 . S
O104 Zn99 1.996 . S
O104 C111 1.257 . S
C105 O100 1.254 . S
C105 O101 1.269 . S
C106 O107 1.249 . S
C106 O108 1.270 . S
O107 Zn99 1.943 . S
O107 C106 1.249 . S
O108 Zn98 2.067 . S
O108 C106 1.270 . S
C109 O102 1.262 . S
C109 O110 1.232 . S
O110 C109 1.232 . S
C111 O103 1.260 . S
C111 O104 1.257 . S
Zn112 O115 2.031 . S
Zn112 O117 2.049 . S
Zn112 O122 2.067 . S
Zn113 O114 1.962 . S
Zn113 O116 1.986 . S
Zn113 O118 1.996 . S
Zn113 O121 1.943 . S
O114 Zn113 1.962 . S
O114 C119 1.254 . S
O115 Zn112 2.031 . S
O115 C119 1.269 . S
O116 Zn113 1.986 . S
O116 C123 1.262 . S
O117 Zn112 2.049 . S
O117 C125 1.260 . S
O118 Zn113 1.996 . S
O118 C125 1.257 . S
C119 O114 1.254 . S
C119 O115 1.269 . S
C120 O121 1.249 . S
C120 O122 1.270 . S
O121 Zn113 1.943 . S
O121 C120 1.249 . S
O122 Zn112 2.067 . S
O122 C120 1.270 . S
C123 O116 1.262 . S
C123 O124 1.232 . S
O124 C123 1.232 . S
C125 O117 1.260 . S
C125 O118 1.257 . S
Zn126 O129 2.031 . S
Zn126 O131 2.049 . S
Zn126 O136 2.067 . S
Zn127 O128 1.962 . S
Zn127 O130 1.986 . S
Zn127 O132 1.996 . S
Zn127 O135 1.943 . S
O128 Zn127 1.962 . S
O128 C133 1.254 . S
O129 Zn126 2.031 . S
O129 C133 1.269 . S
O130 Zn127 1.986 . S
O130 C137 1.262 . S
O131 Zn126 2.049 . S
O131 C139 1.260 . S
O132 Zn127 1.996 . S
O132 C139 1.257 . S
C133 O128 1.254 . S
C133 O129 1.269 . S
C134 O135 1.249 . S
C134 O136 1.270 . S
O135 Zn127 1.943 . S
O135 C134 1.249 . S
O136 Zn126 2.067 . S
O136 C134 1.270 . S
C137 O130 1.262 . S
C137 O138 1.232 . S
O138 C137 1.232 . S
C139 O131 1.260 . S
C139 O132 1.257 . S
Zn140 O143 2.031 . S
Zn140 O145 2.049 . S
Zn140 O150 2.067 . S
Zn141 O142 1.962 . S
Zn141 O144 1.986 . S
Zn141 O146 1.996 . S
Zn141 O149 1.943 . S
O142 Zn141 1.962 . S
O142 C147 1.254 . S
O143 Zn140 2.031 . S
O143 C147 1.269 . S
O144 Zn141 1.986 . S
O144 C151 1.262 . S
O145 Zn140 2.049 . S
O145 C153 1.260 . S
O146 Zn141 1.996 . S
O146 C153 1.257 . S
C147 O142 1.254 . S
C147 O143 1.269 . S
C148 O149 1.249 . S
C148 O150 1.270 . S
O149 Zn141 1.943 . S
O149 C148 1.249 . S
O150 Zn140 2.067 . S
O150 C148 1.270 . S
C151 O144 1.262 . S
C151 O152 1.232 . S
O152 C151 1.232 . S
C153 O145 1.260 . S
C153 O146 1.257 . S
Zn154 O157 2.031 . S
Zn154 O159 2.049 . S
Zn154 O164 2.067 . S
Zn155 O156 1.962 . S
Zn155 O158 1.986 . S
Zn155 O160 1.996 . S
Zn155 O163 1.943 . S
O156 Zn155 1.962 . S
O156 C161 1.254 . S
O157 Zn154 2.031 . S
O157 C161 1.269 . S
O158 Zn155 1.986 . S
O158 C165 1.262 . S
O159 Zn154 2.049 . S
O159 C167 1.260 . S
O160 Zn155 1.996 . S
O160 C167 1.257 . S
C161 O156 1.254 . S
C161 O157 1.269 . S
C162 O163 1.249 . S
C162 O164 1.270 . S
O163 Zn155 1.943 . S
O163 C162 1.249 . S
O164 Zn154 2.067 . S
O164 C162 1.270 . S
C165 O158 1.262 . S
C165 O166 1.232 . S
O166 C165 1.232 . S
C167 O159 1.260 . S
C167 O160 1.257 . S
Zn168 O171 2.031 . S
Zn168 O173 2.049 . S
Zn168 O178 2.067 . S
Zn169 O170 1.962 . S
Zn169 O172 1.986 . S
Zn169 O174 1.996 . S
Zn169 O177 1.943 . S
O170 Zn169 1.962 . S
O170 C175 1.254 . S
O171 Zn168 2.031 . S
O171 C175 1.269 . S
O172 Zn169 1.986 . S
O172 C179 1.262 . S
O173 Zn168 2.049 . S
O173 C181 1.260 . S
O174 Zn169 1.996 . S
O174 C181 1.257 . S
C175 O170 1.254 . S
C175 O171 1.269 . S
C176 O177 1.249 . S
C176 O178 1.270 . S
O177 Zn169 1.943 . S
O177 C176 1.249 . S
O178 Zn168 2.067 . S
O178 C176 1.270 . S
C179 O172 1.262 . S
C179 O180 1.232 . S
O180 C179 1.232 . S
C181 O173 1.260 . S
C181 O174 1.257 . S
Zn182 O185 2.031 . S
Zn182 O187 2.049 . S
Zn182 O192 2.067 . S
Zn183 O184 1.962 . S
Zn183 O186 1.986 . S
Zn183 O188 1.996 . S
Zn183 O191 1.943 . S
O184 Zn183 1.962 . S
O184 C189 1.254 . S
O185 Zn182 2.031 . S
O185 C189 1.269 . S
O186 Zn183 1.986 . S
O186 C193 1.262 . S
O187 Zn182 2.049 . S
O187 C195 1.260 . S
O188 Zn183 1.996 . S
O188 C195 1.257 . S
C189 O184 1.254 . S
C189 O185 1.269 . S
C190 O191 1.249 . S
C190 O192 1.270 . S
O191 Zn183 1.943 . S
O191 C190 1.249 . S
O192 Zn182 2.067 . S
O192 C190 1.270 . S
C193 O186 1.262 . S
C193 O194 1.232 . S
O194 C193 1.232 . S
C195 O187 1.260 . S
C195 O188 1.257 . S
Zn196 O199 2.031 . S
Zn196 O201 2.049 . S
Zn196 O206 2.067 . S
Zn197 O198 1.962 . S
Zn197 O200 1.986 . S
Zn197 O202 1.996 . S
Zn197 O205 1.943 . S
O198 Zn197 1.962 . S
O198 C203 1.254 . S
O199 Zn196 2.031 . S
O199 C203 1.269 . S
O200 Zn197 1.986 . S
O200 C207 1.262 . S
O201 Zn196 2.049 . S
O201 C209 1.260 . S
O202 Zn197 1.996 . S
O202 C209 1.257 . S
C203 O198 1.254 . S
C203 O199 1.269 . S
C204 O205 1.249 . S
C204 O206 1.270 . S
O205 Zn197 1.943 . S
O205 C204 1.249 . S
O206 Zn196 2.067 . S
O206 C204 1.270 . S
C207 O200 1.262 . S
C207 O208 1.232 . S
O208 C207 1.232 . S
C209 O201 1.260 . S
C209 O202 1.257 . S
Zn210 O213 2.031 . S
Zn210 O215 2.049 . S
Zn210 O220 2.067 . S
Zn211 O212 1.962 . S
Zn211 O214 1.986 . S
Zn211 O216 1.996 . S
Zn211 O219 1.943 . S
O212 Zn211 1.962 . S
O212 C217 1.254 . S
O213 Zn210 2.031 . S
O213 C217 1.269 . S
O214 Zn211 1.986 . S
O214 C221 1.262 . S
O215 Zn210 2.049 . S
O215 C223 1.260 . S
O216 Zn211 1.996 . S
O216 C223 1.257 . S
C217 O212 1.254 . S
C217 O213 1.269 . S
C218 O219 1.249 . S
C218 O220 1.270 . S
O219 Zn211 1.943 . S
O219 C218 1.249 . S
O220 Zn210 2.067 . S
O220 C218 1.270 . S
C221 O214 1.262 . S
C221 O222 1.232 . S
O222 C221 1.232 . S
C223 O215 1.260 . S
C223 O216 1.257 . S
C224 C225 1.369 . S
C224 C226 1.419 1_455 S
C224 H228 0.930 . S
C225 C224 1.369 . S
C225 C234 1.429 . S
C226 C224 1.419 1_655 S
C226 C227 1.363 . S
C226 H229 0.929 . S
C227 C226 1.363 . S
C227 C233 1.428 . S
H228 C224 0.930 . S
H229 C226 0.929 . S
S230 N231 1.613 1_655 S
S230 N232 1.610 . S
N231 S230 1.613 1_455 S
N231 C234 1.350 . S
N232 S230 1.610 . S
N232 C233 1.351 . S
C233 C227 1.428 . S
C233 N232 1.351 . S
C233 C234 1.434 1_655 S
C234 C225 1.429 . S
C234 N231 1.350 . S
C234 C233 1.434 1_455 S
C235 C236 1.369 . S
C235 C237 1.419 1_655 S
C235 H239 0.930 . S
C236 C235 1.369 . S
C236 C245 1.429 . S
C237 C235 1.419 1_455 S
C237 C238 1.363 . S
C237 H240 0.929 . S
C238 C237 1.363 . S
C238 C244 1.428 . S
H239 C235 0.930 . S
H240 C237 0.929 . S
S241 N242 1.613 1_455 S
S241 N243 1.610 . S
N242 S241 1.613 1_655 S
N242 C245 1.350 . S
N243 S241 1.610 . S
N243 C244 1.351 . S
C244 C238 1.428 . S
C244 N243 1.351 . S
C244 C245 1.434 1_455 S
C245 C236 1.429 . S
C245 N242 1.350 . S
C245 C244 1.434 1_655 S
C246 C247 1.369 . S
C246 C248 1.419 1_655 S
C246 H250 0.930 . S
C247 C246 1.369 . S
C247 C256 1.429 . S
C248 C246 1.419 1_455 S
C248 C249 1.363 . S
C248 H251 0.929 . S
C249 C248 1.363 . S
C249 C255 1.428 . S
H250 C246 0.930 . S
H251 C248 0.929 . S
S252 N253 1.613 . S
S252 N254 1.610 1_655 S
N253 S252 1.613 . S
N253 C256 1.350 . S
N254 S252 1.610 1_455 S
N254 C255 1.351 . S
C255 C249 1.428 . S
C255 N254 1.351 . S
C255 C256 1.434 1_455 S
C256 C247 1.429 . S
C256 N253 1.350 . S
C256 C255 1.434 1_655 S
C257 C258 1.369 . S
C257 C259 1.419 1_455 S
C257 H261 0.930 . S
C258 C257 1.369 . S
C258 C267 1.429 . S
C259 C257 1.419 1_655 S
C259 C260 1.363 . S
C259 H262 0.929 . S
C260 C259 1.363 . S
C260 C266 1.428 . S
H261 C257 0.930 . S
H262 C259 0.929 . S
S263 N264 1.613 . S
S263 N265 1.610 1_455 S
N264 S263 1.613 . S
N264 C267 1.350 . S
N265 S263 1.610 1_655 S
N265 C266 1.351 . S
C266 C260 1.428 . S
C266 N265 1.351 . S
C266 C267 1.434 1_655 S
C267 C258 1.429 . S
C267 N264 1.350 . S
C267 C266 1.434 1_455 S
C268 C269 1.369 . S
C268 C270 1.419 . S
C268 H272 0.930 . S
C269 C268 1.369 . S
C269 C278 1.429 . S
C270 C268 1.419 . S
C270 C271 1.363 . S
C270 H273 0.929 . S
C271 C270 1.363 . S
C271 C277 1.428 . S
H272 C268 0.930 . S
H273 C270 0.929 . S
S274 N275 1.613 1_556 S
S274 N276 1.610 1_556 S
N275 S274 1.613 1_554 S
N275 C278 1.350 . S
N276 S274 1.610 1_554 S
N276 C277 1.351 . S
C277 C271 1.428 . S
C277 N276 1.351 . S
C277 C278 1.434 . S
C278 C269 1.429 . S
C278 N275 1.350 . S
C278 C277 1.434 . S
C279 C280 1.369 . S
C279 C281 1.419 . S
C279 H283 0.930 . S
C280 C279 1.369 . S
C280 C289 1.429 . S
C281 C279 1.419 . S
C281 C282 1.363 . S
C281 H284 0.929 . S
C282 C281 1.363 . S
C282 C288 1.428 . S
H283 C279 0.930 . S
H284 C281 0.929 . S
S285 N286 1.613 . S
S285 N287 1.610 . S
N286 S285 1.613 . S
N286 C289 1.350 . S
N287 S285 1.610 . S
N287 C288 1.351 . S
C288 C282 1.428 . S
C288 N287 1.351 . S
C288 C289 1.434 . S
C289 C280 1.429 . S
C289 N286 1.350 . S
C289 C288 1.434 . S
C290 C291 1.369 . S
C290 C292 1.419 . S
C290 H294 0.930 . S
C291 C290 1.369 . S
C291 C300 1.429 . S
C292 C290 1.419 . S
C292 C293 1.363 . S
C292 H295 0.929 . S
C293 C292 1.363 . S
C293 C299 1.428 . S
H294 C290 0.930 . S
H295 C292 0.929 . S
S296 N297 1.613 1_554 S
S296 N298 1.610 1_554 S
N297 S296 1.613 1_556 S
N297 C300 1.350 . S
N298 S296 1.610 1_556 S
N298 C299 1.351 . S
C299 C293 1.428 . S
C299 N298 1.351 . S
C299 C300 1.434 . S
C300 C291 1.429 . S
C300 N297 1.350 . S
C300 C299 1.434 . S
C301 C302 1.369 . S
C301 C303 1.419 . S
C301 H305 0.930 . S
C302 C301 1.369 . S
C302 C311 1.429 . S
C303 C301 1.419 . S
C303 C304 1.363 . S
C303 H306 0.929 . S
C304 C303 1.363 . S
C304 C310 1.428 . S
H305 C301 0.930 . S
H306 C303 0.929 . S
S307 N308 1.613 . S
S307 N309 1.610 . S
N308 S307 1.613 . S
N308 C311 1.350 . S
N309 S307 1.610 . S
N309 C310 1.351 . S
C310 C304 1.428 . S
C310 N309 1.351 . S
C310 C311 1.434 . S
C311 C302 1.429 . S
C311 N308 1.350 . S
C311 C310 1.434 . S
C312 C313 1.369 . S
C312 C314 1.419 . S
C312 H316 0.930 . S
C313 C312 1.369 . S
C313 C322 1.429 . S
C314 C312 1.419 . S
C314 C315 1.363 . S
C314 H317 0.929 . S
C315 C314 1.363 . S
C315 C321 1.428 . S
H316 C312 0.930 . S
H317 C314 0.929 . S
S318 N319 1.613 . S
S318 N320 1.610 . S
N319 S318 1.613 . S
N319 C322 1.350 . S
N320 S318 1.610 . S
N320 C321 1.351 . S
C321 C315 1.428 . S
C321 N320 1.351 . S
C321 C322 1.434 . S
C322 C313 1.429 . S
C322 N319 1.350 . S
C322 C321 1.434 . S
C323 C324 1.369 . S
C323 C325 1.419 . S
C323 H327 0.930 . S
C324 C323 1.369 . S
C324 C333 1.429 . S
C325 C323 1.419 . S
C325 C326 1.363 . S
C325 H328 0.929 . S
C326 C325 1.363 . S
C326 C332 1.428 . S
H327 C323 0.930 . S
H328 C325 0.929 . S
S329 N330 1.613 . S
S329 N331 1.610 . S
N330 S329 1.613 . S
N330 C333 1.350 . S
N331 S329 1.610 . S
N331 C332 1.351 . S
C332 C326 1.428 . S
C332 N331 1.351 . S
C332 C333 1.434 . S
C333 C324 1.429 . S
C333 N330 1.350 . S
C333 C332 1.434 . S
C334 C335 1.369 . S
C334 C336 1.419 . S
C334 H338 0.930 . S
C335 C334 1.369 . S
C335 C344 1.429 . S
C336 C334 1.419 . S
C336 C337 1.363 . S
C336 H339 0.929 . S
C337 C336 1.363 . S
C337 C343 1.428 . S
H338 C334 0.930 . S
H339 C336 0.929 . S
S340 N341 1.613 . S
S340 N342 1.610 . S
N341 S340 1.613 . S
N341 C344 1.350 . S
N342 S340 1.610 . S
N342 C343 1.351 . S
C343 C337 1.428 . S
C343 N342 1.351 . S
C343 C344 1.434 . S
C344 C335 1.429 . S
C344 N341 1.350 . S
C344 C343 1.434 . S
C345 C346 1.369 . S
C345 C347 1.419 . S
C345 H349 0.930 . S
C346 C345 1.369 . S
C346 C355 1.429 . S
C347 C345 1.419 . S
C347 C348 1.363 . S
C347 H350 0.929 . S
C348 C347 1.363 . S
C348 C354 1.428 . S
H349 C345 0.930 . S
H350 C347 0.929 . S
S351 N352 1.613 . S
S351 N353 1.610 . S
N352 S351 1.613 . S
N352 C355 1.350 . S
N353 S351 1.610 . S
N353 C354 1.351 . S
C354 C348 1.428 . S
C354 N353 1.351 . S
C354 C355 1.434 . S
C355 C346 1.429 . S
C355 N352 1.350 . S
C355 C354 1.434 . S
C356 C357 1.369 . S
C356 C358 1.419 . S
C356 H360 0.930 . S
C357 C356 1.369 . S
C357 C366 1.429 . S
C358 C356 1.419 . S
C358 C359 1.363 . S
C358 H361 0.929 . S
C359 C358 1.363 . S
C359 C365 1.428 . S
H360 C356 0.930 . S
H361 C358 0.929 . S
S362 N363 1.613 . S
S362 N364 1.610 . S
N363 S362 1.613 . S
N363 C366 1.350 . S
N364 S362 1.610 . S
N364 C365 1.351 . S
C365 C359 1.428 . S
C365 N364 1.351 . S
C365 C366 1.434 . S
C366 C357 1.429 . S
C366 N363 1.350 . S
C366 C365 1.434 . S
C367 C368 1.369 . S
C367 C369 1.419 . S
C367 H371 0.930 . S
C368 C367 1.369 . S
C368 C377 1.429 . S
C369 C367 1.419 . S
C369 C370 1.363 . S
C369 H372 0.929 . S
C370 C369 1.363 . S
C370 C376 1.428 . S
H371 C367 0.930 . S
H372 C369 0.929 . S
S373 N374 1.613 . S
S373 N375 1.610 . S
N374 S373 1.613 . S
N374 C377 1.350 . S
N375 S373 1.610 . S
N375 C376 1.351 . S
C376 C370 1.428 . S
C376 N375 1.351 . S
C376 C377 1.434 . S
C377 C368 1.429 . S
C377 N374 1.350 . S
C377 C376 1.434 . S
C378 C379 1.369 . S
C378 C380 1.419 . S
C378 H382 0.930 . S
C379 C378 1.369 . S
C379 C388 1.429 . S
C380 C378 1.419 . S
C380 C381 1.363 . S
C380 H383 0.929 . S
C381 C380 1.363 . S
C381 C387 1.428 . S
H382 C378 0.930 . S
H383 C380 0.929 . S
S384 N385 1.613 . S
S384 N386 1.610 . S
N385 S384 1.613 . S
N385 C388 1.350 . S
N386 S384 1.610 . S
N386 C387 1.351 . S
C387 C381 1.428 . S
C387 N386 1.351 . S
C387 C388 1.434 . S
C388 C379 1.429 . S
C388 N385 1.350 . S
C388 C387 1.434 . S
C389 C390 1.369 . S
C389 C391 1.419 . S
C389 H393 0.930 . S
C390 C389 1.369 . S
C390 C399 1.429 . S
C391 C389 1.419 . S
C391 C392 1.363 . S
C391 H394 0.929 . S
C392 C391 1.363 . S
C392 C398 1.428 . S
H393 C389 0.930 . S
H394 C391 0.929 . S
S395 N396 1.613 . S
S395 N397 1.610 . S
N396 S395 1.613 . S
N396 C399 1.350 . S
N397 S395 1.610 . S
N397 C398 1.351 . S
C398 C392 1.428 . S
C398 N397 1.351 . S
C398 C399 1.434 . S
C399 C390 1.429 . S
C399 N396 1.350 . S
C399 C398 1.434 . S
C400 C401 1.369 . S
C400 C402 1.419 1_556 S
C400 H404 0.930 . S
C401 C400 1.369 . S
C401 C410 1.429 . S
C402 C400 1.419 1_554 S
C402 C403 1.363 . S
C402 H405 0.929 . S
C403 C402 1.363 . S
C403 C409 1.428 . S
H404 C400 0.930 . S
H405 C402 0.929 . S
S406 N407 1.613 . S
S406 N408 1.610 1_556 S
N407 S406 1.613 . S
N407 C410 1.350 . S
N408 S406 1.610 1_554 S
N408 C409 1.351 . S
C409 C403 1.428 . S
C409 N408 1.351 . S
C409 C410 1.434 1_554 S
C410 C401 1.429 . S
C410 N407 1.350 . S
C410 C409 1.434 1_556 S
C411 C412 1.369 . S
C411 C413 1.419 . S
C411 H415 0.930 . S
C412 C411 1.369 . S
C412 C421 1.429 . S
C413 C411 1.419 . S
C413 C414 1.363 . S
C413 H416 0.929 . S
C414 C413 1.363 . S
C414 C420 1.428 . S
H415 C411 0.930 . S
H416 C413 0.929 . S
S417 N418 1.613 . S
S417 N419 1.610 . S
N418 S417 1.613 . S
N418 C421 1.350 . S
N419 S417 1.610 . S
N419 C420 1.351 . S
C420 C414 1.428 . S
C420 N419 1.351 . S
C420 C421 1.434 . S
C421 C412 1.429 . S
C421 N418 1.350 . S
C421 C420 1.434 . S
C422 C423 1.369 . S
C422 C424 1.419 . S
C422 H426 0.930 . S
C423 C422 1.369 . S
C423 C432 1.429 1_554 S
C424 C422 1.419 . S
C424 C425 1.363 1_554 S
C424 H427 0.929 . S
C425 C424 1.363 1_556 S
C425 C431 1.428 . S
H426 C422 0.930 . S
H427 C424 0.929 . S
S428 N429 1.613 . S
S428 N430 1.610 . S
N429 S428 1.613 . S
N429 C432 1.350 . S
N430 S428 1.610 . S
N430 C431 1.351 . S
C431 C425 1.428 . S
C431 N430 1.351 . S
C431 C432 1.434 . S
C432 C423 1.429 1_556 S
C432 N429 1.350 . S
C432 C431 1.434 . S
C433 C434 1.369 . S
C433 C435 1.419 . S
C433 H437 0.930 . S
C434 C433 1.369 . S
C434 C443 1.429 . S
C435 C433 1.419 . S
C435 C436 1.363 . S
C435 H438 0.929 . S
C436 C435 1.363 . S
C436 C442 1.428 . S
H437 C433 0.930 . S
H438 C435 0.929 . S
S439 N440 1.613 . S
S439 N441 1.610 . S
N440 S439 1.613 . S
N440 C443 1.350 . S
N441 S439 1.610 . S
N441 C442 1.351 . S
C442 C436 1.428 . S
C442 N441 1.351 . S
C442 C443 1.434 . S
C443 C434 1.429 . S
C443 N440 1.350 . S
C443 C442 1.434 . S
C444 C445 1.369 . S
C444 C446 1.419 . S
C444 H448 0.930 . S
C445 C444 1.369 . S
C445 C454 1.429 1_554 S
C446 C444 1.419 . S
C446 C447 1.363 1_554 S
C446 H449 0.929 . S
C447 C446 1.363 1_556 S
C447 C453 1.428 . S
H448 C444 0.930 . S
H449 C446 0.929 . S
S450 N451 1.613 . S
S450 N452 1.610 . S
N451 S450 1.613 . S
N451 C454 1.350 . S
N452 S450 1.610 . S
N452 C453 1.351 . S
C453 C447 1.428 . S
C453 N452 1.351 . S
C453 C454 1.434 . S
C454 C445 1.429 1_556 S
C454 N451 1.350 . S
C454 C453 1.434 . S
C455 C456 1.369 . S
C455 C457 1.419 . S
C455 H459 0.930 . S
C456 C455 1.369 . S
C456 C465 1.429 . S
C457 C455 1.419 . S
C457 C458 1.363 . S
C457 H460 0.929 . S
C458 C457 1.363 . S
C458 C464 1.428 . S
H459 C455 0.930 . S
H460 C457 0.929 . S
S461 N462 1.613 . S
S461 N463 1.610 . S
N462 S461 1.613 . S
N462 C465 1.350 . S
N463 S461 1.610 . S
N463 C464 1.351 . S
C464 C458 1.428 . S
C464 N463 1.351 . S
C464 C465 1.434 . S
C465 C456 1.429 . S
C465 N462 1.350 . S
C465 C464 1.434 . S
C466 C467 1.369 1_556 S
C466 C468 1.419 . S
C466 H470 0.930 . S
C467 C466 1.369 1_554 S
C467 C476 1.429 . S
C468 C466 1.419 . S
C468 C469 1.363 . S
C468 H471 0.929 . S
C469 C468 1.363 . S
C469 C475 1.428 1_556 S
H470 C466 0.930 . S
H471 C468 0.929 . S
S472 N473 1.613 . S
S472 N474 1.610 . S
N473 S472 1.613 . S
N473 C476 1.350 . S
N474 S472 1.610 . S
N474 C475 1.351 . S
C475 C469 1.428 1_554 S
C475 N474 1.351 . S
C475 C476 1.434 . S
C476 C467 1.429 . S
C476 N473 1.350 . S
C476 C475 1.434 . S
C477 C478 1.369 . S
C477 C479 1.419 . S
C477 H481 0.930 . S
C478 C477 1.369 . S
C478 C487 1.429 . S
C479 C477 1.419 . S
C479 C480 1.363 . S
C479 H482 0.929 . S
C480 C479 1.363 . S
C480 C486 1.428 . S
H481 C477 0.930 . S
H482 C479 0.929 . S
S483 N484 1.613 . S
S483 N485 1.610 . S
N484 S483 1.613 . S
N484 C487 1.350 . S
N485 S483 1.610 . S
N485 C486 1.351 . S
C486 C480 1.428 . S
C486 N485 1.351 . S
C486 C487 1.434 . S
C487 C478 1.429 . S
C487 N484 1.350 . S
C487 C486 1.434 . S
C488 C489 1.369 1_554 S
C488 C490 1.419 . S
C488 H492 0.930 . S
C489 C488 1.369 1_556 S
C489 C498 1.429 . S
C490 C488 1.419 . S
C490 C491 1.363 . S
C490 H493 0.929 . S
C491 C490 1.363 . S
C491 C497 1.428 1_554 S
H492 C488 0.930 . S
H493 C490 0.929 . S
S494 N495 1.613 . S
S494 N496 1.610 . S
N495 S494 1.613 . S
N495 C498 1.350 . S
N496 S494 1.610 . S
N496 C497 1.351 . S
C497 C491 1.428 1_556 S
C497 N496 1.351 . S
C497 C498 1.434 . S
C498 C489 1.429 . S
C498 N495 1.350 . S
C498 C497 1.434 . S
C499 C500 1.369 . S
C499 C501 1.419 . S
C499 H503 0.930 . S
C500 C499 1.369 . S
C500 C509 1.429 . S
C501 C499 1.419 . S
C501 C502 1.363 . S
C501 H504 0.929 . S
C502 C501 1.363 . S
C502 C508 1.428 . S
H503 C499 0.930 . S
H504 C501 0.929 . S
S505 N506 1.613 . S
S505 N507 1.610 . S
N506 S505 1.613 . S
N506 C509 1.350 . S
N507 S505 1.610 . S
N507 C508 1.351 . S
C508 C502 1.428 . S
C508 N507 1.351 . S
C508 C509 1.434 . S
C509 C500 1.429 . S
C509 N506 1.350 . S
C509 C508 1.434 . S
C510 C511 1.369 . S
C510 C512 1.419 . S
C510 H514 0.930 . S
C511 C510 1.369 . S
C511 C520 1.429 1_554 S
C512 C510 1.419 . S
C512 C513 1.363 1_554 S
C512 H515 0.929 . S
C513 C512 1.363 1_556 S
C513 C519 1.428 . S
H514 C510 0.930 . S
H515 C512 0.929 . S
S516 N517 1.613 . S
S516 N518 1.610 . S
N517 S516 1.613 . S
N517 C520 1.350 . S
N518 S516 1.610 . S
N518 C519 1.351 . S
C519 C513 1.428 . S
C519 N518 1.351 . S
C519 C520 1.434 . S
C520 C511 1.429 1_556 S
C520 N517 1.350 . S
C520 C519 1.434 . S
C521 C522 1.369 . S
C521 C523 1.419 . S
C521 H525 0.930 . S
C522 C521 1.369 . S
C522 C531 1.429 . S
C523 C521 1.419 . S
C523 C524 1.363 . S
C523 H526 0.929 . S
C524 C523 1.363 . S
C524 C530 1.428 . S
H525 C521 0.930 . S
H526 C523 0.929 . S
S527 N528 1.613 . S
S527 N529 1.610 . S
N528 S527 1.613 . S
N528 C531 1.350 . S
N529 S527 1.610 . S
N529 C530 1.351 . S
C530 C524 1.428 . S
C530 N529 1.351 . S
C530 C531 1.434 . S
C531 C522 1.429 . S
C531 N528 1.350 . S
C531 C530 1.434 . S
C532 C533 1.369 1_554 S
C532 C534 1.419 1_545 S
C532 H536 0.930 . S
C533 C532 1.369 1_556 S
C533 C542 1.429 . S
C534 C532 1.419 1_565 S
C534 C535 1.363 . S
C534 H537 0.929 . S
C535 C534 1.363 . S
C535 C541 1.428 1_554 S
H536 C532 0.930 . S
H537 C534 0.929 . S
S538 N539 1.613 1_565 S
S538 N540 1.610 . S
N539 S538 1.613 1_545 S
N539 C542 1.350 . S
N540 S538 1.610 . S
N540 C541 1.351 . S
C541 C535 1.428 1_556 S
C541 N540 1.351 . S
C541 C542 1.434 1_565 S
C542 C533 1.429 . S
C542 N539 1.350 . S
C542 C541 1.434 1_545 S
C543 C544 1.369 . S
C543 C545 1.419 1_565 S
C543 H547 0.930 . S
C544 C543 1.369 . S
C544 C553 1.429 . S
C545 C543 1.419 1_545 S
C545 C546 1.363 . S
C545 H548 0.929 . S
C546 C545 1.363 . S
C546 C552 1.428 . S
H547 C543 0.930 . S
H548 C545 0.929 . S
S549 N550 1.613 1_545 S
S549 N551 1.610 . S
N550 S549 1.613 1_565 S
N550 C553 1.350 . S
N551 S549 1.610 . S
N551 C552 1.351 . S
C552 C546 1.428 . S
C552 N551 1.351 . S
C552 C553 1.434 1_545 S
C553 C544 1.429 . S
C553 N550 1.350 . S
C553 C552 1.434 1_565 S
C554 C555 1.369 . S
C554 C556 1.419 1_564 S
C554 H558 0.930 . S
C555 C554 1.369 . S
C555 C564 1.429 1_554 S
C556 C554 1.419 1_546 S
C556 C557 1.362 . S
C556 H559 0.929 1_556 S
C557 C556 1.362 . S
C557 C563 1.428 . S
H558 C554 0.930 . S
H559 C556 0.929 1_554 S
S560 N561 1.613 . S
S560 N562 1.610 1_565 S
N561 S560 1.613 . S
N561 C564 1.350 . S
N562 S560 1.610 1_545 S
N562 C563 1.351 . S
C563 C557 1.428 . S
C563 N562 1.351 . S
C563 C564 1.434 1_545 S
C564 C555 1.429 1_556 S
C564 N561 1.350 . S
C564 C563 1.434 1_565 S
C565 C566 1.369 . S
C565 C567 1.419 1_545 S
C565 H569 0.930 . S
C566 C565 1.369 . S
C566 C575 1.433 . S
C567 C565 1.419 1_565 S
C567 C568 1.363 . S
C567 H570 0.929 . S
C568 C567 1.363 . S
C568 C574 1.428 . S
H569 C565 0.930 . S
H570 C567 0.929 . S
S571 N572 1.613 . S
S571 N573 1.610 . S
N572 S571 1.613 . S
N572 C575 1.349 1_565 S
N573 S571 1.610 . S
N573 C574 1.351 . S
C574 C568 1.428 . S
C574 N573 1.351 . S
C574 C575 1.429 1_565 S
C575 C566 1.433 . S
C575 N572 1.349 1_545 S
C575 C574 1.429 1_545 S
C225 C8 1.435 . S
C227 C92 1.426 . S
C236 C22 1.426 . S
C238 C106 1.424 . S
C247 C64 1.419 . S
C249 C36 1.429 . S
C258 C78 1.427 . S
C260 C50 1.434 . S
C269 C204 1.422 . S
C271 C120 1.433 . S
C280 C218 1.428 . S
C282 C134 1.433 . S
C291 C148 1.431 . S
C293 C176 1.421 . S
C302 C162 1.426 . S
C304 C190 1.425 . S
C313 C13 1.346 . S
C315 C77 1.439 . S
C324 C27 1.345 . S
C326 C63 1.439 . S
C335 C41 1.332 . S
C337 C105 1.436 . S
C346 C91 1.440 . S
C348 C55 1.344 . S
C357 C189 1.436 . S
C359 C125 1.335 . S
C368 C175 1.440 . S
C370 C139 1.345 . S
C379 C153 1.345 . S
C381 C217 1.439 . S
C390 C203 1.435 . S
C392 C167 1.334 . S
C401 C179 1.405 . S
C403 C11 1.400 . S
C412 C25 1.401 . S
C414 C193 1.405 . S
C423 C207 1.405 . S
C425 C39 1.402 . S
C434 C221 1.405 . S
C436 C53 1.401 . S
C445 C123 1.399 . S
C447 C67 1.404 . S
C456 C137 1.402 . S
C458 C81 1.406 . S
C467 C95 1.404 . S
C469 C151 1.399 . S
C478 C109 1.406 . S
C480 C165 1.401 . S
C489 C35 1.502 . S
C491 C7 1.504 . S
C500 C21 1.505 . S
C502 C49 1.502 . S
C511 C97 1.305 . S
C513 C69 1.296 . S
C522 C83 1.306 . S
C524 C111 1.297 . S
C533 C147 1.500 . S
C535 C119 1.503 . S
C544 C161 1.503 . S
C546 C133 1.504 . S
C555 C209 1.306 . S
C557 C181 1.299 . S
C566 C223 1.294 . S
C568 C195 1.303 . S
