# Generated by pormake.
# Topology uni, (4)-cn, num edge types: 1
# Building blocks:
#     Node 0, Type 0, BuildingBlock: NAHDIM_clean_sbu_0, # of connection points: 4
#     Node 1, Type 0, BuildingBlock: NAHDIM_clean_sbu_0, # of connection points: 4
#     Node 2, Type 0, BuildingBlock: NAHDIM_clean_sbu_0, # of connection points: 4
#     Node 3, Type 0, BuildingBlock: NAHDIM_clean_sbu_0, # of connection points: 4
#     Node 4, Type 0, BuildingBlock: NAHDIM_clean_sbu_0, # of connection points: 4
#     Node 5, Type 0, BuildingBlock: NAHDIM_clean_sbu_0, # of connection points: 4
#     Edge 6, Type (0, 0), BuildingBlock: FUNLAD_clean_linker_0, # of connection points: 2
#     Edge 7, Type (0, 0), BuildingBlock: FUNLAD_clean_linker_0, # of connection points: 2
#     Edge 8, Type (0, 0), BuildingBlock: FUNLAD_clean_linker_0, # of connection points: 2
#     Edge 9, Type (0, 0), BuildingBlock: FUNLAD_clean_linker_0, # of connection points: 2
#     Edge 10, Type (0, 0), BuildingBlock: FUNLAD_clean_linker_0, # of connection points: 2
#     Edge 11, Type (0, 0), BuildingBlock: FUNLAD_clean_linker_0, # of connection points: 2
#     Edge 12, Type (0, 0), BuildingBlock: FUNLAD_clean_linker_0, # of connection points: 2
#     Edge 13, Type (0, 0), BuildingBlock: FUNLAD_clean_linker_0, # of connection points: 2
#     Edge 14, Type (0, 0), BuildingBlock: FUNLAD_clean_linker_0, # of connection points: 2
#     Edge 15, Type (0, 0), BuildingBlock: FUNLAD_clean_linker_0, # of connection points: 2
#     Edge 16, Type (0, 0), BuildingBlock: FUNLAD_clean_linker_0, # of connection points: 2
#     Edge 17, Type (0, 0), BuildingBlock: FUNLAD_clean_linker_0, # of connection points: 2
# Relax obj value: 0.045
# Max RMSD: 0.077
# Mean RMSD: 0.077
data_MOF--net-uni--node1-NAHDIM_clean_sbu_0--edge1-FUNLAD_clean_linker_0
_symmetry_space_group_name_H-M    P1
_symmetry_Int_Tables_number       1
_symmetry_cell_setting            triclinic
loop_
_symmetry_equiv_pos_as_xyz
'x, y, z'
_cell_length_a     45.3447
_cell_length_b     45.366213
_cell_length_c     27.155622
_cell_angle_alpha  89.938342
_cell_angle_beta   89.982251
_cell_angle_gamma 119.90014
loop_
_atom_site_label
_atom_site_type_symbol
_atom_site_fract_x
_atom_site_fract_y
_atom_site_fract_z
_atom_type_partial_charge
C0 C 0.64492 0.96746 0.10855 0.0
O1 O 0.64419 0.98747 0.14289 0.0
O2 O 0.67696 0.05382 0.03145 0.0
Zn3 Zn 0.63279 0.01145 0.04647 0.0
O4 O 0.60714 0.0188 0.10106 0.0
C5 C 0.59972 0.02428 0.97017 0.0
O6 O 0.61297 0.05282 0.99523 0.0
O7 O 0.64076 0.97289 0.06385 0.0
C8 C 0.61761 0.04625 0.12512 0.0
O9 O 0.64769 0.07239 0.11524 0.0
C10 C 0.70568 0.06197 0.05021 0.0
O11 O 0.7078 0.04223 0.08376 0.0
O12 O 0.60442 0.00045 0.98542 0.0
C13 C 0.71633 0.66357 0.28774 0.0
O14 O 0.69769 0.66958 0.31872 0.0
O15 O 0.67168 0.70323 0.21286 0.0
Zn16 Zn 0.6636 0.656 0.22387 0.0
O17 O 0.62973 0.63331 0.27847 0.0
C18 C 0.61541 0.62601 0.14878 0.0
O19 O 0.60232 0.64096 0.17515 0.0
O20 O 0.70709 0.65731 0.24296 0.0
C21 C 0.61507 0.60117 0.28239 0.0
O22 O 0.6221 0.58391 0.25025 0.0
C23 C 0.66861 0.72056 0.24713 0.0
O24 O 0.66078 0.7077 0.29174 0.0
O25 O 0.64363 0.62896 0.16204 0.0
C26 C 0.08015 0.7169 0.43844 0.0
O27 O 0.05034 0.71215 0.45239 0.0
O28 O 0.00103 0.66279 0.37791 0.0
Zn29 Zn 0.03922 0.65308 0.38912 0.0
O30 O 0.02703 0.61641 0.43974 0.0
C31 C 0.0234 0.60898 0.30867 0.0
O32 O -0.00518 0.59355 0.33375 0.0
O33 O 0.08152 0.69507 0.41074 0.0
C34 C 0.04693 0.60441 0.44401 0.0
O35 O 0.07425 0.61682 0.41616 0.0
C36 C 0.97218 0.64605 0.39866 0.0
O37 O 0.96707 0.62213 0.4305 0.0
O38 O 0.04777 0.63654 0.32528 0.0
C39 C 0.38028 0.08968 0.59144 0.0
O40 O 0.36617 0.06254 0.61973 0.0
O41 O 0.35128 0.0076 0.53521 0.0
Zn42 Zn 0.39898 0.04713 0.54241 0.0
O43 O 0.42129 0.04108 0.60263 0.0
C44 C 0.41981 0.02506 0.45694 0.0
O45 O 0.39374 -0.00425 0.47011 0.0
O46 O 0.39633 0.08945 0.55318 0.0
C47 C 0.4413 0.02905 0.60209 0.0
O48 O 0.44806 0.01928 0.56013 0.0
C49 C 0.34171 0.97932 0.55661 0.0
O50 O 0.36336 0.97567 0.58444 0.0
O51 O 0.42698 0.05142 0.48209 0.0
C52 C 0.34378 0.40952 0.77084 0.0
O53 O 0.35362 0.3958 0.80509 0.0
O54 O 0.3915 0.36935 0.71804 0.0
Zn55 Zn 0.40421 0.41832 0.72585 0.0
O56 O 0.433 0.43959 0.786 0.0
C57 C 0.44777 0.43385 0.6421 0.0
O58 O 0.44921 0.40734 0.65846 0.0
O59 O 0.36166 0.42117 0.73212 0.0
C60 C 0.46273 0.44393 0.79167 0.0
O61 O 0.47571 0.43339 0.75735 0.0
C62 C 0.3942 0.35086 0.75083 0.0
O63 O 0.4052 0.36343 0.79492 0.0
O64 O 0.42994 0.44377 0.6653 0.0
C65 C 0.96963 0.32546 0.93123 0.0
O66 O -0.00156 0.33872 0.95567 0.0
O67 O 0.04823 0.38475 0.87004 0.0
Zn68 Zn 0.00656 0.3884 0.88249 0.0
O69 O 0.01357 0.41636 0.94308 0.0
C70 C 0.00079 0.40368 0.78073 0.0
O71 O 0.00891 0.38012 0.77202 0.0
O72 O 0.96679 0.34211 0.89567 0.0
C73 C 0.0242 0.44809 0.94175 0.0
O74 O 0.03185 0.46391 0.89911 0.0
C75 C 0.07558 0.41046 0.85538 0.0
O76 O 0.07614 0.43936 0.84806 0.0
O77 O -0.00241 0.41069 0.82498 0.0
C78 C 0.56269 0.02115 0.17142 0.0
C79 C 0.59571 0.04852 0.16358 0.0
C80 C 0.54181 0.02293 0.20764 0.0
C81 C 0.55362 0.05203 0.23742 0.0
C82 C 0.58636 0.07966 0.22892 0.0
C83 C 0.60727 0.07792 0.19249 0.0
C84 C 0.53219 0.05462 0.27678 0.0
C85 C 0.50724 0.02714 0.29985 0.0
C86 C 0.48494 0.02832 0.33908 0.0
C87 C 0.45514 -0.002 0.3511 0.0
C88 C 0.43376 -0.00285 0.38869 0.0
C89 C 0.44175 0.02666 0.41549 0.0
H90 H 0.5159 0.08182 0.35859 0.0
C91 C 0.47142 0.05717 0.4034 0.0
C92 C 0.49288 0.05803 0.36567 0.0
H93 H 0.47841 0.08031 0.42361 0.0
H94 H 0.55277 -0.00169 0.14931 0.0
H95 H 0.51629 0.00161 0.21144 0.0
H96 H 0.59595 0.10254 0.25091 0.0
H97 H 0.63251 0.09954 0.18717 0.0
H98 H 0.53779 0.07995 0.28719 0.0
H99 H 0.50255 0.00204 0.28964 0.0
H100 H 0.44837 0.9747 0.33143 0.0
H101 H 0.41113 0.97319 0.39704 0.0
C102 C 0.57369 0.54786 0.32612 0.0
C103 C 0.5916 0.58354 0.32375 0.0
C104 C 0.55265 0.53111 0.36623 0.0
C105 C 0.54943 0.54974 0.40524 0.0
C106 C 0.56646 0.58535 0.40202 0.0
C107 C 0.58741 0.60212 0.36178 0.0
C108 C 0.52854 0.53296 0.44964 0.0
C109 C 0.5218 0.50201 0.46524 0.0
C110 C 0.50246 0.48536 0.51084 0.0
C111 C 0.50556 0.45849 0.53089 0.0
C112 C 0.48788 0.44187 0.57353 0.0
C113 C 0.46654 0.45168 0.59707 0.0
H114 H 0.4767 0.51474 0.51916 0.0
C115 C 0.46311 0.47834 0.57689 0.0
C116 C 0.48073 0.49492 0.53407 0.0
H117 H 0.44656 0.48625 0.5939 0.0
H118 H 0.57596 0.5328 0.29703 0.0
H119 H 0.5389 0.50361 0.36621 0.0
H120 H 0.56411 0.60032 0.43122 0.0
H121 H 0.60072 0.62966 0.36091 0.0
H122 H 0.52058 0.54772 0.47164 0.0
H123 H 0.53251 0.48878 0.44536 0.0
H124 H 0.52189 0.45039 0.51365 0.0
H125 H 0.49102 0.42136 0.58801 0.0
C126 C 0.00441 0.41829 0.69106 0.0
C127 C -0.00174 0.42393 0.7399 0.0
C128 C 0.00462 0.43921 0.65306 0.0
C129 C -0.0011 0.46639 0.66325 0.0
C130 C 0.99128 0.47102 0.71172 0.0
C131 C 0.99111 0.45016 0.74969 0.0
C132 C 0.00114 0.4907 0.62469 0.0
C133 C 0.02073 0.49778 0.5842 0.0
C134 C 0.02615 0.52464 0.54799 0.0
C135 C 0.05543 0.53843 0.51839 0.0
C136 C 0.06212 0.56428 0.48466 0.0
C137 C 0.03952 0.57681 0.47951 0.0
H138 H 0.97969 0.52602 0.56299 0.0
C139 C 0.00983 0.56259 0.50836 0.0
C140 C 0.00311 0.53667 0.54212 0.0
H141 H 0.99169 0.5714 0.50482 0.0
H142 H 0.00959 0.39804 0.6822 0.0
H143 H 0.00933 0.43399 0.61591 0.0
H144 H 0.98638 0.49148 0.72053 0.0
H145 H 0.98603 0.45506 0.78687 0.0
H146 H 0.98862 0.50528 0.63238 0.0
H147 H 0.03566 0.48532 0.57906 0.0
H148 H 0.07349 0.5295 0.52179 0.0
H149 H 0.08514 0.57452 0.46279 0.0
C150 C 0.57608 0.04748 0.90804 0.0
C151 C 0.5802 0.02044 0.92474 0.0
C152 C 0.55797 0.04434 0.86501 0.0
C153 C 0.54323 0.0139 0.83785 0.0
C154 C 0.54777 0.98704 0.85412 0.0
C155 C 0.56593 0.99018 0.89728 0.0
C156 C 0.52416 0.01 0.7916 0.0
C157 C 0.50773 0.02736 0.78294 0.0
C158 C 0.48975 0.02543 0.73632 0.0
C159 C 0.46595 0.03661 0.73647 0.0
C160 C 0.44984 0.03726 0.69306 0.0
C161 C 0.45736 0.02692 0.6483 0.0
H162 H 0.51598 0.00687 0.68948 0.0
C163 C 0.48097 0.01542 0.64805 0.0
C164 C 0.49712 0.01478 0.69156 0.0
H165 H 0.48746 0.00747 0.6141 0.0
H166 H 0.58708 0.07129 0.92797 0.0
H167 H 0.55621 0.06612 0.85277 0.0
H168 H 0.53703 0.96347 0.83356 0.0
H169 H 0.56885 0.96895 0.90904 0.0
H170 H 0.52276 0.99148 0.76505 0.0
H171 H 0.50656 0.04328 0.81182 0.0
H172 H 0.45995 0.04518 0.77029 0.0
H173 H 0.43178 0.04627 0.69457 0.0
C174 C 0.60981 0.58807 0.07786 0.0
C175 C 0.59694 0.60541 0.10535 0.0
C176 C 0.5918 0.56815 0.03738 0.0
C177 C 0.5604 0.56508 0.02373 0.0
C178 C 0.54792 0.58284 0.05094 0.0
C179 C 0.56587 0.60266 0.0913 0.0
C180 C 0.53995 0.54435 0.98118 0.0
C181 C 0.54398 0.52 0.95903 0.0
C182 C 0.52234 0.49958 0.9172 0.0
C183 C 0.5358 0.48678 0.88214 0.0
C184 C 0.51636 0.46833 0.84158 0.0
C185 C 0.48291 0.462 0.83563 0.0
H186 H 0.47667 0.50045 0.93932 0.0
C187 C 0.46905 0.47381 0.87165 0.0
C188 C 0.48847 0.49226 0.91205 0.0
H189 H 0.4432 0.46898 0.86858 0.0
H190 H 0.63382 0.58986 0.08759 0.0
H191 H 0.60291 0.55571 0.01684 0.0
H192 H 0.52397 0.58118 0.04118 0.0
H193 H 0.55524 0.61575 0.11156 0.0
H194 H 0.52024 0.54933 0.96796 0.0
H195 H 0.56397 0.51507 0.97074 0.0
H196 H 0.56165 0.49164 0.8856 0.0
H197 H 0.52772 0.45937 0.81467 0.0
C198 C 0.03561 0.50105 0.98645 0.0
C199 C 0.02591 0.46642 0.98759 0.0
C200 C 0.03528 0.51777 0.02949 0.0
C201 C 0.02543 0.50015 0.07464 0.0
C202 C 0.01615 0.46568 0.07572 0.0
C203 C 0.01651 0.449 0.03279 0.0
C204 C 0.02243 0.51604 0.12071 0.0
C205 C 0.03875 0.54981 0.12878 0.0
C206 C 0.03429 0.56473 0.17485 0.0
C207 C 0.06091 0.59602 0.19147 0.0
C208 C 0.05747 0.61051 0.23495 0.0
C209 C 0.02713 0.59412 0.26232 0.0
H210 H 0.98213 0.5252 0.18914 0.0
C211 C 0.00022 0.5632 0.24505 0.0
C212 C 0.00368 0.5487 0.20173 0.0
H213 H 0.97636 0.55011 0.26495 0.0
H214 H 0.04279 0.51513 0.95213 0.0
H215 H 0.04174 0.5441 0.02674 0.0
H216 H 0.00827 0.45144 0.1099 0.0
H217 H 0.00886 0.42229 0.03499 0.0
H218 H 0.00677 0.4989 0.14979 0.0
H219 H 0.05707 0.56708 0.10211 0.0
H220 H 0.08458 0.60907 0.17111 0.0
H221 H 0.07861 0.63449 0.24713 0.0
C222 C 0.67793 0.76658 0.18761 0.0
C223 C 0.67168 0.7539 0.23603 0.0
C224 C 0.67877 0.79703 0.17641 0.0
C225 C 0.67318 0.81539 0.21341 0.0
C226 C 0.66829 0.80341 0.26209 0.0
C227 C 0.66736 0.77288 0.2733 0.0
C228 C 0.67218 0.84697 0.20258 0.0
C229 C 0.66204 0.85279 0.15877 0.0
C230 C 0.65892 0.88321 0.14737 0.0
C231 C 0.65618 0.89043 0.09782 0.0
C232 C 0.65194 0.91793 0.08514 0.0
C233 C 0.65018 0.93879 0.12183 0.0
H234 H 0.65812 0.89913 0.22283 0.0
C235 C 0.65296 0.93169 0.17143 0.0
C236 C 0.65714 0.90415 0.18415 0.0
H237 H 0.65145 0.94714 0.20061 0.0
H238 H 0.6818 0.7528 0.15812 0.0
H239 H 0.68394 0.80608 0.13878 0.0
H240 H 0.66434 0.81729 0.29138 0.0
H241 H 0.66276 0.76395 0.31105 0.0
H242 H 0.67869 0.86498 0.23247 0.0
H243 H 0.65515 0.83419 0.12953 0.0
H244 H 0.65723 0.87466 0.06871 0.0
H245 H 0.64985 0.92267 0.04655 0.0
C246 C 0.91181 0.63304 0.40632 0.0
C247 C 0.94402 0.65186 0.38433 0.0
C248 C 0.8847 0.63716 0.39076 0.0
C249 C 0.88932 0.66036 0.35297 0.0
C250 C 0.92155 0.67927 0.33126 0.0
C251 C 0.94867 0.67524 0.34691 0.0
C252 C 0.86079 0.66415 0.33348 0.0
C253 C 0.83296 0.65708 0.36007 0.0
C254 C 0.80401 0.65994 0.34006 0.0
C255 C 0.78319 0.66519 0.37288 0.0
C256 C 0.75504 0.66689 0.35575 0.0
C257 C 0.74685 0.66292 0.30537 0.0
H258 H 0.81066 0.65084 0.26329 0.0
C259 C 0.76759 0.65752 0.27245 0.0
C260 C 0.79586 0.65598 0.28958 0.0
H261 H 0.76181 0.65411 0.23347 0.0
H262 H 0.90731 0.61464 0.43498 0.0
H263 H 0.86004 0.62135 0.40746 0.0
H264 H 0.92575 0.69712 0.30186 0.0
H265 H 0.97313 0.69007 0.32905 0.0
H266 H 0.86352 0.67428 0.29645 0.0
H267 H 0.8317 0.65019 0.39863 0.0
H268 H 0.78871 0.66801 0.41197 0.0
H269 H 0.7395 0.67092 0.38216 0.0
C270 C 0.11079 0.7729 0.48215 0.0
C271 C 0.11185 0.7469 0.45551 0.0
C272 C 0.14084 0.80112 0.49846 0.0
C273 C 0.17255 0.80384 0.48842 0.0
C274 C 0.17351 0.77763 0.46244 0.0
C275 C 0.14354 0.74958 0.44584 0.0
C276 C 0.20506 0.8331 0.50541 0.0
C277 C 0.20956 0.86445 0.51244 0.0
C278 C 0.24295 0.89381 0.52627 0.0
C279 C 0.25145 0.92641 0.50976 0.0
C280 C 0.28339 0.95433 0.52007 0.0
C281 C 0.30728 0.95021 0.54778 0.0
H282 H 0.26029 0.86526 0.57009 0.0
C283 C 0.29826 0.91778 0.56594 0.0
C284 C 0.26643 0.88985 0.55534 0.0
H285 H 0.31595 0.9138 0.58783 0.0
H286 H 0.08674 0.77146 0.4905 0.0
H287 H 0.13904 0.82037 0.5196 0.0
H288 H 0.19759 0.77898 0.45457 0.0
H289 H 0.14525 0.72988 0.4257 0.0
H290 H 0.22668 0.82908 0.50892 0.0
H291 H 0.18903 0.86946 0.50411 0.0
H292 H 0.23365 0.93017 0.48777 0.0
H293 H 0.28946 0.97905 0.5059 0.0
C294 C 0.37537 0.30321 0.69056 0.0
C295 C 0.38726 0.31632 0.73786 0.0
C296 C 0.3709 0.27162 0.6768 0.0
C297 C 0.37851 0.2525 0.70994 0.0
C298 C 0.3891 0.26498 0.75782 0.0
C299 C 0.39356 0.29664 0.77165 0.0
C300 C 0.37566 0.21956 0.69579 0.0
C301 C 0.37916 0.21188 0.64898 0.0
C302 C 0.37828 0.17988 0.63459 0.0
C303 C 0.39452 0.17935 0.59083 0.0
C304 C 0.39491 0.14999 0.57643 0.0
C305 C 0.37878 0.1204 0.60536 0.0
H306 H 0.34754 0.14893 0.69593 0.0
C307 C 0.36172 0.12061 0.64848 0.0
C308 C 0.36137 0.14998 0.6629 0.0
H309 H 0.34872 0.09811 0.67134 0.0
H310 H 0.36981 0.3175 0.66382 0.0
H311 H 0.36138 0.26232 0.64022 0.0
H312 H 0.3947 0.25056 0.78429 0.0
H313 H 0.40255 0.30592 0.80847 0.0
H314 H 0.37302 0.2023 0.72539 0.0
H315 H 0.38515 0.23065 0.62017 0.0
H316 H 0.40743 0.20191 0.56804 0.0
H317 H 0.40813 0.15062 0.54286 0.0
C318 C 0.13685 0.43632 0.83128 0.0
C319 C 0.10647 0.40791 0.84717 0.0
C320 C 0.16615 0.43402 0.8241 0.0
C321 C 0.16559 0.4031 0.83235 0.0
C322 C 0.13529 0.37483 0.84863 0.0
C323 C 0.106 0.37712 0.85577 0.0
C324 C 0.19628 0.39964 0.82625 0.0
C325 C 0.22258 0.41993 0.79673 0.0
C326 C 0.25325 0.41641 0.79081 0.0
C327 C 0.27285 0.42901 0.74784 0.0
C328 C 0.30213 0.42661 0.74114 0.0
C329 C 0.3126 0.41177 0.77758 0.0
H330 H 0.25026 0.3929 0.86193 0.0
C331 C 0.29323 0.39948 0.82085 0.0
C332 C 0.26394 0.40187 0.82754 0.0
H333 H 0.30079 0.38822 0.84986 0.0
H334 H 0.13813 0.46049 0.82475 0.0
H335 H 0.18923 0.45672 0.81311 0.0
H336 H 0.13422 0.3508 0.85572 0.0
H337 H 0.08304 0.35477 0.86824 0.0
H338 H 0.19632 0.37856 0.84515 0.0
H339 H 0.22112 0.43891 0.77413 0.0
H340 H 0.2654 0.44063 0.71918 0.0
H341 H 0.31657 0.43648 0.70745 0.0
C342 C 0.90851 0.28011 0.92416 0.0
C343 C 0.94035 0.29268 0.94692 0.0
C344 C 0.88041 0.25006 0.94071 0.0
C345 C 0.88362 0.23166 0.98018 0.0
C346 C 0.91553 0.24422 0.00268 0.0
C347 C 0.94361 0.27432 0.9862 0.0
C348 C 0.85419 0.2003 0.00045 0.0
C349 C 0.82527 0.18096 0.97519 0.0
C350 C 0.79521 0.15064 0.99621 0.0
C351 C 0.76317 0.14054 0.97575 0.0
C352 C 0.73413 0.11207 0.9938 0.0
C353 C 0.7365 0.09274 0.03248 0.0
H354 H 0.82202 0.13759 0.05073 0.0
C355 C 0.76858 0.10263 0.05285 0.0
C356 C 0.79769 0.13127 0.03489 0.0
H357 H 0.77129 0.08809 0.08239 0.0
H358 H 0.90507 0.29384 0.89412 0.0
H359 H 0.85619 0.24212 0.92321 0.0
H360 H 0.91873 0.23076 0.03334 0.0
H361 H 0.96777 0.28336 0.00467 0.0
H362 H 0.85662 0.19325 0.03781 0.0
H363 H 0.82275 0.18788 0.93783 0.0
H364 H 0.76053 0.15484 0.94577 0.0
H365 H 0.70983 0.1051 0.97705 0.0
loop_
_geom_bond_atom_site_label_1
_geom_bond_atom_site_label_2
_geom_bond_distance
_geom_bond_site_symmetry_2
_ccdc_geom_bond_type
C0 O1 1.160 . S
C0 O7 1.185 . S
O1 C0 1.160 . S
O2 Zn3 1.899 . S
O2 C10 1.284 . S
Zn3 O2 1.899 . S
Zn3 O4 2.032 . S
Zn3 O7 2.086 1_545 S
Zn3 O12 1.977 . S
O4 Zn3 2.032 . S
O4 C8 1.278 . S
C5 O6 1.203 . S
C5 O12 1.267 1_556 S
O6 C5 1.203 . S
O7 C0 1.185 . S
O7 Zn3 2.086 1_565 S
C8 O4 1.278 . S
C8 O9 1.211 . S
O9 C8 1.211 . S
C10 O2 1.284 . S
C10 O11 1.273 . S
O11 C10 1.273 . S
O12 Zn3 1.977 . S
O12 C5 1.267 1_554 S
C13 O14 1.160 . S
C13 O20 1.185 . S
O14 C13 1.160 . S
O15 Zn16 1.899 . S
O15 C23 1.284 . S
Zn16 O15 1.899 . S
Zn16 O17 2.032 . S
Zn16 O20 2.086 . S
Zn16 O25 1.977 . S
O17 Zn16 2.032 . S
O17 C21 1.278 . S
C18 O19 1.203 . S
C18 O25 1.267 . S
O19 C18 1.203 . S
O20 C13 1.185 . S
O20 Zn16 2.086 . S
C21 O17 1.278 . S
C21 O22 1.211 . S
O22 C21 1.211 . S
C23 O15 1.284 . S
C23 O24 1.273 . S
O24 C23 1.273 . S
O25 Zn16 1.977 . S
O25 C18 1.267 . S
C26 O27 1.160 . S
C26 O33 1.185 . S
O27 C26 1.160 . S
O28 Zn29 1.899 . S
O28 C36 1.284 1_455 S
Zn29 O28 1.899 . S
Zn29 O30 2.032 . S
Zn29 O33 2.086 . S
Zn29 O38 1.977 . S
O30 Zn29 2.032 . S
O30 C34 1.278 . S
C31 O32 1.203 . S
C31 O38 1.267 . S
O32 C31 1.203 . S
O33 C26 1.185 . S
O33 Zn29 2.086 . S
C34 O30 1.278 . S
C34 O35 1.211 . S
O35 C34 1.211 . S
C36 O28 1.284 1_655 S
C36 O37 1.273 . S
O37 C36 1.273 . S
O38 Zn29 1.977 . S
O38 C31 1.267 . S
C39 O40 1.160 . S
C39 O46 1.185 . S
O40 C39 1.160 . S
O41 Zn42 1.899 . S
O41 C49 1.284 1_545 S
Zn42 O41 1.899 . S
Zn42 O43 2.032 . S
Zn42 O46 2.086 . S
Zn42 O51 1.977 . S
O43 Zn42 2.032 . S
O43 C47 1.278 . S
C44 O45 1.203 . S
C44 O51 1.267 . S
O45 C44 1.203 . S
O46 C39 1.185 . S
O46 Zn42 2.086 . S
C47 O43 1.278 . S
C47 O48 1.211 . S
O48 C47 1.211 . S
C49 O41 1.284 1_565 S
C49 O50 1.273 . S
O50 C49 1.273 . S
O51 Zn42 1.977 . S
O51 C44 1.267 . S
C52 O53 1.160 . S
C52 O59 1.185 . S
O53 C52 1.160 . S
O54 Zn55 1.899 . S
O54 C62 1.284 . S
Zn55 O54 1.899 . S
Zn55 O56 2.032 . S
Zn55 O59 2.086 . S
Zn55 O64 1.977 . S
O56 Zn55 2.032 . S
O56 C60 1.278 . S
C57 O58 1.203 . S
C57 O64 1.267 . S
O58 C57 1.203 . S
O59 C52 1.185 . S
O59 Zn55 2.086 . S
C60 O56 1.278 . S
C60 O61 1.211 . S
O61 C60 1.211 . S
C62 O54 1.284 . S
C62 O63 1.273 . S
O63 C62 1.273 . S
O64 Zn55 1.977 . S
O64 C57 1.267 . S
C65 O66 1.160 . S
C65 O72 1.185 . S
O66 C65 1.160 . S
O67 Zn68 1.899 . S
O67 C75 1.284 . S
Zn68 O67 1.899 . S
Zn68 O69 2.032 . S
Zn68 O72 2.086 1_455 S
Zn68 O77 1.977 . S
O69 Zn68 2.032 . S
O69 C73 1.278 . S
C70 O71 1.203 . S
C70 O77 1.267 . S
O71 C70 1.203 . S
O72 C65 1.185 . S
O72 Zn68 2.086 1_655 S
C73 O69 1.278 . S
C73 O74 1.211 . S
O74 C73 1.211 . S
C75 O67 1.284 . S
C75 O76 1.273 . S
O76 C75 1.273 . S
O77 Zn68 1.977 . S
O77 C70 1.267 . S
C78 C79 1.386 . S
C78 C80 1.383 . S
C78 H94 0.951 1_545 S
C79 C78 1.386 . S
C79 C83 1.383 . S
C80 C78 1.383 . S
C80 C81 1.402 . S
C80 H95 0.951 . S
C81 C80 1.402 . S
C81 C82 1.375 . S
C81 C84 1.481 . S
C82 C81 1.375 . S
C82 C83 1.367 . S
C82 H96 0.951 . S
C83 C79 1.383 . S
C83 C82 1.367 . S
C83 H97 0.950 . S
C84 C81 1.481 . S
C84 C85 1.297 . S
C84 H98 0.950 . S
C85 C84 1.297 . S
C85 C86 1.479 . S
C85 H99 0.950 . S
C86 C85 1.479 . S
C86 C87 1.375 . S
C86 C92 1.404 . S
C87 C86 1.375 . S
C87 C88 1.369 . S
C87 H100 0.939 1_545 S
C88 C87 1.369 . S
C88 C89 1.392 . S
C88 H101 0.951 1_545 S
C89 C88 1.392 . S
C89 C91 1.384 . S
H90 C92 0.949 . S
C91 C89 1.384 . S
C91 C92 1.385 . S
C91 H93 0.950 . S
C92 C86 1.404 . S
C92 H90 0.949 . S
C92 C91 1.385 . S
H93 C91 0.950 . S
H94 C78 0.951 1_565 S
H95 C80 0.951 . S
H96 C82 0.951 . S
H97 C83 0.950 . S
H98 C84 0.950 . S
H99 C85 0.950 . S
H100 C87 0.939 1_565 S
H101 C88 0.951 1_565 S
C102 C103 1.386 . S
C102 C104 1.383 . S
C102 H118 0.951 . S
C103 C102 1.386 . S
C103 C107 1.383 . S
C104 C102 1.383 . S
C104 C105 1.402 . S
C104 H119 0.951 . S
C105 C104 1.402 . S
C105 C106 1.375 . S
C105 C108 1.481 . S
C106 C105 1.375 . S
C106 C107 1.367 . S
C106 H120 0.951 . S
C107 C103 1.383 . S
C107 C106 1.367 . S
C107 H121 0.950 . S
C108 C105 1.481 . S
C108 C109 1.297 . S
C108 H122 0.950 . S
C109 C108 1.297 . S
C109 C110 1.479 . S
C109 H123 0.950 . S
C110 C109 1.479 . S
C110 C111 1.375 . S
C110 C116 1.404 . S
C111 C110 1.375 . S
C111 C112 1.369 . S
C111 H124 0.950 . S
C112 C111 1.369 . S
C112 C113 1.392 . S
C112 H125 0.951 . S
C113 C112 1.392 . S
C113 C115 1.384 . S
H114 C116 0.949 . S
C115 C113 1.384 . S
C115 C116 1.385 . S
C115 H117 0.950 . S
C116 C110 1.404 . S
C116 H114 0.949 . S
C116 C115 1.385 . S
H117 C115 0.950 . S
H118 C102 0.951 . S
H119 C104 0.951 . S
H120 C106 0.951 . S
H121 C107 0.950 . S
H122 C108 0.950 . S
H123 C109 0.950 . S
H124 C111 0.950 . S
H125 C112 0.951 . S
C126 C127 1.386 . S
C126 C128 1.383 . S
C126 H142 0.951 . S
C127 C126 1.386 . S
C127 C131 1.383 1_455 S
C128 C126 1.383 . S
C128 C129 1.402 . S
C128 H143 0.951 . S
C129 C128 1.402 . S
C129 C130 1.375 1_455 S
C129 C132 1.481 . S
C130 C129 1.375 1_655 S
C130 C131 1.367 . S
C130 H144 0.951 . S
C131 C127 1.383 1_655 S
C131 C130 1.367 . S
C131 H145 0.950 . S
C132 C129 1.481 . S
C132 C133 1.297 . S
C132 H146 0.950 1_455 S
C133 C132 1.297 . S
C133 C134 1.479 . S
C133 H147 0.950 . S
C134 C133 1.479 . S
C134 C135 1.375 . S
C134 C140 1.404 1_455 S
C135 C134 1.375 . S
C135 C136 1.369 . S
C135 H148 0.950 . S
C136 C135 1.369 . S
C136 C137 1.392 . S
C136 H149 0.951 . S
C137 C136 1.392 . S
C137 C139 1.384 . S
H138 C140 0.949 . S
C139 C137 1.384 . S
C139 C140 1.385 1_455 S
C139 H141 0.950 1_455 S
C140 C134 1.404 1_655 S
C140 H138 0.949 . S
C140 C139 1.385 1_655 S
H141 C139 0.950 1_655 S
H142 C126 0.951 . S
H143 C128 0.951 . S
H144 C130 0.951 . S
H145 C131 0.950 . S
H146 C132 0.950 1_655 S
H147 C133 0.950 . S
H148 C135 0.950 . S
H149 C136 0.951 . S
C150 C151 1.386 . S
C150 C152 1.383 . S
C150 H166 0.951 . S
C151 C150 1.386 . S
C151 C155 1.383 . S
C152 C150 1.383 . S
C152 C153 1.402 . S
C152 H167 0.951 . S
C153 C152 1.402 . S
C153 C154 1.375 . S
C153 C156 1.481 . S
C154 C153 1.375 . S
C154 C155 1.367 . S
C154 H168 0.951 1_545 S
C155 C151 1.383 . S
C155 C154 1.367 . S
C155 H169 0.950 1_545 S
C156 C153 1.481 . S
C156 C157 1.297 . S
C156 H170 0.950 . S
C157 C156 1.297 . S
C157 C158 1.479 . S
C157 H171 0.950 . S
C158 C157 1.479 . S
C158 C159 1.375 . S
C158 C164 1.404 . S
C159 C158 1.375 . S
C159 C160 1.369 . S
C159 H172 0.950 . S
C160 C159 1.369 . S
C160 C161 1.392 . S
C160 H173 0.951 . S
C161 C160 1.392 . S
C161 C163 1.384 . S
H162 C164 0.949 . S
C163 C161 1.384 . S
C163 C164 1.385 . S
C163 H165 0.950 . S
C164 C158 1.404 . S
C164 H162 0.949 . S
C164 C163 1.385 . S
H165 C163 0.950 . S
H166 C150 0.951 . S
H167 C152 0.951 . S
H168 C154 0.951 1_565 S
H169 C155 0.950 1_565 S
H170 C156 0.950 . S
H171 C157 0.950 . S
H172 C159 0.950 . S
H173 C160 0.951 . S
C174 C175 1.386 . S
C174 C176 1.383 . S
C174 H190 0.951 . S
C175 C174 1.386 . S
C175 C179 1.383 . S
C176 C174 1.383 . S
C176 C177 1.402 . S
C176 H191 0.951 . S
C177 C176 1.402 . S
C177 C178 1.375 . S
C177 C180 1.481 . S
C178 C177 1.375 . S
C178 C179 1.367 . S
C178 H192 0.951 . S
C179 C175 1.383 . S
C179 C178 1.367 . S
C179 H193 0.950 . S
C180 C177 1.481 . S
C180 C181 1.297 1_554 S
C180 H194 0.950 . S
C181 C180 1.297 1_556 S
C181 C182 1.479 . S
C181 H195 0.950 . S
C182 C181 1.479 . S
C182 C183 1.375 . S
C182 C188 1.404 . S
C183 C182 1.375 . S
C183 C184 1.369 . S
C183 H196 0.950 . S
C184 C183 1.369 . S
C184 C185 1.392 . S
C184 H197 0.951 . S
C185 C184 1.392 . S
C185 C187 1.384 . S
H186 C188 0.949 . S
C187 C185 1.384 . S
C187 C188 1.385 . S
C187 H189 0.950 . S
C188 C182 1.404 . S
C188 H186 0.949 . S
C188 C187 1.385 . S
H189 C187 0.950 . S
H190 C174 0.951 . S
H191 C176 0.951 . S
H192 C178 0.951 . S
H193 C179 0.950 . S
H194 C180 0.950 . S
H195 C181 0.950 . S
H196 C183 0.950 . S
H197 C184 0.951 . S
C198 C199 1.386 . S
C198 C200 1.383 . S
C198 H214 0.951 1_554 S
C199 C198 1.386 . S
C199 C203 1.383 . S
C200 C198 1.383 . S
C200 C201 1.402 . S
C200 H215 0.951 . S
C201 C200 1.402 . S
C201 C202 1.376 . S
C201 C204 1.481 . S
C202 C201 1.376 . S
C202 C203 1.370 . S
C202 H216 0.946 1_455 S
C203 C199 1.383 . S
C203 C202 1.370 . S
C203 H217 0.950 1_455 S
C204 C201 1.481 . S
C204 C205 1.297 . S
C204 H218 0.954 . S
C205 C204 1.297 . S
C205 C206 1.479 . S
C205 H219 0.950 . S
C206 C205 1.479 . S
C206 C207 1.375 . S
C206 C212 1.404 . S
C207 C206 1.375 . S
C207 C208 1.369 . S
C207 H220 0.950 . S
C208 C207 1.369 . S
C208 C209 1.392 . S
C208 H221 0.951 . S
C209 C208 1.392 . S
C209 C211 1.384 . S
H210 C212 0.949 1_655 S
C211 C209 1.384 . S
C211 C212 1.385 . S
C211 H213 0.950 1_455 S
C212 C206 1.404 . S
C212 H210 0.949 1_455 S
C212 C211 1.385 . S
H213 C211 0.950 1_655 S
H214 C198 0.951 1_556 S
H215 C200 0.951 . S
H216 C202 0.946 1_655 S
H217 C203 0.950 1_655 S
H218 C204 0.954 . S
H219 C205 0.950 . S
H220 C207 0.950 . S
H221 C208 0.951 . S
C222 C223 1.386 . S
C222 C224 1.383 . S
C222 H238 0.951 . S
C223 C222 1.386 . S
C223 C227 1.383 . S
C224 C222 1.383 . S
C224 C225 1.402 . S
C224 H239 0.951 . S
C225 C224 1.402 . S
C225 C226 1.375 . S
C225 C228 1.481 . S
C226 C225 1.375 . S
C226 C227 1.367 . S
C226 H240 0.951 . S
C227 C223 1.383 . S
C227 C226 1.367 . S
C227 H241 0.950 . S
C228 C225 1.481 . S
C228 C229 1.297 . S
C228 H242 0.950 . S
C229 C228 1.297 . S
C229 C230 1.479 . S
C229 H243 0.950 . S
C230 C229 1.479 . S
C230 C231 1.375 . S
C230 C236 1.404 . S
C231 C230 1.375 . S
C231 C232 1.369 . S
C231 H244 0.950 . S
C232 C231 1.369 . S
C232 C233 1.392 . S
C232 H245 0.951 . S
C233 C232 1.392 . S
C233 C235 1.384 . S
H234 C236 0.949 . S
C235 C233 1.384 . S
C235 C236 1.385 . S
C235 H237 0.950 . S
C236 C230 1.404 . S
C236 H234 0.949 . S
C236 C235 1.385 . S
H237 C235 0.950 . S
H238 C222 0.951 . S
H239 C224 0.951 . S
H240 C226 0.951 . S
H241 C227 0.950 . S
H242 C228 0.950 . S
H243 C229 0.950 . S
H244 C231 0.950 . S
H245 C232 0.951 . S
C246 C247 1.386 . S
C246 C248 1.383 . S
C246 H262 0.951 . S
C247 C246 1.386 . S
C247 C251 1.383 . S
C248 C246 1.383 . S
C248 C249 1.402 . S
C248 H263 0.951 . S
C249 C248 1.402 . S
C249 C250 1.375 . S
C249 C252 1.481 . S
C250 C249 1.375 . S
C250 C251 1.367 . S
C250 H264 0.951 . S
C251 C247 1.383 . S
C251 C250 1.367 . S
C251 H265 0.950 . S
C252 C249 1.481 . S
C252 C253 1.297 . S
C252 H266 0.950 . S
C253 C252 1.297 . S
C253 C254 1.479 . S
C253 H267 0.950 . S
C254 C253 1.479 . S
C254 C255 1.375 . S
C254 C260 1.404 . S
C255 C254 1.375 . S
C255 C256 1.369 . S
C255 H268 0.950 . S
C256 C255 1.369 . S
C256 C257 1.392 . S
C256 H269 0.951 . S
C257 C256 1.392 . S
C257 C259 1.384 . S
H258 C260 0.949 . S
C259 C257 1.384 . S
C259 C260 1.385 . S
C259 H261 0.950 . S
C260 C254 1.404 . S
C260 H258 0.949 . S
C260 C259 1.385 . S
H261 C259 0.950 . S
H262 C246 0.951 . S
H263 C248 0.951 . S
H264 C250 0.951 . S
H265 C251 0.950 . S
H266 C252 0.950 . S
H267 C253 0.950 . S
H268 C255 0.950 . S
H269 C256 0.951 . S
C270 C271 1.386 . S
C270 C272 1.383 . S
C270 H286 0.951 . S
C271 C270 1.386 . S
C271 C275 1.383 . S
C272 C270 1.383 . S
C272 C273 1.402 . S
C272 H287 0.951 . S
C273 C272 1.402 . S
C273 C274 1.375 . S
C273 C276 1.481 . S
C274 C273 1.375 . S
C274 C275 1.367 . S
C274 H288 0.951 . S
C275 C271 1.383 . S
C275 C274 1.367 . S
C275 H289 0.950 . S
C276 C273 1.481 . S
C276 C277 1.297 . S
C276 H290 0.950 . S
C277 C276 1.297 . S
C277 C278 1.479 . S
C277 H291 0.950 . S
C278 C277 1.479 . S
C278 C279 1.375 . S
C278 C284 1.404 . S
C279 C278 1.375 . S
C279 C280 1.369 . S
C279 H292 0.950 . S
C280 C279 1.369 . S
C280 C281 1.392 . S
C280 H293 0.951 . S
C281 C280 1.392 . S
C281 C283 1.384 . S
H282 C284 0.949 . S
C283 C281 1.384 . S
C283 C284 1.385 . S
C283 H285 0.950 . S
C284 C278 1.404 . S
C284 H282 0.949 . S
C284 C283 1.385 . S
H285 C283 0.950 . S
H286 C270 0.951 . S
H287 C272 0.951 . S
H288 C274 0.951 . S
H289 C275 0.950 . S
H290 C276 0.950 . S
H291 C277 0.950 . S
H292 C279 0.950 . S
H293 C280 0.951 . S
C294 C295 1.386 . S
C294 C296 1.383 . S
C294 H310 0.951 . S
C295 C294 1.386 . S
C295 C299 1.383 . S
C296 C294 1.383 . S
C296 C297 1.402 . S
C296 H311 0.951 . S
C297 C296 1.402 . S
C297 C298 1.375 . S
C297 C300 1.481 . S
C298 C297 1.375 . S
C298 C299 1.367 . S
C298 H312 0.951 . S
C299 C295 1.383 . S
C299 C298 1.367 . S
C299 H313 0.950 . S
C300 C297 1.481 . S
C300 C301 1.297 . S
C300 H314 0.950 . S
C301 C300 1.297 . S
C301 C302 1.479 . S
C301 H315 0.950 . S
C302 C301 1.479 . S
C302 C303 1.375 . S
C302 C308 1.404 . S
C303 C302 1.375 . S
C303 C304 1.369 . S
C303 H316 0.950 . S
C304 C303 1.369 . S
C304 C305 1.392 . S
C304 H317 0.951 . S
C305 C304 1.392 . S
C305 C307 1.384 . S
H306 C308 0.949 . S
C307 C305 1.384 . S
C307 C308 1.385 . S
C307 H309 0.950 . S
C308 C302 1.404 . S
C308 H306 0.949 . S
C308 C307 1.385 . S
H309 C307 0.950 . S
H310 C294 0.951 . S
H311 C296 0.951 . S
H312 C298 0.951 . S
H313 C299 0.950 . S
H314 C300 0.950 . S
H315 C301 0.950 . S
H316 C303 0.950 . S
H317 C304 0.951 . S
C318 C319 1.386 . S
C318 C320 1.383 . S
C318 H334 0.951 . S
C319 C318 1.386 . S
C319 C323 1.383 . S
C320 C318 1.383 . S
C320 C321 1.402 . S
C320 H335 0.951 . S
C321 C320 1.402 . S
C321 C322 1.375 . S
C321 C324 1.481 . S
C322 C321 1.375 . S
C322 C323 1.367 . S
C322 H336 0.951 . S
C323 C319 1.383 . S
C323 C322 1.367 . S
C323 H337 0.950 . S
C324 C321 1.481 . S
C324 C325 1.297 . S
C324 H338 0.950 . S
C325 C324 1.297 . S
C325 C326 1.479 . S
C325 H339 0.950 . S
C326 C325 1.479 . S
C326 C327 1.375 . S
C326 C332 1.404 . S
C327 C326 1.375 . S
C327 C328 1.369 . S
C327 H340 0.950 . S
C328 C327 1.369 . S
C328 C329 1.392 . S
C328 H341 0.951 . S
C329 C328 1.392 . S
C329 C331 1.384 . S
H330 C332 0.949 . S
C331 C329 1.384 . S
C331 C332 1.385 . S
C331 H333 0.950 . S
C332 C326 1.404 . S
C332 H330 0.949 . S
C332 C331 1.385 . S
H333 C331 0.950 . S
H334 C318 0.951 . S
H335 C320 0.951 . S
H336 C322 0.951 . S
H337 C323 0.950 . S
H338 C324 0.950 . S
H339 C325 0.950 . S
H340 C327 0.950 . S
H341 C328 0.951 . S
C342 C343 1.386 . S
C342 C344 1.383 . S
C342 H358 0.951 . S
C343 C342 1.386 . S
C343 C347 1.383 . S
C344 C342 1.383 . S
C344 C345 1.402 . S
C344 H359 0.951 . S
C345 C344 1.402 . S
C345 C346 1.375 1_556 S
C345 C348 1.481 . S
C346 C345 1.375 1_554 S
C346 C347 1.367 1_554 S
C346 H360 0.951 . S
C347 C343 1.383 . S
C347 C346 1.367 1_556 S
C347 H361 0.950 1_556 S
C348 C345 1.481 . S
C348 C349 1.297 . S
C348 H362 0.950 1_556 S
C349 C348 1.297 . S
C349 C350 1.479 . S
C349 H363 0.950 . S
C350 C349 1.479 . S
C350 C351 1.375 . S
C350 C356 1.404 1_556 S
C351 C350 1.375 . S
C351 C352 1.369 . S
C351 H364 0.950 . S
C352 C351 1.369 . S
C352 C353 1.392 1_556 S
C352 H365 0.951 . S
C353 C352 1.392 1_554 S
C353 C355 1.384 . S
H354 C356 0.949 . S
C355 C353 1.384 . S
C355 C356 1.385 . S
C355 H357 0.950 . S
C356 C350 1.404 1_554 S
C356 H354 0.949 . S
C356 C355 1.385 . S
H357 C355 0.950 . S
H358 C342 0.951 . S
H359 C344 0.951 . S
H360 C346 0.951 . S
H361 C347 0.950 1_554 S
H362 C348 0.950 1_554 S
H363 C349 0.950 . S
H364 C351 0.950 . S
H365 C352 0.951 . S
C79 C8 1.369 . S
C89 C44 1.382 . S
C103 C21 1.393 . S
C113 C57 1.327 . S
C127 C70 1.395 . S
C137 C34 1.330 . S
C151 C5 1.374 . S
C161 C47 1.334 . S
C175 C18 1.359 . S
C185 C60 1.398 . S
C199 C73 1.366 1_554 S
C209 C31 1.345 . S
C223 C23 1.390 . S
C233 C0 1.396 . S
C247 C36 1.404 . S
C257 C13 1.349 . S
C271 C26 1.395 . S
C281 C49 1.384 . S
C295 C62 1.387 . S
C305 C39 1.400 . S
C319 C75 1.391 . S
C329 C52 1.394 . S
C343 C65 1.372 . S
C353 C10 1.408 . S
