# Generated by pormake.
# Topology uof, (4)-cn, num edge types: 1
# Building blocks:
#     Node 0, Type 0, BuildingBlock: UXUYUI_clean_sbu_0, # of connection points: 4
#     Node 1, Type 0, BuildingBlock: UXUYUI_clean_sbu_0, # of connection points: 4
#     Node 2, Type 0, BuildingBlock: UXUYUI_clean_sbu_0, # of connection points: 4
#     Node 3, Type 0, BuildingBlock: UXUYUI_clean_sbu_0, # of connection points: 4
#     Node 4, Type 0, BuildingBlock: UXUYUI_clean_sbu_0, # of connection points: 4
#     Node 5, Type 0, BuildingBlock: UXUYUI_clean_sbu_0, # of connection points: 4
#     Node 6, Type 0, BuildingBlock: UXUYUI_clean_sbu_0, # of connection points: 4
#     Node 7, Type 0, BuildingBlock: UXUYUI_clean_sbu_0, # of connection points: 4
#     Node 8, Type 0, BuildingBlock: UXUYUI_clean_sbu_0, # of connection points: 4
#     Node 9, Type 0, BuildingBlock: UXUYUI_clean_sbu_0, # of connection points: 4
#     Node 10, Type 0, BuildingBlock: UXUYUI_clean_sbu_0, # of connection points: 4
#     Node 11, Type 0, BuildingBlock: UXUYUI_clean_sbu_0, # of connection points: 4
#     Edge 12, Type (0, 0), BuildingBlock: ZUJKAS_clean_linker_0, # of connection points: 2
#     Edge 13, Type (0, 0), BuildingBlock: ZUJKAS_clean_linker_0, # of connection points: 2
#     Edge 14, Type (0, 0), BuildingBlock: ZUJKAS_clean_linker_0, # of connection points: 2
#     Edge 15, Type (0, 0), BuildingBlock: ZUJKAS_clean_linker_0, # of connection points: 2
#     Edge 16, Type (0, 0), BuildingBlock: ZUJKAS_clean_linker_0, # of connection points: 2
#     Edge 17, Type (0, 0), BuildingBlock: ZUJKAS_clean_linker_0, # of connection points: 2
#     Edge 18, Type (0, 0), BuildingBlock: ZUJKAS_clean_linker_0, # of connection points: 2
#     Edge 19, Type (0, 0), BuildingBlock: ZUJKAS_clean_linker_0, # of connection points: 2
#     Edge 20, Type (0, 0), BuildingBlock: ZUJKAS_clean_linker_0, # of connection points: 2
#     Edge 21, Type (0, 0), BuildingBlock: ZUJKAS_clean_linker_0, # of connection points: 2
#     Edge 22, Type (0, 0), BuildingBlock: ZUJKAS_clean_linker_0, # of connection points: 2
#     Edge 23, Type (0, 0), BuildingBlock: ZUJKAS_clean_linker_0, # of connection points: 2
#     Edge 24, Type (0, 0), BuildingBlock: ZUJKAS_clean_linker_0, # of connection points: 2
#     Edge 25, Type (0, 0), BuildingBlock: ZUJKAS_clean_linker_0, # of connection points: 2
#     Edge 26, Type (0, 0), BuildingBlock: ZUJKAS_clean_linker_0, # of connection points: 2
#     Edge 27, Type (0, 0), BuildingBlock: ZUJKAS_clean_linker_0, # of connection points: 2
#     Edge 28, Type (0, 0), BuildingBlock: ZUJKAS_clean_linker_0, # of connection points: 2
#     Edge 29, Type (0, 0), BuildingBlock: ZUJKAS_clean_linker_0, # of connection points: 2
#     Edge 30, Type (0, 0), BuildingBlock: ZUJKAS_clean_linker_0, # of connection points: 2
#     Edge 31, Type (0, 0), BuildingBlock: ZUJKAS_clean_linker_0, # of connection points: 2
#     Edge 32, Type (0, 0), BuildingBlock: ZUJKAS_clean_linker_0, # of connection points: 2
#     Edge 33, Type (0, 0), BuildingBlock: ZUJKAS_clean_linker_0, # of connection points: 2
#     Edge 34, Type (0, 0), BuildingBlock: ZUJKAS_clean_linker_0, # of connection points: 2
#     Edge 35, Type (0, 0), BuildingBlock: ZUJKAS_clean_linker_0, # of connection points: 2
# Relax obj value: 0.353
# Max RMSD: 0.222
# Mean RMSD: 0.221
data_MOF--net-uof--node1-UXUYUI_clean_sbu_0--edge1-ZUJKAS_clean_linker_0
_symmetry_space_group_name_H-M    P1
_symmetry_Int_Tables_number       1
_symmetry_cell_setting            triclinic
loop_
_symmetry_equiv_pos_as_xyz
'x, y, z'
_cell_length_a     55.807336
_cell_length_b     55.79528
_cell_length_c     107.89416
_cell_angle_alpha  90.00199
_cell_angle_beta   90.001182
_cell_angle_gamma 119.99673
loop_
_atom_site_label
_atom_site_type_symbol
_atom_site_fract_x
_atom_site_fract_y
_atom_site_fract_z
_atom_type_partial_charge
Li0 Li 0.21154 0.33197 0.21542 0.0
Li1 Li 0.23679 0.32908 0.23377 0.0
Li2 Li 0.26087 0.3587 0.21586 0.0
Li3 Li 0.23783 0.30799 0.21394 0.0
C4 C 0.24838 0.38924 0.22979 0.0
N5 N 0.2787 0.44558 0.23394 0.0
C6 C 0.26157 0.39936 0.24117 0.0
C7 C 0.25033 0.40772 0.22057 0.0
C8 C 0.27687 0.42793 0.24308 0.0
C9 C 0.26585 0.43615 0.22283 0.0
C10 C 0.187 0.28082 0.23296 0.0
C11 C 0.17234 0.24379 0.24783 0.0
N12 N 0.14947 0.24571 0.25033 0.0
C13 C 0.1634 0.28248 0.23571 0.0
C14 C 0.19155 0.26135 0.23907 0.0
C15 C 0.14464 0.2645 0.24451 0.0
C16 C 0.16023 0.30311 0.20446 0.0
N17 N 0.17798 0.32848 0.20921 0.0
C18 C 0.14807 0.34548 0.20295 0.0
C19 C 0.17237 0.34954 0.20868 0.0
C20 C 0.1298 0.31964 0.19763 0.0
C21 C 0.13601 0.29825 0.19857 0.0
H22 H 0.16526 0.28677 0.20503 0.0
H23 H 0.18695 0.36957 0.21248 0.0
C24 C 0.26719 0.33594 0.25496 0.0
N25 N 0.2406 0.32598 0.25125 0.0
C26 C 0.27306 0.33159 0.26702 0.0
C27 C 0.22415 0.30826 0.27158 0.0
C28 C 0.21925 0.31337 0.2594 0.0
C29 C 0.25134 0.31672 0.27542 0.0
H30 H 0.28391 0.34667 0.24842 0.0
H31 H 0.19835 0.30644 0.25641 0.0
C32 C 0.22406 0.33356 0.19164 0.0
N33 N 0.19337 0.32937 0.17083 0.0
C34 C 0.20929 0.30827 0.18545 0.0
C35 C 0.22352 0.35679 0.18717 0.0
C36 C 0.19383 0.30656 0.17496 0.0
C37 C 0.20779 0.35422 0.17666 0.0
C38 C 0.286 0.32203 0.22475 0.0
C39 C 0.30979 0.334 0.21739 0.0
C40 C 0.27956 0.29861 0.23183 0.0
C41 C 0.32669 0.32214 0.21717 0.0
C42 C 0.29697 0.28736 0.23136 0.0
N43 N 0.31997 0.29925 0.2241 0.0
C44 C 0.31308 0.40259 0.22117 0.0
C45 C 0.30233 0.39791 0.19973 0.0
C46 C 0.34057 0.42213 0.21871 0.0
N47 N 0.29476 0.39069 0.21173 0.0
C48 C 0.32978 0.41727 0.19682 0.0
C49 C 0.34943 0.42912 0.20638 0.0
H50 H 0.30674 0.39557 0.23058 0.0
H51 H 0.28749 0.38748 0.19239 0.0
C52 C 0.22036 0.25197 0.20913 0.0
N53 N 0.23989 0.27843 0.20644 0.0
C54 C 0.22167 0.22992 0.20376 0.0
C55 C 0.26285 0.26283 0.19274 0.0
C56 C 0.2607 0.28425 0.19831 0.0
C57 C 0.24317 0.23522 0.19547 0.0
H58 H 0.20367 0.24795 0.21538 0.0
H59 H 0.27556 0.30554 0.19614 0.0
O60 O 0.23365 0.36137 0.22768 0.0
O61 O 0.20546 0.29802 0.22428 0.0
O62 O 0.23867 0.33547 0.20212 0.0
O63 O 0.26893 0.33304 0.22493 0.0
H64 H 0.26016 0.3853 0.24841 0.0
H65 H 0.24019 0.40019 0.21172 0.0
H66 H 0.28732 0.43608 0.25181 0.0
H67 H 0.2677 0.45071 0.21575 0.0
H68 H 0.17565 0.2287 0.25265 0.0
H69 H 0.15965 0.29759 0.23119 0.0
H70 H 0.20986 0.25997 0.23716 0.0
H71 H 0.12629 0.26556 0.24674 0.0
H72 H 0.144 0.36249 0.20238 0.0
H73 H 0.12228 0.27791 0.19477 0.0
H74 H 0.29442 0.33937 0.26966 0.0
H75 H 0.20672 0.29683 0.27772 0.0
H76 H 0.20944 0.29008 0.18881 0.0
H77 H 0.23491 0.37652 0.19184 0.0
H78 H 0.18211 0.28708 0.17013 0.0
H79 H 0.20699 0.37197 0.17315 0.0
H80 H 0.31501 0.35207 0.2118 0.0
H81 H 0.26121 0.28914 0.23758 0.0
H82 H 0.34511 0.33109 0.21148 0.0
H83 H 0.29219 0.26916 0.23675 0.0
H84 H 0.35509 0.43026 0.22634 0.0
H85 H 0.33578 0.42212 0.1872 0.0
H86 H 0.20616 0.20897 0.20618 0.0
H87 H 0.27946 0.26782 0.18622 0.0
Li88 Li 0.87133 0.21184 0.54901 0.0
Li89 Li 0.89789 0.23257 0.56838 0.0
Li90 Li 0.89459 0.26046 0.55159 0.0
Li91 Li 0.92104 0.23611 0.54795 0.0
C92 C 0.84987 0.24576 0.56477 0.0
N93 N 0.82273 0.27471 0.56972 0.0
C94 C 0.85122 0.25659 0.5766 0.0
C95 C 0.83438 0.24927 0.55552 0.0
C96 C 0.83744 0.27126 0.5789 0.0
C97 C 0.82091 0.26408 0.55818 0.0
C98 C 0.91113 0.19148 0.56372 0.0
C99 C 0.9516 0.1973 0.57446 0.0
N100 N 0.9394 0.16937 0.57572 0.0
C101 C 0.89901 0.16283 0.56508 0.0
C102 C 0.93766 0.20887 0.56842 0.0
C103 C 0.91364 0.15205 0.57119 0.0
C104 C 0.84963 0.16256 0.53672 0.0
N105 N 0.84143 0.17946 0.54191 0.0
C106 C 0.79476 0.14929 0.53539 0.0
C107 C 0.81458 0.17333 0.54146 0.0
C108 C 0.803 0.13197 0.52962 0.0
C109 C 0.83078 0.13879 0.53041 0.0
H110 H 0.8711 0.16791 0.53729 0.0
H111 H 0.80863 0.18715 0.54569 0.0
C112 C 0.91422 0.25727 0.59142 0.0
N113 N 0.90298 0.23216 0.5858 0.0
C114 C 0.92335 0.26048 0.60366 0.0
C115 C 0.90784 0.21155 0.60435 0.0
C116 C 0.8988 0.20926 0.59209 0.0
C117 C 0.92091 0.23758 0.61018 0.0
H118 H 0.91731 0.27512 0.58618 0.0
H119 H 0.88948 0.18943 0.58747 0.0
C120 C 0.88301 0.22868 0.52582 0.0
N121 N 0.85613 0.20277 0.50416 0.0
C122 C 0.8923 0.21387 0.51881 0.0
C123 C 0.86033 0.2307 0.52172 0.0
C124 C 0.87836 0.20082 0.50791 0.0
C125 C 0.84694 0.21735 0.51077 0.0
C126 C 0.95334 0.28805 0.56151 0.0
C127 C 0.96241 0.30957 0.55289 0.0
C128 C 0.97042 0.29055 0.5715 0.0
C129 C 0.98829 0.33323 0.55443 0.0
C130 C 0.99621 0.31453 0.5727 0.0
N131 N 0.00452 0.33521 0.56422 0.0
C132 C 0.90383 0.31157 0.55963 0.0
C133 C 0.90011 0.3065 0.53778 0.0
C134 C 0.91423 0.33996 0.55861 0.0
N135 N 0.89775 0.29567 0.5493 0.0
C136 C 0.91069 0.33497 0.53631 0.0
C137 C 0.91896 0.35221 0.54682 0.0
H138 H 0.90262 0.30255 0.56864 0.0
H139 H 0.89593 0.29348 0.52972 0.0
C140 C 0.95259 0.21328 0.53855 0.0
N141 N 0.95207 0.23724 0.53994 0.0
C142 C 0.97504 0.21337 0.53286 0.0
C143 C 0.99538 0.26253 0.52942 0.0
C144 C 0.97258 0.2615 0.53527 0.0
C145 C 0.99695 0.23827 0.52826 0.0
H146 H 0.9355 0.19399 0.54181 0.0
H147 H 0.97111 0.27999 0.53591 0.0
O148 O 0.86351 0.23166 0.56229 0.0
O149 O 0.89692 0.20228 0.55785 0.0
O150 O 0.89593 0.24098 0.53669 0.0
O151 O 0.92765 0.265 0.56039 0.0
H152 H 0.86286 0.2538 0.5839 0.0
H153 H 0.83289 0.24077 0.54637 0.0
H154 H 0.83845 0.27992 0.58799 0.0
H155 H 0.809 0.26712 0.55108 0.0
H156 H 0.97214 0.21053 0.57815 0.0
H157 H 0.87849 0.1491 0.56149 0.0
H158 H 0.94741 0.23102 0.56735 0.0
H159 H 0.9045 0.12992 0.57233 0.0
H160 H 0.77345 0.14456 0.53498 0.0
H161 H 0.83782 0.12572 0.52625 0.0
H162 H 0.93353 0.28096 0.60773 0.0
H163 H 0.90522 0.19331 0.60912 0.0
H164 H 0.90985 0.21214 0.52183 0.0
H165 H 0.85308 0.24235 0.52695 0.0
H166 H 0.88516 0.18906 0.50245 0.0
H167 H 0.82923 0.21856 0.50754 0.0
H168 H 0.94981 0.3079 0.54498 0.0
H169 H 0.96391 0.2742 0.57829 0.0
H170 H 0.99551 0.35 0.54781 0.0
H171 H 0.00959 0.31671 0.58039 0.0
H172 H 0.9199 0.35239 0.56695 0.0
H173 H 0.91423 0.34355 0.52705 0.0
H174 H 0.97531 0.19414 0.5322 0.0
H175 H 0.01139 0.28204 0.5257 0.0
Li176 Li 0.66896 0.90341 0.90135 0.0
Li177 Li 0.66704 0.87762 0.88125 0.0
Li178 Li 0.69039 0.92766 0.88209 0.0
Li179 Li 0.64116 0.90189 0.8835 0.0
C180 C 0.72763 0.91727 0.891 0.0
N181 N 0.78447 0.94787 0.88849 0.0
C182 C 0.74106 0.90957 0.88228 0.0
C183 C 0.74312 0.94038 0.89852 0.0
C184 C 0.76981 0.92533 0.88114 0.0
C185 C 0.77183 0.95562 0.89708 0.0
C186 C 0.60894 0.85341 0.89259 0.0
C187 C 0.56859 0.82333 0.88051 0.0
N188 N 0.55218 0.82254 0.89001 0.0
C189 C 0.59173 0.85224 0.90226 0.0
C190 C 0.59735 0.8388 0.88164 0.0
C191 C 0.56306 0.83652 0.90076 0.0
C192 C 0.65351 0.91151 0.92481 0.0
N193 N 0.67183 0.90628 0.91883 0.0
C194 C 0.69997 0.91756 0.93697 0.0
C195 C 0.69427 0.90824 0.92472 0.0
C196 C 0.6824 0.92494 0.94314 0.0
C197 C 0.65836 0.92081 0.93705 0.0
H198 H 0.63614 0.91026 0.9198 0.0
H199 H 0.70867 0.90428 0.91967 0.0
C200 C 0.68177 0.85377 0.86253 0.0
N201 N 0.66995 0.84826 0.87395 0.0
C202 C 0.68803 0.83516 0.85684 0.0
C203 C 0.66888 0.80488 0.87456 0.0
C204 C 0.66308 0.82425 0.87997 0.0
C205 C 0.68211 0.81058 0.86295 0.0
H206 H 0.68727 0.87319 0.85804 0.0
H207 H 0.65391 0.82056 0.8891 0.0
C208 C 0.67242 0.95874 0.89803 0.0
N209 N 0.68341 0.00932 0.90749 0.0
C210 C 0.66026 0.97295 0.89272 0.0
C211 C 0.69011 0.97029 0.90821 0.0
C212 C 0.66611 0.9985 0.89761 0.0
C213 C 0.69541 0.99586 0.91284 0.0
C214 C 0.66165 0.91639 0.85931 0.0
C215 C 0.66493 0.94275 0.86074 0.0
C216 C 0.65566 0.90396 0.84762 0.0
C217 C 0.662 0.95623 0.85044 0.0
C218 C 0.65289 0.91811 0.83754 0.0
N219 N 0.65607 0.94373 0.83914 0.0
C220 C 0.73219 0.95493 0.86455 0.0
C221 C 0.73331 0.98487 0.88039 0.0
C222 C 0.75539 0.97662 0.8589 0.0
N223 N 0.72168 0.95938 0.8751 0.0
C224 C 0.75646 0.00717 0.87504 0.0
C225 C 0.76785 0.00319 0.86416 0.0
H226 H 0.72268 0.93437 0.8606 0.0
H227 H 0.72492 0.988 0.88881 0.0
C228 C 0.59881 0.91173 0.88976 0.0
N229 N 0.6084 0.90344 0.88005 0.0
C230 C 0.57862 0.91911 0.88793 0.0
C231 C 0.57729 0.90773 0.86623 0.0
C232 C 0.59735 0.90025 0.86852 0.0
C233 C 0.56831 0.91808 0.87595 0.0
H234 H 0.60805 0.91414 0.89882 0.0
H235 H 0.60492 0.89313 0.86098 0.0
O236 O 0.69941 0.90261 0.89197 0.0
O237 O 0.63701 0.86931 0.8937 0.0
O238 O 0.6664 0.93335 0.89354 0.0
O239 O 0.66427 0.90266 0.86927 0.0
H240 H 0.72941 0.89175 0.87639 0.0
H241 H 0.73306 0.94675 0.90525 0.0
H242 H 0.78046 0.91971 0.87438 0.0
H243 H 0.78404 0.9737 0.90277 0.0
H244 H 0.55931 0.81202 0.87206 0.0
H245 H 0.60042 0.86351 0.91078 0.0
H246 H 0.61047 0.83968 0.87405 0.0
H247 H 0.54945 0.83551 0.90814 0.0
H248 H 0.71886 0.92064 0.94125 0.0
H249 H 0.64405 0.92584 0.94151 0.0
H250 H 0.69789 0.84021 0.84782 0.0
H251 H 0.66414 0.78625 0.87961 0.0
H252 H 0.64636 0.96438 0.88491 0.0
H253 H 0.69993 0.95984 0.91241 0.0
H254 H 0.65684 0.00969 0.89357 0.0
H255 H 0.7091 0.00502 0.92068 0.0
H256 H 0.66979 0.95274 0.86968 0.0
H257 H 0.65302 0.88353 0.84636 0.0
H258 H 0.66446 0.97663 0.85142 0.0
H259 H 0.64817 0.90871 0.82844 0.0
H260 H 0.76371 0.97251 0.85062 0.0
H261 H 0.76518 0.02736 0.87934 0.0
H262 H 0.57248 0.9272 0.89567 0.0
H263 H 0.56953 0.90627 0.8569 0.0
Li264 Li 0.78519 0.66464 0.2134 0.0
Li265 Li 0.76443 0.66798 0.23338 0.0
Li266 Li 0.73521 0.63886 0.21601 0.0
Li267 Li 0.75999 0.68894 0.21449 0.0
C268 C 0.76276 0.61055 0.222 0.0
N269 N 0.76199 0.5629 0.21436 0.0
C270 C 0.76552 0.59348 0.23066 0.0
C271 C 0.7596 0.6034 0.20944 0.0
C272 C 0.76509 0.56947 0.22662 0.0
C273 C 0.75926 0.57922 0.20577 0.0
C274 C 0.80951 0.72574 0.22197 0.0
C275 C 0.81817 0.7716 0.22683 0.0
N276 N 0.83816 0.78222 0.21796 0.0
C277 C 0.83027 0.73712 0.21296 0.0
C278 C 0.80352 0.74311 0.22903 0.0
C279 C 0.84449 0.76572 0.21107 0.0
C280 C 0.81986 0.67337 0.19348 0.0
N281 N 0.8164 0.66607 0.20563 0.0
C282 C 0.86018 0.66799 0.20609 0.0
C283 C 0.83568 0.66287 0.21197 0.0
C284 C 0.86476 0.67663 0.19363 0.0
C285 C 0.84388 0.67862 0.18726 0.0
H286 H 0.80443 0.67623 0.18875 0.0
H287 H 0.8325 0.65737 0.22169 0.0
C288 C 0.74356 0.65165 0.25721 0.0
N289 N 0.76577 0.6712 0.25086 0.0
C290 C 0.73948 0.65619 0.26955 0.0
C291 C 0.78204 0.70021 0.26875 0.0
C292 C 0.7854 0.69472 0.25644 0.0
C293 C 0.75829 0.68124 0.27535 0.0
H294 H 0.72812 0.63334 0.25245 0.0
H295 H 0.80267 0.71004 0.25109 0.0
C296 C 0.73911 0.65987 0.19228 0.0
N297 N 0.70317 0.65483 0.1735 0.0
C298 C 0.71668 0.66372 0.19476 0.0
C299 C 0.74325 0.65347 0.18022 0.0
C300 C 0.69875 0.66109 0.18515 0.0
C301 C 0.72485 0.651 0.17086 0.0
C302 C 0.7129 0.67195 0.23172 0.0
C303 C 0.68544 0.65928 0.22765 0.0
C304 C 0.72141 0.69087 0.24152 0.0
C305 C 0.66699 0.66569 0.23348 0.0
C306 C 0.70232 0.6967 0.24711 0.0
N307 N 0.67573 0.68408 0.24301 0.0
C308 C 0.68359 0.59731 0.22323 0.0
C309 C 0.69075 0.59613 0.20164 0.0
C310 C 0.65542 0.57859 0.22186 0.0
N311 N 0.70031 0.60662 0.21312 0.0
C312 C 0.66261 0.57744 0.19983 0.0
C313 C 0.64437 0.5694 0.20996 0.0
H314 H 0.69183 0.60593 0.23226 0.0
H315 H 0.70454 0.60344 0.19377 0.0
C316 C 0.77483 0.73122 0.19724 0.0
N317 N 0.75936 0.72023 0.20763 0.0
C318 C 0.77625 0.7544 0.19162 0.0
C319 C 0.74528 0.75421 0.20733 0.0
C320 C 0.74467 0.7312 0.21271 0.0
C321 C 0.7613 0.76613 0.19668 0.0
H322 H 0.7862 0.72198 0.19336 0.0
H323 H 0.7326 0.72233 0.22095 0.0
O324 O 0.76324 0.63413 0.22586 0.0
O325 O 0.79484 0.69771 0.22372 0.0
O326 O 0.75692 0.66215 0.20154 0.0
O327 O 0.7311 0.6654 0.2263 0.0
H328 H 0.76799 0.59875 0.24042 0.0
H329 H 0.75745 0.6163 0.20258 0.0
H330 H 0.76721 0.55607 0.23322 0.0
H331 H 0.75683 0.57344 0.19608 0.0
H332 H 0.81356 0.78525 0.23214 0.0
H333 H 0.8352 0.72401 0.20743 0.0
H334 H 0.78741 0.73465 0.23597 0.0
H335 H 0.86049 0.77479 0.20408 0.0
H336 H 0.87583 0.66641 0.21137 0.0
H337 H 0.84634 0.68484 0.17762 0.0
H338 H 0.72116 0.64075 0.27433 0.0
H339 H 0.79696 0.71988 0.27277 0.0
H340 H 0.71312 0.66871 0.20398 0.0
H341 H 0.76036 0.65018 0.17813 0.0
H342 H 0.68132 0.66401 0.18696 0.0
H343 H 0.72779 0.64599 0.1615 0.0
H344 H 0.67839 0.64467 0.22006 0.0
H345 H 0.74258 0.70125 0.2447 0.0
H346 H 0.6457 0.65601 0.23042 0.0
H347 H 0.70867 0.7113 0.2547 0.0
H348 H 0.64222 0.57242 0.22997 0.0
H349 H 0.65503 0.57082 0.1905 0.0
H350 H 0.78862 0.76284 0.18333 0.0
H351 H 0.73366 0.76285 0.21157 0.0
Li352 Li 0.12094 0.78759 0.54589 0.0
Li353 Li 0.09649 0.76559 0.56572 0.0
Li354 Li 0.09844 0.7375 0.54825 0.0
Li355 Li 0.07151 0.76049 0.54659 0.0
C356 C 0.15406 0.76699 0.55475 0.0
N357 N 0.20253 0.76895 0.54756 0.0
C358 C 0.17397 0.77085 0.56358 0.0
C359 C 0.15877 0.76411 0.54225 0.0
C360 C 0.19836 0.77179 0.55977 0.0
C361 C 0.18341 0.76516 0.53881 0.0
C362 C 0.08071 0.80827 0.55443 0.0
C363 C 0.04188 0.8139 0.55985 0.0
N364 N 0.04881 0.83273 0.55057 0.0
C365 C 0.08754 0.82778 0.54499 0.0
C366 C 0.05778 0.80134 0.56197 0.0
C367 C 0.07113 0.83988 0.54317 0.0
C368 C 0.14577 0.82478 0.52661 0.0
N369 N 0.15036 0.81959 0.53841 0.0
C370 C 0.19335 0.86228 0.53907 0.0
C371 C 0.17371 0.83749 0.54466 0.0
C372 C 0.18864 0.86865 0.52702 0.0
C373 C 0.16471 0.84924 0.52071 0.0
H374 H 0.12687 0.81029 0.52193 0.0
H375 H 0.17668 0.83289 0.55409 0.0
C376 C 0.09195 0.74402 0.58938 0.0
N377 N 0.09407 0.76621 0.58321 0.0
C378 C 0.08364 0.73952 0.60176 0.0
C379 C 0.08126 0.78161 0.60137 0.0
C380 C 0.08983 0.7854 0.589 0.0
C381 C 0.07716 0.75791 0.6078 0.0
H382 H 0.09517 0.72896 0.58446 0.0
H383 H 0.09149 0.80275 0.58383 0.0
C384 C 0.08272 0.74179 0.52418 0.0
N385 N 0.05521 0.70691 0.50457 0.0
C386 C 0.05668 0.71845 0.52597 0.0
C387 C 0.09474 0.74744 0.5124 0.0
C388 C 0.0431 0.70106 0.51595 0.0
C389 C 0.08051 0.72954 0.50261 0.0
C390 C 0.04213 0.71222 0.5632 0.0
C391 C 0.02858 0.68535 0.55838 0.0
C392 C 0.03056 0.71863 0.57327 0.0
C393 C 0.00363 0.66543 0.56366 0.0
C394 C 0.00559 0.69813 0.57829 0.0
N395 N 0.99275 0.67217 0.57343 0.0
C396 C 0.0908 0.68689 0.55555 0.0
C397 C 0.09906 0.69399 0.53395 0.0
C398 C 0.08305 0.65907 0.55431 0.0
N399 N 0.0975 0.70338 0.54539 0.0
C400 C 0.09127 0.66618 0.53227 0.0
C401 C 0.08221 0.64814 0.54249 0.0
H402 H 0.08964 0.69492 0.56452 0.0
H403 H 0.10495 0.70761 0.52603 0.0
C404 C 0.04194 0.77052 0.52838 0.0
N405 N 0.03892 0.75823 0.5396 0.0
C406 C 0.01941 0.77021 0.52264 0.0
C407 C 0.99106 0.7449 0.54017 0.0
C408 C 0.01414 0.74562 0.54555 0.0
C409 C 0.99352 0.75727 0.52856 0.0
H410 H 0.06197 0.78068 0.52391 0.0
H411 H 0.01227 0.73657 0.55455 0.0
O412 O 0.13017 0.76617 0.55838 0.0
O413 O 0.09602 0.79555 0.55609 0.0
O414 O 0.09655 0.75912 0.53386 0.0
O415 O 0.067 0.73183 0.55835 0.0
H416 H 0.17062 0.77313 0.57329 0.0
H417 H 0.14366 0.76113 0.53526 0.0
H418 H 0.21397 0.77479 0.56651 0.0
H419 H 0.18733 0.76297 0.52917 0.0
H420 H 0.02393 0.80855 0.56554 0.0
H421 H 0.10517 0.83334 0.53906 0.0
H422 H 0.05198 0.78603 0.56921 0.0
H423 H 0.07608 0.8549 0.53586 0.0
H424 H 0.21142 0.87676 0.5443 0.0
H425 H 0.16042 0.85312 0.51136 0.0
H426 H 0.0813 0.72127 0.6064 0.0
H427 H 0.07633 0.79623 0.60558 0.0
H428 H 0.047 0.71387 0.53497 0.0
H429 H 0.11493 0.76538 0.51087 0.0
H430 H 0.02294 0.68292 0.51721 0.0
H431 H 0.0896 0.73362 0.49345 0.0
H432 H 0.03721 0.67982 0.55065 0.0
H433 H 0.04049 0.7393 0.57707 0.0
H434 H 0.99295 0.64458 0.56001 0.0
H435 H 0.9964 0.70287 0.58606 0.0
H436 H 0.07601 0.6459 0.56243 0.0
H437 H 0.09133 0.65866 0.52302 0.0
H438 H 0.0222 0.7798 0.51363 0.0
H439 H 0.97164 0.73518 0.54517 0.0
Li440 Li 0.33115 0.09664 0.90027 0.0
Li441 Li 0.3353 0.12244 0.88067 0.0
Li442 Li 0.31058 0.07294 0.88093 0.0
Li443 Li 0.36059 0.09753 0.88277 0.0
C444 C 0.27378 0.08433 0.88917 0.0
N445 N 0.2172 0.05486 0.88558 0.0
C446 C 0.26169 0.09205 0.87981 0.0
C447 C 0.25709 0.06175 0.89677 0.0
C448 C 0.23304 0.07686 0.87813 0.0
C449 C 0.22853 0.04707 0.89479 0.0
C450 C 0.38912 0.15296 0.88968 0.0
C451 C 0.42145 0.18161 0.87392 0.0
N452 N 0.43707 0.20034 0.88275 0.0
C453 C 0.40549 0.17248 0.8986 0.0
C454 C 0.39713 0.15753 0.87723 0.0
C455 C 0.42966 0.19631 0.89492 0.0
C456 C 0.34547 0.08806 0.9239 0.0
N457 N 0.32756 0.09359 0.91773 0.0
C458 C 0.29963 0.08401 0.93584 0.0
C459 C 0.3054 0.09253 0.92349 0.0
C460 C 0.31686 0.07656 0.94226 0.0
C461 C 0.34052 0.0795 0.93624 0.0
H462 H 0.36264 0.08863 0.91898 0.0
H463 H 0.29144 0.09694 0.91832 0.0
C464 C 0.32477 0.14931 0.8617 0.0
N465 N 0.33417 0.15294 0.87355 0.0
C466 C 0.31918 0.16859 0.85619 0.0
C467 C 0.33419 0.19573 0.87501 0.0
C468 C 0.3394 0.17577 0.8802 0.0
C469 C 0.32324 0.19184 0.86296 0.0
H470 H 0.32041 0.13076 0.85672 0.0
H471 H 0.34657 0.17791 0.88967 0.0
C472 C 0.32726 0.04098 0.8972 0.0
N473 N 0.31597 0.99055 0.90694 0.0
C474 C 0.33992 0.02691 0.89224 0.0
C475 C 0.30893 0.02939 0.90715 0.0
C476 C 0.33392 0.00144 0.89728 0.0
C477 C 0.30347 0.00388 0.91193 0.0
C478 C 0.34048 0.08338 0.8586 0.0
C479 C 0.3359 0.05655 0.86019 0.0
C480 C 0.3477 0.09577 0.84691 0.0
C481 C 0.3387 0.04256 0.85005 0.0
C482 C 0.35031 0.08111 0.837 0.0
N483 N 0.3458 0.05504 0.83876 0.0
C484 C 0.27057 0.04567 0.86256 0.0
C485 C 0.26605 0.01656 0.87946 0.0
C486 C 0.24795 0.02393 0.85662 0.0
N487 N 0.27927 0.04159 0.87373 0.0
C488 C 0.24329 0.99426 0.87388 0.0
C489 C 0.23405 0.99778 0.86228 0.0
H490 H 0.28119 0.06591 0.8583 0.0
H491 H 0.27293 0.01384 0.88839 0.0
C492 C 0.40213 0.08807 0.89041 0.0
N493 N 0.39265 0.09442 0.88004 0.0
C494 C 0.42073 0.07836 0.88947 0.0
C495 C 0.42119 0.08397 0.86725 0.0
C496 C 0.40273 0.09385 0.86864 0.0
C497 C 0.42951 0.07496 0.87772 0.0
H498 H 0.39378 0.0888 0.89936 0.0
H499 H 0.39532 0.09947 0.86053 0.0
O500 O 0.30187 0.0984 0.89071 0.0
O501 O 0.36536 0.12962 0.89318 0.0
O502 O 0.33347 0.06634 0.89259 0.0
O503 O 0.33791 0.09759 0.86837 0.0
H504 H 0.2743 0.10942 0.87383 0.0
H505 H 0.26612 0.05531 0.90398 0.0
H506 H 0.22342 0.08251 0.87087 0.0
H507 H 0.21539 0.02941 0.90053 0.0
H508 H 0.42789 0.18541 0.86432 0.0
H509 H 0.39954 0.16924 0.90828 0.0
H510 H 0.38479 0.14272 0.87018 0.0
H511 H 0.44252 0.21161 0.90172 0.0
H512 H 0.28138 0.0824 0.94019 0.0
H513 H 0.35417 0.07365 0.94076 0.0
H514 H 0.31109 0.16495 0.84684 0.0
H515 H 0.33741 0.21326 0.88056 0.0
H516 H 0.3543 0.03553 0.8846 0.0
H517 H 0.29873 0.03978 0.91107 0.0
H518 H 0.34358 0.99036 0.89353 0.0
H519 H 0.28926 0.99467 0.9196 0.0
H520 H 0.33015 0.04658 0.86912 0.0
H521 H 0.3514 0.11657 0.84552 0.0
H522 H 0.33521 0.02179 0.85117 0.0
H523 H 0.35595 0.09048 0.82791 0.0
H524 H 0.24122 0.02763 0.84778 0.0
H525 H 0.23327 0.9744 0.87852 0.0
H526 H 0.42716 0.0724 0.89783 0.0
H527 H 0.42742 0.08179 0.858 0.0
Li528 Li 0.69061 0.76599 0.45192 0.0
Li529 Li 0.63973 0.74203 0.44858 0.0
Li530 Li 0.67073 0.76933 0.43157 0.0
Li531 Li 0.66548 0.79073 0.45086 0.0
C532 C 0.67041 0.71394 0.43825 0.0
N533 N 0.67471 0.66706 0.43494 0.0
C534 C 0.65759 0.6918 0.44654 0.0
C535 C 0.68543 0.71217 0.42826 0.0
C536 C 0.65999 0.6683 0.44472 0.0
C537 C 0.68738 0.68833 0.42676 0.0
C538 C 0.66123 0.77468 0.47415 0.0
C539 C 0.6377 0.78714 0.48937 0.0
N540 N 0.66183 0.80166 0.49573 0.0
C541 C 0.68573 0.78946 0.48091 0.0
C542 C 0.63694 0.77325 0.47847 0.0
C543 C 0.68563 0.80304 0.49177 0.0
C544 C 0.74504 0.78774 0.46128 0.0
N545 N 0.72023 0.76418 0.45981 0.0
C546 C 0.73717 0.7377 0.47012 0.0
C547 C 0.71581 0.73956 0.46432 0.0
C548 C 0.76323 0.76154 0.47145 0.0
C549 C 0.76698 0.78686 0.46702 0.0
H550 H 0.7478 0.8073 0.45809 0.0
H551 H 0.69561 0.72142 0.46361 0.0
C552 C 0.59655 0.69058 0.44126 0.0
N553 N 0.60758 0.70716 0.45133 0.0
C554 C 0.57793 0.66242 0.44276 0.0
C555 C 0.58146 0.6691 0.46497 0.0
C556 C 0.5999 0.69727 0.46304 0.0
C557 C 0.57102 0.65111 0.45475 0.0
H558 H 0.60372 0.69885 0.43209 0.0
H559 H 0.60966 0.71079 0.47087 0.0
C560 C 0.72541 0.81061 0.43607 0.0
N561 N 0.77568 0.83276 0.42399 0.0
C562 C 0.7417 0.83923 0.43455 0.0
C563 C 0.73472 0.79326 0.4315 0.0
C564 C 0.76705 0.85003 0.4284 0.0
C565 C 0.76017 0.80485 0.42541 0.0
C566 C 0.60965 0.7566 0.43545 0.0
C567 C 0.59971 0.74573 0.42368 0.0
C568 C 0.59101 0.75316 0.44487 0.0
C569 C 0.57119 0.73111 0.42158 0.0
C570 C 0.56263 0.73839 0.44242 0.0
N571 N 0.55339 0.72774 0.43092 0.0
C572 C 0.66088 0.74386 0.40867 0.0
C573 C 0.69491 0.7914 0.40767 0.0
C574 C 0.66613 0.73993 0.39643 0.0
N575 N 0.67574 0.76907 0.41413 0.0
C576 C 0.70102 0.78835 0.39539 0.0
C577 C 0.68696 0.76218 0.38973 0.0
H578 H 0.64583 0.72646 0.41405 0.0
H579 H 0.70623 0.81134 0.41215 0.0
C580 C 0.69281 0.84044 0.46308 0.0
N581 N 0.66785 0.82318 0.45785 0.0
C582 C 0.69709 0.86389 0.46949 0.0
C583 C 0.65031 0.85243 0.46447 0.0
C584 C 0.64673 0.82874 0.4583 0.0
C585 C 0.67565 0.87 0.47034 0.0
H586 H 0.70924 0.83553 0.46251 0.0
H587 H 0.62708 0.81464 0.45405 0.0
O588 O 0.6677 0.73689 0.43969 0.0
O589 O 0.6611 0.76189 0.46331 0.0
O590 O 0.70044 0.79978 0.44198 0.0
O591 O 0.63748 0.77064 0.43773 0.0
H592 H 0.64626 0.69285 0.45444 0.0
H593 H 0.69547 0.72896 0.42169 0.0
H594 H 0.65021 0.65108 0.4511 0.0
H595 H 0.69893 0.68672 0.41906 0.0
H596 H 0.6191 0.78639 0.49277 0.0
H597 H 0.70471 0.79076 0.47772 0.0
H598 H 0.61775 0.76167 0.47343 0.0
H599 H 0.7045 0.81477 0.49703 0.0
H600 H 0.73317 0.71791 0.47371 0.0
H601 H 0.78673 0.80576 0.46786 0.0
H602 H 0.57008 0.64943 0.43461 0.0
H603 H 0.57698 0.66128 0.47437 0.0
H604 H 0.73477 0.85293 0.43805 0.0
H605 H 0.72251 0.77114 0.43272 0.0
H606 H 0.77986 0.87214 0.42713 0.0
H607 H 0.76761 0.79165 0.42182 0.0
H608 H 0.61386 0.74848 0.41624 0.0
H609 H 0.59836 0.76164 0.45399 0.0
H610 H 0.5632 0.72244 0.41254 0.0
H611 H 0.54796 0.7354 0.44965 0.0
H612 H 0.65498 0.71934 0.39248 0.0
H613 H 0.71698 0.80611 0.39049 0.0
H614 H 0.71702 0.87717 0.47376 0.0
H615 H 0.63336 0.85661 0.46493 0.0
Li616 Li 0.92866 0.68733 0.7862 0.0
Li617 Li 0.90025 0.63686 0.78331 0.0
Li618 Li 0.90702 0.66719 0.76586 0.0
Li619 Li 0.87916 0.66454 0.78424 0.0
C620 C 0.95524 0.65693 0.77847 0.0
N621 N 0.99298 0.64141 0.7859 0.0
C622 C 0.9612 0.65675 0.79105 0.0
C623 C 0.96866 0.64937 0.76967 0.0
C624 C 0.98031 0.64884 0.79462 0.0
C625 C 0.98762 0.64155 0.77361 0.0
C626 C 0.88257 0.65263 0.80727 0.0
C627 C 0.84325 0.61888 0.819 0.0
N628 N 0.84423 0.63955 0.82606 0.0
C629 C 0.88334 0.67348 0.81475 0.0
C630 C 0.86246 0.62508 0.80948 0.0
C631 C 0.86372 0.66647 0.82415 0.0
C632 C 0.9556 0.73424 0.80134 0.0
N633 N 0.96028 0.71803 0.79346 0.0
C634 C 0.00917 0.74733 0.79562 0.0
C635 C 0.98644 0.72446 0.79032 0.0
C636 C 0.00493 0.76395 0.80409 0.0
C637 C 0.97771 0.75727 0.80688 0.0
H638 H 0.93469 0.72957 0.80314 0.0
H639 H 0.98979 0.71212 0.7836 0.0
C640 C 0.90475 0.59086 0.77678 0.0
N641 N 0.90144 0.60383 0.78674 0.0
C642 C 0.91487 0.57272 0.7783 0.0
C643 C 0.91675 0.58044 0.8004 0.0
C644 C 0.90653 0.59846 0.79845 0.0
C645 C 0.92212 0.56823 0.79018 0.0
H646 H 0.90202 0.59654 0.76753 0.0
H647 H 0.90527 0.61014 0.80617 0.0
C648 C 0.92492 0.723 0.76963 0.0
N649 N 0.96025 0.77258 0.75807 0.0
C650 C 0.91753 0.74341 0.76844 0.0
C651 C 0.95031 0.72784 0.76491 0.0
C652 C 0.93567 0.76834 0.76257 0.0
C653 C 0.96787 0.75302 0.75911 0.0
C654 C 0.85637 0.60819 0.76841 0.0
C655 C 0.8587 0.5998 0.75648 0.0
C656 C 0.83829 0.58856 0.7769 0.0
C657 C 0.8435 0.57177 0.75336 0.0
C658 C 0.82345 0.56072 0.77344 0.0
N659 N 0.82637 0.55296 0.76185 0.0
C660 C 0.92457 0.65806 0.74306 0.0
C661 C 0.90959 0.69094 0.74192 0.0
C662 C 0.93391 0.66356 0.73083 0.0
N663 N 0.91336 0.6722 0.74843 0.0
C664 C 0.91892 0.69733 0.72969 0.0
C665 C 0.9318 0.68395 0.72409 0.0
H666 H 0.92684 0.64294 0.74839 0.0
H667 H 0.9003 0.7017 0.74636 0.0
C668 C 0.85603 0.69541 0.79241 0.0
N669 N 0.84919 0.66883 0.79005 0.0
C670 C 0.83678 0.70134 0.79766 0.0
C671 C 0.80363 0.65234 0.7981 0.0
C672 C 0.82354 0.64735 0.79268 0.0
C673 C 0.81024 0.67968 0.80067 0.0
H674 H 0.8768 0.712 0.79058 0.0
H675 H 0.81874 0.62636 0.79086 0.0
O676 O 0.93553 0.66331 0.77485 0.0
O677 O 0.90103 0.65914 0.79773 0.0
O678 O 0.90733 0.69851 0.7754 0.0
O679 O 0.87119 0.63556 0.77163 0.0
H680 H 0.95091 0.66232 0.79802 0.0
H681 H 0.96446 0.6494 0.7599 0.0
H682 H 0.98494 0.64844 0.80432 0.0
H683 H 0.99802 0.6355 0.76691 0.0
H684 H 0.82751 0.59765 0.82074 0.0
H685 H 0.89861 0.69488 0.81322 0.0
H686 H 0.86156 0.60861 0.80389 0.0
H687 H 0.86395 0.68246 0.8299 0.0
H688 H 0.02983 0.75181 0.79318 0.0
H689 H 0.97354 0.77 0.81309 0.0
H690 H 0.91858 0.56364 0.77018 0.0
H691 H 0.92252 0.57794 0.80969 0.0
H692 H 0.89792 0.74002 0.77197 0.0
H693 H 0.95641 0.71231 0.76565 0.0
H694 H 0.93018 0.78429 0.76159 0.0
H695 H 0.98754 0.75699 0.75541 0.0
H696 H 0.87211 0.61472 0.7497 0.0
H697 H 0.83566 0.5947 0.78605 0.0
H698 H 0.84528 0.56498 0.74419 0.0
H699 H 0.80954 0.54529 0.77996 0.0
H700 H 0.94379 0.65281 0.7269 0.0
H701 H 0.91655 0.71291 0.72474 0.0
H702 H 0.84295 0.72266 0.79973 0.0
H703 H 0.78338 0.63507 0.80029 0.0
Li704 Li 0.24185 0.92694 0.11921 0.0
Li705 Li 0.2644 0.89988 0.11673 0.0
Li706 Li 0.23685 0.90419 0.09947 0.0
Li707 Li 0.21321 0.87779 0.11892 0.0
C708 C 0.29261 0.95695 0.10358 0.0
N709 N 0.33721 0.00632 0.09571 0.0
C710 C 0.31814 0.96785 0.10961 0.0
C711 C 0.28984 0.9712 0.09352 0.0
C712 C 0.34041 0.99282 0.1055 0.0
C713 C 0.31261 0.99611 0.08969 0.0
C714 C 0.25229 0.91365 0.14207 0.0
C715 C 0.24705 0.9182 0.16399 0.0
N716 N 0.2719 0.94207 0.16412 0.0
C717 C 0.27786 0.93811 0.14245 0.0
C718 C 0.2368 0.9035 0.15293 0.0
C719 C 0.28738 0.95222 0.15367 0.0
C720 C 0.22613 0.95442 0.13622 0.0
N721 N 0.24473 0.95907 0.12708 0.0
C722 C 0.26536 0.00795 0.12973 0.0
C723 C 0.26415 0.98521 0.12376 0.0
C724 C 0.24635 0.00375 0.13918 0.0
C725 C 0.22653 0.97654 0.14241 0.0
H726 H 0.21092 0.93342 0.13869 0.0
H727 H 0.27862 0.98859 0.11646 0.0
C728 C 0.31367 0.90388 0.10941 0.0
N729 N 0.29777 0.89978 0.11959 0.0
C730 C 0.34146 0.91155 0.11072 0.0
C731 C 0.3354 0.90867 0.13297 0.0
C732 C 0.30764 0.90093 0.13122 0.0
C733 C 0.35292 0.91511 0.12264 0.0
H734 H 0.30529 0.90326 0.1003 0.0
H735 H 0.29449 0.8975 0.13916 0.0
C736 C 0.19617 0.92177 0.10967 0.0
N737 N 0.175 0.95714 0.11095 0.0
C738 C 0.17232 0.91446 0.1166 0.0
C739 C 0.20902 0.9469 0.10326 0.0
C740 C 0.16199 0.93266 0.11716 0.0
C741 C 0.19808 0.96455 0.10406 0.0
C742 C 0.23363 0.84476 0.10887 0.0
C743 C 0.22928 0.82589 0.09942 0.0
C744 C 0.23645 0.83832 0.12111 0.0
C745 C 0.2277 0.80076 0.10238 0.0
C746 C 0.23474 0.81298 0.12369 0.0
N747 N 0.23044 0.79488 0.11435 0.0
C748 C 0.25945 0.91176 0.07584 0.0
C749 C 0.21786 0.91345 0.07653 0.0
C750 C 0.26423 0.92135 0.06364 0.0
N751 N 0.23699 0.90879 0.08209 0.0
C752 C 0.22184 0.92312 0.06433 0.0
C753 C 0.24575 0.92804 0.05786 0.0
H754 H 0.27448 0.9082 0.08059 0.0
H755 H 0.20032 0.91115 0.08177 0.0
C756 C 0.17001 0.85678 0.13541 0.0
N757 N 0.18017 0.84859 0.1259 0.0
C758 C 0.14484 0.83826 0.14089 0.0
C759 C 0.14118 0.80272 0.1269 0.0
C760 C 0.16647 0.82212 0.1216 0.0
C761 C 0.12988 0.81092 0.13655 0.0
H762 H 0.18118 0.87804 0.13851 0.0
H763 H 0.17479 0.81619 0.1139 0.0
O764 O 0.27061 0.93232 0.10738 0.0
O765 O 0.24238 0.89981 0.1311 0.0
O766 O 0.20705 0.90458 0.10927 0.0
O767 O 0.23514 0.86939 0.10607 0.0
H768 H 0.32086 0.95719 0.11737 0.0
H769 H 0.27035 0.96322 0.08871 0.0
H770 H 0.36025 0.00145 0.11009 0.0
H771 H 0.31071 0.00732 0.08193 0.0
H772 H 0.23526 0.91062 0.17246 0.0
H773 H 0.29002 0.94627 0.13412 0.0
H774 H 0.21715 0.88442 0.15287 0.0
H775 H 0.30705 0.97128 0.15406 0.0
H776 H 0.28072 0.02861 0.12684 0.0
H777 H 0.21167 0.97239 0.14973 0.0
H778 H 0.35424 0.91661 0.10251 0.0
H779 H 0.34336 0.91081 0.14231 0.0
H780 H 0.1619 0.89499 0.12151 0.0
H781 H 0.2275 0.95291 0.09789 0.0
H782 H 0.14363 0.92733 0.12254 0.0
H783 H 0.20799 0.98418 0.09924 0.0
H784 H 0.2271 0.83061 0.08989 0.0
H785 H 0.23985 0.85263 0.12856 0.0
H786 H 0.2243 0.78593 0.09516 0.0
H787 H 0.23684 0.8077 0.13312 0.0
H788 H 0.28271 0.92442 0.05894 0.0
H789 H 0.20717 0.9282 0.06029 0.0
H790 H 0.13702 0.84536 0.14838 0.0
H791 H 0.13014 0.78188 0.12323 0.0
Li792 Li 0.35535 0.26387 0.45246 0.0
Li793 Li 0.30523 0.23538 0.4547 0.0
Li794 Li 0.33491 0.21468 0.45433 0.0
Li795 Li 0.32676 0.23376 0.4355 0.0
C796 C 0.34696 0.25738 0.47639 0.0
N797 N 0.37437 0.29439 0.49535 0.0
C798 C 0.3346 0.2707 0.48235 0.0
C799 C 0.37316 0.26272 0.48013 0.0
C800 C 0.34882 0.28937 0.49191 0.0
C801 C 0.38671 0.28156 0.48972 0.0
C802 C 0.32528 0.28019 0.4331 0.0
C803 C 0.30048 0.28644 0.41625 0.0
N804 N 0.32459 0.30808 0.41205 0.0
C805 C 0.34981 0.30252 0.42862 0.0
C806 C 0.30038 0.27213 0.4269 0.0
C807 C 0.34901 0.31637 0.41797 0.0
C808 C 0.41166 0.30936 0.45503 0.0
N809 N 0.38419 0.30011 0.45643 0.0
C810 C 0.39334 0.34486 0.46281 0.0
C811 C 0.37485 0.31716 0.46027 0.0
C812 C 0.42185 0.35532 0.46129 0.0
C813 C 0.43102 0.33716 0.45742 0.0
H814 H 0.41846 0.29534 0.45186 0.0
H815 H 0.35284 0.30927 0.46109 0.0
C816 C 0.25972 0.21613 0.47115 0.0
N817 N 0.27425 0.23491 0.46215 0.0
C818 C 0.23703 0.21592 0.4767 0.0
C819 C 0.24549 0.2551 0.46399 0.0
C820 C 0.26781 0.25438 0.45861 0.0
C821 C 0.22973 0.23562 0.47312 0.0
H822 H 0.26584 0.20141 0.47403 0.0
H823 H 0.28016 0.26953 0.45169 0.0
C824 C 0.37687 0.22572 0.44013 0.0
N825 N 0.40361 0.19571 0.43727 0.0
C826 C 0.37066 0.20791 0.43002 0.0
C827 C 0.3968 0.22846 0.44873 0.0
C828 C 0.3844 0.19288 0.42875 0.0
C829 C 0.41004 0.21303 0.44714 0.0
C830 C 0.27223 0.18408 0.44784 0.0
C831 C 0.26482 0.1622 0.45612 0.0
C832 C 0.2516 0.18796 0.44247 0.0
C833 C 0.2369 0.14457 0.45888 0.0
C834 C 0.22392 0.16992 0.4455 0.0
N835 N 0.2172 0.14877 0.45357 0.0
C836 C 0.34247 0.18446 0.47341 0.0
C837 C 0.3309 0.16197 0.45389 0.0
C838 C 0.33935 0.16062 0.47912 0.0
N839 N 0.33769 0.18452 0.46106 0.0
C840 C 0.32755 0.13765 0.45923 0.0
C841 C 0.33098 0.13652 0.47208 0.0
H842 H 0.34733 0.20246 0.47894 0.0
H843 H 0.32647 0.16233 0.44415 0.0
C844 C 0.34291 0.25035 0.41072 0.0
N845 N 0.3219 0.23175 0.41797 0.0
C846 C 0.33795 0.25395 0.39835 0.0
C847 C 0.29036 0.21781 0.40098 0.0
C848 C 0.29628 0.21482 0.41325 0.0
C849 C 0.3111 0.23825 0.3935 0.0
H850 H 0.36306 0.26364 0.41476 0.0
H851 H 0.28006 0.19999 0.41917 0.0
O852 O 0.33367 0.23952 0.46681 0.0
O853 O 0.32572 0.26585 0.44332 0.0
O854 O 0.36332 0.24023 0.44164 0.0
O855 O 0.2995 0.20176 0.44509 0.0
H856 H 0.31439 0.2669 0.47955 0.0
H857 H 0.38307 0.2527 0.47556 0.0
H858 H 0.33957 0.29994 0.49656 0.0
H859 H 0.40707 0.28604 0.49265 0.0
H860 H 0.28141 0.28024 0.4113 0.0
H861 H 0.36933 0.30886 0.43318 0.0
H862 H 0.28125 0.2547 0.43014 0.0
H863 H 0.36786 0.3336 0.41437 0.0
H864 H 0.38526 0.35816 0.46549 0.0
H865 H 0.45284 0.3444 0.45616 0.0
H866 H 0.22564 0.20085 0.48386 0.0
H867 H 0.24046 0.27058 0.46097 0.0
H868 H 0.35524 0.20555 0.4233 0.0
H869 H 0.40182 0.24219 0.4566 0.0
H870 H 0.37972 0.17891 0.42101 0.0
H871 H 0.4254 0.21481 0.45376 0.0
H872 H 0.2804 0.15896 0.46048 0.0
H873 H 0.25691 0.20508 0.43624 0.0
H874 H 0.2309 0.1276 0.4653 0.0
H875 H 0.2078 0.17283 0.44148 0.0
H876 H 0.34249 0.16076 0.48903 0.0
H877 H 0.3207 0.11948 0.45347 0.0
H878 H 0.35448 0.27003 0.39291 0.0
H879 H 0.26953 0.20494 0.3975 0.0
Li880 Li 0.07338 0.31154 0.78678 0.0
Li881 Li 0.0985 0.36049 0.78398 0.0
Li882 Li 0.09466 0.33041 0.76663 0.0
Li883 Li 0.12304 0.33399 0.78561 0.0
C884 C 0.04021 0.33206 0.77459 0.0
N885 N 0.98973 0.33002 0.77313 0.0
C886 C 0.03263 0.34509 0.78359 0.0
C887 C 0.02203 0.31804 0.76482 0.0
C888 C 0.00706 0.34382 0.78269 0.0
C889 C 0.99662 0.3172 0.76426 0.0
C890 C 0.0897 0.32784 0.80934 0.0
C891 C 0.08392 0.29622 0.82583 0.0
N892 N 0.0648 0.30125 0.83119 0.0
C893 C 0.07012 0.33282 0.81504 0.0
C894 C 0.09678 0.30951 0.81479 0.0
C895 C 0.05772 0.31913 0.82607 0.0
C896 C 0.04494 0.25843 0.79747 0.0
N897 N 0.04261 0.28104 0.7949 0.0
C898 C 0.99776 0.25975 0.8042 0.0
C899 C 0.01974 0.28217 0.79828 0.0
C900 C 0.99933 0.23588 0.80671 0.0
C901 C 0.02341 0.23546 0.80333 0.0
H902 H 0.06361 0.25824 0.79497 0.0
H903 H 0.01862 0.30058 0.79663 0.0
C904 C 0.09035 0.40408 0.7775 0.0
N905 N 0.09776 0.39364 0.78719 0.0
C906 C 0.08279 0.42409 0.77949 0.0
C907 C 0.09213 0.42338 0.80134 0.0
C908 C 0.09965 0.4034 0.7989 0.0
C909 C 0.08269 0.43332 0.7916 0.0
H910 H 0.08842 0.39541 0.76834 0.0
H911 H 0.1054 0.39452 0.80644 0.0
C912 C 0.07908 0.27568 0.77016 0.0
N913 N 0.04663 0.22722 0.75719 0.0
C914 C 0.08955 0.25838 0.76696 0.0
C915 C 0.05208 0.26826 0.76674 0.0
C916 C 0.07283 0.23398 0.76041 0.0
C917 C 0.03601 0.24371 0.7602 0.0
C918 C 0.14308 0.39077 0.77073 0.0
C919 C 0.14139 0.40104 0.75915 0.0
C920 C 0.15846 0.40916 0.7802 0.0
C921 C 0.155 0.42963 0.75726 0.0
C922 C 0.17173 0.43761 0.77795 0.0
N923 N 0.16973 0.44717 0.76662 0.0
C924 C 0.07708 0.33906 0.74385 0.0
C925 C 0.0944 0.30805 0.74264 0.0
C926 C 0.06781 0.33328 0.73163 0.0
N927 N 0.0893 0.32584 0.7492 0.0
C928 C 0.08529 0.30149 0.73039 0.0
C929 C 0.07117 0.31367 0.72484 0.0
H930 H 0.07338 0.35318 0.74929 0.0
H931 H 0.10456 0.29813 0.74704 0.0
C932 C 0.15157 0.30642 0.79129 0.0
N933 N 0.15382 0.33178 0.79185 0.0
C934 C 0.17178 0.30192 0.79657 0.0
C935 C 0.19642 0.34979 0.80304 0.0
C936 C 0.17569 0.3534 0.79754 0.0
C937 C 0.1945 0.32369 0.80264 0.0
H938 H 0.13355 0.28939 0.78708 0.0
H939 H 0.17674 0.37324 0.79808 0.0
O940 O 0.06558 0.33378 0.77505 0.0
O941 O 0.10143 0.34036 0.79833 0.0
O942 O 0.09538 0.29988 0.77643 0.0
O943 O 0.12945 0.36287 0.77283 0.0
H944 H 0.04606 0.35563 0.79133 0.0
H945 H 0.02745 0.30789 0.75773 0.0
H946 H 0.00096 0.35374 0.78962 0.0
H947 H 0.9824 0.3064 0.75676 0.0
H948 H 0.08905 0.28184 0.83012 0.0
H949 H 0.06425 0.34679 0.8109 0.0
H950 H 0.11179 0.30531 0.81047 0.0
H951 H 0.04238 0.32262 0.83054 0.0
H952 H 0.97991 0.26128 0.80694 0.0
H953 H 0.02549 0.21746 0.80504 0.0
H954 H 0.07527 0.43079 0.77174 0.0
H955 H 0.09263 0.43016 0.81079 0.0
H956 H 0.11048 0.26383 0.76936 0.0
H957 H 0.04353 0.28121 0.76914 0.0
H958 H 0.08072 0.22047 0.75785 0.0
H959 H 0.01509 0.23778 0.75751 0.0
H960 H 0.12963 0.38708 0.75171 0.0
H961 H 0.1597 0.40154 0.78926 0.0
H962 H 0.1538 0.43788 0.74835 0.0
H963 H 0.18353 0.45209 0.78522 0.0
H964 H 0.05686 0.34301 0.72777 0.0
H965 H 0.08867 0.28659 0.72541 0.0
H966 H 0.16906 0.2813 0.79629 0.0
H967 H 0.2136 0.36712 0.80763 0.0
Li968 Li 0.74142 0.09944 0.11652 0.0
Li969 Li 0.7675 0.07565 0.11924 0.0
Li970 Li 0.79128 0.12506 0.11904 0.0
Li971 Li 0.77097 0.09839 0.09958 0.0
C972 C 0.74558 0.08505 0.14072 0.0
N973 N 0.70952 0.0545 0.15954 0.0
C974 C 0.72378 0.05827 0.13842 0.0
C975 C 0.749 0.09625 0.15261 0.0
C976 C 0.70579 0.04317 0.14805 0.0
C977 C 0.73057 0.08049 0.162 0.0
C978 C 0.72007 0.04318 0.1019 0.0
C979 C 0.70962 0.00693 0.08703 0.0
N980 N 0.68278 0.99368 0.0908 0.0
C981 C 0.69237 0.02911 0.10566 0.0
C982 C 0.72878 0.03194 0.09254 0.0
C983 C 0.67385 0.00414 0.09993 0.0
C984 C 0.69111 0.08983 0.10788 0.0
N985 N 0.70596 0.09603 0.11854 0.0
C986 C 0.6658 0.08516 0.13053 0.0
C987 C 0.69426 0.0952 0.1297 0.0
C988 C 0.64947 0.07621 0.11975 0.0
C989 C 0.66271 0.07989 0.10826 0.0
H990 H 0.70103 0.09079 0.09913 0.0
H991 H 0.70655 0.10074 0.13805 0.0
C992 C 0.78162 0.04954 0.13772 0.0
N993 N 0.76745 0.04468 0.12689 0.0
C994 C 0.78226 0.02794 0.14395 0.0
C995 C 0.75351 0.9967 0.12783 0.0
C996 C 0.75364 0.01892 0.12187 0.0
C997 C 0.76789 0.00109 0.13903 0.0
H998 H 0.79236 0.07024 0.14153 0.0
H999 H 0.74272 0.01546 0.11325 0.0
C1000 C 0.76761 0.15438 0.10912 0.0
N1001 N 0.76564 0.20146 0.1152 0.0
C1002 C 0.77078 0.17337 0.09992 0.0
C1003 C 0.76343 0.15931 0.12141 0.0
C1004 C 0.76972 0.19706 0.10318 0.0
C1005 C 0.7625 0.18324 0.1243 0.0
C1006 C 0.8171 0.08876 0.1122 0.0
C1007 C 0.83678 0.099 0.12169 0.0
C1008 C 0.81264 0.06541 0.10552 0.0
C1009 C 0.85155 0.08552 0.12442 0.0
C1010 C 0.8278 0.05249 0.10855 0.0
N1011 N 0.84676 0.06272 0.11786 0.0
C1012 C 0.82501 0.15847 0.13835 0.0
C1013 C 0.84239 0.17562 0.11828 0.0
C1014 C 0.84914 0.17934 0.1438 0.0
N1015 N 0.82226 0.15681 0.12583 0.0
C1016 C 0.86697 0.19682 0.12334 0.0
C1017 C 0.87078 0.19857 0.13627 0.0
H1018 H 0.80893 0.14288 0.1441 0.0
H1019 H 0.83971 0.17356 0.10833 0.0
C1020 C 0.74947 0.0901 0.0757 0.0
N1021 N 0.77224 0.09469 0.08219 0.0
C1022 C 0.74597 0.08089 0.06346 0.0
C1023 C 0.79017 0.08279 0.06462 0.0
C1024 C 0.79284 0.09202 0.07685 0.0
C1025 C 0.76609 0.07629 0.05789 0.0
H1026 H 0.73321 0.09188 0.0803 0.0
H1027 H 0.81061 0.09562 0.08229 0.0
O1028 O 0.76353 0.10037 0.13145 0.0
O1029 O 0.73836 0.06804 0.10722 0.0
O1030 O 0.7687 0.13116 0.10603 0.0
O1031 O 0.80189 0.10121 0.10963 0.0
H1032 H 0.7207 0.04917 0.12934 0.0
H1033 H 0.76561 0.11697 0.15458 0.0
H1034 H 0.68886 0.02245 0.14637 0.0
H1035 H 0.73297 0.08894 0.17123 0.0
H1036 H 0.71612 0.99803 0.07978 0.0
H1037 H 0.6852 0.03729 0.11295 0.0
H1038 H 0.75017 0.04216 0.08965 0.0
H1039 H 0.65237 0.99309 0.10274 0.0
H1040 H 0.65651 0.08279 0.13959 0.0
H1041 H 0.65106 0.07391 0.09969 0.0
H1042 H 0.79344 0.0321 0.15262 0.0
H1043 H 0.74248 0.97633 0.12365 0.0
H1044 H 0.77404 0.16982 0.09035 0.0
H1045 H 0.76092 0.1449 0.12867 0.0
H1046 H 0.77215 0.21194 0.09615 0.0
H1047 H 0.75928 0.18733 0.13377 0.0
H1048 H 0.84041 0.117 0.12697 0.0
H1049 H 0.79733 0.05709 0.09822 0.0
H1050 H 0.86673 0.09312 0.13178 0.0
H1051 H 0.8244 0.03426 0.10353 0.0
H1052 H 0.85134 0.17956 0.15378 0.0
H1053 H 0.88305 0.21132 0.1172 0.0
H1054 H 0.72694 0.0758 0.05869 0.0
H1055 H 0.80633 0.07986 0.06063 0.0
H1056 H 0.88023 0.22935 0.15743 0.0
H1057 H 0.92462 0.25842 0.16779 0.0
H1058 H 0.96661 0.2417 0.1384 0.0
H1059 H 0.92249 0.21278 0.12801 0.0
H1060 H 0.95844 0.24088 0.17659 0.0
H1061 H 0.01598 0.32417 0.14244 0.0
H1062 H 0.979 0.30143 0.14157 0.0
H1063 H 0.00218 0.29052 0.13561 0.0
C1064 C 0.89898 0.23216 0.1531 0.0
C1065 C 0.89782 0.21879 0.14187 0.0
C1066 C 0.92433 0.24885 0.15901 0.0
C1067 C 0.94902 0.25261 0.15379 0.0
C1068 C 0.94797 0.23979 0.14244 0.0
H1069 H 0.1113 0.29475 0.17521 0.0
H1070 H 0.06738 0.28227 0.16508 0.0
C1071 C 0.92267 0.22319 0.13651 0.0
C1072 C 0.97549 0.26759 0.16072 0.0
H1073 H 0.04354 0.31717 0.1577 0.0
C1074 C 0.97693 0.25794 0.17256 0.0
C1075 C -0.00039 0.28986 0.15547 0.0
C1076 C 0.99908 0.30229 0.14313 0.0
C1077 C 0.00209 0.26895 0.17901 0.0
C1078 C 0.0264 0.29035 0.17351 0.0
C1079 C 0.02484 0.30072 0.16187 0.0
C1080 C 0.05391 0.30039 0.17923 0.0
C1081 C 0.00281 0.25671 0.19138 0.0
C1082 C 0.06114 0.3153 0.19041 0.0
C1083 C 0.08629 0.32249 0.19623 0.0
C1084 C 0.10444 0.31467 0.19098 0.0
C1085 C 0.09752 0.30066 0.17956 0.0
C1086 C 0.07255 0.29368 0.17373 0.0
H1087 H 0.98292 0.2377 0.19355 0.0
H1088 H 0.01964 0.25157 0.19155 0.0
H1089 H 0.00712 0.27213 0.1988 0.0
H1090 H 0.04707 0.32085 0.19474 0.0
H1091 H 0.09108 0.33324 0.20503 0.0
H1092 H 0.75351 0.08951 0.53788 0.0
H1093 H 0.72521 0.0442 0.52791 0.0
H1094 H 0.77956 0.07233 0.49621 0.0
H1095 H 0.80808 0.11722 0.50622 0.0
H1096 H 0.6972 0.02461 0.5048 0.0
H1097 H 0.78624 0.00708 0.50945 0.0
H1098 H 0.78499 0.03508 0.51719 0.0
H1099 H 0.7944 0.03804 0.50109 0.0
C1100 C 0.75901 0.08612 0.52868 0.0
C1101 C 0.78314 0.10662 0.52287 0.0
C1102 C 0.7429 0.06028 0.52301 0.0
C1103 C 0.75066 0.05475 0.51145 0.0
C1104 C 0.77356 0.07597 0.50526 0.0
H1105 H 0.6685 0.91258 0.46242 0.0
H1106 H 0.68325 0.95661 0.47312 0.0
C1107 C 0.78978 0.10159 0.51096 0.0
C1108 C 0.73648 0.0263 0.50629 0.0
H1109 H 0.74851 0.97464 0.49733 0.0
C1110 C 0.7083 0.01355 0.50321 0.0
C1111 C 0.7509 0.01173 0.50446 0.0
C1112 C 0.78072 0.02353 0.50833 0.0
C1113 C 0.69433 0.98681 0.49803 0.0
C1114 C 0.70913 0.97276 0.49571 0.0
C1115 C 0.73716 0.98541 0.49904 0.0
C1116 C 0.69637 0.94495 0.48985 0.0
C1117 C 0.66385 0.97374 0.49527 0.0
C1118 C 0.69875 0.92371 0.49566 0.0
C1119 C 0.69085 0.89889 0.48948 0.0
C1120 C 0.68019 0.89468 0.47739 0.0
C1121 C 0.67643 0.91528 0.47178 0.0
C1122 C 0.68472 0.94036 0.47792 0.0
H1123 H 0.65405 0.9832 0.5009 0.0
H1124 H 0.66106 0.97703 0.48535 0.0
H1125 H 0.65289 0.95112 0.49707 0.0
H1126 H 0.70766 0.92673 0.50485 0.0
H1127 H 0.69379 0.88322 0.49403 0.0
H1128 H 0.73183 0.82541 0.85231 0.0
H1129 H 0.74686 0.79547 0.84275 0.0
H1130 H 0.66857 0.72373 0.85184 0.0
H1131 H 0.65312 0.75377 0.86136 0.0
H1132 H 0.74919 0.74915 0.85444 0.0
H1133 H 0.67972 0.71941 0.81329 0.0
H1134 H 0.68793 0.74959 0.8225 0.0
H1135 H 0.66462 0.71572 0.82842 0.0
C1136 C 0.71768 0.80328 0.8522 0.0
C1137 C 0.69116 0.79197 0.85747 0.0
C1138 C 0.72638 0.7862 0.84681 0.0
C1139 C 0.70874 0.75745 0.8465 0.0
C1140 C 0.68237 0.74592 0.85189 0.0
H1141 H 0.77746 0.65386 0.82082 0.0
H1142 H 0.74864 0.66799 0.83237 0.0
C1143 C 0.67366 0.76306 0.85738 0.0
C1144 C 0.71834 0.73994 0.84044 0.0
H1145 H 0.71203 0.70408 0.81382 0.0
C1146 C 0.7408 0.73887 0.84566 0.0
C1147 C 0.70744 0.72681 0.82894 0.0
C1148 C 0.68368 0.72791 0.82285 0.0
C1149 C 0.75326 0.72573 0.83951 0.0
C1150 C 0.74281 0.71318 0.82786 0.0
C1151 C 0.71981 0.71354 0.8228 0.0
C1152 C 0.75737 0.70231 0.82025 0.0
C1153 C 0.77839 0.7266 0.8452 0.0
C1154 C 0.77098 0.71632 0.80939 0.0
C1155 C 0.78732 0.70828 0.80279 0.0
C1156 C 0.79023 0.68594 0.80687 0.0
C1157 C 0.77549 0.67106 0.81742 0.0
C1158 C 0.75921 0.67923 0.82407 0.0
H1159 H 0.78631 0.74069 0.85332 0.0
H1160 H 0.77294 0.70552 0.84831 0.0
H1161 H 0.79525 0.73346 0.83825 0.0
H1162 H 0.76974 0.73412 0.80626 0.0
H1163 H 0.79814 0.71992 0.7946 0.0
H1164 H 0.89408 0.72157 0.17882 0.0
H1165 H 0.93805 0.73623 0.16849 0.0
H1166 H 0.94133 0.66698 0.18432 0.0
H1167 H 0.89688 0.65195 0.19476 0.0
H1168 H 0.99107 0.71695 0.18632 0.0
H1169 H 0.95219 0.70161 0.13818 0.0
H1170 H 0.9418 0.7221 0.14702 0.0
H1171 H 0.92947 0.68664 0.15134 0.0
C1172 C 0.90385 0.70912 0.17997 0.0
C1173 C 0.89172 0.68531 0.18746 0.0
C1174 C 0.92902 0.71756 0.17404 0.0
C1175 C 0.94263 0.70232 0.17538 0.0
C1176 C 0.93098 0.67885 0.18306 0.0
H1177 H 0.10866 0.75667 0.14358 0.0
H1178 H 0.06301 0.72589 0.15283 0.0
C1179 C 0.90568 0.67036 0.18904 0.0
C1180 C 0.96956 0.71191 0.1691 0.0
H1181 H 0.00111 0.7332 0.14092 0.0
C1182 C 0.99325 0.71993 0.17637 0.0
C1183 C 0.97233 0.7156 0.15609 0.0
C1184 C 0.94753 0.70575 0.14769 0.0
C1185 C 0.0198 0.73328 0.17104 0.0
C1186 C 0.02258 0.73857 0.15816 0.0
C1187 C 0.99885 0.72922 0.15081 0.0
C1188 C 0.0499 0.75639 0.15238 0.0
C1189 C 0.04484 0.7431 0.17927 0.0
C1190 C 0.05731 0.78344 0.14894 0.0
C1191 C 0.08318 0.80095 0.14373 0.0
C1192 C 0.10213 0.79169 0.14176 0.0
C1193 C 0.09444 0.76432 0.14496 0.0
C1194 C 0.06851 0.74681 0.1503 0.0
H1195 H 0.0392 0.73872 0.18922 0.0
H1196 H 0.05655 0.73269 0.17652 0.0
H1197 H 0.0588 0.76572 0.17808 0.0
H1198 H 0.04312 0.79111 0.15043 0.0
H1199 H 0.08831 0.82176 0.14118 0.0
H1200 H 0.30184 0.11633 0.49354 0.0
H1201 H 0.28531 0.07096 0.50283 0.0
H1202 H 0.32488 0.05006 0.47383 0.0
H1203 H 0.34154 0.09569 0.4644 0.0
H1204 H 0.27208 0.01022 0.47699 0.0
H1205 H 0.32288 0.03819 0.52281 0.0
H1206 H 0.30461 0.05639 0.51976 0.0
H1207 H 0.33356 0.06256 0.51015 0.0
C1208 C 0.30768 0.10242 0.48929 0.0
C1209 C 0.32322 0.10976 0.47826 0.0
C1210 C 0.29822 0.07643 0.49464 0.0
C1211 C 0.30428 0.05725 0.48918 0.0
C1212 C 0.32013 0.06461 0.47826 0.0
H1213 H 0.24555 0.89725 0.52699 0.0
H1214 H 0.27633 0.94214 0.51722 0.0
C1215 C 0.32954 0.09064 0.47286 0.0
C1216 C 0.29193 0.02879 0.4943 0.0
H1217 H 0.28183 0.99303 0.52131 0.0
C1218 C 0.27459 0.00643 0.48663 0.0
C1219 C 0.29553 0.0237 0.50683 0.0
C1220 C 0.31541 0.04648 0.51532 0.0
C1221 C 0.25958 0.97939 0.49131 0.0
C1222 C 0.26147 0.97465 0.50407 0.0
C1223 C 0.28003 0.99672 0.51158 0.0
C1224 C 0.24311 0.94737 0.50991 0.0
C1225 C 0.2416 0.95619 0.48254 0.0
C1226 C 0.2143 0.93572 0.50926 0.0
C1227 C 0.19677 0.91022 0.51479 0.0
C1228 C 0.20765 0.89586 0.52123 0.0
C1229 C 0.23655 0.90782 0.52212 0.0
C1230 C 0.25414 0.93339 0.51651 0.0
H1231 H 0.24932 0.96128 0.47286 0.0
H1232 H 0.24067 0.93654 0.48525 0.0
H1233 H 0.2203 0.95294 0.48271 0.0
H1234 H 0.20531 0.94653 0.50457 0.0
H1235 H 0.17463 0.90194 0.5142 0.0
H1236 H 0.35045 0.24874 0.86348 0.0
H1237 H 0.33452 0.27915 0.85479 0.0
H1238 H 0.25976 0.20763 0.842 0.0
H1239 H 0.27524 0.17731 0.85071 0.0
H1240 H 0.31877 0.28115 0.82906 0.0
H1241 H 0.23306 0.25343 0.86228 0.0
H1242 H 0.26133 0.24725 0.86541 0.0
H1243 H 0.23319 0.22401 0.85559 0.0
C1244 C 0.33056 0.23957 0.85887 0.0
C1245 C 0.31415 0.21064 0.85773 0.0
C1246 C 0.32156 0.25692 0.85389 0.0
C1247 C 0.29585 0.24558 0.84788 0.0
C1248 C 0.27952 0.21677 0.84673 0.0
H1249 H 0.21745 0.29341 0.79424 0.0
H1250 H 0.24623 0.27963 0.80579 0.0
C1251 C 0.28853 0.19949 0.85161 0.0
C1252 C 0.28595 0.26353 0.84253 0.0
H1253 H 0.2313 0.27487 0.84335 0.0
C1254 C 0.2999 0.28019 0.83229 0.0
C1255 C 0.26157 0.26253 0.84688 0.0
C1256 C 0.24652 0.24605 0.85822 0.0
C1257 C 0.28919 0.29464 0.82583 0.0
C1258 C 0.26374 0.29205 0.82966 0.0
C1259 C 0.25069 0.27668 0.84035 0.0
C1260 C 0.24908 0.30317 0.82223 0.0
C1261 C 0.30499 0.31219 0.81486 0.0
C1262 C 0.24096 0.3209 0.82763 0.0
C1263 C 0.22423 0.32861 0.82107 0.0
C1264 C 0.21506 0.31846 0.80903 0.0
C1265 C 0.22397 0.30141 0.80352 0.0
C1266 C 0.24071 0.29378 0.81007 0.0
H1267 H 0.32741 0.31927 0.8156 0.0
H1268 H 0.29711 0.29968 0.80627 0.0
H1269 H 0.30237 0.33057 0.81397 0.0
H1270 H 0.24698 0.32818 0.83705 0.0
H1271 H 0.21747 0.3415 0.82563 0.0
H1272 H 0.61384 0.52567 0.19422 0.0
H1273 H 0.56377 0.50239 0.19047 0.0
H1274 H 0.55621 0.55482 0.21769 0.0
H1275 H 0.60597 0.57863 0.2212 0.0
H1276 H 0.52031 0.47378 0.20733 0.0
H1277 H 0.51698 0.56364 0.18754 0.0
H1278 H 0.54874 0.56273 0.18908 0.0
H1279 H 0.53446 0.57118 0.2022 0.0
C1280 C 0.6015 0.53232 0.19934 0.0
C1281 C 0.61391 0.55394 0.20804 0.0
C1282 C 0.57294 0.51898 0.19721 0.0
C1283 C 0.5564 0.52726 0.20363 0.0
C1284 C 0.56867 0.54849 0.21244 0.0
H1285 H 0.38778 0.47643 0.21808 0.0
H1286 H 0.43811 0.5002 0.21566 0.0
C1287 C 0.5971 0.56178 0.21458 0.0
C1288 C 0.52614 0.51325 0.20152 0.0
H1289 H 0.47371 0.52578 0.19451 0.0
C1290 C 0.5101 0.48499 0.20433 0.0
C1291 C 0.51293 0.52797 0.19759 0.0
C1292 C 0.52918 0.558 0.19381 0.0
C1293 C 0.48108 0.47137 0.20392 0.0
C1294 C 0.46787 0.48637 0.20043 0.0
C1295 C 0.48393 0.51439 0.19722 0.0
C1296 C 0.43739 0.47371 0.20085 0.0
C1297 C 0.46476 0.44138 0.20776 0.0
C1298 C 0.42035 0.45157 0.19303 0.0
C1299 C 0.3916 0.43793 0.1944 0.0
C1300 C 0.37943 0.44625 0.20362 0.0
C1301 C 0.39656 0.46936 0.211 0.0
C1302 C 0.42528 0.483 0.2096 0.0
H1303 H 0.47795 0.43434 0.21239 0.0
H1304 H 0.44775 0.43794 0.21417 0.0
H1305 H 0.45536 0.42833 0.19944 0.0
H1306 H 0.42934 0.44436 0.18611 0.0
H1307 H 0.37902 0.42006 0.18865 0.0
H1308 H 0.08903 0.61132 0.55672 0.0
H1309 H 0.06215 0.56075 0.55572 0.0
H1310 H 0.01833 0.56568 0.52379 0.0
H1311 H 0.0451 0.61617 0.52471 0.0
H1312 H 0.00531 0.53098 0.5583 0.0
H1313 H 0.03644 0.50622 0.51335 0.0
H1314 H 0.05634 0.53942 0.52085 0.0
H1315 H 0.02549 0.53144 0.51239 0.0
C1316 C 0.07397 0.60161 0.54937 0.0
C1317 C 0.06921 0.61775 0.54079 0.0
C1318 C 0.05867 0.57274 0.5488 0.0
C1319 C 0.0384 0.55945 0.53962 0.0
C1320 C 0.03427 0.57547 0.53078 0.0
H1321 H 0.91082 0.38532 0.53041 0.0
H1322 H 0.93885 0.43584 0.52824 0.0
C1323 C 0.04963 0.60436 0.53132 0.0
C1324 C 0.0199 0.52902 0.54005 0.0
H1325 H 0.99819 0.46924 0.52367 0.0
C1326 C 0.00385 0.51748 0.55074 0.0
C1327 C 0.01776 0.5115 0.53012 0.0
C1328 C 0.03508 0.52268 0.51856 0.0
C1329 C 0.98578 0.4889 0.5518 0.0
C1330 C 0.98397 0.47133 0.54196 0.0
C1331 C -0.00038 0.48283 0.53117 0.0
C1332 C 0.9671 0.44086 0.54307 0.0
C1333 C 0.9686 0.47773 0.5634 0.0
C1334 C 0.97399 0.42706 0.55198 0.0
C1335 C 0.95819 0.39839 0.55321 0.0
C1336 C 0.93508 0.38284 0.54554 0.0
C1337 C 0.92844 0.39669 0.53647 0.0
C1338 C 0.94438 0.4255 0.53523 0.0
H1339 H 0.96687 0.49409 0.56851 0.0
H1340 H 0.94747 0.46063 0.56118 0.0
H1341 H 0.97856 0.46946 0.56964 0.0
H1342 H 0.99181 0.43848 0.55793 0.0
H1343 H 0.96444 0.38836 0.56004 0.0
H1344 H 0.42183 0.02969 0.89075 0.0
H1345 H 0.44566 0.00348 0.88824 0.0
H1346 H 0.49432 0.05763 0.8585 0.0
H1347 H 0.47144 0.08498 0.86135 0.0
H1348 H 0.44682 0.97489 0.86793 0.0
H1349 H 0.55331 0.05716 0.88037 0.0
H1350 H 0.52329 0.06047 0.88339 0.0
H1351 H 0.53755 0.06599 0.86802 0.0
C1352 C 0.43808 0.03655 0.88387 0.0
C1353 C 0.44499 0.05977 0.87637 0.0
C1354 C 0.45145 0.02127 0.88235 0.0
C1355 C 0.47198 0.02875 0.87329 0.0
C1356 C 0.47889 0.05178 0.86571 0.0
H1357 H 0.57328 0.95322 0.85726 0.0
H1358 H 0.54822 0.97858 0.85494 0.0
C1359 C 0.46559 0.06723 0.86727 0.0
C1360 C 0.48557 0.01191 0.87172 0.0
H1361 H 0.54774 0.01424 0.87395 0.0
C1362 C 0.46891 0.98352 0.8692 0.0
C1363 C 0.5144 0.02322 0.87335 0.0
C1364 C 0.53321 0.05332 0.87654 0.0
C1365 C 0.48024 0.96607 0.86843 0.0
C1366 C 0.50893 0.97728 0.87032 0.0
C1367 C 0.52573 0.00577 0.87248 0.0
C1368 C 0.52177 0.95963 0.87084 0.0
C1369 C 0.46146 0.93577 0.86564 0.0
C1370 C 0.51491 0.94034 0.88045 0.0
C1371 C 0.52916 0.92582 0.8818 0.0
C1372 C 0.55051 0.93035 0.87354 0.0
C1373 C 0.55665 0.94897 0.86366 0.0
C1374 C 0.54251 0.96362 0.86237 0.0
H1375 H 0.44176 0.93185 0.8613 0.0
H1376 H 0.47178 0.92791 0.85937 0.0
H1377 H 0.45636 0.92384 0.87441 0.0
H1378 H 0.49923 0.93725 0.88719 0.0
H1379 H 0.52395 0.91157 0.88948 0.0
H1380 H 0.57611 0.61215 0.44154 0.0
H1381 H 0.5515 0.56218 0.44457 0.0
H1382 H 0.50758 0.57081 0.47555 0.0
H1383 H 0.5313 0.62095 0.47224 0.0
H1384 H 0.55131 0.53245 0.46488 0.0
H1385 H 0.44511 0.51206 0.45468 0.0
H1386 H 0.47561 0.5446 0.45107 0.0
H1387 H 0.4628 0.53706 0.46669 0.0
C1388 C 0.56076 0.60344 0.44883 0.0
C1389 C 0.55535 0.62058 0.45652 0.0
C1390 C 0.54696 0.57486 0.45064 0.0
C1391 C 0.52747 0.56272 0.46018 0.0
C1392 C 0.52218 0.5797 0.46798 0.0
H1393 H 0.42139 0.3891 0.47957 0.0
H1394 H 0.44895 0.43961 0.48055 0.0
C1395 C 0.53593 0.60837 0.46615 0.0
C1396 C 0.51305 0.5323 0.46195 0.0
H1397 H 0.44938 0.47402 0.46125 0.0
C1398 C 0.52901 0.51966 0.46411 0.0
C1399 C 0.48396 0.51568 0.46095 0.0
C1400 C 0.46583 0.52794 0.45811 0.0
C1401 C 0.51667 0.49081 0.46527 0.0
C1402 C 0.48766 0.47422 0.4641 0.0
C1403 C 0.47164 0.48687 0.46217 0.0
C1404 C 0.47342 0.4436 0.46433 0.0
C1405 C 0.53472 0.47833 0.46777 0.0
C1406 C 0.47837 0.4291 0.45498 0.0
C1407 C 0.46254 0.40024 0.45434 0.0
C1408 C 0.44137 0.3854 0.46301 0.0
C1409 C 0.43729 0.39996 0.47266 0.0
C1410 C 0.45307 0.42879 0.47327 0.0
H1411 H 0.55517 0.49384 0.4716 0.0
H1412 H 0.52454 0.46075 0.47437 0.0
H1413 H 0.53832 0.47035 0.45896 0.0
H1414 H 0.49365 0.44019 0.44785 0.0
H1415 H 0.46595 0.38971 0.4467 0.0
H1416 H 0.91637 0.53056 0.80805 0.0
H1417 H 0.94515 0.50908 0.81092 0.0
H1418 H 0.99302 0.55213 0.77868 0.0
H1419 H 0.965 0.57406 0.77592 0.0
H1420 H 0.95429 0.47546 0.79401 0.0
H1421 H 0.05212 0.57121 0.80551 0.0
H1422 H 0.01882 0.56922 0.80605 0.0
H1423 H 0.03623 0.57377 0.79148 0.0
C1424 C 0.9331 0.53548 0.80161 0.0
C1425 C 0.93828 0.55385 0.79171 0.0
C1426 C 0.94947 0.52319 0.80325 0.0
C1427 C 0.97148 0.52939 0.79513 0.0
C1428 C 0.97646 0.54745 0.78518 0.0
H1429 H 0.0882 0.47748 0.77814 0.0
H1430 H 0.06149 0.50113 0.78046 0.0
C1431 C 0.96012 0.55963 0.78351 0.0
C1432 C 0.98887 0.51644 0.79674 0.0
H1433 H 0.05588 0.53163 0.80013 0.0
C1434 C 0.97644 0.48764 0.79553 0.0
C1435 C 0.01776 0.53246 0.7987 0.0
C1436 C 0.03203 0.56336 0.80063 0.0
C1437 C 0.99233 0.47451 0.79567 0.0
C1438 C 0.02133 0.49062 0.79731 0.0
C1439 C 0.03366 0.51935 0.79886 0.0
C1440 C 0.03933 0.47814 0.79676 0.0
C1441 C 0.97808 0.44367 0.79352 0.0
C1442 C 0.0364 0.45808 0.80541 0.0
C1443 C 0.05152 0.44443 0.80407 0.0
C1444 C 0.06996 0.45072 0.79409 0.0
C1445 C 0.0739 0.4719 0.78583 0.0
C1446 C 0.05876 0.48551 0.78717 0.0
H1447 H 0.95684 0.43538 0.78977 0.0
H1448 H 0.99013 0.43841 0.78698 0.0
H1449 H 0.97647 0.43309 0.80245 0.0
H1450 H 0.02186 0.45244 0.813 0.0
H1451 H 0.04778 0.42807 0.81053 0.0
H1452 H 0.38548 0.95589 0.13899 0.0
H1453 H 0.43601 0.98274 0.13954 0.0
H1454 H 0.43994 0.93241 0.11016 0.0
H1455 H 0.38932 0.90535 0.10956 0.0
H1456 H 0.47764 0.96866 0.14293 0.0
H1457 H 0.48165 0.01131 0.09599 0.0
H1458 H 0.44999 0.99316 0.10478 0.0
H1459 H 0.46336 0.97418 0.09667 0.0
C1460 C 0.39707 0.95009 0.13284 0.0
C1461 C 0.38339 0.92856 0.12418 0.0
C1462 C 0.42595 0.96559 0.13311 0.0
C1463 C 0.44165 0.95991 0.12472 0.0
C1464 C 0.42814 0.93751 0.11653 0.0
H1465 H 0.61362 0.03035 0.10662 0.0
H1466 H 0.56338 0.00341 0.10834 0.0
C1467 C 0.39925 0.92204 0.11622 0.0
C1468 C 0.47207 0.97816 0.12418 0.0
H1469 H 0.52455 0.02169 0.10498 0.0
C1470 C 0.48794 0.98038 0.13467 0.0
C1471 C 0.48535 0.9936 0.11341 0.0
C1472 C 0.46924 0.99323 0.1021 0.0
C1473 C 0.5169 0.997 0.13453 0.0
C1474 C 0.53018 0.01202 0.12368 0.0
C1475 C 0.51426 0.01009 0.11327 0.0
C1476 C 0.56066 0.02895 0.12271 0.0
C1477 C 0.53315 0.99777 0.14585 0.0
C1478 C 0.57576 0.05255 0.13011 0.0
C1479 C 0.6046 0.06827 0.12906 0.0
C1480 C 0.61876 0.0607 0.12055 0.0
C1481 C 0.6034 0.03717 0.11309 0.0
C1482 C 0.57468 0.02156 0.11413 0.0
H1483 H 0.52039 0.98086 0.15246 0.0
H1484 H 0.55148 0.9961 0.14317 0.0
H1485 H 0.54066 0.01781 0.1507 0.0
H1486 H 0.56523 0.05886 0.13664 0.0
H1487 H 0.61578 0.08639 0.13487 0.0
H1488 H 0.29174 0.0512 0.14726 0.0
H1489 H 0.29274 0.09091 0.15743 0.0
H1490 H 0.20371 0.05008 0.15549 0.0
H1491 H 0.20252 0.01037 0.14529 0.0
H1492 H 0.27287 0.12456 0.14842 0.0
H1493 H 0.2196 0.07227 0.19199 0.0
H1494 H 0.23364 0.05745 0.18137 0.0
H1495 H 0.20081 0.05495 0.17824 0.0
C1496 C 0.27239 0.05072 0.14898 0.0
C1497 C 0.24703 0.02763 0.14553 0.0
C1498 C 0.273 0.07335 0.15483 0.0
C1499 C 0.24829 0.0732 0.15738 0.0
C1500 C 0.22297 0.05029 0.15387 0.0
H1501 H 0.20074 0.18698 0.18624 0.0
H1502 H 0.20342 0.14835 0.17703 0.0
C1503 C 0.22233 0.02764 0.14805 0.0
C1504 C 0.24898 0.09741 0.16332 0.0
H1505 H 0.22535 0.11696 0.18832 0.0
C1506 C 0.26271 0.12301 0.1572 0.0
C1507 C 0.23572 0.09523 0.17478 0.0
C1508 C 0.22183 0.06857 0.18205 0.0
C1509 C 0.2628 0.14638 0.16205 0.0
C1510 C 0.2491 0.14405 0.17339 0.0
C1511 C 0.23573 0.11856 0.1796 0.0
C1512 C 0.24786 0.16768 0.17885 0.0
C1513 C 0.27683 0.17315 0.15486 0.0
C1514 C 0.27198 0.19119 0.18298 0.0
C1515 C 0.27052 0.21324 0.18831 0.0
C1516 C 0.24487 0.21205 0.18964 0.0
C1517 C 0.22076 0.18839 0.18549 0.0
C1518 C 0.22225 0.16637 0.18018 0.0
H1519 H 0.28121 0.16996 0.14514 0.0
H1520 H 0.26386 0.18309 0.15476 0.0
H1521 H 0.29678 0.18762 0.15939 0.0
H1522 H 0.29188 0.19232 0.18223 0.0
H1523 H 0.2894 0.231 0.1916 0.0
H1524 H 0.99737 0.19961 0.51273 0.0
H1525 H 0.03752 0.19963 0.50374 0.0
H1526 H 0.09141 0.27886 0.52061 0.0
H1527 H 0.05152 0.27837 0.53019 0.0
H1528 H 0.07627 0.23557 0.48764 0.0
H1529 H 0.12596 0.23384 0.53195 0.0
H1530 H 0.0909 0.22733 0.53118 0.0
H1531 H 0.11955 0.26222 0.53074 0.0
C1532 C 0.01778 0.21686 0.5147 0.0
C1533 C 0.02122 0.23885 0.5223 0.0
C1534 C 0.04068 0.21694 0.50946 0.0
C1535 C 0.06745 0.23899 0.5117 0.0
C1536 C 0.07096 0.26133 0.519 0.0
H1537 H 0.22763 0.28052 0.48174 0.0
H1538 H 0.18791 0.2813 0.49101 0.0
C1539 C 0.04808 0.26119 0.52432 0.0
C1540 C 0.09162 0.23868 0.50625 0.0
H1541 H 0.15224 0.2409 0.51358 0.0
C1542 C 0.09281 0.23662 0.49332 0.0
C1543 C 0.11312 0.23994 0.51369 0.0
C1544 C 0.11227 0.24068 0.52766 0.0
C1545 C 0.11514 0.23612 0.48762 0.0
C1546 C 0.13668 0.23772 0.49506 0.0
C1547 C 0.1356 0.2398 0.50796 0.0
C1548 C 0.1605 0.23711 0.48955 0.0
C1549 C 0.11581 0.23409 0.4737 0.0
C1550 C 0.15805 0.21193 0.48581 0.0
C1551 C 0.18064 0.21138 0.48056 0.0
C1552 C 0.20593 0.23606 0.47893 0.0
C1553 C 0.20828 0.26124 0.48277 0.0
C1554 C 0.18574 0.26173 0.4881 0.0
H1555 H 0.09868 0.23549 0.46916 0.0
H1556 H 0.13584 0.25084 0.47005 0.0
H1557 H 0.11414 0.21405 0.47113 0.0
H1558 H 0.13863 0.19275 0.48692 0.0
H1559 H 0.17822 0.19174 0.47759 0.0
H1560 H 0.94396 0.21444 0.80258 0.0
H1561 H 0.90545 0.17491 0.81287 0.0
H1562 H 0.96306 0.16247 0.83468 0.0
H1563 H 0.0018 0.20238 0.82463 0.0
H1564 H 0.91875 0.11336 0.82273 0.0
H1565 H 0.8814 0.17318 0.84973 0.0
H1566 H 0.88659 0.18093 0.83344 0.0
H1567 H 0.91575 0.18889 0.84317 0.0
C1568 C 0.94847 0.20353 0.80968 0.0
C1569 C 0.97596 0.21166 0.81284 0.0
C1570 C 0.92645 0.18093 0.81551 0.0
C1571 C 0.93151 0.16606 0.8246 0.0
C1572 C 0.95883 0.1738 0.82768 0.0
H1573 H 0.8136 0.04434 0.87575 0.0
H1574 H 0.85383 0.08354 0.86617 0.0
C1575 C 0.9809 0.19648 0.82189 0.0
C1576 C 0.9082 0.14218 0.83078 0.0
H1577 H 0.85305 0.12431 0.84987 0.0
C1578 C 0.90441 0.1157 0.8287 0.0
C1579 C 0.88978 0.14547 0.83863 0.0
C1580 C 0.89359 0.17365 0.84149 0.0
C1581 C 0.88223 0.09221 0.83411 0.0
C1582 C 0.86338 0.09544 0.84169 0.0
C1583 C 0.86749 0.12199 0.84397 0.0
C1584 C 0.83923 0.07148 0.84739 0.0
C1585 C 0.8792 0.06417 0.83176 0.0
C1586 C 0.81769 0.05195 0.83996 0.0
C1587 C 0.79455 0.02969 0.8454 0.0
C1588 C 0.79258 0.02663 0.85836 0.0
C1589 C 0.8143 0.0463 0.86576 0.0
C1590 C 0.83736 0.0686 0.86031 0.0
H1591 H 0.89851 0.06585 0.82799 0.0
H1592 H 0.87353 0.05178 0.84042 0.0
H1593 H 0.8624 0.05281 0.82492 0.0
H1594 H 0.81861 0.05416 0.82997 0.0
H1595 H 0.77799 0.01518 0.83945 0.0
H1596 H 0.72348 0.95005 0.14348 0.0
H1597 H 0.72311 0.91091 0.15388 0.0
H1598 H 0.81137 0.95982 0.15938 0.0
H1599 H 0.81177 0.99921 0.14915 0.0
H1600 H 0.74945 0.88324 0.1472 0.0
H1601 H 0.78475 0.92962 0.19383 0.0
H1602 H 0.77348 0.94502 0.18217 0.0
H1603 H 0.80782 0.9498 0.18159 0.0
C1604 C 0.74279 0.95244 0.14693 0.0
C1605 C 0.76765 0.97765 0.14555 0.0
C1606 C 0.74254 0.93013 0.15289 0.0
C1607 C 0.76714 0.9326 0.15756 0.0
C1608 C 0.79204 0.9577 0.15613 0.0
H1609 H 0.80691 0.8131 0.18852 0.0
H1610 H 0.80847 0.85364 0.17883 0.0
C1611 C 0.79227 0.98013 0.15026 0.0
C1612 C 0.76678 0.9085 0.16348 0.0
H1613 H 0.78264 0.88653 0.19017 0.0
C1614 C 0.75659 0.88393 0.15661 0.0
C1615 C 0.77608 0.90947 0.17577 0.0
C1616 C 0.7859 0.9348 0.18382 0.0
C1617 C 0.75572 0.86037 0.16167 0.0
C1618 C 0.76523 0.86147 0.17389 0.0
C1619 C 0.77551 0.88597 0.18077 0.0
C1620 C 0.76425 0.83713 0.17975 0.0
C1621 C 0.74489 0.83449 0.15393 0.0
C1622 C 0.73887 0.81471 0.1835 0.0
C1623 C 0.73791 0.79164 0.18904 0.0
C1624 C 0.76234 0.79065 0.19086 0.0
C1625 C 0.78776 0.81322 0.1871 0.0
C1626 C 0.78871 0.83638 0.18164 0.0
H1627 H 0.74224 0.83829 0.14405 0.0
H1628 H 0.75915 0.82605 0.15447 0.0
H1629 H 0.72451 0.81851 0.1576 0.0
H1630 H 0.71983 0.81509 0.18214 0.0
H1631 H 0.71804 0.77444 0.19177 0.0
H1632 H 0.80084 0.79796 0.48806 0.0
H1633 H 0.83963 0.79608 0.4976 0.0
H1634 H 0.81606 0.71958 0.47846 0.0
H1635 H 0.77767 0.72169 0.46859 0.0
H1636 H 0.83816 0.75372 0.51273 0.0
H1637 H 0.89848 0.76984 0.46945 0.0
H1638 H 0.87043 0.7771 0.47048 0.0
H1639 H 0.86321 0.74205 0.46894 0.0
C1640 C 0.80408 0.78089 0.48578 0.0
C1641 C 0.78632 0.76007 0.4775 0.0
C1642 C 0.82611 0.77975 0.4913 0.0
C1643 C 0.83084 0.75788 0.4886 0.0
C1644 C 0.81294 0.73684 0.48051 0.0
H1645 H 0.93993 0.71459 0.52796 0.0
H1646 H 0.89997 0.71434 0.51848 0.0
C1647 C 0.79089 0.73794 0.47498 0.0
C1648 C 0.85448 0.75711 0.49433 0.0
H1649 H 0.91565 0.75999 0.48766 0.0
C1650 C 0.85511 0.75506 0.50727 0.0
C1651 C 0.87661 0.75913 0.48714 0.0
C1652 C 0.87741 0.76239 0.47324 0.0
C1653 C 0.8773 0.75479 0.51324 0.0
C1654 C 0.8992 0.75638 0.50604 0.0
C1655 C 0.89866 0.7586 0.49311 0.0
C1656 C 0.92323 0.75646 0.51179 0.0
C1657 C 0.87745 0.75334 0.5272 0.0
C1658 C 0.94951 0.7801 0.51098 0.0
C1659 C 0.97234 0.78039 0.51643 0.0
C1660 C 0.96928 0.75692 0.52271 0.0
C1661 C 0.94289 0.73315 0.52338 0.0
C1662 C 0.92007 0.73293 0.51795 0.0
H1663 H 0.86196 0.7578 0.53145 0.0
H1664 H 0.87245 0.73223 0.53006 0.0
H1665 H 0.89824 0.76821 0.53093 0.0
H1666 H 0.95229 0.79845 0.50625 0.0
H1667 H 0.99229 0.79914 0.51589 0.0
H1668 H 0.22888 0.98318 0.83784 0.0
H1669 H 0.18947 0.94407 0.8277 0.0
H1670 H 0.14632 0.9197 0.86266 0.0
H1671 H 0.1853 0.95913 0.87281 0.0
H1672 H 0.1664 0.88712 0.83363 0.0
H1673 H 0.08991 0.9225 0.83888 0.0
H1674 H 0.12668 0.94549 0.84068 0.0
H1675 H 0.10692 0.92223 0.85297 0.0
C1676 C 0.21083 0.96971 0.84333 0.0
C1677 C 0.21012 0.97427 0.85611 0.0
C1678 C 0.18845 0.94731 0.83755 0.0
C1679 C 0.16492 0.92927 0.84442 0.0
C1680 C 0.16415 0.93368 0.85717 0.0
H1681 H 0.01041 0.78051 0.82826 0.0
H1682 H 0.04973 0.82061 0.83787 0.0
C1683 C 0.18654 0.95603 0.86297 0.0
C1684 C 0.14148 0.90533 0.83831 0.0
H1685 H 0.0728 0.87664 0.83162 0.0
C1686 C 0.14595 0.88485 0.83311 0.0
C1687 C 0.11489 0.90251 0.83771 0.0
C1688 C 0.10925 0.92444 0.84276 0.0
C1689 C 0.12431 0.86123 0.82753 0.0
C1690 C 0.09769 0.85838 0.82695 0.0
C1691 C 0.09326 0.87893 0.83211 0.0
C1692 C 0.07408 0.83416 0.82107 0.0
C1693 C 0.12996 0.83924 0.82257 0.0
C1694 C 0.07469 0.82877 0.80841 0.0
C1695 C 0.05226 0.80593 0.80289 0.0
C1696 C 0.02875 0.78824 0.80992 0.0
C1697 C 0.02812 0.79391 0.82258 0.0
C1698 C 0.05058 0.81671 0.82809 0.0
H1699 H 0.14927 0.8412 0.82649 0.0
H1700 H 0.11252 0.81821 0.82466 0.0
H1701 H 0.13236 0.84137 0.81235 0.0
H1702 H 0.09241 0.84237 0.80277 0.0
H1703 H 0.05315 0.80238 0.79307 0.0
H1704 H 0.26678 0.24379 0.38738 0.0
H1705 H 0.25603 0.25632 0.36724 0.0
H1706 H 0.32937 0.26095 0.35166 0.0
H1707 H 0.34019 0.24814 0.3718 0.0
H1708 H 0.2936 0.307 0.35314 0.0
H1709 H 0.26344 0.20893 0.32792 0.0
H1710 H 0.26322 0.21078 0.34464 0.0
H1711 H 0.29538 0.2239 0.33648 0.0
C1712 C 0.28039 0.24702 0.37961 0.0
C1713 C 0.30419 0.2447 0.38112 0.0
C1714 C 0.27432 0.25438 0.36816 0.0
C1715 C 0.29178 0.2593 0.35798 0.0
C1716 C 0.31551 0.25693 0.35941 0.0
H1717 H 0.28916 0.30095 0.2812 0.0
H1718 H 0.29898 0.28839 0.30141 0.0
C1719 C 0.32172 0.24976 0.3709 0.0
C1720 C 0.28549 0.26766 0.34596 0.0
H1721 H 0.26572 0.2458 0.31625 0.0
C1722 C 0.28742 0.29365 0.34506 0.0
C1723 C 0.27752 0.25016 0.33549 0.0
C1724 C 0.27453 0.22177 0.33611 0.0
C1725 C 0.28212 0.30289 0.33384 0.0
C1726 C 0.27396 0.28531 0.32335 0.0
C1727 C 0.27192 0.25923 0.3243 0.0
C1728 C 0.26815 0.29377 0.31119 0.0
C1729 C 0.2861 0.33169 0.33325 0.0
C1730 C 0.2474 0.30084 0.30993 0.0
C1731 C 0.24201 0.30855 0.29837 0.0
C1732 C 0.2571 0.30904 0.28783 0.0
C1733 C 0.27758 0.30151 0.28914 0.0
C1734 C 0.28305 0.29402 0.30068 0.0
H1735 H 0.29951 0.34496 0.34089 0.0
H1736 H 0.29545 0.34182 0.32428 0.0
H1737 H 0.2657 0.33043 0.33413 0.0
H1738 H 0.2352 0.3002 0.31786 0.0
H1739 H 0.22617 0.31428 0.29772 0.0
H1740 H 0.91982 0.26883 0.6295 0.0
H1741 H 0.94566 0.27931 0.64899 0.0
H1742 H 0.97712 0.2257 0.6384 0.0
H1743 H 0.95179 0.21551 0.61879 0.0
H1744 H 0.94475 0.24288 0.66825 0.0
H1745 H 0.04714 0.30235 0.6451 0.0
H1746 H 0.01509 0.2939 0.63744 0.0
H1747 H 0.02488 0.26796 0.63929 0.0
C1748 C 0.93217 0.25921 0.63134 0.0
C1749 C 0.93388 0.24146 0.62258 0.0
C1750 C 0.94682 0.26513 0.64249 0.0
C1751 C 0.96358 0.25359 0.64502 0.0
C1752 C 0.96456 0.23509 0.63652 0.0
H1753 H 0.04215 0.26086 0.71589 0.0
H1754 H 0.01688 0.24547 0.69628 0.0
C1755 C 0.94984 0.22906 0.62539 0.0
C1756 C 0.98059 0.26155 0.65643 0.0
H1757 H 0.04736 0.29634 0.66677 0.0
C1758 C 0.96718 0.25446 0.66795 0.0
C1759 C 0.00982 0.27695 0.65596 0.0
C1760 C 0.0252 0.28599 0.6438 0.0
C1761 C 0.98229 0.26228 0.67906 0.0
C1762 C 0.01153 0.27736 0.67859 0.0
C1763 C 0.02494 0.28457 0.66707 0.0
C1764 C 0.02849 0.28669 0.69 0.0
C1765 C 0.96687 0.25493 0.69122 0.0
C1766 C 0.04415 0.31502 0.69274 0.0
C1767 C 0.05876 0.3239 0.70388 0.0
C1768 C 0.05814 0.30459 0.71245 0.0
C1769 C 0.04327 0.27627 0.70944 0.0
C1770 C 0.02858 0.26741 0.69831 0.0
H1771 H 0.94466 0.24834 0.68997 0.0
H1772 H 0.96817 0.23761 0.69559 0.0
H1773 H 0.97626 0.2728 0.69769 0.0
H1774 H 0.04447 0.33021 0.68638 0.0
H1775 H 0.07027 0.34586 0.70588 0.0
H1776 H 0.74325 0.08573 0.03725 0.0
H1777 H 0.73026 0.05956 0.0178 0.0
H1778 H 0.76389 0.00969 0.03123 0.0
H1779 H 0.77629 0.03519 0.0508 0.0
H1780 H 0.76347 0.05067 0.00028 0.0
H1781 H 0.68335 0.95262 0.02189 0.0
H1782 H 0.69778 0.98561 0.02966 0.0
H1783 H 0.71707 0.96778 0.02884 0.0
C1784 C 0.74788 0.06919 0.03606 0.0
C1785 C 0.76072 0.06249 0.0456 0.0
C1786 C 0.74055 0.05435 0.02494 0.0
C1787 C 0.74572 0.03243 0.02318 0.0
C1788 C 0.75933 0.02626 0.0325 0.0
H1789 H 0.70592 0.91374 0.96309 0.0
H1790 H 0.7222 0.94 0.98247 0.0
C1791 C 0.76671 0.04111 0.04361 0.0
C1792 C 0.73654 0.01579 0.01166 0.0
H1793 H 0.69273 0.95082 0.00064 0.0
C1794 C 0.74799 0.02886 0.00034 0.0
C1795 C 0.71639 0.98731 0.0118 0.0
C1796 C 0.70271 0.97247 0.02367 0.0
C1797 C 0.74 0.01413 0.98913 0.0
C1798 C 0.71962 0.98572 0.98925 0.0
C1799 C 0.70836 0.97259 0.00059 0.0
C1800 C 0.70924 0.96945 0.97766 0.0
C1801 C 0.75375 0.02902 0.97727 0.0
C1802 C 0.69604 0.97696 0.96868 0.0
C1803 C 0.68687 0.96214 0.95761 0.0
C1804 C 0.69046 0.93929 0.95533 0.0
C1805 C 0.70309 0.93138 0.9645 0.0
C1806 C 0.71229 0.94628 0.97559 0.0
H1807 H 0.77386 0.04807 0.97909 0.0
H1808 H 0.75735 0.01542 0.97095 0.0
H1809 H 0.74011 0.03522 0.97246 0.0
H1810 H 0.69301 0.99446 0.97019 0.0
H1811 H 0.6776 0.96908 0.9507 0.0
H1812 H 0.79413 0.70933 0.29448 0.0
H1813 H 0.78338 0.72413 0.31409 0.0
H1814 H 0.69741 0.68501 0.30365 0.0
H1815 H 0.70792 0.67077 0.28399 0.0
H1816 H 0.75672 0.75774 0.31663 0.0
H1817 H 0.69729 0.65452 0.33895 0.0
H1818 H 0.72074 0.66116 0.32618 0.0
H1819 H 0.68695 0.65652 0.32338 0.0
C1820 C 0.77293 0.70385 0.29636 0.0
C1821 C 0.75186 0.68863 0.28768 0.0
C1822 C 0.76683 0.71225 0.30758 0.0
C1823 C 0.73957 0.70536 0.31035 0.0
C1824 C 0.7185 0.69007 0.30178 0.0
H1825 H 0.65326 0.7314 0.37065 0.0
H1826 H 0.66701 0.71952 0.35108 0.0
C1827 C 0.72456 0.6818 0.29056 0.0
C1828 C 0.73309 0.71493 0.32201 0.0
H1829 H 0.69555 0.69172 0.34868 0.0
C1830 C 0.74354 0.74338 0.32371 0.0
C1831 C 0.71575 0.69608 0.33114 0.0
C1832 C 0.70466 0.66536 0.32993 0.0
C1833 C 0.73648 0.75348 0.33419 0.0
C1834 C 0.719 0.7346 0.34332 0.0
C1835 C 0.70883 0.70615 0.34165 0.0
C1836 C 0.71097 0.74375 0.35471 0.0
C1837 C 0.74713 0.78415 0.33522 0.0
C1838 C 0.73113 0.7615 0.36319 0.0
C1839 C 0.72333 0.7684 0.37435 0.0
C1840 C 0.6952 0.75741 0.3773 0.0
C1841 C 0.67508 0.74005 0.36867 0.0
C1842 C 0.6829 0.73328 0.35749 0.0
H1843 H 0.75357 0.79457 0.32606 0.0
H1844 H 0.73119 0.78825 0.33922 0.0
H1845 H 0.76546 0.79357 0.34141 0.0
H1846 H 0.75288 0.7693 0.36138 0.0
H1847 H 0.7393 0.7814 0.3809 0.0
H1848 H 0.08522 0.79341 0.62712 0.0
H1849 H 0.06094 0.78208 0.64707 0.0
H1850 H 0.01505 0.69605 0.63664 0.0
H1851 H 0.0385 0.70712 0.61663 0.0
H1852 H 0.00062 0.75395 0.65041 0.0
H1853 H 0.04844 0.69688 0.67139 0.0
H1854 H 0.06396 0.72056 0.65857 0.0
H1855 H 0.03522 0.68643 0.65594 0.0
C1856 C 0.06996 0.77208 0.62906 0.0
C1857 C 0.06402 0.75117 0.62028 0.0
C1858 C 0.0562 0.76565 0.64048 0.0
C1859 C 0.03648 0.7382 0.64335 0.0
C1860 C 0.03059 0.71729 0.63467 0.0
H1861 H 0.92951 0.65041 0.70506 0.0
H1862 H 0.95406 0.66444 0.68523 0.0
C1863 C 0.04418 0.72368 0.62326 0.0
C1864 C 0.02122 0.73136 0.65524 0.0
H1865 H 0.0099 0.69427 0.68188 0.0
C1866 C 0.00275 0.74108 0.65736 0.0
C1867 C 0.02398 0.71443 0.6642 0.0
C1868 C 0.04412 0.7041 0.66251 0.0
C1869 C 0.98637 0.73371 0.66811 0.0
C1870 C 0.98905 0.71668 0.67707 0.0
C1871 C 0.00778 0.70722 0.67498 0.0
C1872 C 0.97274 0.70839 0.68872 0.0
C1873 C 0.96576 0.74353 0.66957 0.0
C1874 C 0.97498 0.72843 0.69724 0.0
C1875 C 0.96087 0.72046 0.70854 0.0
C1876 C 0.94454 0.69228 0.71161 0.0
C1877 C 0.94207 0.67226 0.70299 0.0
C1878 C 0.95604 0.68025 0.69166 0.0
H1879 H 0.96073 0.74949 0.66052 0.0
H1880 H 0.94628 0.7273 0.67387 0.0
H1881 H 0.97472 0.76202 0.67566 0.0
H1882 H 0.98827 0.75024 0.69531 0.0
H1883 H 0.96361 0.73636 0.71508 0.0
H1884 H 0.29617 0.9688 0.04971 0.0
H1885 H 0.30715 0.99385 0.03008 0.0
H1886 H 0.22189 0.94513 0.01875 0.0
H1887 H 0.21069 0.91966 0.03837 0.0
H1888 H 0.30008 0.9736 0.00564 0.0
H1889 H 0.23884 0.02552 0.01455 0.0
H1890 H 0.24754 0.00882 0.02665 0.0
H1891 H 0.21997 0.98847 0.016 0.0
C1892 C 0.27978 0.96308 0.04298 0.0
C1893 C 0.25253 0.94215 0.04561 0.0
C1894 C 0.28608 0.97758 0.0318 0.0
C1895 C 0.26527 0.97163 0.02305 0.0
C1896 C 0.23815 0.95042 0.0255 0.0
H1897 H 0.2654 0.0379 0.95037 0.0
H1898 H 0.25308 0.01318 0.97013 0.0
C1899 C 0.2318 0.93587 0.0367 0.0
C1900 C 0.27216 0.9876 0.01134 0.0
H1901 H 0.25938 0.03211 0.99471 0.0
C1902 C 0.29125 0.98645 0.00325 0.0
C1903 C 0.26058 0.00433 0.00827 0.0
C1904 C 0.24077 0.00714 0.01685 0.0
C1905 C 0.29881 0.0013 0.99208 0.0
C1906 C 0.28736 0.01816 0.98904 0.0
C1907 C 0.26817 0.01922 0.9971 0.0
C1908 C 0.29475 0.03452 0.97743 0.0
C1909 C 0.31854 0.99835 0.98349 0.0
C1910 C 0.32215 0.05529 0.97513 0.0
C1911 C 0.32926 0.06958 0.96386 0.0
C1912 C 0.30904 0.0635 0.95472 0.0
C1913 C 0.28142 0.04337 0.95726 0.0
C1914 C 0.27436 0.02907 0.96851 0.0
H1915 H 0.31993 0.97961 0.98566 0.0
H1916 H 0.31208 0.99721 0.97368 0.0
H1917 H 0.33951 0.01668 0.98453 0.0
H1918 H 0.33809 0.06024 0.98201 0.0
H1919 H 0.35063 0.08523 0.96227 0.0
loop_
_geom_bond_atom_site_label_1
_geom_bond_atom_site_label_2
_geom_bond_distance
_geom_bond_site_symmetry_2
_ccdc_geom_bond_type
Li0 N17 1.990 . S
Li0 O60 1.956 . S
Li0 O61 1.970 . S
Li0 O62 1.961 . S
Li1 N25 1.990 . S
Li1 O60 1.970 . S
Li1 O61 1.956 . S
Li1 O63 1.961 . S
Li2 N47 1.990 . S
Li2 O60 1.961 . S
Li2 O62 1.956 . S
Li2 O63 1.970 . S
Li3 N53 1.990 . S
Li3 O61 1.961 . S
Li3 O62 1.970 . S
Li3 O63 1.956 . S
C4 C6 1.348 . S
C4 C7 1.356 . S
C4 O60 1.325 . S
N5 C8 1.314 . S
N5 C9 1.279 . S
C6 C4 1.348 . S
C6 C8 1.353 . S
C6 H64 0.929 . S
C7 C4 1.356 . S
C7 C9 1.358 . S
C7 H65 0.930 . S
C8 N5 1.314 . S
C8 C6 1.353 . S
C8 H66 0.930 . S
C9 N5 1.279 . S
C9 C7 1.358 . S
C9 H67 0.930 . S
C10 C13 1.348 . S
C10 C14 1.356 . S
C10 O61 1.325 . S
C11 N12 1.279 . S
C11 C14 1.358 . S
C11 H68 0.930 . S
N12 C11 1.279 . S
N12 C15 1.314 . S
C13 C10 1.348 . S
C13 C15 1.353 . S
C13 H69 0.929 . S
C14 C10 1.356 . S
C14 C11 1.358 . S
C14 H70 0.930 . S
C15 N12 1.314 . S
C15 C13 1.353 . S
C15 H71 0.930 . S
C16 N17 1.314 . S
C16 C21 1.353 . S
C16 H22 0.930 . S
N17 Li0 1.990 . S
N17 C16 1.314 . S
N17 C19 1.279 . S
C18 C19 1.358 . S
C18 C20 1.356 . S
C18 H72 0.930 . S
C19 N17 1.279 . S
C19 C18 1.358 . S
C19 H23 0.930 . S
C20 C18 1.356 . S
C20 C21 1.348 . S
C21 C16 1.353 . S
C21 C20 1.348 . S
C21 H73 0.929 . S
H22 C16 0.930 . S
H23 C19 0.930 . S
C24 N25 1.314 . S
C24 C26 1.353 . S
C24 H30 0.930 . S
N25 Li1 1.990 . S
N25 C24 1.314 . S
N25 C28 1.279 . S
C26 C24 1.353 . S
C26 C29 1.348 . S
C26 H74 0.929 . S
C27 C28 1.358 . S
C27 C29 1.356 . S
C27 H75 0.930 . S
C28 N25 1.279 . S
C28 C27 1.358 . S
C28 H31 0.930 . S
C29 C26 1.348 . S
C29 C27 1.356 . S
H30 C24 0.930 . S
H31 C28 0.930 . S
C32 C34 1.348 . S
C32 C35 1.356 . S
C32 O62 1.325 . S
N33 C36 1.314 . S
N33 C37 1.279 . S
C34 C32 1.348 . S
C34 C36 1.353 . S
C34 H76 0.929 . S
C35 C32 1.356 . S
C35 C37 1.358 . S
C35 H77 0.930 . S
C36 N33 1.314 . S
C36 C34 1.353 . S
C36 H78 0.930 . S
C37 N33 1.279 . S
C37 C35 1.358 . S
C37 H79 0.930 . S
C38 C39 1.348 . S
C38 C40 1.356 . S
C38 O63 1.325 . S
C39 C38 1.348 . S
C39 C41 1.353 . S
C39 H80 0.929 . S
C40 C38 1.356 . S
C40 C42 1.358 . S
C40 H81 0.930 . S
C41 C39 1.353 . S
C41 N43 1.314 . S
C41 H82 0.930 . S
C42 C40 1.358 . S
C42 N43 1.279 . S
C42 H83 0.930 . S
N43 C41 1.314 . S
N43 C42 1.279 . S
C44 C46 1.353 . S
C44 N47 1.314 . S
C44 H50 0.930 . S
C45 N47 1.279 . S
C45 C48 1.358 . S
C45 H51 0.930 . S
C46 C44 1.353 . S
C46 C49 1.348 . S
C46 H84 0.929 . S
N47 Li2 1.990 . S
N47 C44 1.314 . S
N47 C45 1.279 . S
C48 C45 1.358 . S
C48 C49 1.356 . S
C48 H85 0.930 . S
C49 C46 1.348 . S
C49 C48 1.356 . S
H50 C44 0.930 . S
H51 C45 0.930 . S
C52 N53 1.314 . S
C52 C54 1.353 . S
C52 H58 0.930 . S
N53 Li3 1.990 . S
N53 C52 1.314 . S
N53 C56 1.279 . S
C54 C52 1.353 . S
C54 C57 1.348 . S
C54 H86 0.929 . S
C55 C56 1.358 . S
C55 C57 1.356 . S
C55 H87 0.930 . S
C56 N53 1.279 . S
C56 C55 1.358 . S
C56 H59 0.930 . S
C57 C54 1.348 . S
C57 C55 1.356 . S
H58 C52 0.930 . S
H59 C56 0.930 . S
O60 Li0 1.956 . S
O60 Li1 1.970 . S
O60 Li2 1.961 . S
O60 C4 1.325 . S
O61 Li0 1.970 . S
O61 Li1 1.956 . S
O61 Li3 1.961 . S
O61 C10 1.325 . S
O62 Li0 1.961 . S
O62 Li2 1.956 . S
O62 Li3 1.970 . S
O62 C32 1.325 . S
O63 Li1 1.961 . S
O63 Li2 1.970 . S
O63 Li3 1.956 . S
O63 C38 1.325 . S
H64 C6 0.929 . S
H65 C7 0.930 . S
H66 C8 0.930 . S
H67 C9 0.930 . S
H68 C11 0.930 . S
H69 C13 0.929 . S
H70 C14 0.930 . S
H71 C15 0.930 . S
H72 C18 0.930 . S
H73 C21 0.929 . S
H74 C26 0.929 . S
H75 C27 0.930 . S
H76 C34 0.929 . S
H77 C35 0.930 . S
H78 C36 0.930 . S
H79 C37 0.930 . S
H80 C39 0.929 . S
H81 C40 0.930 . S
H82 C41 0.930 . S
H83 C42 0.930 . S
H84 C46 0.929 . S
H85 C48 0.930 . S
H86 C54 0.929 . S
H87 C55 0.930 . S
Li88 N105 1.990 . S
Li88 O148 1.956 . S
Li88 O149 1.970 . S
Li88 O150 1.961 . S
Li89 N113 1.990 . S
Li89 O148 1.970 . S
Li89 O149 1.956 . S
Li89 O151 1.961 . S
Li90 N135 1.990 . S
Li90 O148 1.961 . S
Li90 O150 1.956 . S
Li90 O151 1.970 . S
Li91 N141 1.990 1_655 S
Li91 O149 1.961 . S
Li91 O150 1.970 . S
Li91 O151 1.956 . S
C92 C94 1.348 . S
C92 C95 1.356 . S
C92 O148 1.325 . S
N93 C96 1.314 . S
N93 C97 1.279 . S
C94 C92 1.348 . S
C94 C96 1.353 . S
C94 H152 0.929 . S
C95 C92 1.356 . S
C95 C97 1.358 . S
C95 H153 0.930 . S
C96 N93 1.314 . S
C96 C94 1.353 . S
C96 H154 0.930 . S
C97 N93 1.279 . S
C97 C95 1.358 . S
C97 H155 0.930 . S
C98 C101 1.348 . S
C98 C102 1.356 . S
C98 O149 1.325 . S
C99 N100 1.279 . S
C99 C102 1.358 . S
C99 H156 0.930 . S
N100 C99 1.279 . S
N100 C103 1.314 . S
C101 C98 1.348 . S
C101 C103 1.353 . S
C101 H157 0.929 . S
C102 C98 1.356 . S
C102 C99 1.358 . S
C102 H158 0.930 . S
C103 N100 1.314 . S
C103 C101 1.353 . S
C103 H159 0.930 . S
C104 N105 1.314 . S
C104 C109 1.353 . S
C104 H110 0.930 . S
N105 Li88 1.990 . S
N105 C104 1.314 . S
N105 C107 1.279 . S
C106 C107 1.358 . S
C106 C108 1.356 . S
C106 H160 0.930 . S
C107 N105 1.279 . S
C107 C106 1.358 . S
C107 H111 0.930 . S
C108 C106 1.356 . S
C108 C109 1.348 . S
C109 C104 1.353 . S
C109 C108 1.348 . S
C109 H161 0.929 . S
H110 C104 0.930 . S
H111 C107 0.930 . S
C112 N113 1.314 . S
C112 C114 1.353 . S
C112 H118 0.930 . S
N113 Li89 1.990 . S
N113 C112 1.314 . S
N113 C116 1.279 . S
C114 C112 1.353 . S
C114 C117 1.348 . S
C114 H162 0.929 . S
C115 C116 1.358 . S
C115 C117 1.356 . S
C115 H163 0.930 . S
C116 N113 1.279 . S
C116 C115 1.358 . S
C116 H119 0.930 . S
C117 C114 1.348 . S
C117 C115 1.356 . S
H118 C112 0.930 . S
H119 C116 0.930 . S
C120 C122 1.348 . S
C120 C123 1.356 . S
C120 O150 1.325 . S
N121 C124 1.314 . S
N121 C125 1.279 . S
C122 C120 1.348 . S
C122 C124 1.353 . S
C122 H164 0.929 . S
C123 C120 1.356 . S
C123 C125 1.358 . S
C123 H165 0.930 . S
C124 N121 1.314 . S
C124 C122 1.353 . S
C124 H166 0.930 . S
C125 N121 1.279 . S
C125 C123 1.358 . S
C125 H167 0.930 . S
C126 C127 1.348 . S
C126 C128 1.356 1_655 S
C126 O151 1.325 . S
C127 C126 1.348 . S
C127 C129 1.353 1_655 S
C127 H168 0.929 . S
C128 C126 1.356 1_455 S
C128 C130 1.358 . S
C128 H169 0.930 . S
C129 C127 1.353 1_455 S
C129 N131 1.314 . S
C129 H170 0.930 . S
C130 C128 1.358 . S
C130 N131 1.279 . S
C130 H171 0.930 . S
N131 C129 1.314 . S
N131 C130 1.279 . S
C132 C134 1.353 . S
C132 N135 1.314 . S
C132 H138 0.930 . S
C133 N135 1.279 . S
C133 C136 1.358 . S
C133 H139 0.930 . S
C134 C132 1.353 . S
C134 C137 1.348 . S
C134 H172 0.929 . S
N135 Li90 1.990 . S
N135 C132 1.314 . S
N135 C133 1.279 . S
C136 C133 1.358 . S
C136 C137 1.356 . S
C136 H173 0.930 . S
C137 C134 1.348 . S
C137 C136 1.356 . S
H138 C132 0.930 . S
H139 C133 0.930 . S
C140 N141 1.314 . S
C140 C142 1.353 . S
C140 H146 0.930 1_455 S
N141 Li91 1.990 1_455 S
N141 C140 1.314 . S
N141 C144 1.279 . S
C142 C140 1.353 . S
C142 C145 1.348 . S
C142 H174 0.929 . S
C143 C144 1.358 . S
C143 C145 1.356 . S
C143 H175 0.930 . S
C144 N141 1.279 . S
C144 C143 1.358 . S
C144 H147 0.930 . S
C145 C142 1.348 . S
C145 C143 1.356 . S
H146 C140 0.930 1_655 S
H147 C144 0.930 . S
O148 Li88 1.956 . S
O148 Li89 1.970 . S
O148 Li90 1.961 . S
O148 C92 1.325 . S
O149 Li88 1.970 . S
O149 Li89 1.956 . S
O149 Li91 1.961 . S
O149 C98 1.325 . S
O150 Li88 1.961 . S
O150 Li90 1.956 . S
O150 Li91 1.970 . S
O150 C120 1.325 . S
O151 Li89 1.961 . S
O151 Li90 1.970 . S
O151 Li91 1.956 . S
O151 C126 1.325 . S
H152 C94 0.929 . S
H153 C95 0.930 . S
H154 C96 0.930 . S
H155 C97 0.930 . S
H156 C99 0.930 . S
H157 C101 0.929 . S
H158 C102 0.930 . S
H159 C103 0.930 . S
H160 C106 0.930 . S
H161 C109 0.929 . S
H162 C114 0.929 . S
H163 C115 0.930 . S
H164 C122 0.929 . S
H165 C123 0.930 . S
H166 C124 0.930 . S
H167 C125 0.930 . S
H168 C127 0.929 . S
H169 C128 0.930 . S
H170 C129 0.930 . S
H171 C130 0.930 . S
H172 C134 0.929 . S
H173 C136 0.930 . S
H174 C142 0.929 . S
H175 C143 0.930 . S
Li176 N193 1.990 . S
Li176 O236 1.956 . S
Li176 O237 1.970 . S
Li176 O238 1.961 . S
Li177 N201 1.990 . S
Li177 O236 1.970 . S
Li177 O237 1.956 . S
Li177 O239 1.961 . S
Li178 N223 1.990 1_565 S
Li178 O236 1.961 . S
Li178 O238 1.956 . S
Li178 O239 1.970 . S
Li179 N229 1.990 . S
Li179 O237 1.961 . S
Li179 O238 1.970 . S
Li179 O239 1.956 . S
C180 C182 1.348 . S
C180 C183 1.356 . S
C180 O236 1.325 . S
N181 C184 1.314 . S
N181 C185 1.279 . S
C182 C180 1.348 . S
C182 C184 1.353 . S
C182 H240 0.929 . S
C183 C180 1.356 . S
C183 C185 1.358 . S
C183 H241 0.930 . S
C184 N181 1.314 . S
C184 C182 1.353 . S
C184 H242 0.930 . S
C185 N181 1.279 . S
C185 C183 1.358 . S
C185 H243 0.930 . S
C186 C189 1.348 . S
C186 C190 1.356 . S
C186 O237 1.325 . S
C187 N188 1.279 . S
C187 C190 1.358 . S
C187 H244 0.930 . S
N188 C187 1.279 . S
N188 C191 1.314 . S
C189 C186 1.348 . S
C189 C191 1.353 . S
C189 H245 0.929 . S
C190 C186 1.356 . S
C190 C187 1.358 . S
C190 H246 0.930 . S
C191 N188 1.314 . S
C191 C189 1.353 . S
C191 H247 0.930 . S
C192 N193 1.314 . S
C192 C197 1.353 . S
C192 H198 0.930 . S
N193 Li176 1.990 . S
N193 C192 1.314 . S
N193 C195 1.279 . S
C194 C195 1.358 . S
C194 C196 1.356 . S
C194 H248 0.930 . S
C195 N193 1.279 . S
C195 C194 1.358 . S
C195 H199 0.930 . S
C196 C194 1.356 . S
C196 C197 1.348 . S
C197 C192 1.353 . S
C197 C196 1.348 . S
C197 H249 0.929 . S
H198 C192 0.930 . S
H199 C195 0.930 . S
C200 N201 1.314 . S
C200 C202 1.353 . S
C200 H206 0.930 . S
N201 Li177 1.990 . S
N201 C200 1.314 . S
N201 C204 1.279 . S
C202 C200 1.353 . S
C202 C205 1.348 . S
C202 H250 0.929 . S
C203 C204 1.358 . S
C203 C205 1.356 . S
C203 H251 0.930 . S
C204 N201 1.279 . S
C204 C203 1.358 . S
C204 H207 0.930 . S
C205 C202 1.348 . S
C205 C203 1.356 . S
H206 C200 0.930 . S
H207 C204 0.930 . S
C208 C210 1.348 . S
C208 C211 1.356 1_565 S
C208 O238 1.325 . S
N209 C212 1.314 . S
N209 C213 1.279 . S
C210 C208 1.348 . S
C210 C212 1.353 1_565 S
C210 H252 0.929 . S
C211 C208 1.356 1_545 S
C211 C213 1.358 . S
C211 H253 0.930 . S
C212 N209 1.314 . S
C212 C210 1.353 1_545 S
C212 H254 0.930 . S
C213 N209 1.279 . S
C213 C211 1.358 . S
C213 H255 0.930 . S
C214 C215 1.348 . S
C214 C216 1.356 . S
C214 O239 1.325 . S
C215 C214 1.348 . S
C215 C217 1.353 . S
C215 H256 0.929 . S
C216 C214 1.356 . S
C216 C218 1.358 . S
C216 H257 0.930 . S
C217 C215 1.353 . S
C217 N219 1.314 . S
C217 H258 0.930 . S
C218 C216 1.358 . S
C218 N219 1.279 . S
C218 H259 0.930 . S
N219 C217 1.314 . S
N219 C218 1.279 . S
C220 C222 1.353 . S
C220 N223 1.314 . S
C220 H226 0.930 1_545 S
C221 N223 1.279 . S
C221 C224 1.358 . S
C221 H227 0.930 . S
C222 C220 1.353 . S
C222 C225 1.348 . S
C222 H260 0.929 . S
N223 Li178 1.990 1_545 S
N223 C220 1.314 . S
N223 C221 1.279 . S
C224 C221 1.358 . S
C224 C225 1.356 . S
C224 H261 0.930 . S
C225 C222 1.348 . S
C225 C224 1.356 . S
H226 C220 0.930 1_565 S
H227 C221 0.930 . S
C228 N229 1.314 . S
C228 C230 1.353 . S
C228 H234 0.930 . S
N229 Li179 1.990 . S
N229 C228 1.314 . S
N229 C232 1.279 . S
C230 C228 1.353 . S
C230 C233 1.348 . S
C230 H262 0.929 . S
C231 C232 1.358 . S
C231 C233 1.356 . S
C231 H263 0.930 . S
C232 N229 1.279 . S
C232 C231 1.358 . S
C232 H235 0.930 . S
C233 C230 1.348 . S
C233 C231 1.356 . S
H234 C228 0.930 . S
H235 C232 0.930 . S
O236 Li176 1.956 . S
O236 Li177 1.970 . S
O236 Li178 1.961 . S
O236 C180 1.325 . S
O237 Li176 1.970 . S
O237 Li177 1.956 . S
O237 Li179 1.961 . S
O237 C186 1.325 . S
O238 Li176 1.961 . S
O238 Li178 1.956 . S
O238 Li179 1.970 . S
O238 C208 1.325 . S
O239 Li177 1.961 . S
O239 Li178 1.970 . S
O239 Li179 1.956 . S
O239 C214 1.325 . S
H240 C182 0.929 . S
H241 C183 0.930 . S
H242 C184 0.930 . S
H243 C185 0.930 . S
H244 C187 0.930 . S
H245 C189 0.929 . S
H246 C190 0.930 . S
H247 C191 0.930 . S
H248 C194 0.930 . S
H249 C197 0.929 . S
H250 C202 0.929 . S
H251 C203 0.930 . S
H252 C210 0.929 . S
H253 C211 0.930 . S
H254 C212 0.930 . S
H255 C213 0.930 . S
H256 C215 0.929 . S
H257 C216 0.930 . S
H258 C217 0.930 . S
H259 C218 0.930 . S
H260 C222 0.929 . S
H261 C224 0.930 . S
H262 C230 0.929 . S
H263 C231 0.930 . S
Li264 N281 1.990 . S
Li264 O324 1.956 . S
Li264 O325 1.970 . S
Li264 O326 1.961 . S
Li265 N289 1.990 . S
Li265 O324 1.970 . S
Li265 O325 1.956 . S
Li265 O327 1.961 . S
Li266 N311 1.990 . S
Li266 O324 1.961 . S
Li266 O326 1.956 . S
Li266 O327 1.970 . S
Li267 N317 1.990 . S
Li267 O325 1.961 . S
Li267 O326 1.970 . S
Li267 O327 1.956 . S
C268 C270 1.348 . S
C268 C271 1.356 . S
C268 O324 1.325 . S
N269 C272 1.314 . S
N269 C273 1.279 . S
C270 C268 1.348 . S
C270 C272 1.353 . S
C270 H328 0.929 . S
C271 C268 1.356 . S
C271 C273 1.358 . S
C271 H329 0.930 . S
C272 N269 1.314 . S
C272 C270 1.353 . S
C272 H330 0.930 . S
C273 N269 1.279 . S
C273 C271 1.358 . S
C273 H331 0.930 . S
C274 C277 1.348 . S
C274 C278 1.356 . S
C274 O325 1.325 . S
C275 N276 1.279 . S
C275 C278 1.358 . S
C275 H332 0.930 . S
N276 C275 1.279 . S
N276 C279 1.314 . S
C277 C274 1.348 . S
C277 C279 1.353 . S
C277 H333 0.929 . S
C278 C274 1.356 . S
C278 C275 1.358 . S
C278 H334 0.930 . S
C279 N276 1.314 . S
C279 C277 1.353 . S
C279 H335 0.930 . S
C280 N281 1.314 . S
C280 C285 1.353 . S
C280 H286 0.930 . S
N281 Li264 1.990 . S
N281 C280 1.314 . S
N281 C283 1.279 . S
C282 C283 1.358 . S
C282 C284 1.356 . S
C282 H336 0.930 . S
C283 N281 1.279 . S
C283 C282 1.358 . S
C283 H287 0.930 . S
C284 C282 1.356 . S
C284 C285 1.348 . S
C285 C280 1.353 . S
C285 C284 1.348 . S
C285 H337 0.929 . S
H286 C280 0.930 . S
H287 C283 0.930 . S
C288 N289 1.314 . S
C288 C290 1.353 . S
C288 H294 0.930 . S
N289 Li265 1.990 . S
N289 C288 1.314 . S
N289 C292 1.279 . S
C290 C288 1.353 . S
C290 C293 1.348 . S
C290 H338 0.929 . S
C291 C292 1.358 . S
C291 C293 1.356 . S
C291 H339 0.930 . S
C292 N289 1.279 . S
C292 C291 1.358 . S
C292 H295 0.930 . S
C293 C290 1.348 . S
C293 C291 1.356 . S
H294 C288 0.930 . S
H295 C292 0.930 . S
C296 C298 1.348 . S
C296 C299 1.356 . S
C296 O326 1.325 . S
N297 C300 1.314 . S
N297 C301 1.279 . S
C298 C296 1.348 . S
C298 C300 1.353 . S
C298 H340 0.929 . S
C299 C296 1.356 . S
C299 C301 1.358 . S
C299 H341 0.930 . S
C300 N297 1.314 . S
C300 C298 1.353 . S
C300 H342 0.930 . S
C301 N297 1.279 . S
C301 C299 1.358 . S
C301 H343 0.930 . S
C302 C303 1.348 . S
C302 C304 1.356 . S
C302 O327 1.325 . S
C303 C302 1.348 . S
C303 C305 1.353 . S
C303 H344 0.929 . S
C304 C302 1.356 . S
C304 C306 1.358 . S
C304 H345 0.930 . S
C305 C303 1.353 . S
C305 N307 1.314 . S
C305 H346 0.930 . S
C306 C304 1.358 . S
C306 N307 1.279 . S
C306 H347 0.930 . S
N307 C305 1.314 . S
N307 C306 1.279 . S
C308 C310 1.353 . S
C308 N311 1.314 . S
C308 H314 0.930 . S
C309 N311 1.279 . S
C309 C312 1.358 . S
C309 H315 0.930 . S
C310 C308 1.353 . S
C310 C313 1.348 . S
C310 H348 0.929 . S
N311 Li266 1.990 . S
N311 C308 1.314 . S
N311 C309 1.279 . S
C312 C309 1.358 . S
C312 C313 1.356 . S
C312 H349 0.930 . S
C313 C310 1.348 . S
C313 C312 1.356 . S
H314 C308 0.930 . S
H315 C309 0.930 . S
C316 N317 1.314 . S
C316 C318 1.353 . S
C316 H322 0.930 . S
N317 Li267 1.990 . S
N317 C316 1.314 . S
N317 C320 1.279 . S
C318 C316 1.353 . S
C318 C321 1.348 . S
C318 H350 0.929 . S
C319 C320 1.358 . S
C319 C321 1.356 . S
C319 H351 0.930 . S
C320 N317 1.279 . S
C320 C319 1.358 . S
C320 H323 0.930 . S
C321 C318 1.348 . S
C321 C319 1.356 . S
H322 C316 0.930 . S
H323 C320 0.930 . S
O324 Li264 1.956 . S
O324 Li265 1.970 . S
O324 Li266 1.961 . S
O324 C268 1.325 . S
O325 Li264 1.970 . S
O325 Li265 1.956 . S
O325 Li267 1.961 . S
O325 C274 1.325 . S
O326 Li264 1.961 . S
O326 Li266 1.956 . S
O326 Li267 1.970 . S
O326 C296 1.325 . S
O327 Li265 1.961 . S
O327 Li266 1.970 . S
O327 Li267 1.956 . S
O327 C302 1.325 . S
H328 C270 0.929 . S
H329 C271 0.930 . S
H330 C272 0.930 . S
H331 C273 0.930 . S
H332 C275 0.930 . S
H333 C277 0.929 . S
H334 C278 0.930 . S
H335 C279 0.930 . S
H336 C282 0.930 . S
H337 C285 0.929 . S
H338 C290 0.929 . S
H339 C291 0.930 . S
H340 C298 0.929 . S
H341 C299 0.930 . S
H342 C300 0.930 . S
H343 C301 0.930 . S
H344 C303 0.929 . S
H345 C304 0.930 . S
H346 C305 0.930 . S
H347 C306 0.930 . S
H348 C310 0.929 . S
H349 C312 0.930 . S
H350 C318 0.929 . S
H351 C319 0.930 . S
Li352 N369 1.990 . S
Li352 O412 1.956 . S
Li352 O413 1.970 . S
Li352 O414 1.961 . S
Li353 N377 1.990 . S
Li353 O412 1.970 . S
Li353 O413 1.956 . S
Li353 O415 1.961 . S
Li354 N399 1.990 . S
Li354 O412 1.961 . S
Li354 O414 1.956 . S
Li354 O415 1.970 . S
Li355 N405 1.990 1_455 S
Li355 O413 1.961 . S
Li355 O414 1.970 . S
Li355 O415 1.956 . S
C356 C358 1.348 . S
C356 C359 1.356 . S
C356 O412 1.325 . S
N357 C360 1.314 . S
N357 C361 1.279 . S
C358 C356 1.348 . S
C358 C360 1.353 . S
C358 H416 0.929 . S
C359 C356 1.356 . S
C359 C361 1.358 . S
C359 H417 0.930 . S
C360 N357 1.314 . S
C360 C358 1.353 . S
C360 H418 0.930 . S
C361 N357 1.279 . S
C361 C359 1.358 . S
C361 H419 0.930 . S
C362 C365 1.348 . S
C362 C366 1.356 . S
C362 O413 1.325 . S
C363 N364 1.279 . S
C363 C366 1.358 . S
C363 H420 0.930 . S
N364 C363 1.279 . S
N364 C367 1.314 . S
C365 C362 1.348 . S
C365 C367 1.353 . S
C365 H421 0.929 . S
C366 C362 1.356 . S
C366 C363 1.358 . S
C366 H422 0.930 . S
C367 N364 1.314 . S
C367 C365 1.353 . S
C367 H423 0.930 . S
C368 N369 1.314 . S
C368 C373 1.353 . S
C368 H374 0.930 . S
N369 Li352 1.990 . S
N369 C368 1.314 . S
N369 C371 1.279 . S
C370 C371 1.358 . S
C370 C372 1.356 . S
C370 H424 0.930 . S
C371 N369 1.279 . S
C371 C370 1.358 . S
C371 H375 0.930 . S
C372 C370 1.356 . S
C372 C373 1.348 . S
C373 C368 1.353 . S
C373 C372 1.348 . S
C373 H425 0.929 . S
H374 C368 0.930 . S
H375 C371 0.930 . S
C376 N377 1.314 . S
C376 C378 1.353 . S
C376 H382 0.930 . S
N377 Li353 1.990 . S
N377 C376 1.314 . S
N377 C380 1.279 . S
C378 C376 1.353 . S
C378 C381 1.348 . S
C378 H426 0.929 . S
C379 C380 1.358 . S
C379 C381 1.356 . S
C379 H427 0.930 . S
C380 N377 1.279 . S
C380 C379 1.358 . S
C380 H383 0.930 . S
C381 C378 1.348 . S
C381 C379 1.356 . S
H382 C376 0.930 . S
H383 C380 0.930 . S
C384 C386 1.348 . S
C384 C387 1.356 . S
C384 O414 1.325 . S
N385 C388 1.314 . S
N385 C389 1.279 . S
C386 C384 1.348 . S
C386 C388 1.353 . S
C386 H428 0.929 . S
C387 C384 1.356 . S
C387 C389 1.358 . S
C387 H429 0.930 . S
C388 N385 1.314 . S
C388 C386 1.353 . S
C388 H430 0.930 . S
C389 N385 1.279 . S
C389 C387 1.358 . S
C389 H431 0.930 . S
C390 C391 1.348 . S
C390 C392 1.356 1_455 S
C390 O415 1.325 . S
C391 C390 1.348 . S
C391 C393 1.353 1_455 S
C391 H432 0.929 . S
C392 C390 1.356 1_655 S
C392 C394 1.358 . S
C392 H433 0.930 . S
C393 C391 1.353 1_655 S
C393 N395 1.314 . S
C393 H434 0.930 . S
C394 C392 1.358 . S
C394 N395 1.279 . S
C394 H435 0.930 . S
N395 C393 1.314 . S
N395 C394 1.279 . S
C396 C398 1.353 . S
C396 N399 1.314 . S
C396 H402 0.930 . S
C397 N399 1.279 . S
C397 C400 1.358 . S
C397 H403 0.930 . S
C398 C396 1.353 . S
C398 C401 1.348 . S
C398 H436 0.929 . S
N399 Li354 1.990 . S
N399 C396 1.314 . S
N399 C397 1.279 . S
C400 C397 1.358 . S
C400 C401 1.356 . S
C400 H437 0.930 . S
C401 C398 1.348 . S
C401 C400 1.356 . S
H402 C396 0.930 . S
H403 C397 0.930 . S
C404 N405 1.314 . S
C404 C406 1.353 . S
C404 H410 0.930 1_655 S
N405 Li355 1.990 1_655 S
N405 C404 1.314 . S
N405 C408 1.279 . S
C406 C404 1.353 . S
C406 C409 1.348 . S
C406 H438 0.929 . S
C407 C408 1.358 . S
C407 C409 1.356 . S
C407 H439 0.930 . S
C408 N405 1.279 . S
C408 C407 1.358 . S
C408 H411 0.930 . S
C409 C406 1.348 . S
C409 C407 1.356 . S
H410 C404 0.930 1_455 S
H411 C408 0.930 . S
O412 Li352 1.956 . S
O412 Li353 1.970 . S
O412 Li354 1.961 . S
O412 C356 1.325 . S
O413 Li352 1.970 . S
O413 Li353 1.956 . S
O413 Li355 1.961 . S
O413 C362 1.325 . S
O414 Li352 1.961 . S
O414 Li354 1.956 . S
O414 Li355 1.970 . S
O414 C384 1.325 . S
O415 Li353 1.961 . S
O415 Li354 1.970 . S
O415 Li355 1.956 . S
O415 C390 1.325 . S
H416 C358 0.929 . S
H417 C359 0.930 . S
H418 C360 0.930 . S
H419 C361 0.930 . S
H420 C363 0.930 . S
H421 C365 0.929 . S
H422 C366 0.930 . S
H423 C367 0.930 . S
H424 C370 0.930 . S
H425 C373 0.929 . S
H426 C378 0.929 . S
H427 C379 0.930 . S
H428 C386 0.929 . S
H429 C387 0.930 . S
H430 C388 0.930 . S
H431 C389 0.930 . S
H432 C391 0.929 . S
H433 C392 0.930 . S
H434 C393 0.930 . S
H435 C394 0.930 . S
H436 C398 0.929 . S
H437 C400 0.930 . S
H438 C406 0.929 . S
H439 C407 0.930 . S
Li440 N457 1.990 . S
Li440 O500 1.956 . S
Li440 O501 1.970 . S
Li440 O502 1.961 . S
Li441 N465 1.990 . S
Li441 O500 1.970 . S
Li441 O501 1.956 . S
Li441 O503 1.961 . S
Li442 N487 1.990 1_545 S
Li442 O500 1.961 . S
Li442 O502 1.956 . S
Li442 O503 1.970 . S
Li443 N493 1.990 . S
Li443 O501 1.961 . S
Li443 O502 1.970 . S
Li443 O503 1.956 . S
C444 C446 1.348 . S
C444 C447 1.356 . S
C444 O500 1.325 . S
N445 C448 1.314 . S
N445 C449 1.279 . S
C446 C444 1.348 . S
C446 C448 1.353 . S
C446 H504 0.929 . S
C447 C444 1.356 . S
C447 C449 1.358 . S
C447 H505 0.930 . S
C448 N445 1.314 . S
C448 C446 1.353 . S
C448 H506 0.930 . S
C449 N445 1.279 . S
C449 C447 1.358 . S
C449 H507 0.930 . S
C450 C453 1.348 . S
C450 C454 1.356 . S
C450 O501 1.325 . S
C451 N452 1.279 . S
C451 C454 1.358 . S
C451 H508 0.930 . S
N452 C451 1.279 . S
N452 C455 1.314 . S
C453 C450 1.348 . S
C453 C455 1.353 . S
C453 H509 0.929 . S
C454 C450 1.356 . S
C454 C451 1.358 . S
C454 H510 0.930 . S
C455 N452 1.314 . S
C455 C453 1.353 . S
C455 H511 0.930 . S
C456 N457 1.314 . S
C456 C461 1.353 . S
C456 H462 0.930 . S
N457 Li440 1.990 . S
N457 C456 1.314 . S
N457 C459 1.279 . S
C458 C459 1.358 . S
C458 C460 1.356 . S
C458 H512 0.930 . S
C459 N457 1.279 . S
C459 C458 1.358 . S
C459 H463 0.930 . S
C460 C458 1.356 . S
C460 C461 1.348 . S
C461 C456 1.353 . S
C461 C460 1.348 . S
C461 H513 0.929 . S
H462 C456 0.930 . S
H463 C459 0.930 . S
C464 N465 1.314 . S
C464 C466 1.353 . S
C464 H470 0.930 . S
N465 Li441 1.990 . S
N465 C464 1.314 . S
N465 C468 1.279 . S
C466 C464 1.353 . S
C466 C469 1.348 . S
C466 H514 0.929 . S
C467 C468 1.358 . S
C467 C469 1.356 . S
C467 H515 0.930 . S
C468 N465 1.279 . S
C468 C467 1.358 . S
C468 H471 0.930 . S
C469 C466 1.348 . S
C469 C467 1.356 . S
H470 C464 0.930 . S
H471 C468 0.930 . S
C472 C474 1.348 . S
C472 C475 1.356 1_545 S
C472 O502 1.325 . S
N473 C476 1.314 . S
N473 C477 1.279 . S
C474 C472 1.348 . S
C474 C476 1.353 1_545 S
C474 H516 0.929 . S
C475 C472 1.356 1_565 S
C475 C477 1.358 . S
C475 H517 0.930 . S
C476 N473 1.314 . S
C476 C474 1.353 1_565 S
C476 H518 0.930 . S
C477 N473 1.279 . S
C477 C475 1.358 . S
C477 H519 0.930 . S
C478 C479 1.348 . S
C478 C480 1.356 . S
C478 O503 1.325 . S
C479 C478 1.348 . S
C479 C481 1.353 . S
C479 H520 0.929 . S
C480 C478 1.356 . S
C480 C482 1.358 . S
C480 H521 0.930 . S
C481 C479 1.353 . S
C481 N483 1.314 . S
C481 H522 0.930 . S
C482 C480 1.358 . S
C482 N483 1.279 . S
C482 H523 0.930 . S
N483 C481 1.314 . S
N483 C482 1.279 . S
C484 C486 1.353 . S
C484 N487 1.314 . S
C484 H490 0.930 1_565 S
C485 N487 1.279 . S
C485 C488 1.358 . S
C485 H491 0.930 . S
C486 C484 1.353 . S
C486 C489 1.348 . S
C486 H524 0.929 . S
N487 Li442 1.990 1_565 S
N487 C484 1.314 . S
N487 C485 1.279 . S
C488 C485 1.358 . S
C488 C489 1.356 . S
C488 H525 0.930 . S
C489 C486 1.348 . S
C489 C488 1.356 . S
H490 C484 0.930 1_545 S
H491 C485 0.930 . S
C492 N493 1.314 . S
C492 C494 1.353 . S
C492 H498 0.930 . S
N493 Li443 1.990 . S
N493 C492 1.314 . S
N493 C496 1.279 . S
C494 C492 1.353 . S
C494 C497 1.348 . S
C494 H526 0.929 . S
C495 C496 1.358 . S
C495 C497 1.356 . S
C495 H527 0.930 . S
C496 N493 1.279 . S
C496 C495 1.358 . S
C496 H499 0.930 . S
C497 C494 1.348 . S
C497 C495 1.356 . S
H498 C492 0.930 . S
H499 C496 0.930 . S
O500 Li440 1.956 . S
O500 Li441 1.970 . S
O500 Li442 1.961 . S
O500 C444 1.325 . S
O501 Li440 1.970 . S
O501 Li441 1.956 . S
O501 Li443 1.961 . S
O501 C450 1.325 . S
O502 Li440 1.961 . S
O502 Li442 1.956 . S
O502 Li443 1.970 . S
O502 C472 1.325 . S
O503 Li441 1.961 . S
O503 Li442 1.970 . S
O503 Li443 1.956 . S
O503 C478 1.325 . S
H504 C446 0.929 . S
H505 C447 0.930 . S
H506 C448 0.930 . S
H507 C449 0.930 . S
H508 C451 0.930 . S
H509 C453 0.929 . S
H510 C454 0.930 . S
H511 C455 0.930 . S
H512 C458 0.930 . S
H513 C461 0.929 . S
H514 C466 0.929 . S
H515 C467 0.930 . S
H516 C474 0.929 . S
H517 C475 0.930 . S
H518 C476 0.930 . S
H519 C477 0.930 . S
H520 C479 0.929 . S
H521 C480 0.930 . S
H522 C481 0.930 . S
H523 C482 0.930 . S
H524 C486 0.929 . S
H525 C488 0.930 . S
H526 C494 0.929 . S
H527 C495 0.930 . S
Li528 N545 1.990 . S
Li528 O588 1.956 . S
Li528 O589 1.970 . S
Li528 O590 1.961 . S
Li529 N553 1.990 . S
Li529 O588 1.970 . S
Li529 O589 1.956 . S
Li529 O591 1.961 . S
Li530 N575 1.990 . S
Li530 O588 1.961 . S
Li530 O590 1.956 . S
Li530 O591 1.970 . S
Li531 N581 1.990 . S
Li531 O589 1.961 . S
Li531 O590 1.970 . S
Li531 O591 1.956 . S
C532 C534 1.348 . S
C532 C535 1.356 . S
C532 O588 1.325 . S
N533 C536 1.314 . S
N533 C537 1.279 . S
C534 C532 1.348 . S
C534 C536 1.353 . S
C534 H592 0.929 . S
C535 C532 1.356 . S
C535 C537 1.358 . S
C535 H593 0.930 . S
C536 N533 1.314 . S
C536 C534 1.353 . S
C536 H594 0.930 . S
C537 N533 1.279 . S
C537 C535 1.358 . S
C537 H595 0.930 . S
C538 C541 1.348 . S
C538 C542 1.356 . S
C538 O589 1.325 . S
C539 N540 1.279 . S
C539 C542 1.358 . S
C539 H596 0.930 . S
N540 C539 1.279 . S
N540 C543 1.314 . S
C541 C538 1.348 . S
C541 C543 1.353 . S
C541 H597 0.929 . S
C542 C538 1.356 . S
C542 C539 1.358 . S
C542 H598 0.930 . S
C543 N540 1.314 . S
C543 C541 1.353 . S
C543 H599 0.930 . S
C544 N545 1.314 . S
C544 C549 1.353 . S
C544 H550 0.930 . S
N545 Li528 1.990 . S
N545 C544 1.314 . S
N545 C547 1.279 . S
C546 C547 1.358 . S
C546 C548 1.356 . S
C546 H600 0.930 . S
C547 N545 1.279 . S
C547 C546 1.358 . S
C547 H551 0.930 . S
C548 C546 1.356 . S
C548 C549 1.348 . S
C549 C544 1.353 . S
C549 C548 1.348 . S
C549 H601 0.929 . S
H550 C544 0.930 . S
H551 C547 0.930 . S
C552 N553 1.314 . S
C552 C554 1.353 . S
C552 H558 0.930 . S
N553 Li529 1.990 . S
N553 C552 1.314 . S
N553 C556 1.279 . S
C554 C552 1.353 . S
C554 C557 1.348 . S
C554 H602 0.929 . S
C555 C556 1.358 . S
C555 C557 1.356 . S
C555 H603 0.930 . S
C556 N553 1.279 . S
C556 C555 1.358 . S
C556 H559 0.930 . S
C557 C554 1.348 . S
C557 C555 1.356 . S
H558 C552 0.930 . S
H559 C556 0.930 . S
C560 C562 1.348 . S
C560 C563 1.356 . S
C560 O590 1.325 . S
N561 C564 1.314 . S
N561 C565 1.279 . S
C562 C560 1.348 . S
C562 C564 1.353 . S
C562 H604 0.929 . S
C563 C560 1.356 . S
C563 C565 1.358 . S
C563 H605 0.930 . S
C564 N561 1.314 . S
C564 C562 1.353 . S
C564 H606 0.930 . S
C565 N561 1.279 . S
C565 C563 1.358 . S
C565 H607 0.930 . S
C566 C567 1.348 . S
C566 C568 1.356 . S
C566 O591 1.325 . S
C567 C566 1.348 . S
C567 C569 1.353 . S
C567 H608 0.929 . S
C568 C566 1.356 . S
C568 C570 1.358 . S
C568 H609 0.930 . S
C569 C567 1.353 . S
C569 N571 1.314 . S
C569 H610 0.930 . S
C570 C568 1.358 . S
C570 N571 1.279 . S
C570 H611 0.930 . S
N571 C569 1.314 . S
N571 C570 1.279 . S
C572 C574 1.353 . S
C572 N575 1.314 . S
C572 H578 0.930 . S
C573 N575 1.279 . S
C573 C576 1.358 . S
C573 H579 0.930 . S
C574 C572 1.353 . S
C574 C577 1.348 . S
C574 H612 0.929 . S
N575 Li530 1.990 . S
N575 C572 1.314 . S
N575 C573 1.279 . S
C576 C573 1.358 . S
C576 C577 1.356 . S
C576 H613 0.930 . S
C577 C574 1.348 . S
C577 C576 1.356 . S
H578 C572 0.930 . S
H579 C573 0.930 . S
C580 N581 1.314 . S
C580 C582 1.353 . S
C580 H586 0.930 . S
N581 Li531 1.990 . S
N581 C580 1.314 . S
N581 C584 1.279 . S
C582 C580 1.353 . S
C582 C585 1.348 . S
C582 H614 0.929 . S
C583 C584 1.358 . S
C583 C585 1.356 . S
C583 H615 0.930 . S
C584 N581 1.279 . S
C584 C583 1.358 . S
C584 H587 0.930 . S
C585 C582 1.348 . S
C585 C583 1.356 . S
H586 C580 0.930 . S
H587 C584 0.930 . S
O588 Li528 1.956 . S
O588 Li529 1.970 . S
O588 Li530 1.961 . S
O588 C532 1.325 . S
O589 Li528 1.970 . S
O589 Li529 1.956 . S
O589 Li531 1.961 . S
O589 C538 1.325 . S
O590 Li528 1.961 . S
O590 Li530 1.956 . S
O590 Li531 1.970 . S
O590 C560 1.325 . S
O591 Li529 1.961 . S
O591 Li530 1.970 . S
O591 Li531 1.956 . S
O591 C566 1.325 . S
H592 C534 0.929 . S
H593 C535 0.930 . S
H594 C536 0.930 . S
H595 C537 0.930 . S
H596 C539 0.930 . S
H597 C541 0.929 . S
H598 C542 0.930 . S
H599 C543 0.930 . S
H600 C546 0.930 . S
H601 C549 0.929 . S
H602 C554 0.929 . S
H603 C555 0.930 . S
H604 C562 0.929 . S
H605 C563 0.930 . S
H606 C564 0.930 . S
H607 C565 0.930 . S
H608 C567 0.929 . S
H609 C568 0.930 . S
H610 C569 0.930 . S
H611 C570 0.930 . S
H612 C574 0.929 . S
H613 C576 0.930 . S
H614 C582 0.929 . S
H615 C583 0.930 . S
Li616 N633 1.990 1_655 S
Li616 O676 1.956 . S
Li616 O677 1.970 . S
Li616 O678 1.961 . S
Li617 N641 1.990 . S
Li617 O676 1.970 . S
Li617 O677 1.956 . S
Li617 O679 1.961 . S
Li618 N663 1.990 . S
Li618 O676 1.961 . S
Li618 O678 1.956 . S
Li618 O679 1.970 . S
Li619 N669 1.990 . S
Li619 O677 1.961 . S
Li619 O678 1.970 . S
Li619 O679 1.956 . S
C620 C622 1.348 . S
C620 C623 1.356 1_655 S
C620 O676 1.325 . S
N621 C624 1.314 . S
N621 C625 1.279 . S
C622 C620 1.348 . S
C622 C624 1.353 1_655 S
C622 H680 0.929 . S
C623 C620 1.356 1_455 S
C623 C625 1.358 . S
C623 H681 0.930 . S
C624 N621 1.314 . S
C624 C622 1.353 1_455 S
C624 H682 0.930 . S
C625 N621 1.279 . S
C625 C623 1.358 . S
C625 H683 0.930 . S
C626 C629 1.348 . S
C626 C630 1.356 . S
C626 O677 1.325 . S
C627 N628 1.279 . S
C627 C630 1.358 . S
C627 H684 0.930 . S
N628 C627 1.279 . S
N628 C631 1.314 . S
C629 C626 1.348 . S
C629 C631 1.353 . S
C629 H685 0.929 . S
C630 C626 1.356 . S
C630 C627 1.358 . S
C630 H686 0.930 . S
C631 N628 1.314 . S
C631 C629 1.353 . S
C631 H687 0.930 . S
C632 N633 1.314 . S
C632 C637 1.353 . S
C632 H638 0.930 1_455 S
N633 Li616 1.990 1_455 S
N633 C632 1.314 . S
N633 C635 1.279 . S
C634 C635 1.358 . S
C634 C636 1.356 . S
C634 H688 0.930 . S
C635 N633 1.279 . S
C635 C634 1.358 . S
C635 H639 0.930 . S
C636 C634 1.356 . S
C636 C637 1.348 . S
C637 C632 1.353 . S
C637 C636 1.348 . S
C637 H689 0.929 . S
H638 C632 0.930 1_655 S
H639 C635 0.930 . S
C640 N641 1.314 . S
C640 C642 1.353 . S
C640 H646 0.930 . S
N641 Li617 1.990 . S
N641 C640 1.314 . S
N641 C644 1.279 . S
C642 C640 1.353 . S
C642 C645 1.348 . S
C642 H690 0.929 . S
C643 C644 1.358 . S
C643 C645 1.356 . S
C643 H691 0.930 . S
C644 N641 1.279 . S
C644 C643 1.358 . S
C644 H647 0.930 . S
C645 C642 1.348 . S
C645 C643 1.356 . S
H646 C640 0.930 . S
H647 C644 0.930 . S
C648 C650 1.348 . S
C648 C651 1.356 . S
C648 O678 1.325 . S
N649 C652 1.314 . S
N649 C653 1.279 . S
C650 C648 1.348 . S
C650 C652 1.353 . S
C650 H692 0.929 . S
C651 C648 1.356 . S
C651 C653 1.358 . S
C651 H693 0.930 . S
C652 N649 1.314 . S
C652 C650 1.353 . S
C652 H694 0.930 . S
C653 N649 1.279 . S
C653 C651 1.358 . S
C653 H695 0.930 . S
C654 C655 1.348 . S
C654 C656 1.356 . S
C654 O679 1.325 . S
C655 C654 1.348 . S
C655 C657 1.353 . S
C655 H696 0.929 . S
C656 C654 1.356 . S
C656 C658 1.358 . S
C656 H697 0.930 . S
C657 C655 1.353 . S
C657 N659 1.314 . S
C657 H698 0.930 . S
C658 C656 1.358 . S
C658 N659 1.279 . S
C658 H699 0.930 . S
N659 C657 1.314 . S
N659 C658 1.279 . S
C660 C662 1.353 . S
C660 N663 1.314 . S
C660 H666 0.930 . S
C661 N663 1.279 . S
C661 C664 1.358 . S
C661 H667 0.930 . S
C662 C660 1.353 . S
C662 C665 1.348 . S
C662 H700 0.929 . S
N663 Li618 1.990 . S
N663 C660 1.314 . S
N663 C661 1.279 . S
C664 C661 1.358 . S
C664 C665 1.356 . S
C664 H701 0.930 . S
C665 C662 1.348 . S
C665 C664 1.356 . S
H666 C660 0.930 . S
H667 C661 0.930 . S
C668 N669 1.314 . S
C668 C670 1.353 . S
C668 H674 0.930 . S
N669 Li619 1.990 . S
N669 C668 1.314 . S
N669 C672 1.279 . S
C670 C668 1.353 . S
C670 C673 1.348 . S
C670 H702 0.929 . S
C671 C672 1.358 . S
C671 C673 1.356 . S
C671 H703 0.930 . S
C672 N669 1.279 . S
C672 C671 1.358 . S
C672 H675 0.930 . S
C673 C670 1.348 . S
C673 C671 1.356 . S
H674 C668 0.930 . S
H675 C672 0.930 . S
O676 Li616 1.956 . S
O676 Li617 1.970 . S
O676 Li618 1.961 . S
O676 C620 1.325 . S
O677 Li616 1.970 . S
O677 Li617 1.956 . S
O677 Li619 1.961 . S
O677 C626 1.325 . S
O678 Li616 1.961 . S
O678 Li618 1.956 . S
O678 Li619 1.970 . S
O678 C648 1.325 . S
O679 Li617 1.961 . S
O679 Li618 1.970 . S
O679 Li619 1.956 . S
O679 C654 1.325 . S
H680 C622 0.929 . S
H681 C623 0.930 . S
H682 C624 0.930 . S
H683 C625 0.930 . S
H684 C627 0.930 . S
H685 C629 0.929 . S
H686 C630 0.930 . S
H687 C631 0.930 . S
H688 C634 0.930 . S
H689 C637 0.929 . S
H690 C642 0.929 . S
H691 C643 0.930 . S
H692 C650 0.929 . S
H693 C651 0.930 . S
H694 C652 0.930 . S
H695 C653 0.930 . S
H696 C655 0.929 . S
H697 C656 0.930 . S
H698 C657 0.930 . S
H699 C658 0.930 . S
H700 C662 0.929 . S
H701 C664 0.930 . S
H702 C670 0.929 . S
H703 C671 0.930 . S
Li704 N721 1.990 1_565 S
Li704 O764 1.956 . S
Li704 O765 1.970 . S
Li704 O766 1.961 . S
Li705 N729 1.990 . S
Li705 O764 1.970 . S
Li705 O765 1.956 . S
Li705 O767 1.961 . S
Li706 N751 1.990 . S
Li706 O764 1.961 . S
Li706 O766 1.956 . S
Li706 O767 1.970 . S
Li707 N757 1.990 . S
Li707 O765 1.961 . S
Li707 O766 1.970 . S
Li707 O767 1.956 . S
C708 C710 1.348 . S
C708 C711 1.356 1_565 S
C708 O764 1.325 . S
N709 C712 1.314 . S
N709 C713 1.279 . S
C710 C708 1.348 . S
C710 C712 1.353 1_565 S
C710 H768 0.929 . S
C711 C708 1.356 1_545 S
C711 C713 1.358 . S
C711 H769 0.930 . S
C712 N709 1.314 . S
C712 C710 1.353 1_545 S
C712 H770 0.930 . S
C713 N709 1.279 . S
C713 C711 1.358 . S
C713 H771 0.930 . S
C714 C717 1.348 . S
C714 C718 1.356 . S
C714 O765 1.325 . S
C715 N716 1.279 . S
C715 C718 1.358 . S
C715 H772 0.930 . S
N716 C715 1.279 . S
N716 C719 1.314 . S
C717 C714 1.348 . S
C717 C719 1.353 . S
C717 H773 0.929 . S
C718 C714 1.356 . S
C718 C715 1.358 . S
C718 H774 0.930 . S
C719 N716 1.314 . S
C719 C717 1.353 . S
C719 H775 0.930 . S
C720 N721 1.314 . S
C720 C725 1.353 . S
C720 H726 0.930 1_545 S
N721 Li704 1.990 1_545 S
N721 C720 1.314 . S
N721 C723 1.279 . S
C722 C723 1.358 . S
C722 C724 1.356 . S
C722 H776 0.930 . S
C723 N721 1.279 . S
C723 C722 1.358 . S
C723 H727 0.930 . S
C724 C722 1.356 . S
C724 C725 1.348 . S
C725 C720 1.353 . S
C725 C724 1.348 . S
C725 H777 0.929 . S
H726 C720 0.930 1_565 S
H727 C723 0.930 . S
C728 N729 1.314 . S
C728 C730 1.353 . S
C728 H734 0.930 . S
N729 Li705 1.990 . S
N729 C728 1.314 . S
N729 C732 1.279 . S
C730 C728 1.353 . S
C730 C733 1.348 . S
C730 H778 0.929 . S
C731 C732 1.358 . S
C731 C733 1.356 . S
C731 H779 0.930 . S
C732 N729 1.279 . S
C732 C731 1.358 . S
C732 H735 0.930 . S
C733 C730 1.348 . S
C733 C731 1.356 . S
H734 C728 0.930 . S
H735 C732 0.930 . S
C736 C738 1.348 . S
C736 C739 1.356 . S
C736 O766 1.325 . S
N737 C740 1.314 . S
N737 C741 1.279 . S
C738 C736 1.348 . S
C738 C740 1.353 . S
C738 H780 0.929 . S
C739 C736 1.356 . S
C739 C741 1.358 . S
C739 H781 0.930 . S
C740 N737 1.314 . S
C740 C738 1.353 . S
C740 H782 0.930 . S
C741 N737 1.279 . S
C741 C739 1.358 . S
C741 H783 0.930 . S
C742 C743 1.348 . S
C742 C744 1.356 . S
C742 O767 1.325 . S
C743 C742 1.348 . S
C743 C745 1.353 . S
C743 H784 0.929 . S
C744 C742 1.356 . S
C744 C746 1.358 . S
C744 H785 0.930 . S
C745 C743 1.353 . S
C745 N747 1.314 . S
C745 H786 0.930 . S
C746 C744 1.358 . S
C746 N747 1.279 . S
C746 H787 0.930 . S
N747 C745 1.314 . S
N747 C746 1.279 . S
C748 C750 1.353 . S
C748 N751 1.314 . S
C748 H754 0.930 . S
C749 N751 1.279 . S
C749 C752 1.358 . S
C749 H755 0.930 . S
C750 C748 1.353 . S
C750 C753 1.348 . S
C750 H788 0.929 . S
N751 Li706 1.990 . S
N751 C748 1.314 . S
N751 C749 1.279 . S
C752 C749 1.358 . S
C752 C753 1.356 . S
C752 H789 0.930 . S
C753 C750 1.348 . S
C753 C752 1.356 . S
H754 C748 0.930 . S
H755 C749 0.930 . S
C756 N757 1.314 . S
C756 C758 1.353 . S
C756 H762 0.930 . S
N757 Li707 1.990 . S
N757 C756 1.314 . S
N757 C760 1.279 . S
C758 C756 1.353 . S
C758 C761 1.348 . S
C758 H790 0.929 . S
C759 C760 1.358 . S
C759 C761 1.356 . S
C759 H791 0.930 . S
C760 N757 1.279 . S
C760 C759 1.358 . S
C760 H763 0.930 . S
C761 C758 1.348 . S
C761 C759 1.356 . S
H762 C756 0.930 . S
H763 C760 0.930 . S
O764 Li704 1.956 . S
O764 Li705 1.970 . S
O764 Li706 1.961 . S
O764 C708 1.325 . S
O765 Li704 1.970 . S
O765 Li705 1.956 . S
O765 Li707 1.961 . S
O765 C714 1.325 . S
O766 Li704 1.961 . S
O766 Li706 1.956 . S
O766 Li707 1.970 . S
O766 C736 1.325 . S
O767 Li705 1.961 . S
O767 Li706 1.970 . S
O767 Li707 1.956 . S
O767 C742 1.325 . S
H768 C710 0.929 . S
H769 C711 0.930 . S
H770 C712 0.930 . S
H771 C713 0.930 . S
H772 C715 0.930 . S
H773 C717 0.929 . S
H774 C718 0.930 . S
H775 C719 0.930 . S
H776 C722 0.930 . S
H777 C725 0.929 . S
H778 C730 0.929 . S
H779 C731 0.930 . S
H780 C738 0.929 . S
H781 C739 0.930 . S
H782 C740 0.930 . S
H783 C741 0.930 . S
H784 C743 0.929 . S
H785 C744 0.930 . S
H786 C745 0.930 . S
H787 C746 0.930 . S
H788 C750 0.929 . S
H789 C752 0.930 . S
H790 C758 0.929 . S
H791 C759 0.930 . S
Li792 N809 1.990 . S
Li792 O852 1.956 . S
Li792 O853 1.970 . S
Li792 O854 1.961 . S
Li793 N817 1.990 . S
Li793 O852 1.970 . S
Li793 O853 1.956 . S
Li793 O855 1.961 . S
Li794 N839 1.990 . S
Li794 O852 1.961 . S
Li794 O854 1.956 . S
Li794 O855 1.970 . S
Li795 N845 1.990 . S
Li795 O853 1.961 . S
Li795 O854 1.970 . S
Li795 O855 1.956 . S
C796 C798 1.348 . S
C796 C799 1.356 . S
C796 O852 1.325 . S
N797 C800 1.314 . S
N797 C801 1.279 . S
C798 C796 1.348 . S
C798 C800 1.353 . S
C798 H856 0.929 . S
C799 C796 1.356 . S
C799 C801 1.358 . S
C799 H857 0.930 . S
C800 N797 1.314 . S
C800 C798 1.353 . S
C800 H858 0.930 . S
C801 N797 1.279 . S
C801 C799 1.358 . S
C801 H859 0.930 . S
C802 C805 1.348 . S
C802 C806 1.356 . S
C802 O853 1.325 . S
C803 N804 1.279 . S
C803 C806 1.358 . S
C803 H860 0.930 . S
N804 C803 1.279 . S
N804 C807 1.314 . S
C805 C802 1.348 . S
C805 C807 1.353 . S
C805 H861 0.929 . S
C806 C802 1.356 . S
C806 C803 1.358 . S
C806 H862 0.930 . S
C807 N804 1.314 . S
C807 C805 1.353 . S
C807 H863 0.930 . S
C808 N809 1.314 . S
C808 C813 1.353 . S
C808 H814 0.930 . S
N809 Li792 1.990 . S
N809 C808 1.314 . S
N809 C811 1.279 . S
C810 C811 1.358 . S
C810 C812 1.356 . S
C810 H864 0.930 . S
C811 N809 1.279 . S
C811 C810 1.358 . S
C811 H815 0.930 . S
C812 C810 1.356 . S
C812 C813 1.348 . S
C813 C808 1.353 . S
C813 C812 1.348 . S
C813 H865 0.929 . S
H814 C808 0.930 . S
H815 C811 0.930 . S
C816 N817 1.314 . S
C816 C818 1.353 . S
C816 H822 0.930 . S
N817 Li793 1.990 . S
N817 C816 1.314 . S
N817 C820 1.279 . S
C818 C816 1.353 . S
C818 C821 1.348 . S
C818 H866 0.929 . S
C819 C820 1.358 . S
C819 C821 1.356 . S
C819 H867 0.930 . S
C820 N817 1.279 . S
C820 C819 1.358 . S
C820 H823 0.930 . S
C821 C818 1.348 . S
C821 C819 1.356 . S
H822 C816 0.930 . S
H823 C820 0.930 . S
C824 C826 1.348 . S
C824 C827 1.356 . S
C824 O854 1.325 . S
N825 C828 1.314 . S
N825 C829 1.279 . S
C826 C824 1.348 . S
C826 C828 1.353 . S
C826 H868 0.929 . S
C827 C824 1.356 . S
C827 C829 1.358 . S
C827 H869 0.930 . S
C828 N825 1.314 . S
C828 C826 1.353 . S
C828 H870 0.930 . S
C829 N825 1.279 . S
C829 C827 1.358 . S
C829 H871 0.930 . S
C830 C831 1.348 . S
C830 C832 1.356 . S
C830 O855 1.325 . S
C831 C830 1.348 . S
C831 C833 1.353 . S
C831 H872 0.929 . S
C832 C830 1.356 . S
C832 C834 1.358 . S
C832 H873 0.930 . S
C833 C831 1.353 . S
C833 N835 1.314 . S
C833 H874 0.930 . S
C834 C832 1.358 . S
C834 N835 1.279 . S
C834 H875 0.930 . S
N835 C833 1.314 . S
N835 C834 1.279 . S
C836 C838 1.353 . S
C836 N839 1.314 . S
C836 H842 0.930 . S
C837 N839 1.279 . S
C837 C840 1.358 . S
C837 H843 0.930 . S
C838 C836 1.353 . S
C838 C841 1.348 . S
C838 H876 0.929 . S
N839 Li794 1.990 . S
N839 C836 1.314 . S
N839 C837 1.279 . S
C840 C837 1.358 . S
C840 C841 1.356 . S
C840 H877 0.930 . S
C841 C838 1.348 . S
C841 C840 1.356 . S
H842 C836 0.930 . S
H843 C837 0.930 . S
C844 N845 1.314 . S
C844 C846 1.353 . S
C844 H850 0.930 . S
N845 Li795 1.990 . S
N845 C844 1.314 . S
N845 C848 1.279 . S
C846 C844 1.353 . S
C846 C849 1.348 . S
C846 H878 0.929 . S
C847 C848 1.358 . S
C847 C849 1.356 . S
C847 H879 0.930 . S
C848 N845 1.279 . S
C848 C847 1.358 . S
C848 H851 0.930 . S
C849 C846 1.348 . S
C849 C847 1.356 . S
H850 C844 0.930 . S
H851 C848 0.930 . S
O852 Li792 1.956 . S
O852 Li793 1.970 . S
O852 Li794 1.961 . S
O852 C796 1.325 . S
O853 Li792 1.970 . S
O853 Li793 1.956 . S
O853 Li795 1.961 . S
O853 C802 1.325 . S
O854 Li792 1.961 . S
O854 Li794 1.956 . S
O854 Li795 1.970 . S
O854 C824 1.325 . S
O855 Li793 1.961 . S
O855 Li794 1.970 . S
O855 Li795 1.956 . S
O855 C830 1.325 . S
H856 C798 0.929 . S
H857 C799 0.930 . S
H858 C800 0.930 . S
H859 C801 0.930 . S
H860 C803 0.930 . S
H861 C805 0.929 . S
H862 C806 0.930 . S
H863 C807 0.930 . S
H864 C810 0.930 . S
H865 C813 0.929 . S
H866 C818 0.929 . S
H867 C819 0.930 . S
H868 C826 0.929 . S
H869 C827 0.930 . S
H870 C828 0.930 . S
H871 C829 0.930 . S
H872 C831 0.929 . S
H873 C832 0.930 . S
H874 C833 0.930 . S
H875 C834 0.930 . S
H876 C838 0.929 . S
H877 C840 0.930 . S
H878 C846 0.929 . S
H879 C847 0.930 . S
Li880 N897 1.990 1_455 S
Li880 O940 1.956 . S
Li880 O941 1.970 . S
Li880 O942 1.961 . S
Li881 N905 1.990 . S
Li881 O940 1.970 . S
Li881 O941 1.956 . S
Li881 O943 1.961 . S
Li882 N927 1.990 . S
Li882 O940 1.961 . S
Li882 O942 1.956 . S
Li882 O943 1.970 . S
Li883 N933 1.990 . S
Li883 O941 1.961 . S
Li883 O942 1.970 . S
Li883 O943 1.956 . S
C884 C886 1.348 . S
C884 C887 1.356 1_455 S
C884 O940 1.325 . S
N885 C888 1.314 . S
N885 C889 1.279 . S
C886 C884 1.348 . S
C886 C888 1.353 1_455 S
C886 H944 0.929 . S
C887 C884 1.356 1_655 S
C887 C889 1.358 . S
C887 H945 0.930 . S
C888 N885 1.314 . S
C888 C886 1.353 1_655 S
C888 H946 0.930 . S
C889 N885 1.279 . S
C889 C887 1.358 . S
C889 H947 0.930 . S
C890 C893 1.348 . S
C890 C894 1.356 . S
C890 O941 1.325 . S
C891 N892 1.279 . S
C891 C894 1.358 . S
C891 H948 0.930 . S
N892 C891 1.279 . S
N892 C895 1.314 . S
C893 C890 1.348 . S
C893 C895 1.353 . S
C893 H949 0.929 . S
C894 C890 1.356 . S
C894 C891 1.358 . S
C894 H950 0.930 . S
C895 N892 1.314 . S
C895 C893 1.353 . S
C895 H951 0.930 . S
C896 N897 1.314 . S
C896 C901 1.353 . S
C896 H902 0.930 1_655 S
N897 Li880 1.990 1_655 S
N897 C896 1.314 . S
N897 C899 1.279 . S
C898 C899 1.358 . S
C898 C900 1.356 . S
C898 H952 0.930 . S
C899 N897 1.279 . S
C899 C898 1.358 . S
C899 H903 0.930 . S
C900 C898 1.356 . S
C900 C901 1.348 . S
C901 C896 1.353 . S
C901 C900 1.348 . S
C901 H953 0.929 . S
H902 C896 0.930 1_455 S
H903 C899 0.930 . S
C904 N905 1.314 . S
C904 C906 1.353 . S
C904 H910 0.930 . S
N905 Li881 1.990 . S
N905 C904 1.314 . S
N905 C908 1.279 . S
C906 C904 1.353 . S
C906 C909 1.348 . S
C906 H954 0.929 . S
C907 C908 1.358 . S
C907 C909 1.356 . S
C907 H955 0.930 . S
C908 N905 1.279 . S
C908 C907 1.358 . S
C908 H911 0.930 . S
C909 C906 1.348 . S
C909 C907 1.356 . S
H910 C904 0.930 . S
H911 C908 0.930 . S
C912 C914 1.348 . S
C912 C915 1.356 . S
C912 O942 1.325 . S
N913 C916 1.314 . S
N913 C917 1.279 . S
C914 C912 1.348 . S
C914 C916 1.353 . S
C914 H956 0.929 . S
C915 C912 1.356 . S
C915 C917 1.358 . S
C915 H957 0.930 . S
C916 N913 1.314 . S
C916 C914 1.353 . S
C916 H958 0.930 . S
C917 N913 1.279 . S
C917 C915 1.358 . S
C917 H959 0.930 . S
C918 C919 1.348 . S
C918 C920 1.356 . S
C918 O943 1.325 . S
C919 C918 1.348 . S
C919 C921 1.353 . S
C919 H960 0.929 . S
C920 C918 1.356 . S
C920 C922 1.358 . S
C920 H961 0.930 . S
C921 C919 1.353 . S
C921 N923 1.314 . S
C921 H962 0.930 . S
C922 C920 1.358 . S
C922 N923 1.279 . S
C922 H963 0.930 . S
N923 C921 1.314 . S
N923 C922 1.279 . S
C924 C926 1.353 . S
C924 N927 1.314 . S
C924 H930 0.930 . S
C925 N927 1.279 . S
C925 C928 1.358 . S
C925 H931 0.930 . S
C926 C924 1.353 . S
C926 C929 1.348 . S
C926 H964 0.929 . S
N927 Li882 1.990 . S
N927 C924 1.314 . S
N927 C925 1.279 . S
C928 C925 1.358 . S
C928 C929 1.356 . S
C928 H965 0.930 . S
C929 C926 1.348 . S
C929 C928 1.356 . S
H930 C924 0.930 . S
H931 C925 0.930 . S
C932 N933 1.314 . S
C932 C934 1.353 . S
C932 H938 0.930 . S
N933 Li883 1.990 . S
N933 C932 1.314 . S
N933 C936 1.279 . S
C934 C932 1.353 . S
C934 C937 1.348 . S
C934 H966 0.929 . S
C935 C936 1.358 . S
C935 C937 1.356 . S
C935 H967 0.930 . S
C936 N933 1.279 . S
C936 C935 1.358 . S
C936 H939 0.930 . S
C937 C934 1.348 . S
C937 C935 1.356 . S
H938 C932 0.930 . S
H939 C936 0.930 . S
O940 Li880 1.956 . S
O940 Li881 1.970 . S
O940 Li882 1.961 . S
O940 C884 1.325 . S
O941 Li880 1.970 . S
O941 Li881 1.956 . S
O941 Li883 1.961 . S
O941 C890 1.325 . S
O942 Li880 1.961 . S
O942 Li882 1.956 . S
O942 Li883 1.970 . S
O942 C912 1.325 . S
O943 Li881 1.961 . S
O943 Li882 1.970 . S
O943 Li883 1.956 . S
O943 C918 1.325 . S
H944 C886 0.929 . S
H945 C887 0.930 . S
H946 C888 0.930 . S
H947 C889 0.930 . S
H948 C891 0.930 . S
H949 C893 0.929 . S
H950 C894 0.930 . S
H951 C895 0.930 . S
H952 C898 0.930 . S
H953 C901 0.929 . S
H954 C906 0.929 . S
H955 C907 0.930 . S
H956 C914 0.929 . S
H957 C915 0.930 . S
H958 C916 0.930 . S
H959 C917 0.930 . S
H960 C919 0.929 . S
H961 C920 0.930 . S
H962 C921 0.930 . S
H963 C922 0.930 . S
H964 C926 0.929 . S
H965 C928 0.930 . S
H966 C934 0.929 . S
H967 C935 0.930 . S
Li968 N985 1.990 . S
Li968 O1028 1.956 . S
Li968 O1029 1.970 . S
Li968 O1030 1.961 . S
Li969 N993 1.990 1_545 S
Li969 O1028 1.970 . S
Li969 O1029 1.956 . S
Li969 O1031 1.961 . S
Li970 N1015 1.990 . S
Li970 O1028 1.961 . S
Li970 O1030 1.956 . S
Li970 O1031 1.970 . S
Li971 N1021 1.990 . S
Li971 O1029 1.961 . S
Li971 O1030 1.970 . S
Li971 O1031 1.956 . S
C972 C974 1.348 . S
C972 C975 1.356 . S
C972 O1028 1.325 . S
N973 C976 1.314 . S
N973 C977 1.279 . S
C974 C972 1.348 . S
C974 C976 1.353 . S
C974 H1032 0.929 . S
C975 C972 1.356 . S
C975 C977 1.358 . S
C975 H1033 0.930 . S
C976 N973 1.314 . S
C976 C974 1.353 . S
C976 H1034 0.930 . S
C977 N973 1.279 . S
C977 C975 1.358 . S
C977 H1035 0.930 . S
C978 C981 1.348 . S
C978 C982 1.356 1_545 S
C978 O1029 1.325 . S
C979 N980 1.279 . S
C979 C982 1.358 . S
C979 H1036 0.930 . S
N980 C979 1.279 . S
N980 C983 1.314 . S
C981 C978 1.348 . S
C981 C983 1.353 1_545 S
C981 H1037 0.929 . S
C982 C978 1.356 1_565 S
C982 C979 1.358 . S
C982 H1038 0.930 . S
C983 N980 1.314 . S
C983 C981 1.353 1_565 S
C983 H1039 0.930 . S
C984 N985 1.314 . S
C984 C989 1.353 . S
C984 H990 0.930 . S
N985 Li968 1.990 . S
N985 C984 1.314 . S
N985 C987 1.279 . S
C986 C987 1.358 . S
C986 C988 1.356 . S
C986 H1040 0.930 . S
C987 N985 1.279 . S
C987 C986 1.358 . S
C987 H991 0.930 . S
C988 C986 1.356 . S
C988 C989 1.348 . S
C989 C984 1.353 . S
C989 C988 1.348 . S
C989 H1041 0.929 . S
H990 C984 0.930 . S
H991 C987 0.930 . S
C992 N993 1.314 . S
C992 C994 1.353 . S
C992 H998 0.930 1_565 S
N993 Li969 1.990 1_565 S
N993 C992 1.314 . S
N993 C996 1.279 . S
C994 C992 1.353 . S
C994 C997 1.348 . S
C994 H1042 0.929 . S
C995 C996 1.358 . S
C995 C997 1.356 . S
C995 H1043 0.930 . S
C996 N993 1.279 . S
C996 C995 1.358 . S
C996 H999 0.930 . S
C997 C994 1.348 . S
C997 C995 1.356 . S
H998 C992 0.930 1_545 S
H999 C996 0.930 . S
C1000 C1002 1.348 . S
C1000 C1003 1.356 . S
C1000 O1030 1.325 . S
N1001 C1004 1.314 . S
N1001 C1005 1.279 . S
C1002 C1000 1.348 . S
C1002 C1004 1.353 . S
C1002 H1044 0.929 . S
C1003 C1000 1.356 . S
C1003 C1005 1.358 . S
C1003 H1045 0.930 . S
C1004 N1001 1.314 . S
C1004 C1002 1.353 . S
C1004 H1046 0.930 . S
C1005 N1001 1.279 . S
C1005 C1003 1.358 . S
C1005 H1047 0.930 . S
C1006 C1007 1.348 . S
C1006 C1008 1.356 . S
C1006 O1031 1.325 . S
C1007 C1006 1.348 . S
C1007 C1009 1.353 . S
C1007 H1048 0.929 . S
C1008 C1006 1.356 . S
C1008 C1010 1.358 . S
C1008 H1049 0.930 . S
C1009 C1007 1.353 . S
C1009 N1011 1.314 . S
C1009 H1050 0.930 . S
C1010 C1008 1.358 . S
C1010 N1011 1.279 . S
C1010 H1051 0.930 . S
N1011 C1009 1.314 . S
N1011 C1010 1.279 . S
C1012 C1014 1.353 . S
C1012 N1015 1.314 . S
C1012 H1018 0.930 . S
C1013 N1015 1.279 . S
C1013 C1016 1.358 . S
C1013 H1019 0.930 . S
C1014 C1012 1.353 . S
C1014 C1017 1.348 . S
C1014 H1052 0.929 . S
N1015 Li970 1.990 . S
N1015 C1012 1.314 . S
N1015 C1013 1.279 . S
C1016 C1013 1.358 . S
C1016 C1017 1.356 . S
C1016 H1053 0.930 . S
C1017 C1014 1.348 . S
C1017 C1016 1.356 . S
H1018 C1012 0.930 . S
H1019 C1013 0.930 . S
C1020 N1021 1.314 . S
C1020 C1022 1.353 . S
C1020 H1026 0.930 . S
N1021 Li971 1.990 . S
N1021 C1020 1.314 . S
N1021 C1024 1.279 . S
C1022 C1020 1.353 . S
C1022 C1025 1.348 . S
C1022 H1054 0.929 . S
C1023 C1024 1.358 . S
C1023 C1025 1.356 . S
C1023 H1055 0.930 . S
C1024 N1021 1.279 . S
C1024 C1023 1.358 . S
C1024 H1027 0.930 . S
C1025 C1022 1.348 . S
C1025 C1023 1.356 . S
H1026 C1020 0.930 . S
H1027 C1024 0.930 . S
O1028 Li968 1.956 . S
O1028 Li969 1.970 . S
O1028 Li970 1.961 . S
O1028 C972 1.325 . S
O1029 Li968 1.970 . S
O1029 Li969 1.956 . S
O1029 Li971 1.961 . S
O1029 C978 1.325 . S
O1030 Li968 1.961 . S
O1030 Li970 1.956 . S
O1030 Li971 1.970 . S
O1030 C1000 1.325 . S
O1031 Li969 1.961 . S
O1031 Li970 1.970 . S
O1031 Li971 1.956 . S
O1031 C1006 1.325 . S
H1032 C974 0.929 . S
H1033 C975 0.930 . S
H1034 C976 0.930 . S
H1035 C977 0.930 . S
H1036 C979 0.930 . S
H1037 C981 0.929 . S
H1038 C982 0.930 . S
H1039 C983 0.930 . S
H1040 C986 0.930 . S
H1041 C989 0.929 . S
H1042 C994 0.929 . S
H1043 C995 0.930 . S
H1044 C1002 0.929 . S
H1045 C1003 0.930 . S
H1046 C1004 0.930 . S
H1047 C1005 0.930 . S
H1048 C1007 0.929 . S
H1049 C1008 0.930 . S
H1050 C1009 0.930 . S
H1051 C1010 0.930 . S
H1052 C1014 0.929 . S
H1053 C1016 0.930 . S
H1054 C1022 0.929 . S
H1055 C1023 0.930 . S
H1056 C1064 0.929 . S
H1057 C1066 0.930 . S
H1058 C1068 0.930 . S
H1059 C1071 0.929 . S
H1060 C1074 0.930 . S
H1061 C1076 0.960 . S
H1062 C1076 0.960 . S
H1063 C1076 0.960 . S
C1064 H1056 0.929 . S
C1064 C1065 1.377 . S
C1064 C1066 1.384 . S
C1065 C1064 1.377 . S
C1065 C1071 1.390 . S
C1066 H1057 0.930 . S
C1066 C1064 1.384 . S
C1066 C1067 1.372 . S
C1067 C1066 1.372 . S
C1067 C1068 1.400 . S
C1067 C1072 1.490 . S
C1068 H1058 0.930 . S
C1068 C1067 1.400 . S
C1068 C1071 1.386 . S
H1069 C1085 0.930 . S
H1070 C1086 0.931 . S
C1071 H1059 0.929 . S
C1071 C1065 1.390 . S
C1071 C1068 1.386 . S
C1072 C1067 1.490 . S
C1072 C1074 1.395 . S
C1072 C1075 1.403 . S
H1073 C1079 0.930 . S
C1074 H1060 0.930 . S
C1074 C1072 1.395 . S
C1074 C1077 1.403 1_655 S
C1075 C1072 1.403 . S
C1075 C1076 1.524 . S
C1075 C1079 1.400 1_655 S
C1076 H1061 0.960 . S
C1076 H1062 0.960 . S
C1076 H1063 0.960 . S
C1076 C1075 1.524 . S
C1077 C1074 1.403 1_455 S
C1077 C1078 1.392 . S
C1077 C1081 1.495 . S
C1078 C1077 1.392 . S
C1078 C1079 1.385 . S
C1078 C1080 1.478 . S
C1079 H1073 0.930 . S
C1079 C1075 1.400 1_455 S
C1079 C1078 1.385 . S
C1080 C1078 1.478 . S
C1080 C1082 1.381 . S
C1080 C1086 1.383 . S
C1081 C1077 1.495 . S
C1081 H1087 0.959 . S
C1081 H1088 0.961 . S
C1081 H1089 0.960 . S
C1082 C1080 1.381 . S
C1082 C1083 1.394 . S
C1082 H1090 0.930 . S
C1083 C1082 1.394 . S
C1083 C1084 1.383 . S
C1083 H1091 0.929 . S
C1084 C1083 1.383 . S
C1084 C1085 1.377 . S
C1085 H1069 0.930 . S
C1085 C1084 1.377 . S
C1085 C1086 1.379 . S
C1086 H1070 0.931 . S
C1086 C1080 1.383 . S
C1086 C1085 1.379 . S
H1087 C1081 0.959 . S
H1088 C1081 0.961 . S
H1089 C1081 0.960 . S
H1090 C1082 0.930 . S
H1091 C1083 0.929 . S
H1092 C1100 0.929 . S
H1093 C1102 0.930 . S
H1094 C1104 0.930 . S
H1095 C1107 0.929 . S
H1096 C1110 0.930 . S
H1097 C1112 0.960 . S
H1098 C1112 0.960 . S
H1099 C1112 0.960 . S
C1100 H1092 0.929 . S
C1100 C1101 1.377 . S
C1100 C1102 1.384 . S
C1101 C1100 1.377 . S
C1101 C1107 1.390 . S
C1102 H1093 0.930 . S
C1102 C1100 1.384 . S
C1102 C1103 1.372 . S
C1103 C1102 1.372 . S
C1103 C1104 1.400 . S
C1103 C1108 1.490 . S
C1104 H1094 0.930 . S
C1104 C1103 1.400 . S
C1104 C1107 1.386 . S
H1105 C1121 0.930 . S
H1106 C1122 0.931 . S
C1107 H1095 0.929 . S
C1107 C1101 1.390 . S
C1107 C1104 1.386 . S
C1108 C1103 1.490 . S
C1108 C1110 1.395 . S
C1108 C1111 1.403 . S
H1109 C1115 0.930 . S
C1110 H1096 0.930 . S
C1110 C1108 1.395 . S
C1110 C1113 1.403 1_545 S
C1111 C1108 1.403 . S
C1111 C1112 1.524 . S
C1111 C1115 1.400 1_545 S
C1112 H1097 0.960 . S
C1112 H1098 0.960 . S
C1112 H1099 0.960 . S
C1112 C1111 1.524 . S
C1113 C1110 1.403 1_565 S
C1113 C1114 1.392 . S
C1113 C1117 1.495 . S
C1114 C1113 1.392 . S
C1114 C1115 1.385 . S
C1114 C1116 1.478 . S
C1115 H1109 0.930 . S
C1115 C1111 1.400 1_565 S
C1115 C1114 1.385 . S
C1116 C1114 1.478 . S
C1116 C1118 1.381 . S
C1116 C1122 1.383 . S
C1117 C1113 1.495 . S
C1117 H1123 0.959 . S
C1117 H1124 0.961 . S
C1117 H1125 0.960 . S
C1118 C1116 1.381 . S
C1118 C1119 1.394 . S
C1118 H1126 0.930 . S
C1119 C1118 1.394 . S
C1119 C1120 1.383 . S
C1119 H1127 0.929 . S
C1120 C1119 1.383 . S
C1120 C1121 1.377 . S
C1121 H1105 0.930 . S
C1121 C1120 1.377 . S
C1121 C1122 1.379 . S
C1122 H1106 0.931 . S
C1122 C1116 1.383 . S
C1122 C1121 1.379 . S
H1123 C1117 0.959 . S
H1124 C1117 0.961 . S
H1125 C1117 0.960 . S
H1126 C1118 0.930 . S
H1127 C1119 0.929 . S
H1128 C1136 0.929 . S
H1129 C1138 0.930 . S
H1130 C1140 0.930 . S
H1131 C1143 0.929 . S
H1132 C1146 0.930 . S
H1133 C1148 0.960 . S
H1134 C1148 0.960 . S
H1135 C1148 0.960 . S
C1136 H1128 0.929 . S
C1136 C1137 1.377 . S
C1136 C1138 1.384 . S
C1137 C1136 1.377 . S
C1137 C1143 1.390 . S
C1138 H1129 0.930 . S
C1138 C1136 1.384 . S
C1138 C1139 1.372 . S
C1139 C1138 1.372 . S
C1139 C1140 1.400 . S
C1139 C1144 1.490 . S
C1140 H1130 0.930 . S
C1140 C1139 1.400 . S
C1140 C1143 1.386 . S
H1141 C1157 0.930 . S
H1142 C1158 0.931 . S
C1143 H1131 0.929 . S
C1143 C1137 1.390 . S
C1143 C1140 1.386 . S
C1144 C1139 1.490 . S
C1144 C1146 1.395 . S
C1144 C1147 1.403 . S
H1145 C1151 0.930 . S
C1146 H1132 0.930 . S
C1146 C1144 1.395 . S
C1146 C1149 1.403 . S
C1147 C1144 1.403 . S
C1147 C1148 1.524 . S
C1147 C1151 1.400 . S
C1148 H1133 0.960 . S
C1148 H1134 0.960 . S
C1148 H1135 0.960 . S
C1148 C1147 1.524 . S
C1149 C1146 1.403 . S
C1149 C1150 1.392 . S
C1149 C1153 1.495 . S
C1150 C1149 1.392 . S
C1150 C1151 1.385 . S
C1150 C1152 1.478 . S
C1151 H1145 0.930 . S
C1151 C1147 1.400 . S
C1151 C1150 1.385 . S
C1152 C1150 1.478 . S
C1152 C1154 1.381 . S
C1152 C1158 1.383 . S
C1153 C1149 1.495 . S
C1153 H1159 0.959 . S
C1153 H1160 0.961 . S
C1153 H1161 0.960 . S
C1154 C1152 1.381 . S
C1154 C1155 1.394 . S
C1154 H1162 0.930 . S
C1155 C1154 1.394 . S
C1155 C1156 1.383 . S
C1155 H1163 0.929 . S
C1156 C1155 1.383 . S
C1156 C1157 1.377 . S
C1157 H1141 0.930 . S
C1157 C1156 1.377 . S
C1157 C1158 1.379 . S
C1158 H1142 0.931 . S
C1158 C1152 1.383 . S
C1158 C1157 1.379 . S
H1159 C1153 0.959 . S
H1160 C1153 0.961 . S
H1161 C1153 0.960 . S
H1162 C1154 0.930 . S
H1163 C1155 0.929 . S
H1164 C1172 0.929 . S
H1165 C1174 0.930 . S
H1166 C1176 0.930 . S
H1167 C1179 0.929 . S
H1168 C1182 0.930 . S
H1169 C1184 0.960 . S
H1170 C1184 0.960 . S
H1171 C1184 0.960 . S
C1172 H1164 0.929 . S
C1172 C1173 1.377 . S
C1172 C1174 1.384 . S
C1173 C1172 1.377 . S
C1173 C1179 1.390 . S
C1174 H1165 0.930 . S
C1174 C1172 1.384 . S
C1174 C1175 1.372 . S
C1175 C1174 1.372 . S
C1175 C1176 1.400 . S
C1175 C1180 1.490 . S
C1176 H1166 0.930 . S
C1176 C1175 1.400 . S
C1176 C1179 1.386 . S
H1177 C1193 0.930 . S
H1178 C1194 0.931 . S
C1179 H1167 0.929 . S
C1179 C1173 1.390 . S
C1179 C1176 1.386 . S
C1180 C1175 1.490 . S
C1180 C1182 1.395 . S
C1180 C1183 1.403 . S
H1181 C1187 0.930 . S
C1182 H1168 0.930 . S
C1182 C1180 1.395 . S
C1182 C1185 1.403 1_655 S
C1183 C1180 1.403 . S
C1183 C1184 1.524 . S
C1183 C1187 1.400 1_655 S
C1184 H1169 0.960 . S
C1184 H1170 0.960 . S
C1184 H1171 0.960 . S
C1184 C1183 1.524 . S
C1185 C1182 1.403 1_455 S
C1185 C1186 1.392 . S
C1185 C1189 1.495 . S
C1186 C1185 1.392 . S
C1186 C1187 1.385 . S
C1186 C1188 1.478 . S
C1187 H1181 0.930 . S
C1187 C1183 1.400 1_455 S
C1187 C1186 1.385 . S
C1188 C1186 1.478 . S
C1188 C1190 1.381 . S
C1188 C1194 1.383 . S
C1189 C1185 1.495 . S
C1189 H1195 0.959 . S
C1189 H1196 0.961 . S
C1189 H1197 0.960 . S
C1190 C1188 1.381 . S
C1190 C1191 1.394 . S
C1190 H1198 0.930 . S
C1191 C1190 1.394 . S
C1191 C1192 1.383 . S
C1191 H1199 0.929 . S
C1192 C1191 1.383 . S
C1192 C1193 1.377 . S
C1193 H1177 0.930 . S
C1193 C1192 1.377 . S
C1193 C1194 1.379 . S
C1194 H1178 0.931 . S
C1194 C1188 1.383 . S
C1194 C1193 1.379 . S
H1195 C1189 0.959 . S
H1196 C1189 0.961 . S
H1197 C1189 0.960 . S
H1198 C1190 0.930 . S
H1199 C1191 0.929 . S
H1200 C1208 0.929 . S
H1201 C1210 0.930 . S
H1202 C1212 0.930 . S
H1203 C1215 0.929 . S
H1204 C1218 0.930 . S
H1205 C1220 0.960 . S
H1206 C1220 0.960 . S
H1207 C1220 0.960 . S
C1208 H1200 0.929 . S
C1208 C1209 1.377 . S
C1208 C1210 1.384 . S
C1209 C1208 1.377 . S
C1209 C1215 1.390 . S
C1210 H1201 0.930 . S
C1210 C1208 1.384 . S
C1210 C1211 1.372 . S
C1211 C1210 1.372 . S
C1211 C1212 1.400 . S
C1211 C1216 1.490 . S
C1212 H1202 0.930 . S
C1212 C1211 1.400 . S
C1212 C1215 1.386 . S
H1213 C1229 0.930 . S
H1214 C1230 0.931 . S
C1215 H1203 0.929 . S
C1215 C1209 1.390 . S
C1215 C1212 1.386 . S
C1216 C1211 1.490 . S
C1216 C1218 1.395 . S
C1216 C1219 1.403 . S
H1217 C1223 0.930 . S
C1218 H1204 0.930 . S
C1218 C1216 1.395 . S
C1218 C1221 1.403 1_545 S
C1219 C1216 1.403 . S
C1219 C1220 1.524 . S
C1219 C1223 1.400 1_545 S
C1220 H1205 0.960 . S
C1220 H1206 0.960 . S
C1220 H1207 0.960 . S
C1220 C1219 1.524 . S
C1221 C1218 1.403 1_565 S
C1221 C1222 1.392 . S
C1221 C1225 1.495 . S
C1222 C1221 1.392 . S
C1222 C1223 1.385 . S
C1222 C1224 1.478 . S
C1223 H1217 0.930 . S
C1223 C1219 1.400 1_565 S
C1223 C1222 1.385 . S
C1224 C1222 1.478 . S
C1224 C1226 1.381 . S
C1224 C1230 1.383 . S
C1225 C1221 1.495 . S
C1225 H1231 0.959 . S
C1225 H1232 0.961 . S
C1225 H1233 0.960 . S
C1226 C1224 1.381 . S
C1226 C1227 1.394 . S
C1226 H1234 0.930 . S
C1227 C1226 1.394 . S
C1227 C1228 1.383 . S
C1227 H1235 0.929 . S
C1228 C1227 1.383 . S
C1228 C1229 1.377 . S
C1229 H1213 0.930 . S
C1229 C1228 1.377 . S
C1229 C1230 1.379 . S
C1230 H1214 0.931 . S
C1230 C1224 1.383 . S
C1230 C1229 1.379 . S
H1231 C1225 0.959 . S
H1232 C1225 0.961 . S
H1233 C1225 0.960 . S
H1234 C1226 0.930 . S
H1235 C1227 0.929 . S
H1236 C1244 0.929 . S
H1237 C1246 0.930 . S
H1238 C1248 0.930 . S
H1239 C1251 0.929 . S
H1240 C1254 0.930 . S
H1241 C1256 0.960 . S
H1242 C1256 0.960 . S
H1243 C1256 0.960 . S
C1244 H1236 0.929 . S
C1244 C1245 1.377 . S
C1244 C1246 1.384 . S
C1245 C1244 1.377 . S
C1245 C1251 1.390 . S
C1246 H1237 0.930 . S
C1246 C1244 1.384 . S
C1246 C1247 1.372 . S
C1247 C1246 1.372 . S
C1247 C1248 1.400 . S
C1247 C1252 1.490 . S
C1248 H1238 0.930 . S
C1248 C1247 1.400 . S
C1248 C1251 1.386 . S
H1249 C1265 0.930 . S
H1250 C1266 0.931 . S
C1251 H1239 0.929 . S
C1251 C1245 1.390 . S
C1251 C1248 1.386 . S
C1252 C1247 1.490 . S
C1252 C1254 1.395 . S
C1252 C1255 1.403 . S
H1253 C1259 0.930 . S
C1254 H1240 0.930 . S
C1254 C1252 1.395 . S
C1254 C1257 1.403 . S
C1255 C1252 1.403 . S
C1255 C1256 1.524 . S
C1255 C1259 1.400 . S
C1256 H1241 0.960 . S
C1256 H1242 0.960 . S
C1256 H1243 0.960 . S
C1256 C1255 1.524 . S
C1257 C1254 1.403 . S
C1257 C1258 1.392 . S
C1257 C1261 1.495 . S
C1258 C1257 1.392 . S
C1258 C1259 1.385 . S
C1258 C1260 1.478 . S
C1259 H1253 0.930 . S
C1259 C1255 1.400 . S
C1259 C1258 1.385 . S
C1260 C1258 1.478 . S
C1260 C1262 1.381 . S
C1260 C1266 1.383 . S
C1261 C1257 1.495 . S
C1261 H1267 0.959 . S
C1261 H1268 0.961 . S
C1261 H1269 0.960 . S
C1262 C1260 1.381 . S
C1262 C1263 1.394 . S
C1262 H1270 0.930 . S
C1263 C1262 1.394 . S
C1263 C1264 1.383 . S
C1263 H1271 0.929 . S
C1264 C1263 1.383 . S
C1264 C1265 1.377 . S
C1265 H1249 0.930 . S
C1265 C1264 1.377 . S
C1265 C1266 1.379 . S
C1266 H1250 0.931 . S
C1266 C1260 1.383 . S
C1266 C1265 1.379 . S
H1267 C1261 0.959 . S
H1268 C1261 0.961 . S
H1269 C1261 0.960 . S
H1270 C1262 0.930 . S
H1271 C1263 0.929 . S
H1272 C1280 0.929 . S
H1273 C1282 0.930 . S
H1274 C1284 0.930 . S
H1275 C1287 0.929 . S
H1276 C1290 0.930 . S
H1277 C1292 0.960 . S
H1278 C1292 0.960 . S
H1279 C1292 0.960 . S
C1280 H1272 0.929 . S
C1280 C1281 1.377 . S
C1280 C1282 1.384 . S
C1281 C1280 1.377 . S
C1281 C1287 1.390 . S
C1282 H1273 0.930 . S
C1282 C1280 1.384 . S
C1282 C1283 1.372 . S
C1283 C1282 1.372 . S
C1283 C1284 1.400 . S
C1283 C1288 1.490 . S
C1284 H1274 0.930 . S
C1284 C1283 1.400 . S
C1284 C1287 1.386 . S
H1285 C1301 0.930 . S
H1286 C1302 0.931 . S
C1287 H1275 0.929 . S
C1287 C1281 1.390 . S
C1287 C1284 1.386 . S
C1288 C1283 1.490 . S
C1288 C1290 1.395 . S
C1288 C1291 1.403 . S
H1289 C1295 0.930 . S
C1290 H1276 0.930 . S
C1290 C1288 1.395 . S
C1290 C1293 1.403 . S
C1291 C1288 1.403 . S
C1291 C1292 1.524 . S
C1291 C1295 1.400 . S
C1292 H1277 0.960 . S
C1292 H1278 0.960 . S
C1292 H1279 0.960 . S
C1292 C1291 1.524 . S
C1293 C1290 1.403 . S
C1293 C1294 1.392 . S
C1293 C1297 1.495 . S
C1294 C1293 1.392 . S
C1294 C1295 1.385 . S
C1294 C1296 1.478 . S
C1295 H1289 0.930 . S
C1295 C1291 1.400 . S
C1295 C1294 1.385 . S
C1296 C1294 1.478 . S
C1296 C1298 1.381 . S
C1296 C1302 1.383 . S
C1297 C1293 1.495 . S
C1297 H1303 0.959 . S
C1297 H1304 0.961 . S
C1297 H1305 0.960 . S
C1298 C1296 1.381 . S
C1298 C1299 1.394 . S
C1298 H1306 0.930 . S
C1299 C1298 1.394 . S
C1299 C1300 1.383 . S
C1299 H1307 0.929 . S
C1300 C1299 1.383 . S
C1300 C1301 1.377 . S
C1301 H1285 0.930 . S
C1301 C1300 1.377 . S
C1301 C1302 1.379 . S
C1302 H1286 0.931 . S
C1302 C1296 1.383 . S
C1302 C1301 1.379 . S
H1303 C1297 0.959 . S
H1304 C1297 0.961 . S
H1305 C1297 0.960 . S
H1306 C1298 0.930 . S
H1307 C1299 0.929 . S
H1308 C1316 0.929 . S
H1309 C1318 0.930 . S
H1310 C1320 0.930 . S
H1311 C1323 0.929 . S
H1312 C1326 0.930 . S
H1313 C1328 0.960 . S
H1314 C1328 0.960 . S
H1315 C1328 0.960 . S
C1316 H1308 0.929 . S
C1316 C1317 1.377 . S
C1316 C1318 1.384 . S
C1317 C1316 1.377 . S
C1317 C1323 1.390 . S
C1318 H1309 0.930 . S
C1318 C1316 1.384 . S
C1318 C1319 1.372 . S
C1319 C1318 1.372 . S
C1319 C1320 1.400 . S
C1319 C1324 1.490 . S
C1320 H1310 0.930 . S
C1320 C1319 1.400 . S
C1320 C1323 1.386 . S
H1321 C1337 0.930 . S
H1322 C1338 0.931 . S
C1323 H1311 0.929 . S
C1323 C1317 1.390 . S
C1323 C1320 1.386 . S
C1324 C1319 1.490 . S
C1324 C1326 1.395 . S
C1324 C1327 1.403 . S
H1325 C1331 0.930 . S
C1326 H1312 0.930 . S
C1326 C1324 1.395 . S
C1326 C1329 1.403 1_455 S
C1327 C1324 1.403 . S
C1327 C1328 1.524 . S
C1327 C1331 1.400 1_455 S
C1328 H1313 0.960 . S
C1328 H1314 0.960 . S
C1328 H1315 0.960 . S
C1328 C1327 1.524 . S
C1329 C1326 1.403 1_655 S
C1329 C1330 1.392 . S
C1329 C1333 1.495 . S
C1330 C1329 1.392 . S
C1330 C1331 1.385 . S
C1330 C1332 1.478 . S
C1331 H1325 0.930 . S
C1331 C1327 1.400 1_655 S
C1331 C1330 1.385 . S
C1332 C1330 1.478 . S
C1332 C1334 1.381 . S
C1332 C1338 1.383 . S
C1333 C1329 1.495 . S
C1333 H1339 0.959 . S
C1333 H1340 0.961 . S
C1333 H1341 0.960 . S
C1334 C1332 1.381 . S
C1334 C1335 1.394 . S
C1334 H1342 0.930 . S
C1335 C1334 1.394 . S
C1335 C1336 1.383 . S
C1335 H1343 0.929 . S
C1336 C1335 1.383 . S
C1336 C1337 1.377 . S
C1337 H1321 0.930 . S
C1337 C1336 1.377 . S
C1337 C1338 1.379 . S
C1338 H1322 0.931 . S
C1338 C1332 1.383 . S
C1338 C1337 1.379 . S
H1339 C1333 0.959 . S
H1340 C1333 0.961 . S
H1341 C1333 0.960 . S
H1342 C1334 0.930 . S
H1343 C1335 0.929 . S
H1344 C1352 0.929 . S
H1345 C1354 0.930 . S
H1346 C1356 0.930 . S
H1347 C1359 0.929 . S
H1348 C1362 0.930 . S
H1349 C1364 0.960 . S
H1350 C1364 0.960 . S
H1351 C1364 0.960 . S
C1352 H1344 0.929 . S
C1352 C1353 1.377 . S
C1352 C1354 1.384 . S
C1353 C1352 1.377 . S
C1353 C1359 1.390 . S
C1354 H1345 0.930 . S
C1354 C1352 1.384 . S
C1354 C1355 1.372 . S
C1355 C1354 1.372 . S
C1355 C1356 1.400 . S
C1355 C1360 1.490 . S
C1356 H1346 0.930 . S
C1356 C1355 1.400 . S
C1356 C1359 1.386 . S
H1357 C1373 0.930 . S
H1358 C1374 0.931 . S
C1359 H1347 0.929 . S
C1359 C1353 1.390 . S
C1359 C1356 1.386 . S
C1360 C1355 1.490 . S
C1360 C1362 1.395 1_545 S
C1360 C1363 1.403 . S
H1361 C1367 0.930 . S
C1362 H1348 0.930 . S
C1362 C1360 1.395 1_565 S
C1362 C1365 1.403 . S
C1363 C1360 1.403 . S
C1363 C1364 1.524 . S
C1363 C1367 1.400 . S
C1364 H1349 0.960 . S
C1364 H1350 0.960 . S
C1364 H1351 0.960 . S
C1364 C1363 1.524 . S
C1365 C1362 1.403 . S
C1365 C1366 1.392 . S
C1365 C1369 1.495 . S
C1366 C1365 1.392 . S
C1366 C1367 1.385 1_565 S
C1366 C1368 1.478 . S
C1367 H1361 0.930 . S
C1367 C1363 1.400 . S
C1367 C1366 1.385 1_545 S
C1368 C1366 1.478 . S
C1368 C1370 1.381 . S
C1368 C1374 1.383 . S
C1369 C1365 1.495 . S
C1369 H1375 0.959 . S
C1369 H1376 0.961 . S
C1369 H1377 0.960 . S
C1370 C1368 1.381 . S
C1370 C1371 1.394 . S
C1370 H1378 0.930 . S
C1371 C1370 1.394 . S
C1371 C1372 1.383 . S
C1371 H1379 0.929 . S
C1372 C1371 1.383 . S
C1372 C1373 1.377 . S
C1373 H1357 0.930 . S
C1373 C1372 1.377 . S
C1373 C1374 1.379 . S
C1374 H1358 0.931 . S
C1374 C1368 1.383 . S
C1374 C1373 1.379 . S
H1375 C1369 0.959 . S
H1376 C1369 0.961 . S
H1377 C1369 0.960 . S
H1378 C1370 0.930 . S
H1379 C1371 0.929 . S
H1380 C1388 0.929 . S
H1381 C1390 0.930 . S
H1382 C1392 0.930 . S
H1383 C1395 0.929 . S
H1384 C1398 0.930 . S
H1385 C1400 0.960 . S
H1386 C1400 0.960 . S
H1387 C1400 0.960 . S
C1388 H1380 0.929 . S
C1388 C1389 1.377 . S
C1388 C1390 1.384 . S
C1389 C1388 1.377 . S
C1389 C1395 1.390 . S
C1390 H1381 0.930 . S
C1390 C1388 1.384 . S
C1390 C1391 1.372 . S
C1391 C1390 1.372 . S
C1391 C1392 1.400 . S
C1391 C1396 1.490 . S
C1392 H1382 0.930 . S
C1392 C1391 1.400 . S
C1392 C1395 1.386 . S
H1393 C1409 0.930 . S
H1394 C1410 0.931 . S
C1395 H1383 0.929 . S
C1395 C1389 1.390 . S
C1395 C1392 1.386 . S
C1396 C1391 1.490 . S
C1396 C1398 1.395 . S
C1396 C1399 1.403 . S
H1397 C1403 0.930 . S
C1398 H1384 0.930 . S
C1398 C1396 1.395 . S
C1398 C1401 1.403 . S
C1399 C1396 1.403 . S
C1399 C1400 1.524 . S
C1399 C1403 1.400 . S
C1400 H1385 0.960 . S
C1400 H1386 0.960 . S
C1400 H1387 0.960 . S
C1400 C1399 1.524 . S
C1401 C1398 1.403 . S
C1401 C1402 1.392 . S
C1401 C1405 1.495 . S
C1402 C1401 1.392 . S
C1402 C1403 1.385 . S
C1402 C1404 1.478 . S
C1403 H1397 0.930 . S
C1403 C1399 1.400 . S
C1403 C1402 1.385 . S
C1404 C1402 1.478 . S
C1404 C1406 1.381 . S
C1404 C1410 1.383 . S
C1405 C1401 1.495 . S
C1405 H1411 0.959 . S
C1405 H1412 0.961 . S
C1405 H1413 0.960 . S
C1406 C1404 1.381 . S
C1406 C1407 1.394 . S
C1406 H1414 0.930 . S
C1407 C1406 1.394 . S
C1407 C1408 1.383 . S
C1407 H1415 0.929 . S
C1408 C1407 1.383 . S
C1408 C1409 1.377 . S
C1409 H1393 0.930 . S
C1409 C1408 1.377 . S
C1409 C1410 1.379 . S
C1410 H1394 0.931 . S
C1410 C1404 1.383 . S
C1410 C1409 1.379 . S
H1411 C1405 0.959 . S
H1412 C1405 0.961 . S
H1413 C1405 0.960 . S
H1414 C1406 0.930 . S
H1415 C1407 0.929 . S
H1416 C1424 0.929 . S
H1417 C1426 0.930 . S
H1418 C1428 0.930 . S
H1419 C1431 0.929 . S
H1420 C1434 0.930 . S
H1421 C1436 0.960 . S
H1422 C1436 0.960 . S
H1423 C1436 0.960 . S
C1424 H1416 0.929 . S
C1424 C1425 1.377 . S
C1424 C1426 1.384 . S
C1425 C1424 1.377 . S
C1425 C1431 1.390 . S
C1426 H1417 0.930 . S
C1426 C1424 1.384 . S
C1426 C1427 1.372 . S
C1427 C1426 1.372 . S
C1427 C1428 1.400 . S
C1427 C1432 1.490 . S
C1428 H1418 0.930 . S
C1428 C1427 1.400 . S
C1428 C1431 1.386 . S
H1429 C1445 0.930 . S
H1430 C1446 0.931 . S
C1431 H1419 0.929 . S
C1431 C1425 1.390 . S
C1431 C1428 1.386 . S
C1432 C1427 1.490 . S
C1432 C1434 1.395 . S
C1432 C1435 1.403 1_655 S
H1433 C1439 0.930 . S
C1434 H1420 0.930 . S
C1434 C1432 1.395 . S
C1434 C1437 1.403 . S
C1435 C1432 1.403 1_455 S
C1435 C1436 1.524 . S
C1435 C1439 1.400 . S
C1436 H1421 0.960 . S
C1436 H1422 0.960 . S
C1436 H1423 0.960 . S
C1436 C1435 1.524 . S
C1437 C1434 1.403 . S
C1437 C1438 1.392 1_655 S
C1437 C1441 1.495 . S
C1438 C1437 1.392 1_455 S
C1438 C1439 1.385 . S
C1438 C1440 1.478 . S
C1439 H1433 0.930 . S
C1439 C1435 1.400 . S
C1439 C1438 1.385 . S
C1440 C1438 1.478 . S
C1440 C1442 1.381 . S
C1440 C1446 1.383 . S
C1441 C1437 1.495 . S
C1441 H1447 0.959 . S
C1441 H1448 0.961 . S
C1441 H1449 0.960 . S
C1442 C1440 1.381 . S
C1442 C1443 1.394 . S
C1442 H1450 0.930 . S
C1443 C1442 1.394 . S
C1443 C1444 1.383 . S
C1443 H1451 0.929 . S
C1444 C1443 1.383 . S
C1444 C1445 1.377 . S
C1445 H1429 0.930 . S
C1445 C1444 1.377 . S
C1445 C1446 1.379 . S
C1446 H1430 0.931 . S
C1446 C1440 1.383 . S
C1446 C1445 1.379 . S
H1447 C1441 0.959 . S
H1448 C1441 0.961 . S
H1449 C1441 0.960 . S
H1450 C1442 0.930 . S
H1451 C1443 0.929 . S
H1452 C1460 0.929 . S
H1453 C1462 0.930 . S
H1454 C1464 0.930 . S
H1455 C1467 0.929 . S
H1456 C1470 0.930 . S
H1457 C1472 0.960 1_545 S
H1458 C1472 0.960 1_545 S
H1459 C1472 0.960 . S
C1460 H1452 0.929 . S
C1460 C1461 1.377 . S
C1460 C1462 1.384 . S
C1461 C1460 1.377 . S
C1461 C1467 1.390 . S
C1462 H1453 0.930 . S
C1462 C1460 1.384 . S
C1462 C1463 1.372 . S
C1463 C1462 1.372 . S
C1463 C1464 1.400 . S
C1463 C1468 1.490 . S
C1464 H1454 0.930 . S
C1464 C1463 1.400 . S
C1464 C1467 1.386 . S
H1465 C1481 0.930 . S
H1466 C1482 0.931 . S
C1467 H1455 0.929 . S
C1467 C1461 1.390 . S
C1467 C1464 1.386 . S
C1468 C1463 1.490 . S
C1468 C1470 1.395 . S
C1468 C1471 1.403 . S
H1469 C1475 0.930 . S
C1470 H1456 0.930 . S
C1470 C1468 1.395 . S
C1470 C1473 1.403 1_565 S
C1471 C1468 1.403 . S
C1471 C1472 1.524 . S
C1471 C1475 1.400 1_565 S
C1472 H1457 0.960 1_565 S
C1472 H1458 0.960 1_565 S
C1472 H1459 0.960 . S
C1472 C1471 1.524 . S
C1473 C1470 1.403 1_545 S
C1473 C1474 1.392 . S
C1473 C1477 1.495 . S
C1474 C1473 1.392 . S
C1474 C1475 1.385 . S
C1474 C1476 1.478 . S
C1475 H1469 0.930 . S
C1475 C1471 1.400 1_545 S
C1475 C1474 1.385 . S
C1476 C1474 1.478 . S
C1476 C1478 1.381 . S
C1476 C1482 1.383 . S
C1477 C1473 1.495 . S
C1477 H1483 0.959 1_545 S
C1477 H1484 0.936 1_545 S
C1477 H1485 0.960 . S
C1478 C1476 1.381 . S
C1478 C1479 1.394 . S
C1478 H1486 0.930 . S
C1479 C1478 1.394 . S
C1479 C1480 1.383 . S
C1479 H1487 0.929 . S
C1480 C1479 1.383 . S
C1480 C1481 1.377 . S
C1481 H1465 0.930 . S
C1481 C1480 1.377 . S
C1481 C1482 1.379 . S
C1482 H1466 0.931 . S
C1482 C1476 1.383 . S
C1482 C1481 1.379 . S
H1483 C1477 0.959 1_565 S
H1484 C1477 0.936 1_565 S
H1485 C1477 0.960 . S
H1486 C1478 0.930 . S
H1487 C1479 0.929 . S
H1488 C1496 0.929 . S
H1489 C1498 0.930 . S
H1490 C1500 0.930 . S
H1491 C1503 0.929 . S
H1492 C1506 0.930 . S
H1493 C1508 0.960 . S
H1494 C1508 0.960 . S
H1495 C1508 0.960 . S
C1496 H1488 0.929 . S
C1496 C1497 1.377 . S
C1496 C1498 1.384 . S
C1497 C1496 1.377 . S
C1497 C1503 1.390 . S
C1498 H1489 0.930 . S
C1498 C1496 1.384 . S
C1498 C1499 1.372 . S
C1499 C1498 1.372 . S
C1499 C1500 1.400 . S
C1499 C1504 1.490 . S
C1500 H1490 0.930 . S
C1500 C1499 1.400 . S
C1500 C1503 1.386 . S
H1501 C1517 0.930 . S
H1502 C1518 0.931 . S
C1503 H1491 0.929 . S
C1503 C1497 1.390 . S
C1503 C1500 1.386 . S
C1504 C1499 1.490 . S
C1504 C1506 1.395 . S
C1504 C1507 1.403 . S
H1505 C1511 0.930 . S
C1506 H1492 0.930 . S
C1506 C1504 1.395 . S
C1506 C1509 1.403 . S
C1507 C1504 1.403 . S
C1507 C1508 1.524 . S
C1507 C1511 1.400 . S
C1508 H1493 0.960 . S
C1508 H1494 0.960 . S
C1508 H1495 0.960 . S
C1508 C1507 1.524 . S
C1509 C1506 1.403 . S
C1509 C1510 1.392 . S
C1509 C1513 1.495 . S
C1510 C1509 1.392 . S
C1510 C1511 1.385 . S
C1510 C1512 1.478 . S
C1511 H1505 0.930 . S
C1511 C1507 1.400 . S
C1511 C1510 1.385 . S
C1512 C1510 1.478 . S
C1512 C1514 1.381 . S
C1512 C1518 1.383 . S
C1513 C1509 1.495 . S
C1513 H1519 0.959 . S
C1513 H1520 0.961 . S
C1513 H1521 0.960 . S
C1514 C1512 1.381 . S
C1514 C1515 1.394 . S
C1514 H1522 0.930 . S
C1515 C1514 1.394 . S
C1515 C1516 1.383 . S
C1515 H1523 0.929 . S
C1516 C1515 1.383 . S
C1516 C1517 1.377 . S
C1517 H1501 0.930 . S
C1517 C1516 1.377 . S
C1517 C1518 1.379 . S
C1518 H1502 0.931 . S
C1518 C1512 1.383 . S
C1518 C1517 1.379 . S
H1519 C1513 0.959 . S
H1520 C1513 0.961 . S
H1521 C1513 0.960 . S
H1522 C1514 0.930 . S
H1523 C1515 0.929 . S
H1524 C1532 0.929 . S
H1525 C1534 0.930 . S
H1526 C1536 0.930 . S
H1527 C1539 0.929 . S
H1528 C1542 0.930 . S
H1529 C1544 0.960 . S
H1530 C1544 0.960 . S
H1531 C1544 0.960 . S
C1532 H1524 0.929 . S
C1532 C1533 1.377 . S
C1532 C1534 1.384 . S
C1533 C1532 1.377 . S
C1533 C1539 1.390 . S
C1534 H1525 0.930 . S
C1534 C1532 1.384 . S
C1534 C1535 1.372 . S
C1535 C1534 1.372 . S
C1535 C1536 1.400 . S
C1535 C1540 1.490 . S
C1536 H1526 0.930 . S
C1536 C1535 1.400 . S
C1536 C1539 1.386 . S
H1537 C1553 0.930 . S
H1538 C1554 0.931 . S
C1539 H1527 0.929 . S
C1539 C1533 1.390 . S
C1539 C1536 1.386 . S
C1540 C1535 1.490 . S
C1540 C1542 1.395 . S
C1540 C1543 1.403 . S
H1541 C1547 0.930 . S
C1542 H1528 0.930 . S
C1542 C1540 1.395 . S
C1542 C1545 1.403 . S
C1543 C1540 1.403 . S
C1543 C1544 1.524 . S
C1543 C1547 1.400 . S
C1544 H1529 0.960 . S
C1544 H1530 0.960 . S
C1544 H1531 0.960 . S
C1544 C1543 1.524 . S
C1545 C1542 1.403 . S
C1545 C1546 1.392 . S
C1545 C1549 1.495 . S
C1546 C1545 1.392 . S
C1546 C1547 1.385 . S
C1546 C1548 1.478 . S
C1547 H1541 0.930 . S
C1547 C1543 1.400 . S
C1547 C1546 1.385 . S
C1548 C1546 1.478 . S
C1548 C1550 1.381 . S
C1548 C1554 1.383 . S
C1549 C1545 1.495 . S
C1549 H1555 0.959 . S
C1549 H1556 0.961 . S
C1549 H1557 0.960 . S
C1550 C1548 1.381 . S
C1550 C1551 1.394 . S
C1550 H1558 0.930 . S
C1551 C1550 1.394 . S
C1551 C1552 1.383 . S
C1551 H1559 0.929 . S
C1552 C1551 1.383 . S
C1552 C1553 1.377 . S
C1553 H1537 0.930 . S
C1553 C1552 1.377 . S
C1553 C1554 1.379 . S
C1554 H1538 0.931 . S
C1554 C1548 1.383 . S
C1554 C1553 1.379 . S
H1555 C1549 0.959 . S
H1556 C1549 0.961 . S
H1557 C1549 0.960 . S
H1558 C1550 0.930 . S
H1559 C1551 0.929 . S
H1560 C1568 0.929 . S
H1561 C1570 0.930 . S
H1562 C1572 0.930 . S
H1563 C1575 0.929 . S
H1564 C1578 0.930 . S
H1565 C1580 0.960 . S
H1566 C1580 0.960 . S
H1567 C1580 0.960 . S
C1568 H1560 0.929 . S
C1568 C1569 1.377 . S
C1568 C1570 1.384 . S
C1569 C1568 1.377 . S
C1569 C1575 1.390 . S
C1570 H1561 0.930 . S
C1570 C1568 1.384 . S
C1570 C1571 1.372 . S
C1571 C1570 1.372 . S
C1571 C1572 1.400 . S
C1571 C1576 1.490 . S
C1572 H1562 0.930 . S
C1572 C1571 1.400 . S
C1572 C1575 1.386 . S
H1573 C1589 0.930 . S
H1574 C1590 0.931 . S
C1575 H1563 0.929 . S
C1575 C1569 1.390 . S
C1575 C1572 1.386 . S
C1576 C1571 1.490 . S
C1576 C1578 1.395 . S
C1576 C1579 1.403 . S
H1577 C1583 0.930 . S
C1578 H1564 0.930 . S
C1578 C1576 1.395 . S
C1578 C1581 1.403 . S
C1579 C1576 1.403 . S
C1579 C1580 1.524 . S
C1579 C1583 1.400 . S
C1580 H1565 0.960 . S
C1580 H1566 0.960 . S
C1580 H1567 0.960 . S
C1580 C1579 1.524 . S
C1581 C1578 1.403 . S
C1581 C1582 1.392 . S
C1581 C1585 1.495 . S
C1582 C1581 1.392 . S
C1582 C1583 1.385 . S
C1582 C1584 1.478 . S
C1583 H1577 0.930 . S
C1583 C1579 1.400 . S
C1583 C1582 1.385 . S
C1584 C1582 1.478 . S
C1584 C1586 1.381 . S
C1584 C1590 1.383 . S
C1585 C1581 1.495 . S
C1585 H1591 0.959 . S
C1585 H1592 0.961 . S
C1585 H1593 0.960 . S
C1586 C1584 1.381 . S
C1586 C1587 1.394 . S
C1586 H1594 0.930 . S
C1587 C1586 1.394 . S
C1587 C1588 1.383 . S
C1587 H1595 0.929 . S
C1588 C1587 1.383 . S
C1588 C1589 1.377 . S
C1589 H1573 0.930 . S
C1589 C1588 1.377 . S
C1589 C1590 1.379 . S
C1590 H1574 0.931 . S
C1590 C1584 1.383 . S
C1590 C1589 1.379 . S
H1591 C1585 0.959 . S
H1592 C1585 0.961 . S
H1593 C1585 0.960 . S
H1594 C1586 0.930 . S
H1595 C1587 0.929 . S
H1596 C1604 0.929 . S
H1597 C1606 0.930 . S
H1598 C1608 0.930 . S
H1599 C1611 0.929 . S
H1600 C1614 0.930 . S
H1601 C1616 0.960 . S
H1602 C1616 0.960 . S
H1603 C1616 0.960 . S
C1604 H1596 0.929 . S
C1604 C1605 1.377 . S
C1604 C1606 1.384 . S
C1605 C1604 1.377 . S
C1605 C1611 1.390 . S
C1606 H1597 0.930 . S
C1606 C1604 1.384 . S
C1606 C1607 1.372 . S
C1607 C1606 1.372 . S
C1607 C1608 1.400 . S
C1607 C1612 1.490 . S
C1608 H1598 0.930 . S
C1608 C1607 1.400 . S
C1608 C1611 1.386 . S
H1609 C1625 0.930 . S
H1610 C1626 0.931 . S
C1611 H1599 0.929 . S
C1611 C1605 1.390 . S
C1611 C1608 1.386 . S
C1612 C1607 1.490 . S
C1612 C1614 1.395 . S
C1612 C1615 1.403 . S
H1613 C1619 0.930 . S
C1614 H1600 0.930 . S
C1614 C1612 1.395 . S
C1614 C1617 1.403 . S
C1615 C1612 1.403 . S
C1615 C1616 1.524 . S
C1615 C1619 1.400 . S
C1616 H1601 0.960 . S
C1616 H1602 0.960 . S
C1616 H1603 0.960 . S
C1616 C1615 1.524 . S
C1617 C1614 1.403 . S
C1617 C1618 1.392 . S
C1617 C1621 1.495 . S
C1618 C1617 1.392 . S
C1618 C1619 1.385 . S
C1618 C1620 1.478 . S
C1619 H1613 0.930 . S
C1619 C1615 1.400 . S
C1619 C1618 1.385 . S
C1620 C1618 1.478 . S
C1620 C1622 1.381 . S
C1620 C1626 1.383 . S
C1621 C1617 1.495 . S
C1621 H1627 0.959 . S
C1621 H1628 0.961 . S
C1621 H1629 0.960 . S
C1622 C1620 1.381 . S
C1622 C1623 1.394 . S
C1622 H1630 0.930 . S
C1623 C1622 1.394 . S
C1623 C1624 1.383 . S
C1623 H1631 0.929 . S
C1624 C1623 1.383 . S
C1624 C1625 1.377 . S
C1625 H1609 0.930 . S
C1625 C1624 1.377 . S
C1625 C1626 1.379 . S
C1626 H1610 0.931 . S
C1626 C1620 1.383 . S
C1626 C1625 1.379 . S
H1627 C1621 0.959 . S
H1628 C1621 0.961 . S
H1629 C1621 0.960 . S
H1630 C1622 0.930 . S
H1631 C1623 0.929 . S
H1632 C1640 0.929 . S
H1633 C1642 0.930 . S
H1634 C1644 0.930 . S
H1635 C1647 0.929 . S
H1636 C1650 0.930 . S
H1637 C1652 0.960 . S
H1638 C1652 0.960 . S
H1639 C1652 0.960 . S
C1640 H1632 0.929 . S
C1640 C1641 1.377 . S
C1640 C1642 1.384 . S
C1641 C1640 1.377 . S
C1641 C1647 1.390 . S
C1642 H1633 0.930 . S
C1642 C1640 1.384 . S
C1642 C1643 1.372 . S
C1643 C1642 1.372 . S
C1643 C1644 1.400 . S
C1643 C1648 1.490 . S
C1644 H1634 0.930 . S
C1644 C1643 1.400 . S
C1644 C1647 1.386 . S
H1645 C1661 0.930 . S
H1646 C1662 0.931 . S
C1647 H1635 0.929 . S
C1647 C1641 1.390 . S
C1647 C1644 1.386 . S
C1648 C1643 1.490 . S
C1648 C1650 1.395 . S
C1648 C1651 1.403 . S
H1649 C1655 0.930 . S
C1650 H1636 0.930 . S
C1650 C1648 1.395 . S
C1650 C1653 1.403 . S
C1651 C1648 1.403 . S
C1651 C1652 1.524 . S
C1651 C1655 1.400 . S
C1652 H1637 0.960 . S
C1652 H1638 0.960 . S
C1652 H1639 0.960 . S
C1652 C1651 1.524 . S
C1653 C1650 1.403 . S
C1653 C1654 1.392 . S
C1653 C1657 1.495 . S
C1654 C1653 1.392 . S
C1654 C1655 1.385 . S
C1654 C1656 1.478 . S
C1655 H1649 0.930 . S
C1655 C1651 1.400 . S
C1655 C1654 1.385 . S
C1656 C1654 1.478 . S
C1656 C1658 1.381 . S
C1656 C1662 1.383 . S
C1657 C1653 1.495 . S
C1657 H1663 0.959 . S
C1657 H1664 0.961 . S
C1657 H1665 0.960 . S
C1658 C1656 1.381 . S
C1658 C1659 1.394 . S
C1658 H1666 0.930 . S
C1659 C1658 1.394 . S
C1659 C1660 1.383 . S
C1659 H1667 0.929 . S
C1660 C1659 1.383 . S
C1660 C1661 1.377 . S
C1661 H1645 0.930 . S
C1661 C1660 1.377 . S
C1661 C1662 1.379 . S
C1662 H1646 0.931 . S
C1662 C1656 1.383 . S
C1662 C1661 1.379 . S
H1663 C1657 0.959 . S
H1664 C1657 0.961 . S
H1665 C1657 0.960 . S
H1666 C1658 0.930 . S
H1667 C1659 0.929 . S
H1668 C1676 0.929 . S
H1669 C1678 0.930 . S
H1670 C1680 0.930 . S
H1671 C1683 0.929 . S
H1672 C1686 0.930 . S
H1673 C1688 0.960 . S
H1674 C1688 0.960 . S
H1675 C1688 0.960 . S
C1676 H1668 0.929 . S
C1676 C1677 1.377 . S
C1676 C1678 1.384 . S
C1677 C1676 1.377 . S
C1677 C1683 1.390 . S
C1678 H1669 0.930 . S
C1678 C1676 1.384 . S
C1678 C1679 1.372 . S
C1679 C1678 1.372 . S
C1679 C1680 1.400 . S
C1679 C1684 1.490 . S
C1680 H1670 0.930 . S
C1680 C1679 1.400 . S
C1680 C1683 1.386 . S
H1681 C1697 0.930 . S
H1682 C1698 0.931 . S
C1683 H1671 0.929 . S
C1683 C1677 1.390 . S
C1683 C1680 1.386 . S
C1684 C1679 1.490 . S
C1684 C1686 1.395 . S
C1684 C1687 1.403 . S
H1685 C1691 0.930 . S
C1686 H1672 0.930 . S
C1686 C1684 1.395 . S
C1686 C1689 1.403 . S
C1687 C1684 1.403 . S
C1687 C1688 1.524 . S
C1687 C1691 1.400 . S
C1688 H1673 0.960 . S
C1688 H1674 0.960 . S
C1688 H1675 0.960 . S
C1688 C1687 1.524 . S
C1689 C1686 1.403 . S
C1689 C1690 1.392 . S
C1689 C1693 1.495 . S
C1690 C1689 1.392 . S
C1690 C1691 1.385 . S
C1690 C1692 1.478 . S
C1691 H1685 0.930 . S
C1691 C1687 1.400 . S
C1691 C1690 1.385 . S
C1692 C1690 1.478 . S
C1692 C1694 1.381 . S
C1692 C1698 1.383 . S
C1693 C1689 1.495 . S
C1693 H1699 0.959 . S
C1693 H1700 0.961 . S
C1693 H1701 0.960 . S
C1694 C1692 1.381 . S
C1694 C1695 1.394 . S
C1694 H1702 0.930 . S
C1695 C1694 1.394 . S
C1695 C1696 1.383 . S
C1695 H1703 0.929 . S
C1696 C1695 1.383 . S
C1696 C1697 1.377 . S
C1697 H1681 0.930 . S
C1697 C1696 1.377 . S
C1697 C1698 1.379 . S
C1698 H1682 0.931 . S
C1698 C1692 1.383 . S
C1698 C1697 1.379 . S
H1699 C1693 0.959 . S
H1700 C1693 0.961 . S
H1701 C1693 0.960 . S
H1702 C1694 0.930 . S
H1703 C1695 0.929 . S
H1704 C1712 0.929 . S
H1705 C1714 0.930 . S
H1706 C1716 0.930 . S
H1707 C1719 0.929 . S
H1708 C1722 0.930 . S
H1709 C1724 0.960 . S
H1710 C1724 0.960 . S
H1711 C1724 0.960 . S
C1712 H1704 0.929 . S
C1712 C1713 1.377 . S
C1712 C1714 1.384 . S
C1713 C1712 1.377 . S
C1713 C1719 1.390 . S
C1714 H1705 0.930 . S
C1714 C1712 1.384 . S
C1714 C1715 1.372 . S
C1715 C1714 1.372 . S
C1715 C1716 1.400 . S
C1715 C1720 1.490 . S
C1716 H1706 0.930 . S
C1716 C1715 1.400 . S
C1716 C1719 1.386 . S
H1717 C1733 0.930 . S
H1718 C1734 0.931 . S
C1719 H1707 0.929 . S
C1719 C1713 1.390 . S
C1719 C1716 1.386 . S
C1720 C1715 1.490 . S
C1720 C1722 1.395 . S
C1720 C1723 1.403 . S
H1721 C1727 0.930 . S
C1722 H1708 0.930 . S
C1722 C1720 1.395 . S
C1722 C1725 1.403 . S
C1723 C1720 1.403 . S
C1723 C1724 1.524 . S
C1723 C1727 1.400 . S
C1724 H1709 0.960 . S
C1724 H1710 0.960 . S
C1724 H1711 0.960 . S
C1724 C1723 1.524 . S
C1725 C1722 1.403 . S
C1725 C1726 1.392 . S
C1725 C1729 1.495 . S
C1726 C1725 1.392 . S
C1726 C1727 1.385 . S
C1726 C1728 1.478 . S
C1727 H1721 0.930 . S
C1727 C1723 1.400 . S
C1727 C1726 1.385 . S
C1728 C1726 1.478 . S
C1728 C1730 1.381 . S
C1728 C1734 1.383 . S
C1729 C1725 1.495 . S
C1729 H1735 0.959 . S
C1729 H1736 0.961 . S
C1729 H1737 0.960 . S
C1730 C1728 1.381 . S
C1730 C1731 1.394 . S
C1730 H1738 0.930 . S
C1731 C1730 1.394 . S
C1731 C1732 1.383 . S
C1731 H1739 0.929 . S
C1732 C1731 1.383 . S
C1732 C1733 1.377 . S
C1733 H1717 0.930 . S
C1733 C1732 1.377 . S
C1733 C1734 1.379 . S
C1734 H1718 0.931 . S
C1734 C1728 1.383 . S
C1734 C1733 1.379 . S
H1735 C1729 0.959 . S
H1736 C1729 0.961 . S
H1737 C1729 0.960 . S
H1738 C1730 0.930 . S
H1739 C1731 0.929 . S
H1740 C1748 0.929 . S
H1741 C1750 0.930 . S
H1742 C1752 0.930 . S
H1743 C1755 0.929 . S
H1744 C1758 0.930 . S
H1745 C1760 0.960 . S
H1746 C1760 0.960 . S
H1747 C1760 0.960 . S
C1748 H1740 0.929 . S
C1748 C1749 1.377 . S
C1748 C1750 1.384 . S
C1749 C1748 1.377 . S
C1749 C1755 1.390 . S
C1750 H1741 0.930 . S
C1750 C1748 1.384 . S
C1750 C1751 1.372 . S
C1751 C1750 1.372 . S
C1751 C1752 1.400 . S
C1751 C1756 1.490 . S
C1752 H1742 0.930 . S
C1752 C1751 1.400 . S
C1752 C1755 1.386 . S
H1753 C1769 0.930 . S
H1754 C1770 0.931 . S
C1755 H1743 0.929 . S
C1755 C1749 1.390 . S
C1755 C1752 1.386 . S
C1756 C1751 1.490 . S
C1756 C1758 1.395 . S
C1756 C1759 1.403 1_655 S
H1757 C1763 0.930 . S
C1758 H1744 0.930 . S
C1758 C1756 1.395 . S
C1758 C1761 1.403 . S
C1759 C1756 1.403 1_455 S
C1759 C1760 1.524 . S
C1759 C1763 1.400 . S
C1760 H1745 0.960 . S
C1760 H1746 0.960 . S
C1760 H1747 0.960 . S
C1760 C1759 1.524 . S
C1761 C1758 1.403 . S
C1761 C1762 1.392 1_655 S
C1761 C1765 1.495 . S
C1762 C1761 1.392 1_455 S
C1762 C1763 1.385 . S
C1762 C1764 1.478 . S
C1763 H1757 0.930 . S
C1763 C1759 1.400 . S
C1763 C1762 1.385 . S
C1764 C1762 1.478 . S
C1764 C1766 1.381 . S
C1764 C1770 1.383 . S
C1765 C1761 1.495 . S
C1765 H1771 0.959 . S
C1765 H1772 0.961 . S
C1765 H1773 0.960 . S
C1766 C1764 1.381 . S
C1766 C1767 1.394 . S
C1766 H1774 0.930 . S
C1767 C1766 1.394 . S
C1767 C1768 1.383 . S
C1767 H1775 0.929 . S
C1768 C1767 1.383 . S
C1768 C1769 1.377 . S
C1769 H1753 0.930 . S
C1769 C1768 1.377 . S
C1769 C1770 1.379 . S
C1770 H1754 0.931 . S
C1770 C1764 1.383 . S
C1770 C1769 1.379 . S
H1771 C1765 0.959 . S
H1772 C1765 0.961 . S
H1773 C1765 0.960 . S
H1774 C1766 0.930 . S
H1775 C1767 0.929 . S
H1776 C1784 0.929 . S
H1777 C1786 0.930 . S
H1778 C1788 0.930 1_565 S
H1779 C1791 0.929 . S
H1780 C1794 0.930 . S
H1781 C1796 0.960 . S
H1782 C1796 0.960 . S
H1783 C1796 0.960 . S
C1784 H1776 0.929 . S
C1784 C1785 1.377 . S
C1784 C1786 1.384 . S
C1785 C1784 1.377 . S
C1785 C1791 1.390 . S
C1786 H1777 0.930 . S
C1786 C1784 1.384 . S
C1786 C1787 1.372 . S
C1787 C1786 1.372 . S
C1787 C1788 1.400 . S
C1787 C1792 1.490 . S
C1788 H1778 0.930 1_545 S
C1788 C1787 1.400 . S
C1788 C1791 1.386 . S
H1789 C1805 0.930 . S
H1790 C1806 0.931 . S
C1791 H1779 0.929 . S
C1791 C1785 1.390 . S
C1791 C1788 1.386 . S
C1792 C1787 1.490 . S
C1792 C1794 1.395 . S
C1792 C1795 1.403 1_545 S
H1793 C1799 0.930 . S
C1794 H1780 0.930 . S
C1794 C1792 1.395 . S
C1794 C1797 1.403 1_554 S
C1795 C1792 1.403 1_565 S
C1795 C1796 1.524 . S
C1795 C1799 1.400 1_554 S
C1796 H1781 0.960 . S
C1796 H1782 0.960 . S
C1796 H1783 0.960 . S
C1796 C1795 1.524 . S
C1797 C1794 1.403 1_556 S
C1797 C1798 1.392 1_545 S
C1797 C1801 1.495 . S
C1798 C1797 1.392 1_565 S
C1798 C1799 1.385 . S
C1798 C1800 1.478 . S
C1799 H1793 0.930 . S
C1799 C1795 1.400 1_556 S
C1799 C1798 1.385 . S
C1800 C1798 1.478 . S
C1800 C1802 1.381 . S
C1800 C1806 1.383 . S
C1801 C1797 1.495 . S
C1801 H1807 0.959 . S
C1801 H1808 0.961 . S
C1801 H1809 0.960 . S
C1802 C1800 1.381 . S
C1802 C1803 1.394 . S
C1802 H1810 0.930 1_565 S
C1803 C1802 1.394 . S
C1803 C1804 1.383 . S
C1803 H1811 0.929 . S
C1804 C1803 1.383 . S
C1804 C1805 1.377 . S
C1805 H1789 0.930 . S
C1805 C1804 1.377 . S
C1805 C1806 1.379 . S
C1806 H1790 0.931 . S
C1806 C1800 1.383 . S
C1806 C1805 1.379 . S
H1807 C1801 0.959 . S
H1808 C1801 0.961 . S
H1809 C1801 0.960 . S
H1810 C1802 0.930 1_545 S
H1811 C1803 0.929 . S
H1812 C1820 0.929 . S
H1813 C1822 0.930 . S
H1814 C1824 0.930 . S
H1815 C1827 0.929 . S
H1816 C1830 0.930 . S
H1817 C1832 0.960 . S
H1818 C1832 0.960 . S
H1819 C1832 0.960 . S
C1820 H1812 0.929 . S
C1820 C1821 1.377 . S
C1820 C1822 1.384 . S
C1821 C1820 1.377 . S
C1821 C1827 1.390 . S
C1822 H1813 0.930 . S
C1822 C1820 1.384 . S
C1822 C1823 1.372 . S
C1823 C1822 1.372 . S
C1823 C1824 1.400 . S
C1823 C1828 1.490 . S
C1824 H1814 0.930 . S
C1824 C1823 1.400 . S
C1824 C1827 1.386 . S
H1825 C1841 0.930 . S
H1826 C1842 0.931 . S
C1827 H1815 0.929 . S
C1827 C1821 1.390 . S
C1827 C1824 1.386 . S
C1828 C1823 1.490 . S
C1828 C1830 1.395 . S
C1828 C1831 1.403 . S
H1829 C1835 0.930 . S
C1830 H1816 0.930 . S
C1830 C1828 1.395 . S
C1830 C1833 1.403 . S
C1831 C1828 1.403 . S
C1831 C1832 1.524 . S
C1831 C1835 1.400 . S
C1832 H1817 0.960 . S
C1832 H1818 0.960 . S
C1832 H1819 0.960 . S
C1832 C1831 1.524 . S
C1833 C1830 1.403 . S
C1833 C1834 1.392 . S
C1833 C1837 1.495 . S
C1834 C1833 1.392 . S
C1834 C1835 1.385 . S
C1834 C1836 1.478 . S
C1835 H1829 0.930 . S
C1835 C1831 1.400 . S
C1835 C1834 1.385 . S
C1836 C1834 1.478 . S
C1836 C1838 1.381 . S
C1836 C1842 1.383 . S
C1837 C1833 1.495 . S
C1837 H1843 0.959 . S
C1837 H1844 0.961 . S
C1837 H1845 0.960 . S
C1838 C1836 1.381 . S
C1838 C1839 1.394 . S
C1838 H1846 0.930 . S
C1839 C1838 1.394 . S
C1839 C1840 1.383 . S
C1839 H1847 0.929 . S
C1840 C1839 1.383 . S
C1840 C1841 1.377 . S
C1841 H1825 0.930 . S
C1841 C1840 1.377 . S
C1841 C1842 1.379 . S
C1842 H1826 0.931 . S
C1842 C1836 1.383 . S
C1842 C1841 1.379 . S
H1843 C1837 0.959 . S
H1844 C1837 0.961 . S
H1845 C1837 0.960 . S
H1846 C1838 0.930 . S
H1847 C1839 0.929 . S
H1848 C1856 0.929 . S
H1849 C1858 0.930 . S
H1850 C1860 0.930 1_655 S
H1851 C1863 0.929 . S
H1852 C1866 0.930 . S
H1853 C1868 0.960 . S
H1854 C1868 0.960 . S
H1855 C1868 0.960 . S
C1856 H1848 0.929 . S
C1856 C1857 1.377 . S
C1856 C1858 1.384 . S
C1857 C1856 1.377 . S
C1857 C1863 1.390 . S
C1858 H1849 0.930 . S
C1858 C1856 1.384 . S
C1858 C1859 1.372 . S
C1859 C1858 1.372 . S
C1859 C1860 1.400 . S
C1859 C1864 1.490 . S
C1860 H1850 0.930 1_455 S
C1860 C1859 1.400 . S
C1860 C1863 1.386 . S
H1861 C1877 0.930 . S
H1862 C1878 0.931 . S
C1863 H1851 0.929 . S
C1863 C1857 1.390 . S
C1863 C1860 1.386 . S
C1864 C1859 1.490 . S
C1864 C1866 1.395 . S
C1864 C1867 1.403 . S
H1865 C1871 0.930 . S
C1866 H1852 0.930 . S
C1866 C1864 1.395 . S
C1866 C1869 1.403 1_455 S
C1867 C1864 1.403 . S
C1867 C1868 1.524 . S
C1867 C1871 1.400 1_455 S
C1868 H1853 0.960 . S
C1868 H1854 0.960 . S
C1868 H1855 0.960 . S
C1868 C1867 1.524 . S
C1869 C1866 1.403 1_655 S
C1869 C1870 1.392 . S
C1869 C1873 1.495 . S
C1870 C1869 1.392 . S
C1870 C1871 1.385 . S
C1870 C1872 1.478 . S
C1871 H1865 0.930 . S
C1871 C1867 1.400 1_655 S
C1871 C1870 1.385 . S
C1872 C1870 1.478 . S
C1872 C1874 1.381 . S
C1872 C1878 1.383 . S
C1873 C1869 1.495 . S
C1873 H1879 0.959 . S
C1873 H1880 0.961 . S
C1873 H1881 0.974 . S
C1874 C1872 1.381 . S
C1874 C1875 1.394 . S
C1874 H1882 0.930 1_655 S
C1875 C1874 1.394 . S
C1875 C1876 1.383 . S
C1875 H1883 0.929 . S
C1876 C1875 1.383 . S
C1876 C1877 1.377 . S
C1877 H1861 0.930 . S
C1877 C1876 1.377 . S
C1877 C1878 1.379 . S
C1878 H1862 0.931 . S
C1878 C1872 1.383 . S
C1878 C1877 1.379 . S
H1879 C1873 0.959 . S
H1880 C1873 0.961 . S
H1881 C1873 0.974 . S
H1882 C1874 0.930 1_455 S
H1883 C1875 0.929 . S
H1884 C1892 0.929 . S
H1885 C1894 0.930 . S
H1886 C1896 0.930 . S
H1887 C1899 0.929 . S
H1888 C1902 0.930 . S
H1889 C1904 0.960 . S
H1890 C1904 0.960 . S
H1891 C1904 0.960 . S
C1892 H1884 0.929 . S
C1892 C1893 1.377 . S
C1892 C1894 1.384 . S
C1893 C1892 1.377 . S
C1893 C1899 1.390 . S
C1894 H1885 0.930 . S
C1894 C1892 1.384 . S
C1894 C1895 1.372 . S
C1895 C1894 1.372 . S
C1895 C1896 1.400 . S
C1895 C1900 1.490 . S
C1896 H1886 0.930 . S
C1896 C1895 1.400 . S
C1896 C1899 1.386 . S
H1897 C1913 0.930 . S
H1898 C1914 0.931 . S
C1899 H1887 0.929 . S
C1899 C1893 1.390 . S
C1899 C1896 1.386 . S
C1900 C1895 1.490 . S
C1900 C1902 1.395 . S
C1900 C1903 1.403 1_565 S
H1901 C1907 0.930 . S
C1902 H1888 0.930 . S
C1902 C1900 1.395 . S
C1902 C1905 1.403 1_554 S
C1903 C1900 1.403 1_545 S
C1903 C1904 1.524 . S
C1903 C1907 1.400 1_554 S
C1904 H1889 0.960 . S
C1904 H1890 0.960 . S
C1904 H1891 0.960 . S
C1904 C1903 1.524 . S
C1905 C1902 1.403 1_556 S
C1905 C1906 1.392 1_565 S
C1905 C1909 1.495 . S
C1906 C1905 1.392 1_545 S
C1906 C1907 1.385 . S
C1906 C1908 1.478 . S
C1907 H1901 0.930 . S
C1907 C1903 1.400 1_556 S
C1907 C1906 1.385 . S
C1908 C1906 1.478 . S
C1908 C1910 1.381 . S
C1908 C1914 1.383 . S
C1909 C1905 1.495 . S
C1909 H1915 0.959 . S
C1909 H1916 0.961 . S
C1909 H1917 0.960 . S
C1910 C1908 1.381 . S
C1910 C1911 1.394 . S
C1910 H1918 0.930 . S
C1911 C1910 1.394 . S
C1911 C1912 1.383 . S
C1911 H1919 0.929 . S
C1912 C1911 1.383 . S
C1912 C1913 1.377 . S
C1913 H1897 0.930 . S
C1913 C1912 1.377 . S
C1913 C1914 1.379 . S
C1914 H1898 0.931 . S
C1914 C1908 1.383 . S
C1914 C1913 1.379 . S
H1915 C1909 0.959 . S
H1916 C1909 0.961 . S
H1917 C1909 0.960 . S
H1918 C1910 0.930 . S
H1919 C1911 0.929 . S
C1065 C1017 1.647 . S
C1084 C20 1.624 . S
C1101 C108 1.644 . S
C1120 C585 1.660 . S
C1137 C205 1.643 . S
C1156 C673 1.631 . S
C1173 C284 1.642 . S
C1192 C761 1.648 . S
C1209 C841 1.644 . S
C1228 C372 1.630 . S
C1245 C469 1.645 . S
C1264 C937 1.657 . S
C1281 C313 1.279 . S
C1300 C49 1.238 . S
C1317 C401 1.287 . S
C1336 C137 1.279 . S
C1353 C497 1.277 . S
C1372 C233 1.316 . S
C1389 C557 1.282 . S
C1408 C812 1.312 . S
C1425 C645 1.280 . S
C1444 C909 1.238 . S
C1461 C733 1.271 . S
C1480 C988 1.278 . S
C1497 C724 0.650 . S
C1516 C57 0.671 . S
C1533 C145 0.644 . S
C1552 C821 0.645 . S
C1569 C900 0.646 . S
C1588 C225 0.655 . S
C1605 C997 0.651 . S
C1624 C321 0.678 . S
C1641 C548 0.645 . S
C1660 C409 0.647 . S
C1677 C489 0.649 . S
C1696 C636 0.668 . S
C1713 C849 1.716 . S
C1732 C29 1.721 . S
C1749 C117 1.714 . S
C1768 C929 1.699 . S
C1785 C1025 1.715 . S
C1804 C196 1.701 . S
C1821 C293 1.719 . S
C1840 C577 1.721 . S
C1857 C381 1.719 . S
C1876 C665 1.718 . S
C1893 C753 1.714 . S
C1912 C460 1.700 . S
