# Generated by pormake.
# Topology yff, (5)-cn, num edge types: 1
# Building blocks:
#     Node 0, Type 0, BuildingBlock: BEQFEK_clean_sbu_0, # of connection points: 5
#     Node 1, Type 0, BuildingBlock: BEQFEK_clean_sbu_0, # of connection points: 5
#     Node 2, Type 0, BuildingBlock: BEQFEK_clean_sbu_0, # of connection points: 5
#     Node 3, Type 0, BuildingBlock: BEQFEK_clean_sbu_0, # of connection points: 5
#     Node 4, Type 0, BuildingBlock: BEQFEK_clean_sbu_0, # of connection points: 5
#     Node 5, Type 0, BuildingBlock: BEQFEK_clean_sbu_0, # of connection points: 5
#     Node 6, Type 0, BuildingBlock: BEQFEK_clean_sbu_0, # of connection points: 5
#     Node 7, Type 0, BuildingBlock: BEQFEK_clean_sbu_0, # of connection points: 5
#     Node 8, Type 0, BuildingBlock: BEQFEK_clean_sbu_0, # of connection points: 5
#     Node 9, Type 0, BuildingBlock: BEQFEK_clean_sbu_0, # of connection points: 5
#     Node 10, Type 0, BuildingBlock: BEQFEK_clean_sbu_0, # of connection points: 5
#     Node 11, Type 0, BuildingBlock: BEQFEK_clean_sbu_0, # of connection points: 5
#     Node 12, Type 0, BuildingBlock: BEQFEK_clean_sbu_0, # of connection points: 5
#     Node 13, Type 0, BuildingBlock: BEQFEK_clean_sbu_0, # of connection points: 5
#     Node 14, Type 0, BuildingBlock: BEQFEK_clean_sbu_0, # of connection points: 5
#     Node 15, Type 0, BuildingBlock: BEQFEK_clean_sbu_0, # of connection points: 5
#     Edge 16, Type (0, 0), BuildingBlock: XIVTED_clean_linker_0, # of connection points: 2
#     Edge 17, Type (0, 0), BuildingBlock: XIVTED_clean_linker_0, # of connection points: 2
#     Edge 18, Type (0, 0), BuildingBlock: XIVTED_clean_linker_0, # of connection points: 2
#     Edge 19, Type (0, 0), BuildingBlock: XIVTED_clean_linker_0, # of connection points: 2
#     Edge 20, Type (0, 0), BuildingBlock: XIVTED_clean_linker_0, # of connection points: 2
#     Edge 21, Type (0, 0), BuildingBlock: XIVTED_clean_linker_0, # of connection points: 2
#     Edge 22, Type (0, 0), BuildingBlock: XIVTED_clean_linker_0, # of connection points: 2
#     Edge 23, Type (0, 0), BuildingBlock: XIVTED_clean_linker_0, # of connection points: 2
#     Edge 24, Type (0, 0), BuildingBlock: XIVTED_clean_linker_0, # of connection points: 2
#     Edge 25, Type (0, 0), BuildingBlock: XIVTED_clean_linker_0, # of connection points: 2
#     Edge 26, Type (0, 0), BuildingBlock: XIVTED_clean_linker_0, # of connection points: 2
#     Edge 27, Type (0, 0), BuildingBlock: XIVTED_clean_linker_0, # of connection points: 2
#     Edge 28, Type (0, 0), BuildingBlock: XIVTED_clean_linker_0, # of connection points: 2
#     Edge 29, Type (0, 0), BuildingBlock: XIVTED_clean_linker_0, # of connection points: 2
#     Edge 30, Type (0, 0), BuildingBlock: XIVTED_clean_linker_0, # of connection points: 2
#     Edge 31, Type (0, 0), BuildingBlock: XIVTED_clean_linker_0, # of connection points: 2
#     Edge 32, Type (0, 0), BuildingBlock: XIVTED_clean_linker_0, # of connection points: 2
#     Edge 33, Type (0, 0), BuildingBlock: XIVTED_clean_linker_0, # of connection points: 2
#     Edge 34, Type (0, 0), BuildingBlock: XIVTED_clean_linker_0, # of connection points: 2
#     Edge 35, Type (0, 0), BuildingBlock: XIVTED_clean_linker_0, # of connection points: 2
#     Edge 36, Type (0, 0), BuildingBlock: XIVTED_clean_linker_0, # of connection points: 2
#     Edge 37, Type (0, 0), BuildingBlock: XIVTED_clean_linker_0, # of connection points: 2
#     Edge 38, Type (0, 0), BuildingBlock: XIVTED_clean_linker_0, # of connection points: 2
#     Edge 39, Type (0, 0), BuildingBlock: XIVTED_clean_linker_0, # of connection points: 2
#     Edge 40, Type (0, 0), BuildingBlock: XIVTED_clean_linker_0, # of connection points: 2
#     Edge 41, Type (0, 0), BuildingBlock: XIVTED_clean_linker_0, # of connection points: 2
#     Edge 42, Type (0, 0), BuildingBlock: XIVTED_clean_linker_0, # of connection points: 2
#     Edge 43, Type (0, 0), BuildingBlock: XIVTED_clean_linker_0, # of connection points: 2
#     Edge 44, Type (0, 0), BuildingBlock: XIVTED_clean_linker_0, # of connection points: 2
#     Edge 45, Type (0, 0), BuildingBlock: XIVTED_clean_linker_0, # of connection points: 2
#     Edge 46, Type (0, 0), BuildingBlock: XIVTED_clean_linker_0, # of connection points: 2
#     Edge 47, Type (0, 0), BuildingBlock: XIVTED_clean_linker_0, # of connection points: 2
#     Edge 48, Type (0, 0), BuildingBlock: XIVTED_clean_linker_0, # of connection points: 2
#     Edge 49, Type (0, 0), BuildingBlock: XIVTED_clean_linker_0, # of connection points: 2
#     Edge 50, Type (0, 0), BuildingBlock: XIVTED_clean_linker_0, # of connection points: 2
#     Edge 51, Type (0, 0), BuildingBlock: XIVTED_clean_linker_0, # of connection points: 2
#     Edge 52, Type (0, 0), BuildingBlock: XIVTED_clean_linker_0, # of connection points: 2
#     Edge 53, Type (0, 0), BuildingBlock: XIVTED_clean_linker_0, # of connection points: 2
#     Edge 54, Type (0, 0), BuildingBlock: XIVTED_clean_linker_0, # of connection points: 2
#     Edge 55, Type (0, 0), BuildingBlock: XIVTED_clean_linker_0, # of connection points: 2
# Relax obj value: 0.527
# Max RMSD: 0.289
# Mean RMSD: 0.277
data_MOF--net-yff--node1-BEQFEK_clean_sbu_0--edge1-XIVTED_clean_linker_0
_symmetry_space_group_name_H-M    P1
_symmetry_Int_Tables_number       1
_symmetry_cell_setting            triclinic
loop_
_symmetry_equiv_pos_as_xyz
'x, y, z'
_cell_length_a     68.508497
_cell_length_b     66.459264
_cell_length_c     27.82681
_cell_angle_alpha  89.434285
_cell_angle_beta   89.364623
_cell_angle_gamma 88.857144
loop_
_atom_site_label
_atom_site_type_symbol
_atom_site_fract_x
_atom_site_fract_y
_atom_site_fract_z
_atom_type_partial_charge
Co0 Co 0.06817 0.0306 0.3024 0.0
Co1 Co 0.11284 0.02761 0.27862 0.0
C2 C 0.08859 0.9915 0.27364 0.0
O3 O 0.07403 0.00239 0.28624 0.0
O4 O 0.10547 -0.00112 0.26742 0.0
C5 C 0.03028 0.01645 0.32648 0.0
O6 O 0.03412 0.00307 0.29306 0.0
C7 C 0.15484 0.01685 0.27673 0.0
C8 C 0.16764 0.04709 0.27132 0.0
C9 C 0.1724 0.02684 0.27567 0.0
N10 N 0.1403 0.03066 0.27345 0.0
N11 N 0.14806 0.04866 0.26966 0.0
C12 C 0.15179 0.99486 0.28492 0.0
H13 H 0.14011 0.99272 0.31233 0.0
H14 H 0.1654 0.98705 0.2968 0.0
H15 H 0.14688 0.98807 0.25096 0.0
C16 C 0.08264 0.0455 0.39349 0.0
N17 N 0.08583 0.0386 0.34887 0.0
N18 N 0.10472 0.03631 0.34116 0.0
C19 C 0.11417 0.04145 0.38155 0.0
C20 C 0.10041 0.04754 0.41563 0.0
C21 C 0.06285 0.04932 0.41523 0.0
H22 H 0.05572 0.03469 0.4218 0.0
H23 H 0.06366 0.05741 0.4498 0.0
H24 H 0.05375 0.05829 0.38982 0.0
O25 O 0.06946 0.04863 0.24625 0.0
O26 O 0.10113 0.04605 0.22863 0.0
H27 H 0.14267 0.05259 0.36754 0.0
H28 H 0.13971 0.04142 0.42639 0.0
C29 C 0.13579 0.04015 0.38795 0.0
H30 H 0.14156 0.02568 0.3736 0.0
H31 H 0.13993 0.06208 0.2674 0.0
O32 O 0.04195 0.03081 0.33221 0.0
C33 C 0.08412 0.05338 0.22032 0.0
Co34 Co 0.44747 0.05909 0.81193 0.0
Co35 Co 0.44923 0.10316 0.77356 0.0
C36 C 0.48474 0.07701 0.77379 0.0
O37 O 0.47469 0.06293 0.79174 0.0
O38 O 0.47698 0.094 0.76318 0.0
C39 C 0.46148 0.02078 0.84084 0.0
O40 O 0.47119 0.02184 0.79994 0.0
C41 C 0.45882 0.14567 0.77158 0.0
C42 C 0.43723 0.15823 0.7204 0.0
C43 C 0.45255 0.16335 0.74956 0.0
N44 N 0.44765 0.13072 0.75624 0.0
N45 N 0.43487 0.13827 0.72536 0.0
C46 C 0.47586 0.14271 0.80423 0.0
H47 H 0.47562 0.12758 0.82144 0.0
H48 H 0.47589 0.15447 0.83219 0.0
H49 H 0.48955 0.1441 0.78286 0.0
C50 C 0.43362 0.0794 0.89891 0.0
N51 N 0.43988 0.08015 0.85309 0.0
N52 N 0.44069 0.09905 0.83861 0.0
C53 C 0.43461 0.11096 0.87529 0.0
C54 C 0.43012 0.0988 0.91451 0.0
C55 C 0.43161 0.06039 0.92772 0.0
H56 H 0.42255 0.04969 0.90785 0.0
H57 H 0.4463 0.05342 0.93276 0.0
H58 H 0.42489 0.06314 0.96356 0.0
O59 O 0.42944 0.05753 0.7572 0.0
O60 O 0.43124 0.08902 0.73031 0.0
H61 H 0.427 0.13821 0.83728 0.0
H62 H 0.42239 0.13897 0.90147 0.0
C63 C 0.43251 0.13337 0.87294 0.0
H64 H 0.44696 0.14011 0.87857 0.0
H65 H 0.42443 0.12983 0.70802 0.0
O66 O 0.4483 0.03396 0.84978 0.0
C67 C 0.42434 0.0714 0.72774 0.0
Co68 Co 0.42325 0.46133 0.34113 0.0
Co69 Co 0.37926 0.4582 0.31323 0.0
C70 C 0.40011 0.49617 0.29792 0.0
O71 O 0.4153 0.48758 0.31469 0.0
O72 O 0.38414 0.48688 0.29371 0.0
C73 C 0.45769 0.4814 0.37114 0.0
O74 O 0.45212 0.49551 0.34062 0.0
C75 C 0.33679 0.4645 0.31278 0.0
C76 C 0.32687 0.43331 0.30382 0.0
C77 C 0.3203 0.45286 0.31141 0.0
N78 N 0.35249 0.45232 0.30667 0.0
N79 N 0.34645 0.43376 0.30058 0.0
C80 C 0.33782 0.48635 0.32467 0.0
H81 H 0.35087 0.48908 0.34679 0.0
H82 H 0.32446 0.49161 0.34407 0.0
H83 H 0.33927 0.49517 0.29079 0.0
C84 C 0.40772 0.44944 0.43526 0.0
N85 N 0.40512 0.45385 0.38856 0.0
N86 N 0.38645 0.45297 0.37841 0.0
C87 C 0.37656 0.44784 0.41895 0.0
C88 C 0.38978 0.44564 0.45609 0.0
C89 C 0.42717 0.44841 0.45928 0.0
H90 H 0.43759 0.4394 0.43708 0.0
H91 H 0.43281 0.46386 0.46239 0.0
H92 H 0.42623 0.44153 0.4957 0.0
O93 O 0.42512 0.44093 0.29034 0.0
O94 O 0.39396 0.4395 0.26946 0.0
H95 H 0.3507 0.43279 0.39869 0.0
H96 H 0.35028 0.44167 0.45984 0.0
C97 C 0.35497 0.4452 0.42244 0.0
H98 H 0.3474 0.4592 0.41023 0.0
H99 H 0.35576 0.42128 0.29625 0.0
O100 O 0.44856 0.46494 0.373 0.0
C101 C 0.41175 0.43381 0.26438 0.0
Co102 Co 0.0081 0.368 0.78873 0.0
Co103 Co 0.04405 0.35836 0.8541 0.0
C104 C 0.01751 0.32607 0.81973 0.0
O105 O 0.00686 0.33833 0.79571 0.0
O106 O 0.03195 0.33206 0.84371 0.0
C107 C 0.96723 0.3735 0.76229 0.0
O108 O 0.96335 0.36047 0.79673 0.0
C109 C 0.05994 0.34955 0.94858 0.0
C110 C 0.09038 0.35937 0.9403 0.0
C111 C 0.07683 0.35295 0.97429 0.0
N112 N 0.06322 0.3545 0.90233 0.0
N113 N 0.08161 0.3598 0.89728 0.0
C114 C 0.04086 0.34179 0.96703 0.0
H115 H 0.03034 0.35448 0.97231 0.0
H116 H 0.04279 0.33354 0.00158 0.0
H117 H 0.03452 0.33165 0.94018 0.0
C118 C -0.00107 0.39656 0.86784 0.0
N119 N 0.00951 0.38117 0.84891 0.0
N120 N 0.02534 0.37818 0.87472 0.0
C121 C 0.02551 0.39197 0.91007 0.0
C122 C 0.00861 0.40365 0.90747 0.0
C123 C 0.98066 0.40533 0.84651 0.0
H124 H 0.98342 0.40965 0.80849 0.0
H125 H 0.96916 0.39386 0.8478 0.0
H126 H 0.9752 0.4187 0.86646 0.0
O127 O 0.03133 0.3759 0.74987 0.0
O128 O 0.05714 0.36789 0.79455 0.0
H129 H 0.0566 0.3925 0.92041 0.0
H130 H 0.04318 0.41286 0.94855 0.0
C131 C 0.04292 0.39661 0.93979 0.0
H132 H 0.04214 0.38814 0.97415 0.0
H133 H 0.0878 0.3649 0.86513 0.0
O134 O 0.98486 0.37802 0.75337 0.0
C135 C 0.04976 0.375 0.75604 0.0
Co136 Co 0.57506 0.95676 0.63977 0.0
Co137 Co 0.6174 0.95841 0.68096 0.0
C138 C 0.59127 0.99427 0.68387 0.0
O139 O 0.57833 0.98403 0.66366 0.0
O140 O 0.60786 0.98661 0.69467 0.0
C141 C 0.5378 0.97119 0.60984 0.0
O142 O 0.53845 0.98145 0.64989 0.0
C143 C 0.65936 0.96676 0.69443 0.0
C144 C 0.66822 0.93993 0.73709 0.0
C145 C 0.67513 0.95765 0.71747 0.0
N146 N 0.64382 0.95487 0.7003 0.0
N147 N 0.64928 0.93886 0.72566 0.0
C148 C 0.65871 0.98697 0.67028 0.0
H149 H 0.6435 0.99148 0.66131 0.0
H150 H 0.6675 0.9865 0.63663 0.0
H151 H 0.6652 0.99833 0.69399 0.0
C152 C 0.59657 0.94423 0.55378 0.0
N153 N 0.59636 0.94998 0.59983 0.0
N154 N 0.6144 0.95121 0.61521 0.0
C155 C 0.62674 0.94606 0.57884 0.0
C156 C 0.61573 0.94163 0.53888 0.0
C157 C 0.57864 0.94154 0.5244 0.0
H158 H 0.56815 0.93208 0.54462 0.0
H159 H 0.57162 0.95648 0.51778 0.0
H160 H 0.58204 0.93444 0.48931 0.0
O161 O 0.57244 0.93733 0.69347 0.0
O162 O 0.60249 0.93926 0.72192 0.0
H163 H 0.65285 0.9366 0.61486 0.0
H164 H 0.65523 0.93811 0.54997 0.0
C165 C 0.64849 0.94521 0.58224 0.0
H166 H 0.65394 0.96071 0.5854 0.0
H167 H 0.64001 0.92722 0.73556 0.0
O168 O 0.55127 0.95835 0.6006 0.0
C169 C 0.58542 0.93199 0.72366 0.0
Co170 Co 0.53526 0.57 0.18938 0.0
Co171 Co 0.52903 0.6138 0.22461 0.0
C172 C 0.49547 0.58766 0.21876 0.0
O173 O 0.50728 0.57394 0.20484 0.0
O174 O 0.50142 0.60504 0.22913 0.0
C175 C 0.52337 0.5484 0.11476 0.0
O176 O 0.51435 0.56594 0.1101 0.0
C177 C 0.51844 0.65664 0.22699 0.0
C178 C 0.53987 0.66806 0.27831 0.0
C179 C 0.52455 0.67396 0.24903 0.0
N180 N 0.5297 0.64118 0.2424 0.0
N181 N 0.54234 0.64805 0.2735 0.0
C182 C 0.50155 0.6546 0.19384 0.0
H183 H 0.50162 0.63943 0.17756 0.0
H184 H 0.50191 0.66626 0.16513 0.0
H185 H 0.48777 0.6569 0.21454 0.0
C186 C 0.55498 0.59063 0.10983 0.0
N187 N 0.54502 0.59125 0.1516 0.0
N188 N 0.54025 0.61001 0.16173 0.0
C189 C 0.54612 0.62182 0.1245 0.0
C190 C 0.55566 0.60982 0.09062 0.0
C191 C 0.56314 0.57182 0.08733 0.0
H192 H 0.56537 0.55984 0.11477 0.0
H193 H 0.55304 0.56667 0.0593 0.0
H194 H 0.57738 0.57478 0.06956 0.0
O195 O 0.55078 0.56735 0.24765 0.0
O196 O 0.54579 0.59878 0.27243 0.0
H197 H 0.54665 0.65128 0.15484 0.0
H198 H 0.5514 0.6506 0.09077 0.0
C199 C 0.54269 0.64404 0.12072 0.0
H200 H 0.52701 0.64713 0.11382 0.0
H201 H 0.55287 0.63915 0.2908 0.0
O202 O 0.53497 0.54563 0.14973 0.0
C203 C 0.55358 0.58127 0.27777 0.0
Co204 Co 0.91171 0.53519 0.64447 0.0
Co205 Co 0.86889 0.53114 0.68149 0.0
C206 C 0.89415 0.49523 0.67486 0.0
O207 O 0.90745 0.50668 0.65927 0.0
O208 O 0.87739 0.50223 0.68687 0.0
C209 C 0.94957 0.5223 0.62101 0.0
O210 O 0.94774 0.51306 0.66273 0.0
C211 C 0.82704 0.52178 0.69239 0.0
C212 C 0.81715 0.54698 0.73853 0.0
C213 C 0.81094 0.52962 0.71691 0.0
N214 N 0.84215 0.534 0.69942 0.0
N215 N 0.83606 0.5491 0.72665 0.0
C216 C 0.82845 0.50222 0.66633 0.0
H217 H 0.84317 0.49994 0.65013 0.0
H218 H 0.81743 0.50197 0.63748 0.0
H219 H 0.82526 0.4897 0.69171 0.0
C220 C 0.89238 0.55172 0.56022 0.0
N221 N 0.8915 0.54481 0.60555 0.0
N222 N 0.87323 0.5416 0.61789 0.0
C223 C 0.86185 0.54592 0.57954 0.0
C224 C 0.8737 0.55255 0.54195 0.0
C225 C 0.91104 0.55504 0.53299 0.0
H226 H 0.92143 0.56308 0.5559 0.0
H227 H 0.91766 0.54022 0.52332 0.0
H228 H 0.90858 0.56388 0.49952 0.0
O229 O 0.91357 0.55106 0.70253 0.0
O230 O 0.88327 0.5474 0.72976 0.0
H231 H 0.83303 0.54925 0.60909 0.0
H232 H 0.83405 0.54854 0.54398 0.0
C233 C 0.84043 0.54228 0.57758 0.0
H234 H 0.83797 0.52585 0.57921 0.0
H235 H 0.84497 0.56062 0.73813 0.0
O236 O 0.93635 0.53475 0.60792 0.0
C237 C 0.90035 0.55444 0.73398 0.0
Co238 Co 0.96379 0.91672 0.16883 0.0
Co239 Co 0.9631 0.87078 0.19505 0.0
C240 C -0.0005 0.89325 0.20375 0.0
O241 O 0.99006 0.90884 0.1899 0.0
O242 O 0.99133 0.87626 0.20868 0.0
C243 C 0.98129 0.95381 0.13987 0.0
O244 O 0.99504 0.94852 0.17029 0.0
C245 C 0.96751 0.82619 0.193 0.0
C246 C 0.93783 0.81795 0.21705 0.0
C247 C 0.95547 0.80988 0.20089 0.0
N248 N 0.95727 0.84311 0.20362 0.0
N249 N 0.93967 0.838 0.21861 0.0
C250 C 0.98764 0.82592 0.17172 0.0
H251 H 0.99119 0.84091 0.15642 0.0
H252 H 0.989 0.81427 0.1435 0.0
H253 H 0.99828 0.82211 0.20035 0.0
C254 C 0.95053 0.90189 0.0765 0.0
N255 N 0.95593 0.89853 0.12215 0.0
N256 N 0.95613 0.87905 0.13127 0.0
C257 C 0.95071 0.8694 0.09106 0.0
C258 C 0.94716 0.88364 0.05524 0.0
C259 C 0.94871 0.92229 0.05351 0.0
H260 H 0.94008 0.93245 0.07734 0.0
H261 H 0.9635 0.92855 0.04856 0.0
H262 H 0.94155 0.92172 0.01799 0.0
O263 O 0.945 0.91752 0.22277 0.0
O264 O 0.94567 0.88507 0.24243 0.0
H265 H 0.93907 0.84138 0.11502 0.0
H266 H 0.94357 0.8429 0.05089 0.0
C267 C 0.94909 0.8471 0.08671 0.0
H268 H 0.96365 0.83992 0.0921 0.0
H269 H 0.92865 0.84828 0.22827 0.0
O270 O 0.96601 0.94335 0.13752 0.0
C271 C 0.93933 0.90299 0.24926 0.0
Co272 Co 0.92063 0.96118 0.65697 0.0
Co273 Co 0.87724 0.96074 0.69355 0.0
C274 C 0.89948 -0.0015 0.69308 0.0
O275 O 0.91402 0.98881 0.67577 0.0
O276 O 0.88357 0.98982 0.70364 0.0
C277 C 0.95615 0.97805 0.62255 0.0
O278 O 0.95297 0.99118 0.65688 0.0
C279 C 0.83439 0.96742 0.70041 0.0
C280 C 0.82624 0.94121 0.74533 0.0
C281 C 0.81861 0.95818 0.72252 0.0
N282 N 0.85059 0.95634 0.70985 0.0
N283 N 0.84556 0.94068 0.73652 0.0
C284 C 0.8343 0.98705 0.67363 0.0
H285 H 0.84932 0.99264 0.66869 0.0
H286 H 0.8279 0.98505 0.63763 0.0
H287 H 0.82513 0.99834 0.69311 0.0
C288 C 0.90301 0.945 0.57094 0.0
N289 N 0.9013 0.95195 0.61592 0.0
N290 N 0.88281 0.95212 0.6293 0.0
C291 C 0.87213 0.94508 0.59265 0.0
C292 C 0.88469 0.94045 0.55464 0.0
C293 C 0.92193 0.9431 0.5437 0.0
H294 H 0.92763 0.95836 0.53655 0.0
H295 H 0.92024 0.93537 0.50891 0.0
H296 H 0.93273 0.93459 0.56575 0.0
O297 O 0.92344 0.94315 0.71332 0.0
O298 O 0.89264 0.94347 0.73911 0.0
H299 H 0.84625 0.93454 0.62767 0.0
H300 H 0.84553 0.93398 0.56256 0.0
C301 C 0.85052 0.94251 0.59409 0.0
H302 H 0.84324 0.95755 0.594 0.0
H303 H 0.85537 0.92971 0.74919 0.0
O304 O 0.94521 0.96291 0.61972 0.0
C305 C 0.91035 0.93748 0.74307 0.0
Co306 Co 0.54196 0.92365 0.15421 0.0
Co307 Co 0.54186 0.87858 0.18645 0.0
C308 C 0.50624 0.90375 0.19714 0.0
O309 O 0.51554 0.91835 0.17894 0.0
O310 O 0.51444 0.88665 0.20437 0.0
C311 C 0.52575 0.9619 0.13018 0.0
O312 O 0.51586 0.95944 0.17046 0.0
C313 C 0.53242 0.83602 0.19843 0.0
C314 C 0.56195 0.822 0.20122 0.0
C315 C 0.54227 0.81769 0.20162 0.0
N316 N 0.54572 0.85058 0.19612 0.0
N317 N 0.56332 0.84214 0.1983 0.0
C318 C 0.51092 0.83961 0.19323 0.0
H319 H 0.50817 0.85119 0.16497 0.0
H320 H 0.50335 0.82559 0.18395 0.0
H321 H 0.50484 0.84543 0.22764 0.0
C322 C 0.55226 0.90559 0.06155 0.0
N323 N 0.54835 0.9039 0.10877 0.0
N324 N 0.54734 0.88475 0.12073 0.0
C325 C 0.5505 0.87359 0.08091 0.0
C326 C 0.55367 0.88653 0.04235 0.0
C327 C 0.55394 0.92516 0.0349 0.0
H328 H 0.56318 0.9355 0.05537 0.0
H329 H 0.53918 0.93214 0.0314 0.0
H330 H 0.56033 0.92306 -0.00157 0.0
O331 O 0.56151 0.92411 0.20558 0.0
O332 O 0.56094 0.89202 0.22856 0.0
H333 H 0.56242 0.84463 0.09902 0.0
H334 H 0.5503 0.84566 0.04175 0.0
C335 C 0.54978 0.85115 0.07931 0.0
H336 H 0.53623 0.84598 0.09728 0.0
H337 H 0.57628 0.85011 0.19647 0.0
O338 O 0.5396 0.94963 0.12008 0.0
C339 C 0.56759 0.90971 0.23238 0.0
Co340 Co 0.56649 0.52898 0.69824 0.0
Co341 Co 0.61024 0.5243 0.72788 0.0
C342 C 0.58527 0.4887 0.72514 0.0
O343 O 0.57131 0.50028 0.71209 0.0
O344 O 0.60203 0.49554 0.73447 0.0
C345 C 0.52932 0.51599 0.66825 0.0
O346 O 0.53176 0.50241 0.70238 0.0
C347 C 0.65267 0.51461 0.72779 0.0
C348 C 0.66306 0.53892 0.77416 0.0
C349 C 0.66929 0.52228 0.74829 0.0
N350 N 0.6373 0.52628 0.74108 0.0
N351 N 0.64366 0.54077 0.76869 0.0
C352 C 0.65122 0.49583 0.69894 0.0
H353 H 0.63579 0.49265 0.6908 0.0
H354 H 0.65943 0.49747 0.66465 0.0
H355 H 0.65791 0.48299 0.71905 0.0
C356 C 0.58428 0.54605 0.61148 0.0
N357 N 0.58598 0.53785 0.65552 0.0
N358 N 0.60458 0.53514 0.66563 0.0
C359 C 0.61535 0.54154 0.62762 0.0
C360 C 0.60275 0.54867 0.59237 0.0
C361 C 0.56523 0.55015 0.58702 0.0
H362 H 0.55835 0.53562 0.57894 0.0
H363 H 0.5671 0.55871 0.55293 0.0
H364 H 0.55533 0.55879 0.61136 0.0
O365 O 0.56583 0.54578 0.75623 0.0
O366 O 0.59691 0.54181 0.77665 0.0
H367 H 0.6433 0.54725 0.65768 0.0
H368 H 0.64257 0.54914 0.59271 0.0
C369 C 0.63713 0.54077 0.62472 0.0
H370 H 0.64214 0.52486 0.62225 0.0
H371 H 0.63473 0.55194 0.78396 0.0
O372 O 0.54141 0.53017 0.66417 0.0
C373 C 0.57996 0.54954 0.78386 0.0
Co374 Co 0.96356 0.55447 0.16375 0.0
Co375 Co 0.96218 0.60024 0.19022 0.0
C376 C 0.99829 0.57637 0.20427 0.0
O377 O 0.98942 0.5612 0.18861 0.0
O378 O 0.98979 0.59351 0.20823 0.0
C379 C 0.98117 0.5266 0.10316 0.0
O380 O 0.99128 0.54277 0.09348 0.0
C381 C 0.9665 0.64468 0.18962 0.0
C382 C 0.93641 0.65383 0.21053 0.0
C383 C 0.95428 0.66137 0.1964 0.0
N384 N 0.95612 0.62805 0.19882 0.0
N385 N 0.93827 0.63369 0.21203 0.0
C386 C 0.98696 0.64441 0.17037 0.0
H387 H 0.9908 0.62944 0.1552 0.0
H388 H 0.98874 0.65631 0.14248 0.0
H389 H 0.99709 0.64751 0.2001 0.0
C390 C 0.94875 0.57096 0.07216 0.0
N391 N 0.95586 0.57345 0.1165 0.0
N392 N 0.95643 0.59282 0.1259 0.0
C393 C 0.95001 0.60327 0.08703 0.0
C394 C 0.94504 0.58969 0.05201 0.0
C395 C 0.94446 0.55104 0.05034 0.0
H396 H 0.95773 0.54527 0.03144 0.0
H397 H 0.93262 0.55247 0.02358 0.0
H398 H 0.94017 0.54009 0.07863 0.0
O399 O 0.94359 0.55374 0.21565 0.0
O400 O 0.94363 0.58619 0.2339 0.0
H401 H 0.93653 0.63062 0.11143 0.0
H402 H 0.94264 0.63067 0.04814 0.0
C403 C 0.94752 0.62564 0.08431 0.0
H404 H 0.96157 0.63276 0.09244 0.0
H405 H 0.92711 0.62374 0.22025 0.0
O406 O 0.96742 0.52768 0.13415 0.0
C407 C 0.93714 0.56852 0.24039 0.0
Co408 Co 0.4136 0.02998 0.31742 0.0
Co409 Co 0.37135 0.02266 0.28095 0.0
C410 C 0.40067 0.98946 0.28282 0.0
O411 O 0.41285 0.00163 0.29943 0.0
O412 O 0.38337 0.99513 0.27227 0.0
C413 C 0.45259 0.02086 0.34306 0.0
O414 O 0.45239 0.01062 0.30293 0.0
C415 C 0.33052 0.00945 0.27837 0.0
C416 C 0.31806 0.03096 0.22538 0.0
C417 C 0.31343 0.01487 0.25499 0.0
N418 N 0.34464 0.02186 0.26329 0.0
N419 N 0.33711 0.03455 0.23133 0.0
C420 C 0.3337 0.99207 0.31211 0.0
H421 H 0.34847 0.9925 0.32803 0.0
H422 H 0.32243 0.99219 0.341 0.0
H423 H 0.33223 0.97783 0.29208 0.0
C424 C 0.39236 0.0424 0.40368 0.0
N425 N 0.39233 0.03581 0.35831 0.0
N426 N 0.37429 0.03233 0.34524 0.0
C427 C 0.3622 0.03683 0.38267 0.0
C428 C 0.37338 0.04322 0.42068 0.0
C429 C 0.41045 0.04684 0.4311 0.0
H430 H 0.41975 0.0571 0.40959 0.0
H431 H 0.41878 0.03259 0.4374 0.0
H432 H 0.40706 0.05385 0.46631 0.0
O433 O 0.41348 0.04798 0.26073 0.0
O434 O 0.38353 0.04216 0.23525 0.0
H435 H 0.33465 0.03987 0.34714 0.0
H436 H 0.33372 0.04475 0.41104 0.0
C437 C 0.34049 0.03522 0.3826 0.0
H438 H 0.33656 0.01939 0.39002 0.0
H439 H 0.34493 0.04584 0.2139 0.0
O440 O 0.43797 0.03203 0.35383 0.0
C441 C 0.39973 0.05116 0.23101 0.0
Co442 Co 0.46741 0.41416 0.83865 0.0
Co443 Co 0.46192 0.36929 0.81224 0.0
C444 C 0.49942 0.38817 0.793 0.0
O445 O 0.49167 0.40429 0.80878 0.0
O446 O 0.48997 0.37189 0.79149 0.0
C447 C 0.49035 0.43779 0.89302 0.0
O448 O 0.49909 0.42008 0.89676 0.0
C449 C 0.46416 0.32532 0.80289 0.0
C450 C 0.4328 0.31798 0.80407 0.0
C451 C 0.45137 0.30947 0.80186 0.0
N452 N 0.45358 0.3425 0.8057 0.0
N453 N 0.43486 0.33803 0.80597 0.0
C454 C 0.48595 0.32419 0.80524 0.0
H455 H 0.49118 0.33522 0.83162 0.0
H456 H 0.49122 0.30886 0.81547 0.0
H457 H 0.49214 0.32822 0.76948 0.0
C458 C 0.45451 0.39946 0.93343 0.0
N459 N 0.45922 0.39634 0.88708 0.0
N460 N 0.45788 0.37708 0.87755 0.0
C461 C 0.45257 0.36725 0.9183 0.0
C462 C 0.4504 0.38119 0.95482 0.0
C463 C 0.45295 0.4197 0.95655 0.0
H464 H 0.44855 0.43136 0.92983 0.0
H465 H 0.46732 0.42353 0.97155 0.0
H466 H 0.44214 0.41962 0.98657 0.0
O467 O 0.44711 0.4179 0.79015 0.0
O468 O 0.44454 0.3859 0.76921 0.0
H469 H 0.43566 0.3413 0.90519 0.0
H470 H 0.44907 0.34011 0.96056 0.0
C471 C 0.44964 0.34507 0.92237 0.0
H472 H 0.46164 0.3369 0.90335 0.0
H473 H 0.42351 0.34868 0.80853 0.0
O474 O 0.47496 0.43953 0.86807 0.0
C475 C 0.4396 0.40442 0.76438 0.0
Co476 Co 0.07567 0.44778 0.35756 0.0
Co477 Co 0.11995 0.4515 0.33309 0.0
C478 C 0.09331 0.48674 0.32304 0.0
O479 O 0.07941 0.47571 0.33693 0.0
O480 O 0.11066 0.47973 0.31858 0.0
C481 C 0.0364 0.4601 0.37163 0.0
O482 O 0.03934 0.46974 0.33081 0.0
C483 C 0.16151 0.46192 0.33705 0.0
C484 C 0.17438 0.4393 0.28762 0.0
C485 C 0.17884 0.45563 0.31551 0.0
N486 N 0.1473 0.44985 0.32224 0.0
N487 N 0.15514 0.43633 0.29289 0.0
C488 C 0.15828 0.47988 0.36824 0.0
H489 H 0.143 0.4806 0.3819 0.0
H490 H 0.16854 0.47922 0.39882 0.0
H491 H 0.16142 0.49372 0.34713 0.0
C492 C 0.09109 0.43399 0.44966 0.0
N493 N 0.09404 0.44087 0.40479 0.0
N494 N 0.11289 0.44271 0.39658 0.0
C495 C 0.12258 0.43679 0.43665 0.0
C496 C 0.10895 0.43133 0.47154 0.0
C497 C 0.0714 0.42967 0.47087 0.0
H498 H 0.06282 0.42097 0.44497 0.0
H499 H 0.06353 0.44411 0.47783 0.0
H500 H 0.07247 0.421 0.50505 0.0
O501 O 0.07747 0.42894 0.30346 0.0
O502 O 0.10891 0.43253 0.28624 0.0
H503 H 0.15115 0.43001 0.40835 0.0
H504 H 0.14878 0.42691 0.473 0.0
C505 C 0.14428 0.43618 0.44146 0.0
H506 H 0.14947 0.45171 0.44635 0.0
H507 H 0.14729 0.42524 0.27579 0.0
O508 O 0.04952 0.44802 0.38708 0.0
C509 C 0.09253 0.42454 0.27824 0.0
Co510 Co 0.02596 0.0732 0.81463 0.0
Co511 Co 0.02495 0.11809 0.77964 0.0
C512 C 0.98895 0.09347 0.78157 0.0
O513 O 0.99876 0.07868 0.79827 0.0
O514 O 0.99695 0.11008 0.77088 0.0
C515 C 0.01233 0.03504 0.8465 0.0
O516 O -0.00093 0.03799 0.8133 0.0
C517 C 0.01604 0.16143 0.7851 0.0
C518 C 0.03732 0.17383 0.73299 0.0
C519 C 0.02258 0.1793 0.76504 0.0
N520 N 0.02659 0.14614 0.76608 0.0
N521 N 0.03921 0.15365 0.73479 0.0
C522 C -0.00077 0.15877 0.81929 0.0
H523 H 0.98686 0.16886 0.80879 0.0
H524 H 0.99453 0.14292 0.82012 0.0
H525 H 0.00357 0.16287 0.85607 0.0
C526 C 0.0419 0.09109 0.90049 0.0
N527 N 0.03443 0.0931 0.85632 0.0
N528 N 0.03452 0.11216 0.84297 0.0
C529 C 0.04267 0.12285 0.87854 0.0
C530 C 0.04741 0.10976 0.91599 0.0
C531 C 0.04373 0.07151 0.92738 0.0
H532 H 0.02906 0.06494 0.93177 0.0
H533 H 0.05014 0.07333 0.96347 0.0
H534 H 0.05306 0.06089 0.90635 0.0
O535 O 0.04298 0.07192 0.75702 0.0
O536 O 0.04206 0.1038 0.73202 0.0
H537 H 0.05137 0.14908 0.83862 0.0
H538 H 0.05919 0.14836 0.9006 0.0
C539 C 0.04719 0.14475 0.87582 0.0
H540 H 0.03408 0.15365 0.88678 0.0
H541 H 0.04921 0.145 0.71487 0.0
O542 O 0.02623 0.04729 0.84969 0.0
C543 C 0.04816 0.08565 0.72752 0.0
H544 H 0.97495 0.01336 0.60529 0.0
H545 H 0.01013 0.98173 0.34114 0.0
H546 H 0.96582 0.9547 0.54501 0.0
H547 H 0.0186 0.0406 0.40092 0.0
H548 H 0.9924 0.97207 0.41404 0.0
H549 H 0.99126 0.02351 0.5308 0.0
C550 C 0.9766 0.00251 0.57666 0.0
C551 C 0.96887 0.98319 0.58128 0.0
C552 C 0.99802 0.98715 0.41106 0.0
C553 C 0.98719 0.99485 0.49556 0.0
C554 C 0.00798 0.99276 0.36921 0.0
C555 C 0.0161 0.01192 0.36519 0.0
C556 C 0.99619 0.00082 0.44911 0.0
C557 C 0.01283 0.02557 0.40276 0.0
C558 C 0.98575 0.00839 0.53393 0.0
C559 C 0.9714 0.96981 0.54289 0.0
N560 N 0.0033 0.01968 0.44336 0.0
N561 N 0.98024 0.97593 0.50153 0.0
H562 H 0.49665 0.00069 0.84431 0.0
H563 H 0.48971 0.98039 0.12755 0.0
H564 H 0.44539 0.0148 0.93021 0.0
H565 H 0.5421 0.97065 0.04254 0.0
H566 H 0.47329 0.99357 0.05617 0.0
H567 H 0.5129 0.98794 0.91624 0.0
C568 C 0.48867 0.00077 0.87813 0.0
C569 C 0.4697 0.00904 0.88134 0.0
C570 C 0.48842 0.98869 0.05322 0.0
C571 C 0.4884 0.99489 0.96402 0.0
C572 C 0.49789 0.98137 0.09411 0.0
C573 C 0.51724 0.97414 0.09085 0.0
C574 C 0.49838 0.98874 0.00884 0.0
C575 C 0.52709 0.97578 0.04653 0.0
C576 C 0.49806 0.99372 0.91933 0.0
C577 C 0.46011 0.00878 0.9262 0.0
N578 N 0.51748 0.9827 0.00713 0.0
N579 N 0.46963 0.00199 0.96588 0.0
H580 H 0.50939 0.48164 0.65088 0.0
H581 H 0.47353 0.51785 0.39118 0.0
H582 H 0.52009 0.54091 0.59254 0.0
H583 H 0.47142 0.45635 0.4423 0.0
H584 H 0.48997 0.527 0.46501 0.0
H585 H 0.49305 0.47302 0.57667 0.0
C586 C 0.50803 0.49297 0.62279 0.0
C587 C 0.51627 0.51198 0.62777 0.0
C588 C 0.48602 0.51148 0.45989 0.0
C589 C 0.4979 0.50207 0.54236 0.0
C590 C 0.47678 0.5062 0.41756 0.0
C591 C 0.47086 0.48634 0.41079 0.0
C592 C 0.48929 0.49681 0.49572 0.0
C593 C 0.47548 0.47189 0.44623 0.0
C594 C 0.49889 0.48795 0.58019 0.0
C595 C 0.5141 0.52602 0.59006 0.0
N596 N 0.48424 0.47746 0.48738 0.0
N597 N 0.50523 0.52073 0.54879 0.0
H598 H 0.97006 0.48816 0.12548 0.0
H599 H 0.00636 0.44242 0.87566 0.0
H600 H 0.00048 0.52298 0.01758 0.0
H601 H 0.00065 0.40565 0.0032 0.0
H602 H -0.00069 0.47247 0.92388 0.0
H603 H 0.9764 0.45777 0.07781 0.0
C604 C 0.97804 0.4894 0.09179 0.0
C605 C 0.98483 0.50806 0.07549 0.0
C606 C -0.00045 0.45783 0.9413 0.0
C607 C 0.99186 0.4736 0.02083 0.0
C608 C 0.00345 0.44076 0.91383 0.0
C609 C 0.00385 0.42172 0.93574 0.0
C610 C 0.99585 0.45573 0.99083 0.0
C611 C 0.0003 0.42019 0.98528 0.0
C612 C 0.9817 0.47209 0.06478 0.0
C613 C 0.99511 0.50886 0.03164 0.0
N614 N 0.9963 0.43701 0.01129 0.0
N615 N 0.99821 0.4919 0.00568 0.0
H616 H 0.5335 0.95427 0.5214 0.0
H617 H 0.45669 0.0382 0.43118 0.0
H618 H 0.51105 0.00233 0.61096 0.0
H619 H 0.48122 0.99161 0.34035 0.0
H620 H 0.47699 0.02579 0.49702 0.0
H621 H 0.51394 0.96746 0.45508 0.0
C622 C 0.52432 0.96749 0.52729 0.0
C623 C 0.524 0.97728 0.57176 0.0
C624 C 0.47804 0.01837 0.46259 0.0
C625 C 0.50172 0.99258 0.49575 0.0
C626 C 0.46652 0.02552 0.42487 0.0
C627 C 0.46713 0.01583 0.38026 0.0
C628 C 0.49023 0.00139 0.4557 0.0
C629 C 0.48023 -0.00047 0.37413 0.0
C630 C 0.51324 0.97508 0.48928 0.0
C631 C 0.51176 0.9943 0.5773 0.0
N632 N 0.49114 0.99272 0.41156 0.0
N633 N 0.50117 0.00147 0.53964 0.0
H634 H 0.50061 0.55121 0.03552 0.0
H635 H 0.52062 0.4376 0.95592 0.0
H636 H 0.53916 0.51012 0.11181 0.0
H637 H 0.47585 0.47643 0.89491 0.0
H638 H 0.53051 0.46513 0.00699 0.0
H639 H 0.49437 0.52505 0.97757 0.0
C640 C 0.50781 0.53666 0.04008 0.0
C641 C 0.52028 0.53274 0.07885 0.0
C642 C 0.51859 0.46764 0.98227 0.0
C643 C 0.51316 0.50271 0.01248 0.0
C644 C 0.51294 0.45197 0.95302 0.0
C645 C 0.49728 0.45472 0.92139 0.0
C646 C 0.50853 0.4862 0.97973 0.0
C647 C 0.48792 0.47363 0.919 0.0
C648 C 0.50423 0.52173 0.0069 0.0
C649 C 0.52933 0.5137 0.08262 0.0
N650 N 0.49365 0.48865 0.94799 0.0
N651 N 0.52551 0.49931 0.04989 0.0
H652 H 0.95625 0.53671 0.52993 0.0
H653 H 0.0265 0.44395 0.45907 0.0
H654 H 0.97477 0.4901 0.62968 0.0
H655 H 0.01151 0.49254 0.36119 0.0
H656 H 0.00573 0.45958 0.52041 0.0
H657 H 0.97584 0.5205 0.46701 0.0
C658 C 0.96463 0.52321 0.53878 0.0
C659 C 0.96381 0.5147 0.58511 0.0
C660 C 0.00687 0.46676 0.48541 0.0
C661 C 0.98598 0.49591 0.51308 0.0
C662 C 0.01863 0.45777 0.45024 0.0
C663 C 0.02093 0.46708 0.40511 0.0
C664 C 0.99733 0.48518 0.47539 0.0
C665 C 0.01023 0.48487 0.39555 0.0
C666 C 0.97571 0.51389 0.50274 0.0
C667 C 0.97497 0.49721 0.59451 0.0
N668 N -0.00098 0.49345 0.4306 0.0
N669 N 0.9855 0.48832 0.5587 0.0
H670 H 0.01564 0.97281 0.12044 0.0
H671 H 0.9795 0.01333 0.86432 0.0
H672 H 0.95661 0.96764 0.06979 0.0
H673 H 0.03658 0.02499 0.9209 0.0
H674 H 0.97161 0.99471 0.93772 0.0
H675 H 0.02382 0.99181 0.04765 0.0
C676 C 0.00431 0.97591 0.09439 0.0
C677 C 0.98546 0.9684 0.10096 0.0
C678 C 0.9859 0.00127 0.934 0.0
C679 C 0.99483 0.98977 0.01721 0.0
C680 C 0.99049 0.01173 0.89186 0.0
C681 C 0.00868 0.02088 0.88662 0.0
C682 C -0.00039 -0.00011 0.9711 0.0
C683 C 0.02232 0.01833 0.92359 0.0
C684 C 0.00904 0.98662 0.05264 0.0
C685 C 0.97139 0.97291 0.06597 0.0
N686 N 0.01746 0.00817 0.96441 0.0
N687 N 0.97642 0.98312 0.02539 0.0
H688 H 0.11056 0.06434 0.15023 0.0
H689 H 0.02894 0.12184 0.99742 0.0
H690 H 0.05118 0.07539 0.19819 0.0
H691 H 0.08525 0.1039 0.94067 0.0
H692 H 0.0403 0.11375 0.07859 0.0
H693 H 0.1045 0.08622 0.08052 0.0
C694 C 0.0963 0.07147 0.14636 0.0
C695 C 0.08124 0.06768 0.17968 0.0
C696 C 0.05042 0.11218 0.04862 0.0
C697 C 0.07429 0.09289 0.10021 0.0
C698 C 0.04402 0.11713 0.00247 0.0
C699 C 0.05626 0.1136 0.96278 0.0
C700 C 0.06908 0.10337 0.05467 0.0
C701 C 0.0755 0.10698 0.97073 0.0
C702 C 0.09288 0.08402 0.10663 0.0
C703 C 0.06313 0.07755 0.17304 0.0
N704 N 0.08123 0.10166 0.01577 0.0
N705 N 0.06013 0.08953 0.1339 0.0
H706 H 0.4086 0.0351 0.70429 0.0
H707 H 0.36585 0.07948 0.46104 0.0
H708 H 0.40737 0.0981 0.66464 0.0
H709 H 0.37087 0.01617 0.49351 0.0
H710 H 0.37185 0.0869 0.54546 0.0
H711 H 0.38718 0.02831 0.63686 0.0
C712 C 0.40372 0.04753 0.6817 0.0
C713 C 0.41017 0.06713 0.68954 0.0
C714 C 0.371 0.07135 0.53462 0.0
C715 C 0.38553 0.05948 0.61257 0.0
C716 C 0.36724 0.06715 0.48662 0.0
C717 C 0.36783 0.04723 0.47081 0.0
C718 C 0.37576 0.05547 0.56644 0.0
C719 C 0.37017 0.03172 0.50478 0.0
C720 C 0.39141 0.04365 0.64333 0.0
C721 C 0.40312 0.08268 0.65947 0.0
N722 N 0.37453 0.03616 0.55093 0.0
N723 N 0.39138 0.07848 0.62206 0.0
H724 H 0.44792 0.41764 0.24336 0.0
H725 H 0.41403 0.3752 0.99172 0.0
H726 H 0.3879 0.41702 0.19761 0.0
H727 H 0.47392 0.38283 0.03176 0.0
H728 H 0.40385 0.3821 0.07494 0.0
H729 H 0.45716 0.39717 0.17423 0.0
C730 C 0.43663 0.41306 0.21906 0.0
C731 C 0.41715 0.41944 0.22585 0.0
C732 C 0.41926 0.38169 0.0659 0.0
C733 C 0.42768 0.39597 0.14639 0.0
C734 C 0.42505 0.37751 0.01865 0.0
C735 C 0.44478 0.37836 0.00549 0.0
C736 C 0.43339 0.38691 0.09968 0.0
C737 C 0.45856 0.3819 0.041 0.0
C738 C 0.44193 0.40131 0.17959 0.0
C739 C 0.40315 0.41273 0.19346 0.0
N740 N 0.45259 0.38633 0.08641 0.0
N741 N 0.40873 0.40159 0.15478 0.0
H742 H 0.11947 0.39401 0.50485 0.0
H743 H 0.04225 0.40817 0.70163 0.0
H744 H 0.10177 0.45337 0.55063 0.0
H745 H 0.08657 0.36246 0.72759 0.0
H746 H 0.06345 0.42346 0.64101 0.0
H747 H 0.10908 0.3805 0.58353 0.0
C748 C 0.11437 0.4043 0.53244 0.0
C749 C 0.1115 0.42479 0.52175 0.0
C750 C 0.06863 0.41018 0.66027 0.0
C751 C 0.09881 0.40948 0.60989 0.0
C752 C 0.05645 0.40132 0.69437 0.0
C753 C 0.06265 0.38397 0.71923 0.0
C754 C 0.08694 0.40133 0.64991 0.0
C755 C 0.0813 0.37584 0.70895 0.0
C756 C 0.10825 0.39659 0.57699 0.0
C757 C 0.10431 0.4375 0.55794 0.0
N758 N 0.09273 0.38439 0.67425 0.0
N759 N 0.09767 0.42957 0.59998 0.0
H760 H 0.61055 0.91203 0.78398 0.0
H761 H 0.52684 0.88824 0.9718 0.0
H762 H 0.54917 0.91982 0.75379 0.0
H763 H 0.58789 0.87683 -0.00225 0.0
H764 H 0.53408 0.89258 0.88603 0.0
H765 H 0.60222 0.89266 0.85579 0.0
C766 C 0.5953 0.9095 0.79218 0.0
C767 C 0.58052 0.91794 0.76334 0.0
C768 C 0.54586 0.88852 0.9101 0.0
C769 C 0.57086 0.8958 0.8459 0.0
C770 C 0.54167 0.88583 0.95888 0.0
C771 C 0.55682 0.88207 0.99127 0.0
C772 C 0.5654 0.88787 0.89412 0.0
C773 C 0.57586 0.87955 0.97346 0.0
C774 C 0.59055 0.89834 0.83316 0.0
C775 C 0.56104 0.91382 0.77531 0.0
N776 N 0.57969 0.88287 0.92607 0.0
N777 N 0.55676 0.90333 0.81616 0.0
H778 H 0.57275 0.54602 0.30191 0.0
H779 H 0.60338 0.58674 0.55714 0.0
H780 H 0.56387 0.60738 0.34837 0.0
H781 H 0.609 0.52469 0.51553 0.0
H782 H 0.59672 0.59612 0.47355 0.0
H783 H 0.59248 0.53933 0.37303 0.0
C784 C 0.575 0.55812 0.32691 0.0
C785 C 0.56632 0.57721 0.31953 0.0
C786 C 0.59999 0.58051 0.48228 0.0
C787 C 0.58905 0.56965 0.4009 0.0
C788 C 0.60409 0.57524 0.5298 0.0
C789 C 0.60683 0.55499 0.54266 0.0
C790 C 0.59829 0.56531 0.44789 0.0
C791 C 0.60713 0.5405 0.50654 0.0
C792 C 0.58637 0.55431 0.36741 0.0
C793 C 0.57001 0.59236 0.35287 0.0
N794 N 0.6025 0.54588 0.46079 0.0
N795 N 0.58093 0.58819 0.3923 0.0
H796 H 0.90678 0.5897 0.02823 0.0
H797 H 0.93446 0.57346 0.75273 0.0
H798 H 0.96451 0.59679 0.96865 0.0
H799 H 0.87754 0.56176 0.81393 0.0
H800 H 0.94377 0.58899 0.82776 0.0
H801 H 0.89392 0.5869 0.94671 0.0
C802 C 0.91658 0.59133 -0.00233 0.0
C803 C 0.93662 0.59354 0.0045 0.0
C804 C 0.92917 0.58323 0.82465 0.0
C805 C 0.92232 0.58976 0.91186 0.0
C806 C 0.92383 0.5743 0.78179 0.0
C807 C 0.9053 0.56592 0.7773 0.0
C808 C 0.91594 0.5837 0.86352 0.0
C809 C 0.89207 0.56777 0.81599 0.0
C810 C 0.90932 0.58956 0.9513 0.0
C811 C 0.94892 0.59521 0.96435 0.0
N812 N 0.89775 0.57622 0.85772 0.0
N813 N 0.94162 0.59302 0.9196 0.0
H814 H 0.92467 0.87615 0.31529 0.0
H815 H 0.87712 0.96298 0.47537 0.0
H816 H 0.92161 0.9389 0.27372 0.0
H817 H 0.88572 0.90185 0.52423 0.0
H818 H 0.88493 0.95245 0.39322 0.0
H819 H 0.90335 0.88358 0.38405 0.0
C820 C 0.91943 0.89147 0.32037 0.0
C821 C 0.92528 0.907 0.28909 0.0
C822 C 0.8845 0.94117 0.42155 0.0
C823 C 0.90071 0.91556 0.3677 0.0
C824 C 0.87971 0.94715 0.46822 0.0
C825 C 0.88065 0.93318 0.50614 0.0
C826 C 0.89057 0.92117 0.41319 0.0
C827 C 0.88463 0.91295 0.49559 0.0
C828 C 0.90717 0.89568 0.35958 0.0
C829 C 0.91776 0.9265 0.29723 0.0
N830 N 0.88984 0.90758 0.45015 0.0
N831 N 0.90605 0.93025 0.33598 0.0
H832 H 0.91081 0.87937 0.01949 0.0
H833 H 0.94671 0.92236 0.76595 0.0
H834 H 0.97119 0.8844 0.97759 0.0
H835 H 0.88638 0.9215 0.81254 0.0
H836 H 0.95556 0.90209 0.83636 0.0
H837 H 0.90126 0.88739 0.93669 0.0
C838 C 0.92204 0.88133 0.99221 0.0
C839 C 0.94175 0.88106 0.00476 0.0
C840 C 0.94036 0.90617 0.83092 0.0
C841 C 0.9311 0.89106 0.91098 0.0
C842 C 0.93529 0.91781 0.79076 0.0
C843 C 0.9158 0.92396 0.78365 0.0
C844 C 0.92586 0.90065 0.86437 0.0
C845 C 0.90163 0.91738 0.81681 0.0
C846 C 0.91663 0.88618 0.94518 0.0
C847 C 0.95583 0.88425 0.96879 0.0
N848 N 0.90697 0.90627 0.85593 0.0
N849 N 0.95023 0.88943 0.92359 0.0
H850 H 0.62196 0.90413 0.50399 0.0
H851 H 0.58492 0.94546 0.25296 0.0
H852 H 0.6208 0.96674 0.46301 0.0
H853 H 0.58363 0.88304 0.29736 0.0
H854 H 0.60592 0.95242 0.32084 0.0
H855 H 0.61712 0.89507 0.41998 0.0
C856 C 0.62168 0.9159 0.47675 0.0
C857 C 0.62184 0.93615 0.48993 0.0
C858 C 0.60127 0.93714 0.31536 0.0
C859 C 0.6153 0.92611 0.39461 0.0
C860 C 0.58919 0.93316 0.27666 0.0
C861 C 0.5821 0.91372 0.27002 0.0
C862 C 0.6062 0.9216 0.34789 0.0
C863 C 0.58842 0.89835 0.30152 0.0
C864 C 0.6186 0.91078 0.42894 0.0
C865 C 0.6209 0.95094 0.45383 0.0
N866 N 0.59987 0.90268 0.33945 0.0
N867 N 0.61722 0.94565 0.40784 0.0
H868 H 0.52942 0.61454 0.01944 0.0
H869 H 0.60756 0.56445 0.84358 0.0
H870 H 0.59113 0.61175 0.04648 0.0
H871 H 0.54574 0.56766 0.81506 0.0
H872 H 0.6025 0.58743 0.91036 0.0
H873 H 0.53584 0.60486 0.93606 0.0
C874 C 0.54441 0.6129 0.00699 0.0
C875 C 0.55981 0.61387 0.03952 0.0
C876 C 0.59004 0.58327 0.8893 0.0
C877 C 0.56725 0.60187 0.94531 0.0
C878 C 0.5929 0.56998 0.85128 0.0
C879 C 0.577 0.5638 0.82404 0.0
C880 C 0.57112 0.59035 0.90064 0.0
C881 C 0.5584 0.57179 0.8354 0.0
C882 C 0.54807 0.607 0.95967 0.0
C883 C 0.57892 0.6112 0.02218 0.0
N884 N 0.55594 0.58447 0.87315 0.0
N885 N 0.58211 0.60484 0.97647 0.0
H886 H 0.92138 0.53293 0.27226 0.0
H887 H 0.86753 0.58684 0.49049 0.0
H888 H 0.91708 0.59728 0.29149 0.0
H889 H 0.87328 0.52255 0.47713 0.0
H890 H 0.87721 0.59067 0.40613 0.0
H891 H 0.89714 0.52861 0.33667 0.0
C892 C 0.91526 0.54615 0.28973 0.0
C893 C 0.92161 0.56547 0.27709 0.0
C894 C 0.87573 0.57565 0.42101 0.0
C895 C 0.89372 0.56065 0.35045 0.0
C896 C 0.86983 0.5735 0.46892 0.0
C897 C 0.86963 0.55438 0.49036 0.0
C898 C 0.88181 0.55854 0.39503 0.0
C899 C 0.87318 0.53753 0.46146 0.0
C900 C 0.90133 0.54368 0.32633 0.0
C901 C 0.91295 0.58206 0.30056 0.0
N902 N 0.87966 0.54 0.41549 0.0
N903 N 0.89963 0.57924 0.33635 0.0
H904 H 0.45361 0.10712 0.98893 0.0
H905 H 0.37271 0.06453 0.16571 0.0
H906 H 0.39338 0.10022 0.95125 0.0
H907 H 0.43342 0.0699 0.20277 0.0
H908 H 0.37849 0.08485 0.09379 0.0
H909 H 0.44489 0.10199 0.07369 0.0
C910 C 0.43839 0.10548 -0.00104 0.0
C911 C 0.42412 0.10419 0.96359 0.0
C912 C 0.39051 0.0818 0.11791 0.0
C913 C 0.41414 0.09737 0.0596 0.0
C914 C 0.38724 0.0701 0.15896 0.0
C915 C 0.4027 0.06512 0.18989 0.0
C916 C 0.40942 0.08846 0.10733 0.0
C917 C 0.42112 0.0731 0.17961 0.0
C918 C 0.43343 0.10225 0.04717 0.0
C919 C 0.4047 0.1015 0.97785 0.0
N920 N 0.42403 0.08412 0.13885 0.0
N921 N 0.4003 0.09777 0.02476 0.0
H922 H 0.42525 0.44227 0.74356 0.0
H923 H 0.38283 0.40843 0.49287 0.0
H924 H 0.42195 0.38041 0.69868 0.0
H925 H 0.39131 0.46999 0.53307 0.0
H926 H 0.38892 0.39785 0.5762 0.0
H927 H 0.40539 0.45244 0.675 0.0
C928 C 0.4202 0.43078 0.71959 0.0
C929 C 0.42564 0.41048 0.72639 0.0
C930 C 0.38889 0.41374 0.56718 0.0
C931 C 0.40287 0.42208 0.64762 0.0
C932 C 0.38518 0.41975 0.51985 0.0
C933 C 0.38654 0.44004 0.50669 0.0
C934 C 0.39418 0.42819 0.60102 0.0
C935 C 0.39004 0.4542 0.5423 0.0
C936 C 0.4088 0.43661 0.68045 0.0
C937 C 0.41839 0.39627 0.69447 0.0
N938 N 0.39405 0.44798 0.58779 0.0
N939 N 0.40761 0.40237 0.6561 0.0
H940 H 0.10984 0.348 0.02707 0.0
H941 H 0.12203 0.41024 0.22019 0.0
H942 H 0.04913 0.36589 0.04038 0.0
H943 H 0.06008 0.4052 0.24659 0.0
H944 H 0.11951 0.3876 0.15297 0.0
H945 H 0.1153 0.36064 0.10774 0.0
C946 C 0.09759 0.35428 0.04725 0.0
C947 C 0.07903 0.35592 0.02658 0.0
C948 C 0.1065 0.3909 0.17401 0.0
C949 C 0.08532 0.37148 0.11798 0.0
C950 C 0.1079 0.40414 0.21225 0.0
C951 C 0.09121 0.40981 0.23894 0.0
C952 C 0.08824 0.38319 0.16221 0.0
C953 C 0.07332 0.40137 0.22687 0.0
C954 C 0.10076 0.36181 0.09308 0.0
C955 C 0.06365 0.36405 0.05449 0.0
N956 N 0.07228 0.38867 0.18903 0.0
N957 N 0.06721 0.37176 0.09843 0.0
H958 H 0.10308 0.0854 0.4496 0.0
H959 H 0.06412 0.04865 0.70557 0.0
H960 H 0.10122 0.02328 0.49427 0.0
H961 H 0.06244 0.11055 0.65675 0.0
H962 H 0.08386 0.0398 0.63512 0.0
H963 H 0.09539 0.09558 0.53217 0.0
C964 C 0.10185 0.07396 0.47744 0.0
C965 C 0.10294 0.05354 0.46575 0.0
C966 C 0.07934 0.05536 0.64005 0.0
C967 C 0.09332 0.06488 0.55932 0.0
C968 C 0.06799 0.06043 0.68023 0.0
C969 C 0.0613 0.08033 0.68675 0.0
C970 C 0.08401 0.07027 0.60595 0.0
C971 C 0.06702 0.09496 0.65293 0.0
C972 C 0.09721 0.07972 0.52435 0.0
C973 C 0.10072 0.03919 0.5024 0.0
N974 N 0.07787 0.08959 0.61377 0.0
N975 N 0.0957 0.04512 0.54752 0.0
H976 H 0.01714 0.89079 0.29099 0.0
H977 H 0.0956 0.96843 0.19385 0.0
H978 H 0.02792 0.90416 0.14146 0.0
H979 H 0.07237 0.9662 0.33823 0.0
H980 H 0.08036 0.93597 0.1778 0.0
H981 H 0.04688 0.90871 0.31142 0.0
C982 C 0.02632 0.89663 0.26234 0.0
C983 C 0.02021 0.89602 0.21456 0.0
C984 C 0.07913 0.94229 0.21345 0.0
C985 C 0.05371 0.91705 0.23747 0.0
C986 C 0.08795 0.9607 0.22264 0.0
C987 C 0.08508 0.96992 0.26726 0.0
C988 C 0.06751 0.93318 0.24929 0.0
C989 C 0.07479 0.95953 0.30326 0.0
C990 C 0.04313 0.90709 0.27397 0.0
C991 C 0.03229 0.90429 0.17875 0.0
N992 N 0.06617 0.94186 0.29334 0.0
N993 N 0.04828 0.91478 0.19095 0.0
H994 H 0.59141 0.01006 0.77387 0.0
H995 H 0.50774 0.08898 0.69754 0.0
H996 H 0.5761 0.02386 0.62733 0.0
H997 H 0.50924 0.0553 0.83074 0.0
H998 H 0.5407 0.07577 0.67797 0.0
H999 H 0.56989 0.03784 0.80065 0.0
C1000 C 0.58427 0.01957 0.74726 0.0
C1001 C 0.58539 0.01472 0.69845 0.0
C1002 C 0.53395 0.07174 0.71202 0.0
C1003 C 0.56059 0.04604 0.72856 0.0
C1004 C 0.51523 0.07928 0.72318 0.0
C1005 C 0.50573 0.07291 0.76535 0.0
C1006 C 0.54322 0.05807 0.74373 0.0
C1007 C 0.51599 0.0603 0.79744 0.0
C1008 C 0.57182 0.03524 0.76251 0.0
C1009 C 0.57553 0.0272 0.66534 0.0
N1010 N 0.5341 0.05314 0.78578 0.0
N1011 N 0.56328 0.0421 0.68101 0.0
H1012 H 0.39996 0.5106 0.20619 0.0
H1013 H 0.4692 0.59797 0.29014 0.0
H1014 H 0.40715 0.52831 0.35323 0.0
H1015 H 0.47477 0.56532 0.15743 0.0
H1016 H 0.43738 0.5823 0.30465 0.0
H1017 H 0.41734 0.54075 0.1798 0.0
C1018 C 0.40431 0.5214 0.23273 0.0
C1019 C 0.40219 0.5171 0.28182 0.0
C1020 C 0.44536 0.57904 0.27173 0.0
C1021 C 0.42255 0.55106 0.25234 0.0
C1022 C 0.46344 0.58801 0.26343 0.0
C1023 C 0.47467 0.58258 0.22305 0.0
C1024 C 0.43854 0.56482 0.23907 0.0
C1025 C 0.46664 0.56958 0.18948 0.0
C1026 C 0.41445 0.53845 0.21779 0.0
C1027 C 0.4085 0.53125 0.31499 0.0
N1028 N 0.44918 0.56096 0.1985 0.0
N1029 N 0.41875 0.54744 0.29973 0.0
H1030 H 0.91759 0.47372 0.61522 0.0
H1031 H 0.93083 0.38232 0.7998 0.0
H1032 H 0.88225 0.46772 0.74357 0.0
H1033 H 0.96828 0.39412 0.67754 0.0
H1034 H 0.90818 0.40887 0.77151 0.0
H1035 H 0.93101 0.44005 0.62865 0.0
C1036 C 0.91245 0.46512 0.64598 0.0
C1037 C 0.89902 0.47358 0.67877 0.0
C1038 C 0.92117 0.40535 0.75044 0.0
C1039 C 0.91472 0.43505 0.69512 0.0
C1040 C 0.93403 0.39013 0.76638 0.0
C1041 C 0.95155 0.38621 0.74119 0.0
C1042 C 0.92587 0.41654 0.70895 0.0
C1043 C 0.95506 0.39684 0.69835 0.0
C1044 C 0.92015 0.44588 0.65371 0.0
C1045 C 0.89266 0.46171 0.71763 0.0
N1046 N 0.94245 0.41161 0.68388 0.0
N1047 N 0.90088 0.44312 0.72533 0.0
H1048 H 0.9622 0.07842 0.84353 0.0
H1049 H 0.91328 0.0266 0.63146 0.0
H1050 H 0.96927 0.09918 0.69741 0.0
H1051 H 0.89357 0.01842 0.77771 0.0
H1052 H 0.9282 0.05816 0.6537 0.0
H1053 H 0.93206 0.06208 0.82153 0.0
C1054 C 0.95695 0.08013 0.8071 0.0
C1055 C 0.9682 0.09003 0.77211 0.0
C1056 C 0.9201 0.04989 0.68079 0.0
C1057 C 0.93417 0.07064 0.74605 0.0
C1058 C 0.91151 0.0319 0.668 0.0
C1059 C 0.90231 0.01994 0.70293 0.0
C1060 C 0.92005 0.0556 0.72924 0.0
C1061 C 0.90051 0.0273 0.74978 0.0
C1062 C 0.93977 0.07073 0.79443 0.0
C1063 C 0.96093 0.09172 0.72538 0.0
N1064 N 0.9098 0.04442 0.76192 0.0
N1065 N 0.94462 0.08161 0.71335 0.0
H1066 H 0.48675 0.89612 0.2818 0.0
H1067 H 0.39805 0.96798 0.19993 0.0
H1068 H 0.47899 0.9203 0.13887 0.0
H1069 H 0.42075 0.96499 0.34368 0.0
H1070 H 0.41925 0.93911 0.17821 0.0
H1071 H 0.45444 0.91021 0.30461 0.0
C1072 C 0.47794 0.90378 0.25491 0.0
C1073 C 0.48546 0.9073 0.20866 0.0
C1074 C 0.41907 0.94438 0.21493 0.0
C1075 C 0.44883 0.92323 0.23406 0.0
C1076 C 0.40688 0.96069 0.22736 0.0
C1077 C 0.40786 0.96885 0.27345 0.0
C1078 C 0.43209 0.93621 0.24904 0.0
C1079 C 0.41974 0.95913 0.30763 0.0
C1080 C 0.45962 0.91187 0.26789 0.0
C1081 C 0.47367 0.91747 0.17507 0.0
N1082 N 0.43161 0.94347 0.2946 0.0
N1083 N 0.45601 0.92525 0.18853 0.0
H1084 H 0.595 0.46147 0.79661 0.0
H1085 H 0.51316 0.38968 0.70115 0.0
H1086 H 0.56602 0.46692 0.6603 0.0
H1087 H 0.53105 0.39227 0.8487 0.0
H1088 H 0.54224 0.40834 0.67737 0.0
H1089 H 0.58098 0.42786 0.80755 0.0
C1090 C 0.58621 0.45531 0.7684 0.0
C1091 C 0.58135 0.46699 0.72792 0.0
C1092 C 0.54024 0.40416 0.71479 0.0
C1093 C 0.56538 0.42885 0.73991 0.0
C1094 C 0.5238 0.39321 0.72819 0.0
C1095 C 0.51981 0.38947 0.77684 0.0
C1096 C 0.55248 0.41163 0.75052 0.0
C1097 C 0.53375 0.39483 0.81073 0.0
C1098 C 0.57816 0.43621 0.77465 0.0
C1099 C 0.56984 0.45844 0.69241 0.0
N1100 N 0.54925 0.40609 0.79713 0.0
N1101 N 0.56207 0.44002 0.69947 0.0
H1102 H 0.01438 0.58498 0.29101 0.0
H1103 H 0.10164 0.50658 0.23894 0.0
H1104 H 0.02771 0.55901 0.15295 0.0
H1105 H 0.07224 0.5136 0.37559 0.0
H1106 H 0.0839 0.53658 0.20876 0.0
H1107 H 0.04473 0.56973 0.32253 0.0
C1108 C 0.02411 0.57676 0.26692 0.0
C1109 C 0.0186 0.57305 0.21956 0.0
C1110 C 0.08187 0.53193 0.24585 0.0
C1111 C 0.053 0.55559 0.25505 0.0
C1112 C 0.09209 0.51495 0.26313 0.0
C1113 C 0.08823 0.50765 0.30958 0.0
C1114 C 0.0679 0.54162 0.27553 0.0
C1115 C 0.07549 0.51878 0.3394 0.0
C1116 C 0.0413 0.56795 0.28492 0.0
C1117 C 0.03148 0.56206 0.18983 0.0
N1118 N 0.06557 0.53507 0.3217 0.0
N1119 N 0.04798 0.5535 0.2082 0.0
H1120 H 0.19016 0.99762 0.22137 0.0
H1121 H 0.29406 0.01439 0.34076 0.0
H1122 H 0.19984 0.03779 0.33899 0.0
H1123 H 0.28719 0.00202 0.19021 0.0
H1124 H 0.25873 0.01126 0.35248 0.0
H1125 H 0.22509 0.98807 0.22183 0.0
C1126 C 0.19959 0.00402 0.24796 0.0
C1127 C 0.19235 0.01854 0.28004 0.0
C1128 C 0.26506 0.00866 0.31718 0.0
C1129 C 0.23182 0.00766 0.28113 0.0
C1130 C 0.28519 0.0102 0.31061 0.0
C1131 C 0.29342 0.00823 0.26456 0.0
C1132 C 0.25322 0.00507 0.27744 0.0
C1133 C 0.28127 0.00354 0.22626 0.0
C1134 C 0.21942 -0.00135 0.24811 0.0
C1135 C 0.20503 0.02663 0.31353 0.0
N1136 N 0.26168 0.00224 0.23345 0.0
N1137 N 0.22421 0.02112 0.31316 0.0
H1138 H 0.4643 0.19208 0.68606 0.0
H1139 H 0.43645 0.2802 0.85878 0.0
H1140 H 0.45205 0.18156 0.83635 0.0
H1141 H 0.47588 0.28979 0.73931 0.0
H1142 H 0.44129 0.24382 0.85011 0.0
H1143 H 0.46835 0.22797 0.70281 0.0
C1144 C 0.46293 0.19733 0.7227 0.0
C1145 C 0.45817 0.184 0.76007 0.0
C1146 C 0.44914 0.25388 0.82629 0.0
C1147 C 0.46213 0.22472 0.7792 0.0
C1148 C 0.44631 0.27455 0.83108 0.0
C1149 C 0.45585 0.2878 0.79978 0.0
C1150 C 0.46115 0.24648 0.78901 0.0
C1151 C 0.46844 0.27992 0.76435 0.0
C1152 C 0.46525 0.2177 0.73226 0.0
C1153 C 0.45619 0.19138 0.80686 0.0
N1154 N 0.47051 0.25967 0.75935 0.0
N1155 N 0.45789 0.21136 0.81504 0.0
H1156 H 0.29555 0.43697 0.37729 0.0
H1157 H 0.2023 0.47085 0.24584 0.0
H1158 H 0.29894 0.48222 0.2657 0.0
H1159 H 0.20015 0.45666 0.39716 0.0
H1160 H 0.23748 0.47623 0.25176 0.0
H1161 H 0.26052 0.44425 0.38599 0.0
C1162 C 0.28887 0.44863 0.3551 0.0
C1163 C 0.2999 0.45897 0.32059 0.0
C1164 C 0.22923 0.47251 0.28396 0.0
C1165 C 0.26004 0.4671 0.3296 0.0
C1166 C 0.20924 0.46945 0.28055 0.0
C1167 C 0.19853 0.46343 0.32114 0.0
C1168 C 0.23856 0.46878 0.32788 0.0
C1169 C 0.20802 0.4615 0.36527 0.0
C1170 C 0.26898 0.45288 0.36027 0.0
C1171 C 0.29076 0.47399 0.2927 0.0
N1172 N 0.22767 0.46372 0.36731 0.0
N1173 N 0.27118 0.47734 0.29706 0.0
H1174 H 0.02918 0.2971 0.88388 0.0
H1175 H 0.01544 0.19533 0.85404 0.0
H1176 H 0.99818 0.30538 0.75072 0.0
H1177 H 0.01775 0.21092 0.70329 0.0
H1178 H 0.00979 0.23076 0.87303 0.0
H1179 H 0.02668 0.26077 0.87554 0.0
C1180 C 0.02156 0.29125 0.85326 0.0
C1181 C 0.01393 0.30426 0.81784 0.0
C1182 C 0.01145 0.22643 0.83579 0.0
C1183 C 0.01086 0.26266 0.80824 0.0
C1184 C 0.01428 0.20613 0.82486 0.0
C1185 C 0.01686 0.20019 0.77697 0.0
C1186 C 0.01136 0.24085 0.79854 0.0
C1187 C 0.01589 0.21496 0.74069 0.0
C1188 C 0.01996 0.27049 0.84877 0.0
C1189 C 0.00421 0.29588 0.77891 0.0
N1190 N 0.01323 0.23465 0.75222 0.0
N1191 N 0.00326 0.27555 0.77468 0.0
H1192 H 0.69761 0.95653 0.79672 0.0
H1193 H 0.79617 0.97357 0.64869 0.0
H1194 H 0.69902 0.97273 0.64634 0.0
H1195 H 0.79348 0.95567 0.79798 0.0
H1196 H 0.76078 0.97917 0.64988 0.0
H1197 H 0.73264 0.962 0.80072 0.0
C1198 C 0.70529 0.96161 0.76473 0.0
C1199 C 0.69544 0.9643 0.72124 0.0
C1200 C 0.76799 0.97437 0.6826 0.0
C1201 C 0.73563 0.97014 0.72509 0.0
C1202 C 0.78824 0.97138 0.68207 0.0
C1203 C 0.79778 0.96428 0.72342 0.0
C1204 C 0.75727 0.97012 0.72472 0.0
C1205 C 0.78665 0.96104 0.76524 0.0
C1206 C 0.72529 0.96471 0.76696 0.0
C1207 C 0.706 0.97087 0.68079 0.0
N1208 N 0.767 0.96386 0.76473 0.0
N1209 N 0.72563 0.97331 0.68351 0.0
H1210 H 0.5258 0.69167 0.16086 0.0
H1211 H 0.51422 0.80321 0.2624 0.0
H1212 H 0.51381 0.70391 0.31025 0.0
H1213 H 0.55233 0.78635 0.1446 0.0
H1214 H 0.50385 0.76804 0.2695 0.0
H1215 H 0.52464 0.72785 0.1437 0.0
C1216 C 0.52214 0.70197 0.18966 0.0
C1217 C 0.51961 0.69495 0.23689 0.0
C1218 C 0.51422 0.77219 0.24163 0.0
C1219 C 0.51882 0.73612 0.21784 0.0
C1220 C 0.52007 0.79214 0.23751 0.0
C1221 C 0.53416 0.79743 0.20305 0.0
C1222 C 0.52234 0.75772 0.2105 0.0
C1223 C 0.54152 0.78268 0.17183 0.0
C1224 C 0.52174 0.72257 0.17998 0.0
C1225 C 0.51572 0.70888 0.27336 0.0
N1226 N 0.53553 0.76343 0.17632 0.0
N1227 N 0.51555 0.72892 0.26315 0.0
H1228 H 0.79071 0.52422 0.79973 0.0
H1229 H 0.68979 0.51222 0.66633 0.0
H1230 H 0.78626 0.51748 0.64638 0.0
H1231 H 0.69563 0.51847 0.81953 0.0
H1232 H 0.72521 0.50751 0.65908 0.0
H1233 H 0.75637 0.51577 0.80858 0.0
C1234 C 0.78251 0.52059 0.768 0.0
C1235 C 0.79124 0.52144 0.72235 0.0
C1236 C 0.7187 0.50943 0.69441 0.0
C1237 C 0.75184 0.51224 0.73184 0.0
C1238 C 0.69845 0.51186 0.69862 0.0
C1239 C 0.68982 0.51556 0.74368 0.0
C1240 C 0.7303 0.5109 0.73554 0.0
C1241 C 0.70178 0.51572 0.78413 0.0
C1242 C 0.76292 0.51577 0.77298 0.0
C1243 C 0.78009 0.51664 0.68228 0.0
N1244 N 0.72142 0.51363 0.77907 0.0
N1245 N 0.76082 0.51252 0.68787 0.0
H1246 H 0.93014 0.68715 0.14961 0.0
H1247 H 0.98799 0.78582 0.21869 0.0
H1248 H 0.98595 0.68423 0.21968 0.0
H1249 H 0.93021 0.78513 0.15885 0.0
H1250 H 0.99059 0.74911 0.20817 0.0
H1251 H 0.93312 0.72336 0.1407 0.0
C1252 C 0.94314 0.6942 0.16277 0.0
C1253 C 0.95774 0.68278 0.18572 0.0
C1254 C 0.97749 0.75709 0.19676 0.0
C1255 C 0.96117 0.72443 0.17655 0.0
C1256 C 0.97605 0.77801 0.20246 0.0
C1257 C 0.95881 0.78842 0.18981 0.0
C1258 C 0.9616 0.74673 0.17806 0.0
C1259 C 0.94366 0.77762 0.1696 0.0
C1260 C 0.94487 0.7149 0.1577 0.0
C1261 C 0.97441 0.69257 0.20161 0.0
N1262 N 0.94538 0.75742 0.16458 0.0
N1263 N 0.97557 0.71297 0.19737 0.0
loop_
_geom_bond_atom_site_label_1
_geom_bond_atom_site_label_2
_geom_bond_distance
_geom_bond_site_symmetry_2
_ccdc_geom_bond_type
Co0 O3 1.970 1_545 S
Co0 N17 1.989 . S
Co0 O25 1.967 . S
Co0 O32 1.920 . S
Co1 O4 1.966 . S
Co1 N10 2.022 . S
Co1 N18 1.993 . S
Co1 O26 1.941 . S
C2 O3 1.258 . S
C2 O4 1.263 1_565 S
O3 Co0 1.970 1_565 S
O3 C2 1.258 . S
O4 Co1 1.966 . S
O4 C2 1.263 1_545 S
C5 O6 1.238 . S
C5 O32 1.289 . S
O6 C5 1.238 . S
C7 C9 1.400 . S
C7 N10 1.351 . S
C7 C12 1.501 1_545 S
C8 C9 1.387 . S
C8 N11 1.341 . S
C9 C7 1.400 . S
C9 C8 1.387 . S
N10 Co1 2.022 . S
N10 C7 1.351 . S
N10 N11 1.365 . S
N11 C8 1.341 . S
N11 N10 1.365 . S
N11 H31 0.862 . S
C12 C7 1.501 1_565 S
C12 H13 0.961 . S
C12 H14 0.961 . S
C12 H15 0.960 . S
H13 C12 0.961 . S
H14 C12 0.961 . S
H15 C12 0.960 . S
C16 N17 1.342 . S
C16 C20 1.401 . S
C16 C21 1.499 . S
N17 Co0 1.989 . S
N17 C16 1.342 . S
N17 N18 1.388 . S
N18 Co1 1.993 . S
N18 N17 1.388 . S
N18 C19 1.346 . S
C19 N18 1.346 . S
C19 C20 1.396 . S
C19 C29 1.510 . S
C20 C16 1.401 . S
C20 C19 1.396 . S
C21 C16 1.499 . S
C21 H22 0.959 . S
C21 H23 0.960 . S
C21 H24 0.961 . S
H22 C21 0.959 . S
H23 C21 0.960 . S
H24 C21 0.961 . S
O25 Co0 1.967 . S
O25 C33 1.258 . S
O26 Co1 1.941 . S
O26 C33 1.266 . S
H27 C29 0.959 . S
H28 C29 0.961 . S
C29 C19 1.510 . S
C29 H27 0.959 . S
C29 H28 0.961 . S
C29 H30 0.960 . S
H30 C29 0.960 . S
H31 N11 0.862 . S
O32 Co0 1.920 . S
O32 C5 1.289 . S
C33 O25 1.258 . S
C33 O26 1.266 . S
Co34 O37 1.970 . S
Co34 N51 1.989 . S
Co34 O59 1.967 . S
Co34 O66 1.920 . S
Co35 O38 1.966 . S
Co35 N44 2.022 . S
Co35 N52 1.993 . S
Co35 O60 1.941 . S
C36 O37 1.258 . S
C36 O38 1.263 . S
O37 Co34 1.970 . S
O37 C36 1.258 . S
O38 Co35 1.966 . S
O38 C36 1.263 . S
C39 O40 1.235 . S
C39 O66 1.289 . S
O40 C39 1.235 . S
C41 C43 1.400 . S
C41 N44 1.351 . S
C41 C46 1.501 . S
C42 C43 1.387 . S
C42 N45 1.341 . S
C43 C41 1.400 . S
C43 C42 1.387 . S
N44 Co35 2.022 . S
N44 C41 1.351 . S
N44 N45 1.365 . S
N45 C42 1.341 . S
N45 N44 1.365 . S
N45 H65 0.862 . S
C46 C41 1.501 . S
C46 H47 0.961 . S
C46 H48 0.961 . S
C46 H49 0.960 . S
H47 C46 0.961 . S
H48 C46 0.961 . S
H49 C46 0.960 . S
C50 N51 1.342 . S
C50 C54 1.401 1_556 S
C50 C55 1.499 1_556 S
N51 Co34 1.989 . S
N51 C50 1.342 . S
N51 N52 1.388 . S
N52 Co35 1.993 . S
N52 N51 1.388 . S
N52 C53 1.346 . S
C53 N52 1.346 . S
C53 C54 1.396 1_556 S
C53 C63 1.510 . S
C54 C50 1.401 1_554 S
C54 C53 1.396 1_554 S
C55 C50 1.499 1_554 S
C55 H56 0.959 1_554 S
C55 H57 0.960 . S
C55 H58 0.961 . S
H56 C55 0.959 1_556 S
H57 C55 0.960 . S
H58 C55 0.961 . S
O59 Co34 1.967 . S
O59 C67 1.258 . S
O60 Co35 1.941 . S
O60 C67 1.266 . S
H61 C63 0.959 . S
H62 C63 0.961 1_554 S
C63 C53 1.510 . S
C63 H61 0.959 . S
C63 H62 0.961 1_556 S
C63 H64 0.960 . S
H64 C63 0.960 . S
H65 N45 0.862 . S
O66 Co34 1.920 . S
O66 C39 1.289 . S
C67 O59 1.258 . S
C67 O60 1.266 . S
Co68 O71 1.970 . S
Co68 N85 1.989 . S
Co68 O93 1.967 . S
Co68 O100 1.920 . S
Co69 O72 1.966 . S
Co69 N78 2.022 . S
Co69 N86 1.993 . S
Co69 O94 1.941 . S
C70 O71 1.258 . S
C70 O72 1.263 . S
O71 Co68 1.970 . S
O71 C70 1.258 . S
O72 Co69 1.966 . S
O72 C70 1.263 . S
C73 O74 1.235 . S
C73 O100 1.289 . S
O74 C73 1.235 . S
C75 C77 1.400 . S
C75 N78 1.351 . S
C75 C80 1.501 . S
C76 C77 1.387 . S
C76 N79 1.341 . S
C77 C75 1.400 . S
C77 C76 1.387 . S
N78 Co69 2.022 . S
N78 C75 1.351 . S
N78 N79 1.365 . S
N79 C76 1.341 . S
N79 N78 1.365 . S
N79 H99 0.862 . S
C80 C75 1.501 . S
C80 H81 0.961 . S
C80 H82 0.961 . S
C80 H83 0.960 . S
H81 C80 0.961 . S
H82 C80 0.961 . S
H83 C80 0.960 . S
C84 N85 1.342 . S
C84 C88 1.401 . S
C84 C89 1.499 . S
N85 Co68 1.989 . S
N85 C84 1.342 . S
N85 N86 1.388 . S
N86 Co69 1.993 . S
N86 N85 1.388 . S
N86 C87 1.346 . S
C87 N86 1.346 . S
C87 C88 1.396 . S
C87 C97 1.510 . S
C88 C84 1.401 . S
C88 C87 1.396 . S
C89 C84 1.499 . S
C89 H90 0.959 . S
C89 H91 0.960 . S
C89 H92 0.961 . S
H90 C89 0.959 . S
H91 C89 0.960 . S
H92 C89 0.961 . S
O93 Co68 1.967 . S
O93 C101 1.258 . S
O94 Co69 1.941 . S
O94 C101 1.266 . S
H95 C97 0.959 . S
H96 C97 0.961 . S
C97 C87 1.510 . S
C97 H95 0.959 . S
C97 H96 0.961 . S
C97 H98 0.960 . S
H98 C97 0.960 . S
H99 N79 0.862 . S
O100 Co68 1.920 . S
O100 C73 1.289 . S
C101 O93 1.258 . S
C101 O94 1.266 . S
Co102 O105 1.973 . S
Co102 N119 1.989 . S
Co102 O127 1.967 . S
Co102 O134 1.920 1_455 S
Co103 O106 1.966 . S
Co103 N112 2.022 . S
Co103 N120 1.993 . S
Co103 O128 1.941 . S
C104 O105 1.273 . S
C104 O106 1.263 . S
O105 Co102 1.973 . S
O105 C104 1.273 . S
O106 Co103 1.966 . S
O106 C104 1.263 . S
C107 O108 1.235 . S
C107 O134 1.289 . S
O108 C107 1.235 . S
C109 C111 1.400 . S
C109 N112 1.351 1_554 S
C109 C114 1.501 . S
C110 C111 1.387 . S
C110 N113 1.323 1_554 S
C111 C109 1.400 . S
C111 C110 1.387 . S
N112 Co103 2.022 . S
N112 C109 1.351 1_556 S
N112 N113 1.370 . S
N113 C110 1.323 1_556 S
N113 N112 1.370 . S
N113 H133 0.874 . S
C114 C109 1.501 . S
C114 H115 0.947 1_554 S
C114 H116 0.961 . S
C114 H117 0.960 . S
H115 C114 0.947 1_556 S
H116 C114 0.961 . S
H117 C114 0.960 . S
C118 N119 1.342 1_655 S
C118 C122 1.401 1_655 S
C118 C123 1.499 . S
N119 Co102 1.989 . S
N119 C118 1.342 1_455 S
N119 N120 1.388 . S
N120 Co103 1.993 . S
N120 N119 1.388 . S
N120 C121 1.346 . S
C121 N120 1.346 . S
C121 C122 1.396 . S
C121 C131 1.510 1_556 S
C122 C118 1.401 1_455 S
C122 C121 1.396 . S
C123 C118 1.499 . S
C123 H124 0.959 . S
C123 H125 0.960 . S
C123 H126 0.961 . S
H124 C123 0.959 . S
H125 C123 0.960 . S
H126 C123 0.961 . S
O127 Co102 1.967 . S
O127 C135 1.258 . S
O128 Co103 1.941 . S
O128 C135 1.266 . S
H129 C131 0.959 . S
H130 C131 0.961 . S
C131 C121 1.510 1_554 S
C131 H129 0.959 . S
C131 H130 0.961 . S
C131 H132 0.960 . S
H132 C131 0.960 . S
H133 N113 0.874 . S
O134 Co102 1.920 1_655 S
O134 C107 1.289 . S
C135 O127 1.258 . S
C135 O128 1.266 . S
Co136 O139 2.000 . S
Co136 N153 1.989 . S
Co136 O161 1.967 . S
Co136 O168 1.920 . S
Co137 O140 1.966 . S
Co137 N146 2.022 . S
Co137 N154 1.993 . S
Co137 O162 1.941 . S
C138 O139 1.250 1_545 S
C138 O140 1.263 1_545 S
O139 Co136 2.000 . S
O139 C138 1.250 1_565 S
O140 Co137 1.966 . S
O140 C138 1.263 1_565 S
C141 O142 1.235 . S
C141 O168 1.289 . S
O142 C141 1.235 . S
C143 C145 1.400 . S
C143 N146 1.351 . S
C143 C148 1.501 1_565 S
C144 C145 1.387 . S
C144 N147 1.341 . S
C145 C143 1.400 . S
C145 C144 1.387 . S
N146 Co137 2.022 . S
N146 C143 1.351 . S
N146 N147 1.365 . S
N147 C144 1.341 . S
N147 N146 1.365 . S
N147 H167 0.862 . S
C148 C143 1.501 1_545 S
C148 H149 0.961 . S
C148 H150 0.961 . S
C148 H151 0.960 . S
H149 C148 0.961 . S
H150 C148 0.961 . S
H151 C148 0.960 . S
C152 N153 1.342 . S
C152 C156 1.401 . S
C152 C157 1.499 . S
N153 Co136 1.989 . S
N153 C152 1.342 . S
N153 N154 1.388 . S
N154 Co137 1.993 . S
N154 N153 1.388 . S
N154 C155 1.346 . S
C155 N154 1.346 . S
C155 C156 1.396 . S
C155 C165 1.510 . S
C156 C152 1.401 . S
C156 C155 1.396 . S
C157 C152 1.499 . S
C157 H158 0.959 . S
C157 H159 0.960 . S
C157 H160 0.961 . S
H158 C157 0.959 . S
H159 C157 0.960 . S
H160 C157 0.961 . S
O161 Co136 1.967 . S
O161 C169 1.258 . S
O162 Co137 1.941 . S
O162 C169 1.266 . S
H163 C165 0.959 . S
H164 C165 0.961 . S
C165 C155 1.510 . S
C165 H163 0.959 . S
C165 H164 0.961 . S
C165 H166 0.960 . S
H166 C165 0.960 . S
H167 N147 0.862 . S
O168 Co136 1.920 . S
O168 C141 1.289 . S
C169 O161 1.258 . S
C169 O162 1.266 . S
Co170 O173 1.970 . S
Co170 N187 1.989 . S
Co170 O195 1.967 . S
Co170 O202 1.920 . S
Co171 O174 1.966 . S
Co171 N180 2.022 . S
Co171 N188 1.993 . S
Co171 O196 1.941 . S
C172 O173 1.258 . S
C172 O174 1.263 . S
O173 Co170 1.970 . S
O173 C172 1.258 . S
O174 Co171 1.966 . S
O174 C172 1.263 . S
C175 O176 1.235 . S
C175 O202 1.289 . S
O176 C175 1.235 . S
C177 C179 1.400 . S
C177 N180 1.351 . S
C177 C182 1.501 . S
C178 C179 1.387 . S
C178 N181 1.341 . S
C179 C177 1.400 . S
C179 C178 1.387 . S
N180 Co171 2.022 . S
N180 C177 1.351 . S
N180 N181 1.365 . S
N181 C178 1.341 . S
N181 N180 1.365 . S
N181 H201 0.862 . S
C182 C177 1.501 . S
C182 H183 0.961 . S
C182 H184 0.961 . S
C182 H185 0.960 . S
H183 C182 0.961 . S
H184 C182 0.961 . S
H185 C182 0.960 . S
C186 N187 1.342 . S
C186 C190 1.401 1_554 S
C186 C191 1.499 1_554 S
N187 Co170 1.989 . S
N187 C186 1.342 . S
N187 N188 1.388 . S
N188 Co171 1.993 . S
N188 N187 1.388 . S
N188 C189 1.346 . S
C189 N188 1.346 . S
C189 C190 1.396 1_554 S
C189 C199 1.510 . S
C190 C186 1.401 1_556 S
C190 C189 1.396 1_556 S
C191 C186 1.499 1_556 S
C191 H192 0.959 1_556 S
C191 H193 0.960 . S
C191 H194 0.961 . S
H192 C191 0.959 1_554 S
H193 C191 0.960 . S
H194 C191 0.961 . S
O195 Co170 1.967 . S
O195 C203 1.258 . S
O196 Co171 1.941 . S
O196 C203 1.266 . S
H197 C199 0.959 . S
H198 C199 0.961 1_556 S
C199 C189 1.510 . S
C199 H197 0.959 . S
C199 H198 0.961 1_554 S
C199 H200 0.960 . S
H200 C199 0.960 . S
H201 N181 0.862 . S
O202 Co170 1.920 . S
O202 C175 1.289 . S
C203 O195 1.258 . S
C203 O196 1.266 . S
Co204 O207 1.970 . S
Co204 N221 1.989 . S
Co204 O229 1.967 . S
Co204 O236 1.920 . S
Co205 O208 1.966 . S
Co205 N214 2.022 . S
Co205 N222 1.993 . S
Co205 O230 1.941 . S
C206 O207 1.258 . S
C206 O208 1.263 . S
O207 Co204 1.970 . S
O207 C206 1.258 . S
O208 Co205 1.966 . S
O208 C206 1.263 . S
C209 O210 1.235 . S
C209 O236 1.289 . S
O210 C209 1.235 . S
C211 C213 1.400 . S
C211 N214 1.351 . S
C211 C216 1.501 . S
C212 C213 1.387 . S
C212 N215 1.341 . S
C213 C211 1.400 . S
C213 C212 1.387 . S
N214 Co205 2.022 . S
N214 C211 1.351 . S
N214 N215 1.365 . S
N215 C212 1.341 . S
N215 N214 1.365 . S
N215 H235 0.862 . S
C216 C211 1.501 . S
C216 H217 0.961 . S
C216 H218 0.961 . S
C216 H219 0.960 . S
H217 C216 0.961 . S
H218 C216 0.961 . S
H219 C216 0.960 . S
C220 N221 1.342 . S
C220 C224 1.401 . S
C220 C225 1.499 . S
N221 Co204 1.989 . S
N221 C220 1.342 . S
N221 N222 1.388 . S
N222 Co205 1.993 . S
N222 N221 1.388 . S
N222 C223 1.346 . S
C223 N222 1.346 . S
C223 C224 1.396 . S
C223 C233 1.510 . S
C224 C220 1.401 . S
C224 C223 1.396 . S
C225 C220 1.499 . S
C225 H226 0.959 . S
C225 H227 0.960 . S
C225 H228 0.961 . S
H226 C225 0.959 . S
H227 C225 0.960 . S
H228 C225 0.961 . S
O229 Co204 1.967 . S
O229 C237 1.258 . S
O230 Co205 1.941 . S
O230 C237 1.266 . S
H231 C233 0.959 . S
H232 C233 0.961 . S
C233 C223 1.510 . S
C233 H231 0.959 . S
C233 H232 0.961 . S
C233 H234 0.960 . S
H234 C233 0.960 . S
H235 N215 0.862 . S
O236 Co204 1.920 . S
O236 C209 1.289 . S
C237 O229 1.258 . S
C237 O230 1.266 . S
Co238 O241 1.970 1_655 S
Co238 N255 1.989 . S
Co238 O263 1.967 . S
Co238 O270 1.920 . S
Co239 O242 1.966 . S
Co239 N248 2.022 . S
Co239 N256 1.993 . S
Co239 O264 1.941 . S
C240 O241 1.258 . S
C240 O242 1.263 1_455 S
O241 Co238 1.970 1_455 S
O241 C240 1.258 . S
O242 Co239 1.966 . S
O242 C240 1.263 1_655 S
C243 O244 1.273 . S
C243 O270 1.289 . S
O244 C243 1.273 . S
C245 C247 1.400 . S
C245 N248 1.351 . S
C245 C250 1.501 1_655 S
C246 C247 1.387 . S
C246 N249 1.341 . S
C247 C245 1.400 . S
C247 C246 1.387 . S
N248 Co239 2.022 . S
N248 C245 1.351 . S
N248 N249 1.365 . S
N249 C246 1.341 . S
N249 N248 1.365 . S
N249 H269 0.862 . S
C250 C245 1.501 1_455 S
C250 H251 0.961 . S
C250 H252 0.961 . S
C250 H253 0.960 . S
H251 C250 0.961 . S
H252 C250 0.961 . S
H253 C250 0.960 . S
C254 N255 1.342 1_556 S
C254 C258 1.401 . S
C254 C259 1.499 . S
N255 Co238 1.989 . S
N255 C254 1.342 1_554 S
N255 N256 1.388 . S
N256 Co239 1.993 . S
N256 N255 1.388 . S
N256 C257 1.346 . S
C257 N256 1.346 . S
C257 C258 1.396 1_554 S
C257 C267 1.510 . S
C258 C254 1.401 . S
C258 C257 1.396 1_556 S
C259 C254 1.499 . S
C259 H260 0.975 . S
C259 H261 0.960 . S
C259 H262 0.961 . S
H260 C259 0.975 . S
H261 C259 0.960 . S
H262 C259 0.961 . S
O263 Co238 1.967 . S
O263 C271 1.258 . S
O264 Co239 1.941 . S
O264 C271 1.266 . S
H265 C267 0.959 . S
H266 C267 0.961 1_556 S
C267 C257 1.510 . S
C267 H265 0.959 . S
C267 H266 0.961 1_554 S
C267 H268 0.960 . S
H268 C267 0.960 . S
H269 N249 0.862 . S
O270 Co238 1.920 . S
O270 C243 1.289 . S
C271 O263 1.258 . S
C271 O264 1.266 . S
Co272 O275 1.970 1_565 S
Co272 N289 1.989 . S
Co272 O297 1.967 . S
Co272 O304 1.920 . S
Co273 O276 1.966 . S
Co273 N282 2.022 . S
Co273 N290 1.993 . S
Co273 O298 1.941 . S
C274 O275 1.258 . S
C274 O276 1.263 1_545 S
O275 Co272 1.970 1_545 S
O275 C274 1.258 . S
O276 Co273 1.966 . S
O276 C274 1.263 1_565 S
C277 O278 1.270 . S
C277 O304 1.289 . S
O278 C277 1.270 . S
C279 C281 1.400 . S
C279 N282 1.351 . S
C279 C284 1.501 1_565 S
C280 C281 1.387 . S
C280 N283 1.341 . S
C281 C279 1.400 . S
C281 C280 1.387 . S
N282 Co273 2.022 . S
N282 C279 1.351 . S
N282 N283 1.365 . S
N283 C280 1.341 . S
N283 N282 1.365 . S
N283 H303 0.862 . S
C284 C279 1.501 1_545 S
C284 H285 0.961 . S
C284 H286 0.961 . S
C284 H287 0.960 . S
H285 C284 0.961 . S
H286 C284 0.961 . S
H287 C284 0.960 . S
C288 N289 1.342 . S
C288 C292 1.401 . S
C288 C293 1.499 . S
N289 Co272 1.989 . S
N289 C288 1.342 . S
N289 N290 1.388 . S
N290 Co273 1.993 . S
N290 N289 1.388 . S
N290 C291 1.346 . S
C291 N290 1.346 . S
C291 C292 1.396 . S
C291 C301 1.510 . S
C292 C288 1.401 . S
C292 C291 1.396 . S
C293 C288 1.499 . S
C293 H294 0.959 . S
C293 H295 0.960 . S
C293 H296 0.961 . S
H294 C293 0.959 . S
H295 C293 0.960 . S
H296 C293 0.961 . S
O297 Co272 1.967 . S
O297 C305 1.258 . S
O298 Co273 1.941 . S
O298 C305 1.266 . S
H299 C301 0.959 . S
H300 C301 0.961 . S
C301 C291 1.510 . S
C301 H299 0.959 . S
C301 H300 0.961 . S
C301 H302 0.960 . S
H302 C301 0.960 . S
H303 N283 0.862 . S
O304 Co272 1.920 . S
O304 C277 1.289 . S
C305 O297 1.258 . S
C305 O298 1.266 . S
Co306 O309 1.970 . S
Co306 N323 1.989 . S
Co306 O331 1.967 . S
Co306 O338 1.920 . S
Co307 O310 1.966 . S
Co307 N316 2.022 . S
Co307 N324 1.993 . S
Co307 O332 1.941 . S
C308 O309 1.258 . S
C308 O310 1.263 . S
O309 Co306 1.970 . S
O309 C308 1.258 . S
O310 Co307 1.966 . S
O310 C308 1.263 . S
C311 O312 1.235 . S
C311 O338 1.289 . S
O312 C311 1.235 . S
C313 C315 1.400 . S
C313 N316 1.351 . S
C313 C318 1.501 . S
C314 C315 1.387 . S
C314 N317 1.341 . S
C315 C313 1.400 . S
C315 C314 1.387 . S
N316 Co307 2.022 . S
N316 C313 1.351 . S
N316 N317 1.365 . S
N317 C314 1.341 . S
N317 N316 1.365 . S
N317 H337 0.862 . S
C318 C313 1.501 . S
C318 H319 0.961 . S
C318 H320 0.961 . S
C318 H321 0.960 . S
H319 C318 0.961 . S
H320 C318 0.961 . S
H321 C318 0.960 . S
C322 N323 1.342 . S
C322 C326 1.401 1_554 S
C322 C327 1.499 1_554 S
N323 Co306 1.989 . S
N323 C322 1.342 . S
N323 N324 1.388 . S
N324 Co307 1.993 . S
N324 N323 1.388 . S
N324 C325 1.346 . S
C325 N324 1.346 . S
C325 C326 1.396 1_554 S
C325 C335 1.510 . S
C326 C322 1.401 1_556 S
C326 C325 1.396 1_556 S
C327 C322 1.499 1_556 S
C327 H328 0.959 1_556 S
C327 H329 0.960 . S
C327 H330 0.961 . S
H328 C327 0.959 1_554 S
H329 C327 0.960 . S
H330 C327 0.961 . S
O331 Co306 1.967 . S
O331 C339 1.258 . S
O332 Co307 1.941 . S
O332 C339 1.266 . S
H333 C335 0.959 . S
H334 C335 0.961 1_556 S
C335 C325 1.510 . S
C335 H333 0.959 . S
C335 H334 0.961 1_554 S
C335 H336 0.960 . S
H336 C335 0.960 . S
H337 N317 0.862 . S
O338 Co306 1.920 . S
O338 C311 1.289 . S
C339 O331 1.258 . S
C339 O332 1.266 . S
Co340 O343 1.970 . S
Co340 N357 1.989 . S
Co340 O365 1.967 . S
Co340 O372 1.920 . S
Co341 O344 1.966 . S
Co341 N350 2.022 . S
Co341 N358 1.993 . S
Co341 O366 1.941 . S
C342 O343 1.258 . S
C342 O344 1.263 . S
O343 Co340 1.970 . S
O343 C342 1.258 . S
O344 Co341 1.966 . S
O344 C342 1.263 . S
C345 O346 1.235 . S
C345 O372 1.289 . S
O346 C345 1.235 . S
C347 C349 1.400 . S
C347 N350 1.351 . S
C347 C352 1.501 . S
C348 C349 1.387 . S
C348 N351 1.341 . S
C349 C347 1.400 . S
C349 C348 1.387 . S
N350 Co341 2.022 . S
N350 C347 1.351 . S
N350 N351 1.365 . S
N351 C348 1.341 . S
N351 N350 1.365 . S
N351 H371 0.862 . S
C352 C347 1.501 . S
C352 H353 0.961 . S
C352 H354 0.961 . S
C352 H355 0.960 . S
H353 C352 0.961 . S
H354 C352 0.961 . S
H355 C352 0.960 . S
C356 N357 1.342 . S
C356 C360 1.401 . S
C356 C361 1.499 . S
N357 Co340 1.989 . S
N357 C356 1.342 . S
N357 N358 1.388 . S
N358 Co341 1.993 . S
N358 N357 1.388 . S
N358 C359 1.346 . S
C359 N358 1.346 . S
C359 C360 1.396 . S
C359 C369 1.510 . S
C360 C356 1.401 . S
C360 C359 1.396 . S
C361 C356 1.499 . S
C361 H362 0.959 . S
C361 H363 0.960 . S
C361 H364 0.961 . S
H362 C361 0.959 . S
H363 C361 0.960 . S
H364 C361 0.961 . S
O365 Co340 1.967 . S
O365 C373 1.258 . S
O366 Co341 1.941 . S
O366 C373 1.266 . S
H367 C369 0.959 . S
H368 C369 0.961 . S
C369 C359 1.510 . S
C369 H367 0.959 . S
C369 H368 0.961 . S
C369 H370 0.960 . S
H370 C369 0.960 . S
H371 N351 0.862 . S
O372 Co340 1.920 . S
O372 C345 1.289 . S
C373 O365 1.258 . S
C373 O366 1.266 . S
Co374 O377 1.970 . S
Co374 N391 1.989 . S
Co374 O399 1.967 . S
Co374 O406 1.920 . S
Co375 O378 1.966 . S
Co375 N384 2.022 . S
Co375 N392 1.993 . S
Co375 O400 1.941 . S
C376 O377 1.258 1_455 S
C376 O378 1.263 1_455 S
O377 Co374 1.970 . S
O377 C376 1.258 1_655 S
O378 Co375 1.966 . S
O378 C376 1.263 1_655 S
C379 O380 1.235 . S
C379 O406 1.289 . S
O380 C379 1.235 . S
C381 C383 1.400 . S
C381 N384 1.351 . S
C381 C386 1.501 1_655 S
C382 C383 1.387 . S
C382 N385 1.341 . S
C383 C381 1.400 . S
C383 C382 1.387 . S
N384 Co375 2.022 . S
N384 C381 1.351 . S
N384 N385 1.365 . S
N385 C382 1.341 . S
N385 N384 1.365 . S
N385 H405 0.862 . S
C386 C381 1.501 1_455 S
C386 H387 0.961 . S
C386 H388 0.961 . S
C386 H389 0.960 . S
H387 C386 0.961 . S
H388 C386 0.961 . S
H389 C386 0.960 . S
C390 N391 1.342 . S
C390 C394 1.401 1_554 S
C390 C395 1.499 1_554 S
N391 Co374 1.989 . S
N391 C390 1.342 . S
N391 N392 1.388 . S
N392 Co375 1.993 . S
N392 N391 1.388 . S
N392 C393 1.346 . S
C393 N392 1.346 . S
C393 C394 1.396 1_554 S
C393 C403 1.510 . S
C394 C390 1.401 1_556 S
C394 C393 1.396 1_556 S
C395 C390 1.499 1_556 S
C395 H396 0.959 1_556 S
C395 H397 0.960 . S
C395 H398 0.961 . S
H396 C395 0.959 1_554 S
H397 C395 0.960 . S
H398 C395 0.961 . S
O399 Co374 1.967 . S
O399 C407 1.258 . S
O400 Co375 1.941 . S
O400 C407 1.266 . S
H401 C403 0.959 . S
H402 C403 0.961 1_556 S
C403 C393 1.510 . S
C403 H401 0.959 . S
C403 H402 0.961 1_554 S
C403 H404 0.960 . S
H404 C403 0.960 . S
H405 N385 0.862 . S
O406 Co374 1.920 . S
O406 C379 1.289 . S
C407 O399 1.258 . S
C407 O400 1.266 . S
Co408 O411 1.970 1_545 S
Co408 N425 1.989 . S
Co408 O433 1.967 . S
Co408 O440 1.920 . S
Co409 O412 1.966 1_545 S
Co409 N418 2.022 . S
Co409 N426 1.993 . S
Co409 O434 1.941 . S
C410 O411 1.258 . S
C410 O412 1.263 . S
O411 Co408 1.970 1_565 S
O411 C410 1.258 . S
O412 Co409 1.966 1_565 S
O412 C410 1.263 . S
C413 O414 1.235 1_545 S
C413 O440 1.289 . S
O414 C413 1.235 1_565 S
C415 C417 1.400 . S
C415 N418 1.351 . S
C415 C420 1.501 1_545 S
C416 C417 1.387 . S
C416 N419 1.341 . S
C417 C415 1.400 . S
C417 C416 1.387 . S
N418 Co409 2.022 . S
N418 C415 1.351 . S
N418 N419 1.365 . S
N419 C416 1.341 . S
N419 N418 1.365 . S
N419 H439 0.862 . S
C420 C415 1.501 1_565 S
C420 H421 0.961 . S
C420 H422 0.961 . S
C420 H423 0.960 . S
H421 C420 0.961 . S
H422 C420 0.961 . S
H423 C420 0.960 . S
C424 N425 1.342 . S
C424 C428 1.401 . S
C424 C429 1.499 . S
N425 Co408 1.989 . S
N425 C424 1.342 . S
N425 N426 1.388 . S
N426 Co409 1.993 . S
N426 N425 1.388 . S
N426 C427 1.346 . S
C427 N426 1.346 . S
C427 C428 1.396 . S
C427 C437 1.510 . S
C428 C424 1.401 . S
C428 C427 1.396 . S
C429 C424 1.499 . S
C429 H430 0.959 . S
C429 H431 0.960 . S
C429 H432 0.961 . S
H430 C429 0.959 . S
H431 C429 0.960 . S
H432 C429 0.961 . S
O433 Co408 1.967 . S
O433 C441 1.258 . S
O434 Co409 1.941 . S
O434 C441 1.266 . S
H435 C437 0.959 . S
H436 C437 0.961 . S
C437 C427 1.510 . S
C437 H435 0.959 . S
C437 H436 0.961 . S
C437 H438 0.960 . S
H438 C437 0.960 . S
H439 N419 0.862 . S
O440 Co408 1.920 . S
O440 C413 1.289 . S
C441 O433 1.258 . S
C441 O434 1.266 . S
Co442 O445 1.970 . S
Co442 N459 1.989 . S
Co442 O467 1.967 . S
Co442 O474 1.920 . S
Co443 O446 1.966 . S
Co443 N452 2.022 . S
Co443 N460 1.993 . S
Co443 O468 1.941 . S
C444 O445 1.258 . S
C444 O446 1.263 . S
O445 Co442 1.970 . S
O445 C444 1.258 . S
O446 Co443 1.966 . S
O446 C444 1.263 . S
C447 O448 1.235 . S
C447 O474 1.289 . S
O448 C447 1.235 . S
C449 C451 1.400 . S
C449 N452 1.351 . S
C449 C454 1.501 . S
C450 C451 1.387 . S
C450 N453 1.341 . S
C451 C449 1.400 . S
C451 C450 1.387 . S
N452 Co443 2.022 . S
N452 C449 1.351 . S
N452 N453 1.365 . S
N453 C450 1.341 . S
N453 N452 1.365 . S
N453 H473 0.862 . S
C454 C449 1.501 . S
C454 H455 0.961 . S
C454 H456 0.961 . S
C454 H457 0.960 . S
H455 C454 0.961 . S
H456 C454 0.961 . S
H457 C454 0.960 . S
C458 N459 1.342 1_554 S
C458 C462 1.401 . S
C458 C463 1.499 . S
N459 Co442 1.989 . S
N459 C458 1.342 1_556 S
N459 N460 1.388 . S
N460 Co443 1.993 . S
N460 N459 1.388 . S
N460 C461 1.346 . S
C461 N460 1.346 . S
C461 C462 1.396 1_556 S
C461 C471 1.510 . S
C462 C458 1.401 . S
C462 C461 1.396 1_554 S
C463 C458 1.499 . S
C463 H464 0.959 . S
C463 H465 0.960 . S
C463 H466 0.961 . S
H464 C463 0.959 . S
H465 C463 0.960 . S
H466 C463 0.961 . S
O467 Co442 1.967 . S
O467 C475 1.258 . S
O468 Co443 1.941 . S
O468 C475 1.266 . S
H469 C471 0.959 1_554 S
H470 C471 0.961 1_554 S
C471 C461 1.510 . S
C471 H469 0.959 1_556 S
C471 H470 0.961 1_556 S
C471 H472 0.960 . S
H472 C471 0.960 . S
H473 N453 0.862 . S
O474 Co442 1.920 . S
O474 C447 1.289 . S
C475 O467 1.258 . S
C475 O468 1.266 . S
Co476 O479 1.970 . S
Co476 N493 1.989 . S
Co476 O501 1.967 . S
Co476 O508 1.920 . S
Co477 O480 1.966 . S
Co477 N486 2.022 . S
Co477 N494 1.993 . S
Co477 O502 1.941 . S
C478 O479 1.258 . S
C478 O480 1.263 . S
O479 Co476 1.970 . S
O479 C478 1.258 . S
O480 Co477 1.966 . S
O480 C478 1.263 . S
C481 O482 1.235 . S
C481 O508 1.289 . S
O482 C481 1.235 . S
C483 C485 1.400 . S
C483 N486 1.351 . S
C483 C488 1.501 . S
C484 C485 1.387 . S
C484 N487 1.341 . S
C485 C483 1.400 . S
C485 C484 1.387 . S
N486 Co477 2.022 . S
N486 C483 1.351 . S
N486 N487 1.365 . S
N487 C484 1.341 . S
N487 N486 1.365 . S
N487 H507 0.862 . S
C488 C483 1.501 . S
C488 H489 0.961 . S
C488 H490 0.961 . S
C488 H491 0.960 . S
H489 C488 0.961 . S
H490 C488 0.961 . S
H491 C488 0.960 . S
C492 N493 1.342 . S
C492 C496 1.401 . S
C492 C497 1.499 . S
N493 Co476 1.989 . S
N493 C492 1.342 . S
N493 N494 1.388 . S
N494 Co477 1.993 . S
N494 N493 1.388 . S
N494 C495 1.346 . S
C495 N494 1.346 . S
C495 C496 1.396 . S
C495 C505 1.510 . S
C496 C492 1.401 . S
C496 C495 1.396 . S
C497 C492 1.499 . S
C497 H498 0.959 . S
C497 H499 0.960 . S
C497 H500 0.961 . S
H498 C497 0.959 . S
H499 C497 0.960 . S
H500 C497 0.961 . S
O501 Co476 1.967 . S
O501 C509 1.258 . S
O502 Co477 1.941 . S
O502 C509 1.266 . S
H503 C505 0.959 . S
H504 C505 0.961 . S
C505 C495 1.510 . S
C505 H503 0.959 . S
C505 H504 0.961 . S
C505 H506 0.960 . S
H506 C505 0.960 . S
H507 N487 0.862 . S
O508 Co476 1.920 . S
O508 C481 1.289 . S
C509 O501 1.258 . S
C509 O502 1.266 . S
Co510 O513 1.970 1_455 S
Co510 N527 1.989 . S
Co510 O535 1.967 . S
Co510 O542 1.920 . S
Co511 O514 1.966 1_455 S
Co511 N520 2.022 . S
Co511 N528 1.993 . S
Co511 O536 1.941 . S
C512 O513 1.258 . S
C512 O514 1.263 . S
O513 Co510 1.970 1_655 S
O513 C512 1.258 . S
O514 Co511 1.966 1_655 S
O514 C512 1.263 . S
C515 O516 1.235 1_455 S
C515 O542 1.289 . S
O516 C515 1.235 1_655 S
C517 C519 1.400 . S
C517 N520 1.351 . S
C517 C522 1.501 1_455 S
C518 C519 1.387 . S
C518 N521 1.341 . S
C519 C517 1.400 . S
C519 C518 1.387 . S
N520 Co511 2.022 . S
N520 C517 1.351 . S
N520 N521 1.365 . S
N521 C518 1.341 . S
N521 N520 1.365 . S
N521 H541 0.862 . S
C522 C517 1.501 1_655 S
C522 H523 0.961 . S
C522 H524 0.961 . S
C522 H525 0.960 . S
H523 C522 0.961 . S
H524 C522 0.961 . S
H525 C522 0.960 . S
C526 N527 1.342 . S
C526 C530 1.401 1_556 S
C526 C531 1.491 1_556 S
N527 Co510 1.989 . S
N527 C526 1.342 . S
N527 N528 1.388 . S
N528 Co511 1.993 . S
N528 N527 1.388 . S
N528 C529 1.346 . S
C529 N528 1.346 . S
C529 C530 1.396 1_556 S
C529 C539 1.510 . S
C530 C526 1.401 1_554 S
C530 C529 1.396 1_554 S
C531 C526 1.491 1_554 S
C531 H532 0.942 1_554 S
C531 H533 0.980 . S
C531 H534 0.966 . S
H532 C531 0.942 1_556 S
H533 C531 0.980 . S
H534 C531 0.966 . S
O535 Co510 1.967 . S
O535 C543 1.258 . S
O536 Co511 1.941 . S
O536 C543 1.266 . S
H537 C539 0.959 . S
H538 C539 0.967 . S
C539 C529 1.510 . S
C539 H537 0.959 . S
C539 H538 0.967 . S
C539 H540 0.960 . S
H540 C539 0.960 . S
H541 N521 0.862 . S
O542 Co510 1.920 . S
O542 C515 1.289 . S
C543 O535 1.258 . S
C543 O536 1.266 . S
H544 C550 0.930 . S
H545 C554 0.930 . S
H546 C559 0.929 . S
H547 C557 0.929 . S
H548 C552 0.929 . S
H549 C558 0.929 . S
C550 H544 0.930 . S
C550 C551 1.367 1_545 S
C550 C558 1.378 . S
C551 C550 1.367 1_565 S
C551 C559 1.433 . S
C552 H548 0.929 . S
C552 C554 1.378 . S
C552 C556 1.350 1_565 S
C553 C556 1.463 1_665 S
C553 C558 1.350 1_565 S
C553 N561 1.427 . S
C554 H545 0.930 . S
C554 C552 1.378 . S
C554 C555 1.367 1_565 S
C555 C554 1.367 1_545 S
C555 C557 1.433 . S
C556 C552 1.350 1_545 S
C556 C553 1.463 1_445 S
C556 N560 1.427 . S
C557 H547 0.929 . S
C557 C555 1.433 . S
C557 N560 1.384 . S
C558 H549 0.929 . S
C558 C550 1.378 . S
C558 C553 1.350 1_545 S
C559 H546 0.929 . S
C559 C551 1.433 . S
C559 N561 1.384 . S
N560 C556 1.427 . S
N560 C557 1.384 . S
N561 C553 1.427 . S
N561 C559 1.384 . S
H562 C568 0.930 . S
H563 C572 0.930 . S
H564 C577 0.929 . S
H565 C575 0.929 . S
H566 C570 0.929 1_545 S
H567 C576 0.929 . S
C568 H562 0.930 . S
C568 C569 1.367 . S
C568 C576 1.378 1_545 S
C569 C568 1.367 . S
C569 C577 1.433 . S
C570 H566 0.929 1_565 S
C570 C572 1.378 . S
C570 C574 1.350 . S
C571 C574 1.463 1_546 S
C571 C576 1.350 1_545 S
C571 N579 1.427 1_556 S
C572 H563 0.930 . S
C572 C570 1.378 . S
C572 C573 1.367 . S
C573 C572 1.367 . S
C573 C575 1.433 . S
C574 C570 1.350 . S
C574 C571 1.463 1_564 S
C574 N578 1.427 1_554 S
C575 H565 0.929 . S
C575 C573 1.433 . S
C575 N578 1.384 1_554 S
C576 H567 0.929 . S
C576 C568 1.378 1_565 S
C576 C571 1.350 1_565 S
C577 H564 0.929 . S
C577 C569 1.433 . S
C577 N579 1.384 1_556 S
N578 C574 1.427 1_556 S
N578 C575 1.384 1_556 S
N579 C571 1.427 1_554 S
N579 C577 1.384 1_554 S
H580 C586 0.930 . S
H581 C590 0.930 . S
H582 C595 0.929 . S
H583 C593 0.929 . S
H584 C588 0.929 . S
H585 C594 0.929 . S
C586 H580 0.930 . S
C586 C587 1.367 . S
C586 C594 1.378 . S
C587 C586 1.367 . S
C587 C595 1.433 . S
C588 H584 0.929 . S
C588 C590 1.378 . S
C588 C592 1.350 . S
C589 C592 1.463 . S
C589 C594 1.350 . S
C589 N597 1.427 . S
C590 H581 0.930 . S
C590 C588 1.378 . S
C590 C591 1.367 . S
C591 C590 1.367 . S
C591 C593 1.433 . S
C592 C588 1.350 . S
C592 C589 1.463 . S
C592 N596 1.427 . S
C593 H583 0.929 . S
C593 C591 1.433 . S
C593 N596 1.384 . S
C594 H585 0.929 . S
C594 C586 1.378 . S
C594 C589 1.350 . S
C595 H582 0.929 . S
C595 C587 1.433 . S
C595 N597 1.384 . S
N596 C592 1.427 . S
N596 C593 1.384 . S
N597 C589 1.427 . S
N597 C595 1.384 . S
H598 C604 0.930 . S
H599 C608 0.930 . S
H600 C613 0.903 1_455 S
H601 C611 0.929 . S
H602 C606 0.929 . S
H603 C612 0.929 . S
C604 H598 0.930 . S
C604 C605 1.367 . S
C604 C612 1.378 . S
C605 C604 1.367 . S
C605 C613 1.433 . S
C606 H602 0.929 . S
C606 C608 1.378 . S
C606 C610 1.350 1_456 S
C607 C610 1.463 . S
C607 C612 1.350 . S
C607 N615 1.427 . S
C608 H599 0.930 . S
C608 C606 1.378 . S
C608 C609 1.367 . S
C609 C608 1.367 . S
C609 C611 1.433 1_456 S
C610 C606 1.350 1_654 S
C610 C607 1.463 . S
C610 N614 1.427 . S
C611 H601 0.929 . S
C611 C609 1.433 1_654 S
C611 N614 1.384 . S
C612 H603 0.929 . S
C612 C604 1.378 . S
C612 C607 1.350 . S
C613 H600 0.903 1_655 S
C613 C605 1.433 . S
C613 N615 1.384 . S
N614 C610 1.427 . S
N614 C611 1.384 . S
N615 C607 1.427 . S
N615 C613 1.384 . S
H616 C622 0.930 . S
H617 C626 0.930 . S
H618 C631 0.929 . S
H619 C629 0.930 1_565 S
H620 C624 0.929 . S
H621 C630 0.929 . S
C622 H616 0.930 . S
C622 C623 1.367 . S
C622 C630 1.378 . S
C623 C622 1.367 . S
C623 C631 1.433 . S
C624 H620 0.929 . S
C624 C626 1.378 . S
C624 C628 1.350 1_545 S
C625 C628 1.463 . S
C625 C630 1.350 . S
C625 N633 1.427 . S
C626 H617 0.930 . S
C626 C624 1.378 . S
C626 C627 1.367 . S
C627 C626 1.367 . S
C627 C629 1.432 . S
C628 C624 1.350 1_565 S
C628 C625 1.463 . S
C628 N632 1.427 . S
C629 H619 0.930 1_545 S
C629 C627 1.432 . S
C629 N632 1.384 1_545 S
C630 H621 0.929 . S
C630 C622 1.378 . S
C630 C625 1.350 . S
C631 H618 0.929 . S
C631 C623 1.433 . S
C631 N633 1.384 . S
N632 C628 1.427 . S
N632 C629 1.384 1_565 S
N633 C625 1.427 . S
N633 C631 1.384 . S
H634 C640 0.930 . S
H635 C644 0.930 . S
H636 C649 0.929 . S
H637 C647 0.929 . S
H638 C642 0.929 . S
H639 C648 0.912 1_556 S
C640 H634 0.930 . S
C640 C641 1.367 . S
C640 C648 1.388 . S
C641 C640 1.367 . S
C641 C649 1.433 . S
C642 H638 0.929 . S
C642 C644 1.378 1_554 S
C642 C646 1.350 1_554 S
C643 C646 1.463 1_554 S
C643 C648 1.357 . S
C643 N651 1.427 . S
C644 H635 0.930 . S
C644 C642 1.378 1_556 S
C644 C645 1.367 . S
C645 C644 1.367 . S
C645 C647 1.433 . S
C646 C642 1.350 1_556 S
C646 C643 1.463 1_556 S
C646 N650 1.427 . S
C647 H637 0.929 . S
C647 C645 1.433 . S
C647 N650 1.384 . S
C648 H639 0.912 1_554 S
C648 C640 1.388 . S
C648 C643 1.357 . S
C649 H636 0.929 . S
C649 C641 1.433 . S
C649 N651 1.384 . S
N650 C646 1.427 . S
N650 C647 1.384 . S
N651 C643 1.427 . S
N651 C649 1.384 . S
H652 C658 0.930 . S
H653 C662 0.930 . S
H654 C667 0.929 . S
H655 C665 0.929 . S
H656 C660 0.929 . S
H657 C666 0.929 . S
C658 H652 0.930 . S
C658 C659 1.367 . S
C658 C666 1.378 . S
C659 C658 1.367 . S
C659 C667 1.433 . S
C660 H656 0.929 . S
C660 C662 1.378 . S
C660 C664 1.350 . S
C661 C664 1.463 1_655 S
C661 C666 1.350 . S
C661 N669 1.427 . S
C662 H653 0.930 . S
C662 C660 1.378 . S
C662 C663 1.367 . S
C663 C662 1.367 . S
C663 C665 1.433 . S
C664 C660 1.350 . S
C664 C661 1.463 1_455 S
C664 N668 1.427 . S
C665 H655 0.929 . S
C665 C663 1.433 . S
C665 N668 1.384 . S
C666 H657 0.929 . S
C666 C658 1.378 . S
C666 C661 1.350 . S
C667 H654 0.929 . S
C667 C659 1.433 . S
C667 N669 1.384 . S
N668 C664 1.427 . S
N668 C665 1.384 . S
N669 C661 1.427 . S
N669 C667 1.384 . S
H670 C676 0.921 1_455 S
H671 C680 0.930 . S
H672 C685 0.929 . S
H673 C683 0.929 . S
H674 C678 0.929 . S
H675 C684 0.929 . S
C676 H670 0.921 1_655 S
C676 C677 1.381 . S
C676 C684 1.373 1_655 S
C677 C676 1.381 . S
C677 C685 1.433 . S
C678 H674 0.929 . S
C678 C680 1.378 . S
C678 C682 1.350 . S
C679 C682 1.463 1_564 S
C679 C684 1.350 1_655 S
C679 N687 1.427 1_554 S
C680 H671 0.930 . S
C680 C678 1.378 . S
C680 C681 1.367 1_655 S
C681 C680 1.367 1_455 S
C681 C683 1.433 . S
C682 C678 1.350 . S
C682 C679 1.463 1_546 S
C682 N686 1.427 1_655 S
C683 H673 0.929 . S
C683 C681 1.433 . S
C683 N686 1.384 . S
C684 H675 0.929 . S
C684 C676 1.373 1_455 S
C684 C679 1.350 1_455 S
C685 H672 0.929 . S
C685 C677 1.433 . S
C685 N687 1.384 1_554 S
N686 C682 1.427 1_455 S
N686 C683 1.384 . S
N687 C679 1.427 1_556 S
N687 C685 1.384 1_556 S
H688 C694 0.930 . S
H689 C698 0.930 . S
H690 C703 0.929 . S
H691 C701 0.929 . S
H692 C696 0.929 . S
H693 C702 0.929 . S
C694 H688 0.930 . S
C694 C695 1.367 . S
C694 C702 1.378 . S
C695 C694 1.367 . S
C695 C703 1.433 . S
C696 H692 0.929 . S
C696 C698 1.378 . S
C696 C700 1.350 . S
C697 C700 1.463 . S
C697 C702 1.350 . S
C697 N705 1.427 . S
C698 H689 0.930 . S
C698 C696 1.378 . S
C698 C699 1.367 . S
C699 C698 1.367 . S
C699 C701 1.433 . S
C700 C696 1.350 . S
C700 C697 1.463 . S
C700 N704 1.427 . S
C701 H691 0.929 . S
C701 C699 1.433 . S
C701 N704 1.384 . S
C702 H693 0.929 . S
C702 C694 1.378 . S
C702 C697 1.350 . S
C703 H690 0.929 . S
C703 C695 1.433 . S
C703 N705 1.384 . S
N704 C700 1.427 . S
N704 C701 1.384 . S
N705 C697 1.427 . S
N705 C703 1.384 . S
H706 C712 0.930 . S
H707 C716 0.930 . S
H708 C721 0.929 . S
H709 C719 0.929 . S
H710 C714 0.929 . S
H711 C720 0.929 . S
C712 H706 0.930 . S
C712 C713 1.367 . S
C712 C720 1.378 . S
C713 C712 1.367 . S
C713 C721 1.433 . S
C714 H710 0.929 . S
C714 C716 1.378 . S
C714 C718 1.350 . S
C715 C718 1.463 . S
C715 C720 1.350 . S
C715 N723 1.427 . S
C716 H707 0.930 . S
C716 C714 1.378 . S
C716 C717 1.367 . S
C717 C716 1.367 . S
C717 C719 1.433 . S
C718 C714 1.350 . S
C718 C715 1.463 . S
C718 N722 1.427 . S
C719 H709 0.929 . S
C719 C717 1.433 . S
C719 N722 1.384 . S
C720 H711 0.929 . S
C720 C712 1.378 . S
C720 C715 1.350 . S
C721 H708 0.929 . S
C721 C713 1.433 . S
C721 N723 1.384 . S
N722 C718 1.427 . S
N722 C719 1.384 . S
N723 C715 1.427 . S
N723 C721 1.384 . S
H724 C730 0.930 . S
H725 C734 0.930 . S
H726 C739 0.929 . S
H727 C737 0.929 . S
H728 C732 0.929 . S
H729 C738 0.929 . S
C730 H724 0.930 . S
C730 C731 1.367 . S
C730 C738 1.378 . S
C731 C730 1.367 . S
C731 C739 1.433 . S
C732 H728 0.929 . S
C732 C734 1.378 . S
C732 C736 1.350 . S
C733 C736 1.463 . S
C733 C738 1.350 . S
C733 N741 1.427 . S
C734 H725 0.930 . S
C734 C732 1.378 . S
C734 C735 1.367 . S
C735 C734 1.367 . S
C735 C737 1.433 . S
C736 C732 1.350 . S
C736 C733 1.463 . S
C736 N740 1.427 . S
C737 H727 0.929 . S
C737 C735 1.433 . S
C737 N740 1.384 . S
C738 H729 0.929 . S
C738 C730 1.378 . S
C738 C733 1.350 . S
C739 H726 0.929 . S
C739 C731 1.433 . S
C739 N741 1.384 . S
N740 C736 1.427 . S
N740 C737 1.384 . S
N741 C733 1.427 . S
N741 C739 1.384 . S
H742 C748 0.930 . S
H743 C752 0.930 . S
H744 C757 0.929 . S
H745 C755 0.929 . S
H746 C750 0.929 . S
H747 C756 0.929 . S
C748 H742 0.930 . S
C748 C749 1.367 . S
C748 C756 1.378 . S
C749 C748 1.367 . S
C749 C757 1.433 . S
C750 H746 0.929 . S
C750 C752 1.378 . S
C750 C754 1.350 . S
C751 C754 1.463 . S
C751 C756 1.350 . S
C751 N759 1.427 . S
C752 H743 0.930 . S
C752 C750 1.378 . S
C752 C753 1.367 . S
C753 C752 1.367 . S
C753 C755 1.433 . S
C754 C750 1.350 . S
C754 C751 1.463 . S
C754 N758 1.427 . S
C755 H745 0.929 . S
C755 C753 1.433 . S
C755 N758 1.384 . S
C756 H747 0.929 . S
C756 C748 1.378 . S
C756 C751 1.350 . S
C757 H744 0.929 . S
C757 C749 1.433 . S
C757 N759 1.384 . S
N758 C754 1.427 . S
N758 C755 1.384 . S
N759 C751 1.427 . S
N759 C757 1.384 . S
H760 C766 0.930 . S
H761 C770 0.930 . S
H762 C775 0.929 . S
H763 C773 0.929 . S
H764 C768 0.929 . S
H765 C774 0.929 . S
C766 H760 0.930 . S
C766 C767 1.367 . S
C766 C774 1.378 . S
C767 C766 1.367 . S
C767 C775 1.433 . S
C768 H764 0.929 . S
C768 C770 1.378 . S
C768 C772 1.350 . S
C769 C772 1.463 . S
C769 C774 1.350 . S
C769 N777 1.427 . S
C770 H761 0.930 . S
C770 C768 1.378 . S
C770 C771 1.367 . S
C771 C770 1.367 . S
C771 C773 1.433 . S
C772 C768 1.350 . S
C772 C769 1.463 . S
C772 N776 1.427 . S
C773 H763 0.929 . S
C773 C771 1.433 . S
C773 N776 1.384 . S
C774 H765 0.929 . S
C774 C766 1.378 . S
C774 C769 1.350 . S
C775 H762 0.929 . S
C775 C767 1.433 . S
C775 N777 1.384 . S
N776 C772 1.427 . S
N776 C773 1.384 . S
N777 C769 1.427 . S
N777 C775 1.384 . S
H778 C784 0.930 . S
H779 C788 0.930 . S
H780 C793 0.929 . S
H781 C791 0.929 . S
H782 C786 0.929 . S
H783 C792 0.929 . S
C784 H778 0.930 . S
C784 C785 1.367 . S
C784 C792 1.378 . S
C785 C784 1.367 . S
C785 C793 1.433 . S
C786 H782 0.929 . S
C786 C788 1.378 . S
C786 C790 1.350 . S
C787 C790 1.463 . S
C787 C792 1.350 . S
C787 N795 1.427 . S
C788 H779 0.930 . S
C788 C786 1.378 . S
C788 C789 1.367 . S
C789 C788 1.367 . S
C789 C791 1.433 . S
C790 C786 1.350 . S
C790 C787 1.463 . S
C790 N794 1.427 . S
C791 H781 0.929 . S
C791 C789 1.433 . S
C791 N794 1.384 . S
C792 H783 0.929 . S
C792 C784 1.378 . S
C792 C787 1.350 . S
C793 H780 0.929 . S
C793 C785 1.433 . S
C793 N795 1.384 . S
N794 C790 1.427 . S
N794 C791 1.384 . S
N795 C787 1.427 . S
N795 C793 1.384 . S
H796 C802 0.930 . S
H797 C806 0.930 . S
H798 C811 0.929 . S
H799 C809 0.929 . S
H800 C804 0.929 . S
H801 C810 0.929 . S
C802 H796 0.930 . S
C802 C803 1.367 . S
C802 C810 1.378 . S
C803 C802 1.367 . S
C803 C811 1.433 . S
C804 H800 0.929 . S
C804 C806 1.378 . S
C804 C808 1.350 . S
C805 C808 1.463 . S
C805 C810 1.350 . S
C805 N813 1.427 . S
C806 H797 0.930 . S
C806 C804 1.378 . S
C806 C807 1.367 . S
C807 C806 1.367 . S
C807 C809 1.433 . S
C808 C804 1.350 . S
C808 C805 1.463 . S
C808 N812 1.427 . S
C809 H799 0.929 . S
C809 C807 1.433 . S
C809 N812 1.384 . S
C810 H801 0.929 . S
C810 C802 1.378 . S
C810 C805 1.350 . S
C811 H798 0.929 . S
C811 C803 1.433 . S
C811 N813 1.384 . S
N812 C808 1.427 . S
N812 C809 1.384 . S
N813 C805 1.427 . S
N813 C811 1.384 . S
H814 C820 0.930 . S
H815 C824 0.930 . S
H816 C829 0.929 . S
H817 C827 0.929 . S
H818 C822 0.929 . S
H819 C828 0.929 . S
C820 H814 0.930 . S
C820 C821 1.367 . S
C820 C828 1.378 . S
C821 C820 1.367 . S
C821 C829 1.433 . S
C822 H818 0.929 . S
C822 C824 1.378 . S
C822 C826 1.350 . S
C823 C826 1.463 . S
C823 C828 1.350 . S
C823 N831 1.427 . S
C824 H815 0.930 . S
C824 C822 1.378 . S
C824 C825 1.367 . S
C825 C824 1.367 . S
C825 C827 1.433 . S
C826 C822 1.350 . S
C826 C823 1.463 . S
C826 N830 1.427 . S
C827 H817 0.929 . S
C827 C825 1.433 . S
C827 N830 1.384 . S
C828 H819 0.929 . S
C828 C820 1.378 . S
C828 C823 1.350 . S
C829 H816 0.929 . S
C829 C821 1.433 . S
C829 N831 1.384 . S
N830 C826 1.427 . S
N830 C827 1.384 . S
N831 C823 1.427 . S
N831 C829 1.384 . S
H832 C838 0.930 . S
H833 C842 0.930 . S
H834 C847 0.929 . S
H835 C845 0.929 . S
H836 C840 0.929 . S
H837 C846 0.929 . S
C838 H832 0.930 . S
C838 C839 1.367 . S
C838 C846 1.378 . S
C839 C838 1.367 . S
C839 C847 1.433 . S
C840 H836 0.929 . S
C840 C842 1.378 . S
C840 C844 1.350 . S
C841 C844 1.463 . S
C841 C846 1.350 . S
C841 N849 1.427 . S
C842 H833 0.930 . S
C842 C840 1.378 . S
C842 C843 1.367 . S
C843 C842 1.367 . S
C843 C845 1.433 . S
C844 C840 1.350 . S
C844 C841 1.463 . S
C844 N848 1.427 . S
C845 H835 0.929 . S
C845 C843 1.433 . S
C845 N848 1.384 . S
C846 H837 0.929 . S
C846 C838 1.378 . S
C846 C841 1.350 . S
C847 H834 0.929 . S
C847 C839 1.433 . S
C847 N849 1.384 . S
N848 C844 1.427 . S
N848 C845 1.384 . S
N849 C841 1.427 . S
N849 C847 1.384 . S
H850 C856 0.930 . S
H851 C860 0.930 . S
H852 C865 0.929 . S
H853 C863 0.929 . S
H854 C858 0.929 . S
H855 C864 0.929 . S
C856 H850 0.930 . S
C856 C857 1.367 . S
C856 C864 1.378 . S
C857 C856 1.367 . S
C857 C865 1.433 . S
C858 H854 0.929 . S
C858 C860 1.378 . S
C858 C862 1.350 . S
C859 C862 1.463 . S
C859 C864 1.350 . S
C859 N867 1.427 . S
C860 H851 0.930 . S
C860 C858 1.378 . S
C860 C861 1.367 . S
C861 C860 1.367 . S
C861 C863 1.433 . S
C862 C858 1.350 . S
C862 C859 1.463 . S
C862 N866 1.427 . S
C863 H853 0.929 . S
C863 C861 1.433 . S
C863 N866 1.384 . S
C864 H855 0.929 . S
C864 C856 1.378 . S
C864 C859 1.350 . S
C865 H852 0.929 . S
C865 C857 1.433 . S
C865 N867 1.384 . S
N866 C862 1.427 . S
N866 C863 1.384 . S
N867 C859 1.427 . S
N867 C865 1.384 . S
H868 C874 0.930 . S
H869 C878 0.930 . S
H870 C883 0.929 . S
H871 C881 0.929 . S
H872 C876 0.929 . S
H873 C882 0.929 . S
C874 H868 0.930 . S
C874 C875 1.367 . S
C874 C882 1.378 . S
C875 C874 1.367 . S
C875 C883 1.433 . S
C876 H872 0.929 . S
C876 C878 1.378 . S
C876 C880 1.350 . S
C877 C880 1.463 . S
C877 C882 1.350 . S
C877 N885 1.427 . S
C878 H869 0.930 . S
C878 C876 1.378 . S
C878 C879 1.367 . S
C879 C878 1.367 . S
C879 C881 1.433 . S
C880 C876 1.350 . S
C880 C877 1.463 . S
C880 N884 1.427 . S
C881 H871 0.929 . S
C881 C879 1.433 . S
C881 N884 1.384 . S
C882 H873 0.929 . S
C882 C874 1.378 . S
C882 C877 1.350 . S
C883 H870 0.929 . S
C883 C875 1.433 . S
C883 N885 1.384 . S
N884 C880 1.427 . S
N884 C881 1.384 . S
N885 C877 1.427 . S
N885 C883 1.384 . S
H886 C892 0.930 . S
H887 C896 0.930 . S
H888 C901 0.929 . S
H889 C899 0.929 . S
H890 C894 0.929 . S
H891 C900 0.929 . S
C892 H886 0.930 . S
C892 C893 1.367 . S
C892 C900 1.378 . S
C893 C892 1.367 . S
C893 C901 1.433 . S
C894 H890 0.929 . S
C894 C896 1.378 . S
C894 C898 1.350 . S
C895 C898 1.463 . S
C895 C900 1.350 . S
C895 N903 1.427 . S
C896 H887 0.930 . S
C896 C894 1.378 . S
C896 C897 1.367 . S
C897 C896 1.367 . S
C897 C899 1.433 . S
C898 C894 1.350 . S
C898 C895 1.463 . S
C898 N902 1.427 . S
C899 H889 0.929 . S
C899 C897 1.433 . S
C899 N902 1.384 . S
C900 H891 0.929 . S
C900 C892 1.378 . S
C900 C895 1.350 . S
C901 H888 0.929 . S
C901 C893 1.433 . S
C901 N903 1.384 . S
N902 C898 1.427 . S
N902 C899 1.384 . S
N903 C895 1.427 . S
N903 C901 1.384 . S
H904 C910 0.930 . S
H905 C914 0.930 . S
H906 C919 0.929 . S
H907 C917 0.929 . S
H908 C912 0.929 . S
H909 C918 0.929 . S
C910 H904 0.930 . S
C910 C911 1.367 . S
C910 C918 1.378 . S
C911 C910 1.367 . S
C911 C919 1.433 . S
C912 H908 0.929 . S
C912 C914 1.378 . S
C912 C916 1.350 . S
C913 C916 1.463 . S
C913 C918 1.350 . S
C913 N921 1.427 . S
C914 H905 0.930 . S
C914 C912 1.378 . S
C914 C915 1.367 . S
C915 C914 1.367 . S
C915 C917 1.433 . S
C916 C912 1.350 . S
C916 C913 1.463 . S
C916 N920 1.427 . S
C917 H907 0.929 . S
C917 C915 1.433 . S
C917 N920 1.384 . S
C918 H909 0.929 . S
C918 C910 1.378 . S
C918 C913 1.350 . S
C919 H906 0.929 . S
C919 C911 1.433 . S
C919 N921 1.384 . S
N920 C916 1.427 . S
N920 C917 1.384 . S
N921 C913 1.427 . S
N921 C919 1.384 . S
H922 C928 0.930 . S
H923 C932 0.930 . S
H924 C937 0.929 . S
H925 C935 0.929 . S
H926 C930 0.929 . S
H927 C936 0.929 . S
C928 H922 0.930 . S
C928 C929 1.367 . S
C928 C936 1.378 . S
C929 C928 1.367 . S
C929 C937 1.433 . S
C930 H926 0.929 . S
C930 C932 1.378 . S
C930 C934 1.350 . S
C931 C934 1.463 . S
C931 C936 1.350 . S
C931 N939 1.427 . S
C932 H923 0.930 . S
C932 C930 1.378 . S
C932 C933 1.367 . S
C933 C932 1.367 . S
C933 C935 1.433 . S
C934 C930 1.350 . S
C934 C931 1.463 . S
C934 N938 1.427 . S
C935 H925 0.929 . S
C935 C933 1.433 . S
C935 N938 1.384 . S
C936 H927 0.929 . S
C936 C928 1.378 . S
C936 C931 1.350 . S
C937 H924 0.929 . S
C937 C929 1.433 . S
C937 N939 1.384 . S
N938 C934 1.427 . S
N938 C935 1.384 . S
N939 C931 1.427 . S
N939 C937 1.384 . S
H940 C946 0.930 . S
H941 C950 0.930 . S
H942 C955 0.929 . S
H943 C953 0.929 . S
H944 C948 0.929 . S
H945 C954 0.929 . S
C946 H940 0.930 . S
C946 C947 1.367 . S
C946 C954 1.378 . S
C947 C946 1.367 . S
C947 C955 1.433 . S
C948 H944 0.929 . S
C948 C950 1.378 . S
C948 C952 1.350 . S
C949 C952 1.463 . S
C949 C954 1.350 . S
C949 N957 1.427 . S
C950 H941 0.930 . S
C950 C948 1.378 . S
C950 C951 1.367 . S
C951 C950 1.367 . S
C951 C953 1.433 . S
C952 C948 1.350 . S
C952 C949 1.463 . S
C952 N956 1.427 . S
C953 H943 0.929 . S
C953 C951 1.433 . S
C953 N956 1.384 . S
C954 H945 0.929 . S
C954 C946 1.378 . S
C954 C949 1.350 . S
C955 H942 0.929 . S
C955 C947 1.433 . S
C955 N957 1.384 . S
N956 C952 1.427 . S
N956 C953 1.384 . S
N957 C949 1.427 . S
N957 C955 1.384 . S
H958 C964 0.930 . S
H959 C968 0.930 . S
H960 C973 0.929 . S
H961 C971 0.929 . S
H962 C966 0.929 . S
H963 C972 0.929 . S
C964 H958 0.930 . S
C964 C965 1.367 . S
C964 C972 1.378 . S
C965 C964 1.367 . S
C965 C973 1.433 . S
C966 H962 0.929 . S
C966 C968 1.378 . S
C966 C970 1.350 . S
C967 C970 1.463 . S
C967 C972 1.350 . S
C967 N975 1.427 . S
C968 H959 0.930 . S
C968 C966 1.378 . S
C968 C969 1.367 . S
C969 C968 1.367 . S
C969 C971 1.433 . S
C970 C966 1.350 . S
C970 C967 1.463 . S
C970 N974 1.427 . S
C971 H961 0.929 . S
C971 C969 1.433 . S
C971 N974 1.384 . S
C972 H963 0.929 . S
C972 C964 1.378 . S
C972 C967 1.350 . S
C973 H960 0.929 . S
C973 C965 1.433 . S
C973 N975 1.384 . S
N974 C970 1.427 . S
N974 C971 1.384 . S
N975 C967 1.427 . S
N975 C973 1.384 . S
H976 C982 0.930 . S
H977 C986 0.930 . S
H978 C991 0.929 . S
H979 C989 0.929 . S
H980 C984 0.929 . S
H981 C990 0.929 . S
C982 H976 0.930 . S
C982 C983 1.367 . S
C982 C990 1.378 . S
C983 C982 1.367 . S
C983 C991 1.433 . S
C984 H980 0.929 . S
C984 C986 1.378 . S
C984 C988 1.350 . S
C985 C988 1.463 . S
C985 C990 1.350 . S
C985 N993 1.427 . S
C986 H977 0.930 . S
C986 C984 1.378 . S
C986 C987 1.367 . S
C987 C986 1.367 . S
C987 C989 1.433 . S
C988 C984 1.350 . S
C988 C985 1.463 . S
C988 N992 1.427 . S
C989 H979 0.929 . S
C989 C987 1.433 . S
C989 N992 1.384 . S
C990 H981 0.929 . S
C990 C982 1.378 . S
C990 C985 1.350 . S
C991 H978 0.929 . S
C991 C983 1.433 . S
C991 N993 1.384 . S
N992 C988 1.427 . S
N992 C989 1.384 . S
N993 C985 1.427 . S
N993 C991 1.384 . S
H994 C1000 0.930 . S
H995 C1004 0.930 . S
H996 C1009 0.929 . S
H997 C1007 0.929 . S
H998 C1002 0.929 . S
H999 C1008 0.929 . S
C1000 H994 0.930 . S
C1000 C1001 1.367 . S
C1000 C1008 1.378 . S
C1001 C1000 1.367 . S
C1001 C1009 1.433 . S
C1002 H998 0.929 . S
C1002 C1004 1.378 . S
C1002 C1006 1.350 . S
C1003 C1006 1.463 . S
C1003 C1008 1.350 . S
C1003 N1011 1.427 . S
C1004 H995 0.930 . S
C1004 C1002 1.378 . S
C1004 C1005 1.367 . S
C1005 C1004 1.367 . S
C1005 C1007 1.433 . S
C1006 C1002 1.350 . S
C1006 C1003 1.463 . S
C1006 N1010 1.427 . S
C1007 H997 0.929 . S
C1007 C1005 1.433 . S
C1007 N1010 1.384 . S
C1008 H999 0.929 . S
C1008 C1000 1.378 . S
C1008 C1003 1.350 . S
C1009 H996 0.929 . S
C1009 C1001 1.433 . S
C1009 N1011 1.384 . S
N1010 C1006 1.427 . S
N1010 C1007 1.384 . S
N1011 C1003 1.427 . S
N1011 C1009 1.384 . S
H1012 C1018 0.930 . S
H1013 C1022 0.930 . S
H1014 C1027 0.929 . S
H1015 C1025 0.929 . S
H1016 C1020 0.929 . S
H1017 C1026 0.929 . S
C1018 H1012 0.930 . S
C1018 C1019 1.367 . S
C1018 C1026 1.378 . S
C1019 C1018 1.367 . S
C1019 C1027 1.433 . S
C1020 H1016 0.929 . S
C1020 C1022 1.378 . S
C1020 C1024 1.350 . S
C1021 C1024 1.463 . S
C1021 C1026 1.350 . S
C1021 N1029 1.427 . S
C1022 H1013 0.930 . S
C1022 C1020 1.378 . S
C1022 C1023 1.367 . S
C1023 C1022 1.367 . S
C1023 C1025 1.433 . S
C1024 C1020 1.350 . S
C1024 C1021 1.463 . S
C1024 N1028 1.427 . S
C1025 H1015 0.929 . S
C1025 C1023 1.433 . S
C1025 N1028 1.384 . S
C1026 H1017 0.929 . S
C1026 C1018 1.378 . S
C1026 C1021 1.350 . S
C1027 H1014 0.929 . S
C1027 C1019 1.433 . S
C1027 N1029 1.384 . S
N1028 C1024 1.427 . S
N1028 C1025 1.384 . S
N1029 C1021 1.427 . S
N1029 C1027 1.384 . S
H1030 C1036 0.930 . S
H1031 C1040 0.930 . S
H1032 C1045 0.929 . S
H1033 C1043 0.929 . S
H1034 C1038 0.929 . S
H1035 C1044 0.929 . S
C1036 H1030 0.930 . S
C1036 C1037 1.367 . S
C1036 C1044 1.378 . S
C1037 C1036 1.367 . S
C1037 C1045 1.433 . S
C1038 H1034 0.929 . S
C1038 C1040 1.378 . S
C1038 C1042 1.350 . S
C1039 C1042 1.463 . S
C1039 C1044 1.350 . S
C1039 N1047 1.427 . S
C1040 H1031 0.930 . S
C1040 C1038 1.378 . S
C1040 C1041 1.367 . S
C1041 C1040 1.367 . S
C1041 C1043 1.433 . S
C1042 C1038 1.350 . S
C1042 C1039 1.463 . S
C1042 N1046 1.427 . S
C1043 H1033 0.929 . S
C1043 C1041 1.433 . S
C1043 N1046 1.384 . S
C1044 H1035 0.929 . S
C1044 C1036 1.378 . S
C1044 C1039 1.350 . S
C1045 H1032 0.929 . S
C1045 C1037 1.433 . S
C1045 N1047 1.384 . S
N1046 C1042 1.427 . S
N1046 C1043 1.384 . S
N1047 C1039 1.427 . S
N1047 C1045 1.384 . S
H1048 C1054 0.930 . S
H1049 C1058 0.930 . S
H1050 C1063 0.929 . S
H1051 C1061 0.929 . S
H1052 C1056 0.929 . S
H1053 C1062 0.929 . S
C1054 H1048 0.930 . S
C1054 C1055 1.367 . S
C1054 C1062 1.378 . S
C1055 C1054 1.367 . S
C1055 C1063 1.433 . S
C1056 H1052 0.929 . S
C1056 C1058 1.378 . S
C1056 C1060 1.350 . S
C1057 C1060 1.463 . S
C1057 C1062 1.350 . S
C1057 N1065 1.427 . S
C1058 H1049 0.930 . S
C1058 C1056 1.378 . S
C1058 C1059 1.367 . S
C1059 C1058 1.367 . S
C1059 C1061 1.433 . S
C1060 C1056 1.350 . S
C1060 C1057 1.463 . S
C1060 N1064 1.427 . S
C1061 H1051 0.929 . S
C1061 C1059 1.433 . S
C1061 N1064 1.384 . S
C1062 H1053 0.929 . S
C1062 C1054 1.378 . S
C1062 C1057 1.350 . S
C1063 H1050 0.929 . S
C1063 C1055 1.433 . S
C1063 N1065 1.384 . S
N1064 C1060 1.427 . S
N1064 C1061 1.384 . S
N1065 C1057 1.427 . S
N1065 C1063 1.384 . S
H1066 C1072 0.930 . S
H1067 C1076 0.930 . S
H1068 C1081 0.929 . S
H1069 C1079 0.929 . S
H1070 C1074 0.929 . S
H1071 C1080 0.929 . S
C1072 H1066 0.930 . S
C1072 C1073 1.367 . S
C1072 C1080 1.378 . S
C1073 C1072 1.367 . S
C1073 C1081 1.433 . S
C1074 H1070 0.929 . S
C1074 C1076 1.378 . S
C1074 C1078 1.350 . S
C1075 C1078 1.463 . S
C1075 C1080 1.350 . S
C1075 N1083 1.427 . S
C1076 H1067 0.930 . S
C1076 C1074 1.378 . S
C1076 C1077 1.367 . S
C1077 C1076 1.367 . S
C1077 C1079 1.433 . S
C1078 C1074 1.350 . S
C1078 C1075 1.463 . S
C1078 N1082 1.427 . S
C1079 H1069 0.929 . S
C1079 C1077 1.433 . S
C1079 N1082 1.384 . S
C1080 H1071 0.929 . S
C1080 C1072 1.378 . S
C1080 C1075 1.350 . S
C1081 H1068 0.929 . S
C1081 C1073 1.433 . S
C1081 N1083 1.384 . S
N1082 C1078 1.427 . S
N1082 C1079 1.384 . S
N1083 C1075 1.427 . S
N1083 C1081 1.384 . S
H1084 C1090 0.930 . S
H1085 C1094 0.930 . S
H1086 C1099 0.929 . S
H1087 C1097 0.929 . S
H1088 C1092 0.929 . S
H1089 C1098 0.929 . S
C1090 H1084 0.930 . S
C1090 C1091 1.367 . S
C1090 C1098 1.378 . S
C1091 C1090 1.367 . S
C1091 C1099 1.433 . S
C1092 H1088 0.929 . S
C1092 C1094 1.378 . S
C1092 C1096 1.350 . S
C1093 C1096 1.463 . S
C1093 C1098 1.350 . S
C1093 N1101 1.427 . S
C1094 H1085 0.930 . S
C1094 C1092 1.378 . S
C1094 C1095 1.367 . S
C1095 C1094 1.367 . S
C1095 C1097 1.433 . S
C1096 C1092 1.350 . S
C1096 C1093 1.463 . S
C1096 N1100 1.427 . S
C1097 H1087 0.929 . S
C1097 C1095 1.433 . S
C1097 N1100 1.384 . S
C1098 H1089 0.929 . S
C1098 C1090 1.378 . S
C1098 C1093 1.350 . S
C1099 H1086 0.929 . S
C1099 C1091 1.433 . S
C1099 N1101 1.384 . S
N1100 C1096 1.427 . S
N1100 C1097 1.384 . S
N1101 C1093 1.427 . S
N1101 C1099 1.384 . S
H1102 C1108 0.930 . S
H1103 C1112 0.930 . S
H1104 C1117 0.929 . S
H1105 C1115 0.929 . S
H1106 C1110 0.929 . S
H1107 C1116 0.929 . S
C1108 H1102 0.930 . S
C1108 C1109 1.367 . S
C1108 C1116 1.378 . S
C1109 C1108 1.367 . S
C1109 C1117 1.433 . S
C1110 H1106 0.929 . S
C1110 C1112 1.378 . S
C1110 C1114 1.350 . S
C1111 C1114 1.463 . S
C1111 C1116 1.350 . S
C1111 N1119 1.427 . S
C1112 H1103 0.930 . S
C1112 C1110 1.378 . S
C1112 C1113 1.367 . S
C1113 C1112 1.367 . S
C1113 C1115 1.433 . S
C1114 C1110 1.350 . S
C1114 C1111 1.463 . S
C1114 N1118 1.427 . S
C1115 H1105 0.929 . S
C1115 C1113 1.433 . S
C1115 N1118 1.384 . S
C1116 H1107 0.929 . S
C1116 C1108 1.378 . S
C1116 C1111 1.350 . S
C1117 H1104 0.929 . S
C1117 C1109 1.433 . S
C1117 N1119 1.384 . S
N1118 C1114 1.427 . S
N1118 C1115 1.384 . S
N1119 C1111 1.427 . S
N1119 C1117 1.384 . S
H1120 C1126 0.930 . S
H1121 C1130 0.930 . S
H1122 C1135 0.929 . S
H1123 C1133 0.929 . S
H1124 C1128 0.929 . S
H1125 C1134 0.929 . S
C1126 H1120 0.930 . S
C1126 C1127 1.367 . S
C1126 C1134 1.378 . S
C1127 C1126 1.367 . S
C1127 C1135 1.433 . S
C1128 H1124 0.929 . S
C1128 C1130 1.378 . S
C1128 C1132 1.350 . S
C1129 C1132 1.463 . S
C1129 C1134 1.350 . S
C1129 N1137 1.427 . S
C1130 H1121 0.930 . S
C1130 C1128 1.378 . S
C1130 C1131 1.367 . S
C1131 C1130 1.367 . S
C1131 C1133 1.433 . S
C1132 C1128 1.350 . S
C1132 C1129 1.463 . S
C1132 N1136 1.427 . S
C1133 H1123 0.929 . S
C1133 C1131 1.433 . S
C1133 N1136 1.384 . S
C1134 H1125 0.929 . S
C1134 C1126 1.378 . S
C1134 C1129 1.350 . S
C1135 H1122 0.929 . S
C1135 C1127 1.433 . S
C1135 N1137 1.384 . S
N1136 C1132 1.427 . S
N1136 C1133 1.384 . S
N1137 C1129 1.427 . S
N1137 C1135 1.384 . S
H1138 C1144 0.930 . S
H1139 C1148 0.930 . S
H1140 C1153 0.929 . S
H1141 C1151 0.929 . S
H1142 C1146 0.929 . S
H1143 C1152 0.929 . S
C1144 H1138 0.930 . S
C1144 C1145 1.367 . S
C1144 C1152 1.378 . S
C1145 C1144 1.367 . S
C1145 C1153 1.433 . S
C1146 H1142 0.929 . S
C1146 C1148 1.378 . S
C1146 C1150 1.350 . S
C1147 C1150 1.463 . S
C1147 C1152 1.350 . S
C1147 N1155 1.427 . S
C1148 H1139 0.930 . S
C1148 C1146 1.378 . S
C1148 C1149 1.367 . S
C1149 C1148 1.367 . S
C1149 C1151 1.433 . S
C1150 C1146 1.350 . S
C1150 C1147 1.463 . S
C1150 N1154 1.427 . S
C1151 H1141 0.929 . S
C1151 C1149 1.433 . S
C1151 N1154 1.384 . S
C1152 H1143 0.929 . S
C1152 C1144 1.378 . S
C1152 C1147 1.350 . S
C1153 H1140 0.929 . S
C1153 C1145 1.433 . S
C1153 N1155 1.384 . S
N1154 C1150 1.427 . S
N1154 C1151 1.384 . S
N1155 C1147 1.427 . S
N1155 C1153 1.384 . S
H1156 C1162 0.930 . S
H1157 C1166 0.930 . S
H1158 C1171 0.929 . S
H1159 C1169 0.929 . S
H1160 C1164 0.929 . S
H1161 C1170 0.929 . S
C1162 H1156 0.930 . S
C1162 C1163 1.367 . S
C1162 C1170 1.378 . S
C1163 C1162 1.367 . S
C1163 C1171 1.433 . S
C1164 H1160 0.929 . S
C1164 C1166 1.378 . S
C1164 C1168 1.350 . S
C1165 C1168 1.463 . S
C1165 C1170 1.350 . S
C1165 N1173 1.427 . S
C1166 H1157 0.930 . S
C1166 C1164 1.378 . S
C1166 C1167 1.367 . S
C1167 C1166 1.367 . S
C1167 C1169 1.433 . S
C1168 C1164 1.350 . S
C1168 C1165 1.463 . S
C1168 N1172 1.427 . S
C1169 H1159 0.929 . S
C1169 C1167 1.433 . S
C1169 N1172 1.384 . S
C1170 H1161 0.929 . S
C1170 C1162 1.378 . S
C1170 C1165 1.350 . S
C1171 H1158 0.929 . S
C1171 C1163 1.433 . S
C1171 N1173 1.384 . S
N1172 C1168 1.427 . S
N1172 C1169 1.384 . S
N1173 C1165 1.427 . S
N1173 C1171 1.384 . S
H1174 C1180 0.930 . S
H1175 C1184 0.930 . S
H1176 C1189 0.929 . S
H1177 C1187 0.929 . S
H1178 C1182 0.929 . S
H1179 C1188 0.929 . S
C1180 H1174 0.930 . S
C1180 C1181 1.367 . S
C1180 C1188 1.378 . S
C1181 C1180 1.367 . S
C1181 C1189 1.433 1_455 S
C1182 H1178 0.929 . S
C1182 C1184 1.378 . S
C1182 C1186 1.350 1_655 S
C1183 C1186 1.463 . S
C1183 C1188 1.350 . S
C1183 N1191 1.427 1_455 S
C1184 H1175 0.930 . S
C1184 C1182 1.378 . S
C1184 C1185 1.367 1_655 S
C1185 C1184 1.367 1_455 S
C1185 C1187 1.433 . S
C1186 C1182 1.350 1_455 S
C1186 C1183 1.463 . S
C1186 N1190 1.427 . S
C1187 H1177 0.929 . S
C1187 C1185 1.433 . S
C1187 N1190 1.384 . S
C1188 H1179 0.929 . S
C1188 C1180 1.378 . S
C1188 C1183 1.350 . S
C1189 H1176 0.929 . S
C1189 C1181 1.433 1_655 S
C1189 N1191 1.384 . S
N1190 C1186 1.427 . S
N1190 C1187 1.384 . S
N1191 C1183 1.427 1_655 S
N1191 C1189 1.384 . S
H1192 C1198 0.930 . S
H1193 C1202 0.930 1_545 S
H1194 C1207 0.929 1_545 S
H1195 C1205 0.929 . S
H1196 C1200 0.929 1_545 S
H1197 C1206 0.929 . S
C1198 H1192 0.930 . S
C1198 C1199 1.367 . S
C1198 C1206 1.378 . S
C1199 C1198 1.367 . S
C1199 C1207 1.433 . S
C1200 H1196 0.929 1_565 S
C1200 C1202 1.378 . S
C1200 C1204 1.350 . S
C1201 C1204 1.463 . S
C1201 C1206 1.350 . S
C1201 N1209 1.427 . S
C1202 H1193 0.930 1_565 S
C1202 C1200 1.378 . S
C1202 C1203 1.367 . S
C1203 C1202 1.367 . S
C1203 C1205 1.433 . S
C1204 C1200 1.350 . S
C1204 C1201 1.463 . S
C1204 N1208 1.427 . S
C1205 H1195 0.929 . S
C1205 C1203 1.433 . S
C1205 N1208 1.384 . S
C1206 H1197 0.929 . S
C1206 C1198 1.378 . S
C1206 C1201 1.350 . S
C1207 H1194 0.929 1_565 S
C1207 C1199 1.433 . S
C1207 N1209 1.384 . S
N1208 C1204 1.427 . S
N1208 C1205 1.384 . S
N1209 C1201 1.427 . S
N1209 C1207 1.384 . S
H1210 C1216 0.930 . S
H1211 C1220 0.930 . S
H1212 C1225 0.929 . S
H1213 C1223 0.929 . S
H1214 C1218 0.929 . S
H1215 C1224 0.929 . S
C1216 H1210 0.930 . S
C1216 C1217 1.367 . S
C1216 C1224 1.378 . S
C1217 C1216 1.367 . S
C1217 C1225 1.433 . S
C1218 H1214 0.929 . S
C1218 C1220 1.378 . S
C1218 C1222 1.350 . S
C1219 C1222 1.463 . S
C1219 C1224 1.350 . S
C1219 N1227 1.427 . S
C1220 H1211 0.930 . S
C1220 C1218 1.378 . S
C1220 C1221 1.367 . S
C1221 C1220 1.367 . S
C1221 C1223 1.433 . S
C1222 C1218 1.350 . S
C1222 C1219 1.463 . S
C1222 N1226 1.427 . S
C1223 H1213 0.929 . S
C1223 C1221 1.433 . S
C1223 N1226 1.384 . S
C1224 H1215 0.929 . S
C1224 C1216 1.378 . S
C1224 C1219 1.350 . S
C1225 H1212 0.929 . S
C1225 C1217 1.433 . S
C1225 N1227 1.384 . S
N1226 C1222 1.427 . S
N1226 C1223 1.384 . S
N1227 C1219 1.427 . S
N1227 C1225 1.384 . S
H1228 C1234 0.930 . S
H1229 C1238 0.930 . S
H1230 C1243 0.929 . S
H1231 C1241 0.929 . S
H1232 C1236 0.929 . S
H1233 C1242 0.929 . S
C1234 H1228 0.930 . S
C1234 C1235 1.367 . S
C1234 C1242 1.378 . S
C1235 C1234 1.367 . S
C1235 C1243 1.433 . S
C1236 H1232 0.929 . S
C1236 C1238 1.378 . S
C1236 C1240 1.350 . S
C1237 C1240 1.463 . S
C1237 C1242 1.350 . S
C1237 N1245 1.427 . S
C1238 H1229 0.930 . S
C1238 C1236 1.378 . S
C1238 C1239 1.367 . S
C1239 C1238 1.367 . S
C1239 C1241 1.433 . S
C1240 C1236 1.350 . S
C1240 C1237 1.463 . S
C1240 N1244 1.427 . S
C1241 H1231 0.929 . S
C1241 C1239 1.433 . S
C1241 N1244 1.384 . S
C1242 H1233 0.929 . S
C1242 C1234 1.378 . S
C1242 C1237 1.350 . S
C1243 H1230 0.929 . S
C1243 C1235 1.433 . S
C1243 N1245 1.384 . S
N1244 C1240 1.427 . S
N1244 C1241 1.384 . S
N1245 C1237 1.427 . S
N1245 C1243 1.384 . S
H1246 C1252 0.930 . S
H1247 C1256 0.930 . S
H1248 C1261 0.929 . S
H1249 C1259 0.929 . S
H1250 C1254 0.929 . S
H1251 C1260 0.929 . S
C1252 H1246 0.930 . S
C1252 C1253 1.367 . S
C1252 C1260 1.378 . S
C1253 C1252 1.367 . S
C1253 C1261 1.433 . S
C1254 H1250 0.929 . S
C1254 C1256 1.378 . S
C1254 C1258 1.350 . S
C1255 C1258 1.463 . S
C1255 C1260 1.350 . S
C1255 N1263 1.427 . S
C1256 H1247 0.930 . S
C1256 C1254 1.378 . S
C1256 C1257 1.367 . S
C1257 C1256 1.367 . S
C1257 C1259 1.433 . S
C1258 C1254 1.350 . S
C1258 C1255 1.463 . S
C1258 N1262 1.427 . S
C1259 H1249 0.929 . S
C1259 C1257 1.433 . S
C1259 N1262 1.384 . S
C1260 H1251 0.929 . S
C1260 C1252 1.378 . S
C1260 C1255 1.350 . S
C1261 H1248 0.929 . S
C1261 C1253 1.433 . S
C1261 N1263 1.384 . S
N1262 C1258 1.427 . S
N1262 C1259 1.384 . S
N1263 C1255 1.427 . S
N1263 C1261 1.384 . S
C551 C277 0.519 . S
C555 C5 0.527 . S
C569 C39 0.649 . S
C573 C311 0.644 . S
C587 C345 0.504 . S
C591 C73 0.485 . S
C605 C379 0.389 . S
C609 C122 0.122 . S
C623 C141 0.502 . S
C627 C413 0.493 . S
C641 C175 0.613 . S
C645 C447 0.607 . S
C659 C209 0.457 . S
C663 C481 0.476 . S
C677 C243 0.456 . S
C681 C515 0.462 . S
C695 C33 1.719 . S
C699 C530 1.643 . S
C713 C67 1.575 . S
C717 C428 1.491 . S
C731 C101 1.615 . S
C735 C462 1.535 . S
C749 C496 1.466 . S
C753 C135 1.525 . S
C767 C169 1.539 . S
C771 C326 1.468 . S
C785 C203 1.542 . S
C789 C360 1.459 . S
C803 C394 1.673 . S
C807 C237 1.729 . S
C821 C271 1.622 . S
C825 C292 1.546 . S
C839 C258 1.519 . S
C843 C305 1.591 . S
C857 C156 1.489 . S
C861 C339 1.572 . S
C875 C190 1.481 . S
C879 C373 1.558 . S
C893 C407 1.269 . S
C897 C224 1.215 . S
C911 C54 1.450 . S
C915 C441 1.529 . S
C929 C475 1.541 . S
C933 C88 1.481 . S
C947 C111 1.048 . S
C951 C509 1.130 . S
C965 C20 1.551 . S
C969 C543 1.631 . S
C983 C240 1.825 . S
C987 C2 1.825 . S
C1001 C138 1.776 . S
C1005 C36 1.790 . S
C1019 C70 1.754 . S
C1023 C172 1.796 . S
C1037 C206 1.300 . S
C1041 C107 1.309 . S
C1055 C512 1.919 . S
C1059 C274 1.941 . S
C1073 C308 1.794 . S
C1077 C410 1.783 . S
C1091 C342 1.747 . S
C1095 C444 1.764 . S
C1109 C376 2.026 . S
C1113 C478 2.012 . S
C1127 C9 1.229 . S
C1131 C417 1.208 . S
C1145 C43 0.928 . S
C1149 C451 0.940 . S
C1163 C77 1.137 . S
C1167 C485 1.173 . S
C1181 C104 1.392 . S
C1185 C519 1.335 . S
C1199 C145 1.202 . S
C1203 C281 1.227 . S
C1217 C179 0.958 . S
C1221 C315 0.977 . S
C1235 C213 1.129 . S
C1239 C349 1.142 . S
C1253 C383 1.459 . S
C1257 C247 1.439 . S
