# Generated by pormake.
# Topology vbb, (4)-cn, num edge types: 1
# Building blocks:
#     Node 0, Type 0, BuildingBlock: CEKHIL_clean_sbu_0, # of connection points: 4
#     Node 1, Type 0, BuildingBlock: CEKHIL_clean_sbu_0, # of connection points: 4
#     Node 2, Type 0, BuildingBlock: CEKHIL_clean_sbu_0, # of connection points: 4
#     Node 3, Type 0, BuildingBlock: CEKHIL_clean_sbu_0, # of connection points: 4
#     Node 4, Type 0, BuildingBlock: CEKHIL_clean_sbu_0, # of connection points: 4
#     Node 5, Type 0, BuildingBlock: CEKHIL_clean_sbu_0, # of connection points: 4
#     Node 6, Type 0, BuildingBlock: CEKHIL_clean_sbu_0, # of connection points: 4
#     Node 7, Type 0, BuildingBlock: CEKHIL_clean_sbu_0, # of connection points: 4
#     Node 8, Type 0, BuildingBlock: CEKHIL_clean_sbu_0, # of connection points: 4
#     Node 9, Type 0, BuildingBlock: CEKHIL_clean_sbu_0, # of connection points: 4
#     Node 10, Type 0, BuildingBlock: CEKHIL_clean_sbu_0, # of connection points: 4
#     Node 11, Type 0, BuildingBlock: CEKHIL_clean_sbu_0, # of connection points: 4
#     Node 12, Type 0, BuildingBlock: CEKHIL_clean_sbu_0, # of connection points: 4
#     Node 13, Type 0, BuildingBlock: CEKHIL_clean_sbu_0, # of connection points: 4
#     Node 14, Type 0, BuildingBlock: CEKHIL_clean_sbu_0, # of connection points: 4
#     Node 15, Type 0, BuildingBlock: CEKHIL_clean_sbu_0, # of connection points: 4
#     Node 16, Type 0, BuildingBlock: CEKHIL_clean_sbu_0, # of connection points: 4
#     Node 17, Type 0, BuildingBlock: CEKHIL_clean_sbu_0, # of connection points: 4
#     Node 18, Type 0, BuildingBlock: CEKHIL_clean_sbu_0, # of connection points: 4
#     Node 19, Type 0, BuildingBlock: CEKHIL_clean_sbu_0, # of connection points: 4
#     Node 20, Type 0, BuildingBlock: CEKHIL_clean_sbu_0, # of connection points: 4
#     Node 21, Type 0, BuildingBlock: CEKHIL_clean_sbu_0, # of connection points: 4
#     Node 22, Type 0, BuildingBlock: CEKHIL_clean_sbu_0, # of connection points: 4
#     Node 23, Type 0, BuildingBlock: CEKHIL_clean_sbu_0, # of connection points: 4
#     Node 24, Type 0, BuildingBlock: CEKHIL_clean_sbu_0, # of connection points: 4
#     Node 25, Type 0, BuildingBlock: CEKHIL_clean_sbu_0, # of connection points: 4
#     Node 26, Type 0, BuildingBlock: CEKHIL_clean_sbu_0, # of connection points: 4
#     Node 27, Type 0, BuildingBlock: CEKHIL_clean_sbu_0, # of connection points: 4
#     Node 28, Type 0, BuildingBlock: CEKHIL_clean_sbu_0, # of connection points: 4
#     Node 29, Type 0, BuildingBlock: CEKHIL_clean_sbu_0, # of connection points: 4
#     Node 30, Type 0, BuildingBlock: CEKHIL_clean_sbu_0, # of connection points: 4
#     Node 31, Type 0, BuildingBlock: CEKHIL_clean_sbu_0, # of connection points: 4
#     Edge 32, Type (0, 0), BuildingBlock: UVAHIK_clean_linker_0, # of connection points: 2
#     Edge 33, Type (0, 0), BuildingBlock: UVAHIK_clean_linker_0, # of connection points: 2
#     Edge 34, Type (0, 0), BuildingBlock: UVAHIK_clean_linker_0, # of connection points: 2
#     Edge 35, Type (0, 0), BuildingBlock: UVAHIK_clean_linker_0, # of connection points: 2
#     Edge 36, Type (0, 0), BuildingBlock: UVAHIK_clean_linker_0, # of connection points: 2
#     Edge 37, Type (0, 0), BuildingBlock: UVAHIK_clean_linker_0, # of connection points: 2
#     Edge 38, Type (0, 0), BuildingBlock: UVAHIK_clean_linker_0, # of connection points: 2
#     Edge 39, Type (0, 0), BuildingBlock: UVAHIK_clean_linker_0, # of connection points: 2
#     Edge 40, Type (0, 0), BuildingBlock: UVAHIK_clean_linker_0, # of connection points: 2
#     Edge 41, Type (0, 0), BuildingBlock: UVAHIK_clean_linker_0, # of connection points: 2
#     Edge 42, Type (0, 0), BuildingBlock: UVAHIK_clean_linker_0, # of connection points: 2
#     Edge 43, Type (0, 0), BuildingBlock: UVAHIK_clean_linker_0, # of connection points: 2
#     Edge 44, Type (0, 0), BuildingBlock: UVAHIK_clean_linker_0, # of connection points: 2
#     Edge 45, Type (0, 0), BuildingBlock: UVAHIK_clean_linker_0, # of connection points: 2
#     Edge 46, Type (0, 0), BuildingBlock: UVAHIK_clean_linker_0, # of connection points: 2
#     Edge 47, Type (0, 0), BuildingBlock: UVAHIK_clean_linker_0, # of connection points: 2
#     Edge 48, Type (0, 0), BuildingBlock: UVAHIK_clean_linker_0, # of connection points: 2
#     Edge 49, Type (0, 0), BuildingBlock: UVAHIK_clean_linker_0, # of connection points: 2
#     Edge 50, Type (0, 0), BuildingBlock: UVAHIK_clean_linker_0, # of connection points: 2
#     Edge 51, Type (0, 0), BuildingBlock: UVAHIK_clean_linker_0, # of connection points: 2
#     Edge 52, Type (0, 0), BuildingBlock: UVAHIK_clean_linker_0, # of connection points: 2
#     Edge 53, Type (0, 0), BuildingBlock: UVAHIK_clean_linker_0, # of connection points: 2
#     Edge 54, Type (0, 0), BuildingBlock: UVAHIK_clean_linker_0, # of connection points: 2
#     Edge 55, Type (0, 0), BuildingBlock: UVAHIK_clean_linker_0, # of connection points: 2
#     Edge 56, Type (0, 0), BuildingBlock: UVAHIK_clean_linker_0, # of connection points: 2
#     Edge 57, Type (0, 0), BuildingBlock: UVAHIK_clean_linker_0, # of connection points: 2
#     Edge 58, Type (0, 0), BuildingBlock: UVAHIK_clean_linker_0, # of connection points: 2
#     Edge 59, Type (0, 0), BuildingBlock: UVAHIK_clean_linker_0, # of connection points: 2
#     Edge 60, Type (0, 0), BuildingBlock: UVAHIK_clean_linker_0, # of connection points: 2
#     Edge 61, Type (0, 0), BuildingBlock: UVAHIK_clean_linker_0, # of connection points: 2
#     Edge 62, Type (0, 0), BuildingBlock: UVAHIK_clean_linker_0, # of connection points: 2
#     Edge 63, Type (0, 0), BuildingBlock: UVAHIK_clean_linker_0, # of connection points: 2
#     Edge 64, Type (0, 0), BuildingBlock: UVAHIK_clean_linker_0, # of connection points: 2
#     Edge 65, Type (0, 0), BuildingBlock: UVAHIK_clean_linker_0, # of connection points: 2
#     Edge 66, Type (0, 0), BuildingBlock: UVAHIK_clean_linker_0, # of connection points: 2
#     Edge 67, Type (0, 0), BuildingBlock: UVAHIK_clean_linker_0, # of connection points: 2
#     Edge 68, Type (0, 0), BuildingBlock: UVAHIK_clean_linker_0, # of connection points: 2
#     Edge 69, Type (0, 0), BuildingBlock: UVAHIK_clean_linker_0, # of connection points: 2
#     Edge 70, Type (0, 0), BuildingBlock: UVAHIK_clean_linker_0, # of connection points: 2
#     Edge 71, Type (0, 0), BuildingBlock: UVAHIK_clean_linker_0, # of connection points: 2
#     Edge 72, Type (0, 0), BuildingBlock: UVAHIK_clean_linker_0, # of connection points: 2
#     Edge 73, Type (0, 0), BuildingBlock: UVAHIK_clean_linker_0, # of connection points: 2
#     Edge 74, Type (0, 0), BuildingBlock: UVAHIK_clean_linker_0, # of connection points: 2
#     Edge 75, Type (0, 0), BuildingBlock: UVAHIK_clean_linker_0, # of connection points: 2
#     Edge 76, Type (0, 0), BuildingBlock: UVAHIK_clean_linker_0, # of connection points: 2
#     Edge 77, Type (0, 0), BuildingBlock: UVAHIK_clean_linker_0, # of connection points: 2
#     Edge 78, Type (0, 0), BuildingBlock: UVAHIK_clean_linker_0, # of connection points: 2
#     Edge 79, Type (0, 0), BuildingBlock: UVAHIK_clean_linker_0, # of connection points: 2
#     Edge 80, Type (0, 0), BuildingBlock: UVAHIK_clean_linker_0, # of connection points: 2
#     Edge 81, Type (0, 0), BuildingBlock: UVAHIK_clean_linker_0, # of connection points: 2
#     Edge 82, Type (0, 0), BuildingBlock: UVAHIK_clean_linker_0, # of connection points: 2
#     Edge 83, Type (0, 0), BuildingBlock: UVAHIK_clean_linker_0, # of connection points: 2
#     Edge 84, Type (0, 0), BuildingBlock: UVAHIK_clean_linker_0, # of connection points: 2
#     Edge 85, Type (0, 0), BuildingBlock: UVAHIK_clean_linker_0, # of connection points: 2
#     Edge 86, Type (0, 0), BuildingBlock: UVAHIK_clean_linker_0, # of connection points: 2
#     Edge 87, Type (0, 0), BuildingBlock: UVAHIK_clean_linker_0, # of connection points: 2
#     Edge 88, Type (0, 0), BuildingBlock: UVAHIK_clean_linker_0, # of connection points: 2
#     Edge 89, Type (0, 0), BuildingBlock: UVAHIK_clean_linker_0, # of connection points: 2
#     Edge 90, Type (0, 0), BuildingBlock: UVAHIK_clean_linker_0, # of connection points: 2
#     Edge 91, Type (0, 0), BuildingBlock: UVAHIK_clean_linker_0, # of connection points: 2
#     Edge 92, Type (0, 0), BuildingBlock: UVAHIK_clean_linker_0, # of connection points: 2
#     Edge 93, Type (0, 0), BuildingBlock: UVAHIK_clean_linker_0, # of connection points: 2
#     Edge 94, Type (0, 0), BuildingBlock: UVAHIK_clean_linker_0, # of connection points: 2
#     Edge 95, Type (0, 0), BuildingBlock: UVAHIK_clean_linker_0, # of connection points: 2
# Relax obj value: 0.105
# Max RMSD: 0.625
# Mean RMSD: 0.394
data_MOF--net-vbb--node1-CEKHIL_clean_sbu_0--edge1-UVAHIK_clean_linker_0
_symmetry_space_group_name_H-M    P1
_symmetry_Int_Tables_number       1
_symmetry_cell_setting            triclinic
loop_
_symmetry_equiv_pos_as_xyz
'x, y, z'
_cell_length_a     74.694873
_cell_length_b     8.8235095
_cell_length_c     139.66362
_cell_angle_alpha  97.150001
_cell_angle_beta   90.490671
_cell_angle_gamma 88.572316
loop_
_atom_site_label
_atom_site_type_symbol
_atom_site_fract_x
_atom_site_fract_y
_atom_site_fract_z
_atom_type_partial_charge
Co0 Co 0.47722 0.45242 0.06517 0.0
O1 O 0.45161 0.46977 0.06581 0.0
O2 O 0.46688 0.25088 0.06497 0.0
C3 C 0.48298 0.6403 0.07707 0.0
O4 O 0.50416 0.39754 0.06484 0.0
Co5 Co 0.49699 0.72757 0.05866 0.0
O6 O 0.51808 0.61723 0.06331 0.0
C7 C 0.48051 0.50836 0.04395 0.0
C8 C 0.45138 0.32266 0.06553 0.0
C9 C 0.51844 0.47753 0.06482 0.0
O10 O 0.47618 0.42952 0.05068 0.0
O11 O 0.48805 0.63768 0.04562 0.0
O12 O 0.4791 0.50504 0.07903 0.0
O13 O 0.48095 0.66344 0.06815 0.0
Co14 Co 0.74019 0.01068 0.06351 0.0
O15 O 0.76384 0.92724 0.06033 0.0
O16 O 0.75585 0.16733 0.0597 0.0
C17 C 0.7395 0.9224 0.07865 0.0
O18 O 0.71658 0.11414 0.06632 0.0
Co19 Co 0.73411 0.80789 0.05757 0.0
O20 O 0.70827 0.88289 0.06064 0.0
C21 C 0.73842 0.90534 0.04236 0.0
C22 C 0.76838 0.0616 0.05865 0.0
C23 C 0.70401 0.01979 0.06419 0.0
O24 O 0.73218 0.99702 0.04934 0.0
O25 O 0.74477 0.77975 0.04435 0.0
O26 O 0.74768 0.03947 0.07674 0.0
O27 O 0.73127 0.84362 0.0716 0.0
Co28 Co 0.47969 0.6596 0.18499 0.0
O29 O 0.45528 0.71879 0.18286 0.0
O30 O 0.4695 0.76232 0.19689 0.0
C31 C 0.49085 0.73575 0.17161 0.0
O32 O 0.50531 0.61788 0.18953 0.0
Co33 Co 0.49618 0.39758 0.1706 0.0
O34 O 0.51821 0.44485 0.17823 0.0
C35 C 0.4728 0.31856 0.18568 0.0
C36 C 0.45477 0.77256 0.19192 0.0
C37 C 0.5188 0.53488 0.18609 0.0
O38 O 0.47173 0.46113 0.18886 0.0
O39 O 0.48161 0.26522 0.17815 0.0
O40 O 0.48797 0.83461 0.17918 0.0
O41 O 0.48488 0.60026 0.17199 0.0
Co42 Co 0.74231 0.36445 0.19654 0.0
O43 O 0.7678 0.38834 0.1959 0.0
O44 O 0.75512 0.23785 0.20513 0.0
C45 C 0.7385 0.31142 0.17986 0.0
O46 O 0.7166 0.32862 0.1982 0.0
Co47 Co 0.74297 0.58389 0.19531 0.0
O48 O 0.71545 0.5719 0.19613 0.0
C49 C 0.75116 0.60883 0.21215 0.0
C50 C 0.76977 0.29341 0.20217 0.0
C51 C 0.70732 0.4507 0.19761 0.0
O52 O 0.73957 0.51224 0.20901 0.0
O53 O 0.7601 0.66427 0.2059 0.0
O54 O 0.74408 0.21611 0.18541 0.0
O55 O 0.73521 0.45052 0.18375 0.0
Co56 Co 0.51269 0.67349 0.93011 0.0
O57 O 0.53801 0.68277 0.93234 0.0
O58 O 0.52078 0.88253 0.93004 0.0
C59 C 0.51354 0.46954 0.91886 0.0
O60 O 0.48569 0.6979 0.92739 0.0
Co61 Co 0.494 0.38837 0.93586 0.0
O62 O 0.47424 0.46552 0.92813 0.0
C63 C 0.50271 0.63733 0.95098 0.0
C64 C 0.53674 0.82733 0.93164 0.0
C65 C 0.47274 0.60242 0.92613 0.0
O66 O 0.50839 0.71336 0.94439 0.0
O67 O 0.49726 0.50025 0.94919 0.0
O68 O 0.51636 0.60471 0.91656 0.0
O69 O 0.51256 0.45844 0.92799 0.0
Co70 Co 0.24753 0.88125 0.92404 0.0
O71 O 0.2238 0.96295 0.92717 0.0
O72 O 0.23429 0.74581 0.93145 0.0
C73 C 0.24458 0.8988 0.90749 0.0
O74 O 0.27175 0.7859 0.92169 0.0
Co75 Co 0.25159 0.09723 0.92625 0.0
O76 O 0.27776 0.03058 0.92332 0.0
C77 C 0.25111 0.06697 0.94322 0.0
C78 C 0.22112 0.84539 0.93155 0.0
C79 C 0.28331 0.89107 0.92186 0.0
O80 O 0.25773 0.95864 0.93739 0.0
O81 O 0.24244 0.16969 0.93957 0.0
O82 O 0.2382 0.79398 0.91182 0.0
O83 O 0.25306 0.00589 0.9127 0.0
Co84 Co 0.50983 0.1428 0.80434 0.0
O85 O 0.53434 0.08026 0.80256 0.0
O86 O 0.51214 0.99053 0.79301 0.0
C87 C 0.50947 0.13387 0.82033 0.0
O88 O 0.48264 0.18213 0.80454 0.0
Co89 Co 0.5018 0.45324 0.81652 0.0
O90 O 0.47751 0.36888 0.81678 0.0
C91 C 0.51249 0.4517 0.79645 0.0
C92 C 0.52924 0.99272 0.79496 0.0
C93 C 0.47195 0.26446 0.8104 0.0
O94 O 0.5131 0.30542 0.79574 0.0
O95 O 0.50854 0.53689 0.80428 0.0
O96 O 0.50731 0.01027 0.81435 0.0
O97 O 0.51363 0.25415 0.81645 0.0
Co98 Co 0.2487 0.5841 0.79212 0.0
O99 O 0.22342 0.56259 0.78703 0.0
O100 O 0.22866 0.71092 0.79968 0.0
C101 C 0.24353 0.49253 0.80686 0.0
O102 O 0.274 0.60923 0.79743 0.0
Co103 Co 0.25167 0.48204 0.78589 0.0
O104 O 0.27774 0.42725 0.78591 0.0
C105 C 0.25188 0.75394 0.77798 0.0
C106 C 0.21677 0.65825 0.79356 0.0
C107 C 0.28472 0.51394 0.79269 0.0
O108 O 0.25131 0.78086 0.78701 0.0
O109 O 0.2513 0.61392 0.77464 0.0
O110 O 0.24252 0.6355 0.80582 0.0
O111 O 0.24597 0.40217 0.79898 0.0
Co112 Co 0.48148 0.49239 0.55784 0.0
O113 O 0.45692 0.55349 0.55668 0.0
O114 O 0.46692 0.31458 0.55374 0.0
C115 C 0.4867 0.62425 0.57229 0.0
O116 O 0.50664 0.39471 0.55879 0.0
Co117 Co 0.50904 0.74848 0.55763 0.0
O118 O 0.52419 0.59588 0.56337 0.0
C119 C 0.49482 0.6044 0.53922 0.0
C120 C 0.45338 0.41147 0.55414 0.0
C121 C 0.52152 0.45267 0.56212 0.0
O122 O 0.4856 0.51868 0.54397 0.0
O123 O 0.50477 0.70992 0.54329 0.0
O124 O 0.47904 0.493 0.57158 0.0
O125 O 0.48846 0.68237 0.56427 0.0
Co126 Co 0.74428 0.45365 0.5623 0.0
O127 O 0.77102 0.42535 0.56086 0.0
O128 O 0.75966 0.64027 0.56632 0.0
C129 C 0.74513 0.50889 0.57926 0.0
O130 O 0.71762 0.49446 0.56394 0.0
Co131 Co 0.74394 0.31868 0.5599 0.0
O132 O 0.71825 0.25653 0.55855 0.0
C133 C 0.74654 0.46133 0.54349 0.0
C134 C 0.77406 0.56386 0.56376 0.0
C135 C 0.7089 0.37417 0.56136 0.0
O136 O 0.74244 0.55762 0.55059 0.0
O137 O 0.74947 0.32667 0.54548 0.0
O138 O 0.74513 0.61323 0.57357 0.0
O139 O 0.74584 0.37173 0.57489 0.0
Co140 Co 0.48223 0.91757 0.68772 0.0
O141 O 0.45669 0.9128 0.68789 0.0
O142 O 0.47277 0.07425 0.69764 0.0
C143 C 0.48533 0.90706 0.67168 0.0
O144 O 0.50936 0.94886 0.68908 0.0
Co145 Co 0.50155 0.62358 0.67803 0.0
O146 O 0.52163 0.76619 0.67819 0.0
C147 C 0.48902 0.63135 0.69788 0.0
C148 C 0.45706 0.02241 0.69495 0.0
C149 C 0.52283 0.88739 0.68414 0.0
O150 O 0.48344 0.76897 0.69746 0.0
O151 O 0.49632 0.54799 0.69074 0.0
O152 O 0.48173 0.03615 0.67692 0.0
O153 O 0.4845 0.78682 0.67612 0.0
Co154 Co 0.74679 0.87642 0.69707 0.0
O155 O 0.7695 0.97333 0.69918 0.0
O156 O 0.76487 0.73797 0.70193 0.0
C157 C 0.74322 0.93386 0.68128 0.0
O158 O 0.72407 0.76448 0.69542 0.0
Co159 Co 0.73996 0.08365 0.70193 0.0
O160 O 0.71446 -0.00026 0.70028 0.0
C161 C 0.74579 0.01126 0.71773 0.0
C162 C 0.77597 0.84961 0.702 0.0
C163 C 0.71106 0.85914 0.69761 0.0
O164 O 0.73972 0.91122 0.71132 0.0
O165 O 0.75175 0.13044 0.71498 0.0
O166 O 0.75311 0.82609 0.6838 0.0
O167 O 0.7352 0.02289 0.68808 0.0
Co168 Co 0.50951 0.5775 0.42743 0.0
O169 O 0.53451 0.54326 0.42524 0.0
O170 O 0.5232 0.72345 0.43612 0.0
C171 C 0.50118 0.57053 0.41197 0.0
O172 O 0.48355 0.63969 0.43112 0.0
Co173 Co 0.4856 0.30479 0.41998 0.0
O174 O 0.46692 0.46879 0.42174 0.0
C175 C 0.50428 0.30019 0.4384 0.0
C176 C 0.5373 0.65364 0.43203 0.0
C177 C 0.46844 0.59229 0.42745 0.0
O178 O 0.5104 0.43144 0.43732 0.0
O179 O 0.49433 0.22431 0.43211 0.0
O180 O 0.50733 0.69491 0.41665 0.0
O181 O 0.50269 0.44952 0.41635 0.0
Co182 Co 0.24709 0.40179 0.42924 0.0
O183 O 0.22142 0.41172 0.43036 0.0
O184 O 0.23831 0.2315 0.4356 0.0
C185 C 0.24651 0.42003 0.41267 0.0
O186 O 0.27357 0.37862 0.42888 0.0
Co187 Co 0.24268 0.61959 0.43176 0.0
O188 O 0.27011 0.62885 0.43101 0.0
C189 C 0.23967 0.57538 0.44842 0.0
C190 C 0.22233 0.28947 0.43453 0.0
C191 C 0.28057 0.51064 0.42999 0.0
O192 O 0.2512 0.49634 0.44323 0.0
O193 O 0.22854 0.65196 0.44409 0.0
O194 O 0.24396 0.29901 0.41649 0.0
O195 O 0.24957 0.5435 0.41843 0.0
Co196 Co 0.50312 0.23817 0.29862 0.0
O197 O 0.52747 0.2854 0.29633 0.0
O198 O 0.51639 0.05506 0.293 0.0
C199 C 0.50138 0.35545 0.31377 0.0
O200 O 0.47803 0.15487 0.30053 0.0
Co201 Co 0.47602 0.51355 0.30182 0.0
O202 O 0.46204 0.35943 0.30747 0.0
C203 C 0.4851 0.38166 0.28201 0.0
C204 C 0.53023 0.14277 0.29318 0.0
C205 C 0.46404 0.21597 0.30504 0.0
O206 O 0.49585 0.28556 0.28541 0.0
O207 O 0.47637 0.48657 0.28732 0.0
O208 O 0.50864 0.22001 0.31198 0.0
O209 O 0.49796 0.42453 0.30628 0.0
Co210 Co 0.24105 0.07177 0.2989 0.0
O211 O 0.21787 0.99254 0.29506 0.0
O212 O 0.22415 0.2362 0.29623 0.0
C213 C 0.24307 0.95697 0.31312 0.0
O214 O 0.26437 0.16786 0.30245 0.0
Co215 Co 0.24671 0.87933 0.29161 0.0
O216 O 0.27262 0.94429 0.29472 0.0
C217 C 0.24296 0.00712 0.27744 0.0
C218 C 0.21241 0.13013 0.29427 0.0
C219 C 0.2769 0.07397 0.29923 0.0
O220 O 0.24908 0.08346 0.285 0.0
O221 O 0.23591 0.88199 0.27838 0.0
O222 O 0.23375 0.07622 0.31204 0.0
O223 O 0.25133 0.89009 0.30558 0.0
Co224 Co 0.97389 0.36061 0.57072 0.0
O225 O 0.94829 0.36863 0.57117 0.0
O226 O 0.96459 0.15441 0.56939 0.0
C227 C 0.97882 0.53426 0.58347 0.0
O228 O 0.00101 0.3153 0.5704 0.0
Co229 Co 0.99291 0.64966 0.56599 0.0
O230 O 0.01357 0.54654 0.57165 0.0
C231 C 0.97828 0.44062 0.55007 0.0
C232 C 0.94878 0.22076 0.57017 0.0
C233 C 0.01465 0.40268 0.57191 0.0
O234 O 0.9732 0.35596 0.55632 0.0
O235 O 0.98597 0.56815 0.55239 0.0
O236 O 0.97532 0.39432 0.5846 0.0
O237 O 0.97662 0.57061 0.57482 0.0
Co238 Co 0.23783 0.06572 0.55977 0.0
O239 O 0.26139 0.98472 0.55622 0.0
O240 O 0.25321 0.22529 0.55602 0.0
C241 C 0.23783 0.97212 0.57477 0.0
O242 O 0.21422 0.16541 0.56304 0.0
Co243 Co 0.2328 0.86615 0.55367 0.0
O244 O 0.20679 0.933 0.55709 0.0
C245 C 0.2351 0.96849 0.53854 0.0
C246 C 0.26576 0.12003 0.55469 0.0
C247 C 0.20203 0.06773 0.56086 0.0
O248 O 0.22896 0.05622 0.54573 0.0
O249 O 0.24275 0.84631 0.54028 0.0
O250 O 0.24581 0.09056 0.57294 0.0
O251 O 0.22954 0.89468 0.56769 0.0
Co252 Co 0.98395 0.72296 0.69312 0.0
O253 O 0.95875 0.76742 0.69304 0.0
O254 O 0.97693 0.83978 0.70531 0.0
C255 C 0.98962 0.78014 0.67826 0.0
O256 O 0.011 0.6986 0.69529 0.0
Co257 Co -0.00259 0.44665 0.67887 0.0
O258 O 0.02116 0.51518 0.68374 0.0
C259 C 0.9812 0.38676 0.69683 0.0
C260 C 0.96074 0.8344 0.70175 0.0
C261 C 0.02373 0.61625 0.69094 0.0
O262 O 0.97955 0.53182 0.69905 0.0
O263 O 0.98771 0.32416 0.68883 0.0
O264 O 0.98837 0.88808 0.68548 0.0
O265 O 0.98516 0.64558 0.68005 0.0
Co266 Co 0.25013 0.51273 0.69134 0.0
O267 O 0.27535 0.55193 0.69276 0.0
O268 O 0.2617 0.37791 0.69984 0.0
C269 C 0.25051 0.48352 0.67447 0.0
O270 O 0.22447 0.46174 0.69095 0.0
Co271 Co 0.2503 0.73278 0.69139 0.0
O272 O 0.22294 0.70923 0.69012 0.0
C273 C 0.25339 0.74171 0.70863 0.0
C274 C 0.27645 0.44677 0.69839 0.0
C275 C 0.21495 0.58292 0.69042 0.0
O276 O 0.24362 0.64035 0.70416 0.0
O277 O 0.26353 0.81078 0.70359 0.0
O278 O 0.2556 0.38222 0.67971 0.0
O279 O 0.24507 0.61433 0.67887 0.0
Co280 Co 0.02027 0.57908 0.43845 0.0
O281 O 0.04523 0.5445 0.44094 0.0
O282 O 0.03281 0.77146 0.43973 0.0
C283 C 0.01689 0.39328 0.42614 0.0
O284 O 0.99463 0.65151 0.43552 0.0
Co285 Co 0.9944 0.32495 0.44247 0.0
O286 O 0.97824 0.43848 0.43444 0.0
C287 C 0.00635 0.54208 0.45869 0.0
C288 C 0.04722 0.69008 0.44105 0.0
C289 C 0.98014 0.578 0.43322 0.0
O290 O 0.01518 0.60956 0.45267 0.0
O291 O -0.0023 0.42004 0.45621 0.0
O292 O 0.02384 0.52217 0.4248 0.0
O293 O 0.015 0.37134 0.43508 0.0
Co294 Co 0.75836 0.93934 0.42973 0.0
O295 O 0.73322 0.0206 0.43242 0.0
O296 O 0.7379 0.78976 0.42676 0.0
C297 C 0.75429 0.88711 0.41292 0.0
O298 O 0.78316 0.84752 0.42695 0.0
Co299 Co 0.76226 0.06971 0.432 0.0
O300 O 0.78902 0.0815 0.43157 0.0
C301 C 0.75814 0.93563 0.44864 0.0
C302 C 0.72623 0.89263 0.42996 0.0
C303 C 0.79496 0.94888 0.42869 0.0
O304 O 0.75883 0.83501 0.44144 0.0
O305 O 0.75835 0.07199 0.44668 0.0
O306 O 0.75195 0.78646 0.41869 0.0
O307 O 0.75768 0.02117 0.41715 0.0
Co308 Co 0.00612 0.31362 0.31849 0.0
O309 O 0.03085 0.25114 0.31825 0.0
O310 O 0.01232 0.20936 0.30579 0.0
C311 C -0.00016 0.23931 0.33284 0.0
O312 O 0.97929 0.36077 0.31661 0.0
Co313 Co -0.00528 0.57797 0.33406 0.0
O314 O 0.97051 0.50586 0.33026 0.0
C315 C 0.01151 0.65302 0.31656 0.0
C316 C 0.02847 0.19791 0.30929 0.0
C317 C 0.96696 0.42765 0.3222 0.0
O318 O 0.01244 0.5095 0.31369 0.0
O319 O 0.00498 0.70894 0.32471 0.0
O320 O 3e-05 0.14055 0.32511 0.0
O321 O 0.00552 0.37375 0.3318 0.0
Co322 Co 0.74488 0.62735 0.29859 0.0
O323 O 0.72097 0.56643 0.29473 0.0
O324 O 0.7294 0.80498 0.29681 0.0
C325 C 0.74605 0.49423 0.31211 0.0
O326 O 0.76891 0.70716 0.30233 0.0
Co327 Co 0.74947 0.43892 0.29047 0.0
O328 O 0.77584 0.48884 0.29356 0.0
C329 C 0.74626 0.58296 0.27703 0.0
C330 C 0.71663 0.7087 0.29466 0.0
C331 C 0.78087 0.6116 0.29864 0.0
O332 O 0.75272 0.65065 0.28479 0.0
O333 O 0.73871 0.45838 0.27746 0.0
O334 O 0.73781 0.62101 0.31169 0.0
O335 O 0.75379 0.43157 0.3043 0.0
Co336 Co 0.98227 0.39347 0.06984 0.0
O337 O 0.95688 0.41669 0.07109 0.0
O338 O 0.9704 0.24492 0.06048 0.0
C339 C 0.98849 0.40194 0.08564 0.0
O340 O 0.00882 0.34262 0.06691 0.0
Co341 Co 0.00448 0.6705 0.07821 0.0
O342 O 0.02402 0.51348 0.07703 0.0
C343 C 0.98741 0.67557 0.05936 0.0
C344 C 0.95551 0.3088 0.06398 0.0
C345 C 0.02347 0.39248 0.07103 0.0
O346 O 0.98168 0.542 0.06013 0.0
O347 O -0.00332 0.75243 0.06592 0.0
O348 O 0.98376 0.27511 0.08064 0.0
O349 O 0.98718 0.52261 0.08123 0.0
Co350 Co 0.24478 0.58192 0.0565 0.0
O351 O 0.27157 0.56442 0.05468 0.0
O352 O 0.25964 0.77314 0.06064 0.0
C353 C 0.24615 0.63232 0.07342 0.0
O354 O 0.21791 0.60674 0.05845 0.0
Co355 Co 0.2456 0.44731 0.05391 0.0
O356 O 0.22082 0.3659 0.05423 0.0
C357 C 0.24583 0.60031 0.03781 0.0
C358 C 0.27424 0.70214 0.05786 0.0
C359 C 0.21041 0.4781 0.05674 0.0
O360 O 0.2414 0.69093 0.04511 0.0
O361 O 0.25017 0.46637 0.0395 0.0
O362 O 0.2452 0.73857 0.06787 0.0
O363 O 0.24761 0.4963 0.06891 0.0
Co364 Co 0.98068 0.77738 0.20138 0.0
O365 O 0.95568 0.74175 0.20256 0.0
O366 O 0.96819 0.96434 0.207 0.0
C367 C 0.98419 0.6673 0.18615 0.0
O368 O 0.00665 0.8482 0.20085 0.0
Co369 Co 0.00516 0.48513 0.19918 0.0
O370 O 0.02327 0.63318 0.19646 0.0
C371 C 0.99337 0.61323 0.21851 0.0
C372 C 0.95379 0.88287 0.20628 0.0
C373 C 0.02159 0.7779 0.19832 0.0
O374 O 0.98505 0.71964 0.21467 0.0
O375 O 0.00177 0.50226 0.21356 0.0
O376 O 0.9778 0.8059 0.18796 0.0
O377 O 0.98552 0.59181 0.19352 0.0
Co378 Co 0.24259 0.96036 0.19121 0.0
O379 O 0.26514 0.04297 0.1959 0.0
O380 O 0.25728 0.80701 0.19696 0.0
C381 C 0.2457 0.03003 0.17566 0.0
O382 O 0.2199 0.86001 0.18711 0.0
Co383 Co 0.23602 0.16832 0.19583 0.0
O384 O 0.21107 0.10018 0.19077 0.0
C385 C 0.23587 0.08379 0.21162 0.0
C386 C 0.26927 0.91168 0.19856 0.0
C387 C 0.2073 0.96144 0.18773 0.0
O388 O 0.2307 0.99219 0.20448 0.0
O389 O 0.24401 0.19954 0.20976 0.0
O390 O 0.25335 0.91537 0.17879 0.0
O391 O 0.23585 0.11793 0.18172 0.0
Co392 Co 0.0085 0.64959 0.93996 0.0
O393 O 0.03362 0.61355 0.94162 0.0
O394 O 0.02005 0.83962 0.94503 0.0
C395 C 0.00608 0.52752 0.92497 0.0
O396 O 0.98213 0.71963 0.93865 0.0
Co397 Co 0.98527 0.36043 0.9383 0.0
O398 O 0.96808 0.50255 0.93296 0.0
C399 C -0.00318 0.49747 0.95746 0.0
C400 C 0.03482 0.7571 0.9447 0.0
C401 C 0.96842 0.64762 0.93481 0.0
O402 O 0.00419 0.60301 0.95345 0.0
O403 O 0.98908 0.38395 0.95268 0.0
O404 O 0.01173 0.66625 0.92643 0.0
O405 O 0.00475 0.45936 0.93264 0.0
Co406 Co 0.74453 0.52466 0.93219 0.0
O407 O 0.71798 0.55343 0.93466 0.0
O408 O 0.72821 0.3428 0.92791 0.0
C409 C 0.74189 0.48613 0.9153 0.0
O410 O 0.77117 0.48908 0.92971 0.0
Co411 Co 0.7447 0.65675 0.93517 0.0
O412 O 0.77027 0.71937 0.93669 0.0
C413 C 0.74429 0.4939 0.95078 0.0
C414 C 0.71429 0.41845 0.93131 0.0
C415 C 0.77976 0.60732 0.93302 0.0
O416 O 0.7478 0.4063 0.94319 0.0
O417 O 0.74073 0.63129 0.94954 0.0
O418 O 0.74232 0.37534 0.92051 0.0
O419 O 0.74164 0.62008 0.92014 0.0
Co420 Co 0.00174 0.03091 0.80981 0.0
O421 O 0.02713 0.03706 0.81122 0.0
O422 O 0.01304 0.85 0.80247 0.0
C423 C -0.00415 0.09057 0.82558 0.0
O424 O 0.97489 0.99404 0.80744 0.0
Co425 Co 0.98121 0.33901 0.81506 0.0
O426 O 0.9613 0.19803 0.81601 0.0
C427 C -0.00358 0.26787 0.79564 0.0
C428 C 0.02811 0.90716 0.80585 0.0
C429 C 0.96086 0.06461 0.81134 0.0
O430 O 0.00268 0.14128 0.79808 0.0
O431 O 0.98788 0.36704 0.80148 0.0
O432 O -0.0002 0.95101 0.82205 0.0
O433 O -0.00225 0.19221 0.81975 0.0
Co434 Co 0.73856 0.02328 0.79941 0.0
O435 O 0.7179 0.90088 0.79611 0.0
O436 O 0.71907 0.14397 0.79425 0.0
C437 C 0.74137 0.95639 0.81507 0.0
O438 O 0.75903 0.1616 0.80221 0.0
Co439 Co 0.74911 0.82795 0.79443 0.0
O440 O 0.77266 0.94139 0.79724 0.0
C441 C 0.74433 0.90403 0.77861 0.0
C442 C 0.70984 0.01982 0.79347 0.0
C443 C 0.77355 0.08399 0.80029 0.0
O444 O 0.74741 0.00829 0.78548 0.0
O445 O 0.74052 0.77457 0.78077 0.0
O446 O 0.73007 0.05338 0.81244 0.0
O447 O 0.75163 0.88558 0.80845 0.0
C448 C 0.4807 0.84859 0.09067 0.0
C449 C 0.49145 0.74761 0.0845 0.0
C450 C 0.487 0.90473 0.09988 0.0
C451 C 0.51153 0.72601 0.11712 0.0
H452 H 0.50518 0.10042 0.13453 0.0
C453 C 0.51067 0.68737 0.15732 0.0
C454 C 0.49796 0.7806 0.16266 0.0
C455 C 0.51571 0.71987 0.14821 0.0
C456 C 0.5069 0.99445 0.12979 0.0
H457 H 0.51753 0.63586 0.08274 0.0
H458 H 0.52864 0.73633 0.09857 0.0
H459 H 0.50298 0.10685 0.11708 0.0
H460 H 0.4811 0.98408 0.16308 0.0
H461 H 0.48857 0.03407 0.14688 0.0
H462 H 0.51364 0.60935 0.12946 0.0
C463 C 0.51546 0.77319 0.09634 0.0
C464 C 0.50582 -0.00101 0.1198 0.0
C465 C 0.50915 0.71659 0.08722 0.0
C466 C 0.49096 0.91075 0.15902 0.0
C467 C 0.49542 0.93993 0.14974 0.0
C468 C 0.51214 0.72065 0.12702 0.0
C469 C 0.50403 0.85886 0.10297 0.0
C470 C 0.50788 0.86412 0.11341 0.0
C471 C 0.50743 0.84177 0.14406 0.0
C472 C 0.50948 0.85407 0.13355 0.0
H473 H 0.46688 0.87116 0.08878 0.0
H474 H 0.47786 0.96947 0.1049 0.0
H475 H 0.51278 0.61956 0.11235 0.0
H476 H 0.51645 0.58785 0.16012 0.0
H477 H 0.5256 0.64524 0.1443 0.0
C478 C 0.73139 0.35932 0.16278 0.0
C479 C 0.73471 0.25744 0.16959 0.0
C480 C 0.72918 0.30381 0.15299 0.0
C481 C 0.74197 0.96839 0.13581 0.0
H482 H 0.70895 0.14237 0.11835 0.0
C483 C 0.7522 0.92059 0.09499 0.0
C484 C 0.73734 0.89973 0.08881 0.0
C485 C 0.75001 0.93725 0.10497 0.0
C486 C 0.71803 0.09102 0.12318 0.0
H487 H 0.7373 0.01746 0.17157 0.0
H488 H 0.73324 0.92205 0.15468 0.0
H489 H 0.70805 0.23409 0.13564 0.0
H490 H 0.70859 0.8754 0.08809 0.0
H491 H 0.70463 0.90632 0.10571 0.0
H492 H 0.75219 0.82768 0.12338 0.0
C493 C 0.73276 0.04446 0.15679 0.0
C494 C 0.71769 0.14497 0.13305 0.0
C495 C 0.73504 0.09952 0.1665 0.0
C496 C 0.72027 0.88848 0.09274 0.0
C497 C 0.718 0.90817 0.10279 0.0
C498 C 0.74237 0.91531 0.12598 0.0
C499 C 0.73021 0.14564 0.14988 0.0
C500 C 0.72979 0.08529 0.13946 0.0
C501 C 0.73284 0.93634 0.10898 0.0
C502 C 0.73061 0.97754 0.11954 0.0
H503 H 0.73102 0.48152 0.16496 0.0
H504 H 0.72732 0.38479 0.14782 0.0
H505 H 0.75162 0.92094 0.14052 0.0
H506 H 0.76546 0.93159 0.0921 0.0
H507 H 0.76167 0.96024 0.10953 0.0
C508 C 0.51341 0.26285 0.83713 0.0
C509 C 0.50854 0.13345 0.83087 0.0
C510 C 0.51374 0.25895 0.84709 0.0
C511 C 0.49591 0.06581 0.86653 0.0
H512 H 0.53674 0.24503 0.88061 0.0
C513 C 0.52598 0.25704 0.90753 0.0
C514 C 0.51099 0.34242 0.91124 0.0
C515 C 0.52541 0.17742 0.89824 0.0
C516 C 0.52541 0.19126 0.87681 0.0
H517 H 0.49962 0.90004 0.83009 0.0
H518 H 0.50004 0.89403 0.84756 0.0
H519 H 0.53629 0.22229 0.86309 0.0
H520 H 0.48343 0.40593 0.90855 0.0
H521 H 0.4823 0.26719 0.89239 0.0
H522 H 0.48479 0.03935 0.88032 0.0
C523 C 0.50368 0.99796 0.84474 0.0
C524 C 0.52504 0.18059 0.86677 0.0
C525 C 0.50349 0.00145 0.83476 0.0
C526 C 0.49499 0.33721 0.90592 0.0
C527 C 0.49439 0.25786 0.89663 0.0
C528 C 0.49622 0.07738 0.87662 0.0
C529 C 0.50908 0.12594 0.85099 0.0
C530 C 0.5101 0.12164 0.86154 0.0
C531 C 0.50991 0.18452 0.89249 0.0
C532 C 0.5108 0.14361 0.88187 0.0
H533 H 0.51729 0.36638 0.83434 0.0
H534 H 0.51765 0.36025 0.85175 0.0
H535 H 0.48422 0.01965 0.86267 0.0
H536 H 0.5386 0.26373 0.91142 0.0
H537 H 0.53752 0.12061 0.89527 0.0
C538 C 0.22656 0.46581 0.82157 0.0
C539 C 0.24279 0.44674 0.81656 0.0
C540 C 0.2265 0.49209 0.83166 0.0
C541 C 0.25612 0.52657 0.85372 0.0
H542 H 0.2213 0.84537 0.86266 0.0
C543 C 0.25988 0.88648 0.89151 0.0
C544 C 0.24416 0.88053 0.89687 0.0
C545 C 0.25995 0.83467 0.88159 0.0
C546 C 0.2311 0.75635 0.86026 0.0
H547 H 0.27158 0.43211 0.81803 0.0
H548 H 0.27165 0.48012 0.83557 0.0
H549 H 0.22047 0.72877 0.84595 0.0
H550 H 0.21613 0.82313 0.89615 0.0
H551 H 0.21604 0.73955 0.87882 0.0
H552 H 0.26701 0.55945 0.86809 0.0
C553 C 0.25887 0.47084 0.83185 0.0
C554 C 0.2305 0.68758 0.8507 0.0
C555 C 0.25887 0.44171 0.82177 0.0
C556 C 0.22836 0.83029 0.89212 0.0
C557 C 0.22833 0.78208 0.88223 0.0
C558 C 0.25686 0.59726 0.86327 0.0
C559 C 0.24272 0.5047 0.8369 0.0
C560 C 0.24292 0.57089 0.84729 0.0
C561 C 0.24421 0.77964 0.87691 0.0
C562 C 0.2443 0.71235 0.86663 0.0
H563 H 0.21403 0.47383 0.81768 0.0
H564 H 0.21377 0.51277 0.83529 0.0
H565 H 0.26582 0.43648 0.85142 0.0
H566 H 0.27229 0.92216 0.89508 0.0
H567 H 0.27235 0.83457 0.87763 0.0
C568 C 0.50027 0.58693 0.58801 0.0
C569 C 0.49459 0.68821 0.58155 0.0
C570 C 0.50517 0.64121 0.59741 0.0
C571 C 0.49311 0.95274 0.6157 0.0
H572 H 0.52618 0.73661 0.6311 0.0
C573 C 0.49103 0.03818 0.65724 0.0
C574 C 0.4907 0.90206 0.6615 0.0
C575 C 0.49559 0.03565 0.64755 0.0
C576 C 0.51692 0.79826 0.62689 0.0
H577 H 0.4908 0.92612 0.57954 0.0
H578 H 0.4992 0.02298 0.59623 0.0
H579 H 0.52854 0.69966 0.61353 0.0
H580 H 0.49541 0.65708 0.65906 0.0
H581 H 0.50324 0.65211 0.64205 0.0
H582 H 0.48107 0.04694 0.62903 0.0
C583 C 0.49978 0.90101 0.59397 0.0
C584 C 0.51831 0.77773 0.61684 0.0
C585 C 0.49506 0.84609 0.58444 0.0
C586 C 0.49548 0.76356 0.65595 0.0
C587 C 0.50011 0.76107 0.64625 0.0
C588 C 0.4918 0.97397 0.62575 0.0
C589 C 0.50438 0.79844 0.60062 0.0
C590 C 0.50594 0.84978 0.61112 0.0
C591 C 0.5 0.89699 0.64192 0.0
C592 C 0.50326 0.89248 0.63143 0.0
H593 H 0.50029 0.46447 0.5859 0.0
H594 H 0.50844 0.55867 0.60232 0.0
H595 H 0.48325 0.00869 0.61152 0.0
H596 H 0.48756 0.14708 0.66135 0.0
H597 H 0.49555 0.14224 0.64445 0.0
C598 C 0.72886 0.79417 0.66703 0.0
C599 C 0.73782 0.92478 0.67109 0.0
C600 C 0.72773 0.75797 0.65704 0.0
C601 C 0.73329 0.89865 0.63353 0.0
H602 H 0.74857 0.47975 0.62518 0.0
C603 C 0.74995 0.69698 0.59378 0.0
C604 C 0.74522 0.54902 0.58984 0.0
C605 C 0.7487 0.74298 0.60368 0.0
C606 C 0.74399 0.59627 0.62734 0.0
H607 H 0.75199 0.12381 0.66805 0.0
H608 H 0.74981 0.06187 0.65041 0.0
H609 H 0.7455 0.56753 0.64231 0.0
H610 H 0.73572 0.33199 0.59317 0.0
H611 H 0.73303 0.41313 0.61052 0.0
H612 H 0.73151 0.92728 0.61857 0.0
C613 C 0.74354 0.98805 0.65497 0.0
C614 C 0.74227 0.64679 0.63718 0.0
C615 C 0.7447 0.02419 0.66503 0.0
C616 C 0.73957 0.44637 0.59604 0.0
C617 C 0.73807 0.49316 0.60598 0.0
C618 C 0.73481 0.8477 0.62366 0.0
C619 C 0.73564 0.8513 0.6509 0.0
C620 C 0.73695 0.79857 0.64039 0.0
C621 C 0.74241 0.64296 0.60991 0.0
C622 C 0.74032 0.69598 0.62043 0.0
H623 H 0.72363 0.71513 0.6716 0.0
H624 H 0.7213 0.65337 0.65412 0.0
H625 H 0.72903 0.01582 0.63578 0.0
H626 H 0.75455 0.77824 0.58919 0.0
H627 H 0.75267 0.85747 0.60643 0.0
C628 C 0.48923 0.71166 0.39888 0.0
C629 C 0.49293 0.57149 0.40237 0.0
C630 C 0.48318 0.71545 0.38945 0.0
C631 C 0.4665 0.47539 0.3676 0.0
H632 H 0.49617 0.73375 0.3541 0.0
C633 C 0.49215 0.30109 0.32993 0.0
C634 C 0.49427 0.40837 0.32343 0.0
C635 C 0.48583 0.34649 0.33919 0.0
C636 C 0.48737 0.66418 0.35775 0.0
H637 H 0.49214 0.3255 0.39901 0.0
H638 H 0.48199 0.33141 0.38238 0.0
H639 H 0.49619 0.76453 0.37163 0.0
H640 H 0.49083 0.64651 0.32134 0.0
H641 H 0.48021 0.72813 0.33787 0.0
H642 H 0.4586 0.36877 0.35365 0.0
C643 C 0.48352 0.43866 0.38698 0.0
C644 C 0.4874 0.68141 0.36782 0.0
C645 C 0.48949 0.43495 0.39646 0.0
C646 C 0.48944 0.56208 0.32627 0.0
C647 C 0.48333 0.60837 0.33567 0.0
C648 C 0.46648 0.45819 0.35753 0.0
C649 C 0.4808 0.57909 0.38329 0.0
C650 C 0.47761 0.58246 0.37283 0.0
C651 C 0.48162 0.50067 0.34223 0.0
C652 C 0.4776 0.54744 0.35253 0.0
H653 H 0.49146 0.819 0.40335 0.0
H654 H 0.48091 0.82523 0.38687 0.0
H655 H 0.45852 0.39988 0.37128 0.0
H656 H 0.49552 0.1813 0.32791 0.0
H657 H 0.48498 0.26123 0.34411 0.0
C658 C 0.23353 0.92105 0.32951 0.0
C659 C 0.24758 0.93015 0.32303 0.0
C660 C 0.2364 0.95345 0.33943 0.0
C661 C 0.26356 0.20448 0.35591 0.0
H662 H 0.23908 0.01272 0.37541 0.0
C663 C 0.26339 0.42647 0.39735 0.0
C664 C 0.24724 0.40881 0.4021 0.0
C665 C 0.26527 0.36977 0.38754 0.0
C666 C 0.24588 0.06853 0.37005 0.0
H667 H 0.27579 0.97356 0.32176 0.0
H668 H 0.28089 0.03053 0.33921 0.0
H669 H 0.24028 0.88634 0.3589 0.0
H670 H 0.22016 0.3284 0.40039 0.0
H671 H 0.22309 0.23615 0.38329 0.0
H672 H 0.2687 0.38907 0.36706 0.0
C673 C 0.26769 0.99702 0.33661 0.0
C674 C 0.24668 0.99533 0.3606 0.0
C675 C 0.26486 0.96179 0.32665 0.0
C676 C 0.23269 0.34418 0.39682 0.0
C677 C 0.23449 0.28916 0.38708 0.0
C678 C 0.26273 0.2782 0.3654 0.0
C679 C 0.25331 -0.00119 0.34307 0.0
C680 C 0.25514 0.06399 0.35337 0.0
C681 C 0.25102 0.29468 0.38242 0.0
C682 C 0.25343 0.21289 0.37251 0.0
H683 H 0.22002 0.90075 0.32686 0.0
H684 H 0.22499 0.95511 0.34419 0.0
H685 H 0.27002 0.26121 0.35047 0.0
H686 H 0.2749 0.47309 0.40136 0.0
H687 H 0.27817 0.37609 0.38415 0.0
C688 C 0.98267 0.78675 0.59366 0.0
C689 C 0.98755 0.63213 0.59133 0.0
C690 C 0.98846 0.86689 0.60241 0.0
C691 C 0.98749 0.92783 0.62438 0.0
H692 H 0.03014 0.80204 0.63765 0.0
C693 C 0.00058 0.6935 0.66161 0.0
C694 C 0.99456 0.81211 0.66854 0.0
C695 C 0.00425 0.72254 0.65223 0.0
C696 C 0.01831 0.84067 0.63402 0.0
H697 H 0.00365 0.44418 0.5956 0.0
H698 H 0.01364 0.58103 0.61066 0.0
H699 H 0.02956 0.77707 0.62004 0.0
H700 H 0.98802 0.0546 0.67122 0.0
H701 H 0.99374 0.10374 0.65464 0.0
H702 H 0.97605 0.9857 0.63842 0.0
C703 C 0.00544 0.64265 0.60593 0.0
C704 C 0.01793 0.82619 0.62396 0.0
C705 C -0.00047 0.56304 0.59733 0.0
C706 C 0.99266 0.96105 0.666 0.0
C707 C -0.00407 0.98942 0.65655 0.0
C708 C 0.988 0.94495 0.63446 0.0
C709 C -0.00061 0.79343 0.60881 0.0
C710 C 0.00208 0.85973 0.61902 0.0
C711 C 0.00163 0.87004 0.64958 0.0
C712 C 0.00303 0.89307 0.63932 0.0
H713 H 0.97347 0.84209 0.58908 0.0
H714 H 0.9837 0.98344 0.60438 0.0
H715 H 0.97504 0.95444 0.62085 0.0
H716 H 0.00224 0.57797 0.6634 0.0
H717 H 0.00841 0.62822 0.64694 0.0
C718 C 0.24912 0.90783 0.59045 0.0
C719 C 0.23478 0.95448 0.58491 0.0
C720 C 0.24918 0.94583 0.60046 0.0
C721 C 0.22246 0.13196 0.62152 0.0
H722 H 0.26925 0.27394 0.63029 0.0
C723 C 0.23531 0.50164 0.65849 0.0
C724 C 0.249 0.44112 0.66395 0.0
C725 C 0.2328 0.44295 0.64877 0.0
C726 C 0.25611 0.23449 0.62795 0.0
H727 H 0.20888 0.06997 0.58535 0.0
H728 H 0.209 0.13915 0.60281 0.0
H729 H 0.26556 0.14975 0.6139 0.0
H730 H 0.27117 0.27714 0.66351 0.0
H731 H 0.26711 0.17844 0.64661 0.0
H732 H 0.21308 0.22138 0.63564 0.0
C733 C 0.22003 0.06987 0.59956 0.0
C734 C 0.254 0.16146 0.61858 0.0
C735 C 0.21987 0.02941 0.58955 0.0
C736 C 0.26051 0.32594 0.65946 0.0
C737 C 0.25821 0.26955 0.64978 0.0
C738 C 0.22456 0.20672 0.6309 0.0
C739 C 0.23512 0.03537 0.60507 0.0
C740 C 0.2372 0.10765 0.61524 0.0
C741 C 0.24418 0.32548 0.64437 0.0
C742 C 0.24146 0.25746 0.63422 0.0
H743 H 0.26089 0.85238 0.58697 0.0
H744 H 0.26079 0.91337 0.60451 0.0
H745 H 0.20934 0.09176 0.61922 0.0
H746 H 0.22616 0.58947 0.66182 0.0
H747 H 0.22194 0.48858 0.64472 0.0
C748 C 0.98965 0.31128 0.34979 0.0
C749 C 0.99445 0.19751 0.34227 0.0
C750 C 0.98561 0.27219 0.35889 0.0
C751 C -0.00053 0.01195 0.37503 0.0
H752 H 0.96123 0.21235 0.39081 0.0
C753 C 0.00834 0.14909 0.416 0.0
C754 C 0.007 0.30861 0.41813 0.0
C755 C 0.00102 0.07715 0.40735 0.0
C756 C 0.97181 0.15263 0.38649 0.0
H757 H -0.00157 0.95372 0.33826 0.0
H758 H 0.99207 0.88592 0.35437 0.0
H759 H 0.95936 0.19967 0.37327 0.0
H760 H -0.00411 0.51671 0.41347 0.0
H761 H 0.98293 0.39343 0.39875 0.0
H762 H 0.01285 0.97975 0.38826 0.0
C763 C 0.99109 0.00463 0.35313 0.0
C764 C 0.97073 0.14576 0.37647 0.0
C765 C -0.00526 0.04356 0.34395 0.0
C766 C -0.00282 0.39343 0.41196 0.0
C767 C 0.98956 0.32219 0.40355 0.0
C768 C 0.00066 0.02069 0.38509 0.0
C769 C 0.98664 0.11892 0.36069 0.0
C770 C 0.98505 0.08354 0.37071 0.0
C771 C 0.99189 0.16413 0.40095 0.0
C772 C 0.9874 0.10057 0.39091 0.0
H773 H 0.98925 0.43066 0.34868 0.0
H774 H 0.98247 0.3627 0.36465 0.0
H775 H 0.01067 0.96309 0.37073 0.0
H776 H 0.01589 0.08184 0.42069 0.0
H777 H 0.00306 0.95512 0.40549 0.0
C778 C 0.7424 0.72591 0.39851 0.0
C779 C 0.75317 0.84682 0.40236 0.0
C780 C 0.74286 0.67275 0.38866 0.0
C781 C 0.75962 0.766 0.3649 0.0
H782 H 0.7506 0.33661 0.35719 0.0
C783 C 0.76747 0.48832 0.32562 0.0
C784 C 0.75049 0.4529 0.32172 0.0
C785 C 0.76999 0.51093 0.33564 0.0
C786 C 0.75328 0.45634 0.35928 0.0
H787 H 0.77278 0.00822 0.39901 0.0
H788 H 0.7743 0.91168 0.38187 0.0
H789 H 0.75049 0.43724 0.37427 0.0
H790 H 0.72321 0.40279 0.32505 0.0
H791 H 0.72789 0.43267 0.34256 0.0
H792 H 0.7629 0.7823 0.34983 0.0
C793 C 0.76498 0.86035 0.38633 0.0
C794 C 0.75298 0.51516 0.36906 0.0
C795 C 0.76416 0.9161 0.39617 0.0
C796 C 0.73653 0.42615 0.32791 0.0
C797 C 0.73917 0.44459 0.3379 0.0
C798 C 0.76035 0.70616 0.35515 0.0
C799 C 0.75451 0.73621 0.38244 0.0
C800 C 0.7558 0.67174 0.37202 0.0
C801 C 0.75566 0.49472 0.34185 0.0
C802 C 0.75695 0.55145 0.35225 0.0
H803 H 0.73372 0.67107 0.40314 0.0
H804 H 0.73411 0.58088 0.38598 0.0
H805 H 0.76155 0.88722 0.36678 0.0
H806 H 0.77829 0.51356 0.32099 0.0
H807 H 0.78281 0.54994 0.33854 0.0
C808 C 0.99286 0.45334 0.17324 0.0
C809 C 0.99082 0.61007 0.17642 0.0
C810 C -0.0024 0.40406 0.16363 0.0
C811 C 0.01564 0.54126 0.14154 0.0
H812 H 0.9828 0.25701 0.12781 0.0
C813 C -0.00247 0.54562 0.10149 0.0
C814 C 0.99403 0.40653 0.09584 0.0
C815 C 0.00131 0.54923 0.11134 0.0
C816 C 0.99235 0.33421 0.13153 0.0
H817 H 0.99322 0.83795 0.17232 0.0
H818 H 0.0014 0.75302 0.15577 0.0
H819 H 0.98267 0.29556 0.14539 0.0
H820 H 0.99263 0.16128 0.09594 0.0
H821 H -0.00072 0.16776 0.11309 0.0
H822 H 0.02476 0.58493 0.12767 0.0
C823 C -0.0006 0.6675 0.16056 0.0
C824 C 0.9923 0.35587 0.14162 0.0
C825 C 0.99448 0.71622 0.17004 0.0
C826 C -0.00491 0.27061 0.10013 0.0
C827 C -0.00115 0.27417 0.10996 0.0
C828 C 0.01567 0.5198 0.13146 0.0
C829 C 0.00068 0.51113 0.15717 0.0
C830 C 0.0035 0.46368 0.14671 0.0
C831 C 0.00167 0.41374 0.11572 0.0
C832 C 0.00361 0.41979 0.12635 0.0
H833 H 0.99018 0.36939 0.17805 0.0
H834 H -0.00144 0.28268 0.16121 0.0
H835 H 0.02464 0.62333 0.14529 0.0
H836 H -0.00315 0.65205 0.09837 0.0
H837 H 0.00322 0.6589 0.1156 0.0
C838 C 0.26075 0.97568 0.15991 0.0
C839 C 0.24586 0.03832 0.1652 0.0
C840 C 0.25986 0.94444 0.14991 0.0
C841 C 0.24811 0.76779 0.13117 0.0
H842 H 0.2316 0.03897 0.11299 0.0
C843 C 0.24104 0.56636 0.09015 0.0
C844 C 0.24652 0.67024 0.084 0.0
C845 C 0.23971 0.612 0.10011 0.0
C846 C 0.23628 0.96188 0.11798 0.0
H847 H 0.21874 0.12783 0.16417 0.0
H848 H 0.21722 0.07441 0.14645 0.0
H849 H 0.23181 0.13018 0.13028 0.0
H850 H 0.25566 0.9002 0.08339 0.0
H851 H 0.25393 0.97768 0.10066 0.0
H852 H 0.25302 0.60063 0.11896 0.0
C853 C 0.22955 0.04919 0.15013 0.0
C854 C 0.23623 0.01393 0.12787 0.0
C855 C 0.23045 0.08075 0.16023 0.0
C856 C 0.25119 0.81819 0.08796 0.0
C857 C 0.25003 0.86316 0.09786 0.0
C858 C 0.24809 0.71559 0.12131 0.0
C859 C 0.24403 0.97475 0.14495 0.0
C860 C 0.24252 0.91828 0.13453 0.0
C861 C 0.24398 0.7618 0.10405 0.0
C862 C 0.24251 0.81288 0.11458 0.0
H863 H 0.27284 0.94308 0.16357 0.0
H864 H 0.27136 0.89072 0.14607 0.0
H865 H 0.25275 0.69072 0.13617 0.0
H866 H 0.23722 0.45208 0.08725 0.0
H867 H 0.23494 0.53122 0.10468 0.0
C868 C 0.9893 0.27839 0.84019 0.0
C869 C 0.99006 0.12722 0.83568 0.0
C870 C 0.98575 0.30869 0.85007 0.0
C871 C 0.99128 0.12367 0.87199 0.0
H872 H 0.96612 0.48674 0.88397 0.0
C873 C -0.00525 0.31145 0.91316 0.0
C874 C -0.00049 0.46484 0.91534 0.0
C875 C 0.98908 0.25596 0.9038 0.0
C876 C 0.97311 0.38434 0.88073 0.0
H877 H 0.98642 0.89014 0.83775 0.0
H878 H 0.98006 0.9432 0.8549 0.0
H879 H 0.96431 0.4188 0.86651 0.0
H880 H 0.0014 0.68171 0.9096 0.0
H881 H 0.99179 0.58564 0.89348 0.0
H882 H 0.00075 0.09287 0.88614 0.0
C883 C 0.98259 0.03802 0.8509 0.0
C884 C 0.97212 0.34588 0.87074 0.0
C885 C 0.98621 0.00785 0.84107 0.0
C886 C -0.00203 0.56244 0.90815 0.0
C887 C 0.99222 0.50784 0.89891 0.0
C888 C 0.99231 0.16232 0.88198 0.0
C889 C 0.98281 0.18823 0.85557 0.0
C890 C 0.98164 0.2177 0.86624 0.0
C891 C 0.98789 0.35387 0.89658 0.0
C892 C 0.98374 0.29592 0.8864 0.0
H893 H 0.99216 0.37245 0.83619 0.0
H894 H 0.98614 0.42572 0.85349 0.0
H895 H -0.00108 0.02484 0.86874 0.0
H896 H -0.00431 0.23425 0.91861 0.0
H897 H 0.98578 0.13662 0.9022 0.0
C898 C 0.7531 0.51353 0.89881 0.0
C899 C 0.74063 0.45477 0.90473 0.0
C900 C 0.7545 0.45386 0.88904 0.0
C901 C 0.74216 0.10352 0.87255 0.0
H902 H 0.7569 0.33781 0.8524 0.0
C903 C 0.73002 0.94952 0.8316 0.0
C904 C 0.74469 0.95657 0.82547 0.0
C905 C 0.73175 0.9921 0.84152 0.0
C906 C 0.75302 0.27078 0.858 0.0
H907 H 0.71911 0.2963 0.90513 0.0
H908 H 0.72054 0.20038 0.88806 0.0
H909 H 0.75408 0.46296 0.86896 0.0
H910 H 0.77276 0.00879 0.82485 0.0
H911 H 0.77568 0.08901 0.84231 0.0
H912 H 0.74011 0.91391 0.86141 0.0
C913 C 0.72992 0.28641 0.89091 0.0
C914 C 0.75139 0.34229 0.8675 0.0
C915 C 0.72885 0.34321 0.90067 0.0
C916 C 0.76137 4e-05 0.82948 0.0
C917 C 0.76298 0.04725 0.83941 0.0
C918 C 0.74343 0.03324 0.86303 0.0
C919 C 0.74324 0.33605 0.88502 0.0
C920 C 0.74569 0.26016 0.8749 0.0
C921 C 0.74804 0.04704 0.84546 0.0
C922 C 0.74873 0.11642 0.85567 0.0
H923 H 0.76254 0.59778 0.90186 0.0
H924 H 0.76498 0.49494 0.8848 0.0
H925 H 0.73832 0.03444 0.87804 0.0
H926 H 0.71696 0.91895 0.82863 0.0
H927 H 0.72003 0.99173 0.84604 0.0
C928 C 0.30737 0.66798 0.05641 0.0
C929 C 0.29248 0.76441 0.05904 0.0
C930 C 0.32477 0.72161 0.05763 0.0
C931 C 0.3514 0.03309 0.07069 0.0
H932 H 0.38691 0.89691 0.05118 0.0
C933 C 0.41838 0.33329 0.06811 0.0
C934 C 0.43403 0.2449 0.06577 0.0
C935 C 0.40168 0.26575 0.06795 0.0
C936 C 0.37724 0.93421 0.05677 0.0
H937 H 0.28419 0.99322 0.06502 0.0
H938 H 0.31471 0.08909 0.06696 0.0
H939 H 0.35651 0.80301 0.04935 0.0
H940 H 0.4444 0.01497 0.06158 0.0
H941 H 0.41495 0.8958 0.06122 0.0
H942 H 0.37211 0.16688 0.07799 0.0
C943 C 0.3129 0.97068 0.06409 0.0
C944 C 0.35975 0.8806 0.05572 0.0
C945 C 0.2954 0.91641 0.06291 0.0
C946 C 0.43259 0.08608 0.06341 0.0
C947 C 0.41573 0.01818 0.06316 0.0
C948 C 0.36886 0.08726 0.07171 0.0
C949 C 0.32784 0.87377 0.06145 0.0
C950 C 0.34654 0.93011 0.06264 0.0
C951 C 0.40007 0.1077 0.06539 0.0
C952 C 0.38196 0.03965 0.06472 0.0
H953 H 0.30561 0.54974 0.05347 0.0
H954 H 0.33585 0.64261 0.05568 0.0
H955 H 0.34174 0.07133 0.07627 0.0
H956 H 0.41896 0.45596 0.06999 0.0
H957 H 0.38992 0.33848 0.06958 0.0
C958 C 0.79331 0.23907 0.05602 0.0
C959 C 0.78718 0.09041 0.05624 0.0
C960 C 0.81159 0.26391 0.05481 0.0
C961 C 0.85539 0.0668 0.04781 0.0
H962 H 0.87481 0.39729 0.06538 0.0
C963 C 0.93143 0.12601 0.05773 0.0
C964 C 0.93765 0.27538 0.05978 0.0
C965 C 0.9132 0.10179 0.05558 0.0
C966 C 0.86965 0.30585 0.06029 0.0
H967 H 0.7953 0.85072 0.05487 0.0
H968 H 0.82693 0.89402 0.05289 0.0
H969 H 0.8427 0.36375 0.06457 0.0
H970 H 0.93037 0.5154 0.06034 0.0
H971 H 0.89907 0.47381 0.05625 0.0
H972 H 0.88256 0.00753 0.04371 0.0
C973 C 0.81775 0.99166 0.05357 0.0
C974 C 0.85115 0.28686 0.05982 0.0
C975 C 0.79956 0.967 0.05478 0.0
C976 C 0.92581 0.39901 0.05893 0.0
C977 C 0.90783 0.37513 0.05666 0.0
C978 C 0.87398 0.08591 0.04829 0.0
C979 C 0.82409 0.14055 0.05377 0.0
C980 C 0.84374 0.16669 0.05362 0.0
C981 C 0.90109 0.22677 0.05536 0.0
C982 C 0.88134 0.20568 0.05455 0.0
H983 H 0.7841 0.33637 0.05708 0.0
H984 H 0.81597 0.38006 0.05485 0.0
H985 H 0.85014 0.97362 0.04289 0.0
H986 H 0.94033 0.02898 0.05838 0.0
H987 H 0.90846 0.98589 0.0546 0.0
C988 C 0.42489 0.89713 0.19064 0.0
C989 C 0.43754 0.82775 0.19629 0.0
C990 C 0.40724 0.92152 0.19373 0.0
C991 C 0.37176 0.00969 0.20348 0.0
H992 H 0.34897 0.64585 0.20998 0.0
C993 C 0.29596 0.01017 0.20775 0.0
C994 C 0.28731 0.88606 0.20256 0.0
C995 C 0.31431 0.00265 0.20963 0.0
C996 C 0.35514 0.74852 0.20821 0.0
H997 H 0.44196 0.73552 0.20979 0.0
H998 H 0.41073 0.77579 0.21517 0.0
H999 H 0.38163 0.64866 0.20848 0.0
H1000 H 0.29076 0.65285 0.19584 0.0
H1001 H 0.32309 0.63975 0.19898 0.0
H1002 H 0.34546 0.1078 0.20274 0.0
C1003 C 0.41459 0.81196 0.20837 0.0
C1004 C 0.37385 0.75077 0.20746 0.0
C1005 C 0.43245 0.79037 0.20535 0.0
C1006 C 0.2971 0.74966 0.19992 0.0
C1007 C 0.31562 0.74257 0.20172 0.0
C1008 C 0.35314 0.00783 0.20427 0.0
C1009 C 0.40171 0.87449 0.20246 0.0
C1010 C 0.38231 0.88025 0.20486 0.0
C1011 C 0.32456 0.87147 0.20624 0.0
C1012 C 0.34453 0.87631 0.20646 0.0
H1013 H 0.42851 0.92698 0.18363 0.0
H1014 H 0.39766 0.96917 0.18898 0.0
H1015 H 0.37788 0.11127 0.20149 0.0
H1016 H 0.28866 0.11633 0.20995 0.0
H1017 H 0.32062 0.10255 0.21337 0.0
C1018 C 0.80211 0.35169 0.20382 0.0
C1019 C 0.78796 0.25777 0.20573 0.0
C1020 C 0.81964 0.31759 0.20644 0.0
C1021 C 0.84894 0.99403 0.20976 0.0
H1022 H 0.88269 0.30735 0.21899 0.0
C1023 C 0.92363 0.84104 0.21262 0.0
C1024 C 0.93584 0.94232 0.20944 0.0
C1025 C 0.90577 0.88532 0.2143 0.0
C1026 C 0.87349 0.21856 0.21634 0.0
H1027 H 0.78106 0.05679 0.21223 0.0
H1028 H 0.81211 0.99414 0.21667 0.0
H1029 H 0.85074 0.37186 0.21839 0.0
H1030 H 0.93916 0.17188 0.20594 0.0
H1031 H 0.90764 0.24912 0.20857 0.0
H1032 H 0.87155 0.84216 0.20726 0.0
C1033 C 0.80944 0.09493 0.21313 0.0
C1034 C 0.85516 0.25534 0.21606 0.0
C1035 C 0.7917 0.1307 0.21062 0.0
C1036 C 0.93002 0.09192 0.20843 0.0
C1037 C 0.91195 0.13584 0.20996 0.0
C1038 C 0.86726 0.95749 0.20997 0.0
C1039 C 0.82363 0.18742 0.21096 0.0
C1040 C 0.8427 0.14404 0.21261 0.0
C1041 C 0.89948 0.0314 0.21266 0.0
C1042 C 0.87985 0.06962 0.21313 0.0
H1043 H 0.79969 0.45157 0.20015 0.0
H1044 H 0.8302 0.39028 0.20455 0.0
H1045 H 0.83976 0.90628 0.20691 0.0
H1046 H 0.92782 0.72545 0.21359 0.0
H1047 H 0.89679 0.80317 0.21667 0.0
C1048 C 0.69077 0.22736 0.92537 0.0
C1049 C 0.69574 0.36219 0.9311 0.0
C1050 C 0.67291 0.18019 0.92521 0.0
C1051 C 0.63224 0.21514 0.94002 0.0
H1052 H 0.60669 0.08691 0.91621 0.0
C1053 C 0.56731 0.87496 0.93827 0.0
C1054 C 0.55312 0.91902 0.93247 0.0
C1055 C 0.58388 0.94441 0.93824 0.0
C1056 C 0.61362 0.1239 0.9229 0.0
H1057 H 0.68597 0.55262 0.94118 0.0
H1058 H 0.65516 0.4693 0.94104 0.0
H1059 H 0.63779 0.16944 0.91563 0.0
H1060 H 0.54503 0.07189 0.9222 0.0
H1061 H 0.57441 0.19308 0.92197 0.0
H1062 H 0.60831 0.16678 0.94732 0.0
C1063 C 0.66492 0.40012 0.93664 0.0
C1064 C 0.63146 0.16926 0.92257 0.0
C1065 C 0.68259 0.44802 0.93669 0.0
C1066 C 0.55571 0.03728 0.9268 0.0
C1067 C 0.57253 0.10512 0.92661 0.0
C1068 C 0.61456 0.16778 0.94035 0.0
C1069 C 0.65983 0.26581 0.93092 0.0
C1070 C 0.64097 0.21515 0.93114 0.0
C1071 C 0.58683 0.05798 0.93227 0.0
C1072 C 0.60506 0.12104 0.93181 0.0
H1073 H 0.70062 0.15943 0.92095 0.0
H1074 H 0.66939 0.07558 0.92077 0.0
H1075 H 0.63922 0.24922 0.94675 0.0
H1076 H 0.56571 0.78383 0.9427 0.0
H1077 H 0.59463 0.90491 0.94264 0.0
C1078 C 0.19578 0.96413 0.94132 0.0
C1079 C 0.20382 0.83209 0.93636 0.0
C1080 C 0.178 0.96443 0.94433 0.0
C1081 C 0.13892 0.71393 0.94674 0.0
H1082 H 0.11197 0.08757 0.94396 0.0
C1083 C 0.0606 0.91693 0.94148 0.0
C1084 C 0.05263 0.81817 0.94722 0.0
C1085 C 0.07922 0.93488 0.94175 0.0
C1086 C 0.11921 0.98191 0.94473 0.0
H1087 H 0.19991 0.59491 0.93094 0.0
H1088 H 0.16853 0.59544 0.93589 0.0
H1089 H 0.14401 0.07574 0.94119 0.0
H1090 H 0.05744 0.66898 0.95818 0.0
H1091 H 0.08963 0.70761 0.95916 0.0
H1092 H 0.11394 0.61693 0.94965 0.0
C1093 C 0.17604 0.6985 0.9377 0.0
C1094 C 0.13775 0.97565 0.94328 0.0
C1095 C 0.19404 0.69759 0.93486 0.0
C1096 C 0.06331 0.74706 0.95375 0.0
C1097 C 0.08181 0.76706 0.95417 0.0
C1098 C 0.12034 0.7196 0.94806 0.0
C1099 C 0.16761 0.83351 0.94223 0.0
C1100 C 0.1479 0.84131 0.94422 0.0
C1101 C 0.09017 0.85531 0.94784 0.0
C1102 C 0.11016 0.85347 0.94703 0.0
H1103 H 0.20313 0.06918 0.94262 0.0
H1104 H 0.17229 0.06909 0.94807 0.0
H1105 H 0.14619 0.60897 0.94764 0.0
H1106 H 0.05267 0.96986 0.93621 0.0
H1107 H 0.08506 0.00295 0.9367 0.0
C1108 C 0.5479 0.00438 0.78067 0.0
C1109 C 0.5431 0.92412 0.78829 0.0
C1110 C 0.56553 0.99551 0.77727 0.0
C1111 C 0.60963 0.79895 0.77792 0.0
H1112 H 0.62838 0.20373 0.7851 0.0
C1113 C 0.68151 0.87781 0.79124 0.0
C1114 C 0.69101 0.00952 0.79003 0.0
C1115 C 0.66371 0.86317 0.78831 0.0
C1116 C 0.62348 0.09046 0.7828 0.0
H1117 H 0.55212 0.75895 0.79758 0.0
H1118 H 0.58259 0.73548 0.79124 0.0
H1119 H 0.59615 0.1704 0.7837 0.0
H1120 H 0.6893 0.22857 0.78458 0.0
H1121 H 0.65801 0.20204 0.7792 0.0
H1122 H 0.63683 0.71797 0.77707 0.0
C1123 C 0.57292 0.80747 0.788 0.0
C1124 C 0.60495 0.07139 0.78201 0.0
C1125 C 0.55544 0.81957 0.79156 0.0
C1126 C 0.68229 0.12614 0.78565 0.0
C1127 C 0.66435 0.11075 0.7826 0.0
C1128 C 0.62816 0.81824 0.77852 0.0
C1129 C 0.57842 0.90283 0.78128 0.0
C1130 C 0.59784 0.9248 0.77992 0.0
C1131 C 0.65479 0.97886 0.78393 0.0
C1132 C 0.63535 0.96336 0.7814 0.0
H1133 H 0.53866 0.08742 0.77814 0.0
H1134 H 0.56941 0.06953 0.77205 0.0
H1135 H 0.6045 0.6849 0.77623 0.0
H1136 H 0.68771 0.78588 0.79465 0.0
H1137 H 0.65683 0.76202 0.78977 0.0
C1138 C 0.05133 0.75786 0.79524 0.0
C1139 C 0.04589 0.83151 0.80427 0.0
C1140 C 0.06946 0.71557 0.79365 0.0
C1141 C 0.11307 0.66759 0.80652 0.0
H1142 H 0.13411 0.79204 0.78355 0.0
C1143 C 0.18938 0.74819 0.80322 0.0
C1144 C 0.19721 0.68591 0.79446 0.0
C1145 C 0.17067 0.75746 0.80413 0.0
C1146 C 0.12843 0.75541 0.78997 0.0
H1147 H 0.05468 0.90981 0.81883 0.0
H1148 H 0.08582 0.83626 0.81613 0.0
H1149 H 0.10161 0.80297 0.78542 0.0
H1150 H 0.19169 0.58884 0.77973 0.0
H1151 H 0.15925 0.60638 0.78129 0.0
H1152 H 0.1399 0.62354 0.81117 0.0
C1153 C 0.07641 0.8102 0.81025 0.0
C1154 C 0.10978 0.76057 0.791 0.0
C1155 C 0.05852 0.85333 0.81179 0.0
C1156 C 0.18604 0.63765 0.78657 0.0
C1157 C 0.16742 0.64814 0.78745 0.0
C1158 C 0.1317 0.66327 0.80551 0.0
C1159 C 0.08228 0.74451 0.80111 0.0
C1160 C 0.10186 0.71904 0.79937 0.0
C1161 C 0.15948 0.70604 0.79627 0.0
C1162 C 0.13963 0.70903 0.79728 0.0
H1163 H 0.04186 0.74092 0.78931 0.0
H1164 H 0.07353 0.66385 0.78654 0.0
H1165 H 0.10744 0.63237 0.81299 0.0
H1166 H 0.19767 0.78538 0.80943 0.0
H1167 H 0.16495 0.8043 0.811 0.0
C1168 C 0.42131 0.48345 0.55205 0.0
C1169 C 0.43457 0.36752 0.55209 0.0
C1170 C 0.40331 0.44814 0.55077 0.0
C1171 C 0.37151 0.14522 0.55357 0.0
H1172 H 0.33924 0.40141 0.54027 0.0
C1173 C 0.29641 0.02415 0.54988 0.0
C1174 C 0.28447 0.14914 0.55213 0.0
C1175 C 0.3146 0.04638 0.5486 0.0
C1176 C 0.34806 0.32953 0.54406 0.0
H1177 H 0.43931 0.1226 0.55055 0.0
H1178 H 0.40759 0.05975 0.5482 0.0
H1179 H 0.37145 0.44029 0.53996 0.0
H1180 H 0.28218 0.39614 0.55437 0.0
H1181 H 0.31422 0.43569 0.55212 0.0
H1182 H 0.3481 0.0351 0.55771 0.0
C1183 C 0.41124 0.17869 0.54928 0.0
C1184 C 0.36654 0.35152 0.54388 0.0
C1185 C 0.42941 0.21438 0.55057 0.0
C1186 C 0.29104 0.2977 0.55263 0.0
C1187 C 0.30937 0.32011 0.55133 0.0
C1188 C 0.35304 0.12269 0.5537 0.0
C1189 C 0.39795 0.29558 0.54945 0.0
C1190 C 0.37849 0.26123 0.54877 0.0
C1191 C 0.32141 0.1943 0.54953 0.0
C1192 C 0.34108 0.21567 0.54904 0.0
H1193 H 0.42475 0.60291 0.55319 0.0
H1194 H 0.39353 0.54136 0.55113 0.0
H1195 H 0.38023 0.0752 0.55755 0.0
H1196 H 0.29178 0.90798 0.54933 0.0
H1197 H 0.32341 0.94718 0.54701 0.0
C1198 C 0.79532 0.7777 0.56822 0.0
C1199 C 0.79236 0.62412 0.56476 0.0
C1200 C 0.81279 0.83206 0.56918 0.0
C1201 C 0.85939 0.74198 0.56078 0.0
H1202 H 0.87145 0.03784 0.58262 0.0
C1203 C 0.93137 0.97661 0.56785 0.0
C1204 C 0.93187 0.13631 0.57006 0.0
C1205 C 0.91495 0.90173 0.56762 0.0
C1206 C 0.86828 0.95548 0.57646 0.0
H1207 H 0.80534 0.40679 0.55964 0.0
H1208 H 0.83569 0.50062 0.56145 0.0
H1209 H 0.84147 0.93455 0.5813 0.0
H1210 H 0.91556 0.34205 0.57384 0.0
H1211 H 0.88733 0.2127 0.57345 0.0
H1212 H 0.88627 0.76424 0.55594 0.0
C1213 C 0.8246 0.58009 0.56328 0.0
C1214 C 0.85105 0.89685 0.57568 0.0
C1215 C 0.80718 0.52609 0.56229 0.0
C1216 C 0.91573 0.21888 0.57212 0.0
C1217 C 0.89948 0.14456 0.57197 0.0
C1218 C 0.87668 0.80042 0.56159 0.0
C1219 C 0.82767 0.73377 0.56673 0.0
C1220 C 0.84628 0.79115 0.56776 0.0
C1221 C 0.89884 0.98533 0.56971 0.0
C1222 C 0.88121 0.90991 0.56935 0.0
H1223 H 0.78415 0.85582 0.57016 0.0
H1224 H 0.81463 0.95167 0.57174 0.0
H1225 H 0.85616 0.66171 0.55454 0.0
H1226 H 0.94358 0.90997 0.56622 0.0
H1227 H 0.91487 0.77865 0.56588 0.0
C1228 C 0.42585 0.9763 0.69947 0.0
C1229 C 0.44008 0.07784 0.69967 0.0
C1230 C 0.40886 0.02735 0.70263 0.0
C1231 C 0.38031 0.36694 0.70378 0.0
H1232 H 0.34726 0.12173 0.7162 0.0
C1233 C 0.30589 0.53134 0.70507 0.0
C1234 C 0.29389 0.41215 0.70279 0.0
C1235 C 0.32363 0.50069 0.70752 0.0
C1236 C 0.35627 0.19131 0.71268 0.0
H1237 H 0.44796 0.31143 0.70379 0.0
H1238 H 0.41786 0.40289 0.70921 0.0
H1239 H 0.37915 0.05274 0.71566 0.0
H1240 H 0.29068 0.16779 0.70177 0.0
H1241 H 0.32202 0.11216 0.70566 0.0
H1242 H 0.35756 0.50061 0.70031 0.0
C1243 C 0.41999 0.28303 0.70661 0.0
C1244 C 0.37457 0.1523 0.71243 0.0
C1245 C 0.4372 0.23092 0.70356 0.0
C1246 C 0.29967 0.26168 0.70355 0.0
C1247 C 0.31765 0.23031 0.7058 0.0
C1248 C 0.36204 0.40524 0.70397 0.0
C1249 C 0.40555 0.182 0.70599 0.0
C1250 C 0.38675 0.23776 0.70778 0.0
C1251 C 0.33002 0.34938 0.70748 0.0
C1252 C 0.34968 0.31636 0.70826 0.0
H1253 H 0.42771 0.8572 0.69658 0.0
H1254 H 0.39807 0.94675 0.70194 0.0
H1255 H 0.38925 0.43364 0.7 0.0
H1256 H 0.3017 0.64876 0.70463 0.0
H1257 H 0.33251 0.59586 0.70908 0.0
C1258 C 0.80277 0.71746 0.709 0.0
C1259 C 0.79502 0.84308 0.70509 0.0
C1260 C 0.82095 0.71827 0.71178 0.0
C1261 C 0.85928 0.98581 0.7167 0.0
H1262 H 0.88908 0.62547 0.70928 0.0
C1263 C 0.93267 0.98749 0.70464 0.0
C1264 C 0.94467 0.87712 0.70754 0.0
C1265 C 0.91479 0.99234 0.70759 0.0
C1266 C 0.88089 0.72635 0.71157 0.0
H1267 H 0.80033 0.06754 0.70104 0.0
H1268 H 0.83146 0.06707 0.70555 0.0
H1269 H 0.85652 0.60815 0.70806 0.0
H1270 H 0.94782 0.68951 0.71606 0.0
H1271 H 0.91636 0.69531 0.72105 0.0
H1272 H 0.88375 0.10599 0.71954 0.0
C1273 C 0.82369 0.96939 0.70678 0.0
C1274 C 0.86221 0.71639 0.71089 0.0
C1275 C 0.80574 0.96876 0.70407 0.0
C1276 C 0.93885 0.7778 0.71392 0.0
C1277 C 0.92084 0.7799 0.71667 0.0
C1278 C 0.87792 0.99616 0.71723 0.0
C1279 C 0.83163 0.84487 0.71071 0.0
C1280 C 0.85117 0.84735 0.71311 0.0
C1281 C 0.90851 0.88376 0.71325 0.0
C1282 C 0.88892 0.86756 0.71442 0.0
H1283 H 0.79484 0.61924 0.70992 0.0
H1284 H 0.8266 0.62033 0.7148 0.0
H1285 H 0.85123 0.08826 0.71876 0.0
H1286 H 0.93681 0.06272 0.69954 0.0
H1287 H 0.90557 0.07289 0.70478 0.0
C1288 C 0.56862 0.56862 0.43414 0.0
C1289 C 0.55595 0.68959 0.43484 0.0
C1290 C 0.58686 0.59693 0.43473 0.0
C1291 C 0.62134 0.88194 0.44148 0.0
H1292 H 0.64777 0.63969 0.42093 0.0
C1293 C 0.69523 0.99628 0.43325 0.0
C1294 C 0.70674 0.86989 0.43055 0.0
C1295 C 0.67684 0.97762 0.43414 0.0
C1296 C 0.64071 0.70677 0.4268 0.0
H1297 H 0.55228 0.93536 0.43734 0.0
H1298 H 0.5846 0.98618 0.43835 0.0
H1299 H 0.61579 0.60574 0.42241 0.0
H1300 H 0.70802 0.6246 0.4267 0.0
H1301 H 0.67583 0.59075 0.42841 0.0
H1302 H 0.64638 0.98225 0.4459 0.0
C1303 C 0.58027 0.869 0.43736 0.0
C1304 C 0.62232 0.68767 0.42764 0.0
C1305 C 0.56182 0.84024 0.43682 0.0
C1306 C 0.69945 0.72407 0.42873 0.0
C1307 C 0.681 0.70511 0.42968 0.0
C1308 C 0.63983 0.90063 0.44067 0.0
C1309 C 0.59296 0.74724 0.43595 0.0
C1310 C 0.61243 0.77389 0.43503 0.0
C1311 C 0.66945 0.83181 0.43241 0.0
C1312 C 0.64977 0.8126 0.43334 0.0
H1313 H 0.56443 0.45115 0.43274 0.0
H1314 H 0.59624 0.50062 0.4339 0.0
H1315 H 0.6141 0.94943 0.44727 0.0
H1316 H 0.70044 0.11042 0.43467 0.0
H1317 H 0.66839 0.07808 0.43607 0.0
C1318 C 0.06825 0.91025 0.44152 0.0
C1319 C 0.06531 0.75558 0.44228 0.0
C1320 C 0.08568 0.96659 0.44212 0.0
C1321 C 0.13291 0.83568 0.43874 0.0
H1322 H 0.14344 0.23608 0.45198 0.0
C1323 C 0.20479 0.07309 0.43981 0.0
C1324 C 0.20565 0.22453 0.43776 0.0
C1325 C 0.18823 0.01194 0.44182 0.0
C1326 C 0.14073 0.12413 0.44821 0.0
H1327 H 0.07831 0.54 0.44456 0.0
H1328 H 0.10844 0.6381 0.44568 0.0
H1329 H 0.11312 0.14069 0.45236 0.0
H1330 H 0.19002 0.43273 0.4367 0.0
H1331 H 0.16155 0.32707 0.44006 0.0
H1332 H 0.16038 0.82044 0.43438 0.0
C1333 C 0.09741 0.71562 0.44446 0.0
C1334 C 0.12332 0.06974 0.44841 0.0
C1335 C 0.08008 0.65965 0.44387 0.0
C1336 C 0.18985 0.31508 0.43817 0.0
C1337 C 0.17346 0.25478 0.4402 0.0
C1338 C 0.15031 0.8903 0.4385 0.0
C1339 C 0.10049 0.8692 0.44347 0.0
C1340 C 0.11914 0.92555 0.44358 0.0
C1341 C 0.17232 0.10182 0.4419 0.0
C1342 C 0.15439 0.03622 0.44311 0.0
H1343 H 0.05715 0.98691 0.44027 0.0
H1344 H 0.0876 0.08539 0.44126 0.0
H1345 H 0.13013 0.72472 0.43484 0.0
H1346 H 0.21676 0.0008 0.43956 0.0
H1347 H 0.18785 0.89395 0.4432 0.0
C1348 C 0.68512 0.6398 0.2904 0.0
C1349 C 0.69784 0.75412 0.29262 0.0
C1350 C 0.66707 0.67759 0.28918 0.0
C1351 C 0.63555 0.98718 0.28422 0.0
H1352 H 0.60142 0.75973 0.29719 0.0
C1353 C 0.56234 0.19294 0.29043 0.0
C1354 C 0.54872 0.08631 0.29071 0.0
C1355 C 0.58025 0.14555 0.28937 0.0
C1356 C 0.61067 0.82255 0.29336 0.0
H1357 H 0.70157 0.99859 0.29498 0.0
H1358 H 0.6698 0.06543 0.2928 0.0
H1359 H 0.63323 0.69559 0.29799 0.0
H1360 H 0.54322 0.84502 0.28965 0.0
H1361 H 0.57467 0.76088 0.28759 0.0
H1362 H 0.61301 0.11408 0.27956 0.0
C1363 C 0.67393 0.94604 0.292 0.0
C1364 C 0.62898 0.78624 0.29386 0.0
C1365 C 0.69211 0.90796 0.29328 0.0
C1366 C 0.5534 0.92994 0.28947 0.0
C1367 C 0.57144 0.88209 0.28838 0.0
C1368 C 0.61722 0.02282 0.28365 0.0
C1369 C 0.66116 0.83092 0.2901 0.0
C1370 C 0.64167 0.86892 0.28937 0.0
C1371 C 0.58514 0.98971 0.2885 0.0
C1372 C 0.60452 0.94227 0.28831 0.0
H1373 H 0.68904 0.51994 0.28975 0.0
H1374 H 0.65769 0.58616 0.28754 0.0
H1375 H 0.64493 0.05147 0.28055 0.0
H1376 H 0.55927 0.3145 0.29135 0.0
H1377 H 0.59031 0.23227 0.28965 0.0
C1378 C 0.18457 0.04373 0.28571 0.0
C1379 C 0.19349 0.15838 0.29165 0.0
C1380 C 0.16596 0.04879 0.28476 0.0
C1381 C 0.1244 0.28574 0.29043 0.0
H1382 H 0.1043 0.89255 0.29326 0.0
C1383 C 0.05755 0.05781 0.3073 0.0
C1384 C 0.04424 0.14697 0.30338 0.0
C1385 C 0.07479 0.04557 0.30345 0.0
C1386 C 0.10965 0.00299 0.2924 0.0
H1387 H 0.19009 0.37369 0.30078 0.0
H1388 H 0.15732 0.38195 0.29929 0.0
H1389 H 0.13639 0.91198 0.29121 0.0
H1390 H 0.03814 0.28778 0.2921 0.0
H1391 H 0.06848 0.26713 0.28532 0.0
H1392 H 0.09756 0.37723 0.29209 0.0
C1393 C 0.16476 0.28869 0.29525 0.0
C1394 C 0.12809 0.01422 0.29113 0.0
C1395 C 0.18354 0.28438 0.2961 0.0
C1396 C 0.04812 0.21595 0.29513 0.0
C1397 C 0.06553 0.20606 0.29136 0.0
C1398 C 0.10587 0.27429 0.29166 0.0
C1399 C 0.15571 0.16759 0.28986 0.0
C1400 C 0.1358 0.15609 0.2903 0.0
C1401 C 0.07921 0.12475 0.29569 0.0
C1402 C 0.09834 0.1332 0.29287 0.0
H1403 H 0.19195 0.94604 0.28209 0.0
H1404 H 0.15954 0.9559 0.28032 0.0
H1405 H 0.12983 0.39648 0.28973 0.0
H1406 H 0.05491 0.0051 0.31374 0.0
H1407 H 0.08496 0.98283 0.30701 0.0
C1408 C 0.48705 0.49598 0.02626 0.0
C1409 C 0.47849 0.43627 0.03385 0.0
C1410 C 0.48787 0.41262 0.01707 0.0
C1411 C 0.48715 0.0138 0.00574 0.0
H1412 H 0.48513 0.19486 0.98185 0.0
C1413 C 0.49145 0.65632 0.96802 0.0
C1414 C 0.50115 0.71831 0.96091 0.0
C1415 C 0.48822 0.74197 0.97699 0.0
C1416 C 0.48592 0.14283 0.98847 0.0
H1417 H 0.46282 0.2475 0.0375 0.0
H1418 H 0.46409 0.10397 0.02148 0.0
H1419 H 0.47892 0.35372 0.99708 0.0
H1420 H 0.51585 0.91618 0.95786 0.0
H1421 H 0.51046 0.0634 0.97349 0.0
H1422 H 0.49434 0.80333 0.99716 0.0
C1423 C 0.47056 0.21325 0.02269 0.0
C1424 C 0.48231 0.23386 0.99719 0.0
C1425 C 0.46974 0.2963 0.03186 0.0
C1426 C 0.50816 0.86514 0.96312 0.0
C1427 C 0.50495 0.95034 0.97206 0.0
C1428 C 0.49078 0.92281 0.99702 0.0
C1429 C 0.48012 0.2681 0.01527 0.0
C1430 C 0.48299 0.17058 0.00593 0.0
C1431 C 0.49464 0.89117 0.97903 0.0
C1432 C 0.49035 0.98652 0.98829 0.0
H1433 H 0.49393 0.60335 0.02751 0.0
H1434 H 0.49538 0.45798 0.01151 0.0
H1435 H 0.4881 0.96198 0.01237 0.0
H1436 H 0.48582 0.5438 0.96656 0.0
H1437 H 0.48018 0.69321 0.9822 0.0
C1438 C 0.73091 0.09539 0.03112 0.0
C1439 C 0.73824 0.95134 0.03252 0.0
C1440 C 0.73182 0.1487 0.02217 0.0
C1441 C 0.73737 0.03236 0.99627 0.0
H1442 H 0.75122 0.45335 0.99619 0.0
C1443 C 0.74995 0.28438 0.96091 0.0
C1444 C 0.74415 0.4356 0.96026 0.0
C1445 C 0.74959 0.22461 0.96968 0.0
C1446 C 0.7471 0.33633 0.99608 0.0
H1447 H 0.75187 0.74826 0.0255 0.0
H1448 H 0.75333 0.84178 0.00967 0.0
H1449 H 0.75003 0.34533 0.01139 0.0
H1450 H 0.73353 0.64338 0.96834 0.0
H1451 H 0.73257 0.53802 0.98373 0.0
H1452 H 0.73415 0.02378 0.98098 0.0
C1453 C 0.7469 0.91305 0.0156 0.0
C1454 C 0.7465 0.27415 0.00479 0.0
C1455 C 0.74608 0.85956 0.02464 0.0
C1456 C 0.73811 0.52657 0.96862 0.0
C1457 C 0.73765 0.46622 0.97744 0.0
C1458 C 0.73787 0.09484 0.98755 0.0
C1459 C 0.74004 0.05949 0.01434 0.0
C1460 C 0.74152 0.12183 0.00499 0.0
C1461 C 0.74331 0.31402 0.97806 0.0
C1462 C 0.7427 0.24783 0.98735 0.0
H1463 H 0.72468 0.16908 0.03701 0.0
H1464 H 0.72608 0.26053 0.0214 0.0
H1465 H 0.7333 0.91528 0.99621 0.0
H1466 H 0.75482 0.21146 0.9546 0.0
H1467 H 0.75442 0.10831 0.9699 0.0
C1468 C 0.4494 0.24819 0.19653 0.0
C1469 C 0.46621 0.21561 0.19225 0.0
C1470 C 0.44624 0.21272 0.20582 0.0
C1471 C 0.46697 0.05472 0.22697 0.0
H1472 H 0.45533 0.4601 0.23985 0.0
C1473 C 0.49235 0.2607 0.26527 0.0
C1474 C 0.48122 0.35766 0.27152 0.0
C1475 C 0.48751 0.22154 0.25561 0.0
C1476 C 0.45825 0.34512 0.23646 0.0
H1477 H 0.49196 0.10258 0.19363 0.0
H1478 H 0.48662 0.04251 0.20988 0.0
H1479 H 0.44986 0.40222 0.2227 0.0
H1480 H 0.45631 0.49044 0.27249 0.0
H1481 H 0.44778 0.42086 0.2557 0.0
H1482 H 0.47587 -0.00037 0.24077 0.0
C1483 C 0.47577 0.09384 0.20611 0.0
C1484 C 0.45502 0.31146 0.22659 0.0
C1485 C 0.47882 0.12722 0.19675 0.0
C1486 C 0.46532 0.41718 0.26784 0.0
C1487 C 0.4604 0.37676 0.25821 0.0
C1488 C 0.47008 0.08812 0.2369 0.0
C1489 C 0.45998 0.14681 0.21098 0.0
C1490 C 0.4598 0.16737 0.22168 0.0
C1491 C 0.47134 0.27721 0.25199 0.0
C1492 C 0.46624 0.23529 0.2417 0.0
H1493 H 0.43951 0.31687 0.19318 0.0
H1494 H 0.43378 0.25169 0.20933 0.0
H1495 H 0.47071 0.94261 0.22338 0.0
H1496 H 0.50471 0.21309 0.26786 0.0
H1497 H 0.4965 0.14787 0.25099 0.0
C1498 C 0.77335 0.54853 0.22434 0.0
C1499 C 0.75651 0.61146 0.22232 0.0
C1500 C 0.77521 0.45689 0.23181 0.0
C1501 C 0.74929 0.29701 0.25117 0.0
H1502 H 0.77244 0.91663 0.24026 0.0
C1503 C 0.73265 0.73278 0.26488 0.0
C1504 C 0.74765 0.65583 0.26819 0.0
C1505 C 0.73486 0.8468 0.25889 0.0
C1506 C 0.766 0.02237 0.24341 0.0
H1507 H 0.7296 0.65692 0.22766 0.0
H1508 H 0.7328 0.50347 0.24077 0.0
H1509 H 0.77645 0.14778 0.23266 0.0
H1510 H 0.77648 0.62849 0.26744 0.0
H1511 H 0.78031 0.82321 0.25664 0.0
H1512 H 0.73834 0.16936 0.2617 0.0
C1513 C 0.74454 0.51815 0.23653 0.0
C1514 C 0.76847 0.15579 0.23915 0.0
C1515 C 0.74271 0.60851 0.22904 0.0
C1516 C 0.76471 0.68481 0.2648 0.0
C1517 C 0.7669 0.79678 0.25868 0.0
C1518 C 0.74669 0.16356 0.25536 0.0
C1519 C 0.76031 0.43022 0.23745 0.0
C1520 C 0.75998 0.29495 0.2429 0.0
C1521 C 0.75208 0.88427 0.25608 0.0
C1522 C 0.75481 0.02446 0.25145 0.0
H1523 H 0.78429 0.5511 0.21933 0.0
H1524 H 0.78781 0.39608 0.23257 0.0
H1525 H 0.7426 0.40117 0.25431 0.0
H1526 H 0.71943 0.71436 0.26758 0.0
H1527 H 0.72319 0.91142 0.25688 0.0
C1528 C 0.24059 0.13793 0.96035 0.0
C1529 C 0.25257 0.05829 0.9537 0.0
C1530 C 0.24007 0.10314 0.96989 0.0
C1531 C 0.24775 0.77606 0.9829 0.0
H1532 H 0.25033 0.05973 0.00635 0.0
C1533 C 0.25452 0.5645 0.0203 0.0
C1534 C 0.24604 0.65161 0.02813 0.0
C1535 C 0.25514 0.61933 0.01132 0.0
C1536 C 0.24929 0.97896 -0.00013 0.0
H1537 H 0.27426 0.88863 0.95202 0.0
H1538 H 0.2732 0.82831 0.96849 0.0
H1539 H 0.25145 0.1557 0.99068 0.0
H1540 H 0.23114 0.86226 0.03266 0.0
H1541 H 0.23163 0.95466 0.01703 0.0
H1542 H 0.24516 0.59954 0.99192 0.0
C1543 C 0.26409 0.91568 0.96634 0.0
C1544 C 0.24999 0.03436 0.99092 0.0
C1545 C 0.26472 0.95099 0.95692 0.0
C1546 C 0.23792 0.79285 0.02677 0.0
C1547 C 0.23834 0.84664 0.01781 0.0
C1548 C 0.24679 0.72091 0.99181 0.0
C1549 C 0.25142 0.98761 0.97283 0.0
C1550 C 0.24947 0.93299 0.98236 0.0
C1551 C 0.24708 0.76154 0.00996 0.0
C1552 C 0.24774 0.82122 0.00044 0.0
H1553 H 0.23102 0.22052 0.95805 0.0
H1554 H 0.2302 0.16047 0.9748 0.0
H1555 H 0.24708 0.69572 0.97638 0.0
H1556 H 0.26096 0.4556 0.02116 0.0
H1557 H 0.26221 0.55128 0.00549 0.0
C1558 C 0.477 0.64925 0.71456 0.0
C1559 C 0.48883 0.57822 0.70751 0.0
C1560 C 0.47952 0.63154 0.72427 0.0
C1561 C 0.51614 0.55856 0.74084 0.0
H1562 H 0.47785 0.55287 0.75935 0.0
C1563 C 0.52644 0.44903 0.78039 0.0
C1564 C 0.51442 0.51852 0.78737 0.0
C1565 C 0.52468 0.47487 0.77077 0.0
C1566 C 0.48868 0.55738 0.75429 0.0
H1567 H 0.51165 0.42211 0.705 0.0
H1568 H 0.51591 0.38897 0.72202 0.0
H1569 H 0.47077 0.53337 0.74218 0.0
H1570 H 0.49227 0.68075 0.79002 0.0
H1571 H 0.4893 0.72818 0.77316 0.0
H1572 H 0.53406 0.58126 0.75297 0.0
C1573 C 0.5049 0.46117 0.72003 0.0
C1574 C 0.48462 0.54486 0.74444 0.0
C1575 C 0.50232 0.47837 0.71027 0.0
C1576 C 0.50174 0.62624 0.78477 0.0
C1577 C 0.49989 0.6515 0.77511 0.0
C1578 C 0.5202 0.57077 0.7507 0.0
C1579 C 0.49394 0.54239 0.72716 0.0
C1580 C 0.4983 0.54528 0.73759 0.0
C1581 C 0.5108 0.57032 0.76795 0.0
C1582 C 0.50651 0.57039 0.75754 0.0
H1583 H 0.46638 0.72609 0.71265 0.0
H1584 H 0.47082 0.69582 0.72954 0.0
H1585 H 0.52697 0.56262 0.73578 0.0
H1586 H 0.53641 0.36634 0.78226 0.0
H1587 H 0.53333 0.4107 0.76547 0.0
C1588 C 0.23906 0.71914 0.72412 0.0
C1589 C 0.25466 0.74701 0.71917 0.0
C1590 C 0.2401 0.64967 0.73254 0.0
C1591 C 0.27105 0.37759 0.74251 0.0
H1592 H 0.23281 0.37153 0.76103 0.0
C1593 C 0.25858 0.85226 0.76231 0.0
C1594 C 0.25306 0.87947 0.77195 0.0
C1595 C 0.25984 0.97337 0.75677 0.0
C1596 C 0.24373 0.37224 0.75598 0.0
H1597 H 0.2836 0.74617 0.71985 0.0
H1598 H 0.28555 0.63068 0.73487 0.0
H1599 H 0.2339 0.57968 0.75123 0.0
H1600 H 0.24498 0.05522 0.78348 0.0
H1601 H 0.24746 0.26585 0.77394 0.0
H1602 H 0.28097 0.17067 0.7474 0.0
C1603 C 0.27244 0.65643 0.73203 0.0
C1604 C 0.24424 0.49108 0.75027 0.0
C1605 C 0.27136 0.72578 0.72353 0.0
C1606 C 0.24913 0.03026 0.77602 0.0
C1607 C 0.25045 0.15113 0.77054 0.0
C1608 C 0.27058 0.25903 0.74827 0.0
C1609 C 0.25682 0.60758 0.73623 0.0
C1610 C 0.25776 0.49448 0.74334 0.0
C1611 C 0.25575 0.12441 0.76083 0.0
C1612 C 0.25677 0.25372 0.75498 0.0
H1613 H 0.22601 0.73438 0.72087 0.0
H1614 H 0.22772 0.61503 0.7355 0.0
H1615 H 0.28147 0.37366 0.73714 0.0
H1616 H 0.26225 0.73807 0.75911 0.0
H1617 H 0.26385 0.94836 0.7493 0.0
C1618 C 0.49338 0.17301 0.45222 0.0
C1619 C 0.50694 0.24971 0.44801 0.0
C1620 C 0.49312 0.17087 0.46222 0.0
C1621 C 0.51875 0.28182 0.4851 0.0
H1622 H 0.47203 0.42375 0.49485 0.0
C1623 C 0.50913 0.61296 0.52309 0.0
C1624 C 0.49502 0.56707 0.52858 0.0
C1625 C 0.51065 0.55738 0.51329 0.0
C1626 C 0.48512 0.38263 0.49226 0.0
H1627 H 0.53203 0.36626 0.45073 0.0
H1628 H 0.53156 0.36324 0.46805 0.0
H1629 H 0.47549 0.32997 0.47782 0.0
H1630 H 0.47099 0.43237 0.52797 0.0
H1631 H 0.47359 0.33726 0.51092 0.0
H1632 H 0.52843 0.34002 0.49954 0.0
C1633 C 0.52105 0.3054 0.46376 0.0
C1634 C 0.48709 0.32747 0.48251 0.0
C1635 C 0.52129 0.30774 0.4538 0.0
C1636 C 0.48206 0.46995 0.52396 0.0
C1637 C 0.48352 0.41544 0.51418 0.0
C1638 C 0.51679 0.33786 0.49485 0.0
C1639 C 0.50645 0.24464 0.46815 0.0
C1640 C 0.50399 0.27888 0.47876 0.0
C1641 C 0.49801 0.45606 0.50878 0.0
C1642 C 0.5 0.39124 0.4985 0.0
H1643 H 0.48216 0.12685 0.44793 0.0
H1644 H 0.4819 0.11986 0.46537 0.0
H1645 H 0.53191 0.2436 0.48248 0.0
H1646 H 0.51938 0.68698 0.52643 0.0
H1647 H 0.52181 0.59266 0.50926 0.0
C1648 C 0.74609 0.66194 0.5324 0.0
C1649 C 0.74813 0.50691 0.53369 0.0
C1650 C 0.74745 0.70837 0.52325 0.0
C1651 C 0.74358 0.56973 0.49743 0.0
H1652 H 0.76925 0.93673 0.49419 0.0
C1653 C 0.75818 0.73784 0.45989 0.0
C1654 C 0.75703 0.89301 0.45853 0.0
C1655 C 0.75708 0.69338 0.46909 0.0
C1656 C 0.76182 0.83527 0.49499 0.0
H1657 H 0.75321 0.27877 0.52639 0.0
H1658 H 0.75559 0.36013 0.5103 0.0
H1659 H 0.76785 0.85035 0.51009 0.0
H1660 H 0.75382 0.12362 0.46579 0.0
H1661 H 0.75161 0.04571 0.48198 0.0
H1662 H 0.73738 0.55507 0.48237 0.0
C1663 C 0.75284 0.44553 0.51641 0.0
C1664 C 0.76107 0.78536 0.50409 0.0
C1665 C 0.75157 0.39894 0.52561 0.0
C1666 C 0.75479 0.00326 0.46662 0.0
C1667 C 0.75361 0.9585 0.47588 0.0
C1668 C 0.74426 0.61992 0.48834 0.0
C1669 C 0.75082 0.60097 0.51514 0.0
C1670 C 0.75196 0.65187 0.50541 0.0
C1671 C 0.75469 0.80272 0.47721 0.0
C1672 C 0.75345 0.75297 0.48699 0.0
H1673 H 0.74341 0.74817 0.53848 0.0
H1674 H 0.74557 0.82852 0.52252 0.0
H1675 H 0.73619 0.46803 0.49823 0.0
H1676 H 0.76002 0.64984 0.45382 0.0
H1677 H 0.75834 0.57285 0.46983 0.0
C1678 C 0.76158 0.98744 0.76542 0.0
C1679 C 0.74502 0.9446 0.76876 0.0
C1680 C 0.76236 0.09784 0.75908 0.0
C1681 C 0.73502 0.34621 0.7445 0.0
H1682 H 0.76902 0.65339 0.75449 0.0
C1683 C 0.73085 0.9316 0.73177 0.0
C1684 C 0.7468 0.97271 0.72765 0.0
C1685 C 0.73106 0.8206 0.73808 0.0
C1686 C 0.7595 0.56862 0.75161 0.0
H1687 H 0.71631 0.97198 0.76747 0.0
H1688 H 0.71754 0.16298 0.7563 0.0
H1689 H 0.76903 0.40781 0.76085 0.0
H1690 H 0.77562 0.94342 0.72767 0.0
H1691 H 0.77611 0.75155 0.73888 0.0
H1692 H 0.72538 0.50766 0.73533 0.0
C1693 C 0.72999 0.11152 0.75849 0.0
C1694 C 0.75961 0.42702 0.75516 0.0
C1695 C 0.72923 0.00023 0.76479 0.0
C1696 C 0.76317 0.91628 0.73092 0.0
C1697 C 0.7634 0.80453 0.73724 0.0
C1698 C 0.73487 0.48786 0.74098 0.0
C1699 C 0.74658 0.16872 0.75607 0.0
C1700 C 0.74734 0.31394 0.75166 0.0
C1701 C 0.74724 0.74811 0.74032 0.0
C1702 C 0.74704 0.60116 0.74453 0.0
H1703 H 0.77393 0.94807 0.76852 0.0
H1704 H 0.77536 0.13608 0.75714 0.0
H1705 H 0.72549 0.26184 0.74159 0.0
H1706 H 0.71804 0.97211 0.72925 0.0
H1707 H 0.71842 0.78252 0.74055 0.0
C1708 C 0.25349 0.48846 0.46305 0.0
C1709 C 0.23872 0.55668 0.45878 0.0
C1710 C 0.25186 0.43359 0.47191 0.0
C1711 C 0.22748 0.44791 0.49422 0.0
H1712 H 0.24089 0.01759 0.49271 0.0
C1713 C 0.2195 0.11965 0.52696 0.0
C1714 C 0.23313 0.01403 0.52875 0.0
C1715 C 0.21873 0.18116 0.51823 0.0
C1716 C 0.2373 0.13805 0.49332 0.0
H1717 H 0.21102 0.6315 0.46083 0.0
H1718 H 0.20831 0.53839 0.47665 0.0
H1719 H 0.24262 0.14822 0.47837 0.0
H1720 H 0.25637 0.88645 0.52273 0.0
H1721 H 0.25542 0.99698 0.50751 0.0
H1722 H 0.22287 0.44053 0.50923 0.0
C1723 C 0.22106 0.52624 0.47297 0.0
C1724 C 0.23819 0.21255 0.48508 0.0
C1725 C 0.22264 0.58033 0.46397 0.0
C1726 C 0.24563 0.96663 0.52149 0.0
C1727 C 0.24503 0.03018 0.51277 0.0
C1728 C 0.22684 0.37399 0.50252 0.0
C1729 C 0.23549 0.447 0.4768 0.0
C1730 C 0.23342 0.3683 0.48548 0.0
C1731 C 0.23176 0.14074 0.51111 0.0
C1732 C 0.23184 0.21806 0.50219 0.0
H1733 H 0.26613 0.46974 0.45928 0.0
H1734 H 0.26326 0.37555 0.4748 0.0
H1735 H 0.22388 0.56833 0.49471 0.0
H1736 H 0.20956 0.15724 0.5324 0.0
H1737 H 0.20801 0.26225 0.51714 0.0
C1738 C 0.22822 0.0889 0.26272 0.0
C1739 C 0.24371 0.07398 0.26831 0.0
C1740 C 0.22739 0.19762 0.25618 0.0
C1741 C 0.24746 0.56895 0.25395 0.0
H1742 H 0.22207 0.54289 0.22954 0.0
C1743 C 0.24962 0.02047 0.22697 0.0
C1744 C 0.23425 0.0361 0.22129 0.0
C1745 C 0.24993 0.91693 0.23383 0.0
C1746 C 0.22898 0.55273 0.23643 0.0
H1747 H 0.271 0.14669 0.27078 0.0
H1748 H 0.26979 0.3313 0.2592 0.0
H1749 H 0.22527 0.31634 0.23786 0.0
H1750 H 0.20664 0.97127 0.21903 0.0
H1751 H 0.20696 0.79555 0.23117 0.0
H1752 H 0.25133 0.80489 0.25246 0.0
C1753 C 0.2581 0.26409 0.26004 0.0
C1754 C 0.23087 0.42247 0.24116 0.0
C1755 C 0.25888 0.15688 0.26657 0.0
C1756 C 0.21864 0.96128 0.22335 0.0
C1757 C 0.21892 0.85877 0.23019 0.0
C1758 C 0.24561 0.69903 0.2492 0.0
C1759 C 0.24204 0.29212 0.25519 0.0
C1760 C 0.2402 0.42882 0.24996 0.0
C1761 C 0.23487 0.82821 0.23505 0.0
C1762 C 0.23631 0.69262 0.2404 0.0
H1763 H 0.2163 0.02734 0.26403 0.0
H1764 H 0.21485 0.21561 0.25249 0.0
H1765 H 0.25439 0.57888 0.26083 0.0
H1766 H 0.2619 0.07496 0.22539 0.0
H1767 H 0.26241 0.89668 0.23752 0.0
C1768 C 0.99198 0.57543 0.47507 0.0
C1769 C 0.00469 0.62071 0.46868 0.0
C1770 C 0.98846 0.66537 0.48387 0.0
C1771 C 0.99157 0.06449 0.49522 0.0
H1772 H 0.98326 0.89373 0.519 0.0
C1773 C 0.98851 0.424 0.53289 0.0
C1774 C 0.97708 0.37565 0.53979 0.0
C1775 C 0.99021 0.33948 0.52375 0.0
C1776 C 0.98525 0.94325 0.51238 0.0
H1777 H 0.02448 0.79115 0.46686 0.0
H1778 H 0.01847 0.94569 0.48218 0.0
H1779 H 0.99055 0.72392 0.50437 0.0
H1780 H 0.9572 0.20923 0.5422 0.0
H1781 H 0.9599 0.06454 0.52627 0.0
H1782 H 0.98637 0.28397 0.50326 0.0
C1783 C 0.01092 0.84292 0.48029 0.0
C1784 C 0.98949 0.84575 0.50401 0.0
C1785 C 0.01445 0.75328 0.47154 0.0
C1786 C 0.96633 0.24848 0.5371 0.0
C1787 C 0.96798 0.16464 0.52799 0.0
C1788 C 0.98731 0.16206 0.5036 0.0
C1789 C -0.00244 0.80227 0.48645 0.0
C1790 C 0.99282 0.90527 0.49535 0.0
C1791 C 0.98044 0.20556 0.52135 0.0
C1792 C 0.98416 0.10262 0.51229 0.0
H1793 H 0.98418 0.47428 0.47311 0.0
H1794 H 0.97807 0.63095 0.48845 0.0
H1795 H 0.99373 0.11378 0.48861 0.0
H1796 H -0.00299 0.52116 0.53473 0.0
H1797 H -7e-05 0.37418 0.5188 0.0
C1798 C 0.99149 0.19952 0.70771 0.0
C1799 C 0.9778 0.29505 0.7047 0.0
C1800 C 0.99201 0.16641 0.71727 0.0
C1801 C 0.9806 0.37951 0.74011 0.0
H1802 H -0.00514 0.01944 0.75182 0.0
C1803 C 0.98447 0.38503 0.78137 0.0
C1804 C -0.00301 0.28767 0.78526 0.0
C1805 C 0.9824 0.38006 0.77139 0.0
C1806 C 0.99115 0.12169 0.74865 0.0
H1807 H 0.95263 0.41154 0.70871 0.0
H1808 H 0.95334 0.35152 0.72529 0.0
H1809 H 0.98884 0.99742 0.73445 0.0
H1810 H 0.01805 0.11662 0.78168 0.0
H1811 H 0.01494 0.11269 0.76428 0.0
H1812 H 0.98352 0.50569 0.75407 0.0
C1813 C 0.96388 0.30544 0.72041 0.0
C1814 C 0.98755 0.10834 0.73872 0.0
C1815 C 0.96339 0.33865 0.71091 0.0
C1816 C 0.00818 0.19247 0.77893 0.0
C1817 C 0.00624 0.18875 0.76893 0.0
C1818 C 0.98444 0.39332 0.74996 0.0
C1819 C 0.97881 0.22826 0.72385 0.0
C1820 C 0.98205 0.23704 0.73439 0.0
C1821 C 0.99296 0.27911 0.76502 0.0
C1822 C 0.98964 0.26461 0.7544 0.0
H1823 H 0.00281 0.16542 0.70307 0.0
H1824 H 0.00362 0.10578 0.71974 0.0
H1825 H 0.97687 0.48159 0.73691 0.0
H1826 H 0.97552 0.45872 0.78603 0.0
H1827 H 0.97191 0.45052 0.76868 0.0
C1828 C 0.00918 0.56594 0.23383 0.0
C1829 C -0.00527 0.63187 0.22917 0.0
C1830 C 0.01204 0.60498 0.24374 0.0
C1831 C 0.98958 0.75925 0.26623 0.0
H1832 H 0.0377 0.85134 0.27548 0.0
C1833 C 0.00174 0.85141 0.30646 0.0
C1834 C 0.01531 0.75215 0.30915 0.0
C1835 C 0.00102 0.88937 0.29703 0.0
C1836 C 0.02418 0.82624 0.27301 0.0
H1837 H 0.97152 0.785 0.23135 0.0
H1838 H 0.97637 0.85045 0.24862 0.0
H1839 H 0.03207 0.79172 0.25816 0.0
H1840 H 0.04008 0.63285 0.30468 0.0
H1841 H 0.03908 0.70029 0.28837 0.0
H1842 H 0.98171 0.7858 0.28099 0.0
C1843 C 0.98555 0.76984 0.24461 0.0
C1844 C 0.02099 0.79136 0.26311 0.0
C1845 C 0.98279 0.73213 0.23471 0.0
C1846 C 0.0295 0.71016 0.30277 0.0
C1847 C 0.02885 0.74863 0.29338 0.0
C1848 C 0.99278 0.79264 0.27612 0.0
C1849 C 0.00041 0.7092 0.24919 0.0
C1850 C 0.00371 0.75459 0.25964 0.0
C1851 C 0.01391 0.82917 0.2902 0.0
C1852 C 0.01019 0.82344 0.27967 0.0
H1853 H 0.01869 0.48925 0.22976 0.0
H1854 H 0.02344 0.55448 0.24712 0.0
H1855 H 0.97615 0.73061 0.26378 0.0
H1856 H 0.99057 0.88449 0.31123 0.0
H1857 H 0.98959 0.95558 0.29489 0.0
C1858 C 0.98294 0.44814 0.97303 0.0
C1859 C -0.00372 0.5166 0.96814 0.0
C1860 C 0.98114 0.48235 0.98303 0.0
C1861 C 0.99373 0.77379 0.00349 0.0
H1862 H 0.97897 0.46284 0.01886 0.0
C1863 C -0.00133 0.7982 0.04543 0.0
C1864 C 0.98472 0.72927 0.04985 0.0
C1865 C -0.00148 0.80054 0.0354 0.0
C1866 C 0.98287 0.55157 0.01464 0.0
H1867 H 0.01875 0.66909 0.96995 0.0
H1868 H 0.01605 0.72395 0.98738 0.0
H1869 H 0.9829 0.39762 0.00158 0.0
H1870 H 0.95868 0.62708 0.04755 0.0
H1871 H 0.95834 0.63319 0.03017 0.0
H1872 H 0.99428 0.92591 0.01676 0.0
C1873 C 0.00655 0.64808 0.9835 0.0
C1874 C 0.98511 0.5142 0.00472 0.0
C1875 C 0.00822 0.61532 0.9735 0.0
C1876 C 0.96972 0.6793 0.0443 0.0
C1877 C 0.96957 0.68174 0.03435 0.0
C1878 C 0.9917 0.81069 0.01347 0.0
C1879 C 0.99279 0.58426 0.98838 0.0
C1880 C 0.99053 0.62472 -0.00101 0.0
C1881 C 0.9844 0.73428 0.02974 0.0
C1882 C 0.98614 0.7 0.01913 0.0
H1883 H 0.97342 0.37291 0.9691 0.0
H1884 H 0.97024 0.43228 0.98652 0.0
H1885 H -0.00236 0.86266 -0.00071 0.0
H1886 H 0.01042 0.8368 0.04953 0.0
H1887 H 0.0101 0.84231 0.03202 0.0
C1888 C 0.5403 0.25354 0.065 0.0
C1889 C 0.53635 0.41101 0.06681 0.0
C1890 C 0.55796 0.19812 0.06598 0.0
C1891 C 0.60275 0.31027 0.07638 0.0
H1892 H 0.62125 0.02504 0.05524 0.0
C1893 C 0.67892 0.21225 0.06882 0.0
C1894 C 0.68478 0.06162 0.06574 0.0
C1895 C 0.66055 0.24803 0.06983 0.0
C1896 C 0.61628 0.10336 0.06127 0.0
H1897 H 0.54767 0.63222 0.07164 0.0
H1898 H 0.57798 0.53684 0.07326 0.0
H1899 H 0.58937 0.0904 0.05588 0.0
H1900 H 0.67586 0.82985 0.06161 0.0
H1901 H 0.64422 0.89188 0.06344 0.0
H1902 H 0.62977 0.32551 0.08166 0.0
C1903 C 0.56766 0.45529 0.0711 0.0
C1904 C 0.59795 0.14024 0.06166 0.0
C1905 C 0.55021 0.51025 0.07006 0.0
C1906 C 0.6719 0.94762 0.0639 0.0
C1907 C 0.65367 0.98314 0.0649 0.0
C1908 C 0.6211 0.27364 0.07598 0.0
C1909 C 0.57189 0.29908 0.06892 0.0
C1910 C 0.59098 0.24584 0.06914 0.0
C1911 C 0.6477 0.13386 0.06777 0.0
C1912 C 0.62812 0.1709 0.06837 0.0
H1913 H 0.52993 0.1742 0.06251 0.0
H1914 H 0.56075 0.0767 0.06433 0.0
H1915 H 0.59781 0.39041 0.08233 0.0
H1916 H 0.68848 0.30261 0.0703 0.0
H1917 H 0.65639 0.36566 0.072 0.0
C1918 C 0.5459 0.66904 0.19319 0.0
C1919 C 0.5359 0.53597 0.19142 0.0
C1920 C 0.56394 0.65978 0.19601 0.0
C1921 C 0.6014 0.376 0.19354 0.0
H1922 H 0.62737 0.68987 0.2094 0.0
C1923 C 0.67792 0.32346 0.19945 0.0
C1924 C 0.68753 0.4557 0.19854 0.0
C1925 C 0.65918 0.3305 0.20006 0.0
C1926 C 0.6203 0.6014 0.20493 0.0
H1927 H 0.53618 0.29176 0.19189 0.0
H1928 H 0.56722 0.27608 0.19722 0.0
H1929 H 0.59474 0.71062 0.20826 0.0
H1930 H 0.68499 0.69968 0.19777 0.0
H1931 H 0.65255 0.7112 0.19873 0.0
H1932 H 0.62686 0.2682 0.19005 0.0
C1933 C 0.56154 0.38684 0.19614 0.0
C1934 C 0.6016 0.61344 0.20427 0.0
C1935 C 0.5437 0.39588 0.1932 0.0
C1936 C 0.67804 0.59527 0.19844 0.0
C1937 C 0.65939 0.60236 0.19908 0.0
C1938 C 0.62003 0.36383 0.19422 0.0
C1939 C 0.57214 0.51734 0.19716 0.0
C1940 C 0.59191 0.50149 0.19849 0.0
C1941 C 0.6497 0.47003 0.19982 0.0
C1942 C 0.62975 0.47719 0.19982 0.0
H1943 H 0.54019 0.77795 0.19173 0.0
H1944 H 0.5717 0.76261 0.1967 0.0
H1945 H 0.59449 0.28914 0.18884 0.0
H1946 H 0.68482 0.21437 0.19959 0.0
H1947 H 0.65212 0.2266 0.20072 0.0
C1948 C 0.44821 0.80137 0.92474 0.0
C1949 C 0.45473 0.65002 0.92283 0.0
C1950 C 0.43001 0.83624 0.92322 0.0
C1951 C 0.38752 0.67117 0.91211 0.0
H1952 H 0.36494 0.94636 0.9325 0.0
C1953 C 0.31023 0.7105 0.91888 0.0
C1954 C 0.30289 0.85943 0.92077 0.0
C1955 C 0.32891 0.68651 0.9183 0.0
C1956 C 0.37106 0.86991 0.92671 0.0
H1957 H 0.44757 0.41911 0.91713 0.0
H1958 H 0.41624 0.47852 0.9147 0.0
H1959 H 0.39738 0.91186 0.93241 0.0
H1960 H 0.30956 0.09971 0.92339 0.0
H1961 H 0.34165 0.05745 0.92244 0.0
H1962 H 0.36099 0.62647 0.9066 0.0
C1963 C 0.42493 0.57133 0.9173 0.0
C1964 C 0.38971 0.85105 0.9266 0.0
C1965 C 0.44298 0.53688 0.91878 0.0
C1966 C 0.31462 0.98306 0.92195 0.0
C1967 C 0.33312 0.95914 0.92147 0.0
C1968 C 0.36883 0.68897 0.91227 0.0
C1969 C 0.41802 0.7205 0.91975 0.0
C1970 C 0.39824 0.75075 0.91934 0.0
C1971 C 0.34054 0.81089 0.91972 0.0
C1972 C 0.36038 0.78836 0.91958 0.0
H1973 H 0.4569 0.8911 0.92785 0.0
H1974 H 0.42525 0.95315 0.92502 0.0
H1975 H 0.39357 0.59467 0.9063 0.0
H1976 H 0.3016 0.6129 0.91793 0.0
H1977 H 0.33427 0.57067 0.91697 0.0
C1978 C 0.44429 0.19605 0.80049 0.0
C1979 C 0.45226 0.2511 0.80935 0.0
C1980 C 0.4257 0.21107 0.7992 0.0
C1981 C 0.38799 0.45921 0.80882 0.0
H1982 H 0.3584 0.15889 0.79408 0.0
C1983 C 0.31113 0.55004 0.80404 0.0
C1984 C 0.30397 0.49619 0.79496 0.0
C1985 C 0.32908 0.51681 0.80624 0.0
C1986 C 0.36652 0.24479 0.79814 0.0
H1987 H 0.44683 0.35279 0.82404 0.0
H1988 H 0.41464 0.3769 0.82181 0.0
H1989 H 0.38984 0.09704 0.79701 0.0
H1990 H 0.31012 0.37118 0.78095 0.0
H1991 H 0.34121 0.31762 0.78466 0.0
H1992 H 0.36484 0.60818 0.8098 0.0
C1993 C 0.4227 0.32627 0.81578 0.0
C1994 C 0.38453 0.20894 0.79982 0.0
C1995 C 0.44117 0.31155 0.81706 0.0
C1996 C 0.31518 0.41318 0.78806 0.0
C1997 C 0.33302 0.38108 0.79021 0.0
C1998 C 0.37001 0.49538 0.8071 0.0
C1999 C 0.4148 0.28105 0.80676 0.0
C2000 C 0.3955 0.31598 0.80515 0.0
C2001 C 0.34015 0.42987 0.79938 0.0
C2002 C 0.35907 0.38916 0.80166 0.0
H2003 H 0.45246 0.14927 0.79441 0.0
H2004 H 0.42 0.175 0.79215 0.0
H2005 H 0.39615 0.54525 0.81284 0.0
H2006 H 0.30275 0.6132 0.80953 0.0
H2007 H 0.33412 0.55564 0.8134 0.0
C2008 C 0.67918 0.4719 0.56814 0.0
C2009 C 0.68916 0.36762 0.56178 0.0
C2010 C 0.66062 0.45726 0.56891 0.0
C2011 C 0.62358 0.18092 0.56221 0.0
H2012 H 0.59382 0.54562 0.56823 0.0
C2013 C 0.54602 0.26918 0.55623 0.0
C2014 C 0.53724 0.35657 0.56397 0.0
C2015 C 0.56446 0.2361 0.55683 0.0
C2016 C 0.602 0.44255 0.56663 0.0
H2017 H 0.68754 0.16898 0.55102 0.0
H2018 H 0.65525 0.14846 0.55191 0.0
H2019 H 0.62603 0.56871 0.56711 0.0
H2020 H 0.54016 0.46317 0.5787 0.0
H2021 H 0.57216 0.40465 0.57976 0.0
H2022 H 0.59904 0.05687 0.56123 0.0
C2023 C 0.66164 0.23789 0.55665 0.0
C2024 C 0.62054 0.45548 0.56604 0.0
C2025 C 0.6802 0.25063 0.55605 0.0
C2026 C 0.54662 0.39434 0.57267 0.0
C2027 C 0.56495 0.36242 0.57324 0.0
C2028 C 0.60492 0.16853 0.5626 0.0
C2029 C 0.65154 0.33993 0.56316 0.0
C2030 C 0.63167 0.32497 0.56386 0.0
C2031 C 0.57422 0.29103 0.56515 0.0
C2032 C 0.594 0.29932 0.56488 0.0
H2033 H 0.68578 0.56208 0.57273 0.0
H2034 H 0.65349 0.53667 0.57415 0.0
H2035 H 0.63161 0.0771 0.56069 0.0
H2036 H 0.53917 0.24158 0.54939 0.0
H2037 H 0.57135 0.18101 0.55049 0.0
C2038 C 0.54782 0.97533 0.69541 0.0
C2039 C 0.54119 0.943 0.68597 0.0
C2040 C 0.56637 0.97896 0.69712 0.0
C2041 C 0.61084 0.97467 0.68477 0.0
H2042 H 0.62673 0.74855 0.70551 0.0
C2043 C 0.68439 0.77185 0.68779 0.0
C2044 C 0.69216 0.81642 0.69685 0.0
C2045 C 0.66571 0.77795 0.68667 0.0
C2046 C 0.62249 0.81217 0.6997 0.0
H2047 H 0.54853 0.90261 0.67088 0.0
H2048 H 0.58055 0.90947 0.67378 0.0
H2049 H 0.59485 0.80506 0.70351 0.0
H2050 H 0.6868 0.89444 0.71187 0.0
H2051 H 0.65427 0.89967 0.71001 0.0
H2052 H 0.63848 0.97886 0.68087 0.0
C2053 C 0.57171 0.93225 0.67993 0.0
C2054 C 0.60422 0.8462 0.69861 0.0
C2055 C 0.55329 0.92826 0.67824 0.0
C2056 C 0.68104 0.85683 0.70485 0.0
C2057 C 0.66243 0.8605 0.70377 0.0
C2058 C 0.62906 0.93932 0.68581 0.0
C2059 C 0.57855 0.95113 0.6894 0.0
C2060 C 0.59813 0.92737 0.6911 0.0
C2061 C 0.65458 0.82707 0.6946 0.0
C2062 C 0.63509 0.85712 0.69326 0.0
H2063 H 0.53879 0.98551 0.7015 0.0
H2064 H 0.57116 0.99692 0.7045 0.0
H2065 H 0.60673 0.03932 0.679 0.0
H2066 H 0.69273 0.74377 0.68148 0.0
H2067 H 0.66001 0.75023 0.67952 0.0
C2068 C 0.44025 0.71599 0.42295 0.0
C2069 C 0.45141 0.67136 0.43028 0.0
C2070 C 0.42173 0.72918 0.42423 0.0
C2071 C 0.38226 0.77241 0.42899 0.0
H2072 H 0.36418 0.42394 0.43998 0.0
C2073 C 0.30671 0.68194 0.43237 0.0
C2074 C 0.30022 0.53275 0.43043 0.0
C2075 C 0.32503 0.70788 0.43304 0.0
C2076 C 0.36901 0.52121 0.43683 0.0
H2077 H 0.45225 0.61545 0.44491 0.0
H2078 H 0.4198 0.64224 0.44731 0.0
H2079 H 0.39621 0.47232 0.44058 0.0
H2080 H 0.30807 0.29336 0.4277 0.0
H2081 H 0.34035 0.33887 0.4287 0.0
H2082 H 0.35522 0.81793 0.42488 0.0
C2083 C 0.42534 0.66577 0.44052 0.0
C2084 C 0.38736 0.5507 0.43733 0.0
C2085 C 0.44394 0.65359 0.43924 0.0
C2086 C 0.31262 0.40956 0.42918 0.0
C2087 C 0.3311 0.43577 0.42983 0.0
C2088 C 0.36395 0.74288 0.42848 0.0
C2089 C 0.41397 0.69628 0.43286 0.0
C2090 C 0.39424 0.67591 0.43333 0.0
C2091 C 0.33751 0.58564 0.43174 0.0
C2092 C 0.35708 0.61629 0.43234 0.0
H2093 H 0.44569 0.72654 0.41589 0.0
H2094 H 0.41345 0.75193 0.41814 0.0
H2095 H 0.38706 0.87005 0.42586 0.0
H2096 H 0.29762 0.78002 0.43346 0.0
H2097 H 0.32939 0.8244 0.43471 0.0
C2098 C 0.43868 0.16031 0.31518 0.0
C2099 C 0.44809 0.12649 0.30648 0.0
C2100 C 0.42044 0.13079 0.31562 0.0
C2101 C 0.38174 0.9478 0.30228 0.0
H2102 H 0.35588 0.31378 0.31344 0.0
C2103 C 0.30794 0.04503 0.29317 0.0
C2104 C 0.29617 0.10512 0.30055 0.0
C2105 C 0.3264 0.04501 0.29465 0.0
C2106 C 0.36283 0.20977 0.31042 0.0
H2107 H 0.44626 0.02283 0.29165 0.0
H2108 H 0.41436 0.96881 0.29239 0.0
H2109 H 0.38837 0.29732 0.31501 0.0
H2110 H 0.29449 0.2177 0.31519 0.0
H2111 H 0.32709 0.2175 0.31789 0.0
H2112 H 0.35624 0.86082 0.29759 0.0
C2113 C 0.42107 0.01806 0.29891 0.0
C2114 C 0.38149 0.19997 0.31134 0.0
C2115 C 0.43941 0.04741 0.29849 0.0
C2116 C 0.3033 0.17238 0.30935 0.0
C2117 C 0.32194 0.17125 0.31089 0.0
C2118 C 0.36308 0.95729 0.3014 0.0
C2119 C 0.41119 0.0673 0.30733 0.0
C2120 C 0.39122 0.06976 0.30715 0.0
C2121 C 0.33368 0.10342 0.30362 0.0
C2122 C 0.3534 0.08966 0.30529 0.0
H2123 H 0.44507 0.22213 0.32143 0.0
H2124 H 0.41335 0.16659 0.32228 0.0
H2125 H 0.38877 0.84529 0.29908 0.0
H2126 H 0.3028 0.9935 0.28627 0.0
H2127 H 0.33497 0.99646 0.28879 0.0
C2128 C 0.03823 0.1938 0.56882 0.0
C2129 C 0.0328 0.33819 0.57338 0.0
C2130 C 0.05641 0.14956 0.56865 0.0
C2131 C 0.10137 0.25525 0.57916 0.0
H2132 H 0.11828 0.08858 0.55378 0.0
C2133 C 0.17663 0.23754 0.56821 0.0
C2134 C 0.18275 0.1014 0.5628 0.0
C2135 C 0.15827 0.2622 0.57011 0.0
C2136 C 0.11379 0.13376 0.56094 0.0
H2137 H 0.04183 0.54352 0.58206 0.0
H2138 H 0.07325 0.46752 0.58172 0.0
H2139 H 0.08628 0.12384 0.5566 0.0
H2140 H 0.17435 0.88481 0.55515 0.0
H2141 H 0.14279 0.92755 0.55848 0.0
H2142 H 0.12902 0.26744 0.58341 0.0
C2143 C 0.06369 0.38789 0.57826 0.0
C2144 C 0.0954 0.15297 0.56258 0.0
C2145 C 0.04564 0.43202 0.57839 0.0
C2146 C 0.17017 0.99142 0.55932 0.0
C2147 C 0.15198 0.01611 0.56118 0.0
C2148 C 0.1198 0.23632 0.57751 0.0
C2149 C 0.06942 0.24853 0.57311 0.0
C2150 C 0.08893 0.2147 0.5717 0.0
C2151 C 0.14576 0.15162 0.56657 0.0
C2152 C 0.12622 0.17566 0.56837 0.0
H2153 H 0.02863 0.11917 0.56491 0.0
H2154 H 0.06036 0.04011 0.56476 0.0
H2155 H 0.09685 0.30191 0.5863 0.0
H2156 H 0.18599 0.32411 0.57101 0.0
H2157 H 0.15385 0.36838 0.57424 0.0
C2158 C 0.1855 0.45448 0.69216 0.0
C2159 C 0.19509 0.58444 0.69066 0.0
C2160 C 0.16679 0.46335 0.6931 0.0
C2161 C 0.12704 0.70608 0.68818 0.0
H2162 H 0.10404 0.49063 0.70709 0.0
C2163 C 0.05098 0.77243 0.69502 0.0
C2164 C 0.0424 0.63189 0.69434 0.0
C2165 C 0.06968 0.77751 0.69604 0.0
C2166 C 0.11029 0.55162 0.70178 0.0
H2167 H 0.19244 0.82503 0.68884 0.0
H2168 H 0.16024 0.8405 0.69061 0.0
H2169 H 0.13653 0.46998 0.70521 0.0
H2170 H 0.04619 0.38883 0.6948 0.0
H2171 H 0.07856 0.39778 0.69678 0.0
H2172 H 0.1008 0.78704 0.68473 0.0
C2173 C 0.16697 0.73108 0.69092 0.0
C2174 C 0.12889 0.53875 0.70065 0.0
C2175 C 0.18554 0.72217 0.68996 0.0
C2176 C 0.05255 0.4987 0.69535 0.0
C2177 C 0.07109 0.50396 0.69651 0.0
C2178 C 0.10848 0.71962 0.68936 0.0
C2179 C 0.15732 0.60232 0.69256 0.0
C2180 C 0.1375 0.61492 0.69378 0.0
C2181 C 0.07996 0.64241 0.69653 0.0
C2182 C 0.09985 0.64146 0.69611 0.0
H2183 H 0.19245 0.34681 0.69275 0.0
H2184 H 0.15976 0.36129 0.69423 0.0
H2185 H 0.13313 0.76461 0.68272 0.0
H2186 H 0.04342 0.87624 0.69414 0.0
H2187 H 0.07616 0.88612 0.69611 0.0
C2188 C 0.95768 0.79568 0.43374 0.0
C2189 C 0.96429 0.65376 0.42934 0.0
C2190 C 0.94003 0.84328 0.4319 0.0
C2191 C 0.89736 0.66114 0.42608 0.0
H2192 H 0.87858 0.06659 0.42333 0.0
C2193 C 0.8212 0.77823 0.4229 0.0
C2194 C 0.81445 0.91747 0.4276 0.0
C2195 C 0.83973 0.75201 0.42194 0.0
C2196 C 0.88358 0.95287 0.4242 0.0
H2197 H 0.9585 0.45849 0.41886 0.0
H2198 H 0.92807 0.54241 0.41554 0.0
H2199 H 0.91098 0.01964 0.42355 0.0
H2200 H 0.82181 0.13816 0.43502 0.0
H2201 H 0.85385 0.09083 0.43368 0.0
H2202 H 0.87025 0.59451 0.42713 0.0
C2203 C 0.9362 0.61528 0.42056 0.0
C2204 C 0.90216 0.92622 0.42428 0.0
C2205 C 0.95367 0.56791 0.42241 0.0
C2206 C 0.82657 0.0297 0.43131 0.0
C2207 C 0.84501 0.00305 0.43045 0.0
C2208 C 0.87886 0.68798 0.42611 0.0
C2209 C 0.92887 0.7494 0.42564 0.0
C2210 C 0.90923 0.77993 0.42521 0.0
C2211 C 0.8519 0.86389 0.42577 0.0
C2212 C 0.87167 0.8343 0.42522 0.0
H2213 H 0.96556 0.86329 0.43916 0.0
H2214 H 0.93472 0.94756 0.43589 0.0
H2215 H 0.9024 0.54764 0.427 0.0
H2216 H 0.81219 0.6901 0.4199 0.0
H2217 H 0.84449 0.64422 0.41815 0.0
C2218 C 0.94267 0.3951 0.30939 0.0
C2219 C 0.94785 0.4272 0.31913 0.0
C2220 C 0.92476 0.41831 0.30661 0.0
C2221 C 0.88441 0.64722 0.31482 0.0
H2222 H 0.85845 0.35728 0.29715 0.0
C2223 C 0.8072 0.68745 0.30938 0.0
C2224 C 0.80028 0.63172 0.30029 0.0
C2225 C 0.82565 0.67441 0.31126 0.0
C2226 C 0.86555 0.44117 0.30197 0.0
H2227 H 0.93795 0.49903 0.33362 0.0
H2228 H 0.90714 0.53841 0.32878 0.0
H2229 H 0.8897 0.30328 0.30094 0.0
H2230 H 0.8072 0.5298 0.28584 0.0
H2231 H 0.83921 0.51352 0.28893 0.0
H2232 H 0.86037 0.78565 0.31585 0.0
C2233 C 0.91687 0.49902 0.32326 0.0
C2234 C 0.88349 0.40958 0.30415 0.0
C2235 C 0.93458 0.47535 0.32603 0.0
C2236 C 0.81218 0.57249 0.29295 0.0
C2237 C 0.83053 0.56149 0.29476 0.0
C2238 C 0.86652 0.67945 0.31258 0.0
C2239 C 0.91179 0.47457 0.31351 0.0
C2240 C 0.89306 0.51137 0.31069 0.0
C2241 C 0.83749 0.60701 0.30402 0.0
C2242 C 0.85678 0.57636 0.30618 0.0
H2243 H 0.95252 0.35827 0.30389 0.0
H2244 H 0.92121 0.39788 0.29904 0.0
H2245 H 0.89151 0.72922 0.31978 0.0
H2246 H 0.79828 0.73207 0.31519 0.0
H2247 H 0.83047 0.71022 0.3185 0.0
C2248 C 0.18423 0.30692 0.05627 0.0
C2249 C 0.19088 0.45598 0.05761 0.0
C2250 C 0.16596 0.2816 0.057 0.0
C2251 C 0.12128 0.46539 0.05575 0.0
H2252 H 0.10636 0.13684 0.06972 0.0
C2253 C 0.05382 0.30089 0.07514 0.0
C2254 C 0.04104 0.32418 0.068 0.0
C2255 C 0.07203 0.28835 0.07291 0.0
C2256 C 0.11031 0.22845 0.06575 0.0
H2257 H 0.18342 0.69572 0.06073 0.0
H2258 H 0.15125 0.65146 0.06202 0.0
H2259 H 0.13819 0.18465 0.06818 0.0
H2260 H 0.03711 0.34452 0.05285 0.0
H2261 H 0.0691 0.32207 0.04889 0.0
H2262 H 0.09335 0.51124 0.05352 0.0
C2263 C 0.16031 0.55421 0.06034 0.0
C2264 C 0.12855 0.25561 0.06484 0.0
C2265 C 0.17873 0.57966 0.05967 0.0
C2266 C 0.04668 0.32345 0.05843 0.0
C2267 C 0.06499 0.31326 0.05622 0.0
C2268 C 0.10302 0.4374 0.0566 0.0
C2269 C 0.15374 0.40459 0.05905 0.0
C2270 C 0.13428 0.37535 0.05991 0.0
C2271 C 0.0779 0.30156 0.06352 0.0
C2272 C 0.09731 0.31958 0.0617 0.0
H2273 H 0.19318 0.20873 0.05465 0.0
H2274 H 0.16137 0.16522 0.05584 0.0
H2275 H 0.12523 0.55737 0.05182 0.0
H2276 H 0.0498 0.30377 0.0826 0.0
H2277 H 0.08158 0.28026 0.07872 0.0
C2278 C 0.05208 0.82077 0.20458 0.0
C2279 C 0.03847 0.86009 0.19829 0.0
C2280 C 0.06997 0.84621 0.20267 0.0
C2281 C 0.1025 0.04767 0.19085 0.0
H2282 H 0.12848 0.65886 0.18656 0.0
C2283 C 0.17735 0.02843 0.1814 0.0
C2284 C 0.18838 0.92465 0.18571 0.0
C2285 C 0.15874 0.0166 0.18144 0.0
C2286 C 0.12158 0.76875 0.18783 0.0
H2287 H 0.03269 0.96448 0.18535 0.0
H2288 H 0.06427 0.01586 0.1822 0.0
H2289 H 0.09669 0.66535 0.19041 0.0
H2290 H 0.18875 0.72379 0.19313 0.0
H2291 H 0.15624 0.70516 0.19356 0.0
H2292 H 0.12741 0.15282 0.18885 0.0
C2293 C 0.06094 0.96462 0.18859 0.0
C2294 C 0.10331 0.77214 0.18997 0.0
C2295 C 0.04292 0.93718 0.19045 0.0
C2296 C 0.18053 0.80367 0.18962 0.0
C2297 C 0.16183 0.79364 0.18987 0.0
C2298 C 0.12089 0.04477 0.18889 0.0
C2299 C 0.07461 0.91267 0.19446 0.0
C2300 C 0.09366 0.91155 0.19159 0.0
C2301 C 0.15064 0.903 0.18604 0.0
C2302 C 0.13076 0.90518 0.18744 0.0
H2303 H 0.04898 0.75846 0.21056 0.0
H2304 H 0.08027 0.80622 0.20733 0.0
H2305 H 0.09533 0.15649 0.19212 0.0
H2306 H 0.18314 0.12271 0.17831 0.0
H2307 H 0.15072 0.09997 0.17813 0.0
C2308 C 0.80799 0.72709 0.93941 0.0
C2309 C 0.79951 0.61872 0.93276 0.0
C2310 C 0.82641 0.74836 0.93901 0.0
C2311 C 0.8687 0.56978 0.92824 0.0
H2312 H 0.8872 0.97289 0.93645 0.0
C2313 C 0.94271 0.68367 0.92409 0.0
C2314 C 0.95137 0.72699 0.93295 0.0
C2315 C 0.92414 0.69889 0.92327 0.0
C2316 C 0.8822 0.85994 0.93414 0.0
H2317 H 0.80373 0.44719 0.92047 0.0
H2318 H 0.83593 0.48764 0.91948 0.0
H2319 H 0.85493 0.93414 0.93638 0.0
H2320 H 0.94762 0.83345 0.94763 0.0
H2321 H 0.91498 0.86505 0.9461 0.0
H2322 H 0.89602 0.49723 0.92578 0.0
C2323 C 0.82843 0.55387 0.92521 0.0
C2324 C 0.86369 0.83681 0.93416 0.0
C2325 C 0.80994 0.53053 0.92573 0.0
C2326 C 0.94133 0.80205 0.94067 0.0
C2327 C 0.92264 0.81835 0.93981 0.0
C2328 C 0.88713 0.59369 0.92804 0.0
C2329 C 0.83694 0.66403 0.93182 0.0
C2330 C 0.85665 0.69075 0.93133 0.0
C2331 C 0.91382 0.75868 0.93127 0.0
C2332 C 0.8941 0.7386 0.93105 0.0
H2333 H 0.80033 0.79597 0.94498 0.0
H2334 H 0.83237 0.83079 0.94442 0.0
H2335 H 0.86401 0.45515 0.92619 0.0
H2336 H 0.95014 0.62418 0.91806 0.0
H2337 H 0.91772 0.65415 0.91655 0.0
C2338 C 0.93533 0.98657 0.80042 0.0
C2339 C 0.94281 0.00305 0.80973 0.0
C2340 C 0.91667 0.98993 0.79918 0.0
C2341 C 0.87723 0.16015 0.81251 0.0
H2342 H 0.84991 0.93534 0.792 0.0
C2343 C 0.79951 0.17263 0.81054 0.0
C2344 C 0.79148 0.14867 0.80139 0.0
C2345 C 0.81823 0.17208 0.81145 0.0
C2346 C 0.85738 0.00125 0.79768 0.0
H2347 H 0.93689 0.02253 0.82498 0.0
H2348 H 0.90446 0.02201 0.82284 0.0
H2349 H 0.88173 0.87588 0.79373 0.0
H2350 H 0.79639 0.11723 0.78602 0.0
H2351 H 0.82892 0.12433 0.78754 0.0
H2352 H 0.85294 0.28594 0.81645 0.0
C2353 C 0.91286 0.01064 0.81649 0.0
C2354 C 0.87563 0.96616 0.79869 0.0
C2355 C 0.93142 0.008 0.81772 0.0
C2356 C 0.80232 0.13826 0.79317 0.0
C2357 C 0.82095 0.13911 0.79405 0.0
C2358 C 0.859 0.19557 0.81147 0.0
C2359 C 0.90525 0.00991 0.80725 0.0
C2360 C 0.88576 0.04442 0.80616 0.0
C2361 C 0.82917 0.1477 0.80319 0.0
C2362 C 0.84881 0.1164 0.80406 0.0
H2363 H 0.94383 0.98635 0.79417 0.0
H2364 H 0.91125 0.98899 0.79196 0.0
H2365 H 0.88471 0.22534 0.81821 0.0
H2366 H 0.79143 0.17777 0.81698 0.0
H2367 H 0.82406 0.1789 0.81861 0.0
loop_
_geom_bond_atom_site_label_1
_geom_bond_atom_site_label_2
_geom_bond_distance
_geom_bond_site_symmetry_2
_ccdc_geom_bond_type
Co0 O1 2.216 . S
Co0 O2 2.091 . S
Co0 O4 2.004 . S
Co0 O10 2.021 . S
Co0 O12 2.137 1_565 S
Co0 O13 2.244 1_565 S
O1 Co0 2.216 . S
O1 C8 1.247 . S
O2 Co0 2.091 . S
O2 C8 1.261 . S
C3 O12 1.247 . S
C3 O13 1.272 . S
O4 Co0 2.004 . S
O4 C9 1.259 . S
Co5 O6 2.061 . S
Co5 O11 2.052 . S
Co5 O13 2.135 . S
O6 Co5 2.061 . S
O6 C9 1.235 1_545 S
C7 O10 1.238 1_545 S
C7 O11 1.241 . S
C8 O1 1.247 . S
C8 O2 1.261 . S
C9 O4 1.259 . S
C9 O6 1.235 1_565 S
O10 Co0 2.021 . S
O10 C7 1.238 1_565 S
O11 Co5 2.052 . S
O11 C7 1.241 . S
O12 Co0 2.137 1_545 S
O12 C3 1.247 . S
O13 Co0 2.244 1_545 S
O13 C3 1.272 . S
O13 Co5 2.135 . S
Co14 O15 2.216 1_545 S
Co14 O16 2.091 . S
Co14 O18 2.004 . S
Co14 O24 2.021 1_545 S
Co14 O26 2.137 . S
Co14 O27 2.244 1_545 S
O15 Co14 2.216 1_565 S
O15 C22 1.247 1_565 S
O16 Co14 2.091 . S
O16 C22 1.261 . S
C17 O26 1.247 1_565 S
C17 O27 1.272 . S
O18 Co14 2.004 . S
O18 C23 1.259 . S
Co19 O20 2.061 . S
Co19 O25 2.052 . S
Co19 O27 2.135 . S
O20 Co19 2.061 . S
O20 C23 1.235 1_565 S
C21 O24 1.238 . S
C21 O25 1.241 . S
C22 O15 1.247 1_545 S
C22 O16 1.261 . S
C23 O18 1.259 . S
C23 O20 1.235 1_545 S
O24 Co14 2.021 1_565 S
O24 C21 1.238 . S
O25 Co19 2.052 . S
O25 C21 1.241 . S
O26 Co14 2.137 . S
O26 C17 1.247 1_545 S
O27 Co14 2.244 1_565 S
O27 C17 1.272 . S
O27 Co19 2.135 . S
Co28 O29 2.216 . S
Co28 O30 2.091 1_565 S
Co28 O32 2.004 1_565 S
Co28 O38 2.021 . S
Co28 O40 2.137 . S
Co28 O41 2.244 . S
O29 Co28 2.216 . S
O29 C36 1.247 1_565 S
O30 Co28 2.091 1_545 S
O30 C36 1.261 . S
C31 O40 1.247 . S
C31 O41 1.272 . S
O32 Co28 2.004 1_545 S
O32 C37 1.259 . S
Co33 O34 2.061 . S
Co33 O39 2.052 . S
Co33 O41 2.135 . S
O34 Co33 2.061 . S
O34 C37 1.235 1_565 S
C35 O38 1.238 . S
C35 O39 1.241 . S
C36 O29 1.247 1_545 S
C36 O30 1.261 . S
C37 O32 1.259 . S
C37 O34 1.235 1_545 S
O38 Co28 2.021 . S
O38 C35 1.238 . S
O39 Co33 2.052 . S
O39 C35 1.241 . S
O40 Co28 2.137 . S
O40 C31 1.247 . S
O41 Co28 2.244 . S
O41 C31 1.272 . S
O41 Co33 2.135 . S
Co42 O43 2.216 . S
Co42 O44 2.091 . S
Co42 O46 2.004 . S
Co42 O52 2.021 . S
Co42 O54 2.137 . S
Co42 O55 2.244 . S
O43 Co42 2.216 . S
O43 C50 1.247 . S
O44 Co42 2.091 . S
O44 C50 1.261 . S
C45 O54 1.247 . S
C45 O55 1.272 . S
O46 Co42 2.004 . S
O46 C51 1.259 . S
Co47 O48 2.061 . S
Co47 O53 2.052 . S
Co47 O55 2.135 . S
O48 Co47 2.061 . S
O48 C51 1.235 . S
C49 O52 1.238 . S
C49 O53 1.241 . S
C50 O43 1.247 . S
C50 O44 1.261 . S
C51 O46 1.259 . S
C51 O48 1.235 . S
O52 Co42 2.021 . S
O52 C49 1.238 . S
O53 Co47 2.052 . S
O53 C49 1.241 . S
O54 Co42 2.137 . S
O54 C45 1.247 . S
O55 Co42 2.244 . S
O55 C45 1.272 . S
O55 Co47 2.135 . S
Co56 O57 2.216 . S
Co56 O58 2.091 . S
Co56 O60 2.004 . S
Co56 O66 2.021 . S
Co56 O68 2.137 1_545 S
Co56 O69 2.244 1_545 S
O57 Co56 2.216 . S
O57 C64 1.247 . S
O58 Co56 2.091 . S
O58 C64 1.261 . S
C59 O68 1.247 . S
C59 O69 1.272 . S
O60 Co56 2.004 . S
O60 C65 1.259 . S
Co61 O62 2.061 . S
Co61 O67 2.052 . S
Co61 O69 2.135 . S
O62 Co61 2.061 . S
O62 C65 1.235 1_565 S
C63 O66 1.238 1_565 S
C63 O67 1.241 . S
C64 O57 1.247 . S
C64 O58 1.261 . S
C65 O60 1.259 . S
C65 O62 1.235 1_545 S
O66 Co56 2.021 . S
O66 C63 1.238 1_545 S
O67 Co61 2.052 . S
O67 C63 1.241 . S
O68 Co56 2.137 1_565 S
O68 C59 1.247 . S
O69 Co56 2.244 1_565 S
O69 C59 1.272 . S
O69 Co61 2.135 . S
Co70 O71 2.216 1_565 S
Co70 O72 2.091 . S
Co70 O74 2.004 . S
Co70 O80 2.021 1_565 S
Co70 O82 2.137 . S
Co70 O83 2.244 1_565 S
O71 Co70 2.216 1_545 S
O71 C78 1.247 1_545 S
O72 Co70 2.091 . S
O72 C78 1.261 . S
C73 O82 1.247 1_545 S
C73 O83 1.272 . S
O74 Co70 2.004 . S
O74 C79 1.259 . S
Co75 O76 2.061 . S
Co75 O81 2.052 . S
Co75 O83 2.135 . S
O76 Co75 2.061 . S
O76 C79 1.235 1_545 S
C77 O80 1.238 . S
C77 O81 1.241 . S
C78 O71 1.247 1_565 S
C78 O72 1.261 . S
C79 O74 1.259 . S
C79 O76 1.235 1_565 S
O80 Co70 2.021 1_545 S
O80 C77 1.238 . S
O81 Co75 2.052 . S
O81 C77 1.241 . S
O82 Co70 2.137 . S
O82 C73 1.247 1_565 S
O83 Co70 2.244 1_545 S
O83 C73 1.272 . S
O83 Co75 2.135 . S
Co84 O85 2.216 . S
Co84 O86 2.091 1_545 S
Co84 O88 2.004 1_545 S
Co84 O94 2.021 . S
Co84 O96 2.137 . S
Co84 O97 2.244 . S
O85 Co84 2.216 . S
O85 C92 1.247 1_545 S
O86 Co84 2.091 1_565 S
O86 C92 1.261 . S
C87 O96 1.247 . S
C87 O97 1.272 . S
O88 Co84 2.004 1_565 S
O88 C93 1.259 . S
Co89 O90 2.061 . S
Co89 O95 2.052 . S
Co89 O97 2.135 . S
O90 Co89 2.061 . S
O90 C93 1.235 1_545 S
C91 O94 1.238 . S
C91 O95 1.241 . S
C92 O85 1.247 1_565 S
C92 O86 1.261 . S
C93 O88 1.259 . S
C93 O90 1.235 1_565 S
O94 Co84 2.021 . S
O94 C91 1.238 . S
O95 Co89 2.052 . S
O95 C91 1.241 . S
O96 Co84 2.137 . S
O96 C87 1.247 . S
O97 Co84 2.244 . S
O97 C87 1.272 . S
O97 Co89 2.135 . S
Co98 O99 2.216 . S
Co98 O100 2.091 . S
Co98 O102 2.004 . S
Co98 O108 2.021 . S
Co98 O110 2.137 . S
Co98 O111 2.244 . S
O99 Co98 2.216 . S
O99 C106 1.247 . S
O100 Co98 2.091 . S
O100 C106 1.261 . S
C101 O110 1.247 . S
C101 O111 1.272 . S
O102 Co98 2.004 . S
O102 C107 1.259 . S
Co103 O104 2.061 . S
Co103 O109 2.052 . S
Co103 O111 2.135 . S
O104 Co103 2.061 . S
O104 C107 1.235 . S
C105 O108 1.238 . S
C105 O109 1.241 . S
C106 O99 1.247 . S
C106 O100 1.261 . S
C107 O102 1.259 . S
C107 O104 1.235 . S
O108 Co98 2.021 . S
O108 C105 1.238 . S
O109 Co103 2.052 . S
O109 C105 1.241 . S
O110 Co98 2.137 . S
O110 C101 1.247 . S
O111 Co98 2.244 . S
O111 C101 1.272 . S
O111 Co103 2.135 . S
Co112 O113 2.216 . S
Co112 O114 2.091 1_545 S
Co112 O116 2.004 1_545 S
Co112 O122 2.021 . S
Co112 O124 2.137 . S
Co112 O125 2.244 . S
O113 Co112 2.216 . S
O113 C120 1.247 1_545 S
O114 Co112 2.091 1_565 S
O114 C120 1.261 . S
C115 O124 1.247 . S
C115 O125 1.272 . S
O116 Co112 2.004 1_565 S
O116 C121 1.259 . S
Co117 O118 2.061 . S
Co117 O123 2.052 . S
Co117 O125 2.135 . S
O118 Co117 2.061 . S
O118 C121 1.235 1_545 S
C119 O122 1.238 . S
C119 O123 1.241 . S
C120 O113 1.247 1_565 S
C120 O114 1.261 . S
C121 O116 1.259 . S
C121 O118 1.235 1_565 S
O122 Co112 2.021 . S
O122 C119 1.238 . S
O123 Co117 2.052 . S
O123 C119 1.241 . S
O124 Co112 2.137 . S
O124 C115 1.247 . S
O125 Co112 2.244 . S
O125 C115 1.272 . S
O125 Co117 2.135 . S
Co126 O127 2.216 . S
Co126 O128 2.091 . S
Co126 O130 2.004 . S
Co126 O136 2.021 . S
Co126 O138 2.137 . S
Co126 O139 2.244 . S
O127 Co126 2.216 . S
O127 C134 1.247 . S
O128 Co126 2.091 . S
O128 C134 1.261 . S
C129 O138 1.247 . S
C129 O139 1.272 . S
O130 Co126 2.004 . S
O130 C135 1.259 . S
Co131 O132 2.061 1_565 S
Co131 O137 2.052 . S
Co131 O139 2.135 1_565 S
O132 Co131 2.061 1_545 S
O132 C135 1.235 . S
C133 O136 1.238 . S
C133 O137 1.241 1_545 S
C134 O127 1.247 . S
C134 O128 1.261 . S
C135 O130 1.259 . S
C135 O132 1.235 . S
O136 Co126 2.021 . S
O136 C133 1.238 . S
O137 Co131 2.052 . S
O137 C133 1.241 1_565 S
O138 Co126 2.137 . S
O138 C129 1.247 . S
O139 Co126 2.244 . S
O139 C129 1.272 . S
O139 Co131 2.135 1_545 S
Co140 O141 2.216 . S
Co140 O142 2.091 . S
Co140 O144 2.004 . S
Co140 O150 2.021 1_545 S
Co140 O152 2.137 . S
Co140 O153 2.244 1_545 S
O141 Co140 2.216 . S
O141 C148 1.247 . S
O142 Co140 2.091 . S
O142 C148 1.261 . S
C143 O152 1.247 1_565 S
C143 O153 1.272 . S
O144 Co140 2.004 . S
O144 C149 1.259 . S
Co145 O146 2.061 . S
Co145 O151 2.052 . S
Co145 O153 2.135 . S
O146 Co145 2.061 . S
O146 C149 1.235 1_565 S
C147 O150 1.238 . S
C147 O151 1.241 . S
C148 O141 1.247 . S
C148 O142 1.261 . S
C149 O144 1.259 . S
C149 O146 1.235 1_545 S
O150 Co140 2.021 1_565 S
O150 C147 1.238 . S
O151 Co145 2.052 . S
O151 C147 1.241 . S
O152 Co140 2.137 . S
O152 C143 1.247 1_545 S
O153 Co140 2.244 1_565 S
O153 C143 1.272 . S
O153 Co145 2.135 . S
Co154 O155 2.216 1_565 S
Co154 O156 2.091 . S
Co154 O158 2.004 . S
Co154 O164 2.021 1_565 S
Co154 O166 2.137 . S
Co154 O167 2.244 1_565 S
O155 Co154 2.216 1_545 S
O155 C162 1.247 1_545 S
O156 Co154 2.091 . S
O156 C162 1.261 . S
C157 O166 1.247 1_545 S
C157 O167 1.272 . S
O158 Co154 2.004 . S
O158 C163 1.259 . S
Co159 O160 2.061 . S
Co159 O165 2.052 . S
Co159 O167 2.135 . S
O160 Co159 2.061 . S
O160 C163 1.235 1_545 S
C161 O164 1.238 . S
C161 O165 1.241 . S
C162 O155 1.247 1_565 S
C162 O156 1.261 . S
C163 O158 1.259 . S
C163 O160 1.235 1_565 S
O164 Co154 2.021 1_545 S
O164 C161 1.238 . S
O165 Co159 2.052 . S
O165 C161 1.241 . S
O166 Co154 2.137 . S
O166 C157 1.247 1_565 S
O167 Co154 2.244 1_545 S
O167 C157 1.272 . S
O167 Co159 2.135 . S
Co168 O169 2.216 . S
Co168 O170 2.091 1_565 S
Co168 O172 2.004 1_565 S
Co168 O178 2.021 . S
Co168 O180 2.137 . S
Co168 O181 2.244 . S
O169 Co168 2.216 . S
O169 C176 1.247 1_565 S
O170 Co168 2.091 1_545 S
O170 C176 1.261 . S
C171 O180 1.247 . S
C171 O181 1.272 . S
O172 Co168 2.004 1_545 S
O172 C177 1.259 . S
Co173 O174 2.061 . S
Co173 O179 2.052 . S
Co173 O181 2.135 . S
O174 Co173 2.061 . S
O174 C177 1.235 1_565 S
C175 O178 1.238 . S
C175 O179 1.241 . S
C176 O169 1.247 1_545 S
C176 O170 1.261 . S
C177 O172 1.259 . S
C177 O174 1.235 1_545 S
O178 Co168 2.021 . S
O178 C175 1.238 . S
O179 Co173 2.052 . S
O179 C175 1.241 . S
O180 Co168 2.137 . S
O180 C171 1.247 . S
O181 Co168 2.244 . S
O181 C171 1.272 . S
O181 Co173 2.135 . S
Co182 O183 2.216 . S
Co182 O184 2.091 . S
Co182 O186 2.004 . S
Co182 O192 2.021 . S
Co182 O194 2.137 . S
Co182 O195 2.244 . S
O183 Co182 2.216 . S
O183 C190 1.247 . S
O184 Co182 2.091 . S
O184 C190 1.261 . S
C185 O194 1.247 . S
C185 O195 1.272 . S
O186 Co182 2.004 . S
O186 C191 1.259 . S
Co187 O188 2.061 1_545 S
Co187 O193 2.052 . S
Co187 O195 2.135 1_545 S
O188 Co187 2.061 1_565 S
O188 C191 1.235 . S
C189 O192 1.238 . S
C189 O193 1.241 1_565 S
C190 O183 1.247 . S
C190 O184 1.261 . S
C191 O186 1.259 . S
C191 O188 1.235 . S
O192 Co182 2.021 . S
O192 C189 1.238 . S
O193 Co187 2.052 . S
O193 C189 1.241 1_545 S
O194 Co182 2.137 . S
O194 C185 1.247 . S
O195 Co182 2.244 . S
O195 C185 1.272 . S
O195 Co187 2.135 1_565 S
Co196 O197 2.216 . S
Co196 O198 2.091 . S
Co196 O200 2.004 . S
Co196 O206 2.021 1_565 S
Co196 O208 2.137 . S
Co196 O209 2.244 1_565 S
O197 Co196 2.216 . S
O197 C204 1.247 . S
O198 Co196 2.091 . S
O198 C204 1.261 . S
C199 O208 1.247 1_545 S
C199 O209 1.272 . S
O200 Co196 2.004 . S
O200 C205 1.259 . S
Co201 O202 2.061 . S
Co201 O207 2.052 . S
Co201 O209 2.135 . S
O202 Co201 2.061 . S
O202 C205 1.235 1_545 S
C203 O206 1.238 . S
C203 O207 1.241 . S
C204 O197 1.247 . S
C204 O198 1.261 . S
C205 O200 1.259 . S
C205 O202 1.235 1_565 S
O206 Co196 2.021 1_545 S
O206 C203 1.238 . S
O207 Co201 2.052 . S
O207 C203 1.241 . S
O208 Co196 2.137 . S
O208 C199 1.247 1_565 S
O209 Co196 2.244 1_545 S
O209 C199 1.272 . S
O209 Co201 2.135 . S
Co210 O211 2.216 1_545 S
Co210 O212 2.091 . S
Co210 O214 2.004 . S
Co210 O220 2.021 1_545 S
Co210 O222 2.137 . S
Co210 O223 2.244 1_545 S
O211 Co210 2.216 1_565 S
O211 C218 1.247 1_565 S
O212 Co210 2.091 . S
O212 C218 1.261 . S
C213 O222 1.247 1_565 S
C213 O223 1.272 . S
O214 Co210 2.004 . S
O214 C219 1.259 . S
Co215 O216 2.061 . S
Co215 O221 2.052 . S
Co215 O223 2.135 . S
O216 Co215 2.061 . S
O216 C219 1.235 1_565 S
C217 O220 1.238 . S
C217 O221 1.241 . S
C218 O211 1.247 1_545 S
C218 O212 1.261 . S
C219 O214 1.259 . S
C219 O216 1.235 1_545 S
O220 Co210 2.021 1_565 S
O220 C217 1.238 . S
O221 Co215 2.052 . S
O221 C217 1.241 . S
O222 Co210 2.137 . S
O222 C213 1.247 1_545 S
O223 Co210 2.244 1_565 S
O223 C213 1.272 . S
O223 Co215 2.135 . S
Co224 O225 2.216 . S
Co224 O226 2.091 . S
Co224 O228 2.004 1_655 S
Co224 O234 2.021 . S
Co224 O236 2.137 1_565 S
Co224 O237 2.244 1_665 S
O225 Co224 2.216 . S
O225 C232 1.247 . S
O226 Co224 2.091 . S
O226 C232 1.261 . S
C227 O236 1.247 . S
C227 O237 1.272 1_655 S
O228 Co224 2.004 1_455 S
O228 C233 1.259 . S
Co229 O230 2.061 . S
Co229 O235 2.052 . S
Co229 O237 2.135 . S
O230 Co229 2.061 . S
O230 C233 1.235 1_545 S
C231 O234 1.239 1_545 S
C231 O235 1.239 1_655 S
C232 O225 1.247 . S
C232 O226 1.261 . S
C233 O228 1.259 . S
C233 O230 1.235 1_565 S
O234 Co224 2.021 . S
O234 C231 1.239 1_565 S
O235 Co229 2.052 . S
O235 C231 1.239 1_455 S
O236 Co224 2.137 1_545 S
O236 C227 1.247 . S
O237 Co224 2.244 1_445 S
O237 C227 1.272 1_455 S
O237 Co229 2.135 . S
Co238 O239 2.216 1_545 S
Co238 O240 2.091 . S
Co238 O242 2.004 . S
Co238 O248 2.021 1_545 S
Co238 O250 2.137 . S
Co238 O251 2.244 1_545 S
O239 Co238 2.216 1_565 S
O239 C246 1.247 1_565 S
O240 Co238 2.091 . S
O240 C246 1.261 . S
C241 O250 1.247 1_565 S
C241 O251 1.272 . S
O242 Co238 2.004 . S
O242 C247 1.259 . S
Co243 O244 2.061 . S
Co243 O249 2.052 . S
Co243 O251 2.135 . S
O244 Co243 2.061 . S
O244 C247 1.235 1_565 S
C245 O248 1.238 . S
C245 O249 1.241 . S
C246 O239 1.247 1_545 S
C246 O240 1.261 . S
C247 O242 1.259 . S
C247 O244 1.235 1_545 S
O248 Co238 2.021 1_565 S
O248 C245 1.238 . S
O249 Co243 2.052 . S
O249 C245 1.241 . S
O250 Co238 2.137 . S
O250 C241 1.247 1_545 S
O251 Co238 2.244 1_565 S
O251 C241 1.272 . S
O251 Co243 2.135 . S
Co252 O253 2.216 . S
Co252 O254 2.091 1_565 S
Co252 O256 2.004 1_665 S
Co252 O262 2.021 . S
Co252 O264 2.137 . S
Co252 O265 2.244 1_655 S
O253 Co252 2.216 . S
O253 C260 1.247 1_565 S
O254 Co252 2.091 1_545 S
O254 C260 1.261 . S
C255 O264 1.250 . S
C255 O265 1.269 1_655 S
O256 Co252 2.004 1_445 S
O256 C261 1.259 . S
Co257 O258 2.061 . S
Co257 O263 2.052 . S
Co257 O265 2.135 . S
O258 Co257 2.061 . S
O258 C261 1.235 1_565 S
C259 O262 1.238 1_455 S
C259 O263 1.241 . S
C260 O253 1.247 1_545 S
C260 O254 1.261 . S
C261 O256 1.259 . S
C261 O258 1.235 1_545 S
O262 Co252 2.021 . S
O262 C259 1.238 1_655 S
O263 Co257 2.052 . S
O263 C259 1.241 . S
O264 Co252 2.137 . S
O264 C255 1.250 . S
O265 Co252 2.244 1_455 S
O265 C255 1.269 1_455 S
O265 Co257 2.135 . S
Co266 O267 2.216 . S
Co266 O268 2.091 . S
Co266 O270 2.004 . S
Co266 O276 2.021 . S
Co266 O278 2.137 . S
Co266 O279 2.244 . S
O267 Co266 2.216 . S
O267 C274 1.247 . S
O268 Co266 2.091 . S
O268 C274 1.261 . S
C269 O278 1.247 . S
C269 O279 1.272 . S
O270 Co266 2.004 . S
O270 C275 1.259 . S
Co271 O272 2.061 . S
Co271 O277 2.052 . S
Co271 O279 2.135 . S
O272 Co271 2.061 . S
O272 C275 1.235 . S
C273 O276 1.238 . S
C273 O277 1.241 . S
C274 O267 1.247 . S
C274 O268 1.261 . S
C275 O270 1.259 . S
C275 O272 1.235 . S
O276 Co266 2.021 . S
O276 C273 1.238 . S
O277 Co271 2.052 . S
O277 C273 1.241 . S
O278 Co266 2.137 . S
O278 C269 1.247 . S
O279 Co266 2.244 . S
O279 C269 1.272 . S
O279 Co271 2.135 . S
Co280 O281 2.216 . S
Co280 O282 2.091 . S
Co280 O284 2.004 1_455 S
Co280 O290 2.021 . S
Co280 O292 2.137 1_545 S
Co280 O293 2.244 1_445 S
O281 Co280 2.216 . S
O281 C288 1.247 . S
O282 Co280 2.091 . S
O282 C288 1.261 . S
C283 O292 1.247 . S
C283 O293 1.272 1_455 S
O284 Co280 2.004 1_655 S
O284 C289 1.259 . S
Co285 O286 2.061 . S
Co285 O291 2.052 . S
Co285 O293 2.135 . S
O286 Co285 2.061 . S
O286 C289 1.235 1_565 S
C287 O290 1.239 1_565 S
C287 O291 1.239 1_455 S
C288 O281 1.247 . S
C288 O282 1.261 . S
C289 O284 1.259 . S
C289 O286 1.235 1_545 S
O290 Co280 2.021 . S
O290 C287 1.239 1_545 S
O291 Co285 2.052 . S
O291 C287 1.239 1_655 S
O292 Co280 2.137 1_565 S
O292 C283 1.247 . S
O293 Co280 2.244 1_665 S
O293 C283 1.272 1_655 S
O293 Co285 2.135 . S
Co294 O295 2.216 1_565 S
Co294 O296 2.091 . S
Co294 O298 2.004 . S
Co294 O304 2.021 1_565 S
Co294 O306 2.137 . S
Co294 O307 2.244 1_565 S
O295 Co294 2.216 1_545 S
O295 C302 1.247 1_545 S
O296 Co294 2.091 . S
O296 C302 1.261 . S
C297 O306 1.247 1_545 S
C297 O307 1.272 . S
O298 Co294 2.004 . S
O298 C303 1.259 . S
Co299 O300 2.061 . S
Co299 O305 2.052 . S
Co299 O307 2.135 . S
O300 Co299 2.061 . S
O300 C303 1.235 1_545 S
C301 O304 1.238 . S
C301 O305 1.241 . S
C302 O295 1.247 1_565 S
C302 O296 1.261 . S
C303 O298 1.259 . S
C303 O300 1.235 1_565 S
O304 Co294 2.021 1_545 S
O304 C301 1.238 . S
O305 Co299 2.052 . S
O305 C301 1.241 . S
O306 Co294 2.137 . S
O306 C297 1.247 1_565 S
O307 Co294 2.244 1_545 S
O307 C297 1.272 . S
O307 Co299 2.135 . S
Co308 O309 2.216 . S
Co308 O310 2.091 1_545 S
Co308 O312 2.004 1_445 S
Co308 O318 2.021 . S
Co308 O320 2.137 . S
Co308 O321 2.244 1_455 S
O309 Co308 2.216 . S
O309 C316 1.247 1_545 S
O310 Co308 2.091 1_565 S
O310 C316 1.261 . S
C311 O320 1.250 . S
C311 O321 1.269 1_455 S
O312 Co308 2.004 1_665 S
O312 C317 1.259 . S
Co313 O314 2.061 . S
Co313 O319 2.052 . S
Co313 O321 2.135 . S
O314 Co313 2.061 . S
O314 C317 1.235 1_545 S
C315 O318 1.238 1_655 S
C315 O319 1.241 . S
C316 O309 1.247 1_565 S
C316 O310 1.261 . S
C317 O312 1.259 . S
C317 O314 1.235 1_565 S
O318 Co308 2.021 . S
O318 C315 1.238 1_455 S
O319 Co313 2.052 . S
O319 C315 1.241 . S
O320 Co308 2.137 . S
O320 C311 1.250 . S
O321 Co308 2.244 1_655 S
O321 C311 1.269 1_655 S
O321 Co313 2.135 . S
Co322 O323 2.216 . S
Co322 O324 2.091 . S
Co322 O326 2.004 . S
Co322 O332 2.021 . S
Co322 O334 2.137 . S
Co322 O335 2.244 . S
O323 Co322 2.216 . S
O323 C330 1.247 . S
O324 Co322 2.091 . S
O324 C330 1.261 . S
C325 O334 1.247 . S
C325 O335 1.272 . S
O326 Co322 2.004 . S
O326 C331 1.259 . S
Co327 O328 2.061 . S
Co327 O333 2.052 . S
Co327 O335 2.135 . S
O328 Co327 2.061 . S
O328 C331 1.235 . S
C329 O332 1.238 . S
C329 O333 1.241 . S
C330 O323 1.247 . S
C330 O324 1.261 . S
C331 O326 1.259 . S
C331 O328 1.235 . S
O332 Co322 2.021 . S
O332 C329 1.238 . S
O333 Co327 2.052 . S
O333 C329 1.241 . S
O334 Co322 2.137 . S
O334 C325 1.247 . S
O335 Co322 2.244 . S
O335 C325 1.272 . S
O335 Co327 2.135 . S
Co336 O337 2.216 . S
Co336 O338 2.091 1_545 S
Co336 O340 2.004 1_645 S
Co336 O346 2.021 . S
Co336 O348 2.137 . S
Co336 O349 2.244 1_655 S
O337 Co336 2.216 . S
O337 C344 1.247 1_545 S
O338 Co336 2.091 1_565 S
O338 C344 1.261 . S
C339 O348 1.252 . S
C339 O349 1.268 1_655 S
O340 Co336 2.004 1_465 S
O340 C345 1.259 1_565 S
Co341 O342 2.061 . S
Co341 O347 2.052 . S
Co341 O349 2.135 . S
O342 Co341 2.061 . S
O342 C345 1.235 . S
C343 O346 1.238 1_455 S
C343 O347 1.241 . S
C344 O337 1.247 1_565 S
C344 O338 1.261 . S
C345 O340 1.259 1_545 S
C345 O342 1.235 . S
O346 Co336 2.021 . S
O346 C343 1.238 1_655 S
O347 Co341 2.052 . S
O347 C343 1.241 . S
O348 Co336 2.137 . S
O348 C339 1.252 . S
O349 Co336 2.244 1_455 S
O349 C339 1.268 1_455 S
O349 Co341 2.135 . S
Co350 O351 2.216 . S
Co350 O352 2.091 . S
Co350 O354 2.004 . S
Co350 O360 2.021 . S
Co350 O362 2.137 . S
Co350 O363 2.244 . S
O351 Co350 2.216 . S
O351 C358 1.247 . S
O352 Co350 2.091 . S
O352 C358 1.261 . S
C353 O362 1.247 . S
C353 O363 1.272 . S
O354 Co350 2.004 . S
O354 C359 1.259 . S
Co355 O356 2.061 1_565 S
Co355 O361 2.052 . S
Co355 O363 2.135 1_565 S
O356 Co355 2.061 1_545 S
O356 C359 1.235 . S
C357 O360 1.238 . S
C357 O361 1.241 1_545 S
C358 O351 1.247 . S
C358 O352 1.261 . S
C359 O354 1.259 . S
C359 O356 1.235 . S
O360 Co350 2.021 . S
O360 C357 1.238 . S
O361 Co355 2.052 . S
O361 C357 1.241 1_565 S
O362 Co350 2.137 . S
O362 C353 1.247 . S
O363 Co350 2.244 . S
O363 C353 1.272 . S
O363 Co355 2.135 1_545 S
Co364 O365 2.216 . S
Co364 O366 2.091 . S
Co364 O368 2.004 1_655 S
Co364 O374 2.021 1_545 S
Co364 O376 2.137 . S
Co364 O377 2.244 1_645 S
O365 Co364 2.216 . S
O365 C372 1.247 . S
O366 Co364 2.091 . S
O366 C372 1.261 . S
C367 O376 1.261 1_565 S
C367 O377 1.261 1_655 S
O368 Co364 2.004 1_455 S
O368 C373 1.259 . S
Co369 O370 2.061 . S
Co369 O375 2.052 . S
Co369 O377 2.135 . S
O370 Co369 2.061 . S
O370 C373 1.235 1_565 S
C371 O374 1.238 1_455 S
C371 O375 1.241 . S
C372 O365 1.247 . S
C372 O366 1.261 . S
C373 O368 1.259 . S
C373 O370 1.235 1_545 S
O374 Co364 2.021 1_565 S
O374 C371 1.238 1_655 S
O375 Co369 2.052 . S
O375 C371 1.241 . S
O376 Co364 2.137 . S
O376 C367 1.261 1_545 S
O377 Co364 2.244 1_465 S
O377 C367 1.261 1_455 S
O377 Co369 2.135 . S
Co378 O379 2.216 1_565 S
Co378 O380 2.091 . S
Co378 O382 2.004 . S
Co378 O388 2.021 1_565 S
Co378 O390 2.137 . S
Co378 O391 2.244 1_565 S
O379 Co378 2.216 1_545 S
O379 C386 1.247 1_545 S
O380 Co378 2.091 . S
O380 C386 1.261 . S
C381 O390 1.247 1_545 S
C381 O391 1.272 . S
O382 Co378 2.004 . S
O382 C387 1.259 . S
Co383 O384 2.061 . S
Co383 O389 2.052 . S
Co383 O391 2.135 . S
O384 Co383 2.061 . S
O384 C387 1.235 1_545 S
C385 O388 1.238 . S
C385 O389 1.241 . S
C386 O379 1.247 1_565 S
C386 O380 1.261 . S
C387 O382 1.259 . S
C387 O384 1.235 1_565 S
O388 Co378 2.021 1_545 S
O388 C385 1.238 . S
O389 Co383 2.052 . S
O389 C385 1.241 . S
O390 Co378 2.137 . S
O390 C381 1.247 1_565 S
O391 Co378 2.244 1_545 S
O391 C381 1.272 . S
O391 Co383 2.135 . S
Co392 O393 2.216 . S
Co392 O394 2.091 1_565 S
Co392 O396 2.004 1_465 S
Co392 O402 2.021 . S
Co392 O404 2.137 . S
Co392 O405 2.244 1_455 S
O393 Co392 2.216 . S
O393 C400 1.247 1_565 S
O394 Co392 2.091 1_545 S
O394 C400 1.261 . S
C395 O404 1.252 . S
C395 O405 1.268 1_455 S
O396 Co392 2.004 1_645 S
O396 C401 1.259 1_545 S
Co397 O398 2.061 . S
Co397 O403 2.052 . S
Co397 O405 2.135 . S
O398 Co397 2.061 . S
O398 C401 1.235 . S
C399 O402 1.238 1_655 S
C399 O403 1.241 . S
C400 O393 1.247 1_545 S
C400 O394 1.261 . S
C401 O396 1.259 1_565 S
C401 O398 1.235 . S
O402 Co392 2.021 . S
O402 C399 1.238 1_455 S
O403 Co397 2.052 . S
O403 C399 1.241 . S
O404 Co392 2.137 . S
O404 C395 1.252 . S
O405 Co392 2.244 1_655 S
O405 C395 1.268 1_655 S
O405 Co397 2.135 . S
Co406 O407 2.216 . S
Co406 O408 2.091 . S
Co406 O410 2.004 . S
Co406 O416 2.021 . S
Co406 O418 2.137 . S
Co406 O419 2.244 . S
O407 Co406 2.216 . S
O407 C414 1.247 . S
O408 Co406 2.091 . S
O408 C414 1.261 . S
C409 O418 1.247 . S
C409 O419 1.272 . S
O410 Co406 2.004 . S
O410 C415 1.259 . S
Co411 O412 2.061 1_545 S
Co411 O417 2.052 . S
Co411 O419 2.135 1_545 S
O412 Co411 2.061 1_565 S
O412 C415 1.235 . S
C413 O416 1.238 . S
C413 O417 1.241 1_565 S
C414 O407 1.247 . S
C414 O408 1.261 . S
C415 O410 1.259 . S
C415 O412 1.235 . S
O416 Co406 2.021 . S
O416 C413 1.238 . S
O417 Co411 2.052 . S
O417 C413 1.241 1_545 S
O418 Co406 2.137 . S
O418 C409 1.247 . S
O419 Co406 2.244 . S
O419 C409 1.272 . S
O419 Co411 2.135 1_565 S
Co420 O421 2.216 . S
Co420 O422 2.091 . S
Co420 O424 2.004 1_455 S
Co420 O430 2.021 1_565 S
Co420 O432 2.137 . S
Co420 O433 2.244 1_465 S
O421 Co420 2.216 . S
O421 C428 1.247 . S
O422 Co420 2.091 . S
O422 C428 1.261 . S
C423 O432 1.261 1_545 S
C423 O433 1.261 1_455 S
O424 Co420 2.004 1_655 S
O424 C429 1.259 . S
Co425 O426 2.061 . S
Co425 O431 2.052 . S
Co425 O433 2.135 . S
O426 Co425 2.061 . S
O426 C429 1.235 1_545 S
C427 O430 1.238 1_655 S
C427 O431 1.241 . S
C428 O421 1.247 . S
C428 O422 1.261 . S
C429 O424 1.259 . S
C429 O426 1.235 1_565 S
O430 Co420 2.021 1_545 S
O430 C427 1.238 1_455 S
O431 Co425 2.052 . S
O431 C427 1.241 . S
O432 Co420 2.137 . S
O432 C423 1.261 1_565 S
O433 Co420 2.244 1_645 S
O433 C423 1.261 1_655 S
O433 Co425 2.135 . S
Co434 O435 2.216 1_545 S
Co434 O436 2.091 . S
Co434 O438 2.004 . S
Co434 O444 2.021 1_545 S
Co434 O446 2.137 . S
Co434 O447 2.244 1_545 S
O435 Co434 2.216 1_565 S
O435 C442 1.247 1_565 S
O436 Co434 2.091 . S
O436 C442 1.261 . S
C437 O446 1.247 1_565 S
C437 O447 1.272 . S
O438 Co434 2.004 . S
O438 C443 1.259 . S
Co439 O440 2.061 . S
Co439 O445 2.052 . S
Co439 O447 2.135 . S
O440 Co439 2.061 . S
O440 C443 1.235 1_565 S
C441 O444 1.238 . S
C441 O445 1.241 . S
C442 O435 1.247 1_545 S
C442 O436 1.261 . S
C443 O438 1.259 . S
C443 O440 1.235 1_545 S
O444 Co434 2.021 1_565 S
O444 C441 1.238 . S
O445 Co439 2.052 . S
O445 C441 1.241 . S
O446 Co434 2.137 . S
O446 C437 1.247 1_545 S
O447 Co434 2.244 1_565 S
O447 C437 1.272 . S
O447 Co439 2.135 . S
C448 C449 1.349 . S
C448 C450 1.327 . S
C448 H473 0.950 . S
C449 C448 1.349 . S
C449 C465 1.349 . S
C450 C448 1.327 . S
C450 C469 1.429 . S
C450 H474 0.950 . S
C451 C468 1.574 . S
C451 C470 1.368 . S
C451 H475 0.949 . S
H452 C456 0.949 . S
C453 C454 1.349 . S
C453 C455 1.327 . S
C453 H476 0.950 . S
C454 C453 1.349 . S
C454 C466 1.349 . S
C455 C453 1.327 . S
C455 C471 1.429 . S
C455 H477 0.950 . S
C456 H452 0.949 . S
C456 C464 1.574 . S
C456 C472 1.368 . S
H457 C465 0.950 . S
H458 C463 0.950 . S
H459 C464 0.949 . S
H460 C466 0.950 . S
H461 C467 0.950 . S
H462 C468 0.949 . S
C463 H458 0.950 . S
C463 C465 1.327 . S
C463 C469 1.429 . S
C464 C456 1.574 . S
C464 H459 0.949 . S
C464 C470 1.368 . S
C465 C449 1.349 . S
C465 H457 0.950 . S
C465 C463 1.327 . S
C466 C454 1.349 . S
C466 H460 0.950 . S
C466 C467 1.327 . S
C467 H461 0.950 . S
C467 C466 1.327 . S
C467 C471 1.429 . S
C468 C451 1.574 . S
C468 H462 0.949 . S
C468 C472 1.368 . S
C469 C450 1.429 . S
C469 C463 1.429 . S
C469 C470 1.523 . S
C470 C451 1.368 . S
C470 C464 1.368 . S
C470 C469 1.523 . S
C471 C455 1.429 . S
C471 C467 1.429 . S
C471 C472 1.523 . S
C472 C456 1.368 . S
C472 C468 1.368 . S
C472 C471 1.523 . S
H473 C448 0.950 . S
H474 C450 0.950 . S
H475 C451 0.949 . S
H476 C453 0.950 . S
H477 C455 0.950 . S
C478 C479 1.349 . S
C478 C480 1.327 . S
C478 H503 0.950 . S
C479 C478 1.349 . S
C479 C495 1.349 . S
C480 C478 1.327 . S
C480 C499 1.429 . S
C480 H504 0.950 . S
C481 C498 1.574 . S
C481 C500 1.368 . S
C481 H505 0.949 . S
H482 C486 0.949 . S
C483 C484 1.349 . S
C483 C485 1.327 . S
C483 H506 0.950 . S
C484 C483 1.349 . S
C484 C496 1.349 1_565 S
C485 C483 1.327 . S
C485 C501 1.429 1_565 S
C485 H507 0.950 . S
C486 H482 0.949 . S
C486 C494 1.574 . S
C486 C502 1.368 . S
H487 C495 0.950 . S
H488 C493 0.950 . S
H489 C494 0.949 . S
H490 C496 0.950 . S
H491 C497 0.950 . S
H492 C498 0.949 . S
C493 H488 0.950 . S
C493 C495 1.327 . S
C493 C499 1.429 . S
C494 C486 1.574 . S
C494 H489 0.949 . S
C494 C500 1.368 . S
C495 C479 1.349 . S
C495 H487 0.950 . S
C495 C493 1.327 . S
C496 C484 1.349 1_545 S
C496 H490 0.950 . S
C496 C497 1.327 . S
C497 H491 0.950 . S
C497 C496 1.327 . S
C497 C501 1.429 . S
C498 C481 1.574 . S
C498 H492 0.949 . S
C498 C502 1.368 . S
C499 C480 1.429 . S
C499 C493 1.429 . S
C499 C500 1.523 . S
C500 C481 1.368 . S
C500 C494 1.368 . S
C500 C499 1.523 . S
C501 C485 1.429 1_545 S
C501 C497 1.429 . S
C501 C502 1.523 . S
C502 C486 1.368 . S
C502 C498 1.368 . S
C502 C501 1.523 . S
H503 C478 0.950 . S
H504 C480 0.950 . S
H505 C481 0.949 . S
H506 C483 0.950 . S
H507 C485 0.950 . S
C508 C509 1.349 . S
C508 C510 1.327 . S
C508 H533 0.950 . S
C509 C508 1.349 . S
C509 C525 1.349 . S
C510 C508 1.327 . S
C510 C529 1.429 . S
C510 H534 0.950 . S
C511 C528 1.574 . S
C511 C530 1.368 . S
C511 H535 0.949 . S
H512 C516 0.949 . S
C513 C514 1.349 . S
C513 C515 1.327 . S
C513 H536 0.950 . S
C514 C513 1.349 . S
C514 C526 1.349 . S
C515 C513 1.327 . S
C515 C531 1.429 . S
C515 H537 0.950 . S
C516 H512 0.949 . S
C516 C524 1.574 . S
C516 C532 1.368 . S
H517 C525 0.950 . S
H518 C523 0.950 . S
H519 C524 0.949 . S
H520 C526 0.950 . S
H521 C527 0.950 . S
H522 C528 0.949 . S
C523 H518 0.950 . S
C523 C525 1.327 . S
C523 C529 1.429 . S
C524 C516 1.574 . S
C524 H519 0.949 . S
C524 C530 1.368 . S
C525 C509 1.349 . S
C525 H517 0.950 . S
C525 C523 1.327 . S
C526 C514 1.349 . S
C526 H520 0.950 . S
C526 C527 1.327 . S
C527 H521 0.950 . S
C527 C526 1.327 . S
C527 C531 1.429 . S
C528 C511 1.574 . S
C528 H522 0.949 . S
C528 C532 1.368 . S
C529 C510 1.429 . S
C529 C523 1.429 . S
C529 C530 1.523 . S
C530 C511 1.368 . S
C530 C524 1.368 . S
C530 C529 1.523 . S
C531 C515 1.429 . S
C531 C527 1.429 . S
C531 C532 1.523 . S
C532 C516 1.368 . S
C532 C528 1.368 . S
C532 C531 1.523 . S
H533 C508 0.950 . S
H534 C510 0.950 . S
H535 C511 0.949 . S
H536 C513 0.950 . S
H537 C515 0.950 . S
C538 C539 1.349 . S
C538 C540 1.327 . S
C538 H563 0.950 . S
C539 C538 1.349 . S
C539 C555 1.349 . S
C540 C538 1.327 . S
C540 C559 1.429 . S
C540 H564 0.950 . S
C541 C558 1.574 . S
C541 C560 1.368 . S
C541 H565 0.949 . S
H542 C546 0.949 . S
C543 C544 1.349 1_565 S
C543 C545 1.327 . S
C543 H566 0.950 . S
C544 C543 1.349 1_545 S
C544 C556 1.349 . S
C545 C543 1.327 . S
C545 C561 1.429 . S
C545 H567 0.950 . S
C546 H542 0.949 . S
C546 C554 1.574 . S
C546 C562 1.368 . S
H547 C555 0.950 . S
H548 C553 0.950 . S
H549 C554 0.949 . S
H550 C556 0.950 . S
H551 C557 0.950 . S
H552 C558 0.949 . S
C553 H548 0.950 . S
C553 C555 1.327 . S
C553 C559 1.429 . S
C554 C546 1.574 . S
C554 H549 0.949 . S
C554 C560 1.368 . S
C555 C539 1.349 . S
C555 H547 0.950 . S
C555 C553 1.327 . S
C556 C544 1.349 . S
C556 H550 0.950 . S
C556 C557 1.327 . S
C557 H551 0.950 . S
C557 C556 1.327 . S
C557 C561 1.429 1_545 S
C558 C541 1.574 . S
C558 H552 0.949 . S
C558 C562 1.368 . S
C559 C540 1.429 . S
C559 C553 1.429 . S
C559 C560 1.523 . S
C560 C541 1.368 . S
C560 C554 1.368 . S
C560 C559 1.523 . S
C561 C545 1.429 . S
C561 C557 1.429 1_565 S
C561 C562 1.523 . S
C562 C546 1.368 . S
C562 C558 1.368 . S
C562 C561 1.523 . S
H563 C538 0.950 . S
H564 C540 0.950 . S
H565 C541 0.949 . S
H566 C543 0.950 . S
H567 C545 0.950 . S
C568 C569 1.349 . S
C568 C570 1.327 . S
C568 H593 0.950 . S
C569 C568 1.349 . S
C569 C585 1.349 . S
C570 C568 1.327 . S
C570 C589 1.429 . S
C570 H594 0.950 . S
C571 C588 1.574 . S
C571 C590 1.368 . S
C571 H595 0.949 . S
H572 C576 0.949 . S
C573 C574 1.349 . S
C573 C575 1.327 . S
C573 H596 0.950 . S
C574 C573 1.349 . S
C574 C586 1.349 . S
C575 C573 1.327 . S
C575 C591 1.429 . S
C575 H597 0.950 . S
C576 H572 0.949 . S
C576 C584 1.574 . S
C576 C592 1.368 . S
H577 C585 0.950 . S
H578 C583 0.950 . S
H579 C584 0.949 . S
H580 C586 0.950 . S
H581 C587 0.950 . S
H582 C588 0.949 . S
C583 H578 0.950 . S
C583 C585 1.327 . S
C583 C589 1.429 . S
C584 C576 1.574 . S
C584 H579 0.949 . S
C584 C590 1.368 . S
C585 C569 1.349 . S
C585 H577 0.950 . S
C585 C583 1.327 . S
C586 C574 1.349 . S
C586 H580 0.950 . S
C586 C587 1.327 . S
C587 H581 0.950 . S
C587 C586 1.327 . S
C587 C591 1.429 . S
C588 C571 1.574 . S
C588 H582 0.949 . S
C588 C592 1.368 . S
C589 C570 1.429 . S
C589 C583 1.429 . S
C589 C590 1.523 . S
C590 C571 1.368 . S
C590 C584 1.368 . S
C590 C589 1.523 . S
C591 C575 1.429 . S
C591 C587 1.429 . S
C591 C592 1.523 . S
C592 C576 1.368 . S
C592 C588 1.368 . S
C592 C591 1.523 . S
H593 C568 0.950 . S
H594 C570 0.950 . S
H595 C571 0.949 . S
H596 C573 0.950 . S
H597 C575 0.950 . S
C598 C599 1.349 1_565 S
C598 C600 1.327 . S
C598 H623 0.950 . S
C599 C598 1.349 1_545 S
C599 C615 1.349 . S
C600 C598 1.327 . S
C600 C619 1.429 . S
C600 H624 0.950 . S
C601 C618 1.574 . S
C601 C620 1.368 . S
C601 H625 0.949 . S
H602 C606 0.949 . S
C603 C604 1.349 . S
C603 C605 1.327 . S
C603 H626 0.950 . S
C604 C603 1.349 . S
C604 C616 1.349 . S
C605 C603 1.327 . S
C605 C621 1.429 . S
C605 H627 0.950 . S
C606 H602 0.949 . S
C606 C614 1.574 . S
C606 C622 1.368 . S
H607 C615 0.950 . S
H608 C613 0.950 1_545 S
H609 C614 0.949 . S
H610 C616 0.950 . S
H611 C617 0.950 . S
H612 C618 0.949 . S
C613 H608 0.950 1_565 S
C613 C615 1.327 1_565 S
C613 C619 1.429 . S
C614 C606 1.574 . S
C614 H609 0.949 . S
C614 C620 1.368 . S
C615 C599 1.349 . S
C615 H607 0.950 . S
C615 C613 1.327 1_545 S
C616 C604 1.349 . S
C616 H610 0.950 . S
C616 C617 1.327 . S
C617 H611 0.950 . S
C617 C616 1.327 . S
C617 C621 1.429 . S
C618 C601 1.574 . S
C618 H612 0.949 . S
C618 C622 1.368 . S
C619 C600 1.429 . S
C619 C613 1.429 . S
C619 C620 1.523 . S
C620 C601 1.368 . S
C620 C614 1.368 . S
C620 C619 1.523 . S
C621 C605 1.429 . S
C621 C617 1.429 . S
C621 C622 1.523 . S
C622 C606 1.368 . S
C622 C618 1.368 . S
C622 C621 1.523 . S
H623 C598 0.950 . S
H624 C600 0.950 . S
H625 C601 0.949 . S
H626 C603 0.950 . S
H627 C605 0.950 . S
C628 C629 1.349 . S
C628 C630 1.327 . S
C628 H653 0.950 . S
C629 C628 1.349 . S
C629 C645 1.349 . S
C630 C628 1.327 . S
C630 C649 1.429 . S
C630 H654 0.950 . S
C631 C648 1.574 . S
C631 C650 1.368 . S
C631 H655 0.949 . S
H632 C636 0.949 . S
C633 C634 1.349 . S
C633 C635 1.327 . S
C633 H656 0.950 1_545 S
C634 C633 1.349 . S
C634 C646 1.349 . S
C635 C633 1.327 . S
C635 C651 1.429 . S
C635 H657 0.950 . S
C636 H632 0.949 . S
C636 C644 1.574 . S
C636 C652 1.368 . S
H637 C645 0.950 . S
H638 C643 0.950 . S
H639 C644 0.949 . S
H640 C646 0.950 . S
H641 C647 0.950 . S
H642 C648 0.949 . S
C643 H638 0.950 . S
C643 C645 1.327 . S
C643 C649 1.429 . S
C644 C636 1.574 . S
C644 H639 0.949 . S
C644 C650 1.368 . S
C645 C629 1.349 . S
C645 H637 0.950 . S
C645 C643 1.327 . S
C646 C634 1.349 . S
C646 H640 0.950 . S
C646 C647 1.327 . S
C647 H641 0.950 . S
C647 C646 1.327 . S
C647 C651 1.429 . S
C648 C631 1.574 . S
C648 H642 0.949 . S
C648 C652 1.368 . S
C649 C630 1.429 . S
C649 C643 1.429 . S
C649 C650 1.523 . S
C650 C631 1.368 . S
C650 C644 1.368 . S
C650 C649 1.523 . S
C651 C635 1.429 . S
C651 C647 1.429 . S
C651 C652 1.523 . S
C652 C636 1.368 . S
C652 C648 1.368 . S
C652 C651 1.523 . S
H653 C628 0.950 . S
H654 C630 0.950 . S
H655 C631 0.949 . S
H656 C633 0.950 1_565 S
H657 C635 0.950 . S
C658 C659 1.349 . S
C658 C660 1.327 1_565 S
C658 H683 0.950 . S
C659 C658 1.349 . S
C659 C675 1.349 1_565 S
C660 C658 1.327 1_545 S
C660 C679 1.429 . S
C660 H684 0.950 . S
C661 C678 1.574 . S
C661 C680 1.368 . S
C661 H685 0.949 . S
H662 C666 0.949 . S
C663 C664 1.349 . S
C663 C665 1.327 . S
C663 H686 0.950 . S
C664 C663 1.349 . S
C664 C676 1.349 . S
C665 C663 1.327 . S
C665 C681 1.429 . S
C665 H687 0.950 . S
C666 H662 0.949 . S
C666 C674 1.574 . S
C666 C682 1.368 . S
H667 C675 0.950 . S
H668 C673 0.950 . S
H669 C674 0.949 . S
H670 C676 0.950 . S
H671 C677 0.950 . S
H672 C678 0.949 . S
C673 H668 0.950 . S
C673 C675 1.327 . S
C673 C679 1.429 . S
C674 C666 1.574 . S
C674 H669 0.949 . S
C674 C680 1.368 . S
C675 C659 1.349 1_545 S
C675 H667 0.950 . S
C675 C673 1.327 . S
C676 C664 1.349 . S
C676 H670 0.950 . S
C676 C677 1.327 . S
C677 H671 0.950 . S
C677 C676 1.327 . S
C677 C681 1.429 . S
C678 C661 1.574 . S
C678 H672 0.949 . S
C678 C682 1.368 . S
C679 C660 1.429 . S
C679 C673 1.429 . S
C679 C680 1.523 . S
C680 C661 1.368 . S
C680 C674 1.368 . S
C680 C679 1.523 . S
C681 C665 1.429 . S
C681 C677 1.429 . S
C681 C682 1.523 . S
C682 C666 1.368 . S
C682 C678 1.368 . S
C682 C681 1.523 . S
H683 C658 0.950 . S
H684 C660 0.950 . S
H685 C661 0.949 . S
H686 C663 0.950 . S
H687 C665 0.950 . S
C688 C689 1.349 . S
C688 C690 1.327 . S
C688 H713 0.950 . S
C689 C688 1.349 . S
C689 C705 1.349 1_655 S
C690 C688 1.327 . S
C690 C709 1.429 . S
C690 H714 0.950 . S
C691 C708 1.574 . S
C691 C710 1.368 1_455 S
C691 H715 0.949 . S
H692 C696 0.949 . S
C693 C694 1.348 1_455 S
C693 C695 1.327 . S
C693 H716 0.950 . S
C694 C693 1.348 1_655 S
C694 C706 1.349 . S
C695 C693 1.327 . S
C695 C711 1.406 1_455 S
C695 H717 0.950 . S
C696 H692 0.949 . S
C696 C704 1.574 . S
C696 C712 1.368 . S
H697 C705 0.950 . S
H698 C703 0.950 . S
H699 C704 0.949 . S
H700 C706 0.950 . S
H701 C707 0.950 . S
H702 C708 0.949 . S
C703 H698 0.950 . S
C703 C705 1.327 . S
C703 C709 1.429 1_455 S
C704 C696 1.574 . S
C704 H699 0.949 . S
C704 C710 1.368 . S
C705 C689 1.349 1_455 S
C705 H697 0.950 . S
C705 C703 1.327 . S
C706 C694 1.349 . S
C706 H700 0.950 . S
C706 C707 1.327 . S
C707 H701 0.950 . S
C707 C706 1.327 . S
C707 C711 1.451 . S
C708 C691 1.574 . S
C708 H702 0.949 . S
C708 C712 1.368 1_455 S
C709 C690 1.429 . S
C709 C703 1.429 1_655 S
C709 C710 1.523 . S
C710 C691 1.368 1_655 S
C710 C704 1.368 . S
C710 C709 1.523 . S
C711 C695 1.406 1_655 S
C711 C707 1.451 . S
C711 C712 1.524 . S
C712 C696 1.368 . S
C712 C708 1.368 1_655 S
C712 C711 1.524 . S
H713 C688 0.950 . S
H714 C690 0.950 . S
H715 C691 0.949 . S
H716 C693 0.950 . S
H717 C695 0.950 . S
C718 C719 1.349 1_545 S
C718 C720 1.327 . S
C718 H743 0.950 . S
C719 C718 1.349 1_565 S
C719 C735 1.349 . S
C720 C718 1.327 . S
C720 C739 1.429 . S
C720 H744 0.950 . S
C721 C738 1.574 . S
C721 C740 1.368 . S
C721 H745 0.949 . S
H722 C726 0.949 . S
C723 C724 1.349 . S
C723 C725 1.327 . S
C723 H746 0.950 . S
C724 C723 1.349 . S
C724 C736 1.349 . S
C725 C723 1.327 . S
C725 C741 1.429 . S
C725 H747 0.950 . S
C726 H722 0.949 . S
C726 C734 1.574 . S
C726 C742 1.368 . S
H727 C735 0.950 . S
H728 C733 0.950 . S
H729 C734 0.949 . S
H730 C736 0.950 . S
H731 C737 0.950 . S
H732 C738 0.949 . S
C733 H728 0.950 . S
C733 C735 1.327 1_545 S
C733 C739 1.429 . S
C734 C726 1.574 . S
C734 H729 0.949 . S
C734 C740 1.368 . S
C735 C719 1.349 . S
C735 H727 0.950 . S
C735 C733 1.327 1_565 S
C736 C724 1.349 . S
C736 H730 0.950 . S
C736 C737 1.327 . S
C737 H731 0.950 . S
C737 C736 1.327 . S
C737 C741 1.429 . S
C738 C721 1.574 . S
C738 H732 0.949 . S
C738 C742 1.368 . S
C739 C720 1.429 . S
C739 C733 1.429 . S
C739 C740 1.523 . S
C740 C721 1.368 . S
C740 C734 1.368 . S
C740 C739 1.523 . S
C741 C725 1.429 . S
C741 C737 1.429 . S
C741 C742 1.523 . S
C742 C726 1.368 . S
C742 C738 1.368 . S
C742 C741 1.523 . S
H743 C718 0.950 . S
H744 C720 0.950 . S
H745 C721 0.949 . S
H746 C723 0.950 . S
H747 C725 0.950 . S
C748 C749 1.348 1_655 S
C748 C750 1.327 . S
C748 H773 0.950 . S
C749 C748 1.348 1_455 S
C749 C765 1.350 . S
C750 C748 1.327 . S
C750 C769 1.394 1_655 S
C750 H774 0.950 . S
C751 C768 1.574 . S
C751 C770 1.368 . S
C751 H775 0.949 . S
H752 C756 0.949 . S
C753 C754 1.349 . S
C753 C755 1.327 . S
C753 H776 0.950 . S
C754 C753 1.349 . S
C754 C766 1.349 1_455 S
C755 C753 1.327 . S
C755 C771 1.429 . S
C755 H777 0.950 . S
C756 H752 0.949 . S
C756 C764 1.574 . S
C756 C772 1.368 1_655 S
H757 C765 0.950 . S
H758 C763 0.950 . S
H759 C764 0.949 . S
H760 C766 0.950 . S
H761 C767 0.950 . S
H762 C768 0.949 . S
C763 H758 0.950 . S
C763 C765 1.327 . S
C763 C769 1.463 . S
C764 C756 1.574 . S
C764 H759 0.949 . S
C764 C770 1.368 1_655 S
C765 C749 1.350 . S
C765 H757 0.950 . S
C765 C763 1.327 . S
C766 C754 1.349 1_655 S
C766 H760 0.950 . S
C766 C767 1.327 . S
C767 H761 0.950 . S
C767 C766 1.327 . S
C767 C771 1.429 1_655 S
C768 C751 1.574 . S
C768 H762 0.949 . S
C768 C772 1.368 . S
C769 C750 1.394 1_455 S
C769 C763 1.463 . S
C769 C770 1.524 . S
C770 C751 1.368 . S
C770 C764 1.368 1_455 S
C770 C769 1.524 . S
C771 C755 1.429 . S
C771 C767 1.429 1_455 S
C771 C772 1.523 . S
C772 C756 1.368 1_455 S
C772 C768 1.368 . S
C772 C771 1.523 . S
H773 C748 0.950 . S
H774 C750 0.950 . S
H775 C751 0.949 . S
H776 C753 0.950 . S
H777 C755 0.950 . S
C778 C779 1.349 1_565 S
C778 C780 1.327 . S
C778 H803 0.950 . S
C779 C778 1.349 1_545 S
C779 C795 1.349 . S
C780 C778 1.327 . S
C780 C799 1.429 . S
C780 H804 0.950 . S
C781 C798 1.574 . S
C781 C800 1.368 . S
C781 H805 0.949 . S
H782 C786 0.949 . S
C783 C784 1.349 . S
C783 C785 1.327 . S
C783 H806 0.950 . S
C784 C783 1.349 . S
C784 C796 1.349 . S
C785 C783 1.327 . S
C785 C801 1.429 . S
C785 H807 0.950 . S
C786 H782 0.949 . S
C786 C794 1.574 . S
C786 C802 1.368 . S
H787 C795 0.950 . S
H788 C793 0.950 1_545 S
H789 C794 0.949 . S
H790 C796 0.950 . S
H791 C797 0.950 . S
H792 C798 0.949 . S
C793 H788 0.950 1_565 S
C793 C795 1.327 1_565 S
C793 C799 1.429 . S
C794 C786 1.574 . S
C794 H789 0.949 . S
C794 C800 1.368 . S
C795 C779 1.349 . S
C795 H787 0.950 . S
C795 C793 1.327 1_545 S
C796 C784 1.349 . S
C796 H790 0.950 . S
C796 C797 1.327 . S
C797 H791 0.950 . S
C797 C796 1.327 . S
C797 C801 1.429 . S
C798 C781 1.574 . S
C798 H792 0.949 . S
C798 C802 1.368 . S
C799 C780 1.429 . S
C799 C793 1.429 . S
C799 C800 1.523 . S
C800 C781 1.368 . S
C800 C794 1.368 . S
C800 C799 1.523 . S
C801 C785 1.429 . S
C801 C797 1.429 . S
C801 C802 1.523 . S
C802 C786 1.368 . S
C802 C798 1.368 . S
C802 C801 1.523 . S
H803 C778 0.950 . S
H804 C780 0.950 . S
H805 C781 0.949 . S
H806 C783 0.950 . S
H807 C785 0.950 . S
C808 C809 1.345 1_455 S
C808 C810 1.327 . S
C808 H833 0.950 . S
C809 C808 1.345 1_655 S
C809 C825 1.354 . S
C810 C808 1.327 . S
C810 C829 1.426 1_455 S
C810 H834 0.950 . S
C811 C828 1.574 . S
C811 C830 1.371 . S
C811 H835 0.949 . S
H812 C816 0.949 . S
C813 C814 1.349 . S
C813 C815 1.327 . S
C813 H836 0.950 . S
C814 C813 1.349 . S
C814 C826 1.349 1_655 S
C815 C813 1.327 . S
C815 C831 1.429 . S
C815 H837 0.950 . S
C816 H812 0.949 . S
C816 C824 1.574 . S
C816 C832 1.367 1_455 S
H817 C825 0.950 1_545 S
H818 C823 0.950 . S
H819 C824 0.949 . S
H820 C826 0.950 . S
H821 C827 0.950 . S
H822 C828 0.949 . S
C823 H818 0.950 . S
C823 C825 1.327 . S
C823 C829 1.432 . S
C824 C816 1.574 . S
C824 H819 0.949 . S
C824 C830 1.366 1_455 S
C825 C809 1.354 . S
C825 H817 0.950 1_565 S
C825 C823 1.327 . S
C826 C814 1.349 1_455 S
C826 H820 0.950 . S
C826 C827 1.327 . S
C827 H821 0.950 . S
C827 C826 1.327 . S
C827 C831 1.428 1_455 S
C828 C811 1.574 . S
C828 H822 0.949 . S
C828 C832 1.370 . S
C829 C810 1.426 1_655 S
C829 C823 1.432 . S
C829 C830 1.523 . S
C830 C811 1.371 . S
C830 C824 1.366 1_655 S
C830 C829 1.523 . S
C831 C815 1.429 . S
C831 C827 1.428 1_655 S
C831 C832 1.523 . S
C832 C816 1.367 1_655 S
C832 C828 1.370 . S
C832 C831 1.523 . S
H833 C808 0.950 . S
H834 C810 0.950 . S
H835 C811 0.949 . S
H836 C813 0.950 . S
H837 C815 0.950 . S
C838 C839 1.349 . S
C838 C840 1.327 1_545 S
C838 H863 0.950 . S
C839 C838 1.349 . S
C839 C855 1.349 1_545 S
C840 C838 1.327 1_565 S
C840 C859 1.429 . S
C840 H864 0.950 1_565 S
C841 C858 1.574 . S
C841 C860 1.368 . S
C841 H865 0.949 . S
H842 C846 0.949 . S
C843 C844 1.349 . S
C843 C845 1.327 . S
C843 H866 0.950 . S
C844 C843 1.349 . S
C844 C856 1.349 . S
C845 C843 1.327 . S
C845 C861 1.429 . S
C845 H867 0.950 . S
C846 H842 0.949 . S
C846 C854 1.574 . S
C846 C862 1.368 . S
H847 C855 0.950 . S
H848 C853 0.950 . S
H849 C854 0.949 . S
H850 C856 0.950 . S
H851 C857 0.950 . S
H852 C858 0.949 . S
C853 H848 0.950 . S
C853 C855 1.327 . S
C853 C859 1.429 . S
C854 C846 1.574 . S
C854 H849 0.949 . S
C854 C860 1.368 . S
C855 C839 1.349 1_565 S
C855 H847 0.950 . S
C855 C853 1.327 . S
C856 C844 1.349 . S
C856 H850 0.950 . S
C856 C857 1.327 . S
C857 H851 0.950 . S
C857 C856 1.327 . S
C857 C861 1.429 . S
C858 C841 1.574 . S
C858 H852 0.949 . S
C858 C862 1.368 . S
C859 C840 1.429 . S
C859 C853 1.429 . S
C859 C860 1.523 . S
C860 C841 1.368 . S
C860 C854 1.368 . S
C860 C859 1.523 . S
C861 C845 1.429 . S
C861 C857 1.429 . S
C861 C862 1.523 . S
C862 C846 1.368 . S
C862 C858 1.368 . S
C862 C861 1.523 . S
H863 C838 0.950 . S
H864 C840 0.950 1_545 S
H865 C841 0.949 . S
H866 C843 0.950 . S
H867 C845 0.950 . S
C868 C869 1.334 1_655 S
C868 C870 1.327 . S
C868 H893 0.950 . S
C869 C868 1.334 1_455 S
C869 C885 1.365 . S
C870 C868 1.327 . S
C870 C889 1.418 1_655 S
C870 H894 0.950 . S
C871 C888 1.574 . S
C871 C890 1.379 . S
C871 H895 0.949 . S
H872 C876 0.949 . S
C873 C874 1.348 . S
C873 C875 1.327 . S
C873 H896 0.950 . S
C874 C873 1.348 . S
C874 C886 1.349 1_455 S
C875 C873 1.327 . S
C875 C891 1.432 . S
C875 H897 0.950 . S
C876 H872 0.949 . S
C876 C884 1.574 . S
C876 C892 1.362 1_655 S
H877 C885 0.950 . S
H878 C883 0.950 . S
H879 C884 0.949 . S
H880 C886 0.950 . S
H881 C887 0.950 . S
H882 C888 0.949 . S
C883 H878 0.950 . S
C883 C885 1.327 . S
C883 C889 1.440 . S
C884 C876 1.574 . S
C884 H879 0.949 . S
C884 C890 1.358 1_655 S
C885 C869 1.365 . S
C885 H877 0.950 . S
C885 C883 1.327 . S
C886 C874 1.349 1_655 S
C886 H880 0.950 . S
C886 C887 1.327 . S
C887 H881 0.950 . S
C887 C886 1.327 . S
C887 C891 1.425 1_655 S
C888 C871 1.574 . S
C888 H882 0.949 . S
C888 C892 1.375 . S
C889 C870 1.418 1_455 S
C889 C883 1.440 . S
C889 C890 1.523 . S
C890 C871 1.379 . S
C890 C884 1.358 1_455 S
C890 C889 1.523 . S
C891 C875 1.432 . S
C891 C887 1.425 1_455 S
C891 C892 1.523 . S
C892 C876 1.362 1_455 S
C892 C888 1.375 . S
C892 C891 1.523 . S
H893 C868 0.950 . S
H894 C870 0.950 . S
H895 C871 0.949 . S
H896 C873 0.950 . S
H897 C875 0.950 . S
C898 C899 1.349 . S
C898 C900 1.327 . S
C898 H923 0.950 . S
C899 C898 1.349 . S
C899 C915 1.349 . S
C900 C898 1.327 . S
C900 C919 1.429 . S
C900 H924 0.950 . S
C901 C918 1.574 . S
C901 C920 1.368 . S
C901 H925 0.949 . S
H902 C906 0.949 . S
C903 C904 1.349 . S
C903 C905 1.327 1_565 S
C903 H926 0.950 . S
C904 C903 1.349 . S
C904 C916 1.349 1_565 S
C905 C903 1.327 1_545 S
C905 C921 1.429 . S
C905 H927 0.950 1_545 S
C906 H902 0.949 . S
C906 C914 1.574 . S
C906 C922 1.368 . S
H907 C915 0.950 . S
H908 C913 0.950 . S
H909 C914 0.949 . S
H910 C916 0.950 . S
H911 C917 0.950 . S
H912 C918 0.949 . S
C913 H908 0.950 . S
C913 C915 1.327 . S
C913 C919 1.429 . S
C914 C906 1.574 . S
C914 H909 0.949 . S
C914 C920 1.368 . S
C915 C899 1.349 . S
C915 H907 0.950 . S
C915 C913 1.327 . S
C916 C904 1.349 1_545 S
C916 H910 0.950 . S
C916 C917 1.327 . S
C917 H911 0.950 . S
C917 C916 1.327 . S
C917 C921 1.429 . S
C918 C901 1.574 . S
C918 H912 0.949 . S
C918 C922 1.368 . S
C919 C900 1.429 . S
C919 C913 1.429 . S
C919 C920 1.523 . S
C920 C901 1.368 . S
C920 C914 1.368 . S
C920 C919 1.523 . S
C921 C905 1.429 . S
C921 C917 1.429 . S
C921 C922 1.523 . S
C922 C906 1.368 . S
C922 C918 1.368 . S
C922 C921 1.523 . S
H923 C898 0.950 . S
H924 C900 0.950 . S
H925 C901 0.949 . S
H926 C903 0.950 . S
H927 C905 0.950 1_565 S
C928 C929 1.349 . S
C928 C930 1.327 . S
C928 H953 0.950 . S
C929 C928 1.349 . S
C929 C945 1.349 . S
C930 C928 1.327 . S
C930 C949 1.429 . S
C930 H954 0.950 . S
C931 C948 1.574 . S
C931 C950 1.368 . S
C931 H955 0.949 . S
H932 C936 0.949 . S
C933 C934 1.349 . S
C933 C935 1.327 . S
C933 H956 0.950 . S
C934 C933 1.349 . S
C934 C946 1.349 . S
C935 C933 1.327 . S
C935 C951 1.429 . S
C935 H957 0.950 . S
C936 H932 0.949 . S
C936 C944 1.574 . S
C936 C952 1.368 . S
H937 C945 0.950 . S
H938 C943 0.950 . S
H939 C944 0.949 . S
H940 C946 0.950 . S
H941 C947 0.950 . S
H942 C948 0.949 . S
C943 H938 0.950 . S
C943 C945 1.327 . S
C943 C949 1.429 . S
C944 C936 1.574 . S
C944 H939 0.949 . S
C944 C950 1.368 . S
C945 C929 1.349 . S
C945 H937 0.950 . S
C945 C943 1.327 . S
C946 C934 1.349 . S
C946 H940 0.950 . S
C946 C947 1.327 . S
C947 H941 0.950 . S
C947 C946 1.327 . S
C947 C951 1.429 . S
C948 C931 1.574 . S
C948 H942 0.949 . S
C948 C952 1.368 . S
C949 C930 1.429 . S
C949 C943 1.429 . S
C949 C950 1.523 . S
C950 C931 1.368 . S
C950 C944 1.368 . S
C950 C949 1.523 . S
C951 C935 1.429 . S
C951 C947 1.429 . S
C951 C952 1.523 . S
C952 C936 1.368 . S
C952 C948 1.368 . S
C952 C951 1.523 . S
H953 C928 0.950 . S
H954 C930 0.950 . S
H955 C931 0.949 . S
H956 C933 0.950 . S
H957 C935 0.950 . S
C958 C959 1.349 . S
C958 C960 1.327 . S
C958 H983 0.950 . S
C959 C958 1.349 . S
C959 C975 1.349 . S
C960 C958 1.327 . S
C960 C979 1.429 . S
C960 H984 0.950 . S
C961 C978 1.574 . S
C961 C980 1.368 1_565 S
C961 H985 0.949 . S
H962 C966 0.949 . S
C963 C964 1.349 . S
C963 C965 1.327 . S
C963 H986 0.950 . S
C964 C963 1.349 . S
C964 C976 1.349 1_565 S
C965 C963 1.327 . S
C965 C981 1.429 . S
C965 H987 0.950 . S
C966 H962 0.949 . S
C966 C974 1.574 . S
C966 C982 1.368 . S
H967 C975 0.950 . S
H968 C973 0.950 1_565 S
H969 C974 0.949 . S
H970 C976 0.950 . S
H971 C977 0.950 . S
H972 C978 0.949 . S
C973 H968 0.950 1_545 S
C973 C975 1.327 . S
C973 C979 1.429 . S
C974 C966 1.574 . S
C974 H969 0.949 . S
C974 C980 1.368 . S
C975 C959 1.349 . S
C975 H967 0.950 . S
C975 C973 1.327 . S
C976 C964 1.349 1_545 S
C976 H970 0.950 . S
C976 C977 1.327 . S
C977 H971 0.950 . S
C977 C976 1.327 . S
C977 C981 1.429 1_545 S
C978 C961 1.574 . S
C978 H972 0.949 . S
C978 C982 1.368 1_565 S
C979 C960 1.429 . S
C979 C973 1.429 . S
C979 C980 1.523 . S
C980 C961 1.368 1_545 S
C980 C974 1.368 . S
C980 C979 1.523 . S
C981 C965 1.429 . S
C981 C977 1.429 1_565 S
C981 C982 1.523 1_565 S
C982 C966 1.368 . S
C982 C978 1.368 1_545 S
C982 C981 1.523 1_545 S
H983 C958 0.950 . S
H984 C960 0.950 . S
H985 C961 0.949 . S
H986 C963 0.950 . S
H987 C965 0.950 . S
C988 C989 1.349 . S
C988 C990 1.327 1_545 S
C988 H1013 0.950 1_545 S
C989 C988 1.349 . S
C989 C1005 1.349 . S
C990 C988 1.327 1_565 S
C990 C1009 1.429 1_565 S
C990 H1014 0.950 . S
C991 C1008 1.574 . S
C991 C1010 1.368 . S
C991 H1015 0.949 . S
H992 C996 0.949 . S
C993 C994 1.349 . S
C993 C995 1.327 . S
C993 H1016 0.950 . S
C994 C993 1.349 . S
C994 C1006 1.349 . S
C995 C993 1.327 . S
C995 C1011 1.429 . S
C995 H1017 0.950 1_565 S
C996 H992 0.949 . S
C996 C1004 1.574 . S
C996 C1012 1.368 . S
H997 C1005 0.950 . S
H998 C1003 0.950 . S
H999 C1004 0.949 . S
H1000 C1006 0.950 . S
H1001 C1007 0.950 . S
H1002 C1008 0.949 . S
C1003 H998 0.950 . S
C1003 C1005 1.327 . S
C1003 C1009 1.429 . S
C1004 C996 1.574 . S
C1004 H999 0.949 . S
C1004 C1010 1.368 1_565 S
C1005 C989 1.349 . S
C1005 H997 0.950 . S
C1005 C1003 1.327 . S
C1006 C994 1.349 . S
C1006 H1000 0.950 . S
C1006 C1007 1.327 . S
C1007 H1001 0.950 . S
C1007 C1006 1.327 . S
C1007 C1011 1.429 . S
C1008 C991 1.574 . S
C1008 H1002 0.949 . S
C1008 C1012 1.368 1_545 S
C1009 C990 1.429 1_545 S
C1009 C1003 1.429 . S
C1009 C1010 1.523 . S
C1010 C991 1.368 . S
C1010 C1004 1.368 1_545 S
C1010 C1009 1.523 . S
C1011 C995 1.429 . S
C1011 C1007 1.429 . S
C1011 C1012 1.523 . S
C1012 C996 1.368 . S
C1012 C1008 1.368 1_565 S
C1012 C1011 1.523 . S
H1013 C988 0.950 1_565 S
H1014 C990 0.950 . S
H1015 C991 0.949 . S
H1016 C993 0.950 . S
H1017 C995 0.950 1_545 S
C1018 C1019 1.349 . S
C1018 C1020 1.327 . S
C1018 H1043 0.950 . S
C1019 C1018 1.349 . S
C1019 C1035 1.349 . S
C1020 C1018 1.327 . S
C1020 C1039 1.429 . S
C1020 H1044 0.950 . S
C1021 C1038 1.574 . S
C1021 C1040 1.368 . S
C1021 H1045 0.949 . S
H1022 C1026 0.949 . S
C1023 C1024 1.349 . S
C1023 C1025 1.327 . S
C1023 H1046 0.950 . S
C1024 C1023 1.349 . S
C1024 C1036 1.349 . S
C1025 C1023 1.327 . S
C1025 C1041 1.429 . S
C1025 H1047 0.950 . S
C1026 H1022 0.949 . S
C1026 C1034 1.574 . S
C1026 C1042 1.368 . S
H1027 C1035 0.950 . S
H1028 C1033 0.950 . S
H1029 C1034 0.949 . S
H1030 C1036 0.950 . S
H1031 C1037 0.950 . S
H1032 C1038 0.949 . S
C1033 H1028 0.950 . S
C1033 C1035 1.327 . S
C1033 C1039 1.429 . S
C1034 C1026 1.574 . S
C1034 H1029 0.949 . S
C1034 C1040 1.368 . S
C1035 C1019 1.349 . S
C1035 H1027 0.950 . S
C1035 C1033 1.327 . S
C1036 C1024 1.349 . S
C1036 H1030 0.950 . S
C1036 C1037 1.327 . S
C1037 H1031 0.950 . S
C1037 C1036 1.327 . S
C1037 C1041 1.429 . S
C1038 C1021 1.574 . S
C1038 H1032 0.949 . S
C1038 C1042 1.368 . S
C1039 C1020 1.429 . S
C1039 C1033 1.429 . S
C1039 C1040 1.523 . S
C1040 C1021 1.368 . S
C1040 C1034 1.368 . S
C1040 C1039 1.523 . S
C1041 C1025 1.429 . S
C1041 C1037 1.429 . S
C1041 C1042 1.523 . S
C1042 C1026 1.368 . S
C1042 C1038 1.368 . S
C1042 C1041 1.523 . S
H1043 C1018 0.950 . S
H1044 C1020 0.950 . S
H1045 C1021 0.949 . S
H1046 C1023 0.950 . S
H1047 C1025 0.950 . S
C1048 C1049 1.349 . S
C1048 C1050 1.327 . S
C1048 H1073 0.950 . S
C1049 C1048 1.349 . S
C1049 C1065 1.349 . S
C1050 C1048 1.327 . S
C1050 C1069 1.429 . S
C1050 H1074 0.950 . S
C1051 C1068 1.574 . S
C1051 C1070 1.368 . S
C1051 H1075 0.949 . S
H1052 C1056 0.949 . S
C1053 C1054 1.349 . S
C1053 C1055 1.327 . S
C1053 H1076 0.950 . S
C1054 C1053 1.349 . S
C1054 C1066 1.349 . S
C1055 C1053 1.327 . S
C1055 C1071 1.429 . S
C1055 H1077 0.950 . S
C1056 H1052 0.949 . S
C1056 C1064 1.574 . S
C1056 C1072 1.368 . S
H1057 C1065 0.950 . S
H1058 C1063 0.950 . S
H1059 C1064 0.949 . S
H1060 C1066 0.950 . S
H1061 C1067 0.950 . S
H1062 C1068 0.949 . S
C1063 H1058 0.950 . S
C1063 C1065 1.327 . S
C1063 C1069 1.429 . S
C1064 C1056 1.574 . S
C1064 H1059 0.949 . S
C1064 C1070 1.368 . S
C1065 C1049 1.349 . S
C1065 H1057 0.950 . S
C1065 C1063 1.327 . S
C1066 C1054 1.349 . S
C1066 H1060 0.950 . S
C1066 C1067 1.327 . S
C1067 H1061 0.950 . S
C1067 C1066 1.327 . S
C1067 C1071 1.429 . S
C1068 C1051 1.574 . S
C1068 H1062 0.949 . S
C1068 C1072 1.368 . S
C1069 C1050 1.429 . S
C1069 C1063 1.429 . S
C1069 C1070 1.523 . S
C1070 C1051 1.368 . S
C1070 C1064 1.368 . S
C1070 C1069 1.523 . S
C1071 C1055 1.429 . S
C1071 C1067 1.429 . S
C1071 C1072 1.523 . S
C1072 C1056 1.368 . S
C1072 C1068 1.368 . S
C1072 C1071 1.523 . S
H1073 C1048 0.950 . S
H1074 C1050 0.950 . S
H1075 C1051 0.949 . S
H1076 C1053 0.950 . S
H1077 C1055 0.950 . S
C1078 C1079 1.349 . S
C1078 C1080 1.327 . S
C1078 H1103 0.950 . S
C1079 C1078 1.349 . S
C1079 C1095 1.349 . S
C1080 C1078 1.327 . S
C1080 C1099 1.429 . S
C1080 H1104 0.950 1_565 S
C1081 C1098 1.574 . S
C1081 C1100 1.368 . S
C1081 H1105 0.949 . S
H1082 C1086 0.949 . S
C1083 C1084 1.349 1_565 S
C1083 C1085 1.327 . S
C1083 H1106 0.950 . S
C1084 C1083 1.349 1_545 S
C1084 C1096 1.349 . S
C1085 C1083 1.327 . S
C1085 C1101 1.429 1_565 S
C1085 H1107 0.950 . S
C1086 H1082 0.949 . S
C1086 C1094 1.574 . S
C1086 C1102 1.368 1_545 S
H1087 C1095 0.950 . S
H1088 C1093 0.950 . S
H1089 C1094 0.949 . S
H1090 C1096 0.950 . S
H1091 C1097 0.950 . S
H1092 C1098 0.949 . S
C1093 H1088 0.950 . S
C1093 C1095 1.327 . S
C1093 C1099 1.429 . S
C1094 C1086 1.574 . S
C1094 H1089 0.949 . S
C1094 C1100 1.368 1_545 S
C1095 C1079 1.349 . S
C1095 H1087 0.950 . S
C1095 C1093 1.327 . S
C1096 C1084 1.349 . S
C1096 H1090 0.950 . S
C1096 C1097 1.327 . S
C1097 H1091 0.950 . S
C1097 C1096 1.327 . S
C1097 C1101 1.429 . S
C1098 C1081 1.574 . S
C1098 H1092 0.949 . S
C1098 C1102 1.368 . S
C1099 C1080 1.429 . S
C1099 C1093 1.429 . S
C1099 C1100 1.523 . S
C1100 C1081 1.368 . S
C1100 C1094 1.368 1_565 S
C1100 C1099 1.523 . S
C1101 C1085 1.429 1_545 S
C1101 C1097 1.429 . S
C1101 C1102 1.523 1_545 S
C1102 C1086 1.368 1_565 S
C1102 C1098 1.368 . S
C1102 C1101 1.523 1_565 S
H1103 C1078 0.950 . S
H1104 C1080 0.950 1_545 S
H1105 C1081 0.949 . S
H1106 C1083 0.950 . S
H1107 C1085 0.950 . S
C1108 C1109 1.349 . S
C1108 C1110 1.327 1_565 S
C1108 H1133 0.950 1_565 S
C1109 C1108 1.349 . S
C1109 C1125 1.349 . S
C1110 C1108 1.327 1_545 S
C1110 C1129 1.429 1_545 S
C1110 H1134 0.950 . S
C1111 C1128 1.574 . S
C1111 C1130 1.368 . S
C1111 H1135 0.949 . S
H1112 C1116 0.949 . S
C1113 C1114 1.349 . S
C1113 C1115 1.327 . S
C1113 H1136 0.950 . S
C1114 C1113 1.349 . S
C1114 C1126 1.349 . S
C1115 C1113 1.327 . S
C1115 C1131 1.429 . S
C1115 H1137 0.950 1_545 S
C1116 H1112 0.949 . S
C1116 C1124 1.574 . S
C1116 C1132 1.368 . S
H1117 C1125 0.950 . S
H1118 C1123 0.950 . S
H1119 C1124 0.949 . S
H1120 C1126 0.950 . S
H1121 C1127 0.950 . S
H1122 C1128 0.949 . S
C1123 H1118 0.950 . S
C1123 C1125 1.327 . S
C1123 C1129 1.429 . S
C1124 C1116 1.574 . S
C1124 H1119 0.949 . S
C1124 C1130 1.368 1_545 S
C1125 C1109 1.349 . S
C1125 H1117 0.950 . S
C1125 C1123 1.327 . S
C1126 C1114 1.349 . S
C1126 H1120 0.950 . S
C1126 C1127 1.327 . S
C1127 H1121 0.950 . S
C1127 C1126 1.327 . S
C1127 C1131 1.429 . S
C1128 C1111 1.574 . S
C1128 H1122 0.949 . S
C1128 C1132 1.368 1_565 S
C1129 C1110 1.429 1_565 S
C1129 C1123 1.429 . S
C1129 C1130 1.523 . S
C1130 C1111 1.368 . S
C1130 C1124 1.368 1_565 S
C1130 C1129 1.523 . S
C1131 C1115 1.429 . S
C1131 C1127 1.429 . S
C1131 C1132 1.523 . S
C1132 C1116 1.368 . S
C1132 C1128 1.368 1_545 S
C1132 C1131 1.523 . S
H1133 C1108 0.950 1_545 S
H1134 C1110 0.950 . S
H1135 C1111 0.949 . S
H1136 C1113 0.950 . S
H1137 C1115 0.950 1_565 S
C1138 C1139 1.349 . S
C1138 C1140 1.327 . S
C1138 H1163 0.950 . S
C1139 C1138 1.349 . S
C1139 C1155 1.349 . S
C1140 C1138 1.327 . S
C1140 C1159 1.429 . S
C1140 H1164 0.950 . S
C1141 C1158 1.574 . S
C1141 C1160 1.368 . S
C1141 H1165 0.949 . S
H1142 C1146 0.949 . S
C1143 C1144 1.349 . S
C1143 C1145 1.327 . S
C1143 H1166 0.950 . S
C1144 C1143 1.349 . S
C1144 C1156 1.349 . S
C1145 C1143 1.327 . S
C1145 C1161 1.429 . S
C1145 H1167 0.950 . S
C1146 H1142 0.949 . S
C1146 C1154 1.574 . S
C1146 C1162 1.368 . S
H1147 C1155 0.950 . S
H1148 C1153 0.950 . S
H1149 C1154 0.949 . S
H1150 C1156 0.950 . S
H1151 C1157 0.950 . S
H1152 C1158 0.949 . S
C1153 H1148 0.950 . S
C1153 C1155 1.327 . S
C1153 C1159 1.429 . S
C1154 C1146 1.574 . S
C1154 H1149 0.949 . S
C1154 C1160 1.368 . S
C1155 C1139 1.349 . S
C1155 H1147 0.950 . S
C1155 C1153 1.327 . S
C1156 C1144 1.349 . S
C1156 H1150 0.950 . S
C1156 C1157 1.327 . S
C1157 H1151 0.950 . S
C1157 C1156 1.327 . S
C1157 C1161 1.429 . S
C1158 C1141 1.574 . S
C1158 H1152 0.949 . S
C1158 C1162 1.368 . S
C1159 C1140 1.429 . S
C1159 C1153 1.429 . S
C1159 C1160 1.523 . S
C1160 C1141 1.368 . S
C1160 C1154 1.368 . S
C1160 C1159 1.523 . S
C1161 C1145 1.429 . S
C1161 C1157 1.429 . S
C1161 C1162 1.523 . S
C1162 C1146 1.368 . S
C1162 C1158 1.368 . S
C1162 C1161 1.523 . S
H1163 C1138 0.950 . S
H1164 C1140 0.950 . S
H1165 C1141 0.949 . S
H1166 C1143 0.950 . S
H1167 C1145 0.950 . S
C1168 C1169 1.349 . S
C1168 C1170 1.327 1_565 S
C1168 H1193 0.950 1_565 S
C1169 C1168 1.349 . S
C1169 C1185 1.349 . S
C1170 C1168 1.327 1_545 S
C1170 C1189 1.429 1_545 S
C1170 H1194 0.950 . S
C1171 C1188 1.574 . S
C1171 C1190 1.368 1_565 S
C1171 H1195 0.949 . S
H1172 C1176 0.949 . S
C1173 C1174 1.349 . S
C1173 C1175 1.327 . S
C1173 H1196 0.950 . S
C1174 C1173 1.349 . S
C1174 C1186 1.349 . S
C1175 C1173 1.327 . S
C1175 C1191 1.429 . S
C1175 H1197 0.950 1_545 S
C1176 H1172 0.949 . S
C1176 C1184 1.574 . S
C1176 C1192 1.368 . S
H1177 C1185 0.950 . S
H1178 C1183 0.950 . S
H1179 C1184 0.949 . S
H1180 C1186 0.950 . S
H1181 C1187 0.950 . S
H1182 C1188 0.949 . S
C1183 H1178 0.950 . S
C1183 C1185 1.327 . S
C1183 C1189 1.429 . S
C1184 C1176 1.574 . S
C1184 H1179 0.949 . S
C1184 C1190 1.368 . S
C1185 C1169 1.349 . S
C1185 H1177 0.950 . S
C1185 C1183 1.327 . S
C1186 C1174 1.349 . S
C1186 H1180 0.950 . S
C1186 C1187 1.327 . S
C1187 H1181 0.950 . S
C1187 C1186 1.327 . S
C1187 C1191 1.429 . S
C1188 C1171 1.574 . S
C1188 H1182 0.949 . S
C1188 C1192 1.368 1_565 S
C1189 C1170 1.429 1_565 S
C1189 C1183 1.429 . S
C1189 C1190 1.523 1_565 S
C1190 C1171 1.368 1_545 S
C1190 C1184 1.368 . S
C1190 C1189 1.523 1_545 S
C1191 C1175 1.429 . S
C1191 C1187 1.429 . S
C1191 C1192 1.523 . S
C1192 C1176 1.368 . S
C1192 C1188 1.368 1_545 S
C1192 C1191 1.523 . S
H1193 C1168 0.950 1_545 S
H1194 C1170 0.950 . S
H1195 C1171 0.949 . S
H1196 C1173 0.950 . S
H1197 C1175 0.950 1_565 S
C1198 C1199 1.349 . S
C1198 C1200 1.327 . S
C1198 H1223 0.950 . S
C1199 C1198 1.349 . S
C1199 C1215 1.349 . S
C1200 C1198 1.327 . S
C1200 C1219 1.429 . S
C1200 H1224 0.950 . S
C1201 C1218 1.574 . S
C1201 C1220 1.368 . S
C1201 H1225 0.949 . S
H1202 C1206 0.949 . S
C1203 C1204 1.349 . S
C1203 C1205 1.327 . S
C1203 H1226 0.950 . S
C1204 C1203 1.349 . S
C1204 C1216 1.349 . S
C1205 C1203 1.327 . S
C1205 C1221 1.429 . S
C1205 H1227 0.950 . S
C1206 H1202 0.949 . S
C1206 C1214 1.574 . S
C1206 C1222 1.368 . S
H1207 C1215 0.950 . S
H1208 C1213 0.950 . S
H1209 C1214 0.949 . S
H1210 C1216 0.950 . S
H1211 C1217 0.950 . S
H1212 C1218 0.949 . S
C1213 H1208 0.950 . S
C1213 C1215 1.327 . S
C1213 C1219 1.429 . S
C1214 C1206 1.574 . S
C1214 H1209 0.949 . S
C1214 C1220 1.368 . S
C1215 C1199 1.349 . S
C1215 H1207 0.950 . S
C1215 C1213 1.327 . S
C1216 C1204 1.349 . S
C1216 H1210 0.950 . S
C1216 C1217 1.327 . S
C1217 H1211 0.950 . S
C1217 C1216 1.327 . S
C1217 C1221 1.429 . S
C1218 C1201 1.574 . S
C1218 H1212 0.949 . S
C1218 C1222 1.368 . S
C1219 C1200 1.429 . S
C1219 C1213 1.429 . S
C1219 C1220 1.523 . S
C1220 C1201 1.368 . S
C1220 C1214 1.368 . S
C1220 C1219 1.523 . S
C1221 C1205 1.429 . S
C1221 C1217 1.429 . S
C1221 C1222 1.523 . S
C1222 C1206 1.368 . S
C1222 C1218 1.368 . S
C1222 C1221 1.523 . S
H1223 C1198 0.950 . S
H1224 C1200 0.950 . S
H1225 C1201 0.949 . S
H1226 C1203 0.950 . S
H1227 C1205 0.950 . S
C1228 C1229 1.349 . S
C1228 C1230 1.327 . S
C1228 H1253 0.950 . S
C1229 C1228 1.349 . S
C1229 C1245 1.349 . S
C1230 C1228 1.327 . S
C1230 C1249 1.429 . S
C1230 H1254 0.950 . S
C1231 C1248 1.574 . S
C1231 C1250 1.368 . S
C1231 H1255 0.949 . S
H1232 C1236 0.949 . S
C1233 C1234 1.349 . S
C1233 C1235 1.327 . S
C1233 H1256 0.950 . S
C1234 C1233 1.349 . S
C1234 C1246 1.349 . S
C1235 C1233 1.327 . S
C1235 C1251 1.429 . S
C1235 H1257 0.950 . S
C1236 H1232 0.949 . S
C1236 C1244 1.574 . S
C1236 C1252 1.368 . S
H1237 C1245 0.950 . S
H1238 C1243 0.950 . S
H1239 C1244 0.949 . S
H1240 C1246 0.950 . S
H1241 C1247 0.950 . S
H1242 C1248 0.949 . S
C1243 H1238 0.950 . S
C1243 C1245 1.327 . S
C1243 C1249 1.429 . S
C1244 C1236 1.574 . S
C1244 H1239 0.949 . S
C1244 C1250 1.368 . S
C1245 C1229 1.349 . S
C1245 H1237 0.950 . S
C1245 C1243 1.327 . S
C1246 C1234 1.349 . S
C1246 H1240 0.950 . S
C1246 C1247 1.327 . S
C1247 H1241 0.950 . S
C1247 C1246 1.327 . S
C1247 C1251 1.429 . S
C1248 C1231 1.574 . S
C1248 H1242 0.949 . S
C1248 C1252 1.368 . S
C1249 C1230 1.429 . S
C1249 C1243 1.429 . S
C1249 C1250 1.523 . S
C1250 C1231 1.368 . S
C1250 C1244 1.368 . S
C1250 C1249 1.523 . S
C1251 C1235 1.429 . S
C1251 C1247 1.429 . S
C1251 C1252 1.523 . S
C1252 C1236 1.368 . S
C1252 C1248 1.368 . S
C1252 C1251 1.523 . S
H1253 C1228 0.950 . S
H1254 C1230 0.950 . S
H1255 C1231 0.949 . S
H1256 C1233 0.950 . S
H1257 C1235 0.950 . S
C1258 C1259 1.349 . S
C1258 C1260 1.327 . S
C1258 H1283 0.950 . S
C1259 C1258 1.349 . S
C1259 C1275 1.349 . S
C1260 C1258 1.327 . S
C1260 C1279 1.429 . S
C1260 H1284 0.950 . S
C1261 C1278 1.574 . S
C1261 C1280 1.368 1_545 S
C1261 H1285 0.949 . S
H1262 C1266 0.949 . S
C1263 C1264 1.349 . S
C1263 C1265 1.327 . S
C1263 H1286 0.950 . S
C1264 C1263 1.349 . S
C1264 C1276 1.349 . S
C1265 C1263 1.327 . S
C1265 C1281 1.429 . S
C1265 H1287 0.950 . S
C1266 H1262 0.949 . S
C1266 C1274 1.574 . S
C1266 C1282 1.368 1_565 S
H1267 C1275 0.950 . S
H1268 C1273 0.950 1_545 S
H1269 C1274 0.949 . S
H1270 C1276 0.950 1_565 S
H1271 C1277 0.950 . S
H1272 C1278 0.949 . S
C1273 H1268 0.950 1_565 S
C1273 C1275 1.327 . S
C1273 C1279 1.429 . S
C1274 C1266 1.574 . S
C1274 H1269 0.949 . S
C1274 C1280 1.368 . S
C1275 C1259 1.349 . S
C1275 H1267 0.950 . S
C1275 C1273 1.327 . S
C1276 C1264 1.349 . S
C1276 H1270 0.950 1_545 S
C1276 C1277 1.327 1_545 S
C1277 H1271 0.950 . S
C1277 C1276 1.327 1_565 S
C1277 C1281 1.429 1_565 S
C1278 C1261 1.574 . S
C1278 H1272 0.949 . S
C1278 C1282 1.368 . S
C1279 C1260 1.429 . S
C1279 C1273 1.429 . S
C1279 C1280 1.523 . S
C1280 C1261 1.368 1_565 S
C1280 C1274 1.368 . S
C1280 C1279 1.523 . S
C1281 C1265 1.429 . S
C1281 C1277 1.429 1_545 S
C1281 C1282 1.523 . S
C1282 C1266 1.368 1_545 S
C1282 C1278 1.368 . S
C1282 C1281 1.523 . S
H1283 C1258 0.950 . S
H1284 C1260 0.950 . S
H1285 C1261 0.949 . S
H1286 C1263 0.950 . S
H1287 C1265 0.950 . S
C1288 C1289 1.349 1_565 S
C1288 C1290 1.327 . S
C1288 H1313 0.950 . S
C1289 C1288 1.349 1_545 S
C1289 C1305 1.349 . S
C1290 C1288 1.327 . S
C1290 C1309 1.429 1_565 S
C1290 H1314 0.950 . S
C1291 C1308 1.574 . S
C1291 C1310 1.368 1_545 S
C1291 H1315 0.949 . S
H1292 C1296 0.949 . S
C1293 C1294 1.349 . S
C1293 C1295 1.327 . S
C1293 H1316 0.950 1_565 S
C1294 C1293 1.349 . S
C1294 C1306 1.349 . S
C1295 C1293 1.327 . S
C1295 C1311 1.429 . S
C1295 H1317 0.950 1_565 S
C1296 H1292 0.949 . S
C1296 C1304 1.574 . S
C1296 C1312 1.368 . S
H1297 C1305 0.950 . S
H1298 C1303 0.950 . S
H1299 C1304 0.949 . S
H1300 C1306 0.950 . S
H1301 C1307 0.950 . S
H1302 C1308 0.949 . S
C1303 H1298 0.950 . S
C1303 C1305 1.327 . S
C1303 C1309 1.429 . S
C1304 C1296 1.574 . S
C1304 H1299 0.949 . S
C1304 C1310 1.368 . S
C1305 C1289 1.349 . S
C1305 H1297 0.950 . S
C1305 C1303 1.327 . S
C1306 C1294 1.349 . S
C1306 H1300 0.950 . S
C1306 C1307 1.327 . S
C1307 H1301 0.950 . S
C1307 C1306 1.327 . S
C1307 C1311 1.429 . S
C1308 C1291 1.574 . S
C1308 H1302 0.949 . S
C1308 C1312 1.368 1_545 S
C1309 C1290 1.429 1_545 S
C1309 C1303 1.429 . S
C1309 C1310 1.523 1_545 S
C1310 C1291 1.368 1_565 S
C1310 C1304 1.368 . S
C1310 C1309 1.523 1_565 S
C1311 C1295 1.429 . S
C1311 C1307 1.429 . S
C1311 C1312 1.523 . S
C1312 C1296 1.368 . S
C1312 C1308 1.368 1_565 S
C1312 C1311 1.523 . S
H1313 C1288 0.950 . S
H1314 C1290 0.950 . S
H1315 C1291 0.949 . S
H1316 C1293 0.950 1_545 S
H1317 C1295 0.950 1_545 S
C1318 C1319 1.349 . S
C1318 C1320 1.327 . S
C1318 H1343 0.950 . S
C1319 C1318 1.349 . S
C1319 C1335 1.349 . S
C1320 C1318 1.327 . S
C1320 C1339 1.429 . S
C1320 H1344 0.950 . S
C1321 C1338 1.574 . S
C1321 C1340 1.368 . S
C1321 H1345 0.949 . S
H1322 C1326 0.949 . S
C1323 C1324 1.349 . S
C1323 C1325 1.327 . S
C1323 H1346 0.950 . S
C1324 C1323 1.349 . S
C1324 C1336 1.349 . S
C1325 C1323 1.327 . S
C1325 C1341 1.429 . S
C1325 H1347 0.950 . S
C1326 H1322 0.949 . S
C1326 C1334 1.574 . S
C1326 C1342 1.368 . S
H1327 C1335 0.950 . S
H1328 C1333 0.950 . S
H1329 C1334 0.949 . S
H1330 C1336 0.950 . S
H1331 C1337 0.950 . S
H1332 C1338 0.949 . S
C1333 H1328 0.950 . S
C1333 C1335 1.327 . S
C1333 C1339 1.429 . S
C1334 C1326 1.574 . S
C1334 H1329 0.949 . S
C1334 C1340 1.368 . S
C1335 C1319 1.349 . S
C1335 H1327 0.950 . S
C1335 C1333 1.327 . S
C1336 C1324 1.349 . S
C1336 H1330 0.950 . S
C1336 C1337 1.327 . S
C1337 H1331 0.950 . S
C1337 C1336 1.327 . S
C1337 C1341 1.429 . S
C1338 C1321 1.574 . S
C1338 H1332 0.949 . S
C1338 C1342 1.368 . S
C1339 C1320 1.429 . S
C1339 C1333 1.429 . S
C1339 C1340 1.523 . S
C1340 C1321 1.368 . S
C1340 C1334 1.368 . S
C1340 C1339 1.523 . S
C1341 C1325 1.429 . S
C1341 C1337 1.429 . S
C1341 C1342 1.523 . S
C1342 C1326 1.368 . S
C1342 C1338 1.368 . S
C1342 C1341 1.523 . S
H1343 C1318 0.950 . S
H1344 C1320 0.950 . S
H1345 C1321 0.949 . S
H1346 C1323 0.950 . S
H1347 C1325 0.950 . S
C1348 C1349 1.349 . S
C1348 C1350 1.327 . S
C1348 H1373 0.950 . S
C1349 C1348 1.349 . S
C1349 C1365 1.349 . S
C1350 C1348 1.327 . S
C1350 C1369 1.429 . S
C1350 H1374 0.950 . S
C1351 C1368 1.574 . S
C1351 C1370 1.368 . S
C1351 H1375 0.949 . S
H1352 C1356 0.949 . S
C1353 C1354 1.349 . S
C1353 C1355 1.327 . S
C1353 H1376 0.950 . S
C1354 C1353 1.349 . S
C1354 C1366 1.349 . S
C1355 C1353 1.327 . S
C1355 C1371 1.429 . S
C1355 H1377 0.950 . S
C1356 H1352 0.949 . S
C1356 C1364 1.574 . S
C1356 C1372 1.368 . S
H1357 C1365 0.950 . S
H1358 C1363 0.950 . S
H1359 C1364 0.949 . S
H1360 C1366 0.950 . S
H1361 C1367 0.950 . S
H1362 C1368 0.949 . S
C1363 H1358 0.950 . S
C1363 C1365 1.327 . S
C1363 C1369 1.429 . S
C1364 C1356 1.574 . S
C1364 H1359 0.949 . S
C1364 C1370 1.368 . S
C1365 C1349 1.349 . S
C1365 H1357 0.950 . S
C1365 C1363 1.327 . S
C1366 C1354 1.349 . S
C1366 H1360 0.950 . S
C1366 C1367 1.327 . S
C1367 H1361 0.950 . S
C1367 C1366 1.327 . S
C1367 C1371 1.429 . S
C1368 C1351 1.574 . S
C1368 H1362 0.949 . S
C1368 C1372 1.368 . S
C1369 C1350 1.429 . S
C1369 C1363 1.429 . S
C1369 C1370 1.523 . S
C1370 C1351 1.368 . S
C1370 C1364 1.368 . S
C1370 C1369 1.523 . S
C1371 C1355 1.429 . S
C1371 C1367 1.429 . S
C1371 C1372 1.523 . S
C1372 C1356 1.368 . S
C1372 C1368 1.368 . S
C1372 C1371 1.523 . S
H1373 C1348 0.950 . S
H1374 C1350 0.950 . S
H1375 C1351 0.949 . S
H1376 C1353 0.950 . S
H1377 C1355 0.950 . S
C1378 C1379 1.349 . S
C1378 C1380 1.327 . S
C1378 H1403 0.950 . S
C1379 C1378 1.349 . S
C1379 C1395 1.349 . S
C1380 C1378 1.327 . S
C1380 C1399 1.429 . S
C1380 H1404 0.950 1_545 S
C1381 C1398 1.574 . S
C1381 C1400 1.368 . S
C1381 H1405 0.949 . S
H1382 C1386 0.949 . S
C1383 C1384 1.349 . S
C1383 C1385 1.327 1_565 S
C1383 H1406 0.950 1_565 S
C1384 C1383 1.349 . S
C1384 C1396 1.349 . S
C1385 C1383 1.327 1_545 S
C1385 C1401 1.429 1_545 S
C1385 H1407 0.950 . S
C1386 H1382 0.949 . S
C1386 C1394 1.574 . S
C1386 C1402 1.368 . S
H1387 C1395 0.950 . S
H1388 C1393 0.950 . S
H1389 C1394 0.949 . S
H1390 C1396 0.950 . S
H1391 C1397 0.950 . S
H1392 C1398 0.949 . S
C1393 H1388 0.950 . S
C1393 C1395 1.327 . S
C1393 C1399 1.429 . S
C1394 C1386 1.574 . S
C1394 H1389 0.949 . S
C1394 C1400 1.368 1_565 S
C1395 C1379 1.349 . S
C1395 H1387 0.950 . S
C1395 C1393 1.327 . S
C1396 C1384 1.349 . S
C1396 H1390 0.950 . S
C1396 C1397 1.327 . S
C1397 H1391 0.950 . S
C1397 C1396 1.327 . S
C1397 C1401 1.429 . S
C1398 C1381 1.574 . S
C1398 H1392 0.949 . S
C1398 C1402 1.368 1_545 S
C1399 C1380 1.429 . S
C1399 C1393 1.429 . S
C1399 C1400 1.523 . S
C1400 C1381 1.368 . S
C1400 C1394 1.368 1_545 S
C1400 C1399 1.523 . S
C1401 C1385 1.429 1_565 S
C1401 C1397 1.429 . S
C1401 C1402 1.523 . S
C1402 C1386 1.368 . S
C1402 C1398 1.368 1_565 S
C1402 C1401 1.523 . S
H1403 C1378 0.950 . S
H1404 C1380 0.950 1_565 S
H1405 C1381 0.949 . S
H1406 C1383 0.950 1_545 S
H1407 C1385 0.950 . S
C1408 C1409 1.349 . S
C1408 C1410 1.327 . S
C1408 H1433 0.950 . S
C1409 C1408 1.349 . S
C1409 C1425 1.349 1_545 S
C1410 C1408 1.327 . S
C1410 C1429 1.429 . S
C1410 H1434 0.950 . S
C1411 C1428 1.574 1_554 S
C1411 C1430 1.368 1_565 S
C1411 H1435 0.949 . S
H1412 C1416 0.949 . S
C1413 C1414 1.349 . S
C1413 C1415 1.327 . S
C1413 H1436 0.950 . S
C1414 C1413 1.349 . S
C1414 C1426 1.349 1_565 S
C1415 C1413 1.327 . S
C1415 C1431 1.429 . S
C1415 H1437 0.950 . S
C1416 H1412 0.949 . S
C1416 C1424 1.574 1_556 S
C1416 C1432 1.368 1_545 S
H1417 C1425 0.950 . S
H1418 C1423 0.950 . S
H1419 C1424 0.949 . S
H1420 C1426 0.950 . S
H1421 C1427 0.950 . S
H1422 C1428 0.949 . S
C1423 H1418 0.950 . S
C1423 C1425 1.327 . S
C1423 C1429 1.429 1_565 S
C1424 C1416 1.574 1_554 S
C1424 H1419 0.949 . S
C1424 C1430 1.368 . S
C1425 C1409 1.349 1_565 S
C1425 H1417 0.950 . S
C1425 C1423 1.327 . S
C1426 C1414 1.349 1_545 S
C1426 H1420 0.950 . S
C1426 C1427 1.327 . S
C1427 H1421 0.950 . S
C1427 C1426 1.327 . S
C1427 C1431 1.429 1_545 S
C1428 C1411 1.574 1_556 S
C1428 H1422 0.949 . S
C1428 C1432 1.368 . S
C1429 C1410 1.429 . S
C1429 C1423 1.429 1_545 S
C1429 C1430 1.523 . S
C1430 C1411 1.368 1_545 S
C1430 C1424 1.368 . S
C1430 C1429 1.523 . S
C1431 C1415 1.429 . S
C1431 C1427 1.429 1_565 S
C1431 C1432 1.523 . S
C1432 C1416 1.368 1_565 S
C1432 C1428 1.368 . S
C1432 C1431 1.523 . S
H1433 C1408 0.950 . S
H1434 C1410 0.950 . S
H1435 C1411 0.949 . S
H1436 C1413 0.950 . S
H1437 C1415 0.950 . S
C1438 C1439 1.349 1_545 S
C1438 C1440 1.327 . S
C1438 H1463 0.950 . S
C1439 C1438 1.349 1_565 S
C1439 C1455 1.349 . S
C1440 C1438 1.327 . S
C1440 C1459 1.429 . S
C1440 H1464 0.950 . S
C1441 C1458 1.574 . S
C1441 C1460 1.368 1_556 S
C1441 H1465 0.949 . S
H1442 C1446 0.952 . S
C1443 C1444 1.349 . S
C1443 C1445 1.327 . S
C1443 H1466 0.950 . S
C1444 C1443 1.349 . S
C1444 C1456 1.349 . S
C1445 C1443 1.327 . S
C1445 C1461 1.429 . S
C1445 H1467 0.950 . S
C1446 H1442 0.952 . S
C1446 C1454 1.649 . S
C1446 C1462 1.299 1_554 S
H1447 C1455 0.950 . S
H1448 C1453 0.950 . S
H1449 C1454 0.949 . S
H1450 C1456 0.950 . S
H1451 C1457 0.950 . S
H1452 C1458 0.949 . S
C1453 H1448 0.950 . S
C1453 C1455 1.327 1_545 S
C1453 C1459 1.429 . S
C1454 C1446 1.649 . S
C1454 H1449 0.949 . S
C1454 C1460 1.368 . S
C1455 C1439 1.349 . S
C1455 H1447 0.950 . S
C1455 C1453 1.327 1_565 S
C1456 C1444 1.349 . S
C1456 H1450 0.950 . S
C1456 C1457 1.327 . S
C1457 H1451 0.950 . S
C1457 C1456 1.327 . S
C1457 C1461 1.429 . S
C1458 C1441 1.574 . S
C1458 H1452 0.949 . S
C1458 C1462 1.368 . S
C1459 C1440 1.429 . S
C1459 C1453 1.429 . S
C1459 C1460 1.523 . S
C1460 C1441 1.368 1_554 S
C1460 C1454 1.368 . S
C1460 C1459 1.523 . S
C1461 C1445 1.429 . S
C1461 C1457 1.429 . S
C1461 C1462 1.523 . S
C1462 C1446 1.299 1_556 S
C1462 C1458 1.368 . S
C1462 C1461 1.523 . S
H1463 C1438 0.950 . S
H1464 C1440 0.950 . S
H1465 C1441 0.949 . S
H1466 C1443 0.950 . S
H1467 C1445 0.950 . S
C1468 C1469 1.349 . S
C1468 C1470 1.327 . S
C1468 H1493 0.950 . S
C1469 C1468 1.349 . S
C1469 C1485 1.349 . S
C1470 C1468 1.327 . S
C1470 C1489 1.429 . S
C1470 H1494 0.950 . S
C1471 C1488 1.574 . S
C1471 C1490 1.368 . S
C1471 H1495 0.949 . S
H1472 C1476 0.949 . S
C1473 C1474 1.349 . S
C1473 C1475 1.327 . S
C1473 H1496 0.950 . S
C1474 C1473 1.349 . S
C1474 C1486 1.349 . S
C1475 C1473 1.327 . S
C1475 C1491 1.429 . S
C1475 H1497 0.950 . S
C1476 H1472 0.949 . S
C1476 C1484 1.574 . S
C1476 C1492 1.368 . S
H1477 C1485 0.950 . S
H1478 C1483 0.950 . S
H1479 C1484 0.949 . S
H1480 C1486 0.950 . S
H1481 C1487 0.950 . S
H1482 C1488 0.949 . S
C1483 H1478 0.950 . S
C1483 C1485 1.327 . S
C1483 C1489 1.429 . S
C1484 C1476 1.574 . S
C1484 H1479 0.949 . S
C1484 C1490 1.368 . S
C1485 C1469 1.349 . S
C1485 H1477 0.950 . S
C1485 C1483 1.327 . S
C1486 C1474 1.349 . S
C1486 H1480 0.950 . S
C1486 C1487 1.327 . S
C1487 H1481 0.950 . S
C1487 C1486 1.327 . S
C1487 C1491 1.429 . S
C1488 C1471 1.574 . S
C1488 H1482 0.949 . S
C1488 C1492 1.368 . S
C1489 C1470 1.429 . S
C1489 C1483 1.429 . S
C1489 C1490 1.523 . S
C1490 C1471 1.368 . S
C1490 C1484 1.368 . S
C1490 C1489 1.523 . S
C1491 C1475 1.429 . S
C1491 C1487 1.429 . S
C1491 C1492 1.523 . S
C1492 C1476 1.368 . S
C1492 C1488 1.368 . S
C1492 C1491 1.523 . S
H1493 C1468 0.950 . S
H1494 C1470 0.950 . S
H1495 C1471 0.949 . S
H1496 C1473 0.950 . S
H1497 C1475 0.950 . S
C1498 C1499 1.349 . S
C1498 C1500 1.327 . S
C1498 H1523 0.950 . S
C1499 C1498 1.349 . S
C1499 C1515 1.349 . S
C1500 C1498 1.327 . S
C1500 C1519 1.429 . S
C1500 H1524 0.950 . S
C1501 C1518 1.574 1_545 S
C1501 C1520 1.368 . S
C1501 H1525 0.949 . S
H1502 C1506 0.949 . S
C1503 C1504 1.349 . S
C1503 C1505 1.327 . S
C1503 H1526 0.950 . S
C1504 C1503 1.349 . S
C1504 C1516 1.349 . S
C1505 C1503 1.327 . S
C1505 C1521 1.429 . S
C1505 H1527 0.950 . S
C1506 H1502 0.949 . S
C1506 C1514 1.574 . S
C1506 C1522 1.368 . S
H1507 C1515 0.950 . S
H1508 C1513 0.950 . S
H1509 C1514 0.949 . S
H1510 C1516 0.950 . S
H1511 C1517 0.950 . S
H1512 C1518 0.949 1_545 S
C1513 H1508 0.950 . S
C1513 C1515 1.327 . S
C1513 C1519 1.429 . S
C1514 C1506 1.574 . S
C1514 H1509 0.949 . S
C1514 C1520 1.368 1_565 S
C1515 C1499 1.349 . S
C1515 H1507 0.950 . S
C1515 C1513 1.327 . S
C1516 C1504 1.349 . S
C1516 H1510 0.950 . S
C1516 C1517 1.327 . S
C1517 H1511 0.950 . S
C1517 C1516 1.327 . S
C1517 C1521 1.429 . S
C1518 C1501 1.574 1_565 S
C1518 H1512 0.949 1_565 S
C1518 C1522 1.368 . S
C1519 C1500 1.429 . S
C1519 C1513 1.429 . S
C1519 C1520 1.523 . S
C1520 C1501 1.368 . S
C1520 C1514 1.368 1_545 S
C1520 C1519 1.523 . S
C1521 C1505 1.429 . S
C1521 C1517 1.429 . S
C1521 C1522 1.523 . S
C1522 C1506 1.368 . S
C1522 C1518 1.368 . S
C1522 C1521 1.523 . S
H1523 C1498 0.950 . S
H1524 C1500 0.950 . S
H1525 C1501 0.949 . S
H1526 C1503 0.950 . S
H1527 C1505 0.950 . S
C1528 C1529 1.349 1_565 S
C1528 C1530 1.327 . S
C1528 H1553 0.950 1_565 S
C1529 C1528 1.349 1_545 S
C1529 C1545 1.349 1_545 S
C1530 C1528 1.327 . S
C1530 C1549 1.429 . S
C1530 H1554 0.950 . S
C1531 C1548 1.574 1_556 S
C1531 C1550 1.368 . S
C1531 H1555 0.949 . S
H1532 C1536 0.949 . S
C1533 C1534 1.349 . S
C1533 C1535 1.327 . S
C1533 H1556 0.950 . S
C1534 C1533 1.349 . S
C1534 C1546 1.349 . S
C1535 C1533 1.327 . S
C1535 C1551 1.429 . S
C1535 H1557 0.950 . S
C1536 H1532 0.949 . S
C1536 C1544 1.574 1_554 S
C1536 C1552 1.368 . S
H1537 C1545 0.950 . S
H1538 C1543 0.950 . S
H1539 C1544 0.949 . S
H1540 C1546 0.950 . S
H1541 C1547 0.950 . S
H1542 C1548 0.949 . S
C1543 H1538 0.950 . S
C1543 C1545 1.327 . S
C1543 C1549 1.429 . S
C1544 C1536 1.574 1_556 S
C1544 H1539 0.949 . S
C1544 C1550 1.368 . S
C1545 C1529 1.349 1_565 S
C1545 H1537 0.950 . S
C1545 C1543 1.327 . S
C1546 C1534 1.349 . S
C1546 H1540 0.950 . S
C1546 C1547 1.327 . S
C1547 H1541 0.950 . S
C1547 C1546 1.327 . S
C1547 C1551 1.429 . S
C1548 C1531 1.574 1_554 S
C1548 H1542 0.949 . S
C1548 C1552 1.368 . S
C1549 C1530 1.429 . S
C1549 C1543 1.429 . S
C1549 C1550 1.523 . S
C1550 C1531 1.368 . S
C1550 C1544 1.368 . S
C1550 C1549 1.523 . S
C1551 C1535 1.429 . S
C1551 C1547 1.429 . S
C1551 C1552 1.523 . S
C1552 C1536 1.368 . S
C1552 C1548 1.368 . S
C1552 C1551 1.523 . S
H1553 C1528 0.950 1_545 S
H1554 C1530 0.950 . S
H1555 C1531 0.949 . S
H1556 C1533 0.950 . S
H1557 C1535 0.950 . S
C1558 C1559 1.349 . S
C1558 C1560 1.327 . S
C1558 H1583 0.950 . S
C1559 C1558 1.349 . S
C1559 C1575 1.349 . S
C1560 C1558 1.327 . S
C1560 C1579 1.429 . S
C1560 H1584 0.950 . S
C1561 C1578 1.574 . S
C1561 C1580 1.368 . S
C1561 H1585 0.949 . S
H1562 C1566 0.949 . S
C1563 C1564 1.349 . S
C1563 C1565 1.327 . S
C1563 H1586 0.950 . S
C1564 C1563 1.349 . S
C1564 C1576 1.349 . S
C1565 C1563 1.327 . S
C1565 C1581 1.429 . S
C1565 H1587 0.950 . S
C1566 H1562 0.949 . S
C1566 C1574 1.574 . S
C1566 C1582 1.368 . S
H1567 C1575 0.950 . S
H1568 C1573 0.950 . S
H1569 C1574 0.949 . S
H1570 C1576 0.950 . S
H1571 C1577 0.950 . S
H1572 C1578 0.949 . S
C1573 H1568 0.950 . S
C1573 C1575 1.327 . S
C1573 C1579 1.429 . S
C1574 C1566 1.574 . S
C1574 H1569 0.949 . S
C1574 C1580 1.368 . S
C1575 C1559 1.349 . S
C1575 H1567 0.950 . S
C1575 C1573 1.327 . S
C1576 C1564 1.349 . S
C1576 H1570 0.950 . S
C1576 C1577 1.327 . S
C1577 H1571 0.950 . S
C1577 C1576 1.327 . S
C1577 C1581 1.429 . S
C1578 C1561 1.574 . S
C1578 H1572 0.949 . S
C1578 C1582 1.368 . S
C1579 C1560 1.429 . S
C1579 C1573 1.429 . S
C1579 C1580 1.523 . S
C1580 C1561 1.368 . S
C1580 C1574 1.368 . S
C1580 C1579 1.523 . S
C1581 C1565 1.429 . S
C1581 C1577 1.429 . S
C1581 C1582 1.523 . S
C1582 C1566 1.368 . S
C1582 C1578 1.368 . S
C1582 C1581 1.523 . S
H1583 C1558 0.950 . S
H1584 C1560 0.950 . S
H1585 C1561 0.949 . S
H1586 C1563 0.950 . S
H1587 C1565 0.950 . S
C1588 C1589 1.349 . S
C1588 C1590 1.327 . S
C1588 H1613 0.950 . S
C1589 C1588 1.349 . S
C1589 C1605 1.349 . S
C1590 C1588 1.327 . S
C1590 C1609 1.429 . S
C1590 H1614 0.950 . S
C1591 C1608 1.574 1_545 S
C1591 C1610 1.368 . S
C1591 H1615 0.949 . S
H1592 C1596 0.949 . S
C1593 C1594 1.349 . S
C1593 C1595 1.327 . S
C1593 H1616 0.950 . S
C1594 C1593 1.349 . S
C1594 C1606 1.349 . S
C1595 C1593 1.327 . S
C1595 C1611 1.429 . S
C1595 H1617 0.950 . S
C1596 H1592 0.949 . S
C1596 C1604 1.574 1_565 S
C1596 C1612 1.368 . S
H1597 C1605 0.950 . S
H1598 C1603 0.950 . S
H1599 C1604 0.949 . S
H1600 C1606 0.950 . S
H1601 C1607 0.950 . S
H1602 C1608 0.949 . S
C1603 H1598 0.950 . S
C1603 C1605 1.327 . S
C1603 C1609 1.429 . S
C1604 C1596 1.574 1_545 S
C1604 H1599 0.949 . S
C1604 C1610 1.368 . S
C1605 C1589 1.349 . S
C1605 H1597 0.950 . S
C1605 C1603 1.327 . S
C1606 C1594 1.349 . S
C1606 H1600 0.950 . S
C1606 C1607 1.327 . S
C1607 H1601 0.950 . S
C1607 C1606 1.327 . S
C1607 C1611 1.429 . S
C1608 C1591 1.574 1_565 S
C1608 H1602 0.949 . S
C1608 C1612 1.368 . S
C1609 C1590 1.429 . S
C1609 C1603 1.429 . S
C1609 C1610 1.523 . S
C1610 C1591 1.368 . S
C1610 C1604 1.368 . S
C1610 C1609 1.523 . S
C1611 C1595 1.429 . S
C1611 C1607 1.429 . S
C1611 C1612 1.523 . S
C1612 C1596 1.368 . S
C1612 C1608 1.368 . S
C1612 C1611 1.523 . S
H1613 C1588 0.950 . S
H1614 C1590 0.950 . S
H1615 C1591 0.949 . S
H1616 C1593 0.950 . S
H1617 C1595 0.950 . S
C1618 C1619 1.349 . S
C1618 C1620 1.327 . S
C1618 H1643 0.950 . S
C1619 C1618 1.349 . S
C1619 C1635 1.349 . S
C1620 C1618 1.327 . S
C1620 C1639 1.429 . S
C1620 H1644 0.950 . S
C1621 C1638 1.574 . S
C1621 C1640 1.368 . S
C1621 H1645 0.949 . S
H1622 C1626 0.949 . S
C1623 C1624 1.349 . S
C1623 C1625 1.327 . S
C1623 H1646 0.950 . S
C1624 C1623 1.349 . S
C1624 C1636 1.349 . S
C1625 C1623 1.327 . S
C1625 C1641 1.429 . S
C1625 H1647 0.950 . S
C1626 H1622 0.949 . S
C1626 C1634 1.574 . S
C1626 C1642 1.368 . S
H1627 C1635 0.950 . S
H1628 C1633 0.950 . S
H1629 C1634 0.949 . S
H1630 C1636 0.950 . S
H1631 C1637 0.950 . S
H1632 C1638 0.949 . S
C1633 H1628 0.950 . S
C1633 C1635 1.327 . S
C1633 C1639 1.429 . S
C1634 C1626 1.574 . S
C1634 H1629 0.949 . S
C1634 C1640 1.368 . S
C1635 C1619 1.349 . S
C1635 H1627 0.950 . S
C1635 C1633 1.327 . S
C1636 C1624 1.349 . S
C1636 H1630 0.950 . S
C1636 C1637 1.327 . S
C1637 H1631 0.950 . S
C1637 C1636 1.327 . S
C1637 C1641 1.429 . S
C1638 C1621 1.574 . S
C1638 H1632 0.949 . S
C1638 C1642 1.368 . S
C1639 C1620 1.429 . S
C1639 C1633 1.429 . S
C1639 C1640 1.523 . S
C1640 C1621 1.368 . S
C1640 C1634 1.368 . S
C1640 C1639 1.523 . S
C1641 C1625 1.429 . S
C1641 C1637 1.429 . S
C1641 C1642 1.523 . S
C1642 C1626 1.368 . S
C1642 C1638 1.368 . S
C1642 C1641 1.523 . S
H1643 C1618 0.950 . S
H1644 C1620 0.950 . S
H1645 C1621 0.949 . S
H1646 C1623 0.950 . S
H1647 C1625 0.950 . S
C1648 C1649 1.349 . S
C1648 C1650 1.327 . S
C1648 H1673 0.950 . S
C1649 C1648 1.349 . S
C1649 C1665 1.349 . S
C1650 C1648 1.327 . S
C1650 C1669 1.429 . S
C1650 H1674 0.950 . S
C1651 C1668 1.574 . S
C1651 C1670 1.368 . S
C1651 H1675 0.949 . S
H1652 C1656 0.949 . S
C1653 C1654 1.349 1_565 S
C1653 C1655 1.327 . S
C1653 H1676 0.950 . S
C1654 C1653 1.349 1_545 S
C1654 C1666 1.349 . S
C1655 C1653 1.327 . S
C1655 C1671 1.429 . S
C1655 H1677 0.950 . S
C1656 H1652 0.949 . S
C1656 C1664 1.574 . S
C1656 C1672 1.368 . S
H1657 C1665 0.950 . S
H1658 C1663 0.950 . S
H1659 C1664 0.949 . S
H1660 C1666 0.950 . S
H1661 C1667 0.950 . S
H1662 C1668 0.949 . S
C1663 H1658 0.950 . S
C1663 C1665 1.327 . S
C1663 C1669 1.429 . S
C1664 C1656 1.574 . S
C1664 H1659 0.949 . S
C1664 C1670 1.368 . S
C1665 C1649 1.349 . S
C1665 H1657 0.950 . S
C1665 C1663 1.327 . S
C1666 C1654 1.349 . S
C1666 H1660 0.950 . S
C1666 C1667 1.327 1_545 S
C1667 H1661 0.950 . S
C1667 C1666 1.327 1_565 S
C1667 C1671 1.429 . S
C1668 C1651 1.574 . S
C1668 H1662 0.949 . S
C1668 C1672 1.368 . S
C1669 C1650 1.429 . S
C1669 C1663 1.429 . S
C1669 C1670 1.523 . S
C1670 C1651 1.368 . S
C1670 C1664 1.368 . S
C1670 C1669 1.523 . S
C1671 C1655 1.429 . S
C1671 C1667 1.429 . S
C1671 C1672 1.523 . S
C1672 C1656 1.368 . S
C1672 C1668 1.368 . S
C1672 C1671 1.523 . S
H1673 C1648 0.950 . S
H1674 C1650 0.950 . S
H1675 C1651 0.949 . S
H1676 C1653 0.950 . S
H1677 C1655 0.950 . S
C1678 C1679 1.349 . S
C1678 C1680 1.327 . S
C1678 H1703 0.950 . S
C1679 C1678 1.349 . S
C1679 C1695 1.349 . S
C1680 C1678 1.327 . S
C1680 C1699 1.429 . S
C1680 H1704 0.950 . S
C1681 C1698 1.574 . S
C1681 C1700 1.368 . S
C1681 H1705 0.949 . S
H1682 C1686 0.949 . S
C1683 C1684 1.349 . S
C1683 C1685 1.327 . S
C1683 H1706 0.950 . S
C1684 C1683 1.349 . S
C1684 C1696 1.349 . S
C1685 C1683 1.327 . S
C1685 C1701 1.429 . S
C1685 H1707 0.950 . S
C1686 H1682 0.949 . S
C1686 C1694 1.574 . S
C1686 C1702 1.368 . S
H1687 C1695 0.950 1_565 S
H1688 C1693 0.950 . S
H1689 C1694 0.949 . S
H1690 C1696 0.950 1_545 S
H1691 C1697 0.950 . S
H1692 C1698 0.949 . S
C1693 H1688 0.950 . S
C1693 C1695 1.327 . S
C1693 C1699 1.429 . S
C1694 C1686 1.574 . S
C1694 H1689 0.949 . S
C1694 C1700 1.368 . S
C1695 C1679 1.349 . S
C1695 H1687 0.950 1_545 S
C1695 C1693 1.327 . S
C1696 C1684 1.349 . S
C1696 H1690 0.950 1_565 S
C1696 C1697 1.327 . S
C1697 H1691 0.950 . S
C1697 C1696 1.327 . S
C1697 C1701 1.429 . S
C1698 C1681 1.574 . S
C1698 H1692 0.949 . S
C1698 C1702 1.368 . S
C1699 C1680 1.429 . S
C1699 C1693 1.429 . S
C1699 C1700 1.523 . S
C1700 C1681 1.368 . S
C1700 C1694 1.368 . S
C1700 C1699 1.523 . S
C1701 C1685 1.429 . S
C1701 C1697 1.429 . S
C1701 C1702 1.523 . S
C1702 C1686 1.368 . S
C1702 C1698 1.368 . S
C1702 C1701 1.523 . S
H1703 C1678 0.950 . S
H1704 C1680 0.950 . S
H1705 C1681 0.949 . S
H1706 C1683 0.950 . S
H1707 C1685 0.950 . S
C1708 C1709 1.349 . S
C1708 C1710 1.327 . S
C1708 H1733 0.950 . S
C1709 C1708 1.349 . S
C1709 C1725 1.349 . S
C1710 C1708 1.327 . S
C1710 C1729 1.429 . S
C1710 H1734 0.950 . S
C1711 C1728 1.574 . S
C1711 C1730 1.368 . S
C1711 H1735 0.949 . S
H1712 C1716 0.949 . S
C1713 C1714 1.349 1_545 S
C1713 C1715 1.327 . S
C1713 H1736 0.950 . S
C1714 C1713 1.349 1_565 S
C1714 C1726 1.349 . S
C1715 C1713 1.327 . S
C1715 C1731 1.429 . S
C1715 H1737 0.950 . S
C1716 H1712 0.949 . S
C1716 C1724 1.574 . S
C1716 C1732 1.368 . S
H1717 C1725 0.950 . S
H1718 C1723 0.950 . S
H1719 C1724 0.949 . S
H1720 C1726 0.950 . S
H1721 C1727 0.948 1_565 S
H1722 C1728 0.949 . S
C1723 H1718 0.950 . S
C1723 C1725 1.327 . S
C1723 C1729 1.429 . S
C1724 C1716 1.574 . S
C1724 H1719 0.949 . S
C1724 C1730 1.368 . S
C1725 C1709 1.349 . S
C1725 H1717 0.950 . S
C1725 C1723 1.327 . S
C1726 C1714 1.349 . S
C1726 H1720 0.950 . S
C1726 C1727 1.327 1_565 S
C1727 H1721 0.948 1_545 S
C1727 C1726 1.327 1_545 S
C1727 C1731 1.429 . S
C1728 C1711 1.574 . S
C1728 H1722 0.949 . S
C1728 C1732 1.368 . S
C1729 C1710 1.429 . S
C1729 C1723 1.429 . S
C1729 C1730 1.523 . S
C1730 C1711 1.368 . S
C1730 C1724 1.368 . S
C1730 C1729 1.523 . S
C1731 C1715 1.429 . S
C1731 C1727 1.429 . S
C1731 C1732 1.523 . S
C1732 C1716 1.368 . S
C1732 C1728 1.368 . S
C1732 C1731 1.523 . S
H1733 C1708 0.950 . S
H1734 C1710 0.950 . S
H1735 C1711 0.949 . S
H1736 C1713 0.950 . S
H1737 C1715 0.950 . S
C1738 C1739 1.349 . S
C1738 C1740 1.327 . S
C1738 H1763 0.950 1_545 S
C1739 C1738 1.349 . S
C1739 C1755 1.349 . S
C1740 C1738 1.327 . S
C1740 C1759 1.429 . S
C1740 H1764 0.950 . S
C1741 C1758 1.574 . S
C1741 C1760 1.368 . S
C1741 H1765 0.949 . S
H1742 C1746 0.949 . S
C1743 C1744 1.349 . S
C1743 C1745 1.327 . S
C1743 H1766 0.950 1_565 S
C1744 C1743 1.349 . S
C1744 C1756 1.349 . S
C1745 C1743 1.327 . S
C1745 C1761 1.429 . S
C1745 H1767 0.950 . S
C1746 H1742 0.949 . S
C1746 C1754 1.574 . S
C1746 C1762 1.368 . S
H1747 C1755 0.950 . S
H1748 C1753 0.950 . S
H1749 C1754 0.949 . S
H1750 C1756 0.950 . S
H1751 C1757 0.950 . S
H1752 C1758 0.949 . S
C1753 H1748 0.950 . S
C1753 C1755 1.327 . S
C1753 C1759 1.429 . S
C1754 C1746 1.574 . S
C1754 H1749 0.949 . S
C1754 C1760 1.368 . S
C1755 C1739 1.349 . S
C1755 H1747 0.950 . S
C1755 C1753 1.327 . S
C1756 C1744 1.349 . S
C1756 H1750 0.950 . S
C1756 C1757 1.327 . S
C1757 H1751 0.950 . S
C1757 C1756 1.327 . S
C1757 C1761 1.429 . S
C1758 C1741 1.574 . S
C1758 H1752 0.949 . S
C1758 C1762 1.368 . S
C1759 C1740 1.429 . S
C1759 C1753 1.429 . S
C1759 C1760 1.523 . S
C1760 C1741 1.368 . S
C1760 C1754 1.368 . S
C1760 C1759 1.523 . S
C1761 C1745 1.429 . S
C1761 C1757 1.429 . S
C1761 C1762 1.523 . S
C1762 C1746 1.368 . S
C1762 C1758 1.368 . S
C1762 C1761 1.523 . S
H1763 C1738 0.950 1_565 S
H1764 C1740 0.950 . S
H1765 C1741 0.949 . S
H1766 C1743 0.950 1_545 S
H1767 C1745 0.950 . S
C1768 C1769 1.349 . S
C1768 C1770 1.327 . S
C1768 H1793 0.950 . S
C1769 C1768 1.349 . S
C1769 C1785 1.349 1_465 S
C1770 C1768 1.327 . S
C1770 C1789 1.429 . S
C1770 H1794 0.950 . S
C1771 C1788 1.574 . S
C1771 C1790 1.340 1_645 S
C1771 H1795 0.949 . S
H1772 C1776 0.949 . S
C1773 C1774 1.349 . S
C1773 C1775 1.327 . S
C1773 H1796 0.950 . S
C1774 C1773 1.349 . S
C1774 C1786 1.349 1_645 S
C1775 C1773 1.327 . S
C1775 C1791 1.429 . S
C1775 H1797 0.950 . S
C1776 H1772 0.949 . S
C1776 C1784 1.574 . S
C1776 C1792 1.348 1_465 S
H1777 C1785 0.950 . S
H1778 C1783 0.950 . S
H1779 C1784 0.949 . S
H1780 C1786 0.950 . S
H1781 C1787 0.950 . S
H1782 C1788 0.949 . S
C1783 H1778 0.950 . S
C1783 C1785 1.327 . S
C1783 C1789 1.429 1_645 S
C1784 C1776 1.574 . S
C1784 H1779 0.949 . S
C1784 C1790 1.396 . S
C1785 C1769 1.349 1_645 S
C1785 H1777 0.950 . S
C1785 C1783 1.327 . S
C1786 C1774 1.349 1_465 S
C1786 H1780 0.950 . S
C1786 C1787 1.327 . S
C1787 H1781 0.950 . S
C1787 C1786 1.327 . S
C1787 C1791 1.429 1_465 S
C1788 C1771 1.574 . S
C1788 H1782 0.949 . S
C1788 C1792 1.389 . S
C1789 C1770 1.429 . S
C1789 C1783 1.429 1_465 S
C1789 C1790 1.527 . S
C1790 C1771 1.340 1_465 S
C1790 C1784 1.396 . S
C1790 C1789 1.527 . S
C1791 C1775 1.429 . S
C1791 C1787 1.429 1_645 S
C1791 C1792 1.525 . S
C1792 C1776 1.348 1_645 S
C1792 C1788 1.389 . S
C1792 C1791 1.525 . S
H1793 C1768 0.950 . S
H1794 C1770 0.950 . S
H1795 C1771 0.949 . S
H1796 C1773 0.950 . S
H1797 C1775 0.950 . S
C1798 C1799 1.349 1_455 S
C1798 C1800 1.327 . S
C1798 H1823 0.950 . S
C1799 C1798 1.349 1_655 S
C1799 C1815 1.349 . S
C1800 C1798 1.327 . S
C1800 C1819 1.410 1_455 S
C1800 H1824 0.950 . S
C1801 C1818 1.574 . S
C1801 C1820 1.375 . S
C1801 H1825 0.949 . S
H1802 C1806 0.949 . S
C1803 C1804 1.349 1_655 S
C1803 C1805 1.327 . S
C1803 H1826 0.950 . S
C1804 C1803 1.349 1_455 S
C1804 C1816 1.349 . S
C1805 C1803 1.327 . S
C1805 C1821 1.406 1_655 S
C1805 H1827 0.950 . S
C1806 H1802 0.949 . S
C1806 C1814 1.574 . S
C1806 C1822 1.379 . S
H1807 C1815 0.950 . S
H1808 C1813 0.950 . S
H1809 C1814 0.949 . S
H1810 C1816 0.950 . S
H1811 C1817 0.950 . S
H1812 C1818 0.949 . S
C1813 H1808 0.950 . S
C1813 C1815 1.327 . S
C1813 C1819 1.448 . S
C1814 C1806 1.574 . S
C1814 H1809 0.949 . S
C1814 C1820 1.362 1_455 S
C1815 C1799 1.349 . S
C1815 H1807 0.950 . S
C1815 C1813 1.327 . S
C1816 C1804 1.349 . S
C1816 H1810 0.950 . S
C1816 C1817 1.327 . S
C1817 H1811 0.950 . S
C1817 C1816 1.327 . S
C1817 C1821 1.452 . S
C1818 C1801 1.574 . S
C1818 H1812 0.949 . S
C1818 C1822 1.357 1_655 S
C1819 C1800 1.410 1_655 S
C1819 C1813 1.448 . S
C1819 C1820 1.523 . S
C1820 C1801 1.375 . S
C1820 C1814 1.362 1_655 S
C1820 C1819 1.523 . S
C1821 C1805 1.406 1_455 S
C1821 C1817 1.452 . S
C1821 C1822 1.523 . S
C1822 C1806 1.379 . S
C1822 C1818 1.357 1_455 S
C1822 C1821 1.523 . S
H1823 C1798 0.950 . S
H1824 C1800 0.950 . S
H1825 C1801 0.949 . S
H1826 C1803 0.950 . S
H1827 C1805 0.950 . S
C1828 C1829 1.349 . S
C1828 C1830 1.327 . S
C1828 H1853 0.950 . S
C1829 C1828 1.349 . S
C1829 C1845 1.349 1_655 S
C1830 C1828 1.327 . S
C1830 C1849 1.464 . S
C1830 H1854 0.950 . S
C1831 C1848 1.574 . S
C1831 C1850 1.348 1_455 S
C1831 H1855 0.949 . S
H1832 C1836 0.949 . S
C1833 C1834 1.349 . S
C1833 C1835 1.327 . S
C1833 H1856 0.950 . S
C1834 C1833 1.349 . S
C1834 C1846 1.349 1_455 S
C1835 C1833 1.327 . S
C1835 C1851 1.442 . S
C1835 H1857 0.950 . S
C1836 H1832 0.949 . S
C1836 C1844 1.574 . S
C1836 C1852 1.370 1_655 S
H1837 C1845 0.950 . S
H1838 C1843 0.950 . S
H1839 C1844 0.949 . S
H1840 C1846 0.950 . S
H1841 C1847 0.950 . S
H1842 C1848 0.949 . S
C1843 H1838 0.950 . S
C1843 C1845 1.327 . S
C1843 C1849 1.396 1_455 S
C1844 C1836 1.574 . S
C1844 H1839 0.949 . S
C1844 C1850 1.390 . S
C1845 C1829 1.349 1_455 S
C1845 H1837 0.950 . S
C1845 C1843 1.327 . S
C1846 C1834 1.349 1_655 S
C1846 H1840 0.950 . S
C1846 C1847 1.327 . S
C1847 H1841 0.950 . S
C1847 C1846 1.327 . S
C1847 C1851 1.415 1_655 S
C1848 C1831 1.574 . S
C1848 H1842 0.949 . S
C1848 C1852 1.367 . S
C1849 C1830 1.464 . S
C1849 C1843 1.396 1_655 S
C1849 C1850 1.523 . S
C1850 C1831 1.348 1_655 S
C1850 C1844 1.390 . S
C1850 C1849 1.523 . S
C1851 C1835 1.442 . S
C1851 C1847 1.415 1_455 S
C1851 C1852 1.523 . S
C1852 C1836 1.370 1_455 S
C1852 C1848 1.367 . S
C1852 C1851 1.523 . S
H1853 C1828 0.950 . S
H1854 C1830 0.950 . S
H1855 C1831 0.949 . S
H1856 C1833 0.950 . S
H1857 C1835 0.950 . S
C1858 C1859 1.349 . S
C1858 C1860 1.327 . S
C1858 H1883 0.950 . S
C1859 C1858 1.349 . S
C1859 C1875 1.349 1_455 S
C1860 C1858 1.327 . S
C1860 C1879 1.460 . S
C1860 H1884 0.950 . S
C1861 C1878 1.574 1_556 S
C1861 C1880 1.353 1_655 S
C1861 H1885 0.949 . S
H1862 C1866 0.949 . S
C1863 C1864 1.349 . S
C1863 C1865 1.327 . S
C1863 H1886 0.950 . S
C1864 C1863 1.349 . S
C1864 C1876 1.349 1_655 S
C1865 C1863 1.327 . S
C1865 C1881 1.451 . S
C1865 H1887 0.950 . S
C1866 H1862 0.949 . S
C1866 C1874 1.574 1_554 S
C1866 C1882 1.362 1_455 S
H1867 C1875 0.950 . S
H1868 C1873 0.950 . S
H1869 C1874 0.949 . S
H1870 C1876 0.950 . S
H1871 C1877 0.950 . S
H1872 C1878 0.949 . S
C1873 H1868 0.950 . S
C1873 C1875 1.327 . S
C1873 C1879 1.401 1_655 S
C1874 C1866 1.574 1_556 S
C1874 H1869 0.949 . S
C1874 C1880 1.383 . S
C1875 C1859 1.349 1_655 S
C1875 H1867 0.950 . S
C1875 C1873 1.327 . S
C1876 C1864 1.349 1_455 S
C1876 H1870 0.950 . S
C1876 C1877 1.327 . S
C1877 H1871 0.950 . S
C1877 C1876 1.327 . S
C1877 C1881 1.408 1_455 S
C1878 C1861 1.574 1_554 S
C1878 H1872 0.949 . S
C1878 C1882 1.374 . S
C1879 C1860 1.460 . S
C1879 C1873 1.401 1_455 S
C1879 C1880 1.522 . S
C1880 C1861 1.353 1_455 S
C1880 C1874 1.383 . S
C1880 C1879 1.522 . S
C1881 C1865 1.451 . S
C1881 C1877 1.408 1_655 S
C1881 C1882 1.522 . S
C1882 C1866 1.362 1_655 S
C1882 C1878 1.374 . S
C1882 C1881 1.522 . S
H1883 C1858 0.950 . S
H1884 C1860 0.950 . S
H1885 C1861 0.949 . S
H1886 C1863 0.950 . S
H1887 C1865 0.950 . S
C1888 C1889 1.349 . S
C1888 C1890 1.327 1_565 S
C1888 H1913 0.950 1_565 S
C1889 C1888 1.349 . S
C1889 C1905 1.349 . S
C1890 C1888 1.327 1_545 S
C1890 C1909 1.429 1_545 S
C1890 H1914 0.950 . S
C1891 C1908 1.574 . S
C1891 C1910 1.368 1_565 S
C1891 H1915 0.949 . S
H1892 C1896 0.949 . S
C1893 C1894 1.349 . S
C1893 C1895 1.327 . S
C1893 H1916 0.950 . S
C1894 C1893 1.349 . S
C1894 C1906 1.349 . S
C1895 C1893 1.327 . S
C1895 C1911 1.429 . S
C1895 H1917 0.950 . S
C1896 H1892 0.949 . S
C1896 C1904 1.574 . S
C1896 C1912 1.368 . S
H1897 C1905 0.950 . S
H1898 C1903 0.950 . S
H1899 C1904 0.949 . S
H1900 C1906 0.950 . S
H1901 C1907 0.950 . S
H1902 C1908 0.949 . S
C1903 H1898 0.950 . S
C1903 C1905 1.327 . S
C1903 C1909 1.429 . S
C1904 C1896 1.574 . S
C1904 H1899 0.949 . S
C1904 C1910 1.368 . S
C1905 C1889 1.349 . S
C1905 H1897 0.950 . S
C1905 C1903 1.327 . S
C1906 C1894 1.349 . S
C1906 H1900 0.950 . S
C1906 C1907 1.327 . S
C1907 H1901 0.950 . S
C1907 C1906 1.327 . S
C1907 C1911 1.429 . S
C1908 C1891 1.574 . S
C1908 H1902 0.949 . S
C1908 C1912 1.368 1_565 S
C1909 C1890 1.429 1_565 S
C1909 C1903 1.429 . S
C1909 C1910 1.523 1_565 S
C1910 C1891 1.368 1_545 S
C1910 C1904 1.368 . S
C1910 C1909 1.523 1_545 S
C1911 C1895 1.429 . S
C1911 C1907 1.429 . S
C1911 C1912 1.523 . S
C1912 C1896 1.368 . S
C1912 C1908 1.368 1_545 S
C1912 C1911 1.523 . S
H1913 C1888 0.950 1_545 S
H1914 C1890 0.950 . S
H1915 C1891 0.949 . S
H1916 C1893 0.950 . S
H1917 C1895 0.950 . S
C1918 C1919 1.349 . S
C1918 C1920 1.327 1_545 S
C1918 H1943 0.950 . S
C1919 C1918 1.349 . S
C1919 C1935 1.349 1_545 S
C1920 C1918 1.327 1_565 S
C1920 C1939 1.429 . S
C1920 H1944 0.950 1_565 S
C1921 C1938 1.574 . S
C1921 C1940 1.368 . S
C1921 H1945 0.949 . S
H1922 C1926 0.949 . S
C1923 C1924 1.349 . S
C1923 C1925 1.327 . S
C1923 H1946 0.950 . S
C1924 C1923 1.349 . S
C1924 C1936 1.349 . S
C1925 C1923 1.327 . S
C1925 C1941 1.429 . S
C1925 H1947 0.950 . S
C1926 H1922 0.949 . S
C1926 C1934 1.574 . S
C1926 C1942 1.368 . S
H1927 C1935 0.950 . S
H1928 C1933 0.950 . S
H1929 C1934 0.949 . S
H1930 C1936 0.950 . S
H1931 C1937 0.950 . S
H1932 C1938 0.949 . S
C1933 H1928 0.950 . S
C1933 C1935 1.327 . S
C1933 C1939 1.429 . S
C1934 C1926 1.574 . S
C1934 H1929 0.949 . S
C1934 C1940 1.368 . S
C1935 C1919 1.349 1_565 S
C1935 H1927 0.950 . S
C1935 C1933 1.327 . S
C1936 C1924 1.349 . S
C1936 H1930 0.950 . S
C1936 C1937 1.327 . S
C1937 H1931 0.950 . S
C1937 C1936 1.327 . S
C1937 C1941 1.429 . S
C1938 C1921 1.574 . S
C1938 H1932 0.949 . S
C1938 C1942 1.368 . S
C1939 C1920 1.429 . S
C1939 C1933 1.429 . S
C1939 C1940 1.523 . S
C1940 C1921 1.368 . S
C1940 C1934 1.368 . S
C1940 C1939 1.523 . S
C1941 C1925 1.429 . S
C1941 C1937 1.429 . S
C1941 C1942 1.523 . S
C1942 C1926 1.368 . S
C1942 C1938 1.368 . S
C1942 C1941 1.523 . S
H1943 C1918 0.950 . S
H1944 C1920 0.950 1_545 S
H1945 C1921 0.949 . S
H1946 C1923 0.950 . S
H1947 C1925 0.950 . S
C1948 C1949 1.349 . S
C1948 C1950 1.327 . S
C1948 H1973 0.950 . S
C1949 C1948 1.349 . S
C1949 C1965 1.349 . S
C1950 C1948 1.327 . S
C1950 C1969 1.429 . S
C1950 H1974 0.950 1_545 S
C1951 C1968 1.574 1_545 S
C1951 C1970 1.368 1_545 S
C1951 H1975 0.949 . S
H1952 C1956 0.949 . S
C1953 C1954 1.349 . S
C1953 C1955 1.327 . S
C1953 H1976 0.950 . S
C1954 C1953 1.349 . S
C1954 C1966 1.349 . S
C1955 C1953 1.327 . S
C1955 C1971 1.429 . S
C1955 H1977 0.950 . S
C1956 H1952 0.949 . S
C1956 C1964 1.574 . S
C1956 C1972 1.368 . S
H1957 C1965 0.950 . S
H1958 C1963 0.950 . S
H1959 C1964 0.949 . S
H1960 C1966 0.950 . S
H1961 C1967 0.950 . S
H1962 C1968 0.949 . S
C1963 H1958 0.950 . S
C1963 C1965 1.327 . S
C1963 C1969 1.429 . S
C1964 C1956 1.574 . S
C1964 H1959 0.949 . S
C1964 C1970 1.368 . S
C1965 C1949 1.349 . S
C1965 H1957 0.950 . S
C1965 C1963 1.327 . S
C1966 C1954 1.349 . S
C1966 H1960 0.950 . S
C1966 C1967 1.327 . S
C1967 H1961 0.950 . S
C1967 C1966 1.327 . S
C1967 C1971 1.429 . S
C1968 C1951 1.574 1_565 S
C1968 H1962 0.949 . S
C1968 C1972 1.368 . S
C1969 C1950 1.429 . S
C1969 C1963 1.429 . S
C1969 C1970 1.523 1_545 S
C1970 C1951 1.368 1_565 S
C1970 C1964 1.368 . S
C1970 C1969 1.523 1_565 S
C1971 C1955 1.429 . S
C1971 C1967 1.429 . S
C1971 C1972 1.523 . S
C1972 C1956 1.368 . S
C1972 C1968 1.368 . S
C1972 C1971 1.523 . S
H1973 C1948 0.950 . S
H1974 C1950 0.950 1_565 S
H1975 C1951 0.949 . S
H1976 C1953 0.950 . S
H1977 C1955 0.950 . S
C1978 C1979 1.349 . S
C1978 C1980 1.327 . S
C1978 H2003 0.950 . S
C1979 C1978 1.349 . S
C1979 C1995 1.349 1_565 S
C1980 C1978 1.327 . S
C1980 C1999 1.429 1_565 S
C1980 H2004 0.950 . S
C1981 C1998 1.574 . S
C1981 C2000 1.368 . S
C1981 H2005 0.949 . S
H1982 C1986 0.949 . S
C1983 C1984 1.349 . S
C1983 C1985 1.327 . S
C1983 H2006 0.950 . S
C1984 C1983 1.349 . S
C1984 C1996 1.349 . S
C1985 C1983 1.327 . S
C1985 C2001 1.429 . S
C1985 H2007 0.950 . S
C1986 H1982 0.949 . S
C1986 C1994 1.574 . S
C1986 C2002 1.368 . S
H1987 C1995 0.950 . S
H1988 C1993 0.950 . S
H1989 C1994 0.949 . S
H1990 C1996 0.950 . S
H1991 C1997 0.950 . S
H1992 C1998 0.949 . S
C1993 H1988 0.950 . S
C1993 C1995 1.327 . S
C1993 C1999 1.429 . S
C1994 C1986 1.574 . S
C1994 H1989 0.949 . S
C1994 C2000 1.368 . S
C1995 C1979 1.349 1_545 S
C1995 H1987 0.950 . S
C1995 C1993 1.327 . S
C1996 C1984 1.349 . S
C1996 H1990 0.950 . S
C1996 C1997 1.327 . S
C1997 H1991 0.950 . S
C1997 C1996 1.327 . S
C1997 C2001 1.429 . S
C1998 C1981 1.574 . S
C1998 H1992 0.949 . S
C1998 C2002 1.368 . S
C1999 C1980 1.429 1_545 S
C1999 C1993 1.429 . S
C1999 C2000 1.523 . S
C2000 C1981 1.368 . S
C2000 C1994 1.368 . S
C2000 C1999 1.523 . S
C2001 C1985 1.429 . S
C2001 C1997 1.429 . S
C2001 C2002 1.523 . S
C2002 C1986 1.368 . S
C2002 C1998 1.368 . S
C2002 C2001 1.523 . S
H2003 C1978 0.950 . S
H2004 C1980 0.950 . S
H2005 C1981 0.949 . S
H2006 C1983 0.950 . S
H2007 C1985 0.950 . S
C2008 C2009 1.349 . S
C2008 C2010 1.327 . S
C2008 H2033 0.950 . S
C2009 C2008 1.349 . S
C2009 C2025 1.349 . S
C2010 C2008 1.327 . S
C2010 C2029 1.429 . S
C2010 H2034 0.950 . S
C2011 C2028 1.574 . S
C2011 C2030 1.368 . S
C2011 H2035 0.949 . S
H2012 C2016 0.949 . S
C2013 C2014 1.349 . S
C2013 C2015 1.327 . S
C2013 H2036 0.950 . S
C2014 C2013 1.349 . S
C2014 C2026 1.349 1_565 S
C2015 C2013 1.327 . S
C2015 C2031 1.429 1_565 S
C2015 H2037 0.950 . S
C2016 H2012 0.949 . S
C2016 C2024 1.574 . S
C2016 C2032 1.368 . S
H2017 C2025 0.950 . S
H2018 C2023 0.950 . S
H2019 C2024 0.949 . S
H2020 C2026 0.950 . S
H2021 C2027 0.950 . S
H2022 C2028 0.949 1_565 S
C2023 H2018 0.950 . S
C2023 C2025 1.327 . S
C2023 C2029 1.429 . S
C2024 C2016 1.574 . S
C2024 H2019 0.949 . S
C2024 C2030 1.368 . S
C2025 C2009 1.349 . S
C2025 H2017 0.950 . S
C2025 C2023 1.327 . S
C2026 C2014 1.349 1_545 S
C2026 H2020 0.950 . S
C2026 C2027 1.327 . S
C2027 H2021 0.950 . S
C2027 C2026 1.327 . S
C2027 C2031 1.429 . S
C2028 C2011 1.574 . S
C2028 H2022 0.949 1_545 S
C2028 C2032 1.368 . S
C2029 C2010 1.429 . S
C2029 C2023 1.429 . S
C2029 C2030 1.523 . S
C2030 C2011 1.368 . S
C2030 C2024 1.368 . S
C2030 C2029 1.523 . S
C2031 C2015 1.429 1_545 S
C2031 C2027 1.429 . S
C2031 C2032 1.523 . S
C2032 C2016 1.368 . S
C2032 C2028 1.368 . S
C2032 C2031 1.523 . S
H2033 C2008 0.950 . S
H2034 C2010 0.950 . S
H2035 C2011 0.949 . S
H2036 C2013 0.950 . S
H2037 C2015 0.950 . S
C2038 C2039 1.349 . S
C2038 C2040 1.327 1_545 S
C2038 H2063 0.950 1_545 S
C2039 C2038 1.349 . S
C2039 C2055 1.349 . S
C2040 C2038 1.327 1_565 S
C2040 C2059 1.429 1_565 S
C2040 H2064 0.950 . S
C2041 C2058 1.574 . S
C2041 C2060 1.368 . S
C2041 H2065 0.949 . S
H2042 C2046 0.949 . S
C2043 C2044 1.349 . S
C2043 C2045 1.327 . S
C2043 H2066 0.950 . S
C2044 C2043 1.349 . S
C2044 C2056 1.349 . S
C2045 C2043 1.327 . S
C2045 C2061 1.429 . S
C2045 H2067 0.950 1_565 S
C2046 H2042 0.949 . S
C2046 C2054 1.574 . S
C2046 C2062 1.368 . S
H2047 C2055 0.950 . S
H2048 C2053 0.950 . S
H2049 C2054 0.949 . S
H2050 C2056 0.950 . S
H2051 C2057 0.950 . S
H2052 C2058 0.949 . S
C2053 H2048 0.950 . S
C2053 C2055 1.327 . S
C2053 C2059 1.429 . S
C2054 C2046 1.574 . S
C2054 H2049 0.949 . S
C2054 C2060 1.368 1_565 S
C2055 C2039 1.349 . S
C2055 H2047 0.950 . S
C2055 C2053 1.327 . S
C2056 C2044 1.349 . S
C2056 H2050 0.950 . S
C2056 C2057 1.327 . S
C2057 H2051 0.950 . S
C2057 C2056 1.327 . S
C2057 C2061 1.429 . S
C2058 C2041 1.574 . S
C2058 H2052 0.949 . S
C2058 C2062 1.368 1_545 S
C2059 C2040 1.429 1_545 S
C2059 C2053 1.429 . S
C2059 C2060 1.523 . S
C2060 C2041 1.368 . S
C2060 C2054 1.368 1_545 S
C2060 C2059 1.523 . S
C2061 C2045 1.429 . S
C2061 C2057 1.429 . S
C2061 C2062 1.523 . S
C2062 C2046 1.368 . S
C2062 C2058 1.368 1_565 S
C2062 C2061 1.523 . S
H2063 C2038 0.950 1_565 S
H2064 C2040 0.950 . S
H2065 C2041 0.949 . S
H2066 C2043 0.950 . S
H2067 C2045 0.950 1_545 S
C2068 C2069 1.349 1_565 S
C2068 C2070 1.327 . S
C2068 H2093 0.950 . S
C2069 C2068 1.349 1_545 S
C2069 C2085 1.349 . S
C2070 C2068 1.327 . S
C2070 C2089 1.429 . S
C2070 H2094 0.950 . S
C2071 C2088 1.574 . S
C2071 C2090 1.368 . S
C2071 H2095 0.949 1_565 S
H2072 C2076 0.949 . S
C2073 C2074 1.349 . S
C2073 C2075 1.327 . S
C2073 H2096 0.950 . S
C2074 C2073 1.349 . S
C2074 C2086 1.349 . S
C2075 C2073 1.327 . S
C2075 C2091 1.429 . S
C2075 H2097 0.950 . S
C2076 H2072 0.949 . S
C2076 C2084 1.574 . S
C2076 C2092 1.368 . S
H2077 C2085 0.950 . S
H2078 C2083 0.950 . S
H2079 C2084 0.949 . S
H2080 C2086 0.950 . S
H2081 C2087 0.950 . S
H2082 C2088 0.949 . S
C2083 H2078 0.950 . S
C2083 C2085 1.327 . S
C2083 C2089 1.429 1_545 S
C2084 C2076 1.574 . S
C2084 H2079 0.949 . S
C2084 C2090 1.368 . S
C2085 C2069 1.349 . S
C2085 H2077 0.950 . S
C2085 C2083 1.327 . S
C2086 C2074 1.349 . S
C2086 H2080 0.950 . S
C2086 C2087 1.327 . S
C2087 H2081 0.950 . S
C2087 C2086 1.327 . S
C2087 C2091 1.429 . S
C2088 C2071 1.574 . S
C2088 H2082 0.949 . S
C2088 C2092 1.368 . S
C2089 C2070 1.429 . S
C2089 C2083 1.429 1_565 S
C2089 C2090 1.523 . S
C2090 C2071 1.368 . S
C2090 C2084 1.368 . S
C2090 C2089 1.523 . S
C2091 C2075 1.429 . S
C2091 C2087 1.429 . S
C2091 C2092 1.523 . S
C2092 C2076 1.368 . S
C2092 C2088 1.368 . S
C2092 C2091 1.523 . S
H2093 C2068 0.950 . S
H2094 C2070 0.950 . S
H2095 C2071 0.949 1_545 S
H2096 C2073 0.950 . S
H2097 C2075 0.950 . S
C2098 C2099 1.349 . S
C2098 C2100 1.327 1_565 S
C2098 H2123 0.950 1_565 S
C2099 C2098 1.349 . S
C2099 C2115 1.349 . S
C2100 C2098 1.327 1_545 S
C2100 C2119 1.429 1_545 S
C2100 H2124 0.950 . S
C2101 C2118 1.574 . S
C2101 C2120 1.368 . S
C2101 H2125 0.949 . S
H2102 C2106 0.949 . S
C2103 C2104 1.349 . S
C2103 C2105 1.327 . S
C2103 H2126 0.951 . S
C2104 C2103 1.349 . S
C2104 C2116 1.349 . S
C2105 C2103 1.327 . S
C2105 C2121 1.429 . S
C2105 H2127 0.950 1_545 S
C2106 H2102 0.949 . S
C2106 C2114 1.574 . S
C2106 C2122 1.368 . S
H2107 C2115 0.950 . S
H2108 C2113 0.950 . S
H2109 C2114 0.949 . S
H2110 C2116 0.950 . S
H2111 C2117 0.950 . S
H2112 C2118 0.949 . S
C2113 H2108 0.950 . S
C2113 C2115 1.327 . S
C2113 C2119 1.429 . S
C2114 C2106 1.574 . S
C2114 H2109 0.949 . S
C2114 C2120 1.368 1_545 S
C2115 C2099 1.349 . S
C2115 H2107 0.950 . S
C2115 C2113 1.327 . S
C2116 C2104 1.349 . S
C2116 H2110 0.950 . S
C2116 C2117 1.327 . S
C2117 H2111 0.950 . S
C2117 C2116 1.327 . S
C2117 C2121 1.429 . S
C2118 C2101 1.574 . S
C2118 H2112 0.949 . S
C2118 C2122 1.368 1_565 S
C2119 C2100 1.429 1_565 S
C2119 C2113 1.429 . S
C2119 C2120 1.523 . S
C2120 C2101 1.368 . S
C2120 C2114 1.368 1_565 S
C2120 C2119 1.523 . S
C2121 C2105 1.429 . S
C2121 C2117 1.429 . S
C2121 C2122 1.523 . S
C2122 C2106 1.368 . S
C2122 C2118 1.368 1_545 S
C2122 C2121 1.523 . S
H2123 C2098 0.950 1_545 S
H2124 C2100 0.950 . S
H2125 C2101 0.949 . S
H2126 C2103 0.951 . S
H2127 C2105 0.950 1_565 S
C2128 C2129 1.349 1_545 S
C2128 C2130 1.327 . S
C2128 H2153 0.950 . S
C2129 C2128 1.349 1_565 S
C2129 C2145 1.349 . S
C2130 C2128 1.327 . S
C2130 C2149 1.429 1_545 S
C2130 H2154 0.950 . S
C2131 C2148 1.574 . S
C2131 C2150 1.368 1_565 S
C2131 H2155 0.949 . S
H2132 C2136 0.949 . S
C2133 C2134 1.349 . S
C2133 C2135 1.327 . S
C2133 H2156 0.950 . S
C2134 C2133 1.349 . S
C2134 C2146 1.349 . S
C2135 C2133 1.327 . S
C2135 C2151 1.429 . S
C2135 H2157 0.950 1_545 S
C2136 H2132 0.949 . S
C2136 C2144 1.574 . S
C2136 C2152 1.368 . S
H2137 C2145 0.950 . S
H2138 C2143 0.950 . S
H2139 C2144 0.949 . S
H2140 C2146 0.950 . S
H2141 C2147 0.950 . S
H2142 C2148 0.949 . S
C2143 H2138 0.950 . S
C2143 C2145 1.327 . S
C2143 C2149 1.429 . S
C2144 C2136 1.574 . S
C2144 H2139 0.949 . S
C2144 C2150 1.368 . S
C2145 C2129 1.349 . S
C2145 H2137 0.950 . S
C2145 C2143 1.327 . S
C2146 C2134 1.349 . S
C2146 H2140 0.950 . S
C2146 C2147 1.327 . S
C2147 H2141 0.950 . S
C2147 C2146 1.327 . S
C2147 C2151 1.429 . S
C2148 C2131 1.574 . S
C2148 H2142 0.949 . S
C2148 C2152 1.368 1_565 S
C2149 C2130 1.429 1_565 S
C2149 C2143 1.429 . S
C2149 C2150 1.523 1_565 S
C2150 C2131 1.368 1_545 S
C2150 C2144 1.368 . S
C2150 C2149 1.523 1_545 S
C2151 C2135 1.429 . S
C2151 C2147 1.429 . S
C2151 C2152 1.523 . S
C2152 C2136 1.368 . S
C2152 C2148 1.368 1_545 S
C2152 C2151 1.523 . S
H2153 C2128 0.950 . S
H2154 C2130 0.950 . S
H2155 C2131 0.949 . S
H2156 C2133 0.950 . S
H2157 C2135 0.950 1_565 S
C2158 C2159 1.349 . S
C2158 C2160 1.327 . S
C2158 H2183 0.950 . S
C2159 C2158 1.349 . S
C2159 C2175 1.349 . S
C2160 C2158 1.327 . S
C2160 C2179 1.429 . S
C2160 H2184 0.950 . S
C2161 C2178 1.574 . S
C2161 C2180 1.368 . S
C2161 H2185 0.949 . S
H2162 C2166 0.949 . S
C2163 C2164 1.349 1_565 S
C2163 C2165 1.327 . S
C2163 H2186 0.950 . S
C2164 C2163 1.349 1_545 S
C2164 C2176 1.349 . S
C2165 C2163 1.327 . S
C2165 C2181 1.429 . S
C2165 H2187 0.950 . S
C2166 H2162 0.949 . S
C2166 C2174 1.574 . S
C2166 C2182 1.368 . S
H2167 C2175 0.950 . S
H2168 C2173 0.950 . S
H2169 C2174 0.949 . S
H2170 C2176 0.950 . S
H2171 C2177 0.950 . S
H2172 C2178 0.949 . S
C2173 H2168 0.950 . S
C2173 C2175 1.327 . S
C2173 C2179 1.429 . S
C2174 C2166 1.574 . S
C2174 H2169 0.949 . S
C2174 C2180 1.368 . S
C2175 C2159 1.349 . S
C2175 H2167 0.950 . S
C2175 C2173 1.327 . S
C2176 C2164 1.349 . S
C2176 H2170 0.950 . S
C2176 C2177 1.327 . S
C2177 H2171 0.950 . S
C2177 C2176 1.327 . S
C2177 C2181 1.429 1_545 S
C2178 C2161 1.574 . S
C2178 H2172 0.949 . S
C2178 C2182 1.368 . S
C2179 C2160 1.429 . S
C2179 C2173 1.429 . S
C2179 C2180 1.523 . S
C2180 C2161 1.368 . S
C2180 C2174 1.368 . S
C2180 C2179 1.523 . S
C2181 C2165 1.429 . S
C2181 C2177 1.429 1_565 S
C2181 C2182 1.523 . S
C2182 C2166 1.368 . S
C2182 C2178 1.368 . S
C2182 C2181 1.523 . S
H2183 C2158 0.950 . S
H2184 C2160 0.950 . S
H2185 C2161 0.949 . S
H2186 C2163 0.950 . S
H2187 C2165 0.950 . S
C2188 C2189 1.349 . S
C2188 C2190 1.327 . S
C2188 H2213 0.950 . S
C2189 C2188 1.349 . S
C2189 C2205 1.349 1_545 S
C2190 C2188 1.327 . S
C2190 C2209 1.429 . S
C2190 H2214 0.950 . S
C2191 C2208 1.574 . S
C2191 C2210 1.368 . S
C2191 H2215 0.949 . S
H2192 C2196 0.949 . S
C2193 C2194 1.349 . S
C2193 C2195 1.327 . S
C2193 H2216 0.950 . S
C2194 C2193 1.349 . S
C2194 C2206 1.349 . S
C2195 C2193 1.327 . S
C2195 C2211 1.429 . S
C2195 H2217 0.950 . S
C2196 H2192 0.949 . S
C2196 C2204 1.574 . S
C2196 C2212 1.368 1_545 S
H2197 C2205 0.950 . S
H2198 C2203 0.950 . S
H2199 C2204 0.949 . S
H2200 C2206 0.950 1_545 S
H2201 C2207 0.950 . S
H2202 C2208 0.949 . S
C2203 H2198 0.950 . S
C2203 C2205 1.327 . S
C2203 C2209 1.429 1_565 S
C2204 C2196 1.574 . S
C2204 H2199 0.949 . S
C2204 C2210 1.368 1_545 S
C2205 C2189 1.349 1_565 S
C2205 H2197 0.950 . S
C2205 C2203 1.327 . S
C2206 C2194 1.349 . S
C2206 H2200 0.950 1_565 S
C2206 C2207 1.327 1_565 S
C2207 H2201 0.950 . S
C2207 C2206 1.327 1_545 S
C2207 C2211 1.429 1_545 S
C2208 C2191 1.574 . S
C2208 H2202 0.949 . S
C2208 C2212 1.368 . S
C2209 C2190 1.429 . S
C2209 C2203 1.429 1_545 S
C2209 C2210 1.523 1_545 S
C2210 C2191 1.368 . S
C2210 C2204 1.368 1_565 S
C2210 C2209 1.523 1_565 S
C2211 C2195 1.429 . S
C2211 C2207 1.429 1_565 S
C2211 C2212 1.523 . S
C2212 C2196 1.368 1_565 S
C2212 C2208 1.368 . S
C2212 C2211 1.523 . S
H2213 C2188 0.950 . S
H2214 C2190 0.950 . S
H2215 C2191 0.949 . S
H2216 C2193 0.950 . S
H2217 C2195 0.950 . S
C2218 C2219 1.349 . S
C2218 C2220 1.327 . S
C2218 H2243 0.950 . S
C2219 C2218 1.349 . S
C2219 C2235 1.349 1_565 S
C2220 C2218 1.327 . S
C2220 C2239 1.429 1_565 S
C2220 H2244 0.950 . S
C2221 C2238 1.574 . S
C2221 C2240 1.368 . S
C2221 H2245 0.949 . S
H2222 C2226 0.949 . S
C2223 C2224 1.349 . S
C2223 C2225 1.327 . S
C2223 H2246 0.950 . S
C2224 C2223 1.349 . S
C2224 C2236 1.349 . S
C2225 C2223 1.327 . S
C2225 C2241 1.429 . S
C2225 H2247 0.950 . S
C2226 H2222 0.949 . S
C2226 C2234 1.574 . S
C2226 C2242 1.368 . S
H2227 C2235 0.950 . S
H2228 C2233 0.950 . S
H2229 C2234 0.949 . S
H2230 C2236 0.950 . S
H2231 C2237 0.950 . S
H2232 C2238 0.949 . S
C2233 H2228 0.950 . S
C2233 C2235 1.327 . S
C2233 C2239 1.429 . S
C2234 C2226 1.574 . S
C2234 H2229 0.949 . S
C2234 C2240 1.368 . S
C2235 C2219 1.349 1_545 S
C2235 H2227 0.950 . S
C2235 C2233 1.327 . S
C2236 C2224 1.349 . S
C2236 H2230 0.950 . S
C2236 C2237 1.327 . S
C2237 H2231 0.950 . S
C2237 C2236 1.327 . S
C2237 C2241 1.429 . S
C2238 C2221 1.574 . S
C2238 H2232 0.949 . S
C2238 C2242 1.368 . S
C2239 C2220 1.429 1_545 S
C2239 C2233 1.429 . S
C2239 C2240 1.523 . S
C2240 C2221 1.368 . S
C2240 C2234 1.368 . S
C2240 C2239 1.523 . S
C2241 C2225 1.429 . S
C2241 C2237 1.429 . S
C2241 C2242 1.523 . S
C2242 C2226 1.368 . S
C2242 C2238 1.368 . S
C2242 C2241 1.523 . S
H2243 C2218 0.950 . S
H2244 C2220 0.950 . S
H2245 C2221 0.949 . S
H2246 C2223 0.950 . S
H2247 C2225 0.950 . S
C2248 C2249 1.349 . S
C2248 C2250 1.327 . S
C2248 H2273 0.950 . S
C2249 C2248 1.349 . S
C2249 C2265 1.349 . S
C2250 C2248 1.327 . S
C2250 C2269 1.429 . S
C2250 H2274 0.950 . S
C2251 C2268 1.574 . S
C2251 C2270 1.368 . S
C2251 H2275 0.949 . S
H2252 C2256 0.949 1_565 S
C2253 C2254 1.349 1_545 S
C2253 C2255 1.327 . S
C2253 H2276 0.950 . S
C2254 C2253 1.349 1_565 S
C2254 C2266 1.349 . S
C2255 C2253 1.327 . S
C2255 C2271 1.429 . S
C2255 H2277 0.950 . S
C2256 H2252 0.949 1_545 S
C2256 C2264 1.574 . S
C2256 C2272 1.368 . S
H2257 C2265 0.950 . S
H2258 C2263 0.950 . S
H2259 C2264 0.949 . S
H2260 C2266 0.950 . S
H2261 C2267 0.950 . S
H2262 C2268 0.949 . S
C2263 H2258 0.950 . S
C2263 C2265 1.327 . S
C2263 C2269 1.429 . S
C2264 C2256 1.574 . S
C2264 H2259 0.949 . S
C2264 C2270 1.368 . S
C2265 C2249 1.349 . S
C2265 H2257 0.950 . S
C2265 C2263 1.327 . S
C2266 C2254 1.349 . S
C2266 H2260 0.950 . S
C2266 C2267 1.327 . S
C2267 H2261 0.950 . S
C2267 C2266 1.327 . S
C2267 C2271 1.429 1_565 S
C2268 C2251 1.574 . S
C2268 H2262 0.949 . S
C2268 C2272 1.368 . S
C2269 C2250 1.429 . S
C2269 C2263 1.429 . S
C2269 C2270 1.523 . S
C2270 C2251 1.368 . S
C2270 C2264 1.368 . S
C2270 C2269 1.523 . S
C2271 C2255 1.429 . S
C2271 C2267 1.429 1_545 S
C2271 C2272 1.523 . S
C2272 C2256 1.368 . S
C2272 C2268 1.368 . S
C2272 C2271 1.523 . S
H2273 C2248 0.950 . S
H2274 C2250 0.950 . S
H2275 C2251 0.949 . S
H2276 C2253 0.950 . S
H2277 C2255 0.950 . S
C2278 C2279 1.349 . S
C2278 C2280 1.327 1_545 S
C2278 H2303 0.950 1_545 S
C2279 C2278 1.349 . S
C2279 C2295 1.349 . S
C2280 C2278 1.327 1_565 S
C2280 C2299 1.429 1_565 S
C2280 H2304 0.950 . S
C2281 C2298 1.574 . S
C2281 C2300 1.368 . S
C2281 H2305 0.949 . S
H2282 C2286 0.949 . S
C2283 C2284 1.349 . S
C2283 C2285 1.327 . S
C2283 H2306 0.950 . S
C2284 C2283 1.349 . S
C2284 C2296 1.349 . S
C2285 C2283 1.327 . S
C2285 C2301 1.429 . S
C2285 H2307 0.950 1_565 S
C2286 H2282 0.949 . S
C2286 C2294 1.574 . S
C2286 C2302 1.368 . S
H2287 C2295 0.950 . S
H2288 C2293 0.950 . S
H2289 C2294 0.949 . S
H2290 C2296 0.950 . S
H2291 C2297 0.950 . S
H2292 C2298 0.949 . S
C2293 H2288 0.950 . S
C2293 C2295 1.327 . S
C2293 C2299 1.429 . S
C2294 C2286 1.574 . S
C2294 H2289 0.949 . S
C2294 C2300 1.368 1_565 S
C2295 C2279 1.349 . S
C2295 H2287 0.950 . S
C2295 C2293 1.327 . S
C2296 C2284 1.349 . S
C2296 H2290 0.950 . S
C2296 C2297 1.327 . S
C2297 H2291 0.950 . S
C2297 C2296 1.327 . S
C2297 C2301 1.429 . S
C2298 C2281 1.574 . S
C2298 H2292 0.949 . S
C2298 C2302 1.368 1_545 S
C2299 C2280 1.429 1_545 S
C2299 C2293 1.429 . S
C2299 C2300 1.523 . S
C2300 C2281 1.368 . S
C2300 C2294 1.368 1_545 S
C2300 C2299 1.523 . S
C2301 C2285 1.429 . S
C2301 C2297 1.429 . S
C2301 C2302 1.523 . S
C2302 C2286 1.368 . S
C2302 C2298 1.368 1_565 S
C2302 C2301 1.523 . S
H2303 C2278 0.950 1_565 S
H2304 C2280 0.950 . S
H2305 C2281 0.949 . S
H2306 C2283 0.950 . S
H2307 C2285 0.950 1_545 S
C2308 C2309 1.349 . S
C2308 C2310 1.327 . S
C2308 H2333 0.950 . S
C2309 C2308 1.349 . S
C2309 C2325 1.349 . S
C2310 C2308 1.327 . S
C2310 C2329 1.429 . S
C2310 H2334 0.950 . S
C2311 C2328 1.574 . S
C2311 C2330 1.368 . S
C2311 H2335 0.949 . S
H2312 C2316 0.949 . S
C2313 C2314 1.349 1_565 S
C2313 C2315 1.327 . S
C2313 H2336 0.950 1_565 S
C2314 C2313 1.349 1_545 S
C2314 C2326 1.349 . S
C2315 C2313 1.327 . S
C2315 C2331 1.429 . S
C2315 H2337 0.950 . S
C2316 H2312 0.949 . S
C2316 C2324 1.574 . S
C2316 C2332 1.368 . S
H2317 C2325 0.950 . S
H2318 C2323 0.950 . S
H2319 C2324 0.949 . S
H2320 C2326 0.950 . S
H2321 C2327 0.950 . S
H2322 C2328 0.949 . S
C2323 H2318 0.950 . S
C2323 C2325 1.327 . S
C2323 C2329 1.429 . S
C2324 C2316 1.574 . S
C2324 H2319 0.949 . S
C2324 C2330 1.368 . S
C2325 C2309 1.349 . S
C2325 H2317 0.950 . S
C2325 C2323 1.327 . S
C2326 C2314 1.349 . S
C2326 H2320 0.950 . S
C2326 C2327 1.327 1_545 S
C2327 H2321 0.950 . S
C2327 C2326 1.327 1_565 S
C2327 C2331 1.429 . S
C2328 C2311 1.574 . S
C2328 H2322 0.949 . S
C2328 C2332 1.368 . S
C2329 C2310 1.429 . S
C2329 C2323 1.429 . S
C2329 C2330 1.523 . S
C2330 C2311 1.368 . S
C2330 C2324 1.368 . S
C2330 C2329 1.523 . S
C2331 C2315 1.429 . S
C2331 C2327 1.429 . S
C2331 C2332 1.523 . S
C2332 C2316 1.368 . S
C2332 C2328 1.368 . S
C2332 C2331 1.523 . S
H2333 C2308 0.950 . S
H2334 C2310 0.950 . S
H2335 C2311 0.949 . S
H2336 C2313 0.950 1_545 S
H2337 C2315 0.950 . S
C2338 C2339 1.349 . S
C2338 C2340 1.327 . S
C2338 H2363 0.950 . S
C2339 C2338 1.349 . S
C2339 C2355 1.351 . S
C2340 C2338 1.327 . S
C2340 C2359 1.429 . S
C2340 H2364 0.950 . S
C2341 C2358 1.574 . S
C2341 C2360 1.368 1_545 S
C2341 H2365 0.949 . S
H2342 C2346 0.949 . S
C2343 C2344 1.349 . S
C2343 C2345 1.327 . S
C2343 H2366 0.950 . S
C2344 C2343 1.349 . S
C2344 C2356 1.349 . S
C2345 C2343 1.327 . S
C2345 C2361 1.429 . S
C2345 H2367 0.950 . S
C2346 H2342 0.949 . S
C2346 C2354 1.574 . S
C2346 C2362 1.368 1_565 S
H2347 C2355 0.948 1_545 S
H2348 C2353 0.950 . S
H2349 C2354 0.949 . S
H2350 C2356 0.950 1_565 S
H2351 C2357 0.950 1_565 S
H2352 C2358 0.949 . S
C2353 H2348 0.950 . S
C2353 C2355 1.327 1_545 S
C2353 C2359 1.429 1_545 S
C2354 C2346 1.574 . S
C2354 H2349 0.949 . S
C2354 C2360 1.368 . S
C2355 C2339 1.351 . S
C2355 H2347 0.948 1_565 S
C2355 C2353 1.327 1_565 S
C2356 C2344 1.349 . S
C2356 H2350 0.950 1_545 S
C2356 C2357 1.327 . S
C2357 H2351 0.950 1_545 S
C2357 C2356 1.327 . S
C2357 C2361 1.429 . S
C2358 C2341 1.574 . S
C2358 H2352 0.949 . S
C2358 C2362 1.368 . S
C2359 C2340 1.429 . S
C2359 C2353 1.429 1_565 S
C2359 C2360 1.523 . S
C2360 C2341 1.368 1_565 S
C2360 C2354 1.368 . S
C2360 C2359 1.523 . S
C2361 C2345 1.429 . S
C2361 C2357 1.429 . S
C2361 C2362 1.523 . S
C2362 C2346 1.368 1_545 S
C2362 C2358 1.368 . S
C2362 C2361 1.523 . S
H2363 C2338 0.950 . S
H2364 C2340 0.950 . S
H2365 C2341 0.949 . S
H2366 C2343 0.950 . S
H2367 C2345 0.950 . S
C449 C3 1.360 . S
C454 C31 1.378 . S
C479 C45 2.302 . S
C484 C17 2.363 . S
C509 C87 1.379 . S
C514 C59 1.359 . S
C539 C101 2.302 . S
C544 C73 2.364 . S
C569 C115 1.402 . S
C574 C143 1.403 . S
C599 C157 2.417 . S
C604 C129 2.453 . S
C629 C171 1.402 . S
C634 C199 1.403 . S
C659 C213 2.417 . S
C664 C185 2.453 . S
C689 C227 1.343 . S
C694 C255 1.362 . S
C719 C241 2.364 . S
C724 C269 2.301 . S
C749 C311 1.362 . S
C754 C283 1.343 . S
C779 C297 2.363 . S
C784 C325 2.301 . S
C809 C367 1.377 . S
C814 C339 1.375 . S
C839 C381 2.384 . S
C844 C353 2.420 . S
C869 C423 1.377 . S
C874 C395 1.374 . S
C899 C409 2.420 . S
C904 C437 2.383 . S
C929 C358 1.354 . S
C934 C8 1.361 . S
C959 C22 1.182 . S
C964 C344 1.169 . S
C989 C36 1.395 . S
C994 C386 1.414 . S
C1019 C50 1.089 . S
C1024 C372 1.094 . S
C1049 C414 1.354 . S
C1054 C64 1.361 . S
C1079 C78 1.182 . S
C1084 C400 1.169 . S
C1109 C92 1.395 . S
C1114 C442 1.414 . S
C1139 C428 1.101 . S
C1144 C106 1.083 . S
C1169 C120 1.352 . S
C1174 C246 1.360 . S
C1199 C134 1.268 . S
C1204 C232 1.267 . S
C1229 C148 1.235 . S
C1234 C274 1.223 . S
C1259 C162 1.235 . S
C1264 C260 1.213 . S
C1289 C176 1.352 . S
C1294 C302 1.360 . S
C1319 C288 1.274 . S
C1324 C190 1.262 . S
C1349 C330 1.222 . S
C1354 C204 1.235 . S
C1379 C218 1.235 . S
C1384 C316 1.213 . S
C1409 C7 0.995 . S
C1414 C63 0.995 . S
C1439 C21 2.455 . S
C1444 C413 2.449 . S
C1469 C35 1.397 . S
C1474 C203 1.396 . S
C1499 C49 2.854 . S
C1504 C329 2.850 . S
C1529 C77 2.455 . S
C1534 C357 2.449 . S
C1559 C147 1.396 . S
C1564 C91 1.396 . S
C1589 C273 2.850 . S
C1594 C105 2.854 . S
C1619 C175 1.333 . S
C1624 C119 1.333 . S
C1649 C133 2.464 . S
C1654 C301 2.464 . S
C1679 C441 2.734 1_545 S
C1684 C161 2.734 1_565 S
C1709 C189 2.464 . S
C1714 C245 2.464 . S
C1739 C217 2.735 1_545 S
C1744 C385 2.733 1_565 S
C1769 C287 0.989 . S
C1774 C231 0.985 . S
C1799 C259 1.378 1_655 S
C1804 C427 1.375 1_455 S
C1829 C371 1.378 1_655 S
C1834 C315 1.375 1_455 S
C1859 C399 1.284 1_455 S
C1864 C343 1.281 1_655 S
C1889 C9 1.127 . S
C1894 C23 1.098 . S
C1919 C37 1.330 . S
C1924 C51 1.372 . S
C1949 C65 1.127 . S
C1954 C79 1.098 . S
C1979 C93 1.330 . S
C1984 C107 1.371 . S
C2009 C135 1.319 . S
C2014 C121 1.273 . S
C2039 C149 1.047 . S
C2044 C163 1.026 . S
C2069 C177 1.273 . S
C2074 C191 1.319 . S
C2099 C205 1.047 . S
C2104 C219 1.026 . S
C2129 C233 1.214 . S
C2134 C247 1.185 . S
C2159 C275 1.510 . S
C2164 C261 1.471 . S
C2189 C289 1.214 . S
C2194 C303 1.185 . S
C2219 C317 1.464 . S
C2224 C331 1.517 . S
C2249 C359 1.474 . S
C2254 C345 1.432 1_565 S
C2279 C373 1.179 . S
C2284 C387 1.159 . S
C2309 C415 1.474 . S
C2314 C401 1.431 1_545 S
C2339 C429 1.179 . S
C2344 C443 1.159 . S
