# Generated by pormake.
# Topology mmt, (4)-cn, num edge types: 1
# Building blocks:
#     Node 0, Type 0, BuildingBlock: NAHDIM_clean_sbu_0, # of connection points: 4
#     Node 1, Type 0, BuildingBlock: NAHDIM_clean_sbu_0, # of connection points: 4
#     Node 2, Type 0, BuildingBlock: NAHDIM_clean_sbu_0, # of connection points: 4
#     Node 3, Type 0, BuildingBlock: NAHDIM_clean_sbu_0, # of connection points: 4
#     Node 4, Type 0, BuildingBlock: NAHDIM_clean_sbu_0, # of connection points: 4
#     Node 5, Type 0, BuildingBlock: NAHDIM_clean_sbu_0, # of connection points: 4
#     Node 6, Type 0, BuildingBlock: NAHDIM_clean_sbu_0, # of connection points: 4
#     Node 7, Type 0, BuildingBlock: NAHDIM_clean_sbu_0, # of connection points: 4
#     Edge 8, Type (0, 0), BuildingBlock: MIFKUJ_clean_linker_0, # of connection points: 2
#     Edge 9, Type (0, 0), BuildingBlock: MIFKUJ_clean_linker_0, # of connection points: 2
#     Edge 10, Type (0, 0), BuildingBlock: MIFKUJ_clean_linker_0, # of connection points: 2
#     Edge 11, Type (0, 0), BuildingBlock: MIFKUJ_clean_linker_0, # of connection points: 2
#     Edge 12, Type (0, 0), BuildingBlock: MIFKUJ_clean_linker_0, # of connection points: 2
#     Edge 13, Type (0, 0), BuildingBlock: MIFKUJ_clean_linker_0, # of connection points: 2
#     Edge 14, Type (0, 0), BuildingBlock: MIFKUJ_clean_linker_0, # of connection points: 2
#     Edge 15, Type (0, 0), BuildingBlock: MIFKUJ_clean_linker_0, # of connection points: 2
#     Edge 16, Type (0, 0), BuildingBlock: MIFKUJ_clean_linker_0, # of connection points: 2
#     Edge 17, Type (0, 0), BuildingBlock: MIFKUJ_clean_linker_0, # of connection points: 2
#     Edge 18, Type (0, 0), BuildingBlock: MIFKUJ_clean_linker_0, # of connection points: 2
#     Edge 19, Type (0, 0), BuildingBlock: MIFKUJ_clean_linker_0, # of connection points: 2
#     Edge 20, Type (0, 0), BuildingBlock: MIFKUJ_clean_linker_0, # of connection points: 2
#     Edge 21, Type (0, 0), BuildingBlock: MIFKUJ_clean_linker_0, # of connection points: 2
#     Edge 22, Type (0, 0), BuildingBlock: MIFKUJ_clean_linker_0, # of connection points: 2
#     Edge 23, Type (0, 0), BuildingBlock: MIFKUJ_clean_linker_0, # of connection points: 2
# Relax obj value: 0.080
# Max RMSD: 0.131
# Mean RMSD: 0.131
data_MOF--net-mmt--node1-NAHDIM_clean_sbu_0--edge1-MIFKUJ_clean_linker_0
_symmetry_space_group_name_H-M    P1
_symmetry_Int_Tables_number       1
_symmetry_cell_setting            triclinic
loop_
_symmetry_equiv_pos_as_xyz
'x, y, z'
_cell_length_a     28.579407
_cell_length_b     48.853694
_cell_length_c     56.949603
_cell_angle_alpha  90.076198
_cell_angle_beta   90.088667
_cell_angle_gamma 89.966913
loop_
_atom_site_label
_atom_site_type_symbol
_atom_site_fract_x
_atom_site_fract_y
_atom_site_fract_z
_atom_type_partial_charge
C0 C 0.13056 0.55348 0.40229 0.0
O1 O 0.14744 0.57848 0.4029 0.0
O2 O 0.16891 0.59594 0.35614 0.0
Zn3 Zn 0.15659 0.55532 0.35293 0.0
O4 O 0.1067 0.54867 0.32848 0.0
C5 C 0.24535 0.54821 0.33069 0.0
O6 O 0.23798 0.57401 0.32535 0.0
O7 O 0.13226 0.53995 0.38324 0.0
C8 C 0.11492 0.5443 0.30685 0.0
O9 O 0.15835 0.54385 0.29938 0.0
C10 C 0.15192 0.61313 0.34171 0.0
O11 O 0.12509 0.60439 0.32454 0.0
O12 O 0.21549 0.53569 0.34322 0.0
C13 C 0.40657 0.93918 0.39217 0.0
O14 O 0.41455 0.91373 0.38584 0.0
O15 O 0.33131 0.90253 0.35215 0.0
Zn16 Zn 0.35716 0.94057 0.34822 0.0
O17 O 0.40823 0.94021 0.32384 0.0
C18 C 0.26652 0.96784 0.34632 0.0
O19 O 0.25726 0.95373 0.36538 0.0
O20 O 0.38258 0.95453 0.37878 0.0
C21 C 0.39735 0.9427 0.30228 0.0
O22 O 0.35304 0.94496 0.29645 0.0
C23 C 0.30204 0.89323 0.33733 0.0
O24 O 0.28872 0.90883 0.31979 0.0
O25 O 0.30655 0.96569 0.33686 0.0
C26 C 0.59198 0.44598 0.10732 0.0
O27 O 0.56347 0.43498 0.12271 0.0
O28 O 0.67731 0.39852 0.14447 0.0
Zn29 Zn 0.65624 0.43773 0.145 0.0
O30 O 0.60278 0.44275 0.16754 0.0
C31 C 0.70965 0.4751 0.17408 0.0
O32 O 0.67022 0.47676 0.1858 0.0
O33 O 0.63476 0.44933 0.1128 0.0
C34 C 0.59433 0.42789 0.18533 0.0
O35 O 0.62156 0.40689 0.18994 0.0
C36 C 0.65144 0.37843 0.13879 0.0
O37 O 0.60773 0.38289 0.13276 0.0
O38 O 0.71141 0.46044 0.15564 0.0
C39 C 0.91771 0.04722 0.10974 0.0
O40 O 0.93902 0.0666 0.12167 0.0
O41 O 0.82915 0.08807 0.14507 0.0
Zn42 Zn 0.85584 0.05029 0.14887 0.0
O43 O 0.90749 0.05069 0.17278 0.0
C44 C 0.76633 0.02265 0.15052 0.0
O45 O 0.75887 0.03543 0.13057 0.0
O46 O 0.88052 0.03677 0.118 0.0
C47 C 0.8976 0.05089 0.19453 0.0
O48 O 0.8535 0.05123 0.20101 0.0
C49 C 0.8528 0.10932 0.15006 0.0
O50 O 0.89601 0.10657 0.15761 0.0
O51 O 0.80544 0.02552 0.16082 0.0
C52 C 0.85415 0.45015 0.59292 0.0
O53 O 0.83079 0.42715 0.59068 0.0
O54 O 0.81195 0.40593 0.63792 0.0
Zn55 Zn 0.83133 0.4451 0.64263 0.0
O56 O 0.88076 0.44839 0.66766 0.0
C57 C 0.75661 0.4569 0.67234 0.0
O58 O 0.77308 0.4341 0.68137 0.0
O59 O 0.85739 0.46136 0.613 0.0
C60 C 0.89095 0.43088 0.68336 0.0
O61 O 0.86892 0.4073 0.68384 0.0
C62 C 0.84055 0.38667 0.63356 0.0
O63 O 0.88537 0.39222 0.63167 0.0
O64 O 0.77576 0.46648 0.654 0.0
C65 C 0.60208 0.05285 0.60344 0.0
O66 O 0.58981 0.07753 0.61021 0.0
O67 O 0.68037 0.09305 0.64049 0.0
Zn68 Zn 0.6563 0.05485 0.64594 0.0
O69 O 0.60496 0.0553 0.67004 0.0
C70 C 0.747 0.04085 0.66467 0.0
O71 O 0.75259 0.06752 0.66414 0.0
O72 O 0.63067 0.03923 0.61592 0.0
C73 C 0.6139 0.05414 0.69188 0.0
O74 O 0.65768 0.05314 0.69889 0.0
C75 C 0.65588 0.11432 0.64423 0.0
O76 O 0.61254 0.11164 0.65154 0.0
O77 O 0.70866 0.03063 0.6575 0.0
C78 C 0.39797 0.54082 0.88925 0.0
O79 O 0.42408 0.55356 0.87377 0.0
O80 O 0.31061 0.591 0.85765 0.0
Zn81 Zn 0.32925 0.55148 0.85424 0.0
O82 O 0.3791 0.54706 0.82974 0.0
C83 C 0.24602 0.54117 0.82904 0.0
O84 O 0.25548 0.56619 0.82208 0.0
O85 O 0.35471 0.53733 0.8849 0.0
C86 C 0.38449 0.56168 0.81152 0.0
O87 O 0.35553 0.58201 0.80739 0.0
C88 C 0.33937 0.61077 0.85896 0.0
O89 O 0.3845 0.6057 0.85856 0.0
O90 O 0.27312 0.52975 0.84378 0.0
C91 C 0.09487 0.94981 0.88872 0.0
O92 O 0.06962 0.93225 0.87666 0.0
O93 O 0.18012 0.90504 0.85263 0.0
Zn94 Zn 0.15412 0.94309 0.84901 0.0
O95 O 0.09927 0.94287 0.82696 0.0
C96 C 0.24478 0.96829 0.84274 0.0
O97 O 0.25569 0.95416 0.86159 0.0
O98 O 0.13372 0.95781 0.88037 0.0
C99 C 0.10189 0.93179 0.80681 0.0
O100 O 0.14097 0.91965 0.80054 0.0
C101 C 0.15393 0.88404 0.85219 0.0
O102 O 0.10859 0.8872 0.84954 0.0
O103 O 0.20333 0.96706 0.83475 0.0
H104 H 0.30151 0.56567 0.29519 0.0
H105 H 0.3594 0.53902 0.27354 0.0
H106 H 0.33521 0.4699 0.31889 0.0
H107 H 0.27635 0.49635 0.34061 0.0
H108 H 0.43554 0.48346 0.30658 0.0
H109 H 0.2858 0.46355 0.27238 0.0
H110 H 0.20813 0.47576 0.25664 0.0
H111 H 0.27282 0.52286 0.20201 0.0
H112 H 0.35091 0.51134 0.21768 0.0
H113 H 0.56523 0.40123 0.22513 0.0
H114 H 0.50348 0.41557 0.25232 0.0
H115 H 0.4756 0.48624 0.20912 0.0
H116 H 0.53613 0.47185 0.18176 0.0
H117 H 0.39622 0.4642 0.22324 0.0
H118 H 0.54338 0.48984 0.25942 0.0
H119 H 0.62211 0.48104 0.27554 0.0
H120 H 0.56379 0.42581 0.32625 0.0
H121 H 0.48472 0.43403 0.31021 0.0
C122 C 0.30881 0.54493 0.30081 0.0
C123 C 0.2841 0.53304 0.31951 0.0
C124 C 0.34184 0.52974 0.28839 0.0
C125 C 0.35111 0.50251 0.29456 0.0
C126 C 0.32833 0.49091 0.31392 0.0
C127 C 0.29471 0.50602 0.32622 0.0
C128 C 0.38267 0.48598 0.27973 0.0
C129 C 0.42675 0.47865 0.2885 0.0
C130 C 0.37111 0.48019 0.25611 0.0
C131 C 0.32422 0.48674 0.24632 0.0
C132 C 0.28347 0.47668 0.25711 0.0
C133 C 0.23936 0.48346 0.24819 0.0
C134 C 0.23554 0.50012 0.22837 0.0
C135 C 0.27584 0.50997 0.21737 0.0
C136 C 0.32004 0.50329 0.22626 0.0
C137 C 0.5457 0.41972 0.22137 0.0
C138 C 0.55577 0.43547 0.20135 0.0
C139 C 0.51056 0.42793 0.23696 0.0
C140 C 0.48527 0.45213 0.23287 0.0
C141 C 0.49459 0.46747 0.21261 0.0
C142 C 0.52939 0.45924 0.19702 0.0
C143 C 0.4499 0.46222 0.24983 0.0
C144 C 0.4049 0.4684 0.24145 0.0
C145 C 0.46082 0.46714 0.27375 0.0
C146 C 0.50826 0.46228 0.28344 0.0
C147 C 0.54741 0.47565 0.27389 0.0
C148 C 0.59207 0.47081 0.28303 0.0
C149 C 0.59797 0.45281 0.30186 0.0
C150 C 0.55918 0.4397 0.31163 0.0
C151 C 0.51444 0.44445 0.30254 0.0
H152 H 0.63257 0.44908 0.30891 0.0
H153 H 0.20136 0.50537 0.2215 0.0
H154 H 0.99126 0.05834 0.18793 0.0
H155 H 0.05401 0.05067 0.21632 0.0
H156 H 0.95208 0.03019 0.26927 0.0
H157 H 0.88897 0.03864 0.24113 0.0
H158 H 0.02315 0.0583 0.28834 0.0
H159 H 0.00685 0.98012 0.23793 0.0
H160 H 0.00185 0.95571 0.20007 0.0
H161 H 0.13999 0.98308 0.18215 0.0
H162 H 0.14555 0.00798 0.21978 0.0
H163 H 0.17397 0.97249 0.3584 0.0
H164 H 0.11134 0.99332 0.33508 0.0
H165 H 0.21243 0.01898 0.28344 0.0
H166 H 0.275 -0.0018 0.30645 0.0
H167 H 0.14148 0.98936 0.26446 0.0
H168 H 0.1582 0.06564 0.31717 0.0
H169 H 0.16164 0.08843 0.35579 0.0
H170 H 0.02135 0.06231 0.37063 0.0
H171 H 0.01729 0.03902 0.33222 0.0
C172 C 0.98217 0.05248 0.20568 0.0
C173 C 0.93523 0.04872 0.21222 0.0
C174 C 0.01805 0.04807 0.22188 0.0
C175 C 0.00773 0.03931 0.24476 0.0
C176 C 0.96082 0.03685 0.25168 0.0
C177 C 0.92482 0.04158 0.23555 0.0
C178 C 0.04585 0.03096 0.2609 0.0
C179 C 0.04881 0.04305 0.28324 0.0
C180 C 0.07954 0.01123 0.25414 0.0
C181 C 0.07642 0.99613 0.23156 0.0
C182 C 0.03602 0.98109 0.22584 0.0
C183 C 0.03311 0.96715 0.20444 0.0
C184 C 0.07053 0.96791 0.18869 0.0
C185 C 0.111 0.98255 0.19435 0.0
C186 C 0.11407 0.99656 0.21572 0.0
C187 C 0.18295 0.98298 0.34229 0.0
C188 C 0.22938 0.98345 0.33416 0.0
C189 C 0.14715 0.99496 0.32904 0.0
C190 C 0.15733 0.00766 0.30755 0.0
C191 C 0.20388 0.00921 0.29996 0.0
C192 C 0.23959 0.99731 0.31316 0.0
C193 C 0.11928 0.01695 0.2918 0.0
C194 C 0.11609 0.00479 0.26954 0.0
C195 C 0.08526 0.03634 0.2988 0.0
C196 C 0.08762 0.05035 0.3219 0.0
C197 C 0.12822 0.06454 0.32875 0.0
C198 C 0.13026 0.0776 0.35059 0.0
C199 C 0.09178 0.07676 0.36568 0.0
C200 C 0.05115 0.06292 0.35894 0.0
C201 C 0.04895 0.04981 0.33712 0.0
H202 H 0.09342 0.08689 0.38258 0.0
H203 H 0.0682 0.9571 0.17213 0.0
H204 H 0.72079 0.49963 0.21674 0.0
H205 H 0.79306 0.51624 0.23432 0.0
H206 H 0.86821 0.49626 0.17089 0.0
H207 H 0.79592 0.47872 0.15335 0.0
H208 H 0.91382 0.4777 0.20713 0.0
H209 H 0.84747 0.56404 0.18786 0.0
H210 H 0.78669 0.59978 0.18554 0.0
H211 H 0.78101 0.60378 0.2608 0.0
H212 H 0.8413 0.5678 0.26359 0.0
H213 H 0.11955 0.53485 0.25948 0.0
H214 H 0.05419 0.52797 0.23228 0.0
H215 H 0.95664 0.53761 0.28944 0.0
H216 H 0.02148 0.54493 0.31662 0.0
H217 H 0.92825 0.56526 0.25074 0.0
H218 H 0.98709 0.47424 0.26889 0.0
H219 H 0.04855 0.43883 0.27086 0.0
H220 H 0.06914 0.44484 0.19637 0.0
H221 H 0.00815 0.48053 0.19402 0.0
C222 C 0.75251 0.49908 0.20636 0.0
C223 C 0.75261 0.4878 0.18365 0.0
C224 C 0.79386 0.50876 0.21642 0.0
C225 C 0.83605 0.50785 0.20384 0.0
C226 C 0.83606 0.49722 0.18091 0.0
C227 C 0.79471 0.48727 0.1709 0.0
C228 C 0.88047 0.51613 0.21537 0.0
C229 C 0.91732 0.49713 0.21621 0.0
C230 C 0.88494 0.54132 0.22751 0.0
C231 C 0.84876 0.56308 0.22592 0.0
C232 C 0.83305 0.57241 0.20392 0.0
C233 C 0.79871 0.59273 0.20252 0.0
C234 C 0.77995 0.60401 0.22301 0.0
C235 C 0.79557 0.59503 0.24494 0.0
C236 C 0.82989 0.57469 0.24644 0.0
C237 C 0.08417 0.53558 0.26625 0.0
C238 C 0.0757 0.54031 0.29024 0.0
C239 C 0.04689 0.5316 0.25069 0.0
C240 C 0.0006 0.53209 0.25889 0.0
C241 C 0.9921 0.53723 0.28274 0.0
C242 C 0.02925 0.54125 0.29828 0.0
C243 C 0.96074 0.52655 0.24292 0.0
C244 C 0.92487 0.54607 0.24127 0.0
C245 C 0.95726 0.50193 0.22994 0.0
C246 C 0.99346 0.48024 0.23132 0.0
C247 C 0.00495 0.46812 0.25296 0.0
C248 C 0.03966 0.44799 0.25414 0.0
C249 C 0.06284 0.43965 0.23376 0.0
C250 C 0.05122 0.45135 0.21214 0.0
C251 C 0.01657 0.47151 0.21088 0.0
H252 H 0.08973 0.42408 0.23471 0.0
H253 H 0.75336 0.61974 0.22188 0.0
H254 H 0.67657 0.01469 0.13498 0.0
H255 H 0.61161 0.99437 0.15679 0.0
H256 H 0.70455 0.97691 0.21464 0.0
H257 H 0.76968 0.99665 0.19287 0.0
H258 H 0.64268 0.93599 0.20859 0.0
H259 H 0.63834 0.03458 0.21435 0.0
H260 H 0.63564 0.08165 0.19878 0.0
H261 H 0.50546 0.06405 0.16418 0.0
H262 H 0.50773 0.01674 0.17931 0.0
H263 H 0.49229 0.93876 0.30798 0.0
H264 H 0.55258 0.94573 0.27816 0.0
H265 H 0.44575 0.95843 0.2257 0.0
H266 H 0.38527 0.95168 0.25537 0.0
H267 H 0.5103 -0.00127 0.22546 0.0
H268 H 0.51097 0.90095 0.22462 0.0
H269 H 0.5146 0.85461 0.24161 0.0
H270 H 0.6522 0.8711 0.26848 0.0
H271 H 0.64914 0.91771 0.25194 0.0
C272 C 0.68331 0.00617 0.1522 0.0
C273 C 0.72815 0.0076 0.16231 0.0
C274 C 0.64615 0.99462 0.16466 0.0
C275 C 0.65314 0.98454 0.18749 0.0
C276 C 0.69836 0.98461 0.19707 0.0
C277 C 0.73552 0.99604 0.18462 0.0
C278 C 0.61306 0.97584 0.20215 0.0
C279 C 0.61379 0.94971 0.21238 0.0
C280 C 0.57501 0.9936 0.20675 0.0
C281 C 0.57349 0.02205 0.19772 0.0
C282 C 0.60933 0.0407 0.20327 0.0
C283 C 0.60785 0.06742 0.19455 0.0
C284 C 0.57048 0.07581 0.18044 0.0
C285 C 0.53444 0.05751 0.17507 0.0
C286 C 0.53579 0.03074 0.18372 0.0
C287 C 0.48161 0.94276 0.29005 0.0
C288 C 0.43399 0.94481 0.28407 0.0
C289 C 0.5161 0.94658 0.27301 0.0
C290 C 0.50359 0.95242 0.24969 0.0
C291 C 0.45611 0.95391 0.24359 0.0
C292 C 0.42162 0.95002 0.26058 0.0
C293 C 0.54002 0.95894 0.2321 0.0
C294 C 0.53871 0.98477 0.22139 0.0
C295 C 0.57763 0.94097 0.22725 0.0
C296 C 0.57965 0.91292 0.23719 0.0
C297 C 0.54186 0.89479 0.23431 0.0
C298 C 0.54384 0.86845 0.24383 0.0
C299 C 0.58356 0.85994 0.25616 0.0
C300 C 0.62143 0.87773 0.25894 0.0
C301 C 0.61961 0.9041 0.24947 0.0
H302 H 0.58503 0.83954 0.26351 0.0
H303 H 0.56939 0.09651 0.17371 0.0
H304 H 0.44661 0.5196 0.81438 0.0
H305 H 0.51138 0.50938 0.78818 0.0
H306 H 0.47671 0.57974 0.74588 0.0
H307 H 0.41069 0.58997 0.77199 0.0
H308 H 0.49629 0.53525 0.71893 0.0
H309 H 0.57087 0.58251 0.78138 0.0
H310 H 0.58926 0.59415 0.82251 0.0
H311 H 0.64453 0.51343 0.83349 0.0
H312 H 0.62585 0.50115 0.79252 0.0
H313 H 0.71424 0.50499 0.65912 0.0
H314 H 0.6526 0.52986 0.68021 0.0
H315 H 0.65097 0.46701 0.73334 0.0
H316 H 0.71232 0.44226 0.71263 0.0
H317 H 0.65427 0.5184 0.75218 0.0
H318 H 0.56695 0.47 0.69133 0.0
H319 H 0.54755 0.45858 0.65025 0.0
H320 H 0.51723 0.5431 0.63622 0.0
H321 H 0.53703 0.55506 0.67718 0.0
C322 C 0.45264 0.533 0.79955 0.0
C323 C 0.42359 0.5557 0.79534 0.0
C324 C 0.4899 0.52719 0.78464 0.0
C325 C 0.49939 0.54409 0.76534 0.0
C326 C 0.47012 0.56656 0.76079 0.0
C327 C 0.43252 0.57238 0.77573 0.0
C328 C 0.53955 0.53761 0.74989 0.0
C329 C 0.53112 0.53218 0.72605 0.0
C330 C 0.58493 0.53352 0.75924 0.0
C331 C 0.59674 0.54088 0.78387 0.0
C332 C 0.5867 0.56718 0.79259 0.0
C333 C 0.5972 0.5739 0.81588 0.0
C334 C 0.618 0.55453 0.83061 0.0
C335 C 0.62844 0.52841 0.82206 0.0
C336 C 0.61797 0.52158 0.79879 0.0
C337 C 0.70057 0.49645 0.67525 0.0
C338 C 0.71816 0.47166 0.68422 0.0
C339 C 0.66537 0.51066 0.68723 0.0
C340 C 0.64728 0.50024 0.70831 0.0
C341 C 0.66465 0.47546 0.71716 0.0
C342 C 0.6996 0.46128 0.70523 0.0
C343 C 0.61045 0.51492 0.72154 0.0
C344 C 0.61967 0.52204 0.74496 0.0
C345 C 0.566 0.52069 0.71176 0.0
C346 C 0.55402 0.51346 0.6872 0.0
C347 C 0.55653 0.48617 0.67942 0.0
C348 C 0.54539 0.4796 0.65618 0.0
C349 C 0.53132 0.50012 0.64061 0.0
C350 C 0.52823 0.52724 0.64828 0.0
C351 C 0.53938 0.53392 0.67151 0.0
H352 H 0.5227 0.49499 0.62263 0.0
H353 H 0.62607 0.55976 0.84864 0.0
H354 H 0.83168 0.05663 0.68208 0.0
H355 H 0.89062 0.02811 0.70096 0.0
H356 H 0.80545 0.95653 0.68898 0.0
H357 H 0.74561 0.98512 0.67032 0.0
H358 H 0.83595 0.95729 0.73265 0.0
H359 H 0.90666 0.965 0.65827 0.0
H360 H 0.93465 0.98753 0.62223 0.0
H361 H 0.03165 0.03529 0.66277 0.0
H362 H 0.00379 0.01335 0.69912 0.0
H363 H 0.09575 0.91118 0.76214 0.0
H364 H 0.03272 0.91855 0.73367 0.0
H365 H 0.95693 0.966 0.78505 0.0
H366 H 0.01894 0.95826 0.81362 0.0
H367 H 0.00545 0.96447 0.71504 0.0
H368 H 0.84232 0.96298 0.77706 0.0
H369 H 0.814 0.93675 0.81114 0.0
H370 H 0.901 0.86885 0.79144 0.0
H371 H 0.92935 0.89449 0.75704 0.0
C372 C 0.82555 0.03479 0.68324 0.0
C373 C 0.7839 0.02316 0.67473 0.0
C374 C 0.85948 0.01847 0.69392 0.0
C375 C 0.85272 0.99013 0.69611 0.0
C376 C 0.81143 0.97835 0.68738 0.0
C377 C 0.77735 0.99471 0.67669 0.0
C378 C 0.88767 0.97339 0.70893 0.0
C379 C 0.87299 0.9586 0.72869 0.0
C380 C 0.93584 0.97432 0.70328 0.0
C381 C 0.95294 0.98758 0.68146 0.0
C382 C 0.93375 0.98043 0.65953 0.0
C383 C 0.94963 0.99308 0.63904 0.0
C384 C 0.98488 0.01285 0.64021 0.0
C385 C 0.00437 0.01997 0.66189 0.0
C386 C 0.98859 0.00739 0.68244 0.0
C387 C 0.06532 0.92285 0.76746 0.0
C388 C 0.06243 0.93423 0.79011 0.0
C389 C 0.02937 0.92706 0.75117 0.0
C390 C 0.98988 0.9426 0.75728 0.0
C391 C 0.98655 0.95345 0.78006 0.0
C392 C 0.02228 0.94917 0.79634 0.0
C393 C 0.9539 0.94963 0.73948 0.0
C394 C 0.96838 0.96262 0.71876 0.0
C395 C 0.9055 0.94645 0.74396 0.0
C396 C 0.88816 0.93076 0.76451 0.0
C397 C 0.8552 0.94239 0.7799 0.0
C398 C 0.83919 0.92763 0.7993 0.0
C399 C 0.85576 0.90117 0.80348 0.0
C400 C 0.8883 0.88938 0.78823 0.0
C401 C 0.9044 0.90404 0.76879 0.0
H402 H 0.84334 0.88979 0.81852 0.0
H403 H 0.99712 0.02262 0.62432 0.0
H404 H 0.2215 0.48732 0.83529 0.0
H405 H 0.15695 0.46267 0.8163 0.0
H406 H 0.11566 0.5368 0.78074 0.0
H407 H 0.17938 0.5615 0.79968 0.0
H408 H 0.04059 0.5094 0.79751 0.0
H409 H 0.18191 0.48856 0.75342 0.0
H410 H 0.26201 0.47054 0.74881 0.0
H411 H 0.21616 0.39133 0.77188 0.0
H412 H 0.13585 0.40902 0.77691 0.0
H413 H 0.93083 0.48059 0.69143 0.0
H414 H 0.98668 0.49287 0.722 0.0
H415 H 0.9864 0.40971 0.7473 0.0
H416 H 0.92986 0.3971 0.7166 0.0
H417 H 0.07726 0.43341 0.74261 0.0
H418 H 0.9319 0.4533 0.77924 0.0
H419 H 0.85194 0.47196 0.78204 0.0
H420 H 0.90505 0.55332 0.7722 0.0
H421 H 0.9853 0.53513 0.76896 0.0
C422 C 0.19839 0.49839 0.82357 0.0
C423 C 0.20571 0.52633 0.81888 0.0
C424 C 0.16165 0.48426 0.8127 0.0
C425 C 0.13177 0.49788 0.79699 0.0
C426 C 0.13826 0.52591 0.79285 0.0
C427 C 0.17489 0.53998 0.80362 0.0
C428 C 0.09468 0.48307 0.78396 0.0
C429 C 0.04857 0.49277 0.78552 0.0
C430 C 0.10488 0.4608 0.76887 0.0
C431 C 0.15308 0.45019 0.76584 0.0
C432 C 0.18902 0.46737 0.7577 0.0
C433 C 0.23442 0.4572 0.75497 0.0
C434 C 0.24421 0.42983 0.76013 0.0
C435 C 0.20856 0.41255 0.76795 0.0
C436 C 0.1631 0.42262 0.77074 0.0
C437 C 0.94258 0.46482 0.70343 0.0
C438 C 0.92579 0.43786 0.70162 0.0
C439 C 0.97435 0.47193 0.72097 0.0
C440 C 0.99014 0.45227 0.73704 0.0
C441 C 0.97433 0.42518 0.73509 0.0
C442 C 0.94204 0.41805 0.7176 0.0
C443 C 0.02365 0.46044 0.75558 0.0
C444 C 0.06901 0.44953 0.75506 0.0
C445 C 0.01283 0.48167 0.77158 0.0
C446 C 0.96465 0.49281 0.77374 0.0
C447 C 0.92652 0.47516 0.77751 0.0
C448 C 0.88113 0.48565 0.7792 0.0
C449 C 0.87341 0.5138 0.77727 0.0
C450 C 0.91109 0.53152 0.77369 0.0
C451 C 0.95655 0.52113 0.77197 0.0
H452 H 0.83824 0.52189 0.77858 0.0
H453 H 0.27938 0.422 0.758 0.0
H454 H 0.33817 0.97251 0.85299 0.0
H455 H 0.39904 0.99363 0.82894 0.0
H456 H 0.29463 0.01931 0.7788 0.0
H457 H 0.23368 -0.00194 0.80256 0.0
H458 H 0.36525 0.99264 0.75794 0.0
H459 H 0.35005 0.06589 0.81333 0.0
H460 H 0.34708 0.08707 0.85262 0.0
H461 H 0.48768 0.06045 0.86637 0.0
H462 H 0.49127 0.03876 0.82727 0.0
H463 H 0.52077 0.06321 0.6844 0.0
H464 H 0.45647 0.05516 0.71175 0.0
H465 H 0.55526 0.03076 0.76514 0.0
H466 H 0.61987 0.03956 0.7381 0.0
H467 H 0.48531 0.05934 0.78424 0.0
H468 H 0.49853 0.98317 0.73079 0.0
H469 H 0.50228 0.96112 0.69185 0.0
H470 H 0.36564 0.99214 0.67513 0.0
H471 H 0.36135 0.01468 0.71388 0.0
C472 C 0.32808 0.98296 0.83701 0.0
C473 C 0.28112 0.98343 0.82962 0.0
C474 C 0.36289 0.99514 0.82334 0.0
C475 C 0.35132 0.00812 0.80212 0.0
C476 C 0.30431 0.00936 0.7951 0.0
C477 C 0.26952 0.99722 0.80873 0.0
C478 C 0.38848 0.01848 0.78634 0.0
C479 C 0.39099 0.00762 0.76357 0.0
C480 C 0.42278 0.03742 0.79392 0.0
C481 C 0.42076 0.05048 0.81744 0.0
C482 C 0.3802 0.06435 0.8248 0.0
C483 C 0.37843 0.07649 0.84703 0.0
C484 C 0.41713 0.07505 0.862 0.0
C485 C 0.45771 0.06152 0.85476 0.0
C486 C 0.45965 0.04933 0.83256 0.0
C487 C 0.52884 0.05639 0.70204 0.0
C488 C 0.57535 0.05168 0.70901 0.0
C489 C 0.49205 0.05175 0.71763 0.0
C490 C 0.50102 0.04182 0.74033 0.0
C491 C 0.54753 0.03833 0.74769 0.0
C492 C 0.58441 0.04328 0.73218 0.0
C493 C 0.46196 0.0335 0.75588 0.0
C494 C 0.45925 0.04459 0.7786 0.0
C495 C 0.4275 0.0146 0.74834 0.0
C496 C 0.42983 0.00083 0.72513 0.0
C497 C 0.46941 0.98543 0.71875 0.0
C498 C 0.47162 0.97283 0.69672 0.0
C499 C 0.43428 0.9753 0.681 0.0
C500 C 0.39457 0.99029 0.68731 0.0
C501 C 0.39221 0.00296 0.70931 0.0
H502 H 0.43606 0.96555 0.66394 0.0
H503 H 0.41569 0.08447 0.8792 0.0
H504 H 0.11609 0.57768 0.44506 0.0
H505 H 0.0701 0.5599 0.47782 0.0
H506 H 0.04349 0.48568 0.43892 0.0
H507 H 0.08894 0.50336 0.40601 0.0
H508 H 0.96412 0.50668 0.45722 0.0
H509 H 0.11909 0.48585 0.48479 0.0
H510 H 0.20103 0.49589 0.49531 0.0
H511 H 0.15487 0.55387 0.54706 0.0
H512 H 0.07262 0.54445 0.53662 0.0
H513 H 0.86714 0.42736 0.54953 0.0
H514 H 0.91418 0.44536 0.51728 0.0
H515 H 0.94553 0.51744 0.55825 0.0
H516 H 0.89947 0.49929 0.59078 0.0
H517 H 0.02252 0.49798 0.53893 0.0
H518 H 0.86793 0.51919 0.51165 0.0
H519 H 0.78576 0.50974 0.50115 0.0
H520 H 0.83066 0.45202 0.44891 0.0
H521 H 0.91312 0.46085 0.45931 0.0
C522 C 0.10084 0.55747 0.44355 0.0
C523 C 0.10608 0.54197 0.4229 0.0
C524 C 0.07467 0.54731 0.46232 0.0
C525 C 0.05354 0.52143 0.46082 0.0
C526 C 0.05942 0.50573 0.4404 0.0
C527 C 0.08556 0.51585 0.42165 0.0
C528 C 0.02369 0.51113 0.48012 0.0
C529 C 0.97703 0.5044 0.47504 0.0
C530 C 0.04026 0.50893 0.50345 0.0
C531 C 0.0897 0.51464 0.50975 0.0
C532 C 0.12642 0.50091 0.49827 0.0
C533 C 0.17292 0.50646 0.50425 0.0
C534 C 0.18316 0.52556 0.5218 0.0
C535 C 0.1469 0.53911 0.53345 0.0
C536 C 0.10033 0.53365 0.52752 0.0
C537 C 0.88369 0.44716 0.55161 0.0
C538 C 0.87959 0.46189 0.57272 0.0
C539 C 0.91047 0.45746 0.53312 0.0
C540 C 0.93308 0.48286 0.53528 0.0
C541 C 0.92846 0.49778 0.55622 0.0
C542 C 0.90198 0.48741 0.57476 0.0
C543 C 0.96288 0.49346 0.51604 0.0
C544 C 0.00954 0.50027 0.52113 0.0
C545 C 0.94626 0.49583 0.49272 0.0
C546 C 0.89669 0.49049 0.48642 0.0
C547 C 0.86027 0.50432 0.49805 0.0
C548 C 0.81365 0.4991 0.49209 0.0
C549 C 0.80299 0.48024 0.47442 0.0
C550 C 0.83896 0.4666 0.46262 0.0
C551 C 0.88565 0.47172 0.46852 0.0
H552 H 0.76687 0.47623 0.46983 0.0
H553 H 0.21918 0.52982 0.52641 0.0
H554 H 0.39759 0.99097 0.40972 0.0
H555 H 0.43109 0.00932 0.4459 0.0
H556 H 0.49321 0.93079 0.46101 0.0
H557 H 0.45936 0.9121 0.42489 0.0
H558 H 0.45316 0.95351 0.49983 0.0
H559 H 0.5598 0.98145 0.43962 0.0
H560 H 0.58301 0.00247 0.40207 0.0
H561 H 0.53022 0.08016 0.42542 0.0
H562 H 0.50607 0.05951 0.46301 0.0
H563 H 0.61292 0.00065 0.58691 0.0
H564 H 0.57921 0.98082 0.55126 0.0
H565 H 0.5127 0.05789 0.53535 0.0
H566 H 0.54638 0.07795 0.57092 0.0
H567 H 0.55611 0.03522 0.49698 0.0
H568 H 0.44907 0.00708 0.55715 0.0
H569 H 0.42634 0.98604 0.59477 0.0
H570 H 0.4805 0.90861 0.57157 0.0
H571 H 0.50421 0.9293 0.53391 0.0
C572 C 0.41831 0.97755 0.42073 0.0
C573 C 0.42603 0.9501 0.41436 0.0
C574 C 0.43755 0.98811 0.44137 0.0
C575 C 0.46511 0.9715 0.45596 0.0
C576 C 0.47213 0.94395 0.44993 0.0
C577 C 0.45288 0.93335 0.42926 0.0
C578 C 0.4868 0.98303 0.47744 0.0
C579 C 0.47621 0.97113 0.4992 0.0
C580 C 0.5161 0.00635 0.4766 0.0
C581 C 0.53073 0.01887 0.45404 0.0
C582 C 0.5528 0.00297 0.43668 0.0
C583 C 0.56619 0.01482 0.4154 0.0
C584 C 0.55799 0.04262 0.41133 0.0
C585 C 0.53649 0.05863 0.42858 0.0
C586 C 0.52299 0.04686 0.44988 0.0
C587 C 0.59116 0.01341 0.57582 0.0
C588 C 0.58223 0.04087 0.58176 0.0
C589 C 0.57179 0.002 0.55552 0.0
C590 C 0.54316 0.01784 0.54082 0.0
C591 C 0.53467 0.04534 0.54652 0.0
C592 C 0.55383 0.05673 0.56687 0.0
C593 C 0.52231 0.00579 0.51937 0.0
C594 C 0.53311 0.01758 0.49761 0.0
C595 C 0.49328 0.98235 0.52023 0.0
C596 C 0.47886 0.96982 0.54281 0.0
C597 C 0.4565 0.98563 0.56014 0.0
C598 C 0.44337 0.97375 0.58146 0.0
C599 C 0.45209 0.94603 0.58558 0.0
C600 C 0.47384 0.9301 0.56836 0.0
C601 C 0.4871 0.94188 0.54702 0.0
H602 H 0.4419 0.93688 0.6021 0.0
H603 H 0.56838 0.05176 0.39485 0.0
H604 H 0.6393 0.47287 0.07247 0.0
H605 H 0.60828 0.48827 0.03463 0.0
H606 H 0.4733 0.45454 0.05209 0.0
H607 H 0.50398 0.43891 0.08978 0.0
H608 H 0.49854 0.4424 0.0072 0.0
H609 H 0.49199 0.52208 0.05691 0.0
H610 H 0.52394 0.55706 0.08374 0.0
H611 H 0.62071 0.58282 0.03058 0.0
H612 H 0.58975 0.5477 0.00352 0.0
H613 H 0.35558 0.5113 0.92409 0.0
H614 H 0.39108 0.49434 0.96038 0.0
H615 H 0.52321 0.53 0.94045 0.0
H616 H 0.48802 0.5472 0.90426 0.0
H617 H 0.5021 0.54082 0.98585 0.0
H618 H 0.50723 0.46224 0.93565 0.0
H619 H 0.4755 0.42729 0.90872 0.0
H620 H 0.38198 0.3994 0.96255 0.0
H621 H 0.4127 0.43446 0.98971 0.0
C622 C 0.60306 0.46866 0.06822 0.0
C623 C 0.57404 0.45478 0.08417 0.0
C624 C 0.58537 0.47754 0.04664 0.0
C625 C 0.53839 0.47275 0.04068 0.0
C626 C 0.50964 0.45845 0.05637 0.0
C627 C 0.52723 0.44963 0.07794 0.0
C628 C 0.51886 0.48288 0.01822 0.0
C629 C 0.49884 0.46395 0.00262 0.0
C630 C 0.52029 0.51092 0.01207 0.0
C631 C 0.5389 0.53206 0.02829 0.0
C632 C 0.52036 0.53504 0.05101 0.0
C633 C 0.53823 0.55493 0.06625 0.0
C634 C 0.57443 0.5721 0.05889 0.0
C635 C 0.59273 0.56947 0.03626 0.0
C636 C 0.57501 0.54959 0.02097 0.0
C637 C 0.39219 0.51553 0.92742 0.0
C638 C 0.419 0.53055 0.91128 0.0
C639 C 0.41246 0.50573 0.94811 0.0
C640 C 0.45988 0.51071 0.95297 0.0
C641 C 0.48658 0.52591 0.93701 0.0
C642 C 0.46639 0.53566 0.91631 0.0
C643 C 0.48153 0.50036 0.97487 0.0
C644 C 0.50195 0.51925 0.99037 0.0
C645 C 0.48051 0.47228 0.98092 0.0
C646 C 0.46195 0.45116 0.96464 0.0
C647 C 0.47962 0.44881 0.94168 0.0
C648 C 0.46187 0.42895 0.92639 0.0
C649 C 0.42666 0.41118 0.9339 0.0
C650 C 0.40921 0.4132 0.95675 0.0
C651 C 0.4268 0.43305 0.9721 0.0
H652 H 0.41298 0.39581 0.92204 0.0
H653 H 0.58821 0.58749 0.07071 0.0
H654 H 0.13452 0.98923 0.91658 0.0
H655 H 0.10545 0.00659 0.95413 0.0
H656 H 0.98843 0.951 0.95021 0.0
H657 H 0.01668 0.93394 0.91251 0.0
H658 H 0.96015 0.00053 0.9632 0.0
H659 H 0.08256 0.93857 0.98648 0.0
H660 H 0.16265 0.91977 0.98673 0.0
H661 H 0.21588 0.9966 0.01187 0.0
H662 H 0.13613 0.01598 0.01148 0.0
H663 H 0.88275 0.00725 0.08101 0.0
H664 H 0.9142 0.99174 0.04342 0.0
H665 H 0.02664 0.05025 0.04926 0.0
H666 H 0.99579 0.06566 0.08706 0.0
H667 H 0.05829 0.0008 0.03515 0.0
H668 H 0.93526 0.06232 0.01277 0.0
H669 H 0.85498 0.08084 0.01273 0.0
H670 H 0.80274 0.00452 0.98597 0.0
H671 H 0.88267 0.9854 0.98616 0.0
C672 C 0.10265 0.98067 0.92374 0.0
C673 C 0.07795 0.96017 0.91159 0.0
C674 C 0.08618 0.99054 0.94524 0.0
C675 C 0.04503 0.97988 0.95509 0.0
C676 C 0.02025 0.95951 0.94293 0.0
C677 C 0.03654 0.94974 0.9214 0.0
C678 C 0.02733 0.99014 0.97793 0.0
C679 C 0.98142 0.00027 0.979 0.0
C680 C 0.05549 0.99045 -0.0016 0.0
C681 C 0.10344 0.9788 -0.00128 0.0
C682 C 0.11139 0.95152 0.99189 0.0
C683 C 0.15672 0.94075 0.99209 0.0
C684 C 0.19435 0.957 -0.00075 0.0
C685 C 0.18671 0.98404 0.0063 0.0
C686 C 0.14145 0.99492 0.00611 0.0
C687 C 0.91416 0.01685 0.07431 0.0
C688 C 0.93669 0.03776 0.08699 0.0
C689 C 0.93198 0.00803 0.05278 0.0
C690 C 0.97244 0.02008 0.04343 0.0
C691 C 0.99532 0.04073 0.05616 0.0
C692 C 0.97755 0.04955 0.07772 0.0
C693 C 0.99102 0.01097 0.02043 0.0
C694 C 0.03709 0.0011 0.01933 0.0
C695 C 0.96299 0.01086 -7e-05 0.0
C696 C 0.91491 0.02235 -0.00032 0.0
C697 C 0.90661 0.04942 0.00705 0.0
C698 C 0.86117 0.06003 0.00696 0.0
C699 C 0.82377 0.04385 -0.0006 0.0
C700 C 0.83174 0.01703 0.99185 0.0
C701 C 0.87711 0.0063 0.99191 0.0
H702 H 0.78862 0.0521 -0.00065 0.0
H703 H 0.22942 0.94862 -0.00061 0.0
H704 H 0.13008 0.65364 0.31067 0.0
H705 H 0.15444 0.70149 0.31199 0.0
H706 H 0.22645 0.68696 0.3774 0.0
H707 H 0.20216 0.63888 0.37628 0.0
H708 H 0.17548 0.73605 0.377 0.0
H709 H 0.28882 0.68941 0.3297 0.0
H710 H 0.31576 0.65922 0.29773 0.0
H711 H 0.25234 0.71239 0.24682 0.0
H712 H 0.22436 0.74269 0.27853 0.0
H713 H 0.31722 0.85669 0.37297 0.0
H714 H 0.28939 0.80942 0.37545 0.0
H715 H 0.21897 0.81856 0.30887 0.0
H716 H 0.24665 0.86574 0.30619 0.0
H717 H 0.27091 0.77171 0.31104 0.0
H718 H 0.15679 0.81813 0.35829 0.0
H719 H 0.12922 0.84817 0.39022 0.0
H720 H 0.19401 0.79564 0.44119 0.0
H721 H 0.22256 0.76547 0.40951 0.0
C722 C 0.15085 0.6606 0.32543 0.0
C723 C 0.16448 0.64241 0.34329 0.0
C724 C 0.16481 0.68794 0.32612 0.0
C725 C 0.19263 0.69762 0.34466 0.0
C726 C 0.20505 0.6798 0.36293 0.0
C727 C 0.1913 0.65235 0.3622 0.0
C728 C 0.20989 0.72616 0.34446 0.0
C729 C 0.19691 0.74381 0.36278 0.0
C730 C 0.23711 0.73627 0.32566 0.0
C731 C 0.2541 0.71817 0.30652 0.0
C732 C 0.28028 0.69454 0.3117 0.0
C733 C 0.29579 0.67743 0.29363 0.0
C734 C 0.28567 0.68384 0.27026 0.0
C735 C 0.2601 0.70743 0.26493 0.0
C736 C 0.24443 0.72459 0.28295 0.0
C737 C 0.29564 0.84868 0.3589 0.0
C738 C 0.28417 0.86495 0.33936 0.0
C739 C 0.27964 0.82171 0.3604 0.0
C740 C 0.25194 0.81058 0.3424 0.0
C741 C 0.24033 0.8268 0.32294 0.0
C742 C 0.25609 0.85377 0.32148 0.0
C743 C 0.23614 0.78176 0.34346 0.0
C744 C 0.24954 0.764 0.32531 0.0
C745 C 0.20935 0.7716 0.36242 0.0
C746 C 0.19226 0.78971 0.3815 0.0
C747 C 0.16554 0.81312 0.37629 0.0
C748 C 0.14966 0.83014 0.39434 0.0
C749 C 0.15998 0.82386 0.41771 0.0
C750 C 0.18611 0.8005 0.42308 0.0
C751 C 0.20213 0.78342 0.40508 0.0
H752 H 0.14763 0.83706 0.43167 0.0
H753 H 0.29772 0.67057 0.25629 0.0
H754 H 0.76481 0.12211 0.13461 0.0
H755 H 0.72915 0.16748 0.13203 0.0
H756 H 0.85658 0.20395 0.158 0.0
H757 H 0.89242 0.15864 0.16088 0.0
H758 H 0.78018 0.22414 0.18013 0.0
H759 H 0.82853 0.20811 0.10053 0.0
H760 H 0.8335 0.18249 0.06328 0.0
H761 H 0.68419 0.18673 0.05557 0.0
H762 H 0.67827 0.21207 0.09296 0.0
H763 H 0.73906 0.36252 0.15214 0.0
H764 H 0.77058 0.31617 0.15352 0.0
H765 H 0.63908 0.28421 0.12831 0.0
H766 H 0.60718 0.33072 0.12665 0.0
H767 H 0.7142 0.261 0.10596 0.0
H768 H 0.66612 0.27816 0.18509 0.0
H769 H 0.66136 0.30399 0.22223 0.0
H770 H 0.81025 0.29761 0.23085 0.0
H771 H 0.816 0.27208 0.19356 0.0
C772 C 0.78534 0.13978 0.13971 0.0
C773 C 0.83149 0.13678 0.14793 0.0
C774 C 0.76494 0.16569 0.13814 0.0
C775 C 0.79037 0.18907 0.14465 0.0
C776 C 0.83638 0.18614 0.15289 0.0
C777 C 0.85684 0.16025 0.15445 0.0
C778 C 0.76873 0.21657 0.1433 0.0
C779 C 0.76628 0.23235 0.16385 0.0
C780 C 0.74944 0.2269 0.12219 0.0
C781 C 0.75292 0.21173 0.09967 0.0
C782 C 0.79672 0.20337 0.09099 0.0
C783 C 0.79972 0.18894 0.06983 0.0
C784 C 0.75917 0.18292 0.0571 0.0
C785 C 0.71556 0.19138 0.06547 0.0
C786 C 0.71236 0.20579 0.08664 0.0
C787 C 0.71674 0.34568 0.14686 0.0
C788 C 0.6705 0.3503 0.13937 0.0
C789 C 0.73481 0.31918 0.14775 0.0
C790 C 0.70697 0.29676 0.14128 0.0
C791 C 0.66105 0.30128 0.13343 0.0
C792 C 0.64287 0.32784 0.13257 0.0
C793 C 0.72607 0.26864 0.14275 0.0
C794 C 0.72797 0.25274 0.12225 0.0
C795 C 0.74487 0.25817 0.16391 0.0
C796 C 0.74152 0.27341 0.18642 0.0
C797 C 0.69789 0.28245 0.19481 0.0
C798 C 0.69501 0.29701 0.21591 0.0
C799 C 0.73549 0.3025 0.22886 0.0
C800 C 0.77893 0.29337 0.22078 0.0
C801 C 0.78201 0.27883 0.19967 0.0
H802 H 0.73319 0.31377 0.2452 0.0
H803 H 0.76157 0.17175 0.04072 0.0
H804 H 0.61032 0.16349 0.64324 0.0
H805 H 0.64478 0.20896 0.63838 0.0
H806 H 0.78203 0.17279 0.63293 0.0
H807 H 0.74791 0.12721 0.63765 0.0
H808 H 0.77816 0.21676 0.66412 0.0
H809 H 0.73343 0.19603 0.58507 0.0
H810 H 0.67995 0.18162 0.55339 0.0
H811 H 0.58966 0.24967 0.56846 0.0
H812 H 0.64228 0.26428 0.60049 0.0
H813 H 0.89236 0.33968 0.63015 0.0
H814 H 0.86338 0.29254 0.62922 0.0
H815 H 0.72131 0.32221 0.63201 0.0
H816 H 0.74984 0.3693 0.63281 0.0
H817 H 0.73128 0.2804 0.60042 0.0
H818 H 0.77203 0.2995 0.68065 0.0
H819 H 0.82385 0.31412 0.71296 0.0
H820 H 0.91972 0.24925 0.69635 0.0
H821 H 0.86876 0.23448 0.66368 0.0
C822 C 0.64782 0.1652 0.64093 0.0
C823 C 0.67639 0.14177 0.64081 0.0
C824 C 0.6674 0.19116 0.63806 0.0
C825 C 0.71588 0.19416 0.63515 0.0
C826 C 0.74453 0.17085 0.63511 0.0
C827 C 0.72494 0.14485 0.63773 0.0
C828 C 0.73675 0.22172 0.63279 0.0
C829 C 0.76857 0.23053 0.64997 0.0
C830 C 0.72331 0.2398 0.6146 0.0
C831 C 0.69158 0.2311 0.59534 0.0
C832 C 0.70196 0.20779 0.58178 0.0
C833 C 0.67184 0.19961 0.56373 0.0
C834 C 0.63137 0.21468 0.55895 0.0
C835 C 0.62099 0.238 0.57219 0.0
C836 C 0.65098 0.24625 0.59029 0.0
C837 C 0.85495 0.33618 0.6304 0.0
C838 C 0.82341 0.35821 0.63171 0.0
C839 C 0.83848 0.30925 0.62993 0.0
C840 C 0.79023 0.30393 0.63077 0.0
C841 C 0.75867 0.3259 0.63136 0.0
C842 C 0.77508 0.35278 0.63192 0.0
C843 C 0.7725 0.27549 0.63182 0.0
C844 C 0.74119 0.26654 0.61444 0.0
C845 C 0.7862 0.25731 0.6499 0.0
C846 C 0.81687 0.2661 0.66955 0.0
C847 C 0.80437 0.28851 0.68375 0.0
C848 C 0.83355 0.29679 0.70216 0.0
C849 C 0.87513 0.28268 0.70666 0.0
C850 C 0.88755 0.2602 0.6928 0.0
C851 C 0.85853 0.25185 0.67435 0.0
H852 H 0.89766 0.28912 0.72092 0.0
H853 H 0.6081 0.20832 0.54496 0.0
H854 H 0.39049 0.65808 0.86173 0.0
H855 H 0.36093 0.70511 0.86151 0.0
H856 H 0.21935 0.67483 0.85779 0.0
H857 H 0.24847 0.62787 0.85776 0.0
H858 H 0.23472 0.71492 0.82611 0.0
H859 H 0.2626 0.70056 0.9086 0.0
H860 H 0.30961 0.68843 0.94342 0.0
H861 H 0.40586 0.75339 0.92795 0.0
H862 H 0.35974 0.76567 0.89284 0.0
H863 H 0.10788 0.83506 0.85175 0.0
H864 H 0.1419 0.78926 0.85362 0.0
H865 H 0.28014 0.82431 0.85814 0.0
H866 H 0.24636 0.87028 0.85661 0.0
H867 H 0.2697 0.78258 0.88877 0.0
H868 H 0.2417 0.79774 0.80697 0.0
H869 H 0.1955 0.81006 0.77194 0.0
H870 H 0.1009 0.74373 0.78557 0.0
H871 H 0.14617 0.73124 0.8209 0.0
C872 C 0.35306 0.66143 0.86098 0.0
C873 C 0.32184 0.63924 0.85977 0.0
C874 C 0.33623 0.68831 0.86093 0.0
C875 C 0.28794 0.69342 0.85978 0.0
C876 C 0.25675 0.67131 0.85867 0.0
C877 C 0.27349 0.64448 0.85874 0.0
C878 C 0.26972 0.7218 0.85911 0.0
C879 C 0.24187 0.72962 0.83995 0.0
C880 C 0.28027 0.74117 0.87684 0.0
C881 C 0.30799 0.73384 0.89796 0.0
C882 C 0.29401 0.71211 0.91251 0.0
C883 C 0.32045 0.70523 0.93232 0.0
C884 C 0.36077 0.72008 0.93785 0.0
C885 C 0.37466 0.74188 0.92362 0.0
C886 C 0.34836 0.74882 0.90378 0.0
C887 C 0.14551 0.83307 0.85319 0.0
C888 C 0.17443 0.85632 0.85391 0.0
C889 C 0.16491 0.80687 0.85417 0.0
C890 C 0.21358 0.8034 0.8557 0.0
C891 C 0.2425 0.82655 0.8569 0.0
C892 C 0.22313 0.85279 0.85596 0.0
C893 C 0.23422 0.77558 0.8559 0.0
C894 C 0.26262 0.76789 0.87491 0.0
C895 C 0.22434 0.75632 0.83799 0.0
C896 C 0.19709 0.76372 0.81671 0.0
C897 C 0.21083 0.78591 0.8026 0.0
C898 C 0.18485 0.7929 0.78268 0.0
C899 C 0.14523 0.77773 0.77657 0.0
C900 C 0.13157 0.75549 0.79034 0.0
C901 C 0.1574 0.74843 0.81031 0.0
H902 H 0.12516 0.78317 0.76113 0.0
H903 H 0.38119 0.71473 0.9532 0.0
loop_
_geom_bond_atom_site_label_1
_geom_bond_atom_site_label_2
_geom_bond_distance
_geom_bond_site_symmetry_2
_ccdc_geom_bond_type
C0 O1 1.160 . S
C0 O7 1.185 . S
O1 C0 1.160 . S
O2 Zn3 1.899 . S
O2 C10 1.284 . S
Zn3 O2 1.899 . S
Zn3 O4 2.032 . S
Zn3 O7 2.086 . S
Zn3 O12 1.977 . S
O4 Zn3 2.032 . S
O4 C8 1.278 . S
C5 O6 1.203 . S
C5 O12 1.267 . S
O6 C5 1.203 . S
O7 C0 1.185 . S
O7 Zn3 2.086 . S
C8 O4 1.278 . S
C8 O9 1.211 . S
O9 C8 1.211 . S
C10 O2 1.284 . S
C10 O11 1.273 . S
O11 C10 1.273 . S
O12 Zn3 1.977 . S
O12 C5 1.267 . S
C13 O14 1.160 . S
C13 O20 1.185 . S
O14 C13 1.160 . S
O15 Zn16 1.899 . S
O15 C23 1.284 . S
Zn16 O15 1.899 . S
Zn16 O17 2.032 . S
Zn16 O20 2.086 . S
Zn16 O25 1.977 . S
O17 Zn16 2.032 . S
O17 C21 1.278 . S
C18 O19 1.203 . S
C18 O25 1.267 . S
O19 C18 1.203 . S
O20 C13 1.185 . S
O20 Zn16 2.086 . S
C21 O17 1.278 . S
C21 O22 1.211 . S
O22 C21 1.211 . S
C23 O15 1.284 . S
C23 O24 1.273 . S
O24 C23 1.273 . S
O25 Zn16 1.977 . S
O25 C18 1.267 . S
C26 O27 1.160 . S
C26 O33 1.185 . S
O27 C26 1.160 . S
O28 Zn29 1.899 . S
O28 C36 1.284 . S
Zn29 O28 1.899 . S
Zn29 O30 2.032 . S
Zn29 O33 2.086 . S
Zn29 O38 1.977 . S
O30 Zn29 2.032 . S
O30 C34 1.278 . S
C31 O32 1.203 . S
C31 O38 1.267 . S
O32 C31 1.203 . S
O33 C26 1.185 . S
O33 Zn29 2.086 . S
C34 O30 1.278 . S
C34 O35 1.211 . S
O35 C34 1.211 . S
C36 O28 1.284 . S
C36 O37 1.273 . S
O37 C36 1.273 . S
O38 Zn29 1.977 . S
O38 C31 1.267 . S
C39 O40 1.160 . S
C39 O46 1.185 . S
O40 C39 1.160 . S
O41 Zn42 1.899 . S
O41 C49 1.284 . S
Zn42 O41 1.899 . S
Zn42 O43 2.032 . S
Zn42 O46 2.086 . S
Zn42 O51 1.977 . S
O43 Zn42 2.032 . S
O43 C47 1.278 . S
C44 O45 1.203 . S
C44 O51 1.267 . S
O45 C44 1.203 . S
O46 C39 1.185 . S
O46 Zn42 2.086 . S
C47 O43 1.278 . S
C47 O48 1.211 . S
O48 C47 1.211 . S
C49 O41 1.284 . S
C49 O50 1.273 . S
O50 C49 1.273 . S
O51 Zn42 1.977 . S
O51 C44 1.267 . S
C52 O53 1.160 . S
C52 O59 1.185 . S
O53 C52 1.160 . S
O54 Zn55 1.899 . S
O54 C62 1.284 . S
Zn55 O54 1.899 . S
Zn55 O56 2.032 . S
Zn55 O59 2.086 . S
Zn55 O64 1.977 . S
O56 Zn55 2.032 . S
O56 C60 1.278 . S
C57 O58 1.203 . S
C57 O64 1.267 . S
O58 C57 1.203 . S
O59 C52 1.185 . S
O59 Zn55 2.086 . S
C60 O56 1.278 . S
C60 O61 1.211 . S
O61 C60 1.211 . S
C62 O54 1.284 . S
C62 O63 1.273 . S
O63 C62 1.273 . S
O64 Zn55 1.977 . S
O64 C57 1.267 . S
C65 O66 1.160 . S
C65 O72 1.185 . S
O66 C65 1.160 . S
O67 Zn68 1.899 . S
O67 C75 1.284 . S
Zn68 O67 1.899 . S
Zn68 O69 2.032 . S
Zn68 O72 2.086 . S
Zn68 O77 1.977 . S
O69 Zn68 2.032 . S
O69 C73 1.278 . S
C70 O71 1.203 . S
C70 O77 1.267 . S
O71 C70 1.203 . S
O72 C65 1.185 . S
O72 Zn68 2.086 . S
C73 O69 1.278 . S
C73 O74 1.211 . S
O74 C73 1.211 . S
C75 O67 1.284 . S
C75 O76 1.273 . S
O76 C75 1.273 . S
O77 Zn68 1.977 . S
O77 C70 1.267 . S
C78 O79 1.160 . S
C78 O85 1.185 . S
O79 C78 1.160 . S
O80 Zn81 1.899 . S
O80 C88 1.284 . S
Zn81 O80 1.899 . S
Zn81 O82 2.032 . S
Zn81 O85 2.086 . S
Zn81 O90 1.977 . S
O82 Zn81 2.032 . S
O82 C86 1.278 . S
C83 O84 1.203 . S
C83 O90 1.267 . S
O84 C83 1.203 . S
O85 C78 1.185 . S
O85 Zn81 2.086 . S
C86 O82 1.278 . S
C86 O87 1.211 . S
O87 C86 1.211 . S
C88 O80 1.284 . S
C88 O89 1.273 . S
O89 C88 1.273 . S
O90 Zn81 1.977 . S
O90 C83 1.267 . S
C91 O92 1.160 . S
C91 O98 1.185 . S
O92 C91 1.160 . S
O93 Zn94 1.899 . S
O93 C101 1.284 . S
Zn94 O93 1.899 . S
Zn94 O95 2.032 . S
Zn94 O98 2.086 . S
Zn94 O103 1.977 . S
O95 Zn94 2.032 . S
O95 C99 1.278 . S
C96 O97 1.203 . S
C96 O103 1.267 . S
O97 C96 1.203 . S
O98 C91 1.185 . S
O98 Zn94 2.086 . S
C99 O95 1.278 . S
C99 O100 1.211 . S
O100 C99 1.211 . S
C101 O93 1.284 . S
C101 O102 1.273 . S
O102 C101 1.273 . S
O103 Zn94 1.977 . S
O103 C96 1.267 . S
H104 C122 0.951 . S
H105 C124 0.951 . S
H106 C126 0.950 . S
H107 C127 0.950 . S
H108 C129 0.950 . S
H109 C132 0.950 . S
H110 C133 0.950 . S
H111 C135 0.950 . S
H112 C136 0.950 . S
H113 C137 0.951 . S
H114 C139 0.951 . S
H115 C141 0.950 . S
H116 C142 0.950 . S
H117 C144 0.950 . S
H118 C147 0.950 . S
H119 C148 0.950 . S
H120 C150 0.950 . S
H121 C151 0.950 . S
C122 H104 0.951 . S
C122 C123 1.366 . S
C122 C124 1.388 . S
C123 C122 1.366 . S
C123 C127 1.385 . S
C124 H105 0.951 . S
C124 C122 1.388 . S
C124 C125 1.366 . S
C125 C124 1.366 . S
C125 C126 1.414 . S
C125 C128 1.499 . S
C126 H106 0.950 . S
C126 C125 1.414 . S
C126 C127 1.374 . S
C127 H107 0.950 . S
C127 C123 1.385 . S
C127 C126 1.374 . S
C128 C125 1.499 . S
C128 C129 1.373 . S
C128 C130 1.389 . S
C129 H108 0.950 . S
C129 C128 1.373 . S
C129 C145 1.377 . S
C130 C128 1.389 . S
C130 C131 1.524 . S
C130 C144 1.377 . S
C131 C130 1.524 . S
C131 C132 1.397 . S
C131 C136 1.363 . S
C132 H109 0.950 . S
C132 C131 1.397 . S
C132 C133 1.334 . S
C133 H110 0.950 . S
C133 C132 1.334 . S
C133 C134 1.287 . S
C134 C133 1.287 . S
C134 C135 1.524 . S
C134 H153 0.913 . S
C135 H111 0.950 . S
C135 C134 1.524 . S
C135 C136 1.415 . S
C136 H112 0.950 . S
C136 C131 1.363 . S
C136 C135 1.415 . S
C137 H113 0.951 . S
C137 C138 1.366 . S
C137 C139 1.388 . S
C138 C137 1.366 . S
C138 C142 1.385 . S
C139 H114 0.951 . S
C139 C137 1.388 . S
C139 C140 1.366 . S
C140 C139 1.366 . S
C140 C141 1.414 . S
C140 C143 1.499 . S
C141 H115 0.950 . S
C141 C140 1.414 . S
C141 C142 1.374 . S
C142 H116 0.950 . S
C142 C138 1.385 . S
C142 C141 1.374 . S
C143 C140 1.499 . S
C143 C144 1.373 . S
C143 C145 1.389 . S
C144 H117 0.950 . S
C144 C130 1.377 . S
C144 C143 1.373 . S
C145 C129 1.377 . S
C145 C143 1.389 . S
C145 C146 1.524 . S
C146 C145 1.524 . S
C146 C147 1.397 . S
C146 C151 1.363 . S
C147 H118 0.950 . S
C147 C146 1.397 . S
C147 C148 1.334 . S
C148 H119 0.950 . S
C148 C147 1.334 . S
C148 C149 1.287 . S
C149 C148 1.287 . S
C149 C150 1.524 . S
C149 H152 0.999 . S
C150 H120 0.950 . S
C150 C149 1.524 . S
C150 C151 1.415 . S
C151 H121 0.950 . S
C151 C146 1.363 . S
C151 C150 1.415 . S
H152 C149 0.999 . S
H153 C134 0.913 . S
H154 C172 0.951 . S
H155 C174 0.951 . S
H156 C176 0.950 . S
H157 C177 0.950 . S
H158 C179 0.950 . S
H159 C182 0.950 . S
H160 C183 0.950 . S
H161 C185 0.950 . S
H162 C186 0.950 . S
H163 C187 0.951 . S
H164 C189 0.951 . S
H165 C191 0.950 . S
H166 C192 0.950 . S
H167 C194 0.950 . S
H168 C197 0.950 . S
H169 C198 0.950 . S
H170 C200 0.950 . S
H171 C201 0.950 . S
C172 H154 0.951 . S
C172 C173 1.366 1_455 S
C172 C174 1.388 . S
C173 C172 1.366 1_655 S
C173 C177 1.385 . S
C174 H155 0.951 . S
C174 C172 1.388 . S
C174 C175 1.366 . S
C175 C174 1.366 . S
C175 C176 1.414 1_455 S
C175 C178 1.499 . S
C176 H156 0.950 . S
C176 C175 1.414 1_655 S
C176 C177 1.374 . S
C177 H157 0.950 . S
C177 C173 1.385 . S
C177 C176 1.374 . S
C178 C175 1.499 . S
C178 C179 1.373 . S
C178 C180 1.389 1_545 S
C179 H158 0.950 . S
C179 C178 1.373 . S
C179 C195 1.377 . S
C180 C178 1.389 1_565 S
C180 C181 1.524 . S
C180 C194 1.377 . S
C181 C180 1.524 . S
C181 C182 1.397 . S
C181 C186 1.363 . S
C182 H159 0.950 . S
C182 C181 1.397 . S
C182 C183 1.334 . S
C183 H160 0.950 . S
C183 C182 1.334 . S
C183 C184 1.287 . S
C184 C183 1.287 . S
C184 C185 1.524 . S
C184 H203 0.913 . S
C185 H161 0.950 . S
C185 C184 1.524 . S
C185 C186 1.415 . S
C186 H162 0.950 . S
C186 C181 1.363 . S
C186 C185 1.415 . S
C187 H163 0.951 . S
C187 C188 1.366 . S
C187 C189 1.388 . S
C188 C187 1.366 . S
C188 C192 1.385 . S
C189 H164 0.951 . S
C189 C187 1.388 . S
C189 C190 1.366 . S
C190 C189 1.366 . S
C190 C191 1.414 . S
C190 C193 1.489 1_565 S
C191 H165 0.950 . S
C191 C190 1.414 . S
C191 C192 1.374 . S
C192 H166 0.950 . S
C192 C188 1.385 . S
C192 C191 1.374 . S
C193 C190 1.489 1_545 S
C193 C194 1.364 1_545 S
C193 C195 1.407 . S
C194 H167 0.950 . S
C194 C180 1.377 . S
C194 C193 1.364 1_565 S
C195 C179 1.377 . S
C195 C193 1.407 . S
C195 C196 1.524 . S
C196 C195 1.524 . S
C196 C197 1.397 . S
C196 C201 1.363 . S
C197 H168 0.950 . S
C197 C196 1.397 . S
C197 C198 1.334 . S
C198 H169 0.950 . S
C198 C197 1.334 . S
C198 C199 1.287 . S
C199 C198 1.287 . S
C199 C200 1.524 . S
C199 H202 0.999 . S
C200 H170 0.950 . S
C200 C199 1.524 . S
C200 C201 1.415 . S
C201 H171 0.950 . S
C201 C196 1.363 . S
C201 C200 1.415 . S
H202 C199 0.999 . S
H203 C184 0.913 . S
H204 C222 0.951 . S
H205 C224 0.951 . S
H206 C226 0.950 . S
H207 C227 0.950 . S
H208 C229 0.950 . S
H209 C232 0.950 . S
H210 C233 0.950 . S
H211 C235 0.950 . S
H212 C236 0.950 . S
H213 C237 0.951 . S
H214 C239 0.951 . S
H215 C241 0.950 . S
H216 C242 0.950 . S
H217 C244 0.950 . S
H218 C247 0.950 . S
H219 C248 0.950 . S
H220 C250 0.950 . S
H221 C251 0.950 . S
C222 H204 0.951 . S
C222 C223 1.366 . S
C222 C224 1.388 . S
C223 C222 1.366 . S
C223 C227 1.385 . S
C224 H205 0.951 . S
C224 C222 1.388 . S
C224 C225 1.366 . S
C225 C224 1.366 . S
C225 C226 1.414 . S
C225 C228 1.499 . S
C226 H206 0.950 . S
C226 C225 1.414 . S
C226 C227 1.374 . S
C227 H207 0.950 . S
C227 C223 1.385 . S
C227 C226 1.374 . S
C228 C225 1.499 . S
C228 C229 1.373 . S
C228 C230 1.389 . S
C229 H208 0.950 . S
C229 C228 1.373 . S
C229 C245 1.377 . S
C230 C228 1.389 . S
C230 C231 1.524 . S
C230 C244 1.377 . S
C231 C230 1.524 . S
C231 C232 1.397 . S
C231 C236 1.363 . S
C232 H209 0.950 . S
C232 C231 1.397 . S
C232 C233 1.334 . S
C233 H210 0.950 . S
C233 C232 1.334 . S
C233 C234 1.287 . S
C234 C233 1.287 . S
C234 C235 1.524 . S
C234 H253 0.913 . S
C235 H211 0.950 . S
C235 C234 1.524 . S
C235 C236 1.415 . S
C236 H212 0.950 . S
C236 C231 1.363 . S
C236 C235 1.415 . S
C237 H213 0.951 . S
C237 C238 1.366 . S
C237 C239 1.388 . S
C238 C237 1.366 . S
C238 C242 1.385 1_455 S
C239 H214 0.951 . S
C239 C237 1.388 . S
C239 C240 1.366 1_455 S
C240 C239 1.366 1_655 S
C240 C241 1.414 . S
C240 C243 1.499 . S
C241 H215 0.950 . S
C241 C240 1.414 . S
C241 C242 1.374 . S
C242 H216 0.950 . S
C242 C238 1.385 1_655 S
C242 C241 1.374 . S
C243 C240 1.499 . S
C243 C244 1.373 . S
C243 C245 1.389 . S
C244 H217 0.950 . S
C244 C230 1.377 . S
C244 C243 1.373 . S
C245 C229 1.377 . S
C245 C243 1.389 . S
C245 C246 1.524 . S
C246 C245 1.524 . S
C246 C247 1.397 . S
C246 C251 1.363 . S
C247 H218 0.950 . S
C247 C246 1.397 . S
C247 C248 1.334 1_655 S
C248 H219 0.950 . S
C248 C247 1.334 1_455 S
C248 C249 1.287 . S
C249 C248 1.287 . S
C249 C250 1.524 . S
C249 H252 0.999 . S
C250 H220 0.950 . S
C250 C249 1.524 . S
C250 C251 1.415 1_455 S
C251 H221 0.950 . S
C251 C246 1.363 . S
C251 C250 1.415 1_655 S
H252 C249 0.999 . S
H253 C234 0.913 . S
H254 C272 0.951 . S
H255 C274 0.951 . S
H256 C276 0.950 . S
H257 C277 0.950 . S
H258 C279 0.950 . S
H259 C282 0.950 . S
H260 C283 0.950 . S
H261 C285 0.950 . S
H262 C286 0.950 . S
H263 C287 0.951 . S
H264 C289 0.951 . S
H265 C291 0.950 . S
H266 C292 0.950 . S
H267 C294 0.950 . S
H268 C297 0.950 . S
H269 C298 0.950 . S
H270 C300 0.950 . S
H271 C301 0.950 . S
C272 H254 0.951 . S
C272 C273 1.366 . S
C272 C274 1.388 . S
C273 C272 1.366 . S
C273 C277 1.385 . S
C274 H255 0.951 . S
C274 C272 1.388 . S
C274 C275 1.366 . S
C275 C274 1.366 . S
C275 C276 1.414 . S
C275 C278 1.499 . S
C276 H256 0.950 . S
C276 C275 1.414 . S
C276 C277 1.374 . S
C277 H257 0.950 . S
C277 C273 1.385 . S
C277 C276 1.374 . S
C278 C275 1.499 . S
C278 C279 1.373 1_545 S
C278 C280 1.389 . S
C279 H258 0.950 . S
C279 C278 1.373 1_565 S
C279 C295 1.377 . S
C280 C278 1.389 . S
C280 C281 1.524 . S
C280 C294 1.377 . S
C281 C280 1.524 . S
C281 C282 1.397 . S
C281 C286 1.363 . S
C282 H259 0.950 . S
C282 C281 1.397 . S
C282 C283 1.334 . S
C283 H260 0.950 . S
C283 C282 1.334 . S
C283 C284 1.287 . S
C284 C283 1.287 . S
C284 C285 1.524 . S
C284 H303 0.913 . S
C285 H261 0.950 . S
C285 C284 1.524 . S
C285 C286 1.415 . S
C286 H262 0.950 . S
C286 C281 1.363 . S
C286 C285 1.415 . S
C287 H263 0.951 . S
C287 C288 1.366 . S
C287 C289 1.388 . S
C288 C287 1.366 . S
C288 C292 1.385 . S
C289 H264 0.951 . S
C289 C287 1.388 . S
C289 C290 1.366 . S
C290 C289 1.366 . S
C290 C291 1.414 . S
C290 C293 1.499 . S
C291 H265 0.950 . S
C291 C290 1.414 . S
C291 C292 1.374 . S
C292 H266 0.950 . S
C292 C288 1.385 . S
C292 C291 1.374 . S
C293 C290 1.499 . S
C293 C294 1.373 1_565 S
C293 C295 1.389 . S
C294 H267 0.950 . S
C294 C280 1.377 . S
C294 C293 1.373 1_545 S
C295 C279 1.377 . S
C295 C293 1.389 . S
C295 C296 1.524 . S
C296 C295 1.524 . S
C296 C297 1.397 . S
C296 C301 1.363 . S
C297 H268 0.950 . S
C297 C296 1.397 . S
C297 C298 1.334 . S
C298 H269 0.950 . S
C298 C297 1.334 . S
C298 C299 1.287 . S
C299 C298 1.287 . S
C299 C300 1.524 . S
C299 H302 0.999 . S
C300 H270 0.950 . S
C300 C299 1.524 . S
C300 C301 1.415 . S
C301 H271 0.950 . S
C301 C296 1.363 . S
C301 C300 1.415 . S
H302 C299 0.999 . S
H303 C284 0.913 . S
H304 C322 0.951 . S
H305 C324 0.951 . S
H306 C326 0.950 . S
H307 C327 0.950 . S
H308 C329 0.950 . S
H309 C332 0.950 . S
H310 C333 0.950 . S
H311 C335 0.950 . S
H312 C336 0.950 . S
H313 C337 0.951 . S
H314 C339 0.951 . S
H315 C341 0.950 . S
H316 C342 0.950 . S
H317 C344 0.950 . S
H318 C347 0.950 . S
H319 C348 0.950 . S
H320 C350 0.950 . S
H321 C351 0.950 . S
C322 H304 0.951 . S
C322 C323 1.366 . S
C322 C324 1.388 . S
C323 C322 1.366 . S
C323 C327 1.385 . S
C324 H305 0.951 . S
C324 C322 1.388 . S
C324 C325 1.366 . S
C325 C324 1.366 . S
C325 C326 1.414 . S
C325 C328 1.499 . S
C326 H306 0.950 . S
C326 C325 1.414 . S
C326 C327 1.374 . S
C327 H307 0.950 . S
C327 C323 1.385 . S
C327 C326 1.374 . S
C328 C325 1.499 . S
C328 C329 1.373 . S
C328 C330 1.389 . S
C329 H308 0.950 . S
C329 C328 1.373 . S
C329 C345 1.377 . S
C330 C328 1.389 . S
C330 C331 1.524 . S
C330 C344 1.377 . S
C331 C330 1.524 . S
C331 C332 1.397 . S
C331 C336 1.363 . S
C332 H309 0.950 . S
C332 C331 1.397 . S
C332 C333 1.334 . S
C333 H310 0.950 . S
C333 C332 1.334 . S
C333 C334 1.287 . S
C334 C333 1.287 . S
C334 C335 1.524 . S
C334 H353 0.913 . S
C335 H311 0.950 . S
C335 C334 1.524 . S
C335 C336 1.415 . S
C336 H312 0.950 . S
C336 C331 1.363 . S
C336 C335 1.415 . S
C337 H313 0.951 . S
C337 C338 1.366 . S
C337 C339 1.388 . S
C338 C337 1.366 . S
C338 C342 1.385 . S
C339 H314 0.951 . S
C339 C337 1.388 . S
C339 C340 1.366 . S
C340 C339 1.366 . S
C340 C341 1.414 . S
C340 C343 1.499 . S
C341 H315 0.950 . S
C341 C340 1.414 . S
C341 C342 1.374 . S
C342 H316 0.950 . S
C342 C338 1.385 . S
C342 C341 1.374 . S
C343 C340 1.499 . S
C343 C344 1.373 . S
C343 C345 1.389 . S
C344 H317 0.950 . S
C344 C330 1.377 . S
C344 C343 1.373 . S
C345 C329 1.377 . S
C345 C343 1.389 . S
C345 C346 1.524 . S
C346 C345 1.524 . S
C346 C347 1.397 . S
C346 C351 1.363 . S
C347 H318 0.950 . S
C347 C346 1.397 . S
C347 C348 1.334 . S
C348 H319 0.950 . S
C348 C347 1.334 . S
C348 C349 1.287 . S
C349 C348 1.287 . S
C349 C350 1.524 . S
C349 H352 0.999 . S
C350 H320 0.950 . S
C350 C349 1.524 . S
C350 C351 1.415 . S
C351 H321 0.950 . S
C351 C346 1.363 . S
C351 C350 1.415 . S
H352 C349 0.999 . S
H353 C334 0.913 . S
H354 C372 0.951 . S
H355 C374 0.951 . S
H356 C376 0.950 . S
H357 C377 0.950 1_565 S
H358 C379 0.950 . S
H359 C382 0.950 1_565 S
H360 C383 0.950 . S
H361 C385 0.950 . S
H362 C386 0.950 . S
H363 C387 0.951 . S
H364 C389 0.951 . S
H365 C391 0.950 1_545 S
H366 C392 0.950 . S
H367 C394 0.950 1_545 S
H368 C397 0.950 . S
H369 C398 0.950 . S
H370 C400 0.950 . S
H371 C401 0.950 . S
C372 H354 0.951 . S
C372 C373 1.366 . S
C372 C374 1.388 . S
C373 C372 1.366 . S
C373 C377 1.385 . S
C374 H355 0.951 . S
C374 C372 1.388 . S
C374 C375 1.366 . S
C375 C374 1.366 . S
C375 C376 1.414 1_545 S
C375 C378 1.497 1_545 S
C376 H356 0.950 . S
C376 C375 1.414 1_565 S
C376 C377 1.374 1_565 S
C377 H357 0.950 1_545 S
C377 C373 1.385 . S
C377 C376 1.374 1_545 S
C378 C375 1.497 1_565 S
C378 C379 1.376 . S
C378 C380 1.388 1_565 S
C379 H358 0.950 . S
C379 C378 1.376 . S
C379 C395 1.377 . S
C380 C378 1.388 1_545 S
C380 C381 1.524 . S
C380 C394 1.377 1_545 S
C381 C380 1.524 . S
C381 C382 1.397 . S
C381 C386 1.363 . S
C382 H359 0.950 1_545 S
C382 C381 1.397 . S
C382 C383 1.334 . S
C383 H360 0.950 . S
C383 C382 1.334 . S
C383 C384 1.287 . S
C384 C383 1.287 . S
C384 C385 1.524 . S
C384 H403 0.913 . S
C385 H361 0.950 . S
C385 C384 1.524 . S
C385 C386 1.415 . S
C386 H362 0.950 . S
C386 C381 1.363 . S
C386 C385 1.415 . S
C387 H363 0.951 . S
C387 C388 1.366 . S
C387 C389 1.388 1_455 S
C388 C387 1.366 . S
C388 C392 1.385 . S
C389 H364 0.951 . S
C389 C387 1.388 1_655 S
C389 C390 1.366 . S
C390 C389 1.366 . S
C390 C391 1.414 1_655 S
C390 C393 1.499 . S
C391 H365 0.950 1_565 S
C391 C390 1.414 1_455 S
C391 C392 1.374 . S
C392 H366 0.950 . S
C392 C388 1.385 . S
C392 C391 1.374 . S
C393 C390 1.499 . S
C393 C394 1.373 . S
C393 C395 1.389 . S
C394 H367 0.950 1_565 S
C394 C380 1.377 1_565 S
C394 C393 1.373 . S
C395 C379 1.377 . S
C395 C393 1.389 . S
C395 C396 1.524 . S
C396 C395 1.524 . S
C396 C397 1.397 . S
C396 C401 1.363 . S
C397 H368 0.950 . S
C397 C396 1.397 . S
C397 C398 1.334 . S
C398 H369 0.950 . S
C398 C397 1.334 . S
C398 C399 1.287 . S
C399 C398 1.287 . S
C399 C400 1.524 . S
C399 H402 0.999 . S
C400 H370 0.950 . S
C400 C399 1.524 . S
C400 C401 1.415 . S
C401 H371 0.950 . S
C401 C396 1.363 . S
C401 C400 1.415 . S
H402 C399 0.999 . S
H403 C384 0.913 . S
H404 C422 0.951 . S
H405 C424 0.951 . S
H406 C426 0.950 . S
H407 C427 0.950 . S
H408 C429 0.950 . S
H409 C432 0.950 . S
H410 C433 0.950 . S
H411 C435 0.950 . S
H412 C436 0.950 . S
H413 C437 0.951 . S
H414 C439 0.952 . S
H415 C441 0.950 . S
H416 C442 0.950 . S
H417 C444 0.950 . S
H418 C447 0.950 . S
H419 C448 0.950 . S
H420 C450 0.950 . S
H421 C451 0.950 . S
C422 H404 0.951 . S
C422 C423 1.366 . S
C422 C424 1.388 . S
C423 C422 1.366 . S
C423 C427 1.385 . S
C424 H405 0.951 . S
C424 C422 1.388 . S
C424 C425 1.366 . S
C425 C424 1.366 . S
C425 C426 1.414 . S
C425 C428 1.499 . S
C426 H406 0.950 . S
C426 C425 1.414 . S
C426 C427 1.374 . S
C427 H407 0.950 . S
C427 C423 1.385 . S
C427 C426 1.374 . S
C428 C425 1.499 . S
C428 C429 1.373 . S
C428 C430 1.389 . S
C429 H408 0.950 . S
C429 C428 1.373 . S
C429 C445 1.377 . S
C430 C428 1.389 . S
C430 C431 1.524 . S
C430 C444 1.377 . S
C431 C430 1.524 . S
C431 C432 1.397 . S
C431 C436 1.363 . S
C432 H409 0.950 . S
C432 C431 1.397 . S
C432 C433 1.334 . S
C433 H410 0.950 . S
C433 C432 1.334 . S
C433 C434 1.287 . S
C434 C433 1.287 . S
C434 C435 1.524 . S
C434 H453 0.913 . S
C435 H411 0.950 . S
C435 C434 1.524 . S
C435 C436 1.415 . S
C436 H412 0.950 . S
C436 C431 1.363 . S
C436 C435 1.415 . S
C437 H413 0.951 . S
C437 C438 1.366 . S
C437 C439 1.380 1_655 S
C438 C437 1.366 . S
C438 C442 1.385 . S
C439 H414 0.952 . S
C439 C437 1.380 1_455 S
C439 C440 1.373 . S
C440 C439 1.373 . S
C440 C441 1.414 . S
C440 C443 1.499 . S
C441 H415 0.950 . S
C441 C440 1.414 . S
C441 C442 1.374 1_455 S
C442 H416 0.950 . S
C442 C438 1.385 . S
C442 C441 1.374 1_655 S
C443 C440 1.499 . S
C443 C444 1.373 . S
C443 C445 1.389 . S
C444 H417 0.950 . S
C444 C430 1.377 . S
C444 C443 1.373 . S
C445 C429 1.377 . S
C445 C443 1.389 . S
C445 C446 1.524 . S
C446 C445 1.524 . S
C446 C447 1.397 1_455 S
C446 C451 1.363 . S
C447 H418 0.950 . S
C447 C446 1.397 1_655 S
C447 C448 1.334 . S
C448 H419 0.950 . S
C448 C447 1.334 . S
C448 C449 1.287 . S
C449 C448 1.287 . S
C449 C450 1.524 . S
C449 H452 0.999 . S
C450 H420 0.950 . S
C450 C449 1.524 . S
C450 C451 1.415 1_655 S
C451 H421 0.950 . S
C451 C446 1.363 . S
C451 C450 1.415 1_455 S
H452 C449 0.999 . S
H453 C434 0.913 . S
H454 C472 0.951 . S
H455 C474 0.951 . S
H456 C476 0.950 1_545 S
H457 C477 0.950 . S
H458 C479 0.950 . S
H459 C482 0.950 . S
H460 C483 0.950 . S
H461 C485 0.950 . S
H462 C486 0.950 . S
H463 C487 0.951 . S
H464 C489 0.951 . S
H465 C491 0.950 . S
H466 C492 0.950 . S
H467 C494 0.950 . S
H468 C497 0.950 . S
H469 C498 0.950 . S
H470 C500 0.950 . S
H471 C501 0.950 1_545 S
C472 H454 0.951 . S
C472 C473 1.366 . S
C472 C474 1.388 . S
C473 C472 1.366 . S
C473 C477 1.385 . S
C474 H455 0.951 . S
C474 C472 1.388 . S
C474 C475 1.366 . S
C475 C474 1.366 . S
C475 C476 1.414 . S
C475 C478 1.488 1_565 S
C476 H456 0.950 1_565 S
C476 C475 1.414 . S
C476 C477 1.374 . S
C477 H457 0.950 . S
C477 C473 1.385 . S
C477 C476 1.374 . S
C478 C475 1.488 1_545 S
C478 C479 1.366 1_545 S
C478 C480 1.406 . S
C479 H458 0.950 . S
C479 C478 1.366 1_565 S
C479 C495 1.377 1_565 S
C480 C478 1.406 . S
C480 C481 1.524 . S
C480 C494 1.377 . S
C481 C480 1.524 . S
C481 C482 1.397 . S
C481 C486 1.363 . S
C482 H459 0.950 . S
C482 C481 1.397 . S
C482 C483 1.334 . S
C483 H460 0.950 . S
C483 C482 1.334 . S
C483 C484 1.287 . S
C484 C483 1.287 . S
C484 C485 1.524 . S
C484 H503 0.913 . S
C485 H461 0.950 . S
C485 C484 1.524 . S
C485 C486 1.415 . S
C486 H462 0.950 . S
C486 C481 1.363 . S
C486 C485 1.415 . S
C487 H463 0.951 . S
C487 C488 1.366 . S
C487 C489 1.388 . S
C488 C487 1.366 . S
C488 C492 1.385 . S
C489 H464 0.951 . S
C489 C487 1.388 . S
C489 C490 1.366 . S
C490 C489 1.366 . S
C490 C491 1.414 . S
C490 C493 1.499 . S
C491 H465 0.950 . S
C491 C490 1.414 . S
C491 C492 1.374 . S
C492 H466 0.950 . S
C492 C488 1.385 . S
C492 C491 1.374 . S
C493 C490 1.499 . S
C493 C494 1.373 . S
C493 C495 1.389 . S
C494 H467 0.950 . S
C494 C480 1.377 . S
C494 C493 1.373 . S
C495 C479 1.377 1_545 S
C495 C493 1.389 . S
C495 C496 1.524 1_545 S
C496 C495 1.524 1_565 S
C496 C497 1.397 . S
C496 C501 1.363 . S
C497 H468 0.950 . S
C497 C496 1.397 . S
C497 C498 1.334 . S
C498 H469 0.950 . S
C498 C497 1.334 . S
C498 C499 1.287 . S
C499 C498 1.287 . S
C499 C500 1.524 . S
C499 H502 0.999 . S
C500 H470 0.950 . S
C500 C499 1.524 . S
C500 C501 1.415 . S
C501 H471 0.950 1_565 S
C501 C496 1.363 . S
C501 C500 1.415 . S
H502 C499 0.999 . S
H503 C484 0.913 . S
H504 C522 0.951 . S
H505 C524 0.951 . S
H506 C526 0.950 . S
H507 C527 0.950 . S
H508 C529 0.950 . S
H509 C532 0.950 . S
H510 C533 0.950 . S
H511 C535 0.950 . S
H512 C536 0.950 . S
H513 C537 0.951 . S
H514 C539 0.951 . S
H515 C541 0.950 . S
H516 C542 0.950 . S
H517 C544 0.950 . S
H518 C547 0.950 . S
H519 C548 0.950 . S
H520 C550 0.950 . S
H521 C551 0.950 . S
C522 H504 0.951 . S
C522 C523 1.366 . S
C522 C524 1.388 . S
C523 C522 1.366 . S
C523 C527 1.385 . S
C524 H505 0.951 . S
C524 C522 1.388 . S
C524 C525 1.366 . S
C525 C524 1.366 . S
C525 C526 1.414 . S
C525 C528 1.499 . S
C526 H506 0.950 . S
C526 C525 1.414 . S
C526 C527 1.374 . S
C527 H507 0.950 . S
C527 C523 1.385 . S
C527 C526 1.374 . S
C528 C525 1.499 . S
C528 C529 1.373 1_455 S
C528 C530 1.389 . S
C529 H508 0.950 . S
C529 C528 1.373 1_655 S
C529 C545 1.377 . S
C530 C528 1.389 . S
C530 C531 1.524 . S
C530 C544 1.377 . S
C531 C530 1.524 . S
C531 C532 1.397 . S
C531 C536 1.363 . S
C532 H509 0.950 . S
C532 C531 1.397 . S
C532 C533 1.334 . S
C533 H510 0.950 . S
C533 C532 1.334 . S
C533 C534 1.287 . S
C534 C533 1.287 . S
C534 C535 1.524 . S
C534 H553 0.913 . S
C535 H511 0.950 . S
C535 C534 1.524 . S
C535 C536 1.415 . S
C536 H512 0.950 . S
C536 C531 1.363 . S
C536 C535 1.415 . S
C537 H513 0.951 . S
C537 C538 1.366 . S
C537 C539 1.388 . S
C538 C537 1.366 . S
C538 C542 1.385 . S
C539 H514 0.951 . S
C539 C537 1.388 . S
C539 C540 1.366 . S
C540 C539 1.366 . S
C540 C541 1.414 . S
C540 C543 1.499 . S
C541 H515 0.950 . S
C541 C540 1.414 . S
C541 C542 1.374 . S
C542 H516 0.950 . S
C542 C538 1.385 . S
C542 C541 1.374 . S
C543 C540 1.499 . S
C543 C544 1.373 1_655 S
C543 C545 1.389 . S
C544 H517 0.950 . S
C544 C530 1.377 . S
C544 C543 1.373 1_455 S
C545 C529 1.377 . S
C545 C543 1.389 . S
C545 C546 1.524 . S
C546 C545 1.524 . S
C546 C547 1.397 . S
C546 C551 1.363 . S
C547 H518 0.950 . S
C547 C546 1.397 . S
C547 C548 1.334 . S
C548 H519 0.950 . S
C548 C547 1.334 . S
C548 C549 1.287 . S
C549 C548 1.287 . S
C549 C550 1.524 . S
C549 H552 0.999 . S
C550 H520 0.950 . S
C550 C549 1.524 . S
C550 C551 1.415 . S
C551 H521 0.950 . S
C551 C546 1.363 . S
C551 C550 1.415 . S
H552 C549 0.999 . S
H553 C534 0.913 . S
H554 C572 0.951 1_545 S
H555 C574 0.951 . S
H556 C576 0.950 . S
H557 C577 0.950 . S
H558 C579 0.950 . S
H559 C582 0.950 1_565 S
H560 C583 0.950 . S
H561 C585 0.950 . S
H562 C586 0.950 . S
H563 C587 0.951 1_565 S
H564 C589 0.951 . S
H565 C591 0.950 . S
H566 C592 0.950 . S
H567 C594 0.950 . S
H568 C597 0.950 1_545 S
H569 C598 0.950 . S
H570 C600 0.950 . S
H571 C601 0.950 . S
C572 H554 0.951 1_565 S
C572 C573 1.366 . S
C572 C574 1.388 1_565 S
C573 C572 1.366 . S
C573 C577 1.385 . S
C574 H555 0.951 . S
C574 C572 1.388 1_545 S
C574 C575 1.366 1_545 S
C575 C574 1.366 1_565 S
C575 C576 1.414 . S
C575 C578 1.499 . S
C576 H556 0.950 . S
C576 C575 1.414 . S
C576 C577 1.374 . S
C577 H557 0.950 . S
C577 C573 1.385 . S
C577 C576 1.374 . S
C578 C575 1.499 . S
C578 C579 1.373 . S
C578 C580 1.389 1_565 S
C579 H558 0.950 . S
C579 C578 1.373 . S
C579 C595 1.377 . S
C580 C578 1.389 1_545 S
C580 C581 1.524 . S
C580 C594 1.377 . S
C581 C580 1.524 . S
C581 C582 1.397 . S
C581 C586 1.363 . S
C582 H559 0.950 1_545 S
C582 C581 1.397 . S
C582 C583 1.334 . S
C583 H560 0.950 . S
C583 C582 1.334 . S
C583 C584 1.287 . S
C584 C583 1.287 . S
C584 C585 1.524 . S
C584 H603 0.913 . S
C585 H561 0.950 . S
C585 C584 1.524 . S
C585 C586 1.415 . S
C586 H562 0.950 . S
C586 C581 1.363 . S
C586 C585 1.415 . S
C587 H563 0.951 1_545 S
C587 C588 1.366 . S
C587 C589 1.388 1_545 S
C588 C587 1.366 . S
C588 C592 1.385 . S
C589 H564 0.951 . S
C589 C587 1.388 1_565 S
C589 C590 1.366 1_565 S
C590 C589 1.366 1_545 S
C590 C591 1.414 . S
C590 C593 1.499 . S
C591 H565 0.950 . S
C591 C590 1.414 . S
C591 C592 1.374 . S
C592 H566 0.950 . S
C592 C588 1.385 . S
C592 C591 1.374 . S
C593 C590 1.499 . S
C593 C594 1.373 . S
C593 C595 1.389 1_545 S
C594 H567 0.950 . S
C594 C580 1.377 . S
C594 C593 1.373 . S
C595 C579 1.377 . S
C595 C593 1.389 1_565 S
C595 C596 1.524 . S
C596 C595 1.524 . S
C596 C597 1.397 . S
C596 C601 1.363 . S
C597 H568 0.950 1_565 S
C597 C596 1.397 . S
C597 C598 1.334 . S
C598 H569 0.950 . S
C598 C597 1.334 . S
C598 C599 1.287 . S
C599 C598 1.287 . S
C599 C600 1.524 . S
C599 H602 0.999 . S
C600 H570 0.950 . S
C600 C599 1.524 . S
C600 C601 1.415 . S
C601 H571 0.950 . S
C601 C596 1.363 . S
C601 C600 1.415 . S
H602 C599 0.999 . S
H603 C584 0.913 . S
H604 C622 0.951 . S
H605 C624 0.951 . S
H606 C626 0.950 . S
H607 C627 0.950 . S
H608 C629 0.950 . S
H609 C632 0.950 . S
H610 C633 0.950 . S
H611 C635 0.950 . S
H612 C636 0.950 . S
H613 C637 0.951 . S
H614 C639 0.951 . S
H615 C641 0.950 . S
H616 C642 0.950 . S
H617 C644 0.950 . S
H618 C647 0.950 . S
H619 C648 0.950 . S
H620 C650 0.950 . S
H621 C651 0.950 . S
C622 H604 0.951 . S
C622 C623 1.366 . S
C622 C624 1.388 . S
C623 C622 1.366 . S
C623 C627 1.385 . S
C624 H605 0.951 . S
C624 C622 1.388 . S
C624 C625 1.366 . S
C625 C624 1.366 . S
C625 C626 1.414 . S
C625 C628 1.499 . S
C626 H606 0.950 . S
C626 C625 1.414 . S
C626 C627 1.374 . S
C627 H607 0.950 . S
C627 C623 1.385 . S
C627 C626 1.374 . S
C628 C625 1.499 . S
C628 C629 1.373 . S
C628 C630 1.389 . S
C629 H608 0.950 . S
C629 C628 1.373 . S
C629 C645 1.377 1_554 S
C630 C628 1.389 . S
C630 C631 1.524 . S
C630 C644 1.377 1_554 S
C631 C630 1.524 . S
C631 C632 1.397 . S
C631 C636 1.363 . S
C632 H609 0.950 . S
C632 C631 1.397 . S
C632 C633 1.334 . S
C633 H610 0.950 . S
C633 C632 1.334 . S
C633 C634 1.287 . S
C634 C633 1.287 . S
C634 C635 1.524 . S
C634 H653 0.913 . S
C635 H611 0.950 . S
C635 C634 1.524 . S
C635 C636 1.415 . S
C636 H612 0.950 . S
C636 C631 1.363 . S
C636 C635 1.415 . S
C637 H613 0.951 . S
C637 C638 1.366 . S
C637 C639 1.388 . S
C638 C637 1.366 . S
C638 C642 1.385 . S
C639 H614 0.951 . S
C639 C637 1.388 . S
C639 C640 1.366 . S
C640 C639 1.366 . S
C640 C641 1.414 . S
C640 C643 1.499 . S
C641 H615 0.950 . S
C641 C640 1.414 . S
C641 C642 1.374 . S
C642 H616 0.950 . S
C642 C638 1.385 . S
C642 C641 1.374 . S
C643 C640 1.499 . S
C643 C644 1.373 . S
C643 C645 1.389 . S
C644 H617 0.950 . S
C644 C630 1.377 1_556 S
C644 C643 1.373 . S
C645 C629 1.377 1_556 S
C645 C643 1.389 . S
C645 C646 1.524 . S
C646 C645 1.524 . S
C646 C647 1.397 . S
C646 C651 1.363 . S
C647 H618 0.950 . S
C647 C646 1.397 . S
C647 C648 1.334 . S
C648 H619 0.950 . S
C648 C647 1.334 . S
C648 C649 1.287 . S
C649 C648 1.287 . S
C649 C650 1.524 . S
C649 H652 0.999 . S
C650 H620 0.950 . S
C650 C649 1.524 . S
C650 C651 1.415 . S
C651 H621 0.950 . S
C651 C646 1.363 . S
C651 C650 1.415 . S
H652 C649 0.999 . S
H653 C634 0.913 . S
H654 C672 0.951 . S
H655 C674 0.951 1_545 S
H656 C676 0.950 1_655 S
H657 C677 0.950 . S
H658 C679 0.950 . S
H659 C682 0.950 . S
H660 C683 0.940 1_556 S
H661 C685 0.950 1_545 S
H662 C686 0.964 . S
H663 C687 0.951 . S
H664 C689 0.951 1_565 S
H665 C691 0.950 1_455 S
H666 C692 0.950 . S
H667 C694 0.950 . S
H668 C697 0.950 . S
H669 C698 0.940 1_554 S
H670 C700 0.950 1_565 S
H671 C701 0.964 . S
C672 H654 0.951 . S
C672 C673 1.366 . S
C672 C674 1.388 . S
C673 C672 1.366 . S
C673 C677 1.385 . S
C674 H655 0.951 1_565 S
C674 C672 1.388 . S
C674 C675 1.366 . S
C675 C674 1.366 . S
C675 C676 1.414 . S
C675 C678 1.499 . S
C676 H656 0.950 1_455 S
C676 C675 1.414 . S
C676 C677 1.374 . S
C677 H657 0.950 . S
C677 C673 1.385 . S
C677 C676 1.374 . S
C678 C675 1.499 . S
C678 C679 1.373 1_455 S
C678 C680 1.346 1_556 S
C679 H658 0.950 . S
C679 C678 1.373 1_655 S
C679 C695 1.418 1_565 S
C680 C678 1.346 1_554 S
C680 C681 1.531 . S
C680 C694 1.418 1_565 S
C681 C680 1.531 . S
C681 C682 1.397 1_554 S
C681 C686 1.354 1_565 S
C682 H659 0.950 . S
C682 C681 1.397 1_556 S
C682 C683 1.331 1_556 S
C683 H660 0.940 1_554 S
C683 C682 1.331 1_554 S
C683 C684 1.302 . S
C684 C683 1.302 . S
C684 C685 1.524 . S
C684 H703 0.913 . S
C685 H661 0.950 1_565 S
C685 C684 1.524 . S
C685 C686 1.410 1_565 S
C686 H662 0.964 . S
C686 C681 1.354 1_545 S
C686 C685 1.410 1_545 S
C687 H663 0.951 . S
C687 C688 1.366 . S
C687 C689 1.388 . S
C688 C687 1.366 . S
C688 C692 1.385 . S
C689 H664 0.951 1_545 S
C689 C687 1.388 . S
C689 C690 1.366 . S
C690 C689 1.366 . S
C690 C691 1.414 . S
C690 C693 1.499 . S
C691 H665 0.950 1_655 S
C691 C690 1.414 . S
C691 C692 1.374 . S
C692 H666 0.950 . S
C692 C688 1.385 . S
C692 C691 1.374 . S
C693 C690 1.499 . S
C693 C694 1.373 1_655 S
C693 C695 1.346 1_554 S
C694 H667 0.950 . S
C694 C680 1.418 1_545 S
C694 C693 1.373 1_455 S
C695 C679 1.418 1_545 S
C695 C693 1.346 1_556 S
C695 C696 1.531 . S
C696 C695 1.531 . S
C696 C697 1.397 1_556 S
C696 C701 1.354 1_545 S
C697 H668 0.950 . S
C697 C696 1.397 1_554 S
C697 C698 1.331 1_554 S
C698 H669 0.940 1_556 S
C698 C697 1.331 1_556 S
C698 C699 1.302 . S
C699 C698 1.302 . S
C699 C700 1.524 . S
C699 H702 0.999 . S
C700 H670 0.950 1_545 S
C700 C699 1.524 . S
C700 C701 1.410 1_545 S
C701 H671 0.964 . S
C701 C696 1.354 1_565 S
C701 C700 1.410 1_565 S
H702 C699 0.999 . S
H703 C684 0.913 . S
H704 C722 0.951 . S
H705 C724 0.951 . S
H706 C726 0.950 . S
H707 C727 0.950 . S
H708 C729 0.950 . S
H709 C732 0.950 . S
H710 C733 0.950 . S
H711 C735 0.950 . S
H712 C736 0.950 . S
H713 C737 0.951 . S
H714 C739 0.951 . S
H715 C741 0.950 . S
H716 C742 0.950 . S
H717 C744 0.950 . S
H718 C747 0.950 . S
H719 C748 0.950 . S
H720 C750 0.950 . S
H721 C751 0.950 . S
C722 H704 0.951 . S
C722 C723 1.366 . S
C722 C724 1.388 . S
C723 C722 1.366 . S
C723 C727 1.385 . S
C724 H705 0.951 . S
C724 C722 1.388 . S
C724 C725 1.366 . S
C725 C724 1.366 . S
C725 C726 1.414 . S
C725 C728 1.499 . S
C726 H706 0.950 . S
C726 C725 1.414 . S
C726 C727 1.374 . S
C727 H707 0.950 . S
C727 C723 1.385 . S
C727 C726 1.374 . S
C728 C725 1.499 . S
C728 C729 1.373 . S
C728 C730 1.389 . S
C729 H708 0.950 . S
C729 C728 1.373 . S
C729 C745 1.377 . S
C730 C728 1.389 . S
C730 C731 1.524 . S
C730 C744 1.377 . S
C731 C730 1.524 . S
C731 C732 1.397 . S
C731 C736 1.363 . S
C732 H709 0.950 . S
C732 C731 1.397 . S
C732 C733 1.334 . S
C733 H710 0.950 . S
C733 C732 1.334 . S
C733 C734 1.287 . S
C734 C733 1.287 . S
C734 C735 1.524 . S
C734 H753 0.913 . S
C735 H711 0.950 . S
C735 C734 1.524 . S
C735 C736 1.415 . S
C736 H712 0.950 . S
C736 C731 1.363 . S
C736 C735 1.415 . S
C737 H713 0.951 . S
C737 C738 1.366 . S
C737 C739 1.388 . S
C738 C737 1.366 . S
C738 C742 1.385 . S
C739 H714 0.951 . S
C739 C737 1.388 . S
C739 C740 1.366 . S
C740 C739 1.366 . S
C740 C741 1.414 . S
C740 C743 1.499 . S
C741 H715 0.950 . S
C741 C740 1.414 . S
C741 C742 1.374 . S
C742 H716 0.950 . S
C742 C738 1.385 . S
C742 C741 1.374 . S
C743 C740 1.499 . S
C743 C744 1.373 . S
C743 C745 1.389 . S
C744 H717 0.950 . S
C744 C730 1.377 . S
C744 C743 1.373 . S
C745 C729 1.377 . S
C745 C743 1.389 . S
C745 C746 1.524 . S
C746 C745 1.524 . S
C746 C747 1.397 . S
C746 C751 1.363 . S
C747 H718 0.950 . S
C747 C746 1.397 . S
C747 C748 1.334 . S
C748 H719 0.950 . S
C748 C747 1.334 . S
C748 C749 1.287 . S
C749 C748 1.287 . S
C749 C750 1.524 . S
C749 H752 0.999 . S
C750 H720 0.950 . S
C750 C749 1.524 . S
C750 C751 1.415 . S
C751 H721 0.950 . S
C751 C746 1.363 . S
C751 C750 1.415 . S
H752 C749 0.999 . S
H753 C734 0.913 . S
H754 C772 0.951 . S
H755 C774 0.951 . S
H756 C776 0.950 . S
H757 C777 0.950 . S
H758 C779 0.950 . S
H759 C782 0.950 . S
H760 C783 0.950 . S
H761 C785 0.950 . S
H762 C786 0.950 . S
H763 C787 0.951 . S
H764 C789 0.951 . S
H765 C791 0.950 . S
H766 C792 0.950 . S
H767 C794 0.950 . S
H768 C797 0.950 . S
H769 C798 0.950 . S
H770 C800 0.950 . S
H771 C801 0.950 . S
C772 H754 0.951 . S
C772 C773 1.366 . S
C772 C774 1.388 . S
C773 C772 1.366 . S
C773 C777 1.385 . S
C774 H755 0.951 . S
C774 C772 1.388 . S
C774 C775 1.366 . S
C775 C774 1.366 . S
C775 C776 1.414 . S
C775 C778 1.499 . S
C776 H756 0.950 . S
C776 C775 1.414 . S
C776 C777 1.374 . S
C777 H757 0.950 . S
C777 C773 1.385 . S
C777 C776 1.374 . S
C778 C775 1.499 . S
C778 C779 1.373 . S
C778 C780 1.389 . S
C779 H758 0.950 . S
C779 C778 1.373 . S
C779 C795 1.377 . S
C780 C778 1.389 . S
C780 C781 1.524 . S
C780 C794 1.377 . S
C781 C780 1.524 . S
C781 C782 1.397 . S
C781 C786 1.363 . S
C782 H759 0.950 . S
C782 C781 1.397 . S
C782 C783 1.334 . S
C783 H760 0.950 . S
C783 C782 1.334 . S
C783 C784 1.287 . S
C784 C783 1.287 . S
C784 C785 1.524 . S
C784 H803 0.913 . S
C785 H761 0.950 . S
C785 C784 1.524 . S
C785 C786 1.415 . S
C786 H762 0.950 . S
C786 C781 1.363 . S
C786 C785 1.415 . S
C787 H763 0.951 . S
C787 C788 1.366 . S
C787 C789 1.388 . S
C788 C787 1.366 . S
C788 C792 1.385 . S
C789 H764 0.951 . S
C789 C787 1.388 . S
C789 C790 1.366 . S
C790 C789 1.366 . S
C790 C791 1.414 . S
C790 C793 1.499 . S
C791 H765 0.950 . S
C791 C790 1.414 . S
C791 C792 1.374 . S
C792 H766 0.950 . S
C792 C788 1.385 . S
C792 C791 1.374 . S
C793 C790 1.499 . S
C793 C794 1.373 . S
C793 C795 1.389 . S
C794 H767 0.950 . S
C794 C780 1.377 . S
C794 C793 1.373 . S
C795 C779 1.377 . S
C795 C793 1.389 . S
C795 C796 1.524 . S
C796 C795 1.524 . S
C796 C797 1.397 . S
C796 C801 1.363 . S
C797 H768 0.950 . S
C797 C796 1.397 . S
C797 C798 1.334 . S
C798 H769 0.950 . S
C798 C797 1.334 . S
C798 C799 1.287 . S
C799 C798 1.287 . S
C799 C800 1.524 . S
C799 H802 0.999 . S
C800 H770 0.950 . S
C800 C799 1.524 . S
C800 C801 1.415 . S
C801 H771 0.950 . S
C801 C796 1.363 . S
C801 C800 1.415 . S
H802 C799 0.999 . S
H803 C784 0.913 . S
H804 C822 0.951 . S
H805 C824 0.951 . S
H806 C826 0.950 . S
H807 C827 0.950 . S
H808 C829 0.950 . S
H809 C832 0.950 . S
H810 C833 0.950 . S
H811 C835 0.950 . S
H812 C836 0.950 . S
H813 C837 0.951 . S
H814 C839 0.951 . S
H815 C841 0.950 . S
H816 C842 0.950 . S
H817 C844 0.950 . S
H818 C847 0.950 . S
H819 C848 0.950 . S
H820 C850 0.950 . S
H821 C851 0.950 . S
C822 H804 0.951 . S
C822 C823 1.366 . S
C822 C824 1.388 . S
C823 C822 1.366 . S
C823 C827 1.385 . S
C824 H805 0.951 . S
C824 C822 1.388 . S
C824 C825 1.366 . S
C825 C824 1.366 . S
C825 C826 1.414 . S
C825 C828 1.499 . S
C826 H806 0.950 . S
C826 C825 1.414 . S
C826 C827 1.374 . S
C827 H807 0.950 . S
C827 C823 1.385 . S
C827 C826 1.374 . S
C828 C825 1.499 . S
C828 C829 1.373 . S
C828 C830 1.389 . S
C829 H808 0.950 . S
C829 C828 1.373 . S
C829 C845 1.377 . S
C830 C828 1.389 . S
C830 C831 1.524 . S
C830 C844 1.377 . S
C831 C830 1.524 . S
C831 C832 1.397 . S
C831 C836 1.363 . S
C832 H809 0.950 . S
C832 C831 1.397 . S
C832 C833 1.334 . S
C833 H810 0.950 . S
C833 C832 1.334 . S
C833 C834 1.287 . S
C834 C833 1.287 . S
C834 C835 1.524 . S
C834 H853 0.913 . S
C835 H811 0.950 . S
C835 C834 1.524 . S
C835 C836 1.415 . S
C836 H812 0.950 . S
C836 C831 1.363 . S
C836 C835 1.415 . S
C837 H813 0.951 . S
C837 C838 1.366 . S
C837 C839 1.388 . S
C838 C837 1.366 . S
C838 C842 1.385 . S
C839 H814 0.951 . S
C839 C837 1.388 . S
C839 C840 1.366 . S
C840 C839 1.366 . S
C840 C841 1.414 . S
C840 C843 1.499 . S
C841 H815 0.950 . S
C841 C840 1.414 . S
C841 C842 1.374 . S
C842 H816 0.950 . S
C842 C838 1.385 . S
C842 C841 1.374 . S
C843 C840 1.499 . S
C843 C844 1.373 . S
C843 C845 1.389 . S
C844 H817 0.950 . S
C844 C830 1.377 . S
C844 C843 1.373 . S
C845 C829 1.377 . S
C845 C843 1.389 . S
C845 C846 1.524 . S
C846 C845 1.524 . S
C846 C847 1.397 . S
C846 C851 1.363 . S
C847 H818 0.950 . S
C847 C846 1.397 . S
C847 C848 1.334 . S
C848 H819 0.950 . S
C848 C847 1.334 . S
C848 C849 1.287 . S
C849 C848 1.287 . S
C849 C850 1.524 . S
C849 H852 0.999 . S
C850 H820 0.950 . S
C850 C849 1.524 . S
C850 C851 1.415 . S
C851 H821 0.950 . S
C851 C846 1.363 . S
C851 C850 1.415 . S
H852 C849 0.999 . S
H853 C834 0.913 . S
H854 C872 0.951 . S
H855 C874 0.951 . S
H856 C876 0.950 . S
H857 C877 0.950 . S
H858 C879 0.950 . S
H859 C882 0.950 . S
H860 C883 0.950 . S
H861 C885 0.950 . S
H862 C886 0.950 . S
H863 C887 0.951 . S
H864 C889 0.951 . S
H865 C891 0.950 . S
H866 C892 0.950 . S
H867 C894 0.950 . S
H868 C897 0.950 . S
H869 C898 0.950 . S
H870 C900 0.950 . S
H871 C901 0.950 . S
C872 H854 0.951 . S
C872 C873 1.366 . S
C872 C874 1.388 . S
C873 C872 1.366 . S
C873 C877 1.385 . S
C874 H855 0.951 . S
C874 C872 1.388 . S
C874 C875 1.366 . S
C875 C874 1.366 . S
C875 C876 1.414 . S
C875 C878 1.499 . S
C876 H856 0.950 . S
C876 C875 1.414 . S
C876 C877 1.374 . S
C877 H857 0.950 . S
C877 C873 1.385 . S
C877 C876 1.374 . S
C878 C875 1.499 . S
C878 C879 1.373 . S
C878 C880 1.389 . S
C879 H858 0.950 . S
C879 C878 1.373 . S
C879 C895 1.377 . S
C880 C878 1.389 . S
C880 C881 1.524 . S
C880 C894 1.377 . S
C881 C880 1.524 . S
C881 C882 1.397 . S
C881 C886 1.363 . S
C882 H859 0.950 . S
C882 C881 1.397 . S
C882 C883 1.334 . S
C883 H860 0.950 . S
C883 C882 1.334 . S
C883 C884 1.287 . S
C884 C883 1.287 . S
C884 C885 1.524 . S
C884 H903 0.913 . S
C885 H861 0.950 . S
C885 C884 1.524 . S
C885 C886 1.415 . S
C886 H862 0.950 . S
C886 C881 1.363 . S
C886 C885 1.415 . S
C887 H863 0.951 . S
C887 C888 1.366 . S
C887 C889 1.388 . S
C888 C887 1.366 . S
C888 C892 1.385 . S
C889 H864 0.951 . S
C889 C887 1.388 . S
C889 C890 1.366 . S
C890 C889 1.366 . S
C890 C891 1.414 . S
C890 C893 1.499 . S
C891 H865 0.950 . S
C891 C890 1.414 . S
C891 C892 1.374 . S
C892 H866 0.950 . S
C892 C888 1.385 . S
C892 C891 1.374 . S
C893 C890 1.499 . S
C893 C894 1.373 . S
C893 C895 1.389 . S
C894 H867 0.950 . S
C894 C880 1.377 . S
C894 C893 1.373 . S
C895 C879 1.377 . S
C895 C893 1.389 . S
C895 C896 1.524 . S
C896 C895 1.524 . S
C896 C897 1.397 . S
C896 C901 1.363 . S
C897 H868 0.950 . S
C897 C896 1.397 . S
C897 C898 1.334 . S
C898 H869 0.950 . S
C898 C897 1.334 . S
C898 C899 1.287 . S
C899 C898 1.287 . S
C899 C900 1.524 . S
C899 H902 0.999 . S
C900 H870 0.950 . S
C900 C899 1.524 . S
C900 C901 1.415 . S
C901 H871 0.950 . S
C901 C896 1.363 . S
C901 C900 1.415 . S
H902 C899 0.999 . S
H903 C884 0.913 . S
C123 C5 1.047 . S
C138 C34 1.052 . S
C173 C47 1.051 . S
C188 C18 1.046 . S
C223 C31 1.046 . S
C238 C8 1.051 . S
C273 C44 1.047 . S
C288 C21 1.050 . S
C323 C86 1.050 . S
C338 C57 1.046 . S
C373 C70 1.046 . S
C388 C99 1.050 . S
C423 C83 1.047 . S
C438 C60 1.052 . S
C473 C96 1.046 . S
C488 C73 1.051 . S
C523 C0 1.484 . S
C538 C52 1.484 . S
C573 C13 1.484 . S
C588 C65 1.484 . S
C623 C26 1.484 . S
C638 C78 1.484 . S
C673 C91 1.484 . S
C688 C39 1.484 . S
C723 C10 1.504 . S
C738 C23 1.504 . S
C773 C49 1.504 . S
C788 C36 1.505 . S
C823 C75 1.504 . S
C838 C62 1.505 . S
C873 C88 1.504 . S
C888 C101 1.505 . S
