# Generated by pormake.
# Topology mmt, (4)-cn, num edge types: 1
# Building blocks:
#     Node 0, Type 0, BuildingBlock: UXUYUI_clean_sbu_0, # of connection points: 4
#     Node 1, Type 0, BuildingBlock: UXUYUI_clean_sbu_0, # of connection points: 4
#     Node 2, Type 0, BuildingBlock: UXUYUI_clean_sbu_0, # of connection points: 4
#     Node 3, Type 0, BuildingBlock: UXUYUI_clean_sbu_0, # of connection points: 4
#     Node 4, Type 0, BuildingBlock: UXUYUI_clean_sbu_0, # of connection points: 4
#     Node 5, Type 0, BuildingBlock: UXUYUI_clean_sbu_0, # of connection points: 4
#     Node 6, Type 0, BuildingBlock: UXUYUI_clean_sbu_0, # of connection points: 4
#     Node 7, Type 0, BuildingBlock: UXUYUI_clean_sbu_0, # of connection points: 4
#     Edge 8, Type (0, 0), BuildingBlock: TEMPAE_clean_linker_10, # of connection points: 2
#     Edge 9, Type (0, 0), BuildingBlock: TEMPAE_clean_linker_10, # of connection points: 2
#     Edge 10, Type (0, 0), BuildingBlock: TEMPAE_clean_linker_10, # of connection points: 2
#     Edge 11, Type (0, 0), BuildingBlock: TEMPAE_clean_linker_10, # of connection points: 2
#     Edge 12, Type (0, 0), BuildingBlock: TEMPAE_clean_linker_10, # of connection points: 2
#     Edge 13, Type (0, 0), BuildingBlock: TEMPAE_clean_linker_10, # of connection points: 2
#     Edge 14, Type (0, 0), BuildingBlock: TEMPAE_clean_linker_10, # of connection points: 2
#     Edge 15, Type (0, 0), BuildingBlock: TEMPAE_clean_linker_10, # of connection points: 2
#     Edge 16, Type (0, 0), BuildingBlock: TEMPAE_clean_linker_10, # of connection points: 2
#     Edge 17, Type (0, 0), BuildingBlock: TEMPAE_clean_linker_10, # of connection points: 2
#     Edge 18, Type (0, 0), BuildingBlock: TEMPAE_clean_linker_10, # of connection points: 2
#     Edge 19, Type (0, 0), BuildingBlock: TEMPAE_clean_linker_10, # of connection points: 2
#     Edge 20, Type (0, 0), BuildingBlock: TEMPAE_clean_linker_10, # of connection points: 2
#     Edge 21, Type (0, 0), BuildingBlock: TEMPAE_clean_linker_10, # of connection points: 2
#     Edge 22, Type (0, 0), BuildingBlock: TEMPAE_clean_linker_10, # of connection points: 2
#     Edge 23, Type (0, 0), BuildingBlock: TEMPAE_clean_linker_10, # of connection points: 2
# Relax obj value: 0.161
# Max RMSD: 0.176
# Mean RMSD: 0.176
data_MOF--net-mmt--node1-UXUYUI_clean_sbu_0--edge1-TEMPAE_clean_linker_10
_symmetry_space_group_name_H-M    P1
_symmetry_Int_Tables_number       1
_symmetry_cell_setting            triclinic
loop_
_symmetry_equiv_pos_as_xyz
'x, y, z'
_cell_length_a     31.90863
_cell_length_b     57.963511
_cell_length_c     64.214528
_cell_angle_alpha  90.002073
_cell_angle_beta   89.999228
_cell_angle_gamma 89.989841
loop_
_atom_site_label
_atom_site_type_symbol
_atom_site_fract_x
_atom_site_fract_y
_atom_site_fract_z
_atom_type_partial_charge
Li0 Li 0.09066 0.5675 0.33632 0.0
Li1 Li 0.11355 0.55911 0.37118 0.0
Li2 Li 0.14136 0.59363 0.35326 0.0
Li3 Li 0.16216 0.55424 0.34361 0.0
C4 C 0.05594 0.60528 0.35823 0.0
N5 N 0.00424 0.64287 0.35187 0.0
C6 C 0.02128 0.60887 0.37113 0.0
C7 C 0.0644 0.62084 0.34216 0.0
C8 C 0.99546 0.62796 0.36763 0.0
C9 C 0.03791 0.63974 0.33918 0.0
C10 C 0.08876 0.51958 0.35664 0.0
C11 C 0.08872 0.48605 0.37888 0.0
N12 N 0.04639 0.48451 0.37679 0.0
C13 C 0.04528 0.51763 0.35466 0.0
C14 C 0.11072 0.50362 0.36877 0.0
C15 C 0.02443 0.49978 0.36498 0.0
C16 C 0.05225 0.5455 0.30344 0.0
N17 N 0.04673 0.56395 0.31621 0.0
C18 C 0.98151 0.57281 0.29962 0.0
C19 C 0.01198 0.57749 0.3147 0.0
C20 C 0.98693 0.55406 0.28604 0.0
C21 C 0.02289 0.54034 0.28808 0.0
H22 H 0.07929 0.5345 0.30543 0.0
H23 H 0.00729 0.59168 0.32526 0.0
C24 C 0.12155 0.54079 0.41216 0.0
N25 N 0.09418 0.5478 0.39723 0.0
C26 C 0.1067 0.53168 0.43089 0.0
C27 C 0.03585 0.53743 0.41856 0.0
C28 C 0.05206 0.54657 0.40016 0.0
C29 C 0.06331 0.52976 0.43419 0.0
H30 H 0.15488 0.54212 0.40947 0.0
H31 H 0.03108 0.55244 0.38804 0.0
C32 C 0.14356 0.5805 0.30411 0.0
N33 N 0.14093 0.5813 0.26107 0.0
C34 C 0.14945 0.56019 0.29273 0.0
C35 C 0.13678 0.60127 0.29355 0.0
C36 C 0.14788 0.56093 0.27101 0.0
C37 C 0.13545 0.6013 0.2718 0.0
C38 C 0.21327 0.56551 0.37348 0.0
C39 C 0.2438 0.58241 0.37022 0.0
C40 C 0.2254 0.54322 0.37921 0.0
C41 C 0.28607 0.57665 0.37251 0.0
C42 C 0.26799 0.53813 0.3813 0.0
N43 N 0.29719 0.5548 0.37792 0.0
C44 C 0.14965 0.63797 0.37179 0.0
C45 C 0.18822 0.6318 0.34071 0.0
C46 C 0.16561 0.66035 0.37347 0.0
N47 N 0.16124 0.62429 0.35559 0.0
C48 C 0.20503 0.65396 0.34181 0.0
C49 C 0.19391 0.66852 0.3584 0.0
H50 H 0.12825 0.63143 0.38344 0.0
H51 H 0.19701 0.62043 0.32809 0.0
C52 C 0.2067 0.5141 0.33049 0.0
N53 N 0.20764 0.53748 0.332 0.0
C54 C 0.23859 0.50241 0.31995 0.0
C55 C 0.27187 0.53911 0.31303 0.0
C56 C 0.23944 0.55005 0.3237 0.0
C57 C 0.27134 0.51501 0.31075 0.0
H58 H 0.18057 0.5046 0.33688 0.0
H59 H 0.23897 0.56866 0.32493 0.0
O60 O 0.08186 0.58689 0.36174 0.0
O61 O 0.10962 0.53727 0.34707 0.0
O62 O 0.14487 0.58016 0.32543 0.0
O63 O 0.17176 0.5707 0.3709 0.0
H64 H 0.01444 0.59705 0.38373 0.0
H65 H 0.09095 0.61828 0.33202 0.0
H66 H 0.96848 0.63093 0.37747 0.0
H67 H 0.04406 0.6519 0.32677 0.0
H68 H 0.10527 0.47368 0.38845 0.0
H69 H 0.02768 0.52995 0.34552 0.0
H70 H 0.14431 0.50496 0.37061 0.0
H71 H 0.99077 0.49814 0.36368 0.0
H72 H 0.95403 0.58373 0.2986 0.0
H73 H 0.02775 0.52536 0.27828 0.0
H74 H 0.12889 0.52584 0.44252 0.0
H75 H 0.0022 0.53654 0.42061 0.0
H76 H 0.15458 0.54393 0.30056 0.0
H77 H 0.13276 0.61725 0.30201 0.0
H78 H 0.15208 0.5453 0.26204 0.0
H79 H 0.13012 0.61724 0.26345 0.0
H80 H 0.23503 0.59977 0.36589 0.0
H81 H 0.20223 0.52989 0.38166 0.0
H82 H 0.31004 0.58953 0.36994 0.0
H83 H 0.27782 0.52089 0.38554 0.0
H84 H 0.15651 0.67097 0.38658 0.0
H85 H 0.2263 0.65968 0.32972 0.0
H86 H 0.23677 0.48384 0.31832 0.0
H87 H 0.29677 0.54944 0.30637 0.0
Li88 Li 0.33366 0.94257 0.33936 0.0
Li89 Li 0.35757 0.9061 0.35016 0.0
Li90 Li 0.38081 0.9404 0.36886 0.0
Li91 Li 0.40534 0.93167 0.33164 0.0
C92 C 0.28959 0.93602 0.3772 0.0
N93 N 0.22055 0.95249 0.39854 0.0
C94 C 0.25163 0.92398 0.37657 0.0
C95 C 0.29255 0.95626 0.38895 0.0
C96 C 0.21705 0.93265 0.38738 0.0
C97 C 0.25727 0.96435 0.39957 0.0
C98 C 0.32361 0.90507 0.31088 0.0
C99 C 0.30177 0.88098 0.28224 0.0
N100 N 0.2626 0.87985 0.29054 0.0
C101 C 0.28318 0.90364 0.31912 0.0
C102 C 0.33306 0.89364 0.2923 0.0
C103 C 0.25275 0.89082 0.30861 0.0
C104 C 0.29091 0.95962 0.30499 0.0
N105 N 0.28911 0.95961 0.32616 0.0
C106 C 0.22806 0.98359 0.32535 0.0
C107 C 0.25874 0.97153 0.33645 0.0
C108 C 0.22866 0.98329 0.3035 0.0
C109 C 0.26078 0.97122 0.29332 0.0
H110 H 0.3161 0.95072 0.29712 0.0
H111 H 0.25833 0.97196 0.3532 0.0
C112 C 0.31902 0.86847 0.37042 0.0
N113 N 0.34225 0.87464 0.35358 0.0
C114 C 0.3046 0.84584 0.37249 0.0
C115 C 0.33915 0.8363 0.3401 0.0
C116 C 0.35299 0.85906 0.33869 0.0
C117 C 0.31412 0.82952 0.35702 0.0
H118 H 0.31106 0.88125 0.38204 0.0
H119 H 0.37179 0.86443 0.32555 0.0
C120 C 0.37335 0.98185 0.33616 0.0
N121 N 0.34605 0.02306 0.31933 0.0
C122 C 0.38126 0.98697 0.31526 0.0
C123 C 0.3519 0.99777 0.34856 0.0
C124 C 0.36712 0.00788 0.30703 0.0
C125 C 0.33827 0.01849 0.33974 0.0
C126 C 0.4327 0.89294 0.36077 0.0
C127 C 0.42796 0.88174 0.37989 0.0
C128 C 0.45291 0.88168 0.34435 0.0
C129 C 0.44332 0.85931 0.38223 0.0
C130 C 0.4679 0.85927 0.34733 0.0
N131 N 0.46279 0.84864 0.36604 0.0
C132 C 0.39615 0.93982 0.41217 0.0
C133 C 0.41668 0.97408 0.39479 0.0
C134 C 0.41164 0.94827 0.43103 0.0
N135 N 0.39931 0.95269 0.39457 0.0
C136 C 0.43209 0.98333 0.41333 0.0
C137 C 0.43018 0.97029 0.43178 0.0
H138 H 0.38203 0.92289 0.41149 0.0
H139 H 0.41882 0.9839 0.38052 0.0
C140 C 0.44357 0.93304 0.29208 0.0
N141 N 0.4503 0.93517 0.31288 0.0
C142 C 0.47575 0.93787 0.27801 0.0
C143 C 0.52121 0.94655 0.30713 0.0
C144 C 0.4882 0.9415 0.32062 0.0
C145 C 0.51498 0.94511 0.2855 0.0
H146 H 0.41282 0.92834 0.28643 0.0
H147 H 0.49239 0.94315 0.33727 0.0
O148 O 0.32394 0.92749 0.36702 0.0
O149 O 0.35416 0.91717 0.32111 0.0
O150 O 0.38574 0.96114 0.3443 0.0
O151 O 0.41685 0.91463 0.35796 0.0
H152 H 0.24891 0.90802 0.36794 0.0
H153 H 0.32153 0.9658 0.38972 0.0
H154 H 0.18746 0.92355 0.38695 0.0
H155 H 0.25907 0.98008 0.4086 0.0
H156 H 0.30866 0.87202 0.26787 0.0
H157 H 0.2754 0.91234 0.33346 0.0
H158 H 0.36431 0.8944 0.2858 0.0
H159 H 0.22132 0.88959 0.31482 0.0
H160 H 0.20382 0.99278 0.33376 0.0
H161 H 0.26286 0.97098 0.27649 0.0
H162 H 0.28516 0.84136 0.38571 0.0
H163 H 0.34772 0.82416 0.328 0.0
H164 H 0.39764 0.9748 0.30543 0.0
H165 H 0.34546 0.99408 0.36475 0.0
H166 H 0.37276 0.01199 0.29084 0.0
H167 H 0.32137 0.0309 0.34911 0.0
H168 H 0.41213 0.89015 0.3927 0.0
H169 H 0.45656 0.89005 0.3294 0.0
H170 H 0.43965 0.85037 0.39691 0.0
H171 H 0.48343 0.8503 0.33473 0.0
H172 H 0.4099 0.93746 0.44475 0.0
H173 H 0.44533 0.00052 0.41318 0.0
H174 H 0.4695 0.93685 0.26146 0.0
H175 H 0.55111 0.95184 0.31352 0.0
Li176 Li 0.66235 0.44511 0.1581 0.0
Li177 Li 0.63938 0.40432 0.1504 0.0
Li178 Li 0.61122 0.43876 0.12989 0.0
Li179 Li 0.59354 0.43257 0.16571 0.0
C180 C 0.70937 0.42551 0.1239 0.0
N181 N 0.78936 0.42222 0.1076 0.0
C182 C 0.73728 0.4089 0.13145 0.0
C183 C 0.72204 0.44025 0.10784 0.0
C184 C 0.77761 0.40757 0.12308 0.0
C185 C 0.76264 0.43837 0.09988 0.0
C186 C 0.63561 0.41799 0.19776 0.0
C187 C 0.60511 0.39617 0.22591 0.0
N188 N 0.61056 0.41453 0.23882 0.0
C189 C 0.6411 0.43661 0.21131 0.0
C190 C 0.61756 0.39757 0.20508 0.0
C191 C 0.62814 0.43453 0.23201 0.0
C192 C 0.69918 0.48391 0.17766 0.0
N193 N 0.70773 0.46308 0.16886 0.0
C194 C 0.77903 0.46541 0.18006 0.0
C195 C 0.74673 0.45372 0.16991 0.0
C196 C 0.77097 0.4868 0.18953 0.0
C197 C 0.73056 0.49621 0.18796 0.0
H198 H 0.66757 0.49058 0.1775 0.0
H199 H 0.75246 0.43677 0.16365 0.0
C200 C 0.65128 0.36165 0.13025 0.0
N201 N 0.65692 0.37322 0.14844 0.0
C202 C 0.66582 0.33903 0.12815 0.0
C203 C 0.69119 0.3407 0.16362 0.0
C204 C 0.67648 0.36331 0.16497 0.0
C205 C 0.6861 0.32831 0.14499 0.0
H206 H 0.63585 0.3701 0.11734 0.0
H207 H 0.68137 0.37312 0.17907 0.0
C208 C 0.61544 0.48329 0.14372 0.0
N209 N 0.62697 0.52597 0.12541 0.0
C210 C 0.58527 0.50057 0.14612 0.0
C211 C 0.65134 0.4877 0.13192 0.0
C212 C 0.5917 0.52205 0.13676 0.0
C213 C 0.65666 0.50938 0.12283 0.0
C214 C 0.54214 0.40321 0.14512 0.0
C215 C 0.50726 0.41748 0.1424 0.0
C216 C 0.5366 0.38024 0.15112 0.0
C217 C 0.46725 0.40856 0.14603 0.0
C218 C 0.49606 0.37196 0.15454 0.0
N219 N 0.46252 0.38618 0.15198 0.0
C220 C 0.61192 0.44225 0.08574 0.0
C221 C 0.55693 0.46206 0.10299 0.0
C222 C 0.59718 0.44976 0.06639 0.0
N223 N 0.59179 0.44861 0.10349 0.0
C224 C 0.54089 0.46975 0.08403 0.0
C225 C 0.56112 0.46362 0.06542 0.0
H226 H 0.63926 0.43128 0.0866 0.0
H227 H 0.5416 0.46685 0.11737 0.0
C228 C 0.54715 0.45957 0.19282 0.0
N229 N 0.55036 0.43743 0.18606 0.0
C230 C 0.51808 0.46548 0.20808 0.0
C231 C 0.49604 0.42563 0.20944 0.0
C232 C 0.52588 0.42044 0.1942 0.0
C233 C 0.49198 0.44843 0.21657 0.0
H234 H 0.56765 0.47266 0.18653 0.0
H235 H 0.52991 0.40281 0.1892 0.0
O236 O 0.6694 0.42674 0.13161 0.0
O237 O 0.64712 0.41991 0.17732 0.0
O238 O 0.60902 0.462 0.15238 0.0
O239 O 0.58155 0.41154 0.14159 0.0
H240 H 0.72819 0.39738 0.14388 0.0
H241 H 0.70074 0.45294 0.10148 0.0
H242 H 0.79959 0.39491 0.1289 0.0
H243 H 0.77285 0.44971 0.0875 0.0
H244 H 0.59083 0.38054 0.23176 0.0
H245 H 0.65478 0.45257 0.20585 0.0
H246 H 0.61249 0.38312 0.19472 0.0
H247 H 0.63196 0.44885 0.24265 0.0
H248 H 0.80977 0.45753 0.18091 0.0
H249 H 0.72275 0.5124 0.19544 0.0
H250 H 0.6611 0.32999 0.11358 0.0
H251 H 0.70726 0.33317 0.17683 0.0
H252 H 0.55701 0.49738 0.15498 0.0
H253 H 0.67497 0.47458 0.12995 0.0
H254 H 0.56859 0.53557 0.13848 0.0
H255 H 0.6844 0.51302 0.11372 0.0
H256 H 0.51108 0.43529 0.13779 0.0
H257 H 0.56334 0.36898 0.15321 0.0
H258 H 0.43995 0.41943 0.14415 0.0
H259 H 0.49126 0.35425 0.15928 0.0
H260 H 0.61339 0.44452 0.05235 0.0
H261 H 0.51326 0.48061 0.08392 0.0
H262 H 0.51575 0.4833 0.21303 0.0
H263 H 0.47687 0.41193 0.21582 0.0
Li264 Li 0.83561 0.05304 0.15407 0.0
Li265 Li 0.85594 0.09154 0.14451 0.0
Li266 Li 0.88506 0.05745 0.12527 0.0
Li267 Li 0.90615 0.06712 0.16147 0.0
C268 C 0.79461 0.05896 0.11524 0.0
N269 N 0.73151 0.03985 0.09129 0.0
C270 C 0.75605 0.07021 0.1133 0.0
C271 C 0.80113 0.03805 0.10486 0.0
C272 C 0.72452 0.06024 0.10117 0.0
C273 C 0.76885 0.02866 0.09286 0.0
C274 C 0.83393 0.0954 0.18378 0.0
C275 C 0.83661 0.13256 0.20063 0.0
N276 N 0.79491 0.13103 0.2048 0.0
C277 C 0.79113 0.09415 0.18829 0.0
C278 C 0.85693 0.1147 0.19008 0.0
C279 C 0.77198 0.11235 0.19892 0.0
C280 C 0.79754 0.03176 0.18739 0.0
N281 N 0.7926 0.03453 0.16651 0.0
C282 C 0.72981 0.012 0.16722 0.0
C283 C 0.7597 0.0248 0.15628 0.0
C284 C 0.73413 0.00903 0.18881 0.0
C285 C 0.76871 0.01897 0.19887 0.0
H286 H 0.82387 0.03973 0.19518 0.0
H287 H 0.75624 0.02694 0.13973 0.0
C288 C 0.86257 0.13984 0.13707 0.0
N289 N 0.83584 0.12226 0.14149 0.0
C290 C 0.84765 0.16246 0.13572 0.0
C291 C 0.77802 0.14835 0.14331 0.0
C292 C 0.79423 0.12605 0.14436 0.0
C293 C 0.80483 0.16698 0.139 0.0
H294 H 0.89547 0.13631 0.13467 0.0
H295 H 0.77372 0.11175 0.14791 0.0
C296 C 0.88271 0.01581 0.15832 0.0
N297 N 0.8645 0.97391 0.17677 0.0
C298 C 0.89429 0.01164 0.17898 0.0
C299 C 0.86215 0.99859 0.14701 0.0
C300 C 0.88476 0.99036 0.18803 0.0
C301 C 0.85313 0.97756 0.15663 0.0
C302 C 0.95574 0.0917 0.13732 0.0
C303 C 0.98599 0.08034 0.12537 0.0
C304 C 0.96802 0.10881 0.15139 0.0
C305 C 0.02819 0.08617 0.12785 0.0
C306 C 0.01053 0.11411 0.15344 0.0
N307 N 0.03948 0.10276 0.14174 0.0
C308 C 0.90355 0.05958 0.08228 0.0
C309 C 0.92144 0.0244 0.09889 0.0
C310 C 0.91929 0.05148 0.06334 0.0
N311 N 0.905 0.046 0.0995 0.0
C312 C 0.93722 0.01555 0.08028 0.0
C313 C 0.93653 0.02917 0.06217 0.0
H314 H 0.89055 0.07678 0.08334 0.0
H315 H 0.92236 0.01406 0.11289 0.0
C316 C 0.94632 0.07207 0.2006 0.0
N317 N 0.95126 0.06474 0.18064 0.0
C318 C 0.97736 0.06766 0.21541 0.0
C319 C 0.01833 0.0488 0.18868 0.0
C320 C 0.98635 0.05336 0.17446 0.0
C321 C 0.01369 0.05562 0.20954 0.0
H322 H 0.91764 0.08055 0.20521 0.0
H323 H 0.98879 0.04707 0.15866 0.0
O324 O 0.82596 0.06868 0.12683 0.0
O325 O 0.85313 0.07794 0.17308 0.0
O326 O 0.89078 0.03676 0.14935 0.0
O327 O 0.91434 0.086 0.13534 0.0
H328 H 0.75047 0.08647 0.12105 0.0
H329 H 0.83053 0.02901 0.10621 0.0
H330 H 0.6945 0.06874 0.09959 0.0
H331 H 0.77345 0.01245 0.08483 0.0
H332 H 0.85397 0.14766 0.20548 0.0
H333 H 0.77273 0.07945 0.18338 0.0
H334 H 0.89004 0.11597 0.18668 0.0
H335 H 0.73884 0.11167 0.20241 0.0
H336 H 0.70367 0.00446 0.15888 0.0
H337 H 0.77289 0.01737 0.21555 0.0
H338 H 0.86936 0.17623 0.13207 0.0
H339 H 0.74496 0.151 0.14629 0.0
H340 H 0.90992 0.02477 0.18806 0.0
H341 H 0.85292 0.00148 0.13103 0.0
H342 H 0.8933 0.98696 0.20404 0.0
H343 H 0.837 0.96414 0.14809 0.0
H344 H 0.97708 0.06705 0.11442 0.0
H345 H 0.94502 0.11776 0.16075 0.0
H346 H 0.05196 0.07745 0.11878 0.0
H347 H 0.02051 0.12721 0.16436 0.0
H348 H 0.91864 0.06272 0.04987 0.0
H349 H 0.94958 0.99815 0.08008 0.0
H350 H 0.97265 0.07317 0.23135 0.0
H351 H 0.04548 0.03908 0.18363 0.0
Li352 Li 0.8353 0.44512 0.65626 0.0
Li353 Li 0.90514 0.43226 0.6669 0.0
Li354 Li 0.88751 0.43824 0.63021 0.0
Li355 Li 0.85879 0.4055 0.64951 0.0
C356 C 0.91036 0.47875 0.64379 0.0
N357 N 0.95537 0.51257 0.62334 0.0
C358 C 0.9535 0.48082 0.64705 0.0
C359 C 0.89005 0.49395 0.63023 0.0
C360 C 0.97571 0.49804 0.63656 0.0
C361 C 0.91339 0.51089 0.61999 0.0
C362 C 0.85497 0.41888 0.69742 0.0
C363 C 0.88306 0.39913 0.72738 0.0
N364 N 0.86797 0.41615 0.73988 0.0
C365 C 0.83952 0.43612 0.71057 0.0
C366 C 0.87671 0.40016 0.70587 0.0
C367 C 0.84648 0.43444 0.732 0.0
C368 C 0.75449 0.45245 0.67238 0.0
N369 N 0.78975 0.46333 0.66573 0.0
C370 C 0.76435 0.49951 0.67828 0.0
C371 C 0.79503 0.48643 0.66823 0.0
C372 C 0.72809 0.48863 0.68584 0.0
C373 C 0.7229 0.46487 0.68237 0.0
H374 H 0.75176 0.43394 0.67073 0.0
H375 H 0.82381 0.49453 0.66323 0.0
C376 C 0.98255 0.42443 0.68828 0.0
N377 N 0.94647 0.43686 0.68769 0.0
C378 C 0.0133 0.42953 0.70309 0.0
C379 C 0.96862 0.45976 0.71654 0.0
C380 C 0.9391 0.45426 0.70136 0.0
C381 C 0.00668 0.44758 0.71737 0.0
H382 H 0.98793 0.41098 0.67693 0.0
H383 H 0.91041 0.46412 0.70024 0.0
C384 C 0.78805 0.43051 0.62581 0.0
N385 N 0.704 0.43866 0.61853 0.0
C386 C 0.75865 0.41301 0.62909 0.0
C387 C 0.77476 0.4521 0.6187 0.0
C388 C 0.71628 0.41749 0.62533 0.0
C389 C 0.73211 0.4559 0.61517 0.0
C390 C 0.93501 0.39159 0.63731 0.0
C391 C 0.94231 0.38685 0.61628 0.0
C392 C 0.94358 0.37474 0.65229 0.0
C393 C 0.95775 0.3652 0.61056 0.0
C394 C 0.9589 0.35329 0.64594 0.0
N395 N 0.9656 0.349 0.62538 0.0
C396 C 0.95206 0.44901 0.60203 0.0
C397 C 0.88358 0.45521 0.58882 0.0
C398 C 0.96975 0.45727 0.58361 0.0
N399 N 0.90973 0.44828 0.6043 0.0
C400 C 0.89992 0.46369 0.57016 0.0
C401 C 0.94355 0.46488 0.56742 0.0
H402 H 0.97204 0.44342 0.61466 0.0
H403 H 0.85007 0.45433 0.59102 0.0
C404 C 0.8201 0.36542 0.66486 0.0
N405 N 0.84048 0.37429 0.64808 0.0
C406 C 0.80457 0.34292 0.66433 0.0
C407 C 0.83166 0.33898 0.62934 0.0
C408 C 0.84587 0.36174 0.63038 0.0
C409 C 0.81053 0.32944 0.64644 0.0
H410 H 0.81534 0.37593 0.67855 0.0
H411 H 0.86077 0.36948 0.61699 0.0
O412 O 0.88827 0.4616 0.65344 0.0
O413 O 0.84913 0.4204 0.67636 0.0
O414 O 0.8296 0.42657 0.62964 0.0
O415 O 0.91966 0.41262 0.64321 0.0
H416 H 0.96978 0.4691 0.65737 0.0
H417 H 0.85673 0.49245 0.6274 0.0
H418 H 0.00914 0.49978 0.63885 0.0
H419 H 0.89816 0.52266 0.60933 0.0
H420 H 0.90002 0.3848 0.73412 0.0
H421 H 0.82277 0.45078 0.70431 0.0
H422 H 0.88871 0.38664 0.69592 0.0
H423 H 0.83492 0.44772 0.74235 0.0
H424 H 0.76944 0.5178 0.68062 0.0
H425 H 0.69577 0.45576 0.68829 0.0
H426 H 0.04242 0.41994 0.70291 0.0
H427 H 0.96182 0.47358 0.72737 0.0
H428 H 0.76834 0.3962 0.63457 0.0
H429 H 0.79705 0.4659 0.61626 0.0
H430 H 0.69316 0.40414 0.62787 0.0
H431 H 0.72135 0.47257 0.60982 0.0
H432 H 0.9357 0.39965 0.60447 0.0
H433 H 0.93817 0.37814 0.66862 0.0
H434 H 0.96335 0.36125 0.59433 0.0
H435 H 0.96543 0.34004 0.65735 0.0
H436 H 0.00354 0.45812 0.5822 0.0
H437 H 0.87865 0.46912 0.55797 0.0
H438 H 0.78826 0.33608 0.67777 0.0
H439 H 0.8362 0.32912 0.61519 0.0
Li440 Li 0.5943 0.06575 0.66434 0.0
Li441 Li 0.66345 0.0524 0.6547 0.0
Li442 Li 0.63997 0.09216 0.64672 0.0
Li443 Li 0.61133 0.06032 0.62729 0.0
C444 C 0.64184 0.08009 0.69487 0.0
N445 N 0.62453 0.0847 0.73681 0.0
C446 C 0.64482 0.06101 0.70809 0.0
C447 C 0.63065 0.10158 0.70302 0.0
C448 C 0.63576 0.06367 0.72924 0.0
C449 C 0.62189 0.10354 0.72426 0.0
C450 C 0.61413 0.01532 0.64099 0.0
C451 C 0.65256 0.9888 0.61924 0.0
N452 N 0.62271 0.97248 0.62262 0.0
C453 C 0.5838 0.99831 0.64423 0.0
C454 C 0.64879 0.01057 0.62838 0.0
C455 C 0.58873 0.97674 0.63482 0.0
C456 C 0.52497 0.07655 0.69168 0.0
N457 N 0.55293 0.0604 0.68512 0.0
C458 C 0.52387 0.03242 0.70828 0.0
C459 C 0.55303 0.03872 0.69318 0.0
C460 C 0.49421 0.04859 0.71517 0.0
C461 C 0.49522 0.071 0.70685 0.0
H462 H 0.52537 0.09364 0.68505 0.0
H463 H 0.57595 0.0263 0.68786 0.0
C464 C 0.74828 0.04257 0.66251 0.0
N465 N 0.70872 0.03416 0.66429 0.0
C466 C 0.78173 0.03099 0.67187 0.0
C467 C 0.73313 0.00198 0.68411 0.0
C468 C 0.70063 0.01418 0.67462 0.0
C469 C 0.7742 0.01063 0.68314 0.0
H470 H 0.75359 0.05868 0.65443 0.0
H471 H 0.66869 0.00819 0.6762 0.0
C472 C 0.56005 0.10647 0.63774 0.0
N473 N 0.52112 0.14859 0.63197 0.0
C474 C 0.54185 0.11189 0.61854 0.0
C475 C 0.55839 0.12247 0.65399 0.0
C476 C 0.52232 0.13327 0.61594 0.0
C477 C 0.5386 0.14367 0.65077 0.0
C478 C 0.68444 0.08132 0.61078 0.0
C479 C 0.65595 0.09343 0.59839 0.0
C480 C 0.72683 0.08095 0.60534 0.0
C481 C 0.67036 0.10502 0.58072 0.0
C482 C 0.74003 0.09274 0.58753 0.0
N483 N 0.71176 0.10444 0.5757 0.0
C484 C 0.69253 0.12832 0.65829 0.0
C485 C 0.6459 0.13884 0.63123 0.0
C486 C 0.71039 0.1503 0.65816 0.0
N487 N 0.66065 0.12307 0.6451 0.0
C488 C 0.66224 0.16117 0.63085 0.0
C489 C 0.69502 0.16723 0.64444 0.0
H490 H 0.70434 0.1153 0.66884 0.0
H491 H 0.62141 0.1342 0.62044 0.0
C492 C 0.54735 0.05006 0.599 0.0
N493 N 0.58959 0.0495 0.60157 0.0
C494 C 0.5293 0.04177 0.58068 0.0
C495 C 0.59857 0.032 0.56819 0.0
C496 C 0.61532 0.04071 0.58667 0.0
C497 C 0.55503 0.03252 0.56503 0.0
H498 H 0.52767 0.0568 0.61129 0.0
H499 H 0.64882 0.04031 0.58921 0.0
O500 O 0.64953 0.0777 0.67404 0.0
O501 O 0.60938 0.03659 0.64992 0.0
O502 O 0.57945 0.08564 0.64052 0.0
O503 O 0.67117 0.07002 0.62827 0.0
H504 H 0.65339 0.04426 0.70203 0.0
H505 H 0.62881 0.1166 0.69306 0.0
H506 H 0.63754 0.049 0.73962 0.0
H507 H 0.613 0.12005 0.73077 0.0
H508 H 0.67919 0.9849 0.60942 0.0
H509 H 0.55669 0.00176 0.65387 0.0
H510 H 0.67246 0.02355 0.62558 0.0
H511 H 0.5655 0.96341 0.63719 0.0
H512 H 0.52459 0.01507 0.71453 0.0
H513 H 0.47265 0.08391 0.71166 0.0
H514 H 0.813 0.03814 0.67069 0.0
H515 H 0.7259 0.98656 0.69293 0.0
H516 H 0.54299 0.09978 0.60573 0.0
H517 H 0.57284 0.11873 0.66881 0.0
H518 H 0.50819 0.1377 0.60116 0.0
H519 H 0.53731 0.15626 0.6632 0.0
H520 H 0.62309 0.09396 0.60241 0.0
H521 H 0.74928 0.07165 0.61479 0.0
H522 H 0.64864 0.11449 0.57102 0.0
H523 H 0.77275 0.09261 0.58312 0.0
H524 H 0.73629 0.15383 0.66857 0.0
H525 H 0.64891 0.17357 0.62012 0.0
H526 H 0.49554 0.0422 0.57892 0.0
H527 H 0.61943 0.0251 0.55643 0.0
Li528 Li 0.38839 0.55958 0.87028 0.0
Li529 Li 0.36008 0.59154 0.8497 0.0
Li530 Li 0.3396 0.55243 0.84149 0.0
Li531 Li 0.41074 0.56703 0.83488 0.0
C532 C 0.3133 0.5797 0.88515 0.0
N533 N 0.28282 0.60128 0.9204 0.0
C534 C 0.33664 0.59709 0.89483 0.0
C535 C 0.27441 0.57337 0.89335 0.0
C536 C 0.32068 0.60778 0.91264 0.0
C537 C 0.25958 0.58445 0.91122 0.0
C538 C 0.45864 0.59443 0.85705 0.0
C539 C 0.51071 0.61549 0.83753 0.0
N540 N 0.54071 0.60817 0.85104 0.0
C541 C 0.48991 0.58737 0.87089 0.0
C542 C 0.46902 0.60885 0.84038 0.0
C543 C 0.53124 0.59441 0.86754 0.0
C544 C 0.44487 0.53552 0.89506 0.0
N545 N 0.40801 0.54725 0.89622 0.0
C546 C 0.40346 0.53963 0.93276 0.0
C547 C 0.38684 0.54909 0.91455 0.0
C548 C 0.44176 0.52775 0.93201 0.0
C549 C 0.46237 0.52555 0.91282 0.0
H550 H 0.46081 0.53403 0.88025 0.0
H551 H 0.35694 0.55766 0.91519 0.0
C552 C 0.29633 0.62504 0.85078 0.0
N553 N 0.33861 0.62221 0.85099 0.0
C554 C 0.27897 0.64712 0.85141 0.0
C555 C 0.34901 0.66296 0.85289 0.0
C556 C 0.36501 0.64055 0.85217 0.0
C557 C 0.30543 0.66645 0.85242 0.0
H558 H 0.27609 0.61009 0.85007 0.0
H559 H 0.39848 0.63779 0.85251 0.0
C560 C 0.38767 0.51525 0.85463 0.0
N561 N 0.37512 0.47111 0.86958 0.0
C562 C 0.41453 0.4974 0.84868 0.0
C563 C 0.35443 0.51068 0.86822 0.0
C564 C 0.40765 0.47519 0.8564 0.0
C565 C 0.34862 0.48824 0.87559 0.0
C566 C 0.33706 0.59325 0.81073 0.0
C567 C 0.2938 0.59152 0.80771 0.0
C568 C 0.35867 0.61227 0.80274 0.0
C569 C 0.27275 0.60904 0.79703 0.0
C570 C 0.3365 0.62946 0.79218 0.0
N571 N 0.29435 0.62751 0.78959 0.0
C572 C 0.25637 0.53666 0.83543 0.0
C573 C 0.30918 0.51605 0.81731 0.0
C574 C 0.22512 0.52385 0.82551 0.0
N575 N 0.29733 0.53285 0.83082 0.0
C576 C 0.27907 0.50263 0.80727 0.0
C577 C 0.23629 0.50683 0.81089 0.0
H578 H 0.24795 0.55033 0.84611 0.0
H579 H 0.34207 0.51349 0.81393 0.0
C580 C 0.49194 0.55308 0.82325 0.0
N581 N 0.4563 0.56328 0.81623 0.0
C582 C 0.52441 0.54798 0.80943 0.0
C583 C 0.48285 0.56403 0.78147 0.0
C584 C 0.45131 0.56896 0.79586 0.0
C585 C 0.51979 0.55307 0.78814 0.0
H586 H 0.4947 0.54844 0.83951 0.0
H587 H 0.42225 0.57659 0.79064 0.0
O588 O 0.32762 0.56934 0.86738 0.0
O589 O 0.41804 0.5875 0.85996 0.0
O590 O 0.39437 0.53711 0.84733 0.0
O591 O 0.35805 0.57655 0.82162 0.0
H592 H 0.3668 0.60225 0.88875 0.0
H593 H 0.25588 0.56003 0.88597 0.0
H594 H 0.33841 0.62123 0.9203 0.0
H595 H 0.22956 0.57969 0.91775 0.0
H596 H 0.5192 0.62644 0.82456 0.0
H597 H 0.48239 0.5767 0.88416 0.0
H598 H 0.44524 0.61461 0.82961 0.0
H599 H 0.55577 0.58898 0.87808 0.0
H600 H 0.38627 0.5413 0.94722 0.0
H601 H 0.49202 0.51654 0.91163 0.0
H602 H 0.24521 0.64902 0.85131 0.0
H603 H 0.37051 0.6774 0.8535 0.0
H604 H 0.44048 0.50071 0.83823 0.0
H605 H 0.33341 0.52429 0.87307 0.0
H606 H 0.42821 0.46119 0.85193 0.0
H607 H 0.32306 0.48445 0.88612 0.0
H608 H 0.27653 0.57696 0.81374 0.0
H609 H 0.39215 0.61387 0.80478 0.0
H610 H 0.23923 0.60799 0.79473 0.0
H611 H 0.3528 0.64435 0.78607 0.0
H612 H 0.19261 0.52797 0.8286 0.0
H613 H 0.28923 0.48944 0.79645 0.0
H614 H 0.55251 0.53977 0.81531 0.0
H615 H 0.47759 0.56791 0.76518 0.0
Li616 Li 0.113 0.93726 0.86632 0.0
Li617 Li 0.14118 0.90473 0.84677 0.0
Li618 Li 0.16463 0.94414 0.8399 0.0
Li619 Li 0.09451 0.93126 0.82983 0.0
C620 C 0.21235 0.92977 0.87039 0.0
N621 N 0.29629 0.93821 0.87776 0.0
C622 C 0.24201 0.91239 0.86713 0.0
C623 C 0.22539 0.95143 0.87747 0.0
C624 C 0.28429 0.917 0.87095 0.0
C625 C 0.26797 0.95536 0.88106 0.0
C626 C 0.06894 0.8901 0.86035 0.0
C627 C 0.04821 0.8509 0.85313 0.0
N628 N 0.04737 0.84646 0.87393 0.0
C629 C 0.06779 0.88518 0.88165 0.0
C630 C 0.05894 0.87287 0.84596 0.0
C631 C 0.0568 0.86301 0.8882 0.0
C632 C 0.0489 0.94676 0.89505 0.0
N633 N 0.0911 0.94751 0.89227 0.0
C634 C 0.10043 0.96524 0.92551 0.0
C635 C 0.11698 0.95626 0.90709 0.0
C636 C 0.0569 0.96493 0.92872 0.0
C637 C 0.03102 0.95535 0.9133 0.0
H638 H 0.0291 0.93979 0.8829 0.0
H639 H 0.1504 0.95655 0.90452 0.0
C640 C 0.16884 0.86219 0.83044 0.0
N641 N 0.15929 0.87348 0.84836 0.0
C642 C 0.18362 0.83955 0.83106 0.0
C643 C 0.17861 0.84056 0.86862 0.0
C644 C 0.16396 0.86322 0.86726 0.0
C645 C 0.18891 0.82848 0.85034 0.0
H646 H 0.16549 0.87084 0.81565 0.0
H647 H 0.15689 0.87279 0.88128 0.0
C648 C 0.08956 0.97766 0.8529 0.0
N649 N 0.0444 0.01113 0.87376 0.0
C650 C 0.04613 0.97907 0.85038 0.0
C651 C 0.11007 0.99332 0.86594 0.0
C652 C 0.02386 0.99613 0.86106 0.0
C653 C 0.08666 0.01009 0.87639 0.0
C654 C 0.14296 0.91915 0.79873 0.0
C655 C 0.16002 0.93626 0.78594 0.0
C656 C 0.11781 0.90194 0.78999 0.0
C657 C 0.15142 0.93592 0.76461 0.0
C658 C 0.10988 0.90223 0.7686 0.0
N659 N 0.1267 0.91908 0.75646 0.0
C660 C 0.24577 0.95117 0.82436 0.0
C661 C 0.20625 0.9855 0.82862 0.0
C662 C 0.27867 0.96351 0.81542 0.0
N663 N 0.21049 0.96228 0.83066 0.0
C664 C 0.23828 0.99852 0.8196 0.0
C665 C 0.27485 0.98745 0.81263 0.0
H666 H 0.24772 0.9326 0.82564 0.0
H667 H 0.17746 0.9938 0.83334 0.0
C668 C 0.01725 0.92269 0.80847 0.0
N669 N 0.05242 0.93588 0.80939 0.0
C670 C 0.98671 0.92717 0.79339 0.0
C671 C 0.0295 0.95852 0.7805 0.0
C672 C 0.05886 0.95362 0.79593 0.0
C673 C 0.99278 0.94528 0.77916 0.0
H674 H 0.01272 0.90889 0.81956 0.0
H675 H 0.08679 0.96407 0.79733 0.0
O676 O 0.17084 0.92568 0.86652 0.0
O677 O 0.08044 0.91156 0.85361 0.0
O678 O 0.11175 0.96064 0.8431 0.0
O679 O 0.15031 0.91944 0.81973 0.0
H680 H 0.2326 0.89558 0.86155 0.0
H681 H 0.203 0.96521 0.87974 0.0
H682 H 0.30759 0.90373 0.86843 0.0
H683 H 0.27852 0.97209 0.88638 0.0
H684 H 0.04066 0.83736 0.84217 0.0
H685 H 0.07579 0.89825 0.893 0.0
H686 H 0.05996 0.87634 0.82942 0.0
H687 H 0.05596 0.85892 0.90463 0.0
H688 H 0.12143 0.97225 0.93715 0.0
H689 H 0.99728 0.95498 0.91514 0.0
H690 H 0.1908 0.83082 0.81659 0.0
H691 H 0.18278 0.83278 0.88381 0.0
H692 H 0.02969 0.96696 0.84051 0.0
H693 H 0.14361 0.9923 0.86825 0.0
H694 H 0.99021 0.99736 0.85935 0.0
H695 H 0.10206 0.02221 0.88666 0.0
H696 H 0.17933 0.94981 0.79239 0.0
H697 H 0.104 0.8887 0.79967 0.0
H698 H 0.16427 0.94911 0.75454 0.0
H699 H 0.09021 0.88912 0.76166 0.0
H700 H 0.30598 0.95425 0.80988 0.0
H701 H 0.23418 0.01695 0.8177 0.0
H702 H 0.95871 0.91663 0.79284 0.0
H703 H 0.03496 0.9729 0.77008 0.0
C704 C 0.31563 0.51282 0.27874 0.0
C705 C 0.30364 0.50331 0.29791 0.0
C706 C 0.34611 0.50219 0.26632 0.0
C707 C 0.36512 0.48149 0.27322 0.0
C708 C 0.35292 0.47163 0.29245 0.0
C709 C 0.32221 0.48265 0.30458 0.0
C710 C 0.3581 0.51319 0.24584 0.0
C711 C 0.37265 0.44962 0.30031 0.0
C712 C 0.41895 0.44685 0.23079 0.0
C713 C 0.46036 0.4547 0.23251 0.0
C714 C 0.38781 0.45467 0.24453 0.0
C715 C 0.39847 0.47063 0.26036 0.0
C716 C 0.44062 0.47774 0.26277 0.0
C717 C 0.47104 0.46971 0.2488 0.0
C718 C 0.34318 0.44672 0.24147 0.0
C719 C 0.45328 0.49461 0.27956 0.0
H720 H 0.30079 0.52854 0.27332 0.0
H721 H 0.31319 0.47531 0.31944 0.0
H722 H 0.3919 0.51769 0.24595 0.0
H723 H 0.35307 0.50081 0.2329 0.0
H724 H 0.33978 0.52908 0.24258 0.0
H725 H 0.35887 0.44385 0.31532 0.0
H726 H 0.36867 0.43566 0.28866 0.0
H727 H 0.40682 0.45218 0.3025 0.0
H728 H 0.41054 0.43535 0.21815 0.0
H729 H 0.50319 0.4755 0.25038 0.0
H730 H 0.32367 0.46145 0.23618 0.0
H731 H 0.32981 0.44054 0.2564 0.0
H732 H 0.34075 0.43268 0.22976 0.0
H733 H 0.43884 0.51167 0.2764 0.0
H734 H 0.48781 0.49685 0.28047 0.0
H735 H 0.44167 0.48873 0.29495 0.0
C736 C 0.08807 0.05063 0.22111 0.0
C737 C 0.04513 0.04854 0.22529 0.0
C738 C 0.11806 0.0418 0.23496 0.0
C739 C 0.1047 0.0304 0.2533 0.0
C740 C 0.06142 0.02898 0.25796 0.0
C741 C 0.03214 0.03814 0.24392 0.0
C742 C 0.16396 0.04389 0.22958 0.0
C743 C 0.04593 0.01678 0.27727 0.0
C744 C 0.17691 0.98402 0.27438 0.0
C745 C 0.19596 0.99529 0.2912 0.0
C746 C 0.14684 0.99521 0.2621 0.0
C747 C 0.13575 0.01831 0.26667 0.0
C748 C 0.15459 0.02974 0.28376 0.0
C749 C 0.1844 0.01803 0.29591 0.0
C750 C 0.12709 0.98232 0.24416 0.0
C751 C 0.14375 0.05442 0.28898 0.0
H752 H 0.09818 0.05887 0.20681 0.0
H753 H -0.00106 0.03625 0.24709 0.0
H754 H 0.18166 0.05112 0.24295 0.0
H755 H 0.17705 0.02653 0.2263 0.0
H756 H 0.16929 0.05503 0.21575 0.0
H757 H 0.0116 0.01882 0.27949 0.0
H758 H 0.05318 0.9981 0.27612 0.0
H759 H 0.06222 0.02348 0.29128 0.0
H760 H 0.18542 0.96632 0.27088 0.0
H761 H 0.19937 0.02683 0.30882 0.0
H762 H 0.13412 0.99128 0.2293 0.0
H763 H 0.09251 0.98205 0.24597 0.0
H764 H 0.13849 0.96425 0.243 0.0
H765 H 0.15172 0.06578 0.27564 0.0
H766 H 0.16065 0.0607 0.303 0.0
H767 H 0.10956 0.0561 0.29171 0.0
C768 C 0.80929 0.52235 0.20123 0.0
C769 C 0.80359 0.49838 0.20227 0.0
C770 C 0.83893 0.53347 0.21392 0.0
C771 C 0.86318 0.52029 0.22803 0.0
C772 C 0.85774 0.49608 0.22903 0.0
C773 C 0.82805 0.48543 0.21615 0.0
C774 C 0.8441 0.5593 0.21234 0.0
C775 C 0.88287 0.48142 0.24396 0.0
C776 C 0.96625 0.54165 0.25017 0.0
C777 C 0.95453 0.54797 0.27043 0.0
C778 C 0.93647 0.53358 0.23585 0.0
C779 C 0.89403 0.53165 0.24201 0.0
C780 C 0.88174 0.53888 0.26217 0.0
C781 C 0.91216 0.54702 0.27614 0.0
C782 C 0.95071 0.52625 0.21442 0.0
C783 C 0.8368 0.53699 0.26934 0.0
H784 H 0.79066 0.53241 0.19041 0.0
H785 H 0.82327 0.46696 0.21731 0.0
H786 H 0.83681 0.56744 0.22755 0.0
H787 H 0.87711 0.56361 0.20856 0.0
H788 H 0.82343 0.56698 0.20026 0.0
H789 H 0.87517 0.46279 0.24264 0.0
H790 H 0.91686 0.48369 0.24097 0.0
H791 H 0.87684 0.48704 0.2602 0.0
H792 H -0.00108 0.54267 0.24562 0.0
H793 H 0.90304 0.55171 0.29184 0.0
H794 H 0.93094 0.53448 0.2023 0.0
H795 H 0.94708 0.50731 0.21274 0.0
H796 H 0.984 0.53078 0.21144 0.0
H797 H 0.81554 0.54534 0.25794 0.0
H798 H 0.83182 0.54504 0.28485 0.0
H799 H 0.82773 0.51854 0.2703 0.0
C800 C 0.65932 0.0014 0.19812 0.0
C801 C 0.70195 0.99656 0.20107 0.0
C802 C 0.62873 0.99148 0.21101 0.0
C803 C 0.64113 0.97626 0.22712 0.0
C804 C 0.68398 0.97057 0.22961 0.0
C805 C 0.71391 0.98087 0.21659 0.0
C806 C 0.58336 0.99807 0.20795 0.0
C807 C 0.69835 0.95424 0.24648 0.0
C808 C 0.57077 0.97282 0.27459 0.0
C809 C 0.54838 0.95243 0.27084 0.0
C810 C 0.60124 0.98063 0.26054 0.0
C811 C 0.60965 0.96769 0.24232 0.0
C812 C 0.58755 0.94694 0.23854 0.0
C813 C 0.55702 0.93958 0.25284 0.0
C814 C 0.62396 0.00294 0.26506 0.0
C815 C 0.59595 0.93262 0.21935 0.0
H816 H 0.65 0.01369 0.18627 0.0
H817 H 0.74683 0.97687 0.21872 0.0
H818 H 0.56361 0.98239 0.20664 0.0
H819 H 0.57215 0.00788 0.22171 0.0
H820 H 0.5786 0.00884 0.19384 0.0
H821 H 0.73226 0.95012 0.24523 0.0
H822 H 0.69246 0.96206 0.26197 0.0
H823 H 0.68025 0.93792 0.24576 0.0
H824 H 0.56374 0.98302 0.2883 0.0
H825 H 0.54002 0.92371 0.24998 0.0
H826 H 0.61795 0.01553 0.25239 0.0
H827 H 0.65827 -0.00012 0.26557 0.0
H828 H 0.61412 0.01078 0.28007 0.0
H829 H 0.58897 0.94286 0.20518 0.0
H830 H 0.57684 0.9166 0.21898 0.0
H831 H 0.62958 0.92782 0.21867 0.0
C832 C 0.56247 0.55979 0.75579 0.0
C833 C 0.55202 0.5457 0.7728 0.0
C834 C 0.59126 0.55236 0.74067 0.0
C835 C 0.6102 0.5304 0.74267 0.0
C836 C 0.60029 0.51625 0.75995 0.0
C837 C 0.57123 0.52403 0.77474 0.0
C838 C 0.6011 0.5679 0.72244 0.0
C839 C 0.61994 0.49273 0.76268 0.0
C840 C 0.65438 0.49817 0.69618 0.0
C841 C 0.69757 0.50143 0.69888 0.0
C842 C 0.62542 0.50834 0.70982 0.0
C843 C 0.64008 0.52191 0.72666 0.0
C844 C 0.68356 0.52592 0.72902 0.0
C845 C 0.71179 0.51566 0.71507 0.0
C846 C 0.57923 0.50387 0.70668 0.0
C847 C 0.70042 0.54015 0.74685 0.0
H848 H 0.54813 0.57666 0.75431 0.0
H849 H 0.5628 0.51283 0.78759 0.0
H850 H 0.63522 0.57148 0.72185 0.0
H851 H 0.59263 0.55913 0.70766 0.0
H852 H 0.58401 0.58457 0.72326 0.0
H853 H 0.60981 0.48416 0.77731 0.0
H854 H 0.61142 0.48148 0.74936 0.0
H855 H 0.6546 0.49425 0.76282 0.0
H856 H 0.64329 0.48737 0.68355 0.0
H857 H 0.74518 0.51799 0.71739 0.0
H858 H 0.56166 0.52039 0.70654 0.0
H859 H 0.56697 0.49345 0.71982 0.0
H860 H 0.57279 0.49451 0.69192 0.0
H861 H 0.68425 0.55707 0.74756 0.0
H862 H 0.73469 0.54318 0.74551 0.0
H863 H 0.6942 0.53114 0.76178 0.0
C864 C 0.81257 0.97535 0.69537 0.0
C865 C 0.80822 -0.00057 0.69522 0.0
C866 C 0.84293 0.96459 0.70789 0.0
C867 C 0.86918 0.97827 0.72068 0.0
C868 C 0.86534 0.0026 0.72031 0.0
C869 C 0.835 0.01288 0.70755 0.0
C870 C 0.84647 0.93862 0.7077 0.0
C871 C 0.89256 0.01778 0.73384 0.0
C872 C 0.91835 0.95363 0.76965 0.0
C873 C 0.9603 0.95125 0.76357 0.0
C874 C 0.88801 0.96168 0.7556 0.0
C875 C 0.89992 0.96728 0.73496 0.0
C876 C 0.94187 0.96391 0.72849 0.0
C877 C 0.97164 0.95605 0.74292 0.0
C878 C 0.84363 0.96521 0.76313 0.0
C879 C 0.95564 0.96939 0.70655 0.0
H880 H 0.79211 0.96491 0.68573 0.0
H881 H 0.83133 0.03147 0.70773 0.0
H882 H 0.87912 0.93341 0.70408 0.0
H883 H 0.83887 0.93168 0.72335 0.0
H884 H 0.82512 0.93056 0.69614 0.0
H885 H 0.88625 0.03643 0.73138 0.0
H886 H 0.88708 0.01365 0.75049 0.0
H887 H 0.92614 0.01442 0.73056 0.0
H888 H 0.90959 0.95013 0.78565 0.0
H889 H 0.00401 0.95395 0.73814 0.0
H890 H 0.82121 0.95639 0.7526 0.0
H891 H 0.83591 0.98387 0.76289 0.0
H892 H 0.83887 0.95862 0.77921 0.0
H893 H 0.93468 0.96082 0.69513 0.0
H894 H 0.98841 0.96386 0.70349 0.0
H895 H 0.95337 0.98824 0.70382 0.0
C896 C 0.21022 0.49058 0.77712 0.0
C897 C 0.20363 0.49478 0.7984 0.0
C898 C 0.17873 0.4809 0.76466 0.0
C899 C 0.13938 0.47559 0.7736 0.0
C900 C 0.1328 0.47915 0.79516 0.0
C901 C 0.16508 0.4886 0.80733 0.0
C902 C 0.18706 0.47724 0.74174 0.0
C903 C 0.09115 0.47379 0.80521 0.0
C904 C 0.04708 0.47794 0.73654 0.0
C905 C 0.0399 0.45449 0.73239 0.0
C906 C 0.07865 0.48493 0.75032 0.0
C907 C 0.10422 0.46812 0.75999 0.0
C908 C 0.09717 0.44442 0.75599 0.0
C909 C 0.06496 0.43787 0.74229 0.0
C910 C 0.08511 0.5104 0.75422 0.0
C911 C 0.12406 0.42603 0.76592 0.0
H912 H 0.23955 0.49562 0.76993 0.0
H913 H 0.1599 0.49142 0.82381 0.0
H914 H 0.17846 0.45942 0.73712 0.0
H915 H 0.16736 0.4892 0.73246 0.0
H916 H 0.22043 0.48025 0.73761 0.0
H917 H 0.09201 0.47599 0.82239 0.0
H918 H 0.0667 0.48539 0.79877 0.0
H919 H 0.08155 0.45583 0.80161 0.0
H920 H 0.02853 0.49095 0.72867 0.0
H921 H 0.05934 0.41972 0.73938 0.0
H922 H 0.11657 0.51567 0.74861 0.0
H923 H 0.0839 0.51404 0.77117 0.0
H924 H 0.06119 0.5212 0.74628 0.0
H925 H 0.15715 0.42828 0.76101 0.0
H926 H 0.11378 0.40834 0.76165 0.0
H927 H 0.12322 0.42774 0.78312 0.0
C928 C 0.35005 0.9962 0.80477 0.0
C929 C 0.30743 0.00031 0.80096 0.0
C930 C 0.38105 0.00613 0.79214 0.0
C931 C 0.36907 0.02034 0.77523 0.0
C932 C 0.32619 0.0254 0.77191 0.0
C933 C 0.29586 0.01534 0.78485 0.0
C934 C 0.4265 0.00052 0.7963 0.0
C935 C 0.31216 0.04038 0.75398 0.0
C936 C 0.45182 0.0561 0.7474 0.0
C937 C 0.46178 0.04176 0.73051 0.0
C938 C 0.42166 0.04941 0.76215 0.0
C939 C 0.40092 0.02797 0.75983 0.0
C940 C 0.41058 0.01357 0.74269 0.0
C941 C 0.4409 0.02063 0.72826 0.0
C942 C 0.41225 0.06514 0.78029 0.0
C943 C 0.38889 0.99066 0.73956 0.0
H944 H 0.35908 0.9848 0.81738 0.0
H945 H 0.26294 0.01838 0.78171 0.0
H946 H 0.4389 0.98959 0.78352 0.0
H947 H 0.4455 0.01654 0.79666 0.0
H948 H 0.43085 0.99118 0.81126 0.0
H949 H 0.27818 0.04449 0.75476 0.0
H950 H 0.33011 0.05676 0.75373 0.0
H951 H 0.31845 0.03136 0.73906 0.0
H952 H 0.46816 0.07236 0.74926 0.0
H953 H 0.44802 0.00966 0.71505 0.0
H954 H 0.41915 0.05612 0.79514 0.0
H955 H 0.37845 0.06962 0.78046 0.0
H956 H 0.43081 0.08134 0.77973 0.0
H957 H 0.39465 0.97931 0.75317 0.0
H958 H 0.39979 0.98161 0.7253 0.0
H959 H 0.35453 0.99328 0.7384 0.0
C960 C 0.01372 0.50379 0.45322 0.0
C961 C 0.04666 0.51979 0.45379 0.0
C962 C 0.99721 0.49445 0.47163 0.0
C963 C 0.01392 0.50137 0.49107 0.0
C964 C 0.04733 0.51742 0.49175 0.0
C965 C 0.0634 0.52639 0.47308 0.0
C966 C 0.96181 0.47722 0.47027 0.0
C967 C 0.06578 0.52532 0.5122 0.0
C968 C 0.94519 0.49432 0.53891 0.0
C969 C 0.96164 0.4742 0.54786 0.0
C970 C 0.96203 0.5034 0.52047 0.0
C971 C 0.99604 0.49203 0.51072 0.0
C972 C 0.01278 0.4717 0.51967 0.0
C973 C 0.99543 0.46306 0.53817 0.0
C974 C 0.94352 0.5252 0.51146 0.0
C975 C 0.04886 0.45902 0.50963 0.0
H976 H 0.00109 0.49841 0.43832 0.0
H977 H 0.08858 0.53893 0.47359 0.0
H978 H 0.97098 0.46088 0.47803 0.0
H979 H 0.93389 0.48396 0.47858 0.0
H980 H 0.95286 0.47335 0.45392 0.0
H981 H 0.092 0.53769 0.51002 0.0
H982 H 0.04118 0.53371 0.52178 0.0
H983 H 0.07748 0.51025 0.52113 0.0
H984 H 0.91944 0.50316 0.5465 0.0
H985 H 0.00795 0.44736 0.54492 0.0
H986 H 0.93177 0.52187 0.49548 0.0
H987 H 0.96805 0.5387 0.51025 0.0
H988 H 0.91729 0.53202 0.52103 0.0
H989 H 0.04009 0.45361 0.49364 0.0
H990 H 0.05832 0.44349 0.51861 0.0
H991 H 0.07634 0.47064 0.50824 0.0
C992 C 0.48526 0.99242 0.45129 0.0
C993 C 0.44811 0.97943 0.45154 0.0
C994 C 0.50255 0.00122 0.46974 0.0
C995 C 0.48265 0.99662 0.48898 0.0
C996 C 0.4454 0.98338 0.48943 0.0
C997 C 0.42841 0.97509 0.4707 0.0
C998 C 0.54217 0.01543 0.46862 0.0
C999 C 0.4235 0.97796 0.50969 0.0
C1000 C 0.54891 0.00173 0.5379 0.0
C1001 C 0.53644 0.0233 0.54559 0.0
C1002 C 0.5313 0.99271 0.5196 0.0
C1003 C 0.50088 0.00571 0.50865 0.0
C1004 C 0.48828 0.02754 0.51632 0.0
C1005 C 0.50605 0.03601 0.53478 0.0
C1006 C 0.54512 0.96924 0.51204 0.0
C1007 C 0.45635 0.04203 0.50491 0.0
H1008 H 0.50123 0.99552 0.43667 0.0
H1009 H 0.39941 0.96538 0.47107 0.0
H1010 H 0.53681 0.03262 0.47573 0.0
H1011 H 0.56743 0.00691 0.47766 0.0
H1012 H 0.55321 0.01791 0.45237 0.0
H1013 H 0.39533 0.96699 0.50742 0.0
H1014 H 0.44534 0.96894 0.52039 0.0
H1015 H 0.4138 0.9942 0.51747 0.0
H1016 H 0.57205 0.99176 0.54638 0.0
H1017 H 0.49667 0.05279 0.54062 0.0
H1018 H 0.55908 0.97072 0.49628 0.0
H1019 H 0.51764 0.95761 0.51076 0.0
H1020 H 0.56851 0.96116 0.52258 0.0
H1021 H 0.46768 0.04585 0.48894 0.0
H1022 H 0.44988 0.05861 0.51299 0.0
H1023 H 0.4265 0.03238 0.50335 0.0
C1024 C 0.57138 0.4817 0.03039 0.0
C1025 C 0.54454 0.47176 0.04515 0.0
C1026 C 0.55569 0.49044 0.01155 0.0
C1027 C 0.51221 0.48893 0.00732 0.0
C1028 C 0.48513 0.47844 0.02199 0.0
C1029 C 0.5016 0.47009 0.04078 0.0
C1030 C 0.58545 0.50174 0.99638 0.0
C1031 C 0.43869 0.47623 0.01792 0.0
C1032 C 0.4628 0.53112 0.96937 0.0
C1033 C 0.46016 0.51781 0.9512 0.0
C1034 C 0.4802 0.52202 0.98766 0.0
C1035 C 0.49479 0.49894 0.98784 0.0
C1036 C 0.49213 0.4854 0.96954 0.0
C1037 C 0.47508 0.49506 0.95137 0.0
C1038 C 0.483 0.53709 0.0068 0.0
C1039 C 0.50682 0.46064 0.96923 0.0
H1040 H 0.60454 0.48318 0.03382 0.0
H1041 H 0.48088 0.46216 0.05208 0.0
H1042 H 0.58336 0.49319 0.98096 0.0
H1043 H 0.57651 0.52007 0.99414 0.0
H1044 H 0.6185 0.50104 0.00179 0.0
H1045 H 0.42222 0.46675 0.03053 0.0
H1046 H 0.42447 0.49362 0.01644 0.0
H1047 H 0.43327 0.46709 0.00298 0.0
H1048 H 0.45171 0.5488 0.96917 0.0
H1049 H 0.47271 0.48469 0.93737 0.0
H1050 H 0.516 0.53817 0.01216 0.0
H1051 H 0.46451 0.52936 0.01965 0.0
H1052 H 0.47123 0.55484 0.00391 0.0
H1053 H 0.54041 0.45971 0.97359 0.0
H1054 H 0.50272 0.45248 0.9537 0.0
H1055 H 0.4891 0.45044 0.9809 0.0
C1056 C 0.05172 0.99632 0.95533 0.0
C1057 C 0.03858 0.97472 0.94801 0.0
C1058 C 0.03478 0.00578 0.9736 0.0
C1059 C 0.00428 0.99321 0.9849 0.0
C1060 C 0.99082 0.9714 0.97754 0.0
C1061 C 0.008 0.96247 0.95911 0.0
C1062 C 0.04954 0.0292 0.98083 0.0
C1063 C 0.9587 0.95738 0.98928 0.0
C1064 C 0.99075 0.00683 0.04231 0.0
C1065 C 0.95405 0.02019 0.04228 0.0
C1066 C 0.00733 0.9979 0.02376 0.0
C1067 C 0.98704 0.00266 0.00464 0.0
C1068 C 0.95028 0.01633 0.00442 0.0
C1069 C 0.93411 0.02484 0.02325 0.0
C1070 C 0.04654 0.98333 0.02463 0.0
C1071 C 0.92793 0.02187 0.98431 0.0
H1072 H 0.07497 0.00595 0.94662 0.0
H1073 H 0.99807 0.94567 0.95357 0.0
H1074 H 0.02245 0.04109 0.98229 0.0
H1075 H 0.06407 0.02775 0.99647 0.0
H1076 H 0.07274 0.03697 0.97 0.0
H1077 H 0.95124 0.94086 0.98134 0.0
H1078 H 0.97046 0.95349 0.00516 0.0
H1079 H 0.92934 0.96743 0.99109 0.0
H1080 H 0.00683 0.0035 0.05687 0.0
H1081 H 0.90547 0.03488 0.02308 0.0
H1082 H 0.07166 0.99144 0.0152 0.0
H1083 H 0.0403 0.96608 0.01781 0.0
H1084 H 0.05823 0.981 0.04079 0.0
H1085 H 0.94976 0.03052 0.97336 0.0
H1086 H 0.9003 0.03321 0.98675 0.0
H1087 H 0.91731 0.00569 0.97673 0.0
C1088 C 0.25462 0.69572 0.35581 0.0
C1089 C 0.21194 0.69208 0.35988 0.0
C1090 C 0.27186 0.71797 0.35626 0.0
C1091 C 0.24577 0.73705 0.36085 0.0
C1092 C 0.20284 0.73345 0.36539 0.0
C1093 C 0.18643 0.71099 0.36488 0.0
C1094 C 0.31785 0.72109 0.35146 0.0
C1095 C 0.17403 0.75339 0.3703 0.0
C1096 C 0.29697 0.7935 0.37695 0.0
C1097 C 0.29686 0.80578 0.35812 0.0
C1098 C 0.28036 0.77111 0.37811 0.0
C1099 C 0.26308 0.76084 0.36004 0.0
C1100 C 0.26272 0.7732 0.34103 0.0
C1101 C 0.27965 0.7955 0.3403 0.0
C1102 C 0.28149 0.75839 0.39862 0.0
C1103 C 0.24438 0.76287 0.32145 0.0
H1104 H 0.27462 0.68112 0.35228 0.0
H1105 H 0.15336 0.70829 0.36786 0.0
H1106 H 0.32154 0.73172 0.3372 0.0
H1107 H 0.3335 0.73046 0.36436 0.0
H1108 H 0.33419 0.70439 0.34902 0.0
H1109 H 0.14187 0.74759 0.37437 0.0
H1110 H 0.18676 0.76361 0.38346 0.0
H1111 H 0.17207 0.76509 0.35665 0.0
H1112 H 0.31056 0.80132 0.39072 0.0
H1113 H 0.27887 0.80506 0.3258 0.0
H1114 H 0.29977 0.74222 0.39693 0.0
H1115 H 0.24926 0.75346 0.40333 0.0
H1116 H 0.29569 0.76889 0.41126 0.0
H1117 H 0.26124 0.74674 0.31741 0.0
H1118 H 0.24624 0.77484 0.30797 0.0
H1119 H 0.21105 0.75826 0.32406 0.0
C1120 C 0.74888 0.19554 0.1295 0.0
C1121 C 0.78821 0.19095 0.13838 0.0
C1122 C 0.73183 0.21785 0.12977 0.0
C1123 C 0.75481 0.23607 0.13897 0.0
C1124 C 0.79491 0.23169 0.14753 0.0
C1125 C 0.81105 0.20917 0.14721 0.0
C1126 C 0.68892 0.22185 0.12052 0.0
C1127 C 0.82043 0.25072 0.15739 0.0
C1128 C 0.72577 0.29789 0.12552 0.0
C1129 C 0.70263 0.30448 0.14311 0.0
C1130 C 0.74288 0.27564 0.12392 0.0
C1131 C 0.73637 0.25959 0.14022 0.0
C1132 C 0.71253 0.26607 0.15788 0.0
C1133 C 0.69609 0.28846 0.15914 0.0
C1134 C 0.76843 0.26942 0.10494 0.0
C1135 C 0.70452 0.24935 0.17547 0.0
H1136 H 0.73132 0.18166 0.12233 0.0
H1137 H 0.84119 0.20575 0.15435 0.0
H1138 H 0.66723 0.22824 0.13273 0.0
H1139 H 0.69059 0.23532 0.10827 0.0
H1140 H 0.67546 0.20593 0.1136 0.0
H1141 H 0.85189 0.24469 0.16243 0.0
H1142 H 0.82449 0.26517 0.14624 0.0
H1143 H 0.80363 0.25766 0.17116 0.0
H1144 H 0.73129 0.31031 0.11321 0.0
H1145 H 0.67781 0.29344 0.17265 0.0
H1146 H 0.75477 0.25409 0.09715 0.0
H1147 H 0.80079 0.26479 0.10968 0.0
H1148 H 0.77004 0.28377 0.0935 0.0
H1149 H 0.68879 0.23365 0.16943 0.0
H1150 H 0.68469 0.25696 0.18793 0.0
H1151 H 0.7347 0.24382 0.18244 0.0
C1152 C 0.71609 0.2036 0.62572 0.0
C1153 C 0.71297 0.191 0.64435 0.0
C1154 C 0.73193 0.22619 0.62554 0.0
C1155 C 0.74605 0.23627 0.64433 0.0
C1156 C 0.7438 0.22357 0.66312 0.0
C1157 C 0.72681 0.20125 0.66295 0.0
C1158 C 0.7332 0.23934 0.60524 0.0
C1159 C 0.75916 0.23361 0.68344 0.0
C1160 C 0.82076 0.28718 0.64096 0.0
C1161 C 0.79402 0.30565 0.64553 0.0
C1162 C 0.80563 0.26444 0.64062 0.0
C1163 C 0.76257 0.26025 0.64445 0.0
C1164 C 0.73533 0.27897 0.64867 0.0
C1165 C 0.75152 0.30145 0.64941 0.0
C1166 C 0.83579 0.24489 0.63651 0.0
C1167 C 0.68908 0.27525 0.65236 0.0
H1168 H 0.70637 0.19579 0.61118 0.0
H1169 H 0.72391 0.19196 0.67752 0.0
H1170 H 0.71503 0.25559 0.60674 0.0
H1171 H 0.76595 0.24419 0.60146 0.0
H1172 H 0.7202 0.22921 0.59206 0.0
H1173 H 0.75724 0.22105 0.69647 0.0
H1174 H 0.79218 0.23935 0.68181 0.0
H1175 H 0.74028 0.24901 0.68756 0.0
H1176 H 0.8537 0.29051 0.6381 0.0
H1177 H 0.73087 0.31584 0.65276 0.0
H1178 H 0.82569 0.23499 0.62262 0.0
H1179 H 0.83575 0.23279 0.64991 0.0
H1180 H 0.86834 0.25107 0.63395 0.0
H1181 H 0.67505 0.266 0.63893 0.0
H1182 H 0.67192 0.29173 0.65467 0.0
H1183 H 0.68437 0.26429 0.66632 0.0
C1184 C 0.30403 0.70686 0.86634 0.0
C1185 C 0.28765 0.69012 0.85282 0.0
C1186 C 0.28783 0.72937 0.86666 0.0
C1187 C 0.25451 0.73528 0.85312 0.0
C1188 C 0.23763 0.71842 0.83955 0.0
C1189 C 0.2544 0.69605 0.83957 0.0
C1190 C 0.30652 0.74686 0.88141 0.0
C1191 C 0.20223 0.72411 0.82481 0.0
C1192 C 0.18861 0.78832 0.86496 0.0
C1193 C 0.20594 0.80464 0.85132 0.0
C1194 C 0.20425 0.76569 0.86581 0.0
C1195 C 0.238 0.75927 0.85272 0.0
C1196 C 0.25581 0.77571 0.83904 0.0
C1197 C 0.23959 0.79819 0.83852 0.0
C1198 C 0.18443 0.7486 0.88057 0.0
C1199 C 0.29195 0.76954 0.8249 0.0
H1200 H 0.32935 0.70229 0.87681 0.0
H1201 H 0.24196 0.68327 0.82891 0.0
H1202 H 0.31965 0.76155 0.87245 0.0
H1203 H 0.2818 0.75391 0.89176 0.0
H1204 H 0.33178 0.73939 0.89121 0.0
H1205 H 0.19189 0.70887 0.81566 0.0
H1206 H 0.175 0.73091 0.83363 0.0
H1207 H 0.21227 0.73781 0.81383 0.0
H1208 H 0.16234 0.79314 0.87473 0.0
H1209 H 0.25359 0.81083 0.82821 0.0
H1210 H 0.20848 0.74152 0.89128 0.0
H1211 H 0.17129 0.73388 0.87166 0.0
H1212 H 0.15895 0.75645 0.89 0.0
H1213 H 0.31893 0.76343 0.8343 0.0
H1214 H 0.30233 0.78437 0.81524 0.0
H1215 H 0.28275 0.75521 0.8144 0.0
loop_
_geom_bond_atom_site_label_1
_geom_bond_atom_site_label_2
_geom_bond_distance
_geom_bond_site_symmetry_2
_ccdc_geom_bond_type
Li0 N17 1.990 . S
Li0 O60 1.956 . S
Li0 O61 1.970 . S
Li0 O62 1.961 . S
Li1 N25 1.990 . S
Li1 O60 1.970 . S
Li1 O61 1.956 . S
Li1 O63 1.961 . S
Li2 N47 1.990 . S
Li2 O60 1.961 . S
Li2 O62 1.956 . S
Li2 O63 1.970 . S
Li3 N53 1.990 . S
Li3 O61 1.961 . S
Li3 O62 1.970 . S
Li3 O63 1.956 . S
C4 C6 1.348 . S
C4 C7 1.356 . S
C4 O60 1.325 . S
N5 C8 1.314 . S
N5 C9 1.279 . S
C6 C4 1.348 . S
C6 C8 1.353 1_455 S
C6 H64 0.929 . S
C7 C4 1.356 . S
C7 C9 1.358 1_455 S
C7 H65 0.930 . S
C8 N5 1.314 . S
C8 C6 1.353 1_655 S
C8 H66 0.930 . S
C9 N5 1.279 . S
C9 C7 1.358 1_655 S
C9 H67 0.930 . S
C10 C13 1.348 . S
C10 C14 1.356 . S
C10 O61 1.325 . S
C11 N12 1.279 . S
C11 C14 1.358 . S
C11 H68 0.930 . S
N12 C11 1.279 . S
N12 C15 1.314 . S
C13 C10 1.348 . S
C13 C15 1.353 . S
C13 H69 0.929 . S
C14 C10 1.356 . S
C14 C11 1.358 . S
C14 H70 0.930 . S
C15 N12 1.314 . S
C15 C13 1.353 . S
C15 H71 0.930 . S
C16 N17 1.314 . S
C16 C21 1.353 . S
C16 H22 0.930 . S
N17 Li0 1.990 . S
N17 C16 1.314 . S
N17 C19 1.279 1_455 S
C18 C19 1.358 . S
C18 C20 1.356 . S
C18 H72 0.930 . S
C19 N17 1.279 1_655 S
C19 C18 1.358 . S
C19 H23 0.930 . S
C20 C18 1.356 . S
C20 C21 1.348 1_655 S
C21 C16 1.353 . S
C21 C20 1.348 1_455 S
C21 H73 0.929 . S
H22 C16 0.930 . S
H23 C19 0.930 . S
C24 N25 1.314 . S
C24 C26 1.353 . S
C24 H30 0.930 . S
N25 Li1 1.990 . S
N25 C24 1.314 . S
N25 C28 1.279 . S
C26 C24 1.353 . S
C26 C29 1.348 . S
C26 H74 0.929 . S
C27 C28 1.358 . S
C27 C29 1.356 . S
C27 H75 0.930 . S
C28 N25 1.279 . S
C28 C27 1.358 . S
C28 H31 0.930 . S
C29 C26 1.348 . S
C29 C27 1.356 . S
H30 C24 0.930 . S
H31 C28 0.930 . S
C32 C34 1.348 . S
C32 C35 1.356 . S
C32 O62 1.325 . S
N33 C36 1.314 . S
N33 C37 1.279 . S
C34 C32 1.348 . S
C34 C36 1.353 . S
C34 H76 0.929 . S
C35 C32 1.356 . S
C35 C37 1.358 . S
C35 H77 0.930 . S
C36 N33 1.314 . S
C36 C34 1.353 . S
C36 H78 0.930 . S
C37 N33 1.279 . S
C37 C35 1.358 . S
C37 H79 0.930 . S
C38 C39 1.348 . S
C38 C40 1.356 . S
C38 O63 1.325 . S
C39 C38 1.348 . S
C39 C41 1.353 . S
C39 H80 0.929 . S
C40 C38 1.356 . S
C40 C42 1.358 . S
C40 H81 0.930 . S
C41 C39 1.353 . S
C41 N43 1.314 . S
C41 H82 0.930 . S
C42 C40 1.358 . S
C42 N43 1.279 . S
C42 H83 0.930 . S
N43 C41 1.314 . S
N43 C42 1.279 . S
C44 C46 1.353 . S
C44 N47 1.314 . S
C44 H50 0.930 . S
C45 N47 1.279 . S
C45 C48 1.358 . S
C45 H51 0.930 . S
C46 C44 1.353 . S
C46 C49 1.348 . S
C46 H84 0.929 . S
N47 Li2 1.990 . S
N47 C44 1.314 . S
N47 C45 1.279 . S
C48 C45 1.358 . S
C48 C49 1.356 . S
C48 H85 0.930 . S
C49 C46 1.348 . S
C49 C48 1.356 . S
H50 C44 0.930 . S
H51 C45 0.930 . S
C52 N53 1.314 . S
C52 C54 1.353 . S
C52 H58 0.930 . S
N53 Li3 1.990 . S
N53 C52 1.314 . S
N53 C56 1.279 . S
C54 C52 1.353 . S
C54 C57 1.348 . S
C54 H86 0.929 . S
C55 C56 1.358 . S
C55 C57 1.356 . S
C55 H87 0.930 . S
C56 N53 1.279 . S
C56 C55 1.358 . S
C56 H59 0.930 . S
C57 C54 1.348 . S
C57 C55 1.356 . S
H58 C52 0.930 . S
H59 C56 0.930 . S
O60 Li0 1.956 . S
O60 Li1 1.970 . S
O60 Li2 1.961 . S
O60 C4 1.325 . S
O61 Li0 1.970 . S
O61 Li1 1.956 . S
O61 Li3 1.961 . S
O61 C10 1.325 . S
O62 Li0 1.961 . S
O62 Li2 1.956 . S
O62 Li3 1.970 . S
O62 C32 1.325 . S
O63 Li1 1.961 . S
O63 Li2 1.970 . S
O63 Li3 1.956 . S
O63 C38 1.325 . S
H64 C6 0.929 . S
H65 C7 0.930 . S
H66 C8 0.930 . S
H67 C9 0.930 . S
H68 C11 0.930 . S
H69 C13 0.929 . S
H70 C14 0.930 . S
H71 C15 0.930 . S
H72 C18 0.930 . S
H73 C21 0.929 . S
H74 C26 0.929 . S
H75 C27 0.930 . S
H76 C34 0.929 . S
H77 C35 0.930 . S
H78 C36 0.930 . S
H79 C37 0.930 . S
H80 C39 0.929 . S
H81 C40 0.930 . S
H82 C41 0.930 . S
H83 C42 0.930 . S
H84 C46 0.929 . S
H85 C48 0.930 . S
H86 C54 0.929 . S
H87 C55 0.930 . S
Li88 N105 1.990 . S
Li88 O148 1.956 . S
Li88 O149 1.970 . S
Li88 O150 1.961 . S
Li89 N113 1.990 . S
Li89 O148 1.970 . S
Li89 O149 1.956 . S
Li89 O151 1.961 . S
Li90 N135 1.990 . S
Li90 O148 1.961 . S
Li90 O150 1.956 . S
Li90 O151 1.970 . S
Li91 N141 1.990 . S
Li91 O149 1.961 . S
Li91 O150 1.970 . S
Li91 O151 1.956 . S
C92 C94 1.348 . S
C92 C95 1.356 . S
C92 O148 1.325 . S
N93 C96 1.314 . S
N93 C97 1.279 . S
C94 C92 1.348 . S
C94 C96 1.353 . S
C94 H152 0.929 . S
C95 C92 1.356 . S
C95 C97 1.358 . S
C95 H153 0.930 . S
C96 N93 1.314 . S
C96 C94 1.353 . S
C96 H154 0.930 . S
C97 N93 1.279 . S
C97 C95 1.358 . S
C97 H155 0.930 . S
C98 C101 1.348 . S
C98 C102 1.356 . S
C98 O149 1.325 . S
C99 N100 1.279 . S
C99 C102 1.358 . S
C99 H156 0.930 . S
N100 C99 1.279 . S
N100 C103 1.314 . S
C101 C98 1.348 . S
C101 C103 1.353 . S
C101 H157 0.929 . S
C102 C98 1.356 . S
C102 C99 1.358 . S
C102 H158 0.930 . S
C103 N100 1.314 . S
C103 C101 1.353 . S
C103 H159 0.930 . S
C104 N105 1.314 . S
C104 C109 1.353 . S
C104 H110 0.930 . S
N105 Li88 1.990 . S
N105 C104 1.314 . S
N105 C107 1.279 . S
C106 C107 1.358 . S
C106 C108 1.356 . S
C106 H160 0.930 . S
C107 N105 1.279 . S
C107 C106 1.358 . S
C107 H111 0.930 . S
C108 C106 1.356 . S
C108 C109 1.348 . S
C109 C104 1.353 . S
C109 C108 1.348 . S
C109 H161 0.929 1_565 S
H110 C104 0.930 . S
H111 C107 0.930 . S
C112 N113 1.314 . S
C112 C114 1.353 . S
C112 H118 0.930 . S
N113 Li89 1.990 . S
N113 C112 1.314 . S
N113 C116 1.279 . S
C114 C112 1.353 . S
C114 C117 1.348 . S
C114 H162 0.929 . S
C115 C116 1.358 . S
C115 C117 1.356 . S
C115 H163 0.930 . S
C116 N113 1.279 . S
C116 C115 1.358 . S
C116 H119 0.930 . S
C117 C114 1.348 . S
C117 C115 1.356 . S
H118 C112 0.930 . S
H119 C116 0.930 . S
C120 C122 1.348 . S
C120 C123 1.356 1_565 S
C120 O150 1.325 . S
N121 C124 1.314 . S
N121 C125 1.279 . S
C122 C120 1.348 . S
C122 C124 1.353 1_565 S
C122 H164 0.929 . S
C123 C120 1.356 1_545 S
C123 C125 1.358 . S
C123 H165 0.930 1_545 S
C124 N121 1.314 . S
C124 C122 1.353 1_545 S
C124 H166 0.930 . S
C125 N121 1.279 . S
C125 C123 1.358 . S
C125 H167 0.930 . S
C126 C127 1.348 . S
C126 C128 1.356 . S
C126 O151 1.325 . S
C127 C126 1.348 . S
C127 C129 1.353 . S
C127 H168 0.929 . S
C128 C126 1.356 . S
C128 C130 1.358 . S
C128 H169 0.930 . S
C129 C127 1.353 . S
C129 N131 1.314 . S
C129 H170 0.930 . S
C130 C128 1.358 . S
C130 N131 1.279 . S
C130 H171 0.930 . S
N131 C129 1.314 . S
N131 C130 1.279 . S
C132 C134 1.353 . S
C132 N135 1.314 . S
C132 H138 0.930 . S
C133 N135 1.279 . S
C133 C136 1.358 . S
C133 H139 0.930 . S
C134 C132 1.353 . S
C134 C137 1.348 . S
C134 H172 0.929 . S
N135 Li90 1.990 . S
N135 C132 1.314 . S
N135 C133 1.279 . S
C136 C133 1.358 . S
C136 C137 1.356 . S
C136 H173 0.923 1_565 S
C137 C134 1.348 . S
C137 C136 1.356 . S
H138 C132 0.930 . S
H139 C133 0.930 . S
C140 N141 1.314 . S
C140 C142 1.353 . S
C140 H146 0.930 . S
N141 Li91 1.990 . S
N141 C140 1.314 . S
N141 C144 1.279 . S
C142 C140 1.353 . S
C142 C145 1.348 . S
C142 H174 0.929 . S
C143 C144 1.358 . S
C143 C145 1.356 . S
C143 H175 0.930 . S
C144 N141 1.279 . S
C144 C143 1.358 . S
C144 H147 0.930 . S
C145 C142 1.348 . S
C145 C143 1.356 . S
H146 C140 0.930 . S
H147 C144 0.930 . S
O148 Li88 1.956 . S
O148 Li89 1.970 . S
O148 Li90 1.961 . S
O148 C92 1.325 . S
O149 Li88 1.970 . S
O149 Li89 1.956 . S
O149 Li91 1.961 . S
O149 C98 1.325 . S
O150 Li88 1.961 . S
O150 Li90 1.956 . S
O150 Li91 1.970 . S
O150 C120 1.325 . S
O151 Li89 1.961 . S
O151 Li90 1.970 . S
O151 Li91 1.956 . S
O151 C126 1.325 . S
H152 C94 0.929 . S
H153 C95 0.930 . S
H154 C96 0.930 . S
H155 C97 0.930 . S
H156 C99 0.930 . S
H157 C101 0.929 . S
H158 C102 0.930 . S
H159 C103 0.930 . S
H160 C106 0.930 . S
H161 C109 0.929 1_545 S
H162 C114 0.929 . S
H163 C115 0.930 . S
H164 C122 0.929 . S
H165 C123 0.930 1_565 S
H166 C124 0.930 . S
H167 C125 0.930 . S
H168 C127 0.929 . S
H169 C128 0.930 . S
H170 C129 0.930 . S
H171 C130 0.930 . S
H172 C134 0.929 . S
H173 C136 0.923 1_545 S
H174 C142 0.929 . S
H175 C143 0.930 . S
Li176 N193 1.990 . S
Li176 O236 1.956 . S
Li176 O237 1.970 . S
Li176 O238 1.961 . S
Li177 N201 1.990 . S
Li177 O236 1.970 . S
Li177 O237 1.956 . S
Li177 O239 1.961 . S
Li178 N223 1.990 . S
Li178 O236 1.961 . S
Li178 O238 1.956 . S
Li178 O239 1.970 . S
Li179 N229 1.990 . S
Li179 O237 1.961 . S
Li179 O238 1.970 . S
Li179 O239 1.956 . S
C180 C182 1.348 . S
C180 C183 1.356 . S
C180 O236 1.325 . S
N181 C184 1.314 . S
N181 C185 1.279 . S
C182 C180 1.348 . S
C182 C184 1.353 . S
C182 H240 0.929 . S
C183 C180 1.356 . S
C183 C185 1.358 . S
C183 H241 0.930 . S
C184 N181 1.314 . S
C184 C182 1.353 . S
C184 H242 0.930 . S
C185 N181 1.279 . S
C185 C183 1.358 . S
C185 H243 0.930 . S
C186 C189 1.348 . S
C186 C190 1.356 . S
C186 O237 1.325 . S
C187 N188 1.279 . S
C187 C190 1.358 . S
C187 H244 0.930 . S
N188 C187 1.279 . S
N188 C191 1.314 . S
C189 C186 1.348 . S
C189 C191 1.353 . S
C189 H245 0.929 . S
C190 C186 1.356 . S
C190 C187 1.358 . S
C190 H246 0.930 . S
C191 N188 1.314 . S
C191 C189 1.353 . S
C191 H247 0.930 . S
C192 N193 1.314 . S
C192 C197 1.353 . S
C192 H198 0.930 . S
N193 Li176 1.990 . S
N193 C192 1.314 . S
N193 C195 1.279 . S
C194 C195 1.358 . S
C194 C196 1.356 . S
C194 H248 0.930 . S
C195 N193 1.279 . S
C195 C194 1.358 . S
C195 H199 0.930 . S
C196 C194 1.356 . S
C196 C197 1.348 . S
C197 C192 1.353 . S
C197 C196 1.348 . S
C197 H249 0.929 . S
H198 C192 0.930 . S
H199 C195 0.930 . S
C200 N201 1.314 . S
C200 C202 1.353 . S
C200 H206 0.930 . S
N201 Li177 1.990 . S
N201 C200 1.314 . S
N201 C204 1.279 . S
C202 C200 1.353 . S
C202 C205 1.348 . S
C202 H250 0.929 . S
C203 C204 1.358 . S
C203 C205 1.356 . S
C203 H251 0.930 . S
C204 N201 1.279 . S
C204 C203 1.358 . S
C204 H207 0.930 . S
C205 C202 1.348 . S
C205 C203 1.356 . S
H206 C200 0.930 . S
H207 C204 0.930 . S
C208 C210 1.348 . S
C208 C211 1.356 . S
C208 O238 1.325 . S
N209 C212 1.314 . S
N209 C213 1.279 . S
C210 C208 1.348 . S
C210 C212 1.353 . S
C210 H252 0.929 . S
C211 C208 1.356 . S
C211 C213 1.358 . S
C211 H253 0.930 . S
C212 N209 1.314 . S
C212 C210 1.353 . S
C212 H254 0.930 . S
C213 N209 1.279 . S
C213 C211 1.358 . S
C213 H255 0.930 . S
C214 C215 1.348 . S
C214 C216 1.356 . S
C214 O239 1.325 . S
C215 C214 1.348 . S
C215 C217 1.353 . S
C215 H256 0.929 . S
C216 C214 1.356 . S
C216 C218 1.358 . S
C216 H257 0.930 . S
C217 C215 1.353 . S
C217 N219 1.314 . S
C217 H258 0.930 . S
C218 C216 1.358 . S
C218 N219 1.279 . S
C218 H259 0.930 . S
N219 C217 1.314 . S
N219 C218 1.279 . S
C220 C222 1.353 . S
C220 N223 1.314 . S
C220 H226 0.930 . S
C221 N223 1.279 . S
C221 C224 1.358 . S
C221 H227 0.930 . S
C222 C220 1.353 . S
C222 C225 1.348 . S
C222 H260 0.929 . S
N223 Li178 1.990 . S
N223 C220 1.314 . S
N223 C221 1.279 . S
C224 C221 1.358 . S
C224 C225 1.356 . S
C224 H261 0.930 . S
C225 C222 1.348 . S
C225 C224 1.356 . S
H226 C220 0.930 . S
H227 C221 0.930 . S
C228 N229 1.314 . S
C228 C230 1.353 . S
C228 H234 0.930 . S
N229 Li179 1.990 . S
N229 C228 1.314 . S
N229 C232 1.279 . S
C230 C228 1.353 . S
C230 C233 1.348 . S
C230 H262 0.929 . S
C231 C232 1.358 . S
C231 C233 1.356 . S
C231 H263 0.930 . S
C232 N229 1.279 . S
C232 C231 1.358 . S
C232 H235 0.930 . S
C233 C230 1.348 . S
C233 C231 1.356 . S
H234 C228 0.930 . S
H235 C232 0.930 . S
O236 Li176 1.956 . S
O236 Li177 1.970 . S
O236 Li178 1.961 . S
O236 C180 1.325 . S
O237 Li176 1.970 . S
O237 Li177 1.956 . S
O237 Li179 1.961 . S
O237 C186 1.325 . S
O238 Li176 1.961 . S
O238 Li178 1.956 . S
O238 Li179 1.970 . S
O238 C208 1.325 . S
O239 Li177 1.961 . S
O239 Li178 1.970 . S
O239 Li179 1.956 . S
O239 C214 1.325 . S
H240 C182 0.929 . S
H241 C183 0.930 . S
H242 C184 0.930 . S
H243 C185 0.930 . S
H244 C187 0.930 . S
H245 C189 0.929 . S
H246 C190 0.930 . S
H247 C191 0.930 . S
H248 C194 0.930 . S
H249 C197 0.929 . S
H250 C202 0.929 . S
H251 C203 0.930 . S
H252 C210 0.929 . S
H253 C211 0.930 . S
H254 C212 0.930 . S
H255 C213 0.930 . S
H256 C215 0.929 . S
H257 C216 0.930 . S
H258 C217 0.930 . S
H259 C218 0.930 . S
H260 C222 0.929 . S
H261 C224 0.930 . S
H262 C230 0.929 . S
H263 C231 0.930 . S
Li264 N281 1.990 . S
Li264 O324 1.956 . S
Li264 O325 1.970 . S
Li264 O326 1.961 . S
Li265 N289 1.990 . S
Li265 O324 1.970 . S
Li265 O325 1.956 . S
Li265 O327 1.961 . S
Li266 N311 1.990 . S
Li266 O324 1.961 . S
Li266 O326 1.956 . S
Li266 O327 1.970 . S
Li267 N317 1.990 . S
Li267 O325 1.961 . S
Li267 O326 1.970 . S
Li267 O327 1.956 . S
C268 C270 1.348 . S
C268 C271 1.356 . S
C268 O324 1.325 . S
N269 C272 1.314 . S
N269 C273 1.279 . S
C270 C268 1.348 . S
C270 C272 1.353 . S
C270 H328 0.929 . S
C271 C268 1.356 . S
C271 C273 1.358 . S
C271 H329 0.930 . S
C272 N269 1.314 . S
C272 C270 1.353 . S
C272 H330 0.930 . S
C273 N269 1.279 . S
C273 C271 1.358 . S
C273 H331 0.930 . S
C274 C277 1.348 . S
C274 C278 1.356 . S
C274 O325 1.325 . S
C275 N276 1.279 . S
C275 C278 1.358 . S
C275 H332 0.930 . S
N276 C275 1.279 . S
N276 C279 1.314 . S
C277 C274 1.348 . S
C277 C279 1.353 . S
C277 H333 0.929 . S
C278 C274 1.356 . S
C278 C275 1.358 . S
C278 H334 0.930 . S
C279 N276 1.314 . S
C279 C277 1.353 . S
C279 H335 0.930 . S
C280 N281 1.314 . S
C280 C285 1.353 . S
C280 H286 0.930 . S
N281 Li264 1.990 . S
N281 C280 1.314 . S
N281 C283 1.279 . S
C282 C283 1.358 . S
C282 C284 1.356 . S
C282 H336 0.930 . S
C283 N281 1.279 . S
C283 C282 1.358 . S
C283 H287 0.930 . S
C284 C282 1.356 . S
C284 C285 1.348 . S
C285 C280 1.353 . S
C285 C284 1.348 . S
C285 H337 0.929 1_545 S
H286 C280 0.930 . S
H287 C283 0.930 . S
C288 N289 1.314 . S
C288 C290 1.353 . S
C288 H294 0.930 . S
N289 Li265 1.990 . S
N289 C288 1.314 . S
N289 C292 1.279 . S
C290 C288 1.353 . S
C290 C293 1.348 . S
C290 H338 0.929 . S
C291 C292 1.358 . S
C291 C293 1.356 . S
C291 H339 0.930 . S
C292 N289 1.279 . S
C292 C291 1.358 . S
C292 H295 0.930 . S
C293 C290 1.348 . S
C293 C291 1.356 . S
H294 C288 0.930 . S
H295 C292 0.930 . S
C296 C298 1.348 . S
C296 C299 1.356 1_545 S
C296 O326 1.325 . S
N297 C300 1.314 . S
N297 C301 1.279 . S
C298 C296 1.348 . S
C298 C300 1.353 1_545 S
C298 H340 0.929 . S
C299 C296 1.356 1_565 S
C299 C301 1.358 . S
C299 H341 0.930 1_565 S
C300 N297 1.314 . S
C300 C298 1.353 1_565 S
C300 H342 0.930 . S
C301 N297 1.279 . S
C301 C299 1.358 . S
C301 H343 0.930 . S
C302 C303 1.348 . S
C302 C304 1.356 . S
C302 O327 1.325 . S
C303 C302 1.348 . S
C303 C305 1.353 1_655 S
C303 H344 0.929 . S
C304 C302 1.356 . S
C304 C306 1.358 1_655 S
C304 H345 0.930 . S
C305 C303 1.353 1_455 S
C305 N307 1.314 . S
C305 H346 0.930 . S
C306 C304 1.358 1_455 S
C306 N307 1.279 . S
C306 H347 0.930 . S
N307 C305 1.314 . S
N307 C306 1.279 . S
C308 C310 1.353 . S
C308 N311 1.314 . S
C308 H314 0.930 . S
C309 N311 1.279 . S
C309 C312 1.358 . S
C309 H315 0.930 . S
C310 C308 1.353 . S
C310 C313 1.348 . S
C310 H348 0.929 . S
N311 Li266 1.990 . S
N311 C308 1.314 . S
N311 C309 1.279 . S
C312 C309 1.358 . S
C312 C313 1.356 . S
C312 H349 0.923 1_545 S
C313 C310 1.348 . S
C313 C312 1.356 . S
H314 C308 0.930 . S
H315 C309 0.930 . S
C316 N317 1.314 . S
C316 C318 1.353 . S
C316 H322 0.930 . S
N317 Li267 1.990 . S
N317 C316 1.314 . S
N317 C320 1.279 1_655 S
C318 C316 1.353 . S
C318 C321 1.348 1_655 S
C318 H350 0.929 . S
C319 C320 1.358 . S
C319 C321 1.356 . S
C319 H351 0.930 . S
C320 N317 1.279 1_455 S
C320 C319 1.358 . S
C320 H323 0.930 . S
C321 C318 1.348 1_455 S
C321 C319 1.356 . S
H322 C316 0.930 . S
H323 C320 0.930 . S
O324 Li264 1.956 . S
O324 Li265 1.970 . S
O324 Li266 1.961 . S
O324 C268 1.325 . S
O325 Li264 1.970 . S
O325 Li265 1.956 . S
O325 Li267 1.961 . S
O325 C274 1.325 . S
O326 Li264 1.961 . S
O326 Li266 1.956 . S
O326 Li267 1.970 . S
O326 C296 1.325 . S
O327 Li265 1.961 . S
O327 Li266 1.970 . S
O327 Li267 1.956 . S
O327 C302 1.325 . S
H328 C270 0.929 . S
H329 C271 0.930 . S
H330 C272 0.930 . S
H331 C273 0.930 . S
H332 C275 0.930 . S
H333 C277 0.929 . S
H334 C278 0.930 . S
H335 C279 0.930 . S
H336 C282 0.930 . S
H337 C285 0.929 1_565 S
H338 C290 0.929 . S
H339 C291 0.930 . S
H340 C298 0.929 . S
H341 C299 0.930 1_545 S
H342 C300 0.930 . S
H343 C301 0.930 . S
H344 C303 0.929 . S
H345 C304 0.930 . S
H346 C305 0.930 . S
H347 C306 0.930 . S
H348 C310 0.929 . S
H349 C312 0.923 1_565 S
H350 C318 0.929 . S
H351 C319 0.930 . S
Li352 N369 1.990 . S
Li352 O412 1.956 . S
Li352 O413 1.970 . S
Li352 O414 1.961 . S
Li353 N377 1.990 . S
Li353 O412 1.970 . S
Li353 O413 1.956 . S
Li353 O415 1.961 . S
Li354 N399 1.990 . S
Li354 O412 1.961 . S
Li354 O414 1.956 . S
Li354 O415 1.970 . S
Li355 N405 1.990 . S
Li355 O413 1.961 . S
Li355 O414 1.970 . S
Li355 O415 1.956 . S
C356 C358 1.348 . S
C356 C359 1.356 . S
C356 O412 1.325 . S
N357 C360 1.314 . S
N357 C361 1.279 . S
C358 C356 1.348 . S
C358 C360 1.353 . S
C358 H416 0.929 . S
C359 C356 1.356 . S
C359 C361 1.358 . S
C359 H417 0.930 . S
C360 N357 1.314 . S
C360 C358 1.353 . S
C360 H418 0.930 . S
C361 N357 1.279 . S
C361 C359 1.358 . S
C361 H419 0.930 . S
C362 C365 1.348 . S
C362 C366 1.356 . S
C362 O413 1.325 . S
C363 N364 1.279 . S
C363 C366 1.358 . S
C363 H420 0.930 . S
N364 C363 1.279 . S
N364 C367 1.314 . S
C365 C362 1.348 . S
C365 C367 1.353 . S
C365 H421 0.929 . S
C366 C362 1.356 . S
C366 C363 1.358 . S
C366 H422 0.930 . S
C367 N364 1.314 . S
C367 C365 1.353 . S
C367 H423 0.930 . S
C368 N369 1.314 . S
C368 C373 1.353 . S
C368 H374 0.930 . S
N369 Li352 1.990 . S
N369 C368 1.314 . S
N369 C371 1.279 . S
C370 C371 1.358 . S
C370 C372 1.356 . S
C370 H424 0.930 . S
C371 N369 1.279 . S
C371 C370 1.358 . S
C371 H375 0.930 . S
C372 C370 1.356 . S
C372 C373 1.348 . S
C373 C368 1.353 . S
C373 C372 1.348 . S
C373 H425 0.929 . S
H374 C368 0.930 . S
H375 C371 0.930 . S
C376 N377 1.314 1_455 S
C376 C378 1.353 . S
C376 H382 0.930 . S
N377 Li353 1.990 . S
N377 C376 1.314 1_655 S
N377 C380 1.279 . S
C378 C376 1.353 . S
C378 C381 1.348 . S
C378 H426 0.929 . S
C379 C380 1.375 . S
C379 C381 1.338 1_655 S
C379 H427 0.932 . S
C380 N377 1.279 . S
C380 C379 1.375 . S
C380 H383 0.930 . S
C381 C378 1.348 . S
C381 C379 1.338 1_455 S
H382 C376 0.930 . S
H383 C380 0.930 . S
C384 C386 1.348 . S
C384 C387 1.356 . S
C384 O414 1.325 . S
N385 C388 1.314 . S
N385 C389 1.279 . S
C386 C384 1.348 . S
C386 C388 1.353 . S
C386 H428 0.929 . S
C387 C384 1.356 . S
C387 C389 1.358 . S
C387 H429 0.930 . S
C388 N385 1.314 . S
C388 C386 1.353 . S
C388 H430 0.930 . S
C389 N385 1.279 . S
C389 C387 1.358 . S
C389 H431 0.930 . S
C390 C391 1.348 . S
C390 C392 1.356 . S
C390 O415 1.325 . S
C391 C390 1.348 . S
C391 C393 1.353 . S
C391 H432 0.929 . S
C392 C390 1.356 . S
C392 C394 1.358 1_655 S
C392 H433 0.930 . S
C393 C391 1.353 . S
C393 N395 1.314 1_655 S
C393 H434 0.929 1_655 S
C394 C392 1.358 1_455 S
C394 N395 1.279 . S
C394 H435 0.930 . S
N395 C393 1.314 1_455 S
N395 C394 1.279 . S
C396 C398 1.353 . S
C396 N399 1.314 . S
C396 H402 0.930 . S
C397 N399 1.279 . S
C397 C400 1.358 . S
C397 H403 0.930 . S
C398 C396 1.353 . S
C398 C401 1.348 . S
C398 H436 0.929 . S
N399 Li354 1.990 . S
N399 C396 1.314 . S
N399 C397 1.279 . S
C400 C397 1.358 . S
C400 C401 1.356 . S
C400 H437 0.930 . S
C401 C398 1.348 . S
C401 C400 1.356 . S
H402 C396 0.930 . S
H403 C397 0.930 . S
C404 N405 1.314 . S
C404 C406 1.353 . S
C404 H410 0.930 . S
N405 Li355 1.990 . S
N405 C404 1.314 . S
N405 C408 1.279 . S
C406 C404 1.353 . S
C406 C409 1.348 . S
C406 H438 0.929 . S
C407 C408 1.358 . S
C407 C409 1.356 . S
C407 H439 0.930 . S
C408 N405 1.279 . S
C408 C407 1.358 . S
C408 H411 0.930 . S
C409 C406 1.348 . S
C409 C407 1.356 . S
H410 C404 0.930 . S
H411 C408 0.930 . S
O412 Li352 1.956 . S
O412 Li353 1.970 . S
O412 Li354 1.961 . S
O412 C356 1.325 . S
O413 Li352 1.970 . S
O413 Li353 1.956 . S
O413 Li355 1.961 . S
O413 C362 1.325 . S
O414 Li352 1.961 . S
O414 Li354 1.956 . S
O414 Li355 1.970 . S
O414 C384 1.325 . S
O415 Li353 1.961 . S
O415 Li354 1.970 . S
O415 Li355 1.956 . S
O415 C390 1.325 . S
H416 C358 0.929 . S
H417 C359 0.930 . S
H418 C360 0.930 . S
H419 C361 0.930 . S
H420 C363 0.930 . S
H421 C365 0.929 . S
H422 C366 0.930 . S
H423 C367 0.930 . S
H424 C370 0.930 . S
H425 C373 0.929 . S
H426 C378 0.929 . S
H427 C379 0.932 . S
H428 C386 0.929 . S
H429 C387 0.930 . S
H430 C388 0.930 . S
H431 C389 0.930 . S
H432 C391 0.929 . S
H433 C392 0.930 . S
H434 C393 0.929 1_455 S
H435 C394 0.930 . S
H436 C398 0.929 . S
H437 C400 0.930 . S
H438 C406 0.929 . S
H439 C407 0.930 . S
Li440 N457 1.990 . S
Li440 O500 1.956 . S
Li440 O501 1.970 . S
Li440 O502 1.961 . S
Li441 N465 1.990 . S
Li441 O500 1.970 . S
Li441 O501 1.956 . S
Li441 O503 1.961 . S
Li442 N487 1.990 . S
Li442 O500 1.961 . S
Li442 O502 1.956 . S
Li442 O503 1.970 . S
Li443 N493 1.990 . S
Li443 O501 1.961 . S
Li443 O502 1.970 . S
Li443 O503 1.956 . S
C444 C446 1.348 . S
C444 C447 1.356 . S
C444 O500 1.325 . S
N445 C448 1.314 . S
N445 C449 1.279 . S
C446 C444 1.348 . S
C446 C448 1.353 . S
C446 H504 0.929 . S
C447 C444 1.356 . S
C447 C449 1.358 . S
C447 H505 0.930 . S
C448 N445 1.314 . S
C448 C446 1.353 . S
C448 H506 0.930 . S
C449 N445 1.279 . S
C449 C447 1.358 . S
C449 H507 0.930 . S
C450 C453 1.348 . S
C450 C454 1.356 1_545 S
C450 O501 1.325 . S
C451 N452 1.279 . S
C451 C454 1.358 . S
C451 H508 0.930 . S
N452 C451 1.279 . S
N452 C455 1.314 . S
C453 C450 1.348 . S
C453 C455 1.353 1_545 S
C453 H509 0.929 . S
C454 C450 1.356 1_565 S
C454 C451 1.358 . S
C454 H510 0.930 1_565 S
C455 N452 1.314 . S
C455 C453 1.353 1_565 S
C455 H511 0.930 . S
C456 N457 1.314 . S
C456 C461 1.353 . S
C456 H462 0.930 . S
N457 Li440 1.990 . S
N457 C456 1.314 . S
N457 C459 1.279 . S
C458 C459 1.358 . S
C458 C460 1.356 . S
C458 H512 0.930 . S
C459 N457 1.279 . S
C459 C458 1.358 . S
C459 H463 0.930 . S
C460 C458 1.356 . S
C460 C461 1.348 . S
C461 C456 1.353 . S
C461 C460 1.348 . S
C461 H513 0.929 . S
H462 C456 0.930 . S
H463 C459 0.930 . S
C464 N465 1.314 . S
C464 C466 1.353 . S
C464 H470 0.930 . S
N465 Li441 1.990 . S
N465 C464 1.314 . S
N465 C468 1.279 . S
C466 C464 1.353 . S
C466 C469 1.348 . S
C466 H514 0.929 . S
C467 C468 1.358 . S
C467 C469 1.356 . S
C467 H515 0.930 1_545 S
C468 N465 1.279 . S
C468 C467 1.358 . S
C468 H471 0.930 . S
C469 C466 1.348 . S
C469 C467 1.356 . S
H470 C464 0.930 . S
H471 C468 0.930 . S
C472 C474 1.348 . S
C472 C475 1.356 . S
C472 O502 1.325 . S
N473 C476 1.314 . S
N473 C477 1.279 . S
C474 C472 1.348 . S
C474 C476 1.353 . S
C474 H516 0.929 . S
C475 C472 1.356 . S
C475 C477 1.358 . S
C475 H517 0.930 . S
C476 N473 1.314 . S
C476 C474 1.353 . S
C476 H518 0.930 . S
C477 N473 1.279 . S
C477 C475 1.358 . S
C477 H519 0.930 . S
C478 C479 1.348 . S
C478 C480 1.356 . S
C478 O503 1.325 . S
C479 C478 1.348 . S
C479 C481 1.353 . S
C479 H520 0.929 . S
C480 C478 1.356 . S
C480 C482 1.358 . S
C480 H521 0.930 . S
C481 C479 1.353 . S
C481 N483 1.314 . S
C481 H522 0.930 . S
C482 C480 1.358 . S
C482 N483 1.279 . S
C482 H523 0.930 . S
N483 C481 1.314 . S
N483 C482 1.279 . S
C484 C486 1.353 . S
C484 N487 1.314 . S
C484 H490 0.930 . S
C485 N487 1.279 . S
C485 C488 1.358 . S
C485 H491 0.930 . S
C486 C484 1.353 . S
C486 C489 1.348 . S
C486 H524 0.929 . S
N487 Li442 1.990 . S
N487 C484 1.314 . S
N487 C485 1.279 . S
C488 C485 1.358 . S
C488 C489 1.356 . S
C488 H525 0.930 . S
C489 C486 1.348 . S
C489 C488 1.356 . S
H490 C484 0.930 . S
H491 C485 0.930 . S
C492 N493 1.314 . S
C492 C494 1.353 . S
C492 H498 0.930 . S
N493 Li443 1.990 . S
N493 C492 1.314 . S
N493 C496 1.279 . S
C494 C492 1.353 . S
C494 C497 1.348 . S
C494 H526 0.929 . S
C495 C496 1.358 . S
C495 C497 1.356 . S
C495 H527 0.930 . S
C496 N493 1.279 . S
C496 C495 1.358 . S
C496 H499 0.930 . S
C497 C494 1.348 . S
C497 C495 1.356 . S
H498 C492 0.930 . S
H499 C496 0.930 . S
O500 Li440 1.956 . S
O500 Li441 1.970 . S
O500 Li442 1.961 . S
O500 C444 1.325 . S
O501 Li440 1.970 . S
O501 Li441 1.956 . S
O501 Li443 1.961 . S
O501 C450 1.325 . S
O502 Li440 1.961 . S
O502 Li442 1.956 . S
O502 Li443 1.970 . S
O502 C472 1.325 . S
O503 Li441 1.961 . S
O503 Li442 1.970 . S
O503 Li443 1.956 . S
O503 C478 1.325 . S
H504 C446 0.929 . S
H505 C447 0.930 . S
H506 C448 0.930 . S
H507 C449 0.930 . S
H508 C451 0.930 . S
H509 C453 0.929 . S
H510 C454 0.930 1_545 S
H511 C455 0.930 . S
H512 C458 0.930 . S
H513 C461 0.929 . S
H514 C466 0.929 . S
H515 C467 0.930 1_565 S
H516 C474 0.929 . S
H517 C475 0.930 . S
H518 C476 0.930 . S
H519 C477 0.930 . S
H520 C479 0.929 . S
H521 C480 0.930 . S
H522 C481 0.930 . S
H523 C482 0.930 . S
H524 C486 0.929 . S
H525 C488 0.930 . S
H526 C494 0.929 . S
H527 C495 0.930 . S
Li528 N545 1.990 . S
Li528 O588 1.956 . S
Li528 O589 1.970 . S
Li528 O590 1.961 . S
Li529 N553 1.990 . S
Li529 O588 1.970 . S
Li529 O589 1.956 . S
Li529 O591 1.961 . S
Li530 N575 1.990 . S
Li530 O588 1.961 . S
Li530 O590 1.956 . S
Li530 O591 1.970 . S
Li531 N581 1.990 . S
Li531 O589 1.961 . S
Li531 O590 1.970 . S
Li531 O591 1.956 . S
C532 C534 1.348 . S
C532 C535 1.356 . S
C532 O588 1.325 . S
N533 C536 1.314 . S
N533 C537 1.279 . S
C534 C532 1.348 . S
C534 C536 1.353 . S
C534 H592 0.929 . S
C535 C532 1.356 . S
C535 C537 1.358 . S
C535 H593 0.930 . S
C536 N533 1.314 . S
C536 C534 1.353 . S
C536 H594 0.930 . S
C537 N533 1.279 . S
C537 C535 1.358 . S
C537 H595 0.930 . S
C538 C541 1.348 . S
C538 C542 1.356 . S
C538 O589 1.325 . S
C539 N540 1.279 . S
C539 C542 1.358 . S
C539 H596 0.930 . S
N540 C539 1.279 . S
N540 C543 1.314 . S
C541 C538 1.348 . S
C541 C543 1.353 . S
C541 H597 0.929 . S
C542 C538 1.356 . S
C542 C539 1.358 . S
C542 H598 0.930 . S
C543 N540 1.314 . S
C543 C541 1.353 . S
C543 H599 0.930 . S
C544 N545 1.314 . S
C544 C549 1.353 . S
C544 H550 0.930 . S
N545 Li528 1.990 . S
N545 C544 1.314 . S
N545 C547 1.279 . S
C546 C547 1.358 . S
C546 C548 1.356 . S
C546 H600 0.930 . S
C547 N545 1.279 . S
C547 C546 1.358 . S
C547 H551 0.930 . S
C548 C546 1.356 . S
C548 C549 1.348 . S
C549 C544 1.353 . S
C549 C548 1.348 . S
C549 H601 0.929 . S
H550 C544 0.930 . S
H551 C547 0.930 . S
C552 N553 1.314 . S
C552 C554 1.353 . S
C552 H558 0.930 . S
N553 Li529 1.990 . S
N553 C552 1.314 . S
N553 C556 1.279 . S
C554 C552 1.353 . S
C554 C557 1.348 . S
C554 H602 0.929 . S
C555 C556 1.358 . S
C555 C557 1.356 . S
C555 H603 0.930 . S
C556 N553 1.279 . S
C556 C555 1.358 . S
C556 H559 0.930 . S
C557 C554 1.348 . S
C557 C555 1.356 . S
H558 C552 0.930 . S
H559 C556 0.930 . S
C560 C562 1.348 . S
C560 C563 1.356 . S
C560 O590 1.325 . S
N561 C564 1.314 . S
N561 C565 1.279 . S
C562 C560 1.348 . S
C562 C564 1.353 . S
C562 H604 0.929 . S
C563 C560 1.356 . S
C563 C565 1.358 . S
C563 H605 0.930 . S
C564 N561 1.314 . S
C564 C562 1.353 . S
C564 H606 0.930 . S
C565 N561 1.279 . S
C565 C563 1.358 . S
C565 H607 0.930 . S
C566 C567 1.348 . S
C566 C568 1.356 . S
C566 O591 1.325 . S
C567 C566 1.348 . S
C567 C569 1.353 . S
C567 H608 0.929 . S
C568 C566 1.356 . S
C568 C570 1.358 . S
C568 H609 0.930 . S
C569 C567 1.353 . S
C569 N571 1.314 . S
C569 H610 0.930 . S
C570 C568 1.358 . S
C570 N571 1.279 . S
C570 H611 0.930 . S
N571 C569 1.314 . S
N571 C570 1.279 . S
C572 C574 1.353 . S
C572 N575 1.314 . S
C572 H578 0.930 . S
C573 N575 1.279 . S
C573 C576 1.358 . S
C573 H579 0.930 . S
C574 C572 1.353 . S
C574 C577 1.348 . S
C574 H612 0.929 . S
N575 Li530 1.990 . S
N575 C572 1.314 . S
N575 C573 1.279 . S
C576 C573 1.358 . S
C576 C577 1.356 . S
C576 H613 0.930 . S
C577 C574 1.348 . S
C577 C576 1.356 . S
H578 C572 0.930 . S
H579 C573 0.930 . S
C580 N581 1.314 . S
C580 C582 1.353 . S
C580 H586 0.930 . S
N581 Li531 1.990 . S
N581 C580 1.314 . S
N581 C584 1.279 . S
C582 C580 1.353 . S
C582 C585 1.348 . S
C582 H614 0.929 . S
C583 C584 1.358 . S
C583 C585 1.356 . S
C583 H615 0.930 . S
C584 N581 1.279 . S
C584 C583 1.358 . S
C584 H587 0.930 . S
C585 C582 1.348 . S
C585 C583 1.356 . S
H586 C580 0.930 . S
H587 C584 0.930 . S
O588 Li528 1.956 . S
O588 Li529 1.970 . S
O588 Li530 1.961 . S
O588 C532 1.325 . S
O589 Li528 1.970 . S
O589 Li529 1.956 . S
O589 Li531 1.961 . S
O589 C538 1.325 . S
O590 Li528 1.961 . S
O590 Li530 1.956 . S
O590 Li531 1.970 . S
O590 C560 1.325 . S
O591 Li529 1.961 . S
O591 Li530 1.970 . S
O591 Li531 1.956 . S
O591 C566 1.325 . S
H592 C534 0.929 . S
H593 C535 0.930 . S
H594 C536 0.930 . S
H595 C537 0.930 . S
H596 C539 0.930 . S
H597 C541 0.929 . S
H598 C542 0.930 . S
H599 C543 0.930 . S
H600 C546 0.930 . S
H601 C549 0.929 . S
H602 C554 0.929 . S
H603 C555 0.930 . S
H604 C562 0.929 . S
H605 C563 0.930 . S
H606 C564 0.930 . S
H607 C565 0.930 . S
H608 C567 0.929 . S
H609 C568 0.930 . S
H610 C569 0.930 . S
H611 C570 0.930 . S
H612 C574 0.929 . S
H613 C576 0.930 . S
H614 C582 0.929 . S
H615 C583 0.930 . S
Li616 N633 1.990 . S
Li616 O676 1.956 . S
Li616 O677 1.970 . S
Li616 O678 1.961 . S
Li617 N641 1.990 . S
Li617 O676 1.970 . S
Li617 O677 1.956 . S
Li617 O679 1.961 . S
Li618 N663 1.990 . S
Li618 O676 1.961 . S
Li618 O678 1.956 . S
Li618 O679 1.970 . S
Li619 N669 1.990 . S
Li619 O677 1.961 . S
Li619 O678 1.970 . S
Li619 O679 1.956 . S
C620 C622 1.348 . S
C620 C623 1.356 . S
C620 O676 1.325 . S
N621 C624 1.314 . S
N621 C625 1.279 . S
C622 C620 1.348 . S
C622 C624 1.353 . S
C622 H680 0.929 . S
C623 C620 1.356 . S
C623 C625 1.358 . S
C623 H681 0.930 . S
C624 N621 1.314 . S
C624 C622 1.353 . S
C624 H682 0.930 . S
C625 N621 1.279 . S
C625 C623 1.358 . S
C625 H683 0.930 . S
C626 C629 1.348 . S
C626 C630 1.356 . S
C626 O677 1.325 . S
C627 N628 1.279 . S
C627 C630 1.358 1_655 S
C627 H684 0.930 . S
N628 C627 1.279 . S
N628 C631 1.314 1_655 S
C629 C626 1.348 . S
C629 C631 1.353 . S
C629 H685 0.929 . S
C630 C626 1.356 . S
C630 C627 1.358 1_455 S
C630 H686 0.930 . S
C631 N628 1.314 1_455 S
C631 C629 1.353 . S
C631 H687 0.929 1_455 S
C632 N633 1.314 . S
C632 C637 1.353 . S
C632 H638 0.930 . S
N633 Li616 1.990 . S
N633 C632 1.314 . S
N633 C635 1.279 . S
C634 C635 1.358 . S
C634 C636 1.356 . S
C634 H688 0.930 . S
C635 N633 1.279 . S
C635 C634 1.358 . S
C635 H639 0.930 . S
C636 C634 1.356 . S
C636 C637 1.348 . S
C637 C632 1.353 . S
C637 C636 1.348 . S
C637 H689 0.929 . S
H638 C632 0.930 . S
H639 C635 0.930 . S
C640 N641 1.314 . S
C640 C642 1.353 . S
C640 H646 0.930 . S
N641 Li617 1.990 . S
N641 C640 1.314 . S
N641 C644 1.279 . S
C642 C640 1.353 . S
C642 C645 1.348 . S
C642 H690 0.929 . S
C643 C644 1.358 . S
C643 C645 1.356 . S
C643 H691 0.930 . S
C644 N641 1.279 . S
C644 C643 1.358 . S
C644 H647 0.930 . S
C645 C642 1.348 . S
C645 C643 1.356 . S
H646 C640 0.930 . S
H647 C644 0.930 . S
C648 C650 1.348 . S
C648 C651 1.356 1_565 S
C648 O678 1.325 . S
N649 C652 1.314 . S
N649 C653 1.279 . S
C650 C648 1.348 . S
C650 C652 1.353 1_565 S
C650 H692 0.929 . S
C651 C648 1.356 1_545 S
C651 C653 1.358 . S
C651 H693 0.930 1_545 S
C652 N649 1.314 . S
C652 C650 1.353 1_545 S
C652 H694 0.930 . S
C653 N649 1.279 . S
C653 C651 1.358 . S
C653 H695 0.930 . S
C654 C655 1.348 . S
C654 C656 1.356 . S
C654 O679 1.325 . S
C655 C654 1.348 . S
C655 C657 1.353 . S
C655 H696 0.929 . S
C656 C654 1.356 . S
C656 C658 1.358 . S
C656 H697 0.930 . S
C657 C655 1.353 . S
C657 N659 1.314 . S
C657 H698 0.930 . S
C658 C656 1.358 . S
C658 N659 1.279 . S
C658 H699 0.930 . S
N659 C657 1.314 . S
N659 C658 1.279 . S
C660 C662 1.353 . S
C660 N663 1.314 . S
C660 H666 0.930 . S
C661 N663 1.279 . S
C661 C664 1.358 . S
C661 H667 0.930 . S
C662 C660 1.353 . S
C662 C665 1.348 . S
C662 H700 0.929 . S
N663 Li618 1.990 . S
N663 C660 1.314 . S
N663 C661 1.279 . S
C664 C661 1.358 . S
C664 C665 1.356 . S
C664 H701 0.930 1_565 S
C665 C662 1.348 . S
C665 C664 1.356 . S
H666 C660 0.930 . S
H667 C661 0.930 . S
C668 N669 1.314 1_655 S
C668 C670 1.353 . S
C668 H674 0.930 . S
N669 Li619 1.990 . S
N669 C668 1.314 1_455 S
N669 C672 1.279 . S
C670 C668 1.353 . S
C670 C673 1.348 . S
C670 H702 0.929 . S
C671 C672 1.375 . S
C671 C673 1.338 1_455 S
C671 H703 0.932 . S
C672 N669 1.279 . S
C672 C671 1.375 . S
C672 H675 0.930 . S
C673 C670 1.348 . S
C673 C671 1.338 1_655 S
H674 C668 0.930 . S
H675 C672 0.930 . S
O676 Li616 1.956 . S
O676 Li617 1.970 . S
O676 Li618 1.961 . S
O676 C620 1.325 . S
O677 Li616 1.970 . S
O677 Li617 1.956 . S
O677 Li619 1.961 . S
O677 C626 1.325 . S
O678 Li616 1.961 . S
O678 Li618 1.956 . S
O678 Li619 1.970 . S
O678 C648 1.325 . S
O679 Li617 1.961 . S
O679 Li618 1.970 . S
O679 Li619 1.956 . S
O679 C654 1.325 . S
H680 C622 0.929 . S
H681 C623 0.930 . S
H682 C624 0.930 . S
H683 C625 0.930 . S
H684 C627 0.930 . S
H685 C629 0.929 . S
H686 C630 0.930 . S
H687 C631 0.929 1_655 S
H688 C634 0.930 . S
H689 C637 0.929 . S
H690 C642 0.929 . S
H691 C643 0.930 . S
H692 C650 0.929 . S
H693 C651 0.930 1_565 S
H694 C652 0.930 . S
H695 C653 0.930 . S
H696 C655 0.929 . S
H697 C656 0.930 . S
H698 C657 0.930 . S
H699 C658 0.930 . S
H700 C662 0.929 . S
H701 C664 0.930 1_545 S
H702 C670 0.929 . S
H703 C671 0.932 . S
C704 C705 1.391 . S
C704 C706 1.394 . S
C704 H720 0.931 . S
C705 C704 1.391 . S
C705 C709 1.376 . S
C706 C704 1.394 . S
C706 C707 1.369 . S
C706 C710 1.531 . S
C707 C706 1.369 . S
C707 C708 1.410 . S
C707 C715 1.503 . S
C708 C707 1.410 . S
C708 C709 1.392 . S
C708 C711 1.511 . S
C709 C705 1.376 . S
C709 C708 1.392 . S
C709 H721 0.929 . S
C710 C706 1.531 . S
C710 H722 0.960 . S
C710 H723 0.962 . S
C710 H724 0.960 . S
C711 C708 1.511 . S
C711 H725 0.961 . S
C711 H726 0.961 . S
C711 H727 0.961 . S
C712 C713 1.370 . S
C712 C714 1.363 . S
C712 H728 0.931 . S
C713 C712 1.370 . S
C713 C717 1.408 . S
C714 C712 1.363 . S
C714 C715 1.370 . S
C714 C718 1.524 . S
C715 C707 1.503 . S
C715 C714 1.370 . S
C715 C716 1.403 . S
C716 C715 1.403 . S
C716 C717 1.404 . S
C716 C719 1.539 . S
C717 C713 1.408 . S
C717 C716 1.404 . S
C717 H729 0.930 . S
C718 C714 1.524 . S
C718 H730 0.956 . S
C718 H731 0.961 . S
C718 H732 0.961 . S
C719 C716 1.539 . S
C719 H733 0.958 . S
C719 H734 0.961 . S
C719 H735 0.960 . S
H720 C704 0.931 . S
H721 C709 0.929 . S
H722 C710 0.960 . S
H723 C710 0.962 . S
H724 C710 0.960 . S
H725 C711 0.961 . S
H726 C711 0.961 . S
H727 C711 0.961 . S
H728 C712 0.931 . S
H729 C717 0.930 . S
H730 C718 0.956 . S
H731 C718 0.961 . S
H732 C718 0.961 . S
H733 C719 0.958 . S
H734 C719 0.961 . S
H735 C719 0.960 . S
C736 C737 1.391 . S
C736 C738 1.394 . S
C736 H752 0.931 . S
C737 C736 1.391 . S
C737 C741 1.376 . S
C738 C736 1.394 . S
C738 C739 1.369 . S
C738 C742 1.531 . S
C739 C738 1.369 . S
C739 C740 1.410 . S
C739 C747 1.503 . S
C740 C739 1.410 . S
C740 C741 1.392 . S
C740 C743 1.511 . S
C741 C737 1.376 . S
C741 C740 1.392 . S
C741 H753 0.929 . S
C742 C738 1.531 . S
C742 H754 0.960 . S
C742 H755 0.962 . S
C742 H756 0.960 . S
C743 C740 1.511 . S
C743 H757 0.961 1_545 S
C743 H758 0.961 1_545 S
C743 H759 0.961 . S
C744 C745 1.370 . S
C744 C746 1.363 . S
C744 H760 0.931 . S
C745 C744 1.370 . S
C745 C749 1.408 1_565 S
C746 C744 1.363 . S
C746 C747 1.370 1_565 S
C746 C750 1.524 . S
C747 C739 1.503 . S
C747 C746 1.370 1_545 S
C747 C748 1.403 . S
C748 C747 1.403 . S
C748 C749 1.404 . S
C748 C751 1.539 . S
C749 C745 1.408 1_545 S
C749 C748 1.404 . S
C749 H761 0.930 . S
C750 C746 1.524 . S
C750 H762 0.956 . S
C750 H763 0.961 . S
C750 H764 0.961 . S
C751 C748 1.539 . S
C751 H765 0.958 . S
C751 H766 0.961 . S
C751 H767 0.960 . S
H752 C736 0.931 . S
H753 C741 0.929 . S
H754 C742 0.960 . S
H755 C742 0.962 . S
H756 C742 0.960 . S
H757 C743 0.961 1_565 S
H758 C743 0.961 1_565 S
H759 C743 0.961 . S
H760 C744 0.931 . S
H761 C749 0.930 . S
H762 C750 0.956 . S
H763 C750 0.961 . S
H764 C750 0.961 . S
H765 C751 0.958 . S
H766 C751 0.961 . S
H767 C751 0.960 . S
C768 C769 1.391 . S
C768 C770 1.394 . S
C768 H784 0.931 . S
C769 C768 1.391 . S
C769 C773 1.376 . S
C770 C768 1.394 . S
C770 C771 1.369 . S
C770 C774 1.531 . S
C771 C770 1.369 . S
C771 C772 1.410 . S
C771 C779 1.503 . S
C772 C771 1.410 . S
C772 C773 1.392 . S
C772 C775 1.511 . S
C773 C769 1.376 . S
C773 C772 1.392 . S
C773 H785 0.929 . S
C774 C770 1.531 . S
C774 H786 0.960 . S
C774 H787 0.962 . S
C774 H788 0.960 . S
C775 C772 1.511 . S
C775 H789 0.961 . S
C775 H790 0.961 . S
C775 H791 0.961 . S
C776 C777 1.370 . S
C776 C778 1.363 . S
C776 H792 0.931 . S
C777 C776 1.370 . S
C777 C781 1.408 . S
C778 C776 1.363 . S
C778 C779 1.370 . S
C778 C782 1.524 . S
C779 C771 1.503 . S
C779 C778 1.370 . S
C779 C780 1.403 . S
C780 C779 1.403 . S
C780 C781 1.404 . S
C780 C783 1.539 . S
C781 C777 1.408 . S
C781 C780 1.404 . S
C781 H793 0.930 . S
C782 C778 1.524 . S
C782 H794 0.956 . S
C782 H795 0.961 . S
C782 H796 0.961 . S
C783 C780 1.539 . S
C783 H797 0.958 . S
C783 H798 0.961 . S
C783 H799 0.960 . S
H784 C768 0.931 . S
H785 C773 0.929 . S
H786 C774 0.960 . S
H787 C774 0.962 . S
H788 C774 0.960 . S
H789 C775 0.961 . S
H790 C775 0.961 . S
H791 C775 0.961 . S
H792 C776 0.931 . S
H793 C781 0.930 . S
H794 C782 0.956 . S
H795 C782 0.961 . S
H796 C782 0.961 . S
H797 C783 0.958 . S
H798 C783 0.961 . S
H799 C783 0.960 . S
C800 C801 1.391 . S
C800 C802 1.394 . S
C800 H816 0.931 . S
C801 C800 1.391 . S
C801 C805 1.376 1_545 S
C802 C800 1.394 . S
C802 C803 1.369 1_545 S
C802 C806 1.531 . S
C803 C802 1.369 1_565 S
C803 C804 1.410 . S
C803 C811 1.503 . S
C804 C803 1.410 . S
C804 C805 1.392 . S
C804 C807 1.511 . S
C805 C801 1.376 1_565 S
C805 C804 1.392 . S
C805 H817 0.929 . S
C806 C802 1.531 . S
C806 H818 0.960 . S
C806 H819 0.962 . S
C806 H820 0.960 . S
C807 C804 1.511 . S
C807 H821 0.961 . S
C807 H822 0.961 . S
C807 H823 0.961 . S
C808 C809 1.370 . S
C808 C810 1.363 . S
C808 H824 0.931 . S
C809 C808 1.370 . S
C809 C813 1.408 . S
C810 C808 1.363 . S
C810 C811 1.370 . S
C810 C814 1.524 . S
C811 C803 1.503 . S
C811 C810 1.370 . S
C811 C812 1.403 . S
C812 C811 1.403 . S
C812 C813 1.404 . S
C812 C815 1.539 . S
C813 C809 1.408 . S
C813 C812 1.404 . S
C813 H825 0.930 . S
C814 C810 1.524 . S
C814 H826 0.956 1_565 S
C814 H827 0.961 . S
C814 H828 0.961 . S
C815 C812 1.539 . S
C815 H829 0.958 . S
C815 H830 0.961 . S
C815 H831 0.960 . S
H816 C800 0.931 . S
H817 C805 0.929 . S
H818 C806 0.960 . S
H819 C806 0.962 . S
H820 C806 0.960 . S
H821 C807 0.961 . S
H822 C807 0.961 . S
H823 C807 0.961 . S
H824 C808 0.931 . S
H825 C813 0.930 . S
H826 C814 0.956 1_545 S
H827 C814 0.961 . S
H828 C814 0.961 . S
H829 C815 0.958 . S
H830 C815 0.961 . S
H831 C815 0.960 . S
C832 C833 1.391 . S
C832 C834 1.394 . S
C832 H848 0.931 . S
C833 C832 1.391 . S
C833 C837 1.376 . S
C834 C832 1.394 . S
C834 C835 1.369 . S
C834 C838 1.531 . S
C835 C834 1.369 . S
C835 C836 1.410 . S
C835 C843 1.503 . S
C836 C835 1.410 . S
C836 C837 1.392 . S
C836 C839 1.511 . S
C837 C833 1.376 . S
C837 C836 1.392 . S
C837 H849 0.929 . S
C838 C834 1.531 . S
C838 H850 0.960 . S
C838 H851 0.962 . S
C838 H852 0.960 . S
C839 C836 1.511 . S
C839 H853 0.961 . S
C839 H854 0.961 . S
C839 H855 0.961 . S
C840 C841 1.370 . S
C840 C842 1.363 . S
C840 H856 0.931 . S
C841 C840 1.370 . S
C841 C845 1.408 . S
C842 C840 1.363 . S
C842 C843 1.370 . S
C842 C846 1.524 . S
C843 C835 1.503 . S
C843 C842 1.370 . S
C843 C844 1.403 . S
C844 C843 1.403 . S
C844 C845 1.404 . S
C844 C847 1.539 . S
C845 C841 1.408 . S
C845 C844 1.404 . S
C845 H857 0.930 . S
C846 C842 1.524 . S
C846 H858 0.956 . S
C846 H859 0.961 . S
C846 H860 0.961 . S
C847 C844 1.539 . S
C847 H861 0.958 . S
C847 H862 0.961 . S
C847 H863 0.960 . S
H848 C832 0.931 . S
H849 C837 0.929 . S
H850 C838 0.960 . S
H851 C838 0.962 . S
H852 C838 0.960 . S
H853 C839 0.961 . S
H854 C839 0.961 . S
H855 C839 0.961 . S
H856 C840 0.931 . S
H857 C845 0.930 . S
H858 C846 0.956 . S
H859 C846 0.961 . S
H860 C846 0.961 . S
H861 C847 0.958 . S
H862 C847 0.961 . S
H863 C847 0.960 . S
C864 C865 1.391 1_565 S
C864 C866 1.394 . S
C864 H880 0.931 . S
C865 C864 1.391 1_545 S
C865 C869 1.376 . S
C866 C864 1.394 . S
C866 C867 1.369 . S
C866 C870 1.531 . S
C867 C866 1.369 . S
C867 C868 1.410 1_565 S
C867 C875 1.503 . S
C868 C867 1.410 1_545 S
C868 C869 1.392 . S
C868 C871 1.511 . S
C869 C865 1.376 . S
C869 C868 1.392 . S
C869 H881 0.929 . S
C870 C866 1.531 . S
C870 H882 0.960 . S
C870 H883 0.962 . S
C870 H884 0.960 . S
C871 C868 1.511 . S
C871 H885 0.961 . S
C871 H886 0.961 . S
C871 H887 0.961 . S
C872 C873 1.370 . S
C872 C874 1.363 . S
C872 H888 0.931 . S
C873 C872 1.370 . S
C873 C877 1.408 . S
C874 C872 1.363 . S
C874 C875 1.370 . S
C874 C878 1.555 . S
C875 C867 1.503 . S
C875 C874 1.370 . S
C875 C876 1.403 . S
C876 C875 1.403 . S
C876 C877 1.404 . S
C876 C879 1.539 . S
C877 C873 1.408 . S
C877 C876 1.404 . S
C877 H889 0.930 . S
C878 C874 1.555 . S
C878 H890 0.975 . S
C878 H891 0.923 1_565 S
C878 H892 0.950 1_565 S
C879 C876 1.539 . S
C879 H893 0.958 . S
C879 H894 0.961 . S
C879 H895 0.960 . S
H880 C864 0.931 . S
H881 C869 0.929 . S
H882 C870 0.960 . S
H883 C870 0.962 . S
H884 C870 0.960 . S
H885 C871 0.961 . S
H886 C871 0.961 . S
H887 C871 0.961 . S
H888 C872 0.931 . S
H889 C877 0.930 . S
H890 C878 0.975 . S
H891 C878 0.923 1_545 S
H892 C878 0.950 1_545 S
H893 C879 0.958 . S
H894 C879 0.961 . S
H895 C879 0.960 . S
C896 C897 1.391 . S
C896 C898 1.394 . S
C896 H912 0.931 . S
C897 C896 1.391 . S
C897 C901 1.376 . S
C898 C896 1.394 . S
C898 C899 1.369 . S
C898 C902 1.531 . S
C899 C898 1.369 . S
C899 C900 1.410 . S
C899 C907 1.503 . S
C900 C899 1.410 . S
C900 C901 1.392 . S
C900 C903 1.511 . S
C901 C897 1.376 . S
C901 C900 1.392 . S
C901 H913 0.929 . S
C902 C898 1.531 . S
C902 H914 0.960 . S
C902 H915 0.962 . S
C902 H916 0.960 . S
C903 C900 1.511 . S
C903 H917 0.961 . S
C903 H918 0.961 . S
C903 H919 0.961 . S
C904 C905 1.370 . S
C904 C906 1.363 . S
C904 H920 0.931 . S
C905 C904 1.370 . S
C905 C909 1.408 . S
C906 C904 1.363 . S
C906 C907 1.370 . S
C906 C910 1.524 . S
C907 C899 1.503 . S
C907 C906 1.370 . S
C907 C908 1.403 . S
C908 C907 1.403 . S
C908 C909 1.404 . S
C908 C911 1.539 . S
C909 C905 1.408 . S
C909 C908 1.404 . S
C909 H921 0.930 . S
C910 C906 1.524 . S
C910 H922 0.956 . S
C910 H923 0.961 . S
C910 H924 0.961 . S
C911 C908 1.539 . S
C911 H925 0.958 . S
C911 H926 0.961 . S
C911 H927 0.960 . S
H912 C896 0.931 . S
H913 C901 0.929 . S
H914 C902 0.960 . S
H915 C902 0.962 . S
H916 C902 0.960 . S
H917 C903 0.961 . S
H918 C903 0.961 . S
H919 C903 0.961 . S
H920 C904 0.931 . S
H921 C909 0.930 . S
H922 C910 0.956 . S
H923 C910 0.961 . S
H924 C910 0.961 . S
H925 C911 0.958 . S
H926 C911 0.961 . S
H927 C911 0.960 . S
C928 C929 1.391 1_545 S
C928 C930 1.394 . S
C928 H944 0.931 . S
C929 C928 1.391 1_565 S
C929 C933 1.376 . S
C930 C928 1.394 . S
C930 C931 1.369 . S
C930 C934 1.531 . S
C931 C930 1.369 . S
C931 C932 1.410 1_545 S
C931 C939 1.503 . S
C932 C931 1.410 1_565 S
C932 C933 1.392 . S
C932 C935 1.511 . S
C933 C929 1.376 . S
C933 C932 1.392 . S
C933 H945 0.929 . S
C934 C930 1.531 . S
C934 H946 0.960 . S
C934 H947 0.962 . S
C934 H948 0.960 . S
C935 C932 1.511 . S
C935 H949 0.961 . S
C935 H950 0.961 1_565 S
C935 H951 0.961 . S
C936 C937 1.370 . S
C936 C938 1.363 . S
C936 H952 0.931 . S
C937 C936 1.370 . S
C937 C941 1.408 . S
C938 C936 1.363 . S
C938 C939 1.370 . S
C938 C942 1.524 . S
C939 C931 1.503 . S
C939 C938 1.370 . S
C939 C940 1.403 . S
C940 C939 1.403 . S
C940 C941 1.404 . S
C940 C943 1.539 1_545 S
C941 C937 1.408 . S
C941 C940 1.404 . S
C941 H953 0.930 . S
C942 C938 1.524 . S
C942 H954 0.956 . S
C942 H955 0.961 . S
C942 H956 0.961 . S
C943 C940 1.539 1_565 S
C943 H957 0.958 . S
C943 H958 0.961 . S
C943 H959 0.960 . S
H944 C928 0.931 . S
H945 C933 0.929 . S
H946 C934 0.960 . S
H947 C934 0.962 . S
H948 C934 0.960 . S
H949 C935 0.961 . S
H950 C935 0.961 1_545 S
H951 C935 0.961 . S
H952 C936 0.931 . S
H953 C941 0.930 . S
H954 C942 0.956 . S
H955 C942 0.961 . S
H956 C942 0.961 . S
H957 C943 0.958 . S
H958 C943 0.961 . S
H959 C943 0.960 . S
C960 C961 1.391 . S
C960 C962 1.394 . S
C960 H976 0.931 . S
C961 C960 1.391 . S
C961 C965 1.376 . S
C962 C960 1.394 . S
C962 C963 1.369 . S
C962 C966 1.531 . S
C963 C962 1.369 . S
C963 C964 1.410 . S
C963 C971 1.503 1_455 S
C964 C963 1.410 . S
C964 C965 1.392 . S
C964 C967 1.511 . S
C965 C961 1.376 . S
C965 C964 1.392 . S
C965 H977 0.929 . S
C966 C962 1.531 . S
C966 H978 0.960 . S
C966 H979 0.962 . S
C966 H980 0.960 . S
C967 C964 1.511 . S
C967 H981 0.961 . S
C967 H982 0.961 1_455 S
C967 H983 0.961 . S
C968 C969 1.370 . S
C968 C970 1.363 . S
C968 H984 0.931 . S
C969 C968 1.370 . S
C969 C973 1.408 . S
C970 C968 1.363 . S
C970 C971 1.370 . S
C970 C974 1.524 . S
C971 C963 1.503 1_655 S
C971 C970 1.370 . S
C971 C972 1.403 1_655 S
C972 C971 1.403 1_455 S
C972 C973 1.404 1_455 S
C972 C975 1.539 . S
C973 C969 1.408 . S
C973 C972 1.404 1_655 S
C973 H985 0.930 . S
C974 C970 1.524 . S
C974 H986 0.956 . S
C974 H987 0.961 . S
C974 H988 0.961 . S
C975 C972 1.539 . S
C975 H989 0.958 . S
C975 H990 0.961 . S
C975 H991 0.960 . S
H976 C960 0.931 . S
H977 C965 0.929 . S
H978 C966 0.960 . S
H979 C966 0.962 . S
H980 C966 0.960 . S
H981 C967 0.961 . S
H982 C967 0.961 1_655 S
H983 C967 0.961 . S
H984 C968 0.931 . S
H985 C973 0.930 . S
H986 C974 0.956 . S
H987 C974 0.961 . S
H988 C974 0.961 . S
H989 C975 0.958 . S
H990 C975 0.961 . S
H991 C975 0.960 . S
C992 C993 1.391 1_545 S
C992 C994 1.394 . S
C992 H1008 0.931 . S
C993 C992 1.391 1_565 S
C993 C997 1.376 . S
C994 C992 1.394 . S
C994 C995 1.360 1_545 S
C994 C998 1.531 . S
C995 C994 1.360 1_565 S
C995 C996 1.424 . S
C995 C1003 1.499 1_565 S
C996 C995 1.424 . S
C996 C997 1.392 . S
C996 C999 1.511 . S
C997 C993 1.376 . S
C997 C996 1.392 . S
C997 H1009 0.929 . S
C998 C994 1.531 . S
C998 H1010 0.960 . S
C998 H1011 0.962 . S
C998 H1012 0.960 . S
C999 C996 1.511 . S
C999 H1013 0.961 . S
C999 H1014 0.961 . S
C999 H1015 0.961 . S
C1000 C1001 1.370 . S
C1000 C1002 1.363 1_545 S
C1000 H1016 0.931 1_545 S
C1001 C1000 1.370 . S
C1001 C1005 1.408 . S
C1002 C1000 1.363 1_565 S
C1002 C1003 1.370 1_565 S
C1002 C1006 1.524 . S
C1003 C995 1.499 1_545 S
C1003 C1002 1.370 1_545 S
C1003 C1004 1.403 . S
C1004 C1003 1.403 . S
C1004 C1005 1.404 . S
C1004 C1007 1.539 . S
C1005 C1001 1.408 . S
C1005 C1004 1.404 . S
C1005 H1017 0.930 . S
C1006 C1002 1.524 . S
C1006 H1018 0.956 . S
C1006 H1019 0.961 . S
C1006 H1020 0.961 . S
C1007 C1004 1.539 . S
C1007 H1021 0.958 . S
C1007 H1022 0.961 . S
C1007 H1023 0.960 . S
H1008 C992 0.931 . S
H1009 C997 0.929 . S
H1010 C998 0.960 . S
H1011 C998 0.962 . S
H1012 C998 0.960 . S
H1013 C999 0.961 . S
H1014 C999 0.961 . S
H1015 C999 0.961 . S
H1016 C1000 0.931 1_565 S
H1017 C1005 0.930 . S
H1018 C1006 0.956 . S
H1019 C1006 0.961 . S
H1020 C1006 0.961 . S
H1021 C1007 0.958 . S
H1022 C1007 0.961 . S
H1023 C1007 0.960 . S
C1024 C1025 1.391 . S
C1024 C1026 1.394 . S
C1024 H1040 0.931 . S
C1025 C1024 1.391 . S
C1025 C1029 1.376 . S
C1026 C1024 1.394 . S
C1026 C1027 1.369 . S
C1026 C1030 1.531 1_554 S
C1027 C1026 1.369 . S
C1027 C1028 1.410 . S
C1027 C1035 1.503 1_554 S
C1028 C1027 1.410 . S
C1028 C1029 1.392 . S
C1028 C1031 1.511 . S
C1029 C1025 1.376 . S
C1029 C1028 1.392 . S
C1029 H1041 0.929 . S
C1030 C1026 1.531 1_556 S
C1030 H1042 0.960 . S
C1030 H1043 0.962 . S
C1030 H1044 0.960 . S
C1031 C1028 1.511 . S
C1031 H1045 0.961 . S
C1031 H1046 0.961 . S
C1031 H1047 0.961 . S
C1032 C1033 1.370 . S
C1032 C1034 1.363 . S
C1032 H1048 0.931 . S
C1033 C1032 1.370 . S
C1033 C1037 1.408 . S
C1034 C1032 1.363 . S
C1034 C1035 1.370 . S
C1034 C1038 1.524 1_556 S
C1035 C1027 1.503 1_556 S
C1035 C1034 1.370 . S
C1035 C1036 1.403 . S
C1036 C1035 1.403 . S
C1036 C1037 1.404 . S
C1036 C1039 1.539 . S
C1037 C1033 1.408 . S
C1037 C1036 1.404 . S
C1037 H1049 0.930 . S
C1038 C1034 1.524 1_554 S
C1038 H1050 0.956 . S
C1038 H1051 0.961 . S
C1038 H1052 0.961 . S
C1039 C1036 1.539 . S
C1039 H1053 0.958 . S
C1039 H1054 0.961 . S
C1039 H1055 0.960 . S
H1040 C1024 0.931 . S
H1041 C1029 0.929 . S
H1042 C1030 0.960 . S
H1043 C1030 0.962 . S
H1044 C1030 0.960 . S
H1045 C1031 0.961 . S
H1046 C1031 0.961 . S
H1047 C1031 0.961 . S
H1048 C1032 0.931 . S
H1049 C1037 0.930 . S
H1050 C1038 0.956 . S
H1051 C1038 0.961 . S
H1052 C1038 0.961 . S
H1053 C1039 0.958 . S
H1054 C1039 0.961 . S
H1055 C1039 0.960 . S
C1056 C1057 1.391 1_545 S
C1056 C1058 1.394 . S
C1056 H1072 0.931 . S
C1057 C1056 1.391 1_565 S
C1057 C1061 1.376 . S
C1058 C1056 1.394 . S
C1058 C1059 1.362 1_545 S
C1058 C1062 1.531 . S
C1059 C1058 1.362 1_565 S
C1059 C1060 1.421 1_455 S
C1059 C1067 1.500 1_466 S
C1060 C1059 1.421 1_655 S
C1060 C1061 1.392 1_655 S
C1060 C1063 1.511 . S
C1061 C1057 1.376 . S
C1061 C1060 1.392 1_455 S
C1061 H1073 0.929 . S
C1062 C1058 1.531 . S
C1062 H1074 0.947 1_556 S
C1062 H1075 0.962 1_556 S
C1062 H1076 0.960 . S
C1063 C1060 1.511 . S
C1063 H1077 0.961 . S
C1063 H1078 0.961 . S
C1063 H1079 0.961 . S
C1064 C1065 1.370 . S
C1064 C1066 1.363 1_545 S
C1064 H1080 0.931 1_545 S
C1065 C1064 1.370 . S
C1065 C1069 1.408 . S
C1066 C1064 1.363 1_565 S
C1066 C1067 1.370 1_565 S
C1066 C1070 1.524 1_655 S
C1067 C1059 1.500 1_644 S
C1067 C1066 1.370 1_545 S
C1067 C1068 1.403 . S
C1068 C1067 1.403 . S
C1068 C1069 1.404 . S
C1068 C1071 1.539 1_554 S
C1069 C1065 1.408 . S
C1069 C1068 1.404 . S
C1069 H1081 0.930 . S
C1070 C1066 1.524 1_455 S
C1070 H1082 0.956 . S
C1070 H1083 0.961 . S
C1070 H1084 0.961 . S
C1071 C1068 1.539 1_556 S
C1071 H1085 0.958 . S
C1071 H1086 0.961 . S
C1071 H1087 0.960 . S
H1072 C1056 0.931 . S
H1073 C1061 0.929 . S
H1074 C1062 0.947 1_554 S
H1075 C1062 0.962 1_554 S
H1076 C1062 0.960 . S
H1077 C1063 0.961 . S
H1078 C1063 0.961 . S
H1079 C1063 0.961 . S
H1080 C1064 0.931 1_565 S
H1081 C1069 0.930 . S
H1082 C1070 0.956 . S
H1083 C1070 0.961 . S
H1084 C1070 0.961 . S
H1085 C1071 0.958 . S
H1086 C1071 0.961 . S
H1087 C1071 0.960 . S
C1088 C1089 1.391 . S
C1088 C1090 1.394 . S
C1088 H1104 0.931 . S
C1089 C1088 1.391 . S
C1089 C1093 1.376 . S
C1090 C1088 1.394 . S
C1090 C1091 1.369 . S
C1090 C1094 1.531 . S
C1091 C1090 1.369 . S
C1091 C1092 1.410 . S
C1091 C1099 1.503 . S
C1092 C1091 1.410 . S
C1092 C1093 1.392 . S
C1092 C1095 1.511 . S
C1093 C1089 1.376 . S
C1093 C1092 1.392 . S
C1093 H1105 0.929 . S
C1094 C1090 1.531 . S
C1094 H1106 0.960 . S
C1094 H1107 0.962 . S
C1094 H1108 0.960 . S
C1095 C1092 1.511 . S
C1095 H1109 0.961 . S
C1095 H1110 0.961 . S
C1095 H1111 0.961 . S
C1096 C1097 1.370 . S
C1096 C1098 1.363 . S
C1096 H1112 0.931 . S
C1097 C1096 1.370 . S
C1097 C1101 1.408 . S
C1098 C1096 1.363 . S
C1098 C1099 1.370 . S
C1098 C1102 1.524 . S
C1099 C1091 1.503 . S
C1099 C1098 1.370 . S
C1099 C1100 1.403 . S
C1100 C1099 1.403 . S
C1100 C1101 1.404 . S
C1100 C1103 1.539 . S
C1101 C1097 1.408 . S
C1101 C1100 1.404 . S
C1101 H1113 0.930 . S
C1102 C1098 1.524 . S
C1102 H1114 0.956 . S
C1102 H1115 0.961 . S
C1102 H1116 0.961 . S
C1103 C1100 1.539 . S
C1103 H1117 0.958 . S
C1103 H1118 0.961 . S
C1103 H1119 0.960 . S
H1104 C1088 0.931 . S
H1105 C1093 0.929 . S
H1106 C1094 0.960 . S
H1107 C1094 0.962 . S
H1108 C1094 0.960 . S
H1109 C1095 0.961 . S
H1110 C1095 0.961 . S
H1111 C1095 0.961 . S
H1112 C1096 0.931 . S
H1113 C1101 0.930 . S
H1114 C1102 0.956 . S
H1115 C1102 0.961 . S
H1116 C1102 0.961 . S
H1117 C1103 0.958 . S
H1118 C1103 0.961 . S
H1119 C1103 0.960 . S
C1120 C1121 1.391 . S
C1120 C1122 1.394 . S
C1120 H1136 0.931 . S
C1121 C1120 1.391 . S
C1121 C1125 1.376 . S
C1122 C1120 1.394 . S
C1122 C1123 1.369 . S
C1122 C1126 1.531 . S
C1123 C1122 1.369 . S
C1123 C1124 1.410 . S
C1123 C1131 1.503 . S
C1124 C1123 1.410 . S
C1124 C1125 1.392 . S
C1124 C1127 1.511 . S
C1125 C1121 1.376 . S
C1125 C1124 1.392 . S
C1125 H1137 0.929 . S
C1126 C1122 1.531 . S
C1126 H1138 0.960 . S
C1126 H1139 0.962 . S
C1126 H1140 0.960 . S
C1127 C1124 1.511 . S
C1127 H1141 0.961 . S
C1127 H1142 0.961 . S
C1127 H1143 0.961 . S
C1128 C1129 1.370 . S
C1128 C1130 1.363 . S
C1128 H1144 0.931 . S
C1129 C1128 1.370 . S
C1129 C1133 1.408 . S
C1130 C1128 1.363 . S
C1130 C1131 1.370 . S
C1130 C1134 1.524 . S
C1131 C1123 1.503 . S
C1131 C1130 1.370 . S
C1131 C1132 1.403 . S
C1132 C1131 1.403 . S
C1132 C1133 1.404 . S
C1132 C1135 1.539 . S
C1133 C1129 1.408 . S
C1133 C1132 1.404 . S
C1133 H1145 0.930 . S
C1134 C1130 1.524 . S
C1134 H1146 0.956 . S
C1134 H1147 0.961 . S
C1134 H1148 0.961 . S
C1135 C1132 1.539 . S
C1135 H1149 0.958 . S
C1135 H1150 0.961 . S
C1135 H1151 0.960 . S
H1136 C1120 0.931 . S
H1137 C1125 0.929 . S
H1138 C1126 0.960 . S
H1139 C1126 0.962 . S
H1140 C1126 0.960 . S
H1141 C1127 0.961 . S
H1142 C1127 0.961 . S
H1143 C1127 0.961 . S
H1144 C1128 0.931 . S
H1145 C1133 0.930 . S
H1146 C1134 0.956 . S
H1147 C1134 0.961 . S
H1148 C1134 0.961 . S
H1149 C1135 0.958 . S
H1150 C1135 0.961 . S
H1151 C1135 0.960 . S
C1152 C1153 1.391 . S
C1152 C1154 1.394 . S
C1152 H1168 0.931 . S
C1153 C1152 1.391 . S
C1153 C1157 1.376 . S
C1154 C1152 1.394 . S
C1154 C1155 1.369 . S
C1154 C1158 1.531 . S
C1155 C1154 1.369 . S
C1155 C1156 1.410 . S
C1155 C1163 1.503 . S
C1156 C1155 1.410 . S
C1156 C1157 1.392 . S
C1156 C1159 1.511 . S
C1157 C1153 1.376 . S
C1157 C1156 1.392 . S
C1157 H1169 0.929 . S
C1158 C1154 1.531 . S
C1158 H1170 0.960 . S
C1158 H1171 0.962 . S
C1158 H1172 0.960 . S
C1159 C1156 1.511 . S
C1159 H1173 0.961 . S
C1159 H1174 0.961 . S
C1159 H1175 0.961 . S
C1160 C1161 1.370 . S
C1160 C1162 1.363 . S
C1160 H1176 0.931 . S
C1161 C1160 1.370 . S
C1161 C1165 1.408 . S
C1162 C1160 1.363 . S
C1162 C1163 1.370 . S
C1162 C1166 1.524 . S
C1163 C1155 1.503 . S
C1163 C1162 1.370 . S
C1163 C1164 1.403 . S
C1164 C1163 1.403 . S
C1164 C1165 1.404 . S
C1164 C1167 1.539 . S
C1165 C1161 1.408 . S
C1165 C1164 1.404 . S
C1165 H1177 0.930 . S
C1166 C1162 1.524 . S
C1166 H1178 0.956 . S
C1166 H1179 0.961 . S
C1166 H1180 0.961 . S
C1167 C1164 1.539 . S
C1167 H1181 0.958 . S
C1167 H1182 0.961 . S
C1167 H1183 0.960 . S
H1168 C1152 0.931 . S
H1169 C1157 0.929 . S
H1170 C1158 0.960 . S
H1171 C1158 0.962 . S
H1172 C1158 0.960 . S
H1173 C1159 0.961 . S
H1174 C1159 0.961 . S
H1175 C1159 0.961 . S
H1176 C1160 0.931 . S
H1177 C1165 0.930 . S
H1178 C1166 0.956 . S
H1179 C1166 0.961 . S
H1180 C1166 0.961 . S
H1181 C1167 0.958 . S
H1182 C1167 0.961 . S
H1183 C1167 0.960 . S
C1184 C1185 1.391 . S
C1184 C1186 1.394 . S
C1184 H1200 0.931 . S
C1185 C1184 1.391 . S
C1185 C1189 1.376 . S
C1186 C1184 1.394 . S
C1186 C1187 1.369 . S
C1186 C1190 1.531 . S
C1187 C1186 1.369 . S
C1187 C1188 1.410 . S
C1187 C1195 1.503 . S
C1188 C1187 1.410 . S
C1188 C1189 1.392 . S
C1188 C1191 1.511 . S
C1189 C1185 1.376 . S
C1189 C1188 1.392 . S
C1189 H1201 0.929 . S
C1190 C1186 1.531 . S
C1190 H1202 0.960 . S
C1190 H1203 0.962 . S
C1190 H1204 0.960 . S
C1191 C1188 1.511 . S
C1191 H1205 0.961 . S
C1191 H1206 0.961 . S
C1191 H1207 0.961 . S
C1192 C1193 1.370 . S
C1192 C1194 1.363 . S
C1192 H1208 0.931 . S
C1193 C1192 1.370 . S
C1193 C1197 1.408 . S
C1194 C1192 1.363 . S
C1194 C1195 1.370 . S
C1194 C1198 1.524 . S
C1195 C1187 1.503 . S
C1195 C1194 1.370 . S
C1195 C1196 1.403 . S
C1196 C1195 1.403 . S
C1196 C1197 1.404 . S
C1196 C1199 1.539 . S
C1197 C1193 1.408 . S
C1197 C1196 1.404 . S
C1197 H1209 0.930 . S
C1198 C1194 1.524 . S
C1198 H1210 0.956 . S
C1198 H1211 0.961 . S
C1198 H1212 0.961 . S
C1199 C1196 1.539 . S
C1199 H1213 0.958 . S
C1199 H1214 0.961 . S
C1199 H1215 0.960 . S
H1200 C1184 0.931 . S
H1201 C1189 0.929 . S
H1202 C1190 0.960 . S
H1203 C1190 0.962 . S
H1204 C1190 0.960 . S
H1205 C1191 0.961 . S
H1206 C1191 0.961 . S
H1207 C1191 0.961 . S
H1208 C1192 0.931 . S
H1209 C1197 0.930 . S
H1210 C1198 0.956 . S
H1211 C1198 0.961 . S
H1212 C1198 0.961 . S
H1213 C1199 0.958 . S
H1214 C1199 0.961 . S
H1215 C1199 0.960 . S
C705 C57 0.975 . S
C713 C233 0.943 . S
C737 C321 0.952 . S
C745 C108 0.960 . S
C769 C196 0.917 . S
C777 C20 0.952 . S
C801 C284 0.978 . S
C809 C145 0.948 . S
C833 C585 0.968 . S
C841 C372 0.928 . S
C865 C469 0.970 . S
C873 C673 0.938 . S
C897 C577 0.945 . S
C905 C381 0.950 . S
C929 C665 0.943 . S
C937 C460 0.936 . S
C961 C29 1.713 . S
C969 C401 1.690 . S
C993 C137 1.710 . S
C1001 C497 1.690 . S
C1025 C225 1.699 . S
C1033 C548 1.698 . S
C1057 C636 1.679 . S
C1065 C313 1.703 . S
C1089 C49 1.697 . S
C1097 C117 1.684 . S
C1121 C293 1.673 . S
C1129 C205 1.694 . S
C1153 C489 1.715 . S
C1161 C409 1.695 . S
C1185 C557 1.717 . S
C1193 C645 1.694 . S
