# Generated by pormake.
# Topology whz, (6)-cn, num edge types: 1
# Building blocks:
#     Node 0, Type 0, BuildingBlock: LEVNOQ01_clean_sbu_1, # of connection points: 6
#     Node 1, Type 0, BuildingBlock: LEVNOQ01_clean_sbu_1, # of connection points: 6
#     Node 2, Type 0, BuildingBlock: LEVNOQ01_clean_sbu_1, # of connection points: 6
#     Node 3, Type 0, BuildingBlock: LEVNOQ01_clean_sbu_1, # of connection points: 6
#     Node 4, Type 0, BuildingBlock: LEVNOQ01_clean_sbu_1, # of connection points: 6
#     Node 5, Type 0, BuildingBlock: LEVNOQ01_clean_sbu_1, # of connection points: 6
#     Node 6, Type 0, BuildingBlock: LEVNOQ01_clean_sbu_1, # of connection points: 6
#     Node 7, Type 0, BuildingBlock: LEVNOQ01_clean_sbu_1, # of connection points: 6
#     Node 8, Type 0, BuildingBlock: LEVNOQ01_clean_sbu_1, # of connection points: 6
#     Node 9, Type 0, BuildingBlock: LEVNOQ01_clean_sbu_1, # of connection points: 6
#     Node 10, Type 0, BuildingBlock: LEVNOQ01_clean_sbu_1, # of connection points: 6
#     Node 11, Type 0, BuildingBlock: LEVNOQ01_clean_sbu_1, # of connection points: 6
#     Node 12, Type 0, BuildingBlock: LEVNOQ01_clean_sbu_1, # of connection points: 6
#     Node 13, Type 0, BuildingBlock: LEVNOQ01_clean_sbu_1, # of connection points: 6
#     Node 14, Type 0, BuildingBlock: LEVNOQ01_clean_sbu_1, # of connection points: 6
#     Node 15, Type 0, BuildingBlock: LEVNOQ01_clean_sbu_1, # of connection points: 6
#     Edge 16, Type (0, 0), BuildingBlock: OJICUG_clean_linker_0, # of connection points: 2
#     Edge 17, Type (0, 0), BuildingBlock: OJICUG_clean_linker_0, # of connection points: 2
#     Edge 18, Type (0, 0), BuildingBlock: OJICUG_clean_linker_0, # of connection points: 2
#     Edge 19, Type (0, 0), BuildingBlock: OJICUG_clean_linker_0, # of connection points: 2
#     Edge 20, Type (0, 0), BuildingBlock: OJICUG_clean_linker_0, # of connection points: 2
#     Edge 21, Type (0, 0), BuildingBlock: OJICUG_clean_linker_0, # of connection points: 2
#     Edge 22, Type (0, 0), BuildingBlock: OJICUG_clean_linker_0, # of connection points: 2
#     Edge 23, Type (0, 0), BuildingBlock: OJICUG_clean_linker_0, # of connection points: 2
#     Edge 24, Type (0, 0), BuildingBlock: OJICUG_clean_linker_0, # of connection points: 2
#     Edge 25, Type (0, 0), BuildingBlock: OJICUG_clean_linker_0, # of connection points: 2
#     Edge 26, Type (0, 0), BuildingBlock: OJICUG_clean_linker_0, # of connection points: 2
#     Edge 27, Type (0, 0), BuildingBlock: OJICUG_clean_linker_0, # of connection points: 2
#     Edge 28, Type (0, 0), BuildingBlock: OJICUG_clean_linker_0, # of connection points: 2
#     Edge 29, Type (0, 0), BuildingBlock: OJICUG_clean_linker_0, # of connection points: 2
#     Edge 30, Type (0, 0), BuildingBlock: OJICUG_clean_linker_0, # of connection points: 2
#     Edge 31, Type (0, 0), BuildingBlock: OJICUG_clean_linker_0, # of connection points: 2
#     Edge 32, Type (0, 0), BuildingBlock: OJICUG_clean_linker_0, # of connection points: 2
#     Edge 33, Type (0, 0), BuildingBlock: OJICUG_clean_linker_0, # of connection points: 2
#     Edge 34, Type (0, 0), BuildingBlock: OJICUG_clean_linker_0, # of connection points: 2
#     Edge 35, Type (0, 0), BuildingBlock: OJICUG_clean_linker_0, # of connection points: 2
#     Edge 36, Type (0, 0), BuildingBlock: OJICUG_clean_linker_0, # of connection points: 2
#     Edge 37, Type (0, 0), BuildingBlock: OJICUG_clean_linker_0, # of connection points: 2
#     Edge 38, Type (0, 0), BuildingBlock: OJICUG_clean_linker_0, # of connection points: 2
#     Edge 39, Type (0, 0), BuildingBlock: OJICUG_clean_linker_0, # of connection points: 2
#     Edge 40, Type (0, 0), BuildingBlock: OJICUG_clean_linker_0, # of connection points: 2
#     Edge 41, Type (0, 0), BuildingBlock: OJICUG_clean_linker_0, # of connection points: 2
#     Edge 42, Type (0, 0), BuildingBlock: OJICUG_clean_linker_0, # of connection points: 2
#     Edge 43, Type (0, 0), BuildingBlock: OJICUG_clean_linker_0, # of connection points: 2
#     Edge 44, Type (0, 0), BuildingBlock: OJICUG_clean_linker_0, # of connection points: 2
#     Edge 45, Type (0, 0), BuildingBlock: OJICUG_clean_linker_0, # of connection points: 2
#     Edge 46, Type (0, 0), BuildingBlock: OJICUG_clean_linker_0, # of connection points: 2
#     Edge 47, Type (0, 0), BuildingBlock: OJICUG_clean_linker_0, # of connection points: 2
#     Edge 48, Type (0, 0), BuildingBlock: OJICUG_clean_linker_0, # of connection points: 2
#     Edge 49, Type (0, 0), BuildingBlock: OJICUG_clean_linker_0, # of connection points: 2
#     Edge 50, Type (0, 0), BuildingBlock: OJICUG_clean_linker_0, # of connection points: 2
#     Edge 51, Type (0, 0), BuildingBlock: OJICUG_clean_linker_0, # of connection points: 2
#     Edge 52, Type (0, 0), BuildingBlock: OJICUG_clean_linker_0, # of connection points: 2
#     Edge 53, Type (0, 0), BuildingBlock: OJICUG_clean_linker_0, # of connection points: 2
#     Edge 54, Type (0, 0), BuildingBlock: OJICUG_clean_linker_0, # of connection points: 2
#     Edge 55, Type (0, 0), BuildingBlock: OJICUG_clean_linker_0, # of connection points: 2
#     Edge 56, Type (0, 0), BuildingBlock: OJICUG_clean_linker_0, # of connection points: 2
#     Edge 57, Type (0, 0), BuildingBlock: OJICUG_clean_linker_0, # of connection points: 2
#     Edge 58, Type (0, 0), BuildingBlock: OJICUG_clean_linker_0, # of connection points: 2
#     Edge 59, Type (0, 0), BuildingBlock: OJICUG_clean_linker_0, # of connection points: 2
#     Edge 60, Type (0, 0), BuildingBlock: OJICUG_clean_linker_0, # of connection points: 2
#     Edge 61, Type (0, 0), BuildingBlock: OJICUG_clean_linker_0, # of connection points: 2
#     Edge 62, Type (0, 0), BuildingBlock: OJICUG_clean_linker_0, # of connection points: 2
#     Edge 63, Type (0, 0), BuildingBlock: OJICUG_clean_linker_0, # of connection points: 2
# Relax obj value: 0.366
# Max RMSD: 0.243
# Mean RMSD: 0.243
data_MOF--net-whz--node1-LEVNOQ01_clean_sbu_1--edge1-OJICUG_clean_linker_0
_symmetry_space_group_name_H-M    P1
_symmetry_Int_Tables_number       1
_symmetry_cell_setting            triclinic
loop_
_symmetry_equiv_pos_as_xyz
'x, y, z'
_cell_length_a     27.623078
_cell_length_b     27.470681
_cell_length_c     37.917448
_cell_angle_alpha  90.083996
_cell_angle_beta   89.947755
_cell_angle_gamma 90.198334
loop_
_atom_site_label
_atom_site_type_symbol
_atom_site_fract_x
_atom_site_fract_y
_atom_site_fract_z
_atom_type_partial_charge
O0 O 0.24478 0.16338 0.05857 0.0
Mg1 Mg 0.27616 0.18617 0.10837 0.0
O2 O 0.25323 0.08773 0.07586 0.0
Mg3 Mg 0.25405 0.11886 0.1338 0.0
O4 O 0.33701 0.15458 0.12663 0.0
O5 O 0.33502 0.22621 0.09787 0.0
O6 O 0.25204 0.15677 0.18696 0.0
O7 O 0.30342 0.05299 0.16049 0.0
Mg8 Mg 0.21922 0.0611 0.17585 0.0
O9 O 0.17251 0.08845 0.13937 0.0
O10 O 0.2391 0.09674 0.22309 0.0
O11 O 0.24986 -0.00506 0.162 0.0
O12 O 0.15052 0.04914 0.18887 0.0
C13 C 0.19647 0.2176 0.13535 0.0
C14 C 0.24276 0.11828 0.05152 0.0
C15 C 0.35907 0.19353 0.11458 0.0
C16 C 0.24613 0.14151 0.21806 0.0
C17 C 0.2922 0.00889 0.16881 0.0
C18 C 0.13918 0.07112 0.16021 0.0
O19 O 0.23805 0.23121 0.14425 0.0
O20 O 0.19344 0.17809 0.11809 0.0
O21 O 0.67776 0.50346 0.4132 0.0
Mg22 Mg 0.6125 0.47104 0.42702 0.0
O23 O 0.61946 0.55618 0.41156 0.0
Mg24 Mg 0.55485 0.50511 0.38458 0.0
O25 O 0.5857 0.42372 0.39044 0.0
O26 O 0.62635 0.40231 0.4394 0.0
O27 O 0.49687 0.44267 0.36865 0.0
O28 O 0.58622 0.50467 0.32679 0.0
Mg29 Mg 0.48815 0.52559 0.35916 0.0
O30 O 0.5184 0.5877 0.37712 0.0
O31 O 0.44374 0.48659 0.39499 0.0
O32 O 0.5112 0.49461 0.30929 0.0
O33 O 0.44702 0.58348 0.3486 0.0
C34 C 0.5317 0.49684 0.46875 0.0
C35 C 0.66343 0.54582 0.41991 0.0
C36 C 0.60432 0.3906 0.41081 0.0
C37 C 0.4576 0.44502 0.38595 0.0
C38 C 0.5561 0.49359 0.30233 0.0
C39 C 0.47914 0.60869 0.36513 0.0
O40 O 0.57612 0.48985 0.4741 0.0
O41 O 0.51693 0.50288 0.43757 0.0
O42 O 0.17595 0.76383 0.55852 0.0
Mg43 Mg 0.14441 0.73986 0.60797 0.0
O44 O 0.16714 0.83912 0.57672 0.0
Mg45 Mg 0.16617 0.8072 0.63447 0.0
O46 O 0.08366 0.77119 0.62686 0.0
O47 O 0.08549 0.70016 0.59713 0.0
O48 O 0.16832 0.76798 0.68728 0.0
O49 O 0.11644 0.87296 0.66156 0.0
Mg50 Mg 0.20016 0.86337 0.6776 0.0
O51 O 0.24709 0.83829 0.64036 0.0
O52 O 0.17902 0.82747 0.72427 0.0
O53 O 0.1707 0.93031 0.66498 0.0
O54 O 0.26905 0.87298 0.69161 0.0
C55 C 0.22409 0.70867 0.63499 0.0
C56 C 0.17783 0.80907 0.55201 0.0
C57 C 0.06155 0.73253 0.61435 0.0
C58 C 0.17322 0.78269 0.71864 0.0
C59 C 0.12787 0.91679 0.67061 0.0
C60 C 0.28042 0.85361 0.66195 0.0
O61 O 0.18252 0.69447 0.64344 0.0
O62 O 0.22704 0.7485 0.61823 0.0
O63 O 0.90931 0.4315 0.80874 0.0
Mg64 Mg 0.93263 0.40017 0.85835 0.0
O65 O 0.83442 0.42206 0.82673 0.0
Mg66 Mg 0.86616 0.42168 0.88442 0.0
O67 O 0.90189 0.33867 0.87698 0.0
O68 O -0.02748 0.34149 0.84733 0.0
O69 O 0.9046 0.42412 0.93731 0.0
O70 O 0.80098 0.37132 0.9116 0.0
Mg71 Mg 0.80934 0.45623 0.92716 0.0
O72 O 0.83546 0.50317 0.89009 0.0
O73 O 0.84556 0.43692 0.97407 0.0
O74 O 0.74333 0.42481 0.91435 0.0
O75 O 0.79763 0.52534 0.9401 0.0
C76 C -0.03558 0.48034 0.88523 0.0
C77 C 0.86436 0.43291 0.80208 0.0
C78 C 0.94052 0.31696 0.86448 0.0
C79 C 0.88996 0.43006 0.96857 0.0
C80 C 0.75724 0.38214 0.92044 0.0
C81 C 0.81857 0.53669 0.911 0.0
O82 O -0.02206 0.43856 0.89392 0.0
O83 O 0.92494 0.48327 0.86828 0.0
O84 O 0.67726 0.76356 0.97736 0.0
Mg85 Mg 0.64592 0.74074 0.92755 0.0
O86 O 0.66875 0.83918 0.96004 0.0
Mg87 Mg 0.66807 0.80809 0.9021 0.0
O88 O 0.58512 0.77231 0.90917 0.0
O89 O 0.58704 0.70074 0.93801 0.0
O90 O 0.67018 0.77025 0.84891 0.0
O91 O 0.61874 0.87398 0.87541 0.0
Mg92 Mg 0.70307 0.86595 0.86004 0.0
O93 O 0.74957 0.83859 0.89668 0.0
O94 O 0.68337 0.83025 0.8128 0.0
O95 O 0.67228 0.93206 0.87377 0.0
O96 O 0.77185 0.87792 0.84725 0.0
C97 C 0.72562 0.70935 0.90054 0.0
C98 C 0.67921 0.80866 0.9844 0.0
C99 C 0.56303 0.73337 0.92122 0.0
C100 C 0.6762 0.78551 0.81782 0.0
C101 C 0.62992 0.91807 0.86705 0.0
C102 C 0.78303 0.85595 0.87595 0.0
O103 O 0.68404 0.69573 0.89166 0.0
O104 O 0.72867 0.74884 0.91781 0.0
O105 O 0.41 0.43234 0.72577 0.0
Mg106 Mg 0.43278 0.40148 0.6758 0.0
O107 O 0.33487 0.42223 0.70854 0.0
Mg108 Mg 0.36594 0.42195 0.65067 0.0
O109 O 0.4025 0.33934 0.65796 0.0
O110 O 0.47402 0.34365 0.68628 0.0
O111 O 0.40378 0.42428 0.59765 0.0
O112 O 0.30095 0.37111 0.6238 0.0
Mg113 Mg 0.30852 0.45607 0.60811 0.0
O114 O 0.33475 0.50317 0.6451 0.0
O115 O 0.34462 0.43672 0.56103 0.0
O116 O 0.24295 0.42424 0.62162 0.0
O117 O 0.29637 0.52508 0.59534 0.0
C118 C 0.46318 0.48213 0.64912 0.0
C119 C 0.36515 0.43329 0.7329 0.0
C120 C 0.4418 0.31839 0.6699 0.0
C121 C 0.38906 0.42998 0.56644 0.0
C122 C 0.25708 0.38169 0.61524 0.0
C123 C 0.31758 0.53657 0.6243 0.0
O124 O 0.47706 0.44062 0.63997 0.0
O125 O 0.42398 0.48438 0.66651 0.0
O126 O 0.74475 0.16298 0.47735 0.0
Mg127 Mg 0.77636 0.18687 0.42788 0.0
O128 O 0.75357 0.08768 0.45918 0.0
Mg129 Mg 0.75459 0.1195 0.40141 0.0
O130 O 0.8371 0.15552 0.409 0.0
O131 O 0.83529 0.22656 0.43872 0.0
O132 O 0.75253 0.15855 0.34853 0.0
O133 O 0.8043 0.0537 0.37443 0.0
Mg134 Mg 0.72051 0.06312 0.35828 0.0
O135 O 0.67369 0.08841 0.39553 0.0
O136 O 0.74164 0.099 0.3116 0.0
O137 O 0.75011 -0.00372 0.37099 0.0
O138 O 0.65158 0.05342 0.3444 0.0
C139 C 0.69674 0.21804 0.40072 0.0
C140 C 0.74286 0.11775 0.48388 0.0
C141 C 0.85922 0.1942 0.42148 0.0
C142 C 0.74761 0.14378 0.31719 0.0
C143 C 0.79294 0.00984 0.3654 0.0
C144 C 0.6403 0.07298 0.37403 0.0
O145 O 0.73835 0.23218 0.39232 0.0
O146 O 0.69372 0.17827 0.41755 0.0
O147 O 0.01224 0.49541 0.22622 0.0
Mg148 Mg -0.01075 0.52672 0.17651 0.0
O149 O 0.08725 0.50496 0.20852 0.0
Mg150 Mg 0.05584 0.50532 0.15074 0.0
O151 O 0.02004 0.58833 0.15813 0.0
O152 O 0.94914 0.58529 0.18742 0.0
O153 O 0.01776 0.50286 0.09772 0.0
O154 O 0.12109 0.55568 0.12371 0.0
Mg155 Mg 0.11302 0.47064 0.10807 0.0
O156 O 0.08664 0.42388 0.14516 0.0
O157 O 0.07688 0.48972 0.06108 0.0
O158 O 0.17884 0.50228 0.12111 0.0
O159 O 0.12497 0.40149 0.0954 0.0
C160 C 0.95767 0.44651 0.14962 0.0
C161 C 0.05714 0.49406 0.23305 0.0
C162 C -0.01872 0.60994 0.17049 0.0
C163 C 0.03248 0.49674 0.0665 0.0
C164 C 0.16488 0.54492 0.11497 0.0
C165 C 0.10377 0.39027 0.12443 0.0
O166 O 0.94421 0.48825 0.1408 0.0
O167 O -0.00295 0.44366 0.16671 0.0
O168 O 0.74181 0.66445 0.55942 0.0
Mg169 Mg 0.77289 0.68773 0.60919 0.0
O170 O 0.75068 0.58895 0.57695 0.0
Mg171 Mg 0.75116 0.62038 0.6348 0.0
O172 O 0.83382 0.65632 0.62751 0.0
O173 O 0.83163 0.72788 0.59864 0.0
O174 O 0.74883 0.65875 0.68782 0.0
O175 O 0.80082 0.55476 0.66179 0.0
Mg176 Mg 0.7164 0.5628 0.67714 0.0
O177 O 0.6699 0.58968 0.64029 0.0
O178 O 0.73589 0.59901 0.72419 0.0
O179 O 0.7474 0.49657 0.66408 0.0
O180 O 0.64756 0.55098 0.68995 0.0
C181 C 0.693 0.71898 0.63587 0.0
C182 C 0.74014 0.6193 0.55249 0.0
C183 C 0.85578 0.69524 0.61533 0.0
C184 C 0.7428 0.64374 0.71897 0.0
C185 C 0.78984 0.51069 0.67041 0.0
C186 C 0.63642 0.57265 0.66112 0.0
O187 O 0.73446 0.7329 0.64481 0.0
O188 O 0.69023 0.67926 0.61884 0.0
O189 O 0.17759 0.00338 0.91244 0.0
Mg190 Mg 0.11229 -0.02867 0.92665 0.0
O191 O 0.11966 0.05653 0.91142 0.0
Mg192 Mg 0.05427 0.00611 0.88478 0.0
O193 O 0.08451 0.92434 0.89024 0.0
O194 O 0.12601 0.90246 0.93871 0.0
O195 O -0.00455 0.94426 0.8692 0.0
O196 O 0.08498 0.00559 0.82683 0.0
Mg197 Mg -0.01248 0.02728 0.85975 0.0
O198 O 0.01852 0.08915 0.87757 0.0
O199 O 0.94301 -0.01127 0.8958 0.0
O200 O 0.00973 -0.00402 0.80976 0.0
O201 O 0.94696 0.08563 0.84927 0.0
C202 C 0.03223 -0.00259 0.96909 0.0
C203 C 0.16367 0.0458 0.91939 0.0
C204 C 0.10334 0.891 0.91033 0.0
C205 C 0.95634 0.94702 0.88667 0.0
C206 C 0.05454 -0.00529 0.80255 0.0
C207 C -0.02055 0.11055 0.86564 0.0
O208 O 0.07668 -0.00997 0.97404 0.0
O209 O 0.01703 0.00394 0.93807 0.0
O210 O 0.6789 0.26258 0.05948 0.0
Mg211 Mg 0.64783 0.23949 0.10934 0.0
O212 O 0.66956 0.33809 0.07697 0.0
Mg213 Mg 0.6693 0.30708 0.13486 0.0
O214 O 0.58669 0.27057 0.12768 0.0
O215 O 0.58932 0.1989 0.09886 0.0
O216 O 0.67195 0.26949 0.18812 0.0
O217 O 0.61918 0.37237 0.16166 0.0
Mg218 Mg 0.70379 0.3657 0.1769 0.0
O219 O 0.75048 0.3384 0.14025 0.0
O220 O 0.68512 0.32971 0.22419 0.0
O221 O 0.67184 0.43124 0.16323 0.0
O222 O 0.77242 0.37903 0.18928 0.0
C223 C 0.7278 0.2089 0.13623 0.0
C224 C 0.68026 0.3077 0.05251 0.0
C225 C 0.56494 0.23148 0.11552 0.0
C226 C 0.6783 0.28488 0.21918 0.0
C227 C 0.62966 0.41667 0.16995 0.0
C228 C 0.78377 0.35656 0.16076 0.0
O229 O 0.68634 0.195 0.14522 0.0
O230 O 0.73049 0.24835 0.11895 0.0
O231 O 0.40966 0.92927 0.30759 0.0
Mg232 Mg 0.43235 0.89744 0.35699 0.0
O233 O 0.33488 0.92137 0.32606 0.0
Mg234 Mg 0.36737 0.92113 0.38365 0.0
O235 O 0.40136 0.83701 0.37668 0.0
O236 O 0.47045 0.83815 0.34504 0.0
O237 O 0.40675 0.92491 0.43593 0.0
O238 O 0.30081 0.87227 0.41141 0.0
Mg239 Mg 0.31286 0.95576 0.42721 0.0
O240 O 0.3375 0.00273 0.3893 0.0
O241 O 0.34813 0.93223 0.47374 0.0
O242 O 0.24509 0.92782 0.41561 0.0
O243 O 0.30631 0.02536 0.44146 0.0
C244 C 0.46845 -0.02416 0.38293 0.0
C245 C 0.36473 0.93153 0.3012 0.0
C246 C 0.43906 0.81452 0.3634 0.0
C247 C 0.3926 0.92801 0.46746 0.0
C248 C 0.25764 0.88451 0.42097 0.0
C249 C 0.32408 0.03656 0.41126 0.0
O250 O 0.4804 0.93353 0.39144 0.0
O251 O 0.42835 -0.01932 0.36694 0.0
O252 O 0.17876 0.26259 0.47594 0.0
Mg253 Mg 0.14784 0.23932 0.42612 0.0
O254 O 0.16987 0.33809 0.45841 0.0
Mg255 Mg 0.16955 0.30662 0.40058 0.0
O256 O 0.08686 0.27063 0.40782 0.0
O257 O 0.08917 0.19903 0.43663 0.0
O258 O 0.17204 0.26821 0.34759 0.0
O259 O 0.11987 0.37216 0.3735 0.0
Mg260 Mg 0.20429 0.36417 0.35832 0.0
O261 O 0.25086 0.33735 0.39514 0.0
O262 O 0.18499 0.32796 0.31122 0.0
O263 O 0.17325 0.43039 0.3714 0.0
O264 O 0.2731 0.37617 0.34551 0.0
C265 C 0.22784 0.2081 0.39963 0.0
C266 C 0.18036 0.30774 0.48288 0.0
C267 C 0.06497 0.23166 0.41999 0.0
C268 C 0.17816 0.28321 0.31644 0.0
C269 C 0.13085 0.41624 0.36494 0.0
C270 C 0.28429 0.35447 0.37431 0.0
O271 O 0.18643 0.19417 0.39058 0.0
O272 O 0.2305 0.24783 0.41667 0.0
O273 O 0.91192 0.93075 0.22662 0.0
Mg274 Mg 0.93453 0.89959 0.17669 0.0
O275 O 0.83678 0.9213 0.20923 0.0
Mg276 Mg 0.86782 0.92102 0.15138 0.0
O277 O 0.90356 0.83795 0.15841 0.0
O278 O -0.02525 0.84104 0.18723 0.0
O279 O 0.90565 0.92339 0.09829 0.0
O280 O 0.80221 0.87085 0.12454 0.0
Mg281 Mg 0.81067 0.95569 0.1093 0.0
O282 O 0.83739 0.00273 0.14614 0.0
O283 O 0.84618 0.93624 0.06203 0.0
O284 O 0.74473 0.92458 0.12273 0.0
O285 O 0.79895 0.02478 0.09645 0.0
C286 C -0.03407 -0.0201 0.14994 0.0
C287 C 0.86706 0.93206 0.23365 0.0
C288 C 0.94242 0.81635 0.17051 0.0
C289 C 0.89064 0.92935 0.06717 0.0
C290 C 0.75837 0.88191 0.1162 0.0
C291 C 0.82035 0.03622 0.12535 0.0
O292 O -0.02059 0.93819 0.14094 0.0
O293 O 0.92667 -0.01732 0.16723 0.0
O294 O 0.24325 0.66425 0.97584 0.0
Mg295 Mg 0.27428 0.68722 0.92594 0.0
O296 O 0.25259 0.5887 0.95842 0.0
Mg297 Mg 0.25285 0.61967 0.90053 0.0
O298 O 0.33549 0.65617 0.90772 0.0
O299 O 0.33272 0.72794 0.9364 0.0
O300 O 0.25021 0.65717 0.84726 0.0
O301 O 0.303 0.55441 0.87376 0.0
Mg302 Mg 0.21845 0.56096 0.85858 0.0
O303 O 0.17163 0.58839 0.89509 0.0
O304 O 0.23715 0.59686 0.81124 0.0
O305 O 0.25039 0.49549 0.87245 0.0
O306 O 0.14988 0.5475 0.84612 0.0
C307 C 0.19428 0.71778 0.89911 0.0
C308 C 0.24189 0.61914 0.98285 0.0
C309 C 0.35718 0.69533 0.91983 0.0
C310 C 0.24388 0.64171 0.81621 0.0
C311 C 0.29252 0.51007 0.86558 0.0
C312 C 0.13842 0.57012 0.87456 0.0
O313 O 0.23572 0.73162 0.89003 0.0
O314 O 0.19163 0.67838 0.91645 0.0
O315 O 0.51149 -0.00212 0.72877 0.0
Mg316 Mg 0.48843 0.02973 0.67948 0.0
O317 O 0.58613 0.00558 0.70994 0.0
Mg318 Mg 0.55327 0.00578 0.65246 0.0
O319 O 0.51941 0.08994 0.6594 0.0
O320 O 0.45071 0.08923 0.6915 0.0
O321 O 0.51348 0.00195 0.60033 0.0
O322 O 0.61983 0.05452 0.6245 0.0
Mg323 Mg 0.60727 -0.02889 0.60878 0.0
O324 O 0.58303 0.92412 0.64682 0.0
O325 O 0.57186 -0.00522 0.56235 0.0
O326 O 0.67528 -0.00127 0.61999 0.0
O327 O 0.61339 0.90148 0.59442 0.0
C328 C 0.452 0.95141 0.65359 0.0
C329 C 0.55647 -0.00449 0.73494 0.0
C330 C 0.48191 0.11262 0.6728 0.0
C331 C 0.52744 -0.00105 0.56876 0.0
C332 C 0.66288 0.04212 0.61478 0.0
C333 C 0.59608 0.89028 0.62476 0.0
O334 O 0.44002 -0.00623 0.64527 0.0
O335 O 0.49224 0.94643 0.66938 0.0
C336 C 0.20327 0.16288 0.27345 0.0
C337 C 0.23327 0.17699 0.24536 0.0
H338 H 0.15984 0.18601 0.31693 0.0
C339 C 0.24246 0.22666 0.23963 0.0
H340 H 0.19464 0.12491 0.27804 0.0
C341 C 0.22154 0.26167 0.26132 0.0
C342 C 0.19143 0.24758 0.28935 0.0
H343 H 0.26498 0.23856 0.21786 0.0
H344 H 0.23015 0.29964 0.25671 0.0
C345 C 0.18237 0.1979 0.29516 0.0
C346 C 0.41144 0.47306 0.51134 0.0
C347 C 0.42479 0.44277 0.53942 0.0
H348 H 0.43544 0.51642 0.468 0.0
C349 C 0.474 0.43315 0.5454 0.0
H350 H 0.37385 0.48206 0.5066 0.0
C351 C 0.50931 0.45379 0.52387 0.0
C352 C 0.49596 0.48407 0.49578 0.0
H353 H 0.48531 0.41044 0.56721 0.0
H354 H 0.5469 0.44479 0.52861 0.0
C355 C 0.44675 0.49371 0.48981 0.0
C356 C 0.17827 0.69739 0.73977 0.0
C357 C 0.18705 0.74713 0.74555 0.0
H358 H 0.19135 0.62453 0.75676 0.0
C359 C 0.21757 0.7615 0.77326 0.0
H360 H 0.15551 0.68532 0.71818 0.0
C361 C 0.23916 0.72672 0.79468 0.0
C362 C 0.23023 0.67698 0.78904 0.0
H363 H 0.22601 0.79954 0.77781 0.0
H364 H 0.26201 0.73887 0.8162 0.0
C365 C 0.19978 0.66257 0.76127 0.0
C366 C 0.9123 0.47308 0.02379 0.0
C367 C 0.9257 0.44286 0.99559 0.0
H368 H 0.93619 0.51627 0.06731 0.0
C369 C -0.02509 0.4332 0.9896 0.0
H370 H 0.87471 0.4821 0.02856 0.0
C371 C 0.01017 0.45373 1.01125 0.0
C372 C -0.00323 0.48394 0.03945 0.0
H373 H -0.01373 0.41055 0.96771 0.0
H374 H 0.04777 0.4447 1.00648 0.0
C375 C 0.94756 0.49361 0.04543 0.0
C376 C 0.67954 0.70036 0.79621 0.0
C377 C 0.68877 0.75001 0.79045 0.0
H378 H 0.69147 0.62737 0.77901 0.0
C379 C 0.71846 0.76409 0.76218 0.0
H380 H 0.65725 0.68847 0.81812 0.0
C381 C 0.73899 0.72905 0.74031 0.0
C382 C 0.72989 0.67938 0.74615 0.0
H383 H 0.72711 0.80204 0.75755 0.0
H384 H 0.76128 0.74091 0.7184 0.0
C385 C 0.70011 0.66532 0.77437 0.0
C386 C 0.72187 0.26391 0.27432 0.0
C387 C 0.6917 0.24956 0.24638 0.0
H388 H 0.76559 0.2411 0.31768 0.0
C389 C 0.68272 0.19984 0.24069 0.0
H390 H 0.73034 0.30194 0.27887 0.0
C391 C 0.70397 0.16502 0.26226 0.0
C392 C 0.73417 0.17934 0.29018 0.0
H393 H 0.66009 0.18773 0.21905 0.0
H394 H 0.69548 0.127 0.25769 0.0
C395 C 0.74304 0.22906 0.29596 0.0
C396 C -0.02466 0.93256 0.04557 0.0
C397 C 0.9261 0.94249 0.04004 0.0
H398 H 0.04805 0.9442 0.02835 0.0
C399 C 0.91251 -0.02659 1.01238 0.0
H400 H -0.01317 0.90939 0.06708 0.0
C401 C 0.94761 -0.00566 0.99081 0.0
C402 C -0.00315 -0.01563 0.99631 0.0
H403 H 0.8749 -0.01732 1.00801 0.0
H404 H 0.93609 0.01753 0.96932 0.0
C405 C 0.01044 0.95347 0.02398 0.0
C406 C 0.45673 -0.01489 0.48509 0.0
C407 C 0.42741 0.94478 0.49351 0.0
H408 H 0.51237 0.0343 0.50257 0.0
C409 C 0.43018 0.92359 0.52681 0.0
H410 H 0.45332 0.00299 0.4598 0.0
C411 C 0.46317 0.94195 0.55119 0.0
C412 C 0.49249 -0.01773 0.54277 0.0
H413 H 0.40754 0.89275 0.5337 0.0
H414 H 0.46662 0.92404 0.57647 0.0
C415 C 0.4897 0.00347 0.50948 0.0
C416 C 0.2281 0.04643 0.96631 0.0
C417 C 0.18945 0.07074 0.94929 0.0
H418 H 0.27365 0.04087 1.01207 0.0
C419 C 0.17104 0.1129 0.96544 0.0
H420 H 0.24358 0.01374 0.95505 0.0
C421 C 0.18954 0.12903 0.99806 0.0
C422 C 0.2258 0.1026 1.01591 0.0
H423 H 0.14112 0.13232 0.95361 0.0
H424 H 0.1739 0.16112 1.01013 0.0
C425 C 0.24527 0.06155 0.99936 0.0
C426 C 0.54605 0.44078 0.24832 0.0
C427 C 0.57205 0.47724 0.26665 0.0
H428 H 0.54335 0.39271 0.20341 0.0
C429 C 0.61295 0.4975 0.25049 0.0
H430 H 0.51409 0.42454 0.26007 0.0
C431 C 0.62835 0.48086 0.21737 0.0
C432 C 0.60447 0.442 0.19987 0.0
H433 H 0.6333 0.52606 0.26357 0.0
H434 H 0.66093 0.4969 0.20644 0.0
C435 C 0.56245 0.42282 0.21561 0.0
C436 C 0.23093 0.79922 0.49823 0.0
C437 C 0.19485 0.82546 0.51655 0.0
H438 H 0.27939 0.79674 0.45368 0.0
C439 C 0.17565 0.86702 0.50061 0.0
H440 H 0.24637 0.76676 0.50978 0.0
C441 C 0.19295 0.88283 0.46776 0.0
C442 C 0.23148 0.85874 0.45033 0.0
H443 H 0.1474 0.88758 0.51365 0.0
H444 H 0.17769 0.9159 0.45702 0.0
C445 C 0.24956 0.81603 0.4658 0.0
C446 C 0.85754 0.50399 0.71561 0.0
C447 C 0.8152 0.48517 0.70011 0.0
H448 H 0.90639 0.50178 0.75971 0.0
C449 C 0.79124 0.44644 0.71766 0.0
H450 H 0.87671 0.53399 0.70337 0.0
C451 C 0.8069 0.42959 0.75062 0.0
C452 C 0.84814 0.44949 0.76655 0.0
H453 H 0.75843 0.43065 0.70692 0.0
H454 H 0.78649 0.40115 0.76375 0.0
C455 C 0.87418 0.48581 0.74815 0.0
C456 C 0.75101 0.81446 0.07044 0.0
C457 C 0.73247 0.85661 0.08654 0.0
H458 H 0.74826 0.76613 0.0258 0.0
C459 C 0.69362 0.88065 0.06956 0.0
H460 H 0.78107 0.79524 0.08223 0.0
C461 C 0.67644 0.86538 0.03655 0.0
C462 C 0.69609 0.8244 0.02001 0.0
H463 H 0.67801 0.91329 0.0808 0.0
H464 H 0.64794 0.88589 0.02385 0.0
C465 C 0.73249 0.79816 0.03786 0.0
C466 C 0.2935 0.4459 0.81814 0.0
C467 C 0.3175 0.48476 0.83556 0.0
H468 H 0.28823 0.40074 0.77193 0.0
C469 C 0.3594 0.50397 0.81966 0.0
H470 H 0.26101 0.42984 0.82919 0.0
C471 C 0.37556 0.48605 0.78688 0.0
C472 C 0.34944 0.4496 0.76865 0.0
H473 H 0.37857 0.53407 0.83181 0.0
H474 H 0.40743 0.50231 0.77503 0.0
C475 C 0.30866 0.4293 0.78495 0.0
C476 C 0.74505 0.0598 0.53527 0.0
C477 C 0.72583 0.10136 0.51934 0.0
H478 H 0.74297 0.01087 0.57883 0.0
C479 C 0.68973 0.12757 0.53765 0.0
H480 H 0.77332 0.03927 0.52224 0.0
C481 C 0.67106 0.11072 0.57005 0.0
C482 C 0.68913 0.06798 0.58551 0.0
H483 H 0.67429 0.16004 0.5261 0.0
H484 H 0.64119 0.12997 0.58216 0.0
C485 C 0.72771 0.04395 0.5681 0.0
C486 C 0.12964 0.48059 0.31776 0.0
C487 C 0.10564 0.44177 0.33518 0.0
H488 H 0.13464 0.52596 0.27173 0.0
C489 C 0.06346 0.42288 0.31949 0.0
H490 H 0.16233 0.49644 0.32865 0.0
C491 C 0.04702 0.44106 0.2869 0.0
C492 C 0.07313 0.47748 0.26864 0.0
H493 H 0.04427 0.39281 0.33163 0.0
H494 H 0.01494 0.42504 0.2752 0.0
C495 C 0.1142 0.49745 0.28475 0.0
C496 C 0.68737 0.62937 0.49872 0.0
C497 C 0.7237 0.60335 0.51682 0.0
H498 H 0.63949 0.6321 0.45394 0.0
C499 C 0.74384 0.56251 0.50041 0.0
H500 H 0.67125 0.66129 0.51067 0.0
C501 C 0.72726 0.54721 0.46724 0.0
C502 C 0.68857 0.57107 0.44996 0.0
H503 H 0.7723 0.54218 0.51331 0.0
H504 H 0.74326 0.51469 0.4561 0.0
C505 C 0.66947 0.61303 0.46597 0.0
C506 C 0.11039 -0.00099 0.75019 0.0
C507 C 0.07007 -0.02172 0.76679 0.0
H508 H 0.15779 -0.00144 0.70581 0.0
C509 C 0.04431 0.94127 0.74888 0.0
H510 H 0.13047 0.02805 0.76294 0.0
C511 C 0.06057 0.92311 0.71619 0.0
C512 C 0.10219 0.94261 0.70009 0.0
H513 H 0.01276 0.92471 0.76097 0.0
H514 H 0.04184 0.89247 0.70438 0.0
C515 C 0.1256 -0.01782 0.71708 0.0
C516 C 0.6763 0.36445 1.00056 0.0
C517 C 0.69658 0.32366 1.01682 0.0
H518 H 0.67688 0.4125 0.95648 0.0
C519 C 0.73304 0.29784 0.99862 0.0
H520 H 0.64773 0.38463 1.01353 0.0
C521 C 0.75101 0.31442 0.96595 0.0
C522 C 0.73186 0.35642 0.95014 0.0
H523 H 0.74927 0.26596 1.01044 0.0
H524 H 0.78115 0.29556 0.95388 0.0
C525 C 0.69295 0.37999 0.96748 0.0
C526 C 0.35932 0.00169 0.21436 0.0
C527 C 0.31669 -0.01652 0.19891 0.0
H528 H 0.40798 -0.00088 0.25852 0.0
C529 C 0.29179 0.94561 0.21677 0.0
H530 H 0.37919 0.03104 0.20188 0.0
C531 C 0.30697 0.92896 0.24989 0.0
C532 C 0.3486 0.94819 0.26569 0.0
H533 H 0.2587 0.93036 0.20609 0.0
H534 H 0.28596 0.90113 0.26321 0.0
C535 C 0.37545 -0.0163 0.24706 0.0
C536 C 0.19295 0.37978 0.56816 0.0
C537 C 0.23184 0.35615 0.58538 0.0
H538 H 0.14779 0.38459 0.52214 0.0
C539 C 0.25109 0.31427 0.56935 0.0
H540 H 0.17681 0.41221 0.57933 0.0
C541 C 0.2332 0.29785 0.53662 0.0
C542 C 0.19673 0.3237 0.51856 0.0
H543 H 0.28122 0.29537 0.58133 0.0
H544 H 0.24947 0.26602 0.52464 0.0
C545 C 0.17638 0.3644 0.53501 0.0
C546 C 0.87703 -0.01469 0.28744 0.0
C547 C 0.85129 0.94844 0.26936 0.0
H548 H 0.87931 0.03397 0.33202 0.0
C549 C 0.81074 0.92782 0.28575 0.0
H550 H 0.90874 0.00178 0.27551 0.0
C551 C 0.79531 0.94462 0.31881 0.0
C552 C 0.81873 -0.01595 0.33597 0.0
H553 H 0.79066 0.8989 0.27287 0.0
H554 H 0.76297 0.92833 0.32991 0.0
C555 C 0.86056 0.00344 0.32008 0.0
C556 C 0.22924 0.54706 0.06798 0.0
C557 C 0.19027 0.57062 0.08526 0.0
H558 H 0.27451 0.54237 0.02195 0.0
C559 C 0.17108 0.61255 0.06938 0.0
H560 H 0.24534 0.5146 0.07904 0.0
C561 C 0.18906 0.62907 0.03671 0.0
C562 C 0.22557 0.60326 0.01856 0.0
H563 H 0.1409 0.6314 0.08141 0.0
H564 H 0.17279 0.6609 0.02483 0.0
C565 C 0.2459 0.56254 0.03489 0.0
C566 C 0.6147 -0.00206 0.78597 0.0
C567 C 0.57287 -0.02118 0.77038 0.0
H568 H 0.66336 -0.00358 0.82954 0.0
C569 C 0.54609 0.9434 0.78915 0.0
H570 H 0.63568 0.02569 0.77255 0.0
C571 C 0.56246 0.92539 0.82178 0.0
C572 C 0.60526 0.94349 0.83702 0.0
H573 H 0.51341 0.92808 0.77785 0.0
H574 H 0.5426 0.89611 0.83437 0.0
C575 C 0.63012 -0.01874 0.81903 0.0
C576 C 0.44487 0.16421 0.12102 0.0
C577 C 0.41162 0.2025 0.11977 0.0
H578 H 0.51956 0.14368 0.12046 0.0
C579 C 0.42924 0.25083 0.12075 0.0
H580 H 0.43249 0.12676 0.12037 0.0
C581 C 0.47905 0.2607 0.1214 0.0
C582 C 0.51232 0.22242 0.1203 0.0
H583 H 0.40439 0.28124 0.12022 0.0
H584 H 0.49143 0.29816 0.12101 0.0
C585 C 0.49469 0.17409 0.1209 0.0
C586 C 0.42116 0.6781 0.3707 0.0
C587 C 0.46946 0.66134 0.36995 0.0
H588 H 0.37335 0.73975 0.37007 0.0
C589 C 0.50713 0.69548 0.37096 0.0
H590 H 0.39124 0.6525 0.37035 0.0
C591 C 0.4967 0.74533 0.37024 0.0
C592 C 0.44843 0.76206 0.36927 0.0
H593 H 0.54453 0.68376 0.3705 0.0
H594 H 0.52662 0.77091 0.36952 0.0
C595 C 0.41072 0.72799 0.37074 0.0
C596 C 0.94148 0.66561 0.6208 0.0
C597 C 0.90836 0.70403 0.62017 0.0
H598 H 0.01607 0.64485 0.6192 0.0
C599 C 0.92611 0.7523 0.62122 0.0
H600 H 0.92897 0.62821 0.62004 0.0
C601 C -0.02405 0.762 0.62133 0.0
C602 C 0.00904 0.72361 0.61958 0.0
H603 H 0.90133 0.78277 0.62114 0.0
H604 H -0.01156 0.79942 0.62103 0.0
C605 C -0.0087 0.67532 0.62012 0.0
C606 C -0.00195 0.24722 0.87009 0.0
C607 C 0.94987 0.2643 0.8697 0.0
H608 H 0.04549 0.1853 0.86994 0.0
C609 C 0.91202 0.23041 0.87162 0.0
H610 H 0.02813 0.27259 0.86904 0.0
C611 C 0.92213 0.18045 0.87157 0.0
C612 C -0.02972 0.16335 0.87037 0.0
H613 H 0.87469 0.24237 0.87145 0.0
H614 H 0.89204 0.15505 0.87165 0.0
C615 C 0.00818 0.19728 0.8708 0.0
C616 C 0.47725 0.76263 0.91449 0.0
C617 C 0.5105 0.72436 0.91592 0.0
H618 H 0.40254 0.78312 0.91481 0.0
C619 C 0.49291 0.67602 0.91499 0.0
H620 H 0.4896 0.80009 0.9151 0.0
C621 C 0.44311 0.66612 0.91422 0.0
C622 C 0.40981 0.70439 0.91515 0.0
H623 H 0.51777 0.64562 0.91565 0.0
H624 H 0.43075 0.62866 0.91466 0.0
C625 C 0.42743 0.75273 0.9145 0.0
C626 C 0.41374 0.23155 0.66481 0.0
C627 C 0.45142 0.2657 0.66525 0.0
H628 H 0.39428 0.15615 0.66702 0.0
C629 C 0.49971 0.24893 0.66427 0.0
H630 H 0.37635 0.24328 0.66548 0.0
C631 C 0.51015 0.19904 0.66457 0.0
C632 C 0.47247 0.165 0.66663 0.0
H633 H 0.52962 0.27454 0.6642 0.0
H634 H 0.54753 0.18728 0.66505 0.0
C635 C 0.42419 0.18172 0.66587 0.0
C636 C -0.02079 0.26124 0.4148 0.0
C637 C 0.01237 0.22284 0.41525 0.0
H638 H 0.90462 0.28193 0.41668 0.0
C639 C -0.00535 0.17457 0.41416 0.0
H640 H -0.00831 0.29865 0.41559 0.0
C641 C 0.94482 0.16482 0.41421 0.0
C642 C 0.9117 0.20317 0.41614 0.0
H643 H 0.01946 0.14411 0.41411 0.0
H644 H 0.93236 0.12739 0.41447 0.0
C645 C 0.9294 0.25148 0.41563 0.0
C646 C 0.92383 0.67975 0.16488 0.0
C647 C -0.028 0.66266 0.16549 0.0
H648 H 0.87641 0.74169 0.16517 0.0
C649 C 0.00988 0.69655 0.16409 0.0
H650 H 0.89374 0.65437 0.16553 0.0
C651 C -0.00022 0.74651 0.16447 0.0
C652 C 0.95162 0.76361 0.16546 0.0
H653 H 0.0472 0.68458 0.16446 0.0
H654 H 0.02988 0.7719 0.1648 0.0
C655 C 0.91372 0.7297 0.16448 0.0
C656 C 0.15675 0.28423 0.16813 0.0
C657 C 0.15608 0.25147 0.1396 0.0
H658 H 0.13746 0.35536 0.1863 0.0
C659 C 0.12399 0.25913 0.11164 0.0
H660 H 0.18088 0.27849 0.19018 0.0
C661 C 0.09945 0.3033 0.10934 0.0
C662 C 0.10647 0.33936 0.13522 0.0
H663 H 0.1227 0.23416 0.08951 0.0
H664 H 0.07996 0.31161 0.08531 0.0
C665 C 0.13155 0.328 0.16612 0.0
C666 C 0.34763 0.3795 0.4162 0.0
C667 C 0.33518 0.3562 0.38468 0.0
H668 H 0.39856 0.42684 0.44126 0.0
C669 C 0.37048 0.34975 0.35833 0.0
H670 H 0.3209 0.38485 0.43678 0.0
C671 C 0.41506 0.37345 0.36096 0.0
C672 C 0.42391 0.40412 0.38974 0.0
H673 H 0.36136 0.33152 0.33384 0.0
H674 H 0.43942 0.37297 0.33855 0.0
C675 C 0.39189 0.40381 0.41859 0.0
C676 C 0.29686 0.6675 0.61128 0.0
C677 C 0.26478 0.67521 0.63929 0.0
H678 H 0.34108 0.61502 0.58496 0.0
C679 C 0.26433 0.6427 0.66789 0.0
H680 H 0.29795 0.69229 0.58909 0.0
C681 C 0.28974 0.59905 0.66593 0.0
C682 C 0.31479 0.58755 0.635 0.0
H683 H 0.24018 0.64848 0.68996 0.0
H684 H 0.284 0.57182 0.68618 0.0
C685 C 0.32161 0.62344 0.60903 0.0
C686 C 0.03029 0.52086 0.91816 0.0
C687 C -0.00153 0.52093 0.88923 0.0
H688 H 0.10116 0.53944 0.93672 0.0
C689 C 0.00773 0.55171 0.86064 0.0
H690 H 0.02332 0.4977 0.94066 0.0
C691 C 0.05244 0.57527 0.85831 0.0
C692 C 0.08745 0.5686 0.88477 0.0
H693 H -0.01644 0.55243 0.83816 0.0
H694 H 0.06187 0.5936 0.83395 0.0
C695 C 0.07464 0.54506 0.91609 0.0
C696 C 0.79817 0.66777 0.92411 0.0
C697 C 0.76604 0.67551 0.8962 0.0
H698 H 0.84231 0.61525 0.9503 0.0
C699 C 0.76537 0.64287 0.8676 0.0
H700 H 0.79946 0.69266 0.94629 0.0
C701 C 0.79062 0.59912 0.86949 0.0
C702 C 0.81576 0.58766 0.90035 0.0
H703 H 0.74121 0.64867 0.84558 0.0
H704 H 0.78472 0.57183 0.84926 0.0
C705 C 0.82277 0.62363 0.9263 0.0
C706 C 0.57317 0.54778 0.6191 0.0
C707 C 0.58556 0.57094 0.6507 0.0
H708 H 0.52229 0.50055 0.59389 0.0
C709 C 0.5502 0.5773 0.67701 0.0
H710 H 0.59995 0.54252 0.59855 0.0
C711 C 0.50562 0.55363 0.67428 0.0
C712 C 0.49684 0.52307 0.64543 0.0
H713 H 0.55927 0.59545 0.70154 0.0
H714 H 0.48122 0.55403 0.69666 0.0
C715 C 0.52892 0.52349 0.61661 0.0
C716 C 0.62425 0.2597 0.42438 0.0
C717 C 0.65612 0.25155 0.39632 0.0
H718 H 0.58051 0.31271 0.45059 0.0
C719 C 0.65657 0.28377 0.36754 0.0
H720 H 0.62318 0.23515 0.44672 0.0
C721 C 0.63143 0.32759 0.36937 0.0
C722 C 0.60663 0.33952 0.40032 0.0
H723 H 0.68056 0.27764 0.34544 0.0
H724 H 0.63722 0.35461 0.34898 0.0
C725 C 0.59976 0.30393 0.42649 0.0
C726 C 0.84729 0.38176 0.11907 0.0
C727 C 0.83469 0.35817 0.15041 0.0
H728 H 0.89841 0.42918 0.09435 0.0
C729 C 0.86986 0.3515 0.17676 0.0
H730 H 0.82063 0.38735 0.09853 0.0
C731 C 0.91453 0.3751 0.1743 0.0
C732 C 0.9236 0.40592 0.1457 0.0
H733 H 0.86059 0.33313 0.20113 0.0
H734 H 0.93883 0.37435 0.19671 0.0
C735 C 0.89161 0.40599 0.11686 0.0
C736 C 0.61969 0.75931 0.61224 0.0
C737 C 0.6523 0.75257 0.64 0.0
H738 H 0.57403 0.81047 0.58602 0.0
C739 C 0.65276 0.78568 0.66832 0.0
H740 H 0.61852 0.73402 0.5903 0.0
C741 C 0.6266 0.82888 0.66628 0.0
C742 C 0.60078 0.83942 0.63553 0.0
H743 H 0.67724 0.78063 0.69026 0.0
H744 H 0.63215 0.85649 0.68633 0.0
C745 C 0.59418 0.80292 0.6099 0.0
C746 C 0.84624 0.88197 0.91757 0.0
C747 C 0.8339 0.85778 0.88637 0.0
H748 H 0.89689 0.93021 0.94199 0.0
C749 C 0.86922 0.85092 0.86009 0.0
H750 H 0.81947 0.8877 0.93806 0.0
C751 C 0.91368 0.87494 0.8624 0.0
C752 C 0.9224 0.90634 0.89078 0.0
H753 H 0.86016 0.83208 0.83583 0.0
H754 H 0.93807 0.87399 0.84001 0.0
C755 C 0.89034 0.90661 0.91962 0.0
C756 C 0.82461 0.12303 0.10988 0.0
C757 C 0.81791 0.08728 0.13597 0.0
H758 H 0.8011 0.19191 0.08992 0.0
C759 C 0.79329 0.09907 0.16703 0.0
H760 H 0.84377 0.11439 0.08572 0.0
C761 C 0.76816 0.1429 0.16906 0.0
C762 C 0.76843 0.17528 0.14037 0.0
H763 H 0.78764 0.07196 0.18738 0.0
H764 H 0.74432 0.1489 0.19128 0.0
C765 C 0.80013 0.16725 0.11219 0.0
C766 C 0.53765 0.01151 0.41523 0.0
C767 C 0.50352 0.01541 0.38786 0.0
H768 H 0.6083 0.03076 0.43346 0.0
C769 C 0.50972 0.05106 0.3619 0.0
H770 H 0.53377 -0.01603 0.43545 0.0
C771 C 0.5533 0.07689 0.36029 0.0
C772 C 0.58999 0.06795 0.38512 0.0
H773 H 0.48385 0.05469 0.34061 0.0
H774 H 0.56051 0.09948 0.33745 0.0
C775 C 0.58029 0.03851 0.41429 0.0
C776 C 0.30078 0.1676 0.42366 0.0
C777 C 0.26853 0.17447 0.39569 0.0
H778 H 0.34592 0.11625 0.45016 0.0
C779 C 0.2683 0.14138 0.36736 0.0
H780 H 0.30177 0.19287 0.44562 0.0
C781 C 0.29426 0.09808 0.36956 0.0
C782 C 0.31966 0.08743 0.40047 0.0
H783 H 0.24408 0.14653 0.34527 0.0
H784 H 0.28885 0.0705 0.34947 0.0
C785 C 0.32609 0.12389 0.42616 0.0
C786 C 0.03163 0.0205 0.11684 0.0
C787 C -0.00023 0.02064 0.14579 0.0
H788 H 0.10234 0.03954 0.09816 0.0
C789 C 0.00865 0.05196 0.17419 0.0
H790 H 0.02494 -0.00304 0.09446 0.0
C791 C 0.0531 0.07603 0.17638 0.0
C792 C 0.08825 0.06929 0.14996 0.0
H793 H -0.01559 0.0528 0.19667 0.0
H794 H 0.06229 0.09479 0.20064 0.0
C795 C 0.07572 0.0452 0.11876 0.0
C796 C 0.09845 0.80433 0.92596 0.0
C797 C 0.10505 0.83992 0.89975 0.0
H798 H 0.12171 0.73535 0.94588 0.0
C799 C 0.12909 0.82782 0.86851 0.0
H800 H 0.07976 0.81324 0.95027 0.0
C801 C 0.15381 0.78377 0.86636 0.0
C802 C 0.15372 0.7515 0.89513 0.0
H803 H 0.13467 0.85482 0.84808 0.0
H804 H 0.17729 0.77749 0.84399 0.0
C805 C 0.12251 0.75989 0.92354 0.0
C806 C 0.36743 0.84985 0.6757 0.0
C807 C 0.33071 0.85891 0.65089 0.0
H808 H 0.43678 0.87209 0.69552 0.0
C809 C 0.34031 0.88874 0.62192 0.0
H810 H 0.36028 0.82697 0.69839 0.0
C811 C 0.38282 0.91595 0.62117 0.0
C812 C 0.41697 0.91184 0.64851 0.0
H813 H 0.31226 0.89658 0.60279 0.0
H814 H 0.38659 0.94374 0.60113 0.0
C815 C 0.4109 0.87588 0.67425 0.0
loop_
_geom_bond_atom_site_label_1
_geom_bond_atom_site_label_2
_geom_bond_distance
_geom_bond_site_symmetry_2
_ccdc_geom_bond_type
O0 Mg1 1.990 . S
O0 C14 1.253 . S
Mg1 O0 1.990 . S
Mg1 O4 2.180 . S
Mg1 O5 2.117 . S
Mg1 O19 2.030 . S
O2 Mg3 2.072 . S
O2 C14 1.260 . S
Mg3 O2 2.072 . S
Mg3 O4 2.099 . S
Mg3 O6 2.079 . S
Mg3 O7 2.072 . S
Mg3 O9 2.099 . S
Mg3 O20 2.079 . S
O4 Mg1 2.180 . S
O4 Mg3 2.099 . S
O4 C15 1.279 . S
O5 Mg1 2.117 . S
O5 C15 1.250 . S
O6 Mg3 2.079 . S
O6 C16 1.264 . S
O7 Mg3 2.072 . S
O7 C17 1.260 . S
Mg8 O9 2.180 . S
Mg8 O10 2.030 . S
Mg8 O11 1.990 . S
Mg8 O12 2.117 . S
O9 Mg3 2.099 . S
O9 Mg8 2.180 . S
O9 C18 1.279 . S
O10 Mg8 2.030 . S
O10 C16 1.248 . S
O11 Mg8 1.990 . S
O11 C17 1.253 . S
O12 Mg8 2.117 . S
O12 C18 1.250 . S
C13 O19 1.248 . S
C13 O20 1.264 . S
C14 O0 1.253 . S
C14 O2 1.260 . S
C15 O4 1.279 . S
C15 O5 1.250 . S
C16 O6 1.264 . S
C16 O10 1.248 . S
C17 O7 1.260 . S
C17 O11 1.253 . S
C18 O9 1.279 . S
C18 O12 1.250 . S
O19 Mg1 2.030 . S
O19 C13 1.248 . S
O20 Mg3 2.079 . S
O20 C13 1.264 . S
O21 Mg22 1.990 . S
O21 C35 1.253 . S
Mg22 O21 1.990 . S
Mg22 O25 2.180 . S
Mg22 O26 2.117 . S
Mg22 O40 2.030 . S
O23 Mg24 2.072 . S
O23 C35 1.260 . S
Mg24 O23 2.072 . S
Mg24 O25 2.099 . S
Mg24 O27 2.079 . S
Mg24 O28 2.072 . S
Mg24 O30 2.099 . S
Mg24 O41 2.079 . S
O25 Mg22 2.180 . S
O25 Mg24 2.099 . S
O25 C36 1.279 . S
O26 Mg22 2.117 . S
O26 C36 1.250 . S
O27 Mg24 2.079 . S
O27 C37 1.264 . S
O28 Mg24 2.072 . S
O28 C38 1.260 . S
Mg29 O30 2.180 . S
Mg29 O31 2.030 . S
Mg29 O32 1.990 . S
Mg29 O33 2.117 . S
O30 Mg24 2.099 . S
O30 Mg29 2.180 . S
O30 C39 1.279 . S
O31 Mg29 2.030 . S
O31 C37 1.248 . S
O32 Mg29 1.990 . S
O32 C38 1.253 . S
O33 Mg29 2.117 . S
O33 C39 1.250 . S
C34 O40 1.248 . S
C34 O41 1.264 . S
C35 O21 1.253 . S
C35 O23 1.260 . S
C36 O25 1.279 . S
C36 O26 1.250 . S
C37 O27 1.264 . S
C37 O31 1.248 . S
C38 O28 1.260 . S
C38 O32 1.253 . S
C39 O30 1.279 . S
C39 O33 1.250 . S
O40 Mg22 2.030 . S
O40 C34 1.248 . S
O41 Mg24 2.079 . S
O41 C34 1.264 . S
O42 Mg43 1.990 . S
O42 C56 1.253 . S
Mg43 O42 1.990 . S
Mg43 O46 2.180 . S
Mg43 O47 2.117 . S
Mg43 O61 2.030 . S
O44 Mg45 2.072 . S
O44 C56 1.260 . S
Mg45 O44 2.072 . S
Mg45 O46 2.099 . S
Mg45 O48 2.079 . S
Mg45 O49 2.072 . S
Mg45 O51 2.099 . S
Mg45 O62 2.079 . S
O46 Mg43 2.180 . S
O46 Mg45 2.099 . S
O46 C57 1.279 . S
O47 Mg43 2.117 . S
O47 C57 1.250 . S
O48 Mg45 2.079 . S
O48 C58 1.264 . S
O49 Mg45 2.072 . S
O49 C59 1.260 . S
Mg50 O51 2.180 . S
Mg50 O52 2.030 . S
Mg50 O53 1.990 . S
Mg50 O54 2.117 . S
O51 Mg45 2.099 . S
O51 Mg50 2.180 . S
O51 C60 1.279 . S
O52 Mg50 2.030 . S
O52 C58 1.248 . S
O53 Mg50 1.990 . S
O53 C59 1.253 . S
O54 Mg50 2.117 . S
O54 C60 1.250 . S
C55 O61 1.248 . S
C55 O62 1.264 . S
C56 O42 1.253 . S
C56 O44 1.260 . S
C57 O46 1.279 . S
C57 O47 1.250 . S
C58 O48 1.264 . S
C58 O52 1.248 . S
C59 O49 1.260 . S
C59 O53 1.253 . S
C60 O51 1.279 . S
C60 O54 1.250 . S
O61 Mg43 2.030 . S
O61 C55 1.248 . S
O62 Mg45 2.079 . S
O62 C55 1.264 . S
O63 Mg64 1.990 . S
O63 C77 1.253 . S
Mg64 O63 1.990 . S
Mg64 O67 2.180 . S
Mg64 O68 2.117 . S
Mg64 O82 2.030 1_655 S
O65 Mg66 2.072 . S
O65 C77 1.260 . S
Mg66 O65 2.072 . S
Mg66 O67 2.099 . S
Mg66 O69 2.079 . S
Mg66 O70 2.072 . S
Mg66 O72 2.099 . S
Mg66 O83 2.079 . S
O67 Mg64 2.180 . S
O67 Mg66 2.099 . S
O67 C78 1.279 . S
O68 Mg64 2.117 . S
O68 C78 1.250 . S
O69 Mg66 2.079 . S
O69 C79 1.264 . S
O70 Mg66 2.072 . S
O70 C80 1.260 . S
Mg71 O72 2.180 . S
Mg71 O73 2.030 . S
Mg71 O74 1.990 . S
Mg71 O75 2.117 . S
O72 Mg66 2.099 . S
O72 Mg71 2.180 . S
O72 C81 1.279 . S
O73 Mg71 2.030 . S
O73 C79 1.248 . S
O74 Mg71 1.990 . S
O74 C80 1.253 . S
O75 Mg71 2.117 . S
O75 C81 1.250 . S
C76 O82 1.248 . S
C76 O83 1.264 1_455 S
C77 O63 1.253 . S
C77 O65 1.260 . S
C78 O67 1.279 . S
C78 O68 1.250 . S
C79 O69 1.264 . S
C79 O73 1.248 . S
C80 O70 1.260 . S
C80 O74 1.253 . S
C81 O72 1.279 . S
C81 O75 1.250 . S
O82 Mg64 2.030 1_455 S
O82 C76 1.248 . S
O83 Mg66 2.079 . S
O83 C76 1.264 1_655 S
O84 Mg85 1.990 . S
O84 C98 1.253 . S
Mg85 O84 1.990 . S
Mg85 O88 2.180 . S
Mg85 O89 2.117 . S
Mg85 O103 2.030 . S
O86 Mg87 2.072 . S
O86 C98 1.260 . S
Mg87 O86 2.072 . S
Mg87 O88 2.099 . S
Mg87 O90 2.079 . S
Mg87 O91 2.072 . S
Mg87 O93 2.099 . S
Mg87 O104 2.079 . S
O88 Mg85 2.180 . S
O88 Mg87 2.099 . S
O88 C99 1.279 . S
O89 Mg85 2.117 . S
O89 C99 1.250 . S
O90 Mg87 2.079 . S
O90 C100 1.264 . S
O91 Mg87 2.072 . S
O91 C101 1.260 . S
Mg92 O93 2.180 . S
Mg92 O94 2.030 . S
Mg92 O95 1.990 . S
Mg92 O96 2.117 . S
O93 Mg87 2.099 . S
O93 Mg92 2.180 . S
O93 C102 1.279 . S
O94 Mg92 2.030 . S
O94 C100 1.248 . S
O95 Mg92 1.990 . S
O95 C101 1.253 . S
O96 Mg92 2.117 . S
O96 C102 1.250 . S
C97 O103 1.248 . S
C97 O104 1.264 . S
C98 O84 1.253 . S
C98 O86 1.260 . S
C99 O88 1.279 . S
C99 O89 1.250 . S
C100 O90 1.264 . S
C100 O94 1.248 . S
C101 O91 1.260 . S
C101 O95 1.253 . S
C102 O93 1.279 . S
C102 O96 1.250 . S
O103 Mg85 2.030 . S
O103 C97 1.248 . S
O104 Mg87 2.079 . S
O104 C97 1.264 . S
O105 Mg106 1.990 . S
O105 C119 1.253 . S
Mg106 O105 1.990 . S
Mg106 O109 2.180 . S
Mg106 O110 2.117 . S
Mg106 O124 2.030 . S
O107 Mg108 2.072 . S
O107 C119 1.260 . S
Mg108 O107 2.072 . S
Mg108 O109 2.099 . S
Mg108 O111 2.079 . S
Mg108 O112 2.072 . S
Mg108 O114 2.099 . S
Mg108 O125 2.079 . S
O109 Mg106 2.180 . S
O109 Mg108 2.099 . S
O109 C120 1.279 . S
O110 Mg106 2.117 . S
O110 C120 1.250 . S
O111 Mg108 2.079 . S
O111 C121 1.264 . S
O112 Mg108 2.072 . S
O112 C122 1.260 . S
Mg113 O114 2.180 . S
Mg113 O115 2.030 . S
Mg113 O116 1.990 . S
Mg113 O117 2.117 . S
O114 Mg108 2.099 . S
O114 Mg113 2.180 . S
O114 C123 1.279 . S
O115 Mg113 2.030 . S
O115 C121 1.248 . S
O116 Mg113 1.990 . S
O116 C122 1.253 . S
O117 Mg113 2.117 . S
O117 C123 1.250 . S
C118 O124 1.248 . S
C118 O125 1.264 . S
C119 O105 1.253 . S
C119 O107 1.260 . S
C120 O109 1.279 . S
C120 O110 1.250 . S
C121 O111 1.264 . S
C121 O115 1.248 . S
C122 O112 1.260 . S
C122 O116 1.253 . S
C123 O114 1.279 . S
C123 O117 1.250 . S
O124 Mg106 2.030 . S
O124 C118 1.248 . S
O125 Mg108 2.079 . S
O125 C118 1.264 . S
O126 Mg127 1.990 . S
O126 C140 1.253 . S
Mg127 O126 1.990 . S
Mg127 O130 2.180 . S
Mg127 O131 2.117 . S
Mg127 O145 2.030 . S
O128 Mg129 2.072 . S
O128 C140 1.260 . S
Mg129 O128 2.072 . S
Mg129 O130 2.099 . S
Mg129 O132 2.079 . S
Mg129 O133 2.072 . S
Mg129 O135 2.099 . S
Mg129 O146 2.079 . S
O130 Mg127 2.180 . S
O130 Mg129 2.099 . S
O130 C141 1.279 . S
O131 Mg127 2.117 . S
O131 C141 1.250 . S
O132 Mg129 2.079 . S
O132 C142 1.264 . S
O133 Mg129 2.072 . S
O133 C143 1.260 . S
Mg134 O135 2.180 . S
Mg134 O136 2.030 . S
Mg134 O137 1.990 . S
Mg134 O138 2.117 . S
O135 Mg129 2.099 . S
O135 Mg134 2.180 . S
O135 C144 1.279 . S
O136 Mg134 2.030 . S
O136 C142 1.248 . S
O137 Mg134 1.990 . S
O137 C143 1.253 . S
O138 Mg134 2.117 . S
O138 C144 1.250 . S
C139 O145 1.248 . S
C139 O146 1.264 . S
C140 O126 1.253 . S
C140 O128 1.260 . S
C141 O130 1.279 . S
C141 O131 1.250 . S
C142 O132 1.264 . S
C142 O136 1.248 . S
C143 O133 1.260 . S
C143 O137 1.253 . S
C144 O135 1.279 . S
C144 O138 1.250 . S
O145 Mg127 2.030 . S
O145 C139 1.248 . S
O146 Mg129 2.079 . S
O146 C139 1.264 . S
O147 Mg148 1.990 . S
O147 C161 1.253 . S
Mg148 O147 1.990 . S
Mg148 O151 2.180 . S
Mg148 O152 2.117 . S
Mg148 O166 2.030 1_455 S
O149 Mg150 2.072 . S
O149 C161 1.260 . S
Mg150 O149 2.072 . S
Mg150 O151 2.099 . S
Mg150 O153 2.079 . S
Mg150 O154 2.072 . S
Mg150 O156 2.099 . S
Mg150 O167 2.079 . S
O151 Mg148 2.180 . S
O151 Mg150 2.099 . S
O151 C162 1.279 . S
O152 Mg148 2.117 . S
O152 C162 1.250 . S
O153 Mg150 2.079 . S
O153 C163 1.264 . S
O154 Mg150 2.072 . S
O154 C164 1.260 . S
Mg155 O156 2.180 . S
Mg155 O157 2.030 . S
Mg155 O158 1.990 . S
Mg155 O159 2.117 . S
O156 Mg150 2.099 . S
O156 Mg155 2.180 . S
O156 C165 1.279 . S
O157 Mg155 2.030 . S
O157 C163 1.248 . S
O158 Mg155 1.990 . S
O158 C164 1.253 . S
O159 Mg155 2.117 . S
O159 C165 1.250 . S
C160 O166 1.248 . S
C160 O167 1.264 1_655 S
C161 O147 1.253 . S
C161 O149 1.260 . S
C162 O151 1.279 . S
C162 O152 1.250 . S
C163 O153 1.264 . S
C163 O157 1.248 . S
C164 O154 1.260 . S
C164 O158 1.253 . S
C165 O156 1.279 . S
C165 O159 1.250 . S
O166 Mg148 2.030 1_655 S
O166 C160 1.248 . S
O167 Mg150 2.079 . S
O167 C160 1.264 1_455 S
O168 Mg169 1.990 . S
O168 C182 1.253 . S
Mg169 O168 1.990 . S
Mg169 O172 2.180 . S
Mg169 O173 2.117 . S
Mg169 O187 2.030 . S
O170 Mg171 2.072 . S
O170 C182 1.260 . S
Mg171 O170 2.072 . S
Mg171 O172 2.099 . S
Mg171 O174 2.079 . S
Mg171 O175 2.072 . S
Mg171 O177 2.099 . S
Mg171 O188 2.079 . S
O172 Mg169 2.180 . S
O172 Mg171 2.099 . S
O172 C183 1.279 . S
O173 Mg169 2.117 . S
O173 C183 1.250 . S
O174 Mg171 2.079 . S
O174 C184 1.264 . S
O175 Mg171 2.072 . S
O175 C185 1.260 . S
Mg176 O177 2.180 . S
Mg176 O178 2.030 . S
Mg176 O179 1.990 . S
Mg176 O180 2.117 . S
O177 Mg171 2.099 . S
O177 Mg176 2.180 . S
O177 C186 1.279 . S
O178 Mg176 2.030 . S
O178 C184 1.248 . S
O179 Mg176 1.990 . S
O179 C185 1.253 . S
O180 Mg176 2.117 . S
O180 C186 1.250 . S
C181 O187 1.248 . S
C181 O188 1.264 . S
C182 O168 1.253 . S
C182 O170 1.260 . S
C183 O172 1.279 . S
C183 O173 1.250 . S
C184 O174 1.264 . S
C184 O178 1.248 . S
C185 O175 1.260 . S
C185 O179 1.253 . S
C186 O177 1.279 . S
C186 O180 1.250 . S
O187 Mg169 2.030 . S
O187 C181 1.248 . S
O188 Mg171 2.079 . S
O188 C181 1.264 . S
O189 Mg190 1.990 1_545 S
O189 C203 1.253 . S
Mg190 O189 1.990 1_565 S
Mg190 O193 2.180 . S
Mg190 O194 2.117 . S
Mg190 O208 2.030 1_565 S
O191 Mg192 2.072 . S
O191 C203 1.260 . S
Mg192 O191 2.072 . S
Mg192 O193 2.099 1_545 S
Mg192 O195 2.079 1_545 S
Mg192 O196 2.072 . S
Mg192 O198 2.099 . S
Mg192 O209 2.079 . S
O193 Mg190 2.180 . S
O193 Mg192 2.099 1_565 S
O193 C204 1.279 . S
O194 Mg190 2.117 . S
O194 C204 1.250 . S
O195 Mg192 2.079 1_565 S
O195 C205 1.264 1_455 S
O196 Mg192 2.072 . S
O196 C206 1.260 . S
Mg197 O198 2.180 . S
Mg197 O199 2.030 1_455 S
Mg197 O200 1.990 . S
Mg197 O201 2.117 . S
O198 Mg192 2.099 . S
O198 Mg197 2.180 . S
O198 C207 1.279 . S
O199 Mg197 2.030 1_655 S
O199 C205 1.248 1_545 S
O200 Mg197 1.990 . S
O200 C206 1.253 . S
O201 Mg197 2.117 . S
O201 C207 1.250 . S
C202 O208 1.248 . S
C202 O209 1.264 . S
C203 O189 1.253 . S
C203 O191 1.260 . S
C204 O193 1.279 . S
C204 O194 1.250 . S
C205 O195 1.264 1_655 S
C205 O199 1.248 1_565 S
C206 O196 1.260 . S
C206 O200 1.253 . S
C207 O198 1.279 . S
C207 O201 1.250 . S
O208 Mg190 2.030 1_545 S
O208 C202 1.248 . S
O209 Mg192 2.079 . S
O209 C202 1.264 . S
O210 Mg211 1.990 . S
O210 C224 1.253 . S
Mg211 O210 1.990 . S
Mg211 O214 2.180 . S
Mg211 O215 2.117 . S
Mg211 O229 2.030 . S
O212 Mg213 2.072 . S
O212 C224 1.260 . S
Mg213 O212 2.072 . S
Mg213 O214 2.099 . S
Mg213 O216 2.079 . S
Mg213 O217 2.072 . S
Mg213 O219 2.099 . S
Mg213 O230 2.079 . S
O214 Mg211 2.180 . S
O214 Mg213 2.099 . S
O214 C225 1.279 . S
O215 Mg211 2.117 . S
O215 C225 1.250 . S
O216 Mg213 2.079 . S
O216 C226 1.264 . S
O217 Mg213 2.072 . S
O217 C227 1.260 . S
Mg218 O219 2.180 . S
Mg218 O220 2.030 . S
Mg218 O221 1.990 . S
Mg218 O222 2.117 . S
O219 Mg213 2.099 . S
O219 Mg218 2.180 . S
O219 C228 1.279 . S
O220 Mg218 2.030 . S
O220 C226 1.248 . S
O221 Mg218 1.990 . S
O221 C227 1.253 . S
O222 Mg218 2.117 . S
O222 C228 1.250 . S
C223 O229 1.248 . S
C223 O230 1.264 . S
C224 O210 1.253 . S
C224 O212 1.260 . S
C225 O214 1.279 . S
C225 O215 1.250 . S
C226 O216 1.264 . S
C226 O220 1.248 . S
C227 O217 1.260 . S
C227 O221 1.253 . S
C228 O219 1.279 . S
C228 O222 1.250 . S
O229 Mg211 2.030 . S
O229 C223 1.248 . S
O230 Mg213 2.079 . S
O230 C223 1.264 . S
O231 Mg232 1.990 . S
O231 C245 1.253 . S
Mg232 O231 1.990 . S
Mg232 O235 2.180 . S
Mg232 O236 2.117 . S
Mg232 O250 2.030 . S
O233 Mg234 2.072 . S
O233 C245 1.260 . S
Mg234 O233 2.072 . S
Mg234 O235 2.099 . S
Mg234 O237 2.079 . S
Mg234 O238 2.072 . S
Mg234 O240 2.099 1_565 S
Mg234 O251 2.079 1_565 S
O235 Mg232 2.180 . S
O235 Mg234 2.099 . S
O235 C246 1.279 . S
O236 Mg232 2.117 . S
O236 C246 1.250 . S
O237 Mg234 2.079 . S
O237 C247 1.264 . S
O238 Mg234 2.072 . S
O238 C248 1.260 . S
Mg239 O240 2.180 . S
Mg239 O241 2.030 1_545 S
Mg239 O242 1.990 1_545 S
Mg239 O243 2.117 . S
O240 Mg234 2.099 1_545 S
O240 Mg239 2.180 . S
O240 C249 1.279 . S
O241 Mg239 2.030 1_565 S
O241 C247 1.248 . S
O242 Mg239 1.990 1_565 S
O242 C248 1.253 . S
O243 Mg239 2.117 . S
O243 C249 1.250 . S
C244 O250 1.248 1_545 S
C244 O251 1.264 . S
C245 O231 1.253 . S
C245 O233 1.260 . S
C246 O235 1.279 . S
C246 O236 1.250 . S
C247 O237 1.264 . S
C247 O241 1.248 . S
C248 O238 1.260 . S
C248 O242 1.253 . S
C249 O240 1.279 . S
C249 O243 1.250 . S
O250 Mg232 2.030 . S
O250 C244 1.248 1_565 S
O251 Mg234 2.079 1_545 S
O251 C244 1.264 . S
O252 Mg253 1.990 . S
O252 C266 1.253 . S
Mg253 O252 1.990 . S
Mg253 O256 2.180 . S
Mg253 O257 2.117 . S
Mg253 O271 2.030 . S
O254 Mg255 2.072 . S
O254 C266 1.260 . S
Mg255 O254 2.072 . S
Mg255 O256 2.099 . S
Mg255 O258 2.079 . S
Mg255 O259 2.072 . S
Mg255 O261 2.099 . S
Mg255 O272 2.079 . S
O256 Mg253 2.180 . S
O256 Mg255 2.099 . S
O256 C267 1.279 . S
O257 Mg253 2.117 . S
O257 C267 1.250 . S
O258 Mg255 2.079 . S
O258 C268 1.264 . S
O259 Mg255 2.072 . S
O259 C269 1.260 . S
Mg260 O261 2.180 . S
Mg260 O262 2.030 . S
Mg260 O263 1.990 . S
Mg260 O264 2.117 . S
O261 Mg255 2.099 . S
O261 Mg260 2.180 . S
O261 C270 1.279 . S
O262 Mg260 2.030 . S
O262 C268 1.248 . S
O263 Mg260 1.990 . S
O263 C269 1.253 . S
O264 Mg260 2.117 . S
O264 C270 1.250 . S
C265 O271 1.248 . S
C265 O272 1.264 . S
C266 O252 1.253 . S
C266 O254 1.260 . S
C267 O256 1.279 . S
C267 O257 1.250 . S
C268 O258 1.264 . S
C268 O262 1.248 . S
C269 O259 1.260 . S
C269 O263 1.253 . S
C270 O261 1.279 . S
C270 O264 1.250 . S
O271 Mg253 2.030 . S
O271 C265 1.248 . S
O272 Mg255 2.079 . S
O272 C265 1.264 . S
O273 Mg274 1.990 . S
O273 C287 1.253 . S
Mg274 O273 1.990 . S
Mg274 O277 2.180 . S
Mg274 O278 2.117 . S
Mg274 O292 2.030 1_655 S
O275 Mg276 2.072 . S
O275 C287 1.260 . S
Mg276 O275 2.072 . S
Mg276 O277 2.099 . S
Mg276 O279 2.079 . S
Mg276 O280 2.072 . S
Mg276 O282 2.099 1_565 S
Mg276 O293 2.079 1_565 S
O277 Mg274 2.180 . S
O277 Mg276 2.099 . S
O277 C288 1.279 . S
O278 Mg274 2.117 . S
O278 C288 1.250 . S
O279 Mg276 2.079 . S
O279 C289 1.264 . S
O280 Mg276 2.072 . S
O280 C290 1.260 . S
Mg281 O282 2.180 . S
Mg281 O283 2.030 1_545 S
Mg281 O284 1.990 1_545 S
Mg281 O285 2.117 . S
O282 Mg276 2.099 1_545 S
O282 Mg281 2.180 . S
O282 C291 1.279 . S
O283 Mg281 2.030 1_565 S
O283 C289 1.248 . S
O284 Mg281 1.990 1_565 S
O284 C290 1.253 . S
O285 Mg281 2.117 . S
O285 C291 1.250 . S
C286 O292 1.248 1_545 S
C286 O293 1.264 1_455 S
C287 O273 1.253 . S
C287 O275 1.260 . S
C288 O277 1.279 . S
C288 O278 1.250 . S
C289 O279 1.264 . S
C289 O283 1.248 . S
C290 O280 1.260 . S
C290 O284 1.253 . S
C291 O282 1.279 . S
C291 O285 1.250 . S
O292 Mg274 2.030 1_455 S
O292 C286 1.248 1_565 S
O293 Mg276 2.079 1_545 S
O293 C286 1.264 1_655 S
O294 Mg295 1.990 . S
O294 C308 1.253 . S
Mg295 O294 1.990 . S
Mg295 O298 2.180 . S
Mg295 O299 2.117 . S
Mg295 O313 2.030 . S
O296 Mg297 2.072 . S
O296 C308 1.260 . S
Mg297 O296 2.072 . S
Mg297 O298 2.099 . S
Mg297 O300 2.079 . S
Mg297 O301 2.072 . S
Mg297 O303 2.099 . S
Mg297 O314 2.079 . S
O298 Mg295 2.180 . S
O298 Mg297 2.099 . S
O298 C309 1.279 . S
O299 Mg295 2.117 . S
O299 C309 1.250 . S
O300 Mg297 2.079 . S
O300 C310 1.264 . S
O301 Mg297 2.072 . S
O301 C311 1.260 . S
Mg302 O303 2.180 . S
Mg302 O304 2.030 . S
Mg302 O305 1.990 . S
Mg302 O306 2.117 . S
O303 Mg297 2.099 . S
O303 Mg302 2.180 . S
O303 C312 1.279 . S
O304 Mg302 2.030 . S
O304 C310 1.248 . S
O305 Mg302 1.990 . S
O305 C311 1.253 . S
O306 Mg302 2.117 . S
O306 C312 1.250 . S
C307 O313 1.248 . S
C307 O314 1.264 . S
C308 O294 1.253 . S
C308 O296 1.260 . S
C309 O298 1.279 . S
C309 O299 1.250 . S
C310 O300 1.264 . S
C310 O304 1.248 . S
C311 O301 1.260 . S
C311 O305 1.253 . S
C312 O303 1.279 . S
C312 O306 1.250 . S
O313 Mg295 2.030 . S
O313 C307 1.248 . S
O314 Mg297 2.079 . S
O314 C307 1.264 . S
O315 Mg316 1.990 . S
O315 C329 1.253 . S
Mg316 O315 1.990 . S
Mg316 O319 2.180 . S
Mg316 O320 2.117 . S
Mg316 O334 2.030 . S
O317 Mg318 2.072 . S
O317 C329 1.260 . S
Mg318 O317 2.072 . S
Mg318 O319 2.099 . S
Mg318 O321 2.079 . S
Mg318 O322 2.072 . S
Mg318 O324 2.099 1_545 S
Mg318 O335 2.079 1_545 S
O319 Mg316 2.180 . S
O319 Mg318 2.099 . S
O319 C330 1.279 . S
O320 Mg316 2.117 . S
O320 C330 1.250 . S
O321 Mg318 2.079 . S
O321 C331 1.264 . S
O322 Mg318 2.072 . S
O322 C332 1.260 . S
Mg323 O324 2.180 . S
Mg323 O325 2.030 1_565 S
Mg323 O326 1.990 1_565 S
Mg323 O327 2.117 . S
O324 Mg318 2.099 1_565 S
O324 Mg323 2.180 . S
O324 C333 1.279 . S
O325 Mg323 2.030 1_545 S
O325 C331 1.248 . S
O326 Mg323 1.990 1_545 S
O326 C332 1.253 . S
O327 Mg323 2.117 . S
O327 C333 1.250 . S
C328 O334 1.248 1_565 S
C328 O335 1.264 . S
C329 O315 1.253 . S
C329 O317 1.260 . S
C330 O319 1.279 . S
C330 O320 1.250 . S
C331 O321 1.264 . S
C331 O325 1.248 . S
C332 O322 1.260 . S
C332 O326 1.253 . S
C333 O324 1.279 . S
C333 O327 1.250 . S
O334 Mg316 2.030 . S
O334 C328 1.248 1_545 S
O335 Mg318 2.079 1_565 S
O335 C328 1.264 . S
C336 C337 1.387 . S
C336 H340 0.950 . S
C336 C345 1.390 . S
C337 C336 1.387 . S
C337 C339 1.387 . S
H338 C345 0.950 . S
C339 C337 1.387 . S
C339 C341 1.390 . S
C339 H343 0.950 . S
H340 C336 0.950 . S
C341 C339 1.390 . S
C341 C342 1.387 . S
C341 H344 0.950 . S
C342 C341 1.387 . S
C342 C345 1.387 . S
H343 C339 0.950 . S
H344 C341 0.950 . S
C345 C336 1.390 . S
C345 H338 0.950 . S
C345 C342 1.387 . S
C346 C347 1.387 . S
C346 H350 0.950 . S
C346 C355 1.390 . S
C347 C346 1.387 . S
C347 C349 1.387 . S
H348 C355 0.950 . S
C349 C347 1.387 . S
C349 C351 1.390 . S
C349 H353 0.950 . S
H350 C346 0.950 . S
C351 C349 1.390 . S
C351 C352 1.387 . S
C351 H354 0.950 . S
C352 C351 1.387 . S
C352 C355 1.387 . S
H353 C349 0.950 . S
H354 C351 0.950 . S
C355 C346 1.390 . S
C355 H348 0.950 . S
C355 C352 1.387 . S
C356 C357 1.387 . S
C356 H360 0.950 . S
C356 C365 1.390 . S
C357 C356 1.387 . S
C357 C359 1.387 . S
H358 C365 0.950 . S
C359 C357 1.387 . S
C359 C361 1.390 . S
C359 H363 0.950 . S
H360 C356 0.950 . S
C361 C359 1.390 . S
C361 C362 1.387 . S
C361 H364 0.950 . S
C362 C361 1.387 . S
C362 C365 1.387 . S
H363 C359 0.950 . S
H364 C361 0.950 . S
C365 C356 1.390 . S
C365 H358 0.950 . S
C365 C362 1.387 . S
C366 C367 1.387 1_554 S
C366 H370 0.950 . S
C366 C375 1.390 . S
C367 C366 1.387 1_556 S
C367 C369 1.387 1_655 S
H368 C375 0.950 . S
C369 C367 1.387 1_455 S
C369 C371 1.390 . S
C369 H373 0.950 . S
H370 C366 0.950 . S
C371 C369 1.390 . S
C371 C372 1.387 1_556 S
C371 H374 0.950 . S
C372 C371 1.387 1_554 S
C372 C375 1.387 1_455 S
H373 C369 0.950 . S
H374 C371 0.950 . S
C375 C366 1.390 . S
C375 H368 0.950 . S
C375 C372 1.387 1_655 S
C376 C377 1.387 . S
C376 H380 0.950 . S
C376 C385 1.390 . S
C377 C376 1.387 . S
C377 C379 1.387 . S
H378 C385 0.950 . S
C379 C377 1.387 . S
C379 C381 1.390 . S
C379 H383 0.950 . S
H380 C376 0.950 . S
C381 C379 1.390 . S
C381 C382 1.387 . S
C381 H384 0.950 . S
C382 C381 1.387 . S
C382 C385 1.387 . S
H383 C379 0.950 . S
H384 C381 0.950 . S
C385 C376 1.390 . S
C385 H378 0.950 . S
C385 C382 1.387 . S
C386 C387 1.387 . S
C386 H390 0.950 . S
C386 C395 1.390 . S
C387 C386 1.387 . S
C387 C389 1.387 . S
H388 C395 0.950 . S
C389 C387 1.387 . S
C389 C391 1.390 . S
C389 H393 0.950 . S
H390 C386 0.950 . S
C391 C389 1.390 . S
C391 C392 1.387 . S
C391 H394 0.950 . S
C392 C391 1.387 . S
C392 C395 1.387 . S
H393 C389 0.950 . S
H394 C391 0.950 . S
C395 C386 1.390 . S
C395 H388 0.950 . S
C395 C392 1.387 . S
C396 C397 1.399 1_455 S
C396 H400 0.950 . S
C396 C405 1.379 1_565 S
C397 C396 1.399 1_655 S
C397 C399 1.387 1_554 S
H398 C405 0.950 . S
C399 C397 1.387 1_556 S
C399 C401 1.379 1_565 S
C399 H403 0.950 . S
H400 C396 0.950 . S
C401 C399 1.379 1_545 S
C401 C402 1.399 1_655 S
C401 H404 0.950 . S
C402 C401 1.399 1_455 S
C402 C405 1.387 1_556 S
H403 C399 0.950 . S
H404 C401 0.950 . S
C405 C396 1.379 1_545 S
C405 H398 0.950 . S
C405 C402 1.387 1_554 S
C406 C407 1.387 1_545 S
C406 H410 0.950 . S
C406 C415 1.390 . S
C407 C406 1.387 1_565 S
C407 C409 1.387 . S
H408 C415 0.950 . S
C409 C407 1.387 . S
C409 C411 1.390 . S
C409 H413 0.950 . S
H410 C406 0.950 . S
C411 C409 1.390 . S
C411 C412 1.387 1_565 S
C411 H414 0.950 . S
C412 C411 1.387 1_545 S
C412 C415 1.387 . S
H413 C409 0.950 . S
H414 C411 0.950 . S
C415 C406 1.390 . S
C415 H408 0.950 . S
C415 C412 1.387 . S
C416 C417 1.387 . S
C416 H420 0.950 . S
C416 C425 1.390 1_556 S
C417 C416 1.387 . S
C417 C419 1.387 . S
H418 C425 0.950 . S
C419 C417 1.387 . S
C419 C421 1.390 1_556 S
C419 H423 0.950 . S
H420 C416 0.950 . S
C421 C419 1.390 1_554 S
C421 C422 1.387 . S
C421 H424 0.950 . S
C422 C421 1.387 . S
C422 C425 1.387 . S
H423 C419 0.950 . S
H424 C421 0.950 . S
C425 C416 1.390 1_554 S
C425 H418 0.950 . S
C425 C422 1.387 . S
C426 C427 1.387 . S
C426 H430 0.950 . S
C426 C435 1.390 . S
C427 C426 1.387 . S
C427 C429 1.387 . S
H428 C435 0.950 . S
C429 C427 1.387 . S
C429 C431 1.390 . S
C429 H433 0.950 . S
H430 C426 0.950 . S
C431 C429 1.390 . S
C431 C432 1.387 . S
C431 H434 0.950 . S
C432 C431 1.387 . S
C432 C435 1.387 . S
H433 C429 0.950 . S
H434 C431 0.950 . S
C435 C426 1.390 . S
C435 H428 0.950 . S
C435 C432 1.387 . S
C436 C437 1.387 . S
C436 H440 0.950 . S
C436 C445 1.390 . S
C437 C436 1.387 . S
C437 C439 1.387 . S
H438 C445 0.950 . S
C439 C437 1.387 . S
C439 C441 1.390 . S
C439 H443 0.950 . S
H440 C436 0.950 . S
C441 C439 1.390 . S
C441 C442 1.387 . S
C441 H444 0.950 . S
C442 C441 1.387 . S
C442 C445 1.387 . S
H443 C439 0.950 . S
H444 C441 0.950 . S
C445 C436 1.390 . S
C445 H438 0.950 . S
C445 C442 1.387 . S
C446 C447 1.387 . S
C446 H450 0.950 . S
C446 C455 1.390 . S
C447 C446 1.387 . S
C447 C449 1.387 . S
H448 C455 0.950 . S
C449 C447 1.387 . S
C449 C451 1.390 . S
C449 H453 0.950 . S
H450 C446 0.950 . S
C451 C449 1.390 . S
C451 C452 1.387 . S
C451 H454 0.950 . S
C452 C451 1.387 . S
C452 C455 1.387 . S
H453 C449 0.950 . S
H454 C451 0.950 . S
C455 C446 1.390 . S
C455 H448 0.950 . S
C455 C452 1.387 . S
C456 C457 1.387 . S
C456 H460 0.950 . S
C456 C465 1.390 1_554 S
C457 C456 1.387 . S
C457 C459 1.387 . S
H458 C465 0.950 . S
C459 C457 1.387 . S
C459 C461 1.390 1_554 S
C459 H463 0.950 . S
H460 C456 0.950 . S
C461 C459 1.390 1_556 S
C461 C462 1.387 . S
C461 H464 0.950 . S
C462 C461 1.387 . S
C462 C465 1.387 . S
H463 C459 0.950 . S
H464 C461 0.950 . S
C465 C456 1.390 1_556 S
C465 H458 0.950 . S
C465 C462 1.387 . S
C466 C467 1.387 . S
C466 H470 0.950 . S
C466 C475 1.390 . S
C467 C466 1.387 . S
C467 C469 1.387 . S
H468 C475 0.950 . S
C469 C467 1.387 . S
C469 C471 1.390 . S
C469 H473 0.950 . S
H470 C466 0.950 . S
C471 C469 1.390 . S
C471 C472 1.387 . S
C471 H474 0.950 . S
C472 C471 1.387 . S
C472 C475 1.387 . S
H473 C469 0.950 . S
H474 C471 0.950 . S
C475 C466 1.390 . S
C475 H468 0.950 . S
C475 C472 1.387 . S
C476 C477 1.387 . S
C476 H480 0.950 . S
C476 C485 1.390 . S
C477 C476 1.387 . S
C477 C479 1.387 . S
H478 C485 0.950 . S
C479 C477 1.387 . S
C479 C481 1.390 . S
C479 H483 0.950 . S
H480 C476 0.950 . S
C481 C479 1.390 . S
C481 C482 1.387 . S
C481 H484 0.950 . S
C482 C481 1.387 . S
C482 C485 1.387 . S
H483 C479 0.950 . S
H484 C481 0.950 . S
C485 C476 1.390 . S
C485 H478 0.950 . S
C485 C482 1.387 . S
C486 C487 1.387 . S
C486 H490 0.950 . S
C486 C495 1.390 . S
C487 C486 1.387 . S
C487 C489 1.387 . S
H488 C495 0.950 . S
C489 C487 1.387 . S
C489 C491 1.390 . S
C489 H493 0.950 . S
H490 C486 0.950 . S
C491 C489 1.390 . S
C491 C492 1.387 . S
C491 H494 0.950 . S
C492 C491 1.387 . S
C492 C495 1.387 . S
H493 C489 0.950 . S
H494 C491 0.950 . S
C495 C486 1.390 . S
C495 H488 0.950 . S
C495 C492 1.387 . S
C496 C497 1.387 . S
C496 H500 0.950 . S
C496 C505 1.390 . S
C497 C496 1.387 . S
C497 C499 1.387 . S
H498 C505 0.950 . S
C499 C497 1.387 . S
C499 C501 1.390 . S
C499 H503 0.950 . S
H500 C496 0.950 . S
C501 C499 1.390 . S
C501 C502 1.387 . S
C501 H504 0.950 . S
C502 C501 1.387 . S
C502 C505 1.387 . S
H503 C499 0.950 . S
H504 C501 0.950 . S
C505 C496 1.390 . S
C505 H498 0.950 . S
C505 C502 1.387 . S
C506 C507 1.387 . S
C506 H510 0.950 . S
C506 C515 1.390 1_545 S
C507 C506 1.387 . S
C507 C509 1.387 1_545 S
H508 C515 0.950 . S
C509 C507 1.387 1_565 S
C509 C511 1.390 . S
C509 H513 0.950 . S
H510 C506 0.950 . S
C511 C509 1.390 . S
C511 C512 1.387 . S
C511 H514 0.950 . S
C512 C511 1.387 . S
C512 C515 1.387 . S
H513 C509 0.950 . S
H514 C511 0.950 . S
C515 C506 1.390 1_565 S
C515 H508 0.950 . S
C515 C512 1.387 . S
C516 C517 1.387 . S
C516 H520 0.950 . S
C516 C525 1.390 1_554 S
C517 C516 1.387 . S
C517 C519 1.387 . S
H518 C525 0.950 . S
C519 C517 1.387 . S
C519 C521 1.390 1_554 S
C519 H523 0.950 . S
H520 C516 0.950 . S
C521 C519 1.390 1_556 S
C521 C522 1.387 . S
C521 H524 0.950 . S
C522 C521 1.387 . S
C522 C525 1.387 . S
H523 C519 0.950 . S
H524 C521 0.950 . S
C525 C516 1.390 1_556 S
C525 H518 0.950 . S
C525 C522 1.387 . S
C526 C527 1.387 . S
C526 H530 0.950 . S
C526 C535 1.390 . S
C527 C526 1.387 . S
C527 C529 1.387 . S
H528 C535 0.950 . S
C529 C527 1.387 . S
C529 C531 1.390 . S
C529 H533 0.950 . S
H530 C526 0.950 . S
C531 C529 1.390 . S
C531 C532 1.387 1_545 S
C531 H534 0.950 1_545 S
C532 C531 1.387 1_565 S
C532 C535 1.387 1_565 S
H533 C529 0.950 . S
H534 C531 0.950 1_565 S
C535 C526 1.390 . S
C535 H528 0.950 . S
C535 C532 1.387 1_545 S
C536 C537 1.387 . S
C536 H540 0.950 . S
C536 C545 1.390 . S
C537 C536 1.387 . S
C537 C539 1.387 . S
H538 C545 0.950 . S
C539 C537 1.387 . S
C539 C541 1.390 . S
C539 H543 0.950 . S
H540 C536 0.950 . S
C541 C539 1.390 . S
C541 C542 1.387 . S
C541 H544 0.950 . S
C542 C541 1.387 . S
C542 C545 1.387 . S
H543 C539 0.950 . S
H544 C541 0.950 . S
C545 C536 1.390 . S
C545 H538 0.950 . S
C545 C542 1.387 . S
C546 C547 1.387 . S
C546 H550 0.950 . S
C546 C555 1.390 1_565 S
C547 C546 1.387 . S
C547 C549 1.387 1_565 S
H548 C555 0.950 1_565 S
C549 C547 1.387 1_545 S
C549 C551 1.390 . S
C549 H553 0.950 . S
H550 C546 0.950 . S
C551 C549 1.390 . S
C551 C552 1.387 . S
C551 H554 0.950 . S
C552 C551 1.387 . S
C552 C555 1.387 . S
H553 C549 0.950 . S
H554 C551 0.950 . S
C555 C546 1.390 1_545 S
C555 H548 0.950 1_545 S
C555 C552 1.387 . S
C556 C557 1.387 . S
C556 H560 0.950 . S
C556 C565 1.390 1_554 S
C557 C556 1.387 . S
C557 C559 1.387 . S
H558 C565 0.950 . S
C559 C557 1.387 . S
C559 C561 1.390 1_554 S
C559 H563 0.950 . S
H560 C556 0.950 . S
C561 C559 1.390 1_556 S
C561 C562 1.387 . S
C561 H564 0.950 . S
C562 C561 1.387 . S
C562 C565 1.387 . S
H563 C559 0.950 . S
H564 C561 0.950 . S
C565 C556 1.390 1_556 S
C565 H558 0.950 . S
C565 C562 1.387 . S
C566 C567 1.387 . S
C566 H570 0.950 . S
C566 C575 1.390 1_545 S
C567 C566 1.387 . S
C567 C569 1.387 1_545 S
H568 C575 0.950 . S
C569 C567 1.387 1_565 S
C569 C571 1.390 . S
C569 H573 0.950 . S
H570 C566 0.950 . S
C571 C569 1.390 . S
C571 C572 1.387 . S
C571 H574 0.950 . S
C572 C571 1.387 . S
C572 C575 1.387 . S
H573 C569 0.950 . S
H574 C571 0.950 . S
C575 C566 1.390 1_565 S
C575 H568 0.950 . S
C575 C572 1.387 . S
C576 C577 1.387 . S
C576 H580 0.950 . S
C576 C585 1.390 . S
C577 C576 1.387 . S
C577 C579 1.387 . S
H578 C585 0.950 . S
C579 C577 1.387 . S
C579 C581 1.390 . S
C579 H583 0.950 . S
H580 C576 0.950 . S
C581 C579 1.390 . S
C581 C582 1.387 . S
C581 H584 0.950 . S
C582 C581 1.387 . S
C582 C585 1.387 . S
H583 C579 0.950 . S
H584 C581 0.950 . S
C585 C576 1.390 . S
C585 H578 0.950 . S
C585 C582 1.387 . S
C586 C587 1.387 . S
C586 H590 0.950 . S
C586 C595 1.390 . S
C587 C586 1.387 . S
C587 C589 1.387 . S
H588 C595 0.950 . S
C589 C587 1.387 . S
C589 C591 1.390 . S
C589 H593 0.950 . S
H590 C586 0.950 . S
C591 C589 1.390 . S
C591 C592 1.387 . S
C591 H594 0.950 . S
C592 C591 1.387 . S
C592 C595 1.387 . S
H593 C589 0.950 . S
H594 C591 0.950 . S
C595 C586 1.390 . S
C595 H588 0.950 . S
C595 C592 1.387 . S
C596 C597 1.387 . S
C596 H600 0.950 . S
C596 C605 1.390 1_655 S
C597 C596 1.387 . S
C597 C599 1.387 . S
H598 C605 0.950 . S
C599 C597 1.387 . S
C599 C601 1.390 1_655 S
C599 H603 0.950 . S
H600 C596 0.950 . S
C601 C599 1.390 1_455 S
C601 C602 1.387 . S
C601 H604 0.950 . S
C602 C601 1.387 . S
C602 C605 1.387 . S
H603 C599 0.950 . S
H604 C601 0.950 . S
C605 C596 1.390 1_455 S
C605 H598 0.950 . S
C605 C602 1.387 . S
C606 C607 1.387 . S
C606 H610 0.950 . S
C606 C615 1.390 1_655 S
C607 C606 1.387 . S
C607 C609 1.387 . S
H608 C615 0.950 . S
C609 C607 1.387 . S
C609 C611 1.390 1_655 S
C609 H613 0.950 . S
H610 C606 0.950 . S
C611 C609 1.390 1_455 S
C611 C612 1.387 . S
C611 H614 0.950 . S
C612 C611 1.387 . S
C612 C615 1.387 . S
H613 C609 0.950 . S
H614 C611 0.950 . S
C615 C606 1.390 1_455 S
C615 H608 0.950 . S
C615 C612 1.387 . S
C616 C617 1.387 . S
C616 H620 0.950 . S
C616 C625 1.390 . S
C617 C616 1.387 . S
C617 C619 1.387 . S
H618 C625 0.950 . S
C619 C617 1.387 . S
C619 C621 1.390 . S
C619 H623 0.950 . S
H620 C616 0.950 . S
C621 C619 1.390 . S
C621 C622 1.387 . S
C621 H624 0.950 . S
C622 C621 1.387 . S
C622 C625 1.387 . S
H623 C619 0.950 . S
H624 C621 0.950 . S
C625 C616 1.390 . S
C625 H618 0.950 . S
C625 C622 1.387 . S
C626 C627 1.387 . S
C626 H630 0.950 . S
C626 C635 1.390 . S
C627 C626 1.387 . S
C627 C629 1.387 . S
H628 C635 0.950 . S
C629 C627 1.387 . S
C629 C631 1.390 . S
C629 H633 0.950 . S
H630 C626 0.950 . S
C631 C629 1.390 . S
C631 C632 1.387 . S
C631 H634 0.950 . S
C632 C631 1.387 . S
C632 C635 1.387 . S
H633 C629 0.950 . S
H634 C631 0.950 . S
C635 C626 1.390 . S
C635 H628 0.950 . S
C635 C632 1.387 . S
C636 C637 1.387 . S
C636 H640 0.950 . S
C636 C645 1.390 1_455 S
C637 C636 1.387 . S
C637 C639 1.387 . S
H638 C645 0.950 . S
C639 C637 1.387 . S
C639 C641 1.390 1_455 S
C639 H643 0.950 . S
H640 C636 0.950 . S
C641 C639 1.390 1_655 S
C641 C642 1.387 . S
C641 H644 0.950 . S
C642 C641 1.387 . S
C642 C645 1.387 . S
H643 C639 0.950 . S
H644 C641 0.950 . S
C645 C636 1.390 1_655 S
C645 H638 0.950 . S
C645 C642 1.387 . S
C646 C647 1.387 . S
C646 H650 0.950 . S
C646 C655 1.390 1_455 S
C647 C646 1.387 . S
C647 C649 1.387 . S
H648 C655 0.950 . S
C649 C647 1.387 . S
C649 C651 1.390 1_455 S
C649 H653 0.950 . S
H650 C646 0.950 . S
C651 C649 1.390 1_655 S
C651 C652 1.387 . S
C651 H654 0.950 . S
C652 C651 1.387 . S
C652 C655 1.387 . S
H653 C649 0.950 . S
H654 C651 0.950 . S
C655 C646 1.390 1_655 S
C655 H648 0.950 . S
C655 C652 1.387 . S
C656 C657 1.387 . S
C656 H660 0.950 . S
C656 C665 1.390 . S
C657 C656 1.387 . S
C657 C659 1.387 . S
H658 C665 0.950 . S
C659 C657 1.387 . S
C659 C661 1.390 . S
C659 H663 0.950 . S
H660 C656 0.950 . S
C661 C659 1.390 . S
C661 C662 1.387 . S
C661 H664 0.950 . S
C662 C661 1.387 . S
C662 C665 1.387 . S
H663 C659 0.950 . S
H664 C661 0.950 . S
C665 C656 1.390 . S
C665 H658 0.950 . S
C665 C662 1.387 . S
C666 C667 1.387 . S
C666 H670 0.950 . S
C666 C675 1.390 . S
C667 C666 1.387 . S
C667 C669 1.387 . S
H668 C675 0.950 . S
C669 C667 1.387 . S
C669 C671 1.390 . S
C669 H673 0.950 . S
H670 C666 0.950 . S
C671 C669 1.390 . S
C671 C672 1.387 . S
C671 H674 0.950 . S
C672 C671 1.387 . S
C672 C675 1.387 . S
H673 C669 0.950 . S
H674 C671 0.950 . S
C675 C666 1.390 . S
C675 H668 0.950 . S
C675 C672 1.387 . S
C676 C677 1.387 . S
C676 H680 0.950 . S
C676 C685 1.390 . S
C677 C676 1.387 . S
C677 C679 1.387 . S
H678 C685 0.950 . S
C679 C677 1.387 . S
C679 C681 1.390 . S
C679 H683 0.950 . S
H680 C676 0.950 . S
C681 C679 1.390 . S
C681 C682 1.387 . S
C681 H684 0.950 . S
C682 C681 1.387 . S
C682 C685 1.387 . S
H683 C679 0.950 . S
H684 C681 0.950 . S
C685 C676 1.390 . S
C685 H678 0.950 . S
C685 C682 1.387 . S
C686 C687 1.387 . S
C686 H690 0.950 . S
C686 C695 1.390 . S
C687 C686 1.387 . S
C687 C689 1.387 . S
H688 C695 0.950 . S
C689 C687 1.387 . S
C689 C691 1.390 . S
C689 H693 0.950 . S
H690 C686 0.950 . S
C691 C689 1.390 . S
C691 C692 1.387 . S
C691 H694 0.950 . S
C692 C691 1.387 . S
C692 C695 1.387 . S
H693 C689 0.950 . S
H694 C691 0.950 . S
C695 C686 1.390 . S
C695 H688 0.950 . S
C695 C692 1.387 . S
C696 C697 1.387 . S
C696 H700 0.950 . S
C696 C705 1.390 . S
C697 C696 1.387 . S
C697 C699 1.387 . S
H698 C705 0.950 . S
C699 C697 1.387 . S
C699 C701 1.390 . S
C699 H703 0.950 . S
H700 C696 0.950 . S
C701 C699 1.390 . S
C701 C702 1.387 . S
C701 H704 0.950 . S
C702 C701 1.387 . S
C702 C705 1.387 . S
H703 C699 0.950 . S
H704 C701 0.950 . S
C705 C696 1.390 . S
C705 H698 0.950 . S
C705 C702 1.387 . S
C706 C707 1.387 . S
C706 H710 0.950 . S
C706 C715 1.390 . S
C707 C706 1.387 . S
C707 C709 1.387 . S
H708 C715 0.950 . S
C709 C707 1.387 . S
C709 C711 1.390 . S
C709 H713 0.950 . S
H710 C706 0.950 . S
C711 C709 1.390 . S
C711 C712 1.387 . S
C711 H714 0.950 . S
C712 C711 1.387 . S
C712 C715 1.387 . S
H713 C709 0.950 . S
H714 C711 0.950 . S
C715 C706 1.390 . S
C715 H708 0.950 . S
C715 C712 1.387 . S
C716 C717 1.387 . S
C716 H720 0.950 . S
C716 C725 1.390 . S
C717 C716 1.387 . S
C717 C719 1.387 . S
H718 C725 0.950 . S
C719 C717 1.387 . S
C719 C721 1.390 . S
C719 H723 0.950 . S
H720 C716 0.950 . S
C721 C719 1.390 . S
C721 C722 1.387 . S
C721 H724 0.950 . S
C722 C721 1.387 . S
C722 C725 1.387 . S
H723 C719 0.950 . S
H724 C721 0.950 . S
C725 C716 1.390 . S
C725 H718 0.950 . S
C725 C722 1.387 . S
C726 C727 1.387 . S
C726 H730 0.950 . S
C726 C735 1.390 . S
C727 C726 1.387 . S
C727 C729 1.387 . S
H728 C735 0.950 . S
C729 C727 1.387 . S
C729 C731 1.390 . S
C729 H733 0.950 . S
H730 C726 0.950 . S
C731 C729 1.390 . S
C731 C732 1.387 . S
C731 H734 0.950 . S
C732 C731 1.387 . S
C732 C735 1.387 . S
H733 C729 0.950 . S
H734 C731 0.950 . S
C735 C726 1.390 . S
C735 H728 0.950 . S
C735 C732 1.387 . S
C736 C737 1.387 . S
C736 H740 0.950 . S
C736 C745 1.390 . S
C737 C736 1.387 . S
C737 C739 1.387 . S
H738 C745 0.950 . S
C739 C737 1.387 . S
C739 C741 1.390 . S
C739 H743 0.950 . S
H740 C736 0.950 . S
C741 C739 1.390 . S
C741 C742 1.387 . S
C741 H744 0.950 . S
C742 C741 1.387 . S
C742 C745 1.387 . S
H743 C739 0.950 . S
H744 C741 0.950 . S
C745 C736 1.390 . S
C745 H738 0.950 . S
C745 C742 1.387 . S
C746 C747 1.387 . S
C746 H750 0.950 . S
C746 C755 1.390 . S
C747 C746 1.387 . S
C747 C749 1.387 . S
H748 C755 0.950 1_545 S
C749 C747 1.387 . S
C749 C751 1.390 . S
C749 H753 0.950 . S
H750 C746 0.950 . S
C751 C749 1.390 . S
C751 C752 1.387 . S
C751 H754 0.950 . S
C752 C751 1.387 . S
C752 C755 1.387 . S
H753 C749 0.950 . S
H754 C751 0.950 . S
C755 C746 1.390 . S
C755 H748 0.950 1_565 S
C755 C752 1.387 . S
C756 C757 1.387 . S
C756 H760 0.950 . S
C756 C765 1.390 . S
C757 C756 1.387 . S
C757 C759 1.387 . S
H758 C765 0.950 . S
C759 C757 1.387 . S
C759 C761 1.390 . S
C759 H763 0.950 . S
H760 C756 0.950 . S
C761 C759 1.390 . S
C761 C762 1.387 . S
C761 H764 0.950 . S
C762 C761 1.387 . S
C762 C765 1.387 . S
H763 C759 0.950 . S
H764 C761 0.950 . S
C765 C756 1.390 . S
C765 H758 0.950 . S
C765 C762 1.387 . S
C766 C767 1.387 . S
C766 H770 0.950 . S
C766 C775 1.390 . S
C767 C766 1.387 . S
C767 C769 1.387 . S
H768 C775 0.950 . S
C769 C767 1.387 . S
C769 C771 1.390 . S
C769 H773 0.950 . S
H770 C766 0.950 . S
C771 C769 1.390 . S
C771 C772 1.387 . S
C771 H774 0.950 . S
C772 C771 1.387 . S
C772 C775 1.387 . S
H773 C769 0.950 . S
H774 C771 0.950 . S
C775 C766 1.390 . S
C775 H768 0.950 . S
C775 C772 1.387 . S
C776 C777 1.387 . S
C776 H780 0.950 . S
C776 C785 1.390 . S
C777 C776 1.387 . S
C777 C779 1.387 . S
H778 C785 0.950 . S
C779 C777 1.387 . S
C779 C781 1.390 . S
C779 H783 0.950 . S
H780 C776 0.950 . S
C781 C779 1.390 . S
C781 C782 1.387 . S
C781 H784 0.950 . S
C782 C781 1.387 . S
C782 C785 1.387 . S
H783 C779 0.950 . S
H784 C781 0.950 . S
C785 C776 1.390 . S
C785 H778 0.950 . S
C785 C782 1.387 . S
C786 C787 1.387 . S
C786 H790 0.950 . S
C786 C795 1.390 . S
C787 C786 1.387 . S
C787 C789 1.387 . S
H788 C795 0.950 . S
C789 C787 1.387 . S
C789 C791 1.390 . S
C789 H793 0.950 . S
H790 C786 0.950 . S
C791 C789 1.390 . S
C791 C792 1.387 . S
C791 H794 0.950 . S
C792 C791 1.387 . S
C792 C795 1.387 . S
H793 C789 0.950 . S
H794 C791 0.950 . S
C795 C786 1.390 . S
C795 H788 0.950 . S
C795 C792 1.387 . S
C796 C797 1.387 . S
C796 H800 0.950 . S
C796 C805 1.390 . S
C797 C796 1.387 . S
C797 C799 1.387 . S
H798 C805 0.950 . S
C799 C797 1.387 . S
C799 C801 1.390 . S
C799 H803 0.950 . S
H800 C796 0.950 . S
C801 C799 1.390 . S
C801 C802 1.387 . S
C801 H804 0.950 . S
C802 C801 1.387 . S
C802 C805 1.387 . S
H803 C799 0.950 . S
H804 C801 0.950 . S
C805 C796 1.390 . S
C805 H798 0.950 . S
C805 C802 1.387 . S
C806 C807 1.387 . S
C806 H810 0.950 . S
C806 C815 1.390 . S
C807 C806 1.387 . S
C807 C809 1.387 . S
H808 C815 0.950 . S
C809 C807 1.387 . S
C809 C811 1.390 . S
C809 H813 0.950 . S
H810 C806 0.950 . S
C811 C809 1.390 . S
C811 C812 1.387 . S
C811 H814 0.950 . S
C812 C811 1.387 . S
C812 C815 1.387 . S
H813 C809 0.950 . S
H814 C811 0.950 . S
C815 C806 1.390 . S
C815 H808 0.950 . S
C815 C812 1.387 . S
C337 C16 0.745 . S
C342 C268 0.745 . S
C347 C121 0.755 . S
C352 C34 0.755 . S
C357 C58 0.754 . S
C362 C310 0.754 . S
C367 C79 0.746 . S
C372 C163 0.746 . S
C377 C100 0.746 . S
C382 C184 0.746 . S
C387 C226 0.745 . S
C392 C142 0.745 . S
C397 C289 0.746 . S
C402 C202 0.746 . S
C407 C247 0.754 . S
C412 C331 0.754 . S
C417 C203 1.709 . S
C422 C14 1.883 . S
C427 C38 1.884 . S
C432 C227 1.710 . S
C437 C56 1.884 . S
C442 C248 1.710 . S
C447 C185 1.712 . S
C452 C77 1.885 . S
C457 C290 1.709 . S
C462 C98 1.883 . S
C467 C311 1.710 . S
C472 C119 1.884 . S
C477 C140 1.883 . S
C482 C332 1.709 . S
C487 C269 1.711 . S
C492 C161 1.884 . S
C497 C182 1.884 . S
C502 C35 1.710 . S
C507 C206 1.883 . S
C512 C59 1.709 . S
C517 C224 1.884 . S
C522 C80 1.709 . S
C527 C17 1.711 . S
C532 C245 1.884 . S
C537 C122 1.710 . S
C542 C266 1.884 . S
C547 C287 1.884 . S
C552 C143 1.710 . S
C557 C164 1.711 . S
C562 C308 1.884 . S
C567 C329 1.884 . S
C572 C101 1.711 . S
C577 C15 1.474 . S
C582 C225 1.474 . S
C587 C39 1.476 . S
C592 C246 1.476 . S
C597 C183 1.474 . S
C602 C57 1.474 . S
C607 C78 1.474 . S
C612 C207 1.474 . S
C617 C99 1.476 . S
C622 C309 1.476 . S
C627 C120 1.474 . S
C632 C330 1.474 . S
C637 C267 1.474 . S
C642 C141 1.474 . S
C647 C162 1.476 . S
C652 C288 1.476 . S
C657 C13 1.291 . S
C662 C165 1.078 . S
C667 C270 1.076 . S
C672 C37 1.288 . S
C677 C55 1.289 . S
C682 C123 1.082 . S
C687 C76 1.290 . S
C692 C312 1.077 . S
C697 C97 1.288 . S
C702 C81 1.077 . S
C707 C186 1.082 . S
C712 C118 1.288 . S
C717 C139 1.291 . S
C722 C36 1.078 . S
C727 C228 1.082 . S
C732 C160 1.288 . S
C737 C181 1.288 . S
C742 C333 1.080 . S
C747 C102 1.076 . S
C752 C205 1.289 . S
C757 C291 1.081 . S
C762 C223 1.288 . S
C767 C244 1.291 . S
C772 C144 1.078 . S
C777 C265 1.291 . S
C782 C249 1.078 . S
C787 C286 1.288 . S
C792 C18 1.081 . S
C797 C204 1.077 . S
C802 C307 1.291 . S
C807 C60 1.077 . S
C812 C328 1.290 . S
