# Generated by pormake.
# Topology smu, (6)-cn, num edge types: 1
# Building blocks:
#     Node 0, Type 0, BuildingBlock: VOLQOD_clean_sbu_1, # of connection points: 6
#     Node 1, Type 0, BuildingBlock: VOLQOD_clean_sbu_1, # of connection points: 6
#     Node 2, Type 0, BuildingBlock: VOLQOD_clean_sbu_1, # of connection points: 6
#     Node 3, Type 0, BuildingBlock: VOLQOD_clean_sbu_1, # of connection points: 6
#     Node 4, Type 0, BuildingBlock: VOLQOD_clean_sbu_1, # of connection points: 6
#     Node 5, Type 0, BuildingBlock: VOLQOD_clean_sbu_1, # of connection points: 6
#     Edge 6, Type (0, 0), BuildingBlock: MIFKUJ_clean_linker_0, # of connection points: 2
#     Edge 7, Type (0, 0), BuildingBlock: MIFKUJ_clean_linker_0, # of connection points: 2
#     Edge 8, Type (0, 0), BuildingBlock: MIFKUJ_clean_linker_0, # of connection points: 2
#     Edge 9, Type (0, 0), BuildingBlock: MIFKUJ_clean_linker_0, # of connection points: 2
#     Edge 10, Type (0, 0), BuildingBlock: MIFKUJ_clean_linker_0, # of connection points: 2
#     Edge 11, Type (0, 0), BuildingBlock: MIFKUJ_clean_linker_0, # of connection points: 2
#     Edge 12, Type (0, 0), BuildingBlock: MIFKUJ_clean_linker_0, # of connection points: 2
#     Edge 13, Type (0, 0), BuildingBlock: MIFKUJ_clean_linker_0, # of connection points: 2
#     Edge 14, Type (0, 0), BuildingBlock: MIFKUJ_clean_linker_0, # of connection points: 2
#     Edge 15, Type (0, 0), BuildingBlock: MIFKUJ_clean_linker_0, # of connection points: 2
#     Edge 16, Type (0, 0), BuildingBlock: MIFKUJ_clean_linker_0, # of connection points: 2
#     Edge 17, Type (0, 0), BuildingBlock: MIFKUJ_clean_linker_0, # of connection points: 2
#     Edge 18, Type (0, 0), BuildingBlock: MIFKUJ_clean_linker_0, # of connection points: 2
#     Edge 19, Type (0, 0), BuildingBlock: MIFKUJ_clean_linker_0, # of connection points: 2
#     Edge 20, Type (0, 0), BuildingBlock: MIFKUJ_clean_linker_0, # of connection points: 2
#     Edge 21, Type (0, 0), BuildingBlock: MIFKUJ_clean_linker_0, # of connection points: 2
#     Edge 22, Type (0, 0), BuildingBlock: MIFKUJ_clean_linker_0, # of connection points: 2
#     Edge 23, Type (0, 0), BuildingBlock: MIFKUJ_clean_linker_0, # of connection points: 2
# Relax obj value: 0.300
# Max RMSD: 0.244
# Mean RMSD: 0.244
data_MOF--net-smu--node1-VOLQOD_clean_sbu_1--edge1-MIFKUJ_clean_linker_0
_symmetry_space_group_name_H-M    P1
_symmetry_Int_Tables_number       1
_symmetry_cell_setting            triclinic
loop_
_symmetry_equiv_pos_as_xyz
'x, y, z'
_cell_length_a     38.814871
_cell_length_b     38.695086
_cell_length_c     41.791722
_cell_angle_alpha  90.213765
_cell_angle_beta   89.812048
_cell_angle_gamma 119.98975
loop_
_atom_site_label
_atom_site_type_symbol
_atom_site_fract_x
_atom_site_fract_y
_atom_site_fract_z
_atom_type_partial_charge
O0 O 0.38428 0.15007 0.24579 0.0
Zn1 Zn 0.33597 0.09742 0.23674 0.0
O2 O 0.32523 0.05967 0.27097 0.0
Zn3 Zn 0.32993 0.01509 0.25359 0.0
Zn4 Zn 0.3629 0.08665 0.30526 0.0
Zn5 Zn 0.27259 0.04159 0.28829 0.0
O6 O 0.27805 0.9628 0.25906 0.0
O7 O 0.23799 0.98464 0.27672 0.0
O8 O 0.33947 0.07648 0.19341 0.0
O9 O 0.33814 0.02013 0.20574 0.0
O10 O 0.37848 0.01559 0.27197 0.0
O11 O 0.40226 0.06789 0.30489 0.0
O12 O 0.33669 0.0746 0.3489 0.0
O13 O 0.29332 0.11128 0.23491 0.0
O14 O 0.27276 0.04353 0.33621 0.0
O15 O 0.24904 0.07438 0.27186 0.0
C16 C 0.40059 0.16653 0.2722 0.0
C17 C 0.2437 0.95666 0.26709 0.0
C18 C 0.40492 0.03971 0.29146 0.0
C19 C 0.34039 0.04528 0.1851 0.0
C20 C 0.3002 0.05713 0.35712 0.0
C21 C 0.2614 0.10113 0.25028 0.0
O22 O 0.39294 0.14633 0.29792 0.0
O23 O 0.79021 0.63367 0.22346 0.0
Zn24 Zn 0.77203 0.67283 0.21323 0.0
O25 O 0.74142 0.67735 0.24841 0.0
Zn26 Zn 0.68894 0.66517 0.23307 0.0
Zn27 Zn 0.736 0.64047 0.2817 0.0
Zn28 Zn 0.76974 0.73072 0.26649 0.0
O29 O 0.68105 0.71309 0.23788 0.0
O30 O 0.7407 0.75939 0.25552 0.0
O31 O 0.74221 0.65911 0.17141 0.0
O32 O 0.6856 0.65581 0.18587 0.0
O33 O 0.64507 0.61354 0.25251 0.0
O34 O 0.68054 0.59504 0.28222 0.0
O35 O 0.74567 0.66564 0.32509 0.0
O36 O 0.82304 0.72413 0.20757 0.0
O37 O 0.77171 0.73005 0.3146 0.0
O38 O 0.82556 0.76147 0.24894 0.0
C39 C 0.79081 0.61685 0.24943 0.0
C40 C 0.70585 0.74904 0.2457 0.0
C41 C 0.64746 0.58844 0.27077 0.0
C42 C 0.70804 0.65402 0.16449 0.0
C43 C 0.76012 0.70154 0.33449 0.0
C44 C 0.84157 0.75564 0.22439 0.0
O45 O 0.77284 0.61865 0.2744 0.0
O46 O 0.82697 0.22858 0.20856 0.0
Zn47 Zn 0.87703 0.22999 0.19389 0.0
O48 O 0.91856 0.25546 0.22584 0.0
Zn49 Zn 0.96457 0.3022 0.20823 0.0
Zn50 Zn 0.89859 0.2708 0.26176 0.0
Zn51 Zn 0.9339 0.2182 0.24101 0.0
O52 O 0.01466 0.2987 0.21443 0.0
O53 O 0.98568 0.23277 0.22089 0.0
O54 O 0.89593 0.25483 0.14992 0.0
O55 O 0.95791 0.3022 0.16066 0.0
O56 O 0.96847 0.3535 0.22517 0.0
O57 O 0.9182 0.3288 0.25982 0.0
O58 O 0.91857 0.26137 0.30303 0.0
O59 O 0.85903 0.17156 0.19108 0.0
O60 O 0.94331 0.2228 0.28907 0.0
O61 O 0.89374 0.16174 0.2285 0.0
C62 C 0.81509 0.22914 0.23696 0.0
C63 C 0.01605 0.26644 0.21465 0.0
C64 C 0.94637 0.35824 0.2453 0.0
C65 C 0.92989 0.28283 0.14076 0.0
C66 C 0.93602 0.24205 0.31028 0.0
C67 C 0.86656 0.14833 0.20728 0.0
O68 O 0.83907 0.24175 0.26055 0.0
O69 O 0.15071 0.39525 0.7521 0.0
Zn70 Zn 0.10044 0.34328 0.75911 0.0
O71 O 0.06445 0.33204 0.7232 0.0
Zn72 Zn 0.0165 0.33052 0.73898 0.0
Zn73 Zn 0.08993 0.37259 0.6909 0.0
Zn74 Zn 0.05267 0.2824 0.70313 0.0
O75 O 0.96823 0.27736 0.72871 0.0
O76 O -0.00326 0.24181 0.71428 0.0
O77 O 0.07567 0.34292 0.80194 0.0
O78 O 0.01642 0.33229 0.78697 0.0
O79 O 0.01427 0.37943 0.72437 0.0
O80 O 0.06847 0.40959 0.69382 0.0
O81 O 0.07955 0.35011 0.64593 0.0
O82 O 0.11921 0.30335 0.76049 0.0
O83 O 0.05432 0.28559 0.65509 0.0
O84 O 0.09202 0.26585 0.71721 0.0
C85 C 0.16764 0.41273 0.72613 0.0
C86 C 0.96612 0.24418 0.72186 0.0
C87 C 0.03849 0.40875 0.70707 0.0
C88 C 0.04128 0.33742 0.80882 0.0
C89 C 0.06526 0.3145 0.63573 0.0
C90 C 0.1154 0.27619 0.74114 0.0
O91 O 0.14878 0.40415 0.69968 0.0
O92 O 0.22413 0.83494 0.78832 0.0
Zn93 Zn 0.22884 0.88741 0.80141 0.0
O94 O 0.25457 0.92779 0.76865 0.0
Zn95 Zn 0.30443 0.97187 0.78442 0.0
Zn96 Zn 0.26414 0.90336 0.7324 0.0
Zn97 Zn 0.21983 0.94713 0.75497 0.0
O98 O 0.30581 0.02483 0.7769 0.0
O99 O 0.24055 0.00195 0.77252 0.0
O100 O 0.2552 0.90723 0.84442 0.0
O101 O 0.30696 0.9665 0.83227 0.0
O102 O 0.35165 0.96898 0.76572 0.0
O103 O 0.3209 0.91849 0.73149 0.0
O104 O 0.25228 0.92104 0.69119 0.0
O105 O 0.17183 0.87246 0.80507 0.0
O106 O 0.22043 0.95244 0.70657 0.0
O107 O 0.16343 0.91046 0.76986 0.0
C108 C 0.22117 0.82115 0.76007 0.0
C109 C 0.27601 0.03042 0.7767 0.0
C110 C 0.3524 0.94482 0.74519 0.0
C111 C 0.28599 0.93973 0.85273 0.0
C112 C 0.23487 0.94055 0.68455 0.0
C113 C 0.14947 0.88241 0.79042 0.0
O114 O 0.2322 0.844 0.73577 0.0
O115 O 0.61099 0.76714 0.77399 0.0
Zn116 Zn 0.65826 0.76106 0.78286 0.0
O117 O 0.66642 0.73176 0.7484 0.0
Zn118 Zn 0.66264 0.68321 0.76567 0.0
Zn119 Zn 0.62677 0.71907 0.71552 0.0
Zn120 Zn 0.71793 0.76456 0.72893 0.0
O121 O 0.71285 0.6809 0.7572 0.0
O122 O 0.75313 0.74233 0.73897 0.0
O123 O 0.65295 0.73586 0.82612 0.0
O124 O 0.65937 0.68361 0.81337 0.0
O125 O 0.61185 0.63434 0.75089 0.0
O126 O 0.58719 0.66128 0.71754 0.0
O127 O 0.65022 0.73 0.67123 0.0
O128 O 0.70326 0.81768 0.78436 0.0
O129 O 0.71492 0.76488 0.6811 0.0
O130 O 0.74239 0.82109 0.74421 0.0
C131 C 0.5923 0.76455 0.7483 0.0
C132 C 0.74712 0.70848 0.74833 0.0
C133 C 0.58481 0.63121 0.73185 0.0
C134 C 0.65512 0.70529 0.83414 0.0
C135 C 0.68607 0.74921 0.66151 0.0
C136 C 0.73362 0.83765 0.7667 0.0
O137 O 0.59744 0.74921 0.72296 0.0
H138 H 0.35804 0.99291 0.87846 0.0
H139 H 0.37436 0.00927 0.93493 0.0
H140 H 0.25359 0.92294 0.96076 0.0
H141 H 0.23768 0.90523 0.90449 0.0
H142 H 0.35119 0.04185 0.97509 0.0
H143 H 0.24641 0.88793 0.03467 0.0
H144 H 0.2208 0.8165 0.02366 0.0
H145 H 0.32121 0.84612 0.96294 0.0
H146 H 0.34771 0.91766 0.97392 0.0
H147 H 0.31491 0.07129 0.13483 0.0
H148 H 0.31178 0.05289 0.0786 0.0
H149 H 0.36637 0.98236 0.10119 0.0
H150 H 0.36749 -0.001 0.15785 0.0
H151 H 0.31109 0.94259 0.06244 0.0
H152 H 0.4173 0.07674 0.06109 0.0
H153 H 0.45206 0.14909 0.07191 0.0
H154 H 0.36597 0.16057 0.01563 0.0
H155 H 0.33038 0.08819 0.00482 0.0
C156 C 0.33512 0.97704 0.89623 0.0
C157 C 0.29659 0.94769 0.88702 0.0
C158 C 0.34445 0.98651 0.92852 0.0
C159 C 0.31536 0.96718 0.95228 0.0
C160 C 0.2769 0.93767 0.94308 0.0
C161 C 0.26775 0.92766 0.91083 0.0
C162 C 0.32462 0.97937 0.98644 0.0
C163 C 0.34262 0.02011 0.99415 0.0
C164 C 0.31442 0.95124 0.01142 0.0
C165 C 0.29885 0.9082 0.00491 0.0
C166 C 0.26312 0.8792 0.01908 0.0
C167 C 0.24842 0.83869 0.01282 0.0
C168 C 0.2693 0.82679 0.99254 0.0
C169 C 0.30499 0.85538 0.97855 0.0
C170 C 0.31983 0.89592 0.98475 0.0
C171 C 0.32662 0.0522 0.12776 0.0
C172 C 0.34162 0.03674 0.15072 0.0
C173 C 0.32499 0.0418 0.09552 0.0
C174 C 0.33946 0.01673 0.08538 0.0
C175 C 0.35498 0.00171 0.1083 0.0
C176 C 0.35577 0.01137 0.14068 0.0
C177 C 0.33698 0.00502 0.05109 0.0
C178 C 0.32009 0.96437 0.04336 0.0
C179 C 0.34961 0.03336 0.02603 0.0
C180 C 0.37102 0.07697 0.03234 0.0
C181 C 0.40564 0.09465 0.05119 0.0
C182 C 0.42551 0.13568 0.0573 0.0
C183 C 0.41119 0.1594 0.04452 0.0
C184 C 0.37702 0.14216 0.02553 0.0
C185 C 0.35702 0.10114 0.01936 0.0
H186 H 0.42661 0.19115 0.04929 0.0
H187 H 0.25786 0.79542 0.98772 0.0
H188 H 0.75304 0.80374 0.62999 0.0
H189 H 0.77022 0.8015 0.57377 0.0
H190 H 0.65707 0.6947 0.55948 0.0
H191 H 0.63913 0.6972 0.61532 0.0
H192 H 0.73807 0.69734 0.54374 0.0
H193 H 0.65715 0.76001 0.52618 0.0
H194 H 0.64041 0.81292 0.53531 0.0
H195 H 0.75697 0.9013 0.50367 0.0
H196 H 0.77458 0.8489 0.49482 0.0
H197 H 0.71774 0.64826 0.3813 0.0
H198 H 0.71163 0.66219 0.43712 0.0
H199 H 0.79643 0.78691 0.42224 0.0
H200 H 0.80131 0.77334 0.36562 0.0
H201 H 0.73804 0.78174 0.45466 0.0
H202 H 0.81913 0.72324 0.46658 0.0
H203 H 0.84142 0.67425 0.4589 0.0
H204 H 0.73433 0.58357 0.5032 0.0
H205 H 0.7111 0.63186 0.51075 0.0
C206 C 0.73159 0.78014 0.61472 0.0
C207 C 0.69476 0.75061 0.627 0.0
C208 C 0.74144 0.77896 0.58271 0.0
C209 C 0.71488 0.74791 0.56277 0.0
C210 C 0.67782 0.71889 0.57469 0.0
C211 C 0.66759 0.72049 0.60648 0.0
C212 C 0.72668 0.74419 0.52997 0.0
C213 C 0.73778 0.71543 0.52408 0.0
C214 C 0.72798 0.7692 0.50498 0.0
C215 C 0.71735 0.80062 0.51027 0.0
C216 C 0.67936 0.79077 0.52154 0.0
C217 C 0.66967 0.82065 0.52656 0.0
C218 C 0.69766 0.86047 0.52019 0.0
C219 C 0.73535 0.87046 0.50867 0.0
C220 C 0.74519 0.84069 0.50363 0.0
C221 C 0.73557 0.6786 0.38994 0.0
C222 C 0.76011 0.7097 0.36905 0.0
C223 C 0.73218 0.68651 0.42198 0.0
C224 C 0.75405 0.72552 0.43411 0.0
C225 C 0.7793 0.75656 0.41346 0.0
C226 C 0.78218 0.74876 0.38116 0.0
C227 C 0.74856 0.73388 0.46786 0.0
C228 C 0.73883 0.76371 0.47415 0.0
C229 C 0.74939 0.71037 0.49343 0.0
C230 C 0.76325 0.68116 0.48903 0.0
C231 C 0.80019 0.69278 0.47449 0.0
C232 C 0.81302 0.66514 0.47019 0.0
C233 C 0.78928 0.62581 0.4805 0.0
C234 C 0.75269 0.61405 0.49521 0.0
C235 C 0.7397 0.64157 0.49955 0.0
H236 H 0.79926 0.60445 0.47715 0.0
H237 H 0.6901 0.88356 0.52408 0.0
H238 H 0.00222 0.32846 0.11261 0.0
H239 H 0.01753 0.3399 0.05593 0.0
H240 H 0.89261 0.26963 0.03339 0.0
H241 H 0.87703 0.2567 0.09052 0.0
H242 H 0.93241 0.24973 0.99505 0.0
H243 H 0.94637 0.37435 0.02617 0.0
H244 H 0.96937 0.43533 0.05859 0.0
H245 H 0.09062 0.47219 0.03488 0.0
H246 H 0.0684 0.41114 0.00267 0.0
H247 H 0.96639 0.31138 0.83193 0.0
H248 H 0.94522 0.30453 0.88773 0.0
H249 H 0.06646 0.35116 0.91848 0.0
H250 H 0.08809 0.35794 0.86253 0.0
H251 H 0.0244 0.38411 0.95112 0.0
H252 H 0.00733 0.25539 0.92165 0.0
H253 H 0.98167 0.19493 0.88814 0.0
H254 H 0.86183 0.16716 0.90755 0.0
H255 H 0.88681 0.22781 0.94083 0.0
C256 C 0.97782 0.31569 0.09572 0.0
C257 C 0.93831 0.29176 0.1062 0.0
C258 C 0.98667 0.32247 0.06319 0.0
C259 C 0.95622 0.30627 0.04028 0.0
C260 C 0.91664 0.2826 0.05061 0.0
C261 C 0.90775 0.27532 0.08327 0.0
C262 C 0.9662 0.31268 0.0056 0.0
C263 C 0.95191 0.27923 0.98539 0.0
C264 C 0.99216 0.3511 0.99292 0.0
C265 C 0.0057 0.38798 0.01219 0.0
C266 C 0.97796 0.39531 0.02805 0.0
C267 C 0.99086 0.42992 0.04636 0.0
C268 C 0.03143 0.45758 0.04885 0.0
C269 C 0.0592 0.45073 0.03296 0.0
C270 C 0.04646 0.41615 0.01463 0.0
C271 C 0.9887 0.32044 0.85049 0.0
C272 C 0.02899 0.33514 0.84273 0.0
C273 C 0.97646 0.31636 0.88238 0.0
C274 C 0.00423 0.32707 0.90717 0.0
C275 C 0.04459 0.34269 0.89962 0.0
C276 C 0.05686 0.34642 0.86767 0.0
C277 C 0.99097 0.32121 0.941 0.0
C278 C 0.00465 0.35475 0.96092 0.0
C279 C 0.96399 0.28299 0.95328 0.0
C280 C 0.94896 0.24637 0.93346 0.0
C281 C 0.97551 0.23658 0.91856 0.0
C282 C 0.96109 0.20224 0.89964 0.0
C283 C 0.92014 0.17728 0.89564 0.0
C284 C 0.89354 0.18655 0.91063 0.0
C285 C 0.90781 0.22089 0.92954 0.0
H286 H 0.90903 0.1507 0.88099 0.0
H287 H 0.04136 0.48435 0.06304 0.0
H288 H 0.22538 0.01865 0.38287 0.0
H289 H 0.20688 0.00233 0.43893 0.0
H290 H 0.33084 0.0628 0.46531 0.0
H291 H 0.34975 0.07961 0.40922 0.0
H292 H 0.22271 0.95637 0.47611 0.0
H293 H 0.34071 0.10011 0.54119 0.0
H294 H 0.37722 0.1729 0.53257 0.0
H295 H 0.28423 0.16239 0.47084 0.0
H296 H 0.24689 0.08965 0.47944 0.0
H297 H 0.26422 0.92125 0.63224 0.0
H298 H 0.26677 0.94267 0.57716 0.0
H299 H 0.20573 0.00561 0.60448 0.0
H300 H 0.20309 0.98428 0.66018 0.0
H301 H 0.27174 0.05154 0.56723 0.0
H302 H 0.15646 0.92243 0.56263 0.0
H303 H 0.11645 0.84984 0.57135 0.0
H304 H 0.19642 0.83162 0.51187 0.0
H305 H 0.23726 0.90418 0.50315 0.0
C306 C 0.2488 0.02894 0.40057 0.0
C307 C 0.28912 0.05033 0.39147 0.0
C308 C 0.23811 0.01949 0.43263 0.0
C309 C 0.26743 0.03144 0.45631 0.0
C310 C 0.30769 0.0537 0.44748 0.0
C311 C 0.31845 0.06314 0.41536 0.0
C312 C 0.256 0.0183 0.4899 0.0
C313 C 0.23326 0.97722 0.49601 0.0
C314 C 0.2691 0.04553 0.51583 0.0
C315 C 0.29117 0.08935 0.51076 0.0
C316 C 0.32797 0.11335 0.52588 0.0
C317 C 0.34882 0.1546 0.52098 0.0
C318 C 0.33311 0.17224 0.5011 0.0
C319 C 0.29644 0.14867 0.48614 0.0
C320 C 0.27545 0.10742 0.49098 0.0
C321 C 0.251 0.9394 0.62665 0.0
C322 C 0.2336 0.95126 0.65072 0.0
C323 C 0.25244 0.95155 0.59507 0.0
C324 C 0.23636 0.97565 0.58676 0.0
C325 C 0.21846 0.98716 0.61053 0.0
C326 C 0.21689 0.97488 0.64224 0.0
C327 C 0.23955 0.98963 0.55334 0.0
C328 C 0.26083 0.0308 0.54727 0.0
C329 C 0.22465 0.96253 0.52738 0.0
C330 C 0.20007 0.91881 0.53241 0.0
C331 C 0.16568 0.90298 0.55159 0.0
C332 C 0.14282 0.86182 0.5565 0.0
C333 C 0.15392 0.83614 0.54221 0.0
C334 C 0.18786 0.85155 0.52293 0.0
C335 C 0.21085 0.89269 0.51796 0.0
H336 H 0.13619 0.80428 0.54605 0.0
H337 H 0.34932 0.20418 0.49732 0.0
H338 H 0.68884 0.66569 0.86109 0.0
H339 H 0.69083 0.6514 0.91748 0.0
H340 H 0.62121 0.707 0.94071 0.0
H341 H 0.62107 0.72339 0.88412 0.0
H342 H 0.6763 0.7296 0.98158 0.0
H343 H 0.5822 0.60144 0.94196 0.0
H344 H 0.55468 0.54285 0.9062 0.0
H345 H 0.64915 0.52115 0.93212 0.0
H346 H 0.67758 0.57996 0.96772 0.0
H347 H 0.64441 0.65709 0.14038 0.0
H348 H 0.62846 0.65891 0.08425 0.0
H349 H 0.72657 0.64314 0.05571 0.0
H350 H 0.74326 0.64169 0.11202 0.0
H351 H 0.65065 0.59726 0.01923 0.0
H352 H 0.74537 0.73155 0.05657 0.0
H353 H 0.76708 0.78763 0.09448 0.0
H354 H 0.66194 0.79387 0.07427 0.0
H355 H 0.63932 0.73739 0.03657 0.0
C356 C 0.67369 0.67463 0.87818 0.0
C357 C 0.65461 0.69547 0.86825 0.0
C358 C 0.6746 0.66617 0.91043 0.0
C359 C 0.65537 0.67725 0.93337 0.0
C360 C 0.63612 0.69798 0.92346 0.0
C361 C 0.636 0.7073 0.89117 0.0
C362 C 0.65719 0.66884 0.96777 0.0
C363 C 0.66991 0.70041 0.98976 0.0
C364 C 0.64927 0.63086 0.97864 0.0
C365 C 0.63219 0.59532 0.95734 0.0
C366 C 0.59727 0.58434 0.93988 0.0
C367 C 0.58148 0.55107 0.91966 0.0
C368 C 0.6002 0.52834 0.91684 0.0
C369 C 0.6347 0.5388 0.93431 0.0
C370 C 0.65063 0.57207 0.95455 0.0
C371 C 0.66231 0.65335 0.12227 0.0
C372 C 0.6954 0.64963 0.13068 0.0
C373 C 0.6531 0.65443 0.09022 0.0
C374 C 0.67656 0.65148 0.06604 0.0
C375 C 0.70819 0.64546 0.0742 0.0
C376 C 0.71774 0.6448 0.10632 0.0
C377 C 0.67008 0.65802 0.03239 0.0
C378 C 0.65655 0.62619 0.01075 0.0
C379 C 0.67639 0.69544 0.02194 0.0
C380 C 0.69048 0.73001 0.04401 0.0
C381 C 0.72676 0.74471 0.06038 0.0
C382 C 0.73925 0.77659 0.0818 0.0
C383 C 0.71585 0.79423 0.08686 0.0
C384 C 0.68 0.78014 0.07037 0.0
C385 C 0.66736 0.74823 0.04895 0.0
H386 H 0.72552 0.81885 0.1035 0.0
H387 H 0.58794 0.5026 0.90117 0.0
H388 H 0.96338 0.19646 0.33918 0.0
H389 H 0.9904 0.20451 0.39359 0.0
H390 H 0.97071 0.30336 0.40984 0.0
H391 H 0.94299 0.29513 0.35628 0.0
H392 H 0.0515 0.31544 0.4254 0.0
H393 H 0.90886 0.2257 0.44183 0.0
H394 H 0.84569 0.16336 0.43213 0.0
H395 H 0.89872 0.09482 0.46308 0.0
H396 H 0.96242 0.15684 0.47253 0.0
H397 H 0.06469 0.36311 0.58868 0.0
H398 H 0.04838 0.34691 0.53232 0.0
H399 H 0.03604 0.23094 0.54736 0.0
H400 H 0.05078 0.24644 0.60416 0.0
H401 H 0.97749 0.22156 0.51353 0.0
H402 H 0.1165 0.30773 0.50438 0.0
H403 H 0.1819 0.36773 0.51316 0.0
H404 H 0.14133 0.43986 0.46706 0.0
H405 H 0.07547 0.38037 0.45839 0.0
C406 C 0.96451 0.21967 0.35447 0.0
C407 C 0.95075 0.24496 0.34344 0.0
C408 C 0.98001 0.22426 0.38545 0.0
C409 C 0.98258 0.2546 0.40556 0.0
C410 C 0.96905 0.27987 0.39458 0.0
C411 C 0.95296 0.27489 0.364 0.0
C412 C -0.00082 0.26042 0.43824 0.0
C413 C 0.03541 0.29508 0.44479 0.0
C414 C 0.97878 0.23302 0.46309 0.0
C415 C 0.94051 0.19584 0.45746 0.0
C416 C 0.90717 0.19733 0.44624 0.0
C417 C 0.87124 0.16206 0.44086 0.0
C418 C 0.86823 0.12514 0.44687 0.0
C419 C 0.90112 0.12343 0.45836 0.0
C420 C 0.93713 0.15862 0.46374 0.0
C421 C 0.05899 0.33434 0.57994 0.0
C422 C 0.05906 0.3061 0.60094 0.0
C423 C 0.04984 0.32514 0.54759 0.0
C424 C 0.04149 0.28785 0.53532 0.0
C425 C 0.04235 0.2599 0.55616 0.0
C426 C 0.0509 0.26886 0.58863 0.0
C427 C 0.02968 0.2774 0.50122 0.0
C428 C 0.99426 0.2418 0.49426 0.0
C429 C 0.05131 0.30363 0.47585 0.0
C430 C 0.09092 0.33958 0.48094 0.0
C431 C 0.12142 0.33642 0.49631 0.0
C432 C 0.15859 0.37034 0.50124 0.0
C433 C 0.16574 0.4076 0.49073 0.0
C434 C 0.13574 0.41099 0.4752 0.0
C435 C 0.0985 0.37716 0.47023 0.0
H436 H 0.19455 0.43382 0.49457 0.0
H437 H 0.84039 0.09787 0.44271 0.0
H438 H 0.45834 0.07115 0.34006 0.0
H439 H 0.52914 0.09363 0.33598 0.0
H440 H 0.50969 0.03452 0.24469 0.0
H441 H 0.43854 0.01155 0.24865 0.0
H442 H 0.57704 0.04077 0.28263 0.0
H443 H 0.5248 0.12226 0.23935 0.0
H444 H 0.48574 0.15663 0.24221 0.0
H445 H 0.55355 0.22367 0.32373 0.0
H446 H 0.59304 0.18972 0.32132 0.0
H447 H 0.75526 0.17284 0.20041 0.0
H448 H 0.68502 0.13278 0.21487 0.0
H449 H 0.70729 0.19963 0.30262 0.0
H450 H 0.77788 0.23966 0.28854 0.0
H451 H 0.63935 0.18752 0.26922 0.0
H452 H 0.69783 0.1136 0.30829 0.0
H453 H 0.73797 0.08051 0.30617 0.0
H454 H 0.65969 -0.00118 0.23513 0.0
H455 H 0.61941 0.03201 0.2363 0.0
C456 C 0.46883 0.06154 0.31971 0.0
C457 C 0.44312 0.04038 0.29433 0.0
C458 C 0.50928 0.07438 0.31745 0.0
C459 C 0.52456 0.06644 0.28971 0.0
C460 C 0.49833 0.041 0.26622 0.0
C461 C 0.45767 0.02789 0.26855 0.0
C462 C 0.56742 0.09093 0.28252 0.0
C463 C 0.59072 0.07276 0.27938 0.0
C464 C 0.58518 0.13275 0.27887 0.0
C465 C 0.56162 0.15328 0.2803 0.0
C466 C 0.53122 0.14419 0.25797 0.0
C467 C 0.5091 0.16366 0.25945 0.0
C468 C 0.51727 0.19235 0.28309 0.0
C469 C 0.54739 0.20152 0.30538 0.0
C470 C 0.56972 0.18229 0.30391 0.0
C471 C 0.74513 0.1795 0.22254 0.0
C472 C 0.77202 0.20939 0.24338 0.0
C473 C 0.70512 0.15629 0.2309 0.0
C474 C 0.69131 0.1629 0.26001 0.0
C475 C 0.71762 0.19394 0.28017 0.0
C476 C 0.75781 0.2168 0.27207 0.0
C477 C 0.64923 0.13751 0.26926 0.0
C478 C 0.62591 0.15555 0.27261 0.0
C479 C 0.63172 0.09569 0.27313 0.0
C480 C 0.65587 0.07566 0.27209 0.0
C481 C 0.68941 0.08891 0.2919 0.0
C482 C 0.71214 0.07009 0.29093 0.0
C483 C 0.70146 0.0377 0.27045 0.0
C484 C 0.66797 0.02401 0.25091 0.0
C485 C 0.64516 0.04283 0.25172 0.0
H486 H 0.7191 0.02318 0.26988 0.0
H487 H 0.50047 0.20768 0.284 0.0
H488 H 0.58412 0.54554 0.23103 0.0
H489 H 0.53613 0.47405 0.23489 0.0
H490 H 0.58454 0.47021 0.32678 0.0
H491 H 0.63309 0.54117 0.32259 0.0
H492 H 0.58553 0.41747 0.28825 0.0
H493 H 0.48825 0.45353 0.31789 0.0
H494 H 0.44932 0.4877 0.31273 0.0
H495 H 0.40251 0.4288 0.22288 0.0
H496 H 0.44159 0.39468 0.22727 0.0
H497 H 0.44343 0.21341 0.32294 0.0
H498 H 0.48197 0.28642 0.32497 0.0
H499 H 0.45213 0.29206 0.22658 0.0
H500 H 0.41435 0.21936 0.22399 0.0
H501 H 0.4399 0.34302 0.26963 0.0
H502 H 0.53906 0.30982 0.23884 0.0
H503 H 0.57895 0.27657 0.24288 0.0
H504 H 0.62245 0.33085 0.33472 0.0
H505 H 0.58227 0.36397 0.33147 0.0
C506 C 0.58364 0.52965 0.25247 0.0
C507 C 0.61249 0.54873 0.27638 0.0
C508 C 0.55623 0.48879 0.25467 0.0
C509 C 0.5569 0.4667 0.28107 0.0
C510 C 0.58372 0.48655 0.30607 0.0
C511 C 0.61133 0.52712 0.3037 0.0
C512 C 0.53317 0.42248 0.28106 0.0
C513 C 0.55354 0.40125 0.28483 0.0
C514 C 0.49166 0.40129 0.27551 0.0
C515 C 0.46816 0.42183 0.27278 0.0
C516 C 0.46993 0.44812 0.29689 0.0
C517 C 0.44777 0.46743 0.29413 0.0
C518 C 0.42354 0.4605 0.26746 0.0
C519 C 0.42133 0.43417 0.24351 0.0
C520 C 0.44345 0.41481 0.24614 0.0
C521 C 0.44531 0.23016 0.30166 0.0
C522 C 0.42597 0.21049 0.27326 0.0
C523 C 0.46727 0.27181 0.30289 0.0
C524 C 0.46967 0.29443 0.27593 0.0
C525 C 0.45042 0.27501 0.24763 0.0
C526 C 0.42907 0.23344 0.2462 0.0
C527 C 0.49233 0.33846 0.2772 0.0
C528 C 0.47181 0.35948 0.27344 0.0
C529 C 0.53372 0.35955 0.28276 0.0
C530 C 0.5573 0.33903 0.28507 0.0
C531 C 0.55676 0.31432 0.26007 0.0
C532 C 0.57956 0.29564 0.26215 0.0
C533 C 0.60328 0.30168 0.289 0.0
C534 C 0.6041 0.32626 0.31391 0.0
C535 C 0.58132 0.345 0.31196 0.0
H536 H 0.62096 0.28723 0.29054 0.0
H537 H 0.4064 0.47547 0.26537 0.0
H538 H 0.92613 0.38467 0.29819 0.0
H539 H 0.91242 0.43959 0.30072 0.0
H540 H 0.95841 0.4749 0.20507 0.0
H541 H 0.97244 0.41969 0.20233 0.0
H542 H 0.97074 0.54067 0.25183 0.0
H543 H 0.86925 0.41547 0.20608 0.0
H544 H 0.82713 0.34217 0.20616 0.0
H545 H 0.77428 0.34763 0.29507 0.0
H546 H 0.81673 0.42097 0.29583 0.0
H547 H 0.84326 0.61784 0.205 0.0
H548 H 0.88213 0.58399 0.20783 0.0
H549 H 0.82995 0.53496 0.29963 0.0
H550 H 0.79148 0.56925 0.29741 0.0
H551 H 0.8236 0.47831 0.25369 0.0
H552 H 0.92451 0.59826 0.30349 0.0
H553 H 0.9723 0.66988 0.31135 0.0
H554 H 0.0257 0.6743 0.2202 0.0
H555 H 0.9786 0.60246 0.21207 0.0
C556 C 0.93456 0.40489 0.27806 0.0
C557 C 0.94965 0.39756 0.24983 0.0
C558 C 0.9268 0.43628 0.27959 0.0
C559 C 0.93375 0.46065 0.25287 0.0
C560 C 0.95283 0.45622 0.22588 0.0
C561 C 0.96083 0.42474 0.22437 0.0
C562 C 0.91486 0.48557 0.25143 0.0
C563 C 0.93861 0.52721 0.25163 0.0
C564 C 0.87292 0.46769 0.25208 0.0
C565 C 0.84645 0.42369 0.25116 0.0
C566 C 0.84885 0.40103 0.22575 0.0
C567 C 0.82491 0.35947 0.22565 0.0
C568 C 0.79812 0.34024 0.25065 0.0
C569 C 0.79509 0.36256 0.27574 0.0
C570 C 0.81907 0.40413 0.27602 0.0
C571 C 0.84008 0.59994 0.22586 0.0
C572 C 0.81404 0.59604 0.2509 0.0
C573 C 0.86265 0.58099 0.22755 0.0
C574 C 0.85912 0.55735 0.25406 0.0
C575 C 0.83326 0.55339 0.2791 0.0
C576 C 0.81117 0.57284 0.27769 0.0
C577 C 0.87942 0.53366 0.2542 0.0
C578 C 0.85576 0.49198 0.25359 0.0
C579 C 0.92133 0.55156 0.25341 0.0
C580 C 0.94781 0.59517 0.25703 0.0
C581 C 0.94621 0.61462 0.28499 0.0
C582 C 0.97346 0.65511 0.28967 0.0
C583 C 0.0021 0.6766 0.26634 0.0
C584 C 0.00357 0.65759 0.23829 0.0
C585 C 0.97673 0.61695 0.2337 0.0
H586 H 0.02298 0.70802 0.2699 0.0
H587 H 0.77966 0.30806 0.25055 0.0
H588 H 0.01486 0.44007 0.75518 0.0
H589 H 0.03581 0.51075 0.76124 0.0
H590 H 0.08096 0.53262 0.66453 0.0
H591 H 0.061 0.46229 0.65869 0.0
H592 H 0.13832 0.57329 0.70601 0.0
H593 H 0.00775 0.55252 0.68849 0.0
H594 H 0.93537 0.5225 0.69603 0.0
H595 H 0.95355 0.56096 0.7941 0.0
H596 H 0.02605 0.59074 0.7873 0.0
H597 H 0.21659 0.78187 0.7045 0.0
H598 H 0.17747 0.71035 0.69429 0.0
H599 H 0.14018 0.68993 0.79307 0.0
H600 H 0.17907 0.76176 0.80357 0.0
H601 H 0.0774 0.6492 0.75073 0.0
H602 H 0.20756 0.66722 0.76837 0.0
H603 H 0.28002 0.6982 0.76041 0.0
H604 H 0.26171 0.66441 0.66127 0.0
H605 H 0.18914 0.63367 0.66852 0.0
C606 C 0.02758 0.45962 0.73474 0.0
C607 C 0.03685 0.44596 0.70662 0.0
C608 C 0.03964 0.50008 0.73825 0.0
C609 C 0.06047 0.52705 0.71347 0.0
C610 C 0.06532 0.51238 0.68406 0.0
C611 C 0.05375 0.47218 0.68069 0.0
C612 C 0.08341 0.57051 0.71997 0.0
C613 C 0.12477 0.58999 0.71518 0.0
C614 C 0.06602 0.59195 0.73313 0.0
C615 C 0.02237 0.57352 0.73745 0.0
C616 C -0.00368 0.55421 0.71177 0.0
C617 C 0.95525 0.53732 0.71589 0.0
C618 C 0.93986 0.53973 0.74555 0.0
C619 C 0.96551 0.55907 0.77115 0.0
C620 C 0.0066 0.57599 0.76716 0.0
C621 C 0.20041 0.76222 0.72419 0.0
C622 C 0.20106 0.77754 0.7549 0.0
C623 C 0.17805 0.72134 0.71828 0.0
C624 C 0.15603 0.69493 0.74295 0.0
C625 C 0.15694 0.70993 0.77373 0.0
C626 C 0.17946 0.75091 0.77972 0.0
C627 C 0.13193 0.65167 0.73634 0.0
C628 C 0.09063 0.63231 0.74134 0.0
C629 C 0.14926 0.63016 0.72334 0.0
C630 C 0.19292 0.64848 0.71893 0.0
C631 C 0.219 0.66667 0.74481 0.0
C632 C 0.26008 0.68413 0.74044 0.0
C633 C 0.27545 0.68336 0.71034 0.0
C634 C 0.24976 0.66502 0.68456 0.0
C635 C 0.20864 0.64754 0.6888 0.0
H636 H 0.30724 0.69692 0.707 0.0
H637 H 0.90807 0.5267 0.74867 0.0
H638 H 0.41308 0.96354 0.78737 0.0
H639 H 0.46105 0.94005 0.78418 0.0
H640 H 0.42055 0.89565 0.68875 0.0
H641 H 0.37242 0.91856 0.69195 0.0
H642 H 0.41298 0.83758 0.72754 0.0
H643 H 0.51515 0.9703 0.70197 0.0
H644 H 0.55608 0.0432 0.70866 0.0
H645 H 0.59673 0.02699 0.7998 0.0
H646 H 0.55559 0.95394 0.79387 0.0
H647 H 0.54632 0.76468 0.69868 0.0
H648 H 0.51006 0.80118 0.69574 0.0
H649 H 0.54533 0.84346 0.79236 0.0
H650 H 0.58181 0.80741 0.79554 0.0
H651 H 0.55727 0.90381 0.75138 0.0
H652 H 0.45239 0.77205 0.77858 0.0
H653 H 0.41232 0.69901 0.77215 0.0
H654 H 0.37746 0.71384 0.67811 0.0
H655 H 0.41749 0.78704 0.68393 0.0
C656 C 0.41552 0.95017 0.76528 0.0
C657 C 0.38877 0.94245 0.74005 0.0
C658 C 0.44283 0.93661 0.7635 0.0
C659 C 0.44399 0.91567 0.73634 0.0
C660 C 0.41983 0.91135 0.71004 0.0
C661 C 0.39249 0.92462 0.71186 0.0
C662 C 0.46624 0.89378 0.73684 0.0
C663 C 0.4447 0.85224 0.73218 0.0
C664 C 0.50731 0.91268 0.74388 0.0
C665 C 0.53195 0.95662 0.7476 0.0
C666 C 0.53251 0.98226 0.72358 0.0
C667 C 0.55582 0.02362 0.72721 0.0
C668 C 0.57891 0.03972 0.75467 0.0
C669 C 0.57879 0.01448 0.77855 0.0
C670 C 0.55551 0.97309 0.77505 0.0
C671 C 0.54611 0.78146 0.7194 0.0
C672 C 0.56706 0.78318 0.7473 0.0
C673 C 0.52539 0.80231 0.71767 0.0
C674 C 0.52516 0.82507 0.74383 0.0
C675 C 0.54541 0.82627 0.77186 0.0
C676 C 0.56599 0.80537 0.77367 0.0
C677 C 0.50398 0.84787 0.74194 0.0
C678 C 0.52562 0.88939 0.74651 0.0
C679 C 0.46295 0.829 0.73492 0.0
C680 C 0.43823 0.78501 0.73158 0.0
C681 C 0.43634 0.75973 0.75646 0.0
C682 C 0.41361 0.71831 0.75294 0.0
C683 C 0.3925 0.70179 0.72469 0.0
C684 C 0.3939 0.72669 0.69996 0.0
C685 C 0.4165 0.76814 0.7034 0.0
H686 H 0.37497 0.66971 0.72199 0.0
H687 H 0.59695 0.07175 0.75743 0.0
H688 H 0.21839 0.43453 0.6752 0.0
H689 H 0.29099 0.46809 0.67711 0.0
H690 H 0.28798 0.48407 0.77905 0.0
H691 H 0.21529 0.45016 0.77751 0.0
H692 H 0.3499 0.55119 0.7459 0.0
H693 H 0.29383 0.41028 0.75672 0.0
H694 H 0.24982 0.34012 0.74119 0.0
H695 H 0.31424 0.36007 0.6531 0.0
H696 H 0.35762 0.43089 0.66747 0.0
H697 H 0.54158 0.58546 0.78167 0.0
H698 H 0.46936 0.54065 0.78118 0.0
H699 H 0.46878 0.55001 0.67845 0.0
H700 H 0.54073 0.59609 0.67893 0.0
H701 H 0.40873 0.4676 0.71477 0.0
H702 H 0.45491 0.61074 0.70066 0.0
H703 H 0.49678 0.68168 0.71542 0.0
H704 H 0.45039 0.65565 0.81116 0.0
H705 H 0.40874 0.58438 0.79704 0.0
C706 C 0.23316 0.44595 0.69793 0.0
C707 C 0.21115 0.43941 0.72627 0.0
C708 C 0.27458 0.46488 0.69898 0.0
C709 C 0.29455 0.47789 0.72829 0.0
C710 C 0.27292 0.47398 0.75626 0.0
C711 C 0.23147 0.45457 0.75532 0.0
C712 C 0.33773 0.49313 0.73002 0.0
C713 C 0.3627 0.53279 0.73944 0.0
C714 C 0.35423 0.46897 0.72144 0.0
C715 C 0.32873 0.42612 0.71302 0.0
C716 C 0.29837 0.39989 0.73386 0.0
C717 C 0.27353 0.35996 0.72528 0.0
C718 C 0.27928 0.34562 0.69621 0.0
C719 C 0.30981 0.37123 0.67562 0.0
C720 C 0.33446 0.41132 0.68392 0.0
C721 C 0.52629 0.57641 0.75889 0.0
C722 C 0.54643 0.59407 0.73032 0.0
C723 C 0.48511 0.55107 0.75867 0.0
C724 C 0.46404 0.54249 0.7298 0.0
C725 C 0.48476 0.55631 0.70089 0.0
C726 C 0.52574 0.58247 0.70118 0.0
C727 C 0.42064 0.52564 0.73026 0.0
C728 C 0.39573 0.48576 0.72135 0.0
C729 C 0.40405 0.54947 0.73936 0.0
C730 C 0.42925 0.59219 0.74795 0.0
C731 C 0.45407 0.62007 0.72497 0.0
C732 C 0.47766 0.66034 0.73318 0.0
C733 C 0.4764 0.67312 0.76425 0.0
C734 C 0.45147 0.64567 0.78714 0.0
C735 C 0.42787 0.60534 0.77905 0.0
H736 H 0.49454 0.70432 0.77055 0.0
H737 H 0.26013 0.31468 0.68965 0.0
H738 H 0.18449 0.07971 0.26558 0.0
H739 H 0.15142 0.11868 0.25631 0.0
H740 H 0.25931 0.21305 0.21453 0.0
H741 H 0.29187 0.17397 0.22259 0.0
H742 H 0.16458 0.18844 0.27745 0.0
H743 H 0.23765 0.25884 0.15609 0.0
H744 H 0.26647 0.24357 0.10912 0.0
H745 H 0.1934 0.11814 0.12747 0.0
H746 H 0.16378 0.13266 0.17426 0.0
H747 H 0.08857 0.31466 0.24195 0.0
H748 H 0.14365 0.30045 0.24362 0.0
H749 H 0.08084 0.20339 0.1769 0.0
H750 H 0.02631 0.21741 0.17533 0.0
H751 H 0.16034 0.23774 0.16885 0.0
H752 H 0.06245 0.18658 0.25456 0.0
H753 H 0.02538 0.19426 0.29949 0.0
H754 H 0.13488 0.26709 0.34964 0.0
H755 H 0.17264 0.26035 0.30471 0.0
C756 C 0.20097 0.10864 0.25424 0.0
C757 C 0.24054 0.12355 0.24445 0.0
C758 C 0.18219 0.13096 0.24913 0.0
C759 C 0.20283 0.16858 0.23442 0.0
C760 C 0.24258 0.18378 0.2253 0.0
C761 C 0.2611 0.16132 0.22992 0.0
C762 C 0.18266 0.19175 0.22819 0.0
C763 C 0.16392 0.19945 0.25375 0.0
C764 C 0.1817 0.20602 0.19723 0.0
C765 C 0.19887 0.19689 0.16887 0.0
C766 C 0.22766 0.22801 0.15002 0.0
C767 C 0.24414 0.21948 0.12344 0.0
C768 C 0.23188 0.17992 0.11539 0.0
C769 C 0.20298 0.14878 0.13381 0.0
C770 C 0.18637 0.15714 0.16037 0.0
C771 C 0.08753 0.29147 0.2267 0.0
C772 C 0.05339 0.2668 0.20875 0.0
C773 C 0.11876 0.28324 0.22777 0.0
C774 C 0.11587 0.25047 0.21076 0.0
C775 C 0.08362 0.22876 0.1902 0.0
C776 C 0.05245 0.23667 0.18939 0.0
C777 C 0.14214 0.23414 0.21801 0.0
C778 C 0.16198 0.22762 0.19268 0.0
C779 C 0.14304 0.21982 0.24893 0.0
C780 C 0.12037 0.22338 0.27615 0.0
C781 C 0.07862 0.20444 0.27509 0.0
C782 C 0.05748 0.20861 0.30054 0.0
C783 C 0.07777 0.23125 0.32736 0.0
C784 C 0.11922 0.24965 0.32882 0.0
C785 C 0.1405 0.24568 0.30337 0.0
H786 H 0.06136 0.23445 0.34704 0.0
H787 H 0.24471 0.17338 0.09483 0.0
H788 H 0.88493 0.75322 0.17361 0.0
H789 H 0.9573 0.78552 0.17042 0.0
H790 H 0.96775 0.85018 0.25739 0.0
H791 H 0.89538 0.81819 0.26096 0.0
H792 H 0.03246 0.88863 0.19699 0.0
H793 H 0.98375 0.78411 0.29091 0.0
H794 H 0.92554 0.72019 0.3073 0.0
H795 H 0.92198 0.67095 0.21428 0.0
H796 H 0.9802 0.73456 0.19752 0.0
H797 H 0.18343 0.9128 0.30798 0.0
H798 H 0.11491 0.86692 0.29167 0.0
H799 H 0.15404 0.87188 0.19425 0.0
H800 H 0.22293 0.91687 0.21074 0.0
H801 H 0.06497 0.79455 0.25173 0.0
H802 H 0.10561 0.91362 0.1566 0.0
H803 H 0.15816 0.98281 0.14499 0.0
H804 H 0.17507 0.00844 0.24563 0.0
H805 H 0.1223 0.93969 0.25773 0.0
C806 C 0.90255 0.77527 0.19156 0.0
C807 C 0.88436 0.78256 0.21792 0.0
C808 C 0.9439 0.79382 0.18953 0.0
C809 C 0.96752 0.81994 0.21373 0.0
C810 C 0.94975 0.83022 0.23839 0.0
C811 C 0.90839 0.81175 0.24045 0.0
C812 C 0.00925 0.82999 0.21704 0.0
C813 C 0.03977 0.86781 0.20809 0.0
C814 C 0.01841 0.80307 0.23229 0.0
C815 C 0.98634 0.76371 0.24315 0.0
C816 C 0.97078 0.75938 0.27418 0.0
C817 C 0.93763 0.72339 0.28342 0.0
C818 C 0.91988 0.69162 0.26178 0.0
C819 C 0.93553 0.69563 0.23096 0.0
C820 C 0.96873 0.73155 0.22163 0.0
C821 C 0.17763 0.9021 0.28349 0.0
C822 C 0.20812 0.91816 0.26055 0.0
C823 C 0.13854 0.87595 0.27418 0.0
C824 C 0.12957 0.86659 0.24174 0.0
C825 C 0.16058 0.8788 0.21942 0.0
C826 C 0.19988 0.9043 0.22887 0.0
C827 C 0.08866 0.853 0.23082 0.0
C828 C 0.05805 0.81477 0.23911 0.0
C829 C 0.07946 0.87981 0.21512 0.0
C830 C 0.11043 0.92147 0.20802 0.0
C831 C 0.1205 0.93412 0.17619 0.0
C832 C 0.1503 0.97324 0.16954 0.0
C833 C 0.17005 -2e-05 0.19456 0.0
C834 C 0.15988 0.98771 0.22628 0.0
C835 C 0.13005 0.94867 0.23303 0.0
H836 H 0.19315 0.03023 0.18938 0.0
H837 H 0.8943 0.66381 0.26908 0.0
H838 H 0.88335 0.09011 0.22392 0.0
H839 H 0.83954 0.01787 0.2196 0.0
H840 H 0.74846 0.03572 0.17724 0.0
H841 H 0.79226 0.10807 0.1811 0.0
H842 H 0.72095 0.98182 0.22759 0.0
H843 H 0.79128 0.00141 0.13036 0.0
H844 H 0.84992 0.02739 0.09499 0.0
H845 H 0.89384 0.96271 0.14815 0.0
H846 H 0.83578 0.93681 0.18416 0.0
H847 H 0.676 0.7615 0.19103 0.0
H848 H 0.68291 0.82547 0.1744 0.0
H849 H 0.7247 0.87334 0.2688 0.0
H850 H 0.71906 0.81011 0.28506 0.0
H851 H 0.76065 0.89104 0.17668 0.0
H852 H 0.70216 0.94897 0.2814 0.0
H853 H 0.64317 0.92397 0.3162 0.0
H854 H 0.57383 0.83316 0.24718 0.0
H855 H 0.63216 0.85811 0.21159 0.0
C856 C 0.85418 0.07868 0.21336 0.0
C857 C 0.84133 0.10476 0.20274 0.0
C858 C 0.82926 0.03745 0.21077 0.0
C859 C 0.79094 0.02156 0.19782 0.0
C860 C 0.77804 0.04746 0.18707 0.0
C861 C 0.80317 0.08874 0.1892 0.0
C862 C 0.76383 0.97785 0.19744 0.0
C863 C 0.72936 0.96185 0.21636 0.0
C864 C 0.77423 0.95195 0.18174 0.0
C865 C 0.8092 0.9673 0.16006 0.0
C866 C 0.81357 0.99293 0.13465 0.0
C867 C 0.8467 0.00762 0.11446 0.0
C868 C 0.87561 0.99674 0.11934 0.0
C869 C 0.87141 0.9711 0.14439 0.0
C870 C 0.83836 0.95636 0.16467 0.0
C871 C 0.68492 0.78515 0.20856 0.0
C872 C 0.69699 0.78111 0.2393 0.0
C873 C 0.68905 0.82167 0.19901 0.0
C874 C 0.70425 0.85404 0.2204 0.0
C875 C 0.71247 0.84859 0.25205 0.0
C876 C 0.70927 0.81252 0.26134 0.0
C877 C 0.71917 0.89514 0.20867 0.0
C878 C 0.7516 0.91081 0.18746 0.0
C879 C 0.70696 0.92071 0.22245 0.0
C880 C 0.67172 0.90533 0.24385 0.0
C881 C 0.6743 0.92381 0.27351 0.0
C882 C 0.64096 0.90963 0.2934 0.0
C883 C 0.6048 0.87694 0.28394 0.0
C884 C 0.6019 0.8584 0.25453 0.0
C885 C 0.63513 0.87252 0.2345 0.0
H886 H 0.57902 0.86599 0.29939 0.0
H887 H 0.90124 0.00814 0.10368 0.0
H888 H 0.13279 0.25076 0.79618 0.0
H889 H 0.17652 0.22268 0.80238 0.0
H890 H 0.20386 0.2395 0.70133 0.0
H891 H 0.15754 0.26441 0.69489 0.0
H892 H 0.19458 0.17451 0.71368 0.0
H893 H 0.27542 0.29744 0.76545 0.0
H894 H 0.29243 0.35427 0.80165 0.0
H895 H 0.26043 0.27645 0.88287 0.0
H896 H 0.24264 0.2191 0.84708 0.0
H897 H 0.32017 0.09413 0.73804 0.0
H898 H 0.31155 0.15263 0.7325 0.0
H899 H 0.23375 0.11426 0.81468 0.0
H900 H 0.24156 0.05562 0.81971 0.0
H901 H 0.28329 0.20149 0.80697 0.0
H902 H 0.19424 0.07781 0.74632 0.0
H903 H 0.18134 0.02651 0.70546 0.0
H904 H 0.2406 0.11778 0.63462 0.0
H905 H 0.25442 0.16962 0.67521 0.0
C906 C 0.1481 0.24819 0.77537 0.0
C907 C 0.14148 0.25906 0.74502 0.0
C908 C 0.17365 0.2328 0.77895 0.0
C909 C 0.19444 0.22965 0.75246 0.0
C910 C 0.18826 0.2414 0.7222 0.0
C911 C 0.16167 0.25548 0.71846 0.0
C912 C 0.21983 0.21102 0.75581 0.0
C913 C 0.2148 0.18148 0.73366 0.0
C914 C 0.24645 0.21968 0.78176 0.0
C915 C 0.25733 0.25397 0.80354 0.0
C916 C 0.27168 0.29245 0.79101 0.0
C917 C 0.28152 0.32474 0.81145 0.0
C918 C 0.2774 0.31895 0.84454 0.0
C919 C 0.26357 0.28088 0.85724 0.0
C920 C 0.25366 0.24848 0.83688 0.0
C921 C 0.30269 0.09928 0.75567 0.0
C922 C 0.28155 0.07071 0.77933 0.0
C923 C 0.29765 0.1325 0.75244 0.0
C924 C 0.27181 0.13751 0.77309 0.0
C925 C 0.25396 0.11102 0.79865 0.0
C926 C 0.25839 0.07757 0.8015 0.0
C927 C 0.25731 0.16524 0.7651 0.0
C928 C 0.26405 0.19596 0.78652 0.0
C929 C 0.2334 0.1588 0.73783 0.0
C930 C 0.22577 0.12753 0.71383 0.0
C931 C 0.20491 0.08692 0.72212 0.0
C932 C 0.19737 0.05776 0.69901 0.0
C933 C 0.21015 0.06894 0.66749 0.0
C934 C 0.23076 0.10922 0.65905 0.0
C935 C 0.23849 0.13847 0.68209 0.0
H936 H 0.20387 0.04643 0.64951 0.0
H937 H 0.28502 0.34398 0.86034 0.0
H938 H 0.09184 0.90067 0.77505 0.0
H939 H 0.01965 0.85557 0.77638 0.0
H940 H 0.03689 0.76208 0.81483 0.0
H941 H 0.10883 0.80696 0.81428 0.0
H942 H 0.98777 0.74201 0.75753 0.0
H943 H -0.00064 0.79391 0.86322 0.0
H944 H 0.02159 0.84655 0.90438 0.0
H945 H 0.95686 0.89526 0.85786 0.0
H946 H 0.93472 0.84326 0.81613 0.0
H947 H 0.76321 0.6742 0.79849 0.0
H948 H 0.82913 0.68485 0.8128 0.0
H949 H 0.87585 0.74416 0.72266 0.0
H950 H 0.81056 0.73458 0.70871 0.0
H951 H 0.89073 0.76575 0.81711 0.0
H952 H 0.95457 0.73078 0.70288 0.0
H953 H 0.93273 0.67824 0.66167 0.0
H954 H 0.84581 0.59341 0.7265 0.0
H955 H 0.86745 0.64526 0.76826 0.0
C956 C 0.08022 0.87075 0.78429 0.0
C957 C 0.106 0.85742 0.7946 0.0
C958 C 0.03908 0.84507 0.78505 0.0
C959 C 0.02321 0.80562 0.79568 0.0
C960 C 0.04873 0.79247 0.8066 0.0
C961 C 0.08978 0.81828 0.80641 0.0
C962 C 0.98005 0.77759 0.79349 0.0
C963 C 0.96639 0.74679 0.77074 0.0
C964 C 0.9525 0.78353 0.81132 0.0
C965 C 0.96559 0.8148 0.83643 0.0
C966 C 0.99012 0.81603 0.86162 0.0
C967 C 0.00266 0.84572 0.88508 0.0
C968 C 0.99069 0.87427 0.88371 0.0
C969 C 0.96611 0.87313 0.85889 0.0
C970 C 0.95351 0.84351 0.83535 0.0
C971 C 0.78723 0.68806 0.78126 0.0
C972 C 0.78211 0.70379 0.7526 0.0
C973 C 0.8248 0.69426 0.78951 0.0
C974 C 0.85721 0.71527 0.76877 0.0
C975 C 0.8511 0.72753 0.73882 0.0
C976 C 0.81388 0.72214 0.73091 0.0
C977 C 0.89836 0.7311 0.78018 0.0
C978 C 0.91187 0.76006 0.80449 0.0
C979 C 0.92571 0.72345 0.76372 0.0
C980 C 0.91254 0.69204 0.73869 0.0
C981 C 0.93093 0.70088 0.70843 0.0
C982 C 0.91855 0.67121 0.68494 0.0
C983 C 0.88786 0.63253 0.69145 0.0
C984 C 0.86949 0.62342 0.72146 0.0
C985 C 0.88175 0.65297 0.74502 0.0
H986 H 0.87833 0.6096 0.67324 0.0
H987 H 0.00043 0.89723 0.9019 0.0
H988 H 0.93954 0.17705 0.68642 0.0
H989 H 0.8844 0.11099 0.69931 0.0
H990 H 0.85337 0.15997 0.78001 0.0
H991 H 0.90858 0.22674 0.76678 0.0
H992 H 0.86783 0.09874 0.79611 0.0
H993 H 0.78535 0.11726 0.72471 0.0
H994 H 0.76572 0.13801 0.67559 0.0
H995 H 0.78323 0.05404 0.62065 0.0
H996 H 0.80356 0.03316 0.66933 0.0
H997 H 0.72514 0.88425 0.8122 0.0
H998 H 0.75386 0.95687 0.81082 0.0
H999 H 0.81945 0.96274 0.72558 0.0
H1000 H 0.79148 0.89069 0.7268 0.0
H1001 H 0.77021 -0.00136 0.72074 0.0
H1002 H 0.867 0.99309 0.79154 0.0
H1003 H 0.88812 0.97411 0.84083 0.0
H1004 H 0.8428 0.03547 0.89746 0.0
H1005 H 0.82079 0.05425 0.84848 0.0
C1006 C 0.92024 0.17392 0.70633 0.0
C1007 C 0.92821 0.20677 0.72566 0.0
C1008 C 0.88866 0.13625 0.71361 0.0
C1009 C 0.86478 0.13071 0.74055 0.0
C1010 C 0.87137 0.16382 0.75901 0.0
C1011 C 0.90269 0.20183 0.75135 0.0
C1012 C 0.83707 0.08962 0.75128 0.0
C1013 C 0.84549 0.07692 0.78014 0.0
C1014 C 0.80825 0.06132 0.73029 0.0
C1015 C 0.79609 0.0737 0.70076 0.0
C1016 C 0.78529 0.10339 0.70213 0.0
C1017 C 0.77399 0.11515 0.67436 0.0
C1018 C 0.77324 0.09737 0.64502 0.0
C1019 C 0.78377 0.06776 0.6434 0.0
C1020 C 0.79511 0.05588 0.67111 0.0
C1021 C 0.74625 0.90109 0.79349 0.0
C1022 C 0.75579 0.88163 0.76944 0.0
C1023 C 0.76249 0.94249 0.79274 0.0
C1024 C 0.78825 0.96483 0.76788 0.0
C1025 C 0.79924 0.94577 0.74477 0.0
C1026 C 0.78341 0.90461 0.74565 0.0
C1027 C 0.80267 0.00785 0.7646 0.0
C1028 C 0.79152 0.02066 0.73718 0.0
C1029 C 0.82881 0.03621 0.78699 0.0
C1030 C 0.84159 0.02444 0.81639 0.0
C1031 C 0.86102 0.00205 0.81452 0.0
C1032 C 0.87328 0.99144 0.8424 0.0
C1033 C 0.86662 0.00339 0.87227 0.0
C1034 C 0.84779 0.02608 0.87432 0.0
C1035 C 0.8354 0.03669 0.84651 0.0
H1036 H 0.87619 0.99521 0.89382 0.0
H1037 H 0.76448 0.10652 0.62354 0.0
loop_
_geom_bond_atom_site_label_1
_geom_bond_atom_site_label_2
_geom_bond_distance
_geom_bond_site_symmetry_2
_ccdc_geom_bond_type
O0 Zn1 1.953 . S
O0 C16 1.225 . S
Zn1 O0 1.953 . S
Zn1 O2 1.949 . S
Zn1 O8 1.919 . S
Zn1 O13 1.924 . S
O2 Zn1 1.949 . S
O2 Zn3 1.923 . S
O2 Zn4 1.950 . S
O2 Zn5 1.945 . S
Zn3 O2 1.923 . S
Zn3 O6 1.933 . S
Zn3 O9 1.941 . S
Zn3 O10 1.965 . S
Zn4 O2 1.950 . S
Zn4 O11 1.938 . S
Zn4 O12 1.906 . S
Zn4 O22 1.953 . S
Zn5 O2 1.945 . S
Zn5 O7 1.932 . S
Zn5 O14 1.977 . S
Zn5 O15 1.910 . S
O6 Zn3 1.933 . S
O6 C17 1.226 1_545 S
O7 Zn5 1.932 . S
O7 C17 1.307 1_545 S
O8 Zn1 1.919 . S
O8 C19 1.253 . S
O9 Zn3 1.941 . S
O9 C19 1.283 . S
O10 Zn3 1.965 . S
O10 C18 1.303 . S
O11 Zn4 1.938 . S
O11 C18 1.247 . S
O12 Zn4 1.906 . S
O12 C20 1.304 . S
O13 Zn1 1.924 . S
O13 C21 1.311 . S
O14 Zn5 1.977 . S
O14 C20 1.272 . S
O15 Zn5 1.910 . S
O15 C21 1.231 . S
C16 O0 1.225 . S
C16 O22 1.298 . S
C17 O6 1.226 1_565 S
C17 O7 1.307 1_565 S
C18 O10 1.303 . S
C18 O11 1.247 . S
C19 O8 1.253 . S
C19 O9 1.283 . S
C20 O12 1.304 . S
C20 O14 1.272 . S
C21 O13 1.311 . S
C21 O15 1.231 . S
O22 Zn4 1.953 . S
O22 C16 1.298 . S
O23 Zn24 1.953 . S
O23 C39 1.225 . S
Zn24 O23 1.953 . S
Zn24 O25 1.949 . S
Zn24 O31 1.919 . S
Zn24 O36 1.924 . S
O25 Zn24 1.949 . S
O25 Zn26 1.923 . S
O25 Zn27 1.950 . S
O25 Zn28 1.945 . S
Zn26 O25 1.923 . S
Zn26 O29 1.933 . S
Zn26 O32 1.941 . S
Zn26 O33 1.965 . S
Zn27 O25 1.950 . S
Zn27 O34 1.938 . S
Zn27 O35 1.906 . S
Zn27 O45 1.953 . S
Zn28 O25 1.945 . S
Zn28 O30 1.932 . S
Zn28 O37 1.977 . S
Zn28 O38 1.910 . S
O29 Zn26 1.933 . S
O29 C40 1.226 . S
O30 Zn28 1.932 . S
O30 C40 1.307 . S
O31 Zn24 1.919 . S
O31 C42 1.253 . S
O32 Zn26 1.941 . S
O32 C42 1.283 . S
O33 Zn26 1.965 . S
O33 C41 1.303 . S
O34 Zn27 1.938 . S
O34 C41 1.247 . S
O35 Zn27 1.906 . S
O35 C43 1.304 . S
O36 Zn24 1.924 . S
O36 C44 1.311 . S
O37 Zn28 1.977 . S
O37 C43 1.272 . S
O38 Zn28 1.910 . S
O38 C44 1.231 . S
C39 O23 1.225 . S
C39 O45 1.298 . S
C40 O29 1.226 . S
C40 O30 1.307 . S
C41 O33 1.303 . S
C41 O34 1.247 . S
C42 O31 1.253 . S
C42 O32 1.283 . S
C43 O35 1.304 . S
C43 O37 1.272 . S
C44 O36 1.311 . S
C44 O38 1.231 . S
O45 Zn27 1.953 . S
O45 C39 1.298 . S
O46 Zn47 1.953 . S
O46 C62 1.225 . S
Zn47 O46 1.953 . S
Zn47 O48 1.949 . S
Zn47 O54 1.919 . S
Zn47 O59 1.924 . S
O48 Zn47 1.949 . S
O48 Zn49 1.923 . S
O48 Zn50 1.950 . S
O48 Zn51 1.945 . S
Zn49 O48 1.923 . S
Zn49 O52 1.933 . S
Zn49 O55 1.941 . S
Zn49 O56 1.965 . S
Zn50 O48 1.950 . S
Zn50 O57 1.938 . S
Zn50 O58 1.906 . S
Zn50 O68 1.953 . S
Zn51 O48 1.945 . S
Zn51 O53 1.932 . S
Zn51 O60 1.977 . S
Zn51 O61 1.910 . S
O52 Zn49 1.933 . S
O52 C63 1.226 1_655 S
O53 Zn51 1.932 . S
O53 C63 1.307 1_655 S
O54 Zn47 1.919 . S
O54 C65 1.253 . S
O55 Zn49 1.941 . S
O55 C65 1.283 . S
O56 Zn49 1.965 . S
O56 C64 1.303 . S
O57 Zn50 1.938 . S
O57 C64 1.247 . S
O58 Zn50 1.906 . S
O58 C66 1.304 . S
O59 Zn47 1.924 . S
O59 C67 1.311 . S
O60 Zn51 1.977 . S
O60 C66 1.272 . S
O61 Zn51 1.910 . S
O61 C67 1.231 . S
C62 O46 1.225 . S
C62 O68 1.298 . S
C63 O52 1.226 1_455 S
C63 O53 1.307 1_455 S
C64 O56 1.303 . S
C64 O57 1.247 . S
C65 O54 1.253 . S
C65 O55 1.283 . S
C66 O58 1.304 . S
C66 O60 1.272 . S
C67 O59 1.311 . S
C67 O61 1.231 . S
O68 Zn50 1.953 . S
O68 C62 1.298 . S
O69 Zn70 1.953 . S
O69 C85 1.225 . S
Zn70 O69 1.953 . S
Zn70 O71 1.949 . S
Zn70 O77 1.919 . S
Zn70 O82 1.924 . S
O71 Zn70 1.949 . S
O71 Zn72 1.923 . S
O71 Zn73 1.950 . S
O71 Zn74 1.945 . S
Zn72 O71 1.923 . S
Zn72 O75 1.933 . S
Zn72 O78 1.941 . S
Zn72 O79 1.965 . S
Zn73 O71 1.950 . S
Zn73 O80 1.938 . S
Zn73 O81 1.906 . S
Zn73 O91 1.953 . S
Zn74 O71 1.945 . S
Zn74 O76 1.932 . S
Zn74 O83 1.977 . S
Zn74 O84 1.910 . S
O75 Zn72 1.933 . S
O75 C86 1.226 1_455 S
O76 Zn74 1.932 . S
O76 C86 1.307 1_455 S
O77 Zn70 1.919 . S
O77 C88 1.253 . S
O78 Zn72 1.941 . S
O78 C88 1.283 . S
O79 Zn72 1.965 . S
O79 C87 1.303 . S
O80 Zn73 1.938 . S
O80 C87 1.247 . S
O81 Zn73 1.906 . S
O81 C89 1.304 . S
O82 Zn70 1.924 . S
O82 C90 1.311 . S
O83 Zn74 1.977 . S
O83 C89 1.272 . S
O84 Zn74 1.910 . S
O84 C90 1.231 . S
C85 O69 1.225 . S
C85 O91 1.298 . S
C86 O75 1.226 1_655 S
C86 O76 1.307 1_655 S
C87 O79 1.303 . S
C87 O80 1.247 . S
C88 O77 1.253 . S
C88 O78 1.283 . S
C89 O81 1.304 . S
C89 O83 1.272 . S
C90 O82 1.311 . S
C90 O84 1.231 . S
O91 Zn73 1.953 . S
O91 C85 1.298 . S
O92 Zn93 1.953 . S
O92 C108 1.225 . S
Zn93 O92 1.953 . S
Zn93 O94 1.949 . S
Zn93 O100 1.919 . S
Zn93 O105 1.924 . S
O94 Zn93 1.949 . S
O94 Zn95 1.923 . S
O94 Zn96 1.950 . S
O94 Zn97 1.945 . S
Zn95 O94 1.923 . S
Zn95 O98 1.933 . S
Zn95 O101 1.941 . S
Zn95 O102 1.965 . S
Zn96 O94 1.950 . S
Zn96 O103 1.938 . S
Zn96 O104 1.906 . S
Zn96 O114 1.953 . S
Zn97 O94 1.945 . S
Zn97 O99 1.932 . S
Zn97 O106 1.977 . S
Zn97 O107 1.910 . S
O98 Zn95 1.933 . S
O98 C109 1.226 1_565 S
O99 Zn97 1.932 . S
O99 C109 1.307 1_565 S
O100 Zn93 1.919 . S
O100 C111 1.253 . S
O101 Zn95 1.941 . S
O101 C111 1.283 . S
O102 Zn95 1.965 . S
O102 C110 1.303 . S
O103 Zn96 1.938 . S
O103 C110 1.247 . S
O104 Zn96 1.906 . S
O104 C112 1.304 . S
O105 Zn93 1.924 . S
O105 C113 1.311 . S
O106 Zn97 1.977 . S
O106 C112 1.272 . S
O107 Zn97 1.910 . S
O107 C113 1.231 . S
C108 O92 1.225 . S
C108 O114 1.298 . S
C109 O98 1.226 1_545 S
C109 O99 1.307 1_545 S
C110 O102 1.303 . S
C110 O103 1.247 . S
C111 O100 1.253 . S
C111 O101 1.283 . S
C112 O104 1.304 . S
C112 O106 1.272 . S
C113 O105 1.311 . S
C113 O107 1.231 . S
O114 Zn96 1.953 . S
O114 C108 1.298 . S
O115 Zn116 1.953 . S
O115 C131 1.225 . S
Zn116 O115 1.953 . S
Zn116 O117 1.949 . S
Zn116 O123 1.919 . S
Zn116 O128 1.924 . S
O117 Zn116 1.949 . S
O117 Zn118 1.923 . S
O117 Zn119 1.950 . S
O117 Zn120 1.945 . S
Zn118 O117 1.923 . S
Zn118 O121 1.933 . S
Zn118 O124 1.941 . S
Zn118 O125 1.965 . S
Zn119 O117 1.950 . S
Zn119 O126 1.938 . S
Zn119 O127 1.906 . S
Zn119 O137 1.953 . S
Zn120 O117 1.945 . S
Zn120 O122 1.932 . S
Zn120 O129 1.977 . S
Zn120 O130 1.910 . S
O121 Zn118 1.933 . S
O121 C132 1.226 . S
O122 Zn120 1.932 . S
O122 C132 1.307 . S
O123 Zn116 1.919 . S
O123 C134 1.253 . S
O124 Zn118 1.941 . S
O124 C134 1.283 . S
O125 Zn118 1.965 . S
O125 C133 1.303 . S
O126 Zn119 1.938 . S
O126 C133 1.247 . S
O127 Zn119 1.906 . S
O127 C135 1.304 . S
O128 Zn116 1.924 . S
O128 C136 1.311 . S
O129 Zn120 1.977 . S
O129 C135 1.272 . S
O130 Zn120 1.910 . S
O130 C136 1.231 . S
C131 O115 1.225 . S
C131 O137 1.298 . S
C132 O121 1.226 . S
C132 O122 1.307 . S
C133 O125 1.303 . S
C133 O126 1.247 . S
C134 O123 1.253 . S
C134 O124 1.283 . S
C135 O127 1.304 . S
C135 O129 1.272 . S
C136 O128 1.311 . S
C136 O130 1.231 . S
O137 Zn119 1.953 . S
O137 C131 1.298 . S
H138 C156 0.951 . S
H139 C158 0.951 . S
H140 C160 0.950 . S
H141 C161 0.950 . S
H142 C163 0.950 . S
H143 C166 0.950 . S
H144 C167 0.950 . S
H145 C169 0.950 1_554 S
H146 C170 0.952 . S
H147 C171 0.951 . S
H148 C173 0.951 . S
H149 C175 0.950 . S
H150 C176 0.950 . S
H151 C178 0.950 . S
H152 C181 0.950 . S
H153 C182 0.950 . S
H154 C184 0.950 1_556 S
H155 C185 0.952 . S
C156 H138 0.951 . S
C156 C157 1.366 . S
C156 C158 1.388 . S
C157 C156 1.366 . S
C157 C161 1.385 . S
C158 H139 0.951 . S
C158 C156 1.388 . S
C158 C159 1.366 . S
C159 C158 1.366 . S
C159 C160 1.414 . S
C159 C162 1.499 . S
C160 H140 0.950 . S
C160 C159 1.414 . S
C160 C161 1.374 . S
C161 H141 0.950 . S
C161 C157 1.385 . S
C161 C160 1.374 . S
C162 C159 1.499 . S
C162 C163 1.373 1_565 S
C162 C164 1.389 . S
C163 H142 0.950 . S
C163 C162 1.373 1_545 S
C163 C179 1.377 1_556 S
C164 C162 1.389 . S
C164 C165 1.524 . S
C164 C178 1.377 1_556 S
C165 C164 1.524 . S
C165 C166 1.397 . S
C165 C170 1.361 1_556 S
C166 H143 0.950 . S
C166 C165 1.397 . S
C166 C167 1.334 . S
C167 H144 0.950 . S
C167 C166 1.334 . S
C167 C168 1.287 . S
C168 C167 1.287 . S
C168 C169 1.524 . S
C168 H187 0.913 . S
C169 H145 0.950 1_556 S
C169 C168 1.524 . S
C169 C170 1.415 1_556 S
C170 H146 0.952 . S
C170 C165 1.361 1_554 S
C170 C169 1.415 1_554 S
C171 H147 0.951 . S
C171 C172 1.366 . S
C171 C173 1.388 . S
C172 C171 1.366 . S
C172 C176 1.385 . S
C173 H148 0.951 . S
C173 C171 1.388 . S
C173 C174 1.366 . S
C174 C173 1.366 . S
C174 C175 1.414 . S
C174 C177 1.499 . S
C175 H149 0.950 . S
C175 C174 1.414 . S
C175 C176 1.374 . S
C176 H150 0.950 . S
C176 C172 1.385 . S
C176 C175 1.374 . S
C177 C174 1.499 . S
C177 C178 1.373 1_545 S
C177 C179 1.389 . S
C178 H151 0.950 . S
C178 C164 1.377 1_554 S
C178 C177 1.373 1_565 S
C179 C163 1.377 1_554 S
C179 C177 1.389 . S
C179 C180 1.524 . S
C180 C179 1.524 . S
C180 C181 1.397 . S
C180 C185 1.361 1_554 S
C181 H152 0.950 . S
C181 C180 1.397 . S
C181 C182 1.334 . S
C182 H153 0.950 . S
C182 C181 1.334 . S
C182 C183 1.287 . S
C183 C182 1.287 . S
C183 C184 1.524 . S
C183 H186 0.999 . S
C184 H154 0.950 1_554 S
C184 C183 1.524 . S
C184 C185 1.415 1_554 S
C185 H155 0.952 . S
C185 C180 1.361 1_556 S
C185 C184 1.415 1_556 S
H186 C183 0.999 . S
H187 C168 0.913 . S
H188 C206 0.951 . S
H189 C208 0.951 . S
H190 C210 0.950 . S
H191 C211 0.950 . S
H192 C213 0.950 . S
H193 C216 0.950 . S
H194 C217 0.950 . S
H195 C219 0.950 . S
H196 C220 0.950 . S
H197 C221 0.951 . S
H198 C223 0.951 . S
H199 C225 0.950 . S
H200 C226 0.950 . S
H201 C228 0.950 . S
H202 C231 0.950 . S
H203 C232 0.950 . S
H204 C234 0.950 . S
H205 C235 0.950 . S
C206 H188 0.951 . S
C206 C207 1.366 . S
C206 C208 1.388 . S
C207 C206 1.366 . S
C207 C211 1.385 . S
C208 H189 0.951 . S
C208 C206 1.388 . S
C208 C209 1.366 . S
C209 C208 1.366 . S
C209 C210 1.414 . S
C209 C212 1.499 . S
C210 H190 0.950 . S
C210 C209 1.414 . S
C210 C211 1.374 . S
C211 H191 0.950 . S
C211 C207 1.385 . S
C211 C210 1.374 . S
C212 C209 1.499 . S
C212 C213 1.373 . S
C212 C214 1.389 . S
C213 H192 0.950 . S
C213 C212 1.373 . S
C213 C229 1.377 . S
C214 C212 1.389 . S
C214 C215 1.524 . S
C214 C228 1.377 . S
C215 C214 1.524 . S
C215 C216 1.397 . S
C215 C220 1.363 . S
C216 H193 0.950 . S
C216 C215 1.397 . S
C216 C217 1.334 . S
C217 H194 0.950 . S
C217 C216 1.334 . S
C217 C218 1.287 . S
C218 C217 1.287 . S
C218 C219 1.524 . S
C218 H237 0.913 . S
C219 H195 0.950 . S
C219 C218 1.524 . S
C219 C220 1.415 . S
C220 H196 0.950 . S
C220 C215 1.363 . S
C220 C219 1.415 . S
C221 H197 0.951 . S
C221 C222 1.366 . S
C221 C223 1.388 . S
C222 C221 1.366 . S
C222 C226 1.385 . S
C223 H198 0.951 . S
C223 C221 1.388 . S
C223 C224 1.366 . S
C224 C223 1.366 . S
C224 C225 1.414 . S
C224 C227 1.499 . S
C225 H199 0.950 . S
C225 C224 1.414 . S
C225 C226 1.374 . S
C226 H200 0.950 . S
C226 C222 1.385 . S
C226 C225 1.374 . S
C227 C224 1.499 . S
C227 C228 1.373 . S
C227 C229 1.389 . S
C228 H201 0.950 . S
C228 C214 1.377 . S
C228 C227 1.373 . S
C229 C213 1.377 . S
C229 C227 1.389 . S
C229 C230 1.524 . S
C230 C229 1.524 . S
C230 C231 1.397 . S
C230 C235 1.363 . S
C231 H202 0.950 . S
C231 C230 1.397 . S
C231 C232 1.334 . S
C232 H203 0.950 . S
C232 C231 1.334 . S
C232 C233 1.287 . S
C233 C232 1.287 . S
C233 C234 1.524 . S
C233 H236 0.999 . S
C234 H204 0.950 . S
C234 C233 1.524 . S
C234 C235 1.415 . S
C235 H205 0.950 . S
C235 C230 1.363 . S
C235 C234 1.415 . S
H236 C233 0.999 . S
H237 C218 0.913 . S
H238 C256 0.951 . S
H239 C258 0.951 1_455 S
H240 C260 0.950 . S
H241 C261 0.950 . S
H242 C263 0.950 . S
H243 C266 0.950 . S
H244 C267 0.950 . S
H245 C269 0.950 . S
H246 C270 0.950 . S
H247 C271 0.951 . S
H248 C273 0.951 1_655 S
H249 C275 0.950 . S
H250 C276 0.950 . S
H251 C278 0.950 . S
H252 C281 0.950 . S
H253 C282 0.950 . S
H254 C284 0.950 . S
H255 C285 0.950 . S
C256 H238 0.951 . S
C256 C257 1.366 . S
C256 C258 1.388 . S
C257 C256 1.366 . S
C257 C261 1.385 . S
C258 H239 0.951 1_655 S
C258 C256 1.388 . S
C258 C259 1.366 . S
C259 C258 1.366 . S
C259 C260 1.414 . S
C259 C262 1.499 . S
C260 H240 0.950 . S
C260 C259 1.414 . S
C260 C261 1.374 . S
C261 H241 0.950 . S
C261 C257 1.385 . S
C261 C260 1.374 . S
C262 C259 1.499 . S
C262 C263 1.373 . S
C262 C264 1.389 1_655 S
C263 H242 0.950 . S
C263 C262 1.373 . S
C263 C279 1.377 1_554 S
C264 C262 1.389 1_455 S
C264 C265 1.524 . S
C264 C278 1.377 1_554 S
C265 C264 1.524 . S
C265 C266 1.397 1_455 S
C265 C270 1.363 . S
C266 H243 0.950 . S
C266 C265 1.397 1_655 S
C266 C267 1.334 . S
C267 H244 0.950 . S
C267 C266 1.334 . S
C267 C268 1.287 1_655 S
C268 C267 1.287 1_455 S
C268 C269 1.524 . S
C268 H287 0.913 . S
C269 H245 0.950 . S
C269 C268 1.524 . S
C269 C270 1.415 . S
C270 H246 0.950 . S
C270 C265 1.363 . S
C270 C269 1.415 . S
C271 H247 0.951 . S
C271 C272 1.366 . S
C271 C273 1.388 . S
C272 C271 1.366 . S
C272 C276 1.385 . S
C273 H248 0.951 1_455 S
C273 C271 1.388 . S
C273 C274 1.366 . S
C274 C273 1.366 . S
C274 C275 1.414 . S
C274 C277 1.499 . S
C275 H249 0.950 . S
C275 C274 1.414 . S
C275 C276 1.374 . S
C276 H250 0.950 . S
C276 C272 1.385 . S
C276 C275 1.374 . S
C277 C274 1.499 . S
C277 C278 1.373 . S
C277 C279 1.389 1_455 S
C278 H251 0.950 . S
C278 C264 1.377 1_556 S
C278 C277 1.373 . S
C279 C263 1.377 1_556 S
C279 C277 1.389 1_655 S
C279 C280 1.524 . S
C280 C279 1.524 . S
C280 C281 1.397 1_655 S
C280 C285 1.363 . S
C281 H252 0.950 . S
C281 C280 1.397 1_455 S
C281 C282 1.334 . S
C282 H253 0.950 . S
C282 C281 1.334 . S
C282 C283 1.287 1_455 S
C283 C282 1.287 1_655 S
C283 C284 1.524 . S
C283 H286 0.999 . S
C284 H254 0.950 . S
C284 C283 1.524 . S
C284 C285 1.415 . S
C285 H255 0.950 . S
C285 C280 1.363 . S
C285 C284 1.415 . S
H286 C283 0.999 . S
H287 C268 0.913 . S
H288 C306 0.951 . S
H289 C308 0.951 . S
H290 C310 0.950 . S
H291 C311 0.950 . S
H292 C313 0.950 . S
H293 C316 0.950 . S
H294 C317 0.950 . S
H295 C319 0.950 . S
H296 C320 0.950 . S
H297 C321 0.951 . S
H298 C323 0.951 . S
H299 C325 0.950 . S
H300 C326 0.950 . S
H301 C328 0.950 . S
H302 C331 0.950 . S
H303 C332 0.950 . S
H304 C334 0.950 . S
H305 C335 0.950 . S
C306 H288 0.951 . S
C306 C307 1.366 . S
C306 C308 1.388 . S
C307 C306 1.366 . S
C307 C311 1.385 . S
C308 H289 0.951 . S
C308 C306 1.388 . S
C308 C309 1.366 . S
C309 C308 1.366 . S
C309 C310 1.414 . S
C309 C312 1.499 . S
C310 H290 0.950 . S
C310 C309 1.414 . S
C310 C311 1.374 . S
C311 H291 0.950 . S
C311 C307 1.385 . S
C311 C310 1.374 . S
C312 C309 1.499 . S
C312 C313 1.373 1_545 S
C312 C314 1.389 . S
C313 H292 0.950 . S
C313 C312 1.373 1_565 S
C313 C329 1.377 . S
C314 C312 1.389 . S
C314 C315 1.524 . S
C314 C328 1.377 . S
C315 C314 1.524 . S
C315 C316 1.397 . S
C315 C320 1.363 . S
C316 H293 0.950 . S
C316 C315 1.397 . S
C316 C317 1.334 . S
C317 H294 0.950 . S
C317 C316 1.334 . S
C317 C318 1.287 . S
C318 C317 1.287 . S
C318 C319 1.524 . S
C318 H337 0.913 . S
C319 H295 0.950 . S
C319 C318 1.524 . S
C319 C320 1.415 . S
C320 H296 0.950 . S
C320 C315 1.363 . S
C320 C319 1.415 . S
C321 H297 0.951 . S
C321 C322 1.366 . S
C321 C323 1.388 . S
C322 C321 1.366 . S
C322 C326 1.385 . S
C323 H298 0.951 . S
C323 C321 1.388 . S
C323 C324 1.366 . S
C324 C323 1.366 . S
C324 C325 1.414 . S
C324 C327 1.499 . S
C325 H299 0.950 . S
C325 C324 1.414 . S
C325 C326 1.374 . S
C326 H300 0.950 . S
C326 C322 1.385 . S
C326 C325 1.374 . S
C327 C324 1.499 . S
C327 C328 1.373 1_565 S
C327 C329 1.389 . S
C328 H301 0.950 . S
C328 C314 1.377 . S
C328 C327 1.373 1_545 S
C329 C313 1.377 . S
C329 C327 1.389 . S
C329 C330 1.524 . S
C330 C329 1.524 . S
C330 C331 1.397 . S
C330 C335 1.363 . S
C331 H302 0.950 . S
C331 C330 1.397 . S
C331 C332 1.334 . S
C332 H303 0.950 . S
C332 C331 1.334 . S
C332 C333 1.287 . S
C333 C332 1.287 . S
C333 C334 1.524 . S
C333 H336 0.999 . S
C334 H304 0.950 . S
C334 C333 1.524 . S
C334 C335 1.415 . S
C335 H305 0.950 . S
C335 C330 1.363 . S
C335 C334 1.415 . S
H336 C333 0.999 . S
H337 C318 0.913 . S
H338 C356 0.951 . S
H339 C358 0.951 . S
H340 C360 0.950 . S
H341 C361 0.950 . S
H342 C363 0.950 . S
H343 C366 0.950 . S
H344 C367 0.950 . S
H345 C369 0.950 . S
H346 C370 0.950 . S
H347 C371 0.951 . S
H348 C373 0.951 . S
H349 C375 0.950 . S
H350 C376 0.950 . S
H351 C378 0.950 . S
H352 C381 0.950 . S
H353 C382 0.950 . S
H354 C384 0.950 . S
H355 C385 0.950 . S
C356 H338 0.951 . S
C356 C357 1.366 . S
C356 C358 1.388 . S
C357 C356 1.366 . S
C357 C361 1.385 . S
C358 H339 0.951 . S
C358 C356 1.388 . S
C358 C359 1.366 . S
C359 C358 1.366 . S
C359 C360 1.414 . S
C359 C362 1.499 . S
C360 H340 0.950 . S
C360 C359 1.414 . S
C360 C361 1.374 . S
C361 H341 0.950 . S
C361 C357 1.385 . S
C361 C360 1.374 . S
C362 C359 1.499 . S
C362 C363 1.373 . S
C362 C364 1.389 . S
C363 H342 0.950 . S
C363 C362 1.373 . S
C363 C379 1.377 1_556 S
C364 C362 1.389 . S
C364 C365 1.524 . S
C364 C378 1.377 1_556 S
C365 C364 1.524 . S
C365 C366 1.397 . S
C365 C370 1.363 . S
C366 H343 0.950 . S
C366 C365 1.397 . S
C366 C367 1.334 . S
C367 H344 0.950 . S
C367 C366 1.334 . S
C367 C368 1.287 . S
C368 C367 1.287 . S
C368 C369 1.524 . S
C368 H387 0.913 . S
C369 H345 0.950 . S
C369 C368 1.524 . S
C369 C370 1.415 . S
C370 H346 0.950 . S
C370 C365 1.363 . S
C370 C369 1.415 . S
C371 H347 0.951 . S
C371 C372 1.366 . S
C371 C373 1.388 . S
C372 C371 1.366 . S
C372 C376 1.385 . S
C373 H348 0.951 . S
C373 C371 1.388 . S
C373 C374 1.366 . S
C374 C373 1.366 . S
C374 C375 1.414 . S
C374 C377 1.499 . S
C375 H349 0.950 . S
C375 C374 1.414 . S
C375 C376 1.374 . S
C376 H350 0.950 . S
C376 C372 1.385 . S
C376 C375 1.374 . S
C377 C374 1.499 . S
C377 C378 1.373 . S
C377 C379 1.389 . S
C378 H351 0.950 . S
C378 C364 1.377 1_554 S
C378 C377 1.373 . S
C379 C363 1.377 1_554 S
C379 C377 1.389 . S
C379 C380 1.524 . S
C380 C379 1.524 . S
C380 C381 1.397 . S
C380 C385 1.363 . S
C381 H352 0.950 . S
C381 C380 1.397 . S
C381 C382 1.334 . S
C382 H353 0.950 . S
C382 C381 1.334 . S
C382 C383 1.287 . S
C383 C382 1.287 . S
C383 C384 1.524 . S
C383 H386 0.999 . S
C384 H354 0.950 . S
C384 C383 1.524 . S
C384 C385 1.415 . S
C385 H355 0.950 . S
C385 C380 1.363 . S
C385 C384 1.415 . S
H386 C383 0.999 . S
H387 C368 0.913 . S
H388 C406 0.951 . S
H389 C408 0.951 . S
H390 C410 0.950 . S
H391 C411 0.950 . S
H392 C413 0.950 . S
H393 C416 0.950 . S
H394 C417 0.950 . S
H395 C419 0.950 . S
H396 C420 0.950 . S
H397 C421 0.951 . S
H398 C423 0.951 . S
H399 C425 0.950 . S
H400 C426 0.950 . S
H401 C428 0.950 . S
H402 C431 0.950 . S
H403 C432 0.950 . S
H404 C434 0.950 . S
H405 C435 0.950 . S
C406 H388 0.951 . S
C406 C407 1.366 . S
C406 C408 1.388 . S
C407 C406 1.366 . S
C407 C411 1.385 . S
C408 H389 0.951 . S
C408 C406 1.388 . S
C408 C409 1.366 . S
C409 C408 1.366 . S
C409 C410 1.414 . S
C409 C412 1.499 . S
C410 H390 0.950 . S
C410 C409 1.414 . S
C410 C411 1.374 . S
C411 H391 0.950 . S
C411 C407 1.385 . S
C411 C410 1.374 . S
C412 C409 1.499 . S
C412 C413 1.373 1_655 S
C412 C414 1.389 . S
C413 H392 0.950 . S
C413 C412 1.373 1_455 S
C413 C429 1.377 . S
C414 C412 1.389 . S
C414 C415 1.524 . S
C414 C428 1.377 . S
C415 C414 1.524 . S
C415 C416 1.397 . S
C415 C420 1.363 . S
C416 H393 0.950 . S
C416 C415 1.397 . S
C416 C417 1.334 . S
C417 H394 0.950 . S
C417 C416 1.334 . S
C417 C418 1.287 . S
C418 C417 1.287 . S
C418 C419 1.524 . S
C418 H437 0.913 . S
C419 H395 0.950 . S
C419 C418 1.524 . S
C419 C420 1.415 . S
C420 H396 0.950 . S
C420 C415 1.363 . S
C420 C419 1.415 . S
C421 H397 0.951 . S
C421 C422 1.366 . S
C421 C423 1.388 . S
C422 C421 1.366 . S
C422 C426 1.385 . S
C423 H398 0.951 . S
C423 C421 1.388 . S
C423 C424 1.366 . S
C424 C423 1.366 . S
C424 C425 1.414 . S
C424 C427 1.499 . S
C425 H399 0.950 . S
C425 C424 1.414 . S
C425 C426 1.374 . S
C426 H400 0.950 . S
C426 C422 1.385 . S
C426 C425 1.374 . S
C427 C424 1.499 . S
C427 C428 1.373 1_455 S
C427 C429 1.389 . S
C428 H401 0.950 . S
C428 C414 1.377 . S
C428 C427 1.373 1_655 S
C429 C413 1.377 . S
C429 C427 1.389 . S
C429 C430 1.524 . S
C430 C429 1.524 . S
C430 C431 1.397 . S
C430 C435 1.363 . S
C431 H402 0.950 . S
C431 C430 1.397 . S
C431 C432 1.334 . S
C432 H403 0.950 . S
C432 C431 1.334 . S
C432 C433 1.287 . S
C433 C432 1.287 . S
C433 C434 1.524 . S
C433 H436 0.999 . S
C434 H404 0.950 . S
C434 C433 1.524 . S
C434 C435 1.415 . S
C435 H405 0.950 . S
C435 C430 1.363 . S
C435 C434 1.415 . S
H436 C433 0.999 . S
H437 C418 0.913 . S
H438 C456 0.951 . S
H439 C458 0.951 . S
H440 C460 0.950 . S
H441 C461 0.950 . S
H442 C463 0.950 . S
H443 C466 0.950 . S
H444 C467 0.950 . S
H445 C469 0.950 . S
H446 C470 0.950 . S
H447 C471 0.951 . S
H448 C473 0.951 . S
H449 C475 0.950 . S
H450 C476 0.950 . S
H451 C478 0.950 . S
H452 C481 0.950 . S
H453 C482 0.950 . S
H454 C484 0.950 1_565 S
H455 C485 0.950 . S
C456 H438 0.951 . S
C456 C457 1.366 . S
C456 C458 1.388 . S
C457 C456 1.366 . S
C457 C461 1.385 . S
C458 H439 0.951 . S
C458 C456 1.388 . S
C458 C459 1.366 . S
C459 C458 1.366 . S
C459 C460 1.414 . S
C459 C462 1.499 . S
C460 H440 0.950 . S
C460 C459 1.414 . S
C460 C461 1.374 . S
C461 H441 0.950 . S
C461 C457 1.385 . S
C461 C460 1.374 . S
C462 C459 1.499 . S
C462 C463 1.373 . S
C462 C464 1.389 . S
C463 H442 0.950 . S
C463 C462 1.373 . S
C463 C479 1.377 . S
C464 C462 1.389 . S
C464 C465 1.524 . S
C464 C478 1.377 . S
C465 C464 1.524 . S
C465 C466 1.397 . S
C465 C470 1.363 . S
C466 H443 0.950 . S
C466 C465 1.397 . S
C466 C467 1.334 . S
C467 H444 0.950 . S
C467 C466 1.334 . S
C467 C468 1.287 . S
C468 C467 1.287 . S
C468 C469 1.524 . S
C468 H487 0.913 . S
C469 H445 0.950 . S
C469 C468 1.524 . S
C469 C470 1.415 . S
C470 H446 0.950 . S
C470 C465 1.363 . S
C470 C469 1.415 . S
C471 H447 0.951 . S
C471 C472 1.366 . S
C471 C473 1.388 . S
C472 C471 1.366 . S
C472 C476 1.385 . S
C473 H448 0.951 . S
C473 C471 1.388 . S
C473 C474 1.366 . S
C474 C473 1.366 . S
C474 C475 1.414 . S
C474 C477 1.499 . S
C475 H449 0.950 . S
C475 C474 1.414 . S
C475 C476 1.374 . S
C476 H450 0.950 . S
C476 C472 1.385 . S
C476 C475 1.374 . S
C477 C474 1.499 . S
C477 C478 1.373 . S
C477 C479 1.389 . S
C478 H451 0.950 . S
C478 C464 1.377 . S
C478 C477 1.373 . S
C479 C463 1.377 . S
C479 C477 1.389 . S
C479 C480 1.524 . S
C480 C479 1.524 . S
C480 C481 1.397 . S
C480 C485 1.363 . S
C481 H452 0.950 . S
C481 C480 1.397 . S
C481 C482 1.334 . S
C482 H453 0.950 . S
C482 C481 1.334 . S
C482 C483 1.287 . S
C483 C482 1.287 . S
C483 C484 1.524 . S
C483 H486 0.999 . S
C484 H454 0.950 1_545 S
C484 C483 1.524 . S
C484 C485 1.415 . S
C485 H455 0.950 . S
C485 C480 1.363 . S
C485 C484 1.415 . S
H486 C483 0.999 . S
H487 C468 0.913 . S
H488 C506 0.951 . S
H489 C508 0.951 . S
H490 C510 0.950 . S
H491 C511 0.950 . S
H492 C513 0.950 . S
H493 C516 0.950 . S
H494 C517 0.950 . S
H495 C519 0.950 . S
H496 C520 0.950 . S
H497 C521 0.951 . S
H498 C523 0.951 . S
H499 C525 0.950 . S
H500 C526 0.950 . S
H501 C528 0.950 . S
H502 C531 0.950 . S
H503 C532 0.950 . S
H504 C534 0.950 . S
H505 C535 0.950 . S
C506 H488 0.951 . S
C506 C507 1.366 . S
C506 C508 1.388 . S
C507 C506 1.366 . S
C507 C511 1.385 . S
C508 H489 0.951 . S
C508 C506 1.388 . S
C508 C509 1.366 . S
C509 C508 1.366 . S
C509 C510 1.414 . S
C509 C512 1.499 . S
C510 H490 0.950 . S
C510 C509 1.414 . S
C510 C511 1.374 . S
C511 H491 0.950 . S
C511 C507 1.385 . S
C511 C510 1.374 . S
C512 C509 1.499 . S
C512 C513 1.373 . S
C512 C514 1.389 . S
C513 H492 0.950 . S
C513 C512 1.373 . S
C513 C529 1.377 . S
C514 C512 1.389 . S
C514 C515 1.524 . S
C514 C528 1.377 . S
C515 C514 1.524 . S
C515 C516 1.397 . S
C515 C520 1.363 . S
C516 H493 0.950 . S
C516 C515 1.397 . S
C516 C517 1.334 . S
C517 H494 0.950 . S
C517 C516 1.334 . S
C517 C518 1.287 . S
C518 C517 1.287 . S
C518 C519 1.524 . S
C518 H537 0.913 . S
C519 H495 0.950 . S
C519 C518 1.524 . S
C519 C520 1.415 . S
C520 H496 0.950 . S
C520 C515 1.363 . S
C520 C519 1.415 . S
C521 H497 0.951 . S
C521 C522 1.366 . S
C521 C523 1.388 . S
C522 C521 1.366 . S
C522 C526 1.385 . S
C523 H498 0.951 . S
C523 C521 1.388 . S
C523 C524 1.366 . S
C524 C523 1.366 . S
C524 C525 1.414 . S
C524 C527 1.499 . S
C525 H499 0.950 . S
C525 C524 1.414 . S
C525 C526 1.374 . S
C526 H500 0.950 . S
C526 C522 1.385 . S
C526 C525 1.374 . S
C527 C524 1.499 . S
C527 C528 1.373 . S
C527 C529 1.389 . S
C528 H501 0.950 . S
C528 C514 1.377 . S
C528 C527 1.373 . S
C529 C513 1.377 . S
C529 C527 1.389 . S
C529 C530 1.524 . S
C530 C529 1.524 . S
C530 C531 1.397 . S
C530 C535 1.363 . S
C531 H502 0.950 . S
C531 C530 1.397 . S
C531 C532 1.334 . S
C532 H503 0.950 . S
C532 C531 1.334 . S
C532 C533 1.287 . S
C533 C532 1.287 . S
C533 C534 1.524 . S
C533 H536 0.999 . S
C534 H504 0.950 . S
C534 C533 1.524 . S
C534 C535 1.415 . S
C535 H505 0.950 . S
C535 C530 1.363 . S
C535 C534 1.415 . S
H536 C533 0.999 . S
H537 C518 0.913 . S
H538 C556 0.951 . S
H539 C558 0.951 . S
H540 C560 0.950 . S
H541 C561 0.950 . S
H542 C563 0.950 . S
H543 C566 0.950 . S
H544 C567 0.950 . S
H545 C569 0.950 . S
H546 C570 0.950 . S
H547 C571 0.951 . S
H548 C573 0.951 . S
H549 C575 0.950 . S
H550 C576 0.950 . S
H551 C578 0.950 . S
H552 C581 0.950 . S
H553 C582 0.950 . S
H554 C584 0.937 1_455 S
H555 C585 0.950 . S
C556 H538 0.951 . S
C556 C557 1.366 . S
C556 C558 1.388 . S
C557 C556 1.366 . S
C557 C561 1.385 . S
C558 H539 0.951 . S
C558 C556 1.388 . S
C558 C559 1.366 . S
C559 C558 1.366 . S
C559 C560 1.414 . S
C559 C562 1.499 . S
C560 H540 0.950 . S
C560 C559 1.414 . S
C560 C561 1.374 . S
C561 H541 0.950 . S
C561 C557 1.385 . S
C561 C560 1.374 . S
C562 C559 1.499 . S
C562 C563 1.373 . S
C562 C564 1.389 . S
C563 H542 0.950 . S
C563 C562 1.373 . S
C563 C579 1.377 . S
C564 C562 1.389 . S
C564 C565 1.524 . S
C564 C578 1.377 . S
C565 C564 1.524 . S
C565 C566 1.397 . S
C565 C570 1.363 . S
C566 H543 0.950 . S
C566 C565 1.397 . S
C566 C567 1.334 . S
C567 H544 0.950 . S
C567 C566 1.334 . S
C567 C568 1.287 . S
C568 C567 1.287 . S
C568 C569 1.524 . S
C568 H587 0.913 . S
C569 H545 0.950 . S
C569 C568 1.524 . S
C569 C570 1.415 . S
C570 H546 0.950 . S
C570 C565 1.363 . S
C570 C569 1.415 . S
C571 H547 0.951 . S
C571 C572 1.366 . S
C571 C573 1.388 . S
C572 C571 1.366 . S
C572 C576 1.385 . S
C573 H548 0.951 . S
C573 C571 1.388 . S
C573 C574 1.366 . S
C574 C573 1.366 . S
C574 C575 1.414 . S
C574 C577 1.499 . S
C575 H549 0.950 . S
C575 C574 1.414 . S
C575 C576 1.374 . S
C576 H550 0.950 . S
C576 C572 1.385 . S
C576 C575 1.374 . S
C577 C574 1.499 . S
C577 C578 1.373 . S
C577 C579 1.389 . S
C578 H551 0.950 . S
C578 C564 1.377 . S
C578 C577 1.373 . S
C579 C563 1.377 . S
C579 C577 1.389 . S
C579 C580 1.524 . S
C580 C579 1.524 . S
C580 C581 1.397 . S
C580 C585 1.363 . S
C581 H552 0.950 . S
C581 C580 1.397 . S
C581 C582 1.334 . S
C582 H553 0.950 . S
C582 C581 1.334 . S
C582 C583 1.287 . S
C583 C582 1.287 . S
C583 C584 1.524 . S
C583 H586 0.999 . S
C584 H554 0.937 1_655 S
C584 C583 1.524 . S
C584 C585 1.415 . S
C585 H555 0.950 . S
C585 C580 1.363 . S
C585 C584 1.415 . S
H586 C583 0.999 . S
H587 C568 0.913 . S
H588 C606 0.951 . S
H589 C608 0.951 . S
H590 C610 0.950 . S
H591 C611 0.950 . S
H592 C613 0.950 . S
H593 C616 0.950 . S
H594 C617 0.950 . S
H595 C619 0.950 . S
H596 C620 0.950 . S
H597 C621 0.951 . S
H598 C623 0.951 . S
H599 C625 0.950 . S
H600 C626 0.950 . S
H601 C628 0.950 . S
H602 C631 0.950 . S
H603 C632 0.950 . S
H604 C634 0.950 . S
H605 C635 0.950 . S
C606 H588 0.951 . S
C606 C607 1.366 . S
C606 C608 1.388 . S
C607 C606 1.366 . S
C607 C611 1.385 . S
C608 H589 0.951 . S
C608 C606 1.388 . S
C608 C609 1.366 . S
C609 C608 1.366 . S
C609 C610 1.414 . S
C609 C612 1.499 . S
C610 H590 0.950 . S
C610 C609 1.414 . S
C610 C611 1.374 . S
C611 H591 0.950 . S
C611 C607 1.385 . S
C611 C610 1.374 . S
C612 C609 1.499 . S
C612 C613 1.373 . S
C612 C614 1.389 . S
C613 H592 0.950 . S
C613 C612 1.373 . S
C613 C629 1.377 . S
C614 C612 1.389 . S
C614 C615 1.524 . S
C614 C628 1.377 . S
C615 C614 1.524 . S
C615 C616 1.397 . S
C615 C620 1.363 . S
C616 H593 0.950 . S
C616 C615 1.397 . S
C616 C617 1.334 1_455 S
C617 H594 0.950 . S
C617 C616 1.334 1_655 S
C617 C618 1.287 . S
C618 C617 1.287 . S
C618 C619 1.524 . S
C618 H637 0.913 . S
C619 H595 0.950 . S
C619 C618 1.524 . S
C619 C620 1.415 1_655 S
C620 H596 0.950 . S
C620 C615 1.363 . S
C620 C619 1.415 1_455 S
C621 H597 0.951 . S
C621 C622 1.366 . S
C621 C623 1.388 . S
C622 C621 1.366 . S
C622 C626 1.385 . S
C623 H598 0.951 . S
C623 C621 1.388 . S
C623 C624 1.366 . S
C624 C623 1.366 . S
C624 C625 1.414 . S
C624 C627 1.499 . S
C625 H599 0.950 . S
C625 C624 1.414 . S
C625 C626 1.374 . S
C626 H600 0.950 . S
C626 C622 1.385 . S
C626 C625 1.374 . S
C627 C624 1.499 . S
C627 C628 1.373 . S
C627 C629 1.389 . S
C628 H601 0.950 . S
C628 C614 1.377 . S
C628 C627 1.373 . S
C629 C613 1.377 . S
C629 C627 1.389 . S
C629 C630 1.524 . S
C630 C629 1.524 . S
C630 C631 1.397 . S
C630 C635 1.363 . S
C631 H602 0.950 . S
C631 C630 1.397 . S
C631 C632 1.334 . S
C632 H603 0.950 . S
C632 C631 1.334 . S
C632 C633 1.287 . S
C633 C632 1.287 . S
C633 C634 1.524 . S
C633 H636 0.999 . S
C634 H604 0.950 . S
C634 C633 1.524 . S
C634 C635 1.415 . S
C635 H605 0.950 . S
C635 C630 1.363 . S
C635 C634 1.415 . S
H636 C633 0.999 . S
H637 C618 0.913 . S
H638 C656 0.951 . S
H639 C658 0.951 . S
H640 C660 0.950 . S
H641 C661 0.950 . S
H642 C663 0.950 . S
H643 C666 0.950 . S
H644 C667 0.950 . S
H645 C669 0.950 1_545 S
H646 C670 0.950 . S
H647 C671 0.951 . S
H648 C673 0.951 . S
H649 C675 0.950 . S
H650 C676 0.950 . S
H651 C678 0.950 . S
H652 C681 0.950 . S
H653 C682 0.950 . S
H654 C684 0.950 . S
H655 C685 0.950 . S
C656 H638 0.951 . S
C656 C657 1.366 . S
C656 C658 1.388 . S
C657 C656 1.366 . S
C657 C661 1.385 . S
C658 H639 0.951 . S
C658 C656 1.388 . S
C658 C659 1.366 . S
C659 C658 1.366 . S
C659 C660 1.414 . S
C659 C662 1.499 . S
C660 H640 0.950 . S
C660 C659 1.414 . S
C660 C661 1.374 . S
C661 H641 0.950 . S
C661 C657 1.385 . S
C661 C660 1.374 . S
C662 C659 1.499 . S
C662 C663 1.373 . S
C662 C664 1.389 . S
C663 H642 0.950 . S
C663 C662 1.373 . S
C663 C679 1.377 . S
C664 C662 1.389 . S
C664 C665 1.524 . S
C664 C678 1.377 . S
C665 C664 1.524 . S
C665 C666 1.397 . S
C665 C670 1.363 . S
C666 H643 0.950 . S
C666 C665 1.397 . S
C666 C667 1.334 . S
C667 H644 0.950 . S
C667 C666 1.334 . S
C667 C668 1.287 . S
C668 C667 1.287 . S
C668 C669 1.524 . S
C668 H687 0.913 . S
C669 H645 0.950 1_565 S
C669 C668 1.524 . S
C669 C670 1.415 . S
C670 H646 0.950 . S
C670 C665 1.363 . S
C670 C669 1.415 . S
C671 H647 0.951 . S
C671 C672 1.366 . S
C671 C673 1.388 . S
C672 C671 1.366 . S
C672 C676 1.385 . S
C673 H648 0.951 . S
C673 C671 1.388 . S
C673 C674 1.366 . S
C674 C673 1.366 . S
C674 C675 1.414 . S
C674 C677 1.499 . S
C675 H649 0.950 . S
C675 C674 1.414 . S
C675 C676 1.374 . S
C676 H650 0.950 . S
C676 C672 1.385 . S
C676 C675 1.374 . S
C677 C674 1.499 . S
C677 C678 1.373 . S
C677 C679 1.389 . S
C678 H651 0.950 . S
C678 C664 1.377 . S
C678 C677 1.373 . S
C679 C663 1.377 . S
C679 C677 1.389 . S
C679 C680 1.524 . S
C680 C679 1.524 . S
C680 C681 1.397 . S
C680 C685 1.363 . S
C681 H652 0.950 . S
C681 C680 1.397 . S
C681 C682 1.334 . S
C682 H653 0.950 . S
C682 C681 1.334 . S
C682 C683 1.287 . S
C683 C682 1.287 . S
C683 C684 1.524 . S
C683 H686 0.999 . S
C684 H654 0.950 . S
C684 C683 1.524 . S
C684 C685 1.415 . S
C685 H655 0.950 . S
C685 C680 1.363 . S
C685 C684 1.415 . S
H686 C683 0.999 . S
H687 C668 0.913 . S
H688 C706 0.951 . S
H689 C708 0.951 . S
H690 C710 0.950 . S
H691 C711 0.950 . S
H692 C713 0.950 . S
H693 C716 0.950 . S
H694 C717 0.950 . S
H695 C719 0.950 . S
H696 C720 0.950 . S
H697 C721 0.951 . S
H698 C723 0.951 . S
H699 C725 0.950 . S
H700 C726 0.950 . S
H701 C728 0.950 . S
H702 C731 0.950 . S
H703 C732 0.950 . S
H704 C734 0.950 . S
H705 C735 0.950 . S
C706 H688 0.951 . S
C706 C707 1.366 . S
C706 C708 1.388 . S
C707 C706 1.366 . S
C707 C711 1.385 . S
C708 H689 0.951 . S
C708 C706 1.388 . S
C708 C709 1.366 . S
C709 C708 1.366 . S
C709 C710 1.414 . S
C709 C712 1.499 . S
C710 H690 0.950 . S
C710 C709 1.414 . S
C710 C711 1.374 . S
C711 H691 0.950 . S
C711 C707 1.385 . S
C711 C710 1.374 . S
C712 C709 1.499 . S
C712 C713 1.373 . S
C712 C714 1.389 . S
C713 H692 0.950 . S
C713 C712 1.373 . S
C713 C729 1.377 . S
C714 C712 1.389 . S
C714 C715 1.524 . S
C714 C728 1.377 . S
C715 C714 1.524 . S
C715 C716 1.397 . S
C715 C720 1.363 . S
C716 H693 0.950 . S
C716 C715 1.397 . S
C716 C717 1.334 . S
C717 H694 0.950 . S
C717 C716 1.334 . S
C717 C718 1.287 . S
C718 C717 1.287 . S
C718 C719 1.524 . S
C718 H737 0.913 . S
C719 H695 0.950 . S
C719 C718 1.524 . S
C719 C720 1.415 . S
C720 H696 0.950 . S
C720 C715 1.363 . S
C720 C719 1.415 . S
C721 H697 0.951 . S
C721 C722 1.366 . S
C721 C723 1.388 . S
C722 C721 1.366 . S
C722 C726 1.385 . S
C723 H698 0.951 . S
C723 C721 1.388 . S
C723 C724 1.366 . S
C724 C723 1.366 . S
C724 C725 1.414 . S
C724 C727 1.499 . S
C725 H699 0.950 . S
C725 C724 1.414 . S
C725 C726 1.374 . S
C726 H700 0.950 . S
C726 C722 1.385 . S
C726 C725 1.374 . S
C727 C724 1.499 . S
C727 C728 1.373 . S
C727 C729 1.389 . S
C728 H701 0.950 . S
C728 C714 1.377 . S
C728 C727 1.373 . S
C729 C713 1.377 . S
C729 C727 1.389 . S
C729 C730 1.524 . S
C730 C729 1.524 . S
C730 C731 1.397 . S
C730 C735 1.363 . S
C731 H702 0.950 . S
C731 C730 1.397 . S
C731 C732 1.334 . S
C732 H703 0.950 . S
C732 C731 1.334 . S
C732 C733 1.287 . S
C733 C732 1.287 . S
C733 C734 1.524 . S
C733 H736 0.999 . S
C734 H704 0.950 . S
C734 C733 1.524 . S
C734 C735 1.415 . S
C735 H705 0.950 . S
C735 C730 1.363 . S
C735 C734 1.415 . S
H736 C733 0.999 . S
H737 C718 0.913 . S
H738 C756 0.951 . S
H739 C758 0.951 . S
H740 C760 0.950 . S
H741 C761 0.950 . S
H742 C763 0.950 . S
H743 C766 0.950 . S
H744 C767 0.950 . S
H745 C769 0.950 . S
H746 C770 0.950 . S
H747 C771 0.951 . S
H748 C773 0.951 . S
H749 C775 0.950 . S
H750 C776 0.950 1_655 S
H751 C778 0.950 . S
H752 C781 0.950 . S
H753 C782 0.950 . S
H754 C784 0.950 . S
H755 C785 0.950 . S
C756 H738 0.951 . S
C756 C757 1.366 . S
C756 C758 1.388 . S
C757 C756 1.366 . S
C757 C761 1.385 . S
C758 H739 0.951 . S
C758 C756 1.388 . S
C758 C759 1.366 . S
C759 C758 1.366 . S
C759 C760 1.414 . S
C759 C762 1.499 . S
C760 H740 0.950 . S
C760 C759 1.414 . S
C760 C761 1.374 . S
C761 H741 0.950 . S
C761 C757 1.385 . S
C761 C760 1.374 . S
C762 C759 1.499 . S
C762 C763 1.373 . S
C762 C764 1.389 . S
C763 H742 0.950 . S
C763 C762 1.373 . S
C763 C779 1.377 . S
C764 C762 1.389 . S
C764 C765 1.524 . S
C764 C778 1.377 . S
C765 C764 1.524 . S
C765 C766 1.397 . S
C765 C770 1.363 . S
C766 H743 0.950 . S
C766 C765 1.397 . S
C766 C767 1.334 . S
C767 H744 0.950 . S
C767 C766 1.334 . S
C767 C768 1.287 . S
C768 C767 1.287 . S
C768 C769 1.524 . S
C768 H787 0.913 . S
C769 H745 0.950 . S
C769 C768 1.524 . S
C769 C770 1.415 . S
C770 H746 0.950 . S
C770 C765 1.363 . S
C770 C769 1.415 . S
C771 H747 0.951 . S
C771 C772 1.366 . S
C771 C773 1.388 . S
C772 C771 1.366 . S
C772 C776 1.385 . S
C773 H748 0.951 . S
C773 C771 1.388 . S
C773 C774 1.366 . S
C774 C773 1.366 . S
C774 C775 1.414 . S
C774 C777 1.499 . S
C775 H749 0.950 . S
C775 C774 1.414 . S
C775 C776 1.374 . S
C776 H750 0.950 1_455 S
C776 C772 1.385 . S
C776 C775 1.374 . S
C777 C774 1.499 . S
C777 C778 1.373 . S
C777 C779 1.389 . S
C778 H751 0.950 . S
C778 C764 1.377 . S
C778 C777 1.373 . S
C779 C763 1.377 . S
C779 C777 1.389 . S
C779 C780 1.524 . S
C780 C779 1.524 . S
C780 C781 1.397 . S
C780 C785 1.363 . S
C781 H752 0.950 . S
C781 C780 1.397 . S
C781 C782 1.334 . S
C782 H753 0.950 . S
C782 C781 1.334 . S
C782 C783 1.287 . S
C783 C782 1.287 . S
C783 C784 1.524 . S
C783 H786 0.999 . S
C784 H754 0.950 . S
C784 C783 1.524 . S
C784 C785 1.415 . S
C785 H755 0.950 . S
C785 C780 1.363 . S
C785 C784 1.415 . S
H786 C783 0.999 . S
H787 C768 0.913 . S
H788 C806 0.951 . S
H789 C808 0.951 . S
H790 C810 0.950 . S
H791 C811 0.950 . S
H792 C813 0.950 . S
H793 C816 0.950 . S
H794 C817 0.950 1_655 S
H795 C819 0.950 . S
H796 C820 0.950 . S
H797 C821 0.951 1_545 S
H798 C823 0.951 . S
H799 C825 0.950 . S
H800 C826 0.950 . S
H801 C828 0.950 . S
H802 C831 0.950 . S
H803 C832 0.950 . S
H804 C834 0.950 1_545 S
H805 C835 0.950 . S
C806 H788 0.951 . S
C806 C807 1.366 . S
C806 C808 1.388 . S
C807 C806 1.366 . S
C807 C811 1.385 . S
C808 H789 0.951 . S
C808 C806 1.388 . S
C808 C809 1.366 . S
C809 C808 1.366 . S
C809 C810 1.414 . S
C809 C812 1.499 1_655 S
C810 H790 0.950 . S
C810 C809 1.414 . S
C810 C811 1.374 . S
C811 H791 0.950 . S
C811 C807 1.385 . S
C811 C810 1.374 . S
C812 C809 1.499 1_455 S
C812 C813 1.373 . S
C812 C814 1.389 . S
C813 H792 0.950 . S
C813 C812 1.373 . S
C813 C829 1.377 . S
C814 C812 1.389 . S
C814 C815 1.524 . S
C814 C828 1.377 . S
C815 C814 1.524 . S
C815 C816 1.397 . S
C815 C820 1.363 . S
C816 H793 0.950 . S
C816 C815 1.397 . S
C816 C817 1.334 . S
C817 H794 0.950 1_455 S
C817 C816 1.334 . S
C817 C818 1.287 . S
C818 C817 1.287 . S
C818 C819 1.524 . S
C818 H837 0.913 . S
C819 H795 0.950 . S
C819 C818 1.524 . S
C819 C820 1.415 . S
C820 H796 0.950 . S
C820 C815 1.363 . S
C820 C819 1.415 . S
C821 H797 0.951 1_565 S
C821 C822 1.366 . S
C821 C823 1.388 . S
C822 C821 1.366 . S
C822 C826 1.385 . S
C823 H798 0.951 . S
C823 C821 1.388 . S
C823 C824 1.366 . S
C824 C823 1.366 . S
C824 C825 1.414 . S
C824 C827 1.499 . S
C825 H799 0.950 . S
C825 C824 1.414 . S
C825 C826 1.374 . S
C826 H800 0.950 . S
C826 C822 1.385 . S
C826 C825 1.374 . S
C827 C824 1.499 . S
C827 C828 1.373 . S
C827 C829 1.389 . S
C828 H801 0.950 . S
C828 C814 1.377 . S
C828 C827 1.373 . S
C829 C813 1.377 . S
C829 C827 1.389 . S
C829 C830 1.524 . S
C830 C829 1.524 . S
C830 C831 1.397 . S
C830 C835 1.363 . S
C831 H802 0.950 . S
C831 C830 1.397 . S
C831 C832 1.334 . S
C832 H803 0.950 . S
C832 C831 1.334 . S
C832 C833 1.285 . S
C833 C832 1.285 . S
C833 C834 1.524 . S
C833 H836 1.001 1_565 S
C834 H804 0.950 1_565 S
C834 C833 1.524 . S
C834 C835 1.415 . S
C835 H805 0.950 . S
C835 C830 1.363 . S
C835 C834 1.415 . S
H836 C833 1.001 1_545 S
H837 C818 0.913 . S
H838 C856 0.951 . S
H839 C858 0.951 . S
H840 C860 0.950 . S
H841 C861 0.950 . S
H842 C863 0.950 . S
H843 C866 0.950 . S
H844 C867 0.950 . S
H845 C869 0.950 . S
H846 C870 0.950 . S
H847 C871 0.951 . S
H848 C873 0.951 . S
H849 C875 0.950 . S
H850 C876 0.950 . S
H851 C878 0.950 . S
H852 C881 0.950 . S
H853 C882 0.950 . S
H854 C884 0.950 . S
H855 C885 0.950 . S
C856 H838 0.951 . S
C856 C857 1.366 . S
C856 C858 1.388 . S
C857 C856 1.366 . S
C857 C861 1.385 . S
C858 H839 0.951 . S
C858 C856 1.388 . S
C858 C859 1.366 . S
C859 C858 1.366 . S
C859 C860 1.414 . S
C859 C862 1.499 1_545 S
C860 H840 0.950 . S
C860 C859 1.414 . S
C860 C861 1.374 . S
C861 H841 0.950 . S
C861 C857 1.385 . S
C861 C860 1.374 . S
C862 C859 1.499 1_565 S
C862 C863 1.373 . S
C862 C864 1.389 . S
C863 H842 0.950 . S
C863 C862 1.373 . S
C863 C879 1.377 . S
C864 C862 1.389 . S
C864 C865 1.524 . S
C864 C878 1.377 . S
C865 C864 1.524 . S
C865 C866 1.397 1_565 S
C865 C870 1.363 . S
C866 H843 0.950 . S
C866 C865 1.397 1_545 S
C866 C867 1.334 . S
C867 H844 0.950 . S
C867 C866 1.334 . S
C867 C868 1.287 . S
C868 C867 1.287 . S
C868 C869 1.524 . S
C868 H887 0.913 . S
C869 H845 0.950 . S
C869 C868 1.524 . S
C869 C870 1.415 1_545 S
C870 H846 0.950 . S
C870 C865 1.363 . S
C870 C869 1.415 1_565 S
C871 H847 0.951 . S
C871 C872 1.366 . S
C871 C873 1.388 . S
C872 C871 1.366 . S
C872 C876 1.385 . S
C873 H848 0.951 . S
C873 C871 1.388 . S
C873 C874 1.366 . S
C874 C873 1.366 . S
C874 C875 1.414 . S
C874 C877 1.499 . S
C875 H849 0.950 . S
C875 C874 1.414 . S
C875 C876 1.374 . S
C876 H850 0.950 . S
C876 C872 1.385 . S
C876 C875 1.374 . S
C877 C874 1.499 . S
C877 C878 1.373 . S
C877 C879 1.389 . S
C878 H851 0.950 . S
C878 C864 1.377 . S
C878 C877 1.373 . S
C879 C863 1.377 . S
C879 C877 1.389 . S
C879 C880 1.524 . S
C880 C879 1.524 . S
C880 C881 1.397 . S
C880 C885 1.363 . S
C881 H852 0.950 . S
C881 C880 1.397 . S
C881 C882 1.334 . S
C882 H853 0.950 . S
C882 C881 1.334 . S
C882 C883 1.287 . S
C883 C882 1.287 . S
C883 C884 1.524 . S
C883 H886 0.999 . S
C884 H854 0.950 . S
C884 C883 1.524 . S
C884 C885 1.415 . S
C885 H855 0.950 . S
C885 C880 1.363 . S
C885 C884 1.415 . S
H886 C883 0.999 . S
H887 C868 0.913 . S
H888 C906 0.951 . S
H889 C908 0.951 . S
H890 C910 0.950 . S
H891 C911 0.950 . S
H892 C913 0.950 . S
H893 C916 0.950 . S
H894 C917 0.950 . S
H895 C919 0.950 . S
H896 C920 0.950 . S
H897 C921 0.951 . S
H898 C923 0.951 . S
H899 C925 0.950 . S
H900 C926 0.950 1_565 S
H901 C928 0.950 . S
H902 C931 0.950 . S
H903 C932 0.950 . S
H904 C934 0.950 . S
H905 C935 0.950 . S
C906 H888 0.951 . S
C906 C907 1.366 . S
C906 C908 1.388 . S
C907 C906 1.366 . S
C907 C911 1.385 . S
C908 H889 0.951 . S
C908 C906 1.388 . S
C908 C909 1.366 . S
C909 C908 1.366 . S
C909 C910 1.414 . S
C909 C912 1.499 . S
C910 H890 0.950 . S
C910 C909 1.414 . S
C910 C911 1.374 . S
C911 H891 0.950 . S
C911 C907 1.385 . S
C911 C910 1.374 . S
C912 C909 1.499 . S
C912 C913 1.373 . S
C912 C914 1.389 . S
C913 H892 0.950 . S
C913 C912 1.373 . S
C913 C929 1.377 . S
C914 C912 1.389 . S
C914 C915 1.524 . S
C914 C928 1.377 . S
C915 C914 1.524 . S
C915 C916 1.397 . S
C915 C920 1.363 . S
C916 H893 0.950 . S
C916 C915 1.397 . S
C916 C917 1.334 . S
C917 H894 0.950 . S
C917 C916 1.334 . S
C917 C918 1.287 . S
C918 C917 1.287 . S
C918 C919 1.524 . S
C918 H937 0.913 . S
C919 H895 0.950 . S
C919 C918 1.524 . S
C919 C920 1.415 . S
C920 H896 0.950 . S
C920 C915 1.363 . S
C920 C919 1.415 . S
C921 H897 0.951 . S
C921 C922 1.366 . S
C921 C923 1.388 . S
C922 C921 1.366 . S
C922 C926 1.385 . S
C923 H898 0.951 . S
C923 C921 1.388 . S
C923 C924 1.366 . S
C924 C923 1.366 . S
C924 C925 1.414 . S
C924 C927 1.499 . S
C925 H899 0.950 . S
C925 C924 1.414 . S
C925 C926 1.374 . S
C926 H900 0.950 1_545 S
C926 C922 1.385 . S
C926 C925 1.374 . S
C927 C924 1.499 . S
C927 C928 1.373 . S
C927 C929 1.389 . S
C928 H901 0.950 . S
C928 C914 1.377 . S
C928 C927 1.373 . S
C929 C913 1.377 . S
C929 C927 1.389 . S
C929 C930 1.524 . S
C930 C929 1.524 . S
C930 C931 1.397 . S
C930 C935 1.363 . S
C931 H902 0.950 . S
C931 C930 1.397 . S
C931 C932 1.334 . S
C932 H903 0.950 . S
C932 C931 1.334 . S
C932 C933 1.287 . S
C933 C932 1.287 . S
C933 C934 1.524 . S
C933 H936 0.999 . S
C934 H904 0.950 . S
C934 C933 1.524 . S
C934 C935 1.415 . S
C935 H905 0.950 . S
C935 C930 1.363 . S
C935 C934 1.415 . S
H936 C933 0.999 . S
H937 C918 0.913 . S
H938 C956 0.951 . S
H939 C958 0.951 . S
H940 C960 0.950 . S
H941 C961 0.950 . S
H942 C963 0.950 . S
H943 C966 0.950 . S
H944 C967 0.950 . S
H945 C969 0.950 . S
H946 C970 0.950 . S
H947 C971 0.951 . S
H948 C973 0.951 . S
H949 C975 0.950 . S
H950 C976 0.950 . S
H951 C978 0.950 . S
H952 C981 0.950 . S
H953 C982 0.950 . S
H954 C984 0.950 . S
H955 C985 0.950 . S
C956 H938 0.951 . S
C956 C957 1.366 . S
C956 C958 1.388 . S
C957 C956 1.366 . S
C957 C961 1.385 . S
C958 H939 0.951 . S
C958 C956 1.388 . S
C958 C959 1.366 . S
C959 C958 1.366 . S
C959 C960 1.414 . S
C959 C962 1.499 1_455 S
C960 H940 0.950 . S
C960 C959 1.414 . S
C960 C961 1.374 . S
C961 H941 0.950 . S
C961 C957 1.385 . S
C961 C960 1.374 . S
C962 C959 1.499 1_655 S
C962 C963 1.373 . S
C962 C964 1.389 . S
C963 H942 0.950 . S
C963 C962 1.373 . S
C963 C979 1.377 . S
C964 C962 1.389 . S
C964 C965 1.524 . S
C964 C978 1.377 . S
C965 C964 1.524 . S
C965 C966 1.397 1_655 S
C965 C970 1.363 . S
C966 H943 0.950 . S
C966 C965 1.397 1_455 S
C966 C967 1.334 . S
C967 H944 0.950 . S
C967 C966 1.334 . S
C967 C968 1.287 . S
C968 C967 1.287 . S
C968 C969 1.524 . S
C968 H987 0.913 . S
C969 H945 0.950 . S
C969 C968 1.524 . S
C969 C970 1.415 1_455 S
C970 H946 0.950 . S
C970 C965 1.363 . S
C970 C969 1.415 1_655 S
C971 H947 0.951 . S
C971 C972 1.366 . S
C971 C973 1.388 . S
C972 C971 1.366 . S
C972 C976 1.385 . S
C973 H948 0.951 . S
C973 C971 1.388 . S
C973 C974 1.366 . S
C974 C973 1.366 . S
C974 C975 1.414 . S
C974 C977 1.499 . S
C975 H949 0.950 . S
C975 C974 1.414 . S
C975 C976 1.374 . S
C976 H950 0.950 . S
C976 C972 1.385 . S
C976 C975 1.374 . S
C977 C974 1.499 . S
C977 C978 1.373 . S
C977 C979 1.389 . S
C978 H951 0.950 . S
C978 C964 1.377 . S
C978 C977 1.373 . S
C979 C963 1.377 . S
C979 C977 1.389 . S
C979 C980 1.524 . S
C980 C979 1.524 . S
C980 C981 1.397 . S
C980 C985 1.363 . S
C981 H952 0.950 . S
C981 C980 1.397 . S
C981 C982 1.334 . S
C982 H953 0.950 . S
C982 C981 1.334 . S
C982 C983 1.287 . S
C983 C982 1.287 . S
C983 C984 1.524 . S
C983 H986 0.999 . S
C984 H954 0.950 . S
C984 C983 1.524 . S
C984 C985 1.415 . S
C985 H955 0.950 . S
C985 C980 1.363 . S
C985 C984 1.415 . S
H986 C983 0.999 . S
H987 C968 0.913 . S
H988 C1006 0.951 . S
H989 C1008 0.951 . S
H990 C1010 0.950 . S
H991 C1011 0.950 . S
H992 C1013 0.950 . S
H993 C1016 0.950 . S
H994 C1017 0.950 . S
H995 C1019 0.950 . S
H996 C1020 0.950 . S
H997 C1021 0.951 . S
H998 C1023 0.951 . S
H999 C1025 0.950 . S
H1000 C1026 0.950 . S
H1001 C1028 0.950 . S
H1002 C1031 0.950 . S
H1003 C1032 0.950 . S
H1004 C1034 0.950 . S
H1005 C1035 0.950 . S
C1006 H988 0.951 . S
C1006 C1007 1.366 . S
C1006 C1008 1.388 . S
C1007 C1006 1.366 . S
C1007 C1011 1.385 . S
C1008 H989 0.951 . S
C1008 C1006 1.388 . S
C1008 C1009 1.366 . S
C1009 C1008 1.366 . S
C1009 C1010 1.414 . S
C1009 C1012 1.499 . S
C1010 H990 0.950 . S
C1010 C1009 1.414 . S
C1010 C1011 1.374 . S
C1011 H991 0.950 . S
C1011 C1007 1.385 . S
C1011 C1010 1.374 . S
C1012 C1009 1.499 . S
C1012 C1013 1.373 . S
C1012 C1014 1.389 . S
C1013 H992 0.950 . S
C1013 C1012 1.373 . S
C1013 C1029 1.377 . S
C1014 C1012 1.389 . S
C1014 C1015 1.524 . S
C1014 C1028 1.377 . S
C1015 C1014 1.524 . S
C1015 C1016 1.397 . S
C1015 C1020 1.363 . S
C1016 H993 0.950 . S
C1016 C1015 1.397 . S
C1016 C1017 1.334 . S
C1017 H994 0.950 . S
C1017 C1016 1.334 . S
C1017 C1018 1.287 . S
C1018 C1017 1.287 . S
C1018 C1019 1.524 . S
C1018 H1037 0.913 . S
C1019 H995 0.950 . S
C1019 C1018 1.524 . S
C1019 C1020 1.415 . S
C1020 H996 0.950 . S
C1020 C1015 1.363 . S
C1020 C1019 1.415 . S
C1021 H997 0.951 . S
C1021 C1022 1.366 . S
C1021 C1023 1.388 . S
C1022 C1021 1.366 . S
C1022 C1026 1.385 . S
C1023 H998 0.951 . S
C1023 C1021 1.388 . S
C1023 C1024 1.366 . S
C1024 C1023 1.366 . S
C1024 C1025 1.414 . S
C1024 C1027 1.499 1_565 S
C1025 H999 0.950 . S
C1025 C1024 1.414 . S
C1025 C1026 1.374 . S
C1026 H1000 0.950 . S
C1026 C1022 1.385 . S
C1026 C1025 1.374 . S
C1027 C1024 1.499 1_545 S
C1027 C1028 1.373 . S
C1027 C1029 1.389 . S
C1028 H1001 0.950 . S
C1028 C1014 1.377 . S
C1028 C1027 1.373 . S
C1029 C1013 1.377 . S
C1029 C1027 1.389 . S
C1029 C1030 1.524 . S
C1030 C1029 1.524 . S
C1030 C1031 1.397 1_545 S
C1030 C1035 1.363 . S
C1031 H1002 0.950 . S
C1031 C1030 1.397 1_565 S
C1031 C1032 1.334 . S
C1032 H1003 0.950 . S
C1032 C1031 1.334 . S
C1032 C1033 1.287 . S
C1033 C1032 1.287 . S
C1033 C1034 1.524 . S
C1033 H1036 0.999 . S
C1034 H1004 0.950 . S
C1034 C1033 1.524 . S
C1034 C1035 1.415 1_565 S
C1035 H1005 0.950 . S
C1035 C1030 1.363 . S
C1035 C1034 1.415 1_545 S
H1036 C1033 0.999 . S
H1037 C1018 0.913 . S
C157 C111 1.784 . S
C172 C19 1.784 . S
C207 C135 1.795 . S
C222 C43 1.795 . S
C257 C65 1.784 . S
C272 C88 1.784 . S
C307 C20 1.795 . S
C322 C112 1.795 . S
C357 C134 1.784 . S
C372 C42 1.784 . S
C407 C66 1.795 . S
C422 C89 1.795 . S
C457 C18 1.102 . S
C472 C62 1.117 . S
C507 C41 1.103 . S
C522 C16 1.117 . S
C557 C64 1.102 . S
C572 C39 1.117 . S
C607 C87 1.102 . S
C622 C108 1.117 . S
C657 C110 1.103 . S
C672 C131 1.117 . S
C707 C85 1.117 . S
C722 C133 1.103 . S
C757 C21 0.630 . S
C772 C63 0.637 . S
C807 C44 0.628 . S
C822 C17 0.638 . S
C857 C67 0.630 . S
C872 C40 0.636 . S
C907 C90 0.630 . S
C922 C109 0.637 . S
C957 C113 0.630 . S
C972 C132 0.636 . S
C1007 C86 0.636 . S
C1022 C136 0.630 . S
