# Generated by pormake.
# Topology umm, (4)-cn, num edge types: 1
# Building blocks:
#     Node 0, Type 0, BuildingBlock: KOZSID_clean_sbu_0, # of connection points: 4
#     Node 1, Type 0, BuildingBlock: KOZSID_clean_sbu_0, # of connection points: 4
#     Node 2, Type 0, BuildingBlock: KOZSID_clean_sbu_0, # of connection points: 4
#     Node 3, Type 0, BuildingBlock: KOZSID_clean_sbu_0, # of connection points: 4
#     Node 4, Type 0, BuildingBlock: KOZSID_clean_sbu_0, # of connection points: 4
#     Node 5, Type 0, BuildingBlock: KOZSID_clean_sbu_0, # of connection points: 4
#     Node 6, Type 0, BuildingBlock: KOZSID_clean_sbu_0, # of connection points: 4
#     Node 7, Type 0, BuildingBlock: KOZSID_clean_sbu_0, # of connection points: 4
#     Node 8, Type 0, BuildingBlock: KOZSID_clean_sbu_0, # of connection points: 4
#     Node 9, Type 0, BuildingBlock: KOZSID_clean_sbu_0, # of connection points: 4
#     Node 10, Type 0, BuildingBlock: KOZSID_clean_sbu_0, # of connection points: 4
#     Node 11, Type 0, BuildingBlock: KOZSID_clean_sbu_0, # of connection points: 4
#     Edge 12, Type (0, 0), None
#     Edge 13, Type (0, 0), None
#     Edge 14, Type (0, 0), None
#     Edge 15, Type (0, 0), None
#     Edge 16, Type (0, 0), None
#     Edge 17, Type (0, 0), None
#     Edge 18, Type (0, 0), None
#     Edge 19, Type (0, 0), None
#     Edge 20, Type (0, 0), None
#     Edge 21, Type (0, 0), None
#     Edge 22, Type (0, 0), None
#     Edge 23, Type (0, 0), None
#     Edge 24, Type (0, 0), None
#     Edge 25, Type (0, 0), None
#     Edge 26, Type (0, 0), None
#     Edge 27, Type (0, 0), None
#     Edge 28, Type (0, 0), None
#     Edge 29, Type (0, 0), None
#     Edge 30, Type (0, 0), None
#     Edge 31, Type (0, 0), None
#     Edge 32, Type (0, 0), None
#     Edge 33, Type (0, 0), None
#     Edge 34, Type (0, 0), None
#     Edge 35, Type (0, 0), None
# Relax obj value: 0.064
# Max RMSD: 0.162
# Mean RMSD: 0.162
data_MOF--net-umm--node1-KOZSID_clean_sbu_0--edge1-none
_symmetry_space_group_name_H-M    P1
_symmetry_Int_Tables_number       1
_symmetry_cell_setting            triclinic
loop_
_symmetry_equiv_pos_as_xyz
'x, y, z'
_cell_length_a     30.835346
_cell_length_b     30.834028
_cell_length_c     21.361033
_cell_angle_alpha  89.998682
_cell_angle_beta   90.002532
_cell_angle_gamma 119.9947
loop_
_atom_site_label
_atom_site_type_symbol
_atom_site_fract_x
_atom_site_fract_y
_atom_site_fract_z
_atom_type_partial_charge
C0 C 0.28435 0.51942 0.09588 0.0
C1 C 0.2352 0.48358 0.10947 0.0
C2 C 0.23579 0.44155 0.12885 0.0
C3 C 0.28535 0.45473 0.12829 0.0
N4 N 0.31569 0.50234 0.11033 0.0
Co5 Co 0.38871 0.53993 0.12202 0.0
N6 N 0.39198 0.47715 0.1213 0.0
C7 C 0.35228 0.43034 0.11972 0.0
C8 C 0.36401 0.39608 0.09635 0.0
C9 C 0.41441 0.42274 0.08475 0.0
C10 C 0.43133 0.47118 0.10641 0.0
N11 N 0.46137 0.57685 0.13809 0.0
C12 C 0.493 0.55829 0.14571 0.0
C13 C 0.53249 0.59044 0.18454 0.0
C14 C 0.52765 0.63174 0.19578 0.0
C15 C 0.48402 0.62188 0.1667 0.0
N16 N 0.38304 0.60167 0.11756 0.0
C17 C 0.41664 0.64624 0.14117 0.0
C18 C 0.40243 0.68163 0.13232 0.0
C19 C 0.35672 0.65716 0.10203 0.0
C20 C 0.34652 0.6087 0.09075 0.0
N21 N 0.37991 0.53636 0.21461 0.0
C22 C 0.41069 0.57006 0.33942 0.0
C23 C 0.37878 0.58239 0.30597 0.0
C24 C 0.3628 0.56414 0.24473 0.0
C25 C 0.41928 0.53364 0.31131 0.0
C26 C 0.40402 0.51771 0.24977 0.0
N27 N 0.40217 0.54742 1.03187 0.0
C28 C 0.45114 0.603 0.94831 0.0
C29 C 0.42894 0.56424 0.90486 0.0
C30 C 0.39347 0.51619 0.9267 0.0
C31 C 0.38078 0.50855 0.99051 0.0
C32 C 0.43758 0.59381 1.01095 0.0
H33 H 0.35336 0.47158 1.00623 0.0
H34 H 0.45621 0.6249 0.04252 0.0
H35 H 0.33992 0.57605 0.22025 0.0
H36 H 0.41614 0.49359 0.2296 0.0
C37 C 0.3037 0.42157 0.12959 0.0
C38 C 0.29972 0.56706 0.06292 0.0
C39 C 0.484 0.50828 0.12211 0.0
C40 C 0.4619 0.65269 0.16645 0.0
H41 H 0.20229 0.48642 0.10181 0.0
H42 H 0.20374 0.405 0.13799 0.0
H43 H 0.33867 0.35693 0.08621 0.0
H44 H 0.43634 0.40735 0.06565 0.0
H45 H 0.56149 0.58441 0.20383 0.0
H46 H 0.55203 0.6641 0.22388 0.0
H47 H 0.42268 0.7206 0.14601 0.0
H48 H 0.33286 0.67264 0.0922 0.0
H49 H 0.36719 0.60728 0.32518 0.0
H50 H 0.43931 0.51805 0.33486 0.0
H51 H 0.47802 0.64082 0.93404 0.0
H52 H 0.37551 0.48477 0.89483 0.0
C53 C 0.76667 0.28348 0.42922 0.0
C54 C 0.75337 0.23433 0.44281 0.0
C55 C 0.79598 0.23492 0.46219 0.0
C56 C 0.83235 0.28447 0.46163 0.0
N57 N 0.81509 0.31482 0.44366 0.0
Co58 Co 0.85052 0.38785 0.45535 0.0
N59 N 0.91656 0.39111 0.45464 0.0
C60 C 0.92367 0.35141 0.45306 0.0
C61 C 0.96966 0.36313 0.42969 0.0
C62 C 0.9934 0.41353 0.41809 0.0
C63 C 0.96188 0.43046 0.43975 0.0
N64 N 0.88626 0.46051 0.47142 0.0
C65 C 0.93644 0.49214 0.47904 0.0
C66 C 0.94378 0.53163 0.51786 0.0
C67 C 0.89764 0.52679 0.5291 0.0
C68 C 0.86388 0.48317 0.50002 0.0
N69 N 0.78312 0.38218 0.45089 0.0
C70 C 0.77215 0.41579 0.4745 0.0
C71 C 0.72255 0.40158 0.46564 0.0
C72 C 0.70132 0.35587 0.43536 0.0
C73 C 0.73957 0.34567 0.42408 0.0
N74 N 0.84528 0.37904 0.54795 0.0
C75 C 0.84236 0.40983 0.67275 0.0
C76 C 0.79813 0.37791 0.6393 0.0
C77 C 0.8004 0.36194 0.57806 0.0
C78 C 0.88736 0.41841 0.64465 0.0
C79 C 0.88805 0.40315 0.5831 0.0
N80 N 0.8565 0.40131 0.3652 0.0
C81 C 0.84987 0.45028 0.28164 0.0
C82 C 0.86644 0.42808 0.23819 0.0
C83 C 0.87901 0.3926 0.26003 0.0
C84 C 0.87396 0.3799 0.32385 0.0
C85 C 0.84551 0.43673 0.34428 0.0
H86 H 0.88351 0.35248 0.33957 0.0
H87 H 0.83306 0.45536 0.37584 0.0
H88 H 0.76561 0.33906 0.55358 0.0
H89 H 0.92428 0.41527 0.56293 0.0
C90 C 0.88387 0.30283 0.46292 0.0
C91 C 0.73441 0.29886 0.39626 0.0
C92 C 0.97745 0.48314 0.45544 0.0
C93 C 0.81096 0.46105 0.49978 0.0
H94 H 0.71762 0.20142 0.43516 0.0
H95 H 0.80048 0.20286 0.47134 0.0
H96 H 0.98346 0.33778 0.41955 0.0
H97 H 0.03072 0.43546 0.39899 0.0
H98 H 0.97881 0.56063 0.53715 0.0
H99 H 0.88966 0.55118 0.5572 0.0
H100 H 0.70383 0.42184 0.47933 0.0
H101 H 0.66198 0.33202 0.42554 0.0
H102 H 0.76165 0.36633 0.65851 0.0
H103 H 0.92298 0.43843 0.6682 0.0
H104 H 0.83894 0.47717 0.26737 0.0
H105 H 0.89246 0.37463 0.22816 0.0
C106 C 0.4849 0.76579 0.76256 0.0
C107 C 0.52074 0.75247 0.77615 0.0
C108 C 0.56277 0.79508 0.79553 0.0
C109 C 0.54959 0.83146 0.79498 0.0
N110 N 0.50198 0.8142 0.77701 0.0
Co111 Co 0.46439 0.84965 0.7887 0.0
N112 N 0.52717 0.91568 0.78799 0.0
C113 C 0.57398 0.92278 0.78641 0.0
C114 C 0.60824 0.96878 0.76303 0.0
C115 C 0.58158 0.99252 0.75143 0.0
C116 C 0.53314 0.961 0.77309 0.0
N117 N 0.42748 0.8854 0.80477 0.0
C118 C 0.44604 0.93558 0.81239 0.0
C119 C 0.41389 0.94292 0.85122 0.0
C120 C 0.37259 0.89679 0.86246 0.0
C121 C 0.38245 0.86302 0.83338 0.0
N122 N 0.40266 0.78225 0.78424 0.0
C123 C 0.35809 0.77128 0.80785 0.0
C124 C 0.3227 0.72168 0.79899 0.0
C125 C 0.34717 0.70045 0.7687 0.0
C126 C 0.39562 0.7387 0.75742 0.0
N127 N 0.46796 0.84441 0.8813 0.0
C128 C 0.43427 0.84149 1.0061 0.0
C129 C 0.42194 0.79726 0.97265 0.0
C130 C 0.44018 0.79952 0.91141 0.0
C131 C 0.47069 0.88649 0.97799 0.0
C132 C 0.48662 0.88717 0.91645 0.0
N133 N 0.45691 0.85563 0.69855 0.0
C134 C 0.40132 0.84901 0.61499 0.0
C135 C 0.44008 0.86557 0.57154 0.0
C136 C 0.48813 0.87815 0.59338 0.0
C137 C 0.49577 0.8731 0.6572 0.0
C138 C 0.41051 0.84465 0.67763 0.0
H139 H 0.53274 0.88265 0.67291 0.0
H140 H 0.37943 0.83219 0.7092 0.0
H141 H 0.42827 0.76473 0.88693 0.0
H142 H 0.51074 0.9234 0.89628 0.0
C143 C 0.58276 0.88298 0.79627 0.0
C144 C 0.43727 0.73353 0.7296 0.0
C145 C 0.49605 0.97659 0.78879 0.0
C146 C 0.35164 0.8101 0.83313 0.0
H147 H 0.5179 0.71672 0.76849 0.0
H148 H 0.59932 0.79957 0.80467 0.0
H149 H 0.64739 0.98257 0.75289 0.0
H150 H 0.59697 0.02984 0.73233 0.0
H151 H 0.41992 0.97796 0.87051 0.0
H152 H 0.34023 0.88882 0.89056 0.0
H153 H 0.28373 0.70297 0.81268 0.0
H154 H 0.33169 0.66111 0.75887 0.0
H155 H 0.39705 0.76078 0.99186 0.0
H156 H 0.48628 0.92211 1.00154 0.0
H157 H 0.3635 0.83807 0.60072 0.0
H158 H 0.51954 0.8916 0.56151 0.0
C159 C 0.72085 0.48404 0.09588 0.0
C160 C 0.76999 0.51988 0.10947 0.0
C161 C 0.76941 0.56191 0.12885 0.0
C162 C 0.71985 0.54873 0.12829 0.0
N163 N 0.68951 0.50112 0.11033 0.0
Co164 Co 0.61648 0.46353 0.12201 0.0
N165 N 0.61322 0.52631 0.1213 0.0
C166 C 0.65291 0.57312 0.11971 0.0
C167 C 0.64118 0.60739 0.09634 0.0
C168 C 0.59078 0.58073 0.08475 0.0
C169 C 0.57387 0.53229 0.10641 0.0
N170 N 0.54382 0.42662 0.13809 0.0
C171 C 0.51219 0.44517 0.14571 0.0
C172 C 0.47271 0.41302 0.18454 0.0
C173 C 0.47755 0.37172 0.19577 0.0
C174 C 0.52117 0.38158 0.16669 0.0
N175 N 0.62215 0.4018 0.11756 0.0
C176 C 0.58855 0.35722 0.14117 0.0
C177 C 0.60277 0.32183 0.13231 0.0
C178 C 0.64847 0.34631 0.10202 0.0
C179 C 0.65867 0.39476 0.09074 0.0
N180 N 0.62529 0.4671 0.21461 0.0
C181 C 0.5945 0.4334 0.33942 0.0
C182 C 0.62642 0.42108 0.30597 0.0
C183 C 0.64239 0.43932 0.24473 0.0
C184 C 0.58592 0.46983 0.31131 0.0
C185 C 0.60118 0.48576 0.24977 0.0
N186 N 0.60302 0.45605 1.03186 0.0
C187 C 0.55405 0.40046 0.94831 0.0
C188 C 0.57625 0.43922 0.90485 0.0
C189 C 0.61172 0.48727 0.92669 0.0
C190 C 0.62441 0.49492 0.99051 0.0
C191 C 0.56761 0.40965 1.01095 0.0
H192 H 0.65183 0.53189 1.00622 0.0
H193 H 0.54898 0.37856 0.04251 0.0
H194 H 0.66527 0.4274 0.22025 0.0
H195 H 0.58907 0.50988 0.22959 0.0
C196 C 0.70149 0.5819 0.12958 0.0
C197 C 0.70548 0.43641 0.06292 0.0
C198 C 0.5212 0.49519 0.12212 0.0
C199 C 0.54329 0.35077 0.16645 0.0
H200 H 0.8029 0.51704 0.10182 0.0
H201 H 0.80146 0.59846 0.13799 0.0
H202 H 0.66652 0.64653 0.0862 0.0
H203 H 0.56885 0.59612 0.06565 0.0
H204 H 0.44371 0.41905 0.20383 0.0
H205 H 0.45317 0.33936 0.22388 0.0
H206 H 0.58251 0.28286 0.146 0.0
H207 H 0.67233 0.33083 0.0922 0.0
H208 H 0.638 0.39618 0.32518 0.0
H209 H 0.5659 0.48542 0.33485 0.0
H210 H 0.52717 0.36264 0.93404 0.0
H211 H 0.62968 0.51868 0.89482 0.0
C212 C 0.23852 0.71998 0.4292 0.0
C213 C 0.25182 0.76912 0.4428 0.0
C214 C 0.20921 0.76854 0.46217 0.0
C215 C 0.17284 0.71899 0.46161 0.0
N216 N 0.1901 0.68864 0.44365 0.0
Co217 Co 0.15467 0.61561 0.45534 0.0
N218 N 0.08863 0.61236 0.45462 0.0
C219 C 0.08152 0.65205 0.45304 0.0
C220 C 0.03552 0.64033 0.42967 0.0
C221 C 0.01179 0.58993 0.41808 0.0
C222 C 0.04331 0.573 0.43974 0.0
N223 N 0.11892 0.54295 0.47142 0.0
C224 C 0.06874 0.51132 0.47904 0.0
C225 C 0.06141 0.47183 0.51787 0.0
C226 C 0.10755 0.47667 0.52911 0.0
C227 C 0.14131 0.52029 0.50002 0.0
N228 N 0.22207 0.62127 0.45088 0.0
C229 C 0.23304 0.58766 0.47449 0.0
C230 C 0.28264 0.60187 0.46564 0.0
C231 C 0.30387 0.64758 0.43535 0.0
C232 C 0.26562 0.65779 0.42407 0.0
N233 N 0.15991 0.62442 0.54794 0.0
C234 C 0.16283 0.59364 0.67275 0.0
C235 C 0.20706 0.62554 0.6393 0.0
C236 C 0.20479 0.64152 0.57805 0.0
C237 C 0.11783 0.58506 0.64464 0.0
C238 C 0.11714 0.60031 0.58309 0.0
N239 N 0.14869 0.60214 0.36519 0.0
C240 C 0.1553 0.55317 0.28164 0.0
C241 C 0.13874 0.57538 0.23818 0.0
C242 C 0.12618 0.61086 0.26002 0.0
C243 C 0.13122 0.62355 0.32383 0.0
C244 C 0.15967 0.56673 0.34428 0.0
H245 H 0.12168 0.65098 0.33955 0.0
H246 H 0.17212 0.54809 0.37585 0.0
H247 H 0.23958 0.66439 0.55358 0.0
H248 H 0.08091 0.5882 0.56292 0.0
C249 C 0.12132 0.70064 0.4629 0.0
C250 C 0.27078 0.7046 0.39625 0.0
C251 C 0.02773 0.52033 0.45546 0.0
C252 C 0.19423 0.54241 0.49978 0.0
H253 H 0.28757 0.80203 0.43514 0.0
H254 H 0.20471 0.8006 0.47131 0.0
H255 H 0.02172 0.66568 0.41953 0.0
H256 H 0.97446 0.568 0.39898 0.0
H257 H 0.02638 0.44283 0.53717 0.0
H258 H 0.11553 0.45229 0.55721 0.0
H259 H 0.30135 0.58161 0.47933 0.0
H260 H 0.3432 0.67143 0.42553 0.0
H261 H 0.24354 0.63712 0.6585 0.0
H262 H 0.08221 0.56504 0.66819 0.0
H263 H 0.16624 0.52628 0.26737 0.0
H264 H 0.11273 0.62883 0.22815 0.0
C265 C 0.52029 0.23767 0.76255 0.0
C266 C 0.48446 0.25099 0.77613 0.0
C267 C 0.44243 0.20838 0.79551 0.0
C268 C 0.45561 0.172 0.79496 0.0
N269 N 0.50321 0.18926 0.777 0.0
Co270 Co 0.5408 0.15381 0.78869 0.0
N271 N 0.47802 0.08778 0.78798 0.0
C272 C 0.43121 0.08068 0.78639 0.0
C273 C 0.39695 0.03468 0.76302 0.0
C274 C 0.4236 0.01094 0.75143 0.0
C275 C 0.47204 0.04245 0.77309 0.0
N276 N 0.57771 0.11805 0.80478 0.0
C277 C 0.55915 0.06787 0.81239 0.0
C278 C 0.5913 0.06053 0.85122 0.0
C279 C 0.6326 0.10666 0.86246 0.0
C280 C 0.62274 0.14043 0.83338 0.0
N281 N 0.60253 0.22121 0.78424 0.0
C282 C 0.6471 0.23217 0.80785 0.0
C283 C 0.68249 0.28177 0.79899 0.0
C284 C 0.65802 0.303 0.7687 0.0
C285 C 0.60957 0.26476 0.75742 0.0
N286 N 0.53723 0.15905 0.88129 0.0
C287 C 0.57093 0.16196 1.0061 0.0
C288 C 0.58325 0.2062 0.97265 0.0
C289 C 0.56501 0.20393 0.91141 0.0
C290 C 0.5345 0.11696 0.97799 0.0
C291 C 0.51857 0.11628 0.91645 0.0
N292 N 0.54828 0.14783 0.69855 0.0
C293 C 0.60387 0.15444 0.615 0.0
C294 C 0.56511 0.13788 0.57154 0.0
C295 C 0.51706 0.12531 0.59337 0.0
C296 C 0.50942 0.13036 0.65719 0.0
C297 C 0.59468 0.15881 0.67763 0.0
H298 H 0.47245 0.12081 0.6729 0.0
H299 H 0.62576 0.17126 0.7092 0.0
H300 H 0.57692 0.23872 0.88693 0.0
H301 H 0.49445 0.08005 0.89627 0.0
C302 C 0.42244 0.12048 0.79625 0.0
C303 C 0.56793 0.26993 0.72959 0.0
C304 C 0.50913 0.02687 0.78881 0.0
C305 C 0.65355 0.19336 0.83314 0.0
H306 H 0.4873 0.28674 0.76847 0.0
H307 H 0.40588 0.20389 0.80465 0.0
H308 H 0.3578 0.02089 0.75288 0.0
H309 H 0.40821 0.97362 0.73233 0.0
H310 H 0.58527 0.02549 0.87052 0.0
H311 H 0.66496 0.11463 0.89057 0.0
H312 H 0.72147 0.30048 0.81268 0.0
H313 H 0.67351 0.34234 0.75887 0.0
H314 H 0.60815 0.24268 0.99185 0.0
H315 H 0.51891 0.08134 1.00154 0.0
H316 H 0.64169 0.16538 0.60073 0.0
H317 H 0.48565 0.11186 0.5615 0.0
C318 C 0.4849 0.71998 0.64598 0.0
C319 C 0.52074 0.76913 0.63239 0.0
C320 C 0.56277 0.76854 0.61301 0.0
C321 C 0.54959 0.71898 0.61356 0.0
N322 N 0.50198 0.68864 0.63152 0.0
Co323 Co 0.46439 0.61562 0.61983 0.0
N324 N 0.52717 0.61235 0.62055 0.0
C325 C 0.57398 0.65205 0.62213 0.0
C326 C 0.60824 0.64031 0.64551 0.0
C327 C 0.58158 0.58991 0.6571 0.0
C328 C 0.53314 0.573 0.63544 0.0
N329 N 0.42748 0.54295 0.60375 0.0
C330 C 0.44604 0.51132 0.59613 0.0
C331 C 0.41389 0.47184 0.5573 0.0
C332 C 0.37259 0.47668 0.54606 0.0
C333 C 0.38245 0.5203 0.57514 0.0
N334 N 0.40266 0.62129 0.62428 0.0
C335 C 0.35809 0.58768 0.60067 0.0
C336 C 0.3227 0.6019 0.60953 0.0
C337 C 0.34717 0.6476 0.63982 0.0
C338 C 0.39562 0.6578 0.6511 0.0
N339 N 0.46796 0.62442 0.52723 0.0
C340 C 0.43427 0.59364 0.40242 0.0
C341 C 0.42194 0.62555 0.43587 0.0
C342 C 0.44018 0.64153 0.49711 0.0
C343 C 0.47069 0.58506 0.43054 0.0
C344 C 0.48662 0.60031 0.49208 0.0
N345 N 0.45691 0.60214 0.70998 0.0
C346 C 0.40132 0.55318 0.79353 0.0
C347 C 0.44008 0.57538 0.83699 0.0
C348 C 0.48813 0.61085 0.81515 0.0
C349 C 0.49578 0.62354 0.75134 0.0
C350 C 0.41051 0.56674 0.73089 0.0
H351 H 0.53275 0.65096 0.73562 0.0
H352 H 0.37943 0.54811 0.69932 0.0
H353 H 0.42827 0.6644 0.52159 0.0
H354 H 0.51074 0.5882 0.51225 0.0
C355 C 0.58276 0.70063 0.61227 0.0
C356 C 0.43727 0.7046 0.67893 0.0
C357 C 0.49605 0.52032 0.61974 0.0
C358 C 0.35164 0.54242 0.57539 0.0
H359 H 0.5179 0.80204 0.64005 0.0
H360 H 0.59932 0.8006 0.60387 0.0
H361 H 0.64739 0.66566 0.65565 0.0
H362 H 0.59697 0.56798 0.67621 0.0
H363 H 0.41992 0.44284 0.53801 0.0
H364 H 0.34024 0.4523 0.51795 0.0
H365 H 0.28373 0.58164 0.59584 0.0
H366 H 0.33169 0.67146 0.64965 0.0
H367 H 0.39705 0.63714 0.41666 0.0
H368 H 0.48629 0.56503 0.40699 0.0
H369 H 0.3635 0.5263 0.8078 0.0
H370 H 0.51954 0.62881 0.84702 0.0
C371 C 0.76666 0.48404 0.9793 0.0
C372 C 0.75335 0.51988 0.96571 0.0
C373 C 0.79596 0.56191 0.94634 0.0
C374 C 0.83233 0.54873 0.94689 0.0
N375 N 0.81508 0.50112 0.96485 0.0
Co376 Co 0.85051 0.46353 0.95316 0.0
N377 N 0.91655 0.52631 0.95388 0.0
C378 C 0.92365 0.57312 0.95546 0.0
C379 C 0.96965 0.60738 0.97883 0.0
C380 C 0.99339 0.58072 0.99042 0.0
C381 C 0.96187 0.53228 0.96876 0.0
N382 N 0.88627 0.42661 0.93708 0.0
C383 C 0.93645 0.44517 0.92946 0.0
C384 C 0.94378 0.41301 0.89063 0.0
C385 C 0.89765 0.37172 0.87939 0.0
C386 C 0.86389 0.38158 0.90848 0.0
N387 N 0.78312 0.4018 0.95762 0.0
C388 C 0.77215 0.35722 0.93401 0.0
C389 C 0.72256 0.32183 0.94287 0.0
C390 C 0.70132 0.34631 0.97316 0.0
C391 C 0.73957 0.39476 0.98443 0.0
N392 N 0.84527 0.4671 0.86056 0.0
C393 C 0.84236 0.4334 0.73575 0.0
C394 C 0.79812 0.42107 0.7692 0.0
C395 C 0.80039 0.43932 0.83044 0.0
C396 C 0.88736 0.46983 0.76386 0.0
C397 C 0.88804 0.48576 0.82541 0.0
N398 N 0.8565 0.45604 0.04331 0.0
C399 C 0.84988 0.40045 0.12686 0.0
C400 C 0.86644 0.43922 0.17032 0.0
C401 C 0.87901 0.48727 0.14848 0.0
C402 C 0.87396 0.49491 0.08466 0.0
C403 C 0.84552 0.40965 0.06422 0.0
H404 H 0.88351 0.53188 0.06895 0.0
H405 H 0.83307 0.37856 1.03266 0.0
H406 H 0.76561 0.4274 0.85492 0.0
H407 H 0.92427 0.50988 0.84558 0.0
C408 C 0.88385 0.5819 0.94559 0.0
C409 C 0.73441 0.43641 1.01226 0.0
C410 C 0.97745 0.49518 0.95306 0.0
C411 C 0.81096 0.35077 0.90872 0.0
H412 H 0.7176 0.51704 0.97338 0.0
H413 H 0.80045 0.59846 0.93719 0.0
H414 H 0.98344 0.64653 0.98897 0.0
H415 H 0.03071 0.59611 1.00952 0.0
H416 H 0.97882 0.41905 0.87134 0.0
H417 H 0.88968 0.33936 0.85129 0.0
H418 H 0.70384 0.28286 0.92918 0.0
H419 H 0.66199 0.33083 0.98298 0.0
H420 H 0.76165 0.39618 0.75 0.0
H421 H 0.92298 0.48542 0.74031 0.0
H422 H 0.83895 0.36263 0.14113 0.0
H423 H 0.89246 0.51868 0.18035 0.0
C424 C 0.28435 0.7658 0.31264 0.0
C425 C 0.2352 0.7525 0.29904 0.0
C426 C 0.23579 0.79512 0.27966 0.0
C427 C 0.28534 0.83149 0.28022 0.0
N428 N 0.31569 0.81422 0.29819 0.0
Co429 Co 0.38871 0.84965 0.28651 0.0
N430 N 0.39197 0.91569 0.28722 0.0
C431 C 0.35228 0.92281 0.2888 0.0
C432 C 0.36401 0.96881 0.31216 0.0
C433 C 0.41441 0.99254 0.32376 0.0
C434 C 0.43133 0.96101 0.30211 0.0
N435 N 0.46137 0.88539 0.27043 0.0
C436 C 0.493 0.93557 0.26282 0.0
C437 C 0.53249 0.9429 0.22399 0.0
C438 C 0.52764 0.89676 0.21275 0.0
C439 C 0.48402 0.863 0.24183 0.0
N440 N 0.38304 0.78224 0.29096 0.0
C441 C 0.41664 0.77127 0.26736 0.0
C442 C 0.40243 0.72167 0.27621 0.0
C443 C 0.35672 0.70044 0.3065 0.0
C444 C 0.34653 0.73869 0.31778 0.0
N445 N 0.37991 0.84441 0.19391 0.0
C446 C 0.41069 0.8415 0.0691 0.0
C447 C 0.37878 0.79726 0.10255 0.0
C448 C 0.3628 0.79953 0.16379 0.0
C449 C 0.41927 0.8865 0.09721 0.0
C450 C 0.40402 0.88718 0.15875 0.0
N451 N 0.40217 0.85563 0.37665 0.0
C452 C 0.45114 0.849 0.46022 0.0
C453 C 0.42894 0.86557 0.50367 0.0
C454 C 0.39346 0.87814 0.48183 0.0
C455 C 0.38077 0.87309 0.41801 0.0
C456 C 0.43759 0.84464 0.39758 0.0
H457 H 0.35335 0.88264 0.40229 0.0
H458 H 0.45622 0.83218 0.36601 0.0
H459 H 0.33993 0.76474 0.18827 0.0
H460 H 0.41613 0.92341 0.17893 0.0
C461 C 0.3037 0.88301 0.27893 0.0
C462 C 0.29972 0.73354 0.3456 0.0
C463 C 0.484 0.97659 0.28642 0.0
C464 C 0.4619 0.81007 0.24208 0.0
H465 H 0.20229 0.71675 0.30669 0.0
H466 H 0.20374 0.79962 0.27051 0.0
H467 H 0.33866 0.98261 0.3223 0.0
H468 H 0.43634 0.02986 0.34287 0.0
H469 H 0.56149 0.97793 0.2047 0.0
H470 H 0.55202 0.88878 0.18465 0.0
H471 H 0.42268 0.70295 0.26252 0.0
H472 H 0.33287 0.6611 0.31631 0.0
H473 H 0.36719 0.76078 0.08334 0.0
H474 H 0.4393 0.92212 0.07366 0.0
H475 H 0.47802 0.83807 0.47449 0.0
H476 H 0.37549 0.89159 0.51369 0.0
C477 C 0.5203 0.28348 0.64596 0.0
C478 C 0.48446 0.23433 0.63237 0.0
C479 C 0.44243 0.23491 0.61299 0.0
C480 C 0.45561 0.28447 0.61354 0.0
N481 N 0.50321 0.31482 0.63151 0.0
Co482 Co 0.5408 0.38785 0.61982 0.0
N483 N 0.47802 0.3911 0.62053 0.0
C484 C 0.43121 0.35141 0.62211 0.0
C485 C 0.39695 0.36314 0.64548 0.0
C486 C 0.4236 0.41353 0.65708 0.0
C487 C 0.47204 0.43046 0.63543 0.0
N488 N 0.57771 0.46051 0.60375 0.0
C489 C 0.55915 0.49214 0.59613 0.0
C490 C 0.5913 0.53163 0.55731 0.0
C491 C 0.6326 0.52679 0.54607 0.0
C492 C 0.62274 0.48316 0.57515 0.0
N493 N 0.60253 0.38218 0.62428 0.0
C494 C 0.6471 0.41578 0.60067 0.0
C495 C 0.68249 0.40157 0.60953 0.0
C496 C 0.65802 0.35586 0.63982 0.0
C497 C 0.60957 0.34566 0.6511 0.0
N498 N 0.53723 0.37904 0.52723 0.0
C499 C 0.57093 0.40982 0.40242 0.0
C500 C 0.58325 0.37791 0.43587 0.0
C501 C 0.56501 0.36193 0.49711 0.0
C502 C 0.53451 0.41841 0.43053 0.0
C503 C 0.51857 0.40316 0.49207 0.0
N504 N 0.54828 0.40131 0.70997 0.0
C505 C 0.60387 0.45028 0.79353 0.0
C506 C 0.56511 0.42808 0.83698 0.0
C507 C 0.51706 0.39261 0.81514 0.0
C508 C 0.50942 0.37992 0.75132 0.0
C509 C 0.59468 0.43672 0.73089 0.0
H510 H 0.47245 0.3525 0.73561 0.0
H511 H 0.62576 0.45535 0.69933 0.0
H512 H 0.57692 0.33906 0.52159 0.0
H513 H 0.49446 0.41527 0.51224 0.0
C514 C 0.42244 0.30283 0.61224 0.0
C515 C 0.56793 0.29886 0.67892 0.0
C516 C 0.50914 0.48313 0.61972 0.0
C517 C 0.65355 0.46104 0.57539 0.0
H518 H 0.4873 0.20142 0.64004 0.0
H519 H 0.40588 0.20286 0.60384 0.0
H520 H 0.3578 0.33779 0.65562 0.0
H521 H 0.40821 0.43547 0.67618 0.0
H522 H 0.58527 0.56063 0.53802 0.0
H523 H 0.66496 0.55117 0.51797 0.0
H524 H 0.72147 0.42182 0.59584 0.0
H525 H 0.67351 0.33201 0.64965 0.0
H526 H 0.60814 0.36632 0.41666 0.0
H527 H 0.51892 0.43844 0.40698 0.0
H528 H 0.64169 0.47716 0.8078 0.0
H529 H 0.48564 0.37465 0.84701 0.0
C530 C 0.23853 0.51942 0.9793 0.0
C531 C 0.25185 0.48358 0.96571 0.0
C532 C 0.20924 0.44155 0.94633 0.0
C533 C 0.17286 0.45473 0.94688 0.0
N534 N 0.19011 0.50234 0.96485 0.0
Co535 Co 0.15467 0.53993 0.95315 0.0
N536 N 0.08864 0.47714 0.95387 0.0
C537 C 0.08154 0.43034 0.95545 0.0
C538 C 0.03555 0.39607 0.97882 0.0
C539 C 0.0118 0.42273 0.99041 0.0
C540 C 0.04332 0.47117 0.96875 0.0
N541 N 0.11892 0.57684 0.93707 0.0
C542 C 0.06873 0.55829 0.92946 0.0
C543 C 0.06139 0.59044 0.89063 0.0
C544 C 0.10753 0.63174 0.8794 0.0
C545 C 0.14129 0.62188 0.90848 0.0
N546 N 0.22206 0.60166 0.95761 0.0
C547 C 0.23303 0.64624 0.934 0.0
C548 C 0.28262 0.68163 0.94287 0.0
C549 C 0.30386 0.65716 0.97316 0.0
C550 C 0.26562 0.6087 0.98443 0.0
N551 N 0.15991 0.53636 0.86056 0.0
C552 C 0.16283 0.57006 0.73575 0.0
C553 C 0.20706 0.58239 0.7692 0.0
C554 C 0.20479 0.56414 0.83044 0.0
C555 C 0.11783 0.53364 0.76385 0.0
C556 C 0.11715 0.5177 0.8254 0.0
N557 N 0.14869 0.54741 0.0433 0.0
C558 C 0.15531 0.603 0.12686 0.0
C559 C 0.13875 0.56424 0.17031 0.0
C560 C 0.12617 0.51619 0.14848 0.0
C561 C 0.13122 0.50854 0.08466 0.0
C562 C 0.15967 0.59381 0.06422 0.0
H563 H 0.12168 0.47157 0.06894 0.0
H564 H 0.17212 0.62489 1.03265 0.0
H565 H 0.23958 0.57605 0.85493 0.0
H566 H 0.08092 0.49359 0.84557 0.0
C567 C 0.12134 0.42156 0.94559 0.0
C568 C 0.27078 0.56706 1.01226 0.0
C569 C 0.02773 0.50827 0.95304 0.0
C570 C 0.19421 0.65269 0.90872 0.0
H571 H 0.2876 0.48643 0.97337 0.0
H572 H 0.20475 0.405 0.93719 0.0
H573 H 0.02175 0.35692 0.98896 0.0
H574 H 0.97448 0.40734 1.00951 0.0
H575 H 0.02636 0.58441 0.87134 0.0
H576 H 0.1155 0.6641 0.85129 0.0
H577 H 0.30133 0.7206 0.92918 0.0
H578 H 0.34319 0.67264 0.98299 0.0
H579 H 0.24354 0.60728 0.75 0.0
H580 H 0.08221 0.51804 0.7403 0.0
H581 H 0.16624 0.64082 0.14113 0.0
H582 H 0.11273 0.48477 0.18034 0.0
C583 C 0.72084 0.23765 0.31265 0.0
C584 C 0.76998 0.25096 0.29905 0.0
C585 C 0.7694 0.20834 0.27968 0.0
C586 C 0.71985 0.17197 0.28024 0.0
N587 N 0.6895 0.18923 0.2982 0.0
Co588 Co 0.61648 0.1538 0.28651 0.0
N589 N 0.61322 0.08776 0.28723 0.0
C590 C 0.65291 0.08065 0.28881 0.0
C591 C 0.64119 0.03465 0.31218 0.0
C592 C 0.59079 0.01091 0.32377 0.0
C593 C 0.57387 0.04244 0.30211 0.0
N594 N 0.54382 0.11806 0.27043 0.0
C595 C 0.51219 0.06788 0.26281 0.0
C596 C 0.4727 0.06055 0.22398 0.0
C597 C 0.47754 0.10669 0.21275 0.0
C598 C 0.52116 0.14045 0.24183 0.0
N599 N 0.62214 0.22121 0.29097 0.0
C600 C 0.58854 0.23218 0.26735 0.0
C601 C 0.60275 0.28178 0.27621 0.0
C602 C 0.64846 0.30301 0.3065 0.0
C603 C 0.65866 0.26476 0.31778 0.0
N604 N 0.62528 0.15904 0.19391 0.0
C605 C 0.5945 0.16196 0.0691 0.0
C606 C 0.62641 0.2062 0.10255 0.0
C607 C 0.64239 0.20393 0.1638 0.0
C608 C 0.58592 0.11696 0.09721 0.0
C609 C 0.60117 0.11627 0.15876 0.0
N610 N 0.60301 0.14782 0.37666 0.0
C611 C 0.55405 0.15445 0.46021 0.0
C612 C 0.57625 0.13788 0.50367 0.0
C613 C 0.61173 0.12531 0.48183 0.0
C614 C 0.62442 0.13036 0.41802 0.0
C615 C 0.5676 0.15881 0.39757 0.0
H616 H 0.65185 0.12081 0.4023 0.0
H617 H 0.54897 0.17126 0.36601 0.0
H618 H 0.66526 0.23871 0.18828 0.0
H619 H 0.58906 0.08004 0.17893 0.0
C620 C 0.70149 0.12045 0.27895 0.0
C621 C 0.70547 0.26992 0.3456 0.0
C622 C 0.52119 0.02686 0.2864 0.0
C623 C 0.54328 0.19337 0.24207 0.0
H624 H 0.8029 0.28671 0.30671 0.0
H625 H 0.80146 0.20384 0.27054 0.0
H626 H 0.66653 0.02085 0.32232 0.0
H627 H 0.56886 0.97359 0.34287 0.0
H628 H 0.4437 0.02552 0.20469 0.0
H629 H 0.45316 0.11467 0.18464 0.0
H630 H 0.5825 0.3005 0.26251 0.0
H631 H 0.67231 0.34235 0.31632 0.0
H632 H 0.63799 0.24267 0.08335 0.0
H633 H 0.5659 0.08134 0.07366 0.0
H634 H 0.52716 0.16538 0.47448 0.0
H635 H 0.6297 0.11186 0.5137 0.0
loop_
_geom_bond_atom_site_label_1
_geom_bond_atom_site_label_2
_geom_bond_distance
_geom_bond_site_symmetry_2
_ccdc_geom_bond_type
C0 C1 1.443 . S
C0 N4 1.376 . S
C0 C38 1.389 . S
C1 C0 1.443 . S
C1 C2 1.340 . S
C1 H41 0.951 . S
C2 C1 1.340 . S
C2 C3 1.439 . S
C2 H42 0.950 . S
C3 C2 1.439 . S
C3 N4 1.374 . S
C3 C37 1.395 . S
N4 C0 1.376 . S
N4 C3 1.374 . S
N4 Co5 2.008 . S
Co5 N4 2.008 . S
Co5 N6 1.995 . S
Co5 N11 2.008 . S
Co5 N16 1.995 . S
Co5 N21 2.282 . S
Co5 N27 2.282 1_554 S
N6 Co5 1.995 . S
N6 C7 1.376 . S
N6 C10 1.383 . S
C7 N6 1.376 . S
C7 C8 1.446 . S
C7 C37 1.391 . S
C8 C7 1.446 . S
C8 C9 1.339 . S
C8 H43 0.949 . S
C9 C8 1.339 . S
C9 C10 1.439 . S
C9 H44 0.950 . S
C10 N6 1.383 . S
C10 C9 1.439 . S
C10 C39 1.392 . S
N11 Co5 2.008 . S
N11 C12 1.376 . S
N11 C15 1.374 . S
C12 N11 1.376 . S
C12 C13 1.443 . S
C12 C39 1.389 . S
C13 C12 1.443 . S
C13 C14 1.340 . S
C13 H45 0.951 . S
C14 C13 1.340 . S
C14 C15 1.439 . S
C14 H46 0.950 . S
C15 N11 1.374 . S
C15 C14 1.439 . S
C15 C40 1.395 . S
N16 Co5 1.995 . S
N16 C17 1.376 . S
N16 C20 1.383 . S
C17 N16 1.376 . S
C17 C18 1.446 . S
C17 C40 1.391 . S
C18 C17 1.446 . S
C18 C19 1.339 . S
C18 H47 0.949 . S
C19 C18 1.339 . S
C19 C20 1.439 . S
C19 H48 0.950 . S
C20 N16 1.383 . S
C20 C19 1.439 . S
C20 C38 1.392 . S
N21 Co5 2.282 . S
N21 C24 1.332 . S
N21 C26 1.332 . S
C22 C23 1.386 . S
C22 C25 1.388 . S
C23 C22 1.386 . S
C23 C24 1.382 . S
C23 H49 0.950 . S
C24 N21 1.332 . S
C24 C23 1.382 . S
C24 H35 0.952 . S
C25 C22 1.388 . S
C25 C26 1.382 . S
C25 H50 0.950 . S
C26 N21 1.332 . S
C26 C25 1.382 . S
C26 H36 0.948 . S
N27 Co5 2.282 1_556 S
N27 C31 1.332 . S
N27 C32 1.332 . S
C28 C29 1.388 . S
C28 C32 1.382 . S
C28 H51 0.950 . S
C29 C28 1.388 . S
C29 C30 1.386 . S
C30 C29 1.386 . S
C30 C31 1.382 . S
C30 H52 0.950 . S
C31 N27 1.332 . S
C31 C30 1.382 . S
C31 H33 0.952 . S
C32 N27 1.332 . S
C32 C28 1.382 . S
C32 H34 0.948 . S
H33 C31 0.952 . S
H34 C32 0.948 . S
H35 C24 0.952 . S
H36 C26 0.948 . S
C37 C3 1.395 . S
C37 C7 1.391 . S
C38 C0 1.389 . S
C38 C20 1.392 . S
C39 C10 1.392 . S
C39 C12 1.389 . S
C40 C15 1.395 . S
C40 C17 1.391 . S
H41 C1 0.951 . S
H42 C2 0.950 . S
H43 C8 0.949 . S
H44 C9 0.950 . S
H45 C13 0.951 . S
H46 C14 0.950 . S
H47 C18 0.949 . S
H48 C19 0.950 . S
H49 C23 0.950 . S
H50 C25 0.950 . S
H51 C28 0.950 . S
H52 C30 0.950 . S
C53 C54 1.443 . S
C53 N57 1.376 . S
C53 C91 1.389 . S
C54 C53 1.443 . S
C54 C55 1.340 . S
C54 H94 0.951 . S
C55 C54 1.340 . S
C55 C56 1.439 . S
C55 H95 0.950 . S
C56 C55 1.439 . S
C56 N57 1.374 . S
C56 C90 1.395 . S
N57 C53 1.376 . S
N57 C56 1.374 . S
N57 Co58 2.008 . S
Co58 N57 2.008 . S
Co58 N59 1.995 . S
Co58 N64 2.008 . S
Co58 N69 1.995 . S
Co58 N74 2.282 . S
Co58 N80 2.282 . S
N59 Co58 1.995 . S
N59 C60 1.376 . S
N59 C63 1.383 . S
C60 N59 1.376 . S
C60 C61 1.446 . S
C60 C90 1.391 . S
C61 C60 1.446 . S
C61 C62 1.339 . S
C61 H96 0.949 . S
C62 C61 1.339 . S
C62 C63 1.439 . S
C62 H97 0.950 1_655 S
C63 N59 1.383 . S
C63 C62 1.439 . S
C63 C92 1.392 . S
N64 Co58 2.008 . S
N64 C65 1.376 . S
N64 C68 1.374 . S
C65 N64 1.376 . S
C65 C66 1.443 . S
C65 C92 1.389 . S
C66 C65 1.443 . S
C66 C67 1.340 . S
C66 H98 0.951 . S
C67 C66 1.340 . S
C67 C68 1.439 . S
C67 H99 0.950 . S
C68 N64 1.374 . S
C68 C67 1.439 . S
C68 C93 1.395 . S
N69 Co58 1.995 . S
N69 C70 1.376 . S
N69 C73 1.383 . S
C70 N69 1.376 . S
C70 C71 1.446 . S
C70 C93 1.391 . S
C71 C70 1.446 . S
C71 C72 1.339 . S
C71 H100 0.949 . S
C72 C71 1.339 . S
C72 C73 1.439 . S
C72 H101 0.950 . S
C73 N69 1.383 . S
C73 C72 1.439 . S
C73 C91 1.392 . S
N74 Co58 2.282 . S
N74 C77 1.332 . S
N74 C79 1.332 . S
C75 C76 1.386 . S
C75 C78 1.388 . S
C76 C75 1.386 . S
C76 C77 1.382 . S
C76 H102 0.950 . S
C77 N74 1.332 . S
C77 C76 1.382 . S
C77 H88 0.952 . S
C78 C75 1.388 . S
C78 C79 1.382 . S
C78 H103 0.950 . S
C79 N74 1.332 . S
C79 C78 1.382 . S
C79 H89 0.948 . S
N80 Co58 2.282 . S
N80 C84 1.332 . S
N80 C85 1.332 . S
C81 C82 1.388 . S
C81 C85 1.382 . S
C81 H104 0.950 . S
C82 C81 1.388 . S
C82 C83 1.386 . S
C83 C82 1.386 . S
C83 C84 1.382 . S
C83 H105 0.950 . S
C84 N80 1.332 . S
C84 C83 1.382 . S
C84 H86 0.952 . S
C85 N80 1.332 . S
C85 C81 1.382 . S
C85 H87 0.948 . S
H86 C84 0.952 . S
H87 C85 0.948 . S
H88 C77 0.952 . S
H89 C79 0.948 . S
C90 C56 1.395 . S
C90 C60 1.391 . S
C91 C53 1.389 . S
C91 C73 1.392 . S
C92 C63 1.392 . S
C92 C65 1.389 . S
C93 C68 1.395 . S
C93 C70 1.391 . S
H94 C54 0.951 . S
H95 C55 0.950 . S
H96 C61 0.949 . S
H97 C62 0.950 1_455 S
H98 C66 0.951 . S
H99 C67 0.950 . S
H100 C71 0.949 . S
H101 C72 0.950 . S
H102 C76 0.950 . S
H103 C78 0.950 . S
H104 C81 0.950 . S
H105 C83 0.950 . S
C106 C107 1.443 . S
C106 N110 1.376 . S
C106 C144 1.389 . S
C107 C106 1.443 . S
C107 C108 1.340 . S
C107 H147 0.951 . S
C108 C107 1.340 . S
C108 C109 1.439 . S
C108 H148 0.950 . S
C109 C108 1.439 . S
C109 N110 1.374 . S
C109 C143 1.395 . S
N110 C106 1.376 . S
N110 C109 1.374 . S
N110 Co111 2.008 . S
Co111 N110 2.008 . S
Co111 N112 1.995 . S
Co111 N117 2.008 . S
Co111 N122 1.995 . S
Co111 N127 2.282 . S
Co111 N133 2.282 . S
N112 Co111 1.995 . S
N112 C113 1.376 . S
N112 C116 1.383 . S
C113 N112 1.376 . S
C113 C114 1.446 . S
C113 C143 1.391 . S
C114 C113 1.446 . S
C114 C115 1.339 . S
C114 H149 0.949 . S
C115 C114 1.339 . S
C115 C116 1.439 . S
C115 H150 0.950 1_565 S
C116 N112 1.383 . S
C116 C115 1.439 . S
C116 C145 1.392 . S
N117 Co111 2.008 . S
N117 C118 1.376 . S
N117 C121 1.374 . S
C118 N117 1.376 . S
C118 C119 1.443 . S
C118 C145 1.389 . S
C119 C118 1.443 . S
C119 C120 1.340 . S
C119 H151 0.951 . S
C120 C119 1.340 . S
C120 C121 1.439 . S
C120 H152 0.950 . S
C121 N117 1.374 . S
C121 C120 1.439 . S
C121 C146 1.395 . S
N122 Co111 1.995 . S
N122 C123 1.376 . S
N122 C126 1.383 . S
C123 N122 1.376 . S
C123 C124 1.446 . S
C123 C146 1.391 . S
C124 C123 1.446 . S
C124 C125 1.339 . S
C124 H153 0.949 . S
C125 C124 1.339 . S
C125 C126 1.439 . S
C125 H154 0.950 . S
C126 N122 1.383 . S
C126 C125 1.439 . S
C126 C144 1.392 . S
N127 Co111 2.282 . S
N127 C130 1.332 . S
N127 C132 1.332 . S
C128 C129 1.386 . S
C128 C131 1.388 . S
C129 C128 1.386 . S
C129 C130 1.382 . S
C129 H155 0.950 . S
C130 N127 1.332 . S
C130 C129 1.382 . S
C130 H141 0.952 . S
C131 C128 1.388 . S
C131 C132 1.382 . S
C131 H156 0.950 . S
C132 N127 1.332 . S
C132 C131 1.382 . S
C132 H142 0.948 . S
N133 Co111 2.282 . S
N133 C137 1.332 . S
N133 C138 1.332 . S
C134 C135 1.388 . S
C134 C138 1.382 . S
C134 H157 0.950 . S
C135 C134 1.388 . S
C135 C136 1.386 . S
C136 C135 1.386 . S
C136 C137 1.382 . S
C136 H158 0.950 . S
C137 N133 1.332 . S
C137 C136 1.382 . S
C137 H139 0.952 . S
C138 N133 1.332 . S
C138 C134 1.382 . S
C138 H140 0.948 . S
H139 C137 0.952 . S
H140 C138 0.948 . S
H141 C130 0.952 . S
H142 C132 0.948 . S
C143 C109 1.395 . S
C143 C113 1.391 . S
C144 C106 1.389 . S
C144 C126 1.392 . S
C145 C116 1.392 . S
C145 C118 1.389 . S
C146 C121 1.395 . S
C146 C123 1.391 . S
H147 C107 0.951 . S
H148 C108 0.950 . S
H149 C114 0.949 . S
H150 C115 0.950 1_545 S
H151 C119 0.951 . S
H152 C120 0.950 . S
H153 C124 0.949 . S
H154 C125 0.950 . S
H155 C129 0.950 . S
H156 C131 0.950 . S
H157 C134 0.950 . S
H158 C136 0.950 . S
C159 C160 1.443 . S
C159 N163 1.376 . S
C159 C197 1.389 . S
C160 C159 1.443 . S
C160 C161 1.340 . S
C160 H200 0.951 . S
C161 C160 1.340 . S
C161 C162 1.439 . S
C161 H201 0.950 . S
C162 C161 1.439 . S
C162 N163 1.374 . S
C162 C196 1.395 . S
N163 C159 1.376 . S
N163 C162 1.374 . S
N163 Co164 2.008 . S
Co164 N163 2.008 . S
Co164 N165 1.995 . S
Co164 N170 2.008 . S
Co164 N175 1.995 . S
Co164 N180 2.282 . S
Co164 N186 2.282 1_554 S
N165 Co164 1.995 . S
N165 C166 1.376 . S
N165 C169 1.383 . S
C166 N165 1.376 . S
C166 C167 1.446 . S
C166 C196 1.391 . S
C167 C166 1.446 . S
C167 C168 1.339 . S
C167 H202 0.949 . S
C168 C167 1.339 . S
C168 C169 1.439 . S
C168 H203 0.950 . S
C169 N165 1.383 . S
C169 C168 1.439 . S
C169 C198 1.392 . S
N170 Co164 2.008 . S
N170 C171 1.376 . S
N170 C174 1.374 . S
C171 N170 1.376 . S
C171 C172 1.443 . S
C171 C198 1.389 . S
C172 C171 1.443 . S
C172 C173 1.340 . S
C172 H204 0.951 . S
C173 C172 1.340 . S
C173 C174 1.439 . S
C173 H205 0.950 . S
C174 N170 1.374 . S
C174 C173 1.439 . S
C174 C199 1.395 . S
N175 Co164 1.995 . S
N175 C176 1.376 . S
N175 C179 1.383 . S
C176 N175 1.376 . S
C176 C177 1.446 . S
C176 C199 1.391 . S
C177 C176 1.446 . S
C177 C178 1.339 . S
C177 H206 0.949 . S
C178 C177 1.339 . S
C178 C179 1.439 . S
C178 H207 0.950 . S
C179 N175 1.383 . S
C179 C178 1.439 . S
C179 C197 1.392 . S
N180 Co164 2.282 . S
N180 C183 1.332 . S
N180 C185 1.332 . S
C181 C182 1.386 . S
C181 C184 1.388 . S
C182 C181 1.386 . S
C182 C183 1.382 . S
C182 H208 0.950 . S
C183 N180 1.332 . S
C183 C182 1.382 . S
C183 H194 0.952 . S
C184 C181 1.388 . S
C184 C185 1.382 . S
C184 H209 0.950 . S
C185 N180 1.332 . S
C185 C184 1.382 . S
C185 H195 0.948 . S
N186 Co164 2.282 1_556 S
N186 C190 1.332 . S
N186 C191 1.332 . S
C187 C188 1.388 . S
C187 C191 1.382 . S
C187 H210 0.950 . S
C188 C187 1.388 . S
C188 C189 1.386 . S
C189 C188 1.386 . S
C189 C190 1.382 . S
C189 H211 0.950 . S
C190 N186 1.332 . S
C190 C189 1.382 . S
C190 H192 0.952 . S
C191 N186 1.332 . S
C191 C187 1.382 . S
C191 H193 0.948 . S
H192 C190 0.952 . S
H193 C191 0.948 . S
H194 C183 0.952 . S
H195 C185 0.948 . S
C196 C162 1.395 . S
C196 C166 1.391 . S
C197 C159 1.389 . S
C197 C179 1.392 . S
C198 C169 1.392 . S
C198 C171 1.389 . S
C199 C174 1.395 . S
C199 C176 1.391 . S
H200 C160 0.951 . S
H201 C161 0.950 . S
H202 C167 0.949 . S
H203 C168 0.950 . S
H204 C172 0.951 . S
H205 C173 0.950 . S
H206 C177 0.949 . S
H207 C178 0.950 . S
H208 C182 0.950 . S
H209 C184 0.950 . S
H210 C187 0.950 . S
H211 C189 0.950 . S
C212 C213 1.443 . S
C212 N216 1.376 . S
C212 C250 1.389 . S
C213 C212 1.443 . S
C213 C214 1.340 . S
C213 H253 0.951 . S
C214 C213 1.340 . S
C214 C215 1.439 . S
C214 H254 0.950 . S
C215 C214 1.439 . S
C215 N216 1.374 . S
C215 C249 1.395 . S
N216 C212 1.376 . S
N216 C215 1.374 . S
N216 Co217 2.008 . S
Co217 N216 2.008 . S
Co217 N218 1.995 . S
Co217 N223 2.008 . S
Co217 N228 1.995 . S
Co217 N233 2.282 . S
Co217 N239 2.282 . S
N218 Co217 1.995 . S
N218 C219 1.376 . S
N218 C222 1.383 . S
C219 N218 1.376 . S
C219 C220 1.446 . S
C219 C249 1.391 . S
C220 C219 1.446 . S
C220 C221 1.339 . S
C220 H255 0.949 . S
C221 C220 1.339 . S
C221 C222 1.439 . S
C221 H256 0.950 1_455 S
C222 N218 1.383 . S
C222 C221 1.439 . S
C222 C251 1.392 . S
N223 Co217 2.008 . S
N223 C224 1.376 . S
N223 C227 1.374 . S
C224 N223 1.376 . S
C224 C225 1.443 . S
C224 C251 1.389 . S
C225 C224 1.443 . S
C225 C226 1.340 . S
C225 H257 0.951 . S
C226 C225 1.340 . S
C226 C227 1.439 . S
C226 H258 0.950 . S
C227 N223 1.374 . S
C227 C226 1.439 . S
C227 C252 1.395 . S
N228 Co217 1.995 . S
N228 C229 1.376 . S
N228 C232 1.383 . S
C229 N228 1.376 . S
C229 C230 1.446 . S
C229 C252 1.391 . S
C230 C229 1.446 . S
C230 C231 1.339 . S
C230 H259 0.949 . S
C231 C230 1.339 . S
C231 C232 1.439 . S
C231 H260 0.950 . S
C232 N228 1.383 . S
C232 C231 1.439 . S
C232 C250 1.392 . S
N233 Co217 2.282 . S
N233 C236 1.332 . S
N233 C238 1.332 . S
C234 C235 1.386 . S
C234 C237 1.388 . S
C235 C234 1.386 . S
C235 C236 1.382 . S
C235 H261 0.950 . S
C236 N233 1.332 . S
C236 C235 1.382 . S
C236 H247 0.952 . S
C237 C234 1.388 . S
C237 C238 1.382 . S
C237 H262 0.950 . S
C238 N233 1.332 . S
C238 C237 1.382 . S
C238 H248 0.948 . S
N239 Co217 2.282 . S
N239 C243 1.332 . S
N239 C244 1.332 . S
C240 C241 1.388 . S
C240 C244 1.382 . S
C240 H263 0.950 . S
C241 C240 1.388 . S
C241 C242 1.386 . S
C242 C241 1.386 . S
C242 C243 1.382 . S
C242 H264 0.950 . S
C243 N239 1.332 . S
C243 C242 1.382 . S
C243 H245 0.952 . S
C244 N239 1.332 . S
C244 C240 1.382 . S
C244 H246 0.948 . S
H245 C243 0.952 . S
H246 C244 0.948 . S
H247 C236 0.952 . S
H248 C238 0.948 . S
C249 C215 1.395 . S
C249 C219 1.391 . S
C250 C212 1.389 . S
C250 C232 1.392 . S
C251 C222 1.392 . S
C251 C224 1.389 . S
C252 C227 1.395 . S
C252 C229 1.391 . S
H253 C213 0.951 . S
H254 C214 0.950 . S
H255 C220 0.949 . S
H256 C221 0.950 1_655 S
H257 C225 0.951 . S
H258 C226 0.950 . S
H259 C230 0.949 . S
H260 C231 0.950 . S
H261 C235 0.950 . S
H262 C237 0.950 . S
H263 C240 0.950 . S
H264 C242 0.950 . S
C265 C266 1.443 . S
C265 N269 1.376 . S
C265 C303 1.389 . S
C266 C265 1.443 . S
C266 C267 1.340 . S
C266 H306 0.951 . S
C267 C266 1.340 . S
C267 C268 1.439 . S
C267 H307 0.950 . S
C268 C267 1.439 . S
C268 N269 1.374 . S
C268 C302 1.395 . S
N269 C265 1.376 . S
N269 C268 1.374 . S
N269 Co270 2.008 . S
Co270 N269 2.008 . S
Co270 N271 1.995 . S
Co270 N276 2.008 . S
Co270 N281 1.995 . S
Co270 N286 2.282 . S
Co270 N292 2.282 . S
N271 Co270 1.995 . S
N271 C272 1.376 . S
N271 C275 1.383 . S
C272 N271 1.376 . S
C272 C273 1.446 . S
C272 C302 1.391 . S
C273 C272 1.446 . S
C273 C274 1.339 . S
C273 H308 0.949 . S
C274 C273 1.339 . S
C274 C275 1.439 . S
C274 H309 0.950 1_545 S
C275 N271 1.383 . S
C275 C274 1.439 . S
C275 C304 1.392 . S
N276 Co270 2.008 . S
N276 C277 1.376 . S
N276 C280 1.374 . S
C277 N276 1.376 . S
C277 C278 1.443 . S
C277 C304 1.389 . S
C278 C277 1.443 . S
C278 C279 1.340 . S
C278 H310 0.951 . S
C279 C278 1.340 . S
C279 C280 1.439 . S
C279 H311 0.950 . S
C280 N276 1.374 . S
C280 C279 1.439 . S
C280 C305 1.395 . S
N281 Co270 1.995 . S
N281 C282 1.376 . S
N281 C285 1.383 . S
C282 N281 1.376 . S
C282 C283 1.446 . S
C282 C305 1.391 . S
C283 C282 1.446 . S
C283 C284 1.339 . S
C283 H312 0.949 . S
C284 C283 1.339 . S
C284 C285 1.439 . S
C284 H313 0.950 . S
C285 N281 1.383 . S
C285 C284 1.439 . S
C285 C303 1.392 . S
N286 Co270 2.282 . S
N286 C289 1.332 . S
N286 C291 1.332 . S
C287 C288 1.386 . S
C287 C290 1.388 . S
C288 C287 1.386 . S
C288 C289 1.382 . S
C288 H314 0.950 . S
C289 N286 1.332 . S
C289 C288 1.382 . S
C289 H300 0.952 . S
C290 C287 1.388 . S
C290 C291 1.382 . S
C290 H315 0.950 . S
C291 N286 1.332 . S
C291 C290 1.382 . S
C291 H301 0.948 . S
N292 Co270 2.282 . S
N292 C296 1.332 . S
N292 C297 1.332 . S
C293 C294 1.388 . S
C293 C297 1.382 . S
C293 H316 0.950 . S
C294 C293 1.388 . S
C294 C295 1.386 . S
C295 C294 1.386 . S
C295 C296 1.382 . S
C295 H317 0.950 . S
C296 N292 1.332 . S
C296 C295 1.382 . S
C296 H298 0.952 . S
C297 N292 1.332 . S
C297 C293 1.382 . S
C297 H299 0.948 . S
H298 C296 0.952 . S
H299 C297 0.948 . S
H300 C289 0.952 . S
H301 C291 0.948 . S
C302 C268 1.395 . S
C302 C272 1.391 . S
C303 C265 1.389 . S
C303 C285 1.392 . S
C304 C275 1.392 . S
C304 C277 1.389 . S
C305 C280 1.395 . S
C305 C282 1.391 . S
H306 C266 0.951 . S
H307 C267 0.950 . S
H308 C273 0.949 . S
H309 C274 0.950 1_565 S
H310 C278 0.951 . S
H311 C279 0.950 . S
H312 C283 0.949 . S
H313 C284 0.950 . S
H314 C288 0.950 . S
H315 C290 0.950 . S
H316 C293 0.950 . S
H317 C295 0.950 . S
C318 C319 1.443 . S
C318 N322 1.376 . S
C318 C356 1.389 . S
C319 C318 1.443 . S
C319 C320 1.340 . S
C319 H359 0.951 . S
C320 C319 1.340 . S
C320 C321 1.439 . S
C320 H360 0.950 . S
C321 C320 1.439 . S
C321 N322 1.374 . S
C321 C355 1.395 . S
N322 C318 1.376 . S
N322 C321 1.374 . S
N322 Co323 2.008 . S
Co323 N322 2.008 . S
Co323 N324 1.995 . S
Co323 N329 2.008 . S
Co323 N334 1.995 . S
Co323 N339 2.282 . S
Co323 N345 2.282 . S
N324 Co323 1.995 . S
N324 C325 1.376 . S
N324 C328 1.383 . S
C325 N324 1.376 . S
C325 C326 1.446 . S
C325 C355 1.391 . S
C326 C325 1.446 . S
C326 C327 1.339 . S
C326 H361 0.949 . S
C327 C326 1.339 . S
C327 C328 1.439 . S
C327 H362 0.950 . S
C328 N324 1.383 . S
C328 C327 1.439 . S
C328 C357 1.392 . S
N329 Co323 2.008 . S
N329 C330 1.376 . S
N329 C333 1.374 . S
C330 N329 1.376 . S
C330 C331 1.443 . S
C330 C357 1.389 . S
C331 C330 1.443 . S
C331 C332 1.340 . S
C331 H363 0.951 . S
C332 C331 1.340 . S
C332 C333 1.439 . S
C332 H364 0.950 . S
C333 N329 1.374 . S
C333 C332 1.439 . S
C333 C358 1.395 . S
N334 Co323 1.995 . S
N334 C335 1.376 . S
N334 C338 1.383 . S
C335 N334 1.376 . S
C335 C336 1.446 . S
C335 C358 1.391 . S
C336 C335 1.446 . S
C336 C337 1.339 . S
C336 H365 0.949 . S
C337 C336 1.339 . S
C337 C338 1.439 . S
C337 H366 0.950 . S
C338 N334 1.383 . S
C338 C337 1.439 . S
C338 C356 1.392 . S
N339 Co323 2.282 . S
N339 C342 1.332 . S
N339 C344 1.332 . S
C340 C341 1.386 . S
C340 C343 1.388 . S
C341 C340 1.386 . S
C341 C342 1.382 . S
C341 H367 0.950 . S
C342 N339 1.332 . S
C342 C341 1.382 . S
C342 H353 0.952 . S
C343 C340 1.388 . S
C343 C344 1.382 . S
C343 H368 0.950 . S
C344 N339 1.332 . S
C344 C343 1.382 . S
C344 H354 0.948 . S
N345 Co323 2.282 . S
N345 C349 1.332 . S
N345 C350 1.332 . S
C346 C347 1.388 . S
C346 C350 1.382 . S
C346 H369 0.950 . S
C347 C346 1.388 . S
C347 C348 1.386 . S
C348 C347 1.386 . S
C348 C349 1.382 . S
C348 H370 0.950 . S
C349 N345 1.332 . S
C349 C348 1.382 . S
C349 H351 0.952 . S
C350 N345 1.332 . S
C350 C346 1.382 . S
C350 H352 0.948 . S
H351 C349 0.952 . S
H352 C350 0.948 . S
H353 C342 0.952 . S
H354 C344 0.948 . S
C355 C321 1.395 . S
C355 C325 1.391 . S
C356 C318 1.389 . S
C356 C338 1.392 . S
C357 C328 1.392 . S
C357 C330 1.389 . S
C358 C333 1.395 . S
C358 C335 1.391 . S
H359 C319 0.951 . S
H360 C320 0.950 . S
H361 C326 0.949 . S
H362 C327 0.950 . S
H363 C331 0.951 . S
H364 C332 0.950 . S
H365 C336 0.949 . S
H366 C337 0.950 . S
H367 C341 0.950 . S
H368 C343 0.950 . S
H369 C346 0.950 . S
H370 C348 0.950 . S
C371 C372 1.443 . S
C371 N375 1.376 . S
C371 C409 1.389 . S
C372 C371 1.443 . S
C372 C373 1.340 . S
C372 H412 0.951 . S
C373 C372 1.340 . S
C373 C374 1.439 . S
C373 H413 0.950 . S
C374 C373 1.439 . S
C374 N375 1.374 . S
C374 C408 1.395 . S
N375 C371 1.376 . S
N375 C374 1.374 . S
N375 Co376 2.008 . S
Co376 N375 2.008 . S
Co376 N377 1.995 . S
Co376 N382 2.008 . S
Co376 N387 1.995 . S
Co376 N392 2.282 . S
Co376 N398 2.282 1_556 S
N377 Co376 1.995 . S
N377 C378 1.376 . S
N377 C381 1.383 . S
C378 N377 1.376 . S
C378 C379 1.446 . S
C378 C408 1.391 . S
C379 C378 1.446 . S
C379 C380 1.339 . S
C379 H414 0.949 . S
C380 C379 1.339 . S
C380 C381 1.439 . S
C380 H415 0.950 1_655 S
C381 N377 1.383 . S
C381 C380 1.439 . S
C381 C410 1.392 . S
N382 Co376 2.008 . S
N382 C383 1.376 . S
N382 C386 1.374 . S
C383 N382 1.376 . S
C383 C384 1.443 . S
C383 C410 1.389 . S
C384 C383 1.443 . S
C384 C385 1.340 . S
C384 H416 0.951 . S
C385 C384 1.340 . S
C385 C386 1.439 . S
C385 H417 0.950 . S
C386 N382 1.374 . S
C386 C385 1.439 . S
C386 C411 1.395 . S
N387 Co376 1.995 . S
N387 C388 1.376 . S
N387 C391 1.383 . S
C388 N387 1.376 . S
C388 C389 1.446 . S
C388 C411 1.391 . S
C389 C388 1.446 . S
C389 C390 1.339 . S
C389 H418 0.949 . S
C390 C389 1.339 . S
C390 C391 1.439 . S
C390 H419 0.950 . S
C391 N387 1.383 . S
C391 C390 1.439 . S
C391 C409 1.392 . S
N392 Co376 2.282 . S
N392 C395 1.332 . S
N392 C397 1.332 . S
C393 C394 1.386 . S
C393 C396 1.388 . S
C394 C393 1.386 . S
C394 C395 1.382 . S
C394 H420 0.950 . S
C395 N392 1.332 . S
C395 C394 1.382 . S
C395 H406 0.952 . S
C396 C393 1.388 . S
C396 C397 1.382 . S
C396 H421 0.950 . S
C397 N392 1.332 . S
C397 C396 1.382 . S
C397 H407 0.948 . S
N398 Co376 2.282 1_554 S
N398 C402 1.332 . S
N398 C403 1.332 . S
C399 C400 1.388 . S
C399 C403 1.382 . S
C399 H422 0.950 . S
C400 C399 1.388 . S
C400 C401 1.386 . S
C401 C400 1.386 . S
C401 C402 1.382 . S
C401 H423 0.950 . S
C402 N398 1.332 . S
C402 C401 1.382 . S
C402 H404 0.952 . S
C403 N398 1.332 . S
C403 C399 1.382 . S
C403 H405 0.948 . S
H404 C402 0.952 . S
H405 C403 0.948 . S
H406 C395 0.952 . S
H407 C397 0.948 . S
C408 C374 1.395 . S
C408 C378 1.391 . S
C409 C371 1.389 . S
C409 C391 1.392 . S
C410 C381 1.392 . S
C410 C383 1.389 . S
C411 C386 1.395 . S
C411 C388 1.391 . S
H412 C372 0.951 . S
H413 C373 0.950 . S
H414 C379 0.949 . S
H415 C380 0.950 1_455 S
H416 C384 0.951 . S
H417 C385 0.950 . S
H418 C389 0.949 . S
H419 C390 0.950 . S
H420 C394 0.950 . S
H421 C396 0.950 . S
H422 C399 0.950 . S
H423 C401 0.950 . S
C424 C425 1.443 . S
C424 N428 1.376 . S
C424 C462 1.389 . S
C425 C424 1.443 . S
C425 C426 1.340 . S
C425 H465 0.951 . S
C426 C425 1.340 . S
C426 C427 1.439 . S
C426 H466 0.950 . S
C427 C426 1.439 . S
C427 N428 1.374 . S
C427 C461 1.395 . S
N428 C424 1.376 . S
N428 C427 1.374 . S
N428 Co429 2.008 . S
Co429 N428 2.008 . S
Co429 N430 1.995 . S
Co429 N435 2.008 . S
Co429 N440 1.995 . S
Co429 N445 2.282 . S
Co429 N451 2.282 . S
N430 Co429 1.995 . S
N430 C431 1.376 . S
N430 C434 1.383 . S
C431 N430 1.376 . S
C431 C432 1.446 . S
C431 C461 1.391 . S
C432 C431 1.446 . S
C432 C433 1.339 . S
C432 H467 0.949 . S
C433 C432 1.339 . S
C433 C434 1.439 . S
C433 H468 0.950 1_565 S
C434 N430 1.383 . S
C434 C433 1.439 . S
C434 C463 1.392 . S
N435 Co429 2.008 . S
N435 C436 1.376 . S
N435 C439 1.374 . S
C436 N435 1.376 . S
C436 C437 1.443 . S
C436 C463 1.389 . S
C437 C436 1.443 . S
C437 C438 1.340 . S
C437 H469 0.951 . S
C438 C437 1.340 . S
C438 C439 1.439 . S
C438 H470 0.950 . S
C439 N435 1.374 . S
C439 C438 1.439 . S
C439 C464 1.395 . S
N440 Co429 1.995 . S
N440 C441 1.376 . S
N440 C444 1.383 . S
C441 N440 1.376 . S
C441 C442 1.446 . S
C441 C464 1.391 . S
C442 C441 1.446 . S
C442 C443 1.339 . S
C442 H471 0.949 . S
C443 C442 1.339 . S
C443 C444 1.439 . S
C443 H472 0.950 . S
C444 N440 1.383 . S
C444 C443 1.439 . S
C444 C462 1.392 . S
N445 Co429 2.282 . S
N445 C448 1.332 . S
N445 C450 1.332 . S
C446 C447 1.386 . S
C446 C449 1.388 . S
C447 C446 1.386 . S
C447 C448 1.382 . S
C447 H473 0.950 . S
C448 N445 1.332 . S
C448 C447 1.382 . S
C448 H459 0.952 . S
C449 C446 1.388 . S
C449 C450 1.382 . S
C449 H474 0.950 . S
C450 N445 1.332 . S
C450 C449 1.382 . S
C450 H460 0.948 . S
N451 Co429 2.282 . S
N451 C455 1.332 . S
N451 C456 1.332 . S
C452 C453 1.388 . S
C452 C456 1.382 . S
C452 H475 0.950 . S
C453 C452 1.388 . S
C453 C454 1.386 . S
C454 C453 1.386 . S
C454 C455 1.382 . S
C454 H476 0.950 . S
C455 N451 1.332 . S
C455 C454 1.382 . S
C455 H457 0.952 . S
C456 N451 1.332 . S
C456 C452 1.382 . S
C456 H458 0.948 . S
H457 C455 0.952 . S
H458 C456 0.948 . S
H459 C448 0.952 . S
H460 C450 0.948 . S
C461 C427 1.395 . S
C461 C431 1.391 . S
C462 C424 1.389 . S
C462 C444 1.392 . S
C463 C434 1.392 . S
C463 C436 1.389 . S
C464 C439 1.395 . S
C464 C441 1.391 . S
H465 C425 0.951 . S
H466 C426 0.950 . S
H467 C432 0.949 . S
H468 C433 0.950 1_545 S
H469 C437 0.951 . S
H470 C438 0.950 . S
H471 C442 0.949 . S
H472 C443 0.950 . S
H473 C447 0.950 . S
H474 C449 0.950 . S
H475 C452 0.950 . S
H476 C454 0.950 . S
C477 C478 1.443 . S
C477 N481 1.376 . S
C477 C515 1.389 . S
C478 C477 1.443 . S
C478 C479 1.340 . S
C478 H518 0.951 . S
C479 C478 1.340 . S
C479 C480 1.439 . S
C479 H519 0.950 . S
C480 C479 1.439 . S
C480 N481 1.374 . S
C480 C514 1.395 . S
N481 C477 1.376 . S
N481 C480 1.374 . S
N481 Co482 2.008 . S
Co482 N481 2.008 . S
Co482 N483 1.995 . S
Co482 N488 2.008 . S
Co482 N493 1.995 . S
Co482 N498 2.282 . S
Co482 N504 2.282 . S
N483 Co482 1.995 . S
N483 C484 1.376 . S
N483 C487 1.383 . S
C484 N483 1.376 . S
C484 C485 1.446 . S
C484 C514 1.391 . S
C485 C484 1.446 . S
C485 C486 1.339 . S
C485 H520 0.949 . S
C486 C485 1.339 . S
C486 C487 1.439 . S
C486 H521 0.950 . S
C487 N483 1.383 . S
C487 C486 1.439 . S
C487 C516 1.392 . S
N488 Co482 2.008 . S
N488 C489 1.376 . S
N488 C492 1.374 . S
C489 N488 1.376 . S
C489 C490 1.443 . S
C489 C516 1.389 . S
C490 C489 1.443 . S
C490 C491 1.340 . S
C490 H522 0.951 . S
C491 C490 1.340 . S
C491 C492 1.439 . S
C491 H523 0.950 . S
C492 N488 1.374 . S
C492 C491 1.439 . S
C492 C517 1.395 . S
N493 Co482 1.995 . S
N493 C494 1.376 . S
N493 C497 1.383 . S
C494 N493 1.376 . S
C494 C495 1.446 . S
C494 C517 1.391 . S
C495 C494 1.446 . S
C495 C496 1.339 . S
C495 H524 0.949 . S
C496 C495 1.339 . S
C496 C497 1.439 . S
C496 H525 0.950 . S
C497 N493 1.383 . S
C497 C496 1.439 . S
C497 C515 1.392 . S
N498 Co482 2.282 . S
N498 C501 1.332 . S
N498 C503 1.332 . S
C499 C500 1.386 . S
C499 C502 1.388 . S
C500 C499 1.386 . S
C500 C501 1.382 . S
C500 H526 0.950 . S
C501 N498 1.332 . S
C501 C500 1.382 . S
C501 H512 0.952 . S
C502 C499 1.388 . S
C502 C503 1.382 . S
C502 H527 0.950 . S
C503 N498 1.332 . S
C503 C502 1.382 . S
C503 H513 0.948 . S
N504 Co482 2.282 . S
N504 C508 1.332 . S
N504 C509 1.332 . S
C505 C506 1.388 . S
C505 C509 1.382 . S
C505 H528 0.950 . S
C506 C505 1.388 . S
C506 C507 1.386 . S
C507 C506 1.386 . S
C507 C508 1.382 . S
C507 H529 0.950 . S
C508 N504 1.332 . S
C508 C507 1.382 . S
C508 H510 0.952 . S
C509 N504 1.332 . S
C509 C505 1.382 . S
C509 H511 0.948 . S
H510 C508 0.952 . S
H511 C509 0.948 . S
H512 C501 0.952 . S
H513 C503 0.948 . S
C514 C480 1.395 . S
C514 C484 1.391 . S
C515 C477 1.389 . S
C515 C497 1.392 . S
C516 C487 1.392 . S
C516 C489 1.389 . S
C517 C492 1.395 . S
C517 C494 1.391 . S
H518 C478 0.951 . S
H519 C479 0.950 . S
H520 C485 0.949 . S
H521 C486 0.950 . S
H522 C490 0.951 . S
H523 C491 0.950 . S
H524 C495 0.949 . S
H525 C496 0.950 . S
H526 C500 0.950 . S
H527 C502 0.950 . S
H528 C505 0.950 . S
H529 C507 0.950 . S
C530 C531 1.443 . S
C530 N534 1.376 . S
C530 C568 1.389 . S
C531 C530 1.443 . S
C531 C532 1.340 . S
C531 H571 0.951 . S
C532 C531 1.340 . S
C532 C533 1.439 . S
C532 H572 0.950 . S
C533 C532 1.439 . S
C533 N534 1.374 . S
C533 C567 1.395 . S
N534 C530 1.376 . S
N534 C533 1.374 . S
N534 Co535 2.008 . S
Co535 N534 2.008 . S
Co535 N536 1.995 . S
Co535 N541 2.008 . S
Co535 N546 1.995 . S
Co535 N551 2.282 . S
Co535 N557 2.282 1_556 S
N536 Co535 1.995 . S
N536 C537 1.376 . S
N536 C540 1.383 . S
C537 N536 1.376 . S
C537 C538 1.446 . S
C537 C567 1.391 . S
C538 C537 1.446 . S
C538 C539 1.339 . S
C538 H573 0.949 . S
C539 C538 1.339 . S
C539 C540 1.439 . S
C539 H574 0.950 1_455 S
C540 N536 1.383 . S
C540 C539 1.439 . S
C540 C569 1.392 . S
N541 Co535 2.008 . S
N541 C542 1.376 . S
N541 C545 1.374 . S
C542 N541 1.376 . S
C542 C543 1.443 . S
C542 C569 1.389 . S
C543 C542 1.443 . S
C543 C544 1.340 . S
C543 H575 0.951 . S
C544 C543 1.340 . S
C544 C545 1.439 . S
C544 H576 0.950 . S
C545 N541 1.374 . S
C545 C544 1.439 . S
C545 C570 1.395 . S
N546 Co535 1.995 . S
N546 C547 1.376 . S
N546 C550 1.383 . S
C547 N546 1.376 . S
C547 C548 1.446 . S
C547 C570 1.391 . S
C548 C547 1.446 . S
C548 C549 1.339 . S
C548 H577 0.949 . S
C549 C548 1.339 . S
C549 C550 1.439 . S
C549 H578 0.950 . S
C550 N546 1.383 . S
C550 C549 1.439 . S
C550 C568 1.392 . S
N551 Co535 2.282 . S
N551 C554 1.332 . S
N551 C556 1.332 . S
C552 C553 1.386 . S
C552 C555 1.388 . S
C553 C552 1.386 . S
C553 C554 1.382 . S
C553 H579 0.950 . S
C554 N551 1.332 . S
C554 C553 1.382 . S
C554 H565 0.952 . S
C555 C552 1.388 . S
C555 C556 1.382 . S
C555 H580 0.950 . S
C556 N551 1.332 . S
C556 C555 1.382 . S
C556 H566 0.948 . S
N557 Co535 2.282 1_554 S
N557 C561 1.332 . S
N557 C562 1.332 . S
C558 C559 1.388 . S
C558 C562 1.382 . S
C558 H581 0.950 . S
C559 C558 1.388 . S
C559 C560 1.386 . S
C560 C559 1.386 . S
C560 C561 1.382 . S
C560 H582 0.950 . S
C561 N557 1.332 . S
C561 C560 1.382 . S
C561 H563 0.952 . S
C562 N557 1.332 . S
C562 C558 1.382 . S
C562 H564 0.948 . S
H563 C561 0.952 . S
H564 C562 0.948 . S
H565 C554 0.952 . S
H566 C556 0.948 . S
C567 C533 1.395 . S
C567 C537 1.391 . S
C568 C530 1.389 . S
C568 C550 1.392 . S
C569 C540 1.392 . S
C569 C542 1.389 . S
C570 C545 1.395 . S
C570 C547 1.391 . S
H571 C531 0.951 . S
H572 C532 0.950 . S
H573 C538 0.949 . S
H574 C539 0.950 1_655 S
H575 C543 0.951 . S
H576 C544 0.950 . S
H577 C548 0.949 . S
H578 C549 0.950 . S
H579 C553 0.950 . S
H580 C555 0.950 . S
H581 C558 0.950 . S
H582 C560 0.950 . S
C583 C584 1.443 . S
C583 N587 1.376 . S
C583 C621 1.389 . S
C584 C583 1.443 . S
C584 C585 1.340 . S
C584 H624 0.951 . S
C585 C584 1.340 . S
C585 C586 1.439 . S
C585 H625 0.950 . S
C586 C585 1.439 . S
C586 N587 1.374 . S
C586 C620 1.395 . S
N587 C583 1.376 . S
N587 C586 1.374 . S
N587 Co588 2.008 . S
Co588 N587 2.008 . S
Co588 N589 1.995 . S
Co588 N594 2.008 . S
Co588 N599 1.995 . S
Co588 N604 2.282 . S
Co588 N610 2.282 . S
N589 Co588 1.995 . S
N589 C590 1.376 . S
N589 C593 1.383 . S
C590 N589 1.376 . S
C590 C591 1.446 . S
C590 C620 1.391 . S
C591 C590 1.446 . S
C591 C592 1.339 . S
C591 H626 0.949 . S
C592 C591 1.339 . S
C592 C593 1.439 . S
C592 H627 0.950 1_545 S
C593 N589 1.383 . S
C593 C592 1.439 . S
C593 C622 1.392 . S
N594 Co588 2.008 . S
N594 C595 1.376 . S
N594 C598 1.374 . S
C595 N594 1.376 . S
C595 C596 1.443 . S
C595 C622 1.389 . S
C596 C595 1.443 . S
C596 C597 1.340 . S
C596 H628 0.951 . S
C597 C596 1.340 . S
C597 C598 1.439 . S
C597 H629 0.950 . S
C598 N594 1.374 . S
C598 C597 1.439 . S
C598 C623 1.395 . S
N599 Co588 1.995 . S
N599 C600 1.376 . S
N599 C603 1.383 . S
C600 N599 1.376 . S
C600 C601 1.446 . S
C600 C623 1.391 . S
C601 C600 1.446 . S
C601 C602 1.339 . S
C601 H630 0.949 . S
C602 C601 1.339 . S
C602 C603 1.439 . S
C602 H631 0.950 . S
C603 N599 1.383 . S
C603 C602 1.439 . S
C603 C621 1.392 . S
N604 Co588 2.282 . S
N604 C607 1.332 . S
N604 C609 1.332 . S
C605 C606 1.386 . S
C605 C608 1.388 . S
C606 C605 1.386 . S
C606 C607 1.382 . S
C606 H632 0.950 . S
C607 N604 1.332 . S
C607 C606 1.382 . S
C607 H618 0.952 . S
C608 C605 1.388 . S
C608 C609 1.382 . S
C608 H633 0.950 . S
C609 N604 1.332 . S
C609 C608 1.382 . S
C609 H619 0.948 . S
N610 Co588 2.282 . S
N610 C614 1.332 . S
N610 C615 1.332 . S
C611 C612 1.388 . S
C611 C615 1.382 . S
C611 H634 0.950 . S
C612 C611 1.388 . S
C612 C613 1.386 . S
C613 C612 1.386 . S
C613 C614 1.382 . S
C613 H635 0.950 . S
C614 N610 1.332 . S
C614 C613 1.382 . S
C614 H616 0.952 . S
C615 N610 1.332 . S
C615 C611 1.382 . S
C615 H617 0.948 . S
H616 C614 0.952 . S
H617 C615 0.948 . S
H618 C607 0.952 . S
H619 C609 0.948 . S
C620 C586 1.395 . S
C620 C590 1.391 . S
C621 C583 1.389 . S
C621 C603 1.392 . S
C622 C593 1.392 . S
C622 C595 1.389 . S
C623 C598 1.395 . S
C623 C600 1.391 . S
H624 C584 0.951 . S
H625 C585 0.950 . S
H626 C591 0.949 . S
H627 C592 0.950 1_565 S
H628 C596 0.951 . S
H629 C597 0.950 . S
H630 C601 0.949 . S
H631 C602 0.950 . S
H632 C606 0.950 . S
H633 C608 0.950 . S
H634 C611 0.950 . S
H635 C613 0.950 . S
C22 C340 1.807 . S
C75 C393 1.807 . S
C128 C446 1.807 1_556 S
C181 C499 1.807 . S
C234 C552 1.807 . S
C605 C287 1.807 1_554 S
C38 C568 2.325 1_554 S
C91 C621 2.325 . S
C144 C356 2.325 . S
C197 C409 2.325 1_554 S
C250 C462 2.325 . S
C303 C515 2.325 . S
C39 C198 2.477 . S
C92 C251 2.477 1_655 S
C304 C145 2.478 1_545 S
C357 C516 2.477 . S
C569 C410 2.478 1_455 S
C463 C622 2.477 1_565 S
C347 C29 1.311 . S
C82 C400 1.311 . S
C135 C453 1.311 . S
C506 C188 1.312 . S
C559 C241 1.311 . S
C294 C612 1.311 . S
