# Generated by pormake.
# Topology vby, (6)-cn, num edge types: 1
# Building blocks:
#     Node 0, Type 0, BuildingBlock: CIFDUS_clean_sbu_1, # of connection points: 6
#     Node 1, Type 0, BuildingBlock: CIFDUS_clean_sbu_1, # of connection points: 6
#     Node 2, Type 0, BuildingBlock: CIFDUS_clean_sbu_1, # of connection points: 6
#     Node 3, Type 0, BuildingBlock: CIFDUS_clean_sbu_1, # of connection points: 6
#     Node 4, Type 0, BuildingBlock: CIFDUS_clean_sbu_1, # of connection points: 6
#     Node 5, Type 0, BuildingBlock: CIFDUS_clean_sbu_1, # of connection points: 6
#     Node 6, Type 0, BuildingBlock: CIFDUS_clean_sbu_1, # of connection points: 6
#     Node 7, Type 0, BuildingBlock: CIFDUS_clean_sbu_1, # of connection points: 6
#     Edge 8, Type (0, 0), BuildingBlock: EYOCIG_clean_linker_4, # of connection points: 2
#     Edge 9, Type (0, 0), BuildingBlock: EYOCIG_clean_linker_4, # of connection points: 2
#     Edge 10, Type (0, 0), BuildingBlock: EYOCIG_clean_linker_4, # of connection points: 2
#     Edge 11, Type (0, 0), BuildingBlock: EYOCIG_clean_linker_4, # of connection points: 2
#     Edge 12, Type (0, 0), BuildingBlock: EYOCIG_clean_linker_4, # of connection points: 2
#     Edge 13, Type (0, 0), BuildingBlock: EYOCIG_clean_linker_4, # of connection points: 2
#     Edge 14, Type (0, 0), BuildingBlock: EYOCIG_clean_linker_4, # of connection points: 2
#     Edge 15, Type (0, 0), BuildingBlock: EYOCIG_clean_linker_4, # of connection points: 2
#     Edge 16, Type (0, 0), BuildingBlock: EYOCIG_clean_linker_4, # of connection points: 2
#     Edge 17, Type (0, 0), BuildingBlock: EYOCIG_clean_linker_4, # of connection points: 2
#     Edge 18, Type (0, 0), BuildingBlock: EYOCIG_clean_linker_4, # of connection points: 2
#     Edge 19, Type (0, 0), BuildingBlock: EYOCIG_clean_linker_4, # of connection points: 2
#     Edge 20, Type (0, 0), BuildingBlock: EYOCIG_clean_linker_4, # of connection points: 2
#     Edge 21, Type (0, 0), BuildingBlock: EYOCIG_clean_linker_4, # of connection points: 2
#     Edge 22, Type (0, 0), BuildingBlock: EYOCIG_clean_linker_4, # of connection points: 2
#     Edge 23, Type (0, 0), BuildingBlock: EYOCIG_clean_linker_4, # of connection points: 2
#     Edge 24, Type (0, 0), BuildingBlock: EYOCIG_clean_linker_4, # of connection points: 2
#     Edge 25, Type (0, 0), BuildingBlock: EYOCIG_clean_linker_4, # of connection points: 2
#     Edge 26, Type (0, 0), BuildingBlock: EYOCIG_clean_linker_4, # of connection points: 2
#     Edge 27, Type (0, 0), BuildingBlock: EYOCIG_clean_linker_4, # of connection points: 2
#     Edge 28, Type (0, 0), BuildingBlock: EYOCIG_clean_linker_4, # of connection points: 2
#     Edge 29, Type (0, 0), BuildingBlock: EYOCIG_clean_linker_4, # of connection points: 2
#     Edge 30, Type (0, 0), BuildingBlock: EYOCIG_clean_linker_4, # of connection points: 2
#     Edge 31, Type (0, 0), BuildingBlock: EYOCIG_clean_linker_4, # of connection points: 2
# Relax obj value: 0.088
# Max RMSD: 0.124
# Mean RMSD: 0.124
data_MOF--net-vby--node1-CIFDUS_clean_sbu_1--edge1-EYOCIG_clean_linker_4
_symmetry_space_group_name_H-M    P1
_symmetry_Int_Tables_number       1
_symmetry_cell_setting            triclinic
loop_
_symmetry_equiv_pos_as_xyz
'x, y, z'
_cell_length_a     12.587932
_cell_length_b     48.069811
_cell_length_c     23.973847
_cell_angle_alpha  90.068797
_cell_angle_beta   89.995702
_cell_angle_gamma 89.997659
loop_
_atom_site_label
_atom_site_type_symbol
_atom_site_fract_x
_atom_site_fract_y
_atom_site_fract_z
_atom_type_partial_charge
O0 O 0.10906 0.34769 0.98536 0.0
Mn1 Mn 0.08378 0.38914 1.01519 0.0
O2 O 0.16422 0.32209 0.058 0.0
Mn3 Mn 0.19917 0.35258 0.10015 0.0
O4 O 0.06321 0.43045 0.04651 0.0
O5 O 0.06369 0.3997 0.93247 0.0
Mn6 Mn 0.99123 0.43104 0.93482 0.0
O7 O 0.91921 0.38437 0.01898 0.0
O8 O 0.06285 0.45823 0.97283 0.0
O9 O 0.24856 0.39548 1.0095 0.0
O10 O 0.32262 0.36963 0.07776 0.0
O11 O 0.01256 0.42522 0.86097 0.0
O12 O 0.86218 0.42053 0.9659 0.0
C13 C 0.09543 0.37465 0.15199 0.0
C14 C 0.14039 0.32444 1.00692 0.0
C15 C 0.0662 0.45495 0.02496 0.0
C16 C 0.05248 0.40197 0.87831 0.0
C17 C 0.84542 0.39991 0.99833 0.0
C18 C 0.32918 0.38652 0.03724 0.0
O19 O 0.09795 0.37799 0.09779 0.0
O20 O 0.15756 0.3557 0.17219 0.0
O21 O 0.88726 0.68624 0.98537 0.0
Mn22 Mn 0.91254 0.64482 1.01517 0.0
O23 O 0.8325 0.71195 0.05808 0.0
Mn24 Mn 0.79729 0.68151 0.1002 0.0
O25 O 0.93309 0.60354 0.04646 0.0
O26 O 0.93262 0.63416 0.93248 0.0
Mn27 Mn 0.00519 0.60284 0.93473 0.0
O28 O 0.0771 0.6496 0.01896 0.0
O29 O 0.93367 0.57568 0.97275 0.0
O30 O 0.74776 0.6385 1.00952 0.0
O31 O 0.67378 0.66449 0.07773 0.0
O32 O 0.98379 0.60864 0.86089 0.0
O33 O 0.13422 0.61341 0.9658 0.0
C34 C 0.90088 0.6594 0.15197 0.0
C35 C 0.85612 0.70952 1.00696 0.0
C36 C 0.93022 0.57902 0.02488 0.0
C37 C 0.94383 0.63189 0.87831 0.0
C38 C 0.15093 0.63405 0.99827 0.0
C39 C 0.66717 0.64752 0.03724 0.0
O40 O 0.89832 0.65605 0.09776 0.0
O41 O 0.83893 0.67839 0.17224 0.0
O42 O 0.91928 0.6495 0.5142 0.0
Mn43 Mn 0.08384 0.64473 0.51799 0.0
O44 O 0.86223 0.61334 0.56728 0.0
Mn45 Mn 0.99128 0.60282 0.59836 0.0
O46 O 0.24862 0.63838 0.52367 0.0
O47 O 0.09802 0.65586 0.43538 0.0
Mn48 Mn 0.19926 0.68127 0.43301 0.0
O49 O 0.10912 0.68618 0.54781 0.0
O50 O 0.3227 0.66422 0.4554 0.0
O51 O 0.06327 0.60341 0.48667 0.0
O52 O 0.06291 0.57563 0.56036 0.0
O53 O 0.15765 0.67816 0.36098 0.0
O54 O 0.16431 0.71177 0.47516 0.0
C55 C 0.05253 0.6319 0.65487 0.0
C56 C 0.84548 0.63395 0.53485 0.0
C57 C 0.32925 0.64733 0.49593 0.0
C58 C 0.09551 0.65921 0.38118 0.0
C59 C 0.14047 0.70942 0.52624 0.0
C60 C 0.06625 0.57891 0.50823 0.0
O61 O 0.06374 0.63417 0.6007 0.0
O62 O 0.01259 0.60865 0.67221 0.0
O63 O 0.88718 0.34762 0.5478 0.0
Mn64 Mn 0.91247 0.38904 0.51801 0.0
O65 O 0.83246 0.32192 0.47509 0.0
Mn66 Mn 0.79725 0.35236 0.43298 0.0
O67 O 0.93303 0.43032 0.48673 0.0
O68 O 0.93253 0.3997 0.60071 0.0
Mn69 Mn 0.00509 0.43102 0.59846 0.0
O70 O 0.07703 0.38426 0.51423 0.0
O71 O 0.93357 0.45819 0.56045 0.0
O72 O 0.74769 0.39537 0.52367 0.0
O73 O 0.67373 0.36939 0.45545 0.0
O74 O 0.98367 0.42523 0.6723 0.0
O75 O 0.13413 0.42045 0.56738 0.0
C76 C 0.90084 0.37448 0.38121 0.0
C77 C 0.85606 0.32434 0.52621 0.0
C78 C 0.93015 0.45485 0.50831 0.0
C79 C 0.94373 0.40197 0.65488 0.0
C80 C 0.15085 0.39981 0.53491 0.0
C81 C 0.6671 0.38635 0.49595 0.0
O82 O 0.89828 0.37782 0.43542 0.0
O83 O 0.8389 0.35548 0.36094 0.0
O84 O 0.60911 0.84769 0.98538 0.0
Mn85 Mn 0.58381 0.88914 1.0152 0.0
O86 O 0.66429 0.82209 0.05803 0.0
Mn87 Mn 0.69922 0.85259 0.10017 0.0
O88 O 0.56323 0.93045 0.04652 0.0
O89 O 0.56373 0.89969 0.93248 0.0
Mn90 Mn 0.49127 0.93104 0.93483 0.0
O91 O 0.41925 0.88437 0.01899 0.0
O92 O 0.5629 0.95823 0.97283 0.0
O93 O 0.74859 0.89548 1.00951 0.0
O94 O 0.82267 0.86964 0.07778 0.0
O95 O 0.51259 0.92522 0.86098 0.0
O96 O 0.36222 0.92053 0.96591 0.0
C97 C 0.59547 0.87465 0.15201 0.0
C98 C 0.64046 0.82445 1.00694 0.0
C99 C 0.56622 0.95495 0.02496 0.0
C100 C 0.55252 0.90196 0.87832 0.0
C101 C 0.34546 0.89991 0.99834 0.0
C102 C 0.82922 0.88653 0.03726 0.0
O103 O 0.59798 0.878 0.09781 0.0
O104 O 0.65761 0.85571 0.17221 0.0
O105 O 0.38715 0.18624 0.98533 0.0
Mn106 Mn 0.41243 0.14482 1.01513 0.0
O107 O 0.33238 0.21194 0.05803 0.0
Mn108 Mn 0.29717 0.18151 0.10016 0.0
O109 O 0.43298 0.10354 0.04642 0.0
O110 O 0.43251 0.13415 0.93244 0.0
Mn111 Mn 0.50508 0.10283 0.93468 0.0
O112 O 0.57699 0.14959 0.01891 0.0
O113 O 0.43357 0.07567 0.97271 0.0
O114 O 0.24765 0.13849 1.00947 0.0
O115 O 0.17367 0.16448 0.07769 0.0
O116 O 0.48368 0.10863 0.86085 0.0
O117 O 0.63411 0.11341 0.96576 0.0
C118 C 0.40078 0.15939 0.15192 0.0
C119 C 0.35601 0.20952 1.00692 0.0
C120 C 0.43012 0.07902 0.02484 0.0
C121 C 0.44373 0.13189 0.87827 0.0
C122 C 0.65082 0.13405 0.99823 0.0
C123 C 0.16706 0.14752 0.0372 0.0
O124 O 0.39822 0.15605 0.09772 0.0
O125 O 0.33882 0.17839 0.17219 0.0
O126 O 0.4192 0.1495 0.51415 0.0
Mn127 Mn 0.58377 0.14473 0.51794 0.0
O128 O 0.36217 0.11334 0.56723 0.0
Mn129 Mn 0.49122 0.10283 0.59831 0.0
O130 O 0.74855 0.13838 0.52362 0.0
O131 O 0.59795 0.15586 0.43533 0.0
Mn132 Mn 0.69919 0.18127 0.43296 0.0
O133 O 0.60905 0.18618 0.54776 0.0
O134 O 0.82263 0.16422 0.45535 0.0
O135 O 0.5632 0.10341 0.48662 0.0
O136 O 0.56285 0.07563 0.56031 0.0
O137 O 0.65758 0.17815 0.36093 0.0
O138 O 0.66426 0.21177 0.47511 0.0
C139 C 0.55245 0.1319 0.65482 0.0
C140 C 0.34541 0.13395 0.5348 0.0
C141 C 0.82918 0.14733 0.49588 0.0
C142 C 0.59544 0.15921 0.38113 0.0
C143 C 0.64041 0.20942 0.52619 0.0
C144 C 0.56619 0.07891 0.50818 0.0
O145 O 0.56367 0.13417 0.60066 0.0
O146 O 0.51252 0.10865 0.67216 0.0
O147 O 0.38722 0.84762 0.54783 0.0
Mn148 Mn 0.41249 0.88904 0.51803 0.0
O149 O 0.3325 0.82191 0.47512 0.0
Mn150 Mn 0.29728 0.85235 0.433 0.0
O151 O 0.43304 0.93032 0.48674 0.0
O152 O 0.43255 0.89971 0.60072 0.0
Mn153 Mn 0.50511 0.93103 0.59847 0.0
O154 O 0.57706 0.88427 0.51424 0.0
O155 O 0.43359 0.95819 0.56044 0.0
O156 O 0.24771 0.89537 0.52368 0.0
O157 O 0.17375 0.86937 0.45547 0.0
O158 O 0.48369 0.92523 0.67231 0.0
O159 O 0.63415 0.92045 0.56739 0.0
C160 C 0.40087 0.87447 0.38123 0.0
C161 C 0.3561 0.82434 0.52624 0.0
C162 C 0.43017 0.95484 0.50831 0.0
C163 C 0.44376 0.90197 0.65489 0.0
C164 C 0.65087 0.89981 0.53492 0.0
C165 C 0.16713 0.88634 0.49596 0.0
O166 O 0.3983 0.87781 0.43544 0.0
O167 O 0.33894 0.85547 0.36096 0.0
C168 C 0.52953 0.39539 0.0163 0.0
C169 C 0.43462 0.39362 0.02064 0.0
C170 C 0.64121 0.39433 1.0147 0.0
C171 C 0.73645 0.39452 1.0108 0.0
C172 C 0.35511 0.63968 1.01469 0.0
C173 C 0.25988 0.63946 1.01077 0.0
C174 C 0.4668 0.63864 0.01632 0.0
C175 C 0.56171 0.64042 0.02067 0.0
C176 C 0.64128 0.63953 0.51847 0.0
C177 C 0.73651 0.63934 0.52237 0.0
C178 C 0.52959 0.63847 0.51687 0.0
C179 C 0.43468 0.64024 0.51253 0.0
C180 C 0.46673 0.39523 0.51687 0.0
C181 C 0.56164 0.39345 0.51252 0.0
C182 C 0.35504 0.39419 0.5185 0.0
C183 C 0.25981 0.3944 0.52242 0.0
C184 C 0.02956 0.89539 0.01632 0.0
C185 C 0.93465 0.89363 0.02066 0.0
C186 C 0.14125 0.89434 1.01472 0.0
C187 C 0.23649 0.89452 1.01082 0.0
C188 C 0.96669 0.13864 0.01627 0.0
C189 C 0.0616 0.14041 0.02063 0.0
C190 C 0.855 0.13967 1.01464 0.0
C191 C 0.75977 0.13946 1.01072 0.0
C192 C 0.1412 0.13953 0.51842 0.0
C193 C 0.23644 0.13934 0.52232 0.0
C194 C 0.02952 0.13847 0.51682 0.0
C195 C 0.93461 0.14023 0.51248 0.0
C196 C 0.85507 0.89419 0.51851 0.0
C197 C 0.75983 0.8944 0.52243 0.0
C198 C 0.96675 0.89522 0.51688 0.0
C199 C 0.06166 0.89345 0.51253 0.0
C200 C 0.98015 0.53108 0.07055 0.0
C201 C 0.95538 0.55463 0.05769 0.0
C202 C 0.01617 0.50295 0.07058 0.0
C203 C 0.04097 0.47938 0.05776 0.0
C204 C 0.98014 0.50279 0.46265 0.0
C205 C 0.95534 0.47924 0.47551 0.0
C206 C 0.01619 0.53092 0.46262 0.0
C207 C 0.04101 0.55448 0.47544 0.0
C208 C 0.51614 1.00295 0.07056 0.0
C209 C 0.54096 0.97938 0.05775 0.0
C210 C 0.48009 0.03108 0.07052 0.0
C211 C 0.4553 0.05462 0.05765 0.0
C212 C 0.51615 0.03091 0.46259 0.0
C213 C 0.54096 0.05448 0.4754 0.0
C214 C 0.48012 1.00278 0.46263 0.0
C215 C 0.45534 0.97924 0.4755 0.0
C216 C 0.21816 0.27959 0.95982 0.0
C217 C 0.17508 0.30138 0.97235 0.0
C218 C 0.27813 0.25431 0.95983 0.0
C219 C 0.32122 0.23253 0.97237 0.0
C220 C 0.71824 0.77959 0.95986 0.0
C221 C 0.67515 0.80138 0.97239 0.0
C222 C 0.77823 0.75431 0.95987 0.0
C223 C 0.82132 0.73254 0.97242 0.0
C224 C 0.21823 0.75427 0.57333 0.0
C225 C 0.17515 0.73248 0.5608 0.0
C226 C 0.2782 0.77955 0.57332 0.0
C227 C 0.32129 0.80133 0.56078 0.0
C228 C 0.77815 0.27955 0.57328 0.0
C229 C 0.82125 0.30133 0.56074 0.0
C230 C 0.71817 0.25427 0.57329 0.0
C231 C 0.67509 0.23248 0.56075 0.0
C232 C 0.00975 0.39865 0.23762 0.0
C233 C 0.03789 0.3916 0.19135 0.0
C234 C 0.98613 0.39861 0.29571 0.0
C235 C 0.9581 0.3915 0.34193 0.0
C236 C 0.98617 0.63526 0.23746 0.0
C237 C 0.95813 0.64238 0.19125 0.0
C238 C 0.0098 0.63522 0.29555 0.0
C239 C 0.03795 0.64226 0.34182 0.0
C240 C 0.97718 0.66403 0.79438 0.0
C241 C 0.95062 0.65486 0.83953 0.0
C242 C 0.01923 0.66404 0.73895 0.0
C243 C 0.04578 0.65487 0.69375 0.0
C244 C 0.9771 0.36983 0.73881 0.0
C245 C 0.95053 0.37901 0.69366 0.0
C246 C 0.01916 0.36983 0.79423 0.0
C247 C 0.04572 0.379 0.83943 0.0
C248 C 0.50975 0.89865 0.23764 0.0
C249 C 0.53791 0.8916 0.19137 0.0
C250 C 0.48613 0.89861 0.29573 0.0
C251 C 0.45811 0.89149 0.34195 0.0
C252 C 0.48607 0.13526 0.23742 0.0
C253 C 0.45803 0.14238 0.1912 0.0
C254 C 0.50971 0.13522 0.29551 0.0
C255 C 0.53787 0.14226 0.34178 0.0
C256 C 0.47708 0.16403 0.79434 0.0
C257 C 0.45052 0.15485 0.83949 0.0
C258 C 0.51914 0.16403 0.73892 0.0
C259 C 0.54569 0.15486 0.69371 0.0
C260 C 0.47714 0.86983 0.73882 0.0
C261 C 0.45057 0.87901 0.69367 0.0
C262 C 0.5192 0.86983 0.79423 0.0
C263 C 0.54576 0.879 0.83943 0.0
loop_
_geom_bond_atom_site_label_1
_geom_bond_atom_site_label_2
_geom_bond_distance
_geom_bond_site_symmetry_2
_ccdc_geom_bond_type
O0 Mn1 2.163 1_556 S
O0 C14 1.244 1_556 S
Mn1 O0 2.163 1_554 S
Mn1 O4 2.160 . S
Mn1 O5 2.221 1_554 S
Mn1 O7 2.163 1_455 S
Mn1 O9 2.160 1_554 S
Mn1 O19 2.222 . S
O2 Mn3 2.087 . S
O2 C14 1.256 . S
Mn3 O2 2.087 . S
Mn3 O10 2.089 . S
Mn3 O19 2.290 . S
Mn3 O20 2.251 . S
O4 Mn1 2.160 . S
O4 C15 1.239 1_554 S
O5 Mn1 2.221 1_556 S
O5 Mn6 2.290 1_455 S
O5 C16 1.278 . S
Mn6 O5 2.290 1_655 S
Mn6 O8 2.089 . S
Mn6 O11 2.251 . S
Mn6 O12 2.087 . S
O7 Mn1 2.163 1_655 S
O7 C17 1.244 1_554 S
O8 Mn6 2.089 . S
O8 C15 1.256 1_655 S
O9 Mn1 2.160 1_556 S
O9 C18 1.239 1_556 S
O10 Mn3 2.089 . S
O10 C18 1.256 . S
O11 Mn6 2.251 . S
O11 C16 1.241 1_655 S
O12 Mn6 2.087 . S
O12 C17 1.256 . S
C13 O19 1.278 . S
C13 O20 1.241 . S
C14 O0 1.244 1_554 S
C14 O2 1.256 . S
C15 O4 1.239 1_556 S
C15 O8 1.256 1_455 S
C16 O5 1.278 . S
C16 O11 1.241 1_455 S
C17 O7 1.244 1_556 S
C17 O12 1.256 . S
C18 O9 1.239 1_554 S
C18 O10 1.256 . S
O19 Mn1 2.222 . S
O19 Mn3 2.290 . S
O19 C13 1.278 . S
O20 Mn3 2.251 . S
O20 C13 1.241 . S
O21 Mn22 2.163 1_556 S
O21 C35 1.244 1_556 S
Mn22 O21 2.163 1_554 S
Mn22 O25 2.160 . S
Mn22 O26 2.221 1_554 S
Mn22 O28 2.163 1_655 S
Mn22 O30 2.160 1_554 S
Mn22 O40 2.222 . S
O23 Mn24 2.087 . S
O23 C35 1.256 . S
Mn24 O23 2.087 . S
Mn24 O31 2.089 . S
Mn24 O40 2.290 . S
Mn24 O41 2.251 . S
O25 Mn22 2.160 . S
O25 C36 1.239 1_554 S
O26 Mn22 2.221 1_556 S
O26 Mn27 2.290 1_655 S
O26 C37 1.278 . S
Mn27 O26 2.290 1_455 S
Mn27 O29 2.089 . S
Mn27 O32 2.251 . S
Mn27 O33 2.087 . S
O28 Mn22 2.163 1_455 S
O28 C38 1.244 1_554 S
O29 Mn27 2.089 . S
O29 C36 1.256 1_455 S
O30 Mn22 2.160 1_556 S
O30 C39 1.239 1_556 S
O31 Mn24 2.089 . S
O31 C39 1.256 . S
O32 Mn27 2.251 . S
O32 C37 1.241 1_455 S
O33 Mn27 2.087 . S
O33 C38 1.256 . S
C34 O40 1.278 . S
C34 O41 1.241 . S
C35 O21 1.244 1_554 S
C35 O23 1.256 . S
C36 O25 1.239 1_556 S
C36 O29 1.256 1_655 S
C37 O26 1.278 . S
C37 O32 1.241 1_655 S
C38 O28 1.244 1_556 S
C38 O33 1.256 . S
C39 O30 1.239 1_554 S
C39 O31 1.256 . S
O40 Mn22 2.222 . S
O40 Mn24 2.290 . S
O40 C34 1.278 . S
O41 Mn24 2.251 . S
O41 C34 1.241 . S
O42 Mn43 2.163 1_655 S
O42 C56 1.244 . S
Mn43 O42 2.163 1_455 S
Mn43 O46 2.160 . S
Mn43 O47 2.221 . S
Mn43 O49 2.163 . S
Mn43 O51 2.160 . S
Mn43 O61 2.221 . S
O44 Mn45 2.087 . S
O44 C56 1.256 . S
Mn45 O44 2.087 . S
Mn45 O52 2.089 . S
Mn45 O61 2.290 1_655 S
Mn45 O62 2.251 . S
O46 Mn43 2.160 . S
O46 C57 1.239 . S
O47 Mn43 2.221 . S
O47 Mn48 2.290 . S
O47 C58 1.278 . S
Mn48 O47 2.290 . S
Mn48 O50 2.089 . S
Mn48 O53 2.251 . S
Mn48 O54 2.087 . S
O49 Mn43 2.163 . S
O49 C59 1.244 . S
O50 Mn48 2.089 . S
O50 C57 1.256 . S
O51 Mn43 2.160 . S
O51 C60 1.239 . S
O52 Mn45 2.089 . S
O52 C60 1.256 1_655 S
O53 Mn48 2.251 . S
O53 C58 1.241 . S
O54 Mn48 2.087 . S
O54 C59 1.256 . S
C55 O61 1.278 . S
C55 O62 1.241 1_455 S
C56 O42 1.244 . S
C56 O44 1.256 . S
C57 O46 1.239 . S
C57 O50 1.256 . S
C58 O47 1.278 . S
C58 O53 1.241 . S
C59 O49 1.244 . S
C59 O54 1.256 . S
C60 O51 1.239 . S
C60 O52 1.256 1_455 S
O61 Mn43 2.221 . S
O61 Mn45 2.290 1_455 S
O61 C55 1.278 . S
O62 Mn45 2.251 . S
O62 C55 1.241 1_655 S
O63 Mn64 2.163 . S
O63 C77 1.244 . S
Mn64 O63 2.163 . S
Mn64 O67 2.160 . S
Mn64 O68 2.221 . S
Mn64 O70 2.163 1_655 S
Mn64 O72 2.160 . S
Mn64 O82 2.221 . S
O65 Mn66 2.087 . S
O65 C77 1.256 . S
Mn66 O65 2.087 . S
Mn66 O73 2.089 . S
Mn66 O82 2.290 . S
Mn66 O83 2.251 . S
O67 Mn64 2.160 . S
O67 C78 1.239 . S
O68 Mn64 2.221 . S
O68 Mn69 2.290 1_655 S
O68 C79 1.278 . S
Mn69 O68 2.290 1_455 S
Mn69 O71 2.089 . S
Mn69 O74 2.251 . S
Mn69 O75 2.087 . S
O70 Mn64 2.163 1_455 S
O70 C80 1.244 . S
O71 Mn69 2.089 . S
O71 C78 1.256 1_455 S
O72 Mn64 2.160 . S
O72 C81 1.239 . S
O73 Mn66 2.089 . S
O73 C81 1.256 . S
O74 Mn69 2.251 . S
O74 C79 1.241 1_455 S
O75 Mn69 2.087 . S
O75 C80 1.256 . S
C76 O82 1.278 . S
C76 O83 1.241 . S
C77 O63 1.244 . S
C77 O65 1.256 . S
C78 O67 1.239 . S
C78 O71 1.256 1_655 S
C79 O68 1.278 . S
C79 O74 1.241 1_655 S
C80 O70 1.244 . S
C80 O75 1.256 . S
C81 O72 1.239 . S
C81 O73 1.256 . S
O82 Mn64 2.221 . S
O82 Mn66 2.290 . S
O82 C76 1.278 . S
O83 Mn66 2.251 . S
O83 C76 1.241 . S
O84 Mn85 2.163 1_556 S
O84 C98 1.244 1_556 S
Mn85 O84 2.163 1_554 S
Mn85 O88 2.160 . S
Mn85 O89 2.221 1_554 S
Mn85 O91 2.163 . S
Mn85 O93 2.160 1_554 S
Mn85 O103 2.222 . S
O86 Mn87 2.087 . S
O86 C98 1.256 . S
Mn87 O86 2.087 . S
Mn87 O94 2.089 . S
Mn87 O103 2.290 . S
Mn87 O104 2.251 . S
O88 Mn85 2.160 . S
O88 C99 1.239 1_554 S
O89 Mn85 2.221 1_556 S
O89 Mn90 2.290 . S
O89 C100 1.278 . S
Mn90 O89 2.290 . S
Mn90 O92 2.089 . S
Mn90 O95 2.251 . S
Mn90 O96 2.087 . S
O91 Mn85 2.163 . S
O91 C101 1.244 1_554 S
O92 Mn90 2.089 . S
O92 C99 1.256 . S
O93 Mn85 2.160 1_556 S
O93 C102 1.239 1_556 S
O94 Mn87 2.089 . S
O94 C102 1.256 . S
O95 Mn90 2.251 . S
O95 C100 1.241 . S
O96 Mn90 2.087 . S
O96 C101 1.256 . S
C97 O103 1.278 . S
C97 O104 1.241 . S
C98 O84 1.244 1_554 S
C98 O86 1.256 . S
C99 O88 1.239 1_556 S
C99 O92 1.256 . S
C100 O89 1.278 . S
C100 O95 1.241 . S
C101 O91 1.244 1_556 S
C101 O96 1.256 . S
C102 O93 1.239 1_554 S
C102 O94 1.256 . S
O103 Mn85 2.222 . S
O103 Mn87 2.290 . S
O103 C97 1.278 . S
O104 Mn87 2.251 . S
O104 C97 1.241 . S
O105 Mn106 2.163 1_556 S
O105 C119 1.244 1_556 S
Mn106 O105 2.163 1_554 S
Mn106 O109 2.160 . S
Mn106 O110 2.221 1_554 S
Mn106 O112 2.163 . S
Mn106 O114 2.160 1_554 S
Mn106 O124 2.222 . S
O107 Mn108 2.087 . S
O107 C119 1.256 . S
Mn108 O107 2.087 . S
Mn108 O115 2.089 . S
Mn108 O124 2.290 . S
Mn108 O125 2.251 . S
O109 Mn106 2.160 . S
O109 C120 1.239 1_554 S
O110 Mn106 2.221 1_556 S
O110 Mn111 2.290 . S
O110 C121 1.278 . S
Mn111 O110 2.290 . S
Mn111 O113 2.089 . S
Mn111 O116 2.251 . S
Mn111 O117 2.087 . S
O112 Mn106 2.163 . S
O112 C122 1.244 1_554 S
O113 Mn111 2.089 . S
O113 C120 1.256 . S
O114 Mn106 2.160 1_556 S
O114 C123 1.239 1_556 S
O115 Mn108 2.089 . S
O115 C123 1.256 . S
O116 Mn111 2.251 . S
O116 C121 1.241 . S
O117 Mn111 2.087 . S
O117 C122 1.256 . S
C118 O124 1.278 . S
C118 O125 1.241 . S
C119 O105 1.244 1_554 S
C119 O107 1.256 . S
C120 O109 1.239 1_556 S
C120 O113 1.256 . S
C121 O110 1.278 . S
C121 O116 1.241 . S
C122 O112 1.244 1_556 S
C122 O117 1.256 . S
C123 O114 1.239 1_554 S
C123 O115 1.256 . S
O124 Mn106 2.222 . S
O124 Mn108 2.290 . S
O124 C118 1.278 . S
O125 Mn108 2.251 . S
O125 C118 1.241 . S
O126 Mn127 2.163 . S
O126 C140 1.244 . S
Mn127 O126 2.163 . S
Mn127 O130 2.160 . S
Mn127 O131 2.221 . S
Mn127 O133 2.163 . S
Mn127 O135 2.160 . S
Mn127 O145 2.221 . S
O128 Mn129 2.087 . S
O128 C140 1.256 . S
Mn129 O128 2.087 . S
Mn129 O136 2.089 . S
Mn129 O145 2.290 . S
Mn129 O146 2.251 . S
O130 Mn127 2.160 . S
O130 C141 1.239 . S
O131 Mn127 2.221 . S
O131 Mn132 2.290 . S
O131 C142 1.278 . S
Mn132 O131 2.290 . S
Mn132 O134 2.089 . S
Mn132 O137 2.251 . S
Mn132 O138 2.087 . S
O133 Mn127 2.163 . S
O133 C143 1.244 . S
O134 Mn132 2.089 . S
O134 C141 1.256 . S
O135 Mn127 2.160 . S
O135 C144 1.239 . S
O136 Mn129 2.089 . S
O136 C144 1.256 . S
O137 Mn132 2.251 . S
O137 C142 1.241 . S
O138 Mn132 2.087 . S
O138 C143 1.256 . S
C139 O145 1.278 . S
C139 O146 1.241 . S
C140 O126 1.244 . S
C140 O128 1.256 . S
C141 O130 1.239 . S
C141 O134 1.256 . S
C142 O131 1.278 . S
C142 O137 1.241 . S
C143 O133 1.244 . S
C143 O138 1.256 . S
C144 O135 1.239 . S
C144 O136 1.256 . S
O145 Mn127 2.221 . S
O145 Mn129 2.290 . S
O145 C139 1.278 . S
O146 Mn129 2.251 . S
O146 C139 1.241 . S
O147 Mn148 2.163 . S
O147 C161 1.244 . S
Mn148 O147 2.163 . S
Mn148 O151 2.160 . S
Mn148 O152 2.221 . S
Mn148 O154 2.163 . S
Mn148 O156 2.160 . S
Mn148 O166 2.221 . S
O149 Mn150 2.087 . S
O149 C161 1.256 . S
Mn150 O149 2.087 . S
Mn150 O157 2.089 . S
Mn150 O166 2.290 . S
Mn150 O167 2.251 . S
O151 Mn148 2.160 . S
O151 C162 1.239 . S
O152 Mn148 2.221 . S
O152 Mn153 2.290 . S
O152 C163 1.278 . S
Mn153 O152 2.290 . S
Mn153 O155 2.089 . S
Mn153 O158 2.251 . S
Mn153 O159 2.087 . S
O154 Mn148 2.163 . S
O154 C164 1.244 . S
O155 Mn153 2.089 . S
O155 C162 1.256 . S
O156 Mn148 2.160 . S
O156 C165 1.239 . S
O157 Mn150 2.089 . S
O157 C165 1.256 . S
O158 Mn153 2.251 . S
O158 C163 1.241 . S
O159 Mn153 2.087 . S
O159 C164 1.256 . S
C160 O166 1.278 . S
C160 O167 1.241 . S
C161 O147 1.244 . S
C161 O149 1.256 . S
C162 O151 1.239 . S
C162 O155 1.256 . S
C163 O152 1.278 . S
C163 O158 1.241 . S
C164 O154 1.244 . S
C164 O159 1.256 . S
C165 O156 1.239 . S
C165 O157 1.256 . S
O166 Mn148 2.221 . S
O166 Mn150 2.290 . S
O166 C160 1.278 . S
O167 Mn150 2.251 . S
O167 C160 1.241 . S
C168 C169 1.170 . S
C168 C170 1.380 1_556 S
C169 C168 1.170 . S
C170 C168 1.380 1_554 S
C170 C171 1.170 . S
C171 C170 1.170 . S
C172 C173 1.170 . S
C172 C174 1.380 1_554 S
C173 C172 1.170 . S
C174 C172 1.380 1_556 S
C174 C175 1.170 . S
C175 C174 1.170 . S
C176 C177 1.170 . S
C176 C178 1.380 . S
C177 C176 1.170 . S
C178 C176 1.380 . S
C178 C179 1.170 . S
C179 C178 1.170 . S
C180 C181 1.170 . S
C180 C182 1.380 . S
C181 C180 1.170 . S
C182 C180 1.380 . S
C182 C183 1.170 . S
C183 C182 1.170 . S
C184 C185 1.170 1_455 S
C184 C186 1.380 1_556 S
C185 C184 1.170 1_655 S
C186 C184 1.380 1_554 S
C186 C187 1.170 . S
C187 C186 1.170 . S
C188 C189 1.170 1_655 S
C188 C190 1.380 1_556 S
C189 C188 1.170 1_455 S
C190 C188 1.380 1_554 S
C190 C191 1.170 . S
C191 C190 1.170 . S
C192 C193 1.170 . S
C192 C194 1.380 . S
C193 C192 1.170 . S
C194 C192 1.380 . S
C194 C195 1.170 1_455 S
C195 C194 1.170 1_655 S
C196 C197 1.170 . S
C196 C198 1.380 . S
C197 C196 1.170 . S
C198 C196 1.380 . S
C198 C199 1.170 1_655 S
C199 C198 1.170 1_455 S
C200 C201 1.170 . S
C200 C202 1.380 . S
C201 C200 1.170 . S
C202 C200 1.380 . S
C202 C203 1.170 . S
C203 C202 1.170 . S
C204 C205 1.170 . S
C204 C206 1.380 . S
C205 C204 1.170 . S
C206 C204 1.380 . S
C206 C207 1.171 . S
C207 C206 1.171 . S
C208 C209 1.170 . S
C208 C210 1.380 1_565 S
C209 C208 1.170 . S
C210 C208 1.380 1_545 S
C210 C211 1.170 . S
C211 C210 1.170 . S
C212 C213 1.170 . S
C212 C214 1.380 1_545 S
C213 C212 1.170 . S
C214 C212 1.380 1_565 S
C214 C215 1.170 . S
C215 C214 1.170 . S
C216 C217 1.170 . S
C216 C218 1.380 . S
C217 C216 1.170 . S
C218 C216 1.380 . S
C218 C219 1.170 . S
C219 C218 1.170 . S
C220 C221 1.170 . S
C220 C222 1.380 . S
C221 C220 1.170 . S
C222 C220 1.380 . S
C222 C223 1.170 . S
C223 C222 1.170 . S
C224 C225 1.170 . S
C224 C226 1.380 . S
C225 C224 1.170 . S
C226 C224 1.380 . S
C226 C227 1.170 . S
C227 C226 1.170 . S
C228 C229 1.170 . S
C228 C230 1.380 . S
C229 C228 1.170 . S
C230 C228 1.380 . S
C230 C231 1.170 . S
C231 C230 1.170 . S
C232 C233 1.170 1_655 S
C232 C234 1.380 . S
C233 C232 1.170 1_455 S
C234 C232 1.380 . S
C234 C235 1.170 . S
C235 C234 1.170 . S
C236 C237 1.170 . S
C236 C238 1.380 1_655 S
C237 C236 1.170 . S
C238 C236 1.380 1_455 S
C238 C239 1.170 . S
C239 C238 1.170 . S
C240 C241 1.170 . S
C240 C242 1.380 1_655 S
C241 C240 1.170 . S
C242 C240 1.380 1_455 S
C242 C243 1.170 . S
C243 C242 1.170 . S
C244 C245 1.170 . S
C244 C246 1.380 1_655 S
C245 C244 1.170 . S
C246 C244 1.380 1_455 S
C246 C247 1.170 . S
C247 C246 1.170 . S
C248 C249 1.170 . S
C248 C250 1.380 . S
C249 C248 1.170 . S
C250 C248 1.380 . S
C250 C251 1.170 . S
C251 C250 1.170 . S
C252 C253 1.170 . S
C252 C254 1.380 . S
C253 C252 1.170 . S
C254 C252 1.380 . S
C254 C255 1.170 . S
C255 C254 1.170 . S
C256 C257 1.170 . S
C256 C258 1.380 . S
C257 C256 1.170 . S
C258 C256 1.380 . S
C258 C259 1.170 . S
C259 C258 1.170 . S
C260 C261 1.170 . S
C260 C262 1.380 . S
C261 C260 1.170 . S
C262 C260 1.380 . S
C262 C263 1.170 . S
C263 C262 1.170 . S
C169 C18 1.285 1_556 S
C171 C17 1.311 1_554 S
C173 C38 1.284 1_554 S
C175 C39 1.294 1_556 S
C177 C56 1.265 . S
C179 C57 1.322 . S
C181 C81 1.317 . S
C183 C80 1.277 . S
C185 C102 1.311 1_556 S
C187 C101 1.270 1_554 S
C189 C123 1.314 1_556 S
C191 C122 1.268 1_554 S
C193 C140 1.302 . S
C195 C141 1.294 . S
C197 C164 1.274 . S
C199 C165 1.319 . S
C201 C36 1.511 1_454 S
C203 C15 1.510 1_554 S
C205 C78 1.497 . S
C207 C60 1.498 1_655 S
C209 C99 1.515 1_554 S
C211 C120 1.514 1_554 S
C213 C144 1.500 . S
C215 C162 1.501 . S
C217 C14 1.514 1_556 S
C219 C119 1.498 1_556 S
C221 C98 1.497 1_556 S
C223 C35 1.536 1_556 S
C225 C59 1.540 . S
C227 C161 1.526 . S
C229 C77 1.544 . S
C231 C143 1.511 . S
C233 C13 1.348 . S
C235 C76 1.313 . S
C237 C34 1.325 . S
C239 C58 1.348 . S
C241 C37 1.262 . S
C243 C55 1.258 . S
C245 C79 1.229 . S
C247 C16 1.304 . S
C249 C97 1.318 . S
C251 C160 1.347 . S
C253 C118 1.329 . S
C255 C142 1.348 . S
C257 C121 1.315 . S
C259 C139 1.243 . S
C261 C163 1.315 . S
C263 C100 1.239 . S
