# Generated by pormake.
# Topology tzs, (4)-cn, num edge types: 1
# Building blocks:
#     Node 0, Type 0, BuildingBlock: UXUYUI_clean_sbu_0, # of connection points: 4
#     Node 1, Type 0, BuildingBlock: UXUYUI_clean_sbu_0, # of connection points: 4
#     Node 2, Type 0, BuildingBlock: UXUYUI_clean_sbu_0, # of connection points: 4
#     Node 3, Type 0, BuildingBlock: UXUYUI_clean_sbu_0, # of connection points: 4
#     Node 4, Type 0, BuildingBlock: UXUYUI_clean_sbu_0, # of connection points: 4
#     Node 5, Type 0, BuildingBlock: UXUYUI_clean_sbu_0, # of connection points: 4
#     Node 6, Type 0, BuildingBlock: UXUYUI_clean_sbu_0, # of connection points: 4
#     Node 7, Type 0, BuildingBlock: UXUYUI_clean_sbu_0, # of connection points: 4
#     Node 8, Type 0, BuildingBlock: UXUYUI_clean_sbu_0, # of connection points: 4
#     Node 9, Type 0, BuildingBlock: UXUYUI_clean_sbu_0, # of connection points: 4
#     Node 10, Type 0, BuildingBlock: UXUYUI_clean_sbu_0, # of connection points: 4
#     Node 11, Type 0, BuildingBlock: UXUYUI_clean_sbu_0, # of connection points: 4
#     Node 12, Type 0, BuildingBlock: UXUYUI_clean_sbu_0, # of connection points: 4
#     Node 13, Type 0, BuildingBlock: UXUYUI_clean_sbu_0, # of connection points: 4
#     Node 14, Type 0, BuildingBlock: UXUYUI_clean_sbu_0, # of connection points: 4
#     Node 15, Type 0, BuildingBlock: UXUYUI_clean_sbu_0, # of connection points: 4
#     Edge 16, Type (0, 0), BuildingBlock: XUDNAN_clean_linker_2, # of connection points: 2
#     Edge 17, Type (0, 0), BuildingBlock: XUDNAN_clean_linker_2, # of connection points: 2
#     Edge 18, Type (0, 0), BuildingBlock: XUDNAN_clean_linker_2, # of connection points: 2
#     Edge 19, Type (0, 0), BuildingBlock: XUDNAN_clean_linker_2, # of connection points: 2
#     Edge 20, Type (0, 0), BuildingBlock: XUDNAN_clean_linker_2, # of connection points: 2
#     Edge 21, Type (0, 0), BuildingBlock: XUDNAN_clean_linker_2, # of connection points: 2
#     Edge 22, Type (0, 0), BuildingBlock: XUDNAN_clean_linker_2, # of connection points: 2
#     Edge 23, Type (0, 0), BuildingBlock: XUDNAN_clean_linker_2, # of connection points: 2
#     Edge 24, Type (0, 0), BuildingBlock: XUDNAN_clean_linker_2, # of connection points: 2
#     Edge 25, Type (0, 0), BuildingBlock: XUDNAN_clean_linker_2, # of connection points: 2
#     Edge 26, Type (0, 0), BuildingBlock: XUDNAN_clean_linker_2, # of connection points: 2
#     Edge 27, Type (0, 0), BuildingBlock: XUDNAN_clean_linker_2, # of connection points: 2
#     Edge 28, Type (0, 0), BuildingBlock: XUDNAN_clean_linker_2, # of connection points: 2
#     Edge 29, Type (0, 0), BuildingBlock: XUDNAN_clean_linker_2, # of connection points: 2
#     Edge 30, Type (0, 0), BuildingBlock: XUDNAN_clean_linker_2, # of connection points: 2
#     Edge 31, Type (0, 0), BuildingBlock: XUDNAN_clean_linker_2, # of connection points: 2
#     Edge 32, Type (0, 0), BuildingBlock: XUDNAN_clean_linker_2, # of connection points: 2
#     Edge 33, Type (0, 0), BuildingBlock: XUDNAN_clean_linker_2, # of connection points: 2
#     Edge 34, Type (0, 0), BuildingBlock: XUDNAN_clean_linker_2, # of connection points: 2
#     Edge 35, Type (0, 0), BuildingBlock: XUDNAN_clean_linker_2, # of connection points: 2
#     Edge 36, Type (0, 0), BuildingBlock: XUDNAN_clean_linker_2, # of connection points: 2
#     Edge 37, Type (0, 0), BuildingBlock: XUDNAN_clean_linker_2, # of connection points: 2
#     Edge 38, Type (0, 0), BuildingBlock: XUDNAN_clean_linker_2, # of connection points: 2
#     Edge 39, Type (0, 0), BuildingBlock: XUDNAN_clean_linker_2, # of connection points: 2
#     Edge 40, Type (0, 0), BuildingBlock: XUDNAN_clean_linker_2, # of connection points: 2
#     Edge 41, Type (0, 0), BuildingBlock: XUDNAN_clean_linker_2, # of connection points: 2
#     Edge 42, Type (0, 0), BuildingBlock: XUDNAN_clean_linker_2, # of connection points: 2
#     Edge 43, Type (0, 0), BuildingBlock: XUDNAN_clean_linker_2, # of connection points: 2
#     Edge 44, Type (0, 0), BuildingBlock: XUDNAN_clean_linker_2, # of connection points: 2
#     Edge 45, Type (0, 0), BuildingBlock: XUDNAN_clean_linker_2, # of connection points: 2
#     Edge 46, Type (0, 0), BuildingBlock: XUDNAN_clean_linker_2, # of connection points: 2
#     Edge 47, Type (0, 0), BuildingBlock: XUDNAN_clean_linker_2, # of connection points: 2
# Relax obj value: 0.120
# Max RMSD: 0.120
# Mean RMSD: 0.120
data_MOF--net-tzs--node1-UXUYUI_clean_sbu_0--edge1-XUDNAN_clean_linker_2
_symmetry_space_group_name_H-M    P1
_symmetry_Int_Tables_number       1
_symmetry_cell_setting            triclinic
loop_
_symmetry_equiv_pos_as_xyz
'x, y, z'
_cell_length_a     70.102329
_cell_length_b     70.138118
_cell_length_c     60.333687
_cell_angle_alpha  89.995379
_cell_angle_beta   90.030345
_cell_angle_gamma 89.967692
loop_
_atom_site_label
_atom_site_type_symbol
_atom_site_fract_x
_atom_site_fract_y
_atom_site_fract_z
_atom_type_partial_charge
Li0 Li 0.16227 0.34163 0.19792 0.0
Li1 Li 0.14943 0.37539 0.19466 0.0
Li2 Li 0.12829 0.34805 0.19314 0.0
Li3 Li 0.14836 0.35514 0.16194 0.0
C4 C 0.1345 0.35299 0.23613 0.0
N5 N 0.11081 0.34655 0.27189 0.0
C6 C 0.12255 0.3675 0.24382 0.0
C7 C 0.13456 0.33527 0.24671 0.0
C8 C 0.11062 0.36393 0.2619 0.0
C9 C 0.12245 0.33228 0.26476 0.0
C10 C 0.18552 0.37683 0.18059 0.0
C11 C 0.19931 0.40684 0.16951 0.0
N12 N 0.21343 0.40439 0.18472 0.0
C13 C 0.20024 0.37453 0.19599 0.0
C14 C 0.18511 0.39303 0.16712 0.0
C15 C 0.2142 0.38865 0.19786 0.0
C16 C 0.18913 0.31117 0.20006 0.0
N17 N 0.18127 0.32601 0.21133 0.0
C18 C 0.2011 0.31969 0.24272 0.0
C19 C 0.18685 0.33035 0.2323 0.0
C20 C 0.20961 0.30433 0.23149 0.0
C21 C 0.20333 0.3 0.20994 0.0
H22 H 0.18445 0.30811 0.18335 0.0
H23 H 0.18034 0.34225 0.24085 0.0
C24 C 0.13626 0.41242 0.20151 0.0
N25 N 0.15116 0.40071 0.20625 0.0
C26 C 0.13485 0.43028 0.2115 0.0
C27 C 0.1644 0.42405 0.23082 0.0
C28 C 0.16517 0.40615 0.22054 0.0
C29 C 0.14884 0.43616 0.22669 0.0
H30 H 0.12501 0.40761 0.19066 0.0
H31 H 0.17653 0.39635 0.22465 0.0
C32 C 0.13314 0.31404 0.17327 0.0
N33 N 0.11004 0.28253 0.16758 0.0
C34 C 0.11695 0.3152 0.15983 0.0
C35 C 0.13766 0.29684 0.18374 0.0
C36 C 0.10542 0.29912 0.15721 0.0
C37 C 0.12579 0.28107 0.18066 0.0
C38 C 0.11889 0.37899 0.15672 0.0
C39 C 0.10141 0.37185 0.1493 0.0
C40 C 0.12736 0.3943 0.14563 0.0
C41 C 0.09277 0.38004 0.13071 0.0
C42 C 0.11829 0.40206 0.12708 0.0
N43 N 0.10134 0.39482 0.12006 0.0
C44 C 0.09033 0.35496 0.20471 0.0
C45 C 0.09953 0.32309 0.21202 0.0
C46 C 0.07256 0.35189 0.21448 0.0
N47 N 0.10341 0.34067 0.20364 0.0
C48 C 0.08185 0.31934 0.22179 0.0
C49 C 0.06812 0.33391 0.22337 0.0
H50 H 0.09399 0.36902 0.19875 0.0
H51 H 0.11035 0.31216 0.21193 0.0
C52 C 0.16942 0.35905 0.12241 0.0
N53 N 0.15166 0.35525 0.13025 0.0
C54 C 0.17269 0.36052 0.09963 0.0
C55 C 0.13936 0.35387 0.09324 0.0
C56 C 0.13683 0.35217 0.11614 0.0
C57 C 0.15747 0.35831 0.08461 0.0
H58 H 0.1811 0.36106 0.13387 0.0
H59 H 0.12291 0.34877 0.12259 0.0
O60 O 0.1458 0.356 0.21802 0.0
O61 O 0.17164 0.36324 0.17864 0.0
O62 O 0.14461 0.32961 0.17605 0.0
O63 O 0.12763 0.37113 0.17485 0.0
H64 H 0.1223 0.38127 0.23572 0.0
H65 H 0.14367 0.32387 0.24083 0.0
H66 H 0.10118 0.37497 0.26794 0.0
H67 H 0.12222 0.3186 0.27302 0.0
H68 H 0.19912 0.41949 0.15926 0.0
H69 H 0.20084 0.36204 0.20646 0.0
H70 H 0.17395 0.39492 0.15494 0.0
H71 H 0.22563 0.38711 0.20979 0.0
H72 H 0.20537 0.3234 0.25943 0.0
H73 H 0.20964 0.2884 0.20064 0.0
H74 H 0.12266 0.43922 0.20778 0.0
H75 H 0.17534 0.42798 0.24266 0.0
H76 H 0.11318 0.32844 0.15178 0.0
H77 H 0.15012 0.29573 0.19426 0.0
H78 H 0.09277 0.29985 0.14696 0.0
H79 H 0.12907 0.26768 0.18871 0.0
H80 H 0.09468 0.35996 0.15759 0.0
H81 H 0.14078 0.4001 0.15127 0.0
H82 H 0.0793 0.37458 0.12469 0.0
H83 H 0.12473 0.41385 0.11827 0.0
H84 H 0.06271 0.36373 0.2158 0.0
H85 H 0.0791 0.30523 0.22833 0.0
H86 H 0.18704 0.36339 0.09392 0.0
H87 H 0.1271 0.35217 0.08252 0.0
Li88 Li 0.62887 0.15348 0.19204 0.0
Li89 Li 0.66205 0.16276 0.19935 0.0
Li90 Li 0.65088 0.15248 0.16128 0.0
Li91 Li 0.6548 0.12882 0.1912 0.0
C92 C 0.63012 0.18942 0.1812 0.0
N93 N 0.60261 0.21726 0.18648 0.0
C94 C 0.63149 0.20246 0.19863 0.0
C95 C 0.61487 0.19063 0.16633 0.0
C96 C 0.61742 0.21643 0.20103 0.0
C97 C 0.60107 0.20476 0.16933 0.0
C98 C 0.65136 0.14191 0.23798 0.0
C99 C 0.67369 0.12917 0.26459 0.0
N100 N 0.66267 0.136 0.28135 0.0
C101 C 0.64014 0.14859 0.25548 0.0
C102 C 0.66817 0.13194 0.24258 0.0
C103 C 0.64615 0.14555 0.27728 0.0
C104 C 0.58898 0.14906 0.18852 0.0
N105 N 0.60287 0.15784 0.20046 0.0
C106 C 0.57946 0.17235 0.22393 0.0
C107 C 0.5985 0.1693 0.21794 0.0
C108 C 0.56483 0.16366 0.21166 0.0
C109 C 0.5698 0.15187 0.19376 0.0
H110 H 0.59277 0.13979 0.17495 0.0
H111 H 0.6098 0.17619 0.22713 0.0
C112 C 0.69492 0.1856 0.20474 0.0
N113 N 0.67877 0.17959 0.21508 0.0
C114 C 0.70798 0.19724 0.21586 0.0
C115 C 0.68724 0.19685 0.24782 0.0
C116 C 0.67459 0.18525 0.23607 0.0
C117 C 0.70432 0.20284 0.23782 0.0
H118 H 0.6978 0.1811 0.18793 0.0
H119 H 0.6614 0.18081 0.24372 0.0
C120 C 0.62735 0.12393 0.15128 0.0
N121 N 0.61702 0.10747 0.11143 0.0
C122 C 0.63386 0.10569 0.1458 0.0
C123 C 0.61543 0.13372 0.13657 0.0
C124 C 0.6285 0.09762 0.12556 0.0
C125 C 0.61043 0.12518 0.11648 0.0
C126 C 0.69279 0.13839 0.17707 0.0
C127 C 0.70046 0.13135 0.15731 0.0
C128 C 0.70406 0.13864 0.1962 0.0
C129 C 0.71908 0.12426 0.15715 0.0
C130 C 0.72262 0.13144 0.19537 0.0
N131 N 0.72968 0.12442 0.17603 0.0
C132 C 0.65027 0.17433 0.12176 0.0
C133 C 0.65933 0.1421 0.11656 0.0
C134 C 0.65184 0.17783 0.09903 0.0
N135 N 0.6539 0.15667 0.13005 0.0
C136 C 0.66101 0.14494 0.09372 0.0
C137 C 0.65724 0.163 0.08465 0.0
H138 H 0.64606 0.18571 0.13281 0.0
H139 H 0.66221 0.1282 0.12351 0.0
C140 C 0.64925 0.09457 0.21405 0.0
N141 N 0.66046 0.10287 0.1984 0.0
C142 C 0.65188 0.07545 0.21977 0.0
C143 C 0.6775 0.07368 0.19307 0.0
C144 C 0.67438 0.09285 0.18789 0.0
C145 C 0.6661 0.06469 0.20913 0.0
H146 H 0.63808 0.10278 0.22191 0.0
H147 H 0.68283 0.09956 0.17517 0.0
O148 O 0.64353 0.17539 0.17886 0.0
O149 O 0.64567 0.14482 0.21652 0.0
O150 O 0.63259 0.13212 0.17095 0.0
O151 O 0.67458 0.14547 0.17746 0.0
H152 H 0.6432 0.20173 0.21027 0.0
H153 H 0.6136 0.18063 0.15276 0.0
H154 H 0.61824 0.22656 0.21451 0.0
H155 H 0.58911 0.20578 0.15805 0.0
H156 H 0.68669 0.1215 0.26835 0.0
H157 H 0.62697 0.15612 0.25229 0.0
H158 H 0.67674 0.12615 0.22934 0.0
H159 H 0.63766 0.15077 0.29097 0.0
H160 H 0.5762 0.18164 0.23777 0.0
H161 H 0.55897 0.14466 0.18408 0.0
H162 H 0.72099 0.20142 0.20752 0.0
H163 H 0.68362 0.20117 0.26453 0.0
H164 H 0.643 0.09785 0.157 0.0
H165 H 0.6103 0.14786 0.1405 0.0
H166 H 0.63349 0.08355 0.12107 0.0
H167 H 0.60135 0.13267 0.10487 0.0
H168 H 0.69211 0.13126 0.14227 0.0
H169 H 0.69867 0.14456 0.21149 0.0
H170 H 0.72512 0.11864 0.14199 0.0
H171 H 0.73145 0.13152 0.21008 0.0
H172 H 0.64861 0.19193 0.09276 0.0
H173 H 0.66544 0.13315 0.08333 0.0
H174 H 0.64253 0.06906 0.23195 0.0
H175 H 0.68869 0.06598 0.18453 0.0
Li176 Li 0.84115 0.66122 0.19881 0.0
Li177 Li 0.85118 0.62794 0.19453 0.0
Li178 Li 0.8755 0.65424 0.19309 0.0
Li179 Li 0.85328 0.64832 0.162 0.0
C180 C 0.85979 0.65376 0.2389 0.0
N181 N 0.8619 0.66911 0.28101 0.0
C182 C 0.85177 0.64409 0.25687 0.0
C183 C 0.86911 0.6711 0.2424 0.0
C184 C 0.85291 0.65212 0.27802 0.0
C185 C 0.86998 0.67866 0.2638 0.0
C186 C 0.81603 0.62773 0.17875 0.0
C187 C 0.80327 0.59834 0.16425 0.0
N188 N 0.78859 0.59947 0.17892 0.0
C189 C 0.80072 0.62871 0.19353 0.0
C190 C 0.81724 0.61252 0.16385 0.0
C191 C 0.78702 0.61425 0.19341 0.0
C192 C 0.81953 0.69534 0.20521 0.0
N193 N 0.82327 0.67763 0.21329 0.0
C194 C 0.8017 0.68265 0.24341 0.0
C195 C 0.81443 0.67105 0.23181 0.0
C196 C 0.79796 0.70127 0.23592 0.0
C197 C 0.80696 0.7075 0.21638 0.0
H198 H 0.82643 0.70011 0.19018 0.0
H199 H 0.81723 0.65673 0.23755 0.0
C200 C 0.85643 0.58774 0.19676 0.0
N201 N 0.84632 0.6027 0.20497 0.0
C202 C 0.85276 0.56921 0.20413 0.0
C203 C 0.8285 0.58185 0.2285 0.0
C204 C 0.8327 0.60012 0.22071 0.0
C205 C 0.83856 0.56606 0.22016 0.0
H206 H 0.86736 0.59017 0.18447 0.0
H207 H 0.82503 0.61229 0.22716 0.0
C208 C 0.86686 0.69054 0.17336 0.0
N209 N 0.8827 0.72604 0.16585 0.0
C210 C 0.87436 0.69507 0.15255 0.0
C211 C 0.86721 0.70417 0.19027 0.0
C212 C 0.88236 0.71306 0.1491 0.0
C213 C 0.87534 0.722 0.18617 0.0
C214 C 0.88334 0.62384 0.15684 0.0
C215 C 0.90166 0.63066 0.15227 0.0
C216 C 0.87543 0.60965 0.14341 0.0
C217 C 0.91168 0.6233 0.13417 0.0
C218 C 0.88588 0.60269 0.12544 0.0
N219 N 0.90364 0.60961 0.12123 0.0
C220 C 0.90935 0.64894 0.21683 0.0
C221 C 0.91102 0.6751 0.19211 0.0
C222 C 0.92833 0.65169 0.22317 0.0
N223 N 0.90112 0.66052 0.20148 0.0
C224 C 0.92997 0.67847 0.19809 0.0
C225 C 0.93899 0.66655 0.21363 0.0
H226 H 0.90122 0.63731 0.22386 0.0
H227 H 0.90446 0.68395 0.17968 0.0
C228 C 0.83196 0.64769 0.12237 0.0
N229 N 0.85001 0.64914 0.1304 0.0
C230 C 0.82869 0.64695 0.09955 0.0
C231 C 0.86264 0.64964 0.09354 0.0
C232 C 0.86521 0.65057 0.11649 0.0
C233 C 0.84418 0.64755 0.08473 0.0
H234 H 0.82006 0.64693 0.13372 0.0
H235 H 0.87941 0.65215 0.12317 0.0
O236 O 0.85866 0.64616 0.21806 0.0
O237 O 0.82982 0.64152 0.17894 0.0
O238 O 0.85897 0.67297 0.17698 0.0
O239 O 0.87331 0.63091 0.17447 0.0
H240 H 0.84463 0.63057 0.25449 0.0
H241 H 0.87572 0.67859 0.22879 0.0
H242 H 0.84665 0.64485 0.29205 0.0
H243 H 0.87711 0.6921 0.26672 0.0
H244 H 0.8041 0.58642 0.15291 0.0
H245 H 0.7995 0.64043 0.20508 0.0
H246 H 0.82889 0.61165 0.15217 0.0
H247 H 0.77516 0.61476 0.20486 0.0
H248 H 0.79477 0.677 0.25804 0.0
H249 H 0.80463 0.72174 0.20999 0.0
H250 H 0.86077 0.55746 0.19714 0.0
H251 H 0.81767 0.58015 0.24113 0.0
H252 H 0.87411 0.68478 0.13924 0.0
H253 H 0.86116 0.70109 0.20634 0.0
H254 H 0.88831 0.71671 0.13312 0.0
H255 H 0.87574 0.73266 0.19912 0.0
H256 H 0.90806 0.64157 0.16249 0.0
H257 H 0.86133 0.60414 0.14674 0.0
H258 H 0.92583 0.6285 0.1304 0.0
H259 H 0.87988 0.5918 0.11485 0.0
H260 H 0.93471 0.64193 0.23494 0.0
H261 H 0.93748 0.69025 0.19047 0.0
H262 H 0.81415 0.64586 0.09363 0.0
H263 H 0.87506 0.65004 0.08292 0.0
Li264 Li 0.37649 0.84945 0.19641 0.0
Li265 Li 0.34396 0.84023 0.19649 0.0
Li266 Li 0.35854 0.85157 0.1617 0.0
Li267 Li 0.35173 0.8743 0.19465 0.0
C268 C 0.37558 0.81297 0.17741 0.0
N269 N 0.39787 0.78062 0.17412 0.0
C270 C 0.37588 0.7997 0.19468 0.0
C271 C 0.38636 0.80966 0.15831 0.0
C272 C 0.38732 0.78347 0.19274 0.0
C273 C 0.39761 0.79325 0.15701 0.0
C274 C 0.35381 0.85082 0.23976 0.0
C275 C 0.33915 0.85605 0.27537 0.0
N276 N 0.34702 0.83953 0.28287 0.0
C277 C 0.36188 0.83399 0.24784 0.0
C278 C 0.34246 0.86204 0.25363 0.0
C279 C 0.35822 0.82848 0.26968 0.0
C280 C 0.40376 0.8549 0.22915 0.0
N281 N 0.40098 0.84511 0.20999 0.0
C282 C 0.43197 0.83096 0.21309 0.0
C283 C 0.4148 0.83353 0.20162 0.0
C284 C 0.43493 0.84045 0.23332 0.0
C285 C 0.42062 0.85275 0.24114 0.0
H286 H 0.39282 0.86446 0.23516 0.0
H287 H 0.41263 0.82632 0.18605 0.0
C288 C 0.32434 0.80597 0.19294 0.0
N289 N 0.32626 0.82121 0.20666 0.0
C290 C 0.31266 0.79069 0.19882 0.0
C291 C 0.30475 0.80713 0.23275 0.0
C292 C 0.31642 0.82225 0.22605 0.0
C293 C 0.30293 0.7909 0.2192 0.0
H294 H 0.332 0.80565 0.17739 0.0
H295 H 0.31769 0.83468 0.23646 0.0
C296 C 0.39417 0.8754 0.17394 0.0
N297 N 0.43302 0.88185 0.17263 0.0
C298 C 0.40233 0.88937 0.18745 0.0
C299 C 0.40574 0.86476 0.1597 0.0
C300 C 0.42202 0.8924 0.18656 0.0
C301 C 0.42536 0.86823 0.15928 0.0
C302 C 0.3146 0.85595 0.17816 0.0
C303 C 0.30506 0.84416 0.16314 0.0
C304 C 0.30494 0.86304 0.19667 0.0
C305 C 0.28595 0.83959 0.16695 0.0
C306 C 0.28583 0.85815 0.19988 0.0
N307 N 0.27681 0.84661 0.18509 0.0
C308 C 0.34923 0.83342 0.1219 0.0
C309 C 0.36796 0.86122 0.11704 0.0
C310 C 0.3489 0.83026 0.09906 0.0
N311 N 0.35866 0.84868 0.13038 0.0
C312 C 0.36818 0.85849 0.09407 0.0
C313 C 0.35859 0.84279 0.08474 0.0
H314 H 0.342 0.82367 0.13295 0.0
H315 H 0.37535 0.87324 0.12425 0.0
C316 C 0.35618 0.90822 0.21883 0.0
N317 N 0.34541 0.89965 0.20298 0.0
C318 C 0.35298 0.92729 0.22443 0.0
C319 C 0.32712 0.92808 0.19794 0.0
C320 C 0.33098 0.90906 0.19266 0.0
C321 C 0.33839 0.9376 0.21378 0.0
H322 H 0.36755 0.90034 0.22678 0.0
H323 H 0.32262 0.90186 0.18014 0.0
O324 O 0.36434 0.82884 0.17887 0.0
O325 O 0.35722 0.85652 0.21847 0.0
O326 O 0.37505 0.87174 0.17511 0.0
O327 O 0.33349 0.86004 0.1752 0.0
H328 H 0.36728 0.80184 0.20934 0.0
H329 H 0.38614 0.81972 0.14471 0.0
H330 H 0.38775 0.7731 0.20601 0.0
H331 H 0.40613 0.79056 0.14239 0.0
H332 H 0.33032 0.86453 0.28628 0.0
H333 H 0.37093 0.82532 0.2374 0.0
H334 H 0.3362 0.87517 0.2476 0.0
H335 H 0.36433 0.81545 0.27616 0.0
H336 H 0.44265 0.8214 0.2064 0.0
H337 H 0.42247 0.86076 0.25633 0.0
H338 H 0.31133 0.77882 0.18746 0.0
H339 H 0.29761 0.80802 0.24863 0.0
H340 H 0.3936 0.89767 0.19863 0.0
H341 H 0.39967 0.85373 0.14933 0.0
H342 H 0.42855 0.9031 0.19701 0.0
H343 H 0.4345 0.86002 0.14844 0.0
H344 H 0.31237 0.83849 0.1488 0.0
H345 H 0.31222 0.87198 0.20859 0.0
H346 H 0.27839 0.83042 0.15553 0.0
H347 H 0.2782 0.86343 0.2142 0.0
H348 H 0.34099 0.81818 0.09273 0.0
H349 H 0.37606 0.8684 0.08382 0.0
H350 H 0.36224 0.93398 0.2365 0.0
H351 H 0.31549 0.93526 0.18957 0.0
Li352 Li 0.12792 0.65591 0.31017 0.0
Li353 Li 0.14534 0.65226 0.34465 0.0
Li354 Li 0.16127 0.66139 0.30975 0.0
Li355 Li 0.14967 0.62874 0.31351 0.0
C356 C 0.12925 0.69054 0.32754 0.0
N357 N 0.10318 0.7201 0.32866 0.0
C358 C 0.12064 0.69576 0.34754 0.0
C359 C 0.12466 0.70043 0.30813 0.0
C360 C 0.10748 0.71073 0.34775 0.0
C361 C 0.11143 0.71531 0.30903 0.0
C362 C 0.10758 0.63309 0.33678 0.0
C363 C 0.07662 0.61903 0.33063 0.0
N364 N 0.069 0.63104 0.34595 0.0
C365 C 0.09943 0.64527 0.35248 0.0
C366 C 0.0961 0.61981 0.32581 0.0
C367 C 0.07991 0.64401 0.35689 0.0
C368 C 0.10191 0.65542 0.27527 0.0
N369 N 0.10375 0.6618 0.29643 0.0
C370 C 0.07167 0.67359 0.29591 0.0
C371 C 0.089 0.67067 0.30691 0.0
C372 C 0.06951 0.66734 0.27393 0.0
C373 C 0.08493 0.65812 0.26365 0.0
H374 H 0.11357 0.64797 0.26741 0.0
H375 H 0.0906 0.67546 0.32381 0.0
C376 C 0.15651 0.67031 0.38397 0.0
N377 N 0.1462 0.65538 0.37609 0.0
C378 C 0.1578 0.67358 0.40675 0.0
C379 C 0.13812 0.64582 0.41297 0.0
C380 C 0.13726 0.64306 0.39003 0.0
C381 C 0.14841 0.66134 0.42163 0.0
H382 H 0.1637 0.67972 0.37248 0.0
H383 H 0.12936 0.63113 0.38335 0.0
C384 C 0.15688 0.64905 0.26981 0.0
N385 N 0.1794 0.65586 0.23312 0.0
C386 C 0.17237 0.63716 0.26518 0.0
C387 C 0.15276 0.66434 0.25575 0.0
C388 C 0.1836 0.64085 0.24655 0.0
C389 C 0.16434 0.66756 0.23729 0.0
C390 C 0.17787 0.62928 0.34641 0.0
C391 C 0.19735 0.63036 0.35119 0.0
C392 C 0.16659 0.61574 0.35724 0.0
C393 C 0.20525 0.61779 0.36664 0.0
C394 C 0.17502 0.60344 0.37259 0.0
N395 N 0.19402 0.6047 0.37693 0.0
C396 C 0.17794 0.69376 0.28881 0.0
C397 C 0.19951 0.66883 0.29737 0.0
C398 C 0.19256 0.70442 0.27915 0.0
N399 N 0.18161 0.67627 0.29753 0.0
C400 C 0.21461 0.67908 0.28808 0.0
C401 C 0.21125 0.69713 0.27865 0.0
H402 H 0.16361 0.69934 0.28902 0.0
H403 H 0.20202 0.65485 0.30434 0.0
C404 C 0.13704 0.5973 0.29152 0.0
N405 N 0.15193 0.60275 0.30443 0.0
C406 C 0.13537 0.57848 0.28447 0.0
C407 C 0.16516 0.57128 0.30283 0.0
C408 C 0.1662 0.59036 0.30971 0.0
C409 C 0.14932 0.56509 0.29049 0.0
H410 H 0.12631 0.60764 0.2869 0.0
H411 H 0.17823 0.59512 0.31943 0.0
O412 O 0.14229 0.67603 0.32707 0.0
O413 O 0.12664 0.63428 0.33205 0.0
O414 O 0.14612 0.64606 0.28837 0.0
O415 O 0.16993 0.64175 0.33159 0.0
H416 H 0.12404 0.68833 0.36274 0.0
H417 H 0.13089 0.69637 0.29243 0.0
H418 H 0.10068 0.71488 0.3631 0.0
H419 H 0.10763 0.72296 0.2941 0.0
H420 H 0.06757 0.60886 0.3222 0.0
H421 H 0.10799 0.65583 0.3609 0.0
H422 H 0.1021 0.6102 0.31368 0.0
H423 H 0.07342 0.65344 0.36891 0.0
H424 H 0.06015 0.68081 0.30444 0.0
H425 H 0.08377 0.65269 0.2469 0.0
H426 H 0.16622 0.6855 0.41263 0.0
H427 H 0.13053 0.63609 0.42374 0.0
H428 H 0.17583 0.62536 0.27602 0.0
H429 H 0.14089 0.67376 0.25922 0.0
H430 H 0.1957 0.63184 0.24282 0.0
H431 H 0.1614 0.67941 0.22633 0.0
H432 H 0.20627 0.64085 0.34309 0.0
H433 H 0.15151 0.61463 0.35378 0.0
H434 H 0.22031 0.61846 0.37048 0.0
H435 H 0.16646 0.59287 0.38105 0.0
H436 H 0.18914 0.71808 0.27179 0.0
H437 H 0.22878 0.67294 0.28843 0.0
H438 H 0.12318 0.5744 0.2745 0.0
H439 H 0.17629 0.5614 0.30765 0.0
Li440 Li 0.35182 0.12762 0.30438 0.0
Li441 Li 0.35817 0.14472 0.34156 0.0
Li442 Li 0.34369 0.16129 0.30991 0.0
Li443 Li 0.37618 0.15208 0.30819 0.0
C444 C 0.31434 0.14223 0.32381 0.0
N445 N 0.27629 0.15114 0.3179 0.0
C446 C 0.3048 0.15339 0.33947 0.0
C447 C 0.30454 0.13554 0.3052 0.0
C448 C 0.28556 0.15776 0.33616 0.0
C449 C 0.2853 0.1402 0.30251 0.0
C450 C 0.39311 0.12088 0.32154 0.0
C451 C 0.42613 0.12107 0.33279 0.0
N452 N 0.43049 0.10952 0.3154 0.0
C453 C 0.39789 0.1089 0.30388 0.0
C454 C 0.40731 0.12691 0.33622 0.0
C455 C 0.41687 0.10335 0.30103 0.0
C456 C 0.35124 0.10201 0.26893 0.0
N457 N 0.34569 0.10415 0.29035 0.0
C458 C 0.33318 0.07244 0.291 0.0
C459 C 0.33677 0.08987 0.3015 0.0
C460 C 0.33882 0.06976 0.26884 0.0
C461 C 0.34793 0.08488 0.25781 0.0
H462 H 0.3586 0.11351 0.26062 0.0
H463 H 0.33258 0.09199 0.31858 0.0
C464 C 0.34757 0.15329 0.38595 0.0
N465 N 0.35806 0.14142 0.37295 0.0
C466 C 0.34697 0.15059 0.40892 0.0
C467 C 0.36846 0.12389 0.4047 0.0
C468 C 0.36846 0.12698 0.38183 0.0
C469 C 0.35742 0.13562 0.41864 0.0
H470 H 0.33955 0.16477 0.37844 0.0
H471 H 0.37674 0.11779 0.37113 0.0
C472 C 0.35817 0.16199 0.26744 0.0
N473 N 0.36081 0.18791 0.23309 0.0
C474 C 0.36598 0.18003 0.27112 0.0
C475 C 0.35169 0.15712 0.24628 0.0
C476 C 0.3672 0.19294 0.25355 0.0
C477 C 0.35315 0.17042 0.22913 0.0
C478 C 0.37663 0.18293 0.33873 0.0
C479 C 0.3774 0.20159 0.33063 0.0
C480 C 0.38818 0.17769 0.35663 0.0
C481 C 0.39005 0.21458 0.34025 0.0
C482 C 0.40061 0.1911 0.36582 0.0
N483 N 0.4013 0.2091 0.35748 0.0
C484 C 0.3237 0.19572 0.31643 0.0
C485 C 0.31575 0.17995 0.28297 0.0
C486 C 0.31166 0.21092 0.31105 0.0
N487 N 0.32569 0.18078 0.3023 0.0
C488 C 0.30369 0.19493 0.27681 0.0
C489 C 0.30168 0.21085 0.29079 0.0
H490 H 0.33162 0.19592 0.33181 0.0
H491 H 0.31742 0.1678 0.27212 0.0
C492 C 0.4037 0.1494 0.27544 0.0
N493 N 0.40093 0.15764 0.29559 0.0
C494 C 0.4207 0.15212 0.26393 0.0
C495 C 0.43225 0.17129 0.29434 0.0
C496 C 0.41487 0.1683 0.30526 0.0
C497 C 0.43521 0.16332 0.27325 0.0
H498 H 0.39266 0.14057 0.2683 0.0
H499 H 0.41266 0.17445 0.32141 0.0
O500 O 0.33332 0.13833 0.32632 0.0
O501 O 0.3747 0.12695 0.32416 0.0
O502 O 0.35665 0.14917 0.28446 0.0
O503 O 0.3641 0.17014 0.32972 0.0
H504 H 0.31222 0.15879 0.35387 0.0
H505 H 0.31178 0.12703 0.29282 0.0
H506 H 0.27801 0.16647 0.34808 0.0
H507 H 0.27756 0.1352 0.28813 0.0
H508 H 0.43728 0.12574 0.34393 0.0
H509 H 0.3871 0.10412 0.29235 0.0
H510 H 0.40388 0.13615 0.34999 0.0
H511 H 0.42079 0.0942 0.28733 0.0
H512 H 0.32599 0.06123 0.30008 0.0
H513 H 0.35287 0.08337 0.2409 0.0
H514 H 0.3381 0.1599 0.41884 0.0
H515 H 0.37711 0.11245 0.41135 0.0
H516 H 0.3711 0.18399 0.28735 0.0
H517 H 0.34548 0.14325 0.24317 0.0
H518 H 0.37324 0.20695 0.25619 0.0
H519 H 0.34815 0.16686 0.21267 0.0
H520 H 0.36826 0.20606 0.31714 0.0
H521 H 0.38766 0.16343 0.36331 0.0
H522 H 0.39085 0.22903 0.33407 0.0
H523 H 0.40971 0.18719 0.37958 0.0
H524 H 0.31028 0.22262 0.32263 0.0
H525 H 0.29647 0.19423 0.26097 0.0
H526 H 0.42254 0.14533 0.24795 0.0
H527 H 0.44311 0.17999 0.30213 0.0
Li528 Li 0.87676 0.35245 0.31037 0.0
Li529 Li 0.85766 0.35892 0.34471 0.0
Li530 Li 0.84374 0.3417 0.31222 0.0
Li531 Li 0.85107 0.37524 0.31001 0.0
C532 C 0.87058 0.31541 0.32694 0.0
N533 N 0.88091 0.27832 0.31723 0.0
C534 C 0.87325 0.30222 0.34401 0.0
C535 C 0.87315 0.30975 0.30493 0.0
C536 C 0.87848 0.28353 0.33877 0.0
C537 C 0.87837 0.29094 0.30036 0.0
C538 C 0.88077 0.39435 0.3241 0.0
C539 C 0.87837 0.42815 0.33093 0.0
N540 N 0.89145 0.43139 0.31472 0.0
C541 C 0.89426 0.398 0.30759 0.0
C542 C 0.87283 0.40952 0.33597 0.0
C543 C 0.89946 0.41683 0.30308 0.0
C544 C 0.90564 0.34384 0.27873 0.0
N545 N 0.90185 0.34647 0.3006 0.0
C546 C 0.93453 0.34108 0.30994 0.0
C547 C 0.91579 0.34517 0.31617 0.0
C548 C 0.93898 0.33827 0.28745 0.0
C549 C 0.9242 0.33968 0.27175 0.0
H550 H 0.89426 0.34494 0.26673 0.0
H551 H 0.91232 0.34744 0.33344 0.0
C552 C 0.84712 0.34899 0.38869 0.0
N553 N 0.85826 0.36067 0.37619 0.0
C554 C 0.84643 0.35124 0.41172 0.0
C555 C 0.8688 0.37731 0.40848 0.0
C556 C 0.86924 0.37442 0.38561 0.0
C557 C 0.85712 0.36579 0.42182 0.0
H558 H 0.83848 0.33822 0.38069 0.0
H559 H 0.87804 0.38342 0.37528 0.0
C560 C 0.84429 0.35683 0.2699 0.0
N561 N 0.81909 0.35979 0.23481 0.0
C562 C 0.82531 0.36204 0.27364 0.0
C563 C 0.85045 0.35316 0.24829 0.0
C564 C 0.8128 0.36346 0.2557 0.0
C565 C 0.83749 0.35472 0.23078 0.0
C566 C 0.8177 0.37152 0.33981 0.0
C567 C 0.79911 0.36739 0.33294 0.0
C568 C 0.82067 0.38462 0.35693 0.0
C569 C 0.78379 0.37657 0.3432 0.0
C570 C 0.80497 0.39349 0.36679 0.0
N571 N 0.78701 0.38932 0.35977 0.0
C572 C 0.81288 0.31733 0.32031 0.0
C573 C 0.82686 0.31274 0.28497 0.0
C574 C 0.79946 0.30308 0.31608 0.0
N575 N 0.82615 0.32192 0.30481 0.0
C576 C 0.81371 0.29837 0.28003 0.0
C577 C 0.79975 0.29334 0.29571 0.0
H578 H 0.81271 0.32481 0.33599 0.0
H579 H 0.83769 0.31649 0.27299 0.0
C580 C 0.85353 0.40489 0.27863 0.0
N581 N 0.8438 0.39937 0.29705 0.0
C582 C 0.85009 0.42268 0.26897 0.0
C583 C 0.82627 0.42865 0.29702 0.0
C584 C 0.83026 0.41082 0.3062 0.0
C585 C 0.83633 0.43486 0.27824 0.0
H586 H 0.86425 0.39556 0.27164 0.0
H587 H 0.82273 0.40639 0.32082 0.0
O588 O 0.86536 0.33371 0.33183 0.0
O589 O 0.87509 0.37605 0.3283 0.0
O590 O 0.85687 0.35527 0.28719 0.0
O591 O 0.83283 0.36234 0.33021 0.0
H592 H 0.87127 0.30639 0.36114 0.0
H593 H 0.87107 0.31974 0.29149 0.0
H594 H 0.88059 0.27316 0.35181 0.0
H595 H 0.88039 0.28636 0.2834 0.0
H596 H 0.87222 0.44003 0.33984 0.0
H597 H 0.90048 0.38644 0.29817 0.0
H598 H 0.86228 0.40696 0.3487 0.0
H599 H 0.9098 0.41988 0.29026 0.0
H600 H 0.94547 0.34045 0.3226 0.0
H601 H 0.92689 0.33741 0.25427 0.0
H602 H 0.83715 0.34215 0.42143 0.0
H603 H 0.87743 0.38853 0.41567 0.0
H604 H 0.82027 0.36501 0.29016 0.0
H605 H 0.86507 0.3491 0.24506 0.0
H606 H 0.79808 0.36748 0.25838 0.0
H607 H 0.84207 0.35189 0.21397 0.0
H608 H 0.79653 0.35719 0.31982 0.0
H609 H 0.83492 0.38815 0.36235 0.0
H610 H 0.76933 0.37353 0.33801 0.0
H611 H 0.80707 0.40372 0.37997 0.0
H612 H 0.78884 0.29988 0.32856 0.0
H613 H 0.81466 0.29108 0.26425 0.0
H614 H 0.85806 0.42681 0.25438 0.0
H615 H 0.81571 0.43767 0.30489 0.0
Li616 Li 0.65368 0.87753 0.30779 0.0
Li617 Li 0.64877 0.86191 0.34402 0.0
Li618 Li 0.66137 0.84316 0.31138 0.0
Li619 Li 0.62788 0.8533 0.31367 0.0
C620 C 0.69062 0.87364 0.32606 0.0
N621 N 0.72625 0.89041 0.32368 0.0
C622 C 0.6966 0.88628 0.34257 0.0
C623 C 0.70294 0.86925 0.30858 0.0
C624 C 0.71461 0.89469 0.341 0.0
C625 C 0.72084 0.87794 0.3076 0.0
C626 C 0.62444 0.89122 0.34323 0.0
C627 C 0.60622 0.89751 0.37637 0.0
N628 N 0.61178 0.91607 0.37562 0.0
C629 C 0.62986 0.91039 0.34272 0.0
C630 C 0.6124 0.88475 0.36012 0.0
C631 C 0.62334 0.92272 0.35926 0.0
C632 C 0.65046 0.90331 0.27273 0.0
N633 N 0.65936 0.90079 0.29254 0.0
C634 C 0.67399 0.93151 0.28961 0.0
C635 C 0.67088 0.91451 0.30118 0.0
C636 C 0.66522 0.93432 0.26892 0.0
C637 C 0.65334 0.91994 0.2605 0.0
H638 H 0.64097 0.89242 0.26648 0.0
H639 H 0.67734 0.91249 0.31724 0.0
C640 C 0.64667 0.84994 0.38887 0.0
N641 N 0.65039 0.86515 0.37556 0.0
C642 C 0.64607 0.85215 0.41189 0.0
C643 C 0.65364 0.8855 0.40713 0.0
C644 C 0.65427 0.88261 0.38425 0.0
C645 C 0.64923 0.87021 0.42126 0.0
H646 H 0.64376 0.83617 0.38159 0.0
H647 H 0.65726 0.89447 0.37337 0.0
C648 C 0.6526 0.8523 0.26735 0.0
N649 N 0.66656 0.84502 0.22534 0.0
C650 C 0.64255 0.84039 0.2529 0.0
C651 C 0.66958 0.86075 0.26027 0.0
C652 C 0.64989 0.83681 0.23178 0.0
C653 C 0.67645 0.85684 0.23902 0.0
C654 C 0.62873 0.82143 0.33552 0.0
C655 C 0.63051 0.80508 0.32245 0.0
C656 C 0.61314 0.82331 0.34979 0.0
C657 C 0.61654 0.79093 0.32373 0.0
C658 C 0.59945 0.80886 0.35056 0.0
N659 N 0.60141 0.79311 0.33761 0.0
C660 C 0.69464 0.82163 0.31651 0.0
C661 C 0.6762 0.81168 0.28573 0.0
C662 C 0.70832 0.80768 0.31209 0.0
N663 N 0.67905 0.8235 0.3033 0.0
C664 C 0.6895 0.79743 0.28074 0.0
C665 C 0.70584 0.79525 0.29404 0.0
H666 H 0.69647 0.83105 0.33055 0.0
H667 H 0.66346 0.81305 0.2758 0.0
C668 C 0.5882 0.85879 0.31432 0.0
N669 N 0.602 0.84724 0.30598 0.0
C670 C 0.56904 0.8554 0.30956 0.0
C671 C 0.57851 0.82858 0.28698 0.0
C672 C 0.59755 0.8323 0.29253 0.0
C673 C 0.56402 0.84018 0.2957 0.0
H674 H 0.59202 0.87078 0.32455 0.0
H675 H 0.60875 0.82323 0.28618 0.0
O676 O 0.67303 0.86521 0.32741 0.0
O677 O 0.63084 0.8789 0.32727 0.0
O678 O 0.64563 0.8559 0.28814 0.0
O679 O 0.64203 0.83564 0.33412 0.0
H680 H 0.68742 0.88966 0.35638 0.0
H681 H 0.69888 0.85905 0.29603 0.0
H682 H 0.71934 0.90462 0.35358 0.0
H683 H 0.73048 0.8747 0.29411 0.0
H684 H 0.59705 0.89264 0.38963 0.0
H685 H 0.63901 0.91571 0.32971 0.0
H686 H 0.6081 0.86996 0.36085 0.0
H687 H 0.62749 0.93757 0.35909 0.0
H688 H 0.68321 0.94229 0.2967 0.0
H689 H 0.646 0.9217 0.24483 0.0
H690 H 0.64252 0.84001 0.42219 0.0
H691 H 0.65639 0.89961 0.41368 0.0
H692 H 0.62929 0.83388 0.25795 0.0
H693 H 0.67726 0.87044 0.27092 0.0
H694 H 0.64231 0.82751 0.2205 0.0
H695 H 0.6896 0.86327 0.23337 0.0
H696 H 0.64246 0.80341 0.31131 0.0
H697 H 0.61154 0.83587 0.36002 0.0
H698 H 0.61769 0.77824 0.31363 0.0
H699 H 0.58724 0.81019 0.36141 0.0
H700 H 0.72077 0.80676 0.32266 0.0
H701 H 0.68679 0.78797 0.26691 0.0
H702 H 0.55827 0.86481 0.31635 0.0
H703 H 0.57512 0.81666 0.27627 0.0
Li704 Li 0.84914 0.62974 0.81066 0.0
Li705 Li 0.85438 0.64905 0.84402 0.0
Li706 Li 0.84215 0.66442 0.80875 0.0
Li707 Li 0.87576 0.65422 0.8124 0.0
C708 C 0.81208 0.63693 0.82599 0.0
N709 N 0.77607 0.62126 0.82215 0.0
C710 C 0.80381 0.62748 0.84398 0.0
C711 C 0.8019 0.63868 0.80618 0.0
C712 C 0.78563 0.61957 0.84167 0.0
C713 C 0.78375 0.6306 0.80453 0.0
C714 C 0.88142 0.62082 0.84628 0.0
C715 C 0.90633 0.61891 0.87377 0.0
N716 N 0.89996 0.60134 0.87977 0.0
C717 C 0.87528 0.60264 0.8525 0.0
C718 C 0.8972 0.62895 0.8568 0.0
C719 C 0.88477 0.59307 0.86956 0.0
C720 C 0.85029 0.59888 0.78067 0.0
N721 N 0.84275 0.60489 0.80021 0.0
C722 C 0.82785 0.5746 0.80577 0.0
C723 C 0.83183 0.59314 0.81285 0.0
C724 C 0.83538 0.56801 0.7856 0.0
C725 C 0.84672 0.58045 0.77296 0.0
H726 H 0.85929 0.60836 0.77116 0.0
H727 H 0.82661 0.59796 0.82872 0.0
C728 C 0.85459 0.6638 0.8884 0.0
N729 N 0.85199 0.64808 0.87555 0.0
C730 C 0.85193 0.66277 0.91137 0.0
C731 C 0.8441 0.62941 0.90738 0.0
C732 C 0.84678 0.63113 0.88457 0.0
C733 C 0.84647 0.6454 0.92116 0.0
H734 H 0.85837 0.67723 0.8808 0.0
H735 H 0.84441 0.61895 0.87396 0.0
C736 C 0.85359 0.65097 0.7661 0.0
N737 N 0.84576 0.65574 0.72153 0.0
C738 C 0.86585 0.66169 0.75275 0.0
C739 C 0.83753 0.64238 0.75666 0.0
C740 C 0.86159 0.66403 0.7303 0.0
C741 C 0.83377 0.64503 0.73413 0.0
C742 C 0.87372 0.68867 0.83443 0.0
C743 C 0.87106 0.70614 0.82372 0.0
C744 C 0.88865 0.68655 0.84957 0.0
C745 C 0.88365 0.72113 0.82806 0.0
C746 C 0.90094 0.70186 0.85346 0.0
N747 N 0.89821 0.71869 0.84269 0.0
C748 C 0.80869 0.68762 0.8047 0.0
C749 C 0.83341 0.6942 0.7791 0.0
C750 C 0.79746 0.70221 0.7957 0.0
N751 N 0.82627 0.68384 0.79621 0.0
C752 C 0.82268 0.7088 0.76954 0.0
C753 C 0.80446 0.7131 0.77789 0.0
H754 H 0.80348 0.67946 0.81865 0.0
H755 H 0.84763 0.69138 0.77311 0.0
C756 C 0.91381 0.64483 0.80156 0.0
N757 N 0.901 0.65938 0.80215 0.0
C758 C 0.93171 0.64744 0.79179 0.0
C759 C 0.92306 0.6801 0.78393 0.0
C760 C 0.9053 0.6768 0.79366 0.0
C761 C 0.93645 0.66521 0.78248 0.0
H762 H 0.90988 0.63098 0.80797 0.0
H763 H 0.89471 0.68797 0.79366 0.0
O764 O 0.82992 0.64468 0.82794 0.0
O765 O 0.87222 0.63046 0.82971 0.0
O766 O 0.8576 0.6485 0.78812 0.0
O767 O 0.8616 0.67381 0.83027 0.0
H768 H 0.81139 0.62616 0.85952 0.0
H769 H 0.80785 0.64638 0.79232 0.0
H770 H 0.77912 0.6121 0.8554 0.0
H771 H 0.77574 0.63182 0.78927 0.0
H772 H 0.91852 0.62507 0.88212 0.0
H773 H 0.8632 0.59607 0.84438 0.0
H774 H 0.90244 0.64279 0.85182 0.0
H775 H 0.88007 0.57905 0.87467 0.0
H776 H 0.81939 0.56538 0.81628 0.0
H777 H 0.85274 0.576 0.75727 0.0
H778 H 0.85364 0.67555 0.92123 0.0
H779 H 0.84018 0.61565 0.91411 0.0
H780 H 0.87845 0.66827 0.7597 0.0
H781 H 0.82821 0.63354 0.76653 0.0
H782 H 0.87088 0.67242 0.71983 0.0
H783 H 0.82137 0.63849 0.72664 0.0
H784 H 0.85947 0.70809 0.81211 0.0
H785 H 0.89068 0.67325 0.85831 0.0
H786 H 0.88183 0.73469 0.81979 0.0
H787 H 0.9126 0.70039 0.86507 0.0
H788 H 0.78366 0.70519 0.80296 0.0
H789 H 0.82866 0.71662 0.75572 0.0
H790 H 0.94138 0.63544 0.79076 0.0
H791 H 0.92609 0.6941 0.77725 0.0
Li792 Li 0.37527 0.85003 0.81032 0.0
Li793 Li 0.35598 0.85434 0.84453 0.0
Li794 Li 0.34179 0.84122 0.81068 0.0
Li795 Li 0.35099 0.87386 0.81226 0.0
C796 C 0.37483 0.81973 0.84159 0.0
N797 N 0.39954 0.79888 0.86781 0.0
C798 C 0.39046 0.82862 0.85163 0.0
C799 C 0.37175 0.80026 0.84493 0.0
C800 C 0.40279 0.81783 0.86482 0.0
C801 C 0.38442 0.78996 0.85822 0.0
C802 C 0.37729 0.89073 0.83622 0.0
C803 C 0.36752 0.91912 0.85574 0.0
N804 N 0.38174 0.92903 0.84565 0.0
C805 C 0.39188 0.90117 0.82615 0.0
C806 C 0.36505 0.89974 0.85121 0.0
C807 C 0.39388 0.92052 0.8311 0.0
C808 C 0.40861 0.85836 0.78671 0.0
N809 N 0.39972 0.84412 0.79795 0.0
C810 C 0.42537 0.8227 0.78989 0.0
C811 C 0.40757 0.82642 0.79937 0.0
C812 C 0.43508 0.83724 0.77849 0.0
C813 C 0.42638 0.85526 0.77688 0.0
H814 H 0.40172 0.87208 0.78511 0.0
H815 H 0.40002 0.81508 0.80767 0.0
C816 C 0.34337 0.83921 0.88473 0.0
N817 N 0.35594 0.85188 0.87597 0.0
C818 C 0.34326 0.83561 0.9075 0.0
C819 C 0.36877 0.85847 0.9119 0.0
C820 C 0.36858 0.86144 0.88898 0.0
C821 C 0.35612 0.84527 0.92138 0.0
H822 H 0.33364 0.83167 0.87392 0.0
H823 H 0.37874 0.87108 0.88155 0.0
C824 C 0.3588 0.84456 0.7695 0.0
N825 N 0.36526 0.82168 0.73298 0.0
C826 C 0.35794 0.85227 0.74817 0.0
C827 C 0.36295 0.8252 0.77226 0.0
C828 C 0.36124 0.84047 0.72991 0.0
C829 C 0.36617 0.81388 0.7536 0.0
C830 C 0.31317 0.86552 0.82403 0.0
C831 C 0.30935 0.86933 0.80172 0.0
C832 C 0.29831 0.8659 0.83945 0.0
C833 C 0.29068 0.8735 0.79521 0.0
C834 C 0.27983 0.87014 0.83228 0.0
N835 N 0.27643 0.87382 0.81049 0.0
C836 C 0.31869 0.8093 0.81606 0.0
C837 C 0.31414 0.82431 0.78126 0.0
C838 C 0.30453 0.79596 0.81123 0.0
N839 N 0.32314 0.82314 0.8012 0.0
C840 C 0.29982 0.81124 0.77574 0.0
C841 C 0.2947 0.79692 0.79094 0.0
H842 H 0.32603 0.80879 0.83183 0.0
H843 H 0.31781 0.83557 0.7698 0.0
C844 C 0.35655 0.90671 0.78635 0.0
N845 N 0.34565 0.89941 0.80292 0.0
C846 C 0.35489 0.9259 0.78042 0.0
C847 C 0.33034 0.92952 0.8082 0.0
C848 C 0.33259 0.91031 0.81372 0.0
C849 C 0.34181 0.93768 0.79159 0.0
H850 H 0.36703 0.89775 0.77829 0.0
H851 H 0.32431 0.90428 0.8271 0.0
O852 O 0.36233 0.83002 0.82892 0.0
O853 O 0.37467 0.87191 0.83106 0.0
O854 O 0.35568 0.85609 0.78744 0.0
O855 O 0.33127 0.86118 0.83086 0.0
H856 H 0.39309 0.84367 0.84928 0.0
H857 H 0.35969 0.79319 0.83733 0.0
H858 H 0.41493 0.82451 0.87268 0.0
H859 H 0.38221 0.77488 0.86094 0.0
H860 H 0.35804 0.9263 0.86716 0.0
H861 H 0.40153 0.89444 0.81458 0.0
H862 H 0.35351 0.89194 0.85894 0.0
H863 H 0.40505 0.9288 0.82335 0.0
H864 H 0.43149 0.80861 0.79165 0.0
H865 H 0.43306 0.86677 0.76779 0.0
H866 H 0.33322 0.82539 0.91418 0.0
H867 H 0.37908 0.86599 0.92202 0.0
H868 H 0.35477 0.86724 0.74576 0.0
H869 H 0.36368 0.81892 0.78859 0.0
H870 H 0.36063 0.84625 0.71331 0.0
H871 H 0.3694 0.79888 0.7555 0.0
H872 H 0.32063 0.86907 0.78952 0.0
H873 H 0.30104 0.86292 0.85677 0.0
H874 H 0.28753 0.87647 0.778 0.0
H875 H 0.26819 0.87049 0.84403 0.0
H876 H 0.3013 0.78502 0.82332 0.0
H877 H 0.2925 0.81266 0.76002 0.0
H878 H 0.36426 0.93156 0.76777 0.0
H879 H 0.31988 0.93793 0.81708 0.0
Li880 Li 0.15453 0.37395 0.80799 0.0
Li881 Li 0.14993 0.35517 0.84341 0.0
Li882 Li 0.16229 0.33997 0.81024 0.0
Li883 Li 0.12895 0.34815 0.81207 0.0
C884 C 0.19163 0.35409 0.83118 0.0
N885 N 0.22682 0.33726 0.83797 0.0
C886 C 0.19411 0.34082 0.84823 0.0
C887 C 0.20706 0.35879 0.81757 0.0
C888 C 0.21201 0.33248 0.85141 0.0
C889 C 0.22473 0.35013 0.82127 0.0
C890 C 0.12294 0.38313 0.84434 0.0
C891 C 0.09845 0.38651 0.87214 0.0
N892 N 0.1056 0.4039 0.87765 0.0
C893 C 0.12993 0.40112 0.85014 0.0
C894 C 0.10698 0.37583 0.8553 0.0
C895 C 0.12101 0.41136 0.86707 0.0
C896 C 0.14471 0.41089 0.79391 0.0
N897 N 0.15928 0.39809 0.79458 0.0
C898 C 0.17935 0.41933 0.77416 0.0
C899 C 0.17637 0.40194 0.78494 0.0
C900 C 0.16459 0.43288 0.77333 0.0
C901 C 0.14711 0.42851 0.7835 0.0
H902 H 0.13109 0.40728 0.8012 0.0
H903 H 0.18757 0.39138 0.78525 0.0
C904 C 0.14941 0.34185 0.88837 0.0
N905 N 0.15209 0.35728 0.87507 0.0
C906 C 0.15179 0.34338 0.91133 0.0
C907 C 0.15968 0.37662 0.90652 0.0
C908 C 0.15746 0.37436 0.88367 0.0
C909 C 0.15699 0.36097 0.92078 0.0
H910 H 0.1459 0.32821 0.88113 0.0
H911 H 0.16027 0.38622 0.87274 0.0
C912 C 0.15095 0.34552 0.76734 0.0
N913 N 0.15948 0.32952 0.72671 0.0
C914 C 0.14688 0.32634 0.7633 0.0
C915 C 0.15929 0.3566 0.75072 0.0
C916 C 0.15134 0.31849 0.74266 0.0
C917 C 0.1635 0.34824 0.73028 0.0
C918 C 0.1298 0.31619 0.83593 0.0
C919 C 0.13022 0.29863 0.82497 0.0
C920 C 0.11555 0.31978 0.85157 0.0
C921 C 0.11626 0.28502 0.82972 0.0
C922 C 0.10184 0.30582 0.85585 0.0
N923 N 0.10247 0.28887 0.84492 0.0
C924 C 0.18114 0.30452 0.81119 0.0
C925 C 0.19131 0.32419 0.78158 0.0
C926 C 0.19259 0.2896 0.80364 0.0
N927 N 0.18021 0.32118 0.79975 0.0
C928 C 0.20296 0.30959 0.77337 0.0
C929 C 0.20334 0.29183 0.78416 0.0
H930 H 0.17279 0.30274 0.8261 0.0
H931 H 0.19083 0.33777 0.77315 0.0
C932 C 0.09044 0.35666 0.80218 0.0
N933 N 0.10366 0.34246 0.80175 0.0
C934 C 0.07252 0.35404 0.79244 0.0
C935 C 0.08203 0.32215 0.78219 0.0
C936 C 0.09973 0.3254 0.79208 0.0
C937 C 0.06824 0.33668 0.78192 0.0
H938 H 0.09404 0.37032 0.80934 0.0
H939 H 0.1105 0.31446 0.79134 0.0
O940 O 0.17403 0.36187 0.82737 0.0
O941 O 0.13156 0.37283 0.82788 0.0
O942 O 0.14687 0.35346 0.78748 0.0
O943 O 0.14329 0.32976 0.83143 0.0
H944 H 0.18228 0.33674 0.85867 0.0
H945 H 0.2054 0.36882 0.80414 0.0
H946 H 0.21409 0.32213 0.86447 0.0
H947 H 0.23677 0.35358 0.81081 0.0
H948 H 0.08611 0.381 0.88078 0.0
H949 H 0.14232 0.40697 0.84191 0.0
H950 H 0.10113 0.36212 0.85075 0.0
H951 H 0.12638 0.42522 0.87185 0.0
H952 H 0.19306 0.42214 0.76657 0.0
H953 H 0.13525 0.43839 0.7829 0.0
H954 H 0.15004 0.33075 0.92145 0.0
H955 H 0.16349 0.39054 0.91285 0.0
H956 H 0.1408 0.31749 0.77613 0.0
H957 H 0.16251 0.37149 0.75359 0.0
H958 H 0.14842 0.30362 0.73936 0.0
H959 H 0.16999 0.35663 0.71726 0.0
H960 H 0.14097 0.29563 0.81261 0.0
H961 H 0.11512 0.33318 0.86038 0.0
H962 H 0.11634 0.27143 0.82124 0.0
H963 H 0.09071 0.30844 0.86789 0.0
H964 H 0.19288 0.27637 0.8129 0.0
H965 H 0.21105 0.31201 0.75836 0.0
H966 H 0.06247 0.36576 0.79232 0.0
H967 H 0.07932 0.30848 0.77444 0.0
Li968 Li 0.62768 0.15549 0.81078 0.0
Li969 Li 0.64911 0.15347 0.84435 0.0
Li970 Li 0.66102 0.16326 0.80891 0.0
Li971 Li 0.65285 0.13046 0.81372 0.0
C972 C 0.64541 0.19458 0.82272 0.0
N973 N 0.65593 0.23151 0.81262 0.0
C974 C 0.6579 0.20448 0.83662 0.0
C975 C 0.63815 0.20347 0.80377 0.0
C976 C 0.66308 0.22314 0.8312 0.0
C977 C 0.64367 0.22215 0.79894 0.0
C978 C 0.61571 0.1267 0.84439 0.0
C979 C 0.60083 0.09985 0.86241 0.0
N980 N 0.5857 0.11106 0.86783 0.0
C981 C 0.60002 0.13795 0.85015 0.0
C982 C 0.61614 0.10749 0.85055 0.0
C983 C 0.58498 0.12978 0.86201 0.0
C984 C 0.59542 0.14921 0.78402 0.0
N985 N 0.60269 0.16061 0.80014 0.0
C986 C 0.57422 0.17935 0.80063 0.0
C987 C 0.59258 0.17551 0.80846 0.0
C988 C 0.56626 0.16788 0.78388 0.0
C989 C 0.57717 0.15263 0.77556 0.0
H990 H 0.60386 0.13751 0.77766 0.0
H991 H 0.59875 0.18432 0.82131 0.0
C992 C 0.66749 0.16503 0.88348 0.0
N993 N 0.65113 0.15693 0.87586 0.0
C994 C 0.67018 0.16803 0.90617 0.0
C995 C 0.63917 0.15421 0.91288 0.0
C996 C 0.6371 0.15148 0.89006 0.0
C997 C 0.65587 0.16265 0.92124 0.0
H998 H 0.67851 0.16912 0.87187 0.0
H999 H 0.62423 0.14507 0.88382 0.0
C1000 C 0.65665 0.14125 0.77015 0.0
N1001 N 0.67755 0.12918 0.73395 0.0
C1002 C 0.67623 0.13783 0.7722 0.0
C1003 C 0.64771 0.13852 0.74969 0.0
C1004 C 0.68654 0.13174 0.75371 0.0
C1005 C 0.65852 0.13242 0.73158 0.0
C1006 C 0.68289 0.1331 0.84357 0.0
C1007 C 0.70274 0.13425 0.84516 0.0
C1008 C 0.67302 0.11968 0.85627 0.0
C1009 C 0.71241 0.12189 0.85945 0.0
C1010 C 0.6832 0.10759 0.87037 0.0
N1011 N 0.70253 0.10893 0.87165 0.0
C1012 C 0.69453 0.186 0.80557 0.0
C1013 C 0.67505 0.1858 0.77343 0.0
C1014 C 0.70785 0.19775 0.79502 0.0
N1015 N 0.67861 0.18018 0.7946 0.0
C1016 C 0.68814 0.1972 0.76213 0.0
C1017 C 0.70484 0.20319 0.7729 0.0
H1018 H 0.69694 0.18136 0.82244 0.0
H1019 H 0.66214 0.18123 0.7652 0.0
C1020 C 0.64272 0.09337 0.80088 0.0
N1021 N 0.65793 0.10461 0.8058 0.0
C1022 C 0.64544 0.07442 0.7945 0.0
C1023 C 0.67947 0.07904 0.79799 0.0
C1024 C 0.67608 0.09788 0.80436 0.0
C1025 C 0.66403 0.06699 0.79298 0.0
H1026 H 0.62845 0.09918 0.80189 0.0
H1027 H 0.68798 0.1072 0.8079 0.0
O1028 O 0.64062 0.17612 0.82736 0.0
O1029 O 0.63046 0.13433 0.83249 0.0
O1030 O 0.64618 0.14714 0.78801 0.0
O1031 O 0.67333 0.14515 0.8296 0.0
H1032 H 0.66367 0.19776 0.8513 0.0
H1033 H 0.62859 0.19592 0.79276 0.0
H1034 H 0.67282 0.23095 0.84172 0.0
H1035 H 0.63828 0.22918 0.78425 0.0
H1036 H 0.60099 0.08501 0.8673 0.0
H1037 H 0.5996 0.1529 0.84588 0.0
H1038 H 0.62819 0.09857 0.84628 0.0
H1039 H 0.57279 0.13834 0.86665 0.0
H1040 H 0.5663 0.19106 0.80783 0.0
H1041 H 0.57183 0.14358 0.76242 0.0
H1042 H 0.6834 0.17433 0.91184 0.0
H1043 H 0.62766 0.15005 0.92381 0.0
H1044 H 0.68342 0.13988 0.78788 0.0
H1045 H 0.63257 0.1411 0.74784 0.0
H1046 H 0.70169 0.12905 0.75507 0.0
H1047 H 0.65179 0.13026 0.71564 0.0
H1048 H 0.71058 0.14457 0.83543 0.0
H1049 H 0.65768 0.11859 0.85533 0.0
H1050 H 0.72778 0.12261 0.86083 0.0
H1051 H 0.67574 0.09714 0.88029 0.0
H1052 H 0.72062 0.20206 0.8038 0.0
H1053 H 0.68526 0.20129 0.74514 0.0
H1054 H 0.63309 0.06565 0.79104 0.0
H1055 H 0.69405 0.07407 0.79664 0.0
Li1056 Li 0.87572 0.3514 0.69482 0.0
Li1057 Li 0.84329 0.34176 0.69517 0.0
Li1058 Li 0.85645 0.35879 0.66215 0.0
Li1059 Li 0.85228 0.37615 0.69994 0.0
C1060 C 0.87015 0.31685 0.66688 0.0
N1061 N 0.88492 0.2826 0.65215 0.0
C1062 C 0.86684 0.3001 0.67883 0.0
C1063 C 0.88073 0.31614 0.64727 0.0
C1064 C 0.8745 0.28294 0.67115 0.0
C1065 C 0.88815 0.2987 0.64015 0.0
C1066 C 0.86748 0.34743 0.73721 0.0
C1067 C 0.88516 0.35251 0.771 0.0
N1068 N 0.88962 0.33364 0.77157 0.0
C1069 C 0.87205 0.32805 0.73827 0.0
C1070 C 0.87393 0.35974 0.75381 0.0
C1071 C 0.88333 0.32137 0.75571 0.0
C1072 C 0.91055 0.35876 0.71652 0.0
N1073 N 0.90141 0.34531 0.70422 0.0
C1074 C 0.92891 0.32511 0.70565 0.0
C1075 C 0.91015 0.3286 0.69893 0.0
C1076 C 0.93887 0.33897 0.71788 0.0
C1077 C 0.92935 0.35593 0.72345 0.0
H1078 H 0.90326 0.37184 0.72078 0.0
H1079 H 0.9027 0.31791 0.68952 0.0
C1080 C 0.81626 0.31305 0.68639 0.0
N1081 N 0.82534 0.32245 0.70299 0.0
C1082 C 0.80309 0.29872 0.69124 0.0
C1083 C 0.80919 0.30367 0.73023 0.0
C1084 C 0.822 0.31817 0.72461 0.0
C1085 C 0.79951 0.29364 0.71343 0.0
H1086 H 0.81924 0.31673 0.66933 0.0
H1087 H 0.82941 0.32588 0.73751 0.0
C1088 C 0.89227 0.3812 0.67386 0.0
N1089 N 0.92967 0.3908 0.66474 0.0
C1090 C 0.90045 0.39729 0.68367 0.0
C1091 C 0.90302 0.37013 0.65921 0.0
C1092 C 0.91941 0.40187 0.67889 0.0
C1093 C 0.92193 0.37517 0.65487 0.0
C1094 C 0.81359 0.36122 0.67987 0.0
C1095 C 0.80398 0.3554 0.66075 0.0
C1096 C 0.80371 0.3627 0.69991 0.0
C1097 C 0.78457 0.35099 0.66203 0.0
C1098 C 0.78432 0.35814 0.70051 0.0
N1099 N 0.77523 0.35242 0.68173 0.0
C1100 C 0.84709 0.34838 0.61786 0.0
C1101 C 0.86347 0.37772 0.62197 0.0
C1102 C 0.84627 0.35084 0.59486 0.0
N1103 N 0.85552 0.3618 0.63085 0.0
C1104 C 0.8631 0.38068 0.59911 0.0
C1105 C 0.85427 0.36724 0.58517 0.0
H1106 H 0.84088 0.33585 0.62541 0.0
H1107 H 0.87009 0.38815 0.63268 0.0
C1108 C 0.85929 0.40884 0.72601 0.0
N1109 N 0.84625 0.40018 0.71273 0.0
C1110 C 0.85549 0.42677 0.73507 0.0
C1111 C 0.82492 0.42658 0.71652 0.0
C1112 C 0.82934 0.40867 0.70779 0.0
C1113 C 0.8381 0.43591 0.73034 0.0
H1114 H 0.87274 0.40187 0.72941 0.0
H1115 H 0.81936 0.40164 0.69685 0.0
O1116 O 0.86269 0.33378 0.67403 0.0
O1117 O 0.85684 0.3543 0.71994 0.0
O1118 O 0.87386 0.37625 0.67865 0.0
O1119 O 0.83268 0.36511 0.67909 0.0
H1120 H 0.85843 0.30031 0.69384 0.0
H1121 H 0.88316 0.3289 0.63761 0.0
H1122 H 0.87212 0.26988 0.68028 0.0
H1123 H 0.89643 0.29795 0.62505 0.0
H1124 H 0.89034 0.3619 0.78389 0.0
H1125 H 0.86714 0.31834 0.7256 0.0
H1126 H 0.87035 0.37473 0.7534 0.0
H1127 H 0.88712 0.30644 0.75662 0.0
H1128 H 0.93549 0.31165 0.70134 0.0
H1129 H 0.93644 0.36713 0.73265 0.0
H1130 H 0.79575 0.2918 0.67766 0.0
H1131 H 0.80722 0.30017 0.74755 0.0
H1132 H 0.8923 0.40609 0.69493 0.0
H1133 H 0.89687 0.35768 0.65146 0.0
H1134 H 0.92596 0.41422 0.68645 0.0
H1135 H 0.93045 0.36665 0.64369 0.0
H1136 H 0.81145 0.35416 0.64513 0.0
H1137 H 0.81101 0.36707 0.71488 0.0
H1138 H 0.77695 0.34639 0.64739 0.0
H1139 H 0.7765 0.35909 0.71593 0.0
H1140 H 0.83915 0.34019 0.58486 0.0
H1141 H 0.86979 0.39335 0.59245 0.0
H1142 H 0.866 0.43335 0.74577 0.0
H1143 H 0.81149 0.43322 0.71211 0.0
Li1144 Li 0.65263 0.87811 0.6965 0.0
Li1145 Li 0.66163 0.8447 0.69377 0.0
Li1146 Li 0.64661 0.86084 0.66177 0.0
Li1147 Li 0.62775 0.8529 0.69506 0.0
C1148 C 0.68423 0.87931 0.66779 0.0
N1149 N 0.70981 0.90574 0.65141 0.0
C1150 C 0.70354 0.87814 0.67344 0.0
C1151 C 0.67797 0.89381 0.65369 0.0
C1152 C 0.71624 0.89168 0.66503 0.0
C1153 C 0.6911 0.90706 0.6456 0.0
C1154 C 0.65882 0.85984 0.73664 0.0
C1155 C 0.66292 0.86124 0.7763 0.0
N1156 N 0.68176 0.8651 0.77339 0.0
C1157 C 0.67824 0.86378 0.73405 0.0
C1158 C 0.65108 0.85853 0.75792 0.0
C1159 C 0.68959 0.8664 0.75283 0.0
C1160 C 0.6429 0.91293 0.71631 0.0
N1161 N 0.65809 0.90236 0.70959 0.0
C1162 C 0.67969 0.92597 0.7233 0.0
C1163 C 0.67627 0.9085 0.71294 0.0
C1164 C 0.66427 0.93724 0.73037 0.0
C1165 C 0.64565 0.93054 0.72665 0.0
H1166 H 0.62859 0.90757 0.71382 0.0
H1167 H 0.68816 0.89975 0.70791 0.0
C1168 C 0.69633 0.82498 0.68937 0.0
N1169 N 0.68059 0.82656 0.70237 0.0
C1170 C 0.71157 0.81346 0.69595 0.0
C1171 C 0.69381 0.80477 0.72876 0.0
C1172 C 0.67896 0.81658 0.72161 0.0
C1173 C 0.71055 0.80338 0.71605 0.0
H1174 H 0.69722 0.83304 0.67413 0.0
H1175 H 0.66637 0.81822 0.73177 0.0
C1176 C 0.61765 0.89027 0.66873 0.0
N1177 N 0.59443 0.91671 0.64805 0.0
C1178 C 0.59853 0.88598 0.66444 0.0
C1179 C 0.62487 0.90814 0.66284 0.0
C1180 C 0.58705 0.89949 0.65386 0.0
C1181 C 0.61293 0.92128 0.65231 0.0
C1182 C 0.63694 0.81641 0.67934 0.0
C1183 C 0.63668 0.80249 0.66278 0.0
C1184 C 0.63342 0.81123 0.70133 0.0
C1185 C 0.63291 0.78356 0.66852 0.0
C1186 C 0.62971 0.79215 0.7064 0.0
N1187 N 0.62954 0.77883 0.69002 0.0
C1188 C 0.66171 0.86075 0.61789 0.0
C1189 C 0.62843 0.86625 0.62024 0.0
C1190 C 0.66121 0.86306 0.59486 0.0
N1191 N 0.64552 0.86275 0.63011 0.0
C1192 C 0.62731 0.86887 0.59735 0.0
C1193 C 0.64388 0.86752 0.58438 0.0
H1194 H 0.67509 0.85764 0.62608 0.0
H1195 H 0.61565 0.86706 0.63013 0.0
C1196 C 0.59713 0.85267 0.72524 0.0
N1197 N 0.60292 0.84632 0.70507 0.0
C1198 C 0.57872 0.84871 0.73281 0.0
C1199 C 0.57262 0.83173 0.69866 0.0
C1200 C 0.59116 0.83599 0.69179 0.0
C1201 C 0.56613 0.83818 0.71941 0.0
H1202 H 0.60679 0.86094 0.73538 0.0
H1203 H 0.59611 0.83131 0.6757 0.0
O1204 O 0.67161 0.86622 0.67602 0.0
O1205 O 0.64738 0.85722 0.71852 0.0
O1206 O 0.62903 0.87722 0.67922 0.0
O1207 O 0.64067 0.83497 0.67393 0.0
H1208 H 0.70864 0.86701 0.68436 0.0
H1209 H 0.66316 0.89472 0.64886 0.0
H1210 H 0.7312 0.89101 0.66935 0.0
H1211 H 0.68643 0.91836 0.63466 0.0
H1212 H 0.65711 0.86028 0.79287 0.0
H1213 H 0.6845 0.86476 0.71774 0.0
H1214 H 0.63609 0.85543 0.76022 0.0
H1215 H 0.70464 0.86946 0.75105 0.0
H1216 H 0.69427 0.93063 0.72571 0.0
H1217 H 0.63335 0.93859 0.73214 0.0
H1218 H 0.72412 0.8126 0.68553 0.0
H1219 H 0.69251 0.79739 0.74445 0.0
H1220 H 0.59265 0.87229 0.66904 0.0
H1221 H 0.63946 0.91195 0.66657 0.0
H1222 H 0.57227 0.8963 0.65029 0.0
H1223 H 0.61834 0.93514 0.64762 0.0
H1224 H 0.63939 0.80628 0.64567 0.0
H1225 H 0.63355 0.82179 0.71439 0.0
H1226 H 0.63268 0.77263 0.65587 0.0
H1227 H 0.62698 0.78795 0.72335 0.0
H1228 H 0.67431 0.86189 0.58544 0.0
H1229 H 0.61359 0.87189 0.58985 0.0
H1230 H 0.57445 0.85376 0.74902 0.0
H1231 H 0.56335 0.82383 0.68762 0.0
Li1232 Li 0.12829 0.65168 0.69384 0.0
Li1233 Li 0.16112 0.66024 0.69773 0.0
Li1234 Li 0.15067 0.64923 0.66182 0.0
Li1235 Li 0.15305 0.62765 0.69423 0.0
C1236 C 0.13051 0.68287 0.66453 0.0
N1237 N 0.10677 0.70359 0.637 0.0
C1238 C 0.13284 0.70257 0.66248 0.0
C1239 C 0.11612 0.67369 0.65253 0.0
C1240 C 0.12068 0.7128 0.6485 0.0
C1241 C 0.10427 0.68442 0.63871 0.0
C1242 C 0.14042 0.65512 0.73673 0.0
C1243 C 0.13364 0.65699 0.77586 0.0
N1244 N 0.12985 0.67592 0.77364 0.0
C1245 C 0.13643 0.6746 0.73484 0.0
C1246 C 0.139 0.64624 0.75739 0.0
C1247 C 0.13112 0.68485 0.75369 0.0
C1248 C 0.09254 0.64203 0.71173 0.0
N1249 N 0.10272 0.65687 0.70337 0.0
C1250 C 0.07658 0.67811 0.70967 0.0
C1251 C 0.09528 0.67477 0.7027 0.0
C1252 C 0.06551 0.66294 0.71776 0.0
C1253 C 0.0738 0.64473 0.71899 0.0
H1254 H 0.09903 0.62808 0.71282 0.0
H1255 H 0.10384 0.68656 0.69693 0.0
C1256 C 0.1831 0.69423 0.70163 0.0
N1257 N 0.17817 0.67775 0.71203 0.0
C1258 C 0.19504 0.7074 0.71217 0.0
C1259 C 0.19671 0.68627 0.74376 0.0
C1260 C 0.18486 0.6735 0.73259 0.0
C1261 C 0.2018 0.70359 0.73366 0.0
H1262 H 0.17763 0.6972 0.68522 0.0
H1263 H 0.18094 0.66018 0.74038 0.0
C1264 C 0.12912 0.61191 0.66606 0.0
N1265 N 0.12548 0.574 0.65433 0.0
C1266 C 0.1436 0.60282 0.65413 0.0
C1267 C 0.11272 0.60176 0.67186 0.0
C1268 C 0.14151 0.58364 0.6484 0.0
C1269 C 0.11116 0.5826 0.6658 0.0
C1270 C 0.19225 0.64477 0.68329 0.0
C1271 C 0.20301 0.65685 0.66977 0.0
C1272 C 0.20037 0.63725 0.70257 0.0
C1273 C 0.2217 0.66133 0.67587 0.0
C1274 C 0.21912 0.64206 0.70808 0.0
N1275 N 0.2293 0.65392 0.69474 0.0
C1276 C 0.16325 0.66699 0.62242 0.0
C1277 C 0.14182 0.64137 0.61657 0.0
C1278 C 0.16388 0.67072 0.59968 0.0
N1279 N 0.15242 0.65246 0.63039 0.0
C1280 C 0.14209 0.64454 0.59371 0.0
C1281 C 0.15315 0.65945 0.58498 0.0
H1282 H 0.17107 0.67596 0.63381 0.0
H1283 H 0.13274 0.63038 0.62329 0.0
C1284 C 0.14474 0.593 0.71573 0.0
N1285 N 0.15805 0.60204 0.70319 0.0
C1286 C 0.14711 0.57384 0.72144 0.0
C1287 C 0.17711 0.57381 0.70172 0.0
C1288 C 0.17405 0.5929 0.69618 0.0
C1289 C 0.16346 0.56391 0.71435 0.0
H1290 H 0.13204 0.60059 0.72083 0.0
H1291 H 0.18429 0.60037 0.68599 0.0
O1292 O 0.14255 0.67272 0.67795 0.0
O1293 O 0.14558 0.64465 0.71855 0.0
O1294 O 0.13124 0.63051 0.67245 0.0
O1295 O 0.17375 0.64062 0.67794 0.0
H1296 H 0.14394 0.70988 0.67161 0.0
H1297 H 0.11405 0.65847 0.65384 0.0
H1298 H 0.12232 0.72807 0.64677 0.0
H1299 H 0.09307 0.67751 0.62934 0.0
H1300 H 0.1325 0.6503 0.79195 0.0
H1301 H 0.13743 0.68177 0.71903 0.0
H1302 H 0.14201 0.63116 0.75911 0.0
H1303 H 0.128 0.69992 0.75246 0.0
H1304 H 0.07092 0.69247 0.70894 0.0
H1305 H 0.06581 0.63263 0.72515 0.0
H1306 H 0.19854 0.72062 0.70383 0.0
H1307 H 0.20185 0.68261 0.76015 0.0
H1308 H 0.15646 0.61045 0.64964 0.0
H1309 H 0.10131 0.60857 0.68093 0.0
H1310 H 0.15268 0.5764 0.63933 0.0
H1311 H 0.09857 0.57455 0.67024 0.0
H1312 H 0.19696 0.66279 0.6548 0.0
H1313 H 0.19216 0.62808 0.71338 0.0
H1314 H 0.23016 0.67073 0.66561 0.0
H1315 H 0.22553 0.63646 0.72304 0.0
H1316 H 0.17263 0.68235 0.59368 0.0
H1317 H 0.13327 0.63578 0.58307 0.0
H1318 H 0.13601 0.5668 0.73084 0.0
H1319 H 0.19006 0.56691 0.69613 0.0
Li1320 Li 0.35291 0.12689 0.69445 0.0
Li1321 Li 0.34177 0.15915 0.69288 0.0
Li1322 Li 0.3564 0.14304 0.65945 0.0
Li1323 Li 0.37592 0.15181 0.69271 0.0
C1324 C 0.31794 0.12444 0.67399 0.0
N1325 N 0.2886 0.09826 0.67179 0.0
C1326 C 0.30595 0.12172 0.69221 0.0
C1327 C 0.31492 0.114 0.65457 0.0
C1328 C 0.29123 0.10835 0.69079 0.0
C1329 C 0.30002 0.10079 0.65381 0.0
C1330 C 0.35989 0.16036 0.73297 0.0
C1331 C 0.36695 0.19252 0.74457 0.0
N1332 N 0.36526 0.18705 0.7661 0.0
C1333 C 0.35819 0.15508 0.75522 0.0
C1334 C 0.36426 0.17926 0.72758 0.0
C1335 C 0.36097 0.16877 0.77172 0.0
C1336 C 0.35658 0.10107 0.72925 0.0
N1337 N 0.34874 0.1026 0.70872 0.0
C1338 C 0.33744 0.07043 0.71075 0.0
C1339 C 0.33946 0.08762 0.69925 0.0
C1340 C 0.34516 0.06856 0.73214 0.0
C1341 C 0.35494 0.08417 0.7413 0.0
H1342 H 0.36436 0.11295 0.73618 0.0
H1343 H 0.33383 0.08881 0.68268 0.0
C1344 C 0.31812 0.19281 0.69333 0.0
N1345 N 0.32245 0.17603 0.70345 0.0
C1346 C 0.30357 0.20445 0.70178 0.0
C1347 C 0.29846 0.18133 0.73088 0.0
C1348 C 0.3131 0.17026 0.72199 0.0
C1349 C 0.29338 0.19859 0.72066 0.0
H1350 H 0.32583 0.19707 0.67862 0.0
H1351 H 0.31702 0.15699 0.72989 0.0
C1352 C 0.38034 0.1089 0.67447 0.0
N1353 N 0.38833 0.07031 0.67375 0.0
C1354 C 0.39459 0.10141 0.68814 0.0
C1355 C 0.37022 0.09676 0.66034 0.0
C1356 C 0.39838 0.08186 0.68758 0.0
C1357 C 0.37447 0.0773 0.66021 0.0
C1358 C 0.37321 0.17917 0.6578 0.0
C1359 C 0.38828 0.16981 0.64722 0.0
C1360 C 0.36992 0.19847 0.65354 0.0
C1361 C 0.39984 0.17997 0.63253 0.0
C1362 C 0.38182 0.20814 0.63876 0.0
N1363 N 0.39641 0.19876 0.62864 0.0
C1364 C 0.34232 0.14947 0.61557 0.0
C1365 C 0.37032 0.13064 0.61799 0.0
C1366 C 0.34196 0.14731 0.59249 0.0
N1367 N 0.35624 0.14096 0.6278 0.0
C1368 C 0.37035 0.12787 0.5951 0.0
C1369 C 0.35594 0.1361 0.58207 0.0
H1370 H 0.33136 0.15772 0.6238 0.0
H1371 H 0.3815 0.12439 0.62797 0.0
C1372 C 0.40754 0.14785 0.72011 0.0
N1373 N 0.40035 0.1594 0.70405 0.0
C1374 C 0.42529 0.15167 0.72962 0.0
C1375 C 0.42781 0.17956 0.70635 0.0
C1376 C 0.40992 0.17528 0.69741 0.0
C1377 C 0.43582 0.16761 0.7226 0.0
H1378 H 0.39934 0.1357 0.72567 0.0
H1379 H 0.40376 0.18472 0.68526 0.0
O1380 O 0.33236 0.13751 0.67495 0.0
O1381 O 0.35713 0.14704 0.71668 0.0
O1382 O 0.37612 0.12795 0.6751 0.0
O1383 O 0.36146 0.16948 0.67197 0.0
H1384 H 0.30813 0.12966 0.70735 0.0
H1385 H 0.32404 0.116 0.6403 0.0
H1386 H 0.28191 0.10599 0.70481 0.0
H1387 H 0.29755 0.09255 0.63893 0.0
H1388 H 0.37036 0.20717 0.74062 0.0
H1389 H 0.35469 0.14056 0.7597 0.0
H1390 H 0.36558 0.18372 0.71052 0.0
H1391 H 0.3597 0.16487 0.789 0.0
H1392 H 0.32977 0.0588 0.70302 0.0
H1393 H 0.36154 0.08327 0.7575 0.0
H1394 H 0.30003 0.21762 0.69335 0.0
H1395 H 0.29123 0.17643 0.74568 0.0
H1396 H 0.40263 0.11056 0.6991 0.0
H1397 H 0.35893 0.10224 0.6499 0.0
H1398 H 0.40932 0.07587 0.69814 0.0
H1399 H 0.36665 0.06774 0.64947 0.0
H1400 H 0.39117 0.15493 0.65045 0.0
H1401 H 0.35829 0.20591 0.66158 0.0
H1402 H 0.41158 0.17292 0.62425 0.0
H1403 H 0.37946 0.22309 0.63532 0.0
H1404 H 0.33061 0.15386 0.58297 0.0
H1405 H 0.38153 0.11936 0.58762 0.0
H1406 H 0.43059 0.14232 0.74251 0.0
H1407 H 0.43536 0.19199 0.70034 0.0
H1408 H 0.26762 0.21094 0.26759 0.0
H1409 H 0.30901 0.24877 0.29822 0.0
H1410 H 0.28973 0.27648 0.28699 0.0
H1411 H 0.2586 0.24071 0.22003 0.0
H1412 H 0.23357 0.23497 0.21872 0.0
H1413 H 0.25024 0.21793 0.22988 0.0
H1414 H 0.23067 0.21628 0.26624 0.0
H1415 H 0.21393 0.23331 0.2552 0.0
H1416 H 0.22564 0.23794 0.28126 0.0
H1417 H 0.26614 0.30019 0.27237 0.0
H1418 H 0.24009 0.31831 0.25461 0.0
H1419 H 0.21454 0.26536 0.23221 0.0
C1420 C 0.27274 0.22503 0.27184 0.0
C1421 C 0.28983 0.22755 0.28403 0.0
C1422 C 0.2958 0.24633 0.28937 0.0
C1423 C 0.28501 0.26222 0.2829 0.0
C1424 C 0.2683 0.25919 0.27093 0.0
C1425 C 0.26221 0.24109 0.26536 0.0
C1426 C 0.24386 0.24184 0.25206 0.0
C1427 C 0.24675 0.23336 0.22879 0.0
C1428 C 0.22756 0.23175 0.26444 0.0
C1429 C 0.24062 0.26319 0.25102 0.0
C1430 C 0.25485 0.27292 0.26211 0.0
C1431 C 0.2549 0.29273 0.26365 0.0
C1432 C 0.23999 0.3029 0.2536 0.0
C1433 C 0.22526 0.29327 0.24206 0.0
C1434 C 0.22568 0.27313 0.24074 0.0
H1435 H 0.78096 0.28595 0.25648 0.0
H1436 H 0.78669 0.26585 0.32424 0.0
H1437 H 0.76289 0.24076 0.31682 0.0
H1438 H 0.7307 0.27816 0.2514 0.0
H1439 H 0.7319 0.27031 0.22299 0.0
H1440 H 0.74945 0.28671 0.23355 0.0
H1441 H 0.77648 0.26367 0.22166 0.0
H1442 H 0.75901 0.24721 0.21102 0.0
H1443 H 0.77617 0.23935 0.23132 0.0
H1444 H 0.73838 0.21793 0.30219 0.0
H1445 H 0.71512 0.19867 0.28119 0.0
H1446 H 0.72541 0.23342 0.22284 0.0
C1447 C 0.77737 0.27616 0.26971 0.0
C1448 C 0.78568 0.27797 0.29099 0.0
C1449 C 0.78033 0.26499 0.30791 0.0
C1450 C 0.7669 0.2506 0.30382 0.0
C1451 C 0.75894 0.2493 0.28272 0.0
C1452 C 0.76399 0.26169 0.26592 0.0
C1453 C 0.75323 0.25722 0.24474 0.0
C1454 C 0.74057 0.2741 0.23777 0.0
C1455 C 0.76705 0.25152 0.22609 0.0
C1456 C 0.74134 0.24039 0.25228 0.0
C1457 C 0.74485 0.23607 0.27425 0.0
C1458 C 0.73549 0.22119 0.28498 0.0
C1459 C 0.72221 0.21041 0.27294 0.0
C1460 C 0.71836 0.21454 0.25037 0.0
C1461 C 0.72814 0.22976 0.23999 0.0
H1462 H 0.772 0.72747 0.21966 0.0
H1463 H 0.79474 0.70442 0.28108 0.0
H1464 H 0.77319 0.72528 0.30234 0.0
H1465 H 0.76801 0.776 0.23899 0.0
H1466 H 0.74624 0.78064 0.22401 0.0
H1467 H 0.7631 0.76349 0.21352 0.0
H1468 H 0.73658 0.73778 0.21274 0.0
H1469 H 0.71966 0.75483 0.22333 0.0
H1470 H 0.72345 0.73262 0.23771 0.0
H1471 H 0.74925 0.74852 0.31706 0.0
H1472 H 0.72503 0.7732 0.32429 0.0
H1473 H 0.71884 0.78245 0.25346 0.0
C1474 C 0.77258 0.72688 0.23758 0.0
C1475 C 0.78502 0.71412 0.24863 0.0
C1476 C 0.78511 0.71374 0.27214 0.0
C1477 C 0.773 0.72564 0.28441 0.0
C1478 C 0.76091 0.73796 0.27298 0.0
C1479 C 0.76064 0.73875 0.25011 0.0
C1480 C 0.74644 0.7535 0.24196 0.0
C1481 C 0.75655 0.76935 0.22885 0.0
C1482 C 0.73059 0.74411 0.22812 0.0
C1483 C 0.7388 0.76087 0.26385 0.0
C1484 C 0.74731 0.75166 0.28151 0.0
C1485 C 0.74258 0.75593 0.30336 0.0
C1486 C 0.72887 0.77009 0.30729 0.0
C1487 C 0.72007 0.77994 0.28948 0.0
C1488 C 0.72512 0.77511 0.26746 0.0
H1489 H 0.26924 0.79062 0.24311 0.0
H1490 H 0.31052 0.75298 0.21191 0.0
H1491 H 0.2914 0.72521 0.22312 0.0
H1492 H 0.26079 0.76034 0.29065 0.0
H1493 H 0.23579 0.7662 0.29229 0.0
H1494 H 0.25244 0.78326 0.2812 0.0
H1495 H 0.2325 0.78537 0.24511 0.0
H1496 H 0.21583 0.76825 0.25604 0.0
H1497 H 0.22732 0.76391 0.2298 0.0
H1498 H 0.26763 0.70142 0.23725 0.0
H1499 H 0.24141 0.68327 0.25437 0.0
H1500 H 0.21685 0.73613 0.27884 0.0
C1501 C 0.27441 0.77656 0.23878 0.0
C1502 C 0.29137 0.77413 0.22635 0.0
C1503 C 0.29739 0.75538 0.22091 0.0
C1504 C 0.28669 0.73944 0.22737 0.0
C1505 C 0.27007 0.74238 0.23949 0.0
C1506 C 0.26401 0.76045 0.24529 0.0
C1507 C 0.24577 0.75962 0.25875 0.0
C1508 C 0.24889 0.76784 0.28211 0.0
C1509 C 0.22939 0.7699 0.2467 0.0
C1510 C 0.24251 0.73827 0.25951 0.0
C1511 C 0.25665 0.72861 0.24823 0.0
C1512 C 0.25657 0.70882 0.24632 0.0
C1513 C 0.24165 0.69861 0.25628 0.0
C1514 C 0.22704 0.70817 0.26817 0.0
C1515 C 0.22761 0.72831 0.26973 0.0
H1516 H 0.7108 0.76761 0.73501 0.0
H1517 H 0.74794 0.81425 0.71579 0.0
H1518 H 0.77577 0.79638 0.7298 0.0
H1519 H 0.73544 0.75533 0.78555 0.0
H1520 H 0.73208 0.73002 0.78223 0.0
H1521 H 0.71496 0.74643 0.77071 0.0
H1522 H 0.71956 0.73128 0.73191 0.0
H1523 H 0.73664 0.71478 0.74332 0.0
H1524 H 0.74319 0.72974 0.72026 0.0
H1525 H 0.79944 0.77392 0.74649 0.0
H1526 H 0.81772 0.74773 0.76345 0.0
H1527 H 0.76552 0.71499 0.77091 0.0
C1528 C 0.72479 0.77407 0.73384 0.0
C1529 C 0.72721 0.79231 0.72423 0.0
C1530 C 0.74577 0.80021 0.7228 0.0
C1531 C 0.76165 0.79022 0.73085 0.0
C1532 C 0.75878 0.77231 0.74022 0.0
C1533 C 0.74085 0.76423 0.74167 0.0
C1534 C 0.74179 0.74462 0.7522 0.0
C1535 C 0.73039 0.74408 0.77397 0.0
C1536 C 0.73489 0.7292 0.73595 0.0
C1537 C 0.76304 0.74298 0.75649 0.0
C1538 C 0.77253 0.75915 0.74952 0.0
C1539 C 0.79219 0.7611 0.75184 0.0
C1540 C 0.80248 0.74605 0.76137 0.0
C1541 C 0.79316 0.72913 0.76835 0.0
C1542 C 0.77311 0.72773 0.76594 0.0
H1543 H 0.23194 0.72487 0.71784 0.0
H1544 H 0.19835 0.71432 0.777 0.0
H1545 H 0.21812 0.73731 0.79771 0.0
H1546 H 0.27707 0.7291 0.74525 0.0
H1547 H 0.28573 0.74787 0.72751 0.0
H1548 H 0.26868 0.73089 0.71708 0.0
H1549 H 0.24596 0.7585 0.70619 0.0
H1550 H 0.26294 0.77557 0.71659 0.0
H1551 H 0.23882 0.77559 0.72691 0.0
H1552 H 0.24145 0.76117 0.81212 0.0
H1553 H 0.26723 0.78416 0.81955 0.0
H1554 H 0.28622 0.77912 0.75129 0.0
C1555 C 0.22865 0.72754 0.73509 0.0
C1556 C 0.21363 0.71773 0.74582 0.0
C1557 C 0.20993 0.72145 0.76851 0.0
C1558 C 0.221 0.73458 0.78038 0.0
C1559 C 0.23575 0.7439 0.76937 0.0
C1560 C 0.23963 0.74057 0.74726 0.0
C1561 C 0.25659 0.75225 0.73956 0.0
C1562 C 0.27299 0.73925 0.7319 0.0
C1563 C 0.25072 0.76631 0.72123 0.0
C1564 C 0.26163 0.76262 0.76083 0.0
C1565 C 0.24938 0.75761 0.77778 0.0
C1566 C 0.25119 0.76516 0.79901 0.0
C1567 C 0.26598 0.77812 0.8031 0.0
C1568 C 0.27889 0.78338 0.78607 0.0
C1569 C 0.27653 0.77555 0.76462 0.0
H1570 H 0.23916 0.29188 0.7649 0.0
H1571 H 0.1919 0.25465 0.7819 0.0
H1572 H 0.20954 0.22718 0.76685 0.0
H1573 H 0.25123 0.26844 0.713 0.0
H1574 H 0.27657 0.27153 0.71657 0.0
H1575 H 0.26022 0.28848 0.72853 0.0
H1576 H 0.27524 0.28287 0.76722 0.0
H1577 H 0.29165 0.26593 0.75539 0.0
H1578 H 0.27653 0.25898 0.77816 0.0
H1579 H 0.23218 0.20368 0.75062 0.0
H1580 H 0.25871 0.18539 0.73427 0.0
H1581 H 0.29147 0.23753 0.72714 0.0
C1582 C 0.23246 0.27798 0.76528 0.0
C1583 C 0.21417 0.27544 0.77478 0.0
C1584 C 0.20601 0.25694 0.77513 0.0
C1585 C 0.21586 0.24125 0.76644 0.0
C1586 C 0.23385 0.24423 0.75735 0.0
C1587 C 0.24211 0.2621 0.75665 0.0
C1588 C 0.26178 0.26124 0.74619 0.0
C1589 C 0.26249 0.27313 0.7248 0.0
C1590 C 0.27721 0.26763 0.76273 0.0
C1591 C 0.26329 0.24008 0.74124 0.0
C1592 C 0.24697 0.23058 0.7478 0.0
C1593 C 0.24503 0.21094 0.7454 0.0
C1594 C 0.26022 0.20067 0.7362 0.0
C1595 C 0.27719 0.21 0.72951 0.0
C1596 C 0.27861 0.23002 0.7319 0.0
H1597 H 0.72149 0.23703 0.78523 0.0
H1598 H 0.72082 0.19449 0.73308 0.0
H1599 H 0.74521 0.21274 0.71247 0.0
H1600 H 0.72617 0.27756 0.74874 0.0
H1601 H 0.74149 0.29065 0.76729 0.0
H1602 H 0.72441 0.27396 0.77825 0.0
H1603 H 0.75155 0.25619 0.79888 0.0
H1604 H 0.76871 0.2728 0.78793 0.0
H1605 H 0.77182 0.24758 0.78346 0.0
H1606 H 0.77028 0.23499 0.69818 0.0
H1607 H 0.79294 0.26073 0.68977 0.0
H1608 H 0.77559 0.29031 0.7498 0.0
C1609 C 0.72659 0.23157 0.76952 0.0
C1610 C 0.71938 0.21435 0.76071 0.0
C1611 C 0.72614 0.20771 0.74 0.0
C1612 C 0.74003 0.21792 0.72825 0.0
C1613 C 0.74684 0.23487 0.73733 0.0
C1614 C 0.74024 0.24176 0.75738 0.0
C1615 C 0.74949 0.26069 0.76302 0.0
C1616 C 0.7345 0.27666 0.7644 0.0
C1617 C 0.76108 0.25922 0.7846 0.0
C1618 C 0.76241 0.26326 0.74309 0.0
C1619 C 0.76075 0.24813 0.72859 0.0
C1620 C 0.77153 0.24705 0.70927 0.0
C1621 C 0.78428 0.26189 0.70454 0.0
C1622 C 0.78602 0.27783 0.71891 0.0
C1623 C 0.77486 0.27837 0.73848 0.0
H1624 H 0.13792 0.3427 0.95491 0.0
H1625 H 0.18334 0.38345 0.94229 0.0
H1626 H 0.18796 0.38741 0.98243 0.0
H1627 H 0.11856 0.3649 0.00311 0.0
H1628 H 0.11403 0.34284 0.01749 0.0
H1629 H 0.11384 0.34342 0.98764 0.0
H1630 H 0.13936 0.31669 0.98655 0.0
H1631 H 0.13954 0.31595 0.0164 0.0
H1632 H 0.16144 0.31983 1.00143 0.0
H1633 H 0.18712 0.38775 0.02396 0.0
H1634 H 0.18202 0.38323 0.06392 0.0
H1635 H 0.13933 0.33996 0.04975 0.0
C1636 C 0.149 0.35232 0.96048 0.0
C1637 C 0.16007 0.36293 0.94519 0.0
C1638 C 0.17426 0.3755 0.95346 0.0
C1639 C 0.17714 0.37774 0.97631 0.0
C1640 C 0.16592 0.36716 0.99081 0.0
C1641 C 0.15226 0.35456 0.98326 0.0
C1642 C 0.14239 0.34463 1.00242 0.0
C1643 C 0.12093 0.34923 1.00267 0.0
C1644 C 0.1459 0.32299 1.00165 0.0
C1645 C 0.15256 0.35374 0.0219 0.0
C1646 C 0.166 0.36676 0.01482 0.0
C1647 C 0.17682 0.37738 0.02971 0.0
C1648 C 0.17391 0.37456 0.05247 0.0
C1649 C 0.16042 0.36104 0.06027 0.0
C1650 C 0.14965 0.35052 0.04458 0.0
H1651 H 0.64551 0.13907 0.95571 0.0
H1652 H 0.67139 0.19398 0.94166 0.0
H1653 H 0.675 0.19982 0.98178 0.0
H1654 H 0.61861 0.15431 0.00322 0.0
H1655 H 0.62204 0.13232 0.01818 0.0
H1656 H 0.62191 0.13227 0.98833 0.0
H1657 H 0.6552 0.11617 0.98813 0.0
H1658 H 0.65544 0.1162 0.01799 0.0
H1659 H 0.67466 0.12722 1.00285 0.0
H1660 H 0.67527 0.19995 0.02351 0.0
H1661 H 0.67259 0.19416 0.06375 0.0
H1662 H 0.64585 0.1395 0.05059 0.0
C1663 C 0.65184 0.15238 0.96104 0.0
C1664 C 0.65821 0.16604 0.94546 0.0
C1665 C 0.66665 0.18316 0.95321 0.0
C1666 C 0.66866 0.18667 0.97599 0.0
C1667 C 0.66217 0.17292 0.99085 0.0
C1668 C 0.65395 0.15611 0.98371 0.0
C1669 C 0.64807 0.14373 0.00312 0.0
C1670 C 0.62637 0.14047 0.00321 0.0
C1671 C 0.659 0.12471 0.00301 0.0
C1672 C 0.65422 0.15623 0.02231 0.0
C1673 C 0.66231 0.17301 0.01488 0.0
C1674 C 0.66893 0.18687 0.02952 0.0
C1675 C 0.66724 0.1835 0.05235 0.0
C1676 C 0.65899 0.16639 0.06038 0.0
C1677 C 0.65244 0.15261 0.04503 0.0
H1678 H 0.86594 0.66282 0.95549 0.0
H1679 H 0.8184 0.62486 0.94193 0.0
H1680 H 0.8127 0.62147 0.982 0.0
H1681 H 0.8831 0.63911 0.00382 0.0
H1682 H 0.88906 0.6607 0.01847 0.0
H1683 H 0.8895 0.66029 0.98863 0.0
H1684 H 0.86599 0.68879 0.98744 0.0
H1685 H 0.86555 0.68934 0.01729 0.0
H1686 H 0.84358 0.68716 1.00197 0.0
H1687 H 0.81269 0.6213 0.02343 0.0
H1688 H 0.81775 0.6251 0.06354 0.0
H1689 H 0.86391 0.66489 0.05046 0.0
C1690 C 0.85419 0.65397 0.96089 0.0
C1691 C 0.84276 0.64396 0.94543 0.0
C1692 C 0.82766 0.63235 0.95335 0.0
C1693 C 0.82419 0.63044 0.97611 0.0
C1694 C 0.83581 0.64035 0.99084 0.0
C1695 C 0.85043 0.65199 0.9836 0.0
C1696 C 0.86079 0.66105 0.00298 0.0
C1697 C 0.88186 0.65491 0.0035 0.0
C1698 C 0.85885 0.68288 1.00238 0.0
C1699 C 0.84979 0.65256 0.02223 0.0
C1700 C 0.83547 0.64065 0.01483 0.0
C1701 C 0.8237 0.63079 0.02944 0.0
C1702 C 0.82661 0.63318 0.05226 0.0
C1703 C 0.84111 0.64547 0.06036 0.0
C1704 C 0.85279 0.65528 0.04497 0.0
H1705 H 0.35772 0.86939 0.05092 0.0
H1706 H 0.36006 0.80836 0.06303 0.0
H1707 H 0.35933 0.80249 0.02281 0.0
H1708 H 0.32671 0.86811 0.00408 0.0
H1709 H 0.33889 0.88682 0.98931 0.0
H1710 H 0.33936 0.88635 0.01914 0.0
H1711 H 0.37631 0.88668 0.01856 0.0
H1712 H 0.37597 0.88722 0.98871 0.0
H1713 H 0.38894 0.86873 0.00299 0.0
H1714 H 0.35759 0.80309 0.9813 0.0
H1715 H 0.35652 0.81029 0.94122 0.0
H1716 H 0.35703 0.87084 0.95588 0.0
C1717 C 0.35832 0.85478 0.04519 0.0
C1718 C 0.35876 0.83935 0.06033 0.0
C1719 C 0.35927 0.82046 0.05193 0.0
C1720 C 0.35901 0.81695 0.02905 0.0
C1721 C 0.35844 0.83247 0.01468 0.0
C1722 C 0.35826 0.85101 0.02238 0.0
C1723 C 0.35786 0.86513 0.00335 0.0
C1724 C 0.33962 0.87732 0.00402 0.0
C1725 C 0.37584 0.87768 0.00341 0.0
C1726 C 0.35775 0.85161 0.98377 0.0
C1727 C 0.35798 0.83283 0.99069 0.0
C1728 C 0.35748 0.81774 0.97567 0.0
C1729 C 0.35678 0.82196 0.95297 0.0
C1730 C 0.35671 0.8411 0.94548 0.0
C1731 C 0.35727 0.85608 0.96114 0.0
H1732 H 0.15411 0.63391 0.55035 0.0
H1733 H 0.1514 0.69446 0.5649 0.0
H1734 H 0.15029 0.7015 0.52483 0.0
H1735 H 0.18378 0.63774 0.50164 0.0
H1736 H 0.17165 0.6189 0.487 0.0
H1737 H 0.17258 0.61865 0.51683 0.0
H1738 H 0.13569 0.61676 0.5184 0.0
H1739 H 0.13465 0.61706 0.48857 0.0
H1740 H 0.12166 0.63461 0.50435 0.0
H1741 H 0.14856 0.70194 0.48325 0.0
H1742 H 0.14702 0.69583 0.44305 0.0
H1743 H 0.15134 0.63498 0.45544 0.0
C1744 C 0.15321 0.64865 0.54511 0.0
C1745 C 0.15291 0.66364 0.5608 0.0
C1746 C 0.15194 0.68275 0.55323 0.0
C1747 C 0.15118 0.68689 0.53049 0.0
C1748 C 0.15144 0.67178 0.51551 0.0
C1749 C 0.1525 0.65305 0.52248 0.0
C1750 C 0.15255 0.63946 0.50295 0.0
C1751 C 0.17126 0.62802 0.50206 0.0
C1752 C 0.1351 0.62619 0.50361 0.0
C1753 C 0.15122 0.65348 0.4839 0.0
C1754 C 0.1506 0.67204 0.49152 0.0
C1755 C 0.14918 0.68747 0.47708 0.0
C1756 C 0.14844 0.68384 0.45424 0.0
C1757 C 0.14918 0.66492 0.44597 0.0
C1758 C 0.15056 0.64959 0.46114 0.0
H1759 H 0.35272 0.16212 0.5481 0.0
H1760 H 0.35798 0.10161 0.56161 0.0
H1761 H 0.35796 0.09492 0.52141 0.0
H1762 H 0.32201 0.15812 0.49958 0.0
H1763 H 0.33356 0.1773 0.48491 0.0
H1764 H 0.33302 0.17732 0.51477 0.0
H1765 H 0.36988 0.17993 0.51577 0.0
H1766 H 0.37053 0.17991 0.48594 0.0
H1767 H 0.38407 0.16249 0.50129 0.0
H1768 H 0.35744 0.09473 0.48002 0.0
H1769 H 0.35781 0.10098 0.43991 0.0
H1770 H 0.35485 0.16188 0.45283 0.0
C1771 C 0.35365 0.14747 0.54252 0.0
C1772 C 0.35529 0.13235 0.5579 0.0
C1773 C 0.3568 0.11338 0.55006 0.0
C1774 C 0.35672 0.10944 0.52729 0.0
C1775 C 0.35526 0.12465 0.51254 0.0
C1776 C 0.35385 0.1433 0.51978 0.0
C1777 C 0.35327 0.15702 0.50035 0.0
C1778 C 0.33434 0.16809 0.49988 0.0
C1779 C 0.37046 0.17064 0.50087 0.0
C1780 C 0.35462 0.14317 0.4811 0.0
C1781 C 0.35559 0.12457 0.48855 0.0
C1782 C 0.35684 0.10924 0.47398 0.0
C1783 C 0.35721 0.11299 0.45117 0.0
C1784 C 0.35659 0.13196 0.44301 0.0
C1785 C 0.35518 0.1472 0.45835 0.0
H1786 H 0.85877 0.3399 0.4561 0.0
H1787 H 0.85195 0.40017 0.44198 0.0
H1788 H 0.84965 0.40688 0.48206 0.0
H1789 H 0.82642 0.3379 0.50303 0.0
H1790 H 0.84103 0.32144 0.51849 0.0
H1791 H 0.84156 0.32121 0.48863 0.0
H1792 H 0.87821 0.32597 0.48937 0.0
H1793 H 0.87779 0.32618 0.51921 0.0
H1794 H 0.88812 0.34591 0.5043 0.0
H1795 H 0.84801 0.40713 0.5234 0.0
H1796 H 0.84842 0.40118 0.56361 0.0
H1797 H 0.85766 0.34084 0.55134 0.0
C1798 C 0.85663 0.35447 0.46149 0.0
C1799 C 0.85555 0.36954 0.44596 0.0
C1800 C 0.853 0.38846 0.45362 0.0
C1801 C 0.85157 0.39239 0.47633 0.0
C1802 C 0.8528 0.37726 0.4912 0.0
C1803 C 0.85536 0.35868 0.48416 0.0
C1804 C 0.85684 0.34516 0.50371 0.0
C1805 C 0.84049 0.33057 0.50344 0.0
C1806 C 0.87641 0.33523 0.50417 0.0
C1807 C 0.85474 0.35906 0.52281 0.0
C1808 C 0.85229 0.37747 0.51518 0.0
C1809 C 0.85004 0.3928 0.52959 0.0
C1810 C 0.85044 0.38927 0.55245 0.0
C1811 C 0.85326 0.37056 0.56078 0.0
C1812 C 0.85531 0.35528 0.54562 0.0
H1813 H 0.65995 0.84653 0.55064 0.0
H1814 H 0.62588 0.89698 0.56353 0.0
H1815 H 0.62406 0.90339 0.52333 0.0
H1816 H 0.68689 0.8657 0.50453 0.0
H1817 H 0.68677 0.84365 0.48917 0.0
H1818 H 0.6858 0.84324 0.51901 0.0
H1819 H 0.6548 0.82318 0.51731 0.0
H1820 H 0.65567 0.82355 0.48748 0.0
H1821 H 0.63468 0.83195 0.50172 0.0
H1822 H 0.626 0.90446 0.48194 0.0
H1823 H 0.63045 0.89939 0.44179 0.0
H1824 H 0.66283 0.84794 0.45543 0.0
C1825 C 0.65225 0.859 0.54497 0.0
C1826 C 0.64305 0.87128 0.56018 0.0
C1827 C 0.63288 0.88731 0.55214 0.0
C1828 C 0.63185 0.89112 0.52937 0.0
C1829 C 0.64099 0.8787 0.51481 0.0
C1830 C 0.65092 0.86291 0.52224 0.0
C1831 C 0.659 0.85159 0.503 0.0
C1832 C 0.68092 0.85102 0.50399 0.0
C1833 C 0.65052 0.83137 0.50235 0.0
C1834 C 0.65207 0.86349 0.48362 0.0
C1835 C 0.64182 0.87913 0.49084 0.0
C1836 C 0.63403 0.89228 0.47608 0.0
C1837 C 0.63673 0.88934 0.45332 0.0
C1838 C 0.64704 0.87332 0.44548 0.0
C1839 C 0.65478 0.86025 0.46092 0.0
H1840 H 0.17554 0.5403 0.27207 0.0
H1841 H 0.11705 0.54403 0.2952 0.0
H1842 H 0.11135 0.51096 0.28314 0.0
H1843 H 0.16562 0.51373 0.22357 0.0
H1844 H 0.18672 0.49908 0.22493 0.0
H1845 H 0.18688 0.5226 0.23688 0.0
H1846 H 0.1972 0.50847 0.2747 0.0
H1847 H 0.19715 0.48488 0.26284 0.0
H1848 H 0.18311 0.48985 0.28719 0.0
H1849 H 0.11114 0.47864 0.2668 0.0
H1850 H 0.11654 0.44828 0.24723 0.0
H1851 H 0.17519 0.46468 0.2344 0.0
C1852 C 0.16166 0.53399 0.27492 0.0
C1853 C 0.1467 0.54473 0.28451 0.0
C1854 C 0.12863 0.53612 0.28767 0.0
C1855 C 0.12529 0.51732 0.281 0.0
C1856 C 0.14017 0.50724 0.27123 0.0
C1857 C 0.15803 0.51516 0.26824 0.0
C1858 C 0.17121 0.50136 0.25633 0.0
C1859 C 0.178 0.50969 0.23411 0.0
C1860 C 0.18817 0.49581 0.27115 0.0
C1861 C 0.15784 0.4846 0.25283 0.0
C1862 C 0.14005 0.48834 0.26169 0.0
C1863 C 0.12503 0.47547 0.2599 0.0
C1864 C 0.1282 0.45833 0.24862 0.0
C1865 C 0.14624 0.45418 0.23922 0.0
C1866 C 0.16131 0.46742 0.2416 0.0
H1867 H 0.54798 0.16198 0.25278 0.0
H1868 H 0.53567 0.17189 0.18324 0.0
H1869 H 0.50141 0.175 0.19199 0.0
H1870 H 0.50773 0.13329 0.26355 0.0
H1871 H 0.50351 0.14242 0.29104 0.0
H1872 H 0.52726 0.14259 0.27972 0.0
H1873 H 0.52955 0.17897 0.28662 0.0
H1874 H 0.50579 0.17891 0.29802 0.0
H1875 H 0.51156 0.19455 0.27528 0.0
H1876 H 0.46853 0.1752 0.20771 0.0
H1877 H 0.43888 0.17207 0.22938 0.0
H1878 H 0.47214 0.16167 0.28886 0.0
C1879 C 0.53809 0.16517 0.23949 0.0
C1880 C 0.54446 0.16674 0.21732 0.0
C1881 C 0.53106 0.17052 0.2003 0.0
C1882 C 0.5116 0.17241 0.20512 0.0
C1883 C 0.50575 0.17051 0.22707 0.0
C1884 C 0.51856 0.16699 0.244 0.0
C1885 C 0.50833 0.1645 0.26597 0.0
C1886 C 0.51192 0.14451 0.27563 0.0
C1887 C 0.51416 0.18017 0.28245 0.0
C1888 C 0.48777 0.16687 0.25865 0.0
C1889 C 0.48665 0.17047 0.23617 0.0
C1890 C 0.46922 0.17248 0.22535 0.0
C1891 C 0.45246 0.17057 0.23777 0.0
C1892 C 0.45319 0.16659 0.26079 0.0
C1893 C 0.47113 0.16497 0.27136 0.0
H1894 H 0.86396 0.53735 0.23001 0.0
H1895 H 0.80344 0.55044 0.22849 0.0
H1896 H 0.79626 0.51815 0.24248 0.0
H1897 H 0.85972 0.48816 0.21214 0.0
H1898 H 0.87859 0.47988 0.23002 0.0
H1899 H 0.87896 0.50395 0.21961 0.0
H1900 H 0.88111 0.51686 0.25978 0.0
H1901 H 0.88074 0.49284 0.27031 0.0
H1902 H 0.86332 0.5099 0.27977 0.0
H1903 H 0.79568 0.48462 0.2572 0.0
H1904 H 0.80176 0.45224 0.2717 0.0
H1905 H 0.86264 0.46096 0.26343 0.0
C1906 C 0.84918 0.53336 0.23236 0.0
C1907 C 0.83426 0.54647 0.22817 0.0
C1908 C 0.81512 0.54076 0.23184 0.0
C1909 C 0.81089 0.5224 0.23965 0.0
C1910 C 0.82594 0.50989 0.24369 0.0
C1911 C 0.8447 0.51511 0.24015 0.0
C1912 C 0.85823 0.49906 0.24617 0.0
C1913 C 0.86954 0.49237 0.22576 0.0
C1914 C 0.87164 0.50502 0.26513 0.0
C1915 C 0.84415 0.48402 0.2537 0.0
C1916 C 0.8256 0.49055 0.25211 0.0
C1917 C 0.81014 0.47935 0.25849 0.0
C1918 C 0.81375 0.46102 0.26681 0.0
C1919 C 0.83266 0.45405 0.26869 0.0
C1920 C 0.84801 0.46575 0.2619 0.0
H1921 H 0.54758 0.83697 0.25461 0.0
H1922 H 0.53468 0.8365 0.32487 0.0
H1923 H 0.50028 0.83396 0.31636 0.0
H1924 H 0.50938 0.86645 0.23915 0.0
H1925 H 0.50449 0.85464 0.21324 0.0
H1926 H 0.52819 0.85409 0.22468 0.0
H1927 H 0.52799 0.81717 0.22342 0.0
H1928 H 0.50428 0.8176 0.21187 0.0
H1929 H 0.50897 0.80428 0.23683 0.0
H1930 H 0.46748 0.83373 0.30047 0.0
H1931 H 0.43809 0.83638 0.27824 0.0
H1932 H 0.47195 0.83818 0.21805 0.0
C1933 C 0.53749 0.83585 0.26813 0.0
C1934 C 0.54369 0.83675 0.29039 0.0
C1935 C 0.53013 0.83579 0.30773 0.0
C1936 C 0.51062 0.83428 0.30305 0.0
C1937 C 0.5049 0.83381 0.28094 0.0
C1938 C 0.5179 0.83456 0.26373 0.0
C1939 C 0.50783 0.83527 0.24148 0.0
C1940 C 0.51277 0.85371 0.22891 0.0
C1941 C 0.51255 0.81752 0.22758 0.0
C1942 C 0.48717 0.83517 0.2489 0.0
C1943 C 0.48584 0.83411 0.27172 0.0
C1944 C 0.46833 0.83448 0.28258 0.0
C1945 C 0.45172 0.83614 0.26981 0.0
C1946 C 0.45269 0.83758 0.2464 0.0
C1947 C 0.4707 0.83685 0.23587 0.0
H1948 H 0.86085 0.54309 0.76664 0.0
H1949 H 0.80184 0.54794 0.78766 0.0
H1950 H 0.79608 0.51469 0.77592 0.0
H1951 H 0.85186 0.51452 0.71789 0.0
H1952 H 0.87316 0.50041 0.72127 0.0
H1953 H 0.87253 0.5246 0.73125 0.0
H1954 H 0.88211 0.51289 0.77045 0.0
H1955 H 0.88268 0.48865 0.76062 0.0
H1956 H 0.8679 0.4949 0.78396 0.0
H1957 H 0.79683 0.48082 0.76197 0.0
H1958 H 0.80405 0.44884 0.74703 0.0
H1959 H 0.86243 0.46645 0.73449 0.0
C1960 C 0.84665 0.53725 0.76855 0.0
C1961 C 0.83179 0.54815 0.77807 0.0
C1962 C 0.8135 0.53981 0.78064 0.0
C1963 C 0.81007 0.52097 0.77392 0.0
C1964 C 0.82507 0.51064 0.76467 0.0
C1965 C 0.84299 0.51848 0.76197 0.0
C1966 C 0.8567 0.50428 0.75179 0.0
C1967 C 0.86399 0.51138 0.72921 0.0
C1968 C 0.87333 0.49993 0.76766 0.0
C1969 C 0.8437 0.4872 0.74919 0.0
C1970 C 0.8255 0.49116 0.75668 0.0
C1971 C 0.81101 0.47758 0.75598 0.0
C1972 C 0.81523 0.45949 0.74735 0.0
C1973 C 0.8338 0.4551 0.73956 0.0
C1974 C 0.84816 0.46923 0.74056 0.0
H1975 H 0.54175 0.86213 0.74183 0.0
H1976 H 0.54552 0.8052 0.71389 0.0
H1977 H 0.5124 0.79883 0.72565 0.0
H1978 H 0.51429 0.84894 0.79009 0.0
H1979 H 0.50036 0.87055 0.78989 0.0
H1980 H 0.5243 0.87062 0.77906 0.0
H1981 H 0.51173 0.88388 0.7417 0.0
H1982 H 0.48774 0.88376 0.75237 0.0
H1983 H 0.49323 0.87118 0.72712 0.0
H1984 H 0.47872 0.79878 0.74023 0.0
H1985 H 0.44716 0.80491 0.75688 0.0
H1986 H 0.466 0.86138 0.77668 0.0
C1987 C 0.53573 0.84823 0.73838 0.0
C1988 C 0.54629 0.83418 0.72687 0.0
C1989 C 0.53767 0.8163 0.72239 0.0
C1990 C 0.5189 0.8125 0.72912 0.0
C1991 C 0.50891 0.82669 0.74037 0.0
C1992 C 0.51705 0.84418 0.74503 0.0
C1993 C 0.50327 0.85699 0.75736 0.0
C1994 C 0.51102 0.86207 0.78047 0.0
C1995 C 0.49873 0.87502 0.74382 0.0
C1996 C 0.48609 0.84398 0.7589 0.0
C1997 C 0.48962 0.82658 0.74898 0.0
C1998 C 0.47583 0.81231 0.74818 0.0
C1999 C 0.45798 0.81589 0.75782 0.0
C2000 C 0.45405 0.8336 0.76821 0.0
C2001 C 0.4684 0.84777 0.76868 0.0
H2002 H 0.15356 0.4687 0.78665 0.0
H2003 H 0.18118 0.43842 0.73277 0.0
H2004 H 0.18449 0.46868 0.71215 0.0
H2005 H 0.12673 0.501 0.75308 0.0
H2006 H 0.1296 0.52097 0.77159 0.0
H2007 H 0.12989 0.49703 0.78238 0.0
H2008 H 0.16294 0.50322 0.80025 0.0
H2009 H 0.16273 0.5272 0.78956 0.0
H2010 H 0.18234 0.51151 0.78319 0.0
H2011 H 0.18341 0.50196 0.69668 0.0
H2012 H 0.17915 0.53602 0.688 0.0
H2013 H 0.15334 0.54486 0.75265 0.0
C2014 C 0.16028 0.46844 0.7705 0.0
C2015 C 0.16714 0.4512 0.76132 0.0
C2016 C 0.17604 0.45149 0.74024 0.0
C2017 C 0.17789 0.46858 0.72836 0.0
C2018 C 0.17087 0.48529 0.73783 0.0
C2019 C 0.16237 0.48538 0.75849 0.0
C2020 C 0.15602 0.50528 0.76491 0.0
C2021 C 0.13427 0.50611 0.76818 0.0
C2022 C 0.16665 0.51221 0.78571 0.0
C2023 C 0.16209 0.51633 0.74453 0.0
C2024 C 0.17061 0.50453 0.72911 0.0
C2025 C 0.17697 0.51139 0.70875 0.0
C2026 C 0.1746 0.53083 0.70404 0.0
C2027 C 0.16605 0.5433 0.71968 0.0
C2028 C 0.15978 0.5358 0.74021 0.0
H2029 H 0.46376 0.14188 0.73428 0.0
H2030 H 0.45144 0.20257 0.73262 0.0
H2031 H 0.48345 0.20926 0.74771 0.0
H2032 H 0.48948 0.14262 0.78621 0.0
H2033 H 0.50634 0.12468 0.77759 0.0
H2034 H 0.48255 0.12475 0.7663 0.0
H2035 H 0.49651 0.12599 0.72656 0.0
H2036 H 0.52034 0.12603 0.73772 0.0
H2037 H 0.51286 0.1448 0.71925 0.0
H2038 H 0.51708 0.20933 0.76256 0.0
H2039 H 0.54941 0.20279 0.77676 0.0
H2040 H 0.53889 0.14197 0.77084 0.0
C2041 C 0.46764 0.15659 0.73731 0.0
C2042 C 0.45501 0.17169 0.73212 0.0
C2043 C 0.46091 0.19074 0.73605 0.0
C2044 C 0.47904 0.19469 0.74477 0.0
C2045 C 0.49111 0.17946 0.74963 0.0
C2046 C 0.48561 0.16079 0.74614 0.0
C2047 C 0.50121 0.147 0.75289 0.0
C2048 C 0.49449 0.134 0.77188 0.0
C2049 C 0.50813 0.13527 0.73291 0.0
C2050 C 0.51637 0.16084 0.76066 0.0
C2051 C 0.51029 0.17949 0.75859 0.0
C2052 C 0.52193 0.19477 0.76443 0.0
C2053 C 0.54025 0.19089 0.77264 0.0
C2054 C 0.54677 0.17185 0.77509 0.0
C2055 C 0.53453 0.15669 0.76898 0.0
H2056 H 0.64488 0.0464 0.7611 0.0
H2057 H 0.69049 0.04186 0.80955 0.0
H2058 H 0.69597 0.00848 0.79826 0.0
H2059 H 0.62599 0.99932 0.76946 0.0
H2060 H 0.62028 0.99574 0.74062 0.0
H2061 H 0.62031 0.01945 0.75209 0.0
H2062 H 0.64442 0.03024 0.72205 0.0
H2063 H 0.64448 0.00656 0.71051 0.0
H2064 H 0.66659 0.01749 0.71891 0.0
H2065 H 0.69624 0.97544 0.782 0.0
H2066 H 0.69097 0.94503 0.76231 0.0
H2067 H 0.64492 0.97104 0.72484 0.0
C2068 C 0.65593 0.03838 0.76949 0.0
C2069 C 0.66729 0.04684 0.7862 0.0
C2070 C 0.68179 0.03584 0.79648 0.0
C2071 C 0.68494 0.01682 0.79027 0.0
C2072 C 0.67347 0.00896 0.77378 0.0
C2073 C 0.65924 0.01937 0.76355 0.0
C2074 C 0.64879 0.0075 0.74645 0.0
C2075 C 0.62759 0.00538 0.75253 0.0
C2076 C 0.65122 0.01595 0.7231 0.0
C2077 C 0.65931 0.98874 0.74873 0.0
C2078 C 0.67354 0.9899 0.76452 0.0
C2079 C 0.68518 0.97438 0.76955 0.0
C2080 C 0.68215 0.9572 0.75818 0.0
C2081 C 0.66757 0.95564 0.74199 0.0
C2082 C 0.65606 0.9717 0.73727 0.0
H2083 H 0.97198 0.65036 0.79239 0.0
H2084 H 0.94227 0.68579 0.74441 0.0
H2085 H 0.97216 0.68982 0.72354 0.0
H2086 H 0.01684 0.67577 0.79154 0.0
H2087 H 0.0311 0.65445 0.7936 0.0
H2088 H 0.00753 0.65503 0.80548 0.0
H2089 H 0.99814 0.62529 0.78247 0.0
H2090 H 0.02166 0.62463 0.7705 0.0
H2091 H 1.00098 0.62571 0.75278 0.0
H2092 H 0.00499 0.68949 0.70727 0.0
H2093 H 0.03855 0.68438 0.69645 0.0
H2094 H 0.04689 0.64853 0.75431 0.0
C2095 C 0.97171 0.65894 0.77747 0.0
C2096 C 0.95471 0.66791 0.77024 0.0
C2097 C 0.95512 0.67911 0.75066 0.0
C2098 C 0.97202 0.68139 0.73855 0.0
C2099 C 0.98844 0.67231 0.74612 0.0
C2100 C 0.98845 0.66128 0.76509 0.0
C2101 C 0.00797 0.65269 0.76928 0.0
C2102 C 0.01635 0.65993 0.79128 0.0
C2103 C 0.00713 0.63078 0.76871 0.0
C2104 C 0.01888 0.66052 0.7496 0.0
C2105 C 0.00736 0.67189 0.73653 0.0
C2106 C 0.01418 0.68068 0.71742 0.0
C2107 C 0.03329 0.67777 0.71147 0.0
C2108 C 0.04537 0.66609 0.72454 0.0
C2109 C 0.03798 0.65739 0.74386 0.0
H2110 H 0.34769 0.03168 0.71659 0.0
H2111 H 0.33803 0.06451 0.77657 0.0
H2112 H 0.3357 0.03469 0.79806 0.0
H2113 H 0.31472 0.99332 0.72997 0.0
H2114 H 0.32964 0.97512 0.71795 0.0
H2115 H 0.33033 0.99908 0.7072 0.0
H2116 H 0.36686 1.00017 0.71371 0.0
H2117 H 0.36627 0.97626 0.72456 0.0
H2118 H 0.3762 0.9953 0.74098 0.0
H2119 H 0.33538 1.00145 0.81326 0.0
H2120 H 0.33665 0.96701 0.82109 0.0
H2121 H 0.34494 0.9556 0.75098 0.0
C2122 C 0.34483 0.03262 0.73419 0.0
C2123 C 0.34313 0.0505 0.74488 0.0
C2124 C 0.3397 0.05103 0.76803 0.0
C2125 C 0.33822 0.03416 0.78037 0.0
C2126 C 0.3401 0.01683 0.76934 0.0
C2127 C 0.34325 0.01591 0.74677 0.0
C2128 C 0.34495 0.99542 0.73903 0.0
C2129 C 0.32895 0.99045 0.72256 0.0
C2130 C 0.36475 0.99157 0.72898 0.0
C2131 C 0.3424 0.98498 0.76081 0.0
C2132 C 0.33961 0.99761 0.77808 0.0
C2133 C 0.33734 0.9914 0.79984 0.0
C2134 C 0.33794 0.97176 0.80409 0.0
C2135 C 0.34071 0.95847 0.78666 0.0
C2136 C 0.34292 0.9653 0.76473 0.0
H2137 H 0.0321 0.34838 0.79395 0.0
H2138 H 0.06332 0.31969 0.74149 0.0
H2139 H 0.03355 0.31629 0.7201 0.0
H2140 H 0.98877 0.32031 0.78953 0.0
H2141 H 0.97326 0.34032 0.79477 0.0
H2142 H 0.99693 0.33989 0.80642 0.0
H2143 H 0.00426 0.37244 0.78799 0.0
H2144 H 0.98064 0.37295 0.77625 0.0
H2145 H 1.00119 0.3751 0.75848 0.0
H2146 H 1.0008 0.31718 0.70363 0.0
H2147 H 0.96708 0.32186 0.69342 0.0
H2148 H 0.95683 0.34948 0.75676 0.0
C2149 C 0.03268 0.34138 0.77797 0.0
C2150 C 0.05007 0.33418 0.7695 0.0
C2151 C 0.05015 0.32501 0.74855 0.0
C2152 C 0.03333 0.32311 0.73619 0.0
C2153 C 0.01648 0.33042 0.74498 0.0
C2154 C 0.01599 0.33932 0.7654 0.0
C2155 C 0.99601 0.34615 0.77086 0.0
C2156 C 0.98829 0.33606 0.79163 0.0
C2157 C 0.9955 0.36795 0.77354 0.0
C2158 C 0.98543 0.33987 0.7502 0.0
C2159 C 0.99751 0.33081 0.73551 0.0
C2160 C 0.99114 0.32409 0.71509 0.0
C2161 C 0.9719 0.32671 0.70951 0.0
C2162 C 0.95917 0.33593 0.7243 0.0
C2163 C 0.96615 0.34252 0.74496 0.0
H2164 H 0.34332 0.03347 0.28554 0.0
H2165 H 0.32731 0.06421 0.22589 0.0
H2166 H 0.32416 0.03373 0.20584 0.0
H2167 H 0.37122 0.99821 0.25946 0.0
H2168 H 0.36381 0.979 0.27734 0.0
H2169 H 0.36376 0.00314 0.28748 0.0
H2170 H 0.32802 1.00007 0.29782 0.0
H2171 H 0.32799 0.97586 0.28784 0.0
H2172 H 0.31108 0.99283 0.27697 0.0
H2173 H 0.32471 1.00016 0.19164 0.0
H2174 H 0.32833 0.96582 0.18438 0.0
H2175 H 0.3424 0.95657 0.25372 0.0
C2176 C 0.33879 0.03379 0.26838 0.0
C2177 C 0.33562 0.05128 0.25729 0.0
C2178 C 0.33007 0.05104 0.23468 0.0
C2179 C 0.32812 0.03378 0.22318 0.0
C2180 C 0.33164 0.01684 0.23451 0.0
C2181 C 0.33673 0.01667 0.25664 0.0
C2182 C 0.3403 0.99651 0.2647 0.0
C2183 C 0.361 0.99408 0.27271 0.0
C2184 C 0.32599 0.991 0.28291 0.0
C2185 C 0.3367 0.98541 0.24356 0.0
C2186 C 0.33166 0.99741 0.22638 0.0
C2187 C 0.32837 0.99058 0.20505 0.0
C2188 C 0.33033 0.97097 0.20113 0.0
C2189 C 0.33549 0.9583 0.21848 0.0
C2190 C 0.33856 0.96576 0.24001 0.0
H2191 H 0.95804 0.3519 0.25083 0.0
H2192 H 0.96516 0.31527 0.30827 0.0
H2193 H 0.99861 0.30937 0.29753 0.0
H2194 H 0.9873 0.32355 0.21322 0.0
H2195 H 0.99694 0.3442 0.19941 0.0
H2196 H 0.9734 0.34512 0.21134 0.0
H2197 H 0.98325 0.37461 0.23455 0.0
H2198 H 0.00682 0.37373 0.22277 0.0
H2199 H 0.00381 0.37314 0.25243 0.0
H2200 H 0.03169 0.30852 0.28138 0.0
H2201 H 0.06185 0.31263 0.26093 0.0
H2202 H 0.03266 0.34847 0.21295 0.0
C2203 C 0.96651 0.34239 0.26098 0.0
C2204 C 0.95892 0.3341 0.28045 0.0
C2205 C 0.97068 0.32203 0.29347 0.0
C2206 C 0.98967 0.31847 0.28742 0.0
C2207 C 0.99671 0.32699 0.26824 0.0
C2208 C 0.98547 0.33863 0.25516 0.0
C2209 C 0.99661 0.34636 0.23561 0.0
C2210 C 0.98805 0.33938 0.21359 0.0
C2211 C 0.99769 0.36826 0.2364 0.0
C2212 C 0.01594 0.3374 0.23988 0.0
C2213 C 0.01568 0.32625 0.25875 0.0
C2214 C 0.032 0.31703 0.26642 0.0
C2215 C 0.04906 0.31934 0.25457 0.0
C2216 C 0.04971 0.33076 0.23516 0.0
C2217 C 0.03278 0.33975 0.22775 0.0
H2218 H 0.6639 0.97103 0.28467 0.0
H2219 H 0.67243 0.93812 0.2246 0.0
H2220 H 0.67515 0.96795 0.20305 0.0
H2221 H 0.63491 0.00667 0.26063 0.0
H2222 H 0.64457 0.026 0.27679 0.0
H2223 H 0.64467 0.00215 0.28779 0.0
H2224 H 0.68123 0.00411 0.29372 0.0
H2225 H 0.68123 0.02803 0.28283 0.0
H2226 H 0.69645 0.01014 0.27069 0.0
H2227 H 0.67547 1.00123 0.1878 0.0
H2228 H 0.67285 0.03562 0.17978 0.0
H2229 H 0.66437 0.04698 0.24984 0.0
C2230 C 0.66669 0.97013 0.26705 0.0
C2231 C 0.66802 0.95227 0.2563 0.0
C2232 C 0.67126 0.95166 0.23313 0.0
C2233 C 0.67292 0.96851 0.22078 0.0
C2234 C 0.6713 0.98587 0.23184 0.0
C2235 C 0.66828 0.98682 0.25445 0.0
C2236 C 0.66618 0.00729 0.26211 0.0
C2237 C 0.6464 0.01072 0.27243 0.0
C2238 C 0.68223 0.01271 0.27829 0.0
C2239 C 0.66825 0.01768 0.24023 0.0
C2240 C 0.67134 0.00507 0.22301 0.0
C2241 C 0.67324 0.01126 0.20118 0.0
C2242 C 0.67183 0.03085 0.19681 0.0
C2243 C 0.66849 0.04406 0.21417 0.0
C2244 C 0.66681 0.03728 0.23617 0.0
H2245 H 0.03287 0.66211 0.28922 0.0
H2246 H 0.06505 0.67865 0.23086 0.0
H2247 H 0.03511 0.68125 0.20956 0.0
H2248 H 0.99889 0.63351 0.2615 0.0
H2249 H 0.97901 0.64052 0.27859 0.0
H2250 H 0.00283 0.64095 0.28974 0.0
H2251 H 0.99878 0.67656 0.30012 0.0
H2252 H 0.97488 0.67621 0.28914 0.0
H2253 H 0.99186 0.69344 0.27906 0.0
H2254 H 1.00208 0.68037 0.19406 0.0
H2255 H 0.96797 0.67666 0.18543 0.0
H2256 H 0.95682 0.66184 0.25414 0.0
C2257 C 0.03359 0.66661 0.27207 0.0
C2258 C 0.05132 0.67014 0.26169 0.0
C2259 C 0.05166 0.67566 0.23909 0.0
C2260 C 0.03473 0.67728 0.22689 0.0
C2261 C 0.01753 0.67342 0.23751 0.0
C2262 C 0.01679 0.6683 0.25961 0.0
C2263 C 0.99645 0.66436 0.26681 0.0
C2264 C 0.99417 0.6436 0.27462 0.0
C2265 C 0.99012 0.67849 0.28485 0.0
C2266 C 0.98593 0.66784 0.24523 0.0
C2267 C 0.99837 0.67311 0.22858 0.0
C2268 C 0.99215 0.67651 0.20703 0.0
C2269 C 0.97268 0.67447 0.20233 0.0
C2270 C 0.95956 0.66913 0.21911 0.0
C2271 C 0.96641 0.66584 0.24087 0.0
loop_
_geom_bond_atom_site_label_1
_geom_bond_atom_site_label_2
_geom_bond_distance
_geom_bond_site_symmetry_2
_ccdc_geom_bond_type
Li0 N17 1.990 . S
Li0 O60 1.956 . S
Li0 O61 1.970 . S
Li0 O62 1.961 . S
Li1 N25 1.990 . S
Li1 O60 1.970 . S
Li1 O61 1.956 . S
Li1 O63 1.961 . S
Li2 N47 1.990 . S
Li2 O60 1.961 . S
Li2 O62 1.956 . S
Li2 O63 1.970 . S
Li3 N53 1.990 . S
Li3 O61 1.961 . S
Li3 O62 1.970 . S
Li3 O63 1.956 . S
C4 C6 1.348 . S
C4 C7 1.356 . S
C4 O60 1.325 . S
N5 C8 1.314 . S
N5 C9 1.279 . S
C6 C4 1.348 . S
C6 C8 1.353 . S
C6 H64 0.929 . S
C7 C4 1.356 . S
C7 C9 1.358 . S
C7 H65 0.930 . S
C8 N5 1.314 . S
C8 C6 1.353 . S
C8 H66 0.930 . S
C9 N5 1.279 . S
C9 C7 1.358 . S
C9 H67 0.930 . S
C10 C13 1.348 . S
C10 C14 1.356 . S
C10 O61 1.325 . S
C11 N12 1.279 . S
C11 C14 1.358 . S
C11 H68 0.930 . S
N12 C11 1.279 . S
N12 C15 1.314 . S
C13 C10 1.348 . S
C13 C15 1.353 . S
C13 H69 0.929 . S
C14 C10 1.356 . S
C14 C11 1.358 . S
C14 H70 0.930 . S
C15 N12 1.314 . S
C15 C13 1.353 . S
C15 H71 0.930 . S
C16 N17 1.314 . S
C16 C21 1.353 . S
C16 H22 0.930 . S
N17 Li0 1.990 . S
N17 C16 1.314 . S
N17 C19 1.279 . S
C18 C19 1.358 . S
C18 C20 1.356 . S
C18 H72 0.930 . S
C19 N17 1.279 . S
C19 C18 1.358 . S
C19 H23 0.930 . S
C20 C18 1.356 . S
C20 C21 1.348 . S
C21 C16 1.353 . S
C21 C20 1.348 . S
C21 H73 0.929 . S
H22 C16 0.930 . S
H23 C19 0.930 . S
C24 N25 1.314 . S
C24 C26 1.353 . S
C24 H30 0.930 . S
N25 Li1 1.990 . S
N25 C24 1.314 . S
N25 C28 1.279 . S
C26 C24 1.353 . S
C26 C29 1.348 . S
C26 H74 0.929 . S
C27 C28 1.358 . S
C27 C29 1.356 . S
C27 H75 0.930 . S
C28 N25 1.279 . S
C28 C27 1.358 . S
C28 H31 0.930 . S
C29 C26 1.348 . S
C29 C27 1.356 . S
H30 C24 0.930 . S
H31 C28 0.930 . S
C32 C34 1.348 . S
C32 C35 1.356 . S
C32 O62 1.325 . S
N33 C36 1.314 . S
N33 C37 1.279 . S
C34 C32 1.348 . S
C34 C36 1.353 . S
C34 H76 0.929 . S
C35 C32 1.356 . S
C35 C37 1.358 . S
C35 H77 0.930 . S
C36 N33 1.314 . S
C36 C34 1.353 . S
C36 H78 0.930 . S
C37 N33 1.279 . S
C37 C35 1.358 . S
C37 H79 0.930 . S
C38 C39 1.348 . S
C38 C40 1.356 . S
C38 O63 1.325 . S
C39 C38 1.348 . S
C39 C41 1.353 . S
C39 H80 0.929 . S
C40 C38 1.356 . S
C40 C42 1.358 . S
C40 H81 0.930 . S
C41 C39 1.353 . S
C41 N43 1.314 . S
C41 H82 0.930 . S
C42 C40 1.358 . S
C42 N43 1.279 . S
C42 H83 0.930 . S
N43 C41 1.314 . S
N43 C42 1.279 . S
C44 C46 1.353 . S
C44 N47 1.314 . S
C44 H50 0.930 . S
C45 N47 1.279 . S
C45 C48 1.358 . S
C45 H51 0.930 . S
C46 C44 1.353 . S
C46 C49 1.348 . S
C46 H84 0.929 . S
N47 Li2 1.990 . S
N47 C44 1.314 . S
N47 C45 1.279 . S
C48 C45 1.358 . S
C48 C49 1.356 . S
C48 H85 0.930 . S
C49 C46 1.348 . S
C49 C48 1.356 . S
H50 C44 0.930 . S
H51 C45 0.930 . S
C52 N53 1.314 . S
C52 C54 1.353 . S
C52 H58 0.930 . S
N53 Li3 1.990 . S
N53 C52 1.314 . S
N53 C56 1.279 . S
C54 C52 1.353 . S
C54 C57 1.348 . S
C54 H86 0.929 . S
C55 C56 1.358 . S
C55 C57 1.356 . S
C55 H87 0.930 . S
C56 N53 1.279 . S
C56 C55 1.358 . S
C56 H59 0.930 . S
C57 C54 1.348 . S
C57 C55 1.356 . S
H58 C52 0.930 . S
H59 C56 0.930 . S
O60 Li0 1.956 . S
O60 Li1 1.970 . S
O60 Li2 1.961 . S
O60 C4 1.325 . S
O61 Li0 1.970 . S
O61 Li1 1.956 . S
O61 Li3 1.961 . S
O61 C10 1.325 . S
O62 Li0 1.961 . S
O62 Li2 1.956 . S
O62 Li3 1.970 . S
O62 C32 1.325 . S
O63 Li1 1.961 . S
O63 Li2 1.970 . S
O63 Li3 1.956 . S
O63 C38 1.325 . S
H64 C6 0.929 . S
H65 C7 0.930 . S
H66 C8 0.930 . S
H67 C9 0.930 . S
H68 C11 0.930 . S
H69 C13 0.929 . S
H70 C14 0.930 . S
H71 C15 0.930 . S
H72 C18 0.930 . S
H73 C21 0.929 . S
H74 C26 0.929 . S
H75 C27 0.930 . S
H76 C34 0.929 . S
H77 C35 0.930 . S
H78 C36 0.930 . S
H79 C37 0.930 . S
H80 C39 0.929 . S
H81 C40 0.930 . S
H82 C41 0.930 . S
H83 C42 0.930 . S
H84 C46 0.929 . S
H85 C48 0.930 . S
H86 C54 0.929 . S
H87 C55 0.930 . S
Li88 N105 1.990 . S
Li88 O148 1.956 . S
Li88 O149 1.970 . S
Li88 O150 1.961 . S
Li89 N113 1.990 . S
Li89 O148 1.970 . S
Li89 O149 1.956 . S
Li89 O151 1.961 . S
Li90 N135 1.990 . S
Li90 O148 1.961 . S
Li90 O150 1.956 . S
Li90 O151 1.970 . S
Li91 N141 1.990 . S
Li91 O149 1.961 . S
Li91 O150 1.970 . S
Li91 O151 1.956 . S
C92 C94 1.348 . S
C92 C95 1.356 . S
C92 O148 1.325 . S
N93 C96 1.314 . S
N93 C97 1.279 . S
C94 C92 1.348 . S
C94 C96 1.353 . S
C94 H152 0.929 . S
C95 C92 1.356 . S
C95 C97 1.358 . S
C95 H153 0.930 . S
C96 N93 1.314 . S
C96 C94 1.353 . S
C96 H154 0.930 . S
C97 N93 1.279 . S
C97 C95 1.358 . S
C97 H155 0.930 . S
C98 C101 1.348 . S
C98 C102 1.356 . S
C98 O149 1.325 . S
C99 N100 1.279 . S
C99 C102 1.358 . S
C99 H156 0.930 . S
N100 C99 1.279 . S
N100 C103 1.314 . S
C101 C98 1.348 . S
C101 C103 1.353 . S
C101 H157 0.929 . S
C102 C98 1.356 . S
C102 C99 1.358 . S
C102 H158 0.930 . S
C103 N100 1.314 . S
C103 C101 1.353 . S
C103 H159 0.930 . S
C104 N105 1.314 . S
C104 C109 1.353 . S
C104 H110 0.930 . S
N105 Li88 1.990 . S
N105 C104 1.314 . S
N105 C107 1.279 . S
C106 C107 1.358 . S
C106 C108 1.356 . S
C106 H160 0.930 . S
C107 N105 1.279 . S
C107 C106 1.358 . S
C107 H111 0.930 . S
C108 C106 1.356 . S
C108 C109 1.348 . S
C109 C104 1.353 . S
C109 C108 1.348 . S
C109 H161 0.929 . S
H110 C104 0.930 . S
H111 C107 0.930 . S
C112 N113 1.314 . S
C112 C114 1.353 . S
C112 H118 0.930 . S
N113 Li89 1.990 . S
N113 C112 1.314 . S
N113 C116 1.279 . S
C114 C112 1.353 . S
C114 C117 1.348 . S
C114 H162 0.929 . S
C115 C116 1.358 . S
C115 C117 1.356 . S
C115 H163 0.930 . S
C116 N113 1.279 . S
C116 C115 1.358 . S
C116 H119 0.930 . S
C117 C114 1.348 . S
C117 C115 1.356 . S
H118 C112 0.930 . S
H119 C116 0.930 . S
C120 C122 1.348 . S
C120 C123 1.356 . S
C120 O150 1.325 . S
N121 C124 1.314 . S
N121 C125 1.279 . S
C122 C120 1.348 . S
C122 C124 1.353 . S
C122 H164 0.929 . S
C123 C120 1.356 . S
C123 C125 1.358 . S
C123 H165 0.930 . S
C124 N121 1.314 . S
C124 C122 1.353 . S
C124 H166 0.930 . S
C125 N121 1.279 . S
C125 C123 1.358 . S
C125 H167 0.930 . S
C126 C127 1.348 . S
C126 C128 1.356 . S
C126 O151 1.325 . S
C127 C126 1.348 . S
C127 C129 1.353 . S
C127 H168 0.929 . S
C128 C126 1.356 . S
C128 C130 1.358 . S
C128 H169 0.930 . S
C129 C127 1.353 . S
C129 N131 1.314 . S
C129 H170 0.930 . S
C130 C128 1.358 . S
C130 N131 1.279 . S
C130 H171 0.930 . S
N131 C129 1.314 . S
N131 C130 1.279 . S
C132 C134 1.353 . S
C132 N135 1.314 . S
C132 H138 0.930 . S
C133 N135 1.279 . S
C133 C136 1.358 . S
C133 H139 0.930 . S
C134 C132 1.353 . S
C134 C137 1.348 . S
C134 H172 0.929 . S
N135 Li90 1.990 . S
N135 C132 1.314 . S
N135 C133 1.279 . S
C136 C133 1.358 . S
C136 C137 1.356 . S
C136 H173 0.930 . S
C137 C134 1.348 . S
C137 C136 1.356 . S
H138 C132 0.930 . S
H139 C133 0.930 . S
C140 N141 1.314 . S
C140 C142 1.353 . S
C140 H146 0.930 . S
N141 Li91 1.990 . S
N141 C140 1.314 . S
N141 C144 1.279 . S
C142 C140 1.353 . S
C142 C145 1.348 . S
C142 H174 0.929 . S
C143 C144 1.358 . S
C143 C145 1.356 . S
C143 H175 0.930 . S
C144 N141 1.279 . S
C144 C143 1.358 . S
C144 H147 0.930 . S
C145 C142 1.348 . S
C145 C143 1.356 . S
H146 C140 0.930 . S
H147 C144 0.930 . S
O148 Li88 1.956 . S
O148 Li89 1.970 . S
O148 Li90 1.961 . S
O148 C92 1.325 . S
O149 Li88 1.970 . S
O149 Li89 1.956 . S
O149 Li91 1.961 . S
O149 C98 1.325 . S
O150 Li88 1.961 . S
O150 Li90 1.956 . S
O150 Li91 1.970 . S
O150 C120 1.325 . S
O151 Li89 1.961 . S
O151 Li90 1.970 . S
O151 Li91 1.956 . S
O151 C126 1.325 . S
H152 C94 0.929 . S
H153 C95 0.930 . S
H154 C96 0.930 . S
H155 C97 0.930 . S
H156 C99 0.930 . S
H157 C101 0.929 . S
H158 C102 0.930 . S
H159 C103 0.930 . S
H160 C106 0.930 . S
H161 C109 0.929 . S
H162 C114 0.929 . S
H163 C115 0.930 . S
H164 C122 0.929 . S
H165 C123 0.930 . S
H166 C124 0.930 . S
H167 C125 0.930 . S
H168 C127 0.929 . S
H169 C128 0.930 . S
H170 C129 0.930 . S
H171 C130 0.930 . S
H172 C134 0.929 . S
H173 C136 0.930 . S
H174 C142 0.929 . S
H175 C143 0.930 . S
Li176 N193 1.990 . S
Li176 O236 1.956 . S
Li176 O237 1.970 . S
Li176 O238 1.961 . S
Li177 N201 1.990 . S
Li177 O236 1.970 . S
Li177 O237 1.956 . S
Li177 O239 1.961 . S
Li178 N223 1.990 . S
Li178 O236 1.961 . S
Li178 O238 1.956 . S
Li178 O239 1.970 . S
Li179 N229 1.990 . S
Li179 O237 1.961 . S
Li179 O238 1.970 . S
Li179 O239 1.956 . S
C180 C182 1.348 . S
C180 C183 1.356 . S
C180 O236 1.325 . S
N181 C184 1.314 . S
N181 C185 1.279 . S
C182 C180 1.348 . S
C182 C184 1.353 . S
C182 H240 0.929 . S
C183 C180 1.356 . S
C183 C185 1.358 . S
C183 H241 0.930 . S
C184 N181 1.314 . S
C184 C182 1.353 . S
C184 H242 0.930 . S
C185 N181 1.279 . S
C185 C183 1.358 . S
C185 H243 0.930 . S
C186 C189 1.348 . S
C186 C190 1.356 . S
C186 O237 1.325 . S
C187 N188 1.279 . S
C187 C190 1.358 . S
C187 H244 0.930 . S
N188 C187 1.279 . S
N188 C191 1.314 . S
C189 C186 1.348 . S
C189 C191 1.353 . S
C189 H245 0.929 . S
C190 C186 1.356 . S
C190 C187 1.358 . S
C190 H246 0.930 . S
C191 N188 1.314 . S
C191 C189 1.353 . S
C191 H247 0.930 . S
C192 N193 1.314 . S
C192 C197 1.353 . S
C192 H198 0.930 . S
N193 Li176 1.990 . S
N193 C192 1.314 . S
N193 C195 1.279 . S
C194 C195 1.358 . S
C194 C196 1.356 . S
C194 H248 0.930 . S
C195 N193 1.279 . S
C195 C194 1.358 . S
C195 H199 0.930 . S
C196 C194 1.356 . S
C196 C197 1.348 . S
C197 C192 1.353 . S
C197 C196 1.348 . S
C197 H249 0.929 . S
H198 C192 0.930 . S
H199 C195 0.930 . S
C200 N201 1.314 . S
C200 C202 1.353 . S
C200 H206 0.930 . S
N201 Li177 1.990 . S
N201 C200 1.314 . S
N201 C204 1.279 . S
C202 C200 1.353 . S
C202 C205 1.348 . S
C202 H250 0.929 . S
C203 C204 1.358 . S
C203 C205 1.356 . S
C203 H251 0.930 . S
C204 N201 1.279 . S
C204 C203 1.358 . S
C204 H207 0.930 . S
C205 C202 1.348 . S
C205 C203 1.356 . S
H206 C200 0.930 . S
H207 C204 0.930 . S
C208 C210 1.348 . S
C208 C211 1.356 . S
C208 O238 1.325 . S
N209 C212 1.314 . S
N209 C213 1.279 . S
C210 C208 1.348 . S
C210 C212 1.353 . S
C210 H252 0.929 . S
C211 C208 1.356 . S
C211 C213 1.358 . S
C211 H253 0.930 . S
C212 N209 1.314 . S
C212 C210 1.353 . S
C212 H254 0.930 . S
C213 N209 1.279 . S
C213 C211 1.358 . S
C213 H255 0.930 . S
C214 C215 1.348 . S
C214 C216 1.356 . S
C214 O239 1.325 . S
C215 C214 1.348 . S
C215 C217 1.353 . S
C215 H256 0.929 . S
C216 C214 1.356 . S
C216 C218 1.358 . S
C216 H257 0.930 . S
C217 C215 1.353 . S
C217 N219 1.314 . S
C217 H258 0.930 . S
C218 C216 1.358 . S
C218 N219 1.279 . S
C218 H259 0.930 . S
N219 C217 1.314 . S
N219 C218 1.279 . S
C220 C222 1.353 . S
C220 N223 1.314 . S
C220 H226 0.930 . S
C221 N223 1.279 . S
C221 C224 1.358 . S
C221 H227 0.930 . S
C222 C220 1.353 . S
C222 C225 1.348 . S
C222 H260 0.929 . S
N223 Li178 1.990 . S
N223 C220 1.314 . S
N223 C221 1.279 . S
C224 C221 1.358 . S
C224 C225 1.356 . S
C224 H261 0.930 . S
C225 C222 1.348 . S
C225 C224 1.356 . S
H226 C220 0.930 . S
H227 C221 0.930 . S
C228 N229 1.314 . S
C228 C230 1.353 . S
C228 H234 0.930 . S
N229 Li179 1.990 . S
N229 C228 1.314 . S
N229 C232 1.279 . S
C230 C228 1.353 . S
C230 C233 1.348 . S
C230 H262 0.929 . S
C231 C232 1.358 . S
C231 C233 1.356 . S
C231 H263 0.930 . S
C232 N229 1.279 . S
C232 C231 1.358 . S
C232 H235 0.930 . S
C233 C230 1.348 . S
C233 C231 1.356 . S
H234 C228 0.930 . S
H235 C232 0.930 . S
O236 Li176 1.956 . S
O236 Li177 1.970 . S
O236 Li178 1.961 . S
O236 C180 1.325 . S
O237 Li176 1.970 . S
O237 Li177 1.956 . S
O237 Li179 1.961 . S
O237 C186 1.325 . S
O238 Li176 1.961 . S
O238 Li178 1.956 . S
O238 Li179 1.970 . S
O238 C208 1.325 . S
O239 Li177 1.961 . S
O239 Li178 1.970 . S
O239 Li179 1.956 . S
O239 C214 1.325 . S
H240 C182 0.929 . S
H241 C183 0.930 . S
H242 C184 0.930 . S
H243 C185 0.930 . S
H244 C187 0.930 . S
H245 C189 0.929 . S
H246 C190 0.930 . S
H247 C191 0.930 . S
H248 C194 0.930 . S
H249 C197 0.929 . S
H250 C202 0.929 . S
H251 C203 0.930 . S
H252 C210 0.929 . S
H253 C211 0.930 . S
H254 C212 0.930 . S
H255 C213 0.930 . S
H256 C215 0.929 . S
H257 C216 0.930 . S
H258 C217 0.930 . S
H259 C218 0.930 . S
H260 C222 0.929 . S
H261 C224 0.930 . S
H262 C230 0.929 . S
H263 C231 0.930 . S
Li264 N281 1.990 . S
Li264 O324 1.956 . S
Li264 O325 1.970 . S
Li264 O326 1.961 . S
Li265 N289 1.990 . S
Li265 O324 1.970 . S
Li265 O325 1.956 . S
Li265 O327 1.961 . S
Li266 N311 1.990 . S
Li266 O324 1.961 . S
Li266 O326 1.956 . S
Li266 O327 1.970 . S
Li267 N317 1.990 . S
Li267 O325 1.961 . S
Li267 O326 1.970 . S
Li267 O327 1.956 . S
C268 C270 1.348 . S
C268 C271 1.356 . S
C268 O324 1.325 . S
N269 C272 1.314 . S
N269 C273 1.279 . S
C270 C268 1.348 . S
C270 C272 1.353 . S
C270 H328 0.929 . S
C271 C268 1.356 . S
C271 C273 1.358 . S
C271 H329 0.930 . S
C272 N269 1.314 . S
C272 C270 1.353 . S
C272 H330 0.930 . S
C273 N269 1.279 . S
C273 C271 1.358 . S
C273 H331 0.930 . S
C274 C277 1.348 . S
C274 C278 1.356 . S
C274 O325 1.325 . S
C275 N276 1.279 . S
C275 C278 1.358 . S
C275 H332 0.930 . S
N276 C275 1.279 . S
N276 C279 1.314 . S
C277 C274 1.348 . S
C277 C279 1.353 . S
C277 H333 0.929 . S
C278 C274 1.356 . S
C278 C275 1.358 . S
C278 H334 0.930 . S
C279 N276 1.314 . S
C279 C277 1.353 . S
C279 H335 0.930 . S
C280 N281 1.314 . S
C280 C285 1.353 . S
C280 H286 0.930 . S
N281 Li264 1.990 . S
N281 C280 1.314 . S
N281 C283 1.279 . S
C282 C283 1.358 . S
C282 C284 1.356 . S
C282 H336 0.930 . S
C283 N281 1.279 . S
C283 C282 1.358 . S
C283 H287 0.930 . S
C284 C282 1.356 . S
C284 C285 1.348 . S
C285 C280 1.353 . S
C285 C284 1.348 . S
C285 H337 0.929 . S
H286 C280 0.930 . S
H287 C283 0.930 . S
C288 N289 1.314 . S
C288 C290 1.353 . S
C288 H294 0.930 . S
N289 Li265 1.990 . S
N289 C288 1.314 . S
N289 C292 1.279 . S
C290 C288 1.353 . S
C290 C293 1.348 . S
C290 H338 0.929 . S
C291 C292 1.358 . S
C291 C293 1.356 . S
C291 H339 0.930 . S
C292 N289 1.279 . S
C292 C291 1.358 . S
C292 H295 0.930 . S
C293 C290 1.348 . S
C293 C291 1.356 . S
H294 C288 0.930 . S
H295 C292 0.930 . S
C296 C298 1.348 . S
C296 C299 1.356 . S
C296 O326 1.325 . S
N297 C300 1.314 . S
N297 C301 1.279 . S
C298 C296 1.348 . S
C298 C300 1.353 . S
C298 H340 0.929 . S
C299 C296 1.356 . S
C299 C301 1.358 . S
C299 H341 0.930 . S
C300 N297 1.314 . S
C300 C298 1.353 . S
C300 H342 0.930 . S
C301 N297 1.279 . S
C301 C299 1.358 . S
C301 H343 0.930 . S
C302 C303 1.348 . S
C302 C304 1.356 . S
C302 O327 1.325 . S
C303 C302 1.348 . S
C303 C305 1.353 . S
C303 H344 0.929 . S
C304 C302 1.356 . S
C304 C306 1.358 . S
C304 H345 0.930 . S
C305 C303 1.353 . S
C305 N307 1.314 . S
C305 H346 0.930 . S
C306 C304 1.358 . S
C306 N307 1.279 . S
C306 H347 0.930 . S
N307 C305 1.314 . S
N307 C306 1.279 . S
C308 C310 1.353 . S
C308 N311 1.314 . S
C308 H314 0.930 . S
C309 N311 1.279 . S
C309 C312 1.358 . S
C309 H315 0.930 . S
C310 C308 1.353 . S
C310 C313 1.348 . S
C310 H348 0.929 . S
N311 Li266 1.990 . S
N311 C308 1.314 . S
N311 C309 1.279 . S
C312 C309 1.358 . S
C312 C313 1.356 . S
C312 H349 0.930 . S
C313 C310 1.348 . S
C313 C312 1.356 . S
H314 C308 0.930 . S
H315 C309 0.930 . S
C316 N317 1.314 . S
C316 C318 1.353 . S
C316 H322 0.930 . S
N317 Li267 1.990 . S
N317 C316 1.314 . S
N317 C320 1.279 . S
C318 C316 1.353 . S
C318 C321 1.348 . S
C318 H350 0.929 . S
C319 C320 1.358 . S
C319 C321 1.356 . S
C319 H351 0.930 . S
C320 N317 1.279 . S
C320 C319 1.358 . S
C320 H323 0.930 . S
C321 C318 1.348 . S
C321 C319 1.356 . S
H322 C316 0.930 . S
H323 C320 0.930 . S
O324 Li264 1.956 . S
O324 Li265 1.970 . S
O324 Li266 1.961 . S
O324 C268 1.325 . S
O325 Li264 1.970 . S
O325 Li265 1.956 . S
O325 Li267 1.961 . S
O325 C274 1.325 . S
O326 Li264 1.961 . S
O326 Li266 1.956 . S
O326 Li267 1.970 . S
O326 C296 1.325 . S
O327 Li265 1.961 . S
O327 Li266 1.970 . S
O327 Li267 1.956 . S
O327 C302 1.325 . S
H328 C270 0.929 . S
H329 C271 0.930 . S
H330 C272 0.930 . S
H331 C273 0.930 . S
H332 C275 0.930 . S
H333 C277 0.929 . S
H334 C278 0.930 . S
H335 C279 0.930 . S
H336 C282 0.930 . S
H337 C285 0.929 . S
H338 C290 0.929 . S
H339 C291 0.930 . S
H340 C298 0.929 . S
H341 C299 0.930 . S
H342 C300 0.930 . S
H343 C301 0.930 . S
H344 C303 0.929 . S
H345 C304 0.930 . S
H346 C305 0.930 . S
H347 C306 0.930 . S
H348 C310 0.929 . S
H349 C312 0.930 . S
H350 C318 0.929 . S
H351 C319 0.930 . S
Li352 N369 1.990 . S
Li352 O412 1.956 . S
Li352 O413 1.970 . S
Li352 O414 1.961 . S
Li353 N377 1.990 . S
Li353 O412 1.970 . S
Li353 O413 1.956 . S
Li353 O415 1.961 . S
Li354 N399 1.990 . S
Li354 O412 1.961 . S
Li354 O414 1.956 . S
Li354 O415 1.970 . S
Li355 N405 1.990 . S
Li355 O413 1.961 . S
Li355 O414 1.970 . S
Li355 O415 1.956 . S
C356 C358 1.348 . S
C356 C359 1.356 . S
C356 O412 1.325 . S
N357 C360 1.314 . S
N357 C361 1.279 . S
C358 C356 1.348 . S
C358 C360 1.353 . S
C358 H416 0.929 . S
C359 C356 1.356 . S
C359 C361 1.358 . S
C359 H417 0.930 . S
C360 N357 1.314 . S
C360 C358 1.353 . S
C360 H418 0.930 . S
C361 N357 1.279 . S
C361 C359 1.358 . S
C361 H419 0.930 . S
C362 C365 1.348 . S
C362 C366 1.356 . S
C362 O413 1.325 . S
C363 N364 1.279 . S
C363 C366 1.358 . S
C363 H420 0.930 . S
N364 C363 1.279 . S
N364 C367 1.314 . S
C365 C362 1.348 . S
C365 C367 1.353 . S
C365 H421 0.929 . S
C366 C362 1.356 . S
C366 C363 1.358 . S
C366 H422 0.930 . S
C367 N364 1.314 . S
C367 C365 1.353 . S
C367 H423 0.930 . S
C368 N369 1.314 . S
C368 C373 1.353 . S
C368 H374 0.930 . S
N369 Li352 1.990 . S
N369 C368 1.314 . S
N369 C371 1.279 . S
C370 C371 1.358 . S
C370 C372 1.356 . S
C370 H424 0.930 . S
C371 N369 1.279 . S
C371 C370 1.358 . S
C371 H375 0.930 . S
C372 C370 1.356 . S
C372 C373 1.348 . S
C373 C368 1.353 . S
C373 C372 1.348 . S
C373 H425 0.929 . S
H374 C368 0.930 . S
H375 C371 0.930 . S
C376 N377 1.314 . S
C376 C378 1.353 . S
C376 H382 0.930 . S
N377 Li353 1.990 . S
N377 C376 1.314 . S
N377 C380 1.279 . S
C378 C376 1.353 . S
C378 C381 1.348 . S
C378 H426 0.929 . S
C379 C380 1.358 . S
C379 C381 1.356 . S
C379 H427 0.930 . S
C380 N377 1.279 . S
C380 C379 1.358 . S
C380 H383 0.930 . S
C381 C378 1.348 . S
C381 C379 1.356 . S
H382 C376 0.930 . S
H383 C380 0.930 . S
C384 C386 1.348 . S
C384 C387 1.356 . S
C384 O414 1.325 . S
N385 C388 1.314 . S
N385 C389 1.279 . S
C386 C384 1.348 . S
C386 C388 1.353 . S
C386 H428 0.929 . S
C387 C384 1.356 . S
C387 C389 1.358 . S
C387 H429 0.930 . S
C388 N385 1.314 . S
C388 C386 1.353 . S
C388 H430 0.930 . S
C389 N385 1.279 . S
C389 C387 1.358 . S
C389 H431 0.930 . S
C390 C391 1.348 . S
C390 C392 1.356 . S
C390 O415 1.325 . S
C391 C390 1.348 . S
C391 C393 1.353 . S
C391 H432 0.929 . S
C392 C390 1.356 . S
C392 C394 1.358 . S
C392 H433 0.930 . S
C393 C391 1.353 . S
C393 N395 1.314 . S
C393 H434 0.930 . S
C394 C392 1.358 . S
C394 N395 1.279 . S
C394 H435 0.930 . S
N395 C393 1.314 . S
N395 C394 1.279 . S
C396 C398 1.353 . S
C396 N399 1.314 . S
C396 H402 0.930 . S
C397 N399 1.279 . S
C397 C400 1.358 . S
C397 H403 0.930 . S
C398 C396 1.353 . S
C398 C401 1.348 . S
C398 H436 0.929 . S
N399 Li354 1.990 . S
N399 C396 1.314 . S
N399 C397 1.279 . S
C400 C397 1.358 . S
C400 C401 1.356 . S
C400 H437 0.930 . S
C401 C398 1.348 . S
C401 C400 1.356 . S
H402 C396 0.930 . S
H403 C397 0.930 . S
C404 N405 1.314 . S
C404 C406 1.353 . S
C404 H410 0.930 . S
N405 Li355 1.990 . S
N405 C404 1.314 . S
N405 C408 1.279 . S
C406 C404 1.353 . S
C406 C409 1.348 . S
C406 H438 0.929 . S
C407 C408 1.358 . S
C407 C409 1.356 . S
C407 H439 0.930 . S
C408 N405 1.279 . S
C408 C407 1.358 . S
C408 H411 0.930 . S
C409 C406 1.348 . S
C409 C407 1.356 . S
H410 C404 0.930 . S
H411 C408 0.930 . S
O412 Li352 1.956 . S
O412 Li353 1.970 . S
O412 Li354 1.961 . S
O412 C356 1.325 . S
O413 Li352 1.970 . S
O413 Li353 1.956 . S
O413 Li355 1.961 . S
O413 C362 1.325 . S
O414 Li352 1.961 . S
O414 Li354 1.956 . S
O414 Li355 1.970 . S
O414 C384 1.325 . S
O415 Li353 1.961 . S
O415 Li354 1.970 . S
O415 Li355 1.956 . S
O415 C390 1.325 . S
H416 C358 0.929 . S
H417 C359 0.930 . S
H418 C360 0.930 . S
H419 C361 0.930 . S
H420 C363 0.930 . S
H421 C365 0.929 . S
H422 C366 0.930 . S
H423 C367 0.930 . S
H424 C370 0.930 . S
H425 C373 0.929 . S
H426 C378 0.929 . S
H427 C379 0.930 . S
H428 C386 0.929 . S
H429 C387 0.930 . S
H430 C388 0.930 . S
H431 C389 0.930 . S
H432 C391 0.929 . S
H433 C392 0.930 . S
H434 C393 0.930 . S
H435 C394 0.930 . S
H436 C398 0.929 . S
H437 C400 0.930 . S
H438 C406 0.929 . S
H439 C407 0.930 . S
Li440 N457 1.990 . S
Li440 O500 1.956 . S
Li440 O501 1.970 . S
Li440 O502 1.961 . S
Li441 N465 1.990 . S
Li441 O500 1.970 . S
Li441 O501 1.956 . S
Li441 O503 1.961 . S
Li442 N487 1.990 . S
Li442 O500 1.961 . S
Li442 O502 1.956 . S
Li442 O503 1.970 . S
Li443 N493 1.990 . S
Li443 O501 1.961 . S
Li443 O502 1.970 . S
Li443 O503 1.956 . S
C444 C446 1.348 . S
C444 C447 1.356 . S
C444 O500 1.325 . S
N445 C448 1.314 . S
N445 C449 1.279 . S
C446 C444 1.348 . S
C446 C448 1.353 . S
C446 H504 0.929 . S
C447 C444 1.356 . S
C447 C449 1.358 . S
C447 H505 0.930 . S
C448 N445 1.314 . S
C448 C446 1.353 . S
C448 H506 0.930 . S
C449 N445 1.279 . S
C449 C447 1.358 . S
C449 H507 0.930 . S
C450 C453 1.348 . S
C450 C454 1.356 . S
C450 O501 1.325 . S
C451 N452 1.279 . S
C451 C454 1.358 . S
C451 H508 0.930 . S
N452 C451 1.279 . S
N452 C455 1.314 . S
C453 C450 1.348 . S
C453 C455 1.353 . S
C453 H509 0.929 . S
C454 C450 1.356 . S
C454 C451 1.358 . S
C454 H510 0.930 . S
C455 N452 1.314 . S
C455 C453 1.353 . S
C455 H511 0.930 . S
C456 N457 1.314 . S
C456 C461 1.353 . S
C456 H462 0.930 . S
N457 Li440 1.990 . S
N457 C456 1.314 . S
N457 C459 1.279 . S
C458 C459 1.358 . S
C458 C460 1.356 . S
C458 H512 0.930 . S
C459 N457 1.279 . S
C459 C458 1.358 . S
C459 H463 0.930 . S
C460 C458 1.356 . S
C460 C461 1.348 . S
C461 C456 1.353 . S
C461 C460 1.348 . S
C461 H513 0.929 . S
H462 C456 0.930 . S
H463 C459 0.930 . S
C464 N465 1.314 . S
C464 C466 1.353 . S
C464 H470 0.930 . S
N465 Li441 1.990 . S
N465 C464 1.314 . S
N465 C468 1.279 . S
C466 C464 1.353 . S
C466 C469 1.348 . S
C466 H514 0.929 . S
C467 C468 1.358 . S
C467 C469 1.356 . S
C467 H515 0.930 . S
C468 N465 1.279 . S
C468 C467 1.358 . S
C468 H471 0.930 . S
C469 C466 1.348 . S
C469 C467 1.356 . S
H470 C464 0.930 . S
H471 C468 0.930 . S
C472 C474 1.348 . S
C472 C475 1.356 . S
C472 O502 1.325 . S
N473 C476 1.314 . S
N473 C477 1.279 . S
C474 C472 1.348 . S
C474 C476 1.353 . S
C474 H516 0.929 . S
C475 C472 1.356 . S
C475 C477 1.358 . S
C475 H517 0.930 . S
C476 N473 1.314 . S
C476 C474 1.353 . S
C476 H518 0.930 . S
C477 N473 1.279 . S
C477 C475 1.358 . S
C477 H519 0.930 . S
C478 C479 1.348 . S
C478 C480 1.356 . S
C478 O503 1.325 . S
C479 C478 1.348 . S
C479 C481 1.353 . S
C479 H520 0.929 . S
C480 C478 1.356 . S
C480 C482 1.358 . S
C480 H521 0.930 . S
C481 C479 1.353 . S
C481 N483 1.314 . S
C481 H522 0.930 . S
C482 C480 1.358 . S
C482 N483 1.279 . S
C482 H523 0.930 . S
N483 C481 1.314 . S
N483 C482 1.279 . S
C484 C486 1.353 . S
C484 N487 1.314 . S
C484 H490 0.930 . S
C485 N487 1.279 . S
C485 C488 1.358 . S
C485 H491 0.930 . S
C486 C484 1.353 . S
C486 C489 1.348 . S
C486 H524 0.929 . S
N487 Li442 1.990 . S
N487 C484 1.314 . S
N487 C485 1.279 . S
C488 C485 1.358 . S
C488 C489 1.356 . S
C488 H525 0.930 . S
C489 C486 1.348 . S
C489 C488 1.356 . S
H490 C484 0.930 . S
H491 C485 0.930 . S
C492 N493 1.314 . S
C492 C494 1.353 . S
C492 H498 0.930 . S
N493 Li443 1.990 . S
N493 C492 1.314 . S
N493 C496 1.279 . S
C494 C492 1.353 . S
C494 C497 1.348 . S
C494 H526 0.929 . S
C495 C496 1.358 . S
C495 C497 1.356 . S
C495 H527 0.930 . S
C496 N493 1.279 . S
C496 C495 1.358 . S
C496 H499 0.930 . S
C497 C494 1.348 . S
C497 C495 1.356 . S
H498 C492 0.930 . S
H499 C496 0.930 . S
O500 Li440 1.956 . S
O500 Li441 1.970 . S
O500 Li442 1.961 . S
O500 C444 1.325 . S
O501 Li440 1.970 . S
O501 Li441 1.956 . S
O501 Li443 1.961 . S
O501 C450 1.325 . S
O502 Li440 1.961 . S
O502 Li442 1.956 . S
O502 Li443 1.970 . S
O502 C472 1.325 . S
O503 Li441 1.961 . S
O503 Li442 1.970 . S
O503 Li443 1.956 . S
O503 C478 1.325 . S
H504 C446 0.929 . S
H505 C447 0.930 . S
H506 C448 0.930 . S
H507 C449 0.930 . S
H508 C451 0.930 . S
H509 C453 0.929 . S
H510 C454 0.930 . S
H511 C455 0.930 . S
H512 C458 0.930 . S
H513 C461 0.929 . S
H514 C466 0.929 . S
H515 C467 0.930 . S
H516 C474 0.929 . S
H517 C475 0.930 . S
H518 C476 0.930 . S
H519 C477 0.930 . S
H520 C479 0.929 . S
H521 C480 0.930 . S
H522 C481 0.930 . S
H523 C482 0.930 . S
H524 C486 0.929 . S
H525 C488 0.930 . S
H526 C494 0.929 . S
H527 C495 0.930 . S
Li528 N545 1.990 . S
Li528 O588 1.956 . S
Li528 O589 1.970 . S
Li528 O590 1.961 . S
Li529 N553 1.990 . S
Li529 O588 1.970 . S
Li529 O589 1.956 . S
Li529 O591 1.961 . S
Li530 N575 1.990 . S
Li530 O588 1.961 . S
Li530 O590 1.956 . S
Li530 O591 1.970 . S
Li531 N581 1.990 . S
Li531 O589 1.961 . S
Li531 O590 1.970 . S
Li531 O591 1.956 . S
C532 C534 1.348 . S
C532 C535 1.356 . S
C532 O588 1.325 . S
N533 C536 1.314 . S
N533 C537 1.279 . S
C534 C532 1.348 . S
C534 C536 1.353 . S
C534 H592 0.929 . S
C535 C532 1.356 . S
C535 C537 1.358 . S
C535 H593 0.930 . S
C536 N533 1.314 . S
C536 C534 1.353 . S
C536 H594 0.930 . S
C537 N533 1.279 . S
C537 C535 1.358 . S
C537 H595 0.930 . S
C538 C541 1.348 . S
C538 C542 1.356 . S
C538 O589 1.325 . S
C539 N540 1.279 . S
C539 C542 1.358 . S
C539 H596 0.930 . S
N540 C539 1.279 . S
N540 C543 1.314 . S
C541 C538 1.348 . S
C541 C543 1.353 . S
C541 H597 0.929 . S
C542 C538 1.356 . S
C542 C539 1.358 . S
C542 H598 0.930 . S
C543 N540 1.314 . S
C543 C541 1.353 . S
C543 H599 0.930 . S
C544 N545 1.314 . S
C544 C549 1.353 . S
C544 H550 0.930 . S
N545 Li528 1.990 . S
N545 C544 1.314 . S
N545 C547 1.279 . S
C546 C547 1.358 . S
C546 C548 1.356 . S
C546 H600 0.930 . S
C547 N545 1.279 . S
C547 C546 1.358 . S
C547 H551 0.930 . S
C548 C546 1.356 . S
C548 C549 1.348 . S
C549 C544 1.353 . S
C549 C548 1.348 . S
C549 H601 0.929 . S
H550 C544 0.930 . S
H551 C547 0.930 . S
C552 N553 1.314 . S
C552 C554 1.353 . S
C552 H558 0.930 . S
N553 Li529 1.990 . S
N553 C552 1.314 . S
N553 C556 1.279 . S
C554 C552 1.353 . S
C554 C557 1.348 . S
C554 H602 0.929 . S
C555 C556 1.358 . S
C555 C557 1.356 . S
C555 H603 0.930 . S
C556 N553 1.279 . S
C556 C555 1.358 . S
C556 H559 0.930 . S
C557 C554 1.348 . S
C557 C555 1.356 . S
H558 C552 0.930 . S
H559 C556 0.930 . S
C560 C562 1.348 . S
C560 C563 1.356 . S
C560 O590 1.325 . S
N561 C564 1.314 . S
N561 C565 1.279 . S
C562 C560 1.348 . S
C562 C564 1.353 . S
C562 H604 0.929 . S
C563 C560 1.356 . S
C563 C565 1.358 . S
C563 H605 0.930 . S
C564 N561 1.314 . S
C564 C562 1.353 . S
C564 H606 0.930 . S
C565 N561 1.279 . S
C565 C563 1.358 . S
C565 H607 0.930 . S
C566 C567 1.348 . S
C566 C568 1.356 . S
C566 O591 1.325 . S
C567 C566 1.348 . S
C567 C569 1.353 . S
C567 H608 0.929 . S
C568 C566 1.356 . S
C568 C570 1.358 . S
C568 H609 0.930 . S
C569 C567 1.353 . S
C569 N571 1.314 . S
C569 H610 0.930 . S
C570 C568 1.358 . S
C570 N571 1.279 . S
C570 H611 0.930 . S
N571 C569 1.314 . S
N571 C570 1.279 . S
C572 C574 1.353 . S
C572 N575 1.314 . S
C572 H578 0.930 . S
C573 N575 1.279 . S
C573 C576 1.358 . S
C573 H579 0.930 . S
C574 C572 1.353 . S
C574 C577 1.348 . S
C574 H612 0.929 . S
N575 Li530 1.990 . S
N575 C572 1.314 . S
N575 C573 1.279 . S
C576 C573 1.358 . S
C576 C577 1.356 . S
C576 H613 0.930 . S
C577 C574 1.348 . S
C577 C576 1.356 . S
H578 C572 0.930 . S
H579 C573 0.930 . S
C580 N581 1.314 . S
C580 C582 1.353 . S
C580 H586 0.930 . S
N581 Li531 1.990 . S
N581 C580 1.314 . S
N581 C584 1.279 . S
C582 C580 1.353 . S
C582 C585 1.348 . S
C582 H614 0.929 . S
C583 C584 1.358 . S
C583 C585 1.356 . S
C583 H615 0.930 . S
C584 N581 1.279 . S
C584 C583 1.358 . S
C584 H587 0.930 . S
C585 C582 1.348 . S
C585 C583 1.356 . S
H586 C580 0.930 . S
H587 C584 0.930 . S
O588 Li528 1.956 . S
O588 Li529 1.970 . S
O588 Li530 1.961 . S
O588 C532 1.325 . S
O589 Li528 1.970 . S
O589 Li529 1.956 . S
O589 Li531 1.961 . S
O589 C538 1.325 . S
O590 Li528 1.961 . S
O590 Li530 1.956 . S
O590 Li531 1.970 . S
O590 C560 1.325 . S
O591 Li529 1.961 . S
O591 Li530 1.970 . S
O591 Li531 1.956 . S
O591 C566 1.325 . S
H592 C534 0.929 . S
H593 C535 0.930 . S
H594 C536 0.930 . S
H595 C537 0.930 . S
H596 C539 0.930 . S
H597 C541 0.929 . S
H598 C542 0.930 . S
H599 C543 0.930 . S
H600 C546 0.930 . S
H601 C549 0.929 . S
H602 C554 0.929 . S
H603 C555 0.930 . S
H604 C562 0.929 . S
H605 C563 0.930 . S
H606 C564 0.930 . S
H607 C565 0.930 . S
H608 C567 0.929 . S
H609 C568 0.930 . S
H610 C569 0.930 . S
H611 C570 0.930 . S
H612 C574 0.929 . S
H613 C576 0.930 . S
H614 C582 0.929 . S
H615 C583 0.930 . S
Li616 N633 1.990 . S
Li616 O676 1.956 . S
Li616 O677 1.970 . S
Li616 O678 1.961 . S
Li617 N641 1.990 . S
Li617 O676 1.970 . S
Li617 O677 1.956 . S
Li617 O679 1.961 . S
Li618 N663 1.990 . S
Li618 O676 1.961 . S
Li618 O678 1.956 . S
Li618 O679 1.970 . S
Li619 N669 1.990 . S
Li619 O677 1.961 . S
Li619 O678 1.970 . S
Li619 O679 1.956 . S
C620 C622 1.348 . S
C620 C623 1.356 . S
C620 O676 1.325 . S
N621 C624 1.314 . S
N621 C625 1.279 . S
C622 C620 1.348 . S
C622 C624 1.353 . S
C622 H680 0.929 . S
C623 C620 1.356 . S
C623 C625 1.358 . S
C623 H681 0.930 . S
C624 N621 1.314 . S
C624 C622 1.353 . S
C624 H682 0.930 . S
C625 N621 1.279 . S
C625 C623 1.358 . S
C625 H683 0.930 . S
C626 C629 1.348 . S
C626 C630 1.356 . S
C626 O677 1.325 . S
C627 N628 1.279 . S
C627 C630 1.358 . S
C627 H684 0.930 . S
N628 C627 1.279 . S
N628 C631 1.314 . S
C629 C626 1.348 . S
C629 C631 1.353 . S
C629 H685 0.929 . S
C630 C626 1.356 . S
C630 C627 1.358 . S
C630 H686 0.930 . S
C631 N628 1.314 . S
C631 C629 1.353 . S
C631 H687 0.930 . S
C632 N633 1.314 . S
C632 C637 1.353 . S
C632 H638 0.930 . S
N633 Li616 1.990 . S
N633 C632 1.314 . S
N633 C635 1.279 . S
C634 C635 1.358 . S
C634 C636 1.356 . S
C634 H688 0.930 . S
C635 N633 1.279 . S
C635 C634 1.358 . S
C635 H639 0.930 . S
C636 C634 1.356 . S
C636 C637 1.348 . S
C637 C632 1.353 . S
C637 C636 1.348 . S
C637 H689 0.929 . S
H638 C632 0.930 . S
H639 C635 0.930 . S
C640 N641 1.314 . S
C640 C642 1.353 . S
C640 H646 0.930 . S
N641 Li617 1.990 . S
N641 C640 1.314 . S
N641 C644 1.279 . S
C642 C640 1.353 . S
C642 C645 1.348 . S
C642 H690 0.929 . S
C643 C644 1.358 . S
C643 C645 1.356 . S
C643 H691 0.930 . S
C644 N641 1.279 . S
C644 C643 1.358 . S
C644 H647 0.930 . S
C645 C642 1.348 . S
C645 C643 1.356 . S
H646 C640 0.930 . S
H647 C644 0.930 . S
C648 C650 1.348 . S
C648 C651 1.356 . S
C648 O678 1.325 . S
N649 C652 1.314 . S
N649 C653 1.279 . S
C650 C648 1.348 . S
C650 C652 1.353 . S
C650 H692 0.929 . S
C651 C648 1.356 . S
C651 C653 1.358 . S
C651 H693 0.930 . S
C652 N649 1.314 . S
C652 C650 1.353 . S
C652 H694 0.930 . S
C653 N649 1.279 . S
C653 C651 1.358 . S
C653 H695 0.930 . S
C654 C655 1.348 . S
C654 C656 1.356 . S
C654 O679 1.325 . S
C655 C654 1.348 . S
C655 C657 1.353 . S
C655 H696 0.929 . S
C656 C654 1.356 . S
C656 C658 1.358 . S
C656 H697 0.930 . S
C657 C655 1.353 . S
C657 N659 1.314 . S
C657 H698 0.930 . S
C658 C656 1.358 . S
C658 N659 1.279 . S
C658 H699 0.930 . S
N659 C657 1.314 . S
N659 C658 1.279 . S
C660 C662 1.353 . S
C660 N663 1.314 . S
C660 H666 0.930 . S
C661 N663 1.279 . S
C661 C664 1.358 . S
C661 H667 0.930 . S
C662 C660 1.353 . S
C662 C665 1.348 . S
C662 H700 0.929 . S
N663 Li618 1.990 . S
N663 C660 1.314 . S
N663 C661 1.279 . S
C664 C661 1.358 . S
C664 C665 1.356 . S
C664 H701 0.930 . S
C665 C662 1.348 . S
C665 C664 1.356 . S
H666 C660 0.930 . S
H667 C661 0.930 . S
C668 N669 1.314 . S
C668 C670 1.353 . S
C668 H674 0.930 . S
N669 Li619 1.990 . S
N669 C668 1.314 . S
N669 C672 1.279 . S
C670 C668 1.353 . S
C670 C673 1.348 . S
C670 H702 0.929 . S
C671 C672 1.358 . S
C671 C673 1.356 . S
C671 H703 0.930 . S
C672 N669 1.279 . S
C672 C671 1.358 . S
C672 H675 0.930 . S
C673 C670 1.348 . S
C673 C671 1.356 . S
H674 C668 0.930 . S
H675 C672 0.930 . S
O676 Li616 1.956 . S
O676 Li617 1.970 . S
O676 Li618 1.961 . S
O676 C620 1.325 . S
O677 Li616 1.970 . S
O677 Li617 1.956 . S
O677 Li619 1.961 . S
O677 C626 1.325 . S
O678 Li616 1.961 . S
O678 Li618 1.956 . S
O678 Li619 1.970 . S
O678 C648 1.325 . S
O679 Li617 1.961 . S
O679 Li618 1.970 . S
O679 Li619 1.956 . S
O679 C654 1.325 . S
H680 C622 0.929 . S
H681 C623 0.930 . S
H682 C624 0.930 . S
H683 C625 0.930 . S
H684 C627 0.930 . S
H685 C629 0.929 . S
H686 C630 0.930 . S
H687 C631 0.930 . S
H688 C634 0.930 . S
H689 C637 0.929 . S
H690 C642 0.929 . S
H691 C643 0.930 . S
H692 C650 0.929 . S
H693 C651 0.930 . S
H694 C652 0.930 . S
H695 C653 0.930 . S
H696 C655 0.929 . S
H697 C656 0.930 . S
H698 C657 0.930 . S
H699 C658 0.930 . S
H700 C662 0.929 . S
H701 C664 0.930 . S
H702 C670 0.929 . S
H703 C671 0.930 . S
Li704 N721 1.990 . S
Li704 O764 1.956 . S
Li704 O765 1.970 . S
Li704 O766 1.961 . S
Li705 N729 1.990 . S
Li705 O764 1.970 . S
Li705 O765 1.956 . S
Li705 O767 1.961 . S
Li706 N751 1.990 . S
Li706 O764 1.961 . S
Li706 O766 1.956 . S
Li706 O767 1.970 . S
Li707 N757 1.990 . S
Li707 O765 1.961 . S
Li707 O766 1.970 . S
Li707 O767 1.956 . S
C708 C710 1.348 . S
C708 C711 1.356 . S
C708 O764 1.325 . S
N709 C712 1.314 . S
N709 C713 1.279 . S
C710 C708 1.348 . S
C710 C712 1.353 . S
C710 H768 0.929 . S
C711 C708 1.356 . S
C711 C713 1.358 . S
C711 H769 0.930 . S
C712 N709 1.314 . S
C712 C710 1.353 . S
C712 H770 0.930 . S
C713 N709 1.279 . S
C713 C711 1.358 . S
C713 H771 0.930 . S
C714 C717 1.348 . S
C714 C718 1.356 . S
C714 O765 1.325 . S
C715 N716 1.279 . S
C715 C718 1.358 . S
C715 H772 0.930 . S
N716 C715 1.279 . S
N716 C719 1.314 . S
C717 C714 1.348 . S
C717 C719 1.353 . S
C717 H773 0.929 . S
C718 C714 1.356 . S
C718 C715 1.358 . S
C718 H774 0.930 . S
C719 N716 1.314 . S
C719 C717 1.353 . S
C719 H775 0.930 . S
C720 N721 1.314 . S
C720 C725 1.353 . S
C720 H726 0.930 . S
N721 Li704 1.990 . S
N721 C720 1.314 . S
N721 C723 1.279 . S
C722 C723 1.358 . S
C722 C724 1.356 . S
C722 H776 0.930 . S
C723 N721 1.279 . S
C723 C722 1.358 . S
C723 H727 0.930 . S
C724 C722 1.356 . S
C724 C725 1.348 . S
C725 C720 1.353 . S
C725 C724 1.348 . S
C725 H777 0.929 . S
H726 C720 0.930 . S
H727 C723 0.930 . S
C728 N729 1.314 . S
C728 C730 1.353 . S
C728 H734 0.930 . S
N729 Li705 1.990 . S
N729 C728 1.314 . S
N729 C732 1.279 . S
C730 C728 1.353 . S
C730 C733 1.348 . S
C730 H778 0.929 . S
C731 C732 1.358 . S
C731 C733 1.356 . S
C731 H779 0.930 . S
C732 N729 1.279 . S
C732 C731 1.358 . S
C732 H735 0.930 . S
C733 C730 1.348 . S
C733 C731 1.356 . S
H734 C728 0.930 . S
H735 C732 0.930 . S
C736 C738 1.348 . S
C736 C739 1.356 . S
C736 O766 1.325 . S
N737 C740 1.314 . S
N737 C741 1.279 . S
C738 C736 1.348 . S
C738 C740 1.353 . S
C738 H780 0.929 . S
C739 C736 1.356 . S
C739 C741 1.358 . S
C739 H781 0.930 . S
C740 N737 1.314 . S
C740 C738 1.353 . S
C740 H782 0.930 . S
C741 N737 1.279 . S
C741 C739 1.358 . S
C741 H783 0.930 . S
C742 C743 1.348 . S
C742 C744 1.356 . S
C742 O767 1.325 . S
C743 C742 1.348 . S
C743 C745 1.353 . S
C743 H784 0.929 . S
C744 C742 1.356 . S
C744 C746 1.358 . S
C744 H785 0.930 . S
C745 C743 1.353 . S
C745 N747 1.314 . S
C745 H786 0.930 . S
C746 C744 1.358 . S
C746 N747 1.279 . S
C746 H787 0.930 . S
N747 C745 1.314 . S
N747 C746 1.279 . S
C748 C750 1.353 . S
C748 N751 1.314 . S
C748 H754 0.930 . S
C749 N751 1.279 . S
C749 C752 1.358 . S
C749 H755 0.930 . S
C750 C748 1.353 . S
C750 C753 1.348 . S
C750 H788 0.929 . S
N751 Li706 1.990 . S
N751 C748 1.314 . S
N751 C749 1.279 . S
C752 C749 1.358 . S
C752 C753 1.356 . S
C752 H789 0.930 . S
C753 C750 1.348 . S
C753 C752 1.356 . S
H754 C748 0.930 . S
H755 C749 0.930 . S
C756 N757 1.314 . S
C756 C758 1.353 . S
C756 H762 0.930 . S
N757 Li707 1.990 . S
N757 C756 1.314 . S
N757 C760 1.279 . S
C758 C756 1.353 . S
C758 C761 1.348 . S
C758 H790 0.929 . S
C759 C760 1.358 . S
C759 C761 1.356 . S
C759 H791 0.930 . S
C760 N757 1.279 . S
C760 C759 1.358 . S
C760 H763 0.930 . S
C761 C758 1.348 . S
C761 C759 1.356 . S
H762 C756 0.930 . S
H763 C760 0.930 . S
O764 Li704 1.956 . S
O764 Li705 1.970 . S
O764 Li706 1.961 . S
O764 C708 1.325 . S
O765 Li704 1.970 . S
O765 Li705 1.956 . S
O765 Li707 1.961 . S
O765 C714 1.325 . S
O766 Li704 1.961 . S
O766 Li706 1.956 . S
O766 Li707 1.970 . S
O766 C736 1.325 . S
O767 Li705 1.961 . S
O767 Li706 1.970 . S
O767 Li707 1.956 . S
O767 C742 1.325 . S
H768 C710 0.929 . S
H769 C711 0.930 . S
H770 C712 0.930 . S
H771 C713 0.930 . S
H772 C715 0.930 . S
H773 C717 0.929 . S
H774 C718 0.930 . S
H775 C719 0.930 . S
H776 C722 0.930 . S
H777 C725 0.929 . S
H778 C730 0.929 . S
H779 C731 0.930 . S
H780 C738 0.929 . S
H781 C739 0.930 . S
H782 C740 0.930 . S
H783 C741 0.930 . S
H784 C743 0.929 . S
H785 C744 0.930 . S
H786 C745 0.930 . S
H787 C746 0.930 . S
H788 C750 0.929 . S
H789 C752 0.930 . S
H790 C758 0.929 . S
H791 C759 0.930 . S
Li792 N809 1.990 . S
Li792 O852 1.956 . S
Li792 O853 1.970 . S
Li792 O854 1.961 . S
Li793 N817 1.990 . S
Li793 O852 1.970 . S
Li793 O853 1.956 . S
Li793 O855 1.961 . S
Li794 N839 1.990 . S
Li794 O852 1.961 . S
Li794 O854 1.956 . S
Li794 O855 1.970 . S
Li795 N845 1.990 . S
Li795 O853 1.961 . S
Li795 O854 1.970 . S
Li795 O855 1.956 . S
C796 C798 1.348 . S
C796 C799 1.356 . S
C796 O852 1.325 . S
N797 C800 1.314 . S
N797 C801 1.279 . S
C798 C796 1.348 . S
C798 C800 1.353 . S
C798 H856 0.929 . S
C799 C796 1.356 . S
C799 C801 1.358 . S
C799 H857 0.930 . S
C800 N797 1.314 . S
C800 C798 1.353 . S
C800 H858 0.930 . S
C801 N797 1.279 . S
C801 C799 1.358 . S
C801 H859 0.930 . S
C802 C805 1.348 . S
C802 C806 1.356 . S
C802 O853 1.325 . S
C803 N804 1.279 . S
C803 C806 1.358 . S
C803 H860 0.930 . S
N804 C803 1.279 . S
N804 C807 1.314 . S
C805 C802 1.348 . S
C805 C807 1.353 . S
C805 H861 0.929 . S
C806 C802 1.356 . S
C806 C803 1.358 . S
C806 H862 0.930 . S
C807 N804 1.314 . S
C807 C805 1.353 . S
C807 H863 0.930 . S
C808 N809 1.314 . S
C808 C813 1.353 . S
C808 H814 0.930 . S
N809 Li792 1.990 . S
N809 C808 1.314 . S
N809 C811 1.279 . S
C810 C811 1.358 . S
C810 C812 1.356 . S
C810 H864 0.930 . S
C811 N809 1.279 . S
C811 C810 1.358 . S
C811 H815 0.930 . S
C812 C810 1.356 . S
C812 C813 1.348 . S
C813 C808 1.353 . S
C813 C812 1.348 . S
C813 H865 0.929 . S
H814 C808 0.930 . S
H815 C811 0.930 . S
C816 N817 1.314 . S
C816 C818 1.353 . S
C816 H822 0.930 . S
N817 Li793 1.990 . S
N817 C816 1.314 . S
N817 C820 1.279 . S
C818 C816 1.353 . S
C818 C821 1.348 . S
C818 H866 0.929 . S
C819 C820 1.358 . S
C819 C821 1.356 . S
C819 H867 0.930 . S
C820 N817 1.279 . S
C820 C819 1.358 . S
C820 H823 0.930 . S
C821 C818 1.348 . S
C821 C819 1.356 . S
H822 C816 0.930 . S
H823 C820 0.930 . S
C824 C826 1.348 . S
C824 C827 1.356 . S
C824 O854 1.325 . S
N825 C828 1.314 . S
N825 C829 1.279 . S
C826 C824 1.348 . S
C826 C828 1.353 . S
C826 H868 0.929 . S
C827 C824 1.356 . S
C827 C829 1.358 . S
C827 H869 0.930 . S
C828 N825 1.314 . S
C828 C826 1.353 . S
C828 H870 0.930 . S
C829 N825 1.279 . S
C829 C827 1.358 . S
C829 H871 0.930 . S
C830 C831 1.348 . S
C830 C832 1.356 . S
C830 O855 1.325 . S
C831 C830 1.348 . S
C831 C833 1.353 . S
C831 H872 0.929 . S
C832 C830 1.356 . S
C832 C834 1.358 . S
C832 H873 0.930 . S
C833 C831 1.353 . S
C833 N835 1.314 . S
C833 H874 0.930 . S
C834 C832 1.358 . S
C834 N835 1.279 . S
C834 H875 0.930 . S
N835 C833 1.314 . S
N835 C834 1.279 . S
C836 C838 1.353 . S
C836 N839 1.314 . S
C836 H842 0.930 . S
C837 N839 1.279 . S
C837 C840 1.358 . S
C837 H843 0.930 . S
C838 C836 1.353 . S
C838 C841 1.348 . S
C838 H876 0.929 . S
N839 Li794 1.990 . S
N839 C836 1.314 . S
N839 C837 1.279 . S
C840 C837 1.358 . S
C840 C841 1.356 . S
C840 H877 0.930 . S
C841 C838 1.348 . S
C841 C840 1.356 . S
H842 C836 0.930 . S
H843 C837 0.930 . S
C844 N845 1.314 . S
C844 C846 1.353 . S
C844 H850 0.930 . S
N845 Li795 1.990 . S
N845 C844 1.314 . S
N845 C848 1.279 . S
C846 C844 1.353 . S
C846 C849 1.348 . S
C846 H878 0.929 . S
C847 C848 1.358 . S
C847 C849 1.356 . S
C847 H879 0.930 . S
C848 N845 1.279 . S
C848 C847 1.358 . S
C848 H851 0.930 . S
C849 C846 1.348 . S
C849 C847 1.356 . S
H850 C844 0.930 . S
H851 C848 0.930 . S
O852 Li792 1.956 . S
O852 Li793 1.970 . S
O852 Li794 1.961 . S
O852 C796 1.325 . S
O853 Li792 1.970 . S
O853 Li793 1.956 . S
O853 Li795 1.961 . S
O853 C802 1.325 . S
O854 Li792 1.961 . S
O854 Li794 1.956 . S
O854 Li795 1.970 . S
O854 C824 1.325 . S
O855 Li793 1.961 . S
O855 Li794 1.970 . S
O855 Li795 1.956 . S
O855 C830 1.325 . S
H856 C798 0.929 . S
H857 C799 0.930 . S
H858 C800 0.930 . S
H859 C801 0.930 . S
H860 C803 0.930 . S
H861 C805 0.929 . S
H862 C806 0.930 . S
H863 C807 0.930 . S
H864 C810 0.930 . S
H865 C813 0.929 . S
H866 C818 0.929 . S
H867 C819 0.930 . S
H868 C826 0.929 . S
H869 C827 0.930 . S
H870 C828 0.930 . S
H871 C829 0.930 . S
H872 C831 0.929 . S
H873 C832 0.930 . S
H874 C833 0.930 . S
H875 C834 0.930 . S
H876 C838 0.929 . S
H877 C840 0.930 . S
H878 C846 0.929 . S
H879 C847 0.930 . S
Li880 N897 1.990 . S
Li880 O940 1.956 . S
Li880 O941 1.970 . S
Li880 O942 1.961 . S
Li881 N905 1.990 . S
Li881 O940 1.970 . S
Li881 O941 1.956 . S
Li881 O943 1.961 . S
Li882 N927 1.990 . S
Li882 O940 1.961 . S
Li882 O942 1.956 . S
Li882 O943 1.970 . S
Li883 N933 1.990 . S
Li883 O941 1.961 . S
Li883 O942 1.970 . S
Li883 O943 1.956 . S
C884 C886 1.348 . S
C884 C887 1.356 . S
C884 O940 1.325 . S
N885 C888 1.314 . S
N885 C889 1.279 . S
C886 C884 1.348 . S
C886 C888 1.353 . S
C886 H944 0.929 . S
C887 C884 1.356 . S
C887 C889 1.358 . S
C887 H945 0.930 . S
C888 N885 1.314 . S
C888 C886 1.353 . S
C888 H946 0.930 . S
C889 N885 1.279 . S
C889 C887 1.358 . S
C889 H947 0.930 . S
C890 C893 1.348 . S
C890 C894 1.356 . S
C890 O941 1.325 . S
C891 N892 1.279 . S
C891 C894 1.358 . S
C891 H948 0.930 . S
N892 C891 1.279 . S
N892 C895 1.314 . S
C893 C890 1.348 . S
C893 C895 1.353 . S
C893 H949 0.929 . S
C894 C890 1.356 . S
C894 C891 1.358 . S
C894 H950 0.930 . S
C895 N892 1.314 . S
C895 C893 1.353 . S
C895 H951 0.930 . S
C896 N897 1.314 . S
C896 C901 1.353 . S
C896 H902 0.930 . S
N897 Li880 1.990 . S
N897 C896 1.314 . S
N897 C899 1.279 . S
C898 C899 1.358 . S
C898 C900 1.356 . S
C898 H952 0.930 . S
C899 N897 1.279 . S
C899 C898 1.358 . S
C899 H903 0.930 . S
C900 C898 1.356 . S
C900 C901 1.348 . S
C901 C896 1.353 . S
C901 C900 1.348 . S
C901 H953 0.929 . S
H902 C896 0.930 . S
H903 C899 0.930 . S
C904 N905 1.314 . S
C904 C906 1.353 . S
C904 H910 0.930 . S
N905 Li881 1.990 . S
N905 C904 1.314 . S
N905 C908 1.279 . S
C906 C904 1.353 . S
C906 C909 1.348 . S
C906 H954 0.929 . S
C907 C908 1.358 . S
C907 C909 1.356 . S
C907 H955 0.930 . S
C908 N905 1.279 . S
C908 C907 1.358 . S
C908 H911 0.930 . S
C909 C906 1.348 . S
C909 C907 1.356 . S
H910 C904 0.930 . S
H911 C908 0.930 . S
C912 C914 1.348 . S
C912 C915 1.356 . S
C912 O942 1.325 . S
N913 C916 1.314 . S
N913 C917 1.279 . S
C914 C912 1.348 . S
C914 C916 1.353 . S
C914 H956 0.929 . S
C915 C912 1.356 . S
C915 C917 1.358 . S
C915 H957 0.930 . S
C916 N913 1.314 . S
C916 C914 1.353 . S
C916 H958 0.930 . S
C917 N913 1.279 . S
C917 C915 1.358 . S
C917 H959 0.930 . S
C918 C919 1.348 . S
C918 C920 1.356 . S
C918 O943 1.325 . S
C919 C918 1.348 . S
C919 C921 1.353 . S
C919 H960 0.929 . S
C920 C918 1.356 . S
C920 C922 1.358 . S
C920 H961 0.930 . S
C921 C919 1.353 . S
C921 N923 1.314 . S
C921 H962 0.930 . S
C922 C920 1.358 . S
C922 N923 1.279 . S
C922 H963 0.930 . S
N923 C921 1.314 . S
N923 C922 1.279 . S
C924 C926 1.353 . S
C924 N927 1.314 . S
C924 H930 0.930 . S
C925 N927 1.279 . S
C925 C928 1.358 . S
C925 H931 0.930 . S
C926 C924 1.353 . S
C926 C929 1.348 . S
C926 H964 0.929 . S
N927 Li882 1.990 . S
N927 C924 1.314 . S
N927 C925 1.279 . S
C928 C925 1.358 . S
C928 C929 1.356 . S
C928 H965 0.930 . S
C929 C926 1.348 . S
C929 C928 1.356 . S
H930 C924 0.930 . S
H931 C925 0.930 . S
C932 N933 1.314 . S
C932 C934 1.353 . S
C932 H938 0.930 . S
N933 Li883 1.990 . S
N933 C932 1.314 . S
N933 C936 1.279 . S
C934 C932 1.353 . S
C934 C937 1.348 . S
C934 H966 0.929 . S
C935 C936 1.358 . S
C935 C937 1.356 . S
C935 H967 0.930 . S
C936 N933 1.279 . S
C936 C935 1.358 . S
C936 H939 0.930 . S
C937 C934 1.348 . S
C937 C935 1.356 . S
H938 C932 0.930 . S
H939 C936 0.930 . S
O940 Li880 1.956 . S
O940 Li881 1.970 . S
O940 Li882 1.961 . S
O940 C884 1.325 . S
O941 Li880 1.970 . S
O941 Li881 1.956 . S
O941 Li883 1.961 . S
O941 C890 1.325 . S
O942 Li880 1.961 . S
O942 Li882 1.956 . S
O942 Li883 1.970 . S
O942 C912 1.325 . S
O943 Li881 1.961 . S
O943 Li882 1.970 . S
O943 Li883 1.956 . S
O943 C918 1.325 . S
H944 C886 0.929 . S
H945 C887 0.930 . S
H946 C888 0.930 . S
H947 C889 0.930 . S
H948 C891 0.930 . S
H949 C893 0.929 . S
H950 C894 0.930 . S
H951 C895 0.930 . S
H952 C898 0.930 . S
H953 C901 0.929 . S
H954 C906 0.929 . S
H955 C907 0.930 . S
H956 C914 0.929 . S
H957 C915 0.930 . S
H958 C916 0.930 . S
H959 C917 0.930 . S
H960 C919 0.929 . S
H961 C920 0.930 . S
H962 C921 0.930 . S
H963 C922 0.930 . S
H964 C926 0.929 . S
H965 C928 0.930 . S
H966 C934 0.929 . S
H967 C935 0.930 . S
Li968 N985 1.990 . S
Li968 O1028 1.956 . S
Li968 O1029 1.970 . S
Li968 O1030 1.961 . S
Li969 N993 1.990 . S
Li969 O1028 1.970 . S
Li969 O1029 1.956 . S
Li969 O1031 1.961 . S
Li970 N1015 1.990 . S
Li970 O1028 1.961 . S
Li970 O1030 1.956 . S
Li970 O1031 1.970 . S
Li971 N1021 1.990 . S
Li971 O1029 1.961 . S
Li971 O1030 1.970 . S
Li971 O1031 1.956 . S
C972 C974 1.348 . S
C972 C975 1.356 . S
C972 O1028 1.325 . S
N973 C976 1.314 . S
N973 C977 1.279 . S
C974 C972 1.348 . S
C974 C976 1.353 . S
C974 H1032 0.929 . S
C975 C972 1.356 . S
C975 C977 1.358 . S
C975 H1033 0.930 . S
C976 N973 1.314 . S
C976 C974 1.353 . S
C976 H1034 0.930 . S
C977 N973 1.279 . S
C977 C975 1.358 . S
C977 H1035 0.930 . S
C978 C981 1.348 . S
C978 C982 1.356 . S
C978 O1029 1.325 . S
C979 N980 1.279 . S
C979 C982 1.358 . S
C979 H1036 0.930 . S
N980 C979 1.279 . S
N980 C983 1.314 . S
C981 C978 1.348 . S
C981 C983 1.353 . S
C981 H1037 0.929 . S
C982 C978 1.356 . S
C982 C979 1.358 . S
C982 H1038 0.930 . S
C983 N980 1.314 . S
C983 C981 1.353 . S
C983 H1039 0.930 . S
C984 N985 1.314 . S
C984 C989 1.353 . S
C984 H990 0.930 . S
N985 Li968 1.990 . S
N985 C984 1.314 . S
N985 C987 1.279 . S
C986 C987 1.358 . S
C986 C988 1.356 . S
C986 H1040 0.930 . S
C987 N985 1.279 . S
C987 C986 1.358 . S
C987 H991 0.930 . S
C988 C986 1.356 . S
C988 C989 1.348 . S
C989 C984 1.353 . S
C989 C988 1.348 . S
C989 H1041 0.929 . S
H990 C984 0.930 . S
H991 C987 0.930 . S
C992 N993 1.314 . S
C992 C994 1.353 . S
C992 H998 0.930 . S
N993 Li969 1.990 . S
N993 C992 1.314 . S
N993 C996 1.279 . S
C994 C992 1.353 . S
C994 C997 1.348 . S
C994 H1042 0.929 . S
C995 C996 1.358 . S
C995 C997 1.356 . S
C995 H1043 0.930 . S
C996 N993 1.279 . S
C996 C995 1.358 . S
C996 H999 0.930 . S
C997 C994 1.348 . S
C997 C995 1.356 . S
H998 C992 0.930 . S
H999 C996 0.930 . S
C1000 C1002 1.348 . S
C1000 C1003 1.356 . S
C1000 O1030 1.325 . S
N1001 C1004 1.314 . S
N1001 C1005 1.279 . S
C1002 C1000 1.348 . S
C1002 C1004 1.353 . S
C1002 H1044 0.929 . S
C1003 C1000 1.356 . S
C1003 C1005 1.358 . S
C1003 H1045 0.930 . S
C1004 N1001 1.314 . S
C1004 C1002 1.353 . S
C1004 H1046 0.930 . S
C1005 N1001 1.279 . S
C1005 C1003 1.358 . S
C1005 H1047 0.930 . S
C1006 C1007 1.348 . S
C1006 C1008 1.356 . S
C1006 O1031 1.325 . S
C1007 C1006 1.348 . S
C1007 C1009 1.353 . S
C1007 H1048 0.929 . S
C1008 C1006 1.356 . S
C1008 C1010 1.358 . S
C1008 H1049 0.930 . S
C1009 C1007 1.353 . S
C1009 N1011 1.314 . S
C1009 H1050 0.930 . S
C1010 C1008 1.358 . S
C1010 N1011 1.279 . S
C1010 H1051 0.930 . S
N1011 C1009 1.314 . S
N1011 C1010 1.279 . S
C1012 C1014 1.353 . S
C1012 N1015 1.314 . S
C1012 H1018 0.930 . S
C1013 N1015 1.279 . S
C1013 C1016 1.358 . S
C1013 H1019 0.930 . S
C1014 C1012 1.353 . S
C1014 C1017 1.348 . S
C1014 H1052 0.929 . S
N1015 Li970 1.990 . S
N1015 C1012 1.314 . S
N1015 C1013 1.279 . S
C1016 C1013 1.358 . S
C1016 C1017 1.356 . S
C1016 H1053 0.930 . S
C1017 C1014 1.348 . S
C1017 C1016 1.356 . S
H1018 C1012 0.930 . S
H1019 C1013 0.930 . S
C1020 N1021 1.314 . S
C1020 C1022 1.353 . S
C1020 H1026 0.930 . S
N1021 Li971 1.990 . S
N1021 C1020 1.314 . S
N1021 C1024 1.279 . S
C1022 C1020 1.353 . S
C1022 C1025 1.348 . S
C1022 H1054 0.929 . S
C1023 C1024 1.358 . S
C1023 C1025 1.356 . S
C1023 H1055 0.930 . S
C1024 N1021 1.279 . S
C1024 C1023 1.358 . S
C1024 H1027 0.930 . S
C1025 C1022 1.348 . S
C1025 C1023 1.356 . S
H1026 C1020 0.930 . S
H1027 C1024 0.930 . S
O1028 Li968 1.956 . S
O1028 Li969 1.970 . S
O1028 Li970 1.961 . S
O1028 C972 1.325 . S
O1029 Li968 1.970 . S
O1029 Li969 1.956 . S
O1029 Li971 1.961 . S
O1029 C978 1.325 . S
O1030 Li968 1.961 . S
O1030 Li970 1.956 . S
O1030 Li971 1.970 . S
O1030 C1000 1.325 . S
O1031 Li969 1.961 . S
O1031 Li970 1.970 . S
O1031 Li971 1.956 . S
O1031 C1006 1.325 . S
H1032 C974 0.929 . S
H1033 C975 0.930 . S
H1034 C976 0.930 . S
H1035 C977 0.930 . S
H1036 C979 0.930 . S
H1037 C981 0.929 . S
H1038 C982 0.930 . S
H1039 C983 0.930 . S
H1040 C986 0.930 . S
H1041 C989 0.929 . S
H1042 C994 0.929 . S
H1043 C995 0.930 . S
H1044 C1002 0.929 . S
H1045 C1003 0.930 . S
H1046 C1004 0.930 . S
H1047 C1005 0.930 . S
H1048 C1007 0.929 . S
H1049 C1008 0.930 . S
H1050 C1009 0.930 . S
H1051 C1010 0.930 . S
H1052 C1014 0.929 . S
H1053 C1016 0.930 . S
H1054 C1022 0.929 . S
H1055 C1023 0.930 . S
Li1056 N1073 1.990 . S
Li1056 O1116 1.956 . S
Li1056 O1117 1.970 . S
Li1056 O1118 1.961 . S
Li1057 N1081 1.990 . S
Li1057 O1116 1.970 . S
Li1057 O1117 1.956 . S
Li1057 O1119 1.961 . S
Li1058 N1103 1.990 . S
Li1058 O1116 1.961 . S
Li1058 O1118 1.956 . S
Li1058 O1119 1.970 . S
Li1059 N1109 1.990 . S
Li1059 O1117 1.961 . S
Li1059 O1118 1.970 . S
Li1059 O1119 1.956 . S
C1060 C1062 1.348 . S
C1060 C1063 1.356 . S
C1060 O1116 1.325 . S
N1061 C1064 1.314 . S
N1061 C1065 1.279 . S
C1062 C1060 1.348 . S
C1062 C1064 1.353 . S
C1062 H1120 0.929 . S
C1063 C1060 1.356 . S
C1063 C1065 1.358 . S
C1063 H1121 0.930 . S
C1064 N1061 1.314 . S
C1064 C1062 1.353 . S
C1064 H1122 0.930 . S
C1065 N1061 1.279 . S
C1065 C1063 1.358 . S
C1065 H1123 0.930 . S
C1066 C1069 1.348 . S
C1066 C1070 1.356 . S
C1066 O1117 1.325 . S
C1067 N1068 1.279 . S
C1067 C1070 1.358 . S
C1067 H1124 0.930 . S
N1068 C1067 1.279 . S
N1068 C1071 1.314 . S
C1069 C1066 1.348 . S
C1069 C1071 1.353 . S
C1069 H1125 0.929 . S
C1070 C1066 1.356 . S
C1070 C1067 1.358 . S
C1070 H1126 0.930 . S
C1071 N1068 1.314 . S
C1071 C1069 1.353 . S
C1071 H1127 0.930 . S
C1072 N1073 1.314 . S
C1072 C1077 1.353 . S
C1072 H1078 0.930 . S
N1073 Li1056 1.990 . S
N1073 C1072 1.314 . S
N1073 C1075 1.279 . S
C1074 C1075 1.358 . S
C1074 C1076 1.356 . S
C1074 H1128 0.930 . S
C1075 N1073 1.279 . S
C1075 C1074 1.358 . S
C1075 H1079 0.930 . S
C1076 C1074 1.356 . S
C1076 C1077 1.348 . S
C1077 C1072 1.353 . S
C1077 C1076 1.348 . S
C1077 H1129 0.929 . S
H1078 C1072 0.930 . S
H1079 C1075 0.930 . S
C1080 N1081 1.314 . S
C1080 C1082 1.353 . S
C1080 H1086 0.930 . S
N1081 Li1057 1.990 . S
N1081 C1080 1.314 . S
N1081 C1084 1.279 . S
C1082 C1080 1.353 . S
C1082 C1085 1.348 . S
C1082 H1130 0.929 . S
C1083 C1084 1.358 . S
C1083 C1085 1.356 . S
C1083 H1131 0.930 . S
C1084 N1081 1.279 . S
C1084 C1083 1.358 . S
C1084 H1087 0.930 . S
C1085 C1082 1.348 . S
C1085 C1083 1.356 . S
H1086 C1080 0.930 . S
H1087 C1084 0.930 . S
C1088 C1090 1.348 . S
C1088 C1091 1.356 . S
C1088 O1118 1.325 . S
N1089 C1092 1.314 . S
N1089 C1093 1.279 . S
C1090 C1088 1.348 . S
C1090 C1092 1.353 . S
C1090 H1132 0.929 . S
C1091 C1088 1.356 . S
C1091 C1093 1.358 . S
C1091 H1133 0.930 . S
C1092 N1089 1.314 . S
C1092 C1090 1.353 . S
C1092 H1134 0.930 . S
C1093 N1089 1.279 . S
C1093 C1091 1.358 . S
C1093 H1135 0.930 . S
C1094 C1095 1.348 . S
C1094 C1096 1.356 . S
C1094 O1119 1.325 . S
C1095 C1094 1.348 . S
C1095 C1097 1.353 . S
C1095 H1136 0.929 . S
C1096 C1094 1.356 . S
C1096 C1098 1.358 . S
C1096 H1137 0.930 . S
C1097 C1095 1.353 . S
C1097 N1099 1.314 . S
C1097 H1138 0.930 . S
C1098 C1096 1.358 . S
C1098 N1099 1.279 . S
C1098 H1139 0.930 . S
N1099 C1097 1.314 . S
N1099 C1098 1.279 . S
C1100 C1102 1.353 . S
C1100 N1103 1.314 . S
C1100 H1106 0.930 . S
C1101 N1103 1.279 . S
C1101 C1104 1.358 . S
C1101 H1107 0.930 . S
C1102 C1100 1.353 . S
C1102 C1105 1.348 . S
C1102 H1140 0.929 . S
N1103 Li1058 1.990 . S
N1103 C1100 1.314 . S
N1103 C1101 1.279 . S
C1104 C1101 1.358 . S
C1104 C1105 1.356 . S
C1104 H1141 0.930 . S
C1105 C1102 1.348 . S
C1105 C1104 1.356 . S
H1106 C1100 0.930 . S
H1107 C1101 0.930 . S
C1108 N1109 1.314 . S
C1108 C1110 1.353 . S
C1108 H1114 0.930 . S
N1109 Li1059 1.990 . S
N1109 C1108 1.314 . S
N1109 C1112 1.279 . S
C1110 C1108 1.353 . S
C1110 C1113 1.348 . S
C1110 H1142 0.929 . S
C1111 C1112 1.358 . S
C1111 C1113 1.356 . S
C1111 H1143 0.930 . S
C1112 N1109 1.279 . S
C1112 C1111 1.358 . S
C1112 H1115 0.930 . S
C1113 C1110 1.348 . S
C1113 C1111 1.356 . S
H1114 C1108 0.930 . S
H1115 C1112 0.930 . S
O1116 Li1056 1.956 . S
O1116 Li1057 1.970 . S
O1116 Li1058 1.961 . S
O1116 C1060 1.325 . S
O1117 Li1056 1.970 . S
O1117 Li1057 1.956 . S
O1117 Li1059 1.961 . S
O1117 C1066 1.325 . S
O1118 Li1056 1.961 . S
O1118 Li1058 1.956 . S
O1118 Li1059 1.970 . S
O1118 C1088 1.325 . S
O1119 Li1057 1.961 . S
O1119 Li1058 1.970 . S
O1119 Li1059 1.956 . S
O1119 C1094 1.325 . S
H1120 C1062 0.929 . S
H1121 C1063 0.930 . S
H1122 C1064 0.930 . S
H1123 C1065 0.930 . S
H1124 C1067 0.930 . S
H1125 C1069 0.929 . S
H1126 C1070 0.930 . S
H1127 C1071 0.930 . S
H1128 C1074 0.930 . S
H1129 C1077 0.929 . S
H1130 C1082 0.929 . S
H1131 C1083 0.930 . S
H1132 C1090 0.929 . S
H1133 C1091 0.930 . S
H1134 C1092 0.930 . S
H1135 C1093 0.930 . S
H1136 C1095 0.929 . S
H1137 C1096 0.930 . S
H1138 C1097 0.930 . S
H1139 C1098 0.930 . S
H1140 C1102 0.929 . S
H1141 C1104 0.930 . S
H1142 C1110 0.929 . S
H1143 C1111 0.930 . S
Li1144 N1161 1.990 . S
Li1144 O1204 1.956 . S
Li1144 O1205 1.970 . S
Li1144 O1206 1.961 . S
Li1145 N1169 1.990 . S
Li1145 O1204 1.970 . S
Li1145 O1205 1.956 . S
Li1145 O1207 1.961 . S
Li1146 N1191 1.990 . S
Li1146 O1204 1.961 . S
Li1146 O1206 1.956 . S
Li1146 O1207 1.970 . S
Li1147 N1197 1.990 . S
Li1147 O1205 1.961 . S
Li1147 O1206 1.970 . S
Li1147 O1207 1.956 . S
C1148 C1150 1.348 . S
C1148 C1151 1.356 . S
C1148 O1204 1.325 . S
N1149 C1152 1.314 . S
N1149 C1153 1.279 . S
C1150 C1148 1.348 . S
C1150 C1152 1.353 . S
C1150 H1208 0.929 . S
C1151 C1148 1.356 . S
C1151 C1153 1.358 . S
C1151 H1209 0.930 . S
C1152 N1149 1.314 . S
C1152 C1150 1.353 . S
C1152 H1210 0.930 . S
C1153 N1149 1.279 . S
C1153 C1151 1.358 . S
C1153 H1211 0.930 . S
C1154 C1157 1.348 . S
C1154 C1158 1.356 . S
C1154 O1205 1.325 . S
C1155 N1156 1.279 . S
C1155 C1158 1.358 . S
C1155 H1212 0.930 . S
N1156 C1155 1.279 . S
N1156 C1159 1.314 . S
C1157 C1154 1.348 . S
C1157 C1159 1.353 . S
C1157 H1213 0.929 . S
C1158 C1154 1.356 . S
C1158 C1155 1.358 . S
C1158 H1214 0.930 . S
C1159 N1156 1.314 . S
C1159 C1157 1.353 . S
C1159 H1215 0.930 . S
C1160 N1161 1.314 . S
C1160 C1165 1.353 . S
C1160 H1166 0.930 . S
N1161 Li1144 1.990 . S
N1161 C1160 1.314 . S
N1161 C1163 1.279 . S
C1162 C1163 1.358 . S
C1162 C1164 1.356 . S
C1162 H1216 0.930 . S
C1163 N1161 1.279 . S
C1163 C1162 1.358 . S
C1163 H1167 0.930 . S
C1164 C1162 1.356 . S
C1164 C1165 1.348 . S
C1165 C1160 1.353 . S
C1165 C1164 1.348 . S
C1165 H1217 0.929 . S
H1166 C1160 0.930 . S
H1167 C1163 0.930 . S
C1168 N1169 1.314 . S
C1168 C1170 1.353 . S
C1168 H1174 0.930 . S
N1169 Li1145 1.990 . S
N1169 C1168 1.314 . S
N1169 C1172 1.279 . S
C1170 C1168 1.353 . S
C1170 C1173 1.348 . S
C1170 H1218 0.929 . S
C1171 C1172 1.358 . S
C1171 C1173 1.356 . S
C1171 H1219 0.930 . S
C1172 N1169 1.279 . S
C1172 C1171 1.358 . S
C1172 H1175 0.930 . S
C1173 C1170 1.348 . S
C1173 C1171 1.356 . S
H1174 C1168 0.930 . S
H1175 C1172 0.930 . S
C1176 C1178 1.348 . S
C1176 C1179 1.356 . S
C1176 O1206 1.325 . S
N1177 C1180 1.314 . S
N1177 C1181 1.279 . S
C1178 C1176 1.348 . S
C1178 C1180 1.353 . S
C1178 H1220 0.929 . S
C1179 C1176 1.356 . S
C1179 C1181 1.358 . S
C1179 H1221 0.930 . S
C1180 N1177 1.314 . S
C1180 C1178 1.353 . S
C1180 H1222 0.930 . S
C1181 N1177 1.279 . S
C1181 C1179 1.358 . S
C1181 H1223 0.930 . S
C1182 C1183 1.348 . S
C1182 C1184 1.356 . S
C1182 O1207 1.325 . S
C1183 C1182 1.348 . S
C1183 C1185 1.353 . S
C1183 H1224 0.929 . S
C1184 C1182 1.356 . S
C1184 C1186 1.358 . S
C1184 H1225 0.930 . S
C1185 C1183 1.353 . S
C1185 N1187 1.314 . S
C1185 H1226 0.930 . S
C1186 C1184 1.358 . S
C1186 N1187 1.279 . S
C1186 H1227 0.930 . S
N1187 C1185 1.314 . S
N1187 C1186 1.279 . S
C1188 C1190 1.353 . S
C1188 N1191 1.314 . S
C1188 H1194 0.930 . S
C1189 N1191 1.279 . S
C1189 C1192 1.358 . S
C1189 H1195 0.930 . S
C1190 C1188 1.353 . S
C1190 C1193 1.348 . S
C1190 H1228 0.929 . S
N1191 Li1146 1.990 . S
N1191 C1188 1.314 . S
N1191 C1189 1.279 . S
C1192 C1189 1.358 . S
C1192 C1193 1.356 . S
C1192 H1229 0.930 . S
C1193 C1190 1.348 . S
C1193 C1192 1.356 . S
H1194 C1188 0.930 . S
H1195 C1189 0.930 . S
C1196 N1197 1.314 . S
C1196 C1198 1.353 . S
C1196 H1202 0.930 . S
N1197 Li1147 1.990 . S
N1197 C1196 1.314 . S
N1197 C1200 1.279 . S
C1198 C1196 1.353 . S
C1198 C1201 1.348 . S
C1198 H1230 0.929 . S
C1199 C1200 1.358 . S
C1199 C1201 1.356 . S
C1199 H1231 0.930 . S
C1200 N1197 1.279 . S
C1200 C1199 1.358 . S
C1200 H1203 0.930 . S
C1201 C1198 1.348 . S
C1201 C1199 1.356 . S
H1202 C1196 0.930 . S
H1203 C1200 0.930 . S
O1204 Li1144 1.956 . S
O1204 Li1145 1.970 . S
O1204 Li1146 1.961 . S
O1204 C1148 1.325 . S
O1205 Li1144 1.970 . S
O1205 Li1145 1.956 . S
O1205 Li1147 1.961 . S
O1205 C1154 1.325 . S
O1206 Li1144 1.961 . S
O1206 Li1146 1.956 . S
O1206 Li1147 1.970 . S
O1206 C1176 1.325 . S
O1207 Li1145 1.961 . S
O1207 Li1146 1.970 . S
O1207 Li1147 1.956 . S
O1207 C1182 1.325 . S
H1208 C1150 0.929 . S
H1209 C1151 0.930 . S
H1210 C1152 0.930 . S
H1211 C1153 0.930 . S
H1212 C1155 0.930 . S
H1213 C1157 0.929 . S
H1214 C1158 0.930 . S
H1215 C1159 0.930 . S
H1216 C1162 0.930 . S
H1217 C1165 0.929 . S
H1218 C1170 0.929 . S
H1219 C1171 0.930 . S
H1220 C1178 0.929 . S
H1221 C1179 0.930 . S
H1222 C1180 0.930 . S
H1223 C1181 0.930 . S
H1224 C1183 0.929 . S
H1225 C1184 0.930 . S
H1226 C1185 0.930 . S
H1227 C1186 0.930 . S
H1228 C1190 0.929 . S
H1229 C1192 0.930 . S
H1230 C1198 0.929 . S
H1231 C1199 0.930 . S
Li1232 N1249 1.990 . S
Li1232 O1292 1.956 . S
Li1232 O1293 1.970 . S
Li1232 O1294 1.961 . S
Li1233 N1257 1.990 . S
Li1233 O1292 1.970 . S
Li1233 O1293 1.956 . S
Li1233 O1295 1.961 . S
Li1234 N1279 1.990 . S
Li1234 O1292 1.961 . S
Li1234 O1294 1.956 . S
Li1234 O1295 1.970 . S
Li1235 N1285 1.990 . S
Li1235 O1293 1.961 . S
Li1235 O1294 1.970 . S
Li1235 O1295 1.956 . S
C1236 C1238 1.348 . S
C1236 C1239 1.356 . S
C1236 O1292 1.325 . S
N1237 C1240 1.314 . S
N1237 C1241 1.279 . S
C1238 C1236 1.348 . S
C1238 C1240 1.353 . S
C1238 H1296 0.929 . S
C1239 C1236 1.356 . S
C1239 C1241 1.358 . S
C1239 H1297 0.930 . S
C1240 N1237 1.314 . S
C1240 C1238 1.353 . S
C1240 H1298 0.930 . S
C1241 N1237 1.279 . S
C1241 C1239 1.358 . S
C1241 H1299 0.930 . S
C1242 C1245 1.348 . S
C1242 C1246 1.356 . S
C1242 O1293 1.325 . S
C1243 N1244 1.279 . S
C1243 C1246 1.358 . S
C1243 H1300 0.930 . S
N1244 C1243 1.279 . S
N1244 C1247 1.314 . S
C1245 C1242 1.348 . S
C1245 C1247 1.353 . S
C1245 H1301 0.929 . S
C1246 C1242 1.356 . S
C1246 C1243 1.358 . S
C1246 H1302 0.930 . S
C1247 N1244 1.314 . S
C1247 C1245 1.353 . S
C1247 H1303 0.930 . S
C1248 N1249 1.314 . S
C1248 C1253 1.353 . S
C1248 H1254 0.930 . S
N1249 Li1232 1.990 . S
N1249 C1248 1.314 . S
N1249 C1251 1.279 . S
C1250 C1251 1.358 . S
C1250 C1252 1.356 . S
C1250 H1304 0.930 . S
C1251 N1249 1.279 . S
C1251 C1250 1.358 . S
C1251 H1255 0.930 . S
C1252 C1250 1.356 . S
C1252 C1253 1.348 . S
C1253 C1248 1.353 . S
C1253 C1252 1.348 . S
C1253 H1305 0.929 . S
H1254 C1248 0.930 . S
H1255 C1251 0.930 . S
C1256 N1257 1.314 . S
C1256 C1258 1.353 . S
C1256 H1262 0.930 . S
N1257 Li1233 1.990 . S
N1257 C1256 1.314 . S
N1257 C1260 1.279 . S
C1258 C1256 1.353 . S
C1258 C1261 1.348 . S
C1258 H1306 0.929 . S
C1259 C1260 1.358 . S
C1259 C1261 1.356 . S
C1259 H1307 0.930 . S
C1260 N1257 1.279 . S
C1260 C1259 1.358 . S
C1260 H1263 0.930 . S
C1261 C1258 1.348 . S
C1261 C1259 1.356 . S
H1262 C1256 0.930 . S
H1263 C1260 0.930 . S
C1264 C1266 1.348 . S
C1264 C1267 1.356 . S
C1264 O1294 1.325 . S
N1265 C1268 1.314 . S
N1265 C1269 1.279 . S
C1266 C1264 1.348 . S
C1266 C1268 1.353 . S
C1266 H1308 0.929 . S
C1267 C1264 1.356 . S
C1267 C1269 1.358 . S
C1267 H1309 0.930 . S
C1268 N1265 1.314 . S
C1268 C1266 1.353 . S
C1268 H1310 0.930 . S
C1269 N1265 1.279 . S
C1269 C1267 1.358 . S
C1269 H1311 0.930 . S
C1270 C1271 1.348 . S
C1270 C1272 1.356 . S
C1270 O1295 1.325 . S
C1271 C1270 1.348 . S
C1271 C1273 1.353 . S
C1271 H1312 0.929 . S
C1272 C1270 1.356 . S
C1272 C1274 1.358 . S
C1272 H1313 0.930 . S
C1273 C1271 1.353 . S
C1273 N1275 1.314 . S
C1273 H1314 0.930 . S
C1274 C1272 1.358 . S
C1274 N1275 1.279 . S
C1274 H1315 0.930 . S
N1275 C1273 1.314 . S
N1275 C1274 1.279 . S
C1276 C1278 1.353 . S
C1276 N1279 1.314 . S
C1276 H1282 0.930 . S
C1277 N1279 1.279 . S
C1277 C1280 1.358 . S
C1277 H1283 0.930 . S
C1278 C1276 1.353 . S
C1278 C1281 1.348 . S
C1278 H1316 0.929 . S
N1279 Li1234 1.990 . S
N1279 C1276 1.314 . S
N1279 C1277 1.279 . S
C1280 C1277 1.358 . S
C1280 C1281 1.356 . S
C1280 H1317 0.930 . S
C1281 C1278 1.348 . S
C1281 C1280 1.356 . S
H1282 C1276 0.930 . S
H1283 C1277 0.930 . S
C1284 N1285 1.314 . S
C1284 C1286 1.353 . S
C1284 H1290 0.930 . S
N1285 Li1235 1.990 . S
N1285 C1284 1.314 . S
N1285 C1288 1.279 . S
C1286 C1284 1.353 . S
C1286 C1289 1.348 . S
C1286 H1318 0.929 . S
C1287 C1288 1.358 . S
C1287 C1289 1.356 . S
C1287 H1319 0.930 . S
C1288 N1285 1.279 . S
C1288 C1287 1.358 . S
C1288 H1291 0.930 . S
C1289 C1286 1.348 . S
C1289 C1287 1.356 . S
H1290 C1284 0.930 . S
H1291 C1288 0.930 . S
O1292 Li1232 1.956 . S
O1292 Li1233 1.970 . S
O1292 Li1234 1.961 . S
O1292 C1236 1.325 . S
O1293 Li1232 1.970 . S
O1293 Li1233 1.956 . S
O1293 Li1235 1.961 . S
O1293 C1242 1.325 . S
O1294 Li1232 1.961 . S
O1294 Li1234 1.956 . S
O1294 Li1235 1.970 . S
O1294 C1264 1.325 . S
O1295 Li1233 1.961 . S
O1295 Li1234 1.970 . S
O1295 Li1235 1.956 . S
O1295 C1270 1.325 . S
H1296 C1238 0.929 . S
H1297 C1239 0.930 . S
H1298 C1240 0.930 . S
H1299 C1241 0.930 . S
H1300 C1243 0.930 . S
H1301 C1245 0.929 . S
H1302 C1246 0.930 . S
H1303 C1247 0.930 . S
H1304 C1250 0.930 . S
H1305 C1253 0.929 . S
H1306 C1258 0.929 . S
H1307 C1259 0.930 . S
H1308 C1266 0.929 . S
H1309 C1267 0.930 . S
H1310 C1268 0.930 . S
H1311 C1269 0.930 . S
H1312 C1271 0.929 . S
H1313 C1272 0.930 . S
H1314 C1273 0.930 . S
H1315 C1274 0.930 . S
H1316 C1278 0.929 . S
H1317 C1280 0.930 . S
H1318 C1286 0.929 . S
H1319 C1287 0.930 . S
Li1320 N1337 1.990 . S
Li1320 O1380 1.956 . S
Li1320 O1381 1.970 . S
Li1320 O1382 1.961 . S
Li1321 N1345 1.990 . S
Li1321 O1380 1.970 . S
Li1321 O1381 1.956 . S
Li1321 O1383 1.961 . S
Li1322 N1367 1.990 . S
Li1322 O1380 1.961 . S
Li1322 O1382 1.956 . S
Li1322 O1383 1.970 . S
Li1323 N1373 1.990 . S
Li1323 O1381 1.961 . S
Li1323 O1382 1.970 . S
Li1323 O1383 1.956 . S
C1324 C1326 1.348 . S
C1324 C1327 1.356 . S
C1324 O1380 1.325 . S
N1325 C1328 1.314 . S
N1325 C1329 1.279 . S
C1326 C1324 1.348 . S
C1326 C1328 1.353 . S
C1326 H1384 0.929 . S
C1327 C1324 1.356 . S
C1327 C1329 1.358 . S
C1327 H1385 0.930 . S
C1328 N1325 1.314 . S
C1328 C1326 1.353 . S
C1328 H1386 0.930 . S
C1329 N1325 1.279 . S
C1329 C1327 1.358 . S
C1329 H1387 0.930 . S
C1330 C1333 1.348 . S
C1330 C1334 1.356 . S
C1330 O1381 1.325 . S
C1331 N1332 1.279 . S
C1331 C1334 1.358 . S
C1331 H1388 0.930 . S
N1332 C1331 1.279 . S
N1332 C1335 1.314 . S
C1333 C1330 1.348 . S
C1333 C1335 1.353 . S
C1333 H1389 0.929 . S
C1334 C1330 1.356 . S
C1334 C1331 1.358 . S
C1334 H1390 0.930 . S
C1335 N1332 1.314 . S
C1335 C1333 1.353 . S
C1335 H1391 0.930 . S
C1336 N1337 1.314 . S
C1336 C1341 1.353 . S
C1336 H1342 0.930 . S
N1337 Li1320 1.990 . S
N1337 C1336 1.314 . S
N1337 C1339 1.279 . S
C1338 C1339 1.358 . S
C1338 C1340 1.356 . S
C1338 H1392 0.930 . S
C1339 N1337 1.279 . S
C1339 C1338 1.358 . S
C1339 H1343 0.930 . S
C1340 C1338 1.356 . S
C1340 C1341 1.348 . S
C1341 C1336 1.353 . S
C1341 C1340 1.348 . S
C1341 H1393 0.929 . S
H1342 C1336 0.930 . S
H1343 C1339 0.930 . S
C1344 N1345 1.314 . S
C1344 C1346 1.353 . S
C1344 H1350 0.930 . S
N1345 Li1321 1.990 . S
N1345 C1344 1.314 . S
N1345 C1348 1.279 . S
C1346 C1344 1.353 . S
C1346 C1349 1.348 . S
C1346 H1394 0.929 . S
C1347 C1348 1.358 . S
C1347 C1349 1.356 . S
C1347 H1395 0.930 . S
C1348 N1345 1.279 . S
C1348 C1347 1.358 . S
C1348 H1351 0.930 . S
C1349 C1346 1.348 . S
C1349 C1347 1.356 . S
H1350 C1344 0.930 . S
H1351 C1348 0.930 . S
C1352 C1354 1.348 . S
C1352 C1355 1.356 . S
C1352 O1382 1.325 . S
N1353 C1356 1.314 . S
N1353 C1357 1.279 . S
C1354 C1352 1.348 . S
C1354 C1356 1.353 . S
C1354 H1396 0.929 . S
C1355 C1352 1.356 . S
C1355 C1357 1.358 . S
C1355 H1397 0.930 . S
C1356 N1353 1.314 . S
C1356 C1354 1.353 . S
C1356 H1398 0.930 . S
C1357 N1353 1.279 . S
C1357 C1355 1.358 . S
C1357 H1399 0.930 . S
C1358 C1359 1.348 . S
C1358 C1360 1.356 . S
C1358 O1383 1.325 . S
C1359 C1358 1.348 . S
C1359 C1361 1.353 . S
C1359 H1400 0.929 . S
C1360 C1358 1.356 . S
C1360 C1362 1.358 . S
C1360 H1401 0.930 . S
C1361 C1359 1.353 . S
C1361 N1363 1.314 . S
C1361 H1402 0.930 . S
C1362 C1360 1.358 . S
C1362 N1363 1.279 . S
C1362 H1403 0.930 . S
N1363 C1361 1.314 . S
N1363 C1362 1.279 . S
C1364 C1366 1.353 . S
C1364 N1367 1.314 . S
C1364 H1370 0.930 . S
C1365 N1367 1.279 . S
C1365 C1368 1.358 . S
C1365 H1371 0.930 . S
C1366 C1364 1.353 . S
C1366 C1369 1.348 . S
C1366 H1404 0.929 . S
N1367 Li1322 1.990 . S
N1367 C1364 1.314 . S
N1367 C1365 1.279 . S
C1368 C1365 1.358 . S
C1368 C1369 1.356 . S
C1368 H1405 0.930 . S
C1369 C1366 1.348 . S
C1369 C1368 1.356 . S
H1370 C1364 0.930 . S
H1371 C1365 0.930 . S
C1372 N1373 1.314 . S
C1372 C1374 1.353 . S
C1372 H1378 0.930 . S
N1373 Li1323 1.990 . S
N1373 C1372 1.314 . S
N1373 C1376 1.279 . S
C1374 C1372 1.353 . S
C1374 C1377 1.348 . S
C1374 H1406 0.929 . S
C1375 C1376 1.358 . S
C1375 C1377 1.356 . S
C1375 H1407 0.930 . S
C1376 N1373 1.279 . S
C1376 C1375 1.358 . S
C1376 H1379 0.930 . S
C1377 C1374 1.348 . S
C1377 C1375 1.356 . S
H1378 C1372 0.930 . S
H1379 C1376 0.930 . S
O1380 Li1320 1.956 . S
O1380 Li1321 1.970 . S
O1380 Li1322 1.961 . S
O1380 C1324 1.325 . S
O1381 Li1320 1.970 . S
O1381 Li1321 1.956 . S
O1381 Li1323 1.961 . S
O1381 C1330 1.325 . S
O1382 Li1320 1.961 . S
O1382 Li1322 1.956 . S
O1382 Li1323 1.970 . S
O1382 C1352 1.325 . S
O1383 Li1321 1.961 . S
O1383 Li1322 1.970 . S
O1383 Li1323 1.956 . S
O1383 C1358 1.325 . S
H1384 C1326 0.929 . S
H1385 C1327 0.930 . S
H1386 C1328 0.930 . S
H1387 C1329 0.930 . S
H1388 C1331 0.930 . S
H1389 C1333 0.929 . S
H1390 C1334 0.930 . S
H1391 C1335 0.930 . S
H1392 C1338 0.930 . S
H1393 C1341 0.929 . S
H1394 C1346 0.929 . S
H1395 C1347 0.930 . S
H1396 C1354 0.929 . S
H1397 C1355 0.930 . S
H1398 C1356 0.930 . S
H1399 C1357 0.930 . S
H1400 C1359 0.929 . S
H1401 C1360 0.930 . S
H1402 C1361 0.930 . S
H1403 C1362 0.930 . S
H1404 C1366 0.929 . S
H1405 C1368 0.930 . S
H1406 C1374 0.929 . S
H1407 C1375 0.930 . S
H1408 C1420 0.930 . S
H1409 C1422 0.930 . S
H1410 C1423 0.930 . S
H1411 C1427 0.959 . S
H1412 C1427 0.959 . S
H1413 C1427 0.961 . S
H1414 C1428 0.960 . S
H1415 C1428 0.961 . S
H1416 C1428 0.959 . S
H1417 C1431 0.929 . S
H1418 C1432 0.931 . S
H1419 C1434 0.930 . S
C1420 H1408 0.930 . S
C1420 C1421 1.399 . S
C1420 C1425 1.399 . S
C1421 C1420 1.399 . S
C1421 C1422 1.376 . S
C1422 H1409 0.930 . S
C1422 C1421 1.376 . S
C1422 C1423 1.388 . S
C1423 H1410 0.930 . S
C1423 C1422 1.388 . S
C1423 C1424 1.390 . S
C1424 C1423 1.390 . S
C1424 C1425 1.394 . S
C1424 C1430 1.465 . S
C1425 C1420 1.399 . S
C1425 C1424 1.394 . S
C1425 C1426 1.516 . S
C1426 C1425 1.516 . S
C1426 C1427 1.502 . S
C1426 C1428 1.561 . S
C1426 C1429 1.526 . S
C1427 H1411 0.959 . S
C1427 H1412 0.959 . S
C1427 H1413 0.961 . S
C1427 C1426 1.502 . S
C1428 H1414 0.960 . S
C1428 H1415 0.961 . S
C1428 H1416 0.959 . S
C1428 C1426 1.561 . S
C1429 C1426 1.526 . S
C1429 C1430 1.396 . S
C1429 C1434 1.390 . S
C1430 C1424 1.465 . S
C1430 C1429 1.396 . S
C1430 C1431 1.399 . S
C1431 H1417 0.929 . S
C1431 C1430 1.399 . S
C1431 C1432 1.385 . S
C1432 H1418 0.931 . S
C1432 C1431 1.385 . S
C1432 C1433 1.389 . S
C1433 C1432 1.389 . S
C1433 C1434 1.387 . S
C1434 H1419 0.930 . S
C1434 C1429 1.390 . S
C1434 C1433 1.387 . S
H1435 C1447 0.930 . S
H1436 C1449 0.930 . S
H1437 C1450 0.930 . S
H1438 C1454 0.959 . S
H1439 C1454 0.959 . S
H1440 C1454 0.961 . S
H1441 C1455 0.960 . S
H1442 C1455 0.961 . S
H1443 C1455 0.959 . S
H1444 C1458 0.929 . S
H1445 C1459 0.931 . S
H1446 C1461 0.930 . S
C1447 H1435 0.930 . S
C1447 C1448 1.399 . S
C1447 C1452 1.399 . S
C1448 C1447 1.399 . S
C1448 C1449 1.376 . S
C1449 H1436 0.930 . S
C1449 C1448 1.376 . S
C1449 C1450 1.388 . S
C1450 H1437 0.930 . S
C1450 C1449 1.388 . S
C1450 C1451 1.390 . S
C1451 C1450 1.390 . S
C1451 C1452 1.394 . S
C1451 C1457 1.465 . S
C1452 C1447 1.399 . S
C1452 C1451 1.394 . S
C1452 C1453 1.516 . S
C1453 C1452 1.516 . S
C1453 C1454 1.502 . S
C1453 C1455 1.561 . S
C1453 C1456 1.526 . S
C1454 H1438 0.959 . S
C1454 H1439 0.959 . S
C1454 H1440 0.961 . S
C1454 C1453 1.502 . S
C1455 H1441 0.960 . S
C1455 H1442 0.961 . S
C1455 H1443 0.959 . S
C1455 C1453 1.561 . S
C1456 C1453 1.526 . S
C1456 C1457 1.396 . S
C1456 C1461 1.390 . S
C1457 C1451 1.465 . S
C1457 C1456 1.396 . S
C1457 C1458 1.399 . S
C1458 H1444 0.929 . S
C1458 C1457 1.399 . S
C1458 C1459 1.385 . S
C1459 H1445 0.931 . S
C1459 C1458 1.385 . S
C1459 C1460 1.389 . S
C1460 C1459 1.389 . S
C1460 C1461 1.387 . S
C1461 H1446 0.930 . S
C1461 C1456 1.390 . S
C1461 C1460 1.387 . S
H1462 C1474 0.930 . S
H1463 C1476 0.930 . S
H1464 C1477 0.930 . S
H1465 C1481 0.959 . S
H1466 C1481 0.959 . S
H1467 C1481 0.961 . S
H1468 C1482 0.960 . S
H1469 C1482 0.961 . S
H1470 C1482 0.959 . S
H1471 C1485 0.929 . S
H1472 C1486 0.931 . S
H1473 C1488 0.930 . S
C1474 H1462 0.930 . S
C1474 C1475 1.399 . S
C1474 C1479 1.399 . S
C1475 C1474 1.399 . S
C1475 C1476 1.376 . S
C1476 H1463 0.930 . S
C1476 C1475 1.376 . S
C1476 C1477 1.388 . S
C1477 H1464 0.930 . S
C1477 C1476 1.388 . S
C1477 C1478 1.390 . S
C1478 C1477 1.390 . S
C1478 C1479 1.394 . S
C1478 C1484 1.465 . S
C1479 C1474 1.399 . S
C1479 C1478 1.394 . S
C1479 C1480 1.516 . S
C1480 C1479 1.516 . S
C1480 C1481 1.502 . S
C1480 C1482 1.561 . S
C1480 C1483 1.526 . S
C1481 H1465 0.959 . S
C1481 H1466 0.959 . S
C1481 H1467 0.961 . S
C1481 C1480 1.502 . S
C1482 H1468 0.960 . S
C1482 H1469 0.961 . S
C1482 H1470 0.959 . S
C1482 C1480 1.561 . S
C1483 C1480 1.526 . S
C1483 C1484 1.396 . S
C1483 C1488 1.390 . S
C1484 C1478 1.465 . S
C1484 C1483 1.396 . S
C1484 C1485 1.399 . S
C1485 H1471 0.929 . S
C1485 C1484 1.399 . S
C1485 C1486 1.385 . S
C1486 H1472 0.931 . S
C1486 C1485 1.385 . S
C1486 C1487 1.389 . S
C1487 C1486 1.389 . S
C1487 C1488 1.387 . S
C1488 H1473 0.930 . S
C1488 C1483 1.390 . S
C1488 C1487 1.387 . S
H1489 C1501 0.930 . S
H1490 C1503 0.930 . S
H1491 C1504 0.930 . S
H1492 C1508 0.959 . S
H1493 C1508 0.959 . S
H1494 C1508 0.961 . S
H1495 C1509 0.960 . S
H1496 C1509 0.961 . S
H1497 C1509 0.959 . S
H1498 C1512 0.929 . S
H1499 C1513 0.931 . S
H1500 C1515 0.930 . S
C1501 H1489 0.930 . S
C1501 C1502 1.399 . S
C1501 C1506 1.399 . S
C1502 C1501 1.399 . S
C1502 C1503 1.376 . S
C1503 H1490 0.930 . S
C1503 C1502 1.376 . S
C1503 C1504 1.388 . S
C1504 H1491 0.930 . S
C1504 C1503 1.388 . S
C1504 C1505 1.390 . S
C1505 C1504 1.390 . S
C1505 C1506 1.394 . S
C1505 C1511 1.465 . S
C1506 C1501 1.399 . S
C1506 C1505 1.394 . S
C1506 C1507 1.516 . S
C1507 C1506 1.516 . S
C1507 C1508 1.502 . S
C1507 C1509 1.561 . S
C1507 C1510 1.526 . S
C1508 H1492 0.959 . S
C1508 H1493 0.959 . S
C1508 H1494 0.961 . S
C1508 C1507 1.502 . S
C1509 H1495 0.960 . S
C1509 H1496 0.961 . S
C1509 H1497 0.959 . S
C1509 C1507 1.561 . S
C1510 C1507 1.526 . S
C1510 C1511 1.396 . S
C1510 C1515 1.390 . S
C1511 C1505 1.465 . S
C1511 C1510 1.396 . S
C1511 C1512 1.399 . S
C1512 H1498 0.929 . S
C1512 C1511 1.399 . S
C1512 C1513 1.385 . S
C1513 H1499 0.931 . S
C1513 C1512 1.385 . S
C1513 C1514 1.389 . S
C1514 C1513 1.389 . S
C1514 C1515 1.387 . S
C1515 H1500 0.930 . S
C1515 C1510 1.390 . S
C1515 C1514 1.387 . S
H1516 C1528 0.930 . S
H1517 C1530 0.930 . S
H1518 C1531 0.930 . S
H1519 C1535 0.959 . S
H1520 C1535 0.959 . S
H1521 C1535 0.961 . S
H1522 C1536 0.960 . S
H1523 C1536 0.961 . S
H1524 C1536 0.959 . S
H1525 C1539 0.929 . S
H1526 C1540 0.931 . S
H1527 C1542 0.930 . S
C1528 H1516 0.930 . S
C1528 C1529 1.399 . S
C1528 C1533 1.399 . S
C1529 C1528 1.399 . S
C1529 C1530 1.376 . S
C1530 H1517 0.930 . S
C1530 C1529 1.376 . S
C1530 C1531 1.388 . S
C1531 H1518 0.930 . S
C1531 C1530 1.388 . S
C1531 C1532 1.390 . S
C1532 C1531 1.390 . S
C1532 C1533 1.394 . S
C1532 C1538 1.465 . S
C1533 C1528 1.399 . S
C1533 C1532 1.394 . S
C1533 C1534 1.516 . S
C1534 C1533 1.516 . S
C1534 C1535 1.502 . S
C1534 C1536 1.561 . S
C1534 C1537 1.526 . S
C1535 H1519 0.959 . S
C1535 H1520 0.959 . S
C1535 H1521 0.961 . S
C1535 C1534 1.502 . S
C1536 H1522 0.960 . S
C1536 H1523 0.961 . S
C1536 H1524 0.959 . S
C1536 C1534 1.561 . S
C1537 C1534 1.526 . S
C1537 C1538 1.396 . S
C1537 C1542 1.390 . S
C1538 C1532 1.465 . S
C1538 C1537 1.396 . S
C1538 C1539 1.399 . S
C1539 H1525 0.929 . S
C1539 C1538 1.399 . S
C1539 C1540 1.385 . S
C1540 H1526 0.931 . S
C1540 C1539 1.385 . S
C1540 C1541 1.389 . S
C1541 C1540 1.389 . S
C1541 C1542 1.387 . S
C1542 H1527 0.930 . S
C1542 C1537 1.390 . S
C1542 C1541 1.387 . S
H1543 C1555 0.930 . S
H1544 C1557 0.930 . S
H1545 C1558 0.930 . S
H1546 C1562 0.959 . S
H1547 C1562 0.959 . S
H1548 C1562 0.961 . S
H1549 C1563 0.960 . S
H1550 C1563 0.961 . S
H1551 C1563 0.959 . S
H1552 C1566 0.929 . S
H1553 C1567 0.931 . S
H1554 C1569 0.930 . S
C1555 H1543 0.930 . S
C1555 C1556 1.399 . S
C1555 C1560 1.399 . S
C1556 C1555 1.399 . S
C1556 C1557 1.376 . S
C1557 H1544 0.930 . S
C1557 C1556 1.376 . S
C1557 C1558 1.388 . S
C1558 H1545 0.930 . S
C1558 C1557 1.388 . S
C1558 C1559 1.390 . S
C1559 C1558 1.390 . S
C1559 C1560 1.394 . S
C1559 C1565 1.465 . S
C1560 C1555 1.399 . S
C1560 C1559 1.394 . S
C1560 C1561 1.516 . S
C1561 C1560 1.516 . S
C1561 C1562 1.502 . S
C1561 C1563 1.561 . S
C1561 C1564 1.526 . S
C1562 H1546 0.959 . S
C1562 H1547 0.959 . S
C1562 H1548 0.961 . S
C1562 C1561 1.502 . S
C1563 H1549 0.960 . S
C1563 H1550 0.961 . S
C1563 H1551 0.959 . S
C1563 C1561 1.561 . S
C1564 C1561 1.526 . S
C1564 C1565 1.396 . S
C1564 C1569 1.390 . S
C1565 C1559 1.465 . S
C1565 C1564 1.396 . S
C1565 C1566 1.399 . S
C1566 H1552 0.929 . S
C1566 C1565 1.399 . S
C1566 C1567 1.385 . S
C1567 H1553 0.931 . S
C1567 C1566 1.385 . S
C1567 C1568 1.389 . S
C1568 C1567 1.389 . S
C1568 C1569 1.387 . S
C1569 H1554 0.930 . S
C1569 C1564 1.390 . S
C1569 C1568 1.387 . S
H1570 C1582 0.930 . S
H1571 C1584 0.930 . S
H1572 C1585 0.930 . S
H1573 C1589 0.959 . S
H1574 C1589 0.959 . S
H1575 C1589 0.961 . S
H1576 C1590 0.960 . S
H1577 C1590 0.961 . S
H1578 C1590 0.959 . S
H1579 C1593 0.929 . S
H1580 C1594 0.931 . S
H1581 C1596 0.930 . S
C1582 H1570 0.930 . S
C1582 C1583 1.399 . S
C1582 C1587 1.399 . S
C1583 C1582 1.399 . S
C1583 C1584 1.376 . S
C1584 H1571 0.930 . S
C1584 C1583 1.376 . S
C1584 C1585 1.388 . S
C1585 H1572 0.930 . S
C1585 C1584 1.388 . S
C1585 C1586 1.390 . S
C1586 C1585 1.390 . S
C1586 C1587 1.394 . S
C1586 C1592 1.465 . S
C1587 C1582 1.399 . S
C1587 C1586 1.394 . S
C1587 C1588 1.516 . S
C1588 C1587 1.516 . S
C1588 C1589 1.502 . S
C1588 C1590 1.561 . S
C1588 C1591 1.526 . S
C1589 H1573 0.959 . S
C1589 H1574 0.959 . S
C1589 H1575 0.961 . S
C1589 C1588 1.502 . S
C1590 H1576 0.960 . S
C1590 H1577 0.961 . S
C1590 H1578 0.959 . S
C1590 C1588 1.561 . S
C1591 C1588 1.526 . S
C1591 C1592 1.396 . S
C1591 C1596 1.390 . S
C1592 C1586 1.465 . S
C1592 C1591 1.396 . S
C1592 C1593 1.399 . S
C1593 H1579 0.929 . S
C1593 C1592 1.399 . S
C1593 C1594 1.385 . S
C1594 H1580 0.931 . S
C1594 C1593 1.385 . S
C1594 C1595 1.389 . S
C1595 C1594 1.389 . S
C1595 C1596 1.387 . S
C1596 H1581 0.930 . S
C1596 C1591 1.390 . S
C1596 C1595 1.387 . S
H1597 C1609 0.930 . S
H1598 C1611 0.930 . S
H1599 C1612 0.930 . S
H1600 C1616 0.959 . S
H1601 C1616 0.959 . S
H1602 C1616 0.961 . S
H1603 C1617 0.960 . S
H1604 C1617 0.961 . S
H1605 C1617 0.959 . S
H1606 C1620 0.929 . S
H1607 C1621 0.931 . S
H1608 C1623 0.930 . S
C1609 H1597 0.930 . S
C1609 C1610 1.399 . S
C1609 C1614 1.399 . S
C1610 C1609 1.399 . S
C1610 C1611 1.376 . S
C1611 H1598 0.930 . S
C1611 C1610 1.376 . S
C1611 C1612 1.388 . S
C1612 H1599 0.930 . S
C1612 C1611 1.388 . S
C1612 C1613 1.390 . S
C1613 C1612 1.390 . S
C1613 C1614 1.394 . S
C1613 C1619 1.465 . S
C1614 C1609 1.399 . S
C1614 C1613 1.394 . S
C1614 C1615 1.516 . S
C1615 C1614 1.516 . S
C1615 C1616 1.502 . S
C1615 C1617 1.561 . S
C1615 C1618 1.526 . S
C1616 H1600 0.959 . S
C1616 H1601 0.959 . S
C1616 H1602 0.961 . S
C1616 C1615 1.502 . S
C1617 H1603 0.960 . S
C1617 H1604 0.961 . S
C1617 H1605 0.959 . S
C1617 C1615 1.561 . S
C1618 C1615 1.526 . S
C1618 C1619 1.396 . S
C1618 C1623 1.390 . S
C1619 C1613 1.465 . S
C1619 C1618 1.396 . S
C1619 C1620 1.399 . S
C1620 H1606 0.929 . S
C1620 C1619 1.399 . S
C1620 C1621 1.385 . S
C1621 H1607 0.931 . S
C1621 C1620 1.385 . S
C1621 C1622 1.389 . S
C1622 C1621 1.389 . S
C1622 C1623 1.387 . S
C1623 H1608 0.930 . S
C1623 C1618 1.390 . S
C1623 C1622 1.387 . S
H1624 C1636 0.930 . S
H1625 C1638 0.930 . S
H1626 C1639 0.930 . S
H1627 C1643 0.962 . S
H1628 C1643 0.980 . S
H1629 C1643 0.939 1_556 S
H1630 C1644 0.957 1_556 S
H1631 C1644 0.963 . S
H1632 C1644 0.959 . S
H1633 C1647 0.929 . S
H1634 C1648 0.931 . S
H1635 C1650 0.930 . S
C1636 H1624 0.930 . S
C1636 C1637 1.399 . S
C1636 C1641 1.399 . S
C1637 C1636 1.399 . S
C1637 C1638 1.376 . S
C1638 H1625 0.930 . S
C1638 C1637 1.376 . S
C1638 C1639 1.388 . S
C1639 H1626 0.930 . S
C1639 C1638 1.388 . S
C1639 C1640 1.390 . S
C1640 C1639 1.390 . S
C1640 C1641 1.394 . S
C1640 C1646 1.465 1_556 S
C1641 C1636 1.399 . S
C1641 C1640 1.394 . S
C1641 C1642 1.517 1_556 S
C1642 C1641 1.517 1_554 S
C1642 C1643 1.501 . S
C1642 C1644 1.561 . S
C1642 C1645 1.525 . S
C1643 H1627 0.962 . S
C1643 H1628 0.980 . S
C1643 H1629 0.939 1_554 S
C1643 C1642 1.501 . S
C1644 H1630 0.957 1_554 S
C1644 H1631 0.963 . S
C1644 H1632 0.959 . S
C1644 C1642 1.561 . S
C1645 C1642 1.525 . S
C1645 C1646 1.396 . S
C1645 C1650 1.390 . S
C1646 C1640 1.465 1_554 S
C1646 C1645 1.396 . S
C1646 C1647 1.399 . S
C1647 H1633 0.929 . S
C1647 C1646 1.399 . S
C1647 C1648 1.385 . S
C1648 H1634 0.931 . S
C1648 C1647 1.385 . S
C1648 C1649 1.389 . S
C1649 C1648 1.389 . S
C1649 C1650 1.387 . S
C1650 H1635 0.930 . S
C1650 C1645 1.390 . S
C1650 C1649 1.387 . S
H1651 C1663 0.930 . S
H1652 C1665 0.930 . S
H1653 C1666 0.930 . S
H1654 C1670 0.962 . S
H1655 C1670 0.978 . S
H1656 C1670 0.940 1_556 S
H1657 C1671 0.957 1_556 S
H1658 C1671 0.964 . S
H1659 C1671 0.959 . S
H1660 C1674 0.929 . S
H1661 C1675 0.931 . S
H1662 C1677 0.930 . S
C1663 H1651 0.930 . S
C1663 C1664 1.399 . S
C1663 C1668 1.399 . S
C1664 C1663 1.399 . S
C1664 C1665 1.376 . S
C1665 H1652 0.930 . S
C1665 C1664 1.376 . S
C1665 C1666 1.388 . S
C1666 H1653 0.930 . S
C1666 C1665 1.388 . S
C1666 C1667 1.390 . S
C1667 C1666 1.390 . S
C1667 C1668 1.394 . S
C1667 C1673 1.465 1_556 S
C1668 C1663 1.399 . S
C1668 C1667 1.394 . S
C1668 C1669 1.517 1_556 S
C1669 C1668 1.517 1_554 S
C1669 C1670 1.502 . S
C1669 C1671 1.561 . S
C1669 C1672 1.525 . S
C1670 H1654 0.962 . S
C1670 H1655 0.978 . S
C1670 H1656 0.940 1_554 S
C1670 C1669 1.502 . S
C1671 H1657 0.957 1_554 S
C1671 H1658 0.964 . S
C1671 H1659 0.959 . S
C1671 C1669 1.561 . S
C1672 C1669 1.525 . S
C1672 C1673 1.396 . S
C1672 C1677 1.390 . S
C1673 C1667 1.465 1_554 S
C1673 C1672 1.396 . S
C1673 C1674 1.399 . S
C1674 H1660 0.929 . S
C1674 C1673 1.399 . S
C1674 C1675 1.385 . S
C1675 H1661 0.931 . S
C1675 C1674 1.385 . S
C1675 C1676 1.389 . S
C1676 C1675 1.389 . S
C1676 C1677 1.387 . S
C1677 H1662 0.930 . S
C1677 C1672 1.390 . S
C1677 C1676 1.387 . S
H1678 C1690 0.930 . S
H1679 C1692 0.930 . S
H1680 C1693 0.930 . S
H1681 C1697 0.962 . S
H1682 C1697 0.980 . S
H1683 C1697 0.939 1_556 S
H1684 C1698 0.957 1_556 S
H1685 C1698 0.963 . S
H1686 C1698 0.959 . S
H1687 C1701 0.929 . S
H1688 C1702 0.931 . S
H1689 C1704 0.930 . S
C1690 H1678 0.930 . S
C1690 C1691 1.399 . S
C1690 C1695 1.399 . S
C1691 C1690 1.399 . S
C1691 C1692 1.376 . S
C1692 H1679 0.930 . S
C1692 C1691 1.376 . S
C1692 C1693 1.388 . S
C1693 H1680 0.930 . S
C1693 C1692 1.388 . S
C1693 C1694 1.390 . S
C1694 C1693 1.390 . S
C1694 C1695 1.394 . S
C1694 C1700 1.465 1_556 S
C1695 C1690 1.399 . S
C1695 C1694 1.394 . S
C1695 C1696 1.517 1_556 S
C1696 C1695 1.517 1_554 S
C1696 C1697 1.501 . S
C1696 C1698 1.561 . S
C1696 C1699 1.525 . S
C1697 H1681 0.962 . S
C1697 H1682 0.980 . S
C1697 H1683 0.939 1_554 S
C1697 C1696 1.501 . S
C1698 H1684 0.957 1_554 S
C1698 H1685 0.963 . S
C1698 H1686 0.959 . S
C1698 C1696 1.561 . S
C1699 C1696 1.525 . S
C1699 C1700 1.396 . S
C1699 C1704 1.390 . S
C1700 C1694 1.465 1_554 S
C1700 C1699 1.396 . S
C1700 C1701 1.399 . S
C1701 H1687 0.929 . S
C1701 C1700 1.399 . S
C1701 C1702 1.385 . S
C1702 H1688 0.931 . S
C1702 C1701 1.385 . S
C1702 C1703 1.389 . S
C1703 C1702 1.389 . S
C1703 C1704 1.387 . S
C1704 H1689 0.930 . S
C1704 C1699 1.390 . S
C1704 C1703 1.387 . S
H1705 C1717 0.930 . S
H1706 C1719 0.930 . S
H1707 C1720 0.930 . S
H1708 C1724 0.962 . S
H1709 C1724 0.977 . S
H1710 C1724 0.941 1_554 S
H1711 C1725 0.959 1_554 S
H1712 C1725 0.962 . S
H1713 C1725 0.959 . S
H1714 C1728 0.929 . S
H1715 C1729 0.931 . S
H1716 C1731 0.930 . S
C1717 H1705 0.930 . S
C1717 C1718 1.399 . S
C1717 C1722 1.399 . S
C1718 C1717 1.399 . S
C1718 C1719 1.376 . S
C1719 H1706 0.930 . S
C1719 C1718 1.376 . S
C1719 C1720 1.388 . S
C1720 H1707 0.930 . S
C1720 C1719 1.388 . S
C1720 C1721 1.390 . S
C1721 C1720 1.390 . S
C1721 C1722 1.394 . S
C1721 C1727 1.465 1_554 S
C1722 C1717 1.399 . S
C1722 C1721 1.394 . S
C1722 C1723 1.518 1_554 S
C1723 C1722 1.518 1_556 S
C1723 C1724 1.502 . S
C1723 C1725 1.561 . S
C1723 C1726 1.524 . S
C1724 H1708 0.962 . S
C1724 H1709 0.977 . S
C1724 H1710 0.941 1_556 S
C1724 C1723 1.502 . S
C1725 H1711 0.959 1_556 S
C1725 H1712 0.962 . S
C1725 H1713 0.959 . S
C1725 C1723 1.561 . S
C1726 C1723 1.524 . S
C1726 C1727 1.396 . S
C1726 C1731 1.390 . S
C1727 C1721 1.465 1_556 S
C1727 C1726 1.396 . S
C1727 C1728 1.399 . S
C1728 H1714 0.929 . S
C1728 C1727 1.399 . S
C1728 C1729 1.385 . S
C1729 H1715 0.931 . S
C1729 C1728 1.385 . S
C1729 C1730 1.389 . S
C1730 C1729 1.389 . S
C1730 C1731 1.387 . S
C1731 H1716 0.930 . S
C1731 C1726 1.390 . S
C1731 C1730 1.387 . S
H1732 C1744 0.930 . S
H1733 C1746 0.930 . S
H1734 C1747 0.930 . S
H1735 C1751 0.959 . S
H1736 C1751 0.959 . S
H1737 C1751 0.961 . S
H1738 C1752 0.960 . S
H1739 C1752 0.961 . S
H1740 C1752 0.959 . S
H1741 C1755 0.929 . S
H1742 C1756 0.931 . S
H1743 C1758 0.930 . S
C1744 H1732 0.930 . S
C1744 C1745 1.399 . S
C1744 C1749 1.399 . S
C1745 C1744 1.399 . S
C1745 C1746 1.376 . S
C1746 H1733 0.930 . S
C1746 C1745 1.376 . S
C1746 C1747 1.388 . S
C1747 H1734 0.930 . S
C1747 C1746 1.388 . S
C1747 C1748 1.390 . S
C1748 C1747 1.390 . S
C1748 C1749 1.394 . S
C1748 C1754 1.465 . S
C1749 C1744 1.399 . S
C1749 C1748 1.394 . S
C1749 C1750 1.516 . S
C1750 C1749 1.516 . S
C1750 C1751 1.502 . S
C1750 C1752 1.561 . S
C1750 C1753 1.526 . S
C1751 H1735 0.959 . S
C1751 H1736 0.959 . S
C1751 H1737 0.961 . S
C1751 C1750 1.502 . S
C1752 H1738 0.960 . S
C1752 H1739 0.961 . S
C1752 H1740 0.959 . S
C1752 C1750 1.561 . S
C1753 C1750 1.526 . S
C1753 C1754 1.396 . S
C1753 C1758 1.390 . S
C1754 C1748 1.465 . S
C1754 C1753 1.396 . S
C1754 C1755 1.399 . S
C1755 H1741 0.929 . S
C1755 C1754 1.399 . S
C1755 C1756 1.385 . S
C1756 H1742 0.931 . S
C1756 C1755 1.385 . S
C1756 C1757 1.389 . S
C1757 C1756 1.389 . S
C1757 C1758 1.387 . S
C1758 H1743 0.930 . S
C1758 C1753 1.390 . S
C1758 C1757 1.387 . S
H1759 C1771 0.930 . S
H1760 C1773 0.930 . S
H1761 C1774 0.930 . S
H1762 C1778 0.959 . S
H1763 C1778 0.959 . S
H1764 C1778 0.961 . S
H1765 C1779 0.960 . S
H1766 C1779 0.961 . S
H1767 C1779 0.959 . S
H1768 C1782 0.929 . S
H1769 C1783 0.931 . S
H1770 C1785 0.930 . S
C1771 H1759 0.930 . S
C1771 C1772 1.399 . S
C1771 C1776 1.399 . S
C1772 C1771 1.399 . S
C1772 C1773 1.376 . S
C1773 H1760 0.930 . S
C1773 C1772 1.376 . S
C1773 C1774 1.388 . S
C1774 H1761 0.930 . S
C1774 C1773 1.388 . S
C1774 C1775 1.390 . S
C1775 C1774 1.390 . S
C1775 C1776 1.394 . S
C1775 C1781 1.465 . S
C1776 C1771 1.399 . S
C1776 C1775 1.394 . S
C1776 C1777 1.516 . S
C1777 C1776 1.516 . S
C1777 C1778 1.502 . S
C1777 C1779 1.561 . S
C1777 C1780 1.526 . S
C1778 H1762 0.959 . S
C1778 H1763 0.959 . S
C1778 H1764 0.961 . S
C1778 C1777 1.502 . S
C1779 H1765 0.960 . S
C1779 H1766 0.961 . S
C1779 H1767 0.959 . S
C1779 C1777 1.561 . S
C1780 C1777 1.526 . S
C1780 C1781 1.396 . S
C1780 C1785 1.390 . S
C1781 C1775 1.465 . S
C1781 C1780 1.396 . S
C1781 C1782 1.399 . S
C1782 H1768 0.929 . S
C1782 C1781 1.399 . S
C1782 C1783 1.385 . S
C1783 H1769 0.931 . S
C1783 C1782 1.385 . S
C1783 C1784 1.389 . S
C1784 C1783 1.389 . S
C1784 C1785 1.387 . S
C1785 H1770 0.930 . S
C1785 C1780 1.390 . S
C1785 C1784 1.387 . S
H1786 C1798 0.930 . S
H1787 C1800 0.930 . S
H1788 C1801 0.930 . S
H1789 C1805 0.959 . S
H1790 C1805 0.959 . S
H1791 C1805 0.961 . S
H1792 C1806 0.960 . S
H1793 C1806 0.961 . S
H1794 C1806 0.959 . S
H1795 C1809 0.929 . S
H1796 C1810 0.931 . S
H1797 C1812 0.930 . S
C1798 H1786 0.930 . S
C1798 C1799 1.399 . S
C1798 C1803 1.399 . S
C1799 C1798 1.399 . S
C1799 C1800 1.376 . S
C1800 H1787 0.930 . S
C1800 C1799 1.376 . S
C1800 C1801 1.388 . S
C1801 H1788 0.930 . S
C1801 C1800 1.388 . S
C1801 C1802 1.390 . S
C1802 C1801 1.390 . S
C1802 C1803 1.394 . S
C1802 C1808 1.465 . S
C1803 C1798 1.399 . S
C1803 C1802 1.394 . S
C1803 C1804 1.516 . S
C1804 C1803 1.516 . S
C1804 C1805 1.502 . S
C1804 C1806 1.561 . S
C1804 C1807 1.526 . S
C1805 H1789 0.959 . S
C1805 H1790 0.959 . S
C1805 H1791 0.961 . S
C1805 C1804 1.502 . S
C1806 H1792 0.960 . S
C1806 H1793 0.961 . S
C1806 H1794 0.959 . S
C1806 C1804 1.561 . S
C1807 C1804 1.526 . S
C1807 C1808 1.396 . S
C1807 C1812 1.390 . S
C1808 C1802 1.465 . S
C1808 C1807 1.396 . S
C1808 C1809 1.399 . S
C1809 H1795 0.929 . S
C1809 C1808 1.399 . S
C1809 C1810 1.385 . S
C1810 H1796 0.931 . S
C1810 C1809 1.385 . S
C1810 C1811 1.389 . S
C1811 C1810 1.389 . S
C1811 C1812 1.387 . S
C1812 H1797 0.930 . S
C1812 C1807 1.390 . S
C1812 C1811 1.387 . S
H1813 C1825 0.930 . S
H1814 C1827 0.930 . S
H1815 C1828 0.930 . S
H1816 C1832 0.959 . S
H1817 C1832 0.959 . S
H1818 C1832 0.961 . S
H1819 C1833 0.960 . S
H1820 C1833 0.961 . S
H1821 C1833 0.959 . S
H1822 C1836 0.929 . S
H1823 C1837 0.931 . S
H1824 C1839 0.930 . S
C1825 H1813 0.930 . S
C1825 C1826 1.399 . S
C1825 C1830 1.399 . S
C1826 C1825 1.399 . S
C1826 C1827 1.376 . S
C1827 H1814 0.930 . S
C1827 C1826 1.376 . S
C1827 C1828 1.388 . S
C1828 H1815 0.930 . S
C1828 C1827 1.388 . S
C1828 C1829 1.390 . S
C1829 C1828 1.390 . S
C1829 C1830 1.394 . S
C1829 C1835 1.465 . S
C1830 C1825 1.399 . S
C1830 C1829 1.394 . S
C1830 C1831 1.516 . S
C1831 C1830 1.516 . S
C1831 C1832 1.502 . S
C1831 C1833 1.561 . S
C1831 C1834 1.526 . S
C1832 H1816 0.959 . S
C1832 H1817 0.959 . S
C1832 H1818 0.961 . S
C1832 C1831 1.502 . S
C1833 H1819 0.960 . S
C1833 H1820 0.961 . S
C1833 H1821 0.959 . S
C1833 C1831 1.561 . S
C1834 C1831 1.526 . S
C1834 C1835 1.396 . S
C1834 C1839 1.390 . S
C1835 C1829 1.465 . S
C1835 C1834 1.396 . S
C1835 C1836 1.399 . S
C1836 H1822 0.929 . S
C1836 C1835 1.399 . S
C1836 C1837 1.385 . S
C1837 H1823 0.931 . S
C1837 C1836 1.385 . S
C1837 C1838 1.389 . S
C1838 C1837 1.389 . S
C1838 C1839 1.387 . S
C1839 H1824 0.930 . S
C1839 C1834 1.390 . S
C1839 C1838 1.387 . S
H1840 C1852 0.930 . S
H1841 C1854 0.930 . S
H1842 C1855 0.930 . S
H1843 C1859 0.959 . S
H1844 C1859 0.959 . S
H1845 C1859 0.961 . S
H1846 C1860 0.960 . S
H1847 C1860 0.961 . S
H1848 C1860 0.959 . S
H1849 C1863 0.929 . S
H1850 C1864 0.931 . S
H1851 C1866 0.930 . S
C1852 H1840 0.930 . S
C1852 C1853 1.399 . S
C1852 C1857 1.399 . S
C1853 C1852 1.399 . S
C1853 C1854 1.376 . S
C1854 H1841 0.930 . S
C1854 C1853 1.376 . S
C1854 C1855 1.388 . S
C1855 H1842 0.930 . S
C1855 C1854 1.388 . S
C1855 C1856 1.390 . S
C1856 C1855 1.390 . S
C1856 C1857 1.394 . S
C1856 C1862 1.465 . S
C1857 C1852 1.399 . S
C1857 C1856 1.394 . S
C1857 C1858 1.516 . S
C1858 C1857 1.516 . S
C1858 C1859 1.502 . S
C1858 C1860 1.561 . S
C1858 C1861 1.526 . S
C1859 H1843 0.959 . S
C1859 H1844 0.959 . S
C1859 H1845 0.961 . S
C1859 C1858 1.502 . S
C1860 H1846 0.960 . S
C1860 H1847 0.961 . S
C1860 H1848 0.959 . S
C1860 C1858 1.561 . S
C1861 C1858 1.526 . S
C1861 C1862 1.396 . S
C1861 C1866 1.390 . S
C1862 C1856 1.465 . S
C1862 C1861 1.396 . S
C1862 C1863 1.399 . S
C1863 H1849 0.929 . S
C1863 C1862 1.399 . S
C1863 C1864 1.385 . S
C1864 H1850 0.931 . S
C1864 C1863 1.385 . S
C1864 C1865 1.389 . S
C1865 C1864 1.389 . S
C1865 C1866 1.387 . S
C1866 H1851 0.930 . S
C1866 C1861 1.390 . S
C1866 C1865 1.387 . S
H1867 C1879 0.930 . S
H1868 C1881 0.930 . S
H1869 C1882 0.930 . S
H1870 C1886 0.959 . S
H1871 C1886 0.959 . S
H1872 C1886 0.961 . S
H1873 C1887 0.960 . S
H1874 C1887 0.961 . S
H1875 C1887 0.959 . S
H1876 C1890 0.929 . S
H1877 C1891 0.931 . S
H1878 C1893 0.930 . S
C1879 H1867 0.930 . S
C1879 C1880 1.399 . S
C1879 C1884 1.399 . S
C1880 C1879 1.399 . S
C1880 C1881 1.376 . S
C1881 H1868 0.930 . S
C1881 C1880 1.376 . S
C1881 C1882 1.388 . S
C1882 H1869 0.930 . S
C1882 C1881 1.388 . S
C1882 C1883 1.390 . S
C1883 C1882 1.390 . S
C1883 C1884 1.394 . S
C1883 C1889 1.465 . S
C1884 C1879 1.399 . S
C1884 C1883 1.394 . S
C1884 C1885 1.516 . S
C1885 C1884 1.516 . S
C1885 C1886 1.502 . S
C1885 C1887 1.561 . S
C1885 C1888 1.526 . S
C1886 H1870 0.959 . S
C1886 H1871 0.959 . S
C1886 H1872 0.961 . S
C1886 C1885 1.502 . S
C1887 H1873 0.960 . S
C1887 H1874 0.961 . S
C1887 H1875 0.959 . S
C1887 C1885 1.561 . S
C1888 C1885 1.526 . S
C1888 C1889 1.396 . S
C1888 C1893 1.390 . S
C1889 C1883 1.465 . S
C1889 C1888 1.396 . S
C1889 C1890 1.399 . S
C1890 H1876 0.929 . S
C1890 C1889 1.399 . S
C1890 C1891 1.385 . S
C1891 H1877 0.931 . S
C1891 C1890 1.385 . S
C1891 C1892 1.389 . S
C1892 C1891 1.389 . S
C1892 C1893 1.387 . S
C1893 H1878 0.930 . S
C1893 C1888 1.390 . S
C1893 C1892 1.387 . S
H1894 C1906 0.930 . S
H1895 C1908 0.930 . S
H1896 C1909 0.930 . S
H1897 C1913 0.959 . S
H1898 C1913 0.959 . S
H1899 C1913 0.961 . S
H1900 C1914 0.960 . S
H1901 C1914 0.961 . S
H1902 C1914 0.959 . S
H1903 C1917 0.929 . S
H1904 C1918 0.931 . S
H1905 C1920 0.930 . S
C1906 H1894 0.930 . S
C1906 C1907 1.399 . S
C1906 C1911 1.399 . S
C1907 C1906 1.399 . S
C1907 C1908 1.376 . S
C1908 H1895 0.930 . S
C1908 C1907 1.376 . S
C1908 C1909 1.388 . S
C1909 H1896 0.930 . S
C1909 C1908 1.388 . S
C1909 C1910 1.390 . S
C1910 C1909 1.390 . S
C1910 C1911 1.394 . S
C1910 C1916 1.465 . S
C1911 C1906 1.399 . S
C1911 C1910 1.394 . S
C1911 C1912 1.516 . S
C1912 C1911 1.516 . S
C1912 C1913 1.502 . S
C1912 C1914 1.561 . S
C1912 C1915 1.526 . S
C1913 H1897 0.959 . S
C1913 H1898 0.959 . S
C1913 H1899 0.961 . S
C1913 C1912 1.502 . S
C1914 H1900 0.960 . S
C1914 H1901 0.961 . S
C1914 H1902 0.959 . S
C1914 C1912 1.561 . S
C1915 C1912 1.526 . S
C1915 C1916 1.396 . S
C1915 C1920 1.390 . S
C1916 C1910 1.465 . S
C1916 C1915 1.396 . S
C1916 C1917 1.399 . S
C1917 H1903 0.929 . S
C1917 C1916 1.399 . S
C1917 C1918 1.385 . S
C1918 H1904 0.931 . S
C1918 C1917 1.385 . S
C1918 C1919 1.389 . S
C1919 C1918 1.389 . S
C1919 C1920 1.387 . S
C1920 H1905 0.930 . S
C1920 C1915 1.390 . S
C1920 C1919 1.387 . S
H1921 C1933 0.930 . S
H1922 C1935 0.930 . S
H1923 C1936 0.930 . S
H1924 C1940 0.959 . S
H1925 C1940 0.959 . S
H1926 C1940 0.961 . S
H1927 C1941 0.960 . S
H1928 C1941 0.961 . S
H1929 C1941 0.959 . S
H1930 C1944 0.929 . S
H1931 C1945 0.931 . S
H1932 C1947 0.930 . S
C1933 H1921 0.930 . S
C1933 C1934 1.399 . S
C1933 C1938 1.399 . S
C1934 C1933 1.399 . S
C1934 C1935 1.376 . S
C1935 H1922 0.930 . S
C1935 C1934 1.376 . S
C1935 C1936 1.388 . S
C1936 H1923 0.930 . S
C1936 C1935 1.388 . S
C1936 C1937 1.390 . S
C1937 C1936 1.390 . S
C1937 C1938 1.394 . S
C1937 C1943 1.465 . S
C1938 C1933 1.399 . S
C1938 C1937 1.394 . S
C1938 C1939 1.516 . S
C1939 C1938 1.516 . S
C1939 C1940 1.502 . S
C1939 C1941 1.561 . S
C1939 C1942 1.526 . S
C1940 H1924 0.959 . S
C1940 H1925 0.959 . S
C1940 H1926 0.961 . S
C1940 C1939 1.502 . S
C1941 H1927 0.960 . S
C1941 H1928 0.961 . S
C1941 H1929 0.959 . S
C1941 C1939 1.561 . S
C1942 C1939 1.526 . S
C1942 C1943 1.396 . S
C1942 C1947 1.390 . S
C1943 C1937 1.465 . S
C1943 C1942 1.396 . S
C1943 C1944 1.399 . S
C1944 H1930 0.929 . S
C1944 C1943 1.399 . S
C1944 C1945 1.385 . S
C1945 H1931 0.931 . S
C1945 C1944 1.385 . S
C1945 C1946 1.389 . S
C1946 C1945 1.389 . S
C1946 C1947 1.387 . S
C1947 H1932 0.930 . S
C1947 C1942 1.390 . S
C1947 C1946 1.387 . S
H1948 C1960 0.930 . S
H1949 C1962 0.930 . S
H1950 C1963 0.930 . S
H1951 C1967 0.959 . S
H1952 C1967 0.959 . S
H1953 C1967 0.961 . S
H1954 C1968 0.960 . S
H1955 C1968 0.961 . S
H1956 C1968 0.959 . S
H1957 C1971 0.929 . S
H1958 C1972 0.931 . S
H1959 C1974 0.930 . S
C1960 H1948 0.930 . S
C1960 C1961 1.399 . S
C1960 C1965 1.399 . S
C1961 C1960 1.399 . S
C1961 C1962 1.376 . S
C1962 H1949 0.930 . S
C1962 C1961 1.376 . S
C1962 C1963 1.388 . S
C1963 H1950 0.930 . S
C1963 C1962 1.388 . S
C1963 C1964 1.390 . S
C1964 C1963 1.390 . S
C1964 C1965 1.394 . S
C1964 C1970 1.465 . S
C1965 C1960 1.399 . S
C1965 C1964 1.394 . S
C1965 C1966 1.516 . S
C1966 C1965 1.516 . S
C1966 C1967 1.502 . S
C1966 C1968 1.561 . S
C1966 C1969 1.526 . S
C1967 H1951 0.959 . S
C1967 H1952 0.959 . S
C1967 H1953 0.961 . S
C1967 C1966 1.502 . S
C1968 H1954 0.960 . S
C1968 H1955 0.961 . S
C1968 H1956 0.959 . S
C1968 C1966 1.561 . S
C1969 C1966 1.526 . S
C1969 C1970 1.396 . S
C1969 C1974 1.390 . S
C1970 C1964 1.465 . S
C1970 C1969 1.396 . S
C1970 C1971 1.399 . S
C1971 H1957 0.929 . S
C1971 C1970 1.399 . S
C1971 C1972 1.385 . S
C1972 H1958 0.931 . S
C1972 C1971 1.385 . S
C1972 C1973 1.389 . S
C1973 C1972 1.389 . S
C1973 C1974 1.387 . S
C1974 H1959 0.930 . S
C1974 C1969 1.390 . S
C1974 C1973 1.387 . S
H1975 C1987 0.930 . S
H1976 C1989 0.930 . S
H1977 C1990 0.930 . S
H1978 C1994 0.959 . S
H1979 C1994 0.959 . S
H1980 C1994 0.961 . S
H1981 C1995 0.960 . S
H1982 C1995 0.961 . S
H1983 C1995 0.959 . S
H1984 C1998 0.929 . S
H1985 C1999 0.931 . S
H1986 C2001 0.930 . S
C1987 H1975 0.930 . S
C1987 C1988 1.399 . S
C1987 C1992 1.399 . S
C1988 C1987 1.399 . S
C1988 C1989 1.376 . S
C1989 H1976 0.930 . S
C1989 C1988 1.376 . S
C1989 C1990 1.388 . S
C1990 H1977 0.930 . S
C1990 C1989 1.388 . S
C1990 C1991 1.390 . S
C1991 C1990 1.390 . S
C1991 C1992 1.394 . S
C1991 C1997 1.465 . S
C1992 C1987 1.399 . S
C1992 C1991 1.394 . S
C1992 C1993 1.516 . S
C1993 C1992 1.516 . S
C1993 C1994 1.502 . S
C1993 C1995 1.561 . S
C1993 C1996 1.526 . S
C1994 H1978 0.959 . S
C1994 H1979 0.959 . S
C1994 H1980 0.961 . S
C1994 C1993 1.502 . S
C1995 H1981 0.960 . S
C1995 H1982 0.961 . S
C1995 H1983 0.959 . S
C1995 C1993 1.561 . S
C1996 C1993 1.526 . S
C1996 C1997 1.396 . S
C1996 C2001 1.390 . S
C1997 C1991 1.465 . S
C1997 C1996 1.396 . S
C1997 C1998 1.399 . S
C1998 H1984 0.929 . S
C1998 C1997 1.399 . S
C1998 C1999 1.385 . S
C1999 H1985 0.931 . S
C1999 C1998 1.385 . S
C1999 C2000 1.389 . S
C2000 C1999 1.389 . S
C2000 C2001 1.387 . S
C2001 H1986 0.930 . S
C2001 C1996 1.390 . S
C2001 C2000 1.387 . S
H2002 C2014 0.930 . S
H2003 C2016 0.930 . S
H2004 C2017 0.930 . S
H2005 C2021 0.959 . S
H2006 C2021 0.959 . S
H2007 C2021 0.961 . S
H2008 C2022 0.960 . S
H2009 C2022 0.961 . S
H2010 C2022 0.959 . S
H2011 C2025 0.929 . S
H2012 C2026 0.931 . S
H2013 C2028 0.930 . S
C2014 H2002 0.930 . S
C2014 C2015 1.399 . S
C2014 C2019 1.399 . S
C2015 C2014 1.399 . S
C2015 C2016 1.376 . S
C2016 H2003 0.930 . S
C2016 C2015 1.376 . S
C2016 C2017 1.388 . S
C2017 H2004 0.930 . S
C2017 C2016 1.388 . S
C2017 C2018 1.390 . S
C2018 C2017 1.390 . S
C2018 C2019 1.394 . S
C2018 C2024 1.465 . S
C2019 C2014 1.399 . S
C2019 C2018 1.394 . S
C2019 C2020 1.516 . S
C2020 C2019 1.516 . S
C2020 C2021 1.502 . S
C2020 C2022 1.561 . S
C2020 C2023 1.526 . S
C2021 H2005 0.959 . S
C2021 H2006 0.959 . S
C2021 H2007 0.961 . S
C2021 C2020 1.502 . S
C2022 H2008 0.960 . S
C2022 H2009 0.961 . S
C2022 H2010 0.959 . S
C2022 C2020 1.561 . S
C2023 C2020 1.526 . S
C2023 C2024 1.396 . S
C2023 C2028 1.390 . S
C2024 C2018 1.465 . S
C2024 C2023 1.396 . S
C2024 C2025 1.399 . S
C2025 H2011 0.929 . S
C2025 C2024 1.399 . S
C2025 C2026 1.385 . S
C2026 H2012 0.931 . S
C2026 C2025 1.385 . S
C2026 C2027 1.389 . S
C2027 C2026 1.389 . S
C2027 C2028 1.387 . S
C2028 H2013 0.930 . S
C2028 C2023 1.390 . S
C2028 C2027 1.387 . S
H2029 C2041 0.930 . S
H2030 C2043 0.930 . S
H2031 C2044 0.930 . S
H2032 C2048 0.959 . S
H2033 C2048 0.959 . S
H2034 C2048 0.961 . S
H2035 C2049 0.960 . S
H2036 C2049 0.961 . S
H2037 C2049 0.959 . S
H2038 C2052 0.929 . S
H2039 C2053 0.931 . S
H2040 C2055 0.930 . S
C2041 H2029 0.930 . S
C2041 C2042 1.399 . S
C2041 C2046 1.399 . S
C2042 C2041 1.399 . S
C2042 C2043 1.376 . S
C2043 H2030 0.930 . S
C2043 C2042 1.376 . S
C2043 C2044 1.388 . S
C2044 H2031 0.930 . S
C2044 C2043 1.388 . S
C2044 C2045 1.390 . S
C2045 C2044 1.390 . S
C2045 C2046 1.394 . S
C2045 C2051 1.465 . S
C2046 C2041 1.399 . S
C2046 C2045 1.394 . S
C2046 C2047 1.516 . S
C2047 C2046 1.516 . S
C2047 C2048 1.502 . S
C2047 C2049 1.561 . S
C2047 C2050 1.526 . S
C2048 H2032 0.959 . S
C2048 H2033 0.959 . S
C2048 H2034 0.961 . S
C2048 C2047 1.502 . S
C2049 H2035 0.960 . S
C2049 H2036 0.961 . S
C2049 H2037 0.959 . S
C2049 C2047 1.561 . S
C2050 C2047 1.526 . S
C2050 C2051 1.396 . S
C2050 C2055 1.390 . S
C2051 C2045 1.465 . S
C2051 C2050 1.396 . S
C2051 C2052 1.399 . S
C2052 H2038 0.929 . S
C2052 C2051 1.399 . S
C2052 C2053 1.385 . S
C2053 H2039 0.931 . S
C2053 C2052 1.385 . S
C2053 C2054 1.389 . S
C2054 C2053 1.389 . S
C2054 C2055 1.387 . S
C2055 H2040 0.930 . S
C2055 C2050 1.390 . S
C2055 C2054 1.387 . S
H2056 C2068 0.930 . S
H2057 C2070 0.930 . S
H2058 C2071 0.930 . S
H2059 C2075 0.959 . S
H2060 C2075 0.959 . S
H2061 C2075 0.961 . S
H2062 C2076 0.960 . S
H2063 C2076 0.961 . S
H2064 C2076 0.959 . S
H2065 C2079 0.929 . S
H2066 C2080 0.931 . S
H2067 C2082 0.930 . S
C2068 H2056 0.930 . S
C2068 C2069 1.399 . S
C2068 C2073 1.399 . S
C2069 C2068 1.399 . S
C2069 C2070 1.376 . S
C2070 H2057 0.930 . S
C2070 C2069 1.376 . S
C2070 C2071 1.388 . S
C2071 H2058 0.930 . S
C2071 C2070 1.388 . S
C2071 C2072 1.390 . S
C2072 C2071 1.390 . S
C2072 C2073 1.394 . S
C2072 C2078 1.465 1_545 S
C2073 C2068 1.399 . S
C2073 C2072 1.394 . S
C2073 C2074 1.516 . S
C2074 C2073 1.516 . S
C2074 C2075 1.502 . S
C2074 C2076 1.561 . S
C2074 C2077 1.526 1_545 S
C2075 H2059 0.959 . S
C2075 H2060 0.959 . S
C2075 H2061 0.961 . S
C2075 C2074 1.502 . S
C2076 H2062 0.960 . S
C2076 H2063 0.961 . S
C2076 H2064 0.959 . S
C2076 C2074 1.561 . S
C2077 C2074 1.526 1_565 S
C2077 C2078 1.396 . S
C2077 C2082 1.390 . S
C2078 C2072 1.465 1_565 S
C2078 C2077 1.396 . S
C2078 C2079 1.399 . S
C2079 H2065 0.929 . S
C2079 C2078 1.399 . S
C2079 C2080 1.385 . S
C2080 H2066 0.931 . S
C2080 C2079 1.385 . S
C2080 C2081 1.389 . S
C2081 C2080 1.389 . S
C2081 C2082 1.387 . S
C2082 H2067 0.930 . S
C2082 C2077 1.390 . S
C2082 C2081 1.387 . S
H2083 C2095 0.930 . S
H2084 C2097 0.930 . S
H2085 C2098 0.930 . S
H2086 C2102 0.959 . S
H2087 C2102 0.959 . S
H2088 C2102 0.961 1_655 S
H2089 C2103 0.960 . S
H2090 C2103 0.961 1_455 S
H2091 C2103 0.959 . S
H2092 C2106 0.929 . S
H2093 C2107 0.931 . S
H2094 C2109 0.930 . S
C2095 H2083 0.930 . S
C2095 C2096 1.399 . S
C2095 C2100 1.399 . S
C2096 C2095 1.399 . S
C2096 C2097 1.376 . S
C2097 H2084 0.930 . S
C2097 C2096 1.376 . S
C2097 C2098 1.388 . S
C2098 H2085 0.930 . S
C2098 C2097 1.388 . S
C2098 C2099 1.390 . S
C2099 C2098 1.390 . S
C2099 C2100 1.394 . S
C2099 C2105 1.465 1_655 S
C2100 C2095 1.399 . S
C2100 C2099 1.394 . S
C2100 C2101 1.516 1_655 S
C2101 C2100 1.516 1_455 S
C2101 C2102 1.502 . S
C2101 C2103 1.561 1_455 S
C2101 C2104 1.526 . S
C2102 H2086 0.959 . S
C2102 H2087 0.959 . S
C2102 H2088 0.961 1_455 S
C2102 C2101 1.502 . S
C2103 H2089 0.960 . S
C2103 H2090 0.961 1_655 S
C2103 H2091 0.959 . S
C2103 C2101 1.561 1_655 S
C2104 C2101 1.526 . S
C2104 C2105 1.396 . S
C2104 C2109 1.390 . S
C2105 C2099 1.465 1_455 S
C2105 C2104 1.396 . S
C2105 C2106 1.399 . S
C2106 H2092 0.929 . S
C2106 C2105 1.399 . S
C2106 C2107 1.385 . S
C2107 H2093 0.931 . S
C2107 C2106 1.385 . S
C2107 C2108 1.389 . S
C2108 C2107 1.389 . S
C2108 C2109 1.387 . S
C2109 H2094 0.930 . S
C2109 C2104 1.390 . S
C2109 C2108 1.387 . S
H2110 C2122 0.930 . S
H2111 C2124 0.930 . S
H2112 C2125 0.930 . S
H2113 C2129 0.959 . S
H2114 C2129 0.959 . S
H2115 C2129 0.961 . S
H2116 C2130 0.960 . S
H2117 C2130 0.961 . S
H2118 C2130 0.959 . S
H2119 C2133 0.929 . S
H2120 C2134 0.931 . S
H2121 C2136 0.930 . S
C2122 H2110 0.930 . S
C2122 C2123 1.399 . S
C2122 C2127 1.399 . S
C2123 C2122 1.399 . S
C2123 C2124 1.376 . S
C2124 H2111 0.930 . S
C2124 C2123 1.376 . S
C2124 C2125 1.388 . S
C2125 H2112 0.930 . S
C2125 C2124 1.388 . S
C2125 C2126 1.390 . S
C2126 C2125 1.390 . S
C2126 C2127 1.394 . S
C2126 C2132 1.465 1_545 S
C2127 C2122 1.399 . S
C2127 C2126 1.394 . S
C2127 C2128 1.516 1_545 S
C2128 C2127 1.516 1_565 S
C2128 C2129 1.502 . S
C2128 C2130 1.561 . S
C2128 C2131 1.526 . S
C2129 H2113 0.959 . S
C2129 H2114 0.959 . S
C2129 H2115 0.961 . S
C2129 C2128 1.502 . S
C2130 H2116 0.960 . S
C2130 H2117 0.961 . S
C2130 H2118 0.959 . S
C2130 C2128 1.561 . S
C2131 C2128 1.526 . S
C2131 C2132 1.396 . S
C2131 C2136 1.390 . S
C2132 C2126 1.465 1_565 S
C2132 C2131 1.396 . S
C2132 C2133 1.399 . S
C2133 H2119 0.929 . S
C2133 C2132 1.399 . S
C2133 C2134 1.385 . S
C2134 H2120 0.931 . S
C2134 C2133 1.385 . S
C2134 C2135 1.389 . S
C2135 C2134 1.389 . S
C2135 C2136 1.387 . S
C2136 H2121 0.930 . S
C2136 C2131 1.390 . S
C2136 C2135 1.387 . S
H2137 C2149 0.930 . S
H2138 C2151 0.930 . S
H2139 C2152 0.930 . S
H2140 C2156 0.959 . S
H2141 C2156 0.959 . S
H2142 C2156 0.961 1_455 S
H2143 C2157 0.960 . S
H2144 C2157 0.961 1_655 S
H2145 C2157 0.959 . S
H2146 C2160 0.929 . S
H2147 C2161 0.931 . S
H2148 C2163 0.930 . S
C2149 H2137 0.930 . S
C2149 C2150 1.399 . S
C2149 C2154 1.399 . S
C2150 C2149 1.399 . S
C2150 C2151 1.376 . S
C2151 H2138 0.930 . S
C2151 C2150 1.376 . S
C2151 C2152 1.388 . S
C2152 H2139 0.930 . S
C2152 C2151 1.388 . S
C2152 C2153 1.390 . S
C2153 C2152 1.390 . S
C2153 C2154 1.394 . S
C2153 C2159 1.465 1_455 S
C2154 C2149 1.399 . S
C2154 C2153 1.394 . S
C2154 C2155 1.516 1_455 S
C2155 C2154 1.516 1_655 S
C2155 C2156 1.502 . S
C2155 C2157 1.561 1_655 S
C2155 C2158 1.526 . S
C2156 H2140 0.959 . S
C2156 H2141 0.959 . S
C2156 H2142 0.961 1_655 S
C2156 C2155 1.502 . S
C2157 H2143 0.960 . S
C2157 H2144 0.961 1_455 S
C2157 H2145 0.959 . S
C2157 C2155 1.561 1_455 S
C2158 C2155 1.526 . S
C2158 C2159 1.396 . S
C2158 C2163 1.390 . S
C2159 C2153 1.465 1_655 S
C2159 C2158 1.396 . S
C2159 C2160 1.399 . S
C2160 H2146 0.929 . S
C2160 C2159 1.399 . S
C2160 C2161 1.385 . S
C2161 H2147 0.931 . S
C2161 C2160 1.385 . S
C2161 C2162 1.389 . S
C2162 C2161 1.389 . S
C2162 C2163 1.387 . S
C2163 H2148 0.930 . S
C2163 C2158 1.390 . S
C2163 C2162 1.387 . S
H2164 C2176 0.930 . S
H2165 C2178 0.930 . S
H2166 C2179 0.930 . S
H2167 C2183 0.959 . S
H2168 C2183 0.959 . S
H2169 C2183 0.961 . S
H2170 C2184 0.960 . S
H2171 C2184 0.961 . S
H2172 C2184 0.959 . S
H2173 C2187 0.929 . S
H2174 C2188 0.931 . S
H2175 C2190 0.930 . S
C2176 H2164 0.930 . S
C2176 C2177 1.399 . S
C2176 C2181 1.399 . S
C2177 C2176 1.399 . S
C2177 C2178 1.376 . S
C2178 H2165 0.930 . S
C2178 C2177 1.376 . S
C2178 C2179 1.388 . S
C2179 H2166 0.930 . S
C2179 C2178 1.388 . S
C2179 C2180 1.390 . S
C2180 C2179 1.390 . S
C2180 C2181 1.394 . S
C2180 C2186 1.465 1_545 S
C2181 C2176 1.399 . S
C2181 C2180 1.394 . S
C2181 C2182 1.516 1_545 S
C2182 C2181 1.516 1_565 S
C2182 C2183 1.502 . S
C2182 C2184 1.561 . S
C2182 C2185 1.526 . S
C2183 H2167 0.959 . S
C2183 H2168 0.959 . S
C2183 H2169 0.961 . S
C2183 C2182 1.502 . S
C2184 H2170 0.960 . S
C2184 H2171 0.961 . S
C2184 H2172 0.959 . S
C2184 C2182 1.561 . S
C2185 C2182 1.526 . S
C2185 C2186 1.396 . S
C2185 C2190 1.390 . S
C2186 C2180 1.465 1_565 S
C2186 C2185 1.396 . S
C2186 C2187 1.399 . S
C2187 H2173 0.929 . S
C2187 C2186 1.399 . S
C2187 C2188 1.385 . S
C2188 H2174 0.931 . S
C2188 C2187 1.385 . S
C2188 C2189 1.389 . S
C2189 C2188 1.389 . S
C2189 C2190 1.387 . S
C2190 H2175 0.930 . S
C2190 C2185 1.390 . S
C2190 C2189 1.387 . S
H2191 C2203 0.930 . S
H2192 C2205 0.930 . S
H2193 C2206 0.930 . S
H2194 C2210 0.959 . S
H2195 C2210 0.959 . S
H2196 C2210 0.961 . S
H2197 C2211 0.960 1_655 S
H2198 C2211 0.961 . S
H2199 C2211 0.959 . S
H2200 C2214 0.929 . S
H2201 C2215 0.931 . S
H2202 C2217 0.930 . S
C2203 H2191 0.930 . S
C2203 C2204 1.399 . S
C2203 C2208 1.399 . S
C2204 C2203 1.399 . S
C2204 C2205 1.376 . S
C2205 H2192 0.930 . S
C2205 C2204 1.376 . S
C2205 C2206 1.388 . S
C2206 H2193 0.930 . S
C2206 C2205 1.388 . S
C2206 C2207 1.390 . S
C2207 C2206 1.390 . S
C2207 C2208 1.394 . S
C2207 C2213 1.465 1_655 S
C2208 C2203 1.399 . S
C2208 C2207 1.394 . S
C2208 C2209 1.516 . S
C2209 C2208 1.516 . S
C2209 C2210 1.502 . S
C2209 C2211 1.561 1_655 S
C2209 C2212 1.526 1_655 S
C2210 H2194 0.959 . S
C2210 H2195 0.959 . S
C2210 H2196 0.961 . S
C2210 C2209 1.502 . S
C2211 H2197 0.960 1_455 S
C2211 H2198 0.961 . S
C2211 H2199 0.959 . S
C2211 C2209 1.561 1_455 S
C2212 C2209 1.526 1_455 S
C2212 C2213 1.396 . S
C2212 C2217 1.390 . S
C2213 C2207 1.465 1_455 S
C2213 C2212 1.396 . S
C2213 C2214 1.399 . S
C2214 H2200 0.929 . S
C2214 C2213 1.399 . S
C2214 C2215 1.385 . S
C2215 H2201 0.931 . S
C2215 C2214 1.385 . S
C2215 C2216 1.389 . S
C2216 C2215 1.389 . S
C2216 C2217 1.387 . S
C2217 H2202 0.930 . S
C2217 C2212 1.390 . S
C2217 C2216 1.387 . S
H2218 C2230 0.930 . S
H2219 C2232 0.930 . S
H2220 C2233 0.930 . S
H2221 C2237 0.959 . S
H2222 C2237 0.959 . S
H2223 C2237 0.961 . S
H2224 C2238 0.960 . S
H2225 C2238 0.961 . S
H2226 C2238 0.959 . S
H2227 C2241 0.929 . S
H2228 C2242 0.931 . S
H2229 C2244 0.930 . S
C2230 H2218 0.930 . S
C2230 C2231 1.399 . S
C2230 C2235 1.399 . S
C2231 C2230 1.399 . S
C2231 C2232 1.376 . S
C2232 H2219 0.930 . S
C2232 C2231 1.376 . S
C2232 C2233 1.388 . S
C2233 H2220 0.930 . S
C2233 C2232 1.388 . S
C2233 C2234 1.390 . S
C2234 C2233 1.390 . S
C2234 C2235 1.394 . S
C2234 C2240 1.465 1_565 S
C2235 C2230 1.399 . S
C2235 C2234 1.394 . S
C2235 C2236 1.516 1_565 S
C2236 C2235 1.516 1_545 S
C2236 C2237 1.502 . S
C2236 C2238 1.561 . S
C2236 C2239 1.526 . S
C2237 H2221 0.959 . S
C2237 H2222 0.959 . S
C2237 H2223 0.961 . S
C2237 C2236 1.502 . S
C2238 H2224 0.960 . S
C2238 H2225 0.961 . S
C2238 H2226 0.959 . S
C2238 C2236 1.561 . S
C2239 C2236 1.526 . S
C2239 C2240 1.396 . S
C2239 C2244 1.390 . S
C2240 C2234 1.465 1_545 S
C2240 C2239 1.396 . S
C2240 C2241 1.399 . S
C2241 H2227 0.929 . S
C2241 C2240 1.399 . S
C2241 C2242 1.385 . S
C2242 H2228 0.931 . S
C2242 C2241 1.385 . S
C2242 C2243 1.389 . S
C2243 C2242 1.389 . S
C2243 C2244 1.387 . S
C2244 H2229 0.930 . S
C2244 C2239 1.390 . S
C2244 C2243 1.387 . S
H2245 C2257 0.930 . S
H2246 C2259 0.930 . S
H2247 C2260 0.930 . S
H2248 C2264 0.959 . S
H2249 C2264 0.959 . S
H2250 C2264 0.961 . S
H2251 C2265 0.960 . S
H2252 C2265 0.961 . S
H2253 C2265 0.959 . S
H2254 C2268 0.929 . S
H2255 C2269 0.931 . S
H2256 C2271 0.930 . S
C2257 H2245 0.930 . S
C2257 C2258 1.399 . S
C2257 C2262 1.399 . S
C2258 C2257 1.399 . S
C2258 C2259 1.376 . S
C2259 H2246 0.930 . S
C2259 C2258 1.376 . S
C2259 C2260 1.388 . S
C2260 H2247 0.930 . S
C2260 C2259 1.388 . S
C2260 C2261 1.390 . S
C2261 C2260 1.390 . S
C2261 C2262 1.394 . S
C2261 C2267 1.465 1_455 S
C2262 C2257 1.399 . S
C2262 C2261 1.394 . S
C2262 C2263 1.516 1_455 S
C2263 C2262 1.516 1_655 S
C2263 C2264 1.502 . S
C2263 C2265 1.561 . S
C2263 C2266 1.526 . S
C2264 H2248 0.959 . S
C2264 H2249 0.959 . S
C2264 H2250 0.961 . S
C2264 C2263 1.502 . S
C2265 H2251 0.960 . S
C2265 H2252 0.961 . S
C2265 H2253 0.959 . S
C2265 C2263 1.561 . S
C2266 C2263 1.526 . S
C2266 C2267 1.396 . S
C2266 C2271 1.390 . S
C2267 C2261 1.465 1_655 S
C2267 C2266 1.396 . S
C2267 C2268 1.399 . S
C2268 H2254 0.929 . S
C2268 C2267 1.399 . S
C2268 C2269 1.385 . S
C2269 H2255 0.931 . S
C2269 C2268 1.385 . S
C2269 C2270 1.389 . S
C2270 C2269 1.389 . S
C2270 C2271 1.387 . S
C2271 H2256 0.930 . S
C2271 C2266 1.390 . S
C2271 C2270 1.387 . S
C1421 C489 0.946 . S
C1433 C20 0.959 . S
C1448 C577 0.947 . S
C1460 C117 0.953 . S
C1475 C196 0.959 . S
C1487 C665 0.946 . S
C1502 C293 0.945 . S
C1514 C401 0.957 . S
C1529 C1173 0.949 . S
C1541 C753 0.958 . S
C1556 C1261 0.958 . S
C1568 C841 0.947 . S
C1583 C929 0.947 . S
C1595 C1349 0.958 . S
C1610 C1017 0.958 . S
C1622 C1085 0.947 . S
C1637 C909 1.500 . S
C1649 C57 1.495 . S
C1664 C997 1.504 . S
C1676 C137 1.504 . S
C1691 C733 1.501 . S
C1703 C233 1.495 . S
C1718 C313 1.497 . S
C1730 C821 1.502 . S
C1745 C1281 1.499 . S
C1757 C381 1.504 . S
C1772 C1369 1.492 . S
C1784 C469 1.494 . S
C1799 C557 1.492 . S
C1811 C1105 1.494 . S
C1826 C1193 1.493 . S
C1838 C645 1.493 . S
C1853 C409 1.398 . S
C1865 C29 1.393 . S
C1880 C108 1.398 . S
C1892 C497 1.394 . S
C1907 C205 1.424 . S
C1919 C585 1.418 . S
C1934 C673 1.414 . S
C1946 C284 1.405 . S
C1961 C724 1.459 . S
C1973 C1113 1.456 . S
C1988 C1201 1.459 . S
C2000 C812 1.458 . S
C2015 C900 1.455 . S
C2027 C1289 1.459 . S
C2042 C1377 1.460 . S
C2054 C988 1.458 . S
C2069 C1025 1.421 . S
C2081 C1164 1.413 . S
C2096 C761 1.420 . S
C2108 C1252 1.425 . S
C2123 C1340 1.397 . S
C2135 C849 1.406 . S
C2150 C937 1.420 . S
C2162 C1076 1.425 . S
C2177 C460 1.450 . S
C2189 C321 1.456 . S
C2204 C548 1.458 . S
C2216 C49 1.453 . S
C2231 C636 1.447 . S
C2243 C145 1.454 . S
C2258 C372 1.453 . S
C2270 C225 1.458 . S
