# Generated by pormake.
# Topology unh, (4)-cn, num edge types: 1
# Building blocks:
#     Node 0, Type 0, BuildingBlock: CEKHIL_clean_sbu_0, # of connection points: 4
#     Node 1, Type 0, BuildingBlock: CEKHIL_clean_sbu_0, # of connection points: 4
#     Node 2, Type 0, BuildingBlock: CEKHIL_clean_sbu_0, # of connection points: 4
#     Node 3, Type 0, BuildingBlock: CEKHIL_clean_sbu_0, # of connection points: 4
#     Node 4, Type 0, BuildingBlock: CEKHIL_clean_sbu_0, # of connection points: 4
#     Node 5, Type 0, BuildingBlock: CEKHIL_clean_sbu_0, # of connection points: 4
#     Edge 6, Type (0, 0), BuildingBlock: TEMPAE_clean_linker_10, # of connection points: 2
#     Edge 7, Type (0, 0), BuildingBlock: TEMPAE_clean_linker_10, # of connection points: 2
#     Edge 8, Type (0, 0), BuildingBlock: TEMPAE_clean_linker_10, # of connection points: 2
#     Edge 9, Type (0, 0), BuildingBlock: TEMPAE_clean_linker_10, # of connection points: 2
#     Edge 10, Type (0, 0), BuildingBlock: TEMPAE_clean_linker_10, # of connection points: 2
#     Edge 11, Type (0, 0), BuildingBlock: TEMPAE_clean_linker_10, # of connection points: 2
#     Edge 12, Type (0, 0), BuildingBlock: TEMPAE_clean_linker_10, # of connection points: 2
#     Edge 13, Type (0, 0), BuildingBlock: TEMPAE_clean_linker_10, # of connection points: 2
#     Edge 14, Type (0, 0), BuildingBlock: TEMPAE_clean_linker_10, # of connection points: 2
#     Edge 15, Type (0, 0), BuildingBlock: TEMPAE_clean_linker_10, # of connection points: 2
#     Edge 16, Type (0, 0), BuildingBlock: TEMPAE_clean_linker_10, # of connection points: 2
#     Edge 17, Type (0, 0), BuildingBlock: TEMPAE_clean_linker_10, # of connection points: 2
# Relax obj value: 0.073
# Max RMSD: 0.185
# Mean RMSD: 0.185
data_MOF--net-unh--node1-CEKHIL_clean_sbu_0--edge1-TEMPAE_clean_linker_10
_symmetry_space_group_name_H-M    P1
_symmetry_Int_Tables_number       1
_symmetry_cell_setting            triclinic
loop_
_symmetry_equiv_pos_as_xyz
'x, y, z'
_cell_length_a     42.43186
_cell_length_b     42.425193
_cell_length_c     22.298863
_cell_angle_alpha  90.19864
_cell_angle_beta   89.903924
_cell_angle_gamma 120.03634
loop_
_atom_site_label
_atom_site_type_symbol
_atom_site_fract_x
_atom_site_fract_y
_atom_site_fract_z
_atom_type_partial_charge
Co0 Co 0.12146 0.54351 0.10815 0.0
O1 O 0.08111 0.51143 0.15834 0.0
O2 O 0.09203 0.56543 0.12704 0.0
C3 C 0.16443 0.53935 0.16146 0.0
O4 O 0.16098 0.58471 0.05791 0.0
Co5 Co 0.16463 0.51423 0.03811 0.0
O6 O 0.19788 0.5661 0.01897 0.0
C7 C 0.09427 0.50104 0.9901 0.0
C8 C 0.07221 0.53656 0.15917 0.0
C9 C 0.18939 0.59062 0.02771 0.0
O10 O 0.09183 0.51979 0.03357 0.0
O11 O 0.12021 0.49399 0.9856 0.0
O12 O 0.15298 0.56122 0.17797 0.0
O13 O 0.14729 0.51813 0.11666 0.0
Co14 Co 0.57631 0.12513 0.27741 0.0
O15 O 0.5705 0.08645 0.32924 0.0
O16 O 0.52524 0.09363 0.29711 0.0
C17 C 0.62255 0.17046 0.3294 0.0
O18 O 0.57245 0.16285 0.22548 0.0
Co19 Co 0.64823 0.16962 0.20684 0.0
O20 O 0.62832 0.20207 0.19034 0.0
C21 C 0.59261 0.09799 0.16005 0.0
C22 C 0.536 0.07558 0.33024 0.0
C23 C 0.59483 0.19221 0.19729 0.0
O24 O 0.57148 0.09492 0.20395 0.0
O25 O 0.62505 0.12491 0.15467 0.0
O26 O 0.58901 0.15766 0.34587 0.0
O27 O 0.62745 0.15314 0.28574 0.0
Co28 Co 0.4463 0.5763 0.44288 0.0
O29 O 0.47899 0.56901 0.49291 0.0
O30 O 0.42523 0.52507 0.46185 0.0
C31 C 0.44969 0.62329 0.49624 0.0
O32 O 0.40465 0.57373 0.39279 0.0
Co33 Co 0.47436 0.64829 0.37287 0.0
O34 O 0.42209 0.62959 0.3571 0.0
C35 C 0.48788 0.59139 0.32407 0.0
C36 C 0.45434 0.5348 0.4938 0.0
C37 C 0.39799 0.59632 0.36471 0.0
O38 O 0.47009 0.57053 0.36825 0.0
O39 O 0.49411 0.62409 0.31907 0.0
O40 O 0.42828 0.58989 0.5126 0.0
O41 O 0.47103 0.62758 0.45153 0.0
Co42 Co 0.86875 0.45394 0.60751 0.0
O43 O 0.90831 0.48567 0.65942 0.0
O44 O 0.89886 0.43264 0.62486 0.0
C45 C 0.82434 0.45566 0.6611 0.0
O46 O 0.83023 0.41329 0.555 0.0
Co47 Co 0.8254 0.48337 0.53953 0.0
O48 O 0.79309 0.43177 0.51709 0.0
C49 C 0.89619 0.49801 0.49124 0.0
C50 C 0.91795 0.46109 0.65852 0.0
C51 C 0.802 0.40748 0.52451 0.0
O52 O 0.89889 0.47934 0.53429 0.0
O53 O 0.86981 0.50439 0.48686 0.0
O54 O 0.8365 0.43417 0.67597 0.0
O55 O 0.84185 0.4782 0.61803 0.0
Co56 Co 0.41476 0.87052 0.77731 0.0
O57 O 0.42222 0.91023 0.82869 0.0
O58 O 0.46609 0.90086 0.79575 0.0
C59 C 0.36831 0.8264 0.83055 0.0
O60 O 0.41726 0.83179 0.72561 0.0
Co61 Co 0.34222 0.82637 0.70815 0.0
O62 O 0.36151 0.79375 0.68861 0.0
C63 C 0.3988 0.89676 0.65928 0.0
C64 C 0.45647 0.91996 0.82884 0.0
C65 C 0.39482 0.80303 0.69598 0.0
O66 O 0.41982 0.90036 0.70355 0.0
O67 O 0.36632 0.86992 0.65395 0.0
O68 O 0.40186 0.8386 0.84625 0.0
O69 O 0.36354 0.84355 0.7867 0.0
Co70 Co 0.53931 0.41431 0.94085 0.0
O71 O 0.50623 0.42075 0.99172 0.0
O72 O 0.55968 0.46534 0.96116 0.0
C73 C 0.53652 0.36728 0.99263 0.0
O74 O 0.58133 0.41804 0.89007 0.0
Co75 Co 0.51217 0.34276 0.86874 0.0
O76 O 0.564 0.36378 0.84678 0.0
C77 C 0.49714 0.39904 0.82271 0.0
C78 C 0.53052 0.45509 0.99326 0.0
C79 C 0.58785 0.39684 0.85728 0.0
O80 O 0.51522 0.42004 0.86676 0.0
O81 O 0.49111 0.36642 0.81716 0.0
O82 O 0.55757 0.40062 0.00998 0.0
O83 O 0.51525 0.363 0.94795 0.0
C84 C 0.03364 0.48742 0.94928 0.0
C85 C 0.06734 0.48942 0.94055 0.0
C86 C 0.00937 0.4797 0.90132 0.0
C87 C 0.01932 0.47459 0.84291 0.0
C88 C 0.05288 0.47565 0.83408 0.0
C89 C 0.07631 0.4827 0.88307 0.0
C90 C 0.97351 0.47806 0.91287 0.0
C91 C 0.0648 0.47101 0.77243 0.0
C92 C 0.94461 0.43291 0.72459 0.0
C93 C 0.94684 0.46412 0.69909 0.0
C94 C 0.96847 0.43578 0.77079 0.0
C95 C -0.0043 0.47068 0.79069 0.0
C96 C -0.00073 0.50219 0.76255 0.0
C97 C 0.97447 0.49853 0.71772 0.0
C98 C 0.96332 0.40157 0.80034 0.0
C99 C 0.02854 0.53989 0.78118 0.0
H100 H 0.02638 0.49233 0.99357 0.0
H101 H 0.10239 0.48445 0.87572 0.0
H102 H 0.97326 0.50116 0.89017 0.0
H103 H 0.95077 0.45258 0.89394 0.0
H104 H 0.96842 0.47933 0.96147 0.0
H105 H 0.09053 0.47014 0.77367 0.0
H106 H 0.04338 0.44563 0.75112 0.0
H107 H 0.06896 0.494 0.74345 0.0
H108 H 0.92297 0.40627 0.71074 0.0
H109 H 0.9763 0.52269 0.6979 0.0
H110 H 0.95461 0.40074 0.84755 0.0
H111 H 0.98939 0.40145 0.80135 0.0
H112 H 0.94256 0.37654 0.77707 0.0
H113 H 0.02337 0.54556 0.82765 0.0
H114 H 0.02969 0.56133 0.75129 0.0
H115 H 0.05556 0.54171 0.78088 0.0
C116 C 0.47411 0.97546 0.89046 0.0
C117 C 0.48204 0.94894 0.86993 0.0
C118 C 0.49513 0.00031 0.9355 0.0
C119 C 0.52428 -0.00198 0.96179 0.0
C120 C 0.53306 0.97192 0.94007 0.0
C121 C 0.51205 0.94792 0.89384 0.0
C122 C 0.48539 0.0283 0.95621 0.0
C123 C 0.56352 0.9682 0.96755 0.0
C124 C 0.59224 0.08011 0.05273 0.0
C125 C 0.57765 0.0707 0.11081 0.0
C126 C 0.57578 0.05635 0.00401 0.0
C127 C 0.54436 0.02201 0.01367 0.0
C128 C 0.53056 0.01163 0.07264 0.0
C129 C 0.5471 0.03623 0.12036 0.0
C130 C 0.59097 0.06875 0.94178 0.0
C131 C 0.49756 0.97494 0.08508 0.0
H132 H 0.45097 0.97639 0.87194 0.0
H133 H 0.518 0.92716 0.87855 0.0
H134 H 0.47556 0.02266 0.00322 0.0
H135 H 0.50981 0.05591 0.9553 0.0
H136 H 0.46387 0.02838 0.92798 0.0
H137 H 0.56832 0.94808 0.94325 0.0
H138 H 0.58915 0.99485 0.96779 0.0
H139 H 0.55678 0.95941 0.01492 0.0
H140 H 0.61566 0.10679 0.04475 0.0
H141 H 0.53579 0.02865 0.16511 0.0
H142 H 0.57097 0.07192 0.91425 0.0
H143 H 0.59558 0.04804 0.91935 0.0
H144 H 0.617 0.09512 0.94229 0.0
H145 H 0.47317 0.9735 0.06415 0.0
H146 H 0.49235 0.96965 0.13388 0.0
H147 H 0.50109 0.95296 0.06491 0.0
C148 C 0.50448 0.54622 0.28438 0.0
C149 C 0.49934 0.57595 0.27442 0.0
C150 C 0.51231 0.52947 0.23669 0.0
C151 C 0.51415 0.54217 0.17736 0.0
C152 C 0.50968 0.57263 0.16718 0.0
C153 C 0.50274 0.58939 0.21588 0.0
C154 C 0.51767 0.49756 0.24965 0.0
C155 C 0.51064 0.58653 0.10457 0.0
C156 C 0.55692 0.51121 0.0573 0.0
C157 C 0.52631 0.48013 0.03454 0.0
C158 C 0.55342 0.53212 0.10318 0.0
C159 C 0.51841 0.52209 0.12581 0.0
C160 C 0.48731 0.49176 0.10078 0.0
C161 C 0.49168 0.47094 0.05597 0.0
C162 C 0.58726 0.56391 0.12925 0.0
C163 C 0.44943 0.48063 0.12255 0.0
H164 H 0.50209 0.53582 0.32951 0.0
H165 H 0.49844 0.61213 0.20768 0.0
H166 H 0.4951 0.47246 0.2295 0.0
H167 H 0.54337 0.50196 0.229 0.0
H168 H 0.51853 0.49304 0.29852 0.0
H169 H 0.50871 0.61169 0.10449 0.0
H170 H 0.5361 0.59222 0.08141 0.0
H171 H 0.48761 0.56531 0.07807 0.0
H172 H 0.58377 0.5182 0.04127 0.0
H173 H 0.46792 0.44701 0.03833 0.0
H174 H 0.59021 0.55827 0.17685 0.0
H175 H 0.58501 0.58885 0.12853 0.0
H176 H 0.61226 0.56938 0.10458 0.0
H177 H 0.44629 0.4715 0.16984 0.0
H178 H 0.42801 0.45819 0.09526 0.0
H179 H 0.44492 0.50422 0.12124 0.0
C180 C 0.91356 0.51507 0.38382 0.0
C181 C 0.92318 0.50998 0.44173 0.0
C182 C 0.93697 0.52187 0.33481 0.0
C183 C 0.97116 0.52441 0.34405 0.0
C184 C 0.98177 0.52111 0.40288 0.0
C185 C 0.9575 0.51352 0.45086 0.0
C186 C 0.92431 0.52452 0.27275 0.0
C187 C 0.01832 0.52441 0.41488 0.0
C188 C 0.01658 0.49939 0.22061 0.0
C189 C 0.04341 0.53365 0.20014 0.0
C190 C 0.99195 0.49605 0.26564 0.0
C191 C 0.99474 0.52779 0.29192 0.0
C192 C 0.0211 0.56249 0.27014 0.0
C193 C 0.0449 0.565 0.22397 0.0
C194 C 0.96369 0.4585 0.28642 0.0
C195 C 0.02532 0.59698 0.29756 0.0
H196 H 0.88697 0.51207 0.3762 0.0
H197 H 0.96523 0.50985 0.4955 0.0
H198 H 0.94513 0.5496 0.25006 0.0
H199 H 0.9206 0.50104 0.24525 0.0
H200 H 0.89818 0.52461 0.27359 0.0
H201 H 0.02385 0.52464 0.4636 0.0
H202 H 0.01931 0.50119 0.39383 0.0
H203 H 0.04038 0.54973 0.39454 0.0
H204 H 0.01527 0.47508 0.20213 0.0
H205 H 0.06586 0.59156 0.2087 0.0
H206 H 0.93624 0.45569 0.28581 0.0
H207 H 0.96946 0.45437 0.33334 0.0
H208 H 0.96314 0.43665 0.25806 0.0
H209 H -0.00118 0.59622 0.29811 0.0
H210 H 0.04545 0.6217 0.27302 0.0
H211 H 0.03439 0.59924 0.34482 0.0
C212 C 0.52395 0.0257 0.40179 0.0
C213 C 0.51138 0.04636 0.37193 0.0
C214 C 0.50314 0.00081 0.44669 0.0
C215 C 0.46893 0.99659 0.46269 0.0
C216 C 0.45556 0.01657 0.43156 0.0
C217 C 0.47689 0.04113 0.38628 0.0
C218 C 0.51823 0.97968 0.47804 0.0
C219 C 0.41932 0.01295 0.44752 0.0
C220 C 0.40542 0.911 0.54997 0.0
C221 C 0.41394 0.92322 0.60945 0.0
C222 C 0.42248 0.93473 0.50165 0.0
C223 C 0.44786 0.97186 0.51307 0.0
C224 C 0.45521 0.98468 0.5731 0.0
C225 C 0.43867 0.96006 0.62062 0.0
C226 C 0.41471 0.91968 0.43857 0.0
C227 C 0.48135 0.02423 0.58718 0.0
H228 H 0.55053 0.02948 0.39088 0.0
H229 H 0.46711 0.05715 0.36365 0.0
H230 H 0.52304 0.98758 0.52606 0.0
H231 H 0.49829 0.95008 0.47608 0.0
H232 H 0.54427 0.98455 0.45797 0.0
H233 H 0.41204 0.02913 0.41739 0.0
H234 H 0.39748 0.984 0.44519 0.0
H235 H 0.42015 0.02226 0.49436 0.0
H236 H 0.38664 0.88241 0.54119 0.0
H237 H 0.44517 0.96958 0.66658 0.0
H238 H 0.43974 0.92175 0.41897 0.0
H239 H 0.40682 0.93586 0.40978 0.0
H240 H 0.39271 0.89071 0.43703 0.0
H241 H 0.50938 0.03119 0.57444 0.0
H242 H 0.48122 0.03054 0.63554 0.0
H243 H 0.47433 0.04194 0.56064 0.0
C244 C 0.48067 0.40003 0.71523 0.0
C245 C 0.48522 0.41423 0.77359 0.0
C246 C 0.47339 0.41651 0.66678 0.0
C247 C 0.46982 0.44751 0.67704 0.0
C248 C 0.47274 0.46098 0.73625 0.0
C249 C 0.48083 0.44445 0.78369 0.0
C250 C 0.47124 0.40176 0.60426 0.0
C251 C 0.46837 0.49353 0.74928 0.0
C252 C 0.49273 0.51789 0.55488 0.0
C253 C 0.45813 0.50942 0.53447 0.0
C254 C 0.49689 0.49706 0.59958 0.0
C255 C 0.46563 0.46748 0.62555 0.0
C256 C 0.43062 0.45811 0.60387 0.0
C257 C 0.4273 0.47901 0.55806 0.0
C258 C 0.53476 0.50746 0.62031 0.0
C259 C 0.39663 0.42711 0.63095 0.0
H260 H 0.48435 0.37689 0.70687 0.0
H261 H 0.48408 0.45544 0.82867 0.0
H262 H 0.44576 0.39658 0.58187 0.0
H263 H 0.49427 0.42226 0.57702 0.0
H264 H 0.4723 0.37612 0.60424 0.0
H265 H 0.46813 0.49857 0.79816 0.0
H266 H 0.49109 0.51819 0.72851 0.0
H267 H 0.44268 0.48955 0.7293 0.0
H268 H 0.51664 0.54132 0.53659 0.0
H269 H 0.40049 0.47261 0.54284 0.0
H270 H 0.5385 0.48338 0.61899 0.0
H271 H 0.53862 0.5171 0.66747 0.0
H272 H 0.55622 0.52931 0.59236 0.0
H273 H 0.39818 0.40178 0.63056 0.0
H274 H 0.37161 0.42195 0.60678 0.0
H275 H 0.3943 0.43349 0.6785 0.0
C276 C 0.2194 0.53183 0.16236 0.0
C277 C 0.19504 0.53937 0.19285 0.0
C278 C 0.25106 0.53655 0.19092 0.0
C279 C 0.25784 0.54821 0.25161 0.0
C280 C 0.23193 0.55343 0.28347 0.0
C281 C 0.20114 0.54944 0.25347 0.0
C282 C 0.27829 0.53127 0.15512 0.0
C283 C 0.23765 0.56516 0.34846 0.0
C284 C 0.33384 0.54679 0.34078 0.0
C285 C 0.36164 0.58334 0.33692 0.0
C286 C 0.29996 0.53465 0.31259 0.0
C287 C 0.29386 0.5596 0.27961 0.0
C288 C 0.32184 0.5964 0.27542 0.0
C289 C 0.35517 0.60779 0.30417 0.0
C290 C 0.27062 0.49527 0.31846 0.0
C291 C 0.31653 0.62396 0.24078 0.0
H292 H 0.21472 0.52412 0.11543 0.0
H293 H 0.18203 0.55483 0.27733 0.0
H294 H 0.30302 0.55811 0.14742 0.0
H295 H 0.28681 0.51428 0.1803 0.0
H296 H 0.26725 0.5183 0.1109 0.0
H297 H 0.21289 0.56338 0.36877 0.0
H298 H 0.2455 0.54809 0.375 0.0
H299 H 0.26022 0.59374 0.352 0.0
H300 H 0.3385 0.52762 0.36573 0.0
H301 H 0.37631 0.63608 0.30059 0.0
H302 H 0.2618 0.48277 0.27339 0.0
H303 H 0.24642 0.49347 0.34093 0.0
H304 H 0.27986 0.47913 0.34457 0.0
H305 H 0.30827 0.61445 0.19399 0.0
H306 H 0.34157 0.65118 0.23964 0.0
H307 H 0.29437 0.62696 0.26145 0.0
C308 C 0.68719 0.2222 0.3331 0.0
C309 C 0.65243 0.20302 0.35881 0.0
C310 C 0.71463 0.2545 0.35963 0.0
C311 C 0.70712 0.26755 0.41329 0.0
C312 C 0.67247 0.24743 0.44047 0.0
C313 C 0.64556 0.21559 0.41276 0.0
C314 C 0.75116 0.27537 0.32908 0.0
C315 C 0.66333 0.2602 0.49782 0.0
C316 C 0.7817 0.34102 0.51048 0.0
C317 C 0.77926 0.37171 0.4946 0.0
C318 C 0.75918 0.30701 0.48309 0.0
C319 C 0.73398 0.30378 0.43847 0.0
C320 C 0.7323 0.33493 0.42097 0.0
C321 C 0.75476 0.36835 0.44936 0.0
C322 C 0.76155 0.27433 0.50319 0.0
C323 C 0.70601 0.33279 0.3733 0.0
H324 H 0.69261 0.21257 0.29142 0.0
H325 H 0.61885 0.2007 0.43321 0.0
H326 H 0.75494 0.30162 0.31218 0.0
H327 H 0.77342 0.28187 0.36148 0.0
H328 H 0.75379 0.26004 0.29076 0.0
H329 H 0.6362 0.23993 0.51575 0.0
H330 H 0.68417 0.26579 0.53258 0.0
H331 H 0.66344 0.28603 0.48956 0.0
H332 H 0.8006 0.34335 0.5452 0.0
H333 H 0.75296 0.39194 0.43602 0.0
H334 H 0.76512 0.2603 0.46392 0.0
H335 H 0.73575 0.25457 0.5255 0.0
H336 H 0.78438 0.28182 0.53497 0.0
H337 H 0.70926 0.32009 0.33192 0.0
H338 H 0.70995 0.35999 0.36177 0.0
H339 H 0.67763 0.31535 0.38916 0.0
C340 C 0.44207 0.78427 0.67981 0.0
C341 C 0.40791 0.78021 0.66645 0.0
C342 C 0.45376 0.76198 0.65214 0.0
C343 C 0.43088 0.73529 0.60984 0.0
C344 C 0.39687 0.73181 0.59507 0.0
C345 C 0.3858 0.75411 0.62361 0.0
C346 C 0.49011 0.7663 0.66927 0.0
C347 C 0.37166 0.70385 0.55003 0.0
C348 C 0.463 0.68805 0.50049 0.0
C349 C 0.44876 0.65372 0.52717 0.0
C350 C 0.45898 0.71571 0.52821 0.0
C351 C 0.4407 0.70887 0.58408 0.0
C352 C 0.42799 0.67483 0.61243 0.0
C353 C 0.43195 0.64766 0.58347 0.0
C354 C 0.47265 0.75156 0.49637 0.0
C355 C 0.40862 0.66643 0.67216 0.0
H356 H 0.45941 0.80441 0.71262 0.0
H357 H 0.35955 0.75094 0.61218 0.0
H358 H 0.48587 0.74133 0.69229 0.0
H359 H 0.50657 0.76972 0.62855 0.0
H360 H 0.50583 0.78998 0.69949 0.0
H361 H 0.34722 0.70622 0.54067 0.0
H362 H 0.38622 0.70683 0.50719 0.0
H363 H 0.3625 0.67606 0.56715 0.0
H364 H 0.47606 0.69285 0.45701 0.0
H365 H 0.42128 0.6213 0.60469 0.0
H366 H 0.4887 0.7746 0.52746 0.0
H367 H 0.44913 0.754 0.48084 0.0
H368 H 0.48979 0.75414 0.4569 0.0
H369 H 0.42466 0.68842 0.70497 0.0
H370 H 0.40379 0.64017 0.69102 0.0
H371 H 0.38193 0.66497 0.66672 0.0
C372 C 0.62687 0.39349 0.77659 0.0
C373 C 0.62384 0.41122 0.82772 0.0
C374 C 0.66047 0.40529 0.74847 0.0
C375 C 0.69218 0.43539 0.77231 0.0
C376 C 0.68929 0.45419 0.82282 0.0
C377 C 0.65505 0.44202 0.84976 0.0
C378 C 0.66218 0.38463 0.69437 0.0
C379 C 0.72253 0.48626 0.84973 0.0
C380 C 0.77733 0.43037 0.74133 0.0
C381 C 0.79219 0.45334 0.69158 0.0
C382 C 0.7458 0.42573 0.76964 0.0
C383 C 0.72842 0.44442 0.74764 0.0
C384 C 0.74394 0.46867 0.69867 0.0
C385 C 0.77574 0.47289 0.67116 0.0
C386 C 0.73027 0.39962 0.82169 0.0
C387 C 0.72618 0.48906 0.67394 0.0
H388 H 0.60283 0.37007 0.75846 0.0
H389 H 0.65292 0.45595 0.88905 0.0
H390 H 0.6767 0.40367 0.65701 0.0
H391 H 0.67769 0.37078 0.70573 0.0
H392 H 0.63471 0.36378 0.67843 0.0
H393 H 0.71536 0.50012 0.88505 0.0
H394 H 0.74029 0.47686 0.86986 0.0
H395 H 0.73862 0.5063 0.81443 0.0
H396 H 0.79003 0.41538 0.75779 0.0
H397 H 0.78719 0.49078 0.63288 0.0
H398 H 0.70376 0.37586 0.80855 0.0
H399 H 0.72515 0.41297 0.86035 0.0
H400 H 0.74863 0.38953 0.83645 0.0
H401 H 0.69995 0.46955 0.65242 0.0
H402 H 0.74359 0.50971 0.64019 0.0
H403 H 0.72001 0.50284 0.71066 0.0
C404 C 0.30392 0.77417 0.83455 0.0
C405 C 0.33826 0.79468 0.86121 0.0
C406 C 0.27665 0.74221 0.86198 0.0
C407 C 0.28387 0.73094 0.91759 0.0
C408 C 0.31793 0.75264 0.94589 0.0
C409 C 0.34473 0.78402 0.91718 0.0
C410 C 0.24079 0.71962 0.83014 0.0
C411 C 0.32671 0.74189 0.00539 0.0
C412 C 0.20864 0.65682 0.01281 0.0
C413 C 0.21264 0.62668 0.99911 0.0
C414 C 0.23098 0.69084 0.98558 0.0
C415 C 0.25769 0.69469 0.94336 0.0
C416 C 0.26124 0.66418 0.92844 0.0
C417 C 0.23889 0.63075 0.95657 0.0
C418 C 0.22661 0.72285 0.00295 0.0
C419 C 0.28923 0.66698 0.88347 0.0
H420 H 0.29882 0.78233 0.7913 0.0
H421 H 0.3711 0.80002 0.93838 0.0
H422 H 0.23852 0.69365 0.81477 0.0
H423 H 0.21778 0.71262 0.86121 0.0
H424 H 0.23799 0.73388 0.79058 0.0
H425 H 0.35297 0.76351 0.02419 0.0
H426 H 0.30481 0.73583 0.03838 0.0
H427 H 0.32834 0.71676 0.99968 0.0
H428 H 0.18841 0.65399 0.0454 0.0
H429 H 0.24206 0.60767 0.94494 0.0
H430 H 0.22272 0.73556 0.96235 0.0
H431 H 0.25173 0.74386 0.02549 0.0
H432 H 0.20318 0.71494 0.03363 0.0
H433 H 0.2861 0.67836 0.84064 0.0
H434 H 0.28702 0.64021 0.87412 0.0
H435 H 0.317 0.68584 0.90063 0.0
C436 C 0.53085 0.30554 0.99252 0.0
C437 C 0.53692 0.3368 0.02367 0.0
C438 C 0.53573 0.27872 0.02105 0.0
C439 C 0.54599 0.28301 0.08238 0.0
C440 C 0.54974 0.31346 0.11476 0.0
C441 C 0.54569 0.34021 0.08479 0.0
C442 C 0.53214 0.24703 0.98469 0.0
C443 C 0.55991 0.3188 0.18039 0.0
C444 C 0.54466 0.20538 0.17071 0.0
C445 C 0.58153 0.21511 0.16887 0.0
C446 C 0.53239 0.22684 0.14206 0.0
C447 C 0.55755 0.25864 0.11075 0.0
C448 C 0.59467 0.26844 0.10859 0.0
C449 C 0.60616 0.24675 0.1377 0.0
C450 C 0.49265 0.21572 0.14572 0.0
C451 C 0.62248 0.30215 0.07583 0.0
H452 H 0.52416 0.30296 0.9452 0.0
H453 H 0.54993 0.3642 0.10913 0.0
H454 H 0.55942 0.24991 0.97861 0.0
H455 H 0.51497 0.22104 0.00862 0.0
H456 H 0.52018 0.24543 0.93971 0.0
H457 H 0.55703 0.34116 0.20079 0.0
H458 H 0.54266 0.29339 0.20575 0.0
H459 H 0.5886 0.32546 0.18556 0.0
H460 H 0.52536 0.181 0.19441 0.0
H461 H 0.63471 0.25472 0.13574 0.0
H462 H 0.48116 0.21242 0.09997 0.0
H463 H 0.48967 0.23742 0.16836 0.0
H464 H 0.4764 0.18985 0.17063 0.0
H465 H 0.61396 0.30135 0.02858 0.0
H466 H 0.65 0.30507 0.07609 0.0
H467 H 0.62437 0.32674 0.09699 0.0
loop_
_geom_bond_atom_site_label_1
_geom_bond_atom_site_label_2
_geom_bond_distance
_geom_bond_site_symmetry_2
_ccdc_geom_bond_type
Co0 O1 2.216 . S
Co0 O2 2.091 . S
Co0 O4 2.004 . S
Co0 O10 2.021 . S
Co0 O12 2.137 . S
Co0 O13 2.244 . S
O1 Co0 2.216 . S
O1 C8 1.247 . S
O2 Co0 2.091 . S
O2 C8 1.261 . S
C3 O12 1.247 . S
C3 O13 1.272 . S
O4 Co0 2.004 . S
O4 C9 1.259 . S
Co5 O6 2.061 . S
Co5 O11 2.052 . S
Co5 O13 2.135 1_556 S
O6 Co5 2.061 . S
O6 C9 1.235 1_556 S
C7 O10 1.238 1_556 S
C7 O11 1.241 . S
C8 O1 1.247 . S
C8 O2 1.261 . S
C9 O4 1.259 . S
C9 O6 1.235 1_554 S
O10 Co0 2.021 . S
O10 C7 1.238 1_554 S
O11 Co5 2.052 . S
O11 C7 1.241 . S
O12 Co0 2.137 . S
O12 C3 1.247 . S
O13 Co0 2.244 . S
O13 C3 1.272 . S
O13 Co5 2.135 1_554 S
Co14 O15 2.216 . S
Co14 O16 2.091 . S
Co14 O18 2.004 . S
Co14 O24 2.021 . S
Co14 O26 2.137 . S
Co14 O27 2.244 . S
O15 Co14 2.216 . S
O15 C22 1.247 . S
O16 Co14 2.091 . S
O16 C22 1.261 . S
C17 O26 1.247 . S
C17 O27 1.272 . S
O18 Co14 2.004 . S
O18 C23 1.259 . S
Co19 O20 2.061 . S
Co19 O25 2.052 . S
Co19 O27 2.135 . S
O20 Co19 2.061 . S
O20 C23 1.235 . S
C21 O24 1.238 . S
C21 O25 1.241 . S
C22 O15 1.247 . S
C22 O16 1.261 . S
C23 O18 1.259 . S
C23 O20 1.235 . S
O24 Co14 2.021 . S
O24 C21 1.238 . S
O25 Co19 2.052 . S
O25 C21 1.241 . S
O26 Co14 2.137 . S
O26 C17 1.247 . S
O27 Co14 2.244 . S
O27 C17 1.272 . S
O27 Co19 2.135 . S
Co28 O29 2.216 . S
Co28 O30 2.091 . S
Co28 O32 2.004 . S
Co28 O38 2.021 . S
Co28 O40 2.137 . S
Co28 O41 2.244 . S
O29 Co28 2.216 . S
O29 C36 1.247 . S
O30 Co28 2.091 . S
O30 C36 1.261 . S
C31 O40 1.247 . S
C31 O41 1.272 . S
O32 Co28 2.004 . S
O32 C37 1.259 . S
Co33 O34 2.061 . S
Co33 O39 2.052 . S
Co33 O41 2.135 . S
O34 Co33 2.061 . S
O34 C37 1.235 . S
C35 O38 1.238 . S
C35 O39 1.241 . S
C36 O29 1.247 . S
C36 O30 1.261 . S
C37 O32 1.259 . S
C37 O34 1.235 . S
O38 Co28 2.021 . S
O38 C35 1.238 . S
O39 Co33 2.052 . S
O39 C35 1.241 . S
O40 Co28 2.137 . S
O40 C31 1.247 . S
O41 Co28 2.244 . S
O41 C31 1.272 . S
O41 Co33 2.135 . S
Co42 O43 2.216 . S
Co42 O44 2.091 . S
Co42 O46 2.004 . S
Co42 O52 2.021 . S
Co42 O54 2.137 . S
Co42 O55 2.244 . S
O43 Co42 2.216 . S
O43 C50 1.247 . S
O44 Co42 2.091 . S
O44 C50 1.261 . S
C45 O54 1.247 . S
C45 O55 1.272 . S
O46 Co42 2.004 . S
O46 C51 1.259 . S
Co47 O48 2.061 . S
Co47 O53 2.052 . S
Co47 O55 2.135 . S
O48 Co47 2.061 . S
O48 C51 1.235 . S
C49 O52 1.238 . S
C49 O53 1.241 . S
C50 O43 1.247 . S
C50 O44 1.261 . S
C51 O46 1.259 . S
C51 O48 1.235 . S
O52 Co42 2.021 . S
O52 C49 1.238 . S
O53 Co47 2.052 . S
O53 C49 1.241 . S
O54 Co42 2.137 . S
O54 C45 1.247 . S
O55 Co42 2.244 . S
O55 C45 1.272 . S
O55 Co47 2.135 . S
Co56 O57 2.216 . S
Co56 O58 2.091 . S
Co56 O60 2.004 . S
Co56 O66 2.021 . S
Co56 O68 2.137 . S
Co56 O69 2.244 . S
O57 Co56 2.216 . S
O57 C64 1.247 . S
O58 Co56 2.091 . S
O58 C64 1.261 . S
C59 O68 1.247 . S
C59 O69 1.272 . S
O60 Co56 2.004 . S
O60 C65 1.259 . S
Co61 O62 2.061 . S
Co61 O67 2.052 . S
Co61 O69 2.135 . S
O62 Co61 2.061 . S
O62 C65 1.235 . S
C63 O66 1.238 . S
C63 O67 1.241 . S
C64 O57 1.247 . S
C64 O58 1.261 . S
C65 O60 1.259 . S
C65 O62 1.235 . S
O66 Co56 2.021 . S
O66 C63 1.238 . S
O67 Co61 2.052 . S
O67 C63 1.241 . S
O68 Co56 2.137 . S
O68 C59 1.247 . S
O69 Co56 2.244 . S
O69 C59 1.272 . S
O69 Co61 2.135 . S
Co70 O71 2.216 . S
Co70 O72 2.091 . S
Co70 O74 2.004 . S
Co70 O80 2.021 . S
Co70 O82 2.133 1_556 S
Co70 O83 2.244 . S
O71 Co70 2.216 . S
O71 C78 1.247 1_556 S
O72 Co70 2.091 . S
O72 C78 1.261 1_556 S
C73 O82 1.243 1_556 S
C73 O83 1.272 . S
O74 Co70 2.004 . S
O74 C79 1.259 . S
Co75 O76 2.061 . S
Co75 O81 2.052 . S
Co75 O83 2.135 . S
O76 Co75 2.061 . S
O76 C79 1.235 . S
C77 O80 1.238 . S
C77 O81 1.241 . S
C78 O71 1.247 1_554 S
C78 O72 1.261 1_554 S
C79 O74 1.259 . S
C79 O76 1.235 . S
O80 Co70 2.021 . S
O80 C77 1.238 . S
O81 Co75 2.052 . S
O81 C77 1.241 . S
O82 Co70 2.133 1_554 S
O82 C73 1.243 1_554 S
O83 Co70 2.244 . S
O83 C73 1.272 . S
O83 Co75 2.135 . S
C84 C85 1.391 . S
C84 C86 1.394 . S
C84 H100 0.931 . S
C85 C84 1.391 . S
C85 C89 1.376 . S
C86 C84 1.394 . S
C86 C87 1.369 . S
C86 C90 1.531 1_455 S
C87 C86 1.369 . S
C87 C88 1.410 . S
C87 C95 1.503 1_455 S
C88 C87 1.410 . S
C88 C89 1.392 . S
C88 C91 1.511 . S
C89 C85 1.376 . S
C89 C88 1.392 . S
C89 H101 0.929 . S
C90 C86 1.531 1_655 S
C90 H102 0.960 . S
C90 H103 0.962 . S
C90 H104 0.960 1_655 S
C91 C88 1.511 . S
C91 H105 0.961 . S
C91 H106 0.961 . S
C91 H107 0.961 . S
C92 C93 1.370 . S
C92 C94 1.363 . S
C92 H108 0.931 . S
C93 C92 1.370 . S
C93 C97 1.408 . S
C94 C92 1.363 . S
C94 C95 1.370 . S
C94 C98 1.524 . S
C95 C87 1.503 1_655 S
C95 C94 1.370 . S
C95 C96 1.403 1_655 S
C96 C95 1.403 1_455 S
C96 C97 1.404 1_455 S
C96 C99 1.539 . S
C97 C93 1.408 . S
C97 C96 1.404 1_655 S
C97 H109 0.930 . S
C98 C94 1.524 . S
C98 H110 0.956 . S
C98 H111 0.961 . S
C98 H112 0.961 . S
C99 C96 1.539 . S
C99 H113 0.958 . S
C99 H114 0.961 . S
C99 H115 0.960 . S
H100 C84 0.931 . S
H101 C89 0.929 . S
H102 C90 0.960 . S
H103 C90 0.962 . S
H104 C90 0.960 1_455 S
H105 C91 0.961 . S
H106 C91 0.961 . S
H107 C91 0.961 . S
H108 C92 0.931 . S
H109 C97 0.930 . S
H110 C98 0.956 . S
H111 C98 0.961 . S
H112 C98 0.961 . S
H113 C99 0.958 . S
H114 C99 0.961 . S
H115 C99 0.960 . S
C116 C117 1.391 . S
C116 C118 1.394 . S
C116 H132 0.931 . S
C117 C116 1.391 . S
C117 C121 1.376 . S
C118 C116 1.394 . S
C118 C119 1.369 . S
C118 C122 1.531 1_565 S
C119 C118 1.369 . S
C119 C120 1.410 . S
C119 C127 1.503 1_566 S
C120 C119 1.410 . S
C120 C121 1.392 . S
C120 C123 1.511 1_556 S
C121 C117 1.376 . S
C121 C120 1.392 . S
C121 H133 0.929 . S
C122 C118 1.531 1_545 S
C122 H134 0.960 1_556 S
C122 H135 0.962 . S
C122 H136 0.960 1_545 S
C123 C120 1.511 1_554 S
C123 H137 0.961 1_554 S
C123 H138 0.961 . S
C123 H139 0.961 . S
C124 C125 1.370 . S
C124 C126 1.363 . S
C124 H140 0.931 . S
C125 C124 1.370 . S
C125 C129 1.408 . S
C126 C124 1.363 . S
C126 C127 1.370 . S
C126 C130 1.524 1_554 S
C127 C119 1.503 1_544 S
C127 C126 1.370 . S
C127 C128 1.403 . S
C128 C127 1.403 . S
C128 C129 1.404 . S
C128 C131 1.539 1_545 S
C129 C125 1.408 . S
C129 C128 1.404 . S
C129 H141 0.930 . S
C130 C126 1.524 1_556 S
C130 H142 0.956 . S
C130 H143 0.961 . S
C130 H144 0.961 . S
C131 C128 1.539 1_565 S
C131 H145 0.958 . S
C131 H146 0.961 . S
C131 H147 0.960 . S
H132 C116 0.931 . S
H133 C121 0.929 . S
H134 C122 0.960 1_554 S
H135 C122 0.962 . S
H136 C122 0.960 1_565 S
H137 C123 0.961 1_556 S
H138 C123 0.961 . S
H139 C123 0.961 . S
H140 C124 0.931 . S
H141 C129 0.930 . S
H142 C130 0.956 . S
H143 C130 0.961 . S
H144 C130 0.961 . S
H145 C131 0.958 . S
H146 C131 0.961 . S
H147 C131 0.960 . S
C148 C149 1.391 . S
C148 C150 1.394 . S
C148 H164 0.931 . S
C149 C148 1.391 . S
C149 C153 1.376 . S
C150 C148 1.394 . S
C150 C151 1.369 . S
C150 C154 1.531 . S
C151 C150 1.369 . S
C151 C152 1.410 . S
C151 C159 1.503 . S
C152 C151 1.410 . S
C152 C153 1.392 . S
C152 C155 1.511 . S
C153 C149 1.376 . S
C153 C152 1.392 . S
C153 H165 0.929 . S
C154 C150 1.531 . S
C154 H166 0.960 . S
C154 H167 0.962 . S
C154 H168 0.960 . S
C155 C152 1.511 . S
C155 H169 0.961 . S
C155 H170 0.961 . S
C155 H171 0.961 . S
C156 C157 1.370 . S
C156 C158 1.363 . S
C156 H172 0.931 . S
C157 C156 1.370 . S
C157 C161 1.408 . S
C158 C156 1.363 . S
C158 C159 1.370 . S
C158 C162 1.524 . S
C159 C151 1.503 . S
C159 C158 1.370 . S
C159 C160 1.403 . S
C160 C159 1.403 . S
C160 C161 1.404 . S
C160 C163 1.539 . S
C161 C157 1.408 . S
C161 C160 1.404 . S
C161 H173 0.930 . S
C162 C158 1.524 . S
C162 H174 0.956 . S
C162 H175 0.961 . S
C162 H176 0.961 . S
C163 C160 1.539 . S
C163 H177 0.958 . S
C163 H178 0.961 . S
C163 H179 0.960 . S
H164 C148 0.931 . S
H165 C153 0.929 . S
H166 C154 0.960 . S
H167 C154 0.962 . S
H168 C154 0.960 . S
H169 C155 0.961 . S
H170 C155 0.961 . S
H171 C155 0.961 . S
H172 C156 0.931 . S
H173 C161 0.930 . S
H174 C162 0.956 . S
H175 C162 0.961 . S
H176 C162 0.961 . S
H177 C163 0.958 . S
H178 C163 0.961 . S
H179 C163 0.960 . S
C180 C181 1.391 . S
C180 C182 1.394 . S
C180 H196 0.931 . S
C181 C180 1.391 . S
C181 C185 1.376 . S
C182 C180 1.394 . S
C182 C183 1.369 . S
C182 C186 1.531 . S
C183 C182 1.369 . S
C183 C184 1.410 . S
C183 C191 1.503 1_655 S
C184 C183 1.410 . S
C184 C185 1.392 . S
C184 C187 1.511 1_655 S
C185 C181 1.376 . S
C185 C184 1.392 . S
C185 H197 0.929 . S
C186 C182 1.531 . S
C186 H198 0.960 . S
C186 H199 0.962 . S
C186 H200 0.960 . S
C187 C184 1.511 1_455 S
C187 H201 0.961 . S
C187 H202 0.961 . S
C187 H203 0.961 . S
C188 C189 1.370 . S
C188 C190 1.363 . S
C188 H204 0.931 . S
C189 C188 1.370 . S
C189 C193 1.408 . S
C190 C188 1.363 . S
C190 C191 1.370 . S
C190 C194 1.524 . S
C191 C183 1.503 1_455 S
C191 C190 1.370 . S
C191 C192 1.403 . S
C192 C191 1.403 . S
C192 C193 1.404 . S
C192 C195 1.539 . S
C193 C189 1.408 . S
C193 C192 1.404 . S
C193 H205 0.930 . S
C194 C190 1.524 . S
C194 H206 0.956 1_455 S
C194 H207 0.961 . S
C194 H208 0.961 . S
C195 C192 1.539 . S
C195 H209 0.958 1_455 S
C195 H210 0.961 . S
C195 H211 0.960 . S
H196 C180 0.931 . S
H197 C185 0.929 . S
H198 C186 0.960 . S
H199 C186 0.962 . S
H200 C186 0.960 . S
H201 C187 0.961 . S
H202 C187 0.961 . S
H203 C187 0.961 . S
H204 C188 0.931 . S
H205 C193 0.930 . S
H206 C194 0.956 1_655 S
H207 C194 0.961 . S
H208 C194 0.961 . S
H209 C195 0.958 1_655 S
H210 C195 0.961 . S
H211 C195 0.960 . S
C212 C213 1.391 . S
C212 C214 1.394 . S
C212 H228 0.931 . S
C213 C212 1.391 . S
C213 C217 1.376 . S
C214 C212 1.394 . S
C214 C215 1.369 . S
C214 C218 1.531 . S
C215 C214 1.369 . S
C215 C216 1.410 . S
C215 C223 1.503 1_545 S
C216 C215 1.410 . S
C216 C217 1.392 . S
C216 C219 1.511 1_545 S
C217 C213 1.376 . S
C217 C216 1.392 . S
C217 H229 0.929 . S
C218 C214 1.531 . S
C218 H230 0.960 . S
C218 H231 0.962 . S
C218 H232 0.960 . S
C219 C216 1.511 1_565 S
C219 H233 0.961 . S
C219 H234 0.961 . S
C219 H235 0.961 . S
C220 C221 1.370 . S
C220 C222 1.363 . S
C220 H236 0.931 . S
C221 C220 1.370 . S
C221 C225 1.408 . S
C222 C220 1.363 . S
C222 C223 1.370 . S
C222 C226 1.524 . S
C223 C215 1.503 1_565 S
C223 C222 1.370 . S
C223 C224 1.403 . S
C224 C223 1.403 . S
C224 C225 1.404 . S
C224 C227 1.539 1_565 S
C225 C221 1.408 . S
C225 C224 1.404 . S
C225 H237 0.930 . S
C226 C222 1.524 . S
C226 H238 0.956 . S
C226 H239 0.961 . S
C226 H240 0.961 . S
C227 C224 1.539 1_545 S
C227 H241 0.958 . S
C227 H242 0.961 . S
C227 H243 0.960 . S
H228 C212 0.931 . S
H229 C217 0.929 . S
H230 C218 0.960 . S
H231 C218 0.962 . S
H232 C218 0.960 . S
H233 C219 0.961 . S
H234 C219 0.961 . S
H235 C219 0.961 . S
H236 C220 0.931 . S
H237 C225 0.930 . S
H238 C226 0.956 . S
H239 C226 0.961 . S
H240 C226 0.961 . S
H241 C227 0.958 . S
H242 C227 0.961 . S
H243 C227 0.960 . S
C244 C245 1.391 . S
C244 C246 1.394 . S
C244 H260 0.931 . S
C245 C244 1.391 . S
C245 C249 1.376 . S
C246 C244 1.394 . S
C246 C247 1.369 . S
C246 C250 1.531 . S
C247 C246 1.369 . S
C247 C248 1.410 . S
C247 C255 1.503 . S
C248 C247 1.410 . S
C248 C249 1.392 . S
C248 C251 1.511 . S
C249 C245 1.376 . S
C249 C248 1.392 . S
C249 H261 0.929 . S
C250 C246 1.531 . S
C250 H262 0.960 . S
C250 H263 0.962 . S
C250 H264 0.960 . S
C251 C248 1.511 . S
C251 H265 0.961 . S
C251 H266 0.961 . S
C251 H267 0.961 . S
C252 C253 1.370 . S
C252 C254 1.363 . S
C252 H268 0.931 . S
C253 C252 1.370 . S
C253 C257 1.408 . S
C254 C252 1.363 . S
C254 C255 1.370 . S
C254 C258 1.524 . S
C255 C247 1.503 . S
C255 C254 1.370 . S
C255 C256 1.403 . S
C256 C255 1.403 . S
C256 C257 1.404 . S
C256 C259 1.539 . S
C257 C253 1.408 . S
C257 C256 1.404 . S
C257 H269 0.930 . S
C258 C254 1.524 . S
C258 H270 0.956 . S
C258 H271 0.961 . S
C258 H272 0.961 . S
C259 C256 1.539 . S
C259 H273 0.958 . S
C259 H274 0.961 . S
C259 H275 0.960 . S
H260 C244 0.931 . S
H261 C249 0.929 . S
H262 C250 0.960 . S
H263 C250 0.962 . S
H264 C250 0.960 . S
H265 C251 0.961 . S
H266 C251 0.961 . S
H267 C251 0.961 . S
H268 C252 0.931 . S
H269 C257 0.930 . S
H270 C258 0.956 . S
H271 C258 0.961 . S
H272 C258 0.961 . S
H273 C259 0.958 . S
H274 C259 0.961 . S
H275 C259 0.960 . S
C276 C277 1.391 . S
C276 C278 1.394 . S
C276 H292 0.931 . S
C277 C276 1.391 . S
C277 C281 1.376 . S
C278 C276 1.394 . S
C278 C279 1.369 . S
C278 C282 1.531 . S
C279 C278 1.369 . S
C279 C280 1.410 . S
C279 C287 1.503 . S
C280 C279 1.410 . S
C280 C281 1.392 . S
C280 C283 1.511 . S
C281 C277 1.376 . S
C281 C280 1.392 . S
C281 H293 0.929 . S
C282 C278 1.531 . S
C282 H294 0.960 . S
C282 H295 0.962 . S
C282 H296 0.960 . S
C283 C280 1.511 . S
C283 H297 0.961 . S
C283 H298 0.961 . S
C283 H299 0.961 . S
C284 C285 1.370 . S
C284 C286 1.363 . S
C284 H300 0.931 . S
C285 C284 1.370 . S
C285 C289 1.408 . S
C286 C284 1.363 . S
C286 C287 1.370 . S
C286 C290 1.524 . S
C287 C279 1.503 . S
C287 C286 1.370 . S
C287 C288 1.403 . S
C288 C287 1.403 . S
C288 C289 1.404 . S
C288 C291 1.539 . S
C289 C285 1.408 . S
C289 C288 1.404 . S
C289 H301 0.930 . S
C290 C286 1.524 . S
C290 H302 0.956 . S
C290 H303 0.961 . S
C290 H304 0.961 . S
C291 C288 1.539 . S
C291 H305 0.958 . S
C291 H306 0.961 . S
C291 H307 0.960 . S
H292 C276 0.931 . S
H293 C281 0.929 . S
H294 C282 0.960 . S
H295 C282 0.962 . S
H296 C282 0.960 . S
H297 C283 0.961 . S
H298 C283 0.961 . S
H299 C283 0.961 . S
H300 C284 0.931 . S
H301 C289 0.930 . S
H302 C290 0.956 . S
H303 C290 0.961 . S
H304 C290 0.961 . S
H305 C291 0.958 . S
H306 C291 0.961 . S
H307 C291 0.960 . S
C308 C309 1.391 . S
C308 C310 1.394 . S
C308 H324 0.931 . S
C309 C308 1.391 . S
C309 C313 1.376 . S
C310 C308 1.394 . S
C310 C311 1.369 . S
C310 C314 1.531 . S
C311 C310 1.369 . S
C311 C312 1.410 . S
C311 C319 1.503 . S
C312 C311 1.410 . S
C312 C313 1.392 . S
C312 C315 1.511 . S
C313 C309 1.376 . S
C313 C312 1.392 . S
C313 H325 0.929 . S
C314 C310 1.531 . S
C314 H326 0.960 . S
C314 H327 0.962 . S
C314 H328 0.960 . S
C315 C312 1.511 . S
C315 H329 0.961 . S
C315 H330 0.961 . S
C315 H331 0.961 . S
C316 C317 1.370 . S
C316 C318 1.363 . S
C316 H332 0.931 . S
C317 C316 1.370 . S
C317 C321 1.408 . S
C318 C316 1.363 . S
C318 C319 1.370 . S
C318 C322 1.524 . S
C319 C311 1.503 . S
C319 C318 1.370 . S
C319 C320 1.403 . S
C320 C319 1.403 . S
C320 C321 1.404 . S
C320 C323 1.539 . S
C321 C317 1.408 . S
C321 C320 1.404 . S
C321 H333 0.930 . S
C322 C318 1.524 . S
C322 H334 0.956 . S
C322 H335 0.961 . S
C322 H336 0.961 . S
C323 C320 1.539 . S
C323 H337 0.958 . S
C323 H338 0.961 . S
C323 H339 0.960 . S
H324 C308 0.931 . S
H325 C313 0.929 . S
H326 C314 0.960 . S
H327 C314 0.962 . S
H328 C314 0.960 . S
H329 C315 0.961 . S
H330 C315 0.961 . S
H331 C315 0.961 . S
H332 C316 0.931 . S
H333 C321 0.930 . S
H334 C322 0.956 . S
H335 C322 0.961 . S
H336 C322 0.961 . S
H337 C323 0.958 . S
H338 C323 0.961 . S
H339 C323 0.960 . S
C340 C341 1.391 . S
C340 C342 1.394 . S
C340 H356 0.931 . S
C341 C340 1.391 . S
C341 C345 1.376 . S
C342 C340 1.394 . S
C342 C343 1.369 . S
C342 C346 1.531 . S
C343 C342 1.369 . S
C343 C344 1.410 . S
C343 C351 1.503 . S
C344 C343 1.410 . S
C344 C345 1.392 . S
C344 C347 1.511 . S
C345 C341 1.376 . S
C345 C344 1.392 . S
C345 H357 0.929 . S
C346 C342 1.531 . S
C346 H358 0.960 . S
C346 H359 0.962 . S
C346 H360 0.960 . S
C347 C344 1.511 . S
C347 H361 0.961 . S
C347 H362 0.961 . S
C347 H363 0.961 . S
C348 C349 1.370 . S
C348 C350 1.363 . S
C348 H364 0.931 . S
C349 C348 1.370 . S
C349 C353 1.408 . S
C350 C348 1.363 . S
C350 C351 1.370 . S
C350 C354 1.524 . S
C351 C343 1.503 . S
C351 C350 1.370 . S
C351 C352 1.403 . S
C352 C351 1.403 . S
C352 C353 1.404 . S
C352 C355 1.539 . S
C353 C349 1.408 . S
C353 C352 1.404 . S
C353 H365 0.930 . S
C354 C350 1.524 . S
C354 H366 0.956 . S
C354 H367 0.961 . S
C354 H368 0.961 . S
C355 C352 1.539 . S
C355 H369 0.958 . S
C355 H370 0.961 . S
C355 H371 0.960 . S
H356 C340 0.931 . S
H357 C345 0.929 . S
H358 C346 0.960 . S
H359 C346 0.962 . S
H360 C346 0.960 . S
H361 C347 0.961 . S
H362 C347 0.961 . S
H363 C347 0.961 . S
H364 C348 0.931 . S
H365 C353 0.930 . S
H366 C354 0.956 . S
H367 C354 0.961 . S
H368 C354 0.961 . S
H369 C355 0.958 . S
H370 C355 0.961 . S
H371 C355 0.960 . S
C372 C373 1.391 . S
C372 C374 1.394 . S
C372 H388 0.931 . S
C373 C372 1.391 . S
C373 C377 1.376 . S
C374 C372 1.394 . S
C374 C375 1.369 . S
C374 C378 1.531 . S
C375 C374 1.369 . S
C375 C376 1.410 . S
C375 C383 1.503 . S
C376 C375 1.410 . S
C376 C377 1.392 . S
C376 C379 1.511 . S
C377 C373 1.376 . S
C377 C376 1.392 . S
C377 H389 0.929 . S
C378 C374 1.531 . S
C378 H390 0.960 . S
C378 H391 0.962 . S
C378 H392 0.960 . S
C379 C376 1.511 . S
C379 H393 0.961 . S
C379 H394 0.961 . S
C379 H395 0.961 . S
C380 C381 1.370 . S
C380 C382 1.363 . S
C380 H396 0.931 . S
C381 C380 1.370 . S
C381 C385 1.408 . S
C382 C380 1.363 . S
C382 C383 1.370 . S
C382 C386 1.524 . S
C383 C375 1.503 . S
C383 C382 1.370 . S
C383 C384 1.403 . S
C384 C383 1.403 . S
C384 C385 1.404 . S
C384 C387 1.539 . S
C385 C381 1.408 . S
C385 C384 1.404 . S
C385 H397 0.930 . S
C386 C382 1.524 . S
C386 H398 0.956 . S
C386 H399 0.961 . S
C386 H400 0.961 . S
C387 C384 1.539 . S
C387 H401 0.958 . S
C387 H402 0.961 . S
C387 H403 0.960 . S
H388 C372 0.931 . S
H389 C377 0.929 . S
H390 C378 0.960 . S
H391 C378 0.962 . S
H392 C378 0.960 . S
H393 C379 0.961 . S
H394 C379 0.961 . S
H395 C379 0.961 . S
H396 C380 0.931 . S
H397 C385 0.930 . S
H398 C386 0.956 . S
H399 C386 0.961 . S
H400 C386 0.961 . S
H401 C387 0.958 . S
H402 C387 0.961 . S
H403 C387 0.960 . S
C404 C405 1.391 . S
C404 C406 1.394 . S
C404 H420 0.931 . S
C405 C404 1.391 . S
C405 C409 1.376 . S
C406 C404 1.394 . S
C406 C407 1.369 . S
C406 C410 1.531 . S
C407 C406 1.369 . S
C407 C408 1.410 . S
C407 C415 1.503 . S
C408 C407 1.410 . S
C408 C409 1.392 . S
C408 C411 1.511 . S
C409 C405 1.376 . S
C409 C408 1.392 . S
C409 H421 0.929 . S
C410 C406 1.531 . S
C410 H422 0.960 . S
C410 H423 0.962 . S
C410 H424 0.960 . S
C411 C408 1.511 . S
C411 H425 0.961 . S
C411 H426 0.961 1_556 S
C411 H427 0.961 . S
C412 C413 1.370 . S
C412 C414 1.363 . S
C412 H428 0.931 1_556 S
C413 C412 1.370 . S
C413 C417 1.408 . S
C414 C412 1.363 . S
C414 C415 1.370 . S
C414 C418 1.524 . S
C415 C407 1.503 . S
C415 C414 1.370 . S
C415 C416 1.403 . S
C416 C415 1.403 . S
C416 C417 1.404 . S
C416 C419 1.539 . S
C417 C413 1.408 . S
C417 C416 1.404 . S
C417 H429 0.930 . S
C418 C414 1.524 . S
C418 H430 0.956 . S
C418 H431 0.961 . S
C418 H432 0.961 . S
C419 C416 1.539 . S
C419 H433 0.958 . S
C419 H434 0.961 . S
C419 H435 0.960 . S
H420 C404 0.931 . S
H421 C409 0.929 . S
H422 C410 0.960 . S
H423 C410 0.962 . S
H424 C410 0.960 . S
H425 C411 0.961 . S
H426 C411 0.961 1_554 S
H427 C411 0.961 . S
H428 C412 0.931 1_554 S
H429 C417 0.930 . S
H430 C418 0.956 . S
H431 C418 0.961 . S
H432 C418 0.961 . S
H433 C419 0.958 . S
H434 C419 0.961 . S
H435 C419 0.960 . S
C436 C437 1.391 . S
C436 C438 1.394 1_556 S
C436 H452 0.931 . S
C437 C436 1.391 . S
C437 C441 1.376 1_556 S
C438 C436 1.394 1_554 S
C438 C439 1.369 . S
C438 C442 1.531 1_554 S
C439 C438 1.369 . S
C439 C440 1.410 . S
C439 C447 1.503 . S
C440 C439 1.410 . S
C440 C441 1.392 . S
C440 C443 1.511 . S
C441 C437 1.376 1_554 S
C441 C440 1.392 . S
C441 H453 0.929 . S
C442 C438 1.531 1_556 S
C442 H454 0.960 1_556 S
C442 H455 0.962 . S
C442 H456 0.960 . S
C443 C440 1.511 . S
C443 H457 0.961 . S
C443 H458 0.961 . S
C443 H459 0.961 . S
C444 C445 1.370 . S
C444 C446 1.363 . S
C444 H460 0.931 . S
C445 C444 1.370 . S
C445 C449 1.408 . S
C446 C444 1.363 . S
C446 C447 1.370 . S
C446 C450 1.524 . S
C447 C439 1.503 . S
C447 C446 1.370 . S
C447 C448 1.403 . S
C448 C447 1.403 . S
C448 C449 1.404 . S
C448 C451 1.539 . S
C449 C445 1.408 . S
C449 C448 1.404 . S
C449 H461 0.930 . S
C450 C446 1.524 . S
C450 H462 0.955 1_554 S
C450 H463 0.961 . S
C450 H464 0.961 . S
C451 C448 1.539 . S
C451 H465 0.958 . S
C451 H466 0.961 . S
C451 H467 0.960 . S
H452 C436 0.931 . S
H453 C441 0.929 . S
H454 C442 0.960 1_554 S
H455 C442 0.962 . S
H456 C442 0.960 . S
H457 C443 0.961 . S
H458 C443 0.961 . S
H459 C443 0.961 . S
H460 C444 0.931 . S
H461 C449 0.930 . S
H462 C450 0.955 1_556 S
H463 C450 0.961 . S
H464 C450 0.961 . S
H465 C451 0.958 . S
H466 C451 0.961 . S
H467 C451 0.960 . S
C85 C7 1.285 . S
C93 C50 1.322 . S
C117 C64 1.310 . S
C125 C21 1.317 . S
C149 C35 1.305 . S
C157 C78 1.318 . S
C181 C49 1.305 . S
C189 C8 1.325 . S
C213 C22 1.321 . S
C221 C63 1.313 . S
C245 C77 1.302 . S
C253 C36 1.325 . S
C277 C3 1.214 . S
C285 C37 1.215 . S
C309 C17 1.230 . S
C317 C51 1.206 . S
C341 C65 1.220 . S
C349 C31 1.232 . S
C373 C79 1.245 . S
C381 C45 1.250 . S
C405 C59 1.224 . S
C413 C9 1.207 1_556 S
C437 C73 1.214 . S
C445 C23 1.217 . S
