# Generated by pormake.
# Topology hbo, (4)-cn, num edge types: 1
# Building blocks:
#     Node 0, Type 0, BuildingBlock: KOZSID_clean_sbu_0, # of connection points: 4
#     Node 1, Type 0, BuildingBlock: KOZSID_clean_sbu_0, # of connection points: 4
#     Node 2, Type 0, BuildingBlock: KOZSID_clean_sbu_0, # of connection points: 4
#     Node 3, Type 0, BuildingBlock: KOZSID_clean_sbu_0, # of connection points: 4
#     Node 4, Type 0, BuildingBlock: KOZSID_clean_sbu_0, # of connection points: 4
#     Node 5, Type 0, BuildingBlock: KOZSID_clean_sbu_0, # of connection points: 4
#     Node 6, Type 0, BuildingBlock: KOZSID_clean_sbu_0, # of connection points: 4
#     Node 7, Type 0, BuildingBlock: KOZSID_clean_sbu_0, # of connection points: 4
#     Node 8, Type 0, BuildingBlock: KOZSID_clean_sbu_0, # of connection points: 4
#     Node 9, Type 0, BuildingBlock: KOZSID_clean_sbu_0, # of connection points: 4
#     Node 10, Type 0, BuildingBlock: KOZSID_clean_sbu_0, # of connection points: 4
#     Node 11, Type 0, BuildingBlock: KOZSID_clean_sbu_0, # of connection points: 4
#     Node 12, Type 0, BuildingBlock: KOZSID_clean_sbu_0, # of connection points: 4
#     Node 13, Type 0, BuildingBlock: KOZSID_clean_sbu_0, # of connection points: 4
#     Node 14, Type 0, BuildingBlock: KOZSID_clean_sbu_0, # of connection points: 4
#     Node 15, Type 0, BuildingBlock: KOZSID_clean_sbu_0, # of connection points: 4
#     Node 16, Type 0, BuildingBlock: KOZSID_clean_sbu_0, # of connection points: 4
#     Node 17, Type 0, BuildingBlock: KOZSID_clean_sbu_0, # of connection points: 4
#     Node 18, Type 0, BuildingBlock: KOZSID_clean_sbu_0, # of connection points: 4
#     Node 19, Type 0, BuildingBlock: KOZSID_clean_sbu_0, # of connection points: 4
#     Node 20, Type 0, BuildingBlock: KOZSID_clean_sbu_0, # of connection points: 4
#     Node 21, Type 0, BuildingBlock: KOZSID_clean_sbu_0, # of connection points: 4
#     Node 22, Type 0, BuildingBlock: KOZSID_clean_sbu_0, # of connection points: 4
#     Node 23, Type 0, BuildingBlock: KOZSID_clean_sbu_0, # of connection points: 4
#     Edge 24, Type (0, 0), BuildingBlock: TEMPAE_clean_linker_10, # of connection points: 2
#     Edge 25, Type (0, 0), BuildingBlock: TEMPAE_clean_linker_10, # of connection points: 2
#     Edge 26, Type (0, 0), BuildingBlock: TEMPAE_clean_linker_10, # of connection points: 2
#     Edge 27, Type (0, 0), BuildingBlock: TEMPAE_clean_linker_10, # of connection points: 2
#     Edge 28, Type (0, 0), BuildingBlock: TEMPAE_clean_linker_10, # of connection points: 2
#     Edge 29, Type (0, 0), BuildingBlock: TEMPAE_clean_linker_10, # of connection points: 2
#     Edge 30, Type (0, 0), BuildingBlock: TEMPAE_clean_linker_10, # of connection points: 2
#     Edge 31, Type (0, 0), BuildingBlock: TEMPAE_clean_linker_10, # of connection points: 2
#     Edge 32, Type (0, 0), BuildingBlock: TEMPAE_clean_linker_10, # of connection points: 2
#     Edge 33, Type (0, 0), BuildingBlock: TEMPAE_clean_linker_10, # of connection points: 2
#     Edge 34, Type (0, 0), BuildingBlock: TEMPAE_clean_linker_10, # of connection points: 2
#     Edge 35, Type (0, 0), BuildingBlock: TEMPAE_clean_linker_10, # of connection points: 2
#     Edge 36, Type (0, 0), BuildingBlock: TEMPAE_clean_linker_10, # of connection points: 2
#     Edge 37, Type (0, 0), BuildingBlock: TEMPAE_clean_linker_10, # of connection points: 2
#     Edge 38, Type (0, 0), BuildingBlock: TEMPAE_clean_linker_10, # of connection points: 2
#     Edge 39, Type (0, 0), BuildingBlock: TEMPAE_clean_linker_10, # of connection points: 2
#     Edge 40, Type (0, 0), BuildingBlock: TEMPAE_clean_linker_10, # of connection points: 2
#     Edge 41, Type (0, 0), BuildingBlock: TEMPAE_clean_linker_10, # of connection points: 2
#     Edge 42, Type (0, 0), BuildingBlock: TEMPAE_clean_linker_10, # of connection points: 2
#     Edge 43, Type (0, 0), BuildingBlock: TEMPAE_clean_linker_10, # of connection points: 2
#     Edge 44, Type (0, 0), BuildingBlock: TEMPAE_clean_linker_10, # of connection points: 2
#     Edge 45, Type (0, 0), BuildingBlock: TEMPAE_clean_linker_10, # of connection points: 2
#     Edge 46, Type (0, 0), BuildingBlock: TEMPAE_clean_linker_10, # of connection points: 2
#     Edge 47, Type (0, 0), BuildingBlock: TEMPAE_clean_linker_10, # of connection points: 2
#     Edge 48, Type (0, 0), BuildingBlock: TEMPAE_clean_linker_10, # of connection points: 2
#     Edge 49, Type (0, 0), BuildingBlock: TEMPAE_clean_linker_10, # of connection points: 2
#     Edge 50, Type (0, 0), BuildingBlock: TEMPAE_clean_linker_10, # of connection points: 2
#     Edge 51, Type (0, 0), BuildingBlock: TEMPAE_clean_linker_10, # of connection points: 2
#     Edge 52, Type (0, 0), BuildingBlock: TEMPAE_clean_linker_10, # of connection points: 2
#     Edge 53, Type (0, 0), BuildingBlock: TEMPAE_clean_linker_10, # of connection points: 2
#     Edge 54, Type (0, 0), BuildingBlock: TEMPAE_clean_linker_10, # of connection points: 2
#     Edge 55, Type (0, 0), BuildingBlock: TEMPAE_clean_linker_10, # of connection points: 2
#     Edge 56, Type (0, 0), BuildingBlock: TEMPAE_clean_linker_10, # of connection points: 2
#     Edge 57, Type (0, 0), BuildingBlock: TEMPAE_clean_linker_10, # of connection points: 2
#     Edge 58, Type (0, 0), BuildingBlock: TEMPAE_clean_linker_10, # of connection points: 2
#     Edge 59, Type (0, 0), BuildingBlock: TEMPAE_clean_linker_10, # of connection points: 2
#     Edge 60, Type (0, 0), BuildingBlock: TEMPAE_clean_linker_10, # of connection points: 2
#     Edge 61, Type (0, 0), BuildingBlock: TEMPAE_clean_linker_10, # of connection points: 2
#     Edge 62, Type (0, 0), BuildingBlock: TEMPAE_clean_linker_10, # of connection points: 2
#     Edge 63, Type (0, 0), BuildingBlock: TEMPAE_clean_linker_10, # of connection points: 2
#     Edge 64, Type (0, 0), BuildingBlock: TEMPAE_clean_linker_10, # of connection points: 2
#     Edge 65, Type (0, 0), BuildingBlock: TEMPAE_clean_linker_10, # of connection points: 2
#     Edge 66, Type (0, 0), BuildingBlock: TEMPAE_clean_linker_10, # of connection points: 2
#     Edge 67, Type (0, 0), BuildingBlock: TEMPAE_clean_linker_10, # of connection points: 2
#     Edge 68, Type (0, 0), BuildingBlock: TEMPAE_clean_linker_10, # of connection points: 2
#     Edge 69, Type (0, 0), BuildingBlock: TEMPAE_clean_linker_10, # of connection points: 2
#     Edge 70, Type (0, 0), BuildingBlock: TEMPAE_clean_linker_10, # of connection points: 2
#     Edge 71, Type (0, 0), BuildingBlock: TEMPAE_clean_linker_10, # of connection points: 2
# Relax obj value: 0.075
# Max RMSD: 0.317
# Mean RMSD: 0.297
data_MOF--net-hbo--node1-KOZSID_clean_sbu_0--edge1-TEMPAE_clean_linker_10
_symmetry_space_group_name_H-M    P1
_symmetry_Int_Tables_number       1
_symmetry_cell_setting            triclinic
loop_
_symmetry_equiv_pos_as_xyz
'x, y, z'
_cell_length_a     69.681946
_cell_length_b     63.828008
_cell_length_c     63.799272
_cell_angle_alpha  90.092128
_cell_angle_beta   90.441947
_cell_angle_gamma 88.611146
loop_
_atom_site_label
_atom_site_type_symbol
_atom_site_fract_x
_atom_site_fract_y
_atom_site_fract_z
_atom_type_partial_charge
C0 C 0.17939 0.34086 0.31046 0.0
C1 C 0.18404 0.33553 0.33099 0.0
C2 C 0.18232 0.35359 0.34253 0.0
C3 C 0.17663 0.36882 0.32846 0.0
N4 N 0.17447 0.36144 0.30886 0.0
Co5 Co 0.16633 0.37809 0.28389 0.0
N6 N 0.17314 0.405 0.29763 0.0
C7 C 0.17757 0.40739 0.31809 0.0
C8 C 0.18319 0.42721 0.32307 0.0
C9 C 0.18185 0.43821 0.30473 0.0
C10 C 0.17491 0.42459 0.28957 0.0
N11 N 0.15733 0.39502 0.25926 0.0
C12 C 0.15873 0.41589 0.25498 0.0
C13 C 0.14842 0.42106 0.23693 0.0
C14 C 0.14025 0.40301 0.22983 0.0
C15 C 0.14583 0.38777 0.24392 0.0
N16 N 0.16034 0.35095 0.27028 0.0
C17 C 0.14919 0.34852 0.25324 0.0
C18 C 0.14898 0.32804 0.2465 0.0
C19 C 0.1608 0.31699 0.26017 0.0
C20 C 0.16753 0.33136 0.2746 0.0
N21 N 0.1399 0.38027 0.29506 0.0
C22 C 0.09974 0.38117 0.30147 0.0
C23 C 0.11073 0.36257 0.30391 0.0
C24 C 0.13068 0.3625 0.30087 0.0
C25 C 0.10966 0.39959 0.29731 0.0
C26 C 0.12962 0.39882 0.29426 0.0
N27 N 0.19231 0.37497 0.27185 0.0
C28 C 0.2105 0.36369 0.2416 0.0
C29 C 0.22614 0.35776 0.25423 0.0
C30 C 0.22511 0.36217 0.27577 0.0
C31 C 0.20823 0.37129 0.28419 0.0
C32 C 0.19383 0.37204 0.25063 0.0
H33 H 0.2077 0.37413 0.30085 0.0
H34 H 0.18175 0.37451 0.24033 0.0
H35 H 0.13851 0.34776 0.30224 0.0
H36 H 0.13649 0.41316 0.29018 0.0
C37 C 0.17795 0.39032 0.33179 0.0
C38 C 0.17997 0.32614 0.29284 0.0
C39 C 0.16776 0.43161 0.26878 0.0
C40 C 0.14236 0.3662 0.24211 0.0
H41 H 0.18869 0.32032 0.33688 0.0
H42 H 0.18611 0.35562 0.35888 0.0
H43 H 0.18799 0.43292 0.33816 0.0
H44 H 0.18509 0.45459 0.30298 0.0
H45 H 0.14653 0.43639 0.22989 0.0
H46 H 0.1314 0.40121 0.21596 0.0
H47 H 0.14191 0.322 0.23266 0.0
H48 H 0.16418 0.30038 0.25945 0.0
H49 H 0.10393 0.348 0.30772 0.0
H50 H 0.10197 0.41441 0.29535 0.0
H51 H 0.21063 0.36062 0.22489 0.0
H52 H 0.23707 0.35817 0.28607 0.0
C53 C 0.15843 0.67619 0.72976 0.0
C54 C 0.16197 0.68083 0.70889 0.0
C55 C 0.1588 0.6629 0.69773 0.0
C56 C 0.15363 0.64834 0.71231 0.0
N57 N 0.15315 0.65605 0.73193 0.0
Co58 Co 0.14706 0.64014 0.75769 0.0
N59 N 0.15262 0.61274 0.74375 0.0
C60 C 0.15513 0.60986 0.72301 0.0
C61 C 0.16058 0.58976 0.71785 0.0
C62 C 0.16117 0.57912 0.73641 0.0
C63 C 0.15547 0.59323 0.75194 0.0
N64 N 0.14005 0.62395 0.78308 0.0
C65 C 0.1421 0.6031 0.78757 0.0
C66 C 0.13336 0.59861 0.80647 0.0
C67 C 0.12556 0.61714 0.81389 0.0
C68 C 0.12978 0.63197 0.79916 0.0
N69 N 0.14248 0.66768 0.77143 0.0
C70 C 0.13277 0.67099 0.78925 0.0
C71 C 0.13358 0.69152 0.79584 0.0
C72 C 0.14458 0.70157 0.78122 0.0
C73 C 0.1499 0.68659 0.76652 0.0
N74 N 0.11959 0.63944 0.74877 0.0
C75 C 0.07883 0.64066 0.74515 0.0
C76 C 0.08964 0.65878 0.74262 0.0
C77 C 0.10983 0.65779 0.74411 0.0
C78 C 0.08913 0.62167 0.74821 0.0
C79 C 0.10934 0.6214 0.75006 0.0
N80 N 0.17406 0.642 0.76771 0.0
C81 C 0.19364 0.65433 0.79644 0.0
C82 C 0.20797 0.66063 0.78275 0.0
C83 C 0.20604 0.65482 0.76153 0.0
C84 C 0.18903 0.64535 0.75436 0.0
C85 C 0.17705 0.64513 0.78874 0.0
H86 H 0.18746 0.64225 0.7378 0.0
H87 H 0.166 0.6425 0.79995 0.0
H88 H 0.1175 0.67217 0.74239 0.0
H89 H 0.11654 0.60666 0.75349 0.0
C90 C 0.15443 0.62675 0.70914 0.0
C91 C 0.16085 0.6908 0.74728 0.0
C92 C 0.1505 0.58688 0.77347 0.0
C93 C 0.12664 0.65381 0.80105 0.0
H94 H 0.16704 0.69529 0.70239 0.0
H95 H 0.16155 0.66033 0.68123 0.0
H96 H 0.16416 0.58367 0.70249 0.0
H97 H 0.16499 0.56269 0.73811 0.0
H98 H 0.13238 0.58347 0.81393 0.0
H99 H 0.11797 0.61953 0.82847 0.0
H100 H 0.12775 0.69818 0.81011 0.0
H101 H 0.14831 0.71793 0.78136 0.0
H102 H 0.08251 0.67378 0.73977 0.0
H103 H 0.08157 0.60719 0.75017 0.0
H104 H 0.19471 0.65751 0.81309 0.0
H105 H 0.2169 0.65888 0.7503 0.0
C106 C 0.8734 0.67974 0.29988 0.0
C107 C 0.86933 0.68423 0.32068 0.0
C108 C 0.87203 0.66583 0.33149 0.0
C109 C 0.87768 0.6513 0.31672 0.0
N110 N 0.87888 0.65949 0.2974 0.0
Co111 Co 0.88685 0.64442 0.27161 0.0
N112 N 0.88082 0.61686 0.28405 0.0
C113 C 0.87704 0.61333 0.30442 0.0
C114 C 0.87136 0.59331 0.30825 0.0
C115 C 0.87198 0.58346 0.28922 0.0
C116 C 0.87863 0.59788 0.27482 0.0
N117 N 0.89569 0.62906 0.24615 0.0
C118 C 0.89431 0.60848 0.24073 0.0
C119 C 0.90438 0.60433 0.22243 0.0
C120 C 0.91235 0.62283 0.21636 0.0
C121 C 0.90689 0.63727 0.23127 0.0
N122 N 0.89195 0.67229 0.25941 0.0
C123 C 0.90278 0.67596 0.24259 0.0
C124 C 0.90171 0.69667 0.23657 0.0
C125 C 0.88935 0.70646 0.2505 0.0
C126 C 0.8836 0.69117 0.26432 0.0
N127 N 0.91355 0.64232 0.2826 0.0
C128 C 0.95381 0.64166 0.28986 0.0
C129 C 0.9425 0.65992 0.29315 0.0
C130 C 0.92254 0.6599 0.28955 0.0
C131 C 0.94411 0.62342 0.28416 0.0
C132 C 0.92413 0.62404 0.28077 0.0
N133 N 0.8606 0.64738 0.25971 0.0
C134 C 0.84161 0.65955 0.23008 0.0
C135 C 0.82564 0.66323 0.24277 0.0
C136 C 0.82706 0.65719 0.26393 0.0
C137 C 0.84461 0.64901 0.27204 0.0
C138 C 0.85876 0.65177 0.23875 0.0
H139 H 0.84552 0.64519 0.2885 0.0
H140 H 0.87088 0.65091 0.22851 0.0
H141 H 0.9145 0.67441 0.2916 0.0
H142 H 0.91745 0.60984 0.2757 0.0
C143 C 0.87689 0.62963 0.3191 0.0
C144 C 0.87107 0.69465 0.28265 0.0
C145 C 0.88543 0.59211 0.25364 0.0
C146 C 0.90994 0.65903 0.23057 0.0
H147 H 0.86424 0.69902 0.32715 0.0
H148 H 0.86879 0.66306 0.34781 0.0
H149 H 0.86689 0.58676 0.32302 0.0
H150 H 0.86849 0.56725 0.28649 0.0
H151 H 0.90619 0.58942 0.21452 0.0
H152 H 0.92092 0.62544 0.20257 0.0
H153 H 0.90815 0.70361 0.22294 0.0
H154 H 0.88494 0.72282 0.25029 0.0
H155 H 0.94901 0.67433 0.29817 0.0
H156 H 0.95193 0.60884 0.28136 0.0
H157 H 0.84128 0.66394 0.21368 0.0
H158 H 0.81493 0.6594 0.27427 0.0
C159 C 0.87385 0.34474 0.72735 0.0
C160 C 0.87068 0.34188 0.70605 0.0
C161 C 0.87428 0.36069 0.69663 0.0
C162 C 0.87954 0.3738 0.71266 0.0
N163 N 0.87959 0.36437 0.73146 0.0
Co164 Co 0.88716 0.37712 0.75846 0.0
N165 N 0.88178 0.40587 0.74764 0.0
C166 C 0.8802 0.41104 0.7272 0.0
C167 C 0.87757 0.43213 0.72396 0.0
C168 C 0.87781 0.4409 0.74352 0.0
C169 C 0.88061 0.4246 0.75777 0.0
N170 N 0.89573 0.39016 0.78515 0.0
C171 C 0.89402 0.41031 0.79208 0.0
C172 C 0.90308 0.41244 0.81139 0.0
C173 C 0.91104 0.39314 0.81638 0.0
C174 C 0.90642 0.38022 0.79995 0.0
N175 N 0.89165 0.34812 0.76885 0.0
C176 C 0.90193 0.34262 0.78593 0.0
C177 C 0.90003 0.32176 0.79077 0.0
C178 C 0.88773 0.31385 0.77585 0.0
C179 C 0.88283 0.33029 0.76254 0.0
N180 N 0.91414 0.37835 0.74868 0.0
C181 C 0.95449 0.37805 0.74226 0.0
C182 C 0.94348 0.36031 0.73789 0.0
C183 C 0.92346 0.36081 0.74107 0.0
C184 C 0.94446 0.3962 0.74891 0.0
C185 C 0.92451 0.39606 0.75189 0.0
N186 N 0.86064 0.37495 0.76931 0.0
C187 C 0.84214 0.36054 0.79749 0.0
C188 C 0.82679 0.35657 0.78398 0.0
C189 C 0.82773 0.36467 0.7635 0.0
C190 C 0.84483 0.37386 0.75645 0.0
C191 C 0.85867 0.36967 0.78999 0.0
H192 H 0.8457 0.37861 0.74025 0.0
H193 H 0.87039 0.37048 0.80088 0.0
H194 H 0.91561 0.34673 0.73805 0.0
H195 H 0.91772 0.41017 0.75775 0.0
C196 C 0.88013 0.39563 0.71156 0.0
C197 C 0.87061 0.32892 0.74343 0.0
C198 C 0.88521 0.42797 0.78011 0.0
C199 C 0.90903 0.35824 0.79933 0.0
H200 H 0.86571 0.3279 0.6983 0.0
H201 H 0.87207 0.36465 0.68029 0.0
H202 H 0.87583 0.4402 0.70913 0.0
H203 H 0.87701 0.45755 0.74672 0.0
H204 H 0.90401 0.42649 0.82081 0.0
H205 H 0.91878 0.38893 0.83059 0.0
H206 H 0.90579 0.31359 0.80437 0.0
H207 H 0.88273 0.29797 0.77523 0.0
H208 H 0.95028 0.34597 0.73225 0.0
H209 H 0.95202 0.41034 0.75272 0.0
H210 H 0.84186 0.35557 0.81371 0.0
H211 H 0.81594 0.36263 0.75259 0.0
C212 C 0.2281 0.17514 0.34273 0.0
C213 C 0.21016 0.17891 0.33366 0.0
C214 C 0.20181 0.15985 0.33151 0.0
C215 C 0.21499 0.14561 0.33949 0.0
N216 N 0.23107 0.15446 0.34672 0.0
Co217 Co 0.25351 0.13941 0.35981 0.0
N218 N 0.24537 0.1118 0.34839 0.0
C219 C 0.22844 0.10813 0.33886 0.0
C220 C 0.22694 0.08807 0.33148 0.0
C221 C 0.24378 0.07818 0.33711 0.0
C222 C 0.25452 0.0927 0.34808 0.0
N223 N 0.27558 0.12395 0.37355 0.0
C224 C 0.28135 0.10332 0.37261 0.0
C225 C 0.29609 0.09918 0.38687 0.0
C226 C 0.29943 0.11756 0.39729 0.0
C227 C 0.28656 0.13195 0.38897 0.0
N228 N 0.26156 0.16723 0.37052 0.0
C229 C 0.27445 0.17035 0.38591 0.0
C230 C 0.27784 0.19124 0.3892 0.0
C231 C 0.26634 0.20189 0.37495 0.0
C232 C 0.25648 0.18688 0.36377 0.0
N233 N 0.23858 0.13521 0.38573 0.0
C234 C 0.22868 0.13354 0.4286 0.0
C235 C 0.22502 0.15168 0.4166 0.0
C236 C 0.2299 0.15213 0.39528 0.0
C237 C 0.23539 0.1156 0.41788 0.0
C238 C 0.23997 0.11669 0.39651 0.0
N239 N 0.26914 0.14473 0.33467 0.0
C240 C 0.29804 0.16055 0.32214 0.0
C241 C 0.28961 0.16464 0.30259 0.0
C242 C 0.2712 0.15681 0.29877 0.0
C243 C 0.26122 0.14683 0.31502 0.0
C244 C 0.28774 0.15057 0.33773 0.0
H245 H 0.24675 0.14192 0.312 0.0
H246 H 0.2946 0.1491 0.35278 0.0
H247 H 0.22784 0.16671 0.38695 0.0
H248 H 0.24592 0.10283 0.38924 0.0
C249 C 0.21465 0.12408 0.33615 0.0
C250 C 0.24175 0.1916 0.34754 0.0
C251 C 0.27164 0.0867 0.36062 0.0
C252 C 0.28513 0.15334 0.39421 0.0
H253 H 0.2039 0.1938 0.32875 0.0
H254 H 0.18827 0.15666 0.32386 0.0
H255 H 0.215 0.0814 0.32306 0.0
H256 H 0.24736 0.06183 0.33425 0.0
H257 H 0.30321 0.08425 0.38999 0.0
H258 H 0.30989 0.12006 0.40961 0.0
H259 H 0.28806 0.19793 0.4 0.0
H260 H 0.26541 0.21871 0.37297 0.0
H261 H 0.2191 0.16578 0.42376 0.0
H262 H 0.23828 0.10104 0.42612 0.0
H263 H 0.3124 0.1657 0.3257 0.0
H264 H 0.26419 0.15931 0.28375 0.0
C265 C 0.36157 0.79889 0.83847 0.0
C266 C 0.35667 0.81964 0.83413 0.0
C267 C 0.35845 0.83036 0.85264 0.0
C268 C 0.3644 0.81561 0.8671 0.0
N269 N 0.36672 0.79636 0.85878 0.0
Co270 Co 0.37512 0.77054 0.87393 0.0
N271 N 0.36795 0.78294 0.90152 0.0
C272 C 0.36301 0.8032 0.90498 0.0
C273 C 0.35683 0.80702 0.92498 0.0
C274 C 0.3584 0.78814 0.93496 0.0
C275 C 0.36606 0.77385 0.92061 0.0
N276 N 0.3844 0.74509 0.88943 0.0
C277 C 0.38332 0.73998 0.91017 0.0
C278 C 0.39398 0.72177 0.91429 0.0
C279 C 0.40207 0.71546 0.89568 0.0
C280 C 0.3961 0.73014 0.88118 0.0
N281 N 0.38126 0.75841 0.84603 0.0
C282 C 0.39258 0.74152 0.84245 0.0
C283 C 0.3924 0.73569 0.82165 0.0
C284 C 0.38008 0.74978 0.8117 0.0
C285 C 0.37343 0.76349 0.827 0.0
N286 N 0.40161 0.78145 0.87646 0.0
C287 C 0.44204 0.78676 0.87772 0.0
C288 C 0.43128 0.79051 0.85929 0.0
C289 C 0.41121 0.78784 0.859 0.0
C290 C 0.4317 0.78188 0.89583 0.0
C291 C 0.41168 0.77956 0.89493 0.0
N292 N 0.34922 0.75853 0.87048 0.0
C293 C 0.3315 0.72851 0.85859 0.0
C294 C 0.31514 0.74093 0.85444 0.0
C295 C 0.31579 0.7623 0.85985 0.0
C296 C 0.33287 0.77073 0.86815 0.0
C297 C 0.34818 0.73748 0.86641 0.0
H298 H 0.33307 0.78727 0.87162 0.0
H299 H 0.36058 0.72728 0.86769 0.0
H300 H 0.40362 0.78994 0.8443 0.0
H301 H 0.40457 0.77521 0.90912 0.0
C302 C 0.36272 0.81784 0.88873 0.0
C303 C 0.36042 0.7818 0.82331 0.0
C304 C 0.3743 0.75318 0.92671 0.0
C305 C 0.39958 0.72945 0.85943 0.0
H306 H 0.35163 0.82613 0.81936 0.0
H307 H 0.35435 0.84657 0.85552 0.0
H308 H 0.35161 0.82174 0.93149 0.0
H309 H 0.35502 0.78546 0.95125 0.0
H310 H 0.39617 0.71414 0.92927 0.0
H311 H 0.4112 0.70176 0.89306 0.0
H312 H 0.39945 0.7221 0.81471 0.0
H313 H 0.37627 0.74982 0.79523 0.0
H314 H 0.43838 0.79449 0.84485 0.0
H315 H 0.43908 0.77945 0.91066 0.0
H316 H 0.33184 0.71198 0.85468 0.0
H317 H 0.30337 0.77252 0.85727 0.0
C318 C 0.72606 0.85309 0.3349 0.0
C319 C 0.7073 0.8466 0.33249 0.0
C320 C 0.69904 0.84798 0.35187 0.0
C321 C 0.71315 0.8553 0.36491 0.0
N322 N 0.72971 0.85873 0.35495 0.0
Co323 Co 0.75354 0.86951 0.36787 0.0
N324 N 0.7454 0.86108 0.39649 0.0
C325 C 0.72738 0.85612 0.40182 0.0
C326 C 0.72535 0.85198 0.42272 0.0
C327 C 0.74309 0.85489 0.43131 0.0
C328 C 0.75511 0.8607 0.41509 0.0
N329 N 0.77703 0.88114 0.38108 0.0
C330 C 0.78386 0.87981 0.40113 0.0
C331 C 0.80017 0.89168 0.40352 0.0
C332 C 0.80326 0.90119 0.3846 0.0
C333 C 0.7888 0.8946 0.37161 0.0
N334 N 0.76144 0.87712 0.33905 0.0
C335 C 0.77519 0.8906 0.33414 0.0
C336 C 0.7783 0.89151 0.31288 0.0
C337 C 0.76573 0.87765 0.30398 0.0
C338 C 0.75559 0.86907 0.32032 0.0
N339 N 0.74099 0.89747 0.37147 0.0
C340 C 0.73249 0.94101 0.3736 0.0
C341 C 0.72875 0.92943 0.3553 0.0
C342 C 0.73287 0.90774 0.35464 0.0
C343 C 0.73911 0.92982 0.39125 0.0
C344 C 0.74313 0.90825 0.3899 0.0
N345 N 0.76693 0.84217 0.36345 0.0
C346 C 0.79495 0.82456 0.34898 0.0
C347 C 0.78508 0.80599 0.34677 0.0
C348 C 0.76618 0.80537 0.35424 0.0
C349 C 0.75744 0.82362 0.36283 0.0
C350 C 0.78572 0.84232 0.35721 0.0
H351 H 0.74275 0.82295 0.368 0.0
H352 H 0.79367 0.85648 0.35713 0.0
H353 H 0.73043 0.8995 0.34011 0.0
H354 H 0.74913 0.9007 0.40356 0.0
C355 C 0.71288 0.85455 0.38672 0.0
C356 C 0.73993 0.854 0.31785 0.0
C357 C 0.77436 0.8692 0.41872 0.0
C358 C 0.78703 0.89869 0.34999 0.0
H359 H 0.70041 0.8411 0.31831 0.0
H360 H 0.68486 0.84301 0.35615 0.0
H361 H 0.71245 0.84766 0.43082 0.0
H362 H 0.74636 0.85394 0.44788 0.0
H363 H 0.8087 0.89364 0.4176 0.0
H364 H 0.81484 0.91146 0.38072 0.0
H365 H 0.7891 0.90031 0.30486 0.0
H366 H 0.76433 0.87414 0.28745 0.0
H367 H 0.72313 0.93714 0.34137 0.0
H368 H 0.74227 0.93782 0.4058 0.0
H369 H 0.80957 0.82565 0.34346 0.0
H370 H 0.75811 0.79113 0.35294 0.0
C371 C 0.67232 0.22461 0.83925 0.0
C372 C 0.67586 0.20385 0.83375 0.0
C373 C 0.67346 0.19228 0.85157 0.0
C374 C 0.66852 0.20659 0.86683 0.0
N375 N 0.66744 0.22638 0.85966 0.0
Co376 Co 0.66063 0.25176 0.87634 0.0
N377 N 0.66701 0.2373 0.90325 0.0
C378 C 0.67049 0.21655 0.9055 0.0
C379 C 0.67643 0.21106 0.9253 0.0
C380 C 0.6763 0.22938 0.93641 0.0
C381 C 0.66967 0.24509 0.9229 0.0
N382 N 0.65284 0.27673 0.89335 0.0
C383 C 0.65462 0.28068 0.91432 0.0
C384 C 0.64509 0.29932 0.91946 0.0
C385 C 0.63708 0.30714 0.90125 0.0
C386 C 0.64196 0.29287 0.88594 0.0
N387 N 0.65531 0.26598 0.84918 0.0
C388 C 0.64503 0.28383 0.84657 0.0
C389 C 0.64542 0.29083 0.82616 0.0
C390 C 0.65674 0.27645 0.81543 0.0
C391 C 0.66263 0.26141 0.82987 0.0
N392 N 0.63353 0.24264 0.87772 0.0
C393 C 0.5929 0.23983 0.87805 0.0
C394 C 0.60333 0.23777 0.85937 0.0
C395 C 0.62351 0.2388 0.85959 0.0
C396 C 0.6035 0.24183 0.89674 0.0
C397 C 0.62365 0.2433 0.89624 0.0
N398 N 0.6872 0.26205 0.87402 0.0
C399 C 0.70631 0.29143 0.86376 0.0
C400 C 0.72146 0.27813 0.85768 0.0
C401 C 0.71974 0.25657 0.86161 0.0
C402 C 0.70263 0.24889 0.87017 0.0
C403 C 0.68949 0.2832 0.87171 0.0
H404 H 0.70153 0.23221 0.87243 0.0
H405 H 0.67789 0.2942 0.87431 0.0
H406 H 0.63092 0.2375 0.84483 0.0
H407 H 0.63104 0.24603 0.91084 0.0
C408 C 0.66991 0.20298 0.88832 0.0
C409 C 0.6743 0.24234 0.82501 0.0
C410 C 0.66349 0.26625 0.93005 0.0
C411 C 0.63864 0.2952 0.86421 0.0
H412 H 0.68036 0.19781 0.81865 0.0
H413 H 0.67646 0.17568 0.85351 0.0
H414 H 0.68072 0.19564 0.9309 0.0
H415 H 0.68017 0.23078 0.95279 0.0
H416 H 0.64367 0.30635 0.93483 0.0
H417 H 0.62886 0.32163 0.89939 0.0
H418 H 0.6391 0.30523 0.82002 0.0
H419 H 0.66035 0.27705 0.79898 0.0
H420 H 0.59591 0.23571 0.84456 0.0
H421 H 0.5962 0.24336 0.91161 0.0
H422 H 0.70689 0.30817 0.86111 0.0
H423 H 0.7313 0.24569 0.85757 0.0
C424 C 0.29913 0.84495 0.68658 0.0
C425 C 0.31806 0.83803 0.68912 0.0
C426 C 0.32629 0.83879 0.66974 0.0
C427 C 0.312 0.84615 0.65658 0.0
N428 N 0.29533 0.85021 0.66643 0.0
Co429 Co 0.27127 0.86141 0.65327 0.0
N430 N 0.2798 0.85244 0.62473 0.0
C431 C 0.29795 0.84679 0.61962 0.0
C432 C 0.30029 0.84245 0.59878 0.0
C433 C 0.28263 0.84595 0.58994 0.0
C434 C 0.27033 0.8523 0.60598 0.0
N435 N 0.24762 0.87353 0.63969 0.0
C436 C 0.24112 0.87247 0.61947 0.0
C437 C 0.22464 0.88486 0.61684 0.0
C438 C 0.22108 0.89444 0.63575 0.0
C439 C 0.23546 0.88738 0.64898 0.0
N440 N 0.26299 0.86952 0.68198 0.0
C441 C 0.24881 0.88331 0.68667 0.0
C442 C 0.24565 0.88465 0.70791 0.0
C443 C 0.25866 0.87076 0.71704 0.0
C444 C 0.26907 0.8617 0.70084 0.0
N445 N 0.28317 0.88915 0.64962 0.0
C446 C 0.28925 0.9328 0.648 0.0
C447 C 0.29298 0.92129 0.66638 0.0
C448 C 0.29029 0.89951 0.66672 0.0
C449 C 0.28411 0.92159 0.62998 0.0
C450 C 0.28112 0.89992 0.63111 0.0
N451 N 0.25839 0.8344 0.6581 0.0
C452 C 0.23103 0.81873 0.67453 0.0
C453 C 0.24135 0.8001 0.67829 0.0
C454 C 0.25999 0.79825 0.66999 0.0
C455 C 0.26825 0.81561 0.6599 0.0
C456 C 0.23961 0.83538 0.66438 0.0
H457 H 0.28294 0.81417 0.65469 0.0
H458 H 0.23121 0.84962 0.66331 0.0
H459 H 0.29283 0.89131 0.6813 0.0
H460 H 0.27593 0.8923 0.61722 0.0
C461 C 0.31238 0.84503 0.63482 0.0
C462 C 0.28525 0.84651 0.7036 0.0
C463 C 0.25102 0.86149 0.60198 0.0
C464 C 0.23691 0.89153 0.67063 0.0
H465 H 0.32509 0.83264 0.70338 0.0
H466 H 0.3406 0.83339 0.66556 0.0
H467 H 0.31337 0.83768 0.59086 0.0
H468 H 0.27961 0.84507 0.57332 0.0
H469 H 0.2163 0.88711 0.60262 0.0
H470 H 0.20927 0.90511 0.63945 0.0
H471 H 0.23462 0.89385 0.71578 0.0
H472 H 0.26023 0.86758 0.73363 0.0
H473 H 0.29744 0.92915 0.68059 0.0
H474 H 0.28123 0.9297 0.61535 0.0
H475 H 0.21647 0.82079 0.68016 0.0
H476 H 0.26846 0.78398 0.67224 0.0
C477 C 0.67276 0.80425 0.17865 0.0
C478 C 0.67776 0.82483 0.18246 0.0
C479 C 0.67631 0.83506 0.16363 0.0
C480 C 0.67044 0.82022 0.14952 0.0
N481 N 0.66788 0.80137 0.15831 0.0
Co482 Co 0.65942 0.77565 0.14368 0.0
N483 N 0.66666 0.78691 0.1158 0.0
C484 C 0.67159 0.80681 0.11187 0.0
C485 C 0.67741 0.8099 0.09168 0.0
C486 C 0.67565 0.7909 0.08206 0.0
C487 C 0.66831 0.7773 0.09683 0.0
N488 N 0.65003 0.75034 0.12869 0.0
C489 C 0.65126 0.74454 0.10811 0.0
C490 C 0.64067 0.72675 0.10438 0.0
C491 C 0.63245 0.72142 0.12305 0.0
C492 C 0.63829 0.73623 0.1372 0.0
N493 N 0.65309 0.76454 0.1718 0.0
C494 C 0.64172 0.74835 0.17565 0.0
C495 C 0.64145 0.74322 0.1966 0.0
C496 C 0.6535 0.75704 0.20641 0.0
C497 C 0.66044 0.7699 0.19089 0.0
N498 N 0.63309 0.78801 0.14087 0.0
C499 C 0.59273 0.79464 0.1399 0.0
C500 C 0.60355 0.79873 0.15808 0.0
C501 C 0.62361 0.79541 0.15822 0.0
C502 C 0.60292 0.78895 0.12177 0.0
C503 C 0.62296 0.78599 0.12252 0.0
N504 N 0.68521 0.76231 0.14747 0.0
C505 C 0.70236 0.73171 0.16078 0.0
C506 C 0.71822 0.74357 0.16639 0.0
C507 C 0.71801 0.76472 0.16005 0.0
C508 C 0.70144 0.77372 0.1504 0.0
C509 C 0.68618 0.74125 0.15162 0.0
H510 H 0.70141 0.79018 0.14658 0.0
H511 H 0.67399 0.73152 0.14952 0.0
H512 H 0.63129 0.79769 0.17277 0.0
H513 H 0.63002 0.78091 0.1084 0.0
C514 C 0.67206 0.82179 0.12783 0.0
C515 C 0.67325 0.7877 0.19448 0.0
C516 C 0.66034 0.75676 0.09132 0.0
C517 C 0.63477 0.73626 0.15892 0.0
H518 H 0.68256 0.83154 0.19713 0.0
H519 H 0.68046 0.85095 0.16038 0.0
H520 H 0.68251 0.8242 0.0848 0.0
H521 H 0.67875 0.7877 0.06576 0.0
H522 H 0.63864 0.71877 0.08958 0.0
H523 H 0.62336 0.70824 0.12596 0.0
H524 H 0.6342 0.73028 0.20377 0.0
H525 H 0.6569 0.75747 0.22298 0.0
H526 H 0.59649 0.80338 0.17248 0.0
H527 H 0.59541 0.78624 0.10713 0.0
H528 H 0.70199 0.71513 0.16428 0.0
H529 H 0.73005 0.77457 0.16356 0.0
C530 C 0.7255 0.18032 0.68354 0.0
C531 C 0.70681 0.18711 0.68765 0.0
C532 C 0.69729 0.18743 0.66883 0.0
C533 C 0.71061 0.18079 0.65438 0.0
N534 N 0.7279 0.17608 0.66292 0.0
Co535 Co 0.75106 0.16577 0.64755 0.0
N536 N 0.74029 0.17552 0.62006 0.0
C537 C 0.72222 0.18283 0.61669 0.0
C538 C 0.71909 0.19021 0.59678 0.0
C539 C 0.7361 0.18694 0.58669 0.0
C540 C 0.7486 0.17714 0.6009 0.0
N541 N 0.77363 0.15428 0.6317 0.0
C542 C 0.77825 0.15556 0.61094 0.0
C543 C 0.79421 0.1429 0.60659 0.0
C544 C 0.7996 0.1333 0.62503 0.0
C545 C 0.78665 0.14042 0.63966 0.0
N546 N 0.7618 0.15718 0.6753 0.0
C547 C 0.77669 0.14382 0.67846 0.0
C548 C 0.78162 0.14202 0.69933 0.0
C549 C 0.76902 0.15519 0.70988 0.0
C550 C 0.75709 0.1643 0.69483 0.0
N551 N 0.7392 0.1379 0.64416 0.0
C552 C 0.73311 0.09421 0.64204 0.0
C553 C 0.73104 0.1053 0.66093 0.0
C554 C 0.7337 0.12707 0.66156 0.0
C555 C 0.73659 0.10588 0.62389 0.0
C556 C 0.73961 0.12759 0.62528 0.0
N557 N 0.76395 0.19293 0.65208 0.0
C558 C 0.79314 0.20929 0.66395 0.0
C559 C 0.78289 0.22685 0.67117 0.0
C560 C 0.76302 0.22787 0.66723 0.0
C561 C 0.75392 0.21099 0.65716 0.0
C562 C 0.78353 0.19262 0.65476 0.0
H563 H 0.73862 0.2122 0.65458 0.0
H564 H 0.79217 0.17896 0.65131 0.0
H565 H 0.73241 0.13489 0.6765 0.0
H566 H 0.74341 0.13565 0.61117 0.0
C567 C 0.7089 0.18382 0.63286 0.0
C568 C 0.74069 0.17867 0.69941 0.0
C569 C 0.76681 0.16675 0.59458 0.0
C570 C 0.78723 0.13608 0.6613 0.0
H571 H 0.70086 0.19199 0.70255 0.0
H572 H 0.68282 0.19329 0.66585 0.0
H573 H 0.70603 0.19724 0.59039 0.0
H574 H 0.7387 0.1906 0.57042 0.0
H575 H 0.80097 0.14042 0.59156 0.0
H576 H 0.81159 0.12245 0.62745 0.0
H577 H 0.79343 0.13291 0.70604 0.0
H578 H 0.76864 0.1578 0.72663 0.0
H579 H 0.72787 0.0971 0.6753 0.0
H580 H 0.73811 0.09812 0.60887 0.0
H581 H 0.80851 0.20785 0.66654 0.0
H582 H 0.75454 0.2414 0.67221 0.0
C583 C 0.37428 0.21973 0.17989 0.0
C584 C 0.36827 0.19921 0.18137 0.0
C585 C 0.37009 0.19064 0.16177 0.0
C586 C 0.37702 0.20635 0.14948 0.0
N587 N 0.37987 0.22418 0.16018 0.0
Co588 Co 0.38909 0.25091 0.14849 0.0
N589 N 0.38206 0.24252 0.11943 0.0
C590 C 0.37729 0.22311 0.11324 0.0
C591 C 0.37244 0.22194 0.09243 0.0
C592 C 0.37467 0.24173 0.08484 0.0
C593 C 0.38112 0.25389 0.10145 0.0
N594 N 0.39922 0.27725 0.13659 0.0
C595 C 0.39822 0.28512 0.11677 0.0
C596 C 0.40904 0.30301 0.11515 0.0
C597 C 0.41729 0.30623 0.13447 0.0
C598 C 0.41116 0.29016 0.14683 0.0
N599 N 0.39522 0.2592 0.17774 0.0
C600 C 0.40702 0.27446 0.18365 0.0
C601 C 0.40707 0.2775 0.20502 0.0
C602 C 0.3944 0.2633 0.2129 0.0
C603 C 0.38732 0.25239 0.19585 0.0
N604 N 0.41511 0.23817 0.14534 0.0
C605 C 0.45509 0.22979 0.14434 0.0
C606 C 0.44431 0.22548 0.16227 0.0
C607 C 0.42438 0.22942 0.16233 0.0
C608 C 0.44508 0.23681 0.12643 0.0
C609 C 0.42522 0.24088 0.12725 0.0
N610 N 0.36354 0.26439 0.15261 0.0
C611 C 0.34675 0.29333 0.16925 0.0
C612 C 0.33059 0.2812 0.17247 0.0
C613 C 0.33045 0.26118 0.1632 0.0
C614 C 0.34704 0.25314 0.15313 0.0
C615 C 0.3629 0.28473 0.15947 0.0
H616 H 0.34691 0.23732 0.14712 0.0
H617 H 0.37535 0.29427 0.15921 0.0
H618 H 0.41664 0.22642 0.17656 0.0
H619 H 0.41837 0.24737 0.11349 0.0
C620 C 0.3761 0.20676 0.12765 0.0
C621 C 0.37402 0.23486 0.19714 0.0
C622 C 0.38909 0.27486 0.09865 0.0
C623 C 0.41452 0.28792 0.16852 0.0
H624 H 0.36253 0.19145 0.19493 0.0
H625 H 0.36543 0.17535 0.15676 0.0
H626 H 0.36777 0.20834 0.0838 0.0
H627 H 0.37256 0.24644 0.06867 0.0
H628 H 0.41115 0.31243 0.10131 0.0
H629 H 0.42653 0.31889 0.13897 0.0
H630 H 0.4146 0.28935 0.21376 0.0
H631 H 0.39071 0.26125 0.2292 0.0
H632 H 0.4513 0.21955 0.17635 0.0
H633 H 0.45267 0.24028 0.11215 0.0
H634 H 0.34735 0.3092 0.17522 0.0
H635 H 0.31814 0.2513 0.16484 0.0
C636 C 0.84024 0.66428 0.77345 0.0
C637 C 0.82587 0.66512 0.7583 0.0
C638 C 0.83459 0.66164 0.73943 0.0
C639 C 0.85375 0.65899 0.74403 0.0
N640 N 0.85777 0.65991 0.76474 0.0
Co641 Co 0.88432 0.66155 0.77706 0.0
N642 N 0.89732 0.65517 0.74969 0.0
C643 C 0.88838 0.65332 0.73102 0.0
C644 C 0.90064 0.64806 0.715 0.0
C645 C 0.91852 0.64654 0.72406 0.0
C646 C 0.91625 0.65119 0.74516 0.0
N647 N 0.91068 0.6648 0.78931 0.0
C648 C 0.92842 0.66174 0.78088 0.0
C649 C 0.94275 0.66775 0.79477 0.0
C650 C 0.93384 0.67411 0.8127 0.0
C651 C 0.91465 0.67197 0.80873 0.0
N652 N 0.87174 0.6663 0.80494 0.0
C653 C 0.88077 0.67021 0.82322 0.0
C654 C 0.86871 0.67193 0.84003 0.0
C655 C 0.85074 0.66953 0.83187 0.0
C656 C 0.85289 0.66678 0.81042 0.0
N657 N 0.88521 0.63087 0.78284 0.0
C658 C 0.88737 0.58661 0.78818 0.0
C659 C 0.89553 0.60025 0.80298 0.0
C660 C 0.89428 0.62222 0.80004 0.0
C661 C 0.87772 0.59586 0.77109 0.0
C662 C 0.87695 0.61762 0.76867 0.0
N663 N 0.88263 0.69212 0.7701 0.0
C664 C 0.85983 0.72133 0.76894 0.0
C665 C 0.86507 0.72616 0.74839 0.0
C666 C 0.88156 0.71591 0.74051 0.0
C667 C 0.89042 0.69939 0.75187 0.0
C668 C 0.86911 0.70477 0.77966 0.0
H669 H 0.90278 0.69178 0.74498 0.0
H670 H 0.86433 0.70174 0.79521 0.0
H671 H 0.90088 0.63206 0.81161 0.0
H672 H 0.86973 0.62347 0.75497 0.0
C673 C 0.86843 0.65595 0.72939 0.0
C674 C 0.83682 0.66946 0.79566 0.0
C675 C 0.93251 0.65296 0.76004 0.0
C676 C 0.90036 0.6737 0.82374 0.0
H677 H 0.81076 0.66863 0.76055 0.0
H678 H 0.82782 0.66172 0.7241 0.0
H679 H 0.89701 0.64548 0.69869 0.0
H680 H 0.93174 0.64273 0.71598 0.0
H681 H 0.95811 0.66734 0.79239 0.0
H682 H 0.9406 0.67899 0.82719 0.0
H683 H 0.87244 0.6755 0.85612 0.0
H684 H 0.83744 0.67123 0.84045 0.0
H685 H 0.90319 0.59407 0.81652 0.0
H686 H 0.87064 0.58636 0.75942 0.0
H687 H 0.84816 0.72982 0.77653 0.0
H688 H 0.88697 0.71967 0.72514 0.0
C689 C 0.88408 0.33672 0.27124 0.0
C690 C 0.89039 0.32012 0.25889 0.0
C691 C 0.90269 0.32836 0.24438 0.0
C692 C 0.90318 0.34951 0.24863 0.0
N693 N 0.89205 0.35491 0.26492 0.0
Co694 Co 0.88651 0.38386 0.27493 0.0
N695 N 0.89588 0.39691 0.24872 0.0
C696 C 0.90704 0.38702 0.23443 0.0
C697 C 0.91132 0.39968 0.21781 0.0
C698 C 0.90267 0.41876 0.22213 0.0
C699 C 0.8937 0.41688 0.24137 0.0
N700 N 0.88037 0.41262 0.28535 0.0
C701 C 0.87986 0.43137 0.27527 0.0
C702 C 0.87728 0.44773 0.28954 0.0
C703 C 0.87617 0.43897 0.30898 0.0
C704 C 0.87829 0.41786 0.30573 0.0
N705 N 0.878 0.37117 0.30149 0.0
C706 C 0.87683 0.38077 0.32019 0.0
C707 C 0.87091 0.36778 0.33589 0.0
C708 C 0.86813 0.3488 0.32637 0.0
C709 C 0.8725 0.35144 0.30537 0.0
N710 N 0.91294 0.38558 0.28643 0.0
C711 C 0.95292 0.38527 0.29474 0.0
C712 C 0.94324 0.4033 0.28721 0.0
C713 C 0.92341 0.40318 0.2833 0.0
C714 C 0.94178 0.36781 0.29935 0.0
C715 C 0.9219 0.3683 0.29514 0.0
N716 N 0.86049 0.3811 0.2624 0.0
C717 C 0.82752 0.37034 0.26606 0.0
C718 C 0.82749 0.36219 0.24552 0.0
C719 C 0.84331 0.36637 0.23304 0.0
C720 C 0.85942 0.37569 0.24163 0.0
C721 C 0.84421 0.37978 0.27423 0.0
H722 H 0.87154 0.37659 0.23151 0.0
H723 H 0.84435 0.3846 0.29046 0.0
H724 H 0.91682 0.41715 0.2768 0.0
H725 H 0.91394 0.35431 0.29806 0.0
C726 C 0.91023 0.36514 0.23542 0.0
C727 C 0.87126 0.33506 0.28946 0.0
C728 C 0.88462 0.43462 0.25299 0.0
C729 C 0.87747 0.40255 0.32131 0.0
H730 H 0.88639 0.3039 0.26009 0.0
H731 H 0.90951 0.32008 0.23151 0.0
H732 H 0.91917 0.39536 0.20382 0.0
H733 H 0.90306 0.43247 0.21222 0.0
H734 H 0.87722 0.4644 0.28659 0.0
H735 H 0.87435 0.44708 0.32377 0.0
H736 H 0.8679 0.37188 0.35202 0.0
H737 H 0.86315 0.33477 0.3339 0.0
H738 H 0.95099 0.41741 0.28393 0.0
H739 H 0.94845 0.35349 0.30526 0.0
H740 H 0.81535 0.36813 0.27621 0.0
H741 H 0.84375 0.36142 0.2168 0.0
C742 C 0.17179 0.32759 0.75896 0.0
C743 C 0.1729 0.31198 0.77404 0.0
C744 C 0.1718 0.32176 0.79311 0.0
C745 C 0.17014 0.34275 0.78869 0.0
N746 N 0.16962 0.34696 0.76799 0.0
Co747 Co 0.1709 0.37574 0.75553 0.0
N748 N 0.16674 0.39022 0.78315 0.0
C749 C 0.16718 0.38076 0.802 0.0
C750 C 0.16426 0.3944 0.81839 0.0
C751 C 0.16194 0.41378 0.80939 0.0
C752 C 0.16351 0.41092 0.7879 0.0
N753 N 0.17296 0.40439 0.74294 0.0
C754 C 0.16892 0.42377 0.75098 0.0
C755 C 0.17052 0.43917 0.73573 0.0
C756 C 0.17649 0.4294 0.7179 0.0
C757 C 0.17778 0.40859 0.72295 0.0
N758 N 0.1741 0.36167 0.72755 0.0
C759 C 0.17762 0.37118 0.70919 0.0
C760 C 0.17772 0.35796 0.69226 0.0
C761 C 0.17452 0.33863 0.70037 0.0
C762 C 0.17295 0.34117 0.72192 0.0
N763 N 0.14254 0.37659 0.75105 0.0
C764 C 0.10185 0.37769 0.74641 0.0
C765 C 0.11389 0.38441 0.73025 0.0
C766 C 0.13406 0.38383 0.7329 0.0
C767 C 0.11082 0.37024 0.76477 0.0
C768 C 0.13089 0.36978 0.76673 0.0
N769 N 0.19923 0.3741 0.76117 0.0
C770 C 0.22701 0.35053 0.7633 0.0
C771 C 0.23412 0.36083 0.78105 0.0
C772 C 0.22463 0.37969 0.78677 0.0
C773 C 0.20754 0.38624 0.77638 0.0
C774 C 0.2099 0.35746 0.75361 0.0
H775 H 0.20058 0.40051 0.78165 0.0
H776 H 0.20496 0.34834 0.74075 0.0
H777 H 0.14266 0.38935 0.72023 0.0
H778 H 0.13685 0.36388 0.78115 0.0
C779 C 0.16927 0.35896 0.80348 0.0
C780 C 0.17475 0.32348 0.73645 0.0
C781 C 0.16388 0.4285 0.77288 0.0
C782 C 0.17986 0.39266 0.70827 0.0
H783 H 0.17501 0.29531 0.77156 0.0
H784 H 0.17264 0.31445 0.8084 0.0
H785 H 0.16382 0.3907 0.83493 0.0
H786 H 0.15981 0.42842 0.81773 0.0
H787 H 0.16729 0.45577 0.73703 0.0
H788 H 0.17847 0.43648 0.70268 0.0
H789 H 0.18006 0.36188 0.67599 0.0
H790 H 0.17455 0.32408 0.69161 0.0
H791 H 0.1078 0.39045 0.71575 0.0
H792 H 0.1024 0.36448 0.77765 0.0
H793 H 0.23428 0.33666 0.75718 0.0
H794 H 0.22971 0.38885 0.79989 0.0
C795 C 0.16904 0.69274 0.27328 0.0
C796 C 0.16901 0.70728 0.25717 0.0
C797 C 0.16776 0.69622 0.23885 0.0
C798 C 0.16704 0.6756 0.24477 0.0
N799 N 0.16722 0.67283 0.26573 0.0
Co800 Co 0.1699 0.64506 0.28027 0.0
N801 N 0.16639 0.62862 0.25363 0.0
C802 C 0.16576 0.63679 0.23417 0.0
C803 C 0.16367 0.62202 0.21872 0.0
C804 C 0.16305 0.60323 0.22898 0.0
C805 C 0.16475 0.60755 0.25023 0.0
N806 N 0.17353 0.61737 0.29485 0.0
C807 C 0.17108 0.59738 0.28799 0.0
C808 C 0.17352 0.58307 0.30427 0.0
C809 C 0.17839 0.59419 0.32163 0.0
C810 C 0.17827 0.61463 0.31524 0.0
N811 N 0.17229 0.66118 0.30726 0.0
C812 C 0.17621 0.65293 0.3263 0.0
C813 C 0.1767 0.66737 0.34214 0.0
C814 C 0.17337 0.68619 0.33259 0.0
C815 C 0.17107 0.68214 0.31131 0.0
N816 N 0.14159 0.64419 0.28441 0.0
C817 C 0.10102 0.64244 0.28847 0.0
C818 C 0.11343 0.63688 0.30516 0.0
C819 C 0.13354 0.63778 0.3028 0.0
C820 C 0.10952 0.64916 0.2699 0.0
C821 C 0.12954 0.64996 0.26824 0.0
N822 N 0.19815 0.64673 0.27498 0.0
C823 C 0.22416 0.67113 0.27272 0.0
C824 C 0.23035 0.66245 0.25367 0.0
C825 C 0.22214 0.64338 0.24775 0.0
C826 C 0.20652 0.63552 0.25895 0.0
C827 C 0.20835 0.663 0.28314 0.0
H828 H 0.20063 0.62102 0.25361 0.0
H829 H 0.20395 0.67108 0.29705 0.0
H830 H 0.14244 0.63314 0.3159 0.0
H831 H 0.1351 0.65523 0.25362 0.0
C832 C 0.16661 0.65843 0.23115 0.0
C833 C 0.17218 0.69856 0.29534 0.0
C834 C 0.16679 0.59102 0.26631 0.0
C835 C 0.1794 0.63158 0.32876 0.0
H836 H 0.17042 0.72408 0.25856 0.0
H837 H 0.1679 0.70244 0.22308 0.0
H838 H 0.1628 0.62459 0.20198 0.0
H839 H 0.16202 0.58802 0.2216 0.0
H840 H 0.17161 0.56631 0.30391 0.0
H841 H 0.18072 0.58819 0.33733 0.0
H842 H 0.17969 0.66461 0.35859 0.0
H843 H 0.17379 0.7012 0.34042 0.0
H844 H 0.10771 0.63149 0.31987 0.0
H845 H 0.10076 0.65406 0.25661 0.0
H846 H 0.23058 0.68501 0.27908 0.0
H847 H 0.22728 0.63481 0.23418 0.0
C848 C 0.76844 0.83613 0.65641 0.0
C849 C 0.75572 0.81982 0.65759 0.0
C850 C 0.73781 0.8283 0.65377 0.0
C851 C 0.74055 0.84928 0.6506 0.0
N852 N 0.75916 0.85461 0.65152 0.0
Co853 Co 0.76852 0.88413 0.65241 0.0
N854 N 0.74255 0.89679 0.64564 0.0
C855 C 0.72615 0.88617 0.6438 0.0
C856 C 0.71057 0.8987 0.63854 0.0
C857 C 0.71749 0.91857 0.63706 0.0
C858 C 0.73695 0.9171 0.64169 0.0
N859 N 0.77789 0.91346 0.65505 0.0
C860 C 0.76874 0.9323 0.65217 0.0
C861 C 0.78041 0.94875 0.65795 0.0
C862 C 0.79761 0.94007 0.664 0.0
C863 C 0.79544 0.91892 0.66193 0.0
N864 N 0.79493 0.87183 0.65746 0.0
C865 C 0.81108 0.88256 0.66087 0.0
C866 C 0.82731 0.87013 0.66271 0.0
C867 C 0.82108 0.85012 0.66087 0.0
C868 C 0.80129 0.85155 0.65829 0.0
N869 N 0.77372 0.88372 0.62168 0.0
C870 C 0.77872 0.88335 0.57737 0.0
C871 C 0.79126 0.89423 0.59075 0.0
C872 C 0.78856 0.89416 0.61273 0.0
C873 C 0.76401 0.87238 0.58698 0.0
C874 C 0.76167 0.87296 0.60872 0.0
N875 N 0.76226 0.88362 0.68299 0.0
C876 C 0.76305 0.8605 0.71305 0.0
C877 C 0.74387 0.86557 0.71772 0.0
C878 C 0.73537 0.88254 0.70683 0.0
C879 C 0.74502 0.8917 0.68999 0.0
C880 C 0.77208 0.8701 0.69611 0.0
H881 H 0.73774 0.90443 0.68199 0.0
H882 H 0.78667 0.86558 0.69319 0.0
H883 H 0.79843 0.90275 0.62231 0.0
H884 H 0.74978 0.86467 0.61475 0.0
C885 C 0.72609 0.86448 0.64696 0.0
C886 C 0.78897 0.83366 0.66159 0.0
C887 C 0.74927 0.93549 0.64371 0.0
C888 C 0.81024 0.90408 0.66383 0.0
H889 H 0.759 0.80362 0.66146 0.0
H890 H 0.72432 0.82023 0.65392 0.0
H891 H 0.6959 0.89399 0.63614 0.0
H892 H 0.70909 0.93259 0.63344 0.0
H893 H 0.77702 0.96538 0.65765 0.0
H894 H 0.81037 0.94825 0.66875 0.0
H895 H 0.84181 0.87498 0.666 0.0
H896 H 0.82986 0.83602 0.66284 0.0
H897 H 0.80289 0.90309 0.58436 0.0
H898 H 0.75417 0.86314 0.57782 0.0
H899 H 0.77092 0.84869 0.72202 0.0
H900 H 0.72093 0.888 0.71038 0.0
C901 C 0.66841 0.26029 0.19033 0.0
C902 C 0.66158 0.27447 0.20512 0.0
C903 C 0.65003 0.28875 0.1945 0.0
C904 C 0.65048 0.28258 0.17383 0.0
N905 N 0.66151 0.26531 0.17088 0.0
Co906 Co 0.66759 0.2522 0.14337 0.0
N907 N 0.65855 0.27727 0.12702 0.0
C908 C 0.64758 0.29308 0.13487 0.0
C909 C 0.64339 0.30839 0.12035 0.0
C910 C 0.65184 0.30161 0.10212 0.0
C911 C 0.66058 0.28227 0.10635 0.0
N912 N 0.67413 0.23873 0.11598 0.0
C913 C 0.67447 0.24663 0.09614 0.0
C914 C 0.67759 0.23062 0.0816 0.0
C915 C 0.67916 0.21231 0.09255 0.0
C916 C 0.67679 0.21792 0.11308 0.0
N917 N 0.67583 0.22678 0.15935 0.0
C918 C 0.67758 0.20725 0.1516 0.0
C919 C 0.68323 0.19271 0.16638 0.0
C920 C 0.68522 0.20384 0.18461 0.0
C921 C 0.68073 0.2246 0.17981 0.0
N922 N 0.6412 0.2414 0.14149 0.0
C923 C 0.60141 0.23369 0.14123 0.0
C924 C 0.61082 0.23996 0.123 0.0
C925 C 0.63062 0.24349 0.12339 0.0
C926 C 0.61267 0.23012 0.15927 0.0
C927 C 0.63243 0.23409 0.15909 0.0
N928 N 0.69364 0.26392 0.14639 0.0
C929 C 0.72591 0.25975 0.16055 0.0
C930 C 0.72665 0.28132 0.16496 0.0
C931 C 0.71124 0.29403 0.15822 0.0
C932 C 0.69503 0.28515 0.14921 0.0
C933 C 0.70949 0.25146 0.15073 0.0
H934 H 0.68314 0.29568 0.14623 0.0
H935 H 0.70923 0.23479 0.14793 0.0
H936 H 0.63712 0.24875 0.10917 0.0
H937 H 0.64042 0.23209 0.17352 0.0
C938 C 0.64405 0.29444 0.15652 0.0
C939 C 0.68082 0.24175 0.19505 0.0
C940 C 0.66912 0.26836 0.09003 0.0
C941 C 0.67757 0.20408 0.13001 0.0
H942 H 0.66476 0.27462 0.22175 0.0
H943 H 0.64301 0.30261 0.20094 0.0
H944 H 0.6356 0.32304 0.12284 0.0
H945 H 0.65139 0.30992 0.08736 0.0
H946 H 0.6777 0.23167 0.0647 0.0
H947 H 0.68138 0.1967 0.08622 0.0
H948 H 0.68649 0.17622 0.16399 0.0
H949 H 0.68967 0.19746 0.19964 0.0
H950 H 0.60288 0.24249 0.10853 0.0
H951 H 0.60613 0.22522 0.17374 0.0
H952 H 0.73771 0.24933 0.16506 0.0
H953 H 0.71109 0.31075 0.16119 0.0
C954 C 0.25432 0.19114 0.65916 0.0
C955 C 0.26694 0.20749 0.65734 0.0
C956 C 0.28477 0.1986 0.65423 0.0
C957 C 0.28207 0.17738 0.6543 0.0
N958 N 0.26356 0.17219 0.65672 0.0
Co959 Co 0.25442 0.14298 0.661 0.0
N960 N 0.27966 0.1298 0.65273 0.0
C961 C 0.29615 0.14003 0.65016 0.0
C962 C 0.31115 0.12715 0.64403 0.0
C963 C 0.30373 0.10747 0.64281 0.0
C964 C 0.28459 0.1094 0.64846 0.0
N965 N 0.24542 0.11397 0.66629 0.0
C966 C 0.25369 0.09495 0.66207 0.0
C967 C 0.24284 0.07882 0.67003 0.0
C968 C 0.2271 0.08795 0.67914 0.0
C969 C 0.22927 0.10904 0.67648 0.0
N970 N 0.22879 0.15583 0.66852 0.0
C971 C 0.21388 0.14561 0.67663 0.0
C972 C 0.19795 0.15811 0.68003 0.0
C973 C 0.20316 0.1777 0.67418 0.0
C974 C 0.2221 0.17604 0.66762 0.0
N975 N 0.2462 0.14133 0.63126 0.0
C976 C 0.23745 0.13702 0.58807 0.0
C977 C 0.22473 0.13017 0.60352 0.0
C978 C 0.22941 0.13237 0.625 0.0
C979 C 0.25423 0.14661 0.59487 0.0
C980 C 0.25824 0.14866 0.61623 0.0
N981 N 0.26365 0.14513 0.69042 0.0
C982 C 0.27069 0.1698 0.71799 0.0
C983 C 0.28802 0.15918 0.72262 0.0
C984 C 0.29133 0.13965 0.71297 0.0
C985 C 0.27867 0.13264 0.69735 0.0
C986 C 0.25865 0.16236 0.70215 0.0
H987 H 0.282 0.11791 0.68979 0.0
H988 H 0.24619 0.17171 0.69841 0.0
H989 H 0.2196 0.12654 0.63647 0.0
H990 H 0.27143 0.15592 0.62041 0.0
C991 C 0.29642 0.16188 0.65169 0.0
C992 C 0.23412 0.19441 0.66518 0.0
C993 C 0.27197 0.09137 0.6512 0.0
C994 C 0.21527 0.12427 0.68076 0.0
H995 H 0.26366 0.22409 0.65883 0.0
H996 H 0.29815 0.20666 0.65249 0.0
H997 H 0.32566 0.13157 0.64047 0.0
H998 H 0.31161 0.09332 0.63853 0.0
H999 H 0.24591 0.06213 0.66939 0.0
H1000 H 0.21521 0.08011 0.68629 0.0
H1001 H 0.18434 0.15362 0.6865 0.0
H1002 H 0.19437 0.19182 0.6758 0.0
H1003 H 0.21152 0.12269 0.59907 0.0
H1004 H 0.26435 0.1526 0.58369 0.0
H1005 H 0.26707 0.18466 0.72534 0.0
H1006 H 0.30405 0.13028 0.71676 0.0
C1007 C 0.37484 0.76733 0.18515 0.0
C1008 C 0.37972 0.75305 0.20074 0.0
C1009 C 0.39122 0.73784 0.19151 0.0
C1010 C 0.39267 0.74359 0.17081 0.0
N1011 N 0.38291 0.76146 0.16652 0.0
Co1012 Co 0.37896 0.77387 0.13817 0.0
N1013 N 0.38864 0.74828 0.12324 0.0
C1014 C 0.39844 0.73228 0.13244 0.0
C1015 C 0.40294 0.7164 0.11866 0.0
C1016 C 0.39573 0.7229 0.09958 0.0
C1017 C 0.38736 0.74262 0.10262 0.0
N1018 N 0.37411 0.7866 0.11005 0.0
C1019 C 0.37409 0.7779 0.09055 0.0
C1020 C 0.37218 0.79337 0.07525 0.0
C1021 C 0.37099 0.81218 0.08542 0.0
C1022 C 0.37239 0.80735 0.10627 0.0
N1023 N 0.37071 0.80011 0.15273 0.0
C1024 C 0.37026 0.81941 0.1443 0.0
C1025 C 0.36513 0.83483 0.15835 0.0
C1026 C 0.36211 0.82458 0.17682 0.0
C1027 C 0.36553 0.80343 0.17288 0.0
N1028 N 0.40574 0.78395 0.1381 0.0
C1029 C 0.44573 0.79132 0.13949 0.0
C1030 C 0.4364 0.78623 0.12065 0.0
C1031 C 0.4166 0.78257 0.1203 0.0
C1032 C 0.4343 0.79358 0.15745 0.0
C1033 C 0.41443 0.79008 0.15638 0.0
N1034 N 0.3524 0.76251 0.13925 0.0
C1035 C 0.32138 0.76479 0.15636 0.0
C1036 C 0.32081 0.74282 0.15823 0.0
C1037 C 0.3347 0.73128 0.14711 0.0
C1038 C 0.35017 0.74121 0.13798 0.0
C1039 C 0.33706 0.77428 0.14646 0.0
H1040 H 0.36072 0.73085 0.13129 0.0
H1041 H 0.33719 0.79115 0.14599 0.0
H1042 H 0.41035 0.77776 0.10565 0.0
H1043 H 0.40622 0.79169 0.17059 0.0
C1044 C 0.39993 0.73112 0.15441 0.0
C1045 C 0.36335 0.78688 0.18841 0.0
C1046 C 0.37871 0.75574 0.08564 0.0
C1047 C 0.37141 0.82184 0.12267 0.0
H1048 H 0.37534 0.75345 0.21696 0.0
H1049 H 0.39699 0.72373 0.19883 0.0
H1050 H 0.40978 0.70141 0.12221 0.0
H1051 H 0.39633 0.71389 0.08523 0.0
H1052 H 0.37263 0.79152 0.05841 0.0
H1053 H 0.36961 0.82758 0.0784 0.0
H1054 H 0.36294 0.8514 0.1553 0.0
H1055 H 0.35761 0.83175 0.19142 0.0
H1056 H 0.44448 0.78417 0.10633 0.0
H1057 H 0.44067 0.79786 0.17233 0.0
H1058 H 0.3104 0.77469 0.16342 0.0
H1059 H 0.33428 0.71436 0.14621 0.0
C1060 C 0.75959 0.17423 0.33321 0.0
C1061 C 0.77429 0.17362 0.31871 0.0
C1062 C 0.791 0.17059 0.3298 0.0
C1063 C 0.7856 0.16952 0.3504 0.0
N1064 N 0.76644 0.17116 0.35312 0.0
Co1065 Co 0.75337 0.17431 0.38091 0.0
N1066 N 0.77751 0.16766 0.39736 0.0
C1067 C 0.79525 0.16562 0.3892 0.0
C1068 C 0.80927 0.16161 0.40396 0.0
C1069 C 0.79991 0.1612 0.42274 0.0
C1070 C 0.78058 0.16495 0.41843 0.0
N1071 N 0.74034 0.17853 0.40863 0.0
C1072 C 0.74653 0.17476 0.42863 0.0
C1073 C 0.73185 0.17836 0.44293 0.0
C1074 C 0.71625 0.18537 0.43182 0.0
C1075 C 0.72201 0.18528 0.41137 0.0
N1076 N 0.72882 0.17973 0.3648 0.0
C1077 C 0.71168 0.18532 0.373 0.0
C1078 C 0.69723 0.18758 0.35845 0.0
C1079 C 0.70575 0.18367 0.33964 0.0
C1080 C 0.72502 0.17933 0.34385 0.0
N1081 N 0.74767 0.14395 0.38129 0.0
C1082 C 0.74092 0.10026 0.38111 0.0
C1083 C 0.72659 0.11485 0.38725 0.0
C1084 C 0.73026 0.13651 0.38732 0.0
C1085 C 0.75857 0.10819 0.37494 0.0
C1086 C 0.76159 0.12977 0.37513 0.0
N1087 N 0.7601 0.20459 0.37959 0.0
C1088 C 0.7641 0.23239 0.3544 0.0
C1089 C 0.78235 0.23655 0.36239 0.0
C1090 C 0.78754 0.22715 0.38155 0.0
C1091 C 0.77587 0.21172 0.39022 0.0
C1092 C 0.75309 0.21676 0.36343 0.0
H1093 H 0.78061 0.2046 0.40469 0.0
H1094 H 0.73954 0.21392 0.35613 0.0
H1095 H 0.71894 0.14707 0.39228 0.0
H1096 H 0.77538 0.13481 0.37019 0.0
C1097 C 0.79804 0.16724 0.36759 0.0
C1098 C 0.73955 0.17929 0.32744 0.0
C1099 C 0.76609 0.1681 0.43499 0.0
C1100 C 0.70967 0.18824 0.3944 0.0
H1101 H 0.77306 0.17581 0.30192 0.0
H1102 H 0.80542 0.16979 0.32361 0.0
H1103 H 0.82453 0.15943 0.40141 0.0
H1104 H 0.80666 0.15905 0.43794 0.0
H1105 H 0.73213 0.17583 0.45969 0.0
H1106 H 0.70208 0.18907 0.43783 0.0
H1107 H 0.68237 0.19208 0.36115 0.0
H1108 H 0.69882 0.18508 0.32444 0.0
H1109 H 0.71271 0.10961 0.3923 0.0
H1110 H 0.77005 0.09779 0.36964 0.0
H1111 H 0.75868 0.24056 0.34064 0.0
H1112 H 0.80103 0.23066 0.38916 0.0
C1113 C 0.35432 0.27554 0.86466 0.0
C1114 C 0.34022 0.2606 0.86383 0.0
C1115 C 0.34936 0.24151 0.866 0.0
C1116 C 0.36848 0.2458 0.868 0.0
N1117 N 0.37209 0.26648 0.86781 0.0
Co1118 Co 0.39835 0.27866 0.86635 0.0
N1119 N 0.41183 0.25097 0.87187 0.0
C1120 C 0.40334 0.23223 0.87238 0.0
C1121 C 0.41587 0.21589 0.8768 0.0
C1122 C 0.43348 0.22476 0.87903 0.0
C1123 C 0.43078 0.2461 0.87562 0.0
N1124 N 0.42448 0.29082 0.86375 0.0
C1125 C 0.44236 0.28219 0.86677 0.0
C1126 C 0.45649 0.29616 0.86136 0.0
C1127 C 0.4473 0.31425 0.85525 0.0
C1128 C 0.42816 0.31031 0.85698 0.0
N1129 N 0.38515 0.3067 0.86196 0.0
C1130 C 0.39379 0.32481 0.85753 0.0
C1131 C 0.38138 0.34171 0.85578 0.0
C1132 C 0.36359 0.33382 0.85877 0.0
C1133 C 0.36619 0.31243 0.86197 0.0
N1134 N 0.39836 0.28381 0.89705 0.0
C1135 C 0.3972 0.28937 0.9412 0.0
C1136 C 0.4038 0.30523 0.9279 0.0
C1137 C 0.40433 0.30211 0.90596 0.0
C1138 C 0.39163 0.27065 0.93168 0.0
C1139 C 0.3921 0.26834 0.90995 0.0
N1140 N 0.39761 0.2724 0.83574 0.0
C1141 C 0.37461 0.26896 0.80753 0.0
C1142 C 0.38203 0.24898 0.80267 0.0
C1143 C 0.39957 0.24288 0.81207 0.0
C1144 C 0.4075 0.25528 0.828 0.0
C1145 C 0.38291 0.28059 0.82369 0.0
H1146 H 0.42075 0.24985 0.83514 0.0
H1147 H 0.37624 0.29537 0.82727 0.0
H1148 H 0.40949 0.31457 0.89631 0.0
H1149 H 0.38736 0.25375 0.90376 0.0
C1150 C 0.38345 0.23088 0.86987 0.0
C1151 C 0.3503 0.29789 0.8604 0.0
C1152 C 0.44675 0.26084 0.87432 0.0
C1153 C 0.41348 0.32525 0.85458 0.0
H1154 H 0.32499 0.26322 0.86117 0.0
H1155 H 0.34287 0.22627 0.86558 0.0
H1156 H 0.41258 0.19949 0.8784 0.0
H1157 H 0.44683 0.21639 0.88239 0.0
H1158 H 0.4719 0.29367 0.86173 0.0
H1159 H 0.45383 0.32872 0.85056 0.0
H1160 H 0.3848 0.35773 0.85207 0.0
H1161 H 0.35012 0.34254 0.85733 0.0
H1162 H 0.40828 0.32006 0.93428 0.0
H1163 H 0.38703 0.25751 0.94093 0.0
H1164 H 0.36159 0.27499 0.80011 0.0
H1165 H 0.40665 0.22819 0.80786 0.0
C1166 C 0.26023 0.82688 0.36404 0.0
C1167 C 0.27444 0.81137 0.36286 0.0
C1168 C 0.29157 0.82101 0.36589 0.0
C1169 C 0.28691 0.84185 0.36862 0.0
N1170 N 0.26784 0.84603 0.36813 0.0
Co1171 Co 0.25571 0.87491 0.36692 0.0
N1172 N 0.28063 0.88935 0.37221 0.0
C1173 C 0.29801 0.87972 0.37372 0.0
C1174 C 0.31269 0.89333 0.37698 0.0
C1175 C 0.30415 0.91289 0.37738 0.0
C1176 C 0.28465 0.91017 0.37432 0.0
N1177 N 0.24345 0.90363 0.3642 0.0
C1178 C 0.25077 0.9231 0.36652 0.0
C1179 C 0.2366 0.93864 0.3641 0.0
C1180 C 0.21999 0.9288 0.35953 0.0
C1181 C 0.22478 0.90789 0.35968 0.0
N1182 N 0.2304 0.86088 0.36319 0.0
C1183 C 0.2131 0.87048 0.36078 0.0
C1184 C 0.19806 0.85706 0.36008 0.0
C1185 C 0.2063 0.83754 0.36169 0.0
C1186 C 0.22599 0.84025 0.36302 0.0
N1187 N 0.25154 0.87497 0.39798 0.0
C1188 C 0.2473 0.87444 0.44258 0.0
C1189 C 0.23358 0.88443 0.42937 0.0
C1190 C 0.23589 0.88441 0.40734 0.0
C1191 C 0.26299 0.8646 0.43261 0.0
C1192 C 0.26493 0.86529 0.41077 0.0
N1193 N 0.26103 0.87382 0.33603 0.0
C1194 C 0.2624 0.84961 0.3067 0.0
C1195 C 0.28053 0.85659 0.30083 0.0
C1196 C 0.28703 0.8747 0.31094 0.0
C1197 C 0.27683 0.88336 0.328 0.0
C1198 C 0.25277 0.85875 0.32383 0.0
H1199 H 0.28264 0.89702 0.33528 0.0
H1200 H 0.23912 0.85261 0.32761 0.0
H1201 H 0.22495 0.8922 0.3981 0.0
H1202 H 0.27753 0.85784 0.40448 0.0
C1203 C 0.29995 0.85799 0.37126 0.0
C1204 C 0.23983 0.82302 0.35967 0.0
C1205 C 0.27091 0.92785 0.37096 0.0
C1206 C 0.21156 0.89203 0.3585 0.0
H1207 H 0.27266 0.79491 0.35949 0.0
H1208 H 0.30578 0.81379 0.36549 0.0
H1209 H 0.32787 0.88954 0.37838 0.0
H1210 H 0.31154 0.92754 0.3789 0.0
H1211 H 0.23795 0.9554 0.36584 0.0
H1212 H 0.2059 0.93601 0.35725 0.0
H1213 H 0.18297 0.86096 0.35796 0.0
H1214 H 0.19881 0.8229 0.36065 0.0
H1215 H 0.22119 0.89253 0.4359 0.0
H1216 H 0.27389 0.85607 0.44152 0.0
H1217 H 0.25584 0.83671 0.29851 0.0
H1218 H 0.30046 0.88158 0.30657 0.0
C1219 C 0.66381 0.7661 0.83205 0.0
C1220 C 0.6652 0.75058 0.8169 0.0
C1221 C 0.66189 0.73202 0.8268 0.0
C1222 C 0.65875 0.73722 0.8474 0.0
N1223 N 0.65928 0.758 0.85117 0.0
Co1224 Co 0.65967 0.77137 0.8797 0.0
N1225 N 0.65524 0.74422 0.89468 0.0
C1226 C 0.65417 0.72524 0.88548 0.0
C1227 C 0.65156 0.70925 0.89944 0.0
C1228 C 0.65109 0.71858 0.91877 0.0
C1229 C 0.6534 0.73986 0.91556 0.0
N1230 N 0.66128 0.78491 0.90808 0.0
C1231 C 0.65894 0.777 0.92767 0.0
C1232 C 0.66 0.79262 0.94284 0.0
C1233 C 0.6638 0.81073 0.93266 0.0
C1234 C 0.66452 0.80537 0.91192 0.0
N1235 N 0.66268 0.79892 0.86501 0.0
C1236 C 0.66421 0.81788 0.87411 0.0
C1237 C 0.66531 0.83412 0.86019 0.0
C1238 C 0.66498 0.82491 0.84091 0.0
C1239 C 0.66389 0.80349 0.84428 0.0
N1240 N 0.63104 0.77612 0.87892 0.0
C1241 C 0.59004 0.7811 0.87816 0.0
C1242 C 0.60196 0.79685 0.88605 0.0
C1243 C 0.62217 0.79407 0.88632 0.0
C1244 C 0.59938 0.76286 0.8707 0.0
C1245 C 0.61951 0.76079 0.87109 0.0
N1246 N 0.68826 0.76546 0.87964 0.0
C1247 C 0.7172 0.76787 0.8588 0.0
C1248 C 0.72325 0.74748 0.86429 0.0
C1249 C 0.71284 0.7377 0.8801 0.0
C1250 C 0.69584 0.74711 0.88786 0.0
C1251 C 0.70009 0.77668 0.86699 0.0
H1252 H 0.68869 0.73871 0.89994 0.0
H1253 H 0.69641 0.79237 0.86236 0.0
H1254 H 0.63039 0.80661 0.8926 0.0
H1255 H 0.62552 0.74644 0.86511 0.0
C1256 C 0.65645 0.72302 0.86382 0.0
C1257 C 0.66814 0.78813 0.82791 0.0
C1258 C 0.65583 0.75495 0.93287 0.0
C1259 C 0.66568 0.81972 0.89569 0.0
H1260 H 0.66888 0.75243 0.80057 0.0
H1261 H 0.66249 0.7165 0.81996 0.0
H1262 H 0.65061 0.69269 0.89603 0.0
H1263 H 0.64989 0.71052 0.93358 0.0
H1264 H 0.6579 0.79126 0.95955 0.0
H1265 H 0.66507 0.82618 0.9395 0.0
H1266 H 0.667 0.85058 0.86366 0.0
H1267 H 0.66671 0.83286 0.82608 0.0
H1268 H 0.59581 0.81146 0.89183 0.0
H1269 H 0.59124 0.74985 0.86482 0.0
H1270 H 0.72548 0.77692 0.84792 0.0
H1271 H 0.7172 0.72235 0.88584 0.0
C1272 C 0.18335 0.55521 0.26603 0.0
C1273 C 0.16724 0.56788 0.26076 0.0
C1274 C 0.18282 0.53313 0.26519 0.0
C1275 C 0.16619 0.52314 0.25752 0.0
C1276 C 0.15054 0.53594 0.25022 0.0
C1277 C 0.15107 0.55804 0.25236 0.0
C1278 C 0.19967 0.52049 0.27385 0.0
C1279 C 0.13292 0.52633 0.24075 0.0
C1280 C 0.17371 0.46405 0.24657 0.0
C1281 C 0.16553 0.45492 0.26432 0.0
C1282 C 0.17302 0.48605 0.24345 0.0
C1283 C 0.16473 0.49951 0.25888 0.0
C1284 C 0.15598 0.49025 0.2765 0.0
C1285 C 0.15592 0.46823 0.27859 0.0
C1286 C 0.1815 0.49487 0.22376 0.0
C1287 C 0.14741 0.50362 0.29377 0.0
H1288 H 0.19605 0.56263 0.27219 0.0
H1289 H 0.1386 0.56759 0.24802 0.0
H1290 H 0.19488 0.51069 0.28709 0.0
H1291 H 0.20549 0.50973 0.26169 0.0
H1292 H 0.21143 0.53055 0.27951 0.0
H1293 H 0.12433 0.53795 0.23146 0.0
H1294 H 0.13692 0.5129 0.23047 0.0
H1295 H 0.12371 0.52037 0.25339 0.0
H1296 H 0.18091 0.45398 0.23525 0.0
H1297 H 0.14903 0.46139 0.29204 0.0
H1298 H 0.19564 0.50165 0.22741 0.0
H1299 H 0.17209 0.50761 0.21729 0.0
H1300 H 0.18362 0.48263 0.21154 0.0
H1301 H 0.15836 0.5144 0.3 0.0
H1302 H 0.14202 0.49409 0.30693 0.0
H1303 H 0.13534 0.51341 0.28751 0.0
C1304 C 0.96445 0.634 0.76617 0.0
C1305 C 0.95326 0.64824 0.75416 0.0
C1306 C 0.98459 0.63207 0.76381 0.0
C1307 C 0.99407 0.64429 0.74864 0.0
C1308 C 0.9827 0.65792 0.73571 0.0
C1309 C 0.9626 0.65995 0.73881 0.0
C1310 C 0.99585 0.61767 0.77834 0.0
C1311 C 0.99186 0.67092 0.71898 0.0
C1312 C 0.04735 0.65705 0.75757 0.0
C1313 C 0.0571 0.64176 0.7455 0.0
C1314 C 0.02706 0.65797 0.75874 0.0
C1315 C 1.01586 0.64361 0.74715 0.0
C1316 C 0.02562 0.62837 0.73461 0.0
C1317 C 0.04598 0.62745 0.73417 0.0
C1318 C 1.01759 0.67416 0.77278 0.0
C1319 C 1.01452 0.61305 0.72153 0.0
H1320 H 0.95746 0.62504 0.77822 0.0
H1321 H 0.95427 0.67128 0.72969 0.0
H1322 H 1.00486 0.60646 0.76918 0.0
H1323 H 1.00567 0.627 0.78821 0.0
H1324 H 0.9864 0.60866 0.78878 0.0
H1325 H 0.98101 0.67886 0.70869 0.0
H1326 H 1.00081 0.68304 0.72642 0.0
H1327 H 1.00147 0.66094 0.70915 0.0
H1328 H 0.05567 0.66805 0.76661 0.0
H1329 H 0.05323 0.61565 0.72467 0.0
H1330 H 1.00863 0.6663 0.78458 0.0
H1331 H 1.00791 0.68459 0.76341 0.0
H1332 H 0.0282 0.68394 0.78111 0.0
H1333 H 1.00593 0.60298 0.73184 0.0
H1334 H 0.02406 0.60284 0.71183 0.0
H1335 H 1.0043 0.62166 0.71104 0.0
C1336 C 0.86805 0.46962 0.2466 0.0
C1337 C 0.88471 0.4569 0.24501 0.0
C1338 C 0.86876 0.49164 0.24508 0.0
C1339 C 0.88632 0.50132 0.24017 0.0
C1340 C 0.90271 0.48826 0.23615 0.0
C1341 C 0.9019 0.46643 0.23943 0.0
C1342 C 0.85088 0.50447 0.25006 0.0
C1343 C 0.92151 0.49708 0.2292 0.0
C1344 C 0.87931 0.56056 0.23027 0.0
C1345 C 0.88788 0.56915 0.24819 0.0
C1346 C 0.87975 0.53867 0.22663 0.0
C1347 C 0.88801 0.52483 0.24188 0.0
C1348 C 0.89715 0.53363 0.2597 0.0
C1349 C 0.89776 0.55554 0.26202 0.0
C1350 C 0.871 0.53078 0.20651 0.0
C1351 C 0.90573 0.52011 0.27698 0.0
H1352 H 0.85472 0.4624 0.25091 0.0
H1353 H 0.915 0.457 0.23845 0.0
H1354 H 0.85426 0.51788 0.26043 0.0
H1355 H 0.84457 0.51082 0.23532 0.0
H1356 H 0.83983 0.49497 0.25781 0.0
H1357 H 0.9278 0.48712 0.21658 0.0
H1358 H 0.92 0.51338 0.22331 0.0
H1359 H 0.93187 0.49664 0.24249 0.0
H1360 H 0.87197 0.57092 0.21921 0.0
H1361 H 0.90505 0.56205 0.27553 0.0
H1362 H 0.85516 0.53277 0.20721 0.0
H1363 H 0.87472 0.5141 0.20326 0.0
H1364 H 0.87587 0.54038 0.19313 0.0
H1365 H 0.89706 0.50604 0.2798 0.0
H1366 H 0.9069 0.52892 0.29196 0.0
H1367 H 0.9204 0.51484 0.2725 0.0
C1368 C 0.0687 0.38399 0.76174 0.0
C1369 C 0.08019 0.37837 0.74446 0.0
C1370 C 0.04845 0.38392 0.76061 0.0
C1371 C 0.03909 0.37803 0.74175 0.0
C1372 C 0.05056 0.37254 0.72416 0.0
C1373 C 0.07085 0.37285 0.72569 0.0
C1374 C 0.03702 0.39013 0.77974 0.0
C1375 C 0.04138 0.36604 0.70375 0.0
C1376 C 0.98711 0.35955 0.74632 0.0
C1377 C 0.97619 0.37757 0.74075 0.0
C1378 C 1.00743 0.35933 0.74626 0.0
C1379 C 1.01738 0.37759 0.74057 0.0
C1380 C 1.00649 0.3957 0.73454 0.0
C1381 C 0.9862 0.39545 0.73464 0.0
C1382 C 1.01826 0.33962 0.75277 0.0
C1383 C 1.0163 0.41555 0.72832 0.0
H1384 H 0.07557 0.38864 0.77625 0.0
H1385 H 0.07941 0.36827 0.71226 0.0
H1386 H 0.02724 0.4036 0.77599 0.0
H1387 H 0.02795 0.37697 0.78462 0.0
H1388 H 0.04634 0.39452 0.79317 0.0
H1389 H 0.05215 0.36254 0.69141 0.0
H1390 H 0.03272 0.35191 0.70624 0.0
H1391 H 0.03143 0.37865 0.69802 0.0
H1392 H 0.9798 0.34567 0.75137 0.0
H1393 H 0.97817 0.40942 0.72991 0.0
H1394 H 0.02658 0.34261 0.76733 0.0
H1395 H 0.0287 0.3349 0.74049 0.0
H1396 H 1.00857 0.32638 0.75563 0.0
H1397 H 0.02494 0.42139 0.74169 0.0
H1398 H 1.00591 0.42812 0.72342 0.0
H1399 H 0.02633 0.41233 0.71523 0.0
C1400 C 0.14511 0.45966 0.78823 0.0
C1401 C 0.16219 0.45123 0.77982 0.0
C1402 C 0.14245 0.48153 0.79134 0.0
C1403 C 0.15682 0.49563 0.78491 0.0
C1404 C 0.17443 0.48698 0.77735 0.0
C1405 C 0.17713 0.46504 0.77574 0.0
C1406 C 0.12391 0.48923 0.80104 0.0
C1407 C 0.19022 0.50085 0.76984 0.0
C1408 C 0.13959 0.55 0.76578 0.0
C1409 C 0.14983 0.56371 0.77873 0.0
C1410 C 0.14165 0.52803 0.7677 0.0
C1411 C 0.15302 0.51915 0.78416 0.0
C1412 C 0.16177 0.53304 0.79869 0.0
C1413 C 0.16047 0.55502 0.7955 0.0
C1414 C 0.13224 0.51444 0.75138 0.0
C1415 C 0.17292 0.52506 0.8175 0.0
H1416 H 0.13356 0.44921 0.79182 0.0
H1417 H 0.19058 0.45868 0.76977 0.0
H1418 H 0.12462 0.5056 0.80682 0.0
H1419 H 0.11215 0.4882 0.78931 0.0
H1420 H 0.12011 0.47896 0.81435 0.0
H1421 H 0.20129 0.49194 0.76081 0.0
H1422 H 0.1843 0.51366 0.75978 0.0
H1423 H 0.19739 0.50809 0.78352 0.0
H1424 H 0.13077 0.55653 0.75321 0.0
H1425 H 0.16813 0.56537 0.80593 0.0
H1426 H 0.11948 0.50709 0.75823 0.0
H1427 H 0.14223 0.50171 0.74611 0.0
H1428 H 0.12742 0.5236 0.73743 0.0
H1429 H 0.1701 0.50843 0.82113 0.0
H1430 H 0.1693 0.53472 0.83149 0.0
H1431 H 0.1885 0.52676 0.8147 0.0
C1432 C 0.98576 0.65941 0.28508 0.0
C1433 C 0.9755 0.64182 0.29149 0.0
C1434 C 1.00605 0.65951 0.28556 0.0
C1435 C 1.01666 0.64155 0.29251 0.0
C1436 C 1.00645 0.62384 0.29926 0.0
C1437 C 0.98615 0.6242 0.29871 0.0
C1438 C 1.01615 0.67878 0.27818 0.0
C1439 C 1.01701 0.60433 0.30681 0.0
C1440 C 0.06839 0.63449 0.27293 0.0
C1441 C 0.07944 0.64133 0.29008 0.0
C1442 C 0.04815 0.63424 0.27364 0.0
C1443 C 0.03838 0.64105 0.29194 0.0
C1444 C 0.04941 0.64768 0.30944 0.0
C1445 C 0.0697 0.64768 0.30834 0.0
C1446 C 0.03719 0.62683 0.25463 0.0
C1447 C 0.03975 0.65518 0.32925 0.0
H1448 H 0.97796 0.67304 0.2791 0.0
H1449 H 0.97861 0.61058 0.30404 0.0
H1450 H 0.02621 0.68422 0.29048 0.0
H1451 H 0.02479 0.67491 0.2641 0.0
H1452 H 1.00595 0.69184 0.27421 0.0
H1453 H 1.00709 0.59206 0.31207 0.0
H1454 H 0.02606 0.59778 0.29403 0.0
H1455 H 0.02676 0.60822 0.32001 0.0
H1456 H 0.07561 0.62918 0.25884 0.0
H1457 H 0.07792 0.65318 0.32164 0.0
H1458 H 0.02761 0.63965 0.24868 0.0
H1459 H 0.02794 0.61363 0.25897 0.0
H1460 H 0.04684 0.62159 0.24177 0.0
H1461 H 0.03054 0.6692 0.32582 0.0
H1462 H 0.05025 0.65925 0.34171 0.0
H1463 H 0.03026 0.6429 0.33532 0.0
C1464 C 0.88778 0.55274 0.80947 0.0
C1465 C 0.88878 0.56299 0.79 0.0
C1466 C 0.88783 0.53058 0.81085 0.0
C1467 C 0.88875 0.51818 0.79236 0.0
C1468 C 0.89019 0.52843 0.77276 0.0
C1469 C 0.89038 0.55048 0.77186 0.0
C1470 C 0.88656 0.52042 0.83211 0.0
C1471 C 0.8912 0.51606 0.75257 0.0
C1472 C 0.90374 0.46001 0.79046 0.0
C1473 C 0.88603 0.45026 0.78783 0.0
C1474 C 0.90479 0.48191 0.79334 0.0
C1475 C 0.88776 0.49458 0.79315 0.0
C1476 C 0.8698 0.48464 0.79143 0.0
C1477 C 0.86917 0.46268 0.78889 0.0
C1478 C 0.92425 0.49159 0.79539 0.0
C1479 C 0.85125 0.49732 0.79087 0.0
H1480 H 0.88646 0.56201 0.82364 0.0
H1481 H 0.89174 0.55795 0.75673 0.0
H1482 H 0.87292 0.51191 0.83327 0.0
H1483 H 0.89846 0.50871 0.83421 0.0
H1484 H 0.88719 0.53203 0.84507 0.0
H1485 H 0.89221 0.52631 0.73858 0.0
H1486 H 0.90385 0.50518 0.75288 0.0
H1487 H 0.87825 0.5064 0.75087 0.0
H1488 H 0.91685 0.45062 0.78921 0.0
H1489 H 0.85547 0.4553 0.78652 0.0
H1490 H 0.92432 0.50317 0.80837 0.0
H1491 H 0.92758 0.50008 0.78075 0.0
H1492 H 0.93581 0.47962 0.79828 0.0
H1493 H 0.85065 0.5085 0.80418 0.0
H1494 H 0.83847 0.48726 0.79147 0.0
H1495 H 0.85049 0.50666 0.77621 0.0
C1496 C 0.98594 0.39383 0.28149 0.0
C1497 C 0.97449 0.38453 0.2968 0.0
C1498 C 1.00616 0.39315 0.28286 0.0
C1499 C 1.01545 0.38298 0.30002 0.0
C1500 C 1.00402 0.3736 0.31559 0.0
C1501 C 0.98378 0.3744 0.31375 0.0
C1502 C 1.01761 0.40318 0.26574 0.0
C1503 C 1.0132 0.36271 0.33423 0.0
C1504 C 0.06788 0.36487 0.29277 0.0
C1505 C 0.07812 0.38116 0.30219 0.0
C1506 C 0.04762 0.36511 0.29224 0.0
C1507 C 0.03708 0.382 0.30145 0.0
C1508 C 0.04731 0.3983 0.31132 0.0
C1509 C 0.06759 0.39774 0.31149 0.0
C1510 C 0.03747 0.34747 0.28136 0.0
C1511 C 0.03679 0.41654 0.32151 0.0
H1512 H 0.97907 0.40137 0.2681 0.0
H1513 H 0.9752 0.36729 0.32579 0.0
H1514 H 0.02695 0.41533 0.27252 0.0
H1515 H 0.02713 0.39124 0.25821 0.0
H1516 H 1.00829 0.41057 0.25348 0.0
H1517 H 1.00241 0.35643 0.34514 0.0
H1518 H 0.02267 0.34958 0.32886 0.0
H1519 H 0.02235 0.37379 0.34295 0.0
H1520 H 0.07573 0.35213 0.28522 0.0
H1521 H 0.07523 0.41032 0.31902 0.0
H1522 H 0.02904 0.35373 0.26783 0.0
H1523 H 0.02721 0.34019 0.2922 0.0
H1524 H 0.04763 0.33512 0.27559 0.0
H1525 H 0.02824 0.42533 0.30954 0.0
H1526 H 0.04672 0.42751 0.32931 0.0
H1527 H 0.02659 0.41074 0.33331 0.0
C1528 C 0.21599 0.13935 0.55575 0.0
C1529 C 0.23385 0.13421 0.56498 0.0
C1530 C 0.21333 0.13874 0.53374 0.0
C1531 C 0.22884 0.13267 0.52055 0.0
C1532 C 0.24667 0.12672 0.52989 0.0
C1533 C 0.24894 0.12759 0.55183 0.0
C1534 C 0.1941 0.14527 0.52455 0.0
C1535 C 0.26358 0.1199 0.51666 0.0
C1536 C 0.22139 0.1159 0.46331 0.0
C1537 C 0.2269 0.13377 0.45217 0.0
C1538 C 0.22136 0.1155 0.48546 0.0
C1539 C 0.2269 0.13341 0.497 0.0
C1540 C 0.23189 0.15169 0.48589 0.0
C1541 C 0.23191 0.15163 0.46378 0.0
C1542 C 0.21591 0.09565 0.49652 0.0
C1543 C 0.23791 0.17118 0.49739 0.0
H1544 H 0.20426 0.14459 0.56568 0.0
H1545 H 0.26272 0.12325 0.55875 0.0
H1546 H 0.19561 0.15979 0.51522 0.0
H1547 H 0.18886 0.133 0.51374 0.0
H1548 H 0.18314 0.14823 0.53683 0.0
H1549 H 0.27617 0.11477 0.52631 0.0
H1550 H 0.25954 0.10681 0.50619 0.0
H1551 H 0.26791 0.13306 0.50652 0.0
H1552 H 0.21721 0.10207 0.45472 0.0
H1553 H 0.23654 0.16546 0.45561 0.0
H1554 H 0.2045 0.09908 0.50815 0.0
H1555 H 0.22852 0.08913 0.50525 0.0
H1556 H 0.21076 0.08353 0.48545 0.0
H1557 H 0.22697 0.1758 0.50918 0.0
H1558 H 0.23998 0.18459 0.48663 0.0
H1559 H 0.25158 0.16796 0.50596 0.0
C1560 C 0.37057 0.73106 0.95971 0.0
C1561 C 0.37782 0.74881 0.94981 0.0
C1562 C 0.37182 0.72855 0.98177 0.0
C1563 C 0.37952 0.7447 0.99448 0.0
C1564 C 0.38738 0.7623 0.9844 0.0
C1565 C 0.38714 0.76366 0.96234 0.0
C1566 C 0.36452 0.70872 0.99137 0.0
C1567 C 0.39527 0.78032 0.9969 0.0
C1568 C 0.3615 0.75243 0.05077 0.0
C1569 C 0.37822 0.74887 0.06286 0.0
C1570 C 0.36162 0.75078 0.02869 0.0
C1571 C 0.37857 0.74398 0.01819 0.0
C1572 C 0.39504 0.73859 0.03049 0.0
C1573 C 0.39488 0.74182 0.05244 0.0
C1574 C 0.34393 0.75774 0.01652 0.0
C1575 C 0.41321 0.7301 0.02056 0.0
H1576 H 0.36359 0.71931 0.95026 0.0
H1577 H 0.3933 0.77715 0.95486 0.0
H1578 H 0.37322 0.70398 1.00529 0.0
H1579 H 0.34947 0.71133 0.99644 0.0
H1580 H 0.36473 0.69562 0.97988 0.0
H1581 H 0.39854 0.79396 0.98686 0.0
H1582 H 0.38485 0.78551 1.00903 0.0
H1583 H 0.40866 0.77521 1.00506 0.0
H1584 H 0.34858 0.75803 0.05857 0.0
H1585 H 0.40809 0.73952 0.06129 0.0
H1586 H 0.3384 0.74451 1.0072 0.0
H1587 H 0.34762 0.77034 1.00537 0.0
H1588 H 0.33228 0.7637 0.02689 0.0
H1589 H 0.41014 0.72102 1.00612 0.0
H1590 H 0.42142 0.71985 0.03166 0.0
H1591 H 0.4225 0.74329 0.01637 0.0
C1592 C 0.78459 0.85524 0.45426 0.0
C1593 C 0.78073 0.8725 0.44114 0.0
C1594 C 0.78634 0.85764 0.47621 0.0
C1595 C 0.78459 0.87786 0.48541 0.0
C1596 C 0.78197 0.89548 0.47202 0.0
C1597 C 0.77983 0.89257 0.45017 0.0
C1598 C 0.78876 0.83831 0.48965 0.0
C1599 C 0.78041 0.91738 0.48087 0.0
C1600 C 0.76405 0.88185 0.54085 0.0
C1601 C 0.78052 0.88325 0.55369 0.0
C1602 C 0.76525 0.88008 0.51887 0.0
C1603 C 0.78337 0.88031 0.50895 0.0
C1604 C 0.80005 0.88254 0.52161 0.0
C1605 C 0.79847 0.88381 0.54372 0.0
C1606 C 0.747 0.87762 0.50625 0.0
C1607 C 0.81964 0.88332 0.51179 0.0
H1608 H 0.78505 0.83968 0.44742 0.0
H1609 H 0.77655 0.90596 0.44023 0.0
H1610 H 0.80074 0.84017 0.50099 0.0
H1611 H 0.77551 0.83609 0.49884 0.0
H1612 H 0.79159 0.82397 0.48016 0.0
H1613 H 0.7813 0.9295 0.46845 0.0
H1614 H 0.76649 0.91953 0.48899 0.0
H1615 H 0.79196 0.91994 0.49261 0.0
H1616 H 0.74999 0.8821 0.54797 0.0
H1617 H 0.81139 0.88478 0.55318 0.0
H1618 H 0.74786 0.86293 0.49694 0.0
H1619 H 0.7452 0.89078 0.49501 0.0
H1620 H 0.73406 0.87721 0.51628 0.0
H1621 H 0.82308 0.86819 0.50395 0.0
H1622 H 0.83108 0.8865 0.52351 0.0
H1623 H 0.81975 0.89568 0.49957 0.0
C1624 C 0.65075 0.27932 0.05684 0.0
C1625 C 0.6682 0.27378 0.06682 0.0
C1626 C 0.64935 0.28163 0.03482 0.0
C1627 C 0.66545 0.27678 0.02194 0.0
C1628 C 0.68318 0.2714 0.032 0.0
C1629 C 0.68445 0.27074 0.05414 0.0
C1630 C 0.63027 0.28881 0.02567 0.0
C1631 C 0.70079 0.2654 0.01951 0.0
C1632 C 0.65275 0.25677 0.96672 0.0
C1633 C 0.66216 0.27069 0.95344 0.0
C1634 C 0.654 0.25837 0.98876 0.0
C1635 C 0.66346 0.27552 0.99821 0.0
C1636 C 0.67147 0.29078 0.98476 0.0
C1637 C 0.67117 0.28787 0.9627 0.0
C1638 C 0.64557 0.24114 1.00173 0.0
C1639 C 0.68063 0.31023 0.99325 0.0
H1640 H 0.63791 0.28136 0.06619 0.0
H1641 H 0.69802 0.26644 0.06158 0.0
H1642 H 0.63137 0.2944 1.00928 0.0
H1643 H 0.62012 0.2757 0.02619 0.0
H1644 H 0.62398 0.30169 0.03535 0.0
H1645 H 0.71166 0.25674 0.02918 0.0
H1646 H 0.69703 0.25552 1.00581 0.0
H1647 H 0.70749 0.27979 0.01361 0.0
H1648 H 0.64512 0.24382 0.95983 0.0
H1649 H 0.67822 0.299 0.95271 0.0
H1650 H 0.63085 0.24592 1.00652 0.0
H1651 H 0.65423 0.23787 0.01608 0.0
H1652 H 0.64452 0.22635 0.99263 0.0
H1653 H 0.67692 0.31347 1.00984 0.0
H1654 H 0.67615 0.32404 0.98366 0.0
H1655 H 0.69646 0.30852 0.99192 0.0
C1656 C 0.22759 0.87468 0.47639 0.0
C1657 C 0.24556 0.87409 0.46636 0.0
C1658 C 0.22603 0.87366 0.49853 0.0
C1659 C 0.24278 0.87152 0.51125 0.0
C1660 C 0.26091 0.87107 0.5013 0.0
C1661 C 0.26207 0.87269 0.47927 0.0
C1662 C 0.2064 0.87472 0.50831 0.0
C1663 C 0.27923 0.8686 0.51396 0.0
C1664 C 0.2453 0.88456 0.57008 0.0
C1665 C 0.24482 0.86464 0.57939 0.0
C1666 C 0.24343 0.88717 0.54813 0.0
C1667 C 0.24157 0.86941 0.53488 0.0
C1668 C 0.24029 0.84935 0.54433 0.0
C1669 C 0.24168 0.84727 0.56636 0.0
C1670 C 0.24437 0.90893 0.53906 0.0
C1671 C 0.23874 0.82985 0.53109 0.0
H1672 H 0.2146 0.87557 0.46699 0.0
H1673 H 0.27615 0.87292 0.47223 0.0
H1674 H 0.20353 0.85973 0.51634 0.0
H1675 H 0.20579 0.88727 0.52037 0.0
H1676 H 0.19484 0.8778 0.49654 0.0
H1677 H 0.29219 0.86776 0.50394 0.0
H1678 H 0.28061 0.88197 0.52494 0.0
H1679 H 0.27883 0.85412 0.52355 0.0
H1680 H 0.24802 0.89805 0.57991 0.0
H1681 H 0.24156 0.83181 0.57336 0.0
H1682 H 0.23284 0.91149 0.52718 0.0
H1683 H 0.2583 0.91076 0.53106 0.0
H1684 H 0.24298 0.92123 0.55133 0.0
H1685 H 0.22676 0.83161 0.51964 0.0
H1686 H 0.23643 0.81565 0.5407 0.0
H1687 H 0.25214 0.82745 0.522 0.0
C1688 C 0.66505 0.73353 0.0591 0.0
C1689 C 0.65704 0.75165 0.06839 0.0
C1690 C 0.66393 0.73022 0.03715 0.0
C1691 C 0.65532 0.74579 0.02395 0.0
C1692 C 0.6466 0.76371 0.03343 0.0
C1693 C 0.64704 0.76605 0.05541 0.0
C1694 C 0.67245 0.71028 0.02807 0.0
C1695 C 0.6377 0.7811 0.0203 0.0
C1696 C 0.67312 0.75318 0.96781 0.0
C1697 C 0.6569 0.74833 0.95565 0.0
C1698 C 0.67297 0.7519 0.98988 0.0
C1699 C 0.65659 0.74438 1.0003 0.0
C1700 C 0.64088 0.7375 0.98794 0.0
C1701 C 0.64103 0.73999 0.96588 0.0
C1702 C 0.68986 0.76009 1.00209 0.0
C1703 C 0.62352 0.72826 0.99804 0.0
H1704 H 0.67259 0.72216 0.06895 0.0
H1705 H 0.64042 0.77987 0.06246 0.0
H1706 H 0.66295 0.70399 0.01565 0.0
H1707 H 0.68647 0.71355 0.02081 0.0
H1708 H 0.67484 0.69808 0.04028 0.0
H1709 H 0.632 0.79428 0.03 0.0
H1710 H 0.64855 0.78727 1.00942 0.0
H1711 H 0.6258 0.775 1.0106 0.0
H1712 H 0.68551 0.75947 0.96005 0.0
H1713 H 0.62844 0.73614 0.95672 0.0
H1714 H 0.69574 0.74785 1.0128 0.0
H1715 H 0.68508 0.77358 1.01191 0.0
H1716 H 0.70156 0.76527 0.99172 0.0
H1717 H 0.62785 0.71771 1.01115 0.0
H1718 H 0.61484 0.71934 0.98657 0.0
H1719 H 0.61428 0.74102 1.00458 0.0
C1720 C 0.7566 0.15446 0.55843 0.0
C1721 C 0.77064 0.16346 0.57136 0.0
C1722 C 0.75801 0.15461 0.53636 0.0
C1723 C 0.77447 0.16277 0.52662 0.0
C1724 C 0.7895 0.17021 0.53969 0.0
C1725 C 0.78724 0.17086 0.56178 0.0
C1726 C 0.74129 0.14705 0.52345 0.0
C1727 C 0.8078 0.17799 0.53034 0.0
C1728 C 0.77819 0.14892 0.46785 0.0
C1729 C 0.77133 0.16743 0.45818 0.0
C1730 C 0.78054 0.14757 0.48992 0.0
C1731 C 0.77514 0.16483 0.50292 0.0
C1732 C 0.76889 0.18377 0.4931 0.0
C1733 C 0.76766 0.18499 0.47101 0.0
C1734 C 0.7883 0.1274 0.49933 0.0
C1735 C 0.76237 0.20247 0.50594 0.0
H1736 H 0.74388 0.14829 0.56564 0.0
H1737 H 0.79829 0.17766 0.57152 0.0
H1738 H 0.73577 0.1599 0.51318 0.0
H1739 H 0.74601 0.13396 0.51313 0.0
H1740 H 0.72933 0.14163 0.53333 0.0
H1741 H 0.81943 0.17907 0.54228 0.0
H1742 H 0.81277 0.16748 0.5175 0.0
H1743 H 0.8052 0.19379 0.52356 0.0
H1744 H 0.78124 0.13528 0.45818 0.0
H1745 H 0.76268 0.19949 0.46374 0.0
H1746 H 0.77635 0.1185 0.50606 0.0
H1747 H 0.79861 0.13064 0.51222 0.0
H1748 H 0.79558 0.11735 0.48743 0.0
H1749 H 0.75025 0.19806 0.5161 0.0
H1750 H 0.75764 0.21594 0.49602 0.0
H1751 H 0.77416 0.20758 0.51637 0.0
C1752 C 0.40584 0.27 0.06417 0.0
C1753 C 0.3932 0.28192 0.0767 0.0
C1754 C 0.40737 0.27374 0.04251 0.0
C1755 C 0.39642 0.29026 0.03308 0.0
C1756 C 0.38475 0.30338 0.04602 0.0
C1757 C 0.38311 0.29892 0.06763 0.0
C1758 C 0.41975 0.25906 0.02951 0.0
C1759 C 0.37328 0.32156 0.03689 0.0
C1760 C 0.4097 0.30305 0.97623 0.0
C1761 C 0.39609 0.29171 0.96474 0.0
C1762 C 0.40951 0.30358 0.99841 0.0
C1763 C 0.39564 0.29217 1.00955 0.0
C1764 C 0.38153 0.2813 0.99806 0.0
C1765 C 0.38172 0.28153 0.976 0.0
C1766 C 0.42449 0.31589 1.00994 0.0
C1767 C 0.36654 0.26872 1.00907 0.0
H1768 H 0.41374 0.25691 0.07118 0.0
H1769 H 0.37341 0.30823 0.07727 0.0
H1770 H 0.41051 0.24996 0.01877 0.0
H1771 H 0.42968 0.26806 0.01968 0.0
H1772 H 0.42833 0.24788 0.03934 0.0
H1773 H 0.36751 0.33218 0.04926 0.0
H1774 H 0.38226 0.33072 0.02611 0.0
H1775 H 0.36105 0.31558 0.02762 0.0
H1776 H 0.42091 0.31102 0.96797 0.0
H1777 H 0.37063 0.27333 0.96756 0.0
H1778 H 0.43482 0.30496 0.01783 0.0
H1779 H 0.4177 0.32577 0.02229 0.0
H1780 H 0.43259 0.32611 0.99925 0.0
H1781 H 0.37365 0.25631 0.01875 0.0
H1782 H 0.35651 0.26117 0.99792 0.0
H1783 H 0.35807 0.27894 0.0198 0.0
C1784 C 0.56808 0.24749 0.13241 0.0
C1785 C 0.57996 0.23189 0.14161 0.0
C1786 C 0.5479 0.2465 0.1331 0.0
C1787 C 0.53915 0.22932 0.14298 0.0
C1788 C 0.55105 0.21339 0.1521 0.0
C1789 C 0.57123 0.21495 0.15149 0.0
C1790 C 0.53591 0.26406 0.12348 0.0
C1791 C 0.54245 0.19462 0.16249 0.0
C1792 C 0.48716 0.23674 0.16133 0.0
C1793 C 0.47664 0.22827 0.14459 0.0
C1794 C 0.5074 0.23697 0.16112 0.0
C1795 C 0.51758 0.22823 0.1439 0.0
C1796 C 0.50706 0.21914 0.12722 0.0
C1797 C 0.4868 0.21945 0.12767 0.0
C1798 C 0.51788 0.24716 0.17909 0.0
C1799 C 0.51721 0.2093 0.10871 0.0
H1800 H 0.5746 0.26081 0.12502 0.0
H1801 H 0.58022 0.20274 0.15852 0.0
H1802 H 0.52642 0.25779 0.11106 0.0
H1803 H 0.52653 0.27136 0.13557 0.0
H1804 H 0.54485 0.27641 0.11654 0.0
H1805 H 0.55359 0.18329 0.16836 0.0
H1806 H 0.5334 0.19978 0.17585 0.0
H1807 H 0.533 0.18644 0.15123 0.0
H1808 H 0.4795 0.24387 0.17435 0.0
H1809 H 0.47886 0.21273 0.11473 0.0
H1810 H 0.52599 0.26068 0.17322 0.0
H1811 H 0.52847 0.23593 0.18612 0.0
H1812 H 0.50797 0.2528 0.19155 0.0
H1813 H 0.52516 0.2214 0.10014 0.0
H1814 H 0.50709 0.2018 0.09762 0.0
H1815 H 0.52789 0.19731 0.11419 0.0
C1816 C 0.55816 0.79484 0.89324 0.0
C1817 C 0.56823 0.78335 0.87777 0.0
C1818 C 0.53782 0.79639 0.89332 0.0
C1819 C 0.5269 0.78605 0.8777 0.0
C1820 C 0.53691 0.77462 0.86194 0.0
C1821 C 0.55723 0.77357 0.86206 0.0
C1822 C 0.52798 0.80893 0.91037 0.0
C1823 C 0.52612 0.76321 0.84498 0.0
C1824 C 0.47459 0.77186 0.88931 0.0
C1825 C 0.4638 0.78704 0.87799 0.0
C1826 C 0.49491 0.77143 0.8894 0.0
C1827 C 0.50508 0.78669 0.87808 0.0
C1828 C 0.49431 0.80221 0.86679 0.0
C1829 C 0.47396 0.80211 0.86675 0.0
C1830 C 0.50552 0.75435 0.90141 0.0
C1831 C 0.50432 0.81899 0.85471 0.0
H1832 H 0.56614 0.80235 0.90567 0.0
H1833 H 0.56448 0.76504 0.84963 0.0
H1834 H 0.51805 0.82087 0.90334 0.0
H1835 H 0.51923 0.79846 0.92009 0.0
H1836 H 0.53836 0.81697 0.92074 0.0
H1837 H 0.53589 0.75498 0.83382 0.0
H1838 H 0.51664 0.75152 0.85213 0.0
H1839 H 0.5168 0.77442 0.83607 0.0
H1840 H 0.46711 0.75988 0.8978 0.0
H1841 H 0.46597 0.81406 0.85808 0.0
H1842 H 0.51526 0.76134 0.91319 0.0
H1843 H 0.51458 0.74488 0.89053 0.0
H1844 H 0.49564 0.74374 0.90959 0.0
H1845 H 0.514 0.82769 0.86532 0.0
H1846 H 0.49404 0.83032 0.84724 0.0
H1847 H 0.51337 0.81171 0.84232 0.0
C1848 C 0.73672 0.97659 0.35696 0.0
C1849 C 0.73079 0.96459 0.3741 0.0
C1850 C 0.73702 0.99868 0.35793 0.0
C1851 C 0.73125 1.00929 0.37649 0.0
C1852 C 0.72466 0.99734 0.39359 0.0
C1853 C 0.72451 0.97526 0.3922 0.0
C1854 C 0.74419 1.01065 0.33928 0.0
C1855 C 0.71826 1.00784 0.41365 0.0
C1856 C 0.75268 0.06297 0.38719 0.0
C1857 C 0.73783 0.07698 0.38096 0.0
C1858 C 0.75063 0.04108 0.38601 0.0
C1859 C 0.73324 0.03269 0.37843 0.0
C1860 C 0.71802 0.04669 0.37252 0.0
C1861 C 0.72046 0.06859 0.37388 0.0
C1862 C 0.76723 0.02691 0.39267 0.0
C1863 C 0.69924 0.03853 0.36436 0.0
H1864 H 0.74186 0.96868 0.34297 0.0
H1865 H 0.71961 0.96632 0.40547 0.0
H1866 H 0.7336 0.0231 0.33469 0.0
H1867 H 0.75773 0.01847 0.34353 0.0
H1868 H 0.74693 1.00033 0.32554 0.0
H1869 H 0.71243 0.99654 0.42504 0.0
H1870 H 0.73058 0.01576 0.42109 0.0
H1871 H 0.7071 0.02008 0.41026 0.0
H1872 H 0.76604 0.06913 0.39308 0.0
H1873 H 0.70892 0.07914 0.36884 0.0
H1874 H 0.77197 0.01705 0.37925 0.0
H1875 H 0.76263 0.01617 0.40523 0.0
H1876 H 0.77969 0.03582 0.3985 0.0
H1877 H 0.70172 0.02956 0.34968 0.0
H1878 H 0.68854 0.05134 0.36113 0.0
H1879 H 0.69309 0.0276 0.37588 0.0
C1880 C 0.47918 0.26461 0.89198 0.0
C1881 C 0.46759 0.25408 0.87745 0.0
C1882 C 0.49933 0.26137 0.89268 0.0
C1883 C 0.50835 0.24676 0.87888 0.0
C1884 C 0.49658 0.23528 0.86489 0.0
C1885 C 0.4765 0.23929 0.86412 0.0
C1886 C 0.51106 0.27439 0.90754 0.0
C1887 C 0.50527 0.21917 0.85023 0.0
C1888 C 0.5612 0.25441 0.86402 0.0
C1889 C 0.57122 0.24094 0.87792 0.0
C1890 C 0.54094 0.25647 0.86424 0.0
C1891 C 0.53008 0.24437 0.87833 0.0
C1892 C 0.54011 0.23039 0.89211 0.0
C1893 C 0.56044 0.22909 0.89196 0.0
C1894 C 0.53115 0.27199 0.84961 0.0
C1895 C 0.52933 0.21673 0.90702 0.0
H1896 H 0.47251 0.27621 0.90218 0.0
H1897 H 0.46781 0.23132 0.85257 0.0
H1898 H 0.52028 0.26412 0.91761 0.0
H1899 H 0.52072 0.28448 0.89845 0.0
H1900 H 0.50195 0.28456 0.91775 0.0
H1901 H 0.49416 0.20991 0.84208 0.0
H1902 H 0.51397 0.22708 0.83825 0.0
H1903 H 0.51504 0.20827 0.85899 0.0
H1904 H 0.5693 0.26385 0.85328 0.0
H1905 H 0.56794 0.21854 0.9027 0.0
H1906 H 0.52251 0.28356 0.85878 0.0
H1907 H 0.52111 0.26378 0.83901 0.0
H1908 H 0.54154 0.28056 0.83991 0.0
H1909 H 0.52114 0.22664 0.9183 0.0
H1910 H 0.53905 0.20591 0.91597 0.0
H1911 H 0.51877 0.20732 0.89821 0.0
C1912 C 0.2834 0.96138 0.3874 0.0
C1913 C 0.27702 0.95047 0.36963 0.0
C1914 C 0.28548 0.98345 0.3871 0.0
C1915 C 0.28054 0.99514 0.36879 0.0
C1916 C 0.27495 0.98398 0.35055 0.0
C1917 C 0.27365 0.96193 0.3511 0.0
C1918 C 0.29222 0.99433 0.40672 0.0
C1919 C 0.26908 0.99544 0.33076 0.0
C1920 C 0.26072 0.05162 0.37402 0.0
C1921 C 0.27534 0.06362 0.36535 0.0
C1922 C 0.26239 0.02957 0.37554 0.0
C1923 C 0.27947 0.01894 0.36906 0.0
C1924 C 0.29483 0.03113 0.36163 0.0
C1925 C 0.29249 0.0532 0.35958 0.0
C1926 C 0.2454 0.01756 0.38316 0.0
C1927 C 0.31359 0.02081 0.35527 0.0
H1928 H 0.28602 0.95278 0.40181 0.0
H1929 H 0.26873 0.95367 0.33727 0.0
H1930 H 0.30303 1.00619 0.40287 0.0
H1931 H 0.27991 1.00268 0.41418 0.0
H1932 H 0.29859 0.98309 0.41826 0.0
H1933 H 0.26577 0.98456 0.31769 0.0
H1934 H 0.25616 1.00546 0.33383 0.0
H1935 H 0.28064 1.00591 0.32572 0.0
H1936 H 0.24748 0.05949 0.37876 0.0
H1937 H 0.30392 0.06225 0.35296 0.0
H1938 H 0.24962 1.00776 0.39685 0.0
H1939 H 0.24045 1.00682 0.37064 0.0
H1940 H 0.23318 0.02805 0.38773 0.0
H1941 H 0.31856 1.00945 0.36741 0.0
H1942 H 0.32496 0.03243 0.35278 0.0
H1943 H 0.31155 1.01194 0.34049 0.0
C1944 C 0.56073 0.77947 0.12977 0.0
C1945 C 0.57107 0.79521 0.14 0.0
C1946 C 0.54047 0.77929 0.13006 0.0
C1947 C 0.52997 0.79537 0.14064 0.0
C1948 C 0.54029 0.81139 0.1509 0.0
C1949 C 0.56061 0.81104 0.1506 0.0
C1950 C 0.53028 0.76169 0.11915 0.0
C1951 C 0.52985 0.82901 0.16215 0.0
C1952 C 0.4771 0.8037 0.1244 0.0
C1953 C 0.46725 0.79342 0.1404 0.0
C1954 C 0.49733 0.80488 0.12455 0.0
C1955 C 0.50827 0.79532 0.14095 0.0
C1956 C 0.4984 0.78509 0.15726 0.0
C1957 C 0.47813 0.78439 0.15686 0.0
C1958 C 0.50704 0.81623 0.10698 0.0
C1959 C 0.50931 0.77439 0.17492 0.0
H1960 H 0.56853 0.76693 0.12183 0.0
H1961 H 0.56832 0.82337 0.15845 0.0
H1962 H 0.52132 0.75327 0.13055 0.0
H1963 H 0.5205 0.76813 0.10683 0.0
H1964 H 0.54043 0.75024 0.11179 0.0
H1965 H 0.53984 0.84046 0.1691 0.0
H1966 H 0.52 0.83741 0.1511 0.0
H1967 H 0.52092 0.8226 0.17484 0.0
H1968 H 0.46894 0.81094 0.1117 0.0
H1969 H 0.47082 0.77617 0.16919 0.0
H1970 H 0.51632 0.80508 0.09807 0.0
H1971 H 0.51645 0.82847 0.11348 0.0
H1972 H 0.49657 0.82373 0.09594 0.0
H1973 H 0.51871 0.76168 0.16852 0.0
H1974 H 0.49961 0.76755 0.18669 0.0
H1975 H 0.51873 0.78569 0.18294 0.0
C1976 C 0.75179 0.97023 0.62526 0.0
C1977 C 0.74216 0.9577 0.63968 0.0
C1978 C 0.74891 0.9922 0.6247 0.0
C1979 C 0.73561 1.0021 0.6385 0.0
C1980 C 0.72482 0.98931 0.65206 0.0
C1981 C 0.72842 0.96739 0.65271 0.0
C1982 C 0.76111 1.00495 0.61029 0.0
C1983 C 0.71008 0.99888 0.66662 0.0
C1984 C 0.74469 0.05885 0.65536 0.0
C1985 C 0.73293 0.07062 0.64154 0.0
C1986 C 0.74565 0.03673 0.65452 0.0
C1987 C 0.73417 0.02578 0.63986 0.0
C1988 C 0.72189 0.03758 0.62619 0.0
C1989 C 0.72166 0.05977 0.62695 0.0
C1990 C 0.75935 0.02507 0.66905 0.0
C1991 C 0.70899 0.02675 0.61072 0.0
H1992 H 0.76259 0.96292 0.61532 0.0
H1993 H 0.72111 0.95794 0.66412 0.0
H1994 H 0.75198 0.01574 0.60069 0.0
H1995 H 0.77088 0.01473 0.61978 0.0
H1996 H 0.76993 0.99493 0.59963 0.0
H1997 H 0.70103 0.98683 0.67389 0.0
H1998 H 0.71743 1.00758 0.6793 0.0
H1999 H 0.70065 1.01027 0.65806 0.0
H2000 H 0.75363 0.06704 0.66652 0.0
H2001 H 0.71247 0.06866 0.61626 0.0
H2002 H 0.76966 0.0154 0.65977 0.0
H2003 H 0.75134 0.01424 0.67914 0.0
H2004 H 0.76757 0.03581 0.67927 0.0
H2005 H 0.71777 0.01784 0.59917 0.0
H2006 H 0.6994 0.03798 0.60211 0.0
H2007 H 0.70002 0.01529 0.61899 0.0
C2008 C 0.26739 0.0563 0.6339 0.0
C2009 C 0.27847 0.06904 0.64699 0.0
C2010 C 0.27039 0.03436 0.6332 0.0
C2011 C 0.28519 0.02474 0.6455 0.0
C2012 C 0.29717 0.0377 0.65779 0.0
C2013 C 0.29348 0.05958 0.65865 0.0
C2014 C 0.25693 0.02136 0.62022 0.0
C2015 C 0.31342 0.02838 0.67077 0.0
C2016 C 0.27884 0.96782 0.663 0.0
C2017 C 0.28931 0.95636 0.64794 0.0
C2018 C 0.27745 0.98992 0.66239 0.0
C2019 C 0.28717 1.00112 0.64664 0.0
C2020 C 0.29821 0.98964 0.63172 0.0
C2021 C 0.2989 0.96748 0.63235 0.0
C2022 C 0.2651 1.00126 0.67832 0.0
C2023 C 0.30925 1.00079 0.61501 0.0
H2024 H 0.25558 0.06345 0.62511 0.0
H2025 H 0.30186 0.06917 0.66916 0.0
H2026 H 0.26516 1.01081 0.60958 0.0
H2027 H 0.24847 1.01131 0.6307 0.0
H2028 H 0.24681 0.03119 0.61068 0.0
H2029 H 0.32293 0.0406 0.67719 0.0
H2030 H 0.30751 0.01947 0.68405 0.0
H2031 H 0.32216 0.01723 0.66122 0.0
H2032 H 0.27116 0.9594 0.67493 0.0
H2033 H 0.30707 0.9588 0.62068 0.0
H2034 H 0.25365 1.01061 0.67021 0.0
H2035 H 0.27387 1.01237 0.68746 0.0
H2036 H 0.25827 0.99034 0.6894 0.0
H2037 H 0.29915 1.00945 0.60445 0.0
H2038 H 0.31814 0.98978 0.60543 0.0
H2039 H 0.31875 1.01248 0.62232 0.0
C2040 C 0.18124 0.28687 0.29877 0.0
C2041 C 0.19086 0.30567 0.29571 0.0
C2042 C 0.19112 0.2686 0.30595 0.0
C2043 C 0.21111 0.26909 0.31053 0.0
C2044 C 0.22096 0.28788 0.30671 0.0
C2045 C 0.21074 0.30585 0.29947 0.0
C2046 C 0.17996 0.24897 0.3095 0.0
C2047 C 0.24216 0.28937 0.31128 0.0
C2048 C 0.22961 0.22909 0.35135 0.0
C2049 C 0.23764 0.21315 0.33877 0.0
C2050 C 0.22165 0.24765 0.34244 0.0
C2051 C 0.22137 0.25034 0.32032 0.0
C2052 C 0.23013 0.23458 0.30764 0.0
C2053 C 0.23809 0.21626 0.31699 0.0
C2054 C 0.21275 0.26402 0.35668 0.0
C2055 C 0.23028 0.23658 0.28408 0.0
H2056 H 0.16581 0.28673 0.29657 0.0
H2057 H 0.21818 0.32044 0.29763 0.0
H2058 H 0.1871 0.23542 0.30159 0.0
H2059 H 0.17965 0.2454 0.32651 0.0
H2060 H 0.16494 0.25052 0.30362 0.0
H2061 H 0.24811 0.30425 0.30545 0.0
H2062 H 0.24466 0.28844 0.32845 0.0
H2063 H 0.2502 0.27605 0.30401 0.0
H2064 H 0.2287 0.22658 0.36811 0.0
H2065 H 0.24391 0.20381 0.30714 0.0
H2066 H 0.19701 0.26498 0.35391 0.0
H2067 H 0.21852 0.27966 0.35315 0.0
H2068 H 0.21542 0.26046 0.37351 0.0
H2069 H 0.21536 0.23601 0.27794 0.0
H2070 H 0.23895 0.22388 0.27653 0.0
H2071 H 0.23609 0.25191 0.27943 0.0
C2072 C 0.28985 0.74033 0.82563 0.0
C2073 C 0.29816 0.73132 0.84374 0.0
C2074 C 0.27543 0.72999 0.81409 0.0
C2075 C 0.2689 0.71022 0.82089 0.0
C2076 C 0.27699 0.70133 0.83942 0.0
C2077 C 0.29148 0.71187 0.85046 0.0
C2078 C 0.2674 0.74006 0.7944 0.0
C2079 C 0.27041 0.68053 0.84757 0.0
C2080 C 0.21938 0.6903 0.80547 0.0
C2081 C 0.22372 0.67439 0.79081 0.0
C2082 C 0.23378 0.70246 0.81474 0.0
C2083 C 0.25324 0.69897 0.80922 0.0
C2084 C 0.25769 0.68367 0.79366 0.0
C2085 C 0.24292 0.67161 0.78464 0.0
C2086 C 0.22816 0.71859 0.83105 0.0
C2087 C 0.27816 0.67954 0.78702 0.0
H2088 H 0.29511 0.75513 0.82005 0.0
H2089 H 0.29774 0.70477 0.86443 0.0
H2090 H 0.2695 0.72934 0.78087 0.0
H2091 H 0.25171 0.74293 0.796 0.0
H2092 H 0.27426 0.75517 0.79087 0.0
H2093 H 0.27806 0.67571 0.86219 0.0
H2094 H 0.25478 0.68141 0.85075 0.0
H2095 H 0.2728 0.66818 0.83555 0.0
H2096 H 0.20457 0.69317 0.80994 0.0
H2097 H 0.24652 0.65955 0.77327 0.0
H2098 H 0.23394 0.73407 0.8269 0.0
H2099 H 0.23446 0.71404 0.84645 0.0
H2100 H 0.21234 0.7203 0.83276 0.0
H2101 H 0.28495 0.69444 0.78264 0.0
H2102 H 0.27916 0.66853 0.77354 0.0
H2103 H 0.28654 0.67278 0.80034 0.0
C2104 C 0.86248 0.73315 0.28769 0.0
C2105 C 0.85674 0.71236 0.28534 0.0
C2106 C 0.84971 0.74876 0.29561 0.0
C2107 C 0.83089 0.74339 0.30175 0.0
C2108 C 0.82482 0.72264 0.29839 0.0
C2109 C 0.83776 0.70751 0.29031 0.0
C2110 C 0.85673 0.77074 0.29854 0.0
C2111 C 0.80505 0.71599 0.30475 0.0
C2112 C 0.80777 0.77494 0.3464 0.0
C2113 C 0.79466 0.7881 0.33569 0.0
C2114 C 0.81941 0.76021 0.33556 0.0
C2115 C 0.81817 0.75879 0.31337 0.0
C2116 C 0.80464 0.77185 0.30255 0.0
C2117 C 0.79311 0.78637 0.31383 0.0
C2118 C 0.83334 0.74644 0.34785 0.0
C2119 C 0.80283 0.77114 0.27898 0.0
H2120 H 0.87726 0.73696 0.28463 0.0
H2121 H 0.83339 0.69141 0.2892 0.0
H2122 H 0.84613 0.78226 0.29197 0.0
H2123 H 0.85824 0.77415 0.31552 0.0
H2124 H 0.87081 0.77302 0.29094 0.0
H2125 H 0.80161 0.70021 0.2986 0.0
H2126 H 0.80422 0.71557 0.32211 0.0
H2127 H 0.79395 0.72742 0.29911 0.0
H2128 H 0.80926 0.77658 0.36325 0.0
H2129 H 0.78331 0.79691 0.30547 0.0
H2130 H 0.84825 0.74962 0.34304 0.0
H2131 H 0.83073 0.72969 0.34442 0.0
H2132 H 0.83217 0.74899 0.36503 0.0
H2133 H 0.81526 0.77903 0.27197 0.0
H2134 H 0.78945 0.77916 0.27332 0.0
H2135 H 0.80306 0.75474 0.2732 0.0
C2136 C 0.81551 0.32512 0.80371 0.0
C2137 C 0.81093 0.3429 0.79145 0.0
C2138 C 0.80122 0.31318 0.81313 0.0
C2139 C 0.78162 0.31881 0.81013 0.0
C2140 C 0.7768 0.336 0.79678 0.0
C2141 C 0.79148 0.34782 0.78759 0.0
C2142 C 0.80721 0.29504 0.82707 0.0
C2143 C 0.75611 0.3424 0.79283 0.0
C2144 C 0.74386 0.27923 0.82669 0.0
C2145 C 0.73814 0.2871 0.84631 0.0
C2146 C 0.75777 0.28942 0.8146 0.0
C2147 C 0.76643 0.30782 0.8224 0.0
C2148 C 0.76101 0.31547 0.84244 0.0
C2149 C 0.74692 0.30516 0.854 0.0
C2150 C 0.76291 0.28073 0.7933 0.0
C2151 C 0.77001 0.33473 0.85166 0.0
H2152 H 0.83046 0.32072 0.80634 0.0
H2153 H 0.78771 0.36138 0.77809 0.0
H2154 H 0.80304 0.29856 0.84348 0.0
H2155 H 0.7997 0.28066 0.82227 0.0
H2156 H 0.82293 0.29177 0.8267 0.0
H2157 H 0.75461 0.35461 0.7805 0.0
H2158 H 0.74772 0.32861 0.78805 0.0
H2159 H 0.74972 0.34863 0.80752 0.0
H2160 H 0.73691 0.26555 0.82042 0.0
H2161 H 0.7426 0.31138 0.86912 0.0
H2162 H 0.77842 0.27645 0.79283 0.0
H2163 H 0.76023 0.29286 0.78111 0.0
H2164 H 0.75456 0.26667 0.78921 0.0
H2165 H 0.78581 0.3323 0.85286 0.0
H2166 H 0.76438 0.33861 0.86747 0.0
H2167 H 0.76727 0.34837 0.84121 0.0
C2168 C 0.22993 0.76315 0.68431 0.0
C2169 C 0.23249 0.78362 0.69166 0.0
C2170 C 0.21901 0.74869 0.69573 0.0
C2171 C 0.21064 0.75466 0.71518 0.0
C2172 C 0.21411 0.77497 0.72315 0.0
C2173 C 0.22478 0.78916 0.71128 0.0
C2174 C 0.21577 0.72725 0.68657 0.0
C2175 C 0.20601 0.78199 0.74395 0.0
C2176 C 0.16507 0.72617 0.7308 0.0
C2177 C 0.17233 0.71011 0.74381 0.0
C2178 C 0.17726 0.74105 0.7219 0.0
C2179 C 0.19726 0.74022 0.72641 0.0
C2180 C 0.20436 0.72505 0.74098 0.0
C2181 C 0.19185 0.71013 0.74932 0.0
C2182 C 0.16888 0.75685 0.70661 0.0
C2183 C 0.22536 0.72377 0.74692 0.0
H2184 H 0.23572 0.75874 0.66916 0.0
H2185 H 0.22682 0.8049 0.7172 0.0
H2186 H 0.22023 0.71496 0.698 0.0
H2187 H 0.20023 0.72535 0.68332 0.0
H2188 H 0.2238 0.72463 0.67178 0.0
H2189 H 0.19012 0.78311 0.74286 0.0
H2190 H 0.20971 0.77031 0.75629 0.0
H2191 H 0.21142 0.79748 0.74888 0.0
H2192 H 0.15003 0.7261 0.72629 0.0
H2193 H 0.19756 0.69783 0.75937 0.0
H2194 H 0.17486 0.75383 0.69079 0.0
H2195 H 0.17289 0.77293 0.71123 0.0
H2196 H 0.15298 0.75623 0.70559 0.0
H2197 H 0.23368 0.71701 0.73367 0.0
H2198 H 0.228 0.71377 0.76094 0.0
H2199 H 0.23094 0.7396 0.75014 0.0
C2200 C 0.75345 0.73838 0.17659 0.0
C2201 C 0.73405 0.73373 0.17955 0.0
C2202 C 0.76819 0.72787 0.18812 0.0
C2203 C 0.76354 0.71218 0.20287 0.0
C2204 C 0.74398 0.70803 0.20648 0.0
C2205 C 0.7296 0.71894 0.19503 0.0
C2206 C 0.78881 0.73324 0.18419 0.0
C2207 C 0.73823 0.69168 0.22215 0.0
C2208 C 0.80088 0.66868 0.21422 0.0
C2209 C 0.80838 0.67456 0.2338 0.0
C2210 C 0.78628 0.68066 0.20417 0.0
C2211 C 0.779 0.69926 0.21372 0.0
C2212 C 0.78622 0.70506 0.23373 0.0
C2213 C 0.80076 0.69266 0.24351 0.0
C2214 C 0.77876 0.67348 0.18317 0.0
C2215 C 0.77916 0.7248 0.24454 0.0
H2216 H 0.75718 0.7498 0.16485 0.0
H2217 H 0.71471 0.71567 0.19817 0.0
H2218 H 0.79604 0.73713 0.19922 0.0
H2219 H 0.79659 0.71947 0.17744 0.0
H2220 H 0.79008 0.74667 0.17328 0.0
H2221 H 0.7224 0.69057 0.2235 0.0
H2222 H 0.74422 0.67611 0.21746 0.0
H2223 H 0.74427 0.69537 0.23784 0.0
H2224 H 0.80665 0.65472 0.2066 0.0
H2225 H 0.80671 0.69759 0.2584 0.0
H2226 H 0.78135 0.68558 0.17112 0.0
H2227 H 0.76301 0.67141 0.18396 0.0
H2228 H 0.78562 0.65847 0.17801 0.0
H2229 H 0.78588 0.73851 0.23715 0.0
H2230 H 0.78294 0.72474 0.26147 0.0
H2231 H 0.76338 0.72693 0.24291 0.0
C2232 C 0.80861 0.25361 0.67444 0.0
C2233 C 0.79321 0.24319 0.68344 0.0
C2234 C 0.82011 0.26717 0.68635 0.0
C2235 C 0.81661 0.27001 0.70808 0.0
C2236 C 0.80094 0.25961 0.71723 0.0
C2237 C 0.78935 0.2465 0.70478 0.0
C2238 C 0.83615 0.27836 0.67562 0.0
C2239 C 0.79677 0.26181 0.74032 0.0
C2240 C 0.8602 0.29121 0.73788 0.0
C2241 C 0.85567 0.31274 0.73895 0.0
C2242 C 0.84706 0.27688 0.72926 0.0
C2243 C 0.82919 0.28424 0.72084 0.0
C2244 C 0.82431 0.30582 0.72266 0.0
C2245 C 0.83749 0.31963 0.73168 0.0
C2246 C 0.85278 0.25397 0.72814 0.0
C2247 C 0.80576 0.31472 0.71362 0.0
H2248 H 0.81176 0.25098 0.65802 0.0
H2249 H 0.77772 0.23817 0.71192 0.0
H2250 H 0.83458 0.29551 0.67821 0.0
H2251 H 0.85017 0.27325 0.68246 0.0
H2252 H 0.83644 0.27531 0.65848 0.0
H2253 H 0.78372 0.25334 0.74494 0.0
H2254 H 0.80918 0.25553 0.74956 0.0
H2255 H 0.79483 0.27857 0.74461 0.0
H2256 H 0.8744 0.28566 0.7425 0.0
H2257 H 0.83405 0.33623 0.73167 0.0
H2258 H 0.85622 0.24969 0.71172 0.0
H2259 H 0.84073 0.24413 0.73314 0.0
H2260 H 0.86554 0.2502 0.73812 0.0
H2261 H 0.80633 0.31399 0.69626 0.0
H2262 H 0.8031 0.33128 0.71838 0.0
H2263 H 0.79342 0.30535 0.71863 0.0
C2264 C 0.25149 0.35379 0.2267 0.0
C2265 C 0.24268 0.34601 0.24468 0.0
C2266 C 0.26557 0.34194 0.21593 0.0
C2267 C 0.2708 0.32152 0.22299 0.0
C2268 C 0.26203 0.3136 0.24126 0.0
C2269 C 0.24822 0.32601 0.25199 0.0
C2270 C 0.27476 0.35127 0.19685 0.0
C2271 C 0.26692 0.29184 0.24922 0.0
C2272 C 0.2954 0.28679 0.18159 0.0
C2273 C 0.31488 0.2894 0.18645 0.0
C2274 C 0.28084 0.29634 0.1939 0.0
C2275 C 0.28582 0.30888 0.21144 0.0
C2276 C 0.30542 0.31066 0.21697 0.0
C2277 C 0.31959 0.3008 0.2046 0.0
C2278 C 0.26012 0.29364 0.18767 0.0
C2279 C 0.31151 0.32379 0.23546 0.0
H2280 H 0.2472 0.3692 0.22095 0.0
H2281 H 0.24119 0.31975 0.26564 0.0
H2282 H 0.29057 0.35154 0.19904 0.0
H2283 H 0.27187 0.34141 0.18289 0.0
H2284 H 0.26939 0.36748 0.19361 0.0
H2285 H 0.25851 0.28778 0.26331 0.0
H2286 H 0.26409 0.28013 0.23676 0.0
H2287 H 0.28242 0.2905 0.25319 0.0
H2288 H 0.29153 0.27794 0.16775 0.0
H2289 H 0.33455 0.30236 0.209 0.0
H2290 H 0.25396 0.30879 0.18196 0.0
H2291 H 0.2516 0.28893 0.20143 0.0
H2292 H 0.25847 0.28172 0.17511 0.0
H2293 H 0.3075 0.34047 0.23255 0.0
H2294 H 0.32723 0.32262 0.23844 0.0
H2295 H 0.30395 0.31892 0.24981 0.0
C2296 C 0.34314 0.23692 0.21695 0.0
C2297 C 0.3624 0.23015 0.21609 0.0
C2298 C 0.33037 0.2283 0.23147 0.0
C2299 C 0.33695 0.2122 0.24528 0.0
C2300 C 0.35669 0.20613 0.24514 0.0
C2301 C 0.36916 0.21524 0.23064 0.0
C2302 C 0.30964 0.23572 0.23126 0.0
C2303 C 0.36445 0.18913 0.25951 0.0
C2304 C 0.3088 0.19628 0.29372 0.0
C2305 C 0.30003 0.17777 0.28707 0.0
C2306 C 0.32022 0.20801 0.28015 0.0
C2307 C 0.32321 0.20107 0.2593 0.0
C2308 C 0.31385 0.18279 0.25225 0.0
C2309 C 0.30229 0.17146 0.26614 0.0
C2310 C 0.32951 0.22755 0.28832 0.0
C2311 C 0.31659 0.17479 0.23018 0.0
H2312 H 0.33784 0.24827 0.20558 0.0
H2313 H 0.38397 0.20971 0.22972 0.0
H2314 H 0.30057 0.22321 0.22472 0.0
H2315 H 0.30463 0.239 0.24743 0.0
H2316 H 0.30737 0.25008 0.22163 0.0
H2317 H 0.38027 0.18699 0.25829 0.0
H2318 H 0.36081 0.19285 0.27602 0.0
H2319 H 0.35766 0.17407 0.25554 0.0
H2320 H 0.30689 0.20152 0.30976 0.0
H2321 H 0.29562 0.1572 0.26085 0.0
H2322 H 0.32624 0.24096 0.27773 0.0
H2323 H 0.34534 0.22519 0.28865 0.0
H2324 H 0.32465 0.23173 0.30437 0.0
H2325 H 0.31269 0.18729 0.21874 0.0
H2326 H 0.30781 0.16087 0.2268 0.0
H2327 H 0.33194 0.17049 0.2277 0.0
C2328 C 0.3277 0.78829 0.80784 0.0
C2329 C 0.34746 0.785 0.80457 0.0
C2330 C 0.31551 0.7968 0.79212 0.0
C2331 C 0.32318 0.80243 0.77247 0.0
C2332 C 0.343 0.79821 0.76871 0.0
C2333 C 0.3549 0.78967 0.7848 0.0
C2334 C 0.29459 0.80089 0.79701 0.0
C2335 C 0.35188 0.80379 0.74803 0.0
C2336 C 0.29081 0.81379 0.72465 0.0
C2337 C 0.29048 0.83578 0.72385 0.0
C2338 C 0.30072 0.80274 0.74074 0.0
C2339 C 0.31084 0.81389 0.7564 0.0
C2340 C 0.30975 0.83616 0.75619 0.0
C2341 C 0.29966 0.8468 0.73994 0.0
C2342 C 0.30119 0.7791 0.7403 0.0
C2343 C 0.32012 0.8488 0.77255 0.0
H2344 H 0.32194 0.78532 0.82322 0.0
H2345 H 0.37021 0.78784 0.78232 0.0
H2346 H 0.29154 0.81803 0.79728 0.0
H2347 H 0.28536 0.7941 0.78463 0.0
H2348 H 0.29051 0.79427 0.81239 0.0
H2349 H 0.367 0.79801 0.74686 0.0
H2350 H 0.34348 0.79711 0.73488 0.0
H2351 H 0.35153 0.82107 0.74609 0.0
H2352 H 0.28416 0.80519 0.71197 0.0
H2353 H 0.29997 0.86375 0.73907 0.0
H2354 H 0.29743 0.77276 0.75588 0.0
H2355 H 0.31594 0.77333 0.73666 0.0
H2356 H 0.29117 0.77277 0.72837 0.0
H2357 H 0.31624 0.84355 0.7885 0.0
H2358 H 0.31678 0.86585 0.77118 0.0
H2359 H 0.33585 0.84625 0.77089 0.0
C2360 C 0.72747 0.85341 0.28057 0.0
C2361 C 0.73534 0.84262 0.29786 0.0
C2362 C 0.7187 0.84258 0.26383 0.0
C2363 C 0.71752 0.82038 0.26441 0.0
C2364 C 0.72621 0.80941 0.28147 0.0
C2365 C 0.7349 0.82063 0.29795 0.0
C2366 C 0.70988 0.85501 0.24595 0.0
C2367 C 0.7255 0.78585 0.28287 0.0
C2368 C 0.67575 0.79749 0.23282 0.0
C2369 C 0.68474 0.79131 0.21414 0.0
C2370 C 0.68636 0.80611 0.24961 0.0
C2371 C 0.70646 0.80888 0.24768 0.0
C2372 C 0.71567 0.80172 0.22917 0.0
C2373 C 0.70473 0.79316 0.21269 0.0
C2374 C 0.67587 0.81325 0.26905 0.0
C2375 C 0.73696 0.80417 0.22622 0.0
H2376 H 0.72724 0.87039 0.28067 0.0
H2377 H 0.74059 0.81224 0.31149 0.0
H2378 H 0.71515 0.84881 0.23074 0.0
H2379 H 0.69406 0.8534 0.24601 0.0
H2380 H 0.71317 0.87193 0.24698 0.0
H2381 H 0.73453 0.77951 0.29594 0.0
H2382 H 0.71047 0.78115 0.28537 0.0
H2383 H 0.73039 0.77853 0.268 0.0
H2384 H 0.66027 0.79671 0.23385 0.0
H2385 H 0.7117 0.78889 0.19813 0.0
H2386 H 0.67621 0.83059 0.27025 0.0
H2387 H 0.68309 0.80674 0.28325 0.0
H2388 H 0.66065 0.80845 0.26896 0.0
H2389 H 0.74013 0.82105 0.22465 0.0
H2390 H 0.7423 0.79581 0.21205 0.0
H2391 H 0.74504 0.79817 0.2401 0.0
C2392 C 0.728 0.17768 0.73628 0.0
C2393 C 0.73697 0.18883 0.72032 0.0
C2394 C 0.71921 0.18813 0.7534 0.0
C2395 C 0.71933 0.21037 0.75473 0.0
C2396 C 0.72932 0.22157 0.73919 0.0
C2397 C 0.73778 0.21072 0.72213 0.0
C2398 C 0.70889 0.1754 0.76952 0.0
C2399 C 0.73025 0.24515 0.73995 0.0
C2400 C 0.67788 0.23597 0.78596 0.0
C2401 C 0.68635 0.23902 0.80572 0.0
C2402 C 0.68861 0.22751 0.76903 0.0
C2403 C 0.70832 0.22179 0.77184 0.0
C2404 C 0.71709 0.22579 0.79152 0.0
C2405 C 0.70601 0.23412 0.80814 0.0
C2406 C 0.67856 0.22365 0.74841 0.0
C2407 C 0.73797 0.22018 0.79545 0.0
H2408 H 0.7268 0.16085 0.73467 0.0
H2409 H 0.74421 0.21949 0.70958 0.0
H2410 H 0.71389 0.17949 0.78553 0.0
H2411 H 0.69327 0.17914 0.7687 0.0
H2412 H 0.71112 0.15828 0.7671 0.0
H2413 H 0.74042 0.25131 0.72826 0.0
H2414 H 0.71578 0.2521 0.73673 0.0
H2415 H 0.73471 0.25045 0.75579 0.0
H2416 H 0.66259 0.23903 0.78408 0.0
H2417 H 0.71255 0.23578 0.82347 0.0
H2418 H 0.67799 0.20654 0.74545 0.0
H2419 H 0.6867 0.2306 0.73538 0.0
H2420 H 0.66368 0.2303 0.74814 0.0
H2421 H 0.73998 0.20289 0.79543 0.0
H2422 H 0.74319 0.22631 0.81072 0.0
H2423 H 0.747 0.22643 0.78277 0.0
C2424 C 0.8005 0.79588 0.66606 0.0
C2425 C 0.79673 0.81574 0.67475 0.0
C2426 C 0.81067 0.78017 0.67756 0.0
C2427 C 0.81737 0.78446 0.69819 0.0
C2428 C 0.81299 0.80428 0.70719 0.0
C2429 C 0.80283 0.81955 0.69541 0.0
C2430 C 0.81482 0.75923 0.66737 0.0
C2431 C 0.8197 0.80972 0.72905 0.0
C2432 C 0.83282 0.74089 0.73644 0.0
C2433 C 0.85298 0.74104 0.73524 0.0
C2434 C 0.82109 0.75446 0.72416 0.0
C2435 C 0.82959 0.76873 0.7102 0.0
C2436 C 0.84991 0.76882 0.70872 0.0
C2437 C 0.86131 0.75501 0.72115 0.0
C2438 C 0.79956 0.75368 0.72629 0.0
C2439 C 0.85966 0.78386 0.69426 0.0
H2440 H 0.7961 0.79289 0.65002 0.0
H2441 H 0.80034 0.83486 0.7022 0.0
H2442 H 0.8305 0.75719 0.66493 0.0
H2443 H 0.81031 0.74636 0.67776 0.0
H2444 H 0.80739 0.75771 0.65199 0.0
H2445 H 0.81423 0.82537 0.73422 0.0
H2446 H 0.81493 0.79781 0.7404 0.0
H2447 H 0.83562 0.80965 0.7296 0.0
H2448 H 0.82611 0.72991 0.74687 0.0
H2449 H 0.8768 0.75545 0.7201 0.0
H2450 H 0.79283 0.75095 0.71074 0.0
H2451 H 0.79385 0.76895 0.73217 0.0
H2452 H 0.79511 0.74116 0.73719 0.0
H2453 H 0.8542 0.78196 0.67801 0.0
H2454 H 0.87551 0.7815 0.69426 0.0
H2455 H 0.85626 0.80023 0.69911 0.0
C2456 C 0.74794 0.28292 0.19719 0.0
C2457 C 0.74257 0.29086 0.17742 0.0
C2458 C 0.7611 0.2935 0.2102 0.0
C2459 C 0.7694 0.31233 0.20318 0.0
C2460 C 0.76433 0.32007 0.183 0.0
C2461 C 0.75095 0.30939 0.17052 0.0
C2462 C 0.76585 0.28471 0.23162 0.0
C2463 C 0.77301 0.33977 0.17457 0.0
C2464 C 0.7925 0.35261 0.23987 0.0
C2465 C 0.81215 0.34824 0.23697 0.0
C2466 C 0.77837 0.34051 0.22974 0.0
C2467 C 0.78395 0.32363 0.21636 0.0
C2468 C 0.80374 0.31855 0.2143 0.0
C2469 C 0.81745 0.33071 0.22469 0.0
C2470 C 0.75746 0.34629 0.23275 0.0
C2471 C 0.81053 0.30079 0.20033 0.0
H2472 H 0.74131 0.26884 0.20282 0.0
H2473 H 0.74689 0.31565 0.15529 0.0
H2474 H 0.78145 0.281 0.23286 0.0
H2475 H 0.76241 0.29659 0.24383 0.0
H2476 H 0.75783 0.27028 0.23502 0.0
H2477 H 0.7677 0.34368 0.15855 0.0
H2478 H 0.7696 0.35317 0.1851 0.0
H2479 H 0.78887 0.33789 0.17411 0.0
H2480 H 0.78815 0.36595 0.24938 0.0
H2481 H 0.83254 0.32668 0.22281 0.0
H2482 H 0.74927 0.33219 0.23683 0.0
H2483 H 0.75134 0.35258 0.21787 0.0
H2484 H 0.75532 0.35826 0.24523 0.0
H2485 H 0.80332 0.2861 0.20456 0.0
H2486 H 0.82631 0.29802 0.20136 0.0
H2487 H 0.80665 0.30439 0.1838 0.0
C2488 C 0.17542 0.28441 0.72834 0.0
C2489 C 0.18473 0.30365 0.72877 0.0
C2490 C 0.18394 0.26655 0.71864 0.0
C2491 C 0.20209 0.26797 0.70877 0.0
C2492 C 0.21168 0.28728 0.7096 0.0
C2493 C 0.20301 0.30469 0.71967 0.0
C2494 C 0.17331 0.24624 0.71855 0.0
C2495 C 0.23088 0.28979 0.6992 0.0
C2496 C 0.23211 0.21832 0.69661 0.0
C2497 C 0.22756 0.21456 0.67549 0.0
C2498 C 0.22389 0.23546 0.70762 0.0
C2499 C 0.21093 0.24951 0.69724 0.0
C2500 C 0.20674 0.2461 0.67568 0.0
C2501 C 0.21495 0.2286 0.66515 0.0
C2502 C 0.22876 0.23823 0.73053 0.0
C2503 C 0.19335 0.26081 0.66379 0.0
H2504 H 0.16124 0.28349 0.73509 0.0
H2505 H 0.21031 0.31946 0.7197 0.0
H2506 H 0.16942 0.24198 0.70223 0.0
H2507 H 0.18269 0.23339 0.72483 0.0
H2508 H 0.16 0.24724 0.728 0.0
H2509 H 0.23672 0.30565 0.70169 0.0
H2510 H 0.24142 0.27799 0.70534 0.0
H2511 H 0.22941 0.28702 0.6821 0.0
H2512 H 0.24175 0.20751 0.70475 0.0
H2513 H 0.21122 0.22562 0.64891 0.0
H2514 H 0.21547 0.2377 0.73998 0.0
H2515 H 0.23509 0.2538 0.73319 0.0
H2516 H 0.23903 0.22595 0.73636 0.0
H2517 H 0.17887 0.26072 0.67087 0.0
H2518 H 0.19207 0.25648 0.64697 0.0
H2519 H 0.19854 0.27708 0.66491 0.0
C2520 C 0.24322 0.67189 0.21778 0.0
C2521 C 0.24423 0.67382 0.23977 0.0
C2522 C 0.25511 0.68345 0.20447 0.0
C2523 C 0.26818 0.69788 0.2131 0.0
C2524 C 0.26923 0.70009 0.23519 0.0
C2525 C 0.25758 0.68789 0.24816 0.0
C2526 C 0.25371 0.68018 0.18108 0.0
C2527 C 0.28271 0.71543 0.2452 0.0
C2528 C 0.31243 0.71245 0.18172 0.0
C2529 C 0.30693 0.73169 0.17231 0.0
C2530 C 0.29995 0.70131 0.1946 0.0
C2531 C 0.28147 0.70975 0.19912 0.0
C2532 C 0.2759 0.72942 0.19032 0.0
C2533 C 0.28855 0.74003 0.17693 0.0
C2534 C 0.30659 0.68037 0.20337 0.0
C2535 C 0.25654 0.73932 0.1951 0.0
H2536 H 0.23283 0.66159 0.21079 0.0
H2537 H 0.25909 0.68947 0.26497 0.0
H2538 H 0.24966 0.69516 0.17324 0.0
H2539 H 0.2679 0.67505 0.17488 0.0
H2540 H 0.24299 0.66828 0.17676 0.0
H2541 H 0.28072 0.71664 0.26242 0.0
H2542 H 0.2978 0.71049 0.24212 0.0
H2543 H 0.28045 0.73122 0.23822 0.0
H2544 H 0.32675 0.70599 0.17928 0.0
H2545 H 0.28389 0.75477 0.16997 0.0
H2546 H 0.29628 0.66812 0.19894 0.0
H2547 H 0.30706 0.68108 0.22074 0.0
H2548 H 0.32105 0.67549 0.19768 0.0
H2549 H 0.24499 0.72906 0.18939 0.0
H2550 H 0.25457 0.755 0.18777 0.0
H2551 H 0.25481 0.74097 0.21231 0.0
C2552 C 0.83861 0.32174 0.29623 0.0
C2553 C 0.85825 0.31725 0.29371 0.0
C2554 C 0.82638 0.30752 0.30587 0.0
C2555 C 0.83394 0.28815 0.31344 0.0
C2556 C 0.8536 0.28296 0.3099 0.0
C2557 C 0.86556 0.29764 0.30022 0.0
C2558 C 0.80561 0.31392 0.30917 0.0
C2559 C 0.86225 0.2624 0.3174 0.0
C2560 C 0.80775 0.26427 0.35997 0.0
C2561 C 0.79594 0.24963 0.35014 0.0
C2562 C 0.82037 0.2766 0.34827 0.0
C2563 C 0.82148 0.27413 0.32618 0.0
C2564 C 0.80989 0.25907 0.31624 0.0
C2565 C 0.79729 0.24712 0.32827 0.0
C2566 C 0.83223 0.29265 0.35953 0.0
C2567 C 0.81065 0.2557 0.29283 0.0
H2568 H 0.83301 0.33707 0.2919 0.0
H2569 H 0.88083 0.29429 0.29895 0.0
H2570 H 0.79602 0.30136 0.30377 0.0
H2571 H 0.80301 0.31634 0.32615 0.0
H2572 H 0.80159 0.32862 0.30073 0.0
H2573 H 0.87697 0.25959 0.31127 0.0
H2574 H 0.86295 0.26237 0.33478 0.0
H2575 H 0.85312 0.24922 0.31252 0.0
H2576 H 0.80683 0.26643 0.37678 0.0
H2577 H 0.78857 0.23556 0.32049 0.0
H2578 H 0.82835 0.30857 0.35368 0.0
H2579 H 0.84769 0.28983 0.35623 0.0
H2580 H 0.83013 0.29234 0.37677 0.0
H2581 H 0.80578 0.27021 0.2846 0.0
H2582 H 0.8015 0.24264 0.2876 0.0
H2583 H 0.82565 0.25227 0.28794 0.0
C2584 C 0.25293 0.32948 0.79565 0.0
C2585 C 0.25073 0.3514 0.79361 0.0
C2586 C 0.26837 0.32015 0.807 0.0
C2587 C 0.28213 0.33288 0.81694 0.0
C2588 C 0.27986 0.355 0.81534 0.0
C2589 C 0.26431 0.36395 0.80376 0.0
C2590 C 0.27005 0.29655 0.80813 0.0
C2591 C 0.29409 0.36927 0.82564 0.0
C2592 C 0.31505 0.30915 0.86008 0.0
C2593 C 0.33215 0.30509 0.84917 0.0
C2594 C 0.29866 0.31803 0.84987 0.0
C2595 C 0.2993 0.32302 0.82817 0.0
C2596 C 0.31648 0.31855 0.81709 0.0
C2597 C 0.33259 0.30979 0.82768 0.0
C2598 C 0.28074 0.32244 0.8624 0.0
C2599 C 0.318 0.32334 0.794 0.0
H2600 H 0.24241 0.31944 0.78848 0.0
H2601 H 0.26303 0.38083 0.80234 0.0
H2602 H 0.28373 0.29108 0.80093 0.0
H2603 H 0.27039 0.29141 0.82473 0.0
H2604 H 0.258 0.28879 0.79998 0.0
H2605 H 0.28996 0.38609 0.8238 0.0
H2606 H 0.29535 0.36565 0.8426 0.0
H2607 H 0.3085 0.36658 0.8187 0.0
H2608 H 0.31465 0.30581 0.87672 0.0
H2609 H 0.34573 0.30697 0.81914 0.0
H2610 H 0.26839 0.31442 0.85517 0.0
H2611 H 0.27728 0.3395 0.86223 0.0
H2612 H 0.2823 0.31722 0.87894 0.0
H2613 H 0.30658 0.31525 0.78514 0.0
H2614 H 0.33216 0.31843 0.78749 0.0
H2615 H 0.31581 0.34041 0.79137 0.0
C2616 C 0.22478 0.80628 0.32791 0.0
C2617 C 0.23321 0.80393 0.34789 0.0
C2618 C 0.21543 0.78967 0.31785 0.0
C2619 C 0.21445 0.76992 0.32784 0.0
C2620 C 0.22365 0.76716 0.34765 0.0
C2621 C 0.23278 0.78419 0.35748 0.0
C2622 C 0.20582 0.79359 0.29688 0.0
C2623 C 0.22329 0.74635 0.3588 0.0
C2624 C 0.17306 0.73348 0.31432 0.0
C2625 C 0.18193 0.71867 0.30107 0.0
C2626 C 0.18335 0.75036 0.32282 0.0
C2627 C 0.20307 0.75257 0.31802 0.0
C2628 C 0.2118 0.73819 0.30381 0.0
C2629 C 0.20107 0.72164 0.29539 0.0
C2630 C 0.17322 0.7655 0.33744 0.0
C2631 C 0.23267 0.73981 0.29803 0.0
H2632 H 0.22478 0.82146 0.32041 0.0
H2633 H 0.23899 0.78228 0.37301 0.0
H2634 H 0.21052 0.78153 0.28535 0.0
H2635 H 0.19004 0.79241 0.29852 0.0
H2636 H 0.20898 0.80931 0.2905 0.0
H2637 H 0.23221 0.74621 0.3733 0.0
H2638 H 0.2083 0.74277 0.36303 0.0
H2639 H 0.22854 0.73365 0.34826 0.0
H2640 H 0.15822 0.73138 0.31868 0.0
H2641 H 0.20783 0.71058 0.28481 0.0
H2642 H 0.17481 0.78181 0.33184 0.0
H2643 H 0.17989 0.76449 0.35326 0.0
H2644 H 0.15768 0.7623 0.33882 0.0
H2645 H 0.23548 0.7556 0.2917 0.0
H2646 H 0.23716 0.72788 0.28623 0.0
H2647 H 0.24177 0.73771 0.31226 0.0
C2648 C 0.82073 0.70211 0.81052 0.0
C2649 C 0.81907 0.68161 0.80272 0.0
C2650 C 0.80505 0.71304 0.81963 0.0
C2651 C 0.78698 0.70342 0.82109 0.0
C2652 C 0.78504 0.68292 0.81267 0.0
C2653 C 0.80107 0.67226 0.80371 0.0
C2654 C 0.80804 0.73474 0.82832 0.0
C2655 C 0.76611 0.67202 0.81362 0.0
C2656 C 0.75261 0.72286 0.86428 0.0
C2657 C 0.73987 0.73647 0.85338 0.0
C2658 C 0.76778 0.712 0.854 0.0
C2659 C 0.77045 0.71454 0.83211 0.0
C2660 C 0.75766 0.72822 0.821 0.0
C2661 C 0.74267 0.73897 0.83168 0.0
C2662 C 0.7811 0.69788 0.86667 0.0
C2663 C 0.75976 0.73146 0.7977 0.0
H2664 H 0.83454 0.70946 0.81006 0.0
H2665 H 0.79967 0.65637 0.798 0.0
H2666 H 0.79737 0.74599 0.82143 0.0
H2667 H 0.80579 0.73471 0.84552 0.0
H2668 H 0.82267 0.74045 0.82515 0.0
H2669 H 0.76651 0.65675 0.80522 0.0
H2670 H 0.76228 0.66922 0.83021 0.0
H2671 H 0.75455 0.68212 0.80667 0.0
H2672 H 0.7509 0.72086 0.88101 0.0
H2673 H 0.73285 0.74908 0.82288 0.0
H2674 H 0.79604 0.7034 0.86553 0.0
H2675 H 0.78098 0.68172 0.86024 0.0
H2676 H 0.77708 0.69735 0.88347 0.0
H2677 H 0.77412 0.7377 0.79428 0.0
H2678 H 0.74864 0.74247 0.79123 0.0
H2679 H 0.75873 0.71623 0.78941 0.0
C2680 C 0.7355 0.83091 0.73413 0.0
C2681 C 0.7328 0.85283 0.73318 0.0
C2682 C 0.72503 0.81854 0.74812 0.0
C2683 C 0.71139 0.82816 0.76167 0.0
C2684 C 0.70848 0.85023 0.76071 0.0
C2685 C 0.71913 0.86223 0.74653 0.0
C2686 C 0.72868 0.79514 0.7485 0.0
C2687 C 0.69428 0.86126 0.77495 0.0
C2688 C 0.6725 0.79691 0.78945 0.0
C2689 C 0.68023 0.79487 0.80973 0.0
C2690 C 0.68271 0.80702 0.7734 0.0
C2691 C 0.70103 0.81543 0.77774 0.0
C2692 C 0.70912 0.81261 0.79799 0.0
C2693 C 0.69864 0.80253 0.81362 0.0
C2694 C 0.67354 0.80948 0.75203 0.0
C2695 C 0.72854 0.82114 0.80355 0.0
H2696 H 0.74568 0.8233 0.72367 0.0
H2697 H 0.71694 0.87909 0.74618 0.0
H2698 H 0.73412 0.79028 0.76419 0.0
H2699 H 0.71506 0.78689 0.74571 0.0
H2700 H 0.73927 0.78992 0.73654 0.0
H2701 H 0.69314 0.87837 0.77184 0.0
H2702 H 0.67987 0.85448 0.77298 0.0
H2703 H 0.69867 0.85888 0.79155 0.0
H2704 H 0.65816 0.79141 0.78639 0.0
H2705 H 0.70457 0.80156 0.82926 0.0
H2706 H 0.68368 0.80418 0.73968 0.0
H2707 H 0.67006 0.82628 0.74911 0.0
H2708 H 0.66014 0.80049 0.75053 0.0
H2709 H 0.73943 0.81574 0.79202 0.0
H2710 H 0.73345 0.8163 0.81947 0.0
H2711 H 0.72786 0.83852 0.80292 0.0
C2712 C 0.7339 0.21153 0.30534 0.0
C2713 C 0.73446 0.1896 0.30686 0.0
C2714 C 0.72628 0.22185 0.28748 0.0
C2715 C 0.71883 0.21 0.2706 0.0
C2716 C 0.71989 0.18776 0.27181 0.0
C2717 C 0.72761 0.17785 0.28993 0.0
C2718 C 0.72558 0.2455 0.28704 0.0
C2719 C 0.71233 0.1744 0.2542 0.0
C2720 C 0.68014 0.23343 0.23374 0.0
C2721 C 0.6907 0.23787 0.21573 0.0
C2722 C 0.68919 0.22506 0.2519 0.0
C2723 C 0.7093 0.22077 0.25206 0.0
C2724 C 0.72009 0.22603 0.23413 0.0
C2725 C 0.71067 0.23436 0.21624 0.0
C2726 C 0.67706 0.21994 0.27061 0.0
C2727 C 0.74149 0.22193 0.23344 0.0
H2728 H 0.73883 0.22068 0.31848 0.0
H2729 H 0.72772 0.16092 0.29115 0.0
H2730 H 0.73221 0.25131 0.27247 0.0
H2731 H 0.71041 0.25119 0.28704 0.0
H2732 H 0.7331 0.25243 0.30072 0.0
H2733 H 0.71513 0.15742 0.25696 0.0
H2734 H 0.69661 0.17717 0.25244 0.0
H2735 H 0.71902 0.17884 0.23918 0.0
H2736 H 0.66466 0.23549 0.23326 0.0
H2737 H 0.71883 0.23726 0.20218 0.0
H2738 H 0.68311 0.22712 0.28499 0.0
H2739 H 0.6772 0.20273 0.27305 0.0
H2740 H 0.66194 0.22554 0.26865 0.0
H2741 H 0.74855 0.22871 0.24745 0.0
H2742 H 0.74805 0.22859 0.21918 0.0
H2743 H 0.74451 0.20479 0.23369 0.0
C2744 C 0.29796 0.18151 0.75342 0.0
C2745 C 0.30304 0.16944 0.73579 0.0
C2746 C 0.31162 0.19339 0.76431 0.0
C2747 C 0.33093 0.19334 0.75743 0.0
C2748 C 0.33629 0.18069 0.74005 0.0
C2749 C 0.32234 0.16892 0.7295 0.0
C2750 C 0.30526 0.20645 0.78285 0.0
C2751 C 0.35664 0.18018 0.73212 0.0
C2752 C 0.36002 0.24131 0.77205 0.0
C2753 C 0.37066 0.23417 0.78953 0.0
C2754 C 0.34744 0.22808 0.76121 0.0
C2755 C 0.34528 0.20712 0.76797 0.0
C2756 C 0.35638 0.19963 0.78523 0.0
C2757 C 0.36891 0.21318 0.79574 0.0
C2758 C 0.33605 0.23673 0.7428 0.0
C2759 C 0.35451 0.17748 0.79307 0.0
H2760 H 0.28318 0.18191 0.75859 0.0
H2761 H 0.32642 0.15997 0.71572 0.0
H2762 H 0.31433 0.20262 0.79675 0.0
H2763 H 0.30708 0.22331 0.77937 0.0
H2764 H 0.28999 0.204 0.78689 0.0
H2765 H 0.35878 0.16867 0.71922 0.0
H2766 H 0.36036 0.19593 0.72631 0.0
H2767 H 0.3668 0.17617 0.74506 0.0
H2768 H 0.36135 0.2574 0.76697 0.0
H2769 H 0.37675 0.20754 0.80943 0.0
H2770 H 0.3205 0.23664 0.74639 0.0
H2771 H 0.33836 0.22667 0.72881 0.0
H2772 H 0.34 0.25301 0.73886 0.0
H2773 H 0.33976 0.17526 0.79896 0.0
H2774 H 0.36489 0.17366 0.80589 0.0
H2775 H 0.35683 0.16616 0.78006 0.0
C2776 C 0.29244 0.82269 0.28393 0.0
C2777 C 0.29259 0.84475 0.28491 0.0
C2778 C 0.30389 0.81122 0.26952 0.0
C2779 C 0.31604 0.82189 0.25558 0.0
C2780 C 0.31637 0.84411 0.25654 0.0
C2781 C 0.30474 0.85519 0.27108 0.0
C2782 C 0.30293 0.78763 0.26914 0.0
C2783 C 0.32892 0.85626 0.24196 0.0
C2784 C 0.35822 0.79424 0.2272 0.0
C2785 C 0.35065 0.79152 0.20695 0.0
C2786 C 0.34696 0.8033 0.24342 0.0
C2787 C 0.32768 0.81002 0.23934 0.0
C2788 C 0.31983 0.80649 0.21912 0.0
C2789 C 0.3314 0.79754 0.20329 0.0
C2790 C 0.35601 0.80666 0.26467 0.0
C2791 C 0.29945 0.8132 0.21378 0.0
H2792 H 0.28352 0.81424 0.2947 0.0
H2793 H 0.30498 0.87215 0.27135 0.0
H2794 H 0.29791 0.7823 0.25352 0.0
H2795 H 0.31745 0.78056 0.27176 0.0
H2796 H 0.29311 0.78157 0.28124 0.0
H2797 H 0.32809 0.8734 0.24502 0.0
H2798 H 0.34409 0.85081 0.24364 0.0
H2799 H 0.32455 0.85341 0.22546 0.0
H2800 H 0.37324 0.79039 0.23007 0.0
H2801 H 0.32564 0.79635 0.18757 0.0
H2802 H 0.34663 0.80069 0.27718 0.0
H2803 H 0.35765 0.82369 0.26745 0.0
H2804 H 0.37036 0.79879 0.26606 0.0
H2805 H 0.2894 0.80717 0.22561 0.0
H2806 H 0.29493 0.8076 0.19804 0.0
H2807 H 0.29814 0.83056 0.21406 0.0
loop_
_geom_bond_atom_site_label_1
_geom_bond_atom_site_label_2
_geom_bond_distance
_geom_bond_site_symmetry_2
_ccdc_geom_bond_type
C0 C1 1.443 . S
C0 N4 1.376 . S
C0 C38 1.389 . S
C1 C0 1.443 . S
C1 C2 1.340 . S
C1 H41 0.951 . S
C2 C1 1.340 . S
C2 C3 1.439 . S
C2 H42 0.950 . S
C3 C2 1.439 . S
C3 N4 1.374 . S
C3 C37 1.395 . S
N4 C0 1.376 . S
N4 C3 1.374 . S
N4 Co5 2.008 . S
Co5 N4 2.008 . S
Co5 N6 1.995 . S
Co5 N11 2.008 . S
Co5 N16 1.995 . S
Co5 N21 2.282 . S
Co5 N27 2.282 . S
N6 Co5 1.995 . S
N6 C7 1.376 . S
N6 C10 1.383 . S
C7 N6 1.376 . S
C7 C8 1.446 . S
C7 C37 1.391 . S
C8 C7 1.446 . S
C8 C9 1.339 . S
C8 H43 0.949 . S
C9 C8 1.339 . S
C9 C10 1.439 . S
C9 H44 0.950 . S
C10 N6 1.383 . S
C10 C9 1.439 . S
C10 C39 1.392 . S
N11 Co5 2.008 . S
N11 C12 1.376 . S
N11 C15 1.374 . S
C12 N11 1.376 . S
C12 C13 1.443 . S
C12 C39 1.389 . S
C13 C12 1.443 . S
C13 C14 1.340 . S
C13 H45 0.951 . S
C14 C13 1.340 . S
C14 C15 1.439 . S
C14 H46 0.950 . S
C15 N11 1.374 . S
C15 C14 1.439 . S
C15 C40 1.395 . S
N16 Co5 1.995 . S
N16 C17 1.376 . S
N16 C20 1.383 . S
C17 N16 1.376 . S
C17 C18 1.446 . S
C17 C40 1.391 . S
C18 C17 1.446 . S
C18 C19 1.339 . S
C18 H47 0.949 . S
C19 C18 1.339 . S
C19 C20 1.439 . S
C19 H48 0.950 . S
C20 N16 1.383 . S
C20 C19 1.439 . S
C20 C38 1.392 . S
N21 Co5 2.282 . S
N21 C24 1.332 . S
N21 C26 1.332 . S
C22 C23 1.386 . S
C22 C25 1.388 . S
C23 C22 1.386 . S
C23 C24 1.382 . S
C23 H49 0.950 . S
C24 N21 1.332 . S
C24 C23 1.382 . S
C24 H35 0.952 . S
C25 C22 1.388 . S
C25 C26 1.382 . S
C25 H50 0.950 . S
C26 N21 1.332 . S
C26 C25 1.382 . S
C26 H36 0.948 . S
N27 Co5 2.282 . S
N27 C31 1.332 . S
N27 C32 1.332 . S
C28 C29 1.388 . S
C28 C32 1.382 . S
C28 H51 0.950 . S
C29 C28 1.388 . S
C29 C30 1.386 . S
C30 C29 1.386 . S
C30 C31 1.382 . S
C30 H52 0.950 . S
C31 N27 1.332 . S
C31 C30 1.382 . S
C31 H33 0.952 . S
C32 N27 1.332 . S
C32 C28 1.382 . S
C32 H34 0.948 . S
H33 C31 0.952 . S
H34 C32 0.948 . S
H35 C24 0.952 . S
H36 C26 0.948 . S
C37 C3 1.395 . S
C37 C7 1.391 . S
C38 C0 1.389 . S
C38 C20 1.392 . S
C39 C10 1.392 . S
C39 C12 1.389 . S
C40 C15 1.395 . S
C40 C17 1.391 . S
H41 C1 0.951 . S
H42 C2 0.950 . S
H43 C8 0.949 . S
H44 C9 0.950 . S
H45 C13 0.951 . S
H46 C14 0.950 . S
H47 C18 0.949 . S
H48 C19 0.950 . S
H49 C23 0.950 . S
H50 C25 0.950 . S
H51 C28 0.950 . S
H52 C30 0.950 . S
C53 C54 1.443 . S
C53 N57 1.376 . S
C53 C91 1.389 . S
C54 C53 1.443 . S
C54 C55 1.340 . S
C54 H94 0.951 . S
C55 C54 1.340 . S
C55 C56 1.439 . S
C55 H95 0.950 . S
C56 C55 1.439 . S
C56 N57 1.374 . S
C56 C90 1.395 . S
N57 C53 1.376 . S
N57 C56 1.374 . S
N57 Co58 2.008 . S
Co58 N57 2.008 . S
Co58 N59 1.995 . S
Co58 N64 2.008 . S
Co58 N69 1.995 . S
Co58 N74 2.282 . S
Co58 N80 2.282 . S
N59 Co58 1.995 . S
N59 C60 1.376 . S
N59 C63 1.383 . S
C60 N59 1.376 . S
C60 C61 1.446 . S
C60 C90 1.391 . S
C61 C60 1.446 . S
C61 C62 1.339 . S
C61 H96 0.949 . S
C62 C61 1.339 . S
C62 C63 1.439 . S
C62 H97 0.950 . S
C63 N59 1.383 . S
C63 C62 1.439 . S
C63 C92 1.392 . S
N64 Co58 2.008 . S
N64 C65 1.376 . S
N64 C68 1.374 . S
C65 N64 1.376 . S
C65 C66 1.443 . S
C65 C92 1.389 . S
C66 C65 1.443 . S
C66 C67 1.340 . S
C66 H98 0.951 . S
C67 C66 1.340 . S
C67 C68 1.439 . S
C67 H99 0.950 . S
C68 N64 1.374 . S
C68 C67 1.439 . S
C68 C93 1.395 . S
N69 Co58 1.995 . S
N69 C70 1.376 . S
N69 C73 1.383 . S
C70 N69 1.376 . S
C70 C71 1.446 . S
C70 C93 1.391 . S
C71 C70 1.446 . S
C71 C72 1.339 . S
C71 H100 0.949 . S
C72 C71 1.339 . S
C72 C73 1.439 . S
C72 H101 0.950 . S
C73 N69 1.383 . S
C73 C72 1.439 . S
C73 C91 1.392 . S
N74 Co58 2.282 . S
N74 C77 1.332 . S
N74 C79 1.332 . S
C75 C76 1.386 . S
C75 C78 1.388 . S
C76 C75 1.386 . S
C76 C77 1.382 . S
C76 H102 0.950 . S
C77 N74 1.332 . S
C77 C76 1.382 . S
C77 H88 0.952 . S
C78 C75 1.388 . S
C78 C79 1.382 . S
C78 H103 0.950 . S
C79 N74 1.332 . S
C79 C78 1.382 . S
C79 H89 0.948 . S
N80 Co58 2.282 . S
N80 C84 1.332 . S
N80 C85 1.332 . S
C81 C82 1.388 . S
C81 C85 1.382 . S
C81 H104 0.950 . S
C82 C81 1.388 . S
C82 C83 1.386 . S
C83 C82 1.386 . S
C83 C84 1.382 . S
C83 H105 0.950 . S
C84 N80 1.332 . S
C84 C83 1.382 . S
C84 H86 0.952 . S
C85 N80 1.332 . S
C85 C81 1.382 . S
C85 H87 0.948 . S
H86 C84 0.952 . S
H87 C85 0.948 . S
H88 C77 0.952 . S
H89 C79 0.948 . S
C90 C56 1.395 . S
C90 C60 1.391 . S
C91 C53 1.389 . S
C91 C73 1.392 . S
C92 C63 1.392 . S
C92 C65 1.389 . S
C93 C68 1.395 . S
C93 C70 1.391 . S
H94 C54 0.951 . S
H95 C55 0.950 . S
H96 C61 0.949 . S
H97 C62 0.950 . S
H98 C66 0.951 . S
H99 C67 0.950 . S
H100 C71 0.949 . S
H101 C72 0.950 . S
H102 C76 0.950 . S
H103 C78 0.950 . S
H104 C81 0.950 . S
H105 C83 0.950 . S
C106 C107 1.443 . S
C106 N110 1.376 . S
C106 C144 1.389 . S
C107 C106 1.443 . S
C107 C108 1.340 . S
C107 H147 0.951 . S
C108 C107 1.340 . S
C108 C109 1.439 . S
C108 H148 0.950 . S
C109 C108 1.439 . S
C109 N110 1.374 . S
C109 C143 1.395 . S
N110 C106 1.376 . S
N110 C109 1.374 . S
N110 Co111 2.008 . S
Co111 N110 2.008 . S
Co111 N112 1.995 . S
Co111 N117 2.008 . S
Co111 N122 1.995 . S
Co111 N127 2.282 . S
Co111 N133 2.282 . S
N112 Co111 1.995 . S
N112 C113 1.376 . S
N112 C116 1.383 . S
C113 N112 1.376 . S
C113 C114 1.446 . S
C113 C143 1.391 . S
C114 C113 1.446 . S
C114 C115 1.339 . S
C114 H149 0.949 . S
C115 C114 1.339 . S
C115 C116 1.439 . S
C115 H150 0.950 . S
C116 N112 1.383 . S
C116 C115 1.439 . S
C116 C145 1.392 . S
N117 Co111 2.008 . S
N117 C118 1.376 . S
N117 C121 1.374 . S
C118 N117 1.376 . S
C118 C119 1.443 . S
C118 C145 1.389 . S
C119 C118 1.443 . S
C119 C120 1.340 . S
C119 H151 0.951 . S
C120 C119 1.340 . S
C120 C121 1.439 . S
C120 H152 0.950 . S
C121 N117 1.374 . S
C121 C120 1.439 . S
C121 C146 1.395 . S
N122 Co111 1.995 . S
N122 C123 1.376 . S
N122 C126 1.383 . S
C123 N122 1.376 . S
C123 C124 1.446 . S
C123 C146 1.391 . S
C124 C123 1.446 . S
C124 C125 1.339 . S
C124 H153 0.949 . S
C125 C124 1.339 . S
C125 C126 1.439 . S
C125 H154 0.950 . S
C126 N122 1.383 . S
C126 C125 1.439 . S
C126 C144 1.392 . S
N127 Co111 2.282 . S
N127 C130 1.332 . S
N127 C132 1.332 . S
C128 C129 1.386 . S
C128 C131 1.388 . S
C129 C128 1.386 . S
C129 C130 1.382 . S
C129 H155 0.950 . S
C130 N127 1.332 . S
C130 C129 1.382 . S
C130 H141 0.952 . S
C131 C128 1.388 . S
C131 C132 1.382 . S
C131 H156 0.950 . S
C132 N127 1.332 . S
C132 C131 1.382 . S
C132 H142 0.948 . S
N133 Co111 2.282 . S
N133 C137 1.332 . S
N133 C138 1.332 . S
C134 C135 1.388 . S
C134 C138 1.382 . S
C134 H157 0.950 . S
C135 C134 1.388 . S
C135 C136 1.386 . S
C136 C135 1.386 . S
C136 C137 1.382 . S
C136 H158 0.950 . S
C137 N133 1.332 . S
C137 C136 1.382 . S
C137 H139 0.952 . S
C138 N133 1.332 . S
C138 C134 1.382 . S
C138 H140 0.948 . S
H139 C137 0.952 . S
H140 C138 0.948 . S
H141 C130 0.952 . S
H142 C132 0.948 . S
C143 C109 1.395 . S
C143 C113 1.391 . S
C144 C106 1.389 . S
C144 C126 1.392 . S
C145 C116 1.392 . S
C145 C118 1.389 . S
C146 C121 1.395 . S
C146 C123 1.391 . S
H147 C107 0.951 . S
H148 C108 0.950 . S
H149 C114 0.949 . S
H150 C115 0.950 . S
H151 C119 0.951 . S
H152 C120 0.950 . S
H153 C124 0.949 . S
H154 C125 0.950 . S
H155 C129 0.950 . S
H156 C131 0.950 . S
H157 C134 0.950 . S
H158 C136 0.950 . S
C159 C160 1.443 . S
C159 N163 1.376 . S
C159 C197 1.389 . S
C160 C159 1.443 . S
C160 C161 1.340 . S
C160 H200 0.951 . S
C161 C160 1.340 . S
C161 C162 1.439 . S
C161 H201 0.950 . S
C162 C161 1.439 . S
C162 N163 1.374 . S
C162 C196 1.395 . S
N163 C159 1.376 . S
N163 C162 1.374 . S
N163 Co164 2.008 . S
Co164 N163 2.008 . S
Co164 N165 1.995 . S
Co164 N170 2.008 . S
Co164 N175 1.995 . S
Co164 N180 2.282 . S
Co164 N186 2.282 . S
N165 Co164 1.995 . S
N165 C166 1.376 . S
N165 C169 1.383 . S
C166 N165 1.376 . S
C166 C167 1.446 . S
C166 C196 1.391 . S
C167 C166 1.446 . S
C167 C168 1.339 . S
C167 H202 0.949 . S
C168 C167 1.339 . S
C168 C169 1.439 . S
C168 H203 0.950 . S
C169 N165 1.383 . S
C169 C168 1.439 . S
C169 C198 1.392 . S
N170 Co164 2.008 . S
N170 C171 1.376 . S
N170 C174 1.374 . S
C171 N170 1.376 . S
C171 C172 1.443 . S
C171 C198 1.389 . S
C172 C171 1.443 . S
C172 C173 1.340 . S
C172 H204 0.951 . S
C173 C172 1.340 . S
C173 C174 1.439 . S
C173 H205 0.950 . S
C174 N170 1.374 . S
C174 C173 1.439 . S
C174 C199 1.395 . S
N175 Co164 1.995 . S
N175 C176 1.376 . S
N175 C179 1.383 . S
C176 N175 1.376 . S
C176 C177 1.446 . S
C176 C199 1.391 . S
C177 C176 1.446 . S
C177 C178 1.339 . S
C177 H206 0.949 . S
C178 C177 1.339 . S
C178 C179 1.439 . S
C178 H207 0.950 . S
C179 N175 1.383 . S
C179 C178 1.439 . S
C179 C197 1.392 . S
N180 Co164 2.282 . S
N180 C183 1.332 . S
N180 C185 1.332 . S
C181 C182 1.386 . S
C181 C184 1.388 . S
C182 C181 1.386 . S
C182 C183 1.382 . S
C182 H208 0.950 . S
C183 N180 1.332 . S
C183 C182 1.382 . S
C183 H194 0.952 . S
C184 C181 1.388 . S
C184 C185 1.382 . S
C184 H209 0.950 . S
C185 N180 1.332 . S
C185 C184 1.382 . S
C185 H195 0.948 . S
N186 Co164 2.282 . S
N186 C190 1.332 . S
N186 C191 1.332 . S
C187 C188 1.388 . S
C187 C191 1.382 . S
C187 H210 0.950 . S
C188 C187 1.388 . S
C188 C189 1.386 . S
C189 C188 1.386 . S
C189 C190 1.382 . S
C189 H211 0.950 . S
C190 N186 1.332 . S
C190 C189 1.382 . S
C190 H192 0.952 . S
C191 N186 1.332 . S
C191 C187 1.382 . S
C191 H193 0.948 . S
H192 C190 0.952 . S
H193 C191 0.948 . S
H194 C183 0.952 . S
H195 C185 0.948 . S
C196 C162 1.395 . S
C196 C166 1.391 . S
C197 C159 1.389 . S
C197 C179 1.392 . S
C198 C169 1.392 . S
C198 C171 1.389 . S
C199 C174 1.395 . S
C199 C176 1.391 . S
H200 C160 0.951 . S
H201 C161 0.950 . S
H202 C167 0.949 . S
H203 C168 0.950 . S
H204 C172 0.951 . S
H205 C173 0.950 . S
H206 C177 0.949 . S
H207 C178 0.950 . S
H208 C182 0.950 . S
H209 C184 0.950 . S
H210 C187 0.950 . S
H211 C189 0.950 . S
C212 C213 1.443 . S
C212 N216 1.376 . S
C212 C250 1.389 . S
C213 C212 1.443 . S
C213 C214 1.340 . S
C213 H253 0.951 . S
C214 C213 1.340 . S
C214 C215 1.439 . S
C214 H254 0.950 . S
C215 C214 1.439 . S
C215 N216 1.374 . S
C215 C249 1.395 . S
N216 C212 1.376 . S
N216 C215 1.374 . S
N216 Co217 2.008 . S
Co217 N216 2.008 . S
Co217 N218 1.995 . S
Co217 N223 2.008 . S
Co217 N228 1.995 . S
Co217 N233 2.282 . S
Co217 N239 2.282 . S
N218 Co217 1.995 . S
N218 C219 1.376 . S
N218 C222 1.383 . S
C219 N218 1.376 . S
C219 C220 1.446 . S
C219 C249 1.391 . S
C220 C219 1.446 . S
C220 C221 1.339 . S
C220 H255 0.949 . S
C221 C220 1.339 . S
C221 C222 1.439 . S
C221 H256 0.950 . S
C222 N218 1.383 . S
C222 C221 1.439 . S
C222 C251 1.392 . S
N223 Co217 2.008 . S
N223 C224 1.376 . S
N223 C227 1.374 . S
C224 N223 1.376 . S
C224 C225 1.443 . S
C224 C251 1.389 . S
C225 C224 1.443 . S
C225 C226 1.340 . S
C225 H257 0.951 . S
C226 C225 1.340 . S
C226 C227 1.439 . S
C226 H258 0.950 . S
C227 N223 1.374 . S
C227 C226 1.439 . S
C227 C252 1.395 . S
N228 Co217 1.995 . S
N228 C229 1.376 . S
N228 C232 1.383 . S
C229 N228 1.376 . S
C229 C230 1.446 . S
C229 C252 1.391 . S
C230 C229 1.446 . S
C230 C231 1.339 . S
C230 H259 0.949 . S
C231 C230 1.339 . S
C231 C232 1.439 . S
C231 H260 0.950 . S
C232 N228 1.383 . S
C232 C231 1.439 . S
C232 C250 1.392 . S
N233 Co217 2.282 . S
N233 C236 1.332 . S
N233 C238 1.332 . S
C234 C235 1.386 . S
C234 C237 1.388 . S
C235 C234 1.386 . S
C235 C236 1.382 . S
C235 H261 0.950 . S
C236 N233 1.332 . S
C236 C235 1.382 . S
C236 H247 0.952 . S
C237 C234 1.388 . S
C237 C238 1.382 . S
C237 H262 0.950 . S
C238 N233 1.332 . S
C238 C237 1.382 . S
C238 H248 0.948 . S
N239 Co217 2.282 . S
N239 C243 1.332 . S
N239 C244 1.332 . S
C240 C241 1.388 . S
C240 C244 1.382 . S
C240 H263 0.950 . S
C241 C240 1.388 . S
C241 C242 1.386 . S
C242 C241 1.386 . S
C242 C243 1.382 . S
C242 H264 0.950 . S
C243 N239 1.332 . S
C243 C242 1.382 . S
C243 H245 0.952 . S
C244 N239 1.332 . S
C244 C240 1.382 . S
C244 H246 0.948 . S
H245 C243 0.952 . S
H246 C244 0.948 . S
H247 C236 0.952 . S
H248 C238 0.948 . S
C249 C215 1.395 . S
C249 C219 1.391 . S
C250 C212 1.389 . S
C250 C232 1.392 . S
C251 C222 1.392 . S
C251 C224 1.389 . S
C252 C227 1.395 . S
C252 C229 1.391 . S
H253 C213 0.951 . S
H254 C214 0.950 . S
H255 C220 0.949 . S
H256 C221 0.950 . S
H257 C225 0.951 . S
H258 C226 0.950 . S
H259 C230 0.949 . S
H260 C231 0.950 . S
H261 C235 0.950 . S
H262 C237 0.950 . S
H263 C240 0.950 . S
H264 C242 0.950 . S
C265 C266 1.443 . S
C265 N269 1.376 . S
C265 C303 1.389 . S
C266 C265 1.443 . S
C266 C267 1.340 . S
C266 H306 0.951 . S
C267 C266 1.340 . S
C267 C268 1.439 . S
C267 H307 0.950 . S
C268 C267 1.439 . S
C268 N269 1.374 . S
C268 C302 1.395 . S
N269 C265 1.376 . S
N269 C268 1.374 . S
N269 Co270 2.008 . S
Co270 N269 2.008 . S
Co270 N271 1.995 . S
Co270 N276 2.008 . S
Co270 N281 1.995 . S
Co270 N286 2.282 . S
Co270 N292 2.282 . S
N271 Co270 1.995 . S
N271 C272 1.376 . S
N271 C275 1.383 . S
C272 N271 1.376 . S
C272 C273 1.446 . S
C272 C302 1.391 . S
C273 C272 1.446 . S
C273 C274 1.339 . S
C273 H308 0.949 . S
C274 C273 1.339 . S
C274 C275 1.439 . S
C274 H309 0.950 . S
C275 N271 1.383 . S
C275 C274 1.439 . S
C275 C304 1.392 . S
N276 Co270 2.008 . S
N276 C277 1.376 . S
N276 C280 1.374 . S
C277 N276 1.376 . S
C277 C278 1.443 . S
C277 C304 1.389 . S
C278 C277 1.443 . S
C278 C279 1.340 . S
C278 H310 0.951 . S
C279 C278 1.340 . S
C279 C280 1.439 . S
C279 H311 0.950 . S
C280 N276 1.374 . S
C280 C279 1.439 . S
C280 C305 1.395 . S
N281 Co270 1.995 . S
N281 C282 1.376 . S
N281 C285 1.383 . S
C282 N281 1.376 . S
C282 C283 1.446 . S
C282 C305 1.391 . S
C283 C282 1.446 . S
C283 C284 1.339 . S
C283 H312 0.949 . S
C284 C283 1.339 . S
C284 C285 1.439 . S
C284 H313 0.950 . S
C285 N281 1.383 . S
C285 C284 1.439 . S
C285 C303 1.392 . S
N286 Co270 2.282 . S
N286 C289 1.332 . S
N286 C291 1.332 . S
C287 C288 1.386 . S
C287 C290 1.388 . S
C288 C287 1.386 . S
C288 C289 1.382 . S
C288 H314 0.950 . S
C289 N286 1.332 . S
C289 C288 1.382 . S
C289 H300 0.952 . S
C290 C287 1.388 . S
C290 C291 1.382 . S
C290 H315 0.950 . S
C291 N286 1.332 . S
C291 C290 1.382 . S
C291 H301 0.948 . S
N292 Co270 2.282 . S
N292 C296 1.332 . S
N292 C297 1.332 . S
C293 C294 1.388 . S
C293 C297 1.382 . S
C293 H316 0.950 . S
C294 C293 1.388 . S
C294 C295 1.386 . S
C295 C294 1.386 . S
C295 C296 1.382 . S
C295 H317 0.950 . S
C296 N292 1.332 . S
C296 C295 1.382 . S
C296 H298 0.952 . S
C297 N292 1.332 . S
C297 C293 1.382 . S
C297 H299 0.948 . S
H298 C296 0.952 . S
H299 C297 0.948 . S
H300 C289 0.952 . S
H301 C291 0.948 . S
C302 C268 1.395 . S
C302 C272 1.391 . S
C303 C265 1.389 . S
C303 C285 1.392 . S
C304 C275 1.392 . S
C304 C277 1.389 . S
C305 C280 1.395 . S
C305 C282 1.391 . S
H306 C266 0.951 . S
H307 C267 0.950 . S
H308 C273 0.949 . S
H309 C274 0.950 . S
H310 C278 0.951 . S
H311 C279 0.950 . S
H312 C283 0.949 . S
H313 C284 0.950 . S
H314 C288 0.950 . S
H315 C290 0.950 . S
H316 C293 0.950 . S
H317 C295 0.950 . S
C318 C319 1.443 . S
C318 N322 1.376 . S
C318 C356 1.389 . S
C319 C318 1.443 . S
C319 C320 1.340 . S
C319 H359 0.951 . S
C320 C319 1.340 . S
C320 C321 1.439 . S
C320 H360 0.950 . S
C321 C320 1.439 . S
C321 N322 1.374 . S
C321 C355 1.395 . S
N322 C318 1.376 . S
N322 C321 1.374 . S
N322 Co323 2.008 . S
Co323 N322 2.008 . S
Co323 N324 1.995 . S
Co323 N329 2.008 . S
Co323 N334 1.995 . S
Co323 N339 2.282 . S
Co323 N345 2.282 . S
N324 Co323 1.995 . S
N324 C325 1.376 . S
N324 C328 1.383 . S
C325 N324 1.376 . S
C325 C326 1.446 . S
C325 C355 1.391 . S
C326 C325 1.446 . S
C326 C327 1.339 . S
C326 H361 0.949 . S
C327 C326 1.339 . S
C327 C328 1.439 . S
C327 H362 0.950 . S
C328 N324 1.383 . S
C328 C327 1.439 . S
C328 C357 1.392 . S
N329 Co323 2.008 . S
N329 C330 1.376 . S
N329 C333 1.374 . S
C330 N329 1.376 . S
C330 C331 1.443 . S
C330 C357 1.389 . S
C331 C330 1.443 . S
C331 C332 1.340 . S
C331 H363 0.951 . S
C332 C331 1.340 . S
C332 C333 1.439 . S
C332 H364 0.950 . S
C333 N329 1.374 . S
C333 C332 1.439 . S
C333 C358 1.395 . S
N334 Co323 1.995 . S
N334 C335 1.376 . S
N334 C338 1.383 . S
C335 N334 1.376 . S
C335 C336 1.446 . S
C335 C358 1.391 . S
C336 C335 1.446 . S
C336 C337 1.339 . S
C336 H365 0.949 . S
C337 C336 1.339 . S
C337 C338 1.439 . S
C337 H366 0.950 . S
C338 N334 1.383 . S
C338 C337 1.439 . S
C338 C356 1.392 . S
N339 Co323 2.282 . S
N339 C342 1.332 . S
N339 C344 1.332 . S
C340 C341 1.386 . S
C340 C343 1.388 . S
C341 C340 1.386 . S
C341 C342 1.382 . S
C341 H367 0.950 . S
C342 N339 1.332 . S
C342 C341 1.382 . S
C342 H353 0.952 . S
C343 C340 1.388 . S
C343 C344 1.382 . S
C343 H368 0.950 . S
C344 N339 1.332 . S
C344 C343 1.382 . S
C344 H354 0.948 . S
N345 Co323 2.282 . S
N345 C349 1.332 . S
N345 C350 1.332 . S
C346 C347 1.388 . S
C346 C350 1.382 . S
C346 H369 0.950 . S
C347 C346 1.388 . S
C347 C348 1.386 . S
C348 C347 1.386 . S
C348 C349 1.382 . S
C348 H370 0.950 . S
C349 N345 1.332 . S
C349 C348 1.382 . S
C349 H351 0.952 . S
C350 N345 1.332 . S
C350 C346 1.382 . S
C350 H352 0.948 . S
H351 C349 0.952 . S
H352 C350 0.948 . S
H353 C342 0.952 . S
H354 C344 0.948 . S
C355 C321 1.395 . S
C355 C325 1.391 . S
C356 C318 1.389 . S
C356 C338 1.392 . S
C357 C328 1.392 . S
C357 C330 1.389 . S
C358 C333 1.395 . S
C358 C335 1.391 . S
H359 C319 0.951 . S
H360 C320 0.950 . S
H361 C326 0.949 . S
H362 C327 0.950 . S
H363 C331 0.951 . S
H364 C332 0.950 . S
H365 C336 0.949 . S
H366 C337 0.950 . S
H367 C341 0.950 . S
H368 C343 0.950 . S
H369 C346 0.950 . S
H370 C348 0.950 . S
C371 C372 1.443 . S
C371 N375 1.376 . S
C371 C409 1.389 . S
C372 C371 1.443 . S
C372 C373 1.340 . S
C372 H412 0.951 . S
C373 C372 1.340 . S
C373 C374 1.439 . S
C373 H413 0.950 . S
C374 C373 1.439 . S
C374 N375 1.374 . S
C374 C408 1.395 . S
N375 C371 1.376 . S
N375 C374 1.374 . S
N375 Co376 2.008 . S
Co376 N375 2.008 . S
Co376 N377 1.995 . S
Co376 N382 2.008 . S
Co376 N387 1.995 . S
Co376 N392 2.282 . S
Co376 N398 2.282 . S
N377 Co376 1.995 . S
N377 C378 1.376 . S
N377 C381 1.383 . S
C378 N377 1.376 . S
C378 C379 1.446 . S
C378 C408 1.391 . S
C379 C378 1.446 . S
C379 C380 1.339 . S
C379 H414 0.949 . S
C380 C379 1.339 . S
C380 C381 1.439 . S
C380 H415 0.950 . S
C381 N377 1.383 . S
C381 C380 1.439 . S
C381 C410 1.392 . S
N382 Co376 2.008 . S
N382 C383 1.376 . S
N382 C386 1.374 . S
C383 N382 1.376 . S
C383 C384 1.443 . S
C383 C410 1.389 . S
C384 C383 1.443 . S
C384 C385 1.340 . S
C384 H416 0.951 . S
C385 C384 1.340 . S
C385 C386 1.439 . S
C385 H417 0.950 . S
C386 N382 1.374 . S
C386 C385 1.439 . S
C386 C411 1.395 . S
N387 Co376 1.995 . S
N387 C388 1.376 . S
N387 C391 1.383 . S
C388 N387 1.376 . S
C388 C389 1.446 . S
C388 C411 1.391 . S
C389 C388 1.446 . S
C389 C390 1.339 . S
C389 H418 0.949 . S
C390 C389 1.339 . S
C390 C391 1.439 . S
C390 H419 0.950 . S
C391 N387 1.383 . S
C391 C390 1.439 . S
C391 C409 1.392 . S
N392 Co376 2.282 . S
N392 C395 1.332 . S
N392 C397 1.332 . S
C393 C394 1.386 . S
C393 C396 1.388 . S
C394 C393 1.386 . S
C394 C395 1.382 . S
C394 H420 0.950 . S
C395 N392 1.332 . S
C395 C394 1.382 . S
C395 H406 0.952 . S
C396 C393 1.388 . S
C396 C397 1.382 . S
C396 H421 0.950 . S
C397 N392 1.332 . S
C397 C396 1.382 . S
C397 H407 0.948 . S
N398 Co376 2.282 . S
N398 C402 1.332 . S
N398 C403 1.332 . S
C399 C400 1.388 . S
C399 C403 1.382 . S
C399 H422 0.950 . S
C400 C399 1.388 . S
C400 C401 1.386 . S
C401 C400 1.386 . S
C401 C402 1.382 . S
C401 H423 0.950 . S
C402 N398 1.332 . S
C402 C401 1.382 . S
C402 H404 0.952 . S
C403 N398 1.332 . S
C403 C399 1.382 . S
C403 H405 0.948 . S
H404 C402 0.952 . S
H405 C403 0.948 . S
H406 C395 0.952 . S
H407 C397 0.948 . S
C408 C374 1.395 . S
C408 C378 1.391 . S
C409 C371 1.389 . S
C409 C391 1.392 . S
C410 C381 1.392 . S
C410 C383 1.389 . S
C411 C386 1.395 . S
C411 C388 1.391 . S
H412 C372 0.951 . S
H413 C373 0.950 . S
H414 C379 0.949 . S
H415 C380 0.950 . S
H416 C384 0.951 . S
H417 C385 0.950 . S
H418 C389 0.949 . S
H419 C390 0.950 . S
H420 C394 0.950 . S
H421 C396 0.950 . S
H422 C399 0.950 . S
H423 C401 0.950 . S
C424 C425 1.443 . S
C424 N428 1.376 . S
C424 C462 1.389 . S
C425 C424 1.443 . S
C425 C426 1.340 . S
C425 H465 0.951 . S
C426 C425 1.340 . S
C426 C427 1.439 . S
C426 H466 0.950 . S
C427 C426 1.439 . S
C427 N428 1.374 . S
C427 C461 1.395 . S
N428 C424 1.376 . S
N428 C427 1.374 . S
N428 Co429 2.008 . S
Co429 N428 2.008 . S
Co429 N430 1.995 . S
Co429 N435 2.008 . S
Co429 N440 1.995 . S
Co429 N445 2.282 . S
Co429 N451 2.282 . S
N430 Co429 1.995 . S
N430 C431 1.376 . S
N430 C434 1.383 . S
C431 N430 1.376 . S
C431 C432 1.446 . S
C431 C461 1.391 . S
C432 C431 1.446 . S
C432 C433 1.339 . S
C432 H467 0.949 . S
C433 C432 1.339 . S
C433 C434 1.439 . S
C433 H468 0.950 . S
C434 N430 1.383 . S
C434 C433 1.439 . S
C434 C463 1.392 . S
N435 Co429 2.008 . S
N435 C436 1.376 . S
N435 C439 1.374 . S
C436 N435 1.376 . S
C436 C437 1.443 . S
C436 C463 1.389 . S
C437 C436 1.443 . S
C437 C438 1.340 . S
C437 H469 0.951 . S
C438 C437 1.340 . S
C438 C439 1.439 . S
C438 H470 0.950 . S
C439 N435 1.374 . S
C439 C438 1.439 . S
C439 C464 1.395 . S
N440 Co429 1.995 . S
N440 C441 1.376 . S
N440 C444 1.383 . S
C441 N440 1.376 . S
C441 C442 1.446 . S
C441 C464 1.391 . S
C442 C441 1.446 . S
C442 C443 1.339 . S
C442 H471 0.949 . S
C443 C442 1.339 . S
C443 C444 1.439 . S
C443 H472 0.950 . S
C444 N440 1.383 . S
C444 C443 1.439 . S
C444 C462 1.392 . S
N445 Co429 2.282 . S
N445 C448 1.332 . S
N445 C450 1.332 . S
C446 C447 1.386 . S
C446 C449 1.388 . S
C447 C446 1.386 . S
C447 C448 1.382 . S
C447 H473 0.950 . S
C448 N445 1.332 . S
C448 C447 1.382 . S
C448 H459 0.952 . S
C449 C446 1.388 . S
C449 C450 1.382 . S
C449 H474 0.950 . S
C450 N445 1.332 . S
C450 C449 1.382 . S
C450 H460 0.948 . S
N451 Co429 2.282 . S
N451 C455 1.332 . S
N451 C456 1.332 . S
C452 C453 1.388 . S
C452 C456 1.382 . S
C452 H475 0.950 . S
C453 C452 1.388 . S
C453 C454 1.386 . S
C454 C453 1.386 . S
C454 C455 1.382 . S
C454 H476 0.950 . S
C455 N451 1.332 . S
C455 C454 1.382 . S
C455 H457 0.952 . S
C456 N451 1.332 . S
C456 C452 1.382 . S
C456 H458 0.948 . S
H457 C455 0.952 . S
H458 C456 0.948 . S
H459 C448 0.952 . S
H460 C450 0.948 . S
C461 C427 1.395 . S
C461 C431 1.391 . S
C462 C424 1.389 . S
C462 C444 1.392 . S
C463 C434 1.392 . S
C463 C436 1.389 . S
C464 C439 1.395 . S
C464 C441 1.391 . S
H465 C425 0.951 . S
H466 C426 0.950 . S
H467 C432 0.949 . S
H468 C433 0.950 . S
H469 C437 0.951 . S
H470 C438 0.950 . S
H471 C442 0.949 . S
H472 C443 0.950 . S
H473 C447 0.950 . S
H474 C449 0.950 . S
H475 C452 0.950 . S
H476 C454 0.950 . S
C477 C478 1.443 . S
C477 N481 1.376 . S
C477 C515 1.389 . S
C478 C477 1.443 . S
C478 C479 1.340 . S
C478 H518 0.951 . S
C479 C478 1.340 . S
C479 C480 1.439 . S
C479 H519 0.950 . S
C480 C479 1.439 . S
C480 N481 1.374 . S
C480 C514 1.395 . S
N481 C477 1.376 . S
N481 C480 1.374 . S
N481 Co482 2.008 . S
Co482 N481 2.008 . S
Co482 N483 1.995 . S
Co482 N488 2.008 . S
Co482 N493 1.995 . S
Co482 N498 2.282 . S
Co482 N504 2.282 . S
N483 Co482 1.995 . S
N483 C484 1.376 . S
N483 C487 1.383 . S
C484 N483 1.376 . S
C484 C485 1.446 . S
C484 C514 1.391 . S
C485 C484 1.446 . S
C485 C486 1.339 . S
C485 H520 0.949 . S
C486 C485 1.339 . S
C486 C487 1.439 . S
C486 H521 0.950 . S
C487 N483 1.383 . S
C487 C486 1.439 . S
C487 C516 1.392 . S
N488 Co482 2.008 . S
N488 C489 1.376 . S
N488 C492 1.374 . S
C489 N488 1.376 . S
C489 C490 1.443 . S
C489 C516 1.389 . S
C490 C489 1.443 . S
C490 C491 1.340 . S
C490 H522 0.951 . S
C491 C490 1.340 . S
C491 C492 1.439 . S
C491 H523 0.950 . S
C492 N488 1.374 . S
C492 C491 1.439 . S
C492 C517 1.395 . S
N493 Co482 1.995 . S
N493 C494 1.376 . S
N493 C497 1.383 . S
C494 N493 1.376 . S
C494 C495 1.446 . S
C494 C517 1.391 . S
C495 C494 1.446 . S
C495 C496 1.339 . S
C495 H524 0.949 . S
C496 C495 1.339 . S
C496 C497 1.439 . S
C496 H525 0.950 . S
C497 N493 1.383 . S
C497 C496 1.439 . S
C497 C515 1.392 . S
N498 Co482 2.282 . S
N498 C501 1.332 . S
N498 C503 1.332 . S
C499 C500 1.386 . S
C499 C502 1.388 . S
C500 C499 1.386 . S
C500 C501 1.382 . S
C500 H526 0.950 . S
C501 N498 1.332 . S
C501 C500 1.382 . S
C501 H512 0.952 . S
C502 C499 1.388 . S
C502 C503 1.382 . S
C502 H527 0.950 . S
C503 N498 1.332 . S
C503 C502 1.382 . S
C503 H513 0.948 . S
N504 Co482 2.282 . S
N504 C508 1.332 . S
N504 C509 1.332 . S
C505 C506 1.388 . S
C505 C509 1.382 . S
C505 H528 0.950 . S
C506 C505 1.388 . S
C506 C507 1.386 . S
C507 C506 1.386 . S
C507 C508 1.382 . S
C507 H529 0.950 . S
C508 N504 1.332 . S
C508 C507 1.382 . S
C508 H510 0.952 . S
C509 N504 1.332 . S
C509 C505 1.382 . S
C509 H511 0.948 . S
H510 C508 0.952 . S
H511 C509 0.948 . S
H512 C501 0.952 . S
H513 C503 0.948 . S
C514 C480 1.395 . S
C514 C484 1.391 . S
C515 C477 1.389 . S
C515 C497 1.392 . S
C516 C487 1.392 . S
C516 C489 1.389 . S
C517 C492 1.395 . S
C517 C494 1.391 . S
H518 C478 0.951 . S
H519 C479 0.950 . S
H520 C485 0.949 . S
H521 C486 0.950 . S
H522 C490 0.951 . S
H523 C491 0.950 . S
H524 C495 0.949 . S
H525 C496 0.950 . S
H526 C500 0.950 . S
H527 C502 0.950 . S
H528 C505 0.950 . S
H529 C507 0.950 . S
C530 C531 1.443 . S
C530 N534 1.376 . S
C530 C568 1.389 . S
C531 C530 1.443 . S
C531 C532 1.340 . S
C531 H571 0.951 . S
C532 C531 1.340 . S
C532 C533 1.439 . S
C532 H572 0.950 . S
C533 C532 1.439 . S
C533 N534 1.374 . S
C533 C567 1.395 . S
N534 C530 1.376 . S
N534 C533 1.374 . S
N534 Co535 2.008 . S
Co535 N534 2.008 . S
Co535 N536 1.995 . S
Co535 N541 2.008 . S
Co535 N546 1.995 . S
Co535 N551 2.282 . S
Co535 N557 2.282 . S
N536 Co535 1.995 . S
N536 C537 1.376 . S
N536 C540 1.383 . S
C537 N536 1.376 . S
C537 C538 1.446 . S
C537 C567 1.391 . S
C538 C537 1.446 . S
C538 C539 1.339 . S
C538 H573 0.949 . S
C539 C538 1.339 . S
C539 C540 1.439 . S
C539 H574 0.950 . S
C540 N536 1.383 . S
C540 C539 1.439 . S
C540 C569 1.392 . S
N541 Co535 2.008 . S
N541 C542 1.376 . S
N541 C545 1.374 . S
C542 N541 1.376 . S
C542 C543 1.443 . S
C542 C569 1.389 . S
C543 C542 1.443 . S
C543 C544 1.340 . S
C543 H575 0.951 . S
C544 C543 1.340 . S
C544 C545 1.439 . S
C544 H576 0.950 . S
C545 N541 1.374 . S
C545 C544 1.439 . S
C545 C570 1.395 . S
N546 Co535 1.995 . S
N546 C547 1.376 . S
N546 C550 1.383 . S
C547 N546 1.376 . S
C547 C548 1.446 . S
C547 C570 1.391 . S
C548 C547 1.446 . S
C548 C549 1.339 . S
C548 H577 0.949 . S
C549 C548 1.339 . S
C549 C550 1.439 . S
C549 H578 0.950 . S
C550 N546 1.383 . S
C550 C549 1.439 . S
C550 C568 1.392 . S
N551 Co535 2.282 . S
N551 C554 1.332 . S
N551 C556 1.332 . S
C552 C553 1.386 . S
C552 C555 1.388 . S
C553 C552 1.386 . S
C553 C554 1.382 . S
C553 H579 0.950 . S
C554 N551 1.332 . S
C554 C553 1.382 . S
C554 H565 0.952 . S
C555 C552 1.388 . S
C555 C556 1.382 . S
C555 H580 0.950 . S
C556 N551 1.332 . S
C556 C555 1.382 . S
C556 H566 0.948 . S
N557 Co535 2.282 . S
N557 C561 1.332 . S
N557 C562 1.332 . S
C558 C559 1.388 . S
C558 C562 1.382 . S
C558 H581 0.950 . S
C559 C558 1.388 . S
C559 C560 1.386 . S
C560 C559 1.386 . S
C560 C561 1.382 . S
C560 H582 0.950 . S
C561 N557 1.332 . S
C561 C560 1.382 . S
C561 H563 0.952 . S
C562 N557 1.332 . S
C562 C558 1.382 . S
C562 H564 0.948 . S
H563 C561 0.952 . S
H564 C562 0.948 . S
H565 C554 0.952 . S
H566 C556 0.948 . S
C567 C533 1.395 . S
C567 C537 1.391 . S
C568 C530 1.389 . S
C568 C550 1.392 . S
C569 C540 1.392 . S
C569 C542 1.389 . S
C570 C545 1.395 . S
C570 C547 1.391 . S
H571 C531 0.951 . S
H572 C532 0.950 . S
H573 C538 0.949 . S
H574 C539 0.950 . S
H575 C543 0.951 . S
H576 C544 0.950 . S
H577 C548 0.949 . S
H578 C549 0.950 . S
H579 C553 0.950 . S
H580 C555 0.950 . S
H581 C558 0.950 . S
H582 C560 0.950 . S
C583 C584 1.443 . S
C583 N587 1.376 . S
C583 C621 1.389 . S
C584 C583 1.443 . S
C584 C585 1.340 . S
C584 H624 0.951 . S
C585 C584 1.340 . S
C585 C586 1.439 . S
C585 H625 0.950 . S
C586 C585 1.439 . S
C586 N587 1.374 . S
C586 C620 1.395 . S
N587 C583 1.376 . S
N587 C586 1.374 . S
N587 Co588 2.008 . S
Co588 N587 2.008 . S
Co588 N589 1.995 . S
Co588 N594 2.008 . S
Co588 N599 1.995 . S
Co588 N604 2.282 . S
Co588 N610 2.282 . S
N589 Co588 1.995 . S
N589 C590 1.376 . S
N589 C593 1.383 . S
C590 N589 1.376 . S
C590 C591 1.446 . S
C590 C620 1.391 . S
C591 C590 1.446 . S
C591 C592 1.339 . S
C591 H626 0.949 . S
C592 C591 1.339 . S
C592 C593 1.439 . S
C592 H627 0.950 . S
C593 N589 1.383 . S
C593 C592 1.439 . S
C593 C622 1.392 . S
N594 Co588 2.008 . S
N594 C595 1.376 . S
N594 C598 1.374 . S
C595 N594 1.376 . S
C595 C596 1.443 . S
C595 C622 1.389 . S
C596 C595 1.443 . S
C596 C597 1.340 . S
C596 H628 0.951 . S
C597 C596 1.340 . S
C597 C598 1.439 . S
C597 H629 0.950 . S
C598 N594 1.374 . S
C598 C597 1.439 . S
C598 C623 1.395 . S
N599 Co588 1.995 . S
N599 C600 1.376 . S
N599 C603 1.383 . S
C600 N599 1.376 . S
C600 C601 1.446 . S
C600 C623 1.391 . S
C601 C600 1.446 . S
C601 C602 1.339 . S
C601 H630 0.949 . S
C602 C601 1.339 . S
C602 C603 1.439 . S
C602 H631 0.950 . S
C603 N599 1.383 . S
C603 C602 1.439 . S
C603 C621 1.392 . S
N604 Co588 2.282 . S
N604 C607 1.332 . S
N604 C609 1.332 . S
C605 C606 1.386 . S
C605 C608 1.388 . S
C606 C605 1.386 . S
C606 C607 1.382 . S
C606 H632 0.950 . S
C607 N604 1.332 . S
C607 C606 1.382 . S
C607 H618 0.952 . S
C608 C605 1.388 . S
C608 C609 1.382 . S
C608 H633 0.950 . S
C609 N604 1.332 . S
C609 C608 1.382 . S
C609 H619 0.948 . S
N610 Co588 2.282 . S
N610 C614 1.332 . S
N610 C615 1.332 . S
C611 C612 1.388 . S
C611 C615 1.382 . S
C611 H634 0.950 . S
C612 C611 1.388 . S
C612 C613 1.386 . S
C613 C612 1.386 . S
C613 C614 1.382 . S
C613 H635 0.950 . S
C614 N610 1.332 . S
C614 C613 1.382 . S
C614 H616 0.952 . S
C615 N610 1.332 . S
C615 C611 1.382 . S
C615 H617 0.948 . S
H616 C614 0.952 . S
H617 C615 0.948 . S
H618 C607 0.952 . S
H619 C609 0.948 . S
C620 C586 1.395 . S
C620 C590 1.391 . S
C621 C583 1.389 . S
C621 C603 1.392 . S
C622 C593 1.392 . S
C622 C595 1.389 . S
C623 C598 1.395 . S
C623 C600 1.391 . S
H624 C584 0.951 . S
H625 C585 0.950 . S
H626 C591 0.949 . S
H627 C592 0.950 . S
H628 C596 0.951 . S
H629 C597 0.950 . S
H630 C601 0.949 . S
H631 C602 0.950 . S
H632 C606 0.950 . S
H633 C608 0.950 . S
H634 C611 0.950 . S
H635 C613 0.950 . S
C636 C637 1.443 . S
C636 N640 1.376 . S
C636 C674 1.389 . S
C637 C636 1.443 . S
C637 C638 1.340 . S
C637 H677 0.951 . S
C638 C637 1.340 . S
C638 C639 1.439 . S
C638 H678 0.950 . S
C639 C638 1.439 . S
C639 N640 1.374 . S
C639 C673 1.395 . S
N640 C636 1.376 . S
N640 C639 1.374 . S
N640 Co641 2.008 . S
Co641 N640 2.008 . S
Co641 N642 1.995 . S
Co641 N647 2.008 . S
Co641 N652 1.995 . S
Co641 N657 2.282 . S
Co641 N663 2.282 . S
N642 Co641 1.995 . S
N642 C643 1.376 . S
N642 C646 1.383 . S
C643 N642 1.376 . S
C643 C644 1.446 . S
C643 C673 1.391 . S
C644 C643 1.446 . S
C644 C645 1.339 . S
C644 H679 0.949 . S
C645 C644 1.339 . S
C645 C646 1.439 . S
C645 H680 0.950 . S
C646 N642 1.383 . S
C646 C645 1.439 . S
C646 C675 1.392 . S
N647 Co641 2.008 . S
N647 C648 1.376 . S
N647 C651 1.374 . S
C648 N647 1.376 . S
C648 C649 1.443 . S
C648 C675 1.389 . S
C649 C648 1.443 . S
C649 C650 1.340 . S
C649 H681 0.951 . S
C650 C649 1.340 . S
C650 C651 1.439 . S
C650 H682 0.950 . S
C651 N647 1.374 . S
C651 C650 1.439 . S
C651 C676 1.395 . S
N652 Co641 1.995 . S
N652 C653 1.376 . S
N652 C656 1.383 . S
C653 N652 1.376 . S
C653 C654 1.446 . S
C653 C676 1.391 . S
C654 C653 1.446 . S
C654 C655 1.339 . S
C654 H683 0.949 . S
C655 C654 1.339 . S
C655 C656 1.439 . S
C655 H684 0.950 . S
C656 N652 1.383 . S
C656 C655 1.439 . S
C656 C674 1.392 . S
N657 Co641 2.282 . S
N657 C660 1.332 . S
N657 C662 1.332 . S
C658 C659 1.386 . S
C658 C661 1.388 . S
C659 C658 1.386 . S
C659 C660 1.382 . S
C659 H685 0.950 . S
C660 N657 1.332 . S
C660 C659 1.382 . S
C660 H671 0.952 . S
C661 C658 1.388 . S
C661 C662 1.382 . S
C661 H686 0.950 . S
C662 N657 1.332 . S
C662 C661 1.382 . S
C662 H672 0.948 . S
N663 Co641 2.282 . S
N663 C667 1.332 . S
N663 C668 1.332 . S
C664 C665 1.388 . S
C664 C668 1.382 . S
C664 H687 0.950 . S
C665 C664 1.388 . S
C665 C666 1.386 . S
C666 C665 1.386 . S
C666 C667 1.382 . S
C666 H688 0.950 . S
C667 N663 1.332 . S
C667 C666 1.382 . S
C667 H669 0.952 . S
C668 N663 1.332 . S
C668 C664 1.382 . S
C668 H670 0.948 . S
H669 C667 0.952 . S
H670 C668 0.948 . S
H671 C660 0.952 . S
H672 C662 0.948 . S
C673 C639 1.395 . S
C673 C643 1.391 . S
C674 C636 1.389 . S
C674 C656 1.392 . S
C675 C646 1.392 . S
C675 C648 1.389 . S
C676 C651 1.395 . S
C676 C653 1.391 . S
H677 C637 0.951 . S
H678 C638 0.950 . S
H679 C644 0.949 . S
H680 C645 0.950 . S
H681 C649 0.951 . S
H682 C650 0.950 . S
H683 C654 0.949 . S
H684 C655 0.950 . S
H685 C659 0.950 . S
H686 C661 0.950 . S
H687 C664 0.950 . S
H688 C666 0.950 . S
C689 C690 1.443 . S
C689 N693 1.376 . S
C689 C727 1.389 . S
C690 C689 1.443 . S
C690 C691 1.340 . S
C690 H730 0.951 . S
C691 C690 1.340 . S
C691 C692 1.439 . S
C691 H731 0.950 . S
C692 C691 1.439 . S
C692 N693 1.374 . S
C692 C726 1.395 . S
N693 C689 1.376 . S
N693 C692 1.374 . S
N693 Co694 2.008 . S
Co694 N693 2.008 . S
Co694 N695 1.995 . S
Co694 N700 2.008 . S
Co694 N705 1.995 . S
Co694 N710 2.282 . S
Co694 N716 2.282 . S
N695 Co694 1.995 . S
N695 C696 1.376 . S
N695 C699 1.383 . S
C696 N695 1.376 . S
C696 C697 1.446 . S
C696 C726 1.391 . S
C697 C696 1.446 . S
C697 C698 1.339 . S
C697 H732 0.949 . S
C698 C697 1.339 . S
C698 C699 1.439 . S
C698 H733 0.950 . S
C699 N695 1.383 . S
C699 C698 1.439 . S
C699 C728 1.392 . S
N700 Co694 2.008 . S
N700 C701 1.376 . S
N700 C704 1.374 . S
C701 N700 1.376 . S
C701 C702 1.443 . S
C701 C728 1.389 . S
C702 C701 1.443 . S
C702 C703 1.340 . S
C702 H734 0.951 . S
C703 C702 1.340 . S
C703 C704 1.439 . S
C703 H735 0.950 . S
C704 N700 1.374 . S
C704 C703 1.439 . S
C704 C729 1.395 . S
N705 Co694 1.995 . S
N705 C706 1.376 . S
N705 C709 1.383 . S
C706 N705 1.376 . S
C706 C707 1.446 . S
C706 C729 1.391 . S
C707 C706 1.446 . S
C707 C708 1.339 . S
C707 H736 0.949 . S
C708 C707 1.339 . S
C708 C709 1.439 . S
C708 H737 0.950 . S
C709 N705 1.383 . S
C709 C708 1.439 . S
C709 C727 1.392 . S
N710 Co694 2.282 . S
N710 C713 1.332 . S
N710 C715 1.332 . S
C711 C712 1.386 . S
C711 C714 1.388 . S
C712 C711 1.386 . S
C712 C713 1.382 . S
C712 H738 0.950 . S
C713 N710 1.332 . S
C713 C712 1.382 . S
C713 H724 0.952 . S
C714 C711 1.388 . S
C714 C715 1.382 . S
C714 H739 0.950 . S
C715 N710 1.332 . S
C715 C714 1.382 . S
C715 H725 0.948 . S
N716 Co694 2.282 . S
N716 C720 1.332 . S
N716 C721 1.332 . S
C717 C718 1.388 . S
C717 C721 1.382 . S
C717 H740 0.950 . S
C718 C717 1.388 . S
C718 C719 1.386 . S
C719 C718 1.386 . S
C719 C720 1.382 . S
C719 H741 0.950 . S
C720 N716 1.332 . S
C720 C719 1.382 . S
C720 H722 0.952 . S
C721 N716 1.332 . S
C721 C717 1.382 . S
C721 H723 0.948 . S
H722 C720 0.952 . S
H723 C721 0.948 . S
H724 C713 0.952 . S
H725 C715 0.948 . S
C726 C692 1.395 . S
C726 C696 1.391 . S
C727 C689 1.389 . S
C727 C709 1.392 . S
C728 C699 1.392 . S
C728 C701 1.389 . S
C729 C704 1.395 . S
C729 C706 1.391 . S
H730 C690 0.951 . S
H731 C691 0.950 . S
H732 C697 0.949 . S
H733 C698 0.950 . S
H734 C702 0.951 . S
H735 C703 0.950 . S
H736 C707 0.949 . S
H737 C708 0.950 . S
H738 C712 0.950 . S
H739 C714 0.950 . S
H740 C717 0.950 . S
H741 C719 0.950 . S
C742 C743 1.443 . S
C742 N746 1.376 . S
C742 C780 1.389 . S
C743 C742 1.443 . S
C743 C744 1.340 . S
C743 H783 0.951 . S
C744 C743 1.340 . S
C744 C745 1.439 . S
C744 H784 0.950 . S
C745 C744 1.439 . S
C745 N746 1.374 . S
C745 C779 1.395 . S
N746 C742 1.376 . S
N746 C745 1.374 . S
N746 Co747 2.008 . S
Co747 N746 2.008 . S
Co747 N748 1.995 . S
Co747 N753 2.008 . S
Co747 N758 1.995 . S
Co747 N763 2.282 . S
Co747 N769 2.282 . S
N748 Co747 1.995 . S
N748 C749 1.376 . S
N748 C752 1.383 . S
C749 N748 1.376 . S
C749 C750 1.446 . S
C749 C779 1.391 . S
C750 C749 1.446 . S
C750 C751 1.339 . S
C750 H785 0.949 . S
C751 C750 1.339 . S
C751 C752 1.439 . S
C751 H786 0.950 . S
C752 N748 1.383 . S
C752 C751 1.439 . S
C752 C781 1.392 . S
N753 Co747 2.008 . S
N753 C754 1.376 . S
N753 C757 1.374 . S
C754 N753 1.376 . S
C754 C755 1.443 . S
C754 C781 1.389 . S
C755 C754 1.443 . S
C755 C756 1.340 . S
C755 H787 0.951 . S
C756 C755 1.340 . S
C756 C757 1.439 . S
C756 H788 0.950 . S
C757 N753 1.374 . S
C757 C756 1.439 . S
C757 C782 1.395 . S
N758 Co747 1.995 . S
N758 C759 1.376 . S
N758 C762 1.383 . S
C759 N758 1.376 . S
C759 C760 1.446 . S
C759 C782 1.391 . S
C760 C759 1.446 . S
C760 C761 1.339 . S
C760 H789 0.949 . S
C761 C760 1.339 . S
C761 C762 1.439 . S
C761 H790 0.950 . S
C762 N758 1.383 . S
C762 C761 1.439 . S
C762 C780 1.392 . S
N763 Co747 2.282 . S
N763 C766 1.332 . S
N763 C768 1.332 . S
C764 C765 1.386 . S
C764 C767 1.388 . S
C765 C764 1.386 . S
C765 C766 1.382 . S
C765 H791 0.950 . S
C766 N763 1.332 . S
C766 C765 1.382 . S
C766 H777 0.952 . S
C767 C764 1.388 . S
C767 C768 1.382 . S
C767 H792 0.950 . S
C768 N763 1.332 . S
C768 C767 1.382 . S
C768 H778 0.948 . S
N769 Co747 2.282 . S
N769 C773 1.332 . S
N769 C774 1.332 . S
C770 C771 1.388 . S
C770 C774 1.382 . S
C770 H793 0.950 . S
C771 C770 1.388 . S
C771 C772 1.386 . S
C772 C771 1.386 . S
C772 C773 1.382 . S
C772 H794 0.950 . S
C773 N769 1.332 . S
C773 C772 1.382 . S
C773 H775 0.952 . S
C774 N769 1.332 . S
C774 C770 1.382 . S
C774 H776 0.948 . S
H775 C773 0.952 . S
H776 C774 0.948 . S
H777 C766 0.952 . S
H778 C768 0.948 . S
C779 C745 1.395 . S
C779 C749 1.391 . S
C780 C742 1.389 . S
C780 C762 1.392 . S
C781 C752 1.392 . S
C781 C754 1.389 . S
C782 C757 1.395 . S
C782 C759 1.391 . S
H783 C743 0.951 . S
H784 C744 0.950 . S
H785 C750 0.949 . S
H786 C751 0.950 . S
H787 C755 0.951 . S
H788 C756 0.950 . S
H789 C760 0.949 . S
H790 C761 0.950 . S
H791 C765 0.950 . S
H792 C767 0.950 . S
H793 C770 0.950 . S
H794 C772 0.950 . S
C795 C796 1.443 . S
C795 N799 1.376 . S
C795 C833 1.389 . S
C796 C795 1.443 . S
C796 C797 1.340 . S
C796 H836 0.951 . S
C797 C796 1.340 . S
C797 C798 1.439 . S
C797 H837 0.950 . S
C798 C797 1.439 . S
C798 N799 1.374 . S
C798 C832 1.395 . S
N799 C795 1.376 . S
N799 C798 1.374 . S
N799 Co800 2.008 . S
Co800 N799 2.008 . S
Co800 N801 1.995 . S
Co800 N806 2.008 . S
Co800 N811 1.995 . S
Co800 N816 2.282 . S
Co800 N822 2.282 . S
N801 Co800 1.995 . S
N801 C802 1.376 . S
N801 C805 1.383 . S
C802 N801 1.376 . S
C802 C803 1.446 . S
C802 C832 1.391 . S
C803 C802 1.446 . S
C803 C804 1.339 . S
C803 H838 0.949 . S
C804 C803 1.339 . S
C804 C805 1.439 . S
C804 H839 0.950 . S
C805 N801 1.383 . S
C805 C804 1.439 . S
C805 C834 1.392 . S
N806 Co800 2.008 . S
N806 C807 1.376 . S
N806 C810 1.374 . S
C807 N806 1.376 . S
C807 C808 1.443 . S
C807 C834 1.389 . S
C808 C807 1.443 . S
C808 C809 1.340 . S
C808 H840 0.951 . S
C809 C808 1.340 . S
C809 C810 1.439 . S
C809 H841 0.950 . S
C810 N806 1.374 . S
C810 C809 1.439 . S
C810 C835 1.395 . S
N811 Co800 1.995 . S
N811 C812 1.376 . S
N811 C815 1.383 . S
C812 N811 1.376 . S
C812 C813 1.446 . S
C812 C835 1.391 . S
C813 C812 1.446 . S
C813 C814 1.339 . S
C813 H842 0.949 . S
C814 C813 1.339 . S
C814 C815 1.439 . S
C814 H843 0.950 . S
C815 N811 1.383 . S
C815 C814 1.439 . S
C815 C833 1.392 . S
N816 Co800 2.282 . S
N816 C819 1.332 . S
N816 C821 1.332 . S
C817 C818 1.386 . S
C817 C820 1.388 . S
C818 C817 1.386 . S
C818 C819 1.382 . S
C818 H844 0.950 . S
C819 N816 1.332 . S
C819 C818 1.382 . S
C819 H830 0.952 . S
C820 C817 1.388 . S
C820 C821 1.382 . S
C820 H845 0.950 . S
C821 N816 1.332 . S
C821 C820 1.382 . S
C821 H831 0.948 . S
N822 Co800 2.282 . S
N822 C826 1.332 . S
N822 C827 1.332 . S
C823 C824 1.388 . S
C823 C827 1.382 . S
C823 H846 0.950 . S
C824 C823 1.388 . S
C824 C825 1.386 . S
C825 C824 1.386 . S
C825 C826 1.382 . S
C825 H847 0.950 . S
C826 N822 1.332 . S
C826 C825 1.382 . S
C826 H828 0.952 . S
C827 N822 1.332 . S
C827 C823 1.382 . S
C827 H829 0.948 . S
H828 C826 0.952 . S
H829 C827 0.948 . S
H830 C819 0.952 . S
H831 C821 0.948 . S
C832 C798 1.395 . S
C832 C802 1.391 . S
C833 C795 1.389 . S
C833 C815 1.392 . S
C834 C805 1.392 . S
C834 C807 1.389 . S
C835 C810 1.395 . S
C835 C812 1.391 . S
H836 C796 0.951 . S
H837 C797 0.950 . S
H838 C803 0.949 . S
H839 C804 0.950 . S
H840 C808 0.951 . S
H841 C809 0.950 . S
H842 C813 0.949 . S
H843 C814 0.950 . S
H844 C818 0.950 . S
H845 C820 0.950 . S
H846 C823 0.950 . S
H847 C825 0.950 . S
C848 C849 1.443 . S
C848 N852 1.376 . S
C848 C886 1.389 . S
C849 C848 1.443 . S
C849 C850 1.340 . S
C849 H889 0.951 . S
C850 C849 1.340 . S
C850 C851 1.439 . S
C850 H890 0.950 . S
C851 C850 1.439 . S
C851 N852 1.374 . S
C851 C885 1.395 . S
N852 C848 1.376 . S
N852 C851 1.374 . S
N852 Co853 2.008 . S
Co853 N852 2.008 . S
Co853 N854 1.995 . S
Co853 N859 2.008 . S
Co853 N864 1.995 . S
Co853 N869 2.282 . S
Co853 N875 2.282 . S
N854 Co853 1.995 . S
N854 C855 1.376 . S
N854 C858 1.383 . S
C855 N854 1.376 . S
C855 C856 1.446 . S
C855 C885 1.391 . S
C856 C855 1.446 . S
C856 C857 1.339 . S
C856 H891 0.949 . S
C857 C856 1.339 . S
C857 C858 1.439 . S
C857 H892 0.950 . S
C858 N854 1.383 . S
C858 C857 1.439 . S
C858 C887 1.392 . S
N859 Co853 2.008 . S
N859 C860 1.376 . S
N859 C863 1.374 . S
C860 N859 1.376 . S
C860 C861 1.443 . S
C860 C887 1.389 . S
C861 C860 1.443 . S
C861 C862 1.340 . S
C861 H893 0.951 . S
C862 C861 1.340 . S
C862 C863 1.439 . S
C862 H894 0.950 . S
C863 N859 1.374 . S
C863 C862 1.439 . S
C863 C888 1.395 . S
N864 Co853 1.995 . S
N864 C865 1.376 . S
N864 C868 1.383 . S
C865 N864 1.376 . S
C865 C866 1.446 . S
C865 C888 1.391 . S
C866 C865 1.446 . S
C866 C867 1.339 . S
C866 H895 0.949 . S
C867 C866 1.339 . S
C867 C868 1.439 . S
C867 H896 0.950 . S
C868 N864 1.383 . S
C868 C867 1.439 . S
C868 C886 1.392 . S
N869 Co853 2.282 . S
N869 C872 1.332 . S
N869 C874 1.332 . S
C870 C871 1.386 . S
C870 C873 1.388 . S
C871 C870 1.386 . S
C871 C872 1.382 . S
C871 H897 0.950 . S
C872 N869 1.332 . S
C872 C871 1.382 . S
C872 H883 0.952 . S
C873 C870 1.388 . S
C873 C874 1.382 . S
C873 H898 0.950 . S
C874 N869 1.332 . S
C874 C873 1.382 . S
C874 H884 0.948 . S
N875 Co853 2.282 . S
N875 C879 1.332 . S
N875 C880 1.332 . S
C876 C877 1.388 . S
C876 C880 1.382 . S
C876 H899 0.950 . S
C877 C876 1.388 . S
C877 C878 1.386 . S
C878 C877 1.386 . S
C878 C879 1.382 . S
C878 H900 0.950 . S
C879 N875 1.332 . S
C879 C878 1.382 . S
C879 H881 0.952 . S
C880 N875 1.332 . S
C880 C876 1.382 . S
C880 H882 0.948 . S
H881 C879 0.952 . S
H882 C880 0.948 . S
H883 C872 0.952 . S
H884 C874 0.948 . S
C885 C851 1.395 . S
C885 C855 1.391 . S
C886 C848 1.389 . S
C886 C868 1.392 . S
C887 C858 1.392 . S
C887 C860 1.389 . S
C888 C863 1.395 . S
C888 C865 1.391 . S
H889 C849 0.951 . S
H890 C850 0.950 . S
H891 C856 0.949 . S
H892 C857 0.950 . S
H893 C861 0.951 . S
H894 C862 0.950 . S
H895 C866 0.949 . S
H896 C867 0.950 . S
H897 C871 0.950 . S
H898 C873 0.950 . S
H899 C876 0.950 . S
H900 C878 0.950 . S
C901 C902 1.443 . S
C901 N905 1.376 . S
C901 C939 1.389 . S
C902 C901 1.443 . S
C902 C903 1.340 . S
C902 H942 0.951 . S
C903 C902 1.340 . S
C903 C904 1.439 . S
C903 H943 0.950 . S
C904 C903 1.439 . S
C904 N905 1.374 . S
C904 C938 1.395 . S
N905 C901 1.376 . S
N905 C904 1.374 . S
N905 Co906 2.008 . S
Co906 N905 2.008 . S
Co906 N907 1.995 . S
Co906 N912 2.008 . S
Co906 N917 1.995 . S
Co906 N922 2.282 . S
Co906 N928 2.282 . S
N907 Co906 1.995 . S
N907 C908 1.376 . S
N907 C911 1.383 . S
C908 N907 1.376 . S
C908 C909 1.446 . S
C908 C938 1.391 . S
C909 C908 1.446 . S
C909 C910 1.339 . S
C909 H944 0.949 . S
C910 C909 1.339 . S
C910 C911 1.439 . S
C910 H945 0.950 . S
C911 N907 1.383 . S
C911 C910 1.439 . S
C911 C940 1.392 . S
N912 Co906 2.008 . S
N912 C913 1.376 . S
N912 C916 1.374 . S
C913 N912 1.376 . S
C913 C914 1.443 . S
C913 C940 1.389 . S
C914 C913 1.443 . S
C914 C915 1.340 . S
C914 H946 0.951 . S
C915 C914 1.340 . S
C915 C916 1.439 . S
C915 H947 0.950 . S
C916 N912 1.374 . S
C916 C915 1.439 . S
C916 C941 1.395 . S
N917 Co906 1.995 . S
N917 C918 1.376 . S
N917 C921 1.383 . S
C918 N917 1.376 . S
C918 C919 1.446 . S
C918 C941 1.391 . S
C919 C918 1.446 . S
C919 C920 1.339 . S
C919 H948 0.949 . S
C920 C919 1.339 . S
C920 C921 1.439 . S
C920 H949 0.950 . S
C921 N917 1.383 . S
C921 C920 1.439 . S
C921 C939 1.392 . S
N922 Co906 2.282 . S
N922 C925 1.332 . S
N922 C927 1.332 . S
C923 C924 1.386 . S
C923 C926 1.388 . S
C924 C923 1.386 . S
C924 C925 1.382 . S
C924 H950 0.950 . S
C925 N922 1.332 . S
C925 C924 1.382 . S
C925 H936 0.952 . S
C926 C923 1.388 . S
C926 C927 1.382 . S
C926 H951 0.950 . S
C927 N922 1.332 . S
C927 C926 1.382 . S
C927 H937 0.948 . S
N928 Co906 2.282 . S
N928 C932 1.332 . S
N928 C933 1.332 . S
C929 C930 1.388 . S
C929 C933 1.382 . S
C929 H952 0.950 . S
C930 C929 1.388 . S
C930 C931 1.386 . S
C931 C930 1.386 . S
C931 C932 1.382 . S
C931 H953 0.950 . S
C932 N928 1.332 . S
C932 C931 1.382 . S
C932 H934 0.952 . S
C933 N928 1.332 . S
C933 C929 1.382 . S
C933 H935 0.948 . S
H934 C932 0.952 . S
H935 C933 0.948 . S
H936 C925 0.952 . S
H937 C927 0.948 . S
C938 C904 1.395 . S
C938 C908 1.391 . S
C939 C901 1.389 . S
C939 C921 1.392 . S
C940 C911 1.392 . S
C940 C913 1.389 . S
C941 C916 1.395 . S
C941 C918 1.391 . S
H942 C902 0.951 . S
H943 C903 0.950 . S
H944 C909 0.949 . S
H945 C910 0.950 . S
H946 C914 0.951 . S
H947 C915 0.950 . S
H948 C919 0.949 . S
H949 C920 0.950 . S
H950 C924 0.950 . S
H951 C926 0.950 . S
H952 C929 0.950 . S
H953 C931 0.950 . S
C954 C955 1.443 . S
C954 N958 1.376 . S
C954 C992 1.389 . S
C955 C954 1.443 . S
C955 C956 1.340 . S
C955 H995 0.951 . S
C956 C955 1.340 . S
C956 C957 1.439 . S
C956 H996 0.950 . S
C957 C956 1.439 . S
C957 N958 1.374 . S
C957 C991 1.395 . S
N958 C954 1.376 . S
N958 C957 1.374 . S
N958 Co959 2.008 . S
Co959 N958 2.008 . S
Co959 N960 1.995 . S
Co959 N965 2.008 . S
Co959 N970 1.995 . S
Co959 N975 2.282 . S
Co959 N981 2.282 . S
N960 Co959 1.995 . S
N960 C961 1.376 . S
N960 C964 1.383 . S
C961 N960 1.376 . S
C961 C962 1.446 . S
C961 C991 1.391 . S
C962 C961 1.446 . S
C962 C963 1.339 . S
C962 H997 0.949 . S
C963 C962 1.339 . S
C963 C964 1.439 . S
C963 H998 0.950 . S
C964 N960 1.383 . S
C964 C963 1.439 . S
C964 C993 1.392 . S
N965 Co959 2.008 . S
N965 C966 1.376 . S
N965 C969 1.374 . S
C966 N965 1.376 . S
C966 C967 1.443 . S
C966 C993 1.389 . S
C967 C966 1.443 . S
C967 C968 1.340 . S
C967 H999 0.951 . S
C968 C967 1.340 . S
C968 C969 1.439 . S
C968 H1000 0.950 . S
C969 N965 1.374 . S
C969 C968 1.439 . S
C969 C994 1.395 . S
N970 Co959 1.995 . S
N970 C971 1.376 . S
N970 C974 1.383 . S
C971 N970 1.376 . S
C971 C972 1.446 . S
C971 C994 1.391 . S
C972 C971 1.446 . S
C972 C973 1.339 . S
C972 H1001 0.949 . S
C973 C972 1.339 . S
C973 C974 1.439 . S
C973 H1002 0.950 . S
C974 N970 1.383 . S
C974 C973 1.439 . S
C974 C992 1.392 . S
N975 Co959 2.282 . S
N975 C978 1.332 . S
N975 C980 1.332 . S
C976 C977 1.386 . S
C976 C979 1.388 . S
C977 C976 1.386 . S
C977 C978 1.382 . S
C977 H1003 0.950 . S
C978 N975 1.332 . S
C978 C977 1.382 . S
C978 H989 0.952 . S
C979 C976 1.388 . S
C979 C980 1.382 . S
C979 H1004 0.950 . S
C980 N975 1.332 . S
C980 C979 1.382 . S
C980 H990 0.948 . S
N981 Co959 2.282 . S
N981 C985 1.332 . S
N981 C986 1.332 . S
C982 C983 1.388 . S
C982 C986 1.382 . S
C982 H1005 0.950 . S
C983 C982 1.388 . S
C983 C984 1.386 . S
C984 C983 1.386 . S
C984 C985 1.382 . S
C984 H1006 0.950 . S
C985 N981 1.332 . S
C985 C984 1.382 . S
C985 H987 0.952 . S
C986 N981 1.332 . S
C986 C982 1.382 . S
C986 H988 0.948 . S
H987 C985 0.952 . S
H988 C986 0.948 . S
H989 C978 0.952 . S
H990 C980 0.948 . S
C991 C957 1.395 . S
C991 C961 1.391 . S
C992 C954 1.389 . S
C992 C974 1.392 . S
C993 C964 1.392 . S
C993 C966 1.389 . S
C994 C969 1.395 . S
C994 C971 1.391 . S
H995 C955 0.951 . S
H996 C956 0.950 . S
H997 C962 0.949 . S
H998 C963 0.950 . S
H999 C967 0.951 . S
H1000 C968 0.950 . S
H1001 C972 0.949 . S
H1002 C973 0.950 . S
H1003 C977 0.950 . S
H1004 C979 0.950 . S
H1005 C982 0.950 . S
H1006 C984 0.950 . S
C1007 C1008 1.443 . S
C1007 N1011 1.376 . S
C1007 C1045 1.389 . S
C1008 C1007 1.443 . S
C1008 C1009 1.340 . S
C1008 H1048 0.951 . S
C1009 C1008 1.340 . S
C1009 C1010 1.439 . S
C1009 H1049 0.950 . S
C1010 C1009 1.439 . S
C1010 N1011 1.374 . S
C1010 C1044 1.395 . S
N1011 C1007 1.376 . S
N1011 C1010 1.374 . S
N1011 Co1012 2.008 . S
Co1012 N1011 2.008 . S
Co1012 N1013 1.995 . S
Co1012 N1018 2.008 . S
Co1012 N1023 1.995 . S
Co1012 N1028 2.282 . S
Co1012 N1034 2.282 . S
N1013 Co1012 1.995 . S
N1013 C1014 1.376 . S
N1013 C1017 1.383 . S
C1014 N1013 1.376 . S
C1014 C1015 1.446 . S
C1014 C1044 1.391 . S
C1015 C1014 1.446 . S
C1015 C1016 1.339 . S
C1015 H1050 0.949 . S
C1016 C1015 1.339 . S
C1016 C1017 1.439 . S
C1016 H1051 0.950 . S
C1017 N1013 1.383 . S
C1017 C1016 1.439 . S
C1017 C1046 1.392 . S
N1018 Co1012 2.008 . S
N1018 C1019 1.376 . S
N1018 C1022 1.374 . S
C1019 N1018 1.376 . S
C1019 C1020 1.443 . S
C1019 C1046 1.389 . S
C1020 C1019 1.443 . S
C1020 C1021 1.340 . S
C1020 H1052 0.951 . S
C1021 C1020 1.340 . S
C1021 C1022 1.439 . S
C1021 H1053 0.950 . S
C1022 N1018 1.374 . S
C1022 C1021 1.439 . S
C1022 C1047 1.395 . S
N1023 Co1012 1.995 . S
N1023 C1024 1.376 . S
N1023 C1027 1.383 . S
C1024 N1023 1.376 . S
C1024 C1025 1.446 . S
C1024 C1047 1.391 . S
C1025 C1024 1.446 . S
C1025 C1026 1.339 . S
C1025 H1054 0.949 . S
C1026 C1025 1.339 . S
C1026 C1027 1.439 . S
C1026 H1055 0.950 . S
C1027 N1023 1.383 . S
C1027 C1026 1.439 . S
C1027 C1045 1.392 . S
N1028 Co1012 2.282 . S
N1028 C1031 1.332 . S
N1028 C1033 1.332 . S
C1029 C1030 1.386 . S
C1029 C1032 1.388 . S
C1030 C1029 1.386 . S
C1030 C1031 1.382 . S
C1030 H1056 0.950 . S
C1031 N1028 1.332 . S
C1031 C1030 1.382 . S
C1031 H1042 0.952 . S
C1032 C1029 1.388 . S
C1032 C1033 1.382 . S
C1032 H1057 0.950 . S
C1033 N1028 1.332 . S
C1033 C1032 1.382 . S
C1033 H1043 0.948 . S
N1034 Co1012 2.282 . S
N1034 C1038 1.332 . S
N1034 C1039 1.332 . S
C1035 C1036 1.388 . S
C1035 C1039 1.382 . S
C1035 H1058 0.950 . S
C1036 C1035 1.388 . S
C1036 C1037 1.386 . S
C1037 C1036 1.386 . S
C1037 C1038 1.382 . S
C1037 H1059 0.950 . S
C1038 N1034 1.332 . S
C1038 C1037 1.382 . S
C1038 H1040 0.952 . S
C1039 N1034 1.332 . S
C1039 C1035 1.382 . S
C1039 H1041 0.948 . S
H1040 C1038 0.952 . S
H1041 C1039 0.948 . S
H1042 C1031 0.952 . S
H1043 C1033 0.948 . S
C1044 C1010 1.395 . S
C1044 C1014 1.391 . S
C1045 C1007 1.389 . S
C1045 C1027 1.392 . S
C1046 C1017 1.392 . S
C1046 C1019 1.389 . S
C1047 C1022 1.395 . S
C1047 C1024 1.391 . S
H1048 C1008 0.951 . S
H1049 C1009 0.950 . S
H1050 C1015 0.949 . S
H1051 C1016 0.950 . S
H1052 C1020 0.951 . S
H1053 C1021 0.950 . S
H1054 C1025 0.949 . S
H1055 C1026 0.950 . S
H1056 C1030 0.950 . S
H1057 C1032 0.950 . S
H1058 C1035 0.950 . S
H1059 C1037 0.950 . S
C1060 C1061 1.443 . S
C1060 N1064 1.376 . S
C1060 C1098 1.389 . S
C1061 C1060 1.443 . S
C1061 C1062 1.340 . S
C1061 H1101 0.951 . S
C1062 C1061 1.340 . S
C1062 C1063 1.439 . S
C1062 H1102 0.950 . S
C1063 C1062 1.439 . S
C1063 N1064 1.374 . S
C1063 C1097 1.395 . S
N1064 C1060 1.376 . S
N1064 C1063 1.374 . S
N1064 Co1065 2.008 . S
Co1065 N1064 2.008 . S
Co1065 N1066 1.995 . S
Co1065 N1071 2.008 . S
Co1065 N1076 1.995 . S
Co1065 N1081 2.282 . S
Co1065 N1087 2.282 . S
N1066 Co1065 1.995 . S
N1066 C1067 1.376 . S
N1066 C1070 1.383 . S
C1067 N1066 1.376 . S
C1067 C1068 1.446 . S
C1067 C1097 1.391 . S
C1068 C1067 1.446 . S
C1068 C1069 1.339 . S
C1068 H1103 0.949 . S
C1069 C1068 1.339 . S
C1069 C1070 1.439 . S
C1069 H1104 0.950 . S
C1070 N1066 1.383 . S
C1070 C1069 1.439 . S
C1070 C1099 1.392 . S
N1071 Co1065 2.008 . S
N1071 C1072 1.376 . S
N1071 C1075 1.374 . S
C1072 N1071 1.376 . S
C1072 C1073 1.443 . S
C1072 C1099 1.389 . S
C1073 C1072 1.443 . S
C1073 C1074 1.340 . S
C1073 H1105 0.951 . S
C1074 C1073 1.340 . S
C1074 C1075 1.439 . S
C1074 H1106 0.950 . S
C1075 N1071 1.374 . S
C1075 C1074 1.439 . S
C1075 C1100 1.395 . S
N1076 Co1065 1.995 . S
N1076 C1077 1.376 . S
N1076 C1080 1.383 . S
C1077 N1076 1.376 . S
C1077 C1078 1.446 . S
C1077 C1100 1.391 . S
C1078 C1077 1.446 . S
C1078 C1079 1.339 . S
C1078 H1107 0.949 . S
C1079 C1078 1.339 . S
C1079 C1080 1.439 . S
C1079 H1108 0.950 . S
C1080 N1076 1.383 . S
C1080 C1079 1.439 . S
C1080 C1098 1.392 . S
N1081 Co1065 2.282 . S
N1081 C1084 1.332 . S
N1081 C1086 1.332 . S
C1082 C1083 1.386 . S
C1082 C1085 1.388 . S
C1083 C1082 1.386 . S
C1083 C1084 1.382 . S
C1083 H1109 0.950 . S
C1084 N1081 1.332 . S
C1084 C1083 1.382 . S
C1084 H1095 0.952 . S
C1085 C1082 1.388 . S
C1085 C1086 1.382 . S
C1085 H1110 0.950 . S
C1086 N1081 1.332 . S
C1086 C1085 1.382 . S
C1086 H1096 0.948 . S
N1087 Co1065 2.282 . S
N1087 C1091 1.332 . S
N1087 C1092 1.332 . S
C1088 C1089 1.388 . S
C1088 C1092 1.382 . S
C1088 H1111 0.950 . S
C1089 C1088 1.388 . S
C1089 C1090 1.386 . S
C1090 C1089 1.386 . S
C1090 C1091 1.382 . S
C1090 H1112 0.950 . S
C1091 N1087 1.332 . S
C1091 C1090 1.382 . S
C1091 H1093 0.952 . S
C1092 N1087 1.332 . S
C1092 C1088 1.382 . S
C1092 H1094 0.948 . S
H1093 C1091 0.952 . S
H1094 C1092 0.948 . S
H1095 C1084 0.952 . S
H1096 C1086 0.948 . S
C1097 C1063 1.395 . S
C1097 C1067 1.391 . S
C1098 C1060 1.389 . S
C1098 C1080 1.392 . S
C1099 C1070 1.392 . S
C1099 C1072 1.389 . S
C1100 C1075 1.395 . S
C1100 C1077 1.391 . S
H1101 C1061 0.951 . S
H1102 C1062 0.950 . S
H1103 C1068 0.949 . S
H1104 C1069 0.950 . S
H1105 C1073 0.951 . S
H1106 C1074 0.950 . S
H1107 C1078 0.949 . S
H1108 C1079 0.950 . S
H1109 C1083 0.950 . S
H1110 C1085 0.950 . S
H1111 C1088 0.950 . S
H1112 C1090 0.950 . S
C1113 C1114 1.443 . S
C1113 N1117 1.376 . S
C1113 C1151 1.389 . S
C1114 C1113 1.443 . S
C1114 C1115 1.340 . S
C1114 H1154 0.951 . S
C1115 C1114 1.340 . S
C1115 C1116 1.439 . S
C1115 H1155 0.950 . S
C1116 C1115 1.439 . S
C1116 N1117 1.374 . S
C1116 C1150 1.395 . S
N1117 C1113 1.376 . S
N1117 C1116 1.374 . S
N1117 Co1118 2.008 . S
Co1118 N1117 2.008 . S
Co1118 N1119 1.995 . S
Co1118 N1124 2.008 . S
Co1118 N1129 1.995 . S
Co1118 N1134 2.282 . S
Co1118 N1140 2.282 . S
N1119 Co1118 1.995 . S
N1119 C1120 1.376 . S
N1119 C1123 1.383 . S
C1120 N1119 1.376 . S
C1120 C1121 1.446 . S
C1120 C1150 1.391 . S
C1121 C1120 1.446 . S
C1121 C1122 1.339 . S
C1121 H1156 0.949 . S
C1122 C1121 1.339 . S
C1122 C1123 1.439 . S
C1122 H1157 0.950 . S
C1123 N1119 1.383 . S
C1123 C1122 1.439 . S
C1123 C1152 1.392 . S
N1124 Co1118 2.008 . S
N1124 C1125 1.376 . S
N1124 C1128 1.374 . S
C1125 N1124 1.376 . S
C1125 C1126 1.443 . S
C1125 C1152 1.389 . S
C1126 C1125 1.443 . S
C1126 C1127 1.340 . S
C1126 H1158 0.951 . S
C1127 C1126 1.340 . S
C1127 C1128 1.439 . S
C1127 H1159 0.950 . S
C1128 N1124 1.374 . S
C1128 C1127 1.439 . S
C1128 C1153 1.395 . S
N1129 Co1118 1.995 . S
N1129 C1130 1.376 . S
N1129 C1133 1.383 . S
C1130 N1129 1.376 . S
C1130 C1131 1.446 . S
C1130 C1153 1.391 . S
C1131 C1130 1.446 . S
C1131 C1132 1.339 . S
C1131 H1160 0.949 . S
C1132 C1131 1.339 . S
C1132 C1133 1.439 . S
C1132 H1161 0.950 . S
C1133 N1129 1.383 . S
C1133 C1132 1.439 . S
C1133 C1151 1.392 . S
N1134 Co1118 2.282 . S
N1134 C1137 1.332 . S
N1134 C1139 1.332 . S
C1135 C1136 1.386 . S
C1135 C1138 1.388 . S
C1136 C1135 1.386 . S
C1136 C1137 1.382 . S
C1136 H1162 0.950 . S
C1137 N1134 1.332 . S
C1137 C1136 1.382 . S
C1137 H1148 0.952 . S
C1138 C1135 1.388 . S
C1138 C1139 1.382 . S
C1138 H1163 0.950 . S
C1139 N1134 1.332 . S
C1139 C1138 1.382 . S
C1139 H1149 0.948 . S
N1140 Co1118 2.282 . S
N1140 C1144 1.332 . S
N1140 C1145 1.332 . S
C1141 C1142 1.388 . S
C1141 C1145 1.382 . S
C1141 H1164 0.950 . S
C1142 C1141 1.388 . S
C1142 C1143 1.386 . S
C1143 C1142 1.386 . S
C1143 C1144 1.382 . S
C1143 H1165 0.950 . S
C1144 N1140 1.332 . S
C1144 C1143 1.382 . S
C1144 H1146 0.952 . S
C1145 N1140 1.332 . S
C1145 C1141 1.382 . S
C1145 H1147 0.948 . S
H1146 C1144 0.952 . S
H1147 C1145 0.948 . S
H1148 C1137 0.952 . S
H1149 C1139 0.948 . S
C1150 C1116 1.395 . S
C1150 C1120 1.391 . S
C1151 C1113 1.389 . S
C1151 C1133 1.392 . S
C1152 C1123 1.392 . S
C1152 C1125 1.389 . S
C1153 C1128 1.395 . S
C1153 C1130 1.391 . S
H1154 C1114 0.951 . S
H1155 C1115 0.950 . S
H1156 C1121 0.949 . S
H1157 C1122 0.950 . S
H1158 C1126 0.951 . S
H1159 C1127 0.950 . S
H1160 C1131 0.949 . S
H1161 C1132 0.950 . S
H1162 C1136 0.950 . S
H1163 C1138 0.950 . S
H1164 C1141 0.950 . S
H1165 C1143 0.950 . S
C1166 C1167 1.443 . S
C1166 N1170 1.376 . S
C1166 C1204 1.389 . S
C1167 C1166 1.443 . S
C1167 C1168 1.340 . S
C1167 H1207 0.951 . S
C1168 C1167 1.340 . S
C1168 C1169 1.439 . S
C1168 H1208 0.950 . S
C1169 C1168 1.439 . S
C1169 N1170 1.374 . S
C1169 C1203 1.395 . S
N1170 C1166 1.376 . S
N1170 C1169 1.374 . S
N1170 Co1171 2.008 . S
Co1171 N1170 2.008 . S
Co1171 N1172 1.995 . S
Co1171 N1177 2.008 . S
Co1171 N1182 1.995 . S
Co1171 N1187 2.282 . S
Co1171 N1193 2.282 . S
N1172 Co1171 1.995 . S
N1172 C1173 1.376 . S
N1172 C1176 1.383 . S
C1173 N1172 1.376 . S
C1173 C1174 1.446 . S
C1173 C1203 1.391 . S
C1174 C1173 1.446 . S
C1174 C1175 1.339 . S
C1174 H1209 0.949 . S
C1175 C1174 1.339 . S
C1175 C1176 1.439 . S
C1175 H1210 0.950 . S
C1176 N1172 1.383 . S
C1176 C1175 1.439 . S
C1176 C1205 1.392 . S
N1177 Co1171 2.008 . S
N1177 C1178 1.376 . S
N1177 C1181 1.374 . S
C1178 N1177 1.376 . S
C1178 C1179 1.443 . S
C1178 C1205 1.389 . S
C1179 C1178 1.443 . S
C1179 C1180 1.340 . S
C1179 H1211 0.951 . S
C1180 C1179 1.340 . S
C1180 C1181 1.439 . S
C1180 H1212 0.950 . S
C1181 N1177 1.374 . S
C1181 C1180 1.439 . S
C1181 C1206 1.395 . S
N1182 Co1171 1.995 . S
N1182 C1183 1.376 . S
N1182 C1186 1.383 . S
C1183 N1182 1.376 . S
C1183 C1184 1.446 . S
C1183 C1206 1.391 . S
C1184 C1183 1.446 . S
C1184 C1185 1.339 . S
C1184 H1213 0.949 . S
C1185 C1184 1.339 . S
C1185 C1186 1.439 . S
C1185 H1214 0.950 . S
C1186 N1182 1.383 . S
C1186 C1185 1.439 . S
C1186 C1204 1.392 . S
N1187 Co1171 2.282 . S
N1187 C1190 1.332 . S
N1187 C1192 1.332 . S
C1188 C1189 1.386 . S
C1188 C1191 1.388 . S
C1189 C1188 1.386 . S
C1189 C1190 1.382 . S
C1189 H1215 0.950 . S
C1190 N1187 1.332 . S
C1190 C1189 1.382 . S
C1190 H1201 0.952 . S
C1191 C1188 1.388 . S
C1191 C1192 1.382 . S
C1191 H1216 0.950 . S
C1192 N1187 1.332 . S
C1192 C1191 1.382 . S
C1192 H1202 0.948 . S
N1193 Co1171 2.282 . S
N1193 C1197 1.332 . S
N1193 C1198 1.332 . S
C1194 C1195 1.388 . S
C1194 C1198 1.382 . S
C1194 H1217 0.950 . S
C1195 C1194 1.388 . S
C1195 C1196 1.386 . S
C1196 C1195 1.386 . S
C1196 C1197 1.382 . S
C1196 H1218 0.950 . S
C1197 N1193 1.332 . S
C1197 C1196 1.382 . S
C1197 H1199 0.952 . S
C1198 N1193 1.332 . S
C1198 C1194 1.382 . S
C1198 H1200 0.948 . S
H1199 C1197 0.952 . S
H1200 C1198 0.948 . S
H1201 C1190 0.952 . S
H1202 C1192 0.948 . S
C1203 C1169 1.395 . S
C1203 C1173 1.391 . S
C1204 C1166 1.389 . S
C1204 C1186 1.392 . S
C1205 C1176 1.392 . S
C1205 C1178 1.389 . S
C1206 C1181 1.395 . S
C1206 C1183 1.391 . S
H1207 C1167 0.951 . S
H1208 C1168 0.950 . S
H1209 C1174 0.949 . S
H1210 C1175 0.950 . S
H1211 C1179 0.951 . S
H1212 C1180 0.950 . S
H1213 C1184 0.949 . S
H1214 C1185 0.950 . S
H1215 C1189 0.950 . S
H1216 C1191 0.950 . S
H1217 C1194 0.950 . S
H1218 C1196 0.950 . S
C1219 C1220 1.443 . S
C1219 N1223 1.376 . S
C1219 C1257 1.389 . S
C1220 C1219 1.443 . S
C1220 C1221 1.340 . S
C1220 H1260 0.951 . S
C1221 C1220 1.340 . S
C1221 C1222 1.439 . S
C1221 H1261 0.950 . S
C1222 C1221 1.439 . S
C1222 N1223 1.374 . S
C1222 C1256 1.395 . S
N1223 C1219 1.376 . S
N1223 C1222 1.374 . S
N1223 Co1224 2.008 . S
Co1224 N1223 2.008 . S
Co1224 N1225 1.995 . S
Co1224 N1230 2.008 . S
Co1224 N1235 1.995 . S
Co1224 N1240 2.282 . S
Co1224 N1246 2.282 . S
N1225 Co1224 1.995 . S
N1225 C1226 1.376 . S
N1225 C1229 1.383 . S
C1226 N1225 1.376 . S
C1226 C1227 1.446 . S
C1226 C1256 1.391 . S
C1227 C1226 1.446 . S
C1227 C1228 1.339 . S
C1227 H1262 0.949 . S
C1228 C1227 1.339 . S
C1228 C1229 1.439 . S
C1228 H1263 0.950 . S
C1229 N1225 1.383 . S
C1229 C1228 1.439 . S
C1229 C1258 1.392 . S
N1230 Co1224 2.008 . S
N1230 C1231 1.376 . S
N1230 C1234 1.374 . S
C1231 N1230 1.376 . S
C1231 C1232 1.443 . S
C1231 C1258 1.389 . S
C1232 C1231 1.443 . S
C1232 C1233 1.340 . S
C1232 H1264 0.951 . S
C1233 C1232 1.340 . S
C1233 C1234 1.439 . S
C1233 H1265 0.950 . S
C1234 N1230 1.374 . S
C1234 C1233 1.439 . S
C1234 C1259 1.395 . S
N1235 Co1224 1.995 . S
N1235 C1236 1.376 . S
N1235 C1239 1.383 . S
C1236 N1235 1.376 . S
C1236 C1237 1.446 . S
C1236 C1259 1.391 . S
C1237 C1236 1.446 . S
C1237 C1238 1.339 . S
C1237 H1266 0.949 . S
C1238 C1237 1.339 . S
C1238 C1239 1.439 . S
C1238 H1267 0.950 . S
C1239 N1235 1.383 . S
C1239 C1238 1.439 . S
C1239 C1257 1.392 . S
N1240 Co1224 2.282 . S
N1240 C1243 1.332 . S
N1240 C1245 1.332 . S
C1241 C1242 1.386 . S
C1241 C1244 1.388 . S
C1242 C1241 1.386 . S
C1242 C1243 1.382 . S
C1242 H1268 0.950 . S
C1243 N1240 1.332 . S
C1243 C1242 1.382 . S
C1243 H1254 0.952 . S
C1244 C1241 1.388 . S
C1244 C1245 1.382 . S
C1244 H1269 0.950 . S
C1245 N1240 1.332 . S
C1245 C1244 1.382 . S
C1245 H1255 0.948 . S
N1246 Co1224 2.282 . S
N1246 C1250 1.332 . S
N1246 C1251 1.332 . S
C1247 C1248 1.388 . S
C1247 C1251 1.382 . S
C1247 H1270 0.950 . S
C1248 C1247 1.388 . S
C1248 C1249 1.386 . S
C1249 C1248 1.386 . S
C1249 C1250 1.382 . S
C1249 H1271 0.950 . S
C1250 N1246 1.332 . S
C1250 C1249 1.382 . S
C1250 H1252 0.952 . S
C1251 N1246 1.332 . S
C1251 C1247 1.382 . S
C1251 H1253 0.948 . S
H1252 C1250 0.952 . S
H1253 C1251 0.948 . S
H1254 C1243 0.952 . S
H1255 C1245 0.948 . S
C1256 C1222 1.395 . S
C1256 C1226 1.391 . S
C1257 C1219 1.389 . S
C1257 C1239 1.392 . S
C1258 C1229 1.392 . S
C1258 C1231 1.389 . S
C1259 C1234 1.395 . S
C1259 C1236 1.391 . S
H1260 C1220 0.951 . S
H1261 C1221 0.950 . S
H1262 C1227 0.949 . S
H1263 C1228 0.950 . S
H1264 C1232 0.951 . S
H1265 C1233 0.950 . S
H1266 C1237 0.949 . S
H1267 C1238 0.950 . S
H1268 C1242 0.950 . S
H1269 C1244 0.950 . S
H1270 C1247 0.950 . S
H1271 C1249 0.950 . S
C1272 C1273 1.391 . S
C1272 C1274 1.394 . S
C1272 H1288 0.931 . S
C1273 C1272 1.391 . S
C1273 C1277 1.376 . S
C1274 C1272 1.394 . S
C1274 C1275 1.369 . S
C1274 C1278 1.531 . S
C1275 C1274 1.369 . S
C1275 C1276 1.410 . S
C1275 C1283 1.503 . S
C1276 C1275 1.410 . S
C1276 C1277 1.392 . S
C1276 C1279 1.511 . S
C1277 C1273 1.376 . S
C1277 C1276 1.392 . S
C1277 H1289 0.929 . S
C1278 C1274 1.531 . S
C1278 H1290 0.960 . S
C1278 H1291 0.962 . S
C1278 H1292 0.960 . S
C1279 C1276 1.511 . S
C1279 H1293 0.961 . S
C1279 H1294 0.961 . S
C1279 H1295 0.961 . S
C1280 C1281 1.370 . S
C1280 C1282 1.363 . S
C1280 H1296 0.931 . S
C1281 C1280 1.370 . S
C1281 C1285 1.408 . S
C1282 C1280 1.363 . S
C1282 C1283 1.370 . S
C1282 C1286 1.524 . S
C1283 C1275 1.503 . S
C1283 C1282 1.370 . S
C1283 C1284 1.403 . S
C1284 C1283 1.403 . S
C1284 C1285 1.404 . S
C1284 C1287 1.539 . S
C1285 C1281 1.408 . S
C1285 C1284 1.404 . S
C1285 H1297 0.930 . S
C1286 C1282 1.524 . S
C1286 H1298 0.956 . S
C1286 H1299 0.961 . S
C1286 H1300 0.961 . S
C1287 C1284 1.539 . S
C1287 H1301 0.958 . S
C1287 H1302 0.961 . S
C1287 H1303 0.960 . S
H1288 C1272 0.931 . S
H1289 C1277 0.929 . S
H1290 C1278 0.960 . S
H1291 C1278 0.962 . S
H1292 C1278 0.960 . S
H1293 C1279 0.961 . S
H1294 C1279 0.961 . S
H1295 C1279 0.961 . S
H1296 C1280 0.931 . S
H1297 C1285 0.930 . S
H1298 C1286 0.956 . S
H1299 C1286 0.961 . S
H1300 C1286 0.961 . S
H1301 C1287 0.958 . S
H1302 C1287 0.961 . S
H1303 C1287 0.960 . S
C1304 C1305 1.391 . S
C1304 C1306 1.394 . S
C1304 H1320 0.931 . S
C1305 C1304 1.391 . S
C1305 C1309 1.376 . S
C1306 C1304 1.394 . S
C1306 C1307 1.369 . S
C1306 C1310 1.531 . S
C1307 C1306 1.369 . S
C1307 C1308 1.410 . S
C1307 C1315 1.503 . S
C1308 C1307 1.410 . S
C1308 C1309 1.392 . S
C1308 C1311 1.511 . S
C1309 C1305 1.376 . S
C1309 C1308 1.392 . S
C1309 H1321 0.929 . S
C1310 C1306 1.531 . S
C1310 H1322 0.960 . S
C1310 H1323 0.962 . S
C1310 H1324 0.960 . S
C1311 C1308 1.511 . S
C1311 H1325 0.961 . S
C1311 H1326 0.961 . S
C1311 H1327 0.961 . S
C1312 C1313 1.370 . S
C1312 C1314 1.363 . S
C1312 H1328 0.931 . S
C1313 C1312 1.370 . S
C1313 C1317 1.408 . S
C1314 C1312 1.363 . S
C1314 C1315 1.370 1_455 S
C1314 C1318 1.506 1_455 S
C1315 C1307 1.503 . S
C1315 C1314 1.370 1_655 S
C1315 C1316 1.403 1_655 S
C1316 C1315 1.403 1_455 S
C1316 C1317 1.404 . S
C1316 C1319 1.539 1_455 S
C1317 C1313 1.408 . S
C1317 C1316 1.404 . S
C1317 H1329 0.930 . S
C1318 C1314 1.506 1_655 S
C1318 H1330 0.981 . S
C1318 H1331 0.990 . S
C1318 H1332 0.927 1_655 S
C1319 C1316 1.539 1_655 S
C1319 H1333 0.958 . S
C1319 H1334 0.949 1_655 S
C1319 H1335 0.960 . S
H1320 C1304 0.931 . S
H1321 C1309 0.929 . S
H1322 C1310 0.960 . S
H1323 C1310 0.962 . S
H1324 C1310 0.960 . S
H1325 C1311 0.961 . S
H1326 C1311 0.961 . S
H1327 C1311 0.961 . S
H1328 C1312 0.931 . S
H1329 C1317 0.930 . S
H1330 C1318 0.981 . S
H1331 C1318 0.990 . S
H1332 C1318 0.927 1_455 S
H1333 C1319 0.958 . S
H1334 C1319 0.949 1_455 S
H1335 C1319 0.960 . S
C1336 C1337 1.391 . S
C1336 C1338 1.394 . S
C1336 H1352 0.931 . S
C1337 C1336 1.391 . S
C1337 C1341 1.376 . S
C1338 C1336 1.394 . S
C1338 C1339 1.369 . S
C1338 C1342 1.531 . S
C1339 C1338 1.369 . S
C1339 C1340 1.410 . S
C1339 C1347 1.503 . S
C1340 C1339 1.410 . S
C1340 C1341 1.392 . S
C1340 C1343 1.511 . S
C1341 C1337 1.376 . S
C1341 C1340 1.392 . S
C1341 H1353 0.929 . S
C1342 C1338 1.531 . S
C1342 H1354 0.960 . S
C1342 H1355 0.962 . S
C1342 H1356 0.960 . S
C1343 C1340 1.511 . S
C1343 H1357 0.961 . S
C1343 H1358 0.961 . S
C1343 H1359 0.961 . S
C1344 C1345 1.370 . S
C1344 C1346 1.363 . S
C1344 H1360 0.931 . S
C1345 C1344 1.370 . S
C1345 C1349 1.408 . S
C1346 C1344 1.363 . S
C1346 C1347 1.370 . S
C1346 C1350 1.524 . S
C1347 C1339 1.503 . S
C1347 C1346 1.370 . S
C1347 C1348 1.403 . S
C1348 C1347 1.403 . S
C1348 C1349 1.404 . S
C1348 C1351 1.539 . S
C1349 C1345 1.408 . S
C1349 C1348 1.404 . S
C1349 H1361 0.930 . S
C1350 C1346 1.524 . S
C1350 H1362 0.956 . S
C1350 H1363 0.961 . S
C1350 H1364 0.961 . S
C1351 C1348 1.539 . S
C1351 H1365 0.958 . S
C1351 H1366 0.961 . S
C1351 H1367 0.960 . S
H1352 C1336 0.931 . S
H1353 C1341 0.929 . S
H1354 C1342 0.960 . S
H1355 C1342 0.962 . S
H1356 C1342 0.960 . S
H1357 C1343 0.961 . S
H1358 C1343 0.961 . S
H1359 C1343 0.961 . S
H1360 C1344 0.931 . S
H1361 C1349 0.930 . S
H1362 C1350 0.956 . S
H1363 C1350 0.961 . S
H1364 C1350 0.961 . S
H1365 C1351 0.958 . S
H1366 C1351 0.961 . S
H1367 C1351 0.960 . S
C1368 C1369 1.391 . S
C1368 C1370 1.394 . S
C1368 H1384 0.931 . S
C1369 C1368 1.391 . S
C1369 C1373 1.376 . S
C1370 C1368 1.394 . S
C1370 C1371 1.369 . S
C1370 C1374 1.531 . S
C1371 C1370 1.369 . S
C1371 C1372 1.410 . S
C1371 C1379 1.503 1_455 S
C1372 C1371 1.410 . S
C1372 C1373 1.392 . S
C1372 C1375 1.511 . S
C1373 C1369 1.376 . S
C1373 C1372 1.392 . S
C1373 H1385 0.929 . S
C1374 C1370 1.531 . S
C1374 H1386 0.960 . S
C1374 H1387 0.962 . S
C1374 H1388 0.960 . S
C1375 C1372 1.511 . S
C1375 H1389 0.961 . S
C1375 H1390 0.961 . S
C1375 H1391 0.961 . S
C1376 C1377 1.370 . S
C1376 C1378 1.363 . S
C1376 H1392 0.931 . S
C1377 C1376 1.370 . S
C1377 C1381 1.408 . S
C1378 C1376 1.363 . S
C1378 C1379 1.370 . S
C1378 C1382 1.524 . S
C1379 C1371 1.503 1_655 S
C1379 C1378 1.370 . S
C1379 C1380 1.403 . S
C1380 C1379 1.403 . S
C1380 C1381 1.404 . S
C1380 C1383 1.539 . S
C1381 C1377 1.408 . S
C1381 C1380 1.404 . S
C1381 H1393 0.930 . S
C1382 C1378 1.524 . S
C1382 H1394 0.956 1_655 S
C1382 H1395 0.961 1_655 S
C1382 H1396 0.961 . S
C1383 C1380 1.539 . S
C1383 H1397 0.958 . S
C1383 H1398 0.961 . S
C1383 H1399 0.960 1_655 S
H1384 C1368 0.931 . S
H1385 C1373 0.929 . S
H1386 C1374 0.960 . S
H1387 C1374 0.962 . S
H1388 C1374 0.960 . S
H1389 C1375 0.961 . S
H1390 C1375 0.961 . S
H1391 C1375 0.961 . S
H1392 C1376 0.931 . S
H1393 C1381 0.930 . S
H1394 C1382 0.956 1_455 S
H1395 C1382 0.961 1_455 S
H1396 C1382 0.961 . S
H1397 C1383 0.958 . S
H1398 C1383 0.961 . S
H1399 C1383 0.960 1_455 S
C1400 C1401 1.391 . S
C1400 C1402 1.394 . S
C1400 H1416 0.931 . S
C1401 C1400 1.391 . S
C1401 C1405 1.376 . S
C1402 C1400 1.394 . S
C1402 C1403 1.369 . S
C1402 C1406 1.531 . S
C1403 C1402 1.369 . S
C1403 C1404 1.410 . S
C1403 C1411 1.503 . S
C1404 C1403 1.410 . S
C1404 C1405 1.392 . S
C1404 C1407 1.511 . S
C1405 C1401 1.376 . S
C1405 C1404 1.392 . S
C1405 H1417 0.929 . S
C1406 C1402 1.531 . S
C1406 H1418 0.960 . S
C1406 H1419 0.962 . S
C1406 H1420 0.960 . S
C1407 C1404 1.511 . S
C1407 H1421 0.961 . S
C1407 H1422 0.961 . S
C1407 H1423 0.961 . S
C1408 C1409 1.370 . S
C1408 C1410 1.363 . S
C1408 H1424 0.931 . S
C1409 C1408 1.370 . S
C1409 C1413 1.408 . S
C1410 C1408 1.363 . S
C1410 C1411 1.370 . S
C1410 C1414 1.524 . S
C1411 C1403 1.503 . S
C1411 C1410 1.370 . S
C1411 C1412 1.403 . S
C1412 C1411 1.403 . S
C1412 C1413 1.404 . S
C1412 C1415 1.539 . S
C1413 C1409 1.408 . S
C1413 C1412 1.404 . S
C1413 H1425 0.930 . S
C1414 C1410 1.524 . S
C1414 H1426 0.956 . S
C1414 H1427 0.961 . S
C1414 H1428 0.961 . S
C1415 C1412 1.539 . S
C1415 H1429 0.958 . S
C1415 H1430 0.961 . S
C1415 H1431 0.960 . S
H1416 C1400 0.931 . S
H1417 C1405 0.929 . S
H1418 C1406 0.960 . S
H1419 C1406 0.962 . S
H1420 C1406 0.960 . S
H1421 C1407 0.961 . S
H1422 C1407 0.961 . S
H1423 C1407 0.961 . S
H1424 C1408 0.931 . S
H1425 C1413 0.930 . S
H1426 C1414 0.956 . S
H1427 C1414 0.961 . S
H1428 C1414 0.961 . S
H1429 C1415 0.958 . S
H1430 C1415 0.961 . S
H1431 C1415 0.960 . S
C1432 C1433 1.391 . S
C1432 C1434 1.394 . S
C1432 H1448 0.931 . S
C1433 C1432 1.391 . S
C1433 C1437 1.376 . S
C1434 C1432 1.394 . S
C1434 C1435 1.369 . S
C1434 C1438 1.531 . S
C1435 C1434 1.369 . S
C1435 C1436 1.410 . S
C1435 C1443 1.503 1_655 S
C1436 C1435 1.410 . S
C1436 C1437 1.392 . S
C1436 C1439 1.511 . S
C1437 C1433 1.376 . S
C1437 C1436 1.392 . S
C1437 H1449 0.929 . S
C1438 C1434 1.531 . S
C1438 H1450 0.960 1_655 S
C1438 H1451 0.952 1_655 S
C1438 H1452 0.960 . S
C1439 C1436 1.511 . S
C1439 H1453 0.961 . S
C1439 H1454 0.961 1_655 S
C1439 H1455 0.961 . S
C1440 C1441 1.370 . S
C1440 C1442 1.363 . S
C1440 H1456 0.931 . S
C1441 C1440 1.370 . S
C1441 C1445 1.408 . S
C1442 C1440 1.363 . S
C1442 C1443 1.370 . S
C1442 C1446 1.524 . S
C1443 C1435 1.503 1_455 S
C1443 C1442 1.370 . S
C1443 C1444 1.403 . S
C1444 C1443 1.403 . S
C1444 C1445 1.404 . S
C1444 C1447 1.539 . S
C1445 C1441 1.408 . S
C1445 C1444 1.404 . S
C1445 H1457 0.930 . S
C1446 C1442 1.524 . S
C1446 H1458 0.956 . S
C1446 H1459 0.961 . S
C1446 H1460 0.961 . S
C1447 C1444 1.539 . S
C1447 H1461 0.958 . S
C1447 H1462 0.961 . S
C1447 H1463 0.960 . S
H1448 C1432 0.931 . S
H1449 C1437 0.929 . S
H1450 C1438 0.960 1_455 S
H1451 C1438 0.952 1_455 S
H1452 C1438 0.960 . S
H1453 C1439 0.961 . S
H1454 C1439 0.961 1_455 S
H1455 C1439 0.961 . S
H1456 C1440 0.931 . S
H1457 C1445 0.930 . S
H1458 C1446 0.956 . S
H1459 C1446 0.961 . S
H1460 C1446 0.961 . S
H1461 C1447 0.958 . S
H1462 C1447 0.961 . S
H1463 C1447 0.960 . S
C1464 C1465 1.391 . S
C1464 C1466 1.394 . S
C1464 H1480 0.931 . S
C1465 C1464 1.391 . S
C1465 C1469 1.376 . S
C1466 C1464 1.394 . S
C1466 C1467 1.369 . S
C1466 C1470 1.531 . S
C1467 C1466 1.369 . S
C1467 C1468 1.410 . S
C1467 C1475 1.503 . S
C1468 C1467 1.410 . S
C1468 C1469 1.392 . S
C1468 C1471 1.511 . S
C1469 C1465 1.376 . S
C1469 C1468 1.392 . S
C1469 H1481 0.929 . S
C1470 C1466 1.531 . S
C1470 H1482 0.960 . S
C1470 H1483 0.962 . S
C1470 H1484 0.960 . S
C1471 C1468 1.511 . S
C1471 H1485 0.961 . S
C1471 H1486 0.961 . S
C1471 H1487 0.961 . S
C1472 C1473 1.370 . S
C1472 C1474 1.363 . S
C1472 H1488 0.931 . S
C1473 C1472 1.370 . S
C1473 C1477 1.408 . S
C1474 C1472 1.363 . S
C1474 C1475 1.370 . S
C1474 C1478 1.524 . S
C1475 C1467 1.503 . S
C1475 C1474 1.370 . S
C1475 C1476 1.403 . S
C1476 C1475 1.403 . S
C1476 C1477 1.404 . S
C1476 C1479 1.539 . S
C1477 C1473 1.408 . S
C1477 C1476 1.404 . S
C1477 H1489 0.930 . S
C1478 C1474 1.524 . S
C1478 H1490 0.956 . S
C1478 H1491 0.961 . S
C1478 H1492 0.961 . S
C1479 C1476 1.539 . S
C1479 H1493 0.958 . S
C1479 H1494 0.961 . S
C1479 H1495 0.960 . S
H1480 C1464 0.931 . S
H1481 C1469 0.929 . S
H1482 C1470 0.960 . S
H1483 C1470 0.962 . S
H1484 C1470 0.960 . S
H1485 C1471 0.961 . S
H1486 C1471 0.961 . S
H1487 C1471 0.961 . S
H1488 C1472 0.931 . S
H1489 C1477 0.930 . S
H1490 C1478 0.956 . S
H1491 C1478 0.961 . S
H1492 C1478 0.961 . S
H1493 C1479 0.958 . S
H1494 C1479 0.961 . S
H1495 C1479 0.960 . S
C1496 C1497 1.391 . S
C1496 C1498 1.394 . S
C1496 H1512 0.931 . S
C1497 C1496 1.391 . S
C1497 C1501 1.376 . S
C1498 C1496 1.394 . S
C1498 C1499 1.369 . S
C1498 C1502 1.531 . S
C1499 C1498 1.369 . S
C1499 C1500 1.410 . S
C1499 C1507 1.503 1_655 S
C1500 C1499 1.410 . S
C1500 C1501 1.392 . S
C1500 C1503 1.511 . S
C1501 C1497 1.376 . S
C1501 C1500 1.392 . S
C1501 H1513 0.929 . S
C1502 C1498 1.531 . S
C1502 H1514 0.960 1_655 S
C1502 H1515 0.962 . S
C1502 H1516 0.960 . S
C1503 C1500 1.511 . S
C1503 H1517 0.961 . S
C1503 H1518 0.961 1_655 S
C1503 H1519 0.961 . S
C1504 C1505 1.370 . S
C1504 C1506 1.363 . S
C1504 H1520 0.931 . S
C1505 C1504 1.370 . S
C1505 C1509 1.408 . S
C1506 C1504 1.363 . S
C1506 C1507 1.370 . S
C1506 C1510 1.524 . S
C1507 C1499 1.503 1_455 S
C1507 C1506 1.370 . S
C1507 C1508 1.403 . S
C1508 C1507 1.403 . S
C1508 C1509 1.404 . S
C1508 C1511 1.539 . S
C1509 C1505 1.408 . S
C1509 C1508 1.404 . S
C1509 H1521 0.930 . S
C1510 C1506 1.524 . S
C1510 H1522 0.956 . S
C1510 H1523 0.961 . S
C1510 H1524 0.961 . S
C1511 C1508 1.539 . S
C1511 H1525 0.958 . S
C1511 H1526 0.961 . S
C1511 H1527 0.960 . S
H1512 C1496 0.931 . S
H1513 C1501 0.929 . S
H1514 C1502 0.960 1_455 S
H1515 C1502 0.962 . S
H1516 C1502 0.960 . S
H1517 C1503 0.961 . S
H1518 C1503 0.961 1_455 S
H1519 C1503 0.961 . S
H1520 C1504 0.931 . S
H1521 C1509 0.930 . S
H1522 C1510 0.956 . S
H1523 C1510 0.961 . S
H1524 C1510 0.961 . S
H1525 C1511 0.958 . S
H1526 C1511 0.961 . S
H1527 C1511 0.960 . S
C1528 C1529 1.391 . S
C1528 C1530 1.394 . S
C1528 H1544 0.931 . S
C1529 C1528 1.391 . S
C1529 C1533 1.376 . S
C1530 C1528 1.394 . S
C1530 C1531 1.369 . S
C1530 C1534 1.531 . S
C1531 C1530 1.369 . S
C1531 C1532 1.410 . S
C1531 C1539 1.503 . S
C1532 C1531 1.410 . S
C1532 C1533 1.392 . S
C1532 C1535 1.511 . S
C1533 C1529 1.376 . S
C1533 C1532 1.392 . S
C1533 H1545 0.929 . S
C1534 C1530 1.531 . S
C1534 H1546 0.960 . S
C1534 H1547 0.962 . S
C1534 H1548 0.960 . S
C1535 C1532 1.511 . S
C1535 H1549 0.961 . S
C1535 H1550 0.961 . S
C1535 H1551 0.961 . S
C1536 C1537 1.370 . S
C1536 C1538 1.363 . S
C1536 H1552 0.931 . S
C1537 C1536 1.370 . S
C1537 C1541 1.408 . S
C1538 C1536 1.363 . S
C1538 C1539 1.370 . S
C1538 C1542 1.524 . S
C1539 C1531 1.503 . S
C1539 C1538 1.370 . S
C1539 C1540 1.403 . S
C1540 C1539 1.403 . S
C1540 C1541 1.404 . S
C1540 C1543 1.539 . S
C1541 C1537 1.408 . S
C1541 C1540 1.404 . S
C1541 H1553 0.930 . S
C1542 C1538 1.524 . S
C1542 H1554 0.956 . S
C1542 H1555 0.961 . S
C1542 H1556 0.961 . S
C1543 C1540 1.539 . S
C1543 H1557 0.958 . S
C1543 H1558 0.961 . S
C1543 H1559 0.960 . S
H1544 C1528 0.931 . S
H1545 C1533 0.929 . S
H1546 C1534 0.960 . S
H1547 C1534 0.962 . S
H1548 C1534 0.960 . S
H1549 C1535 0.961 . S
H1550 C1535 0.961 . S
H1551 C1535 0.961 . S
H1552 C1536 0.931 . S
H1553 C1541 0.930 . S
H1554 C1542 0.956 . S
H1555 C1542 0.961 . S
H1556 C1542 0.961 . S
H1557 C1543 0.958 . S
H1558 C1543 0.961 . S
H1559 C1543 0.960 . S
C1560 C1561 1.391 . S
C1560 C1562 1.394 . S
C1560 H1576 0.931 . S
C1561 C1560 1.391 . S
C1561 C1565 1.376 . S
C1562 C1560 1.394 . S
C1562 C1563 1.369 . S
C1562 C1566 1.531 . S
C1563 C1562 1.369 . S
C1563 C1564 1.410 . S
C1563 C1571 1.503 1_556 S
C1564 C1563 1.410 . S
C1564 C1565 1.392 . S
C1564 C1567 1.511 . S
C1565 C1561 1.376 . S
C1565 C1564 1.392 . S
C1565 H1577 0.929 . S
C1566 C1562 1.531 . S
C1566 H1578 0.960 . S
C1566 H1579 0.962 . S
C1566 H1580 0.960 . S
C1567 C1564 1.511 . S
C1567 H1581 0.961 . S
C1567 H1582 0.961 . S
C1567 H1583 0.961 . S
C1568 C1569 1.370 . S
C1568 C1570 1.363 . S
C1568 H1584 0.931 . S
C1569 C1568 1.370 . S
C1569 C1573 1.408 . S
C1570 C1568 1.363 . S
C1570 C1571 1.370 . S
C1570 C1574 1.527 1_554 S
C1571 C1563 1.503 1_554 S
C1571 C1570 1.370 . S
C1571 C1572 1.403 . S
C1572 C1571 1.403 . S
C1572 C1573 1.404 . S
C1572 C1575 1.539 . S
C1573 C1569 1.408 . S
C1573 C1572 1.404 . S
C1573 H1585 0.930 . S
C1574 C1570 1.527 1_556 S
C1574 H1586 0.953 . S
C1574 H1587 0.957 . S
C1574 H1588 0.964 1_556 S
C1575 C1572 1.539 . S
C1575 H1589 0.958 . S
C1575 H1590 0.961 . S
C1575 H1591 0.960 1_554 S
H1576 C1560 0.931 . S
H1577 C1565 0.929 . S
H1578 C1566 0.960 . S
H1579 C1566 0.962 . S
H1580 C1566 0.960 . S
H1581 C1567 0.961 . S
H1582 C1567 0.961 . S
H1583 C1567 0.961 . S
H1584 C1568 0.931 . S
H1585 C1573 0.930 . S
H1586 C1574 0.953 . S
H1587 C1574 0.957 . S
H1588 C1574 0.964 1_554 S
H1589 C1575 0.958 . S
H1590 C1575 0.961 . S
H1591 C1575 0.960 1_556 S
C1592 C1593 1.391 . S
C1592 C1594 1.394 . S
C1592 H1608 0.931 . S
C1593 C1592 1.391 . S
C1593 C1597 1.376 . S
C1594 C1592 1.394 . S
C1594 C1595 1.369 . S
C1594 C1598 1.531 . S
C1595 C1594 1.369 . S
C1595 C1596 1.410 . S
C1595 C1603 1.503 . S
C1596 C1595 1.410 . S
C1596 C1597 1.392 . S
C1596 C1599 1.511 . S
C1597 C1593 1.376 . S
C1597 C1596 1.392 . S
C1597 H1609 0.929 . S
C1598 C1594 1.531 . S
C1598 H1610 0.960 . S
C1598 H1611 0.962 . S
C1598 H1612 0.960 . S
C1599 C1596 1.511 . S
C1599 H1613 0.961 . S
C1599 H1614 0.961 . S
C1599 H1615 0.961 . S
C1600 C1601 1.370 . S
C1600 C1602 1.363 . S
C1600 H1616 0.931 . S
C1601 C1600 1.370 . S
C1601 C1605 1.408 . S
C1602 C1600 1.363 . S
C1602 C1603 1.370 . S
C1602 C1606 1.524 . S
C1603 C1595 1.503 . S
C1603 C1602 1.370 . S
C1603 C1604 1.403 . S
C1604 C1603 1.403 . S
C1604 C1605 1.404 . S
C1604 C1607 1.539 . S
C1605 C1601 1.408 . S
C1605 C1604 1.404 . S
C1605 H1617 0.930 . S
C1606 C1602 1.524 . S
C1606 H1618 0.956 . S
C1606 H1619 0.961 . S
C1606 H1620 0.961 . S
C1607 C1604 1.539 . S
C1607 H1621 0.958 . S
C1607 H1622 0.961 . S
C1607 H1623 0.960 . S
H1608 C1592 0.931 . S
H1609 C1597 0.929 . S
H1610 C1598 0.960 . S
H1611 C1598 0.962 . S
H1612 C1598 0.960 . S
H1613 C1599 0.961 . S
H1614 C1599 0.961 . S
H1615 C1599 0.961 . S
H1616 C1600 0.931 . S
H1617 C1605 0.930 . S
H1618 C1606 0.956 . S
H1619 C1606 0.961 . S
H1620 C1606 0.961 . S
H1621 C1607 0.958 . S
H1622 C1607 0.961 . S
H1623 C1607 0.960 . S
C1624 C1625 1.391 . S
C1624 C1626 1.394 . S
C1624 H1640 0.931 . S
C1625 C1624 1.391 . S
C1625 C1629 1.376 . S
C1626 C1624 1.394 . S
C1626 C1627 1.369 . S
C1626 C1630 1.531 . S
C1627 C1626 1.369 . S
C1627 C1628 1.410 . S
C1627 C1635 1.503 1_554 S
C1628 C1627 1.410 . S
C1628 C1629 1.392 . S
C1628 C1631 1.511 . S
C1629 C1625 1.376 . S
C1629 C1628 1.392 . S
C1629 H1641 0.929 . S
C1630 C1626 1.531 . S
C1630 H1642 0.958 1_554 S
C1630 H1643 0.962 . S
C1630 H1644 0.960 . S
C1631 C1628 1.511 . S
C1631 H1645 0.961 . S
C1631 H1646 0.961 1_554 S
C1631 H1647 0.961 . S
C1632 C1633 1.370 . S
C1632 C1634 1.363 . S
C1632 H1648 0.931 . S
C1633 C1632 1.370 . S
C1633 C1637 1.408 . S
C1634 C1632 1.363 . S
C1634 C1635 1.370 . S
C1634 C1638 1.524 . S
C1635 C1627 1.503 1_556 S
C1635 C1634 1.370 . S
C1635 C1636 1.403 . S
C1636 C1635 1.403 . S
C1636 C1637 1.404 . S
C1636 C1639 1.539 . S
C1637 C1633 1.408 . S
C1637 C1636 1.404 . S
C1637 H1649 0.930 . S
C1638 C1634 1.524 . S
C1638 H1650 0.956 1_556 S
C1638 H1651 0.961 1_556 S
C1638 H1652 0.961 . S
C1639 C1636 1.539 . S
C1639 H1653 0.958 . S
C1639 H1654 0.961 . S
C1639 H1655 0.960 . S
H1640 C1624 0.931 . S
H1641 C1629 0.929 . S
H1642 C1630 0.958 1_556 S
H1643 C1630 0.962 . S
H1644 C1630 0.960 . S
H1645 C1631 0.961 . S
H1646 C1631 0.961 1_556 S
H1647 C1631 0.961 . S
H1648 C1632 0.931 . S
H1649 C1637 0.930 . S
H1650 C1638 0.956 1_554 S
H1651 C1638 0.961 1_554 S
H1652 C1638 0.961 . S
H1653 C1639 0.958 . S
H1654 C1639 0.961 . S
H1655 C1639 0.960 . S
C1656 C1657 1.391 . S
C1656 C1658 1.394 . S
C1656 H1672 0.931 . S
C1657 C1656 1.391 . S
C1657 C1661 1.376 . S
C1658 C1656 1.394 . S
C1658 C1659 1.369 . S
C1658 C1662 1.531 . S
C1659 C1658 1.369 . S
C1659 C1660 1.410 . S
C1659 C1667 1.503 . S
C1660 C1659 1.410 . S
C1660 C1661 1.392 . S
C1660 C1663 1.511 . S
C1661 C1657 1.376 . S
C1661 C1660 1.392 . S
C1661 H1673 0.929 . S
C1662 C1658 1.531 . S
C1662 H1674 0.960 . S
C1662 H1675 0.962 . S
C1662 H1676 0.960 . S
C1663 C1660 1.511 . S
C1663 H1677 0.961 . S
C1663 H1678 0.961 . S
C1663 H1679 0.961 . S
C1664 C1665 1.370 . S
C1664 C1666 1.363 . S
C1664 H1680 0.931 . S
C1665 C1664 1.370 . S
C1665 C1669 1.408 . S
C1666 C1664 1.363 . S
C1666 C1667 1.370 . S
C1666 C1670 1.524 . S
C1667 C1659 1.503 . S
C1667 C1666 1.370 . S
C1667 C1668 1.403 . S
C1668 C1667 1.403 . S
C1668 C1669 1.404 . S
C1668 C1671 1.539 . S
C1669 C1665 1.408 . S
C1669 C1668 1.404 . S
C1669 H1681 0.930 . S
C1670 C1666 1.524 . S
C1670 H1682 0.956 . S
C1670 H1683 0.961 . S
C1670 H1684 0.961 . S
C1671 C1668 1.539 . S
C1671 H1685 0.958 . S
C1671 H1686 0.961 . S
C1671 H1687 0.960 . S
H1672 C1656 0.931 . S
H1673 C1661 0.929 . S
H1674 C1662 0.960 . S
H1675 C1662 0.962 . S
H1676 C1662 0.960 . S
H1677 C1663 0.961 . S
H1678 C1663 0.961 . S
H1679 C1663 0.961 . S
H1680 C1664 0.931 . S
H1681 C1669 0.930 . S
H1682 C1670 0.956 . S
H1683 C1670 0.961 . S
H1684 C1670 0.961 . S
H1685 C1671 0.958 . S
H1686 C1671 0.961 . S
H1687 C1671 0.960 . S
C1688 C1689 1.391 . S
C1688 C1690 1.394 . S
C1688 H1704 0.931 . S
C1689 C1688 1.391 . S
C1689 C1693 1.376 . S
C1690 C1688 1.394 . S
C1690 C1691 1.369 . S
C1690 C1694 1.531 . S
C1691 C1690 1.369 . S
C1691 C1692 1.410 . S
C1691 C1699 1.503 1_554 S
C1692 C1691 1.410 . S
C1692 C1693 1.392 . S
C1692 C1695 1.511 . S
C1693 C1689 1.376 . S
C1693 C1692 1.392 . S
C1693 H1705 0.929 . S
C1694 C1690 1.531 . S
C1694 H1706 0.915 1_554 S
C1694 H1707 0.962 . S
C1694 H1708 0.960 . S
C1695 C1692 1.511 . S
C1695 H1709 0.961 . S
C1695 H1710 0.961 1_554 S
C1695 H1711 0.961 . S
C1696 C1697 1.370 . S
C1696 C1698 1.363 . S
C1696 H1712 0.931 . S
C1697 C1696 1.370 . S
C1697 C1701 1.408 . S
C1698 C1696 1.363 . S
C1698 C1699 1.370 . S
C1698 C1702 1.524 . S
C1699 C1691 1.503 1_556 S
C1699 C1698 1.370 . S
C1699 C1700 1.403 . S
C1700 C1699 1.403 . S
C1700 C1701 1.404 . S
C1700 C1703 1.539 . S
C1701 C1697 1.408 . S
C1701 C1700 1.404 . S
C1701 H1713 0.930 . S
C1702 C1698 1.524 . S
C1702 H1714 0.956 . S
C1702 H1715 0.989 . S
C1702 H1716 0.961 . S
C1703 C1700 1.539 . S
C1703 H1717 0.958 . S
C1703 H1718 0.961 . S
C1703 H1719 0.960 . S
H1704 C1688 0.931 . S
H1705 C1693 0.929 . S
H1706 C1694 0.915 1_556 S
H1707 C1694 0.962 . S
H1708 C1694 0.960 . S
H1709 C1695 0.961 . S
H1710 C1695 0.961 1_556 S
H1711 C1695 0.961 . S
H1712 C1696 0.931 . S
H1713 C1701 0.930 . S
H1714 C1702 0.956 . S
H1715 C1702 0.989 . S
H1716 C1702 0.961 . S
H1717 C1703 0.958 . S
H1718 C1703 0.961 . S
H1719 C1703 0.960 . S
C1720 C1721 1.391 . S
C1720 C1722 1.394 . S
C1720 H1736 0.931 . S
C1721 C1720 1.391 . S
C1721 C1725 1.376 . S
C1722 C1720 1.394 . S
C1722 C1723 1.369 . S
C1722 C1726 1.531 . S
C1723 C1722 1.369 . S
C1723 C1724 1.410 . S
C1723 C1731 1.503 . S
C1724 C1723 1.410 . S
C1724 C1725 1.392 . S
C1724 C1727 1.511 . S
C1725 C1721 1.376 . S
C1725 C1724 1.392 . S
C1725 H1737 0.929 . S
C1726 C1722 1.531 . S
C1726 H1738 0.960 . S
C1726 H1739 0.962 . S
C1726 H1740 0.960 . S
C1727 C1724 1.511 . S
C1727 H1741 0.961 . S
C1727 H1742 0.961 . S
C1727 H1743 0.961 . S
C1728 C1729 1.370 . S
C1728 C1730 1.363 . S
C1728 H1744 0.931 . S
C1729 C1728 1.370 . S
C1729 C1733 1.408 . S
C1730 C1728 1.363 . S
C1730 C1731 1.370 . S
C1730 C1734 1.524 . S
C1731 C1723 1.503 . S
C1731 C1730 1.370 . S
C1731 C1732 1.403 . S
C1732 C1731 1.403 . S
C1732 C1733 1.404 . S
C1732 C1735 1.539 . S
C1733 C1729 1.408 . S
C1733 C1732 1.404 . S
C1733 H1745 0.930 . S
C1734 C1730 1.524 . S
C1734 H1746 0.956 . S
C1734 H1747 0.961 . S
C1734 H1748 0.961 . S
C1735 C1732 1.539 . S
C1735 H1749 0.958 . S
C1735 H1750 0.961 . S
C1735 H1751 0.960 . S
H1736 C1720 0.931 . S
H1737 C1725 0.929 . S
H1738 C1726 0.960 . S
H1739 C1726 0.962 . S
H1740 C1726 0.960 . S
H1741 C1727 0.961 . S
H1742 C1727 0.961 . S
H1743 C1727 0.961 . S
H1744 C1728 0.931 . S
H1745 C1733 0.930 . S
H1746 C1734 0.956 . S
H1747 C1734 0.961 . S
H1748 C1734 0.961 . S
H1749 C1735 0.958 . S
H1750 C1735 0.961 . S
H1751 C1735 0.960 . S
C1752 C1753 1.391 . S
C1752 C1754 1.394 . S
C1752 H1768 0.931 . S
C1753 C1752 1.391 . S
C1753 C1757 1.376 . S
C1754 C1752 1.394 . S
C1754 C1755 1.369 . S
C1754 C1758 1.531 . S
C1755 C1754 1.369 . S
C1755 C1756 1.410 . S
C1755 C1763 1.503 . S
C1756 C1755 1.410 . S
C1756 C1757 1.392 . S
C1756 C1759 1.511 . S
C1757 C1753 1.376 . S
C1757 C1756 1.392 . S
C1757 H1769 0.929 . S
C1758 C1754 1.531 . S
C1758 H1770 0.960 . S
C1758 H1771 0.962 . S
C1758 H1772 0.960 . S
C1759 C1756 1.511 . S
C1759 H1773 0.961 . S
C1759 H1774 0.961 . S
C1759 H1775 0.961 . S
C1760 C1761 1.370 . S
C1760 C1762 1.363 . S
C1760 H1776 0.931 . S
C1761 C1760 1.370 . S
C1761 C1765 1.408 . S
C1762 C1760 1.363 . S
C1762 C1763 1.370 1_556 S
C1762 C1766 1.524 1_556 S
C1763 C1755 1.503 . S
C1763 C1762 1.370 1_554 S
C1763 C1764 1.403 1_554 S
C1764 C1763 1.403 1_556 S
C1764 C1765 1.404 . S
C1764 C1767 1.539 . S
C1765 C1761 1.408 . S
C1765 C1764 1.404 . S
C1765 H1777 0.930 . S
C1766 C1762 1.524 1_554 S
C1766 H1778 0.956 . S
C1766 H1779 0.961 . S
C1766 H1780 0.961 . S
C1767 C1764 1.539 . S
C1767 H1781 0.958 . S
C1767 H1782 0.961 . S
C1767 H1783 0.960 1_556 S
H1768 C1752 0.931 . S
H1769 C1757 0.929 . S
H1770 C1758 0.960 . S
H1771 C1758 0.962 . S
H1772 C1758 0.960 . S
H1773 C1759 0.961 . S
H1774 C1759 0.961 . S
H1775 C1759 0.961 . S
H1776 C1760 0.931 . S
H1777 C1765 0.930 . S
H1778 C1766 0.956 . S
H1779 C1766 0.961 . S
H1780 C1766 0.961 . S
H1781 C1767 0.958 . S
H1782 C1767 0.961 . S
H1783 C1767 0.960 1_554 S
C1784 C1785 1.391 . S
C1784 C1786 1.394 . S
C1784 H1800 0.931 . S
C1785 C1784 1.391 . S
C1785 C1789 1.376 . S
C1786 C1784 1.394 . S
C1786 C1787 1.369 . S
C1786 C1790 1.531 . S
C1787 C1786 1.369 . S
C1787 C1788 1.410 . S
C1787 C1795 1.503 . S
C1788 C1787 1.410 . S
C1788 C1789 1.392 . S
C1788 C1791 1.511 . S
C1789 C1785 1.376 . S
C1789 C1788 1.392 . S
C1789 H1801 0.929 . S
C1790 C1786 1.531 . S
C1790 H1802 0.960 . S
C1790 H1803 0.962 . S
C1790 H1804 0.960 . S
C1791 C1788 1.511 . S
C1791 H1805 0.961 . S
C1791 H1806 0.961 . S
C1791 H1807 0.961 . S
C1792 C1793 1.370 . S
C1792 C1794 1.363 . S
C1792 H1808 0.931 . S
C1793 C1792 1.370 . S
C1793 C1797 1.408 . S
C1794 C1792 1.363 . S
C1794 C1795 1.370 . S
C1794 C1798 1.524 . S
C1795 C1787 1.503 . S
C1795 C1794 1.370 . S
C1795 C1796 1.403 . S
C1796 C1795 1.403 . S
C1796 C1797 1.404 . S
C1796 C1799 1.539 . S
C1797 C1793 1.408 . S
C1797 C1796 1.404 . S
C1797 H1809 0.930 . S
C1798 C1794 1.524 . S
C1798 H1810 0.956 . S
C1798 H1811 0.961 . S
C1798 H1812 0.961 . S
C1799 C1796 1.539 . S
C1799 H1813 0.958 . S
C1799 H1814 0.961 . S
C1799 H1815 0.960 . S
H1800 C1784 0.931 . S
H1801 C1789 0.929 . S
H1802 C1790 0.960 . S
H1803 C1790 0.962 . S
H1804 C1790 0.960 . S
H1805 C1791 0.961 . S
H1806 C1791 0.961 . S
H1807 C1791 0.961 . S
H1808 C1792 0.931 . S
H1809 C1797 0.930 . S
H1810 C1798 0.956 . S
H1811 C1798 0.961 . S
H1812 C1798 0.961 . S
H1813 C1799 0.958 . S
H1814 C1799 0.961 . S
H1815 C1799 0.960 . S
C1816 C1817 1.391 . S
C1816 C1818 1.394 . S
C1816 H1832 0.931 . S
C1817 C1816 1.391 . S
C1817 C1821 1.376 . S
C1818 C1816 1.394 . S
C1818 C1819 1.369 . S
C1818 C1822 1.531 . S
C1819 C1818 1.369 . S
C1819 C1820 1.410 . S
C1819 C1827 1.503 . S
C1820 C1819 1.410 . S
C1820 C1821 1.392 . S
C1820 C1823 1.511 . S
C1821 C1817 1.376 . S
C1821 C1820 1.392 . S
C1821 H1833 0.929 . S
C1822 C1818 1.531 . S
C1822 H1834 0.960 . S
C1822 H1835 0.962 . S
C1822 H1836 0.960 . S
C1823 C1820 1.511 . S
C1823 H1837 0.961 . S
C1823 H1838 0.961 . S
C1823 H1839 0.961 . S
C1824 C1825 1.370 . S
C1824 C1826 1.363 . S
C1824 H1840 0.931 . S
C1825 C1824 1.370 . S
C1825 C1829 1.408 . S
C1826 C1824 1.363 . S
C1826 C1827 1.370 . S
C1826 C1830 1.524 . S
C1827 C1819 1.503 . S
C1827 C1826 1.370 . S
C1827 C1828 1.403 . S
C1828 C1827 1.403 . S
C1828 C1829 1.404 . S
C1828 C1831 1.539 . S
C1829 C1825 1.408 . S
C1829 C1828 1.404 . S
C1829 H1841 0.930 . S
C1830 C1826 1.524 . S
C1830 H1842 0.956 . S
C1830 H1843 0.961 . S
C1830 H1844 0.961 . S
C1831 C1828 1.539 . S
C1831 H1845 0.958 . S
C1831 H1846 0.961 . S
C1831 H1847 0.960 . S
H1832 C1816 0.931 . S
H1833 C1821 0.929 . S
H1834 C1822 0.960 . S
H1835 C1822 0.962 . S
H1836 C1822 0.960 . S
H1837 C1823 0.961 . S
H1838 C1823 0.961 . S
H1839 C1823 0.961 . S
H1840 C1824 0.931 . S
H1841 C1829 0.930 . S
H1842 C1830 0.956 . S
H1843 C1830 0.961 . S
H1844 C1830 0.961 . S
H1845 C1831 0.958 . S
H1846 C1831 0.961 . S
H1847 C1831 0.960 . S
C1848 C1849 1.391 . S
C1848 C1850 1.394 . S
C1848 H1864 0.931 . S
C1849 C1848 1.391 . S
C1849 C1853 1.376 . S
C1850 C1848 1.394 . S
C1850 C1851 1.369 . S
C1850 C1854 1.531 . S
C1851 C1850 1.369 . S
C1851 C1852 1.410 . S
C1851 C1859 1.503 1_565 S
C1852 C1851 1.410 . S
C1852 C1853 1.392 . S
C1852 C1855 1.511 . S
C1853 C1849 1.376 . S
C1853 C1852 1.392 . S
C1853 H1865 0.929 . S
C1854 C1850 1.531 . S
C1854 H1866 0.960 1_565 S
C1854 H1867 0.962 . S
C1854 H1868 0.960 . S
C1855 C1852 1.511 . S
C1855 H1869 0.961 . S
C1855 H1870 0.961 1_565 S
C1855 H1871 0.961 . S
C1856 C1857 1.370 . S
C1856 C1858 1.363 . S
C1856 H1872 0.931 . S
C1857 C1856 1.370 . S
C1857 C1861 1.408 . S
C1858 C1856 1.363 . S
C1858 C1859 1.370 . S
C1858 C1862 1.524 . S
C1859 C1851 1.503 1_545 S
C1859 C1858 1.370 . S
C1859 C1860 1.403 . S
C1860 C1859 1.403 . S
C1860 C1861 1.404 . S
C1860 C1863 1.539 . S
C1861 C1857 1.408 . S
C1861 C1860 1.404 . S
C1861 H1873 0.930 . S
C1862 C1858 1.524 . S
C1862 H1874 0.956 . S
C1862 H1875 0.961 . S
C1862 H1876 0.961 . S
C1863 C1860 1.539 . S
C1863 H1877 0.958 . S
C1863 H1878 0.961 . S
C1863 H1879 0.960 . S
H1864 C1848 0.931 . S
H1865 C1853 0.929 . S
H1866 C1854 0.960 1_545 S
H1867 C1854 0.962 . S
H1868 C1854 0.960 . S
H1869 C1855 0.961 . S
H1870 C1855 0.961 1_545 S
H1871 C1855 0.961 . S
H1872 C1856 0.931 . S
H1873 C1861 0.930 . S
H1874 C1862 0.956 . S
H1875 C1862 0.961 . S
H1876 C1862 0.961 . S
H1877 C1863 0.958 . S
H1878 C1863 0.961 . S
H1879 C1863 0.960 . S
C1880 C1881 1.391 . S
C1880 C1882 1.394 . S
C1880 H1896 0.931 . S
C1881 C1880 1.391 . S
C1881 C1885 1.376 . S
C1882 C1880 1.394 . S
C1882 C1883 1.369 . S
C1882 C1886 1.531 . S
C1883 C1882 1.369 . S
C1883 C1884 1.410 . S
C1883 C1891 1.503 . S
C1884 C1883 1.410 . S
C1884 C1885 1.392 . S
C1884 C1887 1.511 . S
C1885 C1881 1.376 . S
C1885 C1884 1.392 . S
C1885 H1897 0.929 . S
C1886 C1882 1.531 . S
C1886 H1898 0.960 . S
C1886 H1899 0.962 . S
C1886 H1900 0.960 . S
C1887 C1884 1.511 . S
C1887 H1901 0.961 . S
C1887 H1902 0.961 . S
C1887 H1903 0.961 . S
C1888 C1889 1.370 . S
C1888 C1890 1.363 . S
C1888 H1904 0.931 . S
C1889 C1888 1.370 . S
C1889 C1893 1.408 . S
C1890 C1888 1.363 . S
C1890 C1891 1.370 . S
C1890 C1894 1.524 . S
C1891 C1883 1.503 . S
C1891 C1890 1.370 . S
C1891 C1892 1.403 . S
C1892 C1891 1.403 . S
C1892 C1893 1.404 . S
C1892 C1895 1.539 . S
C1893 C1889 1.408 . S
C1893 C1892 1.404 . S
C1893 H1905 0.930 . S
C1894 C1890 1.524 . S
C1894 H1906 0.956 . S
C1894 H1907 0.961 . S
C1894 H1908 0.961 . S
C1895 C1892 1.539 . S
C1895 H1909 0.958 . S
C1895 H1910 0.961 . S
C1895 H1911 0.960 . S
H1896 C1880 0.931 . S
H1897 C1885 0.929 . S
H1898 C1886 0.960 . S
H1899 C1886 0.962 . S
H1900 C1886 0.960 . S
H1901 C1887 0.961 . S
H1902 C1887 0.961 . S
H1903 C1887 0.961 . S
H1904 C1888 0.931 . S
H1905 C1893 0.930 . S
H1906 C1894 0.956 . S
H1907 C1894 0.961 . S
H1908 C1894 0.961 . S
H1909 C1895 0.958 . S
H1910 C1895 0.961 . S
H1911 C1895 0.960 . S
C1912 C1913 1.391 . S
C1912 C1914 1.394 . S
C1912 H1928 0.931 . S
C1913 C1912 1.391 . S
C1913 C1917 1.376 . S
C1914 C1912 1.394 . S
C1914 C1915 1.369 . S
C1914 C1918 1.531 . S
C1915 C1914 1.369 . S
C1915 C1916 1.410 . S
C1915 C1923 1.503 1_565 S
C1916 C1915 1.410 . S
C1916 C1917 1.392 . S
C1916 C1919 1.511 . S
C1917 C1913 1.376 . S
C1917 C1916 1.392 . S
C1917 H1929 0.929 . S
C1918 C1914 1.531 . S
C1918 H1930 0.960 . S
C1918 H1931 0.962 . S
C1918 H1932 0.960 . S
C1919 C1916 1.511 . S
C1919 H1933 0.961 . S
C1919 H1934 0.961 . S
C1919 H1935 0.961 . S
C1920 C1921 1.370 . S
C1920 C1922 1.363 . S
C1920 H1936 0.931 . S
C1921 C1920 1.370 . S
C1921 C1925 1.408 . S
C1922 C1920 1.363 . S
C1922 C1923 1.370 . S
C1922 C1926 1.549 . S
C1923 C1915 1.503 1_545 S
C1923 C1922 1.370 . S
C1923 C1924 1.403 . S
C1924 C1923 1.403 . S
C1924 C1925 1.404 . S
C1924 C1927 1.539 . S
C1925 C1921 1.408 . S
C1925 C1924 1.404 . S
C1925 H1937 0.930 . S
C1926 C1922 1.549 . S
C1926 H1938 0.938 1_545 S
C1926 H1939 0.933 1_545 S
C1926 H1940 0.984 . S
C1927 C1924 1.539 . S
C1927 H1941 0.958 . S
C1927 H1942 0.961 . S
C1927 H1943 0.960 1_545 S
H1928 C1912 0.931 . S
H1929 C1917 0.929 . S
H1930 C1918 0.960 . S
H1931 C1918 0.962 . S
H1932 C1918 0.960 . S
H1933 C1919 0.961 . S
H1934 C1919 0.961 . S
H1935 C1919 0.961 . S
H1936 C1920 0.931 . S
H1937 C1925 0.930 . S
H1938 C1926 0.938 1_565 S
H1939 C1926 0.933 1_565 S
H1940 C1926 0.984 . S
H1941 C1927 0.958 . S
H1942 C1927 0.961 . S
H1943 C1927 0.960 1_565 S
C1944 C1945 1.391 . S
C1944 C1946 1.394 . S
C1944 H1960 0.931 . S
C1945 C1944 1.391 . S
C1945 C1949 1.376 . S
C1946 C1944 1.394 . S
C1946 C1947 1.369 . S
C1946 C1950 1.531 . S
C1947 C1946 1.369 . S
C1947 C1948 1.410 . S
C1947 C1955 1.503 . S
C1948 C1947 1.410 . S
C1948 C1949 1.392 . S
C1948 C1951 1.511 . S
C1949 C1945 1.376 . S
C1949 C1948 1.392 . S
C1949 H1961 0.929 . S
C1950 C1946 1.531 . S
C1950 H1962 0.960 . S
C1950 H1963 0.962 . S
C1950 H1964 0.960 . S
C1951 C1948 1.511 . S
C1951 H1965 0.961 . S
C1951 H1966 0.961 . S
C1951 H1967 0.961 . S
C1952 C1953 1.370 . S
C1952 C1954 1.363 . S
C1952 H1968 0.931 . S
C1953 C1952 1.370 . S
C1953 C1957 1.408 . S
C1954 C1952 1.363 . S
C1954 C1955 1.370 . S
C1954 C1958 1.524 . S
C1955 C1947 1.503 . S
C1955 C1954 1.370 . S
C1955 C1956 1.403 . S
C1956 C1955 1.403 . S
C1956 C1957 1.404 . S
C1956 C1959 1.539 . S
C1957 C1953 1.408 . S
C1957 C1956 1.404 . S
C1957 H1969 0.930 . S
C1958 C1954 1.524 . S
C1958 H1970 0.956 . S
C1958 H1971 0.961 . S
C1958 H1972 0.961 . S
C1959 C1956 1.539 . S
C1959 H1973 0.958 . S
C1959 H1974 0.961 . S
C1959 H1975 0.960 . S
H1960 C1944 0.931 . S
H1961 C1949 0.929 . S
H1962 C1950 0.960 . S
H1963 C1950 0.962 . S
H1964 C1950 0.960 . S
H1965 C1951 0.961 . S
H1966 C1951 0.961 . S
H1967 C1951 0.961 . S
H1968 C1952 0.931 . S
H1969 C1957 0.930 . S
H1970 C1958 0.956 . S
H1971 C1958 0.961 . S
H1972 C1958 0.961 . S
H1973 C1959 0.958 . S
H1974 C1959 0.961 . S
H1975 C1959 0.960 . S
C1976 C1977 1.391 . S
C1976 C1978 1.394 . S
C1976 H1992 0.931 . S
C1977 C1976 1.391 . S
C1977 C1981 1.376 . S
C1978 C1976 1.394 . S
C1978 C1979 1.369 . S
C1978 C1982 1.531 . S
C1979 C1978 1.369 . S
C1979 C1980 1.410 . S
C1979 C1987 1.503 1_565 S
C1980 C1979 1.410 . S
C1980 C1981 1.392 . S
C1980 C1983 1.511 . S
C1981 C1977 1.376 . S
C1981 C1980 1.392 . S
C1981 H1993 0.929 . S
C1982 C1978 1.531 . S
C1982 H1994 0.960 . S
C1982 H1995 0.962 . S
C1982 H1996 0.960 . S
C1983 C1980 1.511 . S
C1983 H1997 0.961 . S
C1983 H1998 0.961 . S
C1983 H1999 0.961 . S
C1984 C1985 1.370 . S
C1984 C1986 1.363 . S
C1984 H2000 0.931 . S
C1985 C1984 1.370 . S
C1985 C1989 1.408 . S
C1986 C1984 1.363 . S
C1986 C1987 1.370 . S
C1986 C1990 1.524 . S
C1987 C1979 1.503 1_545 S
C1987 C1986 1.370 . S
C1987 C1988 1.403 . S
C1988 C1987 1.403 . S
C1988 C1989 1.404 . S
C1988 C1991 1.539 . S
C1989 C1985 1.408 . S
C1989 C1988 1.404 . S
C1989 H2001 0.930 . S
C1990 C1986 1.524 . S
C1990 H2002 0.956 1_545 S
C1990 H2003 0.961 1_545 S
C1990 H2004 0.961 . S
C1991 C1988 1.539 . S
C1991 H2005 0.962 . S
C1991 H2006 0.961 . S
C1991 H2007 0.960 1_545 S
H1992 C1976 0.931 . S
H1993 C1981 0.929 . S
H1994 C1982 0.960 . S
H1995 C1982 0.962 . S
H1996 C1982 0.960 . S
H1997 C1983 0.961 . S
H1998 C1983 0.961 . S
H1999 C1983 0.961 . S
H2000 C1984 0.931 . S
H2001 C1989 0.930 . S
H2002 C1990 0.956 1_565 S
H2003 C1990 0.961 1_565 S
H2004 C1990 0.961 . S
H2005 C1991 0.962 . S
H2006 C1991 0.961 . S
H2007 C1991 0.960 1_565 S
C2008 C2009 1.391 . S
C2008 C2010 1.394 . S
C2008 H2024 0.931 . S
C2009 C2008 1.391 . S
C2009 C2013 1.376 . S
C2010 C2008 1.394 . S
C2010 C2011 1.369 . S
C2010 C2014 1.531 . S
C2011 C2010 1.369 . S
C2011 C2012 1.410 . S
C2011 C2019 1.503 1_545 S
C2012 C2011 1.410 . S
C2012 C2013 1.392 . S
C2012 C2015 1.511 . S
C2013 C2009 1.376 . S
C2013 C2012 1.392 . S
C2013 H2025 0.929 . S
C2014 C2010 1.531 . S
C2014 H2026 0.960 . S
C2014 H2027 0.962 . S
C2014 H2028 0.960 . S
C2015 C2012 1.511 . S
C2015 H2029 0.961 . S
C2015 H2030 0.961 . S
C2015 H2031 0.961 . S
C2016 C2017 1.370 . S
C2016 C2018 1.363 . S
C2016 H2032 0.931 . S
C2017 C2016 1.370 . S
C2017 C2021 1.408 . S
C2018 C2016 1.363 . S
C2018 C2019 1.370 . S
C2018 C2022 1.524 . S
C2019 C2011 1.503 1_565 S
C2019 C2018 1.370 . S
C2019 C2020 1.403 . S
C2020 C2019 1.403 . S
C2020 C2021 1.404 . S
C2020 C2023 1.539 . S
C2021 C2017 1.408 . S
C2021 C2020 1.404 . S
C2021 H2033 0.930 . S
C2022 C2018 1.524 . S
C2022 H2034 0.956 1_565 S
C2022 H2035 0.961 1_565 S
C2022 H2036 0.961 . S
C2023 C2020 1.539 . S
C2023 H2037 0.964 . S
C2023 H2038 0.961 . S
C2023 H2039 0.960 1_565 S
H2024 C2008 0.931 . S
H2025 C2013 0.929 . S
H2026 C2014 0.960 . S
H2027 C2014 0.962 . S
H2028 C2014 0.960 . S
H2029 C2015 0.961 . S
H2030 C2015 0.961 . S
H2031 C2015 0.961 . S
H2032 C2016 0.931 . S
H2033 C2021 0.930 . S
H2034 C2022 0.956 1_545 S
H2035 C2022 0.961 1_545 S
H2036 C2022 0.961 . S
H2037 C2023 0.964 . S
H2038 C2023 0.961 . S
H2039 C2023 0.960 1_545 S
C2040 C2041 1.391 . S
C2040 C2042 1.394 . S
C2040 H2056 0.931 . S
C2041 C2040 1.391 . S
C2041 C2045 1.376 . S
C2042 C2040 1.394 . S
C2042 C2043 1.369 . S
C2042 C2046 1.531 . S
C2043 C2042 1.369 . S
C2043 C2044 1.410 . S
C2043 C2051 1.503 . S
C2044 C2043 1.410 . S
C2044 C2045 1.392 . S
C2044 C2047 1.511 . S
C2045 C2041 1.376 . S
C2045 C2044 1.392 . S
C2045 H2057 0.929 . S
C2046 C2042 1.531 . S
C2046 H2058 0.960 . S
C2046 H2059 0.962 . S
C2046 H2060 0.960 . S
C2047 C2044 1.511 . S
C2047 H2061 0.961 . S
C2047 H2062 0.961 . S
C2047 H2063 0.961 . S
C2048 C2049 1.370 . S
C2048 C2050 1.363 . S
C2048 H2064 0.931 . S
C2049 C2048 1.370 . S
C2049 C2053 1.408 . S
C2050 C2048 1.363 . S
C2050 C2051 1.370 . S
C2050 C2054 1.524 . S
C2051 C2043 1.503 . S
C2051 C2050 1.370 . S
C2051 C2052 1.403 . S
C2052 C2051 1.403 . S
C2052 C2053 1.404 . S
C2052 C2055 1.539 . S
C2053 C2049 1.408 . S
C2053 C2052 1.404 . S
C2053 H2065 0.930 . S
C2054 C2050 1.524 . S
C2054 H2066 0.956 . S
C2054 H2067 0.961 . S
C2054 H2068 0.961 . S
C2055 C2052 1.539 . S
C2055 H2069 0.958 . S
C2055 H2070 0.961 . S
C2055 H2071 0.960 . S
H2056 C2040 0.931 . S
H2057 C2045 0.929 . S
H2058 C2046 0.960 . S
H2059 C2046 0.962 . S
H2060 C2046 0.960 . S
H2061 C2047 0.961 . S
H2062 C2047 0.961 . S
H2063 C2047 0.961 . S
H2064 C2048 0.931 . S
H2065 C2053 0.930 . S
H2066 C2054 0.956 . S
H2067 C2054 0.961 . S
H2068 C2054 0.961 . S
H2069 C2055 0.958 . S
H2070 C2055 0.961 . S
H2071 C2055 0.960 . S
C2072 C2073 1.391 . S
C2072 C2074 1.394 . S
C2072 H2088 0.931 . S
C2073 C2072 1.391 . S
C2073 C2077 1.376 . S
C2074 C2072 1.394 . S
C2074 C2075 1.369 . S
C2074 C2078 1.531 . S
C2075 C2074 1.369 . S
C2075 C2076 1.410 . S
C2075 C2083 1.503 . S
C2076 C2075 1.410 . S
C2076 C2077 1.392 . S
C2076 C2079 1.511 . S
C2077 C2073 1.376 . S
C2077 C2076 1.392 . S
C2077 H2089 0.929 . S
C2078 C2074 1.531 . S
C2078 H2090 0.960 . S
C2078 H2091 0.962 . S
C2078 H2092 0.960 . S
C2079 C2076 1.511 . S
C2079 H2093 0.961 . S
C2079 H2094 0.961 . S
C2079 H2095 0.961 . S
C2080 C2081 1.370 . S
C2080 C2082 1.363 . S
C2080 H2096 0.931 . S
C2081 C2080 1.370 . S
C2081 C2085 1.408 . S
C2082 C2080 1.363 . S
C2082 C2083 1.370 . S
C2082 C2086 1.524 . S
C2083 C2075 1.503 . S
C2083 C2082 1.370 . S
C2083 C2084 1.403 . S
C2084 C2083 1.403 . S
C2084 C2085 1.404 . S
C2084 C2087 1.539 . S
C2085 C2081 1.408 . S
C2085 C2084 1.404 . S
C2085 H2097 0.930 . S
C2086 C2082 1.524 . S
C2086 H2098 0.956 . S
C2086 H2099 0.961 . S
C2086 H2100 0.961 . S
C2087 C2084 1.539 . S
C2087 H2101 0.958 . S
C2087 H2102 0.961 . S
C2087 H2103 0.960 . S
H2088 C2072 0.931 . S
H2089 C2077 0.929 . S
H2090 C2078 0.960 . S
H2091 C2078 0.962 . S
H2092 C2078 0.960 . S
H2093 C2079 0.961 . S
H2094 C2079 0.961 . S
H2095 C2079 0.961 . S
H2096 C2080 0.931 . S
H2097 C2085 0.930 . S
H2098 C2086 0.956 . S
H2099 C2086 0.961 . S
H2100 C2086 0.961 . S
H2101 C2087 0.958 . S
H2102 C2087 0.961 . S
H2103 C2087 0.960 . S
C2104 C2105 1.391 . S
C2104 C2106 1.394 . S
C2104 H2120 0.931 . S
C2105 C2104 1.391 . S
C2105 C2109 1.376 . S
C2106 C2104 1.394 . S
C2106 C2107 1.369 . S
C2106 C2110 1.531 . S
C2107 C2106 1.369 . S
C2107 C2108 1.410 . S
C2107 C2115 1.503 . S
C2108 C2107 1.410 . S
C2108 C2109 1.392 . S
C2108 C2111 1.511 . S
C2109 C2105 1.376 . S
C2109 C2108 1.392 . S
C2109 H2121 0.929 . S
C2110 C2106 1.531 . S
C2110 H2122 0.960 . S
C2110 H2123 0.962 . S
C2110 H2124 0.960 . S
C2111 C2108 1.511 . S
C2111 H2125 0.961 . S
C2111 H2126 0.961 . S
C2111 H2127 0.961 . S
C2112 C2113 1.370 . S
C2112 C2114 1.363 . S
C2112 H2128 0.931 . S
C2113 C2112 1.370 . S
C2113 C2117 1.408 . S
C2114 C2112 1.363 . S
C2114 C2115 1.370 . S
C2114 C2118 1.524 . S
C2115 C2107 1.503 . S
C2115 C2114 1.370 . S
C2115 C2116 1.403 . S
C2116 C2115 1.403 . S
C2116 C2117 1.404 . S
C2116 C2119 1.539 . S
C2117 C2113 1.408 . S
C2117 C2116 1.404 . S
C2117 H2129 0.930 . S
C2118 C2114 1.524 . S
C2118 H2130 0.956 . S
C2118 H2131 0.961 . S
C2118 H2132 0.961 . S
C2119 C2116 1.539 . S
C2119 H2133 0.958 . S
C2119 H2134 0.961 . S
C2119 H2135 0.960 . S
H2120 C2104 0.931 . S
H2121 C2109 0.929 . S
H2122 C2110 0.960 . S
H2123 C2110 0.962 . S
H2124 C2110 0.960 . S
H2125 C2111 0.961 . S
H2126 C2111 0.961 . S
H2127 C2111 0.961 . S
H2128 C2112 0.931 . S
H2129 C2117 0.930 . S
H2130 C2118 0.956 . S
H2131 C2118 0.961 . S
H2132 C2118 0.961 . S
H2133 C2119 0.958 . S
H2134 C2119 0.961 . S
H2135 C2119 0.960 . S
C2136 C2137 1.391 . S
C2136 C2138 1.394 . S
C2136 H2152 0.931 . S
C2137 C2136 1.391 . S
C2137 C2141 1.376 . S
C2138 C2136 1.394 . S
C2138 C2139 1.369 . S
C2138 C2142 1.531 . S
C2139 C2138 1.369 . S
C2139 C2140 1.410 . S
C2139 C2147 1.503 . S
C2140 C2139 1.410 . S
C2140 C2141 1.392 . S
C2140 C2143 1.511 . S
C2141 C2137 1.376 . S
C2141 C2140 1.392 . S
C2141 H2153 0.929 . S
C2142 C2138 1.531 . S
C2142 H2154 0.960 . S
C2142 H2155 0.962 . S
C2142 H2156 0.960 . S
C2143 C2140 1.511 . S
C2143 H2157 0.961 . S
C2143 H2158 0.961 . S
C2143 H2159 0.961 . S
C2144 C2145 1.370 . S
C2144 C2146 1.363 . S
C2144 H2160 0.931 . S
C2145 C2144 1.370 . S
C2145 C2149 1.408 . S
C2146 C2144 1.363 . S
C2146 C2147 1.370 . S
C2146 C2150 1.524 . S
C2147 C2139 1.503 . S
C2147 C2146 1.370 . S
C2147 C2148 1.403 . S
C2148 C2147 1.403 . S
C2148 C2149 1.404 . S
C2148 C2151 1.539 . S
C2149 C2145 1.408 . S
C2149 C2148 1.404 . S
C2149 H2161 0.930 . S
C2150 C2146 1.524 . S
C2150 H2162 0.956 . S
C2150 H2163 0.961 . S
C2150 H2164 0.961 . S
C2151 C2148 1.539 . S
C2151 H2165 0.958 . S
C2151 H2166 0.961 . S
C2151 H2167 0.960 . S
H2152 C2136 0.931 . S
H2153 C2141 0.929 . S
H2154 C2142 0.960 . S
H2155 C2142 0.962 . S
H2156 C2142 0.960 . S
H2157 C2143 0.961 . S
H2158 C2143 0.961 . S
H2159 C2143 0.961 . S
H2160 C2144 0.931 . S
H2161 C2149 0.930 . S
H2162 C2150 0.956 . S
H2163 C2150 0.961 . S
H2164 C2150 0.961 . S
H2165 C2151 0.958 . S
H2166 C2151 0.961 . S
H2167 C2151 0.960 . S
C2168 C2169 1.391 . S
C2168 C2170 1.394 . S
C2168 H2184 0.931 . S
C2169 C2168 1.391 . S
C2169 C2173 1.376 . S
C2170 C2168 1.394 . S
C2170 C2171 1.369 . S
C2170 C2174 1.531 . S
C2171 C2170 1.369 . S
C2171 C2172 1.410 . S
C2171 C2179 1.503 . S
C2172 C2171 1.410 . S
C2172 C2173 1.392 . S
C2172 C2175 1.511 . S
C2173 C2169 1.376 . S
C2173 C2172 1.392 . S
C2173 H2185 0.929 . S
C2174 C2170 1.531 . S
C2174 H2186 0.960 . S
C2174 H2187 0.962 . S
C2174 H2188 0.960 . S
C2175 C2172 1.511 . S
C2175 H2189 0.961 . S
C2175 H2190 0.961 . S
C2175 H2191 0.961 . S
C2176 C2177 1.370 . S
C2176 C2178 1.363 . S
C2176 H2192 0.931 . S
C2177 C2176 1.370 . S
C2177 C2181 1.408 . S
C2178 C2176 1.363 . S
C2178 C2179 1.370 . S
C2178 C2182 1.524 . S
C2179 C2171 1.503 . S
C2179 C2178 1.370 . S
C2179 C2180 1.403 . S
C2180 C2179 1.403 . S
C2180 C2181 1.404 . S
C2180 C2183 1.539 . S
C2181 C2177 1.408 . S
C2181 C2180 1.404 . S
C2181 H2193 0.930 . S
C2182 C2178 1.524 . S
C2182 H2194 0.956 . S
C2182 H2195 0.961 . S
C2182 H2196 0.961 . S
C2183 C2180 1.539 . S
C2183 H2197 0.958 . S
C2183 H2198 0.961 . S
C2183 H2199 0.960 . S
H2184 C2168 0.931 . S
H2185 C2173 0.929 . S
H2186 C2174 0.960 . S
H2187 C2174 0.962 . S
H2188 C2174 0.960 . S
H2189 C2175 0.961 . S
H2190 C2175 0.961 . S
H2191 C2175 0.961 . S
H2192 C2176 0.931 . S
H2193 C2181 0.930 . S
H2194 C2182 0.956 . S
H2195 C2182 0.961 . S
H2196 C2182 0.961 . S
H2197 C2183 0.958 . S
H2198 C2183 0.961 . S
H2199 C2183 0.960 . S
C2200 C2201 1.391 . S
C2200 C2202 1.394 . S
C2200 H2216 0.931 . S
C2201 C2200 1.391 . S
C2201 C2205 1.376 . S
C2202 C2200 1.394 . S
C2202 C2203 1.369 . S
C2202 C2206 1.531 . S
C2203 C2202 1.369 . S
C2203 C2204 1.410 . S
C2203 C2211 1.503 . S
C2204 C2203 1.410 . S
C2204 C2205 1.392 . S
C2204 C2207 1.511 . S
C2205 C2201 1.376 . S
C2205 C2204 1.392 . S
C2205 H2217 0.929 . S
C2206 C2202 1.531 . S
C2206 H2218 0.960 . S
C2206 H2219 0.962 . S
C2206 H2220 0.960 . S
C2207 C2204 1.511 . S
C2207 H2221 0.961 . S
C2207 H2222 0.961 . S
C2207 H2223 0.961 . S
C2208 C2209 1.370 . S
C2208 C2210 1.363 . S
C2208 H2224 0.931 . S
C2209 C2208 1.370 . S
C2209 C2213 1.408 . S
C2210 C2208 1.363 . S
C2210 C2211 1.370 . S
C2210 C2214 1.524 . S
C2211 C2203 1.503 . S
C2211 C2210 1.370 . S
C2211 C2212 1.403 . S
C2212 C2211 1.403 . S
C2212 C2213 1.404 . S
C2212 C2215 1.539 . S
C2213 C2209 1.408 . S
C2213 C2212 1.404 . S
C2213 H2225 0.930 . S
C2214 C2210 1.524 . S
C2214 H2226 0.956 . S
C2214 H2227 0.961 . S
C2214 H2228 0.961 . S
C2215 C2212 1.539 . S
C2215 H2229 0.958 . S
C2215 H2230 0.961 . S
C2215 H2231 0.960 . S
H2216 C2200 0.931 . S
H2217 C2205 0.929 . S
H2218 C2206 0.960 . S
H2219 C2206 0.962 . S
H2220 C2206 0.960 . S
H2221 C2207 0.961 . S
H2222 C2207 0.961 . S
H2223 C2207 0.961 . S
H2224 C2208 0.931 . S
H2225 C2213 0.930 . S
H2226 C2214 0.956 . S
H2227 C2214 0.961 . S
H2228 C2214 0.961 . S
H2229 C2215 0.958 . S
H2230 C2215 0.961 . S
H2231 C2215 0.960 . S
C2232 C2233 1.391 . S
C2232 C2234 1.394 . S
C2232 H2248 0.931 . S
C2233 C2232 1.391 . S
C2233 C2237 1.376 . S
C2234 C2232 1.394 . S
C2234 C2235 1.369 . S
C2234 C2238 1.531 . S
C2235 C2234 1.369 . S
C2235 C2236 1.410 . S
C2235 C2243 1.503 . S
C2236 C2235 1.410 . S
C2236 C2237 1.392 . S
C2236 C2239 1.511 . S
C2237 C2233 1.376 . S
C2237 C2236 1.392 . S
C2237 H2249 0.929 . S
C2238 C2234 1.531 . S
C2238 H2250 0.960 . S
C2238 H2251 0.962 . S
C2238 H2252 0.960 . S
C2239 C2236 1.511 . S
C2239 H2253 0.961 . S
C2239 H2254 0.961 . S
C2239 H2255 0.961 . S
C2240 C2241 1.370 . S
C2240 C2242 1.363 . S
C2240 H2256 0.931 . S
C2241 C2240 1.370 . S
C2241 C2245 1.408 . S
C2242 C2240 1.363 . S
C2242 C2243 1.370 . S
C2242 C2246 1.524 . S
C2243 C2235 1.503 . S
C2243 C2242 1.370 . S
C2243 C2244 1.403 . S
C2244 C2243 1.403 . S
C2244 C2245 1.404 . S
C2244 C2247 1.539 . S
C2245 C2241 1.408 . S
C2245 C2244 1.404 . S
C2245 H2257 0.930 . S
C2246 C2242 1.524 . S
C2246 H2258 0.956 . S
C2246 H2259 0.961 . S
C2246 H2260 0.961 . S
C2247 C2244 1.539 . S
C2247 H2261 0.958 . S
C2247 H2262 0.961 . S
C2247 H2263 0.960 . S
H2248 C2232 0.931 . S
H2249 C2237 0.929 . S
H2250 C2238 0.960 . S
H2251 C2238 0.962 . S
H2252 C2238 0.960 . S
H2253 C2239 0.961 . S
H2254 C2239 0.961 . S
H2255 C2239 0.961 . S
H2256 C2240 0.931 . S
H2257 C2245 0.930 . S
H2258 C2246 0.956 . S
H2259 C2246 0.961 . S
H2260 C2246 0.961 . S
H2261 C2247 0.958 . S
H2262 C2247 0.961 . S
H2263 C2247 0.960 . S
C2264 C2265 1.391 . S
C2264 C2266 1.394 . S
C2264 H2280 0.931 . S
C2265 C2264 1.391 . S
C2265 C2269 1.376 . S
C2266 C2264 1.394 . S
C2266 C2267 1.369 . S
C2266 C2270 1.531 . S
C2267 C2266 1.369 . S
C2267 C2268 1.410 . S
C2267 C2275 1.503 . S
C2268 C2267 1.410 . S
C2268 C2269 1.392 . S
C2268 C2271 1.511 . S
C2269 C2265 1.376 . S
C2269 C2268 1.392 . S
C2269 H2281 0.929 . S
C2270 C2266 1.531 . S
C2270 H2282 0.960 . S
C2270 H2283 0.962 . S
C2270 H2284 0.960 . S
C2271 C2268 1.511 . S
C2271 H2285 0.961 . S
C2271 H2286 0.961 . S
C2271 H2287 0.961 . S
C2272 C2273 1.370 . S
C2272 C2274 1.363 . S
C2272 H2288 0.931 . S
C2273 C2272 1.370 . S
C2273 C2277 1.408 . S
C2274 C2272 1.363 . S
C2274 C2275 1.370 . S
C2274 C2278 1.524 . S
C2275 C2267 1.503 . S
C2275 C2274 1.370 . S
C2275 C2276 1.403 . S
C2276 C2275 1.403 . S
C2276 C2277 1.404 . S
C2276 C2279 1.539 . S
C2277 C2273 1.408 . S
C2277 C2276 1.404 . S
C2277 H2289 0.930 . S
C2278 C2274 1.524 . S
C2278 H2290 0.956 . S
C2278 H2291 0.961 . S
C2278 H2292 0.961 . S
C2279 C2276 1.539 . S
C2279 H2293 0.958 . S
C2279 H2294 0.961 . S
C2279 H2295 0.960 . S
H2280 C2264 0.931 . S
H2281 C2269 0.929 . S
H2282 C2270 0.960 . S
H2283 C2270 0.962 . S
H2284 C2270 0.960 . S
H2285 C2271 0.961 . S
H2286 C2271 0.961 . S
H2287 C2271 0.961 . S
H2288 C2272 0.931 . S
H2289 C2277 0.930 . S
H2290 C2278 0.956 . S
H2291 C2278 0.961 . S
H2292 C2278 0.961 . S
H2293 C2279 0.958 . S
H2294 C2279 0.961 . S
H2295 C2279 0.960 . S
C2296 C2297 1.391 . S
C2296 C2298 1.394 . S
C2296 H2312 0.931 . S
C2297 C2296 1.391 . S
C2297 C2301 1.376 . S
C2298 C2296 1.394 . S
C2298 C2299 1.369 . S
C2298 C2302 1.531 . S
C2299 C2298 1.369 . S
C2299 C2300 1.410 . S
C2299 C2307 1.503 . S
C2300 C2299 1.410 . S
C2300 C2301 1.392 . S
C2300 C2303 1.511 . S
C2301 C2297 1.376 . S
C2301 C2300 1.392 . S
C2301 H2313 0.929 . S
C2302 C2298 1.531 . S
C2302 H2314 0.960 . S
C2302 H2315 0.962 . S
C2302 H2316 0.960 . S
C2303 C2300 1.511 . S
C2303 H2317 0.961 . S
C2303 H2318 0.961 . S
C2303 H2319 0.961 . S
C2304 C2305 1.370 . S
C2304 C2306 1.363 . S
C2304 H2320 0.931 . S
C2305 C2304 1.370 . S
C2305 C2309 1.408 . S
C2306 C2304 1.363 . S
C2306 C2307 1.370 . S
C2306 C2310 1.524 . S
C2307 C2299 1.503 . S
C2307 C2306 1.370 . S
C2307 C2308 1.403 . S
C2308 C2307 1.403 . S
C2308 C2309 1.404 . S
C2308 C2311 1.539 . S
C2309 C2305 1.408 . S
C2309 C2308 1.404 . S
C2309 H2321 0.930 . S
C2310 C2306 1.524 . S
C2310 H2322 0.956 . S
C2310 H2323 0.961 . S
C2310 H2324 0.961 . S
C2311 C2308 1.539 . S
C2311 H2325 0.958 . S
C2311 H2326 0.961 . S
C2311 H2327 0.960 . S
H2312 C2296 0.931 . S
H2313 C2301 0.929 . S
H2314 C2302 0.960 . S
H2315 C2302 0.962 . S
H2316 C2302 0.960 . S
H2317 C2303 0.961 . S
H2318 C2303 0.961 . S
H2319 C2303 0.961 . S
H2320 C2304 0.931 . S
H2321 C2309 0.930 . S
H2322 C2310 0.956 . S
H2323 C2310 0.961 . S
H2324 C2310 0.961 . S
H2325 C2311 0.958 . S
H2326 C2311 0.961 . S
H2327 C2311 0.960 . S
C2328 C2329 1.391 . S
C2328 C2330 1.394 . S
C2328 H2344 0.931 . S
C2329 C2328 1.391 . S
C2329 C2333 1.376 . S
C2330 C2328 1.394 . S
C2330 C2331 1.369 . S
C2330 C2334 1.531 . S
C2331 C2330 1.369 . S
C2331 C2332 1.410 . S
C2331 C2339 1.503 . S
C2332 C2331 1.410 . S
C2332 C2333 1.392 . S
C2332 C2335 1.511 . S
C2333 C2329 1.376 . S
C2333 C2332 1.392 . S
C2333 H2345 0.929 . S
C2334 C2330 1.531 . S
C2334 H2346 0.960 . S
C2334 H2347 0.962 . S
C2334 H2348 0.960 . S
C2335 C2332 1.511 . S
C2335 H2349 0.961 . S
C2335 H2350 0.961 . S
C2335 H2351 0.961 . S
C2336 C2337 1.370 . S
C2336 C2338 1.363 . S
C2336 H2352 0.931 . S
C2337 C2336 1.370 . S
C2337 C2341 1.408 . S
C2338 C2336 1.363 . S
C2338 C2339 1.370 . S
C2338 C2342 1.524 . S
C2339 C2331 1.503 . S
C2339 C2338 1.370 . S
C2339 C2340 1.403 . S
C2340 C2339 1.403 . S
C2340 C2341 1.404 . S
C2340 C2343 1.539 . S
C2341 C2337 1.408 . S
C2341 C2340 1.404 . S
C2341 H2353 0.930 . S
C2342 C2338 1.524 . S
C2342 H2354 0.956 . S
C2342 H2355 0.961 . S
C2342 H2356 0.961 . S
C2343 C2340 1.539 . S
C2343 H2357 0.958 . S
C2343 H2358 0.961 . S
C2343 H2359 0.960 . S
H2344 C2328 0.931 . S
H2345 C2333 0.929 . S
H2346 C2334 0.960 . S
H2347 C2334 0.962 . S
H2348 C2334 0.960 . S
H2349 C2335 0.961 . S
H2350 C2335 0.961 . S
H2351 C2335 0.961 . S
H2352 C2336 0.931 . S
H2353 C2341 0.930 . S
H2354 C2342 0.956 . S
H2355 C2342 0.961 . S
H2356 C2342 0.961 . S
H2357 C2343 0.958 . S
H2358 C2343 0.961 . S
H2359 C2343 0.960 . S
C2360 C2361 1.391 . S
C2360 C2362 1.394 . S
C2360 H2376 0.931 . S
C2361 C2360 1.391 . S
C2361 C2365 1.376 . S
C2362 C2360 1.394 . S
C2362 C2363 1.369 . S
C2362 C2366 1.531 . S
C2363 C2362 1.369 . S
C2363 C2364 1.410 . S
C2363 C2371 1.503 . S
C2364 C2363 1.410 . S
C2364 C2365 1.392 . S
C2364 C2367 1.511 . S
C2365 C2361 1.376 . S
C2365 C2364 1.392 . S
C2365 H2377 0.929 . S
C2366 C2362 1.531 . S
C2366 H2378 0.960 . S
C2366 H2379 0.962 . S
C2366 H2380 0.960 . S
C2367 C2364 1.511 . S
C2367 H2381 0.961 . S
C2367 H2382 0.961 . S
C2367 H2383 0.961 . S
C2368 C2369 1.370 . S
C2368 C2370 1.363 . S
C2368 H2384 0.931 . S
C2369 C2368 1.370 . S
C2369 C2373 1.408 . S
C2370 C2368 1.363 . S
C2370 C2371 1.370 . S
C2370 C2374 1.524 . S
C2371 C2363 1.503 . S
C2371 C2370 1.370 . S
C2371 C2372 1.403 . S
C2372 C2371 1.403 . S
C2372 C2373 1.404 . S
C2372 C2375 1.539 . S
C2373 C2369 1.408 . S
C2373 C2372 1.404 . S
C2373 H2385 0.930 . S
C2374 C2370 1.524 . S
C2374 H2386 0.956 . S
C2374 H2387 0.961 . S
C2374 H2388 0.961 . S
C2375 C2372 1.539 . S
C2375 H2389 0.958 . S
C2375 H2390 0.961 . S
C2375 H2391 0.960 . S
H2376 C2360 0.931 . S
H2377 C2365 0.929 . S
H2378 C2366 0.960 . S
H2379 C2366 0.962 . S
H2380 C2366 0.960 . S
H2381 C2367 0.961 . S
H2382 C2367 0.961 . S
H2383 C2367 0.961 . S
H2384 C2368 0.931 . S
H2385 C2373 0.930 . S
H2386 C2374 0.956 . S
H2387 C2374 0.961 . S
H2388 C2374 0.961 . S
H2389 C2375 0.958 . S
H2390 C2375 0.961 . S
H2391 C2375 0.960 . S
C2392 C2393 1.391 . S
C2392 C2394 1.394 . S
C2392 H2408 0.931 . S
C2393 C2392 1.391 . S
C2393 C2397 1.376 . S
C2394 C2392 1.394 . S
C2394 C2395 1.369 . S
C2394 C2398 1.531 . S
C2395 C2394 1.369 . S
C2395 C2396 1.410 . S
C2395 C2403 1.503 . S
C2396 C2395 1.410 . S
C2396 C2397 1.392 . S
C2396 C2399 1.511 . S
C2397 C2393 1.376 . S
C2397 C2396 1.392 . S
C2397 H2409 0.929 . S
C2398 C2394 1.531 . S
C2398 H2410 0.960 . S
C2398 H2411 0.962 . S
C2398 H2412 0.960 . S
C2399 C2396 1.511 . S
C2399 H2413 0.961 . S
C2399 H2414 0.961 . S
C2399 H2415 0.961 . S
C2400 C2401 1.370 . S
C2400 C2402 1.363 . S
C2400 H2416 0.931 . S
C2401 C2400 1.370 . S
C2401 C2405 1.408 . S
C2402 C2400 1.363 . S
C2402 C2403 1.370 . S
C2402 C2406 1.524 . S
C2403 C2395 1.503 . S
C2403 C2402 1.370 . S
C2403 C2404 1.403 . S
C2404 C2403 1.403 . S
C2404 C2405 1.404 . S
C2404 C2407 1.539 . S
C2405 C2401 1.408 . S
C2405 C2404 1.404 . S
C2405 H2417 0.930 . S
C2406 C2402 1.524 . S
C2406 H2418 0.956 . S
C2406 H2419 0.961 . S
C2406 H2420 0.961 . S
C2407 C2404 1.539 . S
C2407 H2421 0.958 . S
C2407 H2422 0.961 . S
C2407 H2423 0.960 . S
H2408 C2392 0.931 . S
H2409 C2397 0.929 . S
H2410 C2398 0.960 . S
H2411 C2398 0.962 . S
H2412 C2398 0.960 . S
H2413 C2399 0.961 . S
H2414 C2399 0.961 . S
H2415 C2399 0.961 . S
H2416 C2400 0.931 . S
H2417 C2405 0.930 . S
H2418 C2406 0.956 . S
H2419 C2406 0.961 . S
H2420 C2406 0.961 . S
H2421 C2407 0.958 . S
H2422 C2407 0.961 . S
H2423 C2407 0.960 . S
C2424 C2425 1.391 . S
C2424 C2426 1.394 . S
C2424 H2440 0.931 . S
C2425 C2424 1.391 . S
C2425 C2429 1.376 . S
C2426 C2424 1.394 . S
C2426 C2427 1.369 . S
C2426 C2430 1.531 . S
C2427 C2426 1.369 . S
C2427 C2428 1.410 . S
C2427 C2435 1.503 . S
C2428 C2427 1.410 . S
C2428 C2429 1.392 . S
C2428 C2431 1.511 . S
C2429 C2425 1.376 . S
C2429 C2428 1.392 . S
C2429 H2441 0.929 . S
C2430 C2426 1.531 . S
C2430 H2442 0.960 . S
C2430 H2443 0.962 . S
C2430 H2444 0.960 . S
C2431 C2428 1.511 . S
C2431 H2445 0.961 . S
C2431 H2446 0.961 . S
C2431 H2447 0.961 . S
C2432 C2433 1.370 . S
C2432 C2434 1.363 . S
C2432 H2448 0.931 . S
C2433 C2432 1.370 . S
C2433 C2437 1.408 . S
C2434 C2432 1.363 . S
C2434 C2435 1.370 . S
C2434 C2438 1.524 . S
C2435 C2427 1.503 . S
C2435 C2434 1.370 . S
C2435 C2436 1.403 . S
C2436 C2435 1.403 . S
C2436 C2437 1.404 . S
C2436 C2439 1.539 . S
C2437 C2433 1.408 . S
C2437 C2436 1.404 . S
C2437 H2449 0.930 . S
C2438 C2434 1.524 . S
C2438 H2450 0.956 . S
C2438 H2451 0.961 . S
C2438 H2452 0.961 . S
C2439 C2436 1.539 . S
C2439 H2453 0.958 . S
C2439 H2454 0.961 . S
C2439 H2455 0.960 . S
H2440 C2424 0.931 . S
H2441 C2429 0.929 . S
H2442 C2430 0.960 . S
H2443 C2430 0.962 . S
H2444 C2430 0.960 . S
H2445 C2431 0.961 . S
H2446 C2431 0.961 . S
H2447 C2431 0.961 . S
H2448 C2432 0.931 . S
H2449 C2437 0.930 . S
H2450 C2438 0.956 . S
H2451 C2438 0.961 . S
H2452 C2438 0.961 . S
H2453 C2439 0.958 . S
H2454 C2439 0.961 . S
H2455 C2439 0.960 . S
C2456 C2457 1.391 . S
C2456 C2458 1.394 . S
C2456 H2472 0.931 . S
C2457 C2456 1.391 . S
C2457 C2461 1.376 . S
C2458 C2456 1.394 . S
C2458 C2459 1.369 . S
C2458 C2462 1.531 . S
C2459 C2458 1.369 . S
C2459 C2460 1.410 . S
C2459 C2467 1.503 . S
C2460 C2459 1.410 . S
C2460 C2461 1.392 . S
C2460 C2463 1.511 . S
C2461 C2457 1.376 . S
C2461 C2460 1.392 . S
C2461 H2473 0.929 . S
C2462 C2458 1.531 . S
C2462 H2474 0.960 . S
C2462 H2475 0.962 . S
C2462 H2476 0.960 . S
C2463 C2460 1.511 . S
C2463 H2477 0.961 . S
C2463 H2478 0.961 . S
C2463 H2479 0.961 . S
C2464 C2465 1.370 . S
C2464 C2466 1.363 . S
C2464 H2480 0.931 . S
C2465 C2464 1.370 . S
C2465 C2469 1.408 . S
C2466 C2464 1.363 . S
C2466 C2467 1.370 . S
C2466 C2470 1.524 . S
C2467 C2459 1.503 . S
C2467 C2466 1.370 . S
C2467 C2468 1.403 . S
C2468 C2467 1.403 . S
C2468 C2469 1.404 . S
C2468 C2471 1.539 . S
C2469 C2465 1.408 . S
C2469 C2468 1.404 . S
C2469 H2481 0.930 . S
C2470 C2466 1.524 . S
C2470 H2482 0.956 . S
C2470 H2483 0.961 . S
C2470 H2484 0.961 . S
C2471 C2468 1.539 . S
C2471 H2485 0.958 . S
C2471 H2486 0.961 . S
C2471 H2487 0.960 . S
H2472 C2456 0.931 . S
H2473 C2461 0.929 . S
H2474 C2462 0.960 . S
H2475 C2462 0.962 . S
H2476 C2462 0.960 . S
H2477 C2463 0.961 . S
H2478 C2463 0.961 . S
H2479 C2463 0.961 . S
H2480 C2464 0.931 . S
H2481 C2469 0.930 . S
H2482 C2470 0.956 . S
H2483 C2470 0.961 . S
H2484 C2470 0.961 . S
H2485 C2471 0.958 . S
H2486 C2471 0.961 . S
H2487 C2471 0.960 . S
C2488 C2489 1.391 . S
C2488 C2490 1.394 . S
C2488 H2504 0.931 . S
C2489 C2488 1.391 . S
C2489 C2493 1.376 . S
C2490 C2488 1.394 . S
C2490 C2491 1.369 . S
C2490 C2494 1.531 . S
C2491 C2490 1.369 . S
C2491 C2492 1.410 . S
C2491 C2499 1.503 . S
C2492 C2491 1.410 . S
C2492 C2493 1.392 . S
C2492 C2495 1.511 . S
C2493 C2489 1.376 . S
C2493 C2492 1.392 . S
C2493 H2505 0.929 . S
C2494 C2490 1.531 . S
C2494 H2506 0.960 . S
C2494 H2507 0.962 . S
C2494 H2508 0.960 . S
C2495 C2492 1.511 . S
C2495 H2509 0.961 . S
C2495 H2510 0.961 . S
C2495 H2511 0.961 . S
C2496 C2497 1.370 . S
C2496 C2498 1.363 . S
C2496 H2512 0.931 . S
C2497 C2496 1.370 . S
C2497 C2501 1.408 . S
C2498 C2496 1.363 . S
C2498 C2499 1.370 . S
C2498 C2502 1.524 . S
C2499 C2491 1.503 . S
C2499 C2498 1.370 . S
C2499 C2500 1.403 . S
C2500 C2499 1.403 . S
C2500 C2501 1.404 . S
C2500 C2503 1.539 . S
C2501 C2497 1.408 . S
C2501 C2500 1.404 . S
C2501 H2513 0.930 . S
C2502 C2498 1.524 . S
C2502 H2514 0.956 . S
C2502 H2515 0.961 . S
C2502 H2516 0.961 . S
C2503 C2500 1.539 . S
C2503 H2517 0.958 . S
C2503 H2518 0.961 . S
C2503 H2519 0.960 . S
H2504 C2488 0.931 . S
H2505 C2493 0.929 . S
H2506 C2494 0.960 . S
H2507 C2494 0.962 . S
H2508 C2494 0.960 . S
H2509 C2495 0.961 . S
H2510 C2495 0.961 . S
H2511 C2495 0.961 . S
H2512 C2496 0.931 . S
H2513 C2501 0.930 . S
H2514 C2502 0.956 . S
H2515 C2502 0.961 . S
H2516 C2502 0.961 . S
H2517 C2503 0.958 . S
H2518 C2503 0.961 . S
H2519 C2503 0.960 . S
C2520 C2521 1.391 . S
C2520 C2522 1.394 . S
C2520 H2536 0.931 . S
C2521 C2520 1.391 . S
C2521 C2525 1.376 . S
C2522 C2520 1.394 . S
C2522 C2523 1.369 . S
C2522 C2526 1.531 . S
C2523 C2522 1.369 . S
C2523 C2524 1.410 . S
C2523 C2531 1.503 . S
C2524 C2523 1.410 . S
C2524 C2525 1.392 . S
C2524 C2527 1.511 . S
C2525 C2521 1.376 . S
C2525 C2524 1.392 . S
C2525 H2537 0.929 . S
C2526 C2522 1.531 . S
C2526 H2538 0.960 . S
C2526 H2539 0.962 . S
C2526 H2540 0.960 . S
C2527 C2524 1.511 . S
C2527 H2541 0.961 . S
C2527 H2542 0.961 . S
C2527 H2543 0.961 . S
C2528 C2529 1.370 . S
C2528 C2530 1.363 . S
C2528 H2544 0.931 . S
C2529 C2528 1.370 . S
C2529 C2533 1.408 . S
C2530 C2528 1.363 . S
C2530 C2531 1.370 . S
C2530 C2534 1.524 . S
C2531 C2523 1.503 . S
C2531 C2530 1.370 . S
C2531 C2532 1.403 . S
C2532 C2531 1.403 . S
C2532 C2533 1.404 . S
C2532 C2535 1.539 . S
C2533 C2529 1.408 . S
C2533 C2532 1.404 . S
C2533 H2545 0.930 . S
C2534 C2530 1.524 . S
C2534 H2546 0.956 . S
C2534 H2547 0.961 . S
C2534 H2548 0.961 . S
C2535 C2532 1.539 . S
C2535 H2549 0.958 . S
C2535 H2550 0.961 . S
C2535 H2551 0.960 . S
H2536 C2520 0.931 . S
H2537 C2525 0.929 . S
H2538 C2526 0.960 . S
H2539 C2526 0.962 . S
H2540 C2526 0.960 . S
H2541 C2527 0.961 . S
H2542 C2527 0.961 . S
H2543 C2527 0.961 . S
H2544 C2528 0.931 . S
H2545 C2533 0.930 . S
H2546 C2534 0.956 . S
H2547 C2534 0.961 . S
H2548 C2534 0.961 . S
H2549 C2535 0.958 . S
H2550 C2535 0.961 . S
H2551 C2535 0.960 . S
C2552 C2553 1.391 . S
C2552 C2554 1.394 . S
C2552 H2568 0.931 . S
C2553 C2552 1.391 . S
C2553 C2557 1.376 . S
C2554 C2552 1.394 . S
C2554 C2555 1.369 . S
C2554 C2558 1.531 . S
C2555 C2554 1.369 . S
C2555 C2556 1.410 . S
C2555 C2563 1.503 . S
C2556 C2555 1.410 . S
C2556 C2557 1.392 . S
C2556 C2559 1.511 . S
C2557 C2553 1.376 . S
C2557 C2556 1.392 . S
C2557 H2569 0.929 . S
C2558 C2554 1.531 . S
C2558 H2570 0.960 . S
C2558 H2571 0.962 . S
C2558 H2572 0.960 . S
C2559 C2556 1.511 . S
C2559 H2573 0.961 . S
C2559 H2574 0.961 . S
C2559 H2575 0.961 . S
C2560 C2561 1.370 . S
C2560 C2562 1.363 . S
C2560 H2576 0.931 . S
C2561 C2560 1.370 . S
C2561 C2565 1.408 . S
C2562 C2560 1.363 . S
C2562 C2563 1.370 . S
C2562 C2566 1.524 . S
C2563 C2555 1.503 . S
C2563 C2562 1.370 . S
C2563 C2564 1.403 . S
C2564 C2563 1.403 . S
C2564 C2565 1.404 . S
C2564 C2567 1.539 . S
C2565 C2561 1.408 . S
C2565 C2564 1.404 . S
C2565 H2577 0.930 . S
C2566 C2562 1.524 . S
C2566 H2578 0.956 . S
C2566 H2579 0.961 . S
C2566 H2580 0.961 . S
C2567 C2564 1.539 . S
C2567 H2581 0.958 . S
C2567 H2582 0.961 . S
C2567 H2583 0.960 . S
H2568 C2552 0.931 . S
H2569 C2557 0.929 . S
H2570 C2558 0.960 . S
H2571 C2558 0.962 . S
H2572 C2558 0.960 . S
H2573 C2559 0.961 . S
H2574 C2559 0.961 . S
H2575 C2559 0.961 . S
H2576 C2560 0.931 . S
H2577 C2565 0.930 . S
H2578 C2566 0.956 . S
H2579 C2566 0.961 . S
H2580 C2566 0.961 . S
H2581 C2567 0.958 . S
H2582 C2567 0.961 . S
H2583 C2567 0.960 . S
C2584 C2585 1.391 . S
C2584 C2586 1.394 . S
C2584 H2600 0.931 . S
C2585 C2584 1.391 . S
C2585 C2589 1.376 . S
C2586 C2584 1.394 . S
C2586 C2587 1.369 . S
C2586 C2590 1.531 . S
C2587 C2586 1.369 . S
C2587 C2588 1.410 . S
C2587 C2595 1.503 . S
C2588 C2587 1.410 . S
C2588 C2589 1.392 . S
C2588 C2591 1.511 . S
C2589 C2585 1.376 . S
C2589 C2588 1.392 . S
C2589 H2601 0.929 . S
C2590 C2586 1.531 . S
C2590 H2602 0.960 . S
C2590 H2603 0.962 . S
C2590 H2604 0.960 . S
C2591 C2588 1.511 . S
C2591 H2605 0.961 . S
C2591 H2606 0.961 . S
C2591 H2607 0.961 . S
C2592 C2593 1.370 . S
C2592 C2594 1.363 . S
C2592 H2608 0.931 . S
C2593 C2592 1.370 . S
C2593 C2597 1.408 . S
C2594 C2592 1.363 . S
C2594 C2595 1.370 . S
C2594 C2598 1.524 . S
C2595 C2587 1.503 . S
C2595 C2594 1.370 . S
C2595 C2596 1.403 . S
C2596 C2595 1.403 . S
C2596 C2597 1.404 . S
C2596 C2599 1.539 . S
C2597 C2593 1.408 . S
C2597 C2596 1.404 . S
C2597 H2609 0.930 . S
C2598 C2594 1.524 . S
C2598 H2610 0.956 . S
C2598 H2611 0.961 . S
C2598 H2612 0.961 . S
C2599 C2596 1.539 . S
C2599 H2613 0.958 . S
C2599 H2614 0.961 . S
C2599 H2615 0.960 . S
H2600 C2584 0.931 . S
H2601 C2589 0.929 . S
H2602 C2590 0.960 . S
H2603 C2590 0.962 . S
H2604 C2590 0.960 . S
H2605 C2591 0.961 . S
H2606 C2591 0.961 . S
H2607 C2591 0.961 . S
H2608 C2592 0.931 . S
H2609 C2597 0.930 . S
H2610 C2598 0.956 . S
H2611 C2598 0.961 . S
H2612 C2598 0.961 . S
H2613 C2599 0.958 . S
H2614 C2599 0.961 . S
H2615 C2599 0.960 . S
C2616 C2617 1.391 . S
C2616 C2618 1.394 . S
C2616 H2632 0.931 . S
C2617 C2616 1.391 . S
C2617 C2621 1.376 . S
C2618 C2616 1.394 . S
C2618 C2619 1.369 . S
C2618 C2622 1.531 . S
C2619 C2618 1.369 . S
C2619 C2620 1.410 . S
C2619 C2627 1.503 . S
C2620 C2619 1.410 . S
C2620 C2621 1.392 . S
C2620 C2623 1.511 . S
C2621 C2617 1.376 . S
C2621 C2620 1.392 . S
C2621 H2633 0.929 . S
C2622 C2618 1.531 . S
C2622 H2634 0.960 . S
C2622 H2635 0.962 . S
C2622 H2636 0.960 . S
C2623 C2620 1.511 . S
C2623 H2637 0.961 . S
C2623 H2638 0.961 . S
C2623 H2639 0.961 . S
C2624 C2625 1.370 . S
C2624 C2626 1.363 . S
C2624 H2640 0.931 . S
C2625 C2624 1.370 . S
C2625 C2629 1.408 . S
C2626 C2624 1.363 . S
C2626 C2627 1.370 . S
C2626 C2630 1.524 . S
C2627 C2619 1.503 . S
C2627 C2626 1.370 . S
C2627 C2628 1.403 . S
C2628 C2627 1.403 . S
C2628 C2629 1.404 . S
C2628 C2631 1.539 . S
C2629 C2625 1.408 . S
C2629 C2628 1.404 . S
C2629 H2641 0.930 . S
C2630 C2626 1.524 . S
C2630 H2642 0.956 . S
C2630 H2643 0.961 . S
C2630 H2644 0.961 . S
C2631 C2628 1.539 . S
C2631 H2645 0.958 . S
C2631 H2646 0.961 . S
C2631 H2647 0.960 . S
H2632 C2616 0.931 . S
H2633 C2621 0.929 . S
H2634 C2622 0.960 . S
H2635 C2622 0.962 . S
H2636 C2622 0.960 . S
H2637 C2623 0.961 . S
H2638 C2623 0.961 . S
H2639 C2623 0.961 . S
H2640 C2624 0.931 . S
H2641 C2629 0.930 . S
H2642 C2630 0.956 . S
H2643 C2630 0.961 . S
H2644 C2630 0.961 . S
H2645 C2631 0.958 . S
H2646 C2631 0.961 . S
H2647 C2631 0.960 . S
C2648 C2649 1.391 . S
C2648 C2650 1.394 . S
C2648 H2664 0.931 . S
C2649 C2648 1.391 . S
C2649 C2653 1.376 . S
C2650 C2648 1.394 . S
C2650 C2651 1.369 . S
C2650 C2654 1.531 . S
C2651 C2650 1.369 . S
C2651 C2652 1.410 . S
C2651 C2659 1.503 . S
C2652 C2651 1.410 . S
C2652 C2653 1.392 . S
C2652 C2655 1.511 . S
C2653 C2649 1.376 . S
C2653 C2652 1.392 . S
C2653 H2665 0.929 . S
C2654 C2650 1.531 . S
C2654 H2666 0.960 . S
C2654 H2667 0.962 . S
C2654 H2668 0.960 . S
C2655 C2652 1.511 . S
C2655 H2669 0.961 . S
C2655 H2670 0.961 . S
C2655 H2671 0.961 . S
C2656 C2657 1.370 . S
C2656 C2658 1.363 . S
C2656 H2672 0.931 . S
C2657 C2656 1.370 . S
C2657 C2661 1.408 . S
C2658 C2656 1.363 . S
C2658 C2659 1.370 . S
C2658 C2662 1.524 . S
C2659 C2651 1.503 . S
C2659 C2658 1.370 . S
C2659 C2660 1.403 . S
C2660 C2659 1.403 . S
C2660 C2661 1.404 . S
C2660 C2663 1.539 . S
C2661 C2657 1.408 . S
C2661 C2660 1.404 . S
C2661 H2673 0.930 . S
C2662 C2658 1.524 . S
C2662 H2674 0.956 . S
C2662 H2675 0.961 . S
C2662 H2676 0.961 . S
C2663 C2660 1.539 . S
C2663 H2677 0.958 . S
C2663 H2678 0.961 . S
C2663 H2679 0.960 . S
H2664 C2648 0.931 . S
H2665 C2653 0.929 . S
H2666 C2654 0.960 . S
H2667 C2654 0.962 . S
H2668 C2654 0.960 . S
H2669 C2655 0.961 . S
H2670 C2655 0.961 . S
H2671 C2655 0.961 . S
H2672 C2656 0.931 . S
H2673 C2661 0.930 . S
H2674 C2662 0.956 . S
H2675 C2662 0.961 . S
H2676 C2662 0.961 . S
H2677 C2663 0.958 . S
H2678 C2663 0.961 . S
H2679 C2663 0.960 . S
C2680 C2681 1.391 . S
C2680 C2682 1.394 . S
C2680 H2696 0.931 . S
C2681 C2680 1.391 . S
C2681 C2685 1.376 . S
C2682 C2680 1.394 . S
C2682 C2683 1.369 . S
C2682 C2686 1.531 . S
C2683 C2682 1.369 . S
C2683 C2684 1.410 . S
C2683 C2691 1.503 . S
C2684 C2683 1.410 . S
C2684 C2685 1.392 . S
C2684 C2687 1.511 . S
C2685 C2681 1.376 . S
C2685 C2684 1.392 . S
C2685 H2697 0.929 . S
C2686 C2682 1.531 . S
C2686 H2698 0.960 . S
C2686 H2699 0.962 . S
C2686 H2700 0.960 . S
C2687 C2684 1.511 . S
C2687 H2701 0.961 . S
C2687 H2702 0.961 . S
C2687 H2703 0.961 . S
C2688 C2689 1.370 . S
C2688 C2690 1.363 . S
C2688 H2704 0.931 . S
C2689 C2688 1.370 . S
C2689 C2693 1.408 . S
C2690 C2688 1.363 . S
C2690 C2691 1.370 . S
C2690 C2694 1.524 . S
C2691 C2683 1.503 . S
C2691 C2690 1.370 . S
C2691 C2692 1.403 . S
C2692 C2691 1.403 . S
C2692 C2693 1.404 . S
C2692 C2695 1.539 . S
C2693 C2689 1.408 . S
C2693 C2692 1.404 . S
C2693 H2705 0.930 . S
C2694 C2690 1.524 . S
C2694 H2706 0.956 . S
C2694 H2707 0.961 . S
C2694 H2708 0.961 . S
C2695 C2692 1.539 . S
C2695 H2709 0.958 . S
C2695 H2710 0.961 . S
C2695 H2711 0.960 . S
H2696 C2680 0.931 . S
H2697 C2685 0.929 . S
H2698 C2686 0.960 . S
H2699 C2686 0.962 . S
H2700 C2686 0.960 . S
H2701 C2687 0.961 . S
H2702 C2687 0.961 . S
H2703 C2687 0.961 . S
H2704 C2688 0.931 . S
H2705 C2693 0.930 . S
H2706 C2694 0.956 . S
H2707 C2694 0.961 . S
H2708 C2694 0.961 . S
H2709 C2695 0.958 . S
H2710 C2695 0.961 . S
H2711 C2695 0.960 . S
C2712 C2713 1.391 . S
C2712 C2714 1.394 . S
C2712 H2728 0.931 . S
C2713 C2712 1.391 . S
C2713 C2717 1.376 . S
C2714 C2712 1.394 . S
C2714 C2715 1.369 . S
C2714 C2718 1.531 . S
C2715 C2714 1.369 . S
C2715 C2716 1.410 . S
C2715 C2723 1.503 . S
C2716 C2715 1.410 . S
C2716 C2717 1.392 . S
C2716 C2719 1.511 . S
C2717 C2713 1.376 . S
C2717 C2716 1.392 . S
C2717 H2729 0.929 . S
C2718 C2714 1.531 . S
C2718 H2730 0.960 . S
C2718 H2731 0.962 . S
C2718 H2732 0.960 . S
C2719 C2716 1.511 . S
C2719 H2733 0.961 . S
C2719 H2734 0.961 . S
C2719 H2735 0.961 . S
C2720 C2721 1.370 . S
C2720 C2722 1.363 . S
C2720 H2736 0.931 . S
C2721 C2720 1.370 . S
C2721 C2725 1.408 . S
C2722 C2720 1.363 . S
C2722 C2723 1.370 . S
C2722 C2726 1.524 . S
C2723 C2715 1.503 . S
C2723 C2722 1.370 . S
C2723 C2724 1.403 . S
C2724 C2723 1.403 . S
C2724 C2725 1.404 . S
C2724 C2727 1.539 . S
C2725 C2721 1.408 . S
C2725 C2724 1.404 . S
C2725 H2737 0.930 . S
C2726 C2722 1.524 . S
C2726 H2738 0.956 . S
C2726 H2739 0.961 . S
C2726 H2740 0.961 . S
C2727 C2724 1.539 . S
C2727 H2741 0.958 . S
C2727 H2742 0.961 . S
C2727 H2743 0.960 . S
H2728 C2712 0.931 . S
H2729 C2717 0.929 . S
H2730 C2718 0.960 . S
H2731 C2718 0.962 . S
H2732 C2718 0.960 . S
H2733 C2719 0.961 . S
H2734 C2719 0.961 . S
H2735 C2719 0.961 . S
H2736 C2720 0.931 . S
H2737 C2725 0.930 . S
H2738 C2726 0.956 . S
H2739 C2726 0.961 . S
H2740 C2726 0.961 . S
H2741 C2727 0.958 . S
H2742 C2727 0.961 . S
H2743 C2727 0.960 . S
C2744 C2745 1.391 . S
C2744 C2746 1.394 . S
C2744 H2760 0.931 . S
C2745 C2744 1.391 . S
C2745 C2749 1.376 . S
C2746 C2744 1.394 . S
C2746 C2747 1.369 . S
C2746 C2750 1.531 . S
C2747 C2746 1.369 . S
C2747 C2748 1.410 . S
C2747 C2755 1.503 . S
C2748 C2747 1.410 . S
C2748 C2749 1.392 . S
C2748 C2751 1.511 . S
C2749 C2745 1.376 . S
C2749 C2748 1.392 . S
C2749 H2761 0.929 . S
C2750 C2746 1.531 . S
C2750 H2762 0.960 . S
C2750 H2763 0.962 . S
C2750 H2764 0.960 . S
C2751 C2748 1.511 . S
C2751 H2765 0.961 . S
C2751 H2766 0.961 . S
C2751 H2767 0.961 . S
C2752 C2753 1.370 . S
C2752 C2754 1.363 . S
C2752 H2768 0.931 . S
C2753 C2752 1.370 . S
C2753 C2757 1.408 . S
C2754 C2752 1.363 . S
C2754 C2755 1.370 . S
C2754 C2758 1.524 . S
C2755 C2747 1.503 . S
C2755 C2754 1.370 . S
C2755 C2756 1.403 . S
C2756 C2755 1.403 . S
C2756 C2757 1.404 . S
C2756 C2759 1.539 . S
C2757 C2753 1.408 . S
C2757 C2756 1.404 . S
C2757 H2769 0.930 . S
C2758 C2754 1.524 . S
C2758 H2770 0.956 . S
C2758 H2771 0.961 . S
C2758 H2772 0.961 . S
C2759 C2756 1.539 . S
C2759 H2773 0.958 . S
C2759 H2774 0.961 . S
C2759 H2775 0.960 . S
H2760 C2744 0.931 . S
H2761 C2749 0.929 . S
H2762 C2750 0.960 . S
H2763 C2750 0.962 . S
H2764 C2750 0.960 . S
H2765 C2751 0.961 . S
H2766 C2751 0.961 . S
H2767 C2751 0.961 . S
H2768 C2752 0.931 . S
H2769 C2757 0.930 . S
H2770 C2758 0.956 . S
H2771 C2758 0.961 . S
H2772 C2758 0.961 . S
H2773 C2759 0.958 . S
H2774 C2759 0.961 . S
H2775 C2759 0.960 . S
C2776 C2777 1.391 . S
C2776 C2778 1.394 . S
C2776 H2792 0.931 . S
C2777 C2776 1.391 . S
C2777 C2781 1.376 . S
C2778 C2776 1.394 . S
C2778 C2779 1.369 . S
C2778 C2782 1.531 . S
C2779 C2778 1.369 . S
C2779 C2780 1.410 . S
C2779 C2787 1.503 . S
C2780 C2779 1.410 . S
C2780 C2781 1.392 . S
C2780 C2783 1.511 . S
C2781 C2777 1.376 . S
C2781 C2780 1.392 . S
C2781 H2793 0.929 . S
C2782 C2778 1.531 . S
C2782 H2794 0.960 . S
C2782 H2795 0.962 . S
C2782 H2796 0.960 . S
C2783 C2780 1.511 . S
C2783 H2797 0.961 . S
C2783 H2798 0.961 . S
C2783 H2799 0.961 . S
C2784 C2785 1.370 . S
C2784 C2786 1.363 . S
C2784 H2800 0.931 . S
C2785 C2784 1.370 . S
C2785 C2789 1.408 . S
C2786 C2784 1.363 . S
C2786 C2787 1.370 . S
C2786 C2790 1.524 . S
C2787 C2779 1.503 . S
C2787 C2786 1.370 . S
C2787 C2788 1.403 . S
C2788 C2787 1.403 . S
C2788 C2789 1.404 . S
C2788 C2791 1.539 . S
C2789 C2785 1.408 . S
C2789 C2788 1.404 . S
C2789 H2801 0.930 . S
C2790 C2786 1.524 . S
C2790 H2802 0.956 . S
C2790 H2803 0.961 . S
C2790 H2804 0.961 . S
C2791 C2788 1.539 . S
C2791 H2805 0.958 . S
C2791 H2806 0.961 . S
C2791 H2807 0.960 . S
H2792 C2776 0.931 . S
H2793 C2781 0.929 . S
H2794 C2782 0.960 . S
H2795 C2782 0.962 . S
H2796 C2782 0.960 . S
H2797 C2783 0.961 . S
H2798 C2783 0.961 . S
H2799 C2783 0.961 . S
H2800 C2784 0.931 . S
H2801 C2789 0.930 . S
H2802 C2790 0.956 . S
H2803 C2790 0.961 . S
H2804 C2790 0.961 . S
H2805 C2791 0.958 . S
H2806 C2791 0.961 . S
H2807 C2791 0.960 . S
C1273 C834 2.019 . S
C1281 C39 2.040 . S
C1305 C675 2.110 . S
C1313 C75 2.083 . S
C1337 C728 1.664 . S
C1345 C145 1.673 . S
C1369 C764 1.894 . S
C1377 C181 1.902 . S
C1401 C781 2.036 . S
C1409 C92 2.024 . S
C1433 C128 1.852 . S
C1441 C817 1.850 . S
C1465 C658 1.812 . S
C1473 C198 1.854 . S
C1497 C711 1.816 . S
C1505 C22 1.816 . S
C1529 C976 1.688 . S
C1537 C234 1.688 . S
C1561 C304 1.990 . S
C1569 C1046 1.986 . S
C1593 C357 1.858 . S
C1601 C870 1.828 . S
C1625 C940 2.159 . S
C1633 C410 2.158 . S
C1657 C1188 2.088 . S
C1665 C463 2.138 . S
C1689 C516 1.908 . S
C1697 C1258 1.900 . S
C1721 C569 2.176 . S
C1729 C1099 2.186 . S
C1753 C622 1.646 . S
C1761 C1135 1.591 . S
C1785 C923 1.729 . S
C1793 C605 1.726 . S
C1817 C1241 2.007 . S
C1825 C287 2.027 . S
C1849 C340 1.824 . S
C1857 C1082 1.815 . S
C1881 C1152 2.059 . S
C1889 C393 2.031 . S
C1913 C1205 2.129 . S
C1921 C251 2.150 . S
C1945 C499 1.867 . S
C1953 C1029 1.873 . S
C1977 C887 2.024 . S
C1985 C552 1.993 . S
C2009 C993 1.894 . S
C2017 C446 1.876 . S
C2041 C38 1.976 . S
C2049 C250 1.984 . S
C2073 C294 1.768 . S
C2081 C82 1.802 . S
C2105 C144 1.810 . S
C2113 C347 1.823 . S
C2137 C188 1.749 . S
C2145 C400 1.719 . S
C2169 C453 1.943 . S
C2177 C91 1.969 . S
C2201 C506 1.729 . S
C2209 C135 1.737 . S
C2233 C559 2.023 . S
C2241 C197 1.990 . S
C2265 C29 1.679 . S
C2273 C612 1.644 . S
C2297 C621 1.909 . S
C2305 C241 1.936 . S
C2329 C303 2.129 . S
C2337 C462 2.152 . S
C2361 C356 1.998 . S
C2369 C515 1.970 . S
C2393 C568 2.221 . S
C2401 C409 2.211 . S
C2425 C886 1.939 . S
C2433 C665 1.970 . S
C2457 C930 1.793 . S
C2465 C718 1.749 . S
C2489 C780 1.971 . S
C2497 C992 1.977 . S
C2521 C824 1.842 . S
C2529 C1036 1.865 . S
C2553 C727 1.936 . S
C2561 C1089 1.921 . S
C2585 C771 1.897 . S
C2593 C1151 1.893 . S
C2617 C1204 2.145 . S
C2625 C833 2.150 . S
C2649 C674 1.967 . S
C2657 C1248 1.928 . S
C2681 C877 1.821 . S
C2689 C1257 1.843 . S
C2713 C1098 2.033 . S
C2721 C939 2.033 . S
C2745 C983 1.843 . S
C2753 C1142 1.797 . S
C2777 C1195 1.964 . S
C2785 C1045 1.946 . S
