# Generated by pormake.
# Topology sml, (6)-cn, num edge types: 1
# Building blocks:
#     Node 0, Type 0, BuildingBlock: INOVEN_clean_sbu_0, # of connection points: 6
#     Node 1, Type 0, BuildingBlock: INOVEN_clean_sbu_0, # of connection points: 6
#     Node 2, Type 0, BuildingBlock: INOVEN_clean_sbu_0, # of connection points: 6
#     Node 3, Type 0, BuildingBlock: INOVEN_clean_sbu_0, # of connection points: 6
#     Node 4, Type 0, BuildingBlock: INOVEN_clean_sbu_0, # of connection points: 6
#     Node 5, Type 0, BuildingBlock: INOVEN_clean_sbu_0, # of connection points: 6
#     Edge 6, Type (0, 0), BuildingBlock: EYOCIG_clean_linker_4, # of connection points: 2
#     Edge 7, Type (0, 0), BuildingBlock: EYOCIG_clean_linker_4, # of connection points: 2
#     Edge 8, Type (0, 0), BuildingBlock: EYOCIG_clean_linker_4, # of connection points: 2
#     Edge 9, Type (0, 0), BuildingBlock: EYOCIG_clean_linker_4, # of connection points: 2
#     Edge 10, Type (0, 0), BuildingBlock: EYOCIG_clean_linker_4, # of connection points: 2
#     Edge 11, Type (0, 0), BuildingBlock: EYOCIG_clean_linker_4, # of connection points: 2
#     Edge 12, Type (0, 0), BuildingBlock: EYOCIG_clean_linker_4, # of connection points: 2
#     Edge 13, Type (0, 0), BuildingBlock: EYOCIG_clean_linker_4, # of connection points: 2
#     Edge 14, Type (0, 0), BuildingBlock: EYOCIG_clean_linker_4, # of connection points: 2
#     Edge 15, Type (0, 0), BuildingBlock: EYOCIG_clean_linker_4, # of connection points: 2
#     Edge 16, Type (0, 0), BuildingBlock: EYOCIG_clean_linker_4, # of connection points: 2
#     Edge 17, Type (0, 0), BuildingBlock: EYOCIG_clean_linker_4, # of connection points: 2
#     Edge 18, Type (0, 0), BuildingBlock: EYOCIG_clean_linker_4, # of connection points: 2
#     Edge 19, Type (0, 0), BuildingBlock: EYOCIG_clean_linker_4, # of connection points: 2
#     Edge 20, Type (0, 0), BuildingBlock: EYOCIG_clean_linker_4, # of connection points: 2
#     Edge 21, Type (0, 0), BuildingBlock: EYOCIG_clean_linker_4, # of connection points: 2
#     Edge 22, Type (0, 0), BuildingBlock: EYOCIG_clean_linker_4, # of connection points: 2
#     Edge 23, Type (0, 0), BuildingBlock: EYOCIG_clean_linker_4, # of connection points: 2
# Relax obj value: 0.253
# Max RMSD: 0.269
# Mean RMSD: 0.269
data_MOF--net-sml--node1-INOVEN_clean_sbu_0--edge1-EYOCIG_clean_linker_4
_symmetry_space_group_name_H-M    P1
_symmetry_Int_Tables_number       1
_symmetry_cell_setting            triclinic
loop_
_symmetry_equiv_pos_as_xyz
'x, y, z'
_cell_length_a     24.05698
_cell_length_b     24.059572
_cell_length_c     21.68057
_cell_angle_alpha  90.000583
_cell_angle_beta   89.9981
_cell_angle_gamma 119.9818
loop_
_atom_site_label
_atom_site_type_symbol
_atom_site_fract_x
_atom_site_fract_y
_atom_site_fract_z
_atom_type_partial_charge
Gd0 Gd 0.17671 0.42452 0.97519 0.0
Gd1 Gd 0.25976 0.42496 0.08425 0.0
C2 C 0.25037 0.34099 0.97014 0.0
C3 C 0.13116 0.42234 0.86702 0.0
C4 C 0.14484 0.40989 0.80399 0.0
C5 C 0.09486 0.38208 0.76075 0.0
C6 C 0.20764 0.42757 0.78579 0.0
C7 C 0.17142 0.39791 0.68033 0.0
C8 C 0.22086 0.42179 0.72409 0.0
C9 C 0.1081 0.37611 0.69909 0.0
C10 C 0.11111 0.35286 0.07228 0.0
C11 C 0.19263 0.51413 0.08816 0.0
C12 C 0.29884 0.41805 0.19317 0.0
C13 C 0.28177 0.42434 0.25695 0.0
C14 C 0.3298 0.44936 0.3022 0.0
C15 C 0.21771 0.40268 0.27392 0.0
C16 C 0.24946 0.4247 0.38124 0.0
C17 C 0.20165 0.40267 0.33589 0.0
C18 C 0.31375 0.4496 0.36413 0.0
C19 C 0.32592 0.49768 0.98706 0.0
O20 O 0.22636 0.37193 0.93997 0.0
O21 O 0.26105 0.34688 0.03001 0.0
O22 O 0.10583 0.37291 0.90423 0.0
O23 O 0.17556 0.47509 0.89332 0.0
O24 O 0.09038 0.3825 0.03758 0.0
O25 O 0.16256 0.35853 0.05161 0.0
O26 O 0.21468 0.48178 0.11889 0.0
O27 O 0.18004 0.50637 0.02836 0.0
O28 O 0.32628 0.47061 0.16007 0.0
O29 O 0.25596 0.36787 0.1625 0.0
O30 O 0.34779 0.46981 0.02299 0.0
O31 O 0.27401 0.49099 1.00763 0.0
H32 H 0.04597 0.36703 0.77426 0.0
H33 H 0.24672 0.44783 0.81874 0.0
H34 H 0.26995 0.43826 0.71021 0.0
H35 H 0.06934 0.35694 0.66575 0.0
H36 H 0.37948 0.46691 0.28985 0.0
H37 H 0.17997 0.38409 0.23961 0.0
H38 H 0.15179 0.38373 0.34854 0.0
H39 H 0.35123 0.46729 0.39875 0.0
Gd40 Gd 0.75637 0.17462 0.30844 0.0
Gd41 Gd 0.83908 0.25766 0.41747 0.0
C42 C 0.91351 0.24791 0.30339 0.0
C43 C 0.71304 0.12902 0.20028 0.0
C44 C 0.73916 0.14257 0.13722 0.0
C45 C 0.71752 0.09239 0.09426 0.0
C46 C 0.78378 0.20542 0.11872 0.0
C47 C 0.77776 0.16871 1.01351 0.0
C48 C 0.80278 0.21841 0.05701 0.0
C49 C 0.73674 0.1054 0.03258 0.0
C50 C 0.76216 0.10899 0.40567 0.0
C51 C 0.68285 0.19089 0.42137 0.0
C52 C 0.88516 0.29676 0.52635 0.0
C53 C 0.86197 0.27954 0.59016 0.0
C54 C 0.88559 0.32733 0.63566 0.0
C55 C 0.81911 0.21554 0.60689 0.0
C56 C 0.82946 0.2468 0.71443 0.0
C57 C 0.80315 0.19925 0.66885 0.0
C58 C 0.86936 0.31107 0.69756 0.0
C59 C 0.83275 0.32386 0.32016 0.0
O60 O 0.85857 0.224 0.27322 0.0
O61 O 0.91831 0.25863 0.36325 0.0
O62 O 0.73707 0.10366 0.23755 0.0
O63 O 0.7047 0.17347 0.22652 0.0
O64 O 0.71185 0.08837 0.37091 0.0
O65 O 0.80803 0.16034 0.38497 0.0
O66 O 0.73721 0.21279 0.45211 0.0
O67 O 0.67798 0.17828 0.36157 0.0
O68 O 0.85972 0.32402 0.4934 0.0
O69 O 0.89265 0.25406 0.49557 0.0
O70 O 0.88242 0.34564 0.35614 0.0
O71 O 0.78745 0.27203 0.34075 0.0
H72 H 0.68408 0.04348 0.10798 0.0
H73 H 0.80221 0.24468 0.15145 0.0
H74 H 0.83502 0.26751 0.0429 0.0
H75 H 0.71757 0.06645 0.99945 0.0
H76 H 0.9181 0.37697 0.62349 0.0
H77 H 0.79951 0.17801 0.57239 0.0
H78 H 0.77184 0.14942 0.6813 0.0
H79 H 0.88957 0.34837 0.73235 0.0
Gd80 Gd 0.58538 0.75442 0.64199 0.0
Gd81 Gd 0.58501 0.83705 0.75103 0.0
C82 C 0.66909 0.91154 0.63695 0.0
C83 C 0.58765 0.71105 0.53385 0.0
C84 C 0.60014 0.73715 0.47082 0.0
C85 C 0.62807 0.71504 0.42764 0.0
C86 C 0.58238 0.78221 0.45255 0.0
C87 C 0.61223 0.7757 0.34714 0.0
C88 C 0.58821 0.80119 0.39085 0.0
C89 C 0.63409 0.73424 0.36597 0.0
C90 C 0.65677 0.76009 0.7392 0.0
C91 C 0.49558 0.68085 0.75485 0.0
C92 C 0.59198 0.88303 0.85997 0.0
C93 C 0.5858 0.8597 0.92376 0.0
C94 C 0.56088 0.88276 0.96908 0.0
C95 C 0.60747 0.81729 0.94066 0.0
C96 C 0.5856 0.82705 0.04804 0.0
C97 C 0.60757 0.80125 1.00263 0.0
C98 C 0.56071 0.86647 0.03099 0.0
C99 C 0.5124 0.83071 0.65378 0.0
O100 O 0.63809 0.85661 0.60678 0.0
O101 O 0.66319 0.91633 0.69682 0.0
O102 O 0.63707 0.73516 0.57108 0.0
O103 O 0.53487 0.70269 0.56012 0.0
O104 O 0.62708 0.70982 0.70441 0.0
O105 O 0.65131 0.80601 0.71853 0.0
O106 O 0.528 0.73518 0.78562 0.0
O107 O 0.50335 0.67602 0.69505 0.0
O108 O 0.53937 0.85785 0.82693 0.0
O109 O 0.64215 0.89037 0.82924 0.0
O110 O 0.5403 0.88039 0.68975 0.0
O111 O 0.51899 0.78543 0.67435 0.0
H112 H 0.64318 0.68126 0.44119 0.0
H113 H 0.56202 0.80097 0.48546 0.0
H114 H 0.57169 0.83377 0.37691 0.0
H115 H 0.65336 0.71471 0.33267 0.0
H116 H 0.54333 0.91491 0.95678 0.0
H117 H 0.62599 0.79811 0.90631 0.0
H118 H 0.62651 0.77031 1.01522 0.0
H119 H 0.54307 0.88628 0.06566 0.0
Gd120 Gd 0.83539 0.58355 0.97522 0.0
Gd121 Gd 0.75211 0.58275 0.08428 0.0
C122 C 0.76137 0.66674 0.9702 0.0
C123 C 0.88118 0.58602 0.86711 0.0
C124 C 0.8675 0.59837 0.80405 0.0
C125 C 0.91746 0.62611 0.76078 0.0
C126 C 0.80468 0.58065 0.78584 0.0
C127 C 0.84088 0.61018 0.68035 0.0
C128 C 0.79145 0.58634 0.72413 0.0
C129 C 0.9042 0.632 0.69911 0.0
C130 C 0.90078 0.6551 0.07245 0.0
C131 C 0.81945 0.49378 0.08804 0.0
C132 C 0.71294 0.58947 0.19322 0.0
C133 C 0.73013 0.58333 0.257 0.0
C134 C 0.68215 0.55828 0.30232 0.0
C135 C 0.79423 0.60516 0.27391 0.0
C136 C 0.76263 0.58321 0.38129 0.0
C137 C 0.81039 0.6053 0.33587 0.0
C138 C 0.69831 0.55816 0.36424 0.0
C139 C 0.68612 0.5101 0.98698 0.0
O140 O 0.78554 0.63595 0.94001 0.0
O141 O 0.75063 0.66076 0.03006 0.0
O142 O 0.90625 0.63544 0.90433 0.0
O143 O 0.83691 0.53316 0.89336 0.0
O144 O 0.92163 0.62559 0.03771 0.0
O145 O 0.84931 0.64936 0.05175 0.0
O146 O 0.79732 0.52603 0.11883 0.0
O147 O 0.8321 0.50165 0.02826 0.0
O148 O 0.68569 0.53689 0.16014 0.0
O149 O 0.75565 0.63973 0.16252 0.0
O150 O 0.66411 0.53778 0.02298 0.0
O151 O 0.73808 0.5169 1.00755 0.0
H152 H 0.96635 0.64119 0.77429 0.0
H153 H 0.76562 0.56042 0.81881 0.0
H154 H 0.74235 0.56986 0.71025 0.0
H155 H 0.94295 0.65113 0.66575 0.0
H156 H 0.63244 0.5406 0.29002 0.0
H157 H 0.83192 0.62378 0.23955 0.0
H158 H 0.86028 0.62436 0.34846 0.0
H159 H 0.66086 0.54043 0.39891 0.0
Gd160 Gd 0.25544 0.83324 0.30859 0.0
Gd161 Gd 0.17276 0.75021 0.4176 0.0
C162 C 0.0983 0.75993 0.30357 0.0
C163 C 0.29882 0.87881 0.20043 0.0
C164 C 0.27276 0.86513 0.13737 0.0
C165 C 0.29475 0.91513 0.09418 0.0
C166 C 0.22787 0.80229 0.1191 0.0
C167 C 0.23428 0.83859 1.01368 0.0
C168 C 0.20892 0.78909 0.05739 0.0
C169 C 0.27559 0.90192 0.03251 0.0
C170 C 0.24957 0.89888 0.40577 0.0
C171 C 0.329 0.81709 0.42155 0.0
C172 C 0.12675 0.71108 0.5265 0.0
C173 C 0.15009 0.72817 0.59029 0.0
C174 C 0.12695 0.6802 0.63561 0.0
C175 C 0.19261 0.79221 0.6072 0.0
C176 C 0.1828 0.76056 0.71457 0.0
C177 C 0.20867 0.80831 0.66916 0.0
C178 C 0.14328 0.6963 0.69752 0.0
C179 C 0.17913 0.68401 0.32031 0.0
O180 O 0.15323 0.7838 0.27338 0.0
O181 O 0.09351 0.74925 0.36344 0.0
O182 O 0.27461 0.90408 0.23761 0.0
O183 O 0.30725 0.83446 0.22676 0.0
O184 O 0.29989 0.91952 0.37102 0.0
O185 O 0.20373 0.8475 0.38509 0.0
O186 O 0.27462 0.79512 0.45227 0.0
O187 O 0.33387 0.8297 0.36176 0.0
O188 O 0.15197 0.68369 0.49342 0.0
O189 O 0.11938 0.75391 0.49583 0.0
O190 O 0.12944 0.66224 0.35626 0.0
O191 O 0.22442 0.73584 0.3409 0.0
H192 H 0.32841 0.96404 0.10774 0.0
H193 H 0.20919 0.76317 0.152 0.0
H194 H 0.17646 0.73998 0.04345 0.0
H195 H 0.29502 0.94071 0.99921 0.0
H196 H 0.09473 0.63054 0.6233 0.0
H197 H 0.21184 0.82989 0.57284 0.0
H198 H 0.23969 0.85816 0.68176 0.0
H199 H 0.12341 0.65885 0.73218 0.0
Gd200 Gd 0.42654 0.25369 0.64184 0.0
Gd201 Gd 0.4269 0.17101 0.75089 0.0
C202 C 0.34276 0.09657 0.63682 0.0
C203 C 0.42423 0.29698 0.53368 0.0
C204 C 0.41161 0.27076 0.47068 0.0
C205 C 0.38311 0.29241 0.42766 0.0
C206 C 0.42973 0.22601 0.45229 0.0
C207 C 0.3991 0.23196 0.34704 0.0
C208 C 0.4237 0.20691 0.39061 0.0
C209 C 0.37689 0.27309 0.36601 0.0
C210 C 0.35515 0.24796 0.73907 0.0
C211 C 0.5164 0.3272 0.75469 0.0
C212 C 0.41982 0.12492 0.8598 0.0
C213 C 0.42586 0.14811 0.92362 0.0
C214 C 0.45009 0.12448 0.96907 0.0
C215 C 0.40465 0.19092 0.94044 0.0
C216 C 0.42562 0.18049 0.04794 0.0
C217 C 0.40434 0.20683 1.00242 0.0
C218 C 0.45004 0.14064 0.03099 0.0
C219 C 0.49948 0.17735 0.65361 0.0
O220 O 0.37376 0.1515 0.60664 0.0
O221 O 0.34869 0.09176 0.69668 0.0
O222 O 0.37488 0.27304 0.57098 0.0
O223 O 0.47702 0.3053 0.5599 0.0
O224 O 0.38484 0.29826 0.70431 0.0
O225 O 0.36062 0.20207 0.71838 0.0
O226 O 0.48394 0.27287 0.78546 0.0
O227 O 0.50861 0.33205 0.6949 0.0
O228 O 0.47248 0.1502 0.82684 0.0
O229 O 0.36969 0.11762 0.82903 0.0
O230 O 0.47159 0.12767 0.68958 0.0
O231 O 0.49289 0.22263 0.67419 0.0
H232 H 0.36771 0.32594 0.44131 0.0
H233 H 0.45052 0.20757 0.48507 0.0
H234 H 0.44051 0.17459 0.37657 0.0
H235 H 0.35717 0.29229 0.33282 0.0
H236 H 0.46727 0.09201 0.95684 0.0
H237 H 0.38665 0.21051 0.90599 0.0
H238 H 0.38577 0.2381 1.01493 0.0
H239 H 0.46715 0.1204 0.06574 0.0
C240 C 0.30728 0.2578 0.84477 0.0
C241 C 0.32773 0.24857 0.79753 0.0
C242 C 0.28692 0.27886 0.89615 0.0
C243 C 0.27184 0.30541 0.93414 0.0
C244 C 0.05348 0.30477 0.17795 0.0
C245 C 0.08313 0.32533 0.13072 0.0
C246 C 0.0121 0.28435 0.22936 0.0
C247 C 0.97052 0.26931 0.26738 0.0
C248 C 0.75232 0.05144 0.51147 0.0
C249 C 0.76154 0.08105 0.46418 0.0
C250 C 0.73126 0.01012 0.56291 0.0
C251 C 0.70471 0.96856 0.60095 0.0
C252 C 0.7045 0.75005 0.8449 0.0
C253 C 0.68412 0.75941 0.79767 0.0
C254 C 0.72479 0.72887 0.89625 0.0
C255 C 0.73987 0.7023 0.93421 0.0
C256 C 0.99967 0.72351 0.22958 0.0
C257 C 0.04127 0.73854 0.26758 0.0
C258 C 0.9583 0.70311 0.17817 0.0
C259 C 0.92868 0.68258 0.13092 0.0
C260 C 0.28047 0.99796 0.56285 0.0
C261 C 0.30709 0.03956 0.60083 0.0
C262 C 0.25937 0.95655 0.51146 0.0
C263 C 0.25014 0.92687 0.46423 0.0
C264 C 0.20016 0.40473 0.56194 0.0
C265 C 0.18654 0.40141 0.61578 0.0
C266 C 0.21733 0.4121 0.49908 0.0
C267 C 0.23211 0.4179 0.44541 0.0
C268 C 0.79975 0.19693 0.89501 0.0
C269 C 0.78939 0.18348 0.94888 0.0
C270 C 0.80968 0.21416 0.83215 0.0
C271 C 0.81877 0.22917 0.77853 0.0
C272 C 0.60557 0.79762 0.22872 0.0
C273 C 0.60882 0.78733 0.28257 0.0
C274 C 0.59823 0.80744 0.16585 0.0
C275 C 0.59242 0.81645 0.11219 0.0
C276 C 0.8121 0.6033 0.56195 0.0
C277 C 0.82573 0.60665 0.61579 0.0
C278 C 0.79489 0.59591 0.4991 0.0
C279 C 0.78006 0.59007 0.44544 0.0
C280 C 0.2025 0.7928 0.83238 0.0
C281 C 0.19344 0.77797 0.77873 0.0
C282 C 0.21235 0.80997 0.89525 0.0
C283 C 0.22265 0.82354 0.9491 0.0
C284 C 0.40544 0.20988 0.22859 0.0
C285 C 0.40231 0.22028 0.28245 0.0
C286 C 0.41274 0.20002 0.16572 0.0
C287 C 0.41865 0.19106 0.11206 0.0
C288 C 0.17982 0.59311 0.16275 0.0
C289 C 0.18311 0.5594 0.12329 0.0
C290 C 0.1799 0.62792 0.21548 0.0
C291 C 0.18065 0.65437 0.26312 0.0
C292 C 0.59112 0.17817 0.49602 0.0
C293 C 0.62808 0.18143 0.45653 0.0
C294 C 0.55638 0.1782 0.54877 0.0
C295 C 0.53066 0.17889 0.59642 0.0
C296 C 0.38183 0.55443 0.88217 0.0
C297 C 0.35546 0.52879 0.92984 0.0
C298 C 0.41657 0.58912 0.82941 0.0
C299 C 0.45028 0.62608 0.78995 0.0
C300 C 0.83209 0.3799 0.21527 0.0
C301 C 0.83127 0.35347 0.26294 0.0
C302 C 0.83223 0.41473 0.16254 0.0
C303 C 0.82898 0.44847 0.1231 0.0
C304 C 0.42074 0.82989 0.49622 0.0
C305 C 0.38377 0.8266 0.45673 0.0
C306 C 0.45548 0.82988 0.54897 0.0
C307 C 0.48121 0.82918 0.59661 0.0
C308 C 0.63032 0.45347 0.88202 0.0
C309 C 0.65667 0.47906 0.92971 0.0
C310 C 0.59554 0.41885 0.82925 0.0
C311 C 0.56178 0.38194 0.78978 0.0
loop_
_geom_bond_atom_site_label_1
_geom_bond_atom_site_label_2
_geom_bond_distance
_geom_bond_site_symmetry_2
_ccdc_geom_bond_type
Gd0 C3 2.818 . S
Gd0 O20 2.377 . S
Gd0 O22 2.448 . S
Gd0 O23 2.506 . S
Gd0 O24 2.435 . S
Gd0 O25 2.717 1_556 S
Gd0 O27 2.395 1_556 S
Gd0 O31 2.327 . S
Gd1 C12 2.818 . S
Gd1 O21 2.395 1_554 S
Gd1 O25 2.327 . S
Gd1 O26 2.377 . S
Gd1 O28 2.448 . S
Gd1 O29 2.506 . S
Gd1 O30 2.435 . S
Gd1 O31 2.717 1_554 S
C2 O20 1.240 . S
C2 O21 1.240 . S
C3 Gd0 2.818 . S
C3 C4 1.510 . S
C3 O22 1.249 . S
C3 O23 1.252 . S
C4 C3 1.510 . S
C4 C5 1.404 . S
C4 C6 1.352 . S
C5 C4 1.404 . S
C5 C9 1.389 . S
C5 H32 0.930 . S
C6 C4 1.352 . S
C6 C8 1.374 . S
C6 H33 0.931 . S
C7 C8 1.359 . S
C7 C9 1.364 . S
C8 C6 1.374 . S
C8 C7 1.359 . S
C8 H34 0.931 . S
C9 C5 1.389 . S
C9 C7 1.364 . S
C9 H35 0.931 . S
C10 O24 1.256 1_554 S
C10 O25 1.257 . S
C11 O26 1.240 . S
C11 O27 1.240 . S
C12 Gd1 2.818 . S
C12 C13 1.510 . S
C12 O28 1.249 . S
C12 O29 1.252 . S
C13 C12 1.510 . S
C13 C14 1.404 . S
C13 C15 1.352 . S
C14 C13 1.404 . S
C14 C18 1.389 . S
C14 H36 0.930 . S
C15 C13 1.352 . S
C15 C17 1.374 . S
C15 H37 0.931 . S
C16 C17 1.359 . S
C16 C18 1.364 . S
C17 C15 1.374 . S
C17 C16 1.359 . S
C17 H38 0.931 . S
C18 C14 1.389 . S
C18 C16 1.364 . S
C18 H39 0.931 . S
C19 O30 1.256 1_556 S
C19 O31 1.257 . S
O20 Gd0 2.377 . S
O20 C2 1.240 . S
O21 Gd1 2.395 1_556 S
O21 C2 1.240 . S
O22 Gd0 2.448 . S
O22 C3 1.249 . S
O23 Gd0 2.506 . S
O23 C3 1.252 . S
O24 Gd0 2.435 . S
O24 C10 1.256 1_556 S
O25 Gd0 2.717 1_554 S
O25 Gd1 2.327 . S
O25 C10 1.257 . S
O26 Gd1 2.377 . S
O26 C11 1.240 . S
O27 Gd0 2.395 1_554 S
O27 C11 1.240 . S
O28 Gd1 2.448 . S
O28 C12 1.249 . S
O29 Gd1 2.506 . S
O29 C12 1.252 . S
O30 Gd1 2.435 . S
O30 C19 1.256 1_554 S
O31 Gd0 2.327 . S
O31 Gd1 2.717 1_556 S
O31 C19 1.257 . S
H32 C5 0.930 . S
H33 C6 0.931 . S
H34 C8 0.931 . S
H35 C9 0.931 . S
H36 C14 0.930 . S
H37 C15 0.931 . S
H38 C17 0.931 . S
H39 C18 0.931 . S
Gd40 C43 2.818 . S
Gd40 O60 2.377 . S
Gd40 O62 2.448 . S
Gd40 O63 2.506 . S
Gd40 O64 2.435 . S
Gd40 O65 2.717 . S
Gd40 O67 2.395 . S
Gd40 O71 2.327 . S
Gd41 C52 2.818 . S
Gd41 O61 2.395 . S
Gd41 O65 2.327 . S
Gd41 O66 2.377 . S
Gd41 O68 2.448 . S
Gd41 O69 2.506 . S
Gd41 O70 2.435 . S
Gd41 O71 2.717 . S
C42 O60 1.240 . S
C42 O61 1.240 . S
C43 Gd40 2.818 . S
C43 C44 1.510 . S
C43 O62 1.249 . S
C43 O63 1.252 . S
C44 C43 1.510 . S
C44 C45 1.404 . S
C44 C46 1.352 . S
C45 C44 1.404 . S
C45 C49 1.389 . S
C45 H72 0.930 . S
C46 C44 1.352 . S
C46 C48 1.374 1_554 S
C46 H73 0.931 . S
C47 C48 1.359 . S
C47 C49 1.364 1_556 S
C48 C46 1.374 1_556 S
C48 C47 1.359 . S
C48 H74 0.931 . S
C49 C45 1.389 . S
C49 C47 1.364 1_554 S
C49 H75 0.931 1_554 S
C50 O64 1.256 . S
C50 O65 1.257 . S
C51 O66 1.240 . S
C51 O67 1.240 . S
C52 Gd41 2.818 . S
C52 C53 1.510 . S
C52 O68 1.249 . S
C52 O69 1.252 . S
C53 C52 1.510 . S
C53 C54 1.404 . S
C53 C55 1.352 . S
C54 C53 1.404 . S
C54 C58 1.389 . S
C54 H76 0.930 . S
C55 C53 1.352 . S
C55 C57 1.374 . S
C55 H77 0.931 . S
C56 C57 1.359 . S
C56 C58 1.364 . S
C57 C55 1.374 . S
C57 C56 1.359 . S
C57 H78 0.931 . S
C58 C54 1.389 . S
C58 C56 1.364 . S
C58 H79 0.931 . S
C59 O70 1.256 . S
C59 O71 1.257 . S
O60 Gd40 2.377 . S
O60 C42 1.240 . S
O61 Gd41 2.395 . S
O61 C42 1.240 . S
O62 Gd40 2.448 . S
O62 C43 1.249 . S
O63 Gd40 2.506 . S
O63 C43 1.252 . S
O64 Gd40 2.435 . S
O64 C50 1.256 . S
O65 Gd40 2.717 . S
O65 Gd41 2.327 . S
O65 C50 1.257 . S
O66 Gd41 2.377 . S
O66 C51 1.240 . S
O67 Gd40 2.395 . S
O67 C51 1.240 . S
O68 Gd41 2.448 . S
O68 C52 1.249 . S
O69 Gd41 2.506 . S
O69 C52 1.252 . S
O70 Gd41 2.435 . S
O70 C59 1.256 . S
O71 Gd40 2.327 . S
O71 Gd41 2.717 . S
O71 C59 1.257 . S
H72 C45 0.930 . S
H73 C46 0.931 . S
H74 C48 0.931 . S
H75 C49 0.931 1_556 S
H76 C54 0.930 . S
H77 C55 0.931 . S
H78 C57 0.931 . S
H79 C58 0.931 . S
Gd80 C83 2.818 . S
Gd80 O100 2.377 . S
Gd80 O102 2.448 . S
Gd80 O103 2.506 . S
Gd80 O104 2.435 . S
Gd80 O105 2.717 . S
Gd80 O107 2.395 . S
Gd80 O111 2.327 . S
Gd81 C92 2.818 . S
Gd81 O101 2.395 . S
Gd81 O105 2.327 . S
Gd81 O106 2.377 . S
Gd81 O108 2.448 . S
Gd81 O109 2.506 . S
Gd81 O110 2.435 . S
Gd81 O111 2.717 . S
C82 O100 1.240 . S
C82 O101 1.240 . S
C83 Gd80 2.818 . S
C83 C84 1.510 . S
C83 O102 1.249 . S
C83 O103 1.252 . S
C84 C83 1.510 . S
C84 C85 1.404 . S
C84 C86 1.352 . S
C85 C84 1.404 . S
C85 C89 1.389 . S
C85 H112 0.930 . S
C86 C84 1.352 . S
C86 C88 1.374 . S
C86 H113 0.931 . S
C87 C88 1.359 . S
C87 C89 1.364 . S
C88 C86 1.374 . S
C88 C87 1.359 . S
C88 H114 0.931 . S
C89 C85 1.389 . S
C89 C87 1.364 . S
C89 H115 0.931 . S
C90 O104 1.256 . S
C90 O105 1.257 . S
C91 O106 1.240 . S
C91 O107 1.240 . S
C92 Gd81 2.818 . S
C92 C93 1.510 . S
C92 O108 1.249 . S
C92 O109 1.252 . S
C93 C92 1.510 . S
C93 C94 1.404 . S
C93 C95 1.352 . S
C94 C93 1.404 . S
C94 C98 1.389 1_556 S
C94 H116 0.930 . S
C95 C93 1.352 . S
C95 C97 1.374 1_556 S
C95 H117 0.931 . S
C96 C97 1.359 . S
C96 C98 1.364 . S
C97 C95 1.374 1_554 S
C97 C96 1.359 . S
C97 H118 0.931 . S
C98 C94 1.389 1_554 S
C98 C96 1.364 . S
C98 H119 0.931 . S
C99 O110 1.256 . S
C99 O111 1.257 . S
O100 Gd80 2.377 . S
O100 C82 1.240 . S
O101 Gd81 2.395 . S
O101 C82 1.240 . S
O102 Gd80 2.448 . S
O102 C83 1.249 . S
O103 Gd80 2.506 . S
O103 C83 1.252 . S
O104 Gd80 2.435 . S
O104 C90 1.256 . S
O105 Gd80 2.717 . S
O105 Gd81 2.327 . S
O105 C90 1.257 . S
O106 Gd81 2.377 . S
O106 C91 1.240 . S
O107 Gd80 2.395 . S
O107 C91 1.240 . S
O108 Gd81 2.448 . S
O108 C92 1.249 . S
O109 Gd81 2.506 . S
O109 C92 1.252 . S
O110 Gd81 2.435 . S
O110 C99 1.256 . S
O111 Gd80 2.327 . S
O111 Gd81 2.717 . S
O111 C99 1.257 . S
H112 C85 0.930 . S
H113 C86 0.931 . S
H114 C88 0.931 . S
H115 C89 0.931 . S
H116 C94 0.930 . S
H117 C95 0.931 . S
H118 C97 0.931 . S
H119 C98 0.931 . S
Gd120 C123 2.818 . S
Gd120 O140 2.377 . S
Gd120 O142 2.448 . S
Gd120 O143 2.506 . S
Gd120 O144 2.435 . S
Gd120 O145 2.717 1_556 S
Gd120 O147 2.395 1_556 S
Gd120 O151 2.327 . S
Gd121 C132 2.818 . S
Gd121 O141 2.395 1_554 S
Gd121 O145 2.327 . S
Gd121 O146 2.377 . S
Gd121 O148 2.448 . S
Gd121 O149 2.506 . S
Gd121 O150 2.435 . S
Gd121 O151 2.717 1_554 S
C122 O140 1.240 . S
C122 O141 1.240 . S
C123 Gd120 2.818 . S
C123 C124 1.510 . S
C123 O142 1.249 . S
C123 O143 1.252 . S
C124 C123 1.510 . S
C124 C125 1.404 . S
C124 C126 1.352 . S
C125 C124 1.404 . S
C125 C129 1.389 . S
C125 H152 0.930 . S
C126 C124 1.352 . S
C126 C128 1.374 . S
C126 H153 0.931 . S
C127 C128 1.359 . S
C127 C129 1.364 . S
C128 C126 1.374 . S
C128 C127 1.359 . S
C128 H154 0.931 . S
C129 C125 1.389 . S
C129 C127 1.364 . S
C129 H155 0.931 . S
C130 O144 1.256 1_554 S
C130 O145 1.257 . S
C131 O146 1.240 . S
C131 O147 1.240 . S
C132 Gd121 2.818 . S
C132 C133 1.510 . S
C132 O148 1.249 . S
C132 O149 1.252 . S
C133 C132 1.510 . S
C133 C134 1.404 . S
C133 C135 1.352 . S
C134 C133 1.404 . S
C134 C138 1.389 . S
C134 H156 0.930 . S
C135 C133 1.352 . S
C135 C137 1.374 . S
C135 H157 0.931 . S
C136 C137 1.359 . S
C136 C138 1.364 . S
C137 C135 1.374 . S
C137 C136 1.359 . S
C137 H158 0.931 . S
C138 C134 1.389 . S
C138 C136 1.364 . S
C138 H159 0.931 . S
C139 O150 1.256 1_556 S
C139 O151 1.257 . S
O140 Gd120 2.377 . S
O140 C122 1.240 . S
O141 Gd121 2.395 1_556 S
O141 C122 1.240 . S
O142 Gd120 2.448 . S
O142 C123 1.249 . S
O143 Gd120 2.506 . S
O143 C123 1.252 . S
O144 Gd120 2.435 . S
O144 C130 1.256 1_556 S
O145 Gd120 2.717 1_554 S
O145 Gd121 2.327 . S
O145 C130 1.257 . S
O146 Gd121 2.377 . S
O146 C131 1.240 . S
O147 Gd120 2.395 1_554 S
O147 C131 1.240 . S
O148 Gd121 2.448 . S
O148 C132 1.249 . S
O149 Gd121 2.506 . S
O149 C132 1.252 . S
O150 Gd121 2.435 . S
O150 C139 1.256 1_554 S
O151 Gd120 2.327 . S
O151 Gd121 2.717 1_556 S
O151 C139 1.257 . S
H152 C125 0.930 . S
H153 C126 0.931 . S
H154 C128 0.931 . S
H155 C129 0.931 . S
H156 C134 0.930 . S
H157 C135 0.931 . S
H158 C137 0.931 . S
H159 C138 0.931 . S
Gd160 C163 2.818 . S
Gd160 O180 2.377 . S
Gd160 O182 2.448 . S
Gd160 O183 2.506 . S
Gd160 O184 2.435 . S
Gd160 O185 2.717 . S
Gd160 O187 2.395 . S
Gd160 O191 2.327 . S
Gd161 C172 2.818 . S
Gd161 O181 2.395 . S
Gd161 O185 2.327 . S
Gd161 O186 2.377 . S
Gd161 O188 2.448 . S
Gd161 O189 2.506 . S
Gd161 O190 2.435 . S
Gd161 O191 2.717 . S
C162 O180 1.240 . S
C162 O181 1.240 . S
C163 Gd160 2.818 . S
C163 C164 1.510 . S
C163 O182 1.249 . S
C163 O183 1.252 . S
C164 C163 1.510 . S
C164 C165 1.404 . S
C164 C166 1.352 . S
C165 C164 1.404 . S
C165 C169 1.389 . S
C165 H192 0.930 . S
C166 C164 1.352 . S
C166 C168 1.374 1_554 S
C166 H193 0.931 . S
C167 C168 1.359 . S
C167 C169 1.364 1_556 S
C168 C166 1.374 1_556 S
C168 C167 1.359 . S
C168 H194 0.931 . S
C169 C165 1.389 . S
C169 C167 1.364 1_554 S
C169 H195 0.931 1_554 S
C170 O184 1.256 . S
C170 O185 1.257 . S
C171 O186 1.240 . S
C171 O187 1.240 . S
C172 Gd161 2.818 . S
C172 C173 1.510 . S
C172 O188 1.249 . S
C172 O189 1.252 . S
C173 C172 1.510 . S
C173 C174 1.404 . S
C173 C175 1.352 . S
C174 C173 1.404 . S
C174 C178 1.389 . S
C174 H196 0.930 . S
C175 C173 1.352 . S
C175 C177 1.374 . S
C175 H197 0.931 . S
C176 C177 1.359 . S
C176 C178 1.364 . S
C177 C175 1.374 . S
C177 C176 1.359 . S
C177 H198 0.931 . S
C178 C174 1.389 . S
C178 C176 1.364 . S
C178 H199 0.931 . S
C179 O190 1.256 . S
C179 O191 1.257 . S
O180 Gd160 2.377 . S
O180 C162 1.240 . S
O181 Gd161 2.395 . S
O181 C162 1.240 . S
O182 Gd160 2.448 . S
O182 C163 1.249 . S
O183 Gd160 2.506 . S
O183 C163 1.252 . S
O184 Gd160 2.435 . S
O184 C170 1.256 . S
O185 Gd160 2.717 . S
O185 Gd161 2.327 . S
O185 C170 1.257 . S
O186 Gd161 2.377 . S
O186 C171 1.240 . S
O187 Gd160 2.395 . S
O187 C171 1.240 . S
O188 Gd161 2.448 . S
O188 C172 1.249 . S
O189 Gd161 2.506 . S
O189 C172 1.252 . S
O190 Gd161 2.435 . S
O190 C179 1.256 . S
O191 Gd160 2.327 . S
O191 Gd161 2.717 . S
O191 C179 1.257 . S
H192 C165 0.930 . S
H193 C166 0.931 . S
H194 C168 0.931 . S
H195 C169 0.931 1_556 S
H196 C174 0.930 . S
H197 C175 0.931 . S
H198 C177 0.931 . S
H199 C178 0.931 . S
Gd200 C203 2.818 . S
Gd200 O220 2.377 . S
Gd200 O222 2.448 . S
Gd200 O223 2.506 . S
Gd200 O224 2.435 . S
Gd200 O225 2.717 . S
Gd200 O227 2.395 . S
Gd200 O231 2.327 . S
Gd201 C212 2.818 . S
Gd201 O221 2.395 . S
Gd201 O225 2.327 . S
Gd201 O226 2.377 . S
Gd201 O228 2.448 . S
Gd201 O229 2.506 . S
Gd201 O230 2.435 . S
Gd201 O231 2.717 . S
C202 O220 1.240 . S
C202 O221 1.240 . S
C203 Gd200 2.818 . S
C203 C204 1.510 . S
C203 O222 1.249 . S
C203 O223 1.252 . S
C204 C203 1.510 . S
C204 C205 1.404 . S
C204 C206 1.352 . S
C205 C204 1.404 . S
C205 C209 1.389 . S
C205 H232 0.930 . S
C206 C204 1.352 . S
C206 C208 1.374 . S
C206 H233 0.931 . S
C207 C208 1.359 . S
C207 C209 1.364 . S
C208 C206 1.374 . S
C208 C207 1.359 . S
C208 H234 0.931 . S
C209 C205 1.389 . S
C209 C207 1.364 . S
C209 H235 0.931 . S
C210 O224 1.256 . S
C210 O225 1.257 . S
C211 O226 1.240 . S
C211 O227 1.240 . S
C212 Gd201 2.818 . S
C212 C213 1.510 . S
C212 O228 1.249 . S
C212 O229 1.252 . S
C213 C212 1.510 . S
C213 C214 1.404 . S
C213 C215 1.352 . S
C214 C213 1.404 . S
C214 C218 1.389 1_556 S
C214 H236 0.930 . S
C215 C213 1.352 . S
C215 C217 1.374 1_556 S
C215 H237 0.931 . S
C216 C217 1.359 . S
C216 C218 1.364 . S
C217 C215 1.374 1_554 S
C217 C216 1.359 . S
C217 H238 0.931 . S
C218 C214 1.389 1_554 S
C218 C216 1.364 . S
C218 H239 0.931 . S
C219 O230 1.256 . S
C219 O231 1.257 . S
O220 Gd200 2.377 . S
O220 C202 1.240 . S
O221 Gd201 2.395 . S
O221 C202 1.240 . S
O222 Gd200 2.448 . S
O222 C203 1.249 . S
O223 Gd200 2.506 . S
O223 C203 1.252 . S
O224 Gd200 2.435 . S
O224 C210 1.256 . S
O225 Gd200 2.717 . S
O225 Gd201 2.327 . S
O225 C210 1.257 . S
O226 Gd201 2.377 . S
O226 C211 1.240 . S
O227 Gd200 2.395 . S
O227 C211 1.240 . S
O228 Gd201 2.448 . S
O228 C212 1.249 . S
O229 Gd201 2.506 . S
O229 C212 1.252 . S
O230 Gd201 2.435 . S
O230 C219 1.256 . S
O231 Gd200 2.327 . S
O231 Gd201 2.717 . S
O231 C219 1.257 . S
H232 C205 0.930 . S
H233 C206 0.931 . S
H234 C208 0.931 . S
H235 C209 0.931 . S
H236 C214 0.930 . S
H237 C215 0.931 . S
H238 C217 0.931 . S
H239 C218 0.931 . S
C240 C241 1.170 . S
C240 C242 1.380 . S
C241 C240 1.170 . S
C242 C240 1.380 . S
C242 C243 1.170 . S
C243 C242 1.170 . S
C244 C245 1.170 . S
C244 C246 1.380 1_455 S
C245 C244 1.170 . S
C246 C244 1.380 1_655 S
C246 C247 1.170 . S
C247 C246 1.170 . S
C248 C249 1.170 . S
C248 C250 1.380 1_545 S
C249 C248 1.170 . S
C250 C248 1.380 1_565 S
C250 C251 1.170 . S
C251 C250 1.170 . S
C252 C253 1.170 . S
C252 C254 1.380 . S
C253 C252 1.170 . S
C254 C252 1.380 . S
C254 C255 1.170 . S
C255 C254 1.170 . S
C256 C257 1.170 . S
C256 C258 1.380 1_455 S
C257 C256 1.170 . S
C258 C256 1.380 1_655 S
C258 C259 1.170 . S
C259 C258 1.170 . S
C260 C261 1.170 . S
C260 C262 1.380 1_545 S
C261 C260 1.170 . S
C262 C260 1.380 1_565 S
C262 C263 1.170 . S
C263 C262 1.170 . S
C264 C265 1.170 . S
C264 C266 1.380 . S
C265 C264 1.170 . S
C266 C264 1.380 . S
C266 C267 1.170 . S
C267 C266 1.170 . S
C268 C269 1.170 . S
C268 C270 1.380 . S
C269 C268 1.170 . S
C270 C268 1.380 . S
C270 C271 1.170 . S
C271 C270 1.170 . S
C272 C273 1.170 . S
C272 C274 1.380 . S
C273 C272 1.170 . S
C274 C272 1.380 . S
C274 C275 1.170 . S
C275 C274 1.170 . S
C276 C277 1.170 . S
C276 C278 1.380 . S
C277 C276 1.170 . S
C278 C276 1.380 . S
C278 C279 1.170 . S
C279 C278 1.170 . S
C280 C281 1.170 . S
C280 C282 1.380 . S
C281 C280 1.170 . S
C282 C280 1.380 . S
C282 C283 1.170 . S
C283 C282 1.170 . S
C284 C285 1.170 . S
C284 C286 1.380 . S
C285 C284 1.170 . S
C286 C284 1.380 . S
C286 C287 1.170 . S
C287 C286 1.170 . S
C288 C289 1.170 . S
C288 C290 1.380 . S
C289 C288 1.170 . S
C290 C288 1.380 . S
C290 C291 1.170 . S
C291 C290 1.170 . S
C292 C293 1.170 . S
C292 C294 1.380 . S
C293 C292 1.170 . S
C294 C292 1.380 . S
C294 C295 1.170 . S
C295 C294 1.170 . S
C296 C297 1.170 . S
C296 C298 1.380 . S
C297 C296 1.170 . S
C298 C296 1.380 . S
C298 C299 1.170 . S
C299 C298 1.170 . S
C300 C301 1.170 . S
C300 C302 1.380 . S
C301 C300 1.170 . S
C302 C300 1.380 . S
C302 C303 1.170 . S
C303 C302 1.170 . S
C304 C305 1.170 . S
C304 C306 1.380 . S
C305 C304 1.170 . S
C306 C304 1.380 . S
C306 C307 1.170 . S
C307 C306 1.170 . S
C308 C309 1.170 . S
C308 C310 1.380 . S
C309 C308 1.170 . S
C310 C308 1.380 . S
C310 C311 1.170 . S
C311 C310 1.170 . S
C241 C210 1.472 . S
C243 C2 1.506 . S
C245 C10 1.477 . S
C247 C42 1.494 . S
C249 C50 1.457 . S
C251 C82 1.505 . S
C253 C90 1.457 . S
C255 C122 1.491 . S
C257 C162 1.506 . S
C259 C130 1.471 . S
C261 C202 1.495 . S
C263 C170 1.479 . S
C265 C7 1.903 . S
C267 C16 1.954 . S
C269 C47 1.949 . S
C271 C56 1.920 . S
C273 C87 1.905 . S
C275 C96 1.954 . S
C277 C127 1.903 . S
C279 C136 1.953 . S
C281 C176 1.954 . S
C283 C167 1.910 . S
C285 C207 1.934 . S
C287 C216 1.937 . S
C289 C11 1.735 . S
C291 C179 1.734 . S
C293 C51 1.724 . S
C295 C219 1.739 . S
C297 C19 1.738 . S
C299 C91 1.723 . S
C301 C59 1.736 . S
C303 C131 1.732 . S
C305 C171 1.723 . S
C307 C99 1.739 . S
C309 C139 1.738 . S
C311 C211 1.727 . S
