# Generated by pormake.
# Topology ume, (4)-cn, num edge types: 1
# Building blocks:
#     Node 0, Type 0, BuildingBlock: QUQFOY_clean_sbu_3, # of connection points: 4
#     Node 1, Type 0, BuildingBlock: QUQFOY_clean_sbu_3, # of connection points: 4
#     Node 2, Type 0, BuildingBlock: QUQFOY_clean_sbu_3, # of connection points: 4
#     Node 3, Type 0, BuildingBlock: QUQFOY_clean_sbu_3, # of connection points: 4
#     Node 4, Type 0, BuildingBlock: QUQFOY_clean_sbu_3, # of connection points: 4
#     Node 5, Type 0, BuildingBlock: QUQFOY_clean_sbu_3, # of connection points: 4
#     Node 6, Type 0, BuildingBlock: QUQFOY_clean_sbu_3, # of connection points: 4
#     Node 7, Type 0, BuildingBlock: QUQFOY_clean_sbu_3, # of connection points: 4
#     Node 8, Type 0, BuildingBlock: QUQFOY_clean_sbu_3, # of connection points: 4
#     Node 9, Type 0, BuildingBlock: QUQFOY_clean_sbu_3, # of connection points: 4
#     Node 10, Type 0, BuildingBlock: QUQFOY_clean_sbu_3, # of connection points: 4
#     Node 11, Type 0, BuildingBlock: QUQFOY_clean_sbu_3, # of connection points: 4
#     Node 12, Type 0, BuildingBlock: QUQFOY_clean_sbu_3, # of connection points: 4
#     Node 13, Type 0, BuildingBlock: QUQFOY_clean_sbu_3, # of connection points: 4
#     Node 14, Type 0, BuildingBlock: QUQFOY_clean_sbu_3, # of connection points: 4
#     Node 15, Type 0, BuildingBlock: QUQFOY_clean_sbu_3, # of connection points: 4
#     Edge 16, Type (0, 0), BuildingBlock: AJUNOK_clean_linker_0, # of connection points: 2
#     Edge 17, Type (0, 0), BuildingBlock: AJUNOK_clean_linker_0, # of connection points: 2
#     Edge 18, Type (0, 0), BuildingBlock: AJUNOK_clean_linker_0, # of connection points: 2
#     Edge 19, Type (0, 0), BuildingBlock: AJUNOK_clean_linker_0, # of connection points: 2
#     Edge 20, Type (0, 0), BuildingBlock: AJUNOK_clean_linker_0, # of connection points: 2
#     Edge 21, Type (0, 0), BuildingBlock: AJUNOK_clean_linker_0, # of connection points: 2
#     Edge 22, Type (0, 0), BuildingBlock: AJUNOK_clean_linker_0, # of connection points: 2
#     Edge 23, Type (0, 0), BuildingBlock: AJUNOK_clean_linker_0, # of connection points: 2
#     Edge 24, Type (0, 0), BuildingBlock: AJUNOK_clean_linker_0, # of connection points: 2
#     Edge 25, Type (0, 0), BuildingBlock: AJUNOK_clean_linker_0, # of connection points: 2
#     Edge 26, Type (0, 0), BuildingBlock: AJUNOK_clean_linker_0, # of connection points: 2
#     Edge 27, Type (0, 0), BuildingBlock: AJUNOK_clean_linker_0, # of connection points: 2
#     Edge 28, Type (0, 0), BuildingBlock: AJUNOK_clean_linker_0, # of connection points: 2
#     Edge 29, Type (0, 0), BuildingBlock: AJUNOK_clean_linker_0, # of connection points: 2
#     Edge 30, Type (0, 0), BuildingBlock: AJUNOK_clean_linker_0, # of connection points: 2
#     Edge 31, Type (0, 0), BuildingBlock: AJUNOK_clean_linker_0, # of connection points: 2
#     Edge 32, Type (0, 0), BuildingBlock: AJUNOK_clean_linker_0, # of connection points: 2
#     Edge 33, Type (0, 0), BuildingBlock: AJUNOK_clean_linker_0, # of connection points: 2
#     Edge 34, Type (0, 0), BuildingBlock: AJUNOK_clean_linker_0, # of connection points: 2
#     Edge 35, Type (0, 0), BuildingBlock: AJUNOK_clean_linker_0, # of connection points: 2
#     Edge 36, Type (0, 0), BuildingBlock: AJUNOK_clean_linker_0, # of connection points: 2
#     Edge 37, Type (0, 0), BuildingBlock: AJUNOK_clean_linker_0, # of connection points: 2
#     Edge 38, Type (0, 0), BuildingBlock: AJUNOK_clean_linker_0, # of connection points: 2
#     Edge 39, Type (0, 0), BuildingBlock: AJUNOK_clean_linker_0, # of connection points: 2
#     Edge 40, Type (0, 0), BuildingBlock: AJUNOK_clean_linker_0, # of connection points: 2
#     Edge 41, Type (0, 0), BuildingBlock: AJUNOK_clean_linker_0, # of connection points: 2
#     Edge 42, Type (0, 0), BuildingBlock: AJUNOK_clean_linker_0, # of connection points: 2
#     Edge 43, Type (0, 0), BuildingBlock: AJUNOK_clean_linker_0, # of connection points: 2
#     Edge 44, Type (0, 0), BuildingBlock: AJUNOK_clean_linker_0, # of connection points: 2
#     Edge 45, Type (0, 0), BuildingBlock: AJUNOK_clean_linker_0, # of connection points: 2
#     Edge 46, Type (0, 0), BuildingBlock: AJUNOK_clean_linker_0, # of connection points: 2
#     Edge 47, Type (0, 0), BuildingBlock: AJUNOK_clean_linker_0, # of connection points: 2
# Relax obj value: 0.094
# Max RMSD: 0.141
# Mean RMSD: 0.141
data_MOF--net-ume--node1-QUQFOY_clean_sbu_3--edge1-AJUNOK_clean_linker_0
_symmetry_space_group_name_H-M    P1
_symmetry_Int_Tables_number       1
_symmetry_cell_setting            triclinic
loop_
_symmetry_equiv_pos_as_xyz
'x, y, z'
_cell_length_a     20.937266
_cell_length_b     20.892193
_cell_length_c     86.31915
_cell_angle_alpha  90.028513
_cell_angle_beta   89.818886
_cell_angle_gamma 90.007225
loop_
_atom_site_label
_atom_site_type_symbol
_atom_site_fract_x
_atom_site_fract_y
_atom_site_fract_z
_atom_type_partial_charge
C0 C 0.26828 0.22607 0.2557 0.0
O1 O 0.30775 0.25804 0.26369 0.0
Cd2 Cd 0.33875 0.21372 0.28852 0.0
O3 O 0.24486 0.17491 0.26115 0.0
Cd4 Cd 0.24473 0.10951 0.28405 0.0
C5 C 0.39773 0.06656 0.27906 0.0
O6 O 0.24972 0.18804 0.30562 0.0
O7 O 0.26729 0.08743 0.31027 0.0
O8 O 0.1296 0.10722 0.28149 0.0
C9 C 0.25624 0.1431 0.31545 0.0
O10 O 0.41026 0.1227 0.28394 0.0
C11 C 0.12488 0.04684 0.28059 0.0
O12 O 0.3401 0.04964 0.27687 0.0
O13 O 0.17658 0.01512 0.28131 0.0
C14 C 0.75163 0.77243 0.50799 0.0
O15 O 0.71812 0.81212 0.5156 0.0
Cd16 Cd 0.75994 0.8483 0.54022 0.0
O17 O 0.80389 0.75256 0.51354 0.0
Cd18 Cd 0.86782 0.76086 0.53666 0.0
C19 C 0.90306 0.91584 0.53109 0.0
O20 O 0.78592 0.7598 0.55746 0.0
O21 O 0.88427 0.78209 0.56336 0.0
O22 O 0.87783 0.64597 0.53419 0.0
C23 C 0.82872 0.76623 0.56776 0.0
O24 O 0.8461 0.9259 0.53566 0.0
C25 C 0.93835 0.64502 0.53384 0.0
O26 O 0.92324 0.85883 0.52945 0.0
O27 O 0.96655 0.69873 0.53473 0.0
C28 C 0.2052 0.23518 0.75952 0.0
O29 O 0.16556 0.20307 0.76749 0.0
Cd30 Cd 0.13087 0.25002 0.79179 0.0
O31 O 0.2241 0.28913 0.76436 0.0
Cd32 Cd 0.21409 0.3591 0.78638 0.0
C33 C 0.05808 0.38957 0.782 0.0
O34 O 0.22104 0.28156 0.80792 0.0
O35 O 0.19521 0.38008 0.81301 0.0
O36 O 0.32787 0.37071 0.78293 0.0
C37 C 0.21519 0.3264 0.81778 0.0
O38 O 0.0502 0.33346 0.78741 0.0
C39 C 0.32827 0.4313 0.78232 0.0
O40 O 0.11413 0.41025 0.77929 0.0
O41 O 0.27448 0.45913 0.78334 0.0
C42 C 0.74858 0.77377 0.00685 0.0
O43 O 0.7787 0.73454 0.01533 0.0
Cd44 Cd 0.73468 0.70035 0.0398 0.0
O45 O 0.69675 0.79827 0.0117 0.0
Cd46 Cd 0.63053 0.79866 0.03499 0.0
C47 C 0.58574 0.64537 0.03012 0.0
O48 O 0.7083 0.78866 0.05657 0.0
O49 O 0.60709 0.77457 0.06112 0.0
O50 O 0.62949 0.91481 0.03445 0.0
C51 C 0.66311 0.78176 0.0663 0.0
O52 O 0.64206 0.63261 0.03469 0.0
C53 C 0.56931 0.92022 0.03348 0.0
O54 O 0.56816 0.70322 0.02826 0.0
O55 O 0.53747 0.86852 0.03276 0.0
C56 C 0.28812 0.27195 0.94033 0.0
O57 O 0.32747 0.23513 0.93358 0.0
Cd58 Cd 0.37187 0.27436 0.90947 0.0
O59 O 0.27262 0.32441 0.93408 0.0
Cd60 Cd 0.28552 0.38658 0.9109 0.0
C61 C 0.4376 0.41848 0.91955 0.0
O62 O 0.28979 0.30299 0.89082 0.0
O63 O 0.31989 0.39895 0.88471 0.0
O64 O 0.1711 0.39194 0.91275 0.0
C65 C 0.3043 0.3432 0.88032 0.0
O66 O 0.44768 0.36098 0.91529 0.0
C67 C 0.16676 0.45238 0.91241 0.0
O68 O 0.38089 0.44025 0.92007 0.0
O69 O 0.21864 0.48352 0.91093 0.0
C70 C 0.73254 0.71585 0.19147 0.0
O71 O 0.76549 0.75634 0.18397 0.0
Cd72 Cd 0.72816 0.80063 0.15985 0.0
O73 O 0.68158 0.69372 0.18562 0.0
Cd74 Cd 0.62222 0.70007 0.16147 0.0
C75 C 0.57587 0.85019 0.16925 0.0
O76 O 0.70036 0.72286 0.14057 0.0
O77 O 0.60048 0.74596 0.13705 0.0
O78 O 0.62294 0.58453 0.15826 0.0
C79 C 0.65653 0.74246 0.13156 0.0
O80 O 0.63283 0.86459 0.16531 0.0
C81 C 0.56286 0.57783 0.1593 0.0
O82 O 0.55883 0.79175 0.17023 0.0
O83 O 0.53027 0.62847 0.16139 0.0
C84 C 0.25039 0.24644 0.44156 0.0
O85 O 0.2122 0.28018 0.43365 0.0
Cd86 Cd 0.16987 0.23472 0.41003 0.0
O87 O 0.26887 0.19289 0.43632 0.0
Cd88 Cd 0.258 0.12856 0.41319 0.0
C89 C 0.10714 0.0917 0.42168 0.0
O90 O 0.24752 0.20178 0.3907 0.0
O91 O 0.21378 0.10412 0.38872 0.0
O92 O 0.37332 0.12144 0.41151 0.0
C93 C 0.22911 0.15597 0.38206 0.0
O94 O 0.0958 0.14764 0.4165 0.0
C95 C 0.37603 0.06101 0.41275 0.0
O96 O 0.16452 0.07261 0.42311 0.0
O97 O 0.32322 0.03167 0.41427 0.0
C98 C 0.74836 0.73105 0.69272 0.0
O99 O 0.7134 0.69239 0.68524 0.0
Cd100 Cd 0.75513 0.64742 0.66153 0.0
O101 O 0.80148 0.74841 0.68704 0.0
Cd102 Cd 0.86247 0.73528 0.6633 0.0
C103 C 0.89918 0.58466 0.67223 0.0
O104 O 0.78368 0.72623 0.64214 0.0
O105 O 0.8796 0.69121 0.63813 0.0
O106 O 0.86991 0.85073 0.66207 0.0
C107 C 0.82601 0.70731 0.63258 0.0
O108 O 0.84256 0.57314 0.66764 0.0
C109 C 0.93042 0.85314 0.66213 0.0
O110 O 0.91893 0.64213 0.67305 0.0
O111 O 0.95982 0.80001 0.66279 0.0
C112 C 0.73105 0.73557 0.75855 0.0
O113 O 0.7704 0.76531 0.76708 0.0
Cd114 Cd 0.79815 0.7228 0.79225 0.0
O115 O 0.70342 0.68575 0.76363 0.0
Cd116 Cd 0.69476 0.62012 0.78661 0.0
C117 C 0.84764 0.57112 0.78278 0.0
O118 O 0.70575 0.69862 0.80799 0.0
O119 O 0.71073 0.59695 0.8131 0.0
O120 O 0.57922 0.62192 0.78394 0.0
C121 C 0.70842 0.65404 0.818 0.0
O122 O 0.86223 0.62703 0.78749 0.0
C123 C 0.57323 0.56173 0.7826 0.0
O124 O 0.78949 0.55597 0.78053 0.0
O125 O 0.62426 0.52885 0.78295 0.0
C126 C 0.26329 0.2901 0.0056 0.0
O127 O 0.22658 0.33047 0.01204 0.0
Cd128 Cd 0.25724 0.36899 0.03739 0.0
O129 O 0.31239 0.27058 0.0127 0.0
Cd130 Cd 0.36561 0.2808 0.03728 0.0
C131 C 0.40367 0.43504 0.03121 0.0
O132 O 0.27391 0.27967 0.05514 0.0
O133 O 0.36656 0.30562 0.06433 0.0
O134 O 0.3768 0.16589 0.03513 0.0
C135 C 0.30959 0.2879 0.06684 0.0
O136 O 0.34543 0.44655 0.03447 0.0
C137 C 0.43707 0.16483 0.03643 0.0
O138 O 0.42318 0.37754 0.03053 0.0
O139 O 0.46465 0.21841 0.03834 0.0
C140 C 0.74141 0.72461 0.25718 0.0
O141 O 0.70323 0.69424 0.26593 0.0
Cd142 Cd 0.67296 0.74297 0.29031 0.0
O143 O 0.76411 0.77782 0.26157 0.0
Cd144 Cd 0.76304 0.84842 0.2838 0.0
C145 C 0.60837 0.88556 0.27933 0.0
O146 O 0.76252 0.77482 0.30641 0.0
O147 O 0.7417 0.87579 0.30988 0.0
O148 O 0.87826 0.85579 0.28139 0.0
C149 C 0.75586 0.82191 0.31563 0.0
O150 O 0.59822 0.83017 0.28495 0.0
C151 C 0.87995 0.91609 0.27974 0.0
O152 O 0.66518 0.90433 0.27669 0.0
O153 O 0.8266 0.94501 0.27966 0.0
C154 C 0.24813 0.25638 0.50721 0.0
O155 O 0.27852 0.2163 0.51539 0.0
Cd156 Cd 0.23218 0.18317 0.53987 0.0
O157 O 0.19641 0.27997 0.51226 0.0
Cd158 Cd 0.13028 0.27864 0.5352 0.0
C159 C 0.08492 0.12627 0.53006 0.0
O160 O 0.20564 0.27007 0.55738 0.0
O161 O 0.1043 0.253 0.561 0.0
O162 O 0.12934 0.39448 0.5341 0.0
C163 C 0.15908 0.26253 0.56673 0.0
O164 O 0.14064 0.11313 0.53501 0.0
C165 C 0.0693 0.39981 0.53275 0.0
O166 O 0.0688 0.18422 0.52777 0.0
O167 O 0.03734 0.34812 0.53238 0.0
C168 C 0.75441 0.76275 0.44228 0.0
O169 O 0.79215 0.7262 0.43493 0.0
Cd170 Cd 0.83692 0.76587 0.41097 0.0
O171 O 0.73673 0.81495 0.43619 0.0
Cd172 Cd 0.74528 0.87415 0.41219 0.0
C173 C 0.89485 0.91356 0.42133 0.0
O174 O 0.7599 0.79425 0.39128 0.0
O175 O 0.78823 0.89254 0.38712 0.0
O176 O 0.62996 0.87445 0.41126 0.0
C177 C 0.77825 0.837 0.38174 0.0
O178 O 0.90704 0.85615 0.41731 0.0
C179 C 0.62368 0.93478 0.41163 0.0
O180 O 0.83749 0.93378 0.42153 0.0
O181 O 0.6748 0.96763 0.41205 0.0
C182 C 0.2242 0.22866 0.6942 0.0
O183 O 0.26194 0.26601 0.6871 0.0
Cd184 Cd 0.2243 0.31312 0.66322 0.0
O185 O 0.17239 0.21209 0.68784 0.0
Cd186 Cd 0.11692 0.22277 0.66353 0.0
C187 C 0.07669 0.37172 0.67315 0.0
O188 O 0.19634 0.24024 0.64252 0.0
O189 O 0.09835 0.27083 0.63926 0.0
O190 O 0.1167 0.10753 0.66108 0.0
C191 C 0.15301 0.26048 0.63343 0.0
O192 O 0.13435 0.38386 0.66942 0.0
C193 C 0.05651 0.10119 0.66159 0.0
O194 O 0.05637 0.31425 0.67313 0.0
O195 O 0.0238 0.15226 0.66279 0.0
C196 C 0.77374 0.7634 0.94117 0.0
O197 O 0.73433 0.79319 0.93267 0.0
Cd198 Cd 0.69655 0.74815 0.90859 0.0
O199 O 0.79831 0.71139 0.93646 0.0
Cd200 Cd 0.79958 0.64247 0.91381 0.0
C201 C 0.64779 0.59897 0.92093 0.0
O202 O 0.77842 0.71173 0.89117 0.0
O203 O 0.76066 0.6097 0.88946 0.0
O204 O 0.91567 0.63931 0.91186 0.0
C205 C 0.76161 0.664 0.88295 0.0
O206 O 0.63345 0.65403 0.9156 0.0
C207 C 0.92013 0.57995 0.91483 0.0
O208 O 0.70601 0.58297 0.92278 0.0
O209 O 0.86827 0.55012 0.91738 0.0
C210 C 0.26025 0.21542 0.18995 0.0
O211 O 0.22079 0.1781 0.18344 0.0
Cd212 Cd 0.25202 0.13168 0.159 0.0
O213 O 0.3117 0.22995 0.18305 0.0
Cd214 Cd 0.36396 0.2146 0.15823 0.0
C215 C 0.39627 0.06218 0.16679 0.0
O216 O 0.27516 0.21295 0.13968 0.0
O217 O 0.36618 0.17467 0.13212 0.0
O218 O 0.37423 0.32954 0.15824 0.0
C219 C 0.31099 0.19487 0.12861 0.0
O220 O 0.33769 0.05299 0.16354 0.0
C221 C 0.43452 0.33102 0.15693 0.0
O222 O 0.41894 0.11866 0.16673 0.0
O223 O 0.46288 0.27735 0.15598 0.0
C224 C -0.00085 0.91637 0.28007 0.0
C225 C 0.94156 0.95069 0.27876 0.0
C226 C 0.05816 0.94779 0.28032 0.0
C227 C 0.06202 0.01483 0.27929 0.0
H228 H -0.0012 0.86474 0.28121 0.0
H229 H 0.10096 0.9192 0.28164 0.0
S230 S 0.92564 0.1268 0.27453 0.0
N231 N 0.8923 0.05534 0.27558 0.0
N232 N 0.00322 0.11449 0.27605 0.0
C233 C 0.00495 0.04972 0.2775 0.0
C234 C 0.94476 0.01764 0.27723 0.0
C235 C 0.93929 0.52582 0.53236 0.0
C236 C 0.97357 0.58374 0.53283 0.0
C237 C 0.97071 0.46678 0.53205 0.0
C238 C 0.03774 0.46316 0.53222 0.0
H239 H 0.88755 0.52583 0.53242 0.0
H240 H 0.942 0.42364 0.53191 0.0
S241 S 0.15006 0.60086 0.53266 0.0
N242 N 0.07847 0.63391 0.5329 0.0
N243 N 0.13769 0.52285 0.53231 0.0
C244 C 0.07279 0.52073 0.53236 0.0
C245 C 0.04069 0.581 0.53267 0.0
C246 C 0.50595 0.46373 0.78041 0.0
C247 C 0.50981 0.53079 0.78136 0.0
C248 C 0.44697 0.43243 0.78032 0.0
C249 C 0.38927 0.46681 0.78118 0.0
H250 H 0.54887 0.43482 0.78002 0.0
H251 H 0.44687 0.38061 0.77986 0.0
S252 S 0.37274 0.64357 0.78284 0.0
N253 N 0.45057 0.63104 0.78241 0.0
N254 N 0.3395 0.57196 0.78227 0.0
C255 C 0.39219 0.53405 0.78165 0.0
C256 C 0.45248 0.56607 0.78173 0.0
C257 C 0.43871 0.04575 0.03439 0.0
C258 C 0.47266 0.10368 0.03561 0.0
C259 C 0.47043 0.98694 0.03351 0.0
C260 C 0.53748 0.98354 0.0338 0.0
H261 H 0.38697 0.04556 0.03418 0.0
H262 H 0.44194 0.94379 0.03271 0.0
S263 S 0.64901 0.12142 0.03657 0.0
N264 N 0.57726 0.15412 0.03686 0.0
N265 N 0.63707 0.04354 0.0352 0.0
C266 C 0.5722 0.04114 0.0349 0.0
C267 C 0.53978 0.10117 0.03582 0.0
C268 C 0.0977 0.54941 0.90966 0.0
C269 C 0.10398 0.48451 0.91364 0.0
C270 C 0.0382 0.58005 0.91026 0.0
C271 C 0.98275 0.54696 0.91492 0.0
H272 H 0.13886 0.57662 0.90581 0.0
H273 H 0.03565 0.62985 0.90685 0.0
S274 S 0.97455 0.37753 0.92777 0.0
N275 N 0.05032 0.38897 0.92326 0.0
N276 N 0.93872 0.44643 0.92438 0.0
C277 C 0.9887 0.48242 0.91931 0.0
C278 C 0.04922 0.4512 0.91867 0.0
C279 C 0.43446 0.4501 0.15876 0.0
C280 C 0.46916 0.39284 0.15697 0.0
C281 C 0.46521 0.50943 0.1594 0.0
C282 C 0.53203 0.51414 0.15826 0.0
H283 H 0.38289 0.44931 0.15982 0.0
H284 H 0.43616 0.5519 0.16089 0.0
S285 S 0.64519 0.37875 0.15306 0.0
N286 N 0.57414 0.34461 0.15379 0.0
N287 N 0.63217 0.45629 0.15496 0.0
C288 C 0.56747 0.45736 0.15628 0.0
C289 C 0.53601 0.39672 0.15564 0.0
C290 C 0.49516 0.06261 0.4115 0.0
C291 C 0.43813 0.0271 0.41242 0.0
C292 C 0.55478 0.03235 0.4112 0.0
C293 C 0.55984 0.9653 0.41177 0.0
H294 H 0.49399 0.11441 0.41104 0.0
H295 H 0.59719 0.06193 0.41052 0.0
S296 S 0.42493 0.85005 0.41422 0.0
N297 N 0.39044 0.92105 0.41388 0.0
N298 N 0.50243 0.86404 0.4133 0.0
C299 C 0.50316 0.92905 0.41265 0.0
C300 C 0.44237 0.95996 0.41299 0.0
C301 C 0.95911 0.03227 0.66207 0.0
C302 C 0.02597 0.03727 0.66121 0.0
C303 C 0.92889 0.97255 0.66225 0.0
C304 C 0.96428 0.91531 0.66162 0.0
H305 H 0.92964 0.07481 0.66271 0.0
H306 H 0.87726 0.97144 0.66303 0.0
S307 S 0.14073 0.90187 0.65884 0.0
N308 N 0.12687 0.9796 0.65939 0.0
N309 N 0.06992 0.86736 0.65977 0.0
C310 C 0.0312 0.91948 0.66059 0.0
C311 C 0.06206 0.98041 0.66037 0.0
C312 C 0.5652 0.99689 0.27753 0.0
C313 C 0.55425 0.93046 0.27718 0.0
C314 C 0.51436 0.04051 0.27757 0.0
C315 C 0.45045 0.01957 0.27708 0.0
H316 H 0.61335 0.01548 0.27844 0.0
H317 H 0.52539 0.09105 0.27839 0.0
S318 S 0.39644 0.85052 0.27416 0.0
N319 N 0.47504 0.84583 0.27501 0.0
N320 N 0.37945 0.92761 0.27493 0.0
C321 C 0.43898 0.95328 0.27584 0.0
C322 C 0.49083 0.90882 0.27596 0.0
C323 C 0.01418 0.95903 0.52902 0.0
C324 C 0.94789 0.97024 0.52889 0.0
C325 C 0.05798 0.00969 0.52878 0.0
C326 C 0.03748 0.07383 0.52824 0.0
H327 H 0.03266 0.91074 0.52991 0.0
H328 H 0.10837 0.99833 0.52943 0.0
S329 S 0.86903 0.12893 0.52593 0.0
N330 N 0.86385 0.05019 0.52693 0.0
N331 N 0.94609 0.1455 0.52636 0.0
C332 C 0.97135 0.08568 0.52726 0.0
C333 C 0.92663 0.03395 0.52763 0.0
C334 C 0.01355 0.49987 0.77909 0.0
C335 C 0.00276 0.43354 0.78029 0.0
C336 C 0.96293 0.5436 0.7794 0.0
C337 C 0.89918 0.523 0.78074 0.0
H338 H 0.06172 0.51865 0.77849 0.0
H339 H 0.97415 0.59419 0.77891 0.0
S340 S 0.84432 0.35413 0.78271 0.0
N341 N 0.92293 0.34905 0.78178 0.0
N342 N 0.82765 0.43134 0.78223 0.0
C343 C 0.88729 0.45666 0.78115 0.0
C344 C 0.93906 0.41198 0.78099 0.0
C345 C 0.47362 0.60338 0.03077 0.0
C346 C 0.53916 0.59242 0.02829 0.0
C347 C 0.42984 0.5525 0.03123 0.0
C348 C 0.44979 0.48865 0.02909 0.0
H349 H 0.45627 0.65133 0.03306 0.0
H350 H 0.38028 0.56331 0.03373 0.0
S351 S 0.61529 0.43565 0.01999 0.0
N352 N 0.62106 0.51391 0.02216 0.0
N353 N 0.53923 0.41845 0.02283 0.0
C354 C 0.51482 0.4776 0.0257 0.0
C355 C 0.55933 0.52937 0.02535 0.0
C356 C 0.48124 0.52885 0.92312 0.0
C357 C 0.49213 0.46242 0.92242 0.0
C358 C 0.53198 0.5724 0.9235 0.0
C359 C 0.59588 0.55153 0.92333 0.0
H360 H 0.43314 0.54782 0.92267 0.0
H361 H 0.52081 0.62303 0.92337 0.0
S362 S 0.65044 0.38236 0.92375 0.0
N363 N 0.57177 0.37759 0.92321 0.0
N364 N 0.66723 0.45955 0.92398 0.0
C365 C 0.60756 0.48515 0.92372 0.0
C366 C 0.55572 0.44062 0.92323 0.0
C367 C 0.54924 0.96654 0.1712 0.0
C368 C 0.52824 0.90252 0.17105 0.0
C369 C 0.50605 0.01756 0.17049 0.0
C370 C 0.43976 0.007 0.16952 0.0
H371 H 0.59978 0.97764 0.17137 0.0
H372 H 0.52525 0.06567 0.17014 0.0
S373 S 0.35917 0.84858 0.17054 0.0
N374 N 0.43607 0.83146 0.17122 0.0
N375 N 0.3548 0.92742 0.16987 0.0
C376 C 0.41773 0.94331 0.17023 0.0
C377 C 0.4619 0.89114 0.17102 0.0
C378 C 0.9385 0.02494 0.42224 0.0
C379 C 0.94826 0.95879 0.42413 0.0
C380 C 0.98987 0.06794 0.4223 0.0
C381 C 0.05314 0.04667 0.42435 0.0
H382 H 0.8912 0.04353 0.41991 0.0
H383 H 0.97992 0.11797 0.42008 0.0
S384 S 0.10301 0.87921 0.43237 0.0
N385 N 0.02495 0.87483 0.42996 0.0
N386 N 0.1215 0.95548 0.43018 0.0
C387 C 0.06298 0.98114 0.42741 0.0
C388 C 0.0106 0.93728 0.42725 0.0
C389 C 0.96553 0.41556 0.67345 0.0
C390 C 0.03134 0.42534 0.67569 0.0
C391 C 0.92273 0.46711 0.67313 0.0
C392 C 0.94387 0.5306 0.67512 0.0
H393 H 0.94713 0.36806 0.67113 0.0
H394 H 0.87303 0.45708 0.67066 0.0
S395 S 0.11015 0.58076 0.68399 0.0
N396 N 0.11461 0.50241 0.6818 0.0
N397 N 0.03436 0.59929 0.68131 0.0
C398 C 0.00895 0.54054 0.67852 0.0
C399 C 0.05259 0.48797 0.67876 0.0
C400 C 0.2236 0.09895 0.34073 0.0
C401 C 0.24509 0.15185 0.33216 0.0
C402 C 0.21624 0.10231 0.35672 0.0
C403 C 0.23083 0.15853 0.36495 0.0
H404 H 0.21285 0.05394 0.33506 0.0
H405 H 0.20056 0.05943 0.36267 0.0
S406 S 0.28487 0.31218 0.34778 0.0
N407 N 0.27738 0.26357 0.33279 0.0
N408 N 0.26459 0.26985 0.36321 0.0
C409 C 0.25028 0.21282 0.3565 0.0
C410 C 0.25708 0.20951 0.34002 0.0
C411 C 0.77306 0.76915 0.59341 0.0
C412 C 0.81969 0.74276 0.5836 0.0
C413 C 0.77227 0.75416 0.60928 0.0
C414 C 0.81791 0.71219 0.61564 0.0
H415 H 0.73958 0.80416 0.589 0.0
H416 H 0.7382 0.77837 0.61672 0.0
S417 S 0.94157 0.62159 0.59385 0.0
N418 N 0.90661 0.66682 0.5807 0.0
N419 N 0.90471 0.6376 0.61033 0.0
C420 C 0.8611 0.68158 0.60556 0.0
C421 C 0.86217 0.69724 0.58956 0.0
C422 C 0.22721 0.27763 0.84402 0.0
C423 C 0.24592 0.32312 0.83296 0.0
C424 C 0.24984 0.2815 0.85929 0.0
C425 C 0.29197 0.33075 0.86378 0.0
H426 H 0.19239 0.24126 0.84108 0.0
H427 H 0.23141 0.24804 0.86778 0.0
S428 S 0.36436 0.45322 0.83797 0.0
N429 N 0.31505 0.41286 0.82673 0.0
N430 N 0.35849 0.41977 0.85524 0.0
C431 C 0.31499 0.37292 0.85236 0.0
C432 C 0.2916 0.36925 0.83697 0.0
C433 C 0.71698 0.74206 0.09021 0.0
C434 C 0.67298 0.78333 0.08308 0.0
C435 C 0.71488 0.73191 0.1063 0.0
C436 C 0.66869 0.76285 0.11551 0.0
H437 H 0.74987 0.71418 0.08322 0.0
H438 H 0.74646 0.69663 0.11136 0.0
S439 S 0.55235 0.88545 0.10251 0.0
N440 N 0.58891 0.86207 0.08651 0.0
N441 N 0.5853 0.84395 0.11665 0.0
C442 C 0.62874 0.80864 0.1086 0.0
C443 C 0.63077 0.81862 0.09236 0.0
C444 C 0.75144 0.71394 0.84081 0.0
C445 C 0.71129 0.66621 0.83474 0.0
C446 C 0.76508 0.71592 0.85675 0.0
C447 C 0.73882 0.67019 0.8669 0.0
H448 H 0.77559 0.74708 0.83312 0.0
H449 H 0.79915 0.75078 0.86098 0.0
S450 S 0.6205 0.54447 0.85693 0.0
N451 N 0.63834 0.57871 0.84024 0.0
N452 N 0.66314 0.58262 0.87006 0.0
C453 C 0.69429 0.62604 0.86105 0.0
C454 C 0.68073 0.62399 0.84497 0.0
C455 C 0.26203 0.26516 0.10855 0.0
C456 C 0.29606 0.20914 0.11233 0.0
C457 C 0.26219 0.28893 0.09334 0.0
C458 C 0.29546 0.25658 0.08159 0.0
H459 H 0.23954 0.29344 0.11756 0.0
H460 H 0.23976 0.3346 0.09098 0.0
S461 S 0.38258 0.10306 0.08495 0.0
N462 N 0.35706 0.11831 0.1027 0.0
N463 N 0.35658 0.16277 0.07414 0.0
C464 C 0.32475 0.19795 0.08495 0.0
C465 C 0.32511 0.17411 0.10035 0.0
C466 C 0.74326 0.77106 0.3417 0.0
C467 C 0.77119 0.81783 0.33217 0.0
C468 C 0.74873 0.775 0.3579 0.0
C469 C 0.78256 0.82563 0.36489 0.0
H470 H 0.71402 0.73366 0.33669 0.0
H471 H 0.7235 0.74036 0.36497 0.0
S472 S 0.87456 0.95236 0.34451 0.0
N473 N 0.8406 0.91066 0.33054 0.0
N474 N 0.85205 0.91769 0.36081 0.0
C475 C 0.81504 0.86932 0.35529 0.0
C476 C 0.80899 0.86554 0.33895 0.0
C477 C 0.11138 0.29367 0.60791 0.0
C478 C 0.16221 0.26818 0.61655 0.0
C479 C 0.1127 0.29383 0.59181 0.0
C480 C 0.16518 0.26929 0.58361 0.0
H481 H 0.06879 0.31178 0.61357 0.0
H482 H 0.07128 0.31201 0.58573 0.0
S483 S 0.31389 0.20397 0.60052 0.0
N484 N 0.2692 0.22252 0.61569 0.0
N485 N 0.2718 0.22384 0.58509 0.0
C486 C 0.21837 0.24756 0.59196 0.0
C487 C 0.21684 0.24674 0.60853 0.0
C488 C 0.2069 0.20722 0.23155 0.0
C489 C 0.25573 0.24094 0.23925 0.0
C490 C 0.20497 0.20396 0.21539 0.0
C491 C 0.25173 0.23445 0.20634 0.0
H492 H 0.17252 0.17909 0.23803 0.0
H493 H 0.16948 0.17332 0.21009 0.0
S494 S 0.37894 0.34323 0.22075 0.0
N495 N 0.34415 0.31567 0.23659 0.0
N496 N 0.3401 0.31054 0.20613 0.0
C497 C 0.29568 0.2752 0.21383 0.0
C498 C 0.29772 0.27831 0.23034 0.0
C499 C 0.70039 0.79627 0.46674 0.0
C500 C 0.73878 0.75138 0.4588 0.0
C501 C 0.69935 0.7989 0.48293 0.0
C502 C 0.73654 0.75661 0.49173 0.0
H503 H 0.67469 0.83297 0.46046 0.0
H504 H 0.6736 0.8377 0.48846 0.0
S505 S 0.83003 0.61865 0.47674 0.0
N506 N 0.80388 0.65535 0.46106 0.0
N507 N 0.80142 0.65986 0.49154 0.0
C508 C 0.76811 0.7062 0.48401 0.0
C509 C 0.7693 0.70361 0.46751 0.0
C510 C 0.18551 0.17802 0.71862 0.0
C511 C 0.23319 0.2134 0.71081 0.0
C512 C 0.18039 0.17942 0.73478 0.0
C513 C 0.22294 0.216 0.74363 0.0
H514 H 0.14852 0.15336 0.71222 0.0
H515 H 0.13955 0.15653 0.74017 0.0
S516 S 0.3675 0.30029 0.72923 0.0
N517 N 0.33197 0.27381 0.71343 0.0
N518 N 0.32271 0.27586 0.74385 0.0
C519 C 0.27602 0.24382 0.73616 0.0
C520 C 0.28114 0.24256 0.7197 0.0
C521 C 0.73501 0.82034 0.96476 0.0
C522 C 0.78121 0.78121 0.95766 0.0
C523 C 0.72845 0.82197 -0.01912 0.0
C524 C 0.76782 0.78457 -0.00949 0.0
H525 H 0.7002 0.84581 0.95785 0.0
H526 H 0.68915 0.84932 -0.0143 0.0
S527 S 0.90752 0.68844 -0.02224 0.0
N528 N 0.8755 0.71496 0.96153 0.0
N529 N 0.86292 0.71778 -0.00812 0.0
C530 C 0.81929 0.75173 -0.01635 0.0
C531 C 0.82603 0.75016 0.9672 0.0
C532 C 0.30066 0.22974 -0.01761 0.0
C533 C 0.25561 0.27166 -0.01084 0.0
C534 C 0.30672 0.2244 0.96632 0.0
C535 C 0.26779 0.26061 0.95647 0.0
H536 H 0.33489 0.2044 -0.0105 0.0
H537 H 0.34573 0.19612 0.96168 0.0
S538 S 0.13026 0.3621 0.96821 0.0
N539 N 0.16266 0.33909 -0.01529 0.0
N540 N 0.17349 0.32833 0.95443 0.0
C541 C 0.21694 0.29569 0.96303 0.0
C542 C 0.21095 0.30139 -0.02058 0.0
C543 C 0.70345 0.67061 0.23319 0.0
C544 C 0.75126 0.70524 0.24089 0.0
C545 C 0.70122 0.66911 0.217 0.0
C546 C 0.74668 0.70228 0.20796 0.0
H547 H 0.66438 0.64926 0.23963 0.0
H548 H 0.66064 0.64596 0.21162 0.0
S549 S 0.89155 0.78415 0.22273 0.0
N550 N 0.85252 0.76158 0.23845 0.0
N551 N 0.84828 0.75896 0.20797 0.0
C552 C 0.79922 0.72989 0.21555 0.0
C553 C 0.80149 0.73133 0.23205 0.0
C554 C 0.30231 0.21955 0.46668 0.0
C555 C 0.2654 0.26265 0.45787 0.0
C556 C 0.30222 0.22186 0.48287 0.0
C557 C 0.26538 0.26748 0.49081 0.0
H558 H 0.32752 0.18042 0.46114 0.0
H559 H 0.32665 0.18423 0.48912 0.0
S560 S 0.17648 0.40277 0.47317 0.0
N561 N 0.20266 0.36069 0.45825 0.0
N562 N 0.20306 0.36553 0.48873 0.0
C563 C 0.23567 0.31619 0.48214 0.0
C564 C 0.23556 0.31371 0.46563 0.0
C565 C 0.6844 0.71456 0.7168 0.0
C566 C 0.73292 0.74798 0.70897 0.0
C567 C 0.68015 0.71613 0.73295 0.0
C568 C 0.72437 0.75102 0.74189 0.0
H569 H 0.6524 0.68307 0.71056 0.0
H570 H 0.64474 0.6859 0.73848 0.0
S571 S 0.84925 0.86047 0.7267 0.0
N572 N 0.81756 0.82762 0.71112 0.0
N573 N 0.80996 0.82981 0.74155 0.0
C574 C 0.76785 0.79103 0.73412 0.0
C575 C 0.77209 0.78961 0.71762 0.0
loop_
_geom_bond_atom_site_label_1
_geom_bond_atom_site_label_2
_geom_bond_distance
_geom_bond_site_symmetry_2
_ccdc_geom_bond_type
C0 O1 1.306 . S
C0 O3 1.160 . S
O1 C0 1.306 . S
O1 Cd2 2.228 . S
Cd2 O1 2.228 . S
Cd2 O6 2.273 . S
Cd2 O10 2.277 . S
O3 C0 1.160 . S
O3 Cd4 2.203 . S
Cd4 O3 2.203 . S
Cd4 O6 2.411 . S
Cd4 O7 2.333 . S
Cd4 O8 2.352 . S
Cd4 O12 2.277 . S
Cd4 O13 2.356 . S
C5 O10 1.209 . S
C5 O12 1.226 . S
O6 Cd2 2.273 . S
O6 Cd4 2.411 . S
O6 C9 1.320 . S
O7 Cd4 2.333 . S
O7 C9 1.214 . S
O8 Cd4 2.352 . S
O8 C11 1.258 . S
C9 O6 1.320 . S
C9 O7 1.214 . S
O10 Cd2 2.277 . S
O10 C5 1.209 . S
C11 O8 1.258 . S
C11 O13 1.282 . S
O12 Cd4 2.277 . S
O12 C5 1.226 . S
O13 Cd4 2.356 . S
O13 C11 1.282 . S
C14 O15 1.306 . S
C14 O17 1.160 . S
O15 C14 1.306 . S
O15 Cd16 2.228 . S
Cd16 O15 2.228 . S
Cd16 O20 2.273 . S
Cd16 O24 2.277 . S
O17 C14 1.160 . S
O17 Cd18 2.203 . S
Cd18 O17 2.203 . S
Cd18 O20 2.411 . S
Cd18 O21 2.333 . S
Cd18 O22 2.352 . S
Cd18 O26 2.277 . S
Cd18 O27 2.356 . S
C19 O24 1.209 . S
C19 O26 1.226 . S
O20 Cd16 2.273 . S
O20 Cd18 2.411 . S
O20 C23 1.320 . S
O21 Cd18 2.333 . S
O21 C23 1.214 . S
O22 Cd18 2.352 . S
O22 C25 1.258 . S
C23 O20 1.320 . S
C23 O21 1.214 . S
O24 Cd16 2.277 . S
O24 C19 1.209 . S
C25 O22 1.258 . S
C25 O27 1.282 . S
O26 Cd18 2.277 . S
O26 C19 1.226 . S
O27 Cd18 2.356 . S
O27 C25 1.282 . S
C28 O29 1.306 . S
C28 O31 1.160 . S
O29 C28 1.306 . S
O29 Cd30 2.228 . S
Cd30 O29 2.228 . S
Cd30 O34 2.273 . S
Cd30 O38 2.277 . S
O31 C28 1.160 . S
O31 Cd32 2.203 . S
Cd32 O31 2.203 . S
Cd32 O34 2.411 . S
Cd32 O35 2.333 . S
Cd32 O36 2.352 . S
Cd32 O40 2.277 . S
Cd32 O41 2.356 . S
C33 O38 1.209 . S
C33 O40 1.226 . S
O34 Cd30 2.273 . S
O34 Cd32 2.411 . S
O34 C37 1.320 . S
O35 Cd32 2.333 . S
O35 C37 1.214 . S
O36 Cd32 2.352 . S
O36 C39 1.258 . S
C37 O34 1.320 . S
C37 O35 1.214 . S
O38 Cd30 2.277 . S
O38 C33 1.209 . S
C39 O36 1.258 . S
C39 O41 1.282 . S
O40 Cd32 2.277 . S
O40 C33 1.226 . S
O41 Cd32 2.356 . S
O41 C39 1.282 . S
C42 O43 1.306 . S
C42 O45 1.160 . S
O43 C42 1.306 . S
O43 Cd44 2.228 . S
Cd44 O43 2.228 . S
Cd44 O48 2.273 . S
Cd44 O52 2.277 . S
O45 C42 1.160 . S
O45 Cd46 2.203 . S
Cd46 O45 2.203 . S
Cd46 O48 2.411 . S
Cd46 O49 2.333 . S
Cd46 O50 2.352 . S
Cd46 O54 2.277 . S
Cd46 O55 2.356 . S
C47 O52 1.209 . S
C47 O54 1.226 . S
O48 Cd44 2.273 . S
O48 Cd46 2.411 . S
O48 C51 1.320 . S
O49 Cd46 2.333 . S
O49 C51 1.214 . S
O50 Cd46 2.352 . S
O50 C53 1.258 . S
C51 O48 1.320 . S
C51 O49 1.214 . S
O52 Cd44 2.277 . S
O52 C47 1.209 . S
C53 O50 1.258 . S
C53 O55 1.282 . S
O54 Cd46 2.277 . S
O54 C47 1.226 . S
O55 Cd46 2.356 . S
O55 C53 1.282 . S
C56 O57 1.306 . S
C56 O59 1.160 . S
O57 C56 1.306 . S
O57 Cd58 2.228 . S
Cd58 O57 2.228 . S
Cd58 O62 2.273 . S
Cd58 O66 2.277 . S
O59 C56 1.160 . S
O59 Cd60 2.203 . S
Cd60 O59 2.203 . S
Cd60 O62 2.411 . S
Cd60 O63 2.333 . S
Cd60 O64 2.352 . S
Cd60 O68 2.277 . S
Cd60 O69 2.356 . S
C61 O66 1.209 . S
C61 O68 1.226 . S
O62 Cd58 2.273 . S
O62 Cd60 2.411 . S
O62 C65 1.320 . S
O63 Cd60 2.333 . S
O63 C65 1.214 . S
O64 Cd60 2.352 . S
O64 C67 1.258 . S
C65 O62 1.320 . S
C65 O63 1.214 . S
O66 Cd58 2.277 . S
O66 C61 1.209 . S
C67 O64 1.258 . S
C67 O69 1.282 . S
O68 Cd60 2.277 . S
O68 C61 1.226 . S
O69 Cd60 2.356 . S
O69 C67 1.282 . S
C70 O71 1.306 . S
C70 O73 1.160 . S
O71 C70 1.306 . S
O71 Cd72 2.228 . S
Cd72 O71 2.228 . S
Cd72 O76 2.273 . S
Cd72 O80 2.277 . S
O73 C70 1.160 . S
O73 Cd74 2.203 . S
Cd74 O73 2.203 . S
Cd74 O76 2.411 . S
Cd74 O77 2.333 . S
Cd74 O78 2.352 . S
Cd74 O82 2.277 . S
Cd74 O83 2.356 . S
C75 O80 1.209 . S
C75 O82 1.226 . S
O76 Cd72 2.273 . S
O76 Cd74 2.411 . S
O76 C79 1.320 . S
O77 Cd74 2.333 . S
O77 C79 1.214 . S
O78 Cd74 2.352 . S
O78 C81 1.258 . S
C79 O76 1.320 . S
C79 O77 1.214 . S
O80 Cd72 2.277 . S
O80 C75 1.209 . S
C81 O78 1.258 . S
C81 O83 1.282 . S
O82 Cd74 2.277 . S
O82 C75 1.226 . S
O83 Cd74 2.356 . S
O83 C81 1.282 . S
C84 O85 1.306 . S
C84 O87 1.160 . S
O85 C84 1.306 . S
O85 Cd86 2.228 . S
Cd86 O85 2.228 . S
Cd86 O90 2.273 . S
Cd86 O94 2.277 . S
O87 C84 1.160 . S
O87 Cd88 2.203 . S
Cd88 O87 2.203 . S
Cd88 O90 2.411 . S
Cd88 O91 2.333 . S
Cd88 O92 2.352 . S
Cd88 O96 2.277 . S
Cd88 O97 2.356 . S
C89 O94 1.209 . S
C89 O96 1.226 . S
O90 Cd86 2.273 . S
O90 Cd88 2.411 . S
O90 C93 1.320 . S
O91 Cd88 2.333 . S
O91 C93 1.214 . S
O92 Cd88 2.352 . S
O92 C95 1.258 . S
C93 O90 1.320 . S
C93 O91 1.214 . S
O94 Cd86 2.277 . S
O94 C89 1.209 . S
C95 O92 1.258 . S
C95 O97 1.282 . S
O96 Cd88 2.277 . S
O96 C89 1.226 . S
O97 Cd88 2.356 . S
O97 C95 1.282 . S
C98 O99 1.306 . S
C98 O101 1.160 . S
O99 C98 1.306 . S
O99 Cd100 2.228 . S
Cd100 O99 2.228 . S
Cd100 O104 2.273 . S
Cd100 O108 2.277 . S
O101 C98 1.160 . S
O101 Cd102 2.203 . S
Cd102 O101 2.203 . S
Cd102 O104 2.411 . S
Cd102 O105 2.333 . S
Cd102 O106 2.352 . S
Cd102 O110 2.277 . S
Cd102 O111 2.356 . S
C103 O108 1.209 . S
C103 O110 1.226 . S
O104 Cd100 2.273 . S
O104 Cd102 2.411 . S
O104 C107 1.320 . S
O105 Cd102 2.333 . S
O105 C107 1.214 . S
O106 Cd102 2.352 . S
O106 C109 1.258 . S
C107 O104 1.320 . S
C107 O105 1.214 . S
O108 Cd100 2.277 . S
O108 C103 1.209 . S
C109 O106 1.258 . S
C109 O111 1.282 . S
O110 Cd102 2.277 . S
O110 C103 1.226 . S
O111 Cd102 2.356 . S
O111 C109 1.282 . S
C112 O113 1.306 . S
C112 O115 1.160 . S
O113 C112 1.306 . S
O113 Cd114 2.228 . S
Cd114 O113 2.228 . S
Cd114 O118 2.273 . S
Cd114 O122 2.277 . S
O115 C112 1.160 . S
O115 Cd116 2.203 . S
Cd116 O115 2.203 . S
Cd116 O118 2.411 . S
Cd116 O119 2.333 . S
Cd116 O120 2.352 . S
Cd116 O124 2.277 . S
Cd116 O125 2.356 . S
C117 O122 1.209 . S
C117 O124 1.226 . S
O118 Cd114 2.273 . S
O118 Cd116 2.411 . S
O118 C121 1.320 . S
O119 Cd116 2.333 . S
O119 C121 1.214 . S
O120 Cd116 2.352 . S
O120 C123 1.258 . S
C121 O118 1.320 . S
C121 O119 1.214 . S
O122 Cd114 2.277 . S
O122 C117 1.209 . S
C123 O120 1.258 . S
C123 O125 1.282 . S
O124 Cd116 2.277 . S
O124 C117 1.226 . S
O125 Cd116 2.356 . S
O125 C123 1.282 . S
C126 O127 1.306 . S
C126 O129 1.160 . S
O127 C126 1.306 . S
O127 Cd128 2.228 . S
Cd128 O127 2.228 . S
Cd128 O132 2.273 . S
Cd128 O136 2.277 . S
O129 C126 1.160 . S
O129 Cd130 2.203 . S
Cd130 O129 2.203 . S
Cd130 O132 2.411 . S
Cd130 O133 2.333 . S
Cd130 O134 2.352 . S
Cd130 O138 2.277 . S
Cd130 O139 2.356 . S
C131 O136 1.209 . S
C131 O138 1.226 . S
O132 Cd128 2.273 . S
O132 Cd130 2.411 . S
O132 C135 1.320 . S
O133 Cd130 2.333 . S
O133 C135 1.214 . S
O134 Cd130 2.352 . S
O134 C137 1.258 . S
C135 O132 1.320 . S
C135 O133 1.214 . S
O136 Cd128 2.277 . S
O136 C131 1.209 . S
C137 O134 1.258 . S
C137 O139 1.282 . S
O138 Cd130 2.277 . S
O138 C131 1.226 . S
O139 Cd130 2.356 . S
O139 C137 1.282 . S
C140 O141 1.306 . S
C140 O143 1.160 . S
O141 C140 1.306 . S
O141 Cd142 2.228 . S
Cd142 O141 2.228 . S
Cd142 O146 2.273 . S
Cd142 O150 2.277 . S
O143 C140 1.160 . S
O143 Cd144 2.203 . S
Cd144 O143 2.203 . S
Cd144 O146 2.411 . S
Cd144 O147 2.333 . S
Cd144 O148 2.352 . S
Cd144 O152 2.277 . S
Cd144 O153 2.356 . S
C145 O150 1.209 . S
C145 O152 1.226 . S
O146 Cd142 2.273 . S
O146 Cd144 2.411 . S
O146 C149 1.320 . S
O147 Cd144 2.333 . S
O147 C149 1.214 . S
O148 Cd144 2.352 . S
O148 C151 1.258 . S
C149 O146 1.320 . S
C149 O147 1.214 . S
O150 Cd142 2.277 . S
O150 C145 1.209 . S
C151 O148 1.258 . S
C151 O153 1.282 . S
O152 Cd144 2.277 . S
O152 C145 1.226 . S
O153 Cd144 2.356 . S
O153 C151 1.282 . S
C154 O155 1.306 . S
C154 O157 1.160 . S
O155 C154 1.306 . S
O155 Cd156 2.228 . S
Cd156 O155 2.228 . S
Cd156 O160 2.273 . S
Cd156 O164 2.277 . S
O157 C154 1.160 . S
O157 Cd158 2.203 . S
Cd158 O157 2.203 . S
Cd158 O160 2.411 . S
Cd158 O161 2.333 . S
Cd158 O162 2.352 . S
Cd158 O166 2.277 . S
Cd158 O167 2.356 . S
C159 O164 1.209 . S
C159 O166 1.226 . S
O160 Cd156 2.273 . S
O160 Cd158 2.411 . S
O160 C163 1.320 . S
O161 Cd158 2.333 . S
O161 C163 1.214 . S
O162 Cd158 2.352 . S
O162 C165 1.258 . S
C163 O160 1.320 . S
C163 O161 1.214 . S
O164 Cd156 2.277 . S
O164 C159 1.209 . S
C165 O162 1.258 . S
C165 O167 1.282 . S
O166 Cd158 2.277 . S
O166 C159 1.226 . S
O167 Cd158 2.356 . S
O167 C165 1.282 . S
C168 O169 1.306 . S
C168 O171 1.160 . S
O169 C168 1.306 . S
O169 Cd170 2.228 . S
Cd170 O169 2.228 . S
Cd170 O174 2.273 . S
Cd170 O178 2.277 . S
O171 C168 1.160 . S
O171 Cd172 2.203 . S
Cd172 O171 2.203 . S
Cd172 O174 2.411 . S
Cd172 O175 2.333 . S
Cd172 O176 2.352 . S
Cd172 O180 2.277 . S
Cd172 O181 2.356 . S
C173 O178 1.209 . S
C173 O180 1.226 . S
O174 Cd170 2.273 . S
O174 Cd172 2.411 . S
O174 C177 1.320 . S
O175 Cd172 2.333 . S
O175 C177 1.214 . S
O176 Cd172 2.352 . S
O176 C179 1.258 . S
C177 O174 1.320 . S
C177 O175 1.214 . S
O178 Cd170 2.277 . S
O178 C173 1.209 . S
C179 O176 1.258 . S
C179 O181 1.282 . S
O180 Cd172 2.277 . S
O180 C173 1.226 . S
O181 Cd172 2.356 . S
O181 C179 1.282 . S
C182 O183 1.306 . S
C182 O185 1.160 . S
O183 C182 1.306 . S
O183 Cd184 2.228 . S
Cd184 O183 2.228 . S
Cd184 O188 2.273 . S
Cd184 O192 2.277 . S
O185 C182 1.160 . S
O185 Cd186 2.203 . S
Cd186 O185 2.203 . S
Cd186 O188 2.411 . S
Cd186 O189 2.333 . S
Cd186 O190 2.352 . S
Cd186 O194 2.277 . S
Cd186 O195 2.356 . S
C187 O192 1.209 . S
C187 O194 1.226 . S
O188 Cd184 2.273 . S
O188 Cd186 2.411 . S
O188 C191 1.320 . S
O189 Cd186 2.333 . S
O189 C191 1.214 . S
O190 Cd186 2.352 . S
O190 C193 1.258 . S
C191 O188 1.320 . S
C191 O189 1.214 . S
O192 Cd184 2.277 . S
O192 C187 1.209 . S
C193 O190 1.258 . S
C193 O195 1.282 . S
O194 Cd186 2.277 . S
O194 C187 1.226 . S
O195 Cd186 2.356 . S
O195 C193 1.282 . S
C196 O197 1.306 . S
C196 O199 1.160 . S
O197 C196 1.306 . S
O197 Cd198 2.228 . S
Cd198 O197 2.228 . S
Cd198 O202 2.273 . S
Cd198 O206 2.277 . S
O199 C196 1.160 . S
O199 Cd200 2.203 . S
Cd200 O199 2.203 . S
Cd200 O202 2.411 . S
Cd200 O203 2.333 . S
Cd200 O204 2.352 . S
Cd200 O208 2.277 . S
Cd200 O209 2.356 . S
C201 O206 1.209 . S
C201 O208 1.226 . S
O202 Cd198 2.273 . S
O202 Cd200 2.411 . S
O202 C205 1.320 . S
O203 Cd200 2.333 . S
O203 C205 1.214 . S
O204 Cd200 2.352 . S
O204 C207 1.258 . S
C205 O202 1.320 . S
C205 O203 1.214 . S
O206 Cd198 2.277 . S
O206 C201 1.209 . S
C207 O204 1.258 . S
C207 O209 1.282 . S
O208 Cd200 2.277 . S
O208 C201 1.226 . S
O209 Cd200 2.356 . S
O209 C207 1.282 . S
C210 O211 1.306 . S
C210 O213 1.160 . S
O211 C210 1.306 . S
O211 Cd212 2.228 . S
Cd212 O211 2.228 . S
Cd212 O216 2.273 . S
Cd212 O220 2.277 . S
O213 C210 1.160 . S
O213 Cd214 2.203 . S
Cd214 O213 2.203 . S
Cd214 O216 2.411 . S
Cd214 O217 2.333 . S
Cd214 O218 2.352 . S
Cd214 O222 2.277 . S
Cd214 O223 2.356 . S
C215 O220 1.209 . S
C215 O222 1.226 . S
O216 Cd212 2.273 . S
O216 Cd214 2.411 . S
O216 C219 1.320 . S
O217 Cd214 2.333 . S
O217 C219 1.214 . S
O218 Cd214 2.352 . S
O218 C221 1.258 . S
C219 O216 1.320 . S
C219 O217 1.214 . S
O220 Cd212 2.277 . S
O220 C215 1.209 . S
C221 O218 1.258 . S
C221 O223 1.282 . S
O222 Cd214 2.277 . S
O222 C215 1.226 . S
O223 Cd214 2.356 . S
O223 C221 1.282 . S
C224 C225 1.369 . S
C224 C226 1.419 1_665 S
C224 H228 0.930 . S
C225 C224 1.369 . S
C225 C234 1.429 . S
C226 C224 1.419 1_445 S
C226 C227 1.363 . S
C226 H229 0.929 . S
C227 C226 1.363 . S
C227 C233 1.428 . S
H228 C224 0.930 . S
H229 C226 0.929 . S
S230 N231 1.613 1_455 S
S230 N232 1.610 1_565 S
N231 S230 1.613 1_655 S
N231 C234 1.350 . S
N232 S230 1.610 1_545 S
N232 C233 1.351 . S
C233 C227 1.428 . S
C233 N232 1.351 . S
C233 C234 1.434 1_445 S
C234 C225 1.429 . S
C234 N231 1.350 . S
C234 C233 1.434 1_665 S
C235 C236 1.369 . S
C235 C237 1.419 . S
C235 H239 0.930 . S
C236 C235 1.369 . S
C236 C245 1.429 1_655 S
C237 C235 1.419 . S
C237 C238 1.363 1_655 S
C237 H240 0.929 . S
C238 C237 1.363 1_455 S
C238 C244 1.428 . S
H239 C235 0.930 . S
H240 C237 0.929 . S
S241 N242 1.613 . S
S241 N243 1.610 . S
N242 S241 1.613 . S
N242 C245 1.350 . S
N243 S241 1.610 . S
N243 C244 1.351 . S
C244 C238 1.428 . S
C244 N243 1.351 . S
C244 C245 1.434 . S
C245 C236 1.429 1_455 S
C245 N242 1.350 . S
C245 C244 1.434 . S
C246 C247 1.369 . S
C246 C248 1.419 . S
C246 H250 0.930 . S
C247 C246 1.369 . S
C247 C256 1.429 . S
C248 C246 1.419 . S
C248 C249 1.363 . S
C248 H251 0.929 . S
C249 C248 1.363 . S
C249 C255 1.428 . S
H250 C246 0.930 . S
H251 C248 0.929 . S
S252 N253 1.613 . S
S252 N254 1.610 . S
N253 S252 1.613 . S
N253 C256 1.350 . S
N254 S252 1.610 . S
N254 C255 1.351 . S
C255 C249 1.428 . S
C255 N254 1.351 . S
C255 C256 1.434 . S
C256 C247 1.429 . S
C256 N253 1.350 . S
C256 C255 1.434 . S
C257 C258 1.369 . S
C257 C259 1.419 1_545 S
C257 H261 0.930 . S
C258 C257 1.369 . S
C258 C267 1.429 . S
C259 C257 1.419 1_565 S
C259 C260 1.363 . S
C259 H262 0.929 . S
C260 C259 1.363 . S
C260 C266 1.428 . S
H261 C257 0.930 . S
H262 C259 0.929 . S
S263 N264 1.613 . S
S263 N265 1.610 1_545 S
N264 S263 1.613 . S
N264 C267 1.350 . S
N265 S263 1.610 1_565 S
N265 C266 1.351 . S
C266 C260 1.428 . S
C266 N265 1.351 . S
C266 C267 1.434 1_565 S
C267 C258 1.429 . S
C267 N264 1.350 . S
C267 C266 1.434 1_545 S
C268 C269 1.369 . S
C268 C270 1.419 . S
C268 H272 0.930 . S
C269 C268 1.369 . S
C269 C278 1.429 1_455 S
C270 C268 1.419 . S
C270 C271 1.363 1_455 S
C270 H273 0.929 . S
C271 C270 1.363 1_655 S
C271 C277 1.428 . S
H272 C268 0.930 . S
H273 C270 0.929 . S
S274 N275 1.613 . S
S274 N276 1.610 . S
N275 S274 1.613 . S
N275 C278 1.350 . S
N276 S274 1.610 . S
N276 C277 1.351 . S
C277 C271 1.428 . S
C277 N276 1.351 . S
C277 C278 1.434 . S
C278 C269 1.429 1_655 S
C278 N275 1.350 . S
C278 C277 1.434 . S
C279 C280 1.369 . S
C279 C281 1.419 . S
C279 H283 0.930 . S
C280 C279 1.369 . S
C280 C289 1.429 . S
C281 C279 1.419 . S
C281 C282 1.363 . S
C281 H284 0.929 . S
C282 C281 1.363 . S
C282 C288 1.428 . S
H283 C279 0.930 . S
H284 C281 0.929 . S
S285 N286 1.613 . S
S285 N287 1.610 . S
N286 S285 1.613 . S
N286 C289 1.350 . S
N287 S285 1.610 . S
N287 C288 1.351 . S
C288 C282 1.428 . S
C288 N287 1.351 . S
C288 C289 1.434 . S
C289 C280 1.429 . S
C289 N286 1.350 . S
C289 C288 1.434 . S
C290 C291 1.369 . S
C290 C292 1.419 . S
C290 H294 0.930 . S
C291 C290 1.369 . S
C291 C300 1.429 1_545 S
C292 C290 1.419 . S
C292 C293 1.363 1_545 S
C292 H295 0.929 . S
C293 C292 1.363 1_565 S
C293 C299 1.428 . S
H294 C290 0.930 . S
H295 C292 0.929 . S
S296 N297 1.613 . S
S296 N298 1.610 . S
N297 S296 1.613 . S
N297 C300 1.350 . S
N298 S296 1.610 . S
N298 C299 1.351 . S
C299 C293 1.428 . S
C299 N298 1.351 . S
C299 C300 1.434 . S
C300 C291 1.429 1_565 S
C300 N297 1.350 . S
C300 C299 1.434 . S
C301 C302 1.369 1_655 S
C301 C303 1.419 1_545 S
C301 H305 0.930 . S
C302 C301 1.369 1_455 S
C302 C311 1.429 . S
C303 C301 1.419 1_565 S
C303 C304 1.363 . S
C303 H306 0.929 . S
C304 C303 1.363 . S
C304 C310 1.428 1_655 S
H305 C301 0.930 . S
H306 C303 0.929 . S
S307 N308 1.613 1_565 S
S307 N309 1.610 . S
N308 S307 1.613 1_545 S
N308 C311 1.350 . S
N309 S307 1.610 . S
N309 C310 1.351 . S
C310 C304 1.428 1_455 S
C310 N309 1.351 . S
C310 C311 1.434 1_565 S
C311 C302 1.429 . S
C311 N308 1.350 . S
C311 C310 1.434 1_545 S
C312 C313 1.369 1_545 S
C312 C314 1.419 . S
C312 H316 0.930 . S
C313 C312 1.369 1_565 S
C313 C322 1.429 . S
C314 C312 1.419 . S
C314 C315 1.363 . S
C314 H317 0.929 . S
C315 C314 1.363 . S
C315 C321 1.428 1_545 S
H316 C312 0.930 . S
H317 C314 0.929 . S
S318 N319 1.613 . S
S318 N320 1.610 . S
N319 S318 1.613 . S
N319 C322 1.350 . S
N320 S318 1.610 . S
N320 C321 1.351 . S
C321 C315 1.428 1_565 S
C321 N320 1.351 . S
C321 C322 1.434 . S
C322 C313 1.429 . S
C322 N319 1.350 . S
C322 C321 1.434 . S
C323 C324 1.369 1_455 S
C323 C325 1.419 1_565 S
C323 H327 0.930 . S
C324 C323 1.369 1_655 S
C324 C333 1.429 . S
C325 C323 1.419 1_545 S
C325 C326 1.363 . S
C325 H328 0.929 . S
C326 C325 1.363 . S
C326 C332 1.428 1_455 S
H327 C323 0.930 . S
H328 C325 0.929 . S
S329 N330 1.613 1_545 S
S329 N331 1.610 . S
N330 S329 1.613 1_565 S
N330 C333 1.350 . S
N331 S329 1.610 . S
N331 C332 1.351 . S
C332 C326 1.428 1_655 S
C332 N331 1.351 . S
C332 C333 1.434 1_545 S
C333 C324 1.429 . S
C333 N330 1.350 . S
C333 C332 1.434 1_565 S
C334 C335 1.369 . S
C334 C336 1.419 1_455 S
C334 H338 0.930 . S
C335 C334 1.369 . S
C335 C344 1.443 . S
C336 C334 1.419 1_655 S
C336 C337 1.363 . S
C336 H339 0.929 . S
C337 C336 1.363 . S
C337 C343 1.428 . S
H338 C334 0.930 . S
H339 C336 0.929 . S
S340 N341 1.613 . S
S340 N342 1.610 . S
N341 S340 1.613 . S
N341 C344 1.348 1_655 S
N342 S340 1.610 . S
N342 C343 1.351 . S
C343 C337 1.428 . S
C343 N342 1.351 . S
C343 C344 1.420 1_655 S
C344 C335 1.443 . S
C344 N341 1.348 1_455 S
C344 C343 1.420 1_455 S
C345 C346 1.369 . S
C345 C347 1.419 . S
C345 H349 0.930 . S
C346 C345 1.369 . S
C346 C355 1.429 . S
C347 C345 1.419 . S
C347 C348 1.363 . S
C347 H350 0.929 . S
C348 C347 1.363 . S
C348 C354 1.428 . S
H349 C345 0.930 . S
H350 C347 0.929 . S
S351 N352 1.613 . S
S351 N353 1.610 . S
N352 S351 1.613 . S
N352 C355 1.350 . S
N353 S351 1.610 . S
N353 C354 1.351 . S
C354 C348 1.428 . S
C354 N353 1.351 . S
C354 C355 1.434 . S
C355 C346 1.429 . S
C355 N352 1.350 . S
C355 C354 1.434 . S
C356 C357 1.369 . S
C356 C358 1.419 . S
C356 H360 0.930 . S
C357 C356 1.369 . S
C357 C366 1.429 . S
C358 C356 1.419 . S
C358 C359 1.363 . S
C358 H361 0.929 . S
C359 C358 1.363 . S
C359 C365 1.428 . S
H360 C356 0.930 . S
H361 C358 0.929 . S
S362 N363 1.613 . S
S362 N364 1.610 . S
N363 S362 1.613 . S
N363 C366 1.350 . S
N364 S362 1.610 . S
N364 C365 1.351 . S
C365 C359 1.428 . S
C365 N364 1.351 . S
C365 C366 1.434 . S
C366 C357 1.429 . S
C366 N363 1.350 . S
C366 C365 1.434 . S
C367 C368 1.369 . S
C367 C369 1.419 1_565 S
C367 H371 0.930 . S
C368 C367 1.369 . S
C368 C377 1.429 . S
C369 C367 1.419 1_545 S
C369 C370 1.363 . S
C369 H372 0.929 . S
C370 C369 1.363 . S
C370 C376 1.428 . S
H371 C367 0.930 . S
H372 C369 0.929 . S
S373 N374 1.613 . S
S373 N375 1.610 1_565 S
N374 S373 1.613 . S
N374 C377 1.350 . S
N375 S373 1.610 1_545 S
N375 C376 1.351 . S
C376 C370 1.428 . S
C376 N375 1.351 . S
C376 C377 1.434 1_545 S
C377 C368 1.429 . S
C377 N374 1.350 . S
C377 C376 1.434 1_565 S
C378 C379 1.369 1_545 S
C378 C380 1.419 1_655 S
C378 H382 0.930 . S
C379 C378 1.369 1_565 S
C379 C388 1.439 . S
C380 C378 1.419 1_455 S
C380 C381 1.363 . S
C380 H383 0.929 . S
C381 C380 1.363 . S
C381 C387 1.428 1_545 S
H382 C378 0.930 . S
H383 C380 0.929 . S
S384 N385 1.613 . S
S384 N386 1.610 . S
N385 S384 1.613 . S
N385 C388 1.349 1_455 S
N386 S384 1.610 . S
N386 C387 1.351 . S
C387 C381 1.428 1_565 S
C387 N386 1.351 . S
C387 C388 1.424 1_455 S
C388 C379 1.439 . S
C388 N385 1.349 1_655 S
C388 C387 1.424 1_655 S
C389 C390 1.369 1_655 S
C389 C391 1.419 . S
C389 H393 0.930 . S
C390 C389 1.369 1_455 S
C390 C399 1.429 . S
C391 C389 1.419 . S
C391 C392 1.363 . S
C391 H394 0.929 . S
C392 C391 1.363 . S
C392 C398 1.428 1_655 S
H393 C389 0.930 . S
H394 C391 0.929 . S
S395 N396 1.613 . S
S395 N397 1.610 . S
N396 S395 1.613 . S
N396 C399 1.350 . S
N397 S395 1.610 . S
N397 C398 1.351 . S
C398 C392 1.428 1_455 S
C398 N397 1.351 . S
C398 C399 1.434 . S
C399 C390 1.429 . S
C399 N396 1.350 . S
C399 C398 1.434 . S
C400 C401 1.369 . S
C400 C402 1.419 . S
C400 H404 0.930 . S
C401 C400 1.369 . S
C401 C410 1.429 . S
C402 C400 1.419 . S
C402 C403 1.363 . S
C402 H405 0.929 . S
C403 C402 1.363 . S
C403 C409 1.428 . S
H404 C400 0.930 . S
H405 C402 0.929 . S
S406 N407 1.613 . S
S406 N408 1.610 . S
N407 S406 1.613 . S
N407 C410 1.350 . S
N408 S406 1.610 . S
N408 C409 1.351 . S
C409 C403 1.428 . S
C409 N408 1.351 . S
C409 C410 1.434 . S
C410 C401 1.429 . S
C410 N407 1.350 . S
C410 C409 1.434 . S
C411 C412 1.369 . S
C411 C413 1.419 . S
C411 H415 0.930 . S
C412 C411 1.369 . S
C412 C421 1.429 . S
C413 C411 1.419 . S
C413 C414 1.363 . S
C413 H416 0.929 . S
C414 C413 1.363 . S
C414 C420 1.428 . S
H415 C411 0.930 . S
H416 C413 0.929 . S
S417 N418 1.613 . S
S417 N419 1.610 . S
N418 S417 1.613 . S
N418 C421 1.350 . S
N419 S417 1.610 . S
N419 C420 1.351 . S
C420 C414 1.428 . S
C420 N419 1.351 . S
C420 C421 1.434 . S
C421 C412 1.429 . S
C421 N418 1.350 . S
C421 C420 1.434 . S
C422 C423 1.369 . S
C422 C424 1.419 . S
C422 H426 0.930 . S
C423 C422 1.369 . S
C423 C432 1.429 . S
C424 C422 1.419 . S
C424 C425 1.363 . S
C424 H427 0.929 . S
C425 C424 1.363 . S
C425 C431 1.428 . S
H426 C422 0.930 . S
H427 C424 0.929 . S
S428 N429 1.613 . S
S428 N430 1.610 . S
N429 S428 1.613 . S
N429 C432 1.350 . S
N430 S428 1.610 . S
N430 C431 1.351 . S
C431 C425 1.428 . S
C431 N430 1.351 . S
C431 C432 1.434 . S
C432 C423 1.429 . S
C432 N429 1.350 . S
C432 C431 1.434 . S
C433 C434 1.369 . S
C433 C435 1.419 . S
C433 H437 0.930 . S
C434 C433 1.369 . S
C434 C443 1.429 . S
C435 C433 1.419 . S
C435 C436 1.363 . S
C435 H438 0.929 . S
C436 C435 1.363 . S
C436 C442 1.428 . S
H437 C433 0.930 . S
H438 C435 0.929 . S
S439 N440 1.613 . S
S439 N441 1.610 . S
N440 S439 1.613 . S
N440 C443 1.350 . S
N441 S439 1.610 . S
N441 C442 1.351 . S
C442 C436 1.428 . S
C442 N441 1.351 . S
C442 C443 1.434 . S
C443 C434 1.429 . S
C443 N440 1.350 . S
C443 C442 1.434 . S
C444 C445 1.369 . S
C444 C446 1.419 . S
C444 H448 0.930 . S
C445 C444 1.369 . S
C445 C454 1.429 . S
C446 C444 1.419 . S
C446 C447 1.363 . S
C446 H449 0.929 . S
C447 C446 1.363 . S
C447 C453 1.428 . S
H448 C444 0.930 . S
H449 C446 0.929 . S
S450 N451 1.613 . S
S450 N452 1.610 . S
N451 S450 1.613 . S
N451 C454 1.350 . S
N452 S450 1.610 . S
N452 C453 1.351 . S
C453 C447 1.428 . S
C453 N452 1.351 . S
C453 C454 1.434 . S
C454 C445 1.429 . S
C454 N451 1.350 . S
C454 C453 1.434 . S
C455 C456 1.369 . S
C455 C457 1.419 . S
C455 H459 0.930 . S
C456 C455 1.369 . S
C456 C465 1.429 . S
C457 C455 1.419 . S
C457 C458 1.363 . S
C457 H460 0.929 . S
C458 C457 1.363 . S
C458 C464 1.428 . S
H459 C455 0.930 . S
H460 C457 0.929 . S
S461 N462 1.613 . S
S461 N463 1.610 . S
N462 S461 1.613 . S
N462 C465 1.350 . S
N463 S461 1.610 . S
N463 C464 1.351 . S
C464 C458 1.428 . S
C464 N463 1.351 . S
C464 C465 1.434 . S
C465 C456 1.429 . S
C465 N462 1.350 . S
C465 C464 1.434 . S
C466 C467 1.369 . S
C466 C468 1.419 . S
C466 H470 0.930 . S
C467 C466 1.369 . S
C467 C476 1.429 . S
C468 C466 1.419 . S
C468 C469 1.363 . S
C468 H471 0.929 . S
C469 C468 1.363 . S
C469 C475 1.428 . S
H470 C466 0.930 . S
H471 C468 0.929 . S
S472 N473 1.613 . S
S472 N474 1.610 . S
N473 S472 1.613 . S
N473 C476 1.350 . S
N474 S472 1.610 . S
N474 C475 1.351 . S
C475 C469 1.428 . S
C475 N474 1.351 . S
C475 C476 1.434 . S
C476 C467 1.429 . S
C476 N473 1.350 . S
C476 C475 1.434 . S
C477 C478 1.369 . S
C477 C479 1.419 . S
C477 H481 0.930 . S
C478 C477 1.369 . S
C478 C487 1.429 . S
C479 C477 1.419 . S
C479 C480 1.363 . S
C479 H482 0.929 . S
C480 C479 1.363 . S
C480 C486 1.428 . S
H481 C477 0.930 . S
H482 C479 0.929 . S
S483 N484 1.613 . S
S483 N485 1.610 . S
N484 S483 1.613 . S
N484 C487 1.350 . S
N485 S483 1.610 . S
N485 C486 1.351 . S
C486 C480 1.428 . S
C486 N485 1.351 . S
C486 C487 1.434 . S
C487 C478 1.429 . S
C487 N484 1.350 . S
C487 C486 1.434 . S
C488 C489 1.369 . S
C488 C490 1.419 . S
C488 H492 0.930 . S
C489 C488 1.369 . S
C489 C498 1.429 . S
C490 C488 1.419 . S
C490 C491 1.363 . S
C490 H493 0.929 . S
C491 C490 1.363 . S
C491 C497 1.428 . S
H492 C488 0.930 . S
H493 C490 0.929 . S
S494 N495 1.613 . S
S494 N496 1.610 . S
N495 S494 1.613 . S
N495 C498 1.350 . S
N496 S494 1.610 . S
N496 C497 1.351 . S
C497 C491 1.428 . S
C497 N496 1.351 . S
C497 C498 1.434 . S
C498 C489 1.429 . S
C498 N495 1.350 . S
C498 C497 1.434 . S
C499 C500 1.369 . S
C499 C501 1.419 . S
C499 H503 0.930 . S
C500 C499 1.369 . S
C500 C509 1.429 . S
C501 C499 1.419 . S
C501 C502 1.363 . S
C501 H504 0.929 . S
C502 C501 1.363 . S
C502 C508 1.428 . S
H503 C499 0.930 . S
H504 C501 0.929 . S
S505 N506 1.613 . S
S505 N507 1.610 . S
N506 S505 1.613 . S
N506 C509 1.350 . S
N507 S505 1.610 . S
N507 C508 1.351 . S
C508 C502 1.428 . S
C508 N507 1.351 . S
C508 C509 1.434 . S
C509 C500 1.429 . S
C509 N506 1.350 . S
C509 C508 1.434 . S
C510 C511 1.369 . S
C510 C512 1.419 . S
C510 H514 0.930 . S
C511 C510 1.369 . S
C511 C520 1.429 . S
C512 C510 1.419 . S
C512 C513 1.363 . S
C512 H515 0.929 . S
C513 C512 1.363 . S
C513 C519 1.428 . S
H514 C510 0.930 . S
H515 C512 0.929 . S
S516 N517 1.613 . S
S516 N518 1.610 . S
N517 S516 1.613 . S
N517 C520 1.350 . S
N518 S516 1.610 . S
N518 C519 1.351 . S
C519 C513 1.428 . S
C519 N518 1.351 . S
C519 C520 1.434 . S
C520 C511 1.429 . S
C520 N517 1.350 . S
C520 C519 1.434 . S
C521 C522 1.369 . S
C521 C523 1.419 1_556 S
C521 H525 0.930 . S
C522 C521 1.369 . S
C522 C531 1.429 . S
C523 C521 1.419 1_554 S
C523 C524 1.363 . S
C523 H526 0.929 . S
C524 C523 1.363 . S
C524 C530 1.428 . S
H525 C521 0.930 . S
H526 C523 0.929 . S
S527 N528 1.613 1_554 S
S527 N529 1.610 . S
N528 S527 1.613 1_556 S
N528 C531 1.350 . S
N529 S527 1.610 . S
N529 C530 1.351 . S
C530 C524 1.428 . S
C530 N529 1.351 . S
C530 C531 1.434 1_554 S
C531 C522 1.429 . S
C531 N528 1.350 . S
C531 C530 1.434 1_556 S
C532 C533 1.369 . S
C532 C534 1.419 1_554 S
C532 H536 0.930 . S
C533 C532 1.369 . S
C533 C542 1.429 . S
C534 C532 1.419 1_556 S
C534 C535 1.363 . S
C534 H537 0.929 . S
C535 C534 1.363 . S
C535 C541 1.428 . S
H536 C532 0.930 . S
H537 C534 0.929 . S
S538 N539 1.649 . S
S538 N540 1.575 1_554 S
N539 S538 1.649 . S
N539 C542 1.350 . S
N540 S538 1.575 1_556 S
N540 C541 1.351 . S
C541 C535 1.428 . S
C541 N540 1.351 . S
C541 C542 1.434 1_556 S
C542 C533 1.429 . S
C542 N539 1.350 . S
C542 C541 1.434 1_554 S
C543 C544 1.369 . S
C543 C545 1.419 . S
C543 H547 0.930 . S
C544 C543 1.369 . S
C544 C553 1.429 . S
C545 C543 1.419 . S
C545 C546 1.363 . S
C545 H548 0.929 . S
C546 C545 1.363 . S
C546 C552 1.428 . S
H547 C543 0.930 . S
H548 C545 0.929 . S
S549 N550 1.613 . S
S549 N551 1.610 . S
N550 S549 1.613 . S
N550 C553 1.350 . S
N551 S549 1.610 . S
N551 C552 1.351 . S
C552 C546 1.428 . S
C552 N551 1.351 . S
C552 C553 1.434 . S
C553 C544 1.429 . S
C553 N550 1.350 . S
C553 C552 1.434 . S
C554 C555 1.369 . S
C554 C556 1.419 . S
C554 H558 0.930 . S
C555 C554 1.369 . S
C555 C564 1.429 . S
C556 C554 1.419 . S
C556 C557 1.363 . S
C556 H559 0.929 . S
C557 C556 1.363 . S
C557 C563 1.428 . S
H558 C554 0.930 . S
H559 C556 0.929 . S
S560 N561 1.613 . S
S560 N562 1.610 . S
N561 S560 1.613 . S
N561 C564 1.350 . S
N562 S560 1.610 . S
N562 C563 1.351 . S
C563 C557 1.428 . S
C563 N562 1.351 . S
C563 C564 1.434 . S
C564 C555 1.429 . S
C564 N561 1.350 . S
C564 C563 1.434 . S
C565 C566 1.369 . S
C565 C567 1.419 . S
C565 H569 0.930 . S
C566 C565 1.369 . S
C566 C575 1.429 . S
C567 C565 1.419 . S
C567 C568 1.363 . S
C567 H570 0.929 . S
C568 C567 1.363 . S
C568 C574 1.428 . S
H569 C565 0.930 . S
H570 C567 0.929 . S
S571 N572 1.613 . S
S571 N573 1.610 . S
N572 S571 1.613 . S
N572 C575 1.350 . S
N573 S571 1.610 . S
N573 C574 1.351 . S
C574 C568 1.428 . S
C574 N573 1.351 . S
C574 C575 1.434 . S
C575 C566 1.429 . S
C575 N572 1.350 . S
C575 C574 1.434 . S
C225 C151 1.509 . S
C227 C11 1.510 . S
C236 C25 1.510 . S
C238 C165 1.513 . S
C247 C123 1.510 . S
C249 C39 1.510 . S
C258 C137 1.512 . S
C260 C53 1.512 . S
C269 C67 1.513 . S
C271 C207 1.509 . S
C280 C221 1.510 . S
C282 C81 1.513 . S
C291 C95 1.509 . S
C293 C179 1.513 . S
C302 C193 1.511 . S
C304 C109 1.509 . S
C313 C145 1.554 . S
C315 C5 1.554 . S
C324 C19 1.554 . S
C326 C159 1.554 . S
C335 C33 1.554 . S
C337 C117 1.554 . S
C346 C47 1.554 . S
C348 C131 1.554 . S
C357 C61 1.554 . S
C359 C201 1.554 . S
C368 C75 1.554 . S
C370 C215 1.554 . S
C379 C173 1.554 . S
C381 C89 1.554 . S
C390 C187 1.554 . S
C392 C103 1.554 . S
C401 C9 1.351 . S
C403 C93 1.350 . S
C412 C23 1.343 . S
C414 C107 1.345 . S
C423 C37 1.343 . S
C425 C65 1.344 . S
C434 C51 1.344 . S
C436 C79 1.345 . S
C445 C121 1.343 . S
C447 C205 1.344 . S
C456 C219 1.346 . S
C458 C135 1.345 . S
C467 C149 1.344 . S
C469 C177 1.345 . S
C478 C191 1.350 . S
C480 C163 1.349 . S
C489 C0 1.389 . S
C491 C210 1.386 . S
C500 C168 1.389 . S
C502 C14 1.385 . S
C511 C182 1.391 . S
C513 C28 1.389 . S
C522 C196 1.383 . S
C524 C42 1.384 . S
C533 C126 1.390 . S
C535 C56 1.390 . S
C544 C140 1.384 . S
C546 C70 1.387 . S
C555 C84 1.391 . S
C557 C154 1.388 . S
C566 C98 1.384 . S
C568 C112 1.384 . S
