# Generated by pormake.
# Topology wjd, (6)-cn, num edge types: 1
# Building blocks:
#     Node 0, Type 0, BuildingBlock: BETFAJ_clean_sbu_0, # of connection points: 6
#     Node 1, Type 0, BuildingBlock: BETFAJ_clean_sbu_0, # of connection points: 6
#     Node 2, Type 0, BuildingBlock: BETFAJ_clean_sbu_0, # of connection points: 6
#     Node 3, Type 0, BuildingBlock: BETFAJ_clean_sbu_0, # of connection points: 6
#     Node 4, Type 0, BuildingBlock: BETFAJ_clean_sbu_0, # of connection points: 6
#     Node 5, Type 0, BuildingBlock: BETFAJ_clean_sbu_0, # of connection points: 6
#     Node 6, Type 0, BuildingBlock: BETFAJ_clean_sbu_0, # of connection points: 6
#     Node 7, Type 0, BuildingBlock: BETFAJ_clean_sbu_0, # of connection points: 6
#     Node 8, Type 0, BuildingBlock: BETFAJ_clean_sbu_0, # of connection points: 6
#     Node 9, Type 0, BuildingBlock: BETFAJ_clean_sbu_0, # of connection points: 6
#     Node 10, Type 0, BuildingBlock: BETFAJ_clean_sbu_0, # of connection points: 6
#     Node 11, Type 0, BuildingBlock: BETFAJ_clean_sbu_0, # of connection points: 6
#     Edge 12, Type (0, 0), BuildingBlock: MIFKUJ_clean_linker_0, # of connection points: 2
#     Edge 13, Type (0, 0), BuildingBlock: MIFKUJ_clean_linker_0, # of connection points: 2
#     Edge 14, Type (0, 0), BuildingBlock: MIFKUJ_clean_linker_0, # of connection points: 2
#     Edge 15, Type (0, 0), BuildingBlock: MIFKUJ_clean_linker_0, # of connection points: 2
#     Edge 16, Type (0, 0), BuildingBlock: MIFKUJ_clean_linker_0, # of connection points: 2
#     Edge 17, Type (0, 0), BuildingBlock: MIFKUJ_clean_linker_0, # of connection points: 2
#     Edge 18, Type (0, 0), BuildingBlock: MIFKUJ_clean_linker_0, # of connection points: 2
#     Edge 19, Type (0, 0), BuildingBlock: MIFKUJ_clean_linker_0, # of connection points: 2
#     Edge 20, Type (0, 0), BuildingBlock: MIFKUJ_clean_linker_0, # of connection points: 2
#     Edge 21, Type (0, 0), BuildingBlock: MIFKUJ_clean_linker_0, # of connection points: 2
#     Edge 22, Type (0, 0), BuildingBlock: MIFKUJ_clean_linker_0, # of connection points: 2
#     Edge 23, Type (0, 0), BuildingBlock: MIFKUJ_clean_linker_0, # of connection points: 2
#     Edge 24, Type (0, 0), BuildingBlock: MIFKUJ_clean_linker_0, # of connection points: 2
#     Edge 25, Type (0, 0), BuildingBlock: MIFKUJ_clean_linker_0, # of connection points: 2
#     Edge 26, Type (0, 0), BuildingBlock: MIFKUJ_clean_linker_0, # of connection points: 2
#     Edge 27, Type (0, 0), BuildingBlock: MIFKUJ_clean_linker_0, # of connection points: 2
#     Edge 28, Type (0, 0), BuildingBlock: MIFKUJ_clean_linker_0, # of connection points: 2
#     Edge 29, Type (0, 0), BuildingBlock: MIFKUJ_clean_linker_0, # of connection points: 2
#     Edge 30, Type (0, 0), BuildingBlock: MIFKUJ_clean_linker_0, # of connection points: 2
#     Edge 31, Type (0, 0), BuildingBlock: MIFKUJ_clean_linker_0, # of connection points: 2
#     Edge 32, Type (0, 0), BuildingBlock: MIFKUJ_clean_linker_0, # of connection points: 2
#     Edge 33, Type (0, 0), BuildingBlock: MIFKUJ_clean_linker_0, # of connection points: 2
#     Edge 34, Type (0, 0), BuildingBlock: MIFKUJ_clean_linker_0, # of connection points: 2
#     Edge 35, Type (0, 0), BuildingBlock: MIFKUJ_clean_linker_0, # of connection points: 2
#     Edge 36, Type (0, 0), BuildingBlock: MIFKUJ_clean_linker_0, # of connection points: 2
#     Edge 37, Type (0, 0), BuildingBlock: MIFKUJ_clean_linker_0, # of connection points: 2
#     Edge 38, Type (0, 0), BuildingBlock: MIFKUJ_clean_linker_0, # of connection points: 2
#     Edge 39, Type (0, 0), BuildingBlock: MIFKUJ_clean_linker_0, # of connection points: 2
#     Edge 40, Type (0, 0), BuildingBlock: MIFKUJ_clean_linker_0, # of connection points: 2
#     Edge 41, Type (0, 0), BuildingBlock: MIFKUJ_clean_linker_0, # of connection points: 2
#     Edge 42, Type (0, 0), BuildingBlock: MIFKUJ_clean_linker_0, # of connection points: 2
#     Edge 43, Type (0, 0), BuildingBlock: MIFKUJ_clean_linker_0, # of connection points: 2
#     Edge 44, Type (0, 0), BuildingBlock: MIFKUJ_clean_linker_0, # of connection points: 2
#     Edge 45, Type (0, 0), BuildingBlock: MIFKUJ_clean_linker_0, # of connection points: 2
#     Edge 46, Type (0, 0), BuildingBlock: MIFKUJ_clean_linker_0, # of connection points: 2
#     Edge 47, Type (0, 0), BuildingBlock: MIFKUJ_clean_linker_0, # of connection points: 2
# Relax obj value: 0.100
# Max RMSD: 0.207
# Mean RMSD: 0.207
data_MOF--net-wjd--node1-BETFAJ_clean_sbu_0--edge1-MIFKUJ_clean_linker_0
_symmetry_space_group_name_H-M    P1
_symmetry_Int_Tables_number       1
_symmetry_cell_setting            triclinic
loop_
_symmetry_equiv_pos_as_xyz
'x, y, z'
_cell_length_a     49.821968
_cell_length_b     49.744977
_cell_length_c     69.666266
_cell_angle_alpha  90.348927
_cell_angle_beta   90.10772
_cell_angle_gamma 119.89163
loop_
_atom_site_label
_atom_site_type_symbol
_atom_site_fract_x
_atom_site_fract_y
_atom_site_fract_z
_atom_type_partial_charge
Sm0 Sm 0.36582 0.17294 0.12272 0.0
Sm1 Sm 0.32799 0.10627 0.13344 0.0
C2 C 0.40862 0.23113 0.11488 0.0
C3 C 0.44118 0.25602 0.11791 0.0
C4 C 0.45341 0.26716 0.13633 0.0
C5 C 0.48274 0.29357 0.13852 0.0
C6 C 0.50049 0.30923 0.12237 0.0
C7 C 0.48892 0.29704 0.10402 0.0
C8 C 0.45952 0.27083 0.10183 0.0
C9 C 0.33991 0.13031 0.09257 0.0
C10 C 0.40185 0.13573 0.13331 0.0
C11 C 0.28344 0.04838 0.12803 0.0
C12 C 0.25028 0.02931 0.13329 0.0
C13 C 0.22753 0.03403 0.12435 0.0
C14 C 0.19607 0.01406 0.12786 0.0
C15 C 0.18669 0.98871 0.14009 0.0
C16 C 0.20924 0.98469 0.14968 0.0
C17 C 0.24078 1.00492 0.1464 0.0
C18 C 0.34 0.13557 0.16825 0.0
C19 C 0.2953 0.15047 0.13025 0.0
O20 O 0.38912 0.22357 0.12912 0.0
O21 O 0.40375 0.20738 0.10427 0.0
O22 O 0.35391 0.12856 0.10704 0.0
O23 O 0.33801 0.15536 0.09372 0.0
O24 O 0.40241 0.16239 0.1347 0.0
O25 O 0.37569 0.10942 0.13028 0.0
O26 O 0.28999 0.07071 0.11585 0.0
O27 O 0.30445 0.05622 0.14161 0.0
O28 O 0.34999 0.15097 0.15263 0.0
O29 O 0.32643 0.10591 0.16542 0.0
O30 O 0.29186 0.12245 0.13053 0.0
O31 O 0.32251 0.17546 0.12884 0.0
H32 H 0.43995 0.25613 0.14901 0.0
H33 H 0.49124 0.30229 0.15284 0.0
H34 H 0.50188 0.30873 0.09131 0.0
H35 H 0.45058 0.26282 0.08747 0.0
H36 H 0.23385 0.05249 0.1141 0.0
H37 H 0.17904 0.01732 0.1201 0.0
H38 H 0.20239 0.96526 0.15924 0.0
H39 H 0.25768 1.00082 0.15359 0.0
Sm40 Sm 0.79458 0.70037 0.40213 0.0
Sm41 Sm 0.82747 0.6584 0.41356 0.0
C42 C 0.77553 0.74123 0.40445 0.0
C43 C 0.79134 0.77548 0.40272 0.0
C44 C 0.79993 0.79424 0.4193 0.0
C45 C 0.81427 0.8265 0.41787 0.0
C46 C 0.82034 0.84084 0.39981 0.0
C47 C 0.81254 0.82209 0.38322 0.0
C48 C 0.79814 0.7898 0.38465 0.0
C49 C 0.8144 0.68485 0.36906 0.0
C50 C 0.87184 0.73299 0.40718 0.0
C51 C 0.84929 0.61946 0.41185 0.0
C52 C 0.83932 0.5859 0.41307 0.0
C53 C 0.8379 0.56951 0.39626 0.0
C54 C 0.83222 0.53903 0.39709 0.0
C55 C 0.82758 0.52378 0.41479 0.0
C56 C 0.82753 0.53979 0.43158 0.0
C57 C 0.83359 0.57052 0.43075 0.0
C58 C 0.81036 0.6821 0.44529 0.0
C59 C 0.75173 0.62389 0.40779 0.0
O60 O 0.78266 0.73042 0.41947 0.0
O61 O 0.77248 0.72512 0.38884 0.0
O62 O 0.81716 0.67685 0.38603 0.0
O63 O 0.79997 0.70047 0.36974 0.0
O64 O 0.84705 0.73657 0.40625 0.0
O65 O 0.87011 0.70561 0.40843 0.0
O66 O 0.8402 0.62843 0.39674 0.0
O67 O 0.84989 0.63438 0.42757 0.0
O68 O 0.80747 0.68419 0.42762 0.0
O69 O 0.82292 0.66473 0.44725 0.0
O70 O 0.77687 0.62157 0.40951 0.0
O71 O 0.75188 0.65068 0.40598 0.0
H72 H 0.79514 0.78397 0.43344 0.0
H73 H 0.81958 0.84007 0.43097 0.0
H74 H 0.81733 0.83233 0.36908 0.0
H75 H 0.79214 0.77612 0.37156 0.0
H76 H 0.84237 0.58069 0.38241 0.0
H77 H 0.83304 0.52815 0.38379 0.0
H78 H 0.82339 0.52889 0.44549 0.0
H79 H 0.83445 0.5824 0.44402 0.0
Sm80 Sm 0.85194 0.19739 0.12154 0.0
Sm81 Sm 0.92052 0.22742 0.1347 0.0
C82 C 0.79351 0.18058 0.11307 0.0
C83 C 0.76734 0.18636 0.11576 0.0
C84 C 0.76101 0.19569 0.13343 0.0
C85 C 0.73471 0.19895 0.13551 0.0
C86 C 0.71415 0.19303 0.11995 0.0
C87 C 0.72114 0.18408 0.10225 0.0
C88 C 0.74737 0.18095 0.10021 0.0
C89 C 0.8964 0.21539 0.09277 0.0
C90 C 0.88828 0.27011 0.13482 0.0
C91 C 0.9792 0.24239 0.13177 0.0
C92 C 0.99714 0.2266 0.13617 0.0
C93 C 0.99017 0.19855 0.12692 0.0
C94 C 1.00911 0.18549 0.12948 0.0
C95 C 0.03556 0.20016 0.14127 0.0
C96 C 0.04143 0.2271 0.15146 0.0
C97 C 0.02246 0.24023 0.14887 0.0
C98 C 0.88597 0.20689 0.16763 0.0
C99 C 0.87709 0.15055 0.12879 0.0
O100 O 0.80142 0.16877 0.12728 0.0
O101 O 0.81716 0.20074 0.10313 0.0
O102 O 0.8979 0.23036 0.10774 0.0
O103 O 0.87036 0.18936 0.09243 0.0
O104 O 0.86182 0.2437 0.13488 0.0
O105 O 0.91524 0.27115 0.13241 0.0
O106 O 0.95909 0.23025 0.11773 0.0
O107 O 0.96907 0.25197 0.14619 0.0
O108 O 0.87457 0.20384 0.15084 0.0
O109 O 0.91594 0.22217 0.16722 0.0
O110 O 0.90494 0.17548 0.12958 0.0
O111 O 0.85178 0.15252 0.12757 0.0
H112 H 0.77616 0.20013 0.14566 0.0
H113 H 0.73069 0.20619 0.14936 0.0
H114 H 0.70587 0.17838 0.08998 0.0
H115 H 0.75168 0.17354 0.08647 0.0
H116 H 0.97063 0.18706 0.11718 0.0
H117 H 1.00369 0.16448 0.12164 0.0
H118 H 0.06161 0.23895 0.16068 0.0
H119 H 0.02822 0.26164 0.15632 0.0
Sm120 Sm 0.32819 0.10533 0.4043 0.0
Sm121 Sm 0.36481 0.17444 0.41449 0.0
C122 C 0.28519 0.04698 0.41035 0.0
C123 C 0.25153 0.02671 0.40612 0.0
C124 C 0.22934 0.02568 0.41908 0.0
C125 C 0.19772 1.00552 0.41602 0.0
C126 C 0.18729 0.98549 0.40003 0.0
C127 C 0.20932 0.98699 0.38677 0.0
C128 C 0.24108 1.0074 0.38977 0.0
C129 C 0.33773 0.13444 0.36962 0.0
C130 C 0.29373 0.14823 0.40685 0.0
C131 C 0.40644 0.23411 0.42045 0.0
C132 C 0.43973 0.25825 0.4197 0.0
C133 C 0.45916 0.2606 0.4044 0.0
C134 C 0.48967 0.28574 0.40349 0.0
C135 C 0.5014 0.30916 0.4178 0.0
C136 C 0.48201 0.30584 0.43339 0.0
C137 C 0.45175 0.28077 0.43432 0.0
C138 C 0.34143 0.13245 0.44493 0.0
C139 C 0.40327 0.13904 0.40444 0.0
O140 O 0.29209 0.06968 0.4225 0.0
O141 O 0.30517 0.05497 0.39624 0.0
O142 O 0.3476 0.14916 0.38555 0.0
O143 O 0.32407 0.10473 0.37206 0.0
O144 O 0.2914 0.12072 0.40887 0.0
O145 O 0.32066 0.1738 0.40632 0.0
O146 O 0.39121 0.22329 0.40432 0.0
O147 O 0.39779 0.213 0.43369 0.0
O148 O 0.35508 0.13083 0.43019 0.0
O149 O 0.33883 0.15717 0.44397 0.0
O150 O 0.40209 0.16482 0.40371 0.0
O151 O 0.37779 0.11152 0.40618 0.0
H152 H 0.23639 0.04003 0.43192 0.0
H153 H 0.18149 1.00476 0.42663 0.0
H154 H 0.202 0.97209 0.37419 0.0
H155 H 0.25744 1.00763 0.37947 0.0
H156 H 0.45061 0.24341 0.39298 0.0
H157 H 0.50387 0.28702 0.39141 0.0
H158 H 0.48959 0.32334 0.44458 0.0
H159 H 0.43727 0.27955 0.44625 0.0
Sm160 Sm 0.83032 0.66237 0.12255 0.0
Sm161 Sm 0.79795 0.69688 0.13327 0.0
C162 C 0.84792 0.62083 0.11508 0.0
C163 C 0.839 0.58764 0.11732 0.0
C164 C 0.84014 0.57517 0.13518 0.0
C165 C 0.836 0.54514 0.13636 0.0
C166 C 0.83063 0.5268 0.11971 0.0
C167 C 0.82753 0.53874 0.10207 0.0
C168 C 0.83192 0.56876 0.10089 0.0
C169 C 0.81331 0.68751 0.09239 0.0
C170 C 0.75697 0.62228 0.1326 0.0
C171 C 0.78145 0.73919 0.12752 0.0
C172 C 0.79533 0.77304 0.13135 0.0
C173 C 0.81337 0.79452 0.11715 0.0
C174 C 0.82547 0.82634 0.12006 0.0
C175 C 0.81953 0.83743 0.13713 0.0
C176 C 0.80209 0.81629 0.15153 0.0
C177 C 0.79023 0.78436 0.14872 0.0
C178 C 0.8162 0.68624 0.16814 0.0
C179 C 0.87549 0.73317 0.131 0.0
O180 O 0.85721 0.63905 0.13019 0.0
O181 O 0.83153 0.62718 0.10323 0.0
O182 O 0.79676 0.67205 0.10624 0.0
O183 O 0.84116 0.69209 0.09462 0.0
O184 O 0.78406 0.62387 0.13329 0.0
O185 O 0.75467 0.64762 0.13113 0.0
O186 O 0.79572 0.73154 0.11475 0.0
O187 O 0.77114 0.71998 0.14205 0.0
O188 O 0.82229 0.67706 0.15234 0.0
O189 O 0.79952 0.69923 0.16551 0.0
O190 O 0.84998 0.73517 0.13081 0.0
O191 O 0.87442 0.70637 0.12986 0.0
H192 H 0.8454 0.589 0.14818 0.0
H193 H 0.83862 0.53704 0.15024 0.0
H194 H 0.82249 0.52522 0.08897 0.0
H195 H 0.83077 0.5776 0.08692 0.0
H196 H 0.81766 0.78673 0.10353 0.0
H197 H 0.83848 0.84225 0.10867 0.0
H198 H 0.79707 0.82445 0.16476 0.0
H199 H 0.77652 0.76855 0.15997 0.0
Sm200 Sm 0.92 0.22857 0.4032 0.0
Sm201 Sm 0.85229 0.19861 0.41506 0.0
C202 C 0.97878 0.24449 0.40726 0.0
C203 C 0.99711 0.22885 0.40366 0.0
C204 C 1.00057 0.21138 0.41826 0.0
C205 C 0.01955 0.19843 0.41568 0.0
C206 C 0.03556 0.20234 0.39837 0.0
C207 C 0.03055 0.21824 0.38334 0.0
C208 C 1.01179 0.23157 0.38601 0.0
C209 C 0.88684 0.20898 0.36938 0.0
C210 C 0.87661 0.15211 0.4066 0.0
C211 C 0.79458 0.18333 0.42414 0.0
C212 C 0.76942 0.19047 0.42075 0.0
C213 C 0.7588 0.19137 0.40218 0.0
C214 C 0.73236 0.19416 0.39964 0.0
C215 C 0.7163 0.19647 0.41558 0.0
C216 C 0.72796 0.1973 0.43407 0.0
C217 C 0.75414 0.19416 0.43662 0.0
C218 C 0.8962 0.21509 0.44419 0.0
C219 C 0.88858 0.27114 0.40258 0.0
O220 O 0.95854 0.23288 0.4211 0.0
O221 O 0.96861 0.25307 0.39244 0.0
O222 O 0.87461 0.20534 0.38587 0.0
O223 O 0.91676 0.22416 0.37052 0.0
O224 O 0.90441 0.17681 0.40844 0.0
O225 O 0.85138 0.15423 0.40613 0.0
O226 O 0.80143 0.16967 0.41042 0.0
O227 O 0.81886 0.20376 0.43373 0.0
O228 O 0.89723 0.23127 0.43015 0.0
O229 O 0.87168 0.18785 0.44291 0.0
O230 O 0.8622 0.24472 0.40173 0.0
O231 O 0.91528 0.2722 0.40578 0.0
H232 H 0.98955 0.20867 0.43206 0.0
H233 H 0.02289 0.18684 0.42778 0.0
H234 H 0.04151 0.22092 0.36954 0.0
H235 H 1.00921 0.24439 0.37434 0.0
H236 H 0.77027 0.18889 0.38966 0.0
H237 H 0.72392 0.19366 0.38522 0.0
H238 H 0.71587 0.19874 0.4466 0.0
H239 H 0.76182 0.19346 0.45107 0.0
Sm240 Sm 0.11018 0.32373 0.63425 0.0
Sm241 Sm 0.1786 0.36172 0.622 0.0
C242 C 0.05134 0.28106 0.62985 0.0
C243 C 0.03199 0.24719 0.63324 0.0
C244 C 0.02325 0.22661 0.61751 0.0
C245 C 1.00337 0.19487 0.61992 0.0
C246 C 0.99205 0.18284 0.63815 0.0
C247 C 1.00173 0.20297 0.65409 0.0
C248 C 0.02146 0.23497 0.65166 0.0
C249 C 0.14394 0.33695 0.66765 0.0
C250 C 0.1536 0.29009 0.62947 0.0
C251 C 0.23724 0.40323 0.61462 0.0
C252 C 0.26145 0.43623 0.61691 0.0
C253 C 0.26884 0.45135 0.63489 0.0
C254 C 0.29481 0.48108 0.63696 0.0
C255 C 0.31354 0.49616 0.62108 0.0
C256 C 0.30522 0.48174 0.60299 0.0
C257 C 0.27941 0.45206 0.60093 0.0
C258 C 0.13454 0.3344 0.59301 0.0
C259 C 0.14148 0.39867 0.6332 0.0
O260 O 0.07195 0.28895 0.61625 0.0
O261 O 0.06141 0.30003 0.64469 0.0
O262 O 0.15587 0.3456 0.65109 0.0
O263 O 0.11398 0.32162 0.66676 0.0
O264 O 0.12566 0.28712 0.62918 0.0
O265 O 0.17885 0.31744 0.62907 0.0
O266 O 0.22855 0.38559 0.62983 0.0
O267 O 0.21444 0.39679 0.60274 0.0
O268 O 0.13333 0.34902 0.60746 0.0
O269 O 0.15983 0.33288 0.59355 0.0
O270 O 0.16826 0.39948 0.63202 0.0
O271 O 0.1146 0.37234 0.63276 0.0
H272 H 0.03109 0.23516 0.60316 0.0
H273 H 0.99615 0.17973 0.60743 0.0
H274 H 0.99305 0.1941 0.66827 0.0
H275 H 0.02791 0.25012 0.6641 0.0
H276 H 0.25533 0.43978 0.64746 0.0
H277 H 0.30106 0.49173 0.65108 0.0
H278 H 0.31961 0.4928 0.59062 0.0
H279 H 0.27426 0.44088 0.58694 0.0
Sm280 Sm 0.20082 0.8462 0.91386 0.0
Sm281 Sm 0.23089 0.9128 0.90244 0.0
C282 C 0.18545 0.78811 0.92209 0.0
C283 C 0.19425 0.76397 0.91948 0.0
C284 C 0.20017 0.75576 0.90128 0.0
C285 C 0.2042 0.72994 0.89917 0.0
C286 C 0.20286 0.7123 0.91522 0.0
C287 C 0.19893 0.72174 0.9335 0.0
C288 C 0.1945 0.74725 0.93559 0.0
C289 C 0.22061 0.88914 0.94398 0.0
C290 C 0.27306 0.88025 0.90213 0.0
C291 C 0.24409 0.97076 0.90798 0.0
C292 C 0.23118 0.99108 0.90306 0.0
C293 C 0.20907 0.99189 0.91529 0.0
C294 C 0.19778 0.01201 0.91182 0.0
C295 C 0.20857 0.03226 0.8962 0.0
C296 C 0.23021 0.03119 0.8837 0.0
C297 C 0.24137 0.0107 0.88707 0.0
C298 C 0.21045 0.88237 0.86818 0.0
C299 C 0.15396 0.87017 0.90711 0.0
O300 O 0.17408 0.79554 0.90743 0.0
O301 O 0.20346 0.81186 0.93291 0.0
O302 O 0.23525 0.89068 0.92896 0.0
O303 O 0.19339 0.86453 0.94332 0.0
O304 O 0.24595 0.85494 0.90033 0.0
O305 O 0.27487 0.90756 0.90496 0.0
O306 O 0.22644 0.94762 0.91914 0.0
O307 O 0.25819 0.96329 0.8948 0.0
O308 O 0.20603 0.86788 0.88404 0.0
O309 O 0.22674 0.91215 0.8703 0.0
O310 O 0.17916 0.89774 0.90776 0.0
O311 O 0.15563 0.84471 0.9072 0.0
H312 H 0.20047 0.76848 0.88865 0.0
H313 H 0.20723 0.72302 0.88493 0.0
H314 H 0.19743 0.70829 0.94604 0.0
H315 H 0.18998 0.75316 0.94975 0.0
H316 H 0.20088 0.97744 0.92791 0.0
H317 H 0.18156 0.01266 0.9219 0.0
H318 H 0.23882 0.04655 0.87149 0.0
H319 H 0.25836 0.01068 0.8774 0.0
Sm320 Sm 0.70261 0.79244 0.63393 0.0
Sm321 Sm 0.66702 0.82553 0.62233 0.0
C322 C 0.74509 0.77604 0.62873 0.0
C323 C 0.77887 0.79019 0.63259 0.0
C324 C 0.80004 0.80605 0.61779 0.0
C325 C 0.83187 0.8191 0.62078 0.0
C326 C 0.84355 0.81644 0.63861 0.0
C327 C 0.82246 0.80105 0.65356 0.0
C328 C 0.79047 0.78809 0.65059 0.0
C329 C 0.69061 0.81227 0.66796 0.0
C330 C 0.73829 0.87022 0.6304 0.0
C331 C 0.62572 0.84347 0.61559 0.0
C332 C 0.59261 0.83468 0.61659 0.0
C333 C 0.57425 0.82116 0.63294 0.0
C334 C 0.5442 0.81704 0.63399 0.0
C335 C 0.53234 0.82667 0.61882 0.0
C336 C 0.55013 0.83844 0.60215 0.0
C337 C 0.57983 0.84231 0.60105 0.0
C338 C 0.69165 0.80656 0.59269 0.0
C339 C 0.62756 0.75176 0.63335 0.0
O340 O 0.73765 0.79022 0.61584 0.0
O341 O 0.72572 0.7659 0.64322 0.0
O342 O 0.68218 0.817 0.65158 0.0
O343 O 0.70434 0.79605 0.66637 0.0
O344 O 0.74023 0.84461 0.63065 0.0
O345 O 0.71159 0.86937 0.62922 0.0
O346 O 0.64173 0.8498 0.63154 0.0
O347 O 0.63351 0.82924 0.60287 0.0
O348 O 0.67736 0.79135 0.60726 0.0
O349 O 0.69382 0.8337 0.59334 0.0
O350 O 0.62914 0.77895 0.63297 0.0
O351 O 0.65288 0.74926 0.63212 0.0
H352 H 0.79197 0.80804 0.6037 0.0
H353 H 0.84725 0.83029 0.60883 0.0
H354 H 0.83067 0.79883 0.66754 0.0
H355 H 0.77488 0.77619 0.66233 0.0
H356 H 0.58347 0.81483 0.64509 0.0
H357 H 0.53096 0.80797 0.64702 0.0
H358 H 0.54146 0.84583 0.59021 0.0
H359 H 0.5934 0.85256 0.58826 0.0
Sm360 Sm 0.17935 0.36076 0.91547 0.0
Sm361 Sm 0.11118 0.32331 0.90176 0.0
C362 C 0.23748 0.40329 0.92373 0.0
C363 C 0.26191 0.43591 0.92081 0.0
C364 C 0.2707 0.44888 0.90244 0.0
C365 C 0.29657 0.47851 0.90022 0.0
C366 C 0.31384 0.49576 0.91631 0.0
C367 C 0.30391 0.48344 0.93469 0.0
C368 C 0.27832 0.45376 0.93689 0.0
C369 C 0.13471 0.33645 0.94414 0.0
C370 C 0.14436 0.39812 0.90242 0.0
C371 C 0.05293 0.27914 0.90594 0.0
C372 C 0.03308 0.24536 0.90217 0.0
C373 C 0.03052 0.22441 0.91653 0.0
C374 C 1.01036 0.19273 0.91436 0.0
C375 C 0.99179 0.18094 0.89789 0.0
C376 C 0.99515 0.20148 0.88305 0.0
C377 C 0.01557 0.23353 0.88521 0.0
C378 C 0.14572 0.33541 0.86916 0.0
C379 C 0.1544 0.28939 0.9077 0.0
O380 O 0.22982 0.38369 0.90935 0.0
O381 O 0.21391 0.39846 0.93431 0.0
O382 O 0.13349 0.34921 0.92885 0.0
O383 O 0.16051 0.33595 0.94483 0.0
O384 O 0.16995 0.39658 0.90169 0.0
O385 O 0.1168 0.37267 0.90405 0.0
O386 O 0.07499 0.28606 0.91848 0.0
O387 O 0.06153 0.29905 0.89174 0.0
O388 O 0.15726 0.34426 0.88592 0.0
O389 O 0.11573 0.3211 0.86939 0.0
O390 O 0.12673 0.28688 0.90671 0.0
O391 O 0.17982 0.31638 0.90938 0.0
H392 H 0.25827 0.43578 0.88979 0.0
H393 H 0.30366 0.48762 0.88589 0.0
H394 H 0.31695 0.49607 0.94731 0.0
H395 H 0.27202 0.44423 0.95119 0.0
H396 H 0.04356 0.2325 0.92982 0.0
H397 H 1.00869 0.17745 0.92589 0.0
H398 H 0.98106 0.19295 0.87018 0.0
H399 H 0.01705 0.249 0.87388 0.0
Sm400 Sm 0.2325 0.91356 0.63384 0.0
Sm401 Sm 0.20202 0.84802 0.62164 0.0
C402 C 0.24862 0.97306 0.63614 0.0
C403 C 0.23301 0.99171 0.63833 0.0
C404 C 0.21215 0.99099 0.62436 0.0
C405 C 0.20008 0.01106 0.62574 0.0
C406 C 0.20868 0.03236 0.64106 0.0
C407 C 0.22831 0.03196 0.65547 0.0
C408 C 0.24035 0.01191 0.6541 0.0
C409 C 0.21851 0.87543 0.66505 0.0
C410 C 0.15549 0.87272 0.62813 0.0
C411 C 0.18405 0.78852 0.6149 0.0
C412 C 0.19251 0.76392 0.61672 0.0
C413 C 0.20542 0.75959 0.6336 0.0
C414 C 0.21002 0.73399 0.63532 0.0
C415 C 0.20175 0.71213 0.62023 0.0
C416 C 0.18981 0.71734 0.60319 0.0
C417 C 0.18533 0.74285 0.60149 0.0
C418 C 0.22055 0.89098 0.59174 0.0
C419 C 0.27458 0.88172 0.63287 0.0
O420 O 0.24421 0.95799 0.61997 0.0
O421 O 0.24896 0.95722 0.65095 0.0
O422 O 0.20065 0.86982 0.6506 0.0
O423 O 0.24382 0.90186 0.66316 0.0
O424 O 0.18087 0.90032 0.62852 0.0
O425 O 0.15701 0.84719 0.62722 0.0
O426 O 0.17708 0.79849 0.63044 0.0
O427 O 0.19912 0.81048 0.60247 0.0
O428 O 0.23612 0.89253 0.60638 0.0
O429 O 0.1937 0.86583 0.59235 0.0
O430 O 0.24752 0.85653 0.63455 0.0
O431 O 0.27628 0.90875 0.62957 0.0
H432 H 0.20579 0.97556 0.61205 0.0
H433 H 0.18513 0.01085 0.61436 0.0
H434 H 0.23493 0.0477 0.66763 0.0
H435 H 0.25612 0.0128 0.66514 0.0
H436 H 0.21137 0.7756 0.64557 0.0
H437 H 0.21972 0.73115 0.64856 0.0
H438 H 0.18261 0.701 0.59134 0.0
H439 H 0.17524 0.74557 0.58836 0.0
Sm440 Sm 0.66667 0.82548 0.9156 0.0
Sm441 Sm 0.7017 0.79168 0.90364 0.0
C442 C 0.6255 0.84356 0.92266 0.0
C443 C 0.59227 0.83462 0.92147 0.0
C444 C 0.57466 0.82309 0.90449 0.0
C445 C 0.54465 0.81905 0.90331 0.0
C446 C 0.53188 0.82648 0.91907 0.0
C447 C 0.54888 0.83643 0.93626 0.0
C448 C 0.57866 0.84034 0.93746 0.0
C449 C 0.6931 0.80828 0.94487 0.0
C450 C 0.62701 0.75092 0.90557 0.0
C451 C 0.74382 0.77485 0.90898 0.0
C452 C 0.77772 0.78892 0.90584 0.0
C453 C 0.79825 0.8032 0.92134 0.0
C454 C 0.83016 0.81611 0.919 0.0
C455 C 0.84256 0.81496 0.90111 0.0
C456 C 0.82211 0.80108 0.88548 0.0
C457 C 0.79004 0.78821 0.88781 0.0
C458 C 0.68867 0.81074 0.86982 0.0
C459 C 0.73757 0.86952 0.90649 0.0
O460 O 0.64153 0.85001 0.90679 0.0
O461 O 0.63341 0.82933 0.93522 0.0
O462 O 0.67785 0.79213 0.93063 0.0
O463 O 0.6957 0.83557 0.94393 0.0
O464 O 0.62811 0.77791 0.90607 0.0
O465 O 0.65246 0.74865 0.90575 0.0
O466 O 0.73586 0.78835 0.92217 0.0
O467 O 0.72514 0.7656 0.89403 0.0
O468 O 0.68082 0.81598 0.88628 0.0
O469 O 0.70179 0.7939 0.87117 0.0
O470 O 0.73955 0.84395 0.90571 0.0
O471 O 0.71118 0.86902 0.9087 0.0
H472 H 0.58447 0.81834 0.89194 0.0
H473 H 0.53207 0.81163 0.88984 0.0
H474 H 0.53961 0.84254 0.94853 0.0
H475 H 0.59167 0.8492 0.95071 0.0
H476 H 0.78961 0.80406 0.93546 0.0
H477 H 0.84502 0.8261 0.93145 0.0
H478 H 0.83088 0.80005 0.87144 0.0
H479 H 0.77495 0.77753 0.87553 0.0
H480 H 0.05741 0.18253 0.11057 0.0
H481 H 0.09968 0.17177 0.10981 0.0
H482 H 0.10718 0.1798 0.17157 0.0
H483 H 0.0661 0.19334 0.17219 0.0
H484 H 0.16151 0.20818 0.15815 0.0
H485 H 0.07574 0.10658 0.1442 0.0
H486 H 0.02844 0.06801 0.12722 0.0
H487 H 0.07807 0.09009 0.07402 0.0
H488 H 0.12558 0.12897 0.09063 0.0
H489 H 0.26292 0.14566 0.16234 0.0
H490 H 0.21658 0.15095 0.16507 0.0
H491 H 0.21916 0.16703 0.10413 0.0
H492 H 0.26586 0.1622 0.1015 0.0
H493 H 0.15923 0.12397 0.11838 0.0
H494 H 0.24312 0.22714 0.13176 0.0
H495 H 0.29128 0.26462 0.14841 0.0
H496 H 0.24488 0.23787 0.20268 0.0
H497 H 0.1965 0.19996 0.18635 0.0
C498 C 0.06787 0.18201 0.12404 0.0
C499 C 0.05853 0.18927 0.14142 0.0
C500 C 0.09196 0.17538 0.12361 0.0
C501 C 0.10648 0.17433 0.14066 0.0
C502 C 0.09648 0.1805 0.15818 0.0
C503 C 0.07294 0.18815 0.15854 0.0
C504 C 0.13317 0.16862 0.13997 0.0
C505 C 0.16063 0.18932 0.14975 0.0
C506 C 0.13265 0.14454 0.12862 0.0
C507 C 0.10418 0.12082 0.11866 0.0
C508 C 0.07653 0.10329 0.12887 0.0
C509 C 0.04969 0.08136 0.11931 0.0
C510 C 0.05024 0.07664 0.09955 0.0
C511 C 0.07767 0.09376 0.08932 0.0
C512 C 0.10458 0.11569 0.09881 0.0
C513 C 0.25349 0.15035 0.1496 0.0
C514 C 0.2677 0.15369 0.13175 0.0
C515 C 0.22714 0.15337 0.15114 0.0
C516 C 0.21453 0.15945 0.1348 0.0
C517 C 0.22854 0.1623 0.11688 0.0
C518 C 0.25517 0.15971 0.11539 0.0
C519 C 0.18704 0.16342 0.13652 0.0
C520 C 0.15968 0.1425 0.12692 0.0
C521 C 0.18755 0.18714 0.14805 0.0
C522 C 0.21629 0.21058 0.15786 0.0
C523 C 0.24324 0.22918 0.14726 0.0
C524 C 0.27057 0.2505 0.15663 0.0
C525 C 0.27118 0.25356 0.1766 0.0
C526 C 0.24439 0.23544 0.18722 0.0
C527 C 0.21699 0.21408 0.17791 0.0
H528 H 0.29238 0.27001 0.18385 0.0
H529 H 0.02943 0.0597 0.09217 0.0
H530 H 0.16241 0.92419 0.39083 0.0
H531 H 0.10814 0.8839 0.39093 0.0
H532 H 0.08182 0.95235 0.40466 0.0
H533 H 0.13651 0.99248 0.40577 0.0
H534 H 0.04963 0.90645 0.42523 0.0
H535 H 0.06849 0.91206 0.35737 0.0
H536 H 0.09505 0.91237 0.32744 0.0
H537 H 0.08083 0.82184 0.34017 0.0
H538 H 0.05436 0.82108 0.37022 0.0
H539 H 0.88825 0.79483 0.40769 0.0
H540 H 0.94059 0.83996 0.40588 0.0
H541 H 0.97904 0.77922 0.40357 0.0
H542 H 0.9273 0.7343 0.40534 0.0
H543 H 1.00276 0.82333 0.3758 0.0
H544 H 0.98549 0.81933 0.44418 0.0
H545 H 0.9581 0.81902 0.47371 0.0
H546 H 0.96788 0.90708 0.45882 0.0
H547 H 0.99509 0.90778 0.42909 0.0
C548 C 0.14505 0.93078 0.39354 0.0
C549 C 0.15385 0.96167 0.39807 0.0
C550 C 0.11384 0.90765 0.3935 0.0
C551 C 0.09044 0.91489 0.39738 0.0
C552 C 0.0992 0.94593 0.40157 0.0
C553 C 0.13052 0.96897 0.40208 0.0
C554 C 0.05715 0.88987 0.39819 0.0
C555 C 0.0393 0.88871 0.41415 0.0
C556 C 0.04344 0.86608 0.38406 0.0
C557 C 0.05965 0.86663 0.3661 0.0
C558 C 0.07121 0.89232 0.35384 0.0
C559 C 0.08619 0.89254 0.33684 0.0
C560 C 0.08967 0.86717 0.33193 0.0
C561 C 0.07813 0.84148 0.34399 0.0
C562 C 0.06307 0.84111 0.36098 0.0
C563 C 0.90784 0.79107 0.40685 0.0
C564 C 0.90338 0.76081 0.40659 0.0
C565 C 0.93778 0.81692 0.40591 0.0
C566 C 0.96379 0.81299 0.40462 0.0
C567 C 0.95937 0.78286 0.40449 0.0
C568 C 0.92962 0.75713 0.40555 0.0
C569 C 0.99565 0.84001 0.40278 0.0
C570 C 1.01314 0.84142 0.38667 0.0
C571 C 1.00886 0.86411 0.41665 0.0
C572 C 0.99207 0.86348 0.43434 0.0
C573 C 0.98154 0.83849 0.44711 0.0
C574 C 0.96612 0.83827 0.46391 0.0
C575 C 0.96127 0.86301 0.46814 0.0
C576 C 0.97168 0.88795 0.45553 0.0
C577 C 0.98713 0.88829 0.43872 0.0
H578 H 0.94964 0.86294 0.48124 0.0
H579 H 0.10127 0.86739 0.31876 0.0
H580 H 0.92231 0.13613 0.13707 0.0
H581 H 0.91669 0.08455 0.13955 0.0
H582 H 0.82024 0.04305 0.12384 0.0
H583 H 0.82544 0.09436 0.12185 0.0
H584 H 0.82659 0.01531 0.15399 0.0
H585 H 0.87773 0.04652 0.09225 0.0
H586 H 0.91999 0.08206 0.07098 0.0
H587 H 0.98577 0.07182 0.10548 0.0
H588 H 0.94393 0.03633 0.12703 0.0
H589 H 0.78201 0.86133 0.13229 0.0
H590 H 0.79598 0.91588 0.13201 0.0
H591 H 0.89079 0.94263 0.14531 0.0
H592 H 0.8768 0.8876 0.14463 0.0
H593 H 0.89054 0.98004 0.11935 0.0
H594 H 0.84042 0.94732 0.18007 0.0
H595 H 0.79965 0.91438 0.20298 0.0
H596 H 0.73377 0.92966 0.17216 0.0
H597 H 0.77409 0.96251 0.14899 0.0
C598 C 0.89993 0.11603 0.13403 0.0
C599 C 0.87427 0.11942 0.12936 0.0
C600 C 0.8968 0.08652 0.13536 0.0
C601 C 0.86808 0.05982 0.13175 0.0
C602 C 0.84262 0.06325 0.12676 0.0
C603 C 0.84564 0.09266 0.12561 0.0
C604 C 0.86388 0.02819 0.13403 0.0
C605 C 0.84034 1.00751 0.14622 0.0
C606 C 0.8827 0.01836 0.12458 0.0
C607 C 0.90773 0.03897 0.11132 0.0
C608 C 0.90123 0.05192 0.09532 0.0
C609 C 0.9251 0.07202 0.08321 0.0
C610 C 0.95556 0.07923 0.0869 0.0
C611 C 0.96218 0.06619 0.10264 0.0
C612 C 0.93838 0.04603 0.11478 0.0
C613 C 0.80573 0.8789 0.13537 0.0
C614 C 0.82825 0.87045 0.13875 0.0
C615 C 0.81374 0.91009 0.13529 0.0
C616 C 0.84436 0.93355 0.13907 0.0
C617 C 0.86699 0.92505 0.14247 0.0
C618 C 0.85901 0.8937 0.14221 0.0
C619 C 0.85248 0.96679 0.13888 0.0
C620 C 0.87686 0.98785 0.1272 0.0
C621 C 0.83461 0.97718 0.14893 0.0
C622 C 0.81023 0.95722 0.16274 0.0
C623 C 0.81719 0.94349 0.17811 0.0
C624 C 0.79417 0.92488 0.19117 0.0
C625 C 0.76413 0.9199 0.18901 0.0
C626 C 0.75705 0.93355 0.17382 0.0
C627 C 0.77998 0.95221 0.16075 0.0
H628 H 0.74635 0.90549 0.19914 0.0
H629 H 0.97403 0.09488 0.07754 0.0
H630 H 0.23707 0.111 0.42302 0.0
H631 H 0.1913 0.1172 0.42129 0.0
H632 H 0.24082 0.19621 0.38429 0.0
H633 H 0.2869 0.19116 0.38701 0.0
H634 H 0.21238 0.21005 0.40823 0.0
H635 H 0.18105 0.11963 0.36873 0.0
H636 H 0.17014 0.06673 0.3608 0.0
H637 H 0.10287 0.02991 0.40586 0.0
H638 H 0.11365 0.08269 0.41422 0.0
H639 H 0.08949 0.22913 0.37742 0.0
H640 H 0.13014 0.21579 0.37715 0.0
H641 H 0.07817 0.14125 0.41661 0.0
H642 H 0.03577 0.15236 0.4155 0.0
H643 H 0.10687 0.12416 0.39278 0.0
H644 H 0.13923 0.21758 0.43085 0.0
H645 H 0.15048 0.27126 0.43642 0.0
H646 H 0.21731 0.30321 0.39102 0.0
H647 H 0.20616 0.24969 0.38501 0.0
C648 C 0.23801 0.12958 0.41449 0.0
C649 C 0.26548 0.15066 0.40519 0.0
C650 C 0.21181 0.13302 0.41339 0.0
C651 C 0.21231 0.15696 0.40243 0.0
C652 C 0.23974 0.17765 0.39292 0.0
C653 C 0.26609 0.17472 0.39444 0.0
C654 C 0.18489 0.1614 0.40129 0.0
C655 C 0.18942 0.19127 0.40458 0.0
C656 C 0.15464 0.13686 0.39704 0.0
C657 C 0.14833 0.10514 0.39219 0.0
C658 C 0.1641 0.10029 0.37705 0.0
C659 C 0.15792 0.07033 0.37246 0.0
C660 C 0.13582 0.045 0.38281 0.0
C661 C 0.11996 0.04957 0.39784 0.0
C662 C 0.12608 0.0795 0.4025 0.0
C663 C 0.08603 0.20928 0.38564 0.0
C664 C 0.05917 0.19218 0.3967 0.0
C665 C 0.10976 0.20204 0.38575 0.0
C666 C 0.10782 0.17822 0.39741 0.0
C667 C 0.0805 0.16008 0.40772 0.0
C668 C 0.05636 0.16679 0.40725 0.0
C669 C 0.1346 0.1729 0.39933 0.0
C670 C 0.12989 0.14287 0.39639 0.0
C671 C 0.16486 0.19739 0.40362 0.0
C672 C 0.1717 0.2296 0.40741 0.0
C673 C 0.15621 0.23604 0.422 0.0
C674 C 0.16258 0.26644 0.42524 0.0
C675 C 0.18457 0.29062 0.41407 0.0
C676 C 0.20028 0.28447 0.39966 0.0
C677 C 0.19396 0.25412 0.39635 0.0
H678 H 0.18946 0.31413 0.41659 0.0
H679 H 0.13089 0.02182 0.37909 0.0
H680 H 0.162 0.9299 0.12717 0.0
H681 H 0.10733 0.88966 0.12601 0.0
H682 H 0.08236 0.9523 0.15307 0.0
H683 H 0.1374 0.99302 0.15392 0.0
H684 H 0.05123 0.89054 0.16839 0.0
H685 H 0.06939 0.9412 0.10774 0.0
H686 H 0.09708 0.96331 0.0775 0.0
H687 H 0.08224 0.87393 0.06011 0.0
H688 H 0.05484 0.85136 0.0904 0.0
H689 H 0.89001 0.79082 0.14454 0.0
H690 H 0.94167 0.83719 0.14662 0.0
H691 H 0.98165 0.78617 0.12101 0.0
H692 H 0.9305 0.73983 0.1192 0.0
H693 H 1.00317 0.84591 0.10509 0.0
H694 H 0.98955 0.79636 0.1662 0.0
H695 H 0.96134 0.77288 0.19609 0.0
H696 H 0.96748 0.8592 0.21232 0.0
H697 H 0.99537 0.88308 0.18234 0.0
C698 C 0.14483 0.93491 0.13305 0.0
C699 C 0.15373 0.96431 0.14076 0.0
C700 C 0.11365 0.91204 0.13229 0.0
C701 C 0.09078 0.91804 0.13937 0.0
C702 C 0.09967 0.94723 0.14753 0.0
C703 C 0.13097 0.9704 0.14799 0.0
C704 C 0.05765 0.89381 0.13774 0.0
C705 C 0.0405 0.88121 0.15454 0.0
C706 C 0.04387 0.88121 0.11968 0.0
C707 C 0.06028 0.89464 0.10142 0.0
C708 C 0.07226 0.9263 0.09754 0.0
C709 C 0.08786 0.93891 0.08038 0.0
C710 C 0.09148 0.92005 0.06691 0.0
C711 C 0.07944 0.88852 0.07056 0.0
C712 C 0.06384 0.8758 0.08772 0.0
C713 C 0.90983 0.78957 0.13931 0.0
C714 C 0.90623 0.76165 0.13182 0.0
C715 C 0.93927 0.81601 0.14054 0.0
C716 C 0.96544 0.81504 0.134 0.0
C717 C 0.96175 0.7874 0.12611 0.0
C718 C 0.93251 0.7609 0.12519 0.0
C719 C 0.99689 0.84253 0.13571 0.0
C720 C 1.01375 0.8556 0.11892 0.0
C721 C 1.0104 0.85545 0.15375 0.0
C722 C 0.99422 0.8414 0.17194 0.0
C723 C 0.98469 0.81027 0.17608 0.0
C724 C 0.96879 0.79689 0.19304 0.0
C725 C 0.96253 0.81451 0.20607 0.0
C726 C 0.9723 0.84557 0.20219 0.0
C727 C 0.98818 0.85905 0.18523 0.0
H728 H 0.95019 0.8041 0.21918 0.0
H729 H 0.10356 0.92986 0.05363 0.0
H730 H 0.86449 0.88747 0.42249 0.0
H731 H 0.87907 0.94228 0.42269 0.0
H732 H 0.81937 0.92641 0.37396 0.0
H733 H 0.80393 0.87152 0.37396 0.0
H734 H 0.8759 0.98291 0.37198 0.0
H735 H 0.79227 0.92602 0.41585 0.0
H736 H 0.76576 0.89124 0.44296 0.0
H737 H 0.83779 0.9538 0.48133 0.0
H738 H 0.86504 0.98871 0.45435 0.0
H739 H 0.83698 0.10304 0.38437 0.0
H740 H 0.83308 0.05189 0.3823 0.0
H741 H 0.90522 0.08034 0.42497 0.0
H742 H 0.91005 0.13193 0.42655 0.0
H743 H 0.84591 0.01917 0.43038 0.0
H744 H 0.92835 0.07743 0.38648 0.0
H745 H 0.95345 0.11272 0.35938 0.0
H746 H 0.88262 0.04813 0.32112 0.0
H747 H 0.85674 0.01265 0.34811 0.0
C748 C 0.85449 0.89561 0.41178 0.0
C749 C 0.83268 0.87489 0.39837 0.0
C750 C 0.86301 0.92698 0.41184 0.0
C751 C 0.85002 0.93828 0.39847 0.0
C752 C 0.82971 0.91815 0.38438 0.0
C753 C 0.82099 0.88674 0.38438 0.0
C754 C 0.85558 0.97039 0.4001 0.0
C755 C 0.86919 0.99078 0.38469 0.0
C756 C 0.84717 0.98077 0.4168 0.0
C757 C 0.83091 0.95976 0.43304 0.0
C758 C 0.80264 0.93219 0.43003 0.0
C759 C 0.78744 0.91248 0.44538 0.0
C760 C 0.80014 0.92025 0.46385 0.0
C761 C 0.82803 0.94777 0.46701 0.0
C762 C 0.84337 0.96752 0.45169 0.0
C763 C 0.85198 0.09831 0.39328 0.0
C764 C 0.87384 0.12127 0.40559 0.0
C765 C 0.84981 0.06923 0.39204 0.0
C766 C 0.86895 0.06252 0.40344 0.0
C767 C 0.89038 0.08523 0.41602 0.0
C768 C 0.89316 0.1146 0.41687 0.0
C769 C 0.86625 0.03159 0.40232 0.0
C770 C 0.85295 0.01137 0.41778 0.0
C771 C 0.87487 0.02141 0.38567 0.0
C772 C 0.8904 0.04254 0.36936 0.0
C773 C 0.91792 0.07089 0.37233 0.0
C774 C 0.93234 0.0909 0.35698 0.0
C775 C 0.91959 0.08272 0.33855 0.0
C776 C 0.89244 0.05445 0.33542 0.0
C777 C 0.87789 0.03437 0.35074 0.0
H778 H 0.93079 0.09823 0.32667 0.0
H779 H 0.78831 0.90498 0.47572 0.0
H780 H 0.24536 0.09394 0.64868 0.0
H781 H 0.23197 0.1347 0.64734 0.0
H782 H 0.13778 0.06703 0.63244 0.0
H783 H 0.15148 0.02597 0.63321 0.0
H784 H 0.15492 0.11493 0.61107 0.0
H785 H 0.1599 0.10422 0.67897 0.0
H786 H 0.18178 0.10086 0.71007 0.0
H787 H 0.26035 0.1915 0.70173 0.0
H788 H 0.23907 0.1953 0.67052 0.0
H789 H 0.10775 0.22903 0.62666 0.0
H790 H 0.11347 0.18295 0.62853 0.0
H791 H 0.21218 0.24134 0.63551 0.0
H792 H 0.20676 0.28737 0.63371 0.0
H793 H 0.18741 0.19529 0.66211 0.0
H794 H 0.18235 0.20431 0.59338 0.0
H795 H 0.15871 0.20798 0.56308 0.0
H796 H 0.07793 0.11996 0.57404 0.0
H797 H 0.10097 0.11594 0.60452 0.0
C798 C 0.22165 0.08759 0.64541 0.0
C799 C 0.19944 0.05663 0.64125 0.0
C800 C 0.21396 0.11099 0.64469 0.0
C801 C 0.18365 0.10404 0.6402 0.0
C802 C 0.16131 0.07307 0.63603 0.0
C803 C 0.16914 0.04961 0.63649 0.0
C804 C 0.17593 0.12942 0.6391 0.0
C805 C 0.16151 0.13212 0.62243 0.0
C806 C 0.1849 0.15233 0.65371 0.0
C807 C 0.19798 0.14993 0.67235 0.0
C808 C 0.18196 0.12333 0.68371 0.0
C809 C 0.19422 0.12138 0.70137 0.0
C810 C 0.22246 0.14592 0.70785 0.0
C811 C 0.23848 0.1725 0.6967 0.0
C812 C 0.2263 0.17459 0.67904 0.0
C813 C 0.13069 0.23208 0.62854 0.0
C814 C 0.15678 0.26196 0.6301 0.0
C815 C 0.13393 0.2057 0.6295 0.0
C816 C 0.16327 0.20869 0.63209 0.0
C817 C 0.18931 0.23846 0.63354 0.0
C818 C 0.18614 0.26479 0.63247 0.0
C819 C 0.16697 0.18095 0.63403 0.0
C820 C 0.1806 0.17785 0.65087 0.0
C821 C 0.15704 0.15764 0.61967 0.0
C822 C 0.14324 0.15998 0.60132 0.0
C823 C 0.15944 0.18586 0.5894 0.0
C824 C 0.14618 0.18797 0.57218 0.0
C825 C 0.1168 0.16426 0.56667 0.0
C826 C 0.10067 0.13833 0.57834 0.0
C827 C 0.11383 0.13611 0.59558 0.0
H828 H 0.10656 0.16595 0.55334 0.0
H829 H 0.2319 0.14437 0.72154 0.0
H830 H 0.10016 0.82294 0.8924 0.0
H831 H 0.04948 0.81966 0.89074 0.0
H832 H 0.08726 0.90856 0.9191 0.0
H833 H 0.13836 0.91246 0.92031 0.0
H834 H 0.02741 0.85793 0.93402 0.0
H835 H 0.07677 0.91144 0.87696 0.0
H836 H 0.10546 0.92143 0.84663 0.0
H837 H 0.03157 0.8369 0.82274 0.0
H838 H 1.00327 0.82582 0.85308 0.0
H839 H 0.8911 0.86724 0.91731 0.0
H840 H 0.94587 0.88202 0.91773 0.0
H841 H 0.92572 0.80377 0.88125 0.0
H842 H 0.87093 0.78861 0.88095 0.0
H843 H 0.97942 0.85514 0.87101 0.0
H844 H 0.93224 0.80054 0.92968 0.0
H845 H 0.90384 0.79174 0.96007 0.0
H846 H 0.97387 0.88075 0.98115 0.0
H847 H 1.00243 0.8903 0.95074 0.0
C848 C 0.09767 0.84176 0.89832 0.0
C849 C 0.12322 0.86796 0.90648 0.0
C850 C 0.06875 0.83989 0.89732 0.0
C851 C 0.06468 0.86388 0.90479 0.0
C852 C 0.08997 0.88981 0.91328 0.0
C853 C 0.11912 0.89204 0.91388 0.0
C854 C 0.03397 0.86181 0.90345 0.0
C855 C 0.01708 0.85784 0.92028 0.0
C856 C 0.02045 0.8614 0.88552 0.0
C857 C 0.03803 0.8676 0.86739 0.0
C858 C 0.06695 0.89469 0.86535 0.0
C859 C 0.0832 0.90057 0.84812 0.0
C860 C 0.07056 0.87975 0.83275 0.0
C861 C 0.0417 0.85294 0.83462 0.0
C862 C 0.02553 0.8468 0.85186 0.0
C863 C 0.8983 0.85318 0.90934 0.0
C864 C 0.87643 0.82645 0.8993 0.0
C865 C 0.92966 0.86171 0.90958 0.0
C866 C 0.93984 0.84368 0.89982 0.0
C867 C 0.9184 0.81799 0.88895 0.0
C868 C 0.88704 0.80942 0.88872 0.0
C869 C 0.97248 0.85063 0.90156 0.0
C870 C 0.98979 0.8555 0.88478 0.0
C871 C 0.98644 0.85207 0.91958 0.0
C872 C 0.96927 0.84629 0.93785 0.0
C873 C 0.94143 0.81835 0.94073 0.0
C874 C 0.92533 0.81321 0.95797 0.0
C875 C 0.93699 0.83571 0.97251 0.0
C876 C 0.96483 0.86337 0.96986 0.0
C877 C 0.98097 0.86866 0.95263 0.0
H878 H 0.92451 0.83167 0.98586 0.0
H879 H 0.08305 0.88456 0.81938 0.0
H880 H 0.74437 0.92612 0.62097 0.0
H881 H 0.79095 0.97703 0.62238 0.0
H882 H 0.8436 0.93539 0.6426 0.0
H883 H 0.79689 0.88399 0.64111 0.0
H884 H 0.85341 0.98745 0.66411 0.0
H885 H 0.85389 0.96013 0.59823 0.0
H886 H 0.83253 0.94239 0.5657 0.0
H887 H 0.8171 0.01955 0.56011 0.0
H888 H 0.83791 0.0375 0.59273 0.0
H889 H 0.99539 0.13499 0.65534 0.0
H890 H 0.95528 0.07973 0.65499 0.0
H891 H 0.89365 0.10245 0.62461 0.0
H892 H 0.93393 0.15698 0.62434 0.0
H893 H 0.89278 0.05651 0.6077 0.0
H894 H 0.88732 0.08163 0.67407 0.0
H895 H 0.90492 0.09804 0.7074 0.0
H896 H 0.92657 0.02499 0.71287 0.0
H897 H 0.90963 1.00849 0.67947 0.0
C898 C 0.76583 0.92768 0.6257 0.0
C899 C 0.76689 0.90096 0.63098 0.0
C900 C 0.79249 0.95683 0.62639 0.0
C901 C 0.82078 0.95997 0.63246 0.0
C902 C 0.82199 0.93342 0.63782 0.0
C903 C 0.79532 0.9041 0.63691 0.0
C904 C 0.84873 0.99122 0.63371 0.0
C905 C 0.8625 1.00246 0.65174 0.0
C906 C 0.86 0.01089 0.61762 0.0
C907 C 0.84724 1.00001 0.59802 0.0
C908 C 0.84567 0.97315 0.59014 0.0
C909 C 0.83371 0.96309 0.57166 0.0
C910 C 0.8234 0.97979 0.56086 0.0
C911 C 0.82506 1.00661 0.5685 0.0
C912 C 0.83696 0.01676 0.58698 0.0
C913 C 0.9731 0.12799 0.64881 0.0
C914 C 0.96756 0.15 0.63985 0.0
C915 C 0.95018 0.0965 0.64864 0.0
C916 C 0.92127 0.08679 0.63981 0.0
C917 C 0.91572 0.10917 0.63138 0.0
C918 C 0.93865 0.14034 0.6313 0.0
C919 C 0.89709 0.05339 0.6383 0.0
C920 C 0.88404 0.04158 0.62013 0.0
C921 C 0.88628 0.03336 0.65434 0.0
C922 C 0.89769 0.04416 0.67415 0.0
C923 C 0.89629 0.06937 0.68227 0.0
C924 C 0.90605 0.07862 0.70121 0.0
C925 C 0.91698 0.06265 0.71222 0.0
C926 C 0.91822 0.03742 0.70431 0.0
C927 C 0.90859 0.02814 0.68537 0.0
H928 H 0.92439 0.06976 0.7269 0.0
H929 H 0.81419 0.97198 0.54654 0.0
H930 H 0.20724 0.28558 0.90751 0.0
H931 H 0.2117 0.23912 0.90452 0.0
H932 H 0.11223 0.18239 0.9025 0.0
H933 H 0.10741 0.22887 0.90566 0.0
H934 H 0.14018 0.15789 0.92574 0.0
H935 H 0.15122 0.19746 0.86184 0.0
H936 H 0.17326 0.23838 0.83735 0.0
H937 H 0.26378 0.25108 0.84806 0.0
H938 H 0.24236 0.21057 0.87284 0.0
H939 H 0.15025 0.02475 0.89837 0.0
H940 H 0.13626 0.06551 0.89892 0.0
H941 H 0.2324 0.13464 0.89155 0.0
H942 H 0.24616 0.09398 0.8903 0.0
H943 H 0.20027 0.15025 0.87138 0.0
H944 H 0.19101 0.11411 0.93671 0.0
H945 H 0.17072 0.07694 0.96341 0.0
H946 H 0.07889 0.06014 0.95192 0.0
H947 H 0.09855 0.09683 0.92496 0.0
C948 C 0.18624 0.26326 0.90652 0.0
C949 C 0.15696 0.261 0.90669 0.0
C950 C 0.18886 0.23672 0.90475 0.0
C951 C 0.16231 0.20738 0.90302 0.0
C952 C 0.133 0.20486 0.90374 0.0
C953 C 0.13032 0.23147 0.90548 0.0
C954 C 0.16539 0.17951 0.90005 0.0
C955 C 0.15286 0.15585 0.9137 0.0
C956 C 0.18239 0.17727 0.88451 0.0
C957 C 0.1952 0.2011 0.86927 0.0
C958 C 0.17585 0.20908 0.85903 0.0
C959 C 0.18823 0.2322 0.8451 0.0
C960 C 0.2199 0.24734 0.84116 0.0
C961 C 0.23925 0.23933 0.85112 0.0
C962 C 0.227 0.21626 0.86509 0.0
C963 C 0.16828 0.04867 0.89665 0.0
C964 C 0.19931 0.05623 0.89427 0.0
C965 C 0.16032 0.07196 0.89713 0.0
C966 C 0.18334 0.1033 0.8957 0.0
C967 C 0.21416 0.11069 0.89271 0.0
C968 C 0.22204 0.08742 0.89191 0.0
C969 C 0.17576 0.12865 0.89739 0.0
C970 C 0.18734 0.15193 0.88339 0.0
C971 C 0.15809 0.1306 0.91275 0.0
C972 C 0.1462 0.10788 0.92862 0.0
C973 C 0.16644 0.1022 0.93972 0.0
C974 C 0.15506 0.08127 0.95494 0.0
C975 C 0.12353 0.0661 0.95931 0.0
C976 C 0.1033 0.07182 0.94848 0.0
C977 C 0.11454 0.09265 0.93322 0.0
H978 H 0.11478 0.04999 0.97113 0.0
H979 H 0.22945 0.26526 0.83039 0.0
H980 H 0.10395 0.82521 0.64368 0.0
H981 H 0.05283 0.81974 0.64673 0.0
H982 H 0.08541 0.9078 0.6188 0.0
H983 H 0.13752 0.91421 0.61677 0.0
H984 H 0.049 0.90363 0.6461 0.0
H985 H 0.03884 0.83379 0.5952 0.0
H986 H 0.04368 0.79159 0.57987 0.0
H987 H 0.98449 0.72796 0.62264 0.0
H988 H 0.97958 0.76986 0.63836 0.0
H989 H 0.89306 0.87009 0.62493 0.0
H990 H 0.94759 0.88384 0.62467 0.0
H991 H 0.92507 0.80194 0.65731 0.0
H992 H 0.87056 0.78757 0.65714 0.0
H993 H 0.95679 0.80495 0.62597 0.0
H994 H 0.96718 0.87613 0.67658 0.0
H995 H 0.96439 0.91943 0.69199 0.0
H996 H 0.02365 0.98154 0.64865 0.0
H997 H 0.02644 0.93852 0.63281 0.0
C998 C 0.10025 0.84341 0.63813 0.0
C999 C 0.12463 0.86998 0.62976 0.0
C1000 C 0.07088 0.84017 0.63978 0.0
C1001 C 0.06483 0.8629 0.63249 0.0
C1002 C 0.08935 0.8898 0.62441 0.0
C1003 C 0.11909 0.89343 0.6232 0.0
C1004 C 0.03298 0.8585 0.63349 0.0
C1005 C 0.02887 0.88225 0.64139 0.0
C1006 C 1.00653 0.83039 0.62766 0.0
C1007 C 1.00902 0.80503 0.61803 0.0
C1008 C 0.02696 0.81083 0.60138 0.0
C1009 C 0.02971 0.78696 0.59262 0.0
C1010 C 1.01445 0.75713 0.60029 0.0
C1011 C 0.99631 0.75107 0.61671 0.0
C1012 C 0.99349 0.77486 0.62553 0.0
C1013 C 0.89976 0.85512 0.63219 0.0
C1014 C 0.87729 0.82753 0.64092 0.0
C1015 C 0.93103 0.8632 0.63219 0.0
C1016 C 0.9405 0.84394 0.64097 0.0
C1017 C 0.91834 0.81716 0.65042 0.0
C1018 C 0.88714 0.80909 0.65044 0.0
C1019 C 0.97276 0.84989 0.63887 0.0
C1020 C 0.97692 0.82641 0.63062 0.0
C1021 C 0.99916 0.87835 0.64418 0.0
C1022 C 0.99667 0.90399 0.65337 0.0
C1023 C 0.97927 0.89892 0.67019 0.0
C1024 C 0.97779 0.92345 0.67904 0.0
C1025 C 0.99374 0.95319 0.67127 0.0
C1026 C 1.01123 0.95848 0.65463 0.0
C1027 C 1.01277 0.93403 0.64571 0.0
H1028 H 0.99263 0.97215 0.67818 0.0
H1029 H 0.01665 0.73869 0.59351 0.0
H1030 H 0.95094 0.1487 0.92596 0.0
H1031 H 0.9111 0.09427 0.92601 0.0
H1032 H 0.93702 0.08319 0.86869 0.0
H1033 H 0.97704 0.13842 0.86848 0.0
H1034 H 0.87574 0.0547 0.87174 0.0
H1035 H 0.95611 0.05292 0.90853 0.0
H1036 H 0.99607 0.0686 0.93376 0.0
H1037 H 0.92741 0.04735 0.97717 0.0
H1038 H 0.88708 0.03177 0.95219 0.0
H1039 H 0.78569 0.88738 0.88169 0.0
H1040 H 0.83133 0.93949 0.87875 0.0
H1041 H 0.7989 0.97166 0.92612 0.0
H1042 H 0.75277 0.92012 0.92859 0.0
H1043 H 0.86626 0.98679 0.92628 0.0
H1044 H 0.78765 0.99401 0.8894 0.0
H1045 H 0.74682 0.97562 0.86457 0.0
H1046 H 0.81261 0.98525 0.82155 0.0
H1047 H 0.85374 1.00327 0.84623 0.0
C1048 C 0.9484 0.13465 0.91341 0.0
C1049 C 0.96733 0.14775 0.89728 0.0
C1050 C 0.92564 0.10345 0.91348 0.0
C1051 C 0.92147 0.08437 0.89753 0.0
C1052 C 0.93998 0.09743 0.88122 0.0
C1053 C 0.96273 0.12893 0.88107 0.0
C1054 C 0.89697 0.05115 0.89791 0.0
C1055 C 0.87411 0.03972 0.88346 0.0
C1056 C 0.89434 0.03161 0.9134 0.0
C1057 C 0.91862 0.04138 0.92847 0.0
C1058 C 0.94958 0.05183 0.92345 0.0
C1059 C 0.97228 0.06062 0.93771 0.0
C1060 C 0.96429 0.05902 0.95705 0.0
C1061 C 0.93357 0.04858 0.96218 0.0
C1062 C 0.91077 0.0397 0.94798 0.0
C1063 C 0.78852 0.9056 0.89151 0.0
C1064 C 0.76591 0.89995 0.90535 0.0
C1065 C 0.81442 0.93524 0.88979 0.0
C1066 C 0.81834 0.95926 0.90223 0.0
C1067 C 0.79619 0.95336 0.91641 0.0
C1068 C 0.76992 0.92404 0.91777 0.0
C1069 C 0.84526 0.99079 0.90028 0.0
C1070 C 0.86836 1.00179 0.91445 0.0
C1071 C 0.84814 1.00986 0.88458 0.0
C1072 C 0.82365 0.99959 0.86968 0.0
C1073 C 0.79333 0.99193 0.87467 0.0
C1074 C 0.77015 0.98163 0.86062 0.0
C1075 C 0.77708 0.97912 0.8415 0.0
C1076 C 0.80725 0.98709 0.83638 0.0
C1077 C 0.83051 0.99738 0.85039 0.0
H1078 H 0.7591 0.97108 0.83064 0.0
H1079 H 0.9819 0.06582 0.96807 0.0
H1080 H 0.30803 0.10241 0.33791 0.0
H1081 H 0.31719 0.11808 0.30465 0.0
H1082 H 0.38571 0.21069 0.32188 0.0
H1083 H 0.37672 0.19479 0.35604 0.0
H1084 H 0.33732 0.2001 0.2879 0.0
H1085 H 0.41677 0.17577 0.30691 0.0
H1086 H 0.43557 0.14399 0.32276 0.0
H1087 H 0.37346 0.06522 0.28838 0.0
H1088 H 0.35399 0.09638 0.27253 0.0
H1089 H 0.37393 0.19669 0.18284 0.0
H1090 H 0.38125 0.21216 0.21728 0.0
H1091 H 0.32174 0.11675 0.23301 0.0
H1092 H 0.31408 0.10153 0.19965 0.0
H1093 H 0.38073 0.14529 0.25085 0.0
H1094 H 0.29462 0.16116 0.23674 0.0
H1095 H 0.26839 0.18624 0.22117 0.0
H1096 H 0.33464 0.27381 0.24608 0.0
H1097 H 0.36167 0.24933 0.26149 0.0
C1098 C 0.32494 0.12631 0.33486 0.0
C1099 C 0.34188 0.14723 0.34979 0.0
C1100 C 0.33005 0.13523 0.31568 0.0
C1101 C 0.35228 0.16545 0.31063 0.0
C1102 C 0.36839 0.18717 0.32543 0.0
C1103 C 0.36327 0.1781 0.34493 0.0
C1104 C 0.35941 0.17244 0.28977 0.0
C1105 C 0.34779 0.18905 0.27981 0.0
C1106 C 0.37212 0.15719 0.27906 0.0
C1107 C 0.3839 0.13844 0.28856 0.0
C1108 C 0.407 0.15163 0.30282 0.0
C1109 C 0.41779 0.13372 0.31179 0.0
C1110 C 0.40572 0.10261 0.30658 0.0
C1111 C 0.38282 0.08933 0.29239 0.0
C1112 C 0.37195 0.10712 0.28339 0.0
C1113 C 0.36222 0.17922 0.1937 0.0
C1114 C 0.34378 0.14778 0.18835 0.0
C1115 C 0.36639 0.18804 0.21336 0.0
C1116 C 0.35228 0.16551 0.22782 0.0
C1117 C 0.33314 0.13456 0.22227 0.0
C1118 C 0.32884 0.12591 0.20299 0.0
C1119 C 0.35815 0.17244 0.24886 0.0
C1120 C 0.37173 0.15781 0.2589 0.0
C1121 C 0.34649 0.18878 0.25948 0.0
C1122 C 0.33058 0.20355 0.24993 0.0
C1123 C 0.30393 0.18586 0.23863 0.0
C1124 C 0.28883 0.19994 0.2299 0.0
C1125 C 0.29995 0.23164 0.23254 0.0
C1126 C 0.32615 0.24929 0.24396 0.0
C1127 C 0.34139 0.23533 0.25268 0.0
H1128 H 0.28821 0.24249 0.22581 0.0
H1129 H 0.41411 0.08879 0.31353 0.0
H1130 H 0.82192 0.63592 0.3544 0.0
H1131 H 0.82991 0.62829 0.32003 0.0
H1132 H 0.83928 0.71703 0.30685 0.0
H1133 H 0.83274 0.72521 0.34039 0.0
H1134 H 0.78587 0.652 0.28808 0.0
H1135 H 0.89452 0.72773 0.29962 0.0
H1136 H 0.94581 0.74682 0.31448 0.0
H1137 H 0.94948 0.6683 0.29173 0.0
H1138 H 0.89767 0.64827 0.27717 0.0
H1139 H 0.81957 0.72057 0.19894 0.0
H1140 H 0.82576 0.71218 0.23256 0.0
H1141 H 0.83882 0.63547 0.21716 0.0
H1142 H 0.83245 0.64384 0.18279 0.0
H1143 H 0.88038 0.68101 0.24998 0.0
H1144 H 0.7726 0.61396 0.232 0.0
H1145 H 0.72407 0.6035 0.216 0.0
H1146 H 0.72165 0.67431 0.25024 0.0
H1147 H 0.77036 0.68547 0.26626 0.0
C1148 C 0.82693 0.65421 0.34425 0.0
C1149 C 0.82666 0.68118 0.35023 0.0
C1150 C 0.83125 0.64977 0.32458 0.0
C1151 C 0.83528 0.67219 0.31078 0.0
C1152 C 0.83652 0.69952 0.31709 0.0
C1153 C 0.83271 0.70409 0.33642 0.0
C1154 C 0.83437 0.66661 0.28955 0.0
C1155 C 0.80644 0.65772 0.2798 0.0
C1156 C 0.86122 0.67456 0.27857 0.0
C1157 C 0.89183 0.68603 0.2878 0.0
C1158 C 0.90588 0.71411 0.29819 0.0
C1159 C 0.93515 0.72522 0.30646 0.0
C1160 C 0.9508 0.70865 0.30419 0.0
C1161 C 0.93723 0.68098 0.2936 0.0
C1162 C 0.90787 0.6697 0.28539 0.0
C1163 C 0.82413 0.70205 0.20252 0.0
C1164 C 0.82519 0.68268 0.18806 0.0
C1165 C 0.82772 0.69733 0.22188 0.0
C1166 C 0.83239 0.67299 0.22755 0.0
C1167 C 0.8352 0.65443 0.21317 0.0
C1168 C 0.83161 0.65923 0.19352 0.0
C1169 C 0.83183 0.66634 0.24859 0.0
C1170 C 0.85948 0.67367 0.25827 0.0
C1171 C 0.80487 0.65777 0.2596 0.0
C1172 C 0.77514 0.65054 0.25032 0.0
C1173 C 0.76176 0.62736 0.23607 0.0
C1174 C 0.73422 0.62131 0.227 0.0
C1175 C 0.71979 0.63822 0.2321 0.0
C1176 C 0.73282 0.66118 0.24632 0.0
C1177 C 0.76036 0.66733 0.25544 0.0
H1178 H 0.69849 0.63354 0.22505 0.0
H1179 H 0.97353 0.71736 0.31052 0.0
H1180 H 0.88261 0.24834 0.19104 0.0
H1181 H 0.87284 0.24292 0.2256 0.0
H1182 H 0.84661 0.14634 0.22169 0.0
H1183 H 0.85638 0.15187 0.18689 0.0
H1184 H 0.81209 0.15675 0.24967 0.0
H1185 H 0.91806 0.19646 0.23382 0.0
H1186 H 0.96844 0.23062 0.2187 0.0
H1187 H 0.97404 0.30937 0.24813 0.0
H1188 H 0.92341 0.27574 0.26318 0.0
H1189 H 0.85611 0.15356 0.34992 0.0
H1190 H 0.84503 0.14715 0.31518 0.0
H1191 H 0.8741 0.24437 0.3112 0.0
H1192 H 0.88528 0.25065 0.34566 0.0
H1193 H 0.90585 0.22886 0.28701 0.0
H1194 H 0.79826 0.18703 0.30304 0.0
H1195 H 0.7487 0.15105 0.31843 0.0
H1196 H 0.74759 0.07406 0.28946 0.0
H1197 H 0.79739 0.10955 0.27409 0.0
C1198 C 0.87339 0.22561 0.19741 0.0
C1199 C 0.86948 0.20035 0.18618 0.0
C1200 C 0.86823 0.22261 0.21724 0.0
C1201 C 0.85944 0.19433 0.22643 0.0
C1202 C 0.85333 0.1684 0.21501 0.0
C1203 C 0.85858 0.17146 0.19507 0.0
C1204 C 0.8597 0.19298 0.24793 0.0
C1205 C 0.83269 0.17228 0.25784 0.0
C1206 C 0.88652 0.2132 0.25875 0.0
C1207 C 0.91673 0.23361 0.24945 0.0
C1208 C 0.92985 0.22111 0.2369 0.0
C1209 C 0.9585 0.24037 0.22837 0.0
C1210 C 0.97439 0.27216 0.23241 0.0
C1211 C 0.96167 0.28475 0.24498 0.0
C1212 C 0.93299 0.2656 0.25351 0.0
C1213 C 0.85878 0.17317 0.34171 0.0
C1214 C 0.87088 0.20248 0.35054 0.0
C1215 C 0.85267 0.16958 0.32181 0.0
C1216 C 0.85877 0.1953 0.31041 0.0
C1217 C 0.8692 0.22414 0.31955 0.0
C1218 C 0.87527 0.22768 0.33932 0.0
C1219 C 0.85793 0.19345 0.28887 0.0
C1220 C 0.88513 0.21339 0.27891 0.0
C1221 C 0.83142 0.1723 0.27814 0.0
C1222 C 0.80174 0.15092 0.28759 0.0
C1223 C 0.78763 0.16239 0.30012 0.0
C1224 C 0.75945 0.1421 0.3088 0.0
C1225 C 0.74505 0.11028 0.30498 0.0
C1226 C 0.75879 0.0987 0.29244 0.0
C1227 C 0.78699 0.1189 0.28373 0.0
H1228 H 0.7232 0.09462 0.31169 0.0
H1229 H 0.9966 0.28702 0.22583 0.0
H1230 H 0.17576 0.39132 0.68799 0.0
H1231 H 0.18648 0.39573 0.72269 0.0
H1232 H 0.15645 0.29809 0.7245 0.0
H1233 H 0.14501 0.29371 0.69011 0.0
H1234 H 0.12639 0.31047 0.74993 0.0
H1235 H 0.23458 0.35839 0.73363 0.0
H1236 H 0.28304 0.39676 0.7181 0.0
H1237 H 0.27885 0.47063 0.74758 0.0
H1238 H 0.23017 0.4327 0.76313 0.0
H1239 H 0.14957 0.29349 0.84642 0.0
H1240 H 0.15969 0.2982 0.8119 0.0
H1241 H 0.18493 0.39461 0.81478 0.0
H1242 H 0.17545 0.38995 0.84957 0.0
H1243 H 0.21863 0.38578 0.78725 0.0
H1244 H 0.11152 0.33932 0.80334 0.0
H1245 H 0.06234 0.30219 0.8187 0.0
H1246 H 0.06316 0.2268 0.78889 0.0
H1247 H 0.11262 0.26344 0.77359 0.0
C1248 C 0.17281 0.37118 0.6957 0.0
C1249 C 0.16027 0.34231 0.68628 0.0
C1250 C 0.17872 0.37362 0.71561 0.0
C1251 C 0.1723 0.34722 0.72644 0.0
C1252 C 0.16156 0.31883 0.71666 0.0
C1253 C 0.15541 0.31638 0.6969 0.0
C1254 C 0.17341 0.34806 0.74801 0.0
C1255 C 0.14685 0.32661 0.758 0.0
C1256 C 0.19948 0.36993 0.7588 0.0
C1257 C 0.22859 0.39274 0.74939 0.0
C1258 C 0.24386 0.38283 0.73667 0.0
C1259 C 0.2714 0.4045 0.7279 0.0
C1260 C 0.28397 0.43611 0.73181 0.0
C1261 C 0.26906 0.44613 0.74454 0.0
C1262 C 0.24153 0.42457 0.75336 0.0
C1263 C 0.15869 0.31605 0.83983 0.0
C1264 C 0.16243 0.34153 0.85075 0.0
C1265 C 0.164 0.31863 0.82001 0.0
C1266 C 0.17239 0.34659 0.81052 0.0
C1267 C 0.17842 0.37276 0.82166 0.0
C1268 C 0.17333 0.3702 0.84161 0.0
C1269 C 0.17198 0.34753 0.789 0.0
C1270 C 0.19836 0.36947 0.77909 0.0
C1271 C 0.14563 0.32625 0.77818 0.0
C1272 C 0.11597 0.30411 0.78748 0.0
C1273 C 0.10137 0.3148 0.8002 0.0
C1274 C 0.07341 0.29384 0.80887 0.0
C1275 C 0.05968 0.26215 0.80481 0.0
C1276 C 0.07385 0.25135 0.79205 0.0
C1277 C 0.10185 0.2722 0.78338 0.0
H1278 H 0.03801 0.24597 0.81152 0.0
H1279 H 0.3053 0.45285 0.72501 0.0
H1280 H 0.18946 0.90492 0.84086 0.0
H1281 H 0.18337 0.89292 0.80677 0.0
H1282 H 0.2029 0.81872 0.81627 0.0
H1283 H 0.20966 0.83139 0.85094 0.0
H1284 H 0.23635 0.85273 0.78723 0.0
H1285 H 0.12726 0.80472 0.79976 0.0
H1286 H 0.0762 0.79668 0.80956 0.0
H1287 H 0.09245 0.87743 0.77821 0.0
H1288 H 0.14365 0.88613 0.76837 0.0
H1289 H 0.21911 0.82845 0.68497 0.0
H1290 H 0.21099 0.81895 0.7197 0.0
H1291 H 0.18885 0.89229 0.72448 0.0
H1292 H 0.19583 0.90079 0.68989 0.0
H1293 H 0.15269 0.84851 0.74646 0.0
H1294 H 0.26312 0.89992 0.73604 0.0
H1295 H 0.31095 0.90523 0.72205 0.0
H1296 H 0.29266 0.81986 0.74825 0.0
H1297 H 0.24449 0.81386 0.7622 0.0
C1298 C 0.19161 0.88543 0.83582 0.0
C1299 C 0.19969 0.86889 0.84867 0.0
C1300 C 0.18799 0.87847 0.81621 0.0
C1301 C 0.19223 0.85459 0.8087 0.0
C1302 C 0.19927 0.83715 0.82162 0.0
C1303 C 0.20276 0.84409 0.84148 0.0
C1304 C 0.19187 0.85016 0.7873 0.0
C1305 C 0.21767 0.85111 0.77837 0.0
C1306 C 0.16812 0.84894 0.77543 0.0
C1307 C 0.1392 0.84599 0.7833 0.0
C1308 C 0.12015 0.82105 0.79524 0.0
C1309 C 0.09113 0.81629 0.80071 0.0
C1310 C 0.08101 0.83631 0.79429 0.0
C1311 C 0.10024 0.86178 0.78299 0.0
C1312 C 0.12923 0.86664 0.77748 0.0
C1313 C 0.21155 0.84177 0.69344 0.0
C1314 C 0.20735 0.86482 0.68474 0.0
C1315 C 0.20745 0.83675 0.71334 0.0
C1316 C 0.19982 0.85525 0.72497 0.0
C1317 C 0.19467 0.87759 0.71601 0.0
C1318 C 0.19844 0.88233 0.69618 0.0
C1319 C 0.19744 0.85205 0.74642 0.0
C1320 C 0.17119 0.84975 0.75534 0.0
C1321 C 0.22096 0.85248 0.75819 0.0
C1322 C 0.25005 0.85626 0.74998 0.0
C1323 C 0.26921 0.88219 0.73872 0.0
C1324 C 0.29639 0.88533 0.7308 0.0
C1325 C 0.30479 0.86284 0.7342 0.0
C1326 C 0.28609 0.83723 0.74559 0.0
C1327 C 0.25886 0.83395 0.75351 0.0
H1328 H 0.32583 0.8653 0.72806 0.0
H1329 H 0.05814 0.83194 0.7979 0.0
H1330 H 0.66384 0.76939 0.69513 0.0
H1331 H 0.65862 0.77695 0.72906 0.0
H1332 H 0.69206 0.87411 0.7194 0.0
H1333 H 0.69822 0.86649 0.68488 0.0
H1334 H 0.7206 0.8663 0.75032 0.0
H1335 H 0.6129 0.82099 0.73202 0.0
H1336 H 0.56458 0.78222 0.71603 0.0
H1337 H 0.56494 0.70972 0.74897 0.0
H1338 H 0.61333 0.74797 0.76503 0.0
H1339 H 0.70109 0.8666 0.8535 0.0
H1340 H 0.69637 0.87532 0.81906 0.0
H1341 H 0.65469 0.77693 0.80841 0.0
H1342 H 0.65861 0.76845 0.84233 0.0
H1343 H 0.62693 0.79575 0.78732 0.0
H1344 H 0.73574 0.83499 0.80123 0.0
H1345 H 0.78625 0.86972 0.81653 0.0
H1346 H 0.78668 0.94873 0.7917 0.0
H1347 H 0.73595 0.91449 0.77649 0.0
C1348 C 0.66931 0.79227 0.70008 0.0
C1349 C 0.68086 0.81719 0.68722 0.0
C1350 C 0.66626 0.7966 0.7196 0.0
C1351 C 0.67438 0.82602 0.72702 0.0
C1352 C 0.68531 0.85107 0.71412 0.0
C1353 C 0.68841 0.84667 0.69434 0.0
C1354 C 0.67289 0.83017 0.74835 0.0
C1355 C 0.69987 0.85139 0.75839 0.0
C1356 C 0.64619 0.81028 0.75912 0.0
C1357 C 0.61674 0.78737 0.74971 0.0
C1358 C 0.60268 0.79677 0.73582 0.0
C1359 C 0.57528 0.77488 0.72675 0.0
C1360 C 0.5617 0.74354 0.73148 0.0
C1361 C 0.57544 0.73401 0.74534 0.0
C1362 C 0.60279 0.75579 0.75447 0.0
C1363 C 0.68992 0.84687 0.84382 0.0
C1364 C 0.67967 0.81675 0.85066 0.0
C1365 C 0.68774 0.85187 0.82405 0.0
C1366 C 0.67553 0.82684 0.81082 0.0
C1367 C 0.66413 0.79677 0.81804 0.0
C1368 C 0.66626 0.79187 0.83756 0.0
C1369 C 0.67497 0.83097 0.78943 0.0
C1370 C 0.64753 0.81126 0.77932 0.0
C1371 C 0.70147 0.85168 0.77869 0.0
C1372 C 0.73181 0.87223 0.78799 0.0
C1373 C 0.74646 0.8598 0.7992 0.0
C1374 C 0.77516 0.87939 0.80783 0.0
C1375 C 0.78959 0.91143 0.80518 0.0
C1376 C 0.77541 0.92393 0.79383 0.0
C1377 C 0.74668 0.90444 0.78521 0.0
H1378 H 0.81181 0.92656 0.81186 0.0
H1379 H 0.54053 0.72663 0.72441 0.0
H1380 H 0.26375 0.9505 0.94106 0.0
H1381 H 0.27414 0.99122 0.96354 0.0
H1382 H 0.22891 0.92236 1.00776 0.0
H1383 H 0.2075 0.8824 0.98277 0.0
H1384 H 0.22739 0.96103 0.0224 0.0
H1385 H 0.32662 0.9867 0.99071 0.0
H1386 H 0.3598 0.99874 0.96207 0.0
H1387 H 0.34531 0.07479 0.94886 0.0
H1388 H 0.31194 0.06308 0.97727 0.0
H1389 H 0.33503 0.07309 0.09255 0.0
H1390 H 0.31116 0.0318 0.06832 0.0
H1391 H 0.29068 0.09048 0.03332 0.0
H1392 H 0.31312 0.13149 0.05812 0.0
H1393 H 0.32531 0.06049 1.01548 0.0
H1394 H 0.2316 0.03577 0.05059 0.0
H1395 H 0.1964 0.02061 0.07834 0.0
H1396 H 0.2065 0.94075 0.08711 0.0
H1397 H 0.24191 0.95553 0.05951 0.0
C1398 C 0.25388 0.94421 0.95521 0.0
C1399 C 0.23262 0.91329 0.95954 0.0
C1400 C 0.26209 0.96786 0.96883 0.0
C1401 C 0.25476 0.96126 0.98843 0.0
C1402 C 0.2352 0.92953 0.99306 0.0
C1403 C 0.22321 0.90618 0.97872 0.0
C1404 C 0.26687 0.98678 1.00386 0.0
C1405 C 0.2494 0.98211 0.02076 0.0
C1406 C 0.2951 0.01587 1.00232 0.0
C1407 C 0.31671 0.0239 0.98602 0.0
C1408 C 0.33074 1.00611 0.98175 0.0
C1409 C 0.34945 0.0128 0.96552 0.0
C1410 C 0.3546 0.03747 0.95365 0.0
C1411 C 0.34131 0.0557 0.95806 0.0
C1412 C 0.32257 0.0491 0.97423 0.0
C1413 C 0.32504 0.07714 0.07984 0.0
C1414 C 0.32567 0.10557 0.07744 0.0
C1415 C 0.31132 0.0534 0.06599 0.0
C1416 C 0.29874 0.05777 0.04905 0.0
C1417 C 0.29987 0.08636 0.04638 0.0
C1418 C 0.3128 0.10984 0.06053 0.0
C1419 C 0.28649 0.03335 0.03362 0.0
C1420 C 0.30387 0.0386 1.01689 0.0
C1421 C 0.25908 1.00447 0.03567 0.0
C1422 C 0.23958 0.99689 0.05306 0.0
C1423 C 0.2267 0.01525 0.05862 0.0
C1424 C 0.20656 1.00661 0.07425 0.0
C1425 C 0.19914 0.97967 0.08442 0.0
C1426 C 0.2122 0.96155 0.07918 0.0
C1427 C 0.23226 0.97003 0.06354 0.0
H1428 H 0.18313 0.97268 0.09627 0.0
H1429 H 0.36892 0.04247 0.94103 0.0
H1430 H 0.81712 0.74029 0.44617 0.0
H1431 H 0.79697 0.76228 0.4697 0.0
H1432 H 0.76955 0.6825 0.50572 0.0
H1433 H 0.78616 0.65895 0.48078 0.0
H1434 H 0.72701 0.69431 0.508 0.0
H1435 H 0.83843 0.76634 0.51223 0.0
H1436 H 0.88946 0.80439 0.49921 0.0
H1437 H 0.85257 0.86169 0.4806 0.0
H1438 H 0.80134 0.82391 0.49334 0.0
H1439 H 0.69222 0.75176 0.59159 0.0
H1440 H 0.71534 0.73355 0.56774 0.0
H1441 H 0.7414 0.81532 0.53399 0.0
H1442 H 0.72062 0.8349 0.55893 0.0
H1443 H 0.78438 0.80392 0.52974 0.0
H1444 H 0.67516 0.73529 0.52381 0.0
H1445 H 0.62207 0.69793 0.53412 0.0
H1446 H 0.65247 0.63543 0.55306 0.0
H1447 H 0.70581 0.67256 0.54309 0.0
C1448 C 0.80546 0.72686 0.45869 0.0
C1449 C 0.80159 0.69706 0.46098 0.0
C1450 C 0.79496 0.74003 0.47265 0.0
C1451 C 0.78174 0.72452 0.48997 0.0
C1452 C 0.77928 0.69521 0.4926 0.0
C1453 C 0.78903 0.68172 0.47835 0.0
C1454 C 0.76931 0.73782 0.50494 0.0
C1455 C 0.74003 0.71818 0.51294 0.0
C1456 C 0.7851 0.76943 0.51106 0.0
C1457 C 0.81602 0.79218 0.50361 0.0
C1458 C 0.84121 0.787 0.50529 0.0
C1459 C 0.87015 0.80853 0.49797 0.0
C1460 C 0.8742 0.83539 0.48906 0.0
C1461 C 0.84938 0.84086 0.4875 0.0
C1462 C 0.82042 0.81943 0.49479 0.0
C1463 C 0.70309 0.76606 0.57917 0.0
C1464 C 0.70469 0.795 0.57736 0.0
C1465 C 0.71603 0.75535 0.56526 0.0
C1466 C 0.72968 0.77241 0.54847 0.0
C1467 C 0.73114 0.80137 0.54662 0.0
C1468 C 0.719 0.81256 0.56089 0.0
C1469 C 0.7424 0.76015 0.53304 0.0
C1470 C 0.77155 0.77998 0.5249 0.0
C1471 C 0.72634 0.72883 0.52653 0.0
C1472 C 0.69446 0.70676 0.53282 0.0
C1473 C 0.67054 0.71367 0.5303 0.0
C1474 C 0.64044 0.69255 0.53606 0.0
C1475 C 0.63398 0.66437 0.54421 0.0
C1476 C 0.65757 0.65728 0.54673 0.0
C1477 C 0.68772 0.67833 0.54102 0.0
H1478 H 0.61067 0.64797 0.54846 0.0
H1479 H 0.89655 0.85202 0.48337 0.0
H1480 H 0.07396 0.32129 0.94085 0.0
H1481 H 0.03268 0.29215 0.9629 0.0
H1482 H 0.10052 0.30927 1.00724 0.0
H1483 H 0.14043 0.32747 0.98265 0.0
H1484 H 0.06057 0.26891 0.02062 0.0
H1485 H 0.04151 0.34935 0.99247 0.0
H1486 H 0.03156 0.37452 0.96504 0.0
H1487 H 0.95184 0.28788 0.94909 0.0
H1488 H 0.96141 0.26225 0.97632 0.0
H1489 H 0.95393 0.26768 0.09307 0.0
H1490 H 0.9938 0.28588 0.06813 0.0
H1491 H 0.93263 0.209 0.03183 0.0
H1492 H 0.89324 0.18964 0.0572 0.0
H1493 H 0.96515 0.27594 1.01531 0.0
H1494 H 0.98419 0.20077 0.04841 0.0
H1495 H 0.99552 0.18017 0.07758 0.0
H1496 H 0.07865 0.26729 0.08698 0.0
H1497 H 0.06761 0.28859 0.05808 0.0
C1498 C 0.07981 0.3167 0.95491 0.0
C1499 C 0.11034 0.32463 0.95938 0.0
C1500 C 0.05597 0.3018 0.96828 0.0
C1501 C 0.06226 0.29948 0.98779 0.0
C1502 C 0.09364 0.30972 0.99257 0.0
C1503 C 0.11698 0.32086 0.97846 0.0
C1504 C 0.03678 0.28639 1.00302 0.0
C1505 C 0.04039 0.27161 0.01931 0.0
C1506 C 1.00886 0.28799 1.00194 0.0
C1507 C 1.00228 0.30393 0.98633 0.0
C1508 C 0.02177 0.33579 0.98317 0.0
C1509 C 0.01625 0.35008 0.96762 0.0
C1510 C 0.99112 0.33279 0.95532 0.0
C1511 C 0.97128 0.30124 0.95862 0.0
C1512 C 0.97668 0.28685 0.97412 0.0
C1513 C 0.94908 0.2543 0.07992 0.0
C1514 C 0.92047 0.22682 0.07734 0.0
C1515 C 0.97192 0.26487 0.0656 0.0
C1516 C 0.9664 0.2488 0.04806 0.0
C1517 C 0.93758 0.22176 0.04524 0.0
C1518 C 0.91505 0.21069 0.05978 0.0
C1519 C 0.99046 0.26057 0.03258 0.0
C1520 C 0.98614 0.27451 1.01637 0.0
C1521 C 0.01817 0.25947 0.0341 0.0
C1522 C 0.02491 0.24634 0.05122 0.0
C1523 C 1.00474 0.21559 0.05679 0.0
C1524 C 1.01114 0.20379 0.07324 0.0
C1525 C 0.03773 0.22252 0.08408 0.0
C1526 C 0.05807 0.25292 0.07852 0.0
C1527 C 0.05176 0.26484 0.06213 0.0
H1528 H 0.04266 0.21361 0.09682 0.0
H1529 H 0.98701 0.34386 0.94323 0.0
H1530 H 0.31586 0.13363 0.48002 0.0
H1531 H 0.29494 0.09296 0.50474 0.0
H1532 H 0.31496 0.03463 0.46868 0.0
H1533 H 0.33815 0.07585 0.44487 0.0
H1534 H 0.24361 0.01968 0.49584 0.0
H1535 H 0.35204 0.03444 0.48979 0.0
H1536 H 0.40856 0.0695 0.49027 0.0
H1537 H 0.40183 0.10663 0.54471 0.0
H1538 H 0.34503 0.07259 0.5441 0.0
H1539 H 0.19682 0.88633 0.55522 0.0
H1540 H 0.21646 0.92523 0.52986 0.0
H1541 H 0.28776 0.98985 0.56848 0.0
H1542 H 0.27126 0.9493 0.59234 0.0
H1543 H 0.31309 1.00355 0.53929 0.0
H1544 H 0.20892 0.9857 0.55003 0.0
H1545 H 0.15195 0.95408 0.55165 0.0
H1546 H 0.14843 0.92656 0.49273 0.0
H1547 H 0.20535 0.95776 0.49083 0.0
C1548 C 0.31607 0.11225 0.47745 0.0
C1549 C 0.32856 0.10809 0.46028 0.0
C1550 C 0.304 0.08892 0.4916 0.0
C1551 C 0.30365 0.06066 0.48881 0.0
C1552 C 0.31556 0.05634 0.47153 0.0
C1553 C 0.32856 0.07995 0.45776 0.0
C1554 C 0.29089 0.0356 0.50376 0.0
C1555 C 0.25872 0.01602 0.50536 0.0
C1556 C 0.31032 0.03094 0.5165 0.0
C1557 C 0.34427 0.0517 0.51659 0.0
C1558 C 0.36251 0.05065 0.50159 0.0
C1559 C 0.39462 0.07023 0.50194 0.0
C1560 C 0.40877 0.09048 0.51743 0.0
C1561 C 0.39082 0.09115 0.53263 0.0
C1562 C 0.35867 0.07184 0.53224 0.0
C1563 C 0.21677 0.90885 0.55822 0.0
C1564 C 0.23183 0.91484 0.57615 0.0
C1565 C 0.22781 0.93156 0.54372 0.0
C1566 C 0.25319 0.96168 0.54705 0.0
C1567 C 0.26816 0.96731 0.56507 0.0
C1568 C 0.25824 0.9441 0.57907 0.0
C1569 C 0.26515 0.987 0.53188 0.0
C1570 C 0.29743 1.00689 0.53011 0.0
C1571 C 0.24561 0.99217 0.51925 0.0
C1572 C 0.21138 0.97386 0.52035 0.0
C1573 C 0.19597 0.97284 0.53745 0.0
C1574 C 0.1637 0.95498 0.53841 0.0
C1575 C 0.14659 0.93827 0.52232 0.0
C1576 C 0.1617 0.93948 0.50519 0.0
C1577 C 0.19395 0.95727 0.50416 0.0
H1578 H 0.12162 0.92442 0.5231 0.0
H1579 H 0.43364 0.10548 0.51773 0.0
H1580 H 0.75614 0.66144 0.07541 0.0
H1581 H 0.73806 0.68296 0.05009 0.0
H1582 H 0.82746 0.76593 0.04958 0.0
H1583 H 0.84608 0.74377 0.0743 0.0
H1584 H 0.77188 0.77478 0.05123 0.0
H1585 H 0.81495 0.72359 1.01423 0.0
H1586 H 0.82184 0.67996 1.00384 0.0
H1587 H 0.72545 0.62695 0.98882 0.0
H1588 H 0.71788 0.67013 0.99941 0.0
H1589 H 0.74124 0.84307 0.9699 0.0
H1590 H 0.76392 0.82469 0.99413 0.0
H1591 H 0.69663 0.73004 0.97954 0.0
H1592 H 0.6757 0.74855 0.95439 0.0
H1593 H 0.74368 0.7284 0.986 0.0
H1594 H 0.69836 0.77673 0.0239 0.0
H1595 H 0.68951 0.81894 0.03485 0.0
H1596 H 0.78584 0.87487 0.0494 0.0
H1597 H 0.79533 0.83314 0.03833 0.0
C1598 C 0.77204 0.68418 0.0698 0.0
C1599 C 0.80267 0.70073 0.07678 0.0
C1600 C 0.76165 0.6965 0.0553 0.0
C1601 C 0.78131 0.72616 0.04777 0.0
C1602 C 0.81179 0.743 0.05501 0.0
C1603 C 0.82249 0.73024 0.06909 0.0
C1604 C 0.76994 0.73944 0.03246 0.0
C1605 C 0.76603 0.76488 0.03688 0.0
C1606 C 0.76143 0.72618 1.01383 0.0
C1607 C 0.76577 0.69995 1.00785 0.0
C1608 C 0.79513 0.70248 1.00895 0.0
C1609 C 0.79919 0.67787 1.00297 0.0
C1610 C 0.77408 0.65066 0.99574 0.0
C1611 C 0.74486 0.64801 0.99447 0.0
C1612 C 0.74068 0.67255 1.00046 0.0
C1613 C 0.73127 0.81834 0.97192 0.0
C1614 C 0.70647 0.79734 0.96024 0.0
C1615 C 0.7441 0.8077 0.986 0.0
C1616 C 0.73177 0.77569 0.98937 0.0
C1617 C 0.70692 0.75481 0.97756 0.0
C1618 C 0.69472 0.76543 0.96315 0.0
C1619 C 0.74489 0.76373 1.00469 0.0
C1620 C 0.74924 0.73843 1.00032 0.0
C1621 C 0.75327 0.77683 0.0235 0.0
C1622 C 0.7476 0.80195 0.0301 0.0
C1623 C 0.71768 0.79812 0.02932 0.0
C1624 C 0.71255 0.82194 0.03556 0.0
C1625 C 0.73711 0.8496 0.04276 0.0
C1626 C 0.76685 0.85346 0.04378 0.0
C1627 C 0.77211 0.82973 0.03754 0.0
H1628 H 0.73309 0.86801 0.0476 0.0
H1629 H 0.77728 0.63166 0.99106 0.0
H1630 H 0.09248 0.35208 0.58357 0.0
H1631 H 0.053 0.33128 0.55838 0.0
H1632 H 0.0804 0.26412 0.54333 0.0
H1633 H 0.12165 0.28674 0.56768 0.0
H1634 H 0.06784 0.27997 0.51255 0.0
H1635 H 1.00831 0.24822 0.57066 0.0
H1636 H 0.99154 0.25554 0.60267 0.0
H1637 H 0.96523 0.31852 0.57907 0.0
H1638 H 0.98164 0.31157 0.54691 0.0
H1639 H 0.92165 0.18301 0.46107 0.0
H1640 H 0.96309 0.20212 0.48557 0.0
H1641 H 0.9663 0.29029 0.48666 0.0
H1642 H 0.92616 0.27182 0.46156 0.0
H1643 H 0.96177 0.26095 0.52458 0.0
H1644 H 0.0217 0.29172 0.46661 0.0
H1645 H 0.04348 0.28826 0.43556 0.0
H1646 H 0.06972 0.22552 0.4598 0.0
H1647 H 0.04769 0.22824 0.49097 0.0
C1648 C 0.0901 0.33288 0.57487 0.0
C1649 C 0.11021 0.32104 0.5777 0.0
C1650 C 0.06712 0.32063 0.56053 0.0
C1651 C 0.0626 0.29524 0.54905 0.0
C1652 C 0.08293 0.28352 0.55187 0.0
C1653 C 0.10658 0.29642 0.56587 0.0
C1654 C 0.0374 0.28155 0.53388 0.0
C1655 C 0.04449 0.27519 0.51543 0.0
C1656 C 1.0068 0.27578 0.53714 0.0
C1657 C 0.99642 0.27955 0.55641 0.0
C1658 C 0.99904 0.26371 0.57231 0.0
C1659 C 0.98963 0.26779 0.59047 0.0
C1660 C 0.97758 0.28761 0.59291 0.0
C1661 C 0.97463 0.30321 0.57716 0.0
C1662 C 0.98385 0.29912 0.55895 0.0
C1663 C 0.93122 0.20644 0.46658 0.0
C1664 C 0.92049 0.22585 0.45949 0.0
C1665 C 0.95502 0.21742 0.4805 0.0
C1666 C 0.96794 0.24772 0.48805 0.0
C1667 C 0.95686 0.26689 0.48111 0.0
C1668 C 0.93387 0.2563 0.46676 0.0
C1669 C 0.99236 0.25928 0.50348 0.0
C1670 C 0.98503 0.26525 0.52192 0.0
C1671 C 0.02255 0.2642 0.50029 0.0
C1672 C 0.03279 0.25998 0.48109 0.0
C1673 C 0.03156 0.27671 0.46524 0.0
C1674 C 0.04424 0.27513 0.44767 0.0
C1675 C 0.05836 0.25705 0.44581 0.0
C1676 C 0.05906 0.23978 0.46134 0.0
C1677 C 0.04643 0.24129 0.47894 0.0
H1678 H 0.06859 0.25625 0.43228 0.0
H1679 H 0.97042 0.29079 0.607 0.0
H1680 H 0.68256 0.20709 0.09257 0.0
H1681 H 0.6312 0.20094 0.09493 0.0
H1682 H 0.62883 0.18031 0.15517 0.0
H1683 H 0.67853 0.18281 0.15245 0.0
H1684 H 0.57935 0.1405 0.142 0.0
H1685 H 0.63296 0.25056 0.13337 0.0
H1686 H 0.66631 0.30141 0.1185 0.0
H1687 H 0.60937 0.27177 0.06779 0.0
H1688 H 0.57596 0.22057 0.0822 0.0
H1689 H 0.44131 0.14523 0.16284 0.0
H1690 H 0.49593 0.15911 0.16037 0.0
H1691 H 0.48639 0.14825 0.09884 0.0
H1692 H 0.43156 0.13376 0.1014 0.0
H1693 H 0.54072 0.20512 0.11222 0.0
H1694 H 0.48992 0.09402 0.12151 0.0
H1695 H 0.45362 0.04636 0.13864 0.0
H1696 H 0.50578 0.0833 0.19077 0.0
H1697 H 0.5422 0.13135 0.17397 0.0
C1698 C 0.67111 0.20081 0.10633 0.0
C1699 C 0.68487 0.19459 0.12217 0.0
C1700 C 0.64175 0.19803 0.10776 0.0
C1701 C 0.62569 0.19012 0.12525 0.0
C1702 C 0.64033 0.1861 0.14139 0.0
C1703 C 0.66924 0.18795 0.13985 0.0
C1704 C 0.59261 0.18271 0.12642 0.0
C1705 C 0.57137 0.15521 0.13574 0.0
C1706 C 0.58132 0.20106 0.1178 0.0
C1707 C 0.60213 0.23151 0.10881 0.0
C1708 C 0.62777 0.25471 0.11895 0.0
C1709 C 0.64664 0.28366 0.11062 0.0
C1710 C 0.64002 0.28979 0.0922 0.0
C1711 C 0.61453 0.26698 0.08205 0.0
C1712 C 0.59562 0.23798 0.09029 0.0
C1713 C 0.45072 0.14488 0.14889 0.0
C1714 C 0.43212 0.13733 0.13238 0.0
C1715 C 0.48195 0.15321 0.14744 0.0
C1716 C 0.49528 0.15479 0.12941 0.0
C1717 C 0.47663 0.1472 0.11288 0.0
C1718 C 0.44524 0.13838 0.11438 0.0
C1719 C 0.52848 0.16357 0.12794 0.0
C1720 C 0.54935 0.19095 0.11849 0.0
C1721 C 0.53972 0.14556 0.13663 0.0
C1722 C 0.51866 0.11625 0.14652 0.0
C1723 C 0.4936 0.09196 0.13663 0.0
C1724 C 0.473 0.06491 0.14628 0.0
C1725 C 0.47737 0.06182 0.16579 0.0
C1726 C 0.50244 0.08572 0.17566 0.0
C1727 C 0.5231 0.11284 0.16608 0.0
H1728 H 0.46135 0.04089 0.17325 0.0
H1729 H 0.65459 0.31224 0.08581 0.0
H1730 H 0.72228 0.58644 0.3774 0.0
H1731 H 0.68319 0.53123 0.3785 0.0
H1732 H 0.6793 0.53717 0.44013 0.0
H1733 H 0.7189 0.5924 0.43896 0.0
H1734 H 0.68284 0.48575 0.42869 0.0
H1735 H 0.62049 0.53225 0.41157 0.0
H1736 H 0.61013 0.56673 0.39142 0.0
H1737 H 0.60417 0.51313 0.34138 0.0
H1738 H 0.61486 0.47855 0.36122 0.0
H1739 H 0.54267 0.34442 0.44656 0.0
H1740 H 0.58783 0.39598 0.44397 0.0
H1741 H 0.5777 0.39099 0.38235 0.0
H1742 H 0.53125 0.34032 0.3849 0.0
H1743 H 0.58375 0.44199 0.39269 0.0
H1744 H 0.64176 0.39293 0.40815 0.0
H1745 H 0.65927 0.36131 0.42546 0.0
H1746 H 0.67873 0.41896 0.47554 0.0
H1747 H 0.661 0.45075 0.45862 0.0
C1748 C 0.71213 0.57619 0.39108 0.0
C1749 C 0.7225 0.59396 0.40801 0.0
C1750 C 0.69011 0.54452 0.39175 0.0
C1751 C 0.67797 0.5299 0.4094 0.0
C1752 C 0.68814 0.54781 0.42634 0.0
C1753 C 0.71026 0.5795 0.42564 0.0
C1754 C 0.65462 0.49603 0.41015 0.0
C1755 C 0.66093 0.47612 0.42107 0.0
C1756 C 0.62662 0.48321 0.39958 0.0
C1757 C 0.61855 0.50292 0.38785 0.0
C1758 C 0.61692 0.52782 0.39627 0.0
C1759 C 0.61105 0.5474 0.3849 0.0
C1760 C 0.60652 0.54214 0.36513 0.0
C1761 C 0.60766 0.51716 0.3567 0.0
C1762 C 0.61355 0.49753 0.368 0.0
C1763 C 0.54992 0.35418 0.4324 0.0
C1764 C 0.53251 0.33811 0.41599 0.0
C1765 C 0.57627 0.38368 0.43092 0.0
C1766 C 0.58647 0.3978 0.41294 0.0
C1767 C 0.57036 0.38094 0.39644 0.0
C1768 C 0.54379 0.3516 0.39793 0.0
C1769 C 0.61153 0.43114 0.41145 0.0
C1770 C 0.60558 0.45119 0.40036 0.0
C1771 C 0.64007 0.44384 0.42165 0.0
C1772 C 0.64965 0.42404 0.43215 0.0
C1773 C 0.64937 0.39864 0.42293 0.0
C1774 C 0.65945 0.38075 0.43266 0.0
C1775 C 0.67 0.38805 0.45161 0.0
C1776 C 0.67049 0.41328 0.46087 0.0
C1777 C 0.66044 0.43126 0.45121 0.0
H1778 H 0.67788 0.37423 0.45909 0.0
H1779 H 0.6021 0.5574 0.35634 0.0
H1780 H 0.85773 0.28578 0.16078 0.0
H1781 H 0.84471 0.327 0.1581 0.0
H1782 H 0.89578 0.35637 0.10505 0.0
H1783 H 0.91052 0.31648 0.10861 0.0
H1784 H 0.90641 0.40385 0.12181 0.0
H1785 H 0.80748 0.3117 0.10973 0.0
H1786 H 0.76036 0.26127 0.11509 0.0
H1787 H 0.74327 0.29592 0.16753 0.0
H1788 H 0.7902 0.34657 0.16243 0.0
H1789 H 0.85235 0.50229 0.09239 0.0
H1790 H 0.85743 0.45637 0.09435 0.0
H1791 H 0.81759 0.43783 0.15093 0.0
H1792 H 0.81014 0.48277 0.14855 0.0
H1793 H 0.79993 0.38465 0.13248 0.0
H1794 H 0.89907 0.47752 0.14289 0.0
H1795 H 0.94224 0.52911 0.13436 0.0
H1796 H 0.95694 0.49145 0.0824 0.0
H1797 H 0.91365 0.4397 0.09054 0.0
C1798 C 0.86685 0.30169 0.14886 0.0
C1799 C 0.88582 0.29853 0.13518 0.0
C1800 C 0.85877 0.32482 0.14705 0.0
C1801 C 0.86844 0.3446 0.13108 0.0
C1802 C 0.88792 0.34165 0.11757 0.0
C1803 C 0.89671 0.31906 0.11968 0.0
C1804 C 0.85964 0.36923 0.12881 0.0
C1805 C 0.88291 0.39924 0.12384 0.0
C1806 C 0.8292 0.36401 0.13193 0.0
C1807 C 0.80249 0.33282 0.13577 0.0
C1808 C 0.79391 0.30841 0.12253 0.0
C1809 C 0.76713 0.27983 0.12548 0.0
C1810 C 0.74883 0.27542 0.14164 0.0
C1811 C 0.75744 0.29941 0.15501 0.0
C1812 C 0.78407 0.32805 0.15208 0.0
C1813 C 0.84378 0.48817 0.10511 0.0
C1814 C 0.83107 0.49682 0.12041 0.0
C1815 C 0.84721 0.46199 0.10631 0.0
C1816 C 0.83891 0.44406 0.12305 0.0
C1817 C 0.82468 0.4515 0.13796 0.0
C1818 C 0.82076 0.47752 0.13665 0.0
C1819 C 0.84663 0.41874 0.1253 0.0
C1820 C 0.82329 0.38887 0.13037 0.0
C1821 C 0.87688 0.42385 0.12205 0.0
C1822 C 0.90305 0.45485 0.11727 0.0
C1823 C 0.91145 0.4803 0.12961 0.0
C1824 C 0.93593 0.50955 0.12485 0.0
C1825 C 0.95229 0.51356 0.10783 0.0
C1826 C 0.94425 0.48831 0.09557 0.0
C1827 C 0.91978 0.45902 0.10026 0.0
H1828 H 0.97124 0.53623 0.10417 0.0
H1829 H 0.72784 0.25355 0.14379 0.0
H1830 H 0.45399 0.18964 0.41806 0.0
H1831 H 0.5071 0.20109 0.41855 0.0
H1832 H 0.47942 0.11147 0.39343 0.0
H1833 H 0.42487 0.09929 0.39323 0.0
H1834 H 0.51945 0.12514 0.42291 0.0
H1835 H 0.51811 0.18303 0.36694 0.0
H1836 H 0.50817 0.22088 0.3503 0.0
H1837 H 0.56876 0.29234 0.38968 0.0
H1838 H 0.57896 0.2549 0.40663 0.0
H1839 H 0.66641 0.15177 0.39649 0.0
H1840 H 0.61419 0.14462 0.39471 0.0
H1841 H 0.64437 0.22888 0.42735 0.0
H1842 H 0.69684 0.23574 0.42959 0.0
H1843 H 0.60449 0.22106 0.39446 0.0
H1844 H 0.60527 0.17133 0.45114 0.0
H1845 H 0.61412 0.13828 0.47348 0.0
H1846 H 0.55428 0.05784 0.43959 0.0
H1847 H 0.54541 0.09053 0.41687 0.0
C1848 C 0.45894 0.17221 0.41244 0.0
C1849 C 0.43506 0.14358 0.40529 0.0
C1850 C 0.48959 0.17904 0.41263 0.0
C1851 C 0.49758 0.15768 0.40543 0.0
C1852 C 0.47382 0.12857 0.39878 0.0
C1853 C 0.44269 0.12151 0.39874 0.0
C1854 C 0.53058 0.16541 0.40603 0.0
C1855 C 0.5379 0.1457 0.41624 0.0
C1856 C 0.55502 0.19347 0.3985 0.0
C1857 C 0.54917 0.21607 0.38811 0.0
C1858 C 0.52923 0.20678 0.3721 0.0
C1859 C 0.52359 0.22818 0.36259 0.0
C1860 C 0.53783 0.25898 0.36893 0.0
C1861 C 0.55781 0.26849 0.38476 0.0
C1862 C 0.56358 0.2472 0.39429 0.0
C1863 C 0.66203 0.169 0.40307 0.0
C1864 C 0.68566 0.19435 0.41311 0.0
C1865 C 0.63217 0.16481 0.40213 0.0
C1866 C 0.62535 0.18612 0.41095 0.0
C1867 C 0.64915 0.21216 0.42044 0.0
C1868 C 0.67902 0.21602 0.42174 0.0
C1869 C 0.59297 0.1801 0.41072 0.0
C1870 C 0.58588 0.20025 0.40081 0.0
C1871 C 0.56873 0.15309 0.41911 0.0
C1872 C 0.57507 0.13344 0.43214 0.0
C1873 C 0.59441 0.14666 0.44827 0.0
C1874 C 0.59931 0.12798 0.46105 0.0
C1875 C 0.58487 0.09599 0.45792 0.0
C1876 C 0.56553 0.08263 0.44197 0.0
C1877 C 0.56055 0.10123 0.42913 0.0
H1878 H 0.58858 0.08153 0.46788 0.0
H1879 H 0.53339 0.27549 0.36157 0.0
H1880 H 0.50822 0.35875 0.14342 0.0
H1881 H 0.55342 0.41086 0.14481 0.0
H1882 H 0.60308 0.38164 0.10742 0.0
H1883 H 0.5574 0.32924 0.10567 0.0
H1884 H 0.63884 0.42067 0.14039 0.0
H1885 H 0.58206 0.42127 0.08655 0.0
H1886 H 0.53742 0.41271 0.06674 0.0
H1887 H 0.52113 0.47167 0.10442 0.0
H1888 H 0.5655 0.48025 0.12464 0.0
H1889 H 0.75596 0.57226 0.11686 0.0
H1890 H 0.71412 0.51897 0.11589 0.0
H1891 H 0.65448 0.54574 0.14489 0.0
H1892 H 0.6968 0.60025 0.14545 0.0
H1893 H 0.6253 0.50651 0.11553 0.0
H1894 H 0.69018 0.5072 0.16804 0.0
H1895 H 0.7396 0.51716 0.18246 0.0
H1896 H 0.74575 0.45595 0.14126 0.0
H1897 H 0.69653 0.44586 0.12646 0.0
C1898 C 0.5289 0.36324 0.13572 0.0
C1899 C 0.52927 0.33987 0.12449 0.0
C1900 C 0.55465 0.39308 0.13644 0.0
C1901 C 0.58156 0.40017 0.12617 0.0
C1902 C 0.58254 0.37665 0.11547 0.0
C1903 C 0.55645 0.34681 0.11444 0.0
C1904 C 0.60788 0.4326 0.12616 0.0
C1905 C 0.63607 0.43946 0.1348 0.0
C1906 C 0.60428 0.45707 0.11883 0.0
C1907 C 0.5768 0.45102 0.10727 0.0
C1908 C 0.56866 0.43201 0.09079 0.0
C1909 C 0.5435 0.42728 0.07944 0.0
C1910 C 0.52637 0.44154 0.08436 0.0
C1911 C 0.53437 0.46057 0.10066 0.0
C1912 C 0.55952 0.46538 0.11207 0.0
C1913 C 0.734 0.56697 0.12317 0.0
C1914 C 0.72982 0.59051 0.13151 0.0
C1915 C 0.7101 0.53629 0.12269 0.0
C1916 C 0.68138 0.528 0.13085 0.0
C1917 C 0.67665 0.55153 0.13872 0.0
C1918 C 0.7007 0.58264 0.13899 0.0
C1919 C 0.65613 0.49496 0.13032 0.0
C1920 C 0.62808 0.48788 0.1214 0.0
C1921 C 0.66038 0.4703 0.13687 0.0
C1922 C 0.68972 0.47594 0.14606 0.0
C1923 C 0.70212 0.49597 0.162 0.0
C1924 C 0.7301 0.50162 0.17025 0.0
C1925 C 0.74584 0.48725 0.16276 0.0
C1926 C 0.73355 0.46707 0.14705 0.0
C1927 C 0.70557 0.46133 0.13875 0.0
H1928 H 0.76752 0.49171 0.16913 0.0
H1929 H 0.50697 0.43795 0.0755 0.0
H1930 H 0.8039 0.47627 0.38769 0.0
H1931 H 0.81073 0.43124 0.38655 0.0
H1932 H 0.8505 0.45302 0.4435 0.0
H1933 H 0.84706 0.49992 0.4439 0.0
H1934 H 0.88583 0.44371 0.42378 0.0
H1935 H 0.77525 0.38501 0.42912 0.0
H1936 H 0.72051 0.36676 0.42121 0.0
H1937 H 0.73295 0.33838 0.36517 0.0
H1938 H 0.78785 0.35685 0.37262 0.0
H1939 H 0.90038 0.3097 0.43269 0.0
H1940 H 0.88491 0.34905 0.43614 0.0
H1941 H 0.85457 0.33457 0.37698 0.0
H1942 H 0.86815 0.29352 0.37404 0.0
H1943 H 0.81339 0.3386 0.39833 0.0
H1944 H 0.92551 0.40119 0.39361 0.0
H1945 H 0.97823 0.41429 0.40361 0.0
H1946 H 0.95963 0.43173 0.46113 0.0
H1947 H 0.90673 0.4185 0.45149 0.0
C1948 C 0.81436 0.47178 0.39998 0.0
C1949 C 0.82564 0.49265 0.41568 0.0
C1950 C 0.81762 0.44538 0.39946 0.0
C1951 C 0.8312 0.43841 0.41493 0.0
C1952 C 0.84023 0.45785 0.43123 0.0
C1953 C 0.83781 0.4847 0.43154 0.0
C1954 C 0.83932 0.41326 0.4134 0.0
C1955 C 0.86958 0.4206 0.41853 0.0
C1956 C 0.81873 0.38313 0.40603 0.0
C1957 C 0.78583 0.37266 0.40138 0.0
C1958 C 0.76642 0.3752 0.41504 0.0
C1959 C 0.73533 0.36473 0.41065 0.0
C1960 C 0.72329 0.3515 0.39269 0.0
C1961 C 0.74231 0.34868 0.37907 0.0
C1962 C 0.77342 0.35913 0.38337 0.0
C1963 C 0.89127 0.31566 0.4203 0.0
C1964 C 0.88637 0.29948 0.40292 0.0
C1965 C 0.88223 0.338 0.42228 0.0
C1966 C 0.86907 0.34535 0.40671 0.0
C1967 C 0.86474 0.32947 0.38919 0.0
C1968 C 0.87295 0.30644 0.3874 0.0
C1969 C 0.85956 0.36931 0.40878 0.0
C1970 C 0.82928 0.36177 0.40366 0.0
C1971 C 0.87989 0.39917 0.41634 0.0
C1972 C 0.91221 0.40882 0.42184 0.0
C1973 C 0.93274 0.40792 0.40837 0.0
C1974 C 0.96261 0.4153 0.41398 0.0
C1975 C 0.97226 0.42382 0.433 0.0
C1976 C 0.95214 0.42518 0.44641 0.0
C1977 C 0.92225 0.41784 0.44086 0.0
H1978 H 0.99534 0.42937 0.43734 0.0
H1979 H 0.69921 0.34336 0.38934 0.0
H1980 H 0.19081 0.67646 0.6526 0.0
H1981 H 0.18624 0.62539 0.6549 0.0
H1982 H 0.21051 0.62945 0.59523 0.0
H1983 H 0.21614 0.68097 0.5929 0.0
H1984 H 0.15839 0.57727 0.60204 0.0
H1985 H 0.25807 0.62852 0.62902 0.0
H1986 H 0.30223 0.66294 0.64981 0.0
H1987 H 0.25219 0.6118 0.69938 0.0
H1988 H 0.2075 0.57729 0.67892 0.0
H1989 H 0.16004 0.43524 0.60244 0.0
H1990 H 0.17417 0.48973 0.60066 0.0
H1991 H 0.14373 0.48634 0.65899 0.0
H1992 H 0.13003 0.43139 0.66085 0.0
H1993 H 0.20163 0.53847 0.65184 0.0
H1994 H 0.10003 0.48798 0.6208 0.0
H1995 H 0.06289 0.45133 0.59699 0.0
H1996 H 0.12557 0.50174 0.55144 0.0
H1997 H 0.16319 0.53853 0.57501 0.0
C1998 C 0.19606 0.66701 0.64006 0.0
C1999 C 0.20338 0.68294 0.62247 0.0
C2000 C 0.19333 0.63761 0.6414 0.0
C2001 C 0.19778 0.62331 0.62521 0.0
C2002 C 0.20661 0.63976 0.60789 0.0
C2003 C 0.20963 0.66924 0.60658 0.0
C2004 C 0.19025 0.59023 0.62588 0.0
C2005 C 0.16819 0.56899 0.61284 0.0
C2006 C 0.20289 0.57911 0.63992 0.0
C2007 C 0.22919 0.60056 0.65243 0.0
C2008 C 0.25626 0.62488 0.64438 0.0
C2009 C 0.28146 0.64433 0.6561 0.0
C2010 C 0.27997 0.63963 0.67591 0.0
C2011 C 0.25327 0.61546 0.68404 0.0
C2012 C 0.228 0.59594 0.67238 0.0
C2013 C 0.15558 0.44593 0.61471 0.0
C2014 C 0.14312 0.42899 0.63159 0.0
C2015 C 0.16385 0.47714 0.61373 0.0
C2016 C 0.15975 0.4922 0.62961 0.0
C2017 C 0.14696 0.47519 0.64651 0.0
C2018 C 0.13865 0.44374 0.64749 0.0
C2019 C 0.16918 0.52573 0.62845 0.0
C2020 C 0.19172 0.54696 0.64126 0.0
C2021 C 0.15766 0.53706 0.61388 0.0
C2022 C 0.1344 0.51594 0.59966 0.0
C2023 C 0.10584 0.49126 0.6057 0.0
C2024 C 0.08474 0.47044 0.59225 0.0
C2025 C 0.09188 0.47419 0.57272 0.0
C2026 C 0.12006 0.49889 0.56657 0.0
C2027 C 0.14124 0.51978 0.57996 0.0
H2028 H 0.07557 0.45797 0.56234 0.0
H2029 H 0.29955 0.65466 0.68495 0.0
H2030 H 0.33626 0.92377 0.90176 0.0
H2031 H 0.37946 0.91294 0.90442 0.0
H2032 H 0.31414 0.81511 0.90815 0.0
H2033 H 0.2717 0.82525 0.90519 0.0
H2034 H 0.35948 0.83325 0.93534 0.0
H2035 H 0.3484 0.83799 0.86865 0.0
H2036 H 0.3437 0.85932 0.83781 0.0
H2037 H 0.43547 0.93698 0.845 0.0
H2038 H 0.44051 0.91633 0.87611 0.0
H2039 H 0.47059 0.7801 0.92006 0.0
H2040 H 0.42454 0.78639 0.91748 0.0
H2041 H 0.48417 0.88506 0.91097 0.0
H2042 H 0.52964 0.8787 0.91349 0.0
H2043 H 0.43869 0.86261 0.88461 0.0
H2044 H 0.44566 0.84889 0.95385 0.0
H2045 H 0.44332 0.82036 0.98322 0.0
H2046 H 0.35129 0.74885 0.96833 0.0
H2047 H 0.35326 0.77667 0.93872 0.0
C2048 C 0.33122 0.90001 0.90299 0.0
C2049 C 0.30039 0.87552 0.90301 0.0
C2050 C 0.35586 0.89381 0.90456 0.0
C2051 C 0.35 0.86313 0.90654 0.0
C2052 C 0.31932 0.83891 0.90675 0.0
C2053 C 0.29498 0.84494 0.90487 0.0
C2054 C 0.37548 0.85571 0.9081 0.0
C2055 C 0.3768 0.83957 0.92423 0.0
C2056 C 0.39754 0.86316 0.89341 0.0
C2057 C 0.39465 0.87589 0.87484 0.0
C2058 C 0.36744 0.85983 0.86378 0.0
C2059 C 0.36474 0.87173 0.84622 0.0
C2060 C 0.38922 0.89956 0.83949 0.0
C2061 C 0.41649 0.91548 0.85028 0.0
C2062 C 0.41928 0.90369 0.86788 0.0
C2063 C 0.47363 0.80302 0.918 0.0
C2064 C 0.50355 0.82897 0.91687 0.0
C2065 C 0.4474 0.80666 0.91667 0.0
C2066 C 0.4508 0.83631 0.91416 0.0
C2067 C 0.48081 0.86199 0.9129 0.0
C2068 C 0.50681 0.85838 0.91433 0.0
C2069 C 0.42364 0.84121 0.91229 0.0
C2070 C 0.42167 0.85654 0.89589 0.0
C2071 C 0.40031 0.83191 0.92646 0.0
C2072 C 0.39981 0.81469 0.94391 0.0
C2073 C 0.42511 0.82687 0.95669 0.0
C2074 C 0.4238 0.81086 0.97342 0.0
C2075 C 0.39722 0.78276 0.97761 0.0
C2076 C 0.3719 0.77056 0.96505 0.0
C2077 C 0.37312 0.78643 0.94829 0.0
H2078 H 0.39621 0.77049 0.99061 0.0
H2079 H 0.38711 0.90873 0.82588 0.0
H2080 H 0.60752 0.68831 0.63424 0.0
H2081 H 0.55347 0.64547 0.63322 0.0
H2082 H 0.52163 0.71177 0.63116 0.0
H2083 H 0.57401 0.75357 0.63331 0.0
H2084 H 0.48446 0.67061 0.65142 0.0
H2085 H 0.52576 0.66917 0.5903 0.0
H2086 H 0.56043 0.66607 0.56624 0.0
H2087 H 0.53667 0.57543 0.58626 0.0
H2088 H 0.50226 0.57817 0.61062 0.0
H2089 H 0.32965 0.55742 0.61715 0.0
H2090 H 0.38215 0.60297 0.61971 0.0
H2091 H 0.41849 0.54259 0.63322 0.0
H2092 H 0.36648 0.49754 0.63046 0.0
H2093 H 0.45185 0.58273 0.60593 0.0
H2094 H 0.40585 0.58982 0.66722 0.0
H2095 H 0.36897 0.59785 0.68659 0.0
H2096 H 0.39941 0.68561 0.65948 0.0
H2097 H 0.43613 0.6779 0.63976 0.0
C2098 C 0.58891 0.6936 0.63382 0.0
C2099 C 0.59549 0.72455 0.63385 0.0
C2100 C 0.55797 0.66912 0.63305 0.0
C2101 C 0.53315 0.67521 0.63185 0.0
C2102 C 0.53994 0.70609 0.63219 0.0
C2103 C 0.57039 0.73022 0.63333 0.0
C2104 C 0.50005 0.64998 0.63001 0.0
C2105 C 0.47744 0.65156 0.64132 0.0
C2106 C 0.49032 0.62526 0.61665 0.0
C2107 C 0.51169 0.62399 0.6024 0.0
C2108 C 0.5282 0.64873 0.58971 0.0
C2109 C 0.54776 0.64701 0.576 0.0
C2110 C 0.55068 0.62054 0.57475 0.0
C2111 C 0.53434 0.59588 0.58727 0.0
C2112 C 0.51483 0.59751 0.60102 0.0
C2113 C 0.34895 0.55415 0.62085 0.0
C2114 C 0.34424 0.52418 0.62378 0.0
C2115 C 0.37887 0.58009 0.62235 0.0
C2116 C 0.40437 0.57628 0.62682 0.0
C2117 C 0.39931 0.54621 0.62981 0.0
C2118 C 0.36961 0.52049 0.62833 0.0
C2119 C 0.43667 0.60297 0.62771 0.0
C2120 C 0.45906 0.60181 0.61605 0.0
C2121 C 0.4459 0.62884 0.64008 0.0
C2122 C 0.42349 0.63309 0.65186 0.0
C2123 C 0.40446 0.61068 0.66526 0.0
C2124 C 0.38362 0.61521 0.67632 0.0
C2125 C 0.38178 0.64217 0.67422 0.0
C2126 C 0.4008 0.6647 0.66107 0.0
C2127 C 0.42162 0.66025 0.64995 0.0
H2128 H 0.36566 0.64564 0.68282 0.0
H2129 H 0.56537 0.61889 0.564 0.0
H2130 H 0.24215 0.69271 0.92876 0.0
H2131 H 0.23467 0.63985 0.92646 0.0
H2132 H 0.14982 0.61007 0.89482 0.0
H2133 H 0.15764 0.66264 0.8967 0.0
H2134 H 0.14432 0.57227 0.92693 0.0
H2135 H 0.21426 0.62302 0.87263 0.0
H2136 H 0.26386 0.66061 0.8579 0.0
H2137 H 0.31148 0.62555 0.8919 0.0
H2138 H 0.26228 0.58815 0.9071 0.0
H2139 H 0.10244 0.41888 0.89568 0.0
H2140 H 0.11355 0.47305 0.89742 0.0
H2141 H 0.20773 0.50281 0.91431 0.0
H2142 H 0.19738 0.4502 0.91204 0.0
H2143 H 0.21072 0.54178 0.8908 0.0
H2144 H 0.15262 0.49746 0.94676 0.0
H2145 H 0.10881 0.45881 0.96579 0.0
H2146 H 0.04731 0.4822 0.93659 0.0
H2147 H 0.09074 0.52073 0.91716 0.0
C2148 C 0.22221 0.67486 0.9211 0.0
C2149 C 0.20061 0.68165 0.91269 0.0
C2150 C 0.21793 0.64477 0.9198 0.0
C2151 C 0.19165 0.62103 0.91044 0.0
C2152 C 0.17026 0.62801 0.90205 0.0
C2153 C 0.17483 0.65805 0.90301 0.0
C2154 C 0.1854 0.58854 0.90978 0.0
C2155 C 0.15867 0.56553 0.91887 0.0
C2156 C 0.20497 0.57993 0.90011 0.0
C2157 C 0.23458 0.60303 0.8912 0.0
C2158 C 0.23534 0.6236 0.87717 0.0
C2159 C 0.2634 0.64482 0.86869 0.0
C2160 C 0.29081 0.64554 0.874 0.0
C2161 C 0.29025 0.62504 0.88783 0.0
C2162 C 0.26229 0.60385 0.89638 0.0
C2163 C 0.12545 0.43708 0.89966 0.0
C2164 C 0.14899 0.43006 0.90341 0.0
C2165 C 0.13183 0.46802 0.90074 0.0
C2166 C 0.16162 0.49223 0.90599 0.0
C2167 C 0.18476 0.48492 0.90994 0.0
C2168 C 0.17862 0.45448 0.90863 0.0
C2169 C 0.16921 0.52525 0.90763 0.0
C2170 C 0.19627 0.54839 0.89885 0.0
C2171 C 0.1509 0.53421 0.91843 0.0
C2172 C 0.12483 0.51169 0.93035 0.0
C2173 C 0.12971 0.49424 0.94432 0.0
C2174 C 0.10496 0.47236 0.95518 0.0
C2175 C 0.07527 0.46797 0.95235 0.0
C2176 C 0.07031 0.48559 0.93873 0.0
C2177 C 0.09499 0.50747 0.9278 0.0
H2178 H 0.05611 0.45095 0.96073 0.0
H2179 H 0.31247 0.66191 0.86737 0.0
H2180 H 0.33661 0.92399 0.62587 0.0
H2181 H 0.37925 0.91249 0.62418 0.0
H2182 H 0.31571 0.81706 0.63849 0.0
H2183 H 0.27439 0.82858 0.64139 0.0
H2184 H 0.36389 0.82977 0.6549 0.0
H2185 H 0.34154 0.84331 0.59076 0.0
H2186 H 0.33311 0.86975 0.56353 0.0
H2187 H 0.4272 0.94401 0.56804 0.0
H2188 H 0.43608 0.91819 0.59547 0.0
H2189 H 0.47277 0.78003 0.62687 0.0
H2190 H 0.42595 0.78482 0.62881 0.0
H2191 H 0.48162 0.88316 0.61858 0.0
H2192 H 0.52744 0.87796 0.6156 0.0
H2193 H 0.43299 0.86304 0.59841 0.0
H2194 H 0.44885 0.84068 0.66622 0.0
H2195 H 0.44915 0.80626 0.69153 0.0
H2196 H 0.35677 0.7366 0.6757 0.0
H2197 H 0.35606 0.77046 0.65023 0.0
C2198 C 0.33202 0.90078 0.62899 0.0
C2199 C 0.30197 0.87731 0.63363 0.0
C2200 C 0.35627 0.89405 0.62779 0.0
C2201 C 0.3507 0.86364 0.63084 0.0
C2202 C 0.32091 0.84067 0.63608 0.0
C2203 C 0.29707 0.84742 0.63762 0.0
C2204 C 0.37534 0.85511 0.62835 0.0
C2205 C 0.37886 0.83695 0.64245 0.0
C2206 C 0.39446 0.86356 0.61194 0.0
C2207 C 0.38939 0.87897 0.59529 0.0
C2208 C 0.36039 0.86537 0.58601 0.0
C2209 C 0.35553 0.88023 0.57054 0.0
C2210 C 0.37958 0.90859 0.5641 0.0
C2211 C 0.40858 0.92207 0.57307 0.0
C2212 C 0.41355 0.90732 0.58857 0.0
C2213 C 0.47479 0.80258 0.62509 0.0
C2214 C 0.50368 0.82864 0.62103 0.0
C2215 C 0.44808 0.8054 0.6263 0.0
C2216 C 0.45008 0.83452 0.62408 0.0
C2217 C 0.47915 0.8604 0.62025 0.0
C2218 C 0.50546 0.85747 0.61861 0.0
C2219 C 0.42254 0.83895 0.62542 0.0
C2220 C 0.41813 0.85602 0.61091 0.0
C2221 C 0.40165 0.82824 0.64104 0.0
C2222 C 0.40258 0.80796 0.6562 0.0
C2223 C 0.42873 0.81794 0.66806 0.0
C2224 C 0.42893 0.79853 0.68245 0.0
C2225 C 0.40304 0.76923 0.68518 0.0
C2226 C 0.37684 0.75926 0.67355 0.0
C2227 C 0.37654 0.77854 0.65915 0.0
H2228 H 0.40324 0.75429 0.69634 0.0
H2229 H 0.37577 0.92008 0.55213 0.0
H2230 H 0.60399 0.69126 0.89067 0.0
H2231 H 0.54953 0.64882 0.89167 0.0
H2232 H 0.52519 0.70759 0.92419 0.0
H2233 H 0.57845 0.74908 0.92345 0.0
H2234 H 0.49881 0.65294 0.93934 0.0
H2235 H 0.50735 0.69511 0.87756 0.0
H2236 H 0.52803 0.71274 0.8451 0.0
H2237 H 0.50573 0.62019 0.82957 0.0
H2238 H 0.48528 0.60207 0.86206 0.0
H2239 H 0.33435 0.55289 0.93325 0.0
H2240 H 0.38609 0.59881 0.93085 0.0
H2241 H 0.41384 0.54808 0.89295 0.0
H2242 H 0.36185 0.50329 0.89437 0.0
H2243 H 0.43808 0.60217 0.8805 0.0
H2244 H 0.42946 0.56389 0.94743 0.0
H2245 H 0.40888 0.55372 0.98044 0.0
H2246 H 0.42968 0.64821 0.98608 0.0
H2247 H 0.45008 0.65882 0.95309 0.0
C2248 C 0.58697 0.69482 0.89816 0.0
C2249 C 0.5955 0.72356 0.90682 0.0
C2250 C 0.55588 0.67076 0.89859 0.0
C2251 C 0.53319 0.67514 0.90789 0.0
C2252 C 0.5421 0.70356 0.91693 0.0
C2253 C 0.57271 0.72737 0.91639 0.0
C2254 C 0.50005 0.65044 0.90853 0.0
C2255 C 0.48548 0.64184 0.92645 0.0
C2256 C 0.48245 0.63647 0.89176 0.0
C2257 C 0.49521 0.64732 0.87233 0.0
C2258 C 0.5072 0.67858 0.8673 0.0
C2259 C 0.51879 0.68865 0.84888 0.0
C2260 C 0.51831 0.66762 0.8353 0.0
C2261 C 0.50617 0.63647 0.84012 0.0
C2262 C 0.49457 0.62628 0.85853 0.0
C2263 C 0.35152 0.55185 0.92424 0.0
C2264 C 0.34411 0.5246 0.91393 0.0
C2265 C 0.38123 0.57797 0.92304 0.0
C2266 C 0.40443 0.57688 0.91209 0.0
C2267 C 0.39661 0.54975 0.90152 0.0
C2268 C 0.36681 0.52408 0.9023 0.0
C2269 C 0.43695 0.60344 0.91145 0.0
C2270 C 0.45141 0.61284 0.89345 0.0
C2271 C 0.45422 0.61893 0.92817 0.0
C2272 C 0.44094 0.612 0.94774 0.0
C2273 C 0.42935 0.58237 0.95566 0.0
C2274 C 0.41779 0.57657 0.97438 0.0
C2275 C 0.41789 0.60027 0.98533 0.0
C2276 C 0.42953 0.62984 0.97758 0.0
C2277 C 0.44108 0.63575 0.95889 0.0
H2278 H 0.40903 0.59575 0.99983 0.0
H2279 H 0.52725 0.67545 0.82104 0.0
loop_
_geom_bond_atom_site_label_1
_geom_bond_atom_site_label_2
_geom_bond_distance
_geom_bond_site_symmetry_2
_ccdc_geom_bond_type
Sm0 C2 2.846 . S
Sm0 O20 2.543 . S
Sm0 O21 2.450 . S
Sm0 O22 2.681 . S
Sm0 O23 2.464 . S
Sm0 O24 2.396 . S
Sm0 O28 2.386 . S
Sm0 O31 2.408 . S
Sm1 C11 2.846 . S
Sm1 O22 2.386 . S
Sm1 O25 2.408 . S
Sm1 O26 2.543 . S
Sm1 O27 2.450 . S
Sm1 O28 2.681 . S
Sm1 O29 2.464 . S
Sm1 O30 2.396 . S
C2 Sm0 2.846 . S
C2 C3 1.506 . S
C2 O20 1.261 . S
C2 O21 1.242 . S
C3 C2 1.506 . S
C3 C4 1.358 . S
C3 C8 1.382 . S
C4 C3 1.358 . S
C4 C5 1.385 . S
C4 H32 0.930 . S
C5 C4 1.385 . S
C5 C6 1.395 . S
C5 H33 0.929 . S
C6 C5 1.395 . S
C6 C7 1.335 . S
C7 C6 1.335 . S
C7 C8 1.398 . S
C7 H34 0.930 . S
C8 C3 1.382 . S
C8 C7 1.398 . S
C8 H35 0.929 . S
C9 O22 1.271 . S
C9 O23 1.251 . S
C10 O24 1.252 . S
C10 O25 1.272 . S
C11 Sm1 2.846 . S
C11 C12 1.506 . S
C11 O26 1.261 . S
C11 O27 1.242 . S
C12 C11 1.506 . S
C12 C13 1.358 . S
C12 C17 1.382 . S
C13 C12 1.358 . S
C13 C14 1.385 1_545 S
C13 H36 0.930 . S
C14 C13 1.385 1_565 S
C14 C15 1.395 . S
C14 H37 0.929 . S
C15 C14 1.395 . S
C15 C16 1.335 . S
C16 C15 1.335 . S
C16 C17 1.398 1_565 S
C16 H38 0.930 . S
C17 C12 1.382 . S
C17 C16 1.398 1_545 S
C17 H39 0.929 . S
C18 O28 1.271 . S
C18 O29 1.251 . S
C19 O30 1.252 . S
C19 O31 1.272 . S
O20 Sm0 2.543 . S
O20 C2 1.261 . S
O21 Sm0 2.450 . S
O21 C2 1.242 . S
O22 Sm0 2.681 . S
O22 Sm1 2.386 . S
O22 C9 1.271 . S
O23 Sm0 2.464 . S
O23 C9 1.251 . S
O24 Sm0 2.396 . S
O24 C10 1.252 . S
O25 Sm1 2.408 . S
O25 C10 1.272 . S
O26 Sm1 2.543 . S
O26 C11 1.261 . S
O27 Sm1 2.450 . S
O27 C11 1.242 . S
O28 Sm0 2.386 . S
O28 Sm1 2.681 . S
O28 C18 1.271 . S
O29 Sm1 2.464 . S
O29 C18 1.251 . S
O30 Sm1 2.396 . S
O30 C19 1.252 . S
O31 Sm0 2.408 . S
O31 C19 1.272 . S
H32 C4 0.930 . S
H33 C5 0.929 . S
H34 C7 0.930 . S
H35 C8 0.929 . S
H36 C13 0.930 . S
H37 C14 0.929 . S
H38 C16 0.930 . S
H39 C17 0.929 . S
Sm40 C42 2.846 . S
Sm40 O60 2.543 . S
Sm40 O61 2.450 . S
Sm40 O62 2.681 . S
Sm40 O63 2.464 . S
Sm40 O64 2.396 . S
Sm40 O68 2.386 . S
Sm40 O71 2.408 . S
Sm41 C51 2.846 . S
Sm41 O62 2.386 . S
Sm41 O65 2.408 . S
Sm41 O66 2.543 . S
Sm41 O67 2.450 . S
Sm41 O68 2.681 . S
Sm41 O69 2.464 . S
Sm41 O70 2.396 . S
C42 Sm40 2.846 . S
C42 C43 1.506 . S
C42 O60 1.261 . S
C42 O61 1.242 . S
C43 C42 1.506 . S
C43 C44 1.358 . S
C43 C48 1.382 . S
C44 C43 1.358 . S
C44 C45 1.385 . S
C44 H72 0.930 . S
C45 C44 1.385 . S
C45 C46 1.395 . S
C45 H73 0.929 . S
C46 C45 1.395 . S
C46 C47 1.335 . S
C47 C46 1.335 . S
C47 C48 1.398 . S
C47 H74 0.930 . S
C48 C43 1.382 . S
C48 C47 1.398 . S
C48 H75 0.929 . S
C49 O62 1.271 . S
C49 O63 1.251 . S
C50 O64 1.252 . S
C50 O65 1.272 . S
C51 Sm41 2.846 . S
C51 C52 1.506 . S
C51 O66 1.261 . S
C51 O67 1.242 . S
C52 C51 1.506 . S
C52 C53 1.358 . S
C52 C57 1.382 . S
C53 C52 1.358 . S
C53 C54 1.385 . S
C53 H76 0.930 . S
C54 C53 1.385 . S
C54 C55 1.395 . S
C54 H77 0.929 . S
C55 C54 1.395 . S
C55 C56 1.335 . S
C56 C55 1.335 . S
C56 C57 1.398 . S
C56 H78 0.930 . S
C57 C52 1.382 . S
C57 C56 1.398 . S
C57 H79 0.929 . S
C58 O68 1.271 . S
C58 O69 1.251 . S
C59 O70 1.252 . S
C59 O71 1.272 . S
O60 Sm40 2.543 . S
O60 C42 1.261 . S
O61 Sm40 2.450 . S
O61 C42 1.242 . S
O62 Sm40 2.681 . S
O62 Sm41 2.386 . S
O62 C49 1.271 . S
O63 Sm40 2.464 . S
O63 C49 1.251 . S
O64 Sm40 2.396 . S
O64 C50 1.252 . S
O65 Sm41 2.408 . S
O65 C50 1.272 . S
O66 Sm41 2.543 . S
O66 C51 1.261 . S
O67 Sm41 2.450 . S
O67 C51 1.242 . S
O68 Sm40 2.386 . S
O68 Sm41 2.681 . S
O68 C58 1.271 . S
O69 Sm41 2.464 . S
O69 C58 1.251 . S
O70 Sm41 2.396 . S
O70 C59 1.252 . S
O71 Sm40 2.408 . S
O71 C59 1.272 . S
H72 C44 0.930 . S
H73 C45 0.929 . S
H74 C47 0.930 . S
H75 C48 0.929 . S
H76 C53 0.930 . S
H77 C54 0.929 . S
H78 C56 0.930 . S
H79 C57 0.929 . S
Sm80 C82 2.846 . S
Sm80 O100 2.543 . S
Sm80 O101 2.450 . S
Sm80 O102 2.681 . S
Sm80 O103 2.464 . S
Sm80 O104 2.396 . S
Sm80 O108 2.386 . S
Sm80 O111 2.408 . S
Sm81 C91 2.846 . S
Sm81 O102 2.386 . S
Sm81 O105 2.408 . S
Sm81 O106 2.543 . S
Sm81 O107 2.450 . S
Sm81 O108 2.681 . S
Sm81 O109 2.464 . S
Sm81 O110 2.396 . S
C82 Sm80 2.846 . S
C82 C83 1.506 . S
C82 O100 1.261 . S
C82 O101 1.242 . S
C83 C82 1.506 . S
C83 C84 1.358 . S
C83 C88 1.382 . S
C84 C83 1.358 . S
C84 C85 1.385 . S
C84 H112 0.930 . S
C85 C84 1.385 . S
C85 C86 1.395 . S
C85 H113 0.929 . S
C86 C85 1.395 . S
C86 C87 1.335 . S
C87 C86 1.335 . S
C87 C88 1.398 . S
C87 H114 0.930 . S
C88 C83 1.382 . S
C88 C87 1.398 . S
C88 H115 0.929 . S
C89 O102 1.271 . S
C89 O103 1.251 . S
C90 O104 1.252 . S
C90 O105 1.272 . S
C91 Sm81 2.846 . S
C91 C92 1.506 . S
C91 O106 1.261 . S
C91 O107 1.242 . S
C92 C91 1.506 . S
C92 C93 1.358 . S
C92 C97 1.382 . S
C93 C92 1.358 . S
C93 C94 1.385 1_655 S
C93 H116 0.930 . S
C94 C93 1.385 1_455 S
C94 C95 1.395 . S
C94 H117 0.929 . S
C95 C94 1.395 . S
C95 C96 1.335 . S
C96 C95 1.335 . S
C96 C97 1.398 1_455 S
C96 H118 0.930 . S
C97 C92 1.382 . S
C97 C96 1.398 1_655 S
C97 H119 0.929 . S
C98 O108 1.271 . S
C98 O109 1.251 . S
C99 O110 1.252 . S
C99 O111 1.272 . S
O100 Sm80 2.543 . S
O100 C82 1.261 . S
O101 Sm80 2.450 . S
O101 C82 1.242 . S
O102 Sm80 2.681 . S
O102 Sm81 2.386 . S
O102 C89 1.271 . S
O103 Sm80 2.464 . S
O103 C89 1.251 . S
O104 Sm80 2.396 . S
O104 C90 1.252 . S
O105 Sm81 2.408 . S
O105 C90 1.272 . S
O106 Sm81 2.543 . S
O106 C91 1.261 . S
O107 Sm81 2.450 . S
O107 C91 1.242 . S
O108 Sm80 2.386 . S
O108 Sm81 2.681 . S
O108 C98 1.271 . S
O109 Sm81 2.464 . S
O109 C98 1.251 . S
O110 Sm81 2.396 . S
O110 C99 1.252 . S
O111 Sm80 2.408 . S
O111 C99 1.272 . S
H112 C84 0.930 . S
H113 C85 0.929 . S
H114 C87 0.930 . S
H115 C88 0.929 . S
H116 C93 0.930 . S
H117 C94 0.929 . S
H118 C96 0.930 . S
H119 C97 0.929 . S
Sm120 C122 2.846 . S
Sm120 O140 2.543 . S
Sm120 O141 2.450 . S
Sm120 O142 2.681 . S
Sm120 O143 2.464 . S
Sm120 O144 2.396 . S
Sm120 O148 2.386 . S
Sm120 O151 2.408 . S
Sm121 C131 2.846 . S
Sm121 O142 2.386 . S
Sm121 O145 2.408 . S
Sm121 O146 2.543 . S
Sm121 O147 2.450 . S
Sm121 O148 2.681 . S
Sm121 O149 2.464 . S
Sm121 O150 2.396 . S
C122 Sm120 2.846 . S
C122 C123 1.506 . S
C122 O140 1.261 . S
C122 O141 1.242 . S
C123 C122 1.506 . S
C123 C124 1.358 . S
C123 C128 1.382 . S
C124 C123 1.358 . S
C124 C125 1.385 1_545 S
C124 H152 0.930 . S
C125 C124 1.385 1_565 S
C125 C126 1.395 . S
C125 H153 0.929 . S
C126 C125 1.395 . S
C126 C127 1.335 . S
C127 C126 1.335 . S
C127 C128 1.398 1_565 S
C127 H154 0.930 . S
C128 C123 1.382 . S
C128 C127 1.398 1_545 S
C128 H155 0.929 . S
C129 O142 1.271 . S
C129 O143 1.251 . S
C130 O144 1.252 . S
C130 O145 1.272 . S
C131 Sm121 2.846 . S
C131 C132 1.506 . S
C131 O146 1.261 . S
C131 O147 1.242 . S
C132 C131 1.506 . S
C132 C133 1.358 . S
C132 C137 1.382 . S
C133 C132 1.358 . S
C133 C134 1.385 . S
C133 H156 0.930 . S
C134 C133 1.385 . S
C134 C135 1.395 . S
C134 H157 0.929 . S
C135 C134 1.395 . S
C135 C136 1.335 . S
C136 C135 1.335 . S
C136 C137 1.398 . S
C136 H158 0.930 . S
C137 C132 1.382 . S
C137 C136 1.398 . S
C137 H159 0.929 . S
C138 O148 1.271 . S
C138 O149 1.251 . S
C139 O150 1.252 . S
C139 O151 1.272 . S
O140 Sm120 2.543 . S
O140 C122 1.261 . S
O141 Sm120 2.450 . S
O141 C122 1.242 . S
O142 Sm120 2.681 . S
O142 Sm121 2.386 . S
O142 C129 1.271 . S
O143 Sm120 2.464 . S
O143 C129 1.251 . S
O144 Sm120 2.396 . S
O144 C130 1.252 . S
O145 Sm121 2.408 . S
O145 C130 1.272 . S
O146 Sm121 2.543 . S
O146 C131 1.261 . S
O147 Sm121 2.450 . S
O147 C131 1.242 . S
O148 Sm120 2.386 . S
O148 Sm121 2.681 . S
O148 C138 1.271 . S
O149 Sm121 2.464 . S
O149 C138 1.251 . S
O150 Sm121 2.396 . S
O150 C139 1.252 . S
O151 Sm120 2.408 . S
O151 C139 1.272 . S
H152 C124 0.930 . S
H153 C125 0.929 . S
H154 C127 0.930 . S
H155 C128 0.929 . S
H156 C133 0.930 . S
H157 C134 0.929 . S
H158 C136 0.930 . S
H159 C137 0.929 . S
Sm160 C162 2.846 . S
Sm160 O180 2.543 . S
Sm160 O181 2.450 . S
Sm160 O182 2.681 . S
Sm160 O183 2.464 . S
Sm160 O184 2.396 . S
Sm160 O188 2.386 . S
Sm160 O191 2.408 . S
Sm161 C171 2.846 . S
Sm161 O182 2.386 . S
Sm161 O185 2.408 . S
Sm161 O186 2.543 . S
Sm161 O187 2.450 . S
Sm161 O188 2.681 . S
Sm161 O189 2.464 . S
Sm161 O190 2.396 . S
C162 Sm160 2.846 . S
C162 C163 1.506 . S
C162 O180 1.261 . S
C162 O181 1.242 . S
C163 C162 1.506 . S
C163 C164 1.358 . S
C163 C168 1.382 . S
C164 C163 1.358 . S
C164 C165 1.385 . S
C164 H192 0.930 . S
C165 C164 1.385 . S
C165 C166 1.395 . S
C165 H193 0.929 . S
C166 C165 1.395 . S
C166 C167 1.335 . S
C167 C166 1.335 . S
C167 C168 1.398 . S
C167 H194 0.930 . S
C168 C163 1.382 . S
C168 C167 1.398 . S
C168 H195 0.929 . S
C169 O182 1.271 . S
C169 O183 1.251 . S
C170 O184 1.252 . S
C170 O185 1.272 . S
C171 Sm161 2.846 . S
C171 C172 1.506 . S
C171 O186 1.261 . S
C171 O187 1.242 . S
C172 C171 1.506 . S
C172 C173 1.358 . S
C172 C177 1.382 . S
C173 C172 1.358 . S
C173 C174 1.385 . S
C173 H196 0.930 . S
C174 C173 1.385 . S
C174 C175 1.395 . S
C174 H197 0.929 . S
C175 C174 1.395 . S
C175 C176 1.335 . S
C176 C175 1.335 . S
C176 C177 1.398 . S
C176 H198 0.930 . S
C177 C172 1.382 . S
C177 C176 1.398 . S
C177 H199 0.929 . S
C178 O188 1.271 . S
C178 O189 1.251 . S
C179 O190 1.252 . S
C179 O191 1.272 . S
O180 Sm160 2.543 . S
O180 C162 1.261 . S
O181 Sm160 2.450 . S
O181 C162 1.242 . S
O182 Sm160 2.681 . S
O182 Sm161 2.386 . S
O182 C169 1.271 . S
O183 Sm160 2.464 . S
O183 C169 1.251 . S
O184 Sm160 2.396 . S
O184 C170 1.252 . S
O185 Sm161 2.408 . S
O185 C170 1.272 . S
O186 Sm161 2.543 . S
O186 C171 1.261 . S
O187 Sm161 2.450 . S
O187 C171 1.242 . S
O188 Sm160 2.386 . S
O188 Sm161 2.681 . S
O188 C178 1.271 . S
O189 Sm161 2.464 . S
O189 C178 1.251 . S
O190 Sm161 2.396 . S
O190 C179 1.252 . S
O191 Sm160 2.408 . S
O191 C179 1.272 . S
H192 C164 0.930 . S
H193 C165 0.929 . S
H194 C167 0.930 . S
H195 C168 0.929 . S
H196 C173 0.930 . S
H197 C174 0.929 . S
H198 C176 0.930 . S
H199 C177 0.929 . S
Sm200 C202 2.846 . S
Sm200 O220 2.543 . S
Sm200 O221 2.450 . S
Sm200 O222 2.681 . S
Sm200 O223 2.464 . S
Sm200 O224 2.396 . S
Sm200 O228 2.386 . S
Sm200 O231 2.408 . S
Sm201 C211 2.846 . S
Sm201 O222 2.386 . S
Sm201 O225 2.408 . S
Sm201 O226 2.543 . S
Sm201 O227 2.450 . S
Sm201 O228 2.681 . S
Sm201 O229 2.464 . S
Sm201 O230 2.396 . S
C202 Sm200 2.846 . S
C202 C203 1.506 . S
C202 O220 1.261 . S
C202 O221 1.242 . S
C203 C202 1.506 . S
C203 C204 1.358 . S
C203 C208 1.382 . S
C204 C203 1.358 . S
C204 C205 1.385 1_655 S
C204 H232 0.930 . S
C205 C204 1.385 1_455 S
C205 C206 1.395 . S
C205 H233 0.929 . S
C206 C205 1.395 . S
C206 C207 1.335 . S
C207 C206 1.335 . S
C207 C208 1.398 1_455 S
C207 H234 0.930 . S
C208 C203 1.382 . S
C208 C207 1.398 1_655 S
C208 H235 0.929 . S
C209 O222 1.271 . S
C209 O223 1.251 . S
C210 O224 1.252 . S
C210 O225 1.272 . S
C211 Sm201 2.846 . S
C211 C212 1.506 . S
C211 O226 1.261 . S
C211 O227 1.242 . S
C212 C211 1.506 . S
C212 C213 1.358 . S
C212 C217 1.382 . S
C213 C212 1.358 . S
C213 C214 1.385 . S
C213 H236 0.930 . S
C214 C213 1.385 . S
C214 C215 1.395 . S
C214 H237 0.929 . S
C215 C214 1.395 . S
C215 C216 1.335 . S
C216 C215 1.335 . S
C216 C217 1.398 . S
C216 H238 0.930 . S
C217 C212 1.382 . S
C217 C216 1.398 . S
C217 H239 0.929 . S
C218 O228 1.271 . S
C218 O229 1.251 . S
C219 O230 1.252 . S
C219 O231 1.272 . S
O220 Sm200 2.543 . S
O220 C202 1.261 . S
O221 Sm200 2.450 . S
O221 C202 1.242 . S
O222 Sm200 2.681 . S
O222 Sm201 2.386 . S
O222 C209 1.271 . S
O223 Sm200 2.464 . S
O223 C209 1.251 . S
O224 Sm200 2.396 . S
O224 C210 1.252 . S
O225 Sm201 2.408 . S
O225 C210 1.272 . S
O226 Sm201 2.543 . S
O226 C211 1.261 . S
O227 Sm201 2.450 . S
O227 C211 1.242 . S
O228 Sm200 2.386 . S
O228 Sm201 2.681 . S
O228 C218 1.271 . S
O229 Sm201 2.464 . S
O229 C218 1.251 . S
O230 Sm201 2.396 . S
O230 C219 1.252 . S
O231 Sm200 2.408 . S
O231 C219 1.272 . S
H232 C204 0.930 . S
H233 C205 0.929 . S
H234 C207 0.930 . S
H235 C208 0.929 . S
H236 C213 0.930 . S
H237 C214 0.929 . S
H238 C216 0.930 . S
H239 C217 0.929 . S
Sm240 C242 2.846 . S
Sm240 O260 2.543 . S
Sm240 O261 2.450 . S
Sm240 O262 2.681 . S
Sm240 O263 2.464 . S
Sm240 O264 2.396 . S
Sm240 O268 2.386 . S
Sm240 O271 2.408 . S
Sm241 C251 2.846 . S
Sm241 O262 2.386 . S
Sm241 O265 2.408 . S
Sm241 O266 2.543 . S
Sm241 O267 2.450 . S
Sm241 O268 2.681 . S
Sm241 O269 2.464 . S
Sm241 O270 2.396 . S
C242 Sm240 2.846 . S
C242 C243 1.506 . S
C242 O260 1.261 . S
C242 O261 1.242 . S
C243 C242 1.506 . S
C243 C244 1.358 . S
C243 C248 1.382 . S
C244 C243 1.358 . S
C244 C245 1.385 1_455 S
C244 H272 0.930 . S
C245 C244 1.385 1_655 S
C245 C246 1.395 . S
C245 H273 0.929 . S
C246 C245 1.395 . S
C246 C247 1.335 . S
C247 C246 1.335 . S
C247 C248 1.398 1_655 S
C247 H274 0.930 . S
C248 C243 1.382 . S
C248 C247 1.398 1_455 S
C248 H275 0.929 . S
C249 O262 1.271 . S
C249 O263 1.251 . S
C250 O264 1.252 . S
C250 O265 1.272 . S
C251 Sm241 2.846 . S
C251 C252 1.506 . S
C251 O266 1.261 . S
C251 O267 1.242 . S
C252 C251 1.506 . S
C252 C253 1.358 . S
C252 C257 1.382 . S
C253 C252 1.358 . S
C253 C254 1.385 . S
C253 H276 0.930 . S
C254 C253 1.385 . S
C254 C255 1.395 . S
C254 H277 0.929 . S
C255 C254 1.395 . S
C255 C256 1.335 . S
C256 C255 1.335 . S
C256 C257 1.398 . S
C256 H278 0.930 . S
C257 C252 1.382 . S
C257 C256 1.398 . S
C257 H279 0.929 . S
C258 O268 1.271 . S
C258 O269 1.251 . S
C259 O270 1.252 . S
C259 O271 1.272 . S
O260 Sm240 2.543 . S
O260 C242 1.261 . S
O261 Sm240 2.450 . S
O261 C242 1.242 . S
O262 Sm240 2.681 . S
O262 Sm241 2.386 . S
O262 C249 1.271 . S
O263 Sm240 2.464 . S
O263 C249 1.251 . S
O264 Sm240 2.396 . S
O264 C250 1.252 . S
O265 Sm241 2.408 . S
O265 C250 1.272 . S
O266 Sm241 2.543 . S
O266 C251 1.261 . S
O267 Sm241 2.450 . S
O267 C251 1.242 . S
O268 Sm240 2.386 . S
O268 Sm241 2.681 . S
O268 C258 1.271 . S
O269 Sm241 2.464 . S
O269 C258 1.251 . S
O270 Sm241 2.396 . S
O270 C259 1.252 . S
O271 Sm240 2.408 . S
O271 C259 1.272 . S
H272 C244 0.930 . S
H273 C245 0.929 . S
H274 C247 0.930 . S
H275 C248 0.929 . S
H276 C253 0.930 . S
H277 C254 0.929 . S
H278 C256 0.930 . S
H279 C257 0.929 . S
Sm280 C282 2.846 . S
Sm280 O300 2.543 . S
Sm280 O301 2.450 . S
Sm280 O302 2.681 . S
Sm280 O303 2.464 . S
Sm280 O304 2.396 . S
Sm280 O308 2.386 . S
Sm280 O311 2.408 . S
Sm281 C291 2.846 . S
Sm281 O302 2.386 . S
Sm281 O305 2.408 . S
Sm281 O306 2.543 . S
Sm281 O307 2.450 . S
Sm281 O308 2.681 . S
Sm281 O309 2.464 . S
Sm281 O310 2.396 . S
C282 Sm280 2.846 . S
C282 C283 1.506 . S
C282 O300 1.261 . S
C282 O301 1.242 . S
C283 C282 1.506 . S
C283 C284 1.358 . S
C283 C288 1.382 . S
C284 C283 1.358 . S
C284 C285 1.385 . S
C284 H312 0.930 . S
C285 C284 1.385 . S
C285 C286 1.395 . S
C285 H313 0.929 . S
C286 C285 1.395 . S
C286 C287 1.335 . S
C287 C286 1.335 . S
C287 C288 1.398 . S
C287 H314 0.930 . S
C288 C283 1.382 . S
C288 C287 1.398 . S
C288 H315 0.929 . S
C289 O302 1.271 . S
C289 O303 1.251 . S
C290 O304 1.252 . S
C290 O305 1.272 . S
C291 Sm281 2.846 . S
C291 C292 1.506 . S
C291 O306 1.261 . S
C291 O307 1.242 . S
C292 C291 1.506 . S
C292 C293 1.358 . S
C292 C297 1.382 . S
C293 C292 1.358 . S
C293 C294 1.385 1_565 S
C293 H316 0.930 . S
C294 C293 1.385 1_545 S
C294 C295 1.395 . S
C294 H317 0.929 . S
C295 C294 1.395 . S
C295 C296 1.335 . S
C296 C295 1.335 . S
C296 C297 1.398 1_545 S
C296 H318 0.930 . S
C297 C292 1.382 . S
C297 C296 1.398 1_565 S
C297 H319 0.929 . S
C298 O308 1.271 . S
C298 O309 1.251 . S
C299 O310 1.252 . S
C299 O311 1.272 . S
O300 Sm280 2.543 . S
O300 C282 1.261 . S
O301 Sm280 2.450 . S
O301 C282 1.242 . S
O302 Sm280 2.681 . S
O302 Sm281 2.386 . S
O302 C289 1.271 . S
O303 Sm280 2.464 . S
O303 C289 1.251 . S
O304 Sm280 2.396 . S
O304 C290 1.252 . S
O305 Sm281 2.408 . S
O305 C290 1.272 . S
O306 Sm281 2.543 . S
O306 C291 1.261 . S
O307 Sm281 2.450 . S
O307 C291 1.242 . S
O308 Sm280 2.386 . S
O308 Sm281 2.681 . S
O308 C298 1.271 . S
O309 Sm281 2.464 . S
O309 C298 1.251 . S
O310 Sm281 2.396 . S
O310 C299 1.252 . S
O311 Sm280 2.408 . S
O311 C299 1.272 . S
H312 C284 0.930 . S
H313 C285 0.929 . S
H314 C287 0.930 . S
H315 C288 0.929 . S
H316 C293 0.930 . S
H317 C294 0.929 . S
H318 C296 0.930 . S
H319 C297 0.929 . S
Sm320 C322 2.846 . S
Sm320 O340 2.543 . S
Sm320 O341 2.450 . S
Sm320 O342 2.681 . S
Sm320 O343 2.464 . S
Sm320 O344 2.396 . S
Sm320 O348 2.386 . S
Sm320 O351 2.408 . S
Sm321 C331 2.846 . S
Sm321 O342 2.386 . S
Sm321 O345 2.408 . S
Sm321 O346 2.543 . S
Sm321 O347 2.450 . S
Sm321 O348 2.681 . S
Sm321 O349 2.464 . S
Sm321 O350 2.396 . S
C322 Sm320 2.846 . S
C322 C323 1.506 . S
C322 O340 1.261 . S
C322 O341 1.242 . S
C323 C322 1.506 . S
C323 C324 1.358 . S
C323 C328 1.382 . S
C324 C323 1.358 . S
C324 C325 1.385 . S
C324 H352 0.930 . S
C325 C324 1.385 . S
C325 C326 1.395 . S
C325 H353 0.929 . S
C326 C325 1.395 . S
C326 C327 1.335 . S
C327 C326 1.335 . S
C327 C328 1.398 . S
C327 H354 0.930 . S
C328 C323 1.382 . S
C328 C327 1.398 . S
C328 H355 0.929 . S
C329 O342 1.271 . S
C329 O343 1.251 . S
C330 O344 1.252 . S
C330 O345 1.272 . S
C331 Sm321 2.846 . S
C331 C332 1.506 . S
C331 O346 1.261 . S
C331 O347 1.242 . S
C332 C331 1.506 . S
C332 C333 1.358 . S
C332 C337 1.382 . S
C333 C332 1.358 . S
C333 C334 1.385 . S
C333 H356 0.930 . S
C334 C333 1.385 . S
C334 C335 1.395 . S
C334 H357 0.929 . S
C335 C334 1.395 . S
C335 C336 1.335 . S
C336 C335 1.335 . S
C336 C337 1.398 . S
C336 H358 0.930 . S
C337 C332 1.382 . S
C337 C336 1.398 . S
C337 H359 0.929 . S
C338 O348 1.271 . S
C338 O349 1.251 . S
C339 O350 1.252 . S
C339 O351 1.272 . S
O340 Sm320 2.543 . S
O340 C322 1.261 . S
O341 Sm320 2.450 . S
O341 C322 1.242 . S
O342 Sm320 2.681 . S
O342 Sm321 2.386 . S
O342 C329 1.271 . S
O343 Sm320 2.464 . S
O343 C329 1.251 . S
O344 Sm320 2.396 . S
O344 C330 1.252 . S
O345 Sm321 2.408 . S
O345 C330 1.272 . S
O346 Sm321 2.543 . S
O346 C331 1.261 . S
O347 Sm321 2.450 . S
O347 C331 1.242 . S
O348 Sm320 2.386 . S
O348 Sm321 2.681 . S
O348 C338 1.271 . S
O349 Sm321 2.464 . S
O349 C338 1.251 . S
O350 Sm321 2.396 . S
O350 C339 1.252 . S
O351 Sm320 2.408 . S
O351 C339 1.272 . S
H352 C324 0.930 . S
H353 C325 0.929 . S
H354 C327 0.930 . S
H355 C328 0.929 . S
H356 C333 0.930 . S
H357 C334 0.929 . S
H358 C336 0.930 . S
H359 C337 0.929 . S
Sm360 C362 2.846 . S
Sm360 O380 2.543 . S
Sm360 O381 2.450 . S
Sm360 O382 2.681 . S
Sm360 O383 2.464 . S
Sm360 O384 2.396 . S
Sm360 O388 2.386 . S
Sm360 O391 2.408 . S
Sm361 C371 2.846 . S
Sm361 O382 2.386 . S
Sm361 O385 2.408 . S
Sm361 O386 2.543 . S
Sm361 O387 2.450 . S
Sm361 O388 2.681 . S
Sm361 O389 2.464 . S
Sm361 O390 2.396 . S
C362 Sm360 2.846 . S
C362 C363 1.506 . S
C362 O380 1.261 . S
C362 O381 1.242 . S
C363 C362 1.506 . S
C363 C364 1.358 . S
C363 C368 1.382 . S
C364 C363 1.358 . S
C364 C365 1.385 . S
C364 H392 0.930 . S
C365 C364 1.385 . S
C365 C366 1.395 . S
C365 H393 0.929 . S
C366 C365 1.395 . S
C366 C367 1.335 . S
C367 C366 1.335 . S
C367 C368 1.398 . S
C367 H394 0.930 . S
C368 C363 1.382 . S
C368 C367 1.398 . S
C368 H395 0.929 . S
C369 O382 1.271 . S
C369 O383 1.251 . S
C370 O384 1.252 . S
C370 O385 1.272 . S
C371 Sm361 2.846 . S
C371 C372 1.506 . S
C371 O386 1.261 . S
C371 O387 1.242 . S
C372 C371 1.506 . S
C372 C373 1.358 . S
C372 C377 1.382 . S
C373 C372 1.358 . S
C373 C374 1.385 1_455 S
C373 H396 0.930 . S
C374 C373 1.385 1_655 S
C374 C375 1.395 . S
C374 H397 0.929 . S
C375 C374 1.395 . S
C375 C376 1.335 . S
C376 C375 1.335 . S
C376 C377 1.398 1_655 S
C376 H398 0.930 . S
C377 C372 1.382 . S
C377 C376 1.398 1_455 S
C377 H399 0.929 . S
C378 O388 1.271 . S
C378 O389 1.251 . S
C379 O390 1.252 . S
C379 O391 1.272 . S
O380 Sm360 2.543 . S
O380 C362 1.261 . S
O381 Sm360 2.450 . S
O381 C362 1.242 . S
O382 Sm360 2.681 . S
O382 Sm361 2.386 . S
O382 C369 1.271 . S
O383 Sm360 2.464 . S
O383 C369 1.251 . S
O384 Sm360 2.396 . S
O384 C370 1.252 . S
O385 Sm361 2.408 . S
O385 C370 1.272 . S
O386 Sm361 2.543 . S
O386 C371 1.261 . S
O387 Sm361 2.450 . S
O387 C371 1.242 . S
O388 Sm360 2.386 . S
O388 Sm361 2.681 . S
O388 C378 1.271 . S
O389 Sm361 2.464 . S
O389 C378 1.251 . S
O390 Sm361 2.396 . S
O390 C379 1.252 . S
O391 Sm360 2.408 . S
O391 C379 1.272 . S
H392 C364 0.930 . S
H393 C365 0.929 . S
H394 C367 0.930 . S
H395 C368 0.929 . S
H396 C373 0.930 . S
H397 C374 0.929 . S
H398 C376 0.930 . S
H399 C377 0.929 . S
Sm400 C402 2.846 . S
Sm400 O420 2.543 . S
Sm400 O421 2.450 . S
Sm400 O422 2.681 . S
Sm400 O423 2.464 . S
Sm400 O424 2.396 . S
Sm400 O428 2.386 . S
Sm400 O431 2.408 . S
Sm401 C411 2.846 . S
Sm401 O422 2.386 . S
Sm401 O425 2.408 . S
Sm401 O426 2.543 . S
Sm401 O427 2.450 . S
Sm401 O428 2.681 . S
Sm401 O429 2.464 . S
Sm401 O430 2.396 . S
C402 Sm400 2.846 . S
C402 C403 1.506 . S
C402 O420 1.261 . S
C402 O421 1.242 . S
C403 C402 1.506 . S
C403 C404 1.358 . S
C403 C408 1.382 . S
C404 C403 1.358 . S
C404 C405 1.385 1_565 S
C404 H432 0.930 . S
C405 C404 1.385 1_545 S
C405 C406 1.395 . S
C405 H433 0.929 . S
C406 C405 1.395 . S
C406 C407 1.335 . S
C407 C406 1.335 . S
C407 C408 1.398 1_545 S
C407 H434 0.930 . S
C408 C403 1.382 . S
C408 C407 1.398 1_565 S
C408 H435 0.929 . S
C409 O422 1.271 . S
C409 O423 1.251 . S
C410 O424 1.252 . S
C410 O425 1.272 . S
C411 Sm401 2.846 . S
C411 C412 1.506 . S
C411 O426 1.261 . S
C411 O427 1.242 . S
C412 C411 1.506 . S
C412 C413 1.358 . S
C412 C417 1.382 . S
C413 C412 1.358 . S
C413 C414 1.385 . S
C413 H436 0.930 . S
C414 C413 1.385 . S
C414 C415 1.395 . S
C414 H437 0.929 . S
C415 C414 1.395 . S
C415 C416 1.335 . S
C416 C415 1.335 . S
C416 C417 1.398 . S
C416 H438 0.930 . S
C417 C412 1.382 . S
C417 C416 1.398 . S
C417 H439 0.929 . S
C418 O428 1.271 . S
C418 O429 1.251 . S
C419 O430 1.252 . S
C419 O431 1.272 . S
O420 Sm400 2.543 . S
O420 C402 1.261 . S
O421 Sm400 2.450 . S
O421 C402 1.242 . S
O422 Sm400 2.681 . S
O422 Sm401 2.386 . S
O422 C409 1.271 . S
O423 Sm400 2.464 . S
O423 C409 1.251 . S
O424 Sm400 2.396 . S
O424 C410 1.252 . S
O425 Sm401 2.408 . S
O425 C410 1.272 . S
O426 Sm401 2.543 . S
O426 C411 1.261 . S
O427 Sm401 2.450 . S
O427 C411 1.242 . S
O428 Sm400 2.386 . S
O428 Sm401 2.681 . S
O428 C418 1.271 . S
O429 Sm401 2.464 . S
O429 C418 1.251 . S
O430 Sm401 2.396 . S
O430 C419 1.252 . S
O431 Sm400 2.408 . S
O431 C419 1.272 . S
H432 C404 0.930 . S
H433 C405 0.929 . S
H434 C407 0.930 . S
H435 C408 0.929 . S
H436 C413 0.930 . S
H437 C414 0.929 . S
H438 C416 0.930 . S
H439 C417 0.929 . S
Sm440 C442 2.846 . S
Sm440 O460 2.543 . S
Sm440 O461 2.450 . S
Sm440 O462 2.681 . S
Sm440 O463 2.464 . S
Sm440 O464 2.396 . S
Sm440 O468 2.386 . S
Sm440 O471 2.408 . S
Sm441 C451 2.846 . S
Sm441 O462 2.386 . S
Sm441 O465 2.408 . S
Sm441 O466 2.543 . S
Sm441 O467 2.450 . S
Sm441 O468 2.681 . S
Sm441 O469 2.464 . S
Sm441 O470 2.396 . S
C442 Sm440 2.846 . S
C442 C443 1.506 . S
C442 O460 1.261 . S
C442 O461 1.242 . S
C443 C442 1.506 . S
C443 C444 1.358 . S
C443 C448 1.382 . S
C444 C443 1.358 . S
C444 C445 1.385 . S
C444 H472 0.930 . S
C445 C444 1.385 . S
C445 C446 1.395 . S
C445 H473 0.929 . S
C446 C445 1.395 . S
C446 C447 1.335 . S
C447 C446 1.335 . S
C447 C448 1.398 . S
C447 H474 0.930 . S
C448 C443 1.382 . S
C448 C447 1.398 . S
C448 H475 0.929 . S
C449 O462 1.271 . S
C449 O463 1.251 . S
C450 O464 1.252 . S
C450 O465 1.272 . S
C451 Sm441 2.846 . S
C451 C452 1.506 . S
C451 O466 1.261 . S
C451 O467 1.242 . S
C452 C451 1.506 . S
C452 C453 1.358 . S
C452 C457 1.382 . S
C453 C452 1.358 . S
C453 C454 1.385 . S
C453 H476 0.930 . S
C454 C453 1.385 . S
C454 C455 1.395 . S
C454 H477 0.929 . S
C455 C454 1.395 . S
C455 C456 1.335 . S
C456 C455 1.335 . S
C456 C457 1.398 . S
C456 H478 0.930 . S
C457 C452 1.382 . S
C457 C456 1.398 . S
C457 H479 0.929 . S
C458 O468 1.271 . S
C458 O469 1.251 . S
C459 O470 1.252 . S
C459 O471 1.272 . S
O460 Sm440 2.543 . S
O460 C442 1.261 . S
O461 Sm440 2.450 . S
O461 C442 1.242 . S
O462 Sm440 2.681 . S
O462 Sm441 2.386 . S
O462 C449 1.271 . S
O463 Sm440 2.464 . S
O463 C449 1.251 . S
O464 Sm440 2.396 . S
O464 C450 1.252 . S
O465 Sm441 2.408 . S
O465 C450 1.272 . S
O466 Sm441 2.543 . S
O466 C451 1.261 . S
O467 Sm441 2.450 . S
O467 C451 1.242 . S
O468 Sm440 2.386 . S
O468 Sm441 2.681 . S
O468 C458 1.271 . S
O469 Sm441 2.464 . S
O469 C458 1.251 . S
O470 Sm441 2.396 . S
O470 C459 1.252 . S
O471 Sm440 2.408 . S
O471 C459 1.272 . S
H472 C444 0.930 . S
H473 C445 0.929 . S
H474 C447 0.930 . S
H475 C448 0.929 . S
H476 C453 0.930 . S
H477 C454 0.929 . S
H478 C456 0.930 . S
H479 C457 0.929 . S
H480 C498 0.951 . S
H481 C500 0.951 . S
H482 C502 0.950 . S
H483 C503 0.950 . S
H484 C505 0.950 . S
H485 C508 0.950 . S
H486 C509 0.950 . S
H487 C511 0.950 . S
H488 C512 0.950 . S
H489 C513 0.951 . S
H490 C515 0.951 . S
H491 C517 0.950 . S
H492 C518 0.950 . S
H493 C520 0.950 . S
H494 C523 0.950 . S
H495 C524 0.950 . S
H496 C526 0.950 . S
H497 C527 0.950 . S
C498 H480 0.951 . S
C498 C499 1.366 . S
C498 C500 1.388 . S
C499 C498 1.366 . S
C499 C503 1.385 . S
C500 H481 0.951 . S
C500 C498 1.388 . S
C500 C501 1.366 . S
C501 C500 1.366 . S
C501 C502 1.414 . S
C501 C504 1.499 . S
C502 H482 0.950 . S
C502 C501 1.414 . S
C502 C503 1.374 . S
C503 H483 0.950 . S
C503 C499 1.385 . S
C503 C502 1.374 . S
C504 C501 1.499 . S
C504 C505 1.373 . S
C504 C506 1.389 . S
C505 H484 0.950 . S
C505 C504 1.373 . S
C505 C521 1.377 . S
C506 C504 1.389 . S
C506 C507 1.524 . S
C506 C520 1.377 . S
C507 C506 1.524 . S
C507 C508 1.397 . S
C507 C512 1.363 . S
C508 H485 0.950 . S
C508 C507 1.397 . S
C508 C509 1.334 . S
C509 H486 0.950 . S
C509 C508 1.334 . S
C509 C510 1.287 . S
C510 C509 1.287 . S
C510 C511 1.524 . S
C510 H529 0.913 . S
C511 H487 0.950 . S
C511 C510 1.524 . S
C511 C512 1.415 . S
C512 H488 0.950 . S
C512 C507 1.363 . S
C512 C511 1.415 . S
C513 H489 0.951 . S
C513 C514 1.366 . S
C513 C515 1.388 . S
C514 C513 1.366 . S
C514 C518 1.385 . S
C515 H490 0.951 . S
C515 C513 1.388 . S
C515 C516 1.366 . S
C516 C515 1.366 . S
C516 C517 1.414 . S
C516 C519 1.499 . S
C517 H491 0.950 . S
C517 C516 1.414 . S
C517 C518 1.374 . S
C518 H492 0.950 . S
C518 C514 1.385 . S
C518 C517 1.374 . S
C519 C516 1.499 . S
C519 C520 1.373 . S
C519 C521 1.389 . S
C520 H493 0.950 . S
C520 C506 1.377 . S
C520 C519 1.373 . S
C521 C505 1.377 . S
C521 C519 1.389 . S
C521 C522 1.524 . S
C522 C521 1.524 . S
C522 C523 1.397 . S
C522 C527 1.363 . S
C523 H494 0.950 . S
C523 C522 1.397 . S
C523 C524 1.334 . S
C524 H495 0.950 . S
C524 C523 1.334 . S
C524 C525 1.287 . S
C525 C524 1.287 . S
C525 C526 1.524 . S
C525 H528 0.999 . S
C526 H496 0.950 . S
C526 C525 1.524 . S
C526 C527 1.415 . S
C527 H497 0.950 . S
C527 C522 1.363 . S
C527 C526 1.415 . S
H528 C525 0.999 . S
H529 C510 0.913 . S
H530 C548 0.951 . S
H531 C550 0.951 . S
H532 C552 0.950 . S
H533 C553 0.950 . S
H534 C555 0.950 . S
H535 C558 0.950 . S
H536 C559 0.950 . S
H537 C561 0.950 . S
H538 C562 0.950 . S
H539 C563 0.951 . S
H540 C565 0.951 . S
H541 C567 0.950 . S
H542 C568 0.950 . S
H543 C570 0.950 . S
H544 C573 0.950 . S
H545 C574 0.950 . S
H546 C576 0.950 . S
H547 C577 0.950 . S
C548 H530 0.951 . S
C548 C549 1.366 . S
C548 C550 1.388 . S
C549 C548 1.366 . S
C549 C553 1.385 . S
C550 H531 0.951 . S
C550 C548 1.388 . S
C550 C551 1.366 . S
C551 C550 1.366 . S
C551 C552 1.414 . S
C551 C554 1.499 . S
C552 H532 0.950 . S
C552 C551 1.414 . S
C552 C553 1.374 . S
C553 H533 0.950 . S
C553 C549 1.385 . S
C553 C552 1.374 . S
C554 C551 1.499 . S
C554 C555 1.373 . S
C554 C556 1.389 . S
C555 H534 0.950 . S
C555 C554 1.373 . S
C555 C571 1.377 1_455 S
C556 C554 1.389 . S
C556 C557 1.524 . S
C556 C570 1.377 1_455 S
C557 C556 1.524 . S
C557 C558 1.397 . S
C557 C562 1.363 . S
C558 H535 0.950 . S
C558 C557 1.397 . S
C558 C559 1.334 . S
C559 H536 0.950 . S
C559 C558 1.334 . S
C559 C560 1.287 . S
C560 C559 1.287 . S
C560 C561 1.524 . S
C560 H579 0.913 . S
C561 H537 0.950 . S
C561 C560 1.524 . S
C561 C562 1.415 . S
C562 H538 0.950 . S
C562 C557 1.363 . S
C562 C561 1.415 . S
C563 H539 0.951 . S
C563 C564 1.366 . S
C563 C565 1.388 . S
C564 C563 1.366 . S
C564 C568 1.385 . S
C565 H540 0.951 . S
C565 C563 1.388 . S
C565 C566 1.366 . S
C566 C565 1.366 . S
C566 C567 1.414 . S
C566 C569 1.499 . S
C567 H541 0.950 . S
C567 C566 1.414 . S
C567 C568 1.374 . S
C568 H542 0.950 . S
C568 C564 1.385 . S
C568 C567 1.374 . S
C569 C566 1.499 . S
C569 C570 1.373 . S
C569 C571 1.389 . S
C570 H543 0.950 . S
C570 C556 1.377 1_655 S
C570 C569 1.373 . S
C571 C555 1.377 1_655 S
C571 C569 1.389 . S
C571 C572 1.524 . S
C572 C571 1.524 . S
C572 C573 1.397 . S
C572 C577 1.363 . S
C573 H544 0.950 . S
C573 C572 1.397 . S
C573 C574 1.334 . S
C574 H545 0.950 . S
C574 C573 1.334 . S
C574 C575 1.287 . S
C575 C574 1.287 . S
C575 C576 1.524 . S
C575 H578 0.999 . S
C576 H546 0.950 . S
C576 C575 1.524 . S
C576 C577 1.415 . S
C577 H547 0.950 . S
C577 C572 1.363 . S
C577 C576 1.415 . S
H578 C575 0.999 . S
H579 C560 0.913 . S
H580 C598 0.951 . S
H581 C600 0.951 . S
H582 C602 0.950 . S
H583 C603 0.950 . S
H584 C605 0.950 . S
H585 C608 0.950 . S
H586 C609 0.950 . S
H587 C611 0.950 . S
H588 C612 0.950 . S
H589 C613 0.951 . S
H590 C615 0.951 . S
H591 C617 0.950 . S
H592 C618 0.950 . S
H593 C620 0.950 . S
H594 C623 0.950 . S
H595 C624 0.950 . S
H596 C626 0.950 . S
H597 C627 0.950 . S
C598 H580 0.951 . S
C598 C599 1.366 . S
C598 C600 1.388 . S
C599 C598 1.366 . S
C599 C603 1.385 . S
C600 H581 0.951 . S
C600 C598 1.388 . S
C600 C601 1.366 . S
C601 C600 1.366 . S
C601 C602 1.414 . S
C601 C604 1.499 . S
C602 H582 0.950 . S
C602 C601 1.414 . S
C602 C603 1.374 . S
C603 H583 0.950 . S
C603 C599 1.385 . S
C603 C602 1.374 . S
C604 C601 1.499 . S
C604 C605 1.373 . S
C604 C606 1.389 . S
C605 H584 0.950 . S
C605 C604 1.373 . S
C605 C621 1.377 1_545 S
C606 C604 1.389 . S
C606 C607 1.524 . S
C606 C620 1.377 1_545 S
C607 C606 1.524 . S
C607 C608 1.397 . S
C607 C612 1.363 . S
C608 H585 0.950 . S
C608 C607 1.397 . S
C608 C609 1.334 . S
C609 H586 0.950 . S
C609 C608 1.334 . S
C609 C610 1.287 . S
C610 C609 1.287 . S
C610 C611 1.524 . S
C610 H629 0.913 . S
C611 H587 0.950 . S
C611 C610 1.524 . S
C611 C612 1.415 . S
C612 H588 0.950 . S
C612 C607 1.363 . S
C612 C611 1.415 . S
C613 H589 0.951 . S
C613 C614 1.366 . S
C613 C615 1.388 . S
C614 C613 1.366 . S
C614 C618 1.385 . S
C615 H590 0.951 . S
C615 C613 1.388 . S
C615 C616 1.366 . S
C616 C615 1.366 . S
C616 C617 1.414 . S
C616 C619 1.499 . S
C617 H591 0.950 . S
C617 C616 1.414 . S
C617 C618 1.374 . S
C618 H592 0.950 . S
C618 C614 1.385 . S
C618 C617 1.374 . S
C619 C616 1.499 . S
C619 C620 1.373 . S
C619 C621 1.389 . S
C620 H593 0.950 . S
C620 C606 1.377 1_565 S
C620 C619 1.373 . S
C621 C605 1.377 1_565 S
C621 C619 1.389 . S
C621 C622 1.524 . S
C622 C621 1.524 . S
C622 C623 1.397 . S
C622 C627 1.363 . S
C623 H594 0.950 . S
C623 C622 1.397 . S
C623 C624 1.334 . S
C624 H595 0.950 . S
C624 C623 1.334 . S
C624 C625 1.287 . S
C625 C624 1.287 . S
C625 C626 1.524 . S
C625 H628 0.999 . S
C626 H596 0.950 . S
C626 C625 1.524 . S
C626 C627 1.415 . S
C627 H597 0.950 . S
C627 C622 1.363 . S
C627 C626 1.415 . S
H628 C625 0.999 . S
H629 C610 0.913 . S
H630 C648 0.951 . S
H631 C650 0.951 . S
H632 C652 0.950 . S
H633 C653 0.950 . S
H634 C655 0.950 . S
H635 C658 0.950 . S
H636 C659 0.950 . S
H637 C661 0.950 . S
H638 C662 0.950 . S
H639 C663 0.951 . S
H640 C665 0.951 . S
H641 C667 0.950 . S
H642 C668 0.950 . S
H643 C670 0.950 . S
H644 C673 0.950 . S
H645 C674 0.950 . S
H646 C676 0.950 . S
H647 C677 0.950 . S
C648 H630 0.951 . S
C648 C649 1.366 . S
C648 C650 1.388 . S
C649 C648 1.366 . S
C649 C653 1.385 . S
C650 H631 0.951 . S
C650 C648 1.388 . S
C650 C651 1.366 . S
C651 C650 1.366 . S
C651 C652 1.414 . S
C651 C654 1.499 . S
C652 H632 0.950 . S
C652 C651 1.414 . S
C652 C653 1.374 . S
C653 H633 0.950 . S
C653 C649 1.385 . S
C653 C652 1.374 . S
C654 C651 1.499 . S
C654 C655 1.373 . S
C654 C656 1.389 . S
C655 H634 0.950 . S
C655 C654 1.373 . S
C655 C671 1.377 . S
C656 C654 1.389 . S
C656 C657 1.524 . S
C656 C670 1.377 . S
C657 C656 1.524 . S
C657 C658 1.397 . S
C657 C662 1.363 . S
C658 H635 0.950 . S
C658 C657 1.397 . S
C658 C659 1.334 . S
C659 H636 0.950 . S
C659 C658 1.334 . S
C659 C660 1.287 . S
C660 C659 1.287 . S
C660 C661 1.524 . S
C660 H679 0.913 . S
C661 H637 0.950 . S
C661 C660 1.524 . S
C661 C662 1.415 . S
C662 H638 0.950 . S
C662 C657 1.363 . S
C662 C661 1.415 . S
C663 H639 0.951 . S
C663 C664 1.366 . S
C663 C665 1.388 . S
C664 C663 1.366 . S
C664 C668 1.385 . S
C665 H640 0.951 . S
C665 C663 1.388 . S
C665 C666 1.366 . S
C666 C665 1.366 . S
C666 C667 1.414 . S
C666 C669 1.499 . S
C667 H641 0.950 . S
C667 C666 1.414 . S
C667 C668 1.374 . S
C668 H642 0.950 . S
C668 C664 1.385 . S
C668 C667 1.374 . S
C669 C666 1.499 . S
C669 C670 1.373 . S
C669 C671 1.389 . S
C670 H643 0.950 . S
C670 C656 1.377 . S
C670 C669 1.373 . S
C671 C655 1.377 . S
C671 C669 1.389 . S
C671 C672 1.524 . S
C672 C671 1.524 . S
C672 C673 1.397 . S
C672 C677 1.363 . S
C673 H644 0.950 . S
C673 C672 1.397 . S
C673 C674 1.334 . S
C674 H645 0.950 . S
C674 C673 1.334 . S
C674 C675 1.287 . S
C675 C674 1.287 . S
C675 C676 1.524 . S
C675 H678 0.999 . S
C676 H646 0.950 . S
C676 C675 1.524 . S
C676 C677 1.415 . S
C677 H647 0.950 . S
C677 C672 1.363 . S
C677 C676 1.415 . S
H678 C675 0.999 . S
H679 C660 0.913 . S
H680 C698 0.951 . S
H681 C700 0.951 . S
H682 C702 0.950 . S
H683 C703 0.950 . S
H684 C705 0.950 . S
H685 C708 0.950 . S
H686 C709 0.950 . S
H687 C711 0.950 . S
H688 C712 0.950 . S
H689 C713 0.951 . S
H690 C715 0.951 . S
H691 C717 0.950 . S
H692 C718 0.950 . S
H693 C720 0.950 . S
H694 C723 0.950 . S
H695 C724 0.950 . S
H696 C726 0.950 . S
H697 C727 0.950 . S
C698 H680 0.951 . S
C698 C699 1.366 . S
C698 C700 1.388 . S
C699 C698 1.366 . S
C699 C703 1.385 . S
C700 H681 0.951 . S
C700 C698 1.388 . S
C700 C701 1.366 . S
C701 C700 1.366 . S
C701 C702 1.414 . S
C701 C704 1.499 . S
C702 H682 0.950 . S
C702 C701 1.414 . S
C702 C703 1.374 . S
C703 H683 0.950 . S
C703 C699 1.385 . S
C703 C702 1.374 . S
C704 C701 1.499 . S
C704 C705 1.373 . S
C704 C706 1.389 . S
C705 H684 0.950 . S
C705 C704 1.373 . S
C705 C721 1.377 1_455 S
C706 C704 1.389 . S
C706 C707 1.524 . S
C706 C720 1.377 1_455 S
C707 C706 1.524 . S
C707 C708 1.397 . S
C707 C712 1.363 . S
C708 H685 0.950 . S
C708 C707 1.397 . S
C708 C709 1.334 . S
C709 H686 0.950 . S
C709 C708 1.334 . S
C709 C710 1.287 . S
C710 C709 1.287 . S
C710 C711 1.524 . S
C710 H729 0.913 . S
C711 H687 0.950 . S
C711 C710 1.524 . S
C711 C712 1.415 . S
C712 H688 0.950 . S
C712 C707 1.363 . S
C712 C711 1.415 . S
C713 H689 0.951 . S
C713 C714 1.366 . S
C713 C715 1.388 . S
C714 C713 1.366 . S
C714 C718 1.385 . S
C715 H690 0.951 . S
C715 C713 1.388 . S
C715 C716 1.366 . S
C716 C715 1.366 . S
C716 C717 1.414 . S
C716 C719 1.499 . S
C717 H691 0.950 . S
C717 C716 1.414 . S
C717 C718 1.374 . S
C718 H692 0.950 . S
C718 C714 1.385 . S
C718 C717 1.374 . S
C719 C716 1.499 . S
C719 C720 1.373 . S
C719 C721 1.389 . S
C720 H693 0.950 . S
C720 C706 1.377 1_655 S
C720 C719 1.373 . S
C721 C705 1.377 1_655 S
C721 C719 1.389 . S
C721 C722 1.524 . S
C722 C721 1.524 . S
C722 C723 1.397 . S
C722 C727 1.363 . S
C723 H694 0.950 . S
C723 C722 1.397 . S
C723 C724 1.334 . S
C724 H695 0.950 . S
C724 C723 1.334 . S
C724 C725 1.287 . S
C725 C724 1.287 . S
C725 C726 1.524 . S
C725 H728 0.999 . S
C726 H696 0.950 . S
C726 C725 1.524 . S
C726 C727 1.415 . S
C727 H697 0.950 . S
C727 C722 1.363 . S
C727 C726 1.415 . S
H728 C725 0.999 . S
H729 C710 0.913 . S
H730 C748 0.951 . S
H731 C750 0.951 . S
H732 C752 0.950 . S
H733 C753 0.950 . S
H734 C755 0.950 . S
H735 C758 0.950 . S
H736 C759 0.950 . S
H737 C761 0.950 . S
H738 C762 0.950 . S
H739 C763 0.951 . S
H740 C765 0.951 . S
H741 C767 0.950 . S
H742 C768 0.950 . S
H743 C770 0.950 . S
H744 C773 0.950 . S
H745 C774 0.950 . S
H746 C776 0.950 . S
H747 C777 0.950 . S
C748 H730 0.951 . S
C748 C749 1.366 . S
C748 C750 1.388 . S
C749 C748 1.366 . S
C749 C753 1.385 . S
C750 H731 0.951 . S
C750 C748 1.388 . S
C750 C751 1.366 . S
C751 C750 1.366 . S
C751 C752 1.414 . S
C751 C754 1.499 . S
C752 H732 0.950 . S
C752 C751 1.414 . S
C752 C753 1.374 . S
C753 H733 0.950 . S
C753 C749 1.385 . S
C753 C752 1.374 . S
C754 C751 1.499 . S
C754 C755 1.373 . S
C754 C756 1.389 . S
C755 H734 0.950 . S
C755 C754 1.373 . S
C755 C771 1.377 1_565 S
C756 C754 1.389 . S
C756 C757 1.524 . S
C756 C770 1.377 1_565 S
C757 C756 1.524 . S
C757 C758 1.397 . S
C757 C762 1.363 . S
C758 H735 0.950 . S
C758 C757 1.397 . S
C758 C759 1.334 . S
C759 H736 0.950 . S
C759 C758 1.334 . S
C759 C760 1.287 . S
C760 C759 1.287 . S
C760 C761 1.524 . S
C760 H779 0.913 . S
C761 H737 0.950 . S
C761 C760 1.524 . S
C761 C762 1.415 . S
C762 H738 0.950 . S
C762 C757 1.363 . S
C762 C761 1.415 . S
C763 H739 0.951 . S
C763 C764 1.366 . S
C763 C765 1.388 . S
C764 C763 1.366 . S
C764 C768 1.385 . S
C765 H740 0.951 . S
C765 C763 1.388 . S
C765 C766 1.366 . S
C766 C765 1.366 . S
C766 C767 1.414 . S
C766 C769 1.499 . S
C767 H741 0.950 . S
C767 C766 1.414 . S
C767 C768 1.374 . S
C768 H742 0.950 . S
C768 C764 1.385 . S
C768 C767 1.374 . S
C769 C766 1.499 . S
C769 C770 1.373 . S
C769 C771 1.389 . S
C770 H743 0.950 . S
C770 C756 1.377 1_545 S
C770 C769 1.373 . S
C771 C755 1.377 1_545 S
C771 C769 1.389 . S
C771 C772 1.524 . S
C772 C771 1.524 . S
C772 C773 1.397 . S
C772 C777 1.363 . S
C773 H744 0.950 . S
C773 C772 1.397 . S
C773 C774 1.334 . S
C774 H745 0.950 . S
C774 C773 1.334 . S
C774 C775 1.287 . S
C775 C774 1.287 . S
C775 C776 1.524 . S
C775 H778 0.999 . S
C776 H746 0.950 . S
C776 C775 1.524 . S
C776 C777 1.415 . S
C777 H747 0.950 . S
C777 C772 1.363 . S
C777 C776 1.415 . S
H778 C775 0.999 . S
H779 C760 0.913 . S
H780 C798 0.951 . S
H781 C800 0.951 . S
H782 C802 0.950 . S
H783 C803 0.950 . S
H784 C805 0.950 . S
H785 C808 0.950 . S
H786 C809 0.950 . S
H787 C811 0.950 . S
H788 C812 0.950 . S
H789 C813 0.951 . S
H790 C815 0.951 . S
H791 C817 0.950 . S
H792 C818 0.950 . S
H793 C820 0.950 . S
H794 C823 0.950 . S
H795 C824 0.950 . S
H796 C826 0.950 . S
H797 C827 0.950 . S
C798 H780 0.951 . S
C798 C799 1.366 . S
C798 C800 1.388 . S
C799 C798 1.366 . S
C799 C803 1.385 . S
C800 H781 0.951 . S
C800 C798 1.388 . S
C800 C801 1.366 . S
C801 C800 1.366 . S
C801 C802 1.414 . S
C801 C804 1.499 . S
C802 H782 0.950 . S
C802 C801 1.414 . S
C802 C803 1.374 . S
C803 H783 0.950 . S
C803 C799 1.385 . S
C803 C802 1.374 . S
C804 C801 1.499 . S
C804 C805 1.373 . S
C804 C806 1.389 . S
C805 H784 0.950 . S
C805 C804 1.373 . S
C805 C821 1.377 . S
C806 C804 1.389 . S
C806 C807 1.524 . S
C806 C820 1.377 . S
C807 C806 1.524 . S
C807 C808 1.397 . S
C807 C812 1.363 . S
C808 H785 0.950 . S
C808 C807 1.397 . S
C808 C809 1.334 . S
C809 H786 0.950 . S
C809 C808 1.334 . S
C809 C810 1.287 . S
C810 C809 1.287 . S
C810 C811 1.524 . S
C810 H829 0.913 . S
C811 H787 0.950 . S
C811 C810 1.524 . S
C811 C812 1.415 . S
C812 H788 0.950 . S
C812 C807 1.363 . S
C812 C811 1.415 . S
C813 H789 0.951 . S
C813 C814 1.366 . S
C813 C815 1.388 . S
C814 C813 1.366 . S
C814 C818 1.385 . S
C815 H790 0.951 . S
C815 C813 1.388 . S
C815 C816 1.366 . S
C816 C815 1.366 . S
C816 C817 1.414 . S
C816 C819 1.499 . S
C817 H791 0.950 . S
C817 C816 1.414 . S
C817 C818 1.374 . S
C818 H792 0.950 . S
C818 C814 1.385 . S
C818 C817 1.374 . S
C819 C816 1.499 . S
C819 C820 1.373 . S
C819 C821 1.389 . S
C820 H793 0.950 . S
C820 C806 1.377 . S
C820 C819 1.373 . S
C821 C805 1.377 . S
C821 C819 1.389 . S
C821 C822 1.524 . S
C822 C821 1.524 . S
C822 C823 1.397 . S
C822 C827 1.363 . S
C823 H794 0.950 . S
C823 C822 1.397 . S
C823 C824 1.334 . S
C824 H795 0.950 . S
C824 C823 1.334 . S
C824 C825 1.287 . S
C825 C824 1.287 . S
C825 C826 1.524 . S
C825 H828 0.999 . S
C826 H796 0.950 . S
C826 C825 1.524 . S
C826 C827 1.415 . S
C827 H797 0.950 . S
C827 C822 1.363 . S
C827 C826 1.415 . S
H828 C825 0.999 . S
H829 C810 0.913 . S
H830 C848 0.951 . S
H831 C850 0.951 . S
H832 C852 0.950 . S
H833 C853 0.950 . S
H834 C855 0.950 . S
H835 C858 0.950 . S
H836 C859 0.950 . S
H837 C861 0.950 . S
H838 C862 0.950 1_655 S
H839 C863 0.951 . S
H840 C865 0.951 . S
H841 C867 0.950 . S
H842 C868 0.950 . S
H843 C870 0.950 . S
H844 C873 0.950 . S
H845 C874 0.950 . S
H846 C876 0.950 . S
H847 C877 0.950 . S
C848 H830 0.951 . S
C848 C849 1.366 . S
C848 C850 1.388 . S
C849 C848 1.366 . S
C849 C853 1.385 . S
C850 H831 0.951 . S
C850 C848 1.388 . S
C850 C851 1.366 . S
C851 C850 1.366 . S
C851 C852 1.414 . S
C851 C854 1.499 . S
C852 H832 0.950 . S
C852 C851 1.414 . S
C852 C853 1.374 . S
C853 H833 0.950 . S
C853 C849 1.385 . S
C853 C852 1.374 . S
C854 C851 1.499 . S
C854 C855 1.373 . S
C854 C856 1.389 . S
C855 H834 0.950 . S
C855 C854 1.373 . S
C855 C871 1.377 1_455 S
C856 C854 1.389 . S
C856 C857 1.524 . S
C856 C870 1.377 1_455 S
C857 C856 1.524 . S
C857 C858 1.397 . S
C857 C862 1.363 . S
C858 H835 0.950 . S
C858 C857 1.397 . S
C858 C859 1.334 . S
C859 H836 0.950 . S
C859 C858 1.334 . S
C859 C860 1.287 . S
C860 C859 1.287 . S
C860 C861 1.524 . S
C860 H879 0.913 . S
C861 H837 0.950 . S
C861 C860 1.524 . S
C861 C862 1.415 . S
C862 H838 0.950 1_455 S
C862 C857 1.363 . S
C862 C861 1.415 . S
C863 H839 0.951 . S
C863 C864 1.366 . S
C863 C865 1.388 . S
C864 C863 1.366 . S
C864 C868 1.385 . S
C865 H840 0.951 . S
C865 C863 1.388 . S
C865 C866 1.366 . S
C866 C865 1.366 . S
C866 C867 1.414 . S
C866 C869 1.499 . S
C867 H841 0.950 . S
C867 C866 1.414 . S
C867 C868 1.374 . S
C868 H842 0.950 . S
C868 C864 1.385 . S
C868 C867 1.374 . S
C869 C866 1.499 . S
C869 C870 1.373 . S
C869 C871 1.389 . S
C870 H843 0.950 . S
C870 C856 1.377 1_655 S
C870 C869 1.373 . S
C871 C855 1.377 1_655 S
C871 C869 1.389 . S
C871 C872 1.524 . S
C872 C871 1.524 . S
C872 C873 1.397 . S
C872 C877 1.363 . S
C873 H844 0.950 . S
C873 C872 1.397 . S
C873 C874 1.334 . S
C874 H845 0.950 . S
C874 C873 1.334 . S
C874 C875 1.287 . S
C875 C874 1.287 . S
C875 C876 1.524 . S
C875 H878 0.999 . S
C876 H846 0.950 . S
C876 C875 1.524 . S
C876 C877 1.415 . S
C877 H847 0.950 . S
C877 C872 1.363 . S
C877 C876 1.415 . S
H878 C875 0.999 . S
H879 C860 0.913 . S
H880 C898 0.951 . S
H881 C900 0.951 . S
H882 C902 0.950 . S
H883 C903 0.950 . S
H884 C905 0.950 . S
H885 C908 0.950 . S
H886 C909 0.950 . S
H887 C911 0.950 1_545 S
H888 C912 0.950 . S
H889 C913 0.951 . S
H890 C915 0.951 . S
H891 C917 0.950 . S
H892 C918 0.950 . S
H893 C920 0.950 . S
H894 C923 0.950 . S
H895 C924 0.950 . S
H896 C926 0.950 . S
H897 C927 0.950 1_565 S
C898 H880 0.951 . S
C898 C899 1.366 . S
C898 C900 1.388 . S
C899 C898 1.366 . S
C899 C903 1.385 . S
C900 H881 0.951 . S
C900 C898 1.388 . S
C900 C901 1.366 . S
C901 C900 1.366 . S
C901 C902 1.414 . S
C901 C904 1.499 . S
C902 H882 0.950 . S
C902 C901 1.414 . S
C902 C903 1.374 . S
C903 H883 0.950 . S
C903 C899 1.385 . S
C903 C902 1.374 . S
C904 C901 1.499 . S
C904 C905 1.373 . S
C904 C906 1.389 . S
C905 H884 0.950 . S
C905 C904 1.373 . S
C905 C921 1.377 1_565 S
C906 C904 1.389 . S
C906 C907 1.524 . S
C906 C920 1.377 1_565 S
C907 C906 1.524 . S
C907 C908 1.397 . S
C907 C912 1.363 1_565 S
C908 H885 0.950 . S
C908 C907 1.397 . S
C908 C909 1.334 . S
C909 H886 0.950 . S
C909 C908 1.334 . S
C909 C910 1.287 . S
C910 C909 1.287 . S
C910 C911 1.524 . S
C910 H929 0.913 . S
C911 H887 0.950 1_565 S
C911 C910 1.524 . S
C911 C912 1.415 1_565 S
C912 H888 0.950 . S
C912 C907 1.363 1_545 S
C912 C911 1.415 1_545 S
C913 H889 0.951 . S
C913 C914 1.366 . S
C913 C915 1.388 . S
C914 C913 1.366 . S
C914 C918 1.385 . S
C915 H890 0.951 . S
C915 C913 1.388 . S
C915 C916 1.366 . S
C916 C915 1.366 . S
C916 C917 1.414 . S
C916 C919 1.499 . S
C917 H891 0.950 . S
C917 C916 1.414 . S
C917 C918 1.374 . S
C918 H892 0.950 . S
C918 C914 1.385 . S
C918 C917 1.374 . S
C919 C916 1.499 . S
C919 C920 1.373 . S
C919 C921 1.389 . S
C920 H893 0.950 . S
C920 C906 1.377 1_545 S
C920 C919 1.373 . S
C921 C905 1.377 1_545 S
C921 C919 1.389 . S
C921 C922 1.524 . S
C922 C921 1.524 . S
C922 C923 1.397 . S
C922 C927 1.363 . S
C923 H894 0.950 . S
C923 C922 1.397 . S
C923 C924 1.334 . S
C924 H895 0.950 . S
C924 C923 1.334 . S
C924 C925 1.287 . S
C925 C924 1.287 . S
C925 C926 1.524 . S
C925 H928 0.999 . S
C926 H896 0.950 . S
C926 C925 1.524 . S
C926 C927 1.415 . S
C927 H897 0.950 1_545 S
C927 C922 1.363 . S
C927 C926 1.415 . S
H928 C925 0.999 . S
H929 C910 0.913 . S
H930 C948 0.951 . S
H931 C950 0.951 . S
H932 C952 0.950 . S
H933 C953 0.950 . S
H934 C955 0.950 . S
H935 C958 0.950 . S
H936 C959 0.950 . S
H937 C961 0.950 . S
H938 C962 0.950 . S
H939 C963 0.951 . S
H940 C965 0.951 . S
H941 C967 0.950 . S
H942 C968 0.950 . S
H943 C970 0.950 . S
H944 C973 0.950 . S
H945 C974 0.950 . S
H946 C976 0.950 . S
H947 C977 0.950 . S
C948 H930 0.951 . S
C948 C949 1.366 . S
C948 C950 1.388 . S
C949 C948 1.366 . S
C949 C953 1.385 . S
C950 H931 0.951 . S
C950 C948 1.388 . S
C950 C951 1.366 . S
C951 C950 1.366 . S
C951 C952 1.414 . S
C951 C954 1.499 . S
C952 H932 0.950 . S
C952 C951 1.414 . S
C952 C953 1.374 . S
C953 H933 0.950 . S
C953 C949 1.385 . S
C953 C952 1.374 . S
C954 C951 1.499 . S
C954 C955 1.373 . S
C954 C956 1.389 . S
C955 H934 0.950 . S
C955 C954 1.373 . S
C955 C971 1.377 . S
C956 C954 1.389 . S
C956 C957 1.524 . S
C956 C970 1.377 . S
C957 C956 1.524 . S
C957 C958 1.397 . S
C957 C962 1.363 . S
C958 H935 0.950 . S
C958 C957 1.397 . S
C958 C959 1.334 . S
C959 H936 0.950 . S
C959 C958 1.334 . S
C959 C960 1.287 . S
C960 C959 1.287 . S
C960 C961 1.524 . S
C960 H979 0.913 . S
C961 H937 0.950 . S
C961 C960 1.524 . S
C961 C962 1.415 . S
C962 H938 0.950 . S
C962 C957 1.363 . S
C962 C961 1.415 . S
C963 H939 0.951 . S
C963 C964 1.366 . S
C963 C965 1.388 . S
C964 C963 1.366 . S
C964 C968 1.385 . S
C965 H940 0.951 . S
C965 C963 1.388 . S
C965 C966 1.366 . S
C966 C965 1.366 . S
C966 C967 1.414 . S
C966 C969 1.499 . S
C967 H941 0.950 . S
C967 C966 1.414 . S
C967 C968 1.374 . S
C968 H942 0.950 . S
C968 C964 1.385 . S
C968 C967 1.374 . S
C969 C966 1.499 . S
C969 C970 1.373 . S
C969 C971 1.389 . S
C970 H943 0.950 . S
C970 C956 1.377 . S
C970 C969 1.373 . S
C971 C955 1.377 . S
C971 C969 1.389 . S
C971 C972 1.524 . S
C972 C971 1.524 . S
C972 C973 1.397 . S
C972 C977 1.363 . S
C973 H944 0.950 . S
C973 C972 1.397 . S
C973 C974 1.334 . S
C974 H945 0.950 . S
C974 C973 1.334 . S
C974 C975 1.287 . S
C975 C974 1.287 . S
C975 C976 1.524 . S
C975 H978 0.999 . S
C976 H946 0.950 . S
C976 C975 1.524 . S
C976 C977 1.415 . S
C977 H947 0.950 . S
C977 C972 1.363 . S
C977 C976 1.415 . S
H978 C975 0.999 . S
H979 C960 0.913 . S
H980 C998 0.951 . S
H981 C1000 0.951 . S
H982 C1002 0.950 . S
H983 C1003 0.950 . S
H984 C1005 0.950 . S
H985 C1008 0.950 . S
H986 C1009 0.950 . S
H987 C1011 0.950 . S
H988 C1012 0.950 . S
H989 C1013 0.951 . S
H990 C1015 0.951 . S
H991 C1017 0.950 . S
H992 C1018 0.950 . S
H993 C1020 0.950 . S
H994 C1023 0.950 . S
H995 C1024 0.950 . S
H996 C1026 0.950 . S
H997 C1027 0.950 . S
C998 H980 0.951 . S
C998 C999 1.366 . S
C998 C1000 1.388 . S
C999 C998 1.366 . S
C999 C1003 1.385 . S
C1000 H981 0.951 . S
C1000 C998 1.388 . S
C1000 C1001 1.366 . S
C1001 C1000 1.366 . S
C1001 C1002 1.414 . S
C1001 C1004 1.499 . S
C1002 H982 0.950 . S
C1002 C1001 1.414 . S
C1002 C1003 1.374 . S
C1003 H983 0.950 . S
C1003 C999 1.385 . S
C1003 C1002 1.374 . S
C1004 C1001 1.499 . S
C1004 C1005 1.373 . S
C1004 C1006 1.389 1_455 S
C1005 H984 0.950 . S
C1005 C1004 1.373 . S
C1005 C1021 1.377 1_455 S
C1006 C1004 1.389 1_655 S
C1006 C1007 1.512 1_655 S
C1006 C1020 1.377 . S
C1007 C1006 1.512 1_455 S
C1007 C1008 1.409 . S
C1007 C1012 1.362 1_455 S
C1008 H985 0.950 . S
C1008 C1007 1.409 . S
C1008 C1009 1.334 . S
C1009 H986 0.950 . S
C1009 C1008 1.334 . S
C1009 C1010 1.287 . S
C1010 C1009 1.287 . S
C1010 C1011 1.524 1_455 S
C1010 H1029 0.913 . S
C1011 H987 0.950 . S
C1011 C1010 1.524 1_655 S
C1011 C1012 1.415 . S
C1012 H988 0.950 . S
C1012 C1007 1.362 1_655 S
C1012 C1011 1.415 . S
C1013 H989 0.951 . S
C1013 C1014 1.366 . S
C1013 C1015 1.388 . S
C1014 C1013 1.366 . S
C1014 C1018 1.385 . S
C1015 H990 0.951 . S
C1015 C1013 1.388 . S
C1015 C1016 1.366 . S
C1016 C1015 1.366 . S
C1016 C1017 1.414 . S
C1016 C1019 1.499 . S
C1017 H991 0.950 . S
C1017 C1016 1.414 . S
C1017 C1018 1.374 . S
C1018 H992 0.950 . S
C1018 C1014 1.385 . S
C1018 C1017 1.374 . S
C1019 C1016 1.499 . S
C1019 C1020 1.373 . S
C1019 C1021 1.389 . S
C1020 H993 0.950 . S
C1020 C1006 1.377 . S
C1020 C1019 1.373 . S
C1021 C1005 1.377 1_655 S
C1021 C1019 1.389 . S
C1021 C1022 1.524 . S
C1022 C1021 1.524 . S
C1022 C1023 1.397 . S
C1022 C1027 1.363 1_655 S
C1023 H994 0.950 . S
C1023 C1022 1.397 . S
C1023 C1024 1.334 . S
C1024 H995 0.950 . S
C1024 C1023 1.334 . S
C1024 C1025 1.287 . S
C1025 C1024 1.287 . S
C1025 C1026 1.524 1_655 S
C1025 H1028 0.999 . S
C1026 H996 0.950 . S
C1026 C1025 1.524 1_455 S
C1026 C1027 1.415 . S
C1027 H997 0.950 . S
C1027 C1022 1.363 1_455 S
C1027 C1026 1.415 . S
H1028 C1025 0.999 . S
H1029 C1010 0.913 . S
H1030 C1048 0.951 . S
H1031 C1050 0.951 . S
H1032 C1052 0.950 . S
H1033 C1053 0.950 . S
H1034 C1055 0.950 . S
H1035 C1058 0.950 . S
H1036 C1059 0.950 . S
H1037 C1061 0.950 . S
H1038 C1062 0.950 . S
H1039 C1063 0.951 . S
H1040 C1065 0.951 . S
H1041 C1067 0.950 . S
H1042 C1068 0.950 . S
H1043 C1070 0.950 . S
H1044 C1073 0.950 . S
H1045 C1074 0.950 . S
H1046 C1076 0.950 . S
H1047 C1077 0.950 . S
C1048 H1030 0.951 . S
C1048 C1049 1.366 . S
C1048 C1050 1.388 . S
C1049 C1048 1.366 . S
C1049 C1053 1.385 . S
C1050 H1031 0.951 . S
C1050 C1048 1.388 . S
C1050 C1051 1.366 . S
C1051 C1050 1.366 . S
C1051 C1052 1.414 . S
C1051 C1054 1.499 . S
C1052 H1032 0.950 . S
C1052 C1051 1.414 . S
C1052 C1053 1.374 . S
C1053 H1033 0.950 . S
C1053 C1049 1.385 . S
C1053 C1052 1.374 . S
C1054 C1051 1.499 . S
C1054 C1055 1.373 . S
C1054 C1056 1.389 . S
C1055 H1034 0.950 . S
C1055 C1054 1.373 . S
C1055 C1071 1.377 1_545 S
C1056 C1054 1.389 . S
C1056 C1057 1.524 . S
C1056 C1070 1.377 1_545 S
C1057 C1056 1.524 . S
C1057 C1058 1.397 . S
C1057 C1062 1.363 . S
C1058 H1035 0.950 . S
C1058 C1057 1.397 . S
C1058 C1059 1.334 . S
C1059 H1036 0.950 . S
C1059 C1058 1.334 . S
C1059 C1060 1.287 . S
C1060 C1059 1.287 . S
C1060 C1061 1.524 . S
C1060 H1079 0.913 . S
C1061 H1037 0.950 . S
C1061 C1060 1.524 . S
C1061 C1062 1.415 . S
C1062 H1038 0.950 . S
C1062 C1057 1.363 . S
C1062 C1061 1.415 . S
C1063 H1039 0.951 . S
C1063 C1064 1.366 . S
C1063 C1065 1.388 . S
C1064 C1063 1.366 . S
C1064 C1068 1.385 . S
C1065 H1040 0.951 . S
C1065 C1063 1.388 . S
C1065 C1066 1.366 . S
C1066 C1065 1.366 . S
C1066 C1067 1.414 . S
C1066 C1069 1.499 . S
C1067 H1041 0.950 . S
C1067 C1066 1.414 . S
C1067 C1068 1.374 . S
C1068 H1042 0.950 . S
C1068 C1064 1.385 . S
C1068 C1067 1.374 . S
C1069 C1066 1.499 . S
C1069 C1070 1.373 . S
C1069 C1071 1.389 . S
C1070 H1043 0.950 . S
C1070 C1056 1.377 1_565 S
C1070 C1069 1.373 . S
C1071 C1055 1.377 1_565 S
C1071 C1069 1.389 . S
C1071 C1072 1.524 . S
C1072 C1071 1.524 . S
C1072 C1073 1.397 . S
C1072 C1077 1.363 . S
C1073 H1044 0.950 . S
C1073 C1072 1.397 . S
C1073 C1074 1.334 . S
C1074 H1045 0.950 . S
C1074 C1073 1.334 . S
C1074 C1075 1.287 . S
C1075 C1074 1.287 . S
C1075 C1076 1.524 . S
C1075 H1078 0.999 . S
C1076 H1046 0.950 . S
C1076 C1075 1.524 . S
C1076 C1077 1.415 . S
C1077 H1047 0.950 . S
C1077 C1072 1.363 . S
C1077 C1076 1.415 . S
H1078 C1075 0.999 . S
H1079 C1060 0.913 . S
H1080 C1098 0.951 . S
H1081 C1100 0.951 . S
H1082 C1102 0.950 . S
H1083 C1103 0.950 . S
H1084 C1105 0.950 . S
H1085 C1108 0.950 . S
H1086 C1109 0.950 . S
H1087 C1111 0.950 . S
H1088 C1112 0.950 . S
H1089 C1113 0.951 . S
H1090 C1115 0.951 . S
H1091 C1117 0.950 . S
H1092 C1118 0.950 . S
H1093 C1120 0.950 . S
H1094 C1123 0.950 . S
H1095 C1124 0.950 . S
H1096 C1126 0.950 . S
H1097 C1127 0.950 . S
C1098 H1080 0.951 . S
C1098 C1099 1.366 . S
C1098 C1100 1.388 . S
C1099 C1098 1.366 . S
C1099 C1103 1.385 . S
C1100 H1081 0.951 . S
C1100 C1098 1.388 . S
C1100 C1101 1.366 . S
C1101 C1100 1.366 . S
C1101 C1102 1.414 . S
C1101 C1104 1.499 . S
C1102 H1082 0.950 . S
C1102 C1101 1.414 . S
C1102 C1103 1.374 . S
C1103 H1083 0.950 . S
C1103 C1099 1.385 . S
C1103 C1102 1.374 . S
C1104 C1101 1.499 . S
C1104 C1105 1.373 . S
C1104 C1106 1.389 . S
C1105 H1084 0.950 . S
C1105 C1104 1.373 . S
C1105 C1121 1.377 . S
C1106 C1104 1.389 . S
C1106 C1107 1.524 . S
C1106 C1120 1.377 . S
C1107 C1106 1.524 . S
C1107 C1108 1.397 . S
C1107 C1112 1.363 . S
C1108 H1085 0.950 . S
C1108 C1107 1.397 . S
C1108 C1109 1.334 . S
C1109 H1086 0.950 . S
C1109 C1108 1.334 . S
C1109 C1110 1.287 . S
C1110 C1109 1.287 . S
C1110 C1111 1.524 . S
C1110 H1129 0.913 . S
C1111 H1087 0.950 . S
C1111 C1110 1.524 . S
C1111 C1112 1.415 . S
C1112 H1088 0.950 . S
C1112 C1107 1.363 . S
C1112 C1111 1.415 . S
C1113 H1089 0.951 . S
C1113 C1114 1.366 . S
C1113 C1115 1.388 . S
C1114 C1113 1.366 . S
C1114 C1118 1.385 . S
C1115 H1090 0.951 . S
C1115 C1113 1.388 . S
C1115 C1116 1.366 . S
C1116 C1115 1.366 . S
C1116 C1117 1.414 . S
C1116 C1119 1.499 . S
C1117 H1091 0.950 . S
C1117 C1116 1.414 . S
C1117 C1118 1.374 . S
C1118 H1092 0.950 . S
C1118 C1114 1.385 . S
C1118 C1117 1.374 . S
C1119 C1116 1.499 . S
C1119 C1120 1.373 . S
C1119 C1121 1.389 . S
C1120 H1093 0.950 . S
C1120 C1106 1.377 . S
C1120 C1119 1.373 . S
C1121 C1105 1.377 . S
C1121 C1119 1.389 . S
C1121 C1122 1.524 . S
C1122 C1121 1.524 . S
C1122 C1123 1.397 . S
C1122 C1127 1.363 . S
C1123 H1094 0.950 . S
C1123 C1122 1.397 . S
C1123 C1124 1.334 . S
C1124 H1095 0.950 . S
C1124 C1123 1.334 . S
C1124 C1125 1.287 . S
C1125 C1124 1.287 . S
C1125 C1126 1.524 . S
C1125 H1128 0.999 . S
C1126 H1096 0.950 . S
C1126 C1125 1.524 . S
C1126 C1127 1.415 . S
C1127 H1097 0.950 . S
C1127 C1122 1.363 . S
C1127 C1126 1.415 . S
H1128 C1125 0.999 . S
H1129 C1110 0.913 . S
H1130 C1148 0.951 . S
H1131 C1150 0.951 . S
H1132 C1152 0.950 . S
H1133 C1153 0.950 . S
H1134 C1155 0.950 . S
H1135 C1158 0.950 . S
H1136 C1159 0.950 . S
H1137 C1161 0.950 . S
H1138 C1162 0.950 . S
H1139 C1163 0.951 . S
H1140 C1165 0.951 . S
H1141 C1167 0.950 . S
H1142 C1168 0.950 . S
H1143 C1170 0.950 . S
H1144 C1173 0.950 . S
H1145 C1174 0.950 . S
H1146 C1176 0.950 . S
H1147 C1177 0.950 . S
C1148 H1130 0.951 . S
C1148 C1149 1.366 . S
C1148 C1150 1.388 . S
C1149 C1148 1.366 . S
C1149 C1153 1.385 . S
C1150 H1131 0.951 . S
C1150 C1148 1.388 . S
C1150 C1151 1.366 . S
C1151 C1150 1.366 . S
C1151 C1152 1.414 . S
C1151 C1154 1.499 . S
C1152 H1132 0.950 . S
C1152 C1151 1.414 . S
C1152 C1153 1.374 . S
C1153 H1133 0.950 . S
C1153 C1149 1.385 . S
C1153 C1152 1.374 . S
C1154 C1151 1.499 . S
C1154 C1155 1.373 . S
C1154 C1156 1.389 . S
C1155 H1134 0.950 . S
C1155 C1154 1.373 . S
C1155 C1171 1.377 . S
C1156 C1154 1.389 . S
C1156 C1157 1.524 . S
C1156 C1170 1.377 . S
C1157 C1156 1.524 . S
C1157 C1158 1.397 . S
C1157 C1162 1.363 . S
C1158 H1135 0.950 . S
C1158 C1157 1.397 . S
C1158 C1159 1.334 . S
C1159 H1136 0.950 . S
C1159 C1158 1.334 . S
C1159 C1160 1.287 . S
C1160 C1159 1.287 . S
C1160 C1161 1.524 . S
C1160 H1179 0.913 . S
C1161 H1137 0.950 . S
C1161 C1160 1.524 . S
C1161 C1162 1.415 . S
C1162 H1138 0.950 . S
C1162 C1157 1.363 . S
C1162 C1161 1.415 . S
C1163 H1139 0.951 . S
C1163 C1164 1.366 . S
C1163 C1165 1.388 . S
C1164 C1163 1.366 . S
C1164 C1168 1.385 . S
C1165 H1140 0.951 . S
C1165 C1163 1.388 . S
C1165 C1166 1.366 . S
C1166 C1165 1.366 . S
C1166 C1167 1.414 . S
C1166 C1169 1.499 . S
C1167 H1141 0.950 . S
C1167 C1166 1.414 . S
C1167 C1168 1.374 . S
C1168 H1142 0.950 . S
C1168 C1164 1.385 . S
C1168 C1167 1.374 . S
C1169 C1166 1.499 . S
C1169 C1170 1.373 . S
C1169 C1171 1.389 . S
C1170 H1143 0.950 . S
C1170 C1156 1.377 . S
C1170 C1169 1.373 . S
C1171 C1155 1.377 . S
C1171 C1169 1.389 . S
C1171 C1172 1.524 . S
C1172 C1171 1.524 . S
C1172 C1173 1.397 . S
C1172 C1177 1.363 . S
C1173 H1144 0.950 . S
C1173 C1172 1.397 . S
C1173 C1174 1.334 . S
C1174 H1145 0.950 . S
C1174 C1173 1.334 . S
C1174 C1175 1.287 . S
C1175 C1174 1.287 . S
C1175 C1176 1.524 . S
C1175 H1178 0.999 . S
C1176 H1146 0.950 . S
C1176 C1175 1.524 . S
C1176 C1177 1.415 . S
C1177 H1147 0.950 . S
C1177 C1172 1.363 . S
C1177 C1176 1.415 . S
H1178 C1175 0.999 . S
H1179 C1160 0.913 . S
H1180 C1198 0.951 . S
H1181 C1200 0.951 . S
H1182 C1202 0.950 . S
H1183 C1203 0.950 . S
H1184 C1205 0.950 . S
H1185 C1208 0.950 . S
H1186 C1209 0.950 . S
H1187 C1211 0.950 . S
H1188 C1212 0.950 . S
H1189 C1213 0.951 . S
H1190 C1215 0.951 . S
H1191 C1217 0.950 . S
H1192 C1218 0.950 . S
H1193 C1220 0.950 . S
H1194 C1223 0.950 . S
H1195 C1224 0.950 . S
H1196 C1226 0.950 . S
H1197 C1227 0.950 . S
C1198 H1180 0.951 . S
C1198 C1199 1.366 . S
C1198 C1200 1.388 . S
C1199 C1198 1.366 . S
C1199 C1203 1.385 . S
C1200 H1181 0.951 . S
C1200 C1198 1.388 . S
C1200 C1201 1.366 . S
C1201 C1200 1.366 . S
C1201 C1202 1.414 . S
C1201 C1204 1.499 . S
C1202 H1182 0.950 . S
C1202 C1201 1.414 . S
C1202 C1203 1.374 . S
C1203 H1183 0.950 . S
C1203 C1199 1.385 . S
C1203 C1202 1.374 . S
C1204 C1201 1.499 . S
C1204 C1205 1.373 . S
C1204 C1206 1.389 . S
C1205 H1184 0.950 . S
C1205 C1204 1.373 . S
C1205 C1221 1.377 . S
C1206 C1204 1.389 . S
C1206 C1207 1.524 . S
C1206 C1220 1.377 . S
C1207 C1206 1.524 . S
C1207 C1208 1.397 . S
C1207 C1212 1.363 . S
C1208 H1185 0.950 . S
C1208 C1207 1.397 . S
C1208 C1209 1.334 . S
C1209 H1186 0.950 . S
C1209 C1208 1.334 . S
C1209 C1210 1.287 . S
C1210 C1209 1.287 . S
C1210 C1211 1.524 . S
C1210 H1229 0.913 . S
C1211 H1187 0.950 . S
C1211 C1210 1.524 . S
C1211 C1212 1.415 . S
C1212 H1188 0.950 . S
C1212 C1207 1.363 . S
C1212 C1211 1.415 . S
C1213 H1189 0.951 . S
C1213 C1214 1.366 . S
C1213 C1215 1.388 . S
C1214 C1213 1.366 . S
C1214 C1218 1.385 . S
C1215 H1190 0.951 . S
C1215 C1213 1.388 . S
C1215 C1216 1.366 . S
C1216 C1215 1.366 . S
C1216 C1217 1.414 . S
C1216 C1219 1.499 . S
C1217 H1191 0.950 . S
C1217 C1216 1.414 . S
C1217 C1218 1.374 . S
C1218 H1192 0.950 . S
C1218 C1214 1.385 . S
C1218 C1217 1.374 . S
C1219 C1216 1.499 . S
C1219 C1220 1.373 . S
C1219 C1221 1.389 . S
C1220 H1193 0.950 . S
C1220 C1206 1.377 . S
C1220 C1219 1.373 . S
C1221 C1205 1.377 . S
C1221 C1219 1.389 . S
C1221 C1222 1.524 . S
C1222 C1221 1.524 . S
C1222 C1223 1.397 . S
C1222 C1227 1.363 . S
C1223 H1194 0.950 . S
C1223 C1222 1.397 . S
C1223 C1224 1.334 . S
C1224 H1195 0.950 . S
C1224 C1223 1.334 . S
C1224 C1225 1.287 . S
C1225 C1224 1.287 . S
C1225 C1226 1.524 . S
C1225 H1228 0.999 . S
C1226 H1196 0.950 . S
C1226 C1225 1.524 . S
C1226 C1227 1.415 . S
C1227 H1197 0.950 . S
C1227 C1222 1.363 . S
C1227 C1226 1.415 . S
H1228 C1225 0.999 . S
H1229 C1210 0.913 . S
H1230 C1248 0.951 . S
H1231 C1250 0.951 . S
H1232 C1252 0.950 . S
H1233 C1253 0.950 . S
H1234 C1255 0.950 . S
H1235 C1258 0.950 . S
H1236 C1259 0.950 . S
H1237 C1261 0.950 . S
H1238 C1262 0.950 . S
H1239 C1263 0.951 . S
H1240 C1265 0.951 . S
H1241 C1267 0.950 . S
H1242 C1268 0.950 . S
H1243 C1270 0.950 . S
H1244 C1273 0.950 . S
H1245 C1274 0.950 . S
H1246 C1276 0.950 . S
H1247 C1277 0.950 . S
C1248 H1230 0.951 . S
C1248 C1249 1.366 . S
C1248 C1250 1.388 . S
C1249 C1248 1.366 . S
C1249 C1253 1.385 . S
C1250 H1231 0.951 . S
C1250 C1248 1.388 . S
C1250 C1251 1.366 . S
C1251 C1250 1.366 . S
C1251 C1252 1.414 . S
C1251 C1254 1.499 . S
C1252 H1232 0.950 . S
C1252 C1251 1.414 . S
C1252 C1253 1.374 . S
C1253 H1233 0.950 . S
C1253 C1249 1.385 . S
C1253 C1252 1.374 . S
C1254 C1251 1.499 . S
C1254 C1255 1.373 . S
C1254 C1256 1.389 . S
C1255 H1234 0.950 . S
C1255 C1254 1.373 . S
C1255 C1271 1.377 . S
C1256 C1254 1.389 . S
C1256 C1257 1.524 . S
C1256 C1270 1.377 . S
C1257 C1256 1.524 . S
C1257 C1258 1.397 . S
C1257 C1262 1.363 . S
C1258 H1235 0.950 . S
C1258 C1257 1.397 . S
C1258 C1259 1.334 . S
C1259 H1236 0.950 . S
C1259 C1258 1.334 . S
C1259 C1260 1.287 . S
C1260 C1259 1.287 . S
C1260 C1261 1.524 . S
C1260 H1279 0.913 . S
C1261 H1237 0.950 . S
C1261 C1260 1.524 . S
C1261 C1262 1.415 . S
C1262 H1238 0.950 . S
C1262 C1257 1.363 . S
C1262 C1261 1.415 . S
C1263 H1239 0.951 . S
C1263 C1264 1.366 . S
C1263 C1265 1.388 . S
C1264 C1263 1.366 . S
C1264 C1268 1.385 . S
C1265 H1240 0.951 . S
C1265 C1263 1.388 . S
C1265 C1266 1.366 . S
C1266 C1265 1.366 . S
C1266 C1267 1.414 . S
C1266 C1269 1.499 . S
C1267 H1241 0.950 . S
C1267 C1266 1.414 . S
C1267 C1268 1.374 . S
C1268 H1242 0.950 . S
C1268 C1264 1.385 . S
C1268 C1267 1.374 . S
C1269 C1266 1.499 . S
C1269 C1270 1.373 . S
C1269 C1271 1.389 . S
C1270 H1243 0.950 . S
C1270 C1256 1.377 . S
C1270 C1269 1.373 . S
C1271 C1255 1.377 . S
C1271 C1269 1.389 . S
C1271 C1272 1.524 . S
C1272 C1271 1.524 . S
C1272 C1273 1.397 . S
C1272 C1277 1.363 . S
C1273 H1244 0.950 . S
C1273 C1272 1.397 . S
C1273 C1274 1.334 . S
C1274 H1245 0.950 . S
C1274 C1273 1.334 . S
C1274 C1275 1.287 . S
C1275 C1274 1.287 . S
C1275 C1276 1.524 . S
C1275 H1278 0.999 . S
C1276 H1246 0.950 . S
C1276 C1275 1.524 . S
C1276 C1277 1.415 . S
C1277 H1247 0.950 . S
C1277 C1272 1.363 . S
C1277 C1276 1.415 . S
H1278 C1275 0.999 . S
H1279 C1260 0.913 . S
H1280 C1298 0.951 . S
H1281 C1300 0.951 . S
H1282 C1302 0.950 . S
H1283 C1303 0.950 . S
H1284 C1305 0.950 . S
H1285 C1308 0.950 . S
H1286 C1309 0.950 . S
H1287 C1311 0.950 . S
H1288 C1312 0.950 . S
H1289 C1313 0.951 . S
H1290 C1315 0.951 . S
H1291 C1317 0.950 . S
H1292 C1318 0.950 . S
H1293 C1320 0.950 . S
H1294 C1323 0.950 . S
H1295 C1324 0.950 . S
H1296 C1326 0.950 . S
H1297 C1327 0.950 . S
C1298 H1280 0.951 . S
C1298 C1299 1.366 . S
C1298 C1300 1.388 . S
C1299 C1298 1.366 . S
C1299 C1303 1.385 . S
C1300 H1281 0.951 . S
C1300 C1298 1.388 . S
C1300 C1301 1.366 . S
C1301 C1300 1.366 . S
C1301 C1302 1.414 . S
C1301 C1304 1.499 . S
C1302 H1282 0.950 . S
C1302 C1301 1.414 . S
C1302 C1303 1.374 . S
C1303 H1283 0.950 . S
C1303 C1299 1.385 . S
C1303 C1302 1.374 . S
C1304 C1301 1.499 . S
C1304 C1305 1.373 . S
C1304 C1306 1.389 . S
C1305 H1284 0.950 . S
C1305 C1304 1.373 . S
C1305 C1321 1.377 . S
C1306 C1304 1.389 . S
C1306 C1307 1.524 . S
C1306 C1320 1.377 . S
C1307 C1306 1.524 . S
C1307 C1308 1.397 . S
C1307 C1312 1.363 . S
C1308 H1285 0.950 . S
C1308 C1307 1.397 . S
C1308 C1309 1.334 . S
C1309 H1286 0.950 . S
C1309 C1308 1.334 . S
C1309 C1310 1.287 . S
C1310 C1309 1.287 . S
C1310 C1311 1.524 . S
C1310 H1329 0.913 . S
C1311 H1287 0.950 . S
C1311 C1310 1.524 . S
C1311 C1312 1.415 . S
C1312 H1288 0.950 . S
C1312 C1307 1.363 . S
C1312 C1311 1.415 . S
C1313 H1289 0.951 . S
C1313 C1314 1.366 . S
C1313 C1315 1.388 . S
C1314 C1313 1.366 . S
C1314 C1318 1.385 . S
C1315 H1290 0.951 . S
C1315 C1313 1.388 . S
C1315 C1316 1.366 . S
C1316 C1315 1.366 . S
C1316 C1317 1.414 . S
C1316 C1319 1.499 . S
C1317 H1291 0.950 . S
C1317 C1316 1.414 . S
C1317 C1318 1.374 . S
C1318 H1292 0.950 . S
C1318 C1314 1.385 . S
C1318 C1317 1.374 . S
C1319 C1316 1.499 . S
C1319 C1320 1.373 . S
C1319 C1321 1.389 . S
C1320 H1293 0.950 . S
C1320 C1306 1.377 . S
C1320 C1319 1.373 . S
C1321 C1305 1.377 . S
C1321 C1319 1.389 . S
C1321 C1322 1.524 . S
C1322 C1321 1.524 . S
C1322 C1323 1.397 . S
C1322 C1327 1.363 . S
C1323 H1294 0.950 . S
C1323 C1322 1.397 . S
C1323 C1324 1.334 . S
C1324 H1295 0.950 . S
C1324 C1323 1.334 . S
C1324 C1325 1.287 . S
C1325 C1324 1.287 . S
C1325 C1326 1.524 . S
C1325 H1328 0.999 . S
C1326 H1296 0.950 . S
C1326 C1325 1.524 . S
C1326 C1327 1.415 . S
C1327 H1297 0.950 . S
C1327 C1322 1.363 . S
C1327 C1326 1.415 . S
H1328 C1325 0.999 . S
H1329 C1310 0.913 . S
H1330 C1348 0.951 . S
H1331 C1350 0.951 . S
H1332 C1352 0.950 . S
H1333 C1353 0.950 . S
H1334 C1355 0.950 . S
H1335 C1358 0.950 . S
H1336 C1359 0.950 . S
H1337 C1361 0.950 . S
H1338 C1362 0.950 . S
H1339 C1363 0.951 . S
H1340 C1365 0.951 . S
H1341 C1367 0.950 . S
H1342 C1368 0.950 . S
H1343 C1370 0.950 . S
H1344 C1373 0.950 . S
H1345 C1374 0.950 . S
H1346 C1376 0.950 . S
H1347 C1377 0.950 . S
C1348 H1330 0.951 . S
C1348 C1349 1.366 . S
C1348 C1350 1.388 . S
C1349 C1348 1.366 . S
C1349 C1353 1.385 . S
C1350 H1331 0.951 . S
C1350 C1348 1.388 . S
C1350 C1351 1.366 . S
C1351 C1350 1.366 . S
C1351 C1352 1.414 . S
C1351 C1354 1.499 . S
C1352 H1332 0.950 . S
C1352 C1351 1.414 . S
C1352 C1353 1.374 . S
C1353 H1333 0.950 . S
C1353 C1349 1.385 . S
C1353 C1352 1.374 . S
C1354 C1351 1.499 . S
C1354 C1355 1.373 . S
C1354 C1356 1.389 . S
C1355 H1334 0.950 . S
C1355 C1354 1.373 . S
C1355 C1371 1.377 . S
C1356 C1354 1.389 . S
C1356 C1357 1.524 . S
C1356 C1370 1.377 . S
C1357 C1356 1.524 . S
C1357 C1358 1.397 . S
C1357 C1362 1.363 . S
C1358 H1335 0.950 . S
C1358 C1357 1.397 . S
C1358 C1359 1.334 . S
C1359 H1336 0.950 . S
C1359 C1358 1.334 . S
C1359 C1360 1.287 . S
C1360 C1359 1.287 . S
C1360 C1361 1.524 . S
C1360 H1379 0.913 . S
C1361 H1337 0.950 . S
C1361 C1360 1.524 . S
C1361 C1362 1.415 . S
C1362 H1338 0.950 . S
C1362 C1357 1.363 . S
C1362 C1361 1.415 . S
C1363 H1339 0.951 . S
C1363 C1364 1.366 . S
C1363 C1365 1.388 . S
C1364 C1363 1.366 . S
C1364 C1368 1.385 . S
C1365 H1340 0.951 . S
C1365 C1363 1.388 . S
C1365 C1366 1.366 . S
C1366 C1365 1.366 . S
C1366 C1367 1.414 . S
C1366 C1369 1.499 . S
C1367 H1341 0.950 . S
C1367 C1366 1.414 . S
C1367 C1368 1.374 . S
C1368 H1342 0.950 . S
C1368 C1364 1.385 . S
C1368 C1367 1.374 . S
C1369 C1366 1.499 . S
C1369 C1370 1.373 . S
C1369 C1371 1.389 . S
C1370 H1343 0.950 . S
C1370 C1356 1.377 . S
C1370 C1369 1.373 . S
C1371 C1355 1.377 . S
C1371 C1369 1.389 . S
C1371 C1372 1.524 . S
C1372 C1371 1.524 . S
C1372 C1373 1.397 . S
C1372 C1377 1.363 . S
C1373 H1344 0.950 . S
C1373 C1372 1.397 . S
C1373 C1374 1.334 . S
C1374 H1345 0.950 . S
C1374 C1373 1.334 . S
C1374 C1375 1.287 . S
C1375 C1374 1.287 . S
C1375 C1376 1.524 . S
C1375 H1378 0.999 . S
C1376 H1346 0.950 . S
C1376 C1375 1.524 . S
C1376 C1377 1.415 . S
C1377 H1347 0.950 . S
C1377 C1372 1.363 . S
C1377 C1376 1.415 . S
H1378 C1375 0.999 . S
H1379 C1360 0.913 . S
H1380 C1398 0.951 . S
H1381 C1400 0.951 . S
H1382 C1402 0.950 . S
H1383 C1403 0.950 . S
H1384 C1405 0.950 . S
H1385 C1408 0.950 . S
H1386 C1409 0.948 . S
H1387 C1411 0.950 . S
H1388 C1412 0.950 . S
H1389 C1413 0.951 . S
H1390 C1415 0.951 . S
H1391 C1417 0.950 . S
H1392 C1418 0.950 . S
H1393 C1420 0.950 . S
H1394 C1423 0.950 . S
H1395 C1424 0.948 . S
H1396 C1426 0.950 . S
H1397 C1427 0.950 . S
C1398 H1380 0.951 . S
C1398 C1399 1.366 . S
C1398 C1400 1.388 . S
C1399 C1398 1.366 . S
C1399 C1403 1.385 . S
C1400 H1381 0.951 . S
C1400 C1398 1.388 . S
C1400 C1401 1.366 . S
C1401 C1400 1.366 . S
C1401 C1402 1.414 . S
C1401 C1404 1.499 . S
C1402 H1382 0.950 . S
C1402 C1401 1.414 . S
C1402 C1403 1.374 . S
C1403 H1383 0.950 . S
C1403 C1399 1.385 . S
C1403 C1402 1.374 . S
C1404 C1401 1.499 . S
C1404 C1405 1.373 1_556 S
C1404 C1406 1.389 1_565 S
C1405 H1384 0.950 . S
C1405 C1404 1.373 1_554 S
C1405 C1421 1.377 . S
C1406 C1404 1.389 1_545 S
C1406 C1407 1.524 . S
C1406 C1420 1.377 . S
C1407 C1406 1.524 . S
C1407 C1408 1.397 1_545 S
C1407 C1412 1.363 . S
C1408 H1385 0.950 . S
C1408 C1407 1.397 1_565 S
C1408 C1409 1.334 . S
C1409 H1386 0.948 . S
C1409 C1408 1.334 . S
C1409 C1410 1.288 1_565 S
C1410 C1409 1.288 1_545 S
C1410 C1411 1.524 . S
C1410 H1429 0.913 . S
C1411 H1387 0.950 . S
C1411 C1410 1.524 . S
C1411 C1412 1.415 . S
C1412 H1388 0.950 . S
C1412 C1407 1.363 . S
C1412 C1411 1.415 . S
C1413 H1389 0.951 . S
C1413 C1414 1.366 . S
C1413 C1415 1.388 . S
C1414 C1413 1.366 . S
C1414 C1418 1.385 . S
C1415 H1390 0.951 . S
C1415 C1413 1.388 . S
C1415 C1416 1.366 . S
C1416 C1415 1.366 . S
C1416 C1417 1.414 . S
C1416 C1419 1.499 . S
C1417 H1391 0.950 . S
C1417 C1416 1.414 . S
C1417 C1418 1.374 . S
C1418 H1392 0.950 . S
C1418 C1414 1.385 . S
C1418 C1417 1.374 . S
C1419 C1416 1.499 . S
C1419 C1420 1.373 1_554 S
C1419 C1421 1.389 1_545 S
C1420 H1393 0.950 . S
C1420 C1406 1.377 . S
C1420 C1419 1.373 1_556 S
C1421 C1405 1.377 . S
C1421 C1419 1.389 1_565 S
C1421 C1422 1.524 . S
C1422 C1421 1.524 . S
C1422 C1423 1.397 1_565 S
C1422 C1427 1.363 . S
C1423 H1394 0.950 . S
C1423 C1422 1.397 1_545 S
C1423 C1424 1.334 . S
C1424 H1395 0.948 . S
C1424 C1423 1.334 . S
C1424 C1425 1.288 1_545 S
C1425 C1424 1.288 1_565 S
C1425 C1426 1.524 . S
C1425 H1428 0.999 . S
C1426 H1396 0.950 . S
C1426 C1425 1.524 . S
C1426 C1427 1.415 . S
C1427 H1397 0.950 . S
C1427 C1422 1.363 . S
C1427 C1426 1.415 . S
H1428 C1425 0.999 . S
H1429 C1410 0.913 . S
H1430 C1448 0.951 . S
H1431 C1450 0.951 . S
H1432 C1452 0.950 . S
H1433 C1453 0.950 . S
H1434 C1455 0.950 . S
H1435 C1458 0.950 . S
H1436 C1459 0.950 . S
H1437 C1461 0.950 . S
H1438 C1462 0.950 . S
H1439 C1463 0.951 . S
H1440 C1465 0.951 . S
H1441 C1467 0.950 . S
H1442 C1468 0.950 . S
H1443 C1470 0.950 . S
H1444 C1473 0.950 . S
H1445 C1474 0.950 . S
H1446 C1476 0.950 . S
H1447 C1477 0.950 . S
C1448 H1430 0.951 . S
C1448 C1449 1.366 . S
C1448 C1450 1.388 . S
C1449 C1448 1.366 . S
C1449 C1453 1.385 . S
C1450 H1431 0.951 . S
C1450 C1448 1.388 . S
C1450 C1451 1.366 . S
C1451 C1450 1.366 . S
C1451 C1452 1.414 . S
C1451 C1454 1.499 . S
C1452 H1432 0.950 . S
C1452 C1451 1.414 . S
C1452 C1453 1.374 . S
C1453 H1433 0.950 . S
C1453 C1449 1.385 . S
C1453 C1452 1.374 . S
C1454 C1451 1.499 . S
C1454 C1455 1.373 . S
C1454 C1456 1.389 . S
C1455 H1434 0.950 . S
C1455 C1454 1.373 . S
C1455 C1471 1.377 . S
C1456 C1454 1.389 . S
C1456 C1457 1.524 . S
C1456 C1470 1.377 . S
C1457 C1456 1.524 . S
C1457 C1458 1.397 . S
C1457 C1462 1.363 . S
C1458 H1435 0.950 . S
C1458 C1457 1.397 . S
C1458 C1459 1.334 . S
C1459 H1436 0.950 . S
C1459 C1458 1.334 . S
C1459 C1460 1.287 . S
C1460 C1459 1.287 . S
C1460 C1461 1.524 . S
C1460 H1479 0.913 . S
C1461 H1437 0.950 . S
C1461 C1460 1.524 . S
C1461 C1462 1.415 . S
C1462 H1438 0.950 . S
C1462 C1457 1.363 . S
C1462 C1461 1.415 . S
C1463 H1439 0.951 . S
C1463 C1464 1.366 . S
C1463 C1465 1.388 . S
C1464 C1463 1.366 . S
C1464 C1468 1.385 . S
C1465 H1440 0.951 . S
C1465 C1463 1.388 . S
C1465 C1466 1.366 . S
C1466 C1465 1.366 . S
C1466 C1467 1.414 . S
C1466 C1469 1.499 . S
C1467 H1441 0.950 . S
C1467 C1466 1.414 . S
C1467 C1468 1.374 . S
C1468 H1442 0.950 . S
C1468 C1464 1.385 . S
C1468 C1467 1.374 . S
C1469 C1466 1.499 . S
C1469 C1470 1.373 . S
C1469 C1471 1.389 . S
C1470 H1443 0.950 . S
C1470 C1456 1.377 . S
C1470 C1469 1.373 . S
C1471 C1455 1.377 . S
C1471 C1469 1.389 . S
C1471 C1472 1.524 . S
C1472 C1471 1.524 . S
C1472 C1473 1.397 . S
C1472 C1477 1.363 . S
C1473 H1444 0.950 . S
C1473 C1472 1.397 . S
C1473 C1474 1.334 . S
C1474 H1445 0.950 . S
C1474 C1473 1.334 . S
C1474 C1475 1.287 . S
C1475 C1474 1.287 . S
C1475 C1476 1.524 . S
C1475 H1478 0.999 . S
C1476 H1446 0.950 . S
C1476 C1475 1.524 . S
C1476 C1477 1.415 . S
C1477 H1447 0.950 . S
C1477 C1472 1.363 . S
C1477 C1476 1.415 . S
H1478 C1475 0.999 . S
H1479 C1460 0.913 . S
H1480 C1498 0.951 . S
H1481 C1500 0.951 . S
H1482 C1502 0.950 . S
H1483 C1503 0.950 . S
H1484 C1505 0.950 . S
H1485 C1508 0.950 . S
H1486 C1509 0.950 . S
H1487 C1511 0.950 . S
H1488 C1512 0.950 . S
H1489 C1513 0.951 . S
H1490 C1515 0.951 . S
H1491 C1517 0.950 . S
H1492 C1518 0.950 . S
H1493 C1520 0.950 . S
H1494 C1523 0.950 . S
H1495 C1524 0.950 . S
H1496 C1526 0.950 . S
H1497 C1527 0.950 . S
C1498 H1480 0.951 . S
C1498 C1499 1.366 . S
C1498 C1500 1.388 . S
C1499 C1498 1.366 . S
C1499 C1503 1.385 . S
C1500 H1481 0.951 . S
C1500 C1498 1.388 . S
C1500 C1501 1.366 . S
C1501 C1500 1.366 . S
C1501 C1502 1.414 . S
C1501 C1504 1.499 . S
C1502 H1482 0.950 . S
C1502 C1501 1.414 . S
C1502 C1503 1.374 . S
C1503 H1483 0.950 . S
C1503 C1499 1.385 . S
C1503 C1502 1.374 . S
C1504 C1501 1.499 . S
C1504 C1505 1.373 1_556 S
C1504 C1506 1.389 1_455 S
C1505 H1484 0.950 . S
C1505 C1504 1.373 1_554 S
C1505 C1521 1.377 . S
C1506 C1504 1.389 1_655 S
C1506 C1507 1.524 . S
C1506 C1520 1.377 . S
C1507 C1506 1.524 . S
C1507 C1508 1.397 1_655 S
C1507 C1512 1.363 . S
C1508 H1485 0.950 . S
C1508 C1507 1.397 1_455 S
C1508 C1509 1.334 . S
C1509 H1486 0.950 . S
C1509 C1508 1.334 . S
C1509 C1510 1.287 1_455 S
C1510 C1509 1.287 1_655 S
C1510 C1511 1.524 . S
C1510 H1529 0.913 . S
C1511 H1487 0.950 . S
C1511 C1510 1.524 . S
C1511 C1512 1.415 . S
C1512 H1488 0.950 . S
C1512 C1507 1.363 . S
C1512 C1511 1.415 . S
C1513 H1489 0.951 . S
C1513 C1514 1.366 . S
C1513 C1515 1.388 . S
C1514 C1513 1.366 . S
C1514 C1518 1.385 . S
C1515 H1490 0.951 . S
C1515 C1513 1.388 . S
C1515 C1516 1.366 . S
C1516 C1515 1.366 . S
C1516 C1517 1.414 . S
C1516 C1519 1.499 . S
C1517 H1491 0.950 . S
C1517 C1516 1.414 . S
C1517 C1518 1.374 . S
C1518 H1492 0.950 . S
C1518 C1514 1.385 . S
C1518 C1517 1.374 . S
C1519 C1516 1.499 . S
C1519 C1520 1.373 1_554 S
C1519 C1521 1.389 1_655 S
C1520 H1493 0.950 . S
C1520 C1506 1.377 . S
C1520 C1519 1.373 1_556 S
C1521 C1505 1.377 . S
C1521 C1519 1.389 1_455 S
C1521 C1522 1.524 . S
C1522 C1521 1.524 . S
C1522 C1523 1.397 1_455 S
C1522 C1527 1.363 . S
C1523 H1494 0.950 . S
C1523 C1522 1.397 1_655 S
C1523 C1524 1.334 . S
C1524 H1495 0.950 . S
C1524 C1523 1.334 . S
C1524 C1525 1.287 1_655 S
C1525 C1524 1.287 1_455 S
C1525 C1526 1.524 . S
C1525 H1528 0.999 . S
C1526 H1496 0.950 . S
C1526 C1525 1.524 . S
C1526 C1527 1.415 . S
C1527 H1497 0.950 . S
C1527 C1522 1.363 . S
C1527 C1526 1.415 . S
H1528 C1525 0.999 . S
H1529 C1510 0.913 . S
H1530 C1548 0.951 . S
H1531 C1550 0.951 . S
H1532 C1552 0.950 . S
H1533 C1553 0.950 . S
H1534 C1555 0.950 . S
H1535 C1558 0.950 . S
H1536 C1559 0.950 . S
H1537 C1561 0.950 . S
H1538 C1562 0.950 . S
H1539 C1563 0.951 . S
H1540 C1565 0.951 . S
H1541 C1567 0.950 . S
H1542 C1568 0.950 . S
H1543 C1570 0.950 . S
H1544 C1573 0.950 . S
H1545 C1574 0.950 . S
H1546 C1576 0.950 . S
H1547 C1577 0.950 . S
C1548 H1530 0.951 . S
C1548 C1549 1.366 . S
C1548 C1550 1.388 . S
C1549 C1548 1.366 . S
C1549 C1553 1.385 . S
C1550 H1531 0.951 . S
C1550 C1548 1.388 . S
C1550 C1551 1.366 . S
C1551 C1550 1.366 . S
C1551 C1552 1.414 . S
C1551 C1554 1.499 . S
C1552 H1532 0.950 . S
C1552 C1551 1.414 . S
C1552 C1553 1.374 . S
C1553 H1533 0.950 . S
C1553 C1549 1.385 . S
C1553 C1552 1.374 . S
C1554 C1551 1.499 . S
C1554 C1555 1.373 . S
C1554 C1556 1.389 . S
C1555 H1534 0.950 . S
C1555 C1554 1.373 . S
C1555 C1571 1.377 1_545 S
C1556 C1554 1.389 . S
C1556 C1557 1.524 . S
C1556 C1570 1.377 1_545 S
C1557 C1556 1.524 . S
C1557 C1558 1.397 . S
C1557 C1562 1.363 . S
C1558 H1535 0.950 . S
C1558 C1557 1.397 . S
C1558 C1559 1.334 . S
C1559 H1536 0.950 . S
C1559 C1558 1.334 . S
C1559 C1560 1.287 . S
C1560 C1559 1.287 . S
C1560 C1561 1.524 . S
C1560 H1579 0.913 . S
C1561 H1537 0.950 . S
C1561 C1560 1.524 . S
C1561 C1562 1.415 . S
C1562 H1538 0.950 . S
C1562 C1557 1.363 . S
C1562 C1561 1.415 . S
C1563 H1539 0.951 . S
C1563 C1564 1.366 . S
C1563 C1565 1.388 . S
C1564 C1563 1.366 . S
C1564 C1568 1.385 . S
C1565 H1540 0.951 . S
C1565 C1563 1.388 . S
C1565 C1566 1.366 . S
C1566 C1565 1.366 . S
C1566 C1567 1.414 . S
C1566 C1569 1.499 . S
C1567 H1541 0.950 . S
C1567 C1566 1.414 . S
C1567 C1568 1.374 . S
C1568 H1542 0.950 . S
C1568 C1564 1.385 . S
C1568 C1567 1.374 . S
C1569 C1566 1.499 . S
C1569 C1570 1.373 . S
C1569 C1571 1.389 . S
C1570 H1543 0.950 . S
C1570 C1556 1.377 1_565 S
C1570 C1569 1.373 . S
C1571 C1555 1.377 1_565 S
C1571 C1569 1.389 . S
C1571 C1572 1.524 . S
C1572 C1571 1.524 . S
C1572 C1573 1.397 . S
C1572 C1577 1.363 . S
C1573 H1544 0.950 . S
C1573 C1572 1.397 . S
C1573 C1574 1.334 . S
C1574 H1545 0.950 . S
C1574 C1573 1.334 . S
C1574 C1575 1.287 . S
C1575 C1574 1.287 . S
C1575 C1576 1.524 . S
C1575 H1578 0.999 . S
C1576 H1546 0.950 . S
C1576 C1575 1.524 . S
C1576 C1577 1.415 . S
C1577 H1547 0.950 . S
C1577 C1572 1.363 . S
C1577 C1576 1.415 . S
H1578 C1575 0.999 . S
H1579 C1560 0.913 . S
H1580 C1598 0.951 . S
H1581 C1600 0.951 . S
H1582 C1602 0.950 . S
H1583 C1603 0.950 . S
H1584 C1605 0.950 . S
H1585 C1608 0.950 . S
H1586 C1609 0.950 . S
H1587 C1611 0.950 . S
H1588 C1612 0.950 . S
H1589 C1613 0.951 . S
H1590 C1615 0.951 . S
H1591 C1617 0.950 . S
H1592 C1618 0.950 . S
H1593 C1620 0.950 . S
H1594 C1623 0.950 . S
H1595 C1624 0.950 . S
H1596 C1626 0.950 . S
H1597 C1627 0.950 . S
C1598 H1580 0.951 . S
C1598 C1599 1.366 . S
C1598 C1600 1.388 . S
C1599 C1598 1.366 . S
C1599 C1603 1.385 . S
C1600 H1581 0.951 . S
C1600 C1598 1.388 . S
C1600 C1601 1.366 . S
C1601 C1600 1.366 . S
C1601 C1602 1.414 . S
C1601 C1604 1.499 . S
C1602 H1582 0.950 . S
C1602 C1601 1.414 . S
C1602 C1603 1.374 . S
C1603 H1583 0.950 . S
C1603 C1599 1.385 . S
C1603 C1602 1.374 . S
C1604 C1601 1.499 . S
C1604 C1605 1.373 . S
C1604 C1606 1.389 1_554 S
C1605 H1584 0.950 . S
C1605 C1604 1.373 . S
C1605 C1621 1.377 . S
C1606 C1604 1.389 1_556 S
C1606 C1607 1.524 . S
C1606 C1620 1.377 . S
C1607 C1606 1.524 . S
C1607 C1608 1.397 . S
C1607 C1612 1.363 . S
C1608 H1585 0.950 . S
C1608 C1607 1.397 . S
C1608 C1609 1.334 . S
C1609 H1586 0.950 . S
C1609 C1608 1.334 . S
C1609 C1610 1.287 . S
C1610 C1609 1.287 . S
C1610 C1611 1.524 . S
C1610 H1629 0.913 . S
C1611 H1587 0.950 . S
C1611 C1610 1.524 . S
C1611 C1612 1.415 . S
C1612 H1588 0.950 . S
C1612 C1607 1.363 . S
C1612 C1611 1.415 . S
C1613 H1589 0.951 . S
C1613 C1614 1.366 . S
C1613 C1615 1.388 . S
C1614 C1613 1.366 . S
C1614 C1618 1.385 . S
C1615 H1590 0.951 . S
C1615 C1613 1.388 . S
C1615 C1616 1.366 . S
C1616 C1615 1.366 . S
C1616 C1617 1.414 . S
C1616 C1619 1.499 . S
C1617 H1591 0.950 . S
C1617 C1616 1.414 . S
C1617 C1618 1.374 . S
C1618 H1592 0.950 . S
C1618 C1614 1.385 . S
C1618 C1617 1.374 . S
C1619 C1616 1.499 . S
C1619 C1620 1.373 . S
C1619 C1621 1.389 1_556 S
C1620 H1593 0.950 . S
C1620 C1606 1.377 . S
C1620 C1619 1.373 . S
C1621 C1605 1.377 . S
C1621 C1619 1.389 1_554 S
C1621 C1622 1.524 . S
C1622 C1621 1.524 . S
C1622 C1623 1.397 . S
C1622 C1627 1.363 . S
C1623 H1594 0.950 . S
C1623 C1622 1.397 . S
C1623 C1624 1.334 . S
C1624 H1595 0.950 . S
C1624 C1623 1.334 . S
C1624 C1625 1.287 . S
C1625 C1624 1.287 . S
C1625 C1626 1.524 . S
C1625 H1628 0.999 . S
C1626 H1596 0.950 . S
C1626 C1625 1.524 . S
C1626 C1627 1.415 . S
C1627 H1597 0.950 . S
C1627 C1622 1.363 . S
C1627 C1626 1.415 . S
H1628 C1625 0.999 . S
H1629 C1610 0.913 . S
H1630 C1648 0.951 . S
H1631 C1650 0.951 . S
H1632 C1652 0.950 . S
H1633 C1653 0.950 . S
H1634 C1655 0.950 . S
H1635 C1658 0.950 . S
H1636 C1659 0.950 . S
H1637 C1661 0.950 . S
H1638 C1662 0.950 . S
H1639 C1663 0.951 . S
H1640 C1665 0.951 . S
H1641 C1667 0.950 . S
H1642 C1668 0.950 . S
H1643 C1670 0.950 . S
H1644 C1673 0.950 . S
H1645 C1674 0.950 . S
H1646 C1676 0.950 . S
H1647 C1677 0.950 . S
C1648 H1630 0.951 . S
C1648 C1649 1.366 . S
C1648 C1650 1.388 . S
C1649 C1648 1.366 . S
C1649 C1653 1.385 . S
C1650 H1631 0.951 . S
C1650 C1648 1.388 . S
C1650 C1651 1.366 . S
C1651 C1650 1.366 . S
C1651 C1652 1.414 . S
C1651 C1654 1.499 . S
C1652 H1632 0.950 . S
C1652 C1651 1.414 . S
C1652 C1653 1.374 . S
C1653 H1633 0.950 . S
C1653 C1649 1.385 . S
C1653 C1652 1.374 . S
C1654 C1651 1.499 . S
C1654 C1655 1.373 . S
C1654 C1656 1.389 1_455 S
C1655 H1634 0.950 . S
C1655 C1654 1.373 . S
C1655 C1671 1.377 . S
C1656 C1654 1.389 1_655 S
C1656 C1657 1.524 . S
C1656 C1670 1.377 . S
C1657 C1656 1.524 . S
C1657 C1658 1.397 . S
C1657 C1662 1.363 . S
C1658 H1635 0.950 . S
C1658 C1657 1.397 . S
C1658 C1659 1.334 . S
C1659 H1636 0.950 . S
C1659 C1658 1.334 . S
C1659 C1660 1.287 . S
C1660 C1659 1.287 . S
C1660 C1661 1.524 . S
C1660 H1679 0.913 . S
C1661 H1637 0.950 . S
C1661 C1660 1.524 . S
C1661 C1662 1.415 . S
C1662 H1638 0.950 . S
C1662 C1657 1.363 . S
C1662 C1661 1.415 . S
C1663 H1639 0.951 . S
C1663 C1664 1.366 . S
C1663 C1665 1.388 . S
C1664 C1663 1.366 . S
C1664 C1668 1.385 . S
C1665 H1640 0.951 . S
C1665 C1663 1.388 . S
C1665 C1666 1.366 . S
C1666 C1665 1.366 . S
C1666 C1667 1.414 . S
C1666 C1669 1.499 . S
C1667 H1641 0.950 . S
C1667 C1666 1.414 . S
C1667 C1668 1.374 . S
C1668 H1642 0.950 . S
C1668 C1664 1.385 . S
C1668 C1667 1.374 . S
C1669 C1666 1.499 . S
C1669 C1670 1.373 . S
C1669 C1671 1.389 1_655 S
C1670 H1643 0.950 . S
C1670 C1656 1.377 . S
C1670 C1669 1.373 . S
C1671 C1655 1.377 . S
C1671 C1669 1.389 1_455 S
C1671 C1672 1.524 . S
C1672 C1671 1.524 . S
C1672 C1673 1.397 . S
C1672 C1677 1.363 . S
C1673 H1644 0.950 . S
C1673 C1672 1.397 . S
C1673 C1674 1.334 . S
C1674 H1645 0.950 . S
C1674 C1673 1.334 . S
C1674 C1675 1.287 . S
C1675 C1674 1.287 . S
C1675 C1676 1.524 . S
C1675 H1678 0.999 . S
C1676 H1646 0.950 . S
C1676 C1675 1.524 . S
C1676 C1677 1.415 . S
C1677 H1647 0.950 . S
C1677 C1672 1.363 . S
C1677 C1676 1.415 . S
H1678 C1675 0.999 . S
H1679 C1660 0.913 . S
H1680 C1698 0.951 . S
H1681 C1700 0.951 . S
H1682 C1702 0.950 . S
H1683 C1703 0.950 . S
H1684 C1705 0.950 . S
H1685 C1708 0.950 . S
H1686 C1709 0.950 . S
H1687 C1711 0.950 . S
H1688 C1712 0.950 . S
H1689 C1713 0.951 . S
H1690 C1715 0.951 . S
H1691 C1717 0.950 . S
H1692 C1718 0.950 . S
H1693 C1720 0.950 . S
H1694 C1723 0.950 . S
H1695 C1724 0.950 . S
H1696 C1726 0.950 . S
H1697 C1727 0.950 . S
C1698 H1680 0.951 . S
C1698 C1699 1.366 . S
C1698 C1700 1.388 . S
C1699 C1698 1.366 . S
C1699 C1703 1.385 . S
C1700 H1681 0.951 . S
C1700 C1698 1.388 . S
C1700 C1701 1.366 . S
C1701 C1700 1.366 . S
C1701 C1702 1.414 . S
C1701 C1704 1.499 . S
C1702 H1682 0.950 . S
C1702 C1701 1.414 . S
C1702 C1703 1.374 . S
C1703 H1683 0.950 . S
C1703 C1699 1.385 . S
C1703 C1702 1.374 . S
C1704 C1701 1.499 . S
C1704 C1705 1.373 . S
C1704 C1706 1.389 . S
C1705 H1684 0.950 . S
C1705 C1704 1.373 . S
C1705 C1721 1.377 . S
C1706 C1704 1.389 . S
C1706 C1707 1.524 . S
C1706 C1720 1.377 . S
C1707 C1706 1.524 . S
C1707 C1708 1.397 . S
C1707 C1712 1.363 . S
C1708 H1685 0.950 . S
C1708 C1707 1.397 . S
C1708 C1709 1.334 . S
C1709 H1686 0.950 . S
C1709 C1708 1.334 . S
C1709 C1710 1.287 . S
C1710 C1709 1.287 . S
C1710 C1711 1.524 . S
C1710 H1729 0.913 . S
C1711 H1687 0.950 . S
C1711 C1710 1.524 . S
C1711 C1712 1.415 . S
C1712 H1688 0.950 . S
C1712 C1707 1.363 . S
C1712 C1711 1.415 . S
C1713 H1689 0.951 . S
C1713 C1714 1.366 . S
C1713 C1715 1.388 . S
C1714 C1713 1.366 . S
C1714 C1718 1.385 . S
C1715 H1690 0.951 . S
C1715 C1713 1.388 . S
C1715 C1716 1.366 . S
C1716 C1715 1.366 . S
C1716 C1717 1.414 . S
C1716 C1719 1.499 . S
C1717 H1691 0.950 . S
C1717 C1716 1.414 . S
C1717 C1718 1.374 . S
C1718 H1692 0.950 . S
C1718 C1714 1.385 . S
C1718 C1717 1.374 . S
C1719 C1716 1.499 . S
C1719 C1720 1.373 . S
C1719 C1721 1.389 . S
C1720 H1693 0.950 . S
C1720 C1706 1.377 . S
C1720 C1719 1.373 . S
C1721 C1705 1.377 . S
C1721 C1719 1.389 . S
C1721 C1722 1.524 . S
C1722 C1721 1.524 . S
C1722 C1723 1.397 . S
C1722 C1727 1.363 . S
C1723 H1694 0.950 . S
C1723 C1722 1.397 . S
C1723 C1724 1.334 . S
C1724 H1695 0.950 . S
C1724 C1723 1.334 . S
C1724 C1725 1.287 . S
C1725 C1724 1.287 . S
C1725 C1726 1.524 . S
C1725 H1728 0.999 . S
C1726 H1696 0.950 . S
C1726 C1725 1.524 . S
C1726 C1727 1.415 . S
C1727 H1697 0.950 . S
C1727 C1722 1.363 . S
C1727 C1726 1.415 . S
H1728 C1725 0.999 . S
H1729 C1710 0.913 . S
H1730 C1748 0.951 . S
H1731 C1750 0.951 . S
H1732 C1752 0.950 . S
H1733 C1753 0.950 . S
H1734 C1755 0.950 . S
H1735 C1758 0.950 . S
H1736 C1759 0.950 . S
H1737 C1761 0.950 . S
H1738 C1762 0.950 . S
H1739 C1763 0.951 . S
H1740 C1765 0.951 . S
H1741 C1767 0.950 . S
H1742 C1768 0.950 . S
H1743 C1770 0.950 . S
H1744 C1773 0.950 . S
H1745 C1774 0.950 . S
H1746 C1776 0.950 . S
H1747 C1777 0.950 . S
C1748 H1730 0.951 . S
C1748 C1749 1.366 . S
C1748 C1750 1.388 . S
C1749 C1748 1.366 . S
C1749 C1753 1.385 . S
C1750 H1731 0.951 . S
C1750 C1748 1.388 . S
C1750 C1751 1.366 . S
C1751 C1750 1.366 . S
C1751 C1752 1.414 . S
C1751 C1754 1.499 . S
C1752 H1732 0.950 . S
C1752 C1751 1.414 . S
C1752 C1753 1.374 . S
C1753 H1733 0.950 . S
C1753 C1749 1.385 . S
C1753 C1752 1.374 . S
C1754 C1751 1.499 . S
C1754 C1755 1.373 . S
C1754 C1756 1.389 . S
C1755 H1734 0.950 . S
C1755 C1754 1.373 . S
C1755 C1771 1.377 . S
C1756 C1754 1.389 . S
C1756 C1757 1.524 . S
C1756 C1770 1.377 . S
C1757 C1756 1.524 . S
C1757 C1758 1.397 . S
C1757 C1762 1.363 . S
C1758 H1735 0.950 . S
C1758 C1757 1.397 . S
C1758 C1759 1.334 . S
C1759 H1736 0.950 . S
C1759 C1758 1.334 . S
C1759 C1760 1.287 . S
C1760 C1759 1.287 . S
C1760 C1761 1.524 . S
C1760 H1779 0.913 . S
C1761 H1737 0.950 . S
C1761 C1760 1.524 . S
C1761 C1762 1.415 . S
C1762 H1738 0.950 . S
C1762 C1757 1.363 . S
C1762 C1761 1.415 . S
C1763 H1739 0.951 . S
C1763 C1764 1.366 . S
C1763 C1765 1.388 . S
C1764 C1763 1.366 . S
C1764 C1768 1.385 . S
C1765 H1740 0.951 . S
C1765 C1763 1.388 . S
C1765 C1766 1.366 . S
C1766 C1765 1.366 . S
C1766 C1767 1.414 . S
C1766 C1769 1.499 . S
C1767 H1741 0.950 . S
C1767 C1766 1.414 . S
C1767 C1768 1.374 . S
C1768 H1742 0.950 . S
C1768 C1764 1.385 . S
C1768 C1767 1.374 . S
C1769 C1766 1.499 . S
C1769 C1770 1.373 . S
C1769 C1771 1.389 . S
C1770 H1743 0.950 . S
C1770 C1756 1.377 . S
C1770 C1769 1.373 . S
C1771 C1755 1.377 . S
C1771 C1769 1.389 . S
C1771 C1772 1.524 . S
C1772 C1771 1.524 . S
C1772 C1773 1.397 . S
C1772 C1777 1.363 . S
C1773 H1744 0.950 . S
C1773 C1772 1.397 . S
C1773 C1774 1.334 . S
C1774 H1745 0.950 . S
C1774 C1773 1.334 . S
C1774 C1775 1.287 . S
C1775 C1774 1.287 . S
C1775 C1776 1.524 . S
C1775 H1778 0.999 . S
C1776 H1746 0.950 . S
C1776 C1775 1.524 . S
C1776 C1777 1.415 . S
C1777 H1747 0.950 . S
C1777 C1772 1.363 . S
C1777 C1776 1.415 . S
H1778 C1775 0.999 . S
H1779 C1760 0.913 . S
H1780 C1798 0.951 . S
H1781 C1800 0.951 . S
H1782 C1802 0.950 . S
H1783 C1803 0.950 . S
H1784 C1805 0.950 . S
H1785 C1808 0.950 . S
H1786 C1809 0.950 . S
H1787 C1811 0.950 . S
H1788 C1812 0.950 . S
H1789 C1813 0.951 . S
H1790 C1815 0.951 . S
H1791 C1817 0.950 . S
H1792 C1818 0.950 . S
H1793 C1820 0.950 . S
H1794 C1823 0.950 . S
H1795 C1824 0.950 . S
H1796 C1826 0.950 . S
H1797 C1827 0.950 . S
C1798 H1780 0.951 . S
C1798 C1799 1.366 . S
C1798 C1800 1.388 . S
C1799 C1798 1.366 . S
C1799 C1803 1.385 . S
C1800 H1781 0.951 . S
C1800 C1798 1.388 . S
C1800 C1801 1.366 . S
C1801 C1800 1.366 . S
C1801 C1802 1.414 . S
C1801 C1804 1.499 . S
C1802 H1782 0.950 . S
C1802 C1801 1.414 . S
C1802 C1803 1.374 . S
C1803 H1783 0.950 . S
C1803 C1799 1.385 . S
C1803 C1802 1.374 . S
C1804 C1801 1.499 . S
C1804 C1805 1.373 . S
C1804 C1806 1.389 . S
C1805 H1784 0.950 . S
C1805 C1804 1.373 . S
C1805 C1821 1.377 . S
C1806 C1804 1.389 . S
C1806 C1807 1.524 . S
C1806 C1820 1.377 . S
C1807 C1806 1.524 . S
C1807 C1808 1.397 . S
C1807 C1812 1.363 . S
C1808 H1785 0.950 . S
C1808 C1807 1.397 . S
C1808 C1809 1.334 . S
C1809 H1786 0.950 . S
C1809 C1808 1.334 . S
C1809 C1810 1.287 . S
C1810 C1809 1.287 . S
C1810 C1811 1.524 . S
C1810 H1829 0.913 . S
C1811 H1787 0.950 . S
C1811 C1810 1.524 . S
C1811 C1812 1.415 . S
C1812 H1788 0.950 . S
C1812 C1807 1.363 . S
C1812 C1811 1.415 . S
C1813 H1789 0.951 . S
C1813 C1814 1.366 . S
C1813 C1815 1.388 . S
C1814 C1813 1.366 . S
C1814 C1818 1.385 . S
C1815 H1790 0.951 . S
C1815 C1813 1.388 . S
C1815 C1816 1.366 . S
C1816 C1815 1.366 . S
C1816 C1817 1.414 . S
C1816 C1819 1.499 . S
C1817 H1791 0.950 . S
C1817 C1816 1.414 . S
C1817 C1818 1.374 . S
C1818 H1792 0.950 . S
C1818 C1814 1.385 . S
C1818 C1817 1.374 . S
C1819 C1816 1.499 . S
C1819 C1820 1.373 . S
C1819 C1821 1.389 . S
C1820 H1793 0.950 . S
C1820 C1806 1.377 . S
C1820 C1819 1.373 . S
C1821 C1805 1.377 . S
C1821 C1819 1.389 . S
C1821 C1822 1.524 . S
C1822 C1821 1.524 . S
C1822 C1823 1.397 . S
C1822 C1827 1.363 . S
C1823 H1794 0.950 . S
C1823 C1822 1.397 . S
C1823 C1824 1.334 . S
C1824 H1795 0.950 . S
C1824 C1823 1.334 . S
C1824 C1825 1.287 . S
C1825 C1824 1.287 . S
C1825 C1826 1.524 . S
C1825 H1828 0.999 . S
C1826 H1796 0.950 . S
C1826 C1825 1.524 . S
C1826 C1827 1.415 . S
C1827 H1797 0.950 . S
C1827 C1822 1.363 . S
C1827 C1826 1.415 . S
H1828 C1825 0.999 . S
H1829 C1810 0.913 . S
H1830 C1848 0.951 . S
H1831 C1850 0.951 . S
H1832 C1852 0.950 . S
H1833 C1853 0.950 . S
H1834 C1855 0.950 . S
H1835 C1858 0.950 . S
H1836 C1859 0.950 . S
H1837 C1861 0.950 . S
H1838 C1862 0.950 . S
H1839 C1863 0.951 . S
H1840 C1865 0.951 . S
H1841 C1867 0.950 . S
H1842 C1868 0.950 . S
H1843 C1870 0.950 . S
H1844 C1873 0.950 . S
H1845 C1874 0.950 . S
H1846 C1876 0.950 . S
H1847 C1877 0.950 . S
C1848 H1830 0.951 . S
C1848 C1849 1.366 . S
C1848 C1850 1.388 . S
C1849 C1848 1.366 . S
C1849 C1853 1.385 . S
C1850 H1831 0.951 . S
C1850 C1848 1.388 . S
C1850 C1851 1.366 . S
C1851 C1850 1.366 . S
C1851 C1852 1.414 . S
C1851 C1854 1.499 . S
C1852 H1832 0.950 . S
C1852 C1851 1.414 . S
C1852 C1853 1.374 . S
C1853 H1833 0.950 . S
C1853 C1849 1.385 . S
C1853 C1852 1.374 . S
C1854 C1851 1.499 . S
C1854 C1855 1.373 . S
C1854 C1856 1.389 . S
C1855 H1834 0.950 . S
C1855 C1854 1.373 . S
C1855 C1871 1.377 . S
C1856 C1854 1.389 . S
C1856 C1857 1.524 . S
C1856 C1870 1.377 . S
C1857 C1856 1.524 . S
C1857 C1858 1.397 . S
C1857 C1862 1.363 . S
C1858 H1835 0.950 . S
C1858 C1857 1.397 . S
C1858 C1859 1.334 . S
C1859 H1836 0.950 . S
C1859 C1858 1.334 . S
C1859 C1860 1.287 . S
C1860 C1859 1.287 . S
C1860 C1861 1.524 . S
C1860 H1879 0.913 . S
C1861 H1837 0.950 . S
C1861 C1860 1.524 . S
C1861 C1862 1.415 . S
C1862 H1838 0.950 . S
C1862 C1857 1.363 . S
C1862 C1861 1.415 . S
C1863 H1839 0.951 . S
C1863 C1864 1.366 . S
C1863 C1865 1.388 . S
C1864 C1863 1.366 . S
C1864 C1868 1.385 . S
C1865 H1840 0.951 . S
C1865 C1863 1.388 . S
C1865 C1866 1.366 . S
C1866 C1865 1.366 . S
C1866 C1867 1.414 . S
C1866 C1869 1.499 . S
C1867 H1841 0.950 . S
C1867 C1866 1.414 . S
C1867 C1868 1.374 . S
C1868 H1842 0.950 . S
C1868 C1864 1.385 . S
C1868 C1867 1.374 . S
C1869 C1866 1.499 . S
C1869 C1870 1.373 . S
C1869 C1871 1.389 . S
C1870 H1843 0.950 . S
C1870 C1856 1.377 . S
C1870 C1869 1.373 . S
C1871 C1855 1.377 . S
C1871 C1869 1.389 . S
C1871 C1872 1.524 . S
C1872 C1871 1.524 . S
C1872 C1873 1.397 . S
C1872 C1877 1.363 . S
C1873 H1844 0.950 . S
C1873 C1872 1.397 . S
C1873 C1874 1.334 . S
C1874 H1845 0.950 . S
C1874 C1873 1.334 . S
C1874 C1875 1.287 . S
C1875 C1874 1.287 . S
C1875 C1876 1.524 . S
C1875 H1878 0.999 . S
C1876 H1846 0.950 . S
C1876 C1875 1.524 . S
C1876 C1877 1.415 . S
C1877 H1847 0.950 . S
C1877 C1872 1.363 . S
C1877 C1876 1.415 . S
H1878 C1875 0.999 . S
H1879 C1860 0.913 . S
H1880 C1898 0.951 . S
H1881 C1900 0.951 . S
H1882 C1902 0.950 . S
H1883 C1903 0.950 . S
H1884 C1905 0.950 . S
H1885 C1908 0.950 . S
H1886 C1909 0.950 . S
H1887 C1911 0.950 . S
H1888 C1912 0.950 . S
H1889 C1913 0.951 . S
H1890 C1915 0.951 . S
H1891 C1917 0.950 . S
H1892 C1918 0.950 . S
H1893 C1920 0.950 . S
H1894 C1923 0.950 . S
H1895 C1924 0.950 . S
H1896 C1926 0.950 . S
H1897 C1927 0.950 . S
C1898 H1880 0.951 . S
C1898 C1899 1.366 . S
C1898 C1900 1.388 . S
C1899 C1898 1.366 . S
C1899 C1903 1.385 . S
C1900 H1881 0.951 . S
C1900 C1898 1.388 . S
C1900 C1901 1.366 . S
C1901 C1900 1.366 . S
C1901 C1902 1.414 . S
C1901 C1904 1.499 . S
C1902 H1882 0.950 . S
C1902 C1901 1.414 . S
C1902 C1903 1.374 . S
C1903 H1883 0.950 . S
C1903 C1899 1.385 . S
C1903 C1902 1.374 . S
C1904 C1901 1.499 . S
C1904 C1905 1.373 . S
C1904 C1906 1.389 . S
C1905 H1884 0.950 . S
C1905 C1904 1.373 . S
C1905 C1921 1.377 . S
C1906 C1904 1.389 . S
C1906 C1907 1.524 . S
C1906 C1920 1.377 . S
C1907 C1906 1.524 . S
C1907 C1908 1.397 . S
C1907 C1912 1.363 . S
C1908 H1885 0.950 . S
C1908 C1907 1.397 . S
C1908 C1909 1.334 . S
C1909 H1886 0.950 . S
C1909 C1908 1.334 . S
C1909 C1910 1.287 . S
C1910 C1909 1.287 . S
C1910 C1911 1.524 . S
C1910 H1929 0.913 . S
C1911 H1887 0.950 . S
C1911 C1910 1.524 . S
C1911 C1912 1.415 . S
C1912 H1888 0.950 . S
C1912 C1907 1.363 . S
C1912 C1911 1.415 . S
C1913 H1889 0.951 . S
C1913 C1914 1.366 . S
C1913 C1915 1.388 . S
C1914 C1913 1.366 . S
C1914 C1918 1.385 . S
C1915 H1890 0.951 . S
C1915 C1913 1.388 . S
C1915 C1916 1.366 . S
C1916 C1915 1.366 . S
C1916 C1917 1.414 . S
C1916 C1919 1.499 . S
C1917 H1891 0.950 . S
C1917 C1916 1.414 . S
C1917 C1918 1.374 . S
C1918 H1892 0.950 . S
C1918 C1914 1.385 . S
C1918 C1917 1.374 . S
C1919 C1916 1.499 . S
C1919 C1920 1.373 . S
C1919 C1921 1.389 . S
C1920 H1893 0.950 . S
C1920 C1906 1.377 . S
C1920 C1919 1.373 . S
C1921 C1905 1.377 . S
C1921 C1919 1.389 . S
C1921 C1922 1.524 . S
C1922 C1921 1.524 . S
C1922 C1923 1.397 . S
C1922 C1927 1.363 . S
C1923 H1894 0.950 . S
C1923 C1922 1.397 . S
C1923 C1924 1.334 . S
C1924 H1895 0.950 . S
C1924 C1923 1.334 . S
C1924 C1925 1.287 . S
C1925 C1924 1.287 . S
C1925 C1926 1.524 . S
C1925 H1928 0.999 . S
C1926 H1896 0.950 . S
C1926 C1925 1.524 . S
C1926 C1927 1.415 . S
C1927 H1897 0.950 . S
C1927 C1922 1.363 . S
C1927 C1926 1.415 . S
H1928 C1925 0.999 . S
H1929 C1910 0.913 . S
H1930 C1948 0.951 . S
H1931 C1950 0.951 . S
H1932 C1952 0.950 . S
H1933 C1953 0.950 . S
H1934 C1955 0.950 . S
H1935 C1958 0.950 . S
H1936 C1959 0.950 . S
H1937 C1961 0.950 . S
H1938 C1962 0.950 . S
H1939 C1963 0.951 . S
H1940 C1965 0.951 . S
H1941 C1967 0.950 . S
H1942 C1968 0.950 . S
H1943 C1970 0.950 . S
H1944 C1973 0.950 . S
H1945 C1974 0.950 . S
H1946 C1976 0.950 . S
H1947 C1977 0.950 . S
C1948 H1930 0.951 . S
C1948 C1949 1.366 . S
C1948 C1950 1.388 . S
C1949 C1948 1.366 . S
C1949 C1953 1.385 . S
C1950 H1931 0.951 . S
C1950 C1948 1.388 . S
C1950 C1951 1.366 . S
C1951 C1950 1.366 . S
C1951 C1952 1.414 . S
C1951 C1954 1.499 . S
C1952 H1932 0.950 . S
C1952 C1951 1.414 . S
C1952 C1953 1.374 . S
C1953 H1933 0.950 . S
C1953 C1949 1.385 . S
C1953 C1952 1.374 . S
C1954 C1951 1.499 . S
C1954 C1955 1.373 . S
C1954 C1956 1.389 . S
C1955 H1934 0.950 . S
C1955 C1954 1.373 . S
C1955 C1971 1.377 . S
C1956 C1954 1.389 . S
C1956 C1957 1.524 . S
C1956 C1970 1.377 . S
C1957 C1956 1.524 . S
C1957 C1958 1.397 . S
C1957 C1962 1.363 . S
C1958 H1935 0.950 . S
C1958 C1957 1.397 . S
C1958 C1959 1.334 . S
C1959 H1936 0.950 . S
C1959 C1958 1.334 . S
C1959 C1960 1.287 . S
C1960 C1959 1.287 . S
C1960 C1961 1.524 . S
C1960 H1979 0.913 . S
C1961 H1937 0.950 . S
C1961 C1960 1.524 . S
C1961 C1962 1.415 . S
C1962 H1938 0.950 . S
C1962 C1957 1.363 . S
C1962 C1961 1.415 . S
C1963 H1939 0.951 . S
C1963 C1964 1.366 . S
C1963 C1965 1.388 . S
C1964 C1963 1.366 . S
C1964 C1968 1.385 . S
C1965 H1940 0.951 . S
C1965 C1963 1.388 . S
C1965 C1966 1.366 . S
C1966 C1965 1.366 . S
C1966 C1967 1.414 . S
C1966 C1969 1.499 . S
C1967 H1941 0.950 . S
C1967 C1966 1.414 . S
C1967 C1968 1.374 . S
C1968 H1942 0.950 . S
C1968 C1964 1.385 . S
C1968 C1967 1.374 . S
C1969 C1966 1.499 . S
C1969 C1970 1.373 . S
C1969 C1971 1.389 . S
C1970 H1943 0.950 . S
C1970 C1956 1.377 . S
C1970 C1969 1.373 . S
C1971 C1955 1.377 . S
C1971 C1969 1.389 . S
C1971 C1972 1.524 . S
C1972 C1971 1.524 . S
C1972 C1973 1.397 . S
C1972 C1977 1.363 . S
C1973 H1944 0.950 . S
C1973 C1972 1.397 . S
C1973 C1974 1.334 . S
C1974 H1945 0.950 . S
C1974 C1973 1.334 . S
C1974 C1975 1.287 . S
C1975 C1974 1.287 . S
C1975 C1976 1.524 . S
C1975 H1978 0.999 . S
C1976 H1946 0.950 . S
C1976 C1975 1.524 . S
C1976 C1977 1.415 . S
C1977 H1947 0.950 . S
C1977 C1972 1.363 . S
C1977 C1976 1.415 . S
H1978 C1975 0.999 . S
H1979 C1960 0.913 . S
H1980 C1998 0.951 . S
H1981 C2000 0.951 . S
H1982 C2002 0.950 . S
H1983 C2003 0.950 . S
H1984 C2005 0.950 . S
H1985 C2008 0.950 . S
H1986 C2009 0.950 . S
H1987 C2011 0.950 . S
H1988 C2012 0.950 . S
H1989 C2013 0.951 . S
H1990 C2015 0.951 . S
H1991 C2017 0.950 . S
H1992 C2018 0.950 . S
H1993 C2020 0.950 . S
H1994 C2023 0.950 . S
H1995 C2024 0.950 . S
H1996 C2026 0.950 . S
H1997 C2027 0.950 . S
C1998 H1980 0.951 . S
C1998 C1999 1.366 . S
C1998 C2000 1.388 . S
C1999 C1998 1.366 . S
C1999 C2003 1.385 . S
C2000 H1981 0.951 . S
C2000 C1998 1.388 . S
C2000 C2001 1.366 . S
C2001 C2000 1.366 . S
C2001 C2002 1.414 . S
C2001 C2004 1.499 . S
C2002 H1982 0.950 . S
C2002 C2001 1.414 . S
C2002 C2003 1.374 . S
C2003 H1983 0.950 . S
C2003 C1999 1.385 . S
C2003 C2002 1.374 . S
C2004 C2001 1.499 . S
C2004 C2005 1.373 . S
C2004 C2006 1.389 . S
C2005 H1984 0.950 . S
C2005 C2004 1.373 . S
C2005 C2021 1.377 . S
C2006 C2004 1.389 . S
C2006 C2007 1.524 . S
C2006 C2020 1.377 . S
C2007 C2006 1.524 . S
C2007 C2008 1.397 . S
C2007 C2012 1.363 . S
C2008 H1985 0.950 . S
C2008 C2007 1.397 . S
C2008 C2009 1.334 . S
C2009 H1986 0.950 . S
C2009 C2008 1.334 . S
C2009 C2010 1.287 . S
C2010 C2009 1.287 . S
C2010 C2011 1.524 . S
C2010 H2029 0.913 . S
C2011 H1987 0.950 . S
C2011 C2010 1.524 . S
C2011 C2012 1.415 . S
C2012 H1988 0.950 . S
C2012 C2007 1.363 . S
C2012 C2011 1.415 . S
C2013 H1989 0.951 . S
C2013 C2014 1.366 . S
C2013 C2015 1.388 . S
C2014 C2013 1.366 . S
C2014 C2018 1.385 . S
C2015 H1990 0.951 . S
C2015 C2013 1.388 . S
C2015 C2016 1.366 . S
C2016 C2015 1.366 . S
C2016 C2017 1.414 . S
C2016 C2019 1.499 . S
C2017 H1991 0.950 . S
C2017 C2016 1.414 . S
C2017 C2018 1.374 . S
C2018 H1992 0.950 . S
C2018 C2014 1.385 . S
C2018 C2017 1.374 . S
C2019 C2016 1.499 . S
C2019 C2020 1.373 . S
C2019 C2021 1.389 . S
C2020 H1993 0.950 . S
C2020 C2006 1.377 . S
C2020 C2019 1.373 . S
C2021 C2005 1.377 . S
C2021 C2019 1.389 . S
C2021 C2022 1.524 . S
C2022 C2021 1.524 . S
C2022 C2023 1.397 . S
C2022 C2027 1.363 . S
C2023 H1994 0.950 . S
C2023 C2022 1.397 . S
C2023 C2024 1.334 . S
C2024 H1995 0.950 . S
C2024 C2023 1.334 . S
C2024 C2025 1.287 . S
C2025 C2024 1.287 . S
C2025 C2026 1.524 . S
C2025 H2028 0.999 . S
C2026 H1996 0.950 . S
C2026 C2025 1.524 . S
C2026 C2027 1.415 . S
C2027 H1997 0.950 . S
C2027 C2022 1.363 . S
C2027 C2026 1.415 . S
H2028 C2025 0.999 . S
H2029 C2010 0.913 . S
H2030 C2048 0.951 . S
H2031 C2050 0.951 . S
H2032 C2052 0.950 . S
H2033 C2053 0.950 . S
H2034 C2055 0.950 . S
H2035 C2058 0.950 . S
H2036 C2059 0.950 . S
H2037 C2061 0.950 . S
H2038 C2062 0.950 . S
H2039 C2063 0.951 . S
H2040 C2065 0.951 . S
H2041 C2067 0.950 . S
H2042 C2068 0.950 . S
H2043 C2070 0.950 . S
H2044 C2073 0.950 . S
H2045 C2074 0.950 . S
H2046 C2076 0.950 . S
H2047 C2077 0.950 . S
C2048 H2030 0.951 . S
C2048 C2049 1.366 . S
C2048 C2050 1.388 . S
C2049 C2048 1.366 . S
C2049 C2053 1.385 . S
C2050 H2031 0.951 . S
C2050 C2048 1.388 . S
C2050 C2051 1.366 . S
C2051 C2050 1.366 . S
C2051 C2052 1.414 . S
C2051 C2054 1.499 . S
C2052 H2032 0.950 . S
C2052 C2051 1.414 . S
C2052 C2053 1.374 . S
C2053 H2033 0.950 . S
C2053 C2049 1.385 . S
C2053 C2052 1.374 . S
C2054 C2051 1.499 . S
C2054 C2055 1.373 . S
C2054 C2056 1.389 . S
C2055 H2034 0.950 . S
C2055 C2054 1.373 . S
C2055 C2071 1.377 . S
C2056 C2054 1.389 . S
C2056 C2057 1.524 . S
C2056 C2070 1.377 . S
C2057 C2056 1.524 . S
C2057 C2058 1.397 . S
C2057 C2062 1.363 . S
C2058 H2035 0.950 . S
C2058 C2057 1.397 . S
C2058 C2059 1.334 . S
C2059 H2036 0.950 . S
C2059 C2058 1.334 . S
C2059 C2060 1.287 . S
C2060 C2059 1.287 . S
C2060 C2061 1.524 . S
C2060 H2079 0.913 . S
C2061 H2037 0.950 . S
C2061 C2060 1.524 . S
C2061 C2062 1.415 . S
C2062 H2038 0.950 . S
C2062 C2057 1.363 . S
C2062 C2061 1.415 . S
C2063 H2039 0.951 . S
C2063 C2064 1.366 . S
C2063 C2065 1.388 . S
C2064 C2063 1.366 . S
C2064 C2068 1.385 . S
C2065 H2040 0.951 . S
C2065 C2063 1.388 . S
C2065 C2066 1.366 . S
C2066 C2065 1.366 . S
C2066 C2067 1.414 . S
C2066 C2069 1.499 . S
C2067 H2041 0.950 . S
C2067 C2066 1.414 . S
C2067 C2068 1.374 . S
C2068 H2042 0.950 . S
C2068 C2064 1.385 . S
C2068 C2067 1.374 . S
C2069 C2066 1.499 . S
C2069 C2070 1.373 . S
C2069 C2071 1.389 . S
C2070 H2043 0.950 . S
C2070 C2056 1.377 . S
C2070 C2069 1.373 . S
C2071 C2055 1.377 . S
C2071 C2069 1.389 . S
C2071 C2072 1.524 . S
C2072 C2071 1.524 . S
C2072 C2073 1.397 . S
C2072 C2077 1.363 . S
C2073 H2044 0.950 . S
C2073 C2072 1.397 . S
C2073 C2074 1.334 . S
C2074 H2045 0.950 . S
C2074 C2073 1.334 . S
C2074 C2075 1.287 . S
C2075 C2074 1.287 . S
C2075 C2076 1.524 . S
C2075 H2078 0.999 . S
C2076 H2046 0.950 . S
C2076 C2075 1.524 . S
C2076 C2077 1.415 . S
C2077 H2047 0.950 . S
C2077 C2072 1.363 . S
C2077 C2076 1.415 . S
H2078 C2075 0.999 . S
H2079 C2060 0.913 . S
H2080 C2098 0.951 . S
H2081 C2100 0.951 . S
H2082 C2102 0.950 . S
H2083 C2103 0.950 . S
H2084 C2105 0.950 . S
H2085 C2108 0.950 . S
H2086 C2109 0.950 . S
H2087 C2111 0.950 . S
H2088 C2112 0.950 . S
H2089 C2113 0.951 . S
H2090 C2115 0.951 . S
H2091 C2117 0.950 . S
H2092 C2118 0.950 . S
H2093 C2120 0.950 . S
H2094 C2123 0.950 . S
H2095 C2124 0.950 . S
H2096 C2126 0.950 . S
H2097 C2127 0.950 . S
C2098 H2080 0.951 . S
C2098 C2099 1.366 . S
C2098 C2100 1.388 . S
C2099 C2098 1.366 . S
C2099 C2103 1.385 . S
C2100 H2081 0.951 . S
C2100 C2098 1.388 . S
C2100 C2101 1.366 . S
C2101 C2100 1.366 . S
C2101 C2102 1.414 . S
C2101 C2104 1.499 . S
C2102 H2082 0.950 . S
C2102 C2101 1.414 . S
C2102 C2103 1.374 . S
C2103 H2083 0.950 . S
C2103 C2099 1.385 . S
C2103 C2102 1.374 . S
C2104 C2101 1.499 . S
C2104 C2105 1.373 . S
C2104 C2106 1.389 . S
C2105 H2084 0.950 . S
C2105 C2104 1.373 . S
C2105 C2121 1.377 . S
C2106 C2104 1.389 . S
C2106 C2107 1.524 . S
C2106 C2120 1.377 . S
C2107 C2106 1.524 . S
C2107 C2108 1.397 . S
C2107 C2112 1.363 . S
C2108 H2085 0.950 . S
C2108 C2107 1.397 . S
C2108 C2109 1.334 . S
C2109 H2086 0.950 . S
C2109 C2108 1.334 . S
C2109 C2110 1.287 . S
C2110 C2109 1.287 . S
C2110 C2111 1.524 . S
C2110 H2129 0.913 . S
C2111 H2087 0.950 . S
C2111 C2110 1.524 . S
C2111 C2112 1.415 . S
C2112 H2088 0.950 . S
C2112 C2107 1.363 . S
C2112 C2111 1.415 . S
C2113 H2089 0.951 . S
C2113 C2114 1.366 . S
C2113 C2115 1.388 . S
C2114 C2113 1.366 . S
C2114 C2118 1.385 . S
C2115 H2090 0.951 . S
C2115 C2113 1.388 . S
C2115 C2116 1.366 . S
C2116 C2115 1.366 . S
C2116 C2117 1.414 . S
C2116 C2119 1.499 . S
C2117 H2091 0.950 . S
C2117 C2116 1.414 . S
C2117 C2118 1.374 . S
C2118 H2092 0.950 . S
C2118 C2114 1.385 . S
C2118 C2117 1.374 . S
C2119 C2116 1.499 . S
C2119 C2120 1.373 . S
C2119 C2121 1.389 . S
C2120 H2093 0.950 . S
C2120 C2106 1.377 . S
C2120 C2119 1.373 . S
C2121 C2105 1.377 . S
C2121 C2119 1.389 . S
C2121 C2122 1.524 . S
C2122 C2121 1.524 . S
C2122 C2123 1.397 . S
C2122 C2127 1.363 . S
C2123 H2094 0.950 . S
C2123 C2122 1.397 . S
C2123 C2124 1.334 . S
C2124 H2095 0.950 . S
C2124 C2123 1.334 . S
C2124 C2125 1.287 . S
C2125 C2124 1.287 . S
C2125 C2126 1.524 . S
C2125 H2128 0.999 . S
C2126 H2096 0.950 . S
C2126 C2125 1.524 . S
C2126 C2127 1.415 . S
C2127 H2097 0.950 . S
C2127 C2122 1.363 . S
C2127 C2126 1.415 . S
H2128 C2125 0.999 . S
H2129 C2110 0.913 . S
H2130 C2148 0.951 . S
H2131 C2150 0.951 . S
H2132 C2152 0.950 . S
H2133 C2153 0.950 . S
H2134 C2155 0.950 . S
H2135 C2158 0.950 . S
H2136 C2159 0.950 . S
H2137 C2161 0.950 . S
H2138 C2162 0.950 . S
H2139 C2163 0.951 . S
H2140 C2165 0.951 . S
H2141 C2167 0.950 . S
H2142 C2168 0.950 . S
H2143 C2170 0.950 . S
H2144 C2173 0.950 . S
H2145 C2174 0.950 . S
H2146 C2176 0.950 . S
H2147 C2177 0.950 . S
C2148 H2130 0.951 . S
C2148 C2149 1.366 . S
C2148 C2150 1.388 . S
C2149 C2148 1.366 . S
C2149 C2153 1.385 . S
C2150 H2131 0.951 . S
C2150 C2148 1.388 . S
C2150 C2151 1.366 . S
C2151 C2150 1.366 . S
C2151 C2152 1.414 . S
C2151 C2154 1.499 . S
C2152 H2132 0.950 . S
C2152 C2151 1.414 . S
C2152 C2153 1.374 . S
C2153 H2133 0.950 . S
C2153 C2149 1.385 . S
C2153 C2152 1.374 . S
C2154 C2151 1.499 . S
C2154 C2155 1.373 . S
C2154 C2156 1.389 . S
C2155 H2134 0.950 . S
C2155 C2154 1.373 . S
C2155 C2171 1.377 . S
C2156 C2154 1.389 . S
C2156 C2157 1.524 . S
C2156 C2170 1.377 . S
C2157 C2156 1.524 . S
C2157 C2158 1.397 . S
C2157 C2162 1.363 . S
C2158 H2135 0.950 . S
C2158 C2157 1.397 . S
C2158 C2159 1.334 . S
C2159 H2136 0.950 . S
C2159 C2158 1.334 . S
C2159 C2160 1.287 . S
C2160 C2159 1.287 . S
C2160 C2161 1.524 . S
C2160 H2179 0.913 . S
C2161 H2137 0.950 . S
C2161 C2160 1.524 . S
C2161 C2162 1.415 . S
C2162 H2138 0.950 . S
C2162 C2157 1.363 . S
C2162 C2161 1.415 . S
C2163 H2139 0.951 . S
C2163 C2164 1.366 . S
C2163 C2165 1.388 . S
C2164 C2163 1.366 . S
C2164 C2168 1.385 . S
C2165 H2140 0.951 . S
C2165 C2163 1.388 . S
C2165 C2166 1.366 . S
C2166 C2165 1.366 . S
C2166 C2167 1.414 . S
C2166 C2169 1.499 . S
C2167 H2141 0.950 . S
C2167 C2166 1.414 . S
C2167 C2168 1.374 . S
C2168 H2142 0.950 . S
C2168 C2164 1.385 . S
C2168 C2167 1.374 . S
C2169 C2166 1.499 . S
C2169 C2170 1.373 . S
C2169 C2171 1.389 . S
C2170 H2143 0.950 . S
C2170 C2156 1.377 . S
C2170 C2169 1.373 . S
C2171 C2155 1.377 . S
C2171 C2169 1.389 . S
C2171 C2172 1.524 . S
C2172 C2171 1.524 . S
C2172 C2173 1.397 . S
C2172 C2177 1.363 . S
C2173 H2144 0.950 . S
C2173 C2172 1.397 . S
C2173 C2174 1.334 . S
C2174 H2145 0.950 . S
C2174 C2173 1.334 . S
C2174 C2175 1.287 . S
C2175 C2174 1.287 . S
C2175 C2176 1.524 . S
C2175 H2178 0.999 . S
C2176 H2146 0.950 . S
C2176 C2175 1.524 . S
C2176 C2177 1.415 . S
C2177 H2147 0.950 . S
C2177 C2172 1.363 . S
C2177 C2176 1.415 . S
H2178 C2175 0.999 . S
H2179 C2160 0.913 . S
H2180 C2198 0.951 . S
H2181 C2200 0.951 . S
H2182 C2202 0.950 . S
H2183 C2203 0.950 . S
H2184 C2205 0.950 . S
H2185 C2208 0.950 . S
H2186 C2209 0.950 . S
H2187 C2211 0.950 . S
H2188 C2212 0.950 . S
H2189 C2213 0.951 . S
H2190 C2215 0.951 . S
H2191 C2217 0.950 . S
H2192 C2218 0.950 . S
H2193 C2220 0.950 . S
H2194 C2223 0.950 . S
H2195 C2224 0.950 . S
H2196 C2226 0.950 . S
H2197 C2227 0.950 . S
C2198 H2180 0.951 . S
C2198 C2199 1.366 . S
C2198 C2200 1.388 . S
C2199 C2198 1.366 . S
C2199 C2203 1.385 . S
C2200 H2181 0.951 . S
C2200 C2198 1.388 . S
C2200 C2201 1.366 . S
C2201 C2200 1.366 . S
C2201 C2202 1.414 . S
C2201 C2204 1.499 . S
C2202 H2182 0.950 . S
C2202 C2201 1.414 . S
C2202 C2203 1.374 . S
C2203 H2183 0.950 . S
C2203 C2199 1.385 . S
C2203 C2202 1.374 . S
C2204 C2201 1.499 . S
C2204 C2205 1.373 . S
C2204 C2206 1.389 . S
C2205 H2184 0.950 . S
C2205 C2204 1.373 . S
C2205 C2221 1.377 . S
C2206 C2204 1.389 . S
C2206 C2207 1.524 . S
C2206 C2220 1.377 . S
C2207 C2206 1.524 . S
C2207 C2208 1.397 . S
C2207 C2212 1.363 . S
C2208 H2185 0.950 . S
C2208 C2207 1.397 . S
C2208 C2209 1.334 . S
C2209 H2186 0.950 . S
C2209 C2208 1.334 . S
C2209 C2210 1.287 . S
C2210 C2209 1.287 . S
C2210 C2211 1.524 . S
C2210 H2229 0.913 . S
C2211 H2187 0.950 . S
C2211 C2210 1.524 . S
C2211 C2212 1.415 . S
C2212 H2188 0.950 . S
C2212 C2207 1.363 . S
C2212 C2211 1.415 . S
C2213 H2189 0.951 . S
C2213 C2214 1.366 . S
C2213 C2215 1.388 . S
C2214 C2213 1.366 . S
C2214 C2218 1.385 . S
C2215 H2190 0.951 . S
C2215 C2213 1.388 . S
C2215 C2216 1.366 . S
C2216 C2215 1.366 . S
C2216 C2217 1.414 . S
C2216 C2219 1.499 . S
C2217 H2191 0.950 . S
C2217 C2216 1.414 . S
C2217 C2218 1.374 . S
C2218 H2192 0.950 . S
C2218 C2214 1.385 . S
C2218 C2217 1.374 . S
C2219 C2216 1.499 . S
C2219 C2220 1.373 . S
C2219 C2221 1.389 . S
C2220 H2193 0.950 . S
C2220 C2206 1.377 . S
C2220 C2219 1.373 . S
C2221 C2205 1.377 . S
C2221 C2219 1.389 . S
C2221 C2222 1.524 . S
C2222 C2221 1.524 . S
C2222 C2223 1.397 . S
C2222 C2227 1.363 . S
C2223 H2194 0.950 . S
C2223 C2222 1.397 . S
C2223 C2224 1.334 . S
C2224 H2195 0.950 . S
C2224 C2223 1.334 . S
C2224 C2225 1.287 . S
C2225 C2224 1.287 . S
C2225 C2226 1.524 . S
C2225 H2228 0.999 . S
C2226 H2196 0.950 . S
C2226 C2225 1.524 . S
C2226 C2227 1.415 . S
C2227 H2197 0.950 . S
C2227 C2222 1.363 . S
C2227 C2226 1.415 . S
H2228 C2225 0.999 . S
H2229 C2210 0.913 . S
H2230 C2248 0.951 . S
H2231 C2250 0.951 . S
H2232 C2252 0.950 . S
H2233 C2253 0.950 . S
H2234 C2255 0.950 . S
H2235 C2258 0.950 . S
H2236 C2259 0.950 . S
H2237 C2261 0.950 . S
H2238 C2262 0.950 . S
H2239 C2263 0.951 . S
H2240 C2265 0.951 . S
H2241 C2267 0.950 . S
H2242 C2268 0.950 . S
H2243 C2270 0.950 . S
H2244 C2273 0.950 . S
H2245 C2274 0.950 . S
H2246 C2276 0.950 . S
H2247 C2277 0.950 . S
C2248 H2230 0.951 . S
C2248 C2249 1.366 . S
C2248 C2250 1.388 . S
C2249 C2248 1.366 . S
C2249 C2253 1.385 . S
C2250 H2231 0.951 . S
C2250 C2248 1.388 . S
C2250 C2251 1.366 . S
C2251 C2250 1.366 . S
C2251 C2252 1.414 . S
C2251 C2254 1.499 . S
C2252 H2232 0.950 . S
C2252 C2251 1.414 . S
C2252 C2253 1.374 . S
C2253 H2233 0.950 . S
C2253 C2249 1.385 . S
C2253 C2252 1.374 . S
C2254 C2251 1.499 . S
C2254 C2255 1.373 . S
C2254 C2256 1.389 . S
C2255 H2234 0.950 . S
C2255 C2254 1.373 . S
C2255 C2271 1.377 . S
C2256 C2254 1.389 . S
C2256 C2257 1.524 . S
C2256 C2270 1.377 . S
C2257 C2256 1.524 . S
C2257 C2258 1.397 . S
C2257 C2262 1.363 . S
C2258 H2235 0.950 . S
C2258 C2257 1.397 . S
C2258 C2259 1.334 . S
C2259 H2236 0.950 . S
C2259 C2258 1.334 . S
C2259 C2260 1.287 . S
C2260 C2259 1.287 . S
C2260 C2261 1.524 . S
C2260 H2279 0.913 . S
C2261 H2237 0.950 . S
C2261 C2260 1.524 . S
C2261 C2262 1.415 . S
C2262 H2238 0.950 . S
C2262 C2257 1.363 . S
C2262 C2261 1.415 . S
C2263 H2239 0.951 . S
C2263 C2264 1.366 . S
C2263 C2265 1.388 . S
C2264 C2263 1.366 . S
C2264 C2268 1.385 . S
C2265 H2240 0.951 . S
C2265 C2263 1.388 . S
C2265 C2266 1.366 . S
C2266 C2265 1.366 . S
C2266 C2267 1.414 . S
C2266 C2269 1.499 . S
C2267 H2241 0.950 . S
C2267 C2266 1.414 . S
C2267 C2268 1.374 . S
C2268 H2242 0.950 . S
C2268 C2264 1.385 . S
C2268 C2267 1.374 . S
C2269 C2266 1.499 . S
C2269 C2270 1.373 . S
C2269 C2271 1.389 . S
C2270 H2243 0.950 . S
C2270 C2256 1.377 . S
C2270 C2269 1.373 . S
C2271 C2255 1.377 . S
C2271 C2269 1.389 . S
C2271 C2272 1.524 . S
C2272 C2271 1.524 . S
C2272 C2273 1.397 . S
C2272 C2277 1.363 . S
C2273 H2244 0.950 . S
C2273 C2272 1.397 . S
C2273 C2274 1.334 . S
C2274 H2245 0.950 . S
C2274 C2273 1.334 . S
C2274 C2275 1.287 . S
C2275 C2274 1.287 . S
C2275 C2276 1.524 . S
C2275 H2278 0.999 . S
C2276 H2246 0.950 . S
C2276 C2275 1.524 . S
C2276 C2277 1.415 . S
C2277 H2247 0.950 . S
C2277 C2272 1.363 . S
C2277 C2276 1.415 . S
H2278 C2275 0.999 . S
H2279 C2260 0.913 . S
C499 C95 1.231 . S
C514 C19 1.200 . S
C549 C126 1.230 . S
C564 C50 1.199 . S
C599 C99 1.199 . S
C614 C175 1.230 . S
C649 C130 1.199 . S
C664 C206 1.231 . S
C699 C15 1.231 . S
C714 C179 1.200 . S
C749 C46 1.231 . S
C764 C210 1.200 . S
C799 C406 1.230 . S
C814 C250 1.199 . S
C849 C299 1.200 . S
C864 C455 1.231 . S
C899 C330 1.199 . S
C914 C246 1.230 . S
C949 C379 1.200 . S
C964 C295 1.231 . S
C999 C410 1.200 . S
C1014 C326 1.230 . S
C1049 C375 1.231 . S
C1064 C459 1.200 . S
C1099 C129 1.735 . S
C1114 C18 1.734 . S
C1149 C49 1.735 . S
C1164 C178 1.735 . S
C1199 C98 1.735 . S
C1214 C209 1.734 . S
C1249 C249 1.734 . S
C1264 C378 1.735 . S
C1299 C298 1.735 . S
C1314 C409 1.735 . S
C1349 C329 1.735 . S
C1364 C458 1.735 . S
C1399 C289 2.282 . S
C1414 C9 2.282 . S
C1449 C58 2.282 . S
C1464 C338 2.282 . S
C1499 C369 2.282 . S
C1514 C89 2.282 . S
C1549 C138 2.282 . S
C1564 C418 2.282 . S
C1599 C169 2.282 . S
C1614 C449 2.282 . S
C1649 C258 2.282 . S
C1664 C218 2.282 . S
C1699 C86 1.756 . S
C1714 C10 1.761 . S
C1749 C59 1.761 . S
C1764 C135 1.756 . S
C1799 C90 1.761 . S
C1814 C166 1.756 . S
C1849 C139 1.761 . S
C1864 C215 1.756 . S
C1899 C6 1.756 . S
C1914 C170 1.761 . S
C1949 C55 1.756 . S
C1964 C219 1.761 . S
C1999 C415 1.756 . S
C2014 C259 1.761 . S
C2049 C290 1.761 . S
C2064 C446 1.756 . S
C2099 C339 1.761 . S
C2114 C255 1.756 . S
C2149 C286 1.756 . S
C2164 C370 1.761 . S
C2199 C419 1.761 . S
C2214 C335 1.756 . S
C2249 C450 1.761 . S
C2264 C366 1.756 . S
