# Generated by pormake.
# Topology unp, (4)-cn, num edge types: 1
# Building blocks:
#     Node 0, Type 0, BuildingBlock: GALJAG_clean_sbu_0, # of connection points: 4
#     Node 1, Type 0, BuildingBlock: GALJAG_clean_sbu_0, # of connection points: 4
#     Node 2, Type 0, BuildingBlock: GALJAG_clean_sbu_0, # of connection points: 4
#     Node 3, Type 0, BuildingBlock: GALJAG_clean_sbu_0, # of connection points: 4
#     Node 4, Type 0, BuildingBlock: GALJAG_clean_sbu_0, # of connection points: 4
#     Node 5, Type 0, BuildingBlock: GALJAG_clean_sbu_0, # of connection points: 4
#     Node 6, Type 0, BuildingBlock: GALJAG_clean_sbu_0, # of connection points: 4
#     Node 7, Type 0, BuildingBlock: GALJAG_clean_sbu_0, # of connection points: 4
#     Node 8, Type 0, BuildingBlock: GALJAG_clean_sbu_0, # of connection points: 4
#     Node 9, Type 0, BuildingBlock: GALJAG_clean_sbu_0, # of connection points: 4
#     Node 10, Type 0, BuildingBlock: GALJAG_clean_sbu_0, # of connection points: 4
#     Node 11, Type 0, BuildingBlock: GALJAG_clean_sbu_0, # of connection points: 4
#     Node 12, Type 0, BuildingBlock: GALJAG_clean_sbu_0, # of connection points: 4
#     Node 13, Type 0, BuildingBlock: GALJAG_clean_sbu_0, # of connection points: 4
#     Node 14, Type 0, BuildingBlock: GALJAG_clean_sbu_0, # of connection points: 4
#     Node 15, Type 0, BuildingBlock: GALJAG_clean_sbu_0, # of connection points: 4
#     Node 16, Type 0, BuildingBlock: GALJAG_clean_sbu_0, # of connection points: 4
#     Node 17, Type 0, BuildingBlock: GALJAG_clean_sbu_0, # of connection points: 4
#     Edge 18, Type (0, 0), BuildingBlock: EZIPEK_clean_linker_0, # of connection points: 2
#     Edge 19, Type (0, 0), BuildingBlock: EZIPEK_clean_linker_0, # of connection points: 2
#     Edge 20, Type (0, 0), BuildingBlock: EZIPEK_clean_linker_0, # of connection points: 2
#     Edge 21, Type (0, 0), BuildingBlock: EZIPEK_clean_linker_0, # of connection points: 2
#     Edge 22, Type (0, 0), BuildingBlock: EZIPEK_clean_linker_0, # of connection points: 2
#     Edge 23, Type (0, 0), BuildingBlock: EZIPEK_clean_linker_0, # of connection points: 2
#     Edge 24, Type (0, 0), BuildingBlock: EZIPEK_clean_linker_0, # of connection points: 2
#     Edge 25, Type (0, 0), BuildingBlock: EZIPEK_clean_linker_0, # of connection points: 2
#     Edge 26, Type (0, 0), BuildingBlock: EZIPEK_clean_linker_0, # of connection points: 2
#     Edge 27, Type (0, 0), BuildingBlock: EZIPEK_clean_linker_0, # of connection points: 2
#     Edge 28, Type (0, 0), BuildingBlock: EZIPEK_clean_linker_0, # of connection points: 2
#     Edge 29, Type (0, 0), BuildingBlock: EZIPEK_clean_linker_0, # of connection points: 2
#     Edge 30, Type (0, 0), BuildingBlock: EZIPEK_clean_linker_0, # of connection points: 2
#     Edge 31, Type (0, 0), BuildingBlock: EZIPEK_clean_linker_0, # of connection points: 2
#     Edge 32, Type (0, 0), BuildingBlock: EZIPEK_clean_linker_0, # of connection points: 2
#     Edge 33, Type (0, 0), BuildingBlock: EZIPEK_clean_linker_0, # of connection points: 2
#     Edge 34, Type (0, 0), BuildingBlock: EZIPEK_clean_linker_0, # of connection points: 2
#     Edge 35, Type (0, 0), BuildingBlock: EZIPEK_clean_linker_0, # of connection points: 2
#     Edge 36, Type (0, 0), BuildingBlock: EZIPEK_clean_linker_0, # of connection points: 2
#     Edge 37, Type (0, 0), BuildingBlock: EZIPEK_clean_linker_0, # of connection points: 2
#     Edge 38, Type (0, 0), BuildingBlock: EZIPEK_clean_linker_0, # of connection points: 2
#     Edge 39, Type (0, 0), BuildingBlock: EZIPEK_clean_linker_0, # of connection points: 2
#     Edge 40, Type (0, 0), BuildingBlock: EZIPEK_clean_linker_0, # of connection points: 2
#     Edge 41, Type (0, 0), BuildingBlock: EZIPEK_clean_linker_0, # of connection points: 2
#     Edge 42, Type (0, 0), BuildingBlock: EZIPEK_clean_linker_0, # of connection points: 2
#     Edge 43, Type (0, 0), BuildingBlock: EZIPEK_clean_linker_0, # of connection points: 2
#     Edge 44, Type (0, 0), BuildingBlock: EZIPEK_clean_linker_0, # of connection points: 2
#     Edge 45, Type (0, 0), BuildingBlock: EZIPEK_clean_linker_0, # of connection points: 2
#     Edge 46, Type (0, 0), BuildingBlock: EZIPEK_clean_linker_0, # of connection points: 2
#     Edge 47, Type (0, 0), BuildingBlock: EZIPEK_clean_linker_0, # of connection points: 2
#     Edge 48, Type (0, 0), BuildingBlock: EZIPEK_clean_linker_0, # of connection points: 2
#     Edge 49, Type (0, 0), BuildingBlock: EZIPEK_clean_linker_0, # of connection points: 2
#     Edge 50, Type (0, 0), BuildingBlock: EZIPEK_clean_linker_0, # of connection points: 2
#     Edge 51, Type (0, 0), BuildingBlock: EZIPEK_clean_linker_0, # of connection points: 2
#     Edge 52, Type (0, 0), BuildingBlock: EZIPEK_clean_linker_0, # of connection points: 2
#     Edge 53, Type (0, 0), BuildingBlock: EZIPEK_clean_linker_0, # of connection points: 2
# Relax obj value: 0.397
# Max RMSD: 0.140
# Mean RMSD: 0.140
data_MOF--net-unp--node1-GALJAG_clean_sbu_0--edge1-EZIPEK_clean_linker_0
_symmetry_space_group_name_H-M    P1
_symmetry_Int_Tables_number       1
_symmetry_cell_setting            triclinic
loop_
_symmetry_equiv_pos_as_xyz
'x, y, z'
_cell_length_a     36.46075
_cell_length_b     36.504051
_cell_length_c     31.17522
_cell_angle_alpha  90.025636
_cell_angle_beta   90.011904
_cell_angle_gamma 120.0059
loop_
_atom_site_label
_atom_site_type_symbol
_atom_site_fract_x
_atom_site_fract_y
_atom_site_fract_z
_atom_type_partial_charge
In0 In 0.16391 0.16163 0.17973 0.0
O1 O 0.22473 0.22242 0.19859 0.0
O2 O 0.2295 0.1708 0.17321 0.0
C3 C 0.1093 0.17877 0.22195 0.0
C4 C 0.15754 0.16506 0.09422 0.0
C5 C 0.13351 0.08177 0.20548 0.0
O6 O 0.13248 0.16743 0.24096 0.0
O7 O 0.11587 0.18381 0.18215 0.0
O8 O 0.11833 0.09166 0.17416 0.0
O9 O 0.16453 0.11214 0.22426 0.0
C10 C 0.24839 0.20822 0.18687 0.0
O11 O 0.1478 0.1312 0.11383 0.0
O12 O 0.16984 0.19729 0.11774 0.0
In13 In 0.87139 0.03248 0.1754 0.0
O14 O 0.80695 0.02782 0.18437 0.0
O15 O 0.85858 0.08564 0.16112 0.0
C16 C 0.85854 0.96105 0.21328 0.0
C17 C 0.86912 0.01381 0.09187 0.0
C18 C 0.94176 0.09224 0.21452 0.0
O19 O 0.83921 0.97971 0.22584 0.0
O20 O 0.88375 0.97831 0.18255 0.0
O21 O 0.9399 0.0841 0.17504 0.0
O22 O 0.90761 0.07066 0.23491 0.0
C23 C 0.81985 0.0648 0.17056 0.0
O24 O 0.90339 0.03719 0.11136 0.0
O25 O 0.83617 -0.00076 0.11461 0.0
In26 In 0.96239 0.83402 0.18203 0.0
O27 O 0.94424 0.84286 0.11451 0.0
O28 O 0.99505 0.83029 0.12168 0.0
C29 C 0.89976 0.84141 0.21972 0.0
C30 C 0.94766 0.75543 0.19551 0.0
C31 C 0.02884 0.9075 0.20674 0.0
O32 O 0.89959 0.83258 0.18053 0.0
O33 O 0.9314 0.84535 0.2402 0.0
O34 O 0.00801 0.90342 0.17312 0.0
O35 O 0.01691 0.87415 0.22838 0.0
C36 C 0.97199 0.83709 0.09658 0.0
O37 O 0.98417 0.78714 0.20013 0.0
O38 O 0.91876 0.76354 0.18686 0.0
In39 In 0.14046 0.16546 0.82366 0.0
O40 O 0.2077 0.21555 0.80362 0.0
O41 O 0.16152 0.23415 0.81425 0.0
C42 C 0.13749 0.09324 0.80069 0.0
C43 C 0.14743 0.16647 0.90942 0.0
C44 C 0.06819 0.15319 0.78685 0.0
O45 O 0.12198 0.09752 0.83509 0.0
O46 O 0.15636 0.12607 0.77776 0.0
O47 O 0.07742 0.16343 0.8257 0.0
O48 O 0.09614 0.14972 0.76639 0.0
C49 C 0.19922 0.24508 0.80517 0.0
O50 O 0.1127 0.15525 0.89072 0.0
O51 O 0.17868 0.17688 0.88492 0.0
In52 In 0.84161 0.96233 0.82605 0.0
O53 O 0.85827 0.94995 0.89276 0.0
O54 O 0.84396 -0.00048 0.88536 0.0
C55 C 0.85193 0.9016 0.7886 0.0
C56 C 0.75924 0.93872 0.82593 0.0
C57 C 0.90494 0.03262 0.7909 0.0
O58 O 0.85909 0.91112 0.82772 0.0
O59 O 0.83815 0.9219 0.76784 0.0
O60 O 0.90939 0.01529 0.8238 0.0
O61 O 0.86828 0.01456 0.7748 0.0
C62 C 0.85393 0.97872 0.91031 0.0
O63 O 0.78711 0.97408 0.81153 0.0
O64 O 0.77256 0.91475 0.83875 0.0
In65 In 0.01043 0.84008 0.8291 0.0
O66 O 0.01653 0.87301 0.89263 0.0
O67 O 0.98111 0.80559 0.89161 0.0
C68 C 0.06349 0.91901 0.80272 0.0
C69 C 0.04905 0.79379 0.82842 0.0
C70 C 0.93913 0.82124 0.78452 0.0
O71 O 0.03966 0.91068 0.83489 0.0
O72 O 0.06108 0.88745 0.78334 0.0
O73 O 0.9748 0.83567 0.76691 0.0
O74 O 0.9395 0.81431 0.824 0.0
C75 C 0.99536 0.83913 0.91339 0.0
O76 O 0.01236 0.77972 0.81306 0.0
O77 O 0.06633 0.83116 0.84217 0.0
In78 In 0.83313 0.48968 0.53359 0.0
O79 O 0.89757 0.55071 0.53631 0.0
O80 O 0.89585 0.49229 0.54525 0.0
C81 C 0.78281 0.51318 0.57503 0.0
C82 C 0.82955 0.48979 0.44765 0.0
C83 C 0.79057 0.40798 0.55483 0.0
O84 O 0.80394 0.49974 0.59477 0.0
O85 O 0.78991 0.51747 0.53533 0.0
O86 O 0.78137 0.42271 0.5226 0.0
O87 O 0.82125 0.43457 0.57736 0.0
C88 C 0.91815 0.53167 0.54066 0.0
O89 O 0.8273 0.45917 0.46852 0.0
O90 O 0.83315 0.52026 0.46994 0.0
In91 In 0.54896 0.37619 0.51499 0.0
O92 O 0.4954 0.38827 0.53393 0.0
O93 O 0.53412 0.42173 0.48045 0.0
C94 C 0.52375 0.30014 0.55029 0.0
C95 C 0.55102 0.35151 0.4342 0.0
C96 C 0.61736 0.43448 0.55851 0.0
O97 O 0.49921 0.31503 0.54742 0.0
O98 O 0.56117 0.32462 0.53807 0.0
O99 O 0.61791 0.42699 0.51914 0.0
O100 O 0.58176 0.41313 0.57644 0.0
C101 C 0.5029 0.41417 0.50375 0.0
O102 O 0.58441 0.37562 0.45474 0.0
O103 O 0.51699 0.33958 0.45448 0.0
In104 In 0.61631 0.17304 0.48587 0.0
O105 O 0.63857 0.12474 0.49189 0.0
O106 O 0.57367 0.10246 0.47796 0.0
C107 C 0.67689 0.23887 0.52858 0.0
C108 C 0.6371 0.19306 0.40305 0.0
C109 C 0.55149 0.17533 0.52467 0.0
O110 O 0.65551 0.24252 0.49883 0.0
O111 O 0.66789 0.20146 0.53751 0.0
O112 O 0.55909 0.18165 0.48499 0.0
O113 O 0.57618 0.16645 0.54463 0.0
C114 C 0.60264 0.09367 0.48317 0.0
O115 O 0.59952 0.17772 0.4162 0.0
O116 O 0.664 0.19927 0.43167 0.0
In117 In 0.82356 0.49401 0.1775 0.0
O118 O 0.79615 0.49061 0.24358 0.0
O119 O 0.85305 0.48767 0.23931 0.0
C120 C 0.74585 0.46773 0.14659 0.0
C121 C 0.87505 0.57808 0.17597 0.0
C122 C 0.83759 0.43757 0.13615 0.0
O123 O 0.75262 0.45807 0.18341 0.0
O124 O 0.77853 0.49177 0.125 0.0
O125 O 0.8498 0.47382 0.12064 0.0
O126 O 0.82055 0.43117 0.17253 0.0
C127 C 0.82525 0.48824 0.26297 0.0
O128 O 0.83575 0.56077 0.16969 0.0
O129 O 0.88916 0.55303 0.18015 0.0
In130 In 0.50599 0.28939 0.17294 0.0
O131 O 0.52696 0.27459 0.23676 0.0
O132 O 0.51352 0.325 0.23478 0.0
C133 C 0.50598 0.22861 0.12346 0.0
C134 C 0.42588 0.27344 0.17244 0.0
C135 C 0.57548 0.35696 0.14301 0.0
O136 O 0.50226 0.22587 0.1638 0.0
O137 O 0.50832 0.26169 0.10817 0.0
O138 O 0.53898 0.35037 0.13337 0.0
O139 O 0.57653 0.32954 0.16668 0.0
C140 C 0.52511 0.30367 0.25684 0.0
O141 O 0.43597 0.24699 0.18546 0.0
O142 O 0.45605 0.30787 0.15866 0.0
In143 In 0.69526 0.2032 0.14118 0.0
O144 O 0.70241 0.24134 0.20204 0.0
O145 O 0.6586 0.17493 0.20228 0.0
C146 C 0.76521 0.27338 0.11291 0.0
C147 C 0.72249 0.14706 0.14253 0.0
C148 C 0.62331 0.18868 0.10258 0.0
O149 O 0.76105 0.25943 0.15067 0.0
O150 O 0.73333 0.25193 0.08934 0.0
O151 O 0.64817 0.22268 0.12143 0.0
O152 O 0.6354 0.16176 0.10112 0.0
C153 C 0.67558 0.20935 0.22273 0.0
O154 O 0.70588 0.15438 0.17417 0.0
O155 O 0.7234 0.16622 0.10849 0.0
In156 In 0.49625 0.82745 0.83488 0.0
O157 O 0.55882 0.88944 0.84538 0.0
O158 O 0.56003 0.83191 0.84219 0.0
C159 C 0.44432 0.84476 0.88187 0.0
C160 C 0.49339 0.83304 0.74927 0.0
C161 C 0.45453 0.74467 0.85133 0.0
O162 O 0.45072 0.85229 0.84229 0.0
O163 O 0.46712 0.83158 0.89849 0.0
O164 O 0.44484 0.76086 0.82079 0.0
O165 O 0.48536 0.77019 0.8743 0.0
C166 C 0.58073 0.87152 0.84514 0.0
O167 O 0.49689 0.80421 0.76769 0.0
O168 O 0.4909 0.85913 0.77396 0.0
In169 In 0.20464 0.68511 0.8516 0.0
O170 O 0.14872 0.69002 0.8783 0.0
O171 O 0.17669 0.72151 0.81984 0.0
C172 C 0.18378 0.61378 0.89598 0.0
C173 C 0.20742 0.66136 0.77012 0.0
C174 C 0.27695 0.74766 0.88519 0.0
O175 O 0.15682 0.61997 0.87694 0.0
O176 O 0.22124 0.64452 0.8936 0.0
O177 O 0.27601 0.72636 0.85296 0.0
O178 O 0.24137 0.73729 0.90146 0.0
C179 C 0.14871 0.7128 0.84787 0.0
O180 O 0.22651 0.69955 0.78173 0.0
O181 O 0.18824 0.63518 0.79966 0.0
In182 In 0.27645 0.497 0.8089 0.0
O183 O 0.30187 0.45208 0.82098 0.0
O184 O 0.23849 0.4265 0.79841 0.0
C185 C 0.33988 0.5706 0.83676 0.0
C186 C 0.28535 0.51242 0.72434 0.0
C187 C 0.21736 0.49487 0.86265 0.0
O188 O 0.31046 0.56776 0.8132 0.0
O189 O 0.33761 0.53596 0.84682 0.0
O190 O 0.2143 0.49525 0.82228 0.0
O191 O 0.24953 0.49369 0.87553 0.0
C192 C 0.26795 0.41984 0.80925 0.0
O193 O 0.2519 0.50467 0.74393 0.0
O194 O 0.3139 0.5126 0.74729 0.0
In195 In 0.49258 0.83474 0.47856 0.0
O196 O 0.55473 0.8932 0.45834 0.0
O197 O 0.50227 0.90069 0.47522 0.0
C198 C 0.51192 0.77968 0.44134 0.0
C199 C 0.49291 0.83484 0.5646 0.0
C200 C 0.41177 0.7969 0.45344 0.0
O201 O 0.49999 0.80126 0.42013 0.0
O202 O 0.51641 0.78813 0.48089 0.0
O203 O 0.42463 0.78358 0.48393 0.0
O204 O 0.43977 0.82978 0.43469 0.0
C205 C 0.54061 0.91801 0.46456 0.0
O206 O 0.46094 0.82799 0.54298 0.0
O207 O 0.525 0.84159 0.54308 0.0
In208 In 0.17554 0.61294 0.50548 0.0
O209 O 0.19196 0.59437 0.56966 0.0
O210 O 0.18704 0.65012 0.56707 0.0
C211 C 0.17536 0.55229 0.4558 0.0
C212 C 0.09487 0.59498 0.50981 0.0
C213 C 0.24275 0.67943 0.47036 0.0
O214 O 0.17933 0.55331 0.49612 0.0
O215 O 0.17055 0.58169 0.44071 0.0
O216 O 0.20552 0.6713 0.46192 0.0
O217 O 0.24572 0.65438 0.49603 0.0
C218 C 0.19389 0.62546 0.58945 0.0
O219 O 0.12436 0.63138 0.49978 0.0
O220 O 0.10568 0.56756 0.51564 0.0
In221 In 0.35991 0.53498 0.46757 0.0
O222 O 0.34302 0.56574 0.52216 0.0
O223 O 0.33183 0.50317 0.53114 0.0
C224 C 0.42275 0.60997 0.44058 0.0
C225 C 0.40253 0.49292 0.47197 0.0
C226 C 0.28764 0.50925 0.42217 0.0
O227 O 0.40539 0.60466 0.47682 0.0
O228 O 0.40858 0.57723 0.41743 0.0
O229 O 0.3197 0.54558 0.4188 0.0
O230 O 0.29318 0.48512 0.44683 0.0
C231 C 0.33019 0.53418 0.54667 0.0
O232 O 0.37568 0.48535 0.44264 0.0
O233 O 0.40781 0.52144 0.49811 0.0
C234 C 0.35806 0.25999 0.13862 0.0
C235 C 0.38213 0.26531 0.17619 0.0
C236 C 0.31978 0.24525 0.2214 0.0
C237 C 0.29481 0.2344 0.18374 0.0
N238 N 0.28853 0.23403 0.10679 0.0
N239 N 0.38866 0.26742 0.25325 0.0
C240 C 0.31364 0.24316 0.14238 0.0
C241 C 0.36383 0.25968 0.21766 0.0
N242 N 0.37767 0.27053 0.09949 0.0
N243 N 0.30112 0.2413 0.2605 0.0
H244 H 0.42151 0.28096 0.25166 0.0
H245 H 0.3772 0.25995 0.28443 0.0
H246 H 0.26879 0.2301 0.26404 0.0
H247 H 0.3175 0.25124 0.28935 0.0
H248 H 0.36301 0.2711 0.0711 0.0
H249 H 0.40979 0.28108 0.09534 0.0
H250 H 0.29866 0.23451 0.07552 0.0
H251 H 0.2565 0.2249 0.10854 0.0
C252 C 0.80194 0.1202 0.18849 0.0
C253 C 0.79215 0.08309 0.16532 0.0
C254 C 0.73444 0.08615 0.12812 0.0
C255 C 0.74707 0.12542 0.14835 0.0
N256 N 0.79789 0.18421 0.19125 0.0
N257 N 0.7532 0.03323 0.10891 0.0
C258 C 0.78219 0.14367 0.17681 0.0
C259 C 0.75933 0.0665 0.13409 0.0
N260 N 0.8293 0.13238 0.22248 0.0
N261 N 0.69817 0.0672 0.1042 0.0
H262 H 0.77051 0.01775 0.1125 0.0
H263 H 0.7331 0.02285 0.08242 0.0
H264 H 0.67974 0.08124 0.09861 0.0
H265 H 0.68472 0.03643 0.0925 0.0
H266 H 0.8342 0.15664 0.24345 0.0
H267 H 0.84403 0.11557 0.23234 0.0
H268 H 0.82612 0.20067 0.20832 0.0
H269 H 0.78512 0.20312 0.18263 0.0
C270 C 0.89032 0.64007 0.22193 0.0
C271 C 0.90068 0.62365 0.18541 0.0
C272 C 0.95082 0.69525 0.16099 0.0
C273 C 0.93891 0.71149 0.19642 0.0
N274 N 0.90713 0.70144 0.26598 0.0
N275 N 0.94715 0.63406 0.12595 0.0
C276 C 0.91178 0.68441 0.2287 0.0
C277 C 0.93338 0.65079 0.15703 0.0
N278 N 0.85922 0.6133 0.2495 0.0
N279 N 0.97653 0.7221 0.12976 0.0
H280 H 0.93374 0.60161 0.121 0.0
H281 H 0.97377 0.65207 0.10708 0.0
H282 H 0.99114 0.7549 0.13227 0.0
H283 H 0.98195 0.71206 0.10041 0.0
H284 H 0.84647 0.62339 0.2735 0.0
H285 H 0.84463 0.58047 0.24747 0.0
H286 H 0.89083 0.68366 0.29269 0.0
H287 H 0.92307 0.73401 0.27161 0.0
C288 C 0.2508 0.35666 0.76516 0.0
C289 C 0.26314 0.37743 0.80543 0.0
C290 C 0.25209 0.31219 0.83895 0.0
C291 C 0.23109 0.29007 0.80123 0.0
N292 N 0.21224 0.28976 0.72735 0.0
N293 N 0.27687 0.37613 0.88104 0.0
C294 C 0.2317 0.312 0.76367 0.0
C295 C 0.26533 0.35587 0.84231 0.0
N296 N 0.25758 0.37986 0.72859 0.0
N297 N 0.25814 0.29098 0.87177 0.0
H298 H 0.28691 0.40814 0.88482 0.0
H299 H 0.27418 0.36077 0.90998 0.0
H300 H 0.2484 0.25886 0.86981 0.0
H301 H 0.27616 0.30575 0.89891 0.0
H302 H 0.2522 0.36705 0.69785 0.0
H303 H 0.27243 0.41283 0.7289 0.0
H304 H 0.20692 0.30317 0.70031 0.0
H305 H 0.19998 0.25714 0.72506 0.0
C306 C 0.69752 0.92535 0.87168 0.0
C307 C 0.71449 0.927 0.83022 0.0
C308 C 0.64408 0.89645 0.79826 0.0
C309 C 0.62704 0.89476 0.83969 0.0
N310 N 0.63687 0.91404 0.91431 0.0
N311 N 0.70651 0.9224 0.75335 0.0
C312 C 0.65365 0.91144 0.87598 0.0
C313 C 0.68857 0.9154 0.79322 0.0
N314 N 0.72328 0.93628 0.90692 0.0
N315 N 0.61752 0.87843 0.76401 0.0
H316 H 0.73886 0.93459 0.74846 0.0
H317 H 0.69001 0.91908 0.72502 0.0
H318 H 0.58485 0.86564 0.76596 0.0
H319 H 0.62733 0.87385 0.73413 0.0
H320 H 0.71229 0.93116 0.93837 0.0
H321 H 0.75597 0.94894 0.90483 0.0
H322 H 0.65492 0.92939 0.94124 0.0
H323 H 0.60467 0.9034 0.91835 0.0
C324 C 0.1138 0.75104 0.87946 0.0
C325 C 0.11857 0.72864 0.84476 0.0
C326 C 0.07581 0.74732 0.79881 0.0
C327 C 0.06928 0.76776 0.83419 0.0
N328 N 0.07124 0.77782 0.91093 0.0
N329 N 0.09475 0.69575 0.77536 0.0
C330 C 0.08487 0.76605 0.87543 0.0
C331 C 0.09665 0.72376 0.80559 0.0
N332 N 0.13858 0.76035 0.91526 0.0
N333 N 0.06416 0.75208 0.75844 0.0
H334 H 0.10837 0.67684 0.77993 0.0
H335 H 0.07594 0.688 0.74797 0.0
H336 H 0.04925 0.76949 0.75194 0.0
H337 H 0.07254 0.74176 0.73094 0.0
H338 H 0.13942 0.78063 0.93927 0.0
H339 H 0.16138 0.7514 0.91924 0.0
H340 H 0.07857 0.77341 0.94212 0.0
H341 H 0.0488 0.78756 0.90951 0.0
C342 C 0.97693 0.54006 0.49301 0.0
C343 C 0.96385 0.55196 0.53105 0.0
C344 C 0.03782 0.59654 0.55298 0.0
C345 C 0.05061 0.58463 0.51495 0.0
N346 N 0.03445 0.55352 0.44459 0.0
N347 N 0.98089 0.59679 0.59326 0.0
C348 C 0.02073 0.55891 0.48369 0.0
C349 C 0.99407 0.58216 0.55967 0.0
N350 N 0.94751 0.51022 0.46607 0.0
N351 N 0.06729 0.61987 0.58354 0.0
H352 H 0.949 0.58554 0.60006 0.0
H353 H 0.00137 0.62197 0.61271 0.0
H354 H 0.0997 0.63195 0.57916 0.0
H355 H 0.0597 0.62533 0.61416 0.0
H356 H 0.95506 0.4961 0.44122 0.0
H357 H 0.91501 0.49776 0.46951 0.0
H358 H 0.01454 0.53893 0.41853 0.0
H359 H 0.06649 0.56711 0.43682 0.0
C360 C 0.40718 0.42717 0.48286 0.0
C361 C 0.42749 0.47139 0.47557 0.0
C362 C 0.49635 0.47825 0.49117 0.0
C363 C 0.47659 0.43367 0.49513 0.0
N364 N 0.41452 0.36485 0.48508 0.0
N365 N 0.49174 0.53726 0.46216 0.0
C366 C 0.43233 0.40778 0.48826 0.0
C367 C 0.47224 0.49641 0.47651 0.0
N368 N 0.36408 0.40394 0.48647 0.0
N369 N 0.53765 0.50341 0.50325 0.0
H370 H 0.47497 0.55105 0.44958 0.0
H371 H 0.52442 0.55581 0.45838 0.0
H372 H 0.55599 0.49138 0.51574 0.0
H373 H 0.55232 0.53626 0.50507 0.0
H374 H 0.34806 0.37257 0.49667 0.0
H375 H 0.34447 0.41688 0.48268 0.0
H376 H 0.38325 0.34496 0.47563 0.0
H377 H 0.4319 0.34936 0.4878 0.0
C378 C 0.57678 0.03111 0.43505 0.0
C379 C 0.59536 0.05074 0.47474 0.0
C380 C 0.59301 0.98582 0.49873 0.0
C381 C 0.56696 0.96437 0.46305 0.0
N382 N 0.53414 0.96545 0.39649 0.0
N383 N 0.62009 0.04689 0.54555 0.0
C384 C 0.55927 0.98681 0.43069 0.0
C385 C 0.6041 0.02847 0.50665 0.0
N386 N 0.57678 0.05504 0.40129 0.0
N387 N 0.60644 0.96517 0.52538 0.0
H388 H 0.62822 0.07791 0.55284 0.0
H389 H 0.62236 0.0305 0.57179 0.0
H390 H 0.59833 0.93372 0.5207 0.0
H391 H 0.62858 0.98013 0.54971 0.0
H392 H 0.5673 0.04316 0.37041 0.0
H393 H 0.59015 0.0878 0.40307 0.0
H394 H 0.52279 0.97899 0.37463 0.0
H395 H 0.52304 0.93336 0.3911 0.0
C396 C 0.04739 0.14132 0.2708 0.0
C397 C 0.06961 0.174 0.2407 0.0
C398 C 0.00261 0.16563 0.21496 0.0
C399 C 0.98178 0.12497 0.2341 0.0
N400 N 0.98274 0.0756 0.2851 0.0
N401 N 0.07009 0.22741 0.19583 0.0
C402 C 0.00332 0.11372 0.26465 0.0
C403 C 0.04752 0.19007 0.2173 0.0
N404 N 0.06852 0.13672 0.30455 0.0
N405 N 0.97922 0.1797 0.19378 0.0
H406 H 0.10287 0.24605 0.19963 0.0
H407 H 0.05693 0.23992 0.17496 0.0
H408 H 0.94617 0.16205 0.19281 0.0
H409 H 0.99183 0.20945 0.17982 0.0
H410 H 0.05355 0.11474 0.32899 0.0
H411 H 0.10031 0.15862 0.3105 0.0
H412 H -0.00174 0.06363 0.30345 0.0
H413 H 0.95027 0.05509 0.28228 0.0
C414 C 0.87798 0.92162 0.26481 0.0
C415 C 0.85166 0.92076 0.23099 0.0
C416 C 0.83678 0.85015 0.21036 0.0
C417 C 0.87122 0.85637 0.23628 0.0
N418 N 0.90631 0.88348 0.30375 0.0
N419 N 0.79906 0.88203 0.17721 0.0
C420 C 0.88575 0.88734 0.26902 0.0
C421 C 0.82777 0.88359 0.20637 0.0
N422 N 0.89764 0.95642 0.29061 0.0
N423 N 0.81372 0.81253 0.18945 0.0
H424 H 0.79133 0.90594 0.17511 0.0
H425 H 0.78351 0.85785 0.15493 0.0
H426 H 0.81986 0.78773 0.19388 0.0
H427 H 0.78693 0.80465 0.17111 0.0
H428 H 0.9213 0.96155 0.31252 0.0
H429 H 0.89064 0.98085 0.28899 0.0
H430 H 0.91625 0.90409 0.3298 0.0
H431 H 0.90883 0.85653 0.30851 0.0
C432 C 0.12769 0.01159 0.19442 0.0
C433 C 0.11592 0.03727 0.21802 0.0
C434 C 0.05374 0.97485 0.24671 0.0
C435 C 0.06328 0.94941 0.21981 0.0
N436 N 0.11321 0.94048 0.17746 0.0
N437 N 0.07575 0.04506 0.27478 0.0
C438 C 0.10194 0.96691 0.19704 0.0
C439 C 0.08171 0.01931 0.2473 0.0
N440 N 0.16219 0.03019 0.16798 0.0
N441 N 0.01666 0.95665 0.26932 0.0
H442 H 0.09599 0.07777 0.2754 0.0
H443 H 0.05315 0.03411 0.29904 0.0
H444 H 0.99663 0.92395 0.27079 0.0
H445 H 0.00498 0.9736 0.28552 0.0
H446 H 0.17022 0.01373 0.14624 0.0
H447 H 0.18253 0.06289 0.16707 0.0
H448 H 0.14212 0.95062 0.1623 0.0
H449 H 0.09448 0.9076 0.17938 0.0
C450 C 0.07861 0.98184 0.75886 0.0
C451 C 0.09238 0.96312 0.78995 0.0
C452 C 0.14912 0.03282 0.81239 0.0
C453 C 0.13007 0.05128 0.78769 0.0
N454 N 0.07944 0.04547 0.73456 0.0
N455 N 0.14267 0.96867 0.84315 0.0
C456 C 0.09633 0.0265 0.75906 0.0
C457 C 0.1289 0.98805 0.81517 0.0
N458 N 0.04785 0.95666 0.7302 0.0
N459 N 0.1861 0.05849 0.83359 0.0
H460 H 0.12945 0.93586 0.84414 0.0
H461 H 0.16624 0.9846 0.86595 0.0
H462 H 0.20121 0.09142 0.83141 0.0
H463 H 0.20344 0.04763 0.85038 0.0
H464 H 0.03806 0.96811 0.70473 0.0
H465 H 0.03425 0.92381 0.72999 0.0
H466 H 0.05153 0.02909 0.71705 0.0
H467 H 0.093 0.07823 0.7327 0.0
C468 C 0.99595 0.14312 0.79644 0.0
C469 C 0.02437 0.13713 0.77065 0.0
C470 C 0.96603 0.07206 0.74143 0.0
C471 C 0.94023 0.07274 0.77501 0.0
N472 N 0.92626 0.11096 0.82935 0.0
N473 N 0.03287 0.11045 0.70313 0.0
C474 C 0.9535 0.1096 0.80015 0.0
C475 C 0.00821 0.10631 0.73774 0.0
N476 N 0.01014 0.1808 0.81712 0.0
N477 N 0.95106 0.03753 0.71525 0.0
H478 H 0.06228 0.13753 0.69847 0.0
H479 H 0.02239 0.09001 0.67694 0.0
H480 H 0.91957 0.01319 0.71627 0.0
H481 H 0.96984 0.0325 0.69361 0.0
H482 H 0.99093 0.18854 0.83509 0.0
H483 H 0.04097 0.20587 0.81264 0.0
H484 H 0.93504 0.13476 0.85213 0.0
H485 H 0.89451 0.08725 0.83116 0.0
C486 C 0.86471 0.80654 0.78782 0.0
C487 C 0.9034 0.82424 0.7651 0.0
C488 C 0.89366 0.88172 0.73917 0.0
C489 C 0.86062 0.86955 0.76964 0.0
N490 N 0.80548 0.81461 0.81183 0.0
N491 N 0.93949 0.8619 0.7014 0.0
C492 C 0.84261 0.82943 0.78978 0.0
C493 C 0.91265 0.85618 0.73445 0.0
N494 N 0.85073 0.76895 0.80856 0.0
N495 N 0.90903 0.91899 0.71743 0.0
H496 H 0.95112 0.84128 0.6964 0.0
H497 H 0.94584 0.88328 0.67653 0.0
H498 H 0.89478 0.93755 0.71873 0.0
H499 H 0.93673 0.93214 0.69931 0.0
H500 H 0.82394 0.7545 0.82789 0.0
H501 H 0.86621 0.75155 0.80497 0.0
H502 H 0.79021 0.7858 0.82784 0.0
H503 H 0.78878 0.83098 0.81228 0.0
C504 C 0.71887 0.47873 0.62177 0.0
C505 C 0.74391 0.51127 0.59252 0.0
C506 C 0.68015 0.50677 0.56205 0.0
C507 C 0.65646 0.46606 0.58073 0.0
N508 N 0.6508 0.41601 0.63474 0.0
N509 N 0.75017 0.56751 0.54821 0.0
C510 C 0.67469 0.45338 0.61367 0.0
C511 C 0.72482 0.52961 0.56778 0.0
N512 N 0.7376 0.47208 0.65643 0.0
N513 N 0.65972 0.52224 0.53781 0.0
H514 H 0.78277 0.58441 0.55402 0.0
H515 H 0.73948 0.58246 0.52748 0.0
H516 H 0.62682 0.50584 0.53456 0.0
H517 H 0.67452 0.55163 0.52288 0.0
H518 H 0.72089 0.45016 0.68042 0.0
H519 H 0.76958 0.4923 0.66337 0.0
H520 H 0.66347 0.4029 0.65554 0.0
H521 H 0.61823 0.39726 0.63042 0.0
C522 C 0.48435 0.22443 0.52869 0.0
C523 C 0.50955 0.25536 0.55966 0.0
C524 C 0.53547 0.20944 0.58573 0.0
C525 C 0.52281 0.18756 0.54624 0.0
N526 N 0.47284 0.16218 0.48847 0.0
N527 N 0.55186 0.27408 0.62357 0.0
C528 C 0.49223 0.19057 0.52093 0.0
C529 C 0.53203 0.24623 0.59082 0.0
N530 N 0.45491 0.22882 0.50569 0.0
N531 N 0.55079 0.1952 0.61757 0.0
H532 H 0.54809 0.30035 0.6283 0.0
H533 H 0.57245 0.27171 0.64504 0.0
H534 H 0.55033 0.16649 0.61497 0.0
H535 H 0.55903 0.20895 0.64789 0.0
H536 H 0.43522 0.20744 0.48263 0.0
H537 H 0.44796 0.25271 0.51202 0.0
H538 H 0.4527 0.16386 0.46595 0.0
H539 H 0.47718 0.13615 0.48468 0.0
C540 C 0.72304 0.34554 0.57743 0.0
C541 C 0.76581 0.3626 0.56489 0.0
C542 C 0.75255 0.29266 0.54316 0.0
C543 C 0.70895 0.27663 0.55153 0.0
N544 N 0.65459 0.28263 0.58878 0.0
N545 N 0.8244 0.35232 0.54802 0.0
C546 C 0.69496 0.30147 0.57312 0.0
C547 C 0.78172 0.33588 0.55238 0.0
N548 N 0.70902 0.37196 0.59115 0.0
N549 N 0.76538 0.26746 0.52359 0.0
H550 H 0.8461 0.38408 0.5541 0.0
H551 H 0.83852 0.33415 0.54192 0.0
H552 H 0.74479 0.23541 0.51768 0.0
H553 H 0.79582 0.27835 0.51191 0.0
H554 H 0.67719 0.36252 0.59533 0.0
H555 H 0.72958 0.40408 0.59685 0.0
H556 H 0.64298 0.29816 0.60753 0.0
H557 H 0.63388 0.2501 0.58607 0.0
C558 C 0.83593 0.33583 0.12932 0.0
C559 C 0.80102 0.31586 0.1011 0.0
C560 C 0.81294 0.3844 0.07678 0.0
C561 C 0.83893 0.40274 0.11341 0.0
N562 N 0.885 0.40052 0.16698 0.0
N563 N 0.7744 0.3215 0.03241 0.0
C564 C 0.85457 0.38001 0.13647 0.0
C565 C 0.79547 0.34032 0.06937 0.0
N566 N 0.85037 0.31211 0.14909 0.0
N567 N 0.80259 0.40825 0.05129 0.0
H568 H 0.76505 0.29009 0.02533 0.0
H569 H 0.77087 0.33785 0.0069 0.0
H570 H 0.81705 0.44099 0.05439 0.0
H571 H 0.77945 0.39569 0.02753 0.0
H572 H 0.87649 0.32436 0.16941 0.0
H573 H 0.8377 0.28006 0.14192 0.0
H574 H 0.89553 0.38564 0.18801 0.0
H575 H 0.89968 0.43328 0.17105 0.0
C576 C 0.6748 0.46032 0.15501 0.0
C577 C 0.70215 0.45104 0.13102 0.0
C578 C 0.64177 0.38822 0.10053 0.0
C579 C 0.61509 0.39427 0.1291 0.0
N580 N 0.60239 0.44015 0.17423 0.0
N581 N 0.71256 0.41533 0.07144 0.0
C582 C 0.63037 0.43221 0.15278 0.0
C583 C 0.68579 0.41825 0.10007 0.0
N584 N 0.69189 0.49494 0.18131 0.0
N585 N 0.62504 0.35245 0.07588 0.0
H586 H 0.74483 0.43732 0.07053 0.0
H587 H 0.70266 0.39353 0.04647 0.0
H588 H 0.59249 0.33126 0.07439 0.0
H589 H 0.64295 0.34314 0.05777 0.0
H590 H 0.67465 0.50194 0.20307 0.0
H591 H 0.72428 0.51693 0.18144 0.0
H592 H 0.61081 0.46792 0.19091 0.0
H593 H 0.56974 0.41963 0.17293 0.0
C594 C 0.51278 0.16413 0.11862 0.0
C595 C 0.5178 0.20112 0.09876 0.0
C596 C 0.57982 0.21025 0.06026 0.0
C597 C 0.58127 0.18071 0.08862 0.0
N598 N 0.54486 0.12151 0.13655 0.0
N599 N 0.53943 0.24215 0.03395 0.0
C600 C 0.5455 0.15394 0.11412 0.0
C601 C 0.54573 0.21839 0.06359 0.0
N602 N 0.47715 0.1399 0.14219 0.0
N603 N 0.61263 0.23239 0.03257 0.0
H604 H 0.5125 0.24526 0.03464 0.0
H605 H 0.55776 0.25432 0.00643 0.0
H606 H 0.63692 0.22535 0.02882 0.0
H607 H 0.61632 0.25801 0.01454 0.0
H608 H 0.47008 0.11158 0.15696 0.0
H609 H 0.45291 0.14724 0.14402 0.0
H610 H 0.52189 0.1032 0.15905 0.0
H611 H 0.56769 0.11265 0.13221 0.0
C612 C 0.34113 0.77831 0.93213 0.0
C613 C 0.31705 0.78412 0.89998 0.0
C614 C 0.37921 0.85037 0.87821 0.0
C615 C 0.4044 0.83826 0.90197 0.0
N616 N 0.40959 0.80693 0.96761 0.0
N617 N 0.30959 0.82926 0.84879 0.0
C618 C 0.38531 0.80766 0.93472 0.0
C619 C 0.33483 0.82205 0.8758 0.0
N620 N 0.32228 0.7434 0.95785 0.0
N621 N 0.39843 0.88839 0.85754 0.0
H622 H 0.27677 0.80943 0.84792 0.0
H623 H 0.32085 0.85422 0.82712 0.0
H624 H 0.43096 0.90924 0.86066 0.0
H625 H 0.38235 0.90059 0.84061 0.0
H626 H 0.33887 0.73465 0.97869 0.0
H627 H 0.2897 0.72229 0.9571 0.0
H628 H 0.39751 0.78659 0.99376 0.0
H629 H 0.44137 0.83025 0.97067 0.0
C630 C 0.15439 0.50378 0.87483 0.0
C631 C 0.19196 0.50658 0.89103 0.0
C632 C 0.20562 0.56754 0.93447 0.0
C633 C 0.17504 0.57107 0.90963 0.0
N634 N 0.10576 0.53111 0.87797 0.0
N635 N 0.23593 0.52369 0.95384 0.0
C636 C 0.14413 0.53506 0.88717 0.0
C637 C 0.21173 0.53253 0.9272 0.0
N638 N 0.13 0.47242 0.84655 0.0
N639 N 0.22959 0.59847 0.96334 0.0
H640 H 0.2375 0.49607 0.95045 0.0
H641 H 0.25004 0.54066 0.98171 0.0
H642 H 0.22308 0.62255 0.97078 0.0
H643 H 0.25571 0.60048 0.97911 0.0
H644 H 0.10476 0.47115 0.82965 0.0
H645 H 0.13594 0.4478 0.83993 0.0
H646 H 0.08125 0.50472 0.86295 0.0
H647 H 0.09695 0.55218 0.89025 0.0
C648 C 0.44501 0.67239 0.84594 0.0
C649 C 0.42959 0.69908 0.86001 0.0
C650 C 0.36024 0.63767 0.87442 0.0
C651 C 0.37315 0.6121 0.85238 0.0
N652 N 0.42743 0.60385 0.81696 0.0
N653 N 0.37358 0.70846 0.88893 0.0
C654 C 0.41576 0.62878 0.83903 0.0
C655 C 0.38763 0.68203 0.8753 0.0
N656 N 0.4873 0.68904 0.83823 0.0
N657 N 0.32178 0.61923 0.89455 0.0
H658 H 0.39367 0.74099 0.89235 0.0
H659 H 0.34186 0.69851 0.89482 0.0
H660 H 0.30152 0.58653 0.89496 0.0
H661 H 0.31173 0.63566 0.91408 0.0
H662 H 0.50118 0.67075 0.83154 0.0
H663 H 0.50919 0.72111 0.84219 0.0
H664 H 0.45657 0.6154 0.80176 0.0
H665 H 0.40704 0.57168 0.81169 0.0
C666 C 0.4808 0.71863 0.39029 0.0
C667 C 0.50832 0.73967 0.42498 0.0
C668 C 0.49407 0.67205 0.45479 0.0
C669 C 0.45797 0.65182 0.42769 0.0
N670 N 0.4193 0.65415 0.36575 0.0
N671 N 0.55624 0.73831 0.47641 0.0
C672 C 0.45274 0.67429 0.39328 0.0
C673 C 0.52025 0.71674 0.4525 0.0
N674 N 0.48195 0.74111 0.35489 0.0
N675 N 0.50169 0.64859 0.48381 0.0
H676 H 0.57597 0.77096 0.47297 0.0
H677 H 0.56816 0.72421 0.49677 0.0
H678 H 0.48377 0.61563 0.48462 0.0
H679 H 0.52531 0.66129 0.50703 0.0
H680 H 0.46438 0.72737 0.32724 0.0
H681 H 0.50463 0.77307 0.35162 0.0
H682 H 0.41113 0.6699 0.34323 0.0
H683 H 0.39839 0.62164 0.36661 0.0
C684 C 0.29644 0.75647 0.4666 0.0
C685 C 0.28098 0.71475 0.45116 0.0
C686 C 0.35027 0.73406 0.42147 0.0
C687 C 0.36679 0.77416 0.44122 0.0
N688 N 0.3557 0.82859 0.4708 0.0
N689 N 0.28794 0.66699 0.40332 0.0
C690 C 0.33963 0.78721 0.45937 0.0
C691 C 0.30626 0.70478 0.42465 0.0
N692 N 0.27073 0.7656 0.4907 0.0
N693 N 0.37724 0.72349 0.4019 0.0
H694 H 0.2555 0.64547 0.4052 0.0
H695 H 0.30373 0.65838 0.38129 0.0
H696 H 0.4093 0.74539 0.3974 0.0
H697 H 0.36838 0.69319 0.39117 0.0
H698 H 0.28115 0.79392 0.50714 0.0
H699 H 0.23869 0.74393 0.49543 0.0
H700 H 0.33733 0.84116 0.4817 0.0
H701 H 0.38743 0.85126 0.4659 0.0
C702 C 0.20969 0.47356 0.43493 0.0
C703 C 0.24485 0.50118 0.40943 0.0
C704 C 0.20893 0.54034 0.39102 0.0
C705 C 0.18478 0.52421 0.42902 0.0
N706 N 0.15102 0.46614 0.4784 0.0
N707 N 0.27088 0.55085 0.35124 0.0
C708 C 0.18091 0.48704 0.44761 0.0
C709 C 0.24161 0.53082 0.38277 0.0
N710 N 0.20445 0.43532 0.44688 0.0
N711 N 0.20048 0.56416 0.36343 0.0
H712 H 0.29284 0.54152 0.34321 0.0
H713 H 0.27366 0.57641 0.33381 0.0
H714 H 0.17414 0.56789 0.36734 0.0
H715 H 0.2162 0.57576 0.3344 0.0
H716 H 0.17848 0.41291 0.46425 0.0
H717 H 0.224 0.42441 0.43494 0.0
H718 H 0.1495 0.44169 0.49688 0.0
H719 H 0.12793 0.47421 0.48548 0.0
C720 C 0.1333 0.18426 0.02686 0.0
C721 C 0.15609 0.1669 0.04695 0.0
C722 C 0.17012 0.14607 0.97696 0.0
C723 C 0.15108 0.1672 0.95667 0.0
N724 N 0.12324 0.21478 0.96219 0.0
N725 N 0.20492 0.14058 0.04063 0.0
C726 C 0.13511 0.18872 0.98156 0.0
C727 C 0.17707 0.15047 0.02188 0.0
N728 N 0.10846 0.1948 0.05067 0.0
N729 N 0.1798 0.12019 0.95383 0.0
H730 H 0.21215 0.14474 0.07327 0.0
H731 H 0.2242 0.13256 0.02307 0.0
H732 H 0.17385 0.11473 0.92106 0.0
H733 H 0.18966 0.10071 0.968 0.0
H734 H 0.08773 0.20336 0.03703 0.0
H735 H 0.10533 0.19105 0.08387 0.0
H736 H 0.1154 0.23444 0.97927 0.0
H737 H 0.12548 0.22017 0.9292 0.0
C738 C 0.83662 0.95404 0.98652 0.0
C739 C 0.8596 0.98727 0.95684 0.0
C740 C 0.88693 0.03847 0.01566 0.0
C741 C 0.86735 0.00472 0.04552 0.0
N742 N 0.83179 0.92962 0.05954 0.0
N743 N 0.91423 0.05948 0.94369 0.0
C744 C 0.8446 0.96222 0.03103 0.0
C745 C 0.88706 0.02905 0.97154 0.0
N746 N 0.80563 0.91527 0.97254 0.0
N747 N 0.90346 0.07945 0.02893 0.0
H748 H 0.9162 0.05359 0.91128 0.0
H749 H 0.93784 0.08934 0.95362 0.0
H750 H 0.90272 0.08791 0.06072 0.0
H751 H 0.91404 0.10479 0.00772 0.0
H752 H 0.785 0.89145 0.99326 0.0
H753 H 0.79758 0.90819 0.9403 0.0
H754 H 0.81875 0.89815 0.0501 0.0
H755 H 0.83821 0.93429 0.09232 0.0
C756 C 0.02472 0.8605 0.98749 0.0
C757 C 0.98906 0.83885 0.96016 0.0
C758 C 0.94236 0.81293 0.02268 0.0
C759 C 0.97747 0.83843 0.04958 0.0
N760 N 0.05049 0.89388 0.05646 0.0
N761 N 0.9131 0.80158 0.95103 0.0
C762 C 0.01826 0.86437 0.03169 0.0
C763 C 0.94757 0.81704 0.97751 0.0
N764 N 0.06476 0.87574 0.97172 0.0
N765 N 0.90459 0.78334 0.04006 0.0
H766 H 0.91554 0.80478 0.91775 0.0
H767 H 0.88226 0.78933 0.96231 0.0
H768 H 0.8997 0.77818 0.07298 0.0
H769 H 0.87943 0.76101 0.0217 0.0
H770 H 0.0915 0.88787 0.99126 0.0
H771 H 0.07098 0.8723 0.93978 0.0
H772 H 0.07964 0.9164 0.04388 0.0
H773 H 0.04677 0.89888 0.08871 0.0
C774 C 0.79342 0.45502 0.33335 0.0
C775 C 0.82732 0.48793 0.31016 0.0
C776 C 0.86397 0.52086 0.37728 0.0
C777 C 0.82842 0.48991 0.40041 0.0
N778 N 0.75636 0.43194 0.40115 0.0
N779 N 0.89205 0.55558 0.30925 0.0
C780 C 0.79232 0.4581 0.37866 0.0
C781 C 0.86196 0.52174 0.33185 0.0
N782 N 0.7631 0.42013 0.31218 0.0
N783 N 0.90024 0.54851 0.39856 0.0
H784 H 0.89242 0.55731 0.27589 0.0
H785 H 0.91491 0.58352 0.32361 0.0
H786 H 0.90282 0.5498 0.43189 0.0
H787 H 0.92887 0.56808 0.38321 0.0
H788 H 0.74011 0.39309 0.32771 0.0
H789 H 0.76317 0.41651 0.27898 0.0
H790 H 0.72757 0.41118 0.38665 0.0
H791 H 0.75408 0.43364 0.43437 0.0
C792 C 0.51754 0.28306 0.33486 0.0
C793 C 0.53751 0.31402 0.30233 0.0
C794 C 0.57008 0.36975 0.35659 0.0
C795 C 0.55097 0.33871 0.38919 0.0
N796 N 0.51705 0.26532 0.40988 0.0
N797 N 0.59269 0.38402 0.28248 0.0
C798 C 0.52808 0.29512 0.37845 0.0
C799 C 0.56703 0.35651 0.31332 0.0
N800 N 0.48672 0.24289 0.32455 0.0
N801 N 0.58879 0.41184 0.36635 0.0
H802 H 0.59215 0.37502 0.2506 0.0
H803 H 0.61753 0.41428 0.28936 0.0
H804 H 0.59109 0.42325 0.39745 0.0
H805 H 0.59876 0.4354 0.3431 0.0
H806 H 0.46788 0.22054 0.34741 0.0
H807 H 0.47741 0.23276 0.29313 0.0
H808 H 0.50379 0.23313 0.40356 0.0
H809 H 0.52529 0.27325 0.44201 0.0
C810 C 0.67094 0.18085 0.33917 0.0
C811 C 0.64845 0.19964 0.35709 0.0
C812 C 0.64448 0.22663 0.28618 0.0
C813 C 0.66936 0.21015 0.26931 0.0
N814 N 0.71573 0.18189 0.2815 0.0
N815 N 0.62077 0.24718 0.34978 0.0
C816 C 0.68556 0.1905 0.2964 0.0
C817 C 0.63711 0.2245 0.3312 0.0
N818 N 0.67632 0.15187 0.362 0.0
N819 N 0.62698 0.24314 0.2591 0.0
H820 H 0.61577 0.24707 0.38272 0.0
H821 H 0.61563 0.26896 0.33317 0.0
H822 H 0.63276 0.24612 0.22615 0.0
H823 H 0.60469 0.25133 0.26881 0.0
H824 H 0.68833 0.13389 0.34853 0.0
H825 H 0.66485 0.14233 0.39299 0.0
H826 H 0.73168 0.17133 0.30114 0.0
H827 H 0.72819 0.18975 0.25059 0.0
C828 C 0.51917 0.87294 0.63434 0.0
C829 C 0.49253 0.83499 0.61182 0.0
C830 C 0.46116 0.79886 0.67935 0.0
C831 C 0.49154 0.83511 0.7021 0.0
N832 N 0.55314 0.90526 0.70155 0.0
N833 N 0.44227 0.76008 0.61238 0.0
C834 C 0.52147 0.87193 0.67974 0.0
C835 C 0.46452 0.79744 0.63415 0.0
N836 N 0.54099 0.91025 0.61246 0.0
N837 N 0.4281 0.7665 0.70076 0.0
H838 H 0.4441 0.75764 0.5792 0.0
H839 H 0.42493 0.73089 0.62754 0.0
H840 H 0.4237 0.76704 0.73376 0.0
H841 H 0.40268 0.74122 0.68536 0.0
H842 H 0.55744 0.93963 0.62744 0.0
H843 H 0.53938 0.91228 0.57922 0.0
H844 H 0.57874 0.93056 0.68643 0.0
H845 H 0.55582 0.90633 0.73484 0.0
C846 C 0.16109 0.6124 0.66163 0.0
C847 C 0.19828 0.63004 0.63636 0.0
C848 C 0.24185 0.66152 0.70037 0.0
C849 C 0.20438 0.64856 0.72464 0.0
N850 N 0.12808 0.61683 0.72707 0.0
N851 N 0.27398 0.67348 0.62975 0.0
C852 C 0.16385 0.62495 0.7051 0.0
C853 C 0.23874 0.65508 0.65519 0.0
N854 N 0.12306 0.58353 0.64403 0.0
N855 N 0.28015 0.67869 0.72072 0.0
H856 H 0.27284 0.66801 0.59678 0.0
H857 H 0.30386 0.696 0.64074 0.0
H858 H 0.28341 0.68311 0.75387 0.0
H859 H 0.30813 0.68507 0.70547 0.0
H860 H 0.09557 0.56614 0.66197 0.0
H861 H 0.11969 0.57411 0.61199 0.0
H862 H 0.09842 0.60446 0.71273 0.0
H863 H 0.12825 0.62585 0.75878 0.0
C864 C 0.27508 0.499 0.6032 0.0
C865 C 0.315 0.53323 0.5908 0.0
C866 C 0.32763 0.55985 0.66449 0.0
C867 C 0.29181 0.52162 0.67798 0.0
N868 N 0.23274 0.45267 0.66076 0.0
N869 N 0.38166 0.59466 0.61038 0.0
C870 C 0.26542 0.49078 0.6475 0.0
C871 C 0.34175 0.5637 0.62145 0.0
N872 N 0.24619 0.47483 0.57257 0.0
N873 N 0.34782 0.59264 0.69276 0.0
H874 H 0.39388 0.5984 0.57946 0.0
H875 H 0.40407 0.61455 0.63269 0.0
H876 H 0.33777 0.591 0.72441 0.0
H877 H 0.37159 0.62273 0.68371 0.0
H878 H 0.2151 0.45193 0.57964 0.0
H879 H 0.252 0.48072 0.53978 0.0
H880 H 0.21574 0.42725 0.64008 0.0
H881 H 0.2246 0.44516 0.69291 0.0
loop_
_geom_bond_atom_site_label_1
_geom_bond_atom_site_label_2
_geom_bond_distance
_geom_bond_site_symmetry_2
_ccdc_geom_bond_type
In0 O1 2.294 . S
In0 O2 2.326 . S
In0 O6 2.266 . S
In0 O7 2.326 . S
In0 O8 2.266 . S
In0 O9 2.326 . S
In0 O11 2.294 . S
In0 O12 2.326 . S
O1 In0 2.294 . S
O1 C10 1.240 . S
O2 In0 2.326 . S
O2 C10 1.252 . S
C3 O6 1.252 . S
C3 O7 1.260 . S
C4 O11 1.240 . S
C4 O12 1.252 . S
C5 O8 1.252 . S
C5 O9 1.260 . S
O6 In0 2.266 . S
O6 C3 1.252 . S
O7 In0 2.326 . S
O7 C3 1.260 . S
O8 In0 2.266 . S
O8 C5 1.252 . S
O9 In0 2.326 . S
O9 C5 1.260 . S
C10 O1 1.240 . S
C10 O2 1.252 . S
O11 In0 2.294 . S
O11 C4 1.240 . S
O12 In0 2.326 . S
O12 C4 1.252 . S
In13 O14 2.294 . S
In13 O15 2.326 . S
In13 O19 2.266 1_545 S
In13 O20 2.326 1_545 S
In13 O21 2.266 . S
In13 O22 2.326 . S
In13 O24 2.294 . S
In13 O25 2.326 1_545 S
O14 In13 2.294 . S
O14 C23 1.240 . S
O15 In13 2.326 . S
O15 C23 1.252 . S
C16 O19 1.252 . S
C16 O20 1.260 . S
C17 O24 1.240 1_565 S
C17 O25 1.252 . S
C18 O21 1.252 . S
C18 O22 1.260 . S
O19 In13 2.266 1_565 S
O19 C16 1.252 . S
O20 In13 2.326 1_565 S
O20 C16 1.260 . S
O21 In13 2.266 . S
O21 C18 1.252 . S
O22 In13 2.326 . S
O22 C18 1.260 . S
C23 O14 1.240 . S
C23 O15 1.252 . S
O24 In13 2.294 . S
O24 C17 1.240 1_545 S
O25 In13 2.326 1_565 S
O25 C17 1.252 . S
In26 O27 2.294 . S
In26 O28 2.326 1_655 S
In26 O32 2.266 . S
In26 O33 2.326 . S
In26 O34 2.266 1_655 S
In26 O35 2.326 1_655 S
In26 O37 2.294 . S
In26 O38 2.326 . S
O27 In26 2.294 . S
O27 C36 1.240 1_655 S
O28 In26 2.326 1_455 S
O28 C36 1.252 . S
C29 O32 1.252 . S
C29 O33 1.260 . S
C30 O37 1.240 . S
C30 O38 1.252 . S
C31 O34 1.252 . S
C31 O35 1.260 . S
O32 In26 2.266 . S
O32 C29 1.252 . S
O33 In26 2.326 . S
O33 C29 1.260 . S
O34 In26 2.266 1_455 S
O34 C31 1.252 . S
O35 In26 2.326 1_455 S
O35 C31 1.260 . S
C36 O27 1.240 1_455 S
C36 O28 1.252 . S
O37 In26 2.294 . S
O37 C30 1.240 . S
O38 In26 2.326 . S
O38 C30 1.252 . S
In39 O40 2.294 . S
In39 O41 2.326 . S
In39 O45 2.266 . S
In39 O46 2.326 . S
In39 O47 2.266 . S
In39 O48 2.326 . S
In39 O50 2.294 . S
In39 O51 2.326 . S
O40 In39 2.294 . S
O40 C49 1.240 . S
O41 In39 2.326 . S
O41 C49 1.252 . S
C42 O45 1.252 . S
C42 O46 1.260 . S
C43 O50 1.240 . S
C43 O51 1.252 . S
C44 O47 1.252 . S
C44 O48 1.260 . S
O45 In39 2.266 . S
O45 C42 1.252 . S
O46 In39 2.326 . S
O46 C42 1.260 . S
O47 In39 2.266 . S
O47 C44 1.252 . S
O48 In39 2.326 . S
O48 C44 1.260 . S
C49 O40 1.240 . S
C49 O41 1.252 . S
O50 In39 2.294 . S
O50 C43 1.240 . S
O51 In39 2.326 . S
O51 C43 1.252 . S
In52 O53 2.294 . S
In52 O54 2.326 1_565 S
In52 O58 2.266 . S
In52 O59 2.326 . S
In52 O60 2.266 1_565 S
In52 O61 2.326 1_565 S
In52 O63 2.294 . S
In52 O64 2.326 . S
O53 In52 2.294 . S
O53 C62 1.240 1_565 S
O54 In52 2.326 1_545 S
O54 C62 1.252 . S
C55 O58 1.252 . S
C55 O59 1.260 . S
C56 O63 1.240 . S
C56 O64 1.252 . S
C57 O60 1.252 . S
C57 O61 1.260 . S
O58 In52 2.266 . S
O58 C55 1.252 . S
O59 In52 2.326 . S
O59 C55 1.260 . S
O60 In52 2.266 1_545 S
O60 C57 1.252 . S
O61 In52 2.326 1_545 S
O61 C57 1.260 . S
C62 O53 1.240 1_545 S
C62 O54 1.252 . S
O63 In52 2.294 . S
O63 C56 1.240 . S
O64 In52 2.326 . S
O64 C56 1.252 . S
In65 O66 2.294 . S
In65 O67 2.326 1_455 S
In65 O71 2.266 . S
In65 O72 2.326 . S
In65 O73 2.266 1_455 S
In65 O74 2.326 1_455 S
In65 O76 2.294 . S
In65 O77 2.326 . S
O66 In65 2.294 . S
O66 C75 1.240 1_455 S
O67 In65 2.326 1_655 S
O67 C75 1.252 . S
C68 O71 1.252 . S
C68 O72 1.260 . S
C69 O76 1.240 . S
C69 O77 1.252 . S
C70 O73 1.252 . S
C70 O74 1.260 . S
O71 In65 2.266 . S
O71 C68 1.252 . S
O72 In65 2.326 . S
O72 C68 1.260 . S
O73 In65 2.266 1_655 S
O73 C70 1.252 . S
O74 In65 2.326 1_655 S
O74 C70 1.260 . S
C75 O66 1.240 1_655 S
C75 O67 1.252 . S
O76 In65 2.294 . S
O76 C69 1.240 . S
O77 In65 2.326 . S
O77 C69 1.252 . S
In78 O79 2.294 . S
In78 O80 2.326 . S
In78 O84 2.266 . S
In78 O85 2.326 . S
In78 O86 2.266 . S
In78 O87 2.326 . S
In78 O89 2.294 . S
In78 O90 2.326 . S
O79 In78 2.294 . S
O79 C88 1.240 . S
O80 In78 2.326 . S
O80 C88 1.252 . S
C81 O84 1.252 . S
C81 O85 1.260 . S
C82 O89 1.240 . S
C82 O90 1.252 . S
C83 O86 1.252 . S
C83 O87 1.260 . S
O84 In78 2.266 . S
O84 C81 1.252 . S
O85 In78 2.326 . S
O85 C81 1.260 . S
O86 In78 2.266 . S
O86 C83 1.252 . S
O87 In78 2.326 . S
O87 C83 1.260 . S
C88 O79 1.240 . S
C88 O80 1.252 . S
O89 In78 2.294 . S
O89 C82 1.240 . S
O90 In78 2.326 . S
O90 C82 1.252 . S
In91 O92 2.294 . S
In91 O93 2.326 . S
In91 O97 2.266 . S
In91 O98 2.326 . S
In91 O99 2.266 . S
In91 O100 2.326 . S
In91 O102 2.294 . S
In91 O103 2.326 . S
O92 In91 2.294 . S
O92 C101 1.240 . S
O93 In91 2.326 . S
O93 C101 1.252 . S
C94 O97 1.252 . S
C94 O98 1.260 . S
C95 O102 1.240 . S
C95 O103 1.252 . S
C96 O99 1.252 . S
C96 O100 1.260 . S
O97 In91 2.266 . S
O97 C94 1.252 . S
O98 In91 2.326 . S
O98 C94 1.260 . S
O99 In91 2.266 . S
O99 C96 1.252 . S
O100 In91 2.326 . S
O100 C96 1.260 . S
C101 O92 1.240 . S
C101 O93 1.252 . S
O102 In91 2.294 . S
O102 C95 1.240 . S
O103 In91 2.326 . S
O103 C95 1.252 . S
In104 O105 2.294 . S
In104 O106 2.326 . S
In104 O110 2.266 . S
In104 O111 2.326 . S
In104 O112 2.266 . S
In104 O113 2.326 . S
In104 O115 2.294 . S
In104 O116 2.326 . S
O105 In104 2.294 . S
O105 C114 1.240 . S
O106 In104 2.326 . S
O106 C114 1.252 . S
C107 O110 1.252 . S
C107 O111 1.260 . S
C108 O115 1.240 . S
C108 O116 1.252 . S
C109 O112 1.252 . S
C109 O113 1.260 . S
O110 In104 2.266 . S
O110 C107 1.252 . S
O111 In104 2.326 . S
O111 C107 1.260 . S
O112 In104 2.266 . S
O112 C109 1.252 . S
O113 In104 2.326 . S
O113 C109 1.260 . S
C114 O105 1.240 . S
C114 O106 1.252 . S
O115 In104 2.294 . S
O115 C108 1.240 . S
O116 In104 2.326 . S
O116 C108 1.252 . S
In117 O118 2.294 . S
In117 O119 2.326 . S
In117 O123 2.266 . S
In117 O124 2.326 . S
In117 O125 2.266 . S
In117 O126 2.326 . S
In117 O128 2.294 . S
In117 O129 2.326 . S
O118 In117 2.294 . S
O118 C127 1.240 . S
O119 In117 2.326 . S
O119 C127 1.252 . S
C120 O123 1.252 . S
C120 O124 1.260 . S
C121 O128 1.240 . S
C121 O129 1.252 . S
C122 O125 1.252 . S
C122 O126 1.260 . S
O123 In117 2.266 . S
O123 C120 1.252 . S
O124 In117 2.326 . S
O124 C120 1.260 . S
O125 In117 2.266 . S
O125 C122 1.252 . S
O126 In117 2.326 . S
O126 C122 1.260 . S
C127 O118 1.240 . S
C127 O119 1.252 . S
O128 In117 2.294 . S
O128 C121 1.240 . S
O129 In117 2.326 . S
O129 C121 1.252 . S
In130 O131 2.294 . S
In130 O132 2.326 . S
In130 O136 2.266 . S
In130 O137 2.326 . S
In130 O138 2.266 . S
In130 O139 2.326 . S
In130 O141 2.294 . S
In130 O142 2.326 . S
O131 In130 2.294 . S
O131 C140 1.240 . S
O132 In130 2.326 . S
O132 C140 1.252 . S
C133 O136 1.252 . S
C133 O137 1.260 . S
C134 O141 1.240 . S
C134 O142 1.252 . S
C135 O138 1.252 . S
C135 O139 1.260 . S
O136 In130 2.266 . S
O136 C133 1.252 . S
O137 In130 2.326 . S
O137 C133 1.260 . S
O138 In130 2.266 . S
O138 C135 1.252 . S
O139 In130 2.326 . S
O139 C135 1.260 . S
C140 O131 1.240 . S
C140 O132 1.252 . S
O141 In130 2.294 . S
O141 C134 1.240 . S
O142 In130 2.326 . S
O142 C134 1.252 . S
In143 O144 2.294 . S
In143 O145 2.326 . S
In143 O149 2.266 . S
In143 O150 2.326 . S
In143 O151 2.266 . S
In143 O152 2.326 . S
In143 O154 2.294 . S
In143 O155 2.326 . S
O144 In143 2.294 . S
O144 C153 1.240 . S
O145 In143 2.326 . S
O145 C153 1.252 . S
C146 O149 1.252 . S
C146 O150 1.260 . S
C147 O154 1.240 . S
C147 O155 1.252 . S
C148 O151 1.252 . S
C148 O152 1.260 . S
O149 In143 2.266 . S
O149 C146 1.252 . S
O150 In143 2.326 . S
O150 C146 1.260 . S
O151 In143 2.266 . S
O151 C148 1.252 . S
O152 In143 2.326 . S
O152 C148 1.260 . S
C153 O144 1.240 . S
C153 O145 1.252 . S
O154 In143 2.294 . S
O154 C147 1.240 . S
O155 In143 2.326 . S
O155 C147 1.252 . S
In156 O157 2.294 . S
In156 O158 2.326 . S
In156 O162 2.266 . S
In156 O163 2.326 . S
In156 O164 2.266 . S
In156 O165 2.326 . S
In156 O167 2.294 . S
In156 O168 2.326 . S
O157 In156 2.294 . S
O157 C166 1.240 . S
O158 In156 2.326 . S
O158 C166 1.252 . S
C159 O162 1.252 . S
C159 O163 1.260 . S
C160 O167 1.240 . S
C160 O168 1.252 . S
C161 O164 1.252 . S
C161 O165 1.260 . S
O162 In156 2.266 . S
O162 C159 1.252 . S
O163 In156 2.326 . S
O163 C159 1.260 . S
O164 In156 2.266 . S
O164 C161 1.252 . S
O165 In156 2.326 . S
O165 C161 1.260 . S
C166 O157 1.240 . S
C166 O158 1.252 . S
O167 In156 2.294 . S
O167 C160 1.240 . S
O168 In156 2.326 . S
O168 C160 1.252 . S
In169 O170 2.294 . S
In169 O171 2.326 . S
In169 O175 2.266 . S
In169 O176 2.326 . S
In169 O177 2.266 . S
In169 O178 2.326 . S
In169 O180 2.294 . S
In169 O181 2.326 . S
O170 In169 2.294 . S
O170 C179 1.240 . S
O171 In169 2.326 . S
O171 C179 1.252 . S
C172 O175 1.252 . S
C172 O176 1.260 . S
C173 O180 1.240 . S
C173 O181 1.252 . S
C174 O177 1.252 . S
C174 O178 1.260 . S
O175 In169 2.266 . S
O175 C172 1.252 . S
O176 In169 2.326 . S
O176 C172 1.260 . S
O177 In169 2.266 . S
O177 C174 1.252 . S
O178 In169 2.326 . S
O178 C174 1.260 . S
C179 O170 1.240 . S
C179 O171 1.252 . S
O180 In169 2.294 . S
O180 C173 1.240 . S
O181 In169 2.326 . S
O181 C173 1.252 . S
In182 O183 2.294 . S
In182 O184 2.326 . S
In182 O188 2.266 . S
In182 O189 2.326 . S
In182 O190 2.266 . S
In182 O191 2.326 . S
In182 O193 2.294 . S
In182 O194 2.326 . S
O183 In182 2.294 . S
O183 C192 1.240 . S
O184 In182 2.326 . S
O184 C192 1.252 . S
C185 O188 1.252 . S
C185 O189 1.260 . S
C186 O193 1.240 . S
C186 O194 1.252 . S
C187 O190 1.252 . S
C187 O191 1.260 . S
O188 In182 2.266 . S
O188 C185 1.252 . S
O189 In182 2.326 . S
O189 C185 1.260 . S
O190 In182 2.266 . S
O190 C187 1.252 . S
O191 In182 2.326 . S
O191 C187 1.260 . S
C192 O183 1.240 . S
C192 O184 1.252 . S
O193 In182 2.294 . S
O193 C186 1.240 . S
O194 In182 2.326 . S
O194 C186 1.252 . S
In195 O196 2.294 . S
In195 O197 2.326 . S
In195 O201 2.266 . S
In195 O202 2.326 . S
In195 O203 2.266 . S
In195 O204 2.326 . S
In195 O206 2.294 . S
In195 O207 2.326 . S
O196 In195 2.294 . S
O196 C205 1.240 . S
O197 In195 2.326 . S
O197 C205 1.252 . S
C198 O201 1.252 . S
C198 O202 1.260 . S
C199 O206 1.240 . S
C199 O207 1.252 . S
C200 O203 1.252 . S
C200 O204 1.260 . S
O201 In195 2.266 . S
O201 C198 1.252 . S
O202 In195 2.326 . S
O202 C198 1.260 . S
O203 In195 2.266 . S
O203 C200 1.252 . S
O204 In195 2.326 . S
O204 C200 1.260 . S
C205 O196 1.240 . S
C205 O197 1.252 . S
O206 In195 2.294 . S
O206 C199 1.240 . S
O207 In195 2.326 . S
O207 C199 1.252 . S
In208 O209 2.294 . S
In208 O210 2.326 . S
In208 O214 2.266 . S
In208 O215 2.326 . S
In208 O216 2.266 . S
In208 O217 2.326 . S
In208 O219 2.294 . S
In208 O220 2.326 . S
O209 In208 2.294 . S
O209 C218 1.240 . S
O210 In208 2.326 . S
O210 C218 1.252 . S
C211 O214 1.252 . S
C211 O215 1.260 . S
C212 O219 1.240 . S
C212 O220 1.252 . S
C213 O216 1.252 . S
C213 O217 1.260 . S
O214 In208 2.266 . S
O214 C211 1.252 . S
O215 In208 2.326 . S
O215 C211 1.260 . S
O216 In208 2.266 . S
O216 C213 1.252 . S
O217 In208 2.326 . S
O217 C213 1.260 . S
C218 O209 1.240 . S
C218 O210 1.252 . S
O219 In208 2.294 . S
O219 C212 1.240 . S
O220 In208 2.326 . S
O220 C212 1.252 . S
In221 O222 2.294 . S
In221 O223 2.326 . S
In221 O227 2.266 . S
In221 O228 2.326 . S
In221 O229 2.266 . S
In221 O230 2.326 . S
In221 O232 2.294 . S
In221 O233 2.326 . S
O222 In221 2.294 . S
O222 C231 1.240 . S
O223 In221 2.326 . S
O223 C231 1.252 . S
C224 O227 1.252 . S
C224 O228 1.260 . S
C225 O232 1.240 . S
C225 O233 1.252 . S
C226 O229 1.252 . S
C226 O230 1.260 . S
O227 In221 2.266 . S
O227 C224 1.252 . S
O228 In221 2.326 . S
O228 C224 1.260 . S
O229 In221 2.266 . S
O229 C226 1.252 . S
O230 In221 2.326 . S
O230 C226 1.260 . S
C231 O222 1.240 . S
C231 O223 1.252 . S
O232 In221 2.294 . S
O232 C225 1.240 . S
O233 In221 2.326 . S
O233 C225 1.252 . S
C234 C235 1.363 . S
C234 C240 1.379 . S
C234 N242 1.356 . S
C235 C234 1.363 . S
C235 C241 1.363 . S
C236 C237 1.363 . S
C236 C241 1.379 . S
C236 N243 1.356 . S
C237 C236 1.363 . S
C237 C240 1.363 . S
N238 C240 1.356 . S
N238 H250 0.984 . S
N238 H251 0.985 . S
N239 C241 1.356 . S
N239 H244 0.984 . S
N239 H245 0.985 . S
C240 C234 1.379 . S
C240 C237 1.363 . S
C240 N238 1.356 . S
C241 C235 1.363 . S
C241 C236 1.379 . S
C241 N239 1.356 . S
N242 C234 1.356 . S
N242 H248 0.984 . S
N242 H249 0.984 . S
N243 C236 1.356 . S
N243 H246 0.984 . S
N243 H247 0.985 . S
H244 N239 0.984 . S
H245 N239 0.985 . S
H246 N243 0.984 . S
H247 N243 0.985 . S
H248 N242 0.984 . S
H249 N242 0.984 . S
H250 N238 0.984 . S
H251 N238 0.985 . S
C252 C253 1.363 . S
C252 C258 1.379 . S
C252 N260 1.356 . S
C253 C252 1.363 . S
C253 C259 1.363 . S
C254 C255 1.363 . S
C254 C259 1.379 . S
C254 N261 1.356 . S
C255 C254 1.363 . S
C255 C258 1.363 . S
N256 C258 1.356 . S
N256 H268 0.984 . S
N256 H269 0.985 . S
N257 C259 1.356 . S
N257 H262 0.984 . S
N257 H263 0.985 . S
C258 C252 1.379 . S
C258 C255 1.363 . S
C258 N256 1.356 . S
C259 C253 1.363 . S
C259 C254 1.379 . S
C259 N257 1.356 . S
N260 C252 1.356 . S
N260 H266 0.984 . S
N260 H267 0.984 . S
N261 C254 1.356 . S
N261 H264 0.984 . S
N261 H265 0.985 . S
H262 N257 0.984 . S
H263 N257 0.985 . S
H264 N261 0.984 . S
H265 N261 0.985 . S
H266 N260 0.984 . S
H267 N260 0.984 . S
H268 N256 0.984 . S
H269 N256 0.985 . S
C270 C271 1.363 . S
C270 C276 1.379 . S
C270 N278 1.356 . S
C271 C270 1.363 . S
C271 C277 1.363 . S
C272 C273 1.363 . S
C272 C277 1.379 . S
C272 N279 1.350 1_655 S
C273 C272 1.363 . S
C273 C276 1.363 . S
N274 C276 1.356 . S
N274 H286 0.984 . S
N274 H287 0.985 . S
N275 C277 1.356 . S
N275 H280 0.984 . S
N275 H281 0.985 . S
C276 C270 1.379 . S
C276 C273 1.363 . S
C276 N274 1.356 . S
C277 C271 1.363 . S
C277 C272 1.379 . S
C277 N275 1.356 . S
N278 C270 1.356 . S
N278 H284 0.984 . S
N278 H285 0.984 . S
N279 C272 1.350 1_455 S
N279 H282 0.982 . S
N279 H283 0.994 . S
H280 N275 0.984 . S
H281 N275 0.985 . S
H282 N279 0.982 . S
H283 N279 0.994 . S
H284 N278 0.984 . S
H285 N278 0.984 . S
H286 N274 0.984 . S
H287 N274 0.985 . S
C288 C289 1.363 . S
C288 C294 1.379 . S
C288 N296 1.356 . S
C289 C288 1.363 . S
C289 C295 1.363 . S
C290 C291 1.363 . S
C290 C295 1.379 . S
C290 N297 1.356 . S
C291 C290 1.363 . S
C291 C294 1.363 . S
N292 C294 1.356 . S
N292 H304 0.984 . S
N292 H305 0.985 . S
N293 C295 1.356 . S
N293 H298 0.984 . S
N293 H299 0.985 . S
C294 C288 1.379 . S
C294 C291 1.363 . S
C294 N292 1.356 . S
C295 C289 1.363 . S
C295 C290 1.379 . S
C295 N293 1.356 . S
N296 C288 1.356 . S
N296 H302 0.984 . S
N296 H303 0.984 . S
N297 C290 1.356 . S
N297 H300 0.984 . S
N297 H301 0.985 . S
H298 N293 0.984 . S
H299 N293 0.985 . S
H300 N297 0.984 . S
H301 N297 0.985 . S
H302 N296 0.984 . S
H303 N296 0.984 . S
H304 N292 0.984 . S
H305 N292 0.985 . S
C306 C307 1.363 . S
C306 C312 1.379 . S
C306 N314 1.356 . S
C307 C306 1.363 . S
C307 C313 1.363 . S
C308 C309 1.363 . S
C308 C313 1.379 . S
C308 N315 1.356 . S
C309 C308 1.363 . S
C309 C312 1.363 . S
N310 C312 1.356 . S
N310 H322 0.984 . S
N310 H323 0.985 . S
N311 C313 1.356 . S
N311 H316 0.984 . S
N311 H317 0.985 . S
C312 C306 1.379 . S
C312 C309 1.363 . S
C312 N310 1.356 . S
C313 C307 1.363 . S
C313 C308 1.379 . S
C313 N311 1.356 . S
N314 C306 1.356 . S
N314 H320 0.984 . S
N314 H321 0.984 . S
N315 C308 1.356 . S
N315 H318 0.984 . S
N315 H319 0.985 . S
H316 N311 0.984 . S
H317 N311 0.985 . S
H318 N315 0.984 . S
H319 N315 0.985 . S
H320 N314 0.984 . S
H321 N314 0.984 . S
H322 N310 0.984 . S
H323 N310 0.985 . S
C324 C325 1.363 . S
C324 C330 1.379 . S
C324 N332 1.356 . S
C325 C324 1.363 . S
C325 C331 1.363 . S
C326 C327 1.363 . S
C326 C331 1.379 . S
C326 N333 1.356 . S
C327 C326 1.363 . S
C327 C330 1.363 . S
N328 C330 1.356 . S
N328 H340 0.984 . S
N328 H341 0.985 . S
N329 C331 1.356 . S
N329 H334 0.984 . S
N329 H335 0.985 . S
C330 C324 1.379 . S
C330 C327 1.363 . S
C330 N328 1.356 . S
C331 C325 1.363 . S
C331 C326 1.379 . S
C331 N329 1.356 . S
N332 C324 1.356 . S
N332 H338 0.984 . S
N332 H339 0.984 . S
N333 C326 1.356 . S
N333 H336 0.984 . S
N333 H337 0.985 . S
H334 N329 0.984 . S
H335 N329 0.985 . S
H336 N333 0.984 . S
H337 N333 0.985 . S
H338 N332 0.984 . S
H339 N332 0.984 . S
H340 N328 0.984 . S
H341 N328 0.985 . S
C342 C343 1.363 . S
C342 C348 1.379 1_655 S
C342 N350 1.356 . S
C343 C342 1.363 . S
C343 C349 1.363 . S
C344 C345 1.363 . S
C344 C349 1.379 1_455 S
C344 N351 1.356 . S
C345 C344 1.363 . S
C345 C348 1.363 . S
N346 C348 1.356 . S
N346 H358 0.984 . S
N346 H359 0.985 . S
N347 C349 1.356 . S
N347 H352 0.984 . S
N347 H353 0.985 . S
C348 C342 1.379 1_455 S
C348 C345 1.363 . S
C348 N346 1.356 . S
C349 C343 1.363 . S
C349 C344 1.379 1_655 S
C349 N347 1.356 . S
N350 C342 1.356 . S
N350 H356 0.984 . S
N350 H357 0.984 . S
N351 C344 1.356 . S
N351 H354 0.984 . S
N351 H355 0.985 . S
H352 N347 0.984 . S
H353 N347 0.985 . S
H354 N351 0.984 . S
H355 N351 0.985 . S
H356 N350 0.984 . S
H357 N350 0.984 . S
H358 N346 0.984 . S
H359 N346 0.985 . S
C360 C361 1.363 . S
C360 C366 1.379 . S
C360 N368 1.356 . S
C361 C360 1.363 . S
C361 C367 1.363 . S
C362 C363 1.363 . S
C362 C367 1.379 . S
C362 N369 1.356 . S
C363 C362 1.363 . S
C363 C366 1.363 . S
N364 C366 1.356 . S
N364 H376 0.984 . S
N364 H377 0.985 . S
N365 C367 1.356 . S
N365 H370 0.984 . S
N365 H371 0.985 . S
C366 C360 1.379 . S
C366 C363 1.363 . S
C366 N364 1.356 . S
C367 C361 1.363 . S
C367 C362 1.379 . S
C367 N365 1.356 . S
N368 C360 1.356 . S
N368 H374 0.984 . S
N368 H375 0.984 . S
N369 C362 1.356 . S
N369 H372 0.984 . S
N369 H373 0.985 . S
H370 N365 0.984 . S
H371 N365 0.985 . S
H372 N369 0.984 . S
H373 N369 0.985 . S
H374 N368 0.984 . S
H375 N368 0.984 . S
H376 N364 0.984 . S
H377 N364 0.985 . S
C378 C379 1.363 . S
C378 C384 1.379 . S
C378 N386 1.356 . S
C379 C378 1.363 . S
C379 C385 1.363 . S
C380 C381 1.363 . S
C380 C385 1.379 1_565 S
C380 N387 1.356 . S
C381 C380 1.363 . S
C381 C384 1.363 1_565 S
N382 C384 1.356 1_565 S
N382 H394 0.984 1_565 S
N382 H395 0.985 . S
N383 C385 1.356 . S
N383 H388 0.984 . S
N383 H389 0.985 1_545 S
C384 C378 1.379 . S
C384 C381 1.363 1_545 S
C384 N382 1.356 1_545 S
C385 C379 1.363 . S
C385 C380 1.379 1_545 S
C385 N383 1.356 . S
N386 C378 1.356 . S
N386 H392 0.984 . S
N386 H393 0.984 . S
N387 C380 1.356 . S
N387 H390 0.984 . S
N387 H391 0.985 . S
H388 N383 0.984 . S
H389 N383 0.985 1_565 S
H390 N387 0.984 . S
H391 N387 0.985 . S
H392 N386 0.984 . S
H393 N386 0.984 . S
H394 N382 0.984 1_545 S
H395 N382 0.985 . S
C396 C397 1.363 . S
C396 C402 1.379 1_455 S
C396 N404 1.356 . S
C397 C396 1.363 . S
C397 C403 1.363 . S
C398 C399 1.363 . S
C398 C403 1.379 1_655 S
C398 N405 1.356 . S
C399 C398 1.363 . S
C399 C402 1.363 . S
N400 C402 1.356 . S
N400 H412 0.984 . S
N400 H413 0.985 . S
N401 C403 1.356 . S
N401 H406 0.984 . S
N401 H407 0.985 . S
C402 C396 1.379 1_655 S
C402 C399 1.363 . S
C402 N400 1.356 . S
C403 C397 1.363 . S
C403 C398 1.379 1_455 S
C403 N401 1.356 . S
N404 C396 1.356 . S
N404 H410 0.984 . S
N404 H411 0.984 . S
N405 C398 1.356 . S
N405 H408 0.984 . S
N405 H409 0.985 . S
H406 N401 0.984 . S
H407 N401 0.985 . S
H408 N405 0.984 . S
H409 N405 0.985 . S
H410 N404 0.984 . S
H411 N404 0.984 . S
H412 N400 0.984 . S
H413 N400 0.985 . S
C414 C415 1.363 . S
C414 C420 1.379 . S
C414 N422 1.356 . S
C415 C414 1.363 . S
C415 C421 1.363 . S
C416 C417 1.363 . S
C416 C421 1.379 . S
C416 N423 1.356 . S
C417 C416 1.363 . S
C417 C420 1.363 . S
N418 C420 1.356 . S
N418 H430 0.984 . S
N418 H431 0.985 . S
N419 C421 1.356 . S
N419 H424 0.984 . S
N419 H425 0.985 . S
C420 C414 1.379 . S
C420 C417 1.363 . S
C420 N418 1.356 . S
C421 C415 1.363 . S
C421 C416 1.379 . S
C421 N419 1.356 . S
N422 C414 1.356 . S
N422 H428 0.984 . S
N422 H429 0.984 . S
N423 C416 1.356 . S
N423 H426 0.984 . S
N423 H427 0.985 . S
H424 N419 0.984 . S
H425 N419 0.985 . S
H426 N423 0.984 . S
H427 N423 0.985 . S
H428 N422 0.984 . S
H429 N422 0.984 . S
H430 N418 0.984 . S
H431 N418 0.985 . S
C432 C433 1.363 . S
C432 C438 1.379 1_545 S
C432 N440 1.356 . S
C433 C432 1.363 . S
C433 C439 1.363 . S
C434 C435 1.363 . S
C434 C439 1.379 1_565 S
C434 N441 1.356 . S
C435 C434 1.363 . S
C435 C438 1.363 . S
N436 C438 1.356 . S
N436 H448 0.984 . S
N436 H449 0.985 . S
N437 C439 1.356 . S
N437 H442 0.984 . S
N437 H443 0.985 . S
C438 C432 1.379 1_565 S
C438 C435 1.363 . S
C438 N436 1.356 . S
C439 C433 1.363 . S
C439 C434 1.379 1_545 S
C439 N437 1.356 . S
N440 C432 1.356 . S
N440 H446 0.984 . S
N440 H447 0.984 . S
N441 C434 1.356 . S
N441 H444 0.984 . S
N441 H445 0.985 . S
H442 N437 0.984 . S
H443 N437 0.985 . S
H444 N441 0.984 . S
H445 N441 0.985 . S
H446 N440 0.984 . S
H447 N440 0.984 . S
H448 N436 0.984 . S
H449 N436 0.985 . S
C450 C451 1.363 . S
C450 C456 1.379 1_565 S
C450 N458 1.356 . S
C451 C450 1.363 . S
C451 C457 1.363 . S
C452 C453 1.363 . S
C452 C457 1.379 1_545 S
C452 N459 1.356 . S
C453 C452 1.363 . S
C453 C456 1.363 . S
N454 C456 1.356 . S
N454 H466 0.984 . S
N454 H467 0.985 . S
N455 C457 1.356 . S
N455 H460 0.984 . S
N455 H461 0.985 . S
C456 C450 1.379 1_545 S
C456 C453 1.363 . S
C456 N454 1.356 . S
C457 C451 1.363 . S
C457 C452 1.379 1_565 S
C457 N455 1.356 . S
N458 C450 1.356 . S
N458 H464 0.984 . S
N458 H465 0.984 . S
N459 C452 1.356 . S
N459 H462 0.984 . S
N459 H463 0.985 . S
H460 N455 0.984 . S
H461 N455 0.985 . S
H462 N459 0.984 . S
H463 N459 0.985 . S
H464 N458 0.984 . S
H465 N458 0.984 . S
H466 N454 0.984 . S
H467 N454 0.985 . S
C468 C469 1.363 . S
C468 C474 1.379 1_455 S
C468 N476 1.356 . S
C469 C468 1.363 . S
C469 C475 1.363 . S
C470 C471 1.363 . S
C470 C475 1.379 1_655 S
C470 N477 1.356 . S
C471 C470 1.363 . S
C471 C474 1.363 . S
N472 C474 1.356 . S
N472 H484 0.984 . S
N472 H485 0.985 . S
N473 C475 1.356 . S
N473 H478 0.984 . S
N473 H479 0.985 . S
C474 C468 1.379 1_655 S
C474 C471 1.363 . S
C474 N472 1.356 . S
C475 C469 1.363 . S
C475 C470 1.379 1_455 S
C475 N473 1.356 . S
N476 C468 1.356 . S
N476 H482 0.984 . S
N476 H483 0.984 . S
N477 C470 1.356 . S
N477 H480 0.984 . S
N477 H481 0.985 . S
H478 N473 0.984 . S
H479 N473 0.985 . S
H480 N477 0.984 . S
H481 N477 0.985 . S
H482 N476 0.984 . S
H483 N476 0.984 . S
H484 N472 0.984 . S
H485 N472 0.985 . S
C486 C487 1.363 . S
C486 C492 1.379 . S
C486 N494 1.356 . S
C487 C486 1.363 . S
C487 C493 1.363 . S
C488 C489 1.363 . S
C488 C493 1.379 . S
C488 N495 1.356 . S
C489 C488 1.363 . S
C489 C492 1.363 . S
N490 C492 1.356 . S
N490 H502 0.984 . S
N490 H503 0.985 . S
N491 C493 1.356 . S
N491 H496 0.984 . S
N491 H497 0.985 . S
C492 C486 1.379 . S
C492 C489 1.363 . S
C492 N490 1.356 . S
C493 C487 1.363 . S
C493 C488 1.379 . S
C493 N491 1.356 . S
N494 C486 1.356 . S
N494 H500 0.984 . S
N494 H501 0.984 . S
N495 C488 1.356 . S
N495 H498 0.984 . S
N495 H499 0.985 . S
H496 N491 0.984 . S
H497 N491 0.985 . S
H498 N495 0.984 . S
H499 N495 0.985 . S
H500 N494 0.984 . S
H501 N494 0.984 . S
H502 N490 0.984 . S
H503 N490 0.985 . S
C504 C505 1.363 . S
C504 C510 1.379 . S
C504 N512 1.356 . S
C505 C504 1.363 . S
C505 C511 1.363 . S
C506 C507 1.363 . S
C506 C511 1.379 . S
C506 N513 1.356 . S
C507 C506 1.363 . S
C507 C510 1.363 . S
N508 C510 1.356 . S
N508 H520 0.984 . S
N508 H521 0.985 . S
N509 C511 1.356 . S
N509 H514 0.984 . S
N509 H515 0.985 . S
C510 C504 1.379 . S
C510 C507 1.363 . S
C510 N508 1.356 . S
C511 C505 1.363 . S
C511 C506 1.379 . S
C511 N509 1.356 . S
N512 C504 1.356 . S
N512 H518 0.984 . S
N512 H519 0.984 . S
N513 C506 1.356 . S
N513 H516 0.984 . S
N513 H517 0.985 . S
H514 N509 0.984 . S
H515 N509 0.985 . S
H516 N513 0.984 . S
H517 N513 0.985 . S
H518 N512 0.984 . S
H519 N512 0.984 . S
H520 N508 0.984 . S
H521 N508 0.985 . S
C522 C523 1.363 . S
C522 C528 1.379 . S
C522 N530 1.356 . S
C523 C522 1.363 . S
C523 C529 1.363 . S
C524 C525 1.363 . S
C524 C529 1.379 . S
C524 N531 1.356 . S
C525 C524 1.363 . S
C525 C528 1.363 . S
N526 C528 1.356 . S
N526 H538 0.984 . S
N526 H539 0.985 . S
N527 C529 1.356 . S
N527 H532 0.984 . S
N527 H533 0.985 . S
C528 C522 1.379 . S
C528 C525 1.363 . S
C528 N526 1.356 . S
C529 C523 1.363 . S
C529 C524 1.379 . S
C529 N527 1.356 . S
N530 C522 1.356 . S
N530 H536 0.984 . S
N530 H537 0.984 . S
N531 C524 1.356 . S
N531 H534 0.984 . S
N531 H535 0.985 . S
H532 N527 0.984 . S
H533 N527 0.985 . S
H534 N531 0.984 . S
H535 N531 0.985 . S
H536 N530 0.984 . S
H537 N530 0.984 . S
H538 N526 0.984 . S
H539 N526 0.985 . S
C540 C541 1.363 . S
C540 C546 1.379 . S
C540 N548 1.356 . S
C541 C540 1.363 . S
C541 C547 1.363 . S
C542 C543 1.363 . S
C542 C547 1.379 . S
C542 N549 1.356 . S
C543 C542 1.363 . S
C543 C546 1.363 . S
N544 C546 1.356 . S
N544 H556 0.984 . S
N544 H557 0.985 . S
N545 C547 1.356 . S
N545 H550 0.984 . S
N545 H551 0.985 . S
C546 C540 1.379 . S
C546 C543 1.363 . S
C546 N544 1.356 . S
C547 C541 1.363 . S
C547 C542 1.379 . S
C547 N545 1.356 . S
N548 C540 1.356 . S
N548 H554 0.984 . S
N548 H555 0.984 . S
N549 C542 1.356 . S
N549 H552 0.984 . S
N549 H553 0.985 . S
H550 N545 0.984 . S
H551 N545 0.985 . S
H552 N549 0.984 . S
H553 N549 0.985 . S
H554 N548 0.984 . S
H555 N548 0.984 . S
H556 N544 0.984 . S
H557 N544 0.985 . S
C558 C559 1.363 . S
C558 C564 1.379 . S
C558 N566 1.356 . S
C559 C558 1.363 . S
C559 C565 1.363 . S
C560 C561 1.363 . S
C560 C565 1.379 . S
C560 N567 1.356 . S
C561 C560 1.363 . S
C561 C564 1.363 . S
N562 C564 1.356 . S
N562 H574 0.984 . S
N562 H575 0.985 . S
N563 C565 1.356 . S
N563 H568 0.984 . S
N563 H569 0.985 . S
C564 C558 1.379 . S
C564 C561 1.363 . S
C564 N562 1.356 . S
C565 C559 1.363 . S
C565 C560 1.379 . S
C565 N563 1.356 . S
N566 C558 1.356 . S
N566 H572 0.984 . S
N566 H573 0.984 . S
N567 C560 1.356 . S
N567 H570 0.984 . S
N567 H571 0.985 . S
H568 N563 0.984 . S
H569 N563 0.985 . S
H570 N567 0.984 . S
H571 N567 0.985 . S
H572 N566 0.984 . S
H573 N566 0.984 . S
H574 N562 0.984 . S
H575 N562 0.985 . S
C576 C577 1.363 . S
C576 C582 1.379 . S
C576 N584 1.356 . S
C577 C576 1.363 . S
C577 C583 1.363 . S
C578 C579 1.363 . S
C578 C583 1.379 . S
C578 N585 1.356 . S
C579 C578 1.363 . S
C579 C582 1.363 . S
N580 C582 1.356 . S
N580 H592 0.984 . S
N580 H593 0.985 . S
N581 C583 1.356 . S
N581 H586 0.984 . S
N581 H587 0.985 . S
C582 C576 1.379 . S
C582 C579 1.363 . S
C582 N580 1.356 . S
C583 C577 1.363 . S
C583 C578 1.379 . S
C583 N581 1.356 . S
N584 C576 1.356 . S
N584 H590 0.984 . S
N584 H591 0.984 . S
N585 C578 1.356 . S
N585 H588 0.984 . S
N585 H589 0.985 . S
H586 N581 0.984 . S
H587 N581 0.985 . S
H588 N585 0.984 . S
H589 N585 0.985 . S
H590 N584 0.984 . S
H591 N584 0.984 . S
H592 N580 0.984 . S
H593 N580 0.985 . S
C594 C595 1.363 . S
C594 C600 1.379 . S
C594 N602 1.356 . S
C595 C594 1.363 . S
C595 C601 1.363 . S
C596 C597 1.363 . S
C596 C601 1.379 . S
C596 N603 1.356 . S
C597 C596 1.363 . S
C597 C600 1.363 . S
N598 C600 1.356 . S
N598 H610 0.984 . S
N598 H611 0.985 . S
N599 C601 1.356 . S
N599 H604 0.984 . S
N599 H605 0.985 . S
C600 C594 1.379 . S
C600 C597 1.363 . S
C600 N598 1.356 . S
C601 C595 1.363 . S
C601 C596 1.379 . S
C601 N599 1.356 . S
N602 C594 1.356 . S
N602 H608 0.984 . S
N602 H609 0.984 . S
N603 C596 1.356 . S
N603 H606 0.984 . S
N603 H607 0.985 . S
H604 N599 0.984 . S
H605 N599 0.985 . S
H606 N603 0.984 . S
H607 N603 0.985 . S
H608 N602 0.984 . S
H609 N602 0.984 . S
H610 N598 0.984 . S
H611 N598 0.985 . S
C612 C613 1.363 . S
C612 C618 1.379 . S
C612 N620 1.356 . S
C613 C612 1.363 . S
C613 C619 1.363 . S
C614 C615 1.363 . S
C614 C619 1.379 . S
C614 N621 1.356 . S
C615 C614 1.363 . S
C615 C618 1.363 . S
N616 C618 1.356 . S
N616 H628 0.984 . S
N616 H629 0.985 . S
N617 C619 1.356 . S
N617 H622 0.984 . S
N617 H623 0.985 . S
C618 C612 1.379 . S
C618 C615 1.363 . S
C618 N616 1.356 . S
C619 C613 1.363 . S
C619 C614 1.379 . S
C619 N617 1.356 . S
N620 C612 1.356 . S
N620 H626 0.984 . S
N620 H627 0.984 . S
N621 C614 1.356 . S
N621 H624 0.984 . S
N621 H625 0.985 . S
H622 N617 0.984 . S
H623 N617 0.985 . S
H624 N621 0.984 . S
H625 N621 0.985 . S
H626 N620 0.984 . S
H627 N620 0.984 . S
H628 N616 0.984 . S
H629 N616 0.985 . S
C630 C631 1.363 . S
C630 C636 1.379 . S
C630 N638 1.356 . S
C631 C630 1.363 . S
C631 C637 1.363 . S
C632 C633 1.363 . S
C632 C637 1.379 . S
C632 N639 1.356 . S
C633 C632 1.363 . S
C633 C636 1.363 . S
N634 C636 1.356 . S
N634 H646 0.984 . S
N634 H647 0.985 . S
N635 C637 1.356 . S
N635 H640 0.984 . S
N635 H641 0.985 . S
C636 C630 1.379 . S
C636 C633 1.363 . S
C636 N634 1.356 . S
C637 C631 1.363 . S
C637 C632 1.379 . S
C637 N635 1.356 . S
N638 C630 1.356 . S
N638 H644 0.984 . S
N638 H645 0.984 . S
N639 C632 1.356 . S
N639 H642 0.984 . S
N639 H643 0.985 . S
H640 N635 0.984 . S
H641 N635 0.985 . S
H642 N639 0.984 . S
H643 N639 0.985 . S
H644 N638 0.984 . S
H645 N638 0.984 . S
H646 N634 0.984 . S
H647 N634 0.985 . S
C648 C649 1.363 . S
C648 C654 1.379 . S
C648 N656 1.356 . S
C649 C648 1.363 . S
C649 C655 1.363 . S
C650 C651 1.363 . S
C650 C655 1.379 . S
C650 N657 1.356 . S
C651 C650 1.363 . S
C651 C654 1.363 . S
N652 C654 1.356 . S
N652 H664 0.984 . S
N652 H665 0.985 . S
N653 C655 1.356 . S
N653 H658 0.984 . S
N653 H659 0.985 . S
C654 C648 1.379 . S
C654 C651 1.363 . S
C654 N652 1.356 . S
C655 C649 1.363 . S
C655 C650 1.379 . S
C655 N653 1.356 . S
N656 C648 1.356 . S
N656 H662 0.984 . S
N656 H663 0.984 . S
N657 C650 1.356 . S
N657 H660 0.984 . S
N657 H661 0.985 . S
H658 N653 0.984 . S
H659 N653 0.985 . S
H660 N657 0.984 . S
H661 N657 0.985 . S
H662 N656 0.984 . S
H663 N656 0.984 . S
H664 N652 0.984 . S
H665 N652 0.985 . S
C666 C667 1.363 . S
C666 C672 1.379 . S
C666 N674 1.356 . S
C667 C666 1.363 . S
C667 C673 1.363 . S
C668 C669 1.363 . S
C668 C673 1.379 . S
C668 N675 1.356 . S
C669 C668 1.363 . S
C669 C672 1.363 . S
N670 C672 1.356 . S
N670 H682 0.984 . S
N670 H683 0.985 . S
N671 C673 1.356 . S
N671 H676 0.984 . S
N671 H677 0.985 . S
C672 C666 1.379 . S
C672 C669 1.363 . S
C672 N670 1.356 . S
C673 C667 1.363 . S
C673 C668 1.379 . S
C673 N671 1.356 . S
N674 C666 1.356 . S
N674 H680 0.984 . S
N674 H681 0.984 . S
N675 C668 1.356 . S
N675 H678 0.984 . S
N675 H679 0.985 . S
H676 N671 0.984 . S
H677 N671 0.985 . S
H678 N675 0.984 . S
H679 N675 0.985 . S
H680 N674 0.984 . S
H681 N674 0.984 . S
H682 N670 0.984 . S
H683 N670 0.985 . S
C684 C685 1.363 . S
C684 C690 1.379 . S
C684 N692 1.356 . S
C685 C684 1.363 . S
C685 C691 1.363 . S
C686 C687 1.363 . S
C686 C691 1.379 . S
C686 N693 1.356 . S
C687 C686 1.363 . S
C687 C690 1.363 . S
N688 C690 1.356 . S
N688 H700 0.984 . S
N688 H701 0.985 . S
N689 C691 1.356 . S
N689 H694 0.984 . S
N689 H695 0.985 . S
C690 C684 1.379 . S
C690 C687 1.363 . S
C690 N688 1.356 . S
C691 C685 1.363 . S
C691 C686 1.379 . S
C691 N689 1.356 . S
N692 C684 1.356 . S
N692 H698 0.984 . S
N692 H699 0.984 . S
N693 C686 1.356 . S
N693 H696 0.984 . S
N693 H697 0.985 . S
H694 N689 0.984 . S
H695 N689 0.985 . S
H696 N693 0.984 . S
H697 N693 0.985 . S
H698 N692 0.984 . S
H699 N692 0.984 . S
H700 N688 0.984 . S
H701 N688 0.985 . S
C702 C703 1.363 . S
C702 C708 1.379 . S
C702 N710 1.356 . S
C703 C702 1.363 . S
C703 C709 1.363 . S
C704 C705 1.363 . S
C704 C709 1.379 . S
C704 N711 1.356 . S
C705 C704 1.363 . S
C705 C708 1.363 . S
N706 C708 1.356 . S
N706 H718 0.984 . S
N706 H719 0.985 . S
N707 C709 1.356 . S
N707 H712 0.984 . S
N707 H713 0.985 . S
C708 C702 1.379 . S
C708 C705 1.363 . S
C708 N706 1.356 . S
C709 C703 1.363 . S
C709 C704 1.379 . S
C709 N707 1.356 . S
N710 C702 1.356 . S
N710 H716 0.984 . S
N710 H717 0.984 . S
N711 C704 1.356 . S
N711 H714 0.984 . S
N711 H715 0.985 . S
H712 N707 0.984 . S
H713 N707 0.985 . S
H714 N711 0.984 . S
H715 N711 0.985 . S
H716 N710 0.984 . S
H717 N710 0.984 . S
H718 N706 0.984 . S
H719 N706 0.985 . S
C720 C721 1.363 . S
C720 C726 1.379 1_554 S
C720 N728 1.356 . S
C721 C720 1.363 . S
C721 C727 1.363 . S
C722 C723 1.363 . S
C722 C727 1.379 1_556 S
C722 N729 1.356 . S
C723 C722 1.363 . S
C723 C726 1.363 . S
N724 C726 1.356 . S
N724 H736 0.984 . S
N724 H737 0.985 . S
N725 C727 1.356 . S
N725 H730 0.984 . S
N725 H731 0.985 . S
C726 C720 1.379 1_556 S
C726 C723 1.363 . S
C726 N724 1.356 . S
C727 C721 1.363 . S
C727 C722 1.379 1_554 S
C727 N725 1.356 . S
N728 C720 1.356 . S
N728 H734 0.984 . S
N728 H735 0.984 . S
N729 C722 1.356 . S
N729 H732 0.984 . S
N729 H733 0.985 . S
H730 N725 0.984 . S
H731 N725 0.985 . S
H732 N729 0.984 . S
H733 N729 0.985 . S
H734 N728 0.984 . S
H735 N728 0.984 . S
H736 N724 0.984 . S
H737 N724 0.985 . S
C738 C739 1.363 1_565 S
C738 C744 1.379 1_556 S
C738 N746 1.356 . S
C739 C738 1.363 1_545 S
C739 C745 1.363 . S
C740 C741 1.363 1_545 S
C740 C745 1.379 1_554 S
C740 N747 1.356 . S
C741 C740 1.363 1_565 S
C741 C744 1.363 . S
N742 C744 1.356 . S
N742 H754 0.984 . S
N742 H755 0.985 . S
N743 C745 1.356 . S
N743 H748 0.984 . S
N743 H749 0.985 . S
C744 C738 1.379 1_554 S
C744 C741 1.363 . S
C744 N742 1.356 . S
C745 C739 1.363 . S
C745 C740 1.379 1_556 S
C745 N743 1.356 . S
N746 C738 1.356 . S
N746 H752 0.984 . S
N746 H753 0.984 . S
N747 C740 1.356 . S
N747 H750 0.984 . S
N747 H751 0.985 . S
H748 N743 0.984 . S
H749 N743 0.985 . S
H750 N747 0.984 . S
H751 N747 0.985 . S
H752 N746 0.984 . S
H753 N746 0.984 . S
H754 N742 0.984 . S
H755 N742 0.985 . S
C756 C757 1.363 1_455 S
C756 C762 1.379 1_556 S
C756 N764 1.356 . S
C757 C756 1.363 1_655 S
C757 C763 1.363 . S
C758 C759 1.363 1_655 S
C758 C763 1.379 1_554 S
C758 N765 1.356 . S
C759 C758 1.363 1_455 S
C759 C762 1.363 . S
N760 C762 1.356 . S
N760 H772 0.984 . S
N760 H773 0.985 . S
N761 C763 1.356 . S
N761 H766 0.984 . S
N761 H767 0.985 . S
C762 C756 1.379 1_554 S
C762 C759 1.363 . S
C762 N760 1.356 . S
C763 C757 1.363 . S
C763 C758 1.379 1_556 S
C763 N761 1.356 . S
N764 C756 1.356 . S
N764 H770 0.984 . S
N764 H771 0.984 . S
N765 C758 1.356 . S
N765 H768 0.984 . S
N765 H769 0.985 . S
H766 N761 0.984 . S
H767 N761 0.985 . S
H768 N765 0.984 . S
H769 N765 0.985 . S
H770 N764 0.984 . S
H771 N764 0.984 . S
H772 N760 0.984 . S
H773 N760 0.985 . S
C774 C775 1.363 . S
C774 C780 1.379 . S
C774 N782 1.356 . S
C775 C774 1.363 . S
C775 C781 1.363 . S
C776 C777 1.363 . S
C776 C781 1.379 . S
C776 N783 1.356 . S
C777 C776 1.363 . S
C777 C780 1.363 . S
N778 C780 1.356 . S
N778 H790 0.984 . S
N778 H791 0.985 . S
N779 C781 1.356 . S
N779 H784 0.984 . S
N779 H785 0.985 . S
C780 C774 1.379 . S
C780 C777 1.363 . S
C780 N778 1.356 . S
C781 C775 1.363 . S
C781 C776 1.379 . S
C781 N779 1.356 . S
N782 C774 1.356 . S
N782 H788 0.984 . S
N782 H789 0.984 . S
N783 C776 1.356 . S
N783 H786 0.984 . S
N783 H787 0.985 . S
H784 N779 0.984 . S
H785 N779 0.985 . S
H786 N783 0.984 . S
H787 N783 0.985 . S
H788 N782 0.984 . S
H789 N782 0.984 . S
H790 N778 0.984 . S
H791 N778 0.985 . S
C792 C793 1.363 . S
C792 C798 1.379 . S
C792 N800 1.356 . S
C793 C792 1.363 . S
C793 C799 1.363 . S
C794 C795 1.363 . S
C794 C799 1.379 . S
C794 N801 1.356 . S
C795 C794 1.363 . S
C795 C798 1.363 . S
N796 C798 1.356 . S
N796 H808 0.984 . S
N796 H809 0.985 . S
N797 C799 1.356 . S
N797 H802 0.984 . S
N797 H803 0.985 . S
C798 C792 1.379 . S
C798 C795 1.363 . S
C798 N796 1.356 . S
C799 C793 1.363 . S
C799 C794 1.379 . S
C799 N797 1.356 . S
N800 C792 1.356 . S
N800 H806 0.984 . S
N800 H807 0.984 . S
N801 C794 1.356 . S
N801 H804 0.984 . S
N801 H805 0.985 . S
H802 N797 0.984 . S
H803 N797 0.985 . S
H804 N801 0.984 . S
H805 N801 0.985 . S
H806 N800 0.984 . S
H807 N800 0.984 . S
H808 N796 0.984 . S
H809 N796 0.985 . S
C810 C811 1.363 . S
C810 C816 1.379 . S
C810 N818 1.356 . S
C811 C810 1.363 . S
C811 C817 1.363 . S
C812 C813 1.363 . S
C812 C817 1.379 . S
C812 N819 1.356 . S
C813 C812 1.363 . S
C813 C816 1.363 . S
N814 C816 1.356 . S
N814 H826 0.984 . S
N814 H827 0.985 . S
N815 C817 1.356 . S
N815 H820 0.984 . S
N815 H821 0.985 . S
C816 C810 1.379 . S
C816 C813 1.363 . S
C816 N814 1.356 . S
C817 C811 1.363 . S
C817 C812 1.379 . S
C817 N815 1.356 . S
N818 C810 1.356 . S
N818 H824 0.984 . S
N818 H825 0.984 . S
N819 C812 1.356 . S
N819 H822 0.984 . S
N819 H823 0.985 . S
H820 N815 0.984 . S
H821 N815 0.985 . S
H822 N819 0.984 . S
H823 N819 0.985 . S
H824 N818 0.984 . S
H825 N818 0.984 . S
H826 N814 0.984 . S
H827 N814 0.985 . S
C828 C829 1.363 . S
C828 C834 1.379 . S
C828 N836 1.356 . S
C829 C828 1.363 . S
C829 C835 1.363 . S
C830 C831 1.363 . S
C830 C835 1.379 . S
C830 N837 1.356 . S
C831 C830 1.363 . S
C831 C834 1.363 . S
N832 C834 1.356 . S
N832 H844 0.984 . S
N832 H845 0.985 . S
N833 C835 1.356 . S
N833 H838 0.984 . S
N833 H839 0.985 . S
C834 C828 1.379 . S
C834 C831 1.363 . S
C834 N832 1.356 . S
C835 C829 1.363 . S
C835 C830 1.379 . S
C835 N833 1.356 . S
N836 C828 1.356 . S
N836 H842 0.984 . S
N836 H843 0.984 . S
N837 C830 1.356 . S
N837 H840 0.984 . S
N837 H841 0.985 . S
H838 N833 0.984 . S
H839 N833 0.985 . S
H840 N837 0.984 . S
H841 N837 0.985 . S
H842 N836 0.984 . S
H843 N836 0.984 . S
H844 N832 0.984 . S
H845 N832 0.985 . S
C846 C847 1.363 . S
C846 C852 1.379 . S
C846 N854 1.356 . S
C847 C846 1.363 . S
C847 C853 1.363 . S
C848 C849 1.363 . S
C848 C853 1.379 . S
C848 N855 1.356 . S
C849 C848 1.363 . S
C849 C852 1.363 . S
N850 C852 1.356 . S
N850 H862 0.984 . S
N850 H863 0.985 . S
N851 C853 1.356 . S
N851 H856 0.984 . S
N851 H857 0.985 . S
C852 C846 1.379 . S
C852 C849 1.363 . S
C852 N850 1.356 . S
C853 C847 1.363 . S
C853 C848 1.379 . S
C853 N851 1.356 . S
N854 C846 1.356 . S
N854 H860 0.984 . S
N854 H861 0.984 . S
N855 C848 1.356 . S
N855 H858 0.984 . S
N855 H859 0.985 . S
H856 N851 0.984 . S
H857 N851 0.985 . S
H858 N855 0.984 . S
H859 N855 0.985 . S
H860 N854 0.984 . S
H861 N854 0.984 . S
H862 N850 0.984 . S
H863 N850 0.985 . S
C864 C865 1.363 . S
C864 C870 1.379 . S
C864 N872 1.356 . S
C865 C864 1.363 . S
C865 C871 1.363 . S
C866 C867 1.363 . S
C866 C871 1.379 . S
C866 N873 1.356 . S
C867 C866 1.363 . S
C867 C870 1.363 . S
N868 C870 1.356 . S
N868 H880 0.984 . S
N868 H881 0.985 . S
N869 C871 1.356 . S
N869 H874 0.984 . S
N869 H875 0.985 . S
C870 C864 1.379 . S
C870 C867 1.363 . S
C870 N868 1.356 . S
C871 C865 1.363 . S
C871 C866 1.379 . S
C871 N869 1.356 . S
N872 C864 1.356 . S
N872 H878 0.984 . S
N872 H879 0.984 . S
N873 C866 1.356 . S
N873 H876 0.984 . S
N873 H877 0.985 . S
H874 N869 0.984 . S
H875 N869 0.985 . S
H876 N873 0.984 . S
H877 N873 0.985 . S
H878 N872 0.984 . S
H879 N872 0.984 . S
H880 N868 0.984 . S
H881 N868 0.985 . S
C235 C134 1.460 . S
C237 C10 1.460 . S
C253 C23 1.460 . S
C255 C147 1.460 . S
C271 C121 1.460 . S
C273 C30 1.460 . S
C289 C192 1.460 . S
C291 C49 1.460 . S
C307 C56 1.460 . S
C309 C166 1.460 . S
C325 C179 1.460 . S
C327 C69 1.460 . S
C343 C88 1.460 . S
C345 C212 1.460 . S
C361 C225 1.460 . S
C363 C101 1.460 . S
C379 C114 1.460 . S
C381 C205 1.460 . S
C397 C3 1.413 . S
C399 C18 1.431 . S
C415 C16 1.413 . S
C417 C29 1.431 . S
C433 C5 1.430 . S
C435 C31 1.412 . S
C451 C68 1.431 . S
C453 C42 1.413 . S
C469 C44 1.430 . S
C471 C57 1.412 . S
C487 C70 1.413 . S
C489 C55 1.431 . S
C505 C81 1.413 . S
C507 C96 1.431 . S
C523 C94 1.413 . S
C525 C109 1.431 . S
C541 C83 1.431 . S
C543 C107 1.413 . S
C559 C146 1.431 . S
C561 C122 1.413 . S
C577 C120 1.430 . S
C579 C135 1.412 . S
C595 C133 1.431 . S
C597 C148 1.413 . S
C613 C174 1.431 . S
C615 C159 1.413 . S
C631 C187 1.431 . S
C633 C172 1.413 . S
C649 C161 1.431 . S
C651 C185 1.413 . S
C667 C198 1.413 . S
C669 C224 1.431 . S
C685 C213 1.413 . S
C687 C200 1.431 . S
C703 C226 1.413 . S
C705 C211 1.431 . S
C721 C4 1.736 . S
C723 C43 1.736 . S
C739 C62 1.735 . S
C741 C17 1.735 . S
C757 C75 1.735 . S
C759 C36 1.735 . S
C775 C127 1.736 . S
C777 C82 1.736 . S
C793 C140 1.735 . S
C795 C95 1.735 . S
C811 C108 1.735 . S
C813 C153 1.735 . S
C829 C199 1.736 . S
C831 C160 1.736 . S
C847 C218 1.735 . S
C849 C173 1.735 . S
C865 C231 1.735 . S
C867 C186 1.735 . S
