# Generated by pormake.
# Topology wlk, (5)-cn, num edge types: 1
# Building blocks:
#     Node 0, Type 0, BuildingBlock: XOMCOT_clean_sbu_0, # of connection points: 5
#     Node 1, Type 0, BuildingBlock: XOMCOT_clean_sbu_0, # of connection points: 5
#     Node 2, Type 0, BuildingBlock: XOMCOT_clean_sbu_0, # of connection points: 5
#     Node 3, Type 0, BuildingBlock: XOMCOT_clean_sbu_0, # of connection points: 5
#     Node 4, Type 0, BuildingBlock: XOMCOT_clean_sbu_0, # of connection points: 5
#     Node 5, Type 0, BuildingBlock: XOMCOT_clean_sbu_0, # of connection points: 5
#     Node 6, Type 0, BuildingBlock: XOMCOT_clean_sbu_0, # of connection points: 5
#     Node 7, Type 0, BuildingBlock: XOMCOT_clean_sbu_0, # of connection points: 5
#     Node 8, Type 0, BuildingBlock: XOMCOT_clean_sbu_0, # of connection points: 5
#     Node 9, Type 0, BuildingBlock: XOMCOT_clean_sbu_0, # of connection points: 5
#     Node 10, Type 0, BuildingBlock: XOMCOT_clean_sbu_0, # of connection points: 5
#     Node 11, Type 0, BuildingBlock: XOMCOT_clean_sbu_0, # of connection points: 5
#     Node 12, Type 0, BuildingBlock: XOMCOT_clean_sbu_0, # of connection points: 5
#     Node 13, Type 0, BuildingBlock: XOMCOT_clean_sbu_0, # of connection points: 5
#     Node 14, Type 0, BuildingBlock: XOMCOT_clean_sbu_0, # of connection points: 5
#     Node 15, Type 0, BuildingBlock: XOMCOT_clean_sbu_0, # of connection points: 5
#     Node 16, Type 0, BuildingBlock: XOMCOT_clean_sbu_0, # of connection points: 5
#     Node 17, Type 0, BuildingBlock: XOMCOT_clean_sbu_0, # of connection points: 5
#     Edge 18, Type (0, 0), None
#     Edge 19, Type (0, 0), None
#     Edge 20, Type (0, 0), None
#     Edge 21, Type (0, 0), None
#     Edge 22, Type (0, 0), None
#     Edge 23, Type (0, 0), None
#     Edge 24, Type (0, 0), None
#     Edge 25, Type (0, 0), None
#     Edge 26, Type (0, 0), None
#     Edge 27, Type (0, 0), None
#     Edge 28, Type (0, 0), None
#     Edge 29, Type (0, 0), None
#     Edge 30, Type (0, 0), None
#     Edge 31, Type (0, 0), None
#     Edge 32, Type (0, 0), None
#     Edge 33, Type (0, 0), None
#     Edge 34, Type (0, 0), None
#     Edge 35, Type (0, 0), None
#     Edge 36, Type (0, 0), None
#     Edge 37, Type (0, 0), None
#     Edge 38, Type (0, 0), None
#     Edge 39, Type (0, 0), None
#     Edge 40, Type (0, 0), None
#     Edge 41, Type (0, 0), None
#     Edge 42, Type (0, 0), None
#     Edge 43, Type (0, 0), None
#     Edge 44, Type (0, 0), None
#     Edge 45, Type (0, 0), None
#     Edge 46, Type (0, 0), None
#     Edge 47, Type (0, 0), None
#     Edge 48, Type (0, 0), None
#     Edge 49, Type (0, 0), None
#     Edge 50, Type (0, 0), None
#     Edge 51, Type (0, 0), None
#     Edge 52, Type (0, 0), None
#     Edge 53, Type (0, 0), None
#     Edge 54, Type (0, 0), None
#     Edge 55, Type (0, 0), None
#     Edge 56, Type (0, 0), None
#     Edge 57, Type (0, 0), None
#     Edge 58, Type (0, 0), None
#     Edge 59, Type (0, 0), None
#     Edge 60, Type (0, 0), None
#     Edge 61, Type (0, 0), None
#     Edge 62, Type (0, 0), None
# Relax obj value: 0.208
# Max RMSD: 0.260
# Mean RMSD: 0.260
data_MOF--net-wlk--node1-XOMCOT_clean_sbu_0--edge1-none
_symmetry_space_group_name_H-M    P1
_symmetry_Int_Tables_number       1
_symmetry_cell_setting            triclinic
loop_
_symmetry_equiv_pos_as_xyz
'x, y, z'
_cell_length_a     32.058647
_cell_length_b     32.103522
_cell_length_c     15.561489
_cell_angle_alpha  90.098798
_cell_angle_beta   89.96043
_cell_angle_gamma 120.15825
loop_
_atom_site_label
_atom_site_type_symbol
_atom_site_fract_x
_atom_site_fract_y
_atom_site_fract_z
_atom_type_partial_charge
Co0 Co 0.26089 0.29236 0.08626 0.0
C1 C 0.29643 0.24142 0.97326 0.0
C2 C 0.21987 0.21032 0.96437 0.0
C3 C 0.23231 0.17913 0.92674 0.0
N4 N 0.25998 0.24948 -0.00526 0.0
N5 N 0.28032 0.19826 0.93419 0.0
H6 H 0.33356 0.26445 -0.00737 0.0
H7 H 0.18331 0.20234 0.97501 0.0
C8 C 0.16703 0.28767 0.03699 0.0
O9 O 0.19105 0.33425 0.02217 0.0
N10 N 0.26069 0.33178 0.18339 0.0
C11 C 0.29707 0.35639 0.24043 0.0
C12 C 0.28248 0.37672 0.30277 0.0
C13 C 0.22369 0.33614 0.2151 0.0
N14 N 0.23649 0.36399 0.2862 0.0
C15 C 0.27008 0.338 0.92011 0.0
C16 C 0.338 0.42931 0.97662 0.0
C17 C 0.33204 0.42026 0.88891 0.0
C18 C 0.29617 0.37463 0.86032 0.0
C19 C 0.31284 0.39147 0.03372 0.0
N20 N 0.28042 0.3459 0.00582 0.0
H21 H 0.244 0.30261 0.89683 0.0
H22 H 0.32363 0.39888 0.09954 0.0
H23 H 0.33247 0.36018 0.23714 0.0
H24 H 0.18763 0.31814 0.18993 0.0
O25 O 0.32505 0.30775 0.11482 0.0
O26 O 0.25869 0.24619 0.16973 0.0
O27 O 0.18904 0.2665 0.06643 0.0
C28 C 0.30584 0.27058 0.16501 0.0
H29 H 0.20749 0.14358 0.90177 0.0
H30 H 0.30386 0.39854 0.35628 0.0
H31 H 0.36625 0.46367 0.00092 0.0
H32 H 0.29082 0.36637 0.79229 0.0
Co33 Co 0.79917 0.98666 0.086 0.0
C34 C 0.85005 0.07312 0.97296 0.0
C35 C 0.88096 1.02772 0.96353 0.0
C36 C 0.91217 0.07138 0.92584 0.0
N37 N 0.84191 1.0286 -0.0057 0.0
N38 N 0.89317 0.10023 0.93364 0.0
H39 H 0.82714 0.08719 -0.0074 0.0
H40 H 0.88887 0.99916 0.9739 0.0
C41 C 0.80402 0.89762 0.03677 0.0
O42 O 0.75738 0.87473 0.02178 0.0
N43 N 0.75991 0.94712 0.18329 0.0
C44 C 0.73543 0.9589 0.24042 0.0
C45 C 0.71517 0.92407 0.30284 0.0
C46 C 0.75551 0.90581 0.21496 0.0
N47 N 0.7278 0.89083 0.28619 0.0
C48 C 0.7532 0.94977 0.91995 0.0
C49 C 0.66191 0.92611 0.97675 0.0
C50 C 0.67095 0.92957 0.88905 0.0
C51 C 0.71652 0.93935 0.86027 0.0
C52 C 0.69979 0.93864 0.03378 0.0
N53 N 0.7454 0.95208 0.00574 0.0
H54 H 0.78857 0.95919 0.89654 0.0
H55 H 0.69241 0.94176 0.09973 0.0
H56 H 0.73166 0.99046 0.23713 0.0
H57 H 0.77338 0.88775 0.18962 0.0
O58 O 0.78369 1.03527 0.11438 0.0
O59 O 0.84549 1.03116 0.1693 0.0
O60 O 0.82515 0.9409 0.06632 0.0
C61 C 0.82098 0.05364 0.16452 0.0
H62 H 0.94766 0.08217 0.90059 0.0
H63 H 0.69345 0.92365 0.35642 0.0
H64 H 0.62757 0.91987 0.0012 0.0
H65 H 0.72475 0.94246 0.79224 0.0
Co66 Co 0.10505 0.83081 0.08598 0.0
C67 C 1.01842 0.79534 0.97304 0.0
C68 C 0.06432 0.87176 0.96404 0.0
C69 C 1.02065 0.85939 0.92644 0.0
N70 N 0.06313 0.83171 -0.00553 0.0
N71 N 0.99149 0.81147 0.93396 0.0
H72 H 1.00408 0.75828 -0.00755 0.0
H73 H 0.09312 0.90826 0.97455 0.0
C74 C 0.19439 0.9249 0.03713 0.0
O75 O 0.21711 0.90116 0.02168 0.0
N76 N 0.14456 0.83105 0.18313 0.0
C77 C 0.13263 0.7947 0.24 0.0
C78 C 0.16751 0.80933 0.30248 0.0
C79 C 0.186 0.86804 0.215 0.0
N80 N 0.20091 0.85529 0.28611 0.0
C81 C 0.14151 0.82154 0.9196 0.0
C82 C 0.16568 0.75453 0.97621 0.0
C83 C 0.16195 0.75983 0.88854 0.0
C84 C 0.15189 0.79531 0.85984 0.0
C85 C 0.15315 0.7798 0.03332 0.0
N86 N 0.13945 0.81166 0.00541 0.0
H87 H 0.13195 0.84729 0.89623 0.0
H88 H 0.15031 0.76947 0.09926 0.0
H89 H 0.10095 0.75928 0.23647 0.0
H90 H 0.20421 0.90403 0.18987 0.0
O91 O 0.05614 0.76659 0.11398 0.0
O92 O 0.06072 0.83259 0.16949 0.0
O93 O 0.15113 0.90267 0.06682 0.0
C94 C 1.03802 0.78552 0.16448 0.0
H95 H 1.01008 0.8842 0.90141 0.0
H96 H 0.16785 0.78799 0.35591 0.0
H97 H 0.17215 0.72666 0.00062 0.0
H98 H 0.14857 0.80022 0.79183 0.0
Co99 Co 0.84926 0.78108 0.86839 0.0
C100 C 0.81372 0.83203 -0.01864 0.0
C101 C 0.89027 0.86311 -0.00969 0.0
C102 C 0.87784 0.89432 0.02791 0.0
N103 N 0.85016 0.82395 0.95992 0.0
N104 N 0.82983 0.87521 0.02037 0.0
H105 H 0.77659 0.809 0.96199 0.0
H106 H 0.92683 0.87108 -0.02027 0.0
C107 C 0.94311 0.78577 0.91766 0.0
O108 O 0.91909 0.73919 0.93249 0.0
N109 N 0.84946 0.74166 0.77126 0.0
C110 C 0.81308 0.71705 0.71422 0.0
C111 C 0.82766 0.69672 0.65188 0.0
C112 C 0.88646 0.73729 0.73956 0.0
N113 N 0.87365 0.70944 0.66846 0.0
C114 C 0.84006 0.73544 0.03455 0.0
C115 C 0.77215 0.64413 -0.02197 0.0
C116 C 0.77809 0.65318 0.06574 0.0
C117 C 0.81397 0.69881 0.09433 0.0
C118 C 0.79731 0.68196 0.92094 0.0
N119 N 0.82972 0.72754 0.94884 0.0
H120 H 0.86614 0.77083 0.05783 0.0
H121 H 0.78652 0.67456 0.85511 0.0
H122 H 0.77767 0.71326 0.71751 0.0
H123 H 0.92252 0.7553 0.76473 0.0
O124 O 0.7851 0.76569 0.83984 0.0
O125 O 0.85145 0.82724 0.78493 0.0
O126 O 0.92111 0.80693 0.88822 0.0
C127 C 0.8043 0.80286 0.78965 0.0
H128 H 0.90266 0.92986 0.05292 0.0
H129 H 0.80629 0.6749 0.59837 0.0
H130 H 0.74389 0.60977 0.95373 0.0
H131 H 0.81931 0.70706 0.16236 0.0
Co132 Co 0.31098 0.08679 0.86866 0.0
C133 C 0.26008 1.00032 -0.01833 0.0
C134 C 0.2292 0.04573 -0.00885 0.0
C135 C 0.19797 1.00207 0.02881 0.0
N136 N 0.26824 0.04484 0.96036 0.0
N137 N 0.21695 0.9732 0.02092 0.0
H138 H 0.28299 0.98624 0.96203 0.0
H139 H 0.22131 0.07431 -0.01917 0.0
C140 C 0.30613 0.17583 0.91788 0.0
O141 O 0.35277 0.19871 0.93289 0.0
N142 N 0.35024 0.12633 0.77137 0.0
C143 C 0.37471 0.11454 0.71423 0.0
C144 C 0.39498 0.14938 0.65182 0.0
C145 C 0.35464 0.16764 0.7397 0.0
N146 N 0.38236 0.18262 0.66847 0.0
C147 C 0.35695 0.12367 0.03471 0.0
C148 C 0.44824 0.14734 -0.02209 0.0
C149 C 0.43919 0.14387 0.06561 0.0
C150 C 0.39362 0.13409 0.09439 0.0
C151 C 0.41035 0.13481 0.92088 0.0
N152 N 0.36474 0.12137 0.94892 0.0
H153 H 0.32157 0.11425 0.05812 0.0
H154 H 0.41774 0.1317 0.85493 0.0
H155 H 0.37849 0.08299 0.71752 0.0
H156 H 0.33678 0.1857 0.76504 0.0
O157 O 0.32646 0.03818 0.84028 0.0
O158 O 0.26465 0.04229 0.78536 0.0
O159 O 0.285 0.13255 0.88834 0.0
C160 C 0.28917 1.01981 0.79014 0.0
H161 H 0.16248 0.99128 0.05409 0.0
H162 H 0.41669 0.1498 0.59824 0.0
H163 H 0.48258 0.15358 0.95345 0.0
H164 H 0.3854 0.13098 0.16242 0.0
Co165 Co 1.00509 0.24263 0.86868 0.0
C166 C 0.09173 0.27809 -0.01842 0.0
C167 C 1.04581 0.20168 -0.00936 0.0
C168 C 0.08949 0.21405 0.0282 0.0
N169 N 1.04701 0.24174 0.96018 0.0
N170 N 0.11867 0.26196 0.0206 0.0
H171 H 0.10607 0.31516 0.96217 0.0
H172 H 1.01699 0.16518 -0.01981 0.0
C173 C 0.91574 0.14854 0.91752 0.0
O174 O 0.89303 0.17228 0.93299 0.0
N175 N 0.96557 0.24239 0.77153 0.0
C176 C 0.97751 0.27873 0.71465 0.0
C177 C 0.94262 0.26411 0.65218 0.0
C178 C 0.92413 0.2054 0.73966 0.0
N179 N 0.90922 0.21815 0.66855 0.0
C180 C 0.96863 0.2519 0.03506 0.0
C181 C 0.94446 0.31891 -0.02156 0.0
C182 C 0.94819 0.31361 0.06612 0.0
C183 C 0.95825 0.27813 0.09481 0.0
C184 C 0.95699 0.29364 0.92133 0.0
N185 N 0.97069 0.26178 0.94925 0.0
H186 H 0.97818 0.22615 0.05843 0.0
H187 H 0.95983 0.30397 0.85539 0.0
H188 H 1.00919 0.31415 0.71818 0.0
H189 H 0.90592 0.1694 0.7648 0.0
O190 O 1.05399 0.30685 0.84068 0.0
O191 O 1.04941 0.24084 0.78517 0.0
O192 O 0.95901 0.17077 0.88784 0.0
C193 C 0.07212 0.28792 0.79017 0.0
H194 H 0.10005 0.18924 0.05327 0.0
H195 H 0.94229 0.28544 0.59875 0.0
H196 H 0.93799 0.34678 0.95403 0.0
H197 H 0.96157 0.27322 0.16283 0.0
Co198 Co 0.92756 0.62569 0.41959 0.0
C199 C 0.9631 0.57475 0.30659 0.0
C200 C 0.88655 0.54365 0.29768 0.0
C201 C 0.89898 0.51246 0.26006 0.0
N202 N 0.92665 0.58282 0.32806 0.0
N203 N 0.94699 0.53159 0.26752 0.0
H204 H 1.00023 0.59778 0.32597 0.0
H205 H 0.84999 0.53567 0.30832 0.0
C206 C 0.8337 0.621 0.37032 0.0
O207 O 0.85772 0.66758 0.35552 0.0
N208 N 0.92735 0.66511 0.51672 0.0
C209 C 0.96373 0.68972 0.57376 0.0
C210 C 0.94914 0.71004 0.63612 0.0
C211 C 0.89035 0.66946 0.54845 0.0
N212 N 0.90315 0.6973 0.61956 0.0
C213 C 0.93674 0.67134 0.25344 0.0
C214 C 1.00468 0.76264 0.30996 0.0
C215 C 0.9987 0.75359 0.22226 0.0
C216 C 0.96283 0.70797 0.19365 0.0
C217 C 0.97952 0.72481 0.36705 0.0
N218 N 0.94709 0.67924 0.33915 0.0
H219 H 0.91066 0.63595 0.23016 0.0
H220 H 0.99032 0.7322 0.43287 0.0
H221 H 0.99914 0.69353 0.57045 0.0
H222 H 0.85429 0.65144 0.52328 0.0
O223 O 0.99172 0.64108 0.44815 0.0
O224 O 0.92536 0.57952 0.50305 0.0
O225 O 0.85571 0.59984 0.39976 0.0
C226 C 0.97251 0.60391 0.49834 0.0
H227 H 0.87416 0.47691 0.23508 0.0
H228 H 0.97052 0.73186 0.68962 0.0
H229 H 1.03294 0.797 0.33425 0.0
H230 H 0.95747 0.69972 0.12562 0.0
Co231 Co 0.46583 0.31999 0.41933 0.0
C232 C 0.51672 0.40645 0.30628 0.0
C233 C 0.54762 0.36105 0.29685 0.0
C234 C 0.57883 0.40471 0.25915 0.0
N235 N 0.50857 0.36194 0.32762 0.0
N236 N 0.55983 0.43357 0.26697 0.0
H237 H 0.49381 0.42053 0.32593 0.0
H238 H 0.55552 0.33249 0.30721 0.0
C239 C 0.47068 0.23096 0.3701 0.0
O240 O 0.42404 0.20806 0.35512 0.0
N241 N 0.42658 0.28046 0.51662 0.0
C242 C 0.4021 0.29224 0.57375 0.0
C243 C 0.38185 0.25741 0.63618 0.0
C244 C 0.42219 0.23916 0.54831 0.0
N245 N 0.39449 0.22418 0.61955 0.0
C246 C 0.41986 0.28309 0.25328 0.0
C247 C 0.32857 0.25945 0.31009 0.0
C248 C 0.33762 0.26289 0.22239 0.0
C249 C 0.38318 0.27267 0.1936 0.0
C250 C 0.36646 0.27199 0.36711 0.0
N251 N 0.41206 0.28542 0.33907 0.0
H252 H 0.45523 0.29251 0.22987 0.0
H253 H 0.35908 0.27512 0.43306 0.0
H254 H 0.39831 0.32379 0.57045 0.0
H255 H 0.44007 0.2211 0.52298 0.0
O256 O 0.45036 0.36861 0.44771 0.0
O257 O 0.51216 0.3645 0.50262 0.0
O258 O 0.49181 0.27423 0.39964 0.0
C259 C 0.48765 0.38698 0.49785 0.0
H260 H 0.61432 0.4155 0.23391 0.0
H261 H 0.36013 0.25699 0.68976 0.0
H262 H 0.29423 0.25323 0.33453 0.0
H263 H 0.3914 0.27576 0.12557 0.0
Co264 Co 0.77171 0.16414 0.41931 0.0
C265 C 0.68508 0.12867 0.30637 0.0
C266 C 0.73099 0.20508 0.29735 0.0
C267 C 0.68731 0.19271 0.25976 0.0
N268 N 0.7298 0.16503 0.3278 0.0
N269 N 0.65815 0.14479 0.26729 0.0
H270 H 0.67074 0.09161 0.32579 0.0
H271 H 0.75979 0.24159 0.30786 0.0
C272 C 0.86106 0.25823 0.37045 0.0
O273 O 0.88378 0.23448 0.35502 0.0
N274 N 0.81122 0.16438 0.51646 0.0
C275 C 0.79929 0.12804 0.57333 0.0
C276 C 0.83417 0.14267 0.63583 0.0
C277 C 0.85265 0.20138 0.54834 0.0
N278 N 0.86756 0.18864 0.61947 0.0
C279 C 0.80819 0.15488 0.25293 0.0
C280 C 0.83233 0.08784 0.30956 0.0
C281 C 0.82862 0.09317 0.22189 0.0
C282 C 0.81857 0.12866 0.19318 0.0
C283 C 0.81979 0.11311 0.36666 0.0
N284 N 0.80611 0.14498 0.33874 0.0
H285 H 0.79864 0.18064 0.22957 0.0
H286 H 0.81692 0.10276 0.43259 0.0
H287 H 0.76762 0.09261 0.56979 0.0
H288 H 0.87086 0.23737 0.52321 0.0
O289 O 0.72281 0.09992 0.44731 0.0
O290 O 0.72739 0.16592 0.50281 0.0
O291 O 0.81779 0.236 0.40014 0.0
C292 C 0.70468 0.11885 0.49781 0.0
H293 H 0.67674 0.21752 0.23473 0.0
H294 H 0.83451 0.12133 0.68925 0.0
H295 H 0.83878 0.05996 0.33396 0.0
H296 H 0.81527 0.13358 0.12516 0.0
Co297 Co 0.51592 0.11441 0.20173 0.0
C298 C 0.48038 0.16537 0.31469 0.0
C299 C 0.55693 0.19645 0.32364 0.0
C300 C 0.5445 0.22765 0.36123 0.0
N301 N 0.51682 0.15729 0.29325 0.0
N302 N 0.4965 0.20854 0.3537 0.0
H303 H 0.44325 0.14233 0.29532 0.0
H304 H 0.59349 0.20441 0.31305 0.0
C305 C 0.60977 0.11909 0.251 0.0
O306 O 0.58575 0.07252 0.26583 0.0
N307 N 0.51612 0.07498 0.10461 0.0
C308 C 0.47974 0.05036 0.04757 0.0
C309 C 0.49432 1.03003 -0.01477 0.0
C310 C 0.55312 0.07062 0.07289 0.0
N311 N 0.54031 0.04277 0.0018 0.0
C312 C 0.50672 0.06877 0.3679 0.0
C313 C 0.43881 0.97746 0.31139 0.0
C314 C 0.44476 0.98651 0.3991 0.0
C315 C 0.48063 1.03214 0.42768 0.0
C316 C 0.46397 1.01529 0.25429 0.0
N317 N 0.49638 0.06087 0.28218 0.0
H318 H 0.5328 0.10416 0.39117 0.0
H319 H 0.45319 1.00788 0.18847 0.0
H320 H 0.44433 0.04657 0.05087 0.0
H321 H 0.58918 0.08863 0.09806 0.0
O322 O 0.45175 0.09901 0.17318 0.0
O323 O 0.51811 0.16057 0.11826 0.0
O324 O 0.58777 0.14026 0.22156 0.0
C325 C 0.47097 0.13617 0.12297 0.0
H326 H 0.56933 0.26319 0.38624 0.0
H327 H 0.47294 1.00821 0.93173 0.0
H328 H 0.41056 0.9431 0.28709 0.0
H329 H 0.48597 0.0404 0.49571 0.0
Co330 Co 0.97765 0.42012 0.20199 0.0
C331 C 0.92674 0.33365 0.31499 0.0
C332 C 0.89586 0.37906 0.32447 0.0
C333 C 0.86464 0.33539 0.36213 0.0
N334 N 0.9349 0.37817 0.29369 0.0
N335 N 0.88361 0.30652 0.35424 0.0
H336 H 0.94965 0.31957 0.29535 0.0
H337 H 0.88797 0.40764 0.31416 0.0
C338 C 0.9728 0.50916 0.25122 0.0
O339 O 1.01944 0.53204 0.26623 0.0
N340 N 1.01691 0.45966 0.10471 0.0
C341 C 1.04139 0.44788 0.04758 0.0
C342 C 0.06166 0.48272 -0.01483 0.0
C343 C 1.02131 0.50097 0.07303 0.0
N344 N 1.04903 0.51595 0.00181 0.0
C345 C 1.02361 0.457 0.36806 0.0
C346 C 0.1149 0.48068 0.31126 0.0
C347 C 0.10586 0.4772 0.39896 0.0
C348 C 0.06029 0.46741 0.42773 0.0
C349 C 0.07702 0.46815 0.25423 0.0
N350 N 1.03141 0.45469 0.28227 0.0
H351 H 0.98824 0.44757 0.39146 0.0
H352 H 0.08441 0.46504 0.18828 0.0
H353 H 1.04517 0.41633 0.05088 0.0
H354 H 1.00344 0.51903 0.09837 0.0
O355 O 0.99313 0.37151 0.17362 0.0
O356 O 0.93133 0.37562 0.11869 0.0
O357 O 0.95167 0.46588 0.22168 0.0
C358 C 0.95585 0.35315 0.12346 0.0
H359 H 0.82915 0.32461 0.38741 0.0
H360 H 0.08338 0.48314 0.93159 0.0
H361 H 0.14925 0.48692 0.28681 0.0
H362 H 1.05206 0.4643 0.49577 0.0
Co363 Co 0.67175 0.57596 0.20202 0.0
C364 C 0.7584 0.61143 0.31491 0.0
C365 C 0.71248 0.53502 0.32396 0.0
C366 C 0.75617 0.54738 0.36152 0.0
N367 N 0.71368 0.57507 0.29351 0.0
N368 N 0.78534 0.5953 0.35392 0.0
H369 H 0.77274 0.64849 0.2955 0.0
H370 H 0.68366 0.49851 0.31351 0.0
C371 C 0.58241 0.48188 0.25086 0.0
O372 O 0.5597 0.50562 0.26633 0.0
N373 N 0.63224 0.57573 0.10487 0.0
C374 C 0.64417 0.61208 0.048 0.0
C375 C 0.60928 0.59745 -0.01447 0.0
C376 C 0.5908 0.53874 0.073 0.0
N377 N 0.57588 0.55148 0.00189 0.0
C378 C 0.63531 0.58524 0.36841 0.0
C379 C 0.61112 0.65224 0.3118 0.0
C380 C 0.61487 0.64695 0.39947 0.0
C381 C 0.62494 0.61147 0.42816 0.0
C382 C 0.62364 0.62697 0.25469 0.0
N383 N 0.63736 0.59512 0.2826 0.0
H384 H 0.64487 0.55949 0.39178 0.0
H385 H 0.62647 0.63729 0.18875 0.0
H386 H 0.67584 0.6475 0.05155 0.0
H387 H 0.57259 0.50274 0.09812 0.0
O388 O 0.72065 0.64019 0.17402 0.0
O389 O 0.71607 0.57418 0.1185 0.0
O390 O 0.62568 0.5041 0.22117 0.0
C391 C 0.73877 0.62125 0.1235 0.0
H392 H 0.76673 0.52257 0.38659 0.0
H393 H 0.60894 0.61879 0.93211 0.0
H394 H 0.60464 0.6801 0.28739 0.0
H395 H 0.62826 0.60657 0.49618 0.0
Co396 Co 0.59422 0.95903 0.75292 0.0
C397 C 0.62977 0.90809 0.63992 0.0
C398 C 0.55322 0.87699 0.63102 0.0
C399 C 0.56565 0.8458 0.5934 0.0
N400 N 0.59332 0.91615 0.6614 0.0
N401 N 0.61366 0.86493 0.60086 0.0
H402 H 0.6669 0.93112 0.65931 0.0
H403 H 0.51665 0.86901 0.64166 0.0
C404 C 0.50037 0.95434 0.70366 0.0
O405 O 0.52438 1.00092 0.68886 0.0
N406 N 0.59402 0.99844 0.85005 0.0
C407 C 0.6304 1.02307 0.90708 0.0
C408 C 0.61581 0.04338 0.96944 0.0
C409 C 0.55701 1.00279 0.88179 0.0
N410 N 0.56981 1.03063 0.9529 0.0
C411 C 0.6034 1.00467 0.58677 0.0
C412 C 0.67133 0.09598 0.64329 0.0
C413 C 0.66536 0.08692 0.55558 0.0
C414 C 0.62949 0.0413 0.52698 0.0
C415 C 0.64618 0.05814 0.70038 0.0
N416 N 0.61375 1.01257 0.67248 0.0
H417 H 0.57732 0.96928 0.5635 0.0
H418 H 0.65698 0.06554 0.7662 0.0
H419 H 0.66581 1.02688 0.90377 0.0
H420 H 0.52094 0.98476 0.85663 0.0
O421 O 0.65839 0.97443 0.78148 0.0
O422 O 0.59203 0.91286 0.83639 0.0
O423 O 0.52237 0.93317 0.73309 0.0
C424 C 0.63918 0.93726 0.83168 0.0
H425 H 0.54083 0.81025 0.56843 0.0
H426 H 0.63719 0.06521 0.02294 0.0
H427 H 0.6996 0.13034 0.66757 0.0
H428 H 0.62414 1.03305 0.45895 0.0
Co429 Co 0.1325 0.65332 0.75266 0.0
C430 C 0.18338 0.73978 0.63962 0.0
C431 C 0.21428 0.69438 0.63019 0.0
C432 C 0.24549 0.73805 0.5925 0.0
N433 N 0.17524 0.69527 0.66096 0.0
N434 N 0.22649 0.7669 0.60031 0.0
H435 H 0.16047 0.75386 0.65927 0.0
H436 H 0.22219 0.66582 0.64056 0.0
C437 C 0.13735 0.56428 0.70344 0.0
O438 O 0.0907 0.54139 0.68846 0.0
N439 N 0.09324 0.61378 0.84995 0.0
C440 C 0.06875 0.62556 0.90708 0.0
C441 C 1.0485 0.59073 0.96951 0.0
C442 C 0.08886 0.57249 0.88165 0.0
N443 N 0.06116 0.55751 0.95289 0.0
C444 C 0.08652 0.61642 0.58661 0.0
C445 C 0.99524 0.59277 0.64341 0.0
C446 C 1.00428 0.59622 0.55572 0.0
C447 C 1.04985 0.606 0.52693 0.0
C448 C 1.03312 0.60531 0.70044 0.0
N449 N 0.07873 0.61875 0.6724 0.0
H450 H 0.1219 0.62584 0.56321 0.0
H451 H 1.02574 0.60844 0.76638 0.0
H452 H 0.06496 0.65711 0.90377 0.0
H453 H 0.10674 0.55443 0.85632 0.0
O454 O 0.11701 0.70193 0.78104 0.0
O455 O 0.17882 0.69782 0.83596 0.0
O456 O 0.15847 0.60756 0.73297 0.0
C457 C 0.1543 0.7203 0.83119 0.0
H458 H 0.28099 0.74884 0.56726 0.0
H459 H 1.02678 0.59031 0.02308 0.0
H460 H 0.96089 0.58654 0.66786 0.0
H461 H 0.05807 0.6091 0.4589 0.0
Co462 Co 0.43839 0.49748 0.75263 0.0
C463 C 0.35175 0.462 0.6397 0.0
C464 C 0.39766 0.53842 0.6307 0.0
C465 C 0.35398 0.52605 0.59311 0.0
N466 N 0.39647 0.49837 0.66113 0.0
N467 N 0.32482 0.47813 0.60063 0.0
H468 H 0.33742 0.42494 0.65912 0.0
H469 H 0.42646 0.57493 0.6412 0.0
C470 C 0.52773 0.59156 0.70379 0.0
O471 O 0.55045 0.56782 0.68835 0.0
N472 N 0.4779 0.49772 0.84979 0.0
C473 C 0.46597 0.46137 0.90665 0.0
C474 C 0.50085 0.476 0.96914 0.0
C475 C 0.51932 0.53472 0.88168 0.0
N476 N 0.53423 0.52197 0.95281 0.0
C477 C 0.47485 0.48821 0.58625 0.0
C478 C 0.49901 0.42119 0.64287 0.0
C479 C 0.49529 0.42651 0.5552 0.0
C480 C 0.48523 0.46199 0.5265 0.0
C481 C 0.48648 0.44645 0.69998 0.0
N482 N 0.47278 0.47832 0.67206 0.0
H483 H 0.4653 0.51397 0.56289 0.0
H484 H 0.48362 0.43612 0.76591 0.0
H485 H 0.43431 0.42594 0.90309 0.0
H486 H 0.53753 0.57071 0.85656 0.0
O487 O 0.38948 0.43325 0.78064 0.0
O488 O 0.39406 0.49926 0.83615 0.0
O489 O 0.48446 0.56934 0.73347 0.0
C490 C 0.37136 0.45219 0.83115 0.0
H491 H 0.34341 0.55085 0.56808 0.0
H492 H 0.50119 0.45466 0.02256 0.0
H493 H 0.50548 0.39332 0.66727 0.0
H494 H 0.48193 0.46691 0.45848 0.0
Co495 Co 0.18258 0.44774 0.53508 0.0
C496 C 0.14704 0.49869 0.64803 0.0
C497 C 0.22359 0.52977 0.65699 0.0
C498 C 0.21117 0.56098 0.69458 0.0
N499 N 0.18349 0.49061 0.6266 0.0
N500 N 0.16316 0.54187 0.68704 0.0
H501 H 0.10991 0.47566 0.62866 0.0
H502 H 0.26015 0.53773 0.64641 0.0
C503 C 0.27644 0.45243 0.58433 0.0
O504 O 0.25243 0.40585 0.59915 0.0
N505 N 0.18279 0.40832 0.43794 0.0
C506 C 0.14641 0.3837 0.38091 0.0
C507 C 0.161 0.36338 0.31855 0.0
C508 C 0.2198 0.40398 0.40621 0.0
N509 N 0.207 0.37614 0.3351 0.0
C510 C 0.1734 0.4021 0.70123 0.0
C511 C 0.10547 0.31079 0.64471 0.0
C512 C 0.11144 0.31984 0.73241 0.0
C513 C 0.14731 0.36547 0.76102 0.0
C514 C 0.13064 0.34862 0.58762 0.0
N515 N 0.16305 0.3942 0.61552 0.0
H516 H 0.19948 0.43749 0.72451 0.0
H517 H 0.11985 0.34122 0.5218 0.0
H518 H 0.111 0.37989 0.38422 0.0
H519 H 0.25586 0.42199 0.43137 0.0
O520 O 0.11842 0.43234 0.50652 0.0
O521 O 0.18478 0.4939 0.45161 0.0
O522 O 0.25444 0.47359 0.5549 0.0
C523 C 0.13763 0.46951 0.45632 0.0
H524 H 0.23599 0.59652 0.71959 0.0
H525 H 0.13962 0.34156 0.26506 0.0
H526 H 0.07722 0.27643 0.62042 0.0
H527 H 0.15265 0.37372 0.82905 0.0
Co528 Co 0.64432 0.75346 0.53534 0.0
C529 C 0.59342 0.66699 0.64834 0.0
C530 C 0.56254 0.7124 0.65783 0.0
C531 C 0.53131 0.66873 0.69548 0.0
N532 N 0.60158 0.71151 0.62704 0.0
N533 N 0.55029 0.63986 0.68759 0.0
H534 H 0.61633 0.65291 0.6287 0.0
H535 H 0.55465 0.74098 0.64752 0.0
C536 C 0.63947 0.8425 0.58455 0.0
O537 O 0.68611 0.86539 0.59955 0.0
N538 N 0.68358 0.793 0.43805 0.0
C539 C 0.70806 0.78122 0.38092 0.0
C540 C 0.72831 0.81605 0.31849 0.0
C541 C 0.68796 0.8343 0.40635 0.0
N542 N 0.71566 0.84927 0.33511 0.0
C543 C 0.69029 0.79035 0.70139 0.0
C544 C 0.78158 0.81401 0.64458 0.0
C545 C 0.77253 0.81055 0.73228 0.0
C546 C 0.72696 0.80077 0.76107 0.0
C547 C 0.7437 0.80148 0.58756 0.0
N548 N 0.69809 0.78804 0.6156 0.0
H549 H 0.65492 0.78093 0.7248 0.0
H550 H 0.75108 0.79836 0.52161 0.0
H551 H 0.71185 0.74967 0.38423 0.0
H552 H 0.67008 0.85235 0.43168 0.0
O553 O 0.65981 0.70485 0.50696 0.0
O554 O 0.598 0.70896 0.45204 0.0
O555 O 0.61834 0.79922 0.55502 0.0
C556 C 0.62252 0.68649 0.45681 0.0
H557 H 0.49583 0.65795 0.72076 0.0
H558 H 0.75003 0.81647 0.26492 0.0
H559 H 0.81593 0.82025 0.62014 0.0
H560 H 0.71874 0.79766 0.82911 0.0
Co561 Co 0.33841 0.9093 0.53537 0.0
C562 C 0.42506 0.94476 0.64826 0.0
C563 C 0.37914 0.86835 0.65732 0.0
C564 C 0.42283 0.88072 0.69487 0.0
N565 N 0.38034 0.90841 0.62687 0.0
N566 N 0.452 0.92863 0.68727 0.0
H567 H 0.4394 0.98183 0.62885 0.0
H568 H 0.35032 0.83185 0.64686 0.0
C569 C 0.24907 0.81521 0.5842 0.0
O570 O 0.22635 0.83895 0.59966 0.0
N571 N 0.2989 0.90906 0.43821 0.0
C572 C 0.31083 0.9454 0.38135 0.0
C573 C 0.27595 0.93078 0.31886 0.0
C574 C 0.25747 0.87206 0.40632 0.0
N575 N 0.24257 0.8848 0.33519 0.0
C576 C 0.30196 0.91857 0.70175 0.0
C577 C 0.27778 0.98558 0.64513 0.0
C578 C 0.28152 0.98027 0.7328 0.0
C579 C 0.29158 0.94479 0.7615 0.0
C580 C 0.29031 0.96031 0.58802 0.0
N581 N 0.30402 0.92845 0.61594 0.0
H582 H 0.31152 0.89282 0.72512 0.0
H583 H 0.29315 0.97063 0.52208 0.0
H584 H 0.3425 0.98083 0.38491 0.0
H585 H 0.23927 0.83606 0.43144 0.0
O586 O 0.38731 0.97352 0.50737 0.0
O587 O 0.38274 0.90751 0.45185 0.0
O588 O 0.29234 0.83744 0.55452 0.0
C589 C 0.40543 0.95459 0.45685 0.0
H590 H 0.43339 0.85591 0.71993 0.0
H591 H 0.27561 0.95211 0.26544 0.0
H592 H 0.27131 1.01344 0.62072 0.0
H593 H 0.2949 0.93989 0.82952 0.0
loop_
_geom_bond_atom_site_label_1
_geom_bond_atom_site_label_2
_geom_bond_distance
_geom_bond_site_symmetry_2
_ccdc_geom_bond_type
Co0 N4 2.148 . S
Co0 N10 2.128 . S
Co0 N20 2.194 . S
Co0 O25 2.351 . S
Co0 O26 2.155 . S
Co0 O27 2.096 . S
C1 N4 1.301 . S
C1 N5 1.328 1_554 S
C1 H6 0.930 . S
C2 C3 1.328 1_554 S
C2 N4 1.322 . S
C2 H7 0.930 . S
C3 C2 1.328 1_556 S
C3 N5 1.350 . S
C3 H29 0.931 . S
N4 Co0 2.148 . S
N4 C1 1.301 . S
N4 C2 1.322 . S
N5 C1 1.328 1_556 S
N5 C3 1.350 . S
H6 C1 0.930 . S
H7 C2 0.930 . S
C8 O9 1.224 . S
C8 O27 1.247 . S
O9 C8 1.224 . S
N10 Co0 2.128 . S
N10 C11 1.355 . S
N10 C13 1.311 . S
C11 N10 1.355 . S
C11 C12 1.363 . S
C11 H23 0.929 . S
C12 C11 1.363 . S
C12 N14 1.375 . S
C12 H30 0.931 . S
C13 N10 1.311 . S
C13 N14 1.347 . S
C13 H24 0.929 . S
N14 C12 1.375 . S
N14 C13 1.347 . S
C15 C18 1.365 1_554 S
C15 N20 1.328 . S
C15 H21 0.929 . S
C16 C17 1.362 . S
C16 C19 1.378 . S
C16 H31 0.929 . S
C17 C16 1.362 . S
C17 C18 1.366 . S
C18 C15 1.365 1_556 S
C18 C17 1.366 . S
C18 H32 0.930 . S
C19 C16 1.378 . S
C19 N20 1.315 1_556 S
C19 H22 0.930 . S
N20 Co0 2.194 . S
N20 C15 1.328 . S
N20 C19 1.315 1_554 S
H21 C15 0.929 . S
H22 C19 0.930 . S
H23 C11 0.929 . S
H24 C13 0.929 . S
O25 Co0 2.351 . S
O25 C28 1.244 . S
O26 Co0 2.155 . S
O26 C28 1.240 . S
O27 Co0 2.096 . S
O27 C8 1.247 . S
C28 O25 1.244 . S
C28 O26 1.240 . S
H29 C3 0.931 . S
H30 C12 0.931 . S
H31 C16 0.929 . S
H32 C18 0.930 . S
Co33 N37 2.148 1_565 S
Co33 N43 2.128 . S
Co33 N53 2.194 . S
Co33 O58 2.351 1_565 S
Co33 O59 2.155 . S
Co33 O60 2.096 . S
C34 N37 1.301 . S
C34 N38 1.328 1_554 S
C34 H39 0.930 . S
C35 C36 1.328 1_554 S
C35 N37 1.322 . S
C35 H40 0.930 1_545 S
C36 C35 1.328 1_556 S
C36 N38 1.350 . S
C36 H62 0.931 . S
N37 Co33 2.148 1_545 S
N37 C34 1.301 . S
N37 C35 1.322 . S
N38 C34 1.328 1_556 S
N38 C36 1.350 . S
H39 C34 0.930 . S
H40 C35 0.930 1_565 S
C41 O42 1.224 . S
C41 O60 1.247 . S
O42 C41 1.224 . S
N43 Co33 2.128 . S
N43 C44 1.355 . S
N43 C46 1.311 . S
C44 N43 1.355 . S
C44 C45 1.363 . S
C44 H56 0.929 . S
C45 C44 1.363 . S
C45 N47 1.375 . S
C45 H63 0.931 . S
C46 N43 1.311 . S
C46 N47 1.347 . S
C46 H57 0.929 . S
N47 C45 1.375 . S
N47 C46 1.347 . S
C48 C51 1.365 1_554 S
C48 N53 1.328 . S
C48 H54 0.929 . S
C49 C50 1.362 . S
C49 C52 1.378 . S
C49 H64 0.929 . S
C50 C49 1.362 . S
C50 C51 1.366 . S
C51 C48 1.365 1_556 S
C51 C50 1.366 . S
C51 H65 0.930 . S
C52 C49 1.378 . S
C52 N53 1.315 1_556 S
C52 H55 0.930 . S
N53 Co33 2.194 . S
N53 C48 1.328 . S
N53 C52 1.315 1_554 S
H54 C48 0.929 . S
H55 C52 0.930 . S
H56 C44 0.929 . S
H57 C46 0.929 . S
O58 Co33 2.351 1_545 S
O58 C61 1.244 . S
O59 Co33 2.155 . S
O59 C61 1.240 1_565 S
O60 Co33 2.096 . S
O60 C41 1.247 . S
C61 O58 1.244 . S
C61 O59 1.240 1_545 S
H62 C36 0.931 . S
H63 C45 0.931 . S
H64 C49 0.929 . S
H65 C51 0.930 . S
Co66 N70 2.148 1_455 S
Co66 N76 2.128 . S
Co66 N86 2.194 . S
Co66 O91 2.351 1_455 S
Co66 O92 2.155 . S
Co66 O93 2.096 . S
C67 N70 1.301 . S
C67 N71 1.328 1_554 S
C67 H72 0.930 . S
C68 C69 1.328 1_554 S
C68 N70 1.322 . S
C68 H73 0.930 1_655 S
C69 C68 1.328 1_556 S
C69 N71 1.350 . S
C69 H95 0.931 . S
N70 Co66 2.148 1_655 S
N70 C67 1.301 . S
N70 C68 1.322 . S
N71 C67 1.328 1_556 S
N71 C69 1.350 . S
H72 C67 0.930 . S
H73 C68 0.930 1_455 S
C74 O75 1.224 . S
C74 O93 1.247 . S
O75 C74 1.224 . S
N76 Co66 2.128 . S
N76 C77 1.355 . S
N76 C79 1.311 . S
C77 N76 1.355 . S
C77 C78 1.363 . S
C77 H89 0.929 . S
C78 C77 1.363 . S
C78 N80 1.375 . S
C78 H96 0.931 . S
C79 N76 1.311 . S
C79 N80 1.347 . S
C79 H90 0.929 . S
N80 C78 1.375 . S
N80 C79 1.347 . S
C81 C84 1.365 1_554 S
C81 N86 1.328 . S
C81 H87 0.929 . S
C82 C83 1.362 . S
C82 C85 1.378 . S
C82 H97 0.929 . S
C83 C82 1.362 . S
C83 C84 1.366 . S
C84 C81 1.365 1_556 S
C84 C83 1.366 . S
C84 H98 0.930 . S
C85 C82 1.378 . S
C85 N86 1.315 1_556 S
C85 H88 0.930 . S
N86 Co66 2.194 . S
N86 C81 1.328 . S
N86 C85 1.315 1_554 S
H87 C81 0.929 . S
H88 C85 0.930 . S
H89 C77 0.929 . S
H90 C79 0.929 . S
O91 Co66 2.351 1_655 S
O91 C94 1.244 . S
O92 Co66 2.155 . S
O92 C94 1.240 1_455 S
O93 Co66 2.096 . S
O93 C74 1.247 . S
C94 O91 1.244 . S
C94 O92 1.240 1_655 S
H95 C69 0.931 . S
H96 C78 0.931 . S
H97 C82 0.929 . S
H98 C84 0.930 . S
Co99 N103 2.148 . S
Co99 N109 2.128 . S
Co99 N119 2.194 . S
Co99 O124 2.351 . S
Co99 O125 2.155 . S
Co99 O126 2.096 . S
C100 N103 1.301 . S
C100 N104 1.328 1_556 S
C100 H105 0.930 . S
C101 C102 1.328 1_556 S
C101 N103 1.322 . S
C101 H106 0.930 . S
C102 C101 1.328 1_554 S
C102 N104 1.350 . S
C102 H128 0.931 . S
N103 Co99 2.148 . S
N103 C100 1.301 . S
N103 C101 1.322 . S
N104 C100 1.328 1_554 S
N104 C102 1.350 . S
H105 C100 0.930 . S
H106 C101 0.930 . S
C107 O108 1.224 . S
C107 O126 1.247 . S
O108 C107 1.224 . S
N109 Co99 2.128 . S
N109 C110 1.355 . S
N109 C112 1.311 . S
C110 N109 1.355 . S
C110 C111 1.363 . S
C110 H122 0.929 . S
C111 C110 1.363 . S
C111 N113 1.375 . S
C111 H129 0.931 . S
C112 N109 1.311 . S
C112 N113 1.347 . S
C112 H123 0.929 . S
N113 C111 1.375 . S
N113 C112 1.347 . S
C114 C117 1.365 1_556 S
C114 N119 1.328 . S
C114 H120 0.929 . S
C115 C116 1.362 . S
C115 C118 1.378 . S
C115 H130 0.929 . S
C116 C115 1.362 . S
C116 C117 1.366 . S
C117 C114 1.365 1_554 S
C117 C116 1.366 . S
C117 H131 0.930 . S
C118 C115 1.378 . S
C118 N119 1.315 1_554 S
C118 H121 0.930 . S
N119 Co99 2.194 . S
N119 C114 1.328 . S
N119 C118 1.315 1_556 S
H120 C114 0.929 . S
H121 C118 0.930 . S
H122 C110 0.929 . S
H123 C112 0.929 . S
O124 Co99 2.351 . S
O124 C127 1.244 . S
O125 Co99 2.155 . S
O125 C127 1.240 . S
O126 Co99 2.096 . S
O126 C107 1.247 . S
C127 O124 1.244 . S
C127 O125 1.240 . S
H128 C102 0.931 . S
H129 C111 0.931 . S
H130 C115 0.929 . S
H131 C117 0.930 . S
Co132 N136 2.148 1_545 S
Co132 N142 2.128 . S
Co132 N152 2.194 . S
Co132 O157 2.351 1_545 S
Co132 O158 2.155 . S
Co132 O159 2.096 . S
C133 N136 1.301 . S
C133 N137 1.328 1_556 S
C133 H138 0.930 . S
C134 C135 1.328 1_556 S
C134 N136 1.322 . S
C134 H139 0.930 1_565 S
C135 C134 1.328 1_554 S
C135 N137 1.350 . S
C135 H161 0.931 . S
N136 Co132 2.148 1_565 S
N136 C133 1.301 . S
N136 C134 1.322 . S
N137 C133 1.328 1_554 S
N137 C135 1.350 . S
H138 C133 0.930 . S
H139 C134 0.930 1_545 S
C140 O141 1.224 . S
C140 O159 1.247 . S
O141 C140 1.224 . S
N142 Co132 2.128 . S
N142 C143 1.355 . S
N142 C145 1.311 . S
C143 N142 1.355 . S
C143 C144 1.363 . S
C143 H155 0.929 . S
C144 C143 1.363 . S
C144 N146 1.375 . S
C144 H162 0.931 . S
C145 N142 1.311 . S
C145 N146 1.347 . S
C145 H156 0.929 . S
N146 C144 1.375 . S
N146 C145 1.347 . S
C147 C150 1.365 1_556 S
C147 N152 1.328 . S
C147 H153 0.929 . S
C148 C149 1.362 . S
C148 C151 1.378 . S
C148 H163 0.929 . S
C149 C148 1.362 . S
C149 C150 1.366 . S
C150 C147 1.365 1_554 S
C150 C149 1.366 . S
C150 H164 0.930 . S
C151 C148 1.378 . S
C151 N152 1.315 1_554 S
C151 H154 0.930 . S
N152 Co132 2.194 . S
N152 C147 1.328 . S
N152 C151 1.315 1_556 S
H153 C147 0.929 . S
H154 C151 0.930 . S
H155 C143 0.929 . S
H156 C145 0.929 . S
O157 Co132 2.351 1_565 S
O157 C160 1.244 . S
O158 Co132 2.155 . S
O158 C160 1.240 1_545 S
O159 Co132 2.096 . S
O159 C140 1.247 . S
C160 O157 1.244 . S
C160 O158 1.240 1_565 S
H161 C135 0.931 . S
H162 C144 0.931 . S
H163 C148 0.929 . S
H164 C150 0.930 . S
Co165 N169 2.148 1_655 S
Co165 N175 2.128 . S
Co165 N185 2.194 . S
Co165 O190 2.351 1_655 S
Co165 O191 2.155 . S
Co165 O192 2.096 . S
C166 N169 1.301 . S
C166 N170 1.328 1_556 S
C166 H171 0.930 . S
C167 C168 1.328 1_556 S
C167 N169 1.322 . S
C167 H172 0.930 1_455 S
C168 C167 1.328 1_554 S
C168 N170 1.350 . S
C168 H194 0.931 . S
N169 Co165 2.148 1_455 S
N169 C166 1.301 . S
N169 C167 1.322 . S
N170 C166 1.328 1_554 S
N170 C168 1.350 . S
H171 C166 0.930 . S
H172 C167 0.930 1_655 S
C173 O174 1.224 . S
C173 O192 1.247 . S
O174 C173 1.224 . S
N175 Co165 2.128 . S
N175 C176 1.355 . S
N175 C178 1.311 . S
C176 N175 1.355 . S
C176 C177 1.363 . S
C176 H188 0.929 . S
C177 C176 1.363 . S
C177 N179 1.375 . S
C177 H195 0.931 . S
C178 N175 1.311 . S
C178 N179 1.347 . S
C178 H189 0.929 . S
N179 C177 1.375 . S
N179 C178 1.347 . S
C180 C183 1.365 1_556 S
C180 N185 1.328 . S
C180 H186 0.929 . S
C181 C182 1.362 . S
C181 C184 1.378 . S
C181 H196 0.929 . S
C182 C181 1.362 . S
C182 C183 1.366 . S
C183 C180 1.365 1_554 S
C183 C182 1.366 . S
C183 H197 0.930 . S
C184 C181 1.378 . S
C184 N185 1.315 1_554 S
C184 H187 0.930 . S
N185 Co165 2.194 . S
N185 C180 1.328 . S
N185 C184 1.315 1_556 S
H186 C180 0.929 . S
H187 C184 0.930 . S
H188 C176 0.929 . S
H189 C178 0.929 . S
O190 Co165 2.351 1_455 S
O190 C193 1.244 . S
O191 Co165 2.155 . S
O191 C193 1.240 1_655 S
O192 Co165 2.096 . S
O192 C173 1.247 . S
C193 O190 1.244 . S
C193 O191 1.240 1_455 S
H194 C168 0.931 . S
H195 C177 0.931 . S
H196 C181 0.929 . S
H197 C183 0.930 . S
Co198 N202 2.148 . S
Co198 N208 2.128 . S
Co198 N218 2.194 . S
Co198 O223 2.351 . S
Co198 O224 2.155 . S
Co198 O225 2.096 . S
C199 N202 1.301 . S
C199 N203 1.328 . S
C199 H204 0.930 . S
C200 C201 1.333 . S
C200 N202 1.317 . S
C200 H205 0.930 . S
C201 C200 1.333 . S
C201 N203 1.350 . S
C201 H227 0.931 . S
N202 Co198 2.148 . S
N202 C199 1.301 . S
N202 C200 1.317 . S
N203 C199 1.328 . S
N203 C201 1.350 . S
H204 C199 0.930 . S
H205 C200 0.930 . S
C206 O207 1.224 . S
C206 O225 1.247 . S
O207 C206 1.224 . S
N208 Co198 2.128 . S
N208 C209 1.355 . S
N208 C211 1.311 . S
C209 N208 1.355 . S
C209 C210 1.363 . S
C209 H221 0.929 . S
C210 C209 1.363 . S
C210 N212 1.375 . S
C210 H228 0.931 . S
C211 N208 1.311 . S
C211 N212 1.347 . S
C211 H222 0.929 . S
N212 C210 1.375 . S
N212 C211 1.347 . S
C213 C216 1.365 . S
C213 N218 1.328 . S
C213 H219 0.929 . S
C214 C215 1.362 . S
C214 C217 1.378 . S
C214 H229 0.929 . S
C215 C214 1.362 . S
C215 C216 1.366 . S
C216 C213 1.365 . S
C216 C215 1.366 . S
C216 H230 0.930 1_655 S
C217 C214 1.378 . S
C217 N218 1.315 . S
C217 H220 0.930 . S
N218 Co198 2.194 . S
N218 C213 1.328 . S
N218 C217 1.315 . S
H219 C213 0.929 . S
H220 C217 0.930 . S
H221 C209 0.929 . S
H222 C211 0.929 . S
O223 Co198 2.351 . S
O223 C226 1.244 . S
O224 Co198 2.155 . S
O224 C226 1.240 . S
O225 Co198 2.096 . S
O225 C206 1.247 . S
C226 O223 1.244 . S
C226 O224 1.240 . S
H227 C201 0.931 . S
H228 C210 0.931 . S
H229 C214 0.929 . S
H230 C216 0.930 1_455 S
Co231 N235 2.148 . S
Co231 N241 2.128 . S
Co231 N251 2.194 . S
Co231 O256 2.351 . S
Co231 O257 2.155 . S
Co231 O258 2.096 . S
C232 N235 1.301 . S
C232 N236 1.328 . S
C232 H237 0.930 . S
C233 C234 1.333 . S
C233 N235 1.317 . S
C233 H238 0.930 . S
C234 C233 1.333 . S
C234 N236 1.350 . S
C234 H260 0.931 . S
N235 Co231 2.148 . S
N235 C232 1.301 . S
N235 C233 1.317 . S
N236 C232 1.328 . S
N236 C234 1.350 . S
H237 C232 0.930 . S
H238 C233 0.930 . S
C239 O240 1.224 . S
C239 O258 1.247 . S
O240 C239 1.224 . S
N241 Co231 2.128 . S
N241 C242 1.355 . S
N241 C244 1.311 . S
C242 N241 1.355 . S
C242 C243 1.363 . S
C242 H254 0.929 . S
C243 C242 1.363 . S
C243 N245 1.375 . S
C243 H261 0.931 . S
C244 N241 1.311 . S
C244 N245 1.347 . S
C244 H255 0.929 . S
N245 C243 1.375 . S
N245 C244 1.347 . S
C246 C249 1.365 . S
C246 N251 1.328 . S
C246 H252 0.929 . S
C247 C248 1.362 . S
C247 C250 1.378 . S
C247 H262 0.929 . S
C248 C247 1.362 . S
C248 C249 1.366 . S
C249 C246 1.365 . S
C249 C248 1.366 . S
C249 H263 0.930 . S
C250 C247 1.378 . S
C250 N251 1.315 . S
C250 H253 0.930 . S
N251 Co231 2.194 . S
N251 C246 1.328 . S
N251 C250 1.315 . S
H252 C246 0.929 . S
H253 C250 0.930 . S
H254 C242 0.929 . S
H255 C244 0.929 . S
O256 Co231 2.351 . S
O256 C259 1.244 . S
O257 Co231 2.155 . S
O257 C259 1.240 . S
O258 Co231 2.096 . S
O258 C239 1.247 . S
C259 O256 1.244 . S
C259 O257 1.240 . S
H260 C234 0.931 . S
H261 C243 0.931 . S
H262 C247 0.929 . S
H263 C249 0.930 . S
Co264 N268 2.148 . S
Co264 N274 2.128 . S
Co264 N284 2.194 . S
Co264 O289 2.351 . S
Co264 O290 2.155 . S
Co264 O291 2.096 . S
C265 N268 1.301 . S
C265 N269 1.328 . S
C265 H270 0.930 . S
C266 C267 1.333 . S
C266 N268 1.317 . S
C266 H271 0.930 . S
C267 C266 1.333 . S
C267 N269 1.350 . S
C267 H293 0.931 . S
N268 Co264 2.148 . S
N268 C265 1.301 . S
N268 C266 1.317 . S
N269 C265 1.328 . S
N269 C267 1.350 . S
H270 C265 0.930 . S
H271 C266 0.930 . S
C272 O273 1.224 . S
C272 O291 1.247 . S
O273 C272 1.224 . S
N274 Co264 2.128 . S
N274 C275 1.355 . S
N274 C277 1.311 . S
C275 N274 1.355 . S
C275 C276 1.363 . S
C275 H287 0.929 . S
C276 C275 1.363 . S
C276 N278 1.375 . S
C276 H294 0.931 . S
C277 N274 1.311 . S
C277 N278 1.347 . S
C277 H288 0.929 . S
N278 C276 1.375 . S
N278 C277 1.347 . S
C279 C282 1.365 . S
C279 N284 1.328 . S
C279 H285 0.929 . S
C280 C281 1.362 . S
C280 C283 1.378 . S
C280 H295 0.929 . S
C281 C280 1.362 . S
C281 C282 1.366 . S
C282 C279 1.365 . S
C282 C281 1.366 . S
C282 H296 0.930 1_545 S
C283 C280 1.378 . S
C283 N284 1.315 . S
C283 H286 0.930 . S
N284 Co264 2.194 . S
N284 C279 1.328 . S
N284 C283 1.315 . S
H285 C279 0.929 . S
H286 C283 0.930 . S
H287 C275 0.929 . S
H288 C277 0.929 . S
O289 Co264 2.351 . S
O289 C292 1.244 . S
O290 Co264 2.155 . S
O290 C292 1.240 . S
O291 Co264 2.096 . S
O291 C272 1.247 . S
C292 O289 1.244 . S
C292 O290 1.240 . S
H293 C267 0.931 . S
H294 C276 0.931 . S
H295 C280 0.929 . S
H296 C282 0.930 1_565 S
Co297 N301 2.148 . S
Co297 N307 2.128 . S
Co297 N317 2.194 . S
Co297 O322 2.351 . S
Co297 O323 2.155 . S
Co297 O324 2.096 . S
C298 N301 1.301 . S
C298 N302 1.328 . S
C298 H303 0.930 . S
C299 C300 1.333 . S
C299 N301 1.317 . S
C299 H304 0.930 . S
C300 C299 1.333 . S
C300 N302 1.350 . S
C300 H326 0.931 . S
N301 Co297 2.148 . S
N301 C298 1.301 . S
N301 C299 1.317 . S
N302 C298 1.328 . S
N302 C300 1.350 . S
H303 C298 0.930 . S
H304 C299 0.930 . S
C305 O306 1.224 . S
C305 O324 1.247 . S
O306 C305 1.224 . S
N307 Co297 2.128 . S
N307 C308 1.355 1_545 S
N307 C310 1.311 . S
C308 N307 1.355 1_565 S
C308 C309 1.363 . S
C308 H320 0.929 . S
C309 C308 1.363 . S
C309 N311 1.375 . S
C309 H327 0.931 . S
C310 N307 1.311 . S
C310 N311 1.347 1_545 S
C310 H321 0.929 . S
N311 C309 1.375 . S
N311 C310 1.347 1_565 S
C312 C315 1.365 1_545 S
C312 N317 1.328 . S
C312 H318 0.929 . S
C313 C314 1.362 . S
C313 C316 1.378 1_565 S
C313 H328 0.929 . S
C314 C313 1.362 . S
C314 C315 1.366 . S
C315 C312 1.365 1_565 S
C315 C314 1.366 . S
C315 H329 0.930 . S
C316 C313 1.378 1_545 S
C316 N317 1.315 . S
C316 H319 0.930 . S
N317 Co297 2.194 . S
N317 C312 1.328 . S
N317 C316 1.315 . S
H318 C312 0.929 . S
H319 C316 0.930 . S
H320 C308 0.929 . S
H321 C310 0.929 . S
O322 Co297 2.351 . S
O322 C325 1.244 . S
O323 Co297 2.155 . S
O323 C325 1.240 . S
O324 Co297 2.096 . S
O324 C305 1.247 . S
C325 O322 1.244 . S
C325 O323 1.240 . S
H326 C300 0.931 . S
H327 C309 0.931 . S
H328 C313 0.929 . S
H329 C315 0.930 . S
Co330 N334 2.148 . S
Co330 N340 2.128 . S
Co330 N350 2.194 . S
Co330 O355 2.351 . S
Co330 O356 2.155 . S
Co330 O357 2.096 . S
C331 N334 1.301 . S
C331 N335 1.328 . S
C331 H336 0.930 . S
C332 C333 1.333 . S
C332 N334 1.317 . S
C332 H337 0.930 . S
C333 C332 1.333 . S
C333 N335 1.350 . S
C333 H359 0.931 . S
N334 Co330 2.148 . S
N334 C331 1.301 . S
N334 C332 1.317 . S
N335 C331 1.328 . S
N335 C333 1.350 . S
H336 C331 0.930 . S
H337 C332 0.930 . S
C338 O339 1.224 . S
C338 O357 1.247 . S
O339 C338 1.224 . S
N340 Co330 2.128 . S
N340 C341 1.355 1_655 S
N340 C343 1.311 . S
C341 N340 1.355 1_455 S
C341 C342 1.363 . S
C341 H353 0.929 . S
C342 C341 1.363 . S
C342 N344 1.375 . S
C342 H360 0.931 . S
C343 N340 1.311 . S
C343 N344 1.347 1_655 S
C343 H354 0.929 . S
N344 C342 1.375 . S
N344 C343 1.347 1_455 S
C345 C348 1.365 1_655 S
C345 N350 1.328 . S
C345 H351 0.929 . S
C346 C347 1.362 . S
C346 C349 1.378 1_455 S
C346 H361 0.929 . S
C347 C346 1.362 . S
C347 C348 1.366 . S
C348 C345 1.365 1_455 S
C348 C347 1.366 . S
C348 H362 0.930 . S
C349 C346 1.378 1_655 S
C349 N350 1.315 . S
C349 H352 0.930 . S
N350 Co330 2.194 . S
N350 C345 1.328 . S
N350 C349 1.315 . S
H351 C345 0.929 . S
H352 C349 0.930 . S
H353 C341 0.929 . S
H354 C343 0.929 . S
O355 Co330 2.351 . S
O355 C358 1.244 . S
O356 Co330 2.155 . S
O356 C358 1.240 . S
O357 Co330 2.096 . S
O357 C338 1.247 . S
C358 O355 1.244 . S
C358 O356 1.240 . S
H359 C333 0.931 . S
H360 C342 0.931 . S
H361 C346 0.929 . S
H362 C348 0.930 . S
Co363 N367 2.148 . S
Co363 N373 2.128 . S
Co363 N383 2.194 . S
Co363 O388 2.351 . S
Co363 O389 2.155 . S
Co363 O390 2.096 . S
C364 N367 1.301 . S
C364 N368 1.328 . S
C364 H369 0.930 . S
C365 C366 1.333 . S
C365 N367 1.317 . S
C365 H370 0.930 . S
C366 C365 1.333 . S
C366 N368 1.350 . S
C366 H392 0.931 . S
N367 Co363 2.148 . S
N367 C364 1.301 . S
N367 C365 1.317 . S
N368 C364 1.328 . S
N368 C366 1.350 . S
H369 C364 0.930 . S
H370 C365 0.930 . S
C371 O372 1.224 . S
C371 O390 1.247 . S
O372 C371 1.224 . S
N373 Co363 2.128 . S
N373 C374 1.355 . S
N373 C376 1.311 . S
C374 N373 1.355 . S
C374 C375 1.363 . S
C374 H386 0.929 . S
C375 C374 1.363 . S
C375 N377 1.375 . S
C375 H393 0.931 . S
C376 N373 1.311 . S
C376 N377 1.347 . S
C376 H387 0.929 . S
N377 C375 1.375 . S
N377 C376 1.347 . S
C378 C381 1.365 . S
C378 N383 1.328 . S
C378 H384 0.929 . S
C379 C380 1.362 . S
C379 C382 1.378 . S
C379 H394 0.929 . S
C380 C379 1.362 . S
C380 C381 1.366 . S
C381 C378 1.365 . S
C381 C380 1.366 . S
C381 H395 0.930 . S
C382 C379 1.378 . S
C382 N383 1.315 . S
C382 H385 0.930 . S
N383 Co363 2.194 . S
N383 C378 1.328 . S
N383 C382 1.315 . S
H384 C378 0.929 . S
H385 C382 0.930 . S
H386 C374 0.929 . S
H387 C376 0.929 . S
O388 Co363 2.351 . S
O388 C391 1.244 . S
O389 Co363 2.155 . S
O389 C391 1.240 . S
O390 Co363 2.096 . S
O390 C371 1.247 . S
C391 O388 1.244 . S
C391 O389 1.240 . S
H392 C366 0.931 . S
H393 C375 0.931 . S
H394 C379 0.929 . S
H395 C381 0.930 . S
Co396 N400 2.148 . S
Co396 N406 2.128 . S
Co396 N416 2.194 . S
Co396 O421 2.351 . S
Co396 O422 2.155 . S
Co396 O423 2.096 . S
C397 N400 1.301 . S
C397 N401 1.328 . S
C397 H402 0.930 . S
C398 C399 1.333 . S
C398 N400 1.317 . S
C398 H403 0.930 . S
C399 C398 1.333 . S
C399 N401 1.350 . S
C399 H425 0.931 . S
N400 Co396 2.148 . S
N400 C397 1.301 . S
N400 C398 1.317 . S
N401 C397 1.328 . S
N401 C399 1.350 . S
H402 C397 0.930 . S
H403 C398 0.930 . S
C404 O405 1.224 . S
C404 O423 1.247 . S
O405 C404 1.224 . S
N406 Co396 2.128 . S
N406 C407 1.355 1_565 S
N406 C409 1.311 . S
C407 N406 1.355 1_545 S
C407 C408 1.363 . S
C407 H419 0.929 . S
C408 C407 1.363 . S
C408 N410 1.375 . S
C408 H426 0.931 . S
C409 N406 1.311 . S
C409 N410 1.347 1_565 S
C409 H420 0.929 . S
N410 C408 1.375 . S
N410 C409 1.347 1_545 S
C411 C414 1.365 1_565 S
C411 N416 1.328 . S
C411 H417 0.929 . S
C412 C413 1.362 . S
C412 C415 1.378 1_545 S
C412 H427 0.929 . S
C413 C412 1.362 . S
C413 C414 1.366 . S
C414 C411 1.365 1_545 S
C414 C413 1.366 . S
C414 H428 0.930 . S
C415 C412 1.378 1_565 S
C415 N416 1.315 . S
C415 H418 0.930 . S
N416 Co396 2.194 . S
N416 C411 1.328 . S
N416 C415 1.315 . S
H417 C411 0.929 . S
H418 C415 0.930 . S
H419 C407 0.929 . S
H420 C409 0.929 . S
O421 Co396 2.351 . S
O421 C424 1.244 . S
O422 Co396 2.155 . S
O422 C424 1.240 . S
O423 Co396 2.096 . S
O423 C404 1.247 . S
C424 O421 1.244 . S
C424 O422 1.240 . S
H425 C399 0.931 . S
H426 C408 0.931 . S
H427 C412 0.929 . S
H428 C414 0.930 . S
Co429 N433 2.148 . S
Co429 N439 2.128 . S
Co429 N449 2.194 . S
Co429 O454 2.351 . S
Co429 O455 2.155 . S
Co429 O456 2.096 . S
C430 N433 1.301 . S
C430 N434 1.328 . S
C430 H435 0.930 . S
C431 C432 1.333 . S
C431 N433 1.317 . S
C431 H436 0.930 . S
C432 C431 1.333 . S
C432 N434 1.350 . S
C432 H458 0.931 . S
N433 Co429 2.148 . S
N433 C430 1.301 . S
N433 C431 1.317 . S
N434 C430 1.328 . S
N434 C432 1.350 . S
H435 C430 0.930 . S
H436 C431 0.930 . S
C437 O438 1.224 . S
C437 O456 1.247 . S
O438 C437 1.224 . S
N439 Co429 2.128 . S
N439 C440 1.355 1_455 S
N439 C442 1.311 . S
C440 N439 1.355 1_655 S
C440 C441 1.363 . S
C440 H452 0.929 . S
C441 C440 1.363 . S
C441 N443 1.375 . S
C441 H459 0.931 . S
C442 N439 1.311 . S
C442 N443 1.347 1_455 S
C442 H453 0.929 . S
N443 C441 1.375 . S
N443 C442 1.347 1_655 S
C444 C447 1.365 1_455 S
C444 N449 1.328 . S
C444 H450 0.929 . S
C445 C446 1.362 . S
C445 C448 1.378 1_655 S
C445 H460 0.929 . S
C446 C445 1.362 . S
C446 C447 1.366 . S
C447 C444 1.365 1_655 S
C447 C446 1.366 . S
C447 H461 0.930 . S
C448 C445 1.378 1_455 S
C448 N449 1.315 . S
C448 H451 0.930 . S
N449 Co429 2.194 . S
N449 C444 1.328 . S
N449 C448 1.315 . S
H450 C444 0.929 . S
H451 C448 0.930 . S
H452 C440 0.929 . S
H453 C442 0.929 . S
O454 Co429 2.351 . S
O454 C457 1.244 . S
O455 Co429 2.155 . S
O455 C457 1.240 . S
O456 Co429 2.096 . S
O456 C437 1.247 . S
C457 O454 1.244 . S
C457 O455 1.240 . S
H458 C432 0.931 . S
H459 C441 0.931 . S
H460 C445 0.929 . S
H461 C447 0.930 . S
Co462 N466 2.148 . S
Co462 N472 2.128 . S
Co462 N482 2.194 . S
Co462 O487 2.351 . S
Co462 O488 2.155 . S
Co462 O489 2.096 . S
C463 N466 1.301 . S
C463 N467 1.328 . S
C463 H468 0.930 . S
C464 C465 1.333 . S
C464 N466 1.317 . S
C464 H469 0.930 . S
C465 C464 1.333 . S
C465 N467 1.350 . S
C465 H491 0.931 . S
N466 Co462 2.148 . S
N466 C463 1.301 . S
N466 C464 1.317 . S
N467 C463 1.328 . S
N467 C465 1.350 . S
H468 C463 0.930 . S
H469 C464 0.930 . S
C470 O471 1.224 . S
C470 O489 1.247 . S
O471 C470 1.224 . S
N472 Co462 2.128 . S
N472 C473 1.355 . S
N472 C475 1.311 . S
C473 N472 1.355 . S
C473 C474 1.363 . S
C473 H485 0.929 . S
C474 C473 1.363 . S
C474 N476 1.375 . S
C474 H492 0.931 . S
C475 N472 1.311 . S
C475 N476 1.347 . S
C475 H486 0.929 . S
N476 C474 1.375 . S
N476 C475 1.347 . S
C477 C480 1.365 . S
C477 N482 1.328 . S
C477 H483 0.929 . S
C478 C479 1.362 . S
C478 C481 1.378 . S
C478 H493 0.929 . S
C479 C478 1.362 . S
C479 C480 1.366 . S
C480 C477 1.365 . S
C480 C479 1.366 . S
C480 H494 0.930 . S
C481 C478 1.378 . S
C481 N482 1.315 . S
C481 H484 0.930 . S
N482 Co462 2.194 . S
N482 C477 1.328 . S
N482 C481 1.315 . S
H483 C477 0.929 . S
H484 C481 0.930 . S
H485 C473 0.929 . S
H486 C475 0.929 . S
O487 Co462 2.351 . S
O487 C490 1.244 . S
O488 Co462 2.155 . S
O488 C490 1.240 . S
O489 Co462 2.096 . S
O489 C470 1.247 . S
C490 O487 1.244 . S
C490 O488 1.240 . S
H491 C465 0.931 . S
H492 C474 0.931 . S
H493 C478 0.929 . S
H494 C480 0.930 . S
Co495 N499 2.148 . S
Co495 N505 2.128 . S
Co495 N515 2.194 . S
Co495 O520 2.351 . S
Co495 O521 2.155 . S
Co495 O522 2.096 . S
C496 N499 1.301 . S
C496 N500 1.328 . S
C496 H501 0.930 . S
C497 C498 1.333 . S
C497 N499 1.317 . S
C497 H502 0.930 . S
C498 C497 1.333 . S
C498 N500 1.350 . S
C498 H524 0.931 . S
N499 Co495 2.148 . S
N499 C496 1.301 . S
N499 C497 1.317 . S
N500 C496 1.328 . S
N500 C498 1.350 . S
H501 C496 0.930 . S
H502 C497 0.930 . S
C503 O504 1.224 . S
C503 O522 1.247 . S
O504 C503 1.224 . S
N505 Co495 2.128 . S
N505 C506 1.355 . S
N505 C508 1.311 . S
C506 N505 1.355 . S
C506 C507 1.363 . S
C506 H518 0.929 . S
C507 C506 1.363 . S
C507 N509 1.375 . S
C507 H525 0.931 . S
C508 N505 1.311 . S
C508 N509 1.347 . S
C508 H519 0.929 . S
N509 C507 1.375 . S
N509 C508 1.347 . S
C510 C513 1.365 . S
C510 N515 1.328 . S
C510 H516 0.929 . S
C511 C512 1.362 . S
C511 C514 1.378 . S
C511 H526 0.929 . S
C512 C511 1.362 . S
C512 C513 1.366 . S
C513 C510 1.365 . S
C513 C512 1.366 . S
C513 H527 0.930 1_455 S
C514 C511 1.378 . S
C514 N515 1.315 . S
C514 H517 0.930 . S
N515 Co495 2.194 . S
N515 C510 1.328 . S
N515 C514 1.315 . S
H516 C510 0.929 . S
H517 C514 0.930 . S
H518 C506 0.929 . S
H519 C508 0.929 . S
O520 Co495 2.351 . S
O520 C523 1.244 . S
O521 Co495 2.155 . S
O521 C523 1.240 . S
O522 Co495 2.096 . S
O522 C503 1.247 . S
C523 O520 1.244 . S
C523 O521 1.240 . S
H524 C498 0.931 . S
H525 C507 0.931 . S
H526 C511 0.929 . S
H527 C513 0.930 1_655 S
Co528 N532 2.148 . S
Co528 N538 2.128 . S
Co528 N548 2.194 . S
Co528 O553 2.351 . S
Co528 O554 2.155 . S
Co528 O555 2.096 . S
C529 N532 1.301 . S
C529 N533 1.328 . S
C529 H534 0.930 . S
C530 C531 1.333 . S
C530 N532 1.317 . S
C530 H535 0.930 . S
C531 C530 1.333 . S
C531 N533 1.350 . S
C531 H557 0.931 . S
N532 Co528 2.148 . S
N532 C529 1.301 . S
N532 C530 1.317 . S
N533 C529 1.328 . S
N533 C531 1.350 . S
H534 C529 0.930 . S
H535 C530 0.930 . S
C536 O537 1.224 . S
C536 O555 1.247 . S
O537 C536 1.224 . S
N538 Co528 2.128 . S
N538 C539 1.355 . S
N538 C541 1.311 . S
C539 N538 1.355 . S
C539 C540 1.363 . S
C539 H551 0.929 . S
C540 C539 1.363 . S
C540 N542 1.375 . S
C540 H558 0.931 . S
C541 N538 1.311 . S
C541 N542 1.347 . S
C541 H552 0.929 . S
N542 C540 1.375 . S
N542 C541 1.347 . S
C543 C546 1.365 . S
C543 N548 1.328 . S
C543 H549 0.929 . S
C544 C545 1.362 . S
C544 C547 1.378 . S
C544 H559 0.929 . S
C545 C544 1.362 . S
C545 C546 1.366 . S
C546 C543 1.365 . S
C546 C545 1.366 . S
C546 H560 0.930 . S
C547 C544 1.378 . S
C547 N548 1.315 . S
C547 H550 0.930 . S
N548 Co528 2.194 . S
N548 C543 1.328 . S
N548 C547 1.315 . S
H549 C543 0.929 . S
H550 C547 0.930 . S
H551 C539 0.929 . S
H552 C541 0.929 . S
O553 Co528 2.351 . S
O553 C556 1.244 . S
O554 Co528 2.155 . S
O554 C556 1.240 . S
O555 Co528 2.096 . S
O555 C536 1.247 . S
C556 O553 1.244 . S
C556 O554 1.240 . S
H557 C531 0.931 . S
H558 C540 0.931 . S
H559 C544 0.929 . S
H560 C546 0.930 . S
Co561 N565 2.148 . S
Co561 N571 2.128 . S
Co561 N581 2.194 . S
Co561 O586 2.351 . S
Co561 O587 2.155 . S
Co561 O588 2.096 . S
C562 N565 1.301 . S
C562 N566 1.328 . S
C562 H567 0.930 . S
C563 C564 1.333 . S
C563 N565 1.317 . S
C563 H568 0.930 . S
C564 C563 1.333 . S
C564 N566 1.350 . S
C564 H590 0.931 . S
N565 Co561 2.148 . S
N565 C562 1.301 . S
N565 C563 1.317 . S
N566 C562 1.328 . S
N566 C564 1.350 . S
H567 C562 0.930 . S
H568 C563 0.930 . S
C569 O570 1.224 . S
C569 O588 1.247 . S
O570 C569 1.224 . S
N571 Co561 2.128 . S
N571 C572 1.355 . S
N571 C574 1.311 . S
C572 N571 1.355 . S
C572 C573 1.363 . S
C572 H584 0.929 . S
C573 C572 1.363 . S
C573 N575 1.375 . S
C573 H591 0.931 . S
C574 N571 1.311 . S
C574 N575 1.347 . S
C574 H585 0.929 . S
N575 C573 1.375 . S
N575 C574 1.347 . S
C576 C579 1.365 . S
C576 N581 1.328 . S
C576 H582 0.929 . S
C577 C578 1.362 . S
C577 C580 1.378 . S
C577 H592 0.929 . S
C578 C577 1.362 . S
C578 C579 1.366 . S
C579 C576 1.365 . S
C579 C578 1.366 . S
C579 H593 0.930 1_565 S
C580 C577 1.378 . S
C580 N581 1.315 . S
C580 H583 0.930 . S
N581 Co561 2.194 . S
N581 C576 1.328 . S
N581 C580 1.315 . S
H582 C576 0.929 . S
H583 C580 0.930 . S
H584 C572 0.929 . S
H585 C574 0.929 . S
O586 Co561 2.351 . S
O586 C589 1.244 . S
O587 Co561 2.155 . S
O587 C589 1.240 . S
O588 Co561 2.096 . S
O588 C569 1.247 . S
C589 O586 1.244 . S
C589 O587 1.240 . S
H590 C564 0.931 . S
H591 C573 0.931 . S
H592 C577 0.929 . S
H593 C579 0.930 1_545 S
C28 C248 1.766 . S
C61 C281 1.766 . S
C94 C215 1.766 . S
C545 C127 1.766 . S
C160 C578 1.766 . S
C193 C512 1.766 . S
C226 C446 1.766 . S
C479 C259 1.766 . S
C413 C292 1.766 . S
C325 C149 1.766 . S
C358 C182 1.766 . S
C391 C116 1.766 . S
C424 C50 1.766 . S
C457 C83 1.766 . S
C17 C490 1.766 . S
C347 C523 1.766 . S
C556 C380 1.766 . S
C589 C314 1.766 . S
N509 N14 2.265 . S
N542 N47 2.265 . S
N80 N575 2.265 . S
N113 N212 2.265 . S
N146 N245 2.265 . S
N278 N179 2.265 . S
N311 N410 2.265 1_564 S
N443 N344 2.265 1_656 S
N476 N377 2.265 1_556 S
N5 C140 1.664 . S
C173 N38 1.665 . S
N71 C107 1.665 . S
C41 N104 1.664 . S
N137 C74 1.665 . S
C8 N170 1.665 . S
N203 C338 1.664 . S
C371 N236 1.665 . S
C305 N269 1.664 . S
N302 C239 1.664 . S
C272 N335 1.665 . S
N368 C206 1.664 . S
C536 N401 1.664 . S
C569 N434 1.665 . S
C503 N467 1.664 . S
C437 N500 1.664 . S
C470 N533 1.665 . S
N566 C404 1.664 . S
