# Generated by pormake.
# Topology ecs, (8)-cn, num edge types: 1
# Building blocks:
#     Node 0, Type 0, BuildingBlock: TAGTUT_clean_sbu_3, # of connection points: 8
#     Node 1, Type 0, BuildingBlock: TAGTUT_clean_sbu_3, # of connection points: 8
#     Node 2, Type 0, BuildingBlock: TAGTUT_clean_sbu_3, # of connection points: 8
#     Node 3, Type 0, BuildingBlock: TAGTUT_clean_sbu_3, # of connection points: 8
#     Node 4, Type 0, BuildingBlock: TAGTUT_clean_sbu_3, # of connection points: 8
#     Node 5, Type 0, BuildingBlock: TAGTUT_clean_sbu_3, # of connection points: 8
#     Node 6, Type 0, BuildingBlock: TAGTUT_clean_sbu_3, # of connection points: 8
#     Node 7, Type 0, BuildingBlock: TAGTUT_clean_sbu_3, # of connection points: 8
#     Node 8, Type 0, BuildingBlock: TAGTUT_clean_sbu_3, # of connection points: 8
#     Node 9, Type 0, BuildingBlock: TAGTUT_clean_sbu_3, # of connection points: 8
#     Node 10, Type 0, BuildingBlock: TAGTUT_clean_sbu_3, # of connection points: 8
#     Node 11, Type 0, BuildingBlock: TAGTUT_clean_sbu_3, # of connection points: 8
#     Edge 12, Type (0, 0), BuildingBlock: CIFDUS_clean_linker_0, # of connection points: 2
#     Edge 13, Type (0, 0), BuildingBlock: CIFDUS_clean_linker_0, # of connection points: 2
#     Edge 14, Type (0, 0), BuildingBlock: CIFDUS_clean_linker_0, # of connection points: 2
#     Edge 15, Type (0, 0), BuildingBlock: CIFDUS_clean_linker_0, # of connection points: 2
#     Edge 16, Type (0, 0), BuildingBlock: CIFDUS_clean_linker_0, # of connection points: 2
#     Edge 17, Type (0, 0), BuildingBlock: CIFDUS_clean_linker_0, # of connection points: 2
#     Edge 18, Type (0, 0), BuildingBlock: CIFDUS_clean_linker_0, # of connection points: 2
#     Edge 19, Type (0, 0), BuildingBlock: CIFDUS_clean_linker_0, # of connection points: 2
#     Edge 20, Type (0, 0), BuildingBlock: CIFDUS_clean_linker_0, # of connection points: 2
#     Edge 21, Type (0, 0), BuildingBlock: CIFDUS_clean_linker_0, # of connection points: 2
#     Edge 22, Type (0, 0), BuildingBlock: CIFDUS_clean_linker_0, # of connection points: 2
#     Edge 23, Type (0, 0), BuildingBlock: CIFDUS_clean_linker_0, # of connection points: 2
#     Edge 24, Type (0, 0), BuildingBlock: CIFDUS_clean_linker_0, # of connection points: 2
#     Edge 25, Type (0, 0), BuildingBlock: CIFDUS_clean_linker_0, # of connection points: 2
#     Edge 26, Type (0, 0), BuildingBlock: CIFDUS_clean_linker_0, # of connection points: 2
#     Edge 27, Type (0, 0), BuildingBlock: CIFDUS_clean_linker_0, # of connection points: 2
#     Edge 28, Type (0, 0), BuildingBlock: CIFDUS_clean_linker_0, # of connection points: 2
#     Edge 29, Type (0, 0), BuildingBlock: CIFDUS_clean_linker_0, # of connection points: 2
#     Edge 30, Type (0, 0), BuildingBlock: CIFDUS_clean_linker_0, # of connection points: 2
#     Edge 31, Type (0, 0), BuildingBlock: CIFDUS_clean_linker_0, # of connection points: 2
#     Edge 32, Type (0, 0), BuildingBlock: CIFDUS_clean_linker_0, # of connection points: 2
#     Edge 33, Type (0, 0), BuildingBlock: CIFDUS_clean_linker_0, # of connection points: 2
#     Edge 34, Type (0, 0), BuildingBlock: CIFDUS_clean_linker_0, # of connection points: 2
#     Edge 35, Type (0, 0), BuildingBlock: CIFDUS_clean_linker_0, # of connection points: 2
#     Edge 36, Type (0, 0), BuildingBlock: CIFDUS_clean_linker_0, # of connection points: 2
#     Edge 37, Type (0, 0), BuildingBlock: CIFDUS_clean_linker_0, # of connection points: 2
#     Edge 38, Type (0, 0), BuildingBlock: CIFDUS_clean_linker_0, # of connection points: 2
#     Edge 39, Type (0, 0), BuildingBlock: CIFDUS_clean_linker_0, # of connection points: 2
#     Edge 40, Type (0, 0), BuildingBlock: CIFDUS_clean_linker_0, # of connection points: 2
#     Edge 41, Type (0, 0), BuildingBlock: CIFDUS_clean_linker_0, # of connection points: 2
#     Edge 42, Type (0, 0), BuildingBlock: CIFDUS_clean_linker_0, # of connection points: 2
#     Edge 43, Type (0, 0), BuildingBlock: CIFDUS_clean_linker_0, # of connection points: 2
#     Edge 44, Type (0, 0), BuildingBlock: CIFDUS_clean_linker_0, # of connection points: 2
#     Edge 45, Type (0, 0), BuildingBlock: CIFDUS_clean_linker_0, # of connection points: 2
#     Edge 46, Type (0, 0), BuildingBlock: CIFDUS_clean_linker_0, # of connection points: 2
#     Edge 47, Type (0, 0), BuildingBlock: CIFDUS_clean_linker_0, # of connection points: 2
#     Edge 48, Type (0, 0), BuildingBlock: CIFDUS_clean_linker_0, # of connection points: 2
#     Edge 49, Type (0, 0), BuildingBlock: CIFDUS_clean_linker_0, # of connection points: 2
#     Edge 50, Type (0, 0), BuildingBlock: CIFDUS_clean_linker_0, # of connection points: 2
#     Edge 51, Type (0, 0), BuildingBlock: CIFDUS_clean_linker_0, # of connection points: 2
#     Edge 52, Type (0, 0), BuildingBlock: CIFDUS_clean_linker_0, # of connection points: 2
#     Edge 53, Type (0, 0), BuildingBlock: CIFDUS_clean_linker_0, # of connection points: 2
#     Edge 54, Type (0, 0), BuildingBlock: CIFDUS_clean_linker_0, # of connection points: 2
#     Edge 55, Type (0, 0), BuildingBlock: CIFDUS_clean_linker_0, # of connection points: 2
#     Edge 56, Type (0, 0), BuildingBlock: CIFDUS_clean_linker_0, # of connection points: 2
#     Edge 57, Type (0, 0), BuildingBlock: CIFDUS_clean_linker_0, # of connection points: 2
#     Edge 58, Type (0, 0), BuildingBlock: CIFDUS_clean_linker_0, # of connection points: 2
#     Edge 59, Type (0, 0), BuildingBlock: CIFDUS_clean_linker_0, # of connection points: 2
# Relax obj value: 0.345
# Max RMSD: 0.277
# Mean RMSD: 0.277
data_MOF--net-ecs--node1-TAGTUT_clean_sbu_3--edge1-CIFDUS_clean_linker_0
_symmetry_space_group_name_H-M    P1
_symmetry_Int_Tables_number       1
_symmetry_cell_setting            triclinic
loop_
_symmetry_equiv_pos_as_xyz
'x, y, z'
_cell_length_a     46.215395
_cell_length_b     46.077426
_cell_length_c     24.513092
_cell_angle_alpha  89.811512
_cell_angle_beta   90.034557
_cell_angle_gamma 120.0125
loop_
_atom_site_label
_atom_site_type_symbol
_atom_site_fract_x
_atom_site_fract_y
_atom_site_fract_z
_atom_type_partial_charge
C0 C 0.43765 0.28033 0.0776 0.0
C1 C 0.47561 0.39706 0.9762 0.0
C2 C 0.46418 0.42692 0.12349 0.0
Mg3 Mg 0.44325 0.26818 0.20235 0.0
Mg4 Mg 0.50085 0.32191 0.28656 0.0
O5 O 0.46841 0.31445 0.23422 0.0
Mg6 Mg 0.47761 0.33985 0.16393 0.0
O7 O 0.48208 0.36121 0.08994 0.0
Mg8 Mg 0.43303 0.34848 0.07903 0.0
Mg9 Mg 0.51021 0.40721 0.09156 0.0
C10 C 0.51825 0.3966 0.25802 0.0
O11 O 0.53301 0.35387 0.15826 0.0
O12 O 0.43138 0.24864 0.28925 0.0
O13 O 0.55321 0.40539 0.12149 0.0
O14 O 0.49106 0.26282 0.20141 0.0
O15 O 0.46716 0.28744 0.34772 0.0
O16 O 0.53048 0.30222 0.25431 0.0
O17 O 0.42472 0.32979 0.16795 0.0
O18 O 0.39871 0.27838 0.20396 0.0
C19 C 0.3984 0.3047 0.18739 0.0
C20 C 0.44129 0.25887 0.33782 0.0
O21 O 0.49957 0.38793 0.21546 0.0
O22 O 0.44905 0.37042 0.99199 0.0
O23 O 0.52303 0.3761 0.28711 0.0
O24 O 0.44074 0.40114 0.10018 0.0
O25 O 0.50048 0.41478 0.0078 0.0
O26 O 0.48677 0.42395 0.14739 0.0
O27 O 0.45717 0.29174 0.11846 0.0
O28 O 0.426 0.29738 0.05483 0.0
C29 C 0.52067 0.2777 0.22148 0.0
C30 C 0.55754 0.38268 0.14428 0.0
C31 C 0.70234 0.14623 0.07864 0.0
C32 C 0.59107 0.07317 0.97262 0.0
C33 C 0.55196 0.03551 0.12114 0.0
Mg34 Mg 0.71258 0.16773 0.20376 0.0
Mg35 Mg 0.66063 0.18377 0.27111 0.0
O36 O 0.66588 0.15199 0.23152 0.0
Mg37 Mg 0.64178 0.13367 0.16069 0.0
O38 O 0.62196 0.11454 0.08726 0.0
Mg39 Mg 0.63195 0.07575 0.08467 0.0
Mg40 Mg 0.57677 0.10016 0.08151 0.0
C41 C 0.58477 0.12829 0.24643 0.0
O42 O 0.6309 0.17733 0.14325 0.0
O43 O 0.72974 0.17941 0.29285 0.0
O44 O 0.58142 0.14787 0.09971 0.0
O45 O 0.72379 0.22152 0.19042 0.0
O46 O 0.69264 0.18782 0.33926 0.0
O47 O 0.68393 0.22963 0.22546 0.0
O48 O 0.64765 0.08777 0.17506 0.0
O49 O 0.69767 0.11233 0.21533 0.0
C50 C 0.67134 0.08596 0.19888 0.0
C51 C 0.7193 0.18567 0.33729 0.0
O52 O 0.59252 0.11339 0.20974 0.0
O53 O 0.61479 0.0704 0.99477 0.0
O54 O 0.60633 0.15528 0.2706 0.0
O55 O 0.57733 0.0339 0.10463 0.0
O56 O 0.57274 0.08194 -0.00087 0.0
O57 O 0.55704 0.06257 0.14229 0.0
O58 O 0.6915 0.15678 0.11722 0.0
O59 O 0.68466 0.11647 0.0603 0.0
C60 C 0.71062 0.23985 0.1978 0.0
C61 C 0.60435 0.17496 0.12146 0.0
C62 C 0.90084 0.58832 0.20576 0.0
C63 C 0.81332 0.52576 0.37054 0.0
C64 C 0.74853 0.47426 0.23634 0.0
Mg65 Mg 0.89907 0.5606 0.0832 0.0
Mg66 Mg 0.87429 0.48204 0.07305 0.0
O67 O 0.86102 0.51245 0.09064 0.0
Mg68 Mg 0.84987 0.51154 0.17032 0.0
O69 O 0.83907 0.51488 0.24837 0.0
Mg70 Mg 0.82192 0.54695 0.2379 0.0
Mg71 Mg 0.80926 0.47437 0.28336 0.0
C72 C 0.80527 0.43351 0.13005 0.0
O73 O 0.87626 0.48366 0.20462 0.0
O74 O 0.89708 0.55034 0.98959 0.0
O75 O 0.83935 0.45068 0.2693 0.0
O76 O 0.94107 0.54656 0.08455 0.0
O77 O 0.88546 0.49653 0.98916 0.0
O78 O 0.91797 0.49545 0.11826 0.0
O79 O 0.82319 0.53914 0.14497 0.0
O80 O 0.85637 0.57223 0.07878 0.0
C81 C 0.82945 0.56057 0.10699 0.0
C82 C 0.89282 0.52397 0.96458 0.0
O83 O 0.8051 0.45734 0.15729 0.0
O84 O 0.81844 0.5472 0.33255 0.0
O85 O 0.82974 0.43843 0.0993 0.0
O86 O 0.76752 0.50597 0.23484 0.0
O87 O 0.80965 0.49678 0.36052 0.0
O88 O 0.75982 0.455 0.24944 0.0
O89 O 0.89555 0.56303 0.17711 0.0
O90 O 0.87787 0.58761 0.23607 0.0
C91 C 0.9434 0.52123 0.09968 0.0
C92 C 0.86592 0.46006 0.2406 0.0
C93 C 0.27258 0.42315 0.4098 0.0
C94 C 0.38258 0.47524 0.52394 0.0
C95 C 0.43059 0.48578 0.3794 0.0
Mg96 Mg 0.26115 0.43376 0.28545 0.0
Mg97 Mg 0.30848 0.5035 0.21792 0.0
O98 O 0.30708 0.46852 0.25856 0.0
Mg99 Mg 0.33114 0.47735 0.32995 0.0
O100 O 0.35087 0.48065 0.40379 0.0
Mg101 Mg 0.3482 0.4353 0.408 0.0
Mg102 Mg 0.39251 0.517 0.41731 0.0
C103 C 0.38592 0.5337 0.24666 0.0
O104 O 0.33413 0.52897 0.34476 0.0
O105 O 0.2449 0.42668 0.19516 0.0
O106 O 0.38221 0.55567 0.3925 0.0
O107 O 0.24307 0.47194 0.29744 0.0
O108 O 0.28007 0.47353 0.149 0.0
O109 O 0.27987 0.52094 0.26059 0.0
O110 O 0.33279 0.42919 0.31623 0.0
O111 O 0.28293 0.3987 0.27628 0.0
C112 C 0.31095 0.40232 0.29243 0.0
C113 C 0.25515 0.44349 0.15053 0.0
O114 O 0.38066 0.51161 0.2836 0.0
O115 O 0.3645 0.44732 0.49909 0.0
O116 O 0.36234 0.53513 0.22113 0.0
O117 O 0.40485 0.45758 0.39116 0.0
O118 O 0.39531 0.50391 0.50034 0.0
O119 O 0.42763 0.51128 0.3698 0.0
O120 O 0.28146 0.44513 0.37199 0.0
O121 O 0.29327 0.41515 0.42956 0.0
C122 C 0.25358 0.503 0.2884 0.0
C123 C 0.35823 0.55573 0.36621 0.0
C124 C 0.57752 0.89644 0.28284 0.0
C125 C 0.50821 0.79967 0.14207 0.0
C126 C 0.45208 0.74662 0.28825 0.0
Mg127 Mg 0.55677 0.90888 0.40552 0.0
Mg128 Mg 0.47895 0.88948 0.41942 0.0
O129 O 0.50749 0.87272 0.40735 0.0
Mg130 Mg 0.50295 0.85386 0.33192 0.0
O131 O 0.50184 0.83506 0.25797 0.0
Mg132 Mg 0.53009 0.8145 0.27518 0.0
Mg133 Mg 0.46083 0.80704 0.22309 0.0
C134 C 0.427 0.81615 0.37971 0.0
O135 O 0.47629 0.87965 0.29113 0.0
O136 O 0.54926 0.91502 0.49873 0.0
O137 O 0.44127 0.84112 0.23047 0.0
O138 O 0.54729 0.95357 0.3931 0.0
O139 O 0.49673 0.90674 0.50038 0.0
O140 O 0.49591 0.92964 0.3633 0.0
O141 O 0.52848 0.82671 0.36549 0.0
O142 O 0.56576 0.8651 0.42145 0.0
C143 C 0.55197 0.83577 0.40048 0.0
C144 C 0.52444 0.9144 0.52388 0.0
O145 O 0.44971 0.81274 0.35515 0.0
O146 O 0.52743 0.80307 0.18245 0.0
O147 O 0.4331 0.84365 0.40264 0.0
O148 O 0.48396 0.7621 0.2925 0.0
O149 O 0.48133 0.80101 0.14791 0.0
O150 O 0.4368 0.7597 0.26453 0.0
O151 O 0.55495 0.89665 0.31286 0.0
O152 O 0.57347 0.8691 0.2619 0.0
C153 C 0.52122 0.95534 0.38207 0.0
C154 C 0.45237 0.86901 0.25609 0.0
C155 C 0.08524 0.68157 0.29744 0.0
C156 C 0.18521 0.71402 0.15034 0.0
C157 C 0.23634 0.71627 0.30023 0.0
Mg158 Mg 0.07573 0.64616 0.41583 0.0
Mg159 Mg 0.09442 0.58741 0.42047 0.0
O160 O 0.11235 0.6334 0.41334 0.0
Mg161 Mg 0.1308 0.65011 0.33798 0.0
O162 O 0.14837 0.66999 0.26422 0.0
Mg163 Mg 0.16578 0.71861 0.28193 0.0
Mg164 Mg 0.18051 0.6608 0.23532 0.0
C165 C 0.16652 0.60746 0.3752 0.0
O166 O 0.10635 0.59853 0.29431 0.0
O167 O 0.07056 0.6301 0.50732 0.0
O168 O 0.14939 0.60656 0.24004 0.0
O169 O 0.03119 0.59262 0.40094 0.0
O170 O 0.07806 0.5853 0.50305 0.0
O171 O 0.054 0.56556 0.36511 0.0
O172 O 0.15717 0.70282 0.37413 0.0
O173 O 0.11897 0.69831 0.43414 0.0
C174 C 0.14808 0.71511 0.41297 0.0
C175 C 0.07128 0.6051 0.52962 0.0
O176 O 0.17185 0.63582 0.35576 0.0
O177 O 0.17732 0.72853 0.18774 0.0
O178 O 0.13878 0.58643 0.39791 0.0
O179 O 0.2188 0.73046 0.29702 0.0
O180 O 0.1876 0.68793 0.1602 0.0
O181 O 0.2255 0.68659 0.28289 0.0
O182 O 0.08765 0.65926 0.32473 0.0
O183 O 0.11046 0.70508 0.27235 0.0
C184 C 0.02859 0.56505 0.3853 0.0
C185 C 0.12045 0.58756 0.26139 0.0
C186 C 0.55362 0.7136 0.91216 0.0
C187 C 0.51232 0.60443 0.02887 0.0
C188 C 0.51274 0.56138 0.88791 0.0
Mg189 Mg 0.54314 0.7212 0.78609 0.0
Mg190 Mg 0.47959 0.66705 0.71267 0.0
O191 O 0.51403 0.6738 0.76001 0.0
Mg192 Mg 0.50648 0.65114 0.83298 0.0
O193 O 0.50439 0.63322 0.90892 0.0
Mg194 Mg 0.55278 0.64265 0.91567 0.0
Mg195 Mg 0.47311 0.58844 0.91746 0.0
C196 C 0.45709 0.59182 0.74786 0.0
O197 O 0.45195 0.64116 0.84398 0.0
O198 O 0.55091 0.73709 0.69568 0.0
O199 O 0.43128 0.59222 0.88953 0.0
O200 O 0.49854 0.73114 0.79256 0.0
O201 O 0.50961 0.69764 0.64488 0.0
O202 O 0.4547 0.69049 0.7487 0.0
O203 O 0.55803 0.65621 0.82323 0.0
O204 O 0.58373 0.70587 0.78059 0.0
C205 C 0.58352 0.67951 0.79839 0.0
C206 C 0.53711 0.72555 0.64929 0.0
O207 O 0.47798 0.60018 0.78761 0.0
O208 O 0.53972 0.62706 0.00696 0.0
O209 O 0.45367 0.61301 0.71834 0.0
O210 O 0.53982 0.58729 0.90257 0.0
O211 O 0.48533 0.58669 0.00179 0.0
O212 O 0.49124 0.56578 0.86336 0.0
O213 O 0.53229 0.70187 0.87349 0.0
O214 O 0.56505 0.69608 0.93366 0.0
C215 C 0.46777 0.7167 0.77813 0.0
C216 C 0.42716 0.61405 0.86342 0.0
C217 C 0.30764 0.89697 0.78766 0.0
C218 C 0.27885 0.79817 0.64941 0.0
C219 C 0.28815 0.74933 0.79631 0.0
Mg220 Mg 0.34522 0.91364 0.90686 0.0
Mg221 Mg 0.40691 0.89931 0.91334 0.0
O222 O 0.36068 0.87867 0.9084 0.0
Mg223 Mg 0.34399 0.85742 0.83464 0.0
O224 O 0.32373 0.83653 0.76294 0.0
Mg225 Mg 0.27537 0.81519 0.78396 0.0
Mg226 Mg 0.33661 0.80892 0.72674 0.0
C227 C 0.3901 0.82654 0.87764 0.0
O228 O 0.39473 0.88349 0.78813 0.0
O229 O 0.36133 0.92074 -0.00152 0.0
O230 O 0.39013 0.8435 0.72971 0.0
O231 O 0.39771 0.96069 0.89014 0.0
O232 O 0.40819 0.91693 0.99546 0.0
O233 O 0.42049 0.93542 0.85058 0.0
O234 O 0.29192 0.82885 0.8744 0.0
O235 O 0.29442 0.8693 0.9272 0.0
C236 C 0.2787 0.83914 0.90996 0.0
C237 C 0.38689 0.92175 0.02159 0.0
O238 O 0.36163 0.81937 0.85673 0.0
O239 O 0.2637 0.80183 0.69071 0.0
O240 O 0.41045 0.85553 0.89709 0.0
O241 O 0.27099 0.76392 0.80197 0.0
O242 O 0.30768 0.80071 0.65374 0.0
O243 O 0.31558 0.76254 0.77005 0.0
O244 O 0.33193 0.89882 0.8156 0.0
O245 O 0.28434 0.8688 0.76938 0.0
C246 C 0.42419 0.96119 0.87434 0.0
C247 C 0.40728 0.87208 0.75312 0.0
C248 C 0.15074 0.4282 0.89649 0.0
C249 C 0.09295 0.47505 0.02703 0.0
C250 C 0.04405 0.4778 0.88848 0.0
Mg251 Mg 0.16407 0.43982 0.76721 0.0
Mg252 Mg 0.17713 0.51004 0.70935 0.0
O253 O 0.14704 0.47117 0.74803 0.0
Mg254 Mg 0.13476 0.47729 0.82361 0.0
O255 O 0.12294 0.48007 0.90098 0.0
Mg256 Mg 0.0834 0.43333 0.91071 0.0
Mg257 Mg 0.1146 0.51454 0.91634 0.0
C258 C 0.1212 0.52734 0.74639 0.0
O259 O 0.18081 0.53054 0.83258 0.0
O260 O 0.16979 0.4361 0.67376 0.0
O261 O 0.16084 0.55586 0.88707 0.0
O262 O 0.21874 0.48111 0.77295 0.0
O263 O 0.17688 0.48393 0.63626 0.0
O264 O 0.22599 0.53047 0.74648 0.0
O265 O 0.08721 0.42652 0.8167 0.0
O266 O 0.10815 0.40093 0.76609 0.0
C267 C 0.08335 0.40107 0.78942 0.0
C268 C 0.17407 0.45487 0.63203 0.0
O269 O 0.11052 0.50517 0.78451 0.0
O270 O 0.08527 0.44716 0.00342 0.0
O271 O 0.14726 0.53476 0.71741 0.0
O272 O 0.04463 0.45131 0.90255 0.0
O273 O 0.10367 0.50278 0.00116 0.0
O274 O 0.07064 0.50393 0.8737 0.0
O275 O 0.15927 0.4494 0.85746 0.0
O276 O 0.12317 0.41822 0.92204 0.0
C277 C 0.23726 0.51275 0.76726 0.0
C278 C 0.18364 0.55677 0.85613 0.0
C279 C 0.68108 0.58873 0.70322 0.0
C280 C 0.71863 0.54055 0.86107 0.0
C281 C 0.71604 0.47177 0.73524 0.0
Mg282 Mg 0.6483 0.55852 0.58414 0.0
Mg283 Mg 0.59447 0.47877 0.57961 0.0
O284 O 0.63883 0.51016 0.5916 0.0
Mg285 Mg 0.65357 0.51132 0.669 0.0
O286 O 0.67281 0.51787 0.74437 0.0
Mg287 Mg 0.72107 0.54749 0.72358 0.0
Mg288 Mg 0.6638 0.48293 0.79293 0.0
C289 C 0.61757 0.43146 0.63589 0.0
O290 O 0.60118 0.48281 0.70847 0.0
O291 O 0.63614 0.54639 0.49197 0.0
O292 O 0.61029 0.45701 0.78003 0.0
O293 O 0.59263 0.54451 0.59043 0.0
O294 O 0.59504 0.49207 0.49552 0.0
O295 O 0.56686 0.49448 0.62731 0.0
O296 O 0.70607 0.53784 0.63395 0.0
O297 O 0.7023 0.5716 0.57267 0.0
C298 C 0.71917 0.56024 0.59665 0.0
C299 C 0.61364 0.51931 0.4692 0.0
O300 O 0.6434 0.45623 0.65836 0.0
O301 O 0.73228 0.5545 0.81556 0.0
O302 O 0.59651 0.43562 0.60771 0.0
O303 O 0.73072 0.50267 0.72084 0.0
O304 O 0.69083 0.51276 0.86327 0.0
O305 O 0.68896 0.45836 0.76245 0.0
O306 O 0.65856 0.56312 0.67754 0.0
O307 O 0.70656 0.58867 0.72406 0.0
C308 C 0.56546 0.51844 0.6046 0.0
C309 C 0.59082 0.46105 0.74733 0.0
C310 C 0.39261 0.08374 0.69249 0.0
C311 C 0.44628 0.17957 0.834 0.0
C312 C 0.51285 0.23655 0.69965 0.0
Mg313 Mg 0.42187 0.07265 0.57786 0.0
Mg314 Mg 0.50106 0.09598 0.57773 0.0
O315 O 0.47038 0.11072 0.58142 0.0
Mg316 Mg 0.46959 0.12933 0.65506 0.0
O317 O 0.46485 0.14745 0.72646 0.0
Mg318 Mg 0.43606 0.16572 0.69972 0.0
Mg319 Mg 0.50217 0.17646 0.76869 0.0
C320 C 0.54848 0.17016 0.62077 0.0
O321 O 0.49553 0.10596 0.70269 0.0
O322 O 0.43441 0.06556 0.48811 0.0
O323 O 0.52465 0.14458 0.7676 0.0
O324 O 0.43367 0.03047 0.59841 0.0
O325 O 0.48798 0.07725 0.49607 0.0
O326 O 0.48385 0.05573 0.634 0.0
O327 O 0.4441 0.15363 0.61346 0.0
O328 O 0.41071 0.11433 0.5548 0.0
C329 C 0.42197 0.14336 0.57611 0.0
C330 C 0.46109 0.06731 0.46842 0.0
O331 O 0.52377 0.17264 0.63946 0.0
O332 O 0.43106 0.17631 0.78879 0.0
O333 O 0.54455 0.14301 0.59934 0.0
O334 O 0.48161 0.21941 0.68863 0.0
O335 O 0.47396 0.17943 0.83685 0.0
O336 O 0.52727 0.22452 0.72871 0.0
O337 O 0.41765 0.08479 0.66826 0.0
O338 O 0.39373 0.11057 0.70973 0.0
C339 C 0.45916 0.0293 0.61553 0.0
C340 C 0.51714 0.11757 0.74134 0.0
C341 C 0.89336 0.31249 0.70942 0.0
C342 C 0.7923 0.27935 0.84699 0.0
C343 C 0.7408 0.27827 0.69968 0.0
Mg344 Mg 0.90545 0.34618 0.58655 0.0
Mg345 Mg 0.89068 0.40744 0.57927 0.0
O346 O 0.87072 0.36139 0.58735 0.0
Mg347 Mg 0.85037 0.34515 0.66211 0.0
O348 O 0.82982 0.32481 0.73494 0.0
Mg349 Mg 0.81221 0.27623 0.71652 0.0
Mg350 Mg 0.7975 0.33396 0.76408 0.0
C351 C 0.81818 0.38952 0.61926 0.0
O352 O 0.87419 0.39621 0.70574 0.0
O353 O 0.91204 0.36213 0.49423 0.0
O354 O 0.8304 0.38842 0.75828 0.0
O355 O 0.95166 0.39882 0.60176 0.0
O356 O 0.90765 0.40877 0.49708 0.0
O357 O 0.92962 0.42654 0.63742 0.0
O358 O 0.82371 0.29328 0.62661 0.0
O359 O 0.8604 0.29468 0.56683 0.0
C360 C 0.83127 0.27959 0.5883 0.0
C361 C 0.91307 0.38784 0.47111 0.0
O362 O 0.81122 0.36098 0.64019 0.0
O363 O 0.79958 0.26531 0.80827 0.0
O364 O 0.84679 0.40982 0.59837 0.0
O365 O 0.75949 0.2653 0.70069 0.0
O366 O 0.79052 0.30603 0.83936 0.0
O367 O 0.75111 0.30777 0.71776 0.0
O368 O 0.89288 0.3349 0.67924 0.0
O369 O 0.8665 0.289 0.7307 0.0
C370 C 0.95481 0.42666 0.61714 0.0
C371 C 0.85967 0.40726 0.73755 0.0
H372 H 0.52573 0.25174 0.12535 0.0
H373 H 0.56844 0.27742 0.28639 0.0
H374 H 0.60335 0.25259 0.26671 0.0
H375 H 0.61624 0.21715 0.20721 0.0
H376 H 0.5736 0.19271 0.04584 0.0
H377 H 0.54498 0.22424 0.06147 0.0
C378 C 0.54283 0.25207 0.15595 0.0
C379 C 0.54396 0.26562 0.20757 0.0
C380 C 0.56308 0.23818 0.14412 0.0
C381 C 0.5669 0.26675 0.24644 0.0
C382 C 0.58688 0.25258 0.23523 0.0
C383 C 0.60172 0.21985 0.17487 0.0
C384 C 0.59684 0.20247 0.12562 0.0
C385 C 0.58459 0.23746 0.18461 0.0
C386 C 0.57758 0.20578 0.08422 0.0
C387 C 0.56094 0.22353 0.09327 0.0
H388 H 0.80549 0.37901 0.0916 0.0
H389 H 0.74557 0.40797 0.18649 0.0
H390 H 0.70872 0.34938 0.21328 0.0
H391 H 0.69774 0.29086 0.21685 0.0
H392 H 0.76126 0.26501 0.12435 0.0
H393 H 0.7924 0.32166 0.08905 0.0
C394 C 0.78423 0.37279 0.11777 0.0
C395 C 0.77897 0.39817 0.13865 0.0
C396 C 0.76395 0.33952 0.13367 0.0
C397 C 0.75083 0.38914 0.1715 0.0
C398 C 0.72974 0.35561 0.18659 0.0
C399 C 0.71821 0.29761 0.18862 0.0
C400 C 0.72733 0.27376 0.17373 0.0
C401 C 0.73679 0.33073 0.16933 0.0
C402 C 0.75382 0.28284 0.13692 0.0
C403 C 0.77171 0.31528 0.11662 0.0
H404 H 0.69777 0.40817 0.23056 0.0
H405 H 0.71996 0.51017 0.20331 0.0
H406 H 0.66398 0.49023 0.17061 0.0
H407 H 0.60928 0.44525 0.14968 0.0
H408 H 0.58322 0.34245 0.17737 0.0
H409 H 0.64036 0.36139 0.20946 0.0
C410 C 0.69033 0.42595 0.21735 0.0
C411 C 0.7134 0.46065 0.21907 0.0
C412 C 0.65754 0.4143 0.19836 0.0
C413 C 0.70308 0.48333 0.20237 0.0
C414 C 0.67096 0.47201 0.18345 0.0
C415 C 0.61593 0.4267 0.162 0.0
C416 C 0.59205 0.39244 0.16056 0.0
C417 C 0.64816 0.4377 0.18103 0.0
C418 C 0.6012 0.36902 0.17794 0.0
C419 C 0.63382 0.37986 0.19636 0.0
H420 H 0.15486 0.54442 0.38914 0.0
H421 H 0.23135 0.6426 0.33589 0.0
H422 H 0.26557 0.6189 0.3048 0.0
H423 H 0.2717 0.56934 0.28791 0.0
H424 H 0.19364 0.47162 0.34097 0.0
H425 H 0.162 0.49642 0.37717 0.0
C426 C 0.17919 0.561 0.37139 0.0
C427 C 0.19023 0.59533 0.36402 0.0
C428 C 0.19825 0.54715 0.35308 0.0
C429 C 0.22191 0.61607 0.34102 0.0
C430 C 0.24147 0.60248 0.32332 0.0
C431 C 0.24777 0.55346 0.30741 0.0
C432 C 0.23496 0.51856 0.31125 0.0
C433 C 0.2295 0.56788 0.32806 0.0
C434 C 0.20407 0.49846 0.33712 0.0
C435 C 0.18593 0.51262 0.35794 0.0
H436 H 0.39544 0.61304 0.42169 0.0
H437 H 0.33327 0.57405 0.27908 0.0
H438 H 0.35391 0.63094 0.24505 0.0
H439 H 0.3968 0.69135 0.24897 0.0
H440 H 0.46294 0.72824 0.38736 0.0
H441 H 0.43443 0.67281 0.42927 0.0
C442 C 0.38582 0.61694 0.38365 0.0
C443 C 0.36272 0.58917 0.35305 0.0
C444 C 0.39951 0.64949 0.36271 0.0
C445 C 0.35042 0.5948 0.30409 0.0
C446 C 0.36281 0.62743 0.28406 0.0
C447 C 0.40464 0.68714 0.2885 0.0
C448 C 0.43256 0.71348 0.31444 0.0
C449 C 0.38845 0.65486 0.31188 0.0
C450 C 0.44236 0.70801 0.36583 0.0
C451 C 0.42579 0.67642 0.39007 0.0
H452 H 0.28629 0.70055 0.30471 0.0
H453 H 0.2605 0.77463 0.35545 0.0
H454 H 0.31597 0.80936 0.392 0.0
H455 H 0.37305 0.82212 0.40001 0.0
H456 H 0.40129 0.75011 0.35038 0.0
H457 H 0.34353 0.71098 0.32336 0.0
C458 C 0.2928 0.72415 0.32416 0.0
C459 C 0.26945 0.73523 0.32614 0.0
C460 C 0.3252 0.74454 0.34479 0.0
C461 C 0.2781 0.76569 0.35219 0.0
C462 C 0.30986 0.78565 0.37339 0.0
C463 C 0.36667 0.79768 0.38413 0.0
C464 C 0.3917 0.78952 0.37491 0.0
C465 C 0.33379 0.77578 0.36848 0.0
C466 C 0.38269 0.75748 0.35533 0.0
C467 C 0.34964 0.73508 0.3403 0.0
H468 H 0.47974 0.7607 0.8602 0.0
H469 H 0.4079 0.70365 0.73521 0.0
H470 H 0.37468 0.72944 0.7596 0.0
H471 H 0.36928 0.77246 0.81044 0.0
H472 H 0.4405 0.82806 0.93685 0.0
H473 H 0.4706 0.79862 0.91788 0.0
C474 C 0.45674 0.75378 0.83847 0.0
C475 C 0.44668 0.73079 0.79537 0.0
C476 C 0.43759 0.76844 0.85294 0.0
C477 C 0.41645 0.7216 0.76826 0.0
C478 C 0.39737 0.73629 0.78218 0.0
C479 C 0.39066 0.77733 0.83494 0.0
C480 C 0.40267 0.8027 0.87444 0.0
C481 C 0.40805 0.76025 0.82377 0.0
C482 C 0.4308 0.8089 0.90565 0.0
C483 C 0.44815 0.79208 0.89486 0.0
H484 H 0.21046 0.6122 0.9189 0.0
H485 H 0.21695 0.57695 0.75942 0.0
H486 H 0.25611 0.63385 0.73024 0.0
H487 H 0.28079 0.6944 0.74519 0.0
H488 H 0.26672 0.72983 0.89957 0.0
H489 H 0.23781 0.67253 0.93569 0.0
C490 C 0.22108 0.61697 0.87816 0.0
C491 C 0.2118 0.59016 0.84199 0.0
C492 C 0.24147 0.65006 0.86039 0.0
C493 C 0.22527 0.59672 0.78908 0.0
C494 C 0.24697 0.6295 0.77188 0.0
C495 C 0.27187 0.68945 0.78701 0.0
C496 C 0.27519 0.71581 0.81974 0.0
C497 C 0.25426 0.65641 0.80654 0.0
C498 C 0.26357 0.70951 0.87368 0.0
C499 C 0.24726 0.67689 0.89424 0.0
H500 H 0.2873 0.57914 0.76112 0.0
H501 H 0.265 0.48201 0.82301 0.0
H502 H 0.31951 0.5065 0.86434 0.0
H503 H 0.37349 0.55348 0.88028 0.0
H504 H 0.40178 0.6505 0.81158 0.0
H505 H 0.34465 0.62812 0.77639 0.0
C506 C 0.29448 0.56341 0.78353 0.0
C507 C 0.27169 0.52873 0.78928 0.0
C508 C 0.3268 0.57757 0.80624 0.0
C509 C 0.28156 0.50872 0.81823 0.0
C510 C 0.31288 0.52269 0.84202 0.0
C511 C 0.36749 0.57022 0.85814 0.0
C512 C 0.39218 0.60374 0.84847 0.0
C513 C 0.3356 0.5569 0.83612 0.0
C514 C 0.3834 0.62457 0.81942 0.0
C515 C 0.35078 0.61168 0.79908 0.0
H516 H 0.76013 0.48452 0.65373 0.0
H517 H 0.70217 0.41084 0.77659 0.0
H518 H 0.72549 0.37603 0.7473 0.0
H519 H 0.76573 0.36887 0.69063 0.0
H520 H 0.82101 0.44218 0.56543 0.0
H521 H 0.79631 0.47514 0.5933 0.0
C522 C 0.7526 0.46088 0.67422 0.0
C523 C 0.72991 0.45057 0.71775 0.0
C524 C 0.76555 0.4408 0.65667 0.0
C525 C 0.71989 0.41951 0.74317 0.0
C526 C 0.7331 0.39952 0.72635 0.0
C527 C 0.77123 0.39126 0.66797 0.0
C528 C 0.79541 0.40302 0.62634 0.0
C529 C 0.7562 0.41006 0.68333 0.0
C530 C 0.80259 0.43247 0.59787 0.0
C531 C 0.78832 0.45143 0.61353 0.0
H532 H 0.57051 0.3764 0.58416 0.0
H533 H 0.643 0.4065 0.71369 0.0
H534 H 0.61867 0.34787 0.7425 0.0
H535 H 0.57223 0.2887 0.73688 0.0
H536 H 0.49801 0.26153 0.61056 0.0
H537 H 0.52729 0.31842 0.57506 0.0
C538 C 0.58138 0.37034 0.61848 0.0
C539 C 0.60839 0.39611 0.64718 0.0
C540 C 0.56641 0.33699 0.63603 0.0
C541 C 0.62228 0.38737 0.69086 0.0
C542 C 0.6081 0.3538 0.70766 0.0
C543 C 0.56267 0.29525 0.70136 0.0
C544 C 0.53257 0.27092 0.67695 0.0
C545 C 0.57942 0.32851 0.6816 0.0
C546 C 0.52064 0.27978 0.63079 0.0
C547 C 0.53751 0.31233 0.61023 0.0
H548 H 0.60431 0.16685 0.60573 0.0
H549 H 0.57144 0.23538 0.65519 0.0
H550 H 0.62875 0.2765 0.68216 0.0
H551 H 0.688 0.29074 0.69768 0.0
H552 H 0.71671 0.21826 0.65007 0.0
H553 H 0.6615 0.18148 0.61564 0.0
C554 C 0.60944 0.19088 0.62179 0.0
C555 C 0.58331 0.19763 0.62964 0.0
C556 C 0.642 0.21385 0.63767 0.0
C557 C 0.59088 0.22913 0.65016 0.0
C558 C 0.62372 0.25269 0.66536 0.0
C559 C 0.68215 0.26703 0.67938 0.0
C560 C 0.70683 0.25761 0.67651 0.0
C561 C 0.64945 0.24496 0.66053 0.0
C562 C 0.69866 0.22663 0.65274 0.0
C563 C 0.66686 0.20527 0.63305 0.0
H564 H 0.54535 0.54984 0.97078 0.0
H565 H 0.44852 0.50896 0.89415 0.0
H566 H 0.4232 0.46875 0.96826 0.0
H567 H 0.42892 0.44281 0.05186 0.0
H568 H 0.52605 0.48315 0.12718 0.0
H569 H 0.55054 0.52563 0.05649 0.0
C570 C 0.51879 0.53188 0.96973 0.0
C571 C 0.49906 0.53267 0.92666 0.0
C572 C 0.5042 0.50879 0.01264 0.0
C573 C 0.46455 0.50909 0.92652 0.0
C574 C 0.44984 0.48635 0.96942 0.0
C575 C 0.45522 0.4616 0.05397 0.0
C576 C 0.47556 0.45911 0.09429 0.0
C577 C 0.4694 0.48601 0.0128 0.0
C578 C 0.50963 0.48393 0.09637 0.0
C579 C 0.5239 0.50802 0.05536 0.0
H580 H 0.53939 0.9906 0.03945 0.0
H581 H 0.49739 0.04396 0.12155 0.0
H582 H 0.45712 0.03005 0.04808 0.0
H583 H 0.43449 0.00376 0.95951 0.0
H584 H 0.47796 0.9518 0.87712 0.0
H585 H 0.51684 0.96431 0.95185 0.0
C586 C 0.52103 -0.00135 0.04206 0.0
C587 C 0.52194 0.01875 0.08579 0.0
C588 C 0.49835 0.99122 -0.00082 0.0
C589 C 0.49763 0.02869 0.08823 0.0
C590 C 0.47486 0.02123 0.04577 0.0
C591 C 0.45292 -0.00421 0.95723 0.0
C592 C 0.45281 0.97649 0.9128 0.0
C593 C 0.47543 0.00306 0.00049 0.0
C594 C 0.47705 0.96643 0.91089 0.0
C595 C 0.4991 0.97315 0.95402 0.0
H596 H 0.97412 0.54714 0.00284 0.0
H597 H 0.96393 0.47781 0.13045 0.0
H598 H 0.98786 0.45302 0.0707 0.0
H599 H 0.01164 0.45114 0.98295 0.0
H600 H 0.02361 0.52132 0.85579 0.0
H601 H -0.00167 0.54539 0.91461 0.0
C602 C 0.97828 0.52746 0.01838 0.0
C603 C 0.96771 0.51467 0.07146 0.0
C604 C -0.00871 0.51278 0.98334 0.0
C605 C 0.9724 0.48846 0.09016 0.0
C606 C 0.98553 0.47391 0.05569 0.0
C607 C 0.00761 0.47086 0.96717 0.0
C608 C 0.01895 0.48403 0.91458 0.0
C609 C -0.00548 0.4855 0.00198 0.0
C610 C 0.01446 0.51033 0.89568 0.0
C611 C 0.0006 0.52448 0.92968 0.0
H612 H 0.44116 0.44636 0.44991 0.0
H613 H 0.49208 0.54209 0.36736 0.0
H614 H 0.53722 0.56232 0.43418 0.0
H615 H 0.55946 0.5545 0.5206 0.0
H616 H 0.50621 0.45943 0.60505 0.0
H617 H 0.4645 0.43768 0.53313 0.0
C618 C 0.46254 0.47136 0.44527 0.0
C619 C 0.46282 0.49279 0.40389 0.0
C620 C 0.48751 0.48342 0.48534 0.0
C621 C 0.491 0.52505 0.39889 0.0
C622 C 0.51651 0.53689 0.43778 0.0
C623 C 0.53834 0.52927 0.52414 0.0
C624 C 0.53612 0.50881 0.56874 0.0
C625 C 0.51426 0.51675 0.48248 0.0
C626 C 0.50866 0.47598 0.57167 0.0
C627 C 0.48502 0.46325 0.53 0.0
H628 H 0.46233 0.93726 0.43277 0.0
H629 H 0.56506 0.0171 0.42306 0.0
H630 H 0.55613 0.04435 0.50174 0.0
H631 H 0.51934 0.04511 0.57243 0.0
H632 H 0.41647 0.96551 0.58123 0.0
H633 H 0.42617 0.93696 0.50543 0.0
C634 C 0.48277 0.9609 0.44712 0.0
C635 C 0.51433 0.97539 0.42149 0.0
C636 C 0.47786 0.97551 0.49356 0.0
C637 C 0.54048 0.00573 0.44154 0.0
C638 C 0.53551 0.02097 0.48698 0.0
C639 C 0.49915 0.02106 0.55891 0.0
C640 C 0.46714 0.00736 0.58269 0.0
C641 C 0.50444 0.00581 0.51367 0.0
C642 C 0.44133 0.9764 0.56392 0.0
C643 C 0.44674 0.96041 0.52006 0.0
H644 H 0.9401 0.4724 0.57524 0.0
H645 H 0.01552 0.4432 0.57343 0.0
H646 H 0.04262 0.48049 0.49552 0.0
H647 H 0.04336 0.51923 0.42659 0.0
H648 H 0.96751 0.54786 0.42794 0.0
H649 H 0.94048 0.5106 0.50584 0.0
C650 C 0.96285 0.47456 0.55869 0.0
C651 C 0.97589 0.45507 0.58044 0.0
C652 C 0.9772 0.49461 0.51245 0.0
C653 C 0.00518 0.45811 0.55777 0.0
C654 C 0.02031 0.47896 0.51273 0.0
C655 C 0.02047 0.51685 0.44293 0.0
C656 C 0.00733 0.53624 0.42113 0.0
C657 C 0.00602 0.49664 0.48902 0.0
C658 C 0.9779 0.53299 0.44359 0.0
C659 C 0.96283 0.51218 0.48865 0.0
H660 H 0.47835 0.36289 0.88924 0.0
H661 H 0.48473 0.45533 0.93707 0.0
H662 H 0.51275 0.48207 0.85227 0.0
H663 H 0.55074 0.48351 0.7818 0.0
H664 H 0.55299 0.39365 0.74325 0.0
H665 H 0.50589 0.36103 0.80453 0.0
C666 C 0.48444 0.38832 0.87948 0.0
C667 C 0.47958 0.40742 0.91888 0.0
C668 C 0.50294 0.40407 0.83226 0.0
C669 C 0.488 0.44043 0.90681 0.0
C670 C 0.50443 0.45574 0.85854 0.0
C671 C 0.53954 0.45648 0.78468 0.0
C672 C 0.55516 0.44087 0.75916 0.0
C673 C 0.51433 0.43856 0.82316 0.0
C674 C 0.54109 0.40597 0.7631 0.0
C675 C 0.51452 0.38745 0.79871 0.0
H676 H 0.53818 0.03341 0.91006 0.0
H677 H 0.63835 0.11703 0.90421 0.0
H678 H 0.62581 0.13626 0.81911 0.0
H679 H 0.58152 0.13703 0.76372 0.0
H680 H 0.48165 0.05204 0.76842 0.0
H681 H 0.49906 0.0244 0.83516 0.0
C682 C 0.55771 0.05445 0.88824 0.0
C683 C 0.58886 0.07387 0.91312 0.0
C684 C 0.5501 0.06542 0.83988 0.0
C685 C 0.61417 0.10164 0.88531 0.0
C686 C 0.60685 0.11291 0.83713 0.0
C687 C 0.56405 0.11185 0.77782 0.0
C688 C 0.5303 0.09681 0.76286 0.0
C689 C 0.57418 0.09627 0.81648 0.0
C690 C 0.50773 0.06407 0.78014 0.0
C691 C 0.51758 0.04842 0.81869 0.0
H692 H 0.83571 0.44912 0.75599 0.0
H693 H 0.92526 0.4423 0.76583 0.0
H694 H 0.9494 0.48873 0.83053 0.0
H695 H 0.93715 0.51816 0.90252 0.0
H696 H 0.8468 0.52318 0.89557 0.0
H697 H 0.83106 0.49144 0.81038 0.0
C698 C 0.86104 0.45877 0.77078 0.0
C699 C 0.8784 0.44189 0.75777 0.0
C700 C 0.87434 0.48489 0.8089 0.0
C701 C 0.91137 0.45478 0.77591 0.0
C702 C 0.92504 0.48112 0.81329 0.0
C703 C 0.91514 0.51405 0.88036 0.0
C704 C 0.89306 0.52266 0.90492 0.0
C705 C 0.90574 0.49464 0.83282 0.0
C706 C 0.86423 0.51693 0.87688 0.0
C707 C 0.85497 0.49826 0.82872 0.0
H708 H 0.47411 0.54719 0.71038 0.0
H709 H 0.3902 0.55907 0.75239 0.0
H710 H 0.35364 0.51204 0.69438 0.0
H711 H 0.35106 0.48172 0.61089 0.0
H712 H 0.43573 0.47336 0.56261 0.0
H713 H 0.46644 0.50377 0.6439 0.0
C714 C 0.44747 0.53816 0.70892 0.0
C715 C 0.43472 0.55649 0.73474 0.0
C716 C 0.42698 0.51216 0.67307 0.0
C717 C 0.40032 0.54509 0.73257 0.0
C718 C 0.37952 0.51848 0.69885 0.0
C719 C 0.37541 0.48482 0.62021 0.0
C720 C 0.39152 0.4757 0.58127 0.0
C721 C 0.39321 0.50372 0.66568 0.0
C722 C 0.42317 0.48013 0.59271 0.0
C723 C 0.44081 0.49799 0.63873 0.0
H724 H 0.45474 0.85533 0.73543 0.0
H725 H 0.43525 0.93727 0.72199 0.0
H726 H 0.48072 0.96506 0.65586 0.0
H727 H 0.51298 0.95658 0.58379 0.0
H728 H 0.53158 0.87412 0.59619 0.0
H729 H 0.50049 0.85651 0.68194 0.0
C730 C 0.46145 0.87994 0.71959 0.0
C731 C 0.44135 0.89394 0.73219 0.0
C732 C 0.48712 0.89537 0.68081 0.0
C733 C 0.45031 0.92597 0.71239 0.0
C734 C 0.47605 0.94167 0.6741 0.0
C735 C 0.51183 0.93596 0.60705 0.0
C736 C 0.52396 0.91629 0.58363 0.0
C737 C 0.49289 0.92536 0.65525 0.0
C738 C 0.52248 0.88963 0.6137 0.0
C739 C 0.50412 0.87918 0.66221 0.0
H740 H 0.1394 0.59225 0.72791 0.0
H741 H 0.05556 0.49163 0.72195 0.0
H742 H 0.02581 0.50997 0.66123 0.0
H743 H 0.03151 0.55117 0.59154 0.0
H744 H 0.11478 0.65197 0.59869 0.0
H745 H 0.1363 0.63762 0.67912 0.0
C746 C 0.11405 0.57477 0.71507 0.0
C747 C 0.09985 0.54065 0.72802 0.0
C748 C 0.09714 0.58552 0.68021 0.0
C749 C 0.06693 0.51804 0.71199 0.0
C750 C 0.05003 0.52846 0.67697 0.0
C751 C 0.05321 0.57043 0.61286 0.0
C752 C 0.07191 0.60234 0.58912 0.0
C753 C 0.06587 0.56168 0.65812 0.0
C754 C 0.10001 0.62724 0.61657 0.0
C755 C 0.11268 0.61885 0.66192 0.0
H756 H 0.43744 0.52273 0.22499 0.0
H757 H 0.41031 0.59962 0.22944 0.0
H758 H 0.45761 0.6356 0.17112 0.0
H759 H 0.49493 0.63725 0.0989 0.0
H760 H 0.52078 0.56015 0.08963 0.0
H761 H 0.4865 0.5322 0.17014 0.0
C762 C 0.44287 0.54792 0.215 0.0
C763 C 0.42015 0.55831 0.22992 0.0
C764 C 0.46946 0.56802 0.17958 0.0
C765 C 0.42727 0.59099 0.21718 0.0
C766 C 0.45421 0.61151 0.1837 0.0
C767 C 0.49455 0.61543 0.11659 0.0
C768 C 0.50938 0.59993 0.08816 0.0
C769 C 0.47391 0.59926 0.16156 0.0
C770 C 0.5087 0.57166 0.1107 0.0
C771 C 0.48896 0.55573 0.15643 0.0
H772 H 0.44052 0.95804 0.08568 0.0
H773 H 0.33758 0.8798 0.09001 0.0
H774 H 0.34736 0.85894 0.17585 0.0
H775 H 0.38911 0.8546 0.23325 0.0
H776 H 0.49173 0.93446 0.22998 0.0
H777 H 0.47801 0.96423 0.16153 0.0
C778 C 0.41982 0.9379 0.10718 0.0
C779 C 0.38855 0.92044 0.08149 0.0
C780 C 0.42579 0.92597 0.15613 0.0
C781 C 0.36187 0.89377 0.10922 0.0
C782 C 0.3676 0.88153 0.15792 0.0
C783 C 0.40806 0.87926 0.2193 0.0
C784 C 0.44147 0.89203 0.23537 0.0
C785 C 0.40002 0.89609 0.1795 0.0
C786 C 0.46587 0.92411 0.21784 0.0
C787 C 0.45811 0.94096 0.17818 0.0
H788 H 0.04869 0.48377 0.08439 0.0
H789 H 0.13641 0.47461 0.10051 0.0
H790 H 0.1492 0.50376 0.18816 0.0
H791 H 0.14322 0.5446 0.24461 0.0
H792 H 0.05607 0.55497 0.22658 0.0
H793 H 0.03422 0.51146 0.15666 0.0
C794 C 0.06937 0.4864 0.10885 0.0
C795 C 0.0915 0.47708 0.08658 0.0
C796 C 0.07695 0.50402 0.15824 0.0
C797 C 0.11886 0.48127 0.11747 0.0
C798 C 0.12641 0.49838 0.16715 0.0
C799 C 0.11874 0.53617 0.22699 0.0
C800 C 0.10155 0.55331 0.23951 0.0
C801 C 0.10684 0.51181 0.18584 0.0
C802 C 0.06974 0.54215 0.21726 0.0
C803 C 0.05746 0.51757 0.17676 0.0
H804 H 0.58426 0.43756 0.26733 0.0
H805 H 0.48949 0.43265 0.28982 0.0
H806 H 0.51584 0.48188 0.34907 0.0
H807 H 0.56167 0.51401 0.41334 0.0
H808 H 0.6552 0.51618 0.39506 0.0
H809 H 0.63439 0.48159 0.31317 0.0
C810 C 0.56982 0.44829 0.28351 0.0
C811 C 0.53511 0.43153 0.27572 0.0
C812 C 0.58501 0.47597 0.31833 0.0
C813 C 0.51629 0.44531 0.29597 0.0
C814 C 0.53131 0.47326 0.33004 0.0
C815 C 0.578 0.50855 0.38935 0.0
C816 C 0.60959 0.51713 0.40996 0.0
C817 C 0.56511 0.48723 0.34434 0.0
C818 C 0.63081 0.50988 0.37942 0.0
C819 C 0.61865 0.48956 0.33329 0.0
H820 H 0.46711 0.10871 0.38733 0.0
H821 H 0.46482 0.01612 0.42201 0.0
H822 H 0.49925 0.02358 0.34172 0.0
H823 H 0.54263 0.06462 0.27979 0.0
H824 H 0.54996 0.16065 0.25446 0.0
H825 H 0.50065 0.14378 0.31119 0.0
C826 C 0.47255 0.08929 0.37522 0.0
C827 C 0.46384 0.06207 0.41023 0.0
C828 C 0.49425 0.09509 0.3313 0.0
C829 C 0.47141 0.03724 0.39525 0.0
C830 C 0.49153 0.04182 0.34983 0.0
C831 C 0.53245 0.08116 0.28501 0.0
C832 C 0.54991 0.1139 0.2641 0.0
C833 C 0.50515 0.0719 0.32015 0.0
C834 C 0.53691 0.13543 0.27104 0.0
C835 C 0.50885 0.12584 0.3036 0.0
H836 H 0.85026 0.39583 0.25956 0.0
H837 H 0.93115 0.49792 0.26751 0.0
H838 H 0.95948 0.48202 0.33539 0.0
H839 H 0.95228 0.44239 0.4093 0.0
H840 H 0.87188 0.34012 0.40042 0.0
H841 H 0.85288 0.35229 0.31485 0.0
C842 C 0.87489 0.41417 0.27419 0.0
C843 C 0.88839 0.44803 0.25951 0.0
C844 C 0.89083 0.40486 0.31369 0.0
C845 C 0.92032 0.47169 0.27833 0.0
C846 C 0.93632 0.46267 0.31772 0.0
C847 C 0.93175 0.42239 0.38692 0.0
C848 C 0.91317 0.39055 0.41124 0.0
C849 C 0.92062 0.4298 0.33829 0.0
C850 C 0.8866 0.36476 0.38226 0.0
C851 C 0.8754 0.37188 0.33375 0.0
H852 H 0.30754 0.34327 0.32193 0.0
H853 H 0.34187 0.41909 0.19644 0.0
H854 H 0.36659 0.39117 0.14622 0.0
H855 H 0.38344 0.34904 0.14297 0.0
H856 H 0.35288 0.27461 0.27027 0.0
H857 H 0.32033 0.29693 0.31346 0.0
C858 C 0.32019 0.35326 0.28336 0.0
C859 C 0.32341 0.38321 0.26285 0.0
C860 C 0.33462 0.33714 0.25482 0.0
C861 C 0.33954 0.39613 0.21283 0.0
C862 C 0.35351 0.38015 0.18409 0.0
C863 C 0.36913 0.33726 0.17958 0.0
C864 C 0.37098 0.31058 0.20375 0.0
C865 C 0.35186 0.35112 0.20531 0.0
C866 C 0.35183 0.29517 0.25069 0.0
C867 C 0.33361 0.30825 0.27589 0.0
H868 H 0.61702 0.95453 0.33622 0.0
H869 H 0.59279 0.91044 0.17603 0.0
H870 H 0.62249 0.96605 0.13411 0.0
H871 H 0.64832 0.02747 0.14386 0.0
H872 H 0.67668 0.07145 0.30371 0.0
H873 H 0.65286 0.0158 0.34506 0.0
C874 C 0.61925 0.95719 0.29218 0.0
C875 C 0.60278 0.92866 0.25919 0.0
C876 C 0.63673 0.98921 0.26837 0.0
C877 C 0.60563 0.93216 0.20217 0.0
C878 C 0.62229 0.96395 0.17818 0.0
C879 C 0.65005 0.02473 0.18753 0.0
C880 C 0.66397 0.05323 0.22084 0.0
C881 C 0.63691 0.99269 0.21092 0.0
C882 C 0.66622 0.04969 0.27737 0.0
C883 C 0.6524 0.01792 0.30106 0.0
H884 H 0.05595 0.67636 0.20074 0.0
H885 H 0.03937 0.67277 0.37409 0.0
H886 H 0.97941 0.64945 0.35918 0.0
H887 H 0.93142 0.62073 0.29788 0.0
H888 H 0.94774 0.6162 0.12578 0.0
H889 H 0.00795 0.65243 0.13844 0.0
C890 C 0.03922 0.67154 0.23493 0.0
C891 C 0.05168 0.67639 0.28829 0.0
C892 C 0.00468 0.65617 0.22608 0.0
C893 C 0.03001 0.66931 0.33269 0.0
C894 C -0.00419 0.6558 0.32415 0.0
C895 C 0.94814 0.62861 0.26302 0.0
C896 C 0.93542 0.61596 0.21105 0.0
C897 C 0.98274 0.64773 0.27117 0.0
C898 C 0.95719 0.62566 0.16617 0.0
C899 C -0.00845 0.64623 0.17346 0.0
H900 H 0.63612 0.67484 0.8389 0.0
H901 H 0.57725 0.66002 0.69446 0.0
H902 H 0.60465 0.63312 0.64879 0.0
H903 H 0.64086 0.6083 0.65388 0.0
H904 H 0.70214 0.62562 0.79644 0.0
H905 H 0.67912 0.65769 0.83818 0.0
C906 C 0.63003 0.6664 0.79703 0.0
C907 C 0.6049 0.66929 0.76984 0.0
C908 C 0.64623 0.65131 0.77072 0.0
C909 C 0.59683 0.65817 0.71577 0.0
C910 C 0.61233 0.64267 0.68977 0.0
C911 C 0.6497 0.61975 0.69353 0.0
C912 C 0.6729 0.61428 0.7221 0.0
C913 C 0.63646 0.63832 0.71734 0.0
C914 C 0.68435 0.62949 0.77335 0.0
C915 C 0.67098 0.64763 0.79759 0.0
H916 H 0.32247 0.9554 0.83733 0.0
H917 H 0.30536 0.908 0.68013 0.0
H918 H 0.32721 0.96225 0.63466 0.0
H919 H 0.35899 0.02396 0.64068 0.0
H920 H 0.37182 0.07108 0.79731 0.0
H921 H 0.34322 0.01628 0.84198 0.0
C922 C 0.32259 0.95698 0.79315 0.0
C923 C 0.31253 0.928 0.76202 0.0
C924 C 0.33463 0.9882 0.76724 0.0
C925 C 0.31276 0.93009 0.70481 0.0
C926 C 0.32551 0.9611 0.6788 0.0
C927 C 0.35446 0.02205 0.68433 0.0
C928 C 0.3675 0.05131 0.71575 0.0
C929 C 0.3376 0.99045 0.70967 0.0
C930 C 0.36167 0.04877 0.77229 0.0
C931 C 0.34563 0.01747 0.79794 0.0
H932 H 0.95053 0.32819 0.65579 0.0
H933 H 0.90791 0.31498 0.81648 0.0
H934 H 0.96346 0.33949 0.85744 0.0
H935 H 0.02485 0.37098 0.84614 0.0
H936 H 0.06679 0.37947 0.68578 0.0
H937 H 0.01101 0.35013 0.64616 0.0
C938 C 0.95349 0.32989 0.69979 0.0
C939 C 0.9255 0.31998 0.73317 0.0
C940 C 0.98538 0.3434 0.72307 0.0
C941 C 0.9293 0.32223 0.79014 0.0
C942 C 0.96103 0.33649 0.81354 0.0
C943 C 0.02159 0.3656 0.8028 0.0
C944 C 0.04971 0.37744 0.76892 0.0
C945 C 0.98936 0.34808 0.78027 0.0
C946 C 0.0454 0.37034 0.71276 0.0
C947 C 0.01354 0.35379 0.68993 0.0
H948 H 0.47079 0.18954 0.9376 0.0
H949 H 0.39084 0.18597 0.84089 0.0
H950 H 0.3762 0.21112 0.91488 0.0
H951 H 0.39348 0.24435 -0.00172 0.0
H952 H 0.47431 0.24959 0.09401 0.0
H953 H 0.48044 0.21271 0.03009 0.0
C954 C 0.44974 0.19362 0.93311 0.0
C955 C 0.43282 0.18708 0.8831 0.0
C956 C 0.44169 0.20863 0.97553 0.0
C957 C 0.40496 0.19161 0.87847 0.0
C958 C 0.39649 0.20602 0.92078 0.0
C959 C 0.41186 0.23672 0.00587 0.0
C960 C 0.43414 0.25053 0.04964 0.0
C961 C 0.41585 0.21628 0.96819 0.0
C962 C 0.45721 0.23972 0.05999 0.0
C963 C 0.46092 0.21882 0.0232 0.0
H964 H 0.72409 0.21261 0.06944 0.0
H965 H 0.74102 0.13478 0.00762 0.0
H966 H 0.77484 0.17163 0.93328 0.0
H967 H 0.79165 0.22218 0.87839 0.0
H968 H 0.77113 0.29834 0.93735 0.0
H969 H 0.74661 0.26584 0.02005 0.0
C970 C 0.73612 0.20407 0.04084 0.0
C971 C 0.72996 0.17094 0.04397 0.0
C972 C 0.75428 0.22485 0.99693 0.0
C973 C 0.74533 0.16014 0.00602 0.0
C974 C 0.76444 0.18112 0.96326 0.0
C975 C 0.7824 0.23204 0.90973 0.0
C976 C 0.78277 0.26246 0.90101 0.0
C977 C 0.76781 0.21295 0.95702 0.0
C978 C 0.77094 0.27489 0.9425 0.0
C979 C 0.75692 0.25632 0.99004 0.0
H980 H 0.8324 0.60554 0.03235 0.0
H981 H 0.76256 0.51831 0.12419 0.0
H982 H 0.71862 0.50749 0.05892 0.0
H983 H 0.70456 0.51495 0.96483 0.0
H984 H 0.77578 0.60091 0.87146 0.0
H985 H 0.8143 0.61992 0.94795 0.0
C986 C 0.80728 0.5848 0.03907 0.0
C987 C 0.80112 0.56225 0.08213 0.0
C988 C 0.7825 0.57782 0.0 0.0
C989 C 0.76822 0.53595 0.09108 0.0
C990 C 0.74309 0.52941 0.05321 0.0
C991 C 0.72814 0.53825 0.96165 0.0
C992 C 0.7377 0.55575 0.91173 0.0
C993 C 0.75062 0.54888 0.00565 0.0
C994 C 0.76809 0.58633 0.90881 0.0
C995 C 0.79022 0.59734 0.95263 0.0
H996 H 0.23565 0.45403 0.40723 0.0
H997 H 0.24179 0.37329 0.48577 0.0
H998 H 0.20503 0.37172 0.55855 0.0
H999 H 0.18214 0.40153 0.60899 0.0
H1000 H 0.18025 0.48539 0.53338 0.0
H1001 H 0.20409 0.47724 0.45037 0.0
C1002 C 0.22808 0.43529 0.4392 0.0
C1003 C 0.24212 0.41436 0.44175 0.0
C1004 C 0.20829 0.43562 0.48224 0.0
C1005 C 0.23178 0.39008 0.48334 0.0
C1006 C 0.21095 0.38933 0.52522 0.0
C1007 C 0.18611 0.41752 0.57392 0.0
C1008 C 0.18029 0.44463 0.57808 0.0
C1009 C 0.20078 0.41334 0.5267 0.0
C1010 C 0.18514 0.46474 0.53183 0.0
C1011 C 0.19879 0.4601 0.48418 0.0
H1012 H 0.51661 0.71142 0.543 0.0
H1013 H 0.59119 0.78865 0.64587 0.0
H1014 H 0.60793 0.82879 0.57147 0.0
H1015 H 0.59397 0.84443 0.48445 0.0
H1016 H 0.51961 0.76822 0.38083 0.0
H1017 H 0.51104 0.7251 0.44752 0.0
C1018 C 0.53697 0.73684 0.54884 0.0
C1019 C 0.5518 0.74718 0.60058 0.0
C1020 C 0.54638 0.76012 0.50589 0.0
C1021 C 0.57873 0.78005 0.60693 0.0
C1022 C 0.58841 0.80315 0.56434 0.0
C1023 C 0.57649 0.81831 0.47563 0.0
C1024 C 0.55612 0.80969 0.42903 0.0
C1025 C 0.57127 0.79386 0.51463 0.0
C1026 C 0.53456 0.77561 0.41748 0.0
C1027 C 0.52961 0.75096 0.45571 0.0
H1028 H 0.22303 0.79979 0.61672 0.0
H1029 H 0.29668 0.77528 0.56011 0.0
H1030 H 0.26558 0.75305 0.47582 0.0
H1031 H 0.21362 0.73336 0.42398 0.0
H1032 H 0.13929 0.75656 0.4812 0.0
H1033 H 0.17495 0.78737 0.55812 0.0
C1034 C 0.23251 0.78998 0.58568 0.0
C1035 C 0.26186 0.78869 0.59549 0.0
C1036 C 0.21444 0.77711 0.53697 0.0
C1037 C 0.27401 0.77637 0.55419 0.0
C1038 C 0.25625 0.76364 0.50572 0.0
C1039 C 0.20576 0.74624 0.45204 0.0
C1040 C 0.17371 0.74246 0.44697 0.0
C1041 C 0.22592 0.76297 0.49733 0.0
C1042 C 0.1638 0.75899 0.48425 0.0
C1043 C 0.18404 0.77633 0.52863 0.0
H1044 H 0.50904 0.7352 0.91831 0.0
H1045 H 0.60451 0.75457 0.98 0.0
H1046 H 0.60082 0.7879 0.0541 0.0
H1047 H 0.56575 0.80209 0.1101 0.0
H1048 H 0.46826 0.7787 0.05161 0.0
H1049 H 0.47731 0.75594 0.968 0.0
C1050 C 0.52961 0.74771 0.94678 0.0
C1051 C 0.55685 0.74216 0.94408 0.0
C1052 C 0.5265 0.76531 0.99081 0.0
C1053 C 0.5832 0.75835 0.9815 0.0
C1054 C 0.58093 0.77711 0.02417 0.0
C1055 C 0.54671 0.7926 0.07865 0.0
C1056 C 0.5161 0.79147 0.08773 0.0
C1057 C 0.55189 0.77921 0.03078 0.0
C1058 C 0.49195 0.7796 0.04608 0.0
C1059 C 0.49712 0.76665 -0.00195 0.0
H1060 H 0.25569 0.77247 0.9251 0.0
H1061 H 0.23783 0.85215 0.97245 0.0
H1062 H 0.20355 0.8186 0.04887 0.0
H1063 H 0.18686 0.77072 0.11107 0.0
H1064 H 0.20564 0.69136 0.06397 0.0
H1065 H 0.23079 0.72038 0.97921 0.0
C1066 C 0.24337 0.78199 0.951 0.0
C1067 C 0.24985 0.81496 0.94351 0.0
C1068 C 0.2244 0.7629 0.99601 0.0
C1069 C 0.23363 0.82696 0.97761 0.0
C1070 C 0.2142 0.80789 0.0217 0.0
C1071 C 0.19592 0.75946 0.08188 0.0
C1072 C 0.19496 0.72921 0.09489 0.0
C1073 C 0.21078 0.77648 0.03287 0.0
C1074 C 0.20645 0.71488 0.05589 0.0
C1075 C 0.22094 0.73148 0.00707 0.0
H1076 H 0.1425 0.38341 0.97576 0.0
H1077 H 0.21823 0.46634 0.88297 0.0
H1078 H 0.26 0.47489 0.9512 0.0
H1079 H 0.27143 0.46721 0.04642 0.0
H1080 H 0.19452 0.38631 0.14154 0.0
H1081 H 0.157 0.36871 0.06356 0.0
C1082 C 0.16837 0.40266 0.96961 0.0
C1083 C 0.17705 0.42468 0.92493 0.0
C1084 C 0.19191 0.40851 0.01043 0.0
C1085 C 0.2108 0.44905 0.91695 0.0
C1086 C 0.23465 0.45434 0.95654 0.0
C1087 C 0.24669 0.44534 0.04982 0.0
C1088 C 0.23549 0.42881 0.10028 0.0
C1089 C 0.22494 0.43561 0.00502 0.0
C1090 C 0.20365 0.39998 0.10353 0.0
C1091 C 0.18208 0.38984 0.05891 0.0
H1092 H 0.81847 0.58349 0.41028 0.0
H1093 H 0.79054 0.48219 0.45655 0.0
H1094 H 0.76367 0.48701 0.53823 0.0
H1095 H 0.74133 0.51634 0.58942 0.0
H1096 H 0.76413 0.61531 0.53917 0.0
H1097 H 0.80205 0.61598 0.46898 0.0
C1098 C 0.80762 0.56288 0.43923 0.0
C1099 C 0.80604 0.53235 0.42653 0.0
C1100 C 0.79201 0.56566 0.48648 0.0
C1101 C 0.79205 0.50599 0.46482 0.0
C1102 C 0.77683 0.50872 0.51202 0.0
C1103 C 0.75559 0.53858 0.56454 0.0
C1104 C 0.74978 0.5656 0.56903 0.0
C1105 C 0.77568 0.53796 0.52231 0.0
C1106 C 0.76815 0.59414 0.53617 0.0
C1107 C 0.78956 0.59438 0.49571 0.0
H1108 H 0.45203 0.26975 0.44717 0.0
H1109 H 0.39068 0.19418 0.32937 0.0
H1110 H 0.37201 0.1511 0.39919 0.0
H1111 H 0.38346 0.13377 0.4868 0.0
H1112 H 0.44508 0.20862 0.60465 0.0
H1113 H 0.45215 0.25302 0.54239 0.0
C1114 C 0.43402 0.24399 0.43705 0.0
C1115 C 0.42395 0.23505 0.38276 0.0
C1116 C 0.4236 0.21907 0.47727 0.0
C1117 C 0.39971 0.20171 0.37061 0.0
C1118 C 0.38891 0.17692 0.41052 0.0
C1119 C 0.39766 0.15973 0.49958 0.0
C1120 C 0.41534 0.16804 0.54892 0.0
C1121 C 0.4023 0.18509 0.46306 0.0
C1122 C 0.43248 0.2017 0.56577 0.0
C1123 C 0.43661 0.22712 0.53013 0.0
H1124 H 0.70708 0.20043 0.43938 0.0
H1125 H 0.77959 0.18841 0.3459 0.0
H1126 H 0.81906 0.21083 0.4211 0.0
H1127 H 0.83616 0.2421 0.50698 0.0
H1128 H 0.76472 0.25717 0.59723 0.0
H1129 H 0.72155 0.22424 0.53113 0.0
C1130 C 0.73129 0.20217 0.43573 0.0
C1131 C 0.74055 0.1935 0.38648 0.0
C1132 C 0.75419 0.21558 0.47887 0.0
C1133 C 0.77187 0.1954 0.38295 0.0
C1134 C 0.79458 0.20826 0.42599 0.0
C1135 C 0.81091 0.2374 0.51297 0.0
C1136 C 0.80377 0.25215 0.5572 0.0
C1137 C 0.78649 0.21967 0.47325 0.0
C1138 C 0.77086 0.24565 0.56436 0.0
C1139 C 0.7462 0.22727 0.52588 0.0
loop_
_geom_bond_atom_site_label_1
_geom_bond_atom_site_label_2
_geom_bond_distance
_geom_bond_site_symmetry_2
_ccdc_geom_bond_type
C0 O27 1.312 . S
C0 O28 1.201 1_554 S
C1 O22 1.331 . S
C1 O25 1.244 . S
C2 O24 1.264 . S
C2 O26 1.273 . S
Mg3 O5 1.936 . S
Mg3 O12 2.081 . S
Mg3 O14 2.023 . S
Mg3 O18 2.031 . S
Mg3 O27 2.291 . S
Mg4 O5 1.963 . S
Mg4 O15 1.942 . S
Mg4 O16 1.955 . S
Mg4 O23 1.986 . S
O5 Mg3 1.936 . S
O5 Mg4 1.963 . S
O5 Mg6 1.915 . S
Mg6 O5 1.915 . S
Mg6 O7 1.915 . S
Mg6 O11 2.013 . S
Mg6 O17 2.114 . S
Mg6 O21 2.013 . S
Mg6 O27 2.114 . S
O7 Mg6 1.915 . S
O7 Mg8 1.936 . S
O7 Mg9 1.963 . S
Mg8 O7 1.936 . S
Mg8 O17 2.291 . S
Mg8 O22 2.081 1_554 S
Mg8 O24 2.023 . S
Mg8 O28 2.024 1_554 S
Mg9 O7 1.963 . S
Mg9 O13 1.986 . S
Mg9 O25 1.942 1_554 S
Mg9 O26 1.955 . S
C10 O21 1.191 . S
C10 O23 1.307 . S
O11 Mg6 2.013 . S
O11 C30 1.191 . S
O12 Mg3 2.081 . S
O12 C20 1.331 . S
O13 Mg9 1.986 . S
O13 C30 1.307 . S
O14 Mg3 2.023 . S
O14 C29 1.264 . S
O15 Mg4 1.942 . S
O15 C20 1.244 . S
O16 Mg4 1.955 . S
O16 C29 1.273 . S
O17 Mg6 2.114 . S
O17 Mg8 2.291 . S
O17 C19 1.312 . S
O18 Mg3 2.031 . S
O18 C19 1.208 . S
C19 O17 1.312 . S
C19 O18 1.208 . S
C20 O12 1.331 . S
C20 O15 1.244 . S
O21 Mg6 2.013 . S
O21 C10 1.191 . S
O22 C1 1.331 . S
O22 Mg8 2.081 1_556 S
O23 Mg4 1.986 . S
O23 C10 1.307 . S
O24 C2 1.264 . S
O24 Mg8 2.023 . S
O25 C1 1.244 . S
O25 Mg9 1.942 1_556 S
O26 C2 1.273 . S
O26 Mg9 1.955 . S
O27 C0 1.312 . S
O27 Mg3 2.291 . S
O27 Mg6 2.114 . S
O28 C0 1.201 1_556 S
O28 Mg8 2.024 1_556 S
C29 O14 1.264 . S
C29 O16 1.273 . S
C30 O11 1.191 . S
C30 O13 1.307 . S
C31 O58 1.312 . S
C31 O59 1.201 1_554 S
C32 O53 1.331 . S
C32 O56 1.244 . S
C33 O55 1.264 . S
C33 O57 1.273 . S
Mg34 O36 1.936 . S
Mg34 O43 2.081 . S
Mg34 O45 2.023 . S
Mg34 O49 2.031 . S
Mg34 O58 2.291 . S
Mg35 O36 1.963 . S
Mg35 O46 1.942 . S
Mg35 O47 1.955 . S
Mg35 O54 1.986 . S
O36 Mg34 1.936 . S
O36 Mg35 1.963 . S
O36 Mg37 1.915 . S
Mg37 O36 1.915 . S
Mg37 O38 1.915 . S
Mg37 O42 2.013 . S
Mg37 O48 2.114 . S
Mg37 O52 2.013 . S
Mg37 O58 2.114 . S
O38 Mg37 1.915 . S
O38 Mg39 1.936 . S
O38 Mg40 1.963 . S
Mg39 O38 1.936 . S
Mg39 O48 2.291 . S
Mg39 O53 2.081 1_554 S
Mg39 O55 2.023 . S
Mg39 O59 2.025 1_554 S
Mg40 O38 1.963 . S
Mg40 O44 1.986 . S
Mg40 O56 1.942 1_554 S
Mg40 O57 1.955 . S
C41 O52 1.191 . S
C41 O54 1.307 . S
O42 Mg37 2.013 . S
O42 C61 1.191 . S
O43 Mg34 2.081 . S
O43 C51 1.331 . S
O44 Mg40 1.986 . S
O44 C61 1.307 . S
O45 Mg34 2.023 . S
O45 C60 1.264 . S
O46 Mg35 1.942 . S
O46 C51 1.244 . S
O47 Mg35 1.955 . S
O47 C60 1.273 . S
O48 Mg37 2.114 . S
O48 Mg39 2.291 . S
O48 C50 1.312 . S
O49 Mg34 2.031 . S
O49 C50 1.208 . S
C50 O48 1.312 . S
C50 O49 1.208 . S
C51 O43 1.331 . S
C51 O46 1.244 . S
O52 Mg37 2.013 . S
O52 C41 1.191 . S
O53 C32 1.331 . S
O53 Mg39 2.081 1_556 S
O54 Mg35 1.986 . S
O54 C41 1.307 . S
O55 C33 1.264 . S
O55 Mg39 2.023 . S
O56 C32 1.244 . S
O56 Mg40 1.942 1_556 S
O57 C33 1.273 . S
O57 Mg40 1.955 . S
O58 C31 1.312 . S
O58 Mg34 2.291 . S
O58 Mg37 2.114 . S
O59 C31 1.201 1_556 S
O59 Mg39 2.025 1_556 S
C60 O45 1.264 . S
C60 O47 1.273 . S
C61 O42 1.191 . S
C61 O44 1.307 . S
C62 O89 1.312 . S
C62 O90 1.208 . S
C63 O84 1.331 . S
C63 O87 1.244 . S
C64 O86 1.264 . S
C64 O88 1.273 . S
Mg65 O67 1.936 . S
Mg65 O74 2.081 1_554 S
Mg65 O76 2.023 . S
Mg65 O80 2.024 1_554 S
Mg65 O89 2.291 . S
Mg66 O67 1.963 . S
Mg66 O77 1.942 1_554 S
Mg66 O78 1.955 . S
Mg66 O85 1.986 . S
O67 Mg65 1.936 . S
O67 Mg66 1.963 . S
O67 Mg68 1.915 . S
Mg68 O67 1.915 . S
Mg68 O69 1.915 . S
Mg68 O73 2.013 . S
Mg68 O79 2.114 . S
Mg68 O83 2.013 . S
Mg68 O89 2.114 . S
O69 Mg68 1.915 . S
O69 Mg70 1.936 . S
O69 Mg71 1.963 . S
Mg70 O69 1.936 . S
Mg70 O79 2.291 . S
Mg70 O84 2.081 . S
Mg70 O86 2.023 . S
Mg70 O90 2.031 . S
Mg71 O69 1.963 . S
Mg71 O75 1.986 . S
Mg71 O87 1.942 . S
Mg71 O88 1.955 . S
C72 O83 1.191 . S
C72 O85 1.307 . S
O73 Mg68 2.013 . S
O73 C92 1.191 . S
O74 Mg65 2.081 1_556 S
O74 C82 1.331 . S
O75 Mg71 1.986 . S
O75 C92 1.307 . S
O76 Mg65 2.023 . S
O76 C91 1.264 . S
O77 Mg66 1.942 1_556 S
O77 C82 1.244 . S
O78 Mg66 1.955 . S
O78 C91 1.273 . S
O79 Mg68 2.114 . S
O79 Mg70 2.291 . S
O79 C81 1.312 . S
O80 Mg65 2.024 1_556 S
O80 C81 1.201 1_556 S
C81 O79 1.312 . S
C81 O80 1.201 1_554 S
C82 O74 1.331 . S
C82 O77 1.244 . S
O83 Mg68 2.013 . S
O83 C72 1.191 . S
O84 C63 1.331 . S
O84 Mg70 2.081 . S
O85 Mg66 1.986 . S
O85 C72 1.307 . S
O86 C64 1.264 . S
O86 Mg70 2.023 . S
O87 C63 1.244 . S
O87 Mg71 1.942 . S
O88 C64 1.273 . S
O88 Mg71 1.955 . S
O89 C62 1.312 . S
O89 Mg65 2.291 . S
O89 Mg68 2.114 . S
O90 C62 1.208 . S
O90 Mg70 2.031 . S
C91 O76 1.264 . S
C91 O78 1.273 . S
C92 O73 1.191 . S
C92 O75 1.307 . S
C93 O120 1.312 . S
C93 O121 1.208 . S
C94 O115 1.331 . S
C94 O118 1.244 . S
C95 O117 1.264 . S
C95 O119 1.273 . S
Mg96 O98 1.936 . S
Mg96 O105 2.081 . S
Mg96 O107 2.023 . S
Mg96 O111 2.031 . S
Mg96 O120 2.291 . S
Mg97 O98 1.963 . S
Mg97 O108 1.942 . S
Mg97 O109 1.955 . S
Mg97 O116 1.986 . S
O98 Mg96 1.936 . S
O98 Mg97 1.963 . S
O98 Mg99 1.915 . S
Mg99 O98 1.915 . S
Mg99 O100 1.915 . S
Mg99 O104 2.013 . S
Mg99 O110 2.114 . S
Mg99 O114 2.013 . S
Mg99 O120 2.114 . S
O100 Mg99 1.915 . S
O100 Mg101 1.936 . S
O100 Mg102 1.963 . S
Mg101 O100 1.936 . S
Mg101 O110 2.291 . S
Mg101 O115 2.081 . S
Mg101 O117 2.023 . S
Mg101 O121 2.031 . S
Mg102 O100 1.963 . S
Mg102 O106 1.986 . S
Mg102 O118 1.942 . S
Mg102 O119 1.955 . S
C103 O114 1.191 . S
C103 O116 1.307 . S
O104 Mg99 2.013 . S
O104 C123 1.191 . S
O105 Mg96 2.081 . S
O105 C113 1.331 . S
O106 Mg102 1.986 . S
O106 C123 1.307 . S
O107 Mg96 2.023 . S
O107 C122 1.264 . S
O108 Mg97 1.942 . S
O108 C113 1.244 . S
O109 Mg97 1.955 . S
O109 C122 1.273 . S
O110 Mg99 2.114 . S
O110 Mg101 2.291 . S
O110 C112 1.312 . S
O111 Mg96 2.031 . S
O111 C112 1.208 . S
C112 O110 1.312 . S
C112 O111 1.208 . S
C113 O105 1.331 . S
C113 O108 1.244 . S
O114 Mg99 2.013 . S
O114 C103 1.191 . S
O115 C94 1.331 . S
O115 Mg101 2.081 . S
O116 Mg97 1.986 . S
O116 C103 1.307 . S
O117 C95 1.264 . S
O117 Mg101 2.023 . S
O118 C94 1.244 . S
O118 Mg102 1.942 . S
O119 C95 1.273 . S
O119 Mg102 1.955 . S
O120 C93 1.312 . S
O120 Mg96 2.291 . S
O120 Mg99 2.114 . S
O121 C93 1.208 . S
O121 Mg101 2.031 . S
C122 O107 1.264 . S
C122 O109 1.273 . S
C123 O104 1.191 . S
C123 O106 1.307 . S
C124 O151 1.312 . S
C124 O152 1.208 . S
C125 O146 1.331 . S
C125 O149 1.244 . S
C126 O148 1.264 . S
C126 O150 1.273 . S
Mg127 O129 1.936 . S
Mg127 O136 2.081 . S
Mg127 O138 2.023 . S
Mg127 O142 2.031 . S
Mg127 O151 2.291 . S
Mg128 O129 1.963 . S
Mg128 O139 1.942 . S
Mg128 O140 1.955 . S
Mg128 O147 1.986 . S
O129 Mg127 1.936 . S
O129 Mg128 1.963 . S
O129 Mg130 1.915 . S
Mg130 O129 1.915 . S
Mg130 O131 1.915 . S
Mg130 O135 2.013 . S
Mg130 O141 2.114 . S
Mg130 O145 2.013 . S
Mg130 O151 2.114 . S
O131 Mg130 1.915 . S
O131 Mg132 1.936 . S
O131 Mg133 1.963 . S
Mg132 O131 1.936 . S
Mg132 O141 2.291 . S
Mg132 O146 2.081 . S
Mg132 O148 2.023 . S
Mg132 O152 2.031 . S
Mg133 O131 1.963 . S
Mg133 O137 1.986 . S
Mg133 O149 1.942 . S
Mg133 O150 1.955 . S
C134 O145 1.191 . S
C134 O147 1.307 . S
O135 Mg130 2.013 . S
O135 C154 1.191 . S
O136 Mg127 2.081 . S
O136 C144 1.331 . S
O137 Mg133 1.986 . S
O137 C154 1.307 . S
O138 Mg127 2.023 . S
O138 C153 1.264 . S
O139 Mg128 1.942 . S
O139 C144 1.244 . S
O140 Mg128 1.955 . S
O140 C153 1.273 . S
O141 Mg130 2.114 . S
O141 Mg132 2.291 . S
O141 C143 1.312 . S
O142 Mg127 2.031 . S
O142 C143 1.208 . S
C143 O141 1.312 . S
C143 O142 1.208 . S
C144 O136 1.331 . S
C144 O139 1.244 . S
O145 Mg130 2.013 . S
O145 C134 1.191 . S
O146 C125 1.331 . S
O146 Mg132 2.081 . S
O147 Mg128 1.986 . S
O147 C134 1.307 . S
O148 C126 1.264 . S
O148 Mg132 2.023 . S
O149 C125 1.244 . S
O149 Mg133 1.942 . S
O150 C126 1.273 . S
O150 Mg133 1.955 . S
O151 C124 1.312 . S
O151 Mg127 2.291 . S
O151 Mg130 2.114 . S
O152 C124 1.208 . S
O152 Mg132 2.031 . S
C153 O138 1.264 . S
C153 O140 1.273 . S
C154 O135 1.191 . S
C154 O137 1.307 . S
C155 O182 1.312 . S
C155 O183 1.208 . S
C156 O177 1.331 . S
C156 O180 1.244 . S
C157 O179 1.264 . S
C157 O181 1.273 . S
Mg158 O160 1.936 . S
Mg158 O167 2.081 . S
Mg158 O169 2.023 . S
Mg158 O173 2.031 . S
Mg158 O182 2.291 . S
Mg159 O160 1.963 . S
Mg159 O170 1.942 . S
Mg159 O171 1.955 . S
Mg159 O178 1.986 . S
O160 Mg158 1.936 . S
O160 Mg159 1.963 . S
O160 Mg161 1.915 . S
Mg161 O160 1.915 . S
Mg161 O162 1.915 . S
Mg161 O166 2.013 . S
Mg161 O172 2.114 . S
Mg161 O176 2.013 . S
Mg161 O182 2.114 . S
O162 Mg161 1.915 . S
O162 Mg163 1.936 . S
O162 Mg164 1.963 . S
Mg163 O162 1.936 . S
Mg163 O172 2.291 . S
Mg163 O177 2.081 . S
Mg163 O179 2.023 . S
Mg163 O183 2.031 . S
Mg164 O162 1.963 . S
Mg164 O168 1.986 . S
Mg164 O180 1.942 . S
Mg164 O181 1.955 . S
C165 O176 1.191 . S
C165 O178 1.307 . S
O166 Mg161 2.013 . S
O166 C185 1.191 . S
O167 Mg158 2.081 . S
O167 C175 1.331 . S
O168 Mg164 1.986 . S
O168 C185 1.307 . S
O169 Mg158 2.023 . S
O169 C184 1.264 . S
O170 Mg159 1.942 . S
O170 C175 1.244 . S
O171 Mg159 1.955 . S
O171 C184 1.273 . S
O172 Mg161 2.114 . S
O172 Mg163 2.291 . S
O172 C174 1.312 . S
O173 Mg158 2.031 . S
O173 C174 1.208 . S
C174 O172 1.312 . S
C174 O173 1.208 . S
C175 O167 1.331 . S
C175 O170 1.244 . S
O176 Mg161 2.013 . S
O176 C165 1.191 . S
O177 C156 1.331 . S
O177 Mg163 2.081 . S
O178 Mg159 1.986 . S
O178 C165 1.307 . S
O179 C157 1.264 . S
O179 Mg163 2.023 . S
O180 C156 1.244 . S
O180 Mg164 1.942 . S
O181 C157 1.273 . S
O181 Mg164 1.955 . S
O182 C155 1.312 . S
O182 Mg158 2.291 . S
O182 Mg161 2.114 . S
O183 C155 1.208 . S
O183 Mg163 2.031 . S
C184 O169 1.264 . S
C184 O171 1.273 . S
C185 O166 1.191 . S
C185 O168 1.307 . S
C186 O213 1.312 . S
C186 O214 1.201 1_556 S
C187 O208 1.331 . S
C187 O211 1.244 . S
C188 O210 1.264 . S
C188 O212 1.273 . S
Mg189 O191 1.936 . S
Mg189 O198 2.081 . S
Mg189 O200 2.023 . S
Mg189 O204 2.031 . S
Mg189 O213 2.291 . S
Mg190 O191 1.963 . S
Mg190 O201 1.942 . S
Mg190 O202 1.955 . S
Mg190 O209 1.986 . S
O191 Mg189 1.936 . S
O191 Mg190 1.963 . S
O191 Mg192 1.915 . S
Mg192 O191 1.915 . S
Mg192 O193 1.915 . S
Mg192 O197 2.013 . S
Mg192 O203 2.114 . S
Mg192 O207 2.013 . S
Mg192 O213 2.114 . S
O193 Mg192 1.915 . S
O193 Mg194 1.936 . S
O193 Mg195 1.963 . S
Mg194 O193 1.936 . S
Mg194 O203 2.291 . S
Mg194 O208 2.081 1_556 S
Mg194 O210 2.023 . S
Mg194 O214 2.024 1_556 S
Mg195 O193 1.963 . S
Mg195 O199 1.986 . S
Mg195 O211 1.942 1_556 S
Mg195 O212 1.955 . S
C196 O207 1.191 . S
C196 O209 1.307 . S
O197 Mg192 2.013 . S
O197 C216 1.191 . S
O198 Mg189 2.081 . S
O198 C206 1.331 . S
O199 Mg195 1.986 . S
O199 C216 1.307 . S
O200 Mg189 2.023 . S
O200 C215 1.264 . S
O201 Mg190 1.942 . S
O201 C206 1.244 . S
O202 Mg190 1.955 . S
O202 C215 1.273 . S
O203 Mg192 2.114 . S
O203 Mg194 2.291 . S
O203 C205 1.312 . S
O204 Mg189 2.031 . S
O204 C205 1.208 . S
C205 O203 1.312 . S
C205 O204 1.208 . S
C206 O198 1.331 . S
C206 O201 1.244 . S
O207 Mg192 2.013 . S
O207 C196 1.191 . S
O208 C187 1.331 . S
O208 Mg194 2.081 1_554 S
O209 Mg190 1.986 . S
O209 C196 1.307 . S
O210 C188 1.264 . S
O210 Mg194 2.023 . S
O211 C187 1.244 . S
O211 Mg195 1.942 1_554 S
O212 C188 1.273 . S
O212 Mg195 1.955 . S
O213 C186 1.312 . S
O213 Mg189 2.291 . S
O213 Mg192 2.114 . S
O214 C186 1.201 1_554 S
O214 Mg194 2.024 1_554 S
C215 O200 1.264 . S
C215 O202 1.273 . S
C216 O197 1.191 . S
C216 O199 1.307 . S
C217 O244 1.312 . S
C217 O245 1.208 . S
C218 O239 1.331 . S
C218 O242 1.244 . S
C219 O241 1.264 . S
C219 O243 1.273 . S
Mg220 O222 1.936 . S
Mg220 O229 2.081 1_556 S
Mg220 O231 2.023 . S
Mg220 O235 2.025 1_556 S
Mg220 O244 2.291 . S
Mg221 O222 1.963 . S
Mg221 O232 1.942 1_556 S
Mg221 O233 1.955 . S
Mg221 O240 1.986 . S
O222 Mg220 1.936 . S
O222 Mg221 1.963 . S
O222 Mg223 1.915 . S
Mg223 O222 1.915 . S
Mg223 O224 1.915 . S
Mg223 O228 2.013 . S
Mg223 O234 2.114 . S
Mg223 O238 2.013 . S
Mg223 O244 2.114 . S
O224 Mg223 1.915 . S
O224 Mg225 1.936 . S
O224 Mg226 1.963 . S
Mg225 O224 1.936 . S
Mg225 O234 2.291 . S
Mg225 O239 2.081 . S
Mg225 O241 2.023 . S
Mg225 O245 2.031 . S
Mg226 O224 1.963 . S
Mg226 O230 1.986 . S
Mg226 O242 1.942 . S
Mg226 O243 1.955 . S
C227 O238 1.191 . S
C227 O240 1.307 . S
O228 Mg223 2.013 . S
O228 C247 1.191 . S
O229 Mg220 2.081 1_554 S
O229 C237 1.331 . S
O230 Mg226 1.986 . S
O230 C247 1.307 . S
O231 Mg220 2.023 . S
O231 C246 1.264 . S
O232 Mg221 1.942 1_554 S
O232 C237 1.244 . S
O233 Mg221 1.955 . S
O233 C246 1.273 . S
O234 Mg223 2.114 . S
O234 Mg225 2.291 . S
O234 C236 1.312 . S
O235 Mg220 2.025 1_554 S
O235 C236 1.201 1_554 S
C236 O234 1.312 . S
C236 O235 1.201 1_556 S
C237 O229 1.331 . S
C237 O232 1.244 . S
O238 Mg223 2.013 . S
O238 C227 1.191 . S
O239 C218 1.331 . S
O239 Mg225 2.081 . S
O240 Mg221 1.986 . S
O240 C227 1.307 . S
O241 C219 1.264 . S
O241 Mg225 2.023 . S
O242 C218 1.244 . S
O242 Mg226 1.942 . S
O243 C219 1.273 . S
O243 Mg226 1.955 . S
O244 C217 1.312 . S
O244 Mg220 2.291 . S
O244 Mg223 2.114 . S
O245 C217 1.208 . S
O245 Mg225 2.031 . S
C246 O231 1.264 . S
C246 O233 1.273 . S
C247 O228 1.191 . S
C247 O230 1.307 . S
C248 O275 1.312 . S
C248 O276 1.201 1_556 S
C249 O270 1.331 . S
C249 O273 1.244 . S
C250 O272 1.264 . S
C250 O274 1.273 . S
Mg251 O253 1.936 . S
Mg251 O260 2.081 . S
Mg251 O262 2.023 . S
Mg251 O266 2.031 . S
Mg251 O275 2.291 . S
Mg252 O253 1.963 . S
Mg252 O263 1.942 . S
Mg252 O264 1.955 . S
Mg252 O271 1.986 . S
O253 Mg251 1.936 . S
O253 Mg252 1.963 . S
O253 Mg254 1.915 . S
Mg254 O253 1.915 . S
Mg254 O255 1.915 . S
Mg254 O259 2.013 . S
Mg254 O265 2.114 . S
Mg254 O269 2.013 . S
Mg254 O275 2.114 . S
O255 Mg254 1.915 . S
O255 Mg256 1.936 . S
O255 Mg257 1.963 . S
Mg256 O255 1.936 . S
Mg256 O265 2.291 . S
Mg256 O270 2.081 1_556 S
Mg256 O272 2.023 . S
Mg256 O276 2.024 1_556 S
Mg257 O255 1.963 . S
Mg257 O261 1.986 . S
Mg257 O273 1.942 1_556 S
Mg257 O274 1.955 . S
C258 O269 1.191 . S
C258 O271 1.307 . S
O259 Mg254 2.013 . S
O259 C278 1.191 . S
O260 Mg251 2.081 . S
O260 C268 1.331 . S
O261 Mg257 1.986 . S
O261 C278 1.307 . S
O262 Mg251 2.023 . S
O262 C277 1.264 . S
O263 Mg252 1.942 . S
O263 C268 1.244 . S
O264 Mg252 1.955 . S
O264 C277 1.273 . S
O265 Mg254 2.114 . S
O265 Mg256 2.291 . S
O265 C267 1.312 . S
O266 Mg251 2.031 . S
O266 C267 1.208 . S
C267 O265 1.312 . S
C267 O266 1.208 . S
C268 O260 1.331 . S
C268 O263 1.244 . S
O269 Mg254 2.013 . S
O269 C258 1.191 . S
O270 C249 1.331 . S
O270 Mg256 2.081 1_554 S
O271 Mg252 1.986 . S
O271 C258 1.307 . S
O272 C250 1.264 . S
O272 Mg256 2.023 . S
O273 C249 1.244 . S
O273 Mg257 1.942 1_554 S
O274 C250 1.273 . S
O274 Mg257 1.955 . S
O275 C248 1.312 . S
O275 Mg251 2.291 . S
O275 Mg254 2.114 . S
O276 C248 1.201 1_554 S
O276 Mg256 2.024 1_554 S
C277 O262 1.264 . S
C277 O264 1.273 . S
C278 O259 1.191 . S
C278 O261 1.307 . S
C279 O306 1.312 . S
C279 O307 1.208 . S
C280 O301 1.331 . S
C280 O304 1.244 . S
C281 O303 1.264 . S
C281 O305 1.273 . S
Mg282 O284 1.936 . S
Mg282 O291 2.081 . S
Mg282 O293 2.023 . S
Mg282 O297 2.031 . S
Mg282 O306 2.291 . S
Mg283 O284 1.963 . S
Mg283 O294 1.942 . S
Mg283 O295 1.955 . S
Mg283 O302 1.986 . S
O284 Mg282 1.936 . S
O284 Mg283 1.963 . S
O284 Mg285 1.915 . S
Mg285 O284 1.915 . S
Mg285 O286 1.915 . S
Mg285 O290 2.013 . S
Mg285 O296 2.114 . S
Mg285 O300 2.013 . S
Mg285 O306 2.114 . S
O286 Mg285 1.915 . S
O286 Mg287 1.936 . S
O286 Mg288 1.963 . S
Mg287 O286 1.936 . S
Mg287 O296 2.291 . S
Mg287 O301 2.081 . S
Mg287 O303 2.023 . S
Mg287 O307 2.031 . S
Mg288 O286 1.963 . S
Mg288 O292 1.986 . S
Mg288 O304 1.942 . S
Mg288 O305 1.955 . S
C289 O300 1.191 . S
C289 O302 1.307 . S
O290 Mg285 2.013 . S
O290 C309 1.191 . S
O291 Mg282 2.081 . S
O291 C299 1.331 . S
O292 Mg288 1.986 . S
O292 C309 1.307 . S
O293 Mg282 2.023 . S
O293 C308 1.264 . S
O294 Mg283 1.942 . S
O294 C299 1.244 . S
O295 Mg283 1.955 . S
O295 C308 1.273 . S
O296 Mg285 2.114 . S
O296 Mg287 2.291 . S
O296 C298 1.312 . S
O297 Mg282 2.031 . S
O297 C298 1.208 . S
C298 O296 1.312 . S
C298 O297 1.208 . S
C299 O291 1.331 . S
C299 O294 1.244 . S
O300 Mg285 2.013 . S
O300 C289 1.191 . S
O301 C280 1.331 . S
O301 Mg287 2.081 . S
O302 Mg283 1.986 . S
O302 C289 1.307 . S
O303 C281 1.264 . S
O303 Mg287 2.023 . S
O304 C280 1.244 . S
O304 Mg288 1.942 . S
O305 C281 1.273 . S
O305 Mg288 1.955 . S
O306 C279 1.312 . S
O306 Mg282 2.291 . S
O306 Mg285 2.114 . S
O307 C279 1.208 . S
O307 Mg287 2.031 . S
C308 O293 1.264 . S
C308 O295 1.273 . S
C309 O290 1.191 . S
C309 O292 1.307 . S
C310 O337 1.312 . S
C310 O338 1.208 . S
C311 O332 1.331 . S
C311 O335 1.244 . S
C312 O334 1.264 . S
C312 O336 1.273 . S
Mg313 O315 1.936 . S
Mg313 O322 2.081 . S
Mg313 O324 2.023 . S
Mg313 O328 2.031 . S
Mg313 O337 2.291 . S
Mg314 O315 1.963 . S
Mg314 O325 1.942 . S
Mg314 O326 1.955 . S
Mg314 O333 1.986 . S
O315 Mg313 1.936 . S
O315 Mg314 1.963 . S
O315 Mg316 1.915 . S
Mg316 O315 1.915 . S
Mg316 O317 1.915 . S
Mg316 O321 2.013 . S
Mg316 O327 2.114 . S
Mg316 O331 2.013 . S
Mg316 O337 2.114 . S
O317 Mg316 1.915 . S
O317 Mg318 1.936 . S
O317 Mg319 1.963 . S
Mg318 O317 1.936 . S
Mg318 O327 2.291 . S
Mg318 O332 2.081 . S
Mg318 O334 2.023 . S
Mg318 O338 2.031 . S
Mg319 O317 1.963 . S
Mg319 O323 1.986 . S
Mg319 O335 1.942 . S
Mg319 O336 1.955 . S
C320 O331 1.191 . S
C320 O333 1.307 . S
O321 Mg316 2.013 . S
O321 C340 1.191 . S
O322 Mg313 2.081 . S
O322 C330 1.331 . S
O323 Mg319 1.986 . S
O323 C340 1.307 . S
O324 Mg313 2.023 . S
O324 C339 1.264 . S
O325 Mg314 1.942 . S
O325 C330 1.244 . S
O326 Mg314 1.955 . S
O326 C339 1.273 . S
O327 Mg316 2.114 . S
O327 Mg318 2.291 . S
O327 C329 1.312 . S
O328 Mg313 2.031 . S
O328 C329 1.208 . S
C329 O327 1.312 . S
C329 O328 1.208 . S
C330 O322 1.331 . S
C330 O325 1.244 . S
O331 Mg316 2.013 . S
O331 C320 1.191 . S
O332 C311 1.331 . S
O332 Mg318 2.081 . S
O333 Mg314 1.986 . S
O333 C320 1.307 . S
O334 C312 1.264 . S
O334 Mg318 2.023 . S
O335 C311 1.244 . S
O335 Mg319 1.942 . S
O336 C312 1.273 . S
O336 Mg319 1.955 . S
O337 C310 1.312 . S
O337 Mg313 2.291 . S
O337 Mg316 2.114 . S
O338 C310 1.208 . S
O338 Mg318 2.031 . S
C339 O324 1.264 . S
C339 O326 1.273 . S
C340 O321 1.191 . S
C340 O323 1.307 . S
C341 O368 1.312 . S
C341 O369 1.208 . S
C342 O363 1.331 . S
C342 O366 1.244 . S
C343 O365 1.264 . S
C343 O367 1.273 . S
Mg344 O346 1.936 . S
Mg344 O353 2.081 . S
Mg344 O355 2.023 . S
Mg344 O359 2.031 . S
Mg344 O368 2.291 . S
Mg345 O346 1.963 . S
Mg345 O356 1.942 . S
Mg345 O357 1.955 . S
Mg345 O364 1.986 . S
O346 Mg344 1.936 . S
O346 Mg345 1.963 . S
O346 Mg347 1.915 . S
Mg347 O346 1.915 . S
Mg347 O348 1.915 . S
Mg347 O352 2.013 . S
Mg347 O358 2.114 . S
Mg347 O362 2.013 . S
Mg347 O368 2.114 . S
O348 Mg347 1.915 . S
O348 Mg349 1.936 . S
O348 Mg350 1.963 . S
Mg349 O348 1.936 . S
Mg349 O358 2.291 . S
Mg349 O363 2.081 . S
Mg349 O365 2.023 . S
Mg349 O369 2.031 . S
Mg350 O348 1.963 . S
Mg350 O354 1.986 . S
Mg350 O366 1.942 . S
Mg350 O367 1.955 . S
C351 O362 1.191 . S
C351 O364 1.307 . S
O352 Mg347 2.013 . S
O352 C371 1.191 . S
O353 Mg344 2.081 . S
O353 C361 1.331 . S
O354 Mg350 1.986 . S
O354 C371 1.307 . S
O355 Mg344 2.023 . S
O355 C370 1.264 . S
O356 Mg345 1.942 . S
O356 C361 1.244 . S
O357 Mg345 1.955 . S
O357 C370 1.273 . S
O358 Mg347 2.114 . S
O358 Mg349 2.291 . S
O358 C360 1.312 . S
O359 Mg344 2.031 . S
O359 C360 1.208 . S
C360 O358 1.312 . S
C360 O359 1.208 . S
C361 O353 1.331 . S
C361 O356 1.244 . S
O362 Mg347 2.013 . S
O362 C351 1.191 . S
O363 C342 1.331 . S
O363 Mg349 2.081 . S
O364 Mg345 1.986 . S
O364 C351 1.307 . S
O365 C343 1.264 . S
O365 Mg349 2.023 . S
O366 C342 1.244 . S
O366 Mg350 1.942 . S
O367 C343 1.273 . S
O367 Mg350 1.955 . S
O368 C341 1.312 . S
O368 Mg344 2.291 . S
O368 Mg347 2.114 . S
O369 C341 1.208 . S
O369 Mg349 2.031 . S
C370 O355 1.264 . S
C370 O357 1.273 . S
C371 O352 1.191 . S
C371 O354 1.307 . S
H372 C378 0.930 . S
H373 C381 0.930 . S
H374 C382 0.930 . S
H375 C383 0.930 . S
H376 C386 0.930 . S
H377 C387 0.930 . S
C378 H372 0.930 . S
C378 C379 1.355 . S
C378 C380 1.415 . S
C379 C378 1.355 . S
C379 C381 1.419 . S
C380 C378 1.415 . S
C380 C385 1.425 . S
C380 C387 1.409 . S
C381 H373 0.930 . S
C381 C379 1.419 . S
C381 C382 1.362 . S
C382 H374 0.930 . S
C382 C381 1.362 . S
C382 C385 1.409 . S
C383 H375 0.930 . S
C383 C384 1.355 . S
C383 C385 1.415 . S
C384 C383 1.355 . S
C384 C386 1.419 . S
C385 C380 1.425 . S
C385 C382 1.409 . S
C385 C383 1.415 . S
C386 H376 0.930 . S
C386 C384 1.419 . S
C386 C387 1.362 . S
C387 H377 0.930 . S
C387 C380 1.409 . S
C387 C386 1.362 . S
H388 C394 0.930 . S
H389 C397 0.930 . S
H390 C398 0.930 . S
H391 C399 0.930 . S
H392 C402 0.930 . S
H393 C403 0.930 . S
C394 H388 0.930 . S
C394 C395 1.355 . S
C394 C396 1.415 . S
C395 C394 1.355 . S
C395 C397 1.419 . S
C396 C394 1.415 . S
C396 C401 1.425 . S
C396 C403 1.409 . S
C397 H389 0.930 . S
C397 C395 1.419 . S
C397 C398 1.362 . S
C398 H390 0.930 . S
C398 C397 1.362 . S
C398 C401 1.409 . S
C399 H391 0.930 . S
C399 C400 1.355 . S
C399 C401 1.415 . S
C400 C399 1.355 . S
C400 C402 1.419 . S
C401 C396 1.425 . S
C401 C398 1.409 . S
C401 C399 1.415 . S
C402 H392 0.930 . S
C402 C400 1.419 . S
C402 C403 1.362 . S
C403 H393 0.930 . S
C403 C396 1.409 . S
C403 C402 1.362 . S
H404 C410 0.930 . S
H405 C413 0.930 . S
H406 C414 0.930 . S
H407 C415 0.930 . S
H408 C418 0.930 . S
H409 C419 0.930 . S
C410 H404 0.930 . S
C410 C411 1.355 . S
C410 C412 1.415 . S
C411 C410 1.355 . S
C411 C413 1.419 . S
C412 C410 1.415 . S
C412 C417 1.425 . S
C412 C419 1.409 . S
C413 H405 0.930 . S
C413 C411 1.419 . S
C413 C414 1.362 . S
C414 H406 0.930 . S
C414 C413 1.362 . S
C414 C417 1.409 . S
C415 H407 0.930 . S
C415 C416 1.355 . S
C415 C417 1.415 . S
C416 C415 1.355 . S
C416 C418 1.419 . S
C417 C412 1.425 . S
C417 C414 1.409 . S
C417 C415 1.415 . S
C418 H408 0.930 . S
C418 C416 1.419 . S
C418 C419 1.362 . S
C419 H409 0.930 . S
C419 C412 1.409 . S
C419 C418 1.362 . S
H420 C426 0.930 . S
H421 C429 0.930 . S
H422 C430 0.930 . S
H423 C431 0.930 . S
H424 C434 0.930 . S
H425 C435 0.930 . S
C426 H420 0.930 . S
C426 C427 1.355 . S
C426 C428 1.415 . S
C427 C426 1.355 . S
C427 C429 1.419 . S
C428 C426 1.415 . S
C428 C433 1.425 . S
C428 C435 1.409 . S
C429 H421 0.930 . S
C429 C427 1.419 . S
C429 C430 1.362 . S
C430 H422 0.930 . S
C430 C429 1.362 . S
C430 C433 1.409 . S
C431 H423 0.930 . S
C431 C432 1.355 . S
C431 C433 1.415 . S
C432 C431 1.355 . S
C432 C434 1.419 . S
C433 C428 1.425 . S
C433 C430 1.409 . S
C433 C431 1.415 . S
C434 H424 0.930 . S
C434 C432 1.419 . S
C434 C435 1.362 . S
C435 H425 0.930 . S
C435 C428 1.409 . S
C435 C434 1.362 . S
H436 C442 0.930 . S
H437 C445 0.930 . S
H438 C446 0.930 . S
H439 C447 0.930 . S
H440 C450 0.930 . S
H441 C451 0.930 . S
C442 H436 0.930 . S
C442 C443 1.355 . S
C442 C444 1.415 . S
C443 C442 1.355 . S
C443 C445 1.419 . S
C444 C442 1.415 . S
C444 C449 1.425 . S
C444 C451 1.409 . S
C445 H437 0.930 . S
C445 C443 1.419 . S
C445 C446 1.362 . S
C446 H438 0.930 . S
C446 C445 1.362 . S
C446 C449 1.409 . S
C447 H439 0.930 . S
C447 C448 1.355 . S
C447 C449 1.415 . S
C448 C447 1.355 . S
C448 C450 1.419 . S
C449 C444 1.425 . S
C449 C446 1.409 . S
C449 C447 1.415 . S
C450 H440 0.930 . S
C450 C448 1.419 . S
C450 C451 1.362 . S
C451 H441 0.930 . S
C451 C444 1.409 . S
C451 C450 1.362 . S
H452 C458 0.930 . S
H453 C461 0.930 . S
H454 C462 0.930 . S
H455 C463 0.930 . S
H456 C466 0.930 . S
H457 C467 0.930 . S
C458 H452 0.930 . S
C458 C459 1.355 . S
C458 C460 1.415 . S
C459 C458 1.355 . S
C459 C461 1.419 . S
C460 C458 1.415 . S
C460 C465 1.425 . S
C460 C467 1.409 . S
C461 H453 0.930 . S
C461 C459 1.419 . S
C461 C462 1.362 . S
C462 H454 0.930 . S
C462 C461 1.362 . S
C462 C465 1.409 . S
C463 H455 0.930 . S
C463 C464 1.355 . S
C463 C465 1.415 . S
C464 C463 1.355 . S
C464 C466 1.419 . S
C465 C460 1.425 . S
C465 C462 1.409 . S
C465 C463 1.415 . S
C466 H456 0.930 . S
C466 C464 1.419 . S
C466 C467 1.362 . S
C467 H457 0.930 . S
C467 C460 1.409 . S
C467 C466 1.362 . S
H468 C474 0.930 . S
H469 C477 0.930 . S
H470 C478 0.930 . S
H471 C479 0.930 . S
H472 C482 0.930 . S
H473 C483 0.930 . S
C474 H468 0.930 . S
C474 C475 1.355 . S
C474 C476 1.415 . S
C475 C474 1.355 . S
C475 C477 1.419 . S
C476 C474 1.415 . S
C476 C481 1.425 . S
C476 C483 1.409 . S
C477 H469 0.930 . S
C477 C475 1.419 . S
C477 C478 1.362 . S
C478 H470 0.930 . S
C478 C477 1.362 . S
C478 C481 1.409 . S
C479 H471 0.930 . S
C479 C480 1.355 . S
C479 C481 1.415 . S
C480 C479 1.355 . S
C480 C482 1.419 . S
C481 C476 1.425 . S
C481 C478 1.409 . S
C481 C479 1.415 . S
C482 H472 0.930 . S
C482 C480 1.419 . S
C482 C483 1.362 . S
C483 H473 0.930 . S
C483 C476 1.409 . S
C483 C482 1.362 . S
H484 C490 0.930 . S
H485 C493 0.930 . S
H486 C494 0.930 . S
H487 C495 0.930 . S
H488 C498 0.930 . S
H489 C499 0.930 . S
C490 H484 0.930 . S
C490 C491 1.355 . S
C490 C492 1.415 . S
C491 C490 1.355 . S
C491 C493 1.419 . S
C492 C490 1.415 . S
C492 C497 1.425 . S
C492 C499 1.409 . S
C493 H485 0.930 . S
C493 C491 1.419 . S
C493 C494 1.362 . S
C494 H486 0.930 . S
C494 C493 1.362 . S
C494 C497 1.409 . S
C495 H487 0.930 . S
C495 C496 1.355 . S
C495 C497 1.415 . S
C496 C495 1.355 . S
C496 C498 1.419 . S
C497 C492 1.425 . S
C497 C494 1.409 . S
C497 C495 1.415 . S
C498 H488 0.930 . S
C498 C496 1.419 . S
C498 C499 1.362 . S
C499 H489 0.930 . S
C499 C492 1.409 . S
C499 C498 1.362 . S
H500 C506 0.930 . S
H501 C509 0.930 . S
H502 C510 0.930 . S
H503 C511 0.930 . S
H504 C514 0.930 . S
H505 C515 0.930 . S
C506 H500 0.930 . S
C506 C507 1.355 . S
C506 C508 1.415 . S
C507 C506 1.355 . S
C507 C509 1.419 . S
C508 C506 1.415 . S
C508 C513 1.425 . S
C508 C515 1.409 . S
C509 H501 0.930 . S
C509 C507 1.419 . S
C509 C510 1.362 . S
C510 H502 0.930 . S
C510 C509 1.362 . S
C510 C513 1.409 . S
C511 H503 0.930 . S
C511 C512 1.355 . S
C511 C513 1.415 . S
C512 C511 1.355 . S
C512 C514 1.419 . S
C513 C508 1.425 . S
C513 C510 1.409 . S
C513 C511 1.415 . S
C514 H504 0.930 . S
C514 C512 1.419 . S
C514 C515 1.362 . S
C515 H505 0.930 . S
C515 C508 1.409 . S
C515 C514 1.362 . S
H516 C522 0.930 . S
H517 C525 0.930 . S
H518 C526 0.930 . S
H519 C527 0.930 . S
H520 C530 0.930 . S
H521 C531 0.930 . S
C522 H516 0.930 . S
C522 C523 1.355 . S
C522 C524 1.415 . S
C523 C522 1.355 . S
C523 C525 1.419 . S
C524 C522 1.415 . S
C524 C529 1.425 . S
C524 C531 1.409 . S
C525 H517 0.930 . S
C525 C523 1.419 . S
C525 C526 1.362 . S
C526 H518 0.930 . S
C526 C525 1.362 . S
C526 C529 1.409 . S
C527 H519 0.930 . S
C527 C528 1.355 . S
C527 C529 1.415 . S
C528 C527 1.355 . S
C528 C530 1.419 . S
C529 C524 1.425 . S
C529 C526 1.409 . S
C529 C527 1.415 . S
C530 H520 0.930 . S
C530 C528 1.419 . S
C530 C531 1.362 . S
C531 H521 0.930 . S
C531 C524 1.409 . S
C531 C530 1.362 . S
H532 C538 0.930 . S
H533 C541 0.930 . S
H534 C542 0.930 . S
H535 C543 0.930 . S
H536 C546 0.930 . S
H537 C547 0.930 . S
C538 H532 0.930 . S
C538 C539 1.355 . S
C538 C540 1.415 . S
C539 C538 1.355 . S
C539 C541 1.419 . S
C540 C538 1.415 . S
C540 C545 1.425 . S
C540 C547 1.409 . S
C541 H533 0.930 . S
C541 C539 1.419 . S
C541 C542 1.362 . S
C542 H534 0.930 . S
C542 C541 1.362 . S
C542 C545 1.409 . S
C543 H535 0.930 . S
C543 C544 1.355 . S
C543 C545 1.415 . S
C544 C543 1.355 . S
C544 C546 1.419 . S
C545 C540 1.425 . S
C545 C542 1.409 . S
C545 C543 1.415 . S
C546 H536 0.930 . S
C546 C544 1.419 . S
C546 C547 1.362 . S
C547 H537 0.930 . S
C547 C540 1.409 . S
C547 C546 1.362 . S
H548 C554 0.930 . S
H549 C557 0.930 . S
H550 C558 0.930 . S
H551 C559 0.930 . S
H552 C562 0.930 . S
H553 C563 0.930 . S
C554 H548 0.930 . S
C554 C555 1.355 . S
C554 C556 1.415 . S
C555 C554 1.355 . S
C555 C557 1.419 . S
C556 C554 1.415 . S
C556 C561 1.425 . S
C556 C563 1.409 . S
C557 H549 0.930 . S
C557 C555 1.419 . S
C557 C558 1.362 . S
C558 H550 0.930 . S
C558 C557 1.362 . S
C558 C561 1.409 . S
C559 H551 0.930 . S
C559 C560 1.355 . S
C559 C561 1.415 . S
C560 C559 1.355 . S
C560 C562 1.419 . S
C561 C556 1.425 . S
C561 C558 1.409 . S
C561 C559 1.415 . S
C562 H552 0.930 . S
C562 C560 1.419 . S
C562 C563 1.362 . S
C563 H553 0.930 . S
C563 C556 1.409 . S
C563 C562 1.362 . S
H564 C570 0.930 . S
H565 C573 0.930 . S
H566 C574 0.930 . S
H567 C575 0.930 . S
H568 C578 0.930 . S
H569 C579 0.930 . S
C570 H564 0.930 . S
C570 C571 1.355 . S
C570 C572 1.415 1_556 S
C571 C570 1.355 . S
C571 C573 1.419 . S
C572 C570 1.415 1_554 S
C572 C577 1.425 1_554 S
C572 C579 1.409 . S
C573 H565 0.930 . S
C573 C571 1.419 . S
C573 C574 1.362 . S
C574 H566 0.930 . S
C574 C573 1.362 . S
C574 C577 1.409 . S
C575 H567 0.930 . S
C575 C576 1.355 . S
C575 C577 1.415 1_554 S
C576 C575 1.355 . S
C576 C578 1.419 . S
C577 C572 1.425 1_556 S
C577 C574 1.409 . S
C577 C575 1.415 1_556 S
C578 H568 0.930 . S
C578 C576 1.419 . S
C578 C579 1.362 . S
C579 H569 0.930 . S
C579 C572 1.409 . S
C579 C578 1.362 . S
H580 C586 0.930 . S
H581 C589 0.930 . S
H582 C590 0.930 . S
H583 C591 0.930 . S
H584 C594 0.930 . S
H585 C595 0.930 . S
C586 H580 0.930 . S
C586 C587 1.355 1_565 S
C586 C588 1.415 . S
C587 C586 1.355 1_545 S
C587 C589 1.419 . S
C588 C586 1.415 . S
C588 C593 1.425 1_564 S
C588 C595 1.409 . S
C589 H581 0.930 . S
C589 C587 1.419 . S
C589 C590 1.362 1_554 S
C590 H582 0.930 . S
C590 C589 1.362 1_556 S
C590 C593 1.409 . S
C591 H583 0.930 . S
C591 C592 1.355 1_545 S
C591 C593 1.415 . S
C592 C591 1.355 1_565 S
C592 C594 1.419 . S
C593 C588 1.425 1_546 S
C593 C590 1.409 . S
C593 C591 1.415 . S
C594 H584 0.930 . S
C594 C592 1.419 . S
C594 C595 1.362 1_556 S
C595 H585 0.930 . S
C595 C588 1.409 . S
C595 C594 1.362 1_554 S
H596 C602 0.930 . S
H597 C605 0.930 . S
H598 C606 0.930 . S
H599 C607 0.930 . S
H600 C610 0.930 . S
H601 C611 0.930 . S
C602 H596 0.930 . S
C602 C603 1.355 1_455 S
C602 C604 1.415 . S
C603 C602 1.355 1_655 S
C603 C605 1.419 . S
C604 C602 1.415 . S
C604 C609 1.425 1_454 S
C604 C611 1.409 . S
C605 H597 0.930 . S
C605 C603 1.419 . S
C605 C606 1.362 1_554 S
C606 H598 0.930 . S
C606 C605 1.362 1_556 S
C606 C609 1.409 . S
C607 H599 0.930 . S
C607 C608 1.355 1_655 S
C607 C609 1.415 . S
C608 C607 1.355 1_455 S
C608 C610 1.419 . S
C609 C604 1.425 1_656 S
C609 C606 1.409 . S
C609 C607 1.415 . S
C610 H600 0.930 . S
C610 C608 1.419 . S
C610 C611 1.362 1_556 S
C611 H601 0.930 . S
C611 C604 1.409 . S
C611 C610 1.362 1_554 S
H612 C618 0.930 . S
H613 C621 0.930 . S
H614 C622 0.930 . S
H615 C623 0.930 . S
H616 C626 0.930 . S
H617 C627 0.930 . S
C618 H612 0.930 . S
C618 C619 1.355 . S
C618 C620 1.415 . S
C619 C618 1.355 . S
C619 C621 1.419 . S
C620 C618 1.415 . S
C620 C625 1.425 . S
C620 C627 1.409 . S
C621 H613 0.930 . S
C621 C619 1.419 . S
C621 C622 1.362 . S
C622 H614 0.930 . S
C622 C621 1.362 . S
C622 C625 1.409 . S
C623 H615 0.930 . S
C623 C624 1.355 . S
C623 C625 1.415 . S
C624 C623 1.355 . S
C624 C626 1.419 . S
C625 C620 1.425 . S
C625 C622 1.409 . S
C625 C623 1.415 . S
C626 H616 0.930 . S
C626 C624 1.419 . S
C626 C627 1.362 . S
C627 H617 0.930 . S
C627 C620 1.409 . S
C627 C626 1.362 . S
H628 C634 0.930 . S
H629 C637 0.930 . S
H630 C638 0.930 . S
H631 C639 0.930 . S
H632 C642 0.930 . S
H633 C643 0.930 . S
C634 H628 0.930 . S
C634 C635 1.355 . S
C634 C636 1.415 . S
C635 C634 1.355 . S
C635 C637 1.419 1_565 S
C636 C634 1.415 . S
C636 C641 1.425 1_565 S
C636 C643 1.409 . S
C637 H629 0.930 . S
C637 C635 1.419 1_545 S
C637 C638 1.362 . S
C638 H630 0.930 . S
C638 C637 1.362 . S
C638 C641 1.409 . S
C639 H631 0.930 . S
C639 C640 1.355 . S
C639 C641 1.415 . S
C640 C639 1.355 . S
C640 C642 1.419 1_545 S
C641 C636 1.425 1_545 S
C641 C638 1.409 . S
C641 C639 1.415 . S
C642 H632 0.930 . S
C642 C640 1.419 1_565 S
C642 C643 1.362 . S
C643 H633 0.930 . S
C643 C636 1.409 . S
C643 C642 1.362 . S
H644 C650 0.930 . S
H645 C653 0.930 . S
H646 C654 0.930 . S
H647 C655 0.930 . S
H648 C658 0.930 . S
H649 C659 0.930 . S
C650 H644 0.930 . S
C650 C651 1.355 . S
C650 C652 1.415 . S
C651 C650 1.355 . S
C651 C653 1.419 1_655 S
C652 C650 1.415 . S
C652 C657 1.425 1_655 S
C652 C659 1.409 . S
C653 H645 0.930 . S
C653 C651 1.419 1_455 S
C653 C654 1.362 . S
C654 H646 0.930 . S
C654 C653 1.362 . S
C654 C657 1.409 . S
C655 H647 0.930 . S
C655 C656 1.355 . S
C655 C657 1.415 . S
C656 C655 1.355 . S
C656 C658 1.419 1_455 S
C657 C652 1.425 1_455 S
C657 C654 1.409 . S
C657 C655 1.415 . S
C658 H648 0.930 . S
C658 C656 1.419 1_655 S
C658 C659 1.362 . S
C659 H649 0.930 . S
C659 C652 1.409 . S
C659 C658 1.362 . S
H660 C666 0.930 . S
H661 C669 0.930 . S
H662 C670 0.930 . S
H663 C671 0.930 . S
H664 C674 0.930 . S
H665 C675 0.930 . S
C666 H660 0.930 . S
C666 C667 1.355 . S
C666 C668 1.415 . S
C667 C666 1.355 . S
C667 C669 1.419 . S
C668 C666 1.415 . S
C668 C673 1.425 . S
C668 C675 1.409 . S
C669 H661 0.930 . S
C669 C667 1.419 . S
C669 C670 1.362 . S
C670 H662 0.930 . S
C670 C669 1.362 . S
C670 C673 1.409 . S
C671 H663 0.930 . S
C671 C672 1.355 . S
C671 C673 1.415 . S
C672 C671 1.355 . S
C672 C674 1.419 . S
C673 C668 1.425 . S
C673 C670 1.409 . S
C673 C671 1.415 . S
C674 H664 0.930 . S
C674 C672 1.419 . S
C674 C675 1.362 . S
C675 H665 0.930 . S
C675 C668 1.409 . S
C675 C674 1.362 . S
H676 C682 0.930 . S
H677 C685 0.930 . S
H678 C686 0.930 . S
H679 C687 0.930 . S
H680 C690 0.930 . S
H681 C691 0.930 . S
C682 H676 0.930 . S
C682 C683 1.355 . S
C682 C684 1.415 . S
C683 C682 1.355 . S
C683 C685 1.419 . S
C684 C682 1.415 . S
C684 C689 1.425 . S
C684 C691 1.409 . S
C685 H677 0.930 . S
C685 C683 1.419 . S
C685 C686 1.362 . S
C686 H678 0.930 . S
C686 C685 1.362 . S
C686 C689 1.409 . S
C687 H679 0.930 . S
C687 C688 1.355 . S
C687 C689 1.415 . S
C688 C687 1.355 . S
C688 C690 1.419 . S
C689 C684 1.425 . S
C689 C686 1.409 . S
C689 C687 1.415 . S
C690 H680 0.930 . S
C690 C688 1.419 . S
C690 C691 1.362 . S
C691 H681 0.930 . S
C691 C684 1.409 . S
C691 C690 1.362 . S
H692 C698 0.930 . S
H693 C701 0.930 . S
H694 C702 0.930 . S
H695 C703 0.930 . S
H696 C706 0.930 . S
H697 C707 0.930 . S
C698 H692 0.930 . S
C698 C699 1.355 . S
C698 C700 1.415 . S
C699 C698 1.355 . S
C699 C701 1.419 . S
C700 C698 1.415 . S
C700 C705 1.425 . S
C700 C707 1.409 . S
C701 H693 0.930 . S
C701 C699 1.419 . S
C701 C702 1.362 . S
C702 H694 0.930 . S
C702 C701 1.362 . S
C702 C705 1.409 . S
C703 H695 0.930 . S
C703 C704 1.355 . S
C703 C705 1.415 . S
C704 C703 1.355 . S
C704 C706 1.419 . S
C705 C700 1.425 . S
C705 C702 1.409 . S
C705 C703 1.415 . S
C706 H696 0.930 . S
C706 C704 1.419 . S
C706 C707 1.362 . S
C707 H697 0.930 . S
C707 C700 1.409 . S
C707 C706 1.362 . S
H708 C714 0.930 . S
H709 C717 0.930 . S
H710 C718 0.930 . S
H711 C719 0.930 . S
H712 C722 0.930 . S
H713 C723 0.930 . S
C714 H708 0.930 . S
C714 C715 1.355 . S
C714 C716 1.415 . S
C715 C714 1.355 . S
C715 C717 1.419 . S
C716 C714 1.415 . S
C716 C721 1.425 . S
C716 C723 1.409 . S
C717 H709 0.930 . S
C717 C715 1.419 . S
C717 C718 1.362 . S
C718 H710 0.930 . S
C718 C717 1.362 . S
C718 C721 1.409 . S
C719 H711 0.930 . S
C719 C720 1.355 . S
C719 C721 1.415 . S
C720 C719 1.355 . S
C720 C722 1.419 . S
C721 C716 1.425 . S
C721 C718 1.409 . S
C721 C719 1.415 . S
C722 H712 0.930 . S
C722 C720 1.419 . S
C722 C723 1.362 . S
C723 H713 0.930 . S
C723 C716 1.409 . S
C723 C722 1.362 . S
H724 C730 0.930 . S
H725 C733 0.930 . S
H726 C734 0.930 . S
H727 C735 0.930 . S
H728 C738 0.930 . S
H729 C739 0.930 . S
C730 H724 0.930 . S
C730 C731 1.355 . S
C730 C732 1.415 . S
C731 C730 1.355 . S
C731 C733 1.419 . S
C732 C730 1.415 . S
C732 C737 1.425 . S
C732 C739 1.409 . S
C733 H725 0.930 . S
C733 C731 1.419 . S
C733 C734 1.362 . S
C734 H726 0.930 . S
C734 C733 1.362 . S
C734 C737 1.409 . S
C735 H727 0.930 . S
C735 C736 1.355 . S
C735 C737 1.415 . S
C736 C735 1.355 . S
C736 C738 1.419 . S
C737 C732 1.425 . S
C737 C734 1.409 . S
C737 C735 1.415 . S
C738 H728 0.930 . S
C738 C736 1.419 . S
C738 C739 1.362 . S
C739 H729 0.930 . S
C739 C732 1.409 . S
C739 C738 1.362 . S
H740 C746 0.930 . S
H741 C749 0.930 . S
H742 C750 0.930 . S
H743 C751 0.930 . S
H744 C754 0.930 . S
H745 C755 0.930 . S
C746 H740 0.930 . S
C746 C747 1.355 . S
C746 C748 1.415 . S
C747 C746 1.355 . S
C747 C749 1.419 . S
C748 C746 1.415 . S
C748 C753 1.425 . S
C748 C755 1.409 . S
C749 H741 0.930 . S
C749 C747 1.419 . S
C749 C750 1.362 . S
C750 H742 0.930 . S
C750 C749 1.362 . S
C750 C753 1.409 . S
C751 H743 0.930 . S
C751 C752 1.355 . S
C751 C753 1.415 . S
C752 C751 1.355 . S
C752 C754 1.419 . S
C753 C748 1.425 . S
C753 C750 1.409 . S
C753 C751 1.415 . S
C754 H744 0.930 . S
C754 C752 1.419 . S
C754 C755 1.362 . S
C755 H745 0.930 . S
C755 C748 1.409 . S
C755 C754 1.362 . S
H756 C762 0.930 . S
H757 C765 0.930 . S
H758 C766 0.930 . S
H759 C767 0.930 . S
H760 C770 0.930 . S
H761 C771 0.930 . S
C762 H756 0.930 . S
C762 C763 1.355 . S
C762 C764 1.415 . S
C763 C762 1.355 . S
C763 C765 1.419 . S
C764 C762 1.415 . S
C764 C769 1.425 . S
C764 C771 1.409 . S
C765 H757 0.930 . S
C765 C763 1.419 . S
C765 C766 1.362 . S
C766 H758 0.930 . S
C766 C765 1.362 . S
C766 C769 1.409 . S
C767 H759 0.930 . S
C767 C768 1.355 . S
C767 C769 1.415 . S
C768 C767 1.355 . S
C768 C770 1.419 . S
C769 C764 1.425 . S
C769 C766 1.409 . S
C769 C767 1.415 . S
C770 H760 0.930 . S
C770 C768 1.419 . S
C770 C771 1.362 . S
C771 H761 0.930 . S
C771 C764 1.409 . S
C771 C770 1.362 . S
H772 C778 0.930 . S
H773 C781 0.930 . S
H774 C782 0.930 . S
H775 C783 0.930 . S
H776 C786 0.930 . S
H777 C787 0.930 . S
C778 H772 0.930 . S
C778 C779 1.355 . S
C778 C780 1.415 . S
C779 C778 1.355 . S
C779 C781 1.419 . S
C780 C778 1.415 . S
C780 C785 1.425 . S
C780 C787 1.409 . S
C781 H773 0.930 . S
C781 C779 1.419 . S
C781 C782 1.362 . S
C782 H774 0.930 . S
C782 C781 1.362 . S
C782 C785 1.409 . S
C783 H775 0.930 . S
C783 C784 1.355 . S
C783 C785 1.415 . S
C784 C783 1.355 . S
C784 C786 1.419 . S
C785 C780 1.425 . S
C785 C782 1.409 . S
C785 C783 1.415 . S
C786 H776 0.930 . S
C786 C784 1.419 . S
C786 C787 1.362 . S
C787 H777 0.930 . S
C787 C780 1.409 . S
C787 C786 1.362 . S
H788 C794 0.930 . S
H789 C797 0.930 . S
H790 C798 0.930 . S
H791 C799 0.930 . S
H792 C802 0.930 . S
H793 C803 0.930 . S
C794 H788 0.930 . S
C794 C795 1.355 . S
C794 C796 1.415 . S
C795 C794 1.355 . S
C795 C797 1.419 . S
C796 C794 1.415 . S
C796 C801 1.425 . S
C796 C803 1.409 . S
C797 H789 0.930 . S
C797 C795 1.419 . S
C797 C798 1.362 . S
C798 H790 0.930 . S
C798 C797 1.362 . S
C798 C801 1.409 . S
C799 H791 0.930 . S
C799 C800 1.355 . S
C799 C801 1.415 . S
C800 C799 1.355 . S
C800 C802 1.419 . S
C801 C796 1.425 . S
C801 C798 1.409 . S
C801 C799 1.415 . S
C802 H792 0.930 . S
C802 C800 1.419 . S
C802 C803 1.362 . S
C803 H793 0.930 . S
C803 C796 1.409 . S
C803 C802 1.362 . S
H804 C810 0.930 . S
H805 C813 0.930 . S
H806 C814 0.930 . S
H807 C815 0.930 . S
H808 C818 0.930 . S
H809 C819 0.930 . S
C810 H804 0.930 . S
C810 C811 1.355 . S
C810 C812 1.415 . S
C811 C810 1.355 . S
C811 C813 1.419 . S
C812 C810 1.415 . S
C812 C817 1.425 . S
C812 C819 1.409 . S
C813 H805 0.930 . S
C813 C811 1.419 . S
C813 C814 1.362 . S
C814 H806 0.930 . S
C814 C813 1.362 . S
C814 C817 1.409 . S
C815 H807 0.930 . S
C815 C816 1.355 . S
C815 C817 1.415 . S
C816 C815 1.355 . S
C816 C818 1.419 . S
C817 C812 1.425 . S
C817 C814 1.409 . S
C817 C815 1.415 . S
C818 H808 0.930 . S
C818 C816 1.419 . S
C818 C819 1.362 . S
C819 H809 0.930 . S
C819 C812 1.409 . S
C819 C818 1.362 . S
H820 C826 0.930 . S
H821 C829 0.930 . S
H822 C830 0.930 . S
H823 C831 0.930 . S
H824 C834 0.930 . S
H825 C835 0.930 . S
C826 H820 0.930 . S
C826 C827 1.355 . S
C826 C828 1.415 . S
C827 C826 1.355 . S
C827 C829 1.419 . S
C828 C826 1.415 . S
C828 C833 1.425 . S
C828 C835 1.409 . S
C829 H821 0.930 . S
C829 C827 1.419 . S
C829 C830 1.362 . S
C830 H822 0.930 . S
C830 C829 1.362 . S
C830 C833 1.409 . S
C831 H823 0.930 . S
C831 C832 1.355 . S
C831 C833 1.415 . S
C832 C831 1.355 . S
C832 C834 1.419 . S
C833 C828 1.425 . S
C833 C830 1.409 . S
C833 C831 1.415 . S
C834 H824 0.930 . S
C834 C832 1.419 . S
C834 C835 1.362 . S
C835 H825 0.930 . S
C835 C828 1.409 . S
C835 C834 1.362 . S
H836 C842 0.930 . S
H837 C845 0.930 . S
H838 C846 0.930 . S
H839 C847 0.930 . S
H840 C850 0.930 . S
H841 C851 0.930 . S
C842 H836 0.930 . S
C842 C843 1.355 . S
C842 C844 1.415 . S
C843 C842 1.355 . S
C843 C845 1.419 . S
C844 C842 1.415 . S
C844 C849 1.425 . S
C844 C851 1.409 . S
C845 H837 0.930 . S
C845 C843 1.419 . S
C845 C846 1.362 . S
C846 H838 0.930 . S
C846 C845 1.362 . S
C846 C849 1.409 . S
C847 H839 0.930 . S
C847 C848 1.355 . S
C847 C849 1.415 . S
C848 C847 1.355 . S
C848 C850 1.419 . S
C849 C844 1.425 . S
C849 C846 1.409 . S
C849 C847 1.415 . S
C850 H840 0.930 . S
C850 C848 1.419 . S
C850 C851 1.362 . S
C851 H841 0.930 . S
C851 C844 1.409 . S
C851 C850 1.362 . S
H852 C858 0.930 . S
H853 C861 0.930 . S
H854 C862 0.930 . S
H855 C863 0.930 . S
H856 C866 0.930 . S
H857 C867 0.930 . S
C858 H852 0.930 . S
C858 C859 1.355 . S
C858 C860 1.415 . S
C859 C858 1.355 . S
C859 C861 1.419 . S
C860 C858 1.415 . S
C860 C865 1.425 . S
C860 C867 1.409 . S
C861 H853 0.930 . S
C861 C859 1.419 . S
C861 C862 1.362 . S
C862 H854 0.930 . S
C862 C861 1.362 . S
C862 C865 1.409 . S
C863 H855 0.930 . S
C863 C864 1.355 . S
C863 C865 1.415 . S
C864 C863 1.355 . S
C864 C866 1.419 . S
C865 C860 1.425 . S
C865 C862 1.409 . S
C865 C863 1.415 . S
C866 H856 0.930 . S
C866 C864 1.419 . S
C866 C867 1.362 . S
C867 H857 0.930 . S
C867 C860 1.409 . S
C867 C866 1.362 . S
H868 C874 0.930 . S
H869 C877 0.930 . S
H870 C878 0.930 . S
H871 C879 0.930 . S
H872 C882 0.930 . S
H873 C883 0.930 . S
C874 H868 0.930 . S
C874 C875 1.355 . S
C874 C876 1.415 1_565 S
C875 C874 1.355 . S
C875 C877 1.419 . S
C876 C874 1.415 1_545 S
C876 C881 1.425 1_545 S
C876 C883 1.409 . S
C877 H869 0.930 . S
C877 C875 1.419 . S
C877 C878 1.362 . S
C878 H870 0.930 . S
C878 C877 1.362 . S
C878 C881 1.409 . S
C879 H871 0.930 . S
C879 C880 1.355 . S
C879 C881 1.415 1_545 S
C880 C879 1.355 . S
C880 C882 1.419 . S
C881 C876 1.425 1_565 S
C881 C878 1.409 . S
C881 C879 1.415 1_565 S
C882 H872 0.930 . S
C882 C880 1.419 . S
C882 C883 1.362 . S
C883 H873 0.930 . S
C883 C876 1.409 . S
C883 C882 1.362 . S
H884 C890 0.930 . S
H885 C893 0.930 . S
H886 C894 0.930 . S
H887 C895 0.930 . S
H888 C898 0.930 . S
H889 C899 0.930 . S
C890 H884 0.930 . S
C890 C891 1.355 . S
C890 C892 1.415 . S
C891 C890 1.355 . S
C891 C893 1.419 . S
C892 C890 1.415 . S
C892 C897 1.425 1_455 S
C892 C899 1.409 . S
C893 H885 0.930 . S
C893 C891 1.419 . S
C893 C894 1.362 1_455 S
C894 H886 0.930 . S
C894 C893 1.362 1_655 S
C894 C897 1.409 . S
C895 H887 0.930 . S
C895 C896 1.355 . S
C895 C897 1.415 . S
C896 C895 1.355 . S
C896 C898 1.419 . S
C897 C892 1.425 1_655 S
C897 C894 1.409 . S
C897 C895 1.415 . S
C898 H888 0.930 . S
C898 C896 1.419 . S
C898 C899 1.362 1_655 S
C899 H889 0.930 . S
C899 C892 1.409 . S
C899 C898 1.362 1_455 S
H900 C906 0.930 . S
H901 C909 0.930 . S
H902 C910 0.930 . S
H903 C911 0.930 . S
H904 C914 0.930 . S
H905 C915 0.930 . S
C906 H900 0.930 . S
C906 C907 1.355 . S
C906 C908 1.415 . S
C907 C906 1.355 . S
C907 C909 1.419 . S
C908 C906 1.415 . S
C908 C913 1.425 . S
C908 C915 1.409 . S
C909 H901 0.930 . S
C909 C907 1.419 . S
C909 C910 1.362 . S
C910 H902 0.930 . S
C910 C909 1.362 . S
C910 C913 1.409 . S
C911 H903 0.930 . S
C911 C912 1.355 . S
C911 C913 1.415 . S
C912 C911 1.355 . S
C912 C914 1.419 . S
C913 C908 1.425 . S
C913 C910 1.409 . S
C913 C911 1.415 . S
C914 H904 0.930 . S
C914 C912 1.419 . S
C914 C915 1.362 . S
C915 H905 0.930 . S
C915 C908 1.409 . S
C915 C914 1.362 . S
H916 C922 0.930 . S
H917 C925 0.930 . S
H918 C926 0.930 . S
H919 C927 0.930 . S
H920 C930 0.930 . S
H921 C931 0.930 . S
C922 H916 0.930 . S
C922 C923 1.355 . S
C922 C924 1.415 1_565 S
C923 C922 1.355 . S
C923 C925 1.419 . S
C924 C922 1.415 1_545 S
C924 C929 1.425 1_545 S
C924 C931 1.409 . S
C925 H917 0.930 . S
C925 C923 1.419 . S
C925 C926 1.362 . S
C926 H918 0.930 . S
C926 C925 1.362 . S
C926 C929 1.409 . S
C927 H919 0.930 . S
C927 C928 1.355 . S
C927 C929 1.415 1_545 S
C928 C927 1.355 . S
C928 C930 1.419 . S
C929 C924 1.425 1_565 S
C929 C926 1.409 . S
C929 C927 1.415 1_565 S
C930 H920 0.930 . S
C930 C928 1.419 . S
C930 C931 1.362 . S
C931 H921 0.930 . S
C931 C924 1.409 . S
C931 C930 1.362 . S
H932 C938 0.930 . S
H933 C941 0.930 . S
H934 C942 0.930 . S
H935 C943 0.930 . S
H936 C946 0.930 . S
H937 C947 0.930 . S
C938 H932 0.930 . S
C938 C939 1.355 . S
C938 C940 1.415 1_655 S
C939 C938 1.355 . S
C939 C941 1.419 . S
C940 C938 1.415 1_455 S
C940 C945 1.425 1_455 S
C940 C947 1.409 . S
C941 H933 0.930 . S
C941 C939 1.419 . S
C941 C942 1.362 . S
C942 H934 0.930 . S
C942 C941 1.362 . S
C942 C945 1.409 . S
C943 H935 0.930 . S
C943 C944 1.355 . S
C943 C945 1.415 1_455 S
C944 C943 1.355 . S
C944 C946 1.419 . S
C945 C940 1.425 1_655 S
C945 C942 1.409 . S
C945 C943 1.415 1_655 S
C946 H936 0.930 . S
C946 C944 1.419 . S
C946 C947 1.362 . S
C947 H937 0.930 . S
C947 C940 1.409 . S
C947 C946 1.362 . S
H948 C954 0.930 . S
H949 C957 0.930 . S
H950 C958 0.930 . S
H951 C959 0.930 . S
H952 C962 0.930 . S
H953 C963 0.930 . S
C954 H948 0.930 . S
C954 C955 1.355 . S
C954 C956 1.415 . S
C955 C954 1.355 . S
C955 C957 1.419 . S
C956 C954 1.415 . S
C956 C961 1.425 . S
C956 C963 1.409 . S
C957 H949 0.930 . S
C957 C955 1.419 . S
C957 C958 1.362 . S
C958 H950 0.930 . S
C958 C957 1.362 . S
C958 C961 1.409 . S
C959 H951 0.930 . S
C959 C960 1.355 . S
C959 C961 1.415 . S
C960 C959 1.355 . S
C960 C962 1.419 . S
C961 C956 1.425 . S
C961 C958 1.409 . S
C961 C959 1.415 . S
C962 H952 0.930 . S
C962 C960 1.419 . S
C962 C963 1.362 . S
C963 H953 0.930 . S
C963 C956 1.409 . S
C963 C962 1.362 . S
H964 C970 0.930 . S
H965 C973 0.930 . S
H966 C974 0.930 . S
H967 C975 0.930 . S
H968 C978 0.930 . S
H969 C979 0.930 . S
C970 H964 0.930 . S
C970 C971 1.355 . S
C970 C972 1.415 . S
C971 C970 1.355 . S
C971 C973 1.419 . S
C972 C970 1.415 . S
C972 C977 1.425 . S
C972 C979 1.409 . S
C973 H965 0.930 . S
C973 C971 1.419 . S
C973 C974 1.362 . S
C974 H966 0.930 . S
C974 C973 1.362 . S
C974 C977 1.409 . S
C975 H967 0.930 . S
C975 C976 1.355 . S
C975 C977 1.415 . S
C976 C975 1.355 . S
C976 C978 1.419 . S
C977 C972 1.425 . S
C977 C974 1.409 . S
C977 C975 1.415 . S
C978 H968 0.930 . S
C978 C976 1.419 . S
C978 C979 1.362 . S
C979 H969 0.930 . S
C979 C972 1.409 . S
C979 C978 1.362 . S
H980 C986 0.930 . S
H981 C989 0.947 . S
H982 C990 0.930 . S
H983 C991 0.930 . S
H984 C994 0.930 . S
H985 C995 0.930 . S
C986 H980 0.930 . S
C986 C987 1.355 . S
C986 C988 1.415 . S
C987 C986 1.355 . S
C987 C989 1.412 1_556 S
C988 C986 1.415 . S
C988 C993 1.425 . S
C988 C995 1.409 . S
C989 H981 0.947 . S
C989 C987 1.412 1_554 S
C989 C990 1.352 1_554 S
C990 H982 0.930 . S
C990 C989 1.352 1_556 S
C990 C993 1.409 . S
C991 H983 0.930 . S
C991 C992 1.355 . S
C991 C993 1.415 . S
C992 C991 1.355 . S
C992 C994 1.419 . S
C993 C988 1.425 . S
C993 C990 1.409 . S
C993 C991 1.415 . S
C994 H984 0.930 . S
C994 C992 1.419 . S
C994 C995 1.362 . S
C995 H985 0.930 . S
C995 C988 1.409 . S
C995 C994 1.362 . S
H996 C1002 0.930 . S
H997 C1005 0.930 . S
H998 C1006 0.930 . S
H999 C1007 0.930 . S
H1000 C1010 0.930 . S
H1001 C1011 0.930 . S
C1002 H996 0.930 . S
C1002 C1003 1.355 . S
C1002 C1004 1.415 . S
C1003 C1002 1.355 . S
C1003 C1005 1.419 . S
C1004 C1002 1.415 . S
C1004 C1009 1.425 . S
C1004 C1011 1.409 . S
C1005 H997 0.930 . S
C1005 C1003 1.419 . S
C1005 C1006 1.362 . S
C1006 H998 0.930 . S
C1006 C1005 1.362 . S
C1006 C1009 1.409 . S
C1007 H999 0.930 . S
C1007 C1008 1.355 . S
C1007 C1009 1.415 . S
C1008 C1007 1.355 . S
C1008 C1010 1.419 . S
C1009 C1004 1.425 . S
C1009 C1006 1.409 . S
C1009 C1007 1.415 . S
C1010 H1000 0.930 . S
C1010 C1008 1.419 . S
C1010 C1011 1.362 . S
C1011 H1001 0.930 . S
C1011 C1004 1.409 . S
C1011 C1010 1.362 . S
H1012 C1018 0.930 . S
H1013 C1021 0.930 . S
H1014 C1022 0.930 . S
H1015 C1023 0.930 . S
H1016 C1026 0.930 . S
H1017 C1027 0.930 . S
C1018 H1012 0.930 . S
C1018 C1019 1.355 . S
C1018 C1020 1.415 . S
C1019 C1018 1.355 . S
C1019 C1021 1.419 . S
C1020 C1018 1.415 . S
C1020 C1025 1.425 . S
C1020 C1027 1.409 . S
C1021 H1013 0.930 . S
C1021 C1019 1.419 . S
C1021 C1022 1.362 . S
C1022 H1014 0.930 . S
C1022 C1021 1.362 . S
C1022 C1025 1.409 . S
C1023 H1015 0.930 . S
C1023 C1024 1.355 . S
C1023 C1025 1.415 . S
C1024 C1023 1.355 . S
C1024 C1026 1.419 . S
C1025 C1020 1.425 . S
C1025 C1022 1.409 . S
C1025 C1023 1.415 . S
C1026 H1016 0.930 . S
C1026 C1024 1.419 . S
C1026 C1027 1.362 . S
C1027 H1017 0.930 . S
C1027 C1020 1.409 . S
C1027 C1026 1.362 . S
H1028 C1034 0.930 . S
H1029 C1037 0.930 . S
H1030 C1038 0.930 . S
H1031 C1039 0.930 . S
H1032 C1042 0.930 . S
H1033 C1043 0.930 . S
C1034 H1028 0.930 . S
C1034 C1035 1.355 . S
C1034 C1036 1.415 . S
C1035 C1034 1.355 . S
C1035 C1037 1.419 . S
C1036 C1034 1.415 . S
C1036 C1041 1.425 . S
C1036 C1043 1.409 . S
C1037 H1029 0.930 . S
C1037 C1035 1.419 . S
C1037 C1038 1.362 . S
C1038 H1030 0.930 . S
C1038 C1037 1.362 . S
C1038 C1041 1.409 . S
C1039 H1031 0.930 . S
C1039 C1040 1.355 . S
C1039 C1041 1.415 . S
C1040 C1039 1.355 . S
C1040 C1042 1.419 . S
C1041 C1036 1.425 . S
C1041 C1038 1.409 . S
C1041 C1039 1.415 . S
C1042 H1032 0.930 . S
C1042 C1040 1.419 . S
C1042 C1043 1.362 . S
C1043 H1033 0.930 . S
C1043 C1036 1.409 . S
C1043 C1042 1.362 . S
H1044 C1050 0.930 . S
H1045 C1053 0.930 . S
H1046 C1054 0.930 . S
H1047 C1055 0.930 . S
H1048 C1058 0.930 . S
H1049 C1059 0.930 . S
C1050 H1044 0.930 . S
C1050 C1051 1.355 . S
C1050 C1052 1.415 . S
C1051 C1050 1.355 . S
C1051 C1053 1.419 . S
C1052 C1050 1.415 . S
C1052 C1057 1.425 . S
C1052 C1059 1.409 . S
C1053 H1045 0.930 . S
C1053 C1051 1.419 . S
C1053 C1054 1.362 . S
C1054 H1046 0.930 . S
C1054 C1053 1.362 . S
C1054 C1057 1.409 . S
C1055 H1047 0.930 . S
C1055 C1056 1.355 . S
C1055 C1057 1.415 . S
C1056 C1055 1.355 . S
C1056 C1058 1.419 . S
C1057 C1052 1.425 . S
C1057 C1054 1.409 . S
C1057 C1055 1.415 . S
C1058 H1048 0.930 . S
C1058 C1056 1.419 . S
C1058 C1059 1.362 . S
C1059 H1049 0.930 . S
C1059 C1052 1.409 . S
C1059 C1058 1.362 . S
H1060 C1066 0.930 . S
H1061 C1069 0.930 . S
H1062 C1070 0.930 . S
H1063 C1071 0.930 . S
H1064 C1074 0.930 . S
H1065 C1075 0.930 . S
C1066 H1060 0.930 . S
C1066 C1067 1.355 . S
C1066 C1068 1.415 . S
C1067 C1066 1.355 . S
C1067 C1069 1.419 . S
C1068 C1066 1.415 . S
C1068 C1073 1.425 . S
C1068 C1075 1.409 . S
C1069 H1061 0.930 . S
C1069 C1067 1.419 . S
C1069 C1070 1.362 . S
C1070 H1062 0.930 . S
C1070 C1069 1.362 . S
C1070 C1073 1.409 . S
C1071 H1063 0.930 . S
C1071 C1072 1.355 . S
C1071 C1073 1.415 . S
C1072 C1071 1.355 . S
C1072 C1074 1.419 . S
C1073 C1068 1.425 . S
C1073 C1070 1.409 . S
C1073 C1071 1.415 . S
C1074 H1064 0.930 . S
C1074 C1072 1.419 . S
C1074 C1075 1.362 . S
C1075 H1065 0.930 . S
C1075 C1068 1.409 . S
C1075 C1074 1.362 . S
H1076 C1082 0.930 . S
H1077 C1085 0.930 . S
H1078 C1086 0.930 . S
H1079 C1087 0.930 . S
H1080 C1090 0.930 . S
H1081 C1091 0.930 . S
C1082 H1076 0.930 . S
C1082 C1083 1.355 . S
C1082 C1084 1.415 . S
C1083 C1082 1.355 . S
C1083 C1085 1.419 . S
C1084 C1082 1.415 . S
C1084 C1089 1.425 . S
C1084 C1091 1.409 . S
C1085 H1077 0.930 . S
C1085 C1083 1.419 . S
C1085 C1086 1.362 . S
C1086 H1078 0.930 . S
C1086 C1085 1.362 . S
C1086 C1089 1.409 . S
C1087 H1079 0.930 . S
C1087 C1088 1.355 . S
C1087 C1089 1.415 . S
C1088 C1087 1.355 . S
C1088 C1090 1.419 . S
C1089 C1084 1.425 . S
C1089 C1086 1.409 . S
C1089 C1087 1.415 . S
C1090 H1080 0.930 . S
C1090 C1088 1.419 . S
C1090 C1091 1.362 . S
C1091 H1081 0.930 . S
C1091 C1084 1.409 . S
C1091 C1090 1.362 . S
H1092 C1098 0.930 . S
H1093 C1101 0.930 . S
H1094 C1102 0.930 . S
H1095 C1103 0.930 . S
H1096 C1106 0.930 . S
H1097 C1107 0.930 . S
C1098 H1092 0.930 . S
C1098 C1099 1.355 . S
C1098 C1100 1.415 . S
C1099 C1098 1.355 . S
C1099 C1101 1.419 . S
C1100 C1098 1.415 . S
C1100 C1105 1.425 . S
C1100 C1107 1.409 . S
C1101 H1093 0.930 . S
C1101 C1099 1.419 . S
C1101 C1102 1.362 . S
C1102 H1094 0.930 . S
C1102 C1101 1.362 . S
C1102 C1105 1.409 . S
C1103 H1095 0.930 . S
C1103 C1104 1.355 . S
C1103 C1105 1.415 . S
C1104 C1103 1.355 . S
C1104 C1106 1.419 . S
C1105 C1100 1.425 . S
C1105 C1102 1.409 . S
C1105 C1103 1.415 . S
C1106 H1096 0.930 . S
C1106 C1104 1.419 . S
C1106 C1107 1.362 . S
C1107 H1097 0.930 . S
C1107 C1100 1.409 . S
C1107 C1106 1.362 . S
H1108 C1114 0.930 . S
H1109 C1117 0.930 . S
H1110 C1118 0.930 . S
H1111 C1119 0.930 . S
H1112 C1122 0.930 . S
H1113 C1123 0.930 . S
C1114 H1108 0.930 . S
C1114 C1115 1.355 . S
C1114 C1116 1.415 . S
C1115 C1114 1.355 . S
C1115 C1117 1.419 . S
C1116 C1114 1.415 . S
C1116 C1121 1.425 . S
C1116 C1123 1.409 . S
C1117 H1109 0.930 . S
C1117 C1115 1.419 . S
C1117 C1118 1.362 . S
C1118 H1110 0.930 . S
C1118 C1117 1.362 . S
C1118 C1121 1.409 . S
C1119 H1111 0.930 . S
C1119 C1120 1.355 . S
C1119 C1121 1.415 . S
C1120 C1119 1.355 . S
C1120 C1122 1.419 . S
C1121 C1116 1.425 . S
C1121 C1118 1.409 . S
C1121 C1119 1.415 . S
C1122 H1112 0.930 . S
C1122 C1120 1.419 . S
C1122 C1123 1.362 . S
C1123 H1113 0.930 . S
C1123 C1116 1.409 . S
C1123 C1122 1.362 . S
H1124 C1130 0.930 . S
H1125 C1133 0.930 . S
H1126 C1134 0.930 . S
H1127 C1135 0.930 . S
H1128 C1138 0.930 . S
H1129 C1139 0.930 . S
C1130 H1124 0.930 . S
C1130 C1131 1.355 . S
C1130 C1132 1.415 . S
C1131 C1130 1.355 . S
C1131 C1133 1.419 . S
C1132 C1130 1.415 . S
C1132 C1137 1.425 . S
C1132 C1139 1.409 . S
C1133 H1125 0.930 . S
C1133 C1131 1.419 . S
C1133 C1134 1.362 . S
C1134 H1126 0.930 . S
C1134 C1133 1.362 . S
C1134 C1137 1.409 . S
C1135 H1127 0.930 . S
C1135 C1136 1.355 . S
C1135 C1137 1.415 . S
C1136 C1135 1.355 . S
C1136 C1138 1.419 . S
C1137 C1132 1.425 . S
C1137 C1134 1.409 . S
C1137 C1135 1.415 . S
C1138 H1128 0.930 . S
C1138 C1136 1.419 . S
C1138 C1139 1.362 . S
C1139 H1129 0.930 . S
C1139 C1132 1.409 . S
C1139 C1138 1.362 . S
C379 C29 1.638 . S
C384 C61 1.472 . S
C395 C72 1.516 . S
C400 C60 1.664 . S
C411 C64 1.661 . S
C416 C30 1.514 . S
C427 C165 1.517 . S
C432 C122 1.665 . S
C443 C123 1.465 . S
C448 C126 1.663 . S
C459 C157 1.636 . S
C464 C134 1.402 . S
C475 C215 1.624 . S
C480 C227 1.422 . S
C491 C278 1.402 . S
C496 C219 1.636 . S
C507 C277 1.659 . S
C512 C216 1.512 . S
C523 C281 1.631 . S
C528 C351 1.397 . S
C539 C289 1.515 . S
C544 C312 1.670 . S
C555 C320 1.461 . S
C560 C343 1.662 . S
C571 C188 1.206 . S
C576 C2 1.206 . S
C587 C33 1.035 . S
C592 C246 1.035 . S
C603 C91 1.038 . S
C608 C250 1.038 . S
C619 C95 1.199 . S
C624 C308 1.199 . S
C635 C153 1.208 . S
C640 C339 1.208 . S
C651 C370 1.193 . S
C656 C184 1.193 . S
C667 C1 1.046 . S
C672 C309 1.009 . S
C683 C32 1.101 . S
C688 C340 1.028 . S
C699 C371 1.104 . S
C704 C82 1.063 . S
C715 C196 1.036 . S
C720 C94 1.032 . S
C731 C247 1.081 . S
C736 C144 1.114 . S
C747 C258 1.110 . S
C752 C175 1.083 . S
C763 C103 1.043 . S
C768 C187 1.032 . S
C779 C237 1.099 . S
C784 C154 1.106 . S
C795 C249 1.103 . S
C800 C185 1.031 . S
C811 C10 1.072 . S
C816 C299 1.115 . S
C827 C330 1.067 . S
C832 C41 1.003 . S
C843 C92 1.100 . S
C848 C361 1.106 . S
C859 C112 2.369 . S
C864 C19 2.348 . S
C875 C124 2.337 . S
C880 C50 2.345 . S
C891 C155 2.372 . S
C896 C62 2.355 . S
C907 C205 2.337 . S
C912 C279 2.352 . S
C923 C217 2.344 . S
C928 C310 2.338 . S
C939 C341 2.351 . S
C944 C267 2.337 . S
C955 C311 1.474 . S
C960 C0 1.594 1_556 S
C971 C31 1.582 1_556 S
C976 C342 1.435 . S
C987 C81 1.605 1_556 S
C992 C280 1.362 . S
C1003 C93 1.583 . S
C1008 C268 1.444 . S
C1019 C206 1.389 . S
C1024 C143 1.610 . S
C1035 C218 1.353 . S
C1040 C174 1.599 . S
C1051 C186 1.584 1_554 S
C1056 C125 1.389 . S
C1067 C236 1.587 1_554 S
C1072 C156 1.372 . S
C1083 C248 1.598 1_554 S
C1088 C113 1.472 . S
C1099 C63 1.365 . S
C1104 C298 1.589 . S
C1115 C20 1.401 . S
C1120 C329 1.611 . S
C1131 C51 1.457 . S
C1136 C360 1.606 . S
