# Generated by pormake.
# Topology ato, (4)-cn, num edge types: 1
# Building blocks:
#     Node 0, Type 0, BuildingBlock: GALJAG_clean_sbu_0, # of connection points: 4
#     Node 1, Type 0, BuildingBlock: GALJAG_clean_sbu_0, # of connection points: 4
#     Node 2, Type 0, BuildingBlock: GALJAG_clean_sbu_0, # of connection points: 4
#     Node 3, Type 0, BuildingBlock: GALJAG_clean_sbu_0, # of connection points: 4
#     Node 4, Type 0, BuildingBlock: GALJAG_clean_sbu_0, # of connection points: 4
#     Node 5, Type 0, BuildingBlock: GALJAG_clean_sbu_0, # of connection points: 4
#     Node 6, Type 0, BuildingBlock: GALJAG_clean_sbu_0, # of connection points: 4
#     Node 7, Type 0, BuildingBlock: GALJAG_clean_sbu_0, # of connection points: 4
#     Node 8, Type 0, BuildingBlock: GALJAG_clean_sbu_0, # of connection points: 4
#     Node 9, Type 0, BuildingBlock: GALJAG_clean_sbu_0, # of connection points: 4
#     Node 10, Type 0, BuildingBlock: GALJAG_clean_sbu_0, # of connection points: 4
#     Node 11, Type 0, BuildingBlock: GALJAG_clean_sbu_0, # of connection points: 4
#     Node 12, Type 0, BuildingBlock: GALJAG_clean_sbu_0, # of connection points: 4
#     Node 13, Type 0, BuildingBlock: GALJAG_clean_sbu_0, # of connection points: 4
#     Node 14, Type 0, BuildingBlock: GALJAG_clean_sbu_0, # of connection points: 4
#     Node 15, Type 0, BuildingBlock: GALJAG_clean_sbu_0, # of connection points: 4
#     Node 16, Type 0, BuildingBlock: GALJAG_clean_sbu_0, # of connection points: 4
#     Node 17, Type 0, BuildingBlock: GALJAG_clean_sbu_0, # of connection points: 4
#     Node 18, Type 0, BuildingBlock: GALJAG_clean_sbu_0, # of connection points: 4
#     Node 19, Type 0, BuildingBlock: GALJAG_clean_sbu_0, # of connection points: 4
#     Node 20, Type 0, BuildingBlock: GALJAG_clean_sbu_0, # of connection points: 4
#     Node 21, Type 0, BuildingBlock: GALJAG_clean_sbu_0, # of connection points: 4
#     Node 22, Type 0, BuildingBlock: GALJAG_clean_sbu_0, # of connection points: 4
#     Node 23, Type 0, BuildingBlock: GALJAG_clean_sbu_0, # of connection points: 4
#     Node 24, Type 0, BuildingBlock: GALJAG_clean_sbu_0, # of connection points: 4
#     Node 25, Type 0, BuildingBlock: GALJAG_clean_sbu_0, # of connection points: 4
#     Node 26, Type 0, BuildingBlock: GALJAG_clean_sbu_0, # of connection points: 4
#     Node 27, Type 0, BuildingBlock: GALJAG_clean_sbu_0, # of connection points: 4
#     Node 28, Type 0, BuildingBlock: GALJAG_clean_sbu_0, # of connection points: 4
#     Node 29, Type 0, BuildingBlock: GALJAG_clean_sbu_0, # of connection points: 4
#     Node 30, Type 0, BuildingBlock: GALJAG_clean_sbu_0, # of connection points: 4
#     Node 31, Type 0, BuildingBlock: GALJAG_clean_sbu_0, # of connection points: 4
#     Node 32, Type 0, BuildingBlock: GALJAG_clean_sbu_0, # of connection points: 4
#     Node 33, Type 0, BuildingBlock: GALJAG_clean_sbu_0, # of connection points: 4
#     Node 34, Type 0, BuildingBlock: GALJAG_clean_sbu_0, # of connection points: 4
#     Node 35, Type 0, BuildingBlock: GALJAG_clean_sbu_0, # of connection points: 4
#     Edge 36, Type (0, 0), BuildingBlock: ZUJKAS_clean_linker_0, # of connection points: 2
#     Edge 37, Type (0, 0), BuildingBlock: ZUJKAS_clean_linker_0, # of connection points: 2
#     Edge 38, Type (0, 0), BuildingBlock: ZUJKAS_clean_linker_0, # of connection points: 2
#     Edge 39, Type (0, 0), BuildingBlock: ZUJKAS_clean_linker_0, # of connection points: 2
#     Edge 40, Type (0, 0), BuildingBlock: ZUJKAS_clean_linker_0, # of connection points: 2
#     Edge 41, Type (0, 0), BuildingBlock: ZUJKAS_clean_linker_0, # of connection points: 2
#     Edge 42, Type (0, 0), BuildingBlock: ZUJKAS_clean_linker_0, # of connection points: 2
#     Edge 43, Type (0, 0), BuildingBlock: ZUJKAS_clean_linker_0, # of connection points: 2
#     Edge 44, Type (0, 0), BuildingBlock: ZUJKAS_clean_linker_0, # of connection points: 2
#     Edge 45, Type (0, 0), BuildingBlock: ZUJKAS_clean_linker_0, # of connection points: 2
#     Edge 46, Type (0, 0), BuildingBlock: ZUJKAS_clean_linker_0, # of connection points: 2
#     Edge 47, Type (0, 0), BuildingBlock: ZUJKAS_clean_linker_0, # of connection points: 2
#     Edge 48, Type (0, 0), BuildingBlock: ZUJKAS_clean_linker_0, # of connection points: 2
#     Edge 49, Type (0, 0), BuildingBlock: ZUJKAS_clean_linker_0, # of connection points: 2
#     Edge 50, Type (0, 0), BuildingBlock: ZUJKAS_clean_linker_0, # of connection points: 2
#     Edge 51, Type (0, 0), BuildingBlock: ZUJKAS_clean_linker_0, # of connection points: 2
#     Edge 52, Type (0, 0), BuildingBlock: ZUJKAS_clean_linker_0, # of connection points: 2
#     Edge 53, Type (0, 0), BuildingBlock: ZUJKAS_clean_linker_0, # of connection points: 2
#     Edge 54, Type (0, 0), BuildingBlock: ZUJKAS_clean_linker_0, # of connection points: 2
#     Edge 55, Type (0, 0), BuildingBlock: ZUJKAS_clean_linker_0, # of connection points: 2
#     Edge 56, Type (0, 0), BuildingBlock: ZUJKAS_clean_linker_0, # of connection points: 2
#     Edge 57, Type (0, 0), BuildingBlock: ZUJKAS_clean_linker_0, # of connection points: 2
#     Edge 58, Type (0, 0), BuildingBlock: ZUJKAS_clean_linker_0, # of connection points: 2
#     Edge 59, Type (0, 0), BuildingBlock: ZUJKAS_clean_linker_0, # of connection points: 2
#     Edge 60, Type (0, 0), BuildingBlock: ZUJKAS_clean_linker_0, # of connection points: 2
#     Edge 61, Type (0, 0), BuildingBlock: ZUJKAS_clean_linker_0, # of connection points: 2
#     Edge 62, Type (0, 0), BuildingBlock: ZUJKAS_clean_linker_0, # of connection points: 2
#     Edge 63, Type (0, 0), BuildingBlock: ZUJKAS_clean_linker_0, # of connection points: 2
#     Edge 64, Type (0, 0), BuildingBlock: ZUJKAS_clean_linker_0, # of connection points: 2
#     Edge 65, Type (0, 0), BuildingBlock: ZUJKAS_clean_linker_0, # of connection points: 2
#     Edge 66, Type (0, 0), BuildingBlock: ZUJKAS_clean_linker_0, # of connection points: 2
#     Edge 67, Type (0, 0), BuildingBlock: ZUJKAS_clean_linker_0, # of connection points: 2
#     Edge 68, Type (0, 0), BuildingBlock: ZUJKAS_clean_linker_0, # of connection points: 2
#     Edge 69, Type (0, 0), BuildingBlock: ZUJKAS_clean_linker_0, # of connection points: 2
#     Edge 70, Type (0, 0), BuildingBlock: ZUJKAS_clean_linker_0, # of connection points: 2
#     Edge 71, Type (0, 0), BuildingBlock: ZUJKAS_clean_linker_0, # of connection points: 2
#     Edge 72, Type (0, 0), BuildingBlock: ZUJKAS_clean_linker_0, # of connection points: 2
#     Edge 73, Type (0, 0), BuildingBlock: ZUJKAS_clean_linker_0, # of connection points: 2
#     Edge 74, Type (0, 0), BuildingBlock: ZUJKAS_clean_linker_0, # of connection points: 2
#     Edge 75, Type (0, 0), BuildingBlock: ZUJKAS_clean_linker_0, # of connection points: 2
#     Edge 76, Type (0, 0), BuildingBlock: ZUJKAS_clean_linker_0, # of connection points: 2
#     Edge 77, Type (0, 0), BuildingBlock: ZUJKAS_clean_linker_0, # of connection points: 2
#     Edge 78, Type (0, 0), BuildingBlock: ZUJKAS_clean_linker_0, # of connection points: 2
#     Edge 79, Type (0, 0), BuildingBlock: ZUJKAS_clean_linker_0, # of connection points: 2
#     Edge 80, Type (0, 0), BuildingBlock: ZUJKAS_clean_linker_0, # of connection points: 2
#     Edge 81, Type (0, 0), BuildingBlock: ZUJKAS_clean_linker_0, # of connection points: 2
#     Edge 82, Type (0, 0), BuildingBlock: ZUJKAS_clean_linker_0, # of connection points: 2
#     Edge 83, Type (0, 0), BuildingBlock: ZUJKAS_clean_linker_0, # of connection points: 2
#     Edge 84, Type (0, 0), BuildingBlock: ZUJKAS_clean_linker_0, # of connection points: 2
#     Edge 85, Type (0, 0), BuildingBlock: ZUJKAS_clean_linker_0, # of connection points: 2
#     Edge 86, Type (0, 0), BuildingBlock: ZUJKAS_clean_linker_0, # of connection points: 2
#     Edge 87, Type (0, 0), BuildingBlock: ZUJKAS_clean_linker_0, # of connection points: 2
#     Edge 88, Type (0, 0), BuildingBlock: ZUJKAS_clean_linker_0, # of connection points: 2
#     Edge 89, Type (0, 0), BuildingBlock: ZUJKAS_clean_linker_0, # of connection points: 2
#     Edge 90, Type (0, 0), BuildingBlock: ZUJKAS_clean_linker_0, # of connection points: 2
#     Edge 91, Type (0, 0), BuildingBlock: ZUJKAS_clean_linker_0, # of connection points: 2
#     Edge 92, Type (0, 0), BuildingBlock: ZUJKAS_clean_linker_0, # of connection points: 2
#     Edge 93, Type (0, 0), BuildingBlock: ZUJKAS_clean_linker_0, # of connection points: 2
#     Edge 94, Type (0, 0), BuildingBlock: ZUJKAS_clean_linker_0, # of connection points: 2
#     Edge 95, Type (0, 0), BuildingBlock: ZUJKAS_clean_linker_0, # of connection points: 2
#     Edge 96, Type (0, 0), BuildingBlock: ZUJKAS_clean_linker_0, # of connection points: 2
#     Edge 97, Type (0, 0), BuildingBlock: ZUJKAS_clean_linker_0, # of connection points: 2
#     Edge 98, Type (0, 0), BuildingBlock: ZUJKAS_clean_linker_0, # of connection points: 2
#     Edge 99, Type (0, 0), BuildingBlock: ZUJKAS_clean_linker_0, # of connection points: 2
#     Edge 100, Type (0, 0), BuildingBlock: ZUJKAS_clean_linker_0, # of connection points: 2
#     Edge 101, Type (0, 0), BuildingBlock: ZUJKAS_clean_linker_0, # of connection points: 2
#     Edge 102, Type (0, 0), BuildingBlock: ZUJKAS_clean_linker_0, # of connection points: 2
#     Edge 103, Type (0, 0), BuildingBlock: ZUJKAS_clean_linker_0, # of connection points: 2
#     Edge 104, Type (0, 0), BuildingBlock: ZUJKAS_clean_linker_0, # of connection points: 2
#     Edge 105, Type (0, 0), BuildingBlock: ZUJKAS_clean_linker_0, # of connection points: 2
#     Edge 106, Type (0, 0), BuildingBlock: ZUJKAS_clean_linker_0, # of connection points: 2
#     Edge 107, Type (0, 0), BuildingBlock: ZUJKAS_clean_linker_0, # of connection points: 2
# Relax obj value: 0.074
# Max RMSD: 0.099
# Mean RMSD: 0.099
data_MOF--net-ato--node1-GALJAG_clean_sbu_0--edge1-ZUJKAS_clean_linker_0
_symmetry_space_group_name_H-M    P1
_symmetry_Int_Tables_number       1
_symmetry_cell_setting            triclinic
loop_
_symmetry_equiv_pos_as_xyz
'x, y, z'
_cell_length_a     140.39201
_cell_length_b     140.38591
_cell_length_c     27.661467
_cell_angle_alpha  89.998561
_cell_angle_beta   89.999486
_cell_angle_gamma 119.98702
loop_
_atom_site_label
_atom_site_type_symbol
_atom_site_fract_x
_atom_site_fract_y
_atom_site_fract_z
_atom_type_partial_charge
In0 In 0.2538 0.05763 0.25114 0.0
O1 O 0.2554 0.0464 0.30618 0.0
O2 O 0.24077 0.04731 0.30748 0.0
C3 C 0.27558 0.06986 0.23397 0.0
C4 C 0.2445 0.04319 0.17773 0.0
C5 C 0.24963 0.07425 0.2643 0.0
O6 O 0.27177 0.06517 0.27401 0.0
O7 O 0.26842 0.06841 0.2028 0.0
O8 O 0.24712 0.06862 0.22603 0.0
O9 O 0.25412 0.0714 0.2963 0.0
C10 C 0.2461 0.04309 0.32507 0.0
O11 O 0.23971 0.04765 0.19837 0.0
O12 O 0.25396 0.04609 0.19377 0.0
In13 In 0.94174 0.19661 0.25337 0.0
O14 O 0.95338 0.20985 0.30613 0.0
O15 O 0.95086 0.19375 0.31495 0.0
C16 C 0.92944 0.20604 0.2352 0.0
C17 C 0.95676 0.20196 0.18237 0.0
C18 C 0.92528 0.17561 0.26197 0.0
O19 O 0.93321 0.20611 0.27675 0.0
O20 O 0.93182 0.20116 0.20321 0.0
O21 O 0.93149 0.17905 0.22546 0.0
O22 O 0.92745 0.18274 0.29434 0.0
C23 C 0.95576 0.20359 0.32925 0.0
O24 O 0.95275 0.19295 0.20489 0.0
O25 O 0.95311 0.20813 0.1953 0.0
In26 In 0.80298 0.74585 0.2527 0.0
O27 O 0.80614 0.75761 0.18999 0.0
O28 O 0.78956 0.74695 0.21129 0.0
C29 C 0.82394 0.75026 0.26342 0.0
C30 C 0.79817 0.75465 0.32921 0.0
C31 C 0.79285 0.72423 0.23021 0.0
O32 O 0.82074 0.75333 0.22713 0.0
O33 O 0.8166 0.74508 0.29471 0.0
O34 O 0.79282 0.72761 0.27242 0.0
O35 O 0.79799 0.73172 0.19954 0.0
C36 C 0.79611 0.75449 0.18327 0.0
O37 O 0.7929 0.7445 0.3198 0.0
O38 O 0.80604 0.7603 0.30083 0.0
In39 In 0.05696 0.25307 0.7535 0.0
O40 O 0.0478 0.23998 0.81137 0.0
O41 O 0.04361 0.25246 0.80216 0.0
C42 C 0.07361 0.24909 0.73665 0.0
C43 C 0.04323 0.24527 0.67689 0.0
C44 C 0.06853 0.27449 0.77882 0.0
O45 O 0.06781 0.24591 0.77442 0.0
O46 O 0.0709 0.25414 0.70695 0.0
O47 O 0.06333 0.27129 0.73947 0.0
O48 O 0.06794 0.2669 0.80529 0.0
C49 C 0.04186 0.24391 0.82453 0.0
O50 O 0.04849 0.25534 0.68777 0.0
O51 O 0.04511 0.23916 0.70393 0.0
In52 In 0.7452 0.8032 0.75057 0.0
O53 O 0.74401 0.79299 0.68424 0.0
O54 O 0.75978 0.80615 0.70365 0.0
C55 C 0.7235 0.79303 0.77144 0.0
C56 C 0.75377 0.79652 0.82104 0.0
C57 C 0.74945 0.82407 0.73826 0.0
O58 O 0.72705 0.79297 0.72962 0.0
O59 O 0.73087 0.79822 0.80255 0.0
O60 O 0.75207 0.82092 0.77609 0.0
O61 O 0.74483 0.81675 0.70637 0.0
C62 C 0.75419 0.79824 0.67536 0.0
O63 O 0.75705 0.80656 0.81317 0.0
O64 O 0.74612 0.7899 0.79369 0.0
In65 In 0.19584 0.94238 0.75249 0.0
O66 O 0.20771 0.95212 0.69161 0.0
O67 O 0.19294 0.95272 0.697 0.0
C68 C 0.20565 0.93055 0.77382 0.0
C69 C 0.20186 0.95806 0.82083 0.0
C70 C 0.17493 0.92569 0.74363 0.0
O71 O 0.20519 0.93357 0.73133 0.0
O72 O 0.20113 0.93345 0.80541 0.0
O73 O 0.17842 0.93151 0.78123 0.0
O74 O 0.18194 0.92837 0.71027 0.0
C75 C 0.20194 0.95596 0.67522 0.0
O76 O 0.19205 0.95239 0.80643 0.0
O77 O 0.20854 0.95571 0.80119 0.0
In78 In 0.74517 0.94242 0.74784 0.0
O79 O 0.75505 0.94936 0.81746 0.0
O80 O 0.74835 0.95831 0.78351 0.0
C81 C 0.7496 0.92595 0.73505 0.0
C82 C 0.75418 0.95609 0.67184 0.0
C83 C 0.72348 0.93123 0.76967 0.0
O84 O 0.75358 0.93272 0.7695 0.0
O85 O 0.74353 0.9276 0.70671 0.0
O86 O 0.72695 0.93411 0.7271 0.0
O87 O 0.73092 0.93397 0.80096 0.0
C88 C 0.75392 0.95774 0.81802 0.0
O89 O 0.74429 0.95226 0.68435 0.0
O90 O 0.75947 0.95275 0.69682 0.0
In91 In 0.05698 0.80207 0.74872 0.0
O92 O 0.04627 0.78939 0.69228 0.0
O93 O 0.04852 0.80551 0.68636 0.0
C94 C 0.06609 0.7894 0.76836 0.0
C95 C 0.0421 0.79874 0.81805 0.0
C96 C 0.07368 0.82313 0.74096 0.0
O97 O 0.06737 0.79422 0.72849 0.0
O98 O 0.06012 0.79083 0.79796 0.0
O99 O 0.06658 0.82004 0.77404 0.0
O100 O 0.07227 0.81567 0.71171 0.0
C101 C 0.04405 0.79585 0.66958 0.0
O102 O 0.05224 0.80297 0.82715 0.0
O103 O 0.03957 0.79637 0.77422 0.0
In104 In 0.19647 0.25436 0.74936 0.0
O105 O 0.20677 0.2552 0.68433 0.0
O106 O 0.19263 0.2398 0.70027 0.0
C107 C 0.20701 0.27607 0.77066 0.0
C108 C 0.20303 0.24585 0.82077 0.0
C109 C 0.17571 0.25006 0.73338 0.0
O110 O 0.20769 0.27246 0.72983 0.0
O111 O 0.20102 0.26874 0.80066 0.0
O112 O 0.17817 0.24572 0.76755 0.0
O113 O 0.1837 0.25643 0.70692 0.0
C114 C 0.20092 0.24517 0.67353 0.0
O115 O 0.19355 0.24478 0.81995 0.0
O116 O 0.20915 0.25127 0.78603 0.0
In117 In 0.9423 0.74585 0.24879 0.0
O118 O 0.95115 0.75846 0.189 0.0
O119 O 0.95671 0.74726 0.20552 0.0
C120 C 0.92583 0.75032 0.26057 0.0
C121 C 0.9559 0.75355 0.32579 0.0
C122 C 0.93052 0.72438 0.22407 0.0
O123 O 0.93211 0.7535 0.2243 0.0
O124 O 0.92795 0.74502 0.29137 0.0
O125 O 0.9335 0.72751 0.26695 0.0
O126 O 0.93345 0.73205 0.1938 0.0
C127 C 0.95792 0.75525 0.18013 0.0
O128 O 0.95159 0.74373 0.31154 0.0
O129 O 0.95308 0.75942 0.30213 0.0
In130 In 0.2541 0.1971 0.25344 0.0
O131 O 0.25512 0.20751 0.31826 0.0
O132 O 0.23989 0.1929 0.30535 0.0
C133 C 0.27572 0.20809 0.23024 0.0
C134 C 0.24468 0.20355 0.18584 0.0
C135 C 0.25015 0.17634 0.26548 0.0
O136 O 0.27233 0.2074 0.27302 0.0
O137 O 0.26822 0.20324 0.19932 0.0
O138 O 0.24621 0.17907 0.23069 0.0
O139 O 0.25594 0.18402 0.29443 0.0
C140 C 0.24525 0.2014 0.33095 0.0
O141 O 0.24381 0.19415 0.18501 0.0
O142 O 0.25035 0.20963 0.22024 0.0
In143 In 0.80286 0.05728 0.25264 0.0
O144 O 0.80508 0.0501 0.18209 0.0
O145 O 0.78992 0.04109 0.21953 0.0
C146 C 0.82384 0.07362 0.26432 0.0
C147 C 0.79886 0.04447 0.33129 0.0
C148 C 0.79237 0.06843 0.22994 0.0
O149 O 0.82106 0.06619 0.23285 0.0
O150 O 0.81607 0.0727 0.2905 0.0
O151 O 0.79156 0.06415 0.27092 0.0
O152 O 0.79844 0.06707 0.20051 0.0
C153 C 0.79569 0.0416 0.18365 0.0
O154 O 0.79311 0.04876 0.3204 0.0
O155 O 0.80685 0.04689 0.30324 0.0
In156 In 0.92108 0.39083 0.58341 0.0
O157 O 0.90665 0.38006 0.53334 0.0
O158 O 0.92146 0.37966 0.52477 0.0
C159 C 0.91668 0.40732 0.59529 0.0
C160 C 0.91381 0.37653 0.65818 0.0
C161 C 0.94283 0.40325 0.56612 0.0
O162 O 0.91424 0.4016 0.55729 0.0
O163 O 0.9212 0.40461 0.6277 0.0
O164 O 0.93907 0.39846 0.60603 0.0
O165 O 0.93563 0.40181 0.53519 0.0
C166 C 0.9117 0.37609 0.51103 0.0
O167 O 0.92292 0.37962 0.63778 0.0
O168 O 0.90848 0.38086 0.64172 0.0
In169 In 0.60853 0.52939 0.58194 0.0
O170 O 0.61722 0.52576 0.52088 0.0
O171 O 0.62248 0.54248 0.53699 0.0
C172 C 0.59202 0.50852 0.59499 0.0
C173 C 0.62257 0.53502 0.65722 0.0
C174 C 0.59672 0.53923 0.56044 0.0
O175 O 0.59778 0.51163 0.55711 0.0
O176 O 0.59468 0.5159 0.62662 0.0
O177 O 0.6003 0.53935 0.6024 0.0
O178 O 0.59905 0.53412 0.52951 0.0
C179 C 0.62372 0.53576 0.51127 0.0
O180 O 0.61807 0.5405 0.64514 0.0
O181 O 0.61976 0.52651 0.63215 0.0
In182 In 0.46912 0.07861 0.58388 0.0
O183 O 0.45746 0.07683 0.64503 0.0
O184 O 0.47246 0.09198 0.63937 0.0
C185 C 0.4593 0.05693 0.56289 0.0
C186 C 0.46302 0.08828 0.51597 0.0
C187 C 0.49015 0.0831 0.59107 0.0
O188 O 0.46028 0.06046 0.6056 0.0
O189 O 0.46328 0.06432 0.53097 0.0
O190 O 0.48641 0.08525 0.55376 0.0
O191 O 0.48332 0.07879 0.62511 0.0
C192 C 0.46344 0.08642 0.66127 0.0
O193 O 0.47297 0.09177 0.52661 0.0
O194 O 0.45621 0.07989 0.53922 0.0
In195 In 0.72373 0.588 0.08101 0.0
O196 O 0.7148 0.5753 0.14048 0.0
O197 O 0.70928 0.58655 0.12409 0.0
C198 C 0.74037 0.58372 0.072 0.0
C199 C 0.71022 0.57992 0.00379 0.0
C200 C 0.73532 0.60962 0.10351 0.0
O201 O 0.73428 0.58104 0.10886 0.0
O202 O 0.73798 0.58845 0.03932 0.0
O203 O 0.7327 0.60625 0.06064 0.0
O204 O 0.73215 0.60211 0.13478 0.0
C205 C 0.70806 0.57854 0.14941 0.0
O206 O 0.71395 0.58962 0.0189 0.0
O207 O 0.71355 0.57438 0.02676 0.0
In208 In 0.41159 0.1362 0.08399 0.0
O209 O 0.40985 0.12499 0.02092 0.0
O210 O 0.42552 0.13908 0.03259 0.0
C211 C 0.39015 0.12642 0.1093 0.0
C212 C 0.4207 0.13032 0.15545 0.0
C213 C 0.41567 0.15681 0.06621 0.0
O214 O 0.3933 0.12491 0.06875 0.0
O215 O 0.3978 0.13288 0.137 0.0
O216 O 0.41975 0.15447 0.10173 0.0
O217 O 0.40966 0.14879 0.03916 0.0
C218 C 0.41978 0.1305 0.00803 0.0
O219 O 0.42356 0.14022 0.14697 0.0
O220 O 0.4132 0.12343 0.12832 0.0
In221 In 0.86286 0.27546 0.08416 0.0
O222 O 0.85892 0.28489 0.14055 0.0
O223 O 0.87561 0.2891 0.13144 0.0
C224 C 0.84197 0.25899 0.07132 0.0
C225 C 0.86938 0.28915 0.00723 0.0
C226 C 0.87222 0.26343 0.10965 0.0
O227 O 0.84497 0.26515 0.10799 0.0
O228 O 0.84946 0.26124 0.04073 0.0
O229 O 0.87222 0.26646 0.06669 0.0
O230 O 0.86747 0.26643 0.13963 0.0
C231 C 0.8688 0.29093 0.15332 0.0
O232 O 0.87483 0.2849 0.02313 0.0
O233 O 0.86049 0.28626 0.02933 0.0
In234 In 0.41161 0.2753 0.0751 0.0
O235 O 0.41038 0.28489 0.01157 0.0
O236 O 0.42551 0.28512 0.02147 0.0
C237 C 0.39004 0.26491 0.09917 0.0
C238 C 0.42116 0.2907 0.14458 0.0
C239 C 0.41545 0.25847 0.0609 0.0
O240 O 0.39337 0.26768 0.05637 0.0
O241 O 0.39758 0.26738 0.12973 0.0
O242 O 0.42043 0.26574 0.09269 0.0
O243 O 0.40868 0.25979 0.03594 0.0
C244 C 0.42011 0.28843 0.99721 0.0
O245 O 0.42107 0.28167 0.14617 0.0
O246 O 0.41641 0.29189 0.10832 0.0
In247 In 0.72393 0.13605 0.07949 0.0
O248 O 0.71446 0.12453 0.0172 0.0
O249 O 0.71296 0.13872 0.02668 0.0
C250 C 0.73586 0.1264 0.10179 0.0
C251 C 0.7088 0.13002 0.15047 0.0
C252 C 0.74043 0.15693 0.06689 0.0
O253 O 0.73151 0.12542 0.06084 0.0
O254 O 0.73427 0.1323 0.13136 0.0
O255 O 0.73436 0.15383 0.10383 0.0
O256 O 0.73811 0.14951 0.03578 0.0
C257 C 0.71011 0.13002 0.00307 0.0
O258 O 0.71452 0.13985 0.13651 0.0
O259 O 0.71076 0.12328 0.1289 0.0
In260 In 0.86329 0.5881 0.07831 0.0
O261 O 0.85928 0.57394 0.13047 0.0
O262 O 0.87557 0.58757 0.13007 0.0
C263 C 0.84235 0.58383 0.07076 0.0
C264 C 0.86972 0.58071 0.00181 0.0
C265 C 0.8729 0.60977 0.09845 0.0
O266 O 0.84595 0.58144 0.10788 0.0
O267 O 0.84927 0.58823 0.0371 0.0
O268 O 0.87227 0.6062 0.05598 0.0
O269 O 0.86866 0.60242 0.13047 0.0
C270 C 0.86889 0.57828 0.14755 0.0
O271 O 0.87585 0.58991 0.02133 0.0
O272 O 0.86023 0.57537 0.01989 0.0
In273 In 0.60857 0.0787 0.57964 0.0
O274 O 0.61922 0.07659 0.63618 0.0
O275 O 0.61838 0.09126 0.63839 0.0
C276 C 0.59623 0.05702 0.56058 0.0
C277 C 0.62391 0.08806 0.50967 0.0
C278 C 0.59211 0.08328 0.58744 0.0
O279 O 0.59974 0.06063 0.6025 0.0
O280 O 0.59888 0.06433 0.52863 0.0
O281 O 0.5981 0.08563 0.55033 0.0
O282 O 0.59454 0.07876 0.62093 0.0
C283 C 0.6224 0.08576 0.65616 0.0
O284 O 0.61955 0.09303 0.52955 0.0
O285 O 0.62046 0.07841 0.52476 0.0
In286 In 0.91978 0.52946 0.57761 0.0
O287 O 0.90611 0.52555 0.52266 0.0
O288 O 0.92006 0.54158 0.52201 0.0
C289 C 0.91588 0.50879 0.59212 0.0
C290 C 0.91187 0.53512 0.65485 0.0
C291 C 0.94139 0.53991 0.55552 0.0
O292 O 0.91315 0.51175 0.55401 0.0
O293 O 0.92048 0.51625 0.62357 0.0
O294 O 0.93746 0.54334 0.58766 0.0
O295 O 0.93444 0.53117 0.53471 0.0
C296 C 0.91084 0.53499 0.50389 0.0
O297 O 0.92201 0.5393 0.64665 0.0
O298 O 0.90573 0.52786 0.62495 0.0
In299 In 0.4696 0.39016 0.57869 0.0
O300 O 0.45894 0.38078 0.64307 0.0
O301 O 0.47331 0.37972 0.63017 0.0
C302 C 0.45917 0.40131 0.55478 0.0
C303 C 0.4631 0.37444 0.51035 0.0
C304 C 0.4904 0.40671 0.5927 0.0
O305 O 0.45925 0.39809 0.59725 0.0
O306 O 0.46437 0.39894 0.52448 0.0
O307 O 0.48769 0.40023 0.55718 0.0
O308 O 0.48265 0.40475 0.6214 0.0
C309 C 0.46481 0.37673 0.65559 0.0
O310 O 0.47278 0.38254 0.51186 0.0
O311 O 0.45677 0.37439 0.54276 0.0
In312 In 0.58711 0.72383 0.91734 0.0
O313 O 0.57406 0.71522 0.8588 0.0
O314 O 0.58542 0.70966 0.87143 0.0
C315 C 0.58298 0.7405 0.93039 0.0
C316 C 0.57933 0.70983 0.99303 0.0
C317 C 0.60869 0.73545 0.89424 0.0
O318 O 0.58052 0.73491 0.89203 0.0
O319 O 0.5874 0.73759 0.96248 0.0
O320 O 0.60537 0.73269 0.93708 0.0
O321 O 0.60114 0.7324 0.86323 0.0
C322 C 0.57725 0.70854 0.84771 0.0
O323 O 0.58903 0.71381 0.97747 0.0
O324 O 0.57363 0.71315 0.97127 0.0
In325 In 0.27505 0.86333 0.91622 0.0
O326 O 0.28513 0.87513 0.97663 0.0
O327 O 0.28535 0.86016 0.97102 0.0
C328 C 0.26327 0.87322 0.89482 0.0
C329 C 0.2905 0.8691 0.84701 0.0
C330 C 0.25845 0.84238 0.92553 0.0
O331 O 0.26588 0.87233 0.93754 0.0
O332 O 0.26659 0.86912 0.86306 0.0
O333 O 0.2644 0.84584 0.88829 0.0
O334 O 0.26095 0.84945 0.9585 0.0
C335 C 0.28885 0.86922 0.99263 0.0
O336 O 0.28387 0.85919 0.85764 0.0
O337 O 0.28924 0.87604 0.87095 0.0
In338 In 0.13525 0.41092 0.9189 0.0
O339 O 0.12231 0.40937 0.97318 0.0
O340 O 0.13801 0.42379 0.97603 0.0
C341 C 0.12579 0.38912 0.90236 0.0
C342 C 0.13006 0.42027 0.84583 0.0
C343 C 0.15607 0.41519 0.93225 0.0
O344 O 0.12492 0.39298 0.94228 0.0
O345 O 0.13147 0.39625 0.871 0.0
O346 O 0.1529 0.4175 0.89357 0.0
O347 O 0.14876 0.41083 0.96446 0.0
C348 C 0.12838 0.41856 0.99287 0.0
O349 O 0.13928 0.4251 0.8667 0.0
O350 O 0.12359 0.41073 0.86134 0.0
In351 In 0.39013 0.92054 0.41687 0.0
O352 O 0.38135 0.90766 0.47586 0.0
O353 O 0.37571 0.91887 0.46091 0.0
C354 C 0.40682 0.91637 0.40558 0.0
C355 C 0.37646 0.91261 0.34011 0.0
C356 C 0.40171 0.94212 0.44003 0.0
O357 O 0.401 0.91379 0.44328 0.0
O358 O 0.40413 0.92092 0.37325 0.0
O359 O 0.39887 0.93881 0.39723 0.0
O360 O 0.39873 0.93457 0.47096 0.0
C361 C 0.37456 0.9108 0.48553 0.0
O362 O 0.3804 0.92235 0.35511 0.0
O363 O 0.37966 0.90695 0.36299 0.0
In364 In 0.079 0.47008 0.41985 0.0
O365 O 0.09245 0.4738 0.47572 0.0
O366 O 0.0791 0.45743 0.47085 0.0
C367 C 0.08335 0.49087 0.40422 0.0
C368 C 0.08661 0.4637 0.34409 0.0
C369 C 0.05747 0.46064 0.44255 0.0
O370 O 0.08576 0.48789 0.44315 0.0
O371 O 0.07887 0.48339 0.37283 0.0
O372 O 0.06078 0.45911 0.40242 0.0
O373 O 0.06502 0.46698 0.471 0.0
C374 C 0.08805 0.46404 0.49109 0.0
O375 O 0.07669 0.45852 0.35735 0.0
O376 O 0.09264 0.47224 0.36833 0.0
In377 In 0.52962 0.60877 0.41869 0.0
O378 O 0.52524 0.61778 0.47556 0.0
O379 O 0.54213 0.623 0.46424 0.0
C380 C 0.50875 0.592 0.40953 0.0
C381 C 0.53561 0.62248 0.34205 0.0
C382 C 0.53981 0.59726 0.4398 0.0
O383 O 0.51246 0.59724 0.44848 0.0
O384 O 0.51552 0.59531 0.37498 0.0
O385 O 0.5385 0.59949 0.39699 0.0
O386 O 0.53597 0.60082 0.47174 0.0
C387 C 0.53512 0.62436 0.48696 0.0
O388 O 0.54141 0.61861 0.35784 0.0
O389 O 0.52664 0.61921 0.36411 0.0
In390 In 0.07818 0.60822 0.41588 0.0
O391 O 0.07845 0.61504 0.34031 0.0
O392 O 0.09302 0.62296 0.38246 0.0
C393 C 0.05625 0.59686 0.43171 0.0
C394 C 0.08509 0.62186 0.49265 0.0
C395 C 0.08339 0.59238 0.40049 0.0
O396 O 0.06067 0.60478 0.40234 0.0
O397 O 0.06288 0.59463 0.45265 0.0
O398 O 0.08548 0.59766 0.43963 0.0
O399 O 0.07883 0.5952 0.36875 0.0
C400 C 0.08827 0.62278 0.34356 0.0
O401 O 0.08908 0.61581 0.48226 0.0
O402 O 0.07751 0.62086 0.46489 0.0
In403 In 0.39019 0.46902 0.41387 0.0
O404 O 0.38107 0.45855 0.34837 0.0
O405 O 0.37908 0.47225 0.36464 0.0
C406 C 0.4013 0.45834 0.43329 0.0
C407 C 0.37453 0.46274 0.48232 0.0
C408 C 0.40706 0.4899 0.40603 0.0
O409 O 0.39892 0.45967 0.39078 0.0
O410 O 0.39811 0.4624 0.46572 0.0
O411 O 0.40182 0.48604 0.44484 0.0
O412 O 0.40371 0.48328 0.37097 0.0
C413 C 0.3765 0.46406 0.3377 0.0
O414 O 0.38137 0.47273 0.474 0.0
O415 O 0.37568 0.45598 0.45643 0.0
In416 In 0.5295 0.92051 0.41846 0.0
O417 O 0.54192 0.92295 0.35961 0.0
O418 O 0.52702 0.90764 0.36187 0.0
C419 C 0.53909 0.94207 0.44096 0.0
C420 C 0.535 0.91047 0.48703 0.0
C421 C 0.50865 0.91635 0.40751 0.0
O422 O 0.53864 0.93873 0.39821 0.0
O423 O 0.53469 0.93455 0.47219 0.0
O424 O 0.51205 0.91427 0.44609 0.0
O425 O 0.51572 0.92037 0.37423 0.0
C426 C 0.53622 0.91347 0.34179 0.0
O427 O 0.52532 0.90636 0.47097 0.0
O428 O 0.5418 0.91964 0.46888 0.0
In429 In 0.27508 0.41253 0.91517 0.0
O430 O 0.28306 0.41131 0.98501 0.0
O431 O 0.28769 0.42726 0.95868 0.0
C432 C 0.26391 0.39088 0.89321 0.0
C433 C 0.28993 0.42097 0.84292 0.0
C434 C 0.25839 0.41652 0.93085 0.0
O435 O 0.26967 0.39455 0.93094 0.0
O436 O 0.26376 0.39812 0.86675 0.0
O437 O 0.26399 0.41929 0.89249 0.0
O438 O 0.26131 0.41188 0.96174 0.0
C439 C 0.289 0.42157 0.99044 0.0
O440 O 0.28354 0.42457 0.85299 0.0
O441 O 0.28874 0.41307 0.86894 0.0
In442 In 0.58721 0.86312 0.91655 0.0
O443 O 0.57304 0.85866 0.86375 0.0
O444 O 0.58645 0.87506 0.8634 0.0
C445 C 0.58324 0.84238 0.92943 0.0
C446 C 0.57994 0.87002 0.99181 0.0
C447 C 0.60881 0.87289 0.89461 0.0
O448 O 0.58106 0.84558 0.89056 0.0
O449 O 0.58729 0.84959 0.96209 0.0
O450 O 0.60541 0.87276 0.93699 0.0
O451 O 0.60132 0.86805 0.86356 0.0
C452 C 0.57726 0.86818 0.84581 0.0
O453 O 0.58946 0.87569 0.97433 0.0
O454 O 0.57417 0.86077 0.97207 0.0
In455 In 0.13619 0.72327 0.91716 0.0
O456 O 0.12899 0.7167 0.99202 0.0
O457 O 0.13805 0.71019 0.9578 0.0
C458 C 0.12526 0.73402 0.89561 0.0
C459 C 0.12864 0.70771 0.84788 0.0
C460 C 0.15716 0.73986 0.92708 0.0
O461 O 0.12372 0.72875 0.9345 0.0
O462 O 0.13233 0.73391 0.86789 0.0
O463 O 0.15385 0.73372 0.89041 0.0
O464 O 0.14995 0.73754 0.95915 0.0
C465 C 0.13245 0.70996 0.99384 0.0
O466 O 0.13876 0.71447 0.85355 0.0
O467 O 0.12236 0.70892 0.87673 0.0
H468 H 0.22134 0.96471 0.62602 0.0
H469 H 0.22831 0.97942 0.56566 0.0
H470 H 0.19818 0.98046 0.57523 0.0
H471 H 0.1912 0.96584 0.63609 0.0
H472 H 0.21962 0.98053 0.47543 0.0
H473 H 0.22211 0.01239 0.60229 0.0
H474 H 0.22037 0.99941 0.62272 0.0
H475 H 0.20885 0.00016 0.59892 0.0
C476 C 0.21618 0.96803 0.61508 0.0
C477 C 0.20576 0.96418 0.63597 0.0
C478 C 0.22017 0.97643 0.58064 0.0
C479 C 0.21383 0.98115 0.56668 0.0
C480 C 0.20328 0.97708 0.58629 0.0
H481 H 0.22608 0.03433 0.36938 0.0
H482 H 0.21811 0.01919 0.42783 0.0
C483 C 0.19928 0.96868 0.62078 0.0
C484 C 0.21834 0.99039 0.53183 0.0
H485 H 0.22604 0.01752 0.52005 0.0
C486 C 0.22104 0.98862 0.48515 0.0
C487 C 0.22017 0.00093 0.54472 0.0
C488 C 0.21782 0.00341 0.59499 0.0
C489 C 0.22544 0.9971 0.45074 0.0
C490 C 0.22735 0.00766 0.46374 0.0
C491 C 0.22457 0.00941 0.51029 0.0
C492 C 0.23232 0.01702 0.42958 0.0
C493 C 0.22786 0.99465 0.40055 0.0
C494 C 0.24303 0.02096 0.41216 0.0
C495 C 0.2476 0.0296 0.3789 0.0
C496 C 0.24155 0.03448 0.36268 0.0
C497 C 0.23093 0.03071 0.38117 0.0
C498 C 0.22637 0.02207 0.41449 0.0
H499 H 0.22341 0.98568 0.39288 0.0
H500 H 0.22555 0.99884 0.37276 0.0
H501 H 0.2368 0.99771 0.39718 0.0
H502 H 0.24784 0.01731 0.42414 0.0
H503 H 0.25582 0.03235 0.36543 0.0
H504 H 0.03015 0.22383 0.65032 0.0
H505 H 0.01553 0.21653 0.58944 0.0
H506 H 0.02282 0.24949 0.55548 0.0
H507 H 0.03752 0.25685 0.61583 0.0
H508 H 0.99707 0.21917 0.58918 0.0
H509 H 0.02173 0.23633 0.42215 0.0
H510 H 0.02776 0.23566 0.47882 0.0
H511 H 0.02453 0.24638 0.46836 0.0
C512 C 0.02873 0.22953 0.6294 0.0
C513 C 0.03499 0.24091 0.6377 0.0
C514 C 0.02037 0.22535 0.59476 0.0
C515 C 0.01818 0.23248 0.56763 0.0
C516 C 0.02452 0.24386 0.57539 0.0
H517 H 0.96877 0.22475 0.35959 0.0
H518 H 0.98361 0.23155 0.41933 0.0
C519 C 0.03288 0.24805 0.61002 0.0
C520 C 0.00888 0.228 0.5331 0.0
H521 H 0.00236 0.2285 0.41461 0.0
C522 C 0.99822 0.22114 0.55094 0.0
C523 C 0.01043 0.23062 0.48331 0.0
C524 C 0.02173 0.23757 0.46183 0.0
C525 C 0.98902 0.21699 0.52042 0.0
C526 C 0.99056 0.21969 0.47073 0.0
C527 C 0.00122 0.2265 0.45283 0.0
C528 C 0.98122 0.21546 0.43654 0.0
C529 C 0.9777 0.20998 0.54169 0.0
C530 C 0.97497 0.20417 0.42662 0.0
C531 C 0.9665 0.20027 0.39253 0.0
C532 C 0.96416 0.20761 0.36776 0.0
C533 C 0.97034 0.2189 0.37828 0.0
C534 C 0.97884 0.2228 0.41224 0.0
H535 H 0.97773 0.21075 0.58167 0.0
H536 H 0.97181 0.21226 0.52624 0.0
H537 H 0.9747 0.20123 0.53277 0.0
H538 H 0.9768 0.19841 0.44451 0.0
H539 H 0.96191 0.19153 0.38498 0.0
H540 H 0.80656 0.77647 0.34798 0.0
H541 H 0.80008 0.78475 0.40815 0.0
H542 H 0.77583 0.75245 0.45761 0.0
H543 H 0.78223 0.7441 0.39745 0.0
H544 H 0.77738 0.78028 0.414 0.0
H545 H 0.79195 0.77011 0.58273 0.0
H546 H 0.79773 0.77034 0.52406 0.0
H547 H 0.78464 0.75893 0.54106 0.0
C548 C 0.79994 0.77114 0.37207 0.0
C549 C 0.7949 0.75964 0.36811 0.0
C550 C 0.79624 0.77587 0.40627 0.0
C551 C 0.78755 0.7692 0.43741 0.0
C552 C 0.78265 0.75773 0.43422 0.0
H553 H 0.74377 0.78226 0.60714 0.0
H554 H 0.75224 0.77588 0.54749 0.0
C555 C 0.78629 0.75298 0.3998 0.0
C556 C 0.78323 0.77422 0.47161 0.0
H557 H 0.78 0.77738 0.59174 0.0
C558 C 0.77799 0.77971 0.45287 0.0
C559 C 0.78413 0.7735 0.52218 0.0
C560 C 0.78999 0.76798 0.54394 0.0
C561 C 0.77339 0.7843 0.48355 0.0
C562 C 0.77403 0.78331 0.53412 0.0
C563 C 0.77948 0.77805 0.55287 0.0
C564 C 0.76895 0.78758 0.56827 0.0
C565 C 0.76791 0.79019 0.46179 0.0
C566 C 0.77556 0.79625 0.59961 0.0
C567 C 0.77076 0.79994 0.63353 0.0
C568 C 0.75926 0.79492 0.63699 0.0
C569 C 0.75265 0.78631 0.60517 0.0
C570 C 0.75747 0.78267 0.57104 0.0
H571 H 0.7701 0.79222 0.42309 0.0
H572 H 0.75885 0.78484 0.46435 0.0
H573 H 0.77023 0.7979 0.48188 0.0
H574 H 0.78444 0.80009 0.59805 0.0
H575 H 0.77605 0.80656 0.65772 0.0
H576 H 0.74507 0.96627 0.62192 0.0
H577 H 0.75422 0.98155 0.56482 0.0
H578 H 0.78424 0.98047 0.57946 0.0
H579 H 0.77516 0.9652 0.63698 0.0
H580 H 0.77545 0.00262 0.59083 0.0
H581 H 0.77771 0.98044 0.428 0.0
H582 H 0.76744 0.97359 0.47441 0.0
H583 H 0.78146 0.97735 0.4858 0.0
C584 C 0.75358 0.96919 0.61256 0.0
C585 C 0.75941 0.96455 0.63388 0.0
C586 C 0.75879 0.97792 0.58008 0.0
C587 C 0.76987 0.98207 0.56799 0.0
C588 C 0.77565 0.9773 0.58819 0.0
H589 H 0.8098 0.03397 0.3611 0.0
H590 H 0.80388 0.0195 0.42241 0.0
C591 C 0.77046 0.9686 0.62099 0.0
C592 C 0.77547 0.99175 0.53599 0.0
H593 H 0.7851 0.99957 0.42123 0.0
C594 C 0.77761 0.00199 0.55379 0.0
C595 C 0.77837 0.99087 0.48804 0.0
C596 C 0.77612 0.97999 0.46751 0.0
C597 C 0.78251 0.01141 0.52453 0.0
C598 C 0.78504 0.01047 0.47587 0.0
C599 C 0.78314 0.00026 0.45851 0.0
C600 C 0.78909 0.01982 0.44161 0.0
C601 C 0.78498 0.02228 0.54617 0.0
C602 C 0.78277 0.02482 0.43223 0.0
C603 C 0.78617 0.03312 0.39757 0.0
C604 C 0.79589 0.03648 0.37117 0.0
C605 C 0.8023 0.03158 0.38103 0.0
C606 C 0.79891 0.0233 0.41591 0.0
H607 H 0.78595 0.02232 0.58605 0.0
H608 H 0.79258 0.02919 0.53053 0.0
H609 H 0.77803 0.02371 0.53855 0.0
H610 H 0.77504 0.02209 0.45074 0.0
H611 H 0.78101 0.03667 0.39047 0.0
H612 H 0.03268 0.77529 0.6306 0.0
H613 H 0.01803 0.76869 0.57016 0.0
H614 H 0.02241 0.80129 0.55848 0.0
H615 H 0.03701 0.80793 0.61941 0.0
H616 H 0.00059 0.78484 0.57281 0.0
H617 H 0.01972 0.77374 0.424 0.0
H618 H 0.01988 0.7678 0.48126 0.0
H619 H 0.02759 0.78248 0.47369 0.0
C620 C 0.03064 0.78109 0.61466 0.0
C621 C 0.036 0.79213 0.62964 0.0
C622 C 0.0223 0.77732 0.57999 0.0
C623 C 0.01923 0.78453 0.55948 0.0
C624 C 0.0247 0.7956 0.57375 0.0
H625 H 0.96716 0.77468 0.35908 0.0
H626 H 0.98231 0.78241 0.41737 0.0
C627 C 0.03305 0.79939 0.60843 0.0
C628 C 0.00988 0.78037 0.52533 0.0
H629 H 0.00053 0.76726 0.41718 0.0
C630 C 0.0006 0.78108 0.53858 0.0
C631 C 0.00992 0.77545 0.48081 0.0
C632 C 0.01985 0.77489 0.46378 0.0
C633 C 0.99123 0.77673 0.50899 0.0
C634 C 0.99123 0.77169 0.46477 0.0
C635 C 0.00055 0.77108 0.45129 0.0
C636 C 0.98164 0.76694 0.43184 0.0
C637 C 0.9813 0.7773 0.52587 0.0
C638 C 0.97628 0.7557 0.42057 0.0
C639 C 0.96766 0.75127 0.38724 0.0
C640 C 0.96429 0.75803 0.36437 0.0
C641 C 0.96953 0.76926 0.37637 0.0
C642 C 0.97816 0.77368 0.40975 0.0
H643 H 0.98165 0.77901 0.56525 0.0
H644 H 0.98096 0.78403 0.50635 0.0
H645 H 0.9736 0.76949 0.51799 0.0
H646 H 0.97888 0.75037 0.43717 0.0
H647 H 0.9638 0.7426 0.37859 0.0
H648 H 0.22421 0.18963 0.36539 0.0
H649 H 0.21527 0.19582 0.42377 0.0
H650 H 0.24563 0.22647 0.44117 0.0
H651 H 0.25464 0.22037 0.38327 0.0
H652 H 0.22341 0.20527 0.52702 0.0
H653 H 0.22046 0.23335 0.39364 0.0
H654 H 0.22169 0.22164 0.37573 0.0
H655 H 0.23349 0.23385 0.39788 0.0
C656 C 0.22901 0.19763 0.38212 0.0
C657 C 0.24011 0.20454 0.36968 0.0
C658 C 0.22389 0.20114 0.41535 0.0
C659 C 0.22979 0.21162 0.43616 0.0
C660 C 0.24095 0.21838 0.42504 0.0
H661 H 0.21932 0.2548 0.61744 0.0
H662 H 0.22537 0.24588 0.55896 0.0
C663 C 0.24608 0.21486 0.39213 0.0
C664 C 0.22426 0.21573 0.46842 0.0
H665 H 0.21593 0.23472 0.47474 0.0
C666 C 0.22165 0.21162 0.51566 0.0
C667 C 0.22203 0.22402 0.45316 0.0
C668 C 0.22448 0.22846 0.40224 0.0
C669 C 0.21722 0.21593 0.54888 0.0
C670 C 0.21514 0.22436 0.53384 0.0
C671 C 0.21752 0.22826 0.48614 0.0
C672 C 0.21108 0.22971 0.56773 0.0
C673 C 0.21524 0.21174 0.60023 0.0
C674 C 0.20091 0.22362 0.59117 0.0
C675 C 0.19744 0.2287 0.62481 0.0
C676 C 0.20406 0.23996 0.63512 0.0
C677 C 0.21405 0.2461 0.61028 0.0
C678 C 0.21752 0.24102 0.57689 0.0
H679 H 0.21965 0.20721 0.60861 0.0
H680 H 0.21791 0.21862 0.62635 0.0
H681 H 0.20632 0.20601 0.6056 0.0
H682 H 0.19569 0.21493 0.58377 0.0
H683 H 0.18968 0.22377 0.64323 0.0
H684 H 0.9234 0.36539 0.69577 0.0
H685 H 0.91552 0.35034 0.75454 0.0
H686 H 0.88651 0.35338 0.76528 0.0
H687 H 0.89426 0.36834 0.70605 0.0
H688 H 0.90847 0.34997 0.84976 0.0
H689 H 0.87406 0.32077 0.73253 0.0
H690 H 0.88571 0.33313 0.70939 0.0
H691 H 0.87488 0.33384 0.74084 0.0
C692 C 0.91536 0.36288 0.71079 0.0
C693 C 0.90941 0.36799 0.69615 0.0
C694 C 0.91087 0.35428 0.7443 0.0
C695 C 0.90036 0.35063 0.76353 0.0
C696 C 0.89454 0.35593 0.75003 0.0
H697 H 0.85953 0.30009 0.97014 0.0
H698 H 0.86709 0.31494 0.91032 0.0
C699 C 0.89901 0.36452 0.71649 0.0
C700 C 0.89552 0.34129 0.79789 0.0
H701 H 0.87396 0.31524 0.81362 0.0
C702 C 0.90095 0.34235 0.84184 0.0
C703 C 0.88571 0.33139 0.78734 0.0
C704 C 0.87978 0.32963 0.73981 0.0
C705 C 0.89673 0.33382 0.87599 0.0
C706 C 0.88692 0.32391 0.86542 0.0
C707 C 0.88148 0.32285 0.82152 0.0
C708 C 0.88216 0.31457 0.89971 0.0
C709 C 0.90267 0.33557 0.92349 0.0
C710 C 0.88802 0.30927 0.91251 0.0
C711 C 0.88373 0.30079 0.9466 0.0
C712 C 0.87348 0.29744 0.96824 0.0
C713 C 0.86746 0.30251 0.95413 0.0
C714 C 0.87176 0.311 0.92003 0.0
H715 H 0.90841 0.34443 0.93073 0.0
H716 H 0.89675 0.33209 0.95393 0.0
H717 H 0.90754 0.33132 0.92243 0.0
H718 H 0.89597 0.31176 0.89647 0.0
H719 H 0.88853 0.297 0.9566 0.0
H720 H 0.63044 0.55344 0.71295 0.0
H721 H 0.64549 0.56031 0.77154 0.0
H722 H 0.64885 0.5318 0.7466 0.0
H723 H 0.6339 0.52495 0.68735 0.0
H724 H 0.64776 0.55091 0.85619 0.0
H725 H 0.67997 0.5574 0.72223 0.0
H726 H 0.66655 0.55497 0.70464 0.0
H727 H 0.66833 0.5437 0.72348 0.0
C728 C 0.63435 0.54861 0.7201 0.0
C729 C 0.63104 0.53869 0.69538 0.0
C730 C 0.64294 0.55254 0.75354 0.0
C731 C 0.64841 0.54666 0.76272 0.0
C732 C 0.64489 0.53658 0.73924 0.0
H733 H 0.70136 0.55944 0.96366 0.0
H734 H 0.68644 0.5511 0.90413 0.0
C735 C 0.6363 0.53264 0.70571 0.0
C736 C 0.65779 0.55113 0.79682 0.0
H737 H 0.68537 0.56048 0.8045 0.0
C738 C 0.65598 0.55301 0.8449 0.0
C739 C 0.66851 0.55387 0.78189 0.0
C740 C 0.67103 0.55249 0.73017 0.0
C741 C 0.66461 0.55752 0.87853 0.0
C742 C 0.67531 0.56029 0.86352 0.0
C743 C 0.67712 0.55831 0.8157 0.0
C744 C 0.68475 0.56552 0.89699 0.0
C745 C 0.66226 0.55927 0.92999 0.0
C746 C 0.68885 0.57645 0.91159 0.0
C747 C 0.69739 0.58125 0.94521 0.0
C748 C 0.70194 0.57517 0.96488 0.0
C749 C 0.69801 0.56431 0.94913 0.0
C750 C 0.6895 0.55954 0.91523 0.0
H751 H 0.6533 0.555 0.93777 0.0
H752 H 0.66627 0.55628 0.95568 0.0
H753 H 0.66571 0.56819 0.93653 0.0
H754 H 0.68532 0.5812 0.89747 0.0
H755 H 0.70025 0.58963 0.95664 0.0
H756 H 0.44362 0.07659 0.7073 0.0
H757 H 0.43698 0.08481 0.76676 0.0
H758 H 0.46835 0.11481 0.76332 0.0
H759 H 0.47498 0.10672 0.70302 0.0
H760 H 0.44458 0.0933 0.85755 0.0
H761 H 0.44693 0.12566 0.7343 0.0
H762 H 0.44809 0.11414 0.71295 0.0
H763 H 0.45963 0.12565 0.74124 0.0
C764 C 0.44913 0.08492 0.71938 0.0
C765 C 0.4598 0.09104 0.7003 0.0
C766 C 0.44532 0.0896 0.75331 0.0
C767 C 0.4521 0.10049 0.76871 0.0
C768 C 0.4629 0.10649 0.75103 0.0
H769 H 0.44087 0.14098 0.97386 0.0
H770 H 0.44895 0.13391 0.91539 0.0
C771 C 0.4667 0.10183 0.7169 0.0
C772 C 0.4478 0.10552 0.80312 0.0
H773 H 0.4421 0.12638 0.81573 0.0
C774 C 0.44403 0.10053 0.8484 0.0
C775 C 0.44709 0.11495 0.79103 0.0
C776 C 0.45055 0.12037 0.7421 0.0
C777 C 0.43961 0.10474 0.88205 0.0
C778 C 0.43884 0.11411 0.86982 0.0
C779 C 0.44272 0.11919 0.82485 0.0
C780 C 0.43383 0.11861 0.90309 0.0
C781 C 0.43588 0.0992 0.93063 0.0
C782 C 0.42261 0.11245 0.91442 0.0
C783 C 0.41796 0.11647 0.94751 0.0
C784 C 0.42448 0.12673 0.96981 0.0
C785 C 0.43565 0.13304 0.95728 0.0
C786 C 0.44028 0.12902 0.92399 0.0
H787 H 0.43926 0.0937 0.93846 0.0
H788 H 0.4384 0.10539 0.95998 0.0
H789 H 0.42677 0.09415 0.93097 0.0
H790 H 0.41747 0.10447 0.89803 0.0
H791 H 0.40932 0.11144 0.95636 0.0
H792 H 0.44586 0.36757 0.70809 0.0
H793 H 0.43941 0.35239 0.76582 0.0
H794 H 0.46947 0.35157 0.74691 0.0
H795 H 0.47601 0.36678 0.68895 0.0
H796 H 0.43737 0.33096 0.74074 0.0
H797 H 0.46494 0.35181 0.89749 0.0
H798 H 0.46225 0.3593 0.85154 0.0
H799 H 0.47123 0.35398 0.83876 0.0
C800 C 0.45117 0.36427 0.71671 0.0
C801 C 0.46144 0.36836 0.69405 0.0
C802 C 0.44746 0.35558 0.74955 0.0
C803 C 0.45399 0.35092 0.76066 0.0
C804 C 0.46437 0.35516 0.73911 0.0
H805 H 0.44091 0.29747 0.96036 0.0
H806 H 0.44941 0.31199 0.8992 0.0
C807 C 0.46808 0.36382 0.70601 0.0
C808 C 0.44964 0.34123 0.79276 0.0
H809 H 0.45248 0.33281 0.9048 0.0
C810 C 0.44068 0.33133 0.77659 0.0
C811 C 0.45407 0.34176 0.83915 0.0
C812 C 0.46362 0.35228 0.85817 0.0
C813 C 0.43595 0.32191 0.80586 0.0
C814 C 0.44014 0.32252 0.85297 0.0
C815 C 0.44928 0.33237 0.86868 0.0
C816 C 0.43482 0.31323 0.88743 0.0
C817 C 0.42657 0.31139 0.78587 0.0
C818 C 0.42381 0.30911 0.90097 0.0
C819 C 0.41894 0.30079 0.93554 0.0
C820 C 0.42502 0.29652 0.95766 0.0
C821 C 0.43601 0.30057 0.94375 0.0
C822 C 0.44088 0.30887 0.90896 0.0
H823 H 0.42671 0.3113 0.74571 0.0
H824 H 0.42683 0.30409 0.79952 0.0
H825 H 0.41866 0.31068 0.7972 0.0
H826 H 0.41906 0.31252 0.8857 0.0
H827 H 0.41048 0.2979 0.94583 0.0
H828 H 0.70227 0.11123 0.94987 0.0
H829 H 0.68744 0.10413 0.89007 0.0
H830 H 0.68405 0.13276 0.91004 0.0
H831 H 0.69895 0.13997 0.96955 0.0
H832 H 0.66571 0.09941 0.90785 0.0
H833 H 0.68548 0.1305 0.76221 0.0
H834 H 0.69325 0.12882 0.81017 0.0
H835 H 0.68591 0.13605 0.82121 0.0
C836 C 0.69846 0.11608 0.94106 0.0
C837 C 0.70178 0.12617 0.96427 0.0
C838 C 0.68998 0.112 0.90701 0.0
C839 C 0.68473 0.11797 0.89535 0.0
C840 C 0.68813 0.12812 0.91792 0.0
H841 H 0.63034 0.10518 0.70489 0.0
H842 H 0.64502 0.11279 0.76548 0.0
C843 C 0.69661 0.13221 0.95202 0.0
C844 C 0.67531 0.11328 0.86144 0.0
H845 H 0.66651 0.11763 0.75303 0.0
C846 C 0.66588 0.10336 0.8739 0.0
C847 C 0.67556 0.11851 0.8174 0.0
C848 C 0.68562 0.12901 0.80159 0.0
C849 C 0.65662 0.09856 0.84366 0.0
C850 C 0.6569 0.10373 0.79938 0.0
C851 C 0.66631 0.11369 0.78706 0.0
C852 C 0.64761 0.09883 0.76475 0.0
C853 C 0.64655 0.08811 0.85985 0.0
C854 C 0.6442 0.08847 0.74434 0.0
C855 C 0.63578 0.08408 0.70999 0.0
C856 C 0.63071 0.09004 0.69508 0.0
C857 C 0.63407 0.10039 0.71582 0.0
C858 C 0.64247 0.10475 0.7503 0.0
H859 H 0.6465 0.08697 0.89962 0.0
H860 H 0.6389 0.08807 0.84936 0.0
H861 H 0.64651 0.08097 0.84235 0.0
H862 H 0.64822 0.08387 0.75418 0.0
H863 H 0.63343 0.07613 0.69433 0.0
H864 H 0.89042 0.52679 0.68131 0.0
H865 H 0.8831 0.53435 0.74112 0.0
H866 H 0.91605 0.55989 0.77563 0.0
H867 H 0.92345 0.55239 0.71605 0.0
H868 H 0.88895 0.53917 0.84585 0.0
H869 H 0.89851 0.5758 0.73374 0.0
H870 H 0.89757 0.56349 0.70851 0.0
H871 H 0.9095 0.57289 0.74246 0.0
C872 C 0.89611 0.53396 0.70197 0.0
C873 C 0.90751 0.53903 0.6939 0.0
C874 C 0.89192 0.53826 0.73603 0.0
C875 C 0.89904 0.54774 0.76218 0.0
C876 C 0.91043 0.55264 0.75529 0.0
H877 H 0.89043 0.58979 0.96452 0.0
H878 H 0.89729 0.58156 0.90609 0.0
C879 C 0.91464 0.54831 0.72146 0.0
C880 C 0.89455 0.55267 0.79594 0.0
H881 H 0.89151 0.5751 0.81208 0.0
C882 C 0.88946 0.547 0.83854 0.0
C883 C 0.89528 0.56289 0.78609 0.0
C884 C 0.90043 0.56913 0.74009 0.0
C885 C 0.88524 0.55142 0.87226 0.0
C886 C 0.88591 0.56163 0.86232 0.0
C887 C 0.89099 0.56727 0.81955 0.0
C888 C 0.88158 0.56672 0.89627 0.0
C889 C 0.8804 0.54525 0.91876 0.0
C890 C 0.87041 0.56123 0.90916 0.0
C891 C 0.86648 0.5659 0.94268 0.0
C892 C 0.87364 0.57619 0.96343 0.0
C893 C 0.88473 0.58184 0.94915 0.0
C894 C 0.88866 0.57715 0.91584 0.0
H895 H 0.88317 0.53926 0.92649 0.0
H896 H 0.88266 0.551 0.94983 0.0
H897 H 0.8713 0.54061 0.91573 0.0
H898 H 0.86475 0.5533 0.89355 0.0
H899 H 0.85788 0.56138 0.9528 0.0
H900 H 0.55526 0.63187 0.29461 0.0
H901 H 0.56212 0.6467 0.23492 0.0
H902 H 0.53138 0.64662 0.24152 0.0
H903 H 0.52453 0.63191 0.30192 0.0
H904 H 0.55411 0.64777 0.14461 0.0
H905 H 0.55399 0.67871 0.26942 0.0
H906 H 0.55248 0.66586 0.2904 0.0
H907 H 0.54098 0.66625 0.26404 0.0
C908 C 0.54994 0.63498 0.28318 0.0
C909 C 0.53939 0.63079 0.30314 0.0
C910 C 0.55387 0.64345 0.24912 0.0
C911 C 0.54733 0.6479 0.23452 0.0
C912 C 0.53665 0.64348 0.25316 0.0
H913 H 0.55871 0.70001 0.03212 0.0
H914 H 0.5508 0.68495 0.09098 0.0
C915 C 0.53272 0.63502 0.28737 0.0
C916 C 0.55175 0.65719 0.1999 0.0
H917 H 0.55831 0.684 0.18743 0.0
C918 C 0.55505 0.6557 0.15397 0.0
C919 C 0.55296 0.66752 0.21229 0.0
C920 C 0.55002 0.66976 0.26185 0.0
C921 C 0.55944 0.66424 0.11989 0.0
C922 C 0.5607 0.67457 0.13238 0.0
C923 C 0.55732 0.67605 0.17809 0.0
C924 C 0.56563 0.68399 0.09852 0.0
C925 C 0.56258 0.66211 0.07056 0.0
C926 C 0.57666 0.68858 0.08433 0.0
C927 C 0.5812 0.6972 0.05095 0.0
C928 C 0.57479 0.70137 0.03127 0.0
C929 C 0.56384 0.69695 0.04662 0.0
C930 C 0.55931 0.68835 0.08015 0.0
H931 H 0.55876 0.65317 0.06289 0.0
H932 H 0.5601 0.66597 0.04186 0.0
H933 H 0.57165 0.66578 0.06879 0.0
H934 H 0.58172 0.68543 0.09879 0.0
H935 H 0.58967 0.70045 0.03991 0.0
H936 H 0.36734 0.92288 0.29068 0.0
H937 H 0.35248 0.91479 0.23121 0.0
H938 H 0.352 0.8839 0.24188 0.0
H939 H 0.36675 0.89189 0.30208 0.0
H940 H 0.3512 0.90515 0.14206 0.0
H941 H 0.32005 0.87511 0.26935 0.0
H942 H 0.33301 0.88643 0.2895 0.0
H943 H 0.33238 0.8743 0.26458 0.0
C944 C 0.36411 0.91438 0.28019 0.0
C945 C 0.36815 0.90799 0.30124 0.0
C946 C 0.35561 0.90977 0.24625 0.0
C947 C 0.351 0.89869 0.23286 0.0
C948 C 0.35528 0.89239 0.25257 0.0
H949 H 0.29817 0.85801 0.0326 0.0
H950 H 0.31328 0.86497 0.09121 0.0
C951 C 0.36375 0.89699 0.28666 0.0
C952 C 0.34168 0.89377 0.1984 0.0
H953 H 0.31466 0.87392 0.18744 0.0
C954 C 0.34321 0.89833 0.15197 0.0
C955 C 0.33126 0.88486 0.2115 0.0
C956 C 0.329 0.87993 0.26156 0.0
C957 C 0.33462 0.89419 0.11813 0.0
C958 C 0.3242 0.88536 0.13137 0.0
C959 C 0.32268 0.8807 0.17754 0.0
C960 C 0.31472 0.88098 0.09788 0.0
C961 C 0.33678 0.89923 0.06829 0.0
C962 C 0.31037 0.88761 0.08335 0.0
C963 C 0.30173 0.88365 0.05015 0.0
C964 C 0.29729 0.873 0.03097 0.0
C965 C 0.30144 0.86626 0.04672 0.0
C966 C 0.31007 0.87022 0.08011 0.0
H967 H 0.34572 0.90411 0.06025 0.0
H968 H 0.33274 0.89277 0.04021 0.0
H969 H 0.33333 0.90481 0.06589 0.0
H970 H 0.31374 0.89588 0.09735 0.0
H971 H 0.29868 0.88903 0.03878 0.0
H972 H 0.07534 0.445 0.29044 0.0
H973 H 0.08283 0.43771 0.23035 0.0
H974 H 0.11506 0.46605 0.24967 0.0
H975 H 0.10768 0.47333 0.31032 0.0
H976 H 0.09391 0.44677 0.14347 0.0
H977 H 0.12028 0.4402 0.2733 0.0
H978 H 0.10954 0.44285 0.29258 0.0
H979 H 0.12253 0.45397 0.27225 0.0
C980 C 0.08402 0.4497 0.28174 0.0
C981 C 0.09094 0.4597 0.30528 0.0
C982 C 0.08827 0.44552 0.24745 0.0
C983 C 0.09953 0.45125 0.23626 0.0
C984 C 0.1064 0.4614 0.25858 0.0
H985 H 0.14001 0.43807 0.0408 0.0
H986 H 0.13299 0.44607 0.09984 0.0
C987 C 0.10215 0.46558 0.29295 0.0
C988 C 0.10405 0.44654 0.20134 0.0
H989 H 0.1222 0.43717 0.1905 0.0
C990 C 0.10008 0.44464 0.15373 0.0
C991 C 0.11209 0.44378 0.21494 0.0
C992 C 0.11631 0.4452 0.26614 0.0
C993 C 0.10403 0.44017 0.1191 0.0
C994 C 0.11204 0.43738 0.13275 0.0
C995 C 0.11606 0.43933 0.18026 0.0
C996 C 0.11631 0.43238 0.09819 0.0
C997 C 0.09974 0.43861 0.068 0.0
C998 C 0.10929 0.42194 0.07864 0.0
C999 C 0.11328 0.41734 0.04509 0.0
C1000 C 0.12436 0.4231 0.03066 0.0
C1001 C 0.13143 0.43345 0.05118 0.0
C1002 C 0.12744 0.43803 0.08484 0.0
H1003 H 0.09565 0.4435 0.06073 0.0
H1004 H 0.1065 0.441 0.04147 0.0
H1005 H 0.09361 0.42981 0.06215 0.0
H1006 H 0.10072 0.41737 0.08919 0.0
H1007 H 0.10764 0.40934 0.02999 0.0
H1008 H 0.10718 0.6424 0.35282 0.0
H1009 H 0.11524 0.65748 0.29455 0.0
H1010 H 0.08974 0.63775 0.19202 0.0
H1011 H 0.08135 0.62278 0.25115 0.0
H1012 H 0.12374 0.65969 0.20791 0.0
H1013 H 0.08723 0.66489 0.19436 0.0
H1014 H 0.08832 0.65615 0.23914 0.0
H1015 H 0.0842 0.65129 0.17824 0.0
C1016 C 0.1033 0.64127 0.3178 0.0
C1017 C 0.09358 0.63146 0.3066 0.0
C1018 C 0.10792 0.64989 0.28453 0.0
C1019 C 0.10297 0.64885 0.23928 0.0
C1020 C 0.09351 0.63887 0.22725 0.0
H1021 H 0.1345 0.6917 0.99397 0.0
H1022 H 0.12785 0.67722 0.055 0.0
C1023 C 0.08878 0.63029 0.26086 0.0
C1024 C 0.10773 0.65824 0.20498 0.0
H1025 H 0.10153 0.67474 0.13729 0.0
C1026 C 0.11889 0.66302 0.19264 0.0
C1027 C 0.10147 0.66274 0.18585 0.0
C1028 C 0.08968 0.65858 0.20045 0.0
C1029 C 0.12394 0.67205 0.16117 0.0
C1030 C 0.11754 0.67619 0.14015 0.0
C1031 C 0.10642 0.67151 0.15305 0.0
C1032 C 0.12212 0.68527 0.10427 0.0
C1033 C 0.13611 0.67719 0.15172 0.0
C1034 C 0.1209 0.69453 0.111 0.0
C1035 C 0.12449 0.70271 0.0756 0.0
C1036 C 0.12943 0.70182 0.03302 0.0
C1037 C 0.13085 0.69267 0.02673 0.0
C1038 C 0.12711 0.68442 0.06177 0.0
H1039 H 0.14034 0.6756 0.18197 0.0
H1040 H 0.13739 0.67353 0.11857 0.0
H1041 H 0.14004 0.68622 0.14645 0.0
H1042 H 0.11704 0.69535 0.14341 0.0
H1043 H 0.12327 0.70967 0.0813 0.0
H1044 H 0.36412 0.47343 0.31457 0.0
H1045 H 0.34924 0.46692 0.25506 0.0
H1046 H 0.35506 0.4406 0.21472 0.0
H1047 H 0.36997 0.44706 0.27409 0.0
H1048 H 0.35209 0.45247 0.13506 0.0
H1049 H 0.31909 0.43793 0.27401 0.0
H1050 H 0.33014 0.45188 0.2804 0.0
H1051 H 0.33283 0.44073 0.28769 0.0
C1052 C 0.36229 0.46631 0.29275 0.0
C1053 C 0.36817 0.46072 0.29909 0.0
C1054 C 0.35376 0.46258 0.25901 0.0
C1055 C 0.35098 0.4532 0.23109 0.0
C1056 C 0.35707 0.44782 0.23617 0.0
H1057 H 0.29304 0.41102 0.06359 0.0
H1058 H 0.30804 0.41908 0.12263 0.0
C1059 C 0.36557 0.45152 0.27004 0.0
C1060 C 0.3416 0.44888 0.19713 0.0
H1061 H 0.31362 0.43669 0.19235 0.0
C1062 C 0.34368 0.44905 0.14746 0.0
C1063 C 0.33065 0.44432 0.21368 0.0
C1064 C 0.32797 0.44359 0.26686 0.0
C1065 C 0.33506 0.44484 0.11373 0.0
C1066 C 0.32412 0.44043 0.13023 0.0
C1067 C 0.32203 0.44018 0.17992 0.0
C1068 C 0.31471 0.43573 0.09638 0.0
C1069 C 0.33769 0.44493 0.06077 0.0
C1070 C 0.31337 0.44249 0.06297 0.0
C1071 C 0.30479 0.43792 0.02939 0.0
C1072 C 0.29743 0.42652 0.02871 0.0
C1073 C 0.2986 0.41982 0.0632 0.0
C1074 C 0.30715 0.42441 0.0969 0.0
H1075 H 0.34621 0.44658 0.05498 0.0
H1076 H 0.33186 0.43695 0.04361 0.0
H1077 H 0.33683 0.45147 0.0422 0.0
H1078 H 0.31905 0.45127 0.06251 0.0
H1079 H 0.30408 0.44328 0.00329 0.0
H1080 H 0.55623 0.92412 0.29729 0.0
H1081 H 0.56345 0.91669 0.23651 0.0
H1082 H 0.53282 0.8859 0.23828 0.0
H1083 H 0.52551 0.89328 0.29876 0.0
H1084 H 0.5657 0.89786 0.24835 0.0
H1085 H 0.53858 0.89326 0.09327 0.0
H1086 H 0.54017 0.90179 0.14494 0.0
H1087 H 0.53149 0.88712 0.14873 0.0
C1088 C 0.55099 0.91581 0.28429 0.0
C1089 C 0.5403 0.90929 0.30264 0.0
C1090 C 0.55513 0.91158 0.2497 0.0
C1091 C 0.54863 0.90079 0.23261 0.0
C1092 C 0.5379 0.8943 0.25041 0.0
H1093 H 0.55958 0.85947 0.03332 0.0
H1094 H 0.55218 0.86677 0.09385 0.0
C1095 C 0.53376 0.89852 0.28507 0.0
C1096 C 0.55326 0.89615 0.19793 0.0
H1097 H 0.54998 0.88537 0.08453 0.0
C1098 C 0.56231 0.89517 0.21242 0.0
C1099 C 0.54876 0.89261 0.15127 0.0
C1100 C 0.53927 0.89382 0.13331 0.0
C1101 C 0.5669 0.89058 0.18167 0.0
C1102 C 0.56244 0.88708 0.13492 0.0
C1103 C 0.55337 0.88804 0.12046 0.0
C1104 C 0.56713 0.88251 0.1001 0.0
C1105 C 0.57635 0.88932 0.19987 0.0
C1106 C 0.57798 0.88895 0.08361 0.0
C1107 C 0.58223 0.88479 0.0492 0.0
C1108 C 0.57567 0.87415 0.03043 0.0
C1109 C 0.56484 0.86768 0.04726 0.0
C1110 C 0.56059 0.87185 0.08171 0.0
H1111 H 0.57683 0.8896 0.23998 0.0
H1112 H 0.57558 0.88145 0.18736 0.0
H1113 H 0.58418 0.89616 0.18562 0.0
H1114 H 0.58309 0.89728 0.09662 0.0
H1115 H 0.59059 0.88999 0.03665 0.0
H1116 H 0.18929 0.96536 0.86524 0.0
H1117 H 0.19543 0.98051 0.92335 0.0
H1118 H 0.2284 0.98573 0.91633 0.0
H1119 H 0.22238 0.97076 0.85797 0.0
H1120 H 0.20523 0.98296 0.01382 0.0
H1121 H 0.23299 0.01636 0.88968 0.0
H1122 H 0.22284 0.00289 0.86845 0.0
H1123 H 0.23579 0.00522 0.89184 0.0
C1124 C 0.19784 0.96976 0.87607 0.0
C1125 C 0.20537 0.96693 0.8569 0.0
C1126 C 0.20134 0.9784 0.90918 0.0
C1127 C 0.21241 0.98437 0.92335 0.0
C1128 C 0.21987 0.98141 0.90495 0.0
H1129 H 0.25372 0.03332 0.12641 0.0
H1130 H 0.24508 0.01925 0.06381 0.0
C1131 C 0.21641 0.9728 0.87187 0.0
C1132 C 0.21617 0.99352 0.95835 0.0
H1133 H 0.23516 0.02065 0.97414 0.0
C1134 C 0.21167 0.99124 0.00505 0.0
C1135 C 0.22453 0.00432 0.94661 0.0
C1136 C 0.22925 0.00739 0.89627 0.0
C1137 C 0.21567 0.99938 0.04107 0.0
C1138 C 0.2243 0.01006 0.02973 0.0
C1139 C 0.22857 0.01242 0.98266 0.0
C1140 C 0.22944 0.01874 0.06689 0.0
C1141 C 0.21097 0.99639 0.09144 0.0
C1142 C 0.22352 0.0232 0.08876 0.0
C1143 C 0.22845 0.03127 0.1245 0.0
C1144 C 0.23936 0.03498 0.13879 0.0
C1145 C 0.2453 0.0306 0.11623 0.0
C1146 C 0.24038 0.02258 0.08047 0.0
H1147 H 0.20571 0.98736 0.09625 0.0
H1148 H 0.21767 0.99955 0.11872 0.0
H1149 H 0.20588 0.00025 0.09867 0.0
H1150 H 0.21511 0.02043 0.07821 0.0
H1151 H 0.22369 0.03452 0.1412 0.0
H1152 H 0.96752 0.19112 0.15432 0.0
H1153 H 0.98253 0.19734 0.09536 0.0
H1154 H 0.98022 0.22633 0.06701 0.0
H1155 H 0.9654 0.22029 0.12618 0.0
H1156 H 0.98315 0.20229 0.9967 0.0
H1157 H 0.01265 0.23899 0.10119 0.0
H1158 H 0.00022 0.22801 0.12746 0.0
H1159 H -0.00027 0.2384 0.09114 0.0
C1160 C 0.97022 0.19881 0.13541 0.0
C1161 C 0.96537 0.20527 0.14508 0.0
C1162 C 0.97878 0.20234 0.10182 0.0
C1163 C 0.98262 0.2124 0.07763 0.0
C1164 C 0.97755 0.21868 0.08619 0.0
H1165 H 0.02846 0.25122 0.85847 0.0
H1166 H 0.01427 0.24281 0.92071 0.0
C1167 C 0.96905 0.21518 0.11979 0.0
C1168 C 0.99189 0.21637 0.04313 0.0
H1169 H 0.01723 0.23829 0.0186 0.0
C1170 C 0.99067 0.2101 0.00167 0.0
C1171 C 0.00169 0.22652 0.04997 0.0
C1172 C 0.00372 0.23332 0.09508 0.0
C1173 C 0.99882 0.21396 0.96571 0.0
C1174 C 0.00845 0.22429 0.97186 0.0
C1175 C 0.0098 0.2304 0.01396 0.0
C1176 C 0.01701 0.22918 0.93405 0.0
C1177 C 0.9969 0.20719 0.92062 0.0
C1178 C 0.02331 0.22434 0.92135 0.0
C1179 C 0.03144 0.22914 0.88578 0.0
C1180 C 0.0334 0.23886 0.86256 0.0
C1181 C 0.02713 0.24372 0.87569 0.0
C1182 C 0.01903 0.23894 0.91122 0.0
H1183 H 0.98822 0.20047 0.91743 0.0
H1184 H 0.99909 0.21245 0.88787 0.0
H1185 H 0.00222 0.20343 0.92157 0.0
H1186 H 0.02198 0.2169 0.93917 0.0
H1187 H 0.03618 0.22524 0.87648 0.0
H1188 H 0.76994 0.80914 0.88566 0.0
H1189 H 0.77815 0.80284 0.94706 0.0
H1190 H 0.75669 0.76925 0.90296 0.0
H1191 H 0.74851 0.77546 0.84143 0.0
H1192 H 0.76742 0.78788 0.02436 0.0
H1193 H 0.78777 0.77289 0.89801 0.0
H1194 H 0.78289 0.78203 0.87937 0.0
H1195 H 0.7734 0.76756 0.8862 0.0
C1196 C 0.767 0.80042 0.88903 0.0
C1197 C 0.75862 0.79279 0.85867 0.0
C1198 C 0.77168 0.79684 0.92406 0.0
C1199 C 0.76813 0.7856 0.92896 0.0
C1200 C 0.75968 0.77797 0.89909 0.0
H1201 H 0.77504 0.74951 0.16487 0.0
H1202 H 0.76874 0.75769 0.10366 0.0
C1203 C 0.75498 0.78153 0.86417 0.0
C1204 C 0.77306 0.7818 0.96602 0.0
H1205 H 0.78698 0.76784 0.98073 0.0
C1206 C 0.77177 0.78357 0.0149 0.0
C1207 C 0.77884 0.7763 0.95342 0.0
C1208 C 0.78092 0.77466 0.9014 0.0
C1209 C 0.77581 0.77967 0.05168 0.0
C1210 C 0.78117 0.77376 0.03909 0.0
C1211 C 0.78277 0.77229 0.9902 0.0
C1212 C 0.78502 0.76886 0.07616 0.0
C1213 C 0.77436 0.78193 0.10367 0.0
C1214 C 0.79624 0.77228 0.08014 0.0
C1215 C 0.79987 0.76759 0.11496 0.0
C1216 C 0.79231 0.75936 0.14604 0.0
C1217 C 0.78106 0.75587 0.14154 0.0
C1218 C 0.77745 0.76057 0.10682 0.0
H1219 H 0.77271 0.78887 0.10687 0.0
H1220 H 0.76725 0.77451 0.1194 0.0
H1221 H 0.78177 0.78387 0.12537 0.0
H1222 H 0.80219 0.77862 0.05654 0.0
H1223 H 0.80858 0.77042 0.11755 0.0
H1224 H 0.76296 0.95677 0.90411 0.0
H1225 H 0.77013 0.9707 0.96818 0.0
H1226 H 0.76306 0.99187 0.88073 0.0
H1227 H 0.75557 0.97788 0.81747 0.0
H1228 H 0.78688 0.99158 0.96976 0.0
H1229 H 0.74786 0.99116 0.00493 0.0
H1230 H 0.7485 0.98089 0.96815 0.0
H1231 H 0.75201 0.99407 0.94288 0.0
C1232 C 0.76291 0.96439 0.89871 0.0
C1233 C 0.75861 0.96621 0.8561 0.0
C1234 C 0.76701 0.97234 0.93525 0.0
C1235 C 0.76691 0.98223 0.92964 0.0
C1236 C 0.76292 0.98418 0.88644 0.0
H1237 H 0.80486 0.04221 0.09577 0.0
H1238 H 0.79806 0.02764 0.0347 0.0
C1239 C 0.75871 0.9762 0.85021 0.0
C1240 C 0.77107 0.99057 0.96869 0.0
H1241 H 0.76404 0.00602 0.03941 0.0
C1242 C 0.78187 0.99469 0.98527 0.0
C1243 C 0.76445 0.99449 0.98944 0.0
C1244 C 0.75253 0.98984 0.97581 0.0
C1245 C 0.78634 0.0028 0.02136 0.0
C1246 C 0.7799 0.0071 0.04035 0.0
C1247 C 0.76902 0.00282 0.02441 0.0
C1248 C 0.78417 0.01593 0.07733 0.0
C1249 C 0.79782 0.0065 0.03933 0.0
C1250 C 0.77844 0.01432 0.12091 0.0
C1251 C 0.78217 0.0227 0.15532 0.0
C1252 C 0.79176 0.03282 0.14692 0.0
C1253 C 0.7975 0.03445 0.10332 0.0
C1254 C 0.79368 0.0261 0.0686 0.0
H1255 H 0.80023 0.0002 0.03231 0.0
H1256 H 0.80373 0.01412 0.02003 0.0
H1257 H 0.79854 0.00826 0.07871 0.0
H1258 H 0.77106 0.00656 0.12834 0.0
H1259 H 0.77759 0.02121 0.18866 0.0
H1260 H 0.02017 0.79055 0.80491 0.0
H1261 H 0.00594 0.78461 0.86693 0.0
H1262 H 0.03065 0.79453 0.97815 0.0
H1263 H 0.045 0.80068 0.91612 0.0
H1264 H 0.00118 0.76841 0.93307 0.0
H1265 H 0.0121 0.80761 0.02578 0.0
H1266 H 0.01756 0.80714 0.96728 0.0
H1267 H 0.02327 0.80489 0.02131 0.0
C1268 C 0.0226 0.79162 0.84258 0.0
C1269 C 0.0337 0.79607 0.85573 0.0
C1270 C 0.01446 0.78822 0.87795 0.0
C1271 C 0.01725 0.78923 0.9271 0.0
C1272 C 0.02835 0.79388 0.94042 0.0
H1273 H 0.97402 0.75044 0.15948 0.0
H1274 H 0.9884 0.75893 0.09809 0.0
C1275 C 0.03652 0.79733 0.90498 0.0
C1276 C 0.00845 0.78463 0.96407 0.0
H1277 H 0.99875 0.79113 0.06457 0.0
C1278 C 0.00062 0.77339 0.96169 0.0
C1279 C 0.00767 0.79117 0.00101 0.0
C1280 C 0.01553 0.8034 0.00389 0.0
C1281 C 0.99211 0.76846 0.99571 0.0
C1282 C 0.99157 0.7749 0.03371 0.0
C1283 C 0.99927 0.78619 0.03563 0.0
C1284 C 0.98306 0.77003 0.07185 0.0
C1285 C 0.98372 0.75641 0.99027 0.0
C1286 C 0.9755 0.77369 0.07834 0.0
C1287 C 0.96731 0.76891 0.11367 0.0
C1288 C 0.9666 0.76042 0.14311 0.0
C1289 C 0.9743 0.7569 0.13702 0.0
C1290 C 0.98249 0.76171 0.10186 0.0
H1291 H 0.98352 0.75347 0.95278 0.0
H1292 H 0.98588 0.75153 0.01485 0.0
H1293 H 0.97535 0.75478 -7e-05 0.0
H1294 H 0.97584 0.78015 0.05565 0.0
H1295 H 0.96151 0.77181 0.11771 0.0
H1296 H 0.24201 0.22139 0.19139 0.0
H1297 H 0.23376 0.22783 0.13137 0.0
H1298 H 0.22789 0.20083 0.03771 0.0
H1299 H 0.23578 0.19412 0.09864 0.0
H1300 H 0.24046 0.23492 0.04314 0.0
H1301 H 0.1984 0.19888 0.03335 0.0
H1302 H 0.208 0.2004 0.0802 0.0
H1303 H 0.20882 0.19536 0.02139 0.0
C1304 C 0.23887 0.21677 0.15817 0.0
C1305 C 0.23951 0.20724 0.14965 0.0
C1306 C 0.23416 0.22046 0.12391 0.0
C1307 C 0.23005 0.21473 0.08031 0.0
C1308 C 0.23072 0.20522 0.07161 0.0
H1309 H 0.22146 0.24411 0.82091 0.0
H1310 H 0.22773 0.23638 0.8841 0.0
C1311 C 0.23531 0.20144 0.10625 0.0
C1312 C 0.22563 0.2191 0.04312 0.0
H1313 H 0.20335 0.21243 0.97151 0.0
C1314 C 0.23231 0.23001 0.02772 0.0
C1315 C 0.21494 0.21276 0.02352 0.0
C1316 C 0.20708 0.20124 0.04081 0.0
C1317 C 0.22868 0.23471 0.99281 0.0
C1318 C 0.2182 0.22821 0.97151 0.0
C1319 C 0.21143 0.21736 0.98747 0.0
C1320 C 0.21416 0.23252 0.93252 0.0
C1321 C 0.23604 0.24667 0.97985 0.0
C1322 C 0.20421 0.23252 0.93789 0.0
C1323 C 0.2005 0.23677 0.90139 0.0
C1324 C 0.20672 0.24112 0.85906 0.0
C1325 C 0.21657 0.24094 0.85343 0.0
C1326 C 0.2202 0.23658 0.88962 0.0
H1327 H 0.24198 0.25124 0.00929 0.0
H1328 H 0.24085 0.24725 0.94705 0.0
H1329 H 0.23118 0.25076 0.97224 0.0
H1330 H 0.19938 0.22935 0.97059 0.0
H1331 H 0.19286 0.23677 0.90656 0.0
H1332 H 0.89024 0.36555 0.48135 0.0
H1333 H 0.88156 0.35063 0.42196 0.0
H1334 H 0.91282 0.35269 0.39584 0.0
H1335 H 0.92149 0.36742 0.4555 0.0
H1336 H 0.88611 0.35001 0.32376 0.0
H1337 H 0.89278 0.32028 0.42932 0.0
H1338 H 0.89428 0.33275 0.45538 0.0
H1339 H 0.90518 0.33314 0.41966 0.0
C1340 C 0.89525 0.36283 0.46283 0.0
C1341 C 0.90652 0.36758 0.47329 0.0
C1342 C 0.89029 0.35432 0.42899 0.0
C1343 C 0.89651 0.35042 0.40531 0.0
C1344 C 0.90782 0.3554 0.41462 0.0
H1345 H 0.88952 0.30444 0.18684 0.0
H1346 H 0.89531 0.31873 0.24858 0.0
C1347 C 0.91277 0.36386 0.44849 0.0
C1348 C 0.89126 0.34118 0.37066 0.0
H1349 H 0.88765 0.31574 0.34659 0.0
C1350 C 0.88632 0.34245 0.32892 0.0
C1351 C 0.89149 0.33132 0.37777 0.0
C1352 C 0.89612 0.32922 0.42319 0.0
C1353 C 0.88204 0.3343 0.29297 0.0
C1354 C 0.88263 0.32462 0.29939 0.0
C1355 C 0.88728 0.32322 0.34175 0.0
C1356 C 0.87896 0.31604 0.26164 0.0
C1357 C 0.87729 0.33626 0.24763 0.0
C1358 C 0.86782 0.30975 0.24889 0.0
C1359 C 0.86447 0.30156 0.21361 0.0
C1360 C 0.87222 0.29953 0.19073 0.0
C1361 C 0.88336 0.30582 0.2038 0.0
C1362 C 0.88668 0.31398 0.23905 0.0
H1363 H 0.87928 0.34495 0.24441 0.0
H1364 H 0.88042 0.33407 0.21508 0.0
H1365 H 0.86821 0.33095 0.2482 0.0
H1366 H 0.86172 0.31112 0.26652 0.0
H1367 H 0.85583 0.29681 0.20434 0.0
H1368 H 0.69209 0.5835 0.17038 0.0
H1369 H 0.67774 0.5751 0.23201 0.0
H1370 H 0.68993 0.55353 0.27338 0.0
H1371 H 0.70438 0.56193 0.21177 0.0
H1372 H 0.66126 0.55217 0.24195 0.0
H1373 H 0.68906 0.5689 0.40117 0.0
H1374 H 0.69325 0.5745 0.34111 0.0
H1375 H 0.69258 0.56178 0.3569 0.0
C1376 C 0.69173 0.57698 0.19264 0.0
C1377 C 0.69938 0.57339 0.18646 0.0
C1378 C 0.68352 0.57218 0.2277 0.0
C1379 C 0.68286 0.56378 0.25741 0.0
C1380 C 0.69041 0.5601 0.25113 0.0
H1381 H 0.62765 0.52295 0.44916 0.0
H1382 H 0.64196 0.52916 0.38684 0.0
C1383 C 0.69862 0.56488 0.21588 0.0
C1384 C 0.67423 0.55891 0.2949 0.0
H1385 H 0.67019 0.55714 0.41697 0.0
C1386 C 0.66318 0.55318 0.28024 0.0
C1387 C 0.67682 0.56037 0.3447 0.0
C1388 C 0.68856 0.56679 0.36219 0.0
C1389 C 0.65462 0.5489 0.31424 0.0
C1390 C 0.65722 0.55033 0.36404 0.0
C1391 C 0.66826 0.55601 0.37869 0.0
C1392 C 0.64858 0.54648 0.40154 0.0
C1393 C 0.64287 0.54316 0.29671 0.0
C1394 C 0.6477 0.55417 0.43071 0.0
C1395 C 0.63957 0.55066 0.4662 0.0
C1396 C 0.63222 0.53939 0.47334 0.0
C1397 C 0.63317 0.53169 0.4443 0.0
C1398 C 0.6413 0.53521 0.40865 0.0
H1399 H 0.6423 0.54457 0.25756 0.0
H1400 H 0.63913 0.53417 0.30266 0.0
H1401 H 0.63797 0.54601 0.31728 0.0
H1402 H 0.65327 0.5629 0.42576 0.0
H1403 H 0.63906 0.55679 0.48812 0.0
H1404 H 0.4363 0.14347 0.22126 0.0
H1405 H 0.44501 0.13781 0.28308 0.0
H1406 H 0.42542 0.10409 0.23686 0.0
H1407 H 0.41671 0.10964 0.17511 0.0
H1408 H 0.43433 0.122 0.35938 0.0
H1409 H 0.45759 0.1102 0.23415 0.0
H1410 H 0.45207 0.11884 0.21596 0.0
H1411 H 0.44323 0.10419 0.21995 0.0
C1412 C 0.43387 0.13485 0.22429 0.0
C1413 C 0.42586 0.12699 0.19332 0.0
C1414 C 0.43885 0.13164 0.25953 0.0
C1415 C 0.43596 0.12057 0.26393 0.0
C1416 C 0.42788 0.1127 0.2334 0.0
H1417 H 0.4421 0.08287 0.49205 0.0
H1418 H 0.4363 0.09173 0.43203 0.0
C1419 C 0.42288 0.11589 0.19837 0.0
C1420 C 0.44115 0.11711 0.3012 0.0
H1421 H 0.45625 0.10438 0.31612 0.0
C1422 C 0.43922 0.11824 0.35003 0.0
C1423 C 0.44762 0.11234 0.28876 0.0
C1424 C 0.45036 0.11139 0.23687 0.0
C1425 C 0.44324 0.11433 0.38683 0.0
C1426 C 0.44925 0.10907 0.37427 0.0
C1427 C 0.45155 0.10833 0.32553 0.0
C1428 C 0.45284 0.1039 0.41107 0.0
C1429 C 0.44098 0.11578 0.43883 0.0
C1430 C 0.46406 0.10769 0.41837 0.0
C1431 C 0.46741 0.10263 0.4526 0.0
C1432 C 0.45956 0.09364 0.47964 0.0
C1433 C 0.44833 0.08981 0.47185 0.0
C1434 C 0.445 0.09489 0.43782 0.0
H1435 H 0.43885 0.12238 0.44282 0.0
H1436 H 0.43392 0.10799 0.45219 0.0
H1437 H 0.44821 0.11779 0.46201 0.0
H1438 H 0.47022 0.11459 0.39774 0.0
H1439 H 0.47612 0.10574 0.45779 0.0
H1440 H 0.42824 0.28876 0.23422 0.0
H1441 H 0.43576 0.30276 0.29803 0.0
H1442 H 0.43344 0.32589 0.20295 0.0
H1443 H 0.42561 0.31187 0.13986 0.0
H1444 H 0.45395 0.32291 0.30312 0.0
H1445 H 0.41676 0.32686 0.3194 0.0
H1446 H 0.41686 0.31594 0.28546 0.0
H1447 H 0.42212 0.32937 0.25902 0.0
C1448 C 0.42933 0.29684 0.22705 0.0
C1449 C 0.42623 0.29921 0.18237 0.0
C1450 C 0.43363 0.30482 0.26343 0.0
C1451 C 0.43493 0.31529 0.25557 0.0
C1452 C 0.43221 0.31777 0.21029 0.0
H1453 H 0.47376 0.37419 0.42801 0.0
H1454 H 0.4672 0.35963 0.36689 0.0
C1455 C 0.4278 0.30977 0.17419 0.0
C1456 C 0.43907 0.32362 0.29468 0.0
H1457 H 0.4329 0.3406 0.35872 0.0
C1458 C 0.44933 0.32674 0.31554 0.0
C1459 C 0.43294 0.32846 0.31139 0.0
C1460 C 0.42151 0.32491 0.29303 0.0
C1461 C 0.45374 0.33476 0.35205 0.0
C1462 C 0.44784 0.33997 0.36709 0.0
C1463 C 0.43749 0.33669 0.34678 0.0
C1464 C 0.45207 0.34871 0.40451 0.0
C1465 C 0.46456 0.33739 0.37471 0.0
C1466 C 0.44562 0.34754 0.44527 0.0
C1467 C 0.44924 0.35592 0.4796 0.0
C1468 C 0.45941 0.36561 0.47398 0.0
C1469 C 0.46592 0.36677 0.43337 0.0
C1470 C 0.46222 0.35842 0.39867 0.0
H1471 H 0.4663 0.33055 0.36982 0.0
H1472 H 0.4713 0.3448 0.35709 0.0
H1473 H 0.46466 0.33908 0.41398 0.0
H1474 H 0.43774 0.34014 0.45046 0.0
H1475 H 0.44407 0.35479 0.51062 0.0
H1476 H 0.69578 0.1094 0.18629 0.0
H1477 H 0.68163 0.10366 0.24876 0.0
H1478 H 0.68866 0.13714 0.26366 0.0
H1479 H 0.7028 0.14296 0.2008 0.0
H1480 H 0.68452 0.11167 0.34611 0.0
H1481 H 0.6549 0.1191 0.24209 0.0
H1482 H 0.66591 0.11809 0.21334 0.0
H1483 H 0.6688 0.13037 0.24537 0.0
C1484 C 0.69431 0.11554 0.20279 0.0
C1485 C 0.70036 0.12662 0.1886 0.0
C1486 C 0.68623 0.11225 0.23844 0.0
C1487 C 0.68403 0.11996 0.26031 0.0
C1488 C 0.69012 0.13105 0.24658 0.0
H1489 H 0.63439 0.10938 0.47798 0.0
H1490 H 0.64941 0.11786 0.41893 0.0
C1491 C 0.69823 0.13436 0.21091 0.0
C1492 C 0.67548 0.11634 0.29814 0.0
H1493 H 0.65007 0.11281 0.32229 0.0
C1494 C 0.67699 0.11194 0.34103 0.0
C1495 C 0.66574 0.11681 0.29141 0.0
C1496 C 0.66364 0.12127 0.24548 0.0
C1497 C 0.66896 0.10789 0.37737 0.0
C1498 C 0.65905 0.10802 0.37004 0.0
C1499 C 0.65766 0.11269 0.32766 0.0
C1500 C 0.64987 0.10292 0.40504 0.0
C1501 C 0.67119 0.10356 0.42339 0.0
C1502 C 0.64502 0.09168 0.41587 0.0
C1503 C 0.63651 0.08686 0.44958 0.0
C1504 C 0.63261 0.09315 0.47265 0.0
C1505 C 0.63726 0.10434 0.4608 0.0
C1506 C 0.64582 0.10919 0.42717 0.0
H1507 H 0.68016 0.10704 0.42944 0.0
H1508 H 0.66764 0.10548 0.45525 0.0
H1509 H 0.66739 0.09449 0.42074 0.0
H1510 H 0.64782 0.08664 0.39826 0.0
H1511 H 0.63302 0.07819 0.45765 0.0
H1512 H 0.8903 0.52292 0.4648 0.0
H1513 H 0.88202 0.52863 0.40116 0.0
H1514 H 0.91189 0.56002 0.39158 0.0
H1515 H 0.9202 0.55439 0.45488 0.0
H1516 H 0.87926 0.54769 0.4037 0.0
H1517 H 0.9052 0.54876 0.2501 0.0
H1518 H 0.90392 0.54137 0.30543 0.0
H1519 H 0.91282 0.55603 0.3029 0.0
C1520 C 0.89511 0.531 0.44884 0.0
C1521 C 0.9059 0.53821 0.46463 0.0
C1522 C 0.89038 0.53425 0.41263 0.0
C1523 C 0.89641 0.54468 0.39138 0.0
C1524 C 0.90718 0.55186 0.40702 0.0
H1525 H 0.88896 0.58647 0.1899 0.0
H1526 H 0.89471 0.57745 0.24921 0.0
C1527 C 0.91189 0.54866 0.44332 0.0
C1528 C 0.89137 0.5483 0.35408 0.0
H1529 H 0.89466 0.55759 0.23796 0.0
C1530 C 0.88251 0.54973 0.36724 0.0
C1531 C 0.89565 0.55093 0.30667 0.0
C1532 C 0.90486 0.54911 0.29015 0.0
C1533 C 0.87813 0.55421 0.33471 0.0
C1534 C 0.88262 0.55713 0.28768 0.0
C1535 C 0.89126 0.55538 0.27414 0.0
C1536 C 0.87888 0.56253 0.25262 0.0
C1537 C 0.86905 0.55621 0.35155 0.0
C1538 C 0.86807 0.5571 0.23484 0.0
C1539 C 0.86474 0.56226 0.20102 0.0
C1540 C 0.87221 0.57289 0.18429 0.0
C1541 C 0.88302 0.57828 0.20218 0.0
C1542 C 0.88633 0.57314 0.23597 0.0
H1543 H 0.86816 0.55572 0.39152 0.0
H1544 H 0.8706 0.56441 0.33952 0.0
H1545 H 0.86114 0.54989 0.33558 0.0
H1546 H 0.86226 0.54883 0.24664 0.0
H1547 H 0.85638 0.55788 0.18761 0.0
H1548 H 0.55584 0.64004 0.51235 0.0
H1549 H 0.56123 0.65439 0.57358 0.0
H1550 H 0.52711 0.64279 0.60573 0.0
H1551 H 0.52161 0.62834 0.54438 0.0
H1552 H 0.55487 0.67119 0.57914 0.0
H1553 H 0.54178 0.64312 0.73824 0.0
H1554 H 0.54393 0.63899 0.67929 0.0
H1555 H 0.53182 0.63986 0.69092 0.0
C1556 C 0.54947 0.64053 0.53245 0.0
C1557 C 0.5383 0.63304 0.52378 0.0
C1558 C 0.55257 0.64874 0.56729 0.0
C1559 C 0.54457 0.64957 0.59429 0.0
C1560 C 0.5334 0.64218 0.58552 0.0
H1561 H 0.56028 0.70515 0.78805 0.0
H1562 H 0.55142 0.69085 0.72598 0.0
C1563 C 0.53028 0.63397 0.55046 0.0
C1564 C 0.54803 0.65817 0.6318 0.0
H1565 H 0.54975 0.66207 0.75396 0.0
C1566 C 0.55366 0.66923 0.61738 0.0
C1567 C 0.54649 0.65551 0.68153 0.0
C1568 C 0.54074 0.64374 0.69875 0.0
C1569 C 0.55797 0.67775 0.65157 0.0
C1570 C 0.55654 0.6751 0.7013 0.0
C1571 C 0.55075 0.66404 0.71571 0.0
C1572 C 0.56168 0.68366 0.73894 0.0
C1573 C 0.56438 0.68952 0.63442 0.0
C1574 C 0.57026 0.68421 0.76696 0.0
C1575 C 0.57533 0.69234 0.80219 0.0
C1576 C 0.57184 0.7 0.81026 0.0
C1577 C 0.56316 0.69937 0.78247 0.0
C1578 C 0.55811 0.69124 0.747 0.0
H1579 H 0.56619 0.69009 0.59508 0.0
H1580 H 0.55953 0.69365 0.64156 0.0
H1581 H 0.57226 0.69406 0.65449 0.0
H1582 H 0.57311 0.67841 0.76122 0.0
H1583 H 0.58198 0.6926 0.82315 0.0
H1584 H 0.29401 0.85573 0.78667 0.0
H1585 H 0.3085 0.86132 0.72553 0.0
H1586 H 0.32088 0.89535 0.76258 0.0
H1587 H 0.30647 0.88986 0.82363 0.0
H1588 H 0.31266 0.87593 0.64498 0.0
H1589 H 0.34817 0.8912 0.77043 0.0
H1590 H 0.33416 0.88215 0.78958 0.0
H1591 H 0.33916 0.89659 0.78178 0.0
C1592 C 0.29984 0.8644 0.78183 0.0
C1593 C 0.29914 0.87237 0.80995 0.0
C1594 C 0.3081 0.86757 0.74697 0.0
C1595 C 0.31583 0.87873 0.74014 0.0
C1596 C 0.3151 0.88669 0.76796 0.0
H1597 H 0.35829 0.9153 0.50688 0.0
H1598 H 0.34385 0.90646 0.56781 0.0
C1599 C 0.30683 0.88354 0.80259 0.0
C1600 C 0.32448 0.88214 0.70291 0.0
H1601 H 0.35232 0.89605 0.68732 0.0
C1602 C 0.32133 0.88023 0.65417 0.0
C1603 C 0.33576 0.88762 0.71517 0.0
C1604 C 0.33956 0.88944 0.76709 0.0
C1605 C 0.32921 0.88407 0.61715 0.0
C1606 C 0.3405 0.89003 0.62937 0.0
C1607 C 0.34365 0.89155 0.67814 0.0
C1608 C 0.34914 0.89518 0.59205 0.0
C1609 C 0.32542 0.8818 0.56525 0.0
C1610 C 0.357 0.89189 0.58624 0.0
C1611 C 0.36528 0.89694 0.55144 0.0
C1612 C 0.36587 0.90543 0.52237 0.0
C1613 C 0.35803 0.90876 0.52866 0.0
C1614 C 0.34974 0.90368 0.56323 0.0
H1615 H 0.31685 0.87484 0.56225 0.0
H1616 H 0.32569 0.88921 0.54965 0.0
H1617 H 0.33089 0.87989 0.54334 0.0
H1618 H 0.3567 0.88539 0.60846 0.0
H1619 H 0.37123 0.89422 0.54743 0.0
H1620 H 0.11094 0.41103 0.79484 0.0
H1621 H 0.10513 0.41984 0.7347 0.0
H1622 H 0.1359 0.45014 0.75154 0.0
H1623 H 0.14186 0.44131 0.81139 0.0
H1624 H 0.10276 0.4382 0.75011 0.0
H1625 H 0.1331 0.44595 0.60437 0.0
H1626 H 0.13064 0.43653 0.65355 0.0
H1627 H 0.13883 0.45111 0.66311 0.0
C1628 C 0.11652 0.41954 0.78541 0.0
C1629 C 0.12686 0.42548 0.80771 0.0
C1630 C 0.11318 0.42456 0.75112 0.0
C1631 C 0.12013 0.4356 0.73837 0.0
C1632 C 0.1305 0.44155 0.76025 0.0
H1633 H 0.10783 0.47641 0.53656 0.0
H1634 H 0.11604 0.47031 0.59892 0.0
C1635 C 0.13387 0.43652 0.79455 0.0
C1636 C 0.11622 0.44094 0.70373 0.0
H1637 H 0.12089 0.45271 0.59182 0.0
C1638 C 0.10673 0.44139 0.71555 0.0
C1639 C 0.12148 0.44517 0.65887 0.0
C1640 C 0.13153 0.44462 0.64385 0.0
C1641 C 0.10228 0.44585 0.68342 0.0
C1642 C 0.10736 0.44981 0.63805 0.0
C1643 C 0.11702 0.44965 0.6267 0.0
C1644 C 0.10242 0.45359 0.60092 0.0
C1645 C 0.09216 0.44628 0.69826 0.0
C1646 C 0.09213 0.44617 0.58121 0.0
C1647 C 0.08745 0.44961 0.54572 0.0
C1648 C 0.093 0.46053 0.52919 0.0
C1649 C 0.10334 0.46796 0.5488 0.0
C1650 C 0.10805 0.46449 0.58428 0.0
H1651 H 0.09106 0.44575 0.73814 0.0
H1652 H 0.09257 0.45397 0.68537 0.0
H1653 H 0.08479 0.43921 0.68194 0.0
H1654 H 0.08775 0.43767 0.593 0.0
H1655 H 0.07949 0.44369 0.5311 0.0
H1656 H 0.10738 0.6917 0.8329 0.0
H1657 H 0.1005 0.67673 0.77393 0.0
H1658 H 0.13352 0.68864 0.72198 0.0
H1659 H 0.14048 0.7037 0.78079 0.0
H1660 H 0.11753 0.68365 0.64841 0.0
H1661 H 0.10452 0.64947 0.77995 0.0
H1662 H 0.09928 0.65857 0.79223 0.0
H1663 H 0.11382 0.66366 0.79565 0.0
C1664 C 0.11318 0.69113 0.80894 0.0
C1665 C 0.12447 0.69885 0.81149 0.0
C1666 C 0.10924 0.68254 0.77552 0.0
C1667 C 0.11653 0.6815 0.74422 0.0
C1668 C 0.12779 0.68928 0.74614 0.0
H1669 H 0.10143 0.62572 0.55687 0.0
H1670 H 0.10937 0.64019 0.61859 0.0
C1671 C 0.13174 0.69787 0.77967 0.0
C1672 C 0.11234 0.67244 0.70862 0.0
H1673 H 0.09867 0.64446 0.69849 0.0
C1674 C 0.11346 0.67508 0.65929 0.0
C1675 C 0.10716 0.66129 0.72306 0.0
C1676 C 0.10619 0.65804 0.77559 0.0
C1677 C 0.10925 0.66683 0.62388 0.0
C1678 C 0.10369 0.65567 0.63837 0.0
C1679 C 0.10284 0.65303 0.68765 0.0
C1680 C 0.0986 0.64665 0.60271 0.0
C1681 C 0.11081 0.67009 0.57125 0.0
C1682 C 0.08976 0.64538 0.57433 0.0
C1683 C 0.0852 0.63714 0.5393 0.0
C1684 C 0.0894 0.63002 0.53214 0.0
C1685 C 0.09805 0.63111 0.56155 0.0
C1686 C 0.10259 0.63935 0.59673 0.0
H1687 H 0.11742 0.67877 0.56609 0.0
H1688 H 0.11285 0.66467 0.54976 0.0
H1689 H 0.10304 0.66923 0.55682 0.0
H1690 H 0.08646 0.65084 0.57902 0.0
H1691 H 0.07851 0.63647 0.5173 0.0
H1692 H 0.29392 0.4378 0.78131 0.0
H1693 H 0.30821 0.44591 0.71895 0.0
H1694 H 0.31917 0.42309 0.75587 0.0
H1695 H 0.30498 0.41499 0.81831 0.0
H1696 H 0.33624 0.4457 0.74871 0.0
H1697 H 0.30859 0.43135 0.58836 0.0
H1698 H 0.30548 0.43848 0.63414 0.0
H1699 H 0.30411 0.42535 0.64762 0.0
C1700 C 0.29935 0.43449 0.77595 0.0
C1701 C 0.29833 0.42574 0.80453 0.0
C1702 C 0.30747 0.4391 0.74027 0.0
C1703 C 0.31466 0.43502 0.73264 0.0
C1704 C 0.31367 0.42633 0.76122 0.0
H1705 H 0.35837 0.44183 0.50203 0.0
H1706 H 0.34391 0.43583 0.56318 0.0
C1707 C 0.30555 0.4217 0.79676 0.0
C1708 C 0.32336 0.43989 0.69542 0.0
H1709 H 0.32761 0.44258 0.5735 0.0
C1710 C 0.33438 0.44509 0.71039 0.0
C1711 C 0.32085 0.43898 0.64556 0.0
C1712 C 0.30913 0.43317 0.62768 0.0
C1713 C 0.34299 0.44934 0.67666 0.0
C1714 C 0.34048 0.44844 0.62681 0.0
C1715 C 0.32947 0.44331 0.61183 0.0
C1716 C 0.34917 0.45223 0.58956 0.0
C1717 C 0.35469 0.45448 0.69446 0.0
C1718 C 0.35683 0.46345 0.584 0.0
C1719 C 0.3651 0.46691 0.54904 0.0
C1720 C 0.36581 0.45918 0.51918 0.0
C1721 C 0.35806 0.44796 0.52464 0.0
C1722 C 0.34978 0.44453 0.55942 0.0
H1723 H 0.35511 0.45274 0.73334 0.0
H1724 H 0.35934 0.45144 0.67319 0.0
H1725 H 0.35882 0.46353 0.68971 0.0
H1726 H 0.3564 0.46952 0.60661 0.0
H1727 H 0.37095 0.47561 0.54548 0.0
H1728 H 0.58562 0.88773 0.79863 0.0
H1729 H 0.57676 0.89285 0.73582 0.0
H1730 H 0.548 0.86056 0.74335 0.0
H1731 H 0.55682 0.85535 0.80649 0.0
H1732 H 0.56799 0.88134 0.64344 0.0
H1733 H 0.53662 0.883 0.76108 0.0
H1734 H 0.54892 0.88375 0.7854 0.0
H1735 H 0.53788 0.87087 0.76417 0.0
C1736 C 0.5774 0.88171 0.78698 0.0
C1737 C 0.57189 0.87115 0.80751 0.0
C1738 C 0.57237 0.88465 0.7511 0.0
C1739 C 0.56171 0.87711 0.73538 0.0
C1740 C 0.55619 0.86652 0.7555 0.0
H1741 H 0.52224 0.89024 0.52833 0.0
H1742 H 0.52806 0.88099 0.58681 0.0
C1743 C 0.56125 0.86355 0.79134 0.0
C1744 C 0.55653 0.88041 0.69748 0.0
H1745 H 0.53698 0.88771 0.67921 0.0
C1746 C 0.56115 0.88265 0.65106 0.0
C1747 C 0.54756 0.88202 0.70765 0.0
C1748 C 0.54244 0.87986 0.75728 0.0
C1749 C 0.55718 0.88668 0.6146 0.0
C1750 C 0.54853 0.88877 0.6253 0.0
C1751 C 0.54364 0.88614 0.67125 0.0
C1752 C 0.54493 0.89428 0.5902 0.0
C1753 C 0.56231 0.88871 0.56499 0.0
C1754 C 0.55244 0.90488 0.57361 0.0
C1755 C 0.54916 0.91015 0.54033 0.0
C1756 C 0.53828 0.90495 0.52334 0.0
C1757 C 0.53069 0.89442 0.54074 0.0
C1758 C 0.53399 0.88914 0.57406 0.0
H1759 H 0.56623 0.88363 0.55861 0.0
H1760 H 0.5561 0.88689 0.53624 0.0
H1761 H 0.56879 0.89748 0.56191 0.0
H1762 H 0.56085 0.9091 0.58654 0.0
H1763 H 0.55517 0.91829 0.52786 0.0
H1764 H 0.38143 0.12948 0.19206 0.0
H1765 H 0.36203 0.12013 0.21608 0.0
H1766 H 0.35309 0.10171 0.08289 0.0
H1767 H 0.37246 0.111 0.05857 0.0
H1768 H 0.34372 0.11938 0.16381 0.0
H1769 H 0.33924 0.07814 0.19227 0.0
H1770 H 0.35247 0.09059 0.19003 0.0
H1771 H 0.34507 0.08451 0.13516 0.0
C1772 C 0.37533 0.12343 0.16791 0.0
C1773 C 0.37845 0.12093 0.12352 0.0
C1774 C 0.36427 0.11812 0.18166 0.0
C1775 C 0.35618 0.11016 0.15149 0.0
C1776 C 0.35925 0.10773 0.10694 0.0
H1777 H 0.28556 0.08139 0.15215 0.0
H1778 H 0.30527 0.09161 0.13432 0.0
C1779 C 0.3703 0.11307 0.09304 0.0
C1780 C 0.3445 0.10446 0.16637 0.0
H1781 H 0.32291 0.0792 0.19514 0.0
C1782 C 0.33916 0.11061 0.17085 0.0
C1783 C 0.33865 0.09304 0.17604 0.0
C1784 C 0.34414 0.08616 0.17358 0.0
C1785 C 0.32801 0.10556 0.1837 0.0
C1786 C 0.32207 0.09409 0.19188 0.0
C1787 C 0.32748 0.08799 0.18851 0.0
C1788 C 0.31019 0.08821 0.20337 0.0
C1789 C 0.32267 0.11255 0.18873 0.0
C1790 C 0.30643 0.0828 0.24786 0.0
C1791 C 0.29518 0.07695 0.25815 0.0
C1792 C 0.2875 0.07633 0.22387 0.0
C1793 C 0.29129 0.08175 0.17933 0.0
C1794 C 0.30254 0.08764 0.16917 0.0
H1795 H 0.32887 0.12141 0.19264 0.0
H1796 H 0.31771 0.11157 0.15593 0.0
H1797 H 0.31708 0.10993 0.22046 0.0
H1798 H 0.31222 0.0831 0.27458 0.0
H1799 H 0.2925 0.07282 0.2927 0.0
H1800 H 0.88139 0.25461 0.05067 0.0
H1801 H 0.89046 0.24431 0.0746 0.0
H1802 H 0.88451 0.24794 0.22464 0.0
H1803 H 0.87518 0.258 0.20091 0.0
H1804 H 0.90876 0.25121 0.12997 0.0
H1805 H 0.87337 0.21527 0.21645 0.0
H1806 H 0.87174 0.22491 0.17916 0.0
H1807 H 0.87616 0.22825 0.24096 0.0
C1808 C 0.88194 0.25313 0.08874 0.0
C1809 C 0.87753 0.25706 0.12393 0.0
C1810 C 0.88713 0.24726 0.10235 0.0
C1811 C 0.88801 0.24521 0.15136 0.0
C1812 C 0.88368 0.24919 0.18658 0.0
H1813 H 0.92235 0.21618 0.2984 0.0
H1814 H 0.91224 0.22577 0.27906 0.0
C1815 C 0.87842 0.255 0.17298 0.0
C1816 C 0.89386 0.2393 0.16553 0.0
H1817 H 0.89091 0.21678 0.22626 0.0
C1818 C 0.90484 0.24365 0.15084 0.0
C1819 C 0.88874 0.22947 0.19293 0.0
C1820 C 0.87683 0.22413 0.20795 0.0
C1821 C 0.91085 0.23848 0.16304 0.0
C1822 C 0.90572 0.22866 0.1903 0.0
C1823 C 0.89479 0.22434 0.20545 0.0
C1824 C 0.91152 0.22261 0.20224 0.0
C1825 C 0.92268 0.2436 0.14711 0.0
C1826 C 0.91426 0.21753 0.16548 0.0
C1827 C 0.91997 0.21202 0.17638 0.0
C1828 C 0.92304 0.21152 0.22427 0.0
C1829 C 0.92012 0.21647 0.26117 0.0
C1830 C 0.91435 0.22193 0.25023 0.0
H1831 H 0.92607 0.25227 0.1354 0.0
H1832 H 0.92787 0.24333 0.17678 0.0
H1833 H 0.92322 0.23886 0.11616 0.0
H1834 H 0.91202 0.21786 0.12831 0.0
H1835 H 0.92207 0.20826 0.1472 0.0
H1836 H 0.74045 0.61857 0.19379 0.0
H1837 H 0.75039 0.63809 0.21533 0.0
H1838 H 0.75405 0.64682 0.06429 0.0
H1839 H 0.7441 0.62728 0.04233 0.0
H1840 H 0.77394 0.6582 0.12416 0.0
H1841 H 0.73801 0.65956 0.20074 0.0
H1842 H 0.74015 0.64873 0.22288 0.0
H1843 H 0.73654 0.64875 0.16063 0.0
C1844 C 0.74336 0.62464 0.16514 0.0
C1845 C 0.74146 0.62141 0.11637 0.0
C1846 C 0.74899 0.63578 0.17753 0.0
C1847 C 0.75282 0.64386 0.14139 0.0
C1848 C 0.7511 0.64068 0.09265 0.0
H1849 H 0.79048 0.71525 0.14055 0.0
H1850 H 0.78096 0.69574 0.1191 0.0
C1851 C 0.74541 0.62953 0.08021 0.0
C1852 C 0.75873 0.65565 0.15455 0.0
H1853 H 0.75543 0.67553 0.20991 0.0
C1854 C 0.76991 0.66202 0.14275 0.0
C1855 C 0.75343 0.66055 0.17901 0.0
C1856 C 0.74135 0.6541 0.19133 0.0
C1857 C 0.776 0.67318 0.15551 0.0
C1858 C 0.77068 0.67812 0.17966 0.0
C1859 C 0.75949 0.67172 0.19145 0.0
C1860 C 0.77653 0.68995 0.19269 0.0
C1861 C 0.78813 0.67949 0.14402 0.0
C1862 C 0.77693 0.69318 0.24103 0.0
C1863 C 0.78226 0.70433 0.25333 0.0
C1864 C 0.78726 0.71244 0.21745 0.0
C1865 C 0.78678 0.70918 0.16904 0.0
C1866 C 0.78141 0.69804 0.15676 0.0
H1867 H 0.79151 0.67391 0.13858 0.0
H1868 H 0.78943 0.68421 0.1101 0.0
H1869 H 0.79285 0.68539 0.17333 0.0
H1870 H 0.77316 0.68706 0.26928 0.0
H1871 H 0.78247 0.7066 0.29092 0.0
H1872 H 0.08103 0.28333 0.85975 0.0
H1873 H 0.09091 0.30271 0.88413 0.0
H1874 H 0.07984 0.3114 0.7548 0.0
H1875 H 0.06991 0.29205 0.73022 0.0
H1876 H 0.10767 0.32113 0.83206 0.0
H1877 H 0.07074 0.32495 0.86655 0.0
H1878 H 0.07013 0.31181 0.86216 0.0
H1879 H 0.07103 0.31939 0.80837 0.0
C1880 C 0.08069 0.28937 0.83653 0.0
C1881 C 0.07466 0.28619 0.79317 0.0
C1882 C 0.08634 0.30042 0.85049 0.0
C1883 C 0.08597 0.30843 0.82155 0.0
C1884 C 0.08007 0.3053 0.77798 0.0
H1885 H 0.1272 0.37907 0.8205 0.0
H1886 H 0.11783 0.35934 0.8033 0.0
C1887 C 0.07445 0.29426 0.76391 0.0
C1888 C 0.09188 0.32011 0.83659 0.0
H1889 H 0.088 0.3415 0.86701 0.0
C1890 C 0.10339 0.32559 0.83993 0.0
C1891 C 0.08623 0.32583 0.84739 0.0
C1892 C 0.07384 0.3202 0.84641 0.0
C1893 C 0.10944 0.33675 0.85264 0.0
C1894 C 0.10381 0.34257 0.86176 0.0
C1895 C 0.09229 0.33702 0.85962 0.0
C1896 C 0.10974 0.35448 0.87285 0.0
C1897 C 0.12179 0.34222 0.85649 0.0
C1898 C 0.10816 0.35827 0.91739 0.0
C1899 C 0.11349 0.36954 0.92731 0.0
C1900 C 0.1204 0.37719 0.89261 0.0
C1901 C 0.12196 0.37336 0.84802 0.0
C1902 C 0.11666 0.3621 0.83822 0.0
H1903 H 0.12456 0.3361 0.86033 0.0
H1904 H 0.12556 0.34707 0.82321 0.0
H1905 H 0.12487 0.34792 0.88782 0.0
H1906 H 0.10279 0.3525 0.94446 0.0
H1907 H 0.11211 0.37225 0.96192 0.0
H1908 H 0.7061 0.78273 0.70944 0.0
H1909 H 0.68649 0.77345 0.72957 0.0
H1910 H 0.69459 0.78112 0.88029 0.0
H1911 H 0.71417 0.79061 0.86032 0.0
H1912 H 0.67465 0.75571 0.78806 0.0
H1913 H 0.67293 0.79177 0.85888 0.0
H1914 H 0.68454 0.79311 0.82518 0.0
H1915 H 0.68309 0.78962 0.88839 0.0
C1916 C 0.70369 0.78249 0.74682 0.0
C1917 C 0.71166 0.78744 0.78329 0.0
C1918 C 0.6925 0.77719 0.75826 0.0
C1919 C 0.68908 0.77677 0.80631 0.0
C1920 C 0.69703 0.78159 0.84283 0.0
H1921 H 0.62638 0.74411 0.95512 0.0
H1922 H 0.64591 0.75412 0.93294 0.0
C1923 C 0.70822 0.78695 0.83139 0.0
C1924 C 0.67721 0.77094 0.81848 0.0
H1925 H 0.65719 0.77418 0.87318 0.0
C1926 C 0.67081 0.75977 0.80634 0.0
C1927 C 0.67222 0.77625 0.84234 0.0
C1928 C 0.67852 0.78837 0.85405 0.0
C1929 C 0.65961 0.75371 0.81831 0.0
C1930 C 0.65468 0.75899 0.84269 0.0
C1931 C 0.66104 0.77016 0.85468 0.0
C1932 C 0.6429 0.75305 0.8559 0.0
C1933 C 0.65316 0.74164 0.80569 0.0
C1934 C 0.6348 0.74929 0.81987 0.0
C1935 C 0.62367 0.74363 0.83239 0.0
C1936 C 0.62047 0.74163 0.88118 0.0
C1937 C 0.62861 0.7455 0.91723 0.0
C1938 C 0.63974 0.75122 0.90466 0.0
H1939 H 0.65861 0.73833 0.79582 0.0
H1940 H 0.64786 0.7368 0.83644 0.0
H1941 H 0.64773 0.74047 0.77439 0.0
H1942 H 0.63709 0.75076 0.78206 0.0
H1943 H 0.61757 0.74077 0.80383 0.0
H1944 H 0.20881 0.92441 0.86327 0.0
H1945 H 0.21852 0.91452 0.88341 0.0
H1946 H 0.22456 0.91245 0.73194 0.0
H1947 H 0.21505 0.92253 0.71158 0.0
H1948 H 0.21417 0.89382 0.8563 0.0
H1949 H 0.25522 0.92564 0.78988 0.0
H1950 H 0.24404 0.92834 0.7986 0.0
H1951 H 0.24452 0.92122 0.74542 0.0
C1952 C 0.21222 0.92187 0.83426 0.0
C1953 C 0.21124 0.92431 0.78586 0.0
C1954 C 0.21776 0.91621 0.84582 0.0
C1955 C 0.22242 0.91292 0.80924 0.0
C1956 C 0.22125 0.91514 0.76081 0.0
H1957 H 0.2579 0.87712 0.80515 0.0
H1958 H 0.24764 0.88647 0.78503 0.0
C1959 C 0.21575 0.92084 0.74921 0.0
C1960 C 0.2284 0.90705 0.82183 0.0
H1961 H 0.25333 0.90846 0.81241 0.0
C1962 C 0.22275 0.89704 0.84691 0.0
C1963 C 0.23959 0.91128 0.80959 0.0
C1964 C 0.24624 0.92226 0.7848 0.0
C1965 C 0.22794 0.89105 0.85936 0.0
C1966 C 0.2391 0.89525 0.84683 0.0
C1967 C 0.24476 0.90526 0.82179 0.0
C1968 C 0.24508 0.88941 0.85939 0.0
C1969 C 0.22141 0.88017 0.88501 0.0
C1970 C 0.2471 0.88806 0.90788 0.0
C1971 C 0.25299 0.88275 0.9195 0.0
C1972 C 0.25695 0.87873 0.88276 0.0
C1973 C 0.25492 0.88011 0.83423 0.0
C1974 C 0.24908 0.88545 0.82266 0.0
H1975 H 0.21242 0.87696 0.88245 0.0
H1976 H 0.22327 0.87395 0.86978 0.0
H1977 H 0.22371 0.88125 0.92383 0.0
H1978 H 0.24423 0.89122 0.9367 0.0
H1979 H 0.25446 0.88184 0.95719 0.0
H1980 H 0.70592 0.92293 0.70798 0.0
H1981 H 0.68634 0.91287 0.72934 0.0
H1982 H 0.69484 0.91573 0.8805 0.0
H1983 H 0.71439 0.92576 0.85957 0.0
H1984 H 0.67503 0.8926 0.7876 0.0
H1985 H 0.67317 0.92798 0.86767 0.0
H1986 H 0.68403 0.92973 0.82716 0.0
H1987 H 0.6841 0.92591 0.88904 0.0
C1988 C 0.70361 0.92144 0.74576 0.0
C1989 C 0.71167 0.92516 0.78213 0.0
C1990 C 0.69244 0.91569 0.75786 0.0
C1991 C 0.68918 0.91368 0.80647 0.0
C1992 C 0.69721 0.91733 0.84281 0.0
H1993 H 0.62641 0.88294 0.95564 0.0
H1994 H 0.64595 0.89241 0.93406 0.0
C1995 C 0.70836 0.92302 0.83077 0.0
C1996 C 0.67738 0.90762 0.8193 0.0
H1997 H 0.65732 0.91043 0.87581 0.0
C1998 C 0.67112 0.89648 0.8067 0.0
C1999 C 0.67238 0.91274 0.84444 0.0
C2000 C 0.67871 0.92477 0.85765 0.0
C2001 C 0.65996 0.89023 0.81935 0.0
C2002 C 0.65492 0.89536 0.84426 0.0
C2003 C 0.66121 0.90652 0.85679 0.0
C2004 C 0.64309 0.88934 0.85727 0.0
C2005 C 0.65377 0.87815 0.80698 0.0
C2006 C 0.63502 0.88456 0.82123 0.0
C2007 C 0.62387 0.87911 0.83348 0.0
C2008 C 0.6206 0.87844 0.88197 0.0
C2009 C 0.62869 0.8833 0.918 0.0
C2010 C 0.63985 0.88871 0.90572 0.0
H2011 H 0.65944 0.87489 0.80088 0.0
H2012 H 0.6479 0.87327 0.83613 0.0
H2013 H 0.64903 0.87693 0.7732 0.0
H2014 H 0.63733 0.88518 0.78352 0.0
H2015 H 0.61782 0.87552 0.80489 0.0
H2016 H 0.08004 0.78599 0.71169 0.0
H2017 H 0.08965 0.77605 0.73315 0.0
H2018 H 0.07421 0.76865 0.87349 0.0
H2019 H 0.06451 0.77848 0.85222 0.0
H2020 H 0.1043 0.78092 0.8119 0.0
H2021 H 0.06853 0.73855 0.82439 0.0
H2022 H 0.06781 0.74957 0.79412 0.0
H2023 H 0.06726 0.7487 0.85896 0.0
C2024 C 0.07861 0.78215 0.74694 0.0
C2025 C 0.0715 0.78298 0.78023 0.0
C2026 C 0.08412 0.7765 0.75915 0.0
C2027 C 0.08253 0.77151 0.80466 0.0
C2028 C 0.07539 0.77227 0.83785 0.0
H2029 H 0.11007 0.73589 0.95037 0.0
H2030 H 0.09993 0.7453 0.9288 0.0
C2031 C 0.06989 0.77793 0.82572 0.0
C2032 C 0.08874 0.76594 0.81822 0.0
H2033 H 0.08569 0.74116 0.85162 0.0
C2034 C 0.10025 0.77222 0.82036 0.0
C2035 C 0.0834 0.75461 0.82951 0.0
C2036 C 0.07107 0.74741 0.8263 0.0
C2037 C 0.10659 0.76749 0.83421 0.0
C2038 C 0.10126 0.75613 0.84523 0.0
C2039 C 0.08974 0.74986 0.84319 0.0
C2040 C 0.10751 0.75057 0.85841 0.0
C2041 C 0.11891 0.77475 0.83794 0.0
C2042 C 0.11503 0.75032 0.82577 0.0
C2043 C 0.12085 0.74501 0.83806 0.0
C2044 C 0.11918 0.73975 0.88305 0.0
C2045 C 0.11156 0.7399 0.91551 0.0
C2046 C 0.10575 0.74526 0.90323 0.0
H2047 H 0.12135 0.78356 0.84148 0.0
H2048 H 0.12221 0.77239 0.86937 0.0
H2049 H 0.12279 0.77383 0.80466 0.0
H2050 H 0.11633 0.75416 0.79057 0.0
H2051 H 0.12661 0.74495 0.81215 0.0
H2052 H 0.20629 0.28561 0.85546 0.0
H2053 H 0.21586 0.30523 0.87515 0.0
H2054 H 0.23024 0.31289 0.73265 0.0
H2055 H 0.22075 0.29326 0.71273 0.0
H2056 H 0.24535 0.32381 0.80889 0.0
H2057 H 0.2083 0.32826 0.82336 0.0
H2058 H 0.20782 0.31734 0.85914 0.0
H2059 H 0.20807 0.31662 0.79434 0.0
C2060 C 0.21147 0.29147 0.82826 0.0
C2061 C 0.21275 0.28791 0.78249 0.0
C2062 C 0.21688 0.30267 0.83949 0.0
C2063 C 0.22363 0.3105 0.80512 0.0
C2064 C 0.22501 0.30696 0.75956 0.0
H2065 H 0.25053 0.38117 0.81558 0.0
H2066 H 0.24092 0.36166 0.79377 0.0
C2067 C 0.21958 0.29576 0.74824 0.0
C2068 C 0.22943 0.32236 0.81707 0.0
H2069 H 0.22523 0.34347 0.84904 0.0
C2070 C 0.24097 0.32813 0.81755 0.0
C2071 C 0.22367 0.32797 0.82782 0.0
C2072 C 0.21128 0.32228 0.82578 0.0
C2073 C 0.24692 0.33935 0.82935 0.0
C2074 C 0.24115 0.34488 0.84148 0.0
C2075 C 0.22961 0.33916 0.84016 0.0
C2076 C 0.24694 0.35665 0.85507 0.0
C2077 C 0.25932 0.34523 0.82815 0.0
C2078 C 0.25339 0.36025 0.8971 0.0
C2079 C 0.25887 0.37138 0.90971 0.0
C2080 C 0.25797 0.37908 0.8805 0.0
C2081 C 0.2514 0.37543 0.83872 0.0
C2082 C 0.2459 0.3643 0.82622 0.0
H2083 H 0.2624 0.34055 0.80743 0.0
H2084 H 0.26271 0.35353 0.81182 0.0
H2085 H 0.26249 0.34627 0.86566 0.0
H2086 H 0.25414 0.35443 0.92025 0.0
H2087 H 0.26384 0.37395 0.94221 0.0
H2088 H 0.92251 0.70646 0.28343 0.0
H2089 H 0.91236 0.68703 0.25996 0.0
H2090 H 0.91413 0.6964 0.11035 0.0
H2091 H 0.9243 0.71583 0.13342 0.0
H2092 H 0.89186 0.67574 0.20575 0.0
H2093 H 0.92673 0.6751 0.11344 0.0
H2094 H 0.92871 0.6858 0.15537 0.0
H2095 H 0.92405 0.68581 0.09494 0.0
C2096 C 0.92074 0.70438 0.24554 0.0
C2097 C 0.92424 0.71266 0.21022 0.0
C2098 C 0.91494 0.69329 0.23223 0.0
C2099 C 0.91262 0.69031 0.18342 0.0
C2100 C 0.91599 0.69855 0.14814 0.0
H2101 H 0.88154 0.62711 0.03556 0.0
H2102 H 0.89066 0.64674 0.05551 0.0
C2103 C 0.92175 0.70964 0.16141 0.0
C2104 C 0.90661 0.67857 0.16946 0.0
H2105 H 0.90937 0.65894 0.10866 0.0
C2106 C 0.89567 0.67204 0.18459 0.0
C2107 C 0.91161 0.67383 0.14164 0.0
C2108 C 0.92345 0.68044 0.12561 0.0
C2109 C 0.88954 0.66086 0.1722 0.0
C2110 C 0.89459 0.65607 0.14494 0.0
C2111 C 0.90551 0.66264 0.12952 0.0
C2112 C 0.88878 0.64419 0.13289 0.0
C2113 C 0.87765 0.65436 0.18768 0.0
C2114 C 0.8848 0.63627 0.16978 0.0
C2115 C 0.87955 0.62508 0.15849 0.0
C2116 C 0.8783 0.62161 0.11009 0.0
C2117 C 0.88237 0.62955 0.07318 0.0
C2118 C 0.88758 0.64075 0.08451 0.0
H2119 H 0.8742 0.65981 0.19519 0.0
H2120 H 0.87253 0.6483 0.15961 0.0
H2121 H 0.87706 0.64982 0.22142 0.0
H2122 H 0.88589 0.63874 0.20739 0.0
H2123 H 0.87658 0.61915 0.18774 0.0
H2124 H 0.38121 0.25951 0.18966 0.0
H2125 H 0.3617 0.24987 0.2117 0.0
H2126 H 0.35285 0.24779 0.06122 0.0
H2127 H 0.37235 0.25743 0.03881 0.0
H2128 H 0.34547 0.25638 0.18769 0.0
H2129 H 0.33524 0.21554 0.11324 0.0
H2130 H 0.34918 0.22614 0.12625 0.0
H2131 H 0.34237 0.22705 0.073 0.0
C2132 C 0.37511 0.25699 0.16125 0.0
C2133 C 0.37829 0.25918 0.11249 0.0
C2134 C 0.36398 0.2515 0.17392 0.0
C2135 C 0.35587 0.24803 0.13803 0.0
C2136 C 0.35901 0.25028 0.08935 0.0
H2137 H 0.28465 0.2118 0.13995 0.0
H2138 H 0.30415 0.22185 0.11825 0.0
C2139 C 0.37013 0.25582 0.07665 0.0
C2140 C 0.34411 0.24217 0.15162 0.0
H2141 H 0.32044 0.21741 0.14252 0.0
C2142 C 0.33998 0.24785 0.17801 0.0
C2143 C 0.33701 0.23107 0.13871 0.0
C2144 C 0.34114 0.22452 0.11155 0.0
C2145 C 0.32885 0.24276 0.19118 0.0
C2146 C 0.32174 0.23162 0.17855 0.0
C2147 C 0.3259 0.22595 0.15216 0.0
C2148 C 0.30995 0.22569 0.19207 0.0
C2149 C 0.32475 0.24944 0.21743 0.0
C2150 C 0.30675 0.22442 0.24081 0.0
C2151 C 0.29561 0.21873 0.25329 0.0
C2152 C 0.28749 0.21412 0.21724 0.0
C2153 C 0.29072 0.21529 0.16851 0.0
C2154 C 0.30186 0.22102 0.15606 0.0
H2155 H 0.33037 0.25841 0.21243 0.0
H2156 H 0.31641 0.24733 0.20475 0.0
H2157 H 0.32427 0.24765 0.2567 0.0
H2158 H 0.31287 0.22773 0.26923 0.0
H2159 H 0.29336 0.21789 0.29116 0.0
H2160 H 0.74684 0.12819 0.18582 0.0
H2161 H 0.7568 0.11862 0.20757 0.0
H2162 H 0.7489 0.10248 0.06879 0.0
H2163 H 0.73891 0.112 0.04672 0.0
H2164 H 0.74453 0.0883 0.15192 0.0
H2165 H 0.78685 0.12448 0.15121 0.0
H2166 H 0.77683 0.12599 0.18572 0.0
H2167 H 0.77545 0.12454 0.12122 0.0
C2168 C 0.74727 0.12265 0.15983 0.0
C2169 C 0.74212 0.12086 0.11451 0.0
C2170 C 0.753 0.11723 0.17225 0.0
C2171 C 0.75366 0.10994 0.13958 0.0
C2172 C 0.7485 0.10811 0.09438 0.0
H2173 H 0.79431 0.07967 0.1467 0.0
H2174 H 0.78477 0.08968 0.12538 0.0
C2175 C 0.74283 0.11357 0.08183 0.0
C2176 C 0.75948 0.10398 0.15301 0.0
H2177 H 0.78485 0.10764 0.17955 0.0
C2178 C 0.75334 0.09251 0.15795 0.0
C2179 C 0.77098 0.10952 0.16046 0.0
C2180 C 0.77797 0.12181 0.15407 0.0
C2181 C 0.75841 0.08642 0.17073 0.0
C2182 C 0.76988 0.09198 0.17899 0.0
C2183 C 0.77604 0.10344 0.1735 0.0
C2184 C 0.77567 0.08599 0.1924 0.0
C2185 C 0.75151 0.07407 0.17464 0.0
C2186 C 0.77377 0.08072 0.23736 0.0
C2187 C 0.77923 0.07503 0.24973 0.0
C2188 C 0.78666 0.07452 0.21725 0.0
C2189 C 0.7886 0.07989 0.17239 0.0
C2190 C 0.78318 0.08562 0.16018 0.0
H2191 H 0.74325 0.07089 0.1581 0.0
H2192 H 0.75568 0.07006 0.15685 0.0
H2193 H 0.75037 0.07168 0.21336 0.0
H2194 H 0.76809 0.08104 0.26291 0.0
H2195 H 0.7776 0.07101 0.2846 0.0
H2196 H 0.0485 0.46343 0.52507 0.0
H2197 H 0.02905 0.45398 0.54808 0.0
H2198 H 0.02047 0.43621 0.41319 0.0
H2199 H 0.0399 0.4456 0.38992 0.0
H2200 H 0.01081 0.45336 0.49704 0.0
H2201 H 0.00652 0.41205 0.5195 0.0
H2202 H 0.01972 0.42454 0.51792 0.0
H2203 H 0.01229 0.41872 0.46284 0.0
C2204 C 0.04247 0.45752 0.50029 0.0
C2205 C 0.04571 0.45521 0.45578 0.0
C2206 C 0.03137 0.45215 0.51347 0.0
C2207 C 0.02337 0.44432 0.48258 0.0
C2208 C 0.02656 0.44212 0.43781 0.0
H2209 H 0.95266 0.41517 0.48496 0.0
H2210 H 0.97235 0.42556 0.46671 0.0
C2211 C 0.03765 0.44752 0.4245 0.0
C2212 C 0.01166 0.43847 0.49715 0.0
H2213 H 0.99015 0.41301 0.52382 0.0
C2214 C 0.00628 0.44455 0.50305 0.0
C2215 C 0.00586 0.427 0.5055 0.0
C2216 C 0.01138 0.42017 0.50157 0.0
C2217 C 0.99514 0.43939 0.5161 0.0
C2218 C 0.98925 0.42787 0.52304 0.0
C2219 C 0.99469 0.42183 0.51815 0.0
C2220 C 0.97738 0.42189 0.53484 0.0
C2221 C 0.98976 0.4463 0.52275 0.0
C2222 C 0.97371 0.41629 0.57895 0.0
C2223 C 0.96248 0.41034 0.5895 0.0
C2224 C 0.95473 0.40982 0.55584 0.0
C2225 C 0.95844 0.41545 0.51167 0.0
C2226 C 0.96968 0.42143 0.50127 0.0
H2227 H 0.99594 0.45515 0.52724 0.0
H2228 H 0.98472 0.44544 0.4904 0.0
H2229 H 0.98424 0.44351 0.55472 0.0
H2230 H 0.97955 0.41651 0.60518 0.0
H2231 H 0.95985 0.40606 0.62375 0.0
H2232 H 0.59012 0.55013 0.62139 0.0
H2233 H 0.57994 0.55952 0.60049 0.0
H2234 H 0.57928 0.55051 0.45093 0.0
H2235 H 0.58926 0.54095 0.47166 0.0
H2236 H 0.58604 0.57692 0.538 0.0
H2237 H 0.54715 0.5407 0.47665 0.0
H2238 H 0.55746 0.53942 0.51034 0.0
H2239 H 0.55916 0.54223 0.44652 0.0
C2240 C 0.58773 0.55009 0.58412 0.0
C2241 C 0.59043 0.54476 0.54818 0.0
C2242 C 0.58193 0.55546 0.57224 0.0
C2243 C 0.5787 0.55557 0.5243 0.0
C2244 C 0.58146 0.55032 0.48832 0.0
H2245 H 0.54754 0.58759 0.37742 0.0
H2246 H 0.55712 0.57755 0.39795 0.0
C2247 C 0.58723 0.54491 0.50018 0.0
C2248 C 0.57281 0.56152 0.51167 0.0
H2249 H 0.54919 0.55829 0.46097 0.0
C2250 C 0.57795 0.57284 0.52142 0.0
C2251 C 0.56228 0.55617 0.48993 0.0
C2252 C 0.55613 0.54394 0.48062 0.0
C2253 C 0.57291 0.57898 0.50937 0.0
C2254 C 0.56241 0.57364 0.48748 0.0
C2255 C 0.55726 0.56234 0.47762 0.0
C2256 C 0.55657 0.57964 0.47518 0.0
C2257 C 0.57892 0.59118 0.51937 0.0
C2258 C 0.55298 0.58399 0.5119 0.0
C2259 C 0.54749 0.58968 0.50034 0.0
C2260 C 0.54549 0.59111 0.45182 0.0
C2261 C 0.549 0.58665 0.4151 0.0
C2262 C 0.55446 0.58091 0.42674 0.0
H2263 H 0.58781 0.59443 0.52637 0.0
H2264 H 0.57805 0.59575 0.4885 0.0
H2265 H 0.5753 0.59282 0.55178 0.0
H2266 H 0.5544 0.58295 0.54952 0.0
H2267 H 0.54484 0.59299 0.52941 0.0
H2268 H 0.45071 0.03954 0.62548 0.0
H2269 H 0.44148 0.01993 0.60525 0.0
H2270 H 0.44602 0.02802 0.45344 0.0
H2271 H 0.45541 0.0476 0.47336 0.0
H2272 H 0.42259 0.00784 0.55164 0.0
H2273 H 0.45777 0.00686 0.46547 0.0
H2274 H 0.45946 0.01831 0.50162 0.0
H2275 H 0.45495 0.01695 0.43984 0.0
C2276 C 0.4498 0.03713 0.58781 0.0
C2277 C 0.45383 0.0451 0.551 0.0
C2278 C 0.44453 0.02594 0.57632 0.0
C2279 C 0.44323 0.02253 0.52788 0.0
C2280 C 0.44717 0.03047 0.49108 0.0
H2281 H 0.40977 0.95983 0.37937 0.0
H2282 H 0.41982 0.97935 0.40161 0.0
C2283 C 0.45247 0.04166 0.50252 0.0
C2284 C 0.43739 0.01066 0.51574 0.0
H2285 H 0.44015 0.9909 0.45581 0.0
C2286 C 0.42645 0.00412 0.531 0.0
C2287 C 0.44245 0.00583 0.48874 0.0
C2288 C 0.45433 0.01232 0.47333 0.0
C2289 C 0.42035 0.99291 0.51912 0.0
C2290 C 0.42538 0.98812 0.49174 0.0
C2291 C 0.43632 0.99463 0.47664 0.0
C2292 C 0.41939 0.97633 0.47849 0.0
C2293 C 0.4085 0.98633 0.53499 0.0
C2294 C 0.41598 0.96821 0.51436 0.0
C2295 C 0.41027 0.95708 0.5018 0.0
C2296 C 0.4079 0.95389 0.45311 0.0
C2297 C 0.41145 0.96205 0.41719 0.0
C2298 C 0.41719 0.97318 0.4298 0.0
H2299 H 0.40519 0.99171 0.54621 0.0
H2300 H 0.40327 0.98084 0.5055 0.0
H2301 H 0.40789 0.98111 0.5663 0.0
H2302 H 0.41775 0.97049 0.55208 0.0
H2303 H 0.40768 0.95099 0.53025 0.0
H2304 H 0.58888 0.03971 0.62335 0.0
H2305 H 0.57875 0.02004 0.6035 0.0
H2306 H 0.57895 0.02794 0.45274 0.0
H2307 H 0.58906 0.04757 0.47215 0.0
H2308 H 0.55771 0.00779 0.55154 0.0
H2309 H 0.59267 0.00749 0.45841 0.0
H2310 H 0.59455 0.01834 0.49924 0.0
H2311 H 0.58965 0.01792 0.43887 0.0
C2312 C 0.58674 0.03724 0.586 0.0
C2313 C 0.5898 0.04516 0.54926 0.0
C2314 C 0.58096 0.02603 0.57476 0.0
C2315 C 0.57825 0.02258 0.52663 0.0
C2316 C 0.58112 0.03046 0.49002 0.0
H2317 H 0.54772 0.95966 0.37958 0.0
H2318 H 0.55675 0.97918 0.40104 0.0
C2319 C 0.58685 0.04166 0.50121 0.0
C2320 C 0.57242 0.01074 0.51451 0.0
H2321 H 0.57539 0.99118 0.45423 0.0
C2322 C 0.56156 0.00412 0.53044 0.0
C2323 C 0.57749 0.00604 0.48684 0.0
C2324 C 0.58926 0.01277 0.47007 0.0
C2325 C 0.55553 0.9929 0.51857 0.0
C2326 C 0.56062 0.98817 0.49101 0.0
C2327 C 0.5715 0.99482 0.47525 0.0
C2328 C 0.55484 0.97633 0.47825 0.0
C2329 C 0.5437 0.98629 0.53461 0.0
C2330 C 0.55086 0.96827 0.51454 0.0
C2331 C 0.54564 0.95712 0.50236 0.0
C2332 C 0.54444 0.95385 0.45368 0.0
C2333 C 0.54851 0.96194 0.41739 0.0
C2334 C 0.55367 0.97308 0.42959 0.0
H2335 H 0.54019 0.99167 0.54286 0.0
H2336 H 0.53854 0.98026 0.50651 0.0
H2337 H 0.54323 0.98171 0.56801 0.0
H2338 H 0.55191 0.97059 0.55233 0.0
H2339 H 0.54266 0.95108 0.53112 0.0
H2340 H 0.95718 0.56036 0.58461 0.0
H2341 H 0.97659 0.5703 0.56119 0.0
H2342 H 0.97166 0.54256 0.47514 0.0
H2343 H 0.95218 0.53272 0.49718 0.0
H2344 H 0.99257 0.56567 0.57639 0.0
H2345 H 0.9867 0.56719 0.37913 0.0
H2346 H 0.97561 0.56308 0.42184 0.0
H2347 H 0.97973 0.55343 0.4024 0.0
C2348 C 0.96024 0.5564 0.56054 0.0
C2349 C 0.95317 0.5458 0.54245 0.0
C2350 C 0.97132 0.56208 0.54719 0.0
C2351 C 0.97554 0.55726 0.51565 0.0
C2352 C 0.96853 0.54657 0.49839 0.0
H2353 H 0.04476 0.57809 0.48443 0.0
H2354 H 0.02516 0.56852 0.5041 0.0
C2355 C 0.95742 0.54093 0.51132 0.0
C2356 C 0.98734 0.56331 0.50201 0.0
H2357 H 0.0048 0.57221 0.40531 0.0
C2358 C 0.99525 0.56715 0.53898 0.0
C2359 C 0.99083 0.5654 0.45321 0.0
C2360 C 0.98277 0.56216 0.41188 0.0
C2361 C 0.00654 0.57285 0.52852 0.0
C2362 C 0.01002 0.57448 0.47969 0.0
C2363 C 0.00212 0.57083 0.44272 0.0
C2364 C 0.02182 0.58004 0.46623 0.0
C2365 C 0.0146 0.57725 0.56996 0.0
C2366 C 0.02637 0.58944 0.4367 0.0
C2367 C 0.03754 0.59481 0.42472 0.0
C2368 C 0.04435 0.5909 0.44218 0.0
C2369 C 0.03973 0.58136 0.47086 0.0
C2370 C 0.02855 0.57593 0.48242 0.0
H2371 H 0.01075 0.57825 0.60323 0.0
H2372 H 0.01748 0.57137 0.57822 0.0
H2373 H 0.02187 0.58532 0.56078 0.0
H2374 H 0.02131 0.59271 0.42354 0.0
H2375 H 0.04088 0.60214 0.40249 0.0
H2376 H 0.41044 0.45026 0.36972 0.0
H2377 H 0.42027 0.44039 0.38902 0.0
H2378 H 0.41549 0.44328 0.54114 0.0
H2379 H 0.40569 0.45313 0.52226 0.0
H2380 H 0.43973 0.44816 0.4508 0.0
H2381 H 0.40358 0.40978 0.51788 0.0
H2382 H 0.40226 0.41959 0.48031 0.0
H2383 H 0.40535 0.42234 0.54349 0.0
C2384 C 0.41147 0.44877 0.40725 0.0
C2385 C 0.40727 0.45243 0.44449 0.0
C2386 C 0.41708 0.44315 0.41819 0.0
C2387 C 0.41847 0.44101 0.46644 0.0
C2388 C 0.41436 0.44472 0.50365 0.0
H2389 H 0.44815 0.40801 0.61442 0.0
H2390 H 0.43859 0.41793 0.59198 0.0
C2391 C 0.4088 0.45038 0.49279 0.0
C2392 C 0.4244 0.43506 0.47811 0.0
H2393 H 0.42108 0.41149 0.52947 0.0
C2394 C 0.43567 0.44012 0.46773 0.0
C2395 C 0.41904 0.4246 0.50036 0.0
C2396 C 0.40687 0.41868 0.5109 0.0
C2397 C 0.44181 0.43508 0.48007 0.0
C2398 C 0.43646 0.4246 0.50238 0.0
C2399 C 0.42516 0.41953 0.51245 0.0
C2400 C 0.44242 0.41876 0.51577 0.0
C2401 C 0.45402 0.44115 0.47034 0.0
C2402 C 0.44764 0.41585 0.48029 0.0
C2403 C 0.45315 0.41023 0.49303 0.0
C2404 C 0.45343 0.40733 0.54144 0.0
C2405 C 0.4481 0.41016 0.57685 0.0
C2406 C 0.44263 0.41581 0.56409 0.0
H2407 H 0.45728 0.45011 0.46544 0.0
H2408 H 0.45858 0.43994 0.5003 0.0
H2409 H 0.45566 0.43792 0.43664 0.0
H2410 H 0.44737 0.41782 0.44264 0.0
H2411 H 0.45712 0.40809 0.4649 0.0
H2412 H 0.25595 0.0886 0.34008 0.0
H2413 H 0.25443 0.1052 0.34653 0.0
H2414 H 0.23835 0.09816 0.20769 0.0
H2415 H 0.23977 0.08154 0.20105 0.0
H2416 H 0.26382 0.12278 0.27949 0.0
H2417 H 0.21865 0.10517 0.29401 0.0
H2418 H 0.22529 0.09722 0.30587 0.0
H2419 H 0.22298 0.09988 0.24472 0.0
C2420 C 0.25195 0.09051 0.31124 0.0
C2421 C 0.24798 0.08378 0.27005 0.0
C2422 C 0.2511 0.09999 0.31498 0.0
C2423 C 0.24616 0.10282 0.27786 0.0
C2424 C 0.242 0.096 0.23714 0.0
H2425 H 0.23971 0.15902 0.20324 0.0
H2426 H 0.23847 0.14102 0.20901 0.0
C2427 C 0.24288 0.08655 0.23329 0.0
C2428 C 0.24614 0.11334 0.2799 0.0
H2429 H 0.22933 0.12442 0.27911 0.0
C2430 C 0.25629 0.12316 0.2799 0.0
C2431 C 0.23629 0.11377 0.28005 0.0
C2432 C 0.22517 0.10345 0.28158 0.0
C2433 C 0.25687 0.13342 0.27878 0.0
C2434 C 0.24702 0.13386 0.27877 0.0
C2435 C 0.23686 0.12404 0.2792 0.0
C2436 C 0.24714 0.14447 0.27716 0.0
C2437 C 0.26803 0.14368 0.276 0.0
C2438 C 0.25219 0.15224 0.31417 0.0
C2439 C 0.25296 0.16254 0.31084 0.0
C2440 C 0.2486 0.16518 0.27066 0.0
C2441 C 0.24317 0.15723 0.23456 0.0
C2442 C 0.24245 0.14694 0.23782 0.0
H2443 H 0.2745 0.14185 0.26398 0.0
H2444 H 0.26791 0.14977 0.25074 0.0
H2445 H 0.27035 0.14751 0.31236 0.0
H2446 H 0.25565 0.1504 0.34534 0.0
H2447 H 0.25711 0.16847 0.33942 0.0
H2448 H 0.83169 0.09054 0.32911 0.0
H2449 H 0.85002 0.10692 0.33073 0.0
H2450 H 0.85983 0.09436 0.21 0.0
H2451 H 0.84151 0.07796 0.20795 0.0
H2452 H 0.87188 0.10902 0.33767 0.0
H2453 H 0.86468 0.12489 0.16527 0.0
H2454 H 0.85361 0.11427 0.20027 0.0
H2455 H 0.86222 0.11103 0.16396 0.0
C2456 C 0.83778 0.09122 0.30318 0.0
C2457 C 0.83515 0.08302 0.26815 0.0
C2458 C 0.84824 0.10057 0.30422 0.0
C2459 C 0.8562 0.10188 0.27011 0.0
C2460 C 0.85373 0.09353 0.23621 0.0
H2461 H 0.91958 0.15868 0.19874 0.0
H2462 H 0.90346 0.14021 0.20255 0.0
C2463 C 0.84329 0.08417 0.23521 0.0
C2464 C 0.86692 0.1122 0.26876 0.0
H2465 H 0.88213 0.13527 0.2011 0.0
C2466 C 0.87417 0.11477 0.30782 0.0
C2467 C 0.86983 0.11964 0.22967 0.0
C2468 C 0.86217 0.11741 0.18749 0.0
C2469 C 0.88433 0.12459 0.30871 0.0
C2470 C 0.88717 0.13212 0.26997 0.0
C2471 C 0.87995 0.12947 0.23068 0.0
C2472 C 0.89739 0.14298 0.26996 0.0
C2473 C 0.89199 0.12674 0.35077 0.0
C2474 C 0.89933 0.15066 0.30661 0.0
C2475 C 0.90856 0.16119 0.30463 0.0
C2476 C 0.91593 0.16427 0.26564 0.0
C2477 C 0.91404 0.15654 0.22924 0.0
C2478 C 0.90484 0.14599 0.23136 0.0
H2479 H 0.8902 0.11898 0.36909 0.0
H2480 H 0.90072 0.1311 0.33892 0.0
H2481 H 0.89088 0.13197 0.37767 0.0
H2482 H 0.89355 0.14861 0.33609 0.0
H2483 H 0.90976 0.167 0.33305 0.0
H2484 H 0.91028 0.74288 0.33183 0.0
H2485 H 0.89368 0.74446 0.33515 0.0
H2486 H 0.90342 0.76339 0.2033 0.0
H2487 H 0.91993 0.76171 0.19933 0.0
H2488 H 0.89066 0.76307 0.33607 0.0
H2489 H 0.87278 0.73727 0.17219 0.0
H2490 H 0.88435 0.73802 0.20414 0.0
H2491 H 0.8863 0.74892 0.16395 0.0
C2492 C 0.90892 0.74744 0.30374 0.0
C2493 C 0.91634 0.75208 0.26506 0.0
C2494 C 0.89945 0.74835 0.30573 0.0
C2495 C 0.89725 0.75388 0.26905 0.0
C2496 C 0.90487 0.75891 0.23147 0.0
H2497 H 0.84094 0.76113 0.20032 0.0
H2498 H 0.8592 0.76298 0.20424 0.0
C2499 C 0.91432 0.75798 0.22938 0.0
C2500 C 0.8868 0.75406 0.26915 0.0
H2501 H 0.86311 0.7455 0.20516 0.0
C2502 C 0.88461 0.75923 0.30752 0.0
C2503 C 0.87894 0.74901 0.23189 0.0
C2504 C 0.88063 0.7429 0.19089 0.0
C2505 C 0.87482 0.75963 0.30921 0.0
C2506 C 0.86697 0.75457 0.27191 0.0
C2507 C 0.86917 0.74942 0.23356 0.0
C2508 C 0.85628 0.75429 0.27212 0.0
C2509 C 0.87303 0.76561 0.3504 0.0
C2510 C 0.84861 0.74883 0.30911 0.0
C2511 C 0.83817 0.74777 0.30699 0.0
C2512 C 0.83522 0.75209 0.26764 0.0
C2513 C 0.84298 0.75772 0.2311 0.0
C2514 C 0.85341 0.75879 0.23328 0.0
H2515 H 0.88089 0.77145 0.36841 0.0
H2516 H 0.86897 0.7702 0.33762 0.0
H2517 H 0.86762 0.75953 0.37778 0.0
H2518 H 0.85057 0.74509 0.33888 0.0
H2519 H 0.83233 0.74333 0.33555 0.0
H2520 H 0.08099 0.23868 0.79619 0.0
H2521 H 0.09777 0.23759 0.78726 0.0
H2522 H 0.10463 0.25498 0.6517 0.0
H2523 H 0.0879 0.25618 0.6605 0.0
H2524 H 0.10508 0.22881 0.71033 0.0
H2525 H 0.13215 0.27388 0.7364 0.0
H2526 H 0.11771 0.2668 0.75159 0.0
H2527 H 0.12197 0.26985 0.6896 0.0
C2528 C 0.08603 0.24219 0.76429 0.0
C2529 C 0.0832 0.2476 0.72923 0.0
C2530 C 0.09559 0.24155 0.75922 0.0
C2531 C 0.10249 0.24633 0.71917 0.0
C2532 C 0.09948 0.25138 0.68321 0.0
H2533 H 0.16858 0.25837 0.66192 0.0
H2534 H 0.15038 0.25654 0.65389 0.0
C2535 C 0.08991 0.25202 0.68822 0.0
C2536 C 0.11306 0.24643 0.7162 0.0
H2537 H 0.14085 0.26358 0.72051 0.0
C2538 C 0.11292 0.23639 0.71239 0.0
C2539 C 0.12324 0.25636 0.7189 0.0
C2540 C 0.12385 0.26735 0.72474 0.0
C2541 C 0.12273 0.23603 0.71102 0.0
C2542 C 0.13291 0.24595 0.71453 0.0
C2543 C 0.13303 0.25599 0.71767 0.0
C2544 C 0.14355 0.24615 0.71687 0.0
C2545 C 0.12211 0.22504 0.70536 0.0
C2546 C 0.14573 0.24089 0.75486 0.0
C2547 C 0.15611 0.24189 0.75945 0.0
C2548 C 0.16451 0.24827 0.72639 0.0
C2549 C 0.16226 0.25339 0.68792 0.0
C2550 C 0.15187 0.25235 0.68328 0.0
H2551 H 0.11418 0.21884 0.68895 0.0
H2552 H 0.12895 0.22576 0.68261 0.0
H2553 H 0.12273 0.22197 0.74152 0.0
H2554 H 0.13951 0.23627 0.78183 0.0
H2555 H 0.15762 0.23791 0.78961 0.0
H2556 H 0.75886 0.84102 0.8028 0.0
H2557 H 0.76024 0.85908 0.79631 0.0
H2558 H 0.74521 0.85047 0.65523 0.0
H2559 H 0.74372 0.83237 0.66154 0.0
H2560 H 0.77046 0.8761 0.72344 0.0
H2561 H 0.72516 0.8584 0.73545 0.0
H2562 H 0.73184 0.85072 0.75194 0.0
H2563 H 0.72978 0.85262 0.68938 0.0
C2564 C 0.75592 0.84301 0.77026 0.0
C2565 C 0.7511 0.83526 0.73283 0.0
C2566 C 0.75673 0.85332 0.76659 0.0
C2567 C 0.75269 0.85602 0.7256 0.0
C2568 C 0.74822 0.84846 0.68746 0.0
H2569 H 0.74232 0.91078 0.66249 0.0
H2570 H 0.74407 0.89433 0.6569 0.0
C2571 C 0.74742 0.83815 0.69106 0.0
C2572 C 0.75278 0.86659 0.72357 0.0
H2573 H 0.73584 0.8775 0.72221 0.0
C2574 C 0.76291 0.87644 0.72311 0.0
C2575 C 0.7429 0.86696 0.72318 0.0
C2576 C 0.73179 0.85663 0.7254 0.0
C2577 C 0.76342 0.88669 0.72175 0.0
C2578 C 0.75354 0.88706 0.72183 0.0
C2579 C 0.74341 0.8772 0.72196 0.0
C2580 C 0.75341 0.89755 0.72309 0.0
C2581 C 0.77453 0.89701 0.71952 0.0
C2582 C 0.75813 0.90484 0.76205 0.0
C2583 C 0.75718 0.91427 0.76523 0.0
C2584 C 0.75139 0.9165 0.72974 0.0
C2585 C 0.74683 0.90928 0.69036 0.0
C2586 C 0.74782 0.89988 0.68712 0.0
H2587 H 0.78095 0.8953 0.70558 0.0
H2588 H 0.7743 0.90332 0.69616 0.0
H2589 H 0.77698 0.90047 0.75646 0.0
H2590 H 0.76226 0.90308 0.79079 0.0
H2591 H 0.76071 0.91965 0.79614 0.0
H2592 H 0.16627 0.911 0.66943 0.0
H2593 H 0.14816 0.89435 0.66604 0.0
H2594 H 0.14024 0.90198 0.80615 0.0
H2595 H 0.15833 0.91867 0.80981 0.0
H2596 H 0.14067 0.87712 0.7366 0.0
H2597 H 0.11284 0.8945 0.72187 0.0
H2598 H 0.1273 0.90233 0.70709 0.0
H2599 H 0.12297 0.90014 0.76914 0.0
C2600 C 0.16062 0.90921 0.69924 0.0
C2601 C 0.16371 0.91612 0.73991 0.0
C2602 C 0.15029 0.89971 0.69724 0.0
C2603 C 0.14285 0.89702 0.73561 0.0
C2604 C 0.14581 0.90402 0.77582 0.0
H2605 H 0.07971 0.84001 0.80513 0.0
H2606 H 0.09638 0.85816 0.80288 0.0
C2607 C 0.15616 0.91351 0.77796 0.0
C2608 C 0.13233 0.88647 0.73515 0.0
H2609 H 0.10443 0.87526 0.73474 0.0
C2610 C 0.13274 0.87669 0.73589 0.0
C2611 C 0.12203 0.88599 0.73472 0.0
C2612 C 0.12119 0.89628 0.73279 0.0
C2613 C 0.12309 0.86641 0.73686 0.0
C2614 C 0.11277 0.8659 0.73587 0.0
C2615 C 0.11236 0.87568 0.73532 0.0
C2616 C 0.10234 0.85524 0.73549 0.0
C2617 C 0.12406 0.85619 0.74012 0.0
C2618 C 0.10004 0.84773 0.6977 0.0
C2619 C 0.09059 0.83737 0.69903 0.0
C2620 C 0.0832 0.83438 0.73795 0.0
C2621 C 0.08528 0.84208 0.77478 0.0
C2622 C 0.09478 0.85244 0.77353 0.0
H2623 H 0.13227 0.85806 0.75367 0.0
H2624 H 0.11766 0.84998 0.76434 0.0
H2625 H 0.12294 0.8525 0.7036 0.0
H2626 H 0.10564 0.84983 0.66748 0.0
H2627 H 0.08915 0.83165 0.66991 0.0
H2628 H 0.92236 0.42157 0.67133 0.0
H2629 H 0.92087 0.43819 0.67613 0.0
H2630 H 0.90566 0.43117 0.53531 0.0
H2631 H 0.90724 0.41462 0.52997 0.0
H2632 H 0.92353 0.45237 0.54469 0.0
H2633 H 0.89425 0.44239 0.69705 0.0
H2634 H 0.90578 0.44056 0.70975 0.0
H2635 H 0.89582 0.43201 0.66534 0.0
C2636 C 0.91856 0.42349 0.64169 0.0
C2637 C 0.91493 0.41681 0.60024 0.0
C2638 C 0.91766 0.43295 0.64462 0.0
C2639 C 0.91304 0.43583 0.60631 0.0
C2640 C 0.9092 0.42905 0.56535 0.0
H2641 H 0.90595 0.49162 0.52937 0.0
H2642 H 0.90487 0.47374 0.53509 0.0
C2643 C 0.91011 0.4196 0.56237 0.0
C2644 C 0.91298 0.44635 0.6071 0.0
H2645 H 0.90303 0.46075 0.6677 0.0
C2646 C 0.919 0.45418 0.57143 0.0
C2647 C 0.90715 0.44871 0.64232 0.0
C2648 C 0.9003 0.44045 0.6806 0.0
C2649 C 0.91941 0.46436 0.57014 0.0
C2650 C 0.91348 0.46668 0.60497 0.0
C2651 C 0.90754 0.45891 0.64101 0.0
C2652 C 0.91328 0.47712 0.60388 0.0
C2653 C 0.92634 0.47262 0.53195 0.0
C2654 C 0.918 0.48476 0.6416 0.0
C2655 C 0.91859 0.49499 0.63856 0.0
C2656 C 0.91442 0.49768 0.5978 0.0
C2657 C 0.90931 0.48982 0.56105 0.0
C2658 C 0.90872 0.47961 0.56416 0.0
H2659 H 0.93247 0.47072 0.51604 0.0
H2660 H 0.92092 0.47246 0.50236 0.0
H2661 H 0.93075 0.48107 0.5471 0.0
H2662 H 0.92152 0.48294 0.67266 0.0
H2663 H 0.92254 0.50088 0.66748 0.0
H2664 H 0.50796 0.41346 0.53209 0.0
H2665 H 0.52604 0.43 0.5394 0.0
H2666 H 0.51623 0.43787 0.67452 0.0
H2667 H 0.49806 0.42144 0.66703 0.0
H2668 H 0.52502 0.45512 0.61094 0.0
H2669 H 0.55225 0.4372 0.62579 0.0
H2670 H 0.54323 0.43228 0.57446 0.0
H2671 H 0.53756 0.42916 0.63449 0.0
C2672 C 0.50971 0.41864 0.56367 0.0
C2673 C 0.5016 0.41617 0.59898 0.0
C2674 C 0.52007 0.42805 0.56797 0.0
C2675 C 0.52254 0.43508 0.60786 0.0
C2676 C 0.51452 0.43251 0.6436 0.0
H2677 H 0.57803 0.50025 0.67194 0.0
H2678 H 0.56144 0.48214 0.67844 0.0
C2679 C 0.50415 0.42313 0.63926 0.0
C2680 C 0.53314 0.44555 0.61035 0.0
H2681 H 0.56101 0.45647 0.6093 0.0
C2682 C 0.53289 0.45542 0.61115 0.0
C2683 C 0.54339 0.44591 0.6104 0.0
C2684 C 0.54416 0.43557 0.6117 0.0
C2685 C 0.54261 0.46565 0.61063 0.0
C2686 C 0.55286 0.46601 0.61003 0.0
C2687 C 0.55313 0.45615 0.60977 0.0
C2688 C 0.56335 0.47657 0.60807 0.0
C2689 C 0.54184 0.47599 0.60916 0.0
C2690 C 0.57009 0.47926 0.56707 0.0
C2691 C 0.57958 0.48956 0.56332 0.0
C2692 C 0.5825 0.49733 0.60066 0.0
C2693 C 0.57595 0.49446 0.64247 0.0
C2694 C 0.56646 0.48415 0.64618 0.0
H2695 H 0.53346 0.47427 0.59918 0.0
H2696 H 0.54382 0.47989 0.64543 0.0
H2697 H 0.54782 0.48198 0.58292 0.0
H2698 H 0.56784 0.47349 0.53738 0.0
H2699 H 0.58449 0.49153 0.53075 0.0
H2700 H 0.57742 0.0778 0.66148 0.0
H2701 H 0.56088 0.07946 0.66328 0.0
H2702 H 0.56891 0.09461 0.52232 0.0
H2703 H 0.58539 0.09284 0.51993 0.0
H2704 H 0.55793 0.09802 0.65403 0.0
H2705 H 0.53789 0.06792 0.50495 0.0
H2706 H 0.54985 0.06948 0.53645 0.0
H2707 H 0.55128 0.07924 0.49086 0.0
C2708 C 0.5757 0.08154 0.631 0.0
C2709 C 0.58264 0.0851 0.59036 0.0
C2710 C 0.56626 0.0825 0.63213 0.0
C2711 C 0.5636 0.08699 0.59261 0.0
C2712 C 0.57073 0.09093 0.55279 0.0
H2713 H 0.5061 0.09214 0.522 0.0
H2714 H 0.52443 0.09413 0.52407 0.0
C2715 C 0.58016 0.08996 0.55158 0.0
C2716 C 0.55317 0.08722 0.59244 0.0
H2717 H 0.52859 0.07689 0.5338 0.0
C2718 C 0.5515 0.09341 0.62779 0.0
C2719 C 0.54481 0.08117 0.55819 0.0
C2720 C 0.54596 0.07399 0.52068 0.0
C2721 C 0.54171 0.09382 0.62941 0.0
C2722 C 0.53334 0.08773 0.59524 0.0
C2723 C 0.53505 0.08159 0.5598 0.0
C2724 C 0.52262 0.08737 0.59599 0.0
C2725 C 0.54047 0.10088 0.66716 0.0
C2726 C 0.51555 0.08294 0.63582 0.0
C2727 C 0.50507 0.0818 0.63477 0.0
C2728 C 0.50147 0.085 0.59369 0.0
C2729 C 0.50864 0.0896 0.55417 0.0
C2730 C 0.51911 0.09075 0.55528 0.0
H2731 H 0.54857 0.10722 0.68169 0.0
H2732 H 0.53616 0.10504 0.65215 0.0
H2733 H 0.53552 0.0956 0.69771 0.0
H2734 H 0.51801 0.08007 0.66719 0.0
H2735 H 0.4997 0.07817 0.66565 0.0
H2736 H 0.75503 0.58941 0.99763 0.0
H2737 H 0.77154 0.58771 0.99478 0.0
H2738 H 0.76373 0.57243 0.13548 0.0
H2739 H 0.74727 0.5742 0.13885 0.0
H2740 H 0.78517 0.59008 0.12724 0.0
H2741 H 0.77518 0.5607 0.97546 0.0
H2742 H 0.77354 0.57231 0.96177 0.0
H2743 H 0.76484 0.56249 0.00635 0.0
C2744 C 0.75676 0.58557 0.02769 0.0
C2745 C 0.74987 0.58195 0.06848 0.0
C2746 C 0.76615 0.58454 0.02587 0.0
C2747 C 0.76877 0.57982 0.06466 0.0
C2748 C 0.76181 0.57604 0.10507 0.0
H2749 H 0.82605 0.5742 0.13807 0.0
H2750 H 0.80786 0.57255 0.13602 0.0
C2751 C 0.75241 0.57706 0.10691 0.0
C2752 C 0.77919 0.57957 0.06473 0.0
H2753 H 0.79364 0.56972 0.00396 0.0
C2754 C 0.78699 0.58556 0.10055 0.0
C2755 C 0.78155 0.57372 0.02963 0.0
C2756 C 0.77331 0.56685 0.99133 0.0
C2757 C 0.79721 0.58604 0.1017 0.0
C2758 C 0.79958 0.58019 0.06662 0.0
C2759 C 0.79177 0.57417 0.03083 0.0
C2760 C 0.81023 0.58039 0.06622 0.0
C2761 C 0.80549 0.59305 0.13966 0.0
C2762 C 0.81741 0.58496 0.02683 0.0
C2763 C 0.82777 0.58584 0.02774 0.0
C2764 C 0.8311 0.58213 0.06804 0.0
C2765 C 0.82374 0.57721 0.10669 0.0
C2766 C 0.81337 0.5763 0.10568 0.0
H2767 H 0.80348 0.59909 0.15584 0.0
H2768 H 0.80549 0.58769 0.16912 0.0
H2769 H 0.81391 0.5976 0.1242 0.0
H2770 H 0.8151 0.58811 0.99594 0.0
H2771 H 0.83326 0.58965 0.99737 0.0
H2772 H 0.40652 0.16343 0.99623 0.0
H2773 H 0.40801 0.18149 0.988 0.0
H2774 H 0.42966 0.19325 0.11138 0.0
H2775 H 0.42829 0.17526 0.11966 0.0
H2776 H 0.40165 0.19125 0.06043 0.0
H2777 H 0.44557 0.21797 0.01126 0.0
H2778 H 0.43853 0.20318 0.00533 0.0
H2779 H 0.44328 0.20949 0.06352 0.0
C2780 C 0.41173 0.16991 0.02116 0.0
C2781 C 0.41729 0.16794 0.05861 0.0
C2782 C 0.41256 0.18021 0.01641 0.0
C2783 C 0.41904 0.18873 0.04872 0.0
C2784 C 0.42479 0.18685 0.08549 0.0
H2785 H 0.42815 0.25289 0.11547 0.0
H2786 H 0.42928 0.23606 0.10971 0.0
C2787 C 0.42394 0.17655 0.09034 0.0
C2788 C 0.41905 0.19927 0.04652 0.0
H2789 H 0.43572 0.22702 0.03381 0.0
C2790 C 0.40908 0.19907 0.05414 0.0
C2791 C 0.42877 0.20944 0.0387 0.0
C2792 C 0.43964 0.21007 0.02881 0.0
C2793 C 0.40858 0.2088 0.05527 0.0
C2794 C 0.4183 0.21898 0.04755 0.0
C2795 C 0.42828 0.21919 0.03962 0.0
C2796 C 0.41826 0.2295 0.04854 0.0
C2797 C 0.39772 0.20811 0.06624 0.0
C2798 C 0.41191 0.2315 0.01525 0.0
C2799 C 0.41121 0.24105 0.0186 0.0
C2800 C 0.41692 0.24883 0.05504 0.0
C2801 C 0.42363 0.24703 0.08712 0.0
C2802 C 0.4243 0.23744 0.08384 0.0
H2803 H 0.39179 0.20011 0.08307 0.0
H2804 H 0.39885 0.21484 0.09086 0.0
H2805 H 0.39404 0.20891 0.03208 0.0
H2806 H 0.40737 0.22557 0.98713 0.0
H2807 H 0.40605 0.24226 0.99313 0.0
H2808 H 0.74638 0.17421 0.12804 0.0
H2809 H 0.76275 0.19246 0.1234 0.0
H2810 H 0.77233 0.18329 0.99103 0.0
H2811 H 0.75586 0.16505 0.99503 0.0
H2812 H 0.78403 0.19628 0.12478 0.0
H2813 H 0.77655 0.21355 0.95796 0.0
H2814 H 0.76576 0.20173 0.98874 0.0
H2815 H 0.77527 0.20026 0.95033 0.0
C2816 C 0.75189 0.17613 0.09757 0.0
C2817 C 0.74985 0.1682 0.0619 0.0
C2818 C 0.76123 0.18655 0.09498 0.0
C2819 C 0.76868 0.18927 0.05661 0.0
C2820 C 0.76657 0.18145 0.0204 0.0
H2821 H 0.83421 0.24346 4e-05 0.0
H2822 H 0.8161 0.22681 0.99568 0.0
C2823 C 0.75719 0.17101 0.0229 0.0
C2824 C 0.7791 0.19994 0.0568 0.0
H2825 H 0.79449 0.22351 0.99212 0.0
C2826 C 0.78628 0.20228 0.09597 0.0
C2827 C 0.78203 0.20769 0.01896 0.0
C2828 C 0.77447 0.20576 0.97678 0.0
C2829 C 0.79642 0.21208 0.09804 0.0
C2830 C 0.79935 0.21986 0.06032 0.0
C2831 C 0.79218 0.21753 0.02104 0.0
C2832 C 0.80993 0.23036 0.06088 0.0
C2833 C 0.80402 0.21389 0.14 0.0
C2834 C 0.81233 0.23799 0.09824 0.0
C2835 C 0.82267 0.24746 0.10097 0.0
C2836 C 0.83075 0.2495 0.06609 0.0
C2837 C 0.82816 0.24208 0.02752 0.0
C2838 C 0.81782 0.23259 0.02493 0.0
H2839 H 0.8018 0.20608 0.15904 0.0
H2840 H 0.81269 0.2177 0.12772 0.0
H2841 H 0.80344 0.21953 0.16642 0.0
H2842 H 0.80626 0.23652 0.12579 0.0
H2843 H 0.8244 0.25307 0.13088 0.0
H2844 H 0.58834 0.75418 0.0083 0.0
H2845 H 0.58669 0.77069 0.01562 0.0
H2846 H 0.57254 0.76498 0.87281 0.0
H2847 H 0.57404 0.74842 0.86545 0.0
H2848 H 0.59682 0.78891 0.95564 0.0
H2849 H 0.55158 0.77107 0.95191 0.0
H2850 H 0.55798 0.76291 0.96372 0.0
H2851 H 0.55673 0.7666 0.90275 0.0
C2852 C 0.58474 0.75637 0.97874 0.0
C2853 C 0.5813 0.75001 0.93631 0.0
C2854 C 0.58381 0.76579 0.98298 0.0
C2855 C 0.57935 0.76897 0.94504 0.0
C2856 C 0.57577 0.76254 0.90294 0.0
H2857 H 0.57514 0.82575 0.86324 0.0
H2858 H 0.57383 0.80776 0.87094 0.0
C2859 C 0.5767 0.75313 0.89867 0.0
C2860 C 0.57922 0.77944 0.94788 0.0
H2861 H 0.56244 0.79048 0.93929 0.0
C2862 C 0.5893 0.78926 0.95268 0.0
C2863 C 0.56939 0.77985 0.94384 0.0
C2864 C 0.55829 0.76954 0.94072 0.0
C2865 C 0.58986 0.79951 0.95189 0.0
C2866 C 0.58004 0.79993 0.94698 0.0
C2867 C 0.56994 0.79011 0.94301 0.0
C2868 C 0.58018 0.81053 0.94397 0.0
C2869 C 0.60098 0.80982 0.95452 0.0
C2870 C 0.58396 0.81792 0.98291 0.0
C2871 C 0.58474 0.82821 0.97859 0.0
C2872 C 0.5817 0.83123 0.93531 0.0
C2873 C 0.57758 0.82366 0.89696 0.0
C2874 C 0.57681 0.81338 0.90132 0.0
H2875 H 0.60778 0.80813 0.94748 0.0
H2876 H 0.60155 0.81603 0.92803 0.0
H2877 H 0.60216 0.81343 0.99122 0.0
H2878 H 0.58643 0.81579 0.01641 0.0
H2879 H 0.58788 0.83385 0.00884 0.0
H2880 H 0.17374 0.74674 0.86104 0.0
H2881 H 0.19187 0.76334 0.86449 0.0
H2882 H 0.18402 0.77125 0.00416 0.0
H2883 H 0.16591 0.75461 0.00121 0.0
H2884 H 0.19529 0.78468 0.87148 0.0
H2885 H 0.21485 0.77544 0.02502 0.0
H2886 H 0.20286 0.76491 0.99414 0.0
H2887 H 0.2015 0.77361 0.03799 0.0
C2888 C 0.17593 0.75194 0.89279 0.0
C2889 C 0.16841 0.74939 0.93087 0.0
C2890 C 0.18629 0.76141 0.89469 0.0
C2891 C 0.18933 0.76845 0.9348 0.0
C2892 C 0.18192 0.76581 0.9733 0.0
H2893 H 0.24356 0.83352 0.99919 0.0
H2894 H 0.22701 0.8153 0.00171 0.0
C2895 C 0.17155 0.75634 0.97143 0.0
C2896 C 0.19991 0.77896 0.9346 0.0
H2897 H 0.22413 0.79382 0.99552 0.0
C2898 C 0.20164 0.78665 0.89835 0.0
C2899 C 0.20811 0.78152 0.96996 0.0
C2900 C 0.20682 0.77341 0.00879 0.0
C2901 C 0.21129 0.79693 0.89694 0.0
C2902 C 0.21952 0.79949 0.93221 0.0
C2903 C 0.2178 0.79181 0.9685 0.0
C2904 C 0.22991 0.81019 0.93209 0.0
C2905 C 0.21246 0.80507 0.85843 0.0
C2906 C 0.23714 0.81321 0.89267 0.0
C2907 C 0.24655 0.82361 0.89104 0.0
C2908 C 0.24894 0.83112 0.92903 0.0
C2909 C 0.24191 0.82791 0.96933 0.0
C2910 C 0.23247 0.81752 0.97086 0.0
H2911 H 0.2044 0.80294 0.84212 0.0
H2912 H 0.21626 0.81353 0.87342 0.0
H2913 H 0.21785 0.80505 0.82917 0.0
H2914 H 0.23541 0.80758 0.86282 0.0
H2915 H 0.25186 0.82581 0.85969 0.0
H2916 H 0.16436 0.40982 0.01023 0.0
H2917 H 0.18261 0.41172 0.01815 0.0
H2918 H 0.19122 0.4262 0.87599 0.0
H2919 H 0.17305 0.42442 0.86796 0.0
H2920 H 0.19108 0.40192 0.9569 0.0
H2921 H 0.2179 0.44728 0.95781 0.0
H2922 H 0.20329 0.44058 0.96933 0.0
H2923 H 0.20833 0.44218 0.9084 0.0
C2924 C 0.1702 0.41354 0.98093 0.0
C2925 C 0.16729 0.41698 0.93849 0.0
C2926 C 0.1806 0.41461 0.98551 0.0
C2927 C 0.18831 0.41923 0.94794 0.0
C2928 C 0.18548 0.42282 0.90582 0.0
H2929 H 0.25007 0.42531 0.86718 0.0
H2930 H 0.23325 0.42633 0.87571 0.0
C2931 C 0.17507 0.42174 0.90117 0.0
C2932 C 0.19898 0.41954 0.95113 0.0
H2933 H 0.22676 0.43674 0.94488 0.0
C2934 C 0.1989 0.40953 0.9549 0.0
C2935 C 0.20914 0.42949 0.94831 0.0
C2936 C 0.20971 0.44051 0.94619 0.0
C2937 C 0.2087 0.40917 0.95417 0.0
C2938 C 0.21886 0.41911 0.95053 0.0
C2939 C 0.21896 0.42914 0.94768 0.0
C2940 C 0.22942 0.41918 0.94734 0.0
C2941 C 0.20807 0.39811 0.95539 0.0
C2942 C 0.23297 0.41508 0.98531 0.0
C2943 C 0.24255 0.41445 0.98047 0.0
C2944 C 0.24877 0.41799 0.9377 0.0
C2945 C 0.24542 0.42249 0.9005 0.0
C2946 C 0.23583 0.42309 0.90533 0.0
H2947 H 0.19966 0.39128 0.94711 0.0
H2948 H 0.21391 0.39784 0.92911 0.0
H2949 H 0.21032 0.39669 0.99204 0.0
H2950 H 0.22824 0.41222 0.01839 0.0
H2951 H 0.24498 0.41102 0.00986 0.0
H2952 H 0.42087 0.92182 0.32901 0.0
H2953 H 0.43737 0.92013 0.32339 0.0
H2954 H 0.43096 0.90576 0.4659 0.0
H2955 H 0.4144 0.9073 0.47154 0.0
H2956 H 0.4553 0.93013 0.38486 0.0
H2957 H 0.43731 0.88484 0.38795 0.0
H2958 H 0.42923 0.8913 0.37533 0.0
H2959 H 0.43272 0.89002 0.4366 0.0
C2960 C 0.4229 0.91817 0.35887 0.0
C2961 C 0.41634 0.91468 0.4007 0.0
C2962 C 0.43232 0.91721 0.35561 0.0
C2963 C 0.4353 0.91269 0.39395 0.0
C2964 C 0.42868 0.90906 0.43547 0.0
H2965 H 0.49226 0.90831 0.47495 0.0
H2966 H 0.47426 0.90704 0.4687 0.0
C2967 C 0.41926 0.91 0.43876 0.0
C2968 C 0.44576 0.91252 0.39206 0.0
H2969 H 0.45669 0.89563 0.40064 0.0
C2970 C 0.45561 0.92258 0.38777 0.0
C2971 C 0.44612 0.90266 0.3961 0.0
C2972 C 0.43578 0.89158 0.39881 0.0
C2973 C 0.46584 0.92309 0.38875 0.0
C2974 C 0.46621 0.91324 0.39335 0.0
C2975 C 0.45636 0.90316 0.39713 0.0
C2976 C 0.47678 0.91332 0.3956 0.0
C2977 C 0.47618 0.93419 0.38641 0.0
C2978 C 0.48402 0.91703 0.35613 0.0
C2979 C 0.4943 0.91778 0.3596 0.0
C2980 C 0.49748 0.91478 0.40256 0.0
C2981 C 0.49005 0.91071 0.44145 0.0
C2982 C 0.47977 0.90997 0.43793 0.0
H2983 H 0.47453 0.941 0.39387 0.0
H2984 H 0.48239 0.93467 0.41273 0.0
H2985 H 0.47979 0.93543 0.34966 0.0
H2986 H 0.48178 0.91949 0.32287 0.0
H2987 H 0.49983 0.92089 0.32895 0.0
H2988 H 0.09262 0.5846 0.46467 0.0
H2989 H 0.09444 0.56825 0.45632 0.0
H2990 H 0.0806 0.56285 0.31296 0.0
H2991 H 0.07863 0.57915 0.32126 0.0
H2992 H 0.07035 0.54453 0.37227 0.0
H2993 H 0.11557 0.56229 0.37781 0.0
H2994 H 0.11034 0.56671 0.42687 0.0
H2995 H 0.10921 0.57049 0.36591 0.0
C2996 C 0.09012 0.58003 0.43108 0.0
C2997 C 0.08547 0.58314 0.39362 0.0
C2998 C 0.09123 0.57073 0.42624 0.0
C2999 C 0.0878 0.56443 0.38376 0.0
C3000 C 0.08337 0.56765 0.3459 0.0
H3001 H 0.07878 0.49913 0.32368 0.0
H3002 H 0.08048 0.51727 0.31416 0.0
C3003 C 0.08226 0.57696 0.35069 0.0
C3004 C 0.08794 0.55396 0.3807 0.0
H3005 H 0.10464 0.54287 0.39061 0.0
C3006 C 0.07786 0.54416 0.37559 0.0
C3007 C 0.09774 0.55353 0.38527 0.0
C3008 C 0.10884 0.56383 0.38882 0.0
C3009 C 0.07727 0.53389 0.37676 0.0
C3010 C 0.08705 0.53344 0.38229 0.0
C3011 C 0.09716 0.54325 0.38639 0.0
C3012 C 0.08686 0.52283 0.3862 0.0
C3013 C 0.06613 0.52361 0.37405 0.0
C3014 C 0.09027 0.52012 0.42918 0.0
C3015 C 0.08938 0.50982 0.4346 0.0
C3016 C 0.08509 0.50205 0.39703 0.0
C3017 C 0.08205 0.50492 0.35337 0.0
C3018 C 0.08296 0.51525 0.34795 0.0
H3019 H 0.05934 0.52534 0.3808 0.0
H3020 H 0.06496 0.51997 0.33741 0.0
H3021 H 0.06549 0.5174 0.4007 0.0
H3022 H 0.09334 0.52588 0.45905 0.0
H3023 H 0.09182 0.50785 0.4686 0.0
H3024 H 0.49907 0.5794 0.32968 0.0
H3025 H 0.48089 0.56289 0.32431 0.0
H3026 H 0.47509 0.56634 0.47474 0.0
H3027 H 0.49318 0.58292 0.48022 0.0
H3028 H 0.47392 0.54383 0.37736 0.0
H3029 H 0.4467 0.56123 0.41096 0.0
H3030 H 0.46102 0.56968 0.39497 0.0
H3031 H 0.45716 0.5649 0.45605 0.0
C3032 C 0.49386 0.57672 0.36144 0.0
C3033 C 0.49753 0.58245 0.40536 0.0
C3034 C 0.48349 0.56729 0.35831 0.0
C3035 C 0.47658 0.56348 0.39893 0.0
C3036 C 0.48018 0.56927 0.44267 0.0
H3037 H 0.41635 0.5051 0.47808 0.0
H3038 H 0.43304 0.52315 0.47356 0.0
C3039 C 0.49055 0.5787 0.44582 0.0
C3040 C 0.46596 0.55303 0.39652 0.0
H3041 H 0.43835 0.54169 0.41516 0.0
C3042 C 0.46612 0.54337 0.3851 0.0
C3043 C 0.45583 0.55246 0.40687 0.0
C3044 C 0.45512 0.56263 0.41747 0.0
C3045 C 0.45644 0.5331 0.38508 0.0
C3046 C 0.44632 0.53251 0.39594 0.0
C3047 C 0.44613 0.54218 0.40684 0.0
C3048 C 0.43588 0.52187 0.39758 0.0
C3049 C 0.45719 0.52292 0.37501 0.0
C3050 C 0.43184 0.5153 0.35607 0.0
C3051 C 0.42233 0.50497 0.35857 0.0
C3052 C 0.41668 0.50109 0.40258 0.0
C3053 C 0.42055 0.50786 0.44371 0.0
C3054 C 0.43007 0.51817 0.44118 0.0
H3055 H 0.46575 0.52451 0.37866 0.0
H3056 H 0.45181 0.51614 0.39994 0.0
H3057 H 0.45442 0.52013 0.33746 0.0
H3058 H 0.4361 0.5181 0.32186 0.0
H3059 H 0.4195 0.49997 0.32621 0.0
loop_
_geom_bond_atom_site_label_1
_geom_bond_atom_site_label_2
_geom_bond_distance
_geom_bond_site_symmetry_2
_ccdc_geom_bond_type
In0 O1 2.294 . S
In0 O2 2.326 . S
In0 O6 2.266 . S
In0 O7 2.326 . S
In0 O8 2.266 . S
In0 O9 2.326 . S
In0 O11 2.294 . S
In0 O12 2.326 . S
O1 In0 2.294 . S
O1 C10 1.240 . S
O2 In0 2.326 . S
O2 C10 1.252 . S
C3 O6 1.252 . S
C3 O7 1.260 . S
C4 O11 1.240 . S
C4 O12 1.252 . S
C5 O8 1.252 . S
C5 O9 1.260 . S
O6 In0 2.266 . S
O6 C3 1.252 . S
O7 In0 2.326 . S
O7 C3 1.260 . S
O8 In0 2.266 . S
O8 C5 1.252 . S
O9 In0 2.326 . S
O9 C5 1.260 . S
C10 O1 1.240 . S
C10 O2 1.252 . S
O11 In0 2.294 . S
O11 C4 1.240 . S
O12 In0 2.326 . S
O12 C4 1.252 . S
In13 O14 2.294 . S
In13 O15 2.326 . S
In13 O19 2.266 . S
In13 O20 2.326 . S
In13 O21 2.266 . S
In13 O22 2.326 . S
In13 O24 2.294 . S
In13 O25 2.326 . S
O14 In13 2.294 . S
O14 C23 1.240 . S
O15 In13 2.326 . S
O15 C23 1.252 . S
C16 O19 1.252 . S
C16 O20 1.260 . S
C17 O24 1.240 . S
C17 O25 1.252 . S
C18 O21 1.252 . S
C18 O22 1.260 . S
O19 In13 2.266 . S
O19 C16 1.252 . S
O20 In13 2.326 . S
O20 C16 1.260 . S
O21 In13 2.266 . S
O21 C18 1.252 . S
O22 In13 2.326 . S
O22 C18 1.260 . S
C23 O14 1.240 . S
C23 O15 1.252 . S
O24 In13 2.294 . S
O24 C17 1.240 . S
O25 In13 2.326 . S
O25 C17 1.252 . S
In26 O27 2.294 . S
In26 O28 2.326 . S
In26 O32 2.266 . S
In26 O33 2.326 . S
In26 O34 2.266 . S
In26 O35 2.326 . S
In26 O37 2.294 . S
In26 O38 2.326 . S
O27 In26 2.294 . S
O27 C36 1.240 . S
O28 In26 2.326 . S
O28 C36 1.252 . S
C29 O32 1.252 . S
C29 O33 1.260 . S
C30 O37 1.240 . S
C30 O38 1.252 . S
C31 O34 1.252 . S
C31 O35 1.260 . S
O32 In26 2.266 . S
O32 C29 1.252 . S
O33 In26 2.326 . S
O33 C29 1.260 . S
O34 In26 2.266 . S
O34 C31 1.252 . S
O35 In26 2.326 . S
O35 C31 1.260 . S
C36 O27 1.240 . S
C36 O28 1.252 . S
O37 In26 2.294 . S
O37 C30 1.240 . S
O38 In26 2.326 . S
O38 C30 1.252 . S
In39 O40 2.294 . S
In39 O41 2.326 . S
In39 O45 2.266 . S
In39 O46 2.326 . S
In39 O47 2.266 . S
In39 O48 2.326 . S
In39 O50 2.294 . S
In39 O51 2.326 . S
O40 In39 2.294 . S
O40 C49 1.240 . S
O41 In39 2.326 . S
O41 C49 1.252 . S
C42 O45 1.252 . S
C42 O46 1.260 . S
C43 O50 1.240 . S
C43 O51 1.252 . S
C44 O47 1.252 . S
C44 O48 1.260 . S
O45 In39 2.266 . S
O45 C42 1.252 . S
O46 In39 2.326 . S
O46 C42 1.260 . S
O47 In39 2.266 . S
O47 C44 1.252 . S
O48 In39 2.326 . S
O48 C44 1.260 . S
C49 O40 1.240 . S
C49 O41 1.252 . S
O50 In39 2.294 . S
O50 C43 1.240 . S
O51 In39 2.326 . S
O51 C43 1.252 . S
In52 O53 2.294 . S
In52 O54 2.326 . S
In52 O58 2.266 . S
In52 O59 2.326 . S
In52 O60 2.266 . S
In52 O61 2.326 . S
In52 O63 2.294 . S
In52 O64 2.326 . S
O53 In52 2.294 . S
O53 C62 1.240 . S
O54 In52 2.326 . S
O54 C62 1.252 . S
C55 O58 1.252 . S
C55 O59 1.260 . S
C56 O63 1.240 . S
C56 O64 1.252 . S
C57 O60 1.252 . S
C57 O61 1.260 . S
O58 In52 2.266 . S
O58 C55 1.252 . S
O59 In52 2.326 . S
O59 C55 1.260 . S
O60 In52 2.266 . S
O60 C57 1.252 . S
O61 In52 2.326 . S
O61 C57 1.260 . S
C62 O53 1.240 . S
C62 O54 1.252 . S
O63 In52 2.294 . S
O63 C56 1.240 . S
O64 In52 2.326 . S
O64 C56 1.252 . S
In65 O66 2.294 . S
In65 O67 2.326 . S
In65 O71 2.266 . S
In65 O72 2.326 . S
In65 O73 2.266 . S
In65 O74 2.326 . S
In65 O76 2.294 . S
In65 O77 2.326 . S
O66 In65 2.294 . S
O66 C75 1.240 . S
O67 In65 2.326 . S
O67 C75 1.252 . S
C68 O71 1.252 . S
C68 O72 1.260 . S
C69 O76 1.240 . S
C69 O77 1.252 . S
C70 O73 1.252 . S
C70 O74 1.260 . S
O71 In65 2.266 . S
O71 C68 1.252 . S
O72 In65 2.326 . S
O72 C68 1.260 . S
O73 In65 2.266 . S
O73 C70 1.252 . S
O74 In65 2.326 . S
O74 C70 1.260 . S
C75 O66 1.240 . S
C75 O67 1.252 . S
O76 In65 2.294 . S
O76 C69 1.240 . S
O77 In65 2.326 . S
O77 C69 1.252 . S
In78 O79 2.294 . S
In78 O80 2.326 . S
In78 O84 2.266 . S
In78 O85 2.326 . S
In78 O86 2.266 . S
In78 O87 2.326 . S
In78 O89 2.294 . S
In78 O90 2.326 . S
O79 In78 2.294 . S
O79 C88 1.240 . S
O80 In78 2.326 . S
O80 C88 1.252 . S
C81 O84 1.252 . S
C81 O85 1.260 . S
C82 O89 1.240 . S
C82 O90 1.252 . S
C83 O86 1.252 . S
C83 O87 1.260 . S
O84 In78 2.266 . S
O84 C81 1.252 . S
O85 In78 2.326 . S
O85 C81 1.260 . S
O86 In78 2.266 . S
O86 C83 1.252 . S
O87 In78 2.326 . S
O87 C83 1.260 . S
C88 O79 1.240 . S
C88 O80 1.252 . S
O89 In78 2.294 . S
O89 C82 1.240 . S
O90 In78 2.326 . S
O90 C82 1.252 . S
In91 O92 2.294 . S
In91 O93 2.326 . S
In91 O97 2.266 . S
In91 O98 2.326 . S
In91 O99 2.266 . S
In91 O100 2.326 . S
In91 O102 2.294 . S
In91 O103 2.326 . S
O92 In91 2.294 . S
O92 C101 1.240 . S
O93 In91 2.326 . S
O93 C101 1.252 . S
C94 O97 1.252 . S
C94 O98 1.260 . S
C95 O102 1.240 . S
C95 O103 1.252 . S
C96 O99 1.252 . S
C96 O100 1.260 . S
O97 In91 2.266 . S
O97 C94 1.252 . S
O98 In91 2.326 . S
O98 C94 1.260 . S
O99 In91 2.266 . S
O99 C96 1.252 . S
O100 In91 2.326 . S
O100 C96 1.260 . S
C101 O92 1.240 . S
C101 O93 1.252 . S
O102 In91 2.294 . S
O102 C95 1.240 . S
O103 In91 2.326 . S
O103 C95 1.252 . S
In104 O105 2.294 . S
In104 O106 2.326 . S
In104 O110 2.266 . S
In104 O111 2.326 . S
In104 O112 2.266 . S
In104 O113 2.326 . S
In104 O115 2.294 . S
In104 O116 2.326 . S
O105 In104 2.294 . S
O105 C114 1.240 . S
O106 In104 2.326 . S
O106 C114 1.252 . S
C107 O110 1.252 . S
C107 O111 1.260 . S
C108 O115 1.240 . S
C108 O116 1.252 . S
C109 O112 1.252 . S
C109 O113 1.260 . S
O110 In104 2.266 . S
O110 C107 1.252 . S
O111 In104 2.326 . S
O111 C107 1.260 . S
O112 In104 2.266 . S
O112 C109 1.252 . S
O113 In104 2.326 . S
O113 C109 1.260 . S
C114 O105 1.240 . S
C114 O106 1.252 . S
O115 In104 2.294 . S
O115 C108 1.240 . S
O116 In104 2.326 . S
O116 C108 1.252 . S
In117 O118 2.294 . S
In117 O119 2.326 . S
In117 O123 2.266 . S
In117 O124 2.326 . S
In117 O125 2.266 . S
In117 O126 2.326 . S
In117 O128 2.294 . S
In117 O129 2.326 . S
O118 In117 2.294 . S
O118 C127 1.240 . S
O119 In117 2.326 . S
O119 C127 1.252 . S
C120 O123 1.252 . S
C120 O124 1.260 . S
C121 O128 1.240 . S
C121 O129 1.252 . S
C122 O125 1.252 . S
C122 O126 1.260 . S
O123 In117 2.266 . S
O123 C120 1.252 . S
O124 In117 2.326 . S
O124 C120 1.260 . S
O125 In117 2.266 . S
O125 C122 1.252 . S
O126 In117 2.326 . S
O126 C122 1.260 . S
C127 O118 1.240 . S
C127 O119 1.252 . S
O128 In117 2.294 . S
O128 C121 1.240 . S
O129 In117 2.326 . S
O129 C121 1.252 . S
In130 O131 2.294 . S
In130 O132 2.326 . S
In130 O136 2.266 . S
In130 O137 2.326 . S
In130 O138 2.266 . S
In130 O139 2.326 . S
In130 O141 2.294 . S
In130 O142 2.326 . S
O131 In130 2.294 . S
O131 C140 1.240 . S
O132 In130 2.326 . S
O132 C140 1.252 . S
C133 O136 1.252 . S
C133 O137 1.260 . S
C134 O141 1.240 . S
C134 O142 1.252 . S
C135 O138 1.252 . S
C135 O139 1.260 . S
O136 In130 2.266 . S
O136 C133 1.252 . S
O137 In130 2.326 . S
O137 C133 1.260 . S
O138 In130 2.266 . S
O138 C135 1.252 . S
O139 In130 2.326 . S
O139 C135 1.260 . S
C140 O131 1.240 . S
C140 O132 1.252 . S
O141 In130 2.294 . S
O141 C134 1.240 . S
O142 In130 2.326 . S
O142 C134 1.252 . S
In143 O144 2.294 . S
In143 O145 2.326 . S
In143 O149 2.266 . S
In143 O150 2.326 . S
In143 O151 2.266 . S
In143 O152 2.326 . S
In143 O154 2.294 . S
In143 O155 2.326 . S
O144 In143 2.294 . S
O144 C153 1.240 . S
O145 In143 2.326 . S
O145 C153 1.252 . S
C146 O149 1.252 . S
C146 O150 1.260 . S
C147 O154 1.240 . S
C147 O155 1.252 . S
C148 O151 1.252 . S
C148 O152 1.260 . S
O149 In143 2.266 . S
O149 C146 1.252 . S
O150 In143 2.326 . S
O150 C146 1.260 . S
O151 In143 2.266 . S
O151 C148 1.252 . S
O152 In143 2.326 . S
O152 C148 1.260 . S
C153 O144 1.240 . S
C153 O145 1.252 . S
O154 In143 2.294 . S
O154 C147 1.240 . S
O155 In143 2.326 . S
O155 C147 1.252 . S
In156 O157 2.294 . S
In156 O158 2.326 . S
In156 O162 2.266 . S
In156 O163 2.326 . S
In156 O164 2.266 . S
In156 O165 2.326 . S
In156 O167 2.294 . S
In156 O168 2.326 . S
O157 In156 2.294 . S
O157 C166 1.240 . S
O158 In156 2.326 . S
O158 C166 1.252 . S
C159 O162 1.252 . S
C159 O163 1.260 . S
C160 O167 1.240 . S
C160 O168 1.252 . S
C161 O164 1.252 . S
C161 O165 1.260 . S
O162 In156 2.266 . S
O162 C159 1.252 . S
O163 In156 2.326 . S
O163 C159 1.260 . S
O164 In156 2.266 . S
O164 C161 1.252 . S
O165 In156 2.326 . S
O165 C161 1.260 . S
C166 O157 1.240 . S
C166 O158 1.252 . S
O167 In156 2.294 . S
O167 C160 1.240 . S
O168 In156 2.326 . S
O168 C160 1.252 . S
In169 O170 2.294 . S
In169 O171 2.326 . S
In169 O175 2.266 . S
In169 O176 2.326 . S
In169 O177 2.266 . S
In169 O178 2.326 . S
In169 O180 2.294 . S
In169 O181 2.326 . S
O170 In169 2.294 . S
O170 C179 1.240 . S
O171 In169 2.326 . S
O171 C179 1.252 . S
C172 O175 1.252 . S
C172 O176 1.260 . S
C173 O180 1.240 . S
C173 O181 1.252 . S
C174 O177 1.252 . S
C174 O178 1.260 . S
O175 In169 2.266 . S
O175 C172 1.252 . S
O176 In169 2.326 . S
O176 C172 1.260 . S
O177 In169 2.266 . S
O177 C174 1.252 . S
O178 In169 2.326 . S
O178 C174 1.260 . S
C179 O170 1.240 . S
C179 O171 1.252 . S
O180 In169 2.294 . S
O180 C173 1.240 . S
O181 In169 2.326 . S
O181 C173 1.252 . S
In182 O183 2.294 . S
In182 O184 2.326 . S
In182 O188 2.266 . S
In182 O189 2.326 . S
In182 O190 2.266 . S
In182 O191 2.326 . S
In182 O193 2.294 . S
In182 O194 2.326 . S
O183 In182 2.294 . S
O183 C192 1.240 . S
O184 In182 2.326 . S
O184 C192 1.252 . S
C185 O188 1.252 . S
C185 O189 1.260 . S
C186 O193 1.240 . S
C186 O194 1.252 . S
C187 O190 1.252 . S
C187 O191 1.260 . S
O188 In182 2.266 . S
O188 C185 1.252 . S
O189 In182 2.326 . S
O189 C185 1.260 . S
O190 In182 2.266 . S
O190 C187 1.252 . S
O191 In182 2.326 . S
O191 C187 1.260 . S
C192 O183 1.240 . S
C192 O184 1.252 . S
O193 In182 2.294 . S
O193 C186 1.240 . S
O194 In182 2.326 . S
O194 C186 1.252 . S
In195 O196 2.294 . S
In195 O197 2.326 . S
In195 O201 2.266 . S
In195 O202 2.326 . S
In195 O203 2.266 . S
In195 O204 2.326 . S
In195 O206 2.294 . S
In195 O207 2.326 . S
O196 In195 2.294 . S
O196 C205 1.240 . S
O197 In195 2.326 . S
O197 C205 1.252 . S
C198 O201 1.252 . S
C198 O202 1.260 . S
C199 O206 1.240 . S
C199 O207 1.252 . S
C200 O203 1.252 . S
C200 O204 1.260 . S
O201 In195 2.266 . S
O201 C198 1.252 . S
O202 In195 2.326 . S
O202 C198 1.260 . S
O203 In195 2.266 . S
O203 C200 1.252 . S
O204 In195 2.326 . S
O204 C200 1.260 . S
C205 O196 1.240 . S
C205 O197 1.252 . S
O206 In195 2.294 . S
O206 C199 1.240 . S
O207 In195 2.326 . S
O207 C199 1.252 . S
In208 O209 2.294 . S
In208 O210 2.326 . S
In208 O214 2.266 . S
In208 O215 2.326 . S
In208 O216 2.266 . S
In208 O217 2.326 . S
In208 O219 2.294 . S
In208 O220 2.326 . S
O209 In208 2.294 . S
O209 C218 1.240 . S
O210 In208 2.326 . S
O210 C218 1.252 . S
C211 O214 1.252 . S
C211 O215 1.260 . S
C212 O219 1.240 . S
C212 O220 1.252 . S
C213 O216 1.252 . S
C213 O217 1.260 . S
O214 In208 2.266 . S
O214 C211 1.252 . S
O215 In208 2.326 . S
O215 C211 1.260 . S
O216 In208 2.266 . S
O216 C213 1.252 . S
O217 In208 2.326 . S
O217 C213 1.260 . S
C218 O209 1.240 . S
C218 O210 1.252 . S
O219 In208 2.294 . S
O219 C212 1.240 . S
O220 In208 2.326 . S
O220 C212 1.252 . S
In221 O222 2.294 . S
In221 O223 2.326 . S
In221 O227 2.266 . S
In221 O228 2.326 . S
In221 O229 2.266 . S
In221 O230 2.326 . S
In221 O232 2.294 . S
In221 O233 2.326 . S
O222 In221 2.294 . S
O222 C231 1.240 . S
O223 In221 2.326 . S
O223 C231 1.252 . S
C224 O227 1.252 . S
C224 O228 1.260 . S
C225 O232 1.240 . S
C225 O233 1.252 . S
C226 O229 1.252 . S
C226 O230 1.260 . S
O227 In221 2.266 . S
O227 C224 1.252 . S
O228 In221 2.326 . S
O228 C224 1.260 . S
O229 In221 2.266 . S
O229 C226 1.252 . S
O230 In221 2.326 . S
O230 C226 1.260 . S
C231 O222 1.240 . S
C231 O223 1.252 . S
O232 In221 2.294 . S
O232 C225 1.240 . S
O233 In221 2.326 . S
O233 C225 1.252 . S
In234 O235 2.294 . S
In234 O236 2.326 . S
In234 O240 2.266 . S
In234 O241 2.326 . S
In234 O242 2.266 . S
In234 O243 2.326 . S
In234 O245 2.294 . S
In234 O246 2.326 . S
O235 In234 2.294 . S
O235 C244 1.240 . S
O236 In234 2.326 . S
O236 C244 1.252 . S
C237 O240 1.252 . S
C237 O241 1.260 . S
C238 O245 1.240 . S
C238 O246 1.252 . S
C239 O242 1.252 . S
C239 O243 1.260 . S
O240 In234 2.266 . S
O240 C237 1.252 . S
O241 In234 2.326 . S
O241 C237 1.260 . S
O242 In234 2.266 . S
O242 C239 1.252 . S
O243 In234 2.326 . S
O243 C239 1.260 . S
C244 O235 1.240 . S
C244 O236 1.252 . S
O245 In234 2.294 . S
O245 C238 1.240 . S
O246 In234 2.326 . S
O246 C238 1.252 . S
In247 O248 2.294 . S
In247 O249 2.326 . S
In247 O253 2.266 . S
In247 O254 2.326 . S
In247 O255 2.266 . S
In247 O256 2.326 . S
In247 O258 2.294 . S
In247 O259 2.326 . S
O248 In247 2.294 . S
O248 C257 1.240 . S
O249 In247 2.326 . S
O249 C257 1.252 . S
C250 O253 1.252 . S
C250 O254 1.260 . S
C251 O258 1.240 . S
C251 O259 1.252 . S
C252 O255 1.252 . S
C252 O256 1.260 . S
O253 In247 2.266 . S
O253 C250 1.252 . S
O254 In247 2.326 . S
O254 C250 1.260 . S
O255 In247 2.266 . S
O255 C252 1.252 . S
O256 In247 2.326 . S
O256 C252 1.260 . S
C257 O248 1.240 . S
C257 O249 1.252 . S
O258 In247 2.294 . S
O258 C251 1.240 . S
O259 In247 2.326 . S
O259 C251 1.252 . S
In260 O261 2.294 . S
In260 O262 2.326 . S
In260 O266 2.266 . S
In260 O267 2.326 . S
In260 O268 2.266 . S
In260 O269 2.326 . S
In260 O271 2.294 . S
In260 O272 2.326 . S
O261 In260 2.294 . S
O261 C270 1.240 . S
O262 In260 2.326 . S
O262 C270 1.252 . S
C263 O266 1.252 . S
C263 O267 1.260 . S
C264 O271 1.240 . S
C264 O272 1.252 . S
C265 O268 1.252 . S
C265 O269 1.260 . S
O266 In260 2.266 . S
O266 C263 1.252 . S
O267 In260 2.326 . S
O267 C263 1.260 . S
O268 In260 2.266 . S
O268 C265 1.252 . S
O269 In260 2.326 . S
O269 C265 1.260 . S
C270 O261 1.240 . S
C270 O262 1.252 . S
O271 In260 2.294 . S
O271 C264 1.240 . S
O272 In260 2.326 . S
O272 C264 1.252 . S
In273 O274 2.294 . S
In273 O275 2.326 . S
In273 O279 2.266 . S
In273 O280 2.326 . S
In273 O281 2.266 . S
In273 O282 2.326 . S
In273 O284 2.294 . S
In273 O285 2.326 . S
O274 In273 2.294 . S
O274 C283 1.240 . S
O275 In273 2.326 . S
O275 C283 1.252 . S
C276 O279 1.252 . S
C276 O280 1.260 . S
C277 O284 1.240 . S
C277 O285 1.252 . S
C278 O281 1.252 . S
C278 O282 1.260 . S
O279 In273 2.266 . S
O279 C276 1.252 . S
O280 In273 2.326 . S
O280 C276 1.260 . S
O281 In273 2.266 . S
O281 C278 1.252 . S
O282 In273 2.326 . S
O282 C278 1.260 . S
C283 O274 1.240 . S
C283 O275 1.252 . S
O284 In273 2.294 . S
O284 C277 1.240 . S
O285 In273 2.326 . S
O285 C277 1.252 . S
In286 O287 2.294 . S
In286 O288 2.326 . S
In286 O292 2.266 . S
In286 O293 2.326 . S
In286 O294 2.266 . S
In286 O295 2.326 . S
In286 O297 2.294 . S
In286 O298 2.326 . S
O287 In286 2.294 . S
O287 C296 1.240 . S
O288 In286 2.326 . S
O288 C296 1.252 . S
C289 O292 1.252 . S
C289 O293 1.260 . S
C290 O297 1.240 . S
C290 O298 1.252 . S
C291 O294 1.252 . S
C291 O295 1.260 . S
O292 In286 2.266 . S
O292 C289 1.252 . S
O293 In286 2.326 . S
O293 C289 1.260 . S
O294 In286 2.266 . S
O294 C291 1.252 . S
O295 In286 2.326 . S
O295 C291 1.260 . S
C296 O287 1.240 . S
C296 O288 1.252 . S
O297 In286 2.294 . S
O297 C290 1.240 . S
O298 In286 2.326 . S
O298 C290 1.252 . S
In299 O300 2.294 . S
In299 O301 2.326 . S
In299 O305 2.266 . S
In299 O306 2.326 . S
In299 O307 2.266 . S
In299 O308 2.326 . S
In299 O310 2.294 . S
In299 O311 2.326 . S
O300 In299 2.294 . S
O300 C309 1.240 . S
O301 In299 2.326 . S
O301 C309 1.252 . S
C302 O305 1.252 . S
C302 O306 1.260 . S
C303 O310 1.240 . S
C303 O311 1.252 . S
C304 O307 1.252 . S
C304 O308 1.260 . S
O305 In299 2.266 . S
O305 C302 1.252 . S
O306 In299 2.326 . S
O306 C302 1.260 . S
O307 In299 2.266 . S
O307 C304 1.252 . S
O308 In299 2.326 . S
O308 C304 1.260 . S
C309 O300 1.240 . S
C309 O301 1.252 . S
O310 In299 2.294 . S
O310 C303 1.240 . S
O311 In299 2.326 . S
O311 C303 1.252 . S
In312 O313 2.294 . S
In312 O314 2.326 . S
In312 O318 2.266 . S
In312 O319 2.326 . S
In312 O320 2.266 . S
In312 O321 2.326 . S
In312 O323 2.294 . S
In312 O324 2.326 . S
O313 In312 2.294 . S
O313 C322 1.240 . S
O314 In312 2.326 . S
O314 C322 1.252 . S
C315 O318 1.252 . S
C315 O319 1.260 . S
C316 O323 1.240 . S
C316 O324 1.252 . S
C317 O320 1.252 . S
C317 O321 1.260 . S
O318 In312 2.266 . S
O318 C315 1.252 . S
O319 In312 2.326 . S
O319 C315 1.260 . S
O320 In312 2.266 . S
O320 C317 1.252 . S
O321 In312 2.326 . S
O321 C317 1.260 . S
C322 O313 1.240 . S
C322 O314 1.252 . S
O323 In312 2.294 . S
O323 C316 1.240 . S
O324 In312 2.326 . S
O324 C316 1.252 . S
In325 O326 2.294 . S
In325 O327 2.326 . S
In325 O331 2.266 . S
In325 O332 2.326 . S
In325 O333 2.266 . S
In325 O334 2.326 . S
In325 O336 2.294 . S
In325 O337 2.326 . S
O326 In325 2.294 . S
O326 C335 1.240 . S
O327 In325 2.326 . S
O327 C335 1.252 . S
C328 O331 1.252 . S
C328 O332 1.260 . S
C329 O336 1.240 . S
C329 O337 1.252 . S
C330 O333 1.252 . S
C330 O334 1.260 . S
O331 In325 2.266 . S
O331 C328 1.252 . S
O332 In325 2.326 . S
O332 C328 1.260 . S
O333 In325 2.266 . S
O333 C330 1.252 . S
O334 In325 2.326 . S
O334 C330 1.260 . S
C335 O326 1.240 . S
C335 O327 1.252 . S
O336 In325 2.294 . S
O336 C329 1.240 . S
O337 In325 2.326 . S
O337 C329 1.252 . S
In338 O339 2.294 . S
In338 O340 2.326 . S
In338 O344 2.266 . S
In338 O345 2.326 . S
In338 O346 2.266 . S
In338 O347 2.326 . S
In338 O349 2.294 . S
In338 O350 2.326 . S
O339 In338 2.294 . S
O339 C348 1.240 . S
O340 In338 2.326 . S
O340 C348 1.252 . S
C341 O344 1.252 . S
C341 O345 1.260 . S
C342 O349 1.240 . S
C342 O350 1.252 . S
C343 O346 1.252 . S
C343 O347 1.260 . S
O344 In338 2.266 . S
O344 C341 1.252 . S
O345 In338 2.326 . S
O345 C341 1.260 . S
O346 In338 2.266 . S
O346 C343 1.252 . S
O347 In338 2.326 . S
O347 C343 1.260 . S
C348 O339 1.240 . S
C348 O340 1.252 . S
O349 In338 2.294 . S
O349 C342 1.240 . S
O350 In338 2.326 . S
O350 C342 1.252 . S
In351 O352 2.294 . S
In351 O353 2.326 . S
In351 O357 2.266 . S
In351 O358 2.326 . S
In351 O359 2.266 . S
In351 O360 2.326 . S
In351 O362 2.294 . S
In351 O363 2.326 . S
O352 In351 2.294 . S
O352 C361 1.240 . S
O353 In351 2.326 . S
O353 C361 1.252 . S
C354 O357 1.252 . S
C354 O358 1.260 . S
C355 O362 1.240 . S
C355 O363 1.252 . S
C356 O359 1.252 . S
C356 O360 1.260 . S
O357 In351 2.266 . S
O357 C354 1.252 . S
O358 In351 2.326 . S
O358 C354 1.260 . S
O359 In351 2.266 . S
O359 C356 1.252 . S
O360 In351 2.326 . S
O360 C356 1.260 . S
C361 O352 1.240 . S
C361 O353 1.252 . S
O362 In351 2.294 . S
O362 C355 1.240 . S
O363 In351 2.326 . S
O363 C355 1.252 . S
In364 O365 2.294 . S
In364 O366 2.326 . S
In364 O370 2.266 . S
In364 O371 2.326 . S
In364 O372 2.266 . S
In364 O373 2.326 . S
In364 O375 2.294 . S
In364 O376 2.326 . S
O365 In364 2.294 . S
O365 C374 1.240 . S
O366 In364 2.326 . S
O366 C374 1.252 . S
C367 O370 1.252 . S
C367 O371 1.260 . S
C368 O375 1.240 . S
C368 O376 1.252 . S
C369 O372 1.252 . S
C369 O373 1.260 . S
O370 In364 2.266 . S
O370 C367 1.252 . S
O371 In364 2.326 . S
O371 C367 1.260 . S
O372 In364 2.266 . S
O372 C369 1.252 . S
O373 In364 2.326 . S
O373 C369 1.260 . S
C374 O365 1.240 . S
C374 O366 1.252 . S
O375 In364 2.294 . S
O375 C368 1.240 . S
O376 In364 2.326 . S
O376 C368 1.252 . S
In377 O378 2.294 . S
In377 O379 2.326 . S
In377 O383 2.266 . S
In377 O384 2.326 . S
In377 O385 2.266 . S
In377 O386 2.326 . S
In377 O388 2.294 . S
In377 O389 2.326 . S
O378 In377 2.294 . S
O378 C387 1.240 . S
O379 In377 2.326 . S
O379 C387 1.252 . S
C380 O383 1.252 . S
C380 O384 1.260 . S
C381 O388 1.240 . S
C381 O389 1.252 . S
C382 O385 1.252 . S
C382 O386 1.260 . S
O383 In377 2.266 . S
O383 C380 1.252 . S
O384 In377 2.326 . S
O384 C380 1.260 . S
O385 In377 2.266 . S
O385 C382 1.252 . S
O386 In377 2.326 . S
O386 C382 1.260 . S
C387 O378 1.240 . S
C387 O379 1.252 . S
O388 In377 2.294 . S
O388 C381 1.240 . S
O389 In377 2.326 . S
O389 C381 1.252 . S
In390 O391 2.294 . S
In390 O392 2.326 . S
In390 O396 2.266 . S
In390 O397 2.326 . S
In390 O398 2.266 . S
In390 O399 2.326 . S
In390 O401 2.294 . S
In390 O402 2.326 . S
O391 In390 2.294 . S
O391 C400 1.240 . S
O392 In390 2.326 . S
O392 C400 1.252 . S
C393 O396 1.252 . S
C393 O397 1.260 . S
C394 O401 1.240 . S
C394 O402 1.252 . S
C395 O398 1.252 . S
C395 O399 1.260 . S
O396 In390 2.266 . S
O396 C393 1.252 . S
O397 In390 2.326 . S
O397 C393 1.260 . S
O398 In390 2.266 . S
O398 C395 1.252 . S
O399 In390 2.326 . S
O399 C395 1.260 . S
C400 O391 1.240 . S
C400 O392 1.252 . S
O401 In390 2.294 . S
O401 C394 1.240 . S
O402 In390 2.326 . S
O402 C394 1.252 . S
In403 O404 2.294 . S
In403 O405 2.326 . S
In403 O409 2.266 . S
In403 O410 2.326 . S
In403 O411 2.266 . S
In403 O412 2.326 . S
In403 O414 2.294 . S
In403 O415 2.326 . S
O404 In403 2.294 . S
O404 C413 1.240 . S
O405 In403 2.326 . S
O405 C413 1.252 . S
C406 O409 1.252 . S
C406 O410 1.260 . S
C407 O414 1.240 . S
C407 O415 1.252 . S
C408 O411 1.252 . S
C408 O412 1.260 . S
O409 In403 2.266 . S
O409 C406 1.252 . S
O410 In403 2.326 . S
O410 C406 1.260 . S
O411 In403 2.266 . S
O411 C408 1.252 . S
O412 In403 2.326 . S
O412 C408 1.260 . S
C413 O404 1.240 . S
C413 O405 1.252 . S
O414 In403 2.294 . S
O414 C407 1.240 . S
O415 In403 2.326 . S
O415 C407 1.252 . S
In416 O417 2.294 . S
In416 O418 2.326 . S
In416 O422 2.266 . S
In416 O423 2.326 . S
In416 O424 2.266 . S
In416 O425 2.326 . S
In416 O427 2.294 . S
In416 O428 2.326 . S
O417 In416 2.294 . S
O417 C426 1.240 . S
O418 In416 2.326 . S
O418 C426 1.252 . S
C419 O422 1.252 . S
C419 O423 1.260 . S
C420 O427 1.240 . S
C420 O428 1.252 . S
C421 O424 1.252 . S
C421 O425 1.260 . S
O422 In416 2.266 . S
O422 C419 1.252 . S
O423 In416 2.326 . S
O423 C419 1.260 . S
O424 In416 2.266 . S
O424 C421 1.252 . S
O425 In416 2.326 . S
O425 C421 1.260 . S
C426 O417 1.240 . S
C426 O418 1.252 . S
O427 In416 2.294 . S
O427 C420 1.240 . S
O428 In416 2.326 . S
O428 C420 1.252 . S
In429 O430 2.294 . S
In429 O431 2.326 . S
In429 O435 2.266 . S
In429 O436 2.326 . S
In429 O437 2.266 . S
In429 O438 2.326 . S
In429 O440 2.294 . S
In429 O441 2.326 . S
O430 In429 2.294 . S
O430 C439 1.240 . S
O431 In429 2.326 . S
O431 C439 1.252 . S
C432 O435 1.252 . S
C432 O436 1.260 . S
C433 O440 1.240 . S
C433 O441 1.252 . S
C434 O437 1.252 . S
C434 O438 1.260 . S
O435 In429 2.266 . S
O435 C432 1.252 . S
O436 In429 2.326 . S
O436 C432 1.260 . S
O437 In429 2.266 . S
O437 C434 1.252 . S
O438 In429 2.326 . S
O438 C434 1.260 . S
C439 O430 1.240 . S
C439 O431 1.252 . S
O440 In429 2.294 . S
O440 C433 1.240 . S
O441 In429 2.326 . S
O441 C433 1.252 . S
In442 O443 2.294 . S
In442 O444 2.326 . S
In442 O448 2.266 . S
In442 O449 2.326 . S
In442 O450 2.266 . S
In442 O451 2.326 . S
In442 O453 2.294 . S
In442 O454 2.326 . S
O443 In442 2.294 . S
O443 C452 1.240 . S
O444 In442 2.326 . S
O444 C452 1.252 . S
C445 O448 1.252 . S
C445 O449 1.260 . S
C446 O453 1.240 . S
C446 O454 1.252 . S
C447 O450 1.252 . S
C447 O451 1.260 . S
O448 In442 2.266 . S
O448 C445 1.252 . S
O449 In442 2.326 . S
O449 C445 1.260 . S
O450 In442 2.266 . S
O450 C447 1.252 . S
O451 In442 2.326 . S
O451 C447 1.260 . S
C452 O443 1.240 . S
C452 O444 1.252 . S
O453 In442 2.294 . S
O453 C446 1.240 . S
O454 In442 2.326 . S
O454 C446 1.252 . S
In455 O456 2.294 . S
In455 O457 2.326 . S
In455 O461 2.266 . S
In455 O462 2.326 . S
In455 O463 2.266 . S
In455 O464 2.326 . S
In455 O466 2.294 . S
In455 O467 2.326 . S
O456 In455 2.294 . S
O456 C465 1.240 . S
O457 In455 2.326 . S
O457 C465 1.252 . S
C458 O461 1.252 . S
C458 O462 1.260 . S
C459 O466 1.240 . S
C459 O467 1.252 . S
C460 O463 1.252 . S
C460 O464 1.260 . S
O461 In455 2.266 . S
O461 C458 1.252 . S
O462 In455 2.326 . S
O462 C458 1.260 . S
O463 In455 2.266 . S
O463 C460 1.252 . S
O464 In455 2.326 . S
O464 C460 1.260 . S
C465 O456 1.240 . S
C465 O457 1.252 . S
O466 In455 2.294 . S
O466 C459 1.240 . S
O467 In455 2.326 . S
O467 C459 1.252 . S
H468 C476 0.929 . S
H469 C478 0.930 . S
H470 C480 0.930 . S
H471 C483 0.929 . S
H472 C486 0.930 . S
H473 C488 0.960 . S
H474 C488 0.960 . S
H475 C488 0.960 . S
C476 H468 0.929 . S
C476 C477 1.377 . S
C476 C478 1.384 . S
C477 C476 1.377 . S
C477 C483 1.390 . S
C478 H469 0.930 . S
C478 C476 1.384 . S
C478 C479 1.372 . S
C479 C478 1.372 . S
C479 C480 1.400 . S
C479 C484 1.490 . S
C480 H470 0.930 . S
C480 C479 1.400 . S
C480 C483 1.386 . S
H481 C497 0.930 . S
H482 C498 0.931 . S
C483 H471 0.929 . S
C483 C477 1.390 . S
C483 C480 1.386 . S
C484 C479 1.490 . S
C484 C486 1.395 . S
C484 C487 1.403 1_565 S
H485 C491 0.930 . S
C486 H472 0.930 . S
C486 C484 1.395 . S
C486 C489 1.403 . S
C487 C484 1.403 1_545 S
C487 C488 1.524 . S
C487 C491 1.400 . S
C488 H473 0.960 . S
C488 H474 0.960 . S
C488 H475 0.960 . S
C488 C487 1.524 . S
C489 C486 1.403 . S
C489 C490 1.392 1_565 S
C489 C493 1.495 . S
C490 C489 1.392 1_545 S
C490 C491 1.385 . S
C490 C492 1.478 . S
C491 H485 0.930 . S
C491 C487 1.400 . S
C491 C490 1.385 . S
C492 C490 1.478 . S
C492 C494 1.381 . S
C492 C498 1.383 . S
C493 C489 1.495 . S
C493 H499 0.959 . S
C493 H500 0.961 . S
C493 H501 0.960 . S
C494 C492 1.381 . S
C494 C495 1.394 . S
C494 H502 0.930 . S
C495 C494 1.394 . S
C495 C496 1.383 . S
C495 H503 0.929 . S
C496 C495 1.383 . S
C496 C497 1.377 . S
C497 H481 0.930 . S
C497 C496 1.377 . S
C497 C498 1.379 . S
C498 H482 0.931 . S
C498 C492 1.383 . S
C498 C497 1.379 . S
H499 C493 0.959 . S
H500 C493 0.961 . S
H501 C493 0.960 . S
H502 C494 0.930 . S
H503 C495 0.929 . S
H504 C512 0.929 . S
H505 C514 0.930 . S
H506 C516 0.930 . S
H507 C519 0.929 . S
H508 C522 0.932 . S
H509 C524 0.960 . S
H510 C524 0.960 . S
H511 C524 0.960 . S
C512 H504 0.929 . S
C512 C513 1.377 . S
C512 C514 1.384 . S
C513 C512 1.377 . S
C513 C519 1.390 . S
C514 H505 0.930 . S
C514 C512 1.384 . S
C514 C515 1.372 . S
C515 C514 1.372 . S
C515 C516 1.400 . S
C515 C520 1.490 . S
C516 H506 0.930 . S
C516 C515 1.400 . S
C516 C519 1.386 . S
H517 C533 0.930 . S
H518 C534 0.931 . S
C519 H507 0.929 . S
C519 C513 1.390 . S
C519 C516 1.386 . S
C520 C515 1.490 . S
C520 C522 1.275 1_455 S
C520 C523 1.403 . S
H521 C527 0.930 . S
C522 H508 0.932 . S
C522 C520 1.275 1_655 S
C522 C525 1.492 . S
C523 C520 1.403 . S
C523 C524 1.524 . S
C523 C527 1.400 1_455 S
C524 H509 0.960 . S
C524 H510 0.960 . S
C524 H511 0.960 . S
C524 C523 1.524 . S
C525 C522 1.492 . S
C525 C526 1.392 . S
C525 C529 1.495 . S
C526 C525 1.392 . S
C526 C527 1.385 . S
C526 C528 1.478 . S
C527 H521 0.930 . S
C527 C523 1.400 1_655 S
C527 C526 1.385 . S
C528 C526 1.478 . S
C528 C530 1.381 . S
C528 C534 1.383 . S
C529 C525 1.495 . S
C529 H535 0.959 . S
C529 H536 0.961 . S
C529 H537 0.960 . S
C530 C528 1.381 . S
C530 C531 1.394 . S
C530 H538 0.930 . S
C531 C530 1.394 . S
C531 C532 1.383 . S
C531 H539 0.929 . S
C532 C531 1.383 . S
C532 C533 1.377 . S
C533 H517 0.930 . S
C533 C532 1.377 . S
C533 C534 1.379 . S
C534 H518 0.931 . S
C534 C528 1.383 . S
C534 C533 1.379 . S
H535 C529 0.959 . S
H536 C529 0.961 . S
H537 C529 0.960 . S
H538 C530 0.930 . S
H539 C531 0.929 . S
H540 C548 0.929 . S
H541 C550 0.930 . S
H542 C552 0.930 . S
H543 C555 0.929 . S
H544 C558 0.930 . S
H545 C560 0.960 . S
H546 C560 0.960 . S
H547 C560 0.960 . S
C548 H540 0.929 . S
C548 C549 1.377 . S
C548 C550 1.384 . S
C549 C548 1.377 . S
C549 C555 1.390 . S
C550 H541 0.930 . S
C550 C548 1.384 . S
C550 C551 1.372 . S
C551 C550 1.372 . S
C551 C552 1.400 . S
C551 C556 1.490 . S
C552 H542 0.930 . S
C552 C551 1.400 . S
C552 C555 1.386 . S
H553 C569 0.930 . S
H554 C570 0.931 . S
C555 H543 0.929 . S
C555 C549 1.390 . S
C555 C552 1.386 . S
C556 C551 1.490 . S
C556 C558 1.395 . S
C556 C559 1.403 . S
H557 C563 0.930 . S
C558 H544 0.930 . S
C558 C556 1.395 . S
C558 C561 1.403 . S
C559 C556 1.403 . S
C559 C560 1.524 . S
C559 C563 1.400 . S
C560 H545 0.960 . S
C560 H546 0.960 . S
C560 H547 0.960 . S
C560 C559 1.524 . S
C561 C558 1.403 . S
C561 C562 1.392 . S
C561 C565 1.495 . S
C562 C561 1.392 . S
C562 C563 1.385 . S
C562 C564 1.478 . S
C563 H557 0.930 . S
C563 C559 1.400 . S
C563 C562 1.385 . S
C564 C562 1.478 . S
C564 C566 1.381 . S
C564 C570 1.383 . S
C565 C561 1.495 . S
C565 H571 0.959 . S
C565 H572 0.961 . S
C565 H573 0.960 . S
C566 C564 1.381 . S
C566 C567 1.394 . S
C566 H574 0.930 . S
C567 C566 1.394 . S
C567 C568 1.383 . S
C567 H575 0.929 . S
C568 C567 1.383 . S
C568 C569 1.377 . S
C569 H553 0.930 . S
C569 C568 1.377 . S
C569 C570 1.379 . S
C570 H554 0.931 . S
C570 C564 1.383 . S
C570 C569 1.379 . S
H571 C565 0.959 . S
H572 C565 0.961 . S
H573 C565 0.960 . S
H574 C566 0.930 . S
H575 C567 0.929 . S
H576 C584 0.929 . S
H577 C586 0.930 . S
H578 C588 0.930 . S
H579 C591 0.929 . S
H580 C594 0.930 . S
H581 C596 0.960 . S
H582 C596 0.960 . S
H583 C596 0.960 . S
C584 H576 0.929 . S
C584 C585 1.377 . S
C584 C586 1.384 . S
C585 C584 1.377 . S
C585 C591 1.390 . S
C586 H577 0.930 . S
C586 C584 1.384 . S
C586 C587 1.372 . S
C587 C586 1.372 . S
C587 C588 1.400 . S
C587 C592 1.490 . S
C588 H578 0.930 . S
C588 C587 1.400 . S
C588 C591 1.386 . S
H589 C605 0.930 . S
H590 C606 0.931 . S
C591 H579 0.929 . S
C591 C585 1.390 . S
C591 C588 1.386 . S
C592 C587 1.490 . S
C592 C594 1.395 1_565 S
C592 C595 1.403 . S
H593 C599 0.944 . S
C594 H580 0.930 . S
C594 C592 1.395 1_545 S
C594 C597 1.403 . S
C595 C592 1.403 . S
C595 C596 1.524 . S
C595 C599 1.437 . S
C596 H581 0.960 . S
C596 H582 0.960 . S
C596 H583 0.960 . S
C596 C595 1.524 . S
C597 C594 1.403 . S
C597 C598 1.392 . S
C597 C601 1.495 . S
C598 C597 1.392 . S
C598 C599 1.336 1_545 S
C598 C600 1.478 . S
C599 H593 0.944 . S
C599 C595 1.437 . S
C599 C598 1.336 1_565 S
C600 C598 1.478 . S
C600 C602 1.381 . S
C600 C606 1.383 . S
C601 C597 1.495 . S
C601 H607 0.959 . S
C601 H608 0.961 . S
C601 H609 0.960 . S
C602 C600 1.381 . S
C602 C603 1.394 . S
C602 H610 0.930 . S
C603 C602 1.394 . S
C603 C604 1.383 . S
C603 H611 0.929 . S
C604 C603 1.383 . S
C604 C605 1.377 . S
C605 H589 0.930 . S
C605 C604 1.377 . S
C605 C606 1.379 . S
C606 H590 0.931 . S
C606 C600 1.383 . S
C606 C605 1.379 . S
H607 C601 0.959 . S
H608 C601 0.961 . S
H609 C601 0.960 . S
H610 C602 0.930 . S
H611 C603 0.929 . S
H612 C620 0.929 . S
H613 C622 0.930 . S
H614 C624 0.930 . S
H615 C627 0.929 . S
H616 C630 0.930 . S
H617 C632 0.960 . S
H618 C632 0.960 . S
H619 C632 0.960 . S
C620 H612 0.929 . S
C620 C621 1.377 . S
C620 C622 1.384 . S
C621 C620 1.377 . S
C621 C627 1.390 . S
C622 H613 0.930 . S
C622 C620 1.384 . S
C622 C623 1.372 . S
C623 C622 1.372 . S
C623 C624 1.400 . S
C623 C628 1.490 . S
C624 H614 0.930 . S
C624 C623 1.400 . S
C624 C627 1.386 . S
H625 C641 0.930 . S
H626 C642 0.931 . S
C627 H615 0.929 . S
C627 C621 1.390 . S
C627 C624 1.386 . S
C628 C623 1.490 . S
C628 C630 1.395 1_455 S
C628 C631 1.403 . S
H629 C635 0.925 . S
C630 H616 0.930 . S
C630 C628 1.395 1_655 S
C630 C633 1.403 . S
C631 C628 1.403 . S
C631 C632 1.524 . S
C631 C635 1.333 1_455 S
C632 H617 0.960 . S
C632 H618 0.960 . S
C632 H619 0.960 . S
C632 C631 1.524 . S
C633 C630 1.403 . S
C633 C634 1.392 . S
C633 C637 1.495 . S
C634 C633 1.392 . S
C634 C635 1.480 . S
C634 C636 1.478 . S
C635 H629 0.925 . S
C635 C631 1.333 1_655 S
C635 C634 1.480 . S
C636 C634 1.478 . S
C636 C638 1.381 . S
C636 C642 1.383 . S
C637 C633 1.495 . S
C637 H643 0.959 . S
C637 H644 0.961 . S
C637 H645 0.960 . S
C638 C636 1.381 . S
C638 C639 1.394 . S
C638 H646 0.930 . S
C639 C638 1.394 . S
C639 C640 1.383 . S
C639 H647 0.929 . S
C640 C639 1.383 . S
C640 C641 1.377 . S
C641 H625 0.930 . S
C641 C640 1.377 . S
C641 C642 1.379 . S
C642 H626 0.931 . S
C642 C636 1.383 . S
C642 C641 1.379 . S
H643 C637 0.959 . S
H644 C637 0.961 . S
H645 C637 0.960 . S
H646 C638 0.930 . S
H647 C639 0.929 . S
H648 C656 0.929 . S
H649 C658 0.930 . S
H650 C660 0.930 . S
H651 C663 0.929 . S
H652 C666 0.930 . S
H653 C668 0.960 . S
H654 C668 0.960 . S
H655 C668 0.960 . S
C656 H648 0.929 . S
C656 C657 1.377 . S
C656 C658 1.384 . S
C657 C656 1.377 . S
C657 C663 1.390 . S
C658 H649 0.930 . S
C658 C656 1.384 . S
C658 C659 1.372 . S
C659 C658 1.372 . S
C659 C660 1.400 . S
C659 C664 1.490 . S
C660 H650 0.930 . S
C660 C659 1.400 . S
C660 C663 1.386 . S
H661 C677 0.930 . S
H662 C678 0.931 . S
C663 H651 0.929 . S
C663 C657 1.390 . S
C663 C660 1.386 . S
C664 C659 1.490 . S
C664 C666 1.395 . S
C664 C667 1.403 . S
H665 C671 0.930 . S
C666 H652 0.930 . S
C666 C664 1.395 . S
C666 C669 1.403 . S
C667 C664 1.403 . S
C667 C668 1.524 . S
C667 C671 1.400 . S
C668 H653 0.960 . S
C668 H654 0.960 . S
C668 H655 0.960 . S
C668 C667 1.524 . S
C669 C666 1.403 . S
C669 C670 1.392 . S
C669 C673 1.495 . S
C670 C669 1.392 . S
C670 C671 1.385 . S
C670 C672 1.478 . S
C671 H665 0.930 . S
C671 C667 1.400 . S
C671 C670 1.385 . S
C672 C670 1.478 . S
C672 C674 1.381 . S
C672 C678 1.383 . S
C673 C669 1.495 . S
C673 H679 0.959 . S
C673 H680 0.961 . S
C673 H681 0.960 . S
C674 C672 1.381 . S
C674 C675 1.394 . S
C674 H682 0.930 . S
C675 C674 1.394 . S
C675 C676 1.383 . S
C675 H683 0.929 . S
C676 C675 1.383 . S
C676 C677 1.377 . S
C677 H661 0.930 . S
C677 C676 1.377 . S
C677 C678 1.379 . S
C678 H662 0.931 . S
C678 C672 1.383 . S
C678 C677 1.379 . S
H679 C673 0.959 . S
H680 C673 0.961 . S
H681 C673 0.960 . S
H682 C674 0.930 . S
H683 C675 0.929 . S
H684 C692 0.929 . S
H685 C694 0.930 . S
H686 C696 0.930 . S
H687 C699 0.929 . S
H688 C702 0.930 . S
H689 C704 0.960 . S
H690 C704 0.960 . S
H691 C704 0.960 . S
C692 H684 0.929 . S
C692 C693 1.377 . S
C692 C694 1.384 . S
C693 C692 1.377 . S
C693 C699 1.390 . S
C694 H685 0.930 . S
C694 C692 1.384 . S
C694 C695 1.372 . S
C695 C694 1.372 . S
C695 C696 1.400 . S
C695 C700 1.490 . S
C696 H686 0.930 . S
C696 C695 1.400 . S
C696 C699 1.386 . S
H697 C713 0.930 . S
H698 C714 0.931 . S
C699 H687 0.929 . S
C699 C693 1.390 . S
C699 C696 1.386 . S
C700 C695 1.490 . S
C700 C702 1.395 . S
C700 C703 1.403 . S
H701 C707 0.930 . S
C702 H688 0.930 . S
C702 C700 1.395 . S
C702 C705 1.403 . S
C703 C700 1.403 . S
C703 C704 1.524 . S
C703 C707 1.400 . S
C704 H689 0.960 . S
C704 H690 0.960 . S
C704 H691 0.960 . S
C704 C703 1.524 . S
C705 C702 1.403 . S
C705 C706 1.392 . S
C705 C709 1.495 . S
C706 C705 1.392 . S
C706 C707 1.385 . S
C706 C708 1.478 . S
C707 H701 0.930 . S
C707 C703 1.400 . S
C707 C706 1.385 . S
C708 C706 1.478 . S
C708 C710 1.381 . S
C708 C714 1.383 . S
C709 C705 1.495 . S
C709 H715 0.959 . S
C709 H716 0.961 . S
C709 H717 0.960 . S
C710 C708 1.381 . S
C710 C711 1.394 . S
C710 H718 0.930 . S
C711 C710 1.394 . S
C711 C712 1.383 . S
C711 H719 0.929 . S
C712 C711 1.383 . S
C712 C713 1.377 . S
C713 H697 0.930 . S
C713 C712 1.377 . S
C713 C714 1.379 . S
C714 H698 0.931 . S
C714 C708 1.383 . S
C714 C713 1.379 . S
H715 C709 0.959 . S
H716 C709 0.961 . S
H717 C709 0.960 . S
H718 C710 0.930 . S
H719 C711 0.929 . S
H720 C728 0.929 . S
H721 C730 0.930 . S
H722 C732 0.930 . S
H723 C735 0.929 . S
H724 C738 0.930 . S
H725 C740 0.960 . S
H726 C740 0.960 . S
H727 C740 0.960 . S
C728 H720 0.929 . S
C728 C729 1.377 . S
C728 C730 1.384 . S
C729 C728 1.377 . S
C729 C735 1.390 . S
C730 H721 0.930 . S
C730 C728 1.384 . S
C730 C731 1.372 . S
C731 C730 1.372 . S
C731 C732 1.400 . S
C731 C736 1.490 . S
C732 H722 0.930 . S
C732 C731 1.400 . S
C732 C735 1.386 . S
H733 C749 0.930 . S
H734 C750 0.931 . S
C735 H723 0.929 . S
C735 C729 1.390 . S
C735 C732 1.386 . S
C736 C731 1.490 . S
C736 C738 1.395 . S
C736 C739 1.403 . S
H737 C743 0.930 . S
C738 H724 0.930 . S
C738 C736 1.395 . S
C738 C741 1.403 . S
C739 C736 1.403 . S
C739 C740 1.524 . S
C739 C743 1.400 . S
C740 H725 0.960 . S
C740 H726 0.960 . S
C740 H727 0.960 . S
C740 C739 1.524 . S
C741 C738 1.403 . S
C741 C742 1.392 . S
C741 C745 1.495 . S
C742 C741 1.392 . S
C742 C743 1.385 . S
C742 C744 1.478 . S
C743 H737 0.930 . S
C743 C739 1.400 . S
C743 C742 1.385 . S
C744 C742 1.478 . S
C744 C746 1.381 . S
C744 C750 1.383 . S
C745 C741 1.495 . S
C745 H751 0.959 . S
C745 H752 0.961 . S
C745 H753 0.960 . S
C746 C744 1.381 . S
C746 C747 1.394 . S
C746 H754 0.930 . S
C747 C746 1.394 . S
C747 C748 1.383 . S
C747 H755 0.930 . S
C748 C747 1.383 . S
C748 C749 1.377 . S
C749 H733 0.930 . S
C749 C748 1.377 . S
C749 C750 1.379 . S
C750 H734 0.931 . S
C750 C744 1.383 . S
C750 C749 1.379 . S
H751 C745 0.959 . S
H752 C745 0.961 . S
H753 C745 0.960 . S
H754 C746 0.930 . S
H755 C747 0.930 . S
H756 C764 0.929 . S
H757 C766 0.930 . S
H758 C768 0.930 . S
H759 C771 0.929 . S
H760 C774 0.930 . S
H761 C776 0.960 . S
H762 C776 0.960 . S
H763 C776 0.960 . S
C764 H756 0.929 . S
C764 C765 1.377 . S
C764 C766 1.384 . S
C765 C764 1.377 . S
C765 C771 1.390 . S
C766 H757 0.930 . S
C766 C764 1.384 . S
C766 C767 1.372 . S
C767 C766 1.372 . S
C767 C768 1.400 . S
C767 C772 1.490 . S
C768 H758 0.930 . S
C768 C767 1.400 . S
C768 C771 1.386 . S
H769 C785 0.930 . S
H770 C786 0.931 . S
C771 H759 0.929 . S
C771 C765 1.390 . S
C771 C768 1.386 . S
C772 C767 1.490 . S
C772 C774 1.395 . S
C772 C775 1.403 . S
H773 C779 0.930 . S
C774 H760 0.930 . S
C774 C772 1.395 . S
C774 C777 1.403 . S
C775 C772 1.403 . S
C775 C776 1.524 . S
C775 C779 1.400 . S
C776 H761 0.960 . S
C776 H762 0.960 . S
C776 H763 0.960 . S
C776 C775 1.524 . S
C777 C774 1.403 . S
C777 C778 1.392 . S
C777 C781 1.495 . S
C778 C777 1.392 . S
C778 C779 1.385 . S
C778 C780 1.478 . S
C779 H773 0.930 . S
C779 C775 1.400 . S
C779 C778 1.385 . S
C780 C778 1.478 . S
C780 C782 1.381 . S
C780 C786 1.383 . S
C781 C777 1.495 . S
C781 H787 0.959 . S
C781 H788 0.961 . S
C781 H789 0.960 . S
C782 C780 1.381 . S
C782 C783 1.394 . S
C782 H790 0.930 . S
C783 C782 1.394 . S
C783 C784 1.383 . S
C783 H791 0.929 . S
C784 C783 1.383 . S
C784 C785 1.377 . S
C785 H769 0.930 . S
C785 C784 1.377 . S
C785 C786 1.379 . S
C786 H770 0.931 . S
C786 C780 1.383 . S
C786 C785 1.379 . S
H787 C781 0.959 . S
H788 C781 0.961 . S
H789 C781 0.960 . S
H790 C782 0.930 . S
H791 C783 0.929 . S
H792 C800 0.929 . S
H793 C802 0.930 . S
H794 C804 0.930 . S
H795 C807 0.929 . S
H796 C810 0.930 . S
H797 C812 0.960 . S
H798 C812 0.960 . S
H799 C812 0.960 . S
C800 H792 0.929 . S
C800 C801 1.377 . S
C800 C802 1.384 . S
C801 C800 1.377 . S
C801 C807 1.390 . S
C802 H793 0.930 . S
C802 C800 1.384 . S
C802 C803 1.372 . S
C803 C802 1.372 . S
C803 C804 1.400 . S
C803 C808 1.490 . S
C804 H794 0.930 . S
C804 C803 1.400 . S
C804 C807 1.386 . S
H805 C821 0.930 . S
H806 C822 0.931 . S
C807 H795 0.929 . S
C807 C801 1.390 . S
C807 C804 1.386 . S
C808 C803 1.490 . S
C808 C810 1.395 . S
C808 C811 1.403 . S
H809 C815 0.930 . S
C810 H796 0.930 . S
C810 C808 1.395 . S
C810 C813 1.403 . S
C811 C808 1.403 . S
C811 C812 1.524 . S
C811 C815 1.400 . S
C812 H797 0.960 . S
C812 H798 0.960 . S
C812 H799 0.960 . S
C812 C811 1.524 . S
C813 C810 1.403 . S
C813 C814 1.392 . S
C813 C817 1.495 . S
C814 C813 1.392 . S
C814 C815 1.385 . S
C814 C816 1.478 . S
C815 H809 0.930 . S
C815 C811 1.400 . S
C815 C814 1.385 . S
C816 C814 1.478 . S
C816 C818 1.381 . S
C816 C822 1.383 . S
C817 C813 1.495 . S
C817 H823 0.959 . S
C817 H824 0.961 . S
C817 H825 0.960 . S
C818 C816 1.381 . S
C818 C819 1.394 . S
C818 H826 0.930 . S
C819 C818 1.394 . S
C819 C820 1.383 . S
C819 H827 0.929 . S
C820 C819 1.383 . S
C820 C821 1.377 . S
C821 H805 0.930 . S
C821 C820 1.377 . S
C821 C822 1.379 . S
C822 H806 0.931 . S
C822 C816 1.383 . S
C822 C821 1.379 . S
H823 C817 0.959 . S
H824 C817 0.961 . S
H825 C817 0.960 . S
H826 C818 0.930 . S
H827 C819 0.929 . S
H828 C836 0.929 . S
H829 C838 0.930 . S
H830 C840 0.930 . S
H831 C843 0.929 . S
H832 C846 0.930 . S
H833 C848 0.960 . S
H834 C848 0.960 . S
H835 C848 0.960 . S
C836 H828 0.929 . S
C836 C837 1.377 . S
C836 C838 1.384 . S
C837 C836 1.377 . S
C837 C843 1.390 . S
C838 H829 0.930 . S
C838 C836 1.384 . S
C838 C839 1.372 . S
C839 C838 1.372 . S
C839 C840 1.400 . S
C839 C844 1.490 . S
C840 H830 0.930 . S
C840 C839 1.400 . S
C840 C843 1.386 . S
H841 C857 0.930 . S
H842 C858 0.931 . S
C843 H831 0.929 . S
C843 C837 1.390 . S
C843 C840 1.386 . S
C844 C839 1.490 . S
C844 C846 1.395 . S
C844 C847 1.403 . S
H845 C851 0.930 . S
C846 H832 0.930 . S
C846 C844 1.395 . S
C846 C849 1.403 . S
C847 C844 1.403 . S
C847 C848 1.524 . S
C847 C851 1.400 . S
C848 H833 0.960 . S
C848 H834 0.960 . S
C848 H835 0.960 . S
C848 C847 1.524 . S
C849 C846 1.403 . S
C849 C850 1.392 . S
C849 C853 1.495 . S
C850 C849 1.392 . S
C850 C851 1.385 . S
C850 C852 1.478 . S
C851 H845 0.930 . S
C851 C847 1.400 . S
C851 C850 1.385 . S
C852 C850 1.478 . S
C852 C854 1.381 . S
C852 C858 1.383 . S
C853 C849 1.495 . S
C853 H859 0.959 . S
C853 H860 0.961 . S
C853 H861 0.960 . S
C854 C852 1.381 . S
C854 C855 1.394 . S
C854 H862 0.930 . S
C855 C854 1.394 . S
C855 C856 1.383 . S
C855 H863 0.929 . S
C856 C855 1.383 . S
C856 C857 1.377 . S
C857 H841 0.930 . S
C857 C856 1.377 . S
C857 C858 1.379 . S
C858 H842 0.931 . S
C858 C852 1.383 . S
C858 C857 1.379 . S
H859 C853 0.959 . S
H860 C853 0.961 . S
H861 C853 0.960 . S
H862 C854 0.930 . S
H863 C855 0.929 . S
H864 C872 0.929 . S
H865 C874 0.930 . S
H866 C876 0.930 . S
H867 C879 0.929 . S
H868 C882 0.930 . S
H869 C884 0.960 . S
H870 C884 0.960 . S
H871 C884 0.960 . S
C872 H864 0.929 . S
C872 C873 1.377 . S
C872 C874 1.384 . S
C873 C872 1.377 . S
C873 C879 1.390 . S
C874 H865 0.930 . S
C874 C872 1.384 . S
C874 C875 1.372 . S
C875 C874 1.372 . S
C875 C876 1.400 . S
C875 C880 1.490 . S
C876 H866 0.930 . S
C876 C875 1.400 . S
C876 C879 1.386 . S
H877 C893 0.930 . S
H878 C894 0.931 . S
C879 H867 0.929 . S
C879 C873 1.390 . S
C879 C876 1.386 . S
C880 C875 1.490 . S
C880 C882 1.395 . S
C880 C883 1.403 . S
H881 C887 0.930 . S
C882 H868 0.930 . S
C882 C880 1.395 . S
C882 C885 1.403 . S
C883 C880 1.403 . S
C883 C884 1.524 . S
C883 C887 1.400 . S
C884 H869 0.960 . S
C884 H870 0.960 . S
C884 H871 0.960 . S
C884 C883 1.524 . S
C885 C882 1.403 . S
C885 C886 1.392 . S
C885 C889 1.495 . S
C886 C885 1.392 . S
C886 C887 1.385 . S
C886 C888 1.478 . S
C887 H881 0.930 . S
C887 C883 1.400 . S
C887 C886 1.385 . S
C888 C886 1.478 . S
C888 C890 1.381 . S
C888 C894 1.383 . S
C889 C885 1.495 . S
C889 H895 0.959 . S
C889 H896 0.961 . S
C889 H897 0.960 . S
C890 C888 1.381 . S
C890 C891 1.394 . S
C890 H898 0.930 . S
C891 C890 1.394 . S
C891 C892 1.383 . S
C891 H899 0.929 . S
C892 C891 1.383 . S
C892 C893 1.377 . S
C893 H877 0.930 . S
C893 C892 1.377 . S
C893 C894 1.379 . S
C894 H878 0.931 . S
C894 C888 1.383 . S
C894 C893 1.379 . S
H895 C889 0.959 . S
H896 C889 0.961 . S
H897 C889 0.960 . S
H898 C890 0.930 . S
H899 C891 0.929 . S
H900 C908 0.929 . S
H901 C910 0.930 . S
H902 C912 0.930 . S
H903 C915 0.929 . S
H904 C918 0.930 . S
H905 C920 0.960 . S
H906 C920 0.960 . S
H907 C920 0.960 . S
C908 H900 0.929 . S
C908 C909 1.377 . S
C908 C910 1.384 . S
C909 C908 1.377 . S
C909 C915 1.390 . S
C910 H901 0.930 . S
C910 C908 1.384 . S
C910 C911 1.372 . S
C911 C910 1.372 . S
C911 C912 1.400 . S
C911 C916 1.490 . S
C912 H902 0.930 . S
C912 C911 1.400 . S
C912 C915 1.386 . S
H913 C929 0.930 . S
H914 C930 0.931 . S
C915 H903 0.929 . S
C915 C909 1.390 . S
C915 C912 1.386 . S
C916 C911 1.490 . S
C916 C918 1.395 . S
C916 C919 1.403 . S
H917 C923 0.930 . S
C918 H904 0.930 . S
C918 C916 1.395 . S
C918 C921 1.403 . S
C919 C916 1.403 . S
C919 C920 1.524 . S
C919 C923 1.400 . S
C920 H905 0.960 . S
C920 H906 0.960 . S
C920 H907 0.960 . S
C920 C919 1.524 . S
C921 C918 1.403 . S
C921 C922 1.392 . S
C921 C925 1.495 . S
C922 C921 1.392 . S
C922 C923 1.385 . S
C922 C924 1.478 . S
C923 H917 0.930 . S
C923 C919 1.400 . S
C923 C922 1.385 . S
C924 C922 1.478 . S
C924 C926 1.381 . S
C924 C930 1.383 . S
C925 C921 1.495 . S
C925 H931 0.959 . S
C925 H932 0.961 . S
C925 H933 0.960 . S
C926 C924 1.381 . S
C926 C927 1.394 . S
C926 H934 0.930 . S
C927 C926 1.394 . S
C927 C928 1.383 . S
C927 H935 0.929 . S
C928 C927 1.383 . S
C928 C929 1.377 . S
C929 H913 0.930 . S
C929 C928 1.377 . S
C929 C930 1.379 . S
C930 H914 0.931 . S
C930 C924 1.383 . S
C930 C929 1.379 . S
H931 C925 0.959 . S
H932 C925 0.961 . S
H933 C925 0.960 . S
H934 C926 0.930 . S
H935 C927 0.929 . S
H936 C944 0.929 . S
H937 C946 0.930 . S
H938 C948 0.930 . S
H939 C951 0.929 . S
H940 C954 0.930 . S
H941 C956 0.960 . S
H942 C956 0.960 . S
H943 C956 0.960 . S
C944 H936 0.929 . S
C944 C945 1.377 . S
C944 C946 1.384 . S
C945 C944 1.377 . S
C945 C951 1.390 . S
C946 H937 0.930 . S
C946 C944 1.384 . S
C946 C947 1.372 . S
C947 C946 1.372 . S
C947 C948 1.400 . S
C947 C952 1.490 . S
C948 H938 0.930 . S
C948 C947 1.400 . S
C948 C951 1.386 . S
H949 C965 0.930 . S
H950 C966 0.931 . S
C951 H939 0.929 . S
C951 C945 1.390 . S
C951 C948 1.386 . S
C952 C947 1.490 . S
C952 C954 1.395 . S
C952 C955 1.403 . S
H953 C959 0.930 . S
C954 H940 0.930 . S
C954 C952 1.395 . S
C954 C957 1.403 . S
C955 C952 1.403 . S
C955 C956 1.524 . S
C955 C959 1.400 . S
C956 H941 0.960 . S
C956 H942 0.960 . S
C956 H943 0.960 . S
C956 C955 1.524 . S
C957 C954 1.403 . S
C957 C958 1.392 . S
C957 C961 1.495 . S
C958 C957 1.392 . S
C958 C959 1.385 . S
C958 C960 1.478 . S
C959 H953 0.930 . S
C959 C955 1.400 . S
C959 C958 1.385 . S
C960 C958 1.478 . S
C960 C962 1.381 . S
C960 C966 1.383 . S
C961 C957 1.495 . S
C961 H967 0.959 . S
C961 H968 0.961 . S
C961 H969 0.960 . S
C962 C960 1.381 . S
C962 C963 1.394 . S
C962 H970 0.930 . S
C963 C962 1.394 . S
C963 C964 1.383 . S
C963 H971 0.929 . S
C964 C963 1.383 . S
C964 C965 1.377 . S
C965 H949 0.930 . S
C965 C964 1.377 . S
C965 C966 1.379 . S
C966 H950 0.931 . S
C966 C960 1.383 . S
C966 C965 1.379 . S
H967 C961 0.959 . S
H968 C961 0.961 . S
H969 C961 0.960 . S
H970 C962 0.930 . S
H971 C963 0.929 . S
H972 C980 0.929 . S
H973 C982 0.930 . S
H974 C984 0.930 . S
H975 C987 0.929 . S
H976 C990 0.930 . S
H977 C992 0.960 . S
H978 C992 0.960 . S
H979 C992 0.960 . S
C980 H972 0.929 . S
C980 C981 1.377 . S
C980 C982 1.384 . S
C981 C980 1.377 . S
C981 C987 1.390 . S
C982 H973 0.930 . S
C982 C980 1.384 . S
C982 C983 1.372 . S
C983 C982 1.372 . S
C983 C984 1.400 . S
C983 C988 1.490 . S
C984 H974 0.930 . S
C984 C983 1.400 . S
C984 C987 1.386 . S
H985 C1001 0.930 . S
H986 C1002 0.931 . S
C987 H975 0.929 . S
C987 C981 1.390 . S
C987 C984 1.386 . S
C988 C983 1.490 . S
C988 C990 1.395 . S
C988 C991 1.403 . S
H989 C995 0.930 . S
C990 H976 0.930 . S
C990 C988 1.395 . S
C990 C993 1.403 . S
C991 C988 1.403 . S
C991 C992 1.524 . S
C991 C995 1.400 . S
C992 H977 0.960 . S
C992 H978 0.960 . S
C992 H979 0.960 . S
C992 C991 1.524 . S
C993 C990 1.403 . S
C993 C994 1.392 . S
C993 C997 1.495 . S
C994 C993 1.392 . S
C994 C995 1.385 . S
C994 C996 1.478 . S
C995 H989 0.930 . S
C995 C991 1.400 . S
C995 C994 1.385 . S
C996 C994 1.478 . S
C996 C998 1.381 . S
C996 C1002 1.383 . S
C997 C993 1.495 . S
C997 H1003 0.959 . S
C997 H1004 0.961 . S
C997 H1005 0.960 . S
C998 C996 1.381 . S
C998 C999 1.394 . S
C998 H1006 0.930 . S
C999 C998 1.394 . S
C999 C1000 1.383 . S
C999 H1007 0.929 1_554 S
C1000 C999 1.383 . S
C1000 C1001 1.377 . S
C1001 H985 0.930 . S
C1001 C1000 1.377 . S
C1001 C1002 1.379 . S
C1002 H986 0.931 . S
C1002 C996 1.383 . S
C1002 C1001 1.379 . S
H1003 C997 0.959 . S
H1004 C997 0.961 . S
H1005 C997 0.960 . S
H1006 C998 0.930 . S
H1007 C999 0.929 1_556 S
H1008 C1016 0.929 . S
H1009 C1018 0.930 . S
H1010 C1020 0.930 . S
H1011 C1023 0.929 . S
H1012 C1026 0.930 . S
H1013 C1028 0.960 . S
H1014 C1028 0.960 . S
H1015 C1028 0.960 . S
C1016 H1008 0.929 . S
C1016 C1017 1.377 . S
C1016 C1018 1.384 . S
C1017 C1016 1.377 . S
C1017 C1023 1.390 . S
C1018 H1009 0.930 . S
C1018 C1016 1.384 . S
C1018 C1019 1.372 . S
C1019 C1018 1.372 . S
C1019 C1020 1.400 . S
C1019 C1024 1.490 . S
C1020 H1010 0.930 . S
C1020 C1019 1.400 . S
C1020 C1023 1.386 . S
H1021 C1037 0.930 1_556 S
H1022 C1038 0.931 . S
C1023 H1011 0.929 . S
C1023 C1017 1.390 . S
C1023 C1020 1.386 . S
C1024 C1019 1.490 . S
C1024 C1026 1.395 . S
C1024 C1027 1.403 . S
H1025 C1031 0.930 . S
C1026 H1012 0.930 . S
C1026 C1024 1.395 . S
C1026 C1029 1.403 . S
C1027 C1024 1.403 . S
C1027 C1028 1.524 . S
C1027 C1031 1.400 . S
C1028 H1013 0.960 . S
C1028 H1014 0.960 . S
C1028 H1015 0.960 . S
C1028 C1027 1.524 . S
C1029 C1026 1.403 . S
C1029 C1030 1.392 . S
C1029 C1033 1.495 . S
C1030 C1029 1.392 . S
C1030 C1031 1.385 . S
C1030 C1032 1.478 . S
C1031 H1025 0.930 . S
C1031 C1027 1.400 . S
C1031 C1030 1.385 . S
C1032 C1030 1.478 . S
C1032 C1034 1.381 . S
C1032 C1038 1.383 . S
C1033 C1029 1.495 . S
C1033 H1039 0.959 . S
C1033 H1040 0.961 . S
C1033 H1041 0.960 . S
C1034 C1032 1.381 . S
C1034 C1035 1.394 . S
C1034 H1042 0.930 . S
C1035 C1034 1.394 . S
C1035 C1036 1.383 . S
C1035 H1043 0.929 . S
C1036 C1035 1.383 . S
C1036 C1037 1.377 . S
C1037 H1021 0.930 1_554 S
C1037 C1036 1.377 . S
C1037 C1038 1.379 . S
C1038 H1022 0.931 . S
C1038 C1032 1.383 . S
C1038 C1037 1.379 . S
H1039 C1033 0.959 . S
H1040 C1033 0.961 . S
H1041 C1033 0.960 . S
H1042 C1034 0.930 . S
H1043 C1035 0.929 . S
H1044 C1052 0.929 . S
H1045 C1054 0.930 . S
H1046 C1056 0.930 . S
H1047 C1059 0.929 . S
H1048 C1062 0.930 . S
H1049 C1064 0.960 . S
H1050 C1064 0.960 . S
H1051 C1064 0.960 . S
C1052 H1044 0.929 . S
C1052 C1053 1.377 . S
C1052 C1054 1.384 . S
C1053 C1052 1.377 . S
C1053 C1059 1.390 . S
C1054 H1045 0.930 . S
C1054 C1052 1.384 . S
C1054 C1055 1.372 . S
C1055 C1054 1.372 . S
C1055 C1056 1.400 . S
C1055 C1060 1.490 . S
C1056 H1046 0.930 . S
C1056 C1055 1.400 . S
C1056 C1059 1.386 . S
H1057 C1073 0.930 . S
H1058 C1074 0.931 . S
C1059 H1047 0.929 . S
C1059 C1053 1.390 . S
C1059 C1056 1.386 . S
C1060 C1055 1.490 . S
C1060 C1062 1.395 . S
C1060 C1063 1.403 . S
H1061 C1067 0.930 . S
C1062 H1048 0.930 . S
C1062 C1060 1.395 . S
C1062 C1065 1.403 . S
C1063 C1060 1.403 . S
C1063 C1064 1.524 . S
C1063 C1067 1.400 . S
C1064 H1049 0.960 . S
C1064 H1050 0.960 . S
C1064 H1051 0.960 . S
C1064 C1063 1.524 . S
C1065 C1062 1.403 . S
C1065 C1066 1.392 . S
C1065 C1069 1.495 . S
C1066 C1065 1.392 . S
C1066 C1067 1.385 . S
C1066 C1068 1.478 . S
C1067 H1061 0.930 . S
C1067 C1063 1.400 . S
C1067 C1066 1.385 . S
C1068 C1066 1.478 . S
C1068 C1070 1.381 . S
C1068 C1074 1.383 . S
C1069 C1065 1.495 . S
C1069 H1075 0.959 . S
C1069 H1076 0.961 . S
C1069 H1077 0.960 . S
C1070 C1068 1.381 . S
C1070 C1071 1.394 . S
C1070 H1078 0.930 . S
C1071 C1070 1.394 . S
C1071 C1072 1.383 . S
C1071 H1079 0.929 . S
C1072 C1071 1.383 . S
C1072 C1073 1.377 . S
C1073 H1057 0.930 . S
C1073 C1072 1.377 . S
C1073 C1074 1.379 . S
C1074 H1058 0.931 . S
C1074 C1068 1.383 . S
C1074 C1073 1.379 . S
H1075 C1069 0.959 . S
H1076 C1069 0.961 . S
H1077 C1069 0.960 . S
H1078 C1070 0.930 . S
H1079 C1071 0.929 . S
H1080 C1088 0.929 . S
H1081 C1090 0.930 . S
H1082 C1092 0.930 . S
H1083 C1095 0.929 . S
H1084 C1098 0.930 . S
H1085 C1100 0.960 . S
H1086 C1100 0.960 . S
H1087 C1100 0.960 . S
C1088 H1080 0.929 . S
C1088 C1089 1.377 . S
C1088 C1090 1.384 . S
C1089 C1088 1.377 . S
C1089 C1095 1.390 . S
C1090 H1081 0.930 . S
C1090 C1088 1.384 . S
C1090 C1091 1.372 . S
C1091 C1090 1.372 . S
C1091 C1092 1.400 . S
C1091 C1096 1.490 . S
C1092 H1082 0.930 . S
C1092 C1091 1.400 . S
C1092 C1095 1.386 . S
H1093 C1109 0.930 . S
H1094 C1110 0.931 . S
C1095 H1083 0.929 . S
C1095 C1089 1.390 . S
C1095 C1092 1.386 . S
C1096 C1091 1.490 . S
C1096 C1098 1.395 . S
C1096 C1099 1.403 . S
H1097 C1103 0.930 . S
C1098 H1084 0.930 . S
C1098 C1096 1.395 . S
C1098 C1101 1.403 . S
C1099 C1096 1.403 . S
C1099 C1100 1.524 . S
C1099 C1103 1.400 . S
C1100 H1085 0.960 . S
C1100 H1086 0.960 . S
C1100 H1087 0.960 . S
C1100 C1099 1.524 . S
C1101 C1098 1.403 . S
C1101 C1102 1.392 . S
C1101 C1105 1.495 . S
C1102 C1101 1.392 . S
C1102 C1103 1.385 . S
C1102 C1104 1.478 . S
C1103 H1097 0.930 . S
C1103 C1099 1.400 . S
C1103 C1102 1.385 . S
C1104 C1102 1.478 . S
C1104 C1106 1.381 . S
C1104 C1110 1.383 . S
C1105 C1101 1.495 . S
C1105 H1111 0.959 . S
C1105 H1112 0.961 . S
C1105 H1113 0.960 . S
C1106 C1104 1.381 . S
C1106 C1107 1.394 . S
C1106 H1114 0.930 . S
C1107 C1106 1.394 . S
C1107 C1108 1.383 . S
C1107 H1115 0.929 . S
C1108 C1107 1.383 . S
C1108 C1109 1.377 . S
C1109 H1093 0.930 . S
C1109 C1108 1.377 . S
C1109 C1110 1.379 . S
C1110 H1094 0.931 . S
C1110 C1104 1.383 . S
C1110 C1109 1.379 . S
H1111 C1105 0.959 . S
H1112 C1105 0.961 . S
H1113 C1105 0.960 . S
H1114 C1106 0.930 . S
H1115 C1107 0.929 . S
H1116 C1124 0.929 . S
H1117 C1126 0.930 . S
H1118 C1128 0.930 . S
H1119 C1131 0.929 . S
H1120 C1134 0.930 . S
H1121 C1136 0.960 . S
H1122 C1136 0.960 . S
H1123 C1136 0.960 1_565 S
C1124 H1116 0.929 . S
C1124 C1125 1.377 . S
C1124 C1126 1.384 . S
C1125 C1124 1.377 . S
C1125 C1131 1.390 . S
C1126 H1117 0.930 . S
C1126 C1124 1.384 . S
C1126 C1127 1.372 . S
C1127 C1126 1.372 . S
C1127 C1128 1.400 . S
C1127 C1132 1.490 . S
C1128 H1118 0.930 . S
C1128 C1127 1.400 . S
C1128 C1131 1.386 . S
H1129 C1145 0.930 . S
H1130 C1146 0.931 . S
C1131 H1119 0.929 . S
C1131 C1125 1.390 . S
C1131 C1128 1.386 . S
C1132 C1127 1.490 . S
C1132 C1134 1.395 1_556 S
C1132 C1135 1.403 1_565 S
H1133 C1139 0.930 . S
C1134 H1120 0.930 . S
C1134 C1132 1.395 1_554 S
C1134 C1137 1.403 . S
C1135 C1132 1.403 1_545 S
C1135 C1136 1.524 . S
C1135 C1139 1.400 1_556 S
C1136 H1121 0.960 . S
C1136 H1122 0.960 . S
C1136 H1123 0.960 1_545 S
C1136 C1135 1.524 . S
C1137 C1134 1.403 . S
C1137 C1138 1.392 1_565 S
C1137 C1141 1.495 . S
C1138 C1137 1.392 1_545 S
C1138 C1139 1.385 . S
C1138 C1140 1.478 . S
C1139 H1133 0.930 . S
C1139 C1135 1.400 1_554 S
C1139 C1138 1.385 . S
C1140 C1138 1.478 . S
C1140 C1142 1.381 . S
C1140 C1146 1.383 . S
C1141 C1137 1.495 . S
C1141 H1147 0.959 . S
C1141 H1148 0.961 . S
C1141 H1149 0.960 1_565 S
C1142 C1140 1.381 . S
C1142 C1143 1.394 . S
C1142 H1150 0.930 . S
C1143 C1142 1.394 . S
C1143 C1144 1.383 . S
C1143 H1151 0.929 . S
C1144 C1143 1.383 . S
C1144 C1145 1.377 . S
C1145 H1129 0.930 . S
C1145 C1144 1.377 . S
C1145 C1146 1.379 . S
C1146 H1130 0.931 . S
C1146 C1140 1.383 . S
C1146 C1145 1.379 . S
H1147 C1141 0.959 . S
H1148 C1141 0.961 . S
H1149 C1141 0.960 1_545 S
H1150 C1142 0.930 . S
H1151 C1143 0.929 . S
H1152 C1160 0.929 . S
H1153 C1162 0.930 . S
H1154 C1164 0.930 . S
H1155 C1167 0.929 . S
H1156 C1170 0.930 . S
H1157 C1172 0.951 1_455 S
H1158 C1172 0.960 . S
H1159 C1172 0.960 . S
C1160 H1152 0.929 . S
C1160 C1161 1.377 . S
C1160 C1162 1.384 . S
C1161 C1160 1.377 . S
C1161 C1167 1.390 . S
C1162 H1153 0.930 . S
C1162 C1160 1.384 . S
C1162 C1163 1.372 . S
C1163 C1162 1.372 . S
C1163 C1164 1.400 . S
C1163 C1168 1.490 . S
C1164 H1154 0.930 . S
C1164 C1163 1.400 . S
C1164 C1167 1.386 . S
H1165 C1181 0.930 . S
H1166 C1182 0.931 . S
C1167 H1155 0.929 . S
C1167 C1161 1.390 . S
C1167 C1164 1.386 . S
C1168 C1163 1.490 . S
C1168 C1170 1.395 . S
C1168 C1171 1.403 . S
H1169 C1175 0.930 . S
C1170 H1156 0.930 . S
C1170 C1168 1.395 . S
C1170 C1173 1.403 1_654 S
C1171 C1168 1.403 . S
C1171 C1172 1.524 . S
C1171 C1175 1.400 1_654 S
C1172 H1157 0.951 1_655 S
C1172 H1158 0.960 . S
C1172 H1159 0.960 . S
C1172 C1171 1.524 . S
C1173 C1170 1.403 1_456 S
C1173 C1174 1.392 . S
C1173 C1177 1.495 . S
C1174 C1173 1.392 . S
C1174 C1175 1.385 . S
C1174 C1176 1.478 . S
C1175 H1169 0.930 . S
C1175 C1171 1.400 1_456 S
C1175 C1174 1.385 . S
C1176 C1174 1.478 . S
C1176 C1178 1.381 . S
C1176 C1182 1.383 . S
C1177 C1173 1.495 . S
C1177 H1183 0.969 . S
C1177 H1184 0.961 . S
C1177 H1185 0.960 . S
C1178 C1176 1.381 . S
C1178 C1179 1.394 . S
C1178 H1186 0.930 . S
C1179 C1178 1.394 . S
C1179 C1180 1.383 . S
C1179 H1187 0.929 . S
C1180 C1179 1.383 . S
C1180 C1181 1.377 . S
C1181 H1165 0.930 . S
C1181 C1180 1.377 . S
C1181 C1182 1.379 . S
C1182 H1166 0.931 . S
C1182 C1176 1.383 . S
C1182 C1181 1.379 . S
H1183 C1177 0.969 . S
H1184 C1177 0.961 . S
H1185 C1177 0.960 . S
H1186 C1178 0.930 . S
H1187 C1179 0.929 . S
H1188 C1196 0.929 . S
H1189 C1198 0.930 . S
H1190 C1200 0.930 . S
H1191 C1203 0.929 . S
H1192 C1206 0.930 . S
H1193 C1208 0.960 . S
H1194 C1208 0.960 . S
H1195 C1208 0.960 . S
C1196 H1188 0.929 . S
C1196 C1197 1.377 . S
C1196 C1198 1.384 . S
C1197 C1196 1.377 . S
C1197 C1203 1.390 . S
C1198 H1189 0.930 . S
C1198 C1196 1.384 . S
C1198 C1199 1.372 . S
C1199 C1198 1.372 . S
C1199 C1200 1.400 . S
C1199 C1204 1.490 . S
C1200 H1190 0.930 . S
C1200 C1199 1.400 . S
C1200 C1203 1.386 . S
H1201 C1217 0.930 . S
H1202 C1218 0.931 . S
C1203 H1191 0.929 . S
C1203 C1197 1.390 . S
C1203 C1200 1.386 . S
C1204 C1199 1.490 . S
C1204 C1206 1.395 1_556 S
C1204 C1207 1.403 . S
H1205 C1211 0.930 1_556 S
C1206 H1192 0.930 . S
C1206 C1204 1.395 1_554 S
C1206 C1209 1.403 . S
C1207 C1204 1.403 . S
C1207 C1208 1.524 . S
C1207 C1211 1.395 1_556 S
C1208 H1193 0.960 . S
C1208 H1194 0.960 . S
C1208 H1195 0.960 . S
C1208 C1207 1.524 . S
C1209 C1206 1.403 . S
C1209 C1210 1.392 . S
C1209 C1213 1.495 . S
C1210 C1209 1.392 . S
C1210 C1211 1.390 . S
C1210 C1212 1.478 . S
C1211 H1205 0.930 1_554 S
C1211 C1207 1.395 1_554 S
C1211 C1210 1.390 . S
C1212 C1210 1.478 . S
C1212 C1214 1.381 . S
C1212 C1218 1.383 . S
C1213 C1209 1.495 . S
C1213 H1219 0.959 . S
C1213 H1220 0.961 . S
C1213 H1221 0.960 . S
C1214 C1212 1.381 . S
C1214 C1215 1.394 . S
C1214 H1222 0.930 . S
C1215 C1214 1.394 . S
C1215 C1216 1.383 . S
C1215 H1223 0.929 . S
C1216 C1215 1.383 . S
C1216 C1217 1.377 . S
C1217 H1201 0.930 . S
C1217 C1216 1.377 . S
C1217 C1218 1.379 . S
C1218 H1202 0.931 . S
C1218 C1212 1.383 . S
C1218 C1217 1.379 . S
H1219 C1213 0.959 . S
H1220 C1213 0.961 . S
H1221 C1213 0.960 . S
H1222 C1214 0.930 . S
H1223 C1215 0.929 . S
H1224 C1232 0.929 . S
H1225 C1234 0.930 . S
H1226 C1236 0.930 . S
H1227 C1239 0.929 . S
H1228 C1242 0.930 . S
H1229 C1244 0.960 1_545 S
H1230 C1244 0.960 . S
H1231 C1244 0.966 . S
C1232 H1224 0.929 . S
C1232 C1233 1.377 . S
C1232 C1234 1.384 . S
C1233 C1232 1.377 . S
C1233 C1239 1.390 . S
C1234 H1225 0.930 . S
C1234 C1232 1.384 . S
C1234 C1235 1.372 . S
C1235 C1234 1.372 . S
C1235 C1236 1.400 . S
C1235 C1240 1.490 . S
C1236 H1226 0.930 . S
C1236 C1235 1.400 . S
C1236 C1239 1.386 . S
H1237 C1253 0.930 . S
H1238 C1254 0.931 . S
C1239 H1227 0.929 . S
C1239 C1233 1.390 . S
C1239 C1236 1.386 . S
C1240 C1235 1.490 . S
C1240 C1242 1.395 . S
C1240 C1243 1.403 . S
H1241 C1247 0.930 . S
C1242 H1228 0.930 . S
C1242 C1240 1.395 . S
C1242 C1245 1.397 1_556 S
C1243 C1240 1.403 . S
C1243 C1244 1.524 . S
C1243 C1247 1.400 1_566 S
C1244 H1229 0.960 1_565 S
C1244 H1230 0.960 . S
C1244 H1231 0.966 . S
C1244 C1243 1.524 . S
C1245 C1242 1.397 1_554 S
C1245 C1246 1.403 1_565 S
C1245 C1249 1.507 1_565 S
C1246 C1245 1.403 1_545 S
C1246 C1247 1.385 . S
C1246 C1248 1.478 . S
C1247 H1241 0.930 . S
C1247 C1243 1.400 1_544 S
C1247 C1246 1.385 . S
C1248 C1246 1.478 . S
C1248 C1250 1.381 . S
C1248 C1254 1.383 . S
C1249 C1245 1.507 1_545 S
C1249 H1255 0.922 1_545 S
C1249 H1256 0.984 . S
C1249 H1257 0.967 1_545 S
C1250 C1248 1.381 . S
C1250 C1251 1.394 . S
C1250 H1258 0.930 . S
C1251 C1250 1.394 . S
C1251 C1252 1.383 . S
C1251 H1259 0.929 . S
C1252 C1251 1.383 . S
C1252 C1253 1.377 . S
C1253 H1237 0.930 . S
C1253 C1252 1.377 . S
C1253 C1254 1.379 . S
C1254 H1238 0.931 . S
C1254 C1248 1.383 . S
C1254 C1253 1.379 . S
H1255 C1249 0.922 1_565 S
H1256 C1249 0.984 . S
H1257 C1249 0.967 1_565 S
H1258 C1250 0.930 . S
H1259 C1251 0.929 . S
H1260 C1268 0.929 . S
H1261 C1270 0.930 . S
H1262 C1272 0.930 . S
H1263 C1275 0.929 . S
H1264 C1278 0.930 . S
H1265 C1280 0.960 . S
H1266 C1280 0.960 1_556 S
H1267 C1280 0.960 . S
C1268 H1260 0.929 . S
C1268 C1269 1.377 . S
C1268 C1270 1.384 . S
C1269 C1268 1.377 . S
C1269 C1275 1.390 . S
C1270 H1261 0.930 . S
C1270 C1268 1.384 . S
C1270 C1271 1.372 . S
C1271 C1270 1.372 . S
C1271 C1272 1.400 . S
C1271 C1276 1.490 . S
C1272 H1262 0.930 . S
C1272 C1271 1.400 . S
C1272 C1275 1.386 . S
H1273 C1289 0.930 . S
H1274 C1290 0.931 . S
C1275 H1263 0.929 . S
C1275 C1269 1.390 . S
C1275 C1272 1.386 . S
C1276 C1271 1.490 . S
C1276 C1278 1.395 1_455 S
C1276 C1279 1.403 1_556 S
H1277 C1283 0.941 1_455 S
C1278 H1264 0.930 . S
C1278 C1276 1.395 1_655 S
C1278 C1281 1.403 . S
C1279 C1276 1.403 1_554 S
C1279 C1280 1.524 . S
C1279 C1283 1.388 1_455 S
C1280 H1265 0.960 . S
C1280 H1266 0.960 1_554 S
C1280 H1267 0.960 . S
C1280 C1279 1.524 . S
C1281 C1278 1.403 . S
C1281 C1282 1.392 1_556 S
C1281 C1285 1.495 . S
C1282 C1281 1.392 1_554 S
C1282 C1283 1.393 . S
C1282 C1284 1.478 . S
C1283 H1277 0.941 1_655 S
C1283 C1279 1.388 1_655 S
C1283 C1282 1.393 . S
C1284 C1282 1.478 . S
C1284 C1286 1.381 . S
C1284 C1290 1.383 . S
C1285 C1281 1.495 . S
C1285 H1291 0.959 . S
C1285 H1292 0.961 1_556 S
C1285 H1293 0.960 . S
C1286 C1284 1.381 . S
C1286 C1287 1.394 . S
C1286 H1294 0.930 . S
C1287 C1286 1.394 . S
C1287 C1288 1.383 . S
C1287 H1295 0.929 . S
C1288 C1287 1.383 . S
C1288 C1289 1.377 . S
C1289 H1273 0.930 . S
C1289 C1288 1.377 . S
C1289 C1290 1.379 . S
C1290 H1274 0.931 . S
C1290 C1284 1.383 . S
C1290 C1289 1.379 . S
H1291 C1285 0.959 . S
H1292 C1285 0.961 1_554 S
H1293 C1285 0.960 . S
H1294 C1286 0.930 . S
H1295 C1287 0.929 . S
H1296 C1304 0.929 . S
H1297 C1306 0.930 . S
H1298 C1308 0.930 . S
H1299 C1311 0.929 . S
H1300 C1314 0.930 . S
H1301 C1316 0.960 1_556 S
H1302 C1316 0.960 . S
H1303 C1316 0.960 . S
C1304 H1296 0.929 . S
C1304 C1305 1.377 . S
C1304 C1306 1.384 . S
C1305 C1304 1.377 . S
C1305 C1311 1.390 . S
C1306 H1297 0.930 . S
C1306 C1304 1.384 . S
C1306 C1307 1.372 . S
C1307 C1306 1.372 . S
C1307 C1308 1.400 . S
C1307 C1312 1.490 . S
C1308 H1298 0.930 . S
C1308 C1307 1.400 . S
C1308 C1311 1.386 . S
H1309 C1325 0.930 . S
H1310 C1326 0.931 . S
C1311 H1299 0.929 . S
C1311 C1305 1.390 . S
C1311 C1308 1.386 . S
C1312 C1307 1.490 . S
C1312 C1314 1.395 . S
C1312 C1315 1.403 . S
H1313 C1319 0.930 . S
C1314 H1300 0.930 . S
C1314 C1312 1.395 . S
C1314 C1317 1.403 1_554 S
C1315 C1312 1.403 . S
C1315 C1316 1.524 . S
C1315 C1319 1.400 1_554 S
C1316 H1301 0.960 1_554 S
C1316 H1302 0.960 . S
C1316 H1303 0.960 . S
C1316 C1315 1.524 . S
C1317 C1314 1.403 1_556 S
C1317 C1318 1.392 . S
C1317 C1321 1.495 . S
C1318 C1317 1.392 . S
C1318 C1319 1.385 . S
C1318 C1320 1.478 . S
C1319 H1313 0.930 . S
C1319 C1315 1.400 1_556 S
C1319 C1318 1.385 . S
C1320 C1318 1.478 . S
C1320 C1322 1.381 . S
C1320 C1326 1.383 . S
C1321 C1317 1.495 . S
C1321 H1327 0.959 1_556 S
C1321 H1328 0.961 . S
C1321 H1329 0.960 . S
C1322 C1320 1.381 . S
C1322 C1323 1.394 . S
C1322 H1330 0.930 . S
C1323 C1322 1.394 . S
C1323 C1324 1.383 . S
C1323 H1331 0.929 . S
C1324 C1323 1.383 . S
C1324 C1325 1.377 . S
C1325 H1309 0.930 . S
C1325 C1324 1.377 . S
C1325 C1326 1.379 . S
C1326 H1310 0.931 . S
C1326 C1320 1.383 . S
C1326 C1325 1.379 . S
H1327 C1321 0.959 1_554 S
H1328 C1321 0.961 . S
H1329 C1321 0.960 . S
H1330 C1322 0.930 . S
H1331 C1323 0.929 . S
H1332 C1340 0.929 . S
H1333 C1342 0.930 . S
H1334 C1344 0.930 . S
H1335 C1347 0.929 . S
H1336 C1350 0.930 . S
H1337 C1352 0.960 . S
H1338 C1352 0.960 . S
H1339 C1352 0.960 . S
C1340 H1332 0.929 . S
C1340 C1341 1.377 . S
C1340 C1342 1.384 . S
C1341 C1340 1.377 . S
C1341 C1347 1.390 . S
C1342 H1333 0.930 . S
C1342 C1340 1.384 . S
C1342 C1343 1.372 . S
C1343 C1342 1.372 . S
C1343 C1344 1.400 . S
C1343 C1348 1.490 . S
C1344 H1334 0.930 . S
C1344 C1343 1.400 . S
C1344 C1347 1.386 . S
H1345 C1361 0.930 . S
H1346 C1362 0.931 . S
C1347 H1335 0.929 . S
C1347 C1341 1.390 . S
C1347 C1344 1.386 . S
C1348 C1343 1.490 . S
C1348 C1350 1.395 . S
C1348 C1351 1.403 . S
H1349 C1355 0.930 . S
C1350 H1336 0.930 . S
C1350 C1348 1.395 . S
C1350 C1353 1.403 . S
C1351 C1348 1.403 . S
C1351 C1352 1.524 . S
C1351 C1355 1.400 . S
C1352 H1337 0.960 . S
C1352 H1338 0.960 . S
C1352 H1339 0.960 . S
C1352 C1351 1.524 . S
C1353 C1350 1.403 . S
C1353 C1354 1.392 . S
C1353 C1357 1.495 . S
C1354 C1353 1.392 . S
C1354 C1355 1.385 . S
C1354 C1356 1.478 . S
C1355 H1349 0.930 . S
C1355 C1351 1.400 . S
C1355 C1354 1.385 . S
C1356 C1354 1.478 . S
C1356 C1358 1.381 . S
C1356 C1362 1.383 . S
C1357 C1353 1.495 . S
C1357 H1363 0.959 . S
C1357 H1364 0.961 . S
C1357 H1365 0.960 . S
C1358 C1356 1.381 . S
C1358 C1359 1.394 . S
C1358 H1366 0.930 . S
C1359 C1358 1.394 . S
C1359 C1360 1.383 . S
C1359 H1367 0.929 . S
C1360 C1359 1.383 . S
C1360 C1361 1.377 . S
C1361 H1345 0.930 . S
C1361 C1360 1.377 . S
C1361 C1362 1.379 . S
C1362 H1346 0.931 . S
C1362 C1356 1.383 . S
C1362 C1361 1.379 . S
H1363 C1357 0.959 . S
H1364 C1357 0.961 . S
H1365 C1357 0.960 . S
H1366 C1358 0.930 . S
H1367 C1359 0.929 . S
H1368 C1376 0.929 . S
H1369 C1378 0.930 . S
H1370 C1380 0.930 . S
H1371 C1383 0.929 . S
H1372 C1386 0.930 . S
H1373 C1388 0.960 . S
H1374 C1388 0.960 . S
H1375 C1388 0.960 . S
C1376 H1368 0.929 . S
C1376 C1377 1.377 . S
C1376 C1378 1.384 . S
C1377 C1376 1.377 . S
C1377 C1383 1.390 . S
C1378 H1369 0.930 . S
C1378 C1376 1.384 . S
C1378 C1379 1.372 . S
C1379 C1378 1.372 . S
C1379 C1380 1.400 . S
C1379 C1384 1.490 . S
C1380 H1370 0.930 . S
C1380 C1379 1.400 . S
C1380 C1383 1.386 . S
H1381 C1397 0.930 . S
H1382 C1398 0.931 . S
C1383 H1371 0.929 . S
C1383 C1377 1.390 . S
C1383 C1380 1.386 . S
C1384 C1379 1.490 . S
C1384 C1386 1.395 . S
C1384 C1387 1.403 . S
H1385 C1391 0.930 . S
C1386 H1372 0.930 . S
C1386 C1384 1.395 . S
C1386 C1389 1.403 . S
C1387 C1384 1.403 . S
C1387 C1388 1.524 . S
C1387 C1391 1.400 . S
C1388 H1373 0.960 . S
C1388 H1374 0.960 . S
C1388 H1375 0.960 . S
C1388 C1387 1.524 . S
C1389 C1386 1.403 . S
C1389 C1390 1.392 . S
C1389 C1393 1.495 . S
C1390 C1389 1.392 . S
C1390 C1391 1.385 . S
C1390 C1392 1.478 . S
C1391 H1385 0.930 . S
C1391 C1387 1.400 . S
C1391 C1390 1.385 . S
C1392 C1390 1.478 . S
C1392 C1394 1.381 . S
C1392 C1398 1.383 . S
C1393 C1389 1.495 . S
C1393 H1399 0.959 . S
C1393 H1400 0.961 . S
C1393 H1401 0.960 . S
C1394 C1392 1.381 . S
C1394 C1395 1.394 . S
C1394 H1402 0.930 . S
C1395 C1394 1.394 . S
C1395 C1396 1.383 . S
C1395 H1403 0.929 . S
C1396 C1395 1.383 . S
C1396 C1397 1.377 . S
C1397 H1381 0.930 . S
C1397 C1396 1.377 . S
C1397 C1398 1.379 . S
C1398 H1382 0.931 . S
C1398 C1392 1.383 . S
C1398 C1397 1.379 . S
H1399 C1393 0.959 . S
H1400 C1393 0.961 . S
H1401 C1393 0.960 . S
H1402 C1394 0.930 . S
H1403 C1395 0.929 . S
H1404 C1412 0.929 . S
H1405 C1414 0.930 . S
H1406 C1416 0.930 . S
H1407 C1419 0.929 . S
H1408 C1422 0.930 . S
H1409 C1424 0.960 . S
H1410 C1424 0.960 . S
H1411 C1424 0.960 . S
C1412 H1404 0.929 . S
C1412 C1413 1.377 . S
C1412 C1414 1.384 . S
C1413 C1412 1.377 . S
C1413 C1419 1.390 . S
C1414 H1405 0.930 . S
C1414 C1412 1.384 . S
C1414 C1415 1.372 . S
C1415 C1414 1.372 . S
C1415 C1416 1.400 . S
C1415 C1420 1.490 . S
C1416 H1406 0.930 . S
C1416 C1415 1.400 . S
C1416 C1419 1.386 . S
H1417 C1433 0.930 . S
H1418 C1434 0.931 . S
C1419 H1407 0.929 . S
C1419 C1413 1.390 . S
C1419 C1416 1.386 . S
C1420 C1415 1.490 . S
C1420 C1422 1.395 . S
C1420 C1423 1.403 . S
H1421 C1427 0.930 . S
C1422 H1408 0.930 . S
C1422 C1420 1.395 . S
C1422 C1425 1.403 . S
C1423 C1420 1.403 . S
C1423 C1424 1.524 . S
C1423 C1427 1.400 . S
C1424 H1409 0.960 . S
C1424 H1410 0.960 . S
C1424 H1411 0.960 . S
C1424 C1423 1.524 . S
C1425 C1422 1.403 . S
C1425 C1426 1.392 . S
C1425 C1429 1.495 . S
C1426 C1425 1.392 . S
C1426 C1427 1.385 . S
C1426 C1428 1.478 . S
C1427 H1421 0.930 . S
C1427 C1423 1.400 . S
C1427 C1426 1.385 . S
C1428 C1426 1.478 . S
C1428 C1430 1.381 . S
C1428 C1434 1.383 . S
C1429 C1425 1.495 . S
C1429 H1435 0.959 . S
C1429 H1436 0.961 . S
C1429 H1437 0.960 . S
C1430 C1428 1.381 . S
C1430 C1431 1.394 . S
C1430 H1438 0.930 . S
C1431 C1430 1.394 . S
C1431 C1432 1.383 . S
C1431 H1439 0.929 . S
C1432 C1431 1.383 . S
C1432 C1433 1.377 . S
C1433 H1417 0.930 . S
C1433 C1432 1.377 . S
C1433 C1434 1.379 . S
C1434 H1418 0.931 . S
C1434 C1428 1.383 . S
C1434 C1433 1.379 . S
H1435 C1429 0.959 . S
H1436 C1429 0.961 . S
H1437 C1429 0.960 . S
H1438 C1430 0.930 . S
H1439 C1431 0.929 . S
H1440 C1448 0.929 . S
H1441 C1450 0.930 . S
H1442 C1452 0.930 . S
H1443 C1455 0.929 . S
H1444 C1458 0.930 . S
H1445 C1460 0.960 . S
H1446 C1460 0.960 . S
H1447 C1460 0.960 . S
C1448 H1440 0.929 . S
C1448 C1449 1.377 . S
C1448 C1450 1.384 . S
C1449 C1448 1.377 . S
C1449 C1455 1.390 . S
C1450 H1441 0.930 . S
C1450 C1448 1.384 . S
C1450 C1451 1.372 . S
C1451 C1450 1.372 . S
C1451 C1452 1.400 . S
C1451 C1456 1.490 . S
C1452 H1442 0.930 . S
C1452 C1451 1.400 . S
C1452 C1455 1.386 . S
H1453 C1469 0.930 . S
H1454 C1470 0.931 . S
C1455 H1443 0.929 . S
C1455 C1449 1.390 . S
C1455 C1452 1.386 . S
C1456 C1451 1.490 . S
C1456 C1458 1.395 . S
C1456 C1459 1.403 . S
H1457 C1463 0.930 . S
C1458 H1444 0.930 . S
C1458 C1456 1.395 . S
C1458 C1461 1.403 . S
C1459 C1456 1.403 . S
C1459 C1460 1.524 . S
C1459 C1463 1.400 . S
C1460 H1445 0.960 . S
C1460 H1446 0.960 . S
C1460 H1447 0.960 . S
C1460 C1459 1.524 . S
C1461 C1458 1.403 . S
C1461 C1462 1.392 . S
C1461 C1465 1.495 . S
C1462 C1461 1.392 . S
C1462 C1463 1.385 . S
C1462 C1464 1.478 . S
C1463 H1457 0.930 . S
C1463 C1459 1.400 . S
C1463 C1462 1.385 . S
C1464 C1462 1.478 . S
C1464 C1466 1.381 . S
C1464 C1470 1.383 . S
C1465 C1461 1.495 . S
C1465 H1471 0.959 . S
C1465 H1472 0.961 . S
C1465 H1473 0.960 . S
C1466 C1464 1.381 . S
C1466 C1467 1.394 . S
C1466 H1474 0.930 . S
C1467 C1466 1.394 . S
C1467 C1468 1.383 . S
C1467 H1475 0.929 . S
C1468 C1467 1.383 . S
C1468 C1469 1.377 . S
C1469 H1453 0.930 . S
C1469 C1468 1.377 . S
C1469 C1470 1.379 . S
C1470 H1454 0.931 . S
C1470 C1464 1.383 . S
C1470 C1469 1.379 . S
H1471 C1465 0.959 . S
H1472 C1465 0.961 . S
H1473 C1465 0.960 . S
H1474 C1466 0.930 . S
H1475 C1467 0.929 . S
H1476 C1484 0.929 . S
H1477 C1486 0.930 . S
H1478 C1488 0.930 . S
H1479 C1491 0.929 . S
H1480 C1494 0.930 . S
H1481 C1496 0.960 . S
H1482 C1496 0.960 . S
H1483 C1496 0.960 . S
C1484 H1476 0.929 . S
C1484 C1485 1.377 . S
C1484 C1486 1.384 . S
C1485 C1484 1.377 . S
C1485 C1491 1.390 . S
C1486 H1477 0.930 . S
C1486 C1484 1.384 . S
C1486 C1487 1.372 . S
C1487 C1486 1.372 . S
C1487 C1488 1.400 . S
C1487 C1492 1.490 . S
C1488 H1478 0.930 . S
C1488 C1487 1.400 . S
C1488 C1491 1.386 . S
H1489 C1505 0.930 . S
H1490 C1506 0.931 . S
C1491 H1479 0.929 . S
C1491 C1485 1.390 . S
C1491 C1488 1.386 . S
C1492 C1487 1.490 . S
C1492 C1494 1.395 . S
C1492 C1495 1.403 . S
H1493 C1499 0.930 . S
C1494 H1480 0.930 . S
C1494 C1492 1.395 . S
C1494 C1497 1.403 . S
C1495 C1492 1.403 . S
C1495 C1496 1.524 . S
C1495 C1499 1.400 . S
C1496 H1481 0.960 . S
C1496 H1482 0.960 . S
C1496 H1483 0.960 . S
C1496 C1495 1.524 . S
C1497 C1494 1.403 . S
C1497 C1498 1.392 . S
C1497 C1501 1.495 . S
C1498 C1497 1.392 . S
C1498 C1499 1.385 . S
C1498 C1500 1.478 . S
C1499 H1493 0.930 . S
C1499 C1495 1.400 . S
C1499 C1498 1.385 . S
C1500 C1498 1.478 . S
C1500 C1502 1.381 . S
C1500 C1506 1.383 . S
C1501 C1497 1.495 . S
C1501 H1507 0.959 . S
C1501 H1508 0.961 . S
C1501 H1509 0.960 . S
C1502 C1500 1.381 . S
C1502 C1503 1.394 . S
C1502 H1510 0.930 . S
C1503 C1502 1.394 . S
C1503 C1504 1.383 . S
C1503 H1511 0.929 . S
C1504 C1503 1.383 . S
C1504 C1505 1.377 . S
C1505 H1489 0.930 . S
C1505 C1504 1.377 . S
C1505 C1506 1.379 . S
C1506 H1490 0.931 . S
C1506 C1500 1.383 . S
C1506 C1505 1.379 . S
H1507 C1501 0.959 . S
H1508 C1501 0.961 . S
H1509 C1501 0.960 . S
H1510 C1502 0.930 . S
H1511 C1503 0.929 . S
H1512 C1520 0.929 . S
H1513 C1522 0.930 . S
H1514 C1524 0.930 . S
H1515 C1527 0.929 . S
H1516 C1530 0.930 . S
H1517 C1532 0.960 . S
H1518 C1532 0.960 . S
H1519 C1532 0.960 . S
C1520 H1512 0.929 . S
C1520 C1521 1.377 . S
C1520 C1522 1.384 . S
C1521 C1520 1.377 . S
C1521 C1527 1.390 . S
C1522 H1513 0.930 . S
C1522 C1520 1.384 . S
C1522 C1523 1.372 . S
C1523 C1522 1.372 . S
C1523 C1524 1.400 . S
C1523 C1528 1.490 . S
C1524 H1514 0.930 . S
C1524 C1523 1.400 . S
C1524 C1527 1.386 . S
H1525 C1541 0.930 . S
H1526 C1542 0.931 . S
C1527 H1515 0.929 . S
C1527 C1521 1.390 . S
C1527 C1524 1.386 . S
C1528 C1523 1.490 . S
C1528 C1530 1.395 . S
C1528 C1531 1.403 . S
H1529 C1535 0.930 . S
C1530 H1516 0.930 . S
C1530 C1528 1.395 . S
C1530 C1533 1.403 . S
C1531 C1528 1.403 . S
C1531 C1532 1.524 . S
C1531 C1535 1.400 . S
C1532 H1517 0.960 . S
C1532 H1518 0.960 . S
C1532 H1519 0.960 . S
C1532 C1531 1.524 . S
C1533 C1530 1.403 . S
C1533 C1534 1.392 . S
C1533 C1537 1.495 . S
C1534 C1533 1.392 . S
C1534 C1535 1.385 . S
C1534 C1536 1.478 . S
C1535 H1529 0.930 . S
C1535 C1531 1.400 . S
C1535 C1534 1.385 . S
C1536 C1534 1.478 . S
C1536 C1538 1.381 . S
C1536 C1542 1.383 . S
C1537 C1533 1.495 . S
C1537 H1543 0.959 . S
C1537 H1544 0.961 . S
C1537 H1545 0.960 . S
C1538 C1536 1.381 . S
C1538 C1539 1.394 . S
C1538 H1546 0.930 . S
C1539 C1538 1.394 . S
C1539 C1540 1.383 . S
C1539 H1547 0.929 . S
C1540 C1539 1.383 . S
C1540 C1541 1.377 . S
C1541 H1525 0.930 . S
C1541 C1540 1.377 . S
C1541 C1542 1.379 . S
C1542 H1526 0.931 . S
C1542 C1536 1.383 . S
C1542 C1541 1.379 . S
H1543 C1537 0.959 . S
H1544 C1537 0.961 . S
H1545 C1537 0.960 . S
H1546 C1538 0.930 . S
H1547 C1539 0.929 . S
H1548 C1556 0.929 . S
H1549 C1558 0.930 . S
H1550 C1560 0.930 . S
H1551 C1563 0.929 . S
H1552 C1566 0.930 . S
H1553 C1568 0.960 . S
H1554 C1568 0.960 . S
H1555 C1568 0.960 . S
C1556 H1548 0.929 . S
C1556 C1557 1.377 . S
C1556 C1558 1.384 . S
C1557 C1556 1.377 . S
C1557 C1563 1.390 . S
C1558 H1549 0.930 . S
C1558 C1556 1.384 . S
C1558 C1559 1.372 . S
C1559 C1558 1.372 . S
C1559 C1560 1.400 . S
C1559 C1564 1.490 . S
C1560 H1550 0.930 . S
C1560 C1559 1.400 . S
C1560 C1563 1.386 . S
H1561 C1577 0.930 . S
H1562 C1578 0.931 . S
C1563 H1551 0.929 . S
C1563 C1557 1.390 . S
C1563 C1560 1.386 . S
C1564 C1559 1.490 . S
C1564 C1566 1.395 . S
C1564 C1567 1.403 . S
H1565 C1571 0.930 . S
C1566 H1552 0.930 . S
C1566 C1564 1.395 . S
C1566 C1569 1.403 . S
C1567 C1564 1.403 . S
C1567 C1568 1.524 . S
C1567 C1571 1.400 . S
C1568 H1553 0.960 . S
C1568 H1554 0.960 . S
C1568 H1555 0.960 . S
C1568 C1567 1.524 . S
C1569 C1566 1.403 . S
C1569 C1570 1.392 . S
C1569 C1573 1.495 . S
C1570 C1569 1.392 . S
C1570 C1571 1.385 . S
C1570 C1572 1.478 . S
C1571 H1565 0.930 . S
C1571 C1567 1.400 . S
C1571 C1570 1.385 . S
C1572 C1570 1.478 . S
C1572 C1574 1.381 . S
C1572 C1578 1.383 . S
C1573 C1569 1.495 . S
C1573 H1579 0.959 . S
C1573 H1580 0.961 . S
C1573 H1581 0.960 . S
C1574 C1572 1.381 . S
C1574 C1575 1.394 . S
C1574 H1582 0.930 . S
C1575 C1574 1.394 . S
C1575 C1576 1.383 . S
C1575 H1583 0.929 . S
C1576 C1575 1.383 . S
C1576 C1577 1.377 . S
C1577 H1561 0.930 . S
C1577 C1576 1.377 . S
C1577 C1578 1.379 . S
C1578 H1562 0.931 . S
C1578 C1572 1.383 . S
C1578 C1577 1.379 . S
H1579 C1573 0.959 . S
H1580 C1573 0.961 . S
H1581 C1573 0.960 . S
H1582 C1574 0.930 . S
H1583 C1575 0.929 . S
H1584 C1592 0.929 . S
H1585 C1594 0.930 . S
H1586 C1596 0.930 . S
H1587 C1599 0.929 . S
H1588 C1602 0.930 . S
H1589 C1604 0.960 . S
H1590 C1604 0.960 . S
H1591 C1604 0.960 . S
C1592 H1584 0.929 . S
C1592 C1593 1.377 . S
C1592 C1594 1.384 . S
C1593 C1592 1.377 . S
C1593 C1599 1.390 . S
C1594 H1585 0.930 . S
C1594 C1592 1.384 . S
C1594 C1595 1.372 . S
C1595 C1594 1.372 . S
C1595 C1596 1.400 . S
C1595 C1600 1.490 . S
C1596 H1586 0.930 . S
C1596 C1595 1.400 . S
C1596 C1599 1.386 . S
H1597 C1613 0.930 . S
H1598 C1614 0.931 . S
C1599 H1587 0.929 . S
C1599 C1593 1.390 . S
C1599 C1596 1.386 . S
C1600 C1595 1.490 . S
C1600 C1602 1.395 . S
C1600 C1603 1.403 . S
H1601 C1607 0.930 . S
C1602 H1588 0.930 . S
C1602 C1600 1.395 . S
C1602 C1605 1.403 . S
C1603 C1600 1.403 . S
C1603 C1604 1.524 . S
C1603 C1607 1.400 . S
C1604 H1589 0.960 . S
C1604 H1590 0.960 . S
C1604 H1591 0.960 . S
C1604 C1603 1.524 . S
C1605 C1602 1.403 . S
C1605 C1606 1.392 . S
C1605 C1609 1.495 . S
C1606 C1605 1.392 . S
C1606 C1607 1.385 . S
C1606 C1608 1.478 . S
C1607 H1601 0.930 . S
C1607 C1603 1.400 . S
C1607 C1606 1.385 . S
C1608 C1606 1.478 . S
C1608 C1610 1.381 . S
C1608 C1614 1.383 . S
C1609 C1605 1.495 . S
C1609 H1615 0.959 . S
C1609 H1616 0.961 . S
C1609 H1617 0.960 . S
C1610 C1608 1.381 . S
C1610 C1611 1.394 . S
C1610 H1618 0.930 . S
C1611 C1610 1.394 . S
C1611 C1612 1.383 . S
C1611 H1619 0.929 . S
C1612 C1611 1.383 . S
C1612 C1613 1.377 . S
C1613 H1597 0.930 . S
C1613 C1612 1.377 . S
C1613 C1614 1.379 . S
C1614 H1598 0.931 . S
C1614 C1608 1.383 . S
C1614 C1613 1.379 . S
H1615 C1609 0.959 . S
H1616 C1609 0.961 . S
H1617 C1609 0.960 . S
H1618 C1610 0.930 . S
H1619 C1611 0.929 . S
H1620 C1628 0.929 . S
H1621 C1630 0.930 . S
H1622 C1632 0.930 . S
H1623 C1635 0.929 . S
H1624 C1638 0.930 . S
H1625 C1640 0.960 . S
H1626 C1640 0.960 . S
H1627 C1640 0.960 . S
C1628 H1620 0.929 . S
C1628 C1629 1.377 . S
C1628 C1630 1.384 . S
C1629 C1628 1.377 . S
C1629 C1635 1.390 . S
C1630 H1621 0.930 . S
C1630 C1628 1.384 . S
C1630 C1631 1.372 . S
C1631 C1630 1.372 . S
C1631 C1632 1.400 . S
C1631 C1636 1.490 . S
C1632 H1622 0.930 . S
C1632 C1631 1.400 . S
C1632 C1635 1.386 . S
H1633 C1649 0.930 . S
H1634 C1650 0.931 . S
C1635 H1623 0.929 . S
C1635 C1629 1.390 . S
C1635 C1632 1.386 . S
C1636 C1631 1.490 . S
C1636 C1638 1.395 . S
C1636 C1639 1.403 . S
H1637 C1643 0.930 . S
C1638 H1624 0.930 . S
C1638 C1636 1.395 . S
C1638 C1641 1.403 . S
C1639 C1636 1.403 . S
C1639 C1640 1.524 . S
C1639 C1643 1.400 . S
C1640 H1625 0.960 . S
C1640 H1626 0.960 . S
C1640 H1627 0.960 . S
C1640 C1639 1.524 . S
C1641 C1638 1.403 . S
C1641 C1642 1.392 . S
C1641 C1645 1.495 . S
C1642 C1641 1.392 . S
C1642 C1643 1.385 . S
C1642 C1644 1.478 . S
C1643 H1637 0.930 . S
C1643 C1639 1.400 . S
C1643 C1642 1.385 . S
C1644 C1642 1.478 . S
C1644 C1646 1.381 . S
C1644 C1650 1.383 . S
C1645 C1641 1.495 . S
C1645 H1651 0.959 . S
C1645 H1652 0.961 . S
C1645 H1653 0.960 . S
C1646 C1644 1.381 . S
C1646 C1647 1.394 . S
C1646 H1654 0.930 . S
C1647 C1646 1.394 . S
C1647 C1648 1.383 . S
C1647 H1655 0.929 . S
C1648 C1647 1.383 . S
C1648 C1649 1.377 . S
C1649 H1633 0.930 . S
C1649 C1648 1.377 . S
C1649 C1650 1.379 . S
C1650 H1634 0.931 . S
C1650 C1644 1.383 . S
C1650 C1649 1.379 . S
H1651 C1645 0.959 . S
H1652 C1645 0.961 . S
H1653 C1645 0.960 . S
H1654 C1646 0.930 . S
H1655 C1647 0.929 . S
H1656 C1664 0.929 . S
H1657 C1666 0.930 . S
H1658 C1668 0.930 . S
H1659 C1671 0.929 . S
H1660 C1674 0.930 . S
H1661 C1676 0.960 . S
H1662 C1676 0.960 . S
H1663 C1676 0.960 . S
C1664 H1656 0.929 . S
C1664 C1665 1.377 . S
C1664 C1666 1.384 . S
C1665 C1664 1.377 . S
C1665 C1671 1.390 . S
C1666 H1657 0.930 . S
C1666 C1664 1.384 . S
C1666 C1667 1.372 . S
C1667 C1666 1.372 . S
C1667 C1668 1.400 . S
C1667 C1672 1.490 . S
C1668 H1658 0.930 . S
C1668 C1667 1.400 . S
C1668 C1671 1.386 . S
H1669 C1685 0.930 . S
H1670 C1686 0.931 . S
C1671 H1659 0.929 . S
C1671 C1665 1.390 . S
C1671 C1668 1.386 . S
C1672 C1667 1.490 . S
C1672 C1674 1.395 . S
C1672 C1675 1.403 . S
H1673 C1679 0.930 . S
C1674 H1660 0.930 . S
C1674 C1672 1.395 . S
C1674 C1677 1.403 . S
C1675 C1672 1.403 . S
C1675 C1676 1.524 . S
C1675 C1679 1.400 . S
C1676 H1661 0.960 . S
C1676 H1662 0.960 . S
C1676 H1663 0.960 . S
C1676 C1675 1.524 . S
C1677 C1674 1.403 . S
C1677 C1678 1.392 . S
C1677 C1681 1.495 . S
C1678 C1677 1.392 . S
C1678 C1679 1.385 . S
C1678 C1680 1.478 . S
C1679 H1673 0.930 . S
C1679 C1675 1.400 . S
C1679 C1678 1.385 . S
C1680 C1678 1.478 . S
C1680 C1682 1.381 . S
C1680 C1686 1.383 . S
C1681 C1677 1.495 . S
C1681 H1687 0.959 . S
C1681 H1688 0.961 . S
C1681 H1689 0.960 . S
C1682 C1680 1.381 . S
C1682 C1683 1.394 . S
C1682 H1690 0.930 . S
C1683 C1682 1.394 . S
C1683 C1684 1.383 . S
C1683 H1691 0.929 . S
C1684 C1683 1.383 . S
C1684 C1685 1.377 . S
C1685 H1669 0.930 . S
C1685 C1684 1.377 . S
C1685 C1686 1.379 . S
C1686 H1670 0.931 . S
C1686 C1680 1.383 . S
C1686 C1685 1.379 . S
H1687 C1681 0.959 . S
H1688 C1681 0.961 . S
H1689 C1681 0.960 . S
H1690 C1682 0.930 . S
H1691 C1683 0.929 . S
H1692 C1700 0.929 . S
H1693 C1702 0.930 . S
H1694 C1704 0.930 . S
H1695 C1707 0.929 . S
H1696 C1710 0.930 . S
H1697 C1712 0.960 . S
H1698 C1712 0.960 . S
H1699 C1712 0.960 . S
C1700 H1692 0.929 . S
C1700 C1701 1.377 . S
C1700 C1702 1.384 . S
C1701 C1700 1.377 . S
C1701 C1707 1.390 . S
C1702 H1693 0.930 . S
C1702 C1700 1.384 . S
C1702 C1703 1.372 . S
C1703 C1702 1.372 . S
C1703 C1704 1.400 . S
C1703 C1708 1.490 . S
C1704 H1694 0.930 . S
C1704 C1703 1.400 . S
C1704 C1707 1.386 . S
H1705 C1721 0.930 . S
H1706 C1722 0.931 . S
C1707 H1695 0.929 . S
C1707 C1701 1.390 . S
C1707 C1704 1.386 . S
C1708 C1703 1.490 . S
C1708 C1710 1.395 . S
C1708 C1711 1.403 . S
H1709 C1715 0.930 . S
C1710 H1696 0.930 . S
C1710 C1708 1.395 . S
C1710 C1713 1.403 . S
C1711 C1708 1.403 . S
C1711 C1712 1.524 . S
C1711 C1715 1.400 . S
C1712 H1697 0.960 . S
C1712 H1698 0.960 . S
C1712 H1699 0.960 . S
C1712 C1711 1.524 . S
C1713 C1710 1.403 . S
C1713 C1714 1.392 . S
C1713 C1717 1.495 . S
C1714 C1713 1.392 . S
C1714 C1715 1.385 . S
C1714 C1716 1.478 . S
C1715 H1709 0.930 . S
C1715 C1711 1.400 . S
C1715 C1714 1.385 . S
C1716 C1714 1.478 . S
C1716 C1718 1.381 . S
C1716 C1722 1.383 . S
C1717 C1713 1.495 . S
C1717 H1723 0.959 . S
C1717 H1724 0.961 . S
C1717 H1725 0.960 . S
C1718 C1716 1.381 . S
C1718 C1719 1.394 . S
C1718 H1726 0.930 . S
C1719 C1718 1.394 . S
C1719 C1720 1.383 . S
C1719 H1727 0.929 . S
C1720 C1719 1.383 . S
C1720 C1721 1.377 . S
C1721 H1705 0.930 . S
C1721 C1720 1.377 . S
C1721 C1722 1.379 . S
C1722 H1706 0.931 . S
C1722 C1716 1.383 . S
C1722 C1721 1.379 . S
H1723 C1717 0.959 . S
H1724 C1717 0.961 . S
H1725 C1717 0.960 . S
H1726 C1718 0.930 . S
H1727 C1719 0.929 . S
H1728 C1736 0.929 . S
H1729 C1738 0.930 . S
H1730 C1740 0.930 . S
H1731 C1743 0.929 . S
H1732 C1746 0.930 . S
H1733 C1748 0.960 . S
H1734 C1748 0.960 . S
H1735 C1748 0.960 . S
C1736 H1728 0.929 . S
C1736 C1737 1.377 . S
C1736 C1738 1.384 . S
C1737 C1736 1.377 . S
C1737 C1743 1.390 . S
C1738 H1729 0.930 . S
C1738 C1736 1.384 . S
C1738 C1739 1.372 . S
C1739 C1738 1.372 . S
C1739 C1740 1.400 . S
C1739 C1744 1.490 . S
C1740 H1730 0.930 . S
C1740 C1739 1.400 . S
C1740 C1743 1.386 . S
H1741 C1757 0.930 . S
H1742 C1758 0.931 . S
C1743 H1731 0.929 . S
C1743 C1737 1.390 . S
C1743 C1740 1.386 . S
C1744 C1739 1.490 . S
C1744 C1746 1.395 . S
C1744 C1747 1.403 . S
H1745 C1751 0.930 . S
C1746 H1732 0.930 . S
C1746 C1744 1.395 . S
C1746 C1749 1.403 . S
C1747 C1744 1.403 . S
C1747 C1748 1.524 . S
C1747 C1751 1.400 . S
C1748 H1733 0.960 . S
C1748 H1734 0.960 . S
C1748 H1735 0.960 . S
C1748 C1747 1.524 . S
C1749 C1746 1.403 . S
C1749 C1750 1.392 . S
C1749 C1753 1.495 . S
C1750 C1749 1.392 . S
C1750 C1751 1.385 . S
C1750 C1752 1.478 . S
C1751 H1745 0.930 . S
C1751 C1747 1.400 . S
C1751 C1750 1.385 . S
C1752 C1750 1.478 . S
C1752 C1754 1.381 . S
C1752 C1758 1.383 . S
C1753 C1749 1.495 . S
C1753 H1759 0.959 . S
C1753 H1760 0.961 . S
C1753 H1761 0.960 . S
C1754 C1752 1.381 . S
C1754 C1755 1.394 . S
C1754 H1762 0.930 . S
C1755 C1754 1.394 . S
C1755 C1756 1.383 . S
C1755 H1763 0.929 . S
C1756 C1755 1.383 . S
C1756 C1757 1.377 . S
C1757 H1741 0.930 . S
C1757 C1756 1.377 . S
C1757 C1758 1.379 . S
C1758 H1742 0.931 . S
C1758 C1752 1.383 . S
C1758 C1757 1.379 . S
H1759 C1753 0.959 . S
H1760 C1753 0.961 . S
H1761 C1753 0.960 . S
H1762 C1754 0.930 . S
H1763 C1755 0.929 . S
H1764 C1772 0.929 . S
H1765 C1774 0.930 . S
H1766 C1776 0.930 . S
H1767 C1779 0.929 . S
H1768 C1782 0.930 . S
H1769 C1784 0.960 . S
H1770 C1784 0.960 . S
H1771 C1784 0.960 . S
C1772 H1764 0.929 . S
C1772 C1773 1.377 . S
C1772 C1774 1.384 . S
C1773 C1772 1.377 . S
C1773 C1779 1.390 . S
C1774 H1765 0.930 . S
C1774 C1772 1.384 . S
C1774 C1775 1.372 . S
C1775 C1774 1.372 . S
C1775 C1776 1.400 . S
C1775 C1780 1.490 . S
C1776 H1766 0.930 . S
C1776 C1775 1.400 . S
C1776 C1779 1.386 . S
H1777 C1793 0.930 . S
H1778 C1794 0.931 . S
C1779 H1767 0.929 . S
C1779 C1773 1.390 . S
C1779 C1776 1.386 . S
C1780 C1775 1.490 . S
C1780 C1782 1.395 . S
C1780 C1783 1.403 . S
H1781 C1787 0.930 . S
C1782 H1768 0.930 . S
C1782 C1780 1.395 . S
C1782 C1785 1.403 . S
C1783 C1780 1.403 . S
C1783 C1784 1.524 . S
C1783 C1787 1.400 . S
C1784 H1769 0.960 . S
C1784 H1770 0.960 . S
C1784 H1771 0.960 . S
C1784 C1783 1.524 . S
C1785 C1782 1.403 . S
C1785 C1786 1.392 . S
C1785 C1789 1.495 . S
C1786 C1785 1.392 . S
C1786 C1787 1.385 . S
C1786 C1788 1.478 . S
C1787 H1781 0.930 . S
C1787 C1783 1.400 . S
C1787 C1786 1.385 . S
C1788 C1786 1.478 . S
C1788 C1790 1.381 . S
C1788 C1794 1.383 . S
C1789 C1785 1.495 . S
C1789 H1795 0.959 . S
C1789 H1796 0.961 . S
C1789 H1797 0.960 . S
C1790 C1788 1.381 . S
C1790 C1791 1.394 . S
C1790 H1798 0.930 . S
C1791 C1790 1.394 . S
C1791 C1792 1.383 . S
C1791 H1799 0.929 . S
C1792 C1791 1.383 . S
C1792 C1793 1.377 . S
C1793 H1777 0.930 . S
C1793 C1792 1.377 . S
C1793 C1794 1.379 . S
C1794 H1778 0.931 . S
C1794 C1788 1.383 . S
C1794 C1793 1.379 . S
H1795 C1789 0.959 . S
H1796 C1789 0.961 . S
H1797 C1789 0.960 . S
H1798 C1790 0.930 . S
H1799 C1791 0.929 . S
H1800 C1808 0.929 . S
H1801 C1810 0.930 . S
H1802 C1812 0.930 . S
H1803 C1815 0.929 . S
H1804 C1818 0.930 . S
H1805 C1820 0.960 . S
H1806 C1820 0.960 . S
H1807 C1820 0.960 . S
C1808 H1800 0.929 . S
C1808 C1809 1.377 . S
C1808 C1810 1.384 . S
C1809 C1808 1.377 . S
C1809 C1815 1.390 . S
C1810 H1801 0.930 . S
C1810 C1808 1.384 . S
C1810 C1811 1.372 . S
C1811 C1810 1.372 . S
C1811 C1812 1.400 . S
C1811 C1816 1.490 . S
C1812 H1802 0.930 . S
C1812 C1811 1.400 . S
C1812 C1815 1.386 . S
H1813 C1829 0.930 . S
H1814 C1830 0.931 . S
C1815 H1803 0.929 . S
C1815 C1809 1.390 . S
C1815 C1812 1.386 . S
C1816 C1811 1.490 . S
C1816 C1818 1.395 . S
C1816 C1819 1.403 . S
H1817 C1823 0.930 . S
C1818 H1804 0.930 . S
C1818 C1816 1.395 . S
C1818 C1821 1.403 . S
C1819 C1816 1.403 . S
C1819 C1820 1.524 . S
C1819 C1823 1.400 . S
C1820 H1805 0.960 . S
C1820 H1806 0.960 . S
C1820 H1807 0.960 . S
C1820 C1819 1.524 . S
C1821 C1818 1.403 . S
C1821 C1822 1.392 . S
C1821 C1825 1.495 . S
C1822 C1821 1.392 . S
C1822 C1823 1.385 . S
C1822 C1824 1.478 . S
C1823 H1817 0.930 . S
C1823 C1819 1.400 . S
C1823 C1822 1.385 . S
C1824 C1822 1.478 . S
C1824 C1826 1.381 . S
C1824 C1830 1.383 . S
C1825 C1821 1.495 . S
C1825 H1831 0.959 . S
C1825 H1832 0.961 . S
C1825 H1833 0.960 . S
C1826 C1824 1.381 . S
C1826 C1827 1.394 . S
C1826 H1834 0.930 . S
C1827 C1826 1.394 . S
C1827 C1828 1.383 . S
C1827 H1835 0.929 . S
C1828 C1827 1.383 . S
C1828 C1829 1.377 . S
C1829 H1813 0.930 . S
C1829 C1828 1.377 . S
C1829 C1830 1.379 . S
C1830 H1814 0.931 . S
C1830 C1824 1.383 . S
C1830 C1829 1.379 . S
H1831 C1825 0.959 . S
H1832 C1825 0.961 . S
H1833 C1825 0.960 . S
H1834 C1826 0.930 . S
H1835 C1827 0.929 . S
H1836 C1844 0.929 . S
H1837 C1846 0.930 . S
H1838 C1848 0.930 . S
H1839 C1851 0.929 . S
H1840 C1854 0.930 . S
H1841 C1856 0.960 . S
H1842 C1856 0.960 . S
H1843 C1856 0.960 . S
C1844 H1836 0.929 . S
C1844 C1845 1.377 . S
C1844 C1846 1.384 . S
C1845 C1844 1.377 . S
C1845 C1851 1.390 . S
C1846 H1837 0.930 . S
C1846 C1844 1.384 . S
C1846 C1847 1.372 . S
C1847 C1846 1.372 . S
C1847 C1848 1.400 . S
C1847 C1852 1.490 . S
C1848 H1838 0.930 . S
C1848 C1847 1.400 . S
C1848 C1851 1.386 . S
H1849 C1865 0.930 . S
H1850 C1866 0.931 . S
C1851 H1839 0.929 . S
C1851 C1845 1.390 . S
C1851 C1848 1.386 . S
C1852 C1847 1.490 . S
C1852 C1854 1.395 . S
C1852 C1855 1.403 . S
H1853 C1859 0.930 . S
C1854 H1840 0.930 . S
C1854 C1852 1.395 . S
C1854 C1857 1.403 . S
C1855 C1852 1.403 . S
C1855 C1856 1.524 . S
C1855 C1859 1.400 . S
C1856 H1841 0.960 . S
C1856 H1842 0.960 . S
C1856 H1843 0.960 . S
C1856 C1855 1.524 . S
C1857 C1854 1.403 . S
C1857 C1858 1.392 . S
C1857 C1861 1.495 . S
C1858 C1857 1.392 . S
C1858 C1859 1.385 . S
C1858 C1860 1.478 . S
C1859 H1853 0.930 . S
C1859 C1855 1.400 . S
C1859 C1858 1.385 . S
C1860 C1858 1.478 . S
C1860 C1862 1.381 . S
C1860 C1866 1.383 . S
C1861 C1857 1.495 . S
C1861 H1867 0.959 . S
C1861 H1868 0.961 . S
C1861 H1869 0.960 . S
C1862 C1860 1.381 . S
C1862 C1863 1.394 . S
C1862 H1870 0.930 . S
C1863 C1862 1.394 . S
C1863 C1864 1.383 . S
C1863 H1871 0.929 . S
C1864 C1863 1.383 . S
C1864 C1865 1.377 . S
C1865 H1849 0.930 . S
C1865 C1864 1.377 . S
C1865 C1866 1.379 . S
C1866 H1850 0.931 . S
C1866 C1860 1.383 . S
C1866 C1865 1.379 . S
H1867 C1861 0.959 . S
H1868 C1861 0.961 . S
H1869 C1861 0.960 . S
H1870 C1862 0.930 . S
H1871 C1863 0.929 . S
H1872 C1880 0.929 . S
H1873 C1882 0.930 . S
H1874 C1884 0.930 . S
H1875 C1887 0.929 . S
H1876 C1890 0.930 . S
H1877 C1892 0.960 . S
H1878 C1892 0.960 . S
H1879 C1892 0.960 . S
C1880 H1872 0.929 . S
C1880 C1881 1.377 . S
C1880 C1882 1.384 . S
C1881 C1880 1.377 . S
C1881 C1887 1.390 . S
C1882 H1873 0.930 . S
C1882 C1880 1.384 . S
C1882 C1883 1.372 . S
C1883 C1882 1.372 . S
C1883 C1884 1.400 . S
C1883 C1888 1.490 . S
C1884 H1874 0.930 . S
C1884 C1883 1.400 . S
C1884 C1887 1.386 . S
H1885 C1901 0.930 . S
H1886 C1902 0.931 . S
C1887 H1875 0.929 . S
C1887 C1881 1.390 . S
C1887 C1884 1.386 . S
C1888 C1883 1.490 . S
C1888 C1890 1.395 . S
C1888 C1891 1.403 . S
H1889 C1895 0.930 . S
C1890 H1876 0.930 . S
C1890 C1888 1.395 . S
C1890 C1893 1.403 . S
C1891 C1888 1.403 . S
C1891 C1892 1.524 . S
C1891 C1895 1.400 . S
C1892 H1877 0.960 . S
C1892 H1878 0.960 . S
C1892 H1879 0.960 . S
C1892 C1891 1.524 . S
C1893 C1890 1.403 . S
C1893 C1894 1.392 . S
C1893 C1897 1.495 . S
C1894 C1893 1.392 . S
C1894 C1895 1.385 . S
C1894 C1896 1.478 . S
C1895 H1889 0.930 . S
C1895 C1891 1.400 . S
C1895 C1894 1.385 . S
C1896 C1894 1.478 . S
C1896 C1898 1.381 . S
C1896 C1902 1.383 . S
C1897 C1893 1.495 . S
C1897 H1903 0.959 . S
C1897 H1904 0.961 . S
C1897 H1905 0.960 . S
C1898 C1896 1.381 . S
C1898 C1899 1.394 . S
C1898 H1906 0.930 . S
C1899 C1898 1.394 . S
C1899 C1900 1.383 . S
C1899 H1907 0.929 . S
C1900 C1899 1.383 . S
C1900 C1901 1.377 . S
C1901 H1885 0.930 . S
C1901 C1900 1.377 . S
C1901 C1902 1.379 . S
C1902 H1886 0.931 . S
C1902 C1896 1.383 . S
C1902 C1901 1.379 . S
H1903 C1897 0.959 . S
H1904 C1897 0.961 . S
H1905 C1897 0.960 . S
H1906 C1898 0.930 . S
H1907 C1899 0.929 . S
H1908 C1916 0.929 . S
H1909 C1918 0.930 . S
H1910 C1920 0.930 . S
H1911 C1923 0.929 . S
H1912 C1926 0.930 . S
H1913 C1928 0.960 . S
H1914 C1928 0.960 . S
H1915 C1928 0.960 . S
C1916 H1908 0.929 . S
C1916 C1917 1.377 . S
C1916 C1918 1.384 . S
C1917 C1916 1.377 . S
C1917 C1923 1.390 . S
C1918 H1909 0.930 . S
C1918 C1916 1.384 . S
C1918 C1919 1.372 . S
C1919 C1918 1.372 . S
C1919 C1920 1.400 . S
C1919 C1924 1.490 . S
C1920 H1910 0.930 . S
C1920 C1919 1.400 . S
C1920 C1923 1.386 . S
H1921 C1937 0.930 . S
H1922 C1938 0.931 . S
C1923 H1911 0.929 . S
C1923 C1917 1.390 . S
C1923 C1920 1.386 . S
C1924 C1919 1.490 . S
C1924 C1926 1.395 . S
C1924 C1927 1.403 . S
H1925 C1931 0.930 . S
C1926 H1912 0.930 . S
C1926 C1924 1.395 . S
C1926 C1929 1.403 . S
C1927 C1924 1.403 . S
C1927 C1928 1.524 . S
C1927 C1931 1.400 . S
C1928 H1913 0.960 . S
C1928 H1914 0.960 . S
C1928 H1915 0.960 . S
C1928 C1927 1.524 . S
C1929 C1926 1.403 . S
C1929 C1930 1.392 . S
C1929 C1933 1.495 . S
C1930 C1929 1.392 . S
C1930 C1931 1.385 . S
C1930 C1932 1.478 . S
C1931 H1925 0.930 . S
C1931 C1927 1.400 . S
C1931 C1930 1.385 . S
C1932 C1930 1.478 . S
C1932 C1934 1.381 . S
C1932 C1938 1.383 . S
C1933 C1929 1.495 . S
C1933 H1939 0.959 . S
C1933 H1940 0.961 . S
C1933 H1941 0.960 . S
C1934 C1932 1.381 . S
C1934 C1935 1.394 . S
C1934 H1942 0.930 . S
C1935 C1934 1.394 . S
C1935 C1936 1.383 . S
C1935 H1943 0.929 . S
C1936 C1935 1.383 . S
C1936 C1937 1.377 . S
C1937 H1921 0.930 . S
C1937 C1936 1.377 . S
C1937 C1938 1.379 . S
C1938 H1922 0.931 . S
C1938 C1932 1.383 . S
C1938 C1937 1.379 . S
H1939 C1933 0.959 . S
H1940 C1933 0.961 . S
H1941 C1933 0.960 . S
H1942 C1934 0.930 . S
H1943 C1935 0.929 . S
H1944 C1952 0.929 . S
H1945 C1954 0.930 . S
H1946 C1956 0.930 . S
H1947 C1959 0.929 . S
H1948 C1962 0.930 . S
H1949 C1964 0.960 . S
H1950 C1964 0.960 . S
H1951 C1964 0.960 . S
C1952 H1944 0.929 . S
C1952 C1953 1.377 . S
C1952 C1954 1.384 . S
C1953 C1952 1.377 . S
C1953 C1959 1.390 . S
C1954 H1945 0.930 . S
C1954 C1952 1.384 . S
C1954 C1955 1.372 . S
C1955 C1954 1.372 . S
C1955 C1956 1.400 . S
C1955 C1960 1.490 . S
C1956 H1946 0.930 . S
C1956 C1955 1.400 . S
C1956 C1959 1.386 . S
H1957 C1973 0.930 . S
H1958 C1974 0.931 . S
C1959 H1947 0.929 . S
C1959 C1953 1.390 . S
C1959 C1956 1.386 . S
C1960 C1955 1.490 . S
C1960 C1962 1.395 . S
C1960 C1963 1.403 . S
H1961 C1967 0.930 . S
C1962 H1948 0.930 . S
C1962 C1960 1.395 . S
C1962 C1965 1.403 . S
C1963 C1960 1.403 . S
C1963 C1964 1.524 . S
C1963 C1967 1.400 . S
C1964 H1949 0.960 . S
C1964 H1950 0.960 . S
C1964 H1951 0.960 . S
C1964 C1963 1.524 . S
C1965 C1962 1.403 . S
C1965 C1966 1.392 . S
C1965 C1969 1.495 . S
C1966 C1965 1.392 . S
C1966 C1967 1.385 . S
C1966 C1968 1.478 . S
C1967 H1961 0.930 . S
C1967 C1963 1.400 . S
C1967 C1966 1.385 . S
C1968 C1966 1.478 . S
C1968 C1970 1.381 . S
C1968 C1974 1.383 . S
C1969 C1965 1.495 . S
C1969 H1975 0.959 . S
C1969 H1976 0.961 . S
C1969 H1977 0.960 . S
C1970 C1968 1.381 . S
C1970 C1971 1.394 . S
C1970 H1978 0.930 . S
C1971 C1970 1.394 . S
C1971 C1972 1.383 . S
C1971 H1979 0.929 . S
C1972 C1971 1.383 . S
C1972 C1973 1.377 . S
C1973 H1957 0.930 . S
C1973 C1972 1.377 . S
C1973 C1974 1.379 . S
C1974 H1958 0.931 . S
C1974 C1968 1.383 . S
C1974 C1973 1.379 . S
H1975 C1969 0.959 . S
H1976 C1969 0.961 . S
H1977 C1969 0.960 . S
H1978 C1970 0.930 . S
H1979 C1971 0.929 . S
H1980 C1988 0.929 . S
H1981 C1990 0.930 . S
H1982 C1992 0.930 . S
H1983 C1995 0.929 . S
H1984 C1998 0.930 . S
H1985 C2000 0.960 . S
H1986 C2000 0.960 . S
H1987 C2000 0.960 . S
C1988 H1980 0.929 . S
C1988 C1989 1.377 . S
C1988 C1990 1.384 . S
C1989 C1988 1.377 . S
C1989 C1995 1.390 . S
C1990 H1981 0.930 . S
C1990 C1988 1.384 . S
C1990 C1991 1.372 . S
C1991 C1990 1.372 . S
C1991 C1992 1.400 . S
C1991 C1996 1.490 . S
C1992 H1982 0.930 . S
C1992 C1991 1.400 . S
C1992 C1995 1.386 . S
H1993 C2009 0.930 . S
H1994 C2010 0.931 . S
C1995 H1983 0.929 . S
C1995 C1989 1.390 . S
C1995 C1992 1.386 . S
C1996 C1991 1.490 . S
C1996 C1998 1.395 . S
C1996 C1999 1.403 . S
H1997 C2003 0.930 . S
C1998 H1984 0.930 . S
C1998 C1996 1.395 . S
C1998 C2001 1.403 . S
C1999 C1996 1.403 . S
C1999 C2000 1.524 . S
C1999 C2003 1.400 . S
C2000 H1985 0.960 . S
C2000 H1986 0.960 . S
C2000 H1987 0.960 . S
C2000 C1999 1.524 . S
C2001 C1998 1.403 . S
C2001 C2002 1.392 . S
C2001 C2005 1.495 . S
C2002 C2001 1.392 . S
C2002 C2003 1.385 . S
C2002 C2004 1.478 . S
C2003 H1997 0.930 . S
C2003 C1999 1.400 . S
C2003 C2002 1.385 . S
C2004 C2002 1.478 . S
C2004 C2006 1.381 . S
C2004 C2010 1.383 . S
C2005 C2001 1.495 . S
C2005 H2011 0.959 . S
C2005 H2012 0.961 . S
C2005 H2013 0.960 . S
C2006 C2004 1.381 . S
C2006 C2007 1.394 . S
C2006 H2014 0.930 . S
C2007 C2006 1.394 . S
C2007 C2008 1.383 . S
C2007 H2015 0.929 . S
C2008 C2007 1.383 . S
C2008 C2009 1.377 . S
C2009 H1993 0.930 . S
C2009 C2008 1.377 . S
C2009 C2010 1.379 . S
C2010 H1994 0.931 . S
C2010 C2004 1.383 . S
C2010 C2009 1.379 . S
H2011 C2005 0.959 . S
H2012 C2005 0.961 . S
H2013 C2005 0.960 . S
H2014 C2006 0.930 . S
H2015 C2007 0.929 . S
H2016 C2024 0.929 . S
H2017 C2026 0.930 . S
H2018 C2028 0.930 . S
H2019 C2031 0.929 . S
H2020 C2034 0.930 . S
H2021 C2036 0.960 . S
H2022 C2036 0.960 . S
H2023 C2036 0.960 . S
C2024 H2016 0.929 . S
C2024 C2025 1.377 . S
C2024 C2026 1.384 . S
C2025 C2024 1.377 . S
C2025 C2031 1.390 . S
C2026 H2017 0.930 . S
C2026 C2024 1.384 . S
C2026 C2027 1.372 . S
C2027 C2026 1.372 . S
C2027 C2028 1.400 . S
C2027 C2032 1.490 . S
C2028 H2018 0.930 . S
C2028 C2027 1.400 . S
C2028 C2031 1.386 . S
H2029 C2045 0.930 . S
H2030 C2046 0.931 . S
C2031 H2019 0.929 . S
C2031 C2025 1.390 . S
C2031 C2028 1.386 . S
C2032 C2027 1.490 . S
C2032 C2034 1.395 . S
C2032 C2035 1.403 . S
H2033 C2039 0.930 . S
C2034 H2020 0.930 . S
C2034 C2032 1.395 . S
C2034 C2037 1.403 . S
C2035 C2032 1.403 . S
C2035 C2036 1.524 . S
C2035 C2039 1.400 . S
C2036 H2021 0.960 . S
C2036 H2022 0.960 . S
C2036 H2023 0.960 . S
C2036 C2035 1.524 . S
C2037 C2034 1.403 . S
C2037 C2038 1.392 . S
C2037 C2041 1.495 . S
C2038 C2037 1.392 . S
C2038 C2039 1.385 . S
C2038 C2040 1.478 . S
C2039 H2033 0.930 . S
C2039 C2035 1.400 . S
C2039 C2038 1.385 . S
C2040 C2038 1.478 . S
C2040 C2042 1.381 . S
C2040 C2046 1.383 . S
C2041 C2037 1.495 . S
C2041 H2047 0.959 . S
C2041 H2048 0.961 . S
C2041 H2049 0.960 . S
C2042 C2040 1.381 . S
C2042 C2043 1.394 . S
C2042 H2050 0.930 . S
C2043 C2042 1.394 . S
C2043 C2044 1.383 . S
C2043 H2051 0.929 . S
C2044 C2043 1.383 . S
C2044 C2045 1.377 . S
C2045 H2029 0.930 . S
C2045 C2044 1.377 . S
C2045 C2046 1.379 . S
C2046 H2030 0.931 . S
C2046 C2040 1.383 . S
C2046 C2045 1.379 . S
H2047 C2041 0.959 . S
H2048 C2041 0.961 . S
H2049 C2041 0.960 . S
H2050 C2042 0.930 . S
H2051 C2043 0.929 . S
H2052 C2060 0.929 . S
H2053 C2062 0.930 . S
H2054 C2064 0.930 . S
H2055 C2067 0.929 . S
H2056 C2070 0.930 . S
H2057 C2072 0.960 . S
H2058 C2072 0.960 . S
H2059 C2072 0.960 . S
C2060 H2052 0.929 . S
C2060 C2061 1.377 . S
C2060 C2062 1.384 . S
C2061 C2060 1.377 . S
C2061 C2067 1.390 . S
C2062 H2053 0.930 . S
C2062 C2060 1.384 . S
C2062 C2063 1.372 . S
C2063 C2062 1.372 . S
C2063 C2064 1.400 . S
C2063 C2068 1.490 . S
C2064 H2054 0.930 . S
C2064 C2063 1.400 . S
C2064 C2067 1.386 . S
H2065 C2081 0.930 . S
H2066 C2082 0.931 . S
C2067 H2055 0.929 . S
C2067 C2061 1.390 . S
C2067 C2064 1.386 . S
C2068 C2063 1.490 . S
C2068 C2070 1.395 . S
C2068 C2071 1.403 . S
H2069 C2075 0.930 . S
C2070 H2056 0.930 . S
C2070 C2068 1.395 . S
C2070 C2073 1.403 . S
C2071 C2068 1.403 . S
C2071 C2072 1.524 . S
C2071 C2075 1.400 . S
C2072 H2057 0.960 . S
C2072 H2058 0.960 . S
C2072 H2059 0.960 . S
C2072 C2071 1.524 . S
C2073 C2070 1.403 . S
C2073 C2074 1.392 . S
C2073 C2077 1.495 . S
C2074 C2073 1.392 . S
C2074 C2075 1.385 . S
C2074 C2076 1.478 . S
C2075 H2069 0.930 . S
C2075 C2071 1.400 . S
C2075 C2074 1.385 . S
C2076 C2074 1.478 . S
C2076 C2078 1.381 . S
C2076 C2082 1.383 . S
C2077 C2073 1.495 . S
C2077 H2083 0.959 . S
C2077 H2084 0.961 . S
C2077 H2085 0.960 . S
C2078 C2076 1.381 . S
C2078 C2079 1.394 . S
C2078 H2086 0.930 . S
C2079 C2078 1.394 . S
C2079 C2080 1.383 . S
C2079 H2087 0.929 . S
C2080 C2079 1.383 . S
C2080 C2081 1.377 . S
C2081 H2065 0.930 . S
C2081 C2080 1.377 . S
C2081 C2082 1.379 . S
C2082 H2066 0.931 . S
C2082 C2076 1.383 . S
C2082 C2081 1.379 . S
H2083 C2077 0.959 . S
H2084 C2077 0.961 . S
H2085 C2077 0.960 . S
H2086 C2078 0.930 . S
H2087 C2079 0.929 . S
H2088 C2096 0.929 . S
H2089 C2098 0.930 . S
H2090 C2100 0.930 . S
H2091 C2103 0.929 . S
H2092 C2106 0.930 . S
H2093 C2108 0.960 . S
H2094 C2108 0.960 . S
H2095 C2108 0.960 . S
C2096 H2088 0.929 . S
C2096 C2097 1.377 . S
C2096 C2098 1.384 . S
C2097 C2096 1.377 . S
C2097 C2103 1.390 . S
C2098 H2089 0.930 . S
C2098 C2096 1.384 . S
C2098 C2099 1.372 . S
C2099 C2098 1.372 . S
C2099 C2100 1.400 . S
C2099 C2104 1.490 . S
C2100 H2090 0.930 . S
C2100 C2099 1.400 . S
C2100 C2103 1.386 . S
H2101 C2117 0.930 . S
H2102 C2118 0.931 . S
C2103 H2091 0.929 . S
C2103 C2097 1.390 . S
C2103 C2100 1.386 . S
C2104 C2099 1.490 . S
C2104 C2106 1.395 . S
C2104 C2107 1.403 . S
H2105 C2111 0.930 . S
C2106 H2092 0.930 . S
C2106 C2104 1.395 . S
C2106 C2109 1.403 . S
C2107 C2104 1.403 . S
C2107 C2108 1.524 . S
C2107 C2111 1.400 . S
C2108 H2093 0.960 . S
C2108 H2094 0.960 . S
C2108 H2095 0.960 . S
C2108 C2107 1.524 . S
C2109 C2106 1.403 . S
C2109 C2110 1.392 . S
C2109 C2113 1.495 . S
C2110 C2109 1.392 . S
C2110 C2111 1.385 . S
C2110 C2112 1.478 . S
C2111 H2105 0.930 . S
C2111 C2107 1.400 . S
C2111 C2110 1.385 . S
C2112 C2110 1.478 . S
C2112 C2114 1.381 . S
C2112 C2118 1.383 . S
C2113 C2109 1.495 . S
C2113 H2119 0.959 . S
C2113 H2120 0.961 . S
C2113 H2121 0.960 . S
C2114 C2112 1.381 . S
C2114 C2115 1.394 . S
C2114 H2122 0.930 . S
C2115 C2114 1.394 . S
C2115 C2116 1.383 . S
C2115 H2123 0.929 . S
C2116 C2115 1.383 . S
C2116 C2117 1.377 . S
C2117 H2101 0.930 . S
C2117 C2116 1.377 . S
C2117 C2118 1.379 . S
C2118 H2102 0.931 . S
C2118 C2112 1.383 . S
C2118 C2117 1.379 . S
H2119 C2113 0.959 . S
H2120 C2113 0.961 . S
H2121 C2113 0.960 . S
H2122 C2114 0.930 . S
H2123 C2115 0.929 . S
H2124 C2132 0.929 . S
H2125 C2134 0.930 . S
H2126 C2136 0.930 . S
H2127 C2139 0.929 . S
H2128 C2142 0.930 . S
H2129 C2144 0.960 . S
H2130 C2144 0.960 . S
H2131 C2144 0.960 . S
C2132 H2124 0.929 . S
C2132 C2133 1.377 . S
C2132 C2134 1.384 . S
C2133 C2132 1.377 . S
C2133 C2139 1.390 . S
C2134 H2125 0.930 . S
C2134 C2132 1.384 . S
C2134 C2135 1.372 . S
C2135 C2134 1.372 . S
C2135 C2136 1.400 . S
C2135 C2140 1.490 . S
C2136 H2126 0.930 . S
C2136 C2135 1.400 . S
C2136 C2139 1.386 . S
H2137 C2153 0.930 . S
H2138 C2154 0.931 . S
C2139 H2127 0.929 . S
C2139 C2133 1.390 . S
C2139 C2136 1.386 . S
C2140 C2135 1.490 . S
C2140 C2142 1.395 . S
C2140 C2143 1.403 . S
H2141 C2147 0.930 . S
C2142 H2128 0.930 . S
C2142 C2140 1.395 . S
C2142 C2145 1.403 . S
C2143 C2140 1.403 . S
C2143 C2144 1.524 . S
C2143 C2147 1.400 . S
C2144 H2129 0.960 . S
C2144 H2130 0.960 . S
C2144 H2131 0.960 . S
C2144 C2143 1.524 . S
C2145 C2142 1.403 . S
C2145 C2146 1.392 . S
C2145 C2149 1.495 . S
C2146 C2145 1.392 . S
C2146 C2147 1.385 . S
C2146 C2148 1.478 . S
C2147 H2141 0.930 . S
C2147 C2143 1.400 . S
C2147 C2146 1.385 . S
C2148 C2146 1.478 . S
C2148 C2150 1.381 . S
C2148 C2154 1.383 . S
C2149 C2145 1.495 . S
C2149 H2155 0.959 . S
C2149 H2156 0.961 . S
C2149 H2157 0.960 . S
C2150 C2148 1.381 . S
C2150 C2151 1.394 . S
C2150 H2158 0.930 . S
C2151 C2150 1.394 . S
C2151 C2152 1.383 . S
C2151 H2159 0.929 . S
C2152 C2151 1.383 . S
C2152 C2153 1.377 . S
C2153 H2137 0.930 . S
C2153 C2152 1.377 . S
C2153 C2154 1.379 . S
C2154 H2138 0.931 . S
C2154 C2148 1.383 . S
C2154 C2153 1.379 . S
H2155 C2149 0.959 . S
H2156 C2149 0.961 . S
H2157 C2149 0.960 . S
H2158 C2150 0.930 . S
H2159 C2151 0.929 . S
H2160 C2168 0.929 . S
H2161 C2170 0.930 . S
H2162 C2172 0.930 . S
H2163 C2175 0.929 . S
H2164 C2178 0.930 . S
H2165 C2180 0.960 . S
H2166 C2180 0.960 . S
H2167 C2180 0.960 . S
C2168 H2160 0.929 . S
C2168 C2169 1.377 . S
C2168 C2170 1.384 . S
C2169 C2168 1.377 . S
C2169 C2175 1.390 . S
C2170 H2161 0.930 . S
C2170 C2168 1.384 . S
C2170 C2171 1.372 . S
C2171 C2170 1.372 . S
C2171 C2172 1.400 . S
C2171 C2176 1.490 . S
C2172 H2162 0.930 . S
C2172 C2171 1.400 . S
C2172 C2175 1.386 . S
H2173 C2189 0.930 . S
H2174 C2190 0.931 . S
C2175 H2163 0.929 . S
C2175 C2169 1.390 . S
C2175 C2172 1.386 . S
C2176 C2171 1.490 . S
C2176 C2178 1.395 . S
C2176 C2179 1.403 . S
H2177 C2183 0.930 . S
C2178 H2164 0.930 . S
C2178 C2176 1.395 . S
C2178 C2181 1.403 . S
C2179 C2176 1.403 . S
C2179 C2180 1.524 . S
C2179 C2183 1.400 . S
C2180 H2165 0.960 . S
C2180 H2166 0.960 . S
C2180 H2167 0.960 . S
C2180 C2179 1.524 . S
C2181 C2178 1.403 . S
C2181 C2182 1.392 . S
C2181 C2185 1.495 . S
C2182 C2181 1.392 . S
C2182 C2183 1.385 . S
C2182 C2184 1.478 . S
C2183 H2177 0.930 . S
C2183 C2179 1.400 . S
C2183 C2182 1.385 . S
C2184 C2182 1.478 . S
C2184 C2186 1.381 . S
C2184 C2190 1.383 . S
C2185 C2181 1.495 . S
C2185 H2191 0.959 . S
C2185 H2192 0.961 . S
C2185 H2193 0.960 . S
C2186 C2184 1.381 . S
C2186 C2187 1.394 . S
C2186 H2194 0.930 . S
C2187 C2186 1.394 . S
C2187 C2188 1.383 . S
C2187 H2195 0.929 . S
C2188 C2187 1.383 . S
C2188 C2189 1.377 . S
C2189 H2173 0.930 . S
C2189 C2188 1.377 . S
C2189 C2190 1.379 . S
C2190 H2174 0.931 . S
C2190 C2184 1.383 . S
C2190 C2189 1.379 . S
H2191 C2185 0.959 . S
H2192 C2185 0.961 . S
H2193 C2185 0.960 . S
H2194 C2186 0.930 . S
H2195 C2187 0.929 . S
H2196 C2204 0.929 . S
H2197 C2206 0.930 . S
H2198 C2208 0.930 . S
H2199 C2211 0.929 . S
H2200 C2214 0.930 . S
H2201 C2216 0.960 . S
H2202 C2216 0.960 . S
H2203 C2216 0.960 . S
C2204 H2196 0.929 . S
C2204 C2205 1.377 . S
C2204 C2206 1.384 . S
C2205 C2204 1.377 . S
C2205 C2211 1.390 . S
C2206 H2197 0.930 . S
C2206 C2204 1.384 . S
C2206 C2207 1.372 . S
C2207 C2206 1.372 . S
C2207 C2208 1.400 . S
C2207 C2212 1.490 . S
C2208 H2198 0.930 . S
C2208 C2207 1.400 . S
C2208 C2211 1.386 . S
H2209 C2225 0.930 . S
H2210 C2226 0.931 . S
C2211 H2199 0.929 . S
C2211 C2205 1.390 . S
C2211 C2208 1.386 . S
C2212 C2207 1.490 . S
C2212 C2214 1.395 . S
C2212 C2215 1.403 . S
H2213 C2219 0.930 . S
C2214 H2200 0.930 . S
C2214 C2212 1.395 . S
C2214 C2217 1.403 1_455 S
C2215 C2212 1.403 . S
C2215 C2216 1.524 . S
C2215 C2219 1.400 1_455 S
C2216 H2201 0.960 . S
C2216 H2202 0.960 . S
C2216 H2203 0.960 . S
C2216 C2215 1.524 . S
C2217 C2214 1.403 1_655 S
C2217 C2218 1.392 . S
C2217 C2221 1.495 . S
C2218 C2217 1.392 . S
C2218 C2219 1.385 . S
C2218 C2220 1.478 . S
C2219 H2213 0.930 . S
C2219 C2215 1.400 1_655 S
C2219 C2218 1.385 . S
C2220 C2218 1.478 . S
C2220 C2222 1.381 . S
C2220 C2226 1.383 . S
C2221 C2217 1.495 . S
C2221 H2227 0.959 . S
C2221 H2228 0.961 . S
C2221 H2229 0.960 . S
C2222 C2220 1.381 . S
C2222 C2223 1.394 . S
C2222 H2230 0.930 . S
C2223 C2222 1.394 . S
C2223 C2224 1.383 . S
C2223 H2231 0.929 . S
C2224 C2223 1.383 . S
C2224 C2225 1.377 . S
C2225 H2209 0.930 . S
C2225 C2224 1.377 . S
C2225 C2226 1.379 . S
C2226 H2210 0.931 . S
C2226 C2220 1.383 . S
C2226 C2225 1.379 . S
H2227 C2221 0.959 . S
H2228 C2221 0.961 . S
H2229 C2221 0.960 . S
H2230 C2222 0.930 . S
H2231 C2223 0.929 . S
H2232 C2240 0.929 . S
H2233 C2242 0.930 . S
H2234 C2244 0.930 . S
H2235 C2247 0.929 . S
H2236 C2250 0.930 . S
H2237 C2252 0.960 . S
H2238 C2252 0.960 . S
H2239 C2252 0.960 . S
C2240 H2232 0.929 . S
C2240 C2241 1.377 . S
C2240 C2242 1.384 . S
C2241 C2240 1.377 . S
C2241 C2247 1.390 . S
C2242 H2233 0.930 . S
C2242 C2240 1.384 . S
C2242 C2243 1.372 . S
C2243 C2242 1.372 . S
C2243 C2244 1.400 . S
C2243 C2248 1.490 . S
C2244 H2234 0.930 . S
C2244 C2243 1.400 . S
C2244 C2247 1.386 . S
H2245 C2261 0.930 . S
H2246 C2262 0.931 . S
C2247 H2235 0.929 . S
C2247 C2241 1.390 . S
C2247 C2244 1.386 . S
C2248 C2243 1.490 . S
C2248 C2250 1.395 . S
C2248 C2251 1.403 . S
H2249 C2255 0.930 . S
C2250 H2236 0.930 . S
C2250 C2248 1.395 . S
C2250 C2253 1.403 . S
C2251 C2248 1.403 . S
C2251 C2252 1.524 . S
C2251 C2255 1.400 . S
C2252 H2237 0.960 . S
C2252 H2238 0.960 . S
C2252 H2239 0.960 . S
C2252 C2251 1.524 . S
C2253 C2250 1.403 . S
C2253 C2254 1.392 . S
C2253 C2257 1.495 . S
C2254 C2253 1.392 . S
C2254 C2255 1.385 . S
C2254 C2256 1.478 . S
C2255 H2249 0.930 . S
C2255 C2251 1.400 . S
C2255 C2254 1.385 . S
C2256 C2254 1.478 . S
C2256 C2258 1.381 . S
C2256 C2262 1.383 . S
C2257 C2253 1.495 . S
C2257 H2263 0.959 . S
C2257 H2264 0.961 . S
C2257 H2265 0.960 . S
C2258 C2256 1.381 . S
C2258 C2259 1.394 . S
C2258 H2266 0.930 . S
C2259 C2258 1.394 . S
C2259 C2260 1.383 . S
C2259 H2267 0.929 . S
C2260 C2259 1.383 . S
C2260 C2261 1.377 . S
C2261 H2245 0.930 . S
C2261 C2260 1.377 . S
C2261 C2262 1.379 . S
C2262 H2246 0.931 . S
C2262 C2256 1.383 . S
C2262 C2261 1.379 . S
H2263 C2257 0.959 . S
H2264 C2257 0.961 . S
H2265 C2257 0.960 . S
H2266 C2258 0.930 . S
H2267 C2259 0.929 . S
H2268 C2276 0.929 . S
H2269 C2278 0.930 . S
H2270 C2280 0.930 . S
H2271 C2283 0.929 . S
H2272 C2286 0.930 . S
H2273 C2288 0.960 . S
H2274 C2288 0.960 . S
H2275 C2288 0.960 . S
C2276 H2268 0.929 . S
C2276 C2277 1.377 . S
C2276 C2278 1.384 . S
C2277 C2276 1.377 . S
C2277 C2283 1.390 . S
C2278 H2269 0.930 . S
C2278 C2276 1.384 . S
C2278 C2279 1.372 . S
C2279 C2278 1.372 . S
C2279 C2280 1.400 . S
C2279 C2284 1.490 . S
C2280 H2270 0.930 . S
C2280 C2279 1.400 . S
C2280 C2283 1.386 . S
H2281 C2297 0.930 . S
H2282 C2298 0.931 . S
C2283 H2271 0.929 . S
C2283 C2277 1.390 . S
C2283 C2280 1.386 . S
C2284 C2279 1.490 . S
C2284 C2286 1.395 . S
C2284 C2287 1.403 . S
H2285 C2291 0.930 . S
C2286 H2272 0.930 . S
C2286 C2284 1.395 . S
C2286 C2289 1.403 1_545 S
C2287 C2284 1.403 . S
C2287 C2288 1.524 . S
C2287 C2291 1.400 1_545 S
C2288 H2273 0.960 . S
C2288 H2274 0.960 . S
C2288 H2275 0.960 . S
C2288 C2287 1.524 . S
C2289 C2286 1.403 1_565 S
C2289 C2290 1.392 . S
C2289 C2293 1.495 . S
C2290 C2289 1.392 . S
C2290 C2291 1.385 . S
C2290 C2292 1.478 . S
C2291 H2285 0.930 . S
C2291 C2287 1.400 1_565 S
C2291 C2290 1.385 . S
C2292 C2290 1.478 . S
C2292 C2294 1.381 . S
C2292 C2298 1.383 . S
C2293 C2289 1.495 . S
C2293 H2299 0.959 . S
C2293 H2300 0.961 . S
C2293 H2301 0.960 . S
C2294 C2292 1.381 . S
C2294 C2295 1.394 . S
C2294 H2302 0.930 . S
C2295 C2294 1.394 . S
C2295 C2296 1.383 . S
C2295 H2303 0.929 . S
C2296 C2295 1.383 . S
C2296 C2297 1.377 . S
C2297 H2281 0.930 . S
C2297 C2296 1.377 . S
C2297 C2298 1.379 . S
C2298 H2282 0.931 . S
C2298 C2292 1.383 . S
C2298 C2297 1.379 . S
H2299 C2293 0.959 . S
H2300 C2293 0.961 . S
H2301 C2293 0.960 . S
H2302 C2294 0.930 . S
H2303 C2295 0.929 . S
H2304 C2312 0.929 . S
H2305 C2314 0.930 . S
H2306 C2316 0.930 . S
H2307 C2319 0.929 . S
H2308 C2322 0.930 . S
H2309 C2324 0.960 . S
H2310 C2324 0.960 . S
H2311 C2324 0.960 . S
C2312 H2304 0.929 . S
C2312 C2313 1.377 . S
C2312 C2314 1.384 . S
C2313 C2312 1.377 . S
C2313 C2319 1.390 . S
C2314 H2305 0.930 . S
C2314 C2312 1.384 . S
C2314 C2315 1.372 . S
C2315 C2314 1.372 . S
C2315 C2316 1.400 . S
C2315 C2320 1.490 . S
C2316 H2306 0.930 . S
C2316 C2315 1.400 . S
C2316 C2319 1.386 . S
H2317 C2333 0.930 . S
H2318 C2334 0.931 . S
C2319 H2307 0.929 . S
C2319 C2313 1.390 . S
C2319 C2316 1.386 . S
C2320 C2315 1.490 . S
C2320 C2322 1.395 . S
C2320 C2323 1.403 . S
H2321 C2327 0.930 . S
C2322 H2308 0.930 . S
C2322 C2320 1.395 . S
C2322 C2325 1.403 1_545 S
C2323 C2320 1.403 . S
C2323 C2324 1.524 . S
C2323 C2327 1.400 1_545 S
C2324 H2309 0.960 . S
C2324 H2310 0.960 . S
C2324 H2311 0.960 . S
C2324 C2323 1.524 . S
C2325 C2322 1.403 1_565 S
C2325 C2326 1.392 . S
C2325 C2329 1.495 . S
C2326 C2325 1.392 . S
C2326 C2327 1.385 . S
C2326 C2328 1.478 . S
C2327 H2321 0.930 . S
C2327 C2323 1.400 1_565 S
C2327 C2326 1.385 . S
C2328 C2326 1.478 . S
C2328 C2330 1.381 . S
C2328 C2334 1.383 . S
C2329 C2325 1.495 . S
C2329 H2335 0.959 . S
C2329 H2336 0.961 . S
C2329 H2337 0.960 . S
C2330 C2328 1.381 . S
C2330 C2331 1.394 . S
C2330 H2338 0.930 . S
C2331 C2330 1.394 . S
C2331 C2332 1.383 . S
C2331 H2339 0.929 . S
C2332 C2331 1.383 . S
C2332 C2333 1.377 . S
C2333 H2317 0.930 . S
C2333 C2332 1.377 . S
C2333 C2334 1.379 . S
C2334 H2318 0.931 . S
C2334 C2328 1.383 . S
C2334 C2333 1.379 . S
H2335 C2329 0.959 . S
H2336 C2329 0.961 . S
H2337 C2329 0.960 . S
H2338 C2330 0.930 . S
H2339 C2331 0.929 . S
H2340 C2348 0.929 . S
H2341 C2350 0.930 . S
H2342 C2352 0.930 . S
H2343 C2355 0.929 . S
H2344 C2358 0.930 . S
H2345 C2360 0.960 . S
H2346 C2360 0.960 . S
H2347 C2360 0.960 . S
C2348 H2340 0.929 . S
C2348 C2349 1.377 . S
C2348 C2350 1.384 . S
C2349 C2348 1.377 . S
C2349 C2355 1.390 . S
C2350 H2341 0.930 . S
C2350 C2348 1.384 . S
C2350 C2351 1.372 . S
C2351 C2350 1.372 . S
C2351 C2352 1.400 . S
C2351 C2356 1.490 . S
C2352 H2342 0.930 . S
C2352 C2351 1.400 . S
C2352 C2355 1.386 . S
H2353 C2369 0.930 . S
H2354 C2370 0.931 . S
C2355 H2343 0.929 . S
C2355 C2349 1.390 . S
C2355 C2352 1.386 . S
C2356 C2351 1.490 . S
C2356 C2358 1.395 . S
C2356 C2359 1.403 . S
H2357 C2363 0.930 . S
C2358 H2344 0.930 . S
C2358 C2356 1.395 . S
C2358 C2361 1.403 1_655 S
C2359 C2356 1.403 . S
C2359 C2360 1.524 . S
C2359 C2363 1.400 1_655 S
C2360 H2345 0.960 . S
C2360 H2346 0.960 . S
C2360 H2347 0.960 . S
C2360 C2359 1.524 . S
C2361 C2358 1.403 1_455 S
C2361 C2362 1.392 . S
C2361 C2365 1.495 . S
C2362 C2361 1.392 . S
C2362 C2363 1.385 . S
C2362 C2364 1.478 . S
C2363 H2357 0.930 . S
C2363 C2359 1.400 1_455 S
C2363 C2362 1.385 . S
C2364 C2362 1.478 . S
C2364 C2366 1.381 . S
C2364 C2370 1.383 . S
C2365 C2361 1.495 . S
C2365 H2371 0.959 . S
C2365 H2372 0.961 . S
C2365 H2373 0.960 . S
C2366 C2364 1.381 . S
C2366 C2367 1.394 . S
C2366 H2374 0.930 . S
C2367 C2366 1.394 . S
C2367 C2368 1.383 . S
C2367 H2375 0.929 . S
C2368 C2367 1.383 . S
C2368 C2369 1.377 . S
C2369 H2353 0.930 . S
C2369 C2368 1.377 . S
C2369 C2370 1.379 . S
C2370 H2354 0.931 . S
C2370 C2364 1.383 . S
C2370 C2369 1.379 . S
H2371 C2365 0.959 . S
H2372 C2365 0.961 . S
H2373 C2365 0.960 . S
H2374 C2366 0.930 . S
H2375 C2367 0.929 . S
H2376 C2384 0.929 . S
H2377 C2386 0.930 . S
H2378 C2388 0.930 . S
H2379 C2391 0.929 . S
H2380 C2394 0.930 . S
H2381 C2396 0.960 . S
H2382 C2396 0.960 . S
H2383 C2396 0.960 . S
C2384 H2376 0.929 . S
C2384 C2385 1.377 . S
C2384 C2386 1.384 . S
C2385 C2384 1.377 . S
C2385 C2391 1.390 . S
C2386 H2377 0.930 . S
C2386 C2384 1.384 . S
C2386 C2387 1.372 . S
C2387 C2386 1.372 . S
C2387 C2388 1.400 . S
C2387 C2392 1.490 . S
C2388 H2378 0.930 . S
C2388 C2387 1.400 . S
C2388 C2391 1.386 . S
H2389 C2405 0.930 . S
H2390 C2406 0.931 . S
C2391 H2379 0.929 . S
C2391 C2385 1.390 . S
C2391 C2388 1.386 . S
C2392 C2387 1.490 . S
C2392 C2394 1.395 . S
C2392 C2395 1.403 . S
H2393 C2399 0.930 . S
C2394 H2380 0.930 . S
C2394 C2392 1.395 . S
C2394 C2397 1.403 . S
C2395 C2392 1.403 . S
C2395 C2396 1.524 . S
C2395 C2399 1.400 . S
C2396 H2381 0.960 . S
C2396 H2382 0.960 . S
C2396 H2383 0.960 . S
C2396 C2395 1.524 . S
C2397 C2394 1.403 . S
C2397 C2398 1.392 . S
C2397 C2401 1.495 . S
C2398 C2397 1.392 . S
C2398 C2399 1.385 . S
C2398 C2400 1.478 . S
C2399 H2393 0.930 . S
C2399 C2395 1.400 . S
C2399 C2398 1.385 . S
C2400 C2398 1.478 . S
C2400 C2402 1.381 . S
C2400 C2406 1.383 . S
C2401 C2397 1.495 . S
C2401 H2407 0.959 . S
C2401 H2408 0.961 . S
C2401 H2409 0.960 . S
C2402 C2400 1.381 . S
C2402 C2403 1.394 . S
C2402 H2410 0.930 . S
C2403 C2402 1.394 . S
C2403 C2404 1.383 . S
C2403 H2411 0.929 . S
C2404 C2403 1.383 . S
C2404 C2405 1.377 . S
C2405 H2389 0.930 . S
C2405 C2404 1.377 . S
C2405 C2406 1.379 . S
C2406 H2390 0.931 . S
C2406 C2400 1.383 . S
C2406 C2405 1.379 . S
H2407 C2401 0.959 . S
H2408 C2401 0.961 . S
H2409 C2401 0.960 . S
H2410 C2402 0.930 . S
H2411 C2403 0.929 . S
H2412 C2420 0.929 . S
H2413 C2422 0.930 . S
H2414 C2424 0.930 . S
H2415 C2427 0.929 . S
H2416 C2430 0.930 . S
H2417 C2432 0.960 . S
H2418 C2432 0.960 . S
H2419 C2432 0.960 . S
C2420 H2412 0.929 . S
C2420 C2421 1.377 . S
C2420 C2422 1.384 . S
C2421 C2420 1.377 . S
C2421 C2427 1.390 . S
C2422 H2413 0.930 . S
C2422 C2420 1.384 . S
C2422 C2423 1.372 . S
C2423 C2422 1.372 . S
C2423 C2424 1.400 . S
C2423 C2428 1.490 . S
C2424 H2414 0.930 . S
C2424 C2423 1.400 . S
C2424 C2427 1.386 . S
H2425 C2441 0.930 . S
H2426 C2442 0.931 . S
C2427 H2415 0.929 . S
C2427 C2421 1.390 . S
C2427 C2424 1.386 . S
C2428 C2423 1.490 . S
C2428 C2430 1.395 . S
C2428 C2431 1.403 . S
H2429 C2435 0.930 . S
C2430 H2416 0.930 . S
C2430 C2428 1.395 . S
C2430 C2433 1.403 . S
C2431 C2428 1.403 . S
C2431 C2432 1.524 . S
C2431 C2435 1.400 . S
C2432 H2417 0.960 . S
C2432 H2418 0.960 . S
C2432 H2419 0.960 . S
C2432 C2431 1.524 . S
C2433 C2430 1.403 . S
C2433 C2434 1.392 . S
C2433 C2437 1.495 . S
C2434 C2433 1.392 . S
C2434 C2435 1.385 . S
C2434 C2436 1.478 . S
C2435 H2429 0.930 . S
C2435 C2431 1.400 . S
C2435 C2434 1.385 . S
C2436 C2434 1.478 . S
C2436 C2438 1.381 . S
C2436 C2442 1.383 . S
C2437 C2433 1.495 . S
C2437 H2443 0.959 . S
C2437 H2444 0.961 . S
C2437 H2445 0.960 . S
C2438 C2436 1.381 . S
C2438 C2439 1.394 . S
C2438 H2446 0.930 . S
C2439 C2438 1.394 . S
C2439 C2440 1.383 . S
C2439 H2447 0.929 . S
C2440 C2439 1.383 . S
C2440 C2441 1.377 . S
C2441 H2425 0.930 . S
C2441 C2440 1.377 . S
C2441 C2442 1.379 . S
C2442 H2426 0.931 . S
C2442 C2436 1.383 . S
C2442 C2441 1.379 . S
H2443 C2437 0.959 . S
H2444 C2437 0.961 . S
H2445 C2437 0.960 . S
H2446 C2438 0.930 . S
H2447 C2439 0.929 . S
H2448 C2456 0.929 . S
H2449 C2458 0.930 . S
H2450 C2460 0.930 . S
H2451 C2463 0.929 . S
H2452 C2466 0.930 . S
H2453 C2468 0.960 . S
H2454 C2468 0.960 . S
H2455 C2468 0.960 . S
C2456 H2448 0.929 . S
C2456 C2457 1.377 . S
C2456 C2458 1.384 . S
C2457 C2456 1.377 . S
C2457 C2463 1.390 . S
C2458 H2449 0.930 . S
C2458 C2456 1.384 . S
C2458 C2459 1.372 . S
C2459 C2458 1.372 . S
C2459 C2460 1.400 . S
C2459 C2464 1.490 . S
C2460 H2450 0.930 . S
C2460 C2459 1.400 . S
C2460 C2463 1.386 . S
H2461 C2477 0.930 . S
H2462 C2478 0.931 . S
C2463 H2451 0.929 . S
C2463 C2457 1.390 . S
C2463 C2460 1.386 . S
C2464 C2459 1.490 . S
C2464 C2466 1.395 . S
C2464 C2467 1.403 . S
H2465 C2471 0.930 . S
C2466 H2452 0.930 . S
C2466 C2464 1.395 . S
C2466 C2469 1.403 . S
C2467 C2464 1.403 . S
C2467 C2468 1.524 . S
C2467 C2471 1.400 . S
C2468 H2453 0.960 . S
C2468 H2454 0.960 . S
C2468 H2455 0.960 . S
C2468 C2467 1.524 . S
C2469 C2466 1.403 . S
C2469 C2470 1.392 . S
C2469 C2473 1.495 . S
C2470 C2469 1.392 . S
C2470 C2471 1.385 . S
C2470 C2472 1.478 . S
C2471 H2465 0.930 . S
C2471 C2467 1.400 . S
C2471 C2470 1.385 . S
C2472 C2470 1.478 . S
C2472 C2474 1.381 . S
C2472 C2478 1.383 . S
C2473 C2469 1.495 . S
C2473 H2479 0.959 . S
C2473 H2480 0.961 . S
C2473 H2481 0.960 . S
C2474 C2472 1.381 . S
C2474 C2475 1.394 . S
C2474 H2482 0.930 . S
C2475 C2474 1.394 . S
C2475 C2476 1.383 . S
C2475 H2483 0.929 . S
C2476 C2475 1.383 . S
C2476 C2477 1.377 . S
C2477 H2461 0.930 . S
C2477 C2476 1.377 . S
C2477 C2478 1.379 . S
C2478 H2462 0.931 . S
C2478 C2472 1.383 . S
C2478 C2477 1.379 . S
H2479 C2473 0.959 . S
H2480 C2473 0.961 . S
H2481 C2473 0.960 . S
H2482 C2474 0.930 . S
H2483 C2475 0.929 . S
H2484 C2492 0.929 . S
H2485 C2494 0.930 . S
H2486 C2496 0.930 . S
H2487 C2499 0.929 . S
H2488 C2502 0.930 . S
H2489 C2504 0.960 . S
H2490 C2504 0.960 . S
H2491 C2504 0.960 . S
C2492 H2484 0.929 . S
C2492 C2493 1.377 . S
C2492 C2494 1.384 . S
C2493 C2492 1.377 . S
C2493 C2499 1.390 . S
C2494 H2485 0.930 . S
C2494 C2492 1.384 . S
C2494 C2495 1.372 . S
C2495 C2494 1.372 . S
C2495 C2496 1.400 . S
C2495 C2500 1.490 . S
C2496 H2486 0.930 . S
C2496 C2495 1.400 . S
C2496 C2499 1.386 . S
H2497 C2513 0.930 . S
H2498 C2514 0.931 . S
C2499 H2487 0.929 . S
C2499 C2493 1.390 . S
C2499 C2496 1.386 . S
C2500 C2495 1.490 . S
C2500 C2502 1.395 . S
C2500 C2503 1.403 . S
H2501 C2507 0.930 . S
C2502 H2488 0.930 . S
C2502 C2500 1.395 . S
C2502 C2505 1.403 . S
C2503 C2500 1.403 . S
C2503 C2504 1.524 . S
C2503 C2507 1.400 . S
C2504 H2489 0.960 . S
C2504 H2490 0.960 . S
C2504 H2491 0.960 . S
C2504 C2503 1.524 . S
C2505 C2502 1.403 . S
C2505 C2506 1.392 . S
C2505 C2509 1.495 . S
C2506 C2505 1.392 . S
C2506 C2507 1.385 . S
C2506 C2508 1.478 . S
C2507 H2501 0.930 . S
C2507 C2503 1.400 . S
C2507 C2506 1.385 . S
C2508 C2506 1.478 . S
C2508 C2510 1.381 . S
C2508 C2514 1.383 . S
C2509 C2505 1.495 . S
C2509 H2515 0.959 . S
C2509 H2516 0.961 . S
C2509 H2517 0.960 . S
C2510 C2508 1.381 . S
C2510 C2511 1.394 . S
C2510 H2518 0.930 . S
C2511 C2510 1.394 . S
C2511 C2512 1.383 . S
C2511 H2519 0.929 . S
C2512 C2511 1.383 . S
C2512 C2513 1.377 . S
C2513 H2497 0.930 . S
C2513 C2512 1.377 . S
C2513 C2514 1.379 . S
C2514 H2498 0.931 . S
C2514 C2508 1.383 . S
C2514 C2513 1.379 . S
H2515 C2509 0.959 . S
H2516 C2509 0.961 . S
H2517 C2509 0.960 . S
H2518 C2510 0.930 . S
H2519 C2511 0.929 . S
H2520 C2528 0.929 . S
H2521 C2530 0.930 . S
H2522 C2532 0.930 . S
H2523 C2535 0.929 . S
H2524 C2538 0.930 . S
H2525 C2540 0.960 . S
H2526 C2540 0.960 . S
H2527 C2540 0.960 . S
C2528 H2520 0.929 . S
C2528 C2529 1.377 . S
C2528 C2530 1.384 . S
C2529 C2528 1.377 . S
C2529 C2535 1.390 . S
C2530 H2521 0.930 . S
C2530 C2528 1.384 . S
C2530 C2531 1.372 . S
C2531 C2530 1.372 . S
C2531 C2532 1.400 . S
C2531 C2536 1.490 . S
C2532 H2522 0.930 . S
C2532 C2531 1.400 . S
C2532 C2535 1.386 . S
H2533 C2549 0.930 . S
H2534 C2550 0.931 . S
C2535 H2523 0.929 . S
C2535 C2529 1.390 . S
C2535 C2532 1.386 . S
C2536 C2531 1.490 . S
C2536 C2538 1.395 . S
C2536 C2539 1.403 . S
H2537 C2543 0.930 . S
C2538 H2524 0.930 . S
C2538 C2536 1.395 . S
C2538 C2541 1.403 . S
C2539 C2536 1.403 . S
C2539 C2540 1.524 . S
C2539 C2543 1.400 . S
C2540 H2525 0.960 . S
C2540 H2526 0.960 . S
C2540 H2527 0.960 . S
C2540 C2539 1.524 . S
C2541 C2538 1.403 . S
C2541 C2542 1.392 . S
C2541 C2545 1.495 . S
C2542 C2541 1.392 . S
C2542 C2543 1.385 . S
C2542 C2544 1.478 . S
C2543 H2537 0.930 . S
C2543 C2539 1.400 . S
C2543 C2542 1.385 . S
C2544 C2542 1.478 . S
C2544 C2546 1.381 . S
C2544 C2550 1.383 . S
C2545 C2541 1.495 . S
C2545 H2551 0.959 . S
C2545 H2552 0.961 . S
C2545 H2553 0.960 . S
C2546 C2544 1.381 . S
C2546 C2547 1.394 . S
C2546 H2554 0.930 . S
C2547 C2546 1.394 . S
C2547 C2548 1.383 . S
C2547 H2555 0.929 . S
C2548 C2547 1.383 . S
C2548 C2549 1.377 . S
C2549 H2533 0.930 . S
C2549 C2548 1.377 . S
C2549 C2550 1.379 . S
C2550 H2534 0.931 . S
C2550 C2544 1.383 . S
C2550 C2549 1.379 . S
H2551 C2545 0.959 . S
H2552 C2545 0.961 . S
H2553 C2545 0.960 . S
H2554 C2546 0.930 . S
H2555 C2547 0.929 . S
H2556 C2564 0.929 . S
H2557 C2566 0.930 . S
H2558 C2568 0.930 . S
H2559 C2571 0.929 . S
H2560 C2574 0.930 . S
H2561 C2576 0.960 . S
H2562 C2576 0.960 . S
H2563 C2576 0.960 . S
C2564 H2556 0.929 . S
C2564 C2565 1.377 . S
C2564 C2566 1.384 . S
C2565 C2564 1.377 . S
C2565 C2571 1.390 . S
C2566 H2557 0.930 . S
C2566 C2564 1.384 . S
C2566 C2567 1.372 . S
C2567 C2566 1.372 . S
C2567 C2568 1.400 . S
C2567 C2572 1.490 . S
C2568 H2558 0.930 . S
C2568 C2567 1.400 . S
C2568 C2571 1.386 . S
H2569 C2585 0.930 . S
H2570 C2586 0.931 . S
C2571 H2559 0.929 . S
C2571 C2565 1.390 . S
C2571 C2568 1.386 . S
C2572 C2567 1.490 . S
C2572 C2574 1.395 . S
C2572 C2575 1.403 . S
H2573 C2579 0.930 . S
C2574 H2560 0.930 . S
C2574 C2572 1.395 . S
C2574 C2577 1.403 . S
C2575 C2572 1.403 . S
C2575 C2576 1.524 . S
C2575 C2579 1.400 . S
C2576 H2561 0.960 . S
C2576 H2562 0.960 . S
C2576 H2563 0.960 . S
C2576 C2575 1.524 . S
C2577 C2574 1.403 . S
C2577 C2578 1.392 . S
C2577 C2581 1.495 . S
C2578 C2577 1.392 . S
C2578 C2579 1.385 . S
C2578 C2580 1.478 . S
C2579 H2573 0.930 . S
C2579 C2575 1.400 . S
C2579 C2578 1.385 . S
C2580 C2578 1.478 . S
C2580 C2582 1.381 . S
C2580 C2586 1.383 . S
C2581 C2577 1.495 . S
C2581 H2587 0.959 . S
C2581 H2588 0.961 . S
C2581 H2589 0.960 . S
C2582 C2580 1.381 . S
C2582 C2583 1.394 . S
C2582 H2590 0.930 . S
C2583 C2582 1.394 . S
C2583 C2584 1.383 . S
C2583 H2591 0.929 . S
C2584 C2583 1.383 . S
C2584 C2585 1.377 . S
C2585 H2569 0.930 . S
C2585 C2584 1.377 . S
C2585 C2586 1.379 . S
C2586 H2570 0.931 . S
C2586 C2580 1.383 . S
C2586 C2585 1.379 . S
H2587 C2581 0.959 . S
H2588 C2581 0.961 . S
H2589 C2581 0.960 . S
H2590 C2582 0.930 . S
H2591 C2583 0.929 . S
H2592 C2600 0.929 . S
H2593 C2602 0.930 . S
H2594 C2604 0.930 . S
H2595 C2607 0.929 . S
H2596 C2610 0.930 . S
H2597 C2612 0.960 . S
H2598 C2612 0.960 . S
H2599 C2612 0.960 . S
C2600 H2592 0.929 . S
C2600 C2601 1.377 . S
C2600 C2602 1.384 . S
C2601 C2600 1.377 . S
C2601 C2607 1.390 . S
C2602 H2593 0.930 . S
C2602 C2600 1.384 . S
C2602 C2603 1.372 . S
C2603 C2602 1.372 . S
C2603 C2604 1.400 . S
C2603 C2608 1.490 . S
C2604 H2594 0.930 . S
C2604 C2603 1.400 . S
C2604 C2607 1.386 . S
H2605 C2621 0.930 . S
H2606 C2622 0.931 . S
C2607 H2595 0.929 . S
C2607 C2601 1.390 . S
C2607 C2604 1.386 . S
C2608 C2603 1.490 . S
C2608 C2610 1.395 . S
C2608 C2611 1.403 . S
H2609 C2615 0.930 . S
C2610 H2596 0.930 . S
C2610 C2608 1.395 . S
C2610 C2613 1.403 . S
C2611 C2608 1.403 . S
C2611 C2612 1.524 . S
C2611 C2615 1.400 . S
C2612 H2597 0.960 . S
C2612 H2598 0.960 . S
C2612 H2599 0.960 . S
C2612 C2611 1.524 . S
C2613 C2610 1.403 . S
C2613 C2614 1.392 . S
C2613 C2617 1.495 . S
C2614 C2613 1.392 . S
C2614 C2615 1.385 . S
C2614 C2616 1.478 . S
C2615 H2609 0.930 . S
C2615 C2611 1.400 . S
C2615 C2614 1.385 . S
C2616 C2614 1.478 . S
C2616 C2618 1.381 . S
C2616 C2622 1.383 . S
C2617 C2613 1.495 . S
C2617 H2623 0.959 . S
C2617 H2624 0.961 . S
C2617 H2625 0.960 . S
C2618 C2616 1.381 . S
C2618 C2619 1.394 . S
C2618 H2626 0.930 . S
C2619 C2618 1.394 . S
C2619 C2620 1.383 . S
C2619 H2627 0.929 . S
C2620 C2619 1.383 . S
C2620 C2621 1.377 . S
C2621 H2605 0.930 . S
C2621 C2620 1.377 . S
C2621 C2622 1.379 . S
C2622 H2606 0.931 . S
C2622 C2616 1.383 . S
C2622 C2621 1.379 . S
H2623 C2617 0.959 . S
H2624 C2617 0.961 . S
H2625 C2617 0.960 . S
H2626 C2618 0.930 . S
H2627 C2619 0.929 . S
H2628 C2636 0.929 . S
H2629 C2638 0.930 . S
H2630 C2640 0.930 . S
H2631 C2643 0.929 . S
H2632 C2646 0.930 . S
H2633 C2648 0.960 . S
H2634 C2648 0.960 . S
H2635 C2648 0.960 . S
C2636 H2628 0.929 . S
C2636 C2637 1.377 . S
C2636 C2638 1.384 . S
C2637 C2636 1.377 . S
C2637 C2643 1.390 . S
C2638 H2629 0.930 . S
C2638 C2636 1.384 . S
C2638 C2639 1.372 . S
C2639 C2638 1.372 . S
C2639 C2640 1.400 . S
C2639 C2644 1.490 . S
C2640 H2630 0.930 . S
C2640 C2639 1.400 . S
C2640 C2643 1.386 . S
H2641 C2657 0.930 . S
H2642 C2658 0.931 . S
C2643 H2631 0.929 . S
C2643 C2637 1.390 . S
C2643 C2640 1.386 . S
C2644 C2639 1.490 . S
C2644 C2646 1.395 . S
C2644 C2647 1.403 . S
H2645 C2651 0.930 . S
C2646 H2632 0.930 . S
C2646 C2644 1.395 . S
C2646 C2649 1.403 . S
C2647 C2644 1.403 . S
C2647 C2648 1.524 . S
C2647 C2651 1.400 . S
C2648 H2633 0.960 . S
C2648 H2634 0.960 . S
C2648 H2635 0.960 . S
C2648 C2647 1.524 . S
C2649 C2646 1.403 . S
C2649 C2650 1.392 . S
C2649 C2653 1.495 . S
C2650 C2649 1.392 . S
C2650 C2651 1.385 . S
C2650 C2652 1.478 . S
C2651 H2645 0.930 . S
C2651 C2647 1.400 . S
C2651 C2650 1.385 . S
C2652 C2650 1.478 . S
C2652 C2654 1.381 . S
C2652 C2658 1.383 . S
C2653 C2649 1.495 . S
C2653 H2659 0.959 . S
C2653 H2660 0.961 . S
C2653 H2661 0.960 . S
C2654 C2652 1.381 . S
C2654 C2655 1.394 . S
C2654 H2662 0.930 . S
C2655 C2654 1.394 . S
C2655 C2656 1.383 . S
C2655 H2663 0.929 . S
C2656 C2655 1.383 . S
C2656 C2657 1.377 . S
C2657 H2641 0.930 . S
C2657 C2656 1.377 . S
C2657 C2658 1.379 . S
C2658 H2642 0.931 . S
C2658 C2652 1.383 . S
C2658 C2657 1.379 . S
H2659 C2653 0.959 . S
H2660 C2653 0.961 . S
H2661 C2653 0.960 . S
H2662 C2654 0.930 . S
H2663 C2655 0.929 . S
H2664 C2672 0.929 . S
H2665 C2674 0.930 . S
H2666 C2676 0.930 . S
H2667 C2679 0.929 . S
H2668 C2682 0.930 . S
H2669 C2684 0.960 . S
H2670 C2684 0.960 . S
H2671 C2684 0.960 . S
C2672 H2664 0.929 . S
C2672 C2673 1.377 . S
C2672 C2674 1.384 . S
C2673 C2672 1.377 . S
C2673 C2679 1.390 . S
C2674 H2665 0.930 . S
C2674 C2672 1.384 . S
C2674 C2675 1.372 . S
C2675 C2674 1.372 . S
C2675 C2676 1.400 . S
C2675 C2680 1.490 . S
C2676 H2666 0.930 . S
C2676 C2675 1.400 . S
C2676 C2679 1.386 . S
H2677 C2693 0.930 . S
H2678 C2694 0.931 . S
C2679 H2667 0.929 . S
C2679 C2673 1.390 . S
C2679 C2676 1.386 . S
C2680 C2675 1.490 . S
C2680 C2682 1.395 . S
C2680 C2683 1.403 . S
H2681 C2687 0.930 . S
C2682 H2668 0.930 . S
C2682 C2680 1.395 . S
C2682 C2685 1.403 . S
C2683 C2680 1.403 . S
C2683 C2684 1.524 . S
C2683 C2687 1.400 . S
C2684 H2669 0.960 . S
C2684 H2670 0.960 . S
C2684 H2671 0.960 . S
C2684 C2683 1.524 . S
C2685 C2682 1.403 . S
C2685 C2686 1.392 . S
C2685 C2689 1.495 . S
C2686 C2685 1.392 . S
C2686 C2687 1.385 . S
C2686 C2688 1.478 . S
C2687 H2681 0.930 . S
C2687 C2683 1.400 . S
C2687 C2686 1.385 . S
C2688 C2686 1.478 . S
C2688 C2690 1.381 . S
C2688 C2694 1.383 . S
C2689 C2685 1.495 . S
C2689 H2695 0.959 . S
C2689 H2696 0.961 . S
C2689 H2697 0.960 . S
C2690 C2688 1.381 . S
C2690 C2691 1.394 . S
C2690 H2698 0.930 . S
C2691 C2690 1.394 . S
C2691 C2692 1.383 . S
C2691 H2699 0.929 . S
C2692 C2691 1.383 . S
C2692 C2693 1.377 . S
C2693 H2677 0.930 . S
C2693 C2692 1.377 . S
C2693 C2694 1.379 . S
C2694 H2678 0.931 . S
C2694 C2688 1.383 . S
C2694 C2693 1.379 . S
H2695 C2689 0.959 . S
H2696 C2689 0.961 . S
H2697 C2689 0.960 . S
H2698 C2690 0.930 . S
H2699 C2691 0.929 . S
H2700 C2708 0.929 . S
H2701 C2710 0.930 . S
H2702 C2712 0.930 . S
H2703 C2715 0.929 . S
H2704 C2718 0.930 . S
H2705 C2720 0.960 . S
H2706 C2720 0.960 . S
H2707 C2720 0.960 . S
C2708 H2700 0.929 . S
C2708 C2709 1.377 . S
C2708 C2710 1.384 . S
C2709 C2708 1.377 . S
C2709 C2715 1.390 . S
C2710 H2701 0.930 . S
C2710 C2708 1.384 . S
C2710 C2711 1.372 . S
C2711 C2710 1.372 . S
C2711 C2712 1.400 . S
C2711 C2716 1.490 . S
C2712 H2702 0.930 . S
C2712 C2711 1.400 . S
C2712 C2715 1.386 . S
H2713 C2729 0.930 . S
H2714 C2730 0.931 . S
C2715 H2703 0.929 . S
C2715 C2709 1.390 . S
C2715 C2712 1.386 . S
C2716 C2711 1.490 . S
C2716 C2718 1.395 . S
C2716 C2719 1.403 . S
H2717 C2723 0.930 . S
C2718 H2704 0.930 . S
C2718 C2716 1.395 . S
C2718 C2721 1.403 . S
C2719 C2716 1.403 . S
C2719 C2720 1.524 . S
C2719 C2723 1.400 . S
C2720 H2705 0.960 . S
C2720 H2706 0.960 . S
C2720 H2707 0.960 . S
C2720 C2719 1.524 . S
C2721 C2718 1.403 . S
C2721 C2722 1.392 . S
C2721 C2725 1.495 . S
C2722 C2721 1.392 . S
C2722 C2723 1.385 . S
C2722 C2724 1.478 . S
C2723 H2717 0.930 . S
C2723 C2719 1.400 . S
C2723 C2722 1.385 . S
C2724 C2722 1.478 . S
C2724 C2726 1.381 . S
C2724 C2730 1.383 . S
C2725 C2721 1.495 . S
C2725 H2731 0.959 . S
C2725 H2732 0.961 . S
C2725 H2733 0.960 . S
C2726 C2724 1.381 . S
C2726 C2727 1.394 . S
C2726 H2734 0.930 . S
C2727 C2726 1.394 . S
C2727 C2728 1.383 . S
C2727 H2735 0.929 . S
C2728 C2727 1.383 . S
C2728 C2729 1.377 . S
C2729 H2713 0.930 . S
C2729 C2728 1.377 . S
C2729 C2730 1.379 . S
C2730 H2714 0.931 . S
C2730 C2724 1.383 . S
C2730 C2729 1.379 . S
H2731 C2725 0.959 . S
H2732 C2725 0.961 . S
H2733 C2725 0.960 . S
H2734 C2726 0.930 . S
H2735 C2727 0.929 . S
H2736 C2744 0.929 . S
H2737 C2746 0.930 . S
H2738 C2748 0.930 . S
H2739 C2751 0.929 . S
H2740 C2754 0.930 . S
H2741 C2756 0.960 . S
H2742 C2756 0.960 . S
H2743 C2756 0.960 . S
C2744 H2736 0.929 . S
C2744 C2745 1.377 . S
C2744 C2746 1.384 . S
C2745 C2744 1.377 . S
C2745 C2751 1.390 . S
C2746 H2737 0.930 . S
C2746 C2744 1.384 . S
C2746 C2747 1.372 . S
C2747 C2746 1.372 . S
C2747 C2748 1.400 . S
C2747 C2752 1.490 . S
C2748 H2738 0.930 . S
C2748 C2747 1.400 . S
C2748 C2751 1.386 . S
H2749 C2765 0.930 . S
H2750 C2766 0.931 . S
C2751 H2739 0.929 . S
C2751 C2745 1.390 . S
C2751 C2748 1.386 . S
C2752 C2747 1.490 . S
C2752 C2754 1.395 . S
C2752 C2755 1.403 . S
H2753 C2759 0.930 . S
C2754 H2740 0.930 . S
C2754 C2752 1.395 . S
C2754 C2757 1.403 . S
C2755 C2752 1.403 . S
C2755 C2756 1.524 1_554 S
C2755 C2759 1.400 . S
C2756 H2741 0.960 . S
C2756 H2742 0.960 . S
C2756 H2743 0.960 . S
C2756 C2755 1.524 1_556 S
C2757 C2754 1.403 . S
C2757 C2758 1.392 . S
C2757 C2761 1.495 . S
C2758 C2757 1.392 . S
C2758 C2759 1.385 . S
C2758 C2760 1.478 . S
C2759 H2753 0.930 . S
C2759 C2755 1.400 . S
C2759 C2758 1.385 . S
C2760 C2758 1.478 . S
C2760 C2762 1.381 . S
C2760 C2766 1.383 . S
C2761 C2757 1.495 . S
C2761 H2767 0.959 . S
C2761 H2768 0.961 . S
C2761 H2769 0.960 . S
C2762 C2760 1.381 . S
C2762 C2763 1.394 . S
C2762 H2770 0.930 . S
C2763 C2762 1.394 . S
C2763 C2764 1.383 . S
C2763 H2771 0.929 . S
C2764 C2763 1.383 . S
C2764 C2765 1.377 . S
C2765 H2749 0.930 . S
C2765 C2764 1.377 . S
C2765 C2766 1.379 . S
C2766 H2750 0.931 . S
C2766 C2760 1.383 . S
C2766 C2765 1.379 . S
H2767 C2761 0.959 . S
H2768 C2761 0.961 . S
H2769 C2761 0.960 . S
H2770 C2762 0.930 . S
H2771 C2763 0.929 . S
H2772 C2780 0.929 . S
H2773 C2782 0.930 . S
H2774 C2784 0.930 . S
H2775 C2787 0.929 . S
H2776 C2790 0.930 . S
H2777 C2792 0.960 . S
H2778 C2792 0.960 1_556 S
H2779 C2792 0.960 . S
C2780 H2772 0.929 . S
C2780 C2781 1.377 . S
C2780 C2782 1.384 . S
C2781 C2780 1.377 . S
C2781 C2787 1.390 . S
C2782 H2773 0.930 . S
C2782 C2780 1.384 . S
C2782 C2783 1.372 . S
C2783 C2782 1.372 . S
C2783 C2784 1.400 . S
C2783 C2788 1.490 . S
C2784 H2774 0.930 . S
C2784 C2783 1.400 . S
C2784 C2787 1.386 . S
H2785 C2801 0.930 . S
H2786 C2802 0.931 . S
C2787 H2775 0.929 . S
C2787 C2781 1.390 . S
C2787 C2784 1.386 . S
C2788 C2783 1.490 . S
C2788 C2790 1.395 . S
C2788 C2791 1.403 . S
H2789 C2795 0.930 . S
C2790 H2776 0.930 . S
C2790 C2788 1.395 . S
C2790 C2793 1.403 . S
C2791 C2788 1.403 . S
C2791 C2792 1.524 . S
C2791 C2795 1.400 . S
C2792 H2777 0.960 . S
C2792 H2778 0.960 1_554 S
C2792 H2779 0.960 . S
C2792 C2791 1.524 . S
C2793 C2790 1.403 . S
C2793 C2794 1.392 . S
C2793 C2797 1.495 . S
C2794 C2793 1.392 . S
C2794 C2795 1.385 . S
C2794 C2796 1.478 . S
C2795 H2789 0.930 . S
C2795 C2791 1.400 . S
C2795 C2794 1.385 . S
C2796 C2794 1.478 . S
C2796 C2798 1.381 . S
C2796 C2802 1.383 . S
C2797 C2793 1.495 . S
C2797 H2803 0.959 . S
C2797 H2804 0.961 . S
C2797 H2805 0.960 . S
C2798 C2796 1.381 . S
C2798 C2799 1.394 . S
C2798 H2806 0.930 . S
C2799 C2798 1.394 . S
C2799 C2800 1.383 . S
C2799 H2807 0.929 . S
C2800 C2799 1.383 . S
C2800 C2801 1.377 . S
C2801 H2785 0.930 . S
C2801 C2800 1.377 . S
C2801 C2802 1.379 . S
C2802 H2786 0.931 . S
C2802 C2796 1.383 . S
C2802 C2801 1.379 . S
H2803 C2797 0.959 . S
H2804 C2797 0.961 . S
H2805 C2797 0.960 . S
H2806 C2798 0.930 . S
H2807 C2799 0.929 . S
H2808 C2816 0.929 . S
H2809 C2818 0.930 . S
H2810 C2820 0.930 . S
H2811 C2823 0.929 . S
H2812 C2826 0.930 . S
H2813 C2828 0.960 . S
H2814 C2828 0.960 . S
H2815 C2828 0.960 . S
C2816 H2808 0.929 . S
C2816 C2817 1.377 . S
C2816 C2818 1.384 . S
C2817 C2816 1.377 . S
C2817 C2823 1.390 . S
C2818 H2809 0.930 . S
C2818 C2816 1.384 . S
C2818 C2819 1.372 . S
C2819 C2818 1.372 . S
C2819 C2820 1.400 . S
C2819 C2824 1.490 . S
C2820 H2810 0.930 . S
C2820 C2819 1.400 . S
C2820 C2823 1.386 . S
H2821 C2837 0.930 . S
H2822 C2838 0.931 . S
C2823 H2811 0.929 . S
C2823 C2817 1.390 . S
C2823 C2820 1.386 . S
C2824 C2819 1.490 . S
C2824 C2826 1.395 . S
C2824 C2827 1.403 . S
H2825 C2831 0.930 . S
C2826 H2812 0.930 . S
C2826 C2824 1.395 . S
C2826 C2829 1.403 . S
C2827 C2824 1.403 . S
C2827 C2828 1.524 1_554 S
C2827 C2831 1.400 . S
C2828 H2813 0.960 . S
C2828 H2814 0.960 . S
C2828 H2815 0.960 . S
C2828 C2827 1.524 1_556 S
C2829 C2826 1.403 . S
C2829 C2830 1.392 . S
C2829 C2833 1.495 . S
C2830 C2829 1.392 . S
C2830 C2831 1.385 . S
C2830 C2832 1.478 . S
C2831 H2825 0.930 . S
C2831 C2827 1.400 . S
C2831 C2830 1.385 . S
C2832 C2830 1.478 . S
C2832 C2834 1.381 . S
C2832 C2838 1.383 . S
C2833 C2829 1.495 . S
C2833 H2839 0.959 . S
C2833 H2840 0.961 . S
C2833 H2841 0.960 . S
C2834 C2832 1.381 . S
C2834 C2835 1.394 . S
C2834 H2842 0.930 . S
C2835 C2834 1.394 . S
C2835 C2836 1.383 . S
C2835 H2843 0.929 . S
C2836 C2835 1.383 . S
C2836 C2837 1.377 . S
C2837 H2821 0.930 . S
C2837 C2836 1.377 . S
C2837 C2838 1.379 . S
C2838 H2822 0.931 . S
C2838 C2832 1.383 . S
C2838 C2837 1.379 . S
H2839 C2833 0.959 . S
H2840 C2833 0.961 . S
H2841 C2833 0.960 . S
H2842 C2834 0.930 . S
H2843 C2835 0.929 . S
H2844 C2852 0.929 . S
H2845 C2854 0.930 . S
H2846 C2856 0.930 . S
H2847 C2859 0.929 . S
H2848 C2862 0.930 . S
H2849 C2864 0.960 . S
H2850 C2864 0.960 . S
H2851 C2864 0.960 . S
C2852 H2844 0.929 . S
C2852 C2853 1.377 . S
C2852 C2854 1.384 . S
C2853 C2852 1.377 . S
C2853 C2859 1.390 . S
C2854 H2845 0.930 . S
C2854 C2852 1.384 . S
C2854 C2855 1.372 . S
C2855 C2854 1.372 . S
C2855 C2856 1.400 . S
C2855 C2860 1.490 . S
C2856 H2846 0.930 . S
C2856 C2855 1.400 . S
C2856 C2859 1.386 . S
H2857 C2873 0.930 . S
H2858 C2874 0.931 . S
C2859 H2847 0.929 . S
C2859 C2853 1.390 . S
C2859 C2856 1.386 . S
C2860 C2855 1.490 . S
C2860 C2862 1.395 . S
C2860 C2863 1.403 . S
H2861 C2867 0.930 . S
C2862 H2848 0.930 . S
C2862 C2860 1.395 . S
C2862 C2865 1.403 . S
C2863 C2860 1.403 . S
C2863 C2864 1.524 . S
C2863 C2867 1.400 . S
C2864 H2849 0.960 . S
C2864 H2850 0.960 . S
C2864 H2851 0.960 . S
C2864 C2863 1.524 . S
C2865 C2862 1.403 . S
C2865 C2866 1.392 . S
C2865 C2869 1.495 . S
C2866 C2865 1.392 . S
C2866 C2867 1.385 . S
C2866 C2868 1.478 . S
C2867 H2861 0.930 . S
C2867 C2863 1.400 . S
C2867 C2866 1.385 . S
C2868 C2866 1.478 . S
C2868 C2870 1.381 . S
C2868 C2874 1.383 . S
C2869 C2865 1.495 . S
C2869 H2875 0.959 . S
C2869 H2876 0.961 . S
C2869 H2877 0.960 . S
C2870 C2868 1.381 . S
C2870 C2871 1.394 . S
C2870 H2878 0.930 . S
C2871 C2870 1.394 . S
C2871 C2872 1.383 . S
C2871 H2879 0.929 . S
C2872 C2871 1.383 . S
C2872 C2873 1.377 . S
C2873 H2857 0.930 . S
C2873 C2872 1.377 . S
C2873 C2874 1.379 . S
C2874 H2858 0.931 . S
C2874 C2868 1.383 . S
C2874 C2873 1.379 . S
H2875 C2869 0.959 . S
H2876 C2869 0.961 . S
H2877 C2869 0.960 . S
H2878 C2870 0.930 . S
H2879 C2871 0.929 . S
H2880 C2888 0.929 . S
H2881 C2890 0.930 . S
H2882 C2892 0.930 1_554 S
H2883 C2895 0.929 1_554 S
H2884 C2898 0.930 . S
H2885 C2900 0.960 . S
H2886 C2900 0.960 . S
H2887 C2900 0.960 1_554 S
C2888 H2880 0.929 . S
C2888 C2889 1.377 . S
C2888 C2890 1.384 . S
C2889 C2888 1.377 . S
C2889 C2895 1.390 . S
C2890 H2881 0.930 . S
C2890 C2888 1.384 . S
C2890 C2891 1.372 . S
C2891 C2890 1.372 . S
C2891 C2892 1.400 . S
C2891 C2896 1.490 . S
C2892 H2882 0.930 1_556 S
C2892 C2891 1.400 . S
C2892 C2895 1.386 . S
H2893 C2909 0.930 1_554 S
H2894 C2910 0.931 . S
C2895 H2883 0.929 1_556 S
C2895 C2889 1.390 . S
C2895 C2892 1.386 . S
C2896 C2891 1.490 . S
C2896 C2898 1.395 . S
C2896 C2899 1.403 . S
H2897 C2903 0.930 . S
C2898 H2884 0.930 . S
C2898 C2896 1.395 . S
C2898 C2901 1.403 . S
C2899 C2896 1.403 . S
C2899 C2900 1.524 . S
C2899 C2903 1.400 . S
C2900 H2885 0.960 . S
C2900 H2886 0.960 . S
C2900 H2887 0.960 1_556 S
C2900 C2899 1.524 . S
C2901 C2898 1.403 . S
C2901 C2902 1.392 . S
C2901 C2905 1.495 . S
C2902 C2901 1.392 . S
C2902 C2903 1.385 . S
C2902 C2904 1.478 . S
C2903 H2897 0.930 . S
C2903 C2899 1.400 . S
C2903 C2902 1.385 . S
C2904 C2902 1.478 . S
C2904 C2906 1.381 . S
C2904 C2910 1.383 . S
C2905 C2901 1.495 . S
C2905 H2911 0.959 . S
C2905 H2912 0.961 . S
C2905 H2913 0.960 . S
C2906 C2904 1.381 . S
C2906 C2907 1.394 . S
C2906 H2914 0.930 . S
C2907 C2906 1.394 . S
C2907 C2908 1.383 . S
C2907 H2915 0.929 . S
C2908 C2907 1.383 . S
C2908 C2909 1.377 . S
C2909 H2893 0.930 1_556 S
C2909 C2908 1.377 . S
C2909 C2910 1.379 . S
C2910 H2894 0.931 . S
C2910 C2904 1.383 . S
C2910 C2909 1.379 . S
H2911 C2905 0.959 . S
H2912 C2905 0.961 . S
H2913 C2905 0.960 . S
H2914 C2906 0.930 . S
H2915 C2907 0.929 . S
H2916 C2924 0.929 . S
H2917 C2926 0.930 . S
H2918 C2928 0.930 . S
H2919 C2931 0.929 . S
H2920 C2934 0.930 . S
H2921 C2936 0.960 . S
H2922 C2936 0.960 1_554 S
H2923 C2936 0.960 . S
C2924 H2916 0.929 . S
C2924 C2925 1.377 . S
C2924 C2926 1.384 . S
C2925 C2924 1.377 . S
C2925 C2931 1.390 . S
C2926 H2917 0.930 . S
C2926 C2924 1.384 . S
C2926 C2927 1.372 . S
C2927 C2926 1.372 . S
C2927 C2928 1.400 . S
C2927 C2932 1.490 . S
C2928 H2918 0.930 . S
C2928 C2927 1.400 . S
C2928 C2931 1.386 . S
H2929 C2945 0.930 . S
H2930 C2946 0.931 . S
C2931 H2919 0.929 . S
C2931 C2925 1.390 . S
C2931 C2928 1.386 . S
C2932 C2927 1.490 . S
C2932 C2934 1.395 . S
C2932 C2935 1.403 . S
H2933 C2939 0.930 . S
C2934 H2920 0.930 . S
C2934 C2932 1.395 . S
C2934 C2937 1.403 . S
C2935 C2932 1.403 . S
C2935 C2936 1.524 . S
C2935 C2939 1.400 . S
C2936 H2921 0.960 . S
C2936 H2922 0.960 1_556 S
C2936 H2923 0.960 . S
C2936 C2935 1.524 . S
C2937 C2934 1.403 . S
C2937 C2938 1.392 . S
C2937 C2941 1.495 . S
C2938 C2937 1.392 . S
C2938 C2939 1.385 . S
C2938 C2940 1.478 . S
C2939 H2933 0.930 . S
C2939 C2935 1.400 . S
C2939 C2938 1.385 . S
C2940 C2938 1.478 . S
C2940 C2942 1.381 . S
C2940 C2946 1.383 . S
C2941 C2937 1.495 . S
C2941 H2947 0.959 . S
C2941 H2948 0.961 . S
C2941 H2949 0.960 . S
C2942 C2940 1.381 . S
C2942 C2943 1.394 . S
C2942 H2950 0.930 . S
C2943 C2942 1.394 . S
C2943 C2944 1.383 . S
C2943 H2951 0.929 . S
C2944 C2943 1.383 . S
C2944 C2945 1.377 . S
C2945 H2929 0.930 . S
C2945 C2944 1.377 . S
C2945 C2946 1.379 . S
C2946 H2930 0.931 . S
C2946 C2940 1.383 . S
C2946 C2945 1.379 . S
H2947 C2941 0.959 . S
H2948 C2941 0.961 . S
H2949 C2941 0.960 . S
H2950 C2942 0.930 . S
H2951 C2943 0.929 . S
H2952 C2960 0.929 . S
H2953 C2962 0.930 . S
H2954 C2964 0.930 . S
H2955 C2967 0.929 . S
H2956 C2970 0.930 . S
H2957 C2972 0.960 . S
H2958 C2972 0.960 . S
H2959 C2972 0.960 . S
C2960 H2952 0.929 . S
C2960 C2961 1.377 . S
C2960 C2962 1.384 . S
C2961 C2960 1.377 . S
C2961 C2967 1.390 . S
C2962 H2953 0.930 . S
C2962 C2960 1.384 . S
C2962 C2963 1.372 . S
C2963 C2962 1.372 . S
C2963 C2964 1.400 . S
C2963 C2968 1.490 . S
C2964 H2954 0.930 . S
C2964 C2963 1.400 . S
C2964 C2967 1.386 . S
H2965 C2981 0.930 . S
H2966 C2982 0.931 . S
C2967 H2955 0.929 . S
C2967 C2961 1.390 . S
C2967 C2964 1.386 . S
C2968 C2963 1.490 . S
C2968 C2970 1.395 . S
C2968 C2971 1.403 . S
H2969 C2975 0.930 . S
C2970 H2956 0.930 . S
C2970 C2968 1.395 . S
C2970 C2973 1.403 . S
C2971 C2968 1.403 . S
C2971 C2972 1.524 . S
C2971 C2975 1.400 . S
C2972 H2957 0.960 . S
C2972 H2958 0.960 . S
C2972 H2959 0.960 . S
C2972 C2971 1.524 . S
C2973 C2970 1.403 . S
C2973 C2974 1.392 . S
C2973 C2977 1.495 . S
C2974 C2973 1.392 . S
C2974 C2975 1.385 . S
C2974 C2976 1.478 . S
C2975 H2969 0.930 . S
C2975 C2971 1.400 . S
C2975 C2974 1.385 . S
C2976 C2974 1.478 . S
C2976 C2978 1.381 . S
C2976 C2982 1.383 . S
C2977 C2973 1.495 . S
C2977 H2983 0.959 . S
C2977 H2984 0.961 . S
C2977 H2985 0.960 . S
C2978 C2976 1.381 . S
C2978 C2979 1.394 . S
C2978 H2986 0.930 . S
C2979 C2978 1.394 . S
C2979 C2980 1.383 . S
C2979 H2987 0.929 . S
C2980 C2979 1.383 . S
C2980 C2981 1.377 . S
C2981 H2965 0.930 . S
C2981 C2980 1.377 . S
C2981 C2982 1.379 . S
C2982 H2966 0.931 . S
C2982 C2976 1.383 . S
C2982 C2981 1.379 . S
H2983 C2977 0.959 . S
H2984 C2977 0.961 . S
H2985 C2977 0.960 . S
H2986 C2978 0.930 . S
H2987 C2979 0.929 . S
H2988 C2996 0.929 . S
H2989 C2998 0.930 . S
H2990 C3000 0.930 . S
H2991 C3003 0.929 . S
H2992 C3006 0.930 . S
H2993 C3008 0.960 . S
H2994 C3008 0.960 . S
H2995 C3008 0.960 . S
C2996 H2988 0.929 . S
C2996 C2997 1.377 . S
C2996 C2998 1.384 . S
C2997 C2996 1.377 . S
C2997 C3003 1.390 . S
C2998 H2989 0.930 . S
C2998 C2996 1.384 . S
C2998 C2999 1.372 . S
C2999 C2998 1.372 . S
C2999 C3000 1.400 . S
C2999 C3004 1.490 . S
C3000 H2990 0.930 . S
C3000 C2999 1.400 . S
C3000 C3003 1.386 . S
H3001 C3017 0.930 . S
H3002 C3018 0.931 . S
C3003 H2991 0.929 . S
C3003 C2997 1.390 . S
C3003 C3000 1.386 . S
C3004 C2999 1.490 . S
C3004 C3006 1.395 . S
C3004 C3007 1.403 . S
H3005 C3011 0.930 . S
C3006 H2992 0.930 . S
C3006 C3004 1.395 . S
C3006 C3009 1.403 . S
C3007 C3004 1.403 . S
C3007 C3008 1.524 . S
C3007 C3011 1.400 . S
C3008 H2993 0.960 . S
C3008 H2994 0.960 . S
C3008 H2995 0.960 . S
C3008 C3007 1.524 . S
C3009 C3006 1.403 . S
C3009 C3010 1.392 . S
C3009 C3013 1.495 . S
C3010 C3009 1.392 . S
C3010 C3011 1.385 . S
C3010 C3012 1.478 . S
C3011 H3005 0.930 . S
C3011 C3007 1.400 . S
C3011 C3010 1.385 . S
C3012 C3010 1.478 . S
C3012 C3014 1.381 . S
C3012 C3018 1.383 . S
C3013 C3009 1.495 . S
C3013 H3019 0.959 . S
C3013 H3020 0.961 . S
C3013 H3021 0.960 . S
C3014 C3012 1.381 . S
C3014 C3015 1.394 . S
C3014 H3022 0.930 . S
C3015 C3014 1.394 . S
C3015 C3016 1.383 . S
C3015 H3023 0.929 . S
C3016 C3015 1.383 . S
C3016 C3017 1.377 . S
C3017 H3001 0.930 . S
C3017 C3016 1.377 . S
C3017 C3018 1.379 . S
C3018 H3002 0.931 . S
C3018 C3012 1.383 . S
C3018 C3017 1.379 . S
H3019 C3013 0.959 . S
H3020 C3013 0.961 . S
H3021 C3013 0.960 . S
H3022 C3014 0.930 . S
H3023 C3015 0.929 . S
H3024 C3032 0.929 . S
H3025 C3034 0.930 . S
H3026 C3036 0.930 . S
H3027 C3039 0.929 . S
H3028 C3042 0.930 . S
H3029 C3044 0.960 . S
H3030 C3044 0.960 . S
H3031 C3044 0.960 . S
C3032 H3024 0.929 . S
C3032 C3033 1.377 . S
C3032 C3034 1.384 . S
C3033 C3032 1.377 . S
C3033 C3039 1.390 . S
C3034 H3025 0.930 . S
C3034 C3032 1.384 . S
C3034 C3035 1.372 . S
C3035 C3034 1.372 . S
C3035 C3036 1.400 . S
C3035 C3040 1.490 . S
C3036 H3026 0.930 . S
C3036 C3035 1.400 . S
C3036 C3039 1.386 . S
H3037 C3053 0.930 . S
H3038 C3054 0.931 . S
C3039 H3027 0.929 . S
C3039 C3033 1.390 . S
C3039 C3036 1.386 . S
C3040 C3035 1.490 . S
C3040 C3042 1.395 . S
C3040 C3043 1.403 . S
H3041 C3047 0.930 . S
C3042 H3028 0.930 . S
C3042 C3040 1.395 . S
C3042 C3045 1.403 . S
C3043 C3040 1.403 . S
C3043 C3044 1.524 . S
C3043 C3047 1.400 . S
C3044 H3029 0.960 . S
C3044 H3030 0.960 . S
C3044 H3031 0.960 . S
C3044 C3043 1.524 . S
C3045 C3042 1.403 . S
C3045 C3046 1.392 . S
C3045 C3049 1.495 . S
C3046 C3045 1.392 . S
C3046 C3047 1.385 . S
C3046 C3048 1.478 . S
C3047 H3041 0.930 . S
C3047 C3043 1.400 . S
C3047 C3046 1.385 . S
C3048 C3046 1.478 . S
C3048 C3050 1.381 . S
C3048 C3054 1.383 . S
C3049 C3045 1.495 . S
C3049 H3055 0.959 . S
C3049 H3056 0.961 . S
C3049 H3057 0.960 . S
C3050 C3048 1.381 . S
C3050 C3051 1.394 . S
C3050 H3058 0.930 . S
C3051 C3050 1.394 . S
C3051 C3052 1.383 . S
C3051 H3059 0.929 . S
C3052 C3051 1.383 . S
C3052 C3053 1.377 . S
C3053 H3037 0.930 . S
C3053 C3052 1.377 . S
C3053 C3054 1.379 . S
C3054 H3038 0.931 . S
C3054 C3048 1.383 . S
C3054 C3053 1.379 . S
H3055 C3049 0.959 . S
H3056 C3049 0.961 . S
H3057 C3049 0.960 . S
H3058 C3050 0.930 . S
H3059 C3051 0.929 . S
C477 C75 1.660 . S
C496 C10 1.654 . S
C513 C43 1.664 . S
C532 C23 1.657 . S
C549 C30 1.665 . S
C568 C62 1.662 . S
C585 C82 1.662 . S
C604 C147 1.664 . S
C621 C101 1.660 . S
C640 C121 1.671 . S
C657 C140 1.664 . S
C676 C114 1.651 . S
C693 C160 1.660 . S
C712 C225 1.648 1_556 S
C729 C173 1.660 . S
C748 C199 1.655 1_556 S
C765 C192 1.660 . S
C784 C218 1.648 1_556 S
C801 C309 1.663 . S
C820 C244 1.662 1_556 S
C837 C257 1.664 1_556 S
C856 C283 1.655 . S
C873 C290 1.663 . S
C892 C264 1.654 1_556 S
C909 C381 1.661 . S
C928 C316 1.647 1_554 S
C945 C355 1.660 . S
C964 C335 1.654 1_554 S
C981 C368 1.660 . S
C1000 C348 1.655 1_554 S
C1017 C400 1.660 . S
C1036 C465 1.671 1_554 S
C1053 C413 1.664 . S
C1072 C439 1.650 1_554 S
C1089 C426 1.661 . S
C1108 C446 1.666 1_554 S
C1125 C69 1.496 . S
C1144 C4 1.495 . S
C1161 C17 1.496 . S
C1180 C49 1.494 . S
C1197 C56 1.495 . S
C1216 C36 1.493 . S
C1233 C88 1.495 . S
C1252 C153 1.494 . S
C1269 C95 1.496 . S
C1288 C127 1.490 . S
C1305 C134 1.496 . S
C1324 C108 1.491 . S
C1341 C166 1.496 . S
C1360 C231 1.494 . S
C1377 C205 1.496 . S
C1396 C179 1.491 . S
C1413 C212 1.496 . S
C1432 C186 1.494 . S
C1449 C238 1.496 . S
C1468 C303 1.495 . S
C1485 C251 1.496 . S
C1504 C277 1.493 . S
C1521 C296 1.495 . S
C1540 C270 1.490 . S
C1557 C387 1.496 . S
C1576 C322 1.491 . S
C1593 C329 1.496 . S
C1612 C361 1.495 . S
C1629 C342 1.495 . S
C1648 C374 1.490 . S
C1665 C459 1.496 . S
C1684 C394 1.495 . S
C1701 C433 1.496 . S
C1720 C407 1.490 . S
C1737 C452 1.496 . S
C1756 C420 1.493 . S
C1773 C211 1.798 . S
C1792 C3 1.798 . S
C1809 C226 1.799 . S
C1828 C16 1.793 . S
C1845 C200 1.799 . S
C1864 C31 1.798 . S
C1881 C44 1.798 . S
C1900 C341 1.798 . S
C1917 C55 1.799 . S
C1936 C317 1.791 . S
C1953 C68 1.798 . S
C1972 C328 1.797 . S
C1989 C83 1.798 . S
C2008 C447 1.798 . S
C2025 C94 1.798 . S
C2044 C458 1.798 . S
C2061 C107 1.799 . S
C2080 C432 1.792 . S
C2097 C122 1.798 . S
C2116 C265 1.796 . S
C2133 C237 1.799 . S
C2152 C133 1.791 . S
C2169 C250 1.799 . S
C2188 C148 1.792 . S
C2205 C369 1.798 . S
C2224 C161 1.798 . S
C2241 C174 1.799 . S
C2260 C382 1.791 . S
C2277 C185 1.799 . S
C2296 C356 1.791 . S
C2313 C276 1.798 . S
C2332 C419 1.796 . S
C2349 C291 1.798 . S
C2368 C393 1.794 . S
C2385 C406 1.798 . S
C2404 C302 1.798 . S
C2421 C5 1.267 . S
C2440 C135 1.256 . S
C2457 C146 1.266 . S
C2476 C18 1.272 . S
C2493 C120 1.264 . S
C2512 C29 1.270 . S
C2529 C42 1.264 . S
C2548 C109 1.270 . S
C2565 C57 1.264 . S
C2584 C81 1.264 . S
C2601 C70 1.268 . S
C2620 C96 1.257 . S
C2637 C159 1.267 . S
C2656 C289 1.253 . S
C2673 C304 1.265 . S
C2692 C172 1.264 . S
C2709 C278 1.265 . S
C2728 C187 1.271 . S
C2745 C198 1.266 . S
C2764 C263 1.253 . S
C2781 C213 1.267 . S
C2800 C239 1.254 . S
C2817 C252 1.268 . S
C2836 C224 1.257 . S
C2853 C315 1.267 . S
C2872 C445 1.255 . S
C2889 C460 1.266 . S
C2908 C330 1.255 . S
C2925 C343 1.267 . S
C2944 C434 1.255 . S
C2961 C354 1.267 . S
C2980 C421 1.254 . S
C2997 C395 1.264 . S
C3016 C367 1.263 . S
C3033 C380 1.268 . S
C3052 C408 1.269 . S
