# Generated by pormake.
# Topology ict, (4)-cn, num edge types: 1
# Building blocks:
#     Node 0, Type 0, BuildingBlock: KUFVIS_clean_sbu_0, # of connection points: 4
#     Node 1, Type 0, BuildingBlock: KUFVIS_clean_sbu_0, # of connection points: 4
#     Node 2, Type 0, BuildingBlock: KUFVIS_clean_sbu_0, # of connection points: 4
#     Node 3, Type 0, BuildingBlock: KUFVIS_clean_sbu_0, # of connection points: 4
#     Node 4, Type 0, BuildingBlock: KUFVIS_clean_sbu_0, # of connection points: 4
#     Node 5, Type 0, BuildingBlock: KUFVIS_clean_sbu_0, # of connection points: 4
#     Node 6, Type 0, BuildingBlock: KUFVIS_clean_sbu_0, # of connection points: 4
#     Node 7, Type 0, BuildingBlock: KUFVIS_clean_sbu_0, # of connection points: 4
#     Node 8, Type 0, BuildingBlock: KUFVIS_clean_sbu_0, # of connection points: 4
#     Node 9, Type 0, BuildingBlock: KUFVIS_clean_sbu_0, # of connection points: 4
#     Node 10, Type 0, BuildingBlock: KUFVIS_clean_sbu_0, # of connection points: 4
#     Node 11, Type 0, BuildingBlock: KUFVIS_clean_sbu_0, # of connection points: 4
#     Node 12, Type 0, BuildingBlock: KUFVIS_clean_sbu_0, # of connection points: 4
#     Node 13, Type 0, BuildingBlock: KUFVIS_clean_sbu_0, # of connection points: 4
#     Node 14, Type 0, BuildingBlock: KUFVIS_clean_sbu_0, # of connection points: 4
#     Node 15, Type 0, BuildingBlock: KUFVIS_clean_sbu_0, # of connection points: 4
#     Node 16, Type 0, BuildingBlock: KUFVIS_clean_sbu_0, # of connection points: 4
#     Node 17, Type 0, BuildingBlock: KUFVIS_clean_sbu_0, # of connection points: 4
#     Node 18, Type 0, BuildingBlock: KUFVIS_clean_sbu_0, # of connection points: 4
#     Node 19, Type 0, BuildingBlock: KUFVIS_clean_sbu_0, # of connection points: 4
#     Node 20, Type 0, BuildingBlock: KUFVIS_clean_sbu_0, # of connection points: 4
#     Node 21, Type 0, BuildingBlock: KUFVIS_clean_sbu_0, # of connection points: 4
#     Node 22, Type 0, BuildingBlock: KUFVIS_clean_sbu_0, # of connection points: 4
#     Node 23, Type 0, BuildingBlock: KUFVIS_clean_sbu_0, # of connection points: 4
#     Node 24, Type 0, BuildingBlock: KUFVIS_clean_sbu_0, # of connection points: 4
#     Node 25, Type 0, BuildingBlock: KUFVIS_clean_sbu_0, # of connection points: 4
#     Node 26, Type 0, BuildingBlock: KUFVIS_clean_sbu_0, # of connection points: 4
#     Node 27, Type 0, BuildingBlock: KUFVIS_clean_sbu_0, # of connection points: 4
#     Node 28, Type 0, BuildingBlock: KUFVIS_clean_sbu_0, # of connection points: 4
#     Node 29, Type 0, BuildingBlock: KUFVIS_clean_sbu_0, # of connection points: 4
#     Node 30, Type 0, BuildingBlock: KUFVIS_clean_sbu_0, # of connection points: 4
#     Node 31, Type 0, BuildingBlock: KUFVIS_clean_sbu_0, # of connection points: 4
#     Node 32, Type 0, BuildingBlock: KUFVIS_clean_sbu_0, # of connection points: 4
#     Node 33, Type 0, BuildingBlock: KUFVIS_clean_sbu_0, # of connection points: 4
#     Node 34, Type 0, BuildingBlock: KUFVIS_clean_sbu_0, # of connection points: 4
#     Node 35, Type 0, BuildingBlock: KUFVIS_clean_sbu_0, # of connection points: 4
#     Edge 36, Type (0, 0), BuildingBlock: OJICUG_clean_linker_0, # of connection points: 2
#     Edge 37, Type (0, 0), BuildingBlock: OJICUG_clean_linker_0, # of connection points: 2
#     Edge 38, Type (0, 0), BuildingBlock: OJICUG_clean_linker_0, # of connection points: 2
#     Edge 39, Type (0, 0), BuildingBlock: OJICUG_clean_linker_0, # of connection points: 2
#     Edge 40, Type (0, 0), BuildingBlock: OJICUG_clean_linker_0, # of connection points: 2
#     Edge 41, Type (0, 0), BuildingBlock: OJICUG_clean_linker_0, # of connection points: 2
#     Edge 42, Type (0, 0), BuildingBlock: OJICUG_clean_linker_0, # of connection points: 2
#     Edge 43, Type (0, 0), BuildingBlock: OJICUG_clean_linker_0, # of connection points: 2
#     Edge 44, Type (0, 0), BuildingBlock: OJICUG_clean_linker_0, # of connection points: 2
#     Edge 45, Type (0, 0), BuildingBlock: OJICUG_clean_linker_0, # of connection points: 2
#     Edge 46, Type (0, 0), BuildingBlock: OJICUG_clean_linker_0, # of connection points: 2
#     Edge 47, Type (0, 0), BuildingBlock: OJICUG_clean_linker_0, # of connection points: 2
#     Edge 48, Type (0, 0), BuildingBlock: OJICUG_clean_linker_0, # of connection points: 2
#     Edge 49, Type (0, 0), BuildingBlock: OJICUG_clean_linker_0, # of connection points: 2
#     Edge 50, Type (0, 0), BuildingBlock: OJICUG_clean_linker_0, # of connection points: 2
#     Edge 51, Type (0, 0), BuildingBlock: OJICUG_clean_linker_0, # of connection points: 2
#     Edge 52, Type (0, 0), BuildingBlock: OJICUG_clean_linker_0, # of connection points: 2
#     Edge 53, Type (0, 0), BuildingBlock: OJICUG_clean_linker_0, # of connection points: 2
#     Edge 54, Type (0, 0), BuildingBlock: OJICUG_clean_linker_0, # of connection points: 2
#     Edge 55, Type (0, 0), BuildingBlock: OJICUG_clean_linker_0, # of connection points: 2
#     Edge 56, Type (0, 0), BuildingBlock: OJICUG_clean_linker_0, # of connection points: 2
#     Edge 57, Type (0, 0), BuildingBlock: OJICUG_clean_linker_0, # of connection points: 2
#     Edge 58, Type (0, 0), BuildingBlock: OJICUG_clean_linker_0, # of connection points: 2
#     Edge 59, Type (0, 0), BuildingBlock: OJICUG_clean_linker_0, # of connection points: 2
#     Edge 60, Type (0, 0), BuildingBlock: OJICUG_clean_linker_0, # of connection points: 2
#     Edge 61, Type (0, 0), BuildingBlock: OJICUG_clean_linker_0, # of connection points: 2
#     Edge 62, Type (0, 0), BuildingBlock: OJICUG_clean_linker_0, # of connection points: 2
#     Edge 63, Type (0, 0), BuildingBlock: OJICUG_clean_linker_0, # of connection points: 2
#     Edge 64, Type (0, 0), BuildingBlock: OJICUG_clean_linker_0, # of connection points: 2
#     Edge 65, Type (0, 0), BuildingBlock: OJICUG_clean_linker_0, # of connection points: 2
#     Edge 66, Type (0, 0), BuildingBlock: OJICUG_clean_linker_0, # of connection points: 2
#     Edge 67, Type (0, 0), BuildingBlock: OJICUG_clean_linker_0, # of connection points: 2
#     Edge 68, Type (0, 0), BuildingBlock: OJICUG_clean_linker_0, # of connection points: 2
#     Edge 69, Type (0, 0), BuildingBlock: OJICUG_clean_linker_0, # of connection points: 2
#     Edge 70, Type (0, 0), BuildingBlock: OJICUG_clean_linker_0, # of connection points: 2
#     Edge 71, Type (0, 0), BuildingBlock: OJICUG_clean_linker_0, # of connection points: 2
#     Edge 72, Type (0, 0), BuildingBlock: OJICUG_clean_linker_0, # of connection points: 2
#     Edge 73, Type (0, 0), BuildingBlock: OJICUG_clean_linker_0, # of connection points: 2
#     Edge 74, Type (0, 0), BuildingBlock: OJICUG_clean_linker_0, # of connection points: 2
#     Edge 75, Type (0, 0), BuildingBlock: OJICUG_clean_linker_0, # of connection points: 2
#     Edge 76, Type (0, 0), BuildingBlock: OJICUG_clean_linker_0, # of connection points: 2
#     Edge 77, Type (0, 0), BuildingBlock: OJICUG_clean_linker_0, # of connection points: 2
#     Edge 78, Type (0, 0), BuildingBlock: OJICUG_clean_linker_0, # of connection points: 2
#     Edge 79, Type (0, 0), BuildingBlock: OJICUG_clean_linker_0, # of connection points: 2
#     Edge 80, Type (0, 0), BuildingBlock: OJICUG_clean_linker_0, # of connection points: 2
#     Edge 81, Type (0, 0), BuildingBlock: OJICUG_clean_linker_0, # of connection points: 2
#     Edge 82, Type (0, 0), BuildingBlock: OJICUG_clean_linker_0, # of connection points: 2
#     Edge 83, Type (0, 0), BuildingBlock: OJICUG_clean_linker_0, # of connection points: 2
#     Edge 84, Type (0, 0), BuildingBlock: OJICUG_clean_linker_0, # of connection points: 2
#     Edge 85, Type (0, 0), BuildingBlock: OJICUG_clean_linker_0, # of connection points: 2
#     Edge 86, Type (0, 0), BuildingBlock: OJICUG_clean_linker_0, # of connection points: 2
#     Edge 87, Type (0, 0), BuildingBlock: OJICUG_clean_linker_0, # of connection points: 2
#     Edge 88, Type (0, 0), BuildingBlock: OJICUG_clean_linker_0, # of connection points: 2
#     Edge 89, Type (0, 0), BuildingBlock: OJICUG_clean_linker_0, # of connection points: 2
#     Edge 90, Type (0, 0), BuildingBlock: OJICUG_clean_linker_0, # of connection points: 2
#     Edge 91, Type (0, 0), BuildingBlock: OJICUG_clean_linker_0, # of connection points: 2
#     Edge 92, Type (0, 0), BuildingBlock: OJICUG_clean_linker_0, # of connection points: 2
#     Edge 93, Type (0, 0), BuildingBlock: OJICUG_clean_linker_0, # of connection points: 2
#     Edge 94, Type (0, 0), BuildingBlock: OJICUG_clean_linker_0, # of connection points: 2
#     Edge 95, Type (0, 0), BuildingBlock: OJICUG_clean_linker_0, # of connection points: 2
#     Edge 96, Type (0, 0), BuildingBlock: OJICUG_clean_linker_0, # of connection points: 2
#     Edge 97, Type (0, 0), BuildingBlock: OJICUG_clean_linker_0, # of connection points: 2
#     Edge 98, Type (0, 0), BuildingBlock: OJICUG_clean_linker_0, # of connection points: 2
#     Edge 99, Type (0, 0), BuildingBlock: OJICUG_clean_linker_0, # of connection points: 2
#     Edge 100, Type (0, 0), BuildingBlock: OJICUG_clean_linker_0, # of connection points: 2
#     Edge 101, Type (0, 0), BuildingBlock: OJICUG_clean_linker_0, # of connection points: 2
#     Edge 102, Type (0, 0), BuildingBlock: OJICUG_clean_linker_0, # of connection points: 2
#     Edge 103, Type (0, 0), BuildingBlock: OJICUG_clean_linker_0, # of connection points: 2
#     Edge 104, Type (0, 0), BuildingBlock: OJICUG_clean_linker_0, # of connection points: 2
#     Edge 105, Type (0, 0), BuildingBlock: OJICUG_clean_linker_0, # of connection points: 2
#     Edge 106, Type (0, 0), BuildingBlock: OJICUG_clean_linker_0, # of connection points: 2
#     Edge 107, Type (0, 0), BuildingBlock: OJICUG_clean_linker_0, # of connection points: 2
# Relax obj value: 0.085
# Max RMSD: 0.112
# Mean RMSD: 0.112
data_MOF--net-ict--node1-KUFVIS_clean_sbu_0--edge1-OJICUG_clean_linker_0
_symmetry_space_group_name_H-M    P1
_symmetry_Int_Tables_number       1
_symmetry_cell_setting            triclinic
loop_
_symmetry_equiv_pos_as_xyz
'x, y, z'
_cell_length_a     46.742834
_cell_length_b     46.746682
_cell_length_c     26.642
_cell_angle_alpha  90.003764
_cell_angle_beta   89.998749
_cell_angle_gamma 120.00068
loop_
_atom_site_label
_atom_site_type_symbol
_atom_site_fract_x
_atom_site_fract_y
_atom_site_fract_z
_atom_type_partial_charge
Mn0 Mn 0.23317 0.22637 0.07642 0.0
Mn1 Mn 0.20289 0.20177 0.95951 0.0
C2 C 0.19656 0.24116 0.04068 0.0
C3 C 0.2302 0.22007 0.1641 0.0
C4 C 0.27407 0.25442 0.98092 0.0
O5 O 0.24167 0.18763 0.06314 0.0
O6 O 0.2155 0.1706 0.98828 0.0
C7 C 0.14157 0.14044 0.98746 0.0
N8 N 0.15674 0.17011 0.96337 0.0
C9 C 0.10444 0.16349 0.93737 0.0
C10 C 0.08832 0.13247 0.96078 0.0
C11 C 0.10698 0.121 0.98619 0.0
C12 C 0.139 0.18169 0.93968 0.0
H13 H 0.15572 0.13198 1.00822 0.0
C14 C 0.23102 0.16757 0.02575 0.0
O15 O 0.25789 0.23863 0.14106 0.0
O16 O 0.20432 0.20346 0.13603 0.0
N17 N 0.18936 0.22997 0.92818 0.0
C18 C 0.20845 0.26159 0.91165 0.0
C19 C 0.19349 0.27736 0.8872 0.0
C20 C 0.15911 0.26047 0.87995 0.0
C21 C 0.13998 0.22791 0.89718 0.0
C22 C 0.15631 0.21331 0.92069 0.0
H23 H 0.23487 0.27468 0.91712 0.0
O24 O 0.21602 0.25858 0.07696 0.0
O25 O 0.19991 0.21659 0.02644 0.0
O26 O 0.27059 0.25525 0.02822 0.0
O27 O 0.25055 0.23499 0.95175 0.0
C28 C 0.10528 0.20968 0.8931 0.0
C29 C 0.08751 0.17755 0.91339 0.0
H30 H 0.06162 0.11758 0.96039 0.0
H31 H 0.0947 0.09738 1.0052 0.0
H32 H 0.2084 0.30253 0.87413 0.0
H33 H 0.14763 0.27286 0.8616 0.0
H34 H 0.09194 0.22039 0.87539 0.0
H35 H 0.06079 0.1641 0.91112 0.0
Mn36 Mn 0.78473 0.00892 0.07622 0.0
Mn37 Mn 0.80929 1.00317 0.95931 0.0
C38 C 0.76984 0.9575 0.04048 0.0
C39 C 0.79103 0.01224 0.1639 0.0
C40 C 0.75678 0.0219 0.98071 0.0
O41 O 0.82354 0.05611 0.06293 0.0
O42 O 0.84057 0.0469 0.98812 0.0
C43 C 0.8705 1.00293 0.98726 0.0
N44 N 0.84083 0.98853 0.96318 0.0
C45 C 0.84725 0.94273 0.93716 0.0
C46 C 0.87827 0.95753 0.96058 0.0
C47 C 0.88984 0.98767 0.986 0.0
C48 C 0.82916 0.9592 0.93947 0.0
H49 H 0.87904 0.02556 1.00803 0.0
C50 C 0.84363 0.06548 0.02557 0.0
O51 O 0.77251 0.02142 0.14087 0.0
O52 O 0.8076 1.00292 0.13582 0.0
N53 N 0.78098 0.96147 0.92798 0.0
C54 C 0.74936 0.94903 0.91146 0.0
C55 C 0.7335 0.9183 0.887 0.0
C56 C 0.75029 0.90072 0.87973 0.0
C57 C 0.78285 0.91405 0.89695 0.0
C58 C 0.79754 0.94499 0.92048 0.0
H59 H 0.73635 0.96244 0.91694 0.0
O60 O 0.75244 0.95957 0.07675 0.0
O61 O 0.79443 0.9854 0.02624 0.0
O62 O 0.7559 0.01753 0.02801 0.0
O63 O 0.77619 0.01777 0.95156 0.0
C64 C 0.80098 0.89748 0.89286 0.0
C65 C 0.8331 0.91174 0.91316 0.0
H66 H 0.89308 0.94564 0.96019 0.0
H67 H 0.91346 0.99895 1.00501 0.0
H68 H 0.70834 0.90813 0.87393 0.0
H69 H 0.73782 0.87685 0.86137 0.0
H70 H 0.79019 0.87344 0.87514 0.0
H71 H 0.84647 0.89839 0.91088 0.0
Mn72 Mn 1.00265 0.77838 0.07636 0.0
Mn73 Mn 0.00845 0.80866 0.95942 0.0
C74 C 0.05409 0.8149 0.04065 0.0
C75 C 0.9993 0.78138 0.16403 0.0
C76 C 0.98972 0.73743 0.98088 0.0
O77 O 0.95546 0.76999 0.06301 0.0
O78 O 0.96469 0.79619 0.98817 0.0
C79 C 0.00866 0.8701 0.98727 0.0
N80 N 0.02307 0.85483 0.96324 0.0
C81 C 0.06888 0.90705 0.93723 0.0
C82 C 0.05406 0.92326 0.96059 0.0
C83 C 0.02391 0.90469 0.98598 0.0
C84 C 0.05242 0.87249 0.93956 0.0
H85 H 0.98602 0.85601 1.00802 0.0
C86 C 0.94611 0.7807 0.02562 0.0
O87 O 0.99012 0.75368 0.14101 0.0
O88 O 0.00864 0.80727 0.13593 0.0
N89 N 0.05016 0.82204 0.92813 0.0
C90 C 0.06261 0.80287 0.91166 0.0
C91 C 0.09336 0.81773 0.88725 0.0
C92 C 0.11094 0.85211 0.87997 0.0
C93 C 0.09759 0.87133 0.89713 0.0
C94 C 0.06664 0.85509 0.92062 0.0
H95 H 0.0492 0.77645 0.91716 0.0
O96 O 0.052 0.79543 0.07695 0.0
O97 O 0.0262 0.8116 0.02637 0.0
O98 O 0.99406 0.74093 0.02819 0.0
O99 O 0.99386 0.76096 0.9517 0.0
C100 C 0.11416 0.90603 0.89303 0.0
C101 C 0.09988 0.92389 0.91327 0.0
H102 H 0.06594 0.94996 0.96019 0.0
H103 H 0.01262 0.91704 1.00496 0.0
H104 H 0.10355 0.80275 0.87423 0.0
H105 H 0.13482 0.86351 0.86165 0.0
H106 H 0.13822 0.91929 0.87534 0.0
H107 H 0.11323 0.9506 0.91098 0.0
Mn108 Mn 0.22893 0.23078 0.46866 0.0
Mn109 Mn 0.20436 0.20052 0.58558 0.0
C110 C 0.2438 0.19425 0.50445 0.0
C111 C 0.22262 0.22775 0.38098 0.0
C112 C 0.25689 0.27174 0.56413 0.0
O113 O 0.19013 0.23918 0.48191 0.0
O114 O 0.17309 0.21298 0.55674 0.0
C115 C 0.14313 0.13908 0.55768 0.0
N116 N 0.1728 0.15435 0.58177 0.0
C117 C 0.16637 0.10213 0.60783 0.0
C118 C 0.13535 0.08592 0.58442 0.0
C119 C 0.12378 0.10448 0.55898 0.0
C120 C 0.18447 0.13669 0.60549 0.0
H121 H 0.1346 0.15316 0.53689 0.0
C122 C 0.17003 0.22848 0.51926 0.0
O123 O 0.24114 0.25546 0.40398 0.0
O124 O 0.20604 0.20187 0.40908 0.0
N125 N 0.23266 0.18714 0.61695 0.0
C126 C 0.26428 0.20631 0.63346 0.0
C127 C 0.28014 0.19145 0.65793 0.0
C128 C 0.26334 0.15708 0.66522 0.0
C129 C 0.23078 0.13786 0.64802 0.0
C130 C 0.21609 0.1541 0.62448 0.0
H131 H 0.2773 0.23273 0.62796 0.0
O132 O 0.26121 0.2137 0.46816 0.0
O133 O 0.21921 0.19757 0.51867 0.0
O134 O 0.25777 0.26823 0.51683 0.0
O135 O 0.23747 0.24822 0.5933 0.0
C136 C 0.21264 0.10316 0.65213 0.0
C137 C 0.18052 0.0853 0.63185 0.0
H138 H 0.12053 0.05922 0.58483 0.0
H139 H 0.10016 0.09213 0.53997 0.0
H140 H 0.3053 0.20644 0.67099 0.0
H141 H 0.2758 0.14568 0.68359 0.0
H142 H 0.22343 0.0899 0.66986 0.0
H143 H 0.16714 0.05858 0.63414 0.0
Mn144 Mn 0.7804 1.0003 0.46846 0.0
Mn145 Mn 0.81072 0.00602 0.58535 0.0
C146 C 0.81698 0.05171 0.50419 0.0
C147 C 0.78338 0.99698 0.38078 0.0
C148 C 0.7395 0.98736 0.56399 0.0
O149 O 0.77197 0.95309 0.48173 0.0
O150 O 0.7982 0.96227 0.55654 0.0
C151 C 0.87212 0.00617 0.55736 0.0
N152 N 0.85689 0.02061 0.58146 0.0
C153 C 0.90915 0.06636 0.60745 0.0
C154 C 0.92532 0.05153 0.58402 0.0
C155 C 0.90672 0.02139 0.5586 0.0
C156 C 0.87459 0.04993 0.60516 0.0
H157 H 0.85801 0.98355 0.53659 0.0
C158 C 0.78268 0.94371 0.51909 0.0
O159 O 0.75568 0.98782 0.40381 0.0
O160 O 0.80927 0.00628 0.40886 0.0
N161 N 0.82416 0.04772 0.61669 0.0
C162 C 0.80503 0.0602 0.63323 0.0
C163 C 0.81993 0.09093 0.65769 0.0
C164 C 0.85431 0.10848 0.66494 0.0
C165 C 0.87349 0.09511 0.6477 0.0
C166 C 0.85722 0.06418 0.62417 0.0
H167 H 0.7786 0.04681 0.62777 0.0
O168 O 0.79751 0.04966 0.46793 0.0
O169 O 0.81365 0.0238 0.51843 0.0
O170 O 0.74297 0.99171 0.51668 0.0
O171 O 0.76304 0.99147 0.59313 0.0
C172 C 0.9082 0.11164 0.65177 0.0
C173 C 0.92602 0.09735 0.63145 0.0
H174 H 0.95203 0.06339 0.58439 0.0
H175 H 0.91904 0.01009 0.53957 0.0
H176 H 0.80497 0.10113 0.67077 0.0
H177 H 0.86575 0.13235 0.6833 0.0
H178 H 0.92149 0.13569 0.66949 0.0
H179 H 0.95275 0.11067 0.63371 0.0
Mn180 Mn 0.01109 0.78267 0.46859 0.0
Mn181 Mn 1.00534 0.80723 0.58551 0.0
C182 C 0.95967 0.76786 0.50428 0.0
C183 C 0.01445 0.789 0.38092 0.0
C184 C 0.02394 0.75463 0.5641 0.0
O185 O 0.05831 0.82142 0.48192 0.0
O186 O 0.04913 0.83843 0.55678 0.0
C187 C 1.00533 0.86855 0.5576 0.0
N188 N 0.99083 0.83887 0.58164 0.0
C189 C 0.94511 0.84543 0.60759 0.0
C190 C 0.96001 0.87646 0.58422 0.0
C191 C 0.99016 0.88797 0.55886 0.0
C192 C 0.96149 0.82726 0.6053 0.0
H193 H 0.02797 0.87705 0.53688 0.0
C194 C 0.0677 0.84148 0.51933 0.0
O195 O 0.02358 0.77044 0.40396 0.0
O196 O 1.00515 0.80559 0.40899 0.0
N197 N 0.96361 0.779 0.61679 0.0
C198 C 0.95108 0.74737 0.63329 0.0
C199 C 0.92032 0.73157 0.65769 0.0
C200 C 0.90281 0.74843 0.66493 0.0
C201 C 0.91624 0.781 0.64773 0.0
C202 C 0.94719 0.79563 0.62426 0.0
H203 H 0.96443 0.7343 0.62783 0.0
O204 O 0.96172 0.75044 0.46801 0.0
O205 O 0.98758 0.79242 0.51855 0.0
O206 O 0.01962 0.75379 0.51679 0.0
O207 O 0.01982 0.77404 0.59327 0.0
C208 C 0.89974 0.79921 0.65179 0.0
C209 C 0.9141 0.83135 0.63154 0.0
H210 H 0.94819 0.89134 0.5846 0.0
H211 H 1.00151 0.9116 0.53988 0.0
H212 H 0.91008 0.7064 0.67074 0.0
H213 H 0.87893 0.73602 0.68324 0.0
H214 H 0.87569 0.78847 0.66947 0.0
H215 H 0.90081 0.84478 0.63379 0.0
Mn216 Mn 0.78066 0.78275 0.96849 0.0
Mn217 Mn 0.81099 0.80735 0.08538 0.0
C218 C 0.81728 0.76795 1.00417 0.0
C219 C 0.78358 0.78904 0.88081 0.0
C220 C 0.7398 0.75471 0.06404 0.0
O221 O 0.77217 0.82149 0.9818 0.0
O222 O 0.79837 0.83852 0.05663 0.0
C223 C 0.8723 0.86867 0.05737 0.0
N224 N 0.85714 0.83901 0.08146 0.0
C225 C 0.90945 0.84563 0.10739 0.0
C226 C 0.92556 0.87664 0.08396 0.0
C227 C 0.90689 0.88811 0.05859 0.0
C228 C 0.87489 0.82743 0.10512 0.0
H229 H 0.85814 0.87714 0.03663 0.0
C230 C 0.78284 0.84155 1.01919 0.0
O231 O 0.7559 0.77048 0.90388 0.0
O232 O 0.80948 0.80565 0.90886 0.0
N233 N 0.82453 0.77915 0.11668 0.0
C234 C 0.80546 0.74754 0.13323 0.0
C235 C 0.82043 0.73177 0.15766 0.0
C236 C 0.85481 0.74866 0.16486 0.0
C237 C 0.87393 0.78122 0.14762 0.0
C238 C 0.85759 0.79581 0.12413 0.0
H239 H 0.77902 0.73445 0.12779 0.0
O240 O 0.7978 0.75053 0.96791 0.0
O241 O 0.81393 0.79252 1.01843 0.0
O242 O 0.74326 0.75387 1.01673 0.0
O243 O 0.76333 0.77413 0.09319 0.0
C244 C 0.90864 0.79945 0.15165 0.0
C245 C 0.9264 0.83157 0.13135 0.0
H246 H 0.95226 0.89153 0.08432 0.0
H247 H 0.91916 0.91173 0.03957 0.0
H248 H 0.80552 0.70661 0.17074 0.0
H249 H 0.8663 0.73627 0.1832 0.0
H250 H 0.92198 0.78874 0.16935 0.0
H251 H 0.95312 0.84502 0.13358 0.0
Mn252 Mn 0.22915 1.00022 0.96866 0.0
Mn253 Mn 0.20462 0.00596 0.0856 0.0
C254 C 0.24404 0.05164 1.00442 0.0
C255 C 0.2228 0.9969 0.88099 0.0
C256 C 0.25711 0.98721 0.06411 0.0
O257 O 0.19034 0.95303 0.98196 0.0
O258 O 0.17332 0.96224 0.05678 0.0
C259 C 0.14343 0.00626 0.05775 0.0
N260 N 0.17311 0.02063 0.08181 0.0
C261 C 0.16674 0.06645 0.10789 0.0
C262 C 0.13571 0.05167 0.08451 0.0
C263 C 0.12411 0.02154 0.05907 0.0
C264 C 0.18481 0.04996 0.10553 0.0
H265 H 0.13487 0.98363 0.03696 0.0
C266 C 0.17024 0.94367 1.01932 0.0
O267 O 0.24133 0.98772 0.90398 0.0
O268 O 0.20625 0.00623 0.9091 0.0
N269 N 0.23297 0.04765 0.11694 0.0
C270 C 0.26459 0.06006 0.13342 0.0
C271 C 0.28049 0.09079 0.15789 0.0
C272 C 0.26372 0.10839 0.16521 0.0
C273 C 0.23116 0.09508 0.14803 0.0
C274 C 0.21644 0.06415 0.12449 0.0
H275 H 0.27759 0.04664 0.1279 0.0
O276 O 0.26144 0.04957 0.96813 0.0
O277 O 0.21946 0.02374 1.01867 0.0
O278 O 0.258 0.9916 1.01682 0.0
O279 O 0.2377 0.99133 0.09328 0.0
C280 C 0.21305 0.11167 0.15218 0.0
C281 C 0.18092 0.09743 0.13192 0.0
H282 H 0.12091 0.06358 0.08494 0.0
H283 H 0.10048 0.01028 0.04008 0.0
H284 H 0.30566 0.10095 0.17092 0.0
H285 H 0.27621 0.13226 0.18358 0.0
H286 H 0.22386 0.13572 0.16991 0.0
H287 H 0.16756 0.1108 0.13423 0.0
Mn288 Mn 0.01119 0.23077 0.96848 0.0
Mn289 Mn 1.00543 0.20049 0.08541 0.0
C290 C 0.95976 0.19427 1.00422 0.0
C291 C 0.01451 0.22776 0.8808 0.0
C292 C 0.02417 0.27172 0.06396 0.0
O293 O 0.05838 0.23914 0.98178 0.0
O294 O 0.04917 0.21294 0.05663 0.0
C295 C 1.00518 0.13904 0.05752 0.0
N296 N 0.99078 0.15431 0.08158 0.0
C297 C 0.94497 0.1021 0.1076 0.0
C298 C 0.95977 0.08589 0.08421 0.0
C299 C 0.98992 0.10444 0.0588 0.0
C300 C 0.96145 0.13667 0.10528 0.0
H301 H 0.02781 0.15312 0.03675 0.0
C302 C 0.06774 0.22843 1.01916 0.0
O303 O 0.02371 0.25547 0.90382 0.0
O304 O 1.00518 0.20188 0.9089 0.0
N305 N 0.96373 0.18712 0.11673 0.0
C306 C 0.95129 0.2063 0.13322 0.0
C307 C 0.92055 0.19145 0.15766 0.0
C308 C 0.90296 0.15708 0.16494 0.0
C309 C 0.91629 0.13785 0.14775 0.0
C310 C 0.94723 0.15408 0.12424 0.0
H311 H 0.9647 0.23272 0.12773 0.0
O312 O 0.96185 0.21374 0.96793 0.0
O313 O 0.98765 0.19756 1.01847 0.0
O314 O 0.01982 0.26823 1.01666 0.0
O315 O 0.02003 0.24819 0.09313 0.0
C316 C 0.89971 0.10315 0.15185 0.0
C317 C 0.91397 0.08528 0.13159 0.0
H318 H 0.94788 0.05918 0.08461 0.0
H319 H 1.00119 0.09209 0.03981 0.0
H320 H 0.91038 0.20644 0.1707 0.0
H321 H 0.87908 0.14568 0.18328 0.0
H322 H 0.87566 0.08989 0.16956 0.0
H323 H 0.90062 0.05856 0.13387 0.0
Mn324 Mn 0.7847 0.77832 0.57625 0.0
Mn325 Mn 0.80922 0.80854 0.4593 0.0
C326 C 0.76982 0.81484 0.54048 0.0
C327 C 0.79106 0.78136 0.66392 0.0
C328 C 0.7567 0.73733 0.48082 0.0
O329 O 0.8235 0.76991 0.56295 0.0
O330 O 0.84052 0.7961 0.48811 0.0
C331 C 0.87044 0.87001 0.4871 0.0
N332 N 0.84076 0.85472 0.46306 0.0
C333 C 0.84716 0.90691 0.43696 0.0
C334 C 0.87819 0.92315 0.46033 0.0
C335 C 0.88978 0.9046 0.48577 0.0
C336 C 0.82907 0.87235 0.43934 0.0
H337 H 0.879 0.85594 0.50789 0.0
C338 C 0.84358 0.78061 0.52559 0.0
O339 O 0.77252 0.75364 0.64093 0.0
O340 O 0.80762 0.80723 0.6358 0.0
N341 N 0.78088 0.82189 0.42795 0.0
C342 C 0.74926 0.80271 0.4115 0.0
C343 C 0.73337 0.81755 0.38704 0.0
C344 C 0.75016 0.85191 0.37971 0.0
C345 C 0.78273 0.87115 0.39686 0.0
C346 C 0.79744 0.85493 0.42039 0.0
H347 H 0.73625 0.77629 0.41703 0.0
O348 O 0.75243 0.7954 0.57678 0.0
O349 O 0.7944 0.81151 0.52623 0.0
O350 O 0.75584 0.74085 0.52811 0.0
O351 O 0.77612 0.76083 0.45163 0.0
C352 C 0.80085 0.90585 0.39271 0.0
C353 C 0.83299 0.92373 0.41295 0.0
H354 H 0.89301 0.94985 0.45989 0.0
H355 H 0.91342 0.91697 0.50474 0.0
H356 H 0.7082 0.80255 0.37402 0.0
H357 H 0.73768 0.8633 0.36135 0.0
H358 H 0.79005 0.91909 0.37498 0.0
H359 H 0.84636 0.95045 0.41062 0.0
Mn360 Mn 0.23326 0.0088 0.57642 0.0
Mn361 Mn 0.20291 1.00308 0.45955 0.0
C362 C 0.19666 0.95739 0.5407 0.0
C363 C 0.23032 0.01212 0.66411 0.0
C364 C 0.27413 0.02172 0.48086 0.0
O365 O 0.24169 0.05601 0.56316 0.0
O366 O 0.21545 0.04683 0.48836 0.0
C367 C 0.14153 1.00294 0.4876 0.0
N368 N 0.15674 0.9885 0.46347 0.0
C369 C 0.10447 0.94276 0.4375 0.0
C370 C 0.08831 0.9576 0.46096 0.0
C371 C 0.10693 0.98773 0.48637 0.0
C372 C 0.13904 0.95918 0.43977 0.0
H373 H 0.15565 0.02556 0.50837 0.0
C374 C 0.23098 0.06539 0.52581 0.0
O375 O 0.25801 0.02128 0.64105 0.0
O376 O 0.20442 1.00282 0.63605 0.0
N377 N 0.18945 0.96137 0.4282 0.0
C378 C 0.20857 0.94889 0.41164 0.0
C379 C 0.19365 0.91816 0.38717 0.0
C380 C 0.15927 0.90062 0.37994 0.0
C381 C 0.1401 0.914 0.3972 0.0
C382 C 0.15639 0.94492 0.42074 0.0
H383 H 0.235 0.96226 0.41709 0.0
O384 O 0.21615 0.95944 0.57694 0.0
O385 O 0.2 0.9853 0.52647 0.0
O386 O 0.27067 0.01737 0.52817 0.0
O387 O 0.25059 0.01761 0.45173 0.0
C388 C 0.10539 0.89747 0.39316 0.0
C389 C 0.08758 0.91177 0.41349 0.0
H390 H 0.06161 0.94574 0.4606 0.0
H391 H 0.09462 0.99903 0.50542 0.0
H392 H 0.2086 0.90795 0.37407 0.0
H393 H 0.14783 0.87675 0.36158 0.0
H394 H 0.0921 0.87343 0.37543 0.0
H395 H 0.06086 0.89846 0.41125 0.0
Mn396 Mn 1.00255 0.22645 0.57625 0.0
Mn397 Mn 0.00827 0.2019 0.45932 0.0
C398 C 0.05397 0.24127 0.54053 0.0
C399 C 0.99922 0.22013 0.66393 0.0
C400 C 0.98967 0.25449 0.48076 0.0
O401 O 0.95533 0.1877 0.56294 0.0
O402 O 0.9645 0.17069 0.48808 0.0
C403 C 0.00832 0.14059 0.4872 0.0
N404 N 0.0228 0.17027 0.46316 0.0
C405 C 0.06853 0.16372 0.43718 0.0
C406 C 0.05364 0.13269 0.46055 0.0
C407 C 0.0235 0.12118 0.48593 0.0
C408 C 0.05213 0.18188 0.43949 0.0
H409 H 0.98568 0.13209 0.50794 0.0
C410 C 0.94593 0.16764 0.52554 0.0
O411 O 0.99008 0.23868 0.64091 0.0
O412 O 0.00851 0.20354 0.63583 0.0
N413 N 0.05 0.23014 0.42802 0.0
C414 C 0.06252 0.26176 0.41153 0.0
C415 C 0.09327 0.27758 0.38712 0.0
C416 C 0.11079 0.26072 0.37987 0.0
C417 C 0.09737 0.22815 0.39705 0.0
C418 C 0.06643 0.21352 0.42053 0.0
H419 H 0.04916 0.27483 0.41701 0.0
O420 O 0.05192 0.25869 0.57681 0.0
O421 O 0.02605 0.21671 0.52627 0.0
O422 O 0.994 0.25533 0.52807 0.0
O423 O 0.99379 0.23508 0.45159 0.0
C424 C 0.11388 0.20995 0.39297 0.0
C425 C 0.09953 0.17782 0.41322 0.0
H426 H 0.06547 0.11782 0.46016 0.0
H427 H 0.01216 0.09754 0.5049 0.0
H428 H 0.1035 0.30275 0.37408 0.0
H429 H 0.13467 0.27314 0.36154 0.0
H430 H 0.13793 0.2207 0.37528 0.0
H431 H 0.11283 0.16439 0.41095 0.0
Mn432 Mn 0.89958 0.55968 0.40984 0.0
Mn433 Mn 0.86918 0.53506 0.29298 0.0
C434 C 0.86295 0.57448 0.3742 0.0
C435 C 0.89668 0.55341 0.49753 0.0
C436 C 0.94039 0.58769 0.31424 0.0
O437 O 0.90805 0.52093 0.39652 0.0
O438 O 0.88183 0.5039 0.3217 0.0
C439 C 0.8079 0.47373 0.32106 0.0
N440 N 0.82304 0.50339 0.29696 0.0
C441 C 0.77071 0.49676 0.27112 0.0
C442 C 0.75462 0.46575 0.29456 0.0
C443 C 0.77331 0.45428 0.31989 0.0
C444 C 0.80527 0.51496 0.27334 0.0
H445 H 0.82208 0.46527 0.34176 0.0
C446 C 0.89738 0.50087 0.35913 0.0
O447 O 0.92436 0.57195 0.47444 0.0
O448 O 0.87077 0.5368 0.4695 0.0
N449 N 0.85562 0.56324 0.26171 0.0
C450 C 0.87468 0.59485 0.24514 0.0
C451 C 0.85969 0.61061 0.22074 0.0
C452 C 0.8253 0.59372 0.21359 0.0
C453 C 0.80619 0.56116 0.23085 0.0
C454 C 0.82256 0.54658 0.25431 0.0
H455 H 0.90111 0.60794 0.25053 0.0
O456 O 0.88245 0.59191 0.41044 0.0
O457 O 0.86628 0.5499 0.35994 0.0
O458 O 0.93695 0.58853 0.36156 0.0
O459 O 0.91684 0.56827 0.28511 0.0
C460 C 0.77149 0.54292 0.22687 0.0
C461 C 0.75374 0.5108 0.2472 0.0
H462 H 0.72792 0.45085 0.29424 0.0
H463 H 0.76106 0.43067 0.33891 0.0
H464 H 0.87459 0.63577 0.20764 0.0
H465 H 0.81379 0.6061 0.19528 0.0
H466 H 0.75813 0.55363 0.20921 0.0
H467 H 0.72702 0.49735 0.245 0.0
Mn468 Mn 0.45126 0.34209 0.40966 0.0
Mn469 Mn 0.47585 0.33639 0.29275 0.0
C470 C 0.43643 0.29068 0.37391 0.0
C471 C 0.45759 0.34542 0.49733 0.0
C472 C 0.42328 0.35503 0.31417 0.0
O473 O 0.49003 0.3893 0.39637 0.0
O474 O 0.50709 0.38013 0.32156 0.0
C475 C 0.5371 0.33623 0.32066 0.0
N476 N 0.50743 0.3218 0.29659 0.0
C477 C 0.51391 0.27604 0.27054 0.0
C478 C 0.54493 0.29088 0.29395 0.0
C479 C 0.55648 0.32101 0.31938 0.0
C480 C 0.49579 0.29248 0.27287 0.0
H481 H 0.54562 0.35885 0.34144 0.0
C482 C 0.51012 0.39869 0.35902 0.0
O483 O 0.43904 0.35457 0.47432 0.0
O484 O 0.47417 0.33612 0.46923 0.0
N485 N 0.44757 0.29468 0.2614 0.0
C486 C 0.41595 0.28221 0.24489 0.0
C487 C 0.40011 0.25148 0.22042 0.0
C488 C 0.41694 0.23393 0.21314 0.0
C489 C 0.4495 0.2473 0.23035 0.0
C490 C 0.46416 0.27823 0.25388 0.0
H491 H 0.40291 0.2956 0.25038 0.0
O492 O 0.41902 0.29273 0.41019 0.0
O493 O 0.461 0.3186 0.35967 0.0
O494 O 0.42239 0.35065 0.36146 0.0
O495 O 0.44271 0.35093 0.28501 0.0
C496 C 0.46766 0.23077 0.22624 0.0
C497 C 0.49979 0.24506 0.24653 0.0
H498 H 0.55978 0.27902 0.29355 0.0
H499 H 0.5801 0.33231 0.33838 0.0
H500 H 0.37495 0.24128 0.20736 0.0
H501 H 0.4045 0.21007 0.19478 0.0
H502 H 0.4569 0.20672 0.20852 0.0
H503 H 0.51319 0.23174 0.24425 0.0
Mn504 Mn 0.66927 0.11164 0.40946 0.0
Mn505 Mn 0.67497 0.14185 0.2925 0.0
C506 C 0.72068 0.14816 0.37366 0.0
C507 C 0.66599 0.11471 0.49713 0.0
C508 C 0.65627 0.07064 0.31404 0.0
O509 O 0.62207 0.10324 0.39619 0.0
O510 O 0.63123 0.1294 0.32131 0.0
C511 C 0.67518 0.2033 0.3203 0.0
N512 N 0.68959 0.18802 0.29626 0.0
C513 C 0.73538 0.24023 0.27018 0.0
C514 C 0.72057 0.25645 0.29354 0.0
C515 C 0.69043 0.2379 0.31897 0.0
C516 C 0.71892 0.20567 0.27254 0.0
H517 H 0.65256 0.18923 0.34108 0.0
C518 C 0.61268 0.11392 0.3588 0.0
O519 O 0.6568 0.08699 0.47416 0.0
O520 O 0.67529 0.14057 0.469 0.0
N521 N 0.71666 0.15522 0.26115 0.0
C522 C 0.72911 0.13604 0.24469 0.0
C523 C 0.75984 0.1509 0.22024 0.0
C524 C 0.77742 0.18527 0.21293 0.0
C525 C 0.76408 0.20449 0.23008 0.0
C526 C 0.73314 0.18826 0.2536 0.0
H527 H 0.71571 0.10962 0.25022 0.0
O528 O 0.71862 0.12871 0.40997 0.0
O529 O 0.69277 0.14483 0.35943 0.0
O530 O 0.66065 0.07416 0.36133 0.0
O531 O 0.66038 0.09415 0.28484 0.0
C532 C 0.78064 0.23919 0.22594 0.0
C533 C 0.76637 0.25706 0.24617 0.0
H534 H 0.73245 0.28315 0.2931 0.0
H535 H 0.67915 0.25025 0.33794 0.0
H536 H 0.77003 0.13591 0.20723 0.0
H537 H 0.80129 0.19666 0.19457 0.0
H538 H 0.80469 0.25244 0.20822 0.0
H539 H 0.77972 0.28377 0.24386 0.0
Mn540 Mn 0.89566 0.56422 0.80208 0.0
Mn541 Mn 0.8712 0.53397 0.91904 0.0
C542 C 0.9106 0.52772 0.83779 0.0
C543 C 0.88927 0.56117 0.71442 0.0
C544 C 0.92368 0.6052 0.89752 0.0
O545 O 0.85686 0.5726 0.81544 0.0
O546 O 0.83988 0.54639 0.89029 0.0
C547 C 0.80998 0.47249 0.89125 0.0
N548 N 0.83967 0.48778 0.91526 0.0
C549 C 0.83331 0.43559 0.94128 0.0
C550 C 0.80227 0.41936 0.91795 0.0
C551 C 0.79065 0.43789 0.89257 0.0
C552 C 0.85139 0.47015 0.93893 0.0
H553 H 0.8014 0.48656 0.87051 0.0
C554 C 0.83679 0.56188 0.85283 0.0
O555 O 0.90781 0.58889 0.7374 0.0
O556 O 0.87274 0.5353 0.74255 0.0
N557 N 0.89956 0.52063 0.95032 0.0
C558 C 0.93119 0.53982 0.96675 0.0
C559 C 0.9471 0.52498 0.99116 0.0
C560 C 0.93034 0.49061 0.99846 0.0
C561 C 0.89776 0.47137 0.98133 0.0
C562 C 0.88303 0.48758 0.95785 0.0
H563 H 0.94419 0.56624 0.96124 0.0
O564 O 0.92797 0.54718 0.80149 0.0
O565 O 0.88601 0.53102 0.85208 0.0
O566 O 0.92453 0.60169 0.85022 0.0
O567 O 0.90429 0.58167 0.92671 0.0
C568 C 0.87965 0.43667 0.98545 0.0
C569 C 0.84751 0.41878 0.96524 0.0
H570 H 0.78746 0.39265 0.91837 0.0
H571 H 0.76701 0.42553 0.87362 0.0
H572 H 0.97228 0.53998 1.00416 0.0
H573 H 0.94283 0.47923 1.01677 0.0
H574 H 0.89047 0.42343 1.00313 0.0
H575 H 0.83415 0.39206 0.96754 0.0
Mn576 Mn 0.44716 0.33364 0.8019 0.0
Mn577 Mn 0.4775 0.33936 0.91879 0.0
C578 C 0.48375 0.38505 0.83763 0.0
C579 C 0.45011 0.3303 0.71422 0.0
C580 C 0.40627 0.3207 0.89744 0.0
O581 O 0.43874 0.28643 0.81517 0.0
O582 O 0.46498 0.29561 0.88998 0.0
C583 C 0.5389 0.33952 0.89079 0.0
N584 N 0.52367 0.35395 0.91489 0.0
C585 C 0.57592 0.3997 0.9409 0.0
C586 C 0.5921 0.38487 0.91745 0.0
C587 C 0.5735 0.35474 0.89203 0.0
C588 C 0.54136 0.38327 0.9386 0.0
H589 H 0.52478 0.31689 0.87002 0.0
C590 C 0.44945 0.27705 0.85252 0.0
O591 O 0.42242 0.32114 0.73728 0.0
O592 O 0.47601 0.33961 0.74228 0.0
N593 N 0.49094 0.38106 0.95014 0.0
C594 C 0.4718 0.39353 0.96669 0.0
C595 C 0.4867 0.42426 0.99116 0.0
C596 C 0.52108 0.44181 0.99841 0.0
C597 C 0.54027 0.42844 0.98116 0.0
C598 C 0.52399 0.39751 0.95762 0.0
H599 H 0.44537 0.38015 0.96123 0.0
O600 O 0.46427 0.38299 0.80138 0.0
O601 O 0.48042 0.35714 0.85186 0.0
O602 O 0.40975 0.32506 0.85014 0.0
O603 O 0.42981 0.32481 0.92658 0.0
C604 C 0.57497 0.44498 0.98523 0.0
C605 C 0.5928 0.43068 0.96491 0.0
H606 H 0.6188 0.39673 0.91783 0.0
H607 H 0.58581 0.34344 0.873 0.0
H608 H 0.47174 0.43446 1.00425 0.0
H609 H 0.53252 0.46567 1.01678 0.0
H610 H 0.58826 0.46902 1.00296 0.0
H611 H 0.61952 0.44401 0.96717 0.0
Mn612 Mn 0.67802 0.11621 0.80168 0.0
Mn613 Mn 0.67233 0.14083 0.91858 0.0
C614 C 0.62662 0.10141 0.83742 0.0
C615 C 0.68133 0.12248 0.714 0.0
C616 C 0.69087 0.08818 0.89722 0.0
O617 O 0.72525 0.15496 0.81494 0.0
O618 O 0.71612 0.17198 0.88981 0.0
C619 C 0.67235 0.20215 0.89058 0.0
N620 N 0.65785 0.17249 0.91468 0.0
C621 C 0.61217 0.17912 0.94064 0.0
C622 C 0.62708 0.21013 0.91722 0.0
C623 C 0.65721 0.2216 0.89182 0.0
C624 C 0.62853 0.16092 0.93837 0.0
H625 H 0.69498 0.21061 0.86983 0.0
C626 C 0.73467 0.17502 0.85234 0.0
O627 O 0.69048 0.10394 0.73705 0.0
O628 O 0.67206 0.13909 0.74206 0.0
N629 N 0.6306 0.11264 0.94991 0.0
C630 C 0.61806 0.08102 0.96647 0.0
C631 C 0.58731 0.06526 0.99091 0.0
C632 C 0.56983 0.08215 0.99812 0.0
C633 C 0.58327 0.11471 0.98088 0.0
C634 C 0.61421 0.1293 0.95738 0.0
H635 H 0.63139 0.06793 0.96102 0.0
O636 O 0.62866 0.08398 0.80116 0.0
O637 O 0.65453 0.12599 0.85165 0.0
O638 O 0.68657 0.08735 0.84991 0.0
O639 O 0.68677 0.10761 0.92638 0.0
C640 C 0.5668 0.13294 0.98492 0.0
C641 C 0.58117 0.16507 0.96462 0.0
H642 H 0.61527 0.22503 0.91758 0.0
H643 H 0.66856 0.24521 0.8728 0.0
H644 H 0.57706 0.04009 1.00399 0.0
H645 H 0.54595 0.06976 1.01646 0.0
H646 H 0.54276 0.12224 1.00262 0.0
H647 H 0.56791 0.17852 0.96686 0.0
Mn648 Mn 0.44722 0.11593 0.30178 0.0
Mn649 Mn 0.47752 0.14049 0.4187 0.0
C650 C 0.48381 0.10111 0.33748 0.0
C651 C 0.4502 0.12227 0.2141 0.0
C652 C 0.40631 0.08789 0.39729 0.0
O653 O 0.43875 0.15468 0.3151 0.0
O654 O 0.46495 0.1717 0.38995 0.0
C655 C 0.53887 0.20179 0.39077 0.0
N656 N 0.52367 0.17212 0.41483 0.0
C657 C 0.57596 0.17867 0.44079 0.0
C658 C 0.5921 0.20969 0.41741 0.0
C659 C 0.57347 0.2212 0.39203 0.0
C660 C 0.54139 0.1605 0.4385 0.0
H661 H 0.52474 0.21029 0.37003 0.0
C662 C 0.44942 0.17475 0.3525 0.0
O663 O 0.42251 0.10371 0.23712 0.0
O664 O 0.47609 0.13885 0.2422 0.0
N665 N 0.491 0.11225 0.44999 0.0
C666 C 0.47189 0.08063 0.4665 0.0
C667 C 0.48683 0.06482 0.49091 0.0
C668 C 0.52121 0.08167 0.49815 0.0
C669 C 0.54036 0.11424 0.48095 0.0
C670 C 0.52405 0.12888 0.45747 0.0
H671 H 0.44547 0.06756 0.46103 0.0
O672 O 0.46435 0.0837 0.3012 0.0
O673 O 0.48047 0.12568 0.35175 0.0
O674 O 0.40979 0.08705 0.34998 0.0
O675 O 0.42984 0.10731 0.42645 0.0
C676 C 0.57507 0.13244 0.48502 0.0
C677 C 0.59286 0.16457 0.46475 0.0
H678 H 0.6188 0.22456 0.41779 0.0
H679 H 0.58576 0.24483 0.37304 0.0
H680 H 0.47189 0.03965 0.50397 0.0
H681 H 0.53267 0.06926 0.51648 0.0
H682 H 0.58838 0.1217 0.50271 0.0
H683 H 0.61958 0.178 0.46701 0.0
Mn684 Mn 0.89566 0.3336 0.30181 0.0
Mn685 Mn 0.87102 0.33926 0.41871 0.0
C686 C 0.91048 0.385 0.33761 0.0
C687 C 0.88941 0.33032 0.21412 0.0
C688 C 0.92359 0.32062 0.39732 0.0
O689 O 0.85687 0.28639 0.31503 0.0
O690 O 0.83979 0.29554 0.38984 0.0
C691 C 0.8098 0.33946 0.39071 0.0
N692 N 0.83945 0.35386 0.41484 0.0
C693 C 0.83296 0.39961 0.44092 0.0
C694 C 0.80196 0.3848 0.41746 0.0
C695 C 0.79043 0.35469 0.39199 0.0
C696 C 0.85108 0.38317 0.4386 0.0
H697 H 0.80129 0.31686 0.36989 0.0
C698 C 0.83676 0.27699 0.35236 0.0
O699 O 0.90793 0.32115 0.23717 0.0
O700 O 0.8728 0.33961 0.24219 0.0
N701 N 0.89929 0.38095 0.45011 0.0
C702 C 0.9309 0.39341 0.46666 0.0
C703 C 0.94672 0.42412 0.49117 0.0
C704 C 0.9299 0.44167 0.49846 0.0
C705 C 0.89734 0.42831 0.48121 0.0
C706 C 0.88269 0.3974 0.45763 0.0
H707 H 0.94394 0.38002 0.46116 0.0
O708 O 0.92791 0.38297 0.30135 0.0
O709 O 0.8859 0.35708 0.3518 0.0
O710 O 0.92449 0.32501 0.35003 0.0
O711 O 0.90415 0.3247 0.42647 0.0
C712 C 0.87918 0.44485 0.48531 0.0
C713 C 0.84707 0.43058 0.46498 0.0
H714 H 0.78712 0.39666 0.41786 0.0
H715 H 0.76682 0.34341 0.37294 0.0
H716 H 0.97188 0.43431 0.50426 0.0
H717 H 0.94233 0.46552 0.51686 0.0
H718 H 0.88994 0.46888 0.50308 0.0
H719 H 0.83367 0.4439 0.46727 0.0
Mn720 Mn 0.67759 0.56409 0.30211 0.0
Mn721 Mn 0.6718 0.53384 0.41907 0.0
C722 C 0.62615 0.52757 0.33781 0.0
C723 C 0.68096 0.56107 0.21445 0.0
C724 C 0.69054 0.60507 0.39755 0.0
O725 O 0.72478 0.57248 0.31549 0.0
O726 O 0.71554 0.54627 0.39032 0.0
C727 C 0.67154 0.47237 0.3913 0.0
N728 N 0.65714 0.48766 0.41529 0.0
C729 C 0.6113 0.43547 0.44133 0.0
C730 C 0.62611 0.41923 0.418 0.0
C731 C 0.65627 0.43777 0.39262 0.0
C732 C 0.62779 0.47003 0.43897 0.0
H733 H 0.69419 0.48643 0.37055 0.0
C734 C 0.73413 0.56177 0.35287 0.0
O735 O 0.69013 0.58878 0.23745 0.0
O736 O 0.67162 0.53519 0.24256 0.0
N737 N 0.63009 0.5205 0.45034 0.0
C738 C 0.61765 0.53969 0.46677 0.0
C739 C 0.5869 0.52485 0.49117 0.0
C740 C 0.5693 0.49048 0.49848 0.0
C741 C 0.58263 0.47124 0.48136 0.0
C742 C 0.61358 0.48745 0.45788 0.0
H743 H 0.63107 0.56611 0.46125 0.0
O744 O 0.62824 0.54703 0.3015 0.0
O745 O 0.65405 0.53089 0.3521 0.0
O746 O 0.68618 0.60155 0.35025 0.0
O747 O 0.68641 0.58155 0.42674 0.0
C748 C 0.56604 0.43654 0.48549 0.0
C749 C 0.5803 0.41865 0.46529 0.0
H750 H 0.61421 0.39252 0.41843 0.0
H751 H 0.66755 0.4254 0.37367 0.0
H752 H 0.57673 0.53985 0.50416 0.0
H753 H 0.54541 0.4791 0.5168 0.0
H754 H 0.54198 0.4233 0.50318 0.0
H755 H 0.56694 0.39194 0.46759 0.0
Mn756 Mn 0.45156 0.11169 0.90955 0.0
Mn757 Mn 0.47609 0.14197 0.79262 0.0
C758 C 0.43664 0.1482 0.8738 0.0
C759 C 0.45787 0.11469 0.99722 0.0
C760 C 0.42361 0.07073 0.81407 0.0
O761 O 0.49039 0.10333 0.89625 0.0
O762 O 0.5074 0.12955 0.82142 0.0
C763 C 0.53728 0.20345 0.82051 0.0
N764 N 0.50761 0.18816 0.79644 0.0
C765 C 0.51398 0.24035 0.77041 0.0
C766 C 0.54501 0.25659 0.7938 0.0
C767 C 0.5566 0.23805 0.81922 0.0
C768 C 0.49591 0.20579 0.77274 0.0
H769 H 0.54584 0.18938 0.84129 0.0
C770 C 0.51048 0.11406 0.85889 0.0
O771 O 0.43937 0.08698 0.9742 0.0
O772 O 0.47443 0.14058 0.96914 0.0
N773 N 0.44775 0.15531 0.76129 0.0
C774 C 0.41613 0.13612 0.7448 0.0
C775 C 0.40024 0.15096 0.72035 0.0
C776 C 0.417 0.18533 0.71306 0.0
C777 C 0.44957 0.20458 0.73025 0.0
C778 C 0.46429 0.18836 0.75377 0.0
H779 H 0.40313 0.1097 0.7503 0.0
O780 O 0.41925 0.12872 0.91008 0.0
O781 O 0.46124 0.1449 0.85955 0.0
O782 O 0.42274 0.07423 0.86136 0.0
O783 O 0.44301 0.09426 0.7849 0.0
C784 C 0.46768 0.23928 0.72614 0.0
C785 C 0.49981 0.25716 0.74641 0.0
H786 H 0.55981 0.28329 0.7934 0.0
H787 H 0.58023 0.25041 0.83822 0.0
H788 H 0.37507 0.13596 0.70731 0.0
H789 H 0.40452 0.19672 0.69471 0.0
H790 H 0.45687 0.25252 0.70843 0.0
H791 H 0.51316 0.28388 0.74412 0.0
Mn792 Mn 0.90019 0.34231 0.90957 0.0
Mn793 Mn 0.86995 0.33664 0.79264 0.0
C794 C 0.86364 0.29091 0.87377 0.0
C795 C 0.89715 0.3456 0.99725 0.0
C796 C 0.94117 0.35532 0.81413 0.0
O797 O 0.90861 0.38952 0.89632 0.0
O798 O 0.8824 0.38036 0.8215 0.0
C799 C 0.80848 0.33638 0.8205 0.0
N800 N 0.82377 0.322 0.79642 0.0
C801 C 0.77157 0.27622 0.7703 0.0
C802 C 0.75534 0.29101 0.7937 0.0
C803 C 0.77388 0.32112 0.81917 0.0
C804 C 0.80613 0.29268 0.77267 0.0
H805 H 0.82256 0.35899 0.84132 0.0
C806 C 0.8979 0.39891 0.85898 0.0
O807 O 0.92487 0.35477 0.97426 0.0
O808 O 0.87128 0.3363 0.96913 0.0
N809 N 0.85659 0.29496 0.76125 0.0
C810 C 0.87577 0.28253 0.74476 0.0
C811 C 0.86093 0.25181 0.72026 0.0
C812 C 0.82656 0.23424 0.71293 0.0
C813 C 0.80732 0.24756 0.73012 0.0
C814 C 0.82355 0.27848 0.75369 0.0
H815 H 0.9022 0.29593 0.75029 0.0
O816 O 0.88309 0.29295 0.91006 0.0
O817 O 0.86699 0.31883 0.85955 0.0
O818 O 0.93766 0.35092 0.86142 0.0
O819 O 0.91765 0.35124 0.78496 0.0
C820 C 0.77262 0.23099 0.72597 0.0
C821 C 0.75475 0.24524 0.74624 0.0
H822 H 0.72863 0.27912 0.79327 0.0
H823 H 0.76152 0.33239 0.83818 0.0
H824 H 0.87592 0.24164 0.70721 0.0
H825 H 0.81516 0.21038 0.69453 0.0
H826 H 0.75938 0.20696 0.70821 0.0
H827 H 0.72803 0.2319 0.74392 0.0
Mn828 Mn 0.66927 0.55979 0.90988 0.0
Mn829 Mn 0.67506 0.53526 0.79297 0.0
C830 C 0.7207 0.57462 0.87424 0.0
C831 C 0.66586 0.55345 0.99755 0.0
C832 C 0.65647 0.58786 0.81436 0.0
O833 O 0.62205 0.52105 0.8965 0.0
O834 O 0.63126 0.50405 0.82166 0.0
C835 C 0.67508 0.47394 0.82088 0.0
N836 N 0.68957 0.50362 0.79685 0.0
C837 C 0.73531 0.49706 0.77092 0.0
C838 C 0.7204 0.46603 0.79429 0.0
C839 C 0.69025 0.45452 0.81963 0.0
C840 C 0.71892 0.51523 0.7732 0.0
H841 H 0.65243 0.46545 0.8416 0.0
C842 C 0.61267 0.501 0.85909 0.0
O843 O 0.65674 0.57201 0.9745 0.0
O844 O 0.67517 0.53686 0.96949 0.0
N845 N 0.71681 0.5635 0.76172 0.0
C846 C 0.72934 0.59513 0.74523 0.0
C847 C 0.7601 0.61093 0.72083 0.0
C848 C 0.77761 0.59407 0.7136 0.0
C849 C 0.76418 0.5615 0.73079 0.0
C850 C 0.73323 0.54687 0.75425 0.0
H851 H 0.71598 0.6082 0.75068 0.0
O852 O 0.71863 0.59202 0.91052 0.0
O853 O 0.6928 0.55005 0.85994 0.0
O854 O 0.66076 0.58868 0.86167 0.0
O855 O 0.66059 0.56845 0.78519 0.0
C856 C 0.78067 0.54329 0.72673 0.0
C857 C 0.76631 0.51115 0.74698 0.0
H858 H 0.73222 0.45115 0.79391 0.0
H859 H 0.67889 0.43089 0.83861 0.0
H860 H 0.77034 0.63611 0.70779 0.0
H861 H 0.8015 0.60648 0.6953 0.0
H862 H 0.80473 0.55403 0.70906 0.0
H863 H 0.7796 0.49772 0.74473 0.0
Mn864 Mn 0.56644 0.89308 0.7431 0.0
Mn865 Mn 0.53612 0.86849 0.6262 0.0
C866 C 0.52983 0.90788 0.70741 0.0
C867 C 0.56349 0.88676 0.83078 0.0
C868 C 0.60732 0.92112 0.64756 0.0
O869 O 0.57492 0.85434 0.72978 0.0
O870 O 0.54871 0.8373 0.65495 0.0
C871 C 0.47479 0.80718 0.65417 0.0
N872 N 0.48997 0.83685 0.6301 0.0
C873 C 0.43767 0.83027 0.60415 0.0
C874 C 0.42155 0.79925 0.62755 0.0
C875 C 0.44019 0.78775 0.65293 0.0
C876 C 0.47223 0.84844 0.60643 0.0
H877 H 0.48893 0.79869 0.67491 0.0
C878 C 0.56425 0.83427 0.6924 0.0
O879 O 0.59118 0.90532 0.80773 0.0
O880 O 0.5376 0.87016 0.80271 0.0
N881 N 0.52261 0.89671 0.59491 0.0
C882 C 0.5417 0.92833 0.57838 0.0
C883 C 0.52675 0.94412 0.55396 0.0
C884 C 0.49237 0.92725 0.54673 0.0
C885 C 0.47323 0.89468 0.56395 0.0
C886 C 0.48956 0.88007 0.58744 0.0
H887 H 0.56813 0.9414 0.58383 0.0
O888 O 0.5493 0.9253 0.74368 0.0
O889 O 0.53318 0.88331 0.69315 0.0
O890 O 0.60385 0.92196 0.69488 0.0
O891 O 0.58379 0.90169 0.61842 0.0
C892 C 0.43853 0.87647 0.5599 0.0
C893 C 0.42075 0.84434 0.58019 0.0
H894 H 0.39484 0.78437 0.62718 0.0
H895 H 0.42791 0.76413 0.67193 0.0
H896 H 0.54168 0.96929 0.54089 0.0
H897 H 0.4809 0.93965 0.5284 0.0
H898 H 0.4252 0.8872 0.54221 0.0
H899 H 0.39403 0.83091 0.57794 0.0
Mn900 Mn 0.11801 0.67555 0.74299 0.0
Mn901 Mn 0.14262 0.66989 0.62607 0.0
C902 C 0.1032 0.62415 0.70719 0.0
C903 C 0.12429 0.67883 0.83067 0.0
C904 C 0.09005 0.68853 0.64751 0.0
O905 O 0.1568 0.72277 0.72976 0.0
O906 O 0.17386 0.71361 0.65493 0.0
C907 C 0.20385 0.66969 0.65401 0.0
N908 N 0.17419 0.65528 0.62989 0.0
C909 C 0.18067 0.60954 0.60379 0.0
C910 C 0.21168 0.62435 0.62722 0.0
C911 C 0.22322 0.65446 0.6527 0.0
C912 C 0.16255 0.62598 0.60614 0.0
H913 H 0.21236 0.69229 0.67483 0.0
C914 C 0.17691 0.73216 0.69241 0.0
O915 O 0.10576 0.688 0.80765 0.0
O916 O 0.14089 0.66955 0.80259 0.0
N917 N 0.11434 0.6282 0.59468 0.0
C918 C 0.08272 0.61574 0.57816 0.0
C919 C 0.06688 0.58503 0.55366 0.0
C920 C 0.08371 0.56748 0.54634 0.0
C921 C 0.11627 0.58083 0.56356 0.0
C922 C 0.13093 0.61175 0.58713 0.0
H923 H 0.06969 0.62913 0.58368 0.0
O924 O 0.08577 0.62618 0.74346 0.0
O925 O 0.12777 0.65208 0.69298 0.0
O926 O 0.08916 0.68414 0.6948 0.0
O927 O 0.10949 0.68445 0.61835 0.0
C928 C 0.13443 0.56429 0.55943 0.0
C929 C 0.16655 0.57857 0.57973 0.0
H930 H 0.22652 0.61248 0.6268 0.0
H931 H 0.24683 0.66573 0.67173 0.0
H932 H 0.04172 0.57484 0.54059 0.0
H933 H 0.07127 0.54362 0.52795 0.0
H934 H 0.12366 0.54026 0.54166 0.0
H935 H 0.17994 0.56524 0.57742 0.0
Mn936 Mn 0.33612 0.44497 0.74292 0.0
Mn937 Mn 0.34193 0.47523 0.62597 0.0
C938 C 0.38757 0.48146 0.7072 0.0
C939 C 0.33278 0.44801 0.83058 0.0
C940 C 0.32311 0.40398 0.64748 0.0
O941 O 0.28895 0.43663 0.72956 0.0
O942 O 0.2982 0.46285 0.65473 0.0
C943 C 0.34227 0.53675 0.65376 0.0
N944 N 0.35664 0.52142 0.62975 0.0
C945 C 0.40251 0.57359 0.60371 0.0
C946 C 0.38774 0.58986 0.62706 0.0
C947 C 0.35758 0.57135 0.65245 0.0
C948 C 0.38599 0.53903 0.60606 0.0
H949 H 0.31962 0.5227 0.67451 0.0
C950 C 0.27961 0.44737 0.69219 0.0
O951 O 0.32358 0.42029 0.80759 0.0
O952 O 0.34214 0.47389 0.80247 0.0
N953 N 0.38362 0.48853 0.59468 0.0
C954 C 0.39602 0.46931 0.57823 0.0
C955 C 0.42677 0.48411 0.55381 0.0
C956 C 0.4444 0.51848 0.5465 0.0
C957 C 0.43111 0.53775 0.56364 0.0
C958 C 0.40016 0.52157 0.58714 0.0
H959 H 0.38257 0.44289 0.58375 0.0
O960 O 0.38547 0.46199 0.7435 0.0
O961 O 0.35968 0.47816 0.69292 0.0
O962 O 0.32748 0.40749 0.69477 0.0
O963 O 0.32726 0.42751 0.61829 0.0
C964 C 0.44774 0.57245 0.55951 0.0
C965 C 0.43351 0.59037 0.57974 0.0
H966 H 0.39967 0.61657 0.62664 0.0
H967 H 0.34634 0.58374 0.67141 0.0
H968 H 0.43691 0.46909 0.54081 0.0
H969 H 0.46828 0.52984 0.52817 0.0
H970 H 0.47179 0.58567 0.54182 0.0
H971 H 0.44691 0.61709 0.57744 0.0
Mn972 Mn 0.56227 0.89738 0.13535 0.0
Mn973 Mn 0.53776 0.86713 0.25229 0.0
C974 C 0.57721 0.86089 0.17112 0.0
C975 C 0.55593 0.89435 0.04767 0.0
C976 C 0.59021 0.93837 0.23079 0.0
O977 O 0.52343 0.90572 0.14864 0.0
O978 O 0.50642 0.87949 0.22347 0.0
C979 C 0.4766 0.8056 0.22448 0.0
N980 N 0.50628 0.82093 0.24853 0.0
C981 C 0.49997 0.76877 0.27464 0.0
C982 C 0.46894 0.7525 0.25126 0.0
C983 C 0.45731 0.771 0.22582 0.0
C984 C 0.51801 0.80334 0.27226 0.0
H985 H 0.46801 0.81964 0.20369 0.0
C986 C 0.50333 0.89498 0.186 0.0
O987 O 0.57444 0.92206 0.07068 0.0
O988 O 0.53939 0.86847 0.07578 0.0
N989 N 0.56615 0.85384 0.28364 0.0
C990 C 0.59777 0.87307 0.3001 0.0
C991 C 0.6137 0.85827 0.32457 0.0
C992 C 0.59696 0.82391 0.3319 0.0
C993 C 0.56439 0.80463 0.31475 0.0
C994 C 0.54964 0.8208 0.29121 0.0
H995 H 0.61074 0.89949 0.29457 0.0
O996 O 0.59459 0.88035 0.13482 0.0
O997 O 0.55261 0.86419 0.18536 0.0
O998 O 0.59109 0.93485 0.1835 0.0
O999 O 0.5708 0.91485 0.25997 0.0
C1000 C 0.54632 0.76993 0.3189 0.0
C1001 C 0.51418 0.752 0.29866 0.0
H1002 H 0.45416 0.72579 0.25171 0.0
H1003 H 0.43368 0.7586 0.20684 0.0
H1004 H 0.63886 0.87331 0.33759 0.0
H1005 H 0.60947 0.81255 0.35027 0.0
H1006 H 0.55715 0.75672 0.33664 0.0
H1007 H 0.50085 0.72529 0.30098 0.0
Mn1008 Mn 0.11354 0.6668 0.13522 0.0
Mn1009 Mn 0.1438 0.67249 0.25214 0.0
C1010 C 0.1501 0.7182 0.17101 0.0
C1011 C 0.11657 0.66351 0.04754 0.0
C1012 C 0.07258 0.6538 0.23069 0.0
O1013 O 0.10513 0.61959 0.14847 0.0
O1014 O 0.13134 0.62876 0.22329 0.0
C1015 C 0.20526 0.67273 0.22423 0.0
N1016 N 0.18998 0.68712 0.24833 0.0
C1017 C 0.2422 0.7329 0.27443 0.0
C1018 C 0.25841 0.7181 0.251 0.0
C1019 C 0.23986 0.68798 0.22553 0.0
C1020 C 0.20763 0.71643 0.27207 0.0
H1021 H 0.19118 0.65012 0.20341 0.0
C1022 C 0.11584 0.61021 0.18581 0.0
O1023 O 0.08886 0.65433 0.07054 0.0
O1024 O 0.14244 0.67281 0.07565 0.0
N1025 N 0.15718 0.71417 0.28352 0.0
C1026 C 0.13801 0.72661 0.30004 0.0
C1027 C 0.15286 0.75732 0.32454 0.0
C1028 C 0.18723 0.77489 0.33185 0.0
C1029 C 0.20646 0.76156 0.31464 0.0
C1030 C 0.19022 0.73064 0.29107 0.0
H1031 H 0.11158 0.71321 0.29452 0.0
O1032 O 0.13064 0.71616 0.13473 0.0
O1033 O 0.14675 0.69029 0.18523 0.0
O1034 O 0.07608 0.65819 0.18339 0.0
O1035 O 0.0961 0.6579 0.25985 0.0
C1036 C 0.24116 0.77812 0.31877 0.0
C1037 C 0.25903 0.76387 0.29848 0.0
H1038 H 0.28512 0.72999 0.25141 0.0
H1039 H 0.25221 0.67672 0.2065 0.0
H1040 H 0.13787 0.7675 0.33759 0.0
H1041 H 0.19864 0.79875 0.35024 0.0
H1042 H 0.25442 0.80216 0.33653 0.0
H1043 H 0.28575 0.77721 0.30078 0.0
Mn1044 Mn 0.34457 0.44937 0.13514 0.0
Mn1045 Mn 0.33879 0.47391 0.25205 0.0
C1046 C 0.29314 0.43457 0.17078 0.0
C1047 C 0.34796 0.45569 0.04747 0.0
C1048 C 0.35734 0.42128 0.23068 0.0
O1049 O 0.39179 0.4881 0.14851 0.0
O1050 O 0.3826 0.50509 0.22336 0.0
C1051 C 0.33884 0.53526 0.22412 0.0
N1052 N 0.32432 0.50558 0.24816 0.0
C1053 C 0.27861 0.51219 0.27407 0.0
C1054 C 0.29354 0.54322 0.2507 0.0
C1055 C 0.32369 0.55471 0.22536 0.0
C1056 C 0.29497 0.49399 0.2718 0.0
H1057 H 0.36148 0.54374 0.2034 0.0
C1058 C 0.40118 0.50814 0.18593 0.0
O1059 O 0.35708 0.43712 0.07053 0.0
O1060 O 0.33867 0.47229 0.07553 0.0
N1061 N 0.29703 0.4457 0.2833 0.0
C1062 C 0.28448 0.41407 0.2998 0.0
C1063 C 0.25372 0.39829 0.32418 0.0
C1064 C 0.23623 0.41518 0.3314 0.0
C1065 C 0.24968 0.44776 0.31421 0.0
C1066 C 0.28064 0.46236 0.29076 0.0
H1067 H 0.29781 0.40098 0.29435 0.0
O1068 O 0.2952 0.41715 0.13452 0.0
O1069 O 0.32105 0.45913 0.18508 0.0
O1070 O 0.35306 0.42046 0.18336 0.0
O1071 O 0.35322 0.44069 0.25984 0.0
C1072 C 0.23321 0.46599 0.31825 0.0
C1073 C 0.2476 0.49813 0.298 0.0
H1074 H 0.28174 0.55812 0.25107 0.0
H1075 H 0.33507 0.57834 0.20638 0.0
H1076 H 0.24345 0.37312 0.33723 0.0
H1077 H 0.21234 0.40278 0.3497 0.0
H1078 H 0.20915 0.45527 0.33591 0.0
H1079 H 0.23433 0.51158 0.30024 0.0
Mn1080 Mn 0.1142 0.44952 0.63504 0.0
Mn1081 Mn 0.14457 0.47417 0.75191 0.0
C1082 C 0.15083 0.43474 0.67073 0.0
C1083 C 0.1171 0.45577 0.54735 0.0
C1084 C 0.07337 0.4215 0.73063 0.0
O1085 O 0.10571 0.48826 0.64832 0.0
O1086 O 0.1319 0.5053 0.72316 0.0
C1087 C 0.20584 0.53551 0.72385 0.0
N1088 N 0.1907 0.50585 0.74795 0.0
C1089 C 0.24304 0.51251 0.77384 0.0
C1090 C 0.25912 0.54352 0.7504 0.0
C1091 C 0.24043 0.55497 0.72504 0.0
C1092 C 0.20848 0.4943 0.77161 0.0
H1093 H 0.19166 0.54395 0.70312 0.0
C1094 C 0.11636 0.50832 0.68572 0.0
O1095 O 0.08943 0.43722 0.57044 0.0
O1096 O 0.14301 0.4724 0.57538 0.0
N1097 N 0.15814 0.446 0.78322 0.0
C1098 C 0.13909 0.41439 0.79979 0.0
C1099 C 0.15409 0.39864 0.82422 0.0
C1100 C 0.18848 0.41555 0.83139 0.0
C1101 C 0.20757 0.44811 0.81412 0.0
C1102 C 0.1912 0.46268 0.79064 0.0
H1103 H 0.11266 0.40128 0.79438 0.0
O1104 O 0.13135 0.4173 0.63449 0.0
O1105 O 0.1475 0.45932 0.68497 0.0
O1106 O 0.07683 0.42066 0.68331 0.0
O1107 O 0.09691 0.44093 0.75977 0.0
C1108 C 0.24228 0.46636 0.81812 0.0
C1109 C 0.26001 0.49848 0.7978 0.0
H1110 H 0.28582 0.55843 0.75074 0.0
H1111 H 0.25268 0.57858 0.70601 0.0
H1112 H 0.1392 0.37348 0.83732 0.0
H1113 H 0.19999 0.40319 0.84972 0.0
H1114 H 0.25564 0.45567 0.83581 0.0
H1115 H 0.28673 0.51195 0.80001 0.0
Mn1116 Mn 0.56246 0.66694 0.63534 0.0
Mn1117 Mn 0.53786 0.67265 0.75224 0.0
C1118 C 0.57727 0.71834 0.67106 0.0
C1119 C 0.55615 0.6636 0.54767 0.0
C1120 C 0.59046 0.65404 0.73086 0.0
O1121 O 0.52369 0.61972 0.64863 0.0
O1122 O 0.50665 0.62889 0.72345 0.0
C1123 C 0.47659 0.67275 0.72428 0.0
N1124 N 0.50626 0.68721 0.74836 0.0
C1125 C 0.49973 0.73294 0.77435 0.0
C1126 C 0.46871 0.71808 0.75094 0.0
C1127 C 0.45719 0.68795 0.72553 0.0
C1128 C 0.51788 0.71653 0.77206 0.0
H1129 H 0.46809 0.65013 0.70351 0.0
C1130 C 0.50361 0.61033 0.686 0.0
O1131 O 0.5747 0.65446 0.5707 0.0
O1132 O 0.53955 0.67289 0.57574 0.0
N1133 N 0.56612 0.71437 0.78357 0.0
C1134 C 0.59773 0.72686 0.8001 0.0
C1135 C 0.61355 0.7576 0.82454 0.0
C1136 C 0.5967 0.77513 0.83179 0.0
C1137 C 0.56414 0.76173 0.81457 0.0
C1138 C 0.5495 0.7308 0.79106 0.0
H1139 H 0.61079 0.71349 0.79463 0.0
O1140 O 0.59469 0.7163 0.6348 0.0
O1141 O 0.5527 0.69043 0.68531 0.0
O1142 O 0.59132 0.65838 0.68356 0.0
O1143 O 0.57103 0.65814 0.76001 0.0
C1144 C 0.54595 0.77825 0.81864 0.0
C1145 C 0.51383 0.76393 0.79835 0.0
H1146 H 0.45385 0.72993 0.75131 0.0
H1147 H 0.43357 0.67663 0.70651 0.0
H1148 H 0.63872 0.76782 0.83761 0.0
H1149 H 0.60913 0.799 0.85014 0.0
H1150 H 0.5567 0.8023 0.83636 0.0
H1151 H 0.50041 0.77724 0.80061 0.0
Mn1152 Mn 0.34444 0.89746 0.63535 0.0
Mn1153 Mn 0.33871 0.86725 0.75232 0.0
C1154 C 0.29301 0.86098 0.67113 0.0
C1155 C 0.34773 0.89438 0.54768 0.0
C1156 C 0.35746 0.93848 0.73076 0.0
O1157 O 0.39163 0.90583 0.64865 0.0
O1158 O 0.38244 0.87967 0.72351 0.0
C1159 C 0.33843 0.80577 0.72454 0.0
N1160 N 0.32404 0.82107 0.74856 0.0
C1161 C 0.27822 0.76889 0.77465 0.0
C1162 C 0.29301 0.75264 0.7513 0.0
C1163 C 0.32315 0.77117 0.72588 0.0
C1164 C 0.29471 0.80345 0.77228 0.0
H1165 H 0.36106 0.81983 0.70377 0.0
C1166 C 0.401 0.89514 0.68603 0.0
O1167 O 0.35694 0.92211 0.57064 0.0
O1168 O 0.3384 0.86852 0.57582 0.0
N1169 N 0.29702 0.85392 0.78365 0.0
C1170 C 0.28459 0.87312 0.80009 0.0
C1171 C 0.25385 0.85829 0.82454 0.0
C1172 C 0.23625 0.82393 0.83186 0.0
C1173 C 0.24957 0.80468 0.81472 0.0
C1174 C 0.28051 0.82088 0.79121 0.0
H1175 H 0.29802 0.89954 0.79456 0.0
O1176 O 0.29509 0.88042 0.63482 0.0
O1177 O 0.32091 0.86428 0.68538 0.0
O1178 O 0.35308 0.93495 0.68346 0.0
O1179 O 0.35333 0.91496 0.75996 0.0
C1180 C 0.23298 0.76998 0.81886 0.0
C1181 C 0.24722 0.75208 0.79864 0.0
H1182 H 0.2811 0.72593 0.75174 0.0
H1183 H 0.33442 0.7588 0.70692 0.0
H1184 H 0.24369 0.8733 0.83754 0.0
H1185 H 0.21238 0.81255 0.8502 0.0
H1186 H 0.20892 0.75675 0.83658 0.0
H1187 H 0.23386 0.72537 0.80096 0.0
Mn1188 Mn 0.11814 0.44494 0.2428 0.0
Mn1189 Mn 0.14264 0.4752 0.12586 0.0
C1190 C 0.1032 0.48142 0.20704 0.0
C1191 C 0.12452 0.448 0.33047 0.0
C1192 C 0.09018 0.40396 0.14735 0.0
O1193 O 0.15697 0.43658 0.22949 0.0
O1194 O 0.17397 0.4628 0.15466 0.0
C1195 C 0.20384 0.53669 0.15367 0.0
N1196 N 0.17415 0.52138 0.12964 0.0
C1197 C 0.18049 0.57357 0.1036 0.0
C1198 C 0.21152 0.58982 0.12696 0.0
C1199 C 0.22315 0.57129 0.15236 0.0
C1200 C 0.16243 0.539 0.10595 0.0
H1201 H 0.21242 0.52263 0.17443 0.0
C1202 C 0.17705 0.44731 0.19212 0.0
O1203 O 0.10599 0.42028 0.30749 0.0
O1204 O 0.14105 0.47387 0.30233 0.0
N1205 N 0.11428 0.48852 0.09453 0.0
C1206 C 0.08266 0.46931 0.07806 0.0
C1207 C 0.06675 0.48413 0.05362 0.0
C1208 C 0.0835 0.5185 0.04633 0.0
C1209 C 0.11606 0.53776 0.06349 0.0
C1210 C 0.1308 0.52156 0.087 0.0
H1211 H 0.06968 0.44289 0.08357 0.0
O1212 O 0.08582 0.46196 0.24334 0.0
O1213 O 0.1278 0.47813 0.19279 0.0
O1214 O 0.08931 0.40746 0.19465 0.0
O1215 O 0.10958 0.42748 0.11817 0.0
C1216 C 0.13416 0.57246 0.05937 0.0
C1217 C 0.16629 0.59036 0.07961 0.0
H1218 H 0.22632 0.61652 0.12654 0.0
H1219 H 0.24678 0.58367 0.17134 0.0
H1220 H 0.04158 0.46912 0.0406 0.0
H1221 H 0.071 0.52987 0.02799 0.0
H1222 H 0.12333 0.58569 0.04167 0.0
H1223 H 0.17963 0.61708 0.07732 0.0
Mn1224 Mn 0.56671 0.67547 0.24311 0.0
Mn1225 Mn 0.53639 0.66974 0.12622 0.0
C1226 C 0.53014 0.62405 0.20737 0.0
C1227 C 0.56374 0.67879 0.33079 0.0
C1228 C 0.60762 0.68842 0.14758 0.0
O1229 O 0.57513 0.72268 0.22983 0.0
O1230 O 0.5489 0.71349 0.15502 0.0
C1231 C 0.47498 0.66957 0.15421 0.0
N1232 N 0.49022 0.65515 0.1301 0.0
C1233 C 0.43796 0.60939 0.1041 0.0
C1234 C 0.42179 0.62422 0.12754 0.0
C1235 C 0.44039 0.65435 0.15297 0.0
C1236 C 0.47253 0.62582 0.1064 0.0
H1237 H 0.4891 0.6922 0.17498 0.0
C1238 C 0.56442 0.73206 0.19248 0.0
O1239 O 0.59144 0.68796 0.30775 0.0
O1240 O 0.53785 0.66949 0.30271 0.0
N1241 N 0.52295 0.62804 0.09487 0.0
C1242 C 0.5421 0.61557 0.07832 0.0
C1243 C 0.5272 0.58484 0.05385 0.0
C1244 C 0.49282 0.56729 0.0466 0.0
C1245 C 0.47363 0.58066 0.06384 0.0
C1246 C 0.4899 0.61158 0.08738 0.0
H1247 H 0.56852 0.62896 0.08379 0.0
O1248 O 0.54961 0.62611 0.24363 0.0
O1249 O 0.53347 0.65196 0.19314 0.0
O1250 O 0.60414 0.68406 0.19488 0.0
O1251 O 0.58407 0.6843 0.11844 0.0
C1252 C 0.43892 0.56412 0.05977 0.0
C1253 C 0.42109 0.57841 0.08009 0.0
H1254 H 0.39508 0.61235 0.12717 0.0
H1255 H 0.42807 0.66564 0.172 0.0
H1256 H 0.54216 0.57465 0.04077 0.0
H1257 H 0.48139 0.54343 0.02823 0.0
H1258 H 0.42564 0.54007 0.04204 0.0
H1259 H 0.39437 0.56508 0.07783 0.0
Mn1260 Mn 0.33577 0.89282 0.24312 0.0
Mn1261 Mn 0.34147 0.8682 0.12623 0.0
C1262 C 0.38718 0.90759 0.20742 0.0
C1263 C 0.33244 0.88657 0.33081 0.0
C1264 C 0.32298 0.92088 0.14756 0.0
O1265 O 0.28853 0.8541 0.22984 0.0
O1266 O 0.29767 0.83707 0.15497 0.0
C1267 C 0.34136 0.80683 0.15425 0.0
N1268 N 0.3559 0.8365 0.13016 0.0
C1269 C 0.40156 0.82981 0.10424 0.0
C1270 C 0.38661 0.79879 0.12766 0.0
C1271 C 0.35647 0.78736 0.15303 0.0
C1272 C 0.38523 0.84804 0.10649 0.0
H1273 H 0.31874 0.79839 0.17499 0.0
C1274 C 0.27911 0.83404 0.19243 0.0
O1275 O 0.32331 0.90512 0.30773 0.0
O1276 O 0.3417 0.86993 0.30276 0.0
N1277 N 0.38322 0.89635 0.09493 0.0
C1278 C 0.3958 0.92797 0.07837 0.0
C1279 C 0.42655 0.94371 0.05396 0.0
C1280 C 0.44401 0.92679 0.04677 0.0
C1281 C 0.43053 0.89422 0.06401 0.0
C1282 C 0.39958 0.87966 0.08749 0.0
H1283 H 0.38249 0.94109 0.0838 0.0
O1284 O 0.38514 0.92503 0.24367 0.0
O1285 O 0.35925 0.88302 0.19318 0.0
O1286 O 0.32726 0.9217 0.19488 0.0
O1287 O 0.32709 0.90146 0.11841 0.0
C1288 C 0.44696 0.87596 0.05999 0.0
C1289 C 0.43256 0.84383 0.08029 0.0
H1290 H 0.39838 0.78387 0.12731 0.0
H1291 H 0.34509 0.76374 0.17205 0.0
H1292 H 0.43684 0.96888 0.04087 0.0
H1293 H 0.46789 0.93915 0.02844 0.0
H1294 H 0.47102 0.88664 0.04231 0.0
H1295 H 0.4458 0.83035 0.07807 0.0
C1296 C 0.3447 0.29445 0.88725 0.0
C1297 C 0.37259 0.30762 0.91889 0.0
H1298 H 0.2919 0.26745 0.88174 0.0
C1299 C 0.36762 0.30573 0.9711 0.0
H1300 H 0.34748 0.29544 0.84682 0.0
C1301 C 0.33563 0.28984 0.99112 0.0
C1302 C 0.30775 0.27511 0.95948 0.0
H1303 H 0.38844 0.31576 0.99662 0.0
H1304 H 0.33286 0.288 0.03155 0.0
C1305 C 0.31272 0.27826 0.90727 0.0
C1306 C 0.7057 0.06437 0.97087 0.0
C1307 C 0.70386 0.0675 0.91866 0.0
H1308 H 0.7233 0.04721 0.03133 0.0
C1309 C 0.71699 0.05274 0.88703 0.0
H1310 H 0.6957 0.0752 0.9964 0.0
C1311 C 0.73308 0.03686 0.90706 0.0
C1312 C 0.73618 0.03499 0.95927 0.0
H1313 H 0.71604 0.05456 0.8466 0.0
H1314 H 0.74386 0.02681 0.88153 0.0
C1315 C 0.72149 0.04818 0.99091 0.0
C1316 C 0.97481 0.69875 0.90726 0.0
C1317 C 0.97669 0.70374 0.95947 0.0
H1318 H 0.95716 0.66397 0.84683 0.0
C1319 C 0.96356 0.67588 0.99113 0.0
H1320 H 0.98481 0.71956 0.88171 0.0
C1321 C 0.94743 0.64389 0.97113 0.0
C1322 C 0.9443 0.6389 0.91892 0.0
H1323 H 0.96453 0.67867 0.03155 0.0
H1324 H 0.93666 0.62308 0.99668 0.0
C1325 C 0.95899 0.66676 0.88726 0.0
C1326 C 0.29682 0.34242 0.65774 0.0
C1327 C 0.31002 0.37028 0.62607 0.0
H1328 H 0.26982 0.28962 0.6633 0.0
C1329 C 0.30815 0.36529 0.57387 0.0
H1330 H 0.29778 0.34521 0.69817 0.0
C1331 C 0.29229 0.3333 0.55387 0.0
C1332 C 0.27754 0.30543 0.58554 0.0
H1333 H 0.3182 0.3861 0.54832 0.0
H1334 H 0.29048 0.3305 0.51345 0.0
C1335 C 0.28065 0.31042 0.63775 0.0
C1336 C 0.66888 0.95655 0.65772 0.0
C1337 C 0.64099 0.9418 0.6261 0.0
H1338 H 0.72169 0.98248 0.66318 0.0
C1339 C 0.64594 0.94492 0.57389 0.0
H1340 H 0.66612 0.95474 0.69815 0.0
C1341 C 0.67792 0.9611 0.55383 0.0
C1342 C 0.70581 0.97429 0.58545 0.0
H1343 H 0.62511 0.9341 0.54837 0.0
H1344 H 0.68068 0.96207 0.5134 0.0
C1345 C 0.70086 0.97243 0.63766 0.0
C1346 C 0.03883 0.73085 0.63773 0.0
C1347 C 0.03697 0.73397 0.58553 0.0
H1348 H 0.05649 0.71374 0.69817 0.0
C1349 C 0.05014 0.71927 0.55387 0.0
H1350 H 0.0288 0.74164 0.66327 0.0
C1351 C 0.06629 0.70343 0.57388 0.0
C1352 C 0.0694 0.70157 0.62609 0.0
H1353 H 0.04917 0.72109 0.51344 0.0
H1354 H 0.07709 0.69342 0.54834 0.0
C1355 C 0.05467 0.71471 0.65774 0.0
C1356 C 0.66919 0.7147 0.15776 0.0
C1357 C 0.6413 0.70149 0.12613 0.0
H1358 H 0.722 0.74173 0.16323 0.0
C1359 C 0.64626 0.70335 0.07392 0.0
H1360 H 0.66642 0.71373 0.19819 0.0
C1361 C 0.67824 0.71924 0.05387 0.0
C1362 C 0.70613 0.73401 0.0855 0.0
H1363 H 0.62543 0.6933 0.0484 0.0
H1364 H 0.68101 0.72106 1.01345 0.0
C1365 C 0.70117 0.73089 0.13771 0.0
C1366 C 0.30815 0.94469 0.0739 0.0
C1367 C 0.31001 0.94158 0.12611 0.0
H1368 H 0.29053 0.96184 1.01345 0.0
C1369 C 0.29692 0.95637 0.15776 0.0
H1370 H 0.31811 0.93383 0.04837 0.0
C1371 C 0.28083 0.97227 0.13774 0.0
C1372 C 0.27771 0.97411 0.08553 0.0
H1373 H 0.2979 0.95457 0.19818 0.0
H1374 H 0.27009 0.98234 0.16327 0.0
C1375 C 0.29236 0.96089 0.05388 0.0
C1376 C 0.06646 0.36527 0.07373 0.0
C1377 C 0.06958 0.37026 0.12594 0.0
H1378 H 0.04937 0.33049 1.0133 0.0
C1379 C 0.05489 0.34239 0.1576 0.0
H1380 H 0.07724 0.38608 0.04819 0.0
C1381 C 0.03908 0.3104 0.13759 0.0
C1382 C 0.03721 0.30541 0.08538 0.0
H1383 H 0.05671 0.34518 0.19802 0.0
H1384 H 0.02908 0.28959 0.16313 0.0
C1385 C 0.05034 0.33328 0.05372 0.0
C1386 C 0.71677 0.66662 0.38725 0.0
C1387 C 0.70361 0.63877 0.41894 0.0
H1388 H 0.74372 0.71942 0.38167 0.0
C1389 C 0.70548 0.64377 0.47114 0.0
H1390 H 0.71579 0.66382 0.34683 0.0
C1391 C 0.72134 0.67577 0.49112 0.0
C1392 C 0.73605 0.70363 0.45943 0.0
H1393 H 0.69546 0.62297 0.4967 0.0
H1394 H 0.72316 0.67858 0.53154 0.0
C1395 C 0.73293 0.69862 0.40723 0.0
C1396 C 0.31276 0.03666 0.40717 0.0
C1397 C 0.30781 0.03477 0.45939 0.0
H1398 H 0.34751 0.05435 0.34669 0.0
C1399 C 0.33571 0.04792 0.491 0.0
H1400 H 0.29193 0.02665 0.38166 0.0
C1401 C 0.36768 0.06408 0.47095 0.0
C1402 C 0.37264 0.06722 0.41874 0.0
H1403 H 0.33294 0.04693 0.53143 0.0
H1404 H 0.38851 0.07487 0.49647 0.0
C1405 C 0.34474 0.05251 0.38712 0.0
C1406 C 0.95898 0.29444 0.38712 0.0
C1407 C 0.94423 0.30757 0.41876 0.0
H1408 H 0.98485 0.26752 0.3816 0.0
C1409 C 0.94731 0.30568 0.47097 0.0
H1410 H 0.95718 0.29543 0.34669 0.0
C1411 C 0.96346 0.28984 0.49099 0.0
C1412 C 0.97664 0.27515 0.45934 0.0
H1413 H 0.93649 0.31568 0.49651 0.0
H1414 H 0.9644 0.288 0.53142 0.0
C1415 C 0.97482 0.27829 0.40713 0.0
C1416 C 0.03393 0.63895 0.30434 0.0
C1417 C 0.03889 0.64076 0.25213 0.0
H1418 H 0.99919 0.62133 0.36481 0.0
C1419 C 0.011 0.62755 0.2205 0.0
H1420 H 0.05476 0.649 0.32985 0.0
C1421 C 0.97902 0.61141 0.24055 0.0
C1422 C 0.97407 0.60835 0.29276 0.0
H1423 H 0.01377 0.62848 0.18007 0.0
H1424 H 0.95819 0.60058 0.21503 0.0
C1425 C 1.00196 0.62311 0.32438 0.0
C1426 C 0.39955 0.36995 0.24052 0.0
C1427 C 0.40265 0.36808 0.29273 0.0
H1428 H 0.3825 0.38765 0.18006 0.0
C1429 C 0.38795 0.38127 0.32437 0.0
H1430 H 0.41033 0.35991 0.21499 0.0
C1431 C 0.37215 0.39745 0.30434 0.0
C1432 C 0.37031 0.40058 0.25213 0.0
H1433 H 0.38975 0.3803 0.3648 0.0
H1434 H 0.36215 0.40827 0.32986 0.0
C1435 C 0.38345 0.38583 0.22049 0.0
C1436 C 0.61392 0.97709 0.30438 0.0
C1437 C 0.61082 0.97208 0.25218 0.0
H1438 H 0.63102 0.01189 0.36477 0.0
C1439 C 0.62553 0.99993 0.22049 0.0
H1440 H 0.60313 0.95629 0.32994 0.0
C1441 C 0.64136 0.03193 0.24046 0.0
C1442 C 0.64322 0.03694 0.29266 0.0
H1443 H 0.62372 0.99712 0.18006 0.0
H1444 H 0.65138 0.05273 0.21489 0.0
C1445 C 0.63006 0.00908 0.32435 0.0
C1446 C 0.37238 0.97718 0.80434 0.0
C1447 C 0.37054 0.97218 0.75214 0.0
H1448 H 0.39003 0.01198 0.86475 0.0
C1449 C 0.38374 1.00004 0.72046 0.0
H1450 H 0.36233 0.95638 0.8299 0.0
C1451 C 0.39989 0.03204 0.74045 0.0
C1452 C 0.40298 0.03704 0.79265 0.0
H1453 H 0.38279 0.99724 0.68004 0.0
H1454 H 0.41071 0.05284 0.71489 0.0
C1455 C 0.38823 0.00918 0.82433 0.0
C1456 C 0.03473 0.39776 0.80431 0.0
C1457 C 0.0397 0.40083 0.7521 0.0
H1458 H 0.99997 0.38067 0.86477 0.0
C1459 C 0.01181 0.38606 0.72046 0.0
H1460 H 0.05556 0.40861 0.82983 0.0
C1461 C 0.97983 0.3702 0.7405 0.0
C1462 C 0.97486 0.36839 0.7927 0.0
H1463 H 0.01458 0.38784 0.68004 0.0
H1464 H 0.95901 0.36014 0.71497 0.0
C1465 C 1.00275 0.3816 0.82435 0.0
C1466 C 0.64164 0.61167 0.7407 0.0
C1467 C 0.64347 0.60854 0.79291 0.0
H1468 H 0.62402 0.62881 0.68024 0.0
C1469 C 0.63031 0.62327 0.82455 0.0
H1470 H 0.65166 0.60087 0.71518 0.0
C1471 C 0.61419 0.63913 0.80452 0.0
C1472 C 0.6111 0.641 0.75231 0.0
H1473 H 0.63126 0.62144 0.86498 0.0
H1474 H 0.60339 0.64915 0.83004 0.0
C1475 C 0.62582 0.62784 0.72067 0.0
C1476 C 0.26835 0.11125 0.03219 0.0
C1477 C 0.24245 0.0821 1.01145 0.0
H1478 H 0.28462 0.16134 0.05549 0.0
C1479 C 0.21343 0.08146 0.99654 0.0
H1480 H 0.2911 0.11229 0.04354 0.0
C1481 C 0.20991 0.10904 1.00264 0.0
C1482 C 0.23517 0.13814 0.0244 0.0
H1483 H 0.19328 0.05942 0.97986 0.0
H1484 H 0.18717 0.10745 0.99005 0.0
C1485 C 0.26451 0.13905 0.03945 0.0
C1486 C 0.92984 0.13383 0.99648 0.0
C1487 C 0.92926 0.16225 1.0113 0.0
H1488 H 0.90374 0.08157 0.99006 0.0
C1489 C 0.90013 0.15909 0.03196 0.0
H1490 H 0.95186 0.13565 0.97986 0.0
C1491 C 0.87228 0.12749 0.03922 0.0
C1492 C 0.87312 0.09902 0.02425 0.0
H1493 H 0.89914 0.18083 0.04323 0.0
H1494 H 0.85 0.12537 0.05518 0.0
C1495 C 0.90221 0.10277 1.00259 0.0
C1496 C 0.87773 0.79852 0.99648 0.0
C1497 C 0.84931 0.76951 1.01128 0.0
H1498 H 0.92999 0.8247 0.9901 0.0
C1499 C 0.85248 0.74354 0.03192 0.0
H1500 H 0.8759 0.81872 0.97987 0.0
C1501 C 0.88409 0.74731 0.0392 0.0
C1502 C 0.91255 0.77663 0.02426 0.0
H1503 H 0.83074 0.7208 0.04317 0.0
H1504 H 0.88621 0.72715 0.05516 0.0
C1505 C 0.9088 0.80197 1.00261 0.0
C1506 C 0.14143 0.26189 0.5056 0.0
C1507 C 0.14055 0.23255 0.52054 0.0
H1508 H 0.11462 0.28842 0.50159 0.0
C1509 C 0.11144 0.20722 0.54214 0.0
H1510 H 0.16374 0.28205 0.48968 0.0
C1511 C 0.08382 0.21068 0.54822 0.0
C1512 C 0.08444 0.2397 0.53344 0.0
H1513 H 0.10987 0.18447 0.55464 0.0
H1514 H 0.06177 0.19048 0.5648 0.0
C1515 C 0.1136 0.26567 0.51283 0.0
C1516 C 0.80041 0.87528 0.5482 0.0
C1517 C 0.77139 0.84688 0.53339 0.0
H1518 H 0.82664 0.92754 0.5546 0.0
C1519 C 0.74544 0.85008 0.51272 0.0
H1520 H 0.8206 0.87343 0.56483 0.0
C1521 C 0.74924 0.88169 0.50544 0.0
C1522 C 0.77857 0.91014 0.52041 0.0
H1523 H 0.72269 0.82835 0.50144 0.0
H1524 H 0.7291 0.88384 0.48947 0.0
C1525 C 0.80389 0.90636 0.54208 0.0
C1526 C 0.10513 0.89999 0.54249 0.0
C1527 C 0.10129 0.8709 0.52071 0.0
H1528 H 0.13812 0.9496 0.56529 0.0
C1529 C 0.12972 0.87 0.50565 0.0
H1530 H 0.08397 0.90158 0.55509 0.0
C1531 C 0.16135 0.89779 0.51291 0.0
C1532 C 0.1646 0.92693 0.53367 0.0
H1533 H 0.12753 0.84771 0.48959 0.0
H1534 H 0.18306 0.89675 0.50155 0.0
C1535 C 0.13623 0.92757 0.5486 0.0
C1536 C 0.74553 0.89788 1.01273 0.0
C1537 C 0.77143 0.92703 0.03347 0.0
H1538 H 0.72925 0.8478 0.98944 0.0
C1539 C 0.80044 0.92767 0.0484 0.0
H1540 H 0.72279 0.89685 1.00136 0.0
C1541 C 0.80395 0.90008 0.04231 0.0
C1542 C 0.77869 0.87099 1.02055 0.0
H1543 H 0.82059 0.9497 0.06508 0.0
H1544 H 0.82669 0.90166 0.05492 0.0
C1545 C 0.74936 0.87009 1.00548 0.0
C1546 C 0.11165 0.9064 0.04225 0.0
C1547 C 0.14074 0.91013 1.02063 0.0
H1548 H 0.06199 0.87353 0.06495 0.0
C1549 C 0.14159 0.88165 1.0057 0.0
H1550 H 0.11012 0.9276 0.05475 0.0
C1551 C 0.11373 0.85006 1.01295 0.0
C1552 C 0.08459 0.84691 0.03357 0.0
H1553 H 0.16387 0.88377 0.98976 0.0
H1554 H 0.11472 0.82831 1.00171 0.0
C1555 C 0.08401 0.87534 0.04836 0.0
C1556 C 0.13611 0.21058 0.04828 0.0
C1557 C 0.16453 0.2396 0.03353 0.0
H1558 H 0.08384 0.1844 0.05461 0.0
C1559 C 0.16137 0.26558 1.0129 0.0
H1560 H 0.13793 0.19038 0.06488 0.0
C1561 C 0.12977 0.26182 1.0056 0.0
C1562 C 0.10129 0.23249 1.02051 0.0
H1563 H 0.18311 0.28833 1.00169 0.0
H1564 H 0.12765 0.28198 0.98966 0.0
C1565 C 0.10504 0.20714 0.04213 0.0
C1566 C 0.90003 0.74344 0.53197 0.0
C1567 C 0.92919 0.76942 0.51137 0.0
H1568 H 0.84989 0.72705 0.55513 0.0
C1569 C 0.9298 0.79844 0.49659 0.0
H1570 H 0.89902 0.72069 0.5432 0.0
C1571 C 0.90218 0.80189 0.50269 0.0
C1572 C 0.87307 0.77655 0.52429 0.0
H1573 H 0.95184 0.81864 0.48002 0.0
H1574 H 0.90373 0.82463 0.49019 0.0
C1575 C 0.8722 0.74721 0.53921 0.0
C1576 C 0.21323 0.13381 0.4967 0.0
C1577 C 0.24224 0.16221 0.51154 0.0
H1578 H 0.18702 0.08156 0.49026 0.0
C1579 C 0.26818 0.15902 0.53223 0.0
H1580 H 0.19304 0.13566 0.48005 0.0
C1581 C 0.26439 0.12741 0.53949 0.0
C1582 C 0.23507 0.09895 0.52449 0.0
H1583 H 0.29093 0.18074 0.54353 0.0
H1584 H 0.28454 0.12526 0.55548 0.0
C1585 C 0.20976 0.10274 0.50281 0.0
C1586 C 0.88392 0.13911 0.53922 0.0
C1587 C 0.91235 0.13821 0.52417 0.0
H1588 H 0.83058 0.11235 0.54331 0.0
C1589 C 0.90852 0.10911 0.50242 0.0
H1590 H 0.8861 0.1614 0.55526 0.0
C1591 C 0.87742 0.08153 0.49631 0.0
C1592 C 0.84904 0.08217 0.51123 0.0
H1593 H 0.92968 0.10753 0.48983 0.0
H1594 H 0.87553 0.05949 0.47964 0.0
C1595 C 0.85228 0.11132 0.53197 0.0
C1596 C 0.93089 0.47236 0.37277 0.0
C1597 C 0.90155 0.47145 0.35771 0.0
H1598 H 0.95749 0.44563 0.37682 0.0
C1599 C 0.87631 0.44236 0.33591 0.0
H1600 H 0.95098 0.49465 0.38885 0.0
C1601 C 0.87984 0.4148 0.32975 0.0
C1602 C 0.90886 0.41545 0.34468 0.0
H1603 H 0.85356 0.44077 0.32331 0.0
H1604 H 0.8597 0.39277 0.31304 0.0
C1605 C 0.93475 0.44458 0.36547 0.0
C1606 C 0.56651 0.49232 0.36547 0.0
C1607 C 0.59567 0.49552 0.34484 0.0
H1608 H 0.51639 0.45854 0.38864 0.0
C1609 C 0.5963 0.46713 0.33 0.0
H1610 H 0.56548 0.51404 0.37675 0.0
C1611 C 0.56869 0.43605 0.33608 0.0
C1612 C 0.53958 0.43226 0.35772 0.0
H1613 H 0.61835 0.46899 0.31341 0.0
H1614 H 0.57027 0.41488 0.32355 0.0
C1615 C 0.53869 0.4607 0.3727 0.0
C1616 C 0.54426 0.1317 0.32976 0.0
C1617 C 0.51586 0.10268 0.34456 0.0
H1618 H 0.59653 0.1579 0.32334 0.0
C1619 C 0.51905 0.07672 0.3652 0.0
H1620 H 0.54242 0.15189 0.31316 0.0
C1621 C 0.55066 0.08051 0.37245 0.0
C1622 C 0.57912 0.10984 0.35749 0.0
H1623 H 0.49732 0.05397 0.37645 0.0
H1624 H 0.55281 0.06035 0.38839 0.0
C1625 C 0.57534 0.13516 0.33585 0.0
C1626 C 0.77821 0.54061 0.87581 0.0
C1627 C 0.80731 0.56595 0.85419 0.0
H1628 H 0.72855 0.52384 0.89851 0.0
C1629 C 0.80817 0.59528 0.83928 0.0
H1630 H 0.77666 0.51786 0.88829 0.0
C1631 C 0.78033 0.59905 0.84655 0.0
C1632 C 0.75118 0.57307 0.86716 0.0
H1633 H 0.83047 0.61545 0.82335 0.0
H1634 H 0.78134 0.6218 0.83532 0.0
C1635 C 0.75058 0.54405 0.88193 0.0
C1636 C 0.4672 0.20863 0.88162 0.0
C1637 C 0.4382 0.18023 0.86675 0.0
H1638 H 0.4934 0.26088 0.88809 0.0
C1639 C 0.41225 0.18342 0.84607 0.0
H1640 H 0.48739 0.20678 0.89826 0.0
C1641 C 0.41604 0.21504 0.83883 0.0
C1642 C 0.44536 0.24349 0.85384 0.0
H1643 H 0.38951 0.1617 0.83475 0.0
H1644 H 0.3959 0.21719 0.82284 0.0
C1645 C 0.47067 0.2397 0.87553 0.0
C1646 C 0.7721 0.23354 0.87546 0.0
C1647 C 0.76826 0.20445 0.8537 0.0
H1648 H 0.8051 0.28315 0.89829 0.0
C1649 C 0.79668 0.20353 0.83866 0.0
H1650 H 0.75095 0.23513 0.88805 0.0
C1651 C 0.82833 0.23131 0.84594 0.0
C1652 C 0.83158 0.26046 0.8667 0.0
H1653 H 0.79449 0.18124 0.82261 0.0
H1654 H 0.85003 0.23027 0.8346 0.0
C1655 C 0.80321 0.26111 0.8816 0.0
C1656 C 0.41595 0.20328 0.33885 0.0
C1657 C 0.44528 0.20418 0.35387 0.0
H1658 H 0.38937 0.23004 0.33481 0.0
C1659 C 0.47056 0.23328 0.37559 0.0
H1660 H 0.39583 0.18099 0.32283 0.0
C1661 C 0.46705 0.26087 0.38172 0.0
C1662 C 0.43804 0.26023 0.36684 0.0
H1663 H 0.49331 0.23486 0.38816 0.0
H1664 H 0.48722 0.2829 0.39838 0.0
C1665 C 0.41211 0.23108 0.34613 0.0
C1666 C 0.80814 0.21498 0.33868 0.0
C1667 C 0.80727 0.24344 0.35363 0.0
H1668 H 0.78133 0.16164 0.33467 0.0
C1669 C 0.77817 0.23967 0.37525 0.0
H1670 H 0.83044 0.21712 0.32274 0.0
C1671 C 0.75055 0.2086 0.38135 0.0
C1672 C 0.75116 0.18019 0.36656 0.0
H1673 H 0.77661 0.26085 0.38776 0.0
H1674 H 0.72851 0.20676 0.39795 0.0
C1675 C 0.78031 0.18337 0.34593 0.0
C1676 C 0.8025 0.54393 0.38196 0.0
C1677 C 0.83092 0.57293 0.36714 0.0
H1678 H 0.75024 0.51776 0.38838 0.0
C1679 C 0.82775 0.5989 0.34651 0.0
H1680 H 0.80433 0.52372 0.39856 0.0
C1681 C 0.79615 0.59514 0.33926 0.0
C1682 C 0.76768 0.56583 0.35422 0.0
H1683 H 0.84949 0.62164 0.33524 0.0
H1684 H 0.79402 0.6153 0.3233 0.0
C1685 C 0.77143 0.54049 0.37586 0.0
C1686 C 0.59671 0.13196 0.82981 0.0
C1687 C 0.59613 0.10295 0.84457 0.0
H1688 H 0.57061 0.15812 0.82347 0.0
C1689 C 0.56699 0.07696 0.86519 0.0
H1690 H 0.61874 0.15217 0.81322 0.0
C1691 C 0.53914 0.0807 0.87247 0.0
C1692 C 0.53998 0.11002 0.85756 0.0
H1693 H 0.566 0.05422 0.8764 0.0
H1694 H 0.51686 0.06053 0.8884 0.0
C1695 C 0.56908 0.13538 0.83595 0.0
C1696 C 0.93504 0.49252 0.86545 0.0
C1697 C 0.90906 0.49569 0.84485 0.0
H1698 H 0.95145 0.45879 0.88859 0.0
C1699 C 0.88005 0.46728 0.83004 0.0
H1700 H 0.95778 0.51425 0.87671 0.0
C1701 C 0.87661 0.43621 0.83611 0.0
C1702 C 0.90196 0.43245 0.85771 0.0
H1703 H 0.85984 0.46911 0.81346 0.0
H1704 H 0.85387 0.41502 0.8236 0.0
C1705 C 0.93128 0.46092 0.87267 0.0
C1706 C 0.55066 0.47245 0.87272 0.0
C1707 C 0.57909 0.47156 0.85768 0.0
H1708 H 0.49731 0.44568 0.87678 0.0
C1709 C 0.57528 0.44248 0.83591 0.0
H1710 H 0.55283 0.49473 0.88878 0.0
C1711 C 0.54418 0.41489 0.82978 0.0
C1712 C 0.5158 0.41551 0.84469 0.0
H1713 H 0.59644 0.44091 0.82332 0.0
H1714 H 0.54231 0.39286 0.81309 0.0
C1715 C 0.51903 0.44465 0.86544 0.0
C1716 C 0.60158 0.77795 0.69881 0.0
C1717 C 0.57566 0.7488 0.67811 0.0
H1718 H 0.61785 0.82805 0.72208 0.0
C1719 C 0.54664 0.74815 0.66323 0.0
H1720 H 0.62433 0.779 0.71014 0.0
C1721 C 0.54312 0.77573 0.66933 0.0
C1722 C 0.5684 0.80483 0.69104 0.0
H1723 H 0.52648 0.72611 0.64657 0.0
H1724 H 0.52038 0.77414 0.65676 0.0
C1725 C 0.59774 0.80575 0.70607 0.0
C1726 C 0.20554 0.79418 0.7061 0.0
C1727 C 0.20639 0.76571 0.69114 0.0
H1728 H 0.23237 0.84751 0.71012 0.0
C1729 C 0.2355 0.76947 0.66952 0.0
H1730 H 0.18324 0.79204 0.72204 0.0
C1731 C 0.26312 0.80054 0.66342 0.0
C1732 C 0.26253 0.82895 0.67823 0.0
H1733 H 0.23705 0.74828 0.657 0.0
H1734 H 0.28515 0.80237 0.64682 0.0
C1735 C 0.23338 0.82578 0.69886 0.0
C1736 C 0.21759 0.41402 0.70575 0.0
C1737 C 0.24607 0.44334 0.69084 0.0
H1738 H 0.16424 0.38754 0.70969 0.0
C1739 C 0.24235 0.4687 0.66922 0.0
H1740 H 0.21969 0.39384 0.72169 0.0
C1741 C 0.21129 0.46528 0.66309 0.0
C1742 C 0.18286 0.43628 0.67785 0.0
H1743 H 0.26356 0.49143 0.65674 0.0
H1744 H 0.20949 0.4855 0.6465 0.0
C1745 C 0.186 0.41028 0.69847 0.0
C1746 C 0.41708 0.87704 0.21498 0.0
C1747 C 0.41766 0.90605 0.20027 0.0
H1748 H 0.44319 0.85088 0.22131 0.0
C1749 C 0.44681 0.93206 0.17969 0.0
H1750 H 0.39504 0.85681 0.23154 0.0
C1751 C 0.47466 0.92832 0.17242 0.0
C1752 C 0.47382 0.899 0.1873 0.0
H1753 H 0.4478 0.95481 0.1685 0.0
H1754 H 0.49696 0.94851 0.15653 0.0
C1755 C 0.44472 0.87362 0.20886 0.0
C1756 C 0.13714 0.57292 0.20872 0.0
C1757 C 0.1118 0.57667 0.18709 0.0
H1758 H 0.15393 0.54004 0.2314 0.0
C1759 C 0.08249 0.5482 0.1721 0.0
H1760 H 0.15987 0.59411 0.22126 0.0
C1761 C 0.07874 0.5166 0.17933 0.0
C1762 C 0.10472 0.51344 0.19997 0.0
H1763 H 0.06232 0.55032 0.15615 0.0
H1764 H 0.05601 0.49486 0.16805 0.0
C1765 C 0.13372 0.54186 0.2148 0.0
C1766 C 0.49484 0.56445 0.17957 0.0
C1767 C 0.49808 0.5936 0.20033 0.0
H1768 H 0.46102 0.51438 0.15622 0.0
C1769 C 0.46971 0.59423 0.21526 0.0
H1770 H 0.51654 0.56342 0.16821 0.0
C1771 C 0.4386 0.56665 0.20914 0.0
C1772 C 0.43477 0.53757 0.18735 0.0
H1773 H 0.47159 0.61626 0.23196 0.0
H1774 H 0.41745 0.56823 0.22174 0.0
C1775 C 0.4632 0.53666 0.17229 0.0
C1776 C 0.07895 0.56457 0.67935 0.0
C1777 C 0.10483 0.59372 0.70013 0.0
H1778 H 0.06274 0.5145 0.65599 0.0
C1779 C 0.13386 0.59438 0.71504 0.0
H1780 H 0.05619 0.56351 0.668 0.0
C1781 C 0.13741 0.56683 0.70889 0.0
C1782 C 0.11217 0.53773 0.6871 0.0
H1783 H 0.15399 0.61642 0.73174 0.0
H1784 H 0.16017 0.56843 0.72148 0.0
C1785 C 0.08283 0.5368 0.67206 0.0
C1786 C 0.41744 0.54188 0.71508 0.0
C1787 C 0.41805 0.51349 0.70019 0.0
H1788 H 0.44349 0.59414 0.72158 0.0
C1789 C 0.4472 0.5167 0.67951 0.0
H1790 H 0.3954 0.54003 0.73171 0.0
C1791 C 0.47503 0.54832 0.67229 0.0
C1792 C 0.47415 0.57676 0.68732 0.0
H1793 H 0.44822 0.49498 0.66819 0.0
H1794 H 0.49732 0.55048 0.6563 0.0
C1795 C 0.44505 0.57296 0.70901 0.0
C1796 C 0.43831 0.87386 0.70899 0.0
C1797 C 0.43455 0.8992 0.68735 0.0
H1798 H 0.47121 0.85711 0.7317 0.0
C1799 C 0.46302 0.92852 0.67242 0.0
H1800 H 0.41711 0.85112 0.72149 0.0
C1801 C 0.49462 0.93229 0.67968 0.0
C1802 C 0.49779 0.90632 0.70031 0.0
H1803 H 0.46089 0.94869 0.65647 0.0
H1804 H 0.51636 0.95504 0.66844 0.0
C1805 C 0.46938 0.87731 0.7151 0.0
C1806 C 0.23565 0.4686 0.16922 0.0
C1807 C 0.20654 0.44325 0.19081 0.0
H1808 H 0.28532 0.48536 0.14656 0.0
C1809 C 0.20567 0.41391 0.2057 0.0
H1810 H 0.2372 0.49135 0.15676 0.0
C1811 C 0.2335 0.41014 0.19845 0.0
C1812 C 0.26266 0.43613 0.17787 0.0
H1813 H 0.18336 0.39374 0.2216 0.0
H1814 H 0.23249 0.38739 0.20966 0.0
C1815 C 0.26328 0.46515 0.16312 0.0
C1816 C 0.60161 0.82568 0.19888 0.0
C1817 C 0.57566 0.82886 0.17818 0.0
H1818 H 0.61797 0.79193 0.22214 0.0
C1819 C 0.54666 0.80046 0.16333 0.0
H1820 H 0.62435 0.84741 0.21018 0.0
C1821 C 0.5432 0.76939 0.16945 0.0
C1822 C 0.56851 0.76561 0.19115 0.0
H1823 H 0.52647 0.8023 0.14668 0.0
H1824 H 0.52046 0.7482 0.1569 0.0
C1825 C 0.59783 0.79407 0.20615 0.0
C1826 C 0.18544 0.7778 0.19884 0.0
C1827 C 0.18217 0.74865 0.17806 0.0
H1828 H 0.21931 0.82786 0.2222 0.0
C1829 C 0.21053 0.74798 0.16311 0.0
H1830 H 0.16375 0.77885 0.21021 0.0
C1831 C 0.24164 0.77554 0.16924 0.0
C1832 C 0.2455 0.80463 0.19105 0.0
H1833 H 0.20862 0.72595 0.1464 0.0
H1834 H 0.26278 0.77394 0.15663 0.0
C1835 C 0.21709 0.80557 0.20612 0.0
C1836 C 0.20079 0.19619 0.24633 0.0
C1837 C 0.22799 0.22085 0.21973 0.0
H1838 H 0.17778 0.17875 0.31846 0.0
C1839 C 0.25272 0.24777 0.24656 0.0
H1840 H 0.18127 0.17522 0.22668 0.0
C1841 C 0.25027 0.25023 0.2985 0.0
C1842 C 0.22338 0.2255 0.32536 0.0
H1843 H 0.27383 0.26738 0.22727 0.0
H1844 H 0.26988 0.27137 0.31775 0.0
C1845 C 0.19873 0.19828 0.29879 0.0
C1846 C 0.81489 0.00667 0.24612 0.0
C1847 C 0.79025 0.00924 0.21952 0.0
H1848 H 0.83233 1.00107 0.31823 0.0
C1849 C 0.76335 0.00708 0.24636 0.0
H1850 H 0.83585 0.00809 0.22646 0.0
C1851 C 0.76089 1.00216 0.2983 0.0
C1852 C 0.78561 0.99998 0.32515 0.0
H1853 H 0.74375 0.0086 0.22709 0.0
H1854 H 0.73977 1.00066 0.31757 0.0
C1855 C 0.81281 1.00252 0.29857 0.0
C1856 C 0.0093 0.76132 0.29846 0.0
C1857 C 0.01148 0.78823 0.32529 0.0
H1858 H 1.00288 0.73774 0.22725 0.0
C1859 C 0.00896 0.8129 0.29868 0.0
H1860 H 0.01078 0.7417 0.31774 0.0
C1861 C 1.00484 0.81083 0.24623 0.0
C1862 C 1.00228 0.78361 0.21965 0.0
H1863 H 0.01041 0.83387 0.31834 0.0
H1864 H 1.00343 0.83036 0.22655 0.0
C1865 C 1.00441 0.75887 0.24651 0.0
C1866 C 0.81295 0.81291 0.79855 0.0
C1867 C 0.78577 0.78826 0.82519 0.0
H1868 H 0.83593 0.83035 0.7264 0.0
C1869 C 0.76103 0.76135 0.79837 0.0
H1870 H 0.83249 0.83388 0.81819 0.0
C1871 C 0.76345 0.75888 0.74643 0.0
C1872 C 0.79032 0.78361 0.71954 0.0
H1873 H 0.73992 0.74174 0.81767 0.0
H1874 H 0.74383 0.73774 0.72719 0.0
C1875 C 0.81499 0.81083 0.7461 0.0
C1876 C 0.25286 0.00695 0.74654 0.0
C1877 C 0.22812 0.00913 0.71973 0.0
H1878 H 0.27004 1.00052 0.81772 0.0
C1879 C 0.20093 0.0066 0.74636 0.0
H1880 H 0.27397 0.00845 0.72724 0.0
C1881 C 0.19888 1.00246 0.79881 0.0
C1882 C 0.22355 0.9999 0.82537 0.0
H1883 H 0.1814 0.00804 0.72673 0.0
H1884 H 0.17794 1.00104 0.81851 0.0
C1885 C 0.25043 1.00205 0.79848 0.0
C1886 C 1.00475 0.19623 0.74614 0.0
C1887 C 1.00223 0.2209 0.71955 0.0
H1888 H 0.01033 0.17877 0.81825 0.0
C1889 C 1.00443 0.24781 0.7464 0.0
H1890 H 1.00329 0.17526 0.72647 0.0
C1891 C 0.00935 0.25027 0.79834 0.0
C1892 C 0.0115 0.22553 0.82518 0.0
H1893 H 1.00293 0.26743 0.72713 0.0
H1894 H 0.01089 0.27141 0.81761 0.0
C1895 C 0.00891 0.19831 0.79859 0.0
C1896 C 0.91926 0.58114 0.57994 0.0
C1897 C 0.89451 0.55422 0.55315 0.0
H1898 H 0.93647 0.60477 0.6511 0.0
C1899 C 0.86734 0.52957 0.57981 0.0
H1900 H 0.94036 0.60075 0.56061 0.0
C1901 C 0.86532 0.53168 0.63227 0.0
C1902 C 0.88999 0.55891 0.6588 0.0
H1903 H 0.8478 0.50859 0.5602 0.0
H1904 H 0.84438 0.51216 0.65198 0.0
C1905 C 0.91685 0.58363 0.63188 0.0
C1906 C 0.42997 0.3403 0.57983 0.0
C1907 C 0.45686 0.34246 0.55295 0.0
H1908 H 0.40643 0.33391 0.65107 0.0
C1909 C 0.48154 0.33993 0.57952 0.0
H1910 H 0.41034 0.34179 0.56058 0.0
C1911 C 0.4795 0.33582 0.63197 0.0
C1912 C 0.4523 0.33327 0.6586 0.0
H1913 H 0.50249 0.34136 0.55983 0.0
H1914 H 0.49904 0.3344 0.65162 0.0
C1915 C 0.42755 0.33542 0.63178 0.0
C1916 C 0.67577 0.14632 0.63175 0.0
C1917 C 0.67831 0.12167 0.65838 0.0
H1918 H 0.67016 0.16373 0.55961 0.0
C1919 C 0.67612 0.09475 0.63157 0.0
H1920 H 0.67722 0.1673 0.65138 0.0
C1921 C 0.67118 0.09226 0.57963 0.0
C1922 C 0.66901 0.11698 0.55275 0.0
H1923 H 0.67763 0.07515 0.65087 0.0
H1924 H 0.66965 0.07112 0.56039 0.0
C1925 C 0.67159 0.14421 0.5793 0.0
C1926 C 0.42772 0.09461 0.13162 0.0
C1927 C 0.45244 0.12151 0.15848 0.0
H1928 H 0.41059 0.07104 0.06039 0.0
C1929 C 0.47964 0.14619 0.1319 0.0
H1930 H 0.4066 0.07499 0.15088 0.0
C1931 C 0.48172 0.14412 0.07945 0.0
C1932 C 0.45709 0.11691 0.05285 0.0
H1933 H 0.49915 0.16715 0.15158 0.0
H1934 H 0.50268 0.16366 0.0598 0.0
C1935 C 0.43019 0.09217 0.07968 0.0
C1936 C 0.91713 0.33551 0.13169 0.0
C1937 C 0.89021 0.33334 0.1585 0.0
H1938 H 0.94075 0.34195 0.06052 0.0
C1939 C 0.86557 0.33589 0.13187 0.0
H1940 H 0.93673 0.334 0.15099 0.0
C1941 C 0.86767 0.34004 0.07942 0.0
C1942 C 0.89489 0.3426 0.05287 0.0
H1943 H 0.84459 0.33445 0.1515 0.0
H1944 H 0.84815 0.34147 0.05973 0.0
C1945 C 0.91961 0.34043 0.07976 0.0
C1946 C 0.67585 0.58357 0.13195 0.0
C1947 C 0.67799 0.55884 0.15883 0.0
H1948 H 0.66949 0.60074 0.06071 0.0
C1949 C 0.67544 0.53163 0.13226 0.0
H1950 H 0.67736 0.6047 0.1512 0.0
C1951 C 0.67133 0.52955 0.0798 0.0
C1952 C 0.66882 0.55422 0.05318 0.0
H1953 H 0.67685 0.51209 0.15195 0.0
H1954 H 0.6699 0.50859 0.06015 0.0
C1955 C 0.67098 0.58112 0.08 0.0
C1956 C 0.53204 0.8649 0.96546 0.0
C1957 C 0.55669 0.89212 0.99205 0.0
H1958 H 0.51458 0.84187 0.89335 0.0
C1959 C 0.58357 0.91687 0.96519 0.0
H1960 H 0.5111 0.84536 0.98514 0.0
C1961 C 0.58601 0.91442 0.91325 0.0
C1962 C 0.56129 0.88752 0.8864 0.0
H1963 H 0.60317 0.938 0.98446 0.0
H1964 H 0.60712 0.93405 0.89397 0.0
C1965 C 0.5341 0.86284 0.91301 0.0
C1966 C 0.09409 0.66869 0.96505 0.0
C1967 C 0.11882 0.66652 0.99192 0.0
H1968 H 0.07697 0.67513 0.89383 0.0
C1969 C 0.14604 0.66909 0.96535 0.0
H1970 H 0.07296 0.66717 0.9843 0.0
C1971 C 0.14814 0.67326 0.91291 0.0
C1972 C 0.12349 0.67581 0.88629 0.0
H1973 H 0.16556 0.66766 0.98504 0.0
H1974 H 0.16911 0.6747 0.89326 0.0
C1975 C 0.09657 0.67362 0.91312 0.0
C1976 C 0.34249 0.47958 0.96522 0.0
C1977 C 0.34499 0.45491 0.99185 0.0
H1978 H 0.33696 0.49702 0.89307 0.0
C1979 C 0.34279 0.42798 0.96503 0.0
H1980 H 0.34395 0.50056 0.98485 0.0
C1981 C 0.33789 0.42551 0.91309 0.0
C1982 C 0.33577 0.45026 0.8862 0.0
H1983 H 0.34427 0.40836 0.98433 0.0
H1984 H 0.33635 0.40437 0.89385 0.0
C1985 C 0.33835 0.47749 0.91276 0.0
C1986 C 0.14644 0.47961 0.46507 0.0
C1987 C 0.11927 0.45496 0.49173 0.0
H1988 H 0.16939 0.49703 0.39289 0.0
C1989 C 0.09453 0.42802 0.46495 0.0
H1990 H 0.16597 0.5006 0.48468 0.0
C1991 C 0.09694 0.42553 0.413 0.0
C1992 C 0.1238 0.45026 0.38609 0.0
H1993 H 0.07344 0.40842 0.48427 0.0
H1994 H 0.07732 0.40439 0.39378 0.0
C1995 C 0.14846 0.4775 0.41261 0.0
C1996 C 0.58626 0.67366 0.41325 0.0
C1997 C 0.56152 0.67581 0.38641 0.0
H1998 H 0.60344 0.66726 0.48446 0.0
C1999 C 0.53431 0.67325 0.413 0.0
H2000 H 0.60739 0.67518 0.39398 0.0
C2001 C 0.53225 0.66911 0.46545 0.0
C2002 C 0.55691 0.66658 0.49204 0.0
H2003 H 0.51478 0.67467 0.39334 0.0
H2004 H 0.51128 0.66767 0.48512 0.0
C2005 C 0.58382 0.66876 0.46519 0.0
C2006 C 0.33796 0.86273 0.41308 0.0
C2007 C 0.33544 0.88738 0.38643 0.0
H2008 H 0.34353 0.84533 0.48525 0.0
C2009 C 0.33765 0.91432 0.41321 0.0
H2010 H 0.3365 0.84174 0.39347 0.0
C2011 C 0.34258 0.91682 0.46515 0.0
C2012 C 0.34472 0.8921 0.49206 0.0
H2013 H 0.33616 0.93393 0.39389 0.0
H2014 H 0.34412 0.93798 0.48437 0.0
C2015 C 0.34212 0.86485 0.46553 0.0
loop_
_geom_bond_atom_site_label_1
_geom_bond_atom_site_label_2
_geom_bond_distance
_geom_bond_site_symmetry_2
_ccdc_geom_bond_type
Mn0 O5 2.095 . S
Mn0 O15 2.162 . S
Mn0 O16 2.297 . S
Mn0 O24 2.385 . S
Mn0 O25 2.209 . S
Mn0 O26 2.094 . S
Mn1 O6 2.121 . S
Mn1 N8 2.257 . S
Mn1 N17 2.282 . S
Mn1 O25 2.215 1_556 S
Mn1 O27 2.117 . S
C2 O24 1.234 . S
C2 O25 1.283 . S
C3 O15 1.281 . S
C3 O16 1.236 . S
C4 O26 1.240 1_556 S
C4 O27 1.264 . S
O5 Mn0 2.095 . S
O5 C14 1.250 . S
O6 Mn1 2.121 . S
O6 C14 1.258 1_556 S
C7 N8 1.326 . S
C7 C11 1.460 . S
C7 H13 0.929 . S
N8 Mn1 2.257 . S
N8 C7 1.326 . S
N8 C12 1.362 . S
C9 C10 1.258 . S
C9 C12 1.431 . S
C9 C29 1.449 . S
C10 C9 1.258 . S
C10 C11 1.477 . S
C10 H30 0.931 . S
C11 C7 1.460 . S
C11 C10 1.477 . S
C11 H31 0.930 . S
C12 N8 1.362 . S
C12 C9 1.431 . S
C12 C22 1.476 . S
H13 C7 0.929 . S
C14 O5 1.250 . S
C14 O6 1.258 1_554 S
O15 Mn0 2.162 . S
O15 C3 1.281 . S
O16 Mn0 2.297 . S
O16 C3 1.236 . S
N17 Mn1 2.282 . S
N17 C18 1.328 . S
N17 C22 1.318 . S
C18 N17 1.328 . S
C18 C19 1.457 . S
C18 H23 0.929 . S
C19 C18 1.457 . S
C19 C20 1.291 . S
C19 H32 0.931 . S
C20 C19 1.291 . S
C20 C21 1.373 . S
C20 H33 0.929 . S
C21 C20 1.373 . S
C21 C22 1.396 . S
C21 C28 1.403 . S
C22 C12 1.476 . S
C22 N17 1.318 . S
C22 C21 1.396 . S
H23 C18 0.929 . S
O24 Mn0 2.385 . S
O24 C2 1.234 . S
O25 Mn0 2.209 . S
O25 Mn1 2.215 1_554 S
O25 C2 1.283 . S
O26 Mn0 2.094 . S
O26 C4 1.240 1_554 S
O27 Mn1 2.117 . S
O27 C4 1.264 . S
C28 C21 1.403 . S
C28 C29 1.399 . S
C28 H34 0.929 . S
C29 C9 1.449 . S
C29 C28 1.399 . S
C29 H35 0.930 . S
H30 C10 0.931 . S
H31 C11 0.930 . S
H32 C19 0.931 . S
H33 C20 0.929 . S
H34 C28 0.929 . S
H35 C29 0.930 . S
Mn36 O41 2.095 . S
Mn36 O51 2.162 . S
Mn36 O52 2.297 . S
Mn36 O60 2.385 1_545 S
Mn36 O61 2.209 1_545 S
Mn36 O62 2.094 . S
Mn37 O42 2.121 . S
Mn37 N44 2.287 . S
Mn37 N53 2.282 1_545 S
Mn37 O61 2.215 1_546 S
Mn37 O63 2.117 . S
C38 O60 1.234 . S
C38 O61 1.283 . S
C39 O51 1.281 . S
C39 O52 1.236 . S
C40 O62 1.240 1_556 S
C40 O63 1.264 . S
O41 Mn36 2.095 . S
O41 C50 1.250 . S
O42 Mn37 2.121 . S
O42 C50 1.258 1_556 S
C43 N44 1.324 . S
C43 C47 1.483 . S
C43 H49 0.929 . S
N44 Mn37 2.287 . S
N44 C43 1.324 . S
N44 C48 1.337 1_545 S
C45 C46 1.258 . S
C45 C48 1.431 . S
C45 C65 1.449 . S
C46 C45 1.258 . S
C46 C47 1.457 1_565 S
C46 H66 0.931 . S
C47 C43 1.483 . S
C47 C46 1.457 1_545 S
C47 H67 0.927 . S
C48 N44 1.337 1_565 S
C48 C45 1.431 . S
C48 C58 1.476 . S
H49 C43 0.929 . S
C50 O41 1.250 . S
C50 O42 1.258 1_554 S
O51 Mn36 2.162 . S
O51 C39 1.281 . S
O52 Mn36 2.297 . S
O52 C39 1.236 . S
N53 Mn37 2.282 1_565 S
N53 C54 1.328 . S
N53 C58 1.318 . S
C54 N53 1.328 . S
C54 C55 1.457 . S
C54 H59 0.929 . S
C55 C54 1.457 . S
C55 C56 1.291 . S
C55 H68 0.931 . S
C56 C55 1.291 . S
C56 C57 1.373 . S
C56 H69 0.929 . S
C57 C56 1.373 . S
C57 C58 1.396 . S
C57 C64 1.403 . S
C58 C48 1.476 . S
C58 N53 1.318 . S
C58 C57 1.396 . S
H59 C54 0.929 . S
O60 Mn36 2.385 1_565 S
O60 C38 1.234 . S
O61 Mn36 2.209 1_565 S
O61 Mn37 2.215 1_564 S
O61 C38 1.283 . S
O62 Mn36 2.094 . S
O62 C40 1.240 1_554 S
O63 Mn37 2.117 . S
O63 C40 1.264 . S
C64 C57 1.403 . S
C64 C65 1.399 . S
C64 H70 0.929 . S
C65 C45 1.449 . S
C65 C64 1.399 . S
C65 H71 0.930 . S
H66 C46 0.931 . S
H67 C47 0.927 . S
H68 C55 0.931 . S
H69 C56 0.929 . S
H70 C64 0.929 . S
H71 C65 0.930 . S
Mn72 O77 2.095 . S
Mn72 O87 2.162 . S
Mn72 O88 2.297 . S
Mn72 O96 2.385 1_655 S
Mn72 O97 2.209 1_655 S
Mn72 O98 2.094 . S
Mn73 O78 2.121 . S
Mn73 N80 2.253 . S
Mn73 N89 2.282 1_655 S
Mn73 O97 2.215 1_656 S
Mn73 O99 2.117 . S
C74 O96 1.234 . S
C74 O97 1.283 . S
C75 O87 1.281 . S
C75 O88 1.236 . S
C76 O98 1.240 1_556 S
C76 O99 1.264 . S
O77 Mn72 2.095 . S
O77 C86 1.250 . S
O78 Mn73 2.121 . S
O78 C86 1.258 1_556 S
C79 N80 1.358 . S
C79 C83 1.458 . S
C79 H85 0.929 . S
N80 Mn73 2.253 . S
N80 C79 1.358 . S
N80 C84 1.335 1_655 S
C81 C82 1.258 . S
C81 C84 1.431 . S
C81 C101 1.449 . S
C82 C81 1.258 . S
C82 C83 1.454 1_455 S
C82 H102 0.931 . S
C83 C79 1.458 . S
C83 C82 1.454 1_655 S
C83 H103 0.955 . S
C84 N80 1.335 1_455 S
C84 C81 1.431 . S
C84 C94 1.476 . S
H85 C79 0.929 . S
C86 O77 1.250 . S
C86 O78 1.258 1_554 S
O87 Mn72 2.162 . S
O87 C75 1.281 . S
O88 Mn72 2.297 . S
O88 C75 1.236 . S
N89 Mn73 2.282 1_455 S
N89 C90 1.328 . S
N89 C94 1.318 . S
C90 N89 1.328 . S
C90 C91 1.457 . S
C90 H95 0.929 . S
C91 C90 1.457 . S
C91 C92 1.291 . S
C91 H104 0.931 . S
C92 C91 1.291 . S
C92 C93 1.373 . S
C92 H105 0.929 . S
C93 C92 1.373 . S
C93 C94 1.396 . S
C93 C100 1.403 . S
C94 C84 1.476 . S
C94 N89 1.318 . S
C94 C93 1.396 . S
H95 C90 0.929 . S
O96 Mn72 2.385 1_455 S
O96 C74 1.234 . S
O97 Mn72 2.209 1_455 S
O97 Mn73 2.215 1_454 S
O97 C74 1.283 . S
O98 Mn72 2.094 . S
O98 C76 1.240 1_554 S
O99 Mn73 2.117 . S
O99 C76 1.264 . S
C100 C93 1.403 . S
C100 C101 1.399 . S
C100 H106 0.929 . S
C101 C81 1.449 . S
C101 C100 1.399 . S
C101 H107 0.930 . S
H102 C82 0.931 . S
H103 C83 0.955 . S
H104 C91 0.931 . S
H105 C92 0.929 . S
H106 C100 0.929 . S
H107 C101 0.930 . S
Mn108 O113 2.095 . S
Mn108 O123 2.162 . S
Mn108 O124 2.297 . S
Mn108 O132 2.385 . S
Mn108 O133 2.209 . S
Mn108 O134 2.094 . S
Mn109 O114 2.121 . S
Mn109 N116 2.257 . S
Mn109 N125 2.282 . S
Mn109 O133 2.215 . S
Mn109 O135 2.117 . S
C110 O132 1.234 . S
C110 O133 1.283 . S
C111 O123 1.281 . S
C111 O124 1.236 . S
C112 O134 1.240 . S
C112 O135 1.264 . S
O113 Mn108 2.095 . S
O113 C122 1.250 . S
O114 Mn109 2.121 . S
O114 C122 1.258 . S
C115 N116 1.326 . S
C115 C119 1.460 . S
C115 H121 0.929 . S
N116 Mn109 2.257 . S
N116 C115 1.326 . S
N116 C120 1.362 . S
C117 C118 1.258 . S
C117 C120 1.431 . S
C117 C137 1.449 . S
C118 C117 1.258 . S
C118 C119 1.477 . S
C118 H138 0.931 . S
C119 C115 1.460 . S
C119 C118 1.477 . S
C119 H139 0.930 . S
C120 N116 1.362 . S
C120 C117 1.431 . S
C120 C130 1.476 . S
H121 C115 0.929 . S
C122 O113 1.250 . S
C122 O114 1.258 . S
O123 Mn108 2.162 . S
O123 C111 1.281 . S
O124 Mn108 2.297 . S
O124 C111 1.236 . S
N125 Mn109 2.282 . S
N125 C126 1.328 . S
N125 C130 1.318 . S
C126 N125 1.328 . S
C126 C127 1.457 . S
C126 H131 0.929 . S
C127 C126 1.457 . S
C127 C128 1.291 . S
C127 H140 0.931 . S
C128 C127 1.291 . S
C128 C129 1.373 . S
C128 H141 0.929 . S
C129 C128 1.373 . S
C129 C130 1.396 . S
C129 C136 1.403 . S
C130 C120 1.476 . S
C130 N125 1.318 . S
C130 C129 1.396 . S
H131 C126 0.929 . S
O132 Mn108 2.385 . S
O132 C110 1.234 . S
O133 Mn108 2.209 . S
O133 Mn109 2.215 . S
O133 C110 1.283 . S
O134 Mn108 2.094 . S
O134 C112 1.240 . S
O135 Mn109 2.117 . S
O135 C112 1.264 . S
C136 C129 1.403 . S
C136 C137 1.399 . S
C136 H142 0.929 . S
C137 C117 1.449 . S
C137 C136 1.399 . S
C137 H143 0.930 . S
H138 C118 0.931 . S
H139 C119 0.930 . S
H140 C127 0.931 . S
H141 C128 0.929 . S
H142 C136 0.929 . S
H143 C137 0.930 . S
Mn144 O149 2.095 . S
Mn144 O159 2.162 . S
Mn144 O160 2.297 . S
Mn144 O168 2.385 1_565 S
Mn144 O169 2.209 1_565 S
Mn144 O170 2.094 . S
Mn145 O150 2.121 . S
Mn145 N152 2.253 . S
Mn145 N161 2.282 1_565 S
Mn145 O169 2.215 1_565 S
Mn145 O171 2.117 . S
C146 O168 1.234 . S
C146 O169 1.283 . S
C147 O159 1.281 . S
C147 O160 1.236 . S
C148 O170 1.240 . S
C148 O171 1.264 . S
O149 Mn144 2.095 . S
O149 C158 1.250 . S
O150 Mn145 2.121 . S
O150 C158 1.258 . S
C151 N152 1.358 . S
C151 C155 1.458 . S
C151 H157 0.929 . S
N152 Mn145 2.253 . S
N152 C151 1.358 . S
N152 C156 1.335 1_565 S
C153 C154 1.258 . S
C153 C156 1.431 . S
C153 C173 1.449 . S
C154 C153 1.258 . S
C154 C155 1.454 1_545 S
C154 H174 0.931 . S
C155 C151 1.458 . S
C155 C154 1.454 1_565 S
C155 H175 0.955 . S
C156 N152 1.335 1_545 S
C156 C153 1.431 . S
C156 C166 1.476 . S
H157 C151 0.929 . S
C158 O149 1.250 . S
C158 O150 1.258 . S
O159 Mn144 2.162 . S
O159 C147 1.281 . S
O160 Mn144 2.297 . S
O160 C147 1.236 . S
N161 Mn145 2.282 1_545 S
N161 C162 1.328 . S
N161 C166 1.318 . S
C162 N161 1.328 . S
C162 C163 1.457 . S
C162 H167 0.929 . S
C163 C162 1.457 . S
C163 C164 1.291 . S
C163 H176 0.931 . S
C164 C163 1.291 . S
C164 C165 1.373 . S
C164 H177 0.929 . S
C165 C164 1.373 . S
C165 C166 1.396 . S
C165 C172 1.403 . S
C166 C156 1.476 . S
C166 N161 1.318 . S
C166 C165 1.396 . S
H167 C162 0.929 . S
O168 Mn144 2.385 1_545 S
O168 C146 1.234 . S
O169 Mn144 2.209 1_545 S
O169 Mn145 2.215 1_545 S
O169 C146 1.283 . S
O170 Mn144 2.094 . S
O170 C148 1.240 . S
O171 Mn145 2.117 . S
O171 C148 1.264 . S
C172 C165 1.403 . S
C172 C173 1.399 . S
C172 H178 0.929 . S
C173 C153 1.449 . S
C173 C172 1.399 . S
C173 H179 0.930 . S
H174 C154 0.931 . S
H175 C155 0.955 . S
H176 C163 0.931 . S
H177 C164 0.929 . S
H178 C172 0.929 . S
H179 C173 0.930 . S
Mn180 O185 2.095 . S
Mn180 O195 2.162 . S
Mn180 O196 2.297 . S
Mn180 O204 2.385 1_455 S
Mn180 O205 2.209 1_455 S
Mn180 O206 2.094 . S
Mn181 O186 2.121 . S
Mn181 N188 2.287 . S
Mn181 N197 2.282 1_455 S
Mn181 O205 2.215 1_455 S
Mn181 O207 2.117 . S
C182 O204 1.234 . S
C182 O205 1.283 . S
C183 O195 1.281 . S
C183 O196 1.236 . S
C184 O206 1.240 . S
C184 O207 1.264 . S
O185 Mn180 2.095 . S
O185 C194 1.250 . S
O186 Mn181 2.121 . S
O186 C194 1.258 . S
C187 N188 1.324 . S
C187 C191 1.483 . S
C187 H193 0.929 . S
N188 Mn181 2.287 . S
N188 C187 1.324 . S
N188 C192 1.337 1_455 S
C189 C190 1.258 . S
C189 C192 1.431 . S
C189 C209 1.449 . S
C190 C189 1.258 . S
C190 C191 1.457 1_655 S
C190 H210 0.931 . S
C191 C187 1.483 . S
C191 C190 1.457 1_455 S
C191 H211 0.927 . S
C192 N188 1.337 1_655 S
C192 C189 1.431 . S
C192 C202 1.476 . S
H193 C187 0.929 . S
C194 O185 1.250 . S
C194 O186 1.258 . S
O195 Mn180 2.162 . S
O195 C183 1.281 . S
O196 Mn180 2.297 . S
O196 C183 1.236 . S
N197 Mn181 2.282 1_655 S
N197 C198 1.328 . S
N197 C202 1.318 . S
C198 N197 1.328 . S
C198 C199 1.457 . S
C198 H203 0.929 . S
C199 C198 1.457 . S
C199 C200 1.291 . S
C199 H212 0.931 . S
C200 C199 1.291 . S
C200 C201 1.373 . S
C200 H213 0.929 . S
C201 C200 1.373 . S
C201 C202 1.396 . S
C201 C208 1.403 . S
C202 C192 1.476 . S
C202 N197 1.318 . S
C202 C201 1.396 . S
H203 C198 0.929 . S
O204 Mn180 2.385 1_655 S
O204 C182 1.234 . S
O205 Mn180 2.209 1_655 S
O205 Mn181 2.215 1_655 S
O205 C182 1.283 . S
O206 Mn180 2.094 . S
O206 C184 1.240 . S
O207 Mn181 2.117 . S
O207 C184 1.264 . S
C208 C201 1.403 . S
C208 C209 1.399 . S
C208 H214 0.929 . S
C209 C189 1.449 . S
C209 C208 1.399 . S
C209 H215 0.930 . S
H210 C190 0.931 . S
H211 C191 0.927 . S
H212 C199 0.931 . S
H213 C200 0.929 . S
H214 C208 0.929 . S
H215 C209 0.930 . S
Mn216 O221 2.095 . S
Mn216 O231 2.162 . S
Mn216 O232 2.297 . S
Mn216 O240 2.385 . S
Mn216 O241 2.209 . S
Mn216 O242 2.094 . S
Mn217 O222 2.121 . S
Mn217 N224 2.257 . S
Mn217 N233 2.282 . S
Mn217 O241 2.215 1_554 S
Mn217 O243 2.117 . S
C218 O240 1.234 . S
C218 O241 1.283 . S
C219 O231 1.281 . S
C219 O232 1.236 . S
C220 O242 1.240 1_554 S
C220 O243 1.264 . S
O221 Mn216 2.095 . S
O221 C230 1.250 . S
O222 Mn217 2.121 . S
O222 C230 1.258 1_554 S
C223 N224 1.326 . S
C223 C227 1.460 . S
C223 H229 0.929 . S
N224 Mn217 2.257 . S
N224 C223 1.326 . S
N224 C228 1.362 . S
C225 C226 1.258 . S
C225 C228 1.431 . S
C225 C245 1.449 . S
C226 C225 1.258 . S
C226 C227 1.477 . S
C226 H246 0.931 . S
C227 C223 1.460 . S
C227 C226 1.477 . S
C227 H247 0.930 . S
C228 N224 1.362 . S
C228 C225 1.431 . S
C228 C238 1.476 . S
H229 C223 0.929 . S
C230 O221 1.250 . S
C230 O222 1.258 1_556 S
O231 Mn216 2.162 . S
O231 C219 1.281 . S
O232 Mn216 2.297 . S
O232 C219 1.236 . S
N233 Mn217 2.282 . S
N233 C234 1.328 . S
N233 C238 1.318 . S
C234 N233 1.328 . S
C234 C235 1.457 . S
C234 H239 0.929 . S
C235 C234 1.457 . S
C235 C236 1.291 . S
C235 H248 0.931 . S
C236 C235 1.291 . S
C236 C237 1.373 . S
C236 H249 0.929 . S
C237 C236 1.373 . S
C237 C238 1.396 . S
C237 C244 1.403 . S
C238 C228 1.476 . S
C238 N233 1.318 . S
C238 C237 1.396 . S
H239 C234 0.929 . S
O240 Mn216 2.385 . S
O240 C218 1.234 . S
O241 Mn216 2.209 . S
O241 Mn217 2.215 1_556 S
O241 C218 1.283 . S
O242 Mn216 2.094 . S
O242 C220 1.240 1_556 S
O243 Mn217 2.117 . S
O243 C220 1.264 . S
C244 C237 1.403 . S
C244 C245 1.399 . S
C244 H250 0.929 . S
C245 C225 1.449 . S
C245 C244 1.399 . S
C245 H251 0.930 . S
H246 C226 0.931 . S
H247 C227 0.930 . S
H248 C235 0.931 . S
H249 C236 0.929 . S
H250 C244 0.929 . S
H251 C245 0.930 . S
Mn252 O257 2.095 . S
Mn252 O267 2.162 . S
Mn252 O268 2.297 . S
Mn252 O276 2.385 1_565 S
Mn252 O277 2.209 1_565 S
Mn252 O278 2.094 . S
Mn253 O258 2.121 . S
Mn253 N260 2.287 . S
Mn253 N269 2.282 1_565 S
Mn253 O277 2.215 1_564 S
Mn253 O279 2.117 . S
C254 O276 1.234 . S
C254 O277 1.283 . S
C255 O267 1.281 . S
C255 O268 1.236 . S
C256 O278 1.240 1_554 S
C256 O279 1.264 . S
O257 Mn252 2.095 . S
O257 C266 1.250 . S
O258 Mn253 2.121 . S
O258 C266 1.258 1_554 S
C259 N260 1.324 . S
C259 C263 1.483 . S
C259 H265 0.929 . S
N260 Mn253 2.287 . S
N260 C259 1.324 . S
N260 C264 1.337 1_565 S
C261 C262 1.258 . S
C261 C264 1.431 . S
C261 C281 1.449 . S
C262 C261 1.258 . S
C262 C263 1.457 1_545 S
C262 H282 0.931 . S
C263 C259 1.483 . S
C263 C262 1.457 1_565 S
C263 H283 0.927 . S
C264 N260 1.337 1_545 S
C264 C261 1.431 . S
C264 C274 1.476 . S
H265 C259 0.929 . S
C266 O257 1.250 . S
C266 O258 1.258 1_556 S
O267 Mn252 2.162 . S
O267 C255 1.281 . S
O268 Mn252 2.297 . S
O268 C255 1.236 . S
N269 Mn253 2.282 1_545 S
N269 C270 1.328 . S
N269 C274 1.318 . S
C270 N269 1.328 . S
C270 C271 1.457 . S
C270 H275 0.929 . S
C271 C270 1.457 . S
C271 C272 1.291 . S
C271 H284 0.931 . S
C272 C271 1.291 . S
C272 C273 1.373 . S
C272 H285 0.929 . S
C273 C272 1.373 . S
C273 C274 1.396 . S
C273 C280 1.403 . S
C274 C264 1.476 . S
C274 N269 1.318 . S
C274 C273 1.396 . S
H275 C270 0.929 . S
O276 Mn252 2.385 1_545 S
O276 C254 1.234 . S
O277 Mn252 2.209 1_545 S
O277 Mn253 2.215 1_546 S
O277 C254 1.283 . S
O278 Mn252 2.094 . S
O278 C256 1.240 1_556 S
O279 Mn253 2.117 . S
O279 C256 1.264 . S
C280 C273 1.403 . S
C280 C281 1.399 . S
C280 H286 0.929 . S
C281 C261 1.449 . S
C281 C280 1.399 . S
C281 H287 0.930 . S
H282 C262 0.931 . S
H283 C263 0.927 . S
H284 C271 0.931 . S
H285 C272 0.929 . S
H286 C280 0.929 . S
H287 C281 0.930 . S
Mn288 O293 2.095 . S
Mn288 O303 2.162 . S
Mn288 O304 2.297 . S
Mn288 O312 2.385 1_455 S
Mn288 O313 2.209 1_455 S
Mn288 O314 2.094 . S
Mn289 O294 2.121 . S
Mn289 N296 2.253 . S
Mn289 N305 2.282 1_455 S
Mn289 O313 2.215 1_454 S
Mn289 O315 2.117 . S
C290 O312 1.234 . S
C290 O313 1.283 . S
C291 O303 1.281 . S
C291 O304 1.236 . S
C292 O314 1.240 1_554 S
C292 O315 1.264 . S
O293 Mn288 2.095 . S
O293 C302 1.250 . S
O294 Mn289 2.121 . S
O294 C302 1.258 1_554 S
C295 N296 1.358 . S
C295 C299 1.458 . S
C295 H301 0.929 . S
N296 Mn289 2.253 . S
N296 C295 1.358 . S
N296 C300 1.335 1_455 S
C297 C298 1.258 . S
C297 C300 1.431 . S
C297 C317 1.449 . S
C298 C297 1.258 . S
C298 C299 1.454 1_655 S
C298 H318 0.931 . S
C299 C295 1.458 . S
C299 C298 1.454 1_455 S
C299 H319 0.955 . S
C300 N296 1.335 1_655 S
C300 C297 1.431 . S
C300 C310 1.476 . S
H301 C295 0.929 . S
C302 O293 1.250 . S
C302 O294 1.258 1_556 S
O303 Mn288 2.162 . S
O303 C291 1.281 . S
O304 Mn288 2.297 . S
O304 C291 1.236 . S
N305 Mn289 2.282 1_655 S
N305 C306 1.328 . S
N305 C310 1.318 . S
C306 N305 1.328 . S
C306 C307 1.457 . S
C306 H311 0.929 . S
C307 C306 1.457 . S
C307 C308 1.291 . S
C307 H320 0.931 . S
C308 C307 1.291 . S
C308 C309 1.373 . S
C308 H321 0.929 . S
C309 C308 1.373 . S
C309 C310 1.396 . S
C309 C316 1.403 . S
C310 C300 1.476 . S
C310 N305 1.318 . S
C310 C309 1.396 . S
H311 C306 0.929 . S
O312 Mn288 2.385 1_655 S
O312 C290 1.234 . S
O313 Mn288 2.209 1_655 S
O313 Mn289 2.215 1_656 S
O313 C290 1.283 . S
O314 Mn288 2.094 . S
O314 C292 1.240 1_556 S
O315 Mn289 2.117 . S
O315 C292 1.264 . S
C316 C309 1.403 . S
C316 C317 1.399 . S
C316 H322 0.929 . S
C317 C297 1.449 . S
C317 C316 1.399 . S
C317 H323 0.930 . S
H318 C298 0.931 . S
H319 C299 0.955 . S
H320 C307 0.931 . S
H321 C308 0.929 . S
H322 C316 0.929 . S
H323 C317 0.930 . S
Mn324 O329 2.095 . S
Mn324 O339 2.162 . S
Mn324 O340 2.297 . S
Mn324 O348 2.385 . S
Mn324 O349 2.209 . S
Mn324 O350 2.094 . S
Mn325 O330 2.121 . S
Mn325 N332 2.257 . S
Mn325 N341 2.282 . S
Mn325 O349 2.215 . S
Mn325 O351 2.117 . S
C326 O348 1.234 . S
C326 O349 1.283 . S
C327 O339 1.281 . S
C327 O340 1.236 . S
C328 O350 1.240 . S
C328 O351 1.264 . S
O329 Mn324 2.095 . S
O329 C338 1.250 . S
O330 Mn325 2.121 . S
O330 C338 1.258 . S
C331 N332 1.326 . S
C331 C335 1.460 . S
C331 H337 0.929 . S
N332 Mn325 2.257 . S
N332 C331 1.326 . S
N332 C336 1.362 . S
C333 C334 1.258 . S
C333 C336 1.431 . S
C333 C353 1.449 . S
C334 C333 1.258 . S
C334 C335 1.477 . S
C334 H354 0.931 . S
C335 C331 1.460 . S
C335 C334 1.477 . S
C335 H355 0.930 . S
C336 N332 1.362 . S
C336 C333 1.431 . S
C336 C346 1.476 . S
H337 C331 0.929 . S
C338 O329 1.250 . S
C338 O330 1.258 . S
O339 Mn324 2.162 . S
O339 C327 1.281 . S
O340 Mn324 2.297 . S
O340 C327 1.236 . S
N341 Mn325 2.282 . S
N341 C342 1.328 . S
N341 C346 1.318 . S
C342 N341 1.328 . S
C342 C343 1.457 . S
C342 H347 0.929 . S
C343 C342 1.457 . S
C343 C344 1.291 . S
C343 H356 0.931 . S
C344 C343 1.291 . S
C344 C345 1.373 . S
C344 H357 0.929 . S
C345 C344 1.373 . S
C345 C346 1.396 . S
C345 C352 1.403 . S
C346 C336 1.476 . S
C346 N341 1.318 . S
C346 C345 1.396 . S
H347 C342 0.929 . S
O348 Mn324 2.385 . S
O348 C326 1.234 . S
O349 Mn324 2.209 . S
O349 Mn325 2.215 . S
O349 C326 1.283 . S
O350 Mn324 2.094 . S
O350 C328 1.240 . S
O351 Mn325 2.117 . S
O351 C328 1.264 . S
C352 C345 1.403 . S
C352 C353 1.399 . S
C352 H358 0.929 . S
C353 C333 1.449 . S
C353 C352 1.399 . S
C353 H359 0.930 . S
H354 C334 0.931 . S
H355 C335 0.930 . S
H356 C343 0.931 . S
H357 C344 0.929 . S
H358 C352 0.929 . S
H359 C353 0.930 . S
Mn360 O365 2.095 . S
Mn360 O375 2.162 . S
Mn360 O376 2.297 . S
Mn360 O384 2.385 1_545 S
Mn360 O385 2.209 1_545 S
Mn360 O386 2.094 . S
Mn361 O366 2.121 . S
Mn361 N368 2.253 . S
Mn361 N377 2.282 1_545 S
Mn361 O385 2.215 1_545 S
Mn361 O387 2.117 . S
C362 O384 1.234 . S
C362 O385 1.283 . S
C363 O375 1.281 . S
C363 O376 1.236 . S
C364 O386 1.240 . S
C364 O387 1.264 . S
O365 Mn360 2.095 . S
O365 C374 1.250 . S
O366 Mn361 2.121 . S
O366 C374 1.258 . S
C367 N368 1.358 . S
C367 C371 1.458 . S
C367 H373 0.929 . S
N368 Mn361 2.253 . S
N368 C367 1.358 . S
N368 C372 1.335 1_545 S
C369 C370 1.258 . S
C369 C372 1.431 . S
C369 C389 1.449 . S
C370 C369 1.258 . S
C370 C371 1.454 1_565 S
C370 H390 0.931 . S
C371 C367 1.458 . S
C371 C370 1.454 1_545 S
C371 H391 0.955 . S
C372 N368 1.335 1_565 S
C372 C369 1.431 . S
C372 C382 1.476 . S
H373 C367 0.929 . S
C374 O365 1.250 . S
C374 O366 1.258 . S
O375 Mn360 2.162 . S
O375 C363 1.281 . S
O376 Mn360 2.297 . S
O376 C363 1.236 . S
N377 Mn361 2.282 1_565 S
N377 C378 1.328 . S
N377 C382 1.318 . S
C378 N377 1.328 . S
C378 C379 1.457 . S
C378 H383 0.929 . S
C379 C378 1.457 . S
C379 C380 1.291 . S
C379 H392 0.931 . S
C380 C379 1.291 . S
C380 C381 1.373 . S
C380 H393 0.929 . S
C381 C380 1.373 . S
C381 C382 1.396 . S
C381 C388 1.403 . S
C382 C372 1.476 . S
C382 N377 1.318 . S
C382 C381 1.396 . S
H383 C378 0.929 . S
O384 Mn360 2.385 1_565 S
O384 C362 1.234 . S
O385 Mn360 2.209 1_565 S
O385 Mn361 2.215 1_565 S
O385 C362 1.283 . S
O386 Mn360 2.094 . S
O386 C364 1.240 . S
O387 Mn361 2.117 . S
O387 C364 1.264 . S
C388 C381 1.403 . S
C388 C389 1.399 . S
C388 H394 0.929 . S
C389 C369 1.449 . S
C389 C388 1.399 . S
C389 H395 0.930 . S
H390 C370 0.931 . S
H391 C371 0.955 . S
H392 C379 0.931 . S
H393 C380 0.929 . S
H394 C388 0.929 . S
H395 C389 0.930 . S
Mn396 O401 2.095 . S
Mn396 O411 2.162 . S
Mn396 O412 2.297 . S
Mn396 O420 2.385 1_655 S
Mn396 O421 2.209 1_655 S
Mn396 O422 2.094 . S
Mn397 O402 2.121 . S
Mn397 N404 2.287 . S
Mn397 N413 2.282 1_655 S
Mn397 O421 2.215 1_655 S
Mn397 O423 2.117 . S
C398 O420 1.234 . S
C398 O421 1.283 . S
C399 O411 1.281 . S
C399 O412 1.236 . S
C400 O422 1.240 . S
C400 O423 1.264 . S
O401 Mn396 2.095 . S
O401 C410 1.250 . S
O402 Mn397 2.121 . S
O402 C410 1.258 . S
C403 N404 1.324 . S
C403 C407 1.483 . S
C403 H409 0.929 . S
N404 Mn397 2.287 . S
N404 C403 1.324 . S
N404 C408 1.337 1_655 S
C405 C406 1.258 . S
C405 C408 1.431 . S
C405 C425 1.449 . S
C406 C405 1.258 . S
C406 C407 1.457 1_455 S
C406 H426 0.931 . S
C407 C403 1.483 . S
C407 C406 1.457 1_655 S
C407 H427 0.927 . S
C408 N404 1.337 1_455 S
C408 C405 1.431 . S
C408 C418 1.476 . S
H409 C403 0.929 . S
C410 O401 1.250 . S
C410 O402 1.258 . S
O411 Mn396 2.162 . S
O411 C399 1.281 . S
O412 Mn396 2.297 . S
O412 C399 1.236 . S
N413 Mn397 2.282 1_455 S
N413 C414 1.328 . S
N413 C418 1.318 . S
C414 N413 1.328 . S
C414 C415 1.457 . S
C414 H419 0.929 . S
C415 C414 1.457 . S
C415 C416 1.291 . S
C415 H428 0.931 . S
C416 C415 1.291 . S
C416 C417 1.373 . S
C416 H429 0.929 . S
C417 C416 1.373 . S
C417 C418 1.396 . S
C417 C424 1.403 . S
C418 C408 1.476 . S
C418 N413 1.318 . S
C418 C417 1.396 . S
H419 C414 0.929 . S
O420 Mn396 2.385 1_455 S
O420 C398 1.234 . S
O421 Mn396 2.209 1_455 S
O421 Mn397 2.215 1_455 S
O421 C398 1.283 . S
O422 Mn396 2.094 . S
O422 C400 1.240 . S
O423 Mn397 2.117 . S
O423 C400 1.264 . S
C424 C417 1.403 . S
C424 C425 1.399 . S
C424 H430 0.929 . S
C425 C405 1.449 . S
C425 C424 1.399 . S
C425 H431 0.930 . S
H426 C406 0.931 . S
H427 C407 0.927 . S
H428 C415 0.931 . S
H429 C416 0.929 . S
H430 C424 0.929 . S
H431 C425 0.930 . S
Mn432 O437 2.095 . S
Mn432 O447 2.162 . S
Mn432 O448 2.297 . S
Mn432 O456 2.385 . S
Mn432 O457 2.209 . S
Mn432 O458 2.094 . S
Mn433 O438 2.121 . S
Mn433 N440 2.257 . S
Mn433 N449 2.282 . S
Mn433 O457 2.215 . S
Mn433 O459 2.117 . S
C434 O456 1.234 . S
C434 O457 1.283 . S
C435 O447 1.281 . S
C435 O448 1.236 . S
C436 O458 1.240 . S
C436 O459 1.264 . S
O437 Mn432 2.095 . S
O437 C446 1.250 . S
O438 Mn433 2.121 . S
O438 C446 1.258 . S
C439 N440 1.326 . S
C439 C443 1.460 . S
C439 H445 0.929 . S
N440 Mn433 2.257 . S
N440 C439 1.326 . S
N440 C444 1.362 . S
C441 C442 1.258 . S
C441 C444 1.431 . S
C441 C461 1.449 . S
C442 C441 1.258 . S
C442 C443 1.477 . S
C442 H462 0.931 . S
C443 C439 1.460 . S
C443 C442 1.477 . S
C443 H463 0.930 . S
C444 N440 1.362 . S
C444 C441 1.431 . S
C444 C454 1.476 . S
H445 C439 0.929 . S
C446 O437 1.250 . S
C446 O438 1.258 . S
O447 Mn432 2.162 . S
O447 C435 1.281 . S
O448 Mn432 2.297 . S
O448 C435 1.236 . S
N449 Mn433 2.282 . S
N449 C450 1.328 . S
N449 C454 1.318 . S
C450 N449 1.328 . S
C450 C451 1.457 . S
C450 H455 0.929 . S
C451 C450 1.457 . S
C451 C452 1.291 . S
C451 H464 0.931 . S
C452 C451 1.291 . S
C452 C453 1.373 . S
C452 H465 0.929 . S
C453 C452 1.373 . S
C453 C454 1.396 . S
C453 C460 1.403 . S
C454 C444 1.476 . S
C454 N449 1.318 . S
C454 C453 1.396 . S
H455 C450 0.929 . S
O456 Mn432 2.385 . S
O456 C434 1.234 . S
O457 Mn432 2.209 . S
O457 Mn433 2.215 . S
O457 C434 1.283 . S
O458 Mn432 2.094 . S
O458 C436 1.240 . S
O459 Mn433 2.117 . S
O459 C436 1.264 . S
C460 C453 1.403 . S
C460 C461 1.399 . S
C460 H466 0.929 . S
C461 C441 1.449 . S
C461 C460 1.399 . S
C461 H467 0.930 . S
H462 C442 0.931 . S
H463 C443 0.930 . S
H464 C451 0.931 . S
H465 C452 0.929 . S
H466 C460 0.929 . S
H467 C461 0.930 . S
Mn468 O473 2.095 . S
Mn468 O483 2.162 . S
Mn468 O484 2.297 . S
Mn468 O492 2.385 . S
Mn468 O493 2.209 . S
Mn468 O494 2.094 . S
Mn469 O474 2.121 . S
Mn469 N476 2.257 . S
Mn469 N485 2.282 . S
Mn469 O493 2.215 . S
Mn469 O495 2.117 . S
C470 O492 1.234 . S
C470 O493 1.283 . S
C471 O483 1.281 . S
C471 O484 1.236 . S
C472 O494 1.240 . S
C472 O495 1.264 . S
O473 Mn468 2.095 . S
O473 C482 1.250 . S
O474 Mn469 2.121 . S
O474 C482 1.258 . S
C475 N476 1.326 . S
C475 C479 1.460 . S
C475 H481 0.929 . S
N476 Mn469 2.257 . S
N476 C475 1.326 . S
N476 C480 1.362 . S
C477 C478 1.258 . S
C477 C480 1.431 . S
C477 C497 1.449 . S
C478 C477 1.258 . S
C478 C479 1.477 . S
C478 H498 0.931 . S
C479 C475 1.460 . S
C479 C478 1.477 . S
C479 H499 0.930 . S
C480 N476 1.362 . S
C480 C477 1.431 . S
C480 C490 1.476 . S
H481 C475 0.929 . S
C482 O473 1.250 . S
C482 O474 1.258 . S
O483 Mn468 2.162 . S
O483 C471 1.281 . S
O484 Mn468 2.297 . S
O484 C471 1.236 . S
N485 Mn469 2.282 . S
N485 C486 1.328 . S
N485 C490 1.318 . S
C486 N485 1.328 . S
C486 C487 1.457 . S
C486 H491 0.929 . S
C487 C486 1.457 . S
C487 C488 1.291 . S
C487 H500 0.931 . S
C488 C487 1.291 . S
C488 C489 1.373 . S
C488 H501 0.929 . S
C489 C488 1.373 . S
C489 C490 1.396 . S
C489 C496 1.403 . S
C490 C480 1.476 . S
C490 N485 1.318 . S
C490 C489 1.396 . S
H491 C486 0.929 . S
O492 Mn468 2.385 . S
O492 C470 1.234 . S
O493 Mn468 2.209 . S
O493 Mn469 2.215 . S
O493 C470 1.283 . S
O494 Mn468 2.094 . S
O494 C472 1.240 . S
O495 Mn469 2.117 . S
O495 C472 1.264 . S
C496 C489 1.403 . S
C496 C497 1.399 . S
C496 H502 0.929 . S
C497 C477 1.449 . S
C497 C496 1.399 . S
C497 H503 0.930 . S
H498 C478 0.931 . S
H499 C479 0.930 . S
H500 C487 0.931 . S
H501 C488 0.929 . S
H502 C496 0.929 . S
H503 C497 0.930 . S
Mn504 O509 2.095 . S
Mn504 O519 2.162 . S
Mn504 O520 2.297 . S
Mn504 O528 2.385 . S
Mn504 O529 2.209 . S
Mn504 O530 2.094 . S
Mn505 O510 2.121 . S
Mn505 N512 2.257 . S
Mn505 N521 2.282 . S
Mn505 O529 2.215 . S
Mn505 O531 2.117 . S
C506 O528 1.234 . S
C506 O529 1.283 . S
C507 O519 1.281 . S
C507 O520 1.236 . S
C508 O530 1.240 . S
C508 O531 1.264 . S
O509 Mn504 2.095 . S
O509 C518 1.250 . S
O510 Mn505 2.121 . S
O510 C518 1.258 . S
C511 N512 1.326 . S
C511 C515 1.460 . S
C511 H517 0.929 . S
N512 Mn505 2.257 . S
N512 C511 1.326 . S
N512 C516 1.362 . S
C513 C514 1.258 . S
C513 C516 1.431 . S
C513 C533 1.449 . S
C514 C513 1.258 . S
C514 C515 1.477 . S
C514 H534 0.931 . S
C515 C511 1.460 . S
C515 C514 1.477 . S
C515 H535 0.930 . S
C516 N512 1.362 . S
C516 C513 1.431 . S
C516 C526 1.476 . S
H517 C511 0.929 . S
C518 O509 1.250 . S
C518 O510 1.258 . S
O519 Mn504 2.162 . S
O519 C507 1.281 . S
O520 Mn504 2.297 . S
O520 C507 1.236 . S
N521 Mn505 2.282 . S
N521 C522 1.328 . S
N521 C526 1.318 . S
C522 N521 1.328 . S
C522 C523 1.457 . S
C522 H527 0.929 . S
C523 C522 1.457 . S
C523 C524 1.291 . S
C523 H536 0.931 . S
C524 C523 1.291 . S
C524 C525 1.373 . S
C524 H537 0.929 . S
C525 C524 1.373 . S
C525 C526 1.396 . S
C525 C532 1.403 . S
C526 C516 1.476 . S
C526 N521 1.318 . S
C526 C525 1.396 . S
H527 C522 0.929 . S
O528 Mn504 2.385 . S
O528 C506 1.234 . S
O529 Mn504 2.209 . S
O529 Mn505 2.215 . S
O529 C506 1.283 . S
O530 Mn504 2.094 . S
O530 C508 1.240 . S
O531 Mn505 2.117 . S
O531 C508 1.264 . S
C532 C525 1.403 . S
C532 C533 1.399 . S
C532 H538 0.929 . S
C533 C513 1.449 . S
C533 C532 1.399 . S
C533 H539 0.930 . S
H534 C514 0.931 . S
H535 C515 0.930 . S
H536 C523 0.931 . S
H537 C524 0.929 . S
H538 C532 0.929 . S
H539 C533 0.930 . S
Mn540 O545 2.095 . S
Mn540 O555 2.162 . S
Mn540 O556 2.297 . S
Mn540 O564 2.385 . S
Mn540 O565 2.209 . S
Mn540 O566 2.094 . S
Mn541 O546 2.121 . S
Mn541 N548 2.257 . S
Mn541 N557 2.282 . S
Mn541 O565 2.215 . S
Mn541 O567 2.117 . S
C542 O564 1.234 . S
C542 O565 1.283 . S
C543 O555 1.281 . S
C543 O556 1.236 . S
C544 O566 1.240 . S
C544 O567 1.264 . S
O545 Mn540 2.095 . S
O545 C554 1.250 . S
O546 Mn541 2.121 . S
O546 C554 1.258 . S
C547 N548 1.326 . S
C547 C551 1.460 . S
C547 H553 0.929 . S
N548 Mn541 2.257 . S
N548 C547 1.326 . S
N548 C552 1.362 . S
C549 C550 1.258 . S
C549 C552 1.431 . S
C549 C569 1.449 . S
C550 C549 1.258 . S
C550 C551 1.477 . S
C550 H570 0.931 . S
C551 C547 1.460 . S
C551 C550 1.477 . S
C551 H571 0.930 . S
C552 N548 1.362 . S
C552 C549 1.431 . S
C552 C562 1.476 . S
H553 C547 0.929 . S
C554 O545 1.250 . S
C554 O546 1.258 . S
O555 Mn540 2.162 . S
O555 C543 1.281 . S
O556 Mn540 2.297 . S
O556 C543 1.236 . S
N557 Mn541 2.282 . S
N557 C558 1.328 . S
N557 C562 1.318 . S
C558 N557 1.328 . S
C558 C559 1.457 . S
C558 H563 0.929 . S
C559 C558 1.457 . S
C559 C560 1.291 . S
C559 H572 0.931 . S
C560 C559 1.291 . S
C560 C561 1.373 . S
C560 H573 0.929 . S
C561 C560 1.373 . S
C561 C562 1.396 . S
C561 C568 1.403 . S
C562 C552 1.476 . S
C562 N557 1.318 . S
C562 C561 1.396 . S
H563 C558 0.929 . S
O564 Mn540 2.385 . S
O564 C542 1.234 . S
O565 Mn540 2.209 . S
O565 Mn541 2.215 . S
O565 C542 1.283 . S
O566 Mn540 2.094 . S
O566 C544 1.240 . S
O567 Mn541 2.117 . S
O567 C544 1.264 . S
C568 C561 1.403 . S
C568 C569 1.399 . S
C568 H574 0.929 1_556 S
C569 C549 1.449 . S
C569 C568 1.399 . S
C569 H575 0.930 1_556 S
H570 C550 0.931 . S
H571 C551 0.930 . S
H572 C559 0.931 . S
H573 C560 0.929 . S
H574 C568 0.929 1_554 S
H575 C569 0.930 1_554 S
Mn576 O581 2.095 . S
Mn576 O591 2.162 . S
Mn576 O592 2.297 . S
Mn576 O600 2.385 . S
Mn576 O601 2.209 . S
Mn576 O602 2.094 . S
Mn577 O582 2.121 . S
Mn577 N584 2.257 . S
Mn577 N593 2.282 . S
Mn577 O601 2.215 . S
Mn577 O603 2.117 . S
C578 O600 1.234 . S
C578 O601 1.283 . S
C579 O591 1.281 . S
C579 O592 1.236 . S
C580 O602 1.240 . S
C580 O603 1.264 . S
O581 Mn576 2.095 . S
O581 C590 1.250 . S
O582 Mn577 2.121 . S
O582 C590 1.258 . S
C583 N584 1.326 . S
C583 C587 1.460 . S
C583 H589 0.929 . S
N584 Mn577 2.257 . S
N584 C583 1.326 . S
N584 C588 1.362 . S
C585 C586 1.258 . S
C585 C588 1.431 . S
C585 C605 1.449 . S
C586 C585 1.258 . S
C586 C587 1.477 . S
C586 H606 0.931 . S
C587 C583 1.460 . S
C587 C586 1.477 . S
C587 H607 0.930 . S
C588 N584 1.362 . S
C588 C585 1.431 . S
C588 C598 1.476 . S
H589 C583 0.929 . S
C590 O581 1.250 . S
C590 O582 1.258 . S
O591 Mn576 2.162 . S
O591 C579 1.281 . S
O592 Mn576 2.297 . S
O592 C579 1.236 . S
N593 Mn577 2.282 . S
N593 C594 1.328 . S
N593 C598 1.318 . S
C594 N593 1.328 . S
C594 C595 1.457 . S
C594 H599 0.929 . S
C595 C594 1.457 . S
C595 C596 1.291 . S
C595 H608 0.931 . S
C596 C595 1.291 . S
C596 C597 1.373 . S
C596 H609 0.929 . S
C597 C596 1.373 . S
C597 C598 1.396 . S
C597 C604 1.403 . S
C598 C588 1.476 . S
C598 N593 1.318 . S
C598 C597 1.396 . S
H599 C594 0.929 . S
O600 Mn576 2.385 . S
O600 C578 1.234 . S
O601 Mn576 2.209 . S
O601 Mn577 2.215 . S
O601 C578 1.283 . S
O602 Mn576 2.094 . S
O602 C580 1.240 . S
O603 Mn577 2.117 . S
O603 C580 1.264 . S
C604 C597 1.403 . S
C604 C605 1.399 . S
C604 H610 0.929 1_556 S
C605 C585 1.449 . S
C605 C604 1.399 . S
C605 H611 0.930 1_556 S
H606 C586 0.931 . S
H607 C587 0.930 . S
H608 C595 0.931 . S
H609 C596 0.929 . S
H610 C604 0.929 1_554 S
H611 C605 0.930 1_554 S
Mn612 O617 2.095 . S
Mn612 O627 2.162 . S
Mn612 O628 2.297 . S
Mn612 O636 2.385 . S
Mn612 O637 2.209 . S
Mn612 O638 2.094 . S
Mn613 O618 2.121 . S
Mn613 N620 2.257 . S
Mn613 N629 2.282 . S
Mn613 O637 2.215 . S
Mn613 O639 2.117 . S
C614 O636 1.234 . S
C614 O637 1.283 . S
C615 O627 1.281 . S
C615 O628 1.236 . S
C616 O638 1.240 . S
C616 O639 1.264 . S
O617 Mn612 2.095 . S
O617 C626 1.250 . S
O618 Mn613 2.121 . S
O618 C626 1.258 . S
C619 N620 1.326 . S
C619 C623 1.460 . S
C619 H625 0.929 . S
N620 Mn613 2.257 . S
N620 C619 1.326 . S
N620 C624 1.362 . S
C621 C622 1.258 . S
C621 C624 1.431 . S
C621 C641 1.449 . S
C622 C621 1.258 . S
C622 C623 1.477 . S
C622 H642 0.931 . S
C623 C619 1.460 . S
C623 C622 1.477 . S
C623 H643 0.930 . S
C624 N620 1.362 . S
C624 C621 1.431 . S
C624 C634 1.476 . S
H625 C619 0.929 . S
C626 O617 1.250 . S
C626 O618 1.258 . S
O627 Mn612 2.162 . S
O627 C615 1.281 . S
O628 Mn612 2.297 . S
O628 C615 1.236 . S
N629 Mn613 2.282 . S
N629 C630 1.328 . S
N629 C634 1.318 . S
C630 N629 1.328 . S
C630 C631 1.457 . S
C630 H635 0.929 . S
C631 C630 1.457 . S
C631 C632 1.291 . S
C631 H644 0.931 . S
C632 C631 1.291 . S
C632 C633 1.373 . S
C632 H645 0.929 . S
C633 C632 1.373 . S
C633 C634 1.396 . S
C633 C640 1.403 . S
C634 C624 1.476 . S
C634 N629 1.318 . S
C634 C633 1.396 . S
H635 C630 0.929 . S
O636 Mn612 2.385 . S
O636 C614 1.234 . S
O637 Mn612 2.209 . S
O637 Mn613 2.215 . S
O637 C614 1.283 . S
O638 Mn612 2.094 . S
O638 C616 1.240 . S
O639 Mn613 2.117 . S
O639 C616 1.264 . S
C640 C633 1.403 . S
C640 C641 1.399 . S
C640 H646 0.929 1_556 S
C641 C621 1.449 . S
C641 C640 1.399 . S
C641 H647 0.930 1_556 S
H642 C622 0.931 . S
H643 C623 0.930 . S
H644 C631 0.931 . S
H645 C632 0.929 . S
H646 C640 0.929 1_554 S
H647 C641 0.930 1_554 S
Mn648 O653 2.095 . S
Mn648 O663 2.162 . S
Mn648 O664 2.297 . S
Mn648 O672 2.385 . S
Mn648 O673 2.209 . S
Mn648 O674 2.094 . S
Mn649 O654 2.121 . S
Mn649 N656 2.257 . S
Mn649 N665 2.282 . S
Mn649 O673 2.215 . S
Mn649 O675 2.117 . S
C650 O672 1.234 . S
C650 O673 1.283 . S
C651 O663 1.281 . S
C651 O664 1.236 . S
C652 O674 1.240 . S
C652 O675 1.264 . S
O653 Mn648 2.095 . S
O653 C662 1.250 . S
O654 Mn649 2.121 . S
O654 C662 1.258 . S
C655 N656 1.326 . S
C655 C659 1.460 . S
C655 H661 0.929 . S
N656 Mn649 2.257 . S
N656 C655 1.326 . S
N656 C660 1.362 . S
C657 C658 1.258 . S
C657 C660 1.431 . S
C657 C677 1.449 . S
C658 C657 1.258 . S
C658 C659 1.477 . S
C658 H678 0.931 . S
C659 C655 1.460 . S
C659 C658 1.477 . S
C659 H679 0.930 . S
C660 N656 1.362 . S
C660 C657 1.431 . S
C660 C670 1.476 . S
H661 C655 0.929 . S
C662 O653 1.250 . S
C662 O654 1.258 . S
O663 Mn648 2.162 . S
O663 C651 1.281 . S
O664 Mn648 2.297 . S
O664 C651 1.236 . S
N665 Mn649 2.282 . S
N665 C666 1.328 . S
N665 C670 1.318 . S
C666 N665 1.328 . S
C666 C667 1.457 . S
C666 H671 0.929 . S
C667 C666 1.457 . S
C667 C668 1.291 . S
C667 H680 0.931 . S
C668 C667 1.291 . S
C668 C669 1.373 . S
C668 H681 0.929 . S
C669 C668 1.373 . S
C669 C670 1.396 . S
C669 C676 1.403 . S
C670 C660 1.476 . S
C670 N665 1.318 . S
C670 C669 1.396 . S
H671 C666 0.929 . S
O672 Mn648 2.385 . S
O672 C650 1.234 . S
O673 Mn648 2.209 . S
O673 Mn649 2.215 . S
O673 C650 1.283 . S
O674 Mn648 2.094 . S
O674 C652 1.240 . S
O675 Mn649 2.117 . S
O675 C652 1.264 . S
C676 C669 1.403 . S
C676 C677 1.399 . S
C676 H682 0.929 . S
C677 C657 1.449 . S
C677 C676 1.399 . S
C677 H683 0.930 . S
H678 C658 0.931 . S
H679 C659 0.930 . S
H680 C667 0.931 . S
H681 C668 0.929 . S
H682 C676 0.929 . S
H683 C677 0.930 . S
Mn684 O689 2.095 . S
Mn684 O699 2.162 . S
Mn684 O700 2.297 . S
Mn684 O708 2.385 . S
Mn684 O709 2.209 . S
Mn684 O710 2.094 . S
Mn685 O690 2.121 . S
Mn685 N692 2.257 . S
Mn685 N701 2.282 . S
Mn685 O709 2.215 . S
Mn685 O711 2.117 . S
C686 O708 1.234 . S
C686 O709 1.283 . S
C687 O699 1.281 . S
C687 O700 1.236 . S
C688 O710 1.240 . S
C688 O711 1.264 . S
O689 Mn684 2.095 . S
O689 C698 1.250 . S
O690 Mn685 2.121 . S
O690 C698 1.258 . S
C691 N692 1.326 . S
C691 C695 1.460 . S
C691 H697 0.929 . S
N692 Mn685 2.257 . S
N692 C691 1.326 . S
N692 C696 1.362 . S
C693 C694 1.258 . S
C693 C696 1.431 . S
C693 C713 1.449 . S
C694 C693 1.258 . S
C694 C695 1.477 . S
C694 H714 0.931 . S
C695 C691 1.460 . S
C695 C694 1.477 . S
C695 H715 0.930 . S
C696 N692 1.362 . S
C696 C693 1.431 . S
C696 C706 1.476 . S
H697 C691 0.929 . S
C698 O689 1.250 . S
C698 O690 1.258 . S
O699 Mn684 2.162 . S
O699 C687 1.281 . S
O700 Mn684 2.297 . S
O700 C687 1.236 . S
N701 Mn685 2.282 . S
N701 C702 1.328 . S
N701 C706 1.318 . S
C702 N701 1.328 . S
C702 C703 1.457 . S
C702 H707 0.929 . S
C703 C702 1.457 . S
C703 C704 1.291 . S
C703 H716 0.931 . S
C704 C703 1.291 . S
C704 C705 1.373 . S
C704 H717 0.929 . S
C705 C704 1.373 . S
C705 C706 1.396 . S
C705 C712 1.403 . S
C706 C696 1.476 . S
C706 N701 1.318 . S
C706 C705 1.396 . S
H707 C702 0.929 . S
O708 Mn684 2.385 . S
O708 C686 1.234 . S
O709 Mn684 2.209 . S
O709 Mn685 2.215 . S
O709 C686 1.283 . S
O710 Mn684 2.094 . S
O710 C688 1.240 . S
O711 Mn685 2.117 . S
O711 C688 1.264 . S
C712 C705 1.403 . S
C712 C713 1.399 . S
C712 H718 0.929 . S
C713 C693 1.449 . S
C713 C712 1.399 . S
C713 H719 0.930 . S
H714 C694 0.931 . S
H715 C695 0.930 . S
H716 C703 0.931 . S
H717 C704 0.929 . S
H718 C712 0.929 . S
H719 C713 0.930 . S
Mn720 O725 2.095 . S
Mn720 O735 2.162 . S
Mn720 O736 2.297 . S
Mn720 O744 2.385 . S
Mn720 O745 2.209 . S
Mn720 O746 2.094 . S
Mn721 O726 2.121 . S
Mn721 N728 2.257 . S
Mn721 N737 2.282 . S
Mn721 O745 2.215 . S
Mn721 O747 2.117 . S
C722 O744 1.234 . S
C722 O745 1.283 . S
C723 O735 1.281 . S
C723 O736 1.236 . S
C724 O746 1.240 . S
C724 O747 1.264 . S
O725 Mn720 2.095 . S
O725 C734 1.250 . S
O726 Mn721 2.121 . S
O726 C734 1.258 . S
C727 N728 1.326 . S
C727 C731 1.460 . S
C727 H733 0.929 . S
N728 Mn721 2.257 . S
N728 C727 1.326 . S
N728 C732 1.362 . S
C729 C730 1.258 . S
C729 C732 1.431 . S
C729 C749 1.449 . S
C730 C729 1.258 . S
C730 C731 1.477 . S
C730 H750 0.931 . S
C731 C727 1.460 . S
C731 C730 1.477 . S
C731 H751 0.930 . S
C732 N728 1.362 . S
C732 C729 1.431 . S
C732 C742 1.476 . S
H733 C727 0.929 . S
C734 O725 1.250 . S
C734 O726 1.258 . S
O735 Mn720 2.162 . S
O735 C723 1.281 . S
O736 Mn720 2.297 . S
O736 C723 1.236 . S
N737 Mn721 2.282 . S
N737 C738 1.328 . S
N737 C742 1.318 . S
C738 N737 1.328 . S
C738 C739 1.457 . S
C738 H743 0.929 . S
C739 C738 1.457 . S
C739 C740 1.291 . S
C739 H752 0.931 . S
C740 C739 1.291 . S
C740 C741 1.373 . S
C740 H753 0.929 . S
C741 C740 1.373 . S
C741 C742 1.396 . S
C741 C748 1.403 . S
C742 C732 1.476 . S
C742 N737 1.318 . S
C742 C741 1.396 . S
H743 C738 0.929 . S
O744 Mn720 2.385 . S
O744 C722 1.234 . S
O745 Mn720 2.209 . S
O745 Mn721 2.215 . S
O745 C722 1.283 . S
O746 Mn720 2.094 . S
O746 C724 1.240 . S
O747 Mn721 2.117 . S
O747 C724 1.264 . S
C748 C741 1.403 . S
C748 C749 1.399 . S
C748 H754 0.929 . S
C749 C729 1.449 . S
C749 C748 1.399 . S
C749 H755 0.930 . S
H750 C730 0.931 . S
H751 C731 0.930 . S
H752 C739 0.931 . S
H753 C740 0.929 . S
H754 C748 0.929 . S
H755 C749 0.930 . S
Mn756 O761 2.095 . S
Mn756 O771 2.162 . S
Mn756 O772 2.297 . S
Mn756 O780 2.385 . S
Mn756 O781 2.209 . S
Mn756 O782 2.094 . S
Mn757 O762 2.121 . S
Mn757 N764 2.257 . S
Mn757 N773 2.282 . S
Mn757 O781 2.215 . S
Mn757 O783 2.117 . S
C758 O780 1.234 . S
C758 O781 1.283 . S
C759 O771 1.281 . S
C759 O772 1.236 . S
C760 O782 1.240 . S
C760 O783 1.264 . S
O761 Mn756 2.095 . S
O761 C770 1.250 . S
O762 Mn757 2.121 . S
O762 C770 1.258 . S
C763 N764 1.326 . S
C763 C767 1.460 . S
C763 H769 0.929 . S
N764 Mn757 2.257 . S
N764 C763 1.326 . S
N764 C768 1.362 . S
C765 C766 1.258 . S
C765 C768 1.431 . S
C765 C785 1.449 . S
C766 C765 1.258 . S
C766 C767 1.477 . S
C766 H786 0.931 . S
C767 C763 1.460 . S
C767 C766 1.477 . S
C767 H787 0.930 . S
C768 N764 1.362 . S
C768 C765 1.431 . S
C768 C778 1.476 . S
H769 C763 0.929 . S
C770 O761 1.250 . S
C770 O762 1.258 . S
O771 Mn756 2.162 . S
O771 C759 1.281 . S
O772 Mn756 2.297 . S
O772 C759 1.236 . S
N773 Mn757 2.282 . S
N773 C774 1.328 . S
N773 C778 1.318 . S
C774 N773 1.328 . S
C774 C775 1.457 . S
C774 H779 0.929 . S
C775 C774 1.457 . S
C775 C776 1.291 . S
C775 H788 0.931 . S
C776 C775 1.291 . S
C776 C777 1.373 . S
C776 H789 0.929 . S
C777 C776 1.373 . S
C777 C778 1.396 . S
C777 C784 1.403 . S
C778 C768 1.476 . S
C778 N773 1.318 . S
C778 C777 1.396 . S
H779 C774 0.929 . S
O780 Mn756 2.385 . S
O780 C758 1.234 . S
O781 Mn756 2.209 . S
O781 Mn757 2.215 . S
O781 C758 1.283 . S
O782 Mn756 2.094 . S
O782 C760 1.240 . S
O783 Mn757 2.117 . S
O783 C760 1.264 . S
C784 C777 1.403 . S
C784 C785 1.399 . S
C784 H790 0.929 . S
C785 C765 1.449 . S
C785 C784 1.399 . S
C785 H791 0.930 . S
H786 C766 0.931 . S
H787 C767 0.930 . S
H788 C775 0.931 . S
H789 C776 0.929 . S
H790 C784 0.929 . S
H791 C785 0.930 . S
Mn792 O797 2.095 . S
Mn792 O807 2.162 . S
Mn792 O808 2.297 . S
Mn792 O816 2.385 . S
Mn792 O817 2.209 . S
Mn792 O818 2.094 . S
Mn793 O798 2.121 . S
Mn793 N800 2.257 . S
Mn793 N809 2.282 . S
Mn793 O817 2.215 . S
Mn793 O819 2.117 . S
C794 O816 1.234 . S
C794 O817 1.283 . S
C795 O807 1.281 . S
C795 O808 1.236 . S
C796 O818 1.240 . S
C796 O819 1.264 . S
O797 Mn792 2.095 . S
O797 C806 1.250 . S
O798 Mn793 2.121 . S
O798 C806 1.258 . S
C799 N800 1.326 . S
C799 C803 1.460 . S
C799 H805 0.929 . S
N800 Mn793 2.257 . S
N800 C799 1.326 . S
N800 C804 1.362 . S
C801 C802 1.258 . S
C801 C804 1.431 . S
C801 C821 1.449 . S
C802 C801 1.258 . S
C802 C803 1.477 . S
C802 H822 0.931 . S
C803 C799 1.460 . S
C803 C802 1.477 . S
C803 H823 0.930 . S
C804 N800 1.362 . S
C804 C801 1.431 . S
C804 C814 1.476 . S
H805 C799 0.929 . S
C806 O797 1.250 . S
C806 O798 1.258 . S
O807 Mn792 2.162 . S
O807 C795 1.281 . S
O808 Mn792 2.297 . S
O808 C795 1.236 . S
N809 Mn793 2.282 . S
N809 C810 1.328 . S
N809 C814 1.318 . S
C810 N809 1.328 . S
C810 C811 1.457 . S
C810 H815 0.929 . S
C811 C810 1.457 . S
C811 C812 1.291 . S
C811 H824 0.931 . S
C812 C811 1.291 . S
C812 C813 1.373 . S
C812 H825 0.929 . S
C813 C812 1.373 . S
C813 C814 1.396 . S
C813 C820 1.403 . S
C814 C804 1.476 . S
C814 N809 1.318 . S
C814 C813 1.396 . S
H815 C810 0.929 . S
O816 Mn792 2.385 . S
O816 C794 1.234 . S
O817 Mn792 2.209 . S
O817 Mn793 2.215 . S
O817 C794 1.283 . S
O818 Mn792 2.094 . S
O818 C796 1.240 . S
O819 Mn793 2.117 . S
O819 C796 1.264 . S
C820 C813 1.403 . S
C820 C821 1.399 . S
C820 H826 0.929 . S
C821 C801 1.449 . S
C821 C820 1.399 . S
C821 H827 0.930 . S
H822 C802 0.931 . S
H823 C803 0.930 . S
H824 C811 0.931 . S
H825 C812 0.929 . S
H826 C820 0.929 . S
H827 C821 0.930 . S
Mn828 O833 2.095 . S
Mn828 O843 2.162 . S
Mn828 O844 2.297 . S
Mn828 O852 2.385 . S
Mn828 O853 2.209 . S
Mn828 O854 2.094 . S
Mn829 O834 2.121 . S
Mn829 N836 2.257 . S
Mn829 N845 2.282 . S
Mn829 O853 2.215 . S
Mn829 O855 2.117 . S
C830 O852 1.234 . S
C830 O853 1.283 . S
C831 O843 1.281 . S
C831 O844 1.236 . S
C832 O854 1.240 . S
C832 O855 1.264 . S
O833 Mn828 2.095 . S
O833 C842 1.250 . S
O834 Mn829 2.121 . S
O834 C842 1.258 . S
C835 N836 1.326 . S
C835 C839 1.460 . S
C835 H841 0.929 . S
N836 Mn829 2.257 . S
N836 C835 1.326 . S
N836 C840 1.362 . S
C837 C838 1.258 . S
C837 C840 1.431 . S
C837 C857 1.449 . S
C838 C837 1.258 . S
C838 C839 1.477 . S
C838 H858 0.931 . S
C839 C835 1.460 . S
C839 C838 1.477 . S
C839 H859 0.930 . S
C840 N836 1.362 . S
C840 C837 1.431 . S
C840 C850 1.476 . S
H841 C835 0.929 . S
C842 O833 1.250 . S
C842 O834 1.258 . S
O843 Mn828 2.162 . S
O843 C831 1.281 . S
O844 Mn828 2.297 . S
O844 C831 1.236 . S
N845 Mn829 2.282 . S
N845 C846 1.328 . S
N845 C850 1.318 . S
C846 N845 1.328 . S
C846 C847 1.457 . S
C846 H851 0.929 . S
C847 C846 1.457 . S
C847 C848 1.291 . S
C847 H860 0.931 . S
C848 C847 1.291 . S
C848 C849 1.373 . S
C848 H861 0.929 . S
C849 C848 1.373 . S
C849 C850 1.396 . S
C849 C856 1.403 . S
C850 C840 1.476 . S
C850 N845 1.318 . S
C850 C849 1.396 . S
H851 C846 0.929 . S
O852 Mn828 2.385 . S
O852 C830 1.234 . S
O853 Mn828 2.209 . S
O853 Mn829 2.215 . S
O853 C830 1.283 . S
O854 Mn828 2.094 . S
O854 C832 1.240 . S
O855 Mn829 2.117 . S
O855 C832 1.264 . S
C856 C849 1.403 . S
C856 C857 1.399 . S
C856 H862 0.929 . S
C857 C837 1.449 . S
C857 C856 1.399 . S
C857 H863 0.930 . S
H858 C838 0.931 . S
H859 C839 0.930 . S
H860 C847 0.931 . S
H861 C848 0.929 . S
H862 C856 0.929 . S
H863 C857 0.930 . S
Mn864 O869 2.095 . S
Mn864 O879 2.162 . S
Mn864 O880 2.297 . S
Mn864 O888 2.385 . S
Mn864 O889 2.209 . S
Mn864 O890 2.094 . S
Mn865 O870 2.121 . S
Mn865 N872 2.257 . S
Mn865 N881 2.282 . S
Mn865 O889 2.215 . S
Mn865 O891 2.117 . S
C866 O888 1.234 . S
C866 O889 1.283 . S
C867 O879 1.281 . S
C867 O880 1.236 . S
C868 O890 1.240 . S
C868 O891 1.264 . S
O869 Mn864 2.095 . S
O869 C878 1.250 . S
O870 Mn865 2.121 . S
O870 C878 1.258 . S
C871 N872 1.326 . S
C871 C875 1.460 . S
C871 H877 0.929 . S
N872 Mn865 2.257 . S
N872 C871 1.326 . S
N872 C876 1.362 . S
C873 C874 1.258 . S
C873 C876 1.431 . S
C873 C893 1.449 . S
C874 C873 1.258 . S
C874 C875 1.477 . S
C874 H894 0.931 . S
C875 C871 1.460 . S
C875 C874 1.477 . S
C875 H895 0.930 . S
C876 N872 1.362 . S
C876 C873 1.431 . S
C876 C886 1.476 . S
H877 C871 0.929 . S
C878 O869 1.250 . S
C878 O870 1.258 . S
O879 Mn864 2.162 . S
O879 C867 1.281 . S
O880 Mn864 2.297 . S
O880 C867 1.236 . S
N881 Mn865 2.282 . S
N881 C882 1.328 . S
N881 C886 1.318 . S
C882 N881 1.328 . S
C882 C883 1.457 . S
C882 H887 0.929 . S
C883 C882 1.457 . S
C883 C884 1.291 . S
C883 H896 0.931 . S
C884 C883 1.291 . S
C884 C885 1.373 . S
C884 H897 0.929 . S
C885 C884 1.373 . S
C885 C886 1.396 . S
C885 C892 1.403 . S
C886 C876 1.476 . S
C886 N881 1.318 . S
C886 C885 1.396 . S
H887 C882 0.929 . S
O888 Mn864 2.385 . S
O888 C866 1.234 . S
O889 Mn864 2.209 . S
O889 Mn865 2.215 . S
O889 C866 1.283 . S
O890 Mn864 2.094 . S
O890 C868 1.240 . S
O891 Mn865 2.117 . S
O891 C868 1.264 . S
C892 C885 1.403 . S
C892 C893 1.399 . S
C892 H898 0.929 . S
C893 C873 1.449 . S
C893 C892 1.399 . S
C893 H899 0.930 . S
H894 C874 0.931 . S
H895 C875 0.930 . S
H896 C883 0.931 . S
H897 C884 0.929 . S
H898 C892 0.929 . S
H899 C893 0.930 . S
Mn900 O905 2.095 . S
Mn900 O915 2.162 . S
Mn900 O916 2.297 . S
Mn900 O924 2.385 . S
Mn900 O925 2.209 . S
Mn900 O926 2.094 . S
Mn901 O906 2.121 . S
Mn901 N908 2.257 . S
Mn901 N917 2.282 . S
Mn901 O925 2.215 . S
Mn901 O927 2.117 . S
C902 O924 1.234 . S
C902 O925 1.283 . S
C903 O915 1.281 . S
C903 O916 1.236 . S
C904 O926 1.240 . S
C904 O927 1.264 . S
O905 Mn900 2.095 . S
O905 C914 1.250 . S
O906 Mn901 2.121 . S
O906 C914 1.258 . S
C907 N908 1.326 . S
C907 C911 1.460 . S
C907 H913 0.929 . S
N908 Mn901 2.257 . S
N908 C907 1.326 . S
N908 C912 1.362 . S
C909 C910 1.258 . S
C909 C912 1.431 . S
C909 C929 1.449 . S
C910 C909 1.258 . S
C910 C911 1.477 . S
C910 H930 0.931 . S
C911 C907 1.460 . S
C911 C910 1.477 . S
C911 H931 0.930 . S
C912 N908 1.362 . S
C912 C909 1.431 . S
C912 C922 1.476 . S
H913 C907 0.929 . S
C914 O905 1.250 . S
C914 O906 1.258 . S
O915 Mn900 2.162 . S
O915 C903 1.281 . S
O916 Mn900 2.297 . S
O916 C903 1.236 . S
N917 Mn901 2.282 . S
N917 C918 1.328 . S
N917 C922 1.318 . S
C918 N917 1.328 . S
C918 C919 1.457 . S
C918 H923 0.929 . S
C919 C918 1.457 . S
C919 C920 1.291 . S
C919 H932 0.931 . S
C920 C919 1.291 . S
C920 C921 1.373 . S
C920 H933 0.929 . S
C921 C920 1.373 . S
C921 C922 1.396 . S
C921 C928 1.403 . S
C922 C912 1.476 . S
C922 N917 1.318 . S
C922 C921 1.396 . S
H923 C918 0.929 . S
O924 Mn900 2.385 . S
O924 C902 1.234 . S
O925 Mn900 2.209 . S
O925 Mn901 2.215 . S
O925 C902 1.283 . S
O926 Mn900 2.094 . S
O926 C904 1.240 . S
O927 Mn901 2.117 . S
O927 C904 1.264 . S
C928 C921 1.403 . S
C928 C929 1.399 . S
C928 H934 0.929 . S
C929 C909 1.449 . S
C929 C928 1.399 . S
C929 H935 0.930 . S
H930 C910 0.931 . S
H931 C911 0.930 . S
H932 C919 0.931 . S
H933 C920 0.929 . S
H934 C928 0.929 . S
H935 C929 0.930 . S
Mn936 O941 2.095 . S
Mn936 O951 2.162 . S
Mn936 O952 2.297 . S
Mn936 O960 2.385 . S
Mn936 O961 2.209 . S
Mn936 O962 2.094 . S
Mn937 O942 2.121 . S
Mn937 N944 2.257 . S
Mn937 N953 2.282 . S
Mn937 O961 2.215 . S
Mn937 O963 2.117 . S
C938 O960 1.234 . S
C938 O961 1.283 . S
C939 O951 1.281 . S
C939 O952 1.236 . S
C940 O962 1.240 . S
C940 O963 1.264 . S
O941 Mn936 2.095 . S
O941 C950 1.250 . S
O942 Mn937 2.121 . S
O942 C950 1.258 . S
C943 N944 1.326 . S
C943 C947 1.460 . S
C943 H949 0.929 . S
N944 Mn937 2.257 . S
N944 C943 1.326 . S
N944 C948 1.362 . S
C945 C946 1.258 . S
C945 C948 1.431 . S
C945 C965 1.449 . S
C946 C945 1.258 . S
C946 C947 1.477 . S
C946 H966 0.931 . S
C947 C943 1.460 . S
C947 C946 1.477 . S
C947 H967 0.930 . S
C948 N944 1.362 . S
C948 C945 1.431 . S
C948 C958 1.476 . S
H949 C943 0.929 . S
C950 O941 1.250 . S
C950 O942 1.258 . S
O951 Mn936 2.162 . S
O951 C939 1.281 . S
O952 Mn936 2.297 . S
O952 C939 1.236 . S
N953 Mn937 2.282 . S
N953 C954 1.328 . S
N953 C958 1.318 . S
C954 N953 1.328 . S
C954 C955 1.457 . S
C954 H959 0.929 . S
C955 C954 1.457 . S
C955 C956 1.291 . S
C955 H968 0.931 . S
C956 C955 1.291 . S
C956 C957 1.373 . S
C956 H969 0.929 . S
C957 C956 1.373 . S
C957 C958 1.396 . S
C957 C964 1.403 . S
C958 C948 1.476 . S
C958 N953 1.318 . S
C958 C957 1.396 . S
H959 C954 0.929 . S
O960 Mn936 2.385 . S
O960 C938 1.234 . S
O961 Mn936 2.209 . S
O961 Mn937 2.215 . S
O961 C938 1.283 . S
O962 Mn936 2.094 . S
O962 C940 1.240 . S
O963 Mn937 2.117 . S
O963 C940 1.264 . S
C964 C957 1.403 . S
C964 C965 1.399 . S
C964 H970 0.929 . S
C965 C945 1.449 . S
C965 C964 1.399 . S
C965 H971 0.930 . S
H966 C946 0.931 . S
H967 C947 0.930 . S
H968 C955 0.931 . S
H969 C956 0.929 . S
H970 C964 0.929 . S
H971 C965 0.930 . S
Mn972 O977 2.095 . S
Mn972 O987 2.162 . S
Mn972 O988 2.297 . S
Mn972 O996 2.385 . S
Mn972 O997 2.209 . S
Mn972 O998 2.094 . S
Mn973 O978 2.121 . S
Mn973 N980 2.257 . S
Mn973 N989 2.282 . S
Mn973 O997 2.215 . S
Mn973 O999 2.117 . S
C974 O996 1.234 . S
C974 O997 1.283 . S
C975 O987 1.281 . S
C975 O988 1.236 . S
C976 O998 1.240 . S
C976 O999 1.264 . S
O977 Mn972 2.095 . S
O977 C986 1.250 . S
O978 Mn973 2.121 . S
O978 C986 1.258 . S
C979 N980 1.326 . S
C979 C983 1.460 . S
C979 H985 0.929 . S
N980 Mn973 2.257 . S
N980 C979 1.326 . S
N980 C984 1.362 . S
C981 C982 1.258 . S
C981 C984 1.431 . S
C981 C1001 1.449 . S
C982 C981 1.258 . S
C982 C983 1.477 . S
C982 H1002 0.931 . S
C983 C979 1.460 . S
C983 C982 1.477 . S
C983 H1003 0.930 . S
C984 N980 1.362 . S
C984 C981 1.431 . S
C984 C994 1.476 . S
H985 C979 0.929 . S
C986 O977 1.250 . S
C986 O978 1.258 . S
O987 Mn972 2.162 . S
O987 C975 1.281 . S
O988 Mn972 2.297 . S
O988 C975 1.236 . S
N989 Mn973 2.282 . S
N989 C990 1.328 . S
N989 C994 1.318 . S
C990 N989 1.328 . S
C990 C991 1.457 . S
C990 H995 0.929 . S
C991 C990 1.457 . S
C991 C992 1.291 . S
C991 H1004 0.931 . S
C992 C991 1.291 . S
C992 C993 1.373 . S
C992 H1005 0.929 . S
C993 C992 1.373 . S
C993 C994 1.396 . S
C993 C1000 1.403 . S
C994 C984 1.476 . S
C994 N989 1.318 . S
C994 C993 1.396 . S
H995 C990 0.929 . S
O996 Mn972 2.385 . S
O996 C974 1.234 . S
O997 Mn972 2.209 . S
O997 Mn973 2.215 . S
O997 C974 1.283 . S
O998 Mn972 2.094 . S
O998 C976 1.240 . S
O999 Mn973 2.117 . S
O999 C976 1.264 . S
C1000 C993 1.403 . S
C1000 C1001 1.399 . S
C1000 H1006 0.929 . S
C1001 C981 1.449 . S
C1001 C1000 1.399 . S
C1001 H1007 0.930 . S
H1002 C982 0.931 . S
H1003 C983 0.930 . S
H1004 C991 0.931 . S
H1005 C992 0.929 . S
H1006 C1000 0.929 . S
H1007 C1001 0.930 . S
Mn1008 O1013 2.095 . S
Mn1008 O1023 2.162 . S
Mn1008 O1024 2.297 . S
Mn1008 O1032 2.385 . S
Mn1008 O1033 2.209 . S
Mn1008 O1034 2.094 . S
Mn1009 O1014 2.121 . S
Mn1009 N1016 2.257 . S
Mn1009 N1025 2.282 . S
Mn1009 O1033 2.215 . S
Mn1009 O1035 2.117 . S
C1010 O1032 1.234 . S
C1010 O1033 1.283 . S
C1011 O1023 1.281 . S
C1011 O1024 1.236 . S
C1012 O1034 1.240 . S
C1012 O1035 1.264 . S
O1013 Mn1008 2.095 . S
O1013 C1022 1.250 . S
O1014 Mn1009 2.121 . S
O1014 C1022 1.258 . S
C1015 N1016 1.326 . S
C1015 C1019 1.460 . S
C1015 H1021 0.929 . S
N1016 Mn1009 2.257 . S
N1016 C1015 1.326 . S
N1016 C1020 1.362 . S
C1017 C1018 1.258 . S
C1017 C1020 1.431 . S
C1017 C1037 1.449 . S
C1018 C1017 1.258 . S
C1018 C1019 1.477 . S
C1018 H1038 0.931 . S
C1019 C1015 1.460 . S
C1019 C1018 1.477 . S
C1019 H1039 0.930 . S
C1020 N1016 1.362 . S
C1020 C1017 1.431 . S
C1020 C1030 1.476 . S
H1021 C1015 0.929 . S
C1022 O1013 1.250 . S
C1022 O1014 1.258 . S
O1023 Mn1008 2.162 . S
O1023 C1011 1.281 . S
O1024 Mn1008 2.297 . S
O1024 C1011 1.236 . S
N1025 Mn1009 2.282 . S
N1025 C1026 1.328 . S
N1025 C1030 1.318 . S
C1026 N1025 1.328 . S
C1026 C1027 1.457 . S
C1026 H1031 0.929 . S
C1027 C1026 1.457 . S
C1027 C1028 1.291 . S
C1027 H1040 0.931 . S
C1028 C1027 1.291 . S
C1028 C1029 1.373 . S
C1028 H1041 0.929 . S
C1029 C1028 1.373 . S
C1029 C1030 1.396 . S
C1029 C1036 1.403 . S
C1030 C1020 1.476 . S
C1030 N1025 1.318 . S
C1030 C1029 1.396 . S
H1031 C1026 0.929 . S
O1032 Mn1008 2.385 . S
O1032 C1010 1.234 . S
O1033 Mn1008 2.209 . S
O1033 Mn1009 2.215 . S
O1033 C1010 1.283 . S
O1034 Mn1008 2.094 . S
O1034 C1012 1.240 . S
O1035 Mn1009 2.117 . S
O1035 C1012 1.264 . S
C1036 C1029 1.403 . S
C1036 C1037 1.399 . S
C1036 H1042 0.929 . S
C1037 C1017 1.449 . S
C1037 C1036 1.399 . S
C1037 H1043 0.930 . S
H1038 C1018 0.931 . S
H1039 C1019 0.930 . S
H1040 C1027 0.931 . S
H1041 C1028 0.929 . S
H1042 C1036 0.929 . S
H1043 C1037 0.930 . S
Mn1044 O1049 2.095 . S
Mn1044 O1059 2.162 . S
Mn1044 O1060 2.297 . S
Mn1044 O1068 2.385 . S
Mn1044 O1069 2.209 . S
Mn1044 O1070 2.094 . S
Mn1045 O1050 2.121 . S
Mn1045 N1052 2.257 . S
Mn1045 N1061 2.282 . S
Mn1045 O1069 2.215 . S
Mn1045 O1071 2.117 . S
C1046 O1068 1.234 . S
C1046 O1069 1.283 . S
C1047 O1059 1.281 . S
C1047 O1060 1.236 . S
C1048 O1070 1.240 . S
C1048 O1071 1.264 . S
O1049 Mn1044 2.095 . S
O1049 C1058 1.250 . S
O1050 Mn1045 2.121 . S
O1050 C1058 1.258 . S
C1051 N1052 1.326 . S
C1051 C1055 1.460 . S
C1051 H1057 0.929 . S
N1052 Mn1045 2.257 . S
N1052 C1051 1.326 . S
N1052 C1056 1.362 . S
C1053 C1054 1.258 . S
C1053 C1056 1.431 . S
C1053 C1073 1.449 . S
C1054 C1053 1.258 . S
C1054 C1055 1.477 . S
C1054 H1074 0.931 . S
C1055 C1051 1.460 . S
C1055 C1054 1.477 . S
C1055 H1075 0.930 . S
C1056 N1052 1.362 . S
C1056 C1053 1.431 . S
C1056 C1066 1.476 . S
H1057 C1051 0.929 . S
C1058 O1049 1.250 . S
C1058 O1050 1.258 . S
O1059 Mn1044 2.162 . S
O1059 C1047 1.281 . S
O1060 Mn1044 2.297 . S
O1060 C1047 1.236 . S
N1061 Mn1045 2.282 . S
N1061 C1062 1.328 . S
N1061 C1066 1.318 . S
C1062 N1061 1.328 . S
C1062 C1063 1.457 . S
C1062 H1067 0.929 . S
C1063 C1062 1.457 . S
C1063 C1064 1.291 . S
C1063 H1076 0.931 . S
C1064 C1063 1.291 . S
C1064 C1065 1.373 . S
C1064 H1077 0.929 . S
C1065 C1064 1.373 . S
C1065 C1066 1.396 . S
C1065 C1072 1.403 . S
C1066 C1056 1.476 . S
C1066 N1061 1.318 . S
C1066 C1065 1.396 . S
H1067 C1062 0.929 . S
O1068 Mn1044 2.385 . S
O1068 C1046 1.234 . S
O1069 Mn1044 2.209 . S
O1069 Mn1045 2.215 . S
O1069 C1046 1.283 . S
O1070 Mn1044 2.094 . S
O1070 C1048 1.240 . S
O1071 Mn1045 2.117 . S
O1071 C1048 1.264 . S
C1072 C1065 1.403 . S
C1072 C1073 1.399 . S
C1072 H1078 0.929 . S
C1073 C1053 1.449 . S
C1073 C1072 1.399 . S
C1073 H1079 0.930 . S
H1074 C1054 0.931 . S
H1075 C1055 0.930 . S
H1076 C1063 0.931 . S
H1077 C1064 0.929 . S
H1078 C1072 0.929 . S
H1079 C1073 0.930 . S
Mn1080 O1085 2.095 . S
Mn1080 O1095 2.162 . S
Mn1080 O1096 2.297 . S
Mn1080 O1104 2.385 . S
Mn1080 O1105 2.209 . S
Mn1080 O1106 2.094 . S
Mn1081 O1086 2.121 . S
Mn1081 N1088 2.257 . S
Mn1081 N1097 2.282 . S
Mn1081 O1105 2.215 . S
Mn1081 O1107 2.117 . S
C1082 O1104 1.234 . S
C1082 O1105 1.283 . S
C1083 O1095 1.281 . S
C1083 O1096 1.236 . S
C1084 O1106 1.240 . S
C1084 O1107 1.264 . S
O1085 Mn1080 2.095 . S
O1085 C1094 1.250 . S
O1086 Mn1081 2.121 . S
O1086 C1094 1.258 . S
C1087 N1088 1.326 . S
C1087 C1091 1.460 . S
C1087 H1093 0.929 . S
N1088 Mn1081 2.257 . S
N1088 C1087 1.326 . S
N1088 C1092 1.362 . S
C1089 C1090 1.258 . S
C1089 C1092 1.431 . S
C1089 C1109 1.449 . S
C1090 C1089 1.258 . S
C1090 C1091 1.477 . S
C1090 H1110 0.931 . S
C1091 C1087 1.460 . S
C1091 C1090 1.477 . S
C1091 H1111 0.930 . S
C1092 N1088 1.362 . S
C1092 C1089 1.431 . S
C1092 C1102 1.476 . S
H1093 C1087 0.929 . S
C1094 O1085 1.250 . S
C1094 O1086 1.258 . S
O1095 Mn1080 2.162 . S
O1095 C1083 1.281 . S
O1096 Mn1080 2.297 . S
O1096 C1083 1.236 . S
N1097 Mn1081 2.282 . S
N1097 C1098 1.328 . S
N1097 C1102 1.318 . S
C1098 N1097 1.328 . S
C1098 C1099 1.457 . S
C1098 H1103 0.929 . S
C1099 C1098 1.457 . S
C1099 C1100 1.291 . S
C1099 H1112 0.931 . S
C1100 C1099 1.291 . S
C1100 C1101 1.373 . S
C1100 H1113 0.929 . S
C1101 C1100 1.373 . S
C1101 C1102 1.396 . S
C1101 C1108 1.403 . S
C1102 C1092 1.476 . S
C1102 N1097 1.318 . S
C1102 C1101 1.396 . S
H1103 C1098 0.929 . S
O1104 Mn1080 2.385 . S
O1104 C1082 1.234 . S
O1105 Mn1080 2.209 . S
O1105 Mn1081 2.215 . S
O1105 C1082 1.283 . S
O1106 Mn1080 2.094 . S
O1106 C1084 1.240 . S
O1107 Mn1081 2.117 . S
O1107 C1084 1.264 . S
C1108 C1101 1.403 . S
C1108 C1109 1.399 . S
C1108 H1114 0.929 . S
C1109 C1089 1.449 . S
C1109 C1108 1.399 . S
C1109 H1115 0.930 . S
H1110 C1090 0.931 . S
H1111 C1091 0.930 . S
H1112 C1099 0.931 . S
H1113 C1100 0.929 . S
H1114 C1108 0.929 . S
H1115 C1109 0.930 . S
Mn1116 O1121 2.095 . S
Mn1116 O1131 2.162 . S
Mn1116 O1132 2.297 . S
Mn1116 O1140 2.385 . S
Mn1116 O1141 2.209 . S
Mn1116 O1142 2.094 . S
Mn1117 O1122 2.121 . S
Mn1117 N1124 2.257 . S
Mn1117 N1133 2.282 . S
Mn1117 O1141 2.215 . S
Mn1117 O1143 2.117 . S
C1118 O1140 1.234 . S
C1118 O1141 1.283 . S
C1119 O1131 1.281 . S
C1119 O1132 1.236 . S
C1120 O1142 1.240 . S
C1120 O1143 1.264 . S
O1121 Mn1116 2.095 . S
O1121 C1130 1.250 . S
O1122 Mn1117 2.121 . S
O1122 C1130 1.258 . S
C1123 N1124 1.326 . S
C1123 C1127 1.460 . S
C1123 H1129 0.929 . S
N1124 Mn1117 2.257 . S
N1124 C1123 1.326 . S
N1124 C1128 1.362 . S
C1125 C1126 1.258 . S
C1125 C1128 1.431 . S
C1125 C1145 1.449 . S
C1126 C1125 1.258 . S
C1126 C1127 1.477 . S
C1126 H1146 0.931 . S
C1127 C1123 1.460 . S
C1127 C1126 1.477 . S
C1127 H1147 0.930 . S
C1128 N1124 1.362 . S
C1128 C1125 1.431 . S
C1128 C1138 1.476 . S
H1129 C1123 0.929 . S
C1130 O1121 1.250 . S
C1130 O1122 1.258 . S
O1131 Mn1116 2.162 . S
O1131 C1119 1.281 . S
O1132 Mn1116 2.297 . S
O1132 C1119 1.236 . S
N1133 Mn1117 2.282 . S
N1133 C1134 1.328 . S
N1133 C1138 1.318 . S
C1134 N1133 1.328 . S
C1134 C1135 1.457 . S
C1134 H1139 0.929 . S
C1135 C1134 1.457 . S
C1135 C1136 1.291 . S
C1135 H1148 0.931 . S
C1136 C1135 1.291 . S
C1136 C1137 1.373 . S
C1136 H1149 0.929 . S
C1137 C1136 1.373 . S
C1137 C1138 1.396 . S
C1137 C1144 1.403 . S
C1138 C1128 1.476 . S
C1138 N1133 1.318 . S
C1138 C1137 1.396 . S
H1139 C1134 0.929 . S
O1140 Mn1116 2.385 . S
O1140 C1118 1.234 . S
O1141 Mn1116 2.209 . S
O1141 Mn1117 2.215 . S
O1141 C1118 1.283 . S
O1142 Mn1116 2.094 . S
O1142 C1120 1.240 . S
O1143 Mn1117 2.117 . S
O1143 C1120 1.264 . S
C1144 C1137 1.403 . S
C1144 C1145 1.399 . S
C1144 H1150 0.929 . S
C1145 C1125 1.449 . S
C1145 C1144 1.399 . S
C1145 H1151 0.930 . S
H1146 C1126 0.931 . S
H1147 C1127 0.930 . S
H1148 C1135 0.931 . S
H1149 C1136 0.929 . S
H1150 C1144 0.929 . S
H1151 C1145 0.930 . S
Mn1152 O1157 2.095 . S
Mn1152 O1167 2.162 . S
Mn1152 O1168 2.297 . S
Mn1152 O1176 2.385 . S
Mn1152 O1177 2.209 . S
Mn1152 O1178 2.094 . S
Mn1153 O1158 2.121 . S
Mn1153 N1160 2.257 . S
Mn1153 N1169 2.282 . S
Mn1153 O1177 2.215 . S
Mn1153 O1179 2.117 . S
C1154 O1176 1.234 . S
C1154 O1177 1.283 . S
C1155 O1167 1.281 . S
C1155 O1168 1.236 . S
C1156 O1178 1.240 . S
C1156 O1179 1.264 . S
O1157 Mn1152 2.095 . S
O1157 C1166 1.250 . S
O1158 Mn1153 2.121 . S
O1158 C1166 1.258 . S
C1159 N1160 1.326 . S
C1159 C1163 1.460 . S
C1159 H1165 0.929 . S
N1160 Mn1153 2.257 . S
N1160 C1159 1.326 . S
N1160 C1164 1.362 . S
C1161 C1162 1.258 . S
C1161 C1164 1.431 . S
C1161 C1181 1.449 . S
C1162 C1161 1.258 . S
C1162 C1163 1.477 . S
C1162 H1182 0.931 . S
C1163 C1159 1.460 . S
C1163 C1162 1.477 . S
C1163 H1183 0.930 . S
C1164 N1160 1.362 . S
C1164 C1161 1.431 . S
C1164 C1174 1.476 . S
H1165 C1159 0.929 . S
C1166 O1157 1.250 . S
C1166 O1158 1.258 . S
O1167 Mn1152 2.162 . S
O1167 C1155 1.281 . S
O1168 Mn1152 2.297 . S
O1168 C1155 1.236 . S
N1169 Mn1153 2.282 . S
N1169 C1170 1.328 . S
N1169 C1174 1.318 . S
C1170 N1169 1.328 . S
C1170 C1171 1.457 . S
C1170 H1175 0.929 . S
C1171 C1170 1.457 . S
C1171 C1172 1.291 . S
C1171 H1184 0.931 . S
C1172 C1171 1.291 . S
C1172 C1173 1.373 . S
C1172 H1185 0.929 . S
C1173 C1172 1.373 . S
C1173 C1174 1.396 . S
C1173 C1180 1.403 . S
C1174 C1164 1.476 . S
C1174 N1169 1.318 . S
C1174 C1173 1.396 . S
H1175 C1170 0.929 . S
O1176 Mn1152 2.385 . S
O1176 C1154 1.234 . S
O1177 Mn1152 2.209 . S
O1177 Mn1153 2.215 . S
O1177 C1154 1.283 . S
O1178 Mn1152 2.094 . S
O1178 C1156 1.240 . S
O1179 Mn1153 2.117 . S
O1179 C1156 1.264 . S
C1180 C1173 1.403 . S
C1180 C1181 1.399 . S
C1180 H1186 0.929 . S
C1181 C1161 1.449 . S
C1181 C1180 1.399 . S
C1181 H1187 0.930 . S
H1182 C1162 0.931 . S
H1183 C1163 0.930 . S
H1184 C1171 0.931 . S
H1185 C1172 0.929 . S
H1186 C1180 0.929 . S
H1187 C1181 0.930 . S
Mn1188 O1193 2.095 . S
Mn1188 O1203 2.162 . S
Mn1188 O1204 2.297 . S
Mn1188 O1212 2.385 . S
Mn1188 O1213 2.209 . S
Mn1188 O1214 2.094 . S
Mn1189 O1194 2.121 . S
Mn1189 N1196 2.257 . S
Mn1189 N1205 2.282 . S
Mn1189 O1213 2.215 . S
Mn1189 O1215 2.117 . S
C1190 O1212 1.234 . S
C1190 O1213 1.283 . S
C1191 O1203 1.281 . S
C1191 O1204 1.236 . S
C1192 O1214 1.240 . S
C1192 O1215 1.264 . S
O1193 Mn1188 2.095 . S
O1193 C1202 1.250 . S
O1194 Mn1189 2.121 . S
O1194 C1202 1.258 . S
C1195 N1196 1.326 . S
C1195 C1199 1.460 . S
C1195 H1201 0.929 . S
N1196 Mn1189 2.257 . S
N1196 C1195 1.326 . S
N1196 C1200 1.362 . S
C1197 C1198 1.258 . S
C1197 C1200 1.431 . S
C1197 C1217 1.449 . S
C1198 C1197 1.258 . S
C1198 C1199 1.477 . S
C1198 H1218 0.931 . S
C1199 C1195 1.460 . S
C1199 C1198 1.477 . S
C1199 H1219 0.930 . S
C1200 N1196 1.362 . S
C1200 C1197 1.431 . S
C1200 C1210 1.476 . S
H1201 C1195 0.929 . S
C1202 O1193 1.250 . S
C1202 O1194 1.258 . S
O1203 Mn1188 2.162 . S
O1203 C1191 1.281 . S
O1204 Mn1188 2.297 . S
O1204 C1191 1.236 . S
N1205 Mn1189 2.282 . S
N1205 C1206 1.328 . S
N1205 C1210 1.318 . S
C1206 N1205 1.328 . S
C1206 C1207 1.457 . S
C1206 H1211 0.929 . S
C1207 C1206 1.457 . S
C1207 C1208 1.291 . S
C1207 H1220 0.931 . S
C1208 C1207 1.291 . S
C1208 C1209 1.373 . S
C1208 H1221 0.929 . S
C1209 C1208 1.373 . S
C1209 C1210 1.396 . S
C1209 C1216 1.403 . S
C1210 C1200 1.476 . S
C1210 N1205 1.318 . S
C1210 C1209 1.396 . S
H1211 C1206 0.929 . S
O1212 Mn1188 2.385 . S
O1212 C1190 1.234 . S
O1213 Mn1188 2.209 . S
O1213 Mn1189 2.215 . S
O1213 C1190 1.283 . S
O1214 Mn1188 2.094 . S
O1214 C1192 1.240 . S
O1215 Mn1189 2.117 . S
O1215 C1192 1.264 . S
C1216 C1209 1.403 . S
C1216 C1217 1.399 . S
C1216 H1222 0.929 1_554 S
C1217 C1197 1.449 . S
C1217 C1216 1.399 . S
C1217 H1223 0.930 1_554 S
H1218 C1198 0.931 . S
H1219 C1199 0.930 . S
H1220 C1207 0.931 . S
H1221 C1208 0.929 . S
H1222 C1216 0.929 1_556 S
H1223 C1217 0.930 1_556 S
Mn1224 O1229 2.095 . S
Mn1224 O1239 2.162 . S
Mn1224 O1240 2.297 . S
Mn1224 O1248 2.385 . S
Mn1224 O1249 2.209 . S
Mn1224 O1250 2.094 . S
Mn1225 O1230 2.121 . S
Mn1225 N1232 2.257 . S
Mn1225 N1241 2.282 . S
Mn1225 O1249 2.215 . S
Mn1225 O1251 2.117 . S
C1226 O1248 1.234 . S
C1226 O1249 1.283 . S
C1227 O1239 1.281 . S
C1227 O1240 1.236 . S
C1228 O1250 1.240 . S
C1228 O1251 1.264 . S
O1229 Mn1224 2.095 . S
O1229 C1238 1.250 . S
O1230 Mn1225 2.121 . S
O1230 C1238 1.258 . S
C1231 N1232 1.326 . S
C1231 C1235 1.460 . S
C1231 H1237 0.929 . S
N1232 Mn1225 2.257 . S
N1232 C1231 1.326 . S
N1232 C1236 1.362 . S
C1233 C1234 1.258 . S
C1233 C1236 1.431 . S
C1233 C1253 1.449 . S
C1234 C1233 1.258 . S
C1234 C1235 1.477 . S
C1234 H1254 0.931 . S
C1235 C1231 1.460 . S
C1235 C1234 1.477 . S
C1235 H1255 0.930 . S
C1236 N1232 1.362 . S
C1236 C1233 1.431 . S
C1236 C1246 1.476 . S
H1237 C1231 0.929 . S
C1238 O1229 1.250 . S
C1238 O1230 1.258 . S
O1239 Mn1224 2.162 . S
O1239 C1227 1.281 . S
O1240 Mn1224 2.297 . S
O1240 C1227 1.236 . S
N1241 Mn1225 2.282 . S
N1241 C1242 1.328 . S
N1241 C1246 1.318 . S
C1242 N1241 1.328 . S
C1242 C1243 1.457 . S
C1242 H1247 0.929 . S
C1243 C1242 1.457 . S
C1243 C1244 1.291 . S
C1243 H1256 0.931 . S
C1244 C1243 1.291 . S
C1244 C1245 1.373 . S
C1244 H1257 0.929 . S
C1245 C1244 1.373 . S
C1245 C1246 1.396 . S
C1245 C1252 1.403 . S
C1246 C1236 1.476 . S
C1246 N1241 1.318 . S
C1246 C1245 1.396 . S
H1247 C1242 0.929 . S
O1248 Mn1224 2.385 . S
O1248 C1226 1.234 . S
O1249 Mn1224 2.209 . S
O1249 Mn1225 2.215 . S
O1249 C1226 1.283 . S
O1250 Mn1224 2.094 . S
O1250 C1228 1.240 . S
O1251 Mn1225 2.117 . S
O1251 C1228 1.264 . S
C1252 C1245 1.403 . S
C1252 C1253 1.399 . S
C1252 H1258 0.929 1_554 S
C1253 C1233 1.449 . S
C1253 C1252 1.399 . S
C1253 H1259 0.930 1_554 S
H1254 C1234 0.931 . S
H1255 C1235 0.930 . S
H1256 C1243 0.931 . S
H1257 C1244 0.929 . S
H1258 C1252 0.929 1_556 S
H1259 C1253 0.930 1_556 S
Mn1260 O1265 2.095 . S
Mn1260 O1275 2.162 . S
Mn1260 O1276 2.297 . S
Mn1260 O1284 2.385 . S
Mn1260 O1285 2.209 . S
Mn1260 O1286 2.094 . S
Mn1261 O1266 2.121 . S
Mn1261 N1268 2.257 . S
Mn1261 N1277 2.282 . S
Mn1261 O1285 2.215 . S
Mn1261 O1287 2.117 . S
C1262 O1284 1.234 . S
C1262 O1285 1.283 . S
C1263 O1275 1.281 . S
C1263 O1276 1.236 . S
C1264 O1286 1.240 . S
C1264 O1287 1.264 . S
O1265 Mn1260 2.095 . S
O1265 C1274 1.250 . S
O1266 Mn1261 2.121 . S
O1266 C1274 1.258 . S
C1267 N1268 1.326 . S
C1267 C1271 1.460 . S
C1267 H1273 0.929 . S
N1268 Mn1261 2.257 . S
N1268 C1267 1.326 . S
N1268 C1272 1.362 . S
C1269 C1270 1.258 . S
C1269 C1272 1.431 . S
C1269 C1289 1.449 . S
C1270 C1269 1.258 . S
C1270 C1271 1.477 . S
C1270 H1290 0.931 . S
C1271 C1267 1.460 . S
C1271 C1270 1.477 . S
C1271 H1291 0.930 . S
C1272 N1268 1.362 . S
C1272 C1269 1.431 . S
C1272 C1282 1.476 . S
H1273 C1267 0.929 . S
C1274 O1265 1.250 . S
C1274 O1266 1.258 . S
O1275 Mn1260 2.162 . S
O1275 C1263 1.281 . S
O1276 Mn1260 2.297 . S
O1276 C1263 1.236 . S
N1277 Mn1261 2.282 . S
N1277 C1278 1.328 . S
N1277 C1282 1.318 . S
C1278 N1277 1.328 . S
C1278 C1279 1.457 . S
C1278 H1283 0.929 . S
C1279 C1278 1.457 . S
C1279 C1280 1.291 . S
C1279 H1292 0.931 . S
C1280 C1279 1.291 . S
C1280 C1281 1.373 . S
C1280 H1293 0.929 . S
C1281 C1280 1.373 . S
C1281 C1282 1.396 . S
C1281 C1288 1.403 . S
C1282 C1272 1.476 . S
C1282 N1277 1.318 . S
C1282 C1281 1.396 . S
H1283 C1278 0.929 . S
O1284 Mn1260 2.385 . S
O1284 C1262 1.234 . S
O1285 Mn1260 2.209 . S
O1285 Mn1261 2.215 . S
O1285 C1262 1.283 . S
O1286 Mn1260 2.094 . S
O1286 C1264 1.240 . S
O1287 Mn1261 2.117 . S
O1287 C1264 1.264 . S
C1288 C1281 1.403 . S
C1288 C1289 1.399 . S
C1288 H1294 0.929 1_554 S
C1289 C1269 1.449 . S
C1289 C1288 1.399 . S
C1289 H1295 0.930 1_554 S
H1290 C1270 0.931 . S
H1291 C1271 0.930 . S
H1292 C1279 0.931 . S
H1293 C1280 0.929 . S
H1294 C1288 0.929 1_556 S
H1295 C1289 0.930 1_556 S
C1296 C1297 1.387 . S
C1296 H1300 0.950 . S
C1296 C1305 1.390 . S
C1297 C1296 1.387 . S
C1297 C1299 1.387 . S
H1298 C1305 0.950 . S
C1299 C1297 1.387 . S
C1299 C1301 1.390 . S
C1299 H1303 0.950 . S
H1300 C1296 0.950 . S
C1301 C1299 1.390 . S
C1301 C1302 1.387 . S
C1301 H1304 0.950 . S
C1302 C1301 1.387 . S
C1302 C1305 1.387 . S
H1303 C1299 0.950 . S
H1304 C1301 0.950 . S
C1305 C1296 1.390 . S
C1305 H1298 0.950 . S
C1305 C1302 1.387 . S
C1306 C1307 1.387 . S
C1306 H1310 0.950 . S
C1306 C1315 1.390 . S
C1307 C1306 1.387 . S
C1307 C1309 1.387 . S
H1308 C1315 0.950 . S
C1309 C1307 1.387 . S
C1309 C1311 1.390 . S
C1309 H1313 0.950 . S
H1310 C1306 0.950 . S
C1311 C1309 1.390 . S
C1311 C1312 1.387 . S
C1311 H1314 0.950 . S
C1312 C1311 1.387 . S
C1312 C1315 1.387 . S
H1313 C1309 0.950 . S
H1314 C1311 0.950 . S
C1315 C1306 1.390 . S
C1315 H1308 0.950 . S
C1315 C1312 1.387 . S
C1316 C1317 1.387 . S
C1316 H1320 0.950 . S
C1316 C1325 1.390 . S
C1317 C1316 1.387 . S
C1317 C1319 1.387 . S
H1318 C1325 0.950 . S
C1319 C1317 1.387 . S
C1319 C1321 1.390 . S
C1319 H1323 0.950 . S
H1320 C1316 0.950 . S
C1321 C1319 1.390 . S
C1321 C1322 1.387 . S
C1321 H1324 0.950 . S
C1322 C1321 1.387 . S
C1322 C1325 1.387 . S
H1323 C1319 0.950 . S
H1324 C1321 0.950 . S
C1325 C1316 1.390 . S
C1325 H1318 0.950 . S
C1325 C1322 1.387 . S
C1326 C1327 1.387 . S
C1326 H1330 0.950 . S
C1326 C1335 1.390 . S
C1327 C1326 1.387 . S
C1327 C1329 1.387 . S
H1328 C1335 0.950 . S
C1329 C1327 1.387 . S
C1329 C1331 1.390 . S
C1329 H1333 0.950 . S
H1330 C1326 0.950 . S
C1331 C1329 1.390 . S
C1331 C1332 1.387 . S
C1331 H1334 0.950 . S
C1332 C1331 1.387 . S
C1332 C1335 1.387 . S
H1333 C1329 0.950 . S
H1334 C1331 0.950 . S
C1335 C1326 1.390 . S
C1335 H1328 0.950 . S
C1335 C1332 1.387 . S
C1336 C1337 1.387 . S
C1336 H1340 0.950 . S
C1336 C1345 1.390 . S
C1337 C1336 1.387 . S
C1337 C1339 1.387 . S
H1338 C1345 0.950 . S
C1339 C1337 1.387 . S
C1339 C1341 1.390 . S
C1339 H1343 0.950 . S
H1340 C1336 0.950 . S
C1341 C1339 1.390 . S
C1341 C1342 1.387 . S
C1341 H1344 0.950 . S
C1342 C1341 1.387 . S
C1342 C1345 1.387 . S
H1343 C1339 0.950 . S
H1344 C1341 0.950 . S
C1345 C1336 1.390 . S
C1345 H1338 0.950 . S
C1345 C1342 1.387 . S
C1346 C1347 1.387 . S
C1346 H1350 0.950 . S
C1346 C1355 1.390 . S
C1347 C1346 1.387 . S
C1347 C1349 1.387 . S
H1348 C1355 0.950 . S
C1349 C1347 1.387 . S
C1349 C1351 1.390 . S
C1349 H1353 0.950 . S
H1350 C1346 0.950 . S
C1351 C1349 1.390 . S
C1351 C1352 1.387 . S
C1351 H1354 0.950 . S
C1352 C1351 1.387 . S
C1352 C1355 1.387 . S
H1353 C1349 0.950 . S
H1354 C1351 0.950 . S
C1355 C1346 1.390 . S
C1355 H1348 0.950 . S
C1355 C1352 1.387 . S
C1356 C1357 1.387 . S
C1356 H1360 0.950 . S
C1356 C1365 1.390 . S
C1357 C1356 1.387 . S
C1357 C1359 1.387 . S
H1358 C1365 0.950 . S
C1359 C1357 1.387 . S
C1359 C1361 1.390 . S
C1359 H1363 0.950 . S
H1360 C1356 0.950 . S
C1361 C1359 1.390 . S
C1361 C1362 1.387 . S
C1361 H1364 0.950 . S
C1362 C1361 1.387 . S
C1362 C1365 1.387 . S
H1363 C1359 0.950 . S
H1364 C1361 0.950 . S
C1365 C1356 1.390 . S
C1365 H1358 0.950 . S
C1365 C1362 1.387 . S
C1366 C1367 1.387 . S
C1366 H1370 0.950 . S
C1366 C1375 1.390 . S
C1367 C1366 1.387 . S
C1367 C1369 1.387 . S
H1368 C1375 0.950 . S
C1369 C1367 1.387 . S
C1369 C1371 1.390 . S
C1369 H1373 0.950 . S
H1370 C1366 0.950 . S
C1371 C1369 1.390 . S
C1371 C1372 1.387 . S
C1371 H1374 0.950 . S
C1372 C1371 1.387 . S
C1372 C1375 1.387 . S
H1373 C1369 0.950 . S
H1374 C1371 0.950 . S
C1375 C1366 1.390 . S
C1375 H1368 0.950 . S
C1375 C1372 1.387 . S
C1376 C1377 1.387 . S
C1376 H1380 0.950 . S
C1376 C1385 1.390 . S
C1377 C1376 1.387 . S
C1377 C1379 1.387 . S
H1378 C1385 0.950 . S
C1379 C1377 1.387 . S
C1379 C1381 1.390 . S
C1379 H1383 0.950 . S
H1380 C1376 0.950 . S
C1381 C1379 1.390 . S
C1381 C1382 1.387 . S
C1381 H1384 0.950 . S
C1382 C1381 1.387 . S
C1382 C1385 1.387 . S
H1383 C1379 0.950 . S
H1384 C1381 0.950 . S
C1385 C1376 1.390 . S
C1385 H1378 0.950 . S
C1385 C1382 1.387 . S
C1386 C1387 1.387 . S
C1386 H1390 0.950 . S
C1386 C1395 1.390 . S
C1387 C1386 1.387 . S
C1387 C1389 1.387 . S
H1388 C1395 0.950 . S
C1389 C1387 1.387 . S
C1389 C1391 1.390 . S
C1389 H1393 0.950 . S
H1390 C1386 0.950 . S
C1391 C1389 1.390 . S
C1391 C1392 1.387 . S
C1391 H1394 0.950 . S
C1392 C1391 1.387 . S
C1392 C1395 1.387 . S
H1393 C1389 0.950 . S
H1394 C1391 0.950 . S
C1395 C1386 1.390 . S
C1395 H1388 0.950 . S
C1395 C1392 1.387 . S
C1396 C1397 1.387 . S
C1396 H1400 0.950 . S
C1396 C1405 1.390 . S
C1397 C1396 1.387 . S
C1397 C1399 1.387 . S
H1398 C1405 0.950 . S
C1399 C1397 1.387 . S
C1399 C1401 1.390 . S
C1399 H1403 0.950 . S
H1400 C1396 0.950 . S
C1401 C1399 1.390 . S
C1401 C1402 1.387 . S
C1401 H1404 0.950 . S
C1402 C1401 1.387 . S
C1402 C1405 1.387 . S
H1403 C1399 0.950 . S
H1404 C1401 0.950 . S
C1405 C1396 1.390 . S
C1405 H1398 0.950 . S
C1405 C1402 1.387 . S
C1406 C1407 1.387 . S
C1406 H1410 0.950 . S
C1406 C1415 1.390 . S
C1407 C1406 1.387 . S
C1407 C1409 1.387 . S
H1408 C1415 0.950 . S
C1409 C1407 1.387 . S
C1409 C1411 1.390 . S
C1409 H1413 0.950 . S
H1410 C1406 0.950 . S
C1411 C1409 1.390 . S
C1411 C1412 1.387 . S
C1411 H1414 0.950 . S
C1412 C1411 1.387 . S
C1412 C1415 1.387 . S
H1413 C1409 0.950 . S
H1414 C1411 0.950 . S
C1415 C1406 1.390 . S
C1415 H1408 0.950 . S
C1415 C1412 1.387 . S
C1416 C1417 1.387 . S
C1416 H1420 0.950 . S
C1416 C1425 1.390 . S
C1417 C1416 1.387 . S
C1417 C1419 1.387 1_455 S
H1418 C1425 0.950 . S
C1419 C1417 1.387 1_655 S
C1419 C1421 1.390 . S
C1419 H1423 0.950 . S
H1420 C1416 0.950 . S
C1421 C1419 1.390 . S
C1421 C1422 1.387 . S
C1421 H1424 0.950 . S
C1422 C1421 1.387 . S
C1422 C1425 1.387 1_655 S
H1423 C1419 0.950 . S
H1424 C1421 0.950 . S
C1425 C1416 1.390 . S
C1425 H1418 0.950 . S
C1425 C1422 1.387 1_455 S
C1426 C1427 1.387 . S
C1426 H1430 0.950 . S
C1426 C1435 1.390 . S
C1427 C1426 1.387 . S
C1427 C1429 1.387 . S
H1428 C1435 0.950 . S
C1429 C1427 1.387 . S
C1429 C1431 1.390 . S
C1429 H1433 0.950 . S
H1430 C1426 0.950 . S
C1431 C1429 1.390 . S
C1431 C1432 1.387 . S
C1431 H1434 0.950 . S
C1432 C1431 1.387 . S
C1432 C1435 1.387 . S
H1433 C1429 0.950 . S
H1434 C1431 0.950 . S
C1435 C1426 1.390 . S
C1435 H1428 0.950 . S
C1435 C1432 1.387 . S
C1436 C1437 1.387 . S
C1436 H1440 0.950 . S
C1436 C1445 1.390 1_565 S
C1437 C1436 1.387 . S
C1437 C1439 1.387 . S
H1438 C1445 0.950 . S
C1439 C1437 1.387 . S
C1439 C1441 1.390 1_565 S
C1439 H1443 0.950 . S
H1440 C1436 0.950 . S
C1441 C1439 1.390 1_545 S
C1441 C1442 1.387 . S
C1441 H1444 0.950 . S
C1442 C1441 1.387 . S
C1442 C1445 1.387 . S
H1443 C1439 0.950 . S
H1444 C1441 0.950 . S
C1445 C1436 1.390 1_545 S
C1445 H1438 0.950 . S
C1445 C1442 1.387 . S
C1446 C1447 1.387 . S
C1446 H1450 0.950 . S
C1446 C1455 1.390 1_565 S
C1447 C1446 1.387 . S
C1447 C1449 1.387 . S
H1448 C1455 0.950 . S
C1449 C1447 1.387 . S
C1449 C1451 1.390 1_565 S
C1449 H1453 0.950 . S
H1450 C1446 0.950 . S
C1451 C1449 1.390 1_545 S
C1451 C1452 1.387 . S
C1451 H1454 0.950 . S
C1452 C1451 1.387 . S
C1452 C1455 1.387 . S
H1453 C1449 0.950 . S
H1454 C1451 0.950 . S
C1455 C1446 1.390 1_545 S
C1455 H1448 0.950 . S
C1455 C1452 1.387 . S
C1456 C1457 1.387 . S
C1456 H1460 0.950 . S
C1456 C1465 1.390 . S
C1457 C1456 1.387 . S
C1457 C1459 1.387 1_455 S
H1458 C1465 0.950 . S
C1459 C1457 1.387 1_655 S
C1459 C1461 1.390 . S
C1459 H1463 0.950 . S
H1460 C1456 0.950 . S
C1461 C1459 1.390 . S
C1461 C1462 1.387 . S
C1461 H1464 0.950 . S
C1462 C1461 1.387 . S
C1462 C1465 1.387 1_655 S
H1463 C1459 0.950 . S
H1464 C1461 0.950 . S
C1465 C1456 1.390 . S
C1465 H1458 0.950 . S
C1465 C1462 1.387 1_455 S
C1466 C1467 1.387 . S
C1466 H1470 0.950 . S
C1466 C1475 1.390 . S
C1467 C1466 1.387 . S
C1467 C1469 1.387 . S
H1468 C1475 0.950 . S
C1469 C1467 1.387 . S
C1469 C1471 1.390 . S
C1469 H1473 0.950 . S
H1470 C1466 0.950 . S
C1471 C1469 1.390 . S
C1471 C1472 1.387 . S
C1471 H1474 0.950 . S
C1472 C1471 1.387 . S
C1472 C1475 1.387 . S
H1473 C1469 0.950 . S
H1474 C1471 0.950 . S
C1475 C1466 1.390 . S
C1475 H1468 0.950 . S
C1475 C1472 1.387 . S
C1476 C1477 1.387 . S
C1476 H1480 0.950 . S
C1476 C1485 1.390 . S
C1477 C1476 1.387 . S
C1477 C1479 1.387 1_556 S
H1478 C1485 0.950 . S
C1479 C1477 1.387 1_554 S
C1479 C1481 1.390 . S
C1479 H1483 0.950 . S
H1480 C1476 0.950 . S
C1481 C1479 1.390 . S
C1481 C1482 1.387 . S
C1481 H1484 0.950 . S
C1482 C1481 1.387 . S
C1482 C1485 1.387 1_554 S
H1483 C1479 0.950 . S
H1484 C1481 0.950 . S
C1485 C1476 1.390 . S
C1485 H1478 0.950 . S
C1485 C1482 1.387 1_556 S
C1486 C1487 1.387 . S
C1486 H1490 0.950 . S
C1486 C1495 1.390 . S
C1487 C1486 1.387 . S
C1487 C1489 1.387 1_556 S
H1488 C1495 0.950 . S
C1489 C1487 1.387 1_554 S
C1489 C1491 1.390 . S
C1489 H1493 0.950 . S
H1490 C1486 0.950 . S
C1491 C1489 1.390 . S
C1491 C1492 1.387 . S
C1491 H1494 0.950 . S
C1492 C1491 1.387 . S
C1492 C1495 1.387 1_554 S
H1493 C1489 0.950 . S
H1494 C1491 0.950 . S
C1495 C1486 1.390 . S
C1495 H1488 0.950 . S
C1495 C1492 1.387 1_556 S
C1496 C1497 1.390 . S
C1496 H1500 0.955 . S
C1496 C1505 1.383 1_556 S
C1497 C1496 1.390 . S
C1497 C1499 1.387 1_556 S
H1498 C1505 0.950 . S
C1499 C1497 1.387 1_554 S
C1499 C1501 1.390 . S
C1499 H1503 0.950 . S
H1500 C1496 0.955 . S
C1501 C1499 1.390 . S
C1501 C1502 1.387 . S
C1501 H1504 0.950 . S
C1502 C1501 1.387 . S
C1502 C1505 1.387 . S
H1503 C1499 0.950 . S
H1504 C1501 0.950 . S
C1505 C1496 1.383 1_554 S
C1505 H1498 0.950 . S
C1505 C1502 1.387 . S
C1506 C1507 1.387 . S
C1506 H1510 0.950 . S
C1506 C1515 1.390 . S
C1507 C1506 1.387 . S
C1507 C1509 1.387 . S
H1508 C1515 0.950 . S
C1509 C1507 1.387 . S
C1509 C1511 1.390 . S
C1509 H1513 0.950 . S
H1510 C1506 0.950 . S
C1511 C1509 1.390 . S
C1511 C1512 1.387 . S
C1511 H1514 0.950 . S
C1512 C1511 1.387 . S
C1512 C1515 1.387 . S
H1513 C1509 0.950 . S
H1514 C1511 0.950 . S
C1515 C1506 1.390 . S
C1515 H1508 0.950 . S
C1515 C1512 1.387 . S
C1516 C1517 1.387 . S
C1516 H1520 0.950 . S
C1516 C1525 1.390 . S
C1517 C1516 1.387 . S
C1517 C1519 1.387 . S
H1518 C1525 0.950 . S
C1519 C1517 1.387 . S
C1519 C1521 1.390 . S
C1519 H1523 0.950 . S
H1520 C1516 0.950 . S
C1521 C1519 1.390 . S
C1521 C1522 1.387 . S
C1521 H1524 0.950 . S
C1522 C1521 1.387 . S
C1522 C1525 1.387 . S
H1523 C1519 0.950 . S
H1524 C1521 0.950 . S
C1525 C1516 1.390 . S
C1525 H1518 0.950 . S
C1525 C1522 1.387 . S
C1526 C1527 1.387 . S
C1526 H1530 0.950 . S
C1526 C1535 1.390 . S
C1527 C1526 1.387 . S
C1527 C1529 1.387 . S
H1528 C1535 0.950 . S
C1529 C1527 1.387 . S
C1529 C1531 1.390 . S
C1529 H1533 0.950 . S
H1530 C1526 0.950 . S
C1531 C1529 1.390 . S
C1531 C1532 1.387 . S
C1531 H1534 0.950 . S
C1532 C1531 1.387 . S
C1532 C1535 1.387 . S
H1533 C1529 0.950 . S
H1534 C1531 0.950 . S
C1535 C1526 1.390 . S
C1535 H1528 0.950 . S
C1535 C1532 1.387 . S
C1536 C1537 1.387 . S
C1536 H1540 0.950 . S
C1536 C1545 1.390 . S
C1537 C1536 1.387 . S
C1537 C1539 1.387 1_554 S
H1538 C1545 0.950 . S
C1539 C1537 1.387 1_556 S
C1539 C1541 1.390 . S
C1539 H1543 0.950 . S
H1540 C1536 0.950 . S
C1541 C1539 1.390 . S
C1541 C1542 1.387 . S
C1541 H1544 0.950 . S
C1542 C1541 1.387 . S
C1542 C1545 1.387 1_556 S
H1543 C1539 0.950 . S
H1544 C1541 0.950 . S
C1545 C1536 1.390 . S
C1545 H1538 0.950 . S
C1545 C1542 1.387 1_554 S
C1546 C1547 1.387 1_554 S
C1546 H1550 0.950 . S
C1546 C1555 1.390 . S
C1547 C1546 1.387 1_556 S
C1547 C1549 1.387 . S
H1548 C1555 0.950 . S
C1549 C1547 1.387 . S
C1549 C1551 1.390 . S
C1549 H1553 0.950 . S
H1550 C1546 0.950 . S
C1551 C1549 1.390 . S
C1551 C1552 1.387 1_556 S
C1551 H1554 0.950 . S
C1552 C1551 1.387 1_554 S
C1552 C1555 1.387 . S
H1553 C1549 0.950 . S
H1554 C1551 0.950 . S
C1555 C1546 1.390 . S
C1555 H1548 0.950 . S
C1555 C1552 1.387 . S
C1556 C1557 1.387 . S
C1556 H1560 0.950 . S
C1556 C1565 1.390 1_554 S
C1557 C1556 1.387 . S
C1557 C1559 1.387 1_554 S
H1558 C1565 0.950 . S
C1559 C1557 1.387 1_556 S
C1559 C1561 1.390 . S
C1559 H1563 0.950 . S
H1560 C1556 0.950 . S
C1561 C1559 1.390 . S
C1561 C1562 1.387 . S
C1561 H1564 0.950 . S
C1562 C1561 1.387 . S
C1562 C1565 1.387 . S
H1563 C1559 0.950 . S
H1564 C1561 0.950 . S
C1565 C1556 1.390 1_556 S
C1565 H1558 0.950 . S
C1565 C1562 1.387 . S
C1566 C1567 1.387 . S
C1566 H1570 0.950 . S
C1566 C1575 1.390 . S
C1567 C1566 1.387 . S
C1567 C1569 1.387 . S
H1568 C1575 0.950 . S
C1569 C1567 1.387 . S
C1569 C1571 1.390 . S
C1569 H1573 0.950 . S
H1570 C1566 0.950 . S
C1571 C1569 1.390 . S
C1571 C1572 1.387 . S
C1571 H1574 0.950 . S
C1572 C1571 1.387 . S
C1572 C1575 1.387 . S
H1573 C1569 0.950 . S
H1574 C1571 0.950 . S
C1575 C1566 1.390 . S
C1575 H1568 0.950 . S
C1575 C1572 1.387 . S
C1576 C1577 1.387 . S
C1576 H1580 0.950 . S
C1576 C1585 1.390 . S
C1577 C1576 1.387 . S
C1577 C1579 1.387 . S
H1578 C1585 0.950 . S
C1579 C1577 1.387 . S
C1579 C1581 1.390 . S
C1579 H1583 0.950 . S
H1580 C1576 0.950 . S
C1581 C1579 1.390 . S
C1581 C1582 1.387 . S
C1581 H1584 0.950 . S
C1582 C1581 1.387 . S
C1582 C1585 1.387 . S
H1583 C1579 0.950 . S
H1584 C1581 0.950 . S
C1585 C1576 1.390 . S
C1585 H1578 0.950 . S
C1585 C1582 1.387 . S
C1586 C1587 1.387 . S
C1586 H1590 0.950 . S
C1586 C1595 1.390 . S
C1587 C1586 1.387 . S
C1587 C1589 1.387 . S
H1588 C1595 0.950 . S
C1589 C1587 1.387 . S
C1589 C1591 1.390 . S
C1589 H1593 0.950 . S
H1590 C1586 0.950 . S
C1591 C1589 1.390 . S
C1591 C1592 1.387 . S
C1591 H1594 0.950 . S
C1592 C1591 1.387 . S
C1592 C1595 1.387 . S
H1593 C1589 0.950 . S
H1594 C1591 0.950 . S
C1595 C1586 1.390 . S
C1595 H1588 0.950 . S
C1595 C1592 1.387 . S
C1596 C1597 1.387 . S
C1596 H1600 0.950 . S
C1596 C1605 1.390 . S
C1597 C1596 1.387 . S
C1597 C1599 1.387 . S
H1598 C1605 0.950 . S
C1599 C1597 1.387 . S
C1599 C1601 1.390 . S
C1599 H1603 0.950 . S
H1600 C1596 0.950 . S
C1601 C1599 1.390 . S
C1601 C1602 1.387 . S
C1601 H1604 0.950 . S
C1602 C1601 1.387 . S
C1602 C1605 1.387 . S
H1603 C1599 0.950 . S
H1604 C1601 0.950 . S
C1605 C1596 1.390 . S
C1605 H1598 0.950 . S
C1605 C1602 1.387 . S
C1606 C1607 1.387 . S
C1606 H1610 0.950 . S
C1606 C1615 1.390 . S
C1607 C1606 1.387 . S
C1607 C1609 1.387 . S
H1608 C1615 0.950 . S
C1609 C1607 1.387 . S
C1609 C1611 1.390 . S
C1609 H1613 0.950 . S
H1610 C1606 0.950 . S
C1611 C1609 1.390 . S
C1611 C1612 1.387 . S
C1611 H1614 0.950 . S
C1612 C1611 1.387 . S
C1612 C1615 1.387 . S
H1613 C1609 0.950 . S
H1614 C1611 0.950 . S
C1615 C1606 1.390 . S
C1615 H1608 0.950 . S
C1615 C1612 1.387 . S
C1616 C1617 1.387 . S
C1616 H1620 0.950 . S
C1616 C1625 1.390 . S
C1617 C1616 1.387 . S
C1617 C1619 1.387 . S
H1618 C1625 0.950 . S
C1619 C1617 1.387 . S
C1619 C1621 1.390 . S
C1619 H1623 0.950 . S
H1620 C1616 0.950 . S
C1621 C1619 1.390 . S
C1621 C1622 1.387 . S
C1621 H1624 0.950 . S
C1622 C1621 1.387 . S
C1622 C1625 1.387 . S
H1623 C1619 0.950 . S
H1624 C1621 0.950 . S
C1625 C1616 1.390 . S
C1625 H1618 0.950 . S
C1625 C1622 1.387 . S
C1626 C1627 1.387 . S
C1626 H1630 0.950 . S
C1626 C1635 1.390 . S
C1627 C1626 1.387 . S
C1627 C1629 1.387 . S
H1628 C1635 0.950 . S
C1629 C1627 1.387 . S
C1629 C1631 1.390 . S
C1629 H1633 0.950 . S
H1630 C1626 0.950 . S
C1631 C1629 1.390 . S
C1631 C1632 1.387 . S
C1631 H1634 0.950 . S
C1632 C1631 1.387 . S
C1632 C1635 1.387 . S
H1633 C1629 0.950 . S
H1634 C1631 0.950 . S
C1635 C1626 1.390 . S
C1635 H1628 0.950 . S
C1635 C1632 1.387 . S
C1636 C1637 1.387 . S
C1636 H1640 0.950 . S
C1636 C1645 1.390 . S
C1637 C1636 1.387 . S
C1637 C1639 1.387 . S
H1638 C1645 0.950 . S
C1639 C1637 1.387 . S
C1639 C1641 1.390 . S
C1639 H1643 0.950 . S
H1640 C1636 0.950 . S
C1641 C1639 1.390 . S
C1641 C1642 1.387 . S
C1641 H1644 0.950 . S
C1642 C1641 1.387 . S
C1642 C1645 1.387 . S
H1643 C1639 0.950 . S
H1644 C1641 0.950 . S
C1645 C1636 1.390 . S
C1645 H1638 0.950 . S
C1645 C1642 1.387 . S
C1646 C1647 1.387 . S
C1646 H1650 0.950 . S
C1646 C1655 1.390 . S
C1647 C1646 1.387 . S
C1647 C1649 1.387 . S
H1648 C1655 0.950 . S
C1649 C1647 1.387 . S
C1649 C1651 1.390 . S
C1649 H1653 0.950 . S
H1650 C1646 0.950 . S
C1651 C1649 1.390 . S
C1651 C1652 1.387 . S
C1651 H1654 0.950 . S
C1652 C1651 1.387 . S
C1652 C1655 1.387 . S
H1653 C1649 0.950 . S
H1654 C1651 0.950 . S
C1655 C1646 1.390 . S
C1655 H1648 0.950 . S
C1655 C1652 1.387 . S
C1656 C1657 1.387 . S
C1656 H1660 0.950 . S
C1656 C1665 1.390 . S
C1657 C1656 1.387 . S
C1657 C1659 1.387 . S
H1658 C1665 0.950 . S
C1659 C1657 1.387 . S
C1659 C1661 1.390 . S
C1659 H1663 0.950 . S
H1660 C1656 0.950 . S
C1661 C1659 1.390 . S
C1661 C1662 1.387 . S
C1661 H1664 0.950 . S
C1662 C1661 1.387 . S
C1662 C1665 1.387 . S
H1663 C1659 0.950 . S
H1664 C1661 0.950 . S
C1665 C1656 1.390 . S
C1665 H1658 0.950 . S
C1665 C1662 1.387 . S
C1666 C1667 1.387 . S
C1666 H1670 0.950 . S
C1666 C1675 1.390 . S
C1667 C1666 1.387 . S
C1667 C1669 1.387 . S
H1668 C1675 0.950 . S
C1669 C1667 1.387 . S
C1669 C1671 1.390 . S
C1669 H1673 0.950 . S
H1670 C1666 0.950 . S
C1671 C1669 1.390 . S
C1671 C1672 1.387 . S
C1671 H1674 0.950 . S
C1672 C1671 1.387 . S
C1672 C1675 1.387 . S
H1673 C1669 0.950 . S
H1674 C1671 0.950 . S
C1675 C1666 1.390 . S
C1675 H1668 0.950 . S
C1675 C1672 1.387 . S
C1676 C1677 1.387 . S
C1676 H1680 0.950 . S
C1676 C1685 1.390 . S
C1677 C1676 1.387 . S
C1677 C1679 1.387 . S
H1678 C1685 0.950 . S
C1679 C1677 1.387 . S
C1679 C1681 1.390 . S
C1679 H1683 0.950 . S
H1680 C1676 0.950 . S
C1681 C1679 1.390 . S
C1681 C1682 1.387 . S
C1681 H1684 0.950 . S
C1682 C1681 1.387 . S
C1682 C1685 1.387 . S
H1683 C1679 0.950 . S
H1684 C1681 0.950 . S
C1685 C1676 1.390 . S
C1685 H1678 0.950 . S
C1685 C1682 1.387 . S
C1686 C1687 1.387 . S
C1686 H1690 0.950 . S
C1686 C1695 1.390 . S
C1687 C1686 1.387 . S
C1687 C1689 1.387 . S
H1688 C1695 0.950 . S
C1689 C1687 1.387 . S
C1689 C1691 1.390 . S
C1689 H1693 0.950 . S
H1690 C1686 0.950 . S
C1691 C1689 1.390 . S
C1691 C1692 1.387 . S
C1691 H1694 0.950 . S
C1692 C1691 1.387 . S
C1692 C1695 1.387 . S
H1693 C1689 0.950 . S
H1694 C1691 0.950 . S
C1695 C1686 1.390 . S
C1695 H1688 0.950 . S
C1695 C1692 1.387 . S
C1696 C1697 1.387 . S
C1696 H1700 0.950 . S
C1696 C1705 1.390 . S
C1697 C1696 1.387 . S
C1697 C1699 1.387 . S
H1698 C1705 0.950 . S
C1699 C1697 1.387 . S
C1699 C1701 1.390 . S
C1699 H1703 0.950 . S
H1700 C1696 0.950 . S
C1701 C1699 1.390 . S
C1701 C1702 1.387 . S
C1701 H1704 0.950 . S
C1702 C1701 1.387 . S
C1702 C1705 1.387 . S
H1703 C1699 0.950 . S
H1704 C1701 0.950 . S
C1705 C1696 1.390 . S
C1705 H1698 0.950 . S
C1705 C1702 1.387 . S
C1706 C1707 1.387 . S
C1706 H1710 0.950 . S
C1706 C1715 1.390 . S
C1707 C1706 1.387 . S
C1707 C1709 1.387 . S
H1708 C1715 0.950 . S
C1709 C1707 1.387 . S
C1709 C1711 1.390 . S
C1709 H1713 0.950 . S
H1710 C1706 0.950 . S
C1711 C1709 1.390 . S
C1711 C1712 1.387 . S
C1711 H1714 0.950 . S
C1712 C1711 1.387 . S
C1712 C1715 1.387 . S
H1713 C1709 0.950 . S
H1714 C1711 0.950 . S
C1715 C1706 1.390 . S
C1715 H1708 0.950 . S
C1715 C1712 1.387 . S
C1716 C1717 1.387 . S
C1716 H1720 0.950 . S
C1716 C1725 1.390 . S
C1717 C1716 1.387 . S
C1717 C1719 1.387 . S
H1718 C1725 0.950 . S
C1719 C1717 1.387 . S
C1719 C1721 1.390 . S
C1719 H1723 0.950 . S
H1720 C1716 0.950 . S
C1721 C1719 1.390 . S
C1721 C1722 1.387 . S
C1721 H1724 0.950 . S
C1722 C1721 1.387 . S
C1722 C1725 1.387 . S
H1723 C1719 0.950 . S
H1724 C1721 0.950 . S
C1725 C1716 1.390 . S
C1725 H1718 0.950 . S
C1725 C1722 1.387 . S
C1726 C1727 1.387 . S
C1726 H1730 0.950 . S
C1726 C1735 1.390 . S
C1727 C1726 1.387 . S
C1727 C1729 1.387 . S
H1728 C1735 0.950 . S
C1729 C1727 1.387 . S
C1729 C1731 1.390 . S
C1729 H1733 0.950 . S
H1730 C1726 0.950 . S
C1731 C1729 1.390 . S
C1731 C1732 1.387 . S
C1731 H1734 0.950 . S
C1732 C1731 1.387 . S
C1732 C1735 1.387 . S
H1733 C1729 0.950 . S
H1734 C1731 0.950 . S
C1735 C1726 1.390 . S
C1735 H1728 0.950 . S
C1735 C1732 1.387 . S
C1736 C1737 1.387 . S
C1736 H1740 0.950 . S
C1736 C1745 1.390 . S
C1737 C1736 1.387 . S
C1737 C1739 1.387 . S
H1738 C1745 0.950 . S
C1739 C1737 1.387 . S
C1739 C1741 1.390 . S
C1739 H1743 0.950 . S
H1740 C1736 0.950 . S
C1741 C1739 1.390 . S
C1741 C1742 1.387 . S
C1741 H1744 0.950 . S
C1742 C1741 1.387 . S
C1742 C1745 1.387 . S
H1743 C1739 0.950 . S
H1744 C1741 0.950 . S
C1745 C1736 1.390 . S
C1745 H1738 0.950 . S
C1745 C1742 1.387 . S
C1746 C1747 1.387 . S
C1746 H1750 0.950 . S
C1746 C1755 1.390 . S
C1747 C1746 1.387 . S
C1747 C1749 1.387 . S
H1748 C1755 0.950 . S
C1749 C1747 1.387 . S
C1749 C1751 1.390 . S
C1749 H1753 0.950 . S
H1750 C1746 0.950 . S
C1751 C1749 1.390 . S
C1751 C1752 1.387 . S
C1751 H1754 0.950 . S
C1752 C1751 1.387 . S
C1752 C1755 1.387 . S
H1753 C1749 0.950 . S
H1754 C1751 0.950 . S
C1755 C1746 1.390 . S
C1755 H1748 0.950 . S
C1755 C1752 1.387 . S
C1756 C1757 1.387 . S
C1756 H1760 0.950 . S
C1756 C1765 1.390 . S
C1757 C1756 1.387 . S
C1757 C1759 1.387 . S
H1758 C1765 0.950 . S
C1759 C1757 1.387 . S
C1759 C1761 1.390 . S
C1759 H1763 0.950 . S
H1760 C1756 0.950 . S
C1761 C1759 1.390 . S
C1761 C1762 1.387 . S
C1761 H1764 0.950 . S
C1762 C1761 1.387 . S
C1762 C1765 1.387 . S
H1763 C1759 0.950 . S
H1764 C1761 0.950 . S
C1765 C1756 1.390 . S
C1765 H1758 0.950 . S
C1765 C1762 1.387 . S
C1766 C1767 1.387 . S
C1766 H1770 0.950 . S
C1766 C1775 1.390 . S
C1767 C1766 1.387 . S
C1767 C1769 1.387 . S
H1768 C1775 0.950 . S
C1769 C1767 1.387 . S
C1769 C1771 1.390 . S
C1769 H1773 0.950 . S
H1770 C1766 0.950 . S
C1771 C1769 1.390 . S
C1771 C1772 1.387 . S
C1771 H1774 0.950 . S
C1772 C1771 1.387 . S
C1772 C1775 1.387 . S
H1773 C1769 0.950 . S
H1774 C1771 0.950 . S
C1775 C1766 1.390 . S
C1775 H1768 0.950 . S
C1775 C1772 1.387 . S
C1776 C1777 1.387 . S
C1776 H1780 0.950 . S
C1776 C1785 1.390 . S
C1777 C1776 1.387 . S
C1777 C1779 1.387 . S
H1778 C1785 0.950 . S
C1779 C1777 1.387 . S
C1779 C1781 1.390 . S
C1779 H1783 0.950 . S
H1780 C1776 0.950 . S
C1781 C1779 1.390 . S
C1781 C1782 1.387 . S
C1781 H1784 0.950 . S
C1782 C1781 1.387 . S
C1782 C1785 1.387 . S
H1783 C1779 0.950 . S
H1784 C1781 0.950 . S
C1785 C1776 1.390 . S
C1785 H1778 0.950 . S
C1785 C1782 1.387 . S
C1786 C1787 1.387 . S
C1786 H1790 0.950 . S
C1786 C1795 1.390 . S
C1787 C1786 1.387 . S
C1787 C1789 1.387 . S
H1788 C1795 0.950 . S
C1789 C1787 1.387 . S
C1789 C1791 1.390 . S
C1789 H1793 0.950 . S
H1790 C1786 0.950 . S
C1791 C1789 1.390 . S
C1791 C1792 1.387 . S
C1791 H1794 0.950 . S
C1792 C1791 1.387 . S
C1792 C1795 1.387 . S
H1793 C1789 0.950 . S
H1794 C1791 0.950 . S
C1795 C1786 1.390 . S
C1795 H1788 0.950 . S
C1795 C1792 1.387 . S
C1796 C1797 1.387 . S
C1796 H1800 0.950 . S
C1796 C1805 1.390 . S
C1797 C1796 1.387 . S
C1797 C1799 1.387 . S
H1798 C1805 0.950 . S
C1799 C1797 1.387 . S
C1799 C1801 1.390 . S
C1799 H1803 0.950 . S
H1800 C1796 0.950 . S
C1801 C1799 1.390 . S
C1801 C1802 1.387 . S
C1801 H1804 0.950 . S
C1802 C1801 1.387 . S
C1802 C1805 1.387 . S
H1803 C1799 0.950 . S
H1804 C1801 0.950 . S
C1805 C1796 1.390 . S
C1805 H1798 0.950 . S
C1805 C1802 1.387 . S
C1806 C1807 1.387 . S
C1806 H1810 0.950 . S
C1806 C1815 1.390 . S
C1807 C1806 1.387 . S
C1807 C1809 1.387 . S
H1808 C1815 0.950 . S
C1809 C1807 1.387 . S
C1809 C1811 1.390 . S
C1809 H1813 0.950 . S
H1810 C1806 0.950 . S
C1811 C1809 1.390 . S
C1811 C1812 1.387 . S
C1811 H1814 0.950 . S
C1812 C1811 1.387 . S
C1812 C1815 1.387 . S
H1813 C1809 0.950 . S
H1814 C1811 0.950 . S
C1815 C1806 1.390 . S
C1815 H1808 0.950 . S
C1815 C1812 1.387 . S
C1816 C1817 1.387 . S
C1816 H1820 0.950 . S
C1816 C1825 1.390 . S
C1817 C1816 1.387 . S
C1817 C1819 1.387 . S
H1818 C1825 0.950 . S
C1819 C1817 1.387 . S
C1819 C1821 1.390 . S
C1819 H1823 0.950 . S
H1820 C1816 0.950 . S
C1821 C1819 1.390 . S
C1821 C1822 1.387 . S
C1821 H1824 0.950 . S
C1822 C1821 1.387 . S
C1822 C1825 1.387 . S
H1823 C1819 0.950 . S
H1824 C1821 0.950 . S
C1825 C1816 1.390 . S
C1825 H1818 0.950 . S
C1825 C1822 1.387 . S
C1826 C1827 1.387 . S
C1826 H1830 0.950 . S
C1826 C1835 1.390 . S
C1827 C1826 1.387 . S
C1827 C1829 1.387 . S
H1828 C1835 0.950 . S
C1829 C1827 1.387 . S
C1829 C1831 1.390 . S
C1829 H1833 0.950 . S
H1830 C1826 0.950 . S
C1831 C1829 1.390 . S
C1831 C1832 1.387 . S
C1831 H1834 0.950 . S
C1832 C1831 1.387 . S
C1832 C1835 1.387 . S
H1833 C1829 0.950 . S
H1834 C1831 0.950 . S
C1835 C1826 1.390 . S
C1835 H1828 0.950 . S
C1835 C1832 1.387 . S
C1836 C1837 1.387 . S
C1836 H1840 0.950 . S
C1836 C1845 1.390 . S
C1837 C1836 1.387 . S
C1837 C1839 1.387 . S
H1838 C1845 0.950 . S
C1839 C1837 1.387 . S
C1839 C1841 1.390 . S
C1839 H1843 0.950 . S
H1840 C1836 0.950 . S
C1841 C1839 1.390 . S
C1841 C1842 1.387 . S
C1841 H1844 0.950 . S
C1842 C1841 1.387 . S
C1842 C1845 1.387 . S
H1843 C1839 0.950 . S
H1844 C1841 0.950 . S
C1845 C1836 1.390 . S
C1845 H1838 0.950 . S
C1845 C1842 1.387 . S
C1846 C1847 1.387 . S
C1846 H1850 0.950 . S
C1846 C1855 1.390 1_545 S
C1847 C1846 1.387 . S
C1847 C1849 1.387 . S
H1848 C1855 0.950 . S
C1849 C1847 1.387 . S
C1849 C1851 1.390 1_545 S
C1849 H1853 0.950 . S
H1850 C1846 0.950 . S
C1851 C1849 1.390 1_565 S
C1851 C1852 1.387 . S
C1851 H1854 0.950 . S
C1852 C1851 1.387 . S
C1852 C1855 1.387 . S
H1853 C1849 0.950 . S
H1854 C1851 0.950 . S
C1855 C1846 1.390 1_565 S
C1855 H1848 0.950 . S
C1855 C1852 1.387 . S
C1856 C1857 1.387 1_655 S
C1856 H1860 0.950 . S
C1856 C1865 1.390 . S
C1857 C1856 1.387 1_455 S
C1857 C1859 1.387 . S
H1858 C1865 0.950 . S
C1859 C1857 1.387 . S
C1859 C1861 1.390 . S
C1859 H1863 0.950 . S
H1860 C1856 0.950 . S
C1861 C1859 1.390 . S
C1861 C1862 1.387 1_455 S
C1861 H1864 0.950 . S
C1862 C1861 1.387 1_655 S
C1862 C1865 1.387 . S
H1863 C1859 0.950 . S
H1864 C1861 0.950 . S
C1865 C1856 1.390 . S
C1865 H1858 0.950 . S
C1865 C1862 1.387 . S
C1866 C1867 1.387 . S
C1866 H1870 0.950 . S
C1866 C1875 1.390 . S
C1867 C1866 1.387 . S
C1867 C1869 1.387 . S
H1868 C1875 0.950 . S
C1869 C1867 1.387 . S
C1869 C1871 1.390 . S
C1869 H1873 0.950 . S
H1870 C1866 0.950 . S
C1871 C1869 1.390 . S
C1871 C1872 1.387 . S
C1871 H1874 0.950 . S
C1872 C1871 1.387 . S
C1872 C1875 1.387 . S
H1873 C1869 0.950 . S
H1874 C1871 0.950 . S
C1875 C1866 1.390 . S
C1875 H1868 0.950 . S
C1875 C1872 1.387 . S
C1876 C1877 1.387 . S
C1876 H1880 0.950 . S
C1876 C1885 1.390 1_545 S
C1877 C1876 1.387 . S
C1877 C1879 1.387 . S
H1878 C1885 0.950 . S
C1879 C1877 1.387 . S
C1879 C1881 1.390 1_545 S
C1879 H1883 0.950 . S
H1880 C1876 0.950 . S
C1881 C1879 1.390 1_565 S
C1881 C1882 1.387 . S
C1881 H1884 0.950 . S
C1882 C1881 1.387 . S
C1882 C1885 1.387 . S
H1883 C1879 0.950 . S
H1884 C1881 0.950 . S
C1885 C1876 1.390 1_565 S
C1885 H1878 0.950 . S
C1885 C1882 1.387 . S
C1886 C1887 1.387 . S
C1886 H1890 0.950 . S
C1886 C1895 1.390 . S
C1887 C1886 1.387 . S
C1887 C1889 1.387 1_655 S
H1888 C1895 0.950 . S
C1889 C1887 1.387 1_455 S
C1889 C1891 1.390 . S
C1889 H1893 0.950 . S
H1890 C1886 0.950 . S
C1891 C1889 1.390 . S
C1891 C1892 1.387 . S
C1891 H1894 0.950 . S
C1892 C1891 1.387 . S
C1892 C1895 1.387 1_455 S
H1893 C1889 0.950 . S
H1894 C1891 0.950 . S
C1895 C1886 1.390 . S
C1895 H1888 0.950 . S
C1895 C1892 1.387 1_655 S
C1896 C1897 1.387 . S
C1896 H1900 0.950 . S
C1896 C1905 1.390 . S
C1897 C1896 1.387 . S
C1897 C1899 1.387 . S
H1898 C1905 0.950 . S
C1899 C1897 1.387 . S
C1899 C1901 1.390 . S
C1899 H1903 0.950 . S
H1900 C1896 0.950 . S
C1901 C1899 1.390 . S
C1901 C1902 1.387 . S
C1901 H1904 0.950 . S
C1902 C1901 1.387 . S
C1902 C1905 1.387 . S
H1903 C1899 0.950 . S
H1904 C1901 0.950 . S
C1905 C1896 1.390 . S
C1905 H1898 0.950 . S
C1905 C1902 1.387 . S
C1906 C1907 1.387 . S
C1906 H1910 0.950 . S
C1906 C1915 1.390 . S
C1907 C1906 1.387 . S
C1907 C1909 1.387 . S
H1908 C1915 0.950 . S
C1909 C1907 1.387 . S
C1909 C1911 1.390 . S
C1909 H1913 0.950 . S
H1910 C1906 0.950 . S
C1911 C1909 1.390 . S
C1911 C1912 1.387 . S
C1911 H1914 0.950 . S
C1912 C1911 1.387 . S
C1912 C1915 1.387 . S
H1913 C1909 0.950 . S
H1914 C1911 0.950 . S
C1915 C1906 1.390 . S
C1915 H1908 0.950 . S
C1915 C1912 1.387 . S
C1916 C1917 1.387 . S
C1916 H1920 0.950 . S
C1916 C1925 1.390 . S
C1917 C1916 1.387 . S
C1917 C1919 1.387 . S
H1918 C1925 0.950 . S
C1919 C1917 1.387 . S
C1919 C1921 1.390 . S
C1919 H1923 0.950 . S
H1920 C1916 0.950 . S
C1921 C1919 1.390 . S
C1921 C1922 1.387 . S
C1921 H1924 0.950 . S
C1922 C1921 1.387 . S
C1922 C1925 1.387 . S
H1923 C1919 0.950 . S
H1924 C1921 0.950 . S
C1925 C1916 1.390 . S
C1925 H1918 0.950 . S
C1925 C1922 1.387 . S
C1926 C1927 1.387 . S
C1926 H1930 0.950 . S
C1926 C1935 1.390 . S
C1927 C1926 1.387 . S
C1927 C1929 1.387 . S
H1928 C1935 0.950 . S
C1929 C1927 1.387 . S
C1929 C1931 1.390 . S
C1929 H1933 0.950 . S
H1930 C1926 0.950 . S
C1931 C1929 1.390 . S
C1931 C1932 1.387 . S
C1931 H1934 0.950 . S
C1932 C1931 1.387 . S
C1932 C1935 1.387 . S
H1933 C1929 0.950 . S
H1934 C1931 0.950 . S
C1935 C1926 1.390 . S
C1935 H1928 0.950 . S
C1935 C1932 1.387 . S
C1936 C1937 1.387 . S
C1936 H1940 0.950 . S
C1936 C1945 1.390 . S
C1937 C1936 1.387 . S
C1937 C1939 1.387 . S
H1938 C1945 0.950 . S
C1939 C1937 1.387 . S
C1939 C1941 1.390 . S
C1939 H1943 0.950 . S
H1940 C1936 0.950 . S
C1941 C1939 1.390 . S
C1941 C1942 1.387 . S
C1941 H1944 0.950 . S
C1942 C1941 1.387 . S
C1942 C1945 1.387 . S
H1943 C1939 0.950 . S
H1944 C1941 0.950 . S
C1945 C1936 1.390 . S
C1945 H1938 0.950 . S
C1945 C1942 1.387 . S
C1946 C1947 1.387 . S
C1946 H1950 0.950 . S
C1946 C1955 1.390 . S
C1947 C1946 1.387 . S
C1947 C1949 1.387 . S
H1948 C1955 0.950 . S
C1949 C1947 1.387 . S
C1949 C1951 1.390 . S
C1949 H1953 0.950 . S
H1950 C1946 0.950 . S
C1951 C1949 1.390 . S
C1951 C1952 1.387 . S
C1951 H1954 0.950 . S
C1952 C1951 1.387 . S
C1952 C1955 1.387 . S
H1953 C1949 0.950 . S
H1954 C1951 0.950 . S
C1955 C1946 1.390 . S
C1955 H1948 0.950 . S
C1955 C1952 1.387 . S
C1956 C1957 1.387 . S
C1956 H1960 0.950 . S
C1956 C1965 1.390 . S
C1957 C1956 1.387 . S
C1957 C1959 1.387 . S
H1958 C1965 0.950 . S
C1959 C1957 1.387 . S
C1959 C1961 1.390 . S
C1959 H1963 0.950 . S
H1960 C1956 0.950 . S
C1961 C1959 1.390 . S
C1961 C1962 1.387 . S
C1961 H1964 0.950 . S
C1962 C1961 1.387 . S
C1962 C1965 1.387 . S
H1963 C1959 0.950 . S
H1964 C1961 0.950 . S
C1965 C1956 1.390 . S
C1965 H1958 0.950 . S
C1965 C1962 1.387 . S
C1966 C1967 1.387 . S
C1966 H1970 0.950 . S
C1966 C1975 1.390 . S
C1967 C1966 1.387 . S
C1967 C1969 1.387 . S
H1968 C1975 0.950 . S
C1969 C1967 1.387 . S
C1969 C1971 1.390 . S
C1969 H1973 0.950 . S
H1970 C1966 0.950 . S
C1971 C1969 1.390 . S
C1971 C1972 1.387 . S
C1971 H1974 0.950 . S
C1972 C1971 1.387 . S
C1972 C1975 1.387 . S
H1973 C1969 0.950 . S
H1974 C1971 0.950 . S
C1975 C1966 1.390 . S
C1975 H1968 0.950 . S
C1975 C1972 1.387 . S
C1976 C1977 1.387 . S
C1976 H1980 0.950 . S
C1976 C1985 1.390 . S
C1977 C1976 1.387 . S
C1977 C1979 1.387 . S
H1978 C1985 0.950 . S
C1979 C1977 1.387 . S
C1979 C1981 1.390 . S
C1979 H1983 0.950 . S
H1980 C1976 0.950 . S
C1981 C1979 1.390 . S
C1981 C1982 1.387 . S
C1981 H1984 0.950 . S
C1982 C1981 1.387 . S
C1982 C1985 1.387 . S
H1983 C1979 0.950 . S
H1984 C1981 0.950 . S
C1985 C1976 1.390 . S
C1985 H1978 0.950 . S
C1985 C1982 1.387 . S
C1986 C1987 1.387 . S
C1986 H1990 0.950 . S
C1986 C1995 1.390 . S
C1987 C1986 1.387 . S
C1987 C1989 1.387 . S
H1988 C1995 0.950 . S
C1989 C1987 1.387 . S
C1989 C1991 1.390 . S
C1989 H1993 0.950 . S
H1990 C1986 0.950 . S
C1991 C1989 1.390 . S
C1991 C1992 1.387 . S
C1991 H1994 0.950 . S
C1992 C1991 1.387 . S
C1992 C1995 1.387 . S
H1993 C1989 0.950 . S
H1994 C1991 0.950 . S
C1995 C1986 1.390 . S
C1995 H1988 0.950 . S
C1995 C1992 1.387 . S
C1996 C1997 1.387 . S
C1996 H2000 0.950 . S
C1996 C2005 1.390 . S
C1997 C1996 1.387 . S
C1997 C1999 1.387 . S
H1998 C2005 0.950 . S
C1999 C1997 1.387 . S
C1999 C2001 1.390 . S
C1999 H2003 0.950 . S
H2000 C1996 0.950 . S
C2001 C1999 1.390 . S
C2001 C2002 1.387 . S
C2001 H2004 0.950 . S
C2002 C2001 1.387 . S
C2002 C2005 1.387 . S
H2003 C1999 0.950 . S
H2004 C2001 0.950 . S
C2005 C1996 1.390 . S
C2005 H1998 0.950 . S
C2005 C2002 1.387 . S
C2006 C2007 1.387 . S
C2006 H2010 0.950 . S
C2006 C2015 1.390 . S
C2007 C2006 1.387 . S
C2007 C2009 1.387 . S
H2008 C2015 0.950 . S
C2009 C2007 1.387 . S
C2009 C2011 1.390 . S
C2009 H2013 0.950 . S
H2010 C2006 0.950 . S
C2011 C2009 1.390 . S
C2011 C2012 1.387 . S
C2011 H2014 0.950 . S
C2012 C2011 1.387 . S
C2012 C2015 1.387 . S
H2013 C2009 0.950 . S
H2014 C2011 0.950 . S
C2015 C2006 1.390 . S
C2015 H2008 0.950 . S
C2015 C2012 1.387 . S
C1297 C580 1.287 . S
C1302 C4 1.286 . S
C1307 C616 1.287 . S
C1312 C40 1.287 . S
C1317 C76 1.287 . S
C1322 C544 1.287 . S
C1327 C940 1.287 . S
C1332 C112 1.287 . S
C1337 C868 1.286 . S
C1342 C148 1.285 . S
C1347 C184 1.286 . S
C1352 C904 1.287 . S
C1357 C1228 1.285 . S
C1362 C220 1.286 . S
C1367 C1264 1.286 . S
C1372 C256 1.285 . S
C1377 C1192 1.287 . S
C1382 C292 1.287 . S
C1387 C724 1.286 . S
C1392 C328 1.286 . S
C1397 C364 1.286 . S
C1402 C652 1.285 . S
C1407 C688 1.286 . S
C1412 C400 1.287 . S
C1417 C1012 1.285 . S
C1422 C436 1.287 . S
C1427 C472 1.285 . S
C1432 C1048 1.286 . S
C1437 C976 1.287 . S
C1442 C508 1.287 . S
C1447 C1156 1.287 . S
C1452 C760 1.287 . S
C1457 C1084 1.286 . S
C1462 C796 1.285 . S
C1467 C832 1.286 . S
C1472 C1120 1.285 . S
C1477 C254 1.502 . S
C1482 C14 1.415 . S
C1487 C290 1.502 . S
C1492 C50 1.415 . S
C1497 C218 1.502 . S
C1502 C86 1.417 . S
C1507 C122 1.413 . S
C1512 C398 1.502 . S
C1517 C326 1.502 . S
C1522 C158 1.416 . S
C1527 C194 1.416 . S
C1532 C362 1.502 . S
C1537 C38 1.502 . S
C1542 C230 1.416 . S
C1547 C266 1.414 . S
C1552 C74 1.502 . S
C1557 C2 1.502 . S
C1562 C302 1.413 . S
C1567 C182 1.502 . S
C1572 C338 1.417 . S
C1577 C110 1.502 . S
C1582 C374 1.414 . S
C1587 C410 1.416 . S
C1592 C146 1.502 . S
C1597 C446 1.415 . S
C1602 C686 1.502 . S
C1607 C722 1.502 . S
C1612 C482 1.413 . S
C1617 C650 1.502 . S
C1622 C518 1.417 . S
C1627 C554 1.417 . S
C1632 C830 1.502 . S
C1637 C758 1.502 . S
C1642 C590 1.416 . S
C1647 C626 1.415 . S
C1652 C794 1.502 . S
C1657 C662 1.416 . S
C1662 C470 1.502 . S
C1667 C698 1.416 . S
C1672 C506 1.502 . S
C1677 C434 1.502 . S
C1682 C734 1.413 . S
C1687 C614 1.502 . S
C1692 C770 1.413 . S
C1697 C542 1.502 . S
C1702 C806 1.415 . S
C1707 C842 1.417 . S
C1712 C578 1.502 . S
C1717 C1118 1.502 . S
C1722 C878 1.415 . S
C1727 C914 1.415 . S
C1732 C1154 1.502 . S
C1737 C950 1.413 . S
C1742 C1082 1.502 . S
C1747 C1262 1.502 . S
C1752 C986 1.417 . S
C1757 C1022 1.416 . S
C1762 C1190 1.502 . S
C1767 C1226 1.502 . S
C1772 C1058 1.414 . S
C1777 C902 1.502 . S
C1782 C1094 1.416 . S
C1787 C938 1.502 . S
C1792 C1130 1.414 . S
C1797 C1166 1.413 . S
C1802 C866 1.502 . S
C1807 C1202 1.413 . S
C1812 C1046 1.502 . S
C1817 C974 1.502 . S
C1822 C1238 1.415 . S
C1827 C1010 1.502 . S
C1832 C1274 1.416 . S
C1837 C3 1.509 . S
C1842 C111 1.509 . S
C1847 C39 1.509 . S
C1852 C147 1.509 . S
C1857 C183 1.509 . S
C1862 C75 1.509 . S
C1867 C219 1.509 . S
C1872 C327 1.509 . S
C1877 C363 1.509 . S
C1882 C255 1.509 . S
C1887 C399 1.509 . S
C1892 C291 1.509 . S
C1897 C435 1.509 . S
C1902 C543 1.509 . S
C1907 C471 1.509 . S
C1912 C579 1.509 . S
C1917 C615 1.509 . S
C1922 C507 1.509 . S
C1927 C651 1.509 . S
C1932 C759 1.509 1_554 S
C1937 C687 1.509 . S
C1942 C795 1.509 1_554 S
C1947 C723 1.509 . S
C1952 C831 1.509 1_554 S
C1957 C975 1.509 1_556 S
C1962 C867 1.509 . S
C1967 C1011 1.509 1_556 S
C1972 C903 1.509 . S
C1977 C1047 1.509 1_556 S
C1982 C939 1.509 . S
C1987 C1083 1.509 . S
C1992 C1191 1.509 . S
C1997 C1227 1.509 . S
C2002 C1119 1.509 . S
C2007 C1263 1.509 . S
C2012 C1155 1.509 . S
