# Generated by pormake.
# Topology bva, (3)-cn, num edge types: 1
# Building blocks:
#     Node 0, Type 0, BuildingBlock: OLANEW_clean_sbu_2, # of connection points: 3
#     Node 1, Type 0, BuildingBlock: OLANEW_clean_sbu_2, # of connection points: 3
#     Node 2, Type 0, BuildingBlock: OLANEW_clean_sbu_2, # of connection points: 3
#     Node 3, Type 0, BuildingBlock: OLANEW_clean_sbu_2, # of connection points: 3
#     Node 4, Type 0, BuildingBlock: OLANEW_clean_sbu_2, # of connection points: 3
#     Node 5, Type 0, BuildingBlock: OLANEW_clean_sbu_2, # of connection points: 3
#     Node 6, Type 0, BuildingBlock: OLANEW_clean_sbu_2, # of connection points: 3
#     Node 7, Type 0, BuildingBlock: OLANEW_clean_sbu_2, # of connection points: 3
#     Node 8, Type 0, BuildingBlock: OLANEW_clean_sbu_2, # of connection points: 3
#     Node 9, Type 0, BuildingBlock: OLANEW_clean_sbu_2, # of connection points: 3
#     Node 10, Type 0, BuildingBlock: OLANEW_clean_sbu_2, # of connection points: 3
#     Node 11, Type 0, BuildingBlock: OLANEW_clean_sbu_2, # of connection points: 3
#     Node 12, Type 0, BuildingBlock: OLANEW_clean_sbu_2, # of connection points: 3
#     Node 13, Type 0, BuildingBlock: OLANEW_clean_sbu_2, # of connection points: 3
#     Node 14, Type 0, BuildingBlock: OLANEW_clean_sbu_2, # of connection points: 3
#     Node 15, Type 0, BuildingBlock: OLANEW_clean_sbu_2, # of connection points: 3
#     Node 16, Type 0, BuildingBlock: OLANEW_clean_sbu_2, # of connection points: 3
#     Node 17, Type 0, BuildingBlock: OLANEW_clean_sbu_2, # of connection points: 3
#     Node 18, Type 0, BuildingBlock: OLANEW_clean_sbu_2, # of connection points: 3
#     Node 19, Type 0, BuildingBlock: OLANEW_clean_sbu_2, # of connection points: 3
#     Node 20, Type 0, BuildingBlock: OLANEW_clean_sbu_2, # of connection points: 3
#     Node 21, Type 0, BuildingBlock: OLANEW_clean_sbu_2, # of connection points: 3
#     Node 22, Type 0, BuildingBlock: OLANEW_clean_sbu_2, # of connection points: 3
#     Node 23, Type 0, BuildingBlock: OLANEW_clean_sbu_2, # of connection points: 3
#     Node 24, Type 0, BuildingBlock: OLANEW_clean_sbu_2, # of connection points: 3
#     Node 25, Type 0, BuildingBlock: OLANEW_clean_sbu_2, # of connection points: 3
#     Node 26, Type 0, BuildingBlock: OLANEW_clean_sbu_2, # of connection points: 3
#     Node 27, Type 0, BuildingBlock: OLANEW_clean_sbu_2, # of connection points: 3
#     Node 28, Type 0, BuildingBlock: OLANEW_clean_sbu_2, # of connection points: 3
#     Node 29, Type 0, BuildingBlock: OLANEW_clean_sbu_2, # of connection points: 3
#     Node 30, Type 0, BuildingBlock: OLANEW_clean_sbu_2, # of connection points: 3
#     Node 31, Type 0, BuildingBlock: OLANEW_clean_sbu_2, # of connection points: 3
#     Node 32, Type 0, BuildingBlock: OLANEW_clean_sbu_2, # of connection points: 3
#     Node 33, Type 0, BuildingBlock: OLANEW_clean_sbu_2, # of connection points: 3
#     Node 34, Type 0, BuildingBlock: OLANEW_clean_sbu_2, # of connection points: 3
#     Node 35, Type 0, BuildingBlock: OLANEW_clean_sbu_2, # of connection points: 3
#     Node 36, Type 0, BuildingBlock: OLANEW_clean_sbu_2, # of connection points: 3
#     Node 37, Type 0, BuildingBlock: OLANEW_clean_sbu_2, # of connection points: 3
#     Node 38, Type 0, BuildingBlock: OLANEW_clean_sbu_2, # of connection points: 3
#     Node 39, Type 0, BuildingBlock: OLANEW_clean_sbu_2, # of connection points: 3
#     Node 40, Type 0, BuildingBlock: OLANEW_clean_sbu_2, # of connection points: 3
#     Node 41, Type 0, BuildingBlock: OLANEW_clean_sbu_2, # of connection points: 3
#     Node 42, Type 0, BuildingBlock: OLANEW_clean_sbu_2, # of connection points: 3
#     Node 43, Type 0, BuildingBlock: OLANEW_clean_sbu_2, # of connection points: 3
#     Node 44, Type 0, BuildingBlock: OLANEW_clean_sbu_2, # of connection points: 3
#     Node 45, Type 0, BuildingBlock: OLANEW_clean_sbu_2, # of connection points: 3
#     Node 46, Type 0, BuildingBlock: OLANEW_clean_sbu_2, # of connection points: 3
#     Node 47, Type 0, BuildingBlock: OLANEW_clean_sbu_2, # of connection points: 3
#     Edge 48, Type (0, 0), BuildingBlock: TEMPAE_clean_linker_10, # of connection points: 2
#     Edge 49, Type (0, 0), BuildingBlock: TEMPAE_clean_linker_10, # of connection points: 2
#     Edge 50, Type (0, 0), BuildingBlock: TEMPAE_clean_linker_10, # of connection points: 2
#     Edge 51, Type (0, 0), BuildingBlock: TEMPAE_clean_linker_10, # of connection points: 2
#     Edge 52, Type (0, 0), BuildingBlock: TEMPAE_clean_linker_10, # of connection points: 2
#     Edge 53, Type (0, 0), BuildingBlock: TEMPAE_clean_linker_10, # of connection points: 2
#     Edge 54, Type (0, 0), BuildingBlock: TEMPAE_clean_linker_10, # of connection points: 2
#     Edge 55, Type (0, 0), BuildingBlock: TEMPAE_clean_linker_10, # of connection points: 2
#     Edge 56, Type (0, 0), BuildingBlock: TEMPAE_clean_linker_10, # of connection points: 2
#     Edge 57, Type (0, 0), BuildingBlock: TEMPAE_clean_linker_10, # of connection points: 2
#     Edge 58, Type (0, 0), BuildingBlock: TEMPAE_clean_linker_10, # of connection points: 2
#     Edge 59, Type (0, 0), BuildingBlock: TEMPAE_clean_linker_10, # of connection points: 2
#     Edge 60, Type (0, 0), BuildingBlock: TEMPAE_clean_linker_10, # of connection points: 2
#     Edge 61, Type (0, 0), BuildingBlock: TEMPAE_clean_linker_10, # of connection points: 2
#     Edge 62, Type (0, 0), BuildingBlock: TEMPAE_clean_linker_10, # of connection points: 2
#     Edge 63, Type (0, 0), BuildingBlock: TEMPAE_clean_linker_10, # of connection points: 2
#     Edge 64, Type (0, 0), BuildingBlock: TEMPAE_clean_linker_10, # of connection points: 2
#     Edge 65, Type (0, 0), BuildingBlock: TEMPAE_clean_linker_10, # of connection points: 2
#     Edge 66, Type (0, 0), BuildingBlock: TEMPAE_clean_linker_10, # of connection points: 2
#     Edge 67, Type (0, 0), BuildingBlock: TEMPAE_clean_linker_10, # of connection points: 2
#     Edge 68, Type (0, 0), BuildingBlock: TEMPAE_clean_linker_10, # of connection points: 2
#     Edge 69, Type (0, 0), BuildingBlock: TEMPAE_clean_linker_10, # of connection points: 2
#     Edge 70, Type (0, 0), BuildingBlock: TEMPAE_clean_linker_10, # of connection points: 2
#     Edge 71, Type (0, 0), BuildingBlock: TEMPAE_clean_linker_10, # of connection points: 2
#     Edge 72, Type (0, 0), BuildingBlock: TEMPAE_clean_linker_10, # of connection points: 2
#     Edge 73, Type (0, 0), BuildingBlock: TEMPAE_clean_linker_10, # of connection points: 2
#     Edge 74, Type (0, 0), BuildingBlock: TEMPAE_clean_linker_10, # of connection points: 2
#     Edge 75, Type (0, 0), BuildingBlock: TEMPAE_clean_linker_10, # of connection points: 2
#     Edge 76, Type (0, 0), BuildingBlock: TEMPAE_clean_linker_10, # of connection points: 2
#     Edge 77, Type (0, 0), BuildingBlock: TEMPAE_clean_linker_10, # of connection points: 2
#     Edge 78, Type (0, 0), BuildingBlock: TEMPAE_clean_linker_10, # of connection points: 2
#     Edge 79, Type (0, 0), BuildingBlock: TEMPAE_clean_linker_10, # of connection points: 2
#     Edge 80, Type (0, 0), BuildingBlock: TEMPAE_clean_linker_10, # of connection points: 2
#     Edge 81, Type (0, 0), BuildingBlock: TEMPAE_clean_linker_10, # of connection points: 2
#     Edge 82, Type (0, 0), BuildingBlock: TEMPAE_clean_linker_10, # of connection points: 2
#     Edge 83, Type (0, 0), BuildingBlock: TEMPAE_clean_linker_10, # of connection points: 2
#     Edge 84, Type (0, 0), BuildingBlock: TEMPAE_clean_linker_10, # of connection points: 2
#     Edge 85, Type (0, 0), BuildingBlock: TEMPAE_clean_linker_10, # of connection points: 2
#     Edge 86, Type (0, 0), BuildingBlock: TEMPAE_clean_linker_10, # of connection points: 2
#     Edge 87, Type (0, 0), BuildingBlock: TEMPAE_clean_linker_10, # of connection points: 2
#     Edge 88, Type (0, 0), BuildingBlock: TEMPAE_clean_linker_10, # of connection points: 2
#     Edge 89, Type (0, 0), BuildingBlock: TEMPAE_clean_linker_10, # of connection points: 2
#     Edge 90, Type (0, 0), BuildingBlock: TEMPAE_clean_linker_10, # of connection points: 2
#     Edge 91, Type (0, 0), BuildingBlock: TEMPAE_clean_linker_10, # of connection points: 2
#     Edge 92, Type (0, 0), BuildingBlock: TEMPAE_clean_linker_10, # of connection points: 2
#     Edge 93, Type (0, 0), BuildingBlock: TEMPAE_clean_linker_10, # of connection points: 2
#     Edge 94, Type (0, 0), BuildingBlock: TEMPAE_clean_linker_10, # of connection points: 2
#     Edge 95, Type (0, 0), BuildingBlock: TEMPAE_clean_linker_10, # of connection points: 2
#     Edge 96, Type (0, 0), BuildingBlock: TEMPAE_clean_linker_10, # of connection points: 2
#     Edge 97, Type (0, 0), BuildingBlock: TEMPAE_clean_linker_10, # of connection points: 2
#     Edge 98, Type (0, 0), BuildingBlock: TEMPAE_clean_linker_10, # of connection points: 2
#     Edge 99, Type (0, 0), BuildingBlock: TEMPAE_clean_linker_10, # of connection points: 2
#     Edge 100, Type (0, 0), BuildingBlock: TEMPAE_clean_linker_10, # of connection points: 2
#     Edge 101, Type (0, 0), BuildingBlock: TEMPAE_clean_linker_10, # of connection points: 2
#     Edge 102, Type (0, 0), BuildingBlock: TEMPAE_clean_linker_10, # of connection points: 2
#     Edge 103, Type (0, 0), BuildingBlock: TEMPAE_clean_linker_10, # of connection points: 2
#     Edge 104, Type (0, 0), BuildingBlock: TEMPAE_clean_linker_10, # of connection points: 2
#     Edge 105, Type (0, 0), BuildingBlock: TEMPAE_clean_linker_10, # of connection points: 2
#     Edge 106, Type (0, 0), BuildingBlock: TEMPAE_clean_linker_10, # of connection points: 2
#     Edge 107, Type (0, 0), BuildingBlock: TEMPAE_clean_linker_10, # of connection points: 2
#     Edge 108, Type (0, 0), BuildingBlock: TEMPAE_clean_linker_10, # of connection points: 2
#     Edge 109, Type (0, 0), BuildingBlock: TEMPAE_clean_linker_10, # of connection points: 2
#     Edge 110, Type (0, 0), BuildingBlock: TEMPAE_clean_linker_10, # of connection points: 2
#     Edge 111, Type (0, 0), BuildingBlock: TEMPAE_clean_linker_10, # of connection points: 2
#     Edge 112, Type (0, 0), BuildingBlock: TEMPAE_clean_linker_10, # of connection points: 2
#     Edge 113, Type (0, 0), BuildingBlock: TEMPAE_clean_linker_10, # of connection points: 2
#     Edge 114, Type (0, 0), BuildingBlock: TEMPAE_clean_linker_10, # of connection points: 2
#     Edge 115, Type (0, 0), BuildingBlock: TEMPAE_clean_linker_10, # of connection points: 2
#     Edge 116, Type (0, 0), BuildingBlock: TEMPAE_clean_linker_10, # of connection points: 2
#     Edge 117, Type (0, 0), BuildingBlock: TEMPAE_clean_linker_10, # of connection points: 2
#     Edge 118, Type (0, 0), BuildingBlock: TEMPAE_clean_linker_10, # of connection points: 2
#     Edge 119, Type (0, 0), BuildingBlock: TEMPAE_clean_linker_10, # of connection points: 2
# Relax obj value: 0.051
# Max RMSD: 0.071
# Mean RMSD: 0.036
data_MOF--net-bva--node1-OLANEW_clean_sbu_2--edge1-TEMPAE_clean_linker_10
_symmetry_space_group_name_H-M    P1
_symmetry_Int_Tables_number       1
_symmetry_cell_setting            triclinic
loop_
_symmetry_equiv_pos_as_xyz
'x, y, z'
_cell_length_a     62.400257
_cell_length_b     63.120756
_cell_length_c     63.152265
_cell_angle_alpha  103.92006
_cell_angle_beta   90.106147
_cell_angle_gamma 89.954015
loop_
_atom_site_label
_atom_site_type_symbol
_atom_site_fract_x
_atom_site_fract_y
_atom_site_fract_z
_atom_type_partial_charge
O0 O 0.20808 0.20702 0.47395 0.0
Cd1 Cd 0.22098 0.16967 0.46001 0.0
O2 O 0.19632 0.20184 0.50511 0.0
Cd3 Cd 0.1965 0.16673 0.4906 0.0
O4 O 0.18244 0.14246 0.46347 0.0
C5 C 0.16721 0.15032 0.45434 0.0
O6 O 0.16182 0.17083 0.46226 0.0
C7 C 0.20048 0.2147 0.49293 0.0
C8 C 0.26539 0.17152 0.45557 0.0
O9 O 0.25279 0.17226 0.43971 0.0
O10 O 0.25699 0.16925 0.4734 0.0
O11 O 0.28296 0.48639 0.7856 0.0
Cd12 Cd 0.31779 0.47734 0.79878 0.0
O13 O 0.29457 0.48956 0.75364 0.0
Cd14 Cd 0.32829 0.49188 0.76315 0.0
O15 O 0.35561 0.51416 0.76719 0.0
C16 C 0.35611 0.53011 0.78389 0.0
O17 O 0.34124 0.53144 0.79886 0.0
C18 C 0.27914 0.489 0.76661 0.0
C19 C 0.31299 0.43843 0.81197 0.0
O20 O 0.30957 0.45696 0.82521 0.0
O21 O 0.3193 0.43831 0.79263 0.0
O22 O 0.75282 0.92528 0.56831 0.0
Cd23 Cd 0.76532 0.96161 0.56724 0.0
O24 O 0.72483 0.92842 0.54808 0.0
Cd25 Cd 0.69617 0.91412 0.53009 0.0
O26 O 0.6686 0.89596 0.51359 0.0
C27 C 0.66484 0.8768 0.51576 0.0
O28 O 0.67754 0.86839 0.5282 0.0
C29 C 0.73627 0.91699 0.55779 0.0
C30 C 0.79555 0.95727 0.53382 0.0
O31 O 0.80129 0.95743 0.55336 0.0
O32 O 0.77558 0.95958 0.53019 0.0
O33 O 0.58905 0.50648 0.81505 0.0
Cd34 Cd 0.55171 0.51757 0.81281 0.0
O35 O 0.58598 0.48054 0.78491 0.0
Cd36 Cd 0.55109 0.47836 0.78486 0.0
O37 O 0.52751 0.45248 0.78358 0.0
C38 C 0.53297 0.43845 0.79404 0.0
O39 O 0.55096 0.44147 0.80522 0.0
C40 C 0.59762 0.49201 0.79991 0.0
C41 C 0.54975 0.56307 0.82462 0.0
O42 O 0.54398 0.55184 0.83804 0.0
O43 O 0.55593 0.55286 0.80556 0.0
O44 O 0.22004 0.77924 0.48717 0.0
Cd45 Cd 0.23217 0.81685 0.50123 0.0
O46 O 0.18574 0.78634 0.49325 0.0
Cd47 Cd 0.18895 0.82061 0.51058 0.0
O48 O 0.17471 0.84461 0.53781 0.0
C49 C 0.16037 0.83626 0.54756 0.0
O50 O 0.15618 0.81534 0.54046 0.0
C51 C 0.20067 0.77282 0.48603 0.0
C52 C 0.27589 0.817 0.51097 0.0
O53 O 0.26943 0.81816 0.492 0.0
O54 O 0.26167 0.81615 0.52537 0.0
O55 O 0.63376 0.51929 0.22052 0.0
Cd56 Cd 0.59919 0.50361 0.22677 0.0
O57 O 0.62247 0.54863 0.2106 0.0
Cd58 Cd 0.58802 0.5464 0.2157 0.0
O59 O 0.55964 0.56743 0.21995 0.0
C60 C 0.55659 0.5779 0.20534 0.0
O61 O 0.56944 0.57416 0.18838 0.0
C62 C 0.63769 0.53648 0.21406 0.0
C63 C 0.60015 0.45843 0.20967 0.0
O64 O 0.59057 0.47093 0.19942 0.0
O65 O 0.60894 0.46717 0.22803 0.0
O66 O 0.77075 0.04518 0.47276 0.0
Cd67 Cd 0.77246 0.00843 0.47854 0.0
O68 O 0.7367 0.04847 0.48148 0.0
Cd69 Cd 0.70713 0.06694 0.4912 0.0
O70 O 0.67798 0.08552 0.50214 0.0
C71 C 0.66778 0.09491 0.48952 0.0
O72 O 0.67497 0.09324 0.46965 0.0
C73 C 0.75382 0.05669 0.47599 0.0
C74 C 0.80056 0.0086 0.51301 0.0
O75 O 0.80731 0.00546 0.49334 0.0
O76 O 0.78038 0.01133 0.51637 0.0
O77 O 0.28636 0.53771 0.21895 0.0
Cd78 Cd 0.32161 0.53814 0.20225 0.0
O79 O 0.29554 0.5137 0.23749 0.0
Cd80 Cd 0.32786 0.50635 0.22466 0.0
O81 O 0.35269 0.48118 0.2181 0.0
C82 C 0.35125 0.4658 0.20097 0.0
O83 O 0.33588 0.46654 0.18691 0.0
C84 C 0.28163 0.52637 0.2324 0.0
C85 C 0.3242 0.57323 0.1826 0.0
O86 O 0.31665 0.55474 0.17227 0.0
O87 O 0.33085 0.57507 0.20217 0.0
O88 O 0.45652 0.27718 0.22313 0.0
Cd89 Cd 0.44257 0.28029 0.1878 0.0
O90 O 0.45278 0.24146 0.2144 0.0
Cd91 Cd 0.43741 0.23668 0.18255 0.0
O92 O 0.41704 0.21008 0.16488 0.0
C93 C 0.40365 0.20346 0.177 0.0
O94 O 0.40235 0.21403 0.19761 0.0
C95 C 0.45854 0.25886 0.22797 0.0
C96 C 0.42484 0.32144 0.19017 0.0
O97 O 0.41358 0.30591 0.19422 0.0
O98 O 0.44454 0.3175 0.18494 0.0
O99 O 0.50625 0.76926 0.59593 0.0
Cd100 Cd 0.50759 0.78603 0.56488 0.0
O101 O 0.47485 0.78364 0.60695 0.0
Cd102 Cd 0.46701 0.79709 0.57908 0.0
O103 O 0.44063 0.80658 0.56044 0.0
C104 C 0.42822 0.79144 0.55053 0.0
O105 O 0.43293 0.77118 0.55067 0.0
C106 C 0.49112 0.77248 0.60978 0.0
C107 C 0.54411 0.81226 0.56875 0.0
O108 O 0.52619 0.82001 0.57706 0.0
O109 O 0.54464 0.7922 0.55819 0.0
O110 O 0.42978 0.82556 0.24194 0.0
Cd111 Cd 0.42605 0.82875 0.20422 0.0
O112 O 0.44272 0.79253 0.23032 0.0
Cd113 Cd 0.45834 0.76207 0.23295 0.0
O114 O 0.47505 0.73146 0.23258 0.0
C115 C 0.46544 0.71322 0.22672 0.0
O116 O 0.44511 0.71298 0.22122 0.0
C117 C 0.43729 0.80828 0.24612 0.0
C118 C 0.45308 0.86102 0.19582 0.0
O119 O 0.43396 0.86558 0.20283 0.0
O120 O 0.45935 0.84116 0.19265 0.0
O121 O 0.48247 0.1949 0.59261 0.0
Cd122 Cd 0.49018 0.19368 0.55435 0.0
O123 O 0.45516 0.17291 0.58285 0.0
Cd124 Cd 0.42837 0.15204 0.58756 0.0
O125 O 0.40007 0.13332 0.59229 0.0
C126 C 0.39801 0.12633 0.60945 0.0
O127 O 0.41325 0.13039 0.62427 0.0
C128 C 0.46673 0.18448 0.59789 0.0
C129 C 0.52901 0.17308 0.54025 0.0
O130 O 0.52827 0.19357 0.54921 0.0
O131 O 0.51139 0.16233 0.53806 0.0
O132 O 0.47152 0.71194 0.75264 0.0
Cd133 Cd 0.45822 0.70775 0.78786 0.0
O134 O 0.488 0.74267 0.76766 0.0
Cd135 Cd 0.47208 0.74648 0.79905 0.0
O136 O 0.44628 0.76667 0.81656 0.0
C137 C 0.43327 0.77328 0.80402 0.0
O138 O 0.43605 0.76662 0.78283 0.0
C139 C 0.4836 0.72765 0.75084 0.0
C140 C 0.43887 0.66741 0.78564 0.0
O141 O 0.42815 0.68352 0.78205 0.0
O142 O 0.45886 0.6703 0.79011 0.0
O143 O 0.48157 0.78445 0.40233 0.0
Cd144 Cd 0.49234 0.77612 0.43669 0.0
O145 O 0.45505 0.8059 0.41686 0.0
Cd146 Cd 0.42873 0.82904 0.41715 0.0
O147 O 0.40171 0.8512 0.41736 0.0
C148 C 0.39934 0.86072 0.40191 0.0
O149 O 0.41337 0.85704 0.38594 0.0
C150 C 0.46597 0.79672 0.40014 0.0
C151 C 0.53015 0.79735 0.45329 0.0
O152 O 0.53057 0.77975 0.43811 0.0
O153 O 0.51187 0.80497 0.46064 0.0
O154 O 0.4368 0.17764 0.76432 0.0
Cd155 Cd 0.43534 0.17874 0.8033 0.0
O156 O 0.44675 0.21188 0.77239 0.0
Cd157 Cd 0.45894 0.2429 0.76734 0.0
O158 O 0.47065 0.27543 0.76677 0.0
C159 C 0.46194 0.29214 0.77906 0.0
O160 O 0.44586 0.28937 0.79153 0.0
C161 C 0.44244 0.19448 0.75802 0.0
C162 C 0.46245 0.14716 0.81304 0.0
O163 O 0.44258 0.14308 0.80875 0.0
O164 O 0.4694 0.16625 0.81298 0.0
O165 O 0.49818 0.22656 0.38278 0.0
Cd166 Cd 0.50167 0.20926 0.4133 0.0
O167 O 0.46331 0.23142 0.38611 0.0
Cd168 Cd 0.45792 0.21594 0.41305 0.0
O169 O 0.43199 0.20208 0.42864 0.0
C170 C 0.41743 0.21527 0.43767 0.0
O171 O 0.41992 0.23616 0.43869 0.0
C172 C 0.48075 0.23347 0.37643 0.0
C173 C 0.53708 0.18144 0.40571 0.0
O174 O 0.53905 0.20155 0.4158 0.0
O175 O 0.51825 0.17436 0.39967 0.0
O176 O 0.13088 0.47816 0.27737 0.0
Cd177 Cd 0.10411 0.45542 0.28935 0.0
O178 O 0.13053 0.50686 0.30517 0.0
Cd179 Cd 0.10948 0.49111 0.3243 0.0
O180 O 0.10681 0.47803 0.35318 0.0
C181 C 0.10849 0.49142 0.37169 0.0
O182 O 0.10995 0.51236 0.37246 0.0
C183 C 0.13758 0.49718 0.28648 0.0
C184 C 0.09545 0.42133 0.25316 0.0
O185 O 0.08327 0.43816 0.25799 0.0
O186 O 0.11118 0.42024 0.26592 0.0
O187 O 0.11946 0.52693 0.7185 0.0
Cd188 Cd 0.08488 0.54433 0.71604 0.0
O189 O 0.13431 0.55944 0.72574 0.0
Cd190 Cd 0.10969 0.57249 0.70786 0.0
O191 O 0.10382 0.57664 0.67503 0.0
C192 C 0.10205 0.55939 0.65983 0.0
O193 O 0.10185 0.54042 0.66498 0.0
C194 C 0.13545 0.5392 0.72526 0.0
C195 C 0.07454 0.56392 0.75927 0.0
O196 O 0.06741 0.54492 0.74998 0.0
O197 O 0.08557 0.5741 0.74776 0.0
O198 O 0.76237 0.74725 0.52029 0.0
Cd199 Cd 0.7743 0.70937 0.51244 0.0
O200 O 0.72768 0.7413 0.51709 0.0
Cd201 Cd 0.73376 0.70759 0.49928 0.0
O202 O 0.73999 0.68307 0.46894 0.0
C203 C 0.72934 0.68512 0.45236 0.0
O204 O 0.71503 0.70081 0.45486 0.0
C205 C 0.74327 0.75448 0.52234 0.0
C206 C 0.80416 0.70775 0.54497 0.0
O207 O 0.8101 0.71119 0.52667 0.0
O208 O 0.78423 0.70414 0.54749 0.0
O209 O 0.75196 0.42191 0.78772 0.0
Cd210 Cd 0.7812 0.39652 0.77409 0.0
O211 O 0.76217 0.44805 0.77242 0.0
Cd212 Cd 0.78715 0.4276 0.75379 0.0
O213 O 0.79554 0.40516 0.7229 0.0
C214 C 0.79006 0.41102 0.70576 0.0
O215 O 0.78123 0.43032 0.70785 0.0
C216 C 0.74919 0.44086 0.78452 0.0
C217 C 0.78875 0.37014 0.803 0.0
O218 O 0.80015 0.38718 0.80368 0.0
O219 O 0.77401 0.36542 0.78848 0.0
O220 O 0.1855 0.38878 0.5295 0.0
Cd221 Cd 0.17839 0.42797 0.53745 0.0
O222 O 0.15508 0.38527 0.54547 0.0
Cd223 Cd 0.13116 0.36788 0.56 0.0
O224 O 0.10903 0.35606 0.58122 0.0
C225 C 0.10072 0.37003 0.59699 0.0
O226 O 0.1055 0.39075 0.59943 0.0
C227 C 0.17182 0.37661 0.53559 0.0
C228 C 0.16024 0.44053 0.50196 0.0
O229 O 0.18062 0.44006 0.50445 0.0
O230 O 0.14838 0.43499 0.51628 0.0
O231 O 0.79413 0.59336 0.18365 0.0
Cd232 Cd 0.82744 0.61263 0.18011 0.0
O233 O 0.7974 0.60433 0.21912 0.0
Cd234 Cd 0.78923 0.6081 0.25362 0.0
O235 O 0.78171 0.61911 0.28834 0.0
C236 C 0.76825 0.60945 0.29785 0.0
O237 O 0.75854 0.59186 0.28656 0.0
C238 C 0.7867 0.59423 0.20257 0.0
C239 C 0.82716 0.63039 0.14364 0.0
O240 O 0.83585 0.61181 0.14282 0.0
O241 O 0.81859 0.64054 0.16166 0.0
O242 O 0.77549 0.2267 0.47779 0.0
Cd243 Cd 0.78637 0.26475 0.48318 0.0
O244 O 0.76811 0.22928 0.51236 0.0
Cd245 Cd 0.7774 0.26339 0.52414 0.0
O246 O 0.78459 0.29253 0.54972 0.0
C247 C 0.77141 0.29689 0.56548 0.0
O248 O 0.75443 0.28442 0.56472 0.0
C249 C 0.76904 0.21799 0.49279 0.0
C250 C 0.81291 0.26832 0.44875 0.0
O251 O 0.82072 0.2648 0.46638 0.0
O252 O 0.79256 0.27062 0.44762 0.0
O253 O 0.17035 0.60259 0.46822 0.0
Cd254 Cd 0.15801 0.56536 0.46603 0.0
O255 O 0.14975 0.60395 0.44051 0.0
Cd256 Cd 0.13289 0.6194 0.41781 0.0
O257 O 0.11435 0.63201 0.39421 0.0
C258 C 0.10803 0.61891 0.37674 0.0
O259 O 0.11303 0.59814 0.37333 0.0
C260 C 0.16311 0.61322 0.45504 0.0
C261 C 0.14242 0.56212 0.5065 0.0
O262 O 0.16221 0.55861 0.50146 0.0
O263 O 0.12987 0.56686 0.49222 0.0
O264 O 0.02927 0.88523 0.7205 0.0
Cd265 Cd 0.04575 0.91841 0.71417 0.0
O266 O 0.00611 0.88548 0.69447 0.0
Cd267 Cd 0.97678 0.87581 0.67569 0.0
O268 O 0.94566 0.88233 0.6627 0.0
C269 C 0.94487 0.89041 0.64611 0.0
O270 O 0.96283 0.89329 0.63635 0.0
C271 C 0.01331 0.87662 0.7091 0.0
C272 C 0.07339 0.90891 0.67843 0.0
O273 O 0.0801 0.90911 0.69767 0.0
O274 O 0.05361 0.91338 0.67612 0.0
O275 O 0.66036 0.25163 0.10207 0.0
Cd276 Cd 0.62742 0.25386 0.12355 0.0
O277 O 0.64176 0.24277 0.07156 0.0
Cd278 Cd 0.61513 0.23094 0.08803 0.0
O279 O 0.60012 0.20718 0.10353 0.0
C280 C 0.61203 0.19913 0.11597 0.0
O281 O 0.63189 0.2061 0.11927 0.0
C282 C 0.65937 0.24859 0.08143 0.0
C283 C 0.61783 0.29753 0.14263 0.0
O284 O 0.61379 0.28915 0.12247 0.0
O285 O 0.62614 0.28528 0.15395 0.0
O286 O 0.9818 0.08027 0.64337 0.0
Cd287 Cd 0.97825 0.04152 0.62533 0.0
O288 O 0.9645 0.07849 0.6732 0.0
Cd289 Cd 0.94953 0.04787 0.65655 0.0
O290 O 0.9218 0.03894 0.63529 0.0
C291 C 0.91206 0.02075 0.63044 0.0
O292 O 0.91903 0.00451 0.63827 0.0
C293 C 0.9758 0.08923 0.6627 0.0
C294 C 0.01935 0.02333 0.62098 0.0
O295 O 0.01131 0.0316 0.60608 0.0
O296 O 0.0077 0.0231 0.63762 0.0
O297 O 0.27599 0.71388 0.06192 0.0
Cd298 Cd 0.30605 0.72896 0.08557 0.0
O299 O 0.28092 0.7309 0.03573 0.0
Cd300 Cd 0.30577 0.7523 0.05366 0.0
O301 O 0.31942 0.78406 0.06957 0.0
C302 C 0.31471 0.79985 0.06115 0.0
O303 O 0.30292 0.79591 0.04337 0.0
C304 C 0.27064 0.71714 0.04352 0.0
C305 C 0.31545 0.69929 0.11073 0.0
O306 O 0.30152 0.71442 0.11701 0.0
O307 O 0.32546 0.69862 0.09288 0.0
O308 O 0.05115 0.10636 0.26923 0.0
Cd309 Cd 0.06905 0.07361 0.27509 0.0
O310 O 0.02717 0.10364 0.2937 0.0
Cd311 Cd -0.00337 0.1111 0.31072 0.0
O312 O 0.96477 0.1054 0.32237 0.0
C313 C 0.94841 0.10641 0.31064 0.0
O314 O 0.95094 0.11219 0.29215 0.0
C315 C 0.03434 0.11355 0.27991 0.0
C316 C 0.09283 0.08215 0.3137 0.0
O317 O 0.10107 0.08439 0.29579 0.0
O318 O 0.0733 0.07578 0.31335 0.0
O319 O 0.2246 0.27416 0.89308 0.0
Cd320 Cd 0.25112 0.26318 0.86397 0.0
O321 O 0.24752 0.27324 0.91931 0.0
Cd322 Cd 0.27163 0.25609 0.89648 0.0
O323 O 0.28655 0.22499 0.88066 0.0
C324 C 0.2742 0.21023 0.86993 0.0
O325 O 0.25396 0.21507 0.86773 0.0
C326 C 0.22885 0.27745 0.91331 0.0
C327 C 0.26733 0.29961 0.85154 0.0
O328 O 0.25027 0.28998 0.84282 0.0
O329 O 0.27687 0.29189 0.86603 0.0
O330 O 0.98703 0.916 0.35978 0.0
Cd331 Cd 0.98697 0.95221 0.38499 0.0
O332 O 0.95252 0.91011 0.3629 0.0
Cd333 Cd 0.94423 0.93929 0.38769 0.0
O334 O 0.91967 0.94949 0.41257 0.0
C335 C 0.90829 0.93396 0.41604 0.0
O336 O 0.91244 0.91395 0.40495 0.0
C337 C 0.97064 0.90389 0.35452 0.0
C338 C 0.02827 0.97005 0.38931 0.0
O339 O 0.02156 0.95852 0.4021 0.0
O340 O 0.01536 0.97335 0.37461 0.0
O341 O 0.6239 0.7638 0.90544 0.0
Cd342 Cd 0.58739 0.76711 0.89241 0.0
O343 O 0.61635 0.78248 0.93868 0.0
Cd344 Cd 0.58989 0.79821 0.92567 0.0
O345 O 0.57933 0.82047 0.90599 0.0
C346 C 0.59204 0.82224 0.89079 0.0
O347 O 0.60956 0.81032 0.88778 0.0
C348 C 0.62906 0.77019 0.92547 0.0
C349 C 0.57138 0.72483 0.87786 0.0
O350 O 0.57791 0.7355 0.86422 0.0
O351 O 0.57177 0.73434 0.8982 0.0
O352 O 0.60483 0.96097 0.75123 0.0
Cd353 Cd 0.57459 0.96543 0.77671 0.0
O354 O 0.62701 0.98077 0.7751 0.0
Cd355 Cd 0.60043 0.99354 0.79686 0.0
O356 O 0.57295 0.01562 0.80213 0.0
C357 C 0.5677 0.02816 0.8203 0.0
O358 O 0.57866 0.02747 0.83791 0.0
C359 C 0.62357 0.9685 0.75625 0.0
C360 C 0.57556 0.93492 0.80231 0.0
O361 O 0.56576 0.93082 0.78391 0.0
O362 O 0.58488 0.95347 0.8086 0.0
O363 O 0.74779 0.01124 0.31872 0.0
Cd364 Cd 0.77539 0.01007 0.34586 0.0
O365 O 0.73327 0.03855 0.3425 0.0
Cd366 Cd 0.70697 0.06129 0.3537 0.0
O367 O 0.67862 0.08025 0.36667 0.0
C368 C 0.66766 0.08933 0.35435 0.0
O369 O 0.67387 0.08725 0.3341 0.0
C370 C 0.7332 0.0256 0.32366 0.0
C371 C 0.81181 0.03317 0.3392 0.0
O372 O 0.80987 0.01275 0.33028 0.0
O373 O 0.79649 0.04268 0.35135 0.0
O374 O 0.28973 0.94065 0.82809 0.0
Cd375 Cd 0.30127 0.9325 0.8623 0.0
O376 O 0.30772 0.97141 0.83636 0.0
Cd377 Cd 0.31553 0.00361 0.83118 0.0
O378 O 0.31497 0.03828 0.83137 0.0
C379 C 0.30862 0.05121 0.84889 0.0
O380 O 0.30345 0.04306 0.86548 0.0
C381 C 0.29577 0.95809 0.82319 0.0
C382 C 0.32928 0.89704 0.8544 0.0
O383 O 0.30904 0.89427 0.85588 0.0
O384 O 0.33622 0.91659 0.85687 0.0
O385 O 0.25969 0.0035 0.3535 0.0
Cd386 Cd 0.2474 0.99399 0.38669 0.0
O387 O 0.24699 0.03694 0.35885 0.0
Cd388 Cd 0.22559 0.03275 0.38486 0.0
O389 O 0.19306 0.02663 0.39474 0.0
C390 C 0.18428 0.00922 0.38387 0.0
O391 O 0.19557 0.99594 0.36875 0.0
C392 C 0.25819 0.02139 0.34768 0.0
C393 C 0.27742 0.96442 0.39581 0.0
O394 O 0.26073 0.95777 0.38426 0.0
O395 O 0.27951 0.98501 0.4037 0.0
O396 O 0.59658 0.03527 0.22184 0.0
Cd397 Cd 0.5664 0.03642 0.19728 0.0
O398 O 0.61804 0.01869 0.19543 0.0
Cd399 Cd 0.59043 0.00819 0.17427 0.0
O400 O 0.56338 0.98561 0.17022 0.0
C401 C 0.55949 0.97872 0.18716 0.0
O402 O 0.57125 0.98611 0.20466 0.0
C403 C 0.61516 0.02828 0.21536 0.0
C404 C 0.57145 0.07149 0.17782 0.0
O405 O 0.56153 0.07382 0.19599 0.0
O406 O 0.5787 0.05248 0.1687 0.0
O407 O 0.24179 0.00808 0.68025 0.0
Cd408 Cd 0.23276 0.01813 0.64628 0.0
O409 O 0.23891 0.9727 0.6664 0.0
Cd410 Cd 0.21942 0.97733 0.63909 0.0
O411 O 0.18746 0.98048 0.62584 0.0
C412 C 0.17699 -0.00238 0.63457 0.0
O413 O 0.18635 0.01268 0.64978 0.0
C414 C 0.2443 0.98859 0.68204 0.0
C415 C 0.26701 0.04178 0.63503 0.0
O416 O 0.26617 0.02095 0.62834 0.0
O417 O 0.25142 0.05146 0.64663 0.0
O418 O 0.30891 0.01749 0.18465 0.0
Cd419 Cd 0.32223 0.01345 0.14747 0.0
O420 O 0.34119 0.01554 0.19809 0.0
Cd421 Cd 0.35327 -0.00068 0.1659 0.0
O422 O 0.35299 0.96764 0.14243 0.0
C423 C 0.33751 0.95546 0.14509 0.0
O424 O 0.32351 0.96316 0.16055 0.0
C425 C 0.32124 0.01927 0.20105 0.0
C426 C 0.34013 0.05326 0.14484 0.0
O427 O 0.32038 0.049 0.14006 0.0
O428 O 0.35148 0.03846 0.15023 0.0
O429 O 0.74629 0.98643 0.6443 0.0
Cd430 Cd 0.77205 0.98989 0.61638 0.0
O431 O 0.73869 0.95343 0.6253 0.0
Cd432 Cd 0.71841 0.92445 0.61792 0.0
O433 O 0.69148 0.90193 0.61108 0.0
C434 C 0.67958 0.90223 0.59481 0.0
O435 O 0.68446 0.91547 0.58236 0.0
C436 C 0.73566 0.96889 0.64211 0.0
C437 C 0.80952 0.96683 0.61943 0.0
O438 O 0.80697 0.98647 0.63065 0.0
O439 O 0.79422 0.958 0.60679 0.0
O440 O 0.7871 0.72882 0.97298 0.0
Cd441 Cd 0.82317 0.71501 0.97711 0.0
O442 O 0.77596 0.69647 0.95481 0.0
Cd443 Cd 0.80871 0.68461 0.94817 0.0
O444 O 0.83767 0.68291 0.92842 0.0
C445 C 0.84263 0.70021 0.92262 0.0
O446 O 0.83088 0.71778 0.92966 0.0
C447 C 0.77195 0.71629 0.96411 0.0
C448 C 0.82517 0.69625 0.01288 0.0
O449 O 0.83103 0.71605 0.01459 0.0
O450 O 0.81851 0.6853 0.99425 0.0
O451 O 0.78735 0.25702 0.97033 0.0
Cd452 Cd 0.81912 0.26236 0.94956 0.0
O453 O 0.80583 0.27337 -0.00089 0.0
Cd454 Cd 0.81227 0.28374 0.03413 0.0
O455 O 0.82878 0.28881 0.06549 0.0
C456 C 0.83422 0.27218 0.07228 0.0
O457 O 0.82886 0.2527 0.06067 0.0
C458 C 0.78858 0.26422 0.99089 0.0
C459 C 0.81085 0.28453 0.91717 0.0
O460 O 0.81177 0.26363 0.91257 0.0
O461 O 0.81362 0.29489 0.93708 0.0
O462 O 0.9891 0.26308 0.72741 0.0
Cd463 Cd 0.99369 0.30235 0.74176 0.0
O464 O 0.02165 0.25533 0.73671 0.0
Cd465 Cd 0.02896 0.28797 0.75616 0.0
O466 O 0.04043 0.308 0.78713 0.0
C467 C 0.03103 0.30472 0.80388 0.0
O468 O 0.01468 0.29121 0.80106 0.0
C469 C 0.00384 0.24918 0.72746 0.0
C470 C 0.01537 0.31965 0.71118 0.0
O471 O 0.99489 0.31819 0.71084 0.0
O472 O 0.02551 0.31328 0.72619 0.0
O473 O 0.12758 0.63172 0.97536 0.0
Cd474 Cd 0.09271 0.61389 0.96729 0.0
O475 O 0.11331 0.66385 0.98939 0.0
Cd476 Cd 0.08068 0.65149 0.98941 0.0
O477 O 0.0537 0.65018 0.01097 0.0
C478 C 0.04917 0.66843 0.02379 0.0
O479 O 0.05973 0.68584 0.02175 0.0
C480 C 0.1298 0.65203 0.98371 0.0
C481 C 0.08432 0.60429 0.92262 0.0
O482 O 0.0774 0.62201 0.93521 0.0
O483 O 0.09498 0.59113 0.93122 0.0
O484 O 0.98354 0.73 0.75743 0.0
Cd485 Cd 0.97849 0.69558 0.76823 0.0
O486 O 0.95601 0.72238 0.73534 0.0
Cd487 Cd 0.93511 0.72641 0.70875 0.0
O488 O 0.91449 0.72056 0.67992 0.0
C489 C 0.90473 0.73588 0.67405 0.0
O490 O 0.90715 0.75603 0.6856 0.0
C491 C 0.97128 0.73513 0.74335 0.0
C492 C 0.95008 0.69811 0.80288 0.0
O493 O 0.97014 0.70179 0.80632 0.0
O494 O 0.94345 0.69353 0.78307 0.0
O495 O 0.1085 0.29508 0.03772 0.0
Cd496 Cd 0.07589 0.29917 0.05975 0.0
O497 O 0.09632 0.32243 0.02552 0.0
Cd498 Cd 0.09468 0.34192 0.00133 0.0
O499 O 0.08841 0.34764 0.96927 0.0
C500 C 0.09505 0.33291 0.95319 0.0
O501 O 0.10587 0.31639 0.9571 0.0
C502 C 0.11053 0.30789 0.0251 0.0
C503 C 0.08122 0.3235 0.10246 0.0
O504 O 0.08185 0.30259 0.09795 0.0
O505 O 0.07834 0.33283 0.08676 0.0
O506 O 0.98886 0.73658 0.265 0.0
Cd507 Cd 0.99308 0.6985 0.24525 0.0
O508 O 0.97431 0.74769 0.23781 0.0
Cd509 Cd 0.9773 0.71615 0.2145 0.0
O510 O 0.98639 0.69552 0.18292 0.0
C511 C 0.97384 0.6935 0.16668 0.0
O512 O 0.95477 0.70258 0.16972 0.0
C513 C 0.98082 0.75177 0.25745 0.0
C514 C 0.01777 0.67721 0.27065 0.0
O515 O 0.0265 0.68611 0.25659 0.0
O516 O -0.0027 0.67797 0.27233 0.0
O517 O 0.9837 0.25917 0.23663 0.0
Cd518 Cd 0.97141 0.2932 0.22853 0.0
O519 O 0.95425 0.25861 0.25526 0.0
Cd520 Cd 0.93359 0.24765 0.27838 0.0
O521 O 0.91255 0.24673 0.30572 0.0
C522 C 0.90815 0.26482 0.31891 0.0
O523 O 0.9164 0.28282 0.31541 0.0
C524 C 0.97214 0.25004 0.2484 0.0
C525 C 0.9404 0.28725 0.19571 0.0
O526 O 0.96043 0.28714 0.19121 0.0
O527 O 0.93502 0.28995 0.21576 0.0
C528 C 0.09668 0.08382 0.3536 0.0
C529 C 0.10522 0.08771 0.33435 0.0
C530 C 0.1074 0.09094 0.37363 0.0
C531 C 0.12696 0.10245 0.37444 0.0
C532 C 0.13621 0.10537 0.35488 0.0
C533 C 0.12525 0.09791 0.33507 0.0
C534 C 0.09717 0.08717 0.39406 0.0
C535 C 0.1571 0.11747 0.35501 0.0
C536 C 0.14003 0.14693 0.42474 0.0
C537 C 0.15624 0.13727 0.43464 0.0
C538 C 0.13008 0.13553 0.40548 0.0
C539 C 0.13641 0.11383 0.3958 0.0
C540 C 0.15233 0.10368 0.40599 0.0
C541 C 0.16213 0.11556 0.4253 0.0
C542 C 0.11311 0.14695 0.39518 0.0
C543 C 0.15931 0.08049 0.39623 0.0
H544 H 0.08133 0.07568 0.35315 0.0
H545 H 0.13206 0.10083 0.32025 0.0
H546 H 0.10928 0.08181 0.40456 0.0
H547 H 0.09016 0.1027 0.40359 0.0
H548 H 0.08423 0.07474 0.39029 0.0
H549 H 0.16321 0.11642 0.33828 0.0
H550 H 0.15477 0.13494 0.36326 0.0
H551 H 0.16947 0.11089 0.36433 0.0
H552 H 0.13528 0.16364 0.43186 0.0
H553 H 0.17458 0.10793 0.4329 0.0
H554 H 0.09808 0.13729 0.39289 0.0
H555 H 0.1185 0.14829 0.37882 0.0
H556 H 0.10952 0.1636 0.40517 0.0
H557 H 0.14518 0.06952 0.39296 0.0
H558 H 0.17057 0.07436 0.40705 0.0
H559 H 0.16734 0.07952 0.38037 0.0
C560 C 0.26301 0.32962 0.83222 0.0
C561 C 0.27548 0.31932 0.84532 0.0
C562 C 0.27012 0.34874 0.82681 0.0
C563 C 0.2903 0.35767 0.83448 0.0
C564 C 0.30315 0.34713 0.84736 0.0
C565 C 0.29554 0.32814 0.85273 0.0
C566 C 0.25586 0.35959 0.81318 0.0
C567 C 0.32486 0.35603 0.85562 0.0
C568 C 0.3143 0.39762 0.80464 0.0
C569 C 0.30872 0.41778 0.81847 0.0
C570 C 0.30899 0.3779 0.80996 0.0
C571 C 0.29761 0.37836 0.82944 0.0
C572 C 0.29235 0.39866 0.84369 0.0
C573 C 0.29806 0.41811 0.83809 0.0
C574 C 0.31511 0.35658 0.79448 0.0
C575 C 0.28009 0.39984 0.86454 0.0
H576 H 0.24748 0.32295 0.82646 0.0
H577 H 0.30531 0.32022 0.86277 0.0
H578 H 0.25178 0.37636 0.82249 0.0
H579 H 0.26444 0.36107 0.79823 0.0
H580 H 0.24074 0.35043 0.80828 0.0
H581 H 0.33324 0.34543 0.86472 0.0
H582 H 0.33509 0.3577 0.84176 0.0
H583 H 0.32305 0.37255 0.86655 0.0
H584 H 0.32262 0.39722 0.7895 0.0
H585 H 0.29365 0.43361 0.84885 0.0
H586 H 0.30043 0.34754 0.78766 0.0
H587 H 0.32403 0.34616 0.80334 0.0
H588 H 0.32514 0.35902 0.78075 0.0
H589 H 0.26405 0.39232 0.86066 0.0
H590 H 0.27793 0.41689 0.87424 0.0
H591 H 0.28856 0.39045 0.87477 0.0
C592 C 0.88 0.92058 0.43762 0.0
C593 C 0.89077 0.93811 0.43231 0.0
C594 C 0.86375 0.92416 0.45341 0.0
C595 C 0.85805 0.94579 0.46412 0.0
C596 C 0.86838 0.96354 0.45828 0.0
C597 C 0.88476 0.95948 0.44261 0.0
C598 C 0.85294 0.90476 0.45891 0.0
C599 C 0.86279 0.98688 0.46895 0.0
C600 C 0.80497 0.95383 0.49456 0.0
C601 C 0.81152 0.95456 0.516 0.0
C602 C 0.81995 0.95141 0.47757 0.0
C603 C 0.84201 0.94964 0.48209 0.0
C604 C 0.84874 0.95052 0.5037 0.0
C605 C 0.83342 0.95286 0.52036 0.0
C606 C 0.81218 0.95069 0.45476 0.0
C607 C 0.87215 0.94886 0.50915 0.0
H608 H 0.88446 0.90398 0.42966 0.0
H609 H 0.89291 0.97312 0.43851 0.0
H610 H 0.85625 0.90469 0.47616 0.0
H611 H 0.83532 0.90592 0.45713 0.0
H612 H 0.85849 0.88901 0.44835 0.0
H613 H 0.8678 -0.00183 0.45884 0.0
H614 H 0.84535 0.9889 0.47209 0.0
H615 H 0.87133 0.9917 0.48476 0.0
H616 H 0.78809 0.9552 0.49103 0.0
H617 H 0.83861 0.95342 0.53684 0.0
H618 H 0.81665 0.93486 0.44364 0.0
H619 H 0.82004 0.96375 0.44855 0.0
H620 H 0.79453 0.95276 0.45402 0.0
H621 H 0.87889 0.93325 0.49949 0.0
H622 H 0.87482 0.94969 0.5267 0.0
H623 H 0.88121 0.96226 0.5047 0.0
C624 C 0.53488 0.59885 0.84529 0.0
C625 C 0.55046 0.58711 0.8313 0.0
C626 C 0.53602 0.62171 0.85235 0.0
C627 C 0.55366 0.63288 0.84601 0.0
C628 C 0.56941 0.62101 0.83184 0.0
C629 C 0.56737 0.59831 0.82431 0.0
C630 C 0.51848 0.63387 0.86674 0.0
C631 C 0.58885 0.63216 0.82528 0.0
C632 C 0.55444 0.69404 0.85055 0.0
C633 C 0.56506 0.70171 0.87048 0.0
C634 C 0.54957 0.67177 0.8429 0.0
C635 C 0.55637 0.65678 0.85502 0.0
C636 C 0.56697 0.66455 0.87526 0.0
C637 C 0.5708 0.68699 0.88294 0.0
C638 C 0.53749 0.66423 0.82169 0.0
C639 C 0.57512 0.64908 0.88835 0.0
H640 H 0.52171 0.59016 0.85054 0.0
H641 H 0.57952 0.58917 0.81364 0.0
H642 H 0.52495 0.64121 0.88323 0.0
H643 H 0.51239 0.64743 0.86 0.0
H644 H 0.50485 0.62307 0.86838 0.0
H645 H 0.59969 0.62054 0.81428 0.0
H646 H 0.58384 0.64491 0.8169 0.0
H647 H 0.598 0.64041 0.84005 0.0
H648 H 0.54988 0.70549 0.841 0.0
H649 H 0.57922 0.69291 0.89826 0.0
H650 H 0.52384 0.65368 0.82381 0.0
H651 H 0.54818 0.65432 0.80911 0.0
H652 H 0.53126 0.67813 0.81554 0.0
H653 H 0.56177 0.6391 0.89227 0.0
H654 H 0.58291 0.65777 0.90384 0.0
H655 H 0.58693 0.63765 0.87854 0.0
C656 C 0.10866 0.89524 0.66176 0.0
C657 C 0.0878 0.90262 0.65931 0.0
C658 C 0.12168 0.88699 0.64354 0.0
C659 C 0.11367 0.88614 0.62237 0.0
C660 C 0.09314 0.8948 0.61987 0.0
C661 C 0.08042 0.90288 0.63837 0.0
C662 C 0.14356 0.87807 0.6469 0.0
C663 C 0.0842 0.89455 0.59758 0.0
C664 C 0.1521 0.87196 0.57416 0.0
C665 C 0.14849 0.84945 0.56652 0.0
C666 C 0.14073 0.88429 0.5922 0.0
C667 C 0.12559 0.87379 0.60289 0.0
C668 C 0.12186 0.85113 0.59518 0.0
C669 C 0.1333 0.83928 0.57712 0.0
C670 C 0.14518 0.90843 0.59999 0.0
C671 C 0.10582 0.8393 0.60608 0.0
H672 H 0.11458 0.89516 0.67789 0.0
H673 H 0.06443 0.90883 0.63635 0.0
H674 H 0.14354 0.86007 0.64067 0.0
H675 H 0.15582 0.88473 0.63757 0.0
H676 H 0.14832 0.882 0.66437 0.0
H677 H 0.06896 0.90383 0.59853 0.0
H678 H 0.09596 0.9016 0.58804 0.0
H679 H 0.08119 0.87745 0.58851 0.0
H680 H 0.16381 0.87994 0.56607 0.0
H681 H 0.13037 0.82193 0.57138 0.0
H682 H 0.15414 0.91155 0.61562 0.0
H683 H 0.13 0.9178 0.60314 0.0
H684 H 0.15481 0.91472 0.58805 0.0
H685 H 0.11038 0.84093 0.62339 0.0
H686 H 0.10468 0.82165 0.59794 0.0
H687 H 0.08971 0.84673 0.60595 0.0
C688 C 0.60683 0.32783 0.17404 0.0
C689 C 0.61367 0.32087 0.15237 0.0
C690 C 0.6032 0.35005 0.18353 0.0
C691 C 0.60739 0.36571 0.17131 0.0
C692 C 0.61442 0.3587 0.14942 0.0
C693 C 0.61707 0.33631 0.14008 0.0
C694 C 0.59493 0.35679 0.20664 0.0
C695 C 0.61978 0.37488 0.13607 0.0
C696 C 0.58465 0.42329 0.18815 0.0
C697 C 0.60164 0.43468 0.2003 0.0
C698 C 0.58603 0.40069 0.17915 0.0
C699 C 0.60519 0.38945 0.18163 0.0
C700 C 0.62248 0.401 0.19369 0.0
C701 C 0.62033 0.4234 0.20324 0.0
C702 C 0.56697 0.38881 0.16709 0.0
C703 C 0.64344 0.38982 0.1961 0.0
H704 H 0.60404 0.31583 0.18347 0.0
H705 H 0.62255 0.33091 0.12336 0.0
H706 H 0.60719 0.36669 0.21736 0.0
H707 H 0.58045 0.36715 0.20731 0.0
H708 H 0.59084 0.34252 0.21327 0.0
H709 H 0.62529 0.36676 0.11937 0.0
H710 H 0.60557 0.38502 0.13472 0.0
H711 H 0.63258 0.38608 0.14434 0.0
H712 H 0.57014 0.43201 0.18602 0.0
H713 H 0.63354 0.43227 0.21248 0.0
H714 H 0.56247 0.37495 0.17416 0.0
H715 H 0.57114 0.3819 0.14974 0.0
H716 H 0.55283 0.39966 0.16777 0.0
H717 H 0.64079 0.37656 0.20456 0.0
H718 H 0.65554 0.40129 0.20542 0.0
H719 H 0.65009 0.38221 0.17974 0.0
C720 C 0.88457 0.03629 0.6097 0.0
C721 C 0.89344 0.01801 0.61546 0.0
C722 C 0.86798 0.03405 0.59434 0.0
C723 C 0.86018 0.01299 0.5843 0.0
C724 C 0.86837 0.99456 0.59075 0.0
C725 C 0.8849 0.9973 0.6063 0.0
C726 C 0.85928 0.05417 0.58834 0.0
C727 C 0.86033 0.97188 0.58058 0.0
C728 C 0.80807 0.01092 0.55251 0.0
C729 C 0.81566 0.00906 0.53125 0.0
C730 C 0.8223 0.01147 0.56989 0.0
C731 C 0.84465 0.01032 0.56594 0.0
C732 C 0.85237 0.00819 0.54449 0.0
C733 C 0.8378 0.00766 0.52744 0.0
C734 C 0.81327 0.01412 0.59249 0.0
C735 C 0.8761 0.00697 0.53966 0.0
H736 H 0.89082 0.05243 0.61696 0.0
H737 H 0.89155 0.98314 0.61078 0.0
H738 H 0.86287 0.05345 0.57098 0.0
H739 H 0.8416 0.05484 0.59021 0.0
H740 H 0.86621 0.06946 0.59856 0.0
H741 H 0.86609 0.95975 0.58942 0.0
H742 H 0.84255 0.97157 0.5801 0.0
H743 H 0.86619 0.96686 0.56358 0.0
H744 H 0.79099 0.01203 0.55565 0.0
H745 H 0.84378 0.00638 0.51114 0.0
H746 H 0.81215 0.03177 0.60049 0.0
H747 H 0.82362 0.00633 0.60273 0.0
H748 H 0.79691 0.00707 0.59188 0.0
H749 H 0.88417 0.02194 0.54909 0.0
H750 H 0.87956 0.00524 0.52211 0.0
H751 H 0.88326 0.99292 0.54481 0.0
C752 C 0.33567 0.61124 0.1824 0.0
C753 C 0.3247 0.59204 0.17238 0.0
C754 C 0.33568 0.62938 0.17314 0.0
C755 C 0.32422 0.62837 0.15355 0.0
C756 C 0.31325 0.60898 0.1433 0.0
C757 C 0.31373 0.59102 0.15276 0.0
C758 C 0.3478 0.64968 0.1844 0.0
C759 C 0.30066 0.60732 0.1225 0.0
C760 C 0.30471 0.68041 0.13964 0.0
C761 C 0.31894 0.68234 0.12305 0.0
C762 C 0.30656 0.6632 0.15008 0.0
C763 C 0.32321 0.6477 0.14395 0.0
C764 C 0.33814 0.65004 0.12782 0.0
C765 C 0.33575 0.66726 0.11745 0.0
C766 C 0.29021 0.66117 0.16708 0.0
C767 C 0.35629 0.63402 0.12107 0.0
H768 H 0.34426 0.61213 0.19752 0.0
H769 H 0.30515 0.57628 0.14495 0.0
H770 H 0.35942 0.65419 0.17295 0.0
H771 H 0.3365 0.66354 0.18948 0.0
H772 H 0.35662 0.64753 0.19904 0.0
H773 H 0.29315 0.59102 0.11649 0.0
H774 H 0.28787 0.6199 0.12526 0.0
H775 H 0.3113 0.61051 0.10956 0.0
H776 H 0.29165 0.69196 0.14404 0.0
H777 H 0.34689 0.66871 0.10472 0.0
H778 H 0.29834 0.66016 0.18244 0.0
H779 H 0.28092 0.64588 0.16131 0.0
H780 H 0.27884 0.67512 0.17071 0.0
H781 H 0.36547 0.63228 0.13562 0.0
H782 H 0.36747 0.63907 0.10952 0.0
H783 H 0.34973 0.6177 0.11315 0.0
C784 C 0.37021 0.08013 0.15304 0.0
C785 C 0.34927 0.07506 0.14541 0.0
C786 C 0.37842 0.1013 0.15584 0.0
C787 C 0.36544 0.11781 0.15076 0.0
C788 C 0.34463 0.11259 0.1421 0.0
C789 C 0.33676 0.09128 0.1396 0.0
C790 C 0.40068 0.10621 0.16517 0.0
C791 C 0.33039 0.1297 0.1363 0.0
C792 C 0.3785 0.17495 0.18347 0.0
C793 C 0.39178 0.18271 0.1691 0.0
C794 C 0.36917 0.15418 0.17737 0.0
C795 C 0.37308 0.14082 0.15629 0.0
C796 C 0.38556 0.14895 0.14128 0.0
C797 C 0.39483 0.16981 0.14788 0.0
C798 C 0.35594 0.14614 0.19387 0.0
C799 C 0.38985 0.13528 0.11858 0.0
H800 H 0.38002 0.0677 0.15752 0.0
H801 H 0.32059 0.08748 0.13358 0.0
H802 H 0.41036 0.1142 0.15459 0.0
H803 H 0.39967 0.11775 0.18146 0.0
H804 H 0.40922 0.09128 0.16696 0.0
H805 H 0.31563 0.12254 0.12759 0.0
H806 H 0.32563 0.14181 0.15139 0.0
H807 H 0.33917 0.13866 0.12591 0.0
H808 H 0.37592 0.18483 0.19985 0.0
H809 H 0.40498 0.17571 0.13663 0.0
H810 H 0.36415 0.13214 0.19817 0.0
H811 H 0.34011 0.14025 0.18683 0.0
H812 H 0.35331 0.15902 0.20907 0.0
H813 H 0.40026 0.12128 0.11952 0.0
H814 H 0.39788 0.14477 0.10815 0.0
H815 H 0.37466 0.12848 0.11061 0.0
C816 C 0.6463 0.8899 0.57324 0.0
C817 C 0.65984 0.88885 0.5907 0.0
C818 C 0.62717 0.8779 0.56958 0.0
C819 C 0.62148 0.86444 0.58366 0.0
C820 C 0.63502 0.86339 0.60139 0.0
C821 C 0.65408 0.87554 0.60465 0.0
C822 C 0.61305 0.87958 0.55063 0.0
C823 C 0.62925 0.84962 0.61706 0.0
C824 C 0.56318 0.84738 0.58466 0.0
C825 C 0.56375 0.82586 0.57192 0.0
C826 C 0.58185 0.86013 0.58868 0.0
C827 C 0.60154 0.85119 0.57959 0.0
C828 C 0.60222 0.82954 0.5666 0.0
C829 C 0.58332 0.81713 0.56291 0.0
C830 C 0.58057 0.88302 0.60296 0.0
C831 C 0.62299 0.81943 0.55683 0.0
H832 H 0.65055 0.90023 0.56245 0.0
H833 H 0.66438 0.87473 0.61827 0.0
H834 H 0.61182 0.86334 0.53912 0.0
H835 H 0.59659 0.88452 0.55635 0.0
H836 H 0.61925 0.89149 0.54177 0.0
H837 H 0.64123 0.85102 0.63036 0.0
H838 H 0.61336 0.85461 0.62446 0.0
H839 H 0.62799 0.83222 0.6082 0.0
H840 H 0.54815 0.85423 0.59177 0.0
H841 H 0.58394 0.80051 0.55306 0.0
H842 H 0.58628 0.89493 0.59387 0.0
H843 H 0.5912 0.88454 0.61735 0.0
H844 H 0.56401 0.88756 0.60877 0.0
H845 H 0.63038 0.8298 0.54694 0.0
H846 H 0.6207 0.80269 0.54644 0.0
H847 H 0.63451 0.81859 0.56998 0.0
C848 C 0.53076 0.95307 0.16834 0.0
C849 C 0.54276 0.96205 0.18717 0.0
C850 C 0.51543 0.93671 0.16821 0.0
C851 C 0.51207 0.9292 0.18735 0.0
C852 C 0.52398 0.93839 0.20644 0.0
C853 C 0.53914 0.95468 0.20611 0.0
C854 C 0.503 0.9273 0.14757 0.0
C855 C 0.52088 0.93084 0.22719 0.0
C856 C 0.46088 0.90008 0.19637 0.0
C857 C 0.46769 0.87827 0.1921 0.0
C858 C 0.47495 0.91676 0.19417 0.0
C859 C 0.49636 0.91152 0.18753 0.0
C860 C 0.50315 0.88947 0.18254 0.0
C861 C 0.48874 0.87311 0.18489 0.0
C862 C 0.4671 0.94008 0.19961 0.0
C863 C 0.52584 0.88321 0.17539 0.0
H864 H 0.53345 0.95867 0.15363 0.0
H865 H 0.5483 0.96152 0.22076 0.0
H866 H 0.50627 0.90956 0.14195 0.0
H867 H 0.48555 0.92921 0.15078 0.0
H868 H 0.50715 0.93525 0.13422 0.0
H869 H 0.5312 0.93988 0.24072 0.0
H870 H 0.5039 0.93302 0.23246 0.0
H871 H 0.52461 0.91318 0.22422 0.0
H872 H 0.44462 0.90422 0.20186 0.0
H873 H 0.49413 0.8563 0.18145 0.0
H874 H 0.47053 0.9478 0.18595 0.0
H875 H 0.47577 0.94962 0.21416 0.0
H876 H 0.44963 0.94128 0.20304 0.0
H877 H 0.53016 0.88997 0.16129 0.0
H878 H 0.52819 0.86524 0.17072 0.0
H879 H 0.53711 0.8903 0.18883 0.0
C880 C 0.28637 0.07705 0.63736 0.0
C881 C 0.28575 0.05423 0.63009 0.0
C882 C 0.30439 0.08896 0.63363 0.0
C883 C 0.32226 0.07778 0.62241 0.0
C884 C 0.32164 0.05479 0.61477 0.0
C885 C 0.30339 0.04329 0.61868 0.0
C886 C 0.30441 0.11348 0.64194 0.0
C887 C 0.34038 0.04229 0.60275 0.0
C888 C 0.36223 0.10985 0.59705 0.0
C889 C 0.37868 0.11383 0.6127 0.0
C890 C 0.3438 0.09812 0.59997 0.0
C891 C 0.34176 0.09014 0.61899 0.0
C892 C 0.35832 0.09405 0.63482 0.0
C893 C 0.37655 0.10586 0.6315 0.0
C894 C 0.32648 0.09432 0.58274 0.0
C895 C 0.35675 0.08576 0.6553 0.0
H896 H 0.27282 0.08564 0.64617 0.0
H897 H 0.30307 0.02566 0.61301 0.0
H898 H 0.31758 0.11851 0.65392 0.0
H899 H 0.30739 0.12134 0.62829 0.0
H900 H 0.28904 0.11975 0.64989 0.0
H901 H 0.33719 0.02448 0.59746 0.0
H902 H 0.34423 0.04842 0.58814 0.0
H903 H 0.35478 0.0449 0.61339 0.0
H904 H 0.36371 0.11594 0.58247 0.0
H905 H 0.38916 0.10884 0.64369 0.0
H906 H 0.31115 0.10149 0.58999 0.0
H907 H 0.3238 0.07655 0.57635 0.0
H908 H 0.33054 0.10155 0.56886 0.0
H909 H 0.34235 0.09271 0.66473 0.0
H910 H 0.37107 0.09005 0.66594 0.0
H911 H 0.3549 0.06775 0.65096 0.0
C912 C 0.41387 0.79774 0.8354 0.0
C913 C 0.41647 0.78962 0.81283 0.0
C914 C 0.39903 0.81443 0.84369 0.0
C915 C 0.38663 0.82325 0.82906 0.0
C916 C 0.38877 0.81468 0.8063 0.0
C917 C 0.4036 0.79795 0.79848 0.0
C918 C 0.39704 0.82304 0.86806 0.0
C919 C 0.37586 0.82365 0.79016 0.0
C920 C 0.33651 0.85688 0.84723 0.0
C921 C 0.34415 0.87819 0.84938 0.0
C922 C 0.35029 0.83882 0.84132 0.0
C923 C 0.37219 0.84218 0.83735 0.0
C924 C 0.3801 0.86368 0.84001 0.0
C925 C 0.366 0.88142 0.84604 0.0
C926 C 0.3413 0.81614 0.83876 0.0
C927 C 0.40335 0.86793 0.83584 0.0
H928 H 0.42369 0.79134 0.84659 0.0
H929 H 0.40543 0.79175 0.78102 0.0
H930 H 0.40243 0.84028 0.87276 0.0
H931 H 0.38003 0.82276 0.87309 0.0
H932 H 0.40671 0.81345 0.87724 0.0
H933 H 0.37876 0.81457 0.77303 0.0
H934 H 0.3585 0.82295 0.79367 0.0
H935 H 0.38003 0.84105 0.79176 0.0
H936 H 0.31966 0.85425 0.84988 0.0
H937 H 0.37206 0.89783 0.8477 0.0
H938 H 0.35088 0.80701 0.84844 0.0
H939 H 0.34234 0.80703 0.82142 0.0
H940 H 0.3243 0.81638 0.84399 0.0
H941 H 0.41388 0.85995 0.84579 0.0
H942 H 0.40717 0.88563 0.83967 0.0
H943 H 0.40724 0.86075 0.81845 0.0
C944 C 0.36595 0.87959 0.41886 0.0
C945 C 0.38108 0.8758 0.40193 0.0
C946 C 0.34861 0.89385 0.41904 0.0
C947 C 0.34633 0.90459 0.40189 0.0
C948 C 0.36155 0.90084 0.38478 0.0
C949 C 0.37871 0.88649 0.38499 0.0
C950 C 0.33271 0.8974 0.43755 0.0
C951 C 0.3597 0.912 0.36621 0.0
C952 C 0.29209 0.92646 0.38968 0.0
C953 C 0.29433 0.9489 0.39892 0.0
C954 C 0.30869 0.91178 0.39098 0.0
C955 C 0.32803 0.91973 0.40174 0.0
C956 C 0.33019 0.94227 0.41161 0.0
C957 C 0.31331 0.95658 0.4101 0.0
C958 C 0.30574 0.88784 0.38034 0.0
C959 C 0.35055 0.95137 0.42326 0.0
H960 H 0.36763 0.87141 0.43202 0.0
H961 H 0.39029 0.88367 0.37184 0.0
H962 H 0.33216 0.91495 0.44607 0.0
H963 H 0.3164 0.89275 0.43107 0.0
H964 H 0.33673 0.88781 0.44964 0.0
H965 H 0.37289 0.90739 0.35419 0.0
H966 H 0.3442 0.90772 0.35761 0.0
H967 H 0.35991 0.92998 0.37266 0.0
H968 H 0.27748 0.92036 0.38104 0.0
H969 H 0.31521 0.97389 0.41729 0.0
H970 H 0.30884 0.87791 0.39232 0.0
H971 H 0.31748 0.88269 0.36691 0.0
H972 H 0.28935 0.88412 0.37356 0.0
H973 H 0.35454 0.94266 0.43606 0.0
H974 H 0.34931 0.96911 0.43097 0.0
H975 H 0.36408 0.94875 0.41153 0.0
C976 C 0.54413 0.0584 0.84094 0.0
C977 C 0.55062 0.04468 0.82105 0.0
C978 C 0.52895 0.07501 0.84153 0.0
C979 C 0.52024 0.07806 0.82175 0.0
C980 C 0.5264 0.06398 0.80169 0.0
C981 C 0.5414 0.04742 0.80159 0.0
C982 C 0.52256 0.08955 0.86325 0.0
C983 C 0.51758 0.06677 0.78022 0.0
C984 C 0.46904 0.11006 0.81952 0.0
C985 C 0.47712 0.13009 0.81712 0.0
C986 C 0.48288 0.09325 0.82198 0.0
C987 C 0.50532 0.09648 0.82177 0.0
C988 C 0.51355 0.11687 0.81996 0.0
C989 C 0.49935 0.13346 0.81778 0.0
C990 C 0.47351 0.07183 0.82414 0.0
C991 C 0.53738 0.12089 0.8195 0.0
H992 H 0.5511 0.05634 0.85605 0.0
H993 H 0.54628 0.03692 0.78613 0.0
H994 H 0.52777 0.10654 0.86414 0.0
H995 H 0.50487 0.08981 0.86497 0.0
H996 H 0.52974 0.08417 0.8772 0.0
H997 H 0.5236 0.0541 0.7661 0.0
H998 H 0.49983 0.06602 0.78029 0.0
H999 H 0.52211 0.08306 0.7779 0.0
H1000 H 0.45188 0.10739 0.81919 0.0
H1001 H 0.50572 0.14889 0.81595 0.0
H1002 H 0.48053 0.06705 0.83846 0.0
H1003 H 0.47755 0.0588 0.80949 0.0
H1004 H 0.4558 0.07259 0.82594 0.0
H1005 H 0.54521 0.11716 0.83397 0.0
H1006 H 0.54118 0.13801 0.81921 0.0
H1007 H 0.54449 0.10985 0.80482 0.0
C1008 C 0.5768 0.17584 0.40431 0.0
C1009 C 0.5561 0.16711 0.4003 0.0
C1010 C 0.59499 0.16285 0.39776 0.0
C1011 C 0.59244 0.14056 0.38708 0.0
C1012 C 0.57163 0.13146 0.38365 0.0
C1013 C 0.5537 0.14487 0.39022 0.0
C1014 C 0.61694 0.17312 0.40179 0.0
C1015 C 0.56829 0.10769 0.37256 0.0
C1016 C 0.63714 0.11342 0.34948 0.0
C1017 C 0.64827 0.10217 0.36271 0.0
C1018 C 0.6189 0.12588 0.3572 0.0
C1019 C 0.61153 0.12704 0.37865 0.0
C1020 C 0.62258 0.1156 0.39204 0.0
C1021 C 0.64083 0.1033 0.38391 0.0
C1022 C 0.60763 0.13797 0.34248 0.0
C1023 C 0.61508 0.11625 0.4149 0.0
H1024 H 0.57881 0.193 0.41212 0.0
H1025 H 0.53777 0.13797 0.38717 0.0
H1026 H 0.62695 0.16404 0.41118 0.0
H1027 H 0.62511 0.17213 0.38599 0.0
H1028 H 0.61621 0.19051 0.41089 0.0
H1029 H 0.55115 0.10287 0.37217 0.0
H1030 H 0.5743 0.10436 0.35556 0.0
H1031 H 0.57758 0.09724 0.3811 0.0
H1032 H 0.64275 0.11262 0.33307 0.0
H1033 H 0.64925 0.09455 0.39421 0.0
H1034 H 0.60759 0.15574 0.35015 0.0
H1035 H 0.59066 0.13266 0.34018 0.0
H1036 H 0.61532 0.13528 0.3262 0.0
H1037 H 0.61231 0.13334 0.42408 0.0
H1038 H 0.62674 0.10855 0.42407 0.0
H1039 H 0.59956 0.10753 0.41417 0.0
C1040 C 0.07285 0.40282 0.22132 0.0
C1041 C 0.09237 0.40445 0.23263 0.0
C1042 C 0.07043 0.38826 0.20081 0.0
C1043 C 0.08811 0.37543 0.1912 0.0
C1044 C 0.10767 0.37659 0.2028 0.0
C1045 C 0.10949 0.39093 0.22349 0.0
C1046 C 0.04916 0.38709 0.18915 0.0
C1047 C 0.12699 0.36345 0.19296 0.0
C1048 C 0.07931 0.32714 0.14275 0.0
C1049 C 0.08342 0.33654 0.12517 0.0
C1050 C 0.08058 0.33963 0.16436 0.0
C1051 C 0.08657 0.36188 0.16845 0.0
C1052 C 0.09109 0.37132 0.15076 0.0
C1053 C 0.08923 0.3586 0.12933 0.0
C1054 C 0.07523 0.32912 0.18279 0.0
C1055 C 0.09795 0.39488 0.15446 0.0
H1056 H 0.05952 0.41313 0.22838 0.0
H1057 H 0.12466 0.39222 0.2321 0.0
H1058 H 0.0509 0.3936 0.17442 0.0
H1059 H 0.04384 0.36987 0.1836 0.0
H1060 H 0.03649 0.39657 0.19966 0.0
H1061 H 0.14068 0.36538 0.20454 0.0
H1062 H 0.12285 0.34588 0.18769 0.0
H1063 H 0.1322 0.36871 0.17822 0.0
H1064 H 0.07465 0.31013 0.13959 0.0
H1065 H 0.09253 0.36589 0.11579 0.0
H1066 H 0.06176 0.33799 0.19251 0.0
H1067 H 0.08915 0.33021 0.19394 0.0
H1068 H 0.07068 0.31168 0.17685 0.0
H1069 H 0.08511 0.40575 0.16308 0.0
H1070 H 0.10157 0.39952 0.13895 0.0
H1071 H 0.11242 0.39785 0.165 0.0
C1072 C 0.08485 0.59029 0.79402 0.0
C1073 C 0.07194 0.5729 0.78305 0.0
C1074 C 0.08512 0.59679 0.81689 0.0
C1075 C 0.07193 0.58585 0.82906 0.0
C1076 C 0.05785 0.56923 0.81804 0.0
C1077 C 0.05814 0.56282 0.79515 0.0
C1078 C 0.1005 0.61447 0.82801 0.0
C1079 C 0.04324 0.55746 0.83044 0.0
C1080 C 0.09215 0.58257 0.88487 0.0
C1081 C 0.08056 0.59931 0.89877 0.0
C1082 C 0.0894 0.57803 0.86219 0.0
C1083 C 0.07444 0.5903 0.85316 0.0
C1084 C 0.06238 0.60697 0.86711 0.0
C1085 C 0.06571 0.6114 0.88978 0.0
C1086 C 0.10276 0.56029 0.84785 0.0
C1087 C 0.04607 0.62016 0.8581 0.0
H1088 H 0.09559 0.59814 0.78479 0.0
H1089 H 0.04801 0.54948 0.78677 0.0
H1090 H 0.09206 0.62699 0.84057 0.0
H1091 H 0.11317 0.60727 0.83648 0.0
H1092 H 0.1083 0.62263 0.8163 0.0
H1093 H 0.03147 0.54689 0.81957 0.0
H1094 H 0.05294 0.54711 0.83873 0.0
H1095 H 0.03439 0.56935 0.84326 0.0
H1096 H 0.10371 0.57322 0.89169 0.0
H1097 H 0.05662 0.62429 0.90045 0.0
H1098 H 0.1125 0.56725 0.83648 0.0
H1099 H 0.0922 0.54765 0.83779 0.0
H1100 H 0.11372 0.55229 0.85744 0.0
H1101 H 0.0541 0.62933 0.84741 0.0
H1102 H 0.0374 0.63196 0.87118 0.0
H1103 H 0.0342 0.60913 0.8479 0.0
C1104 C 0.84135 0.71354 0.56028 0.0
C1105 C 0.81961 0.70933 0.56315 0.0
C1106 C 0.85579 0.717 0.57786 0.0
C1107 C 0.84829 0.71631 0.59883 0.0
C1108 C 0.82649 0.7115 0.60171 0.0
C1109 C 0.81243 0.70802 0.58384 0.0
C1110 C 0.87896 0.72192 0.57411 0.0
C1111 C 0.81789 0.71061 0.62382 0.0
C1112 C 0.88825 0.70939 0.64217 0.0
C1113 C 0.89056 0.73093 0.6546 0.0
C1114 C 0.87467 0.7044 0.62389 0.0
C1115 C 0.86307 0.72135 0.61791 0.0
C1116 C 0.86541 0.74313 0.6303 0.0
C1117 C 0.87913 0.74766 0.64847 0.0
C1118 C 0.87264 0.68099 0.61106 0.0
C1119 C 0.85329 0.76164 0.62443 0.0
H1120 H 0.84705 0.71455 0.54435 0.0
H1121 H 0.79566 0.7048 0.58622 0.0
H1122 H 0.88301 0.73862 0.58362 0.0
H1123 H 0.88961 0.71042 0.57993 0.0
H1124 H 0.88246 0.7208 0.55663 0.0
H1125 H 0.80074 0.7058 0.62316 0.0
H1126 H 0.82728 0.69882 0.63058 0.0
H1127 H 0.81961 0.72685 0.63533 0.0
H1128 H 0.89703 0.69634 0.64674 0.0
H1129 H 0.88081 0.76434 0.65796 0.0
H1130 H 0.87704 0.67963 0.59376 0.0
H1131 H 0.85576 0.67553 0.61124 0.0
H1132 H 0.88299 0.66976 0.61766 0.0
H1133 H 0.85725 0.76246 0.60753 0.0
H1134 H 0.857 0.77768 0.63563 0.0
H1135 H 0.83579 0.7587 0.62495 0.0
C1136 C 0.81122 0.28633 0.87804 0.0
C1137 C 0.80706 0.2964 0.89997 0.0
C1138 C 0.80848 0.29773 0.86167 0.0
C1139 C 0.80095 0.31953 0.86732 0.0
C1140 C 0.79632 0.32961 0.88939 0.0
C1141 C 0.79967 0.31801 0.90548 0.0
C1142 C 0.81399 0.28657 0.83838 0.0
C1143 C 0.78783 0.35267 0.89602 0.0
C1144 C 0.81162 0.35762 0.83021 0.0
C1145 C 0.79217 0.3566 0.81886 0.0
C1146 C 0.81487 0.34523 0.84566 0.0
C1147 C 0.79809 0.33191 0.85022 0.0
C1148 C 0.77842 0.33081 0.83879 0.0
C1149 C 0.77579 0.34299 0.82306 0.0
C1150 C 0.83623 0.34647 0.85718 0.0
C1151 C 0.76001 0.31713 0.8435 0.0
H1152 H 0.81707 0.26968 0.87372 0.0
H1153 H 0.79631 0.32581 0.9224 0.0
H1154 H 0.79972 0.2861 0.82777 0.0
H1155 H 0.82657 0.29597 0.83225 0.0
H1156 H 0.81981 0.26961 0.83671 0.0
H1157 H 0.78426 0.35785 0.91374 0.0
H1158 H 0.79971 0.36414 0.89196 0.0
H1159 H 0.77298 0.3541 0.88677 0.0
H1160 H 0.82438 0.36802 0.82691 0.0
H1161 H 0.76068 0.34225 0.81442 0.0
H1162 H 0.84306 0.32986 0.85507 0.0
H1163 H 0.83405 0.35334 0.87493 0.0
H1164 H 0.84796 0.35676 0.85099 0.0
H1165 H 0.76502 0.29982 0.84079 0.0
H1166 H 0.74579 0.31799 0.83313 0.0
H1167 H 0.75526 0.32274 0.86087 0.0
C1168 C 0.08188 0.34087 0.61059 0.0
C1169 C 0.08671 0.36303 0.61294 0.0
C1170 C 0.06944 0.33397 0.62616 0.0
C1171 C 0.06169 0.34959 0.64455 0.0
C1172 C 0.06614 0.372 0.6468 0.0
C1173 C 0.07858 0.37845 0.63096 0.0
C1174 C 0.06495 0.30992 0.62317 0.0
C1175 C 0.05813 0.38913 0.66619 0.0
C1176 C 0.01601 0.33338 0.67712 0.0
C1177 C 0.02707 0.32795 0.69446 0.0
C1178 C 0.02705 0.34055 0.66078 0.0
C1179 C 0.04966 0.34238 0.66187 0.0
C1180 C 0.06087 0.33716 0.67944 0.0
C1181 C 0.04945 0.32998 0.69551 0.0
C1182 C 0.01457 0.34595 0.64226 0.0
C1183 C 0.08498 0.339 0.6812 0.0
H1184 H 0.08804 0.32885 0.59668 0.0
H1185 H 0.08218 0.39561 0.6329 0.0
H1186 H 0.07226 0.30409 0.63677 0.0
H1187 H 0.04744 0.30709 0.62364 0.0
H1188 H 0.07138 0.29997 0.60752 0.0
H1189 H 0.06227 0.40594 0.66508 0.0
H1190 H 0.04048 0.38794 0.66756 0.0
H1191 H 0.06519 0.38628 0.68141 0.0
H1192 H -0.00128 0.33182 0.67618 0.0
H1193 H 0.05812 0.32585 0.70885 0.0
H1194 H 0.0198 0.33522 0.62651 0.0
H1195 H 0.01782 0.36302 0.64148 0.0
H1196 H -0.00299 0.34395 0.64396 0.0
H1197 H 0.09249 0.32809 0.66669 0.0
H1198 H 0.09125 0.33462 0.69606 0.0
H1199 H 0.09004 0.35591 0.6815 0.0
C1200 C 0.84129 0.63227 0.10707 0.0
C1201 C 0.82704 0.6399 0.12437 0.0
C1202 C 0.84152 0.64136 0.08884 0.0
C1203 C 0.82686 0.65819 0.08771 0.0
C1204 C 0.81229 0.66581 0.10504 0.0
C1205 C 0.8127 0.65672 0.12326 0.0
C1206 C 0.85756 0.63308 0.07088 0.0
C1207 C 0.79615 0.68344 0.10425 0.0
C1208 C 0.83829 0.69582 0.05025 0.0
C1209 C 0.82586 0.68637 0.03189 0.0
C1210 C 0.83903 0.68662 0.0684 0.0
C1211 C 0.82669 0.66779 0.06836 0.0
C1212 C 0.81401 0.65826 0.04991 0.0
C1213 C 0.81392 0.66754 0.03181 0.0
C1214 C 0.85305 0.69702 0.0876 0.0
C1215 C 0.80034 0.63841 0.0494 0.0
H1216 H 0.8525 0.61936 0.10791 0.0
H1217 H 0.80156 0.66261 0.13653 0.0
H1218 H 0.84908 0.62628 0.05527 0.0
H1219 H 0.86766 0.64677 0.06847 0.0
H1220 H 0.86818 0.62024 0.07446 0.0
H1221 H 0.78564 0.68724 0.11887 0.0
H1222 H 0.80454 0.6986 0.10306 0.0
H1223 H 0.78594 0.67831 0.0895 0.0
H1224 H 0.84765 0.7103 0.05035 0.0
H1225 H 0.80418 0.66024 0.01772 0.0
H1226 H 0.86459 0.68485 0.09096 0.0
H1227 H 0.84308 0.70259 0.10242 0.0
H1228 H 0.86216 0.71122 0.0848 0.0
H1229 H 0.81055 0.62465 0.05148 0.0
H1230 H 0.79122 0.63311 0.0339 0.0
H1231 H 0.78882 0.64197 0.06316 0.0
C1232 C 0.88959 0.28574 0.35257 0.0
C1233 C 0.89403 0.26569 0.33794 0.0
C1234 C 0.87635 0.28688 0.37075 0.0
C1235 C 0.86731 0.26751 0.37438 0.0
C1236 C 0.87165 0.24723 0.35964 0.0
C1237 C 0.88498 0.24656 0.34161 0.0
C1238 C 0.87209 0.3088 0.38611 0.0
C1239 C 0.86226 0.22622 0.36297 0.0
C1240 C 0.84916 0.26654 0.43151 0.0
C1241 C 0.8269 0.26903 0.43001 0.0
C1242 C 0.86252 0.26624 0.41358 0.0
C1243 C 0.8534 0.26842 0.39367 0.0
C1244 C 0.83099 0.2712 0.39213 0.0
C1245 C 0.81801 0.2715 0.41032 0.0
C1246 C 0.88637 0.26333 0.41588 0.0
C1247 C 0.8207 0.2736 0.37117 0.0
H1248 H 0.89651 0.30062 0.34988 0.0
H1249 H 0.8883 0.231 0.33038 0.0
H1250 H 0.85461 0.31214 0.38709 0.0
H1251 H 0.87763 0.30868 0.40278 0.0
H1252 H 0.88025 0.32234 0.38092 0.0
H1253 H 0.86707 0.21183 0.34993 0.0
H1254 H 0.86752 0.22359 0.37893 0.0
H1255 H 0.84451 0.22727 0.36332 0.0
H1256 H 0.85617 0.26464 0.44666 0.0
H1257 H 0.80083 0.27341 0.40902 0.0
H1258 H 0.89509 0.27717 0.41187 0.0
H1259 H 0.89175 0.24822 0.40416 0.0
H1260 H 0.89097 0.26231 0.4326 0.0
H1261 H 0.82779 0.28768 0.36603 0.0
H1262 H 0.80308 0.27602 0.37276 0.0
H1263 H 0.82388 0.25882 0.35796 0.0
C1264 C 0.08804 0.61239 0.34134 0.0
C1265 C 0.09498 0.62688 0.36062 0.0
C1266 C 0.07548 0.61969 0.32603 0.0
C1267 C 0.06972 0.64199 0.33011 0.0
C1268 C 0.07671 0.65671 0.3495 0.0
C1269 C 0.08926 0.64899 0.36452 0.0
C1270 C 0.06835 0.60352 0.30552 0.0
C1271 C 0.07087 0.68062 0.35443 0.0
C1272 C 0.05337 0.66637 0.28306 0.0
C1273 C 0.03098 0.66708 0.28508 0.0
C1274 C 0.06616 0.65789 0.29738 0.0
C1275 C 0.05633 0.64999 0.31414 0.0
C1276 C 0.03372 0.6503 0.31603 0.0
C1277 C 0.02131 0.65882 0.30146 0.0
C1278 C 0.09022 0.65776 0.29481 0.0
C1279 C 0.02266 0.64202 0.33372 0.0
H1280 H 0.09238 0.59529 0.33819 0.0
H1281 H 0.09454 0.6603 0.37936 0.0
H1282 H 0.05059 0.60307 0.30464 0.0
H1283 H 0.07416 0.6087 0.29096 0.0
H1284 H 0.07432 0.58676 0.30472 0.0
H1285 H 0.07764 0.68994 0.37021 0.0
H1286 H 0.07681 0.68796 0.34126 0.0
H1287 H 0.05319 0.68251 0.35499 0.0
H1288 H 0.06097 0.67268 0.27043 0.0
H1289 H 0.00403 0.65931 0.30314 0.0
H1290 H 0.09653 0.64098 0.29303 0.0
H1291 H 0.09768 0.66821 0.30964 0.0
H1292 H 0.09532 0.66376 0.28044 0.0
H1293 H 0.02746 0.62489 0.33279 0.0
H1294 H 0.00492 0.64274 0.33253 0.0
H1295 H 0.02767 0.65189 0.34997 0.0
C1296 C 0.39248 0.18461 0.4396 0.0
C1297 C 0.39672 0.20709 0.444 0.0
C1298 C 0.37193 0.17686 0.44284 0.0
C1299 C 0.35527 0.19194 0.45063 0.0
C1300 C 0.35975 0.21459 0.45616 0.0
C1301 C 0.38041 0.22188 0.4528 0.0
C1302 C 0.36782 0.15258 0.43695 0.0
C1303 C 0.34246 0.23122 0.46463 0.0
C1304 C 0.29754 0.17784 0.43433 0.0
C1305 C 0.28882 0.17447 0.45371 0.0
C1306 C 0.31933 0.18276 0.43291 0.0
C1307 C 0.33277 0.18433 0.45131 0.0
C1308 C 0.32429 0.18009 0.47065 0.0
C1309 C 0.30239 0.17523 0.47164 0.0
C1310 C 0.32776 0.1871 0.41195 0.0
C1311 C 0.33816 0.18148 0.49055 0.0
H1312 H 0.40501 0.17305 0.43288 0.0
H1313 H 0.38355 0.23927 0.45641 0.0
H1314 H 0.35923 0.14763 0.45035 0.0
H1315 H 0.35741 0.14831 0.42227 0.0
H1316 H 0.38288 0.14299 0.43345 0.0
H1317 H 0.34891 0.24809 0.46971 0.0
H1318 H 0.33024 0.23071 0.45173 0.0
H1319 H 0.33421 0.22731 0.47876 0.0
H1320 H 0.28721 0.17719 0.42037 0.0
H1321 H 0.29581 0.17259 0.48666 0.0
H1322 H 0.34197 0.17673 0.40627 0.0
H1323 H 0.33299 0.20437 0.41486 0.0
H1324 H 0.31555 0.18395 0.39875 0.0
H1325 H 0.35293 0.17163 0.48612 0.0
H1326 H 0.32966 0.17571 0.50356 0.0
H1327 H 0.3432 0.19864 0.49725 0.0
C1328 C 0.38404 0.5494 0.76703 0.0
C1329 C 0.37133 0.5484 0.78508 0.0
C1330 C 0.39655 0.56789 0.76702 0.0
C1331 C 0.39647 0.58573 0.78556 0.0
C1332 C 0.38446 0.58439 0.8042 0.0
C1333 C 0.372 0.56578 0.80371 0.0
C1334 C 0.4091 0.56871 0.74682 0.0
C1335 C 0.38412 0.60298 0.82437 0.0
C1336 C 0.43939 0.6296 0.79177 0.0
C1337 C 0.42835 0.64621 0.78501 0.0
C1338 C 0.4293 0.60974 0.7919 0.0
C1339 C 0.40772 0.60637 0.78497 0.0
C1340 C 0.39661 0.62295 0.77781 0.0
C1341 C 0.40703 0.64268 0.778 0.0
C1342 C 0.44162 0.59249 0.79976 0.0
C1343 C 0.37362 0.61993 0.77015 0.0
H1344 H 0.38364 0.53605 0.75256 0.0
H1345 H 0.36234 0.5651 0.81778 0.0
H1346 H 0.40231 0.58151 0.73941 0.0
H1347 H 0.42603 0.57318 0.7511 0.0
H1348 H 0.40879 0.5529 0.73442 0.0
H1349 H 0.37537 0.5987 0.83807 0.0
H1350 H 0.40071 0.60784 0.82978 0.0
H1351 H 0.37626 0.61741 0.82056 0.0
H1352 H 0.45586 0.63221 0.79725 0.0
H1353 H 0.3984 0.65539 0.77267 0.0
H1354 H 0.4418 0.57701 0.78692 0.0
H1355 H 0.43358 0.58907 0.81423 0.0
H1356 H 0.45843 0.59746 0.8042 0.0
H1357 H 0.37218 0.60516 0.75653 0.0
H1358 H 0.36745 0.63418 0.76453 0.0
H1359 H 0.36326 0.61742 0.78359 0.0
C1360 C 0.6306 0.87454 0.49459 0.0
C1361 C 0.64591 0.86446 0.50519 0.0
C1362 C 0.61197 0.86344 0.48565 0.0
C1363 C 0.60857 0.84173 0.48729 0.0
C1364 C 0.62422 0.83125 0.49745 0.0
C1365 C 0.64271 0.84274 0.50627 0.0
C1366 C 0.59575 0.87507 0.47471 0.0
C1367 C 0.62123 0.80805 0.49934 0.0
C1368 C 0.55101 0.82151 0.48341 0.0
C1369 C 0.55021 0.80855 0.46203 0.0
C1370 C 0.57002 0.83207 0.49199 0.0
C1371 C 0.58849 0.83008 0.47863 0.0
C1372 C 0.58771 0.81713 0.45696 0.0
C1373 C 0.56864 0.80627 0.44902 0.0
C1374 C 0.5704 0.84513 0.5154 0.0
C1375 C 0.60692 0.81496 0.44209 0.0
H1376 H 0.63296 0.89129 0.49363 0.0
H1377 H 0.65452 0.83477 0.5143 0.0
H1378 H 0.59245 0.86536 0.4579 0.0
H1379 H 0.5804 0.87675 0.4838 0.0
H1380 H 0.60124 0.89159 0.47387 0.0
H1381 H 0.63513 0.80207 0.50727 0.0
H1382 H 0.60658 0.80693 0.50896 0.0
H1383 H 0.61888 0.79702 0.48296 0.0
H1384 H 0.53683 0.82309 0.49358 0.0
H1385 H 0.56802 0.79634 0.43243 0.0
H1386 H 0.57526 0.86221 0.51622 0.0
H1387 H 0.58243 0.83807 0.52468 0.0
H1388 H 0.55461 0.84529 0.52353 0.0
H1389 H 0.6118 0.8313 0.44018 0.0
H1390 H 0.60367 0.80428 0.42567 0.0
H1391 H 0.62071 0.80814 0.44937 0.0
C1392 C 0.5266 0.4033 0.8046 0.0
C1393 C 0.52043 0.41817 0.7924 0.0
C1394 C 0.51599 0.3833 0.80227 0.0
C1395 C 0.49876 0.37795 0.78733 0.0
C1396 C 0.49212 0.39305 0.77529 0.0
C1397 C 0.50301 0.41302 0.77799 0.0
C1398 C 0.5235 0.36769 0.8155 0.0
C1399 C 0.47381 0.38791 0.75921 0.0
C1400 C 0.4875 0.31733 0.76673 0.0
C1401 C 0.47045 0.31431 0.78015 0.0
C1402 C 0.49644 0.33809 0.76845 0.0
C1403 C 0.48818 0.35626 0.784 0.0
C1404 C 0.47062 0.35343 0.7972 0.0
C1405 C 0.46195 0.3325 0.7951 0.0
C1406 C 0.51511 0.34046 0.75401 0.0
C1407 C 0.46139 0.37241 0.81399 0.0
H1408 H 0.53998 0.40715 0.81584 0.0
H1409 H 0.49815 0.42439 0.76848 0.0
H1410 H 0.50998 0.36337 0.82505 0.0
H1411 H 0.52926 0.35234 0.80444 0.0
H1412 H 0.53667 0.37462 0.82694 0.0
H1413 H 0.47005 0.40173 0.75177 0.0
H1414 H 0.47788 0.37342 0.74599 0.0
H1415 H 0.45922 0.38378 0.7674 0.0
H1416 H 0.49411 0.30341 0.75506 0.0
H1417 H 0.44874 0.33036 0.80551 0.0
H1418 H 0.52957 0.34568 0.76418 0.0
H1419 H 0.51165 0.35328 0.74516 0.0
H1420 H 0.51884 0.32499 0.74189 0.0
H1421 H 0.47361 0.37886 0.82669 0.0
H1422 H 0.44694 0.36773 0.82206 0.0
H1423 H 0.45706 0.38586 0.80628 0.0
C1424 C 0.39358 0.77966 0.53137 0.0
C1425 C 0.40745 0.79659 0.54145 0.0
C1426 C 0.37283 0.78408 0.52502 0.0
C1427 C 0.36573 0.80598 0.5288 0.0
C1428 C 0.37997 0.8232 0.53801 0.0
C1429 C 0.40068 0.8183 0.54424 0.0
C1430 C 0.35818 0.76525 0.51512 0.0
C1431 C 0.37302 0.84675 0.54217 0.0
C1432 C 0.31452 0.81573 0.49976 0.0
C1433 C 0.29904 0.81583 0.5159 0.0
C1434 C 0.33639 0.81318 0.50388 0.0
C1435 C 0.34292 0.81064 0.52461 0.0
C1436 C 0.32744 0.81135 0.54113 0.0
C1437 C 0.30571 0.81394 0.53658 0.0
C1438 C 0.35244 0.81261 0.48589 0.0
C1439 C 0.33376 0.80874 0.56347 0.0
H1440 H 0.3987 0.76284 0.52901 0.0
H1441 H 0.4113 0.8315 0.55194 0.0
H1442 H 0.34466 0.76477 0.52638 0.0
H1443 H 0.35123 0.76746 0.49961 0.0
H1444 H 0.36661 0.74928 0.51182 0.0
H1445 H 0.38657 0.85823 0.54747 0.0
H1446 H 0.36578 0.85008 0.52724 0.0
H1447 H 0.36057 0.8501 0.55506 0.0
H1448 H 0.30952 0.81725 0.48375 0.0
H1449 H 0.2939 0.81407 0.54917 0.0
H1450 H 0.35982 0.79616 0.48102 0.0
H1451 H 0.36555 0.82444 0.49175 0.0
H1452 H 0.34499 0.81643 0.47125 0.0
H1453 H 0.3408 0.79232 0.56207 0.0
H1454 H 0.31992 0.81073 0.57482 0.0
H1455 H 0.34618 0.82092 0.57069 0.0
C1456 C 0.52924 0.60247 0.22805 0.0
C1457 C 0.54051 0.59571 0.20837 0.0
C1458 C 0.51565 0.62077 0.23179 0.0
C1459 C 0.51325 0.63253 0.21545 0.0
C1460 C 0.52396 0.62527 0.19526 0.0
C1461 C 0.53745 0.60699 0.19198 0.0
C1462 C 0.50444 0.62797 0.25351 0.0
C1463 C 0.52173 0.63727 0.17735 0.0
C1464 C 0.46714 0.67232 0.21695 0.0
C1465 C 0.47729 0.69249 0.22506 0.0
C1466 C 0.47849 0.65261 0.21421 0.0
C1467 C 0.50051 0.65308 0.21976 0.0
C1468 C 0.5107 0.67335 0.22847 0.0
C1469 C 0.49898 0.69279 0.231 0.0
C1470 C 0.46707 0.63132 0.20488 0.0
C1471 C 0.53414 0.67455 0.23464 0.0
H1472 H 0.53149 0.59386 0.24081 0.0
H1473 H 0.54599 0.60183 0.17667 0.0
H1474 H 0.5107 0.64412 0.2624 0.0
H1475 H 0.48701 0.62992 0.25103 0.0
H1476 H 0.50675 0.61622 0.26389 0.0
H1477 H 0.53014 0.62881 0.16217 0.0
H1478 H 0.50457 0.63901 0.17349 0.0
H1479 H 0.52845 0.65396 0.18293 0.0
H1480 H 0.45037 0.6719 0.21236 0.0
H1481 H 0.50695 0.70827 0.23737 0.0
H1482 H 0.46917 0.62007 0.21578 0.0
H1483 H 0.47417 0.62325 0.18888 0.0
H1484 H 0.44965 0.63366 0.20257 0.0
H1485 H 0.53736 0.66429 0.24631 0.0
H1486 H 0.53942 0.6915 0.24215 0.0
H1487 H 0.54402 0.66802 0.21993 0.0
C1488 C 0.63721 0.11858 0.48354 0.0
C1489 C 0.64789 0.10727 0.49703 0.0
C1490 C 0.61821 0.13012 0.49036 0.0
C1491 C 0.60947 0.13005 0.51103 0.0
C1492 C 0.62028 0.11885 0.5248 0.0
C1493 C 0.63938 0.10765 0.51766 0.0
C1494 C 0.60733 0.14187 0.47509 0.0
C1495 C 0.61156 0.11852 0.54701 0.0
C1496 C 0.56901 0.17359 0.53697 0.0
C1497 C 0.54959 0.16216 0.53259 0.0
C1498 C 0.58861 0.16339 0.52993 0.0
C1499 C 0.5888 0.14126 0.51815 0.0
C1500 C 0.56925 0.12973 0.51344 0.0
C1501 C 0.54988 0.14028 0.52079 0.0
C1502 C 0.60913 0.17629 0.53498 0.0
C1503 C 0.56879 0.10623 0.50059 0.0
H1504 H 0.64365 0.11841 0.46757 0.0
H1505 H 0.64752 0.099 0.52822 0.0
H1506 H 0.59482 0.13109 0.46565 0.0
H1507 H 0.59946 0.15715 0.48405 0.0
H1508 H 0.61892 0.14598 0.46337 0.0
H1509 H 0.62215 0.10948 0.55595 0.0
H1510 H 0.60957 0.13544 0.557 0.0
H1511 H 0.5955 0.11075 0.54525 0.0
H1512 H 0.56892 0.19053 0.54601 0.0
H1513 H 0.53495 0.13137 0.51721 0.0
H1514 H 0.61751 0.17661 0.51958 0.0
H1515 H 0.62003 0.16828 0.54459 0.0
H1516 H 0.60627 0.19336 0.5443 0.0
H1517 H 0.57617 0.10484 0.48434 0.0
H1518 H 0.55226 0.09956 0.49824 0.0
H1519 H 0.57841 0.096 0.5091 0.0
C1520 C 0.37796 0.44306 0.21536 0.0
C1521 C 0.36485 0.44606 0.19822 0.0
C1522 C 0.38902 0.42338 0.21388 0.0
C1523 C 0.38707 0.40635 0.19475 0.0
C1524 C 0.37462 0.40962 0.17704 0.0
C1525 C 0.36361 0.4294 0.17902 0.0
C1526 C 0.40209 0.42049 0.23314 0.0
C1527 C 0.37233 0.39194 0.15628 0.0
C1528 C 0.42706 0.35947 0.18481 0.0
C1529 C 0.41534 0.34324 0.19147 0.0
C1530 C 0.4181 0.38011 0.18579 0.0
C1531 C 0.39698 0.38467 0.19374 0.0
C1532 C 0.38514 0.36841 0.20063 0.0
C1533 C 0.39443 0.34789 0.19934 0.0
C1534 C 0.43116 0.39699 0.17818 0.0
C1535 C 0.36262 0.37269 0.20936 0.0
H1536 H 0.37902 0.45583 0.23026 0.0
H1537 H 0.35362 0.43161 0.16565 0.0
H1538 H 0.39478 0.40759 0.24002 0.0
H1539 H 0.41857 0.41507 0.22789 0.0
H1540 H 0.4031 0.43576 0.24625 0.0
H1541 H 0.36339 0.39762 0.14345 0.0
H1542 H 0.38835 0.38608 0.14982 0.0
H1543 H 0.36371 0.37778 0.15975 0.0
H1544 H 0.44322 0.35601 0.17868 0.0
H1545 H 0.38529 0.33548 0.20458 0.0
H1546 H 0.43293 0.41187 0.19162 0.0
H1547 H 0.42274 0.4019 0.16461 0.0
H1548 H 0.44737 0.39091 0.1725 0.0
H1549 H 0.36252 0.38692 0.22364 0.0
H1550 H 0.35571 0.35843 0.21437 0.0
H1551 H 0.35208 0.37677 0.19674 0.0
C1552 C 0.16407 0.45278 0.46735 0.0
C1553 C 0.15076 0.44742 0.48315 0.0
C1554 C 0.15545 0.45957 0.44955 0.0
C1555 C 0.13293 0.4611 0.4475 0.0
C1556 C 0.11937 0.45562 0.46331 0.0
C1557 C 0.12845 0.44882 0.48096 0.0
C1558 C 0.17046 0.46521 0.43298 0.0
C1559 C 0.0953 0.45708 0.46165 0.0
C1560 C 0.11502 0.49838 0.41187 0.0
C1561 C 0.11182 0.48347 0.39171 0.0
C1562 C 0.12096 0.49125 0.43045 0.0
C1563 C 0.12378 0.46865 0.42882 0.0
C1564 C 0.11952 0.45345 0.40881 0.0
C1565 C 0.11356 0.46104 0.39049 0.0
C1566 C 0.12523 0.50797 0.45155 0.0
C1567 C 0.12228 0.42923 0.40645 0.0
H1568 H 0.18132 0.45171 0.46889 0.0
H1569 H 0.11804 0.44471 0.4931 0.0
H1570 H 0.16687 0.45487 0.41651 0.0
H1571 H 0.16805 0.48245 0.4323 0.0
H1572 H 0.18756 0.46292 0.43682 0.0
H1573 H 0.08697 0.45197 0.47514 0.0
H1574 H 0.09053 0.47409 0.46196 0.0
H1575 H 0.08968 0.44663 0.4459 0.0
H1576 H 0.11357 0.51573 0.41302 0.0
H1577 H 0.11103 0.44939 0.37501 0.0
H1578 H 0.14257 0.50812 0.45551 0.0
H1579 H 0.11647 0.50366 0.4652 0.0
H1580 H 0.12044 0.52469 0.45066 0.0
H1581 H 0.1395 0.42548 0.40806 0.0
H1582 H 0.11642 0.41948 0.39044 0.0
H1583 H 0.11359 0.42396 0.41961 0.0
C1584 C 0.10806 0.58014 0.63116 0.0
C1585 C 0.10354 0.56036 0.63665 0.0
C1586 C 0.11249 0.58074 0.60952 0.0
C1587 C 0.11227 0.5611 0.59298 0.0
C1588 C 0.10657 0.54128 0.59823 0.0
C1589 C 0.1023 0.54114 0.62001 0.0
C1590 C 0.11846 0.60222 0.60457 0.0
C1591 C 0.10597 0.52003 0.58101 0.0
C1592 C 0.11266 0.56445 0.53362 0.0
C1593 C 0.13447 0.56128 0.52838 0.0
C1594 C 0.10512 0.56431 0.55454 0.0
C1595 C 0.11976 0.561 0.57059 0.0
C1596 C 0.14175 0.55766 0.56535 0.0
C1597 C 0.14882 0.55778 0.54432 0.0
C1598 C 0.08155 0.56782 0.55951 0.0
C1599 C 0.15788 0.55412 0.58204 0.0
H1600 H 0.10899 0.59509 0.64389 0.0
H1601 H 0.09867 0.52579 0.62406 0.0
H1602 H 0.13556 0.60181 0.5997 0.0
H1603 H 0.10884 0.60496 0.59068 0.0
H1604 H 0.11603 0.61625 0.61882 0.0
H1605 H 0.09923 0.50647 0.58733 0.0
H1606 H 0.09626 0.52184 0.56682 0.0
H1607 H 0.12245 0.5155 0.57503 0.0
H1608 H 0.10146 0.56714 0.52139 0.0
H1609 H 0.16569 0.55534 0.54043 0.0
H1610 H 0.07925 0.58259 0.57297 0.0
H1611 H 0.07493 0.55379 0.5651 0.0
H1612 H 0.0722 0.5698 0.54512 0.0
H1613 H 0.1579 0.56837 0.59631 0.0
H1614 H 0.17439 0.55171 0.57535 0.0
H1615 H 0.15337 0.5396 0.58804 0.0
C1616 C 0.75036 0.6556 0.42707 0.0
C1617 C 0.73402 0.67134 0.43029 0.0
C1618 C 0.75591 0.64374 0.40598 0.0
C1619 C 0.7449 0.64776 0.3877 0.0
C1620 C 0.72796 0.66311 0.39091 0.0
C1621 C 0.72271 0.67468 0.41214 0.0
C1622 C 0.77399 0.62739 0.4032 0.0
C1623 C 0.71581 0.66788 0.37187 0.0
C1624 C 0.77281 0.63784 0.33283 0.0
C1625 C 0.76305 0.6185 0.3212 0.0
C1626 C 0.7674 0.64722 0.35462 0.0
C1627 C 0.75187 0.637 0.36513 0.0
C1628 C 0.74232 0.61719 0.35369 0.0
C1629 C 0.748 0.60819 0.33184 0.0
C1630 C 0.77793 0.66838 0.36624 0.0
C1631 C 0.72578 0.60577 0.36438 0.0
H1632 H 0.75913 0.65286 0.441 0.0
H1633 H 0.71 0.68672 0.41444 0.0
H1634 H 0.76872 0.61142 0.39292 0.0
H1635 H 0.78756 0.63307 0.39468 0.0
H1636 H 0.77985 0.62496 0.41907 0.0
H1637 H 0.70232 0.67942 0.37718 0.0
H1638 H 0.72684 0.67503 0.3617 0.0
H1639 H 0.70934 0.65255 0.36136 0.0
H1640 H 0.7845 0.64591 0.3248 0.0
H1641 H 0.74042 0.5932 0.32303 0.0
H1642 H 0.78554 0.66656 0.38159 0.0
H1643 H 0.76565 0.6814 0.37072 0.0
H1644 H 0.79032 0.67377 0.35606 0.0
H1645 H 0.73216 0.60297 0.37989 0.0
H1646 H 0.72082 0.58984 0.35372 0.0
H1647 H 0.71137 0.61626 0.36848 0.0
C1648 C 0.7603 0.31993 0.6017 0.0
C1649 C 0.77556 0.31485 0.58497 0.0
C1650 C 0.7642 0.33619 0.62075 0.0
C1651 C 0.7839 0.34763 0.6232 0.0
C1652 C 0.79931 0.34279 0.6063 0.0
C1653 C 0.79494 0.32646 0.58734 0.0
C1654 C 0.74729 0.34097 0.63835 0.0
C1655 C 0.8205 0.35465 0.60838 0.0
C1656 C 0.78315 0.40158 0.66558 0.0
C1657 C 0.7911 0.3955 0.68406 0.0
C1658 C 0.7816 0.38638 0.64538 0.0
C1659 C 0.78821 0.36458 0.6436 0.0
C1660 C 0.79725 0.35859 0.66191 0.0
C1661 C 0.79857 0.37412 0.68194 0.0
C1662 C 0.77192 0.39341 0.62622 0.0
C1663 C 0.80461 0.33552 0.66061 0.0
H1664 H 0.74526 0.3111 0.6 0.0
H1665 H 0.80684 0.3226 0.57451 0.0
H1666 H 0.75384 0.33794 0.6537 0.0
H1667 H 0.74259 0.35842 0.64179 0.0
H1668 H 0.7327 0.33082 0.63377 0.0
H1669 H 0.8306 0.34925 0.5936 0.0
H1670 H 0.81777 0.37249 0.61129 0.0
H1671 H 0.82947 0.35186 0.62265 0.0
H1672 H 0.77745 0.41809 0.66701 0.0
H1673 H 0.80484 0.3693 0.6961 0.0
H1674 H 0.75621 0.38523 0.62201 0.0
H1675 H 0.78235 0.3884 0.61167 0.0
H1676 H 0.76942 0.41134 0.62971 0.0
H1677 H 0.79056 0.32443 0.65807 0.0
H1678 H 0.81308 0.33399 0.67566 0.0
H1679 H 0.81546 0.32988 0.64648 0.0
C1680 C 0.92356 0.9081 0.62142 0.0
C1681 C 0.92434 0.89873 0.63943 0.0
C1682 C 0.90477 0.91801 0.6162 0.0
C1683 C 0.88637 0.91875 0.62945 0.0
C1684 C 0.8868 0.90857 0.64713 0.0
C1685 C 0.90575 0.89864 0.65187 0.0
C1686 C 0.90499 0.92854 0.59713 0.0
C1687 C 0.86746 0.90887 0.66155 0.0
C1688 C 0.84642 0.96502 0.63434 0.0
C1689 C 0.82949 0.95469 0.62121 0.0
C1690 C 0.86523 0.95362 0.63671 0.0
C1691 C 0.86711 0.93132 0.62579 0.0
C1692 C 0.85028 0.92092 0.61212 0.0
C1693 C 0.83167 0.93275 0.60996 0.0
C1694 C 0.8829 0.96536 0.65128 0.0
C1695 C 0.85183 0.89723 0.60004 0.0
H1696 H 0.93781 0.90818 0.61165 0.0
H1697 H 0.90616 0.89137 0.66577 0.0
H1698 H 0.88999 0.92501 0.58748 0.0
H1699 H 0.90616 0.94649 0.60333 0.0
H1700 H 0.91882 0.92298 0.58614 0.0
H1701 H 0.86995 0.89902 0.67375 0.0
H1702 H 0.86383 0.92592 0.67036 0.0
H1703 H 0.85321 0.90249 0.65151 0.0
H1704 H 0.84497 0.98204 0.64289 0.0
H1705 H 0.81871 0.9247 0.59965 0.0
H1706 H 0.89845 0.96298 0.64254 0.0
H1707 H 0.88453 0.95842 0.66576 0.0
H1708 H 0.87978 0.98316 0.65695 0.0
H1709 H 0.86647 0.89452 0.58979 0.0
H1710 H 0.83768 0.89177 0.58943 0.0
H1711 H 0.85322 0.88685 0.61187 0.0
C1712 C 0.56851 0.11137 0.17902 0.0
C1713 C 0.57507 0.09032 0.16803 0.0
C1714 C 0.57301 0.12954 0.17058 0.0
C1715 C 0.5843 0.1266 0.15066 0.0
C1716 C 0.59042 0.10533 0.13918 0.0
C1717 C 0.58577 0.08746 0.14802 0.0
C1718 C 0.56624 0.15195 0.18331 0.0
C1719 C 0.6024 0.10151 0.11784 0.0
C1720 C 0.58421 0.17157 0.11985 0.0
C1721 C 0.60427 0.18133 0.12562 0.0
C1722 C 0.57735 0.15388 0.12805 0.0
C1723 C 0.59082 0.14586 0.14243 0.0
C1724 C 0.61088 0.15593 0.14864 0.0
C1725 C 0.61736 0.17349 0.14014 0.0
C1726 C 0.55588 0.14353 0.12103 0.0
C1727 C 0.62567 0.14794 0.16403 0.0
H1728 H 0.5602 0.11373 0.19447 0.0
H1729 H 0.59082 0.07126 0.13937 0.0
H1730 H 0.58063 0.16212 0.18878 0.0
H1731 H 0.55676 0.16023 0.17277 0.0
H1732 H 0.55652 0.15135 0.19787 0.0
H1733 H 0.60491 0.08388 0.11033 0.0
H1734 H 0.5935 0.10882 0.10612 0.0
H1735 H 0.61827 0.10963 0.12055 0.0
H1736 H 0.574 0.1775 0.10861 0.0
H1737 H 0.63285 0.18096 0.14477 0.0
H1738 H 0.54589 0.1435 0.13553 0.0
H1739 H 0.55816 0.12627 0.11209 0.0
H1740 H 0.54699 0.15215 0.11033 0.0
H1741 H 0.61726 0.14821 0.17956 0.0
H1742 H 0.64044 0.15797 0.16776 0.0
H1743 H 0.63037 0.13078 0.15676 0.0
C1744 C 0.05041 0.00657 0.63614 0.0
C1745 C 0.04187 0.01561 0.61971 0.0
C1746 C 0.0723 0.00148 0.6365 0.0
C1747 C 0.086 0.00564 0.62012 0.0
C1748 C 0.07728 0.01367 0.60286 0.0
C1749 C 0.05531 0.01855 0.60285 0.0
C1750 C 0.08093 0.99257 0.65497 0.0
C1751 C 0.09132 0.01798 0.58492 0.0
C1752 C 0.14343 0.01968 0.63769 0.0
C1753 C 0.15409 -9e-05 0.62923 0.0
C1754 C 0.1214 0.02182 0.63437 0.0
C1755 C 0.10964 0.00371 0.6223 0.0
C1756 C 0.12038 0.98385 0.61315 0.0
C1757 C 0.1425 0.98217 0.61675 0.0
C1758 C 0.1106 0.04335 0.64426 0.0
C1759 C 0.10849 0.96408 0.60027 0.0
H1760 H 0.04012 0.00404 0.64912 0.0
H1761 H 0.04883 0.02538 0.59 0.0
H1762 H 0.09041 0.97755 0.64842 0.0
H1763 H 0.09185 0.00471 0.66523 0.0
H1764 H 0.06798 0.9887 0.66549 0.0
H1765 H 0.08185 0.02238 0.57169 0.0
H1766 H 0.10251 0.03157 0.59178 0.0
H1767 H 0.10118 0.00338 0.57778 0.0
H1768 H 0.15226 0.0335 0.64725 0.0
H1769 H 0.15058 0.96677 0.61024 0.0
H1770 H 0.09849 0.0411 0.65638 0.0
H1771 H 0.10204 0.04936 0.63144 0.0
H1772 H 0.12216 0.05606 0.65252 0.0
H1773 H 0.10024 0.95596 0.61173 0.0
H1774 H 0.11953 0.95206 0.59002 0.0
H1775 H 0.09611 0.96873 0.58959 0.0
C1776 C 0.31399 0.83994 0.06339 0.0
C1777 C 0.32085 0.82256 0.07202 0.0
C1778 C 0.31807 0.86168 0.07433 0.0
C1779 C 0.32937 0.86618 0.09436 0.0
C1780 C 0.33706 0.84871 0.10276 0.0
C1781 C 0.33268 0.8271 0.09151 0.0
C1782 C 0.30957 0.87984 0.06486 0.0
C1783 C 0.34927 0.85287 0.12403 0.0
C1784 C 0.35134 0.92351 0.11655 0.0
C1785 C 0.33551 0.93276 0.13173 0.0
C1786 C 0.34966 0.90179 0.10431 0.0
C1787 C 0.3317 0.88911 0.10729 0.0
C1788 C 0.31565 0.89842 0.12251 0.0
C1789 C 0.31777 0.92009 0.13454 0.0
C1790 C 0.3671 0.89238 0.08826 0.0
C1791 C 0.2962 0.88548 0.1261 0.0
H1792 H 0.30491 0.83662 0.0483 0.0
H1793 H 0.33813 0.81378 0.09824 0.0
H1794 H 0.29714 0.88914 0.07582 0.0
H1795 H 0.3226 0.89144 0.06365 0.0
H1796 H 0.30241 0.87363 0.04842 0.0
H1797 H 0.35562 0.83758 0.12745 0.0
H1798 H 0.36284 0.86414 0.12378 0.0
H1799 H 0.33858 0.86086 0.13764 0.0
H1800 H 0.36512 0.93317 0.11432 0.0
H1801 H 0.30544 0.92708 0.14621 0.0
H1802 H 0.36025 0.88696 0.07161 0.0
H1803 H 0.37418 0.87779 0.09247 0.0
H1804 H 0.38009 0.90433 0.08795 0.0
H1805 H 0.28723 0.87989 0.11058 0.0
H1806 H 0.28518 0.89512 0.13857 0.0
H1807 H 0.30126 0.87071 0.1314 0.0
C1808 C 0.92509 0.09061 0.33518 0.0
C1809 C 0.92726 0.09884 0.31654 0.0
C1810 C 0.90575 0.0813 0.33977 0.0
C1811 C 0.88814 0.08025 0.3254 0.0
C1812 C 0.88993 0.08934 0.30705 0.0
C1813 C 0.90948 0.09852 0.30283 0.0
C1814 C 0.90444 0.07184 0.35953 0.0
C1815 C 0.87144 0.08865 0.29143 0.0
C1816 C 0.84805 0.0345 0.32273 0.0
C1817 C 0.8312 0.04535 0.33557 0.0
C1818 C 0.86659 0.04572 0.31924 0.0
C1819 C 0.86835 0.06837 0.32878 0.0
C1820 C 0.85138 0.07947 0.34167 0.0
C1821 C 0.833 0.06782 0.34494 0.0
C1822 C 0.88438 0.03329 0.3054 0.0
C1823 C 0.85267 0.10362 0.35207 0.0
H1824 H 0.9387 0.09086 0.34592 0.0
H1825 H 0.91096 0.10493 0.28845 0.0
H1826 H 0.89032 0.0785 0.36959 0.0
H1827 H 0.90234 0.05388 0.35423 0.0
H1828 H 0.91904 0.07531 0.36988 0.0
H1829 H 0.87487 0.0979 0.27892 0.0
H1830 H 0.86793 0.07146 0.283 0.0
H1831 H 0.85678 0.09546 0.30046 0.0
H1832 H 0.8468 0.01715 0.31543 0.0
H1833 H 0.82004 0.07634 0.35486 0.0
H1834 H 0.89935 0.03454 0.31514 0.0
H1835 H 0.88765 0.04054 0.29139 0.0
H1836 H 0.88044 0.01574 0.29903 0.0
H1837 H 0.86662 0.10704 0.36328 0.0
H1838 H 0.83797 0.10989 0.36139 0.0
H1839 H 0.85518 0.11281 0.33934 0.0
C1840 C 0.29822 0.08865 0.86968 0.0
C1841 C 0.30605 0.07489 0.85041 0.0
C1842 C 0.29461 0.11089 0.87122 0.0
C1843 C 0.29899 0.11967 0.85307 0.0
C1844 C 0.30738 0.10603 0.83371 0.0
C1845 C 0.31078 0.08376 0.83259 0.0
C1846 C 0.28563 0.12488 0.89216 0.0
C1847 C 0.31234 0.11485 0.81408 0.0
C1848 C 0.26714 0.17081 0.85302 0.0
C1849 C 0.28163 0.1873 0.86271 0.0
C1850 C 0.27296 0.14872 0.84877 0.0
C1851 C 0.29381 0.14295 0.85425 0.0
C1852 C 0.30892 0.15953 0.86284 0.0
C1853 C 0.30264 0.18153 0.86701 0.0
C1854 C 0.25638 0.13153 0.83955 0.0
C1855 C 0.33137 0.15404 0.86868 0.0
H1856 H 0.29458 0.08199 0.88356 0.0
H1857 H 0.31689 0.07326 0.81765 0.0
H1858 H 0.29631 0.13904 0.89852 0.0
H1859 H 0.26976 0.13144 0.88898 0.0
H1860 H 0.28372 0.11569 0.90499 0.0
H1861 H 0.32 0.10244 0.80075 0.0
H1862 H 0.29735 0.12051 0.80772 0.0
H1863 H 0.32314 0.12918 0.81876 0.0
H1864 H 0.25092 0.17508 0.84948 0.0
H1865 H 0.314 0.19416 0.87435 0.0
H1866 H 0.252 0.12264 0.85209 0.0
H1867 H 0.26299 0.11938 0.82537 0.0
H1868 H 0.24158 0.13866 0.83431 0.0
H1869 H 0.33083 0.14675 0.883 0.0
H1870 H 0.34189 0.16866 0.87272 0.0
H1871 H 0.33867 0.14176 0.85502 0.0
C1872 C 0.1524 0.98472 0.3756 0.0
C1873 C 0.16135 0.0046 0.38693 0.0
C1874 C 0.13051 0.98037 0.37726 0.0
C1875 C 0.11716 0.99634 0.3905 0.0
C1876 C 0.1261 0.01639 0.40216 0.0
C1877 C 0.14813 0.02024 0.40033 0.0
C1878 C 0.12163 0.95876 0.36459 0.0
C1879 C 0.11236 0.03385 0.41635 0.0
C1880 C 0.058 0.99025 0.37609 0.0
C1881 C 0.05051 0.97859 0.39091 0.0
C1882 C 0.07948 0.99697 0.37637 0.0
C1883 C 0.09383 0.99189 0.39184 0.0
C1884 C 0.08617 0.98091 0.40741 0.0
C1885 C 0.06462 0.97437 0.40674 0.0
C1886 C 0.087 0.00877 0.35958 0.0
C1887 C 0.10093 0.97535 0.42425 0.0
H1888 H 0.16248 0.97252 0.36525 0.0
H1889 H 0.15493 0.03563 0.40916 0.0
H1890 H 0.11384 0.95011 0.37586 0.0
H1891 H 0.10918 0.96156 0.35299 0.0
H1892 H 0.13421 0.94799 0.35526 0.0
H1893 H 0.12174 0.04861 0.42422 0.0
H1894 H 0.09939 0.03873 0.40646 0.0
H1895 H 0.10458 0.02736 0.42926 0.0
H1896 H 0.0472 0.99371 0.36389 0.0
H1897 H 0.05897 0.96551 0.41835 0.0
H1898 H 0.09867 -0.00158 0.34844 0.0
H1899 H 0.09537 0.02409 0.36765 0.0
H1900 H 0.07357 0.01281 0.34967 0.0
H1901 H 0.11302 0.96324 0.41605 0.0
H1902 H 0.09215 0.96844 0.43633 0.0
H1903 H 0.10976 0.99009 0.43309 0.0
C1904 C 0.57026 0.85228 0.88152 0.0
C1905 C 0.58798 0.8382 0.87742 0.0
C1906 C 0.56697 0.86811 0.86952 0.0
C1907 C 0.58175 0.86986 0.85303 0.0
C1908 C 0.59946 0.85546 0.84859 0.0
C1909 C 0.60236 0.83983 0.86082 0.0
C1910 C 0.54788 0.88316 0.8747 0.0
C1911 C 0.61556 0.85676 0.83111 0.0
C1912 C 0.56624 0.89829 0.80856 0.0
C1913 C 0.57633 0.91862 0.81574 0.0
C1914 C 0.56745 0.88243 0.82077 0.0
C1915 C 0.57905 0.887 0.84064 0.0
C1916 C 0.58894 0.90763 0.84818 0.0
C1917 C 0.58746 0.92319 0.83565 0.0
C1918 C 0.55668 0.86063 0.8122 0.0
C1919 C 0.60145 0.91313 0.86929 0.0
H1920 H 0.55907 0.85114 0.89431 0.0
H1921 H 0.61608 0.82901 0.85747 0.0
H1922 H 0.55341 0.9003 0.8803 0.0
H1923 H 0.5381 0.88211 0.85979 0.0
H1924 H 0.53752 0.87925 0.88753 0.0
H1925 H 0.62818 0.84403 0.82933 0.0
H1926 H 0.60734 0.85491 0.81518 0.0
H1927 H 0.62339 0.87302 0.83507 0.0
H1928 H 0.55755 0.89463 0.79323 0.0
H1929 H 0.59526 0.93886 0.84136 0.0
H1930 H 0.54564 0.85709 0.82467 0.0
H1931 H 0.56891 0.84749 0.8088 0.0
H1932 H 0.54745 0.86 0.797 0.0
H1933 H 0.59129 0.91072 0.88292 0.0
H1934 H 0.60741 0.93021 0.87334 0.0
H1935 H 0.61538 0.90197 0.86812 0.0
C1936 C 0.94252 0.70341 0.84279 0.0
C1937 C 0.93506 0.69875 0.82119 0.0
C1938 C 0.92848 0.70373 0.86023 0.0
C1939 C 0.90645 0.69929 0.85596 0.0
C1940 C 0.89882 0.6946 0.8342 0.0
C1941 C 0.9132 0.69439 0.81709 0.0
C1942 C 0.9372 0.70884 0.88322 0.0
C1943 C 0.87542 0.68981 0.82898 0.0
C1944 C 0.87133 0.68098 0.89738 0.0
C1945 C 0.86016 0.70024 0.9068 0.0
C1946 C 0.88681 0.68055 0.88115 0.0
C1947 C 0.89124 0.69982 0.87422 0.0
C1948 C 0.88047 0.71943 0.8841 0.0
C1949 C 0.86507 0.7194 0.90026 0.0
C1950 C 0.89801 0.65933 0.87103 0.0
C1951 C 0.8848 0.74034 0.87721 0.0
H1952 H 0.95939 0.70677 0.84611 0.0
H1953 H 0.90729 0.69075 0.80046 0.0
H1954 H 0.92913 0.72352 0.89323 0.0
H1955 H 0.93377 0.69513 0.89088 0.0
H1956 H 0.95476 0.71179 0.88378 0.0
H1957 H 0.87209 0.6863 0.81119 0.0
H1958 H 0.87027 0.67557 0.83513 0.0
H1959 H 0.86549 0.70393 0.83733 0.0
H1960 H 0.86767 0.66611 0.90235 0.0
H1961 H 0.85659 0.73438 0.90749 0.0
H1962 H 0.91564 0.66159 0.87212 0.0
H1963 H 0.89384 0.65407 0.85346 0.0
H1964 H 0.89357 0.64607 0.879 0.0
H1965 H 0.90218 0.74416 0.87849 0.0
H1966 H 0.87585 0.75443 0.88725 0.0
H1967 H 0.88015 0.73834 0.85988 0.0
C1968 C 0.90208 0.28542 0.18339 0.0
C1969 C 0.92399 0.2847 0.17827 0.0
C1970 C 0.88641 0.28345 0.16703 0.0
C1971 C 0.8928 0.28068 0.14504 0.0
C1972 C 0.91488 0.27983 0.13976 0.0
C1973 C 0.93019 0.28186 0.15643 0.0
C1974 C 0.86302 0.28443 0.17327 0.0
C1975 C 0.92234 0.27687 0.11649 0.0
C1976 C 0.85467 0.25603 0.09873 0.0
C1977 C 0.84788 0.27455 0.09195 0.0
C1978 C 0.86887 0.25783 0.11634 0.0
C1979 C 0.87648 0.27867 0.12745 0.0
C1980 C 0.86922 0.29749 0.12111 0.0
C1981 C 0.855 0.29521 0.10345 0.0
C1982 C 0.8762 0.23738 0.12266 0.0
C1983 C 0.87692 0.32 0.13261 0.0
H1984 H 0.89713 0.28763 0.20023 0.0
H1985 H 0.94707 0.28128 0.15232 0.0
H1986 H 0.8551 0.29819 0.16825 0.0
H1987 H 0.8548 0.26924 0.16456 0.0
H1988 H 0.86069 0.28654 0.1911 0.0
H1989 H 0.94009 0.27646 0.11511 0.0
H1990 H 0.91582 0.26143 0.10622 0.0
H1991 H 0.91619 0.29038 0.10973 0.0
H1992 H 0.84921 0.24 0.09001 0.0
H1993 H 0.8498 0.30963 0.09838 0.0
H1994 H 0.87324 0.23883 0.14027 0.0
H1995 H 0.89371 0.23524 0.11996 0.0
H1996 H 0.86793 0.22254 0.11313 0.0
H1997 H 0.87398 0.32299 0.15041 0.0
H1998 H 0.86889 0.33306 0.12645 0.0
H1999 H 0.89446 0.3212 0.13032 0.0
C2000 C 0.09427 0.31539 0.9133 0.0
C2001 C 0.08838 0.33281 0.93066 0.0
C2002 C 0.08585 0.31343 0.89233 0.0
C2003 C 0.07124 0.32932 0.88859 0.0
C2004 C 0.06621 0.34763 0.90572 0.0
C2005 C 0.07482 0.34914 0.92659 0.0
C2006 C 0.09169 0.2937 0.87447 0.0
C2007 C 0.05088 0.36503 0.90229 0.0
C2008 C 0.05856 0.32638 0.82908 0.0
C2009 C 0.03996 0.31348 0.826 0.0
C2010 C 0.06849 0.33253 0.84964 0.0
C2011 C 0.05966 0.32549 0.86741 0.0
C2012 C 0.04039 0.31332 0.8646 0.0
C2013 C 0.03074 0.30754 0.84396 0.0
C2014 C 0.08887 0.34576 0.8521 0.0
C2015 C 0.03044 0.30552 0.88316 0.0
H2016 H 0.10486 0.30278 0.91624 0.0
H2017 H 0.07031 0.36275 0.93988 0.0
H2018 H 0.07739 0.28313 0.86995 0.0
H2019 H 0.09694 0.29876 0.85965 0.0
H2020 H 0.10467 0.28388 0.87951 0.0
H2021 H 0.05079 0.37951 0.91635 0.0
H2022 H 0.05512 0.37036 0.88733 0.0
H2023 H 0.03441 0.35824 0.9 0.0
H2024 H 0.06572 0.33114 0.81531 0.0
H2025 H 0.01632 0.2977 0.84178 0.0
H2026 H 0.10255 0.33548 0.85479 0.0
H2027 H 0.08789 0.35978 0.86655 0.0
H2028 H 0.09229 0.35204 0.83746 0.0
H2029 H 0.04143 0.29386 0.88831 0.0
H2030 H 0.01479 0.2973 0.8786 0.0
H2031 H 0.028 0.31945 0.89747 0.0
C2032 C 0.96906 0.68455 0.1261 0.0
C2033 C 0.98191 0.68429 0.1443 0.0
C2034 C 0.97764 0.67923 0.10494 0.0
C2035 C -0.00042 0.67363 0.10197 0.0
C2036 C 0.01222 0.67186 0.12011 0.0
C2037 C 0.00321 0.67716 0.14105 0.0
C2038 C 0.96358 0.68099 0.08596 0.0
C2039 C 0.03567 0.66584 0.11764 0.0
C2040 C 0.02465 0.65106 0.04625 0.0
C2041 C 0.03431 0.66984 0.04236 0.0
C2042 C 0.01248 0.65211 0.06519 0.0
C2043 C 0.01008 0.67236 0.08058 0.0
C2044 C 0.01905 0.69148 0.07627 0.0
C2045 C 0.03098 0.68999 0.0572 0.0
C2046 C 0.00291 0.63144 0.06913 0.0
C2047 C 0.01684 0.71342 0.09225 0.0
H2048 H 0.95252 0.68982 0.12842 0.0
H2049 H 0.01322 0.67668 0.15498 0.0
H2050 H 0.96804 0.69579 0.08043 0.0
H2051 H 0.96595 0.66672 0.07198 0.0
H2052 H 0.94632 0.68214 0.09041 0.0
H2053 H 0.04265 0.66295 0.13289 0.0
H2054 H 0.03797 0.65096 0.10433 0.0
H2055 H 0.04473 0.67925 0.11316 0.0
H2056 H 0.02707 0.63544 0.03481 0.0
H2057 H 0.03826 0.70461 0.05429 0.0
H2058 H 0.98582 0.63401 0.07387 0.0
H2059 H 0.01144 0.62691 0.08283 0.0
H2060 H 0.00407 0.61757 0.05451 0.0
H2061 H -0.0003 0.71715 0.09606 0.0
H2062 H 0.02386 0.72686 0.08595 0.0
H2063 H 0.02501 0.71303 0.10778 0.0
C2064 C 0.1966 0.3449 0.5318 0.0
C2065 C 0.17566 0.35287 0.53147 0.0
C2066 C 0.2007 0.32238 0.52699 0.0
C2067 C 0.18347 0.3075 0.52129 0.0
C2068 C 0.16226 0.31548 0.52111 0.0
C2069 C 0.15861 0.33809 0.52625 0.0
C2070 C 0.2235 0.31452 0.52757 0.0
C2071 C 0.14351 0.30014 0.51477 0.0
C2072 C 0.19652 0.25161 0.48543 0.0
C2073 C 0.19619 0.23843 0.50043 0.0
C2074 C 0.19224 0.27404 0.49201 0.0
C2075 C 0.18779 0.28365 0.51421 0.0
C2076 C 0.18755 0.27051 0.5295 0.0
C2077 C 0.19162 0.24801 0.5224 0.0
C2078 C 0.19241 0.28744 0.47515 0.0
C2079 C 0.18311 0.28025 0.55335 0.0
H2080 H 0.2098 0.35633 0.53584 0.0
H2081 H 0.14249 0.34419 0.52535 0.0
H2082 H 0.22465 0.30281 0.53811 0.0
H2083 H 0.22856 0.30575 0.51094 0.0
H2084 H 0.23487 0.32815 0.53374 0.0
H2085 H 0.12792 0.30891 0.5166 0.0
H2086 H 0.14523 0.29092 0.49753 0.0
H2087 H 0.14324 0.28804 0.52492 0.0
H2088 H 0.19991 0.24434 0.4684 0.0
H2089 H 0.1914 0.23795 0.5341 0.0
H2090 H 0.20473 0.30043 0.47941 0.0
H2091 H 0.17669 0.29562 0.47495 0.0
H2092 H 0.19578 0.2774 0.45848 0.0
H2093 H 0.19502 0.2932 0.56 0.0
H2094 H 0.1837 0.26786 0.56319 0.0
H2095 H 0.16706 0.28805 0.5553 0.0
C2096 C 0.1722 0.54415 0.74141 0.0
C2097 C 0.15548 0.53011 0.7321 0.0
C2098 C 0.19162 0.53594 0.74727 0.0
C2099 C 0.19447 0.5131 0.74365 0.0
C2100 C 0.17757 0.49881 0.73459 0.0
C2101 C 0.15823 0.5075 0.72896 0.0
C2102 C 0.20922 0.55173 0.75704 0.0
C2103 C 0.18007 0.47437 0.73047 0.0
C2104 C 0.25255 0.49496 0.73889 0.0
C2105 C 0.25691 0.49279 0.76007 0.0
C2106 C 0.23201 0.50065 0.73306 0.0
C2107 C 0.21545 0.50434 0.7488 0.0
C2108 C 0.21949 0.50131 0.76994 0.0
C2109 C 0.24017 0.49552 0.77531 0.0
C2110 C 0.22828 0.50357 0.71029 0.0
C2111 C 0.20223 0.50513 0.78717 0.0
H2112 H 0.1702 0.56165 0.74403 0.0
H2113 H 0.14539 0.49654 0.72178 0.0
H2114 H 0.21426 0.54895 0.77302 0.0
H2115 H 0.22345 0.54892 0.74622 0.0
H2116 H 0.20418 0.56903 0.75947 0.0
H2117 H 0.16512 0.46553 0.72411 0.0
H2118 H 0.19309 0.46878 0.71849 0.0
H2119 H 0.18474 0.46983 0.74575 0.0
H2120 H 0.26532 0.49273 0.72695 0.0
H2121 H 0.24335 0.49382 0.7917 0.0
H2122 H 0.22498 0.52101 0.71103 0.0
H2123 H 0.21404 0.4941 0.70287 0.0
H2124 H 0.24229 0.49833 0.69947 0.0
H2125 H 0.1979 0.52269 0.79166 0.0
H2126 H 0.20741 0.50025 0.80216 0.0
H2127 H 0.18754 0.49589 0.78075 0.0
C2128 C 0.73407 0.88369 0.57242 0.0
C2129 C 0.73184 0.89357 0.55493 0.0
C2130 C 0.73264 0.86092 0.56911 0.0
C2131 C 0.72969 0.84783 0.5477 0.0
C2132 C 0.72663 0.85787 0.53015 0.0
C2133 C 0.72768 0.88065 0.53401 0.0
C2134 C 0.7355 0.85084 0.58831 0.0
C2135 C 0.72363 0.84455 0.50704 0.0
C2136 C 0.75691 0.79271 0.53211 0.0
C2137 C 0.73954 0.77828 0.53017 0.0
C2138 C 0.75388 0.81533 0.53832 0.0
C2139 C 0.73296 0.82383 0.54303 0.0
C2140 C 0.71539 0.80942 0.54186 0.0
C2141 C 0.71886 0.78675 0.53525 0.0
C2142 C 0.77305 0.83014 0.53916 0.0
C2143 C 0.69289 0.81791 0.54702 0.0
H2144 H 0.73741 0.89373 0.58858 0.0
H2145 H 0.72652 0.88826 0.52039 0.0
H2146 H 0.72339 0.83787 0.58785 0.0
H2147 H 0.75155 0.84313 0.5875 0.0
H2148 H 0.73413 0.86316 0.60411 0.0
H2149 H 0.71923 0.85484 0.49568 0.0
H2150 H 0.73873 0.83578 0.50122 0.0
H2151 H 0.71097 0.83209 0.50634 0.0
H2152 H 0.77294 0.78635 0.52824 0.0
H2153 H 0.70536 0.77571 0.53392 0.0
H2154 H 0.77437 0.84146 0.55552 0.0
H2155 H 0.77101 0.84023 0.52713 0.0
H2156 H 0.78831 0.8209 0.53556 0.0
H2157 H 0.69262 0.83092 0.56238 0.0
H2158 H 0.68158 0.80478 0.54856 0.0
H2159 H 0.68707 0.82525 0.5338 0.0
C2160 C 0.71442 0.44455 0.80472 0.0
C2161 C 0.72939 0.4532 0.79252 0.0
C2162 C 0.69385 0.45357 0.80874 0.0
C2163 C 0.68811 0.47169 0.80038 0.0
C2164 C 0.70369 0.4816 0.78964 0.0
C2165 C 0.72417 0.47223 0.78583 0.0
C2166 C 0.67776 0.44262 0.82043 0.0
C2167 C 0.69827 0.50106 0.78066 0.0
C2168 C 0.63025 0.4725 0.78243 0.0
C2169 C 0.62103 0.4879 0.79981 0.0
C2170 C 0.65211 0.46747 0.78231 0.0
C2171 C 0.66519 0.47808 0.80003 0.0
C2172 C 0.65617 0.49399 0.81744 0.0
C2173 C 0.63415 0.49872 0.81713 0.0
C2174 C 0.66111 0.45045 0.76337 0.0
C2175 C 0.66967 0.50564 0.83655 0.0
H2176 H 0.71836 0.43 0.81019 0.0
H2177 H 0.73567 0.47916 0.77656 0.0
H2178 H 0.669 0.45491 0.83293 0.0
H2179 H 0.66576 0.43381 0.80854 0.0
H2180 H 0.68545 0.43072 0.82847 0.0
H2181 H 0.71284 0.50891 0.77593 0.0
H2182 H 0.68795 0.49573 0.76602 0.0
H2183 H 0.68915 0.51339 0.7928 0.0
H2184 H 0.62031 0.46411 0.76891 0.0
H2185 H 0.62719 0.51066 0.83061 0.0
H2186 H 0.66753 0.43649 0.76926 0.0
H2187 H 0.67461 0.45741 0.75583 0.0
H2188 H 0.6489 0.44417 0.75058 0.0
H2189 H 0.67571 0.49374 0.84552 0.0
H2190 H 0.66054 0.51855 0.84809 0.0
H2191 H 0.68385 0.51318 0.83074 0.0
C2192 C 0.21186 0.73374 0.47202 0.0
C2193 C 0.19548 0.74932 0.47778 0.0
C2194 C 0.20721 0.7113 0.46641 0.0
C2195 C 0.18568 0.70428 0.46656 0.0
C2196 C 0.16902 0.71992 0.47145 0.0
C2197 C 0.17412 0.74221 0.47699 0.0
C2198 C 0.22541 0.69512 0.46121 0.0
C2199 C 0.14585 0.71308 0.4717 0.0
C2200 C 0.17048 0.64559 0.43957 0.0
C2201 C 0.16938 0.63631 0.4576 0.0
C2202 C 0.17595 0.66766 0.44215 0.0
C2203 C 0.18063 0.68065 0.46324 0.0
C2204 C 0.18002 0.67121 0.48142 0.0
C2205 C 0.17447 0.64915 0.47837 0.0
C2206 C 0.17663 0.6771 0.42235 0.0
C2207 C 0.18492 0.68449 0.50419 0.0
H2208 H 0.2284 0.73903 0.47251 0.0
H2209 H 0.1613 0.7541 0.48129 0.0
H2210 H 0.22675 0.68611 0.47423 0.0
H2211 H 0.22223 0.68291 0.44568 0.0
H2212 H 0.24101 0.70316 0.45986 0.0
H2213 H 0.1347 0.72721 0.47427 0.0
H2214 H 0.14163 0.70142 0.45611 0.0
H2215 H 0.14334 0.70457 0.48496 0.0
H2216 H 0.16745 0.63553 0.42338 0.0
H2217 H 0.17375 0.64202 0.49235 0.0
H2218 H 0.19281 0.68379 0.42067 0.0
H2219 H 0.16511 0.69084 0.42434 0.0
H2220 H 0.17267 0.66479 0.40707 0.0
H2221 H 0.20113 0.69181 0.5047 0.0
H2222 H 0.18419 0.67457 0.51651 0.0
H2223 H 0.17329 0.69813 0.50885 0.0
C2224 C 0.66455 0.55979 0.20093 0.0
C2225 C 0.66016 0.54301 0.21137 0.0
C2226 C 0.68557 0.56704 0.19925 0.0
C2227 C 0.70265 0.55743 0.20841 0.0
C2228 C 0.69841 0.54026 0.21868 0.0
C2229 C 0.67722 0.53316 0.21993 0.0
C2230 C 0.68947 0.58523 0.18795 0.0
C2231 C 0.7162 0.52975 0.22878 0.0
C2232 C 0.75868 0.56609 0.18863 0.0
C2233 C 0.7658 0.58396 0.20491 0.0
C2234 C 0.73835 0.55693 0.1898 0.0
C2235 C 0.72483 0.56584 0.20771 0.0
C2236 C 0.73207 0.58366 0.22437 0.0
C2237 C 0.75235 0.59266 0.22262 0.0
C2238 C 0.73113 0.53807 0.17161 0.0
C2239 C 0.71814 0.59363 0.24374 0.0
H2240 H 0.6515 0.56741 0.19415 0.0
H2241 H 0.67397 0.52024 0.22809 0.0
H2242 H 0.6963 0.5996 0.19968 0.0
H2243 H 0.70132 0.57997 0.17464 0.0
H2244 H 0.67455 0.59036 0.18093 0.0
H2245 H 0.71034 0.51614 0.23557 0.0
H2246 H 0.72874 0.52337 0.21646 0.0
H2247 H 0.72392 0.54212 0.24209 0.0
H2248 H 0.76896 0.55939 0.17481 0.0
H2249 H 0.75722 0.60709 0.23469 0.0
H2250 H 0.71701 0.54303 0.16325 0.0
H2251 H 0.72608 0.52416 0.17834 0.0
H2252 H 0.74392 0.53239 0.15934 0.0
H2253 H 0.70365 0.60096 0.2382 0.0
H2254 H 0.72666 0.60648 0.25597 0.0
H2255 H 0.71264 0.58083 0.25183 0.0
C2256 C 0.73721 0.09047 0.46873 0.0
C2257 C 0.75487 0.0799 0.47532 0.0
C2258 C 0.73795 0.11286 0.46936 0.0
C2259 C 0.75679 0.12486 0.47685 0.0
C2260 C 0.77494 0.11402 0.48268 0.0
C2261 C 0.77378 0.09166 0.48174 0.0
C2262 C 0.7183 0.12365 0.46272 0.0
C2263 C 0.79538 0.1262 0.4906 0.0
C2264 C 0.76816 0.18084 0.4672 0.0
C2265 C 0.76371 0.19443 0.4878 0.0
C2266 C 0.76511 0.15818 0.46305 0.0
C2267 C 0.75738 0.14894 0.47988 0.0
C2268 C 0.75183 0.16267 0.50033 0.0
C2269 C 0.75512 0.18523 0.50407 0.0
C2270 C 0.77081 0.14403 0.44091 0.0
C2271 C 0.74315 0.15342 0.51853 0.0
H2272 H 0.72283 0.08126 0.46297 0.0
H2273 H 0.78752 0.08349 0.48671 0.0
H2274 H 0.70864 0.13072 0.47747 0.0
H2275 H 0.72255 0.13706 0.45492 0.0
H2276 H 0.70813 0.11171 0.45123 0.0
H2277 H 0.80838 0.11516 0.49345 0.0
H2278 H 0.80105 0.13512 0.47853 0.0
H2279 H 0.7923 0.13849 0.50609 0.0
H2280 H 0.77466 0.18781 0.45448 0.0
H2281 H 0.75138 0.19561 0.51996 0.0
H2282 H 0.75717 0.13318 0.43422 0.0
H2283 H 0.7846 0.13341 0.44248 0.0
H2284 H 0.77508 0.15383 0.42909 0.0
H2285 H 0.72899 0.143 0.51274 0.0
H2286 H 0.73842 0.16639 0.53302 0.0
H2287 H 0.75547 0.14296 0.52361 0.0
C2288 C 0.24311 0.53839 0.23398 0.0
C2289 C 0.25961 0.52675 0.24129 0.0
C2290 C 0.22185 0.53706 0.24088 0.0
C2291 C 0.21702 0.52374 0.25535 0.0
C2292 C 0.23373 0.51266 0.26342 0.0
C2293 C 0.25477 0.51433 0.25633 0.0
C2294 C 0.20447 0.54924 0.23208 0.0
C2295 C 0.22928 0.49832 0.27894 0.0
C2296 C 0.16587 0.52573 0.28802 0.0
C2297 C 0.1555 0.50671 0.27646 0.0
C2298 C 0.18527 0.5325 0.2805 0.0
C2299 C 0.19447 0.51992 0.26103 0.0
C2300 C 0.18321 0.50174 0.24845 0.0
C2301 C 0.16385 0.49538 0.25629 0.0
C2302 C 0.19664 0.55217 0.29422 0.0
C2303 C 0.19238 0.48796 0.22751 0.0
H2304 H 0.24669 0.54809 0.22242 0.0
H2305 H 0.26739 0.50539 0.26222 0.0
H2306 H 0.19399 0.53743 0.22086 0.0
H2307 H 0.19423 0.55841 0.24555 0.0
H2308 H 0.21111 0.56083 0.22306 0.0
H2309 H 0.24419 0.49172 0.28455 0.0
H2310 H 0.22047 0.50766 0.29345 0.0
H2311 H 0.21898 0.48441 0.27079 0.0
H2312 H 0.15946 0.53472 0.30353 0.0
H2313 H 0.15583 0.48082 0.24708 0.0
H2314 H 0.20307 0.56259 0.28385 0.0
H2315 H 0.21043 0.5467 0.30268 0.0
H2316 H 0.1859 0.56219 0.30674 0.0
H2317 H 0.19793 0.49842 0.21679 0.0
H2318 H 0.18056 0.47603 0.21838 0.0
H2319 H 0.20651 0.47882 0.23131 0.0
C2320 C 0.47133 0.2764 0.26597 0.0
C2321 C 0.46607 0.25754 0.24991 0.0
C2322 C 0.47629 0.2752 0.2874 0.0
C2323 C 0.47576 0.25473 0.29287 0.0
C2324 C 0.47134 0.23558 0.27651 0.0
C2325 C 0.46666 0.23722 0.25527 0.0
C2326 C 0.48125 0.29592 0.30435 0.0
C2327 C 0.47055 0.21341 0.28165 0.0
C2328 C 0.49892 0.24272 0.34434 0.0
C2329 C 0.48029 0.24225 0.35665 0.0
C2330 C 0.49797 0.24821 0.32407 0.0
C2331 C 0.47793 0.2532 0.31591 0.0
C2332 C 0.45932 0.25405 0.32887 0.0
C2333 C 0.46074 0.24864 0.34908 0.0
C2334 C 0.51822 0.24743 0.31086 0.0
C2335 C 0.43761 0.25929 0.32078 0.0
H2336 H 0.47104 0.29214 0.26197 0.0
H2337 H 0.46276 0.22249 0.24299 0.0
H2338 H 0.46781 0.2998 0.31612 0.0
H2339 H 0.49582 0.29377 0.31372 0.0
H2340 H 0.48371 0.31003 0.29697 0.0
H2341 H 0.46803 0.20001 0.26683 0.0
H2342 H 0.48565 0.21024 0.28964 0.0
H2343 H 0.45728 0.21301 0.29322 0.0
H2344 H 0.51414 0.238 0.35012 0.0
H2345 H 0.44627 0.24855 0.35854 0.0
H2346 H 0.51933 0.26195 0.3039 0.0
H2347 H 0.51792 0.23279 0.297 0.0
H2348 H 0.53281 0.24665 0.32075 0.0
H2349 H 0.4384 0.27445 0.31486 0.0
H2350 H 0.42513 0.26133 0.33363 0.0
H2351 H 0.43261 0.24589 0.3068 0.0
C2352 C 0.47593 0.76811 0.64505 0.0
C2353 C 0.4923 0.7635 0.62942 0.0
C2354 C 0.47678 0.76025 0.66398 0.0
C2355 C 0.49442 0.74735 0.66741 0.0
C2356 C 0.5109 0.74235 0.65161 0.0
C2357 C 0.50967 0.75053 0.6328 0.0
C2358 C 0.45889 0.76603 0.68046 0.0
C2359 C 0.52988 0.72855 0.65469 0.0
C2360 C 0.50197 0.74854 0.72713 0.0
C2361 C 0.49017 0.73015 0.72901 0.0
C2362 C 0.50477 0.75355 0.70685 0.0
C2363 C 0.49563 0.7398 0.68796 0.0
C2364 C 0.48519 0.7203 0.68947 0.0
C2365 C 0.48257 0.71571 0.71 0.0
C2366 C 0.51609 0.77445 0.70595 0.0
C2367 C 0.47544 0.70509 0.66965 0.0
H2368 H 0.46243 0.77808 0.64264 0.0
H2369 H 0.52238 0.74682 0.62078 0.0
H2370 H 0.4515 0.75095 0.68323 0.0
H2371 H 0.4654 0.77536 0.69633 0.0
H2372 H 0.44615 0.77596 0.67517 0.0
H2373 H 0.54091 0.72542 0.64049 0.0
H2374 H 0.53896 0.73683 0.66948 0.0
H2375 H 0.52433 0.71267 0.65728 0.0
H2376 H 0.50811 0.75971 0.74168 0.0
H2377 H 0.47357 0.70137 0.71123 0.0
H2378 H 0.50418 0.78643 0.70285 0.0
H2379 H 0.52779 0.7715 0.69235 0.0
H2380 H 0.52464 0.78183 0.72141 0.0
H2381 H 0.4609 0.71276 0.66461 0.0
H2382 H 0.4708 0.68918 0.67291 0.0
H2383 H 0.4868 0.70205 0.65575 0.0
C2384 C 0.4399 0.80326 0.37208 0.0
C2385 C 0.46102 0.80009 0.37826 0.0
C2386 C 0.43514 0.80544 0.35095 0.0
C2387 C 0.45189 0.804 0.33556 0.0
C2388 C 0.47324 0.80081 0.34173 0.0
C2389 C 0.47753 0.79888 0.36299 0.0
C2390 C 0.41217 0.80884 0.34498 0.0
C2391 C 0.49153 0.79912 0.32577 0.0
C2392 C 0.43909 0.78717 0.27498 0.0
C2393 C 0.44033 0.80714 0.26907 0.0
C2394 C 0.44262 0.78593 0.29661 0.0
C2395 C 0.4471 0.80522 0.31279 0.0
C2396 C 0.44767 0.82555 0.30706 0.0
C2397 C 0.44427 0.82627 0.28526 0.0
C2398 C 0.44177 0.76394 0.3021 0.0
C2399 C 0.45222 0.84649 0.32388 0.0
H2400 H 0.42695 0.80325 0.38345 0.0
H2401 H 0.49388 0.79631 0.36766 0.0
H2402 H 0.41086 0.82365 0.33851 0.0
H2403 H 0.40675 0.79479 0.3319 0.0
H2404 H 0.40118 0.81064 0.35913 0.0
H2405 H 0.50727 0.79706 0.33327 0.0
H2406 H 0.4889 0.785 0.31166 0.0
H2407 H 0.49216 0.81397 0.31932 0.0
H2408 H 0.43501 0.77251 0.2628 0.0
H2409 H 0.44506 0.8418 0.2808 0.0
H2410 H 0.42949 0.76411 0.31481 0.0
H2411 H 0.45741 0.76037 0.30887 0.0
H2412 H 0.43796 0.75052 0.28764 0.0
H2413 H 0.44065 0.84855 0.33755 0.0
H2414 H 0.45127 0.86105 0.31694 0.0
H2415 H 0.46848 0.8458 0.33083 0.0
C2416 C 0.47938 0.1896 0.63629 0.0
C2417 C 0.46245 0.18574 0.62122 0.0
C2418 C 0.47575 0.19119 0.65854 0.0
C2419 C 0.45467 0.18881 0.6659 0.0
C2420 C 0.43748 0.18507 0.6508 0.0
C2421 C 0.44156 0.18386 0.62867 0.0
C2422 C 0.49447 0.19541 0.67418 0.0
C2423 C 0.41479 0.18242 0.658 0.0
C2424 C 0.44919 0.17296 0.71996 0.0
C2425 C 0.44487 0.19315 0.7344 0.0
C2426 C 0.45207 0.17126 0.69758 0.0
C2427 C 0.45069 0.19023 0.68943 0.0
C2428 C 0.44591 0.21059 0.70383 0.0
C2429 C 0.44279 0.21174 0.7261 0.0
C2430 C 0.45684 0.1492 0.6827 0.0
C2431 C 0.44425 0.23119 0.69574 0.0
H2432 H 0.49555 0.19126 0.63065 0.0
H2433 H 0.42826 0.18202 0.61737 0.0
H2434 H 0.49162 0.21051 0.68708 0.0
H2435 H 0.4961 0.1818 0.68238 0.0
H2436 H 0.50982 0.19717 0.66588 0.0
H2437 H 0.41396 0.16881 0.66629 0.0
H2438 H 0.4096 0.19743 0.66997 0.0
H2439 H 0.40331 0.17905 0.64412 0.0
H2440 H 0.45064 0.15847 0.72622 0.0
H2441 H 0.43839 0.22716 0.73689 0.0
H2442 H 0.47282 0.14948 0.6751 0.0
H2443 H 0.44489 0.14534 0.66929 0.0
H2444 H 0.45666 0.13593 0.69148 0.0
H2445 H 0.45954 0.23409 0.68795 0.0
H2446 H 0.4406 0.24575 0.70908 0.0
H2447 H 0.43153 0.22938 0.68315 0.0
C2448 C -0.00343 0.76152 0.73332 0.0
C2449 C 0.97543 0.75526 0.73603 0.0
C2450 C 0.00107 0.78108 0.72739 0.0
C2451 C 0.98401 0.79509 0.72483 0.0
C2452 C 0.96257 0.78873 0.72736 0.0
C2453 C 0.95852 0.76871 0.73268 0.0
C2454 C 0.02412 0.78692 0.72424 0.0
C2455 C 0.944 0.80345 0.72533 0.0
C2456 C 0.00154 0.85418 0.73443 0.0
C2457 C 0.00342 0.8567 0.71308 0.0
C2458 C 0.99397 0.83461 0.7385 0.0
C2459 C 0.9889 0.81686 0.72073 0.0
C2460 C 0.99032 0.81951 0.69913 0.0
C2461 C -0.00269 0.83955 0.69557 0.0
C2462 C 0.99208 0.83269 0.7618 0.0
C2463 C 0.98563 0.80085 0.67974 0.0
H2464 H 0.00964 0.75103 0.73579 0.0
H2465 H 0.94218 0.764 0.73509 0.0
H2466 H 0.02606 0.79115 0.70828 0.0
H2467 H 0.02879 0.80148 0.73712 0.0
H2468 H 0.03531 0.7734 0.72492 0.0
H2469 H 0.92827 0.79553 0.7264 0.0
H2470 H 0.94494 0.81861 0.73855 0.0
H2471 H 0.94478 0.80833 0.70961 0.0
H2472 H 0.00616 0.8675 0.74797 0.0
H2473 H -0.00095 0.84141 0.67904 0.0
H2474 H 0.00442 0.82123 0.76511 0.0
H2475 H 0.97618 0.82596 0.76454 0.0
H2476 H 0.99423 0.84866 0.7737 0.0
H2477 H -0.00215 0.78787 0.67883 0.0
H2478 H 0.98579 0.80604 0.66413 0.0
H2479 H 0.9698 0.79352 0.68156 0.0
C2480 C 0.67665 0.2581 0.04933 0.0
C2481 C 0.67865 0.25143 0.06886 0.0
C2482 C 0.69479 0.26067 0.03707 0.0
C2483 C 0.71534 0.25574 0.04417 0.0
C2484 C 0.71742 0.24881 0.0638 0.0
C2485 C 0.69906 0.24707 0.0761 0.0
C2486 C 0.69196 0.26872 0.01657 0.0
C2487 C 0.73898 0.24282 0.07158 0.0
C2488 C 0.75835 0.24246 0.00043 0.0
C2489 C 0.77036 0.26176 0.00493 0.0
C2490 C 0.74075 0.24005 0.01347 0.0
C2491 C 0.73461 0.25767 0.03091 0.0
C2492 C 0.74662 0.27728 0.03536 0.0
C2493 C 0.76456 0.27897 0.02247 0.0
C2494 C 0.72872 0.21868 0.00858 0.0
C2495 C 0.74023 0.29665 0.05337 0.0
H2496 H 0.66089 0.26163 0.04379 0.0
H2497 H 0.70061 0.24172 0.09111 0.0
H2498 H 0.702 0.28341 0.01745 0.0
H2499 H 0.6974 0.25605 0.0022 0.0
H2500 H 0.67503 0.27287 0.0139 0.0
H2501 H 0.73782 0.23737 0.087 0.0
H2502 H 0.74632 0.22953 0.05891 0.0
H2503 H 0.74998 0.25701 0.07422 0.0
H2504 H 0.76292 0.22914 0.98687 0.0
H2505 H 0.77365 0.29404 0.02568 0.0
H2506 H 0.71201 0.22125 0.00374 0.0
H2507 H 0.72792 0.21223 0.02343 0.0
H2508 H 0.73631 0.20617 0.99528 0.0
H2509 H 0.72374 0.30188 0.05038 0.0
H2510 H 0.75123 0.31074 0.05465 0.0
H2511 H 0.74006 0.29208 0.06926 0.0
C2512 C 0.97445 0.1225 0.69373 0.0
C2513 C 0.98105 0.11243 0.67245 0.0
C2514 C 0.97835 0.14474 0.70272 0.0
C2515 C 0.98905 0.15722 0.69012 0.0
C2516 C 0.99598 0.14712 0.66875 0.0
C2517 C 0.99193 0.12485 0.66019 0.0
C2518 C 0.97085 0.15493 0.72563 0.0
C2519 C 0.00743 0.15993 0.65483 0.0
C2520 C 0.9813 0.21871 0.70575 0.0
C2521 C 0.00022 0.22572 0.71736 0.0
C2522 C 0.97753 0.19645 0.69663 0.0
C2523 C 0.99298 0.18086 0.69931 0.0
C2524 C 0.01214 0.18783 0.71089 0.0
C2525 C 0.01556 0.21017 0.71971 0.0
C2526 C 0.95696 0.18961 0.68424 0.0
C2527 C 0.02895 0.17167 0.71414 0.0
H2528 H 0.96605 0.11306 0.70332 0.0
H2529 H -0.00293 0.11723 0.64371 0.0
H2530 H 0.98461 0.1624 0.73589 0.0
H2531 H 0.95923 0.16819 0.7254 0.0
H2532 H 0.96309 0.14289 0.7334 0.0
H2533 H 0.01196 0.1496 0.6386 0.0
H2534 H -0.00298 0.17339 0.65236 0.0
H2535 H 0.02216 0.16747 0.66324 0.0
H2536 H 0.96939 0.2306 0.7038 0.0
H2537 H 0.0302 0.2154 0.7287 0.0
H2538 H 0.94768 0.17872 0.69224 0.0
H2539 H 0.96061 0.1802 0.66741 0.0
H2540 H 0.94675 0.20378 0.68332 0.0
H2541 H 0.02195 0.16019 0.72306 0.0
H2542 H 0.04306 0.17977 0.72343 0.0
H2543 H 0.03452 0.16181 0.69811 0.0
C2544 C 0.16991 0.64897 0.98223 0.0
C2545 C 0.15146 0.66166 0.98852 0.0
C2546 C 0.19039 0.6573 0.98878 0.0
C2547 C 0.19242 0.67873 0.00208 0.0
C2548 C 0.17395 0.69189 0.00775 0.0
C2549 C 0.15373 0.68324 0.00082 0.0
C2550 C 0.20975 0.64288 0.98219 0.0
C2551 C 0.17543 0.7148 0.02199 0.0
C2552 C 0.23878 0.69279 0.04187 0.0
C2553 C 0.25167 0.70577 0.03188 0.0
C2554 C 0.21977 0.6834 0.03202 0.0
C2555 C 0.21356 0.6869 0.01156 0.0
C2556 C 0.22688 0.69927 0.00096 0.0
C2557 C 0.24576 0.70865 0.01129 0.0
C2558 C 0.20596 0.67038 0.04391 0.0
C2559 C 0.22088 0.70313 0.97903 0.0
H2560 H 0.16834 0.63233 0.97262 0.0
H2561 H 0.13961 0.6932 0.00574 0.0
H2562 H 0.22228 0.65168 0.97526 0.0
H2563 H 0.21672 0.63859 -0.00321 0.0
H2564 H 0.20572 0.62754 0.97001 0.0
H2565 H 0.15974 0.72336 0.02379 0.0
H2566 H 0.18129 0.71423 0.03844 0.0
H2567 H 0.18713 0.72452 0.01509 0.0
H2568 H 0.2432 0.69042 0.05776 0.0
H2569 H 0.25566 0.71853 0.00338 0.0
H2570 H 0.20263 0.65399 0.03328 0.0
H2571 H 0.19031 0.67871 0.04803 0.0
H2572 H 0.21355 0.66833 0.05922 0.0
H2573 H 0.21717 0.68742 0.96732 0.0
H2574 H 0.23384 0.71147 0.9721 0.0
H2575 H 0.20622 0.71335 0.98067 0.0
C2576 C 0.00175 0.22806 0.2588 0.0
C2577 C 0.97993 0.23022 0.25452 0.0
C2578 C 0.00968 0.20911 0.26398 0.0
C2579 C 0.99553 0.19164 0.26425 0.0
C2580 C 0.97343 0.19377 0.25996 0.0
C2581 C 0.96586 0.21316 0.25535 0.0
C2582 C 0.03325 0.20772 0.26896 0.0
C2583 C 0.95794 0.17532 0.25958 0.0
C2584 C 0.02229 0.13609 0.25467 0.0
C2585 C 0.02319 0.13284 0.27583 0.0
C2586 C 0.01257 0.15477 0.25058 0.0
C2587 C 0.00411 0.17089 0.26818 0.0
C2588 C 0.00488 0.16762 0.28959 0.0
C2589 C 0.01425 0.14851 0.29312 0.0
C2590 C 0.01165 0.1574 0.22745 0.0
C2591 C -0.0035 0.18464 0.30884 0.0
H2592 H 0.01262 0.24131 0.25825 0.0
H2593 H 0.94904 0.21466 0.25162 0.0
H2594 H 0.0354 0.20345 0.28488 0.0
H2595 H 0.04086 0.19459 0.25634 0.0
H2596 H 0.0418 0.22327 0.2695 0.0
H2597 H 0.94117 0.17982 0.25667 0.0
H2598 H 0.96258 0.1609 0.24651 0.0
H2599 H 0.95861 0.17032 0.27524 0.0
H2600 H 0.02914 0.12393 0.24128 0.0
H2601 H 0.01533 0.14622 0.30956 0.0
H2602 H 0.02163 0.1715 0.22597 0.0
H2603 H 0.99497 0.16086 0.22315 0.0
H2604 H 0.01744 0.14264 0.21544 0.0
H2605 H 0.00588 0.19991 0.31074 0.0
H2606 H -0.00251 0.17922 0.3243 0.0
H2607 H 0.97957 0.18862 0.30605 0.0
C2608 C 0.13578 0.28369 -0.00035 0.0
C2609 C 0.12819 0.30474 0.00906 0.0
C2610 C 0.15207 0.28026 0.98389 0.0
C2611 C 0.16119 0.29837 0.97761 0.0
C2612 C 0.15378 0.3197 0.98729 0.0
C2613 C 0.13739 0.32263 0.00295 0.0
C2614 C 0.15937 0.25724 0.97378 0.0
C2615 C 0.16321 0.33942 0.98117 0.0
C2616 C 0.21654 0.28895 0.95215 0.0
C2617 C 0.21178 0.28474 0.9298 0.0
C2618 C 0.20029 0.29407 0.9679 0.0
C2619 C 0.17871 0.29486 0.96116 0.0
C2620 C 0.17384 0.29122 0.93865 0.0
C2621 C 0.19044 0.28634 0.92326 0.0
C2622 C 0.20615 0.29805 0.99174 0.0
C2623 C 0.15107 0.29216 0.93078 0.0
H2624 H 0.12868 0.26982 0.00433 0.0
H2625 H 0.13202 0.33897 0.01068 0.0
H2626 H 0.15707 0.25352 0.95584 0.0
H2627 H 0.17673 0.2556 0.97686 0.0
H2628 H 0.15051 0.24493 0.98031 0.0
H2629 H 0.15583 0.35491 0.99039 0.0
H2630 H 0.18073 0.34016 0.98431 0.0
H2631 H 0.1609 0.33808 0.96348 0.0
H2632 H 0.23297 0.28787 0.95738 0.0
H2633 H 0.1866 0.28323 0.90604 0.0
H2634 H 0.19909 0.28509 -0.00131 0.0
H2635 H 0.19944 0.31386 0.00096 0.0
H2636 H 0.22377 0.29823 0.99435 0.0
H2637 H 0.14047 0.28173 0.93808 0.0
H2638 H 0.14974 0.28684 0.91274 0.0
H2639 H 0.14504 0.30914 0.93604 0.0
C2640 C 0.99209 0.87484 0.32915 0.0
C2641 C 0.97252 0.88209 0.33925 0.0
C2642 C 0.99402 0.85386 0.31532 0.0
C2643 C 0.976 0.83981 0.31163 0.0
C2644 C 0.95619 0.84711 0.3216 0.0
C2645 C 0.95468 0.86815 0.33521 0.0
C2646 C 0.01537 0.84664 0.30482 0.0
C2647 C 0.93663 0.83258 0.31813 0.0
C2648 C 0.97395 0.79172 0.26221 0.0
C2649 C 0.97958 0.77429 0.27133 0.0
C2650 C 0.97311 0.81319 0.27505 0.0
C2651 C 0.97783 0.81731 0.2976 0.0
C2652 C 0.98354 0.79982 0.30692 0.0
C2653 C 0.98443 0.77853 0.29366 0.0
C2654 C 0.96705 0.83146 0.26453 0.0
C2655 C 0.98849 0.80357 0.33096 0.0
H2656 H 0.00594 0.88548 0.33214 0.0
H2657 H 0.93947 0.87356 0.34295 0.0
H2658 H 0.02129 0.83224 0.31028 0.0
H2659 H 0.01353 0.84156 0.28683 0.0
H2660 H 0.02766 0.85972 0.30884 0.0
H2661 H 0.92234 0.84083 0.32689 0.0
H2662 H 0.93278 0.82735 0.30049 0.0
H2663 H 0.93991 0.81761 0.32388 0.0
H2664 H 0.97031 0.78863 0.24494 0.0
H2665 H 0.9888 0.76517 0.30085 0.0
H2666 H 0.97977 0.84411 0.26749 0.0
H2667 H 0.9521 0.83942 0.27195 0.0
H2668 H 0.96455 0.82562 0.24665 0.0
H2669 H 0.00177 0.81547 0.33548 0.0
H2670 H 0.99305 0.78827 0.33559 0.0
H2671 H 0.97429 0.81066 0.34068 0.0
C2672 C 0.66608 0.75522 0.91828 0.0
C2673 C 0.64969 0.76321 0.93322 0.0
C2674 C 0.68569 0.74833 0.92521 0.0
C2675 C 0.68886 0.74906 0.94758 0.0
C2676 C 0.67236 0.75706 0.96277 0.0
C2677 C 0.65302 0.76425 0.95543 0.0
C2678 C 0.70301 0.74023 0.90854 0.0
C2679 C 0.67504 0.75772 0.98668 0.0
C2680 C 0.73258 0.71084 0.95757 0.0
C2681 C 0.7501 0.72505 0.96285 0.0
C2682 C 0.71222 0.71864 0.95376 0.0
C2683 C 0.70942 0.74113 0.95483 0.0
C2684 C 0.72683 0.75569 0.96101 0.0
C2685 C 0.74693 0.7475 0.96514 0.0
C2686 C 0.69394 0.70266 0.94767 0.0
C2687 C 0.72456 0.77975 0.96208 0.0
H2688 H 0.66367 0.75452 0.90112 0.0
H2689 H 0.64035 0.7703 0.96704 0.0
H2690 H 0.71791 0.7498 0.91326 0.0
H2691 H 0.70682 0.72294 0.90798 0.0
H2692 H 0.69827 0.74144 0.8919 0.0
H2693 H 0.66072 0.76452 0.99641 0.0
H2694 H 0.678 0.741 0.98876 0.0
H2695 H 0.68918 0.76776 0.99338 0.0
H2696 H 0.73488 0.6935 0.95598 0.0
H2697 H 0.76041 0.75857 0.96915 0.0
H2698 H 0.68951 0.70105 0.93033 0.0
H2699 H 0.67959 0.70872 0.95766 0.0
H2700 H 0.69813 0.68623 0.9499 0.0
H2701 H 0.72161 0.78206 0.94544 0.0
H2702 H 0.73909 0.78914 0.96884 0.0
H2703 H 0.71058 0.78665 0.97226 0.0
C2704 C 0.71644 0.94728 0.6646 0.0
C2705 C 0.71942 0.96702 0.65854 0.0
C2706 C 0.70132 0.94554 0.68056 0.0
C2707 C 0.68885 0.96398 0.69055 0.0
C2708 C 0.69183 0.98396 0.68445 0.0
C2709 C 0.70725 0.98528 0.66868 0.0
C2710 C 0.69889 0.9241 0.68693 0.0
C2711 C 0.67867 0.00392 0.69451 0.0
C2712 C 0.63563 0.95755 0.71737 0.0
C2713 C 0.64077 0.96473 0.73959 0.0
C2714 C 0.65127 0.95656 0.70122 0.0
C2715 C 0.67265 0.96257 0.70743 0.0
C2716 C 0.67817 0.96872 0.72984 0.0
C2717 C 0.66213 0.96991 0.74565 0.0
C2718 C 0.6447 0.95013 0.6775 0.0
C2719 C 0.70087 0.97481 0.73712 0.0
H2720 H 0.7263 0.93332 0.65725 0.0
H2721 H 0.70959 0.00057 0.66403 0.0
H2722 H 0.70235 0.9264 0.70457 0.0
H2723 H 0.68213 0.91821 0.6842 0.0
H2724 H 0.70975 0.9113 0.67754 0.0
H2725 H 0.68262 0.01804 0.6876 0.0
H2726 H 0.66136 0.00019 0.69186 0.0
H2727 H 0.68141 0.00871 0.71239 0.0
H2728 H 0.61916 0.95357 0.71253 0.0
H2729 H 0.66626 0.97531 0.76279 0.0
H2730 H 0.65517 0.93687 0.66831 0.0
H2731 H 0.64668 0.96429 0.67013 0.0
H2732 H 0.62778 0.94457 0.67535 0.0
H2733 H 0.71219 0.96203 0.72859 0.0
H2734 H 0.70294 0.97708 0.755 0.0
H2735 H 0.70534 0.99024 0.73277 0.0
C2736 C 0.62863 0.03394 0.25362 0.0
C2737 C 0.63298 0.03007 0.23122 0.0
C2738 C 0.64512 0.03392 0.26875 0.0
C2739 C 0.66652 0.03034 0.26136 0.0
C2740 C 0.67112 0.02721 0.23887 0.0
C2741 C 0.65426 0.02688 0.22403 0.0
C2742 C 0.63955 0.0371 0.29259 0.0
C2743 C 0.6938 0.02386 0.23043 0.0
C2744 C 0.71018 0.04705 0.30415 0.0
C2745 C 0.71615 0.02685 0.30785 0.0
C2746 C 0.69443 0.04839 0.28861 0.0
C2747 C 0.68396 0.02914 0.27712 0.0
C2748 C 0.68986 0.00872 0.28099 0.0
C2749 C 0.7062 0.00779 0.29605 0.0
C2750 C 0.68921 0.07032 0.28424 0.0
C2751 C 0.67874 0.98789 0.26943 0.0
H2752 H 0.61222 0.03632 0.25929 0.0
H2753 H 0.65774 0.02402 0.20676 0.0
H2754 H 0.64456 0.02255 0.29832 0.0
H2755 H 0.64837 0.05132 0.30252 0.0
H2756 H 0.62212 0.03977 0.29569 0.0
H2757 H 0.69485 0.02339 0.21277 0.0
H2758 H 0.70429 0.03715 0.23957 0.0
H2759 H 0.70021 0.00829 0.23305 0.0
H2760 H 0.71821 0.06174 0.31305 0.0
H2761 H 0.71088 0.99218 0.29896 0.0
H2762 H 0.67199 0.07414 0.2874 0.0
H2763 H 0.69217 0.06984 0.26681 0.0
H2764 H 0.69892 0.0837 0.29445 0.0
H2765 H 0.66128 0.98929 0.2728 0.0
H2766 H 0.68497 0.97341 0.27458 0.0
H2767 H 0.68081 0.98514 0.25154 0.0
C2768 C 0.26756 0.95792 0.79516 0.0
C2769 C 0.28851 0.96298 0.80265 0.0
C2770 C 0.26045 0.96241 0.77559 0.0
C2771 C 0.27485 0.97164 0.76299 0.0
C2772 C 0.29614 0.97646 0.77035 0.0
C2773 C 0.30268 0.9722 0.7902 0.0
C2774 C 0.23751 0.9574 0.76847 0.0
C2775 C 0.31209 0.98586 0.75715 0.0
C2776 C 0.26124 0.96395 0.70296 0.0
C2777 C 0.25282 0.98445 0.70256 0.0
C2778 C 0.26887 0.95969 0.72245 0.0
C2779 C 0.26762 0.97618 0.74207 0.0
C2780 C 0.25916 0.99692 0.74177 0.0
C2781 C 0.25206 0.00088 0.72197 0.0
C2782 C 0.2782 0.93751 0.72205 0.0
C2783 C 0.25724 0.0148 0.76242 0.0
H2784 H 0.25662 0.95076 0.80481 0.0
H2785 H 0.31905 0.97559 0.79574 0.0
H2786 H 0.22948 0.97243 0.7663 0.0
H2787 H 0.23708 0.94535 0.75248 0.0
H2788 H 0.22822 0.95078 0.78042 0.0
H2789 H 0.3281 0.98846 0.76506 0.0
H2790 H 0.31389 0.97473 0.74072 0.0
H2791 H 0.30617 0.0017 0.75477 0.0
H2792 H 0.26199 0.95124 0.68798 0.0
H2793 H 0.24544 0.01672 0.7218 0.0
H2794 H 0.26842 0.9293 0.73237 0.0
H2795 H 0.29464 0.93932 0.72897 0.0
H2796 H 0.27888 0.92681 0.7053 0.0
H2797 H 0.24695 0.00922 0.77432 0.0
H2798 H 0.2503 0.03002 0.7594 0.0
H2799 H 0.27323 0.01861 0.7701 0.0
C2800 C 0.26954 0.04378 0.32171 0.0
C2801 C 0.26877 0.02358 0.32733 0.0
C2802 C 0.27867 0.04562 0.3019 0.0
C2803 C 0.28695 0.02678 0.2873 0.0
C2804 C 0.28651 0.00645 0.29304 0.0
C2805 C 0.27755 0.00513 0.31301 0.0
C2806 C 0.27917 0.06762 0.29645 0.0
C2807 C 0.29502 0.98593 0.27784 0.0
C2808 C 0.29009 0.02239 0.22646 0.0
C2809 C 0.31224 0.02397 0.22339 0.0
C2810 C 0.28153 0.02419 0.24735 0.0
C2811 C 0.29543 0.02793 0.26562 0.0
C2812 C 0.31765 0.03075 0.26277 0.0
C2813 C 0.32582 0.02858 0.24166 0.0
C2814 C 0.25776 0.02091 0.24969 0.0
C2815 C 0.33291 0.03512 0.2819 0.0
H2816 H 0.26289 0.05814 0.33273 0.0
H2817 H 0.27701 0.98945 0.31716 0.0
H2818 H 0.29574 0.07156 0.29233 0.0
H2819 H 0.26906 0.06722 0.28188 0.0
H2820 H 0.27328 0.0809 0.31011 0.0
H2821 H 0.29378 0.97147 0.2849 0.0
H2822 H 0.28597 0.98253 0.26225 0.0
H2823 H 0.31207 0.98817 0.27394 0.0
H2824 H 0.27948 0.01884 0.21245 0.0
H2825 H 0.34293 0.03003 0.23944 0.0
H2826 H 0.25092 0.03453 0.26235 0.0
H2827 H 0.25498 0.00565 0.25508 0.0
H2828 H 0.24895 0.01979 0.23416 0.0
H2829 H 0.32683 0.04861 0.2952 0.0
H2830 H 0.34923 0.0394 0.2773 0.0
H2831 H 0.33411 0.02039 0.28852 0.0
loop_
_geom_bond_atom_site_label_1
_geom_bond_atom_site_label_2
_geom_bond_distance
_geom_bond_site_symmetry_2
_ccdc_geom_bond_type
O0 Cd1 2.300 . S
O0 C7 1.275 . S
Cd1 O0 2.300 . S
Cd1 O9 2.381 . S
Cd1 O10 2.378 . S
O2 Cd3 2.385 . S
O2 C7 1.255 . S
Cd3 O2 2.385 . S
Cd3 O4 2.317 . S
O4 Cd3 2.317 . S
O4 C5 1.232 . S
C5 O4 1.232 . S
C5 O6 1.218 . S
O6 C5 1.218 . S
C7 O0 1.275 . S
C7 O2 1.255 . S
C8 O9 1.258 . S
C8 O10 1.256 . S
O9 Cd1 2.381 . S
O9 C8 1.258 . S
O10 Cd1 2.378 . S
O10 C8 1.256 . S
O11 Cd12 2.300 . S
O11 C18 1.275 . S
Cd12 O11 2.300 . S
Cd12 O20 2.381 . S
Cd12 O21 2.378 . S
O13 Cd14 2.385 . S
O13 C18 1.255 . S
Cd14 O13 2.385 . S
Cd14 O15 2.317 . S
O15 Cd14 2.317 . S
O15 C16 1.232 . S
C16 O15 1.232 . S
C16 O17 1.218 . S
O17 C16 1.218 . S
C18 O11 1.275 . S
C18 O13 1.255 . S
C19 O20 1.258 . S
C19 O21 1.256 . S
O20 Cd12 2.381 . S
O20 C19 1.258 . S
O21 Cd12 2.378 . S
O21 C19 1.256 . S
O22 Cd23 2.300 . S
O22 C29 1.275 . S
Cd23 O22 2.300 . S
Cd23 O31 2.381 . S
Cd23 O32 2.378 . S
O24 Cd25 2.385 . S
O24 C29 1.255 . S
Cd25 O24 2.385 . S
Cd25 O26 2.317 . S
O26 Cd25 2.317 . S
O26 C27 1.232 . S
C27 O26 1.232 . S
C27 O28 1.218 . S
O28 C27 1.218 . S
C29 O22 1.275 . S
C29 O24 1.255 . S
C30 O31 1.258 . S
C30 O32 1.256 . S
O31 Cd23 2.381 . S
O31 C30 1.258 . S
O32 Cd23 2.378 . S
O32 C30 1.256 . S
O33 Cd34 2.300 . S
O33 C40 1.275 . S
Cd34 O33 2.300 . S
Cd34 O42 2.381 . S
Cd34 O43 2.378 . S
O35 Cd36 2.385 . S
O35 C40 1.255 . S
Cd36 O35 2.385 . S
Cd36 O37 2.317 . S
O37 Cd36 2.317 . S
O37 C38 1.232 . S
C38 O37 1.232 . S
C38 O39 1.218 . S
O39 C38 1.218 . S
C40 O33 1.275 . S
C40 O35 1.255 . S
C41 O42 1.258 . S
C41 O43 1.256 . S
O42 Cd34 2.381 . S
O42 C41 1.258 . S
O43 Cd34 2.378 . S
O43 C41 1.256 . S
O44 Cd45 2.300 . S
O44 C51 1.275 . S
Cd45 O44 2.300 . S
Cd45 O53 2.381 . S
Cd45 O54 2.378 . S
O46 Cd47 2.385 . S
O46 C51 1.255 . S
Cd47 O46 2.385 . S
Cd47 O48 2.317 . S
O48 Cd47 2.317 . S
O48 C49 1.232 . S
C49 O48 1.232 . S
C49 O50 1.218 . S
O50 C49 1.218 . S
C51 O44 1.275 . S
C51 O46 1.255 . S
C52 O53 1.258 . S
C52 O54 1.256 . S
O53 Cd45 2.381 . S
O53 C52 1.258 . S
O54 Cd45 2.378 . S
O54 C52 1.256 . S
O55 Cd56 2.300 . S
O55 C62 1.275 . S
Cd56 O55 2.300 . S
Cd56 O64 2.381 . S
Cd56 O65 2.378 . S
O57 Cd58 2.385 . S
O57 C62 1.255 . S
Cd58 O57 2.385 . S
Cd58 O59 2.317 . S
O59 Cd58 2.317 . S
O59 C60 1.232 . S
C60 O59 1.232 . S
C60 O61 1.218 . S
O61 C60 1.218 . S
C62 O55 1.275 . S
C62 O57 1.255 . S
C63 O64 1.258 . S
C63 O65 1.256 . S
O64 Cd56 2.381 . S
O64 C63 1.258 . S
O65 Cd56 2.378 . S
O65 C63 1.256 . S
O66 Cd67 2.300 . S
O66 C73 1.275 . S
Cd67 O66 2.300 . S
Cd67 O75 2.381 . S
Cd67 O76 2.378 . S
O68 Cd69 2.385 . S
O68 C73 1.255 . S
Cd69 O68 2.385 . S
Cd69 O70 2.317 . S
O70 Cd69 2.317 . S
O70 C71 1.232 . S
C71 O70 1.232 . S
C71 O72 1.218 . S
O72 C71 1.218 . S
C73 O66 1.275 . S
C73 O68 1.255 . S
C74 O75 1.258 . S
C74 O76 1.256 . S
O75 Cd67 2.381 . S
O75 C74 1.258 . S
O76 Cd67 2.378 . S
O76 C74 1.256 . S
O77 Cd78 2.300 . S
O77 C84 1.275 . S
Cd78 O77 2.300 . S
Cd78 O86 2.381 . S
Cd78 O87 2.378 . S
O79 Cd80 2.385 . S
O79 C84 1.255 . S
Cd80 O79 2.385 . S
Cd80 O81 2.317 . S
O81 Cd80 2.317 . S
O81 C82 1.232 . S
C82 O81 1.232 . S
C82 O83 1.218 . S
O83 C82 1.218 . S
C84 O77 1.275 . S
C84 O79 1.255 . S
C85 O86 1.258 . S
C85 O87 1.256 . S
O86 Cd78 2.381 . S
O86 C85 1.258 . S
O87 Cd78 2.378 . S
O87 C85 1.256 . S
O88 Cd89 2.300 . S
O88 C95 1.275 . S
Cd89 O88 2.300 . S
Cd89 O97 2.381 . S
Cd89 O98 2.378 . S
O90 Cd91 2.385 . S
O90 C95 1.255 . S
Cd91 O90 2.385 . S
Cd91 O92 2.317 . S
O92 Cd91 2.317 . S
O92 C93 1.232 . S
C93 O92 1.232 . S
C93 O94 1.218 . S
O94 C93 1.218 . S
C95 O88 1.275 . S
C95 O90 1.255 . S
C96 O97 1.258 . S
C96 O98 1.256 . S
O97 Cd89 2.381 . S
O97 C96 1.258 . S
O98 Cd89 2.378 . S
O98 C96 1.256 . S
O99 Cd100 2.300 . S
O99 C106 1.275 . S
Cd100 O99 2.300 . S
Cd100 O108 2.381 . S
Cd100 O109 2.378 . S
O101 Cd102 2.385 . S
O101 C106 1.255 . S
Cd102 O101 2.385 . S
Cd102 O103 2.317 . S
O103 Cd102 2.317 . S
O103 C104 1.232 . S
C104 O103 1.232 . S
C104 O105 1.218 . S
O105 C104 1.218 . S
C106 O99 1.275 . S
C106 O101 1.255 . S
C107 O108 1.258 . S
C107 O109 1.256 . S
O108 Cd100 2.381 . S
O108 C107 1.258 . S
O109 Cd100 2.378 . S
O109 C107 1.256 . S
O110 Cd111 2.300 . S
O110 C117 1.275 . S
Cd111 O110 2.300 . S
Cd111 O119 2.381 . S
Cd111 O120 2.378 . S
O112 Cd113 2.385 . S
O112 C117 1.255 . S
Cd113 O112 2.385 . S
Cd113 O114 2.317 . S
O114 Cd113 2.317 . S
O114 C115 1.232 . S
C115 O114 1.232 . S
C115 O116 1.218 . S
O116 C115 1.218 . S
C117 O110 1.275 . S
C117 O112 1.255 . S
C118 O119 1.258 . S
C118 O120 1.256 . S
O119 Cd111 2.381 . S
O119 C118 1.258 . S
O120 Cd111 2.378 . S
O120 C118 1.256 . S
O121 Cd122 2.300 . S
O121 C128 1.275 . S
Cd122 O121 2.300 . S
Cd122 O130 2.381 . S
Cd122 O131 2.378 . S
O123 Cd124 2.385 . S
O123 C128 1.255 . S
Cd124 O123 2.385 . S
Cd124 O125 2.317 . S
O125 Cd124 2.317 . S
O125 C126 1.232 . S
C126 O125 1.232 . S
C126 O127 1.218 . S
O127 C126 1.218 . S
C128 O121 1.275 . S
C128 O123 1.255 . S
C129 O130 1.258 . S
C129 O131 1.256 . S
O130 Cd122 2.381 . S
O130 C129 1.258 . S
O131 Cd122 2.378 . S
O131 C129 1.256 . S
O132 Cd133 2.300 . S
O132 C139 1.275 . S
Cd133 O132 2.300 . S
Cd133 O141 2.381 . S
Cd133 O142 2.378 . S
O134 Cd135 2.385 . S
O134 C139 1.255 . S
Cd135 O134 2.385 . S
Cd135 O136 2.317 . S
O136 Cd135 2.317 . S
O136 C137 1.232 . S
C137 O136 1.232 . S
C137 O138 1.218 . S
O138 C137 1.218 . S
C139 O132 1.275 . S
C139 O134 1.255 . S
C140 O141 1.258 . S
C140 O142 1.256 . S
O141 Cd133 2.381 . S
O141 C140 1.258 . S
O142 Cd133 2.378 . S
O142 C140 1.256 . S
O143 Cd144 2.300 . S
O143 C150 1.275 . S
Cd144 O143 2.300 . S
Cd144 O152 2.381 . S
Cd144 O153 2.378 . S
O145 Cd146 2.385 . S
O145 C150 1.255 . S
Cd146 O145 2.385 . S
Cd146 O147 2.317 . S
O147 Cd146 2.317 . S
O147 C148 1.232 . S
C148 O147 1.232 . S
C148 O149 1.218 . S
O149 C148 1.218 . S
C150 O143 1.275 . S
C150 O145 1.255 . S
C151 O152 1.258 . S
C151 O153 1.256 . S
O152 Cd144 2.381 . S
O152 C151 1.258 . S
O153 Cd144 2.378 . S
O153 C151 1.256 . S
O154 Cd155 2.300 . S
O154 C161 1.275 . S
Cd155 O154 2.300 . S
Cd155 O163 2.381 . S
Cd155 O164 2.378 . S
O156 Cd157 2.385 . S
O156 C161 1.255 . S
Cd157 O156 2.385 . S
Cd157 O158 2.317 . S
O158 Cd157 2.317 . S
O158 C159 1.232 . S
C159 O158 1.232 . S
C159 O160 1.218 . S
O160 C159 1.218 . S
C161 O154 1.275 . S
C161 O156 1.255 . S
C162 O163 1.258 . S
C162 O164 1.256 . S
O163 Cd155 2.381 . S
O163 C162 1.258 . S
O164 Cd155 2.378 . S
O164 C162 1.256 . S
O165 Cd166 2.300 . S
O165 C172 1.275 . S
Cd166 O165 2.300 . S
Cd166 O174 2.381 . S
Cd166 O175 2.378 . S
O167 Cd168 2.385 . S
O167 C172 1.255 . S
Cd168 O167 2.385 . S
Cd168 O169 2.317 . S
O169 Cd168 2.317 . S
O169 C170 1.232 . S
C170 O169 1.232 . S
C170 O171 1.218 . S
O171 C170 1.218 . S
C172 O165 1.275 . S
C172 O167 1.255 . S
C173 O174 1.258 . S
C173 O175 1.256 . S
O174 Cd166 2.381 . S
O174 C173 1.258 . S
O175 Cd166 2.378 . S
O175 C173 1.256 . S
O176 Cd177 2.300 . S
O176 C183 1.275 . S
Cd177 O176 2.300 . S
Cd177 O185 2.381 . S
Cd177 O186 2.378 . S
O178 Cd179 2.385 . S
O178 C183 1.255 . S
Cd179 O178 2.385 . S
Cd179 O180 2.317 . S
O180 Cd179 2.317 . S
O180 C181 1.232 . S
C181 O180 1.232 . S
C181 O182 1.218 . S
O182 C181 1.218 . S
C183 O176 1.275 . S
C183 O178 1.255 . S
C184 O185 1.258 . S
C184 O186 1.256 . S
O185 Cd177 2.381 . S
O185 C184 1.258 . S
O186 Cd177 2.378 . S
O186 C184 1.256 . S
O187 Cd188 2.300 . S
O187 C194 1.275 . S
Cd188 O187 2.300 . S
Cd188 O196 2.381 . S
Cd188 O197 2.378 . S
O189 Cd190 2.385 . S
O189 C194 1.255 . S
Cd190 O189 2.385 . S
Cd190 O191 2.317 . S
O191 Cd190 2.317 . S
O191 C192 1.232 . S
C192 O191 1.232 . S
C192 O193 1.218 . S
O193 C192 1.218 . S
C194 O187 1.275 . S
C194 O189 1.255 . S
C195 O196 1.258 . S
C195 O197 1.256 . S
O196 Cd188 2.381 . S
O196 C195 1.258 . S
O197 Cd188 2.378 . S
O197 C195 1.256 . S
O198 Cd199 2.300 . S
O198 C205 1.275 . S
Cd199 O198 2.300 . S
Cd199 O207 2.381 . S
Cd199 O208 2.378 . S
O200 Cd201 2.385 . S
O200 C205 1.255 . S
Cd201 O200 2.385 . S
Cd201 O202 2.317 . S
O202 Cd201 2.317 . S
O202 C203 1.232 . S
C203 O202 1.232 . S
C203 O204 1.218 . S
O204 C203 1.218 . S
C205 O198 1.275 . S
C205 O200 1.255 . S
C206 O207 1.258 . S
C206 O208 1.256 . S
O207 Cd199 2.381 . S
O207 C206 1.258 . S
O208 Cd199 2.378 . S
O208 C206 1.256 . S
O209 Cd210 2.300 . S
O209 C216 1.275 . S
Cd210 O209 2.300 . S
Cd210 O218 2.381 . S
Cd210 O219 2.378 . S
O211 Cd212 2.385 . S
O211 C216 1.255 . S
Cd212 O211 2.385 . S
Cd212 O213 2.317 . S
O213 Cd212 2.317 . S
O213 C214 1.232 . S
C214 O213 1.232 . S
C214 O215 1.218 . S
O215 C214 1.218 . S
C216 O209 1.275 . S
C216 O211 1.255 . S
C217 O218 1.258 . S
C217 O219 1.256 . S
O218 Cd210 2.381 . S
O218 C217 1.258 . S
O219 Cd210 2.378 . S
O219 C217 1.256 . S
O220 Cd221 2.300 . S
O220 C227 1.275 . S
Cd221 O220 2.300 . S
Cd221 O229 2.381 . S
Cd221 O230 2.378 . S
O222 Cd223 2.385 . S
O222 C227 1.255 . S
Cd223 O222 2.385 . S
Cd223 O224 2.317 . S
O224 Cd223 2.317 . S
O224 C225 1.232 . S
C225 O224 1.232 . S
C225 O226 1.218 . S
O226 C225 1.218 . S
C227 O220 1.275 . S
C227 O222 1.255 . S
C228 O229 1.258 . S
C228 O230 1.256 . S
O229 Cd221 2.381 . S
O229 C228 1.258 . S
O230 Cd221 2.378 . S
O230 C228 1.256 . S
O231 Cd232 2.300 . S
O231 C238 1.275 . S
Cd232 O231 2.300 . S
Cd232 O240 2.381 . S
Cd232 O241 2.378 . S
O233 Cd234 2.385 . S
O233 C238 1.255 . S
Cd234 O233 2.385 . S
Cd234 O235 2.317 . S
O235 Cd234 2.317 . S
O235 C236 1.232 . S
C236 O235 1.232 . S
C236 O237 1.218 . S
O237 C236 1.218 . S
C238 O231 1.275 . S
C238 O233 1.255 . S
C239 O240 1.258 . S
C239 O241 1.256 . S
O240 Cd232 2.381 . S
O240 C239 1.258 . S
O241 Cd232 2.378 . S
O241 C239 1.256 . S
O242 Cd243 2.300 . S
O242 C249 1.275 . S
Cd243 O242 2.300 . S
Cd243 O251 2.381 . S
Cd243 O252 2.378 . S
O244 Cd245 2.385 . S
O244 C249 1.255 . S
Cd245 O244 2.385 . S
Cd245 O246 2.317 . S
O246 Cd245 2.317 . S
O246 C247 1.232 . S
C247 O246 1.232 . S
C247 O248 1.218 . S
O248 C247 1.218 . S
C249 O242 1.275 . S
C249 O244 1.255 . S
C250 O251 1.258 . S
C250 O252 1.256 . S
O251 Cd243 2.381 . S
O251 C250 1.258 . S
O252 Cd243 2.378 . S
O252 C250 1.256 . S
O253 Cd254 2.300 . S
O253 C260 1.275 . S
Cd254 O253 2.300 . S
Cd254 O262 2.381 . S
Cd254 O263 2.378 . S
O255 Cd256 2.385 . S
O255 C260 1.255 . S
Cd256 O255 2.385 . S
Cd256 O257 2.317 . S
O257 Cd256 2.317 . S
O257 C258 1.232 . S
C258 O257 1.232 . S
C258 O259 1.218 . S
O259 C258 1.218 . S
C260 O253 1.275 . S
C260 O255 1.255 . S
C261 O262 1.258 . S
C261 O263 1.256 . S
O262 Cd254 2.381 . S
O262 C261 1.258 . S
O263 Cd254 2.378 . S
O263 C261 1.256 . S
O264 Cd265 2.300 . S
O264 C271 1.275 1_455 S
Cd265 O264 2.300 . S
Cd265 O273 2.381 . S
Cd265 O274 2.378 . S
O266 Cd267 2.385 . S
O266 C271 1.255 . S
Cd267 O266 2.385 . S
Cd267 O268 2.317 . S
O268 Cd267 2.317 . S
O268 C269 1.232 . S
C269 O268 1.232 . S
C269 O270 1.218 . S
O270 C269 1.218 . S
C271 O264 1.275 1_655 S
C271 O266 1.255 . S
C272 O273 1.258 . S
C272 O274 1.256 . S
O273 Cd265 2.381 . S
O273 C272 1.258 . S
O274 Cd265 2.378 . S
O274 C272 1.256 . S
O275 Cd276 2.300 . S
O275 C282 1.275 . S
Cd276 O275 2.300 . S
Cd276 O284 2.381 . S
Cd276 O285 2.378 . S
O277 Cd278 2.385 . S
O277 C282 1.255 . S
Cd278 O277 2.385 . S
Cd278 O279 2.317 . S
O279 Cd278 2.317 . S
O279 C280 1.232 . S
C280 O279 1.232 . S
C280 O281 1.218 . S
O281 C280 1.218 . S
C282 O275 1.275 . S
C282 O277 1.255 . S
C283 O284 1.258 . S
C283 O285 1.256 . S
O284 Cd276 2.381 . S
O284 C283 1.258 . S
O285 Cd276 2.378 . S
O285 C283 1.256 . S
O286 Cd287 2.300 . S
O286 C293 1.275 1_455 S
Cd287 O286 2.300 . S
Cd287 O295 2.381 . S
Cd287 O296 2.378 . S
O288 Cd289 2.385 . S
O288 C293 1.255 . S
Cd289 O288 2.385 . S
Cd289 O290 2.317 . S
O290 Cd289 2.317 . S
O290 C291 1.232 . S
C291 O290 1.232 . S
C291 O292 1.218 . S
O292 C291 1.218 . S
C293 O286 1.275 1_655 S
C293 O288 1.255 . S
C294 O295 1.258 . S
C294 O296 1.256 . S
O295 Cd287 2.381 . S
O295 C294 1.258 . S
O296 Cd287 2.378 . S
O296 C294 1.256 . S
O297 Cd298 2.300 . S
O297 C304 1.275 . S
Cd298 O297 2.300 . S
Cd298 O306 2.381 . S
Cd298 O307 2.378 . S
O299 Cd300 2.385 . S
O299 C304 1.255 . S
Cd300 O299 2.385 . S
Cd300 O301 2.317 . S
O301 Cd300 2.317 . S
O301 C302 1.232 . S
C302 O301 1.232 . S
C302 O303 1.218 . S
O303 C302 1.218 . S
C304 O297 1.275 . S
C304 O299 1.255 . S
C305 O306 1.258 . S
C305 O307 1.256 . S
O306 Cd298 2.381 . S
O306 C305 1.258 . S
O307 Cd298 2.378 . S
O307 C305 1.256 . S
O308 Cd309 2.300 . S
O308 C315 1.275 1_455 S
Cd309 O308 2.300 . S
Cd309 O317 2.381 . S
Cd309 O318 2.378 . S
O310 Cd311 2.385 . S
O310 C315 1.255 . S
Cd311 O310 2.385 . S
Cd311 O312 2.317 . S
O312 Cd311 2.317 . S
O312 C313 1.232 . S
C313 O312 1.232 . S
C313 O314 1.218 . S
O314 C313 1.218 . S
C315 O308 1.275 1_655 S
C315 O310 1.255 . S
C316 O317 1.258 . S
C316 O318 1.256 . S
O317 Cd309 2.381 . S
O317 C316 1.258 . S
O318 Cd309 2.378 . S
O318 C316 1.256 . S
O319 Cd320 2.300 . S
O319 C326 1.275 . S
Cd320 O319 2.300 . S
Cd320 O328 2.381 . S
Cd320 O329 2.378 . S
O321 Cd322 2.385 . S
O321 C326 1.255 . S
Cd322 O321 2.385 . S
Cd322 O323 2.317 . S
O323 Cd322 2.317 . S
O323 C324 1.232 . S
C324 O323 1.232 . S
C324 O325 1.218 . S
O325 C324 1.218 . S
C326 O319 1.275 . S
C326 O321 1.255 . S
C327 O328 1.258 . S
C327 O329 1.256 . S
O328 Cd320 2.381 . S
O328 C327 1.258 . S
O329 Cd320 2.378 . S
O329 C327 1.256 . S
O330 Cd331 2.300 . S
O330 C337 1.275 1_455 S
Cd331 O330 2.300 . S
Cd331 O339 2.381 . S
Cd331 O340 2.378 . S
O332 Cd333 2.385 . S
O332 C337 1.255 . S
Cd333 O332 2.385 . S
Cd333 O334 2.317 . S
O334 Cd333 2.317 . S
O334 C335 1.232 . S
C335 O334 1.232 . S
C335 O336 1.218 . S
O336 C335 1.218 . S
C337 O330 1.275 1_655 S
C337 O332 1.255 . S
C338 O339 1.258 . S
C338 O340 1.256 . S
O339 Cd331 2.381 . S
O339 C338 1.258 . S
O340 Cd331 2.378 . S
O340 C338 1.256 . S
O341 Cd342 2.300 . S
O341 C348 1.275 . S
Cd342 O341 2.300 . S
Cd342 O350 2.381 . S
Cd342 O351 2.378 . S
O343 Cd344 2.385 . S
O343 C348 1.255 . S
Cd344 O343 2.385 . S
Cd344 O345 2.317 . S
O345 Cd344 2.317 . S
O345 C346 1.232 . S
C346 O345 1.232 . S
C346 O347 1.218 . S
O347 C346 1.218 . S
C348 O341 1.275 . S
C348 O343 1.255 . S
C349 O350 1.258 . S
C349 O351 1.256 . S
O350 Cd342 2.381 . S
O350 C349 1.258 . S
O351 Cd342 2.378 . S
O351 C349 1.256 . S
O352 Cd353 2.300 . S
O352 C359 1.275 . S
Cd353 O352 2.300 . S
Cd353 O361 2.381 . S
Cd353 O362 2.378 . S
O354 Cd355 2.385 . S
O354 C359 1.255 1_545 S
Cd355 O354 2.385 . S
Cd355 O356 2.317 . S
O356 Cd355 2.317 . S
O356 C357 1.232 . S
C357 O356 1.232 . S
C357 O358 1.218 . S
O358 C357 1.218 . S
C359 O352 1.275 . S
C359 O354 1.255 1_565 S
C360 O361 1.258 . S
C360 O362 1.256 . S
O361 Cd353 2.381 . S
O361 C360 1.258 . S
O362 Cd353 2.378 . S
O362 C360 1.256 . S
O363 Cd364 2.300 . S
O363 C370 1.275 . S
Cd364 O363 2.300 . S
Cd364 O372 2.381 . S
Cd364 O373 2.378 . S
O365 Cd366 2.385 . S
O365 C370 1.255 . S
Cd366 O365 2.385 . S
Cd366 O367 2.317 . S
O367 Cd366 2.317 . S
O367 C368 1.232 . S
C368 O367 1.232 . S
C368 O369 1.218 . S
O369 C368 1.218 . S
C370 O363 1.275 . S
C370 O365 1.255 . S
C371 O372 1.258 . S
C371 O373 1.256 . S
O372 Cd364 2.381 . S
O372 C371 1.258 . S
O373 Cd364 2.378 . S
O373 C371 1.256 . S
O374 Cd375 2.300 . S
O374 C381 1.296 . S
Cd375 O374 2.300 . S
Cd375 O383 2.381 . S
Cd375 O384 2.378 . S
O376 Cd377 2.385 . S
O376 C381 1.245 1_545 S
Cd377 O376 2.385 . S
Cd377 O378 2.317 . S
O378 Cd377 2.317 . S
O378 C379 1.232 . S
C379 O378 1.232 . S
C379 O380 1.218 . S
O380 C379 1.218 . S
C381 O374 1.296 . S
C381 O376 1.245 1_565 S
C382 O383 1.258 . S
C382 O384 1.256 . S
O383 Cd375 2.381 . S
O383 C382 1.258 . S
O384 Cd375 2.378 . S
O384 C382 1.256 . S
O385 Cd386 2.300 . S
O385 C392 1.275 1_565 S
Cd386 O385 2.300 . S
Cd386 O394 2.381 . S
Cd386 O395 2.378 . S
O387 Cd388 2.385 . S
O387 C392 1.255 . S
Cd388 O387 2.385 . S
Cd388 O389 2.358 . S
O389 Cd388 2.358 . S
O389 C390 1.237 . S
C390 O389 1.237 . S
C390 O391 1.215 . S
O391 C390 1.215 . S
C392 O385 1.275 1_545 S
C392 O387 1.255 . S
C393 O394 1.258 . S
C393 O395 1.256 . S
O394 Cd386 2.381 . S
O394 C393 1.258 . S
O395 Cd386 2.378 . S
O395 C393 1.256 . S
O396 Cd397 2.300 . S
O396 C403 1.275 . S
Cd397 O396 2.300 . S
Cd397 O405 2.381 . S
Cd397 O406 2.378 . S
O398 Cd399 2.385 . S
O398 C403 1.255 1_565 S
Cd399 O398 2.385 . S
Cd399 O400 2.317 . S
O400 Cd399 2.317 . S
O400 C401 1.232 . S
C401 O400 1.232 . S
C401 O402 1.218 . S
O402 C401 1.218 . S
C403 O396 1.275 . S
C403 O398 1.255 1_545 S
C404 O405 1.258 . S
C404 O406 1.256 . S
O405 Cd397 2.381 . S
O405 C404 1.258 . S
O406 Cd397 2.378 . S
O406 C404 1.256 . S
O407 Cd408 2.300 . S
O407 C414 1.275 1_545 S
Cd408 O407 2.300 . S
Cd408 O416 2.381 . S
Cd408 O417 2.378 . S
O409 Cd410 2.385 . S
O409 C414 1.255 . S
Cd410 O409 2.385 . S
Cd410 O411 2.358 . S
O411 Cd410 2.358 . S
O411 C412 1.237 . S
C412 O411 1.237 . S
C412 O413 1.215 . S
O413 C412 1.215 . S
C414 O407 1.275 1_565 S
C414 O409 1.255 . S
C415 O416 1.258 . S
C415 O417 1.256 . S
O416 Cd408 2.381 . S
O416 C415 1.258 . S
O417 Cd408 2.378 . S
O417 C415 1.256 . S
O418 Cd419 2.300 . S
O418 C425 1.296 . S
Cd419 O418 2.300 . S
Cd419 O427 2.381 . S
Cd419 O428 2.378 . S
O420 Cd421 2.385 . S
O420 C425 1.245 1_565 S
Cd421 O420 2.385 . S
Cd421 O422 2.317 . S
O422 Cd421 2.317 . S
O422 C423 1.232 . S
C423 O422 1.232 . S
C423 O424 1.218 . S
O424 C423 1.218 . S
C425 O418 1.296 . S
C425 O420 1.245 1_545 S
C426 O427 1.258 . S
C426 O428 1.256 . S
O427 Cd419 2.381 . S
O427 C426 1.258 . S
O428 Cd419 2.378 . S
O428 C426 1.256 . S
O429 Cd430 2.300 . S
O429 C436 1.275 . S
Cd430 O429 2.300 . S
Cd430 O438 2.381 . S
Cd430 O439 2.378 . S
O431 Cd432 2.385 . S
O431 C436 1.255 . S
Cd432 O431 2.385 . S
Cd432 O433 2.317 . S
O433 Cd432 2.317 . S
O433 C434 1.232 . S
C434 O433 1.232 . S
C434 O435 1.218 . S
O435 C434 1.218 . S
C436 O429 1.275 . S
C436 O431 1.255 . S
C437 O438 1.258 . S
C437 O439 1.256 . S
O438 Cd430 2.381 . S
O438 C437 1.258 . S
O439 Cd430 2.378 . S
O439 C437 1.256 . S
O440 Cd441 2.300 . S
O440 C447 1.275 1_554 S
Cd441 O440 2.300 . S
Cd441 O449 2.381 . S
Cd441 O450 2.378 . S
O442 Cd443 2.385 . S
O442 C447 1.255 . S
Cd443 O442 2.385 . S
Cd443 O444 2.317 . S
O444 Cd443 2.317 . S
O444 C445 1.232 . S
C445 O444 1.232 . S
C445 O446 1.218 . S
O446 C445 1.218 . S
C447 O440 1.275 1_556 S
C447 O442 1.255 . S
C448 O449 1.258 . S
C448 O450 1.256 . S
O449 Cd441 2.381 . S
O449 C448 1.258 . S
O450 Cd441 2.378 . S
O450 C448 1.256 . S
O451 Cd452 2.300 . S
O451 C458 1.275 1_556 S
Cd452 O451 2.300 . S
Cd452 O460 2.381 . S
Cd452 O461 2.378 . S
O453 Cd454 2.385 . S
O453 C458 1.255 . S
Cd454 O453 2.385 . S
Cd454 O455 2.317 . S
O455 Cd454 2.317 . S
O455 C456 1.232 . S
C456 O455 1.232 . S
C456 O457 1.218 . S
O457 C456 1.218 . S
C458 O451 1.275 1_554 S
C458 O453 1.255 . S
C459 O460 1.258 . S
C459 O461 1.256 . S
O460 Cd452 2.381 . S
O460 C459 1.258 . S
O461 Cd452 2.378 . S
O461 C459 1.256 . S
O462 Cd463 2.300 . S
O462 C469 1.275 . S
Cd463 O462 2.300 . S
Cd463 O471 2.381 1_655 S
Cd463 O472 2.378 . S
O464 Cd465 2.385 . S
O464 C469 1.255 . S
Cd465 O464 2.385 . S
Cd465 O466 2.317 . S
O466 Cd465 2.317 . S
O466 C467 1.232 . S
C467 O466 1.232 . S
C467 O468 1.218 . S
O468 C467 1.218 . S
C469 O462 1.275 . S
C469 O464 1.255 . S
C470 O471 1.258 . S
C470 O472 1.256 1_455 S
O471 Cd463 2.381 1_455 S
O471 C470 1.258 . S
O472 Cd463 2.378 . S
O472 C470 1.256 1_655 S
O473 Cd474 2.300 1_554 S
O473 C480 1.275 . S
Cd474 O473 2.300 1_556 S
Cd474 O482 2.381 . S
Cd474 O483 2.378 . S
O475 Cd476 2.385 . S
O475 C480 1.255 . S
Cd476 O475 2.385 . S
Cd476 O477 2.317 . S
O477 Cd476 2.317 . S
O477 C478 1.232 . S
C478 O477 1.232 . S
C478 O479 1.218 . S
O479 C478 1.218 . S
C480 O473 1.275 . S
C480 O475 1.255 . S
C481 O482 1.258 . S
C481 O483 1.256 . S
O482 Cd474 2.381 . S
O482 C481 1.258 . S
O483 Cd474 2.378 . S
O483 C481 1.256 . S
O484 Cd485 2.300 . S
O484 C491 1.275 . S
Cd485 O484 2.300 . S
Cd485 O493 2.381 . S
Cd485 O494 2.378 . S
O486 Cd487 2.385 . S
O486 C491 1.255 . S
Cd487 O486 2.385 . S
Cd487 O488 2.317 . S
O488 Cd487 2.317 . S
O488 C489 1.232 . S
C489 O488 1.232 . S
C489 O490 1.218 . S
O490 C489 1.218 . S
C491 O484 1.275 . S
C491 O486 1.255 . S
C492 O493 1.258 . S
C492 O494 1.256 . S
O493 Cd485 2.381 . S
O493 C492 1.258 . S
O494 Cd485 2.378 . S
O494 C492 1.256 . S
O495 Cd496 2.300 1_556 S
O495 C502 1.275 . S
Cd496 O495 2.300 1_554 S
Cd496 O504 2.381 . S
Cd496 O505 2.378 . S
O497 Cd498 2.385 . S
O497 C502 1.255 . S
Cd498 O497 2.385 . S
Cd498 O499 2.317 . S
O499 Cd498 2.317 . S
O499 C500 1.232 . S
C500 O499 1.232 . S
C500 O501 1.218 . S
O501 C500 1.218 . S
C502 O495 1.275 . S
C502 O497 1.255 . S
C503 O504 1.258 . S
C503 O505 1.256 . S
O504 Cd496 2.381 . S
O504 C503 1.258 . S
O505 Cd496 2.378 . S
O505 C503 1.256 . S
O506 Cd507 2.300 . S
O506 C513 1.275 . S
Cd507 O506 2.300 . S
Cd507 O515 2.381 1_655 S
Cd507 O516 2.378 . S
O508 Cd509 2.385 . S
O508 C513 1.255 . S
Cd509 O508 2.385 . S
Cd509 O510 2.317 . S
O510 Cd509 2.317 . S
O510 C511 1.232 . S
C511 O510 1.232 . S
C511 O512 1.218 . S
O512 C511 1.218 . S
C513 O506 1.275 . S
C513 O508 1.255 . S
C514 O515 1.258 . S
C514 O516 1.256 1_455 S
O515 Cd507 2.381 1_455 S
O515 C514 1.258 . S
O516 Cd507 2.378 . S
O516 C514 1.256 1_655 S
O517 Cd518 2.300 . S
O517 C524 1.275 . S
Cd518 O517 2.300 . S
Cd518 O526 2.381 . S
Cd518 O527 2.378 . S
O519 Cd520 2.385 . S
O519 C524 1.255 . S
Cd520 O519 2.385 . S
Cd520 O521 2.317 . S
O521 Cd520 2.317 . S
O521 C522 1.232 . S
C522 O521 1.232 . S
C522 O523 1.218 . S
O523 C522 1.218 . S
C524 O517 1.275 . S
C524 O519 1.255 . S
C525 O526 1.258 . S
C525 O527 1.256 . S
O526 Cd518 2.381 . S
O526 C525 1.258 . S
O527 Cd518 2.378 . S
O527 C525 1.256 . S
C528 C529 1.391 . S
C528 C530 1.394 . S
C528 H544 0.931 . S
C529 C528 1.391 . S
C529 C533 1.376 . S
C530 C528 1.394 . S
C530 C531 1.369 . S
C530 C534 1.531 . S
C531 C530 1.369 . S
C531 C532 1.410 . S
C531 C539 1.503 . S
C532 C531 1.410 . S
C532 C533 1.392 . S
C532 C535 1.511 . S
C533 C529 1.376 . S
C533 C532 1.392 . S
C533 H545 0.929 . S
C534 C530 1.531 . S
C534 H546 0.960 . S
C534 H547 0.962 . S
C534 H548 0.960 . S
C535 C532 1.511 . S
C535 H549 0.961 . S
C535 H550 0.961 . S
C535 H551 0.961 . S
C536 C537 1.370 . S
C536 C538 1.363 . S
C536 H552 0.931 . S
C537 C536 1.370 . S
C537 C541 1.408 . S
C538 C536 1.363 . S
C538 C539 1.370 . S
C538 C542 1.524 . S
C539 C531 1.503 . S
C539 C538 1.370 . S
C539 C540 1.403 . S
C540 C539 1.403 . S
C540 C541 1.404 . S
C540 C543 1.539 . S
C541 C537 1.408 . S
C541 C540 1.404 . S
C541 H553 0.930 . S
C542 C538 1.524 . S
C542 H554 0.956 . S
C542 H555 0.961 . S
C542 H556 0.961 . S
C543 C540 1.539 . S
C543 H557 0.958 . S
C543 H558 0.961 . S
C543 H559 0.960 . S
H544 C528 0.931 . S
H545 C533 0.929 . S
H546 C534 0.960 . S
H547 C534 0.962 . S
H548 C534 0.960 . S
H549 C535 0.961 . S
H550 C535 0.961 . S
H551 C535 0.961 . S
H552 C536 0.931 . S
H553 C541 0.930 . S
H554 C542 0.956 . S
H555 C542 0.961 . S
H556 C542 0.961 . S
H557 C543 0.958 . S
H558 C543 0.961 . S
H559 C543 0.960 . S
C560 C561 1.391 . S
C560 C562 1.394 . S
C560 H576 0.931 . S
C561 C560 1.391 . S
C561 C565 1.376 . S
C562 C560 1.394 . S
C562 C563 1.369 . S
C562 C566 1.531 . S
C563 C562 1.369 . S
C563 C564 1.410 . S
C563 C571 1.503 . S
C564 C563 1.410 . S
C564 C565 1.392 . S
C564 C567 1.511 . S
C565 C561 1.376 . S
C565 C564 1.392 . S
C565 H577 0.929 . S
C566 C562 1.531 . S
C566 H578 0.960 . S
C566 H579 0.962 . S
C566 H580 0.960 . S
C567 C564 1.511 . S
C567 H581 0.961 . S
C567 H582 0.961 . S
C567 H583 0.961 . S
C568 C569 1.370 . S
C568 C570 1.363 . S
C568 H584 0.931 . S
C569 C568 1.370 . S
C569 C573 1.408 . S
C570 C568 1.363 . S
C570 C571 1.370 . S
C570 C574 1.524 . S
C571 C563 1.503 . S
C571 C570 1.370 . S
C571 C572 1.403 . S
C572 C571 1.403 . S
C572 C573 1.404 . S
C572 C575 1.539 . S
C573 C569 1.408 . S
C573 C572 1.404 . S
C573 H585 0.930 . S
C574 C570 1.524 . S
C574 H586 0.956 . S
C574 H587 0.961 . S
C574 H588 0.961 . S
C575 C572 1.539 . S
C575 H589 0.958 . S
C575 H590 0.961 . S
C575 H591 0.960 . S
H576 C560 0.931 . S
H577 C565 0.929 . S
H578 C566 0.960 . S
H579 C566 0.962 . S
H580 C566 0.960 . S
H581 C567 0.961 . S
H582 C567 0.961 . S
H583 C567 0.961 . S
H584 C568 0.931 . S
H585 C573 0.930 . S
H586 C574 0.956 . S
H587 C574 0.961 . S
H588 C574 0.961 . S
H589 C575 0.958 . S
H590 C575 0.961 . S
H591 C575 0.960 . S
C592 C593 1.391 . S
C592 C594 1.394 . S
C592 H608 0.931 . S
C593 C592 1.391 . S
C593 C597 1.376 . S
C594 C592 1.394 . S
C594 C595 1.369 . S
C594 C598 1.531 . S
C595 C594 1.369 . S
C595 C596 1.410 . S
C595 C603 1.503 . S
C596 C595 1.410 . S
C596 C597 1.392 . S
C596 C599 1.511 . S
C597 C593 1.376 . S
C597 C596 1.392 . S
C597 H609 0.929 . S
C598 C594 1.531 . S
C598 H610 0.960 . S
C598 H611 0.962 . S
C598 H612 0.960 . S
C599 C596 1.511 . S
C599 H613 0.961 . S
C599 H614 0.961 . S
C599 H615 0.961 . S
C600 C601 1.370 . S
C600 C602 1.363 . S
C600 H616 0.931 . S
C601 C600 1.370 . S
C601 C605 1.408 . S
C602 C600 1.363 . S
C602 C603 1.370 . S
C602 C606 1.524 . S
C603 C595 1.503 . S
C603 C602 1.370 . S
C603 C604 1.403 . S
C604 C603 1.403 . S
C604 C605 1.404 . S
C604 C607 1.539 . S
C605 C601 1.408 . S
C605 C604 1.404 . S
C605 H617 0.930 . S
C606 C602 1.524 . S
C606 H618 0.956 . S
C606 H619 0.961 . S
C606 H620 0.961 . S
C607 C604 1.539 . S
C607 H621 0.958 . S
C607 H622 0.961 . S
C607 H623 0.960 . S
H608 C592 0.931 . S
H609 C597 0.929 . S
H610 C598 0.960 . S
H611 C598 0.962 . S
H612 C598 0.960 . S
H613 C599 0.961 . S
H614 C599 0.961 . S
H615 C599 0.961 . S
H616 C600 0.931 . S
H617 C605 0.930 . S
H618 C606 0.956 . S
H619 C606 0.961 . S
H620 C606 0.961 . S
H621 C607 0.958 . S
H622 C607 0.961 . S
H623 C607 0.960 . S
C624 C625 1.391 . S
C624 C626 1.394 . S
C624 H640 0.931 . S
C625 C624 1.391 . S
C625 C629 1.376 . S
C626 C624 1.394 . S
C626 C627 1.369 . S
C626 C630 1.531 . S
C627 C626 1.369 . S
C627 C628 1.410 . S
C627 C635 1.503 . S
C628 C627 1.410 . S
C628 C629 1.392 . S
C628 C631 1.511 . S
C629 C625 1.376 . S
C629 C628 1.392 . S
C629 H641 0.929 . S
C630 C626 1.531 . S
C630 H642 0.960 . S
C630 H643 0.962 . S
C630 H644 0.960 . S
C631 C628 1.511 . S
C631 H645 0.961 . S
C631 H646 0.961 . S
C631 H647 0.961 . S
C632 C633 1.370 . S
C632 C634 1.363 . S
C632 H648 0.931 . S
C633 C632 1.370 . S
C633 C637 1.408 . S
C634 C632 1.363 . S
C634 C635 1.370 . S
C634 C638 1.524 . S
C635 C627 1.503 . S
C635 C634 1.370 . S
C635 C636 1.403 . S
C636 C635 1.403 . S
C636 C637 1.404 . S
C636 C639 1.539 . S
C637 C633 1.408 . S
C637 C636 1.404 . S
C637 H649 0.930 . S
C638 C634 1.524 . S
C638 H650 0.956 . S
C638 H651 0.961 . S
C638 H652 0.961 . S
C639 C636 1.539 . S
C639 H653 0.958 . S
C639 H654 0.961 . S
C639 H655 0.960 . S
H640 C624 0.931 . S
H641 C629 0.929 . S
H642 C630 0.960 . S
H643 C630 0.962 . S
H644 C630 0.960 . S
H645 C631 0.961 . S
H646 C631 0.961 . S
H647 C631 0.961 . S
H648 C632 0.931 . S
H649 C637 0.930 . S
H650 C638 0.956 . S
H651 C638 0.961 . S
H652 C638 0.961 . S
H653 C639 0.958 . S
H654 C639 0.961 . S
H655 C639 0.960 . S
C656 C657 1.391 . S
C656 C658 1.394 . S
C656 H672 0.931 . S
C657 C656 1.391 . S
C657 C661 1.376 . S
C658 C656 1.394 . S
C658 C659 1.369 . S
C658 C662 1.531 . S
C659 C658 1.369 . S
C659 C660 1.410 . S
C659 C667 1.503 . S
C660 C659 1.410 . S
C660 C661 1.392 . S
C660 C663 1.511 . S
C661 C657 1.376 . S
C661 C660 1.392 . S
C661 H673 0.929 . S
C662 C658 1.531 . S
C662 H674 0.960 . S
C662 H675 0.962 . S
C662 H676 0.960 . S
C663 C660 1.511 . S
C663 H677 0.961 . S
C663 H678 0.961 . S
C663 H679 0.961 . S
C664 C665 1.370 . S
C664 C666 1.363 . S
C664 H680 0.931 . S
C665 C664 1.370 . S
C665 C669 1.408 . S
C666 C664 1.363 . S
C666 C667 1.370 . S
C666 C670 1.524 . S
C667 C659 1.503 . S
C667 C666 1.370 . S
C667 C668 1.403 . S
C668 C667 1.403 . S
C668 C669 1.404 . S
C668 C671 1.539 . S
C669 C665 1.408 . S
C669 C668 1.404 . S
C669 H681 0.930 . S
C670 C666 1.524 . S
C670 H682 0.956 . S
C670 H683 0.961 . S
C670 H684 0.961 . S
C671 C668 1.539 . S
C671 H685 0.958 . S
C671 H686 0.961 . S
C671 H687 0.960 . S
H672 C656 0.931 . S
H673 C661 0.929 . S
H674 C662 0.960 . S
H675 C662 0.962 . S
H676 C662 0.960 . S
H677 C663 0.961 . S
H678 C663 0.961 . S
H679 C663 0.961 . S
H680 C664 0.931 . S
H681 C669 0.930 . S
H682 C670 0.956 . S
H683 C670 0.961 . S
H684 C670 0.961 . S
H685 C671 0.958 . S
H686 C671 0.961 . S
H687 C671 0.960 . S
C688 C689 1.391 . S
C688 C690 1.394 . S
C688 H704 0.931 . S
C689 C688 1.391 . S
C689 C693 1.376 . S
C690 C688 1.394 . S
C690 C691 1.369 . S
C690 C694 1.531 . S
C691 C690 1.369 . S
C691 C692 1.410 . S
C691 C699 1.503 . S
C692 C691 1.410 . S
C692 C693 1.392 . S
C692 C695 1.511 . S
C693 C689 1.376 . S
C693 C692 1.392 . S
C693 H705 0.929 . S
C694 C690 1.531 . S
C694 H706 0.960 . S
C694 H707 0.962 . S
C694 H708 0.960 . S
C695 C692 1.511 . S
C695 H709 0.961 . S
C695 H710 0.961 . S
C695 H711 0.961 . S
C696 C697 1.370 . S
C696 C698 1.363 . S
C696 H712 0.931 . S
C697 C696 1.370 . S
C697 C701 1.408 . S
C698 C696 1.363 . S
C698 C699 1.370 . S
C698 C702 1.524 . S
C699 C691 1.503 . S
C699 C698 1.370 . S
C699 C700 1.403 . S
C700 C699 1.403 . S
C700 C701 1.404 . S
C700 C703 1.539 . S
C701 C697 1.408 . S
C701 C700 1.404 . S
C701 H713 0.930 . S
C702 C698 1.524 . S
C702 H714 0.956 . S
C702 H715 0.961 . S
C702 H716 0.961 . S
C703 C700 1.539 . S
C703 H717 0.958 . S
C703 H718 0.961 . S
C703 H719 0.960 . S
H704 C688 0.931 . S
H705 C693 0.929 . S
H706 C694 0.960 . S
H707 C694 0.962 . S
H708 C694 0.960 . S
H709 C695 0.961 . S
H710 C695 0.961 . S
H711 C695 0.961 . S
H712 C696 0.931 . S
H713 C701 0.930 . S
H714 C702 0.956 . S
H715 C702 0.961 . S
H716 C702 0.961 . S
H717 C703 0.958 . S
H718 C703 0.961 . S
H719 C703 0.960 . S
C720 C721 1.391 . S
C720 C722 1.394 . S
C720 H736 0.931 . S
C721 C720 1.391 . S
C721 C725 1.376 . S
C722 C720 1.394 . S
C722 C723 1.369 . S
C722 C726 1.531 . S
C723 C722 1.369 . S
C723 C724 1.410 . S
C723 C731 1.503 . S
C724 C723 1.410 . S
C724 C725 1.392 . S
C724 C727 1.511 . S
C725 C721 1.376 . S
C725 C724 1.392 . S
C725 H737 0.929 . S
C726 C722 1.531 . S
C726 H738 0.960 . S
C726 H739 0.962 . S
C726 H740 0.960 . S
C727 C724 1.511 . S
C727 H741 0.961 . S
C727 H742 0.961 . S
C727 H743 0.961 . S
C728 C729 1.370 . S
C728 C730 1.363 . S
C728 H744 0.931 . S
C729 C728 1.370 . S
C729 C733 1.408 . S
C730 C728 1.363 . S
C730 C731 1.370 . S
C730 C734 1.524 . S
C731 C723 1.503 . S
C731 C730 1.370 . S
C731 C732 1.403 . S
C732 C731 1.403 . S
C732 C733 1.404 . S
C732 C735 1.539 . S
C733 C729 1.408 . S
C733 C732 1.404 . S
C733 H745 0.930 . S
C734 C730 1.524 . S
C734 H746 0.956 . S
C734 H747 0.961 . S
C734 H748 0.961 . S
C735 C732 1.539 . S
C735 H749 0.958 . S
C735 H750 0.961 . S
C735 H751 0.960 . S
H736 C720 0.931 . S
H737 C725 0.929 . S
H738 C726 0.960 . S
H739 C726 0.962 . S
H740 C726 0.960 . S
H741 C727 0.961 . S
H742 C727 0.961 . S
H743 C727 0.961 . S
H744 C728 0.931 . S
H745 C733 0.930 . S
H746 C734 0.956 . S
H747 C734 0.961 . S
H748 C734 0.961 . S
H749 C735 0.958 . S
H750 C735 0.961 . S
H751 C735 0.960 . S
C752 C753 1.391 . S
C752 C754 1.394 . S
C752 H768 0.931 . S
C753 C752 1.391 . S
C753 C757 1.376 . S
C754 C752 1.394 . S
C754 C755 1.369 . S
C754 C758 1.531 . S
C755 C754 1.369 . S
C755 C756 1.410 . S
C755 C763 1.503 . S
C756 C755 1.410 . S
C756 C757 1.392 . S
C756 C759 1.511 . S
C757 C753 1.376 . S
C757 C756 1.392 . S
C757 H769 0.929 . S
C758 C754 1.531 . S
C758 H770 0.960 . S
C758 H771 0.962 . S
C758 H772 0.960 . S
C759 C756 1.511 . S
C759 H773 0.961 . S
C759 H774 0.961 . S
C759 H775 0.961 . S
C760 C761 1.370 . S
C760 C762 1.363 . S
C760 H776 0.931 . S
C761 C760 1.370 . S
C761 C765 1.408 . S
C762 C760 1.363 . S
C762 C763 1.370 . S
C762 C766 1.524 . S
C763 C755 1.503 . S
C763 C762 1.370 . S
C763 C764 1.403 . S
C764 C763 1.403 . S
C764 C765 1.404 . S
C764 C767 1.539 . S
C765 C761 1.408 . S
C765 C764 1.404 . S
C765 H777 0.930 . S
C766 C762 1.524 . S
C766 H778 0.956 . S
C766 H779 0.961 . S
C766 H780 0.961 . S
C767 C764 1.539 . S
C767 H781 0.958 . S
C767 H782 0.961 . S
C767 H783 0.960 . S
H768 C752 0.931 . S
H769 C757 0.929 . S
H770 C758 0.960 . S
H771 C758 0.962 . S
H772 C758 0.960 . S
H773 C759 0.961 . S
H774 C759 0.961 . S
H775 C759 0.961 . S
H776 C760 0.931 . S
H777 C765 0.930 . S
H778 C766 0.956 . S
H779 C766 0.961 . S
H780 C766 0.961 . S
H781 C767 0.958 . S
H782 C767 0.961 . S
H783 C767 0.960 . S
C784 C785 1.391 . S
C784 C786 1.394 . S
C784 H800 0.931 . S
C785 C784 1.391 . S
C785 C789 1.376 . S
C786 C784 1.394 . S
C786 C787 1.369 . S
C786 C790 1.531 . S
C787 C786 1.369 . S
C787 C788 1.410 . S
C787 C795 1.503 . S
C788 C787 1.410 . S
C788 C789 1.392 . S
C788 C791 1.511 . S
C789 C785 1.376 . S
C789 C788 1.392 . S
C789 H801 0.929 . S
C790 C786 1.531 . S
C790 H802 0.960 . S
C790 H803 0.962 . S
C790 H804 0.960 . S
C791 C788 1.511 . S
C791 H805 0.961 . S
C791 H806 0.961 . S
C791 H807 0.961 . S
C792 C793 1.370 . S
C792 C794 1.363 . S
C792 H808 0.931 . S
C793 C792 1.370 . S
C793 C797 1.408 . S
C794 C792 1.363 . S
C794 C795 1.370 . S
C794 C798 1.524 . S
C795 C787 1.503 . S
C795 C794 1.370 . S
C795 C796 1.403 . S
C796 C795 1.403 . S
C796 C797 1.404 . S
C796 C799 1.539 . S
C797 C793 1.408 . S
C797 C796 1.404 . S
C797 H809 0.930 . S
C798 C794 1.524 . S
C798 H810 0.956 . S
C798 H811 0.961 . S
C798 H812 0.961 . S
C799 C796 1.539 . S
C799 H813 0.958 . S
C799 H814 0.961 . S
C799 H815 0.960 . S
H800 C784 0.931 . S
H801 C789 0.929 . S
H802 C790 0.960 . S
H803 C790 0.962 . S
H804 C790 0.960 . S
H805 C791 0.961 . S
H806 C791 0.961 . S
H807 C791 0.961 . S
H808 C792 0.931 . S
H809 C797 0.930 . S
H810 C798 0.956 . S
H811 C798 0.961 . S
H812 C798 0.961 . S
H813 C799 0.958 . S
H814 C799 0.961 . S
H815 C799 0.960 . S
C816 C817 1.391 . S
C816 C818 1.394 . S
C816 H832 0.931 . S
C817 C816 1.391 . S
C817 C821 1.376 . S
C818 C816 1.394 . S
C818 C819 1.369 . S
C818 C822 1.531 . S
C819 C818 1.369 . S
C819 C820 1.410 . S
C819 C827 1.503 . S
C820 C819 1.410 . S
C820 C821 1.392 . S
C820 C823 1.511 . S
C821 C817 1.376 . S
C821 C820 1.392 . S
C821 H833 0.929 . S
C822 C818 1.531 . S
C822 H834 0.960 . S
C822 H835 0.962 . S
C822 H836 0.960 . S
C823 C820 1.511 . S
C823 H837 0.961 . S
C823 H838 0.961 . S
C823 H839 0.961 . S
C824 C825 1.370 . S
C824 C826 1.363 . S
C824 H840 0.931 . S
C825 C824 1.370 . S
C825 C829 1.408 . S
C826 C824 1.363 . S
C826 C827 1.370 . S
C826 C830 1.524 . S
C827 C819 1.503 . S
C827 C826 1.370 . S
C827 C828 1.403 . S
C828 C827 1.403 . S
C828 C829 1.404 . S
C828 C831 1.539 . S
C829 C825 1.408 . S
C829 C828 1.404 . S
C829 H841 0.930 . S
C830 C826 1.524 . S
C830 H842 0.956 . S
C830 H843 0.961 . S
C830 H844 0.961 . S
C831 C828 1.539 . S
C831 H845 0.958 . S
C831 H846 0.961 . S
C831 H847 0.960 . S
H832 C816 0.931 . S
H833 C821 0.929 . S
H834 C822 0.960 . S
H835 C822 0.962 . S
H836 C822 0.960 . S
H837 C823 0.961 . S
H838 C823 0.961 . S
H839 C823 0.961 . S
H840 C824 0.931 . S
H841 C829 0.930 . S
H842 C830 0.956 . S
H843 C830 0.961 . S
H844 C830 0.961 . S
H845 C831 0.958 . S
H846 C831 0.961 . S
H847 C831 0.960 . S
C848 C849 1.391 . S
C848 C850 1.394 . S
C848 H864 0.931 . S
C849 C848 1.391 . S
C849 C853 1.376 . S
C850 C848 1.394 . S
C850 C851 1.369 . S
C850 C854 1.531 . S
C851 C850 1.369 . S
C851 C852 1.410 . S
C851 C859 1.503 . S
C852 C851 1.410 . S
C852 C853 1.392 . S
C852 C855 1.511 . S
C853 C849 1.376 . S
C853 C852 1.392 . S
C853 H865 0.929 . S
C854 C850 1.531 . S
C854 H866 0.960 . S
C854 H867 0.962 . S
C854 H868 0.960 . S
C855 C852 1.511 . S
C855 H869 0.961 . S
C855 H870 0.961 . S
C855 H871 0.961 . S
C856 C857 1.370 . S
C856 C858 1.363 . S
C856 H872 0.931 . S
C857 C856 1.370 . S
C857 C861 1.408 . S
C858 C856 1.363 . S
C858 C859 1.370 . S
C858 C862 1.524 . S
C859 C851 1.503 . S
C859 C858 1.370 . S
C859 C860 1.403 . S
C860 C859 1.403 . S
C860 C861 1.404 . S
C860 C863 1.539 . S
C861 C857 1.408 . S
C861 C860 1.404 . S
C861 H873 0.930 . S
C862 C858 1.524 . S
C862 H874 0.956 . S
C862 H875 0.961 . S
C862 H876 0.961 . S
C863 C860 1.539 . S
C863 H877 0.958 . S
C863 H878 0.961 . S
C863 H879 0.960 . S
H864 C848 0.931 . S
H865 C853 0.929 . S
H866 C854 0.960 . S
H867 C854 0.962 . S
H868 C854 0.960 . S
H869 C855 0.961 . S
H870 C855 0.961 . S
H871 C855 0.961 . S
H872 C856 0.931 . S
H873 C861 0.930 . S
H874 C862 0.956 . S
H875 C862 0.961 . S
H876 C862 0.961 . S
H877 C863 0.958 . S
H878 C863 0.961 . S
H879 C863 0.960 . S
C880 C881 1.391 . S
C880 C882 1.394 . S
C880 H896 0.931 . S
C881 C880 1.391 . S
C881 C885 1.376 . S
C882 C880 1.394 . S
C882 C883 1.369 . S
C882 C886 1.531 . S
C883 C882 1.369 . S
C883 C884 1.410 . S
C883 C891 1.503 . S
C884 C883 1.410 . S
C884 C885 1.392 . S
C884 C887 1.511 . S
C885 C881 1.376 . S
C885 C884 1.392 . S
C885 H897 0.929 . S
C886 C882 1.531 . S
C886 H898 0.960 . S
C886 H899 0.962 . S
C886 H900 0.960 . S
C887 C884 1.511 . S
C887 H901 0.961 . S
C887 H902 0.961 . S
C887 H903 0.961 . S
C888 C889 1.370 . S
C888 C890 1.363 . S
C888 H904 0.931 . S
C889 C888 1.370 . S
C889 C893 1.408 . S
C890 C888 1.363 . S
C890 C891 1.370 . S
C890 C894 1.524 . S
C891 C883 1.503 . S
C891 C890 1.370 . S
C891 C892 1.403 . S
C892 C891 1.403 . S
C892 C893 1.404 . S
C892 C895 1.539 . S
C893 C889 1.408 . S
C893 C892 1.404 . S
C893 H905 0.930 . S
C894 C890 1.524 . S
C894 H906 0.956 . S
C894 H907 0.961 . S
C894 H908 0.961 . S
C895 C892 1.539 . S
C895 H909 0.958 . S
C895 H910 0.961 . S
C895 H911 0.960 . S
H896 C880 0.931 . S
H897 C885 0.929 . S
H898 C886 0.960 . S
H899 C886 0.962 . S
H900 C886 0.960 . S
H901 C887 0.961 . S
H902 C887 0.961 . S
H903 C887 0.961 . S
H904 C888 0.931 . S
H905 C893 0.930 . S
H906 C894 0.956 . S
H907 C894 0.961 . S
H908 C894 0.961 . S
H909 C895 0.958 . S
H910 C895 0.961 . S
H911 C895 0.960 . S
C912 C913 1.391 . S
C912 C914 1.394 . S
C912 H928 0.931 . S
C913 C912 1.391 . S
C913 C917 1.376 . S
C914 C912 1.394 . S
C914 C915 1.369 . S
C914 C918 1.531 . S
C915 C914 1.369 . S
C915 C916 1.410 . S
C915 C923 1.503 . S
C916 C915 1.410 . S
C916 C917 1.392 . S
C916 C919 1.511 . S
C917 C913 1.376 . S
C917 C916 1.392 . S
C917 H929 0.929 . S
C918 C914 1.531 . S
C918 H930 0.960 . S
C918 H931 0.962 . S
C918 H932 0.960 . S
C919 C916 1.511 . S
C919 H933 0.961 . S
C919 H934 0.961 . S
C919 H935 0.961 . S
C920 C921 1.370 . S
C920 C922 1.363 . S
C920 H936 0.931 . S
C921 C920 1.370 . S
C921 C925 1.408 . S
C922 C920 1.363 . S
C922 C923 1.370 . S
C922 C926 1.524 . S
C923 C915 1.503 . S
C923 C922 1.370 . S
C923 C924 1.403 . S
C924 C923 1.403 . S
C924 C925 1.404 . S
C924 C927 1.539 . S
C925 C921 1.408 . S
C925 C924 1.404 . S
C925 H937 0.930 . S
C926 C922 1.524 . S
C926 H938 0.956 . S
C926 H939 0.961 . S
C926 H940 0.961 . S
C927 C924 1.539 . S
C927 H941 0.958 . S
C927 H942 0.961 . S
C927 H943 0.960 . S
H928 C912 0.931 . S
H929 C917 0.929 . S
H930 C918 0.960 . S
H931 C918 0.962 . S
H932 C918 0.960 . S
H933 C919 0.961 . S
H934 C919 0.961 . S
H935 C919 0.961 . S
H936 C920 0.931 . S
H937 C925 0.930 . S
H938 C926 0.956 . S
H939 C926 0.961 . S
H940 C926 0.961 . S
H941 C927 0.958 . S
H942 C927 0.961 . S
H943 C927 0.960 . S
C944 C945 1.391 . S
C944 C946 1.394 . S
C944 H960 0.931 . S
C945 C944 1.391 . S
C945 C949 1.376 . S
C946 C944 1.394 . S
C946 C947 1.369 . S
C946 C950 1.531 . S
C947 C946 1.369 . S
C947 C948 1.410 . S
C947 C955 1.503 . S
C948 C947 1.410 . S
C948 C949 1.392 . S
C948 C951 1.511 . S
C949 C945 1.376 . S
C949 C948 1.392 . S
C949 H961 0.929 . S
C950 C946 1.531 . S
C950 H962 0.960 . S
C950 H963 0.962 . S
C950 H964 0.960 . S
C951 C948 1.511 . S
C951 H965 0.961 . S
C951 H966 0.961 . S
C951 H967 0.961 . S
C952 C953 1.370 . S
C952 C954 1.363 . S
C952 H968 0.931 . S
C953 C952 1.370 . S
C953 C957 1.408 . S
C954 C952 1.363 . S
C954 C955 1.370 . S
C954 C958 1.524 . S
C955 C947 1.503 . S
C955 C954 1.370 . S
C955 C956 1.403 . S
C956 C955 1.403 . S
C956 C957 1.404 . S
C956 C959 1.539 . S
C957 C953 1.408 . S
C957 C956 1.404 . S
C957 H969 0.930 . S
C958 C954 1.524 . S
C958 H970 0.956 . S
C958 H971 0.961 . S
C958 H972 0.961 . S
C959 C956 1.539 . S
C959 H973 0.958 . S
C959 H974 0.961 . S
C959 H975 0.960 . S
H960 C944 0.931 . S
H961 C949 0.929 . S
H962 C950 0.960 . S
H963 C950 0.962 . S
H964 C950 0.960 . S
H965 C951 0.961 . S
H966 C951 0.961 . S
H967 C951 0.961 . S
H968 C952 0.931 . S
H969 C957 0.930 . S
H970 C958 0.956 . S
H971 C958 0.961 . S
H972 C958 0.961 . S
H973 C959 0.958 . S
H974 C959 0.961 . S
H975 C959 0.960 . S
C976 C977 1.391 . S
C976 C978 1.394 . S
C976 H992 0.931 . S
C977 C976 1.391 . S
C977 C981 1.376 . S
C978 C976 1.394 . S
C978 C979 1.369 . S
C978 C982 1.531 . S
C979 C978 1.369 . S
C979 C980 1.410 . S
C979 C987 1.503 . S
C980 C979 1.410 . S
C980 C981 1.392 . S
C980 C983 1.511 . S
C981 C977 1.376 . S
C981 C980 1.392 . S
C981 H993 0.929 . S
C982 C978 1.531 . S
C982 H994 0.960 . S
C982 H995 0.962 . S
C982 H996 0.960 . S
C983 C980 1.511 . S
C983 H997 0.961 . S
C983 H998 0.961 . S
C983 H999 0.961 . S
C984 C985 1.370 . S
C984 C986 1.363 . S
C984 H1000 0.931 . S
C985 C984 1.370 . S
C985 C989 1.408 . S
C986 C984 1.363 . S
C986 C987 1.370 . S
C986 C990 1.524 . S
C987 C979 1.503 . S
C987 C986 1.370 . S
C987 C988 1.403 . S
C988 C987 1.403 . S
C988 C989 1.404 . S
C988 C991 1.539 . S
C989 C985 1.408 . S
C989 C988 1.404 . S
C989 H1001 0.930 . S
C990 C986 1.524 . S
C990 H1002 0.956 . S
C990 H1003 0.961 . S
C990 H1004 0.961 . S
C991 C988 1.539 . S
C991 H1005 0.958 . S
C991 H1006 0.961 . S
C991 H1007 0.960 . S
H992 C976 0.931 . S
H993 C981 0.929 . S
H994 C982 0.960 . S
H995 C982 0.962 . S
H996 C982 0.960 . S
H997 C983 0.961 . S
H998 C983 0.961 . S
H999 C983 0.961 . S
H1000 C984 0.931 . S
H1001 C989 0.930 . S
H1002 C990 0.956 . S
H1003 C990 0.961 . S
H1004 C990 0.961 . S
H1005 C991 0.958 . S
H1006 C991 0.961 . S
H1007 C991 0.960 . S
C1008 C1009 1.391 . S
C1008 C1010 1.394 . S
C1008 H1024 0.931 . S
C1009 C1008 1.391 . S
C1009 C1013 1.376 . S
C1010 C1008 1.394 . S
C1010 C1011 1.369 . S
C1010 C1014 1.531 . S
C1011 C1010 1.369 . S
C1011 C1012 1.410 . S
C1011 C1019 1.503 . S
C1012 C1011 1.410 . S
C1012 C1013 1.392 . S
C1012 C1015 1.511 . S
C1013 C1009 1.376 . S
C1013 C1012 1.392 . S
C1013 H1025 0.929 . S
C1014 C1010 1.531 . S
C1014 H1026 0.960 . S
C1014 H1027 0.962 . S
C1014 H1028 0.960 . S
C1015 C1012 1.511 . S
C1015 H1029 0.961 . S
C1015 H1030 0.961 . S
C1015 H1031 0.961 . S
C1016 C1017 1.370 . S
C1016 C1018 1.363 . S
C1016 H1032 0.931 . S
C1017 C1016 1.370 . S
C1017 C1021 1.408 . S
C1018 C1016 1.363 . S
C1018 C1019 1.370 . S
C1018 C1022 1.524 . S
C1019 C1011 1.503 . S
C1019 C1018 1.370 . S
C1019 C1020 1.403 . S
C1020 C1019 1.403 . S
C1020 C1021 1.404 . S
C1020 C1023 1.539 . S
C1021 C1017 1.408 . S
C1021 C1020 1.404 . S
C1021 H1033 0.930 . S
C1022 C1018 1.524 . S
C1022 H1034 0.956 . S
C1022 H1035 0.961 . S
C1022 H1036 0.961 . S
C1023 C1020 1.539 . S
C1023 H1037 0.958 . S
C1023 H1038 0.961 . S
C1023 H1039 0.960 . S
H1024 C1008 0.931 . S
H1025 C1013 0.929 . S
H1026 C1014 0.960 . S
H1027 C1014 0.962 . S
H1028 C1014 0.960 . S
H1029 C1015 0.961 . S
H1030 C1015 0.961 . S
H1031 C1015 0.961 . S
H1032 C1016 0.931 . S
H1033 C1021 0.930 . S
H1034 C1022 0.956 . S
H1035 C1022 0.961 . S
H1036 C1022 0.961 . S
H1037 C1023 0.958 . S
H1038 C1023 0.961 . S
H1039 C1023 0.960 . S
C1040 C1041 1.391 . S
C1040 C1042 1.394 . S
C1040 H1056 0.931 . S
C1041 C1040 1.391 . S
C1041 C1045 1.376 . S
C1042 C1040 1.394 . S
C1042 C1043 1.369 . S
C1042 C1046 1.531 . S
C1043 C1042 1.369 . S
C1043 C1044 1.410 . S
C1043 C1051 1.503 . S
C1044 C1043 1.410 . S
C1044 C1045 1.392 . S
C1044 C1047 1.511 . S
C1045 C1041 1.376 . S
C1045 C1044 1.392 . S
C1045 H1057 0.929 . S
C1046 C1042 1.531 . S
C1046 H1058 0.960 . S
C1046 H1059 0.962 . S
C1046 H1060 0.960 . S
C1047 C1044 1.511 . S
C1047 H1061 0.961 . S
C1047 H1062 0.961 . S
C1047 H1063 0.961 . S
C1048 C1049 1.370 . S
C1048 C1050 1.363 . S
C1048 H1064 0.931 . S
C1049 C1048 1.370 . S
C1049 C1053 1.408 . S
C1050 C1048 1.363 . S
C1050 C1051 1.370 . S
C1050 C1054 1.524 . S
C1051 C1043 1.503 . S
C1051 C1050 1.370 . S
C1051 C1052 1.403 . S
C1052 C1051 1.403 . S
C1052 C1053 1.404 . S
C1052 C1055 1.539 . S
C1053 C1049 1.408 . S
C1053 C1052 1.404 . S
C1053 H1065 0.930 . S
C1054 C1050 1.524 . S
C1054 H1066 0.956 . S
C1054 H1067 0.961 . S
C1054 H1068 0.961 . S
C1055 C1052 1.539 . S
C1055 H1069 0.958 . S
C1055 H1070 0.961 . S
C1055 H1071 0.960 . S
H1056 C1040 0.931 . S
H1057 C1045 0.929 . S
H1058 C1046 0.960 . S
H1059 C1046 0.962 . S
H1060 C1046 0.960 . S
H1061 C1047 0.961 . S
H1062 C1047 0.961 . S
H1063 C1047 0.961 . S
H1064 C1048 0.931 . S
H1065 C1053 0.930 . S
H1066 C1054 0.956 . S
H1067 C1054 0.961 . S
H1068 C1054 0.961 . S
H1069 C1055 0.958 . S
H1070 C1055 0.961 . S
H1071 C1055 0.960 . S
C1072 C1073 1.391 . S
C1072 C1074 1.394 . S
C1072 H1088 0.931 . S
C1073 C1072 1.391 . S
C1073 C1077 1.376 . S
C1074 C1072 1.394 . S
C1074 C1075 1.369 . S
C1074 C1078 1.531 . S
C1075 C1074 1.369 . S
C1075 C1076 1.410 . S
C1075 C1083 1.503 . S
C1076 C1075 1.410 . S
C1076 C1077 1.392 . S
C1076 C1079 1.511 . S
C1077 C1073 1.376 . S
C1077 C1076 1.392 . S
C1077 H1089 0.929 . S
C1078 C1074 1.531 . S
C1078 H1090 0.960 . S
C1078 H1091 0.962 . S
C1078 H1092 0.960 . S
C1079 C1076 1.511 . S
C1079 H1093 0.961 . S
C1079 H1094 0.961 . S
C1079 H1095 0.961 . S
C1080 C1081 1.370 . S
C1080 C1082 1.363 . S
C1080 H1096 0.931 . S
C1081 C1080 1.370 . S
C1081 C1085 1.408 . S
C1082 C1080 1.363 . S
C1082 C1083 1.370 . S
C1082 C1086 1.524 . S
C1083 C1075 1.503 . S
C1083 C1082 1.370 . S
C1083 C1084 1.403 . S
C1084 C1083 1.403 . S
C1084 C1085 1.404 . S
C1084 C1087 1.539 . S
C1085 C1081 1.408 . S
C1085 C1084 1.404 . S
C1085 H1097 0.930 . S
C1086 C1082 1.524 . S
C1086 H1098 0.956 . S
C1086 H1099 0.961 . S
C1086 H1100 0.961 . S
C1087 C1084 1.539 . S
C1087 H1101 0.958 . S
C1087 H1102 0.961 . S
C1087 H1103 0.960 . S
H1088 C1072 0.931 . S
H1089 C1077 0.929 . S
H1090 C1078 0.960 . S
H1091 C1078 0.962 . S
H1092 C1078 0.960 . S
H1093 C1079 0.961 . S
H1094 C1079 0.961 . S
H1095 C1079 0.961 . S
H1096 C1080 0.931 . S
H1097 C1085 0.930 . S
H1098 C1086 0.956 . S
H1099 C1086 0.961 . S
H1100 C1086 0.961 . S
H1101 C1087 0.958 . S
H1102 C1087 0.961 . S
H1103 C1087 0.960 . S
C1104 C1105 1.391 . S
C1104 C1106 1.394 . S
C1104 H1120 0.931 . S
C1105 C1104 1.391 . S
C1105 C1109 1.376 . S
C1106 C1104 1.394 . S
C1106 C1107 1.369 . S
C1106 C1110 1.531 . S
C1107 C1106 1.369 . S
C1107 C1108 1.410 . S
C1107 C1115 1.503 . S
C1108 C1107 1.410 . S
C1108 C1109 1.392 . S
C1108 C1111 1.511 . S
C1109 C1105 1.376 . S
C1109 C1108 1.392 . S
C1109 H1121 0.929 . S
C1110 C1106 1.531 . S
C1110 H1122 0.960 . S
C1110 H1123 0.962 . S
C1110 H1124 0.960 . S
C1111 C1108 1.511 . S
C1111 H1125 0.961 . S
C1111 H1126 0.961 . S
C1111 H1127 0.961 . S
C1112 C1113 1.370 . S
C1112 C1114 1.363 . S
C1112 H1128 0.931 . S
C1113 C1112 1.370 . S
C1113 C1117 1.408 . S
C1114 C1112 1.363 . S
C1114 C1115 1.370 . S
C1114 C1118 1.524 . S
C1115 C1107 1.503 . S
C1115 C1114 1.370 . S
C1115 C1116 1.403 . S
C1116 C1115 1.403 . S
C1116 C1117 1.404 . S
C1116 C1119 1.539 . S
C1117 C1113 1.408 . S
C1117 C1116 1.404 . S
C1117 H1129 0.930 . S
C1118 C1114 1.524 . S
C1118 H1130 0.956 . S
C1118 H1131 0.961 . S
C1118 H1132 0.961 . S
C1119 C1116 1.539 . S
C1119 H1133 0.958 . S
C1119 H1134 0.961 . S
C1119 H1135 0.960 . S
H1120 C1104 0.931 . S
H1121 C1109 0.929 . S
H1122 C1110 0.960 . S
H1123 C1110 0.962 . S
H1124 C1110 0.960 . S
H1125 C1111 0.961 . S
H1126 C1111 0.961 . S
H1127 C1111 0.961 . S
H1128 C1112 0.931 . S
H1129 C1117 0.930 . S
H1130 C1118 0.956 . S
H1131 C1118 0.961 . S
H1132 C1118 0.961 . S
H1133 C1119 0.958 . S
H1134 C1119 0.961 . S
H1135 C1119 0.960 . S
C1136 C1137 1.391 . S
C1136 C1138 1.394 . S
C1136 H1152 0.931 . S
C1137 C1136 1.391 . S
C1137 C1141 1.376 . S
C1138 C1136 1.394 . S
C1138 C1139 1.369 . S
C1138 C1142 1.531 . S
C1139 C1138 1.369 . S
C1139 C1140 1.410 . S
C1139 C1147 1.503 . S
C1140 C1139 1.410 . S
C1140 C1141 1.392 . S
C1140 C1143 1.511 . S
C1141 C1137 1.376 . S
C1141 C1140 1.392 . S
C1141 H1153 0.929 . S
C1142 C1138 1.531 . S
C1142 H1154 0.960 . S
C1142 H1155 0.962 . S
C1142 H1156 0.960 . S
C1143 C1140 1.511 . S
C1143 H1157 0.961 . S
C1143 H1158 0.961 . S
C1143 H1159 0.961 . S
C1144 C1145 1.370 . S
C1144 C1146 1.363 . S
C1144 H1160 0.931 . S
C1145 C1144 1.370 . S
C1145 C1149 1.408 . S
C1146 C1144 1.363 . S
C1146 C1147 1.370 . S
C1146 C1150 1.524 . S
C1147 C1139 1.503 . S
C1147 C1146 1.370 . S
C1147 C1148 1.403 . S
C1148 C1147 1.403 . S
C1148 C1149 1.404 . S
C1148 C1151 1.539 . S
C1149 C1145 1.408 . S
C1149 C1148 1.404 . S
C1149 H1161 0.930 . S
C1150 C1146 1.524 . S
C1150 H1162 0.956 . S
C1150 H1163 0.961 . S
C1150 H1164 0.961 . S
C1151 C1148 1.539 . S
C1151 H1165 0.958 . S
C1151 H1166 0.961 . S
C1151 H1167 0.960 . S
H1152 C1136 0.931 . S
H1153 C1141 0.929 . S
H1154 C1142 0.960 . S
H1155 C1142 0.962 . S
H1156 C1142 0.960 . S
H1157 C1143 0.961 . S
H1158 C1143 0.961 . S
H1159 C1143 0.961 . S
H1160 C1144 0.931 . S
H1161 C1149 0.930 . S
H1162 C1150 0.956 . S
H1163 C1150 0.961 . S
H1164 C1150 0.961 . S
H1165 C1151 0.958 . S
H1166 C1151 0.961 . S
H1167 C1151 0.960 . S
C1168 C1169 1.391 . S
C1168 C1170 1.394 . S
C1168 H1184 0.931 . S
C1169 C1168 1.391 . S
C1169 C1173 1.376 . S
C1170 C1168 1.394 . S
C1170 C1171 1.369 . S
C1170 C1174 1.531 . S
C1171 C1170 1.369 . S
C1171 C1172 1.410 . S
C1171 C1179 1.503 . S
C1172 C1171 1.410 . S
C1172 C1173 1.392 . S
C1172 C1175 1.511 . S
C1173 C1169 1.376 . S
C1173 C1172 1.392 . S
C1173 H1185 0.929 . S
C1174 C1170 1.531 . S
C1174 H1186 0.960 . S
C1174 H1187 0.962 . S
C1174 H1188 0.960 . S
C1175 C1172 1.511 . S
C1175 H1189 0.961 . S
C1175 H1190 0.961 . S
C1175 H1191 0.961 . S
C1176 C1177 1.370 . S
C1176 C1178 1.363 . S
C1176 H1192 0.931 . S
C1177 C1176 1.370 . S
C1177 C1181 1.408 . S
C1178 C1176 1.363 . S
C1178 C1179 1.370 . S
C1178 C1182 1.524 . S
C1179 C1171 1.503 . S
C1179 C1178 1.370 . S
C1179 C1180 1.403 . S
C1180 C1179 1.403 . S
C1180 C1181 1.404 . S
C1180 C1183 1.539 . S
C1181 C1177 1.408 . S
C1181 C1180 1.404 . S
C1181 H1193 0.930 . S
C1182 C1178 1.524 . S
C1182 H1194 0.956 . S
C1182 H1195 0.961 . S
C1182 H1196 0.961 . S
C1183 C1180 1.539 . S
C1183 H1197 0.958 . S
C1183 H1198 0.961 . S
C1183 H1199 0.960 . S
H1184 C1168 0.931 . S
H1185 C1173 0.929 . S
H1186 C1174 0.960 . S
H1187 C1174 0.962 . S
H1188 C1174 0.960 . S
H1189 C1175 0.961 . S
H1190 C1175 0.961 . S
H1191 C1175 0.961 . S
H1192 C1176 0.931 . S
H1193 C1181 0.930 . S
H1194 C1182 0.956 . S
H1195 C1182 0.961 . S
H1196 C1182 0.961 . S
H1197 C1183 0.958 . S
H1198 C1183 0.961 . S
H1199 C1183 0.960 . S
C1200 C1201 1.391 . S
C1200 C1202 1.394 . S
C1200 H1216 0.931 . S
C1201 C1200 1.391 . S
C1201 C1205 1.376 . S
C1202 C1200 1.394 . S
C1202 C1203 1.369 . S
C1202 C1206 1.531 . S
C1203 C1202 1.369 . S
C1203 C1204 1.410 . S
C1203 C1211 1.503 . S
C1204 C1203 1.410 . S
C1204 C1205 1.392 . S
C1204 C1207 1.511 . S
C1205 C1201 1.376 . S
C1205 C1204 1.392 . S
C1205 H1217 0.929 . S
C1206 C1202 1.531 . S
C1206 H1218 0.960 . S
C1206 H1219 0.962 . S
C1206 H1220 0.960 . S
C1207 C1204 1.511 . S
C1207 H1221 0.961 . S
C1207 H1222 0.961 . S
C1207 H1223 0.961 . S
C1208 C1209 1.370 . S
C1208 C1210 1.363 . S
C1208 H1224 0.931 . S
C1209 C1208 1.370 . S
C1209 C1213 1.408 . S
C1210 C1208 1.363 . S
C1210 C1211 1.370 . S
C1210 C1214 1.524 . S
C1211 C1203 1.503 . S
C1211 C1210 1.370 . S
C1211 C1212 1.403 . S
C1212 C1211 1.403 . S
C1212 C1213 1.404 . S
C1212 C1215 1.539 . S
C1213 C1209 1.408 . S
C1213 C1212 1.404 . S
C1213 H1225 0.930 . S
C1214 C1210 1.524 . S
C1214 H1226 0.956 . S
C1214 H1227 0.961 . S
C1214 H1228 0.961 . S
C1215 C1212 1.539 . S
C1215 H1229 0.958 . S
C1215 H1230 0.961 . S
C1215 H1231 0.960 . S
H1216 C1200 0.931 . S
H1217 C1205 0.929 . S
H1218 C1206 0.960 . S
H1219 C1206 0.962 . S
H1220 C1206 0.960 . S
H1221 C1207 0.961 . S
H1222 C1207 0.961 . S
H1223 C1207 0.961 . S
H1224 C1208 0.931 . S
H1225 C1213 0.930 . S
H1226 C1214 0.956 . S
H1227 C1214 0.961 . S
H1228 C1214 0.961 . S
H1229 C1215 0.958 . S
H1230 C1215 0.961 . S
H1231 C1215 0.960 . S
C1232 C1233 1.391 . S
C1232 C1234 1.394 . S
C1232 H1248 0.931 . S
C1233 C1232 1.391 . S
C1233 C1237 1.376 . S
C1234 C1232 1.394 . S
C1234 C1235 1.369 . S
C1234 C1238 1.531 . S
C1235 C1234 1.369 . S
C1235 C1236 1.410 . S
C1235 C1243 1.503 . S
C1236 C1235 1.410 . S
C1236 C1237 1.392 . S
C1236 C1239 1.511 . S
C1237 C1233 1.376 . S
C1237 C1236 1.392 . S
C1237 H1249 0.929 . S
C1238 C1234 1.531 . S
C1238 H1250 0.960 . S
C1238 H1251 0.962 . S
C1238 H1252 0.960 . S
C1239 C1236 1.511 . S
C1239 H1253 0.961 . S
C1239 H1254 0.961 . S
C1239 H1255 0.961 . S
C1240 C1241 1.370 . S
C1240 C1242 1.363 . S
C1240 H1256 0.931 . S
C1241 C1240 1.370 . S
C1241 C1245 1.408 . S
C1242 C1240 1.363 . S
C1242 C1243 1.370 . S
C1242 C1246 1.524 . S
C1243 C1235 1.503 . S
C1243 C1242 1.370 . S
C1243 C1244 1.403 . S
C1244 C1243 1.403 . S
C1244 C1245 1.404 . S
C1244 C1247 1.539 . S
C1245 C1241 1.408 . S
C1245 C1244 1.404 . S
C1245 H1257 0.930 . S
C1246 C1242 1.524 . S
C1246 H1258 0.956 . S
C1246 H1259 0.961 . S
C1246 H1260 0.961 . S
C1247 C1244 1.539 . S
C1247 H1261 0.958 . S
C1247 H1262 0.961 . S
C1247 H1263 0.960 . S
H1248 C1232 0.931 . S
H1249 C1237 0.929 . S
H1250 C1238 0.960 . S
H1251 C1238 0.962 . S
H1252 C1238 0.960 . S
H1253 C1239 0.961 . S
H1254 C1239 0.961 . S
H1255 C1239 0.961 . S
H1256 C1240 0.931 . S
H1257 C1245 0.930 . S
H1258 C1246 0.956 . S
H1259 C1246 0.961 . S
H1260 C1246 0.961 . S
H1261 C1247 0.958 . S
H1262 C1247 0.961 . S
H1263 C1247 0.960 . S
C1264 C1265 1.391 . S
C1264 C1266 1.394 . S
C1264 H1280 0.931 . S
C1265 C1264 1.391 . S
C1265 C1269 1.376 . S
C1266 C1264 1.394 . S
C1266 C1267 1.369 . S
C1266 C1270 1.531 . S
C1267 C1266 1.369 . S
C1267 C1268 1.410 . S
C1267 C1275 1.503 . S
C1268 C1267 1.410 . S
C1268 C1269 1.392 . S
C1268 C1271 1.511 . S
C1269 C1265 1.376 . S
C1269 C1268 1.392 . S
C1269 H1281 0.929 . S
C1270 C1266 1.531 . S
C1270 H1282 0.960 . S
C1270 H1283 0.962 . S
C1270 H1284 0.960 . S
C1271 C1268 1.511 . S
C1271 H1285 0.961 . S
C1271 H1286 0.961 . S
C1271 H1287 0.961 . S
C1272 C1273 1.370 . S
C1272 C1274 1.363 . S
C1272 H1288 0.931 . S
C1273 C1272 1.370 . S
C1273 C1277 1.408 . S
C1274 C1272 1.363 . S
C1274 C1275 1.370 . S
C1274 C1278 1.524 . S
C1275 C1267 1.503 . S
C1275 C1274 1.370 . S
C1275 C1276 1.403 . S
C1276 C1275 1.403 . S
C1276 C1277 1.404 . S
C1276 C1279 1.539 . S
C1277 C1273 1.408 . S
C1277 C1276 1.404 . S
C1277 H1289 0.930 . S
C1278 C1274 1.524 . S
C1278 H1290 0.956 . S
C1278 H1291 0.961 . S
C1278 H1292 0.961 . S
C1279 C1276 1.539 . S
C1279 H1293 0.958 . S
C1279 H1294 0.961 . S
C1279 H1295 0.960 . S
H1280 C1264 0.931 . S
H1281 C1269 0.929 . S
H1282 C1270 0.960 . S
H1283 C1270 0.962 . S
H1284 C1270 0.960 . S
H1285 C1271 0.961 . S
H1286 C1271 0.961 . S
H1287 C1271 0.961 . S
H1288 C1272 0.931 . S
H1289 C1277 0.930 . S
H1290 C1278 0.956 . S
H1291 C1278 0.961 . S
H1292 C1278 0.961 . S
H1293 C1279 0.958 . S
H1294 C1279 0.961 . S
H1295 C1279 0.960 . S
C1296 C1297 1.391 . S
C1296 C1298 1.394 . S
C1296 H1312 0.931 . S
C1297 C1296 1.391 . S
C1297 C1301 1.376 . S
C1298 C1296 1.394 . S
C1298 C1299 1.369 . S
C1298 C1302 1.531 . S
C1299 C1298 1.369 . S
C1299 C1300 1.410 . S
C1299 C1307 1.503 . S
C1300 C1299 1.410 . S
C1300 C1301 1.392 . S
C1300 C1303 1.511 . S
C1301 C1297 1.376 . S
C1301 C1300 1.392 . S
C1301 H1313 0.929 . S
C1302 C1298 1.531 . S
C1302 H1314 0.960 . S
C1302 H1315 0.962 . S
C1302 H1316 0.960 . S
C1303 C1300 1.511 . S
C1303 H1317 0.961 . S
C1303 H1318 0.961 . S
C1303 H1319 0.961 . S
C1304 C1305 1.370 . S
C1304 C1306 1.363 . S
C1304 H1320 0.931 . S
C1305 C1304 1.370 . S
C1305 C1309 1.408 . S
C1306 C1304 1.363 . S
C1306 C1307 1.370 . S
C1306 C1310 1.524 . S
C1307 C1299 1.503 . S
C1307 C1306 1.370 . S
C1307 C1308 1.403 . S
C1308 C1307 1.403 . S
C1308 C1309 1.404 . S
C1308 C1311 1.539 . S
C1309 C1305 1.408 . S
C1309 C1308 1.404 . S
C1309 H1321 0.930 . S
C1310 C1306 1.524 . S
C1310 H1322 0.956 . S
C1310 H1323 0.961 . S
C1310 H1324 0.961 . S
C1311 C1308 1.539 . S
C1311 H1325 0.958 . S
C1311 H1326 0.961 . S
C1311 H1327 0.960 . S
H1312 C1296 0.931 . S
H1313 C1301 0.929 . S
H1314 C1302 0.960 . S
H1315 C1302 0.962 . S
H1316 C1302 0.960 . S
H1317 C1303 0.961 . S
H1318 C1303 0.961 . S
H1319 C1303 0.961 . S
H1320 C1304 0.931 . S
H1321 C1309 0.930 . S
H1322 C1310 0.956 . S
H1323 C1310 0.961 . S
H1324 C1310 0.961 . S
H1325 C1311 0.958 . S
H1326 C1311 0.961 . S
H1327 C1311 0.960 . S
C1328 C1329 1.391 . S
C1328 C1330 1.394 . S
C1328 H1344 0.931 . S
C1329 C1328 1.391 . S
C1329 C1333 1.376 . S
C1330 C1328 1.394 . S
C1330 C1331 1.369 . S
C1330 C1334 1.531 . S
C1331 C1330 1.369 . S
C1331 C1332 1.410 . S
C1331 C1339 1.503 . S
C1332 C1331 1.410 . S
C1332 C1333 1.392 . S
C1332 C1335 1.511 . S
C1333 C1329 1.376 . S
C1333 C1332 1.392 . S
C1333 H1345 0.929 . S
C1334 C1330 1.531 . S
C1334 H1346 0.960 . S
C1334 H1347 0.962 . S
C1334 H1348 0.960 . S
C1335 C1332 1.511 . S
C1335 H1349 0.961 . S
C1335 H1350 0.961 . S
C1335 H1351 0.961 . S
C1336 C1337 1.370 . S
C1336 C1338 1.363 . S
C1336 H1352 0.931 . S
C1337 C1336 1.370 . S
C1337 C1341 1.408 . S
C1338 C1336 1.363 . S
C1338 C1339 1.370 . S
C1338 C1342 1.524 . S
C1339 C1331 1.503 . S
C1339 C1338 1.370 . S
C1339 C1340 1.403 . S
C1340 C1339 1.403 . S
C1340 C1341 1.404 . S
C1340 C1343 1.539 . S
C1341 C1337 1.408 . S
C1341 C1340 1.404 . S
C1341 H1353 0.930 . S
C1342 C1338 1.524 . S
C1342 H1354 0.956 . S
C1342 H1355 0.961 . S
C1342 H1356 0.961 . S
C1343 C1340 1.539 . S
C1343 H1357 0.958 . S
C1343 H1358 0.961 . S
C1343 H1359 0.960 . S
H1344 C1328 0.931 . S
H1345 C1333 0.929 . S
H1346 C1334 0.960 . S
H1347 C1334 0.962 . S
H1348 C1334 0.960 . S
H1349 C1335 0.961 . S
H1350 C1335 0.961 . S
H1351 C1335 0.961 . S
H1352 C1336 0.931 . S
H1353 C1341 0.930 . S
H1354 C1342 0.956 . S
H1355 C1342 0.961 . S
H1356 C1342 0.961 . S
H1357 C1343 0.958 . S
H1358 C1343 0.961 . S
H1359 C1343 0.960 . S
C1360 C1361 1.391 . S
C1360 C1362 1.394 . S
C1360 H1376 0.931 . S
C1361 C1360 1.391 . S
C1361 C1365 1.376 . S
C1362 C1360 1.394 . S
C1362 C1363 1.369 . S
C1362 C1366 1.531 . S
C1363 C1362 1.369 . S
C1363 C1364 1.410 . S
C1363 C1371 1.503 . S
C1364 C1363 1.410 . S
C1364 C1365 1.392 . S
C1364 C1367 1.511 . S
C1365 C1361 1.376 . S
C1365 C1364 1.392 . S
C1365 H1377 0.929 . S
C1366 C1362 1.531 . S
C1366 H1378 0.960 . S
C1366 H1379 0.962 . S
C1366 H1380 0.960 . S
C1367 C1364 1.511 . S
C1367 H1381 0.961 . S
C1367 H1382 0.961 . S
C1367 H1383 0.961 . S
C1368 C1369 1.370 . S
C1368 C1370 1.363 . S
C1368 H1384 0.931 . S
C1369 C1368 1.370 . S
C1369 C1373 1.408 . S
C1370 C1368 1.363 . S
C1370 C1371 1.370 . S
C1370 C1374 1.524 . S
C1371 C1363 1.503 . S
C1371 C1370 1.370 . S
C1371 C1372 1.403 . S
C1372 C1371 1.403 . S
C1372 C1373 1.404 . S
C1372 C1375 1.539 . S
C1373 C1369 1.408 . S
C1373 C1372 1.404 . S
C1373 H1385 0.930 . S
C1374 C1370 1.524 . S
C1374 H1386 0.956 . S
C1374 H1387 0.961 . S
C1374 H1388 0.961 . S
C1375 C1372 1.539 . S
C1375 H1389 0.958 . S
C1375 H1390 0.961 . S
C1375 H1391 0.960 . S
H1376 C1360 0.931 . S
H1377 C1365 0.929 . S
H1378 C1366 0.960 . S
H1379 C1366 0.962 . S
H1380 C1366 0.960 . S
H1381 C1367 0.961 . S
H1382 C1367 0.961 . S
H1383 C1367 0.961 . S
H1384 C1368 0.931 . S
H1385 C1373 0.930 . S
H1386 C1374 0.956 . S
H1387 C1374 0.961 . S
H1388 C1374 0.961 . S
H1389 C1375 0.958 . S
H1390 C1375 0.961 . S
H1391 C1375 0.960 . S
C1392 C1393 1.391 . S
C1392 C1394 1.394 . S
C1392 H1408 0.931 . S
C1393 C1392 1.391 . S
C1393 C1397 1.376 . S
C1394 C1392 1.394 . S
C1394 C1395 1.369 . S
C1394 C1398 1.531 . S
C1395 C1394 1.369 . S
C1395 C1396 1.410 . S
C1395 C1403 1.503 . S
C1396 C1395 1.410 . S
C1396 C1397 1.392 . S
C1396 C1399 1.511 . S
C1397 C1393 1.376 . S
C1397 C1396 1.392 . S
C1397 H1409 0.929 . S
C1398 C1394 1.531 . S
C1398 H1410 0.960 . S
C1398 H1411 0.962 . S
C1398 H1412 0.960 . S
C1399 C1396 1.511 . S
C1399 H1413 0.961 . S
C1399 H1414 0.961 . S
C1399 H1415 0.961 . S
C1400 C1401 1.370 . S
C1400 C1402 1.363 . S
C1400 H1416 0.931 . S
C1401 C1400 1.370 . S
C1401 C1405 1.408 . S
C1402 C1400 1.363 . S
C1402 C1403 1.370 . S
C1402 C1406 1.524 . S
C1403 C1395 1.503 . S
C1403 C1402 1.370 . S
C1403 C1404 1.403 . S
C1404 C1403 1.403 . S
C1404 C1405 1.404 . S
C1404 C1407 1.539 . S
C1405 C1401 1.408 . S
C1405 C1404 1.404 . S
C1405 H1417 0.930 . S
C1406 C1402 1.524 . S
C1406 H1418 0.956 . S
C1406 H1419 0.961 . S
C1406 H1420 0.961 . S
C1407 C1404 1.539 . S
C1407 H1421 0.958 . S
C1407 H1422 0.961 . S
C1407 H1423 0.960 . S
H1408 C1392 0.931 . S
H1409 C1397 0.929 . S
H1410 C1398 0.960 . S
H1411 C1398 0.962 . S
H1412 C1398 0.960 . S
H1413 C1399 0.961 . S
H1414 C1399 0.961 . S
H1415 C1399 0.961 . S
H1416 C1400 0.931 . S
H1417 C1405 0.930 . S
H1418 C1406 0.956 . S
H1419 C1406 0.961 . S
H1420 C1406 0.961 . S
H1421 C1407 0.958 . S
H1422 C1407 0.961 . S
H1423 C1407 0.960 . S
C1424 C1425 1.391 . S
C1424 C1426 1.394 . S
C1424 H1440 0.931 . S
C1425 C1424 1.391 . S
C1425 C1429 1.376 . S
C1426 C1424 1.394 . S
C1426 C1427 1.369 . S
C1426 C1430 1.531 . S
C1427 C1426 1.369 . S
C1427 C1428 1.410 . S
C1427 C1435 1.503 . S
C1428 C1427 1.410 . S
C1428 C1429 1.392 . S
C1428 C1431 1.511 . S
C1429 C1425 1.376 . S
C1429 C1428 1.392 . S
C1429 H1441 0.929 . S
C1430 C1426 1.531 . S
C1430 H1442 0.960 . S
C1430 H1443 0.962 . S
C1430 H1444 0.960 . S
C1431 C1428 1.511 . S
C1431 H1445 0.961 . S
C1431 H1446 0.961 . S
C1431 H1447 0.961 . S
C1432 C1433 1.370 . S
C1432 C1434 1.363 . S
C1432 H1448 0.931 . S
C1433 C1432 1.370 . S
C1433 C1437 1.408 . S
C1434 C1432 1.363 . S
C1434 C1435 1.370 . S
C1434 C1438 1.524 . S
C1435 C1427 1.503 . S
C1435 C1434 1.370 . S
C1435 C1436 1.403 . S
C1436 C1435 1.403 . S
C1436 C1437 1.404 . S
C1436 C1439 1.539 . S
C1437 C1433 1.408 . S
C1437 C1436 1.404 . S
C1437 H1449 0.930 . S
C1438 C1434 1.524 . S
C1438 H1450 0.956 . S
C1438 H1451 0.961 . S
C1438 H1452 0.961 . S
C1439 C1436 1.539 . S
C1439 H1453 0.958 . S
C1439 H1454 0.961 . S
C1439 H1455 0.960 . S
H1440 C1424 0.931 . S
H1441 C1429 0.929 . S
H1442 C1430 0.960 . S
H1443 C1430 0.962 . S
H1444 C1430 0.960 . S
H1445 C1431 0.961 . S
H1446 C1431 0.961 . S
H1447 C1431 0.961 . S
H1448 C1432 0.931 . S
H1449 C1437 0.930 . S
H1450 C1438 0.956 . S
H1451 C1438 0.961 . S
H1452 C1438 0.961 . S
H1453 C1439 0.958 . S
H1454 C1439 0.961 . S
H1455 C1439 0.960 . S
C1456 C1457 1.391 . S
C1456 C1458 1.394 . S
C1456 H1472 0.931 . S
C1457 C1456 1.391 . S
C1457 C1461 1.376 . S
C1458 C1456 1.394 . S
C1458 C1459 1.369 . S
C1458 C1462 1.531 . S
C1459 C1458 1.369 . S
C1459 C1460 1.410 . S
C1459 C1467 1.503 . S
C1460 C1459 1.410 . S
C1460 C1461 1.392 . S
C1460 C1463 1.511 . S
C1461 C1457 1.376 . S
C1461 C1460 1.392 . S
C1461 H1473 0.929 . S
C1462 C1458 1.531 . S
C1462 H1474 0.960 . S
C1462 H1475 0.962 . S
C1462 H1476 0.960 . S
C1463 C1460 1.511 . S
C1463 H1477 0.961 . S
C1463 H1478 0.961 . S
C1463 H1479 0.961 . S
C1464 C1465 1.370 . S
C1464 C1466 1.363 . S
C1464 H1480 0.931 . S
C1465 C1464 1.370 . S
C1465 C1469 1.408 . S
C1466 C1464 1.363 . S
C1466 C1467 1.370 . S
C1466 C1470 1.524 . S
C1467 C1459 1.503 . S
C1467 C1466 1.370 . S
C1467 C1468 1.403 . S
C1468 C1467 1.403 . S
C1468 C1469 1.404 . S
C1468 C1471 1.539 . S
C1469 C1465 1.408 . S
C1469 C1468 1.404 . S
C1469 H1481 0.930 . S
C1470 C1466 1.524 . S
C1470 H1482 0.956 . S
C1470 H1483 0.961 . S
C1470 H1484 0.961 . S
C1471 C1468 1.539 . S
C1471 H1485 0.958 . S
C1471 H1486 0.961 . S
C1471 H1487 0.960 . S
H1472 C1456 0.931 . S
H1473 C1461 0.929 . S
H1474 C1462 0.960 . S
H1475 C1462 0.962 . S
H1476 C1462 0.960 . S
H1477 C1463 0.961 . S
H1478 C1463 0.961 . S
H1479 C1463 0.961 . S
H1480 C1464 0.931 . S
H1481 C1469 0.930 . S
H1482 C1470 0.956 . S
H1483 C1470 0.961 . S
H1484 C1470 0.961 . S
H1485 C1471 0.958 . S
H1486 C1471 0.961 . S
H1487 C1471 0.960 . S
C1488 C1489 1.391 . S
C1488 C1490 1.394 . S
C1488 H1504 0.931 . S
C1489 C1488 1.391 . S
C1489 C1493 1.376 . S
C1490 C1488 1.394 . S
C1490 C1491 1.369 . S
C1490 C1494 1.531 . S
C1491 C1490 1.369 . S
C1491 C1492 1.410 . S
C1491 C1499 1.503 . S
C1492 C1491 1.410 . S
C1492 C1493 1.392 . S
C1492 C1495 1.511 . S
C1493 C1489 1.376 . S
C1493 C1492 1.392 . S
C1493 H1505 0.929 . S
C1494 C1490 1.531 . S
C1494 H1506 0.960 . S
C1494 H1507 0.962 . S
C1494 H1508 0.960 . S
C1495 C1492 1.511 . S
C1495 H1509 0.961 . S
C1495 H1510 0.961 . S
C1495 H1511 0.961 . S
C1496 C1497 1.370 . S
C1496 C1498 1.363 . S
C1496 H1512 0.931 . S
C1497 C1496 1.370 . S
C1497 C1501 1.408 . S
C1498 C1496 1.363 . S
C1498 C1499 1.370 . S
C1498 C1502 1.524 . S
C1499 C1491 1.503 . S
C1499 C1498 1.370 . S
C1499 C1500 1.403 . S
C1500 C1499 1.403 . S
C1500 C1501 1.404 . S
C1500 C1503 1.539 . S
C1501 C1497 1.408 . S
C1501 C1500 1.404 . S
C1501 H1513 0.930 . S
C1502 C1498 1.524 . S
C1502 H1514 0.956 . S
C1502 H1515 0.961 . S
C1502 H1516 0.961 . S
C1503 C1500 1.539 . S
C1503 H1517 0.958 . S
C1503 H1518 0.961 . S
C1503 H1519 0.960 . S
H1504 C1488 0.931 . S
H1505 C1493 0.929 . S
H1506 C1494 0.960 . S
H1507 C1494 0.962 . S
H1508 C1494 0.960 . S
H1509 C1495 0.961 . S
H1510 C1495 0.961 . S
H1511 C1495 0.961 . S
H1512 C1496 0.931 . S
H1513 C1501 0.930 . S
H1514 C1502 0.956 . S
H1515 C1502 0.961 . S
H1516 C1502 0.961 . S
H1517 C1503 0.958 . S
H1518 C1503 0.961 . S
H1519 C1503 0.960 . S
C1520 C1521 1.391 . S
C1520 C1522 1.394 . S
C1520 H1536 0.931 . S
C1521 C1520 1.391 . S
C1521 C1525 1.376 . S
C1522 C1520 1.394 . S
C1522 C1523 1.369 . S
C1522 C1526 1.531 . S
C1523 C1522 1.369 . S
C1523 C1524 1.410 . S
C1523 C1531 1.503 . S
C1524 C1523 1.410 . S
C1524 C1525 1.392 . S
C1524 C1527 1.511 . S
C1525 C1521 1.376 . S
C1525 C1524 1.392 . S
C1525 H1537 0.929 . S
C1526 C1522 1.531 . S
C1526 H1538 0.960 . S
C1526 H1539 0.962 . S
C1526 H1540 0.960 . S
C1527 C1524 1.511 . S
C1527 H1541 0.961 . S
C1527 H1542 0.961 . S
C1527 H1543 0.961 . S
C1528 C1529 1.370 . S
C1528 C1530 1.363 . S
C1528 H1544 0.931 . S
C1529 C1528 1.370 . S
C1529 C1533 1.408 . S
C1530 C1528 1.363 . S
C1530 C1531 1.370 . S
C1530 C1534 1.524 . S
C1531 C1523 1.503 . S
C1531 C1530 1.370 . S
C1531 C1532 1.403 . S
C1532 C1531 1.403 . S
C1532 C1533 1.404 . S
C1532 C1535 1.539 . S
C1533 C1529 1.408 . S
C1533 C1532 1.404 . S
C1533 H1545 0.930 . S
C1534 C1530 1.524 . S
C1534 H1546 0.956 . S
C1534 H1547 0.961 . S
C1534 H1548 0.961 . S
C1535 C1532 1.539 . S
C1535 H1549 0.958 . S
C1535 H1550 0.961 . S
C1535 H1551 0.960 . S
H1536 C1520 0.931 . S
H1537 C1525 0.929 . S
H1538 C1526 0.960 . S
H1539 C1526 0.962 . S
H1540 C1526 0.960 . S
H1541 C1527 0.961 . S
H1542 C1527 0.961 . S
H1543 C1527 0.961 . S
H1544 C1528 0.931 . S
H1545 C1533 0.930 . S
H1546 C1534 0.956 . S
H1547 C1534 0.961 . S
H1548 C1534 0.961 . S
H1549 C1535 0.958 . S
H1550 C1535 0.961 . S
H1551 C1535 0.960 . S
C1552 C1553 1.391 . S
C1552 C1554 1.394 . S
C1552 H1568 0.931 . S
C1553 C1552 1.391 . S
C1553 C1557 1.376 . S
C1554 C1552 1.394 . S
C1554 C1555 1.369 . S
C1554 C1558 1.531 . S
C1555 C1554 1.369 . S
C1555 C1556 1.410 . S
C1555 C1563 1.503 . S
C1556 C1555 1.410 . S
C1556 C1557 1.392 . S
C1556 C1559 1.511 . S
C1557 C1553 1.376 . S
C1557 C1556 1.392 . S
C1557 H1569 0.929 . S
C1558 C1554 1.531 . S
C1558 H1570 0.960 . S
C1558 H1571 0.962 . S
C1558 H1572 0.960 . S
C1559 C1556 1.511 . S
C1559 H1573 0.961 . S
C1559 H1574 0.961 . S
C1559 H1575 0.961 . S
C1560 C1561 1.370 . S
C1560 C1562 1.363 . S
C1560 H1576 0.931 . S
C1561 C1560 1.370 . S
C1561 C1565 1.408 . S
C1562 C1560 1.363 . S
C1562 C1563 1.370 . S
C1562 C1566 1.524 . S
C1563 C1555 1.503 . S
C1563 C1562 1.370 . S
C1563 C1564 1.403 . S
C1564 C1563 1.403 . S
C1564 C1565 1.404 . S
C1564 C1567 1.539 . S
C1565 C1561 1.408 . S
C1565 C1564 1.404 . S
C1565 H1577 0.930 . S
C1566 C1562 1.524 . S
C1566 H1578 0.956 . S
C1566 H1579 0.961 . S
C1566 H1580 0.961 . S
C1567 C1564 1.539 . S
C1567 H1581 0.958 . S
C1567 H1582 0.961 . S
C1567 H1583 0.960 . S
H1568 C1552 0.931 . S
H1569 C1557 0.929 . S
H1570 C1558 0.960 . S
H1571 C1558 0.962 . S
H1572 C1558 0.960 . S
H1573 C1559 0.961 . S
H1574 C1559 0.961 . S
H1575 C1559 0.961 . S
H1576 C1560 0.931 . S
H1577 C1565 0.930 . S
H1578 C1566 0.956 . S
H1579 C1566 0.961 . S
H1580 C1566 0.961 . S
H1581 C1567 0.958 . S
H1582 C1567 0.961 . S
H1583 C1567 0.960 . S
C1584 C1585 1.391 . S
C1584 C1586 1.394 . S
C1584 H1600 0.931 . S
C1585 C1584 1.391 . S
C1585 C1589 1.376 . S
C1586 C1584 1.394 . S
C1586 C1587 1.369 . S
C1586 C1590 1.531 . S
C1587 C1586 1.369 . S
C1587 C1588 1.410 . S
C1587 C1595 1.503 . S
C1588 C1587 1.410 . S
C1588 C1589 1.392 . S
C1588 C1591 1.511 . S
C1589 C1585 1.376 . S
C1589 C1588 1.392 . S
C1589 H1601 0.929 . S
C1590 C1586 1.531 . S
C1590 H1602 0.960 . S
C1590 H1603 0.962 . S
C1590 H1604 0.960 . S
C1591 C1588 1.511 . S
C1591 H1605 0.961 . S
C1591 H1606 0.961 . S
C1591 H1607 0.961 . S
C1592 C1593 1.370 . S
C1592 C1594 1.363 . S
C1592 H1608 0.931 . S
C1593 C1592 1.370 . S
C1593 C1597 1.408 . S
C1594 C1592 1.363 . S
C1594 C1595 1.370 . S
C1594 C1598 1.524 . S
C1595 C1587 1.503 . S
C1595 C1594 1.370 . S
C1595 C1596 1.403 . S
C1596 C1595 1.403 . S
C1596 C1597 1.404 . S
C1596 C1599 1.539 . S
C1597 C1593 1.408 . S
C1597 C1596 1.404 . S
C1597 H1609 0.930 . S
C1598 C1594 1.524 . S
C1598 H1610 0.956 . S
C1598 H1611 0.961 . S
C1598 H1612 0.961 . S
C1599 C1596 1.539 . S
C1599 H1613 0.958 . S
C1599 H1614 0.961 . S
C1599 H1615 0.960 . S
H1600 C1584 0.931 . S
H1601 C1589 0.929 . S
H1602 C1590 0.960 . S
H1603 C1590 0.962 . S
H1604 C1590 0.960 . S
H1605 C1591 0.961 . S
H1606 C1591 0.961 . S
H1607 C1591 0.961 . S
H1608 C1592 0.931 . S
H1609 C1597 0.930 . S
H1610 C1598 0.956 . S
H1611 C1598 0.961 . S
H1612 C1598 0.961 . S
H1613 C1599 0.958 . S
H1614 C1599 0.961 . S
H1615 C1599 0.960 . S
C1616 C1617 1.391 . S
C1616 C1618 1.394 . S
C1616 H1632 0.931 . S
C1617 C1616 1.391 . S
C1617 C1621 1.376 . S
C1618 C1616 1.394 . S
C1618 C1619 1.369 . S
C1618 C1622 1.531 . S
C1619 C1618 1.369 . S
C1619 C1620 1.410 . S
C1619 C1627 1.503 . S
C1620 C1619 1.410 . S
C1620 C1621 1.392 . S
C1620 C1623 1.511 . S
C1621 C1617 1.376 . S
C1621 C1620 1.392 . S
C1621 H1633 0.929 . S
C1622 C1618 1.531 . S
C1622 H1634 0.960 . S
C1622 H1635 0.962 . S
C1622 H1636 0.960 . S
C1623 C1620 1.511 . S
C1623 H1637 0.961 . S
C1623 H1638 0.961 . S
C1623 H1639 0.961 . S
C1624 C1625 1.370 . S
C1624 C1626 1.363 . S
C1624 H1640 0.931 . S
C1625 C1624 1.370 . S
C1625 C1629 1.408 . S
C1626 C1624 1.363 . S
C1626 C1627 1.370 . S
C1626 C1630 1.524 . S
C1627 C1619 1.503 . S
C1627 C1626 1.370 . S
C1627 C1628 1.403 . S
C1628 C1627 1.403 . S
C1628 C1629 1.404 . S
C1628 C1631 1.539 . S
C1629 C1625 1.408 . S
C1629 C1628 1.404 . S
C1629 H1641 0.930 . S
C1630 C1626 1.524 . S
C1630 H1642 0.956 . S
C1630 H1643 0.961 . S
C1630 H1644 0.961 . S
C1631 C1628 1.539 . S
C1631 H1645 0.958 . S
C1631 H1646 0.961 . S
C1631 H1647 0.960 . S
H1632 C1616 0.931 . S
H1633 C1621 0.929 . S
H1634 C1622 0.960 . S
H1635 C1622 0.962 . S
H1636 C1622 0.960 . S
H1637 C1623 0.961 . S
H1638 C1623 0.961 . S
H1639 C1623 0.961 . S
H1640 C1624 0.931 . S
H1641 C1629 0.930 . S
H1642 C1630 0.956 . S
H1643 C1630 0.961 . S
H1644 C1630 0.961 . S
H1645 C1631 0.958 . S
H1646 C1631 0.961 . S
H1647 C1631 0.960 . S
C1648 C1649 1.391 . S
C1648 C1650 1.394 . S
C1648 H1664 0.931 . S
C1649 C1648 1.391 . S
C1649 C1653 1.376 . S
C1650 C1648 1.394 . S
C1650 C1651 1.369 . S
C1650 C1654 1.531 . S
C1651 C1650 1.369 . S
C1651 C1652 1.410 . S
C1651 C1659 1.503 . S
C1652 C1651 1.410 . S
C1652 C1653 1.392 . S
C1652 C1655 1.511 . S
C1653 C1649 1.376 . S
C1653 C1652 1.392 . S
C1653 H1665 0.929 . S
C1654 C1650 1.531 . S
C1654 H1666 0.960 . S
C1654 H1667 0.962 . S
C1654 H1668 0.960 . S
C1655 C1652 1.511 . S
C1655 H1669 0.961 . S
C1655 H1670 0.961 . S
C1655 H1671 0.961 . S
C1656 C1657 1.370 . S
C1656 C1658 1.363 . S
C1656 H1672 0.931 . S
C1657 C1656 1.370 . S
C1657 C1661 1.408 . S
C1658 C1656 1.363 . S
C1658 C1659 1.370 . S
C1658 C1662 1.524 . S
C1659 C1651 1.503 . S
C1659 C1658 1.370 . S
C1659 C1660 1.403 . S
C1660 C1659 1.403 . S
C1660 C1661 1.404 . S
C1660 C1663 1.539 . S
C1661 C1657 1.408 . S
C1661 C1660 1.404 . S
C1661 H1673 0.930 . S
C1662 C1658 1.524 . S
C1662 H1674 0.956 . S
C1662 H1675 0.961 . S
C1662 H1676 0.961 . S
C1663 C1660 1.539 . S
C1663 H1677 0.958 . S
C1663 H1678 0.961 . S
C1663 H1679 0.960 . S
H1664 C1648 0.931 . S
H1665 C1653 0.929 . S
H1666 C1654 0.960 . S
H1667 C1654 0.962 . S
H1668 C1654 0.960 . S
H1669 C1655 0.961 . S
H1670 C1655 0.961 . S
H1671 C1655 0.961 . S
H1672 C1656 0.931 . S
H1673 C1661 0.930 . S
H1674 C1662 0.956 . S
H1675 C1662 0.961 . S
H1676 C1662 0.961 . S
H1677 C1663 0.958 . S
H1678 C1663 0.961 . S
H1679 C1663 0.960 . S
C1680 C1681 1.391 . S
C1680 C1682 1.394 . S
C1680 H1696 0.931 . S
C1681 C1680 1.391 . S
C1681 C1685 1.376 . S
C1682 C1680 1.394 . S
C1682 C1683 1.369 . S
C1682 C1686 1.531 . S
C1683 C1682 1.369 . S
C1683 C1684 1.410 . S
C1683 C1691 1.503 . S
C1684 C1683 1.410 . S
C1684 C1685 1.392 . S
C1684 C1687 1.511 . S
C1685 C1681 1.376 . S
C1685 C1684 1.392 . S
C1685 H1697 0.929 . S
C1686 C1682 1.531 . S
C1686 H1698 0.960 . S
C1686 H1699 0.962 . S
C1686 H1700 0.960 . S
C1687 C1684 1.511 . S
C1687 H1701 0.961 . S
C1687 H1702 0.961 . S
C1687 H1703 0.961 . S
C1688 C1689 1.370 . S
C1688 C1690 1.363 . S
C1688 H1704 0.931 . S
C1689 C1688 1.370 . S
C1689 C1693 1.408 . S
C1690 C1688 1.363 . S
C1690 C1691 1.370 . S
C1690 C1694 1.524 . S
C1691 C1683 1.503 . S
C1691 C1690 1.370 . S
C1691 C1692 1.403 . S
C1692 C1691 1.403 . S
C1692 C1693 1.404 . S
C1692 C1695 1.539 . S
C1693 C1689 1.408 . S
C1693 C1692 1.404 . S
C1693 H1705 0.930 . S
C1694 C1690 1.524 . S
C1694 H1706 0.956 . S
C1694 H1707 0.961 . S
C1694 H1708 0.961 . S
C1695 C1692 1.539 . S
C1695 H1709 0.958 . S
C1695 H1710 0.961 . S
C1695 H1711 0.960 . S
H1696 C1680 0.931 . S
H1697 C1685 0.929 . S
H1698 C1686 0.960 . S
H1699 C1686 0.962 . S
H1700 C1686 0.960 . S
H1701 C1687 0.961 . S
H1702 C1687 0.961 . S
H1703 C1687 0.961 . S
H1704 C1688 0.931 . S
H1705 C1693 0.930 . S
H1706 C1694 0.956 . S
H1707 C1694 0.961 . S
H1708 C1694 0.961 . S
H1709 C1695 0.958 . S
H1710 C1695 0.961 . S
H1711 C1695 0.960 . S
C1712 C1713 1.391 . S
C1712 C1714 1.394 . S
C1712 H1728 0.931 . S
C1713 C1712 1.391 . S
C1713 C1717 1.376 . S
C1714 C1712 1.394 . S
C1714 C1715 1.369 . S
C1714 C1718 1.531 . S
C1715 C1714 1.369 . S
C1715 C1716 1.410 . S
C1715 C1723 1.503 . S
C1716 C1715 1.410 . S
C1716 C1717 1.392 . S
C1716 C1719 1.511 . S
C1717 C1713 1.376 . S
C1717 C1716 1.392 . S
C1717 H1729 0.929 . S
C1718 C1714 1.531 . S
C1718 H1730 0.960 . S
C1718 H1731 0.962 . S
C1718 H1732 0.960 . S
C1719 C1716 1.511 . S
C1719 H1733 0.961 . S
C1719 H1734 0.961 . S
C1719 H1735 0.961 . S
C1720 C1721 1.370 . S
C1720 C1722 1.363 . S
C1720 H1736 0.931 . S
C1721 C1720 1.370 . S
C1721 C1725 1.408 . S
C1722 C1720 1.363 . S
C1722 C1723 1.370 . S
C1722 C1726 1.524 . S
C1723 C1715 1.503 . S
C1723 C1722 1.370 . S
C1723 C1724 1.403 . S
C1724 C1723 1.403 . S
C1724 C1725 1.404 . S
C1724 C1727 1.539 . S
C1725 C1721 1.408 . S
C1725 C1724 1.404 . S
C1725 H1737 0.930 . S
C1726 C1722 1.524 . S
C1726 H1738 0.956 . S
C1726 H1739 0.961 . S
C1726 H1740 0.961 . S
C1727 C1724 1.539 . S
C1727 H1741 0.958 . S
C1727 H1742 0.961 . S
C1727 H1743 0.960 . S
H1728 C1712 0.931 . S
H1729 C1717 0.929 . S
H1730 C1718 0.960 . S
H1731 C1718 0.962 . S
H1732 C1718 0.960 . S
H1733 C1719 0.961 . S
H1734 C1719 0.961 . S
H1735 C1719 0.961 . S
H1736 C1720 0.931 . S
H1737 C1725 0.930 . S
H1738 C1726 0.956 . S
H1739 C1726 0.961 . S
H1740 C1726 0.961 . S
H1741 C1727 0.958 . S
H1742 C1727 0.961 . S
H1743 C1727 0.960 . S
C1744 C1745 1.391 . S
C1744 C1746 1.394 . S
C1744 H1760 0.931 . S
C1745 C1744 1.391 . S
C1745 C1749 1.376 . S
C1746 C1744 1.394 . S
C1746 C1747 1.369 . S
C1746 C1750 1.531 1_545 S
C1747 C1746 1.369 . S
C1747 C1748 1.410 . S
C1747 C1755 1.503 . S
C1748 C1747 1.410 . S
C1748 C1749 1.392 . S
C1748 C1751 1.511 . S
C1749 C1745 1.376 . S
C1749 C1748 1.392 . S
C1749 H1761 0.929 . S
C1750 C1746 1.531 1_565 S
C1750 H1762 0.960 . S
C1750 H1763 0.971 . S
C1750 H1764 0.960 . S
C1751 C1748 1.511 . S
C1751 H1765 0.961 . S
C1751 H1766 0.961 . S
C1751 H1767 0.961 . S
C1752 C1753 1.370 . S
C1752 C1754 1.363 . S
C1752 H1768 0.931 . S
C1753 C1752 1.370 . S
C1753 C1757 1.400 1_545 S
C1754 C1752 1.363 . S
C1754 C1755 1.370 . S
C1754 C1758 1.524 . S
C1755 C1747 1.503 . S
C1755 C1754 1.370 . S
C1755 C1756 1.403 . S
C1756 C1755 1.403 . S
C1756 C1757 1.403 1_545 S
C1756 C1759 1.539 1_545 S
C1757 C1753 1.400 1_565 S
C1757 C1756 1.403 1_565 S
C1757 H1769 0.939 . S
C1758 C1754 1.524 . S
C1758 H1770 0.956 . S
C1758 H1771 0.961 . S
C1758 H1772 0.961 . S
C1759 C1756 1.539 1_565 S
C1759 H1773 0.958 . S
C1759 H1774 0.961 . S
C1759 H1775 0.960 . S
H1760 C1744 0.931 . S
H1761 C1749 0.929 . S
H1762 C1750 0.960 . S
H1763 C1750 0.971 . S
H1764 C1750 0.960 . S
H1765 C1751 0.961 . S
H1766 C1751 0.961 . S
H1767 C1751 0.961 . S
H1768 C1752 0.931 . S
H1769 C1757 0.939 . S
H1770 C1758 0.956 . S
H1771 C1758 0.961 . S
H1772 C1758 0.961 . S
H1773 C1759 0.958 . S
H1774 C1759 0.961 . S
H1775 C1759 0.960 . S
C1776 C1777 1.391 . S
C1776 C1778 1.394 . S
C1776 H1792 0.931 . S
C1777 C1776 1.391 . S
C1777 C1781 1.376 . S
C1778 C1776 1.394 . S
C1778 C1779 1.369 . S
C1778 C1782 1.531 . S
C1779 C1778 1.369 . S
C1779 C1780 1.410 . S
C1779 C1787 1.503 . S
C1780 C1779 1.410 . S
C1780 C1781 1.392 . S
C1780 C1783 1.511 . S
C1781 C1777 1.376 . S
C1781 C1780 1.392 . S
C1781 H1793 0.929 . S
C1782 C1778 1.531 . S
C1782 H1794 0.960 . S
C1782 H1795 0.962 . S
C1782 H1796 0.960 . S
C1783 C1780 1.511 . S
C1783 H1797 0.961 . S
C1783 H1798 0.961 . S
C1783 H1799 0.961 . S
C1784 C1785 1.370 . S
C1784 C1786 1.363 . S
C1784 H1800 0.931 . S
C1785 C1784 1.370 . S
C1785 C1789 1.408 . S
C1786 C1784 1.363 . S
C1786 C1787 1.370 . S
C1786 C1790 1.524 . S
C1787 C1779 1.503 . S
C1787 C1786 1.370 . S
C1787 C1788 1.403 . S
C1788 C1787 1.403 . S
C1788 C1789 1.404 . S
C1788 C1791 1.539 . S
C1789 C1785 1.408 . S
C1789 C1788 1.404 . S
C1789 H1801 0.930 . S
C1790 C1786 1.524 . S
C1790 H1802 0.956 . S
C1790 H1803 0.961 . S
C1790 H1804 0.961 . S
C1791 C1788 1.539 . S
C1791 H1805 0.958 . S
C1791 H1806 0.961 . S
C1791 H1807 0.960 . S
H1792 C1776 0.931 . S
H1793 C1781 0.929 . S
H1794 C1782 0.960 . S
H1795 C1782 0.962 . S
H1796 C1782 0.960 . S
H1797 C1783 0.961 . S
H1798 C1783 0.961 . S
H1799 C1783 0.961 . S
H1800 C1784 0.931 . S
H1801 C1789 0.930 . S
H1802 C1790 0.956 . S
H1803 C1790 0.961 . S
H1804 C1790 0.961 . S
H1805 C1791 0.958 . S
H1806 C1791 0.961 . S
H1807 C1791 0.960 . S
C1808 C1809 1.391 . S
C1808 C1810 1.394 . S
C1808 H1824 0.931 . S
C1809 C1808 1.391 . S
C1809 C1813 1.376 . S
C1810 C1808 1.394 . S
C1810 C1811 1.369 . S
C1810 C1814 1.531 . S
C1811 C1810 1.369 . S
C1811 C1812 1.410 . S
C1811 C1819 1.503 . S
C1812 C1811 1.410 . S
C1812 C1813 1.392 . S
C1812 C1815 1.511 . S
C1813 C1809 1.376 . S
C1813 C1812 1.392 . S
C1813 H1825 0.929 . S
C1814 C1810 1.531 . S
C1814 H1826 0.960 . S
C1814 H1827 0.962 . S
C1814 H1828 0.960 . S
C1815 C1812 1.511 . S
C1815 H1829 0.961 . S
C1815 H1830 0.961 . S
C1815 H1831 0.961 . S
C1816 C1817 1.370 . S
C1816 C1818 1.363 . S
C1816 H1832 0.931 . S
C1817 C1816 1.370 . S
C1817 C1821 1.408 . S
C1818 C1816 1.363 . S
C1818 C1819 1.370 . S
C1818 C1822 1.524 . S
C1819 C1811 1.503 . S
C1819 C1818 1.370 . S
C1819 C1820 1.403 . S
C1820 C1819 1.403 . S
C1820 C1821 1.404 . S
C1820 C1823 1.539 . S
C1821 C1817 1.408 . S
C1821 C1820 1.404 . S
C1821 H1833 0.930 . S
C1822 C1818 1.524 . S
C1822 H1834 0.956 . S
C1822 H1835 0.961 . S
C1822 H1836 0.961 . S
C1823 C1820 1.539 . S
C1823 H1837 0.958 . S
C1823 H1838 0.961 . S
C1823 H1839 0.960 . S
H1824 C1808 0.931 . S
H1825 C1813 0.929 . S
H1826 C1814 0.960 . S
H1827 C1814 0.962 . S
H1828 C1814 0.960 . S
H1829 C1815 0.961 . S
H1830 C1815 0.961 . S
H1831 C1815 0.961 . S
H1832 C1816 0.931 . S
H1833 C1821 0.930 . S
H1834 C1822 0.956 . S
H1835 C1822 0.961 . S
H1836 C1822 0.961 . S
H1837 C1823 0.958 . S
H1838 C1823 0.961 . S
H1839 C1823 0.960 . S
C1840 C1841 1.391 . S
C1840 C1842 1.394 . S
C1840 H1856 0.931 . S
C1841 C1840 1.391 . S
C1841 C1845 1.376 . S
C1842 C1840 1.394 . S
C1842 C1843 1.369 . S
C1842 C1846 1.531 . S
C1843 C1842 1.369 . S
C1843 C1844 1.410 . S
C1843 C1851 1.503 . S
C1844 C1843 1.410 . S
C1844 C1845 1.392 . S
C1844 C1847 1.511 . S
C1845 C1841 1.376 . S
C1845 C1844 1.392 . S
C1845 H1857 0.929 . S
C1846 C1842 1.531 . S
C1846 H1858 0.960 . S
C1846 H1859 0.962 . S
C1846 H1860 0.960 . S
C1847 C1844 1.511 . S
C1847 H1861 0.961 . S
C1847 H1862 0.961 . S
C1847 H1863 0.961 . S
C1848 C1849 1.370 . S
C1848 C1850 1.363 . S
C1848 H1864 0.931 . S
C1849 C1848 1.370 . S
C1849 C1853 1.408 . S
C1850 C1848 1.363 . S
C1850 C1851 1.370 . S
C1850 C1854 1.524 . S
C1851 C1843 1.503 . S
C1851 C1850 1.370 . S
C1851 C1852 1.403 . S
C1852 C1851 1.403 . S
C1852 C1853 1.404 . S
C1852 C1855 1.539 . S
C1853 C1849 1.408 . S
C1853 C1852 1.404 . S
C1853 H1865 0.930 . S
C1854 C1850 1.524 . S
C1854 H1866 0.956 . S
C1854 H1867 0.961 . S
C1854 H1868 0.961 . S
C1855 C1852 1.539 . S
C1855 H1869 0.958 . S
C1855 H1870 0.961 . S
C1855 H1871 0.960 . S
H1856 C1840 0.931 . S
H1857 C1845 0.929 . S
H1858 C1846 0.960 . S
H1859 C1846 0.962 . S
H1860 C1846 0.960 . S
H1861 C1847 0.961 . S
H1862 C1847 0.961 . S
H1863 C1847 0.961 . S
H1864 C1848 0.931 . S
H1865 C1853 0.930 . S
H1866 C1854 0.956 . S
H1867 C1854 0.961 . S
H1868 C1854 0.961 . S
H1869 C1855 0.958 . S
H1870 C1855 0.961 . S
H1871 C1855 0.960 . S
C1872 C1873 1.391 . S
C1872 C1874 1.394 . S
C1872 H1888 0.931 . S
C1873 C1872 1.391 . S
C1873 C1877 1.376 1_565 S
C1874 C1872 1.394 . S
C1874 C1875 1.369 . S
C1874 C1878 1.531 . S
C1875 C1874 1.369 . S
C1875 C1876 1.404 1_565 S
C1875 C1883 1.503 . S
C1876 C1875 1.404 1_545 S
C1876 C1877 1.393 . S
C1876 C1879 1.516 . S
C1877 C1873 1.376 1_545 S
C1877 C1876 1.393 . S
C1877 H1889 0.929 . S
C1878 C1874 1.531 . S
C1878 H1890 0.960 . S
C1878 H1891 0.962 . S
C1878 H1892 0.960 . S
C1879 C1876 1.516 . S
C1879 H1893 0.961 . S
C1879 H1894 0.961 . S
C1879 H1895 0.961 . S
C1880 C1881 1.370 . S
C1880 C1882 1.363 . S
C1880 H1896 0.931 . S
C1881 C1880 1.370 . S
C1881 C1885 1.408 . S
C1882 C1880 1.363 . S
C1882 C1883 1.370 . S
C1882 C1886 1.524 . S
C1883 C1875 1.503 . S
C1883 C1882 1.370 . S
C1883 C1884 1.403 . S
C1884 C1883 1.403 . S
C1884 C1885 1.404 . S
C1884 C1887 1.539 . S
C1885 C1881 1.408 . S
C1885 C1884 1.404 . S
C1885 H1897 0.930 . S
C1886 C1882 1.524 . S
C1886 H1898 0.956 . S
C1886 H1899 0.961 . S
C1886 H1900 0.961 . S
C1887 C1884 1.539 . S
C1887 H1901 0.958 . S
C1887 H1902 0.961 . S
C1887 H1903 0.960 . S
H1888 C1872 0.931 . S
H1889 C1877 0.929 . S
H1890 C1878 0.960 . S
H1891 C1878 0.962 . S
H1892 C1878 0.960 . S
H1893 C1879 0.961 . S
H1894 C1879 0.961 . S
H1895 C1879 0.961 . S
H1896 C1880 0.931 . S
H1897 C1885 0.930 . S
H1898 C1886 0.956 . S
H1899 C1886 0.961 . S
H1900 C1886 0.961 . S
H1901 C1887 0.958 . S
H1902 C1887 0.961 . S
H1903 C1887 0.960 . S
C1904 C1905 1.391 . S
C1904 C1906 1.394 . S
C1904 H1920 0.931 . S
C1905 C1904 1.391 . S
C1905 C1909 1.376 . S
C1906 C1904 1.394 . S
C1906 C1907 1.369 . S
C1906 C1910 1.531 . S
C1907 C1906 1.369 . S
C1907 C1908 1.410 . S
C1907 C1915 1.503 . S
C1908 C1907 1.410 . S
C1908 C1909 1.392 . S
C1908 C1911 1.511 . S
C1909 C1905 1.376 . S
C1909 C1908 1.392 . S
C1909 H1921 0.929 . S
C1910 C1906 1.531 . S
C1910 H1922 0.960 . S
C1910 H1923 0.962 . S
C1910 H1924 0.960 . S
C1911 C1908 1.511 . S
C1911 H1925 0.961 . S
C1911 H1926 0.961 . S
C1911 H1927 0.961 . S
C1912 C1913 1.370 . S
C1912 C1914 1.363 . S
C1912 H1928 0.931 . S
C1913 C1912 1.370 . S
C1913 C1917 1.408 . S
C1914 C1912 1.363 . S
C1914 C1915 1.370 . S
C1914 C1918 1.524 . S
C1915 C1907 1.503 . S
C1915 C1914 1.370 . S
C1915 C1916 1.403 . S
C1916 C1915 1.403 . S
C1916 C1917 1.404 . S
C1916 C1919 1.539 . S
C1917 C1913 1.408 . S
C1917 C1916 1.404 . S
C1917 H1929 0.930 . S
C1918 C1914 1.524 . S
C1918 H1930 0.956 . S
C1918 H1931 0.961 . S
C1918 H1932 0.961 . S
C1919 C1916 1.539 . S
C1919 H1933 0.958 . S
C1919 H1934 0.961 . S
C1919 H1935 0.960 . S
H1920 C1904 0.931 . S
H1921 C1909 0.929 . S
H1922 C1910 0.960 . S
H1923 C1910 0.962 . S
H1924 C1910 0.960 . S
H1925 C1911 0.961 . S
H1926 C1911 0.961 . S
H1927 C1911 0.961 . S
H1928 C1912 0.931 . S
H1929 C1917 0.930 . S
H1930 C1918 0.956 . S
H1931 C1918 0.961 . S
H1932 C1918 0.961 . S
H1933 C1919 0.958 . S
H1934 C1919 0.961 . S
H1935 C1919 0.960 . S
C1936 C1937 1.391 . S
C1936 C1938 1.394 . S
C1936 H1952 0.931 . S
C1937 C1936 1.391 . S
C1937 C1941 1.376 . S
C1938 C1936 1.394 . S
C1938 C1939 1.369 . S
C1938 C1942 1.531 . S
C1939 C1938 1.369 . S
C1939 C1940 1.410 . S
C1939 C1947 1.503 . S
C1940 C1939 1.410 . S
C1940 C1941 1.392 . S
C1940 C1943 1.511 . S
C1941 C1937 1.376 . S
C1941 C1940 1.392 . S
C1941 H1953 0.929 . S
C1942 C1938 1.531 . S
C1942 H1954 0.960 . S
C1942 H1955 0.962 . S
C1942 H1956 0.960 . S
C1943 C1940 1.511 . S
C1943 H1957 0.961 . S
C1943 H1958 0.961 . S
C1943 H1959 0.961 . S
C1944 C1945 1.370 . S
C1944 C1946 1.363 . S
C1944 H1960 0.931 . S
C1945 C1944 1.370 . S
C1945 C1949 1.408 . S
C1946 C1944 1.363 . S
C1946 C1947 1.370 . S
C1946 C1950 1.524 . S
C1947 C1939 1.503 . S
C1947 C1946 1.370 . S
C1947 C1948 1.403 . S
C1948 C1947 1.403 . S
C1948 C1949 1.404 . S
C1948 C1951 1.539 . S
C1949 C1945 1.408 . S
C1949 C1948 1.404 . S
C1949 H1961 0.930 . S
C1950 C1946 1.524 . S
C1950 H1962 0.956 . S
C1950 H1963 0.961 . S
C1950 H1964 0.961 . S
C1951 C1948 1.539 . S
C1951 H1965 0.958 . S
C1951 H1966 0.961 . S
C1951 H1967 0.960 . S
H1952 C1936 0.931 . S
H1953 C1941 0.929 . S
H1954 C1942 0.960 . S
H1955 C1942 0.962 . S
H1956 C1942 0.960 . S
H1957 C1943 0.961 . S
H1958 C1943 0.961 . S
H1959 C1943 0.961 . S
H1960 C1944 0.931 . S
H1961 C1949 0.930 . S
H1962 C1950 0.956 . S
H1963 C1950 0.961 . S
H1964 C1950 0.961 . S
H1965 C1951 0.958 . S
H1966 C1951 0.961 . S
H1967 C1951 0.960 . S
C1968 C1969 1.391 . S
C1968 C1970 1.394 . S
C1968 H1984 0.931 . S
C1969 C1968 1.391 . S
C1969 C1973 1.376 . S
C1970 C1968 1.394 . S
C1970 C1971 1.369 . S
C1970 C1974 1.531 . S
C1971 C1970 1.369 . S
C1971 C1972 1.410 . S
C1971 C1979 1.503 . S
C1972 C1971 1.410 . S
C1972 C1973 1.392 . S
C1972 C1975 1.511 . S
C1973 C1969 1.376 . S
C1973 C1972 1.392 . S
C1973 H1985 0.929 . S
C1974 C1970 1.531 . S
C1974 H1986 0.960 . S
C1974 H1987 0.962 . S
C1974 H1988 0.960 . S
C1975 C1972 1.511 . S
C1975 H1989 0.961 . S
C1975 H1990 0.961 . S
C1975 H1991 0.961 . S
C1976 C1977 1.370 . S
C1976 C1978 1.363 . S
C1976 H1992 0.931 . S
C1977 C1976 1.370 . S
C1977 C1981 1.408 . S
C1978 C1976 1.363 . S
C1978 C1979 1.370 . S
C1978 C1982 1.524 . S
C1979 C1971 1.503 . S
C1979 C1978 1.370 . S
C1979 C1980 1.403 . S
C1980 C1979 1.403 . S
C1980 C1981 1.404 . S
C1980 C1983 1.539 . S
C1981 C1977 1.408 . S
C1981 C1980 1.404 . S
C1981 H1993 0.930 . S
C1982 C1978 1.524 . S
C1982 H1994 0.956 . S
C1982 H1995 0.961 . S
C1982 H1996 0.961 . S
C1983 C1980 1.539 . S
C1983 H1997 0.958 . S
C1983 H1998 0.961 . S
C1983 H1999 0.960 . S
H1984 C1968 0.931 . S
H1985 C1973 0.929 . S
H1986 C1974 0.960 . S
H1987 C1974 0.962 . S
H1988 C1974 0.960 . S
H1989 C1975 0.961 . S
H1990 C1975 0.961 . S
H1991 C1975 0.961 . S
H1992 C1976 0.931 . S
H1993 C1981 0.930 . S
H1994 C1982 0.956 . S
H1995 C1982 0.961 . S
H1996 C1982 0.961 . S
H1997 C1983 0.958 . S
H1998 C1983 0.961 . S
H1999 C1983 0.960 . S
C2000 C2001 1.391 . S
C2000 C2002 1.394 . S
C2000 H2016 0.931 . S
C2001 C2000 1.391 . S
C2001 C2005 1.376 . S
C2002 C2000 1.394 . S
C2002 C2003 1.369 . S
C2002 C2006 1.531 . S
C2003 C2002 1.369 . S
C2003 C2004 1.410 . S
C2003 C2011 1.503 . S
C2004 C2003 1.410 . S
C2004 C2005 1.392 . S
C2004 C2007 1.511 1_455 S
C2005 C2001 1.376 . S
C2005 C2004 1.392 . S
C2005 H2017 0.929 . S
C2006 C2002 1.531 . S
C2006 H2018 0.960 . S
C2006 H2019 0.962 . S
C2006 H2020 0.960 . S
C2007 C2004 1.511 1_655 S
C2007 H2021 0.961 . S
C2007 H2022 0.961 . S
C2007 H2023 0.961 . S
C2008 C2009 1.370 . S
C2008 C2010 1.363 . S
C2008 H2024 0.931 . S
C2009 C2008 1.370 . S
C2009 C2013 1.408 1_455 S
C2010 C2008 1.363 . S
C2010 C2011 1.370 . S
C2010 C2014 1.524 . S
C2011 C2003 1.503 . S
C2011 C2010 1.370 . S
C2011 C2012 1.403 . S
C2012 C2011 1.403 . S
C2012 C2013 1.404 1_455 S
C2012 C2015 1.539 1_455 S
C2013 C2009 1.408 1_655 S
C2013 C2012 1.404 1_655 S
C2013 H2025 0.930 . S
C2014 C2010 1.524 . S
C2014 H2026 0.956 . S
C2014 H2027 0.961 . S
C2014 H2028 0.961 . S
C2015 C2012 1.539 1_655 S
C2015 H2029 0.940 1_655 S
C2015 H2030 0.961 . S
C2015 H2031 0.960 . S
H2016 C2000 0.931 . S
H2017 C2005 0.929 . S
H2018 C2006 0.960 . S
H2019 C2006 0.962 . S
H2020 C2006 0.960 . S
H2021 C2007 0.961 . S
H2022 C2007 0.961 . S
H2023 C2007 0.961 . S
H2024 C2008 0.931 . S
H2025 C2013 0.930 . S
H2026 C2014 0.956 . S
H2027 C2014 0.961 . S
H2028 C2014 0.961 . S
H2029 C2015 0.940 1_455 S
H2030 C2015 0.961 . S
H2031 C2015 0.960 . S
C2032 C2033 1.391 1_655 S
C2032 C2034 1.394 1_655 S
C2032 H2048 0.931 . S
C2033 C2032 1.391 1_455 S
C2033 C2037 1.376 . S
C2034 C2032 1.394 1_455 S
C2034 C2035 1.369 . S
C2034 C2038 1.531 1_455 S
C2035 C2034 1.369 . S
C2035 C2036 1.410 . S
C2035 C2043 1.503 . S
C2036 C2035 1.410 . S
C2036 C2037 1.392 . S
C2036 C2039 1.511 . S
C2037 C2033 1.376 . S
C2037 C2036 1.392 . S
C2037 H2049 0.929 . S
C2038 C2034 1.531 1_655 S
C2038 H2050 0.960 1_655 S
C2038 H2051 0.962 . S
C2038 H2052 0.960 . S
C2039 C2036 1.511 . S
C2039 H2053 0.961 . S
C2039 H2054 0.961 . S
C2039 H2055 0.961 . S
C2040 C2041 1.370 . S
C2040 C2042 1.363 . S
C2040 H2056 0.931 . S
C2041 C2040 1.370 . S
C2041 C2045 1.408 . S
C2042 C2040 1.363 . S
C2042 C2043 1.370 . S
C2042 C2046 1.524 . S
C2043 C2035 1.503 . S
C2043 C2042 1.370 . S
C2043 C2044 1.403 . S
C2044 C2043 1.403 . S
C2044 C2045 1.404 . S
C2044 C2047 1.539 . S
C2045 C2041 1.408 . S
C2045 C2044 1.404 . S
C2045 H2057 0.930 . S
C2046 C2042 1.524 . S
C2046 H2058 0.956 1_455 S
C2046 H2059 0.961 . S
C2046 H2060 0.972 . S
C2047 C2044 1.539 . S
C2047 H2061 0.958 . S
C2047 H2062 0.961 . S
C2047 H2063 0.960 . S
H2048 C2032 0.931 . S
H2049 C2037 0.929 . S
H2050 C2038 0.960 1_455 S
H2051 C2038 0.962 . S
H2052 C2038 0.960 . S
H2053 C2039 0.961 . S
H2054 C2039 0.961 . S
H2055 C2039 0.961 . S
H2056 C2040 0.931 . S
H2057 C2045 0.930 . S
H2058 C2046 0.956 1_655 S
H2059 C2046 0.961 . S
H2060 C2046 0.972 . S
H2061 C2047 0.958 . S
H2062 C2047 0.961 . S
H2063 C2047 0.960 . S
C2064 C2065 1.391 . S
C2064 C2066 1.394 . S
C2064 H2080 0.931 . S
C2065 C2064 1.391 . S
C2065 C2069 1.376 . S
C2066 C2064 1.394 . S
C2066 C2067 1.369 . S
C2066 C2070 1.531 . S
C2067 C2066 1.369 . S
C2067 C2068 1.410 . S
C2067 C2075 1.503 . S
C2068 C2067 1.410 . S
C2068 C2069 1.392 . S
C2068 C2071 1.511 . S
C2069 C2065 1.376 . S
C2069 C2068 1.392 . S
C2069 H2081 0.929 . S
C2070 C2066 1.531 . S
C2070 H2082 0.960 . S
C2070 H2083 0.962 . S
C2070 H2084 0.960 . S
C2071 C2068 1.511 . S
C2071 H2085 0.961 . S
C2071 H2086 0.961 . S
C2071 H2087 0.961 . S
C2072 C2073 1.370 . S
C2072 C2074 1.363 . S
C2072 H2088 0.931 . S
C2073 C2072 1.370 . S
C2073 C2077 1.408 . S
C2074 C2072 1.363 . S
C2074 C2075 1.370 . S
C2074 C2078 1.524 . S
C2075 C2067 1.503 . S
C2075 C2074 1.370 . S
C2075 C2076 1.403 . S
C2076 C2075 1.403 . S
C2076 C2077 1.404 . S
C2076 C2079 1.539 . S
C2077 C2073 1.408 . S
C2077 C2076 1.404 . S
C2077 H2089 0.930 . S
C2078 C2074 1.524 . S
C2078 H2090 0.956 . S
C2078 H2091 0.961 . S
C2078 H2092 0.961 . S
C2079 C2076 1.539 . S
C2079 H2093 0.958 . S
C2079 H2094 0.961 . S
C2079 H2095 0.960 . S
H2080 C2064 0.931 . S
H2081 C2069 0.929 . S
H2082 C2070 0.960 . S
H2083 C2070 0.962 . S
H2084 C2070 0.960 . S
H2085 C2071 0.961 . S
H2086 C2071 0.961 . S
H2087 C2071 0.961 . S
H2088 C2072 0.931 . S
H2089 C2077 0.930 . S
H2090 C2078 0.956 . S
H2091 C2078 0.961 . S
H2092 C2078 0.961 . S
H2093 C2079 0.958 . S
H2094 C2079 0.961 . S
H2095 C2079 0.960 . S
C2096 C2097 1.391 . S
C2096 C2098 1.394 . S
C2096 H2112 0.931 . S
C2097 C2096 1.391 . S
C2097 C2101 1.376 . S
C2098 C2096 1.394 . S
C2098 C2099 1.369 . S
C2098 C2102 1.531 . S
C2099 C2098 1.369 . S
C2099 C2100 1.410 . S
C2099 C2107 1.503 . S
C2100 C2099 1.410 . S
C2100 C2101 1.392 . S
C2100 C2103 1.511 . S
C2101 C2097 1.376 . S
C2101 C2100 1.392 . S
C2101 H2113 0.929 . S
C2102 C2098 1.531 . S
C2102 H2114 0.960 . S
C2102 H2115 0.962 . S
C2102 H2116 0.960 . S
C2103 C2100 1.511 . S
C2103 H2117 0.961 . S
C2103 H2118 0.961 . S
C2103 H2119 0.961 . S
C2104 C2105 1.370 . S
C2104 C2106 1.363 . S
C2104 H2120 0.931 . S
C2105 C2104 1.370 . S
C2105 C2109 1.408 . S
C2106 C2104 1.363 . S
C2106 C2107 1.370 . S
C2106 C2110 1.524 . S
C2107 C2099 1.503 . S
C2107 C2106 1.370 . S
C2107 C2108 1.403 . S
C2108 C2107 1.403 . S
C2108 C2109 1.404 . S
C2108 C2111 1.539 . S
C2109 C2105 1.408 . S
C2109 C2108 1.404 . S
C2109 H2121 0.930 . S
C2110 C2106 1.524 . S
C2110 H2122 0.956 . S
C2110 H2123 0.961 . S
C2110 H2124 0.961 . S
C2111 C2108 1.539 . S
C2111 H2125 0.958 . S
C2111 H2126 0.961 . S
C2111 H2127 0.960 . S
H2112 C2096 0.931 . S
H2113 C2101 0.929 . S
H2114 C2102 0.960 . S
H2115 C2102 0.962 . S
H2116 C2102 0.960 . S
H2117 C2103 0.961 . S
H2118 C2103 0.961 . S
H2119 C2103 0.961 . S
H2120 C2104 0.931 . S
H2121 C2109 0.930 . S
H2122 C2110 0.956 . S
H2123 C2110 0.961 . S
H2124 C2110 0.961 . S
H2125 C2111 0.958 . S
H2126 C2111 0.961 . S
H2127 C2111 0.960 . S
C2128 C2129 1.391 . S
C2128 C2130 1.394 . S
C2128 H2144 0.931 . S
C2129 C2128 1.391 . S
C2129 C2133 1.376 . S
C2130 C2128 1.394 . S
C2130 C2131 1.369 . S
C2130 C2134 1.531 . S
C2131 C2130 1.369 . S
C2131 C2132 1.410 . S
C2131 C2139 1.503 . S
C2132 C2131 1.410 . S
C2132 C2133 1.392 . S
C2132 C2135 1.511 . S
C2133 C2129 1.376 . S
C2133 C2132 1.392 . S
C2133 H2145 0.929 . S
C2134 C2130 1.531 . S
C2134 H2146 0.960 . S
C2134 H2147 0.962 . S
C2134 H2148 0.960 . S
C2135 C2132 1.511 . S
C2135 H2149 0.961 . S
C2135 H2150 0.961 . S
C2135 H2151 0.961 . S
C2136 C2137 1.370 . S
C2136 C2138 1.363 . S
C2136 H2152 0.931 . S
C2137 C2136 1.370 . S
C2137 C2141 1.408 . S
C2138 C2136 1.363 . S
C2138 C2139 1.370 . S
C2138 C2142 1.524 . S
C2139 C2131 1.503 . S
C2139 C2138 1.370 . S
C2139 C2140 1.403 . S
C2140 C2139 1.403 . S
C2140 C2141 1.404 . S
C2140 C2143 1.539 . S
C2141 C2137 1.408 . S
C2141 C2140 1.404 . S
C2141 H2153 0.930 . S
C2142 C2138 1.524 . S
C2142 H2154 0.956 . S
C2142 H2155 0.961 . S
C2142 H2156 0.961 . S
C2143 C2140 1.539 . S
C2143 H2157 0.958 . S
C2143 H2158 0.961 . S
C2143 H2159 0.960 . S
H2144 C2128 0.931 . S
H2145 C2133 0.929 . S
H2146 C2134 0.960 . S
H2147 C2134 0.962 . S
H2148 C2134 0.960 . S
H2149 C2135 0.961 . S
H2150 C2135 0.961 . S
H2151 C2135 0.961 . S
H2152 C2136 0.931 . S
H2153 C2141 0.930 . S
H2154 C2142 0.956 . S
H2155 C2142 0.961 . S
H2156 C2142 0.961 . S
H2157 C2143 0.958 . S
H2158 C2143 0.961 . S
H2159 C2143 0.960 . S
C2160 C2161 1.391 . S
C2160 C2162 1.394 . S
C2160 H2176 0.931 . S
C2161 C2160 1.391 . S
C2161 C2165 1.376 . S
C2162 C2160 1.394 . S
C2162 C2163 1.369 . S
C2162 C2166 1.531 . S
C2163 C2162 1.369 . S
C2163 C2164 1.410 . S
C2163 C2171 1.503 . S
C2164 C2163 1.410 . S
C2164 C2165 1.392 . S
C2164 C2167 1.511 . S
C2165 C2161 1.376 . S
C2165 C2164 1.392 . S
C2165 H2177 0.929 . S
C2166 C2162 1.531 . S
C2166 H2178 0.960 . S
C2166 H2179 0.962 . S
C2166 H2180 0.960 . S
C2167 C2164 1.511 . S
C2167 H2181 0.961 . S
C2167 H2182 0.961 . S
C2167 H2183 0.961 . S
C2168 C2169 1.370 . S
C2168 C2170 1.363 . S
C2168 H2184 0.931 . S
C2169 C2168 1.370 . S
C2169 C2173 1.408 . S
C2170 C2168 1.363 . S
C2170 C2171 1.370 . S
C2170 C2174 1.524 . S
C2171 C2163 1.503 . S
C2171 C2170 1.370 . S
C2171 C2172 1.403 . S
C2172 C2171 1.403 . S
C2172 C2173 1.404 . S
C2172 C2175 1.539 . S
C2173 C2169 1.408 . S
C2173 C2172 1.404 . S
C2173 H2185 0.930 . S
C2174 C2170 1.524 . S
C2174 H2186 0.956 . S
C2174 H2187 0.961 . S
C2174 H2188 0.961 . S
C2175 C2172 1.539 . S
C2175 H2189 0.958 . S
C2175 H2190 0.961 . S
C2175 H2191 0.960 . S
H2176 C2160 0.931 . S
H2177 C2165 0.929 . S
H2178 C2166 0.960 . S
H2179 C2166 0.962 . S
H2180 C2166 0.960 . S
H2181 C2167 0.961 . S
H2182 C2167 0.961 . S
H2183 C2167 0.961 . S
H2184 C2168 0.931 . S
H2185 C2173 0.930 . S
H2186 C2174 0.956 . S
H2187 C2174 0.961 . S
H2188 C2174 0.961 . S
H2189 C2175 0.958 . S
H2190 C2175 0.961 . S
H2191 C2175 0.960 . S
C2192 C2193 1.391 . S
C2192 C2194 1.394 . S
C2192 H2208 0.931 . S
C2193 C2192 1.391 . S
C2193 C2197 1.376 . S
C2194 C2192 1.394 . S
C2194 C2195 1.369 . S
C2194 C2198 1.531 . S
C2195 C2194 1.369 . S
C2195 C2196 1.410 . S
C2195 C2203 1.503 . S
C2196 C2195 1.410 . S
C2196 C2197 1.392 . S
C2196 C2199 1.511 . S
C2197 C2193 1.376 . S
C2197 C2196 1.392 . S
C2197 H2209 0.929 . S
C2198 C2194 1.531 . S
C2198 H2210 0.960 . S
C2198 H2211 0.962 . S
C2198 H2212 0.960 . S
C2199 C2196 1.511 . S
C2199 H2213 0.961 . S
C2199 H2214 0.961 . S
C2199 H2215 0.961 . S
C2200 C2201 1.370 . S
C2200 C2202 1.363 . S
C2200 H2216 0.931 . S
C2201 C2200 1.370 . S
C2201 C2205 1.408 . S
C2202 C2200 1.363 . S
C2202 C2203 1.370 . S
C2202 C2206 1.524 . S
C2203 C2195 1.503 . S
C2203 C2202 1.370 . S
C2203 C2204 1.403 . S
C2204 C2203 1.403 . S
C2204 C2205 1.404 . S
C2204 C2207 1.539 . S
C2205 C2201 1.408 . S
C2205 C2204 1.404 . S
C2205 H2217 0.930 . S
C2206 C2202 1.524 . S
C2206 H2218 0.956 . S
C2206 H2219 0.961 . S
C2206 H2220 0.961 . S
C2207 C2204 1.539 . S
C2207 H2221 0.958 . S
C2207 H2222 0.961 . S
C2207 H2223 0.960 . S
H2208 C2192 0.931 . S
H2209 C2197 0.929 . S
H2210 C2198 0.960 . S
H2211 C2198 0.962 . S
H2212 C2198 0.960 . S
H2213 C2199 0.961 . S
H2214 C2199 0.961 . S
H2215 C2199 0.961 . S
H2216 C2200 0.931 . S
H2217 C2205 0.930 . S
H2218 C2206 0.956 . S
H2219 C2206 0.961 . S
H2220 C2206 0.961 . S
H2221 C2207 0.958 . S
H2222 C2207 0.961 . S
H2223 C2207 0.960 . S
C2224 C2225 1.391 . S
C2224 C2226 1.394 . S
C2224 H2240 0.931 . S
C2225 C2224 1.391 . S
C2225 C2229 1.376 . S
C2226 C2224 1.394 . S
C2226 C2227 1.369 . S
C2226 C2230 1.531 . S
C2227 C2226 1.369 . S
C2227 C2228 1.410 . S
C2227 C2235 1.503 . S
C2228 C2227 1.410 . S
C2228 C2229 1.392 . S
C2228 C2231 1.511 . S
C2229 C2225 1.376 . S
C2229 C2228 1.392 . S
C2229 H2241 0.929 . S
C2230 C2226 1.531 . S
C2230 H2242 0.960 . S
C2230 H2243 0.962 . S
C2230 H2244 0.960 . S
C2231 C2228 1.511 . S
C2231 H2245 0.961 . S
C2231 H2246 0.961 . S
C2231 H2247 0.961 . S
C2232 C2233 1.370 . S
C2232 C2234 1.363 . S
C2232 H2248 0.931 . S
C2233 C2232 1.370 . S
C2233 C2237 1.408 . S
C2234 C2232 1.363 . S
C2234 C2235 1.370 . S
C2234 C2238 1.524 . S
C2235 C2227 1.503 . S
C2235 C2234 1.370 . S
C2235 C2236 1.403 . S
C2236 C2235 1.403 . S
C2236 C2237 1.404 . S
C2236 C2239 1.539 . S
C2237 C2233 1.408 . S
C2237 C2236 1.404 . S
C2237 H2249 0.930 . S
C2238 C2234 1.524 . S
C2238 H2250 0.956 . S
C2238 H2251 0.961 . S
C2238 H2252 0.961 . S
C2239 C2236 1.539 . S
C2239 H2253 0.958 . S
C2239 H2254 0.961 . S
C2239 H2255 0.960 . S
H2240 C2224 0.931 . S
H2241 C2229 0.929 . S
H2242 C2230 0.960 . S
H2243 C2230 0.962 . S
H2244 C2230 0.960 . S
H2245 C2231 0.961 . S
H2246 C2231 0.961 . S
H2247 C2231 0.961 . S
H2248 C2232 0.931 . S
H2249 C2237 0.930 . S
H2250 C2238 0.956 . S
H2251 C2238 0.961 . S
H2252 C2238 0.961 . S
H2253 C2239 0.958 . S
H2254 C2239 0.961 . S
H2255 C2239 0.960 . S
C2256 C2257 1.391 . S
C2256 C2258 1.394 . S
C2256 H2272 0.931 . S
C2257 C2256 1.391 . S
C2257 C2261 1.376 . S
C2258 C2256 1.394 . S
C2258 C2259 1.369 . S
C2258 C2262 1.531 . S
C2259 C2258 1.369 . S
C2259 C2260 1.410 . S
C2259 C2267 1.503 . S
C2260 C2259 1.410 . S
C2260 C2261 1.392 . S
C2260 C2263 1.511 . S
C2261 C2257 1.376 . S
C2261 C2260 1.392 . S
C2261 H2273 0.929 . S
C2262 C2258 1.531 . S
C2262 H2274 0.960 . S
C2262 H2275 0.962 . S
C2262 H2276 0.960 . S
C2263 C2260 1.511 . S
C2263 H2277 0.961 . S
C2263 H2278 0.961 . S
C2263 H2279 0.961 . S
C2264 C2265 1.370 . S
C2264 C2266 1.363 . S
C2264 H2280 0.931 . S
C2265 C2264 1.370 . S
C2265 C2269 1.408 . S
C2266 C2264 1.363 . S
C2266 C2267 1.370 . S
C2266 C2270 1.524 . S
C2267 C2259 1.503 . S
C2267 C2266 1.370 . S
C2267 C2268 1.403 . S
C2268 C2267 1.403 . S
C2268 C2269 1.404 . S
C2268 C2271 1.539 . S
C2269 C2265 1.408 . S
C2269 C2268 1.404 . S
C2269 H2281 0.930 . S
C2270 C2266 1.524 . S
C2270 H2282 0.956 . S
C2270 H2283 0.961 . S
C2270 H2284 0.961 . S
C2271 C2268 1.539 . S
C2271 H2285 0.958 . S
C2271 H2286 0.961 . S
C2271 H2287 0.960 . S
H2272 C2256 0.931 . S
H2273 C2261 0.929 . S
H2274 C2262 0.960 . S
H2275 C2262 0.962 . S
H2276 C2262 0.960 . S
H2277 C2263 0.961 . S
H2278 C2263 0.961 . S
H2279 C2263 0.961 . S
H2280 C2264 0.931 . S
H2281 C2269 0.930 . S
H2282 C2270 0.956 . S
H2283 C2270 0.961 . S
H2284 C2270 0.961 . S
H2285 C2271 0.958 . S
H2286 C2271 0.961 . S
H2287 C2271 0.960 . S
C2288 C2289 1.391 . S
C2288 C2290 1.394 . S
C2288 H2304 0.931 . S
C2289 C2288 1.391 . S
C2289 C2293 1.376 . S
C2290 C2288 1.394 . S
C2290 C2291 1.369 . S
C2290 C2294 1.531 . S
C2291 C2290 1.369 . S
C2291 C2292 1.410 . S
C2291 C2299 1.503 . S
C2292 C2291 1.410 . S
C2292 C2293 1.392 . S
C2292 C2295 1.511 . S
C2293 C2289 1.376 . S
C2293 C2292 1.392 . S
C2293 H2305 0.929 . S
C2294 C2290 1.531 . S
C2294 H2306 0.960 . S
C2294 H2307 0.962 . S
C2294 H2308 0.960 . S
C2295 C2292 1.511 . S
C2295 H2309 0.961 . S
C2295 H2310 0.961 . S
C2295 H2311 0.961 . S
C2296 C2297 1.370 . S
C2296 C2298 1.363 . S
C2296 H2312 0.931 . S
C2297 C2296 1.370 . S
C2297 C2301 1.408 . S
C2298 C2296 1.363 . S
C2298 C2299 1.370 . S
C2298 C2302 1.524 . S
C2299 C2291 1.503 . S
C2299 C2298 1.370 . S
C2299 C2300 1.403 . S
C2300 C2299 1.403 . S
C2300 C2301 1.404 . S
C2300 C2303 1.539 . S
C2301 C2297 1.408 . S
C2301 C2300 1.404 . S
C2301 H2313 0.930 . S
C2302 C2298 1.524 . S
C2302 H2314 0.956 . S
C2302 H2315 0.961 . S
C2302 H2316 0.961 . S
C2303 C2300 1.539 . S
C2303 H2317 0.958 . S
C2303 H2318 0.961 . S
C2303 H2319 0.960 . S
H2304 C2288 0.931 . S
H2305 C2293 0.929 . S
H2306 C2294 0.960 . S
H2307 C2294 0.962 . S
H2308 C2294 0.960 . S
H2309 C2295 0.961 . S
H2310 C2295 0.961 . S
H2311 C2295 0.961 . S
H2312 C2296 0.931 . S
H2313 C2301 0.930 . S
H2314 C2302 0.956 . S
H2315 C2302 0.961 . S
H2316 C2302 0.961 . S
H2317 C2303 0.958 . S
H2318 C2303 0.961 . S
H2319 C2303 0.960 . S
C2320 C2321 1.391 . S
C2320 C2322 1.394 . S
C2320 H2336 0.931 . S
C2321 C2320 1.391 . S
C2321 C2325 1.376 . S
C2322 C2320 1.394 . S
C2322 C2323 1.369 . S
C2322 C2326 1.531 . S
C2323 C2322 1.369 . S
C2323 C2324 1.410 . S
C2323 C2331 1.503 . S
C2324 C2323 1.410 . S
C2324 C2325 1.392 . S
C2324 C2327 1.511 . S
C2325 C2321 1.376 . S
C2325 C2324 1.392 . S
C2325 H2337 0.929 . S
C2326 C2322 1.531 . S
C2326 H2338 0.960 . S
C2326 H2339 0.962 . S
C2326 H2340 0.960 . S
C2327 C2324 1.511 . S
C2327 H2341 0.961 . S
C2327 H2342 0.961 . S
C2327 H2343 0.961 . S
C2328 C2329 1.370 . S
C2328 C2330 1.363 . S
C2328 H2344 0.931 . S
C2329 C2328 1.370 . S
C2329 C2333 1.408 . S
C2330 C2328 1.363 . S
C2330 C2331 1.370 . S
C2330 C2334 1.524 . S
C2331 C2323 1.503 . S
C2331 C2330 1.370 . S
C2331 C2332 1.403 . S
C2332 C2331 1.403 . S
C2332 C2333 1.404 . S
C2332 C2335 1.539 . S
C2333 C2329 1.408 . S
C2333 C2332 1.404 . S
C2333 H2345 0.930 . S
C2334 C2330 1.524 . S
C2334 H2346 0.956 . S
C2334 H2347 0.961 . S
C2334 H2348 0.961 . S
C2335 C2332 1.539 . S
C2335 H2349 0.958 . S
C2335 H2350 0.961 . S
C2335 H2351 0.960 . S
H2336 C2320 0.931 . S
H2337 C2325 0.929 . S
H2338 C2326 0.960 . S
H2339 C2326 0.962 . S
H2340 C2326 0.960 . S
H2341 C2327 0.961 . S
H2342 C2327 0.961 . S
H2343 C2327 0.961 . S
H2344 C2328 0.931 . S
H2345 C2333 0.930 . S
H2346 C2334 0.956 . S
H2347 C2334 0.961 . S
H2348 C2334 0.961 . S
H2349 C2335 0.958 . S
H2350 C2335 0.961 . S
H2351 C2335 0.960 . S
C2352 C2353 1.391 . S
C2352 C2354 1.394 . S
C2352 H2368 0.931 . S
C2353 C2352 1.391 . S
C2353 C2357 1.376 . S
C2354 C2352 1.394 . S
C2354 C2355 1.369 . S
C2354 C2358 1.531 . S
C2355 C2354 1.369 . S
C2355 C2356 1.410 . S
C2355 C2363 1.503 . S
C2356 C2355 1.410 . S
C2356 C2357 1.392 . S
C2356 C2359 1.511 . S
C2357 C2353 1.376 . S
C2357 C2356 1.392 . S
C2357 H2369 0.929 . S
C2358 C2354 1.531 . S
C2358 H2370 0.960 . S
C2358 H2371 0.962 . S
C2358 H2372 0.960 . S
C2359 C2356 1.511 . S
C2359 H2373 0.961 . S
C2359 H2374 0.961 . S
C2359 H2375 0.961 . S
C2360 C2361 1.370 . S
C2360 C2362 1.363 . S
C2360 H2376 0.931 . S
C2361 C2360 1.370 . S
C2361 C2365 1.408 . S
C2362 C2360 1.363 . S
C2362 C2363 1.370 . S
C2362 C2366 1.524 . S
C2363 C2355 1.503 . S
C2363 C2362 1.370 . S
C2363 C2364 1.403 . S
C2364 C2363 1.403 . S
C2364 C2365 1.404 . S
C2364 C2367 1.539 . S
C2365 C2361 1.408 . S
C2365 C2364 1.404 . S
C2365 H2377 0.930 . S
C2366 C2362 1.524 . S
C2366 H2378 0.956 . S
C2366 H2379 0.961 . S
C2366 H2380 0.961 . S
C2367 C2364 1.539 . S
C2367 H2381 0.958 . S
C2367 H2382 0.961 . S
C2367 H2383 0.960 . S
H2368 C2352 0.931 . S
H2369 C2357 0.929 . S
H2370 C2358 0.960 . S
H2371 C2358 0.962 . S
H2372 C2358 0.960 . S
H2373 C2359 0.961 . S
H2374 C2359 0.961 . S
H2375 C2359 0.961 . S
H2376 C2360 0.931 . S
H2377 C2365 0.930 . S
H2378 C2366 0.956 . S
H2379 C2366 0.961 . S
H2380 C2366 0.961 . S
H2381 C2367 0.958 . S
H2382 C2367 0.961 . S
H2383 C2367 0.960 . S
C2384 C2385 1.391 . S
C2384 C2386 1.394 . S
C2384 H2400 0.931 . S
C2385 C2384 1.391 . S
C2385 C2389 1.376 . S
C2386 C2384 1.394 . S
C2386 C2387 1.369 . S
C2386 C2390 1.531 . S
C2387 C2386 1.369 . S
C2387 C2388 1.410 . S
C2387 C2395 1.503 . S
C2388 C2387 1.410 . S
C2388 C2389 1.392 . S
C2388 C2391 1.511 . S
C2389 C2385 1.376 . S
C2389 C2388 1.392 . S
C2389 H2401 0.929 . S
C2390 C2386 1.531 . S
C2390 H2402 0.960 . S
C2390 H2403 0.962 . S
C2390 H2404 0.960 . S
C2391 C2388 1.511 . S
C2391 H2405 0.961 . S
C2391 H2406 0.961 . S
C2391 H2407 0.961 . S
C2392 C2393 1.370 . S
C2392 C2394 1.363 . S
C2392 H2408 0.931 . S
C2393 C2392 1.370 . S
C2393 C2397 1.408 . S
C2394 C2392 1.363 . S
C2394 C2395 1.370 . S
C2394 C2398 1.524 . S
C2395 C2387 1.503 . S
C2395 C2394 1.370 . S
C2395 C2396 1.403 . S
C2396 C2395 1.403 . S
C2396 C2397 1.404 . S
C2396 C2399 1.539 . S
C2397 C2393 1.408 . S
C2397 C2396 1.404 . S
C2397 H2409 0.930 . S
C2398 C2394 1.524 . S
C2398 H2410 0.956 . S
C2398 H2411 0.961 . S
C2398 H2412 0.961 . S
C2399 C2396 1.539 . S
C2399 H2413 0.958 . S
C2399 H2414 0.961 . S
C2399 H2415 0.960 . S
H2400 C2384 0.931 . S
H2401 C2389 0.929 . S
H2402 C2390 0.960 . S
H2403 C2390 0.962 . S
H2404 C2390 0.960 . S
H2405 C2391 0.961 . S
H2406 C2391 0.961 . S
H2407 C2391 0.961 . S
H2408 C2392 0.931 . S
H2409 C2397 0.930 . S
H2410 C2398 0.956 . S
H2411 C2398 0.961 . S
H2412 C2398 0.961 . S
H2413 C2399 0.958 . S
H2414 C2399 0.961 . S
H2415 C2399 0.960 . S
C2416 C2417 1.391 . S
C2416 C2418 1.394 . S
C2416 H2432 0.931 . S
C2417 C2416 1.391 . S
C2417 C2421 1.376 . S
C2418 C2416 1.394 . S
C2418 C2419 1.369 . S
C2418 C2422 1.531 . S
C2419 C2418 1.369 . S
C2419 C2420 1.410 . S
C2419 C2427 1.503 . S
C2420 C2419 1.410 . S
C2420 C2421 1.392 . S
C2420 C2423 1.511 . S
C2421 C2417 1.376 . S
C2421 C2420 1.392 . S
C2421 H2433 0.929 . S
C2422 C2418 1.531 . S
C2422 H2434 0.960 . S
C2422 H2435 0.962 . S
C2422 H2436 0.960 . S
C2423 C2420 1.511 . S
C2423 H2437 0.961 . S
C2423 H2438 0.961 . S
C2423 H2439 0.961 . S
C2424 C2425 1.370 . S
C2424 C2426 1.363 . S
C2424 H2440 0.931 . S
C2425 C2424 1.370 . S
C2425 C2429 1.408 . S
C2426 C2424 1.363 . S
C2426 C2427 1.370 . S
C2426 C2430 1.524 . S
C2427 C2419 1.503 . S
C2427 C2426 1.370 . S
C2427 C2428 1.403 . S
C2428 C2427 1.403 . S
C2428 C2429 1.404 . S
C2428 C2431 1.539 . S
C2429 C2425 1.408 . S
C2429 C2428 1.404 . S
C2429 H2441 0.930 . S
C2430 C2426 1.524 . S
C2430 H2442 0.956 . S
C2430 H2443 0.961 . S
C2430 H2444 0.961 . S
C2431 C2428 1.539 . S
C2431 H2445 0.958 . S
C2431 H2446 0.961 . S
C2431 H2447 0.960 . S
H2432 C2416 0.931 . S
H2433 C2421 0.929 . S
H2434 C2422 0.960 . S
H2435 C2422 0.962 . S
H2436 C2422 0.960 . S
H2437 C2423 0.961 . S
H2438 C2423 0.961 . S
H2439 C2423 0.961 . S
H2440 C2424 0.931 . S
H2441 C2429 0.930 . S
H2442 C2430 0.956 . S
H2443 C2430 0.961 . S
H2444 C2430 0.961 . S
H2445 C2431 0.958 . S
H2446 C2431 0.961 . S
H2447 C2431 0.960 . S
C2448 C2449 1.391 . S
C2448 C2450 1.394 . S
C2448 H2464 0.931 . S
C2449 C2448 1.391 . S
C2449 C2453 1.376 . S
C2450 C2448 1.394 . S
C2450 C2451 1.369 . S
C2450 C2454 1.531 . S
C2451 C2450 1.369 . S
C2451 C2452 1.410 . S
C2451 C2459 1.503 . S
C2452 C2451 1.410 . S
C2452 C2453 1.392 . S
C2452 C2455 1.511 . S
C2453 C2449 1.376 . S
C2453 C2452 1.392 . S
C2453 H2465 0.929 . S
C2454 C2450 1.531 . S
C2454 H2466 0.960 . S
C2454 H2467 0.962 1_655 S
C2454 H2468 0.960 . S
C2455 C2452 1.511 . S
C2455 H2469 0.961 . S
C2455 H2470 0.961 . S
C2455 H2471 0.961 . S
C2456 C2457 1.370 . S
C2456 C2458 1.363 . S
C2456 H2472 0.931 1_655 S
C2457 C2456 1.370 . S
C2457 C2461 1.408 . S
C2458 C2456 1.363 . S
C2458 C2459 1.370 . S
C2458 C2462 1.524 . S
C2459 C2451 1.503 . S
C2459 C2458 1.370 . S
C2459 C2460 1.403 . S
C2460 C2459 1.403 . S
C2460 C2461 1.404 . S
C2460 C2463 1.539 . S
C2461 C2457 1.408 . S
C2461 C2460 1.404 . S
C2461 H2473 0.930 . S
C2462 C2458 1.524 . S
C2462 H2474 0.948 1_655 S
C2462 H2475 0.961 . S
C2462 H2476 0.961 1_655 S
C2463 C2460 1.539 . S
C2463 H2477 0.958 . S
C2463 H2478 0.961 . S
C2463 H2479 0.960 . S
H2464 C2448 0.931 . S
H2465 C2453 0.929 . S
H2466 C2454 0.960 . S
H2467 C2454 0.962 1_455 S
H2468 C2454 0.960 . S
H2469 C2455 0.961 . S
H2470 C2455 0.961 . S
H2471 C2455 0.961 . S
H2472 C2456 0.931 1_455 S
H2473 C2461 0.930 . S
H2474 C2462 0.948 1_455 S
H2475 C2462 0.961 . S
H2476 C2462 0.961 1_455 S
H2477 C2463 0.958 . S
H2478 C2463 0.961 . S
H2479 C2463 0.960 . S
C2480 C2481 1.391 . S
C2480 C2482 1.394 . S
C2480 H2496 0.931 . S
C2481 C2480 1.391 . S
C2481 C2485 1.376 . S
C2482 C2480 1.394 . S
C2482 C2483 1.369 . S
C2482 C2486 1.531 1_554 S
C2483 C2482 1.369 . S
C2483 C2484 1.410 . S
C2483 C2491 1.503 . S
C2484 C2483 1.410 . S
C2484 C2485 1.392 . S
C2484 C2487 1.511 . S
C2485 C2481 1.376 . S
C2485 C2484 1.392 . S
C2485 H2497 0.929 . S
C2486 C2482 1.531 1_556 S
C2486 H2498 0.960 . S
C2486 H2499 0.962 . S
C2486 H2500 0.960 . S
C2487 C2484 1.511 . S
C2487 H2501 0.961 . S
C2487 H2502 0.961 . S
C2487 H2503 0.961 . S
C2488 C2489 1.370 . S
C2488 C2490 1.363 . S
C2488 H2504 0.931 . S
C2489 C2488 1.370 . S
C2489 C2493 1.408 . S
C2490 C2488 1.363 . S
C2490 C2491 1.370 . S
C2490 C2494 1.524 . S
C2491 C2483 1.503 . S
C2491 C2490 1.370 . S
C2491 C2492 1.403 . S
C2492 C2491 1.403 . S
C2492 C2493 1.404 . S
C2492 C2495 1.539 . S
C2493 C2489 1.408 . S
C2493 C2492 1.404 . S
C2493 H2505 0.930 . S
C2494 C2490 1.524 . S
C2494 H2506 0.956 . S
C2494 H2507 0.961 . S
C2494 H2508 0.961 . S
C2495 C2492 1.539 . S
C2495 H2509 0.958 . S
C2495 H2510 0.961 . S
C2495 H2511 0.960 . S
H2496 C2480 0.931 . S
H2497 C2485 0.929 . S
H2498 C2486 0.960 . S
H2499 C2486 0.962 . S
H2500 C2486 0.960 . S
H2501 C2487 0.961 . S
H2502 C2487 0.961 . S
H2503 C2487 0.961 . S
H2504 C2488 0.931 . S
H2505 C2493 0.930 . S
H2506 C2494 0.956 . S
H2507 C2494 0.961 . S
H2508 C2494 0.961 . S
H2509 C2495 0.958 . S
H2510 C2495 0.961 . S
H2511 C2495 0.960 . S
C2512 C2513 1.391 . S
C2512 C2514 1.394 . S
C2512 H2528 0.931 . S
C2513 C2512 1.391 . S
C2513 C2517 1.376 1_655 S
C2514 C2512 1.394 . S
C2514 C2515 1.369 . S
C2514 C2518 1.531 . S
C2515 C2514 1.369 . S
C2515 C2516 1.410 1_655 S
C2515 C2523 1.503 . S
C2516 C2515 1.410 1_455 S
C2516 C2517 1.392 . S
C2516 C2519 1.511 . S
C2517 C2513 1.376 1_455 S
C2517 C2516 1.392 . S
C2517 H2529 0.929 . S
C2518 C2514 1.531 . S
C2518 H2530 0.960 . S
C2518 H2531 0.962 . S
C2518 H2532 0.960 . S
C2519 C2516 1.511 . S
C2519 H2533 0.961 . S
C2519 H2534 0.961 . S
C2519 H2535 0.961 . S
C2520 C2521 1.370 . S
C2520 C2522 1.363 . S
C2520 H2536 0.939 . S
C2521 C2520 1.370 . S
C2521 C2525 1.408 . S
C2522 C2520 1.363 . S
C2522 C2523 1.370 . S
C2522 C2526 1.524 1_655 S
C2523 C2515 1.503 . S
C2523 C2522 1.370 . S
C2523 C2524 1.403 . S
C2524 C2523 1.403 . S
C2524 C2525 1.404 . S
C2524 C2527 1.539 . S
C2525 C2521 1.408 . S
C2525 C2524 1.404 . S
C2525 H2537 0.930 . S
C2526 C2522 1.524 1_455 S
C2526 H2538 0.956 1_455 S
C2526 H2539 0.961 . S
C2526 H2540 0.961 . S
C2527 C2524 1.539 . S
C2527 H2541 0.958 . S
C2527 H2542 0.961 . S
C2527 H2543 0.960 . S
H2528 C2512 0.931 . S
H2529 C2517 0.929 . S
H2530 C2518 0.960 . S
H2531 C2518 0.962 . S
H2532 C2518 0.960 . S
H2533 C2519 0.961 . S
H2534 C2519 0.961 . S
H2535 C2519 0.961 . S
H2536 C2520 0.939 . S
H2537 C2525 0.930 . S
H2538 C2526 0.956 1_655 S
H2539 C2526 0.961 . S
H2540 C2526 0.961 . S
H2541 C2527 0.958 . S
H2542 C2527 0.961 . S
H2543 C2527 0.960 . S
C2544 C2545 1.391 . S
C2544 C2546 1.394 . S
C2544 H2560 0.931 . S
C2545 C2544 1.391 . S
C2545 C2549 1.376 . S
C2546 C2544 1.394 . S
C2546 C2547 1.369 . S
C2546 C2550 1.531 . S
C2547 C2546 1.369 . S
C2547 C2548 1.410 . S
C2547 C2555 1.503 . S
C2548 C2547 1.410 . S
C2548 C2549 1.392 . S
C2548 C2551 1.511 . S
C2549 C2545 1.376 . S
C2549 C2548 1.392 . S
C2549 H2561 0.929 . S
C2550 C2546 1.531 . S
C2550 H2562 0.960 . S
C2550 H2563 0.962 . S
C2550 H2564 0.960 . S
C2551 C2548 1.511 . S
C2551 H2565 0.961 . S
C2551 H2566 0.961 . S
C2551 H2567 0.961 . S
C2552 C2553 1.370 . S
C2552 C2554 1.363 . S
C2552 H2568 0.931 . S
C2553 C2552 1.370 . S
C2553 C2557 1.408 . S
C2554 C2552 1.363 . S
C2554 C2555 1.370 . S
C2554 C2558 1.524 . S
C2555 C2547 1.503 . S
C2555 C2554 1.370 . S
C2555 C2556 1.403 . S
C2556 C2555 1.403 . S
C2556 C2557 1.404 . S
C2556 C2559 1.539 . S
C2557 C2553 1.408 . S
C2557 C2556 1.404 . S
C2557 H2569 0.930 . S
C2558 C2554 1.524 . S
C2558 H2570 0.956 . S
C2558 H2571 0.961 . S
C2558 H2572 0.961 . S
C2559 C2556 1.539 . S
C2559 H2573 0.958 . S
C2559 H2574 0.961 . S
C2559 H2575 0.960 . S
H2560 C2544 0.931 . S
H2561 C2549 0.929 . S
H2562 C2550 0.960 . S
H2563 C2550 0.962 . S
H2564 C2550 0.960 . S
H2565 C2551 0.961 . S
H2566 C2551 0.961 . S
H2567 C2551 0.961 . S
H2568 C2552 0.931 . S
H2569 C2557 0.930 . S
H2570 C2558 0.956 . S
H2571 C2558 0.961 . S
H2572 C2558 0.961 . S
H2573 C2559 0.958 . S
H2574 C2559 0.961 . S
H2575 C2559 0.960 . S
C2576 C2577 1.391 . S
C2576 C2578 1.394 . S
C2576 H2592 0.931 . S
C2577 C2576 1.391 . S
C2577 C2581 1.376 . S
C2578 C2576 1.394 . S
C2578 C2579 1.369 . S
C2578 C2582 1.531 . S
C2579 C2578 1.369 . S
C2579 C2580 1.410 . S
C2579 C2587 1.503 . S
C2580 C2579 1.410 . S
C2580 C2581 1.392 . S
C2580 C2583 1.511 . S
C2581 C2577 1.376 . S
C2581 C2580 1.392 . S
C2581 H2593 0.929 . S
C2582 C2578 1.531 . S
C2582 H2594 0.960 . S
C2582 H2595 0.962 1_655 S
C2582 H2596 0.960 1_655 S
C2583 C2580 1.511 . S
C2583 H2597 0.961 . S
C2583 H2598 0.961 . S
C2583 H2599 0.961 . S
C2584 C2585 1.370 . S
C2584 C2586 1.363 . S
C2584 H2600 0.931 . S
C2585 C2584 1.370 . S
C2585 C2589 1.408 . S
C2586 C2584 1.363 . S
C2586 C2587 1.370 . S
C2586 C2590 1.524 . S
C2587 C2579 1.503 . S
C2587 C2586 1.370 . S
C2587 C2588 1.403 . S
C2588 C2587 1.403 . S
C2588 C2589 1.404 . S
C2588 C2591 1.539 . S
C2589 C2585 1.408 . S
C2589 C2588 1.404 . S
C2589 H2601 0.930 . S
C2590 C2586 1.524 . S
C2590 H2602 0.956 . S
C2590 H2603 0.961 . S
C2590 H2604 0.961 . S
C2591 C2588 1.539 . S
C2591 H2605 0.958 . S
C2591 H2606 0.961 . S
C2591 H2607 0.960 . S
H2592 C2576 0.931 . S
H2593 C2581 0.929 . S
H2594 C2582 0.960 . S
H2595 C2582 0.962 1_455 S
H2596 C2582 0.960 1_455 S
H2597 C2583 0.961 . S
H2598 C2583 0.961 . S
H2599 C2583 0.961 . S
H2600 C2584 0.931 . S
H2601 C2589 0.930 . S
H2602 C2590 0.956 . S
H2603 C2590 0.961 . S
H2604 C2590 0.961 . S
H2605 C2591 0.958 . S
H2606 C2591 0.961 . S
H2607 C2591 0.960 . S
C2608 C2609 1.391 . S
C2608 C2610 1.394 . S
C2608 H2624 0.931 . S
C2609 C2608 1.391 . S
C2609 C2613 1.376 . S
C2610 C2608 1.394 . S
C2610 C2611 1.369 . S
C2610 C2614 1.531 . S
C2611 C2610 1.369 . S
C2611 C2612 1.410 . S
C2611 C2619 1.503 . S
C2612 C2611 1.410 . S
C2612 C2613 1.392 . S
C2612 C2615 1.511 . S
C2613 C2609 1.376 . S
C2613 C2612 1.392 . S
C2613 H2625 0.929 . S
C2614 C2610 1.531 . S
C2614 H2626 0.960 . S
C2614 H2627 0.962 . S
C2614 H2628 0.960 . S
C2615 C2612 1.511 . S
C2615 H2629 0.961 . S
C2615 H2630 0.961 . S
C2615 H2631 0.961 . S
C2616 C2617 1.370 . S
C2616 C2618 1.363 . S
C2616 H2632 0.931 . S
C2617 C2616 1.370 . S
C2617 C2621 1.408 . S
C2618 C2616 1.363 . S
C2618 C2619 1.370 . S
C2618 C2622 1.524 . S
C2619 C2611 1.503 . S
C2619 C2618 1.370 . S
C2619 C2620 1.403 . S
C2620 C2619 1.403 . S
C2620 C2621 1.404 . S
C2620 C2623 1.539 . S
C2621 C2617 1.408 . S
C2621 C2620 1.404 . S
C2621 H2633 0.930 . S
C2622 C2618 1.524 . S
C2622 H2634 0.956 . S
C2622 H2635 0.961 . S
C2622 H2636 0.961 . S
C2623 C2620 1.539 . S
C2623 H2637 0.958 . S
C2623 H2638 0.961 . S
C2623 H2639 0.960 . S
H2624 C2608 0.931 . S
H2625 C2613 0.929 . S
H2626 C2614 0.960 . S
H2627 C2614 0.962 . S
H2628 C2614 0.960 . S
H2629 C2615 0.961 . S
H2630 C2615 0.961 . S
H2631 C2615 0.961 . S
H2632 C2616 0.931 . S
H2633 C2621 0.930 . S
H2634 C2622 0.956 . S
H2635 C2622 0.961 . S
H2636 C2622 0.961 . S
H2637 C2623 0.958 . S
H2638 C2623 0.961 . S
H2639 C2623 0.960 . S
C2640 C2641 1.391 1_455 S
C2640 C2642 1.394 . S
C2640 H2656 0.931 . S
C2641 C2640 1.391 1_655 S
C2641 C2645 1.376 . S
C2642 C2640 1.394 . S
C2642 C2643 1.369 1_455 S
C2642 C2646 1.531 . S
C2643 C2642 1.369 1_655 S
C2643 C2644 1.410 . S
C2643 C2651 1.503 . S
C2644 C2643 1.410 . S
C2644 C2645 1.392 . S
C2644 C2647 1.511 . S
C2645 C2641 1.376 . S
C2645 C2644 1.392 . S
C2645 H2657 0.929 . S
C2646 C2642 1.531 . S
C2646 H2658 0.960 . S
C2646 H2659 0.962 . S
C2646 H2660 0.960 . S
C2647 C2644 1.511 . S
C2647 H2661 0.961 . S
C2647 H2662 0.961 . S
C2647 H2663 0.961 . S
C2648 C2649 1.370 . S
C2648 C2650 1.363 . S
C2648 H2664 0.931 . S
C2649 C2648 1.370 . S
C2649 C2653 1.408 . S
C2650 C2648 1.363 . S
C2650 C2651 1.370 . S
C2650 C2654 1.524 . S
C2651 C2643 1.503 . S
C2651 C2650 1.370 . S
C2651 C2652 1.403 . S
C2652 C2651 1.403 . S
C2652 C2653 1.404 . S
C2652 C2655 1.539 1_655 S
C2653 C2649 1.408 . S
C2653 C2652 1.404 . S
C2653 H2665 0.930 . S
C2654 C2650 1.524 . S
C2654 H2666 0.956 . S
C2654 H2667 0.961 . S
C2654 H2668 0.961 . S
C2655 C2652 1.539 1_455 S
C2655 H2669 0.958 . S
C2655 H2670 0.961 1_455 S
C2655 H2671 0.960 1_455 S
H2656 C2640 0.931 . S
H2657 C2645 0.929 . S
H2658 C2646 0.960 . S
H2659 C2646 0.962 . S
H2660 C2646 0.960 . S
H2661 C2647 0.961 . S
H2662 C2647 0.961 . S
H2663 C2647 0.961 . S
H2664 C2648 0.931 . S
H2665 C2653 0.930 . S
H2666 C2654 0.956 . S
H2667 C2654 0.961 . S
H2668 C2654 0.961 . S
H2669 C2655 0.958 . S
H2670 C2655 0.961 1_655 S
H2671 C2655 0.960 1_655 S
C2672 C2673 1.391 . S
C2672 C2674 1.394 . S
C2672 H2688 0.931 . S
C2673 C2672 1.391 . S
C2673 C2677 1.376 . S
C2674 C2672 1.394 . S
C2674 C2675 1.369 . S
C2674 C2678 1.531 . S
C2675 C2674 1.369 . S
C2675 C2676 1.410 . S
C2675 C2683 1.503 . S
C2676 C2675 1.410 . S
C2676 C2677 1.392 . S
C2676 C2679 1.498 1_556 S
C2677 C2673 1.376 . S
C2677 C2676 1.392 . S
C2677 H2689 0.929 . S
C2678 C2674 1.531 . S
C2678 H2690 0.960 . S
C2678 H2691 0.962 . S
C2678 H2692 0.960 . S
C2679 C2676 1.498 1_554 S
C2679 H2693 0.971 . S
C2679 H2694 0.968 . S
C2679 H2695 0.956 . S
C2680 C2681 1.370 . S
C2680 C2682 1.363 . S
C2680 H2696 0.931 . S
C2681 C2680 1.370 . S
C2681 C2685 1.408 . S
C2682 C2680 1.363 . S
C2682 C2683 1.370 . S
C2682 C2686 1.524 . S
C2683 C2675 1.503 . S
C2683 C2682 1.370 . S
C2683 C2684 1.403 . S
C2684 C2683 1.403 . S
C2684 C2685 1.404 . S
C2684 C2687 1.539 . S
C2685 C2681 1.408 . S
C2685 C2684 1.404 . S
C2685 H2697 0.930 . S
C2686 C2682 1.524 . S
C2686 H2698 0.956 . S
C2686 H2699 0.961 . S
C2686 H2700 0.961 . S
C2687 C2684 1.539 . S
C2687 H2701 0.958 . S
C2687 H2702 0.961 . S
C2687 H2703 0.960 . S
H2688 C2672 0.931 . S
H2689 C2677 0.929 . S
H2690 C2678 0.960 . S
H2691 C2678 0.962 . S
H2692 C2678 0.960 . S
H2693 C2679 0.971 . S
H2694 C2679 0.968 . S
H2695 C2679 0.956 . S
H2696 C2680 0.931 . S
H2697 C2685 0.930 . S
H2698 C2686 0.956 . S
H2699 C2686 0.961 . S
H2700 C2686 0.961 . S
H2701 C2687 0.958 . S
H2702 C2687 0.961 . S
H2703 C2687 0.960 . S
C2704 C2705 1.391 . S
C2704 C2706 1.394 . S
C2704 H2720 0.931 . S
C2705 C2704 1.391 . S
C2705 C2709 1.376 1_565 S
C2706 C2704 1.394 . S
C2706 C2707 1.369 . S
C2706 C2710 1.531 . S
C2707 C2706 1.369 . S
C2707 C2708 1.410 1_565 S
C2707 C2715 1.503 . S
C2708 C2707 1.410 1_545 S
C2708 C2709 1.392 . S
C2708 C2711 1.511 . S
C2709 C2705 1.376 1_545 S
C2709 C2708 1.392 . S
C2709 H2721 0.929 . S
C2710 C2706 1.531 . S
C2710 H2722 0.960 . S
C2710 H2723 0.962 . S
C2710 H2724 0.960 . S
C2711 C2708 1.511 . S
C2711 H2725 0.961 . S
C2711 H2726 0.961 . S
C2711 H2727 0.961 . S
C2712 C2713 1.370 . S
C2712 C2714 1.363 . S
C2712 H2728 0.931 . S
C2713 C2712 1.370 . S
C2713 C2717 1.408 1_565 S
C2714 C2712 1.363 . S
C2714 C2715 1.370 . S
C2714 C2718 1.524 . S
C2715 C2707 1.503 . S
C2715 C2714 1.370 . S
C2715 C2716 1.404 . S
C2716 C2715 1.404 . S
C2716 C2717 1.407 1_565 S
C2716 C2719 1.534 1_565 S
C2717 C2713 1.408 1_545 S
C2717 C2716 1.407 1_545 S
C2717 H2729 0.930 . S
C2718 C2714 1.524 . S
C2718 H2730 0.956 . S
C2718 H2731 0.961 . S
C2718 H2732 0.961 . S
C2719 C2716 1.534 1_545 S
C2719 H2733 0.958 1_545 S
C2719 H2734 0.961 . S
C2719 H2735 0.960 . S
H2720 C2704 0.931 . S
H2721 C2709 0.929 . S
H2722 C2710 0.960 . S
H2723 C2710 0.962 . S
H2724 C2710 0.960 . S
H2725 C2711 0.961 . S
H2726 C2711 0.961 . S
H2727 C2711 0.961 . S
H2728 C2712 0.931 . S
H2729 C2717 0.930 . S
H2730 C2718 0.956 . S
H2731 C2718 0.961 . S
H2732 C2718 0.961 . S
H2733 C2719 0.958 1_565 S
H2734 C2719 0.961 . S
H2735 C2719 0.960 . S
C2736 C2737 1.381 1_565 S
C2736 C2738 1.394 . S
C2736 H2752 0.931 . S
C2737 C2736 1.381 1_545 S
C2737 C2741 1.378 . S
C2738 C2736 1.394 . S
C2738 C2739 1.369 1_565 S
C2738 C2742 1.531 . S
C2739 C2738 1.369 1_545 S
C2739 C2740 1.410 . S
C2739 C2747 1.503 . S
C2740 C2739 1.410 . S
C2740 C2741 1.392 . S
C2740 C2743 1.511 . S
C2741 C2737 1.378 . S
C2741 C2740 1.392 . S
C2741 H2753 0.929 . S
C2742 C2738 1.531 . S
C2742 H2754 0.960 . S
C2742 H2755 0.962 1_565 S
C2742 H2756 0.960 . S
C2743 C2740 1.511 . S
C2743 H2757 0.961 . S
C2743 H2758 0.961 . S
C2743 H2759 0.961 1_545 S
C2744 C2745 1.370 . S
C2744 C2746 1.363 . S
C2744 H2760 0.931 . S
C2745 C2744 1.370 . S
C2745 C2749 1.408 1_545 S
C2746 C2744 1.363 . S
C2746 C2747 1.370 . S
C2746 C2750 1.524 . S
C2747 C2739 1.503 . S
C2747 C2746 1.370 . S
C2747 C2748 1.403 1_545 S
C2748 C2747 1.403 1_565 S
C2748 C2749 1.404 . S
C2748 C2751 1.539 . S
C2749 C2745 1.408 1_565 S
C2749 C2748 1.404 . S
C2749 H2761 0.930 . S
C2750 C2746 1.524 . S
C2750 H2762 0.956 . S
C2750 H2763 0.961 . S
C2750 H2764 0.961 . S
C2751 C2748 1.539 . S
C2751 H2765 0.958 . S
C2751 H2766 0.961 . S
C2751 H2767 0.960 . S
H2752 C2736 0.931 . S
H2753 C2741 0.929 . S
H2754 C2742 0.960 . S
H2755 C2742 0.962 1_545 S
H2756 C2742 0.960 . S
H2757 C2743 0.961 . S
H2758 C2743 0.961 . S
H2759 C2743 0.961 1_565 S
H2760 C2744 0.931 . S
H2761 C2749 0.930 . S
H2762 C2750 0.956 . S
H2763 C2750 0.961 . S
H2764 C2750 0.961 . S
H2765 C2751 0.958 . S
H2766 C2751 0.961 . S
H2767 C2751 0.960 . S
C2768 C2769 1.392 . S
C2768 C2770 1.398 . S
C2768 H2784 0.925 1_545 S
C2769 C2768 1.392 . S
C2769 C2773 1.376 . S
C2770 C2768 1.398 . S
C2770 C2771 1.370 . S
C2770 C2774 1.530 1_545 S
C2771 C2770 1.370 . S
C2771 C2772 1.410 . S
C2771 C2779 1.500 . S
C2772 C2771 1.410 . S
C2772 C2773 1.392 . S
C2772 C2775 1.511 . S
C2773 C2769 1.376 . S
C2773 C2772 1.392 . S
C2773 H2785 0.929 . S
C2774 C2770 1.530 1_565 S
C2774 H2786 0.960 1_565 S
C2774 H2787 0.962 . S
C2774 H2788 0.960 1_565 S
C2775 C2772 1.511 . S
C2775 H2789 0.961 . S
C2775 H2790 0.961 . S
C2775 H2791 0.961 . S
C2776 C2777 1.370 . S
C2776 C2778 1.363 . S
C2776 H2792 0.931 . S
C2777 C2776 1.370 . S
C2777 C2781 1.408 1_565 S
C2778 C2776 1.363 . S
C2778 C2779 1.342 1_565 S
C2778 C2782 1.524 . S
C2779 C2771 1.500 . S
C2779 C2778 1.342 1_545 S
C2779 C2780 1.435 . S
C2780 C2779 1.435 . S
C2780 C2781 1.404 . S
C2780 C2783 1.539 . S
C2781 C2777 1.408 1_545 S
C2781 C2780 1.404 . S
C2781 H2793 0.930 . S
C2782 C2778 1.524 . S
C2782 H2794 0.956 . S
C2782 H2795 0.961 . S
C2782 H2796 0.961 . S
C2783 C2780 1.539 . S
C2783 H2797 0.958 . S
C2783 H2798 0.961 . S
C2783 H2799 0.960 . S
H2784 C2768 0.925 1_565 S
H2785 C2773 0.929 . S
H2786 C2774 0.960 1_545 S
H2787 C2774 0.962 . S
H2788 C2774 0.960 1_545 S
H2789 C2775 0.961 . S
H2790 C2775 0.961 . S
H2791 C2775 0.961 . S
H2792 C2776 0.931 . S
H2793 C2781 0.930 . S
H2794 C2782 0.956 . S
H2795 C2782 0.961 . S
H2796 C2782 0.961 . S
H2797 C2783 0.958 . S
H2798 C2783 0.961 . S
H2799 C2783 0.960 . S
C2800 C2801 1.391 . S
C2800 C2802 1.394 . S
C2800 H2816 0.931 . S
C2801 C2800 1.391 . S
C2801 C2805 1.376 1_545 S
C2802 C2800 1.394 . S
C2802 C2803 1.369 . S
C2802 C2806 1.531 . S
C2803 C2802 1.369 . S
C2803 C2804 1.410 1_545 S
C2803 C2811 1.503 . S
C2804 C2803 1.410 1_565 S
C2804 C2805 1.392 . S
C2804 C2807 1.511 . S
C2805 C2801 1.376 1_565 S
C2805 C2804 1.392 . S
C2805 H2817 0.929 . S
C2806 C2802 1.531 . S
C2806 H2818 0.960 . S
C2806 H2819 0.962 . S
C2806 H2820 0.960 . S
C2807 C2804 1.511 . S
C2807 H2821 0.961 . S
C2807 H2822 0.961 . S
C2807 H2823 0.977 . S
C2808 C2809 1.370 . S
C2808 C2810 1.363 . S
C2808 H2824 0.931 . S
C2809 C2808 1.370 . S
C2809 C2813 1.408 1_565 S
C2810 C2808 1.363 . S
C2810 C2811 1.370 1_565 S
C2810 C2814 1.524 . S
C2811 C2803 1.503 . S
C2811 C2810 1.370 1_545 S
C2811 C2812 1.403 . S
C2812 C2811 1.403 . S
C2812 C2813 1.404 . S
C2812 C2815 1.539 . S
C2813 C2809 1.408 1_545 S
C2813 C2812 1.404 . S
C2813 H2825 0.930 . S
C2814 C2810 1.524 . S
C2814 H2826 0.956 . S
C2814 H2827 0.961 . S
C2814 H2828 0.961 . S
C2815 C2812 1.539 . S
C2815 H2829 0.958 . S
C2815 H2830 0.961 . S
C2815 H2831 0.960 . S
H2816 C2800 0.931 . S
H2817 C2805 0.929 . S
H2818 C2806 0.960 . S
H2819 C2806 0.962 . S
H2820 C2806 0.960 . S
H2821 C2807 0.961 . S
H2822 C2807 0.961 . S
H2823 C2807 0.977 . S
H2824 C2808 0.931 . S
H2825 C2813 0.930 . S
H2826 C2814 0.956 . S
H2827 C2814 0.961 . S
H2828 C2814 0.961 . S
H2829 C2815 0.958 . S
H2830 C2815 0.961 . S
H2831 C2815 0.960 . S
C529 C316 1.836 . S
C537 C5 1.811 . S
C561 C327 1.891 . S
C569 C19 1.887 . S
C593 C335 1.743 . S
C601 C30 1.739 . S
C625 C41 1.745 . S
C633 C349 1.747 . S
C657 C272 1.795 . S
C665 C49 1.803 . S
C689 C283 1.735 . S
C697 C63 1.756 . S
C721 C291 1.742 . S
C729 C74 1.760 . S
C753 C85 1.896 . S
C761 C305 1.901 . S
C785 C426 1.784 . S
C793 C93 1.738 . S
C817 C434 1.395 . S
C825 C107 1.831 . S
C849 C401 1.758 . S
C857 C118 1.808 . S
C881 C415 1.698 . S
C889 C126 1.291 . S
C913 C137 1.701 . S
C921 C382 1.771 . S
C945 C148 1.235 . S
C953 C393 1.710 . S
C977 C357 1.760 . S
C985 C162 1.789 . S
C1009 C173 1.831 . S
C1017 C368 1.382 . S
C1041 C184 1.763 . S
C1049 C503 1.779 . S
C1073 C195 1.771 . S
C1081 C481 1.802 . S
C1105 C206 1.623 . S
C1113 C489 1.232 . S
C1137 C459 1.792 . S
C1145 C217 1.794 . S
C1169 C225 1.528 . S
C1177 C470 1.885 . S
C1201 C239 1.780 . S
C1209 C448 1.799 . S
C1233 C522 1.267 . S
C1241 C250 1.642 . S
C1265 C258 1.534 . S
C1273 C514 1.889 . S
C1297 C170 1.751 . S
C1305 C8 1.852 . S
C1329 C16 1.927 . S
C1337 C140 2.011 . S
C1361 C27 1.325 . S
C1369 C151 1.734 . S
C1393 C38 1.796 . S
C1401 C159 1.425 . S
C1425 C104 1.785 . S
C1433 C52 1.857 . S
C1457 C60 1.733 . S
C1465 C115 1.377 . S
C1489 C71 1.351 . S
C1497 C129 1.719 . S
C1521 C82 1.923 . S
C1529 C96 2.010 . S
C1553 C228 1.757 . S
C1561 C181 1.468 . S
C1585 C192 1.407 . S
C1593 C261 1.779 . S
C1617 C203 1.595 . S
C1625 C236 1.294 . S
C1649 C247 1.612 . S
C1657 C214 1.303 . S
C1681 C269 1.361 . S
C1689 C437 1.730 . S
C1713 C404 1.761 . S
C1721 C280 1.630 . S
C1745 C294 1.734 . S
C1753 C412 1.574 1_545 S
C1777 C302 1.533 . S
C1785 C423 1.219 . S
C1809 C313 1.358 . S
C1817 C371 1.718 . S
C1841 C379 1.235 . S
C1849 C324 1.489 . S
C1873 C390 1.592 1_565 S
C1881 C338 1.725 . S
C1905 C346 1.592 . S
C1913 C360 1.773 . S
C1937 C492 1.654 . S
C1945 C445 1.361 . S
C1969 C525 1.717 . S
C1977 C456 1.362 . S
C2001 C500 1.525 . S
C2009 C467 1.770 1_455 S
C2033 C511 1.799 1_455 S
C2041 C478 1.461 . S
C2065 C227 1.561 . S
C2073 C7 1.638 . S
C2097 C194 1.603 . S
C2105 C18 1.701 . S
C2129 C29 1.356 . S
C2137 C205 1.458 . S
C2161 C216 1.618 . S
C2169 C40 1.675 . S
C2193 C51 1.631 . S
C2201 C260 1.530 . S
C2225 C62 1.696 . S
C2233 C238 1.590 . S
C2257 C73 1.319 . S
C2265 C249 1.463 . S
C2289 C84 1.707 . S
C2297 C183 1.587 . S
C2321 C95 1.708 . S
C2329 C172 1.729 . S
C2353 C106 1.720 . S
C2361 C139 1.722 . S
C2385 C150 1.478 . S
C2393 C117 1.481 . S
C2417 C128 1.559 . S
C2425 C161 1.516 . S
C2449 C491 1.538 . S
C2457 C271 1.558 . S
C2481 C282 1.643 . S
C2489 C458 1.538 . S
C2513 C293 1.727 . S
C2521 C469 1.724 . S
C2545 C480 1.694 . S
C2553 C304 1.796 . S
C2577 C524 1.555 . S
C2585 C315 1.553 . S
C2609 C502 1.679 . S
C2617 C326 1.790 . S
C2641 C337 1.718 . S
C2649 C513 1.710 . S
C2673 C348 1.677 . S
C2681 C447 1.568 . S
C2705 C436 1.448 . S
C2713 C359 1.623 . S
C2737 C403 1.640 . S
C2745 C370 1.482 . S
C2769 C381 1.439 1_545 S
C2777 C414 1.530 . S
C2801 C392 1.530 . S
C2809 C425 1.394 1_565 S
