# Generated by pormake.
# Topology ske, (6)-cn, num edge types: 1
# Building blocks:
#     Node 0, Type 0, BuildingBlock: CUKXOW_clean_sbu_0, # of connection points: 6
#     Node 1, Type 0, BuildingBlock: CUKXOW_clean_sbu_0, # of connection points: 6
#     Node 2, Type 0, BuildingBlock: CUKXOW_clean_sbu_0, # of connection points: 6
#     Node 3, Type 0, BuildingBlock: CUKXOW_clean_sbu_0, # of connection points: 6
#     Node 4, Type 0, BuildingBlock: CUKXOW_clean_sbu_0, # of connection points: 6
#     Node 5, Type 0, BuildingBlock: CUKXOW_clean_sbu_0, # of connection points: 6
#     Node 6, Type 0, BuildingBlock: CUKXOW_clean_sbu_0, # of connection points: 6
#     Node 7, Type 0, BuildingBlock: CUKXOW_clean_sbu_0, # of connection points: 6
#     Edge 8, Type (0, 0), BuildingBlock: XUDNAN_clean_linker_2, # of connection points: 2
#     Edge 9, Type (0, 0), BuildingBlock: XUDNAN_clean_linker_2, # of connection points: 2
#     Edge 10, Type (0, 0), BuildingBlock: XUDNAN_clean_linker_2, # of connection points: 2
#     Edge 11, Type (0, 0), BuildingBlock: XUDNAN_clean_linker_2, # of connection points: 2
#     Edge 12, Type (0, 0), BuildingBlock: XUDNAN_clean_linker_2, # of connection points: 2
#     Edge 13, Type (0, 0), BuildingBlock: XUDNAN_clean_linker_2, # of connection points: 2
#     Edge 14, Type (0, 0), BuildingBlock: XUDNAN_clean_linker_2, # of connection points: 2
#     Edge 15, Type (0, 0), BuildingBlock: XUDNAN_clean_linker_2, # of connection points: 2
#     Edge 16, Type (0, 0), BuildingBlock: XUDNAN_clean_linker_2, # of connection points: 2
#     Edge 17, Type (0, 0), BuildingBlock: XUDNAN_clean_linker_2, # of connection points: 2
#     Edge 18, Type (0, 0), BuildingBlock: XUDNAN_clean_linker_2, # of connection points: 2
#     Edge 19, Type (0, 0), BuildingBlock: XUDNAN_clean_linker_2, # of connection points: 2
#     Edge 20, Type (0, 0), BuildingBlock: XUDNAN_clean_linker_2, # of connection points: 2
#     Edge 21, Type (0, 0), BuildingBlock: XUDNAN_clean_linker_2, # of connection points: 2
#     Edge 22, Type (0, 0), BuildingBlock: XUDNAN_clean_linker_2, # of connection points: 2
#     Edge 23, Type (0, 0), BuildingBlock: XUDNAN_clean_linker_2, # of connection points: 2
#     Edge 24, Type (0, 0), BuildingBlock: XUDNAN_clean_linker_2, # of connection points: 2
#     Edge 25, Type (0, 0), BuildingBlock: XUDNAN_clean_linker_2, # of connection points: 2
#     Edge 26, Type (0, 0), BuildingBlock: XUDNAN_clean_linker_2, # of connection points: 2
#     Edge 27, Type (0, 0), BuildingBlock: XUDNAN_clean_linker_2, # of connection points: 2
#     Edge 28, Type (0, 0), BuildingBlock: XUDNAN_clean_linker_2, # of connection points: 2
#     Edge 29, Type (0, 0), BuildingBlock: XUDNAN_clean_linker_2, # of connection points: 2
#     Edge 30, Type (0, 0), BuildingBlock: XUDNAN_clean_linker_2, # of connection points: 2
#     Edge 31, Type (0, 0), BuildingBlock: XUDNAN_clean_linker_2, # of connection points: 2
# Relax obj value: 0.167
# Max RMSD: 0.209
# Mean RMSD: 0.209
data_MOF--net-ske--node1-CUKXOW_clean_sbu_0--edge1-XUDNAN_clean_linker_2
_symmetry_space_group_name_H-M    P1
_symmetry_Int_Tables_number       1
_symmetry_cell_setting            triclinic
loop_
_symmetry_equiv_pos_as_xyz
'x, y, z'
_cell_length_a     52.214283
_cell_length_b     30.628737
_cell_length_c     17.923085
_cell_angle_alpha  96.906792
_cell_angle_beta   90.313862
_cell_angle_gamma 89.797543
loop_
_atom_site_label
_atom_site_type_symbol
_atom_site_fract_x
_atom_site_fract_y
_atom_site_fract_z
_atom_type_partial_charge
Tb0 Tb 0.18099 0.25002 0.43921 0.0
C1 C 0.17199 0.15833 0.50605 0.0
Tb2 Tb 0.15726 0.24922 0.59589 0.0
O3 O 0.22207 0.25117 0.4742 0.0
O4 O 0.19377 0.24725 0.55094 0.0
O5 O 0.17769 0.17968 0.44752 0.0
C6 C 0.1582 0.26018 0.74412 0.0
O7 O 0.16448 0.17851 0.57264 0.0
C8 C 0.12068 0.25219 0.45092 0.0
C9 C 0.16501 0.3404 0.53554 0.0
O10 O 0.13764 0.24645 0.70435 0.0
O11 O 0.17678 0.26857 0.69957 0.0
O12 O 0.1423 0.25196 0.48526 0.0
O13 O 0.14267 0.25196 0.48566 0.0
O14 O 0.15996 0.32011 0.59552 0.0
O15 O 0.17176 0.3196 0.46916 0.0
C16 C 0.18066 0.2502 0.28978 0.0
O17 O 0.19743 0.26974 0.33601 0.0
O18 O 0.16483 0.22867 0.32704 0.0
C19 C 0.21767 0.24834 0.545 0.0
Tb20 Tb 0.89667 0.24794 0.60924 0.0
C21 C 0.89684 0.33984 0.54144 0.0
Tb22 Tb 0.88301 0.25027 0.45369 0.0
O23 O 0.93322 0.21839 0.57717 0.0
O24 O 0.91826 0.26454 0.51497 0.0
O25 O 0.8944 0.3206 0.60392 0.0
C26 C 0.8835 0.24179 0.30245 0.0
O27 O 0.89743 0.31607 0.47522 0.0
C28 C 0.84322 0.25616 0.54798 0.0
C29 C 0.88944 0.15742 0.51083 0.0
O30 O 0.8726 0.2736 0.34519 0.0
O31 O 0.89309 0.21441 0.34472 0.0
O32 O 0.84441 0.27556 0.48768 0.0
O33 O 0.86265 0.23224 0.54936 0.0
O34 O 0.89069 0.18026 0.45282 0.0
O35 O 0.88726 0.17782 0.58026 0.0
C36 C 0.90051 0.25462 0.75918 0.0
O37 O 0.91632 0.23446 0.71153 0.0
O38 O 0.88205 0.27099 0.72244 0.0
C39 C 0.93763 0.24024 0.52126 0.0
Tb40 Tb 0.17601 0.75549 0.55706 0.0
C41 C 0.16717 0.83429 0.47272 0.0
Tb42 Tb 0.1603 0.73513 0.39076 0.0
O43 O 0.21308 0.78104 0.52271 0.0
O44 O 0.19462 0.73221 0.45312 0.0
O45 O 0.16456 0.82092 0.53953 0.0
C46 C 0.16419 0.72691 0.24188 0.0
O47 O 0.16973 0.80603 0.41033 0.0
C48 C 0.11852 0.74304 0.47349 0.0
C49 C 0.16536 0.65695 0.48763 0.0
O50 O 0.15847 0.76291 0.28408 0.0
O51 O 0.16749 0.69543 0.28335 0.0
O52 O 0.11834 0.73297 0.40104 0.0
O53 O 0.1416 0.74706 0.49442 0.0
O54 O 0.16536 0.66762 0.41788 0.0
O55 O 0.16532 0.68684 0.54744 0.0
C56 C 0.18057 0.75182 0.70438 0.0
O57 O 0.19396 0.72942 0.65231 0.0
O58 O 0.16503 0.77783 0.67379 0.0
C59 C 0.21361 0.75767 0.45716 0.0
Tb60 Tb 0.90082 0.73463 0.387 0.0
C61 C 0.89704 0.65147 0.47224 0.0
Tb62 Tb 0.88337 0.74809 0.55288 0.0
O63 O 0.9426 0.73239 0.40353 0.0
O64 O 0.91798 0.74384 0.49305 0.0
O65 O 0.89983 0.66599 0.40566 0.0
C66 C 0.88593 0.75344 0.70121 0.0
O67 O 0.89199 0.67745 0.5356 0.0
C68 C 0.84633 0.75083 0.45109 0.0
C69 C 0.89096 0.8312 0.47277 0.0
O70 O 0.87052 0.7273 0.6598 0.0
O71 O 0.89908 0.7766 0.65934 0.0
O72 O 0.84535 0.77141 0.51902 0.0
O73 O 0.86639 0.72779 0.44607 0.0
O74 O 0.89183 0.81613 0.53878 0.0
O75 O 0.88964 0.80425 0.40894 0.0
C76 C 0.90194 0.73918 0.241 0.0
O77 O 0.91207 0.76705 0.29248 0.0
O78 O 0.89108 0.70744 0.27129 0.0
C79 C 0.94138 0.74087 0.47604 0.0
Tb80 Tb 0.67802 0.74441 0.9435 0.0
C81 C 0.67159 0.65486 0.01196 0.0
Tb82 Tb 0.66283 0.7488 0.10601 0.0
O83 O 0.71618 0.77022 0.98195 0.0
O84 O 0.69624 0.73074 0.04564 0.0
O85 O 0.67481 0.67323 0.94892 0.0
C86 C 0.66679 0.75916 0.2545 0.0
O87 O 0.6683 0.67837 0.0786 0.0
C88 C 0.62032 0.75515 0.02932 0.0
C89 C 0.66622 0.83542 0.02913 0.0
O90 O 0.65426 0.72771 0.21534 0.0
O91 O 0.67734 0.78424 0.2101 0.0
O92 O 0.62178 0.75484 0.10141 0.0
O93 O 0.64268 0.75091 1.00217 0.0
O94 O 0.67102 0.81715 0.0911 0.0
O95 O 0.66276 0.81091 0.96425 0.0
C96 C 0.6819 0.74521 0.79517 0.0
O97 O 0.69494 0.76905 0.84625 0.0
O98 O 0.66724 0.71888 0.82729 0.0
C99 C 0.71619 0.75305 0.04449 0.0
Tb100 Tb 0.39892 0.74625 0.10889 0.0
C101 C 0.39733 0.83556 0.03422 0.0
Tb102 Tb 0.38087 0.74502 0.94563 0.0
O103 O 0.43985 0.74555 0.09865 0.0
O104 O 0.41702 0.74493 1.00254 0.0
O105 O 0.3989 0.8166 0.09717 0.0
C106 C 0.3772 0.75156 0.79909 0.0
O107 O 0.39314 0.81316 0.96742 0.0
C108 C 0.34496 0.74062 0.05152 0.0
C109 C 0.39046 0.65577 0.00641 0.0
O110 O 0.36509 0.77603 0.8518 0.0
O111 O 0.39079 0.72253 0.82869 0.0
O112 O 0.34197 0.72363 0.98186 0.0
O113 O 0.36558 0.76096 0.05364 0.0
O114 O 0.39138 0.67738 0.94706 0.0
O115 O 0.38864 0.67652 0.07591 0.0
C116 C 0.39495 0.75731 0.25757 0.0
O117 O 0.40453 0.72265 0.21872 0.0
O118 O 0.3876 0.78501 0.21287 0.0
C119 C 0.44004 0.74608 0.02628 0.0
Tb120 Tb 0.67667 0.25258 0.05506 0.0
C121 C 0.66416 0.33241 0.97934 0.0
Tb122 Tb 0.65975 0.23622 0.89088 0.0
O123 O 0.7145 0.27591 0.0212 0.0
O124 O 0.69441 0.22975 0.9502 0.0
O125 O 0.65936 0.31427 0.04071 0.0
C126 C 0.66199 0.2294 0.74228 0.0
O127 O 0.66839 0.30769 0.91415 0.0
C128 C 0.61839 0.24683 0.97487 0.0
C129 C 0.66862 0.15402 0.98122 0.0
O130 O 0.66593 0.26527 0.78686 0.0
O131 O 0.65702 0.19748 0.78126 0.0
O132 O 0.61785 0.23908 0.90216 0.0
O133 O 0.64156 0.24835 0.99542 0.0
O134 O 0.66365 0.16687 0.91407 0.0
O135 O 0.67438 0.1822 0.04047 0.0
C136 C 0.67476 0.24414 0.20131 0.0
O137 O 0.66702 0.21605 0.14661 0.0
O138 O 0.6844 0.27806 0.17418 0.0
C139 C 0.7141 0.25353 0.95466 0.0
Tb140 Tb 0.39993 0.23048 0.88975 0.0
C141 C 0.39265 0.15266 0.98617 0.0
Tb142 Tb 0.38411 0.25198 0.05649 0.0
O143 O 0.4419 0.22916 0.90239 0.0
O144 O 0.41821 0.24375 0.99368 0.0
O145 O 0.39257 0.16353 0.91633 0.0
C146 C 0.38637 0.25768 0.20541 0.0
O147 O 0.39286 0.18235 0.04651 0.0
C148 C 0.34679 0.25288 0.95469 0.0
C149 C 0.39438 0.33083 0.97076 0.0
O150 O 0.3699 0.23378 0.16392 0.0
O151 O 0.40061 0.27899 0.16321 0.0
O152 O 0.3468 0.27697 0.01976 0.0
O153 O 0.36604 0.22799 0.9525 0.0
O154 O 0.39404 0.31787 0.03818 0.0
O155 O 0.39373 0.30254 0.90808 0.0
C156 C 0.39653 0.23232 0.74264 0.0
O157 O 0.39288 0.26529 0.79356 0.0
O158 O 0.40195 0.19728 0.77414 0.0
C159 C 0.44139 0.23993 0.97465 0.0
H160 H 0.23467 0.19207 0.6458 0.0
H161 H 0.24484 0.3227 0.58127 0.0
H162 H 0.27898 0.33734 0.67719 0.0
H163 H 0.2486 0.21885 0.84781 0.0
H164 H 0.26535 0.16797 0.85358 0.0
H165 H 0.24027 0.1706 0.78457 0.0
H166 H 0.27325 0.14132 0.68148 0.0
H167 H 0.29819 0.14115 0.75134 0.0
H168 H 0.30238 0.17164 0.67229 0.0
H169 H 0.31085 0.33935 0.78325 0.0
H170 H 0.34025 0.32702 0.88751 0.0
H171 H 0.31381 0.19249 0.87712 0.0
C172 C 0.24395 0.22388 0.6528 0.0
C173 C 0.23685 0.25669 0.60691 0.0
C174 C 0.24979 0.29744 0.61634 0.0
C175 C 0.26924 0.30597 0.67063 0.0
C176 C 0.27607 0.27305 0.71452 0.0
C177 C 0.26403 0.23259 0.7059 0.0
C178 C 0.27612 0.20239 0.75824 0.0
C179 C 0.25637 0.18904 0.81432 0.0
C180 C 0.28821 0.16172 0.71312 0.0
C181 C 0.29649 0.23246 0.79821 0.0
C182 C 0.29585 0.27321 0.77243 0.0
C183 C 0.31165 0.30746 0.80341 0.0
C184 C 0.32827 0.30024 0.86279 0.0
C185 C 0.3295 0.25885 0.89008 0.0
C186 C 0.31356 0.22433 0.85661 0.0
H187 H 0.74666 0.19336 0.87337 0.0
H188 H 0.72159 0.32927 0.89385 0.0
H189 H 0.75064 0.34303 0.79072 0.0
H190 H 0.81345 0.21724 0.84271 0.0
H191 H 0.81914 0.16897 0.77681 0.0
H192 H 0.79491 0.16814 0.84781 0.0
H193 H 0.7611 0.14472 0.74504 0.0
H194 H 0.78526 0.14542 0.67377 0.0
H195 H 0.75647 0.17764 0.66914 0.0
H196 H 0.78126 0.3423 0.68349 0.0
H197 H 0.8148 0.32942 0.58661 0.0
H198 H 0.82512 0.19646 0.64175 0.0
C199 C 0.74723 0.22587 0.8555 0.0
C200 C 0.73159 0.2603 0.89122 0.0
C201 C 0.73322 0.3025 0.86725 0.0
C202 C 0.74967 0.31056 0.80854 0.0
C203 C 0.76499 0.27633 0.7749 0.0
C204 C 0.76427 0.23488 0.79796 0.0
C205 C 0.78408 0.2049 0.75482 0.0
C206 C 0.80408 0.18888 0.80876 0.0
C207 C 0.77094 0.16586 0.70792 0.0
C208 C 0.79597 0.23611 0.70423 0.0
C209 C 0.7842 0.27683 0.71607 0.0
C210 C 0.79076 0.31068 0.67422 0.0
C211 C 0.80981 0.30304 0.61899 0.0
C212 C 0.82272 0.26218 0.6065 0.0
C213 C 0.81577 0.22827 0.65035 0.0
H214 H 0.30601 0.68563 0.09687 0.0
H215 H 0.34018 0.81481 0.14745 0.0
H216 H 0.31064 0.8319 0.25313 0.0
H217 H 0.24043 0.71496 0.14295 0.0
H218 H 0.23383 0.6673 0.18962 0.0
H219 H 0.25767 0.66435 0.11685 0.0
H220 H 0.29145 0.63838 0.20832 0.0
H221 H 0.26767 0.64113 0.28133 0.0
H222 H 0.29722 0.6711 0.29721 0.0
H223 H 0.27784 0.83656 0.35335 0.0
H224 H 0.24383 0.82777 0.44505 0.0
H225 H 0.22882 0.69606 0.3359 0.0
C226 C 0.30691 0.71768 0.12957 0.0
C227 C 0.32526 0.74919 0.11236 0.0
C228 C 0.3263 0.79019 0.15848 0.0
C229 C 0.30954 0.80031 0.21902 0.0
C230 C 0.29172 0.76896 0.23452 0.0
C231 C 0.29033 0.72828 0.1919 0.0
C232 C 0.26985 0.7003 0.22406 0.0
C233 C 0.24922 0.68589 0.16483 0.0
C234 C 0.28228 0.66035 0.25451 0.0
C235 C 0.25913 0.73253 0.28839 0.0
C236 C 0.27254 0.7716 0.29378 0.0
C237 C 0.26718 0.80614 0.3496 0.0
C238 C 0.24777 0.80083 0.40167 0.0
C239 C 0.23346 0.76146 0.39799 0.0
C240 C 0.23917 0.72683 0.3399 0.0
H241 H 0.73632 0.69233 0.13325 0.0
H242 H 0.74095 0.82876 0.09263 0.0
H243 H 0.77403 0.84209 0.19182 0.0
H244 H 0.74784 0.7076 0.3354 0.0
H245 H 0.76821 0.65997 0.33567 0.0
H246 H 0.74368 0.66099 0.26482 0.0
H247 H 0.77764 0.64448 0.16093 0.0
H248 H 0.8023 0.64344 0.23142 0.0
H249 H 0.80517 0.67975 0.15989 0.0
H250 H 0.80516 0.84226 0.29792 0.0
H251 H 0.83553 0.82793 0.39844 0.0
H252 H 0.816 0.68954 0.3639 0.0
C253 C 0.74428 0.72502 0.14577 0.0
C254 C 0.73595 0.75978 0.10535 0.0
C255 C 0.74705 0.8018 0.12254 0.0
C256 C 0.76582 0.80966 0.17902 0.0
C257 C 0.7739 0.7749 0.21715 0.0
C258 C 0.76382 0.73315 0.20082 0.0
C259 C 0.77726 0.7013 0.24781 0.0
C260 C 0.7581 0.6813 0.29896 0.0
C261 C 0.79144 0.66511 0.19698 0.0
C262 C 0.79609 0.73199 0.29372 0.0
C263 C 0.79346 0.77435 0.2754 0.0
C264 C 0.80762 0.80915 0.31212 0.0
C265 C 0.82485 0.80075 0.36923 0.0
C266 C 0.82842 0.75773 0.38838 0.0
C267 C 0.81396 0.72272 0.34953 0.0
H268 H 0.15755 0.90475 0.58219 0.0
H269 H 0.18475 0.87204 0.35337 0.0
H270 H 0.19125 0.95039 0.34343 0.0
H271 H 0.1225 0.00029 0.55067 0.0
H272 H 0.13087 0.03241 0.63831 0.0
H273 H 0.1301 0.97331 0.6321 0.0
H274 H 0.1769 0.97247 0.67965 0.0
H275 H 0.17778 0.03165 0.68639 0.0
H276 H 0.20142 -0.00073 0.63142 0.0
H277 H 0.19322 0.02991 0.35322 0.0
H278 H 0.18965 0.10956 0.38018 0.0
H279 H 0.16045 0.09583 0.60317 0.0
C280 C 0.16495 0.91416 0.53012 0.0
C281 C 0.17042 0.88203 0.46812 0.0
C282 C 0.18009 0.89576 0.40119 0.0
C283 C 0.18407 0.94028 0.39518 0.0
C284 C 0.1783 0.97097 0.45652 0.0
C285 C 0.16897 0.95888 0.5229 0.0
C286 C 0.16341 -0.00051 0.57861 0.0
C287 C 0.13503 0.00148 0.60121 0.0
C288 C 0.18092 0.00078 0.64812 0.0
C289 C 0.17019 0.03603 0.53154 0.0
C290 C 0.17916 0.0183 0.46202 0.0
C291 C 0.18632 0.04433 0.4075 0.0
C292 C 0.18409 0.08984 0.42362 0.0
C293 C 0.1746 0.10952 0.49384 0.0
C294 C 0.16776 0.08203 0.54897 0.0
H295 H 0.87312 0.41532 0.61144 0.0
H296 H 0.93606 0.3686 0.46584 0.0
H297 H 0.94315 0.44344 0.43439 0.0
H298 H 0.84837 0.49003 0.49669 0.0
H299 H 0.84011 0.53284 0.57069 0.0
H300 H 0.84112 0.47638 0.58934 0.0
H301 H 0.8736 0.49649 0.69784 0.0
H302 H 0.87233 0.55318 0.68027 0.0
H303 H 0.90268 0.52492 0.67976 0.0
H304 H 0.93985 0.51943 0.40377 0.0
H305 H 0.93088 0.59748 0.392 0.0
H306 H 0.8723 0.59901 0.56313 0.0
C307 C 0.88904 0.42141 0.57569 0.0
C308 C 0.90427 0.38632 0.5418 0.0
C309 C 0.92435 0.39514 0.49293 0.0
C310 C 0.92847 0.4375 0.47433 0.0
C311 C 0.91258 0.4711 0.50587 0.0
C312 C 0.89367 0.46407 0.5569 0.0
C313 C 0.87887 0.50633 0.57995 0.0
C314 C 0.85044 0.50105 0.55784 0.0
C315 C 0.88207 0.52111 0.66449 0.0
C316 C 0.89228 0.53759 0.53325 0.0
C317 C 0.91141 0.51622 0.49019 0.0
C318 C 0.9253 0.53691 0.43837 0.0
C319 C 0.91994 0.58108 0.43158 0.0
C320 C 0.90113 0.60422 0.47713 0.0
C321 C 0.88709 0.58215 0.52853 0.0
H322 H 0.88669 0.90158 0.58809 0.0
H323 H 0.89612 0.87104 0.34647 0.0
H324 H 0.89691 0.94963 0.33348 0.0
H325 H 0.84495 0.99641 0.57896 0.0
H326 H 0.85856 0.02884 0.66 0.0
H327 H 0.859 0.96967 0.65368 0.0
H328 H 0.90814 0.97083 0.67207 0.0
H329 H 0.90784 0.03001 0.67861 0.0
H330 H 0.92782 0.99851 0.61014 0.0
H331 H 0.89663 0.02963 0.34282 0.0
H332 H 0.89513 0.10947 0.37425 0.0
H333 H 0.88559 0.09369 0.61043 0.0
C334 C 0.88894 0.91151 0.53253 0.0
C335 C 0.89125 0.87961 0.46815 0.0
C336 C 0.89413 0.89428 0.39666 0.0
C337 C 0.89467 0.93908 0.38855 0.0
C338 C 0.89225 0.96946 0.45233 0.0
C339 C 0.8894 0.95671 0.52313 0.0
C340 C 0.88693 0.99719 0.58158 0.0
C341 C 0.8608 0.99806 0.62087 0.0
C342 C 0.909 -0.00077 0.63899 0.0
C343 C 0.88894 0.03422 0.53206 0.0
C344 C 0.89199 0.01698 0.45783 0.0
C345 C 0.89423 0.04363 0.40073 0.0
C346 C 0.89331 0.08922 0.41947 0.0
C347 C 0.89015 0.1084 0.495 0.0
C348 C 0.88798 0.08027 0.55219 0.0
H349 H 0.15217 0.57944 0.39599 0.0
H350 H 0.18283 0.62933 0.61584 0.0
H351 H 0.18423 0.55492 0.65112 0.0
H352 H 0.11255 0.49488 0.46273 0.0
H353 H 0.11844 0.45432 0.38317 0.0
H354 H 0.11948 0.51202 0.37224 0.0
H355 H 0.16543 0.50269 0.31909 0.0
H356 H 0.16438 0.44493 0.32918 0.0
H357 H 0.18989 0.47856 0.37273 0.0
H358 H 0.18086 0.47744 0.668 0.0
H359 H 0.1775 0.39665 0.65876 0.0
H360 H 0.15113 0.39294 0.42794 0.0
C361 C 0.15927 0.57451 0.45123 0.0
C362 C 0.16696 0.61058 0.5034 0.0
C363 C 0.17625 0.60265 0.57517 0.0
C364 C 0.17723 0.56035 0.59603 0.0
C365 C 0.16895 0.52579 0.54468 0.0
C366 C 0.16041 0.53191 0.47345 0.0
C367 C 0.15291 0.48809 0.42985 0.0
C368 C 0.12413 0.4873 0.41088 0.0
C369 C 0.16914 0.47798 0.3585 0.0
C370 C 0.15917 0.45693 0.4875 0.0
C371 C 0.16789 0.47975 0.55373 0.0
C372 C 0.17421 0.45893 0.61635 0.0
C373 C 0.17208 0.41315 0.61085 0.0
C374 C 0.1642 0.38877 0.5428 0.0
C375 C 0.15743 0.41096 0.48051 0.0
H376 H 0.66203 0.58596 0.89808 0.0
H377 H 0.68874 0.6152 0.1288 0.0
H378 H 0.69233 0.53666 0.13943 0.0
H379 H 0.62355 0.49474 0.92947 0.0
H380 H 0.6309 0.46143 0.84231 0.0
H381 H 0.63236 0.52048 0.84801 0.0
H382 H 0.67931 0.51533 0.80191 0.0
H383 H 0.67804 0.45618 0.79603 0.0
H384 H 0.70259 0.48603 0.85167 0.0
H385 H 0.69019 0.45749 0.13173 0.0
H386 H 0.68273 0.3784 0.10533 0.0
H387 H 0.65783 0.39471 0.87851 0.0
C388 C 0.66902 0.57562 0.95018 0.0
C389 C 0.67496 0.60688 0.01272 0.0
C390 C 0.68376 0.5921 0.08034 0.0
C391 C 0.68606 0.54741 0.08694 0.0
C392 C 0.67962 0.51747 0.02537 0.0
C393 C 0.67136 0.53051 0.95808 0.0
C394 C 0.66446 0.4905 0.90269 0.0
C395 C 0.63613 0.49189 0.87925 0.0
C396 C 0.68216 0.48681 0.83399 0.0
C397 C 0.66954 0.45345 0.95039 0.0
C398 C 0.67846 0.47025 0.02068 0.0
C399 C 0.68341 0.44377 0.07673 0.0
C400 C 0.67888 0.39879 0.06114 0.0
C401 C 0.66945 0.38027 0.98994 0.0
C402 C 0.66515 0.40792 0.9332 0.0
H403 H 0.40882 0.88847 0.9238 0.0
H404 H 0.38524 0.89242 0.1567 0.0
H405 H 0.38089 0.97274 0.16552 0.0
H406 H 0.44634 0.99092 0.95465 0.0
H407 H 0.43789 0.00809 0.86499 0.0
H408 H 0.4396 0.95037 0.87557 0.0
H409 H 0.39304 0.94029 0.8264 0.0
H410 H 0.39116 0.99801 0.81611 0.0
H411 H 0.36785 0.97368 0.87224 0.0
H412 H 0.37677 0.04992 0.14989 0.0
H413 H 0.37695 0.12447 0.11531 0.0
H414 H 0.40503 0.07547 0.89265 0.0
C415 C 0.40299 0.90641 0.97678 0.0
C416 C 0.39748 0.88415 0.03986 0.0
C417 C 0.38991 0.90868 0.10811 0.0
C418 C 0.38718 0.95433 0.11351 0.0
C419 C 0.39245 0.97516 0.0505 0.0
C420 C 0.4006 0.95245 0.98368 0.0
C421 C 0.40558 0.98392 0.92564 0.0
C422 C 0.43404 0.98328 0.90394 0.0
C423 C 0.38837 0.97333 0.85599 0.0
C424 C 0.39821 0.02759 0.97014 0.0
C425 C 0.39072 0.0212 0.04188 0.0
C426 C 0.38286 0.05555 0.09424 0.0
C427 C 0.38312 0.09795 0.07374 0.0
C428 C 0.39131 0.10618 1.00134 0.0
C429 C 0.39866 0.0703 0.94829 0.0
H430 H 0.38736 0.40081 0.0833 0.0
H431 H 0.40182 0.36982 0.84405 0.0
H432 H 0.40225 0.44864 0.83069 0.0
H433 H 0.34506 0.49405 0.06532 0.0
H434 H 0.35657 0.52663 0.14913 0.0
H435 H 0.35737 0.46746 0.14257 0.0
H436 H 0.40595 0.46991 0.17136 0.0
H437 H 0.4053 0.52906 0.17797 0.0
H438 H 0.42701 0.49813 0.11383 0.0
H439 H 0.40167 0.52845 0.84046 0.0
H440 H 0.39944 0.608 0.87159 0.0
H441 H 0.38479 0.59219 0.10564 0.0
C442 C 0.39071 0.41065 0.02815 0.0
C443 C 0.39467 0.37882 0.96453 0.0
C444 C 0.39874 0.39322 0.89349 0.0
C445 C 0.39904 0.43803 0.88531 0.0
C446 C 0.39511 0.46835 0.94858 0.0
C447 C 0.39091 0.45565 0.01874 0.0
C448 C 0.3869 0.49585 0.07674 0.0
C449 C 0.35987 0.49598 0.11041 0.0
C450 C 0.40753 0.49836 0.13862 0.0
C451 C 0.38992 0.53287 0.02787 0.0
C452 C 0.39455 0.51575 0.95427 0.0
C453 C 0.39799 0.54236 0.89781 0.0
C454 C 0.39663 0.58781 0.91648 0.0
C455 C 0.39182 0.6069 0.99134 0.0
C456 C 0.38849 0.57883 0.048 0.0
H457 H 0.65709 0.07616 0.88419 0.0
H458 H 0.67908 0.12442 0.11441 0.0
H459 H 0.67849 0.05055 0.1478 0.0
H460 H 0.61491 0.98793 0.9378 0.0
H461 H 0.62408 0.94837 0.85979 0.0
H462 H 0.6247 0.00633 0.85051 0.0
H463 H 0.67227 -0.00026 0.8113 0.0
H464 H 0.67181 0.94183 0.8206 0.0
H465 H 0.69514 0.97702 0.8719 0.0
H466 H 0.67701 0.9741 0.16145 0.0
H467 H 0.67576 0.89383 0.15204 0.0
H468 H 0.65564 0.88767 0.9151 0.0
C469 C 0.66179 0.07103 0.9414 0.0
C470 C 0.6682 0.107 0.99594 0.0
C471 C 0.6741 0.09841 0.07047 0.0
C472 C 0.67379 0.05612 0.09083 0.0
C473 C 0.66757 0.02177 0.03663 0.0
C474 C 0.66168 0.02809 0.96341 0.0
C475 C 0.65627 0.9838 0.91739 0.0
C476 C 0.62832 0.98149 0.88973 0.0
C477 C 0.675 0.97509 0.85139 0.0
C478 C 0.66092 0.95236 0.97625 0.0
C479 C 0.667 0.97563 0.04464 0.0
C480 C 0.67221 0.95521 0.1083 0.0
C481 C 0.67144 0.90943 0.10232 0.0
C482 C 0.66562 0.88414 0.03302 0.0
C483 C 0.66014 0.90603 0.969 0.0
H484 H 0.14034 0.26714 0.19597 0.0
H485 H 0.22127 0.23496 0.19932 0.0
H486 H 0.22299 0.2345 0.0618 0.0
H487 H 0.1224 0.20554 0.02224 0.0
H488 H 0.10211 0.24713 0.98952 0.0
H489 H 0.10662 0.24548 0.08888 0.0
H490 H 0.12188 0.32631 0.10413 0.0
H491 H 0.11744 0.32833 0.00474 0.0
H492 H 0.14809 0.34183 0.04797 0.0
H493 H 0.21658 0.23593 0.92943 0.0
H494 H 0.20357 0.24001 0.79894 0.0
H495 H 0.12602 0.27384 0.87222 0.0
C496 C 0.15831 0.25983 0.16714 0.0
C497 C 0.18074 0.25047 0.20757 0.0
C498 C 0.20402 0.24206 0.16905 0.0
C499 C 0.20513 0.24177 0.0911 0.0
C500 C 0.18288 0.25112 0.05264 0.0
C501 C 0.15993 0.26067 0.08879 0.0
C502 C 0.13937 0.27127 0.03251 0.0
C503 C 0.11626 0.24049 0.03336 0.0
C504 C 0.1312 0.31981 0.04828 0.0
C505 C 0.15402 0.26297 0.9587 0.0
C506 C 0.17919 0.25241 0.97311 0.0
C507 C 0.19706 0.24409 0.91651 0.0
C508 C 0.18933 0.24656 0.84264 0.0
C509 C 0.1637 0.25692 0.8248 0.0
C510 C 0.14563 0.26518 0.88383 0.0
H511 H 0.87952 0.30664 0.20636 0.0
H512 H 0.89509 0.16778 0.21269 0.0
H513 H 0.90226 0.15825 0.07629 0.0
H514 H 0.84637 0.29888 0.03042 0.0
H515 H 0.86119 0.34601 0.99738 0.0
H516 H 0.85786 0.34361 0.09674 0.0
H517 H 0.90668 0.35535 0.11486 0.0
H518 H 0.90999 0.3579 0.01541 0.0
H519 H 0.92862 0.31889 0.06057 0.0
H520 H 0.90778 0.16192 0.94285 0.0
H521 H 0.90989 0.17844 0.81216 0.0
H522 H 0.88983 0.31452 0.88419 0.0
C523 C 0.88421 0.27427 0.17856 0.0
C524 C 0.88643 0.23767 0.21985 0.0
C525 C 0.89314 0.19606 0.18212 0.0
C526 C 0.89735 0.19035 0.10471 0.0
C527 C 0.89513 0.22672 0.06558 0.0
C528 C 0.88885 0.26802 0.10057 0.0
C529 C 0.88811 0.30123 0.04359 0.0
C530 C 0.8618 0.32373 0.04195 0.0
C531 C 0.90962 0.33536 0.05959 0.0
C532 C 0.89329 0.27127 0.97113 0.0
C533 C 0.89802 0.22877 0.9862 0.0
C534 C 0.90411 0.19502 0.93009 0.0
C535 C 0.90531 0.20471 0.85616 0.0
C536 C 0.89988 0.2475 0.83863 0.0
C537 C 0.89376 0.2814 0.8966 0.0
H538 H 0.1575 0.79085 0.14902 0.0
H539 H 0.1781 0.6536 0.15121 0.0
H540 H 0.18393 0.64578 0.01376 0.0
H541 H 0.12206 0.77738 0.97493 0.0
H542 H 0.13333 0.82773 0.94387 0.0
H543 H 0.13086 0.8232 0.04285 0.0
H544 H 0.1786 0.84397 0.06202 0.0
H545 H 0.18127 0.8491 0.96329 0.0
H546 H 0.20258 0.81288 0.00626 0.0
H547 H 0.18864 0.65274 0.87919 0.0
H548 H 0.19152 0.67356 0.75106 0.0
H549 H 0.16628 0.80588 0.83209 0.0
C550 C 0.16313 0.75917 0.12025 0.0
C551 C 0.16726 0.72266 0.16009 0.0
C552 C 0.17475 0.68179 0.12127 0.0
C553 C 0.17812 0.67708 0.04339 0.0
C554 C 0.17386 0.71358 0.00552 0.0
C555 C 0.16653 0.75386 0.0423 0.0
C556 C 0.16347 0.78778 0.98772 0.0
C557 C 0.13578 0.80501 0.9873 0.0
C558 C 0.18262 0.82567 0.00592 0.0
C559 C 0.1701 0.76004 0.91441 0.0
C560 C 0.17622 0.71748 0.92657 0.0
C561 C 0.18391 0.6859 0.86875 0.0
C562 C 0.18563 0.69813 0.79635 0.0
C563 C 0.17933 0.74133 0.78218 0.0
C564 C 0.17119 0.77262 0.84175 0.0
H565 H 0.87454 0.69207 0.79775 0.0
H566 H 0.9054 0.82274 0.78742 0.0
H567 H 0.9133 0.83103 0.92331 0.0
H568 H 0.84293 0.71414 0.97525 0.0
H569 H 0.85168 0.66312 0.00948 0.0
H570 H 0.84846 0.66551 0.90994 0.0
H571 H 0.89472 0.63587 0.88883 0.0
H572 H 0.89789 0.63289 0.98829 0.0
H573 H 0.92076 0.66369 0.94098 0.0
H574 H 0.91687 0.82784 0.05586 0.0
H575 H 0.91746 0.8122 0.18648 0.0
H576 H 0.88527 0.68274 0.11832 0.0
C577 C 0.8827 0.72244 0.82472 0.0
C578 C 0.88907 0.75714 0.78286 0.0
C579 C 0.90027 0.79603 0.81891 0.0
C580 C 0.90488 0.80103 0.89591 0.0
C581 C 0.89849 0.76655 0.93581 0.0
C582 C 0.88787 0.72779 0.90218 0.0
C583 C 0.88339 0.69605 0.95984 0.0
C584 C 0.85491 0.68402 0.96385 0.0
C585 C 0.90019 0.65468 0.94347 0.0
C586 C 0.89224 0.72406 0.03084 0.0
C587 C 0.9011 0.76432 0.0147 0.0
C588 C 0.91023 0.79636 0.06955 0.0
C589 C 0.91048 0.78708 0.1435 0.0
C590 C 0.90155 0.74621 0.16192 0.0
C591 C 0.89225 0.71417 0.10516 0.0
H592 H 0.65473 0.70083 0.35277 0.0
H593 H 0.6831 0.83271 0.3403 0.0
H594 H 0.68772 0.84414 0.4784 0.0
H595 H 0.61955 0.72489 0.52883 0.0
H596 H 0.62839 0.67368 0.56226 0.0
H597 H 0.62552 0.6768 0.46279 0.0
H598 H 0.67189 0.64772 0.44293 0.0
H599 H 0.675 0.64434 0.54217 0.0
H600 H 0.69771 0.67586 0.49554 0.0
H601 H 0.69181 0.83995 0.61435 0.0
H602 H 0.69518 0.82095 0.74355 0.0
H603 H 0.66402 0.69149 0.67098 0.0
C604 C 0.66162 0.73222 0.37949 0.0
C605 C 0.66858 0.76599 0.33661 0.0
C606 C 0.6778 0.80649 0.37266 0.0
C607 C 0.68038 0.8133 0.45087 0.0
C608 C 0.67374 0.77916 0.49173 0.0
C609 C 0.66455 0.73942 0.45759 0.0
C610 C 0.66015 0.70746 0.51456 0.0
C611 C 0.63171 0.69499 0.51728 0.0
C612 C 0.67721 0.66642 0.49779 0.0
C613 C 0.66855 0.73539 0.58606 0.0
C614 C 0.67623 0.77664 0.57118 0.0
C615 C 0.68581 0.80785 0.6269 0.0
C616 C 0.68783 0.7966 0.69992 0.0
C617 C 0.6801 0.75463 0.71677 0.0
C618 C 0.67006 0.72376 0.65932 0.0
H619 H 0.39708 0.69784 0.67933 0.0
H620 H 0.36028 0.82418 0.74154 0.0
H621 H 0.36321 0.84042 0.61043 0.0
H622 H 0.4407 0.73406 0.53997 0.0
H623 H 0.43765 0.68406 0.47644 0.0
H624 H 0.43414 0.68281 0.57612 0.0
H625 H 0.38949 0.6467 0.55301 0.0
H626 H 0.39294 0.64812 0.45343 0.0
H627 H 0.36551 0.67352 0.50165 0.0
H628 H 0.36859 0.8426 0.4747 0.0
H629 H 0.37526 0.82974 0.33793 0.0
H630 H 0.40805 0.70152 0.36048 0.0
C631 C 0.38963 0.72883 0.66504 0.0
C632 C 0.37823 0.75971 0.72003 0.0
C633 C 0.36876 0.79996 0.69982 0.0
C634 C 0.3705 0.80959 0.62575 0.0
C635 C 0.38165 0.77848 0.57269 0.0
C636 C 0.39101 0.73883 0.59093 0.0
C637 C 0.40122 0.71069 0.5219 0.0
C638 C 0.43015 0.70244 0.52909 0.0
C639 C 0.38639 0.66719 0.50662 0.0
C640 C 0.39567 0.74055 0.46226 0.0
C641 C 0.38463 0.77962 0.49318 0.0
C642 C 0.3773 0.81225 0.44971 0.0
C643 C 0.38114 0.80462 0.37222 0.0
C644 C 0.39212 0.76468 0.33927 0.0
C645 C 0.39967 0.73236 0.38473 0.0
H646 H 0.68274 0.30221 0.33179 0.0
H647 H 0.65886 0.16932 0.24851 0.0
H648 H 0.65177 0.15338 0.3771 0.0
H649 H 0.71646 0.2741 0.49441 0.0
H650 H 0.70624 0.32146 0.55671 0.0
H651 H 0.70875 0.32477 0.45735 0.0
H652 H 0.66138 0.35004 0.45337 0.0
H653 H 0.65892 0.34714 0.5529 0.0
H654 H 0.63678 0.31698 0.48879 0.0
H655 H 0.64944 0.14859 0.51017 0.0
H656 H 0.65004 0.15691 0.64831 0.0
H657 H 0.67405 0.2928 0.65219 0.0
C658 C 0.67608 0.26988 0.34112 0.0
C659 C 0.67154 0.23687 0.2803 0.0
C660 C 0.6626 0.19504 0.29422 0.0
C661 C 0.65841 0.18558 0.36709 0.0
C662 C 0.66313 0.21835 0.42578 0.0
C663 C 0.67159 0.25978 0.41442 0.0
C664 C 0.67533 0.28826 0.48917 0.0
C665 C 0.70337 0.303 0.50002 0.0
C666 C 0.657 0.32795 0.49644 0.0
C667 C 0.66818 0.25576 0.54323 0.0
C668 C 0.66117 0.21578 0.50487 0.0
C669 C 0.65461 0.17982 0.54126 0.0
C670 C 0.65509 0.18479 0.61955 0.0
C671 C 0.662 0.22541 0.66023 0.0
C672 C 0.66858 0.26145 0.62187 0.0
H673 H 0.36721 0.20118 0.30126 0.0
H674 H 0.416 0.31494 0.2917 0.0
H675 H 0.42585 0.3166 0.42604 0.0
H676 H 0.34107 0.23495 0.48334 0.0
H677 H 0.34124 0.18107 0.51417 0.0
H678 H 0.33826 0.18664 0.4156 0.0
H679 H 0.37781 0.13611 0.38705 0.0
H680 H 0.38076 0.13025 0.4856 0.0
H681 H 0.40755 0.14963 0.43594 0.0
H682 H 0.42794 0.31109 0.55978 0.0
H683 H 0.42376 0.29582 0.69092 0.0
H684 H 0.3762 0.18265 0.61852 0.0
C685 C 0.37984 0.22644 0.32791 0.0
C686 C 0.39065 0.25833 0.28662 0.0
C687 C 0.40738 0.29051 0.32259 0.0
C688 C 0.4132 0.29162 0.39874 0.0
C689 C 0.40234 0.26 0.43805 0.0
C690 C 0.38615 0.22775 0.40441 0.0
C691 C 0.37696 0.19834 0.46135 0.0
C692 C 0.34764 0.2004 0.46905 0.0
C693 C 0.38634 0.15076 0.44124 0.0
C694 C 0.3901 0.21996 0.53193 0.0
C695 C 0.4046 0.25547 0.51661 0.0
C696 C 0.41708 0.28291 0.57257 0.0
C697 C 0.41456 0.27408 0.64663 0.0
C698 C 0.40004 0.23776 0.66366 0.0
C699 C 0.38791 0.20992 0.6059 0.0
H700 H 0.07959 0.24134 0.37018 0.0
H701 H 0.10405 0.27452 0.60142 0.0
H702 H 0.05829 0.28611 0.63888 0.0
H703 H 1.02597 0.32155 0.37923 0.0
H704 H 1.00666 0.28554 0.315 0.0
H705 H 0.04107 0.28421 0.30724 0.0
H706 H 0.04107 0.20076 0.31758 0.0
H707 H 1.00678 0.20176 0.32481 0.0
H708 H 1.02584 0.18063 0.39676 0.0
H709 H 1.01022 0.29305 0.64883 0.0
H710 H 0.96371 0.28089 0.63875 0.0
H711 H 0.97089 0.23847 0.40016 0.0
C712 C 0.07528 0.2508 0.42907 0.0
C713 C 0.09502 0.2562 0.48351 0.0
C714 C 0.08903 0.26932 0.55952 0.0
C715 C 0.06321 0.27663 0.58061 0.0
C716 C 0.04414 0.27131 0.52471 0.0
C717 C 0.04995 0.25836 0.45048 0.0
C718 C 1.02613 0.25254 0.40137 0.0
C719 C 1.02489 0.28806 0.34755 0.0
C720 C 1.02488 0.20614 0.35767 0.0
C721 C 1.00557 0.26005 0.46085 0.0
C722 C 1.01645 0.27328 0.53075 0.0
C723 C 1.00158 0.28244 0.59469 0.0
C724 C 0.97519 0.27541 0.58828 0.0
C725 C 0.96388 0.25797 0.51901 0.0
C726 C 0.97909 0.25178 0.4537 0.0
H727 H 0.9761 0.67862 0.50435 0.0
H728 H 0.95983 0.81784 0.545 0.0
H729 H 1.00528 0.83242 0.57816 0.0
H730 H 0.03161 0.68598 0.66072 0.0
H731 H 0.04866 0.64225 0.60565 0.0
H732 H 1.0141 0.64183 0.60818 0.0
H733 H 1.01282 0.63563 0.46325 0.0
H734 H 0.04708 0.63659 0.46013 0.0
H735 H 1.0288 0.67654 0.41585 0.0
H736 H 0.0533 0.83326 0.5751 0.0
H737 H 0.09859 0.82003 0.5388 0.0
H738 H 0.08415 0.68022 0.50041 0.0
C739 C 0.9819 0.71178 0.52525 0.0
C740 C 0.96435 0.74703 0.52463 0.0
C741 C 0.97273 0.79032 0.54819 0.0
C742 C 0.99861 0.79887 0.56659 0.0
C743 C 1.0158 0.76361 0.56324 0.0
C744 C 1.0076 0.72064 0.54564 0.0
C745 C 0.03028 0.68912 0.53896 0.0
C746 C 0.03122 0.66325 0.60739 0.0
C747 C 1.0297 0.65772 0.46508 0.0
C748 C 0.05239 0.72145 0.54232 0.0
C749 C 0.04376 0.76411 0.56121 0.0
C750 C 0.06035 0.79992 0.56277 0.0
C751 C 0.08613 0.79217 0.54246 0.0
C752 C 0.09496 0.74908 0.51907 0.0
C753 C 0.078 0.7133 0.52068 0.0
H754 H 0.58141 0.79634 0.09788 0.0
H755 H 0.60261 0.72945 0.88048 0.0
H756 H 0.55656 0.73061 0.84024 0.0
H757 H 0.52976 0.72743 0.11013 0.0
H758 H 0.51214 0.76847 0.16959 0.0
H759 H 0.54651 0.76926 0.17056 0.0
H760 H 0.54586 0.84983 0.13824 0.0
H761 H 0.51142 0.84928 0.13687 0.0
H762 H 0.52875 0.86281 0.05597 0.0
H763 H 0.50405 0.72758 0.83933 0.0
H764 H 0.45817 0.72198 0.87765 0.0
H765 H 0.47687 0.7938 0.09381 0.0
C766 C 0.57673 0.78294 0.04071 0.0
C767 C 0.59551 0.76285 0.99249 0.0
C768 C 0.58842 0.74538 0.91841 0.0
C769 C 0.56227 0.7457 0.8955 0.0
C770 C 0.54383 0.76351 0.94758 0.0
C771 C 0.55132 0.78197 0.01859 0.0
C772 C 0.52915 0.79272 0.07025 0.0
C773 C 0.52941 0.76274 0.13379 0.0
C774 C 0.52878 0.84159 0.1021 0.0
C775 C 0.50744 0.78096 0.01675 0.0
C776 C 0.51558 0.76262 0.94653 0.0
C777 C 0.49779 0.74276 0.89384 0.0
C778 C 0.4717 0.73998 0.91558 0.0
C779 C 0.46398 0.75745 0.98889 0.0
C780 C 0.48198 0.78026 0.03715 0.0
H781 H 0.4769 0.17981 0.00677 0.0
H782 H 0.45958 0.31887 0.03623 0.0
H783 H 0.50477 0.3352 0.07067 0.0
H784 H 0.53125 0.19234 0.1661 0.0
H785 H 0.54893 0.14783 0.11524 0.0
H786 H 0.51437 0.14676 0.11551 0.0
H787 H 0.51413 0.13694 0.97035 0.0
H788 H 0.54841 0.13831 0.96957 0.0
H789 H 0.53037 0.1766 0.92078 0.0
H790 H 0.55263 0.33702 0.07076 0.0
H791 H 0.59804 0.32419 0.03608 0.0
H792 H 0.58491 0.18389 0.00723 0.0
C793 C 0.48243 0.21344 0.02518 0.0
C794 C 0.46469 0.24809 0.02124 0.0
C795 C 0.47266 0.29191 0.04186 0.0
C796 C 0.49837 0.30142 0.06111 0.0
C797 C 0.51575 0.26664 0.06156 0.0
C798 C 0.50794 0.22332 0.04641 0.0
C799 C 0.53082 0.19231 0.04353 0.0
C800 C 0.53138 0.16838 0.11425 0.0
C801 C 0.53093 0.15919 0.9717 0.0
C802 C 0.55272 0.22504 0.0459 0.0
C803 C 0.54369 0.26771 0.06139 0.0
C804 C 0.55999 0.30377 0.06101 0.0
C805 C 0.58583 0.29624 0.04165 0.0
C806 C 0.59507 0.2531 0.02129 0.0
C807 C 0.57845 0.21709 0.02539 0.0
loop_
_geom_bond_atom_site_label_1
_geom_bond_atom_site_label_2
_geom_bond_distance
_geom_bond_site_symmetry_2
_ccdc_geom_bond_type
Tb0 O3 2.453 . S
Tb0 O4 2.596 . S
Tb0 O5 2.374 . S
Tb0 O13 2.343 . S
Tb0 O15 2.353 . S
Tb0 O17 2.427 . S
Tb0 O18 2.513 . S
C1 O5 1.251 . S
C1 O7 1.263 . S
Tb2 O4 2.343 . S
Tb2 O7 2.353 . S
Tb2 O10 2.427 . S
Tb2 O11 2.513 . S
Tb2 O12 2.453 . S
Tb2 O13 2.596 . S
Tb2 O14 2.374 . S
O3 Tb0 2.453 . S
O3 C19 1.245 . S
O4 Tb0 2.596 . S
O4 Tb2 2.343 . S
O4 C19 1.259 . S
O5 Tb0 2.374 . S
O5 C1 1.251 . S
C6 O10 1.275 . S
C6 O11 1.246 . S
O7 C1 1.263 . S
O7 Tb2 2.353 . S
C8 O12 1.245 . S
C8 O13 1.259 . S
C9 O14 1.250 . S
C9 O15 1.263 . S
O10 Tb2 2.427 . S
O10 C6 1.275 . S
O11 Tb2 2.513 . S
O11 C6 1.246 . S
O12 Tb2 2.453 . S
O12 C8 1.245 . S
O13 Tb0 2.343 . S
O13 Tb2 2.596 . S
O13 C8 1.259 . S
O14 Tb2 2.374 . S
O14 C9 1.250 . S
O15 Tb0 2.353 . S
O15 C9 1.263 . S
C16 O17 1.275 . S
C16 O18 1.246 . S
O17 Tb0 2.427 . S
O17 C16 1.275 . S
O18 Tb0 2.513 . S
O18 C16 1.246 . S
C19 O3 1.245 . S
C19 O4 1.259 . S
Tb20 O23 2.453 . S
Tb20 O24 2.596 . S
Tb20 O25 2.374 . S
Tb20 O33 2.343 . S
Tb20 O35 2.353 . S
Tb20 O37 2.427 . S
Tb20 O38 2.513 . S
C21 O25 1.251 . S
C21 O27 1.263 . S
Tb22 O24 2.343 . S
Tb22 O27 2.353 . S
Tb22 O30 2.427 . S
Tb22 O31 2.513 . S
Tb22 O32 2.453 . S
Tb22 O33 2.596 . S
Tb22 O34 2.374 . S
O23 Tb20 2.453 . S
O23 C39 1.245 . S
O24 Tb20 2.596 . S
O24 Tb22 2.343 . S
O24 C39 1.259 . S
O25 Tb20 2.374 . S
O25 C21 1.251 . S
C26 O30 1.275 . S
C26 O31 1.246 . S
O27 C21 1.263 . S
O27 Tb22 2.353 . S
C28 O32 1.245 . S
C28 O33 1.259 . S
C29 O34 1.250 . S
C29 O35 1.263 . S
O30 Tb22 2.427 . S
O30 C26 1.275 . S
O31 Tb22 2.513 . S
O31 C26 1.246 . S
O32 Tb22 2.453 . S
O32 C28 1.245 . S
O33 Tb20 2.343 . S
O33 Tb22 2.596 . S
O33 C28 1.259 . S
O34 Tb22 2.374 . S
O34 C29 1.250 . S
O35 Tb20 2.353 . S
O35 C29 1.263 . S
C36 O37 1.275 . S
C36 O38 1.246 . S
O37 Tb20 2.427 . S
O37 C36 1.275 . S
O38 Tb20 2.513 . S
O38 C36 1.246 . S
C39 O23 1.245 . S
C39 O24 1.259 . S
Tb40 O43 2.453 . S
Tb40 O44 2.596 . S
Tb40 O45 2.374 . S
Tb40 O53 2.343 . S
Tb40 O55 2.353 . S
Tb40 O57 2.427 . S
Tb40 O58 2.513 . S
C41 O45 1.251 . S
C41 O47 1.263 . S
Tb42 O44 2.343 . S
Tb42 O47 2.353 . S
Tb42 O50 2.427 . S
Tb42 O51 2.513 . S
Tb42 O52 2.453 . S
Tb42 O53 2.596 . S
Tb42 O54 2.374 . S
O43 Tb40 2.453 . S
O43 C59 1.245 . S
O44 Tb40 2.596 . S
O44 Tb42 2.343 . S
O44 C59 1.259 . S
O45 Tb40 2.374 . S
O45 C41 1.251 . S
C46 O50 1.275 . S
C46 O51 1.246 . S
O47 C41 1.263 . S
O47 Tb42 2.353 . S
C48 O52 1.245 . S
C48 O53 1.259 . S
C49 O54 1.250 . S
C49 O55 1.263 . S
O50 Tb42 2.427 . S
O50 C46 1.275 . S
O51 Tb42 2.513 . S
O51 C46 1.246 . S
O52 Tb42 2.453 . S
O52 C48 1.245 . S
O53 Tb40 2.343 . S
O53 Tb42 2.596 . S
O53 C48 1.259 . S
O54 Tb42 2.374 . S
O54 C49 1.250 . S
O55 Tb40 2.353 . S
O55 C49 1.263 . S
C56 O57 1.275 . S
C56 O58 1.246 . S
O57 Tb40 2.427 . S
O57 C56 1.275 . S
O58 Tb40 2.513 . S
O58 C56 1.246 . S
C59 O43 1.245 . S
C59 O44 1.259 . S
Tb60 O63 2.453 . S
Tb60 O64 2.596 . S
Tb60 O65 2.374 . S
Tb60 O73 2.343 . S
Tb60 O75 2.353 . S
Tb60 O77 2.427 . S
Tb60 O78 2.513 . S
C61 O65 1.251 . S
C61 O67 1.263 . S
Tb62 O64 2.343 . S
Tb62 O67 2.353 . S
Tb62 O70 2.427 . S
Tb62 O71 2.513 . S
Tb62 O72 2.453 . S
Tb62 O73 2.596 . S
Tb62 O74 2.374 . S
O63 Tb60 2.453 . S
O63 C79 1.245 . S
O64 Tb60 2.596 . S
O64 Tb62 2.343 . S
O64 C79 1.259 . S
O65 Tb60 2.374 . S
O65 C61 1.251 . S
C66 O70 1.275 . S
C66 O71 1.246 . S
O67 C61 1.263 . S
O67 Tb62 2.353 . S
C68 O72 1.245 . S
C68 O73 1.259 . S
C69 O74 1.250 . S
C69 O75 1.263 . S
O70 Tb62 2.427 . S
O70 C66 1.275 . S
O71 Tb62 2.513 . S
O71 C66 1.246 . S
O72 Tb62 2.453 . S
O72 C68 1.245 . S
O73 Tb60 2.343 . S
O73 Tb62 2.596 . S
O73 C68 1.259 . S
O74 Tb62 2.374 . S
O74 C69 1.250 . S
O75 Tb60 2.353 . S
O75 C69 1.263 . S
C76 O77 1.275 . S
C76 O78 1.246 . S
O77 Tb60 2.427 . S
O77 C76 1.275 . S
O78 Tb60 2.513 . S
O78 C76 1.246 . S
C79 O63 1.245 . S
C79 O64 1.259 . S
Tb80 O83 2.453 . S
Tb80 O84 2.596 1_556 S
Tb80 O85 2.374 . S
Tb80 O93 2.343 . S
Tb80 O95 2.353 . S
Tb80 O97 2.427 . S
Tb80 O98 2.513 . S
C81 O85 1.251 1_554 S
C81 O87 1.263 . S
Tb82 O84 2.343 . S
Tb82 O87 2.353 . S
Tb82 O90 2.427 . S
Tb82 O91 2.513 . S
Tb82 O92 2.453 . S
Tb82 O93 2.596 1_554 S
Tb82 O94 2.374 . S
O83 Tb80 2.453 . S
O83 C99 1.245 1_556 S
O84 Tb80 2.596 1_554 S
O84 Tb82 2.343 . S
O84 C99 1.259 . S
O85 Tb80 2.374 . S
O85 C81 1.251 1_556 S
C86 O90 1.275 . S
C86 O91 1.246 . S
O87 C81 1.263 . S
O87 Tb82 2.353 . S
C88 O92 1.245 1_556 S
C88 O93 1.259 . S
C89 O94 1.250 . S
C89 O95 1.263 1_554 S
O90 Tb82 2.427 . S
O90 C86 1.275 . S
O91 Tb82 2.513 . S
O91 C86 1.246 . S
O92 Tb82 2.453 . S
O92 C88 1.245 1_554 S
O93 Tb80 2.343 . S
O93 Tb82 2.596 1_556 S
O93 C88 1.259 . S
O94 Tb82 2.374 . S
O94 C89 1.250 . S
O95 Tb80 2.353 . S
O95 C89 1.263 1_556 S
C96 O97 1.275 . S
C96 O98 1.246 . S
O97 Tb80 2.427 . S
O97 C96 1.275 . S
O98 Tb80 2.513 . S
O98 C96 1.246 . S
C99 O83 1.245 1_554 S
C99 O84 1.259 . S
Tb100 O103 2.453 . S
Tb100 O104 2.596 1_554 S
Tb100 O105 2.374 . S
Tb100 O113 2.343 . S
Tb100 O115 2.353 . S
Tb100 O117 2.427 . S
Tb100 O118 2.513 . S
C101 O105 1.251 . S
C101 O107 1.263 1_554 S
Tb102 O104 2.343 . S
Tb102 O107 2.353 . S
Tb102 O110 2.427 . S
Tb102 O111 2.513 . S
Tb102 O112 2.453 . S
Tb102 O113 2.596 1_556 S
Tb102 O114 2.374 . S
O103 Tb100 2.453 . S
O103 C119 1.245 1_554 S
O104 Tb100 2.596 1_556 S
O104 Tb102 2.343 . S
O104 C119 1.259 . S
O105 Tb100 2.374 . S
O105 C101 1.251 . S
C106 O110 1.275 . S
C106 O111 1.246 . S
O107 C101 1.263 1_556 S
O107 Tb102 2.353 . S
C108 O112 1.245 1_554 S
C108 O113 1.259 . S
C109 O114 1.250 1_554 S
C109 O115 1.263 . S
O110 Tb102 2.427 . S
O110 C106 1.275 . S
O111 Tb102 2.513 . S
O111 C106 1.246 . S
O112 Tb102 2.453 . S
O112 C108 1.245 1_556 S
O113 Tb100 2.343 . S
O113 Tb102 2.596 1_554 S
O113 C108 1.259 . S
O114 Tb102 2.374 . S
O114 C109 1.250 1_556 S
O115 Tb100 2.353 . S
O115 C109 1.263 . S
C116 O117 1.275 . S
C116 O118 1.246 . S
O117 Tb100 2.427 . S
O117 C116 1.275 . S
O118 Tb100 2.513 . S
O118 C116 1.246 . S
C119 O103 1.245 1_556 S
C119 O104 1.259 . S
Tb120 O123 2.453 . S
Tb120 O124 2.596 1_554 S
Tb120 O125 2.374 . S
Tb120 O133 2.343 . S
Tb120 O135 2.353 . S
Tb120 O137 2.427 . S
Tb120 O138 2.513 . S
C121 O125 1.251 1_556 S
C121 O127 1.263 . S
Tb122 O124 2.343 . S
Tb122 O127 2.353 . S
Tb122 O130 2.427 . S
Tb122 O131 2.513 . S
Tb122 O132 2.453 . S
Tb122 O133 2.596 1_556 S
Tb122 O134 2.374 . S
O123 Tb120 2.453 . S
O123 C139 1.245 1_554 S
O124 Tb120 2.596 1_556 S
O124 Tb122 2.343 . S
O124 C139 1.259 . S
O125 Tb120 2.374 . S
O125 C121 1.251 1_554 S
C126 O130 1.275 . S
C126 O131 1.246 . S
O127 C121 1.263 . S
O127 Tb122 2.353 . S
C128 O132 1.245 1_554 S
C128 O133 1.259 . S
C129 O134 1.250 . S
C129 O135 1.263 1_556 S
O130 Tb122 2.427 . S
O130 C126 1.275 . S
O131 Tb122 2.513 . S
O131 C126 1.246 . S
O132 Tb122 2.453 . S
O132 C128 1.245 1_556 S
O133 Tb120 2.343 . S
O133 Tb122 2.596 1_554 S
O133 C128 1.259 . S
O134 Tb122 2.374 . S
O134 C129 1.250 . S
O135 Tb120 2.353 . S
O135 C129 1.263 1_554 S
C136 O137 1.275 . S
C136 O138 1.246 . S
O137 Tb120 2.427 . S
O137 C136 1.275 . S
O138 Tb120 2.513 . S
O138 C136 1.246 . S
C139 O123 1.245 1_556 S
C139 O124 1.259 . S
Tb140 O143 2.453 . S
Tb140 O144 2.596 1_556 S
Tb140 O145 2.374 . S
Tb140 O153 2.343 . S
Tb140 O155 2.353 . S
Tb140 O157 2.427 . S
Tb140 O158 2.513 . S
C141 O145 1.251 . S
C141 O147 1.263 1_556 S
Tb142 O144 2.343 . S
Tb142 O147 2.353 . S
Tb142 O150 2.427 . S
Tb142 O151 2.513 . S
Tb142 O152 2.453 . S
Tb142 O153 2.596 1_554 S
Tb142 O154 2.374 . S
O143 Tb140 2.453 . S
O143 C159 1.245 1_556 S
O144 Tb140 2.596 1_554 S
O144 Tb142 2.343 . S
O144 C159 1.259 . S
O145 Tb140 2.374 . S
O145 C141 1.251 . S
C146 O150 1.275 . S
C146 O151 1.246 . S
O147 C141 1.263 1_554 S
O147 Tb142 2.353 . S
C148 O152 1.245 1_556 S
C148 O153 1.259 . S
C149 O154 1.250 1_556 S
C149 O155 1.263 . S
O150 Tb142 2.427 . S
O150 C146 1.275 . S
O151 Tb142 2.513 . S
O151 C146 1.246 . S
O152 Tb142 2.453 . S
O152 C148 1.245 1_554 S
O153 Tb140 2.343 . S
O153 Tb142 2.596 1_556 S
O153 C148 1.259 . S
O154 Tb142 2.374 . S
O154 C149 1.250 1_554 S
O155 Tb140 2.353 . S
O155 C149 1.263 . S
C156 O157 1.275 . S
C156 O158 1.246 . S
O157 Tb140 2.427 . S
O157 C156 1.275 . S
O158 Tb140 2.513 . S
O158 C156 1.246 . S
C159 O143 1.245 1_554 S
C159 O144 1.259 . S
H160 C172 0.930 . S
H161 C174 0.930 . S
H162 C175 0.930 . S
H163 C179 0.959 . S
H164 C179 0.959 . S
H165 C179 0.961 . S
H166 C180 0.960 . S
H167 C180 0.961 . S
H168 C180 0.959 . S
H169 C183 0.929 . S
H170 C184 0.931 . S
H171 C186 0.930 . S
C172 H160 0.930 . S
C172 C173 1.399 . S
C172 C177 1.399 . S
C173 C172 1.399 . S
C173 C174 1.376 . S
C174 H161 0.930 . S
C174 C173 1.376 . S
C174 C175 1.388 . S
C175 H162 0.930 . S
C175 C174 1.388 . S
C175 C176 1.390 . S
C176 C175 1.390 . S
C176 C177 1.394 . S
C176 C182 1.465 . S
C177 C172 1.399 . S
C177 C176 1.394 . S
C177 C178 1.516 . S
C178 C177 1.516 . S
C178 C179 1.502 . S
C178 C180 1.561 . S
C178 C181 1.526 . S
C179 H163 0.959 . S
C179 H164 0.959 . S
C179 H165 0.961 . S
C179 C178 1.502 . S
C180 H166 0.960 . S
C180 H167 0.961 . S
C180 H168 0.959 . S
C180 C178 1.561 . S
C181 C178 1.526 . S
C181 C182 1.396 . S
C181 C186 1.390 . S
C182 C176 1.465 . S
C182 C181 1.396 . S
C182 C183 1.399 . S
C183 H169 0.929 . S
C183 C182 1.399 . S
C183 C184 1.385 . S
C184 H170 0.931 . S
C184 C183 1.385 . S
C184 C185 1.389 . S
C185 C184 1.389 . S
C185 C186 1.387 . S
C186 H171 0.930 . S
C186 C181 1.390 . S
C186 C185 1.387 . S
H187 C199 0.930 . S
H188 C201 0.930 . S
H189 C202 0.930 . S
H190 C206 0.959 . S
H191 C206 0.959 . S
H192 C206 0.961 . S
H193 C207 0.960 . S
H194 C207 0.961 . S
H195 C207 0.959 . S
H196 C210 0.929 . S
H197 C211 0.931 . S
H198 C213 0.930 . S
C199 H187 0.930 . S
C199 C200 1.399 . S
C199 C204 1.399 . S
C200 C199 1.399 . S
C200 C201 1.376 . S
C201 H188 0.930 . S
C201 C200 1.376 . S
C201 C202 1.388 . S
C202 H189 0.930 . S
C202 C201 1.388 . S
C202 C203 1.390 . S
C203 C202 1.390 . S
C203 C204 1.394 . S
C203 C209 1.465 . S
C204 C199 1.399 . S
C204 C203 1.394 . S
C204 C205 1.516 . S
C205 C204 1.516 . S
C205 C206 1.502 . S
C205 C207 1.561 . S
C205 C208 1.526 . S
C206 H190 0.959 . S
C206 H191 0.959 . S
C206 H192 0.961 . S
C206 C205 1.502 . S
C207 H193 0.960 . S
C207 H194 0.961 . S
C207 H195 0.959 . S
C207 C205 1.561 . S
C208 C205 1.526 . S
C208 C209 1.396 . S
C208 C213 1.390 . S
C209 C203 1.465 . S
C209 C208 1.396 . S
C209 C210 1.399 . S
C210 H196 0.929 . S
C210 C209 1.399 . S
C210 C211 1.385 . S
C211 H197 0.931 . S
C211 C210 1.385 . S
C211 C212 1.389 . S
C212 C211 1.389 . S
C212 C213 1.387 . S
C213 H198 0.930 . S
C213 C208 1.390 . S
C213 C212 1.387 . S
H214 C226 0.930 . S
H215 C228 0.930 . S
H216 C229 0.930 . S
H217 C233 0.959 . S
H218 C233 0.959 . S
H219 C233 0.961 . S
H220 C234 0.960 . S
H221 C234 0.961 . S
H222 C234 0.959 . S
H223 C237 0.929 . S
H224 C238 0.931 . S
H225 C240 0.930 . S
C226 H214 0.930 . S
C226 C227 1.399 . S
C226 C231 1.399 . S
C227 C226 1.399 . S
C227 C228 1.376 . S
C228 H215 0.930 . S
C228 C227 1.376 . S
C228 C229 1.388 . S
C229 H216 0.930 . S
C229 C228 1.388 . S
C229 C230 1.390 . S
C230 C229 1.390 . S
C230 C231 1.394 . S
C230 C236 1.465 . S
C231 C226 1.399 . S
C231 C230 1.394 . S
C231 C232 1.516 . S
C232 C231 1.516 . S
C232 C233 1.502 . S
C232 C234 1.561 . S
C232 C235 1.526 . S
C233 H217 0.959 . S
C233 H218 0.959 . S
C233 H219 0.961 . S
C233 C232 1.502 . S
C234 H220 0.960 . S
C234 H221 0.961 . S
C234 H222 0.959 . S
C234 C232 1.561 . S
C235 C232 1.526 . S
C235 C236 1.396 . S
C235 C240 1.390 . S
C236 C230 1.465 . S
C236 C235 1.396 . S
C236 C237 1.399 . S
C237 H223 0.929 . S
C237 C236 1.399 . S
C237 C238 1.385 . S
C238 H224 0.931 . S
C238 C237 1.385 . S
C238 C239 1.389 . S
C239 C238 1.389 . S
C239 C240 1.387 . S
C240 H225 0.930 . S
C240 C235 1.390 . S
C240 C239 1.387 . S
H241 C253 0.930 . S
H242 C255 0.930 . S
H243 C256 0.930 . S
H244 C260 0.959 . S
H245 C260 0.959 . S
H246 C260 0.961 . S
H247 C261 0.960 . S
H248 C261 0.961 . S
H249 C261 0.959 . S
H250 C264 0.929 . S
H251 C265 0.931 . S
H252 C267 0.930 . S
C253 H241 0.930 . S
C253 C254 1.399 . S
C253 C258 1.399 . S
C254 C253 1.399 . S
C254 C255 1.376 . S
C255 H242 0.930 . S
C255 C254 1.376 . S
C255 C256 1.388 . S
C256 H243 0.930 . S
C256 C255 1.388 . S
C256 C257 1.390 . S
C257 C256 1.390 . S
C257 C258 1.394 . S
C257 C263 1.465 . S
C258 C253 1.399 . S
C258 C257 1.394 . S
C258 C259 1.516 . S
C259 C258 1.516 . S
C259 C260 1.502 . S
C259 C261 1.561 . S
C259 C262 1.526 . S
C260 H244 0.959 . S
C260 H245 0.959 . S
C260 H246 0.961 . S
C260 C259 1.502 . S
C261 H247 0.960 . S
C261 H248 0.961 . S
C261 H249 0.959 . S
C261 C259 1.561 . S
C262 C259 1.526 . S
C262 C263 1.396 . S
C262 C267 1.390 . S
C263 C257 1.465 . S
C263 C262 1.396 . S
C263 C264 1.399 . S
C264 H250 0.929 . S
C264 C263 1.399 . S
C264 C265 1.385 . S
C265 H251 0.931 . S
C265 C264 1.385 . S
C265 C266 1.389 . S
C266 C265 1.389 . S
C266 C267 1.387 . S
C267 H252 0.930 . S
C267 C262 1.390 . S
C267 C266 1.387 . S
H268 C280 0.930 . S
H269 C282 0.930 . S
H270 C283 0.930 . S
H271 C287 0.959 . S
H272 C287 0.959 . S
H273 C287 0.961 1_565 S
H274 C288 0.960 1_565 S
H275 C288 0.961 . S
H276 C288 0.959 . S
H277 C291 0.929 . S
H278 C292 0.931 . S
H279 C294 0.930 . S
C280 H268 0.930 . S
C280 C281 1.399 . S
C280 C285 1.399 . S
C281 C280 1.399 . S
C281 C282 1.376 . S
C282 H269 0.930 . S
C282 C281 1.376 . S
C282 C283 1.388 . S
C283 H270 0.930 . S
C283 C282 1.388 . S
C283 C284 1.390 . S
C284 C283 1.390 . S
C284 C285 1.394 . S
C284 C290 1.465 1_565 S
C285 C280 1.399 . S
C285 C284 1.394 . S
C285 C286 1.516 1_565 S
C286 C285 1.516 1_545 S
C286 C287 1.502 . S
C286 C288 1.561 . S
C286 C289 1.526 . S
C287 H271 0.959 . S
C287 H272 0.959 . S
C287 H273 0.961 1_545 S
C287 C286 1.502 . S
C288 H274 0.960 1_545 S
C288 H275 0.961 . S
C288 H276 0.959 . S
C288 C286 1.561 . S
C289 C286 1.526 . S
C289 C290 1.396 . S
C289 C294 1.390 . S
C290 C284 1.465 1_545 S
C290 C289 1.396 . S
C290 C291 1.399 . S
C291 H277 0.929 . S
C291 C290 1.399 . S
C291 C292 1.385 . S
C292 H278 0.931 . S
C292 C291 1.385 . S
C292 C293 1.389 . S
C293 C292 1.389 . S
C293 C294 1.387 . S
C294 H279 0.930 . S
C294 C289 1.390 . S
C294 C293 1.387 . S
H295 C307 0.930 . S
H296 C309 0.930 . S
H297 C310 0.930 . S
H298 C314 0.959 . S
H299 C314 0.959 . S
H300 C314 0.961 . S
H301 C315 0.960 . S
H302 C315 0.961 . S
H303 C315 0.959 . S
H304 C318 0.929 . S
H305 C319 0.931 . S
H306 C321 0.930 . S
C307 H295 0.930 . S
C307 C308 1.399 . S
C307 C312 1.399 . S
C308 C307 1.399 . S
C308 C309 1.376 . S
C309 H296 0.930 . S
C309 C308 1.376 . S
C309 C310 1.388 . S
C310 H297 0.930 . S
C310 C309 1.388 . S
C310 C311 1.390 . S
C311 C310 1.390 . S
C311 C312 1.394 . S
C311 C317 1.465 . S
C312 C307 1.399 . S
C312 C311 1.394 . S
C312 C313 1.516 . S
C313 C312 1.516 . S
C313 C314 1.502 . S
C313 C315 1.561 . S
C313 C316 1.526 . S
C314 H298 0.959 . S
C314 H299 0.959 . S
C314 H300 0.961 . S
C314 C313 1.502 . S
C315 H301 0.960 . S
C315 H302 0.961 . S
C315 H303 0.959 . S
C315 C313 1.561 . S
C316 C313 1.526 . S
C316 C317 1.396 . S
C316 C321 1.390 . S
C317 C311 1.465 . S
C317 C316 1.396 . S
C317 C318 1.399 . S
C318 H304 0.929 . S
C318 C317 1.399 . S
C318 C319 1.385 . S
C319 H305 0.931 . S
C319 C318 1.385 . S
C319 C320 1.389 . S
C320 C319 1.389 . S
C320 C321 1.387 . S
C321 H306 0.930 . S
C321 C316 1.390 . S
C321 C320 1.387 . S
H322 C334 0.930 . S
H323 C336 0.930 . S
H324 C337 0.930 . S
H325 C341 0.959 . S
H326 C341 0.959 . S
H327 C341 0.961 1_565 S
H328 C342 0.960 1_565 S
H329 C342 0.961 . S
H330 C342 0.959 . S
H331 C345 0.929 . S
H332 C346 0.931 . S
H333 C348 0.930 . S
C334 H322 0.930 . S
C334 C335 1.399 . S
C334 C339 1.399 . S
C335 C334 1.399 . S
C335 C336 1.376 . S
C336 H323 0.930 . S
C336 C335 1.376 . S
C336 C337 1.388 . S
C337 H324 0.930 . S
C337 C336 1.388 . S
C337 C338 1.390 . S
C338 C337 1.390 . S
C338 C339 1.394 . S
C338 C344 1.465 1_565 S
C339 C334 1.399 . S
C339 C338 1.394 . S
C339 C340 1.516 1_565 S
C340 C339 1.516 1_545 S
C340 C341 1.502 . S
C340 C342 1.561 . S
C340 C343 1.526 . S
C341 H325 0.959 . S
C341 H326 0.959 . S
C341 H327 0.961 1_545 S
C341 C340 1.502 . S
C342 H328 0.960 1_545 S
C342 H329 0.961 . S
C342 H330 0.959 . S
C342 C340 1.561 . S
C343 C340 1.526 . S
C343 C344 1.396 . S
C343 C348 1.390 . S
C344 C338 1.465 1_545 S
C344 C343 1.396 . S
C344 C345 1.399 . S
C345 H331 0.929 . S
C345 C344 1.399 . S
C345 C346 1.385 . S
C346 H332 0.931 . S
C346 C345 1.385 . S
C346 C347 1.389 . S
C347 C346 1.389 . S
C347 C348 1.387 . S
C348 H333 0.930 . S
C348 C343 1.390 . S
C348 C347 1.387 . S
H349 C361 0.930 . S
H350 C363 0.930 . S
H351 C364 0.930 . S
H352 C368 0.959 . S
H353 C368 0.959 . S
H354 C368 0.961 . S
H355 C369 0.960 . S
H356 C369 0.961 . S
H357 C369 0.959 . S
H358 C372 0.929 . S
H359 C373 0.931 . S
H360 C375 0.930 . S
C361 H349 0.930 . S
C361 C362 1.399 . S
C361 C366 1.399 . S
C362 C361 1.399 . S
C362 C363 1.376 . S
C363 H350 0.930 . S
C363 C362 1.376 . S
C363 C364 1.388 . S
C364 H351 0.930 . S
C364 C363 1.388 . S
C364 C365 1.390 . S
C365 C364 1.390 . S
C365 C366 1.394 . S
C365 C371 1.465 . S
C366 C361 1.399 . S
C366 C365 1.394 . S
C366 C367 1.516 . S
C367 C366 1.516 . S
C367 C368 1.502 . S
C367 C369 1.561 . S
C367 C370 1.526 . S
C368 H352 0.959 . S
C368 H353 0.959 . S
C368 H354 0.961 . S
C368 C367 1.502 . S
C369 H355 0.960 . S
C369 H356 0.961 . S
C369 H357 0.959 . S
C369 C367 1.561 . S
C370 C367 1.526 . S
C370 C371 1.396 . S
C370 C375 1.390 . S
C371 C365 1.465 . S
C371 C370 1.396 . S
C371 C372 1.399 . S
C372 H358 0.929 . S
C372 C371 1.399 . S
C372 C373 1.385 . S
C373 H359 0.931 . S
C373 C372 1.385 . S
C373 C374 1.389 . S
C374 C373 1.389 . S
C374 C375 1.387 . S
C375 H360 0.930 . S
C375 C370 1.390 . S
C375 C374 1.387 . S
H376 C388 0.930 . S
H377 C390 0.930 . S
H378 C391 0.930 . S
H379 C395 0.959 . S
H380 C395 0.959 . S
H381 C395 0.961 . S
H382 C396 0.960 . S
H383 C396 0.961 . S
H384 C396 0.959 . S
H385 C399 0.929 . S
H386 C400 0.931 . S
H387 C402 0.930 . S
C388 H376 0.930 . S
C388 C389 1.399 1_556 S
C388 C393 1.399 . S
C389 C388 1.399 1_554 S
C389 C390 1.376 . S
C390 H377 0.930 . S
C390 C389 1.376 . S
C390 C391 1.388 . S
C391 H378 0.930 . S
C391 C390 1.388 . S
C391 C392 1.390 . S
C392 C391 1.390 . S
C392 C393 1.394 1_554 S
C392 C398 1.465 . S
C393 C388 1.399 . S
C393 C392 1.394 1_556 S
C393 C394 1.516 . S
C394 C393 1.516 . S
C394 C395 1.502 . S
C394 C396 1.561 . S
C394 C397 1.526 . S
C395 H379 0.959 . S
C395 H380 0.959 . S
C395 H381 0.961 . S
C395 C394 1.502 . S
C396 H382 0.960 . S
C396 H383 0.961 . S
C396 H384 0.959 . S
C396 C394 1.561 . S
C397 C394 1.526 . S
C397 C398 1.396 1_556 S
C397 C402 1.390 . S
C398 C392 1.465 . S
C398 C397 1.396 1_554 S
C398 C399 1.399 . S
C399 H385 0.929 . S
C399 C398 1.399 . S
C399 C400 1.385 . S
C400 H386 0.931 . S
C400 C399 1.385 . S
C400 C401 1.388 . S
C401 C400 1.388 . S
C401 C402 1.388 1_554 S
C402 H387 0.930 . S
C402 C397 1.390 . S
C402 C401 1.388 1_556 S
H403 C415 0.930 . S
H404 C417 0.930 . S
H405 C418 0.930 . S
H406 C422 0.959 . S
H407 C422 0.959 1_545 S
H408 C422 0.961 . S
H409 C423 0.960 . S
H410 C423 0.961 1_545 S
H411 C423 0.959 . S
H412 C426 0.929 . S
H413 C427 0.931 . S
H414 C429 0.930 . S
C415 H403 0.930 . S
C415 C416 1.399 1_556 S
C415 C420 1.399 . S
C416 C415 1.399 1_554 S
C416 C417 1.376 . S
C417 H404 0.930 . S
C417 C416 1.376 . S
C417 C418 1.388 . S
C418 H405 0.930 . S
C418 C417 1.388 . S
C418 C419 1.390 . S
C419 C418 1.390 . S
C419 C420 1.394 1_554 S
C419 C425 1.465 1_565 S
C420 C415 1.399 . S
C420 C419 1.394 1_556 S
C420 C421 1.516 . S
C421 C420 1.516 . S
C421 C422 1.502 . S
C421 C423 1.561 . S
C421 C424 1.526 1_565 S
C422 H406 0.959 . S
C422 H407 0.959 1_565 S
C422 H408 0.961 . S
C422 C421 1.502 . S
C423 H409 0.960 . S
C423 H410 0.961 1_565 S
C423 H411 0.959 . S
C423 C421 1.561 . S
C424 C421 1.526 1_545 S
C424 C425 1.396 1_556 S
C424 C429 1.390 . S
C425 C419 1.465 1_545 S
C425 C424 1.396 1_554 S
C425 C426 1.399 . S
C426 H412 0.929 . S
C426 C425 1.399 . S
C426 C427 1.385 . S
C427 H413 0.931 . S
C427 C426 1.385 . S
C427 C428 1.389 1_554 S
C428 C427 1.389 1_556 S
C428 C429 1.387 . S
C429 H414 0.930 . S
C429 C424 1.390 . S
C429 C428 1.387 . S
H430 C442 0.930 . S
H431 C444 0.930 . S
H432 C445 0.930 . S
H433 C449 0.959 . S
H434 C449 0.959 . S
H435 C449 0.961 . S
H436 C450 0.960 . S
H437 C450 0.961 . S
H438 C450 0.959 . S
H439 C453 0.929 . S
H440 C454 0.931 . S
H441 C456 0.930 . S
C442 H430 0.930 . S
C442 C443 1.399 1_554 S
C442 C447 1.399 . S
C443 C442 1.399 1_556 S
C443 C444 1.376 . S
C444 H431 0.930 . S
C444 C443 1.376 . S
C444 C445 1.388 . S
C445 H432 0.930 . S
C445 C444 1.388 . S
C445 C446 1.390 . S
C446 C445 1.390 . S
C446 C447 1.394 1_556 S
C446 C452 1.465 . S
C447 C442 1.399 . S
C447 C446 1.394 1_554 S
C447 C448 1.516 . S
C448 C447 1.516 . S
C448 C449 1.502 . S
C448 C450 1.561 . S
C448 C451 1.526 . S
C449 H433 0.959 . S
C449 H434 0.959 . S
C449 H435 0.961 . S
C449 C448 1.502 . S
C450 H436 0.960 . S
C450 H437 0.961 . S
C450 H438 0.959 . S
C450 C448 1.561 . S
C451 C448 1.526 . S
C451 C452 1.396 1_554 S
C451 C456 1.390 . S
C452 C446 1.465 . S
C452 C451 1.396 1_556 S
C452 C453 1.399 . S
C453 H439 0.929 . S
C453 C452 1.399 . S
C453 C454 1.385 . S
C454 H440 0.931 . S
C454 C453 1.385 . S
C454 C455 1.395 . S
C455 C454 1.395 . S
C455 C456 1.382 1_556 S
C456 H441 0.930 . S
C456 C451 1.390 . S
C456 C455 1.382 1_554 S
H457 C469 0.930 . S
H458 C471 0.930 . S
H459 C472 0.930 . S
H460 C476 0.959 . S
H461 C476 0.959 . S
H462 C476 0.961 1_545 S
H463 C477 0.960 1_545 S
H464 C477 0.961 . S
H465 C477 0.959 . S
H466 C480 0.929 . S
H467 C481 0.931 . S
H468 C483 0.930 . S
C469 H457 0.930 . S
C469 C470 1.399 . S
C469 C474 1.399 . S
C470 C469 1.399 . S
C470 C471 1.376 1_556 S
C471 H458 0.930 . S
C471 C470 1.376 1_554 S
C471 C472 1.388 . S
C472 H459 0.930 . S
C472 C471 1.388 . S
C472 C473 1.390 . S
C473 C472 1.390 . S
C473 C474 1.394 1_554 S
C473 C479 1.465 1_545 S
C474 C469 1.399 . S
C474 C473 1.394 1_556 S
C474 C475 1.516 1_545 S
C475 C474 1.516 1_565 S
C475 C476 1.502 . S
C475 C477 1.561 . S
C475 C478 1.526 . S
C476 H460 0.959 . S
C476 H461 0.959 . S
C476 H462 0.961 1_565 S
C476 C475 1.502 . S
C477 H463 0.960 1_565 S
C477 H464 0.961 . S
C477 H465 0.959 . S
C477 C475 1.561 . S
C478 C475 1.526 . S
C478 C479 1.396 1_556 S
C478 C483 1.390 . S
C479 C473 1.465 1_565 S
C479 C478 1.396 1_554 S
C479 C480 1.399 . S
C480 H466 0.929 . S
C480 C479 1.399 . S
C480 C481 1.385 . S
C481 H467 0.931 . S
C481 C480 1.385 . S
C481 C482 1.389 . S
C482 C481 1.389 . S
C482 C483 1.387 1_554 S
C483 H468 0.930 . S
C483 C478 1.390 . S
C483 C482 1.387 1_556 S
H484 C496 0.930 . S
H485 C498 0.930 . S
H486 C499 0.930 . S
H487 C503 0.959 . S
H488 C503 0.959 . S
H489 C503 0.961 1_554 S
H490 C504 0.960 . S
H491 C504 0.961 1_556 S
H492 C504 0.959 . S
H493 C507 0.929 . S
H494 C508 0.931 . S
H495 C510 0.930 . S
C496 H484 0.930 . S
C496 C497 1.399 . S
C496 C501 1.399 . S
C497 C496 1.399 . S
C497 C498 1.376 . S
C498 H485 0.930 . S
C498 C497 1.376 . S
C498 C499 1.388 . S
C499 H486 0.930 . S
C499 C498 1.388 . S
C499 C500 1.390 . S
C500 C499 1.390 . S
C500 C501 1.394 . S
C500 C506 1.465 1_554 S
C501 C496 1.399 . S
C501 C500 1.394 . S
C501 C502 1.516 . S
C502 C501 1.516 . S
C502 C503 1.502 1_554 S
C502 C504 1.561 . S
C502 C505 1.526 1_554 S
C503 H487 0.959 . S
C503 H488 0.959 . S
C503 H489 0.961 1_556 S
C503 C502 1.502 1_556 S
C504 H490 0.960 . S
C504 H491 0.961 1_554 S
C504 H492 0.959 . S
C504 C502 1.561 . S
C505 C502 1.526 1_556 S
C505 C506 1.396 . S
C505 C510 1.390 . S
C506 C500 1.465 1_556 S
C506 C505 1.396 . S
C506 C507 1.399 . S
C507 H493 0.929 . S
C507 C506 1.399 . S
C507 C508 1.385 . S
C508 H494 0.931 . S
C508 C507 1.385 . S
C508 C509 1.389 . S
C509 C508 1.389 . S
C509 C510 1.387 . S
C510 H495 0.930 . S
C510 C505 1.390 . S
C510 C509 1.387 . S
H511 C523 0.930 . S
H512 C525 0.930 . S
H513 C526 0.930 . S
H514 C530 0.959 . S
H515 C530 0.959 . S
H516 C530 0.961 . S
H517 C531 0.960 . S
H518 C531 0.961 1_556 S
H519 C531 0.959 . S
H520 C534 0.929 . S
H521 C535 0.931 . S
H522 C537 0.930 . S
C523 H511 0.930 . S
C523 C524 1.399 . S
C523 C528 1.399 . S
C524 C523 1.399 . S
C524 C525 1.376 . S
C525 H512 0.930 . S
C525 C524 1.376 . S
C525 C526 1.388 . S
C526 H513 0.930 . S
C526 C525 1.388 . S
C526 C527 1.390 . S
C527 C526 1.390 . S
C527 C528 1.394 . S
C527 C533 1.465 1_554 S
C528 C523 1.399 . S
C528 C527 1.394 . S
C528 C529 1.516 . S
C529 C528 1.516 . S
C529 C530 1.502 . S
C529 C531 1.561 . S
C529 C532 1.526 1_554 S
C530 H514 0.959 . S
C530 H515 0.959 . S
C530 H516 0.961 . S
C530 C529 1.502 . S
C531 H517 0.960 . S
C531 H518 0.961 1_554 S
C531 H519 0.959 . S
C531 C529 1.561 . S
C532 C529 1.526 1_556 S
C532 C533 1.396 . S
C532 C537 1.390 . S
C533 C527 1.465 1_556 S
C533 C532 1.396 . S
C533 C534 1.399 . S
C534 H520 0.929 . S
C534 C533 1.399 . S
C534 C535 1.385 . S
C535 H521 0.931 . S
C535 C534 1.385 . S
C535 C536 1.389 . S
C536 C535 1.389 . S
C536 C537 1.387 . S
C537 H522 0.930 . S
C537 C532 1.390 . S
C537 C536 1.387 . S
H538 C550 0.930 . S
H539 C552 0.930 . S
H540 C553 0.930 . S
H541 C557 0.959 . S
H542 C557 0.959 1_556 S
H543 C557 0.961 . S
H544 C558 0.960 . S
H545 C558 0.961 1_556 S
H546 C558 0.959 1_556 S
H547 C561 0.929 . S
H548 C562 0.931 . S
H549 C564 0.930 . S
C550 H538 0.930 . S
C550 C551 1.399 . S
C550 C555 1.399 . S
C551 C550 1.399 . S
C551 C552 1.376 . S
C552 H539 0.930 . S
C552 C551 1.376 . S
C552 C553 1.388 . S
C553 H540 0.930 . S
C553 C552 1.388 . S
C553 C554 1.390 . S
C554 C553 1.390 . S
C554 C555 1.394 . S
C554 C560 1.465 1_554 S
C555 C550 1.399 . S
C555 C554 1.394 . S
C555 C556 1.516 . S
C556 C555 1.516 . S
C556 C557 1.502 . S
C556 C558 1.561 . S
C556 C559 1.526 1_554 S
C557 H541 0.959 . S
C557 H542 0.959 1_554 S
C557 H543 0.961 . S
C557 C556 1.502 . S
C558 H544 0.960 . S
C558 H545 0.961 1_554 S
C558 H546 0.959 1_554 S
C558 C556 1.561 . S
C559 C556 1.526 1_556 S
C559 C560 1.396 . S
C559 C564 1.390 . S
C560 C554 1.465 1_556 S
C560 C559 1.396 . S
C560 C561 1.399 . S
C561 H547 0.929 . S
C561 C560 1.399 . S
C561 C562 1.385 . S
C562 H548 0.931 . S
C562 C561 1.385 . S
C562 C563 1.389 . S
C563 C562 1.389 . S
C563 C564 1.387 . S
C564 H549 0.930 . S
C564 C559 1.390 . S
C564 C563 1.387 . S
H565 C577 0.930 . S
H566 C579 0.930 . S
H567 C580 0.930 . S
H568 C584 0.959 . S
H569 C584 0.959 . S
H570 C584 0.961 . S
H571 C585 0.960 . S
H572 C585 0.960 . S
H573 C585 0.959 . S
H574 C588 0.929 . S
H575 C589 0.931 . S
H576 C591 0.930 . S
C577 H565 0.930 . S
C577 C578 1.399 . S
C577 C582 1.399 . S
C578 C577 1.399 . S
C578 C579 1.376 . S
C579 H566 0.930 . S
C579 C578 1.376 . S
C579 C580 1.388 . S
C580 H567 0.930 . S
C580 C579 1.388 . S
C580 C581 1.390 . S
C581 C580 1.390 . S
C581 C582 1.394 . S
C581 C587 1.465 1_556 S
C582 C577 1.399 . S
C582 C581 1.394 . S
C582 C583 1.516 . S
C583 C582 1.516 . S
C583 C584 1.502 . S
C583 C585 1.561 . S
C583 C586 1.526 1_556 S
C584 H568 0.959 . S
C584 H569 0.959 . S
C584 H570 0.961 . S
C584 C583 1.502 . S
C585 H571 0.960 . S
C585 H572 0.960 . S
C585 H573 0.959 . S
C585 C583 1.561 . S
C586 C583 1.526 1_554 S
C586 C587 1.396 . S
C586 C591 1.390 . S
C587 C581 1.465 1_554 S
C587 C586 1.396 . S
C587 C588 1.399 . S
C588 H574 0.929 . S
C588 C587 1.399 . S
C588 C589 1.385 . S
C589 H575 0.931 . S
C589 C588 1.385 . S
C589 C590 1.389 . S
C590 C589 1.389 . S
C590 C591 1.387 . S
C591 H576 0.930 . S
C591 C586 1.390 . S
C591 C590 1.387 . S
H592 C604 0.930 . S
H593 C606 0.930 . S
H594 C607 0.930 . S
H595 C611 0.959 . S
H596 C611 0.959 . S
H597 C611 0.961 . S
H598 C612 0.960 . S
H599 C612 0.961 . S
H600 C612 0.959 . S
H601 C615 0.929 . S
H602 C616 0.931 . S
H603 C618 0.930 . S
C604 H592 0.930 . S
C604 C605 1.399 . S
C604 C609 1.399 . S
C605 C604 1.399 . S
C605 C606 1.376 . S
C606 H593 0.930 . S
C606 C605 1.376 . S
C606 C607 1.388 . S
C607 H594 0.930 . S
C607 C606 1.388 . S
C607 C608 1.390 . S
C608 C607 1.390 . S
C608 C609 1.394 . S
C608 C614 1.465 . S
C609 C604 1.399 . S
C609 C608 1.394 . S
C609 C610 1.516 . S
C610 C609 1.516 . S
C610 C611 1.502 . S
C610 C612 1.561 . S
C610 C613 1.526 . S
C611 H595 0.959 . S
C611 H596 0.959 . S
C611 H597 0.961 . S
C611 C610 1.502 . S
C612 H598 0.960 . S
C612 H599 0.961 . S
C612 H600 0.959 . S
C612 C610 1.561 . S
C613 C610 1.526 . S
C613 C614 1.396 . S
C613 C618 1.390 . S
C614 C608 1.465 . S
C614 C613 1.396 . S
C614 C615 1.399 . S
C615 H601 0.929 . S
C615 C614 1.399 . S
C615 C616 1.385 . S
C616 H602 0.931 . S
C616 C615 1.385 . S
C616 C617 1.389 . S
C617 C616 1.389 . S
C617 C618 1.387 . S
C618 H603 0.930 . S
C618 C613 1.390 . S
C618 C617 1.387 . S
H619 C631 0.930 . S
H620 C633 0.930 . S
H621 C634 0.930 . S
H622 C638 0.959 . S
H623 C638 0.959 . S
H624 C638 0.961 . S
H625 C639 0.960 . S
H626 C639 0.961 . S
H627 C639 0.959 . S
H628 C642 0.929 . S
H629 C643 0.931 . S
H630 C645 0.930 . S
C631 H619 0.930 . S
C631 C632 1.399 . S
C631 C636 1.399 . S
C632 C631 1.399 . S
C632 C633 1.376 . S
C633 H620 0.930 . S
C633 C632 1.376 . S
C633 C634 1.388 . S
C634 H621 0.930 . S
C634 C633 1.388 . S
C634 C635 1.390 . S
C635 C634 1.390 . S
C635 C636 1.394 . S
C635 C641 1.465 . S
C636 C631 1.399 . S
C636 C635 1.394 . S
C636 C637 1.516 . S
C637 C636 1.516 . S
C637 C638 1.502 . S
C637 C639 1.561 . S
C637 C640 1.526 . S
C638 H622 0.959 . S
C638 H623 0.959 . S
C638 H624 0.961 . S
C638 C637 1.502 . S
C639 H625 0.960 . S
C639 H626 0.961 . S
C639 H627 0.959 . S
C639 C637 1.561 . S
C640 C637 1.526 . S
C640 C641 1.396 . S
C640 C645 1.390 . S
C641 C635 1.465 . S
C641 C640 1.396 . S
C641 C642 1.399 . S
C642 H628 0.929 . S
C642 C641 1.399 . S
C642 C643 1.385 . S
C643 H629 0.931 . S
C643 C642 1.385 . S
C643 C644 1.389 . S
C644 C643 1.389 . S
C644 C645 1.387 . S
C645 H630 0.930 . S
C645 C640 1.390 . S
C645 C644 1.387 . S
H646 C658 0.930 . S
H647 C660 0.930 . S
H648 C661 0.930 . S
H649 C665 0.959 . S
H650 C665 0.959 . S
H651 C665 0.961 . S
H652 C666 0.960 . S
H653 C666 0.961 . S
H654 C666 0.959 . S
H655 C669 0.929 . S
H656 C670 0.931 . S
H657 C672 0.930 . S
C658 H646 0.930 . S
C658 C659 1.399 . S
C658 C663 1.399 . S
C659 C658 1.399 . S
C659 C660 1.376 . S
C660 H647 0.930 . S
C660 C659 1.376 . S
C660 C661 1.388 . S
C661 H648 0.930 . S
C661 C660 1.388 . S
C661 C662 1.390 . S
C662 C661 1.390 . S
C662 C663 1.394 . S
C662 C668 1.465 . S
C663 C658 1.399 . S
C663 C662 1.394 . S
C663 C664 1.516 . S
C664 C663 1.516 . S
C664 C665 1.502 . S
C664 C666 1.561 . S
C664 C667 1.526 . S
C665 H649 0.959 . S
C665 H650 0.959 . S
C665 H651 0.961 . S
C665 C664 1.502 . S
C666 H652 0.960 . S
C666 H653 0.961 . S
C666 H654 0.959 . S
C666 C664 1.561 . S
C667 C664 1.526 . S
C667 C668 1.396 . S
C667 C672 1.390 . S
C668 C662 1.465 . S
C668 C667 1.396 . S
C668 C669 1.399 . S
C669 H655 0.929 . S
C669 C668 1.399 . S
C669 C670 1.385 . S
C670 H656 0.931 . S
C670 C669 1.385 . S
C670 C671 1.389 . S
C671 C670 1.389 . S
C671 C672 1.387 . S
C672 H657 0.930 . S
C672 C667 1.390 . S
C672 C671 1.387 . S
H673 C685 0.930 . S
H674 C687 0.930 . S
H675 C688 0.930 . S
H676 C692 0.959 . S
H677 C692 0.959 . S
H678 C692 0.961 . S
H679 C693 0.960 . S
H680 C693 0.961 . S
H681 C693 0.959 . S
H682 C696 0.929 . S
H683 C697 0.931 . S
H684 C699 0.930 . S
C685 H673 0.930 . S
C685 C686 1.399 . S
C685 C690 1.399 . S
C686 C685 1.399 . S
C686 C687 1.376 . S
C687 H674 0.930 . S
C687 C686 1.376 . S
C687 C688 1.388 . S
C688 H675 0.930 . S
C688 C687 1.388 . S
C688 C689 1.390 . S
C689 C688 1.390 . S
C689 C690 1.394 . S
C689 C695 1.465 . S
C690 C685 1.399 . S
C690 C689 1.394 . S
C690 C691 1.516 . S
C691 C690 1.516 . S
C691 C692 1.502 . S
C691 C693 1.561 . S
C691 C694 1.526 . S
C692 H676 0.959 . S
C692 H677 0.959 . S
C692 H678 0.961 . S
C692 C691 1.502 . S
C693 H679 0.960 . S
C693 H680 0.961 . S
C693 H681 0.959 . S
C693 C691 1.561 . S
C694 C691 1.526 . S
C694 C695 1.396 . S
C694 C699 1.390 . S
C695 C689 1.465 . S
C695 C694 1.396 . S
C695 C696 1.399 . S
C696 H682 0.929 . S
C696 C695 1.399 . S
C696 C697 1.385 . S
C697 H683 0.931 . S
C697 C696 1.385 . S
C697 C698 1.389 . S
C698 C697 1.389 . S
C698 C699 1.387 . S
C699 H684 0.930 . S
C699 C694 1.390 . S
C699 C698 1.387 . S
H700 C712 0.930 . S
H701 C714 0.930 . S
H702 C715 0.930 . S
H703 C719 0.962 . S
H704 C719 0.979 . S
H705 C719 0.939 1_455 S
H706 C720 0.957 1_455 S
H707 C720 0.963 . S
H708 C720 0.959 . S
H709 C723 0.929 . S
H710 C724 0.931 . S
H711 C726 0.930 . S
C712 H700 0.930 . S
C712 C713 1.399 . S
C712 C717 1.399 . S
C713 C712 1.399 . S
C713 C714 1.376 . S
C714 H701 0.930 . S
C714 C713 1.376 . S
C714 C715 1.388 . S
C715 H702 0.930 . S
C715 C714 1.388 . S
C715 C716 1.390 . S
C716 C715 1.390 . S
C716 C717 1.394 . S
C716 C722 1.465 1_455 S
C717 C712 1.399 . S
C717 C716 1.394 . S
C717 C718 1.517 1_455 S
C718 C717 1.517 1_655 S
C718 C719 1.502 . S
C718 C720 1.561 . S
C718 C721 1.525 . S
C719 H703 0.962 . S
C719 H704 0.979 . S
C719 H705 0.939 1_655 S
C719 C718 1.502 . S
C720 H706 0.957 1_655 S
C720 H707 0.963 . S
C720 H708 0.959 . S
C720 C718 1.561 . S
C721 C718 1.525 . S
C721 C722 1.396 . S
C721 C726 1.390 . S
C722 C716 1.465 1_655 S
C722 C721 1.396 . S
C722 C723 1.399 . S
C723 H709 0.929 . S
C723 C722 1.399 . S
C723 C724 1.385 . S
C724 H710 0.931 . S
C724 C723 1.385 . S
C724 C725 1.389 . S
C725 C724 1.389 . S
C725 C726 1.387 . S
C726 H711 0.930 . S
C726 C721 1.390 . S
C726 C725 1.387 . S
H727 C739 0.930 . S
H728 C741 0.930 . S
H729 C742 0.930 . S
H730 C746 0.962 . S
H731 C746 0.979 . S
H732 C746 0.939 1_655 S
H733 C747 0.957 1_655 S
H734 C747 0.963 . S
H735 C747 0.959 . S
H736 C750 0.929 . S
H737 C751 0.931 . S
H738 C753 0.930 . S
C739 H727 0.930 . S
C739 C740 1.399 . S
C739 C744 1.399 . S
C740 C739 1.399 . S
C740 C741 1.376 . S
C741 H728 0.930 . S
C741 C740 1.376 . S
C741 C742 1.388 . S
C742 H729 0.930 . S
C742 C741 1.388 . S
C742 C743 1.390 . S
C743 C742 1.390 . S
C743 C744 1.394 . S
C743 C749 1.465 1_655 S
C744 C739 1.399 . S
C744 C743 1.394 . S
C744 C745 1.517 1_655 S
C745 C744 1.517 1_455 S
C745 C746 1.502 . S
C745 C747 1.561 . S
C745 C748 1.525 . S
C746 H730 0.962 . S
C746 H731 0.979 . S
C746 H732 0.939 1_455 S
C746 C745 1.502 . S
C747 H733 0.957 1_455 S
C747 H734 0.963 . S
C747 H735 0.959 . S
C747 C745 1.561 . S
C748 C745 1.525 . S
C748 C749 1.396 . S
C748 C753 1.390 . S
C749 C743 1.465 1_455 S
C749 C748 1.396 . S
C749 C750 1.399 . S
C750 H736 0.929 . S
C750 C749 1.399 . S
C750 C751 1.385 . S
C751 H737 0.931 . S
C751 C750 1.385 . S
C751 C752 1.389 . S
C752 C751 1.389 . S
C752 C753 1.387 . S
C753 H738 0.930 . S
C753 C748 1.390 . S
C753 C752 1.387 . S
H754 C766 0.930 1_554 S
H755 C768 0.930 . S
H756 C769 0.930 . S
H757 C773 0.959 . S
H758 C773 0.959 . S
H759 C773 0.961 . S
H760 C774 0.960 . S
H761 C774 0.961 . S
H762 C774 0.959 . S
H763 C777 0.929 . S
H764 C778 0.931 . S
H765 C780 0.930 1_554 S
C766 H754 0.930 1_556 S
C766 C767 1.399 . S
C766 C771 1.399 . S
C767 C766 1.399 . S
C767 C768 1.376 . S
C768 H755 0.930 . S
C768 C767 1.376 . S
C768 C769 1.388 . S
C769 H756 0.930 . S
C769 C768 1.388 . S
C769 C770 1.390 . S
C770 C769 1.390 . S
C770 C771 1.394 . S
C770 C776 1.465 . S
C771 C766 1.399 . S
C771 C770 1.394 . S
C771 C772 1.516 1_556 S
C772 C771 1.516 1_554 S
C772 C773 1.502 . S
C772 C774 1.561 . S
C772 C775 1.526 1_554 S
C773 H757 0.959 . S
C773 H758 0.959 . S
C773 H759 0.961 . S
C773 C772 1.502 . S
C774 H760 0.960 . S
C774 H761 0.961 . S
C774 H762 0.959 . S
C774 C772 1.561 . S
C775 C772 1.526 1_556 S
C775 C776 1.396 . S
C775 C780 1.390 . S
C776 C770 1.465 . S
C776 C775 1.396 . S
C776 C777 1.399 . S
C777 H763 0.929 . S
C777 C776 1.399 . S
C777 C778 1.385 . S
C778 H764 0.931 . S
C778 C777 1.385 . S
C778 C779 1.389 . S
C779 C778 1.389 . S
C779 C780 1.387 . S
C780 H765 0.930 1_556 S
C780 C775 1.390 . S
C780 C779 1.387 . S
H781 C793 0.930 . S
H782 C795 0.930 . S
H783 C796 0.930 . S
H784 C800 0.959 . S
H785 C800 0.959 . S
H786 C800 0.961 . S
H787 C801 0.960 . S
H788 C801 0.961 . S
H789 C801 0.959 1_556 S
H790 C804 0.929 . S
H791 C805 0.931 . S
H792 C807 0.930 . S
C793 H781 0.930 . S
C793 C794 1.399 . S
C793 C798 1.399 . S
C794 C793 1.399 . S
C794 C795 1.376 . S
C795 H782 0.930 . S
C795 C794 1.376 . S
C795 C796 1.388 . S
C796 H783 0.930 . S
C796 C795 1.388 . S
C796 C797 1.390 . S
C797 C796 1.390 . S
C797 C798 1.394 . S
C797 C803 1.465 . S
C798 C793 1.399 . S
C798 C797 1.394 . S
C798 C799 1.516 . S
C799 C798 1.516 . S
C799 C800 1.502 . S
C799 C801 1.561 . S
C799 C802 1.526 . S
C800 H784 0.959 . S
C800 H785 0.959 . S
C800 H786 0.961 . S
C800 C799 1.502 . S
C801 H787 0.960 . S
C801 H788 0.961 . S
C801 H789 0.959 1_554 S
C801 C799 1.561 . S
C802 C799 1.526 . S
C802 C803 1.396 . S
C802 C807 1.390 . S
C803 C797 1.465 . S
C803 C802 1.396 . S
C803 C804 1.399 . S
C804 H790 0.929 . S
C804 C803 1.399 . S
C804 C805 1.385 . S
C805 H791 0.931 . S
C805 C804 1.385 . S
C805 C806 1.389 . S
C806 C805 1.389 . S
C806 C807 1.387 . S
C807 H792 0.930 . S
C807 C802 1.390 . S
C807 C806 1.387 . S
C173 C19 1.773 . S
C185 C148 1.822 . S
C200 C139 1.823 . S
C212 C28 1.776 . S
C227 C108 1.798 . S
C239 C59 1.807 . S
C254 C99 1.774 . S
C266 C68 1.821 . S
C281 C41 1.781 . S
C293 C1 1.760 . S
C308 C21 1.252 . S
C320 C61 1.243 . S
C335 C69 1.757 . S
C347 C29 1.743 . S
C362 C49 1.207 . S
C374 C9 1.202 . S
C389 C81 1.781 . S
C401 C121 1.759 1_554 S
C416 C101 1.198 . S
C428 C141 1.217 . S
C443 C149 1.756 . S
C455 C109 1.743 1_556 S
C470 C129 1.210 . S
C482 C89 1.205 . S
C497 C16 1.449 . S
C509 C6 1.538 . S
C524 C26 1.522 . S
C536 C36 1.480 . S
C551 C46 1.525 . S
C563 C56 1.476 . S
C578 C66 1.530 . S
C590 C76 1.470 . S
C605 C86 1.529 . S
C617 C96 1.471 . S
C632 C106 1.457 . S
C644 C116 1.522 . S
C659 C136 1.528 . S
C671 C126 1.472 . S
C686 C146 1.536 . S
C698 C156 1.460 . S
C713 C8 1.756 . S
C725 C39 1.758 . S
C740 C79 1.762 . S
C752 C48 1.773 . S
C767 C88 1.860 . S
C779 C119 1.858 . S
C794 C159 1.760 . S
C806 C128 1.771 . S
