# Generated by pormake.
# Topology wiu, (6)-cn, num edge types: 1
# Building blocks:
#     Node 0, Type 0, BuildingBlock: CIFDUS_clean_sbu_1, # of connection points: 6
#     Node 1, Type 0, BuildingBlock: CIFDUS_clean_sbu_1, # of connection points: 6
#     Node 2, Type 0, BuildingBlock: CIFDUS_clean_sbu_1, # of connection points: 6
#     Node 3, Type 0, BuildingBlock: CIFDUS_clean_sbu_1, # of connection points: 6
#     Node 4, Type 0, BuildingBlock: CIFDUS_clean_sbu_1, # of connection points: 6
#     Node 5, Type 0, BuildingBlock: CIFDUS_clean_sbu_1, # of connection points: 6
#     Node 6, Type 0, BuildingBlock: CIFDUS_clean_sbu_1, # of connection points: 6
#     Node 7, Type 0, BuildingBlock: CIFDUS_clean_sbu_1, # of connection points: 6
#     Node 8, Type 0, BuildingBlock: CIFDUS_clean_sbu_1, # of connection points: 6
#     Node 9, Type 0, BuildingBlock: CIFDUS_clean_sbu_1, # of connection points: 6
#     Node 10, Type 0, BuildingBlock: CIFDUS_clean_sbu_1, # of connection points: 6
#     Node 11, Type 0, BuildingBlock: CIFDUS_clean_sbu_1, # of connection points: 6
#     Node 12, Type 0, BuildingBlock: CIFDUS_clean_sbu_1, # of connection points: 6
#     Node 13, Type 0, BuildingBlock: CIFDUS_clean_sbu_1, # of connection points: 6
#     Node 14, Type 0, BuildingBlock: CIFDUS_clean_sbu_1, # of connection points: 6
#     Node 15, Type 0, BuildingBlock: CIFDUS_clean_sbu_1, # of connection points: 6
#     Edge 16, Type (0, 0), None
#     Edge 17, Type (0, 0), None
#     Edge 18, Type (0, 0), None
#     Edge 19, Type (0, 0), None
#     Edge 20, Type (0, 0), None
#     Edge 21, Type (0, 0), None
#     Edge 22, Type (0, 0), None
#     Edge 23, Type (0, 0), None
#     Edge 24, Type (0, 0), None
#     Edge 25, Type (0, 0), None
#     Edge 26, Type (0, 0), None
#     Edge 27, Type (0, 0), None
#     Edge 28, Type (0, 0), None
#     Edge 29, Type (0, 0), None
#     Edge 30, Type (0, 0), None
#     Edge 31, Type (0, 0), None
#     Edge 32, Type (0, 0), None
#     Edge 33, Type (0, 0), None
#     Edge 34, Type (0, 0), None
#     Edge 35, Type (0, 0), None
#     Edge 36, Type (0, 0), None
#     Edge 37, Type (0, 0), None
#     Edge 38, Type (0, 0), None
#     Edge 39, Type (0, 0), None
#     Edge 40, Type (0, 0), None
#     Edge 41, Type (0, 0), None
#     Edge 42, Type (0, 0), None
#     Edge 43, Type (0, 0), None
#     Edge 44, Type (0, 0), None
#     Edge 45, Type (0, 0), None
#     Edge 46, Type (0, 0), None
#     Edge 47, Type (0, 0), None
#     Edge 48, Type (0, 0), None
#     Edge 49, Type (0, 0), None
#     Edge 50, Type (0, 0), None
#     Edge 51, Type (0, 0), None
#     Edge 52, Type (0, 0), None
#     Edge 53, Type (0, 0), None
#     Edge 54, Type (0, 0), None
#     Edge 55, Type (0, 0), None
#     Edge 56, Type (0, 0), None
#     Edge 57, Type (0, 0), None
#     Edge 58, Type (0, 0), None
#     Edge 59, Type (0, 0), None
#     Edge 60, Type (0, 0), None
#     Edge 61, Type (0, 0), None
#     Edge 62, Type (0, 0), None
#     Edge 63, Type (0, 0), None
# Relax obj value: 0.203
# Max RMSD: 0.208
# Mean RMSD: 0.208
data_MOF--net-wiu--node1-CIFDUS_clean_sbu_1--edge1-none
_symmetry_space_group_name_H-M    P1
_symmetry_Int_Tables_number       1
_symmetry_cell_setting            triclinic
loop_
_symmetry_equiv_pos_as_xyz
'x, y, z'
_cell_length_a     13.999969
_cell_length_b     13.999912
_cell_length_c     26.862983
_cell_angle_alpha  90.000005
_cell_angle_beta   89.999995
_cell_angle_gamma 89.999997
loop_
_atom_site_label
_atom_site_type_symbol
_atom_site_fract_x
_atom_site_fract_y
_atom_site_fract_z
_atom_type_partial_charge
O0 O 0.41407 0.03254 0.02249 0.0
Mn1 Mn 0.34328 0.12224 0.07269 0.0
O2 O 0.56076 1.0158 0.05488 0.0
Mn3 Mn 0.52619 0.04442 0.11956 0.0
O4 O 0.2865 0.23012 0.12005 0.0
O5 O 0.28902 0.18831 0.01168 0.0
Mn6 Mn 0.17817 0.23768 0.03133 0.0
O7 O 0.21742 0.0419 0.0826 0.0
O8 O 0.23418 0.33835 0.06556 0.0
O9 O 0.45951 0.20743 0.06736 0.0
O10 O 0.5519 0.17105 0.13202 0.0
O11 O 0.16352 0.19623 0.96689 0.0
O12 O 0.10992 0.15909 0.07335 0.0
C13 C 0.42791 1.00562 0.17304 0.0
C14 C 0.50614 1.027 0.0177 0.0
C15 C 0.26705 0.31818 0.10865 0.0
C16 C 0.24983 0.16519 0.96966 0.0
C17 C 0.1324 0.07631 0.08825 0.0
C18 C 0.51218 0.23166 0.10361 0.0
O19 O 0.40135 0.04627 0.13125 0.0
O20 O 0.50992 0.96238 0.17144 0.0
O21 O 0.7662 0.46749 0.33249 0.0
Mn22 Mn 0.6858 0.59334 0.32263 0.0
O23 O 0.64906 0.35993 0.32324 0.0
Mn24 Mn 0.57039 0.42819 0.28127 0.0
O25 O 0.60055 0.70953 0.31733 0.0
O26 O 0.76179 0.65141 0.38117 0.0
Mn27 Mn 0.76359 0.77625 0.36951 0.0
O28 O 0.77543 0.66417 0.27241 0.0
O29 O 0.63697 0.80192 0.38198 0.0
O30 O 0.57798 0.53652 0.37 0.0
O31 O 0.46972 0.48413 0.31555 0.0
O32 O 0.84566 0.75997 0.42138 0.0
O33 O 0.79215 0.81085 0.30482 0.0
C34 C 0.64277 0.49993 0.21958 0.0
C35 C 0.73184 0.38244 0.33813 0.0
C36 C 0.57634 0.76219 0.3536 0.0
C37 C 0.80244 0.67795 0.42297 0.0
C38 C 0.78092 0.75624 0.26763 0.0
C39 C 0.48992 0.51705 0.35862 0.0
O40 O 0.61969 0.53908 0.26162 0.0
O41 O 0.61174 0.41361 0.21681 0.0
O42 O 0.34051 1.01604 0.5826 0.0
Mn43 Mn 0.21465 0.9357 0.57269 0.0
O44 O 0.44801 0.89884 0.57335 0.0
Mn45 Mn 0.37976 0.82026 0.53133 0.0
O46 O 0.09842 0.8505 0.56736 0.0
O47 O 0.15658 1.01167 0.63125 0.0
Mn48 Mn 0.03174 1.01351 0.61956 0.0
O49 O 0.14386 1.0254 0.52249 0.0
O50 O 1.00603 0.88689 0.63202 0.0
O51 O 0.27143 0.82781 0.62005 0.0
O52 O 0.32375 0.71958 0.56556 0.0
O53 O 0.04801 0.09555 0.67144 0.0
O54 O 0.99718 0.04214 0.55488 0.0
C55 C 0.3081 0.89275 0.46966 0.0
C56 C 0.42553 0.98162 0.58825 0.0
C57 C 0.04575 0.82627 0.60361 0.0
C58 C 0.13002 0.05232 0.67304 0.0
C59 C 0.05179 0.03094 0.5177 0.0
C60 C 0.29088 0.73975 0.60865 0.0
O61 O 0.26891 0.86963 0.51168 0.0
O62 O 0.39441 0.8617 0.46689 0.0
O63 O 0.79174 0.59044 0.83249 0.0
Mn64 Mn 0.87213 0.4646 0.82263 0.0
O65 O 0.90887 0.698 0.82324 0.0
Mn66 Mn 0.98754 0.62974 0.78127 0.0
O67 O 0.95738 0.3484 0.81733 0.0
O68 O 0.79614 0.40652 0.88117 0.0
Mn69 Mn 0.79434 0.28168 0.86951 0.0
O70 O 0.7825 0.39376 0.77241 0.0
O71 O 0.92096 0.25601 0.88198 0.0
O72 O 0.97995 0.52142 0.87 0.0
O73 O 0.08821 0.57381 0.81555 0.0
O74 O 0.71227 0.29797 0.92138 0.0
O75 O 0.76578 0.24708 0.80482 0.0
C76 C 0.91516 0.55801 0.71958 0.0
C77 C 0.82609 0.67549 0.83813 0.0
C78 C 0.98159 0.29574 0.8536 0.0
C79 C 0.7555 0.37999 0.92297 0.0
C80 C 0.77701 0.30169 0.76763 0.0
C81 C 0.06801 0.54088 0.85862 0.0
O82 O 0.93825 0.51885 0.76162 0.0
O83 O 0.94619 0.64432 0.71681 0.0
O84 O 0.84053 1.01601 0.90313 0.0
Mn85 Mn 0.71465 0.93569 0.91305 0.0
O86 O 0.94802 0.8988 0.91239 0.0
Mn87 Mn 0.87978 0.82024 0.95442 0.0
O88 O 0.59842 0.85051 0.91839 0.0
O89 O 0.65659 1.01166 0.85449 0.0
Mn90 Mn 0.53175 1.01351 0.86618 0.0
O91 O 0.64389 1.02541 0.96325 0.0
O92 O 0.50603 0.88689 0.85373 0.0
O93 O 0.7714 0.82777 0.8657 0.0
O94 O 0.82376 0.71955 0.92021 0.0
O95 O 0.548 0.09556 0.81431 0.0
O96 O 0.4972 0.04215 0.93086 0.0
C97 C 0.80811 0.89276 0.01608 0.0
C98 C 0.92554 0.98158 0.89748 0.0
C99 C 0.54574 0.82627 0.88214 0.0
C100 C 0.63001 0.05232 0.8127 0.0
C101 C 0.55182 0.03095 0.96805 0.0
C102 C 0.79081 0.73973 0.87714 0.0
O103 O 0.76893 0.86962 0.97406 0.0
O104 O 0.89442 0.86172 0.01885 0.0
O105 O 0.29176 0.59045 0.65325 0.0
Mn106 Mn 0.37214 0.46459 0.66311 0.0
O107 O 0.40893 0.698 0.66252 0.0
Mn108 Mn 0.48761 0.62971 0.70447 0.0
O109 O 0.45737 0.34839 0.66841 0.0
O110 O 0.29614 0.40653 0.60456 0.0
Mn111 Mn 0.29434 0.28168 0.61623 0.0
O112 O 0.2825 0.39377 0.71332 0.0
O113 O 0.42096 0.25601 0.60375 0.0
O114 O 0.47996 0.5214 0.61573 0.0
O115 O 0.58825 0.57375 0.67018 0.0
O116 O 0.21227 0.29798 0.56436 0.0
O117 O 0.26578 0.24709 0.68092 0.0
C118 C 0.4152 0.55801 0.76616 0.0
C119 C 0.32611 0.67551 0.64767 0.0
C120 C 0.48159 0.29574 0.63214 0.0
C121 C 0.2555 0.37999 0.56277 0.0
C122 C 0.27701 0.30169 0.71811 0.0
C123 C 0.56803 0.54084 0.62711 0.0
O124 O 0.43827 0.51884 0.72412 0.0
O125 O 0.44627 0.64431 0.76893 0.0
O126 O 0.7174 0.04193 0.40313 0.0
Mn127 Mn 0.84328 0.12225 0.41305 0.0
O128 O 0.60991 0.15913 0.41239 0.0
Mn129 Mn 0.67815 0.2377 0.45442 0.0
O130 O 0.95951 0.20743 0.41839 0.0
O131 O 0.90134 0.04627 0.35449 0.0
Mn132 Mn 1.02618 0.04442 0.36618 0.0
O133 O 0.91404 0.03253 0.46325 0.0
O134 O 0.0519 0.17105 0.35373 0.0
O135 O 0.78653 0.23016 0.3657 0.0
O136 O 0.73417 0.33839 0.42021 0.0
O137 O 1.00993 0.96237 0.31431 0.0
O138 O 0.06073 1.01579 0.43086 0.0
C139 C 0.74982 0.16518 0.51608 0.0
C140 C 0.63239 0.07635 0.39748 0.0
C141 C 1.01219 0.23166 0.38214 0.0
C142 C 0.92792 1.00562 0.3127 0.0
C143 C 1.00611 1.02699 0.46805 0.0
C144 C 0.76712 0.31821 0.37714 0.0
O145 O 0.789 0.18831 0.47406 0.0
O146 O 0.66351 0.19622 0.51885 0.0
O147 O 0.26617 0.46749 0.15325 0.0
Mn148 Mn 0.18579 0.59334 0.16311 0.0
O149 O 0.149 0.35994 0.16252 0.0
Mn150 Mn 0.07032 0.42823 0.20447 0.0
O151 O 0.10056 0.70955 0.16841 0.0
O152 O 0.26179 0.65141 0.10456 0.0
Mn153 Mn 0.26359 0.77626 0.11623 0.0
O154 O 0.27543 0.66417 0.21332 0.0
O155 O 0.13697 0.80192 0.10375 0.0
O156 O 0.07797 0.53654 0.11573 0.0
O157 O 0.96968 0.48419 0.17018 0.0
O158 O 0.34566 0.75996 0.06436 0.0
O159 O 0.29215 0.81085 0.18092 0.0
C160 C 0.14273 0.49993 0.26616 0.0
C161 C 0.23182 0.38243 0.14767 0.0
C162 C 0.07634 0.76219 0.13214 0.0
C163 C 0.30243 0.67794 0.06277 0.0
C164 C 0.28092 0.75624 0.21811 0.0
C165 C 0.9899 0.5171 0.12711 0.0
O166 O 0.11966 0.53909 0.22412 0.0
O167 O 0.11166 0.41363 0.26893 0.0
O168 O 0.91405 0.5323 0.52248 0.0
Mn169 Mn 0.84317 0.62202 0.57263 0.0
O170 O 0.06073 0.51589 0.55489 0.0
Mn171 Mn 1.026 0.54444 0.61956 0.0
O172 O 0.78629 0.7299 0.61993 0.0
O173 O 0.78901 0.68804 0.51157 0.0
Mn174 Mn 0.67808 0.73731 0.53117 0.0
O175 O 0.71733 0.54162 0.5825 0.0
O176 O 0.73387 0.83807 0.56543 0.0
O177 O 0.95935 0.70727 0.56733 0.0
O178 O 0.05166 0.67106 0.63203 0.0
O179 O 0.66342 0.69592 0.46671 0.0
O180 O 0.60975 0.65872 0.57314 0.0
C181 C 0.928 0.50539 0.67298 0.0
C182 C 1.00613 0.52695 0.51769 0.0
C183 C 0.76681 0.81794 0.60852 0.0
C184 C 0.74976 0.665 0.46954 0.0
C185 C 0.63226 0.57596 0.58806 0.0
C186 C 1.01184 0.73161 0.60364 0.0
O187 O 0.90115 0.54618 0.63127 0.0
O188 O 1.01005 0.46221 0.67137 0.0
O189 O 0.26615 0.96725 0.83261 0.0
Mn190 Mn 0.18581 0.09311 0.82269 0.0
O191 O 0.14901 0.85973 0.82327 0.0
Mn192 Mn 0.07053 0.928 0.78121 0.0
O193 O 0.10061 0.20933 0.81735 0.0
O194 O 0.26162 0.15109 0.88135 0.0
Mn195 Mn 0.26341 0.27593 0.8696 0.0
O196 O 0.2756 0.16393 0.77255 0.0
O197 O 0.13679 0.30164 0.88205 0.0
O198 O 0.07784 0.03629 0.86997 0.0
O199 O 0.96972 0.98386 0.8154 0.0
O200 O 0.34562 0.26002 0.92142 0.0
O201 O 0.29204 0.31062 0.80494 0.0
C202 C 0.14296 0.99966 0.71962 0.0
C203 C 0.23173 0.88223 0.83824 0.0
C204 C 0.07625 0.26184 0.85364 0.0
C205 C 0.30243 0.17799 0.92305 0.0
C206 C 0.28101 0.256 0.76775 0.0
C207 C 0.98982 1.01684 0.85848 0.0
O208 O 0.11985 0.03892 0.76163 0.0
O209 O 0.11206 0.91331 0.71679 0.0
O210 O 0.8406 0.51632 0.0825 0.0
Mn211 Mn 0.71476 0.43592 0.07263 0.0
O212 O 0.94818 0.39921 0.07314 0.0
Mn213 Mn 0.87985 0.32062 0.03117 0.0
O214 O 0.59858 0.35066 0.06733 0.0
O215 O 0.65678 0.51176 0.13127 0.0
Mn216 Mn 0.53193 0.5135 0.11956 0.0
O217 O 0.64388 0.52563 0.02248 0.0
O218 O 0.50627 0.38688 0.13203 0.0
O219 O 0.77164 0.32804 0.11993 0.0
O220 O 0.82406 0.21987 0.06543 0.0
O221 O 0.54788 0.59572 0.17137 0.0
O222 O 0.4972 0.54205 0.05489 0.0
C223 C 0.80817 0.39294 0.96954 0.0
C224 C 0.92567 0.48197 0.08806 0.0
C225 C 0.54609 0.32632 0.10364 0.0
C226 C 0.62993 0.55255 0.17298 0.0
C227 C 0.55181 0.53099 0.01769 0.0
C228 C 0.79113 0.24 0.10852 0.0
O229 O 0.76892 0.3699 0.01157 0.0
O230 O 0.89451 0.36201 0.96671 0.0
O231 O 0.29178 0.09068 0.33261 0.0
Mn232 Mn 0.37212 0.96483 0.32269 0.0
O233 O 0.40893 0.19821 0.32327 0.0
Mn234 Mn 0.4874 0.12993 0.28121 0.0
O235 O 0.45732 0.84861 0.31735 0.0
O236 O 0.29631 0.90684 0.38135 0.0
Mn237 Mn 0.29452 0.782 0.3696 0.0
O238 O 0.28233 0.89401 0.27255 0.0
O239 O 0.42114 0.75629 0.38205 0.0
O240 O 0.4801 1.02165 0.36997 0.0
O241 O 0.58821 0.07407 0.3154 0.0
O242 O 0.21231 0.79791 0.42142 0.0
O243 O 0.26589 0.74731 0.30494 0.0
C244 C 0.41497 0.05827 0.21962 0.0
C245 C 0.3262 0.17571 0.33824 0.0
C246 C 0.48168 0.7961 0.35364 0.0
C247 C 0.2555 0.87995 0.42305 0.0
C248 C 0.27692 0.80194 0.26775 0.0
C249 C 0.56811 0.04109 0.35848 0.0
O250 O 0.43808 1.01901 0.26163 0.0
O251 O 0.44587 0.14463 0.21679 0.0
O252 O 0.34061 0.51629 0.40323 0.0
Mn253 Mn 0.21477 0.43591 0.41311 0.0
O254 O 0.44819 0.39918 0.4126 0.0
Mn255 Mn 0.37987 0.3206 0.45458 0.0
O256 O 0.09857 0.35067 0.41842 0.0
O257 O 0.15678 0.51175 0.35447 0.0
Mn258 Mn 0.03194 0.5135 0.36619 0.0
O259 O 0.14391 0.52564 0.46326 0.0
O260 O 1.00626 0.38688 0.35372 0.0
O261 O 0.27162 0.328 0.36582 0.0
O262 O 0.32407 0.21983 0.42034 0.0
O263 O 0.04788 0.59573 0.31438 0.0
O264 O 0.99722 0.54205 0.43086 0.0
C265 C 0.30818 0.39295 0.5162 0.0
C266 C 0.42568 0.48193 0.39767 0.0
C267 C 0.04609 0.32632 0.38211 0.0
C268 C 0.12992 0.55255 0.31276 0.0
C269 C 0.05183 0.531 0.46805 0.0
C270 C 0.29105 0.23997 0.37727 0.0
O271 O 0.26894 0.36989 0.47417 0.0
O272 O 0.39452 0.36203 0.51903 0.0
O273 O 0.79181 0.09069 0.15312 0.0
Mn274 Mn 0.87213 0.96482 0.16305 0.0
O275 O 0.90898 0.1982 0.16249 0.0
Mn276 Mn 0.98747 0.1299 0.20453 0.0
O277 O 0.95732 0.8486 0.16839 0.0
O278 O 0.79631 0.90684 0.10439 0.0
Mn279 Mn 0.79452 0.782 0.11613 0.0
O280 O 0.78233 0.89401 0.21319 0.0
O281 O 0.92114 0.75629 0.10368 0.0
O282 O 0.98011 1.02163 0.11577 0.0
O283 O 0.08825 0.07401 0.17033 0.0
O284 O 0.71231 0.79792 0.06432 0.0
O285 O 0.76589 0.74731 0.18079 0.0
C286 C 0.91501 0.05827 0.26612 0.0
C287 C 0.82623 0.17573 0.14755 0.0
C288 C 0.98168 0.7961 0.13209 0.0
C289 C 0.7555 0.87996 0.06269 0.0
C290 C 0.77692 0.80194 0.21799 0.0
C291 C 0.06813 0.04105 0.12725 0.0
O292 O 0.93811 1.019 0.22411 0.0
O293 O 0.94596 0.14461 0.26895 0.0
O294 O 0.21732 0.54165 0.90323 0.0
Mn295 Mn 0.34316 0.62203 0.91311 0.0
O296 O 0.10974 0.65876 0.9126 0.0
Mn297 Mn 0.17806 0.73733 0.95458 0.0
O298 O 0.45936 0.70727 0.91842 0.0
O299 O 0.40115 0.54619 0.85447 0.0
Mn300 Mn 0.52599 0.54444 0.86619 0.0
O301 O 0.41402 0.5323 0.96326 0.0
O302 O 0.55167 0.67106 0.85372 0.0
O303 O 0.28631 0.72993 0.86582 0.0
O304 O 0.23386 0.83811 0.92034 0.0
O305 O 0.51005 0.4622 0.81438 0.0
O306 O 0.56071 0.51588 0.93086 0.0
C307 C 0.24975 0.66499 0.0162 0.0
C308 C 0.13225 0.576 0.89767 0.0
C309 C 0.51184 0.73161 0.88211 0.0
C310 C 0.42801 0.50538 0.81276 0.0
C311 C 0.5061 0.52694 0.96805 0.0
C312 C 0.26688 0.81796 0.87727 0.0
O313 O 0.28899 0.68805 0.97417 0.0
O314 O 0.16341 0.69591 0.01903 0.0
O315 O 0.76612 0.96724 0.65312 0.0
Mn316 Mn 0.6858 0.09311 0.66305 0.0
O317 O 0.64895 0.85973 0.66249 0.0
Mn318 Mn 0.57046 0.92804 0.70453 0.0
O319 O 0.60062 0.20934 0.66839 0.0
O320 O 0.76162 0.15109 0.60439 0.0
Mn321 Mn 0.76341 0.27593 0.61613 0.0
O322 O 0.7756 0.16393 0.71319 0.0
O323 O 0.63679 0.30165 0.60368 0.0
O324 O 0.57783 0.0363 0.61577 0.0
O325 O 0.46968 0.98392 0.67033 0.0
O326 O 0.84562 0.26001 0.56432 0.0
O327 O 0.79204 0.31062 0.68079 0.0
C328 C 0.64292 0.99966 0.76612 0.0
C329 C 0.7317 0.88221 0.64755 0.0
C330 C 0.57625 0.26184 0.63209 0.0
C331 C 0.80243 0.17798 0.56269 0.0
C332 C 0.78101 0.25599 0.71799 0.0
C333 C 0.4898 1.01688 0.62725 0.0
O334 O 0.61983 0.03894 0.72411 0.0
O335 O 0.61198 0.91332 0.76895 0.0
loop_
_geom_bond_atom_site_label_1
_geom_bond_atom_site_label_2
_geom_bond_distance
_geom_bond_site_symmetry_2
_ccdc_geom_bond_type
O0 Mn1 2.163 . S
O0 C14 1.244 1_545 S
Mn1 O0 2.163 . S
Mn1 O4 2.160 . S
Mn1 O5 2.221 1_554 S
Mn1 O7 2.163 . S
Mn1 O9 2.160 . S
Mn1 O19 2.221 . S
O2 Mn3 2.087 1_565 S
O2 C14 1.256 . S
Mn3 O2 2.087 1_545 S
Mn3 O10 2.089 . S
Mn3 O19 2.290 . S
Mn3 O20 2.251 . S
O4 Mn1 2.160 . S
O4 C15 1.239 . S
O5 Mn1 2.221 1_556 S
O5 Mn6 2.290 1_556 S
O5 C16 1.278 . S
Mn6 O5 2.290 1_554 S
Mn6 O8 2.089 . S
Mn6 O11 2.251 1_554 S
Mn6 O12 2.087 . S
O7 Mn1 2.163 . S
O7 C17 1.244 . S
O8 Mn6 2.089 . S
O8 C15 1.256 . S
O9 Mn1 2.160 . S
O9 C18 1.239 . S
O10 Mn3 2.089 . S
O10 C18 1.256 . S
O11 Mn6 2.251 1_556 S
O11 C16 1.241 . S
O12 Mn6 2.087 . S
O12 C17 1.256 . S
C13 O19 1.278 . S
C13 O20 1.241 . S
C14 O0 1.244 1_565 S
C14 O2 1.256 . S
C15 O4 1.239 . S
C15 O8 1.256 . S
C16 O5 1.278 . S
C16 O11 1.241 . S
C17 O7 1.244 . S
C17 O12 1.256 . S
C18 O9 1.239 . S
C18 O10 1.256 . S
O19 Mn1 2.221 . S
O19 Mn3 2.290 . S
O19 C13 1.278 . S
O20 Mn3 2.251 . S
O20 C13 1.241 . S
O21 Mn22 2.163 . S
O21 C35 1.244 . S
Mn22 O21 2.163 . S
Mn22 O25 2.160 . S
Mn22 O26 2.221 . S
Mn22 O28 2.163 . S
Mn22 O30 2.160 . S
Mn22 O40 2.221 . S
O23 Mn24 2.087 . S
O23 C35 1.256 . S
Mn24 O23 2.087 . S
Mn24 O31 2.089 . S
Mn24 O40 2.290 . S
Mn24 O41 2.251 . S
O25 Mn22 2.160 . S
O25 C36 1.239 . S
O26 Mn22 2.221 . S
O26 Mn27 2.290 . S
O26 C37 1.278 . S
Mn27 O26 2.290 . S
Mn27 O29 2.089 . S
Mn27 O32 2.251 . S
Mn27 O33 2.087 . S
O28 Mn22 2.163 . S
O28 C38 1.244 . S
O29 Mn27 2.089 . S
O29 C36 1.256 . S
O30 Mn22 2.160 . S
O30 C39 1.239 . S
O31 Mn24 2.089 . S
O31 C39 1.256 . S
O32 Mn27 2.251 . S
O32 C37 1.241 . S
O33 Mn27 2.087 . S
O33 C38 1.256 . S
C34 O40 1.278 . S
C34 O41 1.241 . S
C35 O21 1.244 . S
C35 O23 1.256 . S
C36 O25 1.239 . S
C36 O29 1.256 . S
C37 O26 1.278 . S
C37 O32 1.241 . S
C38 O28 1.244 . S
C38 O33 1.256 . S
C39 O30 1.239 . S
C39 O31 1.256 . S
O40 Mn22 2.221 . S
O40 Mn24 2.290 . S
O40 C34 1.278 . S
O41 Mn24 2.251 . S
O41 C34 1.241 . S
O42 Mn43 2.163 . S
O42 C56 1.244 . S
Mn43 O42 2.163 . S
Mn43 O46 2.160 . S
Mn43 O47 2.221 . S
Mn43 O49 2.163 . S
Mn43 O51 2.160 . S
Mn43 O61 2.221 . S
O44 Mn45 2.087 . S
O44 C56 1.256 . S
Mn45 O44 2.087 . S
Mn45 O52 2.089 . S
Mn45 O61 2.290 . S
Mn45 O62 2.251 . S
O46 Mn43 2.160 . S
O46 C57 1.239 1_455 S
O47 Mn43 2.221 . S
O47 Mn48 2.290 1_455 S
O47 C58 1.278 . S
Mn48 O47 2.290 1_655 S
Mn48 O50 2.089 . S
Mn48 O53 2.251 1_655 S
Mn48 O54 2.087 1_665 S
O49 Mn43 2.163 . S
O49 C59 1.244 1_565 S
O50 Mn48 2.089 . S
O50 C57 1.256 . S
O51 Mn43 2.160 . S
O51 C60 1.239 . S
O52 Mn45 2.089 . S
O52 C60 1.256 . S
O53 Mn48 2.251 1_455 S
O53 C58 1.241 . S
O54 Mn48 2.087 1_445 S
O54 C59 1.256 . S
C55 O61 1.278 . S
C55 O62 1.241 . S
C56 O42 1.244 . S
C56 O44 1.256 . S
C57 O46 1.239 1_655 S
C57 O50 1.256 . S
C58 O47 1.278 . S
C58 O53 1.241 . S
C59 O49 1.244 1_545 S
C59 O54 1.256 . S
C60 O51 1.239 . S
C60 O52 1.256 . S
O61 Mn43 2.221 . S
O61 Mn45 2.290 . S
O61 C55 1.278 . S
O62 Mn45 2.251 . S
O62 C55 1.241 . S
O63 Mn64 2.163 . S
O63 C77 1.244 . S
Mn64 O63 2.163 . S
Mn64 O67 2.160 . S
Mn64 O68 2.221 . S
Mn64 O70 2.163 . S
Mn64 O72 2.160 1_655 S
Mn64 O82 2.221 . S
O65 Mn66 2.087 . S
O65 C77 1.256 . S
Mn66 O65 2.087 . S
Mn66 O73 2.089 1_655 S
Mn66 O82 2.290 . S
Mn66 O83 2.251 . S
O67 Mn64 2.160 . S
O67 C78 1.239 . S
O68 Mn64 2.221 . S
O68 Mn69 2.290 . S
O68 C79 1.278 . S
Mn69 O68 2.290 . S
Mn69 O71 2.089 . S
Mn69 O74 2.251 . S
Mn69 O75 2.087 . S
O70 Mn64 2.163 . S
O70 C80 1.244 . S
O71 Mn69 2.089 . S
O71 C78 1.256 . S
O72 Mn64 2.160 1_455 S
O72 C81 1.239 . S
O73 Mn66 2.089 1_455 S
O73 C81 1.256 . S
O74 Mn69 2.251 . S
O74 C79 1.241 . S
O75 Mn69 2.087 . S
O75 C80 1.256 . S
C76 O82 1.278 . S
C76 O83 1.241 . S
C77 O63 1.244 . S
C77 O65 1.256 . S
C78 O67 1.239 . S
C78 O71 1.256 . S
C79 O68 1.278 . S
C79 O74 1.241 . S
C80 O70 1.244 . S
C80 O75 1.256 . S
C81 O72 1.239 . S
C81 O73 1.256 . S
O82 Mn64 2.221 . S
O82 Mn66 2.290 . S
O82 C76 1.278 . S
O83 Mn66 2.251 . S
O83 C76 1.241 . S
O84 Mn85 2.163 . S
O84 C98 1.244 . S
Mn85 O84 2.163 . S
Mn85 O88 2.160 . S
Mn85 O89 2.221 . S
Mn85 O91 2.163 . S
Mn85 O93 2.160 . S
Mn85 O103 2.221 1_556 S
O86 Mn87 2.087 . S
O86 C98 1.256 . S
Mn87 O86 2.087 . S
Mn87 O94 2.089 . S
Mn87 O103 2.290 1_556 S
Mn87 O104 2.251 1_556 S
O88 Mn85 2.160 . S
O88 C99 1.239 . S
O89 Mn85 2.221 . S
O89 Mn90 2.290 . S
O89 C100 1.278 . S
Mn90 O89 2.290 . S
Mn90 O92 2.089 . S
Mn90 O95 2.251 . S
Mn90 O96 2.087 1_565 S
O91 Mn85 2.163 . S
O91 C101 1.244 1_565 S
O92 Mn90 2.089 . S
O92 C99 1.256 . S
O93 Mn85 2.160 . S
O93 C102 1.239 . S
O94 Mn87 2.089 . S
O94 C102 1.256 . S
O95 Mn90 2.251 . S
O95 C100 1.241 . S
O96 Mn90 2.087 1_545 S
O96 C101 1.256 . S
C97 O103 1.278 . S
C97 O104 1.241 . S
C98 O84 1.244 . S
C98 O86 1.256 . S
C99 O88 1.239 . S
C99 O92 1.256 . S
C100 O89 1.278 . S
C100 O95 1.241 . S
C101 O91 1.244 1_545 S
C101 O96 1.256 . S
C102 O93 1.239 . S
C102 O94 1.256 . S
O103 Mn85 2.221 1_554 S
O103 Mn87 2.290 1_554 S
O103 C97 1.278 . S
O104 Mn87 2.251 1_554 S
O104 C97 1.241 . S
O105 Mn106 2.163 . S
O105 C119 1.244 . S
Mn106 O105 2.163 . S
Mn106 O109 2.160 . S
Mn106 O110 2.221 . S
Mn106 O112 2.163 . S
Mn106 O114 2.160 . S
Mn106 O124 2.221 . S
O107 Mn108 2.087 . S
O107 C119 1.256 . S
Mn108 O107 2.087 . S
Mn108 O115 2.089 . S
Mn108 O124 2.290 . S
Mn108 O125 2.251 . S
O109 Mn106 2.160 . S
O109 C120 1.239 . S
O110 Mn106 2.221 . S
O110 Mn111 2.290 . S
O110 C121 1.278 . S
Mn111 O110 2.290 . S
Mn111 O113 2.089 . S
Mn111 O116 2.251 . S
Mn111 O117 2.087 . S
O112 Mn106 2.163 . S
O112 C122 1.244 . S
O113 Mn111 2.089 . S
O113 C120 1.256 . S
O114 Mn106 2.160 . S
O114 C123 1.239 . S
O115 Mn108 2.089 . S
O115 C123 1.256 . S
O116 Mn111 2.251 . S
O116 C121 1.241 . S
O117 Mn111 2.087 . S
O117 C122 1.256 . S
C118 O124 1.278 . S
C118 O125 1.241 . S
C119 O105 1.244 . S
C119 O107 1.256 . S
C120 O109 1.239 . S
C120 O113 1.256 . S
C121 O110 1.278 . S
C121 O116 1.241 . S
C122 O112 1.244 . S
C122 O117 1.256 . S
C123 O114 1.239 . S
C123 O115 1.256 . S
O124 Mn106 2.221 . S
O124 Mn108 2.290 . S
O124 C118 1.278 . S
O125 Mn108 2.251 . S
O125 C118 1.241 . S
O126 Mn127 2.163 . S
O126 C140 1.244 . S
Mn127 O126 2.163 . S
Mn127 O130 2.160 . S
Mn127 O131 2.221 . S
Mn127 O133 2.163 . S
Mn127 O135 2.160 . S
Mn127 O145 2.221 . S
O128 Mn129 2.087 . S
O128 C140 1.256 . S
Mn129 O128 2.087 . S
Mn129 O136 2.089 . S
Mn129 O145 2.290 . S
Mn129 O146 2.251 . S
O130 Mn127 2.160 . S
O130 C141 1.239 1_655 S
O131 Mn127 2.221 . S
O131 Mn132 2.290 1_655 S
O131 C142 1.278 . S
Mn132 O131 2.290 1_455 S
Mn132 O134 2.089 . S
Mn132 O137 2.251 1_455 S
Mn132 O138 2.087 1_445 S
O133 Mn127 2.163 . S
O133 C143 1.244 1_545 S
O134 Mn132 2.089 . S
O134 C141 1.256 . S
O135 Mn127 2.160 . S
O135 C144 1.239 . S
O136 Mn129 2.089 . S
O136 C144 1.256 . S
O137 Mn132 2.251 1_655 S
O137 C142 1.241 . S
O138 Mn132 2.087 1_665 S
O138 C143 1.256 . S
C139 O145 1.278 . S
C139 O146 1.241 . S
C140 O126 1.244 . S
C140 O128 1.256 . S
C141 O130 1.239 1_455 S
C141 O134 1.256 . S
C142 O131 1.278 . S
C142 O137 1.241 . S
C143 O133 1.244 1_565 S
C143 O138 1.256 . S
C144 O135 1.239 . S
C144 O136 1.256 . S
O145 Mn127 2.221 . S
O145 Mn129 2.290 . S
O145 C139 1.278 . S
O146 Mn129 2.251 . S
O146 C139 1.241 . S
O147 Mn148 2.163 . S
O147 C161 1.244 . S
Mn148 O147 2.163 . S
Mn148 O151 2.160 . S
Mn148 O152 2.221 . S
Mn148 O154 2.163 . S
Mn148 O156 2.160 1_455 S
Mn148 O166 2.221 . S
O149 Mn150 2.087 . S
O149 C161 1.256 . S
Mn150 O149 2.087 . S
Mn150 O157 2.089 1_455 S
Mn150 O166 2.290 . S
Mn150 O167 2.251 . S
O151 Mn148 2.160 . S
O151 C162 1.239 . S
O152 Mn148 2.221 . S
O152 Mn153 2.290 . S
O152 C163 1.278 . S
Mn153 O152 2.290 . S
Mn153 O155 2.089 . S
Mn153 O158 2.251 . S
Mn153 O159 2.087 . S
O154 Mn148 2.163 . S
O154 C164 1.244 . S
O155 Mn153 2.089 . S
O155 C162 1.256 . S
O156 Mn148 2.160 1_655 S
O156 C165 1.239 . S
O157 Mn150 2.089 1_655 S
O157 C165 1.256 . S
O158 Mn153 2.251 . S
O158 C163 1.241 . S
O159 Mn153 2.087 . S
O159 C164 1.256 . S
C160 O166 1.278 . S
C160 O167 1.241 . S
C161 O147 1.244 . S
C161 O149 1.256 . S
C162 O151 1.239 . S
C162 O155 1.256 . S
C163 O152 1.278 . S
C163 O158 1.241 . S
C164 O154 1.244 . S
C164 O159 1.256 . S
C165 O156 1.239 . S
C165 O157 1.256 . S
O166 Mn148 2.221 . S
O166 Mn150 2.290 . S
O166 C160 1.278 . S
O167 Mn150 2.251 . S
O167 C160 1.241 . S
O168 Mn169 2.163 . S
O168 C182 1.244 . S
Mn169 O168 2.163 . S
Mn169 O172 2.160 . S
Mn169 O173 2.221 . S
Mn169 O175 2.163 . S
Mn169 O177 2.160 . S
Mn169 O187 2.221 . S
O170 Mn171 2.087 1_655 S
O170 C182 1.256 . S
Mn171 O170 2.087 1_455 S
Mn171 O178 2.089 . S
Mn171 O187 2.290 1_455 S
Mn171 O188 2.251 1_455 S
O172 Mn169 2.160 . S
O172 C183 1.239 . S
O173 Mn169 2.221 . S
O173 Mn174 2.290 . S
O173 C184 1.278 . S
Mn174 O173 2.290 . S
Mn174 O176 2.089 . S
Mn174 O179 2.251 . S
Mn174 O180 2.087 . S
O175 Mn169 2.163 . S
O175 C185 1.244 . S
O176 Mn174 2.089 . S
O176 C183 1.256 . S
O177 Mn169 2.160 . S
O177 C186 1.239 1_655 S
O178 Mn171 2.089 . S
O178 C186 1.256 . S
O179 Mn174 2.251 . S
O179 C184 1.241 . S
O180 Mn174 2.087 . S
O180 C185 1.256 . S
C181 O187 1.278 . S
C181 O188 1.241 . S
C182 O168 1.244 . S
C182 O170 1.256 . S
C183 O172 1.239 . S
C183 O176 1.256 . S
C184 O173 1.278 . S
C184 O179 1.241 . S
C185 O175 1.244 . S
C185 O180 1.256 . S
C186 O177 1.239 1_455 S
C186 O178 1.256 . S
O187 Mn169 2.221 . S
O187 Mn171 2.290 1_655 S
O187 C181 1.278 . S
O188 Mn171 2.251 1_655 S
O188 C181 1.241 . S
O189 Mn190 2.163 1_565 S
O189 C203 1.244 . S
Mn190 O189 2.163 1_545 S
Mn190 O193 2.160 . S
Mn190 O194 2.221 . S
Mn190 O196 2.163 . S
Mn190 O198 2.160 1_455 S
Mn190 O208 2.221 1_545 S
O191 Mn192 2.087 . S
O191 C203 1.256 . S
Mn192 O191 2.087 . S
Mn192 O199 2.089 1_455 S
Mn192 O208 2.290 . S
Mn192 O209 2.251 . S
O193 Mn190 2.160 . S
O193 C204 1.239 . S
O194 Mn190 2.221 . S
O194 Mn195 2.290 . S
O194 C205 1.278 . S
Mn195 O194 2.290 . S
Mn195 O197 2.089 . S
Mn195 O200 2.251 . S
Mn195 O201 2.087 . S
O196 Mn190 2.163 . S
O196 C206 1.244 . S
O197 Mn195 2.089 . S
O197 C204 1.256 . S
O198 Mn190 2.160 1_655 S
O198 C207 1.239 1_545 S
O199 Mn192 2.089 1_655 S
O199 C207 1.256 . S
O200 Mn195 2.251 . S
O200 C205 1.241 . S
O201 Mn195 2.087 . S
O201 C206 1.256 . S
C202 O208 1.278 . S
C202 O209 1.241 . S
C203 O189 1.244 . S
C203 O191 1.256 . S
C204 O193 1.239 . S
C204 O197 1.256 . S
C205 O194 1.278 . S
C205 O200 1.241 . S
C206 O196 1.244 . S
C206 O201 1.256 . S
C207 O198 1.239 1_565 S
C207 O199 1.256 . S
O208 Mn190 2.221 1_565 S
O208 Mn192 2.290 . S
O208 C202 1.278 . S
O209 Mn192 2.251 . S
O209 C202 1.241 . S
O210 Mn211 2.163 . S
O210 C224 1.244 . S
Mn211 O210 2.163 . S
Mn211 O214 2.160 . S
Mn211 O215 2.221 . S
Mn211 O217 2.163 . S
Mn211 O219 2.160 . S
Mn211 O229 2.221 1_554 S
O212 Mn213 2.087 . S
O212 C224 1.256 . S
Mn213 O212 2.087 . S
Mn213 O220 2.089 . S
Mn213 O229 2.290 1_554 S
Mn213 O230 2.251 1_554 S
O214 Mn211 2.160 . S
O214 C225 1.239 . S
O215 Mn211 2.221 . S
O215 Mn216 2.290 . S
O215 C226 1.278 . S
Mn216 O215 2.290 . S
Mn216 O218 2.089 . S
Mn216 O221 2.251 . S
Mn216 O222 2.087 . S
O217 Mn211 2.163 . S
O217 C227 1.244 . S
O218 Mn216 2.089 . S
O218 C225 1.256 . S
O219 Mn211 2.160 . S
O219 C228 1.239 . S
O220 Mn213 2.089 . S
O220 C228 1.256 . S
O221 Mn216 2.251 . S
O221 C226 1.241 . S
O222 Mn216 2.087 . S
O222 C227 1.256 . S
C223 O229 1.278 . S
C223 O230 1.241 . S
C224 O210 1.244 . S
C224 O212 1.256 . S
C225 O214 1.239 . S
C225 O218 1.256 . S
C226 O215 1.278 . S
C226 O221 1.241 . S
C227 O217 1.244 . S
C227 O222 1.256 . S
C228 O219 1.239 . S
C228 O220 1.256 . S
O229 Mn211 2.221 1_556 S
O229 Mn213 2.290 1_556 S
O229 C223 1.278 . S
O230 Mn213 2.251 1_556 S
O230 C223 1.241 . S
O231 Mn232 2.163 1_545 S
O231 C245 1.244 . S
Mn232 O231 2.163 1_565 S
Mn232 O235 2.160 . S
Mn232 O236 2.221 . S
Mn232 O238 2.163 . S
Mn232 O240 2.160 . S
Mn232 O250 2.221 1_565 S
O233 Mn234 2.087 . S
O233 C245 1.256 . S
Mn234 O233 2.087 . S
Mn234 O241 2.089 . S
Mn234 O250 2.290 . S
Mn234 O251 2.251 . S
O235 Mn232 2.160 . S
O235 C246 1.239 . S
O236 Mn232 2.221 . S
O236 Mn237 2.290 . S
O236 C247 1.278 . S
Mn237 O236 2.290 . S
Mn237 O239 2.089 . S
Mn237 O242 2.251 . S
Mn237 O243 2.087 . S
O238 Mn232 2.163 . S
O238 C248 1.244 . S
O239 Mn237 2.089 . S
O239 C246 1.256 . S
O240 Mn232 2.160 . S
O240 C249 1.239 1_565 S
O241 Mn234 2.089 . S
O241 C249 1.256 . S
O242 Mn237 2.251 . S
O242 C247 1.241 . S
O243 Mn237 2.087 . S
O243 C248 1.256 . S
C244 O250 1.278 . S
C244 O251 1.241 . S
C245 O231 1.244 . S
C245 O233 1.256 . S
C246 O235 1.239 . S
C246 O239 1.256 . S
C247 O236 1.278 . S
C247 O242 1.241 . S
C248 O238 1.244 . S
C248 O243 1.256 . S
C249 O240 1.239 1_545 S
C249 O241 1.256 . S
O250 Mn232 2.221 1_545 S
O250 Mn234 2.290 . S
O250 C244 1.278 . S
O251 Mn234 2.251 . S
O251 C244 1.241 . S
O252 Mn253 2.163 . S
O252 C266 1.244 . S
Mn253 O252 2.163 . S
Mn253 O256 2.160 . S
Mn253 O257 2.221 . S
Mn253 O259 2.163 . S
Mn253 O261 2.160 . S
Mn253 O271 2.221 . S
O254 Mn255 2.087 . S
O254 C266 1.256 . S
Mn255 O254 2.087 . S
Mn255 O262 2.089 . S
Mn255 O271 2.290 . S
Mn255 O272 2.251 . S
O256 Mn253 2.160 . S
O256 C267 1.239 1_455 S
O257 Mn253 2.221 . S
O257 Mn258 2.290 1_455 S
O257 C268 1.278 . S
Mn258 O257 2.290 1_655 S
Mn258 O260 2.089 . S
Mn258 O263 2.251 1_655 S
Mn258 O264 2.087 1_655 S
O259 Mn253 2.163 . S
O259 C269 1.244 . S
O260 Mn258 2.089 . S
O260 C267 1.256 . S
O261 Mn253 2.160 . S
O261 C270 1.239 . S
O262 Mn255 2.089 . S
O262 C270 1.256 . S
O263 Mn258 2.251 1_455 S
O263 C268 1.241 . S
O264 Mn258 2.087 1_455 S
O264 C269 1.256 . S
C265 O271 1.278 . S
C265 O272 1.241 . S
C266 O252 1.244 . S
C266 O254 1.256 . S
C267 O256 1.239 1_655 S
C267 O260 1.256 . S
C268 O257 1.278 . S
C268 O263 1.241 . S
C269 O259 1.244 . S
C269 O264 1.256 . S
C270 O261 1.239 . S
C270 O262 1.256 . S
O271 Mn253 2.221 . S
O271 Mn255 2.290 . S
O271 C265 1.278 . S
O272 Mn255 2.251 . S
O272 C265 1.241 . S
O273 Mn274 2.163 1_545 S
O273 C287 1.244 . S
Mn274 O273 2.163 1_565 S
Mn274 O277 2.160 . S
Mn274 O278 2.221 . S
Mn274 O280 2.163 . S
Mn274 O282 2.160 1_655 S
Mn274 O292 2.221 1_565 S
O275 Mn276 2.087 . S
O275 C287 1.256 . S
Mn276 O275 2.087 . S
Mn276 O283 2.089 1_655 S
Mn276 O292 2.290 . S
Mn276 O293 2.251 . S
O277 Mn274 2.160 . S
O277 C288 1.239 . S
O278 Mn274 2.221 . S
O278 Mn279 2.290 . S
O278 C289 1.278 . S
Mn279 O278 2.290 . S
Mn279 O281 2.089 . S
Mn279 O284 2.251 . S
Mn279 O285 2.087 . S
O280 Mn274 2.163 . S
O280 C290 1.244 . S
O281 Mn279 2.089 . S
O281 C288 1.256 . S
O282 Mn274 2.160 1_455 S
O282 C291 1.239 1_565 S
O283 Mn276 2.089 1_455 S
O283 C291 1.256 . S
O284 Mn279 2.251 . S
O284 C289 1.241 . S
O285 Mn279 2.087 . S
O285 C290 1.256 . S
C286 O292 1.278 . S
C286 O293 1.241 . S
C287 O273 1.244 . S
C287 O275 1.256 . S
C288 O277 1.239 . S
C288 O281 1.256 . S
C289 O278 1.278 . S
C289 O284 1.241 . S
C290 O280 1.244 . S
C290 O285 1.256 . S
C291 O282 1.239 1_545 S
C291 O283 1.256 . S
O292 Mn274 2.221 1_545 S
O292 Mn276 2.290 . S
O292 C286 1.278 . S
O293 Mn276 2.251 . S
O293 C286 1.241 . S
O294 Mn295 2.163 . S
O294 C308 1.244 . S
Mn295 O294 2.163 . S
Mn295 O298 2.160 . S
Mn295 O299 2.221 . S
Mn295 O301 2.163 . S
Mn295 O303 2.160 . S
Mn295 O313 2.221 1_556 S
O296 Mn297 2.087 . S
O296 C308 1.256 . S
Mn297 O296 2.087 . S
Mn297 O304 2.089 . S
Mn297 O313 2.290 1_556 S
Mn297 O314 2.251 1_556 S
O298 Mn295 2.160 . S
O298 C309 1.239 . S
O299 Mn295 2.221 . S
O299 Mn300 2.290 . S
O299 C310 1.278 . S
Mn300 O299 2.290 . S
Mn300 O302 2.089 . S
Mn300 O305 2.251 . S
Mn300 O306 2.087 . S
O301 Mn295 2.163 . S
O301 C311 1.244 . S
O302 Mn300 2.089 . S
O302 C309 1.256 . S
O303 Mn295 2.160 . S
O303 C312 1.239 . S
O304 Mn297 2.089 . S
O304 C312 1.256 . S
O305 Mn300 2.251 . S
O305 C310 1.241 . S
O306 Mn300 2.087 . S
O306 C311 1.256 . S
C307 O313 1.278 . S
C307 O314 1.241 . S
C308 O294 1.244 . S
C308 O296 1.256 . S
C309 O298 1.239 . S
C309 O302 1.256 . S
C310 O299 1.278 . S
C310 O305 1.241 . S
C311 O301 1.244 . S
C311 O306 1.256 . S
C312 O303 1.239 . S
C312 O304 1.256 . S
O313 Mn295 2.221 1_554 S
O313 Mn297 2.290 1_554 S
O313 C307 1.278 . S
O314 Mn297 2.251 1_554 S
O314 C307 1.241 . S
O315 Mn316 2.163 1_565 S
O315 C329 1.244 . S
Mn316 O315 2.163 1_545 S
Mn316 O319 2.160 . S
Mn316 O320 2.221 . S
Mn316 O322 2.163 . S
Mn316 O324 2.160 . S
Mn316 O334 2.221 1_545 S
O317 Mn318 2.087 . S
O317 C329 1.256 . S
Mn318 O317 2.087 . S
Mn318 O325 2.089 . S
Mn318 O334 2.290 . S
Mn318 O335 2.251 . S
O319 Mn316 2.160 . S
O319 C330 1.239 . S
O320 Mn316 2.221 . S
O320 Mn321 2.290 . S
O320 C331 1.278 . S
Mn321 O320 2.290 . S
Mn321 O323 2.089 . S
Mn321 O326 2.251 . S
Mn321 O327 2.087 . S
O322 Mn316 2.163 . S
O322 C332 1.244 . S
O323 Mn321 2.089 . S
O323 C330 1.256 . S
O324 Mn316 2.160 . S
O324 C333 1.239 1_545 S
O325 Mn318 2.089 . S
O325 C333 1.256 . S
O326 Mn321 2.251 . S
O326 C331 1.241 . S
O327 Mn321 2.087 . S
O327 C332 1.256 . S
C328 O334 1.278 . S
C328 O335 1.241 . S
C329 O315 1.244 . S
C329 O317 1.256 . S
C330 O319 1.239 . S
C330 O323 1.256 . S
C331 O320 1.278 . S
C331 O326 1.241 . S
C332 O322 1.244 . S
C332 O327 1.256 . S
C333 O324 1.239 1_565 S
C333 O325 1.256 . S
O334 Mn316 2.221 1_565 S
O334 Mn318 2.290 . S
O334 C328 1.278 . S
O335 Mn318 2.251 . S
O335 C328 1.241 . S
C18 C225 0.633 . S
C36 C246 0.633 . S
C57 C186 0.633 1_655 S
C204 C78 0.633 1_455 S
C99 C309 0.633 . S
C330 C120 0.633 . S
C267 C141 0.633 1_655 S
C162 C288 0.633 1_455 S
C14 C101 2.362 1_564 S
C38 C290 2.362 . S
C59 C143 2.362 1_445 S
C80 C332 2.362 . S
C122 C206 2.362 . S
C248 C164 2.362 . S
C269 C182 2.362 1_455 S
C227 C311 2.362 1_554 S
C15 C161 1.970 . S
C39 C266 1.970 . S
C60 C119 1.970 . S
C81 C308 1.970 . S
C77 C102 1.970 . S
C123 C185 1.970 . S
C144 C35 1.970 . S
C224 C165 1.970 . S
C183 C329 1.970 . S
C98 C207 1.970 . S
C287 C228 1.970 . S
C140 C249 1.970 . S
C270 C245 1.970 . S
C291 C17 1.970 . S
C203 C312 1.970 . S
C333 C56 1.970 . S
C16 C205 0.902 . S
C226 C34 0.902 . S
C55 C247 0.902 . S
C181 C76 0.902 . S
C289 C97 0.902 . S
C310 C118 0.902 . S
C331 C139 0.902 . S
C268 C160 0.902 . S
C37 C184 0.902 . S
C58 C202 0.902 . S
C79 C223 0.902 . S
C244 C13 0.902 . S
C121 C265 0.902 . S
C142 C286 0.902 . S
C163 C307 0.902 . S
C100 C328 0.902 . S
