# Generated by pormake.
# Topology gis, (4)-cn, num edge types: 1
# Building blocks:
#     Node 0, Type 0, BuildingBlock: AZAVOO_clean_sbu_0, # of connection points: 4
#     Node 1, Type 0, BuildingBlock: AZAVOO_clean_sbu_0, # of connection points: 4
#     Node 2, Type 0, BuildingBlock: AZAVOO_clean_sbu_0, # of connection points: 4
#     Node 3, Type 0, BuildingBlock: AZAVOO_clean_sbu_0, # of connection points: 4
#     Node 4, Type 0, BuildingBlock: AZAVOO_clean_sbu_0, # of connection points: 4
#     Node 5, Type 0, BuildingBlock: AZAVOO_clean_sbu_0, # of connection points: 4
#     Node 6, Type 0, BuildingBlock: AZAVOO_clean_sbu_0, # of connection points: 4
#     Node 7, Type 0, BuildingBlock: AZAVOO_clean_sbu_0, # of connection points: 4
#     Node 8, Type 0, BuildingBlock: AZAVOO_clean_sbu_0, # of connection points: 4
#     Node 9, Type 0, BuildingBlock: AZAVOO_clean_sbu_0, # of connection points: 4
#     Node 10, Type 0, BuildingBlock: AZAVOO_clean_sbu_0, # of connection points: 4
#     Node 11, Type 0, BuildingBlock: AZAVOO_clean_sbu_0, # of connection points: 4
#     Node 12, Type 0, BuildingBlock: AZAVOO_clean_sbu_0, # of connection points: 4
#     Node 13, Type 0, BuildingBlock: AZAVOO_clean_sbu_0, # of connection points: 4
#     Node 14, Type 0, BuildingBlock: AZAVOO_clean_sbu_0, # of connection points: 4
#     Node 15, Type 0, BuildingBlock: AZAVOO_clean_sbu_0, # of connection points: 4
#     Edge 16, Type (0, 0), BuildingBlock: UVAHIK_clean_linker_0, # of connection points: 2
#     Edge 17, Type (0, 0), BuildingBlock: UVAHIK_clean_linker_0, # of connection points: 2
#     Edge 18, Type (0, 0), BuildingBlock: UVAHIK_clean_linker_0, # of connection points: 2
#     Edge 19, Type (0, 0), BuildingBlock: UVAHIK_clean_linker_0, # of connection points: 2
#     Edge 20, Type (0, 0), BuildingBlock: UVAHIK_clean_linker_0, # of connection points: 2
#     Edge 21, Type (0, 0), BuildingBlock: UVAHIK_clean_linker_0, # of connection points: 2
#     Edge 22, Type (0, 0), BuildingBlock: UVAHIK_clean_linker_0, # of connection points: 2
#     Edge 23, Type (0, 0), BuildingBlock: UVAHIK_clean_linker_0, # of connection points: 2
#     Edge 24, Type (0, 0), BuildingBlock: UVAHIK_clean_linker_0, # of connection points: 2
#     Edge 25, Type (0, 0), BuildingBlock: UVAHIK_clean_linker_0, # of connection points: 2
#     Edge 26, Type (0, 0), BuildingBlock: UVAHIK_clean_linker_0, # of connection points: 2
#     Edge 27, Type (0, 0), BuildingBlock: UVAHIK_clean_linker_0, # of connection points: 2
#     Edge 28, Type (0, 0), BuildingBlock: UVAHIK_clean_linker_0, # of connection points: 2
#     Edge 29, Type (0, 0), BuildingBlock: UVAHIK_clean_linker_0, # of connection points: 2
#     Edge 30, Type (0, 0), BuildingBlock: UVAHIK_clean_linker_0, # of connection points: 2
#     Edge 31, Type (0, 0), BuildingBlock: UVAHIK_clean_linker_0, # of connection points: 2
#     Edge 32, Type (0, 0), BuildingBlock: UVAHIK_clean_linker_0, # of connection points: 2
#     Edge 33, Type (0, 0), BuildingBlock: UVAHIK_clean_linker_0, # of connection points: 2
#     Edge 34, Type (0, 0), BuildingBlock: UVAHIK_clean_linker_0, # of connection points: 2
#     Edge 35, Type (0, 0), BuildingBlock: UVAHIK_clean_linker_0, # of connection points: 2
#     Edge 36, Type (0, 0), BuildingBlock: UVAHIK_clean_linker_0, # of connection points: 2
#     Edge 37, Type (0, 0), BuildingBlock: UVAHIK_clean_linker_0, # of connection points: 2
#     Edge 38, Type (0, 0), BuildingBlock: UVAHIK_clean_linker_0, # of connection points: 2
#     Edge 39, Type (0, 0), BuildingBlock: UVAHIK_clean_linker_0, # of connection points: 2
#     Edge 40, Type (0, 0), BuildingBlock: UVAHIK_clean_linker_0, # of connection points: 2
#     Edge 41, Type (0, 0), BuildingBlock: UVAHIK_clean_linker_0, # of connection points: 2
#     Edge 42, Type (0, 0), BuildingBlock: UVAHIK_clean_linker_0, # of connection points: 2
#     Edge 43, Type (0, 0), BuildingBlock: UVAHIK_clean_linker_0, # of connection points: 2
#     Edge 44, Type (0, 0), BuildingBlock: UVAHIK_clean_linker_0, # of connection points: 2
#     Edge 45, Type (0, 0), BuildingBlock: UVAHIK_clean_linker_0, # of connection points: 2
#     Edge 46, Type (0, 0), BuildingBlock: UVAHIK_clean_linker_0, # of connection points: 2
#     Edge 47, Type (0, 0), BuildingBlock: UVAHIK_clean_linker_0, # of connection points: 2
# Relax obj value: 0.172
# Max RMSD: 0.154
# Mean RMSD: 0.152
data_MOF--net-gis--node1-AZAVOO_clean_sbu_0--edge1-UVAHIK_clean_linker_0
_symmetry_space_group_name_H-M    P1
_symmetry_Int_Tables_number       1
_symmetry_cell_setting            triclinic
loop_
_symmetry_equiv_pos_as_xyz
'x, y, z'
_cell_length_a     58.832073
_cell_length_b     56.283564
_cell_length_c     64.660851
_cell_angle_alpha  90.140238
_cell_angle_beta   90.176673
_cell_angle_gamma 90.056699
loop_
_atom_site_label
_atom_site_type_symbol
_atom_site_fract_x
_atom_site_fract_y
_atom_site_fract_z
_atom_type_partial_charge
Mg0 Mg 0.19492 0.64508 0.10993 0.0
O1 O 0.15645 0.64136 0.11431 0.0
O2 O 0.14497 0.66621 0.13915 0.0
Mg3 Mg 0.17657 0.68481 0.15172 0.0
C4 C 0.14081 0.6504 0.12547 0.0
C5 C 0.19896 0.61391 0.07051 0.0
O6 O 0.20512 0.63476 0.06334 0.0
O7 O 0.20076 0.62308 0.13918 0.0
O8 O 0.18849 0.64849 0.16342 0.0
O9 O 0.18869 0.67542 0.08833 0.0
O10 O 0.19386 0.67932 0.12202 0.0
C11 C 0.1965 0.62833 0.15801 0.0
C12 C 0.18888 0.68893 0.10456 0.0
O13 O 0.19412 0.61196 0.08957 0.0
Mg14 Mg 0.68732 0.89121 0.39564 0.0
O15 O 0.64968 0.8906 0.38573 0.0
O16 O 0.64602 0.86514 0.35927 0.0
Mg17 Mg 0.68135 0.85223 0.35042 0.0
C18 C 0.63753 0.87965 0.37233 0.0
C19 C 0.69187 0.92232 0.43416 0.0
O20 O 0.70574 0.90454 0.4379 0.0
O21 O 0.69517 0.9159 0.36869 0.0
O22 O 0.69076 0.89067 0.34209 0.0
O23 O 0.68172 0.85891 0.41513 0.0
O24 O 0.69235 0.8579 0.38242 0.0
C25 C 0.69504 0.91132 0.34936 0.0
C26 C 0.68624 0.84657 0.39873 0.0
O27 O 0.68081 0.92244 0.41725 0.0
Mg28 Mg 0.28466 0.38607 0.62046 0.0
O29 O 0.32341 0.39137 0.62426 0.0
O30 O 0.33526 0.3672 0.64946 0.0
Mg31 Mg 0.30451 0.34819 0.66272 0.0
C32 C 0.33922 0.3828 0.63563 0.0
C33 C 0.26972 0.41756 0.584 0.0
O34 O 0.25779 0.39817 0.58062 0.0
O35 O 0.27887 0.40872 0.64908 0.0
O36 O 0.29218 0.38482 0.67398 0.0
O37 O 0.29083 0.3559 0.59894 0.0
O38 O 0.28716 0.35205 0.63279 0.0
C39 C 0.28364 0.40451 0.66797 0.0
C40 C 0.29162 0.34245 0.61515 0.0
O41 O 0.28275 0.41847 0.59969 0.0
Mg42 Mg 0.84365 0.05369 0.86761 0.0
O43 O 0.84753 0.09454 0.86939 0.0
O44 O 0.87531 0.10202 0.89211 0.0
Mg45 Mg 0.88815 0.06725 0.90556 0.0
C46 C 0.86034 0.10908 0.8792 0.0
C47 C 0.8101 0.04417 0.833 0.0
O48 O 0.8263 0.0285 0.82995 0.0
O49 O 0.82459 0.05321 0.8984 0.0
O50 O 0.85324 0.06119 0.9202 0.0
O51 O 0.87102 0.05226 0.84368 0.0
O52 O 0.87702 0.0491 0.87729 0.0
C53 C 0.83231 0.05662 0.91666 0.0
C54 C 0.88522 0.05046 0.85891 0.0
O55 O 0.81139 0.05777 0.84868 0.0
Mg56 Mg 0.18505 0.38854 0.88873 0.0
O57 O 0.14743 0.389 0.87853 0.0
O58 O 0.14409 0.36526 0.85089 0.0
Mg59 Mg 0.17902 0.3509 0.84266 0.0
C60 C 0.13545 0.37921 0.86432 0.0
C61 C 0.17386 0.41744 0.92908 0.0
O62 O 0.17001 0.39592 0.93607 0.0
O63 O 0.19412 0.41343 0.86222 0.0
O64 O 0.18956 0.38913 0.83506 0.0
O65 O 0.17836 0.35601 0.90763 0.0
O66 O 0.18936 0.3554 0.87502 0.0
C67 C 0.19427 0.40947 0.84279 0.0
C68 C 0.18274 0.3439 0.89107 0.0
O69 O 0.17943 0.42013 0.91025 0.0
Mg70 Mg 0.78459 0.88098 0.12197 0.0
O71 O 0.8228 0.88662 0.12871 0.0
O72 O 0.83294 0.86205 0.15421 0.0
Mg73 Mg 0.80132 0.84219 0.16477 0.0
C74 C 0.83778 0.87802 0.14095 0.0
C75 C 0.79896 0.91564 0.08756 0.0
O76 O 0.81457 0.89905 0.08597 0.0
O77 O 0.77597 0.90279 0.15052 0.0
O78 O 0.78692 0.8781 0.17571 0.0
O79 O 0.793 0.85151 0.10038 0.0
O80 O 0.7866 0.84662 0.13377 0.0
C81 C 0.77871 0.89792 0.16962 0.0
C82 C 0.7927 0.83762 0.11631 0.0
O83 O 0.78392 0.91378 0.10151 0.0
Mg84 Mg 0.34364 0.55105 0.36537 0.0
O85 O 0.3486 0.59154 0.3686 0.0
O86 O 0.37612 0.5976 0.3919 0.0
Mg87 Mg 0.38765 0.56181 0.40443 0.0
C88 C 0.36152 0.60544 0.37897 0.0
C89 C 0.30336 0.54033 0.33605 0.0
O90 O 0.31217 0.51902 0.33806 0.0
O91 O 0.32397 0.54995 0.39578 0.0
O92 O 0.35225 0.55626 0.41837 0.0
O93 O 0.37137 0.55001 0.34186 0.0
O94 O 0.37668 0.54505 0.37542 0.0
C95 C 0.3313 0.55242 0.41428 0.0
C96 C 0.38525 0.54723 0.35724 0.0
O97 O 0.31188 0.55746 0.34631 0.0
Mg98 Mg 0.69578 0.15449 0.61119 0.0
O99 O 0.65729 0.15155 0.6158 0.0
O100 O 0.6463 0.17785 0.63968 0.0
Mg101 Mg 0.67817 0.19689 0.65127 0.0
C102 C 0.64184 0.16139 0.62666 0.0
C103 C 0.68188 0.11952 0.5763 0.0
O104 O 0.66911 0.13799 0.57192 0.0
O105 O 0.70129 0.13397 0.64136 0.0
O106 O 0.69021 0.16135 0.66436 0.0
O107 O 0.68996 0.18385 0.58839 0.0
O108 O 0.69524 0.18926 0.62191 0.0
C109 C 0.6977 0.14064 0.65999 0.0
C110 C 0.69036 0.19809 0.60414 0.0
O111 O 0.69494 0.12047 0.59198 0.0
Mg112 Mg 0.85086 0.41747 0.85548 0.0
O113 O 0.85115 0.37679 0.86062 0.0
O114 O 0.87448 0.37041 0.88739 0.0
Mg115 Mg 0.88755 0.4055 0.90015 0.0
C116 C 0.86132 0.36275 0.87313 0.0
C117 C 0.82138 0.43001 0.81869 0.0
O118 O 0.83847 0.44504 0.81797 0.0
O119 O 0.82722 0.42296 0.88308 0.0
O120 O 0.85121 0.41573 0.90923 0.0
O121 O 0.88202 0.41426 0.83575 0.0
O122 O 0.88261 0.4208 0.86941 0.0
C123 C 0.83153 0.42129 0.9024 0.0
C124 C 0.89365 0.41681 0.85265 0.0
O125 O 0.82104 0.41464 0.83305 0.0
Mg126 Mg 0.37639 0.04762 0.62491 0.0
O127 O 0.3673 0.0863 0.61692 0.0
O128 O 0.38642 0.09653 0.58847 0.0
Mg129 Mg 0.40665 0.06433 0.57772 0.0
C130 C 0.37269 0.10148 0.60311 0.0
C131 C 0.34763 0.06228 0.6627 0.0
O132 O 0.3627 0.07951 0.66212 0.0
O133 O 0.35312 0.03436 0.59913 0.0
O134 O 0.3728 0.04504 0.5711 0.0
O135 O 0.40585 0.06049 0.64308 0.0
O136 O 0.40752 0.05147 0.60981 0.0
C137 C 0.35542 0.0355 0.57954 0.0
C138 C 0.4173 0.06017 0.62603 0.0
O139 O 0.34801 0.04636 0.64872 0.0
Mg140 Mg 0.66967 0.54195 0.36413 0.0
O141 O 0.66504 0.5814 0.3725 0.0
O142 O 0.6385 0.58357 0.39712 0.0
Mg143 Mg 0.62606 0.5461 0.40434 0.0
C144 C 0.65286 0.59341 0.38509 0.0
C145 C 0.69974 0.56394 0.33021 0.0
O146 O 0.6803 0.57477 0.32685 0.0
O147 O 0.68995 0.53675 0.39406 0.0
O148 O 0.66149 0.53771 0.41704 0.0
O149 O 0.64169 0.54449 0.3407 0.0
O150 O 0.63656 0.53489 0.37341 0.0
C151 C 0.68247 0.53527 0.41252 0.0
C152 C 0.62786 0.53977 0.35565 0.0
O153 O 0.70147 0.55008 0.34562 0.0
Mg154 Mg 0.10857 0.97654 0.14912 0.0
O155 O 0.11173 0.93925 0.1355 0.0
O156 O 0.09059 0.93675 0.10679 0.0
Mg157 Mg 0.07348 0.973 0.10232 0.0
C158 C 0.10419 0.92757 0.11997 0.0
C159 C 0.13907 0.95191 0.18245 0.0
O160 O 0.12149 0.9375 0.18268 0.0
O161 O 0.13196 0.98989 0.12367 0.0
O162 O 0.10871 0.98944 0.09617 0.0
O163 O 0.07855 0.96473 0.16726 0.0
O164 O 0.07632 0.97961 0.13575 0.0
C165 C 0.12793 0.99393 0.10461 0.0
C166 C 0.06636 0.96945 0.15108 0.0
O167 O 0.13896 0.96954 0.17019 0.0
Mg168 Mg 0.87406 0.54151 0.1173 0.0
O169 O 0.86769 0.58126 0.11165 0.0
O170 O 0.88804 0.59277 0.08432 0.0
Mg171 Mg 0.90598 0.56007 0.07162 0.0
C172 C 0.87432 0.59728 0.09906 0.0
C173 C 0.84961 0.53163 0.15791 0.0
O174 O 0.86921 0.52083 0.16041 0.0
O175 O 0.85034 0.53206 0.09067 0.0
O176 O 0.87074 0.54454 0.06359 0.0
O177 O 0.90392 0.55091 0.13641 0.0
O178 O 0.90561 0.54418 0.10271 0.0
C179 C 0.85278 0.53537 0.07129 0.0
C180 C 0.9156 0.55104 0.11949 0.0
O181 O 0.84537 0.54149 0.14067 0.0
Mg182 Mg 0.16706 0.03751 0.87036 0.0
O183 O 0.16064 0.0778 0.87383 0.0
O184 O 0.13108 0.08269 0.89509 0.0
Mg185 Mg 0.11981 0.04638 0.9064 0.0
C186 C 0.1466 0.09114 0.88347 0.0
C187 C 0.20361 0.02847 0.83924 0.0
O188 O 0.19014 0.00984 0.83852 0.0
O189 O 0.18502 0.03755 0.90199 0.0
O190 O 0.15455 0.04365 0.92199 0.0
O191 O 0.14099 0.03585 0.84512 0.0
O192 O 0.13349 0.03051 0.87821 0.0
C193 C 0.17592 0.04075 0.9197 0.0
C194 C 0.12613 0.0328 0.85957 0.0
O195 O 0.19961 0.04452 0.8526 0.0
Mg196 Mg 0.60707 0.48671 0.64054 0.0
O197 O 0.609 0.44795 0.6295 0.0
O198 O 0.58617 0.44252 0.60219 0.0
Mg199 Mg 0.57178 0.47892 0.59419 0.0
C200 C 0.60023 0.43462 0.61557 0.0
C201 C 0.6364 0.463 0.67495 0.0
O202 O 0.61826 0.44938 0.67543 0.0
O203 O 0.63099 0.49686 0.61438 0.0
O204 O 0.6086 0.48989 0.58699 0.0
O205 O 0.57674 0.47753 0.65927 0.0
O206 O 0.57499 0.48962 0.6268 0.0
C207 C 0.62773 0.4958 0.59488 0.0
C208 C 0.56477 0.48104 0.64273 0.0
O209 O 0.63709 0.48013 0.66217 0.0
Mg210 Mg 0.35202 0.91475 0.36626 0.0
O211 O 0.35279 0.87374 0.36929 0.0
O212 O 0.37562 0.86583 0.39609 0.0
Mg213 Mg 0.38804 0.90009 0.41076 0.0
C214 C 0.36287 0.859 0.38123 0.0
C215 C 0.32255 0.92804 0.32916 0.0
O216 O 0.33937 0.94339 0.32848 0.0
O217 O 0.32798 0.91819 0.39382 0.0
O218 O 0.35151 0.90931 0.41994 0.0
O219 O 0.38324 0.91363 0.34659 0.0
O220 O 0.38379 0.91734 0.38056 0.0
C221 C 0.33194 0.91515 0.41305 0.0
C222 C 0.39491 0.9149 0.36357 0.0
O223 O 0.32242 0.91264 0.34351 0.0
C224 C 0.12503 0.89159 0.13246 0.0
C225 C 0.11173 0.90267 0.11717 0.0
C226 C 0.13239 0.86823 0.12988 0.0
C227 C 0.14403 0.8227 0.09062 0.0
H228 H 0.14141 0.78011 0.1376 0.0
C229 C 0.16896 0.72263 0.08671 0.0
C230 C 0.18105 0.71382 0.10383 0.0
C231 C 0.15999 0.74567 0.0871 0.0
C232 C 0.14246 0.79184 0.12438 0.0
H233 H 0.09583 0.89779 0.08711 0.0
H234 H 0.10876 0.85685 0.08267 0.0
H235 H 0.12621 0.82014 0.14071 0.0
H236 H 0.19431 0.72262 0.13424 0.0
H237 H 0.17897 0.76265 0.13481 0.0
H238 H 0.16059 0.79436 0.07437 0.0
C239 C 0.11352 0.8664 0.09659 0.0
C240 C 0.13372 0.81476 0.12616 0.0
C241 C 0.10601 0.8898 0.09921 0.0
C242 C 0.18472 0.72873 0.12096 0.0
C243 C 0.17584 0.75166 0.12133 0.0
C244 C 0.15286 0.79971 0.08883 0.0
C245 C 0.12672 0.85538 0.11194 0.0
C246 C 0.1347 0.83056 0.10942 0.0
C247 C 0.163 0.76025 0.1046 0.0
C248 C 0.15249 0.78417 0.10582 0.0
H249 H 0.12981 0.90095 0.14647 0.0
H250 H 0.14282 0.86033 0.14186 0.0
H251 H 0.14514 0.83456 0.07749 0.0
H252 H 0.16588 0.71152 0.07329 0.0
H253 H 0.15012 0.75178 0.07398 0.0
C254 C 0.43216 0.91102 0.34503 0.0
C255 C 0.41997 0.91248 0.36364 0.0
C256 C 0.45587 0.90892 0.34525 0.0
C257 C 0.50428 0.89124 0.34962 0.0
H258 H 0.5388 0.9197 0.39444 0.0
C259 C 0.59802 0.86679 0.36356 0.0
C260 C 0.61281 0.88414 0.37153 0.0
C261 C 0.5747 0.87112 0.36225 0.0
C262 C 0.52957 0.91189 0.38161 0.0
H263 H 0.42331 0.9133 0.39706 0.0
H264 H 0.46404 0.90816 0.39751 0.0
H265 H 0.49832 0.92692 0.39195 0.0
H266 H 0.6149 0.91977 0.38414 0.0
H267 H 0.57436 0.92783 0.38103 0.0
H268 H 0.53575 0.87725 0.33865 0.0
C269 C 0.45557 0.90932 0.38267 0.0
C270 C 0.50616 0.9157 0.38038 0.0
C271 C 0.432 0.91187 0.38242 0.0
C272 C 0.60385 0.90597 0.37814 0.0
C273 C 0.58055 0.91052 0.37642 0.0
C274 C 0.52778 0.88781 0.35062 0.0
C275 C 0.4679 0.90791 0.36411 0.0
C276 C 0.4931 0.9051 0.36457 0.0
C277 C 0.56563 0.89313 0.36847 0.0
C278 C 0.54073 0.89778 0.36681 0.0
H279 H 0.42343 0.91169 0.33028 0.0
H280 H 0.46474 0.90833 0.33062 0.0
H281 H 0.49488 0.88257 0.33732 0.0
H282 H 0.60444 0.84969 0.35853 0.0
H283 H 0.5638 0.85704 0.35655 0.0
C284 C 0.30831 0.3085 0.59528 0.0
C285 C 0.29902 0.31742 0.61371 0.0
C286 C 0.3157 0.28495 0.59408 0.0
C287 C 0.30886 0.22621 0.6181 0.0
H288 H 0.36739 0.21306 0.59319 0.0
C289 C 0.35113 0.13349 0.62176 0.0
C290 C 0.36306 0.12576 0.60418 0.0
C291 C 0.34279 0.15671 0.62293 0.0
C292 C 0.35086 0.21636 0.59994 0.0
H293 H 0.28974 0.30853 0.64521 0.0
H294 H 0.30267 0.26742 0.6431 0.0
H295 H 0.35366 0.25382 0.59495 0.0
H296 H 0.37503 0.13626 0.57381 0.0
H297 H 0.36009 0.17643 0.57568 0.0
H298 H 0.30594 0.18872 0.62291 0.0
C299 C 0.30421 0.27864 0.62958 0.0
C300 C 0.34303 0.23973 0.60097 0.0
C301 C 0.29697 0.30223 0.63083 0.0
C302 C 0.36611 0.14166 0.58768 0.0
C303 C 0.35765 0.16477 0.58879 0.0
C304 C 0.31663 0.20278 0.61695 0.0
C305 C 0.31377 0.26979 0.61123 0.0
C306 C 0.32195 0.24491 0.61006 0.0
C307 C 0.34607 0.17268 0.6065 0.0
C308 C 0.33773 0.19757 0.60783 0.0
H309 H 0.31007 0.31975 0.58181 0.0
H310 H 0.32278 0.27854 0.57967 0.0
H311 H 0.29243 0.22965 0.62499 0.0
H312 H 0.34855 0.12174 0.63479 0.0
H313 H 0.33417 0.16228 0.6369 0.0
C314 C 0.09322 0.04317 0.83639 0.0
C315 C 0.1015 0.03486 0.85548 0.0
C316 C 0.0699 0.04705 0.83353 0.0
C317 C 0.01954 0.06163 0.86345 0.0
H318 H 0.98351 0.03299 0.81966 0.0
C319 C 0.92471 0.0469 0.87242 0.0
C320 C 0.91005 0.05123 0.8557 0.0
C321 C 0.94816 0.04772 0.86982 0.0
C322 C 0.99342 0.0415 0.83173 0.0
H323 H 0.09173 0.02258 0.88598 0.0
H324 H 0.05139 0.02981 0.88114 0.0
H325 H 0.02504 0.02881 0.81937 0.0
H326 H 0.90847 0.05941 0.82296 0.0
H327 H 0.94984 0.06078 0.81838 0.0
H328 H 0.98821 0.07394 0.87612 0.0
C329 C 0.06289 0.03369 0.86853 0.0
C330 C 0.01711 0.03907 0.83156 0.0
C331 C 0.08601 0.02959 0.87129 0.0
C332 C 0.91938 0.05608 0.83616 0.0
C333 C 0.943 0.05682 0.83352 0.0
C334 C 0.99601 0.06418 0.86356 0.0
C335 C 0.05466 0.04287 0.8498 0.0
C336 C 0.03022 0.04842 0.84784 0.0
C337 C 0.95759 0.05284 0.85041 0.0
C338 C 0.98263 0.05341 0.84814 0.0
H339 H 0.10477 0.04726 0.82388 0.0
H340 H 0.06386 0.05402 0.81892 0.0
H341 H 0.02937 0.0694 0.87596 0.0
H342 H 0.91813 0.04262 0.88758 0.0
H343 H 0.95894 0.04397 0.88303 0.0
C344 C 0.166 0.30628 0.90509 0.0
C345 C 0.17885 0.318 0.88995 0.0
C346 C 0.16204 0.28182 0.90359 0.0
C347 C 0.18498 0.22712 0.88104 0.0
H348 H 0.12397 0.20251 0.88832 0.0
C349 C 0.16413 0.12785 0.86813 0.0
C350 C 0.14903 0.11731 0.88221 0.0
C351 C 0.16715 0.15252 0.8679 0.0
C352 C 0.14117 0.20903 0.88648 0.0
H353 H 0.19798 0.3133 0.8616 0.0
H354 H 0.19122 0.27065 0.85911 0.0
H355 H 0.13082 0.24513 0.89113 0.0
H356 H 0.12517 0.12454 0.907 0.0
H357 H 0.13085 0.16718 0.90694 0.0
H358 H 0.19552 0.19109 0.8769 0.0
C359 C 0.18416 0.28035 0.87208 0.0
C360 C 0.14505 0.23345 0.88807 0.0
C361 C 0.18789 0.30479 0.87345 0.0
C362 C 0.13683 0.13202 0.89583 0.0
C363 C 0.13999 0.15657 0.89572 0.0
C364 C 0.18116 0.20266 0.87967 0.0
C365 C 0.17112 0.26863 0.88707 0.0
C366 C 0.167 0.24273 0.88541 0.0
C367 C 0.15527 0.16716 0.88185 0.0
C368 C 0.1592 0.19328 0.88244 0.0
H369 H 0.15882 0.31601 0.91798 0.0
H370 H 0.15207 0.27317 0.91545 0.0
H371 H 0.20212 0.2338 0.87911 0.0
H372 H 0.17371 0.11706 0.85736 0.0
H373 H 0.17879 0.16009 0.85677 0.0
C374 C 0.86808 0.90397 0.12533 0.0
C375 C 0.86143 0.88717 0.14021 0.0
C376 C 0.89032 0.91287 0.12514 0.0
C377 C 0.94847 0.90001 0.14472 0.0
H378 H 0.95867 0.96722 0.13546 0.0
C379 C 0.0337 0.94526 0.16409 0.0
C380 C 0.04256 0.96109 0.14941 0.0
C381 C 0.0116 0.93645 0.16203 0.0
C382 C 0.9561 0.94837 0.13786 0.0
H383 H 0.87307 0.86662 0.16658 0.0
H384 H 0.91145 0.88235 0.16644 0.0
H385 H 0.92016 0.95116 0.13314 0.0
H386 H 0.03496 0.98059 0.12134 0.0
H387 H 0.9963 0.96519 0.11777 0.0
H388 H 0.98433 0.89731 0.14979 0.0
C389 C 0.89969 0.88836 0.15465 0.0
C390 C 0.93405 0.93914 0.13648 0.0
C391 C 0.87756 0.87942 0.1548 0.0
C392 C 0.02868 0.96829 0.13284 0.0
C393 C 0.0065 0.9596 0.13085 0.0
C394 C 0.97045 0.90925 0.14621 0.0
C395 C 0.90638 0.9052 0.13985 0.0
C396 C 0.92994 0.91488 0.14011 0.0
C397 C 0.9978 0.9434 0.14533 0.0
C398 C 0.97449 0.93356 0.143 0.0
H399 H 0.85613 0.9103 0.11382 0.0
H400 H 0.89497 0.92564 0.11338 0.0
H401 H 0.94601 0.88115 0.14717 0.0
H402 H 0.04393 0.93939 0.17706 0.0
H403 H 0.00526 0.92426 0.1736 0.0
C404 C 0.37556 0.6467 0.3857 0.0
C405 C 0.35994 0.63149 0.37583 0.0
C406 C 0.37455 0.67119 0.38272 0.0
C407 C 0.33663 0.72 0.3683 0.0
H408 H 0.39363 0.75412 0.36306 0.0
C409 C 0.34452 0.82371 0.36361 0.0
C410 C 0.36065 0.83308 0.37754 0.0
C411 C 0.3431 0.7991 0.36024 0.0
C412 C 0.37756 0.74484 0.36447 0.0
H413 H 0.33079 0.6303 0.35518 0.0
H414 H 0.32903 0.67338 0.35004 0.0
H415 H 0.3936 0.71085 0.36279 0.0
H416 H 0.38788 0.82383 0.39884 0.0
H417 H 0.38543 0.78142 0.3929 0.0
H418 H 0.32073 0.75426 0.37049 0.0
C419 C 0.34204 0.66614 0.3601 0.0
C420 C 0.37755 0.72008 0.36436 0.0
C421 C 0.34312 0.64149 0.36299 0.0
C422 C 0.37523 0.81735 0.388 0.0
C423 C 0.37397 0.79298 0.38449 0.0
C424 C 0.33664 0.74491 0.36837 0.0
C425 C 0.35788 0.68121 0.36982 0.0
C426 C 0.3572 0.70737 0.36695 0.0
C427 C 0.35802 0.78357 0.37052 0.0
C428 C 0.35723 0.75751 0.36712 0.0
H429 H 0.38871 0.63973 0.39575 0.0
H430 H 0.38673 0.68234 0.39077 0.0
H431 H 0.32068 0.71068 0.37036 0.0
H432 H 0.33301 0.83534 0.35534 0.0
H433 H 0.33063 0.79226 0.3494 0.0
C434 C 0.60175 0.15938 0.63944 0.0
C435 C 0.61817 0.15266 0.6248 0.0
C436 C 0.57984 0.14989 0.6386 0.0
C437 C 0.53811 0.12114 0.60457 0.0
H438 H 0.51393 0.09592 0.65575 0.0
C439 C 0.45414 0.06744 0.60772 0.0
C440 C 0.44011 0.07105 0.62498 0.0
C441 C 0.47587 0.07751 0.60704 0.0
C442 C 0.52024 0.10317 0.64137 0.0
H443 H 0.62417 0.13127 0.59736 0.0
H444 H 0.58574 0.11488 0.59584 0.0
H445 H 0.55149 0.11402 0.65553 0.0
H446 H 0.43759 0.08847 0.65484 0.0
H447 H 0.47508 0.1065 0.65345 0.0
H448 H 0.50669 0.11066 0.59046 0.0
C449 C 0.58994 0.12746 0.60798 0.0
C450 C 0.5418 0.11349 0.64126 0.0
C451 C 0.61196 0.13677 0.60893 0.0
C452 C 0.44808 0.08516 0.64141 0.0
C453 C 0.46966 0.09539 0.64065 0.0
C454 C 0.51639 0.11101 0.60472 0.0
C455 C 0.57379 0.13365 0.623 0.0
C456 C 0.55092 0.12264 0.62289 0.0
C457 C 0.48392 0.09155 0.62355 0.0
C458 C 0.50715 0.10198 0.62316 0.0
H459 H 0.60592 0.17159 0.65186 0.0
H460 H 0.56763 0.15517 0.65023 0.0
H461 H 0.54471 0.12821 0.59023 0.0
H462 H 0.44848 0.05653 0.59488 0.0
H463 H 0.48648 0.07392 0.59375 0.0
C464 C 0.84147 0.14434 0.86224 0.0
C465 C 0.85831 0.135 0.87543 0.0
C466 C 0.84014 0.16889 0.8587 0.0
C467 C 0.87535 0.22315 0.86163 0.0
H468 H 0.81847 0.25746 0.86651 0.0
C469 C 0.87304 0.32139 0.88203 0.0
C470 C 0.85875 0.33665 0.87075 0.0
C471 C 0.8716 0.29686 0.87955 0.0
C472 C 0.8344 0.24806 0.86475 0.0
H473 H 0.88677 0.14433 0.89537 0.0
H474 H 0.88436 0.18667 0.88928 0.0
H475 H 0.81847 0.21388 0.86759 0.0
H476 H 0.83133 0.33789 0.84826 0.0
H477 H 0.82864 0.29457 0.84412 0.0
H478 H 0.89141 0.25714 0.85948 0.0
C479 C 0.87237 0.1751 0.88144 0.0
C480 C 0.83441 0.22315 0.86537 0.0
C481 C 0.87363 0.15076 0.88505 0.0
C482 C 0.84263 0.32664 0.85713 0.0
C483 C 0.84104 0.30189 0.8548 0.0
C484 C 0.87534 0.2479 0.86107 0.0
C485 C 0.85576 0.18448 0.86813 0.0
C486 C 0.855 0.21051 0.86447 0.0
C487 C 0.85575 0.28682 0.86581 0.0
C488 C 0.85498 0.26064 0.86327 0.0
H489 H 0.82937 0.13273 0.85461 0.0
H490 H 0.82717 0.17563 0.84835 0.0
H491 H 0.89143 0.2139 0.86039 0.0
H492 H 0.88565 0.32836 0.89269 0.0
H493 H 0.8829 0.28568 0.88851 0.0
C494 C 0.64522 0.63268 0.40202 0.0
C495 C 0.65579 0.61954 0.38621 0.0
C496 C 0.64836 0.65721 0.4035 0.0
C497 C 0.66408 0.70972 0.37321 0.0
H498 H 0.67723 0.73792 0.42674 0.0
C499 C 0.69148 0.80738 0.3813 0.0
C500 C 0.68293 0.82055 0.39803 0.0
C501 C 0.68807 0.78289 0.38014 0.0
C502 C 0.67326 0.73039 0.41172 0.0
H503 H 0.6778 0.62203 0.35942 0.0
H504 H 0.68317 0.66496 0.362 0.0
H505 H 0.67133 0.69512 0.42395 0.0
H506 H 0.66424 0.81836 0.42679 0.0
H507 H 0.65788 0.77551 0.42462 0.0
H508 H 0.66573 0.74492 0.36097 0.0
C509 C 0.67241 0.65618 0.37319 0.0
C510 C 0.66994 0.70586 0.41013 0.0
C511 C 0.66941 0.63158 0.37179 0.0
C512 C 0.67108 0.80866 0.41373 0.0
C513 C 0.66753 0.7841 0.41252 0.0
C514 C 0.66725 0.73425 0.37482 0.0
C515 C 0.66201 0.66922 0.38914 0.0
C516 C 0.66541 0.69527 0.39084 0.0
C517 C 0.6759 0.77094 0.39564 0.0
C518 C 0.672 0.74489 0.39408 0.0
H519 H 0.63462 0.62401 0.41341 0.0
H520 H 0.63992 0.66683 0.41581 0.0
H521 H 0.66027 0.7021 0.3582 0.0
H522 H 0.70099 0.81596 0.36909 0.0
H523 H 0.69519 0.77328 0.36716 0.0
C524 C 0.85277 0.62844 0.11879 0.0
C525 C 0.86564 0.62184 0.1014 0.0
C526 C 0.8445 0.65161 0.1208 0.0
C527 C 0.82974 0.70434 0.0902 0.0
H528 H 0.83594 0.73829 0.14217 0.0
C529 C 0.81138 0.80456 0.09682 0.0
C530 C 0.80059 0.81276 0.11481 0.0
C531 C 0.81897 0.78111 0.09545 0.0
C532 C 0.83378 0.72896 0.12763 0.0
H533 H 0.87992 0.63453 0.07252 0.0
H534 H 0.86545 0.67482 0.07606 0.0
H535 H 0.84958 0.69747 0.13943 0.0
H536 H 0.78895 0.80271 0.14536 0.0
H537 H 0.80184 0.76169 0.14286 0.0
H538 H 0.81379 0.73562 0.07839 0.0
C539 C 0.86165 0.66202 0.08805 0.0
C540 C 0.84163 0.70559 0.12607 0.0
C541 C 0.87006 0.63895 0.08611 0.0
C542 C 0.79742 0.797 0.13137 0.0
C543 C 0.80489 0.77349 0.12996 0.0
C544 C 0.82177 0.72762 0.09179 0.0
C545 C 0.84877 0.66859 0.10539 0.0
C546 C 0.83983 0.69312 0.10729 0.0
C547 C 0.81579 0.76527 0.11199 0.0
C548 C 0.82383 0.74029 0.11048 0.0
H549 H 0.84906 0.61572 0.13086 0.0
H550 H 0.83447 0.65615 0.13426 0.0
H551 H 0.82781 0.69502 0.07562 0.0
H552 H 0.81417 0.81632 0.08384 0.0
H553 H 0.82761 0.77549 0.08151 0.0
C554 C 0.60079 0.39515 0.59746 0.0
C555 C 0.60753 0.40949 0.61425 0.0
C556 C 0.60886 0.37191 0.59554 0.0
C557 C 0.63416 0.32302 0.62545 0.0
H558 H 0.65723 0.30167 0.57241 0.0
C559 C 0.68744 0.23871 0.61901 0.0
C560 C 0.68257 0.22293 0.60274 0.0
C561 C 0.67814 0.26144 0.61925 0.0
C562 C 0.65059 0.30728 0.58725 0.0
H563 H 0.62773 0.41041 0.64242 0.0
H564 H 0.64172 0.36992 0.63905 0.0
H565 H 0.64027 0.34117 0.57549 0.0
H566 H 0.66492 0.21887 0.57347 0.0
H567 H 0.64839 0.25882 0.57394 0.0
H568 H 0.64444 0.2893 0.63727 0.0
C569 C 0.63011 0.37663 0.62742 0.0
C570 C 0.64088 0.32987 0.58901 0.0
C571 C 0.62215 0.39989 0.6293 0.0
C572 C 0.66897 0.23071 0.58619 0.0
C573 C 0.65954 0.25355 0.58647 0.0
C574 C 0.64378 0.30049 0.62368 0.0
C575 C 0.6237 0.36247 0.61044 0.0
C576 C 0.63283 0.33806 0.60821 0.0
C577 C 0.66364 0.26894 0.60326 0.0
C578 C 0.65242 0.29248 0.60464 0.0
H579 H 0.58956 0.40197 0.58558 0.0
H580 H 0.60344 0.36131 0.58242 0.0
H581 H 0.62771 0.32867 0.64034 0.0
H582 H 0.69818 0.23335 0.63181 0.0
H583 H 0.68214 0.27308 0.63212 0.0
C584 C 0.09959 0.39666 0.87898 0.0
C585 C 0.11075 0.38422 0.8631 0.0
C586 C 0.07621 0.40101 0.87773 0.0
C587 C 0.0287 0.40499 0.84062 0.0
H588 H 0.99104 0.39272 0.88851 0.0
C589 C 0.9304 0.40428 0.83628 0.0
C590 C 0.9186 0.41389 0.85319 0.0
C591 C 0.95398 0.40116 0.83726 0.0
C592 C 0.00133 0.39655 0.87506 0.0
H593 H 0.10606 0.36684 0.83334 0.0
H594 H 0.06545 0.37446 0.83124 0.0
H595 H 0.03202 0.38708 0.89088 0.0
H596 H 0.92233 0.42851 0.88409 0.0
H597 H 0.96329 0.42348 0.88567 0.0
H598 H 0.99806 0.41462 0.82482 0.0
C599 C 0.07478 0.38094 0.84459 0.0
C600 C 0.02481 0.3933 0.87644 0.0
C601 C 0.09805 0.37644 0.84589 0.0
C602 C 0.93087 0.4207 0.87092 0.0
C603 C 0.95438 0.41773 0.87186 0.0
C604 C 0.00521 0.40838 0.83927 0.0
C605 C 0.06358 0.39319 0.86051 0.0
C606 C 0.03874 0.3974 0.85922 0.0
C607 C 0.96623 0.40776 0.85513 0.0
C608 C 0.99123 0.40416 0.85646 0.0
H609 H 0.10885 0.40292 0.89243 0.0
H610 H 0.06805 0.41067 0.89016 0.0
H611 H 0.03905 0.40855 0.82715 0.0
H612 H 0.92139 0.39884 0.82242 0.0
H613 H 0.96254 0.3932 0.82417 0.0
C614 C 0.58853 0.53527 0.36931 0.0
C615 C 0.60299 0.54191 0.35309 0.0
C616 C 0.56512 0.53828 0.36757 0.0
C617 C 0.51812 0.54304 0.33119 0.0
H618 H 0.48716 0.57042 0.37845 0.0
C619 C 0.41983 0.55518 0.33559 0.0
C620 C 0.41014 0.54829 0.3545 0.0
C621 C 0.44348 0.55669 0.33353 0.0
C622 C 0.49554 0.56267 0.36516 0.0
H623 H 0.60415 0.55611 0.32194 0.0
H624 H 0.56287 0.56109 0.31881 0.0
H625 H 0.52851 0.5687 0.37813 0.0
H626 H 0.41761 0.53674 0.38579 0.0
H627 H 0.45853 0.53931 0.3822 0.0
H628 H 0.48498 0.53633 0.31853 0.0
C629 C 0.56986 0.55376 0.33293 0.0
C630 C 0.51919 0.56173 0.36497 0.0
C631 C 0.59343 0.55094 0.33475 0.0
C632 C 0.42449 0.54256 0.37113 0.0
C633 C 0.44798 0.5441 0.3691 0.0
C634 C 0.49434 0.54388 0.33142 0.0
C635 C 0.55556 0.54778 0.34948 0.0
C636 C 0.53069 0.55134 0.34825 0.0
C637 C 0.45776 0.55139 0.35037 0.0
C638 C 0.48283 0.55312 0.34869 0.0
H639 H 0.59523 0.52772 0.38344 0.0
H640 H 0.55443 0.53302 0.38039 0.0
H641 H 0.52662 0.5349 0.31813 0.0
H642 H 0.40917 0.55966 0.32248 0.0
H643 H 0.45056 0.56238 0.31891 0.0
C644 C 0.52722 0.47881 0.6244 0.0
C645 C 0.54108 0.47241 0.64124 0.0
C646 C 0.50531 0.46941 0.62236 0.0
C647 C 0.47113 0.41788 0.63746 0.0
H648 H 0.41909 0.45763 0.62498 0.0
C649 C 0.37973 0.38439 0.64746 0.0
C650 C 0.36276 0.39196 0.63361 0.0
C651 C 0.4016 0.39387 0.64659 0.0
C652 C 0.43348 0.4462 0.6281 0.0
H653 H 0.54269 0.45146 0.66932 0.0
H654 H 0.50451 0.43501 0.6657 0.0
H655 H 0.45694 0.47537 0.6272 0.0
H656 H 0.35576 0.41517 0.60761 0.0
H657 H 0.39422 0.43144 0.60584 0.0
H658 H 0.44792 0.38869 0.63824 0.0
C659 C 0.51065 0.44718 0.65402 0.0
C660 C 0.45514 0.4564 0.62946 0.0
C661 C 0.53244 0.45675 0.65618 0.0
C662 C 0.36839 0.40897 0.61856 0.0
C663 C 0.3904 0.41841 0.61763 0.0
C664 C 0.44956 0.40766 0.63593 0.0
C665 C 0.49693 0.45325 0.63701 0.0
C666 C 0.47411 0.44239 0.63449 0.0
C667 C 0.40722 0.41109 0.63175 0.0
C668 C 0.4304 0.42174 0.63159 0.0
H669 H 0.53336 0.49095 0.61271 0.0
H670 H 0.49512 0.47434 0.60907 0.0
H671 H 0.48552 0.40657 0.64095 0.0
H672 H 0.37605 0.37142 0.65934 0.0
H673 H 0.41395 0.3881 0.65796 0.0
C674 C 0.11126 0.62652 0.10656 0.0
C675 C 0.11728 0.6414 0.12322 0.0
C676 C 0.08938 0.61692 0.10517 0.0
C677 C 0.04145 0.59996 0.13762 0.0
H678 H 0.00604 0.60125 0.08695 0.0
C679 C 0.94731 0.57323 0.13648 0.0
C680 C 0.9389 0.5608 0.11922 0.0
C681 C 0.96919 0.58278 0.13632 0.0
C682 C 0.01583 0.60041 0.10114 0.0
H683 H 0.10487 0.65818 0.15127 0.0
H684 H 0.06682 0.64126 0.14887 0.0
H685 H 0.04408 0.61873 0.0876 0.0
H686 H 0.94688 0.54839 0.08832 0.0
H687 H 0.98539 0.56459 0.08821 0.0
H688 H 0.01361 0.58133 0.15116 0.0
C689 C 0.07907 0.637 0.13695 0.0
C690 C 0.03756 0.61051 0.1015 0.0
C691 C 0.10083 0.64679 0.13823 0.0
C692 C 0.95286 0.55802 0.10181 0.0
C693 C 0.97488 0.56741 0.10171 0.0
C694 C 0.01988 0.58967 0.13721 0.0
C695 C 0.07321 0.6218 0.12052 0.0
C696 C 0.05045 0.61059 0.11982 0.0
C697 C 0.98331 0.57991 0.11898 0.0
C698 C 0.00667 0.59 0.11904 0.0
H699 H 0.12351 0.62205 0.0947 0.0
H700 H 0.0853 0.60517 0.09239 0.0
H701 H 0.05121 0.5994 0.15185 0.0
H702 H 0.93689 0.57585 0.15008 0.0
H703 H 0.97491 0.5927 0.14973 0.0
C704 C 0.20139 0.59585 0.03517 0.0
C705 C 0.19669 0.59332 0.05635 0.0
C706 C 0.19852 0.57674 0.0216 0.0
C707 C 0.16859 0.51934 0.01607 0.0
H708 H 0.21248 0.50865 0.97242 0.0
C709 C 0.16889 0.43502 0.96445 0.0
C710 C 0.17388 0.43804 0.94337 0.0
C711 C 0.1707 0.45411 0.97824 0.0
C712 C 0.19992 0.51157 0.98437 0.0
H713 H 0.18549 0.56859 0.07991 0.0
H714 H 0.18075 0.53512 0.05623 0.0
H715 H 0.21821 0.54126 0.99672 0.0
H716 H 0.18398 0.46371 0.92014 0.0
H717 H 0.18696 0.49699 0.94417 0.0
H718 H 0.15037 0.48951 0.00372 0.0
C719 C 0.18636 0.55201 0.05008 0.0
C720 C 0.20321 0.53025 0.99831 0.0
C721 C 0.18924 0.57115 0.06368 0.0
C722 C 0.18011 0.46073 0.93629 0.0
C723 C 0.18197 0.47978 0.95009 0.0
C724 C 0.16531 0.5006 0.00213 0.0
C725 C 0.1909 0.55461 0.02887 0.0
C726 C 0.18756 0.53442 0.01429 0.0
C727 C 0.1776 0.47662 0.97126 0.0
C728 C 0.1809 0.49656 0.98607 0.0
H729 H 0.20709 0.6127 0.02898 0.0
H730 H 0.20189 0.57944 0.00532 0.0
H731 H 0.15604 0.52227 0.02802 0.0
H732 H 0.16404 0.41779 0.97042 0.0
H733 H 0.16736 0.45105 0.99448 0.0
C734 C 0.68544 0.93895 0.3209 0.0
C735 C 0.70167 0.92964 0.33453 0.0
C736 C 0.69233 0.95056 0.30289 0.0
C737 C 0.74456 0.96637 0.27199 0.0
H738 H 0.70971 0.9366 0.22802 0.0
C739 C 0.7822 0.91531 0.20492 0.0
C740 C 0.77151 0.91521 0.18548 0.0
C741 C 0.77364 0.92915 0.221 0.0
C742 C 0.71941 0.94567 0.23993 0.0
H743 H 0.73752 0.92631 0.34117 0.0
H744 H 0.74974 0.94547 0.3095 0.0
H745 H 0.69333 0.94011 0.26207 0.0
H746 H 0.74436 0.9306 0.16718 0.0
H747 H 0.72879 0.95427 0.19572 0.0
H748 H 0.77155 0.96948 0.24993 0.0
C749 C 0.73171 0.94481 0.3127 0.0
C750 C 0.70997 0.94779 0.25961 0.0
C751 C 0.72477 0.93369 0.3309 0.0
C752 C 0.75288 0.93032 0.18205 0.0
C753 C 0.74401 0.94386 0.19832 0.0
C754 C 0.75414 0.96387 0.25233 0.0
C755 C 0.71557 0.95222 0.29789 0.0
C756 C 0.7229 0.95691 0.27621 0.0
C757 C 0.75397 0.94288 0.21809 0.0
C758 C 0.74204 0.95236 0.23645 0.0
H759 H 0.66749 0.93586 0.32348 0.0
H760 H 0.67941 0.95663 0.29218 0.0
H761 H 0.75477 0.97419 0.28419 0.0
H762 H 0.79674 0.90401 0.20792 0.0
H763 H 0.7815 0.92777 0.23613 0.0
C764 C 0.28061 0.45871 0.57326 0.0
C765 C 0.26932 0.43726 0.56892 0.0
C766 C 0.28203 0.47647 0.55827 0.0
C767 C 0.26022 0.49558 0.50666 0.0
H768 H 0.32126 0.52064 0.50104 0.0
C769 C 0.29852 0.5312 0.43053 0.0
C770 C 0.31599 0.54816 0.43193 0.0
C771 C 0.28795 0.52285 0.44847 0.0
C772 C 0.30395 0.51434 0.50257 0.0
H773 H 0.2497 0.41808 0.54583 0.0
H774 H 0.25271 0.44877 0.51951 0.0
H775 H 0.31205 0.49612 0.53049 0.0
H776 H 0.33421 0.57176 0.4527 0.0
H777 H 0.31529 0.55783 0.48384 0.0
H778 H 0.25255 0.51319 0.47808 0.0
C779 C 0.26015 0.45208 0.53458 0.0
C780 C 0.29865 0.5002 0.51954 0.0
C781 C 0.25859 0.43438 0.54963 0.0
C782 C 0.32105 0.55837 0.45123 0.0
C783 C 0.3103 0.55029 0.46907 0.0
C784 C 0.26556 0.50976 0.48958 0.0
C785 C 0.27236 0.4731 0.53855 0.0
C786 C 0.27686 0.4903 0.52164 0.0
C787 C 0.29454 0.53155 0.46803 0.0
C788 C 0.28761 0.519 0.4872 0.0
H789 H 0.2888 0.4616 0.58808 0.0
H790 H 0.29117 0.49265 0.56198 0.0
H791 H 0.24319 0.48844 0.50796 0.0
H792 H 0.29431 0.52302 0.41583 0.0
H793 H 0.2759 0.50837 0.44711 0.0
C794 C 0.71829 0.10561 0.67524 0.0
C795 C 0.70301 0.12463 0.67744 0.0
C796 C 0.72548 0.09283 0.69264 0.0
C797 C 0.7338 0.10308 0.74788 0.0
H798 H 0.74592 0.0355 0.75081 0.0
C799 C 0.77448 0.06383 0.82046 0.0
C800 C 0.79251 0.04801 0.81699 0.0
C801 C 0.75962 0.06974 0.8044 0.0
C802 C 0.7427 0.05442 0.75018 0.0
H803 H 0.68177 0.14376 0.69926 0.0
H804 H 0.69412 0.12144 0.72933 0.0
H805 H 0.72727 0.05195 0.72012 0.0
H806 H 0.80835 0.02495 0.79428 0.0
H807 H 0.78293 0.0358 0.76617 0.0
H808 H 0.7499 0.10598 0.77734 0.0
C809 C 0.701 0.11676 0.71434 0.0
C810 C 0.73202 0.0638 0.73263 0.0
C811 C 0.69392 0.12953 0.69708 0.0
C812 C 0.79465 0.03726 0.79745 0.0
C813 C 0.77995 0.04337 0.78133 0.0
C814 C 0.74456 0.0938 0.76528 0.0
C815 C 0.71743 0.09885 0.71244 0.0
C816 C 0.72759 0.08826 0.73129 0.0
C817 C 0.76265 0.06019 0.78446 0.0
C818 C 0.74933 0.06939 0.76662 0.0
H819 H 0.72551 0.10137 0.6603 0.0
H820 H 0.73822 0.07912 0.69074 0.0
H821 H 0.73105 0.12209 0.74713 0.0
H822 H 0.77222 0.07217 0.83543 0.0
H823 H 0.74614 0.08234 0.80747 0.0
C824 C 0.8016 0.44977 0.91385 0.0
C825 C 0.81469 0.4294 0.91771 0.0
C826 C 0.79174 0.46219 0.93032 0.0
C827 C 0.80236 0.49302 0.96759 0.0
H828 H 0.78027 0.46913 0.01996 0.0
C829 C 0.8275 0.5035 0.05762 0.0
C830 C 0.83508 0.52708 0.0569 0.0
C831 C 0.81449 0.49415 0.04139 0.0
C832 C 0.78653 0.47614 0.00548 0.0
H833 H 0.8251 0.40415 0.94111 0.0
H834 H 0.80766 0.4255 0.96969 0.0
H835 H 0.77469 0.4457 0.98849 0.0
H836 H 0.83319 0.5602 0.04013 0.0
H837 H 0.80905 0.54459 0.01258 0.0
H838 H 0.81636 0.52205 0.98431 0.0
C839 C 0.80509 0.43212 0.95414 0.0
C840 C 0.78306 0.4628 0.98743 0.0
C841 C 0.81523 0.41994 0.93778 0.0
C842 C 0.82774 0.54182 0.04079 0.0
C843 C 0.8141 0.53274 0.02492 0.0
C844 C 0.80623 0.50608 0.98559 0.0
C845 C 0.79456 0.45416 0.95075 0.0
C846 C 0.79181 0.47068 0.96846 0.0
C847 C 0.80835 0.50843 0.02436 0.0
C848 C 0.7993 0.49733 0.00498 0.0
H849 H 0.80093 0.45744 0.89851 0.0
H850 H 0.78356 0.47907 0.92728 0.0
H851 H 0.8096 0.49946 0.95326 0.0
H852 H 0.83308 0.4918 0.06992 0.0
H853 H 0.81073 0.47534 0.04161 0.0
C854 C 0.23391 0.05284 0.82202 0.0
C855 C 0.22125 0.0317 0.82323 0.0
C856 C 0.24895 0.05656 0.80561 0.0
C857 C 0.27961 0.02516 0.76351 0.0
H858 H 0.27855 0.08672 0.73671 0.0
C859 C 0.31844 0.03989 0.683 0.0
C860 C 0.33204 0.06021 0.68052 0.0
C861 C 0.30521 0.03704 0.70073 0.0
C862 C 0.27919 0.06951 0.74415 0.0
H863 H 0.21497 0.99761 0.80852 0.0
H864 H 0.24085 0.00418 0.77994 0.0
H865 H 0.25617 0.08034 0.76793 0.0
H866 H 0.34185 0.09385 0.6944 0.0
H867 H 0.3187 0.08888 0.72531 0.0
H868 H 0.30235 0.01424 0.73955 0.0
C869 C 0.23944 0.01781 0.79172 0.0
C870 C 0.26645 0.06587 0.76208 0.0
C871 C 0.22447 0.0141 0.80808 0.0
C872 C 0.33158 0.07796 0.69585 0.0
C873 C 0.31826 0.07517 0.71353 0.0
C874 C 0.29225 0.02877 0.74555 0.0
C875 C 0.25164 0.0392 0.79011 0.0
C876 C 0.26635 0.04358 0.77187 0.0
C877 C 0.30521 0.05451 0.71631 0.0
C878 C 0.29203 0.05092 0.73558 0.0
H879 H 0.23184 0.06674 0.83348 0.0
H880 H 0.25834 0.0731 0.80497 0.0
H881 H 0.28024 0.0079 0.77086 0.0
H882 H 0.31835 0.02591 0.67146 0.0
H883 H 0.29504 0.0211 0.70229 0.0
C884 C 0.69685 0.50791 0.43907 0.0
C885 C 0.69793 0.53028 0.42975 0.0
C886 C 0.70414 0.50493 0.45943 0.0
C887 C 0.70242 0.54171 0.50543 0.0
H888 H 0.71118 0.48006 0.53078 0.0
C889 C 0.66309 0.51777 0.58442 0.0
C890 C 0.64692 0.49984 0.58073 0.0
C891 C 0.68008 0.52237 0.56978 0.0
C892 C 0.70922 0.49757 0.52408 0.0
H893 H 0.7092 0.56663 0.43332 0.0
H894 H 0.72252 0.56144 0.46895 0.0
H895 H 0.72532 0.48714 0.49587 0.0
H896 H 0.63664 0.47167 0.55979 0.0
H897 H 0.66642 0.47928 0.53465 0.0
H898 H 0.68512 0.55159 0.53322 0.0
C899 C 0.71589 0.54617 0.46067 0.0
C900 C 0.71718 0.50161 0.50405 0.0
C901 C 0.70852 0.54912 0.44023 0.0
C902 C 0.64875 0.48577 0.56288 0.0
C903 C 0.66597 0.48992 0.54863 0.0
C904 C 0.69475 0.53775 0.52556 0.0
C905 C 0.71243 0.52442 0.47093 0.0
C906 C 0.71233 0.52313 0.49394 0.0
C907 C 0.68151 0.50856 0.55169 0.0
C908 C 0.69671 0.51515 0.53445 0.0
H909 H 0.68837 0.49328 0.4313 0.0
H910 H 0.70094 0.48796 0.4667 0.0
H911 H 0.6983 0.55852 0.49825 0.0
H912 H 0.66201 0.5288 0.59813 0.0
H913 H 0.69176 0.53698 0.57234 0.0
C914 C 0.28563 0.91313 0.31432 0.0
C915 C 0.30393 0.9292 0.31372 0.0
C916 C 0.26789 0.91476 0.29992 0.0
C917 C 0.24053 0.95734 0.26438 0.0
H918 H 0.21479 0.90103 0.23874 0.0
C919 C 0.17723 0.96357 0.19655 0.0
C920 C 0.15841 0.94817 0.1968 0.0
C921 C 0.19511 0.96056 0.21057 0.0
C922 C 0.22163 0.91691 0.24593 0.0
H923 H 0.31809 0.95935 0.29731 0.0
H924 H 0.28734 0.96205 0.2722 0.0
H925 H 0.24562 0.897 0.26387 0.0
H926 H 0.1438 0.9173 0.21179 0.0
H927 H 0.1749 0.91223 0.2364 0.0
H928 H 0.21657 0.97727 0.24657 0.0
C929 C 0.2865 0.9484 0.28396 0.0
C930 C 0.23929 0.91459 0.26033 0.0
C931 C 0.30421 0.94675 0.2983 0.0
C932 C 0.15804 0.92948 0.21118 0.0
C933 C 0.17594 0.92648 0.22522 0.0
C934 C 0.22289 0.95965 0.25004 0.0
C935 C 0.26806 0.93253 0.28466 0.0
C936 C 0.24901 0.9348 0.26964 0.0
C937 C 0.1946 0.94211 0.22519 0.0
C938 C 0.21329 0.93949 0.24056 0.0
H939 H 0.2849 0.89941 0.32602 0.0
H940 H 0.25383 0.9024 0.30098 0.0
H941 H 0.24735 0.97324 0.27156 0.0
H942 H 0.17812 0.97807 0.1856 0.0
H943 H 0.2094 0.97267 0.20989 0.0
C944 C 0.69558 0.07869 0.56695 0.0
C945 C 0.68162 0.09834 0.56267 0.0
C946 C 0.69589 0.05911 0.55361 0.0
C947 C 0.66332 0.02949 0.51171 0.0
H948 H 0.72162 0.00129 0.4985 0.0
C949 C 0.67513 0.96129 0.4454 0.0
C950 C 0.68967 0.94199 0.44927 0.0
C951 C 0.67354 0.98002 0.45958 0.0
C952 C 0.70517 0.00878 0.5022 0.0
H953 H 0.65681 0.11266 0.54116 0.0
H954 H 0.65757 0.07865 0.51782 0.0
H955 H 0.71985 0.03433 0.52283 0.0
H956 H 0.71368 0.92708 0.47122 0.0
H957 H 0.71076 0.95959 0.49595 0.0
H958 H 0.64868 0.00398 0.49094 0.0
C959 C 0.66808 0.07824 0.5316 0.0
C960 C 0.70415 0.02771 0.51617 0.0
C961 C 0.66775 0.09781 0.54493 0.0
C962 C 0.70239 0.94172 0.4677 0.0
C963 C 0.70082 0.96043 0.48184 0.0
C964 C 0.66434 0.01055 0.49771 0.0
C965 C 0.68227 0.05873 0.5357 0.0
C966 C 0.68322 0.0383 0.5211 0.0
C967 C 0.68647 0.97986 0.47791 0.0
C968 C 0.68528 -2e-05 0.49279 0.0
H969 H 0.70639 0.07848 0.58053 0.0
H970 H 0.70678 0.04421 0.55738 0.0
H971 H 0.64689 0.03705 0.51537 0.0
H972 H 0.66512 0.96205 0.43133 0.0
H973 H 0.66249 0.99485 0.45601 0.0
C974 C 0.29479 0.42877 0.69848 0.0
C975 C 0.27833 0.42238 0.68378 0.0
C976 C 0.2888 0.4424 0.71568 0.0
C977 C 0.23825 0.4705 0.74221 0.0
H978 H 0.26582 0.44047 0.78994 0.0
C979 C 0.19147 0.42966 0.80885 0.0
C980 C 0.20165 0.42818 0.82844 0.0
C981 C 0.20169 0.44281 0.79319 0.0
C982 C 0.25826 0.44971 0.77694 0.0
H983 H 0.24321 0.42622 0.67452 0.0
H984 H 0.23217 0.44838 0.70518 0.0
H985 H 0.28403 0.43722 0.75681 0.0
H986 H 0.22919 0.44096 0.84778 0.0
H987 H 0.24767 0.46341 0.82003 0.0
H988 H 0.21105 0.4805 0.76248 0.0
C989 C 0.24994 0.44397 0.70331 0.0
C990 C 0.26877 0.44787 0.75773 0.0
C991 C 0.25615 0.43104 0.68574 0.0
C992 C 0.22105 0.44187 0.83275 0.0
C993 C 0.23159 0.45469 0.81692 0.0
C994 C 0.22748 0.47191 0.76144 0.0
C995 C 0.26599 0.44897 0.71899 0.0
C996 C 0.25826 0.45704 0.73984 0.0
C997 C 0.22255 0.4543 0.79675 0.0
C998 C 0.23683 0.4604 0.77872 0.0
H999 H 0.31213 0.42252 0.69701 0.0
H1000 H 0.30186 0.4466 0.72694 0.0
H1001 H 0.23003 0.47859 0.72899 0.0
H1002 H 0.17639 0.41936 0.80524 0.0
H1003 H 0.19441 0.44198 0.7778 0.0
C1004 C 0.80282 0.03264 0.93483 0.0
C1005 C 0.81781 0.05206 0.93477 0.0
C1006 C 0.79461 0.02372 0.95356 0.0
C1007 C 0.77842 0.00778 0.99616 0.0
H1008 H 0.83004 0.00389 0.03348 0.0
C1009 C 0.77922 0.95027 0.07098 0.0
C1010 C 0.79841 0.9355 0.07267 0.0
C1011 C 0.77845 0.96826 0.05609 0.0
C1012 C 0.81541 0.00492 0.0233 0.0
H1013 H 0.83351 0.07935 0.95368 0.0
H1014 H 0.81845 0.06446 0.98623 0.0
H1015 H 0.83186 0.02989 0.0037 0.0
H1016 H 0.83197 0.92829 0.06037 0.0
H1017 H 0.83069 0.95966 0.03459 0.0
H1018 H 0.76259 0.98161 0.01545 0.0
C1019 C 0.81373 0.05549 0.97201 0.0
C1020 C 0.8163 0.02009 0.00634 0.0
C1021 C 0.82222 0.06413 0.95338 0.0
C1022 C 0.81694 0.93935 0.05947 0.0
C1023 C 0.81626 0.95742 0.04478 0.0
C1024 C 0.77752 0.99258 0.01326 0.0
C1025 C 0.80106 0.03431 0.97245 0.0
C1026 C 0.79807 0.02127 0.99223 0.0
C1027 C 0.79699 0.97198 0.04285 0.0
C1028 C 0.79632 0.9905 0.02661 0.0
H1029 H 0.79922 0.02298 0.92068 0.0
H1030 H 0.7849 0.00737 0.9533 0.0
H1031 H 0.76404 0.00841 0.98568 0.0
H1032 H 0.76464 0.94769 0.08092 0.0
H1033 H 0.76343 0.9793 0.05496 0.0
C1034 C 0.22176 0.59803 0.17445 0.0
C1035 C 0.20154 0.61118 0.17455 0.0
C1036 C 0.22835 0.58528 0.19203 0.0
C1037 C 0.23757 0.55521 0.23004 0.0
H1038 H 0.22471 0.58908 0.28097 0.0
C1039 C 0.27708 0.52637 0.30792 0.0
C1040 C 0.286 0.54501 0.31998 0.0
C1041 C 0.26275 0.53119 0.29115 0.0
C1042 C 0.22851 0.57939 0.26691 0.0
H1043 H 0.17125 0.61959 0.19204 0.0
H1044 H 0.18202 0.59637 0.2222 0.0
H1045 H 0.20775 0.60246 0.24893 0.0
H1046 H 0.28616 0.58324 0.3244 0.0
H1047 H 0.26172 0.59165 0.29508 0.0
H1048 H 0.25971 0.53323 0.248 0.0
C1049 C 0.19342 0.5967 0.20909 0.0
C1050 C 0.21846 0.58684 0.24848 0.0
C1051 C 0.18714 0.60986 0.19176 0.0
C1052 C 0.27956 0.56845 0.31546 0.0
C1053 C 0.26538 0.57326 0.29867 0.0
C1054 C 0.24787 0.54793 0.24849 0.0
C1055 C 0.21458 0.58511 0.20984 0.0
C1056 C 0.2232 0.57516 0.2297 0.0
C1057 C 0.2571 0.55474 0.28607 0.0
C1058 C 0.24388 0.56032 0.26706 0.0
H1059 H 0.23317 0.59888 0.16135 0.0
H1060 H 0.24484 0.57676 0.19203 0.0
H1061 H 0.24133 0.54554 0.21597 0.0
H1062 H 0.28162 0.50809 0.31109 0.0
H1063 H 0.25638 0.51648 0.28197 0.0
C1064 C 0.32607 0.00414 0.57257 0.0
C1065 C 0.3383 0.02417 0.56594 0.0
C1066 C 0.31295 0.99105 0.55848 0.0
C1067 C 0.31078 0.95855 0.52052 0.0
H1068 H 0.27456 0.9838 0.4755 0.0
C1069 C 0.30779 0.94619 0.42877 0.0
C1070 C 0.31503 0.9225 0.42844 0.0
C1071 C 0.29914 0.95607 0.44697 0.0
C1072 C 0.28467 0.97638 0.48791 0.0
H1073 H 0.34475 0.04749 0.53997 0.0
H1074 H 0.32163 0.0249 0.51553 0.0
H1075 H 0.28152 0.00806 0.50624 0.0
H1076 H 0.31613 0.88959 0.44557 0.0
H1077 H 0.29914 0.90612 0.47677 0.0
H1078 H 0.3162 0.92806 0.50184 0.0
C1079 C 0.32225 0.01919 0.53151 0.0
C1080 C 0.28845 0.99025 0.5056 0.0
C1081 C 0.33568 0.03198 0.54546 0.0
C1082 C 0.31074 0.90799 0.44558 0.0
C1083 C 0.30134 0.91764 0.46355 0.0
C1084 C 0.30745 0.94492 0.50274 0.0
C1085 C 0.31147 0.9981 0.53768 0.0
C1086 C 0.30233 0.98179 0.52167 0.0
C1087 C 0.29714 0.94224 0.46504 0.0
C1088 C 0.29524 0.95405 0.48572 0.0
H1089 H 0.32776 0.99772 0.58828 0.0
H1090 H 0.30481 0.97482 0.56358 0.0
H1091 H 0.32172 0.95165 0.5326 0.0
H1092 H 0.31116 0.95776 0.41576 0.0
H1093 H 0.29622 0.97504 0.44725 0.0
C1094 C 0.83895 0.52365 0.19465 0.0
C1095 C 0.83388 0.53431 0.17555 0.0
C1096 C 0.82509 0.52757 0.2118 0.0
C1097 C 0.78362 0.5701 0.23282 0.0
H1098 H 0.76824 0.51837 0.26972 0.0
C1099 C 0.71447 0.57701 0.29581 0.0
C1100 C 0.71788 0.56468 0.31444 0.0
C1101 C 0.73004 0.57491 0.27965 0.0
C1102 C 0.77268 0.5331 0.25977 0.0
H1103 H 0.80997 0.55703 0.15937 0.0
H1104 H 0.78564 0.56367 0.18932 0.0
H1105 H 0.79175 0.51062 0.23952 0.0
H1106 H 0.74105 0.54167 0.33118 0.0
H1107 H 0.76839 0.53832 0.30308 0.0
H1108 H 0.76444 0.59257 0.25305 0.0
C1109 C 0.80053 0.55255 0.19106 0.0
C1110 C 0.78609 0.52863 0.24242 0.0
C1111 C 0.81437 0.54857 0.17387 0.0
C1112 C 0.73782 0.55125 0.31697 0.0
C1113 C 0.75341 0.54918 0.30081 0.0
C1114 C 0.77023 0.57459 0.25021 0.0
C1115 C 0.80587 0.54226 0.21026 0.0
C1116 C 0.79163 0.54705 0.22871 0.0
C1117 C 0.74939 0.56049 0.28178 0.0
C1118 C 0.76455 0.55612 0.26385 0.0
H1119 H 0.85388 0.5126 0.19648 0.0
H1120 H 0.82977 0.51956 0.22642 0.0
H1121 H 0.78792 0.58475 0.22272 0.0
H1122 H 0.6993 0.58754 0.29336 0.0
H1123 H 0.72636 0.58374 0.26516 0.0
C1124 C 0.14165 0.02099 0.07708 0.0
C1125 C 0.14626 0.00287 0.0913 0.0
C1126 C 0.15781 0.02732 0.06235 0.0
C1127 C 0.19528 0.00025 0.02843 0.0
H1128 H 0.21151 0.06465 0.0133 0.0
C1129 C 0.2046 0.02247 0.94354 0.0
C1130 C 0.18977 0.04115 0.93867 0.0
C1131 C 0.21214 0.01946 0.96399 0.0
C1132 C 0.20736 0.04649 0.01731 0.0
H1133 H 0.17137 0.97745 0.10179 0.0
H1134 H 0.1994 0.98775 0.07505 0.0
H1135 H 0.19886 0.05616 0.04845 0.0
H1136 H 0.17329 0.07277 0.95035 0.0
H1137 H 0.18608 0.0677 0.98555 0.0
H1138 H 0.20092 0.99091 0.99688 0.0
C1139 C 0.18356 0.99752 0.07585 0.0
C1140 C 0.2003 0.04166 0.03749 0.0
C1141 C 0.1676 0.99167 0.09106 0.0
C1142 C 0.18464 0.05814 0.95382 0.0
C1143 C 0.19221 0.05527 0.97406 0.0
C1144 C 0.20185 0.00516 0.00813 0.0
C1145 C 0.1786 0.01517 0.06121 0.0
C1146 C 0.19305 0.01876 0.04285 0.0
C1147 C 0.20499 0.03517 0.9797 0.0
C1148 C 0.20651 0.02865 0.002 0.0
H1149 H 0.12527 0.02978 0.07697 0.0
H1150 H 0.15347 0.04073 0.051 0.0
H1151 H 0.18966 0.98245 0.03223 0.0
H1152 H 0.20874 0.00913 0.93205 0.0
H1153 H 0.22227 0.00399 0.96773 0.0
C1154 C 0.67505 0.47312 0.68886 0.0
C1155 C 0.65559 0.45864 0.68932 0.0
C1156 C 0.69297 0.46926 0.70269 0.0
C1157 C 0.71805 0.42409 0.73745 0.0
H1158 H 0.74714 0.47881 0.76274 0.0
C1159 C 0.78364 0.41664 0.80443 0.0
C1160 C 0.8026 0.43182 0.80347 0.0
C1161 C 0.76563 0.41917 0.79039 0.0
C1162 C 0.73936 0.46334 0.75565 0.0
H1163 H 0.63979 0.42858 0.70457 0.0
H1164 H 0.67095 0.42202 0.72882 0.0
H1165 H 0.71598 0.48465 0.73842 0.0
H1166 H 0.81769 0.46124 0.78674 0.0
H1167 H 0.78651 0.46547 0.76228 0.0
H1168 H 0.74147 0.4028 0.7548 0.0
C1169 C 0.67247 0.4362 0.71762 0.0
C1170 C 0.72151 0.46669 0.74169 0.0
C1171 C 0.65455 0.44006 0.70378 0.0
C1172 C 0.8033 0.44932 0.78801 0.0
C1173 C 0.78535 0.45186 0.77405 0.0
C1174 C 0.73592 0.42073 0.75146 0.0
C1175 C 0.69184 0.45083 0.71731 0.0
C1176 C 0.7107 0.44713 0.73233 0.0
C1177 C 0.76621 0.43697 0.77516 0.0
C1178 C 0.74687 0.44034 0.76063 0.0
H1179 H 0.67647 0.48751 0.67785 0.0
H1180 H 0.7078 0.48063 0.70182 0.0
H1181 H 0.71026 0.40865 0.73034 0.0
H1182 H 0.78257 0.40299 0.81617 0.0
H1183 H 0.75105 0.40753 0.79175 0.0
loop_
_geom_bond_atom_site_label_1
_geom_bond_atom_site_label_2
_geom_bond_distance
_geom_bond_site_symmetry_2
_ccdc_geom_bond_type
Mg0 O1 2.028 . S
Mg0 O7 1.986 . S
Mg0 O9 2.114 . S
Mg0 O10 2.251 . S
Mg0 O13 2.010 . S
O1 Mg0 2.028 . S
O1 C4 1.250 . S
O2 Mg3 2.028 . S
O2 C4 1.248 . S
Mg3 O2 2.028 . S
Mg3 O8 2.032 . S
Mg3 O10 2.079 . S
C4 O1 1.250 . S
C4 O2 1.248 . S
C5 O6 1.264 . S
C5 O13 1.249 . S
O6 C5 1.264 . S
O7 Mg0 1.986 . S
O7 C11 1.246 . S
O8 Mg3 2.032 . S
O8 C11 1.259 . S
O9 Mg0 2.114 . S
O9 C12 1.252 . S
O10 Mg0 2.251 . S
O10 Mg3 2.079 . S
O10 C12 1.273 . S
C11 O7 1.246 . S
C11 O8 1.259 . S
C12 O9 1.252 . S
C12 O10 1.273 . S
O13 Mg0 2.010 . S
O13 C5 1.249 . S
Mg14 O15 2.028 . S
Mg14 O21 1.986 . S
Mg14 O23 2.114 . S
Mg14 O24 2.251 . S
Mg14 O27 2.010 . S
O15 Mg14 2.028 . S
O15 C18 1.250 . S
O16 Mg17 2.028 . S
O16 C18 1.248 . S
Mg17 O16 2.028 . S
Mg17 O22 2.032 . S
Mg17 O24 2.079 . S
C18 O15 1.250 . S
C18 O16 1.248 . S
C19 O20 1.264 . S
C19 O27 1.249 . S
O20 C19 1.264 . S
O21 Mg14 1.986 . S
O21 C25 1.246 . S
O22 Mg17 2.032 . S
O22 C25 1.259 . S
O23 Mg14 2.114 . S
O23 C26 1.252 . S
O24 Mg14 2.251 . S
O24 Mg17 2.079 . S
O24 C26 1.273 . S
C25 O21 1.246 . S
C25 O22 1.259 . S
C26 O23 1.252 . S
C26 O24 1.273 . S
O27 Mg14 2.010 . S
O27 C19 1.249 . S
Mg28 O29 2.028 . S
Mg28 O35 1.986 . S
Mg28 O37 2.114 . S
Mg28 O38 2.251 . S
Mg28 O41 2.010 . S
O29 Mg28 2.028 . S
O29 C32 1.250 . S
O30 Mg31 2.028 . S
O30 C32 1.248 . S
Mg31 O30 2.028 . S
Mg31 O36 2.032 . S
Mg31 O38 2.079 . S
C32 O29 1.250 . S
C32 O30 1.248 . S
C33 O34 1.264 . S
C33 O41 1.249 . S
O34 C33 1.264 . S
O35 Mg28 1.986 . S
O35 C39 1.246 . S
O36 Mg31 2.032 . S
O36 C39 1.259 . S
O37 Mg28 2.114 . S
O37 C40 1.252 . S
O38 Mg28 2.251 . S
O38 Mg31 2.079 . S
O38 C40 1.273 . S
C39 O35 1.246 . S
C39 O36 1.259 . S
C40 O37 1.252 . S
C40 O38 1.273 . S
O41 Mg28 2.010 . S
O41 C33 1.249 . S
Mg42 O43 2.028 . S
Mg42 O49 1.986 . S
Mg42 O51 2.114 . S
Mg42 O52 2.251 . S
Mg42 O55 2.010 . S
O43 Mg42 2.028 . S
O43 C46 1.250 . S
O44 Mg45 2.028 . S
O44 C46 1.248 . S
Mg45 O44 2.028 . S
Mg45 O50 2.032 . S
Mg45 O52 2.079 . S
C46 O43 1.250 . S
C46 O44 1.248 . S
C47 O48 1.264 . S
C47 O55 1.249 . S
O48 C47 1.264 . S
O49 Mg42 1.986 . S
O49 C53 1.246 . S
O50 Mg45 2.032 . S
O50 C53 1.259 . S
O51 Mg42 2.114 . S
O51 C54 1.252 . S
O52 Mg42 2.251 . S
O52 Mg45 2.079 . S
O52 C54 1.273 . S
C53 O49 1.246 . S
C53 O50 1.259 . S
C54 O51 1.252 . S
C54 O52 1.273 . S
O55 Mg42 2.010 . S
O55 C47 1.249 . S
Mg56 O57 2.028 . S
Mg56 O63 1.986 . S
Mg56 O65 2.114 . S
Mg56 O66 2.251 . S
Mg56 O69 2.010 . S
O57 Mg56 2.028 . S
O57 C60 1.250 . S
O58 Mg59 2.028 . S
O58 C60 1.248 . S
Mg59 O58 2.028 . S
Mg59 O64 2.032 . S
Mg59 O66 2.079 . S
C60 O57 1.250 . S
C60 O58 1.248 . S
C61 O62 1.264 . S
C61 O69 1.249 . S
O62 C61 1.264 . S
O63 Mg56 1.986 . S
O63 C67 1.246 . S
O64 Mg59 2.032 . S
O64 C67 1.259 . S
O65 Mg56 2.114 . S
O65 C68 1.252 . S
O66 Mg56 2.251 . S
O66 Mg59 2.079 . S
O66 C68 1.273 . S
C67 O63 1.246 . S
C67 O64 1.259 . S
C68 O65 1.252 . S
C68 O66 1.273 . S
O69 Mg56 2.010 . S
O69 C61 1.249 . S
Mg70 O71 2.028 . S
Mg70 O77 1.986 . S
Mg70 O79 2.114 . S
Mg70 O80 2.251 . S
Mg70 O83 2.010 . S
O71 Mg70 2.028 . S
O71 C74 1.250 . S
O72 Mg73 2.028 . S
O72 C74 1.248 . S
Mg73 O72 2.028 . S
Mg73 O78 2.032 . S
Mg73 O80 2.079 . S
C74 O71 1.250 . S
C74 O72 1.248 . S
C75 O76 1.264 . S
C75 O83 1.249 . S
O76 C75 1.264 . S
O77 Mg70 1.986 . S
O77 C81 1.246 . S
O78 Mg73 2.032 . S
O78 C81 1.259 . S
O79 Mg70 2.114 . S
O79 C82 1.252 . S
O80 Mg70 2.251 . S
O80 Mg73 2.079 . S
O80 C82 1.273 . S
C81 O77 1.246 . S
C81 O78 1.259 . S
C82 O79 1.252 . S
C82 O80 1.273 . S
O83 Mg70 2.010 . S
O83 C75 1.249 . S
Mg84 O85 2.028 . S
Mg84 O91 1.986 . S
Mg84 O93 2.114 . S
Mg84 O94 2.251 . S
Mg84 O97 2.010 . S
O85 Mg84 2.028 . S
O85 C88 1.250 . S
O86 Mg87 2.028 . S
O86 C88 1.248 . S
Mg87 O86 2.028 . S
Mg87 O92 2.032 . S
Mg87 O94 2.079 . S
C88 O85 1.250 . S
C88 O86 1.248 . S
C89 O90 1.264 . S
C89 O97 1.249 . S
O90 C89 1.264 . S
O91 Mg84 1.986 . S
O91 C95 1.246 . S
O92 Mg87 2.032 . S
O92 C95 1.259 . S
O93 Mg84 2.114 . S
O93 C96 1.252 . S
O94 Mg84 2.251 . S
O94 Mg87 2.079 . S
O94 C96 1.273 . S
C95 O91 1.246 . S
C95 O92 1.259 . S
C96 O93 1.252 . S
C96 O94 1.273 . S
O97 Mg84 2.010 . S
O97 C89 1.249 . S
Mg98 O99 2.028 . S
Mg98 O105 1.986 . S
Mg98 O107 2.114 . S
Mg98 O108 2.251 . S
Mg98 O111 2.010 . S
O99 Mg98 2.028 . S
O99 C102 1.250 . S
O100 Mg101 2.028 . S
O100 C102 1.248 . S
Mg101 O100 2.028 . S
Mg101 O106 2.032 . S
Mg101 O108 2.079 . S
C102 O99 1.250 . S
C102 O100 1.248 . S
C103 O104 1.264 . S
C103 O111 1.249 . S
O104 C103 1.264 . S
O105 Mg98 1.986 . S
O105 C109 1.246 . S
O106 Mg101 2.032 . S
O106 C109 1.259 . S
O107 Mg98 2.114 . S
O107 C110 1.252 . S
O108 Mg98 2.251 . S
O108 Mg101 2.079 . S
O108 C110 1.273 . S
C109 O105 1.246 . S
C109 O106 1.259 . S
C110 O107 1.252 . S
C110 O108 1.273 . S
O111 Mg98 2.010 . S
O111 C103 1.249 . S
Mg112 O113 2.028 . S
Mg112 O119 1.986 . S
Mg112 O121 2.114 . S
Mg112 O122 2.251 . S
Mg112 O125 2.010 . S
O113 Mg112 2.028 . S
O113 C116 1.250 . S
O114 Mg115 2.028 . S
O114 C116 1.248 . S
Mg115 O114 2.028 . S
Mg115 O120 2.032 . S
Mg115 O122 2.079 . S
C116 O113 1.250 . S
C116 O114 1.248 . S
C117 O118 1.264 . S
C117 O125 1.249 . S
O118 C117 1.264 . S
O119 Mg112 1.986 . S
O119 C123 1.246 . S
O120 Mg115 2.032 . S
O120 C123 1.259 . S
O121 Mg112 2.114 . S
O121 C124 1.252 . S
O122 Mg112 2.251 . S
O122 Mg115 2.079 . S
O122 C124 1.273 . S
C123 O119 1.246 . S
C123 O120 1.259 . S
C124 O121 1.252 . S
C124 O122 1.273 . S
O125 Mg112 2.010 . S
O125 C117 1.249 . S
Mg126 O127 2.028 . S
Mg126 O133 1.986 . S
Mg126 O135 2.114 . S
Mg126 O136 2.251 . S
Mg126 O139 2.010 . S
O127 Mg126 2.028 . S
O127 C130 1.250 . S
O128 Mg129 2.028 . S
O128 C130 1.248 . S
Mg129 O128 2.028 . S
Mg129 O134 2.032 . S
Mg129 O136 2.079 . S
C130 O127 1.250 . S
C130 O128 1.248 . S
C131 O132 1.264 . S
C131 O139 1.249 . S
O132 C131 1.264 . S
O133 Mg126 1.986 . S
O133 C137 1.246 . S
O134 Mg129 2.032 . S
O134 C137 1.259 . S
O135 Mg126 2.114 . S
O135 C138 1.252 . S
O136 Mg126 2.251 . S
O136 Mg129 2.079 . S
O136 C138 1.273 . S
C137 O133 1.246 . S
C137 O134 1.259 . S
C138 O135 1.252 . S
C138 O136 1.273 . S
O139 Mg126 2.010 . S
O139 C131 1.249 . S
Mg140 O141 2.028 . S
Mg140 O147 1.986 . S
Mg140 O149 2.114 . S
Mg140 O150 2.251 . S
Mg140 O153 2.010 . S
O141 Mg140 2.028 . S
O141 C144 1.250 . S
O142 Mg143 2.028 . S
O142 C144 1.248 . S
Mg143 O142 2.028 . S
Mg143 O148 2.032 . S
Mg143 O150 2.079 . S
C144 O141 1.250 . S
C144 O142 1.248 . S
C145 O146 1.264 . S
C145 O153 1.249 . S
O146 C145 1.264 . S
O147 Mg140 1.986 . S
O147 C151 1.246 . S
O148 Mg143 2.032 . S
O148 C151 1.259 . S
O149 Mg140 2.114 . S
O149 C152 1.252 . S
O150 Mg140 2.251 . S
O150 Mg143 2.079 . S
O150 C152 1.273 . S
C151 O147 1.246 . S
C151 O148 1.259 . S
C152 O149 1.252 . S
C152 O150 1.273 . S
O153 Mg140 2.010 . S
O153 C145 1.249 . S
Mg154 O155 2.028 . S
Mg154 O161 1.986 . S
Mg154 O163 2.114 . S
Mg154 O164 2.251 . S
Mg154 O167 2.010 . S
O155 Mg154 2.028 . S
O155 C158 1.250 . S
O156 Mg157 2.028 . S
O156 C158 1.248 . S
Mg157 O156 2.028 . S
Mg157 O162 2.032 . S
Mg157 O164 2.079 . S
C158 O155 1.250 . S
C158 O156 1.248 . S
C159 O160 1.264 . S
C159 O167 1.249 . S
O160 C159 1.264 . S
O161 Mg154 1.986 . S
O161 C165 1.246 . S
O162 Mg157 2.032 . S
O162 C165 1.259 . S
O163 Mg154 2.114 . S
O163 C166 1.252 . S
O164 Mg154 2.251 . S
O164 Mg157 2.079 . S
O164 C166 1.273 . S
C165 O161 1.246 . S
C165 O162 1.259 . S
C166 O163 1.252 . S
C166 O164 1.273 . S
O167 Mg154 2.010 . S
O167 C159 1.249 . S
Mg168 O169 2.028 . S
Mg168 O175 1.986 . S
Mg168 O177 2.114 . S
Mg168 O178 2.251 . S
Mg168 O181 2.010 . S
O169 Mg168 2.028 . S
O169 C172 1.250 . S
O170 Mg171 2.028 . S
O170 C172 1.248 . S
Mg171 O170 2.028 . S
Mg171 O176 2.032 . S
Mg171 O178 2.079 . S
C172 O169 1.250 . S
C172 O170 1.248 . S
C173 O174 1.264 . S
C173 O181 1.249 . S
O174 C173 1.264 . S
O175 Mg168 1.986 . S
O175 C179 1.246 . S
O176 Mg171 2.032 . S
O176 C179 1.259 . S
O177 Mg168 2.114 . S
O177 C180 1.252 . S
O178 Mg168 2.251 . S
O178 Mg171 2.079 . S
O178 C180 1.273 . S
C179 O175 1.246 . S
C179 O176 1.259 . S
C180 O177 1.252 . S
C180 O178 1.273 . S
O181 Mg168 2.010 . S
O181 C173 1.249 . S
Mg182 O183 2.028 . S
Mg182 O189 1.986 . S
Mg182 O191 2.114 . S
Mg182 O192 2.251 . S
Mg182 O195 2.010 . S
O183 Mg182 2.028 . S
O183 C186 1.250 . S
O184 Mg185 2.028 . S
O184 C186 1.248 . S
Mg185 O184 2.028 . S
Mg185 O190 2.032 . S
Mg185 O192 2.079 . S
C186 O183 1.250 . S
C186 O184 1.248 . S
C187 O188 1.264 . S
C187 O195 1.249 . S
O188 C187 1.264 . S
O189 Mg182 1.986 . S
O189 C193 1.246 . S
O190 Mg185 2.032 . S
O190 C193 1.259 . S
O191 Mg182 2.114 . S
O191 C194 1.252 . S
O192 Mg182 2.251 . S
O192 Mg185 2.079 . S
O192 C194 1.273 . S
C193 O189 1.246 . S
C193 O190 1.259 . S
C194 O191 1.252 . S
C194 O192 1.273 . S
O195 Mg182 2.010 . S
O195 C187 1.249 . S
Mg196 O197 2.028 . S
Mg196 O203 1.986 . S
Mg196 O205 2.114 . S
Mg196 O206 2.251 . S
Mg196 O209 2.010 . S
O197 Mg196 2.028 . S
O197 C200 1.250 . S
O198 Mg199 2.028 . S
O198 C200 1.248 . S
Mg199 O198 2.028 . S
Mg199 O204 2.032 . S
Mg199 O206 2.079 . S
C200 O197 1.250 . S
C200 O198 1.248 . S
C201 O202 1.264 . S
C201 O209 1.249 . S
O202 C201 1.264 . S
O203 Mg196 1.986 . S
O203 C207 1.246 . S
O204 Mg199 2.032 . S
O204 C207 1.259 . S
O205 Mg196 2.114 . S
O205 C208 1.252 . S
O206 Mg196 2.251 . S
O206 Mg199 2.079 . S
O206 C208 1.273 . S
C207 O203 1.246 . S
C207 O204 1.259 . S
C208 O205 1.252 . S
C208 O206 1.273 . S
O209 Mg196 2.010 . S
O209 C201 1.249 . S
Mg210 O211 2.028 . S
Mg210 O217 1.986 . S
Mg210 O219 2.114 . S
Mg210 O220 2.251 . S
Mg210 O223 2.010 . S
O211 Mg210 2.028 . S
O211 C214 1.250 . S
O212 Mg213 2.028 . S
O212 C214 1.248 . S
Mg213 O212 2.028 . S
Mg213 O218 2.032 . S
Mg213 O220 2.079 . S
C214 O211 1.250 . S
C214 O212 1.248 . S
C215 O216 1.264 . S
C215 O223 1.249 . S
O216 C215 1.264 . S
O217 Mg210 1.986 . S
O217 C221 1.246 . S
O218 Mg213 2.032 . S
O218 C221 1.259 . S
O219 Mg210 2.114 . S
O219 C222 1.252 . S
O220 Mg210 2.251 . S
O220 Mg213 2.079 . S
O220 C222 1.273 . S
C221 O217 1.246 . S
C221 O218 1.259 . S
C222 O219 1.252 . S
C222 O220 1.273 . S
O223 Mg210 2.010 . S
O223 C215 1.249 . S
C224 C225 1.349 . S
C224 C226 1.327 . S
C224 H249 0.950 . S
C225 C224 1.349 . S
C225 C241 1.349 . S
C226 C224 1.327 . S
C226 C245 1.429 . S
C226 H250 0.950 . S
C227 C244 1.574 . S
C227 C246 1.368 . S
C227 H251 0.949 . S
H228 C232 0.949 . S
C229 C230 1.349 . S
C229 C231 1.327 . S
C229 H252 0.950 . S
C230 C229 1.349 . S
C230 C242 1.349 . S
C231 C229 1.327 . S
C231 C247 1.429 . S
C231 H253 0.950 . S
C232 H228 0.949 . S
C232 C240 1.574 . S
C232 C248 1.368 . S
H233 C241 0.950 . S
H234 C239 0.950 . S
H235 C240 0.949 . S
H236 C242 0.950 . S
H237 C243 0.950 . S
H238 C244 0.949 . S
C239 H234 0.950 . S
C239 C241 1.327 . S
C239 C245 1.429 . S
C240 C232 1.574 . S
C240 H235 0.949 . S
C240 C246 1.368 . S
C241 C225 1.349 . S
C241 H233 0.950 . S
C241 C239 1.327 . S
C242 C230 1.349 . S
C242 H236 0.950 . S
C242 C243 1.327 . S
C243 H237 0.950 . S
C243 C242 1.327 . S
C243 C247 1.429 . S
C244 C227 1.574 . S
C244 H238 0.949 . S
C244 C248 1.368 . S
C245 C226 1.429 . S
C245 C239 1.429 . S
C245 C246 1.523 . S
C246 C227 1.368 . S
C246 C240 1.368 . S
C246 C245 1.523 . S
C247 C231 1.429 . S
C247 C243 1.429 . S
C247 C248 1.523 . S
C248 C232 1.368 . S
C248 C244 1.368 . S
C248 C247 1.523 . S
H249 C224 0.950 . S
H250 C226 0.950 . S
H251 C227 0.949 . S
H252 C229 0.950 . S
H253 C231 0.950 . S
C254 C255 1.349 . S
C254 C256 1.327 . S
C254 H279 0.950 . S
C255 C254 1.349 . S
C255 C271 1.349 . S
C256 C254 1.327 . S
C256 C275 1.429 . S
C256 H280 0.950 . S
C257 C274 1.574 . S
C257 C276 1.368 . S
C257 H281 0.949 . S
H258 C262 0.949 . S
C259 C260 1.349 . S
C259 C261 1.327 . S
C259 H282 0.950 . S
C260 C259 1.349 . S
C260 C272 1.349 . S
C261 C259 1.327 . S
C261 C277 1.429 . S
C261 H283 0.950 . S
C262 H258 0.949 . S
C262 C270 1.574 . S
C262 C278 1.368 . S
H263 C271 0.950 . S
H264 C269 0.950 . S
H265 C270 0.949 . S
H266 C272 0.950 . S
H267 C273 0.950 . S
H268 C274 0.949 . S
C269 H264 0.950 . S
C269 C271 1.327 . S
C269 C275 1.429 . S
C270 C262 1.574 . S
C270 H265 0.949 . S
C270 C276 1.368 . S
C271 C255 1.349 . S
C271 H263 0.950 . S
C271 C269 1.327 . S
C272 C260 1.349 . S
C272 H266 0.950 . S
C272 C273 1.327 . S
C273 H267 0.950 . S
C273 C272 1.327 . S
C273 C277 1.429 . S
C274 C257 1.574 . S
C274 H268 0.949 . S
C274 C278 1.368 . S
C275 C256 1.429 . S
C275 C269 1.429 . S
C275 C276 1.523 . S
C276 C257 1.368 . S
C276 C270 1.368 . S
C276 C275 1.523 . S
C277 C261 1.429 . S
C277 C273 1.429 . S
C277 C278 1.523 . S
C278 C262 1.368 . S
C278 C274 1.368 . S
C278 C277 1.523 . S
H279 C254 0.950 . S
H280 C256 0.950 . S
H281 C257 0.949 . S
H282 C259 0.950 . S
H283 C261 0.950 . S
C284 C285 1.349 . S
C284 C286 1.327 . S
C284 H309 0.950 . S
C285 C284 1.349 . S
C285 C301 1.349 . S
C286 C284 1.327 . S
C286 C305 1.429 . S
C286 H310 0.950 . S
C287 C304 1.574 . S
C287 C306 1.368 . S
C287 H311 0.949 . S
H288 C292 0.949 . S
C289 C290 1.349 . S
C289 C291 1.327 . S
C289 H312 0.950 . S
C290 C289 1.349 . S
C290 C302 1.349 . S
C291 C289 1.327 . S
C291 C307 1.429 . S
C291 H313 0.950 . S
C292 H288 0.949 . S
C292 C300 1.574 . S
C292 C308 1.368 . S
H293 C301 0.950 . S
H294 C299 0.950 . S
H295 C300 0.949 . S
H296 C302 0.950 . S
H297 C303 0.950 . S
H298 C304 0.949 . S
C299 H294 0.950 . S
C299 C301 1.327 . S
C299 C305 1.429 . S
C300 C292 1.574 . S
C300 H295 0.949 . S
C300 C306 1.368 . S
C301 C285 1.349 . S
C301 H293 0.950 . S
C301 C299 1.327 . S
C302 C290 1.349 . S
C302 H296 0.950 . S
C302 C303 1.327 . S
C303 H297 0.950 . S
C303 C302 1.327 . S
C303 C307 1.429 . S
C304 C287 1.574 . S
C304 H298 0.949 . S
C304 C308 1.368 . S
C305 C286 1.429 . S
C305 C299 1.429 . S
C305 C306 1.523 . S
C306 C287 1.368 . S
C306 C300 1.368 . S
C306 C305 1.523 . S
C307 C291 1.429 . S
C307 C303 1.429 . S
C307 C308 1.523 . S
C308 C292 1.368 . S
C308 C304 1.368 . S
C308 C307 1.523 . S
H309 C284 0.950 . S
H310 C286 0.950 . S
H311 C287 0.949 . S
H312 C289 0.950 . S
H313 C291 0.950 . S
C314 C315 1.349 . S
C314 C316 1.327 . S
C314 H339 0.950 . S
C315 C314 1.349 . S
C315 C331 1.349 . S
C316 C314 1.327 . S
C316 C335 1.429 . S
C316 H340 0.950 . S
C317 C334 1.574 1_455 S
C317 C336 1.368 . S
C317 H341 0.949 . S
H318 C322 0.949 . S
C319 C320 1.349 . S
C319 C321 1.327 . S
C319 H342 0.950 . S
C320 C319 1.349 . S
C320 C332 1.349 . S
C321 C319 1.327 . S
C321 C337 1.429 . S
C321 H343 0.950 . S
C322 H318 0.949 . S
C322 C330 1.574 1_655 S
C322 C338 1.368 . S
H323 C331 0.950 . S
H324 C329 0.950 . S
H325 C330 0.949 . S
H326 C332 0.950 . S
H327 C333 0.950 . S
H328 C334 0.949 . S
C329 H324 0.950 . S
C329 C331 1.327 . S
C329 C335 1.429 . S
C330 C322 1.574 1_455 S
C330 H325 0.949 . S
C330 C336 1.368 . S
C331 C315 1.349 . S
C331 H323 0.950 . S
C331 C329 1.327 . S
C332 C320 1.349 . S
C332 H326 0.950 . S
C332 C333 1.327 . S
C333 H327 0.950 . S
C333 C332 1.327 . S
C333 C337 1.429 . S
C334 C317 1.574 1_655 S
C334 H328 0.949 . S
C334 C338 1.368 . S
C335 C316 1.429 . S
C335 C329 1.429 . S
C335 C336 1.523 . S
C336 C317 1.368 . S
C336 C330 1.368 . S
C336 C335 1.523 . S
C337 C321 1.429 . S
C337 C333 1.429 . S
C337 C338 1.523 . S
C338 C322 1.368 . S
C338 C334 1.368 . S
C338 C337 1.523 . S
H339 C314 0.950 . S
H340 C316 0.950 . S
H341 C317 0.949 . S
H342 C319 0.950 . S
H343 C321 0.950 . S
C344 C345 1.349 . S
C344 C346 1.327 . S
C344 H369 0.950 . S
C345 C344 1.349 . S
C345 C361 1.349 . S
C346 C344 1.327 . S
C346 C365 1.429 . S
C346 H370 0.950 . S
C347 C364 1.574 . S
C347 C366 1.368 . S
C347 H371 0.949 . S
H348 C352 0.949 . S
C349 C350 1.349 . S
C349 C351 1.327 . S
C349 H372 0.950 . S
C350 C349 1.349 . S
C350 C362 1.349 . S
C351 C349 1.327 . S
C351 C367 1.429 . S
C351 H373 0.950 . S
C352 H348 0.949 . S
C352 C360 1.574 . S
C352 C368 1.368 . S
H353 C361 0.950 . S
H354 C359 0.950 . S
H355 C360 0.949 . S
H356 C362 0.950 . S
H357 C363 0.950 . S
H358 C364 0.949 . S
C359 H354 0.950 . S
C359 C361 1.327 . S
C359 C365 1.429 . S
C360 C352 1.574 . S
C360 H355 0.949 . S
C360 C366 1.368 . S
C361 C345 1.349 . S
C361 H353 0.950 . S
C361 C359 1.327 . S
C362 C350 1.349 . S
C362 H356 0.950 . S
C362 C363 1.327 . S
C363 H357 0.950 . S
C363 C362 1.327 . S
C363 C367 1.429 . S
C364 C347 1.574 . S
C364 H358 0.949 . S
C364 C368 1.368 . S
C365 C346 1.429 . S
C365 C359 1.429 . S
C365 C366 1.523 . S
C366 C347 1.368 . S
C366 C360 1.368 . S
C366 C365 1.523 . S
C367 C351 1.429 . S
C367 C363 1.429 . S
C367 C368 1.523 . S
C368 C352 1.368 . S
C368 C364 1.368 . S
C368 C367 1.523 . S
H369 C344 0.950 . S
H370 C346 0.950 . S
H371 C347 0.949 . S
H372 C349 0.950 . S
H373 C351 0.950 . S
C374 C375 1.349 . S
C374 C376 1.327 . S
C374 H399 0.950 . S
C375 C374 1.349 . S
C375 C391 1.349 . S
C376 C374 1.327 . S
C376 C395 1.429 . S
C376 H400 0.950 . S
C377 C394 1.574 . S
C377 C396 1.368 . S
C377 H401 0.949 . S
H378 C382 0.925 1_455 S
C379 C380 1.349 . S
C379 C381 1.327 . S
C379 H402 0.950 . S
C380 C379 1.349 . S
C380 C392 1.349 . S
C381 C379 1.327 . S
C381 C397 1.429 . S
C381 H403 0.950 . S
C382 H378 0.925 1_655 S
C382 C390 1.615 . S
C382 C398 1.355 1_655 S
H383 C391 0.950 . S
H384 C389 0.950 . S
H385 C390 0.949 . S
H386 C392 0.950 . S
H387 C393 0.950 . S
H388 C394 0.949 1_455 S
C389 H384 0.950 . S
C389 C391 1.327 . S
C389 C395 1.429 . S
C390 C382 1.615 . S
C390 H385 0.949 . S
C390 C396 1.368 . S
C391 C375 1.349 . S
C391 H383 0.950 . S
C391 C389 1.327 . S
C392 C380 1.349 . S
C392 H386 0.950 . S
C392 C393 1.327 . S
C393 H387 0.950 . S
C393 C392 1.327 . S
C393 C397 1.429 . S
C394 C377 1.574 . S
C394 H388 0.949 1_655 S
C394 C398 1.368 1_655 S
C395 C376 1.429 . S
C395 C389 1.429 . S
C395 C396 1.523 . S
C396 C377 1.368 . S
C396 C390 1.368 . S
C396 C395 1.523 . S
C397 C381 1.429 . S
C397 C393 1.429 . S
C397 C398 1.523 . S
C398 C382 1.355 1_455 S
C398 C394 1.368 1_455 S
C398 C397 1.523 . S
H399 C374 0.950 . S
H400 C376 0.950 . S
H401 C377 0.949 . S
H402 C379 0.950 . S
H403 C381 0.950 . S
C404 C405 1.349 . S
C404 C406 1.327 . S
C404 H429 0.950 . S
C405 C404 1.349 . S
C405 C421 1.349 . S
C406 C404 1.327 . S
C406 C425 1.429 . S
C406 H430 0.950 . S
C407 C424 1.574 . S
C407 C426 1.368 . S
C407 H431 0.949 . S
H408 C412 0.949 . S
C409 C410 1.349 . S
C409 C411 1.327 . S
C409 H432 0.950 . S
C410 C409 1.349 . S
C410 C422 1.349 . S
C411 C409 1.327 . S
C411 C427 1.429 . S
C411 H433 0.950 . S
C412 H408 0.949 . S
C412 C420 1.574 . S
C412 C428 1.368 . S
H413 C421 0.950 . S
H414 C419 0.950 . S
H415 C420 0.949 . S
H416 C422 0.950 . S
H417 C423 0.950 . S
H418 C424 0.949 . S
C419 H414 0.950 . S
C419 C421 1.327 . S
C419 C425 1.429 . S
C420 C412 1.574 . S
C420 H415 0.949 . S
C420 C426 1.368 . S
C421 C405 1.349 . S
C421 H413 0.950 . S
C421 C419 1.327 . S
C422 C410 1.349 . S
C422 H416 0.950 . S
C422 C423 1.327 . S
C423 H417 0.950 . S
C423 C422 1.327 . S
C423 C427 1.429 . S
C424 C407 1.574 . S
C424 H418 0.949 . S
C424 C428 1.368 . S
C425 C406 1.429 . S
C425 C419 1.429 . S
C425 C426 1.523 . S
C426 C407 1.368 . S
C426 C420 1.368 . S
C426 C425 1.523 . S
C427 C411 1.429 . S
C427 C423 1.429 . S
C427 C428 1.523 . S
C428 C412 1.368 . S
C428 C424 1.368 . S
C428 C427 1.523 . S
H429 C404 0.950 . S
H430 C406 0.950 . S
H431 C407 0.949 . S
H432 C409 0.950 . S
H433 C411 0.950 . S
C434 C435 1.349 . S
C434 C436 1.327 . S
C434 H459 0.950 . S
C435 C434 1.349 . S
C435 C451 1.349 . S
C436 C434 1.327 . S
C436 C455 1.429 . S
C436 H460 0.950 . S
C437 C454 1.574 . S
C437 C456 1.368 . S
C437 H461 0.949 . S
H438 C442 0.949 . S
C439 C440 1.349 . S
C439 C441 1.327 . S
C439 H462 0.950 . S
C440 C439 1.349 . S
C440 C452 1.349 . S
C441 C439 1.327 . S
C441 C457 1.429 . S
C441 H463 0.950 . S
C442 H438 0.949 . S
C442 C450 1.574 . S
C442 C458 1.368 . S
H443 C451 0.950 . S
H444 C449 0.950 . S
H445 C450 0.949 . S
H446 C452 0.950 . S
H447 C453 0.950 . S
H448 C454 0.949 . S
C449 H444 0.950 . S
C449 C451 1.327 . S
C449 C455 1.429 . S
C450 C442 1.574 . S
C450 H445 0.949 . S
C450 C456 1.368 . S
C451 C435 1.349 . S
C451 H443 0.950 . S
C451 C449 1.327 . S
C452 C440 1.349 . S
C452 H446 0.950 . S
C452 C453 1.327 . S
C453 H447 0.950 . S
C453 C452 1.327 . S
C453 C457 1.429 . S
C454 C437 1.574 . S
C454 H448 0.949 . S
C454 C458 1.368 . S
C455 C436 1.429 . S
C455 C449 1.429 . S
C455 C456 1.523 . S
C456 C437 1.368 . S
C456 C450 1.368 . S
C456 C455 1.523 . S
C457 C441 1.429 . S
C457 C453 1.429 . S
C457 C458 1.523 . S
C458 C442 1.368 . S
C458 C454 1.368 . S
C458 C457 1.523 . S
H459 C434 0.950 . S
H460 C436 0.950 . S
H461 C437 0.949 . S
H462 C439 0.950 . S
H463 C441 0.950 . S
C464 C465 1.349 . S
C464 C466 1.327 . S
C464 H489 0.950 . S
C465 C464 1.349 . S
C465 C481 1.349 . S
C466 C464 1.327 . S
C466 C485 1.429 . S
C466 H490 0.950 . S
C467 C484 1.574 . S
C467 C486 1.368 . S
C467 H491 0.949 . S
H468 C472 0.949 . S
C469 C470 1.349 . S
C469 C471 1.327 . S
C469 H492 0.950 . S
C470 C469 1.349 . S
C470 C482 1.349 . S
C471 C469 1.327 . S
C471 C487 1.429 . S
C471 H493 0.950 . S
C472 H468 0.949 . S
C472 C480 1.574 . S
C472 C488 1.368 . S
H473 C481 0.950 . S
H474 C479 0.950 . S
H475 C480 0.949 . S
H476 C482 0.950 . S
H477 C483 0.950 . S
H478 C484 0.949 . S
C479 H474 0.950 . S
C479 C481 1.327 . S
C479 C485 1.429 . S
C480 C472 1.574 . S
C480 H475 0.949 . S
C480 C486 1.368 . S
C481 C465 1.349 . S
C481 H473 0.950 . S
C481 C479 1.327 . S
C482 C470 1.349 . S
C482 H476 0.950 . S
C482 C483 1.327 . S
C483 H477 0.950 . S
C483 C482 1.327 . S
C483 C487 1.429 . S
C484 C467 1.574 . S
C484 H478 0.949 . S
C484 C488 1.368 . S
C485 C466 1.429 . S
C485 C479 1.429 . S
C485 C486 1.523 . S
C486 C467 1.368 . S
C486 C480 1.368 . S
C486 C485 1.523 . S
C487 C471 1.429 . S
C487 C483 1.429 . S
C487 C488 1.523 . S
C488 C472 1.368 . S
C488 C484 1.368 . S
C488 C487 1.523 . S
H489 C464 0.950 . S
H490 C466 0.950 . S
H491 C467 0.949 . S
H492 C469 0.950 . S
H493 C471 0.950 . S
C494 C495 1.349 . S
C494 C496 1.327 . S
C494 H519 0.950 . S
C495 C494 1.349 . S
C495 C511 1.349 . S
C496 C494 1.327 . S
C496 C515 1.429 . S
C496 H520 0.950 . S
C497 C514 1.574 . S
C497 C516 1.368 . S
C497 H521 0.949 . S
H498 C502 0.949 . S
C499 C500 1.349 . S
C499 C501 1.327 . S
C499 H522 0.950 . S
C500 C499 1.349 . S
C500 C512 1.349 . S
C501 C499 1.327 . S
C501 C517 1.429 . S
C501 H523 0.950 . S
C502 H498 0.949 . S
C502 C510 1.574 . S
C502 C518 1.368 . S
H503 C511 0.950 . S
H504 C509 0.950 . S
H505 C510 0.949 . S
H506 C512 0.950 . S
H507 C513 0.950 . S
H508 C514 0.949 . S
C509 H504 0.950 . S
C509 C511 1.327 . S
C509 C515 1.429 . S
C510 C502 1.574 . S
C510 H505 0.949 . S
C510 C516 1.368 . S
C511 C495 1.349 . S
C511 H503 0.950 . S
C511 C509 1.327 . S
C512 C500 1.349 . S
C512 H506 0.950 . S
C512 C513 1.327 . S
C513 H507 0.950 . S
C513 C512 1.327 . S
C513 C517 1.429 . S
C514 C497 1.574 . S
C514 H508 0.949 . S
C514 C518 1.368 . S
C515 C496 1.429 . S
C515 C509 1.429 . S
C515 C516 1.523 . S
C516 C497 1.368 . S
C516 C510 1.368 . S
C516 C515 1.523 . S
C517 C501 1.429 . S
C517 C513 1.429 . S
C517 C518 1.523 . S
C518 C502 1.368 . S
C518 C514 1.368 . S
C518 C517 1.523 . S
H519 C494 0.950 . S
H520 C496 0.950 . S
H521 C497 0.949 . S
H522 C499 0.950 . S
H523 C501 0.950 . S
C524 C525 1.349 . S
C524 C526 1.327 . S
C524 H549 0.950 . S
C525 C524 1.349 . S
C525 C541 1.349 . S
C526 C524 1.327 . S
C526 C545 1.429 . S
C526 H550 0.950 . S
C527 C544 1.574 . S
C527 C546 1.368 . S
C527 H551 0.949 . S
H528 C532 0.949 . S
C529 C530 1.349 . S
C529 C531 1.327 . S
C529 H552 0.950 . S
C530 C529 1.349 . S
C530 C542 1.349 . S
C531 C529 1.327 . S
C531 C547 1.429 . S
C531 H553 0.950 . S
C532 H528 0.949 . S
C532 C540 1.574 . S
C532 C548 1.368 . S
H533 C541 0.950 . S
H534 C539 0.950 . S
H535 C540 0.949 . S
H536 C542 0.950 . S
H537 C543 0.950 . S
H538 C544 0.949 . S
C539 H534 0.950 . S
C539 C541 1.327 . S
C539 C545 1.429 . S
C540 C532 1.574 . S
C540 H535 0.949 . S
C540 C546 1.368 . S
C541 C525 1.349 . S
C541 H533 0.950 . S
C541 C539 1.327 . S
C542 C530 1.349 . S
C542 H536 0.950 . S
C542 C543 1.327 . S
C543 H537 0.950 . S
C543 C542 1.327 . S
C543 C547 1.429 . S
C544 C527 1.574 . S
C544 H538 0.949 . S
C544 C548 1.368 . S
C545 C526 1.429 . S
C545 C539 1.429 . S
C545 C546 1.523 . S
C546 C527 1.368 . S
C546 C540 1.368 . S
C546 C545 1.523 . S
C547 C531 1.429 . S
C547 C543 1.429 . S
C547 C548 1.523 . S
C548 C532 1.368 . S
C548 C544 1.368 . S
C548 C547 1.523 . S
H549 C524 0.950 . S
H550 C526 0.950 . S
H551 C527 0.949 . S
H552 C529 0.950 . S
H553 C531 0.950 . S
C554 C555 1.349 . S
C554 C556 1.327 . S
C554 H579 0.950 . S
C555 C554 1.349 . S
C555 C571 1.349 . S
C556 C554 1.327 . S
C556 C575 1.429 . S
C556 H580 0.950 . S
C557 C574 1.574 . S
C557 C576 1.368 . S
C557 H581 0.949 . S
H558 C562 0.949 . S
C559 C560 1.349 . S
C559 C561 1.327 . S
C559 H582 0.950 . S
C560 C559 1.349 . S
C560 C572 1.349 . S
C561 C559 1.327 . S
C561 C577 1.429 . S
C561 H583 0.950 . S
C562 H558 0.949 . S
C562 C570 1.574 . S
C562 C578 1.368 . S
H563 C571 0.950 . S
H564 C569 0.950 . S
H565 C570 0.949 . S
H566 C572 0.950 . S
H567 C573 0.950 . S
H568 C574 0.949 . S
C569 H564 0.950 . S
C569 C571 1.327 . S
C569 C575 1.429 . S
C570 C562 1.574 . S
C570 H565 0.949 . S
C570 C576 1.368 . S
C571 C555 1.349 . S
C571 H563 0.950 . S
C571 C569 1.327 . S
C572 C560 1.349 . S
C572 H566 0.950 . S
C572 C573 1.327 . S
C573 H567 0.950 . S
C573 C572 1.327 . S
C573 C577 1.429 . S
C574 C557 1.574 . S
C574 H568 0.949 . S
C574 C578 1.368 . S
C575 C556 1.429 . S
C575 C569 1.429 . S
C575 C576 1.523 . S
C576 C557 1.368 . S
C576 C570 1.368 . S
C576 C575 1.523 . S
C577 C561 1.429 . S
C577 C573 1.429 . S
C577 C578 1.523 . S
C578 C562 1.368 . S
C578 C574 1.368 . S
C578 C577 1.523 . S
H579 C554 0.950 . S
H580 C556 0.950 . S
H581 C557 0.949 . S
H582 C559 0.950 . S
H583 C561 0.950 . S
C584 C585 1.349 . S
C584 C586 1.327 . S
C584 H609 0.950 . S
C585 C584 1.349 . S
C585 C601 1.349 . S
C586 C584 1.327 . S
C586 C605 1.429 . S
C586 H610 0.950 . S
C587 C604 1.574 1_455 S
C587 C606 1.368 . S
C587 H611 0.949 . S
H588 C592 0.949 . S
C589 C590 1.349 . S
C589 C591 1.327 . S
C589 H612 0.950 . S
C590 C589 1.349 . S
C590 C602 1.349 . S
C591 C589 1.327 . S
C591 C607 1.429 . S
C591 H613 0.950 . S
C592 H588 0.949 . S
C592 C600 1.574 1_655 S
C592 C608 1.368 . S
H593 C601 0.950 . S
H594 C599 0.950 . S
H595 C600 0.949 . S
H596 C602 0.950 . S
H597 C603 0.950 . S
H598 C604 0.949 . S
C599 H594 0.950 . S
C599 C601 1.327 . S
C599 C605 1.429 . S
C600 C592 1.574 1_455 S
C600 H595 0.949 . S
C600 C606 1.368 . S
C601 C585 1.349 . S
C601 H593 0.950 . S
C601 C599 1.327 . S
C602 C590 1.349 . S
C602 H596 0.950 . S
C602 C603 1.327 . S
C603 H597 0.950 . S
C603 C602 1.327 . S
C603 C607 1.429 . S
C604 C587 1.574 1_655 S
C604 H598 0.949 . S
C604 C608 1.368 . S
C605 C586 1.429 . S
C605 C599 1.429 . S
C605 C606 1.523 . S
C606 C587 1.368 . S
C606 C600 1.368 . S
C606 C605 1.523 . S
C607 C591 1.429 . S
C607 C603 1.429 . S
C607 C608 1.523 . S
C608 C592 1.368 . S
C608 C604 1.368 . S
C608 C607 1.523 . S
H609 C584 0.950 . S
H610 C586 0.950 . S
H611 C587 0.949 . S
H612 C589 0.950 . S
H613 C591 0.950 . S
C614 C615 1.349 . S
C614 C616 1.327 . S
C614 H639 0.950 . S
C615 C614 1.349 . S
C615 C631 1.349 . S
C616 C614 1.327 . S
C616 C635 1.429 . S
C616 H640 0.950 . S
C617 C634 1.574 . S
C617 C636 1.368 . S
C617 H641 0.949 . S
H618 C622 0.949 . S
C619 C620 1.349 . S
C619 C621 1.327 . S
C619 H642 0.950 . S
C620 C619 1.349 . S
C620 C632 1.349 . S
C621 C619 1.327 . S
C621 C637 1.429 . S
C621 H643 0.950 . S
C622 H618 0.949 . S
C622 C630 1.574 . S
C622 C638 1.368 . S
H623 C631 0.950 . S
H624 C629 0.950 . S
H625 C630 0.949 . S
H626 C632 0.950 . S
H627 C633 0.950 . S
H628 C634 0.949 . S
C629 H624 0.950 . S
C629 C631 1.327 . S
C629 C635 1.429 . S
C630 C622 1.574 . S
C630 H625 0.949 . S
C630 C636 1.368 . S
C631 C615 1.349 . S
C631 H623 0.950 . S
C631 C629 1.327 . S
C632 C620 1.349 . S
C632 H626 0.950 . S
C632 C633 1.327 . S
C633 H627 0.950 . S
C633 C632 1.327 . S
C633 C637 1.429 . S
C634 C617 1.574 . S
C634 H628 0.949 . S
C634 C638 1.368 . S
C635 C616 1.429 . S
C635 C629 1.429 . S
C635 C636 1.523 . S
C636 C617 1.368 . S
C636 C630 1.368 . S
C636 C635 1.523 . S
C637 C621 1.429 . S
C637 C633 1.429 . S
C637 C638 1.523 . S
C638 C622 1.368 . S
C638 C634 1.368 . S
C638 C637 1.523 . S
H639 C614 0.950 . S
H640 C616 0.950 . S
H641 C617 0.949 . S
H642 C619 0.950 . S
H643 C621 0.950 . S
C644 C645 1.349 . S
C644 C646 1.327 . S
C644 H669 0.950 . S
C645 C644 1.349 . S
C645 C661 1.349 . S
C646 C644 1.327 . S
C646 C665 1.429 . S
C646 H670 0.950 . S
C647 C664 1.574 . S
C647 C666 1.368 . S
C647 H671 0.949 . S
H648 C652 0.949 . S
C649 C650 1.349 . S
C649 C651 1.327 . S
C649 H672 0.950 . S
C650 C649 1.349 . S
C650 C662 1.349 . S
C651 C649 1.327 . S
C651 C667 1.429 . S
C651 H673 0.950 . S
C652 H648 0.949 . S
C652 C660 1.574 . S
C652 C668 1.368 . S
H653 C661 0.950 . S
H654 C659 0.950 . S
H655 C660 0.949 . S
H656 C662 0.950 . S
H657 C663 0.950 . S
H658 C664 0.949 . S
C659 H654 0.950 . S
C659 C661 1.327 . S
C659 C665 1.429 . S
C660 C652 1.574 . S
C660 H655 0.949 . S
C660 C666 1.368 . S
C661 C645 1.349 . S
C661 H653 0.950 . S
C661 C659 1.327 . S
C662 C650 1.349 . S
C662 H656 0.950 . S
C662 C663 1.327 . S
C663 H657 0.950 . S
C663 C662 1.327 . S
C663 C667 1.429 . S
C664 C647 1.574 . S
C664 H658 0.949 . S
C664 C668 1.368 . S
C665 C646 1.429 . S
C665 C659 1.429 . S
C665 C666 1.523 . S
C666 C647 1.368 . S
C666 C660 1.368 . S
C666 C665 1.523 . S
C667 C651 1.429 . S
C667 C663 1.429 . S
C667 C668 1.523 . S
C668 C652 1.368 . S
C668 C664 1.368 . S
C668 C667 1.523 . S
H669 C644 0.950 . S
H670 C646 0.950 . S
H671 C647 0.949 . S
H672 C649 0.950 . S
H673 C651 0.950 . S
C674 C675 1.349 . S
C674 C676 1.327 . S
C674 H699 0.950 . S
C675 C674 1.349 . S
C675 C691 1.349 . S
C676 C674 1.327 . S
C676 C695 1.429 . S
C676 H700 0.950 . S
C677 C694 1.552 1_455 S
C677 C696 1.368 . S
C677 H701 0.949 . S
H678 C682 0.949 . S
C679 C680 1.349 . S
C679 C681 1.327 . S
C679 H702 0.950 . S
C680 C679 1.349 . S
C680 C692 1.349 . S
C681 C679 1.327 . S
C681 C697 1.429 . S
C681 H703 0.950 . S
C682 H678 0.949 . S
C682 C690 1.574 1_655 S
C682 C698 1.368 . S
H683 C691 0.950 . S
H684 C689 0.950 . S
H685 C690 0.949 . S
H686 C692 0.950 . S
H687 C693 0.950 . S
H688 C694 0.960 . S
C689 H684 0.950 . S
C689 C691 1.327 . S
C689 C695 1.429 . S
C690 C682 1.574 1_455 S
C690 H685 0.949 . S
C690 C696 1.368 . S
C691 C675 1.349 . S
C691 H683 0.950 . S
C691 C689 1.327 . S
C692 C680 1.349 . S
C692 H686 0.950 . S
C692 C693 1.327 . S
C693 H687 0.950 . S
C693 C692 1.327 . S
C693 C697 1.429 . S
C694 C677 1.552 1_655 S
C694 H688 0.960 . S
C694 C698 1.378 . S
C695 C676 1.429 . S
C695 C689 1.429 . S
C695 C696 1.523 . S
C696 C677 1.368 . S
C696 C690 1.368 . S
C696 C695 1.523 . S
C697 C681 1.429 . S
C697 C693 1.429 . S
C697 C698 1.523 . S
C698 C682 1.368 . S
C698 C694 1.378 . S
C698 C697 1.523 . S
H699 C674 0.950 . S
H700 C676 0.950 . S
H701 C677 0.949 . S
H702 C679 0.950 . S
H703 C681 0.950 . S
C704 C705 1.349 . S
C704 C706 1.327 . S
C704 H729 0.950 . S
C705 C704 1.349 . S
C705 C721 1.349 . S
C706 C704 1.327 . S
C706 C725 1.429 . S
C706 H730 0.950 . S
C707 C724 1.574 1_554 S
C707 C726 1.368 . S
C707 H731 0.949 . S
H708 C712 0.949 . S
C709 C710 1.349 . S
C709 C711 1.327 . S
C709 H732 0.950 . S
C710 C709 1.349 . S
C710 C722 1.349 . S
C711 C709 1.327 . S
C711 C727 1.429 . S
C711 H733 0.950 . S
C712 H708 0.949 . S
C712 C720 1.576 . S
C712 C728 1.368 . S
H713 C721 0.950 . S
H714 C719 0.950 . S
H715 C720 0.949 1_554 S
H716 C722 0.950 . S
H717 C723 0.950 . S
H718 C724 0.949 . S
C719 H714 0.950 . S
C719 C721 1.327 . S
C719 C725 1.429 . S
C720 C712 1.576 . S
C720 H715 0.949 1_556 S
C720 C726 1.366 1_556 S
C721 C705 1.349 . S
C721 H713 0.950 . S
C721 C719 1.327 . S
C722 C710 1.349 . S
C722 H716 0.950 . S
C722 C723 1.327 . S
C723 H717 0.950 . S
C723 C722 1.327 . S
C723 C727 1.429 . S
C724 C707 1.574 1_556 S
C724 H718 0.949 . S
C724 C728 1.368 . S
C725 C706 1.429 . S
C725 C719 1.429 . S
C725 C726 1.523 . S
C726 C707 1.368 . S
C726 C720 1.366 1_554 S
C726 C725 1.523 . S
C727 C711 1.429 . S
C727 C723 1.429 . S
C727 C728 1.523 . S
C728 C712 1.368 . S
C728 C724 1.368 . S
C728 C727 1.523 . S
H729 C704 0.950 . S
H730 C706 0.950 . S
H731 C707 0.949 . S
H732 C709 0.950 . S
H733 C711 0.950 . S
C734 C735 1.349 . S
C734 C736 1.327 . S
C734 H759 0.950 . S
C735 C734 1.349 . S
C735 C751 1.349 . S
C736 C734 1.327 . S
C736 C755 1.429 . S
C736 H760 0.950 . S
C737 C754 1.574 . S
C737 C756 1.368 . S
C737 H761 0.949 . S
H738 C742 0.949 . S
C739 C740 1.349 . S
C739 C741 1.327 . S
C739 H762 0.950 . S
C740 C739 1.349 . S
C740 C752 1.349 . S
C741 C739 1.327 . S
C741 C757 1.429 . S
C741 H763 0.950 . S
C742 H738 0.949 . S
C742 C750 1.574 . S
C742 C758 1.368 . S
H743 C751 0.950 . S
H744 C749 0.950 . S
H745 C750 0.949 . S
H746 C752 0.950 . S
H747 C753 0.950 . S
H748 C754 0.949 . S
C749 H744 0.950 . S
C749 C751 1.327 . S
C749 C755 1.429 . S
C750 C742 1.574 . S
C750 H745 0.949 . S
C750 C756 1.368 . S
C751 C735 1.349 . S
C751 H743 0.950 . S
C751 C749 1.327 . S
C752 C740 1.349 . S
C752 H746 0.950 . S
C752 C753 1.327 . S
C753 H747 0.950 . S
C753 C752 1.327 . S
C753 C757 1.429 . S
C754 C737 1.574 . S
C754 H748 0.949 . S
C754 C758 1.368 . S
C755 C736 1.429 . S
C755 C749 1.429 . S
C755 C756 1.523 . S
C756 C737 1.368 . S
C756 C750 1.368 . S
C756 C755 1.523 . S
C757 C741 1.429 . S
C757 C753 1.429 . S
C757 C758 1.523 . S
C758 C742 1.368 . S
C758 C754 1.368 . S
C758 C757 1.523 . S
H759 C734 0.950 . S
H760 C736 0.950 . S
H761 C737 0.949 . S
H762 C739 0.950 . S
H763 C741 0.950 . S
C764 C765 1.349 . S
C764 C766 1.327 . S
C764 H789 0.950 . S
C765 C764 1.349 . S
C765 C781 1.349 . S
C766 C764 1.327 . S
C766 C785 1.429 . S
C766 H790 0.950 . S
C767 C784 1.574 . S
C767 C786 1.368 . S
C767 H791 0.949 . S
H768 C772 0.949 . S
C769 C770 1.349 . S
C769 C771 1.327 . S
C769 H792 0.950 . S
C770 C769 1.349 . S
C770 C782 1.349 . S
C771 C769 1.327 . S
C771 C787 1.429 . S
C771 H793 0.950 . S
C772 H768 0.949 . S
C772 C780 1.574 . S
C772 C788 1.368 . S
H773 C781 0.950 . S
H774 C779 0.950 . S
H775 C780 0.949 . S
H776 C782 0.950 . S
H777 C783 0.950 . S
H778 C784 0.949 . S
C779 H774 0.950 . S
C779 C781 1.327 . S
C779 C785 1.429 . S
C780 C772 1.574 . S
C780 H775 0.949 . S
C780 C786 1.368 . S
C781 C765 1.349 . S
C781 H773 0.950 . S
C781 C779 1.327 . S
C782 C770 1.349 . S
C782 H776 0.950 . S
C782 C783 1.327 . S
C783 H777 0.950 . S
C783 C782 1.327 . S
C783 C787 1.429 . S
C784 C767 1.574 . S
C784 H778 0.949 . S
C784 C788 1.368 . S
C785 C766 1.429 . S
C785 C779 1.429 . S
C785 C786 1.523 . S
C786 C767 1.368 . S
C786 C780 1.368 . S
C786 C785 1.523 . S
C787 C771 1.429 . S
C787 C783 1.429 . S
C787 C788 1.523 . S
C788 C772 1.368 . S
C788 C784 1.368 . S
C788 C787 1.523 . S
H789 C764 0.950 . S
H790 C766 0.950 . S
H791 C767 0.949 . S
H792 C769 0.950 . S
H793 C771 0.950 . S
C794 C795 1.349 . S
C794 C796 1.327 . S
C794 H819 0.950 . S
C795 C794 1.349 . S
C795 C811 1.349 . S
C796 C794 1.327 . S
C796 C815 1.429 . S
C796 H820 0.950 . S
C797 C814 1.574 . S
C797 C816 1.368 . S
C797 H821 0.949 . S
H798 C802 0.949 . S
C799 C800 1.349 . S
C799 C801 1.327 . S
C799 H822 0.950 . S
C800 C799 1.349 . S
C800 C812 1.349 . S
C801 C799 1.327 . S
C801 C817 1.429 . S
C801 H823 0.950 . S
C802 H798 0.949 . S
C802 C810 1.574 . S
C802 C818 1.368 . S
H803 C811 0.950 . S
H804 C809 0.950 . S
H805 C810 0.949 . S
H806 C812 0.950 . S
H807 C813 0.950 . S
H808 C814 0.949 . S
C809 H804 0.950 . S
C809 C811 1.327 . S
C809 C815 1.429 . S
C810 C802 1.574 . S
C810 H805 0.949 . S
C810 C816 1.368 . S
C811 C795 1.349 . S
C811 H803 0.950 . S
C811 C809 1.327 . S
C812 C800 1.349 . S
C812 H806 0.950 . S
C812 C813 1.327 . S
C813 H807 0.950 . S
C813 C812 1.327 . S
C813 C817 1.429 . S
C814 C797 1.574 . S
C814 H808 0.949 . S
C814 C818 1.368 . S
C815 C796 1.429 . S
C815 C809 1.429 . S
C815 C816 1.523 . S
C816 C797 1.368 . S
C816 C810 1.368 . S
C816 C815 1.523 . S
C817 C801 1.429 . S
C817 C813 1.429 . S
C817 C818 1.523 . S
C818 C802 1.368 . S
C818 C814 1.368 . S
C818 C817 1.523 . S
H819 C794 0.950 . S
H820 C796 0.950 . S
H821 C797 0.949 . S
H822 C799 0.950 . S
H823 C801 0.950 . S
C824 C825 1.349 . S
C824 C826 1.327 . S
C824 H849 0.950 . S
C825 C824 1.349 . S
C825 C841 1.349 . S
C826 C824 1.327 . S
C826 C845 1.429 . S
C826 H850 0.950 . S
C827 C844 1.574 1_556 S
C827 C846 1.368 . S
C827 H851 0.949 . S
H828 C832 0.949 . S
C829 C830 1.349 . S
C829 C831 1.327 . S
C829 H852 0.950 . S
C830 C829 1.349 . S
C830 C842 1.349 . S
C831 C829 1.327 . S
C831 C847 1.429 . S
C831 H853 0.950 . S
C832 H828 0.949 . S
C832 C840 1.574 1_554 S
C832 C848 1.368 . S
H833 C841 0.950 . S
H834 C839 0.950 . S
H835 C840 0.949 . S
H836 C842 0.950 . S
H837 C843 0.950 . S
H838 C844 0.949 . S
C839 H834 0.950 . S
C839 C841 1.327 . S
C839 C845 1.429 . S
C840 C832 1.574 1_556 S
C840 H835 0.949 . S
C840 C846 1.368 . S
C841 C825 1.349 . S
C841 H833 0.950 . S
C841 C839 1.327 . S
C842 C830 1.349 . S
C842 H836 0.950 . S
C842 C843 1.327 . S
C843 H837 0.950 . S
C843 C842 1.327 . S
C843 C847 1.429 . S
C844 C827 1.574 1_554 S
C844 H838 0.949 . S
C844 C848 1.368 . S
C845 C826 1.429 . S
C845 C839 1.429 . S
C845 C846 1.523 . S
C846 C827 1.368 . S
C846 C840 1.368 . S
C846 C845 1.523 . S
C847 C831 1.429 . S
C847 C843 1.429 . S
C847 C848 1.523 . S
C848 C832 1.368 . S
C848 C844 1.368 . S
C848 C847 1.523 . S
H849 C824 0.950 . S
H850 C826 0.950 . S
H851 C827 0.949 . S
H852 C829 0.950 . S
H853 C831 0.950 . S
C854 C855 1.349 . S
C854 C856 1.327 . S
C854 H879 0.950 . S
C855 C854 1.349 . S
C855 C871 1.349 . S
C856 C854 1.327 . S
C856 C875 1.429 . S
C856 H880 0.950 . S
C857 C874 1.574 . S
C857 C876 1.368 . S
C857 H881 0.949 . S
H858 C862 0.949 . S
C859 C860 1.349 . S
C859 C861 1.327 . S
C859 H882 0.950 . S
C860 C859 1.349 . S
C860 C872 1.349 . S
C861 C859 1.327 . S
C861 C877 1.429 . S
C861 H883 0.950 . S
C862 H858 0.949 . S
C862 C870 1.574 . S
C862 C878 1.368 . S
H863 C871 0.950 . S
H864 C869 0.950 . S
H865 C870 0.949 . S
H866 C872 0.950 . S
H867 C873 0.950 . S
H868 C874 0.949 . S
C869 H864 0.950 . S
C869 C871 1.327 . S
C869 C875 1.429 . S
C870 C862 1.574 . S
C870 H865 0.949 . S
C870 C876 1.368 . S
C871 C855 1.349 . S
C871 H863 0.950 . S
C871 C869 1.327 . S
C872 C860 1.349 . S
C872 H866 0.950 . S
C872 C873 1.327 . S
C873 H867 0.950 . S
C873 C872 1.327 . S
C873 C877 1.429 . S
C874 C857 1.574 . S
C874 H868 0.949 . S
C874 C878 1.368 . S
C875 C856 1.429 . S
C875 C869 1.429 . S
C875 C876 1.523 . S
C876 C857 1.368 . S
C876 C870 1.368 . S
C876 C875 1.523 . S
C877 C861 1.429 . S
C877 C873 1.429 . S
C877 C878 1.523 . S
C878 C862 1.368 . S
C878 C874 1.368 . S
C878 C877 1.523 . S
H879 C854 0.950 . S
H880 C856 0.950 . S
H881 C857 0.949 . S
H882 C859 0.950 . S
H883 C861 0.950 . S
C884 C885 1.349 . S
C884 C886 1.327 . S
C884 H909 0.950 . S
C885 C884 1.349 . S
C885 C901 1.349 . S
C886 C884 1.327 . S
C886 C905 1.429 . S
C886 H910 0.950 . S
C887 C904 1.574 . S
C887 C906 1.368 . S
C887 H911 0.949 . S
H888 C892 0.949 . S
C889 C890 1.349 . S
C889 C891 1.327 . S
C889 H912 0.950 . S
C890 C889 1.349 . S
C890 C902 1.349 . S
C891 C889 1.327 . S
C891 C907 1.429 . S
C891 H913 0.950 . S
C892 H888 0.949 . S
C892 C900 1.574 . S
C892 C908 1.368 . S
H893 C901 0.950 . S
H894 C899 0.950 . S
H895 C900 0.949 . S
H896 C902 0.950 . S
H897 C903 0.950 . S
H898 C904 0.949 . S
C899 H894 0.950 . S
C899 C901 1.327 . S
C899 C905 1.429 . S
C900 C892 1.574 . S
C900 H895 0.949 . S
C900 C906 1.368 . S
C901 C885 1.349 . S
C901 H893 0.950 . S
C901 C899 1.327 . S
C902 C890 1.349 . S
C902 H896 0.950 . S
C902 C903 1.327 . S
C903 H897 0.950 . S
C903 C902 1.327 . S
C903 C907 1.429 . S
C904 C887 1.574 . S
C904 H898 0.949 . S
C904 C908 1.368 . S
C905 C886 1.429 . S
C905 C899 1.429 . S
C905 C906 1.523 . S
C906 C887 1.368 . S
C906 C900 1.368 . S
C906 C905 1.523 . S
C907 C891 1.429 . S
C907 C903 1.429 . S
C907 C908 1.523 . S
C908 C892 1.368 . S
C908 C904 1.368 . S
C908 C907 1.523 . S
H909 C884 0.950 . S
H910 C886 0.950 . S
H911 C887 0.949 . S
H912 C889 0.950 . S
H913 C891 0.950 . S
C914 C915 1.349 . S
C914 C916 1.327 . S
C914 H939 0.950 . S
C915 C914 1.349 . S
C915 C931 1.349 . S
C916 C914 1.327 . S
C916 C935 1.429 . S
C916 H940 0.950 . S
C917 C934 1.574 . S
C917 C936 1.368 . S
C917 H941 0.949 . S
H918 C922 0.949 . S
C919 C920 1.349 . S
C919 C921 1.327 . S
C919 H942 0.950 . S
C920 C919 1.349 . S
C920 C932 1.349 . S
C921 C919 1.327 . S
C921 C937 1.429 . S
C921 H943 0.950 . S
C922 H918 0.949 . S
C922 C930 1.574 . S
C922 C938 1.368 . S
H923 C931 0.950 . S
H924 C929 0.950 . S
H925 C930 0.949 . S
H926 C932 0.950 . S
H927 C933 0.950 . S
H928 C934 0.949 . S
C929 H924 0.950 . S
C929 C931 1.327 . S
C929 C935 1.429 . S
C930 C922 1.574 . S
C930 H925 0.949 . S
C930 C936 1.368 . S
C931 C915 1.349 . S
C931 H923 0.950 . S
C931 C929 1.327 . S
C932 C920 1.349 . S
C932 H926 0.950 . S
C932 C933 1.327 . S
C933 H927 0.950 . S
C933 C932 1.327 . S
C933 C937 1.429 . S
C934 C917 1.574 . S
C934 H928 0.949 . S
C934 C938 1.368 . S
C935 C916 1.429 . S
C935 C929 1.429 . S
C935 C936 1.523 . S
C936 C917 1.368 . S
C936 C930 1.368 . S
C936 C935 1.523 . S
C937 C921 1.429 . S
C937 C933 1.429 . S
C937 C938 1.523 . S
C938 C922 1.368 . S
C938 C934 1.368 . S
C938 C937 1.523 . S
H939 C914 0.950 . S
H940 C916 0.950 . S
H941 C917 0.949 . S
H942 C919 0.950 . S
H943 C921 0.950 . S
C944 C945 1.349 . S
C944 C946 1.327 . S
C944 H969 0.950 . S
C945 C944 1.349 . S
C945 C961 1.349 . S
C946 C944 1.327 . S
C946 C965 1.429 . S
C946 H970 0.950 . S
C947 C964 1.574 . S
C947 C966 1.368 . S
C947 H971 0.949 . S
H948 C952 0.949 . S
C949 C950 1.349 . S
C949 C951 1.327 . S
C949 H972 0.950 . S
C950 C949 1.349 . S
C950 C962 1.349 . S
C951 C949 1.327 . S
C951 C967 1.429 . S
C951 H973 0.950 . S
C952 H948 0.949 . S
C952 C960 1.574 1_565 S
C952 C968 1.368 . S
H953 C961 0.950 . S
H954 C959 0.950 . S
H955 C960 0.949 . S
H956 C962 0.950 . S
H957 C963 0.950 . S
H958 C964 0.949 . S
C959 H954 0.950 . S
C959 C961 1.327 . S
C959 C965 1.429 . S
C960 C952 1.574 1_545 S
C960 H955 0.949 . S
C960 C966 1.368 . S
C961 C945 1.349 . S
C961 H953 0.950 . S
C961 C959 1.327 . S
C962 C950 1.349 . S
C962 H956 0.950 . S
C962 C963 1.327 . S
C963 H957 0.950 . S
C963 C962 1.327 . S
C963 C967 1.429 . S
C964 C947 1.574 . S
C964 H958 0.949 . S
C964 C968 1.368 1_545 S
C965 C946 1.429 . S
C965 C959 1.429 . S
C965 C966 1.523 . S
C966 C947 1.368 . S
C966 C960 1.368 . S
C966 C965 1.523 . S
C967 C951 1.429 . S
C967 C963 1.429 . S
C967 C968 1.523 . S
C968 C952 1.368 . S
C968 C964 1.368 1_565 S
C968 C967 1.523 . S
H969 C944 0.950 . S
H970 C946 0.950 . S
H971 C947 0.949 . S
H972 C949 0.950 . S
H973 C951 0.950 . S
C974 C975 1.349 . S
C974 C976 1.327 . S
C974 H999 0.950 . S
C975 C974 1.349 . S
C975 C991 1.349 . S
C976 C974 1.327 . S
C976 C995 1.429 . S
C976 H1000 0.950 . S
C977 C994 1.574 . S
C977 C996 1.368 . S
C977 H1001 0.949 . S
H978 C982 0.949 . S
C979 C980 1.349 . S
C979 C981 1.327 . S
C979 H1002 0.950 . S
C980 C979 1.349 . S
C980 C992 1.349 . S
C981 C979 1.327 . S
C981 C997 1.429 . S
C981 H1003 0.950 . S
C982 H978 0.949 . S
C982 C990 1.574 . S
C982 C998 1.368 . S
H983 C991 0.950 . S
H984 C989 0.950 . S
H985 C990 0.949 . S
H986 C992 0.950 . S
H987 C993 0.950 . S
H988 C994 0.949 . S
C989 H984 0.950 . S
C989 C991 1.327 . S
C989 C995 1.429 . S
C990 C982 1.574 . S
C990 H985 0.949 . S
C990 C996 1.368 . S
C991 C975 1.349 . S
C991 H983 0.950 . S
C991 C989 1.327 . S
C992 C980 1.349 . S
C992 H986 0.950 . S
C992 C993 1.327 . S
C993 H987 0.950 . S
C993 C992 1.327 . S
C993 C997 1.429 . S
C994 C977 1.574 . S
C994 H988 0.949 . S
C994 C998 1.368 . S
C995 C976 1.429 . S
C995 C989 1.429 . S
C995 C996 1.523 . S
C996 C977 1.368 . S
C996 C990 1.368 . S
C996 C995 1.523 . S
C997 C981 1.429 . S
C997 C993 1.429 . S
C997 C998 1.523 . S
C998 C982 1.368 . S
C998 C994 1.368 . S
C998 C997 1.523 . S
H999 C974 0.950 . S
H1000 C976 0.950 . S
H1001 C977 0.949 . S
H1002 C979 0.950 . S
H1003 C981 0.950 . S
C1004 C1005 1.349 . S
C1004 C1006 1.327 . S
C1004 H1029 0.950 . S
C1005 C1004 1.349 . S
C1005 C1021 1.349 . S
C1006 C1004 1.327 . S
C1006 C1025 1.429 . S
C1006 H1030 0.950 . S
C1007 C1024 1.584 1_556 S
C1007 C1026 1.368 . S
C1007 H1031 0.949 . S
H1008 C1012 0.949 . S
C1009 C1010 1.349 . S
C1009 C1011 1.327 . S
C1009 H1032 0.950 . S
C1010 C1009 1.349 . S
C1010 C1022 1.349 . S
C1011 C1009 1.327 . S
C1011 C1027 1.429 . S
C1011 H1033 0.950 . S
C1012 H1008 0.949 . S
C1012 C1020 1.599 1_554 S
C1012 C1028 1.368 . S
H1013 C1021 0.950 . S
H1014 C1019 0.950 . S
H1015 C1020 0.951 . S
H1016 C1022 0.950 . S
H1017 C1023 0.950 . S
H1018 C1024 0.949 . S
C1019 H1014 0.950 . S
C1019 C1021 1.327 . S
C1019 C1025 1.429 . S
C1020 C1012 1.599 1_556 S
C1020 H1015 0.951 . S
C1020 C1026 1.344 1_565 S
C1021 C1005 1.349 . S
C1021 H1013 0.950 . S
C1021 C1019 1.327 . S
C1022 C1010 1.349 . S
C1022 H1016 0.950 . S
C1022 C1023 1.327 . S
C1023 H1017 0.950 . S
C1023 C1022 1.327 . S
C1023 C1027 1.429 . S
C1024 C1007 1.584 1_554 S
C1024 H1018 0.949 . S
C1024 C1028 1.358 1_545 S
C1025 C1006 1.429 . S
C1025 C1019 1.429 . S
C1025 C1026 1.523 . S
C1026 C1007 1.368 . S
C1026 C1020 1.344 1_545 S
C1026 C1025 1.523 . S
C1027 C1011 1.429 . S
C1027 C1023 1.429 . S
C1027 C1028 1.523 . S
C1028 C1012 1.368 . S
C1028 C1024 1.358 1_565 S
C1028 C1027 1.523 . S
H1029 C1004 0.950 . S
H1030 C1006 0.950 . S
H1031 C1007 0.949 . S
H1032 C1009 0.950 . S
H1033 C1011 0.950 . S
C1034 C1035 1.349 . S
C1034 C1036 1.327 . S
C1034 H1059 0.950 . S
C1035 C1034 1.349 . S
C1035 C1051 1.349 . S
C1036 C1034 1.327 . S
C1036 C1055 1.429 . S
C1036 H1060 0.950 . S
C1037 C1054 1.574 . S
C1037 C1056 1.368 . S
C1037 H1061 0.949 . S
H1038 C1042 0.949 . S
C1039 C1040 1.349 . S
C1039 C1041 1.327 . S
C1039 H1062 0.950 . S
C1040 C1039 1.349 . S
C1040 C1052 1.349 . S
C1041 C1039 1.327 . S
C1041 C1057 1.429 . S
C1041 H1063 0.950 . S
C1042 H1038 0.949 . S
C1042 C1050 1.574 . S
C1042 C1058 1.368 . S
H1043 C1051 0.950 . S
H1044 C1049 0.950 . S
H1045 C1050 0.949 . S
H1046 C1052 0.950 . S
H1047 C1053 0.950 . S
H1048 C1054 0.949 . S
C1049 H1044 0.950 . S
C1049 C1051 1.327 . S
C1049 C1055 1.429 . S
C1050 C1042 1.574 . S
C1050 H1045 0.949 . S
C1050 C1056 1.368 . S
C1051 C1035 1.349 . S
C1051 H1043 0.950 . S
C1051 C1049 1.327 . S
C1052 C1040 1.349 . S
C1052 H1046 0.950 . S
C1052 C1053 1.327 . S
C1053 H1047 0.950 . S
C1053 C1052 1.327 . S
C1053 C1057 1.429 . S
C1054 C1037 1.574 . S
C1054 H1048 0.949 . S
C1054 C1058 1.368 . S
C1055 C1036 1.429 . S
C1055 C1049 1.429 . S
C1055 C1056 1.523 . S
C1056 C1037 1.368 . S
C1056 C1050 1.368 . S
C1056 C1055 1.523 . S
C1057 C1041 1.429 . S
C1057 C1053 1.429 . S
C1057 C1058 1.523 . S
C1058 C1042 1.368 . S
C1058 C1054 1.368 . S
C1058 C1057 1.523 . S
H1059 C1034 0.950 . S
H1060 C1036 0.950 . S
H1061 C1037 0.949 . S
H1062 C1039 0.950 . S
H1063 C1041 0.950 . S
C1064 C1065 1.349 . S
C1064 C1066 1.327 . S
C1064 H1089 0.950 . S
C1065 C1064 1.349 . S
C1065 C1081 1.349 . S
C1066 C1064 1.327 . S
C1066 C1085 1.429 . S
C1066 H1090 0.950 . S
C1067 C1084 1.574 1_545 S
C1067 C1086 1.368 . S
C1067 H1091 0.949 . S
H1068 C1072 0.949 . S
C1069 C1070 1.349 . S
C1069 C1071 1.327 . S
C1069 H1092 0.950 . S
C1070 C1069 1.349 . S
C1070 C1082 1.349 . S
C1071 C1069 1.327 . S
C1071 C1087 1.429 . S
C1071 H1093 0.950 . S
C1072 H1068 0.949 . S
C1072 C1080 1.574 . S
C1072 C1088 1.368 . S
H1073 C1081 0.950 . S
H1074 C1079 0.950 . S
H1075 C1080 0.949 . S
H1076 C1082 0.950 . S
H1077 C1083 0.950 . S
H1078 C1084 0.949 . S
C1079 H1074 0.950 . S
C1079 C1081 1.327 . S
C1079 C1085 1.429 . S
C1080 C1072 1.574 . S
C1080 H1075 0.949 . S
C1080 C1086 1.368 1_565 S
C1081 C1065 1.349 . S
C1081 H1073 0.950 . S
C1081 C1079 1.327 . S
C1082 C1070 1.349 . S
C1082 H1076 0.950 . S
C1082 C1083 1.327 . S
C1083 H1077 0.950 . S
C1083 C1082 1.327 . S
C1083 C1087 1.429 . S
C1084 C1067 1.574 1_565 S
C1084 H1078 0.949 . S
C1084 C1088 1.368 . S
C1085 C1066 1.429 . S
C1085 C1079 1.429 . S
C1085 C1086 1.523 . S
C1086 C1067 1.368 . S
C1086 C1080 1.368 1_545 S
C1086 C1085 1.523 . S
C1087 C1071 1.429 . S
C1087 C1083 1.429 . S
C1087 C1088 1.523 . S
C1088 C1072 1.368 . S
C1088 C1084 1.368 . S
C1088 C1087 1.523 . S
H1089 C1064 0.950 . S
H1090 C1066 0.950 . S
H1091 C1067 0.949 . S
H1092 C1069 0.950 . S
H1093 C1071 0.950 . S
C1094 C1095 1.349 . S
C1094 C1096 1.327 . S
C1094 H1119 0.950 . S
C1095 C1094 1.349 . S
C1095 C1111 1.349 . S
C1096 C1094 1.327 . S
C1096 C1115 1.429 . S
C1096 H1120 0.950 . S
C1097 C1114 1.574 . S
C1097 C1116 1.368 . S
C1097 H1121 0.949 . S
H1098 C1102 0.949 . S
C1099 C1100 1.349 . S
C1099 C1101 1.327 . S
C1099 H1122 0.950 . S
C1100 C1099 1.349 . S
C1100 C1112 1.349 . S
C1101 C1099 1.327 . S
C1101 C1117 1.429 . S
C1101 H1123 0.950 . S
C1102 H1098 0.949 . S
C1102 C1110 1.574 . S
C1102 C1118 1.368 . S
H1103 C1111 0.950 . S
H1104 C1109 0.950 . S
H1105 C1110 0.949 . S
H1106 C1112 0.950 . S
H1107 C1113 0.950 . S
H1108 C1114 0.949 . S
C1109 H1104 0.950 . S
C1109 C1111 1.327 . S
C1109 C1115 1.429 . S
C1110 C1102 1.574 . S
C1110 H1105 0.949 . S
C1110 C1116 1.368 . S
C1111 C1095 1.349 . S
C1111 H1103 0.950 . S
C1111 C1109 1.327 . S
C1112 C1100 1.349 . S
C1112 H1106 0.950 . S
C1112 C1113 1.327 . S
C1113 H1107 0.950 . S
C1113 C1112 1.327 . S
C1113 C1117 1.429 . S
C1114 C1097 1.574 . S
C1114 H1108 0.949 . S
C1114 C1118 1.368 . S
C1115 C1096 1.429 . S
C1115 C1109 1.429 . S
C1115 C1116 1.523 . S
C1116 C1097 1.368 . S
C1116 C1110 1.368 . S
C1116 C1115 1.523 . S
C1117 C1101 1.429 . S
C1117 C1113 1.429 . S
C1117 C1118 1.523 . S
C1118 C1102 1.368 . S
C1118 C1114 1.368 . S
C1118 C1117 1.523 . S
H1119 C1094 0.950 . S
H1120 C1096 0.950 . S
H1121 C1097 0.949 . S
H1122 C1099 0.950 . S
H1123 C1101 0.950 . S
C1124 C1125 1.349 . S
C1124 C1126 1.327 . S
C1124 H1149 0.950 . S
C1125 C1124 1.349 . S
C1125 C1141 1.349 . S
C1126 C1124 1.327 . S
C1126 C1145 1.429 . S
C1126 H1150 0.950 1_565 S
C1127 C1144 1.574 1_554 S
C1127 C1146 1.368 . S
C1127 H1151 0.949 . S
H1128 C1132 0.949 1_556 S
C1129 C1130 1.349 . S
C1129 C1131 1.327 . S
C1129 H1152 0.950 . S
C1130 C1129 1.349 . S
C1130 C1142 1.349 . S
C1131 C1129 1.327 . S
C1131 C1147 1.429 . S
C1131 H1153 0.950 1_545 S
C1132 H1128 0.949 1_554 S
C1132 C1140 1.574 . S
C1132 C1148 1.368 1_554 S
H1133 C1141 0.950 . S
H1134 C1139 0.950 . S
H1135 C1140 0.949 . S
H1136 C1142 0.950 . S
H1137 C1143 0.950 . S
H1138 C1144 0.949 . S
C1139 H1134 0.950 . S
C1139 C1141 1.327 . S
C1139 C1145 1.429 . S
C1140 C1132 1.574 . S
C1140 H1135 0.949 . S
C1140 C1146 1.368 1_545 S
C1141 C1125 1.349 . S
C1141 H1133 0.950 . S
C1141 C1139 1.327 . S
C1142 C1130 1.349 . S
C1142 H1136 0.950 . S
C1142 C1143 1.327 . S
C1143 H1137 0.950 . S
C1143 C1142 1.327 . S
C1143 C1147 1.429 . S
C1144 C1127 1.574 1_556 S
C1144 H1138 0.949 . S
C1144 C1148 1.368 1_565 S
C1145 C1126 1.429 . S
C1145 C1139 1.429 . S
C1145 C1146 1.523 . S
C1146 C1127 1.368 . S
C1146 C1140 1.368 1_565 S
C1146 C1145 1.523 . S
C1147 C1131 1.429 . S
C1147 C1143 1.429 . S
C1147 C1148 1.523 . S
C1148 C1132 1.368 1_556 S
C1148 C1144 1.368 1_545 S
C1148 C1147 1.523 . S
H1149 C1124 0.950 . S
H1150 C1126 0.950 1_545 S
H1151 C1127 0.949 . S
H1152 C1129 0.950 . S
H1153 C1131 0.950 1_565 S
C1154 C1155 1.349 . S
C1154 C1156 1.327 . S
C1154 H1179 0.950 . S
C1155 C1154 1.349 . S
C1155 C1171 1.349 . S
C1156 C1154 1.327 . S
C1156 C1175 1.429 . S
C1156 H1180 0.950 . S
C1157 C1174 1.574 . S
C1157 C1176 1.368 . S
C1157 H1181 0.949 . S
H1158 C1162 0.949 . S
C1159 C1160 1.349 . S
C1159 C1161 1.327 . S
C1159 H1182 0.950 . S
C1160 C1159 1.349 . S
C1160 C1172 1.349 . S
C1161 C1159 1.327 . S
C1161 C1177 1.429 . S
C1161 H1183 0.950 . S
C1162 H1158 0.949 . S
C1162 C1170 1.574 . S
C1162 C1178 1.368 . S
H1163 C1171 0.950 . S
H1164 C1169 0.950 . S
H1165 C1170 0.949 . S
H1166 C1172 0.950 . S
H1167 C1173 0.950 . S
H1168 C1174 0.949 . S
C1169 H1164 0.950 . S
C1169 C1171 1.327 . S
C1169 C1175 1.429 . S
C1170 C1162 1.574 . S
C1170 H1165 0.949 . S
C1170 C1176 1.368 . S
C1171 C1155 1.349 . S
C1171 H1163 0.950 . S
C1171 C1169 1.327 . S
C1172 C1160 1.349 . S
C1172 H1166 0.950 . S
C1172 C1173 1.327 . S
C1173 H1167 0.950 . S
C1173 C1172 1.327 . S
C1173 C1177 1.429 . S
C1174 C1157 1.574 . S
C1174 H1168 0.949 . S
C1174 C1178 1.368 . S
C1175 C1156 1.429 . S
C1175 C1169 1.429 . S
C1175 C1176 1.523 . S
C1176 C1157 1.368 . S
C1176 C1170 1.368 . S
C1176 C1175 1.523 . S
C1177 C1161 1.429 . S
C1177 C1173 1.429 . S
C1177 C1178 1.523 . S
C1178 C1162 1.368 . S
C1178 C1174 1.368 . S
C1178 C1177 1.523 . S
H1179 C1154 0.950 . S
H1180 C1156 0.950 . S
H1181 C1157 0.949 . S
H1182 C1159 0.950 . S
H1183 C1161 0.950 . S
C225 C158 1.298 . S
C230 C12 1.325 . S
C255 C222 1.423 . S
C260 C18 1.390 . S
C285 C40 1.448 . S
C290 C130 1.416 . S
C315 C194 1.285 . S
C320 C54 1.286 . S
C345 C68 1.356 . S
C350 C186 1.322 . S
C375 C74 1.433 . S
C380 C166 1.462 . S
C405 C88 1.456 . S
C410 C214 1.456 . S
C435 C102 1.309 . S
C440 C138 1.334 . S
C465 C46 1.456 . S
C470 C116 1.456 . S
C495 C144 1.322 . S
C500 C26 1.356 . S
C525 C172 1.416 . S
C530 C82 1.448 . S
C555 C200 1.298 . S
C560 C110 1.325 . S
C585 C60 1.390 . S
C590 C124 1.423 . S
C615 C152 1.285 . S
C620 C96 1.286 . S
C645 C208 1.462 . S
C650 C32 1.433 . S
C675 C4 1.309 . S
C680 C180 1.334 . S
C705 C5 0.966 . S
C710 C61 0.963 . S
C735 C25 0.969 . S
C740 C81 0.968 . S
C765 C33 0.975 . S
C770 C95 1.032 . S
C795 C109 0.965 . S
C800 C47 0.915 . S
C825 C123 1.052 . S
C830 C179 1.052 . S
C855 C187 0.917 . S
C860 C131 0.921 . S
C885 C151 0.981 . S
C890 C207 0.988 . S
C915 C215 0.981 . S
C920 C159 1.003 . S
C945 C103 0.966 . S
C950 C19 0.963 . S
C975 C39 0.968 . S
C980 C67 0.969 . S
C1005 C53 1.032 . S
C1010 C75 0.975 . S
C1035 C11 0.965 . S
C1040 C89 0.915 . S
C1065 C137 1.052 . S
C1070 C221 1.052 . S
C1095 C173 0.921 . S
C1100 C145 0.917 . S
C1125 C165 0.988 . S
C1130 C193 0.981 . S
C1155 C201 1.003 . S
C1160 C117 0.981 . S
