# Generated by pormake.
# Topology crb, (4)-cn, num edge types: 1
# Building blocks:
#     Node 0, Type 0, BuildingBlock: QUQFOY_clean_sbu_1, # of connection points: 4
#     Node 1, Type 0, BuildingBlock: QUQFOY_clean_sbu_1, # of connection points: 4
#     Node 2, Type 0, BuildingBlock: QUQFOY_clean_sbu_1, # of connection points: 4
#     Node 3, Type 0, BuildingBlock: QUQFOY_clean_sbu_1, # of connection points: 4
#     Node 4, Type 0, BuildingBlock: QUQFOY_clean_sbu_1, # of connection points: 4
#     Node 5, Type 0, BuildingBlock: QUQFOY_clean_sbu_1, # of connection points: 4
#     Node 6, Type 0, BuildingBlock: QUQFOY_clean_sbu_1, # of connection points: 4
#     Node 7, Type 0, BuildingBlock: QUQFOY_clean_sbu_1, # of connection points: 4
#     Edge 8, Type (0, 0), BuildingBlock: MIFKUJ_clean_linker_0, # of connection points: 2
#     Edge 9, Type (0, 0), BuildingBlock: MIFKUJ_clean_linker_0, # of connection points: 2
#     Edge 10, Type (0, 0), BuildingBlock: MIFKUJ_clean_linker_0, # of connection points: 2
#     Edge 11, Type (0, 0), BuildingBlock: MIFKUJ_clean_linker_0, # of connection points: 2
#     Edge 12, Type (0, 0), BuildingBlock: MIFKUJ_clean_linker_0, # of connection points: 2
#     Edge 13, Type (0, 0), BuildingBlock: MIFKUJ_clean_linker_0, # of connection points: 2
#     Edge 14, Type (0, 0), BuildingBlock: MIFKUJ_clean_linker_0, # of connection points: 2
#     Edge 15, Type (0, 0), BuildingBlock: MIFKUJ_clean_linker_0, # of connection points: 2
#     Edge 16, Type (0, 0), BuildingBlock: MIFKUJ_clean_linker_0, # of connection points: 2
#     Edge 17, Type (0, 0), BuildingBlock: MIFKUJ_clean_linker_0, # of connection points: 2
#     Edge 18, Type (0, 0), BuildingBlock: MIFKUJ_clean_linker_0, # of connection points: 2
#     Edge 19, Type (0, 0), BuildingBlock: MIFKUJ_clean_linker_0, # of connection points: 2
#     Edge 20, Type (0, 0), BuildingBlock: MIFKUJ_clean_linker_0, # of connection points: 2
#     Edge 21, Type (0, 0), BuildingBlock: MIFKUJ_clean_linker_0, # of connection points: 2
#     Edge 22, Type (0, 0), BuildingBlock: MIFKUJ_clean_linker_0, # of connection points: 2
#     Edge 23, Type (0, 0), BuildingBlock: MIFKUJ_clean_linker_0, # of connection points: 2
# Relax obj value: 0.155
# Max RMSD: 0.216
# Mean RMSD: 0.216
data_MOF--net-crb--node1-QUQFOY_clean_sbu_1--edge1-MIFKUJ_clean_linker_0
_symmetry_space_group_name_H-M    P1
_symmetry_Int_Tables_number       1
_symmetry_cell_setting            triclinic
loop_
_symmetry_equiv_pos_as_xyz
'x, y, z'
_cell_length_a     52.335532
_cell_length_b     65.204384
_cell_length_c     29.875497
_cell_angle_alpha  89.997769
_cell_angle_beta   90.008803
_cell_angle_gamma 89.998421
loop_
_atom_site_label
_atom_site_type_symbol
_atom_site_fract_x
_atom_site_fract_y
_atom_site_fract_z
_atom_type_partial_charge
O0 O 0.30114 0.31347 0.08303 0.0
Cd1 Cd 0.31453 0.33042 0.13639 0.0
Cd2 Cd 0.30683 0.36166 0.07329 0.0
O3 O 0.2888 0.33852 0.03835 0.0
O4 O 0.3196 0.30878 0.18233 0.0
O5 O 0.29118 0.33356 0.18999 0.0
C6 C 0.30172 0.31713 0.2055 0.0
C7 C 0.28742 0.39355 0.08271 0.0
C8 C 0.29027 0.3195 0.04736 0.0
C9 C 0.3604 0.35411 0.10387 0.0
O10 O 0.34626 0.3622 0.07416 0.0
O11 O 0.35083 0.34244 0.13349 0.0
O12 O 0.29671 0.38798 0.04462 0.0
O13 O 0.28825 0.38055 0.11537 0.0
O14 O 0.69896 0.31707 0.13535 0.0
Cd15 Cd 0.68337 0.33133 0.0799 0.0
Cd16 Cd 0.6847 0.36464 0.14406 0.0
O17 O 0.69959 0.34223 0.18493 0.0
O18 O 0.68071 0.30741 0.03896 0.0
O19 O 0.70513 0.33408 0.024 0.0
C20 C 0.69673 0.31621 0.01264 0.0
C21 C 0.70443 0.39661 0.13929 0.0
C22 C 0.70386 0.32367 0.17441 0.0
C23 C 0.63396 0.35387 0.10449 0.0
O24 O 0.64598 0.36455 0.13311 0.0
O25 O 0.64563 0.34081 0.08041 0.0
O26 O 0.69209 0.39108 0.17463 0.0
O27 O 0.70626 0.38364 0.10672 0.0
O28 O 0.6937 0.69098 0.08504 0.0
Cd29 Cd 0.68029 0.67447 0.13916 0.0
Cd30 Cd 0.68766 0.64311 0.07508 0.0
O31 O 0.70588 0.66603 0.03998 0.0
O32 O 0.67539 0.69719 0.18258 0.0
O33 O 0.7025 0.67187 0.19442 0.0
C34 C 0.69247 0.68891 0.20766 0.0
C35 C 0.70705 0.61127 0.08496 0.0
C36 C 0.70445 0.68501 0.04922 0.0
C37 C 0.63447 0.65034 0.10775 0.0
O38 O 0.6482 0.64274 0.07686 0.0
O39 O 0.64426 0.66186 0.13742 0.0
O40 O 0.6976 0.61666 0.04687 0.0
O41 O 0.70633 0.6244 0.11737 0.0
O42 O 0.30532 0.68888 0.12693 0.0
Cd43 Cd 0.31715 0.6706 0.0742 0.0
Cd44 Cd 0.3082 0.6406 0.13869 0.0
O45 O 0.29062 0.66455 0.17128 0.0
O46 O 0.32267 0.69094 0.02562 0.0
O47 O 0.29271 0.6671 0.02228 0.0
C48 C 0.30397 0.68267 0.00431 0.0
C49 C 0.28827 0.60871 0.13299 0.0
C50 C 0.29356 0.68344 0.16222 0.0
C51 C 0.36181 0.64602 0.1079 0.0
O52 O 0.34756 0.63956 0.13927 0.0
O53 O 0.35261 0.65684 0.07647 0.0
O54 O 0.29731 0.61526 0.1705 0.0
O55 O 0.28967 0.62071 0.09864 0.0
O56 O 0.80031 0.81377 0.58668 0.0
Cd57 Cd 0.81486 0.83046 0.63965 0.0
Cd58 Cd 0.8086 0.86128 0.57401 0.0
O59 O 0.78859 0.83865 0.5411 0.0
O60 O 0.81953 0.80797 0.68376 0.0
O61 O 0.79315 0.83379 0.69537 0.0
C62 C 0.80283 0.81667 0.70892 0.0
C63 C 0.79131 0.89404 0.58172 0.0
C64 C 0.78934 0.81972 0.55105 0.0
C65 C 0.86159 0.8524 0.60505 0.0
O66 O 0.84802 0.85989 0.57381 0.0
O67 O 0.85143 0.84199 0.63625 0.0
O68 O 0.79975 0.88752 0.54375 0.0
O69 O 0.79193 0.88161 0.61543 0.0
O70 O 0.19921 0.81139 0.62943 0.0
Cd71 Cd 0.18344 0.82715 0.57599 0.0
Cd72 Cd 0.18761 0.85834 0.64099 0.0
O73 O 0.20532 0.83615 0.67861 0.0
O74 O 0.18066 0.80421 0.53255 0.0
O75 O 0.20505 0.83121 0.52033 0.0
C76 C 0.19685 0.81351 0.50736 0.0
C77 C 0.20673 0.89002 0.62835 0.0
C78 C 0.20724 0.81744 0.66733 0.0
C79 C 0.13532 0.84884 0.60742 0.0
O80 O 0.14842 0.85774 0.63747 0.0
O81 O 0.14599 0.83729 0.5787 0.0
O82 O 0.19705 0.88541 0.66677 0.0
O83 O 0.20632 0.87624 0.59722 0.0
O84 O 0.20359 0.18509 0.57924 0.0
Cd85 Cd 0.18691 0.17115 0.63396 0.0
Cd86 Cd 0.18985 0.13747 0.56952 0.0
O87 O 0.20596 0.15987 0.53 0.0
O88 O 0.18366 0.19555 0.67341 0.0
O89 O 0.20708 0.16875 0.69176 0.0
C90 C 0.19882 0.18687 0.70142 0.0
C91 C 0.20833 0.10496 0.57304 0.0
C92 C 0.20968 0.17848 0.5407 0.0
C93 C 0.1382 0.14864 0.60609 0.0
O94 O 0.15094 0.138 0.57837 0.0
O95 O 0.14922 0.16173 0.63105 0.0
O96 O 0.19658 0.11123 0.53769 0.0
O97 O 0.21037 0.1175 0.60634 0.0
O98 O 0.80578 0.19078 0.63464 0.0
Cd99 Cd 0.81754 0.17472 0.57891 0.0
Cd100 Cd 0.81147 0.14243 0.64037 0.0
O101 O 0.79355 0.16497 0.67733 0.0
O102 O 0.82083 0.19713 0.53424 0.0
O103 O 0.79286 0.17201 0.52703 0.0
C104 C 0.80256 0.18884 0.51188 0.0
C105 C 0.79291 0.11009 0.63273 0.0
C106 C 0.79526 0.18413 0.67008 0.0
C107 C 0.86424 0.15098 0.60624 0.0
O108 O 0.85089 0.14253 0.6366 0.0
O109 O 0.85389 0.16284 0.57785 0.0
O110 O 0.80306 0.11592 0.66992 0.0
O111 O 0.79238 0.12305 0.59999 0.0
H112 H 0.28179 0.4233 0.01928 0.0
H113 H 0.27308 0.45965 0.03132 0.0
H114 H 0.26342 0.44847 0.1726 0.0
H115 H 0.27246 0.41201 0.16092 0.0
H116 H 0.23475 0.48329 0.0662 0.0
H117 H 0.29336 0.48743 0.22867 0.0
H118 H 0.32779 0.46856 0.26735 0.0
H119 H 0.35651 0.4473 0.14095 0.0
H120 H 0.32248 0.46626 0.10157 0.0
H121 H 0.2764 0.58251 0.20094 0.0
H122 H 0.2666 0.54601 0.19543 0.0
H123 H 0.26984 0.54995 0.05135 0.0
H124 H 0.279 0.58666 0.05666 0.0
H125 H 0.29745 0.51826 0.1646 0.0
H126 H 0.23607 0.51133 0.00322 0.0
H127 H 0.20225 0.53051 0.9638 0.0
H128 H 0.1792 0.55841 0.08754 0.0
H129 H 0.21263 0.5392 0.12782 0.0
C130 C 0.27742 0.42848 0.05286 0.0
C131 C 0.27815 0.4148 0.08925 0.0
C132 C 0.27232 0.44927 0.05963 0.0
C133 C 0.26796 0.45682 0.10291 0.0
C134 C 0.26706 0.443 0.13897 0.0
C135 C 0.27216 0.42216 0.13222 0.0
C136 C 0.26681 0.4793 0.11052 0.0
C137 C 0.24847 0.49101 0.0876 0.0
C138 C 0.28444 0.4893 0.13904 0.0
C139 C 0.30519 0.47804 0.16228 0.0
C140 C 0.30707 0.47876 0.20918 0.0
C141 C 0.32651 0.46805 0.2312 0.0
C142 C 0.34426 0.45667 0.20663 0.0
C143 C 0.34268 0.45605 0.15996 0.0
C144 C 0.32331 0.46675 0.13778 0.0
C145 C 0.27451 0.57571 0.16803 0.0
C146 C 0.27861 0.58745 0.12922 0.0
C147 C 0.26895 0.55481 0.16494 0.0
C148 C 0.26744 0.54517 0.12301 0.0
C149 C 0.27047 0.55706 0.0841 0.0
C150 C 0.27581 0.57805 0.08716 0.0
C151 C 0.26537 0.52245 0.12025 0.0
C152 C 0.28332 0.51065 0.14386 0.0
C153 C 0.24739 0.51246 0.09232 0.0
C154 C 0.22703 0.52394 0.06847 0.0
C155 C 0.22372 0.52149 0.02206 0.0
C156 C 0.20463 0.53238 0.99955 0.0
C157 C 0.18864 0.54571 0.02313 0.0
C158 C 0.19166 0.54814 0.06929 0.0
C159 C 0.21071 0.53727 0.09197 0.0
H160 H 0.17388 0.55414 0.00563 0.0
H161 H 0.35928 0.44838 0.22375 0.0
H162 H 0.3888 0.37402 0.04009 0.0
H163 H 0.43544 0.37632 0.0358 0.0
H164 H 0.44178 0.34411 0.16141 0.0
H165 H 0.39539 0.34145 0.16571 0.0
H166 H 0.47283 0.39261 0.08823 0.0
H167 H 0.4903 0.31037 0.15511 0.0
H168 H 0.46831 0.27691 0.15702 0.0
H169 H 0.42662 0.29276 0.03815 0.0
H170 H 0.44861 0.32618 0.03518 0.0
H171 H 0.60185 0.37759 0.1551 0.0
H172 H 0.5554 0.38006 0.14939 0.0
H173 H 0.55627 0.33841 0.03718 0.0
H174 H 0.60264 0.33552 0.04316 0.0
H175 H 0.52128 0.32724 0.09478 0.0
H176 H 0.54441 0.38987 0.02292 0.0
H177 H 0.56625 0.42315 0.01461 0.0
H178 H 0.52701 0.44621 0.13036 0.0
H179 H 0.50518 0.41295 0.13974 0.0
C180 C 0.40012 0.36758 0.06699 0.0
C181 C 0.38838 0.35733 0.10297 0.0
C182 C 0.42675 0.36896 0.06452 0.0
C183 C 0.44203 0.36009 0.09792 0.0
C184 C 0.43033 0.35072 0.13487 0.0
C185 C 0.40379 0.34926 0.13729 0.0
C186 C 0.4702 0.35973 0.09337 0.0
C187 C 0.48348 0.37834 0.0896 0.0
C188 C 0.48398 0.34107 0.09413 0.0
C189 C 0.47095 0.32085 0.09519 0.0
C190 C 0.47653 0.30667 0.12927 0.0
C191 C 0.46405 0.28772 0.13056 0.0
C192 C 0.44603 0.28274 0.0978 0.0
C193 C 0.44052 0.29666 0.06359 0.0
C194 C 0.45297 0.31562 0.06212 0.0
C195 C 0.5922 0.36906 0.12899 0.0
C196 C 0.60597 0.3563 0.09968 0.0
C197 C 0.56564 0.37058 0.12562 0.0
C198 C 0.55238 0.35955 0.09262 0.0
C199 C 0.56612 0.34705 0.06292 0.0
C200 C 0.59264 0.34543 0.06638 0.0
C201 C 0.52409 0.36016 0.09059 0.0
C202 C 0.51073 0.34154 0.0932 0.0
C203 C 0.51029 0.3788 0.08783 0.0
C204 C 0.52332 0.39885 0.08224 0.0
C205 C 0.54058 0.40198 0.04681 0.0
C206 C 0.55293 0.42086 0.04187 0.0
C207 C 0.54806 0.43677 0.072 0.0
C208 C 0.53078 0.43386 0.10707 0.0
C209 C 0.51839 0.415 0.11218 0.0
H210 H 0.55764 0.45137 0.06812 0.0
H211 H 0.43636 0.26807 0.09889 0.0
H212 H 0.71614 0.41786 0.06305 0.0
H213 H 0.72565 0.45448 0.057 0.0
H214 H 0.72501 0.45962 0.20105 0.0
H215 H 0.71451 0.42326 0.20711 0.0
H216 H 0.69589 0.48721 0.16824 0.0
H217 H 0.78103 0.46567 0.135 0.0
H218 H 0.81479 0.44612 0.09636 0.0
H219 H 0.79329 0.47346 0.97116 0.0
H220 H 0.75916 0.49297 0.00892 0.0
H221 H 0.72202 0.59313 0.16348 0.0
H222 H 0.73102 0.55671 0.17584 0.0
H223 H 0.72159 0.54503 0.03471 0.0
H224 H 0.71286 0.58133 0.022 0.0
H225 H 0.75996 0.52132 0.07119 0.0
H226 H 0.67195 0.53899 0.1035 0.0
H227 H 0.63785 0.55843 0.14156 0.0
H228 H 0.6654 0.53771 0.26919 0.0
H229 H 0.6999 0.51837 0.23185 0.0
C230 C 0.71856 0.42673 0.09341 0.0
C231 C 0.71441 0.41775 0.13553 0.0
C232 C 0.72412 0.44767 0.08995 0.0
C233 C 0.72618 0.45988 0.1286 0.0
C234 C 0.72341 0.4506 0.17074 0.0
C235 C 0.71745 0.42979 0.17416 0.0
C236 C 0.72846 0.48258 0.12517 0.0
C237 C 0.71034 0.49461 0.14782 0.0
C238 C 0.74684 0.49235 0.09762 0.0
C239 C 0.76739 0.48067 0.07478 0.0
C240 C 0.78337 0.4674 0.09917 0.0
C241 C 0.8026 0.45635 0.07743 0.0
C242 C 0.80615 0.45852 0.03132 0.0
C243 C 0.79051 0.47179 0.00687 0.0
C244 C 0.77124 0.48287 0.02844 0.0
C245 C 0.72237 0.58288 0.13496 0.0
C246 C 0.7164 0.59008 0.09185 0.0
C247 C 0.72747 0.56207 0.14209 0.0
C248 C 0.7266 0.54813 0.10626 0.0
C249 C 0.72233 0.55551 0.06283 0.0
C250 C 0.7172 0.57627 0.05568 0.0
C251 C 0.72749 0.52569 0.11435 0.0
C252 C 0.74596 0.51378 0.09231 0.0
C253 C 0.70948 0.51594 0.1425 0.0
C254 C 0.68866 0.52745 0.16493 0.0
C255 C 0.67084 0.53871 0.13969 0.0
C256 C 0.65143 0.54969 0.16113 0.0
C257 C 0.64951 0.54935 0.20778 0.0
C258 C 0.66695 0.53799 0.23307 0.0
C259 C 0.68643 0.52702 0.2118 0.0
H260 H 0.63446 0.55786 0.22431 0.0
H261 H 0.82105 0.44994 0.01456 0.0
H262 H 0.39475 0.64553 0.03726 0.0
H263 H 0.44129 0.64165 0.03966 0.0
H264 H 0.43812 0.63418 0.18293 0.0
H265 H 0.39146 0.63751 0.18077 0.0
H266 H 0.47199 0.66722 0.1445 0.0
H267 H 0.45289 0.59502 0.13506 0.0
H268 H 0.43253 0.56443 0.1022 0.0
H269 H 0.47144 0.57533 0.97794 0.0
H270 H 0.49175 0.60619 0.00986 0.0
H271 H 0.60294 0.65276 0.17995 0.0
H272 H 0.55674 0.64794 0.18177 0.0
H273 H 0.55692 0.63454 0.04027 0.0
H274 H 0.60345 0.63845 0.03872 0.0
H275 H 0.52384 0.61088 0.07951 0.0
H276 H 0.54068 0.68287 0.08238 0.0
H277 H 0.56014 0.71507 0.10907 0.0
H278 H 0.52448 0.70705 0.23731 0.0
H279 H 0.50507 0.67463 0.21156 0.0
C280 C 0.40394 0.64279 0.0692 0.0
C281 C 0.38953 0.64188 0.10886 0.0
C282 C 0.43045 0.6405 0.07046 0.0
C283 C 0.44298 0.63761 0.11144 0.0
C284 C 0.42866 0.63633 0.15101 0.0
C285 C 0.40207 0.63818 0.14968 0.0
C286 C 0.47115 0.63753 0.11316 0.0
C287 C 0.48342 0.65476 0.13109 0.0
C288 C 0.48579 0.62161 0.09396 0.0
C289 C 0.47363 0.60305 0.07472 0.0
C290 C 0.4569 0.59102 0.10058 0.0
C291 C 0.44542 0.5736 0.08216 0.0
C292 C 0.45063 0.56797 0.03797 0.0
C293 C 0.46739 0.57973 0.01214 0.0
C294 C 0.47891 0.59717 0.0304 0.0
C295 C 0.59316 0.64866 0.14926 0.0
C296 C 0.60675 0.64621 0.10906 0.0
C297 C 0.56673 0.64598 0.15031 0.0
C298 C 0.55325 0.64137 0.11094 0.0
C299 C 0.56689 0.63819 0.07104 0.0
C300 C 0.59345 0.64048 0.07015 0.0
C301 C 0.5249 0.64059 0.1112 0.0
C302 C 0.51253 0.6233 0.09335 0.0
C303 C 0.51006 0.6567 0.12961 0.0
C304 C 0.52165 0.67622 0.14519 0.0
C305 C 0.53714 0.68789 0.11638 0.0
C306 C 0.54814 0.70619 0.13132 0.0
C307 C 0.54361 0.71307 0.1749 0.0
C308 C 0.52801 0.70168 0.20359 0.0
C309 C 0.51699 0.68335 0.18883 0.0
H310 H 0.55214 0.72724 0.1864 0.0
H311 H 0.44172 0.55448 0.02377 0.0
H312 H 0.78501 0.91598 0.65909 0.0
H313 H 0.7773 0.95284 0.66592 0.0
H314 H 0.77077 0.95762 0.52228 0.0
H315 H 0.77929 0.92096 0.51524 0.0
H316 H 0.80239 0.98499 0.55098 0.0
H317 H 0.71842 0.96428 0.59538 0.0
H318 H 0.68627 0.9451 0.63879 0.0
H319 H 0.71359 0.9726 0.76029 0.0
H320 H 0.74615 0.99176 0.71768 0.0
H321 H 0.77643 0.09116 0.55601 0.0
H322 H 0.76788 0.05453 0.54552 0.0
H323 H 0.78163 0.0439 0.68597 0.0
H324 H 0.78988 0.0804 0.69683 0.0
H325 H 0.74262 0.01995 0.65481 0.0
H326 H 0.82907 0.03713 0.61187 0.0
H327 H 0.86196 0.05609 0.56961 0.0
H328 H 0.82991 0.03462 0.44585 0.0
H329 H 0.79663 0.01573 0.48742 0.0
C330 C 0.78147 0.92483 0.62905 0.0
C331 C 0.78291 0.91559 0.58662 0.0
C332 C 0.77694 0.94591 0.63298 0.0
C333 C 0.77331 0.95806 0.5946 0.0
C334 C 0.7736 0.94862 0.55237 0.0
C335 C 0.77843 0.92764 0.5484 0.0
C336 C 0.77158 0.98079 0.59804 0.0
C337 C 0.78888 0.9926 0.57298 0.0
C338 C 0.75448 0.99079 0.62762 0.0
C339 C 0.73486 0.97934 0.65334 0.0
C340 C 0.7177 0.96613 0.63139 0.0
C341 C 0.69938 0.95528 0.65585 0.0
C342 C 0.69792 0.9576 0.70228 0.0
C343 C 0.71475 0.97081 0.72433 0.0
C344 C 0.73312 0.98169 0.70003 0.0
C345 C 0.77716 0.08108 0.5848 0.0
C346 C 0.78411 0.08865 0.62715 0.0
C347 C 0.77235 0.06015 0.57873 0.0
C348 C 0.77449 0.04645 0.61486 0.0
C349 C 0.7799 0.05418 0.65762 0.0
C350 C 0.78473 0.07506 0.66371 0.0
C351 C 0.77333 0.02394 0.60768 0.0
C352 C 0.75571 0.01224 0.63225 0.0
C353 C 0.79015 0.01395 0.57772 0.0
C354 C 0.8102 0.02523 0.55271 0.0
C355 C 0.82893 0.03659 0.57563 0.0
C356 C 0.84766 0.0473 0.55181 0.0
C357 C 0.84797 0.04662 0.50507 0.0
C358 C 0.82961 0.03517 0.48205 0.0
C359 C 0.81082 0.02445 0.50572 0.0
H360 H 0.86249 0.05491 0.48668 0.0
H361 H 0.68372 0.94918 0.72115 0.0
H362 H 0.1033 0.84338 0.53626 0.0
H363 H 0.05667 0.8469 0.53526 0.0
H364 H 0.05746 0.8634 0.67498 0.0
H365 H 0.10413 0.86042 0.6761 0.0
H366 H 0.0227 0.82911 0.64507 0.0
H367 H 0.04621 0.89954 0.61392 0.0
H368 H 0.06871 0.92664 0.57199 0.0
H369 H 0.03029 0.90847 0.45133 0.0
H370 H 0.00784 0.88104 0.49245 0.0
H371 H 0.89359 0.85222 0.67671 0.0
H372 H 0.94013 0.85437 0.67632 0.0
H373 H 0.93945 0.85979 0.53229 0.0
H374 H 0.89267 0.85873 0.53282 0.0
H375 H 0.97495 0.8831 0.56309 0.0
H376 H 0.9523 0.81318 0.588 0.0
H377 H 0.9305 0.78404 0.62419 0.0
H378 H 0.96791 0.79795 0.74846 0.0
H379 H 0.98968 0.82736 0.71315 0.0
C380 C 0.09355 0.84788 0.56669 0.0
C381 C 0.10732 0.8516 0.60629 0.0
C382 C 0.06699 0.84994 0.566 0.0
C383 C 0.05379 0.85544 0.60502 0.0
C384 C 0.06743 0.85919 0.64456 0.0
C385 C 0.09404 0.85753 0.64508 0.0
C386 C 0.02563 0.85641 0.60502 0.0
C387 C 0.01217 0.84106 0.62776 0.0
C388 C 0.01214 0.87156 0.58087 0.0
C389 C 0.02556 0.88809 0.55617 0.0
C390 C 0.04275 0.90118 0.57836 0.0
C391 C 0.05545 0.91663 0.55476 0.0
C392 C 0.05099 0.91923 0.509 0.0
C393 C 0.03376 0.90642 0.48677 0.0
C394 C 0.02103 0.89093 0.51021 0.0
C395 C 0.90337 0.85403 0.64499 0.0
C396 C 0.88957 0.85512 0.60475 0.0
C397 C 0.92998 0.85514 0.64477 0.0
C398 C 0.94338 0.85668 0.60417 0.0
C399 C 0.92957 0.85849 0.56402 0.0
C400 C 0.90286 0.85786 0.56433 0.0
C401 C 0.97174 0.85585 0.60367 0.0
C402 C 0.98532 0.87114 0.58061 0.0
C403 C 0.98542 0.84032 0.62669 0.0
C404 C 0.97243 0.82259 0.64803 0.0
C405 C 0.95574 0.81011 0.62312 0.0
C406 C 0.94341 0.79353 0.64347 0.0
C407 C 0.94776 0.78918 0.68862 0.0
C408 C 0.96452 0.80136 0.7135 0.0
C409 C 0.97689 0.81798 0.69333 0.0
H410 H 0.93819 0.77634 0.70431 0.0
H411 H 0.06084 0.93121 0.49078 0.0
H412 H 0.21455 0.07784 0.50459 0.0
H413 H 0.22288 0.0411 0.5101 0.0
H414 H 0.22962 0.04644 0.65354 0.0
H415 H 0.22194 0.08344 0.64814 0.0
H416 H 0.26275 0.01816 0.62153 0.0
H417 H 0.17325 0.03279 0.60618 0.0
H418 H 0.13499 0.04796 0.57118 0.0
H419 H 0.14969 0.01422 0.45047 0.0
H420 H 0.18828 0.99906 0.48458 0.0
H421 H 0.21754 0.91971 0.68974 0.0
H422 H 0.22682 0.95582 0.67537 0.0
H423 H 0.22563 0.9443 0.53324 0.0
H424 H 0.21644 0.90802 0.54737 0.0
H425 H 0.19289 0.97523 0.55955 0.0
H426 H 0.28051 0.95737 0.58124 0.0
H427 H 0.31734 0.9419 0.62005 0.0
H428 H 0.30455 0.98108 0.73336 0.0
H429 H 0.26738 0.99659 0.6955 0.0
C430 C 0.21824 0.07127 0.53727 0.0
C431 C 0.21726 0.08348 0.57602 0.0
C432 C 0.22295 0.05025 0.54036 0.0
C433 C 0.2263 0.04094 0.58231 0.0
C434 C 0.22697 0.05329 0.62083 0.0
C435 C 0.22253 0.07442 0.61771 0.0
C436 C 0.22687 0.01824 0.58623 0.0
C437 C 0.24742 0.00876 0.60826 0.0
C438 C 0.20704 0.00594 0.5683 0.0
C439 C 0.18381 0.01498 0.54775 0.0
C440 C 0.16844 0.02873 0.57205 0.0
C441 C 0.14668 0.03731 0.5524 0.0
C442 C 0.13996 0.0321 0.50858 0.0
C443 C 0.15495 0.01827 0.48437 0.0
C444 C 0.17676 0.00967 0.50385 0.0
C445 C 0.21974 0.92476 0.65542 0.0
C446 C 0.21611 0.91104 0.61966 0.0
C447 C 0.22518 0.9454 0.64728 0.0
C448 C 0.22698 0.95273 0.60325 0.0
C449 C 0.22438 0.93892 0.56748 0.0
C450 C 0.2192 0.9182 0.5756 0.0
C451 C 0.22877 0.9751 0.59481 0.0
C452 C 0.20848 0.98456 0.57219 0.0
C453 C 0.24865 0.98731 0.61274 0.0
C454 C 0.27101 0.97803 0.63564 0.0
C455 C 0.2854 0.96257 0.61459 0.0
C456 C 0.30637 0.95382 0.63639 0.0
C457 C 0.31325 0.96048 0.67918 0.0
C458 C 0.29919 0.97593 0.70022 0.0
C459 C 0.27819 0.98473 0.67858 0.0
H460 H 0.3295 0.95368 0.696 0.0
H461 H 0.1231 0.03875 0.49342 0.0
H462 H 0.89747 0.16389 0.54179 0.0
H463 H 0.94384 0.16055 0.54121 0.0
H464 H 0.94099 0.12804 0.6669 0.0
H465 H 0.89438 0.13097 0.66737 0.0
H466 H 0.97702 0.17616 0.5976 0.0
H467 H 0.9922 0.0951 0.67246 0.0
H468 H 0.97027 0.06162 0.67464 0.0
H469 H 0.93272 0.07536 0.55041 0.0
H470 H 0.95469 0.10878 0.54715 0.0
H471 H 0.1052 0.16697 0.66474 0.0
H472 H 0.05866 0.16457 0.66576 0.0
H473 H 0.06094 0.12282 0.55382 0.0
H474 H 0.10757 0.12481 0.55303 0.0
H475 H 0.02536 0.11109 0.61368 0.0
H476 H 0.04862 0.17307 0.53696 0.0
H477 H 0.07048 0.20632 0.52782 0.0
H478 H 0.03068 0.23017 0.64222 0.0
H479 H 0.00884 0.19695 0.6524 0.0
C480 C 0.90663 0.15586 0.56918 0.0
C481 C 0.89221 0.14775 0.60473 0.0
C482 C 0.93317 0.15401 0.56882 0.0
C483 C 0.94587 0.14402 0.60393 0.0
C484 C 0.93155 0.13559 0.63916 0.0
C485 C 0.90492 0.13734 0.63945 0.0
C486 C 0.97418 0.14333 0.60447 0.0
C487 C 0.98756 0.16191 0.60116 0.0
C488 C 0.98793 0.12474 0.60857 0.0
C489 C 0.9749 0.10454 0.60985 0.0
C490 C 0.97934 0.09094 0.64552 0.0
C491 C 0.96689 0.07198 0.64696 0.0
C492 C 0.95005 0.0664 0.61277 0.0
C493 C 0.94569 0.07973 0.57696 0.0
C494 C 0.95812 0.0987 0.57534 0.0
C495 C 0.09585 0.15716 0.6405 0.0
C496 C 0.11011 0.14625 0.60848 0.0
C497 C 0.06924 0.15582 0.64112 0.0
C498 C 0.05635 0.14375 0.60946 0.0
C499 C 0.07053 0.13225 0.57852 0.0
C500 C 0.09718 0.13349 0.578 0.0
C501 C 0.02808 0.14393 0.60718 0.0
C502 C 0.01474 0.1253 0.61027 0.0
C503 C 0.0143 0.16244 0.60189 0.0
C504 C 0.02728 0.18247 0.59568 0.0
C505 C 0.04467 0.18537 0.56035 0.0
C506 C 0.05703 0.20421 0.55495 0.0
C507 C 0.05202 0.22033 0.58448 0.0
C508 C 0.03457 0.21766 0.6194 0.0
C509 C 0.02218 0.19883 0.62498 0.0
H510 H 0.06161 0.23491 0.58025 0.0
H511 H 0.94041 0.05172 0.61397 0.0
H512 H 0.23563 0.21397 0.55684 0.0
H513 H 0.251 0.2389 0.50207 0.0
H514 H 0.2211 0.20139 0.39506 0.0
H515 H 0.20697 0.1759 0.44968 0.0
H516 H 0.26335 0.21509 0.36975 0.0
H517 H 0.1905 0.24696 0.43552 0.0
H518 H 0.16305 0.25982 0.49645 0.0
H519 H 0.22201 0.3017 0.53689 0.0
H520 H 0.24996 0.28889 0.47654 0.0
H521 H 0.25401 0.31867 0.24278 0.0
H522 H 0.23759 0.29661 0.30278 0.0
H523 H 0.313 0.27123 0.32158 0.0
H524 H 0.32913 0.29251 0.26063 0.0
H525 H 0.24481 0.28926 0.38804 0.0
H526 H 0.31046 0.22092 0.33883 0.0
H527 H 0.33228 0.20749 0.27175 0.0
H528 H 0.27726 0.23737 0.18738 0.0
H529 H 0.25491 0.25073 0.25394 0.0
C530 C 0.23249 0.21101 0.52158 0.0
C531 C 0.22008 0.19302 0.50748 0.0
C532 C 0.24108 0.22535 0.4903 0.0
C533 C 0.23672 0.22231 0.44437 0.0
C534 C 0.22467 0.20415 0.43026 0.0
C535 C 0.21661 0.18957 0.46149 0.0
C536 C 0.245 0.23787 0.41097 0.0
C537 C 0.25924 0.23129 0.37386 0.0
C538 C 0.23919 0.25902 0.41554 0.0
C539 C 0.2224 0.26684 0.45174 0.0
C540 C 0.19767 0.25882 0.45758 0.0
C541 C 0.18202 0.26611 0.49199 0.0
C542 C 0.1908 0.28153 0.52058 0.0
C543 C 0.21524 0.28974 0.51474 0.0
C544 C 0.23099 0.28248 0.48041 0.0
C545 C 0.26711 0.30863 0.26032 0.0
C546 C 0.29272 0.30705 0.24675 0.0
C547 C 0.25773 0.29603 0.29454 0.0
C548 C 0.27393 0.28187 0.31587 0.0
C549 C 0.29998 0.28159 0.30473 0.0
C550 C 0.30921 0.29384 0.27007 0.0
C551 C 0.26346 0.26644 0.34748 0.0
C552 C 0.24886 0.27305 0.38412 0.0
C553 C 0.26805 0.2452 0.34162 0.0
C554 C 0.28118 0.23698 0.30139 0.0
C555 C 0.30296 0.22454 0.30597 0.0
C556 C 0.31543 0.21696 0.26803 0.0
C557 C 0.30621 0.22163 0.22533 0.0
C558 C 0.28444 0.23383 0.22047 0.0
C559 C 0.27187 0.24142 0.25828 0.0
H560 H 0.31591 0.21576 0.19601 0.0
H561 H 0.17866 0.28716 0.54721 0.0
H562 H 0.73527 0.29093 0.16112 0.0
H563 H 0.75081 0.26661 0.21711 0.0
H564 H 0.70849 0.29879 0.31949 0.0
H565 H 0.69449 0.32394 0.264 0.0
H566 H 0.74971 0.28916 0.35323 0.0
H567 H 0.68918 0.25017 0.26952 0.0
H568 H 0.66915 0.23555 0.20194 0.0
H569 H 0.73808 0.2025 0.17239 0.0
H570 H 0.75862 0.21711 0.23953 0.0
H571 H 0.75626 0.18297 0.47064 0.0
H572 H 0.73751 0.2042 0.41121 0.0
H573 H 0.80735 0.23917 0.40318 0.0
H574 H 0.82583 0.21849 0.4629 0.0
H575 H 0.74776 0.2141 0.32596 0.0
H576 H 0.7945 0.28896 0.39403 0.0
H577 H 0.80856 0.3033 0.46641 0.0
H578 H 0.75582 0.2641 0.53571 0.0
H579 H 0.74122 0.24973 0.46376 0.0
C580 C 0.72943 0.29282 0.19566 0.0
C581 C 0.71372 0.30928 0.20834 0.0
C582 C 0.73809 0.27879 0.22761 0.0
C583 C 0.73038 0.28049 0.27255 0.0
C584 C 0.71476 0.29707 0.28514 0.0
C585 C 0.70674 0.31145 0.25344 0.0
C586 C 0.73907 0.26536 0.30667 0.0
C587 C 0.74915 0.27277 0.34713 0.0
C588 C 0.73787 0.24386 0.29952 0.0
C589 C 0.72549 0.23486 0.25938 0.0
C590 C 0.7001 0.23986 0.24848 0.0
C591 C 0.68865 0.23157 0.21027 0.0
C592 C 0.70235 0.21814 0.18284 0.0
C593 C 0.7275 0.21292 0.19365 0.0
C594 C 0.73904 0.22117 0.23182 0.0
C595 C 0.76769 0.195 0.45569 0.0
C596 C 0.79236 0.19927 0.4718 0.0
C597 C 0.75698 0.20711 0.42177 0.0
C598 C 0.77085 0.22355 0.4035 0.0
C599 C 0.79608 0.22688 0.41755 0.0
C600 C 0.80665 0.215 0.4516 0.0
C601 C 0.75871 0.23805 0.37167 0.0
C602 C 0.74809 0.23052 0.33184 0.0
C603 C 0.75843 0.25941 0.38006 0.0
C604 C 0.76695 0.26814 0.42349 0.0
C605 C 0.78584 0.28346 0.4247 0.0
C606 C 0.79391 0.29158 0.46566 0.0
C607 C 0.78314 0.28457 0.50563 0.0
C608 C 0.76422 0.26946 0.50474 0.0
C609 C 0.75606 0.26131 0.46388 0.0
H610 H 0.78942 0.29087 0.5373 0.0
H611 H 0.69346 0.21175 0.15324 0.0
H612 H 0.79494 0.77806 0.5539 0.0
H613 H 0.7772 0.75271 0.50221 0.0
H614 H 0.74008 0.80098 0.42802 0.0
H615 H 0.75785 0.82652 0.47937 0.0
H616 H 0.70855 0.76628 0.44577 0.0
H617 H 0.79326 0.78214 0.38866 0.0
H618 H 0.8401 0.78512 0.39489 0.0
H619 H 0.84547 0.72106 0.42688 0.0
H620 H 0.79859 0.71777 0.42143 0.0
H621 H 0.67972 0.72727 0.23482 0.0
H622 H 0.69487 0.74571 0.30022 0.0
H623 H 0.73885 0.69287 0.34067 0.0
H624 H 0.72433 0.67439 0.2737 0.0
H625 H 0.76664 0.72569 0.34887 0.0
H626 H 0.68346 0.70801 0.39794 0.0
H627 H 0.63668 0.70396 0.39406 0.0
H628 H 0.62779 0.76918 0.38181 0.0
H629 H 0.67454 0.77362 0.38497 0.0
C630 C 0.78291 0.78331 0.52671 0.0
C631 C 0.77789 0.80434 0.52062 0.0
C632 C 0.77285 0.76879 0.4972 0.0
C633 C 0.75747 0.77502 0.46126 0.0
C634 C 0.75192 0.79591 0.45564 0.0
C635 C 0.76218 0.81048 0.48487 0.0
C636 C 0.74766 0.75984 0.42872 0.0
C637 C 0.72117 0.75747 0.42429 0.0
C638 C 0.76424 0.7478 0.40216 0.0
C639 C 0.79241 0.74976 0.40514 0.0
C640 C 0.80441 0.76873 0.39739 0.0
C641 C 0.83097 0.77047 0.40071 0.0
C642 C 0.84575 0.7533 0.41141 0.0
C643 C 0.834 0.73435 0.41868 0.0
C644 C 0.80744 0.73253 0.41545 0.0
C645 C 0.69243 0.71943 0.25775 0.0
C646 C 0.70077 0.69932 0.24914 0.0
C647 C 0.70096 0.72999 0.29542 0.0
C648 C 0.71761 0.72057 0.32596 0.0
C649 C 0.72588 0.7004 0.3177 0.0
C650 C 0.71755 0.68986 0.27952 0.0
C651 C 0.72734 0.73241 0.36488 0.0
C652 C 0.75387 0.73418 0.37067 0.0
C653 C 0.71075 0.74369 0.39317 0.0
C654 C 0.68256 0.74113 0.39143 0.0
C655 C 0.67155 0.72149 0.39412 0.0
C656 C 0.64503 0.71912 0.39209 0.0
C657 C 0.62927 0.7363 0.38762 0.0
C658 C 0.64001 0.75589 0.38527 0.0
C659 C 0.66653 0.75834 0.38725 0.0
H660 H 0.60874 0.73444 0.38605 0.0
H661 H 0.8663 0.75468 0.41397 0.0
H662 H 0.22733 0.82963 0.44091 0.0
H663 H 0.24554 0.81114 0.3765 0.0
H664 H 0.20717 0.75593 0.41871 0.0
H665 H 0.1887 0.77411 0.48205 0.0
H666 H 0.26183 0.7525 0.40348 0.0
H667 H 0.18379 0.77847 0.33511 0.0
H668 H 0.15442 0.80593 0.31116 0.0
H669 H 0.21359 0.8323 0.22993 0.0
H670 H 0.24344 0.80513 0.25394 0.0
H671 H 0.26599 0.67737 0.23872 0.0
H672 H 0.25174 0.70309 0.29238 0.0
H673 H 0.28509 0.7509 0.2115 0.0
H674 H 0.29914 0.72522 0.15697 0.0
H675 H 0.23894 0.76249 0.24376 0.0
H676 H 0.3157 0.7354 0.30403 0.0
H677 H 0.34636 0.70877 0.32744 0.0
H678 H 0.29255 0.68617 0.42406 0.0
H679 H 0.2614 0.71248 0.40077 0.0
C680 C 0.22261 0.81361 0.43609 0.0
C681 C 0.20663 0.80332 0.4666 0.0
C682 C 0.23298 0.80311 0.39937 0.0
C683 C 0.22772 0.78219 0.39314 0.0
C684 C 0.21149 0.77206 0.42312 0.0
C685 C 0.20089 0.78253 0.45923 0.0
C686 C 0.23978 0.7703 0.3567 0.0
C687 C 0.25679 0.75461 0.36854 0.0
C688 C 0.23386 0.77363 0.31113 0.0
C689 C 0.21594 0.78995 0.29681 0.0
C690 C 0.19062 0.79026 0.31254 0.0
C691 C 0.17387 0.80574 0.29886 0.0
C692 C 0.18216 0.8209 0.26918 0.0
C693 C 0.20721 0.82058 0.25301 0.0
C694 C 0.22405 0.80514 0.26663 0.0
C695 C 0.27026 0.69335 0.23214 0.0
C696 C 0.2839 0.6992 0.19369 0.0
C697 C 0.26216 0.70804 0.26297 0.0
C698 C 0.26776 0.72888 0.25632 0.0
C699 C 0.28069 0.73489 0.21736 0.0
C700 C 0.28875 0.72018 0.18632 0.0
C701 C 0.26035 0.74417 0.2907 0.0
C702 C 0.24434 0.76054 0.27856 0.0
C703 C 0.26743 0.74167 0.3361 0.0
C704 C 0.28614 0.72584 0.35041 0.0
C705 C 0.31033 0.72466 0.33005 0.0
C706 C 0.32781 0.70963 0.34333 0.0
C707 C 0.32139 0.69577 0.37715 0.0
C708 C 0.29749 0.69692 0.39784 0.0
C709 C 0.27992 0.71191 0.38465 0.0
H710 H 0.33496 0.68415 0.38739 0.0
H711 H 0.16915 0.83286 0.2586 0.0
H712 H 0.2129 0.82111 0.75788 0.0
H713 H 0.23018 0.79572 0.8098 0.0
H714 H 0.24481 0.75459 0.69951 0.0
H715 H 0.22649 0.77958 0.64769 0.0
H716 H 0.22732 0.7334 0.76454 0.0
H717 H 0.29353 0.78303 0.75181 0.0
H718 H 0.31306 0.81745 0.75216 0.0
H719 H 0.29302 0.82486 0.89059 0.0
H720 H 0.27306 0.79058 0.8909 0.0
H721 H 0.33284 0.70237 0.94256 0.0
H722 H 0.318 0.72173 0.87767 0.0
H723 H 0.2402 0.70451 0.90793 0.0
H724 H 0.2553 0.68411 0.97146 0.0
H725 H 0.29216 0.7537 0.87714 0.0
H726 H 0.20166 0.70913 0.81836 0.0
H727 H 0.18705 0.67334 0.81048 0.0
H728 H 0.26488 0.6529 0.80166 0.0
H729 H 0.27995 0.68858 0.80888 0.0
C730 C 0.21989 0.80668 0.74469 0.0
C731 C 0.21846 0.80238 0.69869 0.0
C732 C 0.22984 0.79219 0.77439 0.0
C733 C 0.2392 0.77333 0.75855 0.0
C734 C 0.23771 0.769 0.71259 0.0
C735 C 0.22732 0.78334 0.68298 0.0
C736 C 0.25048 0.75813 0.78995 0.0
C737 C 0.24157 0.7378 0.78909 0.0
C738 C 0.26958 0.76368 0.82122 0.0
C739 C 0.2816 0.7843 0.82126 0.0
C740 C 0.29313 0.79206 0.78224 0.0
C741 C 0.3043 0.81153 0.78233 0.0
C742 C 0.30423 0.82335 0.82135 0.0
C743 C 0.29304 0.81569 0.86038 0.0
C744 C 0.28182 0.79623 0.86046 0.0
C745 C 0.31263 0.70235 0.93467 0.0
C746 C 0.29518 0.69178 0.96189 0.0
C747 C 0.30413 0.7135 0.89772 0.0
C748 C 0.27795 0.71468 0.88774 0.0
C749 C 0.26054 0.70357 0.91422 0.0
C750 C 0.26915 0.69195 0.95064 0.0
C751 C 0.26887 0.72891 0.85217 0.0
C752 C 0.27809 0.74915 0.8524 0.0
C753 C 0.25082 0.72303 0.81926 0.0
C754 C 0.24192 0.70153 0.81461 0.0
C755 C 0.21565 0.69701 0.81458 0.0
C756 C 0.20729 0.67674 0.81026 0.0
C757 C 0.22502 0.66085 0.80572 0.0
C758 C 0.25116 0.66521 0.80536 0.0
C759 C 0.25962 0.68545 0.80963 0.0
H760 H 0.21851 0.64517 0.8024 0.0
H761 H 0.31289 0.83842 0.82135 0.0
H762 H 0.29417 0.27771 0.05223 0.0
H763 H 0.27737 0.25239 -0.0004 0.0
H764 H 0.24549 0.30095 0.91904 0.0
H765 H 0.26216 0.32644 0.97152 0.0
H766 H 0.21179 0.26846 0.93268 0.0
H767 H 0.30009 0.2787 0.88816 0.0
H768 H 0.34661 0.27934 0.90133 0.0
H769 H 0.34499 0.2157 0.93825 0.0
H770 H 0.29838 0.21477 0.92586 0.0
H771 H 0.18979 0.22677 0.72172 0.0
H772 H 0.20403 0.24588 0.78685 0.0
H773 H 0.24001 0.19144 0.83957 0.0
H774 H 0.22639 0.17218 0.77303 0.0
H775 H 0.27073 0.22296 0.84858 0.0
H776 H 0.18388 0.211 0.88586 0.0
H777 H 0.13724 0.2096 0.87463 0.0
H778 H 0.13528 0.27482 0.85512 0.0
H779 H 0.18196 0.27659 0.8656 0.0
C780 C 0.28353 0.28305 0.02339 0.0
C781 C 0.2796 0.30414 0.01598 0.0
C782 C 0.274 0.26853 0.99332 0.0
C783 C 0.26037 0.27482 0.95531 0.0
C784 C 0.25598 0.29581 0.94823 0.0
C785 C 0.26561 0.31035 0.97815 0.0
C786 C 0.25095 0.2596 0.92243 0.0
C787 C 0.22464 0.25859 0.91399 0.0
C788 C 0.26769 0.24619 0.89948 0.0
C789 C 0.29573 0.24673 0.90656 0.0
C790 C 0.30963 0.26489 0.89942 0.0
C791 C 0.33602 0.2653 0.90668 0.0
C792 C 0.34874 0.24759 0.92074 0.0
C793 C 0.33511 0.22942 0.92743 0.0
C794 C 0.30871 0.22894 0.92027 0.0
C795 C 0.20057 0.21874 0.74724 0.0
C796 C 0.20686 0.19791 0.7423 0.0
C797 C 0.20858 0.2297 0.78471 0.0
C798 C 0.22264 0.22002 0.81865 0.0
C799 C 0.22902 0.19919 0.81392 0.0
C800 C 0.2212 0.1882 0.77599 0.0
C801 C 0.2315 0.23212 0.85782 0.0
C802 C 0.25773 0.23256 0.8676 0.0
C803 C 0.21462 0.24485 0.88241 0.0
C804 C 0.18648 0.2439 0.87626 0.0
C805 C 0.17354 0.22503 0.87888 0.0
C806 C 0.14708 0.22417 0.87269 0.0
C807 C 0.13331 0.2421 0.8641 0.0
C808 C 0.14597 0.26094 0.86178 0.0
C809 C 0.17242 0.26188 0.86791 0.0
H810 H 0.11283 0.2414 0.8593 0.0
H811 H 0.36916 0.24793 0.92636 0.0
H812 H 0.68023 0.27949 0.98091 0.0
H813 H 0.69765 0.25967 0.919 0.0
H814 H 0.75124 0.30816 0.89041 0.0
H815 H 0.73377 0.32834 0.95283 0.0
H816 H 0.72836 0.28923 0.81228 0.0
H817 H 0.7728 0.27019 0.947 0.0
H818 H 0.77565 0.25957 0.02607 0.0
H819 H 0.73402 0.2045 0.99619 0.0
H820 H 0.73059 0.21495 0.91704 0.0
H821 H 0.80675 0.22481 0.6775 0.0
H822 H 0.79075 0.24918 0.73281 0.0
H823 H 0.74438 0.20155 0.79173 0.0
H824 H 0.76116 0.17689 0.73758 0.0
H825 H 0.76622 0.22217 0.85454 0.0
H826 H 0.71969 0.24098 0.72171 0.0
H827 H 0.71527 0.25117 0.64257 0.0
H828 H 0.75865 0.30584 0.66786 0.0
H829 H 0.76362 0.29585 0.74706 0.0
C830 C 0.69557 0.28611 0.96131 0.0
C831 C 0.70582 0.30542 0.97211 0.0
C832 C 0.70548 0.27473 0.9259 0.0
C833 C 0.72593 0.28235 0.90061 0.0
C834 C 0.73548 0.30203 0.90973 0.0
C835 C 0.72554 0.31349 0.9454 0.0
C836 C 0.7381 0.26903 0.86663 0.0
C837 C 0.73703 0.2747 0.8214 0.0
C838 C 0.74888 0.24992 0.87869 0.0
C839 C 0.75128 0.24344 0.92615 0.0
C840 C 0.76411 0.25588 0.95735 0.0
C841 C 0.76585 0.24989 0.00217 0.0
C842 C 0.75498 0.23139 0.01617 0.0
C843 C 0.74242 0.21883 0.98532 0.0
C844 C 0.7406 0.22477 0.94046 0.0
C845 C 0.79309 0.21954 0.70217 0.0
C846 C 0.78517 0.19893 0.70315 0.0
C847 C 0.78384 0.23353 0.73364 0.0
C848 C 0.76602 0.22732 0.76604 0.0
C849 C 0.7581 0.20673 0.76704 0.0
C850 C 0.76767 0.19264 0.73605 0.0
C851 C 0.75611 0.24207 0.79972 0.0
C852 C 0.75768 0.2367 0.84512 0.0
C853 C 0.7456 0.26135 0.78765 0.0
C854 C 0.74224 0.26756 0.74022 0.0
C855 C 0.72841 0.25512 0.71034 0.0
C856 C 0.72579 0.26086 0.66548 0.0
C857 C 0.73674 0.27911 0.65017 0.0
C858 C 0.75022 0.2917 0.67975 0.0
C859 C 0.75292 0.28601 0.72464 0.0
H860 H 0.73474 0.2835 0.6154 0.0
H861 H 0.75632 0.22678 0.05089 0.0
H862 H 0.69522 0.72623 0.04798 0.0
H863 H 0.71256 0.75171 0.99615 0.0
H864 H 0.75543 0.70441 0.92887 0.0
H865 H 0.73796 0.6787 0.98025 0.0
H866 H 0.7838 0.74124 0.94982 0.0
H867 H 0.70399 0.71981 0.88144 0.0
H868 H 0.65743 0.714 0.88068 0.0
H869 H 0.64449 0.77784 0.90774 0.0
H870 H 0.69102 0.78397 0.90928 0.0
H871 H 0.81822 0.77965 0.74062 0.0
H872 H 0.80227 0.76122 0.80542 0.0
H873 H 0.75256 0.81196 0.83737 0.0
H874 H 0.76805 0.83044 0.77109 0.0
H875 H 0.72715 0.77746 0.84256 0.0
H876 H 0.80574 0.80048 0.90279 0.0
H877 H 0.85203 0.80733 0.90578 0.0
H878 H 0.86747 0.74274 0.89845 0.0
H879 H 0.82128 0.7355 0.89476 0.0
C880 C 0.70838 0.72122 0.02222 0.0
C881 C 0.71518 0.70042 0.01812 0.0
C882 C 0.71821 0.73581 0.99264 0.0
C883 C 0.73519 0.72989 0.95874 0.0
C884 C 0.74236 0.70923 0.95494 0.0
C885 C 0.73227 0.69457 0.98414 0.0
C886 C 0.7452 0.74518 0.92667 0.0
C887 C 0.77152 0.74908 0.92607 0.0
C888 C 0.72892 0.75597 0.89712 0.0
C889 C 0.70097 0.7523 0.89601 0.0
C890 C 0.69122 0.73257 0.88764 0.0
C891 C 0.66483 0.72923 0.88698 0.0
C892 C 0.64801 0.74553 0.8943 0.0
C893 C 0.65754 0.76522 0.90216 0.0
C894 C 0.68392 0.76864 0.9029 0.0
C895 C 0.80409 0.78706 0.76159 0.0
C896 C 0.79441 0.80654 0.75069 0.0
C897 C 0.7951 0.77652 0.79893 0.0
C898 C 0.77651 0.78531 0.82678 0.0
C899 C 0.76701 0.80492 0.81646 0.0
C900 C 0.77592 0.81548 0.7787 0.0
C901 C 0.76601 0.77327 0.86475 0.0
C902 C 0.73953 0.76993 0.86663 0.0
C903 C 0.78214 0.76321 0.89591 0.0
C904 C 0.81 0.76746 0.89821 0.0
C905 C 0.819 0.78774 0.90149 0.0
C906 C 0.84523 0.79169 0.90336 0.0
C907 C 0.86268 0.77548 0.90223 0.0
C908 C 0.85393 0.75528 0.89932 0.0
C909 C 0.82772 0.75124 0.8974 0.0
H910 H 0.88298 0.77858 0.90369 0.0
H911 H 0.62759 0.74291 0.89377 0.0
loop_
_geom_bond_atom_site_label_1
_geom_bond_atom_site_label_2
_geom_bond_distance
_geom_bond_site_symmetry_2
_ccdc_geom_bond_type
O0 Cd1 2.223 . S
O0 C8 1.315 . S
Cd1 O0 2.223 . S
Cd1 O4 2.297 . S
Cd1 O5 2.439 . S
Cd1 O11 2.240 . S
Cd2 O3 2.240 . S
Cd2 O10 2.223 . S
Cd2 O12 2.297 . S
Cd2 O13 2.439 . S
O3 Cd2 2.240 . S
O3 C8 1.279 . S
O4 Cd1 2.297 . S
O4 C6 1.247 . S
O5 Cd1 2.439 . S
O5 C6 1.208 . S
C6 O4 1.247 . S
C6 O5 1.208 . S
C7 O12 1.247 . S
C7 O13 1.208 . S
C8 O0 1.315 . S
C8 O3 1.279 . S
C9 O10 1.315 . S
C9 O11 1.279 . S
O10 Cd2 2.223 . S
O10 C9 1.315 . S
O11 Cd1 2.240 . S
O11 C9 1.279 . S
O12 Cd2 2.297 . S
O12 C7 1.247 . S
O13 Cd2 2.439 . S
O13 C7 1.208 . S
O14 Cd15 2.223 . S
O14 C22 1.315 . S
Cd15 O14 2.223 . S
Cd15 O18 2.297 1_554 S
Cd15 O19 2.439 1_554 S
Cd15 O25 2.240 . S
Cd16 O17 2.240 . S
Cd16 O24 2.223 . S
Cd16 O26 2.297 . S
Cd16 O27 2.439 . S
O17 Cd16 2.240 . S
O17 C22 1.279 . S
O18 Cd15 2.297 1_556 S
O18 C20 1.247 . S
O19 Cd15 2.439 1_556 S
O19 C20 1.208 . S
C20 O18 1.247 . S
C20 O19 1.208 . S
C21 O26 1.247 . S
C21 O27 1.208 . S
C22 O14 1.315 . S
C22 O17 1.279 . S
C23 O24 1.315 . S
C23 O25 1.279 . S
O24 Cd16 2.223 . S
O24 C23 1.315 . S
O25 Cd15 2.240 . S
O25 C23 1.279 . S
O26 Cd16 2.297 . S
O26 C21 1.247 . S
O27 Cd16 2.439 . S
O27 C21 1.208 . S
O28 Cd29 2.223 . S
O28 C36 1.315 . S
Cd29 O28 2.223 . S
Cd29 O32 2.297 . S
Cd29 O33 2.439 . S
Cd29 O39 2.240 . S
Cd30 O31 2.240 . S
Cd30 O38 2.223 . S
Cd30 O40 2.297 . S
Cd30 O41 2.439 . S
O31 Cd30 2.240 . S
O31 C36 1.279 . S
O32 Cd29 2.297 . S
O32 C34 1.247 . S
O33 Cd29 2.439 . S
O33 C34 1.208 . S
C34 O32 1.247 . S
C34 O33 1.208 . S
C35 O40 1.247 . S
C35 O41 1.208 . S
C36 O28 1.315 . S
C36 O31 1.279 . S
C37 O38 1.315 . S
C37 O39 1.279 . S
O38 Cd30 2.223 . S
O38 C37 1.315 . S
O39 Cd29 2.240 . S
O39 C37 1.279 . S
O40 Cd30 2.297 . S
O40 C35 1.247 . S
O41 Cd30 2.439 . S
O41 C35 1.208 . S
O42 Cd43 2.223 . S
O42 C50 1.315 . S
Cd43 O42 2.223 . S
Cd43 O46 2.297 1_554 S
Cd43 O47 2.439 1_554 S
Cd43 O53 2.240 . S
Cd44 O45 2.240 . S
Cd44 O52 2.223 . S
Cd44 O54 2.297 . S
Cd44 O55 2.439 . S
O45 Cd44 2.240 . S
O45 C50 1.279 . S
O46 Cd43 2.297 1_556 S
O46 C48 1.247 . S
O47 Cd43 2.439 1_556 S
O47 C48 1.208 . S
C48 O46 1.247 . S
C48 O47 1.208 . S
C49 O54 1.247 . S
C49 O55 1.208 . S
C50 O42 1.315 . S
C50 O45 1.279 . S
C51 O52 1.315 . S
C51 O53 1.279 . S
O52 Cd44 2.223 . S
O52 C51 1.315 . S
O53 Cd43 2.240 . S
O53 C51 1.279 . S
O54 Cd44 2.297 . S
O54 C49 1.247 . S
O55 Cd44 2.439 . S
O55 C49 1.208 . S
O56 Cd57 2.223 . S
O56 C64 1.315 . S
Cd57 O56 2.223 . S
Cd57 O60 2.297 . S
Cd57 O61 2.439 . S
Cd57 O67 2.240 . S
Cd58 O59 2.240 . S
Cd58 O66 2.223 . S
Cd58 O68 2.297 . S
Cd58 O69 2.439 . S
O59 Cd58 2.240 . S
O59 C64 1.279 . S
O60 Cd57 2.297 . S
O60 C62 1.247 . S
O61 Cd57 2.439 . S
O61 C62 1.208 . S
C62 O60 1.247 . S
C62 O61 1.208 . S
C63 O68 1.247 . S
C63 O69 1.208 . S
C64 O56 1.315 . S
C64 O59 1.279 . S
C65 O66 1.315 . S
C65 O67 1.279 . S
O66 Cd58 2.223 . S
O66 C65 1.315 . S
O67 Cd57 2.240 . S
O67 C65 1.279 . S
O68 Cd58 2.297 . S
O68 C63 1.247 . S
O69 Cd58 2.439 . S
O69 C63 1.208 . S
O70 Cd71 2.223 . S
O70 C78 1.315 . S
Cd71 O70 2.223 . S
Cd71 O74 2.297 . S
Cd71 O75 2.439 . S
Cd71 O81 2.240 . S
Cd72 O73 2.240 . S
Cd72 O80 2.223 . S
Cd72 O82 2.297 . S
Cd72 O83 2.439 . S
O73 Cd72 2.240 . S
O73 C78 1.279 . S
O74 Cd71 2.297 . S
O74 C76 1.247 . S
O75 Cd71 2.439 . S
O75 C76 1.208 . S
C76 O74 1.247 . S
C76 O75 1.208 . S
C77 O82 1.247 . S
C77 O83 1.208 . S
C78 O70 1.315 . S
C78 O73 1.279 . S
C79 O80 1.315 . S
C79 O81 1.279 . S
O80 Cd72 2.223 . S
O80 C79 1.315 . S
O81 Cd71 2.240 . S
O81 C79 1.279 . S
O82 Cd72 2.297 . S
O82 C77 1.247 . S
O83 Cd72 2.439 . S
O83 C77 1.208 . S
O84 Cd85 2.223 . S
O84 C92 1.315 . S
Cd85 O84 2.223 . S
Cd85 O88 2.297 . S
Cd85 O89 2.439 . S
Cd85 O95 2.240 . S
Cd86 O87 2.240 . S
Cd86 O94 2.223 . S
Cd86 O96 2.297 . S
Cd86 O97 2.439 . S
O87 Cd86 2.240 . S
O87 C92 1.279 . S
O88 Cd85 2.297 . S
O88 C90 1.247 . S
O89 Cd85 2.439 . S
O89 C90 1.208 . S
C90 O88 1.247 . S
C90 O89 1.208 . S
C91 O96 1.247 . S
C91 O97 1.208 . S
C92 O84 1.315 . S
C92 O87 1.279 . S
C93 O94 1.315 . S
C93 O95 1.279 . S
O94 Cd86 2.223 . S
O94 C93 1.315 . S
O95 Cd85 2.240 . S
O95 C93 1.279 . S
O96 Cd86 2.297 . S
O96 C91 1.247 . S
O97 Cd86 2.439 . S
O97 C91 1.208 . S
O98 Cd99 2.223 . S
O98 C106 1.315 . S
Cd99 O98 2.223 . S
Cd99 O102 2.297 . S
Cd99 O103 2.439 . S
Cd99 O109 2.240 . S
Cd100 O101 2.240 . S
Cd100 O108 2.223 . S
Cd100 O110 2.297 . S
Cd100 O111 2.439 . S
O101 Cd100 2.240 . S
O101 C106 1.279 . S
O102 Cd99 2.297 . S
O102 C104 1.247 . S
O103 Cd99 2.439 . S
O103 C104 1.208 . S
C104 O102 1.247 . S
C104 O103 1.208 . S
C105 O110 1.247 . S
C105 O111 1.208 . S
C106 O98 1.315 . S
C106 O101 1.279 . S
C107 O108 1.315 . S
C107 O109 1.279 . S
O108 Cd100 2.223 . S
O108 C107 1.315 . S
O109 Cd99 2.240 . S
O109 C107 1.279 . S
O110 Cd100 2.297 . S
O110 C105 1.247 . S
O111 Cd100 2.439 . S
O111 C105 1.208 . S
H112 C130 0.951 . S
H113 C132 0.951 . S
H114 C134 0.950 . S
H115 C135 0.950 . S
H116 C137 0.950 . S
H117 C140 0.950 . S
H118 C141 0.950 . S
H119 C143 0.950 . S
H120 C144 0.950 . S
H121 C145 0.951 . S
H122 C147 0.951 . S
H123 C149 0.950 . S
H124 C150 0.950 . S
H125 C152 0.950 . S
H126 C155 0.949 1_556 S
H127 C156 0.950 . S
H128 C158 0.950 . S
H129 C159 0.950 . S
C130 H112 0.951 . S
C130 C131 1.366 . S
C130 C132 1.388 . S
C131 C130 1.366 . S
C131 C135 1.385 . S
C132 H113 0.951 . S
C132 C130 1.388 . S
C132 C133 1.366 . S
C133 C132 1.366 . S
C133 C134 1.414 . S
C133 C136 1.499 . S
C134 H114 0.950 . S
C134 C133 1.414 . S
C134 C135 1.374 . S
C135 H115 0.950 . S
C135 C131 1.385 . S
C135 C134 1.374 . S
C136 C133 1.499 . S
C136 C137 1.373 . S
C136 C138 1.389 . S
C137 H116 0.950 . S
C137 C136 1.373 . S
C137 C153 1.377 . S
C138 C136 1.389 . S
C138 C139 1.524 . S
C138 C152 1.377 . S
C139 C138 1.524 . S
C139 C140 1.397 . S
C139 C144 1.363 . S
C140 H117 0.950 . S
C140 C139 1.397 . S
C140 C141 1.334 . S
C141 H118 0.950 . S
C141 C140 1.334 . S
C141 C142 1.287 . S
C142 C141 1.287 . S
C142 C143 1.524 . S
C142 H161 0.913 . S
C143 H119 0.950 . S
C143 C142 1.524 . S
C143 C144 1.415 . S
C144 H120 0.950 . S
C144 C139 1.363 . S
C144 C143 1.415 . S
C145 H121 0.951 . S
C145 C146 1.366 . S
C145 C147 1.388 . S
C146 C145 1.366 . S
C146 C150 1.385 . S
C147 H122 0.951 . S
C147 C145 1.388 . S
C147 C148 1.366 . S
C148 C147 1.366 . S
C148 C149 1.414 . S
C148 C151 1.499 . S
C149 H123 0.950 . S
C149 C148 1.414 . S
C149 C150 1.374 . S
C150 H124 0.950 . S
C150 C146 1.385 . S
C150 C149 1.374 . S
C151 C148 1.499 . S
C151 C152 1.373 . S
C151 C153 1.389 . S
C152 H125 0.950 . S
C152 C138 1.377 . S
C152 C151 1.373 . S
C153 C137 1.377 . S
C153 C151 1.389 . S
C153 C154 1.524 . S
C154 C153 1.524 . S
C154 C155 1.397 . S
C154 C159 1.363 . S
C155 H126 0.949 1_554 S
C155 C154 1.397 . S
C155 C156 1.334 1_554 S
C156 H127 0.950 . S
C156 C155 1.334 1_556 S
C156 C157 1.287 . S
C157 C156 1.287 . S
C157 C158 1.524 1_556 S
C157 H160 0.999 . S
C158 H128 0.950 . S
C158 C157 1.524 1_554 S
C158 C159 1.415 . S
C159 H129 0.950 . S
C159 C154 1.363 . S
C159 C158 1.415 . S
H160 C157 0.999 . S
H161 C142 0.913 . S
H162 C180 0.951 . S
H163 C182 0.951 . S
H164 C184 0.950 . S
H165 C185 0.950 . S
H166 C187 0.950 . S
H167 C190 0.950 . S
H168 C191 0.950 . S
H169 C193 0.950 . S
H170 C194 0.950 . S
H171 C195 0.951 . S
H172 C197 0.951 . S
H173 C199 0.950 . S
H174 C200 0.950 . S
H175 C202 0.950 . S
H176 C205 0.950 . S
H177 C206 0.950 . S
H178 C208 0.950 . S
H179 C209 0.950 . S
C180 H162 0.951 . S
C180 C181 1.366 . S
C180 C182 1.388 . S
C181 C180 1.366 . S
C181 C185 1.385 . S
C182 H163 0.951 . S
C182 C180 1.388 . S
C182 C183 1.366 . S
C183 C182 1.366 . S
C183 C184 1.414 . S
C183 C186 1.499 . S
C184 H164 0.950 . S
C184 C183 1.414 . S
C184 C185 1.374 . S
C185 H165 0.950 . S
C185 C181 1.385 . S
C185 C184 1.374 . S
C186 C183 1.499 . S
C186 C187 1.373 . S
C186 C188 1.389 . S
C187 H166 0.950 . S
C187 C186 1.373 . S
C187 C203 1.377 . S
C188 C186 1.389 . S
C188 C189 1.524 . S
C188 C202 1.377 . S
C189 C188 1.524 . S
C189 C190 1.397 . S
C189 C194 1.363 . S
C190 H167 0.950 . S
C190 C189 1.397 . S
C190 C191 1.334 . S
C191 H168 0.950 . S
C191 C190 1.334 . S
C191 C192 1.287 . S
C192 C191 1.287 . S
C192 C193 1.524 . S
C192 H211 0.913 . S
C193 H169 0.950 . S
C193 C192 1.524 . S
C193 C194 1.415 . S
C194 H170 0.950 . S
C194 C189 1.363 . S
C194 C193 1.415 . S
C195 H171 0.951 . S
C195 C196 1.366 . S
C195 C197 1.388 . S
C196 C195 1.366 . S
C196 C200 1.385 . S
C197 H172 0.951 . S
C197 C195 1.388 . S
C197 C198 1.366 . S
C198 C197 1.366 . S
C198 C199 1.414 . S
C198 C201 1.499 . S
C199 H173 0.950 . S
C199 C198 1.414 . S
C199 C200 1.374 . S
C200 H174 0.950 . S
C200 C196 1.385 . S
C200 C199 1.374 . S
C201 C198 1.499 . S
C201 C202 1.373 . S
C201 C203 1.389 . S
C202 H175 0.950 . S
C202 C188 1.377 . S
C202 C201 1.373 . S
C203 C187 1.377 . S
C203 C201 1.389 . S
C203 C204 1.524 . S
C204 C203 1.524 . S
C204 C205 1.397 . S
C204 C209 1.363 . S
C205 H176 0.950 . S
C205 C204 1.397 . S
C205 C206 1.334 . S
C206 H177 0.950 . S
C206 C205 1.334 . S
C206 C207 1.287 . S
C207 C206 1.287 . S
C207 C208 1.524 . S
C207 H210 0.999 . S
C208 H178 0.950 . S
C208 C207 1.524 . S
C208 C209 1.415 . S
C209 H179 0.950 . S
C209 C204 1.363 . S
C209 C208 1.415 . S
H210 C207 0.999 . S
H211 C192 0.913 . S
H212 C230 0.951 . S
H213 C232 0.951 . S
H214 C234 0.950 . S
H215 C235 0.950 . S
H216 C237 0.950 . S
H217 C240 0.950 . S
H218 C241 0.950 . S
H219 C243 0.950 . S
H220 C244 0.950 . S
H221 C245 0.951 . S
H222 C247 0.951 . S
H223 C249 0.950 . S
H224 C250 0.950 . S
H225 C252 0.950 . S
H226 C255 0.950 . S
H227 C256 0.950 . S
H228 C258 0.950 . S
H229 C259 0.950 . S
C230 H212 0.951 . S
C230 C231 1.366 . S
C230 C232 1.388 . S
C231 C230 1.366 . S
C231 C235 1.385 . S
C232 H213 0.951 . S
C232 C230 1.388 . S
C232 C233 1.366 . S
C233 C232 1.366 . S
C233 C234 1.414 . S
C233 C236 1.499 . S
C234 H214 0.950 . S
C234 C233 1.414 . S
C234 C235 1.374 . S
C235 H215 0.950 . S
C235 C231 1.385 . S
C235 C234 1.374 . S
C236 C233 1.499 . S
C236 C237 1.373 . S
C236 C238 1.389 . S
C237 H216 0.950 . S
C237 C236 1.373 . S
C237 C253 1.377 . S
C238 C236 1.389 . S
C238 C239 1.524 . S
C238 C252 1.377 . S
C239 C238 1.524 . S
C239 C240 1.397 . S
C239 C244 1.363 1_554 S
C240 H217 0.950 . S
C240 C239 1.397 . S
C240 C241 1.334 1_554 S
C241 H218 0.950 . S
C241 C240 1.334 1_556 S
C241 C242 1.287 . S
C242 C241 1.287 . S
C242 C243 1.524 . S
C242 H261 0.913 . S
C243 H219 0.950 . S
C243 C242 1.524 . S
C243 C244 1.415 . S
C244 H220 0.950 . S
C244 C239 1.363 1_556 S
C244 C243 1.415 . S
C245 H221 0.951 . S
C245 C246 1.366 . S
C245 C247 1.388 . S
C246 C245 1.366 . S
C246 C250 1.385 . S
C247 H222 0.951 . S
C247 C245 1.388 . S
C247 C248 1.366 . S
C248 C247 1.366 . S
C248 C249 1.414 . S
C248 C251 1.499 . S
C249 H223 0.950 . S
C249 C248 1.414 . S
C249 C250 1.374 . S
C250 H224 0.950 . S
C250 C246 1.385 . S
C250 C249 1.374 . S
C251 C248 1.499 . S
C251 C252 1.373 . S
C251 C253 1.389 . S
C252 H225 0.950 . S
C252 C238 1.377 . S
C252 C251 1.373 . S
C253 C237 1.377 . S
C253 C251 1.389 . S
C253 C254 1.524 . S
C254 C253 1.524 . S
C254 C255 1.397 . S
C254 C259 1.363 . S
C255 H226 0.950 . S
C255 C254 1.397 . S
C255 C256 1.334 . S
C256 H227 0.950 . S
C256 C255 1.334 . S
C256 C257 1.287 . S
C257 C256 1.287 . S
C257 C258 1.524 . S
C257 H260 0.999 . S
C258 H228 0.950 . S
C258 C257 1.524 . S
C258 C259 1.415 . S
C259 H229 0.950 . S
C259 C254 1.363 . S
C259 C258 1.415 . S
H260 C257 0.999 . S
H261 C242 0.913 . S
H262 C280 0.951 . S
H263 C282 0.951 . S
H264 C284 0.950 . S
H265 C285 0.950 . S
H266 C287 0.950 . S
H267 C290 0.950 . S
H268 C291 0.950 . S
H269 C293 0.950 . S
H270 C294 0.950 . S
H271 C295 0.951 . S
H272 C297 0.951 . S
H273 C299 0.950 . S
H274 C300 0.950 . S
H275 C302 0.950 . S
H276 C305 0.950 . S
H277 C306 0.950 . S
H278 C308 0.950 . S
H279 C309 0.950 . S
C280 H262 0.951 . S
C280 C281 1.366 . S
C280 C282 1.388 . S
C281 C280 1.366 . S
C281 C285 1.385 . S
C282 H263 0.951 . S
C282 C280 1.388 . S
C282 C283 1.366 . S
C283 C282 1.366 . S
C283 C284 1.414 . S
C283 C286 1.499 . S
C284 H264 0.950 . S
C284 C283 1.414 . S
C284 C285 1.374 . S
C285 H265 0.950 . S
C285 C281 1.385 . S
C285 C284 1.374 . S
C286 C283 1.499 . S
C286 C287 1.373 . S
C286 C288 1.389 . S
C287 H266 0.950 . S
C287 C286 1.373 . S
C287 C303 1.377 . S
C288 C286 1.389 . S
C288 C289 1.524 . S
C288 C302 1.377 . S
C289 C288 1.524 . S
C289 C290 1.397 . S
C289 C294 1.363 . S
C290 H267 0.950 . S
C290 C289 1.397 . S
C290 C291 1.334 . S
C291 H268 0.950 . S
C291 C290 1.334 . S
C291 C292 1.287 . S
C292 C291 1.287 . S
C292 C293 1.524 . S
C292 H311 0.913 . S
C293 H269 0.950 . S
C293 C292 1.524 . S
C293 C294 1.415 . S
C294 H270 0.950 . S
C294 C289 1.363 . S
C294 C293 1.415 . S
C295 H271 0.951 . S
C295 C296 1.366 . S
C295 C297 1.388 . S
C296 C295 1.366 . S
C296 C300 1.385 . S
C297 H272 0.951 . S
C297 C295 1.388 . S
C297 C298 1.366 . S
C298 C297 1.366 . S
C298 C299 1.414 . S
C298 C301 1.499 . S
C299 H273 0.950 . S
C299 C298 1.414 . S
C299 C300 1.374 . S
C300 H274 0.950 . S
C300 C296 1.385 . S
C300 C299 1.374 . S
C301 C298 1.499 . S
C301 C302 1.373 . S
C301 C303 1.389 . S
C302 H275 0.950 . S
C302 C288 1.377 . S
C302 C301 1.373 . S
C303 C287 1.377 . S
C303 C301 1.389 . S
C303 C304 1.524 . S
C304 C303 1.524 . S
C304 C305 1.397 . S
C304 C309 1.363 . S
C305 H276 0.950 . S
C305 C304 1.397 . S
C305 C306 1.334 . S
C306 H277 0.950 . S
C306 C305 1.334 . S
C306 C307 1.287 . S
C307 C306 1.287 . S
C307 C308 1.524 . S
C307 H310 0.999 . S
C308 H278 0.950 . S
C308 C307 1.524 . S
C308 C309 1.415 . S
C309 H279 0.950 . S
C309 C304 1.363 . S
C309 C308 1.415 . S
H310 C307 0.999 . S
H311 C292 0.913 . S
H312 C330 0.951 . S
H313 C332 0.951 . S
H314 C334 0.950 . S
H315 C335 0.950 . S
H316 C337 0.950 . S
H317 C340 0.950 . S
H318 C341 0.950 . S
H319 C343 0.950 . S
H320 C344 0.950 1_545 S
H321 C345 0.951 . S
H322 C347 0.951 . S
H323 C349 0.950 . S
H324 C350 0.950 . S
H325 C352 0.950 . S
H326 C355 0.950 . S
H327 C356 0.950 . S
H328 C358 0.950 . S
H329 C359 0.950 1_565 S
C330 H312 0.951 . S
C330 C331 1.366 . S
C330 C332 1.388 . S
C331 C330 1.366 . S
C331 C335 1.385 . S
C332 H313 0.951 . S
C332 C330 1.388 . S
C332 C333 1.366 . S
C333 C332 1.366 . S
C333 C334 1.414 . S
C333 C336 1.499 . S
C334 H314 0.950 . S
C334 C333 1.414 . S
C334 C335 1.374 . S
C335 H315 0.950 . S
C335 C331 1.385 . S
C335 C334 1.374 . S
C336 C333 1.499 . S
C336 C337 1.373 . S
C336 C338 1.389 . S
C337 H316 0.950 . S
C337 C336 1.373 . S
C337 C353 1.377 1_565 S
C338 C336 1.389 . S
C338 C339 1.524 . S
C338 C352 1.377 1_565 S
C339 C338 1.524 . S
C339 C340 1.397 . S
C339 C344 1.363 . S
C340 H317 0.950 . S
C340 C339 1.397 . S
C340 C341 1.334 . S
C341 H318 0.950 . S
C341 C340 1.334 . S
C341 C342 1.287 . S
C342 C341 1.287 . S
C342 C343 1.524 . S
C342 H361 0.913 . S
C343 H319 0.950 . S
C343 C342 1.524 . S
C343 C344 1.415 . S
C344 H320 0.950 1_565 S
C344 C339 1.363 . S
C344 C343 1.415 . S
C345 H321 0.951 . S
C345 C346 1.366 . S
C345 C347 1.388 . S
C346 C345 1.366 . S
C346 C350 1.385 . S
C347 H322 0.951 . S
C347 C345 1.388 . S
C347 C348 1.366 . S
C348 C347 1.366 . S
C348 C349 1.414 . S
C348 C351 1.499 . S
C349 H323 0.950 . S
C349 C348 1.414 . S
C349 C350 1.374 . S
C350 H324 0.950 . S
C350 C346 1.385 . S
C350 C349 1.374 . S
C351 C348 1.499 . S
C351 C352 1.373 . S
C351 C353 1.389 . S
C352 H325 0.950 . S
C352 C338 1.377 1_545 S
C352 C351 1.373 . S
C353 C337 1.377 1_545 S
C353 C351 1.389 . S
C353 C354 1.524 . S
C354 C353 1.524 . S
C354 C355 1.397 . S
C354 C359 1.363 . S
C355 H326 0.950 . S
C355 C354 1.397 . S
C355 C356 1.334 . S
C356 H327 0.950 . S
C356 C355 1.334 . S
C356 C357 1.287 . S
C357 C356 1.287 . S
C357 C358 1.524 . S
C357 H360 0.999 . S
C358 H328 0.950 . S
C358 C357 1.524 . S
C358 C359 1.415 . S
C359 H329 0.950 1_545 S
C359 C354 1.363 . S
C359 C358 1.415 . S
H360 C357 0.999 . S
H361 C342 0.913 . S
H362 C380 0.951 . S
H363 C382 0.951 . S
H364 C384 0.950 . S
H365 C385 0.950 . S
H366 C387 0.950 . S
H367 C390 0.950 . S
H368 C391 0.950 . S
H369 C393 0.950 . S
H370 C394 0.950 . S
H371 C395 0.951 . S
H372 C397 0.951 . S
H373 C399 0.950 . S
H374 C400 0.950 . S
H375 C402 0.950 . S
H376 C405 0.950 . S
H377 C406 0.950 . S
H378 C408 0.950 . S
H379 C409 0.950 . S
C380 H362 0.951 . S
C380 C381 1.366 . S
C380 C382 1.388 . S
C381 C380 1.366 . S
C381 C385 1.385 . S
C382 H363 0.951 . S
C382 C380 1.388 . S
C382 C383 1.366 . S
C383 C382 1.366 . S
C383 C384 1.414 . S
C383 C386 1.499 . S
C384 H364 0.950 . S
C384 C383 1.414 . S
C384 C385 1.374 . S
C385 H365 0.950 . S
C385 C381 1.385 . S
C385 C384 1.374 . S
C386 C383 1.499 . S
C386 C387 1.373 . S
C386 C388 1.389 . S
C387 H366 0.950 . S
C387 C386 1.373 . S
C387 C403 1.377 1_455 S
C388 C386 1.389 . S
C388 C389 1.524 . S
C388 C402 1.377 1_455 S
C389 C388 1.524 . S
C389 C390 1.397 . S
C389 C394 1.363 . S
C390 H367 0.950 . S
C390 C389 1.397 . S
C390 C391 1.334 . S
C391 H368 0.950 . S
C391 C390 1.334 . S
C391 C392 1.287 . S
C392 C391 1.287 . S
C392 C393 1.524 . S
C392 H411 0.913 . S
C393 H369 0.950 . S
C393 C392 1.524 . S
C393 C394 1.415 . S
C394 H370 0.950 . S
C394 C389 1.363 . S
C394 C393 1.415 . S
C395 H371 0.951 . S
C395 C396 1.366 . S
C395 C397 1.388 . S
C396 C395 1.366 . S
C396 C400 1.385 . S
C397 H372 0.951 . S
C397 C395 1.388 . S
C397 C398 1.366 . S
C398 C397 1.366 . S
C398 C399 1.414 . S
C398 C401 1.499 . S
C399 H373 0.950 . S
C399 C398 1.414 . S
C399 C400 1.374 . S
C400 H374 0.950 . S
C400 C396 1.385 . S
C400 C399 1.374 . S
C401 C398 1.499 . S
C401 C402 1.373 . S
C401 C403 1.389 . S
C402 H375 0.950 . S
C402 C388 1.377 1_655 S
C402 C401 1.373 . S
C403 C387 1.377 1_655 S
C403 C401 1.389 . S
C403 C404 1.524 . S
C404 C403 1.524 . S
C404 C405 1.397 . S
C404 C409 1.363 . S
C405 H376 0.950 . S
C405 C404 1.397 . S
C405 C406 1.334 . S
C406 H377 0.950 . S
C406 C405 1.334 . S
C406 C407 1.287 . S
C407 C406 1.287 . S
C407 C408 1.524 . S
C407 H410 0.999 . S
C408 H378 0.950 . S
C408 C407 1.524 . S
C408 C409 1.415 . S
C409 H379 0.950 . S
C409 C404 1.363 . S
C409 C408 1.415 . S
H410 C407 0.999 . S
H411 C392 0.913 . S
H412 C430 0.951 . S
H413 C432 0.951 . S
H414 C434 0.950 . S
H415 C435 0.950 . S
H416 C437 0.950 . S
H417 C440 0.950 . S
H418 C441 0.950 . S
H419 C443 0.950 . S
H420 C444 0.950 . S
H421 C445 0.951 . S
H422 C447 0.951 . S
H423 C449 0.950 . S
H424 C450 0.950 . S
H425 C452 0.950 . S
H426 C455 0.950 . S
H427 C456 0.950 . S
H428 C458 0.950 . S
H429 C459 0.950 . S
C430 H412 0.951 . S
C430 C431 1.366 . S
C430 C432 1.388 . S
C431 C430 1.366 . S
C431 C435 1.385 . S
C432 H413 0.951 . S
C432 C430 1.388 . S
C432 C433 1.366 . S
C433 C432 1.366 . S
C433 C434 1.414 . S
C433 C436 1.499 . S
C434 H414 0.950 . S
C434 C433 1.414 . S
C434 C435 1.374 . S
C435 H415 0.950 . S
C435 C431 1.385 . S
C435 C434 1.374 . S
C436 C433 1.499 . S
C436 C437 1.373 . S
C436 C438 1.389 . S
C437 H416 0.950 . S
C437 C436 1.373 . S
C437 C453 1.377 1_545 S
C438 C436 1.389 . S
C438 C439 1.524 . S
C438 C452 1.377 1_545 S
C439 C438 1.524 . S
C439 C440 1.397 . S
C439 C444 1.363 . S
C440 H417 0.950 . S
C440 C439 1.397 . S
C440 C441 1.334 . S
C441 H418 0.950 . S
C441 C440 1.334 . S
C441 C442 1.287 . S
C442 C441 1.287 . S
C442 C443 1.524 . S
C442 H461 0.913 . S
C443 H419 0.950 . S
C443 C442 1.524 . S
C443 C444 1.415 . S
C444 H420 0.950 . S
C444 C439 1.363 . S
C444 C443 1.415 . S
C445 H421 0.951 . S
C445 C446 1.366 . S
C445 C447 1.388 . S
C446 C445 1.366 . S
C446 C450 1.385 . S
C447 H422 0.951 . S
C447 C445 1.388 . S
C447 C448 1.366 . S
C448 C447 1.366 . S
C448 C449 1.414 . S
C448 C451 1.499 . S
C449 H423 0.950 . S
C449 C448 1.414 . S
C449 C450 1.374 . S
C450 H424 0.950 . S
C450 C446 1.385 . S
C450 C449 1.374 . S
C451 C448 1.499 . S
C451 C452 1.373 . S
C451 C453 1.389 . S
C452 H425 0.950 . S
C452 C438 1.377 1_565 S
C452 C451 1.373 . S
C453 C437 1.377 1_565 S
C453 C451 1.389 . S
C453 C454 1.524 . S
C454 C453 1.524 . S
C454 C455 1.397 . S
C454 C459 1.363 . S
C455 H426 0.950 . S
C455 C454 1.397 . S
C455 C456 1.334 . S
C456 H427 0.950 . S
C456 C455 1.334 . S
C456 C457 1.287 . S
C457 C456 1.287 . S
C457 C458 1.524 . S
C457 H460 0.999 . S
C458 H428 0.950 . S
C458 C457 1.524 . S
C458 C459 1.415 . S
C459 H429 0.950 . S
C459 C454 1.363 . S
C459 C458 1.415 . S
H460 C457 0.999 . S
H461 C442 0.913 . S
H462 C480 0.951 . S
H463 C482 0.951 . S
H464 C484 0.950 . S
H465 C485 0.950 . S
H466 C487 0.950 . S
H467 C490 0.950 . S
H468 C491 0.950 . S
H469 C493 0.950 . S
H470 C494 0.950 . S
H471 C495 0.951 . S
H472 C497 0.951 . S
H473 C499 0.950 . S
H474 C500 0.950 . S
H475 C502 0.950 . S
H476 C505 0.950 . S
H477 C506 0.950 . S
H478 C508 0.950 . S
H479 C509 0.950 . S
C480 H462 0.951 . S
C480 C481 1.366 . S
C480 C482 1.388 . S
C481 C480 1.366 . S
C481 C485 1.385 . S
C482 H463 0.951 . S
C482 C480 1.388 . S
C482 C483 1.366 . S
C483 C482 1.366 . S
C483 C484 1.414 . S
C483 C486 1.499 . S
C484 H464 0.950 . S
C484 C483 1.414 . S
C484 C485 1.374 . S
C485 H465 0.950 . S
C485 C481 1.385 . S
C485 C484 1.374 . S
C486 C483 1.499 . S
C486 C487 1.373 . S
C486 C488 1.389 . S
C487 H466 0.950 . S
C487 C486 1.373 . S
C487 C503 1.377 1_655 S
C488 C486 1.389 . S
C488 C489 1.524 . S
C488 C502 1.377 1_655 S
C489 C488 1.524 . S
C489 C490 1.397 . S
C489 C494 1.363 . S
C490 H467 0.950 . S
C490 C489 1.397 . S
C490 C491 1.334 . S
C491 H468 0.950 . S
C491 C490 1.334 . S
C491 C492 1.287 . S
C492 C491 1.287 . S
C492 C493 1.524 . S
C492 H511 0.913 . S
C493 H469 0.950 . S
C493 C492 1.524 . S
C493 C494 1.415 . S
C494 H470 0.950 . S
C494 C489 1.363 . S
C494 C493 1.415 . S
C495 H471 0.951 . S
C495 C496 1.366 . S
C495 C497 1.388 . S
C496 C495 1.366 . S
C496 C500 1.385 . S
C497 H472 0.951 . S
C497 C495 1.388 . S
C497 C498 1.366 . S
C498 C497 1.366 . S
C498 C499 1.414 . S
C498 C501 1.499 . S
C499 H473 0.950 . S
C499 C498 1.414 . S
C499 C500 1.374 . S
C500 H474 0.950 . S
C500 C496 1.385 . S
C500 C499 1.374 . S
C501 C498 1.499 . S
C501 C502 1.373 . S
C501 C503 1.389 . S
C502 H475 0.950 . S
C502 C488 1.377 1_455 S
C502 C501 1.373 . S
C503 C487 1.377 1_455 S
C503 C501 1.389 . S
C503 C504 1.524 . S
C504 C503 1.524 . S
C504 C505 1.397 . S
C504 C509 1.363 . S
C505 H476 0.950 . S
C505 C504 1.397 . S
C505 C506 1.334 . S
C506 H477 0.950 . S
C506 C505 1.334 . S
C506 C507 1.287 . S
C507 C506 1.287 . S
C507 C508 1.524 . S
C507 H510 0.999 . S
C508 H478 0.950 . S
C508 C507 1.524 . S
C508 C509 1.415 . S
C509 H479 0.950 . S
C509 C504 1.363 . S
C509 C508 1.415 . S
H510 C507 0.999 . S
H511 C492 0.913 . S
H512 C530 0.951 . S
H513 C532 0.951 . S
H514 C534 0.950 . S
H515 C535 0.950 . S
H516 C537 0.950 . S
H517 C540 0.950 . S
H518 C541 0.950 . S
H519 C543 0.950 . S
H520 C544 0.950 . S
H521 C545 0.951 . S
H522 C547 0.951 . S
H523 C549 0.950 . S
H524 C550 0.950 . S
H525 C552 0.950 . S
H526 C555 0.950 . S
H527 C556 0.950 . S
H528 C558 0.950 . S
H529 C559 0.950 . S
C530 H512 0.951 . S
C530 C531 1.366 . S
C530 C532 1.388 . S
C531 C530 1.366 . S
C531 C535 1.385 . S
C532 H513 0.951 . S
C532 C530 1.388 . S
C532 C533 1.366 . S
C533 C532 1.366 . S
C533 C534 1.414 . S
C533 C536 1.499 . S
C534 H514 0.950 . S
C534 C533 1.414 . S
C534 C535 1.374 . S
C535 H515 0.950 . S
C535 C531 1.385 . S
C535 C534 1.374 . S
C536 C533 1.499 . S
C536 C537 1.373 . S
C536 C538 1.389 . S
C537 H516 0.950 . S
C537 C536 1.373 . S
C537 C553 1.377 . S
C538 C536 1.389 . S
C538 C539 1.524 . S
C538 C552 1.377 . S
C539 C538 1.524 . S
C539 C540 1.397 . S
C539 C544 1.363 . S
C540 H517 0.950 . S
C540 C539 1.397 . S
C540 C541 1.334 . S
C541 H518 0.950 . S
C541 C540 1.334 . S
C541 C542 1.287 . S
C542 C541 1.287 . S
C542 C543 1.524 . S
C542 H561 0.913 . S
C543 H519 0.950 . S
C543 C542 1.524 . S
C543 C544 1.415 . S
C544 H520 0.950 . S
C544 C539 1.363 . S
C544 C543 1.415 . S
C545 H521 0.951 . S
C545 C546 1.366 . S
C545 C547 1.388 . S
C546 C545 1.366 . S
C546 C550 1.385 . S
C547 H522 0.951 . S
C547 C545 1.388 . S
C547 C548 1.366 . S
C548 C547 1.366 . S
C548 C549 1.414 . S
C548 C551 1.499 . S
C549 H523 0.950 . S
C549 C548 1.414 . S
C549 C550 1.374 . S
C550 H524 0.950 . S
C550 C546 1.385 . S
C550 C549 1.374 . S
C551 C548 1.499 . S
C551 C552 1.373 . S
C551 C553 1.389 . S
C552 H525 0.950 . S
C552 C538 1.377 . S
C552 C551 1.373 . S
C553 C537 1.377 . S
C553 C551 1.389 . S
C553 C554 1.524 . S
C554 C553 1.524 . S
C554 C555 1.397 . S
C554 C559 1.363 . S
C555 H526 0.950 . S
C555 C554 1.397 . S
C555 C556 1.334 . S
C556 H527 0.950 . S
C556 C555 1.334 . S
C556 C557 1.287 . S
C557 C556 1.287 . S
C557 C558 1.524 . S
C557 H560 0.999 . S
C558 H528 0.950 . S
C558 C557 1.524 . S
C558 C559 1.415 . S
C559 H529 0.950 . S
C559 C554 1.363 . S
C559 C558 1.415 . S
H560 C557 0.999 . S
H561 C542 0.913 . S
H562 C580 0.951 . S
H563 C582 0.951 . S
H564 C584 0.950 . S
H565 C585 0.950 . S
H566 C587 0.950 . S
H567 C590 0.950 . S
H568 C591 0.950 . S
H569 C593 0.950 . S
H570 C594 0.950 . S
H571 C595 0.951 . S
H572 C597 0.951 . S
H573 C599 0.950 . S
H574 C600 0.950 . S
H575 C602 0.950 . S
H576 C605 0.950 . S
H577 C606 0.950 . S
H578 C608 0.950 . S
H579 C609 0.950 . S
C580 H562 0.951 . S
C580 C581 1.366 . S
C580 C582 1.388 . S
C581 C580 1.366 . S
C581 C585 1.385 . S
C582 H563 0.951 . S
C582 C580 1.388 . S
C582 C583 1.366 . S
C583 C582 1.366 . S
C583 C584 1.414 . S
C583 C586 1.499 . S
C584 H564 0.950 . S
C584 C583 1.414 . S
C584 C585 1.374 . S
C585 H565 0.950 . S
C585 C581 1.385 . S
C585 C584 1.374 . S
C586 C583 1.499 . S
C586 C587 1.373 . S
C586 C588 1.389 . S
C587 H566 0.950 . S
C587 C586 1.373 . S
C587 C603 1.377 . S
C588 C586 1.389 . S
C588 C589 1.524 . S
C588 C602 1.377 . S
C589 C588 1.524 . S
C589 C590 1.397 . S
C589 C594 1.363 . S
C590 H567 0.950 . S
C590 C589 1.397 . S
C590 C591 1.334 . S
C591 H568 0.950 . S
C591 C590 1.334 . S
C591 C592 1.287 . S
C592 C591 1.287 . S
C592 C593 1.524 . S
C592 H611 0.913 . S
C593 H569 0.950 . S
C593 C592 1.524 . S
C593 C594 1.415 . S
C594 H570 0.950 . S
C594 C589 1.363 . S
C594 C593 1.415 . S
C595 H571 0.951 . S
C595 C596 1.366 . S
C595 C597 1.388 . S
C596 C595 1.366 . S
C596 C600 1.385 . S
C597 H572 0.951 . S
C597 C595 1.388 . S
C597 C598 1.366 . S
C598 C597 1.366 . S
C598 C599 1.414 . S
C598 C601 1.499 . S
C599 H573 0.950 . S
C599 C598 1.414 . S
C599 C600 1.374 . S
C600 H574 0.950 . S
C600 C596 1.385 . S
C600 C599 1.374 . S
C601 C598 1.499 . S
C601 C602 1.373 . S
C601 C603 1.389 . S
C602 H575 0.950 . S
C602 C588 1.377 . S
C602 C601 1.373 . S
C603 C587 1.377 . S
C603 C601 1.389 . S
C603 C604 1.524 . S
C604 C603 1.524 . S
C604 C605 1.397 . S
C604 C609 1.363 . S
C605 H576 0.950 . S
C605 C604 1.397 . S
C605 C606 1.334 . S
C606 H577 0.950 . S
C606 C605 1.334 . S
C606 C607 1.287 . S
C607 C606 1.287 . S
C607 C608 1.524 . S
C607 H610 0.999 . S
C608 H578 0.950 . S
C608 C607 1.524 . S
C608 C609 1.415 . S
C609 H579 0.950 . S
C609 C604 1.363 . S
C609 C608 1.415 . S
H610 C607 0.999 . S
H611 C592 0.913 . S
H612 C630 0.951 . S
H613 C632 0.951 . S
H614 C634 0.950 . S
H615 C635 0.950 . S
H616 C637 0.950 . S
H617 C640 0.950 . S
H618 C641 0.950 . S
H619 C643 0.950 . S
H620 C644 0.950 . S
H621 C645 0.951 . S
H622 C647 0.951 . S
H623 C649 0.950 . S
H624 C650 0.950 . S
H625 C652 0.950 . S
H626 C655 0.950 . S
H627 C656 0.950 . S
H628 C658 0.950 . S
H629 C659 0.950 . S
C630 H612 0.951 . S
C630 C631 1.366 . S
C630 C632 1.388 . S
C631 C630 1.366 . S
C631 C635 1.385 . S
C632 H613 0.951 . S
C632 C630 1.388 . S
C632 C633 1.366 . S
C633 C632 1.366 . S
C633 C634 1.414 . S
C633 C636 1.499 . S
C634 H614 0.950 . S
C634 C633 1.414 . S
C634 C635 1.374 . S
C635 H615 0.950 . S
C635 C631 1.385 . S
C635 C634 1.374 . S
C636 C633 1.499 . S
C636 C637 1.373 . S
C636 C638 1.389 . S
C637 H616 0.950 . S
C637 C636 1.373 . S
C637 C653 1.377 . S
C638 C636 1.389 . S
C638 C639 1.524 . S
C638 C652 1.377 . S
C639 C638 1.524 . S
C639 C640 1.397 . S
C639 C644 1.363 . S
C640 H617 0.950 . S
C640 C639 1.397 . S
C640 C641 1.334 . S
C641 H618 0.950 . S
C641 C640 1.334 . S
C641 C642 1.287 . S
C642 C641 1.287 . S
C642 C643 1.524 . S
C642 H661 0.913 . S
C643 H619 0.950 . S
C643 C642 1.524 . S
C643 C644 1.415 . S
C644 H620 0.950 . S
C644 C639 1.363 . S
C644 C643 1.415 . S
C645 H621 0.951 . S
C645 C646 1.366 . S
C645 C647 1.388 . S
C646 C645 1.366 . S
C646 C650 1.385 . S
C647 H622 0.951 . S
C647 C645 1.388 . S
C647 C648 1.366 . S
C648 C647 1.366 . S
C648 C649 1.414 . S
C648 C651 1.499 . S
C649 H623 0.950 . S
C649 C648 1.414 . S
C649 C650 1.374 . S
C650 H624 0.950 . S
C650 C646 1.385 . S
C650 C649 1.374 . S
C651 C648 1.499 . S
C651 C652 1.373 . S
C651 C653 1.389 . S
C652 H625 0.950 . S
C652 C638 1.377 . S
C652 C651 1.373 . S
C653 C637 1.377 . S
C653 C651 1.389 . S
C653 C654 1.524 . S
C654 C653 1.524 . S
C654 C655 1.397 . S
C654 C659 1.363 . S
C655 H626 0.950 . S
C655 C654 1.397 . S
C655 C656 1.334 . S
C656 H627 0.950 . S
C656 C655 1.334 . S
C656 C657 1.287 . S
C657 C656 1.287 . S
C657 C658 1.524 . S
C657 H660 0.999 . S
C658 H628 0.950 . S
C658 C657 1.524 . S
C658 C659 1.415 . S
C659 H629 0.950 . S
C659 C654 1.363 . S
C659 C658 1.415 . S
H660 C657 0.999 . S
H661 C642 0.913 . S
H662 C680 0.951 . S
H663 C682 0.951 . S
H664 C684 0.950 . S
H665 C685 0.950 . S
H666 C687 0.950 . S
H667 C690 0.950 . S
H668 C691 0.950 . S
H669 C693 0.950 . S
H670 C694 0.950 . S
H671 C695 0.951 . S
H672 C697 0.951 . S
H673 C699 0.950 . S
H674 C700 0.950 . S
H675 C702 0.950 . S
H676 C705 0.950 . S
H677 C706 0.950 . S
H678 C708 0.950 . S
H679 C709 0.950 . S
C680 H662 0.951 . S
C680 C681 1.366 . S
C680 C682 1.388 . S
C681 C680 1.366 . S
C681 C685 1.385 . S
C682 H663 0.951 . S
C682 C680 1.388 . S
C682 C683 1.366 . S
C683 C682 1.366 . S
C683 C684 1.414 . S
C683 C686 1.499 . S
C684 H664 0.950 . S
C684 C683 1.414 . S
C684 C685 1.374 . S
C685 H665 0.950 . S
C685 C681 1.385 . S
C685 C684 1.374 . S
C686 C683 1.499 . S
C686 C687 1.373 . S
C686 C688 1.389 . S
C687 H666 0.950 . S
C687 C686 1.373 . S
C687 C703 1.377 . S
C688 C686 1.389 . S
C688 C689 1.524 . S
C688 C702 1.377 . S
C689 C688 1.524 . S
C689 C690 1.397 . S
C689 C694 1.363 . S
C690 H667 0.950 . S
C690 C689 1.397 . S
C690 C691 1.334 . S
C691 H668 0.950 . S
C691 C690 1.334 . S
C691 C692 1.287 . S
C692 C691 1.287 . S
C692 C693 1.524 . S
C692 H711 0.913 . S
C693 H669 0.950 . S
C693 C692 1.524 . S
C693 C694 1.415 . S
C694 H670 0.950 . S
C694 C689 1.363 . S
C694 C693 1.415 . S
C695 H671 0.951 . S
C695 C696 1.366 . S
C695 C697 1.388 . S
C696 C695 1.366 . S
C696 C700 1.385 . S
C697 H672 0.951 . S
C697 C695 1.388 . S
C697 C698 1.366 . S
C698 C697 1.366 . S
C698 C699 1.414 . S
C698 C701 1.499 . S
C699 H673 0.950 . S
C699 C698 1.414 . S
C699 C700 1.374 . S
C700 H674 0.950 . S
C700 C696 1.385 . S
C700 C699 1.374 . S
C701 C698 1.499 . S
C701 C702 1.373 . S
C701 C703 1.389 . S
C702 H675 0.950 . S
C702 C688 1.377 . S
C702 C701 1.373 . S
C703 C687 1.377 . S
C703 C701 1.389 . S
C703 C704 1.524 . S
C704 C703 1.524 . S
C704 C705 1.397 . S
C704 C709 1.363 . S
C705 H676 0.950 . S
C705 C704 1.397 . S
C705 C706 1.334 . S
C706 H677 0.950 . S
C706 C705 1.334 . S
C706 C707 1.287 . S
C707 C706 1.287 . S
C707 C708 1.524 . S
C707 H710 0.999 . S
C708 H678 0.950 . S
C708 C707 1.524 . S
C708 C709 1.415 . S
C709 H679 0.950 . S
C709 C704 1.363 . S
C709 C708 1.415 . S
H710 C707 0.999 . S
H711 C692 0.913 . S
H712 C730 0.951 . S
H713 C732 0.951 . S
H714 C734 0.950 . S
H715 C735 0.950 . S
H716 C737 0.950 . S
H717 C740 0.950 . S
H718 C741 0.950 . S
H719 C743 0.950 . S
H720 C744 0.950 . S
H721 C745 0.951 . S
H722 C747 0.951 . S
H723 C749 0.950 . S
H724 C750 0.950 . S
H725 C752 0.950 . S
H726 C755 0.950 . S
H727 C756 0.950 . S
H728 C758 0.950 . S
H729 C759 0.950 . S
C730 H712 0.951 . S
C730 C731 1.366 . S
C730 C732 1.388 . S
C731 C730 1.366 . S
C731 C735 1.385 . S
C732 H713 0.951 . S
C732 C730 1.388 . S
C732 C733 1.366 . S
C733 C732 1.366 . S
C733 C734 1.414 . S
C733 C736 1.499 . S
C734 H714 0.950 . S
C734 C733 1.414 . S
C734 C735 1.374 . S
C735 H715 0.950 . S
C735 C731 1.385 . S
C735 C734 1.374 . S
C736 C733 1.499 . S
C736 C737 1.373 . S
C736 C738 1.389 . S
C737 H716 0.950 . S
C737 C736 1.373 . S
C737 C753 1.377 . S
C738 C736 1.389 . S
C738 C739 1.524 . S
C738 C752 1.377 . S
C739 C738 1.524 . S
C739 C740 1.397 . S
C739 C744 1.363 . S
C740 H717 0.950 . S
C740 C739 1.397 . S
C740 C741 1.334 . S
C741 H718 0.950 . S
C741 C740 1.334 . S
C741 C742 1.287 . S
C742 C741 1.287 . S
C742 C743 1.524 . S
C742 H761 0.913 . S
C743 H719 0.950 . S
C743 C742 1.524 . S
C743 C744 1.415 . S
C744 H720 0.950 . S
C744 C739 1.363 . S
C744 C743 1.415 . S
C745 H721 0.951 . S
C745 C746 1.366 . S
C745 C747 1.388 . S
C746 C745 1.366 . S
C746 C750 1.385 . S
C747 H722 0.951 . S
C747 C745 1.388 . S
C747 C748 1.366 . S
C748 C747 1.366 . S
C748 C749 1.414 . S
C748 C751 1.499 . S
C749 H723 0.950 . S
C749 C748 1.414 . S
C749 C750 1.374 . S
C750 H724 0.950 . S
C750 C746 1.385 . S
C750 C749 1.374 . S
C751 C748 1.499 . S
C751 C752 1.373 . S
C751 C753 1.389 . S
C752 H725 0.950 . S
C752 C738 1.377 . S
C752 C751 1.373 . S
C753 C737 1.377 . S
C753 C751 1.389 . S
C753 C754 1.524 . S
C754 C753 1.524 . S
C754 C755 1.397 . S
C754 C759 1.363 . S
C755 H726 0.950 . S
C755 C754 1.397 . S
C755 C756 1.334 . S
C756 H727 0.950 . S
C756 C755 1.334 . S
C756 C757 1.287 . S
C757 C756 1.287 . S
C757 C758 1.524 . S
C757 H760 0.999 . S
C758 H728 0.950 . S
C758 C757 1.524 . S
C758 C759 1.415 . S
C759 H729 0.950 . S
C759 C754 1.363 . S
C759 C758 1.415 . S
H760 C757 0.999 . S
H761 C742 0.913 . S
H762 C780 0.951 . S
H763 C782 0.951 . S
H764 C784 0.950 . S
H765 C785 0.950 . S
H766 C787 0.950 . S
H767 C790 0.950 . S
H768 C791 0.950 . S
H769 C793 0.950 . S
H770 C794 0.950 . S
H771 C795 0.951 . S
H772 C797 0.951 . S
H773 C799 0.950 . S
H774 C800 0.950 . S
H775 C802 0.950 . S
H776 C805 0.950 . S
H777 C806 0.950 . S
H778 C808 0.950 . S
H779 C809 0.950 . S
C780 H762 0.951 . S
C780 C781 1.366 . S
C780 C782 1.388 . S
C781 C780 1.366 . S
C781 C785 1.385 . S
C782 H763 0.951 . S
C782 C780 1.388 . S
C782 C783 1.366 1_554 S
C783 C782 1.366 1_556 S
C783 C784 1.414 . S
C783 C786 1.499 . S
C784 H764 0.950 . S
C784 C783 1.414 . S
C784 C785 1.374 1_556 S
C785 H765 0.950 . S
C785 C781 1.385 . S
C785 C784 1.374 1_554 S
C786 C783 1.499 . S
C786 C787 1.373 . S
C786 C788 1.389 . S
C787 H766 0.950 . S
C787 C786 1.373 . S
C787 C803 1.377 . S
C788 C786 1.389 . S
C788 C789 1.524 . S
C788 C802 1.377 . S
C789 C788 1.524 . S
C789 C790 1.397 . S
C789 C794 1.363 . S
C790 H767 0.950 . S
C790 C789 1.397 . S
C790 C791 1.334 1_556 S
C791 H768 0.950 . S
C791 C790 1.334 1_554 S
C791 C792 1.287 . S
C792 C791 1.287 . S
C792 C793 1.524 . S
C792 H811 0.913 . S
C793 H769 0.950 . S
C793 C792 1.524 . S
C793 C794 1.415 1_554 S
C794 H770 0.950 . S
C794 C789 1.363 . S
C794 C793 1.415 1_556 S
C795 H771 0.951 . S
C795 C796 1.366 . S
C795 C797 1.388 . S
C796 C795 1.366 . S
C796 C800 1.385 . S
C797 H772 0.951 . S
C797 C795 1.388 . S
C797 C798 1.366 . S
C798 C797 1.366 . S
C798 C799 1.414 . S
C798 C801 1.499 . S
C799 H773 0.950 . S
C799 C798 1.414 . S
C799 C800 1.374 . S
C800 H774 0.950 . S
C800 C796 1.385 . S
C800 C799 1.374 . S
C801 C798 1.499 . S
C801 C802 1.373 . S
C801 C803 1.389 . S
C802 H775 0.950 . S
C802 C788 1.377 . S
C802 C801 1.373 . S
C803 C787 1.377 . S
C803 C801 1.389 . S
C803 C804 1.524 . S
C804 C803 1.524 . S
C804 C805 1.397 . S
C804 C809 1.363 . S
C805 H776 0.950 . S
C805 C804 1.397 . S
C805 C806 1.334 . S
C806 H777 0.950 . S
C806 C805 1.334 . S
C806 C807 1.287 . S
C807 C806 1.287 . S
C807 C808 1.524 . S
C807 H810 0.999 . S
C808 H778 0.950 . S
C808 C807 1.524 . S
C808 C809 1.415 . S
C809 H779 0.950 . S
C809 C804 1.363 . S
C809 C808 1.415 . S
H810 C807 0.999 . S
H811 C792 0.913 . S
H812 C830 0.951 . S
H813 C832 0.951 . S
H814 C834 0.950 . S
H815 C835 0.950 . S
H816 C837 0.950 . S
H817 C840 0.950 . S
H818 C841 0.950 . S
H819 C843 0.950 . S
H820 C844 0.950 . S
H821 C845 0.951 . S
H822 C847 0.951 . S
H823 C849 0.950 . S
H824 C850 0.950 . S
H825 C852 0.950 . S
H826 C855 0.950 . S
H827 C856 0.950 . S
H828 C858 0.950 . S
H829 C859 0.950 . S
C830 H812 0.951 . S
C830 C831 1.366 . S
C830 C832 1.388 . S
C831 C830 1.366 . S
C831 C835 1.385 . S
C832 H813 0.951 . S
C832 C830 1.388 . S
C832 C833 1.366 . S
C833 C832 1.366 . S
C833 C834 1.414 . S
C833 C836 1.499 . S
C834 H814 0.950 . S
C834 C833 1.414 . S
C834 C835 1.374 . S
C835 H815 0.950 . S
C835 C831 1.385 . S
C835 C834 1.374 . S
C836 C833 1.499 . S
C836 C837 1.373 . S
C836 C838 1.389 . S
C837 H816 0.950 . S
C837 C836 1.373 . S
C837 C853 1.377 . S
C838 C836 1.389 . S
C838 C839 1.524 . S
C838 C852 1.377 . S
C839 C838 1.524 . S
C839 C840 1.397 . S
C839 C844 1.363 . S
C840 H817 0.950 . S
C840 C839 1.397 . S
C840 C841 1.334 . S
C841 H818 0.950 . S
C841 C840 1.334 . S
C841 C842 1.287 . S
C842 C841 1.287 . S
C842 C843 1.524 . S
C842 H861 0.913 . S
C843 H819 0.950 . S
C843 C842 1.524 . S
C843 C844 1.415 . S
C844 H820 0.950 . S
C844 C839 1.363 . S
C844 C843 1.415 . S
C845 H821 0.951 . S
C845 C846 1.366 . S
C845 C847 1.388 . S
C846 C845 1.366 . S
C846 C850 1.385 . S
C847 H822 0.951 . S
C847 C845 1.388 . S
C847 C848 1.366 . S
C848 C847 1.366 . S
C848 C849 1.414 . S
C848 C851 1.499 . S
C849 H823 0.950 . S
C849 C848 1.414 . S
C849 C850 1.374 . S
C850 H824 0.950 . S
C850 C846 1.385 . S
C850 C849 1.374 . S
C851 C848 1.499 . S
C851 C852 1.373 . S
C851 C853 1.389 . S
C852 H825 0.950 . S
C852 C838 1.377 . S
C852 C851 1.373 . S
C853 C837 1.377 . S
C853 C851 1.389 . S
C853 C854 1.524 . S
C854 C853 1.524 . S
C854 C855 1.397 . S
C854 C859 1.363 . S
C855 H826 0.950 . S
C855 C854 1.397 . S
C855 C856 1.334 . S
C856 H827 0.950 . S
C856 C855 1.334 . S
C856 C857 1.287 . S
C857 C856 1.287 . S
C857 C858 1.524 . S
C857 H860 0.999 . S
C858 H828 0.950 . S
C858 C857 1.524 . S
C858 C859 1.415 . S
C859 H829 0.950 . S
C859 C854 1.363 . S
C859 C858 1.415 . S
H860 C857 0.999 . S
H861 C842 0.913 . S
H862 C880 0.951 . S
H863 C882 0.951 1_556 S
H864 C884 0.955 . S
H865 C885 0.950 . S
H866 C887 0.950 . S
H867 C890 0.950 . S
H868 C891 0.950 . S
H869 C893 0.950 . S
H870 C894 0.950 . S
H871 C895 0.951 . S
H872 C897 0.951 . S
H873 C899 0.950 . S
H874 C900 0.950 . S
H875 C902 0.950 . S
H876 C905 0.950 . S
H877 C906 0.950 . S
H878 C908 0.950 . S
H879 C909 0.950 . S
C880 H862 0.951 . S
C880 C881 1.366 . S
C880 C882 1.388 . S
C881 C880 1.366 . S
C881 C885 1.385 . S
C882 H863 0.951 1_554 S
C882 C880 1.388 . S
C882 C883 1.366 1_554 S
C883 C882 1.366 1_556 S
C883 C884 1.418 . S
C883 C886 1.499 . S
C884 H864 0.955 . S
C884 C883 1.418 . S
C884 C885 1.365 1_556 S
C885 H865 0.950 . S
C885 C881 1.385 . S
C885 C884 1.365 1_554 S
C886 C883 1.499 . S
C886 C887 1.373 . S
C886 C888 1.389 . S
C887 H866 0.950 . S
C887 C886 1.373 . S
C887 C903 1.377 . S
C888 C886 1.389 . S
C888 C889 1.524 . S
C888 C902 1.377 . S
C889 C888 1.524 . S
C889 C890 1.397 . S
C889 C894 1.363 . S
C890 H867 0.950 . S
C890 C889 1.397 . S
C890 C891 1.334 . S
C891 H868 0.950 . S
C891 C890 1.334 . S
C891 C892 1.287 . S
C892 C891 1.287 . S
C892 C893 1.524 . S
C892 H911 0.913 . S
C893 H869 0.950 . S
C893 C892 1.524 . S
C893 C894 1.415 . S
C894 H870 0.950 . S
C894 C889 1.363 . S
C894 C893 1.415 . S
C895 H871 0.951 . S
C895 C896 1.366 . S
C895 C897 1.388 . S
C896 C895 1.366 . S
C896 C900 1.385 . S
C897 H872 0.951 . S
C897 C895 1.388 . S
C897 C898 1.366 . S
C898 C897 1.366 . S
C898 C899 1.414 . S
C898 C901 1.499 . S
C899 H873 0.950 . S
C899 C898 1.414 . S
C899 C900 1.374 . S
C900 H874 0.950 . S
C900 C896 1.385 . S
C900 C899 1.374 . S
C901 C898 1.499 . S
C901 C902 1.373 . S
C901 C903 1.389 . S
C902 H875 0.950 . S
C902 C888 1.377 . S
C902 C901 1.373 . S
C903 C887 1.377 . S
C903 C901 1.389 . S
C903 C904 1.524 . S
C904 C903 1.524 . S
C904 C905 1.397 . S
C904 C909 1.363 . S
C905 H876 0.950 . S
C905 C904 1.397 . S
C905 C906 1.334 . S
C906 H877 0.950 . S
C906 C905 1.334 . S
C906 C907 1.287 . S
C907 C906 1.287 . S
C907 C908 1.524 . S
C907 H910 0.999 . S
C908 H878 0.950 . S
C908 C907 1.524 . S
C908 C909 1.415 . S
C909 H879 0.950 . S
C909 C904 1.363 . S
C909 C908 1.415 . S
H910 C907 0.999 . S
H911 C892 0.913 . S
C131 C7 1.495 . S
C146 C49 1.495 . S
C181 C9 1.576 . S
C196 C23 1.576 . S
C231 C21 1.495 . S
C246 C35 1.495 . S
C281 C51 1.576 . S
C296 C37 1.576 . S
C331 C63 1.495 . S
C346 C105 1.495 . S
C381 C79 1.576 . S
C396 C65 1.576 . S
C431 C91 1.496 . S
C446 C77 1.495 . S
C481 C107 1.576 . S
C496 C93 1.576 . S
C531 C92 1.543 . S
C546 C6 1.480 . S
C581 C22 1.543 . S
C596 C104 1.480 . S
C631 C64 1.543 . S
C646 C34 1.481 . S
C681 C76 1.480 . S
C696 C50 1.543 . S
C731 C78 1.543 . S
C746 C48 1.479 . S
C781 C8 1.543 . S
C796 C90 1.480 . S
C831 C20 1.480 . S
C846 C106 1.543 . S
C881 C36 1.543 . S
C896 C62 1.480 . S
