# Generated by pormake.
# Topology uou, (4)-cn, num edge types: 1
# Building blocks:
#     Node 0, Type 0, BuildingBlock: KUFVIS_clean_sbu_0, # of connection points: 4
#     Node 1, Type 0, BuildingBlock: KUFVIS_clean_sbu_0, # of connection points: 4
#     Node 2, Type 0, BuildingBlock: KUFVIS_clean_sbu_0, # of connection points: 4
#     Node 3, Type 0, BuildingBlock: KUFVIS_clean_sbu_0, # of connection points: 4
#     Node 4, Type 0, BuildingBlock: KUFVIS_clean_sbu_0, # of connection points: 4
#     Node 5, Type 0, BuildingBlock: KUFVIS_clean_sbu_0, # of connection points: 4
#     Node 6, Type 0, BuildingBlock: KUFVIS_clean_sbu_0, # of connection points: 4
#     Node 7, Type 0, BuildingBlock: KUFVIS_clean_sbu_0, # of connection points: 4
#     Node 8, Type 0, BuildingBlock: KUFVIS_clean_sbu_0, # of connection points: 4
#     Node 9, Type 0, BuildingBlock: KUFVIS_clean_sbu_0, # of connection points: 4
#     Node 10, Type 0, BuildingBlock: KUFVIS_clean_sbu_0, # of connection points: 4
#     Node 11, Type 0, BuildingBlock: KUFVIS_clean_sbu_0, # of connection points: 4
#     Node 12, Type 0, BuildingBlock: KUFVIS_clean_sbu_0, # of connection points: 4
#     Node 13, Type 0, BuildingBlock: KUFVIS_clean_sbu_0, # of connection points: 4
#     Node 14, Type 0, BuildingBlock: KUFVIS_clean_sbu_0, # of connection points: 4
#     Node 15, Type 0, BuildingBlock: KUFVIS_clean_sbu_0, # of connection points: 4
#     Edge 16, Type (0, 0), BuildingBlock: UVAHIK_clean_linker_0, # of connection points: 2
#     Edge 17, Type (0, 0), BuildingBlock: UVAHIK_clean_linker_0, # of connection points: 2
#     Edge 18, Type (0, 0), BuildingBlock: UVAHIK_clean_linker_0, # of connection points: 2
#     Edge 19, Type (0, 0), BuildingBlock: UVAHIK_clean_linker_0, # of connection points: 2
#     Edge 20, Type (0, 0), BuildingBlock: UVAHIK_clean_linker_0, # of connection points: 2
#     Edge 21, Type (0, 0), BuildingBlock: UVAHIK_clean_linker_0, # of connection points: 2
#     Edge 22, Type (0, 0), BuildingBlock: UVAHIK_clean_linker_0, # of connection points: 2
#     Edge 23, Type (0, 0), BuildingBlock: UVAHIK_clean_linker_0, # of connection points: 2
#     Edge 24, Type (0, 0), BuildingBlock: UVAHIK_clean_linker_0, # of connection points: 2
#     Edge 25, Type (0, 0), BuildingBlock: UVAHIK_clean_linker_0, # of connection points: 2
#     Edge 26, Type (0, 0), BuildingBlock: UVAHIK_clean_linker_0, # of connection points: 2
#     Edge 27, Type (0, 0), BuildingBlock: UVAHIK_clean_linker_0, # of connection points: 2
#     Edge 28, Type (0, 0), BuildingBlock: UVAHIK_clean_linker_0, # of connection points: 2
#     Edge 29, Type (0, 0), BuildingBlock: UVAHIK_clean_linker_0, # of connection points: 2
#     Edge 30, Type (0, 0), BuildingBlock: UVAHIK_clean_linker_0, # of connection points: 2
#     Edge 31, Type (0, 0), BuildingBlock: UVAHIK_clean_linker_0, # of connection points: 2
#     Edge 32, Type (0, 0), BuildingBlock: UVAHIK_clean_linker_0, # of connection points: 2
#     Edge 33, Type (0, 0), BuildingBlock: UVAHIK_clean_linker_0, # of connection points: 2
#     Edge 34, Type (0, 0), BuildingBlock: UVAHIK_clean_linker_0, # of connection points: 2
#     Edge 35, Type (0, 0), BuildingBlock: UVAHIK_clean_linker_0, # of connection points: 2
#     Edge 36, Type (0, 0), BuildingBlock: UVAHIK_clean_linker_0, # of connection points: 2
#     Edge 37, Type (0, 0), BuildingBlock: UVAHIK_clean_linker_0, # of connection points: 2
#     Edge 38, Type (0, 0), BuildingBlock: UVAHIK_clean_linker_0, # of connection points: 2
#     Edge 39, Type (0, 0), BuildingBlock: UVAHIK_clean_linker_0, # of connection points: 2
#     Edge 40, Type (0, 0), BuildingBlock: UVAHIK_clean_linker_0, # of connection points: 2
#     Edge 41, Type (0, 0), BuildingBlock: UVAHIK_clean_linker_0, # of connection points: 2
#     Edge 42, Type (0, 0), BuildingBlock: UVAHIK_clean_linker_0, # of connection points: 2
#     Edge 43, Type (0, 0), BuildingBlock: UVAHIK_clean_linker_0, # of connection points: 2
#     Edge 44, Type (0, 0), BuildingBlock: UVAHIK_clean_linker_0, # of connection points: 2
#     Edge 45, Type (0, 0), BuildingBlock: UVAHIK_clean_linker_0, # of connection points: 2
#     Edge 46, Type (0, 0), BuildingBlock: UVAHIK_clean_linker_0, # of connection points: 2
#     Edge 47, Type (0, 0), BuildingBlock: UVAHIK_clean_linker_0, # of connection points: 2
# Relax obj value: 0.048
# Max RMSD: 0.086
# Mean RMSD: 0.086
data_MOF--net-uou--node1-KUFVIS_clean_sbu_0--edge1-UVAHIK_clean_linker_0
_symmetry_space_group_name_H-M    P1
_symmetry_Int_Tables_number       1
_symmetry_cell_setting            triclinic
loop_
_symmetry_equiv_pos_as_xyz
'x, y, z'
_cell_length_a     48.997314
_cell_length_b     52.56801
_cell_length_c     67.86425
_cell_angle_alpha  90.003619
_cell_angle_beta   90.002517
_cell_angle_gamma 90.026812
loop_
_atom_site_label
_atom_site_type_symbol
_atom_site_fract_x
_atom_site_fract_y
_atom_site_fract_z
_atom_type_partial_charge
Mn0 Mn 0.06976 0.0887 0.11653 0.0
Mn1 Mn 0.05646 0.0297 0.13357 0.0
C2 C 0.06224 0.0822 0.14973 0.0
C3 C 0.05356 0.12699 0.10351 0.0
C4 C 0.11307 0.04735 0.12128 0.0
O5 O 0.05956 0.06905 0.09176 0.0
O6 O 0.04717 0.03148 0.10512 0.0
C7 C 0.99631 0.02944 0.12957 0.0
N8 N 0.01897 0.0271 0.14105 0.0
C9 C 0.99171 0.01863 0.16981 0.0
C10 C 0.96808 0.02081 0.15828 0.0
C11 C 0.9704 0.0263 0.13808 0.0
C12 C 0.01698 0.0219 0.1605 0.0
H13 H 0.998 0.03372 0.11405 0.0
C14 C 0.04979 0.04658 0.09039 0.0
O15 O 0.07879 0.12001 0.10107 0.0
O16 O 0.0378 0.11147 0.11301 0.0
N17 N 0.06429 0.02566 0.16103 0.0
C18 C 0.08898 0.02553 0.17027 0.0
C19 C 0.09019 0.02105 0.19066 0.0
C20 C 0.06606 0.01659 0.20128 0.0
C21 C 0.04092 0.01658 0.19142 0.0
C22 C 0.04099 0.02102 0.17107 0.0
H23 H 0.1076 0.02893 0.16218 0.0
O24 O 0.07507 0.10238 0.1438 0.0
O25 O 0.0542 0.06664 0.13607 0.0
O26 O 0.10684 0.07047 0.11761 0.0
O27 O 0.09562 0.03067 0.12669 0.0
C28 C 0.01577 0.01273 0.20102 0.0
C29 C 0.99118 0.01378 0.19023 0.0
H30 H 0.94806 0.0185 0.1648 0.0
H31 H 0.95225 0.02813 0.1291 0.0
H32 H 0.10968 0.02111 0.19817 0.0
H33 H 0.06706 0.01334 0.21703 0.0
H34 H 0.01507 0.00931 0.21675 0.0
H35 H 0.97194 0.01116 0.19783 0.0
Mn36 Mn 0.43341 0.91614 0.11697 0.0
Mn37 Mn 0.44936 0.97419 0.13471 0.0
C38 C 0.44198 0.9214 0.15013 0.0
C39 C 0.44819 0.87801 0.10292 0.0
C40 C 0.39182 0.95871 0.12279 0.0
O41 O 0.44346 0.93621 0.09245 0.0
O42 O 0.45813 0.97286 0.10611 0.0
C43 C 0.50942 0.97238 0.13021 0.0
N44 N 0.48706 0.97527 0.14191 0.0
C45 C 0.5151 0.9816 0.17061 0.0
C46 C 0.53844 0.97885 0.15885 0.0
C47 C 0.53557 0.97417 0.13856 0.0
C48 C 0.48957 0.97974 0.16145 0.0
H49 H 0.5073 0.96867 0.11463 0.0
C50 C 0.45426 0.95826 0.09122 0.0
O51 O 0.42306 0.88558 0.10102 0.0
O52 O 0.46458 0.89278 0.11258 0.0
N53 N 0.44214 0.97777 0.1623 0.0
C54 C 0.41762 0.97859 0.17175 0.0
C55 C 0.41692 0.98249 0.19222 0.0
C56 C 0.44138 0.98563 0.20273 0.0
C57 C 0.46636 0.98491 0.19267 0.0
C58 C 0.46578 0.9812 0.17223 0.0
H59 H 0.39875 0.97618 0.16376 0.0
O60 O 0.42837 0.90174 0.14402 0.0
O61 O 0.45017 0.93713 0.13664 0.0
O62 O 0.39704 0.93543 0.11888 0.0
O63 O 0.41006 0.9747 0.12814 0.0
C64 C 0.49181 0.98727 0.20215 0.0
C65 C 0.51617 0.98557 0.19114 0.0
H66 H 0.55865 0.98006 0.16525 0.0
H67 H 0.55349 0.97189 0.12941 0.0
H68 H 0.39756 0.98298 0.19989 0.0
H69 H 0.44076 0.98839 0.21854 0.0
H70 H 0.4929 0.99002 0.21796 0.0
H71 H 0.53562 0.98704 0.19864 0.0
Mn72 Mn 0.56965 0.91617 0.37612 0.0
Mn73 Mn 0.55564 0.975 0.35915 0.0
C74 C 0.56154 0.92249 0.34297 0.0
C75 C 0.55328 0.87813 0.38947 0.0
C76 C 0.61258 0.95776 0.3711 0.0
O77 O 0.55999 0.93592 0.40094 0.0
O78 O 0.54653 0.97318 0.38764 0.0
C79 C 0.49551 0.9748 0.36332 0.0
N80 N 0.51809 0.97732 0.35178 0.0
C81 C 0.49061 0.98553 0.32309 0.0
C82 C 0.46706 0.98317 0.33469 0.0
C83 C 0.46953 0.97772 0.35488 0.0
C84 C 0.51595 0.98249 0.33233 0.0
H85 H 0.49733 0.97054 0.37883 0.0
C86 C 0.54978 0.9582 0.40237 0.0
O87 O 0.57868 0.88476 0.39159 0.0
O88 O 0.53758 0.89372 0.38002 0.0
N89 N 0.56329 0.97907 0.33167 0.0
C90 C 0.58792 0.97933 0.32234 0.0
C91 C 0.58898 0.98376 0.30195 0.0
C92 C 0.56475 0.98803 0.29139 0.0
C93 C 0.53967 0.9879 0.30133 0.0
C94 C 0.5399 0.98352 0.32169 0.0
H95 H 0.60661 0.97608 0.33038 0.0
O96 O 0.57444 0.90233 0.34886 0.0
O97 O 0.55373 0.93808 0.35667 0.0
O98 O 0.60673 0.93449 0.37464 0.0
O99 O 0.59482 0.97428 0.36593 0.0
C100 C 0.51444 0.99154 0.2918 0.0
C101 C 0.48992 0.99032 0.30266 0.0
H102 H 0.44698 0.9853 0.32822 0.0
H103 H 0.45145 0.97575 0.36391 0.0
H104 H 0.60842 0.98381 0.29438 0.0
H105 H 0.56564 0.99123 0.27563 0.0
H106 H 0.51362 0.9949 0.27606 0.0
H107 H 0.47062 0.99276 0.29511 0.0
Mn108 Mn 0.93418 0.08844 0.37572 0.0
Mn109 Mn 0.9485 0.02999 0.35808 0.0
C110 C 0.94275 0.0829 0.34258 0.0
C111 C 0.95029 0.12617 0.3897 0.0
C112 C 0.89139 0.04689 0.3699 0.0
O113 O 0.94347 0.06815 0.4003 0.0
O114 O 0.95724 0.03117 0.38668 0.0
C115 C 0.00858 0.03032 0.36264 0.0
N116 N 0.98616 0.02798 0.35091 0.0
C117 C 0.01406 0.02099 0.32223 0.0
C118 C 0.03745 0.02317 0.33402 0.0
C119 C 0.03469 0.0279 0.3543 0.0
C120 C 0.98858 0.02345 0.33138 0.0
H121 H 0.00654 0.03407 0.37821 0.0
C122 C 0.95367 0.04586 0.40156 0.0
O123 O 0.92487 0.11946 0.39154 0.0
O124 O 0.96615 0.11082 0.38015 0.0
N125 N 0.94122 0.02654 0.33048 0.0
C126 C 0.9167 0.02631 0.32101 0.0
C127 C 0.91592 0.02244 0.30054 0.0
C128 C 0.94031 0.01874 0.29005 0.0
C129 C 0.96528 0.01886 0.30014 0.0
C130 C 0.96477 0.02257 0.32057 0.0
H131 H 0.89789 0.02916 0.32899 0.0
O132 O 0.92974 0.10291 0.34863 0.0
O133 O 0.95037 0.06698 0.35611 0.0
O134 O 0.89721 0.07009 0.37374 0.0
O135 O 0.9092 0.03048 0.36462 0.0
C136 C 0.99067 0.0159 0.29067 0.0
C137 C 0.01505 0.01701 0.3017 0.0
H138 H 0.05763 0.02147 0.32764 0.0
H139 H 0.05264 0.02974 0.36348 0.0
H140 H 0.89657 0.02241 0.29285 0.0
H141 H 0.93963 0.01601 0.27423 0.0
H142 H 0.99171 0.01315 0.27487 0.0
H143 H 0.03446 0.01509 0.29422 0.0
Mn144 Mn 0.93012 0.9147 0.87721 0.0
Mn145 Mn 0.94437 0.97339 0.85988 0.0
C146 C 0.93864 0.92068 0.84409 0.0
C147 C 0.94573 0.87649 0.89073 0.0
C148 C 0.88727 0.95629 0.87145 0.0
O149 O 0.93972 0.93462 0.90197 0.0
O150 O 0.95273 0.97194 0.8885 0.0
C151 C 0.00439 0.97313 0.86486 0.0
N152 N 0.98212 0.97556 0.853 0.0
C153 C 0.01039 0.98312 0.8246 0.0
C154 C 0.03362 0.98085 0.83653 0.0
C155 C 0.0306 0.97579 0.85675 0.0
C156 C 0.9848 0.98039 0.83353 0.0
H157 H 0.00215 0.96915 0.88039 0.0
C158 C 0.94956 0.95707 0.9033 0.0
O159 O 0.92047 0.8836 0.89276 0.0
O160 O 0.96183 0.89184 0.88137 0.0
N161 N 0.93746 0.97715 0.83226 0.0
C162 C 0.91306 0.97753 0.82263 0.0
C163 C 0.91254 0.9818 0.8022 0.0
C164 C 0.93706 0.98577 0.79192 0.0
C165 C 0.9619 0.9855 0.80218 0.0
C166 C 0.96113 0.98137 0.82256 0.0
H167 H 0.89415 0.97451 0.83045 0.0
O168 O 0.92549 0.90066 0.84999 0.0
O169 O 0.94637 0.93639 0.85773 0.0
O170 O 0.89322 0.93318 0.87544 0.0
O171 O 0.905 0.97277 0.86613 0.0
C172 C 0.98741 0.98873 0.79293 0.0
C173 C 0.01164 0.98749 0.80412 0.0
H174 H 0.05388 0.98275 0.83031 0.0
H175 H 0.04843 0.97389 0.86604 0.0
H176 H 0.89329 0.98196 0.79439 0.0
H177 H 0.93659 0.98884 0.77615 0.0
H178 H 0.98865 0.99181 0.77717 0.0
H179 H 0.03115 0.98964 0.7968 0.0
Mn180 Mn 0.5672 0.08864 0.87584 0.0
Mn181 Mn 0.55116 0.03055 0.85822 0.0
C182 C 0.55844 0.08332 0.84271 0.0
C183 C 0.55247 0.12681 0.88987 0.0
C184 C 0.60878 0.04608 0.8699 0.0
O185 O 0.55732 0.06862 0.90043 0.0
O186 O 0.54261 0.03193 0.88684 0.0
C187 C 0.49114 0.03235 0.86294 0.0
N188 N 0.51342 0.02944 0.85116 0.0
C189 C 0.48516 0.023 0.82258 0.0
C190 C 0.46191 0.02578 0.83443 0.0
C191 C 0.46493 0.03052 0.85469 0.0
C192 C 0.51076 0.02491 0.83164 0.0
H193 H 0.49338 0.0361 0.87851 0.0
C194 C 0.54655 0.04655 0.90171 0.0
O195 O 0.57761 0.11925 0.89172 0.0
O196 O 0.53604 0.11199 0.8803 0.0
N197 N 0.55818 0.0269 0.8306 0.0
C198 C 0.58264 0.02605 0.82106 0.0
C199 C 0.58319 0.02208 0.8006 0.0
C200 C 0.55865 0.01889 0.79019 0.0
C201 C 0.53375 0.01964 0.80035 0.0
C202 C 0.53447 0.02343 0.82077 0.0
H203 H 0.60157 0.02849 0.82898 0.0
O204 O 0.57207 0.10298 0.84876 0.0
O205 O 0.55033 0.0676 0.85624 0.0
O206 O 0.60358 0.06936 0.87383 0.0
O207 O 0.59052 0.03007 0.86464 0.0
C208 C 0.50822 0.01723 0.79096 0.0
C209 C 0.48395 0.01896 0.80206 0.0
H210 H 0.44166 0.02453 0.82811 0.0
H211 H 0.44708 0.03281 0.86392 0.0
H212 H 0.60249 0.02156 0.79286 0.0
H213 H 0.55915 0.01607 0.77438 0.0
H214 H 0.50702 0.01443 0.77517 0.0
H215 H 0.46445 0.01746 0.79464 0.0
Mn216 Mn 0.43113 0.08747 0.61664 0.0
Mn217 Mn 0.44511 0.02871 0.63377 0.0
C218 C 0.43904 0.08127 0.64983 0.0
C219 C 0.44746 0.12551 0.60327 0.0
C220 C 0.38823 0.04585 0.62161 0.0
O221 O 0.44099 0.06767 0.5919 0.0
O222 O 0.45436 0.03043 0.6053 0.0
C223 C 0.50526 0.02896 0.62977 0.0
N224 N 0.48262 0.02646 0.64125 0.0
C225 C 0.50997 0.01839 0.67003 0.0
C226 C 0.53357 0.02073 0.65849 0.0
C227 C 0.5312 0.0261 0.63828 0.0
C228 C 0.48467 0.02137 0.66072 0.0
H229 H 0.50351 0.03315 0.61424 0.0
C230 C 0.45121 0.04538 0.59054 0.0
O231 O 0.42209 0.11879 0.60109 0.0
O232 O 0.46316 0.10999 0.61279 0.0
N233 N 0.43732 0.02474 0.66124 0.0
C234 C 0.41264 0.02449 0.6705 0.0
C235 C 0.41149 0.02014 0.6909 0.0
C236 C 0.43566 0.01594 0.70154 0.0
C237 C 0.46079 0.01606 0.69166 0.0
C238 C 0.46067 0.02035 0.6713 0.0
H239 H 0.39399 0.02769 0.66241 0.0
O240 O 0.42614 0.10138 0.64386 0.0
O241 O 0.44698 0.06565 0.63618 0.0
O242 O 0.3941 0.0691 0.61802 0.0
O243 O 0.40596 0.02937 0.62689 0.0
C244 C 0.48599 0.01249 0.70127 0.0
C245 C 0.51056 0.01368 0.69047 0.0
H246 H 0.55362 0.01866 0.66502 0.0
H247 H 0.54933 0.02806 0.6293 0.0
H248 H 0.39201 0.0201 0.69842 0.0
H249 H 0.43471 0.0128 0.7173 0.0
H250 H 0.48673 0.00919 0.71702 0.0
H251 H 0.52982 0.0113 0.69808 0.0
Mn252 Mn 0.06554 0.91733 0.61816 0.0
Mn253 Mn 0.05219 0.97663 0.63441 0.0
C254 C 0.05795 0.92444 0.65126 0.0
C255 C 0.04885 0.87911 0.60534 0.0
C256 C 0.10883 0.95875 0.62233 0.0
O257 O 0.05573 0.93657 0.59317 0.0
O258 O 0.04268 0.97424 0.60599 0.0
C259 C 0.992 0.97667 0.63066 0.0
N260 N 0.01475 0.97931 0.64202 0.0
C261 C 0.98769 0.98801 0.67083 0.0
C262 C 0.96397 0.98555 0.65942 0.0
C263 C 0.96615 0.9798 0.63926 0.0
C264 C 0.01289 0.98479 0.66143 0.0
H265 H 0.99359 0.97217 0.61518 0.0
C266 C 0.04567 0.95887 0.59147 0.0
O267 O 0.07425 0.88562 0.60301 0.0
O268 O 0.03333 0.89492 0.61474 0.0
N269 N 0.06023 0.98124 0.66179 0.0
C270 C 0.08499 0.9816 0.67093 0.0
C271 C 0.08634 0.98635 0.69127 0.0
C272 C 0.06228 0.99082 0.70197 0.0
C273 C 0.03706 0.99058 0.69221 0.0
C274 C 0.03699 0.98592 0.67189 0.0
H275 H 0.10356 0.97816 0.66279 0.0
O276 O 0.07061 0.90407 0.64556 0.0
O277 O 0.05003 0.93977 0.63742 0.0
O278 O 0.1027 0.93546 0.61915 0.0
O279 O 0.0913 0.97554 0.62738 0.0
C280 C 0.01196 0.99437 0.7019 0.0
C281 C 0.98729 0.99305 0.69122 0.0
H282 H 0.94399 0.98781 0.66601 0.0
H283 H 0.94794 0.97774 0.63038 0.0
H284 H 0.10589 0.98648 0.6987 0.0
H285 H 0.06339 0.99425 0.71769 0.0
H286 H 0.01137 0.99792 0.71762 0.0
H287 H 0.9681 0.99561 0.69889 0.0
Mn288 Mn 0.56885 0.59 0.11613 0.0
Mn289 Mn 0.55484 0.53164 0.13403 0.0
C290 C 0.56076 0.58465 0.14935 0.0
C291 C 0.55239 0.6275 0.10205 0.0
C292 C 0.61175 0.5486 0.12171 0.0
O293 O 0.5593 0.56954 0.0917 0.0
O294 O 0.54551 0.53268 0.10552 0.0
C295 C 0.49468 0.53186 0.13012 0.0
N296 N 0.51734 0.5296 0.14161 0.0
C297 C 0.49003 0.5227 0.1706 0.0
C298 C 0.46641 0.5248 0.15906 0.0
C299 C 0.46875 0.52944 0.13874 0.0
C300 C 0.51532 0.52516 0.16118 0.0
H301 H 0.49639 0.53555 0.11451 0.0
C302 C 0.54893 0.54729 0.09057 0.0
O303 O 0.57783 0.62092 0.1001 0.0
O304 O 0.53673 0.61219 0.11181 0.0
N305 N 0.56269 0.52833 0.16155 0.0
C306 C 0.5874 0.52822 0.17077 0.0
C307 C 0.58861 0.52447 0.19124 0.0
C308 C 0.56444 0.52077 0.202 0.0
C309 C 0.53927 0.52077 0.19218 0.0
C310 C 0.53935 0.52436 0.17173 0.0
H311 H 0.60605 0.53106 0.16259 0.0
O312 O 0.5736 0.60468 0.14313 0.0
O313 O 0.55299 0.56863 0.13592 0.0
O314 O 0.60589 0.5718 0.11794 0.0
O315 O 0.59401 0.53215 0.12708 0.0
C316 C 0.51407 0.51782 0.20193 0.0
C317 C 0.48947 0.51883 0.19115 0.0
H318 H 0.44636 0.52311 0.16567 0.0
H319 H 0.4506 0.53122 0.12975 0.0
H320 H 0.60811 0.52453 0.19872 0.0
H321 H 0.56544 0.51814 0.21782 0.0
H322 H 0.51337 0.51515 0.21775 0.0
H323 H 0.47022 0.51691 0.19885 0.0
Mn324 Mn 0.93282 0.41724 0.11807 0.0
Mn325 Mn 0.94721 0.47616 0.13472 0.0
C326 C 0.94084 0.42384 0.1512 0.0
C327 C 0.94892 0.37898 0.10494 0.0
C328 C 0.89021 0.45913 0.12272 0.0
O329 O 0.9427 0.43669 0.09316 0.0
O330 O 0.95642 0.47401 0.10626 0.0
C331 C 0.00735 0.47557 0.13071 0.0
N332 N 0.98474 0.47833 0.14218 0.0
C333 C 0.01215 0.48665 0.17089 0.0
C334 C 0.03574 0.48404 0.15936 0.0
C335 C 0.03332 0.47842 0.13919 0.0
C336 C 0.98683 0.48367 0.1616 0.0
H337 H 0.00557 0.47118 0.11521 0.0
C338 C 0.95307 0.45891 0.09162 0.0
O339 O 0.92357 0.38576 0.10276 0.0
O340 O 0.96472 0.39455 0.11435 0.0
N341 N 0.93946 0.48055 0.16216 0.0
C342 C 0.91479 0.48106 0.17142 0.0
C343 C 0.91366 0.48569 0.19178 0.0
C344 C 0.93787 0.48991 0.20238 0.0
C345 C 0.963 0.48952 0.1925 0.0
C346 C 0.96284 0.48495 0.17217 0.0
H347 H 0.89611 0.47785 0.16335 0.0
O348 O 0.92782 0.4037 0.1454 0.0
O349 O 0.94883 0.43925 0.13743 0.0
O350 O 0.8959 0.43579 0.11936 0.0
O351 O 0.90806 0.4756 0.12784 0.0
C352 C 0.98822 0.49308 0.20208 0.0
C353 C 0.01278 0.49162 0.19129 0.0
H354 H 0.0558 0.4861 0.16587 0.0
H355 H 0.05143 0.47625 0.13022 0.0
H356 H 0.89419 0.48594 0.1993 0.0
H357 H 0.93694 0.49327 0.21812 0.0
H358 H 0.98899 0.49658 0.21781 0.0
H359 H 0.03206 0.494 0.19888 0.0
Mn360 Mn 0.06892 0.41603 0.37714 0.0
Mn361 Mn 0.05409 0.47446 0.35962 0.0
C362 C 0.06044 0.4217 0.344 0.0
C363 C 0.05361 0.37784 0.39087 0.0
C364 C 0.11134 0.458 0.37136 0.0
O365 O 0.05909 0.43602 0.40179 0.0
O366 O 0.04549 0.47309 0.38823 0.0
C367 C 0.99404 0.47363 0.36434 0.0
N368 N 0.01638 0.47621 0.35257 0.0
C369 C 0.98826 0.48319 0.32399 0.0
C370 C 0.96496 0.48076 0.33584 0.0
C371 C 0.96787 0.47592 0.35609 0.0
C372 C 0.01381 0.48084 0.33306 0.0
H373 H 0.99619 0.4698 0.3799 0.0
C374 C 0.04887 0.45831 0.40307 0.0
O375 O 0.07881 0.38517 0.39288 0.0
O376 O 0.03741 0.39295 0.38137 0.0
N377 N 0.06119 0.47811 0.33202 0.0
C378 C 0.08566 0.4786 0.32248 0.0
C379 C 0.0863 0.48263 0.30203 0.0
C380 C 0.06182 0.48623 0.29162 0.0
C381 C 0.03691 0.48584 0.30177 0.0
C382 C 0.03755 0.48198 0.32219 0.0
H383 H 0.10454 0.47584 0.33039 0.0
O384 O 0.07375 0.40183 0.35 0.0
O385 O 0.05251 0.43743 0.35757 0.0
O386 O 0.10562 0.43483 0.37533 0.0
O387 O 0.09345 0.47431 0.36604 0.0
C388 C 0.01144 0.48869 0.29239 0.0
C389 C 0.98713 0.48732 0.30349 0.0
H390 H 0.94473 0.48236 0.32952 0.0
H391 H 0.94998 0.47389 0.36531 0.0
H392 H 0.10561 0.48287 0.29429 0.0
H393 H 0.06238 0.4891 0.27582 0.0
H394 H 0.01029 0.49156 0.27661 0.0
H395 H 0.96766 0.48916 0.29606 0.0
Mn396 Mn 0.4331 0.58822 0.37542 0.0
Mn397 Mn 0.44776 0.52962 0.35819 0.0
C398 C 0.44151 0.58222 0.34228 0.0
C399 C 0.44856 0.62651 0.38894 0.0
C400 C 0.39055 0.54631 0.36984 0.0
O401 O 0.44287 0.56844 0.40018 0.0
O402 O 0.45624 0.5312 0.3868 0.0
C403 C 0.50778 0.53026 0.36304 0.0
N404 N 0.48548 0.52766 0.35123 0.0
C405 C 0.51366 0.51996 0.32281 0.0
C406 C 0.53693 0.5224 0.33469 0.0
C407 C 0.53397 0.52763 0.35488 0.0
C408 C 0.4881 0.52271 0.33178 0.0
H409 H 0.50559 0.53433 0.37856 0.0
C410 C 0.45293 0.54609 0.40157 0.0
O411 O 0.42334 0.61928 0.39099 0.0
O412 O 0.46469 0.61127 0.37951 0.0
N413 N 0.44074 0.52574 0.3306 0.0
C414 C 0.41631 0.5253 0.32101 0.0
C415 C 0.41573 0.52101 0.30059 0.0
C416 C 0.44023 0.51705 0.29028 0.0
C417 C 0.46509 0.51735 0.3005 0.0
C418 C 0.46439 0.52157 0.32087 0.0
H419 H 0.39742 0.52831 0.32886 0.0
O420 O 0.42827 0.60217 0.3482 0.0
O421 O 0.44946 0.56661 0.35593 0.0
O422 O 0.3963 0.5695 0.37374 0.0
O423 O 0.40841 0.52997 0.36453 0.0
C424 C 0.49056 0.514 0.29123 0.0
C425 C 0.51484 0.51536 0.30237 0.0
H426 H 0.55717 0.5205 0.32844 0.0
H427 H 0.55184 0.52966 0.36413 0.0
H428 H 0.39646 0.52083 0.2928 0.0
H429 H 0.43971 0.51396 0.2745 0.0
H430 H 0.49175 0.51076 0.27549 0.0
H431 H 0.53432 0.51315 0.29503 0.0
Mn432 Mn 0.43376 0.41568 0.87627 0.0
Mn433 Mn 0.44874 0.4739 0.85849 0.0
C434 C 0.44192 0.42103 0.84306 0.0
C435 C 0.44968 0.37793 0.89028 0.0
C436 C 0.39155 0.45772 0.8708 0.0
O437 O 0.44363 0.43593 0.90075 0.0
O438 O 0.45803 0.47263 0.887 0.0
C439 C 0.50889 0.47277 0.86242 0.0
N440 N 0.48628 0.47542 0.85093 0.0
C441 C 0.51372 0.48206 0.82197 0.0
C442 C 0.5373 0.47957 0.83352 0.0
C443 C 0.53486 0.47486 0.85382 0.0
C444 C 0.48839 0.47992 0.83138 0.0
H445 H 0.50709 0.46904 0.87802 0.0
C446 C 0.45434 0.45803 0.90192 0.0
O447 O 0.42433 0.38481 0.89226 0.0
O448 O 0.46554 0.39308 0.88053 0.0
N449 N 0.44097 0.47742 0.83097 0.0
C450 C 0.41627 0.47795 0.82174 0.0
C451 C 0.41514 0.48181 0.80128 0.0
C452 C 0.43938 0.48522 0.79054 0.0
C453 C 0.46454 0.48481 0.80038 0.0
C454 C 0.46438 0.48111 0.82081 0.0
H455 H 0.39758 0.47533 0.82991 0.0
O456 O 0.42876 0.40116 0.84925 0.0
O457 O 0.44995 0.43689 0.85652 0.0
O458 O 0.397 0.43442 0.87453 0.0
O459 O 0.40958 0.47391 0.86543 0.0
C460 C 0.48979 0.48745 0.79065 0.0
C461 C 0.51436 0.48604 0.80143 0.0
H462 H 0.55737 0.48101 0.82692 0.0
H463 H 0.55297 0.47278 0.86281 0.0
H464 H 0.39565 0.48207 0.79379 0.0
H465 H 0.43844 0.48795 0.77474 0.0
H466 H 0.49055 0.49019 0.77484 0.0
H467 H 0.53365 0.48771 0.79375 0.0
Mn468 Mn 0.06921 0.58741 0.87638 0.0
Mn469 Mn 0.0565 0.52819 0.85964 0.0
C470 C 0.06172 0.58063 0.8432 0.0
C471 C 0.05208 0.62533 0.88942 0.0
C472 C 0.11292 0.54645 0.87199 0.0
O473 O 0.05951 0.56773 0.90121 0.0
O474 O 0.04683 0.53013 0.88803 0.0
C475 C 0.99631 0.52744 0.86321 0.0
N476 N 0.01914 0.52521 0.85191 0.0
C477 C 0.99235 0.51638 0.82298 0.0
C478 C 0.96855 0.51844 0.83434 0.0
C479 C 0.97054 0.52405 0.85453 0.0
C480 C 0.01746 0.51988 0.83245 0.0
H481 H 0.99776 0.53182 0.87873 0.0
C482 C 0.04962 0.54531 0.90269 0.0
O483 O 0.07755 0.61904 0.89175 0.0
O484 O 0.03675 0.60945 0.87991 0.0
N485 N 0.06474 0.52402 0.83225 0.0
C486 C 0.08955 0.5241 0.82317 0.0
C487 C 0.09107 0.51957 0.80281 0.0
C488 C 0.06712 0.51487 0.79202 0.0
C489 C 0.04186 0.51467 0.80172 0.0
C490 C 0.04162 0.51915 0.82206 0.0
H491 H 0.10802 0.5277 0.83138 0.0
O492 O 0.07418 0.60105 0.84907 0.0
O493 O 0.05397 0.56506 0.85693 0.0
O494 O 0.10659 0.56966 0.8753 0.0
O495 O 0.09554 0.52958 0.8668 0.0
C496 C 0.01686 0.51061 0.79194 0.0
C497 C 0.99213 0.51148 0.80256 0.0
H498 H 0.94863 0.51596 0.82768 0.0
H499 H 0.95226 0.52579 0.86337 0.0
H500 H 0.11065 0.51978 0.79543 0.0
H501 H 0.06836 0.51159 0.77629 0.0
H502 H 0.0164 0.50717 0.77621 0.0
H503 H 0.97302 0.50871 0.79483 0.0
Mn504 Mn 0.93187 0.58809 0.61777 0.0
Mn505 Mn 0.94763 0.5297 0.63496 0.0
C506 C 0.94081 0.58226 0.65084 0.0
C507 C 0.94653 0.62658 0.60419 0.0
C508 C 0.89005 0.5456 0.62361 0.0
O509 O 0.9417 0.56842 0.59297 0.0
O510 O 0.95577 0.53136 0.6063 0.0
C511 C 0.00759 0.53122 0.62977 0.0
N512 N 0.98547 0.52832 0.64171 0.0
C513 C 0.01411 0.52142 0.67003 0.0
C514 C 0.0372 0.52419 0.65801 0.0
C515 C 0.03391 0.52915 0.6378 0.0
C516 C 0.98839 0.52357 0.66118 0.0
H517 H 0.00515 0.53515 0.61425 0.0
C518 C 0.95209 0.54621 0.59154 0.0
O519 O 0.92141 0.61899 0.60227 0.0
O520 O 0.96303 0.61156 0.6135 0.0
N521 N 0.941 0.52578 0.6626 0.0
C522 C 0.91668 0.52492 0.67233 0.0
C523 C 0.9164 0.5207 0.69276 0.0
C524 C 0.94108 0.51729 0.70296 0.0
C525 C 0.96583 0.51805 0.69261 0.0
C526 C 0.96483 0.52209 0.67223 0.0
H527 H 0.89765 0.52753 0.66457 0.0
O528 O 0.92714 0.602 0.64501 0.0
O529 O 0.94878 0.56672 0.63715 0.0
O530 O 0.89543 0.56885 0.61966 0.0
O531 O 0.90819 0.52949 0.62885 0.0
C532 C 0.99148 0.51541 0.70178 0.0
C533 C 0.0156 0.51714 0.6905 0.0
H534 H 0.05754 0.52275 0.66416 0.0
H535 H 0.05164 0.53144 0.62845 0.0
H536 H 0.89722 0.52017 0.70065 0.0
H537 H 0.94079 0.51427 0.71875 0.0
H538 H 0.9929 0.51241 0.71754 0.0
H539 H 0.0352 0.51545 0.69776 0.0
Mn540 Mn 0.56798 0.41554 0.61658 0.0
Mn541 Mn 0.55402 0.47445 0.63349 0.0
C542 C 0.55989 0.42195 0.64971 0.0
C543 C 0.55218 0.37723 0.60331 0.0
C544 C 0.61096 0.45715 0.62174 0.0
O545 O 0.55819 0.43515 0.59173 0.0
O546 O 0.54521 0.47262 0.60495 0.0
C547 C 0.49393 0.47426 0.62898 0.0
N548 N 0.51638 0.47679 0.64064 0.0
C549 C 0.48859 0.48504 0.66917 0.0
C550 C 0.46517 0.48267 0.65744 0.0
C551 C 0.46786 0.4772 0.63727 0.0
C552 C 0.51403 0.48198 0.66008 0.0
H553 H 0.49592 0.46999 0.61348 0.0
C554 C 0.54826 0.45754 0.59026 0.0
O555 O 0.57743 0.38431 0.60114 0.0
O556 O 0.5362 0.39264 0.61272 0.0
N557 N 0.56137 0.47856 0.66101 0.0
C558 C 0.5859 0.47889 0.67047 0.0
C559 C 0.58674 0.48338 0.69086 0.0
C560 C 0.5624 0.48767 0.70128 0.0
C561 C 0.53743 0.48748 0.6912 0.0
C562 C 0.53786 0.48304 0.67085 0.0
H563 H 0.60468 0.47563 0.66254 0.0
O564 O 0.57289 0.40183 0.64386 0.0
O565 O 0.55197 0.43749 0.636 0.0
O566 O 0.60494 0.43398 0.61803 0.0
O567 O 0.59331 0.47373 0.62695 0.0
C568 C 0.51209 0.49113 0.70058 0.0
C569 C 0.48768 0.48987 0.68959 0.0
H570 H 0.44502 0.48481 0.66379 0.0
H571 H 0.44988 0.47522 0.62814 0.0
H572 H 0.6061 0.48348 0.69854 0.0
H573 H 0.56311 0.49092 0.71703 0.0
H574 H 0.5111 0.49455 0.71631 0.0
H575 H 0.4683 0.49232 0.69703 0.0
C576 C 0.34132 0.95096 0.119 0.0
C577 C 0.36326 0.96798 0.12122 0.0
C578 C 0.31445 0.95997 0.118 0.0
C579 C 0.27227 0.01676 0.13002 0.0
H580 H 0.21922 0.98407 0.09603 0.0
C581 C 0.1633 0.05696 0.11808 0.0
C582 C 0.14198 0.03913 0.11953 0.0
C583 C 0.19053 0.04888 0.11727 0.0
C584 C 0.23379 0.99332 0.10566 0.0
H585 H 0.374 0.00795 0.12368 0.0
H586 H 0.32751 0.02354 0.12146 0.0
H587 H 0.26616 0.96865 0.09659 0.0
H588 H 0.13272 0.99874 0.12086 0.0
H589 H 0.17998 0.98482 0.11934 0.0
H590 H 0.23985 0.04154 0.13896 0.0
C591 C 0.33089 0.00319 0.12099 0.0
C592 C 0.26069 0.98442 0.10606 0.0
C593 C 0.35766 0.99421 0.12214 0.0
C594 C 0.14855 0.01306 0.11979 0.0
C595 C 0.17567 0.00502 0.11879 0.0
C596 C 0.24544 0.02578 0.1295 0.0
C597 C 0.30887 0.98622 0.11904 0.0
C598 C 0.28027 0.99592 0.11834 0.0
C599 C 0.19699 0.02281 0.11766 0.0
C600 C 0.22584 0.01405 0.11743 0.0
H601 H 0.34484 0.93064 0.11833 0.0
H602 H 0.29802 0.94628 0.11677 0.0
H603 H 0.28661 0.02585 0.13992 0.0
H604 H 0.15901 0.07717 0.11787 0.0
H605 H 0.20654 0.06304 0.11626 0.0
C606 C 0.66311 0.94911 0.37376 0.0
C607 C 0.64134 0.96648 0.37273 0.0
C608 C 0.69017 0.95778 0.37438 0.0
C609 C 0.73211 0.01497 0.36293 0.0
H610 H 0.78704 0.98061 0.39423 0.0
C611 C 0.84105 0.05562 0.37375 0.0
C612 C 0.8626 0.03819 0.37146 0.0
C613 C 0.81398 0.0471 0.37471 0.0
C614 C 0.77194 0.99032 0.38533 0.0
H615 H 0.63108 0.00667 0.37224 0.0
H616 H 0.67782 0.02162 0.37382 0.0
H617 H 0.74011 0.96499 0.39445 0.0
H618 H 0.8724 0.99803 0.36869 0.0
H619 H 0.82541 0.98337 0.37043 0.0
H620 H 0.76393 0.0404 0.35395 0.0
C621 C 0.67419 1.0013 0.37357 0.0
C622 C 0.74505 0.98131 0.38539 0.0
C623 C 0.64728 0.99268 0.37279 0.0
C624 C 0.8564 0.01207 0.37042 0.0
C625 C 0.82943 0.00358 0.37156 0.0
C626 C 0.75892 0.02407 0.363 0.0
C627 C 0.69605 0.98402 0.37413 0.0
C628 C 0.72477 0.99349 0.37416 0.0
C629 C 0.80789 0.02098 0.3736 0.0
C630 C 0.77917 0.01181 0.37413 0.0
H631 H 0.6593 0.92881 0.37367 0.0
H632 H 0.70647 0.94389 0.37461 0.0
H633 H 0.71722 0.02457 0.35379 0.0
H634 H 0.84504 0.07586 0.3746 0.0
H635 H 0.79781 0.06096 0.37644 0.0
C636 C 0.83691 0.94712 0.87444 0.0
C637 C 0.8584 0.96476 0.8728 0.0
C638 C 0.80975 0.95541 0.87507 0.0
C639 C 0.76703 0.01149 0.88608 0.0
H640 H 0.71365 0.97856 0.85251 0.0
C641 C 0.65934 0.05385 0.87324 0.0
C642 C 0.63736 0.03682 0.87134 0.0
C643 C 0.68623 0.04483 0.87408 0.0
C644 C 0.72815 0.98777 0.86222 0.0
H645 H 0.868 0.00504 0.87088 0.0
H646 H 0.82085 0.01933 0.87209 0.0
H647 H 0.76035 0.96268 0.85337 0.0
H648 H 0.62655 0.99683 0.86929 0.0
H649 H 0.67306 0.98123 0.87124 0.0
H650 H 0.73487 0.03644 0.8951 0.0
C651 C 0.82498 0.99912 0.87293 0.0
C652 C 0.75495 0.97865 0.86268 0.0
C653 C 0.85204 0.99086 0.87211 0.0
C654 C 0.64293 0.01057 0.87057 0.0
C655 C 0.66971 1.00158 0.87157 0.0
C656 C 0.74016 0.02049 0.88576 0.0
C657 C 0.80351 0.98152 0.8743 0.0
C658 C 0.77473 0.9905 0.87451 0.0
C659 C 0.69177 0.01856 0.87318 0.0
C660 C 0.72037 0.00884 0.87375 0.0
H661 H 0.84103 0.92689 0.87499 0.0
H662 H 0.79362 0.94141 0.87627 0.0
H663 H 0.78175 0.02084 0.89553 0.0
H664 H 0.65585 0.07418 0.87378 0.0
H665 H 0.70269 0.05852 0.87506 0.0
C666 C 0.14419 0.99317 0.62056 0.0
C667 C 0.13769 0.96707 0.62036 0.0
C668 C 0.17127 1.00131 0.6193 0.0
C669 C 0.2413 0.98052 0.62922 0.0
H670 H 0.26147 0.03806 0.59652 0.0
C671 C 0.35342 0.01097 0.62032 0.0
C672 C 0.35947 0.03714 0.61986 0.0
C673 C 0.3265 0.0024 0.61934 0.0
C674 C 0.25614 0.02217 0.60592 0.0
H675 H 0.15481 0.9291 0.6185 0.0
H676 H 0.20224 0.9434 0.61642 0.0
H677 H 0.21441 0.02277 0.59646 0.0
H678 H 0.34168 0.07481 0.61781 0.0
H679 H 0.2945 0.05985 0.6165 0.0
H680 H 0.28273 0.98014 0.63904 0.0
C681 C 0.18622 0.9575 0.6176 0.0
C682 C 0.22918 0.01334 0.60582 0.0
C683 C 0.15904 0.94932 0.61869 0.0
C684 C 0.3378 0.05453 0.61814 0.0
C685 C 0.31074 0.04592 0.6173 0.0
C686 C 0.26818 0.98943 0.62943 0.0
C687 C 0.19262 0.9836 0.61796 0.0
C688 C 0.22146 0.99243 0.61749 0.0
C689 C 0.30474 0.01972 0.61804 0.0
C690 C 0.27599 0.01037 0.61777 0.0
H691 H 0.12835 0.00744 0.62179 0.0
H692 H 0.17552 0.02152 0.61983 0.0
H693 H 0.2359 0.96465 0.63862 0.0
H694 H 0.36954 0.99694 0.62143 0.0
H695 H 0.32278 0.98209 0.61951 0.0
C696 C 0.85577 0.49422 0.12073 0.0
C697 C 0.86153 0.468 0.12085 0.0
C698 C 0.82893 0.50297 0.11961 0.0
C699 C 0.7583 0.48327 0.10684 0.0
H700 H 0.73886 0.54229 0.13815 0.0
C701 C 0.64675 0.51384 0.12097 0.0
C702 C 0.64054 0.53997 0.12005 0.0
C703 C 0.67374 0.50542 0.11991 0.0
C704 C 0.74403 0.52599 0.12913 0.0
H705 H 0.84336 0.43041 0.1197 0.0
H706 H 0.79632 0.44571 0.11817 0.0
H707 H 0.78552 0.52641 0.13884 0.0
H708 H 0.65806 0.57769 0.11715 0.0
H709 H 0.70533 0.5629 0.11543 0.0
H710 H 0.71651 0.48264 0.0975 0.0
C711 C 0.81271 0.45952 0.11861 0.0
C712 C 0.77082 0.51686 0.12949 0.0
C713 C 0.83968 0.45073 0.11957 0.0
C714 C 0.66207 0.55745 0.1179 0.0
C715 C 0.68916 0.54899 0.11702 0.0
C716 C 0.73144 0.49232 0.10659 0.0
C717 C 0.80699 0.48579 0.11876 0.0
C718 C 0.77834 0.49538 0.11835 0.0
C719 C 0.69528 0.52287 0.11806 0.0
C720 C 0.724 0.51377 0.11775 0.0
H721 H 0.87204 0.50815 0.12147 0.0
H722 H 0.82543 0.52331 0.11932 0.0
H723 H 0.7634 0.46695 0.09782 0.0
H724 H 0.63076 0.49977 0.12258 0.0
H725 H 0.67777 0.48521 0.12098 0.0
C726 C 0.3401 0.55495 0.37306 0.0
C727 C 0.36177 0.53756 0.3713 0.0
C728 C 0.31303 0.54636 0.37381 0.0
C729 C 0.27031 0.48979 0.36184 0.0
H730 H 0.21684 0.52335 0.39493 0.0
C731 C 0.16173 0.44918 0.37435 0.0
C732 C 0.14015 0.46668 0.37269 0.0
C733 C 0.18885 0.45762 0.3749 0.0
C734 C 0.23153 0.51388 0.38553 0.0
H735 H 0.37183 0.49739 0.36946 0.0
H736 H 0.32504 0.48254 0.37126 0.0
H737 H 0.26386 0.5387 0.39453 0.0
H738 H 0.13032 0.5069 0.37065 0.0
H739 H 0.17744 0.52146 0.37172 0.0
H740 H 0.23797 0.46482 0.35302 0.0
C741 C 0.32876 0.50285 0.37153 0.0
C742 C 0.25847 0.52273 0.38523 0.0
C743 C 0.35571 0.51141 0.37063 0.0
C744 C 0.14636 0.49282 0.3719 0.0
C745 C 0.17339 0.50123 0.37264 0.0
C746 C 0.24345 0.48083 0.36227 0.0
C747 C 0.307 0.52017 0.37295 0.0
C748 C 0.27823 0.51084 0.37334 0.0
C749 C 0.19496 0.48374 0.37401 0.0
C750 C 0.22372 0.49281 0.37407 0.0
H751 H 0.34399 0.57522 0.37354 0.0
H752 H 0.29682 0.5603 0.37467 0.0
H753 H 0.28476 0.48043 0.3522 0.0
H754 H 0.15773 0.42893 0.37498 0.0
H755 H 0.20505 0.44369 0.37611 0.0
C756 C 0.14835 0.5122 0.87401 0.0
C757 C 0.14181 0.53828 0.87395 0.0
C758 C 0.17544 0.50414 0.87517 0.0
C759 C 0.24525 0.52469 0.86434 0.0
H760 H 0.2658 0.46761 0.89738 0.0
C761 C 0.35731 0.4931 0.87181 0.0
C762 C 0.36296 0.46687 0.87258 0.0
C763 C 0.33055 0.50205 0.87304 0.0
C764 C 0.26037 0.48337 0.88789 0.0
H765 H 0.15888 0.57632 0.87527 0.0
H766 H 0.20639 0.56215 0.87717 0.0
H767 H 0.21891 0.48322 0.89794 0.0
H768 H 0.34462 0.42949 0.87537 0.0
H769 H 0.29774 0.44509 0.8771 0.0
H770 H 0.28641 0.52457 0.85391 0.0
C771 C 0.19036 0.548 0.87627 0.0
C772 C 0.23351 0.49238 0.88828 0.0
C773 C 0.16314 0.55611 0.87529 0.0
C774 C 0.34106 0.44981 0.8748 0.0
C775 C 0.31417 0.45879 0.87589 0.0
C776 C 0.27205 0.51558 0.86384 0.0
C777 C 0.19679 0.52191 0.87616 0.0
C778 C 0.22562 0.51309 0.87646 0.0
C779 C 0.30857 0.48504 0.87491 0.0
C780 C 0.27998 0.49476 0.87558 0.0
H781 H 0.13252 0.49787 0.87305 0.0
H782 H 0.17971 0.48393 0.87482 0.0
H783 H 0.23972 0.54041 0.85483 0.0
H784 H 0.37362 0.50689 0.8703 0.0
H785 H 0.32715 0.5224 0.87265 0.0
C786 C 0.6463 0.49163 0.62057 0.0
C787 C 0.63986 0.46553 0.62026 0.0
C788 C 0.6734 0.4998 0.61978 0.0
C789 C 0.74317 0.47934 0.63093 0.0
H790 H 0.76414 0.53628 0.59789 0.0
C791 C 0.85555 0.51035 0.62332 0.0
C792 C 0.86137 0.53653 0.62222 0.0
C793 C 0.82869 0.50153 0.62231 0.0
C794 C 0.75859 0.52058 0.60741 0.0
H795 H 0.6571 0.42757 0.61877 0.0
H796 H 0.70458 0.44193 0.61754 0.0
H797 H 0.71716 0.5209 0.59729 0.0
H798 H 0.84325 0.57396 0.6192 0.0
H799 H 0.79628 0.55862 0.61789 0.0
H800 H 0.7843 0.47928 0.64142 0.0
C801 C 0.68849 0.45601 0.61842 0.0
C802 C 0.73167 0.51169 0.60698 0.0
C803 C 0.66129 0.4478 0.61901 0.0
C804 C 0.83956 0.55367 0.62001 0.0
C805 C 0.8126 0.54484 0.61915 0.0
C806 C 0.77002 0.48834 0.63148 0.0
C807 C 0.69483 0.48212 0.61884 0.0
C808 C 0.72365 0.491 0.61876 0.0
C809 C 0.80681 0.51863 0.62035 0.0
C810 C 0.77812 0.50909 0.61973 0.0
H811 H 0.63038 0.50587 0.6215 0.0
H812 H 0.67761 0.52002 0.62034 0.0
H813 H 0.73751 0.46361 0.64041 0.0
H814 H 0.87178 0.49651 0.62487 0.0
H815 H 0.82514 0.48121 0.6229 0.0
C816 C 0.93816 0.08492 0.30604 0.0
C817 C 0.95465 0.08265 0.3228 0.0
C818 C 0.94999 0.08494 0.2873 0.0
C819 C 0.0142 0.09796 0.26129 0.0
H820 H 0.98391 0.05425 0.22084 0.0
C821 C 0.06769 0.08368 0.18625 0.0
C822 C 0.05084 0.08141 0.16968 0.0
C823 C 0.05629 0.08353 0.20514 0.0
C824 C 0.99252 0.06673 0.23189 0.0
H825 H 0.99616 0.08086 0.3336 0.0
H826 H 0.01695 0.0809 0.30088 0.0
H827 H 0.96298 0.05523 0.25337 0.0
H828 H 0.00911 0.07934 0.15939 0.0
H829 H 0.98904 0.07969 0.19224 0.0
H830 H 0.04352 0.10975 0.23983 0.0
C831 C 0.99495 0.08218 0.30208 0.0
C832 C 0.98047 0.0673 0.25051 0.0
C833 C 0.9831 0.08187 0.32074 0.0
C834 C 0.02248 0.08024 0.1721 0.0
C835 C 0.01105 0.08039 0.1909 0.0
C836 C 0.02619 0.09749 0.24263 0.0
C837 C 0.97851 0.08343 0.28516 0.0
C838 C 0.99116 0.08296 0.26537 0.0
C839 C 0.02781 0.08182 0.20768 0.0
C840 C 0.01548 0.08188 0.22768 0.0
H841 H 0.91617 0.08616 0.30745 0.0
H842 H 0.93688 0.08631 0.27449 0.0
H843 H 0.02269 0.11041 0.27244 0.0
H844 H 0.08963 0.08506 0.18458 0.0
H845 H 0.06982 0.08446 0.21774 0.0
C846 C 0.48221 0.92152 0.17211 0.0
C847 C 0.45377 0.92133 0.16995 0.0
C848 C 0.49394 0.92105 0.19081 0.0
C849 C 0.47931 0.93655 0.24229 0.0
H850 H 0.54218 0.89401 0.25322 0.0
C851 C 0.52161 0.92425 0.32074 0.0
C852 C 0.54999 0.92323 0.32307 0.0
C853 C 0.51006 0.92393 0.30197 0.0
C854 C 0.52489 0.90628 0.25035 0.0
H855 H 0.41512 0.91862 0.18518 0.0
H856 H 0.43562 0.91816 0.21821 0.0
H857 H 0.5213 0.89304 0.22063 0.0
H858 H 0.5887 0.91965 0.30806 0.0
H859 H 0.56867 0.9199 0.27496 0.0
H860 H 0.48284 0.94988 0.2719 0.0
C861 C 0.44884 0.91922 0.20545 0.0
C862 C 0.51287 0.90564 0.2317 0.0
C863 C 0.43712 0.91941 0.18666 0.0
C864 C 0.56674 0.92094 0.30645 0.0
C865 C 0.55523 0.92088 0.2876 0.0
C866 C 0.49137 0.93726 0.26091 0.0
C867 C 0.47737 0.92022 0.20768 0.0
C868 C 0.48993 0.92071 0.22751 0.0
C869 C 0.52672 0.92243 0.28515 0.0
C870 C 0.51428 0.9221 0.26519 0.0
H871 H 0.49538 0.92224 0.15929 0.0
H872 H 0.51596 0.92195 0.19207 0.0
H873 H 0.46191 0.94867 0.23936 0.0
H874 H 0.50832 0.92515 0.33349 0.0
H875 H 0.48804 0.92452 0.30069 0.0
C876 C 0.01833 0.9268 0.67373 0.0
C877 C 0.04668 0.92567 0.67123 0.0
C878 C 0.00701 0.9267 0.69257 0.0
C879 C 0.0224 0.90887 0.74401 0.0
H880 H 0.95899 0.95054 0.75538 0.0
C881 C 0.97903 0.92211 0.8223 0.0
C882 C 0.95058 0.92117 0.82432 0.0
C883 C 0.99093 0.92231 0.80365 0.0
C884 C 0.97654 0.93864 0.75234 0.0
H885 H 0.08556 0.92223 0.68602 0.0
H886 H 0.06594 0.92285 0.71924 0.0
H887 H 0.98005 0.95257 0.72289 0.0
H888 H 0.91216 0.91787 0.80887 0.0
H889 H 0.93295 0.91863 0.77593 0.0
H890 H 0.01888 0.89509 0.77358 0.0
C891 C 0.05235 0.92375 0.70668 0.0
C892 C 0.98865 0.93981 0.73375 0.0
C893 C 0.06363 0.92359 0.68775 0.0
C894 C 0.93414 0.91921 0.80751 0.0
C895 C 0.94602 0.91972 0.78878 0.0
C896 C 0.01037 0.90782 0.76264 0.0
C897 C 0.02388 0.92531 0.7093 0.0
C898 C 0.01165 0.92483 0.72932 0.0
C899 C 0.97453 0.92145 0.7867 0.0
C900 C 0.98724 0.92258 0.76694 0.0
H901 H 0.00488 0.92754 0.66106 0.0
H902 H 0.98501 0.9273 0.69399 0.0
H903 H 0.03977 0.89675 0.74102 0.0
H904 H 0.99207 0.92291 0.83519 0.0
H905 H 0.01293 0.92375 0.8025 0.0
C906 C 0.47889 0.07966 0.67213 0.0
C907 C 0.45051 0.08063 0.66975 0.0
C908 C 0.49037 0.08008 0.69092 0.0
C909 C 0.47536 0.09786 0.74249 0.0
H910 H 0.53844 0.05566 0.7536 0.0
C911 C 0.51815 0.08307 0.82078 0.0
C912 C 0.5466 0.08331 0.82291 0.0
C913 C 0.50638 0.08345 0.80209 0.0
C914 C 0.52101 0.06773 0.75064 0.0
H915 H 0.41175 0.0842 0.68468 0.0
H916 H 0.43166 0.08411 0.71782 0.0
H917 H 0.51754 0.05427 0.72107 0.0
H918 H 0.58521 0.08602 0.80764 0.0
H919 H 0.56465 0.08633 0.77463 0.0
H920 H 0.47889 0.11122 0.77218 0.0
C921 C 0.44515 0.0831 0.70521 0.0
C922 C 0.50897 0.06691 0.73202 0.0
C923 C 0.43371 0.08296 0.68633 0.0
C924 C 0.56321 0.08519 0.80618 0.0
C925 C 0.55146 0.0853 0.78741 0.0
C926 C 0.48735 0.0986 0.76115 0.0
C927 C 0.47365 0.08161 0.70771 0.0
C928 C 0.48603 0.08201 0.72769 0.0
C929 C 0.52292 0.08424 0.7852 0.0
C930 C 0.51035 0.08361 0.76538 0.0
H931 H 0.49223 0.07874 0.65941 0.0
H932 H 0.51239 0.07953 0.69224 0.0
H933 H 0.45804 0.11008 0.73958 0.0
H934 H 0.50501 0.08238 0.83362 0.0
H935 H 0.48437 0.08252 0.80085 0.0
C936 C 0.52073 0.58364 0.17148 0.0
C937 C 0.54915 0.58447 0.16922 0.0
C938 C 0.50914 0.58401 0.19023 0.0
C939 C 0.5243 0.56931 0.24172 0.0
H940 H 0.46086 0.61114 0.25257 0.0
C941 C 0.4816 0.58099 0.32015 0.0
C942 C 0.45319 0.58175 0.32241 0.0
C943 C 0.49324 0.58153 0.30142 0.0
C944 C 0.47831 0.59906 0.24973 0.0
H945 H 0.58783 0.58812 0.18428 0.0
H946 H 0.56757 0.58837 0.2174 0.0
H947 H 0.48162 0.61214 0.21996 0.0
H948 H 0.41453 0.58508 0.30731 0.0
H949 H 0.4347 0.58516 0.27428 0.0
H950 H 0.52102 0.5561 0.27137 0.0
C951 C 0.55429 0.58692 0.20468 0.0
C952 C 0.49026 0.59972 0.23107 0.0
C953 C 0.56587 0.58684 0.18585 0.0
C954 C 0.43651 0.58401 0.30576 0.0
C955 C 0.44811 0.58425 0.28694 0.0
C956 C 0.51229 0.56856 0.26036 0.0
C957 C 0.5258 0.58536 0.20703 0.0
C958 C 0.51339 0.5849 0.2269 0.0
C959 C 0.47664 0.58296 0.28455 0.0
C960 C 0.48915 0.58344 0.26461 0.0
H961 H 0.50749 0.58255 0.15872 0.0
H962 H 0.48716 0.58268 0.19158 0.0
H963 H 0.54187 0.55739 0.23881 0.0
H964 H 0.49483 0.58012 0.33293 0.0
H965 H 0.51527 0.58113 0.30019 0.0
C966 C 0.02011 0.42257 0.32213 0.0
C967 C 0.04856 0.42191 0.32421 0.0
C968 C 0.00829 0.4224 0.30345 0.0
C969 C 0.02289 0.4379 0.25198 0.0
H970 H 0.95953 0.39594 0.24105 0.0
C971 C 0.98068 0.4256 0.17351 0.0
C972 C 0.95229 0.42473 0.17112 0.0
C973 C 0.99214 0.42537 0.19231 0.0
C974 C 0.97695 0.40807 0.24393 0.0
H975 H 0.08708 0.41871 0.30887 0.0
H976 H 0.06641 0.41877 0.27589 0.0
H977 H 0.98042 0.39477 0.27363 0.0
H978 H 0.9135 0.42155 0.18606 0.0
H979 H 0.93337 0.42195 0.2192 0.0
H980 H 0.01948 0.4513 0.22238 0.0
C981 C 0.05328 0.41996 0.28869 0.0
C982 C 0.98898 0.4073 0.26257 0.0
C983 C 0.06509 0.41986 0.30745 0.0
C984 C 0.93545 0.42271 0.18771 0.0
C985 C 0.94688 0.42275 0.20659 0.0
C986 C 0.01081 0.43875 0.23336 0.0
C987 C 0.02476 0.42141 0.28654 0.0
C988 C 0.01212 0.42213 0.26674 0.0
C989 C 0.97539 0.42412 0.2091 0.0
C990 C 0.98775 0.42378 0.22908 0.0
H991 H 0.00702 0.42342 0.33498 0.0
H992 H 0.98629 0.42363 0.30225 0.0
H993 H 0.04045 0.44985 0.2549 0.0
H994 H 0.99403 0.42629 0.16079 0.0
H995 H 0.01415 0.42582 0.19364 0.0
C996 C 0.56528 0.42048 0.68621 0.0
C997 C 0.54844 0.42275 0.66964 0.0
C998 C 0.55388 0.4205 0.7051 0.0
C999 C 0.49017 0.43695 0.73198 0.0
H1000 H 0.52055 0.393 0.77225 0.0
C1001 C 0.43669 0.41907 0.80656 0.0
C1002 C 0.45349 0.42114 0.82318 0.0
C1003 C 0.44821 0.41895 0.78771 0.0
C1004 C 0.512 0.40552 0.76119 0.0
H1005 H 0.5067 0.42469 0.65934 0.0
H1006 H 0.48662 0.42417 0.69221 0.0
H1007 H 0.54112 0.39381 0.73957 0.0
H1008 H 0.4952 0.42245 0.83362 0.0
H1009 H 0.51544 0.42225 0.80073 0.0
H1010 H 0.46088 0.44842 0.75363 0.0
C1011 C 0.50863 0.42355 0.69086 0.0
C1012 C 0.52384 0.40608 0.74248 0.0
C1013 C 0.52007 0.42381 0.67205 0.0
C1014 C 0.48191 0.4216 0.82087 0.0
C1015 C 0.49345 0.42119 0.80211 0.0
C1016 C 0.47828 0.43631 0.75066 0.0
C1017 C 0.52539 0.42208 0.70764 0.0
C1018 C 0.51308 0.42181 0.72764 0.0
C1019 C 0.47672 0.42016 0.78533 0.0
C1020 C 0.48907 0.42058 0.76543 0.0
H1021 H 0.58722 0.41918 0.68454 0.0
H1022 H 0.5674 0.41955 0.71769 0.0
H1023 H 0.48152 0.4495 0.721 0.0
H1024 H 0.41472 0.41808 0.80816 0.0
H1025 H 0.43488 0.41774 0.77502 0.0
C1026 C 0.02197 0.57815 0.82086 0.0
C1027 C 0.05033 0.57958 0.82327 0.0
C1028 C 0.01052 0.57821 0.80207 0.0
C1029 C 0.02526 0.59605 0.7505 0.0
H1030 H 0.96244 0.55337 0.73955 0.0
C1031 C 0.98144 0.5817 0.67243 0.0
C1032 C 0.95295 0.58204 0.67055 0.0
C1033 C 0.99351 0.58184 0.69102 0.0
C1034 C 0.97981 0.56556 0.74247 0.0
H1035 H 0.08905 0.58356 0.80834 0.0
H1036 H 0.0692 0.58286 0.77519 0.0
H1037 H 0.98371 0.55192 0.77196 0.0
H1038 H 0.91461 0.58465 0.68617 0.0
H1039 H 0.93571 0.5845 0.719 0.0
H1040 H 0.0213 0.60957 0.72089 0.0
C1041 C 0.05571 0.58176 0.7878 0.0
C1042 C 0.99206 0.56472 0.76102 0.0
C1043 C 0.06713 0.58197 0.80669 0.0
C1044 C 0.93663 0.58375 0.68743 0.0
C1045 C 0.94869 0.5836 0.7061 0.0
C1046 C 0.01308 0.59679 0.73191 0.0
C1047 C 0.02724 0.57984 0.78528 0.0
C1048 C 0.01485 0.58005 0.76531 0.0
C1049 C 0.97725 0.58246 0.70805 0.0
C1050 C 0.99015 0.58167 0.72776 0.0
H1051 H 0.00863 0.57716 0.83358 0.0
H1052 H 0.98852 0.57735 0.80074 0.0
H1053 H 0.04246 0.60844 0.75338 0.0
H1054 H 0.99436 0.58112 0.65948 0.0
H1055 H 0.01554 0.58086 0.69207 0.0
C1056 C 0.01531 0.15759 0.09783 0.0
C1057 C 0.04341 0.15223 0.09718 0.0
C1058 C 0.00571 0.18218 0.0942 0.0
C1059 C 0.02757 0.24808 0.09912 0.0
H1060 H 0.96122 0.2636 0.07039 0.0
C1061 C 0.98767 0.35049 0.09608 0.0
C1062 C 0.95943 0.35405 0.09827 0.0
C1063 C 0.99833 0.32637 0.09224 0.0
C1064 C 0.97965 0.25959 0.07862 0.0
H1065 H 0.08339 0.16824 0.09141 0.0
H1066 H 0.06659 0.21136 0.08523 0.0
H1067 H 0.97926 0.22025 0.07015 0.0
H1068 H 0.92008 0.33534 0.09743 0.0
H1069 H 0.93868 0.29292 0.09139 0.0
H1070 H 0.02755 0.28685 0.10838 0.0
C1071 C 0.05203 0.19648 0.0886 0.0
C1072 C 0.99005 0.23476 0.07839 0.0
C1073 C 0.06163 0.17177 0.09203 0.0
C1074 C 0.94193 0.33316 0.09572 0.0
C1075 C 0.95265 0.30885 0.09219 0.0
C1076 C 0.01707 0.27277 0.09953 0.0
C1077 C 0.024 0.20204 0.09003 0.0
C1078 C 0.01403 0.22871 0.08877 0.0
C1079 C 0.98108 0.30504 0.09087 0.0
C1080 C 0.99286 0.27889 0.08939 0.0
H1081 H 0.00073 0.14292 0.1017 0.0
H1082 H 0.98404 0.18587 0.09556 0.0
H1083 H 0.04579 0.24395 0.10758 0.0
H1084 H 0.00165 0.36632 0.09771 0.0
H1085 H 0.02023 0.3244 0.09075 0.0
C1086 C 0.43901 0.83382 0.0905 0.0
C1087 C 0.45768 0.85295 0.09573 0.0
C1088 C 0.44817 0.80918 0.08627 0.0
C1089 C 0.50954 0.77069 0.07434 0.0
H1090 H 0.47278 0.71823 0.10442 0.0
C1091 C 0.55881 0.67307 0.092 0.0
C1092 C 0.5416 0.65202 0.09479 0.0
C1093 C 0.54774 0.69714 0.08812 0.0
C1094 C 0.48302 0.73242 0.09552 0.0
H1095 H 0.50064 0.86168 0.09948 0.0
H1096 H 0.51654 0.81888 0.09201 0.0
H1097 H 0.45445 0.76109 0.1041 0.0
H1098 H 0.49958 0.63915 0.0942 0.0
H1099 H 0.48041 0.68068 0.08666 0.0
H1100 H 0.53833 0.74201 0.06593 0.0
C1101 C 0.49487 0.82282 0.09118 0.0
C1102 C 0.47246 0.75708 0.09539 0.0
C1103 C 0.48572 0.84732 0.09559 0.0
C1104 C 0.51333 0.65513 0.09239 0.0
C1105 C 0.50233 0.67901 0.08821 0.0
C1106 C 0.52001 0.7459 0.07432 0.0
C1107 C 0.47618 0.8033 0.08696 0.0
C1108 C 0.48582 0.7766 0.08507 0.0
C1109 C 0.51927 0.70054 0.0867 0.0
C1110 C 0.50712 0.7265 0.08517 0.0
H1111 H 0.41728 0.8376 0.09046 0.0
H1112 H 0.43329 0.79456 0.08289 0.0
H1113 H 0.52016 0.78532 0.06611 0.0
H1114 H 0.58067 0.67122 0.09384 0.0
H1115 H 0.56147 0.71324 0.0872 0.0
C1116 C 0.43995 0.6711 0.40069 0.0
C1117 C 0.45839 0.6517 0.39566 0.0
C1118 C 0.44937 0.69579 0.40449 0.0
C1119 C 0.51109 0.73412 0.4158 0.0
H1120 H 0.47421 0.78649 0.38574 0.0
C1121 C 0.55992 0.83232 0.39885 0.0
C1122 C 0.54257 0.8533 0.39624 0.0
C1123 C 0.54901 0.80807 0.40237 0.0
C1124 C 0.4845 0.77233 0.39461 0.0
H1125 H 0.50123 0.64262 0.39174 0.0
H1126 H 0.51758 0.68551 0.39849 0.0
H1127 H 0.45587 0.7436 0.38615 0.0
H1128 H 0.50043 0.86578 0.39667 0.0
H1129 H 0.48153 0.82396 0.40359 0.0
H1130 H 0.53988 0.76285 0.42415 0.0
C1131 C 0.49589 0.68174 0.39949 0.0
C1132 C 0.47394 0.74764 0.3948 0.0
C1133 C 0.48648 0.65717 0.3955 0.0
C1134 C 0.5143 0.84989 0.39837 0.0
C1135 C 0.50345 0.82582 0.40218 0.0
C1136 C 0.52155 0.75893 0.41577 0.0
C1137 C 0.47741 0.70148 0.40355 0.0
C1138 C 0.48729 0.72816 0.40515 0.0
C1139 C 0.52055 0.80441 0.4036 0.0
C1140 C 0.50859 0.77832 0.40495 0.0
H1141 H 0.41819 0.66747 0.40094 0.0
H1142 H 0.43465 0.71057 0.40777 0.0
H1143 H 0.52172 0.71953 0.42405 0.0
H1144 H 0.58179 0.83439 0.3972 0.0
H1145 H 0.56287 0.79208 0.40322 0.0
C1146 C 0.01586 0.34702 0.39746 0.0
C1147 C 0.04392 0.35264 0.39765 0.0
C1148 C 0.0066 0.32241 0.40142 0.0
C1149 C 0.02904 0.2567 0.39656 0.0
H1150 H 0.96298 0.24092 0.42558 0.0
C1151 C 0.98906 0.15432 0.3992 0.0
C1152 C 0.96083 0.15088 0.39683 0.0
C1153 C 0.9998 0.17834 0.40331 0.0
C1154 C 0.98135 0.24501 0.4173 0.0
H1155 H 0.0842 0.3371 0.40299 0.0
H1156 H 0.068 0.29391 0.40978 0.0
H1157 H 0.98091 0.28433 0.42579 0.0
H1158 H 0.92155 0.16968 0.39771 0.0
H1159 H 0.94028 0.21194 0.40426 0.0
H1160 H 0.02903 0.21794 0.38728 0.0
C1161 C 0.0532 0.30861 0.40649 0.0
C1162 C 0.99168 0.26986 0.4175 0.0
C1163 C 0.06247 0.33335 0.40272 0.0
C1164 C 0.94339 0.17177 0.39955 0.0
C1165 C 0.95418 0.19598 0.40337 0.0
C1166 C 0.01861 0.23197 0.3962 0.0
C1167 C 0.0252 0.30277 0.40549 0.0
C1168 C 0.0155 0.27602 0.40697 0.0
C1169 C 0.98262 0.19969 0.4048 0.0
C1170 C 0.99448 0.22578 0.40641 0.0
H1171 H 0.00104 0.36149 0.39366 0.0
H1172 H 0.98494 0.31851 0.40037 0.0
H1173 H 0.04713 0.2609 0.38799 0.0
H1174 H 0.003 0.13848 0.39744 0.0
H1175 H 0.0217 0.18024 0.40488 0.0
C1176 C 0.0126 0.6533 0.89765 0.0
C1177 C 0.04096 0.65005 0.89604 0.0
C1178 C 0.00149 0.67724 0.90152 0.0
C1179 C 0.01885 0.74385 0.91645 0.0
H1180 H 0.95391 0.75968 0.88616 0.0
C1181 C 0.98371 0.84594 0.89733 0.0
C1182 C 0.95558 0.85125 0.89728 0.0
C1183 C 0.99318 0.82133 0.90105 0.0
C1184 C 0.97177 0.75548 0.895 0.0
H1185 H 0.08003 0.66916 0.89794 0.0
H1186 H 0.06068 0.71125 0.90406 0.0
H1187 H 0.9725 0.7169 0.88527 0.0
H1188 H 0.91538 0.83513 0.90192 0.0
H1189 H 0.93196 0.79195 0.90825 0.0
H1190 H 0.01858 0.78301 0.92539 0.0
C1191 C 0.04694 0.69521 0.90277 0.0
C1192 C 0.98247 0.73086 0.89453 0.0
C1193 C 0.05809 0.67109 0.89918 0.0
C1194 C 0.93716 0.83163 0.90186 0.0
C1195 C 0.94664 0.8069 0.90536 0.0
C1196 C 0.00826 0.7686 0.91674 0.0
C1197 C 0.01843 0.69871 0.90353 0.0
C1198 C 0.0063 0.7247 0.90512 0.0
C1199 C 0.97474 0.80139 0.90461 0.0
C1200 C 0.98473 0.77473 0.90587 0.0
H1201 H 0.99887 0.63736 0.89554 0.0
H1202 H 0.97952 0.67896 0.90255 0.0
H1203 H 0.03696 0.73979 0.92504 0.0
H1204 H 0.99844 0.86067 0.89391 0.0
H1205 H 0.01491 0.8177 0.9002 0.0
C1206 C 0.44277 0.33238 0.90023 0.0
C1207 C 0.46018 0.35331 0.89756 0.0
C1208 C 0.45361 0.30821 0.90412 0.0
C1209 C 0.51812 0.27253 0.89695 0.0
H1210 H 0.48048 0.21983 0.92623 0.0
C1211 C 0.56171 0.17101 0.90224 0.0
C1212 C 0.54301 0.1519 0.89701 0.0
C1213 C 0.55259 0.19569 0.90639 0.0
C1214 C 0.49124 0.23439 0.91804 0.0
H1215 H 0.5023 0.36587 0.89837 0.0
H1216 H 0.52106 0.3242 0.90592 0.0
H1217 H 0.46252 0.26321 0.9263 0.0
H1218 H 0.50004 0.14325 0.89319 0.0
H1219 H 0.48422 0.18612 0.90053 0.0
H1220 H 0.54662 0.24372 0.88851 0.0
C1221 C 0.49917 0.32602 0.90427 0.0
C1222 C 0.48089 0.25923 0.918 0.0
C1223 C 0.4884 0.34999 0.90009 0.0
C1224 C 0.51498 0.1576 0.89708 0.0
C1225 C 0.50587 0.18214 0.90142 0.0
C1226 C 0.52856 0.24782 0.89714 0.0
C1227 C 0.48204 0.30461 0.90566 0.0
C1228 C 0.49399 0.27857 0.9072 0.0
C1229 C 0.5246 0.20163 0.90562 0.0
C1230 C 0.51503 0.22837 0.90742 0.0
H1231 H 0.42094 0.3344 0.89828 0.0
H1232 H 0.43975 0.2922 0.90495 0.0
H1233 H 0.52852 0.28666 0.8881 0.0
H1234 H 0.58343 0.16719 0.90233 0.0
H1235 H 0.56749 0.21028 0.90978 0.0
C1236 C 0.48635 0.15383 0.59433 0.0
C1237 C 0.45809 0.15035 0.5965 0.0
C1238 C 0.49713 0.17792 0.59051 0.0
C1239 C 0.47879 0.2448 0.57701 0.0
H1240 H 0.54465 0.26018 0.60641 0.0
C1241 C 0.5141 0.34659 0.59712 0.0
C1242 C 0.5422 0.35203 0.59675 0.0
C1243 C 0.5046 0.32203 0.59322 0.0
C1244 C 0.52652 0.25612 0.59783 0.0
H1245 H 0.41882 0.16918 0.59559 0.0
H1246 H 0.43762 0.21154 0.58957 0.0
H1247 H 0.52637 0.21727 0.60687 0.0
H1248 H 0.5823 0.33619 0.59119 0.0
H1249 H 0.56568 0.29311 0.58454 0.0
H1250 H 0.47852 0.28421 0.56876 0.0
C1251 C 0.45152 0.19557 0.59039 0.0
C1252 C 0.516 0.23143 0.59804 0.0
C1253 C 0.44069 0.1713 0.59391 0.0
C1254 C 0.56054 0.33259 0.59161 0.0
C1255 C 0.55104 0.30791 0.58791 0.0
C1256 C 0.48922 0.26963 0.57697 0.0
C1257 C 0.47997 0.1993 0.58913 0.0
C1258 C 0.49186 0.22541 0.58777 0.0
C1259 C 0.523 0.30227 0.58905 0.0
C1260 C 0.51308 0.27559 0.58752 0.0
H1261 H 0.50026 0.13796 0.59601 0.0
H1262 H 0.51904 0.17982 0.58907 0.0
H1263 H 0.46042 0.24086 0.56868 0.0
H1264 H 0.49943 0.36118 0.60098 0.0
H1265 H 0.48292 0.31828 0.59438 0.0
C1266 C 0.05537 0.83345 0.59554 0.0
C1267 C 0.03799 0.85426 0.59878 0.0
C1268 C 0.04452 0.80921 0.59193 0.0
C1269 C 0.98065 0.77271 0.60032 0.0
H1270 H 0.01719 0.72125 0.56906 0.0
C1271 C 0.93698 0.67128 0.59312 0.0
C1272 C 0.95582 0.65197 0.59756 0.0
C1273 C 0.94596 0.69616 0.58956 0.0
C1274 C 0.00675 0.73546 0.57782 0.0
H1275 H 0.99574 0.86643 0.59947 0.0
H1276 H 0.97689 0.82462 0.59244 0.0
H1277 H 0.03491 0.76472 0.56946 0.0
H1278 H 0.99888 0.64326 0.60062 0.0
H1279 H 0.01448 0.68649 0.59423 0.0
H1280 H 0.95265 0.74344 0.60877 0.0
C1281 C 0.99884 0.82661 0.59339 0.0
C1282 C 0.01697 0.76035 0.57814 0.0
C1283 C 0.00966 0.85067 0.59728 0.0
C1284 C 0.98384 0.65774 0.59732 0.0
C1285 C 0.99281 0.6825 0.59354 0.0
C1286 C 0.97033 0.74795 0.59984 0.0
C1287 C 0.01605 0.80538 0.59125 0.0
C1288 C 0.00427 0.77925 0.58962 0.0
C1289 C 0.97396 0.70213 0.59012 0.0
C1290 C 0.98346 0.72894 0.58882 0.0
H1291 H 0.0773 0.83564 0.59669 0.0
H1292 H 0.05846 0.79334 0.59053 0.0
H1293 H 0.97059 0.78648 0.60968 0.0
H1294 H 0.91527 0.66741 0.59321 0.0
H1295 H 0.93097 0.71087 0.58678 0.0
C1296 C 0.9688 0.99133 0.92486 0.0
C1297 C 0.95858 0.96645 0.92284 0.0
C1298 C 0.9783 1.00006 0.94301 0.0
C1299 C 0.9749 0.9879 0.99641 0.0
H1300 H 0.0419 0.02723 -0.00245 0.0
C1301 C 0.02974 0.01265 0.0689 0.0
C1302 C 0.04022 0.03745 0.07092 0.0
C1303 C 0.01987 0.00412 0.05079 0.0
C1304 C 0.02301 0.01653 -0.00255 0.0
H1305 H 0.95013 0.93131 0.93853 0.0
H1306 H 0.96696 0.94657 0.97023 0.0
H1307 H 0.02416 0.01192 0.96615 0.0
H1308 H 0.04861 0.07265 0.05533 0.0
H1309 H 0.03115 0.05774 0.02371 0.0
H1310 H 0.97377 0.99249 0.02772 0.0
C1311 C 0.96733 0.95937 0.95773 0.0
C1312 C 0.01284 0.00774 0.97947 0.0
C1313 C 0.95778 0.95061 0.93953 0.0
C1314 C 0.04079 0.05342 0.0543 0.0
C1315 C 0.03088 0.04485 0.03616 0.0
C1316 C 0.98506 0.99669 0.01439 0.0
C1317 C 0.97787 0.98414 0.95961 0.0
C1318 C 0.98867 0.99334 0.97875 0.0
C1319 C 0.02017 0.02015 0.03425 0.0
C1320 C 0.00925 0.01107 0.01511 0.0
H1321 H 0.96963 0.00415 0.91238 0.0
H1322 H 0.98587 0.01937 0.94405 0.0
H1323 H 0.95602 0.97717 0.99631 0.0
H1324 H 0.02903 0.99974 0.08132 0.0
H1325 H 0.01216 0.98486 0.04973 0.0
C1326 C 0.54137 0.05247 0.93824 0.0
C1327 C 0.5376 0.03741 0.92132 0.0
C1328 C 0.53244 0.04392 0.95664 0.0
C1329 C 0.4843 0.99903 0.97977 0.0
H1330 H 0.52975 0.00844 0.02598 0.0
C1331 C 0.45959 0.9524 0.0547 0.0
C1332 C 0.46331 0.96742 0.07164 0.0
C1333 C 0.46857 0.96097 0.03632 0.0
C1334 C 0.5167 0.00592 0.01325 0.0
H1335 H 0.52157 1.00143 0.9106 0.0
H1336 H 0.50632 0.98653 0.94267 0.0
H1337 H 0.54574 0.02345 0.994 0.0
H1338 H 0.47936 0.00337 0.08242 0.0
H1339 H 0.49469 0.01832 0.05039 0.0
H1340 H 0.45526 0.9815 -0.00099 0.0
C1341 C 0.51587 0.00508 0.94165 0.0
C1342 C 0.52586 0.01452 0.99494 0.0
C1343 C 0.5248 0.01358 0.92328 0.0
C1344 C 0.47614 0.99125 0.06973 0.0
C1345 C 0.48513 0.99978 0.05137 0.0
C1346 C 0.47515 0.99043 -0.00192 0.0
C1347 C 0.51952 0.02017 0.95852 0.0
C1348 C 0.50976 0.01116 0.978 0.0
C1349 C 0.4815 0.98473 0.03448 0.0
C1350 C 0.49124 0.99378 0.01501 0.0
H1351 H 0.55106 0.07095 0.9373 0.0
H1352 H 0.53527 0.0561 0.96935 0.0
H1353 H 0.47125 0.99651 0.96704 0.0
H1354 H 0.44987 0.93393 0.0556 0.0
H1355 H 0.46575 0.94881 0.0236 0.0
C1356 C 0.47207 0.01193 0.569 0.0
C1357 C 0.46058 0.03632 0.571 0.0
C1358 C 0.48164 0.0035 0.55078 0.0
C1359 C 0.47587 0.01494 0.49741 0.0
H1360 H 0.54462 0.97846 0.49519 0.0
C1361 C 0.52903 0.99159 0.42401 0.0
C1362 C 0.5405 0.9672 0.42194 0.0
C1363 C 0.5195 0.99996 0.44225 0.0
C1364 C 0.52525 0.98837 0.4956 0.0
H1365 H 0.45007 0.07092 0.55525 0.0
H1366 H 0.46699 0.05618 0.52345 0.0
H1367 H 0.52732 0.99336 0.52685 0.0
H1368 H 0.55103 0.93255 0.43761 0.0
H1369 H 0.53417 0.94718 0.46946 0.0
H1370 H 0.47379 0.00995 0.46616 0.0
C1371 C 0.46829 0.04352 0.53601 0.0
C1372 C 0.51534 0.99691 0.51372 0.0
C1373 C 0.45871 0.052 0.55426 0.0
C1374 C 0.5424 0.95147 0.43865 0.0
C1375 C 0.53285 0.95988 0.45693 0.0
C1376 C 0.48577 0.0064 0.47929 0.0
C1377 C 0.47998 0.01922 0.5341 0.0
C1378 C 0.49054 0.01029 0.51482 0.0
C1379 C 0.52117 0.98417 0.45889 0.0
C1380 C 0.51058 0.99304 0.47818 0.0
H1381 H 0.47382 0.99927 0.58153 0.0
H1382 H 0.49016 0.98453 0.54973 0.0
H1383 H 0.4565 0.02485 0.49781 0.0
H1384 H 0.52727 0.0043 0.41151 0.0
H1385 H 0.51099 0.01892 0.44335 0.0
C1386 C 0.0242 0.99147 0.56946 0.0
C1387 C 0.03642 0.96744 0.57178 0.0
C1388 C 0.01502 0.99951 0.55103 0.0
C1389 C 0.02368 0.9882 0.4979 0.0
H1390 H 0.95417 0.02311 0.49392 0.0
C1391 C 0.97429 0.01227 0.42313 0.0
C1392 C 0.96236 0.03649 0.42117 0.0
C1393 C 0.98298 0.00354 0.44151 0.0
C1394 C 0.97375 0.01363 0.49482 0.0
H1395 H 0.04854 0.93303 0.55638 0.0
H1396 H 0.03234 0.94709 0.52421 0.0
H1397 H 0.97008 0.00826 0.52596 0.0
H1398 H 0.95021 0.07046 0.43712 0.0
H1399 H 0.9656 0.05523 0.46915 0.0
H1400 H 0.02739 0.99364 0.46678 0.0
C1401 C 0.03014 0.95977 0.53669 0.0
C1402 C 0.98286 0.00511 0.51316 0.0
C1403 C 0.03931 0.95168 0.55516 0.0
C1404 C 0.95922 0.05169 0.43807 0.0
C1405 C 0.96791 0.04292 0.45646 0.0
C1406 C 0.01458 0.99672 0.47956 0.0
C1407 C 0.01783 0.98374 0.53445 0.0
C1408 C 0.00796 0.99237 0.51491 0.0
C1409 C 0.97997 0.01879 0.45836 0.0
C1410 C 0.98954 0.00958 0.47783 0.0
H1411 H 0.02162 0.00416 0.5819 0.0
H1412 H 0.00597 0.01823 0.54973 0.0
H1413 H 0.04329 0.97876 0.49882 0.0
H1414 H 0.97702 1.0 0.41047 0.0
H1415 H 0.99186 0.98472 0.44253 0.0
C1416 C 0.543 0.55301 0.05409 0.0
C1417 C 0.53981 0.53794 0.07106 0.0
C1418 C 0.53384 0.54432 0.03579 0.0
C1419 C 0.5152 0.4858 0.00895 0.0
H1420 H 0.47702 0.53234 0.97423 0.0
C1421 C 0.4602 0.45213 0.9384 0.0
C1422 C 0.4635 0.46725 0.92146 0.0
C1423 C 0.46931 0.46075 0.95673 0.0
C1424 C 0.48789 0.51918 0.98368 0.0
H1425 H 0.52441 0.50183 0.082 0.0
H1426 H 0.50832 0.48686 0.05016 0.0
H1427 H 0.49376 0.54742 0.00599 0.0
H1428 H 0.47907 0.50335 0.91062 0.0
H1429 H 0.49506 0.51818 0.94252 0.0
H1430 H 0.50932 0.45757 0.98664 0.0
C1431 C 0.51822 0.50526 0.05097 0.0
C1432 C 0.49749 0.52782 0.00186 0.0
C1433 C 0.52735 0.51393 0.06926 0.0
C1434 C 0.47604 0.49121 0.92333 0.0
C1435 C 0.48511 0.49981 0.94165 0.0
C1436 C 0.50558 0.47716 0.99078 0.0
C1437 C 0.5213 0.52037 0.03405 0.0
C1438 C 0.51126 0.51123 0.01469 0.0
C1439 C 0.4819 0.48467 0.95854 0.0
C1440 C 0.49184 0.49376 0.97794 0.0
H1441 H 0.55254 0.57158 0.0549 0.0
H1442 H 0.5368 0.55627 0.02297 0.0
H1443 H 0.52607 0.47265 0.0184 0.0
H1444 H 0.45061 0.4336 0.93754 0.0
H1445 H 0.46627 0.44877 0.96953 0.0
C1446 C 0.95973 0.45204 0.05528 0.0
C1447 C 0.96224 0.46774 0.07197 0.0
C1448 C 0.96894 0.46037 0.03688 0.0
C1449 C 0.98636 0.51855 0.00914 0.0
H1450 H 0.0271 0.47222 0.97581 0.0
C1451 C 0.04253 0.55202 0.939 0.0
C1452 C 0.04029 0.53636 0.92227 0.0
C1453 C 0.03313 0.5436 0.95732 0.0
C1454 C 0.01552 0.48531 0.98486 0.0
H1455 H 0.97644 0.50459 0.08229 0.0
H1456 H 0.99258 0.51889 0.05032 0.0
H1457 H 0.00979 0.45748 0.00751 0.0
H1458 H 0.02633 0.49951 0.91179 0.0
H1459 H 0.00984 0.48506 0.94362 0.0
H1460 H 0.99209 0.54637 0.9865 0.0
C1461 C 0.98319 0.50029 0.05141 0.0
C1462 C 0.00558 0.47685 0.003 0.0
C1463 C 0.97404 0.49198 0.06978 0.0
C1464 C 0.02854 0.51207 0.92433 0.0
C1465 C 0.01918 0.50369 0.94263 0.0
C1466 C 0.9963 0.527 0.991 0.0
C1467 C 0.9808 0.48457 0.03477 0.0
C1468 C 0.99093 0.49339 0.01534 0.0
C1469 C 0.02131 0.51937 0.95931 0.0
C1470 C 0.011 0.51047 0.97867 0.0
H1471 H 0.95073 0.43327 0.0564 0.0
H1472 H 0.96656 0.44794 0.02427 0.0
H1473 H 0.9748 0.53164 0.0182 0.0
H1474 H 0.05149 0.57081 0.93797 0.0
H1475 H 0.03533 0.55601 0.96996 0.0
C1476 C 0.95893 0.5528 0.55518 0.0
C1477 C 0.9611 0.53714 0.57191 0.0
C1478 C 0.96827 0.54434 0.53686 0.0
C1479 C 0.01528 0.49789 0.51435 0.0
H1480 H 0.97331 0.51071 0.46695 0.0
C1481 C 0.04176 0.45198 0.43941 0.0
C1482 C 0.0397 0.46753 0.42261 0.0
C1483 C 0.03234 0.46056 0.45767 0.0
C1484 C 0.98541 0.50722 0.48003 0.0
H1485 H 0.97453 0.5001 0.58233 0.0
H1486 H 0.99044 0.48539 0.55042 0.0
H1487 H 0.95624 0.52566 0.49866 0.0
H1488 H 0.02629 0.50448 0.41199 0.0
H1489 H 0.01023 0.51942 0.44382 0.0
H1490 H 0.04444 0.47945 0.49573 0.0
C1491 C 0.9819 0.50434 0.55153 0.0
C1492 C 0.97563 0.51579 0.49818 0.0
C1493 C 0.97258 0.51276 0.56982 0.0
C1494 C 0.02818 0.49192 0.42457 0.0
C1495 C 0.01877 0.50046 0.4428 0.0
C1496 C 0.02506 0.48932 0.4962 0.0
C1497 C 0.98001 0.52007 0.53487 0.0
C1498 C 0.99045 0.51119 0.51554 0.0
C1499 C 0.02062 0.48485 0.45954 0.0
C1500 C 0.01023 0.49389 0.47884 0.0
H1501 H 0.95028 0.5717 0.55624 0.0
H1502 H 0.96678 0.557 0.52431 0.0
H1503 H 0.02739 0.49439 0.52742 0.0
H1504 H 0.05042 0.43306 0.43846 0.0
H1505 H 0.03378 0.44798 0.47027 0.0
C1506 C 0.54101 0.45084 0.55395 0.0
C1507 C 0.5391 0.46657 0.57066 0.0
C1508 C 0.53166 0.45933 0.53563 0.0
C1509 C 0.48526 0.50626 0.51302 0.0
H1510 H 0.52738 0.49307 0.46575 0.0
C1511 C 0.45985 0.55246 0.43794 0.0
C1512 C 0.46188 0.53687 0.42117 0.0
C1513 C 0.46902 0.5438 0.45626 0.0
C1514 C 0.51524 0.49666 0.47879 0.0
H1515 H 0.52602 0.50374 0.58106 0.0
H1516 H 0.5101 0.51849 0.54916 0.0
H1517 H 0.54405 0.47789 0.49749 0.0
H1518 H 0.47493 0.49975 0.41064 0.0
H1519 H 0.49053 0.4847 0.44254 0.0
H1520 H 0.45645 0.52505 0.49431 0.0
C1521 C 0.51846 0.49947 0.55028 0.0
C1522 C 0.52478 0.48796 0.49696 0.0
C1523 C 0.52779 0.49103 0.56856 0.0
C1524 C 0.47309 0.51236 0.42319 0.0
C1525 C 0.48223 0.50375 0.44148 0.0
C1526 C 0.47571 0.51497 0.49484 0.0
C1527 C 0.52018 0.4837 0.53363 0.0
C1528 C 0.50992 0.49269 0.51428 0.0
C1529 C 0.48043 0.51939 0.45819 0.0
C1530 C 0.49059 0.51026 0.47753 0.0
H1531 H 0.5495 0.43187 0.55502 0.0
H1532 H 0.53301 0.44663 0.5231 0.0
H1533 H 0.47313 0.50987 0.52606 0.0
H1534 H 0.45142 0.57146 0.43693 0.0
H1535 H 0.46761 0.55641 0.46884 0.0
loop_
_geom_bond_atom_site_label_1
_geom_bond_atom_site_label_2
_geom_bond_distance
_geom_bond_site_symmetry_2
_ccdc_geom_bond_type
Mn0 O5 2.095 . S
Mn0 O15 2.162 . S
Mn0 O16 2.297 . S
Mn0 O24 2.385 . S
Mn0 O25 2.209 . S
Mn0 O26 2.094 . S
Mn1 O6 2.121 . S
Mn1 N8 2.257 1_545 S
Mn1 N17 2.282 . S
Mn1 O25 2.215 . S
Mn1 O27 2.117 . S
C2 O24 1.234 . S
C2 O25 1.283 . S
C3 O15 1.281 . S
C3 O16 1.236 . S
C4 O26 1.240 . S
C4 O27 1.264 . S
O5 Mn0 2.095 . S
O5 C14 1.250 . S
O6 Mn1 2.121 . S
O6 C14 1.258 . S
C7 N8 1.326 1_655 S
C7 C11 1.460 . S
C7 H13 0.929 . S
N8 Mn1 2.257 1_565 S
N8 C7 1.326 1_455 S
N8 C12 1.362 . S
C9 C10 1.258 1_455 S
C9 C12 1.431 . S
C9 C29 1.449 . S
C10 C9 1.258 1_655 S
C10 C11 1.477 . S
C10 H30 0.931 . S
C11 C7 1.460 . S
C11 C10 1.477 . S
C11 H31 0.930 . S
C12 N8 1.362 . S
C12 C9 1.431 . S
C12 C22 1.476 . S
H13 C7 0.929 . S
C14 O5 1.250 . S
C14 O6 1.258 . S
O15 Mn0 2.162 . S
O15 C3 1.281 . S
O16 Mn0 2.297 . S
O16 C3 1.236 . S
N17 Mn1 2.282 . S
N17 C18 1.328 . S
N17 C22 1.318 1_545 S
C18 N17 1.328 . S
C18 C19 1.457 . S
C18 H23 0.929 . S
C19 C18 1.457 . S
C19 C20 1.291 1_545 S
C19 H32 0.931 . S
C20 C19 1.291 1_565 S
C20 C21 1.373 . S
C20 H33 0.929 . S
C21 C20 1.373 . S
C21 C22 1.396 . S
C21 C28 1.403 . S
C22 C12 1.476 . S
C22 N17 1.318 1_565 S
C22 C21 1.396 . S
H23 C18 0.929 . S
O24 Mn0 2.385 . S
O24 C2 1.234 . S
O25 Mn0 2.209 . S
O25 Mn1 2.215 . S
O25 C2 1.283 . S
O26 Mn0 2.094 . S
O26 C4 1.240 . S
O27 Mn1 2.117 . S
O27 C4 1.264 . S
C28 C21 1.403 . S
C28 C29 1.399 . S
C28 H34 0.929 . S
C29 C9 1.449 . S
C29 C28 1.399 . S
C29 H35 0.930 1_455 S
H30 C10 0.931 . S
H31 C11 0.930 . S
H32 C19 0.931 . S
H33 C20 0.929 . S
H34 C28 0.929 . S
H35 C29 0.930 1_655 S
Mn36 O41 2.095 . S
Mn36 O51 2.162 . S
Mn36 O52 2.297 . S
Mn36 O60 2.385 . S
Mn36 O61 2.209 . S
Mn36 O62 2.094 . S
Mn37 O42 2.121 . S
Mn37 N44 2.257 1_565 S
Mn37 N53 2.282 . S
Mn37 O61 2.215 . S
Mn37 O63 2.117 . S
C38 O60 1.234 . S
C38 O61 1.283 . S
C39 O51 1.281 . S
C39 O52 1.236 . S
C40 O62 1.240 . S
C40 O63 1.264 . S
O41 Mn36 2.095 . S
O41 C50 1.250 . S
O42 Mn37 2.121 . S
O42 C50 1.258 . S
C43 N44 1.326 . S
C43 C47 1.460 . S
C43 H49 0.929 . S
N44 Mn37 2.257 1_545 S
N44 C43 1.326 . S
N44 C48 1.362 . S
C45 C46 1.258 . S
C45 C48 1.431 . S
C45 C65 1.449 . S
C46 C45 1.258 . S
C46 C47 1.477 . S
C46 H66 0.931 . S
C47 C43 1.460 . S
C47 C46 1.477 . S
C47 H67 0.930 . S
C48 N44 1.362 . S
C48 C45 1.431 . S
C48 C58 1.476 . S
H49 C43 0.929 . S
C50 O41 1.250 . S
C50 O42 1.258 . S
O51 Mn36 2.162 . S
O51 C39 1.281 . S
O52 Mn36 2.297 . S
O52 C39 1.236 . S
N53 Mn37 2.282 . S
N53 C54 1.328 . S
N53 C58 1.318 1_565 S
C54 N53 1.328 . S
C54 C55 1.457 . S
C54 H59 0.929 . S
C55 C54 1.457 . S
C55 C56 1.291 1_565 S
C55 H68 0.931 . S
C56 C55 1.291 1_545 S
C56 C57 1.373 . S
C56 H69 0.929 . S
C57 C56 1.373 . S
C57 C58 1.396 . S
C57 C64 1.403 . S
C58 C48 1.476 . S
C58 N53 1.318 1_545 S
C58 C57 1.396 . S
H59 C54 0.929 . S
O60 Mn36 2.385 . S
O60 C38 1.234 . S
O61 Mn36 2.209 . S
O61 Mn37 2.215 . S
O61 C38 1.283 . S
O62 Mn36 2.094 . S
O62 C40 1.240 . S
O63 Mn37 2.117 . S
O63 C40 1.264 . S
C64 C57 1.403 . S
C64 C65 1.399 . S
C64 H70 0.929 . S
C65 C45 1.449 . S
C65 C64 1.399 . S
C65 H71 0.930 . S
H66 C46 0.931 . S
H67 C47 0.930 . S
H68 C55 0.931 . S
H69 C56 0.929 . S
H70 C64 0.929 . S
H71 C65 0.930 . S
Mn72 O77 2.095 . S
Mn72 O87 2.162 . S
Mn72 O88 2.297 . S
Mn72 O96 2.385 . S
Mn72 O97 2.209 . S
Mn72 O98 2.094 . S
Mn73 O78 2.121 . S
Mn73 N80 2.257 1_565 S
Mn73 N89 2.282 . S
Mn73 O97 2.215 . S
Mn73 O99 2.117 . S
C74 O96 1.234 . S
C74 O97 1.283 . S
C75 O87 1.281 . S
C75 O88 1.236 . S
C76 O98 1.240 . S
C76 O99 1.264 . S
O77 Mn72 2.095 . S
O77 C86 1.250 . S
O78 Mn73 2.121 . S
O78 C86 1.258 . S
C79 N80 1.326 . S
C79 C83 1.460 . S
C79 H85 0.929 . S
N80 Mn73 2.257 1_545 S
N80 C79 1.326 . S
N80 C84 1.362 . S
C81 C82 1.258 . S
C81 C84 1.431 . S
C81 C101 1.449 . S
C82 C81 1.258 . S
C82 C83 1.477 . S
C82 H102 0.931 . S
C83 C79 1.460 . S
C83 C82 1.477 . S
C83 H103 0.930 . S
C84 N80 1.362 . S
C84 C81 1.431 . S
C84 C94 1.476 . S
H85 C79 0.929 . S
C86 O77 1.250 . S
C86 O78 1.258 . S
O87 Mn72 2.162 . S
O87 C75 1.281 . S
O88 Mn72 2.297 . S
O88 C75 1.236 . S
N89 Mn73 2.282 . S
N89 C90 1.328 . S
N89 C94 1.318 1_565 S
C90 N89 1.328 . S
C90 C91 1.457 . S
C90 H95 0.929 . S
C91 C90 1.457 . S
C91 C92 1.291 1_565 S
C91 H104 0.931 . S
C92 C91 1.291 1_545 S
C92 C93 1.373 . S
C92 H105 0.929 . S
C93 C92 1.373 . S
C93 C94 1.396 . S
C93 C100 1.403 . S
C94 C84 1.476 . S
C94 N89 1.318 1_545 S
C94 C93 1.396 . S
H95 C90 0.929 . S
O96 Mn72 2.385 . S
O96 C74 1.234 . S
O97 Mn72 2.209 . S
O97 Mn73 2.215 . S
O97 C74 1.283 . S
O98 Mn72 2.094 . S
O98 C76 1.240 . S
O99 Mn73 2.117 . S
O99 C76 1.264 . S
C100 C93 1.403 . S
C100 C101 1.399 . S
C100 H106 0.929 . S
C101 C81 1.449 . S
C101 C100 1.399 . S
C101 H107 0.930 . S
H102 C82 0.931 . S
H103 C83 0.930 . S
H104 C91 0.931 . S
H105 C92 0.929 . S
H106 C100 0.929 . S
H107 C101 0.930 . S
Mn108 O113 2.095 . S
Mn108 O123 2.162 . S
Mn108 O124 2.297 . S
Mn108 O132 2.385 . S
Mn108 O133 2.209 . S
Mn108 O134 2.094 . S
Mn109 O114 2.121 . S
Mn109 N116 2.257 1_545 S
Mn109 N125 2.282 . S
Mn109 O133 2.215 . S
Mn109 O135 2.117 . S
C110 O132 1.234 . S
C110 O133 1.283 . S
C111 O123 1.281 . S
C111 O124 1.236 . S
C112 O134 1.240 . S
C112 O135 1.264 . S
O113 Mn108 2.095 . S
O113 C122 1.250 . S
O114 Mn109 2.121 . S
O114 C122 1.258 . S
C115 N116 1.326 1_455 S
C115 C119 1.460 . S
C115 H121 0.929 . S
N116 Mn109 2.257 1_565 S
N116 C115 1.326 1_655 S
N116 C120 1.362 . S
C117 C118 1.258 1_655 S
C117 C120 1.431 . S
C117 C137 1.449 . S
C118 C117 1.258 1_455 S
C118 C119 1.477 . S
C118 H138 0.931 . S
C119 C115 1.460 . S
C119 C118 1.477 . S
C119 H139 0.930 . S
C120 N116 1.362 . S
C120 C117 1.431 . S
C120 C130 1.476 . S
H121 C115 0.929 . S
C122 O113 1.250 . S
C122 O114 1.258 . S
O123 Mn108 2.162 . S
O123 C111 1.281 . S
O124 Mn108 2.297 . S
O124 C111 1.236 . S
N125 Mn109 2.282 . S
N125 C126 1.328 . S
N125 C130 1.318 1_545 S
C126 N125 1.328 . S
C126 C127 1.457 . S
C126 H131 0.929 . S
C127 C126 1.457 . S
C127 C128 1.291 1_545 S
C127 H140 0.931 . S
C128 C127 1.291 1_565 S
C128 C129 1.373 . S
C128 H141 0.929 . S
C129 C128 1.373 . S
C129 C130 1.396 . S
C129 C136 1.403 . S
C130 C120 1.476 . S
C130 N125 1.318 1_565 S
C130 C129 1.396 . S
H131 C126 0.929 . S
O132 Mn108 2.385 . S
O132 C110 1.234 . S
O133 Mn108 2.209 . S
O133 Mn109 2.215 . S
O133 C110 1.283 . S
O134 Mn108 2.094 . S
O134 C112 1.240 . S
O135 Mn109 2.117 . S
O135 C112 1.264 . S
C136 C129 1.403 . S
C136 C137 1.399 . S
C136 H142 0.929 . S
C137 C117 1.449 . S
C137 C136 1.399 . S
C137 H143 0.930 1_655 S
H138 C118 0.931 . S
H139 C119 0.930 . S
H140 C127 0.931 . S
H141 C128 0.929 . S
H142 C136 0.929 . S
H143 C137 0.930 1_455 S
Mn144 O149 2.095 . S
Mn144 O159 2.162 . S
Mn144 O160 2.297 . S
Mn144 O168 2.385 . S
Mn144 O169 2.209 . S
Mn144 O170 2.094 . S
Mn145 O150 2.121 . S
Mn145 N152 2.257 1_565 S
Mn145 N161 2.282 . S
Mn145 O169 2.215 . S
Mn145 O171 2.117 . S
C146 O168 1.234 . S
C146 O169 1.283 . S
C147 O159 1.281 . S
C147 O160 1.236 . S
C148 O170 1.240 . S
C148 O171 1.264 . S
O149 Mn144 2.095 . S
O149 C158 1.250 . S
O150 Mn145 2.121 . S
O150 C158 1.258 . S
C151 N152 1.326 1_455 S
C151 C155 1.460 . S
C151 H157 0.929 . S
N152 Mn145 2.257 1_545 S
N152 C151 1.326 1_655 S
N152 C156 1.362 . S
C153 C154 1.258 1_655 S
C153 C156 1.431 . S
C153 C173 1.449 . S
C154 C153 1.258 1_455 S
C154 C155 1.477 . S
C154 H174 0.931 . S
C155 C151 1.460 . S
C155 C154 1.477 . S
C155 H175 0.930 . S
C156 N152 1.362 . S
C156 C153 1.431 . S
C156 C166 1.476 . S
H157 C151 0.929 . S
C158 O149 1.250 . S
C158 O150 1.258 . S
O159 Mn144 2.162 . S
O159 C147 1.281 . S
O160 Mn144 2.297 . S
O160 C147 1.236 . S
N161 Mn145 2.282 . S
N161 C162 1.328 . S
N161 C166 1.318 1_565 S
C162 N161 1.328 . S
C162 C163 1.457 . S
C162 H167 0.929 . S
C163 C162 1.457 . S
C163 C164 1.291 1_565 S
C163 H176 0.931 . S
C164 C163 1.291 1_545 S
C164 C165 1.373 . S
C164 H177 0.929 . S
C165 C164 1.373 . S
C165 C166 1.396 . S
C165 C172 1.403 . S
C166 C156 1.476 . S
C166 N161 1.318 1_545 S
C166 C165 1.396 . S
H167 C162 0.929 . S
O168 Mn144 2.385 . S
O168 C146 1.234 . S
O169 Mn144 2.209 . S
O169 Mn145 2.215 . S
O169 C146 1.283 . S
O170 Mn144 2.094 . S
O170 C148 1.240 . S
O171 Mn145 2.117 . S
O171 C148 1.264 . S
C172 C165 1.403 . S
C172 C173 1.399 . S
C172 H178 0.929 . S
C173 C153 1.449 . S
C173 C172 1.399 . S
C173 H179 0.930 1_655 S
H174 C154 0.931 . S
H175 C155 0.930 . S
H176 C163 0.931 . S
H177 C164 0.929 . S
H178 C172 0.929 . S
H179 C173 0.930 1_455 S
Mn180 O185 2.095 . S
Mn180 O195 2.162 . S
Mn180 O196 2.297 . S
Mn180 O204 2.385 . S
Mn180 O205 2.209 . S
Mn180 O206 2.094 . S
Mn181 O186 2.121 . S
Mn181 N188 2.257 1_545 S
Mn181 N197 2.282 . S
Mn181 O205 2.215 . S
Mn181 O207 2.117 . S
C182 O204 1.234 . S
C182 O205 1.283 . S
C183 O195 1.281 . S
C183 O196 1.236 . S
C184 O206 1.240 . S
C184 O207 1.264 . S
O185 Mn180 2.095 . S
O185 C194 1.250 . S
O186 Mn181 2.121 . S
O186 C194 1.258 . S
C187 N188 1.326 . S
C187 C191 1.460 . S
C187 H193 0.929 . S
N188 Mn181 2.257 1_565 S
N188 C187 1.326 . S
N188 C192 1.362 . S
C189 C190 1.258 . S
C189 C192 1.431 . S
C189 C209 1.449 . S
C190 C189 1.258 . S
C190 C191 1.477 . S
C190 H210 0.931 . S
C191 C187 1.460 . S
C191 C190 1.477 . S
C191 H211 0.930 . S
C192 N188 1.362 . S
C192 C189 1.431 . S
C192 C202 1.476 . S
H193 C187 0.929 . S
C194 O185 1.250 . S
C194 O186 1.258 . S
O195 Mn180 2.162 . S
O195 C183 1.281 . S
O196 Mn180 2.297 . S
O196 C183 1.236 . S
N197 Mn181 2.282 . S
N197 C198 1.328 . S
N197 C202 1.318 1_545 S
C198 N197 1.328 . S
C198 C199 1.457 . S
C198 H203 0.929 . S
C199 C198 1.457 . S
C199 C200 1.291 1_545 S
C199 H212 0.931 . S
C200 C199 1.291 1_565 S
C200 C201 1.373 . S
C200 H213 0.929 . S
C201 C200 1.373 . S
C201 C202 1.396 . S
C201 C208 1.403 . S
C202 C192 1.476 . S
C202 N197 1.318 1_565 S
C202 C201 1.396 . S
H203 C198 0.929 . S
O204 Mn180 2.385 . S
O204 C182 1.234 . S
O205 Mn180 2.209 . S
O205 Mn181 2.215 . S
O205 C182 1.283 . S
O206 Mn180 2.094 . S
O206 C184 1.240 . S
O207 Mn181 2.117 . S
O207 C184 1.264 . S
C208 C201 1.403 . S
C208 C209 1.399 . S
C208 H214 0.929 . S
C209 C189 1.449 . S
C209 C208 1.399 . S
C209 H215 0.930 . S
H210 C190 0.931 . S
H211 C191 0.930 . S
H212 C199 0.931 . S
H213 C200 0.929 . S
H214 C208 0.929 . S
H215 C209 0.930 . S
Mn216 O221 2.095 . S
Mn216 O231 2.162 . S
Mn216 O232 2.297 . S
Mn216 O240 2.385 . S
Mn216 O241 2.209 . S
Mn216 O242 2.094 . S
Mn217 O222 2.121 . S
Mn217 N224 2.257 1_545 S
Mn217 N233 2.282 . S
Mn217 O241 2.215 . S
Mn217 O243 2.117 . S
C218 O240 1.234 . S
C218 O241 1.283 . S
C219 O231 1.281 . S
C219 O232 1.236 . S
C220 O242 1.240 . S
C220 O243 1.264 . S
O221 Mn216 2.095 . S
O221 C230 1.250 . S
O222 Mn217 2.121 . S
O222 C230 1.258 . S
C223 N224 1.326 . S
C223 C227 1.460 . S
C223 H229 0.929 . S
N224 Mn217 2.257 1_565 S
N224 C223 1.326 . S
N224 C228 1.362 . S
C225 C226 1.258 . S
C225 C228 1.431 . S
C225 C245 1.449 . S
C226 C225 1.258 . S
C226 C227 1.477 . S
C226 H246 0.931 . S
C227 C223 1.460 . S
C227 C226 1.477 . S
C227 H247 0.930 . S
C228 N224 1.362 . S
C228 C225 1.431 . S
C228 C238 1.476 . S
H229 C223 0.929 . S
C230 O221 1.250 . S
C230 O222 1.258 . S
O231 Mn216 2.162 . S
O231 C219 1.281 . S
O232 Mn216 2.297 . S
O232 C219 1.236 . S
N233 Mn217 2.282 . S
N233 C234 1.328 . S
N233 C238 1.318 1_545 S
C234 N233 1.328 . S
C234 C235 1.457 . S
C234 H239 0.929 . S
C235 C234 1.457 . S
C235 C236 1.291 1_545 S
C235 H248 0.931 . S
C236 C235 1.291 1_565 S
C236 C237 1.373 . S
C236 H249 0.929 . S
C237 C236 1.373 . S
C237 C238 1.396 . S
C237 C244 1.403 . S
C238 C228 1.476 . S
C238 N233 1.318 1_565 S
C238 C237 1.396 . S
H239 C234 0.929 . S
O240 Mn216 2.385 . S
O240 C218 1.234 . S
O241 Mn216 2.209 . S
O241 Mn217 2.215 . S
O241 C218 1.283 . S
O242 Mn216 2.094 . S
O242 C220 1.240 . S
O243 Mn217 2.117 . S
O243 C220 1.264 . S
C244 C237 1.403 . S
C244 C245 1.399 . S
C244 H250 0.929 . S
C245 C225 1.449 . S
C245 C244 1.399 . S
C245 H251 0.930 . S
H246 C226 0.931 . S
H247 C227 0.930 . S
H248 C235 0.931 . S
H249 C236 0.929 . S
H250 C244 0.929 . S
H251 C245 0.930 . S
Mn252 O257 2.095 . S
Mn252 O267 2.162 . S
Mn252 O268 2.297 . S
Mn252 O276 2.385 . S
Mn252 O277 2.209 . S
Mn252 O278 2.094 . S
Mn253 O258 2.121 . S
Mn253 N260 2.257 1_565 S
Mn253 N269 2.282 . S
Mn253 O277 2.215 . S
Mn253 O279 2.117 . S
C254 O276 1.234 . S
C254 O277 1.283 . S
C255 O267 1.281 . S
C255 O268 1.236 . S
C256 O278 1.240 . S
C256 O279 1.264 . S
O257 Mn252 2.095 . S
O257 C266 1.250 . S
O258 Mn253 2.121 . S
O258 C266 1.258 . S
C259 N260 1.326 1_655 S
C259 C263 1.460 . S
C259 H265 0.929 . S
N260 Mn253 2.257 1_545 S
N260 C259 1.326 1_455 S
N260 C264 1.362 . S
C261 C262 1.258 1_455 S
C261 C264 1.431 . S
C261 C281 1.449 . S
C262 C261 1.258 1_655 S
C262 C263 1.477 . S
C262 H282 0.931 . S
C263 C259 1.460 . S
C263 C262 1.477 . S
C263 H283 0.930 . S
C264 N260 1.362 . S
C264 C261 1.431 . S
C264 C274 1.476 . S
H265 C259 0.929 . S
C266 O257 1.250 . S
C266 O258 1.258 . S
O267 Mn252 2.162 . S
O267 C255 1.281 . S
O268 Mn252 2.297 . S
O268 C255 1.236 . S
N269 Mn253 2.282 . S
N269 C270 1.328 . S
N269 C274 1.318 1_565 S
C270 N269 1.328 . S
C270 C271 1.457 . S
C270 H275 0.929 . S
C271 C270 1.457 . S
C271 C272 1.291 1_565 S
C271 H284 0.931 . S
C272 C271 1.291 1_545 S
C272 C273 1.373 . S
C272 H285 0.929 . S
C273 C272 1.373 . S
C273 C274 1.396 . S
C273 C280 1.403 . S
C274 C264 1.476 . S
C274 N269 1.318 1_545 S
C274 C273 1.396 . S
H275 C270 0.929 . S
O276 Mn252 2.385 . S
O276 C254 1.234 . S
O277 Mn252 2.209 . S
O277 Mn253 2.215 . S
O277 C254 1.283 . S
O278 Mn252 2.094 . S
O278 C256 1.240 . S
O279 Mn253 2.117 . S
O279 C256 1.264 . S
C280 C273 1.403 . S
C280 C281 1.399 . S
C280 H286 0.929 . S
C281 C261 1.449 . S
C281 C280 1.399 . S
C281 H287 0.930 1_455 S
H282 C262 0.931 . S
H283 C263 0.930 . S
H284 C271 0.931 . S
H285 C272 0.929 . S
H286 C280 0.929 . S
H287 C281 0.930 1_655 S
Mn288 O293 2.095 . S
Mn288 O303 2.162 . S
Mn288 O304 2.297 . S
Mn288 O312 2.385 . S
Mn288 O313 2.209 . S
Mn288 O314 2.094 . S
Mn289 O294 2.121 . S
Mn289 N296 2.257 . S
Mn289 N305 2.282 . S
Mn289 O313 2.215 . S
Mn289 O315 2.117 . S
C290 O312 1.234 . S
C290 O313 1.283 . S
C291 O303 1.281 . S
C291 O304 1.236 . S
C292 O314 1.240 . S
C292 O315 1.264 . S
O293 Mn288 2.095 . S
O293 C302 1.250 . S
O294 Mn289 2.121 . S
O294 C302 1.258 . S
C295 N296 1.326 . S
C295 C299 1.460 . S
C295 H301 0.929 . S
N296 Mn289 2.257 . S
N296 C295 1.326 . S
N296 C300 1.362 . S
C297 C298 1.258 . S
C297 C300 1.431 . S
C297 C317 1.449 . S
C298 C297 1.258 . S
C298 C299 1.477 . S
C298 H318 0.931 . S
C299 C295 1.460 . S
C299 C298 1.477 . S
C299 H319 0.930 . S
C300 N296 1.362 . S
C300 C297 1.431 . S
C300 C310 1.476 . S
H301 C295 0.929 . S
C302 O293 1.250 . S
C302 O294 1.258 . S
O303 Mn288 2.162 . S
O303 C291 1.281 . S
O304 Mn288 2.297 . S
O304 C291 1.236 . S
N305 Mn289 2.282 . S
N305 C306 1.328 . S
N305 C310 1.318 . S
C306 N305 1.328 . S
C306 C307 1.457 . S
C306 H311 0.929 . S
C307 C306 1.457 . S
C307 C308 1.291 . S
C307 H320 0.931 . S
C308 C307 1.291 . S
C308 C309 1.373 . S
C308 H321 0.929 . S
C309 C308 1.373 . S
C309 C310 1.396 . S
C309 C316 1.403 . S
C310 C300 1.476 . S
C310 N305 1.318 . S
C310 C309 1.396 . S
H311 C306 0.929 . S
O312 Mn288 2.385 . S
O312 C290 1.234 . S
O313 Mn288 2.209 . S
O313 Mn289 2.215 . S
O313 C290 1.283 . S
O314 Mn288 2.094 . S
O314 C292 1.240 . S
O315 Mn289 2.117 . S
O315 C292 1.264 . S
C316 C309 1.403 . S
C316 C317 1.399 . S
C316 H322 0.929 . S
C317 C297 1.449 . S
C317 C316 1.399 . S
C317 H323 0.930 . S
H318 C298 0.931 . S
H319 C299 0.930 . S
H320 C307 0.931 . S
H321 C308 0.929 . S
H322 C316 0.929 . S
H323 C317 0.930 . S
Mn324 O329 2.095 . S
Mn324 O339 2.162 . S
Mn324 O340 2.297 . S
Mn324 O348 2.385 . S
Mn324 O349 2.209 . S
Mn324 O350 2.094 . S
Mn325 O330 2.121 . S
Mn325 N332 2.257 . S
Mn325 N341 2.282 . S
Mn325 O349 2.215 . S
Mn325 O351 2.117 . S
C326 O348 1.234 . S
C326 O349 1.283 . S
C327 O339 1.281 . S
C327 O340 1.236 . S
C328 O350 1.240 . S
C328 O351 1.264 . S
O329 Mn324 2.095 . S
O329 C338 1.250 . S
O330 Mn325 2.121 . S
O330 C338 1.258 . S
C331 N332 1.326 1_455 S
C331 C335 1.460 . S
C331 H337 0.929 . S
N332 Mn325 2.257 . S
N332 C331 1.326 1_655 S
N332 C336 1.362 . S
C333 C334 1.258 1_655 S
C333 C336 1.431 . S
C333 C353 1.449 . S
C334 C333 1.258 1_455 S
C334 C335 1.477 . S
C334 H354 0.931 . S
C335 C331 1.460 . S
C335 C334 1.477 . S
C335 H355 0.930 . S
C336 N332 1.362 . S
C336 C333 1.431 . S
C336 C346 1.476 . S
H337 C331 0.929 . S
C338 O329 1.250 . S
C338 O330 1.258 . S
O339 Mn324 2.162 . S
O339 C327 1.281 . S
O340 Mn324 2.297 . S
O340 C327 1.236 . S
N341 Mn325 2.282 . S
N341 C342 1.328 . S
N341 C346 1.318 . S
C342 N341 1.328 . S
C342 C343 1.457 . S
C342 H347 0.929 . S
C343 C342 1.457 . S
C343 C344 1.291 . S
C343 H356 0.931 . S
C344 C343 1.291 . S
C344 C345 1.373 . S
C344 H357 0.929 . S
C345 C344 1.373 . S
C345 C346 1.396 . S
C345 C352 1.403 . S
C346 C336 1.476 . S
C346 N341 1.318 . S
C346 C345 1.396 . S
H347 C342 0.929 . S
O348 Mn324 2.385 . S
O348 C326 1.234 . S
O349 Mn324 2.209 . S
O349 Mn325 2.215 . S
O349 C326 1.283 . S
O350 Mn324 2.094 . S
O350 C328 1.240 . S
O351 Mn325 2.117 . S
O351 C328 1.264 . S
C352 C345 1.403 . S
C352 C353 1.399 . S
C352 H358 0.929 . S
C353 C333 1.449 . S
C353 C352 1.399 . S
C353 H359 0.930 1_655 S
H354 C334 0.931 . S
H355 C335 0.930 . S
H356 C343 0.931 . S
H357 C344 0.929 . S
H358 C352 0.929 . S
H359 C353 0.930 1_455 S
Mn360 O365 2.095 . S
Mn360 O375 2.162 . S
Mn360 O376 2.297 . S
Mn360 O384 2.385 . S
Mn360 O385 2.209 . S
Mn360 O386 2.094 . S
Mn361 O366 2.121 . S
Mn361 N368 2.257 . S
Mn361 N377 2.282 . S
Mn361 O385 2.215 . S
Mn361 O387 2.117 . S
C362 O384 1.234 . S
C362 O385 1.283 . S
C363 O375 1.281 . S
C363 O376 1.236 . S
C364 O386 1.240 . S
C364 O387 1.264 . S
O365 Mn360 2.095 . S
O365 C374 1.250 . S
O366 Mn361 2.121 . S
O366 C374 1.258 . S
C367 N368 1.326 1_655 S
C367 C371 1.460 . S
C367 H373 0.929 . S
N368 Mn361 2.257 . S
N368 C367 1.326 1_455 S
N368 C372 1.362 . S
C369 C370 1.258 1_455 S
C369 C372 1.431 . S
C369 C389 1.449 . S
C370 C369 1.258 1_655 S
C370 C371 1.477 . S
C370 H390 0.931 . S
C371 C367 1.460 . S
C371 C370 1.477 . S
C371 H391 0.930 . S
C372 N368 1.362 . S
C372 C369 1.431 . S
C372 C382 1.476 . S
H373 C367 0.929 . S
C374 O365 1.250 . S
C374 O366 1.258 . S
O375 Mn360 2.162 . S
O375 C363 1.281 . S
O376 Mn360 2.297 . S
O376 C363 1.236 . S
N377 Mn361 2.282 . S
N377 C378 1.328 . S
N377 C382 1.318 . S
C378 N377 1.328 . S
C378 C379 1.457 . S
C378 H383 0.929 . S
C379 C378 1.457 . S
C379 C380 1.291 . S
C379 H392 0.931 . S
C380 C379 1.291 . S
C380 C381 1.373 . S
C380 H393 0.929 . S
C381 C380 1.373 . S
C381 C382 1.396 . S
C381 C388 1.403 . S
C382 C372 1.476 . S
C382 N377 1.318 . S
C382 C381 1.396 . S
H383 C378 0.929 . S
O384 Mn360 2.385 . S
O384 C362 1.234 . S
O385 Mn360 2.209 . S
O385 Mn361 2.215 . S
O385 C362 1.283 . S
O386 Mn360 2.094 . S
O386 C364 1.240 . S
O387 Mn361 2.117 . S
O387 C364 1.264 . S
C388 C381 1.403 . S
C388 C389 1.399 . S
C388 H394 0.929 . S
C389 C369 1.449 . S
C389 C388 1.399 . S
C389 H395 0.930 1_455 S
H390 C370 0.931 . S
H391 C371 0.930 . S
H392 C379 0.931 . S
H393 C380 0.929 . S
H394 C388 0.929 . S
H395 C389 0.930 1_655 S
Mn396 O401 2.095 . S
Mn396 O411 2.162 . S
Mn396 O412 2.297 . S
Mn396 O420 2.385 . S
Mn396 O421 2.209 . S
Mn396 O422 2.094 . S
Mn397 O402 2.121 . S
Mn397 N404 2.257 . S
Mn397 N413 2.282 . S
Mn397 O421 2.215 . S
Mn397 O423 2.117 . S
C398 O420 1.234 . S
C398 O421 1.283 . S
C399 O411 1.281 . S
C399 O412 1.236 . S
C400 O422 1.240 . S
C400 O423 1.264 . S
O401 Mn396 2.095 . S
O401 C410 1.250 . S
O402 Mn397 2.121 . S
O402 C410 1.258 . S
C403 N404 1.326 . S
C403 C407 1.460 . S
C403 H409 0.929 . S
N404 Mn397 2.257 . S
N404 C403 1.326 . S
N404 C408 1.362 . S
C405 C406 1.258 . S
C405 C408 1.431 . S
C405 C425 1.449 . S
C406 C405 1.258 . S
C406 C407 1.477 . S
C406 H426 0.931 . S
C407 C403 1.460 . S
C407 C406 1.477 . S
C407 H427 0.930 . S
C408 N404 1.362 . S
C408 C405 1.431 . S
C408 C418 1.476 . S
H409 C403 0.929 . S
C410 O401 1.250 . S
C410 O402 1.258 . S
O411 Mn396 2.162 . S
O411 C399 1.281 . S
O412 Mn396 2.297 . S
O412 C399 1.236 . S
N413 Mn397 2.282 . S
N413 C414 1.328 . S
N413 C418 1.318 . S
C414 N413 1.328 . S
C414 C415 1.457 . S
C414 H419 0.929 . S
C415 C414 1.457 . S
C415 C416 1.291 . S
C415 H428 0.931 . S
C416 C415 1.291 . S
C416 C417 1.373 . S
C416 H429 0.929 . S
C417 C416 1.373 . S
C417 C418 1.396 . S
C417 C424 1.403 . S
C418 C408 1.476 . S
C418 N413 1.318 . S
C418 C417 1.396 . S
H419 C414 0.929 . S
O420 Mn396 2.385 . S
O420 C398 1.234 . S
O421 Mn396 2.209 . S
O421 Mn397 2.215 . S
O421 C398 1.283 . S
O422 Mn396 2.094 . S
O422 C400 1.240 . S
O423 Mn397 2.117 . S
O423 C400 1.264 . S
C424 C417 1.403 . S
C424 C425 1.399 . S
C424 H430 0.929 . S
C425 C405 1.449 . S
C425 C424 1.399 . S
C425 H431 0.930 . S
H426 C406 0.931 . S
H427 C407 0.930 . S
H428 C415 0.931 . S
H429 C416 0.929 . S
H430 C424 0.929 . S
H431 C425 0.930 . S
Mn432 O437 2.095 . S
Mn432 O447 2.162 . S
Mn432 O448 2.297 . S
Mn432 O456 2.385 . S
Mn432 O457 2.209 . S
Mn432 O458 2.094 . S
Mn433 O438 2.121 . S
Mn433 N440 2.257 . S
Mn433 N449 2.282 . S
Mn433 O457 2.215 . S
Mn433 O459 2.117 . S
C434 O456 1.234 . S
C434 O457 1.283 . S
C435 O447 1.281 . S
C435 O448 1.236 . S
C436 O458 1.240 . S
C436 O459 1.264 . S
O437 Mn432 2.095 . S
O437 C446 1.250 . S
O438 Mn433 2.121 . S
O438 C446 1.258 . S
C439 N440 1.326 . S
C439 C443 1.460 . S
C439 H445 0.929 . S
N440 Mn433 2.257 . S
N440 C439 1.326 . S
N440 C444 1.362 . S
C441 C442 1.258 . S
C441 C444 1.431 . S
C441 C461 1.449 . S
C442 C441 1.258 . S
C442 C443 1.477 . S
C442 H462 0.931 . S
C443 C439 1.460 . S
C443 C442 1.477 . S
C443 H463 0.930 . S
C444 N440 1.362 . S
C444 C441 1.431 . S
C444 C454 1.476 . S
H445 C439 0.929 . S
C446 O437 1.250 . S
C446 O438 1.258 . S
O447 Mn432 2.162 . S
O447 C435 1.281 . S
O448 Mn432 2.297 . S
O448 C435 1.236 . S
N449 Mn433 2.282 . S
N449 C450 1.328 . S
N449 C454 1.318 . S
C450 N449 1.328 . S
C450 C451 1.457 . S
C450 H455 0.929 . S
C451 C450 1.457 . S
C451 C452 1.291 . S
C451 H464 0.931 . S
C452 C451 1.291 . S
C452 C453 1.373 . S
C452 H465 0.929 . S
C453 C452 1.373 . S
C453 C454 1.396 . S
C453 C460 1.403 . S
C454 C444 1.476 . S
C454 N449 1.318 . S
C454 C453 1.396 . S
H455 C450 0.929 . S
O456 Mn432 2.385 . S
O456 C434 1.234 . S
O457 Mn432 2.209 . S
O457 Mn433 2.215 . S
O457 C434 1.283 . S
O458 Mn432 2.094 . S
O458 C436 1.240 . S
O459 Mn433 2.117 . S
O459 C436 1.264 . S
C460 C453 1.403 . S
C460 C461 1.399 . S
C460 H466 0.929 . S
C461 C441 1.449 . S
C461 C460 1.399 . S
C461 H467 0.930 . S
H462 C442 0.931 . S
H463 C443 0.930 . S
H464 C451 0.931 . S
H465 C452 0.929 . S
H466 C460 0.929 . S
H467 C461 0.930 . S
Mn468 O473 2.095 . S
Mn468 O483 2.162 . S
Mn468 O484 2.297 . S
Mn468 O492 2.385 . S
Mn468 O493 2.209 . S
Mn468 O494 2.094 . S
Mn469 O474 2.121 . S
Mn469 N476 2.257 . S
Mn469 N485 2.282 . S
Mn469 O493 2.215 . S
Mn469 O495 2.117 . S
C470 O492 1.234 . S
C470 O493 1.283 . S
C471 O483 1.281 . S
C471 O484 1.236 . S
C472 O494 1.240 . S
C472 O495 1.264 . S
O473 Mn468 2.095 . S
O473 C482 1.250 . S
O474 Mn469 2.121 . S
O474 C482 1.258 . S
C475 N476 1.326 1_655 S
C475 C479 1.460 . S
C475 H481 0.929 . S
N476 Mn469 2.257 . S
N476 C475 1.326 1_455 S
N476 C480 1.362 . S
C477 C478 1.258 1_455 S
C477 C480 1.431 . S
C477 C497 1.449 . S
C478 C477 1.258 1_655 S
C478 C479 1.477 . S
C478 H498 0.931 . S
C479 C475 1.460 . S
C479 C478 1.477 . S
C479 H499 0.930 . S
C480 N476 1.362 . S
C480 C477 1.431 . S
C480 C490 1.476 . S
H481 C475 0.929 . S
C482 O473 1.250 . S
C482 O474 1.258 . S
O483 Mn468 2.162 . S
O483 C471 1.281 . S
O484 Mn468 2.297 . S
O484 C471 1.236 . S
N485 Mn469 2.282 . S
N485 C486 1.328 . S
N485 C490 1.318 . S
C486 N485 1.328 . S
C486 C487 1.457 . S
C486 H491 0.929 . S
C487 C486 1.457 . S
C487 C488 1.291 . S
C487 H500 0.931 . S
C488 C487 1.291 . S
C488 C489 1.373 . S
C488 H501 0.929 . S
C489 C488 1.373 . S
C489 C490 1.396 . S
C489 C496 1.403 . S
C490 C480 1.476 . S
C490 N485 1.318 . S
C490 C489 1.396 . S
H491 C486 0.929 . S
O492 Mn468 2.385 . S
O492 C470 1.234 . S
O493 Mn468 2.209 . S
O493 Mn469 2.215 . S
O493 C470 1.283 . S
O494 Mn468 2.094 . S
O494 C472 1.240 . S
O495 Mn469 2.117 . S
O495 C472 1.264 . S
C496 C489 1.403 . S
C496 C497 1.399 . S
C496 H502 0.929 . S
C497 C477 1.449 . S
C497 C496 1.399 . S
C497 H503 0.930 1_455 S
H498 C478 0.931 . S
H499 C479 0.930 . S
H500 C487 0.931 . S
H501 C488 0.929 . S
H502 C496 0.929 . S
H503 C497 0.930 1_655 S
Mn504 O509 2.095 . S
Mn504 O519 2.162 . S
Mn504 O520 2.297 . S
Mn504 O528 2.385 . S
Mn504 O529 2.209 . S
Mn504 O530 2.094 . S
Mn505 O510 2.121 . S
Mn505 N512 2.257 . S
Mn505 N521 2.282 . S
Mn505 O529 2.215 . S
Mn505 O531 2.117 . S
C506 O528 1.234 . S
C506 O529 1.283 . S
C507 O519 1.281 . S
C507 O520 1.236 . S
C508 O530 1.240 . S
C508 O531 1.264 . S
O509 Mn504 2.095 . S
O509 C518 1.250 . S
O510 Mn505 2.121 . S
O510 C518 1.258 . S
C511 N512 1.326 1_455 S
C511 C515 1.460 . S
C511 H517 0.929 . S
N512 Mn505 2.257 . S
N512 C511 1.326 1_655 S
N512 C516 1.362 . S
C513 C514 1.258 1_655 S
C513 C516 1.431 . S
C513 C533 1.449 . S
C514 C513 1.258 1_455 S
C514 C515 1.477 . S
C514 H534 0.931 . S
C515 C511 1.460 . S
C515 C514 1.477 . S
C515 H535 0.930 . S
C516 N512 1.362 . S
C516 C513 1.431 . S
C516 C526 1.476 . S
H517 C511 0.929 . S
C518 O509 1.250 . S
C518 O510 1.258 . S
O519 Mn504 2.162 . S
O519 C507 1.281 . S
O520 Mn504 2.297 . S
O520 C507 1.236 . S
N521 Mn505 2.282 . S
N521 C522 1.328 . S
N521 C526 1.318 . S
C522 N521 1.328 . S
C522 C523 1.457 . S
C522 H527 0.929 . S
C523 C522 1.457 . S
C523 C524 1.291 . S
C523 H536 0.931 . S
C524 C523 1.291 . S
C524 C525 1.373 . S
C524 H537 0.929 . S
C525 C524 1.373 . S
C525 C526 1.396 . S
C525 C532 1.403 . S
C526 C516 1.476 . S
C526 N521 1.318 . S
C526 C525 1.396 . S
H527 C522 0.929 . S
O528 Mn504 2.385 . S
O528 C506 1.234 . S
O529 Mn504 2.209 . S
O529 Mn505 2.215 . S
O529 C506 1.283 . S
O530 Mn504 2.094 . S
O530 C508 1.240 . S
O531 Mn505 2.117 . S
O531 C508 1.264 . S
C532 C525 1.403 . S
C532 C533 1.399 . S
C532 H538 0.929 . S
C533 C513 1.449 . S
C533 C532 1.399 . S
C533 H539 0.930 1_655 S
H534 C514 0.931 . S
H535 C515 0.930 . S
H536 C523 0.931 . S
H537 C524 0.929 . S
H538 C532 0.929 . S
H539 C533 0.930 1_455 S
Mn540 O545 2.095 . S
Mn540 O555 2.162 . S
Mn540 O556 2.297 . S
Mn540 O564 2.385 . S
Mn540 O565 2.209 . S
Mn540 O566 2.094 . S
Mn541 O546 2.121 . S
Mn541 N548 2.257 . S
Mn541 N557 2.282 . S
Mn541 O565 2.215 . S
Mn541 O567 2.117 . S
C542 O564 1.234 . S
C542 O565 1.283 . S
C543 O555 1.281 . S
C543 O556 1.236 . S
C544 O566 1.240 . S
C544 O567 1.264 . S
O545 Mn540 2.095 . S
O545 C554 1.250 . S
O546 Mn541 2.121 . S
O546 C554 1.258 . S
C547 N548 1.326 . S
C547 C551 1.460 . S
C547 H553 0.929 . S
N548 Mn541 2.257 . S
N548 C547 1.326 . S
N548 C552 1.362 . S
C549 C550 1.258 . S
C549 C552 1.431 . S
C549 C569 1.449 . S
C550 C549 1.258 . S
C550 C551 1.477 . S
C550 H570 0.931 . S
C551 C547 1.460 . S
C551 C550 1.477 . S
C551 H571 0.930 . S
C552 N548 1.362 . S
C552 C549 1.431 . S
C552 C562 1.476 . S
H553 C547 0.929 . S
C554 O545 1.250 . S
C554 O546 1.258 . S
O555 Mn540 2.162 . S
O555 C543 1.281 . S
O556 Mn540 2.297 . S
O556 C543 1.236 . S
N557 Mn541 2.282 . S
N557 C558 1.328 . S
N557 C562 1.318 . S
C558 N557 1.328 . S
C558 C559 1.457 . S
C558 H563 0.929 . S
C559 C558 1.457 . S
C559 C560 1.291 . S
C559 H572 0.931 . S
C560 C559 1.291 . S
C560 C561 1.373 . S
C560 H573 0.929 . S
C561 C560 1.373 . S
C561 C562 1.396 . S
C561 C568 1.403 . S
C562 C552 1.476 . S
C562 N557 1.318 . S
C562 C561 1.396 . S
H563 C558 0.929 . S
O564 Mn540 2.385 . S
O564 C542 1.234 . S
O565 Mn540 2.209 . S
O565 Mn541 2.215 . S
O565 C542 1.283 . S
O566 Mn540 2.094 . S
O566 C544 1.240 . S
O567 Mn541 2.117 . S
O567 C544 1.264 . S
C568 C561 1.403 . S
C568 C569 1.399 . S
C568 H574 0.929 . S
C569 C549 1.449 . S
C569 C568 1.399 . S
C569 H575 0.930 . S
H570 C550 0.931 . S
H571 C551 0.930 . S
H572 C559 0.931 . S
H573 C560 0.929 . S
H574 C568 0.929 . S
H575 C569 0.930 . S
C576 C577 1.349 . S
C576 C578 1.327 . S
C576 H601 0.950 . S
C577 C576 1.349 . S
C577 C593 1.349 . S
C578 C576 1.327 . S
C578 C597 1.429 . S
C578 H602 0.950 . S
C579 C596 1.574 . S
C579 C598 1.368 1_545 S
C579 H603 0.949 . S
H580 C584 0.949 . S
C581 C582 1.349 . S
C581 C583 1.327 . S
C581 H604 0.950 . S
C582 C581 1.349 . S
C582 C594 1.349 . S
C583 C581 1.327 . S
C583 C599 1.429 . S
C583 H605 0.950 . S
C584 H580 0.949 . S
C584 C592 1.574 . S
C584 C600 1.368 1_565 S
H585 C593 0.950 . S
H586 C591 0.948 . S
H587 C592 0.949 . S
H588 C594 0.950 . S
H589 C595 0.948 . S
H590 C596 0.949 . S
C591 H586 0.948 . S
C591 C593 1.327 . S
C591 C597 1.429 . S
C592 C584 1.574 . S
C592 H587 0.949 . S
C592 C598 1.368 . S
C593 C577 1.349 . S
C593 H585 0.950 . S
C593 C591 1.327 . S
C594 C582 1.349 . S
C594 H588 0.950 . S
C594 C595 1.327 . S
C595 H589 0.948 . S
C595 C594 1.327 . S
C595 C599 1.429 . S
C596 C579 1.574 . S
C596 H590 0.949 . S
C596 C600 1.368 . S
C597 C578 1.429 . S
C597 C591 1.429 . S
C597 C598 1.523 . S
C598 C579 1.368 1_565 S
C598 C592 1.368 . S
C598 C597 1.523 . S
C599 C583 1.429 . S
C599 C595 1.429 . S
C599 C600 1.523 . S
C600 C584 1.368 1_545 S
C600 C596 1.368 . S
C600 C599 1.523 . S
H601 C576 0.950 . S
H602 C578 0.950 . S
H603 C579 0.949 . S
H604 C581 0.950 . S
H605 C583 0.950 . S
C606 C607 1.349 . S
C606 C608 1.327 . S
C606 H631 0.950 . S
C607 C606 1.349 . S
C607 C623 1.349 . S
C608 C606 1.327 . S
C608 C627 1.429 . S
C608 H632 0.950 . S
C609 C626 1.574 . S
C609 C628 1.368 1_545 S
C609 H633 0.949 . S
H610 C614 0.949 . S
C611 C612 1.349 . S
C611 C613 1.327 . S
C611 H634 0.950 . S
C612 C611 1.349 . S
C612 C624 1.349 . S
C613 C611 1.327 . S
C613 C629 1.429 . S
C613 H635 0.950 . S
C614 H610 0.949 . S
C614 C622 1.574 . S
C614 C630 1.368 1_565 S
H615 C623 0.950 . S
H616 C621 0.948 . S
H617 C622 0.949 . S
H618 C624 0.950 . S
H619 C625 0.948 . S
H620 C626 0.949 . S
C621 H616 0.948 . S
C621 C623 1.327 . S
C621 C627 1.429 . S
C622 C614 1.574 . S
C622 H617 0.949 . S
C622 C628 1.368 . S
C623 C607 1.349 . S
C623 H615 0.950 . S
C623 C621 1.327 . S
C624 C612 1.349 . S
C624 H618 0.950 . S
C624 C625 1.327 . S
C625 H619 0.948 . S
C625 C624 1.327 . S
C625 C629 1.429 . S
C626 C609 1.574 . S
C626 H620 0.949 . S
C626 C630 1.368 . S
C627 C608 1.429 . S
C627 C621 1.429 . S
C627 C628 1.523 . S
C628 C609 1.368 1_565 S
C628 C622 1.368 . S
C628 C627 1.523 . S
C629 C613 1.429 . S
C629 C625 1.429 . S
C629 C630 1.523 . S
C630 C614 1.368 1_545 S
C630 C626 1.368 . S
C630 C629 1.523 . S
H631 C606 0.950 . S
H632 C608 0.950 . S
H633 C609 0.949 . S
H634 C611 0.950 . S
H635 C613 0.950 . S
C636 C637 1.349 . S
C636 C638 1.327 . S
C636 H661 0.950 . S
C637 C636 1.349 . S
C637 C653 1.349 . S
C638 C636 1.327 . S
C638 C657 1.429 . S
C638 H662 0.950 . S
C639 C656 1.574 . S
C639 C658 1.368 1_545 S
C639 H663 0.949 . S
H640 C644 0.949 . S
C641 C642 1.349 . S
C641 C643 1.327 . S
C641 H664 0.950 . S
C642 C641 1.349 . S
C642 C654 1.349 . S
C643 C641 1.327 . S
C643 C659 1.429 . S
C643 H665 0.950 . S
C644 H640 0.949 . S
C644 C652 1.574 . S
C644 C660 1.368 1_565 S
H645 C653 0.950 . S
H646 C651 0.948 . S
H647 C652 0.949 . S
H648 C654 0.950 . S
H649 C655 0.948 . S
H650 C656 0.949 . S
C651 H646 0.948 . S
C651 C653 1.327 . S
C651 C657 1.429 . S
C652 C644 1.574 . S
C652 H647 0.949 . S
C652 C658 1.368 . S
C653 C637 1.349 . S
C653 H645 0.950 . S
C653 C651 1.327 . S
C654 C642 1.349 . S
C654 H648 0.950 . S
C654 C655 1.327 . S
C655 H649 0.948 . S
C655 C654 1.327 . S
C655 C659 1.429 . S
C656 C639 1.574 . S
C656 H650 0.949 . S
C656 C660 1.368 . S
C657 C638 1.429 . S
C657 C651 1.429 . S
C657 C658 1.523 . S
C658 C639 1.368 1_565 S
C658 C652 1.368 . S
C658 C657 1.523 . S
C659 C643 1.429 . S
C659 C655 1.429 . S
C659 C660 1.523 . S
C660 C644 1.368 1_545 S
C660 C656 1.368 . S
C660 C659 1.523 . S
H661 C636 0.950 . S
H662 C638 0.950 . S
H663 C639 0.949 . S
H664 C641 0.950 . S
H665 C643 0.950 . S
C666 C667 1.349 . S
C666 C668 1.327 . S
C666 H691 0.950 . S
C667 C666 1.349 . S
C667 C683 1.349 . S
C668 C666 1.327 . S
C668 C687 1.429 . S
C668 H692 0.948 . S
C669 C686 1.574 . S
C669 C688 1.368 . S
C669 H693 0.949 . S
H670 C674 0.949 . S
C671 C672 1.349 . S
C671 C673 1.327 . S
C671 H694 0.950 . S
C672 C671 1.349 . S
C672 C684 1.349 . S
C673 C671 1.327 . S
C673 C689 1.429 . S
C673 H695 0.948 . S
C674 H670 0.949 . S
C674 C682 1.574 . S
C674 C690 1.368 . S
H675 C683 0.950 . S
H676 C681 0.950 . S
H677 C682 0.949 . S
H678 C684 0.950 . S
H679 C685 0.950 . S
H680 C686 0.949 . S
C681 H676 0.950 . S
C681 C683 1.327 . S
C681 C687 1.429 . S
C682 C674 1.574 . S
C682 H677 0.949 . S
C682 C688 1.368 1_545 S
C683 C667 1.349 . S
C683 H675 0.950 . S
C683 C681 1.327 . S
C684 C672 1.349 . S
C684 H678 0.950 . S
C684 C685 1.327 . S
C685 H679 0.950 . S
C685 C684 1.327 . S
C685 C689 1.429 . S
C686 C669 1.574 . S
C686 H680 0.949 . S
C686 C690 1.368 1_565 S
C687 C668 1.429 . S
C687 C681 1.429 . S
C687 C688 1.523 . S
C688 C669 1.368 . S
C688 C682 1.368 1_565 S
C688 C687 1.523 . S
C689 C673 1.429 . S
C689 C685 1.429 . S
C689 C690 1.523 . S
C690 C674 1.368 . S
C690 C686 1.368 1_545 S
C690 C689 1.523 . S
H691 C666 0.950 . S
H692 C668 0.948 . S
H693 C669 0.949 . S
H694 C671 0.950 . S
H695 C673 0.948 . S
C696 C697 1.349 . S
C696 C698 1.327 . S
C696 H721 0.950 . S
C697 C696 1.349 . S
C697 C713 1.349 . S
C698 C696 1.327 . S
C698 C717 1.429 . S
C698 H722 0.950 . S
C699 C716 1.574 . S
C699 C718 1.368 . S
C699 H723 0.949 . S
H700 C704 0.949 . S
C701 C702 1.349 . S
C701 C703 1.327 . S
C701 H724 0.950 . S
C702 C701 1.349 . S
C702 C714 1.349 . S
C703 C701 1.327 . S
C703 C719 1.429 . S
C703 H725 0.950 . S
C704 H700 0.949 . S
C704 C712 1.574 . S
C704 C720 1.368 . S
H705 C713 0.950 . S
H706 C711 0.950 . S
H707 C712 0.949 . S
H708 C714 0.950 . S
H709 C715 0.950 . S
H710 C716 0.949 . S
C711 H706 0.950 . S
C711 C713 1.327 . S
C711 C717 1.429 . S
C712 C704 1.574 . S
C712 H707 0.949 . S
C712 C718 1.368 . S
C713 C697 1.349 . S
C713 H705 0.950 . S
C713 C711 1.327 . S
C714 C702 1.349 . S
C714 H708 0.950 . S
C714 C715 1.327 . S
C715 H709 0.950 . S
C715 C714 1.327 . S
C715 C719 1.429 . S
C716 C699 1.574 . S
C716 H710 0.949 . S
C716 C720 1.368 . S
C717 C698 1.429 . S
C717 C711 1.429 . S
C717 C718 1.523 . S
C718 C699 1.368 . S
C718 C712 1.368 . S
C718 C717 1.523 . S
C719 C703 1.429 . S
C719 C715 1.429 . S
C719 C720 1.523 . S
C720 C704 1.368 . S
C720 C716 1.368 . S
C720 C719 1.523 . S
H721 C696 0.950 . S
H722 C698 0.950 . S
H723 C699 0.949 . S
H724 C701 0.950 . S
H725 C703 0.950 . S
C726 C727 1.349 . S
C726 C728 1.327 . S
C726 H751 0.950 . S
C727 C726 1.349 . S
C727 C743 1.349 . S
C728 C726 1.327 . S
C728 C747 1.429 . S
C728 H752 0.950 . S
C729 C746 1.574 . S
C729 C748 1.368 . S
C729 H753 0.949 . S
H730 C734 0.949 . S
C731 C732 1.349 . S
C731 C733 1.327 . S
C731 H754 0.950 . S
C732 C731 1.349 . S
C732 C744 1.349 . S
C733 C731 1.327 . S
C733 C749 1.429 . S
C733 H755 0.950 . S
C734 H730 0.949 . S
C734 C742 1.574 . S
C734 C750 1.368 . S
H735 C743 0.950 . S
H736 C741 0.950 . S
H737 C742 0.949 . S
H738 C744 0.950 . S
H739 C745 0.950 . S
H740 C746 0.949 . S
C741 H736 0.950 . S
C741 C743 1.327 . S
C741 C747 1.429 . S
C742 C734 1.574 . S
C742 H737 0.949 . S
C742 C748 1.368 . S
C743 C727 1.349 . S
C743 H735 0.950 . S
C743 C741 1.327 . S
C744 C732 1.349 . S
C744 H738 0.950 . S
C744 C745 1.327 . S
C745 H739 0.950 . S
C745 C744 1.327 . S
C745 C749 1.429 . S
C746 C729 1.574 . S
C746 H740 0.949 . S
C746 C750 1.368 . S
C747 C728 1.429 . S
C747 C741 1.429 . S
C747 C748 1.523 . S
C748 C729 1.368 . S
C748 C742 1.368 . S
C748 C747 1.523 . S
C749 C733 1.429 . S
C749 C745 1.429 . S
C749 C750 1.523 . S
C750 C734 1.368 . S
C750 C746 1.368 . S
C750 C749 1.523 . S
H751 C726 0.950 . S
H752 C728 0.950 . S
H753 C729 0.949 . S
H754 C731 0.950 . S
H755 C733 0.950 . S
C756 C757 1.349 . S
C756 C758 1.327 . S
C756 H781 0.950 . S
C757 C756 1.349 . S
C757 C773 1.349 . S
C758 C756 1.327 . S
C758 C777 1.429 . S
C758 H782 0.950 . S
C759 C776 1.574 . S
C759 C778 1.368 . S
C759 H783 0.949 . S
H760 C764 0.949 . S
C761 C762 1.349 . S
C761 C763 1.327 . S
C761 H784 0.950 . S
C762 C761 1.349 . S
C762 C774 1.349 . S
C763 C761 1.327 . S
C763 C779 1.429 . S
C763 H785 0.950 . S
C764 H760 0.949 . S
C764 C772 1.574 . S
C764 C780 1.368 . S
H765 C773 0.950 . S
H766 C771 0.950 . S
H767 C772 0.949 . S
H768 C774 0.950 . S
H769 C775 0.950 . S
H770 C776 0.949 . S
C771 H766 0.950 . S
C771 C773 1.327 . S
C771 C777 1.429 . S
C772 C764 1.574 . S
C772 H767 0.949 . S
C772 C778 1.368 . S
C773 C757 1.349 . S
C773 H765 0.950 . S
C773 C771 1.327 . S
C774 C762 1.349 . S
C774 H768 0.950 . S
C774 C775 1.327 . S
C775 H769 0.950 . S
C775 C774 1.327 . S
C775 C779 1.429 . S
C776 C759 1.574 . S
C776 H770 0.949 . S
C776 C780 1.368 . S
C777 C758 1.429 . S
C777 C771 1.429 . S
C777 C778 1.523 . S
C778 C759 1.368 . S
C778 C772 1.368 . S
C778 C777 1.523 . S
C779 C763 1.429 . S
C779 C775 1.429 . S
C779 C780 1.523 . S
C780 C764 1.368 . S
C780 C776 1.368 . S
C780 C779 1.523 . S
H781 C756 0.950 . S
H782 C758 0.950 . S
H783 C759 0.949 . S
H784 C761 0.950 . S
H785 C763 0.950 . S
C786 C787 1.349 . S
C786 C788 1.327 . S
C786 H811 0.950 . S
C787 C786 1.349 . S
C787 C803 1.349 . S
C788 C786 1.327 . S
C788 C807 1.429 . S
C788 H812 0.950 . S
C789 C806 1.574 . S
C789 C808 1.368 . S
C789 H813 0.949 . S
H790 C794 0.949 . S
C791 C792 1.349 . S
C791 C793 1.327 . S
C791 H814 0.950 . S
C792 C791 1.349 . S
C792 C804 1.349 . S
C793 C791 1.327 . S
C793 C809 1.429 . S
C793 H815 0.950 . S
C794 H790 0.949 . S
C794 C802 1.574 . S
C794 C810 1.368 . S
H795 C803 0.950 . S
H796 C801 0.950 . S
H797 C802 0.949 . S
H798 C804 0.950 . S
H799 C805 0.950 . S
H800 C806 0.949 . S
C801 H796 0.950 . S
C801 C803 1.327 . S
C801 C807 1.429 . S
C802 C794 1.574 . S
C802 H797 0.949 . S
C802 C808 1.368 . S
C803 C787 1.349 . S
C803 H795 0.950 . S
C803 C801 1.327 . S
C804 C792 1.349 . S
C804 H798 0.950 . S
C804 C805 1.327 . S
C805 H799 0.950 . S
C805 C804 1.327 . S
C805 C809 1.429 . S
C806 C789 1.574 . S
C806 H800 0.949 . S
C806 C810 1.368 . S
C807 C788 1.429 . S
C807 C801 1.429 . S
C807 C808 1.523 . S
C808 C789 1.368 . S
C808 C802 1.368 . S
C808 C807 1.523 . S
C809 C793 1.429 . S
C809 C805 1.429 . S
C809 C810 1.523 . S
C810 C794 1.368 . S
C810 C806 1.368 . S
C810 C809 1.523 . S
H811 C786 0.950 . S
H812 C788 0.950 . S
H813 C789 0.949 . S
H814 C791 0.950 . S
H815 C793 0.950 . S
C816 C817 1.349 . S
C816 C818 1.327 . S
C816 H841 0.950 . S
C817 C816 1.349 . S
C817 C833 1.349 . S
C818 C816 1.327 . S
C818 C837 1.429 . S
C818 H842 0.950 . S
C819 C836 1.574 . S
C819 C838 1.368 1_455 S
C819 H843 0.949 . S
H820 C824 0.949 . S
C821 C822 1.349 . S
C821 C823 1.327 . S
C821 H844 0.950 . S
C822 C821 1.349 . S
C822 C834 1.349 . S
C823 C821 1.327 . S
C823 C839 1.429 . S
C823 H845 0.950 . S
C824 H820 0.949 . S
C824 C832 1.574 . S
C824 C840 1.368 1_655 S
H825 C833 0.950 . S
H826 C831 0.950 1_455 S
H827 C832 0.949 . S
H828 C834 0.950 . S
H829 C835 0.950 1_655 S
H830 C836 0.949 . S
C831 H826 0.950 1_655 S
C831 C833 1.327 . S
C831 C837 1.429 . S
C832 C824 1.574 . S
C832 H827 0.949 . S
C832 C838 1.368 . S
C833 C817 1.349 . S
C833 H825 0.950 . S
C833 C831 1.327 . S
C834 C822 1.349 . S
C834 H828 0.950 . S
C834 C835 1.327 . S
C835 H829 0.950 1_455 S
C835 C834 1.327 . S
C835 C839 1.429 . S
C836 C819 1.574 . S
C836 H830 0.949 . S
C836 C840 1.368 . S
C837 C818 1.429 . S
C837 C831 1.429 . S
C837 C838 1.523 . S
C838 C819 1.368 1_655 S
C838 C832 1.368 . S
C838 C837 1.523 . S
C839 C823 1.429 . S
C839 C835 1.429 . S
C839 C840 1.523 . S
C840 C824 1.368 1_455 S
C840 C836 1.368 . S
C840 C839 1.523 . S
H841 C816 0.950 . S
H842 C818 0.950 . S
H843 C819 0.949 . S
H844 C821 0.950 . S
H845 C823 0.950 . S
C846 C847 1.349 . S
C846 C848 1.327 . S
C846 H871 0.950 . S
C847 C846 1.349 . S
C847 C863 1.349 . S
C848 C846 1.327 . S
C848 C867 1.429 . S
C848 H872 0.950 . S
C849 C866 1.574 . S
C849 C868 1.368 . S
C849 H873 0.949 . S
H850 C854 0.949 . S
C851 C852 1.349 . S
C851 C853 1.327 . S
C851 H874 0.950 . S
C852 C851 1.349 . S
C852 C864 1.349 . S
C853 C851 1.327 . S
C853 C869 1.429 . S
C853 H875 0.950 . S
C854 H850 0.949 . S
C854 C862 1.574 . S
C854 C870 1.368 . S
H855 C863 0.950 . S
H856 C861 0.950 . S
H857 C862 0.949 . S
H858 C864 0.950 . S
H859 C865 0.950 . S
H860 C866 0.949 . S
C861 H856 0.950 . S
C861 C863 1.327 . S
C861 C867 1.429 . S
C862 C854 1.574 . S
C862 H857 0.949 . S
C862 C868 1.368 . S
C863 C847 1.349 . S
C863 H855 0.950 . S
C863 C861 1.327 . S
C864 C852 1.349 . S
C864 H858 0.950 . S
C864 C865 1.327 . S
C865 H859 0.950 . S
C865 C864 1.327 . S
C865 C869 1.429 . S
C866 C849 1.574 . S
C866 H860 0.949 . S
C866 C870 1.368 . S
C867 C848 1.429 . S
C867 C861 1.429 . S
C867 C868 1.523 . S
C868 C849 1.368 . S
C868 C862 1.368 . S
C868 C867 1.523 . S
C869 C853 1.429 . S
C869 C865 1.429 . S
C869 C870 1.523 . S
C870 C854 1.368 . S
C870 C866 1.368 . S
C870 C869 1.523 . S
H871 C846 0.950 . S
H872 C848 0.950 . S
H873 C849 0.949 . S
H874 C851 0.950 . S
H875 C853 0.950 . S
C876 C877 1.349 . S
C876 C878 1.327 . S
C876 H901 0.950 . S
C877 C876 1.349 . S
C877 C893 1.349 . S
C878 C876 1.327 . S
C878 C897 1.429 . S
C878 H902 0.950 1_455 S
C879 C896 1.574 . S
C879 C898 1.368 . S
C879 H903 0.949 . S
H880 C884 0.949 . S
C881 C882 1.349 . S
C881 C883 1.327 . S
C881 H904 0.950 . S
C882 C881 1.349 . S
C882 C894 1.349 . S
C883 C881 1.327 . S
C883 C899 1.429 . S
C883 H905 0.950 1_655 S
C884 H880 0.949 . S
C884 C892 1.574 . S
C884 C900 1.368 . S
H885 C893 0.950 . S
H886 C891 0.950 . S
H887 C892 0.949 . S
H888 C894 0.950 . S
H889 C895 0.950 . S
H890 C896 0.949 . S
C891 H886 0.950 . S
C891 C893 1.327 . S
C891 C897 1.429 . S
C892 C884 1.574 . S
C892 H887 0.949 . S
C892 C898 1.368 1_655 S
C893 C877 1.349 . S
C893 H885 0.950 . S
C893 C891 1.327 . S
C894 C882 1.349 . S
C894 H888 0.950 . S
C894 C895 1.327 . S
C895 H889 0.950 . S
C895 C894 1.327 . S
C895 C899 1.429 . S
C896 C879 1.574 . S
C896 H890 0.949 . S
C896 C900 1.368 1_455 S
C897 C878 1.429 . S
C897 C891 1.429 . S
C897 C898 1.523 . S
C898 C879 1.368 . S
C898 C892 1.368 1_455 S
C898 C897 1.523 . S
C899 C883 1.429 . S
C899 C895 1.429 . S
C899 C900 1.523 . S
C900 C884 1.368 . S
C900 C896 1.368 1_655 S
C900 C899 1.523 . S
H901 C876 0.950 . S
H902 C878 0.950 1_655 S
H903 C879 0.949 . S
H904 C881 0.950 . S
H905 C883 0.950 1_455 S
C906 C907 1.349 . S
C906 C908 1.327 . S
C906 H931 0.950 . S
C907 C906 1.349 . S
C907 C923 1.349 . S
C908 C906 1.327 . S
C908 C927 1.429 . S
C908 H932 0.950 . S
C909 C926 1.574 . S
C909 C928 1.368 . S
C909 H933 0.949 . S
H910 C914 0.949 . S
C911 C912 1.349 . S
C911 C913 1.327 . S
C911 H934 0.950 . S
C912 C911 1.349 . S
C912 C924 1.349 . S
C913 C911 1.327 . S
C913 C929 1.429 . S
C913 H935 0.950 . S
C914 H910 0.949 . S
C914 C922 1.574 . S
C914 C930 1.368 . S
H915 C923 0.950 . S
H916 C921 0.950 . S
H917 C922 0.949 . S
H918 C924 0.950 . S
H919 C925 0.950 . S
H920 C926 0.949 . S
C921 H916 0.950 . S
C921 C923 1.327 . S
C921 C927 1.429 . S
C922 C914 1.574 . S
C922 H917 0.949 . S
C922 C928 1.368 . S
C923 C907 1.349 . S
C923 H915 0.950 . S
C923 C921 1.327 . S
C924 C912 1.349 . S
C924 H918 0.950 . S
C924 C925 1.327 . S
C925 H919 0.950 . S
C925 C924 1.327 . S
C925 C929 1.429 . S
C926 C909 1.574 . S
C926 H920 0.949 . S
C926 C930 1.368 . S
C927 C908 1.429 . S
C927 C921 1.429 . S
C927 C928 1.523 . S
C928 C909 1.368 . S
C928 C922 1.368 . S
C928 C927 1.523 . S
C929 C913 1.429 . S
C929 C925 1.429 . S
C929 C930 1.523 . S
C930 C914 1.368 . S
C930 C926 1.368 . S
C930 C929 1.523 . S
H931 C906 0.950 . S
H932 C908 0.950 . S
H933 C909 0.949 . S
H934 C911 0.950 . S
H935 C913 0.950 . S
C936 C937 1.349 . S
C936 C938 1.327 . S
C936 H961 0.950 . S
C937 C936 1.349 . S
C937 C953 1.349 . S
C938 C936 1.327 . S
C938 C957 1.429 . S
C938 H962 0.950 . S
C939 C956 1.574 . S
C939 C958 1.368 . S
C939 H963 0.949 . S
H940 C944 0.949 . S
C941 C942 1.349 . S
C941 C943 1.327 . S
C941 H964 0.950 . S
C942 C941 1.349 . S
C942 C954 1.349 . S
C943 C941 1.327 . S
C943 C959 1.429 . S
C943 H965 0.950 . S
C944 H940 0.949 . S
C944 C952 1.574 . S
C944 C960 1.368 . S
H945 C953 0.950 . S
H946 C951 0.950 . S
H947 C952 0.949 . S
H948 C954 0.950 . S
H949 C955 0.950 . S
H950 C956 0.949 . S
C951 H946 0.950 . S
C951 C953 1.327 . S
C951 C957 1.429 . S
C952 C944 1.574 . S
C952 H947 0.949 . S
C952 C958 1.368 . S
C953 C937 1.349 . S
C953 H945 0.950 . S
C953 C951 1.327 . S
C954 C942 1.349 . S
C954 H948 0.950 . S
C954 C955 1.327 . S
C955 H949 0.950 . S
C955 C954 1.327 . S
C955 C959 1.429 . S
C956 C939 1.574 . S
C956 H950 0.949 . S
C956 C960 1.368 . S
C957 C938 1.429 . S
C957 C951 1.429 . S
C957 C958 1.523 . S
C958 C939 1.368 . S
C958 C952 1.368 . S
C958 C957 1.523 . S
C959 C943 1.429 . S
C959 C955 1.429 . S
C959 C960 1.523 . S
C960 C944 1.368 . S
C960 C956 1.368 . S
C960 C959 1.523 . S
H961 C936 0.950 . S
H962 C938 0.950 . S
H963 C939 0.949 . S
H964 C941 0.950 . S
H965 C943 0.950 . S
C966 C967 1.349 . S
C966 C968 1.327 . S
C966 H991 0.950 . S
C967 C966 1.349 . S
C967 C983 1.349 . S
C968 C966 1.327 . S
C968 C987 1.429 . S
C968 H992 0.950 1_455 S
C969 C986 1.574 . S
C969 C988 1.368 . S
C969 H993 0.949 . S
H970 C974 0.949 . S
C971 C972 1.349 . S
C971 C973 1.327 . S
C971 H994 0.950 . S
C972 C971 1.349 . S
C972 C984 1.349 . S
C973 C971 1.327 . S
C973 C989 1.429 . S
C973 H995 0.950 1_655 S
C974 H970 0.949 . S
C974 C982 1.574 . S
C974 C990 1.368 . S
H975 C983 0.950 . S
H976 C981 0.950 . S
H977 C982 0.949 . S
H978 C984 0.950 . S
H979 C985 0.950 . S
H980 C986 0.949 . S
C981 H976 0.950 . S
C981 C983 1.327 . S
C981 C987 1.429 . S
C982 C974 1.574 . S
C982 H977 0.949 . S
C982 C988 1.368 1_655 S
C983 C967 1.349 . S
C983 H975 0.950 . S
C983 C981 1.327 . S
C984 C972 1.349 . S
C984 H978 0.950 . S
C984 C985 1.327 . S
C985 H979 0.950 . S
C985 C984 1.327 . S
C985 C989 1.429 . S
C986 C969 1.574 . S
C986 H980 0.949 . S
C986 C990 1.368 1_455 S
C987 C968 1.429 . S
C987 C981 1.429 . S
C987 C988 1.523 . S
C988 C969 1.368 . S
C988 C982 1.368 1_455 S
C988 C987 1.523 . S
C989 C973 1.429 . S
C989 C985 1.429 . S
C989 C990 1.523 . S
C990 C974 1.368 . S
C990 C986 1.368 1_655 S
C990 C989 1.523 . S
H991 C966 0.950 . S
H992 C968 0.950 1_655 S
H993 C969 0.949 . S
H994 C971 0.950 . S
H995 C973 0.950 1_455 S
C996 C997 1.349 . S
C996 C998 1.327 . S
C996 H1021 0.950 . S
C997 C996 1.349 . S
C997 C1013 1.349 . S
C998 C996 1.327 . S
C998 C1017 1.429 . S
C998 H1022 0.950 . S
C999 C1016 1.574 . S
C999 C1018 1.368 . S
C999 H1023 0.949 . S
H1000 C1004 0.949 . S
C1001 C1002 1.349 . S
C1001 C1003 1.327 . S
C1001 H1024 0.950 . S
C1002 C1001 1.349 . S
C1002 C1014 1.349 . S
C1003 C1001 1.327 . S
C1003 C1019 1.429 . S
C1003 H1025 0.950 . S
C1004 H1000 0.949 . S
C1004 C1012 1.574 . S
C1004 C1020 1.368 . S
H1005 C1013 0.950 . S
H1006 C1011 0.950 . S
H1007 C1012 0.949 . S
H1008 C1014 0.950 . S
H1009 C1015 0.950 . S
H1010 C1016 0.949 . S
C1011 H1006 0.950 . S
C1011 C1013 1.327 . S
C1011 C1017 1.429 . S
C1012 C1004 1.574 . S
C1012 H1007 0.949 . S
C1012 C1018 1.368 . S
C1013 C997 1.349 . S
C1013 H1005 0.950 . S
C1013 C1011 1.327 . S
C1014 C1002 1.349 . S
C1014 H1008 0.950 . S
C1014 C1015 1.327 . S
C1015 H1009 0.950 . S
C1015 C1014 1.327 . S
C1015 C1019 1.429 . S
C1016 C999 1.574 . S
C1016 H1010 0.949 . S
C1016 C1020 1.368 . S
C1017 C998 1.429 . S
C1017 C1011 1.429 . S
C1017 C1018 1.523 . S
C1018 C999 1.368 . S
C1018 C1012 1.368 . S
C1018 C1017 1.523 . S
C1019 C1003 1.429 . S
C1019 C1015 1.429 . S
C1019 C1020 1.523 . S
C1020 C1004 1.368 . S
C1020 C1016 1.368 . S
C1020 C1019 1.523 . S
H1021 C996 0.950 . S
H1022 C998 0.950 . S
H1023 C999 0.949 . S
H1024 C1001 0.950 . S
H1025 C1003 0.950 . S
C1026 C1027 1.349 . S
C1026 C1028 1.327 . S
C1026 H1051 0.950 . S
C1027 C1026 1.349 . S
C1027 C1043 1.349 . S
C1028 C1026 1.327 . S
C1028 C1047 1.429 . S
C1028 H1052 0.950 1_455 S
C1029 C1046 1.574 . S
C1029 C1048 1.368 . S
C1029 H1053 0.949 . S
H1030 C1034 0.949 . S
C1031 C1032 1.349 . S
C1031 C1033 1.327 . S
C1031 H1054 0.950 . S
C1032 C1031 1.349 . S
C1032 C1044 1.349 . S
C1033 C1031 1.327 . S
C1033 C1049 1.429 . S
C1033 H1055 0.950 1_655 S
C1034 H1030 0.949 . S
C1034 C1042 1.574 . S
C1034 C1050 1.368 . S
H1035 C1043 0.950 . S
H1036 C1041 0.950 . S
H1037 C1042 0.949 . S
H1038 C1044 0.950 . S
H1039 C1045 0.950 . S
H1040 C1046 0.949 . S
C1041 H1036 0.950 . S
C1041 C1043 1.327 . S
C1041 C1047 1.429 . S
C1042 C1034 1.574 . S
C1042 H1037 0.949 . S
C1042 C1048 1.368 1_655 S
C1043 C1027 1.349 . S
C1043 H1035 0.950 . S
C1043 C1041 1.327 . S
C1044 C1032 1.349 . S
C1044 H1038 0.950 . S
C1044 C1045 1.327 . S
C1045 H1039 0.950 . S
C1045 C1044 1.327 . S
C1045 C1049 1.429 . S
C1046 C1029 1.574 . S
C1046 H1040 0.949 . S
C1046 C1050 1.368 1_455 S
C1047 C1028 1.429 . S
C1047 C1041 1.429 . S
C1047 C1048 1.523 . S
C1048 C1029 1.368 . S
C1048 C1042 1.368 1_455 S
C1048 C1047 1.523 . S
C1049 C1033 1.429 . S
C1049 C1045 1.429 . S
C1049 C1050 1.523 . S
C1050 C1034 1.368 . S
C1050 C1046 1.368 1_655 S
C1050 C1049 1.523 . S
H1051 C1026 0.950 . S
H1052 C1028 0.950 1_655 S
H1053 C1029 0.949 . S
H1054 C1031 0.950 . S
H1055 C1033 0.950 1_455 S
C1056 C1057 1.349 . S
C1056 C1058 1.327 . S
C1056 H1081 0.950 . S
C1057 C1056 1.349 . S
C1057 C1073 1.349 . S
C1058 C1056 1.327 . S
C1058 C1077 1.429 . S
C1058 H1082 0.950 1_455 S
C1059 C1076 1.574 . S
C1059 C1078 1.368 . S
C1059 H1083 0.949 . S
H1060 C1064 0.949 . S
C1061 C1062 1.349 . S
C1061 C1063 1.327 . S
C1061 H1084 0.950 . S
C1062 C1061 1.349 . S
C1062 C1074 1.349 . S
C1063 C1061 1.327 . S
C1063 C1079 1.429 . S
C1063 H1085 0.950 1_655 S
C1064 H1060 0.949 . S
C1064 C1072 1.574 . S
C1064 C1080 1.368 . S
H1065 C1073 0.950 . S
H1066 C1071 0.950 . S
H1067 C1072 0.949 . S
H1068 C1074 0.950 . S
H1069 C1075 0.950 . S
H1070 C1076 0.949 . S
C1071 H1066 0.950 . S
C1071 C1073 1.327 . S
C1071 C1077 1.429 . S
C1072 C1064 1.574 . S
C1072 H1067 0.949 . S
C1072 C1078 1.368 1_655 S
C1073 C1057 1.349 . S
C1073 H1065 0.950 . S
C1073 C1071 1.327 . S
C1074 C1062 1.349 . S
C1074 H1068 0.950 . S
C1074 C1075 1.327 . S
C1075 H1069 0.950 . S
C1075 C1074 1.327 . S
C1075 C1079 1.429 . S
C1076 C1059 1.574 . S
C1076 H1070 0.949 . S
C1076 C1080 1.368 1_455 S
C1077 C1058 1.429 . S
C1077 C1071 1.429 . S
C1077 C1078 1.523 . S
C1078 C1059 1.368 . S
C1078 C1072 1.368 1_455 S
C1078 C1077 1.523 . S
C1079 C1063 1.429 . S
C1079 C1075 1.429 . S
C1079 C1080 1.523 . S
C1080 C1064 1.368 . S
C1080 C1076 1.368 1_655 S
C1080 C1079 1.523 . S
H1081 C1056 0.950 . S
H1082 C1058 0.950 1_655 S
H1083 C1059 0.949 . S
H1084 C1061 0.950 . S
H1085 C1063 0.950 1_455 S
C1086 C1087 1.349 . S
C1086 C1088 1.327 . S
C1086 H1111 0.950 . S
C1087 C1086 1.349 . S
C1087 C1103 1.349 . S
C1088 C1086 1.327 . S
C1088 C1107 1.429 . S
C1088 H1112 0.950 . S
C1089 C1106 1.574 . S
C1089 C1108 1.368 . S
C1089 H1113 0.949 . S
H1090 C1094 0.949 . S
C1091 C1092 1.349 . S
C1091 C1093 1.327 . S
C1091 H1114 0.950 . S
C1092 C1091 1.349 . S
C1092 C1104 1.349 . S
C1093 C1091 1.327 . S
C1093 C1109 1.429 . S
C1093 H1115 0.950 . S
C1094 H1090 0.949 . S
C1094 C1102 1.574 . S
C1094 C1110 1.368 . S
H1095 C1103 0.950 . S
H1096 C1101 0.950 . S
H1097 C1102 0.949 . S
H1098 C1104 0.950 . S
H1099 C1105 0.950 . S
H1100 C1106 0.949 . S
C1101 H1096 0.950 . S
C1101 C1103 1.327 . S
C1101 C1107 1.429 . S
C1102 C1094 1.574 . S
C1102 H1097 0.949 . S
C1102 C1108 1.368 . S
C1103 C1087 1.349 . S
C1103 H1095 0.950 . S
C1103 C1101 1.327 . S
C1104 C1092 1.349 . S
C1104 H1098 0.950 . S
C1104 C1105 1.327 . S
C1105 H1099 0.950 . S
C1105 C1104 1.327 . S
C1105 C1109 1.429 . S
C1106 C1089 1.574 . S
C1106 H1100 0.949 . S
C1106 C1110 1.368 . S
C1107 C1088 1.429 . S
C1107 C1101 1.429 . S
C1107 C1108 1.523 . S
C1108 C1089 1.368 . S
C1108 C1102 1.368 . S
C1108 C1107 1.523 . S
C1109 C1093 1.429 . S
C1109 C1105 1.429 . S
C1109 C1110 1.523 . S
C1110 C1094 1.368 . S
C1110 C1106 1.368 . S
C1110 C1109 1.523 . S
H1111 C1086 0.950 . S
H1112 C1088 0.950 . S
H1113 C1089 0.949 . S
H1114 C1091 0.950 . S
H1115 C1093 0.950 . S
C1116 C1117 1.349 . S
C1116 C1118 1.327 . S
C1116 H1141 0.950 . S
C1117 C1116 1.349 . S
C1117 C1133 1.349 . S
C1118 C1116 1.327 . S
C1118 C1137 1.429 . S
C1118 H1142 0.950 . S
C1119 C1136 1.574 . S
C1119 C1138 1.368 . S
C1119 H1143 0.949 . S
H1120 C1124 0.949 . S
C1121 C1122 1.349 . S
C1121 C1123 1.327 . S
C1121 H1144 0.950 . S
C1122 C1121 1.349 . S
C1122 C1134 1.349 . S
C1123 C1121 1.327 . S
C1123 C1139 1.429 . S
C1123 H1145 0.950 . S
C1124 H1120 0.949 . S
C1124 C1132 1.574 . S
C1124 C1140 1.368 . S
H1125 C1133 0.950 . S
H1126 C1131 0.950 . S
H1127 C1132 0.949 . S
H1128 C1134 0.950 . S
H1129 C1135 0.950 . S
H1130 C1136 0.949 . S
C1131 H1126 0.950 . S
C1131 C1133 1.327 . S
C1131 C1137 1.429 . S
C1132 C1124 1.574 . S
C1132 H1127 0.949 . S
C1132 C1138 1.368 . S
C1133 C1117 1.349 . S
C1133 H1125 0.950 . S
C1133 C1131 1.327 . S
C1134 C1122 1.349 . S
C1134 H1128 0.950 . S
C1134 C1135 1.327 . S
C1135 H1129 0.950 . S
C1135 C1134 1.327 . S
C1135 C1139 1.429 . S
C1136 C1119 1.574 . S
C1136 H1130 0.949 . S
C1136 C1140 1.368 . S
C1137 C1118 1.429 . S
C1137 C1131 1.429 . S
C1137 C1138 1.523 . S
C1138 C1119 1.368 . S
C1138 C1132 1.368 . S
C1138 C1137 1.523 . S
C1139 C1123 1.429 . S
C1139 C1135 1.429 . S
C1139 C1140 1.523 . S
C1140 C1124 1.368 . S
C1140 C1136 1.368 . S
C1140 C1139 1.523 . S
H1141 C1116 0.950 . S
H1142 C1118 0.950 . S
H1143 C1119 0.949 . S
H1144 C1121 0.950 . S
H1145 C1123 0.950 . S
C1146 C1147 1.349 . S
C1146 C1148 1.327 . S
C1146 H1171 0.950 . S
C1147 C1146 1.349 . S
C1147 C1163 1.349 . S
C1148 C1146 1.327 . S
C1148 C1167 1.429 . S
C1148 H1172 0.950 1_455 S
C1149 C1166 1.574 . S
C1149 C1168 1.368 . S
C1149 H1173 0.949 . S
H1150 C1154 0.949 . S
C1151 C1152 1.349 . S
C1151 C1153 1.327 . S
C1151 H1174 0.950 . S
C1152 C1151 1.349 . S
C1152 C1164 1.349 . S
C1153 C1151 1.327 . S
C1153 C1169 1.429 . S
C1153 H1175 0.950 1_655 S
C1154 H1150 0.949 . S
C1154 C1162 1.574 . S
C1154 C1170 1.368 . S
H1155 C1163 0.950 . S
H1156 C1161 0.950 . S
H1157 C1162 0.949 . S
H1158 C1164 0.950 . S
H1159 C1165 0.950 . S
H1160 C1166 0.949 . S
C1161 H1156 0.950 . S
C1161 C1163 1.327 . S
C1161 C1167 1.429 . S
C1162 C1154 1.574 . S
C1162 H1157 0.949 . S
C1162 C1168 1.368 1_655 S
C1163 C1147 1.349 . S
C1163 H1155 0.950 . S
C1163 C1161 1.327 . S
C1164 C1152 1.349 . S
C1164 H1158 0.950 . S
C1164 C1165 1.327 . S
C1165 H1159 0.950 . S
C1165 C1164 1.327 . S
C1165 C1169 1.429 . S
C1166 C1149 1.574 . S
C1166 H1160 0.949 . S
C1166 C1170 1.368 1_455 S
C1167 C1148 1.429 . S
C1167 C1161 1.429 . S
C1167 C1168 1.523 . S
C1168 C1149 1.368 . S
C1168 C1162 1.368 1_455 S
C1168 C1167 1.523 . S
C1169 C1153 1.429 . S
C1169 C1165 1.429 . S
C1169 C1170 1.523 . S
C1170 C1154 1.368 . S
C1170 C1166 1.368 1_655 S
C1170 C1169 1.523 . S
H1171 C1146 0.950 . S
H1172 C1148 0.950 1_655 S
H1173 C1149 0.949 . S
H1174 C1151 0.950 . S
H1175 C1153 0.950 1_455 S
C1176 C1177 1.349 . S
C1176 C1178 1.327 . S
C1176 H1201 0.950 . S
C1177 C1176 1.349 . S
C1177 C1193 1.349 . S
C1178 C1176 1.327 . S
C1178 C1197 1.429 . S
C1178 H1202 0.950 1_455 S
C1179 C1196 1.574 . S
C1179 C1198 1.368 . S
C1179 H1203 0.949 . S
H1180 C1184 0.949 . S
C1181 C1182 1.349 . S
C1181 C1183 1.327 . S
C1181 H1204 0.950 . S
C1182 C1181 1.349 . S
C1182 C1194 1.349 . S
C1183 C1181 1.327 . S
C1183 C1199 1.429 . S
C1183 H1205 0.950 1_655 S
C1184 H1180 0.949 . S
C1184 C1192 1.574 . S
C1184 C1200 1.368 . S
H1185 C1193 0.950 . S
H1186 C1191 0.950 . S
H1187 C1192 0.949 . S
H1188 C1194 0.950 . S
H1189 C1195 0.950 . S
H1190 C1196 0.949 . S
C1191 H1186 0.950 . S
C1191 C1193 1.327 . S
C1191 C1197 1.429 . S
C1192 C1184 1.574 . S
C1192 H1187 0.949 . S
C1192 C1198 1.368 1_655 S
C1193 C1177 1.349 . S
C1193 H1185 0.950 . S
C1193 C1191 1.327 . S
C1194 C1182 1.349 . S
C1194 H1188 0.950 . S
C1194 C1195 1.327 . S
C1195 H1189 0.950 . S
C1195 C1194 1.327 . S
C1195 C1199 1.429 . S
C1196 C1179 1.574 . S
C1196 H1190 0.949 . S
C1196 C1200 1.368 1_455 S
C1197 C1178 1.429 . S
C1197 C1191 1.429 . S
C1197 C1198 1.523 . S
C1198 C1179 1.368 . S
C1198 C1192 1.368 1_455 S
C1198 C1197 1.523 . S
C1199 C1183 1.429 . S
C1199 C1195 1.429 . S
C1199 C1200 1.523 . S
C1200 C1184 1.368 . S
C1200 C1196 1.368 1_655 S
C1200 C1199 1.523 . S
H1201 C1176 0.950 . S
H1202 C1178 0.950 1_655 S
H1203 C1179 0.949 . S
H1204 C1181 0.950 . S
H1205 C1183 0.950 1_455 S
C1206 C1207 1.349 . S
C1206 C1208 1.327 . S
C1206 H1231 0.950 . S
C1207 C1206 1.349 . S
C1207 C1223 1.349 . S
C1208 C1206 1.327 . S
C1208 C1227 1.429 . S
C1208 H1232 0.950 . S
C1209 C1226 1.574 . S
C1209 C1228 1.368 . S
C1209 H1233 0.949 . S
H1210 C1214 0.949 . S
C1211 C1212 1.349 . S
C1211 C1213 1.327 . S
C1211 H1234 0.950 . S
C1212 C1211 1.349 . S
C1212 C1224 1.349 . S
C1213 C1211 1.327 . S
C1213 C1229 1.429 . S
C1213 H1235 0.950 . S
C1214 H1210 0.949 . S
C1214 C1222 1.574 . S
C1214 C1230 1.368 . S
H1215 C1223 0.950 . S
H1216 C1221 0.950 . S
H1217 C1222 0.949 . S
H1218 C1224 0.950 . S
H1219 C1225 0.950 . S
H1220 C1226 0.949 . S
C1221 H1216 0.950 . S
C1221 C1223 1.327 . S
C1221 C1227 1.429 . S
C1222 C1214 1.574 . S
C1222 H1217 0.949 . S
C1222 C1228 1.368 . S
C1223 C1207 1.349 . S
C1223 H1215 0.950 . S
C1223 C1221 1.327 . S
C1224 C1212 1.349 . S
C1224 H1218 0.950 . S
C1224 C1225 1.327 . S
C1225 H1219 0.950 . S
C1225 C1224 1.327 . S
C1225 C1229 1.429 . S
C1226 C1209 1.574 . S
C1226 H1220 0.949 . S
C1226 C1230 1.368 . S
C1227 C1208 1.429 . S
C1227 C1221 1.429 . S
C1227 C1228 1.523 . S
C1228 C1209 1.368 . S
C1228 C1222 1.368 . S
C1228 C1227 1.523 . S
C1229 C1213 1.429 . S
C1229 C1225 1.429 . S
C1229 C1230 1.523 . S
C1230 C1214 1.368 . S
C1230 C1226 1.368 . S
C1230 C1229 1.523 . S
H1231 C1206 0.950 . S
H1232 C1208 0.950 . S
H1233 C1209 0.949 . S
H1234 C1211 0.950 . S
H1235 C1213 0.950 . S
C1236 C1237 1.349 . S
C1236 C1238 1.327 . S
C1236 H1261 0.950 . S
C1237 C1236 1.349 . S
C1237 C1253 1.349 . S
C1238 C1236 1.327 . S
C1238 C1257 1.429 . S
C1238 H1262 0.950 . S
C1239 C1256 1.574 . S
C1239 C1258 1.368 . S
C1239 H1263 0.949 . S
H1240 C1244 0.949 . S
C1241 C1242 1.349 . S
C1241 C1243 1.327 . S
C1241 H1264 0.950 . S
C1242 C1241 1.349 . S
C1242 C1254 1.349 . S
C1243 C1241 1.327 . S
C1243 C1259 1.429 . S
C1243 H1265 0.950 . S
C1244 H1240 0.949 . S
C1244 C1252 1.574 . S
C1244 C1260 1.368 . S
H1245 C1253 0.950 . S
H1246 C1251 0.950 . S
H1247 C1252 0.949 . S
H1248 C1254 0.950 . S
H1249 C1255 0.950 . S
H1250 C1256 0.949 . S
C1251 H1246 0.950 . S
C1251 C1253 1.327 . S
C1251 C1257 1.429 . S
C1252 C1244 1.574 . S
C1252 H1247 0.949 . S
C1252 C1258 1.368 . S
C1253 C1237 1.349 . S
C1253 H1245 0.950 . S
C1253 C1251 1.327 . S
C1254 C1242 1.349 . S
C1254 H1248 0.950 . S
C1254 C1255 1.327 . S
C1255 H1249 0.950 . S
C1255 C1254 1.327 . S
C1255 C1259 1.429 . S
C1256 C1239 1.574 . S
C1256 H1250 0.949 . S
C1256 C1260 1.368 . S
C1257 C1238 1.429 . S
C1257 C1251 1.429 . S
C1257 C1258 1.523 . S
C1258 C1239 1.368 . S
C1258 C1252 1.368 . S
C1258 C1257 1.523 . S
C1259 C1243 1.429 . S
C1259 C1255 1.429 . S
C1259 C1260 1.523 . S
C1260 C1244 1.368 . S
C1260 C1256 1.368 . S
C1260 C1259 1.523 . S
H1261 C1236 0.950 . S
H1262 C1238 0.950 . S
H1263 C1239 0.949 . S
H1264 C1241 0.950 . S
H1265 C1243 0.950 . S
C1266 C1267 1.349 . S
C1266 C1268 1.327 . S
C1266 H1291 0.950 . S
C1267 C1266 1.349 . S
C1267 C1283 1.349 . S
C1268 C1266 1.327 . S
C1268 C1287 1.429 . S
C1268 H1292 0.950 . S
C1269 C1286 1.574 . S
C1269 C1288 1.368 1_655 S
C1269 H1293 0.949 . S
H1270 C1274 0.949 . S
C1271 C1272 1.349 . S
C1271 C1273 1.327 . S
C1271 H1294 0.950 . S
C1272 C1271 1.349 . S
C1272 C1284 1.349 . S
C1273 C1271 1.327 . S
C1273 C1289 1.429 . S
C1273 H1295 0.950 . S
C1274 H1270 0.949 . S
C1274 C1282 1.574 . S
C1274 C1290 1.368 1_455 S
H1275 C1283 0.950 . S
H1276 C1281 0.950 1_655 S
H1277 C1282 0.949 . S
H1278 C1284 0.950 . S
H1279 C1285 0.950 1_455 S
H1280 C1286 0.949 . S
C1281 H1276 0.950 1_455 S
C1281 C1283 1.327 . S
C1281 C1287 1.429 . S
C1282 C1274 1.574 . S
C1282 H1277 0.949 . S
C1282 C1288 1.368 . S
C1283 C1267 1.349 . S
C1283 H1275 0.950 . S
C1283 C1281 1.327 . S
C1284 C1272 1.349 . S
C1284 H1278 0.950 . S
C1284 C1285 1.327 . S
C1285 H1279 0.950 1_655 S
C1285 C1284 1.327 . S
C1285 C1289 1.429 . S
C1286 C1269 1.574 . S
C1286 H1280 0.949 . S
C1286 C1290 1.368 . S
C1287 C1268 1.429 . S
C1287 C1281 1.429 . S
C1287 C1288 1.523 . S
C1288 C1269 1.368 1_455 S
C1288 C1282 1.368 . S
C1288 C1287 1.523 . S
C1289 C1273 1.429 . S
C1289 C1285 1.429 . S
C1289 C1290 1.523 . S
C1290 C1274 1.368 1_655 S
C1290 C1286 1.368 . S
C1290 C1289 1.523 . S
H1291 C1266 0.950 . S
H1292 C1268 0.950 . S
H1293 C1269 0.949 . S
H1294 C1271 0.950 . S
H1295 C1273 0.950 . S
C1296 C1297 1.349 . S
C1296 C1298 1.327 . S
C1296 H1321 0.950 . S
C1297 C1296 1.349 . S
C1297 C1313 1.349 . S
C1298 C1296 1.327 . S
C1298 C1317 1.429 . S
C1298 H1322 0.950 1_565 S
C1299 C1316 1.574 1_556 S
C1299 C1318 1.368 1_455 S
C1299 H1323 0.949 . S
H1300 C1304 0.949 . S
C1301 C1302 1.349 . S
C1301 C1303 1.327 . S
C1301 H1324 0.950 . S
C1302 C1301 1.349 . S
C1302 C1314 1.349 . S
C1303 C1301 1.327 . S
C1303 C1319 1.429 . S
C1303 H1325 0.950 1_545 S
C1304 H1300 0.949 . S
C1304 C1312 1.574 1_554 S
C1304 C1320 1.368 1_655 S
H1305 C1313 0.950 1_455 S
H1306 C1311 0.916 1_455 S
H1307 C1312 0.949 . S
H1308 C1314 0.950 1_655 S
H1309 C1315 0.916 1_655 S
H1310 C1316 0.949 . S
C1311 H1306 0.916 1_655 S
C1311 C1313 1.339 . S
C1311 C1317 1.450 . S
C1312 C1304 1.574 1_556 S
C1312 H1307 0.949 . S
C1312 C1318 1.368 1_545 S
C1313 C1297 1.349 . S
C1313 H1305 0.950 1_655 S
C1313 C1311 1.339 . S
C1314 C1302 1.349 . S
C1314 H1308 0.950 1_455 S
C1314 C1315 1.339 . S
C1315 H1309 0.916 1_455 S
C1315 C1314 1.339 . S
C1315 C1319 1.450 . S
C1316 C1299 1.574 1_554 S
C1316 H1310 0.949 . S
C1316 C1320 1.368 1_565 S
C1317 C1298 1.429 . S
C1317 C1311 1.450 . S
C1317 C1318 1.523 . S
C1318 C1299 1.368 1_655 S
C1318 C1312 1.368 1_565 S
C1318 C1317 1.523 . S
C1319 C1303 1.429 . S
C1319 C1315 1.450 . S
C1319 C1320 1.523 . S
C1320 C1304 1.368 1_455 S
C1320 C1316 1.368 1_545 S
C1320 C1319 1.523 . S
H1321 C1296 0.950 . S
H1322 C1298 0.950 1_545 S
H1323 C1299 0.949 . S
H1324 C1301 0.950 . S
H1325 C1303 0.950 1_565 S
C1326 C1327 1.349 . S
C1326 C1328 1.327 . S
C1326 H1351 0.950 . S
C1327 C1326 1.349 . S
C1327 C1343 1.349 . S
C1328 C1326 1.327 . S
C1328 C1347 1.429 . S
C1328 H1352 0.950 . S
C1329 C1346 1.584 1_556 S
C1329 C1348 1.358 1_565 S
C1329 H1353 0.949 . S
H1330 C1334 0.949 . S
C1331 C1332 1.349 . S
C1331 C1333 1.327 . S
C1331 H1354 0.950 . S
C1332 C1331 1.349 . S
C1332 C1344 1.349 . S
C1333 C1331 1.327 . S
C1333 C1349 1.429 . S
C1333 H1355 0.950 . S
C1334 H1330 0.949 . S
C1334 C1342 1.584 1_554 S
C1334 C1350 1.358 1_545 S
H1335 C1343 0.950 . S
H1336 C1341 0.950 . S
H1337 C1342 0.949 . S
H1338 C1344 0.950 . S
H1339 C1345 0.950 . S
H1340 C1346 0.949 . S
C1341 H1336 0.950 . S
C1341 C1343 1.327 . S
C1341 C1347 1.429 . S
C1342 C1334 1.584 1_556 S
C1342 H1337 0.949 . S
C1342 C1348 1.368 . S
C1343 C1327 1.349 . S
C1343 H1335 0.950 . S
C1343 C1341 1.327 . S
C1344 C1332 1.349 . S
C1344 H1338 0.950 . S
C1344 C1345 1.327 . S
C1345 H1339 0.950 . S
C1345 C1344 1.327 . S
C1345 C1349 1.429 . S
C1346 C1329 1.584 1_554 S
C1346 H1340 0.949 . S
C1346 C1350 1.368 . S
C1347 C1328 1.429 . S
C1347 C1341 1.429 . S
C1347 C1348 1.523 . S
C1348 C1329 1.358 1_545 S
C1348 C1342 1.368 . S
C1348 C1347 1.523 . S
C1349 C1333 1.429 . S
C1349 C1345 1.429 . S
C1349 C1350 1.523 . S
C1350 C1334 1.358 1_565 S
C1350 C1346 1.368 . S
C1350 C1349 1.523 . S
H1351 C1326 0.950 . S
H1352 C1328 0.950 . S
H1353 C1329 0.949 . S
H1354 C1331 0.950 . S
H1355 C1333 0.950 . S
C1356 C1357 1.349 . S
C1356 C1358 1.327 . S
C1356 H1381 0.950 . S
C1357 C1356 1.349 . S
C1357 C1373 1.349 . S
C1358 C1356 1.327 . S
C1358 C1377 1.429 . S
C1358 H1382 0.950 1_545 S
C1359 C1376 1.574 . S
C1359 C1378 1.368 . S
C1359 H1383 0.949 . S
H1360 C1364 0.949 . S
C1361 C1362 1.349 . S
C1361 C1363 1.327 . S
C1361 H1384 0.950 . S
C1362 C1361 1.349 . S
C1362 C1374 1.349 . S
C1363 C1361 1.327 . S
C1363 C1379 1.429 . S
C1363 H1385 0.950 1_565 S
C1364 H1360 0.949 . S
C1364 C1372 1.574 . S
C1364 C1380 1.368 . S
H1365 C1373 0.950 . S
H1366 C1371 0.950 . S
H1367 C1372 0.949 . S
H1368 C1374 0.950 . S
H1369 C1375 0.950 . S
H1370 C1376 0.949 . S
C1371 H1366 0.950 . S
C1371 C1373 1.327 . S
C1371 C1377 1.429 . S
C1372 C1364 1.574 . S
C1372 H1367 0.949 . S
C1372 C1378 1.368 1_565 S
C1373 C1357 1.349 . S
C1373 H1365 0.950 . S
C1373 C1371 1.327 . S
C1374 C1362 1.349 . S
C1374 H1368 0.950 . S
C1374 C1375 1.327 . S
C1375 H1369 0.950 . S
C1375 C1374 1.327 . S
C1375 C1379 1.429 . S
C1376 C1359 1.574 . S
C1376 H1370 0.949 . S
C1376 C1380 1.368 1_545 S
C1377 C1358 1.429 . S
C1377 C1371 1.429 . S
C1377 C1378 1.523 . S
C1378 C1359 1.368 . S
C1378 C1372 1.368 1_545 S
C1378 C1377 1.523 . S
C1379 C1363 1.429 . S
C1379 C1375 1.429 . S
C1379 C1380 1.523 . S
C1380 C1364 1.368 . S
C1380 C1376 1.368 1_565 S
C1380 C1379 1.523 . S
H1381 C1356 0.950 . S
H1382 C1358 0.950 1_565 S
H1383 C1359 0.949 . S
H1384 C1361 0.950 . S
H1385 C1363 0.950 1_545 S
C1386 C1387 1.349 . S
C1386 C1388 1.327 1_455 S
C1386 H1411 0.950 1_455 S
C1387 C1386 1.349 . S
C1387 C1403 1.349 . S
C1388 C1386 1.327 1_655 S
C1388 C1407 1.429 1_655 S
C1388 H1412 0.950 . S
C1389 C1406 1.574 1_565 S
C1389 C1408 1.368 . S
C1389 H1413 0.949 . S
H1390 C1394 0.949 . S
C1391 C1392 1.349 . S
C1391 C1393 1.327 1_655 S
C1391 H1414 0.950 1_655 S
C1392 C1391 1.349 . S
C1392 C1404 1.349 . S
C1393 C1391 1.327 1_455 S
C1393 C1409 1.429 1_455 S
C1393 H1415 0.950 . S
C1394 H1390 0.949 . S
C1394 C1402 1.574 1_545 S
C1394 C1410 1.368 . S
H1395 C1403 0.950 . S
H1396 C1401 0.950 . S
H1397 C1402 0.949 . S
H1398 C1404 0.950 . S
H1399 C1405 0.950 . S
H1400 C1406 0.949 . S
C1401 H1396 0.950 . S
C1401 C1403 1.327 . S
C1401 C1407 1.429 . S
C1402 C1394 1.574 1_565 S
C1402 H1397 0.949 . S
C1402 C1408 1.368 1_655 S
C1403 C1387 1.349 . S
C1403 H1395 0.950 . S
C1403 C1401 1.327 . S
C1404 C1392 1.349 . S
C1404 H1398 0.950 . S
C1404 C1405 1.327 . S
C1405 H1399 0.950 . S
C1405 C1404 1.327 . S
C1405 C1409 1.429 . S
C1406 C1389 1.574 1_545 S
C1406 H1400 0.949 . S
C1406 C1410 1.368 1_455 S
C1407 C1388 1.429 1_455 S
C1407 C1401 1.429 . S
C1407 C1408 1.523 . S
C1408 C1389 1.368 . S
C1408 C1402 1.368 1_455 S
C1408 C1407 1.523 . S
C1409 C1393 1.429 1_655 S
C1409 C1405 1.429 . S
C1409 C1410 1.523 . S
C1410 C1394 1.368 . S
C1410 C1406 1.368 1_655 S
C1410 C1409 1.523 . S
H1411 C1386 0.950 1_655 S
H1412 C1388 0.950 . S
H1413 C1389 0.949 . S
H1414 C1391 0.950 1_455 S
H1415 C1393 0.950 . S
C1416 C1417 1.349 . S
C1416 C1418 1.327 . S
C1416 H1441 0.950 . S
C1417 C1416 1.349 . S
C1417 C1433 1.349 . S
C1418 C1416 1.327 . S
C1418 C1437 1.429 . S
C1418 H1442 0.950 . S
C1419 C1436 1.574 1_554 S
C1419 C1438 1.368 . S
C1419 H1443 0.949 . S
H1420 C1424 0.949 . S
C1421 C1422 1.349 . S
C1421 C1423 1.327 . S
C1421 H1444 0.950 . S
C1422 C1421 1.349 . S
C1422 C1434 1.349 . S
C1423 C1421 1.327 . S
C1423 C1439 1.429 . S
C1423 H1445 0.950 . S
C1424 H1420 0.949 . S
C1424 C1432 1.574 1_556 S
C1424 C1440 1.368 . S
H1425 C1433 0.950 . S
H1426 C1431 0.950 . S
H1427 C1432 0.949 . S
H1428 C1434 0.950 . S
H1429 C1435 0.950 . S
H1430 C1436 0.949 . S
C1431 H1426 0.950 . S
C1431 C1433 1.327 . S
C1431 C1437 1.429 . S
C1432 C1424 1.574 1_554 S
C1432 H1427 0.949 . S
C1432 C1438 1.368 . S
C1433 C1417 1.349 . S
C1433 H1425 0.950 . S
C1433 C1431 1.327 . S
C1434 C1422 1.349 . S
C1434 H1428 0.950 . S
C1434 C1435 1.327 . S
C1435 H1429 0.950 . S
C1435 C1434 1.327 . S
C1435 C1439 1.429 . S
C1436 C1419 1.574 1_556 S
C1436 H1430 0.949 . S
C1436 C1440 1.368 . S
C1437 C1418 1.429 . S
C1437 C1431 1.429 . S
C1437 C1438 1.523 . S
C1438 C1419 1.368 . S
C1438 C1432 1.368 . S
C1438 C1437 1.523 . S
C1439 C1423 1.429 . S
C1439 C1435 1.429 . S
C1439 C1440 1.523 . S
C1440 C1424 1.368 . S
C1440 C1436 1.368 . S
C1440 C1439 1.523 . S
H1441 C1416 0.950 . S
H1442 C1418 0.950 . S
H1443 C1419 0.949 . S
H1444 C1421 0.950 . S
H1445 C1423 0.950 . S
C1446 C1447 1.349 . S
C1446 C1448 1.327 . S
C1446 H1471 0.950 . S
C1447 C1446 1.349 . S
C1447 C1463 1.349 . S
C1448 C1446 1.327 . S
C1448 C1467 1.429 . S
C1448 H1472 0.950 . S
C1449 C1466 1.574 1_554 S
C1449 C1468 1.368 1_455 S
C1449 H1473 0.949 . S
H1450 C1454 0.949 . S
C1451 C1452 1.349 . S
C1451 C1453 1.327 . S
C1451 H1474 0.950 . S
C1452 C1451 1.349 . S
C1452 C1464 1.349 . S
C1453 C1451 1.327 . S
C1453 C1469 1.429 . S
C1453 H1475 0.950 . S
C1454 H1450 0.949 . S
C1454 C1462 1.574 1_556 S
C1454 C1470 1.368 1_655 S
H1455 C1463 0.950 . S
H1456 C1461 0.950 . S
H1457 C1462 0.949 . S
H1458 C1464 0.950 . S
H1459 C1465 0.950 . S
H1460 C1466 0.949 . S
C1461 H1456 0.950 . S
C1461 C1463 1.327 . S
C1461 C1467 1.429 . S
C1462 C1454 1.574 1_554 S
C1462 H1457 0.949 . S
C1462 C1468 1.368 . S
C1463 C1447 1.349 . S
C1463 H1455 0.950 . S
C1463 C1461 1.327 . S
C1464 C1452 1.349 . S
C1464 H1458 0.950 . S
C1464 C1465 1.327 . S
C1465 H1459 0.950 . S
C1465 C1464 1.327 . S
C1465 C1469 1.429 . S
C1466 C1449 1.574 1_556 S
C1466 H1460 0.949 . S
C1466 C1470 1.368 . S
C1467 C1448 1.429 . S
C1467 C1461 1.429 . S
C1467 C1468 1.523 . S
C1468 C1449 1.368 1_655 S
C1468 C1462 1.368 . S
C1468 C1467 1.523 . S
C1469 C1453 1.429 . S
C1469 C1465 1.429 . S
C1469 C1470 1.523 . S
C1470 C1454 1.368 1_455 S
C1470 C1466 1.368 . S
C1470 C1469 1.523 . S
H1471 C1446 0.950 . S
H1472 C1448 0.950 . S
H1473 C1449 0.949 . S
H1474 C1451 0.950 . S
H1475 C1453 0.950 . S
C1476 C1477 1.349 . S
C1476 C1478 1.327 . S
C1476 H1501 0.950 . S
C1477 C1476 1.349 . S
C1477 C1493 1.349 . S
C1478 C1476 1.327 . S
C1478 C1497 1.429 . S
C1478 H1502 0.950 1_655 S
C1479 C1496 1.574 . S
C1479 C1498 1.368 . S
C1479 H1503 0.949 . S
H1480 C1484 0.949 . S
C1481 C1482 1.349 . S
C1481 C1483 1.327 . S
C1481 H1504 0.950 . S
C1482 C1481 1.349 . S
C1482 C1494 1.349 . S
C1483 C1481 1.327 . S
C1483 C1499 1.429 . S
C1483 H1505 0.950 1_455 S
C1484 H1480 0.949 . S
C1484 C1492 1.574 . S
C1484 C1500 1.368 . S
H1485 C1493 0.950 . S
H1486 C1491 0.950 . S
H1487 C1492 0.949 . S
H1488 C1494 0.950 . S
H1489 C1495 0.950 . S
H1490 C1496 0.949 . S
C1491 H1486 0.950 . S
C1491 C1493 1.327 . S
C1491 C1497 1.429 . S
C1492 C1484 1.574 . S
C1492 H1487 0.949 . S
C1492 C1498 1.368 1_455 S
C1493 C1477 1.349 . S
C1493 H1485 0.950 . S
C1493 C1491 1.327 . S
C1494 C1482 1.349 . S
C1494 H1488 0.950 . S
C1494 C1495 1.327 . S
C1495 H1489 0.950 . S
C1495 C1494 1.327 . S
C1495 C1499 1.429 . S
C1496 C1479 1.574 . S
C1496 H1490 0.949 . S
C1496 C1500 1.368 1_655 S
C1497 C1478 1.429 . S
C1497 C1491 1.429 . S
C1497 C1498 1.523 . S
C1498 C1479 1.368 . S
C1498 C1492 1.368 1_655 S
C1498 C1497 1.523 . S
C1499 C1483 1.429 . S
C1499 C1495 1.429 . S
C1499 C1500 1.523 . S
C1500 C1484 1.368 . S
C1500 C1496 1.368 1_455 S
C1500 C1499 1.523 . S
H1501 C1476 0.950 . S
H1502 C1478 0.950 1_455 S
H1503 C1479 0.949 . S
H1504 C1481 0.950 . S
H1505 C1483 0.950 1_655 S
C1506 C1507 1.349 . S
C1506 C1508 1.327 . S
C1506 H1531 0.950 . S
C1507 C1506 1.349 . S
C1507 C1523 1.349 . S
C1508 C1506 1.327 . S
C1508 C1527 1.429 . S
C1508 H1532 0.950 . S
C1509 C1526 1.574 . S
C1509 C1528 1.368 . S
C1509 H1533 0.949 . S
H1510 C1514 0.949 . S
C1511 C1512 1.349 . S
C1511 C1513 1.327 . S
C1511 H1534 0.950 . S
C1512 C1511 1.349 . S
C1512 C1524 1.349 . S
C1513 C1511 1.327 . S
C1513 C1529 1.429 . S
C1513 H1535 0.950 . S
C1514 H1510 0.949 . S
C1514 C1522 1.574 . S
C1514 C1530 1.368 . S
H1515 C1523 0.950 . S
H1516 C1521 0.950 . S
H1517 C1522 0.949 . S
H1518 C1524 0.950 . S
H1519 C1525 0.950 . S
H1520 C1526 0.949 . S
C1521 H1516 0.950 . S
C1521 C1523 1.327 . S
C1521 C1527 1.429 . S
C1522 C1514 1.574 . S
C1522 H1517 0.949 . S
C1522 C1528 1.368 . S
C1523 C1507 1.349 . S
C1523 H1515 0.950 . S
C1523 C1521 1.327 . S
C1524 C1512 1.349 . S
C1524 H1518 0.950 . S
C1524 C1525 1.327 . S
C1525 H1519 0.950 . S
C1525 C1524 1.327 . S
C1525 C1529 1.429 . S
C1526 C1509 1.574 . S
C1526 H1520 0.949 . S
C1526 C1530 1.368 . S
C1527 C1508 1.429 . S
C1527 C1521 1.429 . S
C1527 C1528 1.523 . S
C1528 C1509 1.368 . S
C1528 C1522 1.368 . S
C1528 C1527 1.523 . S
C1529 C1513 1.429 . S
C1529 C1525 1.429 . S
C1529 C1530 1.523 . S
C1530 C1514 1.368 . S
C1530 C1526 1.368 . S
C1530 C1529 1.523 . S
H1531 C1506 0.950 . S
H1532 C1508 0.950 . S
H1533 C1509 0.949 . S
H1534 C1511 0.950 . S
H1535 C1513 0.950 . S
C577 C40 1.490 . S
C582 C4 1.490 . S
C607 C76 1.490 . S
C612 C112 1.490 . S
C637 C148 1.490 . S
C642 C184 1.490 . S
C667 C256 1.490 . S
C672 C220 1.490 . S
C697 C328 1.490 . S
C702 C292 1.490 . S
C727 C400 1.490 . S
C732 C364 1.490 . S
C757 C472 1.490 . S
C762 C436 1.490 . S
C787 C544 1.490 . S
C792 C508 1.490 . S
C817 C110 1.247 . S
C822 C2 1.247 . S
C847 C38 1.247 . S
C852 C74 1.247 . S
C877 C254 1.247 . S
C882 C146 1.247 . S
C907 C218 1.247 . S
C912 C182 1.247 . S
C937 C290 1.247 . S
C942 C398 1.247 . S
C967 C362 1.247 . S
C972 C326 1.247 . S
C997 C542 1.247 . S
C1002 C434 1.247 . S
C1027 C470 1.247 . S
C1032 C506 1.247 . S
C1057 C3 1.503 . S
C1062 C327 1.503 . S
C1087 C39 1.503 . S
C1092 C291 1.503 . S
C1117 C399 1.503 . S
C1122 C75 1.503 . S
C1147 C363 1.503 . S
C1152 C111 1.503 . S
C1177 C471 1.503 . S
C1182 C147 1.503 . S
C1207 C435 1.503 . S
C1212 C183 1.503 . S
C1237 C219 1.503 . S
C1242 C543 1.503 . S
C1267 C255 1.503 . S
C1272 C507 1.503 . S
C1297 C158 1.166 . S
C1302 C14 1.166 . S
C1327 C194 1.166 . S
C1332 C50 1.166 . S
C1357 C230 1.166 . S
C1362 C86 1.166 . S
C1387 C266 1.166 . S
C1392 C122 1.166 . S
C1417 C302 1.166 . S
C1422 C446 1.166 . S
C1447 C338 1.166 . S
C1452 C482 1.166 . S
C1477 C518 1.166 . S
C1482 C374 1.166 . S
C1507 C554 1.166 . S
C1512 C410 1.166 . S
