# Generated by pormake.
# Topology sml, (6)-cn, num edge types: 1
# Building blocks:
#     Node 0, Type 0, BuildingBlock: BETDAH_clean_sbu_0, # of connection points: 6
#     Node 1, Type 0, BuildingBlock: BETDAH_clean_sbu_0, # of connection points: 6
#     Node 2, Type 0, BuildingBlock: BETDAH_clean_sbu_0, # of connection points: 6
#     Node 3, Type 0, BuildingBlock: BETDAH_clean_sbu_0, # of connection points: 6
#     Node 4, Type 0, BuildingBlock: BETDAH_clean_sbu_0, # of connection points: 6
#     Node 5, Type 0, BuildingBlock: BETDAH_clean_sbu_0, # of connection points: 6
#     Edge 6, Type (0, 0), BuildingBlock: XUDNAN_clean_linker_2, # of connection points: 2
#     Edge 7, Type (0, 0), BuildingBlock: XUDNAN_clean_linker_2, # of connection points: 2
#     Edge 8, Type (0, 0), BuildingBlock: XUDNAN_clean_linker_2, # of connection points: 2
#     Edge 9, Type (0, 0), BuildingBlock: XUDNAN_clean_linker_2, # of connection points: 2
#     Edge 10, Type (0, 0), BuildingBlock: XUDNAN_clean_linker_2, # of connection points: 2
#     Edge 11, Type (0, 0), BuildingBlock: XUDNAN_clean_linker_2, # of connection points: 2
#     Edge 12, Type (0, 0), BuildingBlock: XUDNAN_clean_linker_2, # of connection points: 2
#     Edge 13, Type (0, 0), BuildingBlock: XUDNAN_clean_linker_2, # of connection points: 2
#     Edge 14, Type (0, 0), BuildingBlock: XUDNAN_clean_linker_2, # of connection points: 2
#     Edge 15, Type (0, 0), BuildingBlock: XUDNAN_clean_linker_2, # of connection points: 2
#     Edge 16, Type (0, 0), BuildingBlock: XUDNAN_clean_linker_2, # of connection points: 2
#     Edge 17, Type (0, 0), BuildingBlock: XUDNAN_clean_linker_2, # of connection points: 2
#     Edge 18, Type (0, 0), BuildingBlock: XUDNAN_clean_linker_2, # of connection points: 2
#     Edge 19, Type (0, 0), BuildingBlock: XUDNAN_clean_linker_2, # of connection points: 2
#     Edge 20, Type (0, 0), BuildingBlock: XUDNAN_clean_linker_2, # of connection points: 2
#     Edge 21, Type (0, 0), BuildingBlock: XUDNAN_clean_linker_2, # of connection points: 2
#     Edge 22, Type (0, 0), BuildingBlock: XUDNAN_clean_linker_2, # of connection points: 2
#     Edge 23, Type (0, 0), BuildingBlock: XUDNAN_clean_linker_2, # of connection points: 2
# Relax obj value: 0.178
# Max RMSD: 0.218
# Mean RMSD: 0.218
data_MOF--net-sml--node1-BETDAH_clean_sbu_0--edge1-XUDNAN_clean_linker_2
_symmetry_space_group_name_H-M    P1
_symmetry_Int_Tables_number       1
_symmetry_cell_setting            triclinic
loop_
_symmetry_equiv_pos_as_xyz
'x, y, z'
_cell_length_a     31.737783
_cell_length_b     31.70119
_cell_length_c     25.160479
_cell_angle_alpha  90.212764
_cell_angle_beta   89.519576
_cell_angle_gamma 119.86981
loop_
_atom_site_label
_atom_site_type_symbol
_atom_site_fract_x
_atom_site_fract_y
_atom_site_fract_z
_atom_type_partial_charge
Ho0 Ho 0.19441 0.44859 0.10904 0.0
Ho1 Ho 0.22499 0.4134 0.20922 0.0
C2 C 0.21688 0.35816 0.10071 0.0
C3 C 0.18879 0.47938 0.01572 0.0
C4 C 0.18969 0.46562 0.95997 0.0
C5 C 0.17432 0.41724 0.94587 0.0
C6 C 0.17147 0.40406 0.89236 0.0
C7 C 0.1841 0.43906 0.85199 0.0
C8 C 0.20125 0.48782 0.86648 0.0
C9 C 0.20394 0.50093 0.92003 0.0
C10 C 0.12201 0.3898 0.17539 0.0
C11 C 0.20244 0.50376 0.21643 0.0
C12 C 0.23097 0.38333 0.30256 0.0
C13 C 0.21865 0.3884 0.35803 0.0
C14 C 0.17247 0.38074 0.37253 0.0
C15 C 0.16137 0.38363 0.42593 0.0
C16 C 0.19633 0.39462 0.46565 0.0
C17 C 0.24278 0.40336 0.4507 0.0
C18 C 0.25371 0.4001 0.39748 0.0
C19 C 0.29716 0.47078 0.14219 0.0
O20 O 0.20924 0.39078 0.07647 0.0
O21 O 0.22008 0.35626 0.15297 0.0
O22 O 0.15092 0.449 0.0439 0.0
O23 O 0.22952 0.49649 0.04189 0.0
O24 O 0.12229 0.42488 0.14869 0.0
O25 O 0.15835 0.38567 0.16299 0.0
O26 O 0.20551 0.46859 0.24135 0.0
O27 O 0.20395 0.50779 0.16412 0.0
O28 O 0.26631 0.42248 0.28051 0.0
O29 O 0.19475 0.35816 0.27016 0.0
O30 O 0.29688 0.43614 0.16975 0.0
O31 O 0.26118 0.47553 0.15484 0.0
H32 H 0.16353 0.38949 0.97617 0.0
H33 H 0.15893 0.36636 0.88256 0.0
H34 H 0.21098 0.51559 0.8364 0.0
H35 H 0.21603 0.53848 0.93021 0.0
H36 H 0.14482 0.37208 0.34281 0.0
H37 H 0.12543 0.37723 0.43617 0.0
H38 H 0.2703 0.41135 0.48036 0.0
H39 H 0.28951 0.4061 0.38717 0.0
Ho40 Ho 0.79562 0.24214 0.51816 0.0
Ho41 Ho 0.77245 0.17213 0.42109 0.0
C42 C 0.78917 0.13563 0.53012 0.0
C43 C 0.79757 0.27987 0.6105 0.0
C44 C 0.79355 0.26933 0.66829 0.0
C45 C 0.76129 0.2232 0.68978 0.0
C46 C 0.75739 0.21602 0.74526 0.0
C47 C 0.7853 0.25493 0.78009 0.0
C48 C 0.8182 0.30051 0.75797 0.0
C49 C 0.8222 0.30754 0.70295 0.0
C50 C 0.87093 0.26126 0.45341 0.0
C51 C 0.7813 0.27889 0.40655 0.0
C52 C 0.76853 0.13612 0.32722 0.0
C53 C 0.77246 0.15306 0.27151 0.0
C54 C 0.80209 0.20227 0.25778 0.0
C55 C 0.80361 0.21788 0.20533 0.0
C56 C 0.77571 0.18466 0.1652 0.0
C57 C 0.74688 0.13524 0.17901 0.0
C58 C 0.74519 0.11971 0.23157 0.0
C59 C 0.69797 0.15402 0.48755 0.0
O60 O 0.78451 0.17108 0.55273 0.0
O61 O 0.7931 0.13251 0.47809 0.0
O62 O 0.83637 0.28502 0.58598 0.0
O63 O 0.75828 0.25684 0.58177 0.0
O64 O 0.86601 0.29469 0.47791 0.0
O65 O 0.83759 0.21959 0.46712 0.0
O66 O 0.78447 0.24212 0.38603 0.0
O67 O 0.77936 0.28481 0.45855 0.0
O68 O 0.73011 0.12942 0.35389 0.0
O69 O 0.80808 0.15721 0.35585 0.0
O70 O 0.70294 0.12001 0.46439 0.0
O71 O 0.73107 0.19503 0.47201 0.0
H72 H 0.73874 0.19303 0.66384 0.0
H73 H 0.73162 0.18049 0.7609 0.0
H74 H 0.8409 0.33107 0.78334 0.0
H75 H 0.84746 0.34332 0.6874 0.0
H76 H 0.82372 0.22879 0.2877 0.0
H77 H 0.82678 0.2561 0.19625 0.0
H78 H 0.72453 0.10868 0.1495 0.0
H79 H 0.72202 0.08159 0.24118 0.0
Ho80 Ho 0.57728 0.72949 0.75832 0.0
Ho81 Ho 0.59102 0.79738 0.85619 0.0
C82 C 0.65034 0.84757 0.75179 0.0
C83 C 0.56372 0.69199 0.66404 0.0
C84 C 0.56706 0.70983 0.60911 0.0
C85 C 0.5574 0.7475 0.59766 0.0
C86 C 0.56113 0.76424 0.54545 0.0
C87 C 0.57511 0.74405 0.50352 0.0
C88 C 0.58456 0.70616 0.51531 0.0
C89 C 0.58053 0.68926 0.56754 0.0
C90 C 0.63571 0.73031 0.83524 0.0
C91 C 0.5156 0.67991 0.86275 0.0
C92 C 0.60691 0.83769 0.94912 0.0
C93 C 0.59888 0.82585 1.0065 0.0
C94 C 0.61097 0.79336 0.03072 0.0
C95 C 0.60773 0.78737 0.0862 0.0
C96 C 0.59254 0.81388 0.11835 0.0
C97 C 0.57849 0.84461 0.0935 0.0
C98 C 0.58176 0.85057 0.03836 0.0
C99 C 0.5303 0.79373 0.77972 0.0
O100 O 0.62242 0.80598 0.72686 0.0
O101 O 0.6489 0.85277 0.80376 0.0
O102 O 0.60478 0.70898 0.68959 0.0
O103 O 0.52883 0.69008 0.69386 0.0
O104 O 0.60961 0.69284 0.80537 0.0
O105 O 0.63267 0.76648 0.81964 0.0
O106 O 0.54216 0.72178 0.88776 0.0
O107 O 0.51912 0.674 0.81107 0.0
O108 O 0.56868 0.82764 0.92068 0.0
O109 O 0.63806 0.82905 0.92383 0.0
O110 O 0.55653 0.83229 0.80815 0.0
O111 O 0.53514 0.75895 0.79605 0.0
H112 H 0.54705 0.76409 0.62908 0.0
H113 H 0.55282 0.79291 0.53799 0.0
H114 H 0.59608 0.69018 0.48439 0.0
H115 H 0.58837 0.66031 0.57555 0.0
H116 H 0.62409 0.7736 1.00706 0.0
H117 H 0.61892 0.76349 0.104 0.0
H118 H 0.56566 0.8648 0.11683 0.0
H119 H 0.57204 0.87565 0.02064 0.0
Ho120 Ho 0.73082 0.57308 0.23119 0.0
Ho121 Ho 0.7946 0.60978 0.12862 0.0
C122 C 0.8451 0.66055 0.2368 0.0
C123 C 0.69592 0.54146 0.32509 0.0
C124 C 0.70992 0.55881 0.37998 0.0
C125 C 0.70312 0.52541 0.42012 0.0
C126 C 0.71709 0.5412 0.47232 0.0
C127 C 0.73799 0.5908 0.48542 0.0
C128 C 0.74465 0.62415 0.44489 0.0
C129 C 0.73103 0.60836 0.39265 0.0
C130 C 0.71955 0.63623 0.17013 0.0
C131 C 0.68587 0.51594 0.12391 0.0
C132 C 0.82798 0.64577 0.03568 0.0
C133 C 0.81127 0.64292 0.98043 0.0
C134 C 0.81736 0.68528 0.95584 0.0
C135 C 0.80822 0.68549 0.90166 0.0
C136 C 0.793 0.64333 0.87081 0.0
C137 C 0.78421 0.60016 0.89609 0.0
C138 C 0.79331 0.59995 0.9504 0.0
C139 C 0.80628 0.54661 0.18933 0.0
O140 O 0.80479 0.62908 0.26232 0.0
O141 O 0.84905 0.66309 0.18449 0.0
O142 O 0.68188 0.56587 0.29522 0.0
O143 O 0.72467 0.52948 0.29992 0.0
O144 O 0.68376 0.59951 0.19416 0.0
O145 O 0.75891 0.63781 0.1809 0.0
O146 O 0.7199 0.55458 0.09834 0.0
O147 O 0.68658 0.51118 0.17607 0.0
O148 O 0.82875 0.60779 0.05486 0.0
O149 O 0.81336 0.66666 0.07049 0.0
O150 O 0.84055 0.57892 0.15919 0.0
O151 O 0.76712 0.54568 0.17974 0.0
H152 H 0.68737 0.48707 0.41097 0.0
H153 H 0.71223 0.5146 0.50218 0.0
H154 H 0.76004 0.6625 0.45352 0.0
H155 H 0.73705 0.63491 0.3622 0.0
H156 H 0.83083 0.71879 0.97818 0.0
H157 H 0.81434 0.71906 0.8836 0.0
H158 H 0.77263 0.56711 0.87345 0.0
H159 H 0.78795 0.56659 0.96828 0.0
Ho160 Ho 0.26436 0.82895 0.42009 0.0
Ho161 Ho 0.20626 0.81358 0.52319 0.0
C162 C 0.15689 0.81821 0.4187 0.0
C163 C 0.29414 0.82453 0.32545 0.0
C164 C 0.274 0.8124 0.27115 0.0
C165 C 0.26126 0.76686 0.24894 0.0
C166 C 0.24494 0.75604 0.19658 0.0
C167 C 0.24129 0.79066 0.16518 0.0
C168 C 0.25321 0.83587 0.18775 0.0
C169 C 0.26951 0.84669 0.24008 0.0
C170 C 0.2866 0.90964 0.47672 0.0
C171 C 0.31143 0.81825 0.52625 0.0
C172 C 0.17609 0.81955 0.61707 0.0
C173 C 0.18318 0.80984 0.67248 0.0
C174 C 0.19032 0.84429 0.71163 0.0
C175 C 0.19466 0.83506 0.76495 0.0
C176 C 0.19175 0.79103 0.78012 0.0
C177 C 0.18568 0.75699 0.74061 0.0
C178 C 0.18161 0.76636 0.6872 0.0
C179 C 0.18569 0.73245 0.46739 0.0
O180 O 0.18809 0.80863 0.39348 0.0
O181 O 0.16347 0.83227 0.46875 0.0
O182 O 0.29967 0.86474 0.34671 0.0
O183 O 0.27781 0.78856 0.35948 0.0
O184 O 0.3189 0.90217 0.45331 0.0
O185 O 0.24472 0.87456 0.4683 0.0
O186 O 0.27749 0.82239 0.55295 0.0
O187 O 0.311 0.81409 0.47397 0.0
O188 O 0.15273 0.78182 0.5859 0.0
O189 O 0.2134 0.85595 0.59368 0.0
O190 O 0.15279 0.73815 0.49203 0.0
O191 O 0.22669 0.7686 0.4755 0.0
H192 H 0.26469 0.73981 0.27177 0.0
H193 H 0.23654 0.72107 0.18024 0.0
H194 H 0.25011 0.86306 0.16486 0.0
H195 H 0.2791 0.88217 0.25585 0.0
H196 H 0.19178 0.8781 0.70104 0.0
H197 H 0.19891 0.86185 0.79445 0.0
H198 H 0.18406 0.72308 0.75101 0.0
H199 H 0.17668 0.73941 0.65761 0.0
Ho200 Ho 0.43706 0.16428 0.87909 0.0
Ho201 Ho 0.42532 0.21682 0.78 0.0
C202 C 0.36384 0.20917 0.8828 0.0
C203 C 0.44967 0.13601 0.97116 0.0
C204 C 0.44106 0.13825 0.02851 0.0
C205 C 0.43647 0.1763 0.05135 0.0
C206 C 0.42792 0.17644 0.10624 0.0
C207 C 0.4235 0.13836 0.13889 0.0
C208 C 0.42861 0.10076 0.11552 0.0
C209 C 0.43725 0.10075 0.06104 0.0
C210 C 0.37991 0.10583 0.80087 0.0
C211 C 0.49758 0.17149 0.775 0.0
C212 C 0.41115 0.23811 0.68506 0.0
C213 C 0.40985 0.21955 0.63038 0.0
C214 C 0.3652 0.18598 0.60757 0.0
C215 C 0.3632 0.16927 0.55564 0.0
C216 C 0.40575 0.18619 0.52478 0.0
C217 C 0.45049 0.21975 0.54751 0.0
C218 C 0.45254 0.23621 0.59973 0.0
C219 C 0.48525 0.27535 0.85644 0.0
O220 O 0.39191 0.19687 0.90977 0.0
O221 O 0.36557 0.21285 0.83043 0.0
O222 O 0.41122 0.11056 0.94194 0.0
O223 O 0.48219 0.17606 0.94781 0.0
O224 O 0.40619 0.09532 0.83121 0.0
O225 O 0.38256 0.14495 0.81628 0.0
O226 O 0.46908 0.18374 0.74928 0.0
O227 O 0.49642 0.16681 0.82741 0.0
O228 O 0.45332 0.26073 0.70879 0.0
O229 O 0.37597 0.20934 0.71732 0.0
O230 O 0.45954 0.2872 0.8266 0.0
O231 O 0.48071 0.23544 0.84122 0.0
H232 H 0.43921 0.2056 0.02682 0.0
H233 H 0.42386 0.20577 0.12293 0.0
H234 H 0.42629 0.07135 0.13948 0.0
H235 H 0.44092 0.07121 0.04421 0.0
H236 H 0.33155 0.17286 0.62971 0.0
H237 H 0.32805 0.1439 0.53923 0.0
H238 H 0.48399 0.23311 0.52503 0.0
H239 H 0.48757 0.26223 0.61588 0.0
H240 H 0.37147 0.24212 0.9858 0.0
H241 H 0.28222 0.20581 0.84467 0.0
H242 H 0.23027 0.23278 0.88918 0.0
H243 H 0.27354 0.2087 0.08484 0.0
H244 H 0.31068 0.25956 0.12738 0.0
H245 H 0.33836 0.23298 0.08662 0.0
H246 H 0.39568 0.31726 0.04454 0.0
H247 H 0.36826 0.34409 0.08514 0.0
H248 H 0.37001 0.35061 0.01392 0.0
H249 H 0.19284 0.2705 0.94445 0.0
H250 H 0.17174 0.31664 1.00811 0.0
H251 H 0.28347 0.32806 0.11493 0.0
C252 C 0.34032 0.23883 0.96479 0.0
C253 C 0.33064 0.22147 0.91187 0.0
C254 C 0.29031 0.21891 0.8852 0.0
C255 C 0.26045 0.23399 0.91021 0.0
C256 C 0.27137 0.25167 0.96196 0.0
C257 C 0.31027 0.25421 0.98909 0.0
C258 C 0.31597 0.27813 0.04298 0.0
C259 C 0.30922 0.24272 0.08812 0.0
C260 C 0.3654 0.3253 0.04684 0.0
C261 C 0.27435 0.2888 0.04165 0.0
C262 C 0.24915 0.27315 0.99447 0.0
C263 C 0.21166 0.28214 0.98196 0.0
C264 C 0.19995 0.30839 0.01828 0.0
C265 C 0.2253 0.32497 0.06674 0.0
C266 C 0.26248 0.31438 0.0789 0.0
H267 H 0.06659 0.41785 0.23142 0.0
H268 H 0.09882 0.30062 0.2154 0.0
H269 H 0.03738 0.25394 0.28512 0.0
H270 H 0.052 0.4092 0.37422 0.0
H271 H 0.00427 0.42435 0.37439 0.0
H272 H 0.04994 0.4475 0.32273 0.0
H273 H 0.98254 0.40978 0.25134 0.0
H274 H 0.93669 0.38641 0.30276 0.0
H275 H 0.93873 0.34568 0.25398 0.0
H276 H 0.96809 0.21825 0.35264 0.0
H277 H 0.90357 0.2004 0.41969 0.0
H278 H 0.92209 0.344 0.39545 0.0
C279 C 0.06053 0.38225 0.24251 0.0
C280 C 0.08676 0.36235 0.21784 0.0
C281 C 0.07876 0.31621 0.23391 0.0
C282 C 0.04394 0.2895 0.27327 0.0
C283 C 0.01821 0.30996 0.29655 0.0
C284 C 0.02669 0.35563 0.28229 0.0
C285 C 0.99557 0.37028 0.31451 0.0
C286 C 0.02734 0.4155 0.34848 0.0
C287 C 0.96137 0.37851 0.27849 0.0
C288 C 0.9676 0.32541 0.34864 0.0
C289 C 0.98071 0.29074 0.33736 0.0
C290 C 0.95804 0.24538 0.36228 0.0
C291 C 0.92141 0.23549 0.40007 0.0
C292 C 0.90852 0.27108 0.41297 0.0
C293 C 0.9319 0.31647 0.38686 0.0
H294 H 0.7532 0.11231 0.63198 0.0
H295 H 0.81135 0.06569 0.50199 0.0
H296 H 0.79025 0.99046 0.55071 0.0
H297 H 0.78906 0.05669 0.74204 0.0
H298 H 0.73374 0.03962 0.77854 0.0
H299 H 0.7604 0.09339 0.73748 0.0
H300 H 0.67942 0.06048 0.68759 0.0
H301 H 0.65227 0.00601 0.72714 0.0
H302 H 0.65296 0.00181 0.6557 0.0
H303 H 0.75127 0.91565 0.60486 0.0
H304 H 0.7015 0.84719 0.66535 0.0
H305 H 0.67104 0.942 0.76299 0.0
C306 C 0.76305 0.08707 0.61459 0.0
C307 C 0.78416 0.09499 0.56325 0.0
C308 C 0.79526 0.06046 0.54127 0.0
C309 C 0.78355 0.01764 0.5687 0.0
C310 C 0.76117 0.01008 0.61831 0.0
C311 C 0.7516 0.04404 0.64153 0.0
C312 C 0.72341 0.02495 0.69316 0.0
C313 C 0.75346 0.05548 0.74061 0.0
C314 C 0.67409 0.02318 0.69069 0.0
C315 C 0.71715 0.9743 0.69422 0.0
C316 C 0.73949 0.96671 0.65073 0.0
C317 C 0.73473 0.92144 0.63984 0.0
C318 C 0.70626 0.88278 0.67419 0.0
C319 C 0.68336 0.88977 0.71911 0.0
C320 C 0.68945 0.93625 0.7297 0.0
H321 H 0.6144 0.64829 0.88937 0.0
H322 H 0.70532 0.80521 0.89424 0.0
H323 H 0.73796 0.79871 0.98126 0.0
H324 H 0.58107 0.62826 0.02376 0.0
H325 H 0.58429 0.57318 0.02887 0.0
H326 H 0.57092 0.5906 0.96603 0.0
H327 H 0.64308 0.58637 0.92328 0.0
H328 H 0.65893 0.57086 0.98607 0.0
H329 H 0.70325 0.62305 0.94963 0.0
H330 H 0.76147 0.77371 0.06723 0.0
H331 H 0.76967 0.73295 0.14744 0.0
H332 H 0.65794 0.59376 0.08779 0.0
C333 C 0.64148 0.68129 0.90854 0.0
C334 C 0.65726 0.72732 0.88561 0.0
C335 C 0.6925 0.7697 0.91178 0.0
C336 C 0.71137 0.76628 0.96089 0.0
C337 C 0.69445 0.72022 0.98289 0.0
C338 C 0.66025 0.67852 0.95748 0.0
C339 C 0.64732 0.63342 0.98957 0.0
C340 C 0.59267 0.60471 1.00286 0.0
C341 C 0.66408 0.60151 0.9604 0.0
C342 C 0.67757 0.6563 0.03845 0.0
C343 C 0.70581 0.70624 0.03321 0.0
C344 C 0.73906 0.73474 0.07204 0.0
C345 C 0.7434 0.71147 0.11734 0.0
C346 C 0.7136 0.66067 0.12384 0.0
C347 C 0.68022 0.63287 0.0841 0.0
H348 H 0.12223 0.77756 0.32024 0.0
H349 H 0.08556 0.83246 0.46129 0.0
H350 H 0.00321 0.80266 0.42714 0.0
H351 H 0.04887 0.80494 0.22631 0.0
H352 H 0.0313 0.75037 0.18839 0.0
H353 H 0.08917 0.78031 0.22144 0.0
H354 H 0.06706 0.70004 0.27029 0.0
H355 H 0.00899 0.66993 0.23791 0.0
H356 H 0.012 0.67015 0.30942 0.0
H357 H 0.9217 0.75649 0.38496 0.0
H358 H 0.84873 0.70534 0.33093 0.0
H359 H 0.93871 0.68553 0.21423 0.0
C360 C 0.09733 0.78449 0.34327 0.0
C361 C 0.11054 0.80737 0.39349 0.0
C362 C 0.07652 0.81507 0.42269 0.0
C363 C 0.02949 0.79823 0.40368 0.0
C364 C 0.01709 0.7744 0.35498 0.0
C365 C 0.05021 0.76833 0.32458 0.0
C366 C 0.02678 0.73964 0.27459 0.0
C367 C 0.05044 0.77068 0.22473 0.0
C368 C 0.02883 0.69214 0.27299 0.0
C369 C 0.97517 0.72965 0.28238 0.0
C370 C 0.9703 0.74975 0.32921 0.0
C371 C 0.92521 0.74163 0.34747 0.0
C372 C 0.88401 0.71245 0.31678 0.0
C373 C 0.88848 0.6926 0.26809 0.0
C374 C 0.93466 0.70159 0.25062 0.0
H375 H 0.39946 0.04166 0.75014 0.0
H376 H 0.31586 0.11528 0.73632 0.0
H377 H 0.285 0.07563 0.64899 0.0
H378 H 0.43498 0.04797 0.6142 0.0
H379 H 0.42781 0.98783 0.6138 0.0
H380 H 0.44297 0.02237 0.67455 0.0
H381 H 0.36843 0.95098 0.7201 0.0
H382 H 0.35055 0.91627 0.65933 0.0
H383 H 0.30861 0.92965 0.69345 0.0
H384 H 0.2598 0.02351 0.56556 0.0
H385 H 0.24521 0.9661 0.4913 0.0
H386 H 0.34996 0.93185 0.55794 0.0
C387 C 0.37466 0.04949 0.72874 0.0
C388 C 0.36019 0.08175 0.74955 0.0
C389 C 0.32775 0.09109 0.72052 0.0
C390 C 0.30999 0.06864 0.67111 0.0
C391 C 0.32531 0.03722 0.65146 0.0
C392 C 0.35698 0.02774 0.67944 0.0
C393 C 0.36702 0.99172 0.65051 0.0
C394 C 0.42142 0.01382 0.63747 0.0
C395 C 0.34755 0.9444 0.6828 0.0
C396 C 0.33733 0.9835 0.60094 0.0
C397 C 0.31259 0.00915 0.6027 0.0
C398 C 0.27959 0.00391 0.56338 0.0
C399 C 0.27155 0.97141 0.52148 0.0
C400 C 0.29739 0.9458 0.5187 0.0
C401 C 0.33093 0.95227 0.55858 0.0
H402 H 0.24561 0.48566 0.76751 0.0
H403 H 0.10671 0.35954 0.80771 0.0
H404 H 0.09378 0.33575 0.71316 0.0
H405 H 0.20815 0.51325 0.64323 0.0
H406 H 0.26521 0.53133 0.61006 0.0
H407 H 0.26354 0.53873 0.68093 0.0
H408 H 0.30606 0.48796 0.69509 0.0
H409 H 0.308 0.48053 0.62429 0.0
H410 H 0.27984 0.42782 0.66688 0.0
H411 H 0.09541 0.32607 0.61413 0.0
H412 H 0.11382 0.32862 0.51819 0.0
H413 H 0.25153 0.46101 0.54224 0.0
C414 C 0.21236 0.45319 0.75638 0.0
C415 C 0.17721 0.42439 0.79509 0.0
C416 C 0.13445 0.38182 0.77892 0.0
C417 C 0.12659 0.36821 0.72524 0.0
C418 C 0.16184 0.39749 0.68812 0.0
C419 C 0.204 0.43894 0.70296 0.0
C420 C 0.23652 0.46349 0.65525 0.0
C421 C 0.24376 0.51473 0.64689 0.0
C422 C 0.28549 0.46501 0.66072 0.0
C423 C 0.20616 0.42919 0.61136 0.0
C424 C 0.16303 0.39159 0.6311 0.0
C425 C 0.12903 0.35538 0.59818 0.0
C426 C 0.13966 0.35731 0.5437 0.0
C427 C 0.18406 0.39499 0.52272 0.0
C428 C 0.21746 0.43153 0.55716 0.0
H429 H 0.77502 0.14078 0.06906 0.0
H430 H 0.77509 0.26745 0.13549 0.0
H431 H 0.77484 0.29687 0.04505 0.0
H432 H 0.85365 0.20188 0.95814 0.0
H433 H 0.82178 0.15221 0.91235 0.0
H434 H 0.82093 0.14018 0.98237 0.0
H435 H 0.72685 0.09376 0.98204 0.0
H436 H 0.72745 0.10577 0.91199 0.0
H437 H 0.6952 0.12371 0.9577 0.0
H438 H 0.77536 0.31346 0.94793 0.0
H439 H 0.77906 0.31753 0.85015 0.0
H440 H 0.77848 0.18039 0.84428 0.0
C441 C 0.77455 0.1745 0.06463 0.0
C442 C 0.77536 0.20186 0.10984 0.0
C443 C 0.77532 0.24612 0.10188 0.0
C444 C 0.77477 0.26299 0.05053 0.0
C445 C 0.77415 0.2353 1.00706 0.0
C446 C 0.7741 0.19202 0.01341 0.0
C447 C 0.77446 0.16998 0.95964 0.0
C448 C 0.82045 0.16583 0.95273 0.0
C449 C 0.72823 0.12036 0.95243 0.0
C450 C 0.77502 0.20781 0.92217 0.0
C451 C 0.77462 0.24502 0.95059 0.0
C452 C 0.77579 0.28458 0.9253 0.0
C453 C 0.77813 0.28666 0.86961 0.0
C454 C 0.77948 0.24955 0.83924 0.0
C455 C 0.77718 0.20919 0.86616 0.0
H456 H 0.55237 0.69318 0.40835 0.0
H457 H 0.6122 0.83909 0.47279 0.0
H458 H 0.62227 0.87177 0.38207 0.0
H459 H 0.63329 0.72734 0.29452 0.0
H460 H 0.58759 0.68405 0.25047 0.0
H461 H 0.58393 0.67148 0.32065 0.0
H462 H 0.49713 0.65976 0.32402 0.0
H463 H 0.50051 0.67227 0.25386 0.0
H464 H 0.48713 0.7076 0.30019 0.0
H465 H 0.6266 0.88921 0.28491 0.0
H466 H 0.62504 0.89046 0.18713 0.0
H467 H 0.56377 0.73372 0.18387 0.0
C468 C 0.56794 0.73206 0.40347 0.0
C469 C 0.58112 0.76342 0.44817 0.0
C470 C 0.60085 0.81404 0.43962 0.0
C471 C 0.6071 0.83308 0.38809 0.0
C472 C 0.59372 0.80121 0.34516 0.0
C473 C 0.57463 0.7518 0.35214 0.0
C474 C 0.56344 0.72569 0.29893 0.0
C475 C 0.59388 0.70067 0.29067 0.0
C476 C 0.5088 0.68918 0.29397 0.0
C477 C 0.57925 0.76821 0.26102 0.0
C478 C 0.59651 0.81137 0.2887 0.0
C479 C 0.61299 0.85563 0.2628 0.0
C480 C 0.61165 0.85588 0.20715 0.0
C481 C 0.59388 0.81217 0.17758 0.0
C482 C 0.57779 0.76778 0.20517 0.0
H483 H 0.72358 0.576 0.80354 0.0
H484 H 0.85757 0.71509 0.80486 0.0
H485 H 0.8569 0.71755 0.70702 0.0
H486 H 0.75285 0.52765 0.68989 0.0
H487 H 0.692 0.49707 0.66388 0.0
H488 H 0.70147 0.50702 0.73435 0.0
H489 H 0.65167 0.55158 0.73538 0.0
H490 H 0.64182 0.54153 0.66494 0.0
H491 H 0.66873 0.60238 0.6913 0.0
H492 H 0.84443 0.7032 0.60925 0.0
H493 H 0.81913 0.67441 0.51769 0.0
H494 H 0.69209 0.54547 0.57911 0.0
C495 C 0.75267 0.60703 0.78322 0.0
C496 C 0.79043 0.64554 0.81198 0.0
C497 C 0.82774 0.6856 0.78385 0.0
C498 C 0.8279 0.68718 0.72821 0.0
C499 C 0.79043 0.64851 0.70112 0.0
C500 C 0.75332 0.60931 0.72758 0.0
C501 C 0.71774 0.57227 0.68873 0.0
C502 C 0.71593 0.5231 0.69457 0.0
C503 C 0.66699 0.56663 0.6955 0.0
C504 C 0.74101 0.59659 0.63638 0.0
C505 C 0.78291 0.64051 0.6445 0.0
C506 C 0.81136 0.66913 0.60233 0.0
C507 C 0.79647 0.65256 0.5504 0.0
C508 C 0.75334 0.60783 0.54089 0.0
C509 C 0.72541 0.57962 0.58478 0.0
H510 H 0.25289 0.8525 0.85654 0.0
H511 H 0.13422 0.7053 0.8326 0.0
H512 H 0.13469 0.68836 0.92832 0.0
H513 H 0.31627 0.82293 0.95565 0.0
H514 H 0.33411 0.87766 0.99337 0.0
H515 H 0.32541 0.87729 0.92269 0.0
H516 H 0.2635 0.90697 0.93798 0.0
H517 H 0.27181 0.90718 1.0087 0.0
H518 H 0.21181 0.87265 0.98105 0.0
H519 H 0.14617 0.68867 0.02749 0.0
H520 H 0.16924 0.70566 0.12205 0.0
H521 H 0.28066 0.85245 0.08025 0.0
C522 C 0.22697 0.81671 0.87142 0.0
C523 C 0.19355 0.78019 0.83711 0.0
C524 C 0.16058 0.73363 0.85804 0.0
C525 C 0.16038 0.72376 0.91238 0.0
C526 C 0.19349 0.76077 0.94517 0.0
C527 C 0.22634 0.80622 0.92542 0.0
C528 C 0.25785 0.83982 0.96907 0.0
C529 C 0.31159 0.85532 0.95962 0.0
C530 C 0.25079 0.88427 0.97451 0.0
C531 C 0.23716 0.80636 0.0166 0.0
C532 C 0.20016 0.76089 1.00205 0.0
C533 C 0.17531 0.72406 0.03931 0.0
C534 C 0.18878 0.73398 0.09286 0.0
C535 C 0.22671 0.78037 0.10859 0.0
C536 C 0.25108 0.81684 0.06969 0.0
H537 H 0.45457 0.2408 0.43673 0.0
H538 H 0.3506 0.09358 0.48614 0.0
H539 H 0.34279 0.06612 0.39298 0.0
H540 H 0.39727 0.23912 0.3142 0.0
H541 H 0.45336 0.27399 0.27783 0.0
H542 H 0.4515 0.28229 0.34851 0.0
H543 H 0.52118 0.2632 0.36163 0.0
H544 H 0.52354 0.25525 0.29095 0.0
H545 H 0.51485 0.20725 0.33572 0.0
H546 H 0.34535 0.05475 0.29455 0.0
H547 H 0.35989 0.05941 0.19779 0.0
H548 H 0.46334 0.21376 0.21156 0.0
C549 C 0.43058 0.20268 0.42805 0.0
C550 C 0.40303 0.16939 0.46885 0.0
C551 C 0.37156 0.11991 0.45558 0.0
C552 C 0.36702 0.10392 0.40277 0.0
C553 C 0.39419 0.13779 0.36352 0.0
C554 C 0.42553 0.18609 0.37546 0.0
C555 C 0.45044 0.21499 0.32565 0.0
C556 C 0.43734 0.25496 0.316 0.0
C557 C 0.50578 0.23642 0.32868 0.0
C558 C 0.42817 0.17539 0.28383 0.0
C559 C 0.39582 0.13118 0.30663 0.0
C560 C 0.37079 0.08912 0.27631 0.0
C561 C 0.37947 0.09213 0.22135 0.0
C562 C 0.413 0.13687 0.19696 0.0
C563 C 0.43722 0.17911 0.22882 0.0
H564 H 0.2491 0.55387 0.3062 0.0
H565 H 0.13345 0.52851 0.19776 0.0
H566 H 0.11354 0.58146 0.25249 0.0
H567 H 0.19206 0.55943 0.42753 0.0
H568 H 0.24671 0.60871 0.45529 0.0
H569 H 0.25053 0.56733 0.40886 0.0
H570 H 0.30795 0.63981 0.34834 0.0
H571 H 0.30456 0.68139 0.39481 0.0
H572 H 0.28888 0.68169 0.32618 0.0
H573 H 0.10406 0.63451 0.32204 0.0
H574 H 0.11293 0.69202 0.39413 0.0
H575 H 0.23996 0.68924 0.45119 0.0
C576 C 0.21964 0.5596 0.29415 0.0
C577 C 0.19261 0.5372 0.24806 0.0
C578 C 0.15466 0.54574 0.23291 0.0
C579 C 0.14295 0.57545 0.26388 0.0
C580 C 0.17023 0.5971 0.30926 0.0
C581 C 0.20843 0.59034 0.32374 0.0
C582 C 0.23384 0.62 0.37252 0.0
C583 C 0.23057 0.58688 0.41878 0.0
C584 C 0.28695 0.65797 0.35967 0.0
C585 C 0.20365 0.644 0.38359 0.0
C586 C 0.16661 0.62976 0.34722 0.0
C587 C 0.13312 0.64611 0.35054 0.0
C588 C 0.13814 0.67839 0.39169 0.0
C589 C 0.17694 0.69461 0.42796 0.0
C590 C 0.20997 0.67719 0.42379 0.0
H591 H 0.66532 0.21384 0.52226 0.0
H592 H 0.66123 0.07834 0.55863 0.0
H593 H 0.61293 0.06958 0.64016 0.0
H594 H 0.67623 0.25706 0.65639 0.0
H595 H 0.63769 0.28303 0.64609 0.0
H596 H 0.67244 0.27875 0.59148 0.0
H597 H 0.59369 0.2303 0.53639 0.0
H598 H 0.55891 0.23519 0.59047 0.0
H599 H 0.54334 0.17621 0.56439 0.0
H600 H 0.56635 0.07773 0.71989 0.0
H601 H 0.51816 0.09717 0.78372 0.0
H602 H 0.55083 0.22503 0.69119 0.0
C603 C 0.65417 0.18231 0.54743 0.0
C604 C 0.66687 0.1468 0.53445 0.0
C605 C 0.65149 0.10581 0.56792 0.0
C606 C 0.62451 0.1008 0.61448 0.0
C607 C 0.61303 0.13693 0.6266 0.0
C608 C 0.62689 0.17654 0.59351 0.0
C609 C 0.60864 0.20947 0.61399 0.0
C610 C 0.65129 0.26006 0.62781 0.0
C611 C 0.5741 0.21296 0.57393 0.0
C612 C 0.5818 0.18205 0.66348 0.0
C613 C 0.58531 0.14072 0.67084 0.0
C614 C 0.56341 0.11 0.71442 0.0
C615 C 0.53646 0.12142 0.75064 0.0
C616 C 0.53114 0.16261 0.74228 0.0
C617 C 0.55448 0.19333 0.69845 0.0
H618 H 0.32359 0.55893 0.09753 0.0
H619 H 0.34158 0.43254 0.08214 0.0
H620 H 0.39475 0.4695 1.00359 0.0
H621 H 0.32463 0.58394 0.95592 0.0
H622 H 0.35894 0.64898 0.96471 0.0
H623 H 0.31923 0.6108 0.01699 0.0
H624 H 0.39111 0.64746 0.08312 0.0
H625 H 0.43096 0.68591 0.03126 0.0
H626 H 0.44576 0.64587 0.06696 0.0
H627 H 0.4473 0.52137 0.92727 0.0
H628 H 0.50081 0.58729 0.86475 0.0
H629 H 0.45218 0.68109 0.93431 0.0
C630 C 0.33843 0.53899 0.07718 0.0
C631 C 0.32849 0.49297 0.09538 0.0
C632 C 0.34899 0.46801 0.0686 0.0
C633 C 0.37891 0.48853 0.02382 0.0
C634 C 0.38825 0.53419 1.0068 0.0
C635 C 0.36898 0.5593 0.03299 0.0
C636 C 0.38718 0.60911 1.00897 0.0
C637 C 0.34499 0.61345 0.98523 0.0
C638 C 0.41544 0.64945 0.05002 0.0
C639 C 0.42042 0.60851 0.96589 0.0
C640 C 0.41982 0.56463 0.96443 0.0
C641 C 0.44792 0.55581 0.92791 0.0
C642 C 0.47794 0.59318 0.89249 0.0
C643 C 0.48018 0.63878 0.89497 0.0
C644 C 0.45087 0.64632 0.9318 0.0
H645 H 0.79778 0.37287 0.42396 0.0
H646 H 0.76511 0.26453 0.30074 0.0
H647 H 0.77278 0.32291 0.23291 0.0
H648 H 0.73056 0.42606 0.36286 0.0
H649 H 0.7741 0.48735 0.38206 0.0
H650 H 0.76604 0.43686 0.42216 0.0
H651 H 0.85826 0.46718 0.41352 0.0
H652 H 0.86623 0.51724 0.37265 0.0
H653 H 0.88546 0.47587 0.34837 0.0
H654 H 0.78504 0.39158 0.17734 0.0
H655 H 0.79468 0.46717 0.1375 0.0
H656 H 0.8172 0.53216 0.29399 0.0
C657 C 0.79177 0.36142 0.3828 0.0
C658 C 0.78153 0.31417 0.36789 0.0
C659 C 0.77391 0.30065 0.31344 0.0
C660 C 0.77806 0.33355 0.27433 0.0
C661 C 0.78933 0.37998 0.28999 0.0
C662 C 0.79542 0.39399 0.34279 0.0
C663 C 0.80657 0.44631 0.34803 0.0
C664 C 0.76694 0.44929 0.38071 0.0
C665 C 0.85714 0.47855 0.37207 0.0
C666 C 0.80551 0.45897 0.29006 0.0
C667 C 0.79593 0.42014 0.25739 0.0
C668 C 0.79272 0.42241 0.20236 0.0
C669 C 0.79854 0.46536 0.18006 0.0
C670 C 0.80735 0.50509 0.21282 0.0
C671 C 0.81118 0.50215 0.26836 0.0
H672 H 0.38393 0.87975 0.59368 0.0
H673 H 0.31332 0.73456 0.52663 0.0
H674 H 0.36366 0.71327 0.58266 0.0
H675 H 0.50601 0.89062 0.60017 0.0
H676 H 0.52156 0.92527 0.66095 0.0
H677 H 0.48117 0.92973 0.61428 0.0
H678 H 0.41796 0.90712 0.68888 0.0
H679 H 0.45598 0.89984 0.7361 0.0
H680 H 0.39542 0.85031 0.72401 0.0
H681 H 0.41304 0.70465 0.65308 0.0
H682 H 0.46764 0.71212 0.72599 0.0
H683 H 0.51494 0.86566 0.74045 0.0
C684 C 0.37967 0.84377 0.59066 0.0
C685 C 0.34495 0.80852 0.55635 0.0
C686 C 0.3401 0.76184 0.55273 0.0
C687 C 0.36835 0.74947 0.58439 0.0
C688 C 0.40199 0.7847 0.6184 0.0
C689 C 0.4087 0.83125 0.62096 0.0
C690 C 0.44803 0.86217 0.6605 0.0
C691 C 0.49179 0.90444 0.63228 0.0
C692 C 0.42808 0.88089 0.70503 0.0
C693 C 0.46073 0.82506 0.68126 0.0
C694 C 0.43354 0.78063 0.65645 0.0
C695 C 0.43578 0.73962 0.67158 0.0
C696 C 0.4672 0.74428 0.71269 0.0
C697 C 0.4969 0.78978 0.7372 0.0
C698 C 0.49342 0.83065 0.72145 0.0
H699 H 0.61479 0.50375 0.0531 0.0
H700 H 0.68675 0.43185 0.12306 0.0
H701 H 0.64152 0.36145 0.06352 0.0
H702 H 0.49531 0.38901 0.03816 0.0
H703 H 0.48161 0.40897 0.97703 0.0
H704 H 0.51789 0.45289 0.02684 0.0
H705 H 0.5841 0.49831 0.9567 0.0
H706 H 0.55081 0.45404 0.90632 0.0
H707 H 0.61166 0.46791 0.92244 0.0
H708 H 0.59735 0.30458 0.98985 0.0
H709 H 0.54729 0.25798 0.91365 0.0
H710 H 0.49566 0.36069 0.89688 0.0
C711 C 0.62028 0.47276 0.05613 0.0
C712 C 0.65401 0.47275 0.09237 0.0
C713 C 0.66058 0.43193 0.09572 0.0
C714 C 0.63527 0.39201 0.062 0.0
C715 C 0.6027 0.39313 0.02609 0.0
C716 C 0.59406 0.43177 0.02373 0.0
C717 C 0.5564 0.42298 0.98178 0.0
C718 C 0.51006 0.41817 1.0075 0.0
C719 C 0.57706 0.46319 0.93927 0.0
C720 C 0.54727 0.37467 0.9593 0.0
C721 C 0.5744 0.35823 0.98558 0.0
C722 C 0.57474 0.31621 0.97 0.0
C723 C 0.54593 0.28976 0.92694 0.0
C724 C 0.51637 0.30475 0.90069 0.0
C725 C 0.5173 0.34795 0.91692 0.0
loop_
_geom_bond_atom_site_label_1
_geom_bond_atom_site_label_2
_geom_bond_distance
_geom_bond_site_symmetry_2
_ccdc_geom_bond_type
Ho0 C3 2.811 . S
Ho0 O20 2.322 . S
Ho0 O22 2.378 . S
Ho0 O23 2.524 . S
Ho0 O24 2.381 . S
Ho0 O25 2.669 . S
Ho0 O27 2.346 . S
Ho0 O31 2.305 . S
Ho1 C12 2.811 . S
Ho1 O21 2.346 . S
Ho1 O25 2.305 . S
Ho1 O26 2.322 . S
Ho1 O28 2.378 . S
Ho1 O29 2.524 . S
Ho1 O30 2.381 . S
Ho1 O31 2.669 . S
C2 O20 1.259 . S
C2 O21 1.268 . S
C3 Ho0 2.811 . S
C3 C4 1.488 . S
C3 O22 1.215 . S
C3 O23 1.289 . S
C4 C3 1.488 . S
C4 C5 1.348 1_554 S
C4 C9 1.413 1_554 S
C5 C4 1.348 1_556 S
C5 C6 1.442 . S
C5 H32 0.930 . S
C6 C5 1.442 . S
C6 C7 1.381 . S
C6 H33 0.931 . S
C7 C6 1.381 . S
C7 C8 1.321 . S
C8 C7 1.321 . S
C8 C9 1.403 . S
C8 H34 0.934 . S
C9 C4 1.413 1_556 S
C9 C8 1.403 . S
C9 H35 0.919 1_556 S
C10 O24 1.275 . S
C10 O25 1.256 . S
C11 O26 1.259 . S
C11 O27 1.268 . S
C12 Ho1 2.811 . S
C12 C13 1.488 . S
C12 O28 1.215 . S
C12 O29 1.289 . S
C13 C12 1.488 . S
C13 C14 1.348 . S
C13 C18 1.413 . S
C14 C13 1.348 . S
C14 C15 1.442 . S
C14 H36 0.930 . S
C15 C14 1.442 . S
C15 C16 1.381 . S
C15 H37 0.931 . S
C16 C15 1.381 . S
C16 C17 1.321 . S
C17 C16 1.321 . S
C17 C18 1.403 . S
C17 H38 0.934 . S
C18 C13 1.413 . S
C18 C17 1.403 . S
C18 H39 0.930 . S
C19 O30 1.275 . S
C19 O31 1.256 . S
O20 Ho0 2.322 . S
O20 C2 1.259 . S
O21 Ho1 2.346 . S
O21 C2 1.268 . S
O22 Ho0 2.378 . S
O22 C3 1.215 . S
O23 Ho0 2.524 . S
O23 C3 1.289 . S
O24 Ho0 2.381 . S
O24 C10 1.275 . S
O25 Ho0 2.669 . S
O25 Ho1 2.305 . S
O25 C10 1.256 . S
O26 Ho1 2.322 . S
O26 C11 1.259 . S
O27 Ho0 2.346 . S
O27 C11 1.268 . S
O28 Ho1 2.378 . S
O28 C12 1.215 . S
O29 Ho1 2.524 . S
O29 C12 1.289 . S
O30 Ho1 2.381 . S
O30 C19 1.275 . S
O31 Ho0 2.305 . S
O31 Ho1 2.669 . S
O31 C19 1.256 . S
H32 C5 0.930 . S
H33 C6 0.931 . S
H34 C8 0.934 . S
H35 C9 0.919 1_554 S
H36 C14 0.930 . S
H37 C15 0.931 . S
H38 C17 0.934 . S
H39 C18 0.930 . S
Ho40 C43 2.811 . S
Ho40 O60 2.322 . S
Ho40 O62 2.378 . S
Ho40 O63 2.524 . S
Ho40 O64 2.381 . S
Ho40 O65 2.669 . S
Ho40 O67 2.346 . S
Ho40 O71 2.305 . S
Ho41 C52 2.811 . S
Ho41 O61 2.346 . S
Ho41 O65 2.305 . S
Ho41 O66 2.322 . S
Ho41 O68 2.378 . S
Ho41 O69 2.524 . S
Ho41 O70 2.381 . S
Ho41 O71 2.669 . S
C42 O60 1.259 . S
C42 O61 1.268 . S
C43 Ho40 2.811 . S
C43 C44 1.488 . S
C43 O62 1.215 . S
C43 O63 1.289 . S
C44 C43 1.488 . S
C44 C45 1.348 . S
C44 C49 1.413 . S
C45 C44 1.348 . S
C45 C46 1.442 . S
C45 H72 0.930 . S
C46 C45 1.442 . S
C46 C47 1.381 . S
C46 H73 0.931 . S
C47 C46 1.381 . S
C47 C48 1.321 . S
C48 C47 1.321 . S
C48 C49 1.403 . S
C48 H74 0.934 . S
C49 C44 1.413 . S
C49 C48 1.403 . S
C49 H75 0.930 . S
C50 O64 1.275 . S
C50 O65 1.256 . S
C51 O66 1.259 . S
C51 O67 1.268 . S
C52 Ho41 2.811 . S
C52 C53 1.488 . S
C52 O68 1.215 . S
C52 O69 1.289 . S
C53 C52 1.488 . S
C53 C54 1.348 . S
C53 C58 1.413 . S
C54 C53 1.348 . S
C54 C55 1.442 . S
C54 H76 0.930 . S
C55 C54 1.442 . S
C55 C56 1.381 . S
C55 H77 0.931 . S
C56 C55 1.381 . S
C56 C57 1.321 . S
C57 C56 1.321 . S
C57 C58 1.403 . S
C57 H78 0.934 . S
C58 C53 1.413 . S
C58 C57 1.403 . S
C58 H79 0.930 . S
C59 O70 1.275 . S
C59 O71 1.256 . S
O60 Ho40 2.322 . S
O60 C42 1.259 . S
O61 Ho41 2.346 . S
O61 C42 1.268 . S
O62 Ho40 2.378 . S
O62 C43 1.215 . S
O63 Ho40 2.524 . S
O63 C43 1.289 . S
O64 Ho40 2.381 . S
O64 C50 1.275 . S
O65 Ho40 2.669 . S
O65 Ho41 2.305 . S
O65 C50 1.256 . S
O66 Ho41 2.322 . S
O66 C51 1.259 . S
O67 Ho40 2.346 . S
O67 C51 1.268 . S
O68 Ho41 2.378 . S
O68 C52 1.215 . S
O69 Ho41 2.524 . S
O69 C52 1.289 . S
O70 Ho41 2.381 . S
O70 C59 1.275 . S
O71 Ho40 2.305 . S
O71 Ho41 2.669 . S
O71 C59 1.256 . S
H72 C45 0.930 . S
H73 C46 0.931 . S
H74 C48 0.934 . S
H75 C49 0.930 . S
H76 C54 0.930 . S
H77 C55 0.931 . S
H78 C57 0.934 . S
H79 C58 0.930 . S
Ho80 C83 2.811 . S
Ho80 O100 2.322 . S
Ho80 O102 2.378 . S
Ho80 O103 2.524 . S
Ho80 O104 2.381 . S
Ho80 O105 2.669 . S
Ho80 O107 2.346 . S
Ho80 O111 2.305 . S
Ho81 C92 2.811 1_556 S
Ho81 O101 2.346 . S
Ho81 O105 2.305 . S
Ho81 O106 2.322 . S
Ho81 O108 2.378 1_556 S
Ho81 O109 2.524 1_556 S
Ho81 O110 2.381 . S
Ho81 O111 2.669 . S
C82 O100 1.259 . S
C82 O101 1.268 . S
C83 Ho80 2.811 . S
C83 C84 1.488 . S
C83 O102 1.215 . S
C83 O103 1.289 . S
C84 C83 1.488 . S
C84 C85 1.348 . S
C84 C89 1.413 . S
C85 C84 1.348 . S
C85 C86 1.442 . S
C85 H112 0.930 . S
C86 C85 1.442 . S
C86 C87 1.381 . S
C86 H113 0.931 . S
C87 C86 1.381 . S
C87 C88 1.321 . S
C88 C87 1.321 . S
C88 C89 1.403 . S
C88 H114 0.934 . S
C89 C84 1.413 . S
C89 C88 1.403 . S
C89 H115 0.930 . S
C90 O104 1.275 . S
C90 O105 1.256 . S
C91 O106 1.259 . S
C91 O107 1.268 . S
C92 Ho81 2.811 1_554 S
C92 C93 1.488 . S
C92 O108 1.215 . S
C92 O109 1.289 . S
C93 C92 1.488 . S
C93 C94 1.348 . S
C93 C98 1.413 . S
C94 C93 1.348 . S
C94 C95 1.442 . S
C94 H116 0.930 . S
C95 C94 1.442 . S
C95 C96 1.381 . S
C95 H117 0.931 . S
C96 C95 1.381 . S
C96 C97 1.321 . S
C97 C96 1.321 . S
C97 C98 1.403 . S
C97 H118 0.934 . S
C98 C93 1.413 . S
C98 C97 1.403 . S
C98 H119 0.930 . S
C99 O110 1.275 . S
C99 O111 1.256 . S
O100 Ho80 2.322 . S
O100 C82 1.259 . S
O101 Ho81 2.346 . S
O101 C82 1.268 . S
O102 Ho80 2.378 . S
O102 C83 1.215 . S
O103 Ho80 2.524 . S
O103 C83 1.289 . S
O104 Ho80 2.381 . S
O104 C90 1.275 . S
O105 Ho80 2.669 . S
O105 Ho81 2.305 . S
O105 C90 1.256 . S
O106 Ho81 2.322 . S
O106 C91 1.259 . S
O107 Ho80 2.346 . S
O107 C91 1.268 . S
O108 Ho81 2.378 1_554 S
O108 C92 1.215 . S
O109 Ho81 2.524 1_554 S
O109 C92 1.289 . S
O110 Ho81 2.381 . S
O110 C99 1.275 . S
O111 Ho80 2.305 . S
O111 Ho81 2.669 . S
O111 C99 1.256 . S
H112 C85 0.930 . S
H113 C86 0.931 . S
H114 C88 0.934 . S
H115 C89 0.930 . S
H116 C94 0.930 . S
H117 C95 0.931 . S
H118 C97 0.934 . S
H119 C98 0.930 . S
Ho120 C123 2.811 . S
Ho120 O140 2.322 . S
Ho120 O142 2.378 . S
Ho120 O143 2.524 . S
Ho120 O144 2.381 . S
Ho120 O145 2.669 . S
Ho120 O147 2.346 . S
Ho120 O151 2.305 . S
Ho121 C132 2.811 1_554 S
Ho121 O141 2.346 . S
Ho121 O145 2.305 . S
Ho121 O146 2.322 1_554 S
Ho121 O148 2.378 1_554 S
Ho121 O149 2.524 1_554 S
Ho121 O150 2.381 . S
Ho121 O151 2.669 . S
C122 O140 1.259 . S
C122 O141 1.268 . S
C123 Ho120 2.811 . S
C123 C124 1.488 . S
C123 O142 1.215 . S
C123 O143 1.289 . S
C124 C123 1.488 . S
C124 C125 1.348 . S
C124 C129 1.413 . S
C125 C124 1.348 . S
C125 C126 1.442 . S
C125 H152 0.930 . S
C126 C125 1.442 . S
C126 C127 1.381 . S
C126 H153 0.931 . S
C127 C126 1.381 . S
C127 C128 1.321 . S
C128 C127 1.321 . S
C128 C129 1.403 . S
C128 H154 0.934 . S
C129 C124 1.413 . S
C129 C128 1.403 . S
C129 H155 0.930 . S
C130 O144 1.275 . S
C130 O145 1.256 . S
C131 O146 1.259 1_554 S
C131 O147 1.268 . S
C132 Ho121 2.811 1_556 S
C132 C133 1.488 . S
C132 O148 1.215 . S
C132 O149 1.289 . S
C133 C132 1.488 . S
C133 C134 1.348 . S
C133 C138 1.413 . S
C134 C133 1.348 . S
C134 C135 1.442 . S
C134 H156 0.930 . S
C135 C134 1.442 . S
C135 C136 1.381 . S
C135 H157 0.931 . S
C136 C135 1.381 . S
C136 C137 1.321 . S
C137 C136 1.321 . S
C137 C138 1.403 . S
C137 H158 0.934 . S
C138 C133 1.413 . S
C138 C137 1.403 . S
C138 H159 0.930 . S
C139 O150 1.275 . S
C139 O151 1.256 . S
O140 Ho120 2.322 . S
O140 C122 1.259 . S
O141 Ho121 2.346 . S
O141 C122 1.268 . S
O142 Ho120 2.378 . S
O142 C123 1.215 . S
O143 Ho120 2.524 . S
O143 C123 1.289 . S
O144 Ho120 2.381 . S
O144 C130 1.275 . S
O145 Ho120 2.669 . S
O145 Ho121 2.305 . S
O145 C130 1.256 . S
O146 Ho121 2.322 1_556 S
O146 C131 1.259 1_556 S
O147 Ho120 2.346 . S
O147 C131 1.268 . S
O148 Ho121 2.378 1_556 S
O148 C132 1.215 . S
O149 Ho121 2.524 1_556 S
O149 C132 1.289 . S
O150 Ho121 2.381 . S
O150 C139 1.275 . S
O151 Ho120 2.305 . S
O151 Ho121 2.669 . S
O151 C139 1.256 . S
H152 C125 0.930 . S
H153 C126 0.931 . S
H154 C128 0.934 . S
H155 C129 0.930 . S
H156 C134 0.930 . S
H157 C135 0.931 . S
H158 C137 0.934 . S
H159 C138 0.930 . S
Ho160 C163 2.811 . S
Ho160 O180 2.322 . S
Ho160 O182 2.378 . S
Ho160 O183 2.524 . S
Ho160 O184 2.381 . S
Ho160 O185 2.669 . S
Ho160 O187 2.346 . S
Ho160 O191 2.305 . S
Ho161 C172 2.811 . S
Ho161 O181 2.346 . S
Ho161 O185 2.305 . S
Ho161 O186 2.322 . S
Ho161 O188 2.378 . S
Ho161 O189 2.524 . S
Ho161 O190 2.381 . S
Ho161 O191 2.669 . S
C162 O180 1.259 . S
C162 O181 1.268 . S
C163 Ho160 2.811 . S
C163 C164 1.488 . S
C163 O182 1.215 . S
C163 O183 1.289 . S
C164 C163 1.488 . S
C164 C165 1.348 . S
C164 C169 1.413 . S
C165 C164 1.348 . S
C165 C166 1.442 . S
C165 H192 0.930 . S
C166 C165 1.442 . S
C166 C167 1.381 . S
C166 H193 0.931 . S
C167 C166 1.381 . S
C167 C168 1.321 . S
C168 C167 1.321 . S
C168 C169 1.403 . S
C168 H194 0.934 . S
C169 C164 1.413 . S
C169 C168 1.403 . S
C169 H195 0.930 . S
C170 O184 1.275 . S
C170 O185 1.256 . S
C171 O186 1.259 . S
C171 O187 1.268 . S
C172 Ho161 2.811 . S
C172 C173 1.488 . S
C172 O188 1.215 . S
C172 O189 1.289 . S
C173 C172 1.488 . S
C173 C174 1.348 . S
C173 C178 1.413 . S
C174 C173 1.348 . S
C174 C175 1.442 . S
C174 H196 0.930 . S
C175 C174 1.442 . S
C175 C176 1.381 . S
C175 H197 0.931 . S
C176 C175 1.381 . S
C176 C177 1.321 . S
C177 C176 1.321 . S
C177 C178 1.403 . S
C177 H198 0.934 . S
C178 C173 1.413 . S
C178 C177 1.403 . S
C178 H199 0.930 . S
C179 O190 1.275 . S
C179 O191 1.256 . S
O180 Ho160 2.322 . S
O180 C162 1.259 . S
O181 Ho161 2.346 . S
O181 C162 1.268 . S
O182 Ho160 2.378 . S
O182 C163 1.215 . S
O183 Ho160 2.524 . S
O183 C163 1.289 . S
O184 Ho160 2.381 . S
O184 C170 1.275 . S
O185 Ho160 2.669 . S
O185 Ho161 2.305 . S
O185 C170 1.256 . S
O186 Ho161 2.322 . S
O186 C171 1.259 . S
O187 Ho160 2.346 . S
O187 C171 1.268 . S
O188 Ho161 2.378 . S
O188 C172 1.215 . S
O189 Ho161 2.524 . S
O189 C172 1.289 . S
O190 Ho161 2.381 . S
O190 C179 1.275 . S
O191 Ho160 2.305 . S
O191 Ho161 2.669 . S
O191 C179 1.256 . S
H192 C165 0.930 . S
H193 C166 0.931 . S
H194 C168 0.934 . S
H195 C169 0.930 . S
H196 C174 0.930 . S
H197 C175 0.931 . S
H198 C177 0.934 . S
H199 C178 0.930 . S
Ho200 C203 2.811 . S
Ho200 O220 2.322 . S
Ho200 O222 2.378 . S
Ho200 O223 2.524 . S
Ho200 O224 2.381 . S
Ho200 O225 2.669 . S
Ho200 O227 2.346 . S
Ho200 O231 2.305 . S
Ho201 C212 2.811 . S
Ho201 O221 2.346 . S
Ho201 O225 2.305 . S
Ho201 O226 2.322 . S
Ho201 O228 2.378 . S
Ho201 O229 2.524 . S
Ho201 O230 2.381 . S
Ho201 O231 2.669 . S
C202 O220 1.259 . S
C202 O221 1.268 . S
C203 Ho200 2.811 . S
C203 C204 1.488 . S
C203 O222 1.215 . S
C203 O223 1.289 . S
C204 C203 1.488 . S
C204 C205 1.348 . S
C204 C209 1.413 . S
C205 C204 1.348 . S
C205 C206 1.442 1_556 S
C205 H232 0.930 . S
C206 C205 1.442 1_554 S
C206 C207 1.381 . S
C206 H233 0.931 . S
C207 C206 1.381 . S
C207 C208 1.321 . S
C208 C207 1.321 . S
C208 C209 1.403 1_554 S
C208 H234 0.934 . S
C209 C204 1.413 . S
C209 C208 1.403 1_556 S
C209 H235 0.930 . S
C210 O224 1.275 . S
C210 O225 1.256 . S
C211 O226 1.259 . S
C211 O227 1.268 . S
C212 Ho201 2.811 . S
C212 C213 1.488 . S
C212 O228 1.215 . S
C212 O229 1.289 . S
C213 C212 1.488 . S
C213 C214 1.348 . S
C213 C218 1.413 . S
C214 C213 1.348 . S
C214 C215 1.442 . S
C214 H236 0.930 . S
C215 C214 1.442 . S
C215 C216 1.381 . S
C215 H237 0.931 . S
C216 C215 1.381 . S
C216 C217 1.321 . S
C217 C216 1.321 . S
C217 C218 1.403 . S
C217 H238 0.934 . S
C218 C213 1.413 . S
C218 C217 1.403 . S
C218 H239 0.930 . S
C219 O230 1.275 . S
C219 O231 1.256 . S
O220 Ho200 2.322 . S
O220 C202 1.259 . S
O221 Ho201 2.346 . S
O221 C202 1.268 . S
O222 Ho200 2.378 . S
O222 C203 1.215 . S
O223 Ho200 2.524 . S
O223 C203 1.289 . S
O224 Ho200 2.381 . S
O224 C210 1.275 . S
O225 Ho200 2.669 . S
O225 Ho201 2.305 . S
O225 C210 1.256 . S
O226 Ho201 2.322 . S
O226 C211 1.259 . S
O227 Ho200 2.346 . S
O227 C211 1.268 . S
O228 Ho201 2.378 . S
O228 C212 1.215 . S
O229 Ho201 2.524 . S
O229 C212 1.289 . S
O230 Ho201 2.381 . S
O230 C219 1.275 . S
O231 Ho200 2.305 . S
O231 Ho201 2.669 . S
O231 C219 1.256 . S
H232 C205 0.930 . S
H233 C206 0.931 . S
H234 C208 0.934 . S
H235 C209 0.930 . S
H236 C214 0.930 . S
H237 C215 0.931 . S
H238 C217 0.934 . S
H239 C218 0.930 . S
H240 C252 0.930 . S
H241 C254 0.930 . S
H242 C255 0.930 . S
H243 C259 0.959 . S
H244 C259 0.959 1_554 S
H245 C259 0.961 . S
H246 C260 0.960 1_556 S
H247 C260 0.961 . S
H248 C260 0.959 . S
H249 C263 0.929 . S
H250 C264 0.931 . S
H251 C266 0.930 . S
C252 H240 0.930 . S
C252 C253 1.399 . S
C252 C257 1.399 . S
C253 C252 1.399 . S
C253 C254 1.376 . S
C254 H241 0.930 . S
C254 C253 1.376 . S
C254 C255 1.388 . S
C255 H242 0.930 . S
C255 C254 1.388 . S
C255 C256 1.390 . S
C256 C255 1.390 . S
C256 C257 1.394 . S
C256 C262 1.465 1_556 S
C257 C252 1.399 . S
C257 C256 1.394 . S
C257 C258 1.516 . S
C258 C257 1.516 . S
C258 C259 1.502 . S
C258 C260 1.561 1_556 S
C258 C261 1.526 1_556 S
C259 H243 0.959 . S
C259 H244 0.959 1_556 S
C259 H245 0.961 . S
C259 C258 1.502 . S
C260 H246 0.960 1_554 S
C260 H247 0.961 . S
C260 H248 0.959 . S
C260 C258 1.561 1_554 S
C261 C258 1.526 1_554 S
C261 C262 1.396 . S
C261 C266 1.390 . S
C262 C256 1.465 1_554 S
C262 C261 1.396 . S
C262 C263 1.399 . S
C263 H249 0.929 . S
C263 C262 1.399 . S
C263 C264 1.385 . S
C264 H250 0.931 . S
C264 C263 1.385 . S
C264 C265 1.389 . S
C265 C264 1.389 . S
C265 C266 1.387 . S
C266 H251 0.930 . S
C266 C261 1.390 . S
C266 C265 1.387 . S
H267 C279 0.930 . S
H268 C281 0.930 . S
H269 C282 0.930 . S
H270 C286 0.959 . S
H271 C286 0.959 . S
H272 C286 0.961 . S
H273 C287 0.960 . S
H274 C287 0.961 1_655 S
H275 C287 0.969 . S
H276 C290 0.929 . S
H277 C291 0.931 . S
H278 C293 0.930 . S
C279 H267 0.930 . S
C279 C280 1.399 . S
C279 C284 1.399 . S
C280 C279 1.399 . S
C280 C281 1.376 . S
C281 H268 0.930 . S
C281 C280 1.376 . S
C281 C282 1.388 . S
C282 H269 0.930 . S
C282 C281 1.388 . S
C282 C283 1.390 . S
C283 C282 1.390 . S
C283 C284 1.394 . S
C283 C289 1.465 1_455 S
C284 C279 1.399 . S
C284 C283 1.394 . S
C284 C285 1.516 . S
C285 C284 1.516 . S
C285 C286 1.502 . S
C285 C287 1.561 . S
C285 C288 1.526 1_455 S
C286 H270 0.959 . S
C286 H271 0.959 . S
C286 H272 0.961 . S
C286 C285 1.502 . S
C287 H273 0.960 . S
C287 H274 0.961 1_455 S
C287 H275 0.969 . S
C287 C285 1.561 . S
C288 C285 1.526 1_655 S
C288 C289 1.396 . S
C288 C293 1.390 . S
C289 C283 1.465 1_655 S
C289 C288 1.396 . S
C289 C290 1.399 . S
C290 H276 0.929 . S
C290 C289 1.399 . S
C290 C291 1.385 . S
C291 H277 0.931 . S
C291 C290 1.385 . S
C291 C292 1.389 . S
C292 C291 1.389 . S
C292 C293 1.387 . S
C293 H278 0.930 . S
C293 C288 1.390 . S
C293 C292 1.387 . S
H294 C306 0.930 . S
H295 C308 0.930 . S
H296 C309 0.930 . S
H297 C313 0.959 . S
H298 C313 0.959 . S
H299 C313 0.961 . S
H300 C314 0.960 . S
H301 C314 0.961 . S
H302 C314 0.959 . S
H303 C317 0.929 . S
H304 C318 0.931 . S
H305 C320 0.930 . S
C306 H294 0.930 . S
C306 C307 1.399 . S
C306 C311 1.399 . S
C307 C306 1.399 . S
C307 C308 1.376 . S
C308 H295 0.930 . S
C308 C307 1.376 . S
C308 C309 1.388 . S
C309 H296 0.930 . S
C309 C308 1.388 . S
C309 C310 1.390 . S
C310 C309 1.390 . S
C310 C311 1.394 . S
C310 C316 1.465 1_545 S
C311 C306 1.399 . S
C311 C310 1.394 . S
C311 C312 1.516 . S
C312 C311 1.516 . S
C312 C313 1.502 1_545 S
C312 C314 1.561 . S
C312 C315 1.526 1_545 S
C313 H297 0.959 . S
C313 H298 0.959 . S
C313 H299 0.961 . S
C313 C312 1.502 1_565 S
C314 H300 0.960 . S
C314 H301 0.961 . S
C314 H302 0.959 . S
C314 C312 1.561 . S
C315 C312 1.526 1_565 S
C315 C316 1.396 . S
C315 C320 1.390 . S
C316 C310 1.465 1_565 S
C316 C315 1.396 . S
C316 C317 1.399 . S
C317 H303 0.929 . S
C317 C316 1.399 . S
C317 C318 1.385 . S
C318 H304 0.931 . S
C318 C317 1.385 . S
C318 C319 1.389 . S
C319 C318 1.389 . S
C319 C320 1.387 . S
C320 H305 0.930 . S
C320 C315 1.390 . S
C320 C319 1.387 . S
H321 C333 0.930 . S
H322 C335 0.930 1_554 S
H323 C336 0.930 . S
H324 C340 0.959 . S
H325 C340 0.959 . S
H326 C340 0.961 . S
H327 C341 0.960 . S
H328 C341 0.961 . S
H329 C341 0.959 . S
H330 C344 0.929 . S
H331 C345 0.931 . S
H332 C347 0.930 . S
C333 H321 0.930 . S
C333 C334 1.399 . S
C333 C338 1.399 . S
C334 C333 1.399 . S
C334 C335 1.376 . S
C335 H322 0.930 1_556 S
C335 C334 1.376 . S
C335 C336 1.388 1_556 S
C336 H323 0.930 . S
C336 C335 1.388 1_554 S
C336 C337 1.390 1_554 S
C337 C336 1.390 1_556 S
C337 C338 1.394 . S
C337 C343 1.465 1_556 S
C338 C333 1.399 . S
C338 C337 1.394 . S
C338 C339 1.516 . S
C339 C338 1.516 . S
C339 C340 1.502 . S
C339 C341 1.561 . S
C339 C342 1.526 . S
C340 H324 0.959 . S
C340 H325 0.959 . S
C340 H326 0.961 . S
C340 C339 1.502 . S
C341 H327 0.960 . S
C341 H328 0.961 . S
C341 H329 0.959 . S
C341 C339 1.561 . S
C342 C339 1.526 . S
C342 C343 1.396 1_556 S
C342 C347 1.390 . S
C343 C337 1.465 1_554 S
C343 C342 1.396 1_554 S
C343 C344 1.399 . S
C344 H330 0.929 . S
C344 C343 1.399 . S
C344 C345 1.385 . S
C345 H331 0.931 . S
C345 C344 1.385 . S
C345 C346 1.389 . S
C346 C345 1.389 . S
C346 C347 1.387 1_554 S
C347 H332 0.930 . S
C347 C342 1.390 . S
C347 C346 1.387 1_556 S
H348 C360 0.930 . S
H349 C362 0.930 . S
H350 C363 0.930 . S
H351 C367 0.959 . S
H352 C367 0.959 . S
H353 C367 0.961 . S
H354 C368 0.960 . S
H355 C368 0.961 . S
H356 C368 0.959 . S
H357 C371 0.929 . S
H358 C372 0.931 . S
H359 C374 0.930 . S
C360 H348 0.930 . S
C360 C361 1.399 . S
C360 C365 1.399 . S
C361 C360 1.399 . S
C361 C362 1.376 . S
C362 H349 0.930 . S
C362 C361 1.376 . S
C362 C363 1.388 . S
C363 H350 0.930 . S
C363 C362 1.388 . S
C363 C364 1.390 . S
C364 C363 1.390 . S
C364 C365 1.394 . S
C364 C370 1.465 1_455 S
C365 C360 1.399 . S
C365 C364 1.394 . S
C365 C366 1.516 . S
C366 C365 1.516 . S
C366 C367 1.502 1_455 S
C366 C368 1.561 . S
C366 C369 1.526 1_455 S
C367 H351 0.959 . S
C367 H352 0.959 . S
C367 H353 0.961 . S
C367 C366 1.502 1_655 S
C368 H354 0.960 . S
C368 H355 0.961 . S
C368 H356 0.959 . S
C368 C366 1.561 . S
C369 C366 1.526 1_655 S
C369 C370 1.396 . S
C369 C374 1.390 . S
C370 C364 1.465 1_655 S
C370 C369 1.396 . S
C370 C371 1.399 . S
C371 H357 0.929 . S
C371 C370 1.399 . S
C371 C372 1.385 . S
C372 H358 0.931 . S
C372 C371 1.385 . S
C372 C373 1.389 . S
C373 C372 1.389 . S
C373 C374 1.387 . S
C374 H359 0.930 . S
C374 C369 1.390 . S
C374 C373 1.387 . S
H375 C387 0.930 . S
H376 C389 0.930 . S
H377 C390 0.930 . S
H378 C394 0.959 . S
H379 C394 0.959 . S
H380 C394 0.961 1_545 S
H381 C395 0.960 . S
H382 C395 0.961 . S
H383 C395 0.959 . S
H384 C398 0.929 . S
H385 C399 0.931 . S
H386 C401 0.930 . S
C387 H375 0.930 . S
C387 C388 1.399 . S
C387 C392 1.399 . S
C388 C387 1.399 . S
C388 C389 1.376 . S
C389 H376 0.930 . S
C389 C388 1.376 . S
C389 C390 1.388 . S
C390 H377 0.930 . S
C390 C389 1.388 . S
C390 C391 1.390 . S
C391 C390 1.390 . S
C391 C392 1.394 . S
C391 C397 1.465 1_545 S
C392 C387 1.399 . S
C392 C391 1.394 . S
C392 C393 1.516 1_545 S
C393 C392 1.516 1_565 S
C393 C394 1.502 . S
C393 C395 1.561 . S
C393 C396 1.526 . S
C394 H378 0.959 . S
C394 H379 0.959 . S
C394 H380 0.961 1_565 S
C394 C393 1.502 . S
C395 H381 0.960 . S
C395 H382 0.961 . S
C395 H383 0.959 . S
C395 C393 1.561 . S
C396 C393 1.526 . S
C396 C397 1.396 . S
C396 C401 1.390 . S
C397 C391 1.465 1_565 S
C397 C396 1.396 . S
C397 C398 1.399 . S
C398 H384 0.929 . S
C398 C397 1.399 . S
C398 C399 1.385 . S
C399 H385 0.931 . S
C399 C398 1.385 . S
C399 C400 1.389 . S
C400 C399 1.389 . S
C400 C401 1.387 . S
C401 H386 0.930 . S
C401 C396 1.390 . S
C401 C400 1.387 . S
H402 C414 0.930 . S
H403 C416 0.930 . S
H404 C417 0.930 . S
H405 C421 0.959 . S
H406 C421 0.959 . S
H407 C421 0.961 . S
H408 C422 0.960 . S
H409 C422 0.961 . S
H410 C422 0.959 . S
H411 C425 0.929 . S
H412 C426 0.931 . S
H413 C428 0.930 . S
C414 H402 0.930 . S
C414 C415 1.399 . S
C414 C419 1.399 . S
C415 C414 1.399 . S
C415 C416 1.376 . S
C416 H403 0.930 . S
C416 C415 1.376 . S
C416 C417 1.388 . S
C417 H404 0.930 . S
C417 C416 1.388 . S
C417 C418 1.390 . S
C418 C417 1.390 . S
C418 C419 1.394 . S
C418 C424 1.465 . S
C419 C414 1.399 . S
C419 C418 1.394 . S
C419 C420 1.516 . S
C420 C419 1.516 . S
C420 C421 1.502 . S
C420 C422 1.561 . S
C420 C423 1.526 . S
C421 H405 0.959 . S
C421 H406 0.959 . S
C421 H407 0.961 . S
C421 C420 1.502 . S
C422 H408 0.960 . S
C422 H409 0.961 . S
C422 H410 0.959 . S
C422 C420 1.561 . S
C423 C420 1.526 . S
C423 C424 1.396 . S
C423 C428 1.390 . S
C424 C418 1.465 . S
C424 C423 1.396 . S
C424 C425 1.399 . S
C425 H411 0.929 . S
C425 C424 1.399 . S
C425 C426 1.385 . S
C426 H412 0.931 . S
C426 C425 1.385 . S
C426 C427 1.389 . S
C427 C426 1.389 . S
C427 C428 1.387 . S
C428 H413 0.930 . S
C428 C423 1.390 . S
C428 C427 1.387 . S
H429 C441 0.923 1_554 S
H430 C443 0.935 . S
H431 C444 0.930 . S
H432 C448 0.959 . S
H433 C448 0.959 . S
H434 C448 0.961 . S
H435 C449 0.960 . S
H436 C449 0.961 . S
H437 C449 0.959 . S
H438 C452 0.929 . S
H439 C453 0.931 . S
H440 C455 0.930 . S
C441 H429 0.923 1_556 S
C441 C442 1.399 1_556 S
C441 C446 1.399 . S
C442 C441 1.399 1_554 S
C442 C443 1.379 . S
C443 H430 0.935 . S
C443 C442 1.379 . S
C443 C444 1.381 1_554 S
C444 H431 0.930 . S
C444 C443 1.381 1_556 S
C444 C445 1.390 . S
C445 C444 1.390 . S
C445 C446 1.394 . S
C445 C451 1.465 . S
C446 C441 1.399 . S
C446 C445 1.394 . S
C446 C447 1.516 . S
C447 C446 1.516 . S
C447 C448 1.502 . S
C447 C449 1.561 . S
C447 C450 1.526 . S
C448 H432 0.959 . S
C448 H433 0.959 . S
C448 H434 0.961 . S
C448 C447 1.502 . S
C449 H435 0.960 . S
C449 H436 0.961 . S
C449 H437 0.959 . S
C449 C447 1.561 . S
C450 C447 1.526 . S
C450 C451 1.396 . S
C450 C455 1.390 . S
C451 C445 1.465 . S
C451 C450 1.396 . S
C451 C452 1.399 . S
C452 H438 0.929 . S
C452 C451 1.399 . S
C452 C453 1.385 . S
C453 H439 0.931 . S
C453 C452 1.385 . S
C453 C454 1.389 . S
C454 C453 1.389 . S
C454 C455 1.387 . S
C455 H440 0.930 . S
C455 C450 1.390 . S
C455 C454 1.387 . S
H456 C468 0.930 . S
H457 C470 0.930 . S
H458 C471 0.930 . S
H459 C475 0.959 . S
H460 C475 0.959 . S
H461 C475 0.961 . S
H462 C476 0.960 . S
H463 C476 0.961 . S
H464 C476 0.959 . S
H465 C479 0.929 . S
H466 C480 0.931 . S
H467 C482 0.930 . S
C468 H456 0.930 . S
C468 C469 1.399 . S
C468 C473 1.399 . S
C469 C468 1.399 . S
C469 C470 1.376 . S
C470 H457 0.930 . S
C470 C469 1.376 . S
C470 C471 1.388 . S
C471 H458 0.930 . S
C471 C470 1.388 . S
C471 C472 1.390 . S
C472 C471 1.390 . S
C472 C473 1.394 . S
C472 C478 1.465 . S
C473 C468 1.399 . S
C473 C472 1.394 . S
C473 C474 1.516 . S
C474 C473 1.516 . S
C474 C475 1.502 . S
C474 C476 1.561 . S
C474 C477 1.526 . S
C475 H459 0.959 . S
C475 H460 0.959 . S
C475 H461 0.961 . S
C475 C474 1.502 . S
C476 H462 0.960 . S
C476 H463 0.961 . S
C476 H464 0.959 . S
C476 C474 1.561 . S
C477 C474 1.526 . S
C477 C478 1.396 . S
C477 C482 1.390 . S
C478 C472 1.465 . S
C478 C477 1.396 . S
C478 C479 1.399 . S
C479 H465 0.929 . S
C479 C478 1.399 . S
C479 C480 1.385 . S
C480 H466 0.931 . S
C480 C479 1.385 . S
C480 C481 1.389 . S
C481 C480 1.389 . S
C481 C482 1.387 . S
C482 H467 0.930 . S
C482 C477 1.390 . S
C482 C481 1.387 . S
H483 C495 0.930 . S
H484 C497 0.930 . S
H485 C498 0.930 . S
H486 C502 0.959 . S
H487 C502 0.959 . S
H488 C502 0.961 . S
H489 C503 0.960 . S
H490 C503 0.961 . S
H491 C503 0.959 . S
H492 C506 0.929 . S
H493 C507 0.931 . S
H494 C509 0.930 . S
C495 H483 0.930 . S
C495 C496 1.399 . S
C495 C500 1.399 . S
C496 C495 1.399 . S
C496 C497 1.376 . S
C497 H484 0.930 . S
C497 C496 1.376 . S
C497 C498 1.388 . S
C498 H485 0.930 . S
C498 C497 1.388 . S
C498 C499 1.390 . S
C499 C498 1.390 . S
C499 C500 1.394 . S
C499 C505 1.465 . S
C500 C495 1.399 . S
C500 C499 1.394 . S
C500 C501 1.516 . S
C501 C500 1.516 . S
C501 C502 1.502 . S
C501 C503 1.561 . S
C501 C504 1.526 . S
C502 H486 0.959 . S
C502 H487 0.959 . S
C502 H488 0.961 . S
C502 C501 1.502 . S
C503 H489 0.960 . S
C503 H490 0.961 . S
C503 H491 0.959 . S
C503 C501 1.561 . S
C504 C501 1.526 . S
C504 C505 1.396 . S
C504 C509 1.390 . S
C505 C499 1.465 . S
C505 C504 1.396 . S
C505 C506 1.399 . S
C506 H492 0.929 . S
C506 C505 1.399 . S
C506 C507 1.385 . S
C507 H493 0.931 . S
C507 C506 1.385 . S
C507 C508 1.389 . S
C508 C507 1.389 . S
C508 C509 1.387 . S
C509 H494 0.930 . S
C509 C504 1.390 . S
C509 C508 1.387 . S
H510 C522 0.930 . S
H511 C524 0.930 . S
H512 C525 0.930 . S
H513 C529 0.959 . S
H514 C529 0.959 . S
H515 C529 0.961 1_556 S
H516 C530 0.960 1_556 S
H517 C530 0.961 . S
H518 C530 0.959 . S
H519 C533 0.929 . S
H520 C534 0.931 . S
H521 C536 0.930 . S
C522 H510 0.930 . S
C522 C523 1.399 . S
C522 C527 1.399 1_556 S
C523 C522 1.399 . S
C523 C524 1.376 . S
C524 H511 0.930 . S
C524 C523 1.376 . S
C524 C525 1.388 1_556 S
C525 H512 0.930 . S
C525 C524 1.388 1_554 S
C525 C526 1.390 . S
C526 C525 1.390 . S
C526 C527 1.394 . S
C526 C532 1.465 . S
C527 C522 1.399 1_554 S
C527 C526 1.394 . S
C527 C528 1.516 . S
C528 C527 1.516 . S
C528 C529 1.502 . S
C528 C530 1.561 . S
C528 C531 1.526 . S
C529 H513 0.959 . S
C529 H514 0.959 . S
C529 H515 0.961 1_554 S
C529 C528 1.502 . S
C530 H516 0.960 1_554 S
C530 H517 0.961 . S
C530 H518 0.959 . S
C530 C528 1.561 . S
C531 C528 1.526 . S
C531 C532 1.396 . S
C531 C536 1.390 . S
C532 C526 1.465 . S
C532 C531 1.396 . S
C532 C533 1.399 . S
C533 H519 0.929 . S
C533 C532 1.399 . S
C533 C534 1.385 . S
C534 H520 0.931 . S
C534 C533 1.385 . S
C534 C535 1.389 . S
C535 C534 1.389 . S
C535 C536 1.387 . S
C536 H521 0.930 . S
C536 C531 1.390 . S
C536 C535 1.387 . S
H537 C549 0.930 . S
H538 C551 0.930 . S
H539 C552 0.930 . S
H540 C556 0.959 . S
H541 C556 0.959 . S
H542 C556 0.961 . S
H543 C557 0.960 . S
H544 C557 0.961 . S
H545 C557 0.959 . S
H546 C560 0.929 . S
H547 C561 0.931 . S
H548 C563 0.930 . S
C549 H537 0.930 . S
C549 C550 1.399 . S
C549 C554 1.399 . S
C550 C549 1.399 . S
C550 C551 1.376 . S
C551 H538 0.930 . S
C551 C550 1.376 . S
C551 C552 1.388 . S
C552 H539 0.930 . S
C552 C551 1.388 . S
C552 C553 1.390 . S
C553 C552 1.390 . S
C553 C554 1.394 . S
C553 C559 1.465 . S
C554 C549 1.399 . S
C554 C553 1.394 . S
C554 C555 1.516 . S
C555 C554 1.516 . S
C555 C556 1.502 . S
C555 C557 1.561 . S
C555 C558 1.526 . S
C556 H540 0.959 . S
C556 H541 0.959 . S
C556 H542 0.961 . S
C556 C555 1.502 . S
C557 H543 0.960 . S
C557 H544 0.961 . S
C557 H545 0.959 . S
C557 C555 1.561 . S
C558 C555 1.526 . S
C558 C559 1.396 . S
C558 C563 1.390 . S
C559 C553 1.465 . S
C559 C558 1.396 . S
C559 C560 1.399 . S
C560 H546 0.929 . S
C560 C559 1.399 . S
C560 C561 1.385 . S
C561 H547 0.931 . S
C561 C560 1.385 . S
C561 C562 1.389 . S
C562 C561 1.389 . S
C562 C563 1.387 . S
C563 H548 0.930 . S
C563 C558 1.390 . S
C563 C562 1.387 . S
H564 C576 0.930 . S
H565 C578 0.930 . S
H566 C579 0.930 . S
H567 C583 0.959 . S
H568 C583 0.959 . S
H569 C583 0.961 . S
H570 C584 0.960 . S
H571 C584 0.961 . S
H572 C584 0.959 . S
H573 C587 0.929 . S
H574 C588 0.931 . S
H575 C590 0.930 . S
C576 H564 0.930 . S
C576 C577 1.399 . S
C576 C581 1.399 . S
C577 C576 1.399 . S
C577 C578 1.376 . S
C578 H565 0.930 . S
C578 C577 1.376 . S
C578 C579 1.388 . S
C579 H566 0.930 . S
C579 C578 1.388 . S
C579 C580 1.390 . S
C580 C579 1.390 . S
C580 C581 1.394 . S
C580 C586 1.465 . S
C581 C576 1.399 . S
C581 C580 1.394 . S
C581 C582 1.516 . S
C582 C581 1.516 . S
C582 C583 1.502 . S
C582 C584 1.561 . S
C582 C585 1.526 . S
C583 H567 0.959 . S
C583 H568 0.959 . S
C583 H569 0.961 . S
C583 C582 1.502 . S
C584 H570 0.960 . S
C584 H571 0.961 . S
C584 H572 0.959 . S
C584 C582 1.561 . S
C585 C582 1.526 . S
C585 C586 1.396 . S
C585 C590 1.390 . S
C586 C580 1.465 . S
C586 C585 1.396 . S
C586 C587 1.399 . S
C587 H573 0.929 . S
C587 C586 1.399 . S
C587 C588 1.385 . S
C588 H574 0.931 . S
C588 C587 1.385 . S
C588 C589 1.389 . S
C589 C588 1.389 . S
C589 C590 1.387 . S
C590 H575 0.930 . S
C590 C585 1.390 . S
C590 C589 1.387 . S
H591 C603 0.930 . S
H592 C605 0.930 . S
H593 C606 0.930 . S
H594 C610 0.959 . S
H595 C610 0.959 . S
H596 C610 0.961 . S
H597 C611 0.960 . S
H598 C611 0.961 . S
H599 C611 0.959 . S
H600 C614 0.929 . S
H601 C615 0.931 . S
H602 C617 0.930 . S
C603 H591 0.930 . S
C603 C604 1.399 . S
C603 C608 1.399 . S
C604 C603 1.399 . S
C604 C605 1.376 . S
C605 H592 0.930 . S
C605 C604 1.376 . S
C605 C606 1.388 . S
C606 H593 0.930 . S
C606 C605 1.388 . S
C606 C607 1.390 . S
C607 C606 1.390 . S
C607 C608 1.394 . S
C607 C613 1.465 . S
C608 C603 1.399 . S
C608 C607 1.394 . S
C608 C609 1.516 . S
C609 C608 1.516 . S
C609 C610 1.502 . S
C609 C611 1.561 . S
C609 C612 1.526 . S
C610 H594 0.959 . S
C610 H595 0.959 . S
C610 H596 0.961 . S
C610 C609 1.502 . S
C611 H597 0.960 . S
C611 H598 0.961 . S
C611 H599 0.959 . S
C611 C609 1.561 . S
C612 C609 1.526 . S
C612 C613 1.396 . S
C612 C617 1.390 . S
C613 C607 1.465 . S
C613 C612 1.396 . S
C613 C614 1.399 . S
C614 H600 0.929 . S
C614 C613 1.399 . S
C614 C615 1.385 . S
C615 H601 0.931 . S
C615 C614 1.385 . S
C615 C616 1.389 . S
C616 C615 1.389 . S
C616 C617 1.387 . S
C617 H602 0.930 . S
C617 C612 1.390 . S
C617 C616 1.387 . S
H618 C630 0.930 . S
H619 C632 0.930 . S
H620 C633 0.930 . S
H621 C637 0.960 . S
H622 C637 0.960 . S
H623 C637 0.961 1_554 S
H624 C638 0.960 . S
H625 C638 0.961 . S
H626 C638 0.959 . S
H627 C641 0.929 . S
H628 C642 0.931 . S
H629 C644 0.930 1_556 S
C630 H618 0.930 . S
C630 C631 1.399 . S
C630 C635 1.399 . S
C631 C630 1.399 . S
C631 C632 1.376 . S
C632 H619 0.930 . S
C632 C631 1.376 . S
C632 C633 1.388 . S
C633 H620 0.930 . S
C633 C632 1.388 . S
C633 C634 1.390 . S
C634 C633 1.390 . S
C634 C635 1.394 . S
C634 C640 1.465 . S
C635 C630 1.399 . S
C635 C634 1.394 . S
C635 C636 1.516 . S
C636 C635 1.516 . S
C636 C637 1.501 1_554 S
C636 C638 1.561 . S
C636 C639 1.526 . S
C637 H621 0.960 . S
C637 H622 0.960 . S
C637 H623 0.961 1_556 S
C637 C636 1.501 1_556 S
C638 H624 0.960 . S
C638 H625 0.961 . S
C638 H626 0.959 . S
C638 C636 1.561 . S
C639 C636 1.526 . S
C639 C640 1.396 . S
C639 C644 1.390 . S
C640 C634 1.465 . S
C640 C639 1.396 . S
C640 C641 1.399 . S
C641 H627 0.929 . S
C641 C640 1.399 . S
C641 C642 1.385 . S
C642 H628 0.931 . S
C642 C641 1.385 . S
C642 C643 1.389 . S
C643 C642 1.389 . S
C643 C644 1.387 . S
C644 H629 0.930 1_554 S
C644 C639 1.390 . S
C644 C643 1.387 . S
H645 C657 0.930 . S
H646 C659 0.930 . S
H647 C660 0.930 . S
H648 C664 0.959 . S
H649 C664 0.959 . S
H650 C664 0.961 . S
H651 C665 0.960 . S
H652 C665 0.961 . S
H653 C665 0.959 . S
H654 C668 0.929 . S
H655 C669 0.931 . S
H656 C671 0.930 . S
C657 H645 0.930 . S
C657 C658 1.399 . S
C657 C662 1.399 . S
C658 C657 1.399 . S
C658 C659 1.376 . S
C659 H646 0.930 . S
C659 C658 1.376 . S
C659 C660 1.388 . S
C660 H647 0.930 . S
C660 C659 1.388 . S
C660 C661 1.390 . S
C661 C660 1.390 . S
C661 C662 1.394 . S
C661 C667 1.465 . S
C662 C657 1.399 . S
C662 C661 1.394 . S
C662 C663 1.516 . S
C663 C662 1.516 . S
C663 C664 1.502 . S
C663 C665 1.561 . S
C663 C666 1.526 . S
C664 H648 0.959 . S
C664 H649 0.959 . S
C664 H650 0.961 . S
C664 C663 1.502 . S
C665 H651 0.960 . S
C665 H652 0.961 . S
C665 H653 0.959 . S
C665 C663 1.561 . S
C666 C663 1.526 . S
C666 C667 1.396 . S
C666 C671 1.390 . S
C667 C661 1.465 . S
C667 C666 1.396 . S
C667 C668 1.399 . S
C668 H654 0.929 . S
C668 C667 1.399 . S
C668 C669 1.385 . S
C669 H655 0.931 . S
C669 C668 1.385 . S
C669 C670 1.389 . S
C670 C669 1.389 . S
C670 C671 1.387 . S
C671 H656 0.930 . S
C671 C666 1.390 . S
C671 C670 1.387 . S
H672 C684 0.930 . S
H673 C686 0.930 . S
H674 C687 0.930 . S
H675 C691 0.959 . S
H676 C691 0.959 . S
H677 C691 0.961 . S
H678 C692 0.960 . S
H679 C692 0.961 . S
H680 C692 0.959 . S
H681 C695 0.929 . S
H682 C696 0.931 . S
H683 C698 0.930 . S
C684 H672 0.930 . S
C684 C685 1.399 . S
C684 C689 1.399 . S
C685 C684 1.399 . S
C685 C686 1.376 . S
C686 H673 0.930 . S
C686 C685 1.376 . S
C686 C687 1.388 . S
C687 H674 0.930 . S
C687 C686 1.388 . S
C687 C688 1.390 . S
C688 C687 1.390 . S
C688 C689 1.394 . S
C688 C694 1.465 . S
C689 C684 1.399 . S
C689 C688 1.394 . S
C689 C690 1.516 . S
C690 C689 1.516 . S
C690 C691 1.502 . S
C690 C692 1.561 . S
C690 C693 1.526 . S
C691 H675 0.959 . S
C691 H676 0.959 . S
C691 H677 0.961 . S
C691 C690 1.502 . S
C692 H678 0.960 . S
C692 H679 0.961 . S
C692 H680 0.959 . S
C692 C690 1.561 . S
C693 C690 1.526 . S
C693 C694 1.396 . S
C693 C698 1.390 . S
C694 C688 1.465 . S
C694 C693 1.396 . S
C694 C695 1.399 . S
C695 H681 0.929 . S
C695 C694 1.399 . S
C695 C696 1.385 . S
C696 H682 0.931 . S
C696 C695 1.385 . S
C696 C697 1.389 . S
C697 C696 1.389 . S
C697 C698 1.387 . S
C698 H683 0.930 . S
C698 C693 1.390 . S
C698 C697 1.387 . S
H699 C711 0.930 . S
H700 C713 0.930 . S
H701 C714 0.930 . S
H702 C718 0.959 . S
H703 C718 0.959 . S
H704 C718 0.961 . S
H705 C719 0.960 . S
H706 C719 0.961 . S
H707 C719 0.959 . S
H708 C722 0.929 . S
H709 C723 0.931 . S
H710 C725 0.930 . S
C711 H699 0.930 . S
C711 C712 1.399 . S
C711 C716 1.399 . S
C712 C711 1.399 . S
C712 C713 1.376 . S
C713 H700 0.930 . S
C713 C712 1.376 . S
C713 C714 1.388 . S
C714 H701 0.930 . S
C714 C713 1.388 . S
C714 C715 1.390 . S
C715 C714 1.390 . S
C715 C716 1.394 . S
C715 C721 1.465 . S
C716 C711 1.399 . S
C716 C715 1.394 . S
C716 C717 1.516 . S
C717 C716 1.516 . S
C717 C718 1.502 . S
C717 C719 1.561 . S
C717 C720 1.526 . S
C718 H702 0.959 . S
C718 H703 0.959 . S
C718 H704 0.961 . S
C718 C717 1.502 . S
C719 H705 0.960 . S
C719 H706 0.961 . S
C719 H707 0.959 . S
C719 C717 1.561 . S
C720 C717 1.526 . S
C720 C721 1.396 . S
C720 C725 1.390 . S
C721 C715 1.465 . S
C721 C720 1.396 . S
C721 C722 1.399 . S
C722 H708 0.929 . S
C722 C721 1.399 . S
C722 C723 1.385 . S
C723 H709 0.931 . S
C723 C722 1.385 . S
C723 C724 1.389 . S
C724 C723 1.389 . S
C724 C725 1.387 . S
C725 H710 0.930 . S
C725 C720 1.390 . S
C725 C724 1.387 . S
C253 C202 1.744 . S
C265 C2 1.743 . S
C280 C10 1.383 . S
C292 C50 1.448 . S
C307 C42 1.738 . S
C319 C82 1.749 . S
C334 C90 1.448 . S
C346 C130 1.384 . S
C361 C162 1.736 . S
C373 C122 1.751 . S
C388 C210 1.453 . S
C400 C170 1.430 . S
C415 C7 1.284 . S
C427 C16 1.275 . S
C442 C56 1.313 . S
C454 C47 1.274 . S
C469 C87 1.250 . S
C481 C96 1.311 . S
C496 C136 1.247 . S
C508 C127 1.315 . S
C523 C176 1.319 . S
C535 C167 1.245 . S
C550 C216 1.245 . S
C562 C207 1.331 . S
C577 C11 1.807 . S
C589 C179 1.828 . S
C604 C59 1.833 . S
C616 C211 1.823 . S
C631 C19 1.830 . S
C643 C91 1.832 1_554 S
C658 C51 1.832 . S
C670 C139 1.830 . S
C685 C171 1.825 . S
C697 C99 1.826 . S
C712 C131 1.820 1_556 S
C724 C219 1.824 . S
