# Generated by pormake.
# Topology utn, (3)-cn, num edge types: 1
# Building blocks:
#     Node 0, Type 0, BuildingBlock: OLANEW_clean_sbu_2, # of connection points: 3
#     Node 1, Type 0, BuildingBlock: OLANEW_clean_sbu_2, # of connection points: 3
#     Node 2, Type 0, BuildingBlock: OLANEW_clean_sbu_2, # of connection points: 3
#     Node 3, Type 0, BuildingBlock: OLANEW_clean_sbu_2, # of connection points: 3
#     Node 4, Type 0, BuildingBlock: OLANEW_clean_sbu_2, # of connection points: 3
#     Node 5, Type 0, BuildingBlock: OLANEW_clean_sbu_2, # of connection points: 3
#     Node 6, Type 0, BuildingBlock: OLANEW_clean_sbu_2, # of connection points: 3
#     Node 7, Type 0, BuildingBlock: OLANEW_clean_sbu_2, # of connection points: 3
#     Node 8, Type 0, BuildingBlock: OLANEW_clean_sbu_2, # of connection points: 3
#     Node 9, Type 0, BuildingBlock: OLANEW_clean_sbu_2, # of connection points: 3
#     Node 10, Type 0, BuildingBlock: OLANEW_clean_sbu_2, # of connection points: 3
#     Node 11, Type 0, BuildingBlock: OLANEW_clean_sbu_2, # of connection points: 3
#     Node 12, Type 0, BuildingBlock: OLANEW_clean_sbu_2, # of connection points: 3
#     Node 13, Type 0, BuildingBlock: OLANEW_clean_sbu_2, # of connection points: 3
#     Node 14, Type 0, BuildingBlock: OLANEW_clean_sbu_2, # of connection points: 3
#     Node 15, Type 0, BuildingBlock: OLANEW_clean_sbu_2, # of connection points: 3
#     Node 16, Type 0, BuildingBlock: OLANEW_clean_sbu_2, # of connection points: 3
#     Node 17, Type 0, BuildingBlock: OLANEW_clean_sbu_2, # of connection points: 3
#     Node 18, Type 0, BuildingBlock: OLANEW_clean_sbu_2, # of connection points: 3
#     Node 19, Type 0, BuildingBlock: OLANEW_clean_sbu_2, # of connection points: 3
#     Node 20, Type 0, BuildingBlock: OLANEW_clean_sbu_2, # of connection points: 3
#     Node 21, Type 0, BuildingBlock: OLANEW_clean_sbu_2, # of connection points: 3
#     Node 22, Type 0, BuildingBlock: OLANEW_clean_sbu_2, # of connection points: 3
#     Node 23, Type 0, BuildingBlock: OLANEW_clean_sbu_2, # of connection points: 3
#     Node 24, Type 0, BuildingBlock: OLANEW_clean_sbu_2, # of connection points: 3
#     Node 25, Type 0, BuildingBlock: OLANEW_clean_sbu_2, # of connection points: 3
#     Node 26, Type 0, BuildingBlock: OLANEW_clean_sbu_2, # of connection points: 3
#     Node 27, Type 0, BuildingBlock: OLANEW_clean_sbu_2, # of connection points: 3
#     Node 28, Type 0, BuildingBlock: OLANEW_clean_sbu_2, # of connection points: 3
#     Node 29, Type 0, BuildingBlock: OLANEW_clean_sbu_2, # of connection points: 3
#     Node 30, Type 0, BuildingBlock: OLANEW_clean_sbu_2, # of connection points: 3
#     Node 31, Type 0, BuildingBlock: OLANEW_clean_sbu_2, # of connection points: 3
#     Edge 32, Type (0, 0), BuildingBlock: UVAHIK_clean_linker_0, # of connection points: 2
#     Edge 33, Type (0, 0), BuildingBlock: UVAHIK_clean_linker_0, # of connection points: 2
#     Edge 34, Type (0, 0), BuildingBlock: UVAHIK_clean_linker_0, # of connection points: 2
#     Edge 35, Type (0, 0), BuildingBlock: UVAHIK_clean_linker_0, # of connection points: 2
#     Edge 36, Type (0, 0), BuildingBlock: UVAHIK_clean_linker_0, # of connection points: 2
#     Edge 37, Type (0, 0), BuildingBlock: UVAHIK_clean_linker_0, # of connection points: 2
#     Edge 38, Type (0, 0), BuildingBlock: UVAHIK_clean_linker_0, # of connection points: 2
#     Edge 39, Type (0, 0), BuildingBlock: UVAHIK_clean_linker_0, # of connection points: 2
#     Edge 40, Type (0, 0), BuildingBlock: UVAHIK_clean_linker_0, # of connection points: 2
#     Edge 41, Type (0, 0), BuildingBlock: UVAHIK_clean_linker_0, # of connection points: 2
#     Edge 42, Type (0, 0), BuildingBlock: UVAHIK_clean_linker_0, # of connection points: 2
#     Edge 43, Type (0, 0), BuildingBlock: UVAHIK_clean_linker_0, # of connection points: 2
#     Edge 44, Type (0, 0), BuildingBlock: UVAHIK_clean_linker_0, # of connection points: 2
#     Edge 45, Type (0, 0), BuildingBlock: UVAHIK_clean_linker_0, # of connection points: 2
#     Edge 46, Type (0, 0), BuildingBlock: UVAHIK_clean_linker_0, # of connection points: 2
#     Edge 47, Type (0, 0), BuildingBlock: UVAHIK_clean_linker_0, # of connection points: 2
#     Edge 48, Type (0, 0), BuildingBlock: UVAHIK_clean_linker_0, # of connection points: 2
#     Edge 49, Type (0, 0), BuildingBlock: UVAHIK_clean_linker_0, # of connection points: 2
#     Edge 50, Type (0, 0), BuildingBlock: UVAHIK_clean_linker_0, # of connection points: 2
#     Edge 51, Type (0, 0), BuildingBlock: UVAHIK_clean_linker_0, # of connection points: 2
#     Edge 52, Type (0, 0), BuildingBlock: UVAHIK_clean_linker_0, # of connection points: 2
#     Edge 53, Type (0, 0), BuildingBlock: UVAHIK_clean_linker_0, # of connection points: 2
#     Edge 54, Type (0, 0), BuildingBlock: UVAHIK_clean_linker_0, # of connection points: 2
#     Edge 55, Type (0, 0), BuildingBlock: UVAHIK_clean_linker_0, # of connection points: 2
#     Edge 56, Type (0, 0), BuildingBlock: UVAHIK_clean_linker_0, # of connection points: 2
#     Edge 57, Type (0, 0), BuildingBlock: UVAHIK_clean_linker_0, # of connection points: 2
#     Edge 58, Type (0, 0), BuildingBlock: UVAHIK_clean_linker_0, # of connection points: 2
#     Edge 59, Type (0, 0), BuildingBlock: UVAHIK_clean_linker_0, # of connection points: 2
#     Edge 60, Type (0, 0), BuildingBlock: UVAHIK_clean_linker_0, # of connection points: 2
#     Edge 61, Type (0, 0), BuildingBlock: UVAHIK_clean_linker_0, # of connection points: 2
#     Edge 62, Type (0, 0), BuildingBlock: UVAHIK_clean_linker_0, # of connection points: 2
#     Edge 63, Type (0, 0), BuildingBlock: UVAHIK_clean_linker_0, # of connection points: 2
#     Edge 64, Type (0, 0), BuildingBlock: UVAHIK_clean_linker_0, # of connection points: 2
#     Edge 65, Type (0, 0), BuildingBlock: UVAHIK_clean_linker_0, # of connection points: 2
#     Edge 66, Type (0, 0), BuildingBlock: UVAHIK_clean_linker_0, # of connection points: 2
#     Edge 67, Type (0, 0), BuildingBlock: UVAHIK_clean_linker_0, # of connection points: 2
#     Edge 68, Type (0, 0), BuildingBlock: UVAHIK_clean_linker_0, # of connection points: 2
#     Edge 69, Type (0, 0), BuildingBlock: UVAHIK_clean_linker_0, # of connection points: 2
#     Edge 70, Type (0, 0), BuildingBlock: UVAHIK_clean_linker_0, # of connection points: 2
#     Edge 71, Type (0, 0), BuildingBlock: UVAHIK_clean_linker_0, # of connection points: 2
#     Edge 72, Type (0, 0), BuildingBlock: UVAHIK_clean_linker_0, # of connection points: 2
#     Edge 73, Type (0, 0), BuildingBlock: UVAHIK_clean_linker_0, # of connection points: 2
#     Edge 74, Type (0, 0), BuildingBlock: UVAHIK_clean_linker_0, # of connection points: 2
#     Edge 75, Type (0, 0), BuildingBlock: UVAHIK_clean_linker_0, # of connection points: 2
#     Edge 76, Type (0, 0), BuildingBlock: UVAHIK_clean_linker_0, # of connection points: 2
#     Edge 77, Type (0, 0), BuildingBlock: UVAHIK_clean_linker_0, # of connection points: 2
#     Edge 78, Type (0, 0), BuildingBlock: UVAHIK_clean_linker_0, # of connection points: 2
#     Edge 79, Type (0, 0), BuildingBlock: UVAHIK_clean_linker_0, # of connection points: 2
# Relax obj value: 0.010
# Max RMSD: 0.043
# Mean RMSD: 0.043
data_MOF--net-utn--node1-OLANEW_clean_sbu_2--edge1-UVAHIK_clean_linker_0
_symmetry_space_group_name_H-M    P1
_symmetry_Int_Tables_number       1
_symmetry_cell_setting            triclinic
loop_
_symmetry_equiv_pos_as_xyz
'x, y, z'
_cell_length_a     103.2742
_cell_length_b     103.26271
_cell_length_c     37.29707
_cell_angle_alpha  90.004185
_cell_angle_beta   89.97281
_cell_angle_gamma 89.999471
loop_
_atom_site_label
_atom_site_type_symbol
_atom_site_fract_x
_atom_site_fract_y
_atom_site_fract_z
_atom_type_partial_charge
O0 O 0.26397 0.12586 0.29165 0.0
Cd1 Cd 0.26503 0.12461 0.2263 0.0
O2 O 0.25612 0.14543 0.28671 0.0
Cd3 Cd 0.24778 0.16413 0.30207 0.0
O4 O 0.24305 0.18462 0.30813 0.0
C5 C 0.25105 0.19209 0.32366 0.0
O6 O 0.26176 0.18716 0.33693 0.0
C7 C 0.25973 0.13607 0.30658 0.0
C8 C 0.24666 0.10737 0.19942 0.0
O9 O 0.25807 0.10354 0.20776 0.0
O10 O 0.24396 0.11939 0.20365 0.0
O11 O 0.10108 0.98639 0.57395 0.0
Cd12 Cd 0.09446 0.9836 0.51134 0.0
O13 O 0.09835 0.96582 0.58722 0.0
Cd14 Cd 0.08573 0.96325 0.541 0.0
O15 O 0.06594 0.96604 0.52201 0.0
C16 C 0.05905 0.97309 0.54245 0.0
O17 O 0.0644 0.97805 0.57132 0.0
C18 C 0.10232 0.97704 0.5959 0.0
C19 C 0.11352 0.97033 0.47273 0.0
O20 O 0.11382 0.98269 0.47561 0.0
O21 O 0.10416 0.96427 0.48775 0.0
O22 O 0.24221 0.87742 0.79896 0.0
Cd23 Cd 0.24305 0.87718 0.73346 0.0
O24 O 0.24767 0.85698 0.79828 0.0
Cd25 Cd 0.25292 0.83755 0.81687 0.0
O26 O 0.25415 0.81675 0.82681 0.0
C27 C 0.2442 0.81002 0.81951 0.0
O28 O 0.23383 0.8159 0.8072 0.0
C29 C 0.24464 0.86706 0.81611 0.0
C30 C 0.26175 0.89397 0.70603 0.0
O31 O 0.25014 0.89783 0.71175 0.0
O32 O 0.26453 0.88217 0.71344 0.0
O33 O 0.37186 0.999 0.04589 0.0
Cd34 Cd 0.3706 0.99866 0.98045 0.0
O35 O 0.39294 0.99788 0.04064 0.0
Cd36 Cd 0.41304 0.99813 0.05922 0.0
O37 O 0.43382 0.9979 0.0699 0.0
C38 C 0.4405 0.98854 0.05779 0.0
O39 O 0.43462 0.97926 0.04001 0.0
C40 C 0.38295 0.99843 0.06056 0.0
C41 C 0.35268 0.01638 0.95356 0.0
O42 O 0.34934 0.00473 0.96102 0.0
O43 O 0.36449 0.01965 0.95898 0.0
O44 O 0.23974 0.88373 0.21663 0.0
Cd45 Cd 0.23937 0.88579 0.28194 0.0
O46 O 0.23709 0.86282 0.22228 0.0
Cd47 Cd 0.23416 0.84252 0.20694 0.0
O48 O 0.23437 0.82168 0.19673 0.0
C49 C 0.24521 0.81586 0.19691 0.0
O50 O 0.2558 0.82261 0.20259 0.0
C51 C 0.23866 0.87264 0.2021 0.0
C52 C 0.2181 0.89975 0.30733 0.0
O53 O 0.22867 0.90549 0.29886 0.0
O54 O 0.21756 0.88742 0.3035 0.0
O55 O 0.37587 0.99756 0.46276 0.0
Cd56 Cd 0.37562 0.99733 0.5283 0.0
O57 O 0.39698 0.99582 0.46487 0.0
Cd58 Cd 0.4168 0.9957 0.44398 0.0
O59 O 0.43753 0.99579 0.43238 0.0
C60 C 0.444 0.00603 0.43849 0.0
O61 O 0.43793 0.01631 0.4507 0.0
C62 C 0.38665 0.99674 0.44646 0.0
C63 C 0.3571 0.9804 0.55602 0.0
O64 O 0.35429 0.99225 0.54932 0.0
O65 O 0.36867 0.97655 0.54946 0.0
O66 O 0.245 0.12415 0.70621 0.0
Cd67 Cd 0.24298 0.1231 0.77144 0.0
O68 O 0.24853 0.14495 0.71126 0.0
Cd69 Cd 0.25324 0.16477 0.69496 0.0
O70 O 0.25438 0.18553 0.68438 0.0
C71 C 0.24418 0.19219 0.68913 0.0
O72 O 0.23355 0.18629 0.69953 0.0
C73 C 0.24728 0.135 0.6914 0.0
C74 C 0.26079 0.10597 0.80162 0.0
O75 O 0.24948 0.10214 0.79227 0.0
O76 O 0.26367 0.11791 0.79668 0.0
O77 O 0.13142 0.9958 0.98882 0.0
Cd78 Cd 0.13166 0.99901 0.05371 0.0
O79 O 0.11161 0.0034 0.98809 0.0
Cd80 Cd 0.09283 0.00706 0.96285 0.0
O81 O 0.07254 0.00788 0.94642 0.0
C82 C 0.06603 0.99744 0.94673 0.0
O83 O 0.07184 0.98662 0.95597 0.0
C84 C 0.1213 0.9988 0.97135 0.0
C85 C 0.15045 0.01678 0.07514 0.0
O86 O 0.15305 0.00467 0.07273 0.0
O87 O 0.13895 0.02048 0.06729 0.0
O88 O 0.76493 0.87069 0.69628 0.0
Cd89 Cd 0.76975 0.8613 0.75488 0.0
O90 O 0.74431 0.86539 0.69643 0.0
Cd91 Cd 0.74605 0.85374 0.74502 0.0
O92 O 0.74672 0.83549 0.77456 0.0
C93 C 0.75691 0.82863 0.77267 0.0
O94 O 0.76693 0.83312 0.75488 0.0
C95 C 0.75387 0.87091 0.68133 0.0
C96 C 0.78834 0.87633 0.78948 0.0
O97 O 0.79164 0.86726 0.76785 0.0
O98 O 0.77624 0.87814 0.79521 0.0
O99 O 0.88916 0.02374 0.42916 0.0
Cd100 Cd 0.89799 0.02596 0.48965 0.0
O101 O 0.88342 0.00344 0.43715 0.0
Cd102 Cd 0.89578 0.00184 0.48429 0.0
O103 O 0.91552 0.99834 0.50289 0.0
C104 C 0.92261 0.9922 0.4808 0.0
O105 O 0.91748 0.98832 0.45039 0.0
C106 C 0.88343 0.01362 0.41793 0.0
C107 C 0.88164 0.04172 0.53008 0.0
O108 O 0.8797 0.02949 0.52787 0.0
O109 O 0.89147 0.04647 0.5137 0.0
O110 O 0.73677 0.13472 0.19381 0.0
Cd111 Cd 0.73467 0.14225 0.25564 0.0
O112 O 0.75805 0.13385 0.19487 0.0
Cd113 Cd 0.75873 0.14462 0.24516 0.0
O114 O 0.75829 0.16355 0.27118 0.0
C115 C 0.75291 0.17232 0.25251 0.0
O116 O 0.74792 0.16913 0.22132 0.0
C117 C 0.74741 0.13181 0.17862 0.0
C118 C 0.71758 0.12602 0.29203 0.0
O119 O 0.71358 0.13646 0.27709 0.0
O120 O 0.7297 0.12342 0.29033 0.0
O121 O 0.6176 0.98685 0.95495 0.0
Cd122 Cd 0.60852 0.98146 0.01356 0.0
O123 O 0.61565 0.00795 0.96083 0.0
Cd124 Cd 0.60374 0.0057 0.00877 0.0
O125 O 0.58511 0.00286 0.03534 0.0
C126 C 0.57792 0.99392 0.02299 0.0
O127 O 0.58231 0.9867 0.99664 0.0
C128 C 0.61947 0.99821 0.94283 0.0
C129 C 0.62376 0.96273 0.04679 0.0
O130 O 0.61456 0.95952 0.02554 0.0
O131 O 0.62564 0.97481 0.0527 0.0
O132 O 0.76395 0.1328 0.78844 0.0
Cd133 Cd 0.76765 0.13999 0.72685 0.0
O134 O 0.74287 0.13092 0.78195 0.0
Cd135 Cd 0.74339 0.14164 0.73157 0.0
O136 O 0.74441 0.1608 0.70695 0.0
C137 C 0.75054 0.16913 0.72541 0.0
O138 O 0.75598 0.1654 0.75554 0.0
C139 C 0.75298 0.12947 0.80097 0.0
C140 C 0.7866 0.12467 0.69468 0.0
O141 O 0.78957 0.1354 0.7099 0.0
O142 O 0.77466 0.12129 0.69432 0.0
O143 O 0.6202 0.0161 0.55066 0.0
Cd144 Cd 0.61311 0.01767 0.48834 0.0
O145 O 0.6174 0.99502 0.55378 0.0
Cd146 Cd 0.60645 0.99463 0.50376 0.0
O147 O 0.58825 0.99547 0.47401 0.0
C148 C 0.5812 0.00542 0.4786 0.0
O149 O 0.58553 0.01484 0.49905 0.0
C150 C 0.62128 0.00553 0.56793 0.0
C151 C 0.62893 0.03508 0.45178 0.0
O152 O 0.63196 0.02308 0.45425 0.0
O153 O 0.61828 0.03881 0.46612 0.0
O154 O 0.7313 0.86298 0.30097 0.0
Cd155 Cd 0.72678 0.85301 0.2429 0.0
O156 O 0.75105 0.8694 0.28793 0.0
Cd157 Cd 0.75084 0.85758 0.23945 0.0
O158 O 0.75117 0.83815 0.21634 0.0
C159 C 0.74846 0.82925 0.23865 0.0
O160 O 0.74555 0.83254 0.27173 0.0
C161 C 0.74155 0.86906 0.30962 0.0
C162 C 0.70972 0.86883 0.20515 0.0
O163 O 0.70553 0.86012 0.2267 0.0
O164 O 0.722 0.86988 0.2009 0.0
O165 O 0.88439 0.99115 0.03185 0.0
Cd166 Cd 0.89425 0.98528 0.9746 0.0
O167 O 0.89077 0.01147 0.03116 0.0
Cd168 Cd 0.90286 0.00884 0.98369 0.0
O169 O 0.92154 0.00784 0.95639 0.0
C170 C 0.92818 0.99751 0.95864 0.0
O171 O 0.9232 0.98746 0.97529 0.0
C172 C 0.88457 0.00232 0.0462 0.0
C173 C 0.87902 0.9666 0.94103 0.0
O174 O 0.88778 0.96338 0.96367 0.0
O175 O 0.87762 0.97865 0.9338 0.0
O176 O 0.75632 0.62331 0.7963 0.0
Cd177 Cd 0.75763 0.62223 0.73093 0.0
O178 O 0.75236 0.64404 0.79153 0.0
Cd179 Cd 0.74761 0.6639 0.80747 0.0
O180 O 0.74644 0.68474 0.81679 0.0
C181 C 0.75684 0.69127 0.81441 0.0
O182 O 0.76771 0.68518 0.8072 0.0
C183 C 0.75404 0.63413 0.81131 0.0
C184 C 0.73909 0.60565 0.70179 0.0
O185 O 0.75033 0.60147 0.71059 0.0
O186 O 0.73661 0.61768 0.70686 0.0
O187 O 0.62637 0.49806 0.03988 0.0
Cd188 Cd 0.62744 0.49794 0.97441 0.0
O189 O 0.60524 0.49871 0.03565 0.0
Cd190 Cd 0.58527 0.49816 0.05533 0.0
O191 O 0.56457 0.49781 0.06734 0.0
C192 C 0.5579 0.508 0.06242 0.0
O193 O 0.56373 0.51853 0.05103 0.0
C194 C 0.61537 0.49851 0.05506 0.0
C195 C 0.64577 0.48048 0.94825 0.0
O196 O 0.64883 0.49226 0.9551 0.0
O197 O 0.63404 0.47696 0.9539 0.0
O198 O 0.74403 0.3763 0.29341 0.0
Cd199 Cd 0.74258 0.37769 0.22811 0.0
O200 O 0.75004 0.35612 0.28744 0.0
Cd201 Cd 0.75685 0.33675 0.30214 0.0
O202 O 0.76067 0.31602 0.30672 0.0
C203 C 0.75282 0.30877 0.32368 0.0
O204 O 0.74273 0.31403 0.33946 0.0
C205 C 0.74741 0.36566 0.30778 0.0
C206 C 0.76075 0.39481 0.19949 0.0
O207 O 0.74941 0.39869 0.20841 0.0
O208 O 0.7635 0.38282 0.20416 0.0
O209 O 0.87228 0.49862 0.54732 0.0
Cd210 Cd 0.87082 0.49856 0.48189 0.0
O211 O 0.8931 0.5021 0.54192 0.0
Cd212 Cd 0.91308 0.50367 0.561 0.0
O213 O 0.9339 0.50366 0.57116 0.0
C214 C 0.94025 0.49341 0.56432 0.0
O215 O 0.93401 0.48321 0.55225 0.0
C216 C 0.88326 0.5004 0.56187 0.0
C217 C 0.85297 0.51651 0.45585 0.0
O218 O 0.84955 0.50487 0.46322 0.0
O219 O 0.86483 0.51966 0.46098 0.0
O220 O 0.75747 0.37383 0.70925 0.0
Cd221 Cd 0.75812 0.37454 0.77473 0.0
O222 O 0.75156 0.35356 0.71286 0.0
Cd223 Cd 0.74514 0.33426 0.69616 0.0
O224 O 0.74169 0.31351 0.69015 0.0
C225 C 0.74906 0.30666 0.67051 0.0
O226 O 0.75848 0.31232 0.65275 0.0
C227 C 0.75436 0.36335 0.69362 0.0
C228 C 0.73986 0.39165 0.80293 0.0
O229 O 0.75134 0.39546 0.79526 0.0
O230 O 0.73701 0.37974 0.79721 0.0
O231 O 0.87371 0.50191 0.96211 0.0
Cd232 Cd 0.87248 0.50169 0.02756 0.0
O233 O 0.89434 0.49733 0.96673 0.0
Cd234 Cd 0.91418 0.49478 0.94735 0.0
O235 O 0.93505 0.49376 0.9384 0.0
C236 C 0.94076 0.50201 0.91863 0.0
O237 O 0.93385 0.51098 0.90257 0.0
C238 C 0.88453 0.49964 0.94714 0.0
C239 C 0.85425 0.48407 0.05334 0.0
O240 O 0.85112 0.49583 0.04664 0.0
O241 O 0.86601 0.48063 0.04769 0.0
O242 O 0.74415 0.6251 0.21307 0.0
Cd243 Cd 0.74349 0.62455 0.27858 0.0
O244 O 0.75034 0.64529 0.21662 0.0
Cd245 Cd 0.75695 0.66456 0.20013 0.0
O246 O 0.7601 0.6853 0.19297 0.0
C247 C 0.75125 0.69216 0.17879 0.0
O248 O 0.74062 0.68646 0.16756 0.0
C249 C 0.7474 0.63554 0.19739 0.0
C250 C 0.76135 0.60715 0.30729 0.0
O251 O 0.74978 0.60357 0.29967 0.0
O252 O 0.76447 0.61896 0.30123 0.0
O253 O 0.62489 0.5022 0.45699 0.0
Cd254 Cd 0.6252 0.50272 0.52253 0.0
O255 O 0.60378 0.50369 0.45964 0.0
Cd256 Cd 0.58391 0.50347 0.43917 0.0
O257 O 0.5632 0.50315 0.42738 0.0
C258 C 0.55658 0.49343 0.4374 0.0
O259 O 0.56248 0.48382 0.45371 0.0
C260 C 0.61405 0.50282 0.44097 0.0
C261 C 0.64382 0.51965 0.54973 0.0
O262 O 0.64653 0.50773 0.54363 0.0
O263 O 0.63231 0.52356 0.5428 0.0
O264 O 0.26665 0.36402 0.20395 0.0
Cd265 Cd 0.26778 0.35621 0.26569 0.0
O266 O 0.24571 0.36783 0.20513 0.0
Cd267 Cd 0.24375 0.35681 0.25473 0.0
O268 O 0.24342 0.33758 0.27901 0.0
C269 C 0.24757 0.32873 0.25831 0.0
O270 O 0.25174 0.332 0.22626 0.0
C271 C 0.25653 0.36846 0.18892 0.0
C272 C 0.28421 0.37256 0.30385 0.0
O273 O 0.2885 0.36216 0.28932 0.0
O274 O 0.27209 0.37503 0.30107 0.0
O275 O 0.3812 0.51345 0.9553 0.0
Cd276 Cd 0.38783 0.5154 0.01791 0.0
O277 O 0.38506 0.49255 0.95198 0.0
Cd278 Cd 0.39572 0.49263 0.00248 0.0
O279 O 0.41388 0.49401 0.03221 0.0
C280 C 0.42053 0.50427 0.02826 0.0
O281 O 0.4158 0.5137 0.00856 0.0
C282 C 0.38075 0.50289 0.93782 0.0
C283 C 0.37226 0.53373 0.05174 0.0
O284 O 0.36886 0.52181 0.05013 0.0
O285 O 0.38315 0.53695 0.0379 0.0
O286 O 0.2396 0.63347 0.70387 0.0
Cd287 Cd 0.23441 0.64198 0.76325 0.0
O288 O 0.26068 0.63582 0.70893 0.0
Cd289 Cd 0.25869 0.64714 0.75804 0.0
O290 O 0.2569 0.66551 0.78667 0.0
C291 C 0.24745 0.6728 0.77832 0.0
O292 O 0.23901 0.66865 0.75462 0.0
C293 C 0.25092 0.63198 0.69109 0.0
C294 C 0.21554 0.62675 0.79593 0.0
O295 O 0.21242 0.63603 0.77482 0.0
O296 O 0.2276 0.62476 0.80189 0.0
O297 O 0.11826 0.48427 0.44537 0.0
Cd298 Cd 0.10893 0.48015 0.50447 0.0
O299 O 0.11427 0.50519 0.44543 0.0
Cd300 Cd 0.10264 0.50397 0.4942 0.0
O301 O 0.08446 0.50281 0.52396 0.0
C302 C 0.07728 0.493 0.51861 0.0
O303 O 0.08143 0.48379 0.49719 0.0
C304 C 0.11912 0.49528 0.43027 0.0
C305 C 0.1245 0.46278 0.54195 0.0
O306 O 0.11566 0.45877 0.52056 0.0
O307 O 0.12585 0.47504 0.54604 0.0
O308 O 0.26802 0.63863 0.29907 0.0
Cd309 Cd 0.26955 0.64608 0.23709 0.0
O310 O 0.24687 0.64078 0.30217 0.0
Cd311 Cd 0.24611 0.65226 0.25306 0.0
O312 O 0.24495 0.67079 0.22497 0.0
C313 C 0.25472 0.67826 0.2259 0.0
O314 O 0.26536 0.6742 0.24162 0.0
C315 C 0.25748 0.63708 0.31613 0.0
C316 C 0.28587 0.62926 0.20003 0.0
O317 O 0.29028 0.63965 0.21436 0.0
O318 O 0.2737 0.62702 0.2025 0.0
O319 O 0.11421 0.51914 0.04771 0.0
Cd320 Cd 0.10482 0.52456 0.98952 0.0
O321 O 0.116 0.49823 0.03773 0.0
Cd322 Cd 0.10429 0.49981 0.98922 0.0
O323 O 0.08578 0.50109 0.96111 0.0
C324 C 0.07707 0.50777 0.9765 0.0
O325 O 0.07992 0.51367 0.00671 0.0
C326 C 0.11794 0.50799 0.05783 0.0
C327 C 0.12107 0.54176 0.95374 0.0
O328 O 0.11247 0.54584 0.97579 0.0
O329 O 0.12184 0.52954 0.94814 0.0
O330 O 0.23951 0.36977 0.80096 0.0
Cd331 Cd 0.23392 0.36086 0.74235 0.0
O332 O 0.26045 0.36638 0.79579 0.0
Cd333 Cd 0.25805 0.35496 0.747 0.0
O334 O 0.25638 0.33662 0.71814 0.0
C335 C 0.24658 0.32955 0.72458 0.0
O336 O 0.23762 0.33388 0.74655 0.0
C337 C 0.25091 0.37082 0.81351 0.0
C338 C 0.2156 0.3764 0.70845 0.0
O339 O 0.21215 0.3675 0.73044 0.0
O340 O 0.22772 0.37786 0.70224 0.0
O341 O 0.38201 0.48821 0.54542 0.0
Cd342 Cd 0.38847 0.48489 0.48308 0.0
O343 O 0.38299 0.50945 0.54238 0.0
Cd344 Cd 0.39376 0.50859 0.49208 0.0
O345 O 0.41212 0.50644 0.46361 0.0
C346 C 0.41932 0.4971 0.47339 0.0
O347 O 0.41505 0.48913 0.49819 0.0
C348 C 0.38015 0.49924 0.55973 0.0
C349 C 0.37228 0.4666 0.45142 0.0
O350 O 0.36928 0.47865 0.45171 0.0
O351 O 0.38306 0.46323 0.46566 0.0
C352 C 0.25824 0.12509 0.36608 0.0
C353 C 0.25878 0.13665 0.3462 0.0
C354 C 0.25738 0.12539 0.40344 0.0
C355 C 0.24635 0.14507 0.47813 0.0
H356 H 0.26967 0.12408 0.53519 0.0
C357 C 0.24618 0.14721 0.63308 0.0
C358 C 0.24874 0.13572 0.65194 0.0
C359 C 0.24775 0.14775 0.59587 0.0
C360 C 0.26294 0.12985 0.51973 0.0
H361 H 0.25978 0.15757 0.35055 0.0
H362 H 0.25755 0.15809 0.41565 0.0
H363 H 0.27168 0.12412 0.47009 0.0
H364 H 0.25432 0.11559 0.64626 0.0
H365 H 0.25651 0.11633 0.58142 0.0
H366 H 0.23725 0.15047 0.52738 0.0
C367 C 0.2576 0.14882 0.40205 0.0
C368 C 0.26416 0.12992 0.48244 0.0
C369 C 0.25868 0.14852 0.36466 0.0
C370 C 0.25245 0.12465 0.6326 0.0
C371 C 0.25384 0.12512 0.59537 0.0
C372 C 0.24498 0.14485 0.51543 0.0
C373 C 0.25695 0.13725 0.42174 0.0
C374 C 0.25586 0.1375 0.46131 0.0
C375 C 0.25163 0.13671 0.57648 0.0
C376 C 0.25323 0.1372 0.53676 0.0
H377 H 0.25837 0.11577 0.35275 0.0
H378 H 0.25685 0.11633 0.41801 0.0
H379 H 0.23976 0.1509 0.46235 0.0
H380 H 0.24266 0.15572 0.64676 0.0
H381 H 0.24597 0.15686 0.58239 0.0
C382 C 0.11152 0.96908 0.65395 0.0
C383 C 0.10726 0.97941 0.63251 0.0
C384 C 0.11492 0.97114 0.68978 0.0
C385 C 0.12132 0.99725 0.75731 0.0
H386 H 0.11108 0.97049 0.82456 0.0
C387 C 0.11454 0.00548 0.90975 0.0
C388 C 0.12074 0.99655 0.93235 0.0
C389 C 0.11413 0.00339 0.87275 0.0
C390 C 0.11409 0.97799 0.80602 0.0
H391 H 0.10349 6e-05 0.63152 0.0
H392 H 0.10885 0.00359 0.69415 0.0
H393 H 0.10836 0.96686 0.76052 0.0
H394 H 0.13149 0.97855 0.93424 0.0
H395 H 0.13045 0.9747 0.86944 0.0
H396 H 0.12643 0.00857 0.80341 0.0
C397 C 0.10998 0.99394 0.68329 0.0
C398 C 0.11262 0.9759 0.76925 0.0
C399 C 0.10683 0.99191 0.6473 0.0
C400 C 0.12661 0.98555 0.91734 0.0
C401 C 0.12598 0.98333 0.8804 0.0
C402 C 0.12256 0.99941 0.79415 0.0
C403 C 0.11388 0.98355 0.70522 0.0
C404 C 0.11615 0.98553 0.74433 0.0
C405 C 0.11976 0.99225 0.85781 0.0
C406 C 0.1189 0.98982 0.81879 0.0
H407 H 0.11208 0.95935 0.64318 0.0
H408 H 0.11819 0.96295 0.70546 0.0
H409 H 0.1244 0.0048 0.73906 0.0
H410 H 0.1102 0.01419 0.92061 0.0
H411 H 0.10925 0.01039 0.85585 0.0
C412 C 0.24238 0.85558 0.87549 0.0
C413 C 0.24402 0.86709 0.85585 0.0
C414 C 0.24185 0.85583 0.91296 0.0
C415 C 0.23262 0.87593 0.98811 0.0
H416 H 0.25663 0.85553 0.04459 0.0
C417 C 0.23623 0.88237 0.14114 0.0
C418 C 0.23907 0.87152 0.16248 0.0
C419 C 0.23676 0.88159 0.10378 0.0
C420 C 0.24967 0.86111 0.02937 0.0
H421 H 0.24583 0.88797 0.86034 0.0
H422 H 0.24445 0.88841 0.92569 0.0
H423 H 0.25738 0.85435 0.9793 0.0
H424 H 0.2456 0.85158 0.1609 0.0
H425 H 0.2455 0.84986 0.0961 0.0
H426 H 0.22455 0.88238 0.03767 0.0
C427 C 0.24388 0.87918 0.91196 0.0
C428 C 0.25018 0.86048 0.99195 0.0
C429 C 0.24467 0.8789 0.87458 0.0
C430 C 0.24267 0.85993 0.14552 0.0
C431 C 0.24298 0.85906 0.10811 0.0
C432 C 0.23192 0.87637 0.02549 0.0
C433 C 0.24255 0.86764 0.93147 0.0
C434 C 0.24175 0.86798 0.97104 0.0
C435 C 0.24004 0.86989 0.08666 0.0
C436 C 0.24053 0.86907 0.04672 0.0
H437 H 0.24111 0.8464 0.86217 0.0
H438 H 0.24057 0.84683 0.92747 0.0
H439 H 0.22592 0.88169 0.97248 0.0
H440 H 0.2336 0.89152 0.15332 0.0
H441 H 0.23477 0.89025 0.08841 0.0
C442 C 0.37484 0.00527 0.12072 0.0
C443 C 0.38406 0.99862 0.10005 0.0
C444 C 0.37568 0.00533 0.15811 0.0
C445 C 0.38941 0.98705 0.23401 0.0
H446 H 0.38247 0.01859 0.28712 0.0
C447 C 0.39657 0.99055 0.38747 0.0
C448 C 0.38701 0.99722 0.40686 0.0
C449 C 0.39669 0.99091 0.34999 0.0
C450 C 0.38432 0.00967 0.2727 0.0
H451 H 0.40097 0.98623 0.10243 0.0
H452 H 0.40269 0.98664 0.16763 0.0
H453 H 0.38182 0.01889 0.22177 0.0
H454 H 0.3699 0.00926 0.40228 0.0
H455 H 0.37 0.00979 0.33689 0.0
H456 H 0.39182 0.97781 0.28494 0.0
C457 C 0.39485 0.99188 0.15494 0.0
C458 C 0.38395 0.00985 0.23525 0.0
C459 C 0.39402 0.99185 0.11753 0.0
C460 C 0.37746 0.00411 0.38803 0.0
C461 C 0.37758 0.0045 0.35059 0.0
C462 C 0.38978 0.98688 0.27147 0.0
C463 C 0.38569 0.99863 0.17567 0.0
C464 C 0.38643 0.99852 0.21547 0.0
C465 C 0.3872 0.99791 0.33111 0.0
C466 C 0.38717 0.99817 0.29126 0.0
H467 H 0.36699 0.01048 0.10795 0.0
H468 H 0.36834 0.01045 0.17329 0.0
H469 H 0.39119 0.97812 0.2196 0.0
H470 H 0.40376 0.98476 0.40113 0.0
H471 H 0.40424 0.98575 0.33581 0.0
C472 C 0.75446 0.88012 0.35776 0.0
C473 C 0.74268 0.8748 0.34587 0.0
C474 C 0.75594 0.884 0.39345 0.0
C475 C 0.73791 0.89036 0.47832 0.0
H476 H 0.76871 0.87622 0.52293 0.0
C477 C 0.74054 0.87558 0.6267 0.0
C478 C 0.75242 0.87649 0.64495 0.0
C479 C 0.73964 0.8791 0.59063 0.0
C480 C 0.76018 0.88051 0.51093 0.0
H481 H 0.72299 0.87015 0.36167 0.0
H482 H 0.72563 0.87673 0.42374 0.0
H483 H 0.76667 0.87583 0.45811 0.0
H484 H 0.77243 0.88269 0.64025 0.0
H485 H 0.77079 0.88894 0.57738 0.0
H486 H 0.73123 0.89454 0.53148 0.0
C487 C 0.7337 0.87802 0.40555 0.0
C488 C 0.75901 0.88029 0.47366 0.0
C489 C 0.73222 0.87413 0.36994 0.0
C490 C 0.76316 0.88175 0.62692 0.0
C491 C 0.76225 0.88528 0.59083 0.0
C492 C 0.73908 0.89057 0.51567 0.0
C493 C 0.74567 0.88268 0.41797 0.0
C494 C 0.74771 0.88488 0.45695 0.0
C495 C 0.75057 0.88364 0.57199 0.0
C496 C 0.75009 0.88532 0.53244 0.0
H497 H 0.76269 0.88086 0.33985 0.0
H498 H 0.76523 0.88773 0.40208 0.0
H499 H 0.72917 0.89417 0.46623 0.0
H500 H 0.73206 0.87161 0.63979 0.0
H501 H 0.73052 0.8776 0.57689 0.0
C502 C 0.87236 0.99406 0.09961 0.0
C503 C 0.87866 0.00431 0.08198 0.0
C504 C 0.86851 0.99532 0.13537 0.0
C505 C 0.86444 0.01887 0.21029 0.0
H506 H 0.8763 0.9901 0.26841 0.0
C507 C 0.87946 0.02389 0.35811 0.0
C508 C 0.87785 0.0133 0.38137 0.0
C509 C 0.87587 0.02295 0.3221 0.0
C510 C 0.87263 0.99812 0.2527 0.0
H511 H 0.88508 0.02423 0.08741 0.0
H512 H 0.87855 0.02635 0.14981 0.0
H513 H 0.87643 0.98818 0.20362 0.0
H514 H 0.87032 0.99374 0.38562 0.0
H515 H 0.86391 0.99217 0.32289 0.0
H516 H 0.86111 0.02896 0.25964 0.0
C517 C 0.87647 0.01737 0.13598 0.0
C518 C 0.87271 0.99702 0.21542 0.0
C519 C 0.8803 0.01612 0.10021 0.0
C520 C 0.87183 0.00204 0.36834 0.0
C521 C 0.8682 0.00111 0.33234 0.0
C522 C 0.86435 0.01997 0.24767 0.0
C523 C 0.8709 0.00685 0.1543 0.0
C524 C 0.86892 0.00748 0.19373 0.0
C525 C 0.87055 0.01141 0.30855 0.0
C526 C 0.86876 0.00971 0.26928 0.0
H527 H 0.87082 0.98487 0.08626 0.0
H528 H 0.86403 0.98712 0.14855 0.0
H529 H 0.86128 0.02704 0.19432 0.0
H530 H 0.88402 0.03274 0.36728 0.0
H531 H 0.87793 0.03104 0.3045 0.0
C532 C 0.76294 0.12422 0.86048 0.0
C533 C 0.75189 0.12495 0.83855 0.0
C534 C 0.76176 0.12155 0.89706 0.0
C535 C 0.73832 0.12544 0.96981 0.0
H536 H 0.76376 0.10644 0.02527 0.0
C537 C 0.7357 0.12443 0.12346 0.0
C538 C 0.74743 0.12698 0.14123 0.0
C539 C 0.7356 0.1213 0.08702 0.0
C540 C 0.75659 0.1118 0.01015 0.0
H541 H 0.73101 0.12264 0.8375 0.0
H542 H 0.72899 0.11787 0.90129 0.0
H543 H 0.76472 0.10595 0.95981 0.0
H544 H 0.76831 0.12761 0.13499 0.0
H545 H 0.76813 0.12239 0.07136 0.0
H546 H 0.73044 0.13168 0.01985 0.0
C547 C 0.73854 0.11959 0.89026 0.0
C548 C 0.75714 0.11151 0.97268 0.0
C549 C 0.73971 0.12226 0.85366 0.0
C550 C 0.7591 0.12572 0.12213 0.0
C551 C 0.759 0.12264 0.08564 0.0
C552 C 0.73778 0.12575 0.00718 0.0
C553 C 0.74952 0.11953 0.91254 0.0
C554 C 0.74814 0.11852 0.9521 0.0
C555 C 0.74723 0.1207 0.06746 0.0
C556 C 0.74705 0.11913 0.02783 0.0
H557 H 0.77248 0.1262 0.84972 0.0
H558 H 0.77041 0.12169 0.91349 0.0
H559 H 0.73137 0.13114 0.95483 0.0
H560 H 0.72653 0.12518 0.13746 0.0
H561 H 0.72639 0.11962 0.07398 0.0
C562 C 0.62891 0.01738 0.62266 0.0
C563 C 0.62611 0.00562 0.60533 0.0
C564 C 0.63195 0.0176 0.65916 0.0
C565 C 0.6412 0.99707 0.73672 0.0
H566 H 0.62037 0.02144 0.79085 0.0
C567 C 0.62718 0.98922 0.88426 0.0
C568 C 0.62496 -1e-05 0.90646 0.0
C569 C 0.63057 0.99089 0.84832 0.0
C570 C 0.62652 0.01476 0.77629 0.0
H571 H 0.62504 0.98478 0.61234 0.0
H572 H 0.63027 0.98518 0.676 0.0
H573 H 0.62059 0.02257 0.72585 0.0
H574 H 0.62549 0.02098 0.90895 0.0
H575 H 0.63168 0.02389 0.84636 0.0
H576 H 0.64686 0.98905 0.78729 0.0
C577 C 0.63018 0.99423 0.66134 0.0
C578 C 0.62662 0.0154 0.73892 0.0
C579 C 0.62709 0.99402 0.62487 0.0
C580 C 0.62699 0.01247 0.89248 0.0
C581 C 0.63047 0.01414 0.85653 0.0
C582 C 0.64115 0.99647 0.77419 0.0
C583 C 0.63232 0.00605 0.67908 0.0
C584 C 0.6337 0.00637 0.71869 0.0
C585 C 0.63192 0.00337 0.83375 0.0
C586 C 0.63355 0.00511 0.7944 0.0
H587 H 0.62833 0.02649 0.60835 0.0
H588 H 0.63372 0.02684 0.672 0.0
H589 H 0.64689 0.99009 0.72183 0.0
H590 H 0.62573 0.97946 0.89416 0.0
H591 H 0.63147 0.98237 0.83156 0.0
C592 C 0.74905 0.62438 0.13812 0.0
C593 C 0.74789 0.63597 0.15768 0.0
C594 C 0.7494 0.62455 0.10068 0.0
C595 C 0.75796 0.64452 0.02425 0.0
H596 H 0.73492 0.62214 0.97045 0.0
C597 C 0.75547 0.64644 0.86947 0.0
C598 C 0.75314 0.63484 0.85093 0.0
C599 C 0.75449 0.64693 0.90685 0.0
C600 C 0.74158 0.6283 0.98496 0.0
H601 H 0.74525 0.65673 0.15273 0.0
H602 H 0.74663 0.65709 0.08748 0.0
H603 H 0.73403 0.62218 0.03574 0.0
H604 H 0.74859 0.61447 0.85732 0.0
H605 H 0.74748 0.61514 0.92234 0.0
H606 H 0.76591 0.65032 0.97385 0.0
C607 C 0.74745 0.64791 0.10137 0.0
C608 C 0.74099 0.62837 0.02237 0.0
C609 C 0.74687 0.64772 0.13883 0.0
C610 C 0.75026 0.62362 0.87073 0.0
C611 C 0.74948 0.62405 0.90809 0.0
C612 C 0.75872 0.6443 0.98682 0.0
C613 C 0.7487 0.63632 0.08199 0.0
C614 C 0.74918 0.63646 0.04234 0.0
C615 C 0.75147 0.63574 0.92671 0.0
C616 C 0.75055 0.63617 0.96662 0.0
H617 H 0.74977 0.61515 0.15175 0.0
H618 H 0.7504 0.61549 0.08632 0.0
H619 H 0.76445 0.65077 0.03912 0.0
H620 H 0.75837 0.6551 0.85541 0.0
H621 H 0.75606 0.65613 0.92008 0.0
C622 C 0.60455 0.50529 0.11226 0.0
C623 C 0.61451 0.49858 0.09461 0.0
C624 C 0.60398 0.50553 0.14971 0.0
C625 C 0.61576 0.48839 0.23038 0.0
H626 H 0.60779 0.52069 0.27865 0.0
C627 C 0.62309 0.49526 0.3825 0.0
C628 C 0.61356 0.50216 0.4014 0.0
C629 C 0.62278 0.49464 0.34509 0.0
C630 C 0.60986 0.51155 0.2656 0.0
H631 H 0.63186 0.4871 0.1022 0.0
H632 H 0.63096 0.4876 0.16759 0.0
H633 H 0.60794 0.51988 0.21332 0.0
H634 H 0.59666 0.51443 0.39579 0.0
H635 H 0.59585 0.51303 0.33057 0.0
H636 H 0.61773 0.48007 0.28263 0.0
C637 C 0.62342 0.49246 0.15255 0.0
C638 C 0.60995 0.51109 0.22814 0.0
C639 C 0.624 0.49226 0.11512 0.0
C640 C 0.60384 0.50863 0.38211 0.0
C641 C 0.60353 0.50803 0.34466 0.0
C642 C 0.61565 0.48885 0.26782 0.0
C643 C 0.61341 0.49911 0.17029 0.0
C644 C 0.61297 0.49952 0.2101 0.0
C645 C 0.61299 0.501 0.32571 0.0
C646 C 0.61277 0.50045 0.28588 0.0
H647 H 0.59738 0.51066 0.09724 0.0
H648 H 0.59614 0.51073 0.16255 0.0
H649 H 0.61792 0.47928 0.2173 0.0
H650 H 0.63076 0.49027 0.39667 0.0
H651 H 0.63034 0.48934 0.33132 0.0
C652 C 0.7523 0.37445 0.63442 0.0
C653 C 0.75384 0.3629 0.65393 0.0
C654 C 0.75197 0.37429 0.59699 0.0
C655 C 0.74452 0.35385 0.52019 0.0
H656 H 0.76595 0.37798 0.46704 0.0
C657 C 0.74724 0.35286 0.36525 0.0
C658 C 0.74846 0.36476 0.34732 0.0
C659 C 0.7483 0.35222 0.4026 0.0
C660 C 0.75975 0.3713 0.48138 0.0
H661 H 0.75709 0.34223 0.64898 0.0
H662 H 0.75583 0.34186 0.58369 0.0
H663 H 0.76686 0.37774 0.5323 0.0
H664 H 0.75119 0.38541 0.35473 0.0
H665 H 0.7525 0.38439 0.4197 0.0
H666 H 0.73704 0.34767 0.46956 0.0
C667 C 0.75469 0.351 0.59759 0.0
C668 C 0.76034 0.37113 0.51879 0.0
C669 C 0.75521 0.3512 0.63507 0.0
C670 C 0.75036 0.37605 0.36767 0.0
C671 C 0.75126 0.37544 0.40498 0.0
C672 C 0.74378 0.35413 0.48275 0.0
C673 C 0.75309 0.36256 0.57823 0.0
C674 C 0.7527 0.36244 0.53854 0.0
C675 C 0.75034 0.3635 0.42299 0.0
C676 C 0.75134 0.36291 0.46283 0.0
H677 H 0.75128 0.38365 0.64809 0.0
H678 H 0.75067 0.38333 0.5827 0.0
H679 H 0.73845 0.34713 0.53485 0.0
H680 H 0.74514 0.34407 0.35072 0.0
H681 H 0.74756 0.34284 0.4154 0.0
C682 C 0.89338 0.50818 0.61897 0.0
C683 C 0.88447 0.50014 0.60131 0.0
C684 C 0.89425 0.50811 0.65638 0.0
C685 C 0.88684 0.48834 0.73591 0.0
H686 H 0.88776 0.52108 0.78683 0.0
C687 C 0.89408 0.49165 0.88946 0.0
C688 C 0.8856 0.5 0.90767 0.0
C689 C 0.89472 0.49176 0.85201 0.0
C690 C 0.8875 0.51187 0.77296 0.0
H691 H 0.86938 0.48582 0.60879 0.0
H692 H 0.87091 0.48563 0.67418 0.0
H693 H 0.88737 0.52094 0.72132 0.0
H694 H 0.87107 0.51495 0.90112 0.0
H695 H 0.87221 0.5152 0.83568 0.0
H696 H 0.8868 0.47927 0.78755 0.0
C697 C 0.87733 0.49189 0.65911 0.0
C698 C 0.88739 0.51178 0.73548 0.0
C699 C 0.87639 0.49206 0.62174 0.0
C700 C 0.87775 0.50846 0.88775 0.0
C701 C 0.87847 0.50866 0.85035 0.0
C702 C 0.88708 0.48842 0.77337 0.0
C703 C 0.88624 0.49995 0.67684 0.0
C704 C 0.88694 0.50002 0.71657 0.0
C705 C 0.88691 0.50027 0.83206 0.0
C706 C 0.88728 0.50019 0.79229 0.0
H707 H 0.89946 0.51479 0.60398 0.0
H708 H 0.9012 0.51442 0.66932 0.0
H709 H 0.8866 0.47912 0.72203 0.0
H710 H 0.89996 0.48476 0.90404 0.0
H711 H 0.90132 0.48519 0.83864 0.0
C712 C 0.26542 0.37671 0.86489 0.0
C713 C 0.25291 0.37596 0.85018 0.0
C714 C 0.26714 0.37963 0.90116 0.0
C715 C 0.25023 0.39102 0.98377 0.0
H716 H 0.27341 0.36685 0.03069 0.0
C717 C 0.24591 0.37654 0.13273 0.0
C718 C 0.25725 0.3735 0.15179 0.0
C719 C 0.24652 0.37982 0.0964 0.0
C720 C 0.26709 0.37387 0.01809 0.0
H721 H 0.23246 0.37854 0.86154 0.0
H722 H 0.23545 0.3834 0.92478 0.0
H723 H 0.27257 0.36758 0.96574 0.0
H724 H 0.27819 0.37234 0.14819 0.0
H725 H 0.27924 0.3782 0.08501 0.0
H726 H 0.24443 0.39696 0.03646 0.0
C727 C 0.24395 0.38186 0.9083 0.0
C728 C 0.26662 0.3743 0.98074 0.0
C729 C 0.24223 0.37899 0.87201 0.0
C730 C 0.26926 0.37448 0.13421 0.0
C731 C 0.26986 0.37779 0.09795 0.0
C732 C 0.25069 0.39058 0.02124 0.0
C733 C 0.2564 0.38182 0.92355 0.0
C734 C 0.25801 0.38269 0.96309 0.0
C735 C 0.25848 0.38016 0.07838 0.0
C736 C 0.25896 0.38182 0.03882 0.0
H737 H 0.27387 0.37457 0.84874 0.0
H738 H 0.27688 0.37977 0.91193 0.0
H739 H 0.24361 0.39772 0.97099 0.0
H740 H 0.2365 0.3759 0.14547 0.0
H741 H 0.23755 0.38147 0.08207 0.0
C742 C 0.37262 0.51447 0.88323 0.0
C743 C 0.37613 0.50283 0.90023 0.0
C744 C 0.36972 0.51466 0.84666 0.0
C745 C 0.36193 0.49399 0.76826 0.0
H746 H 0.38076 0.52022 0.71521 0.0
C747 C 0.37466 0.48893 0.61858 0.0
C748 C 0.37564 0.50013 0.59734 0.0
C749 C 0.37189 0.48986 0.65514 0.0
C750 C 0.37518 0.51299 0.7295 0.0
H751 H 0.37862 0.48215 0.8925 0.0
H752 H 0.37362 0.48252 0.82867 0.0
H753 H 0.38079 0.52074 0.78029 0.0
H754 H 0.37368 0.52105 0.59743 0.0
H755 H 0.36859 0.52265 0.66111 0.0
H756 H 0.35655 0.48608 0.71732 0.0
C757 C 0.37306 0.49148 0.84367 0.0
C758 C 0.37523 0.51328 0.7669 0.0
C759 C 0.37602 0.49129 0.88023 0.0
C760 C 0.37313 0.51224 0.61311 0.0
C761 C 0.37028 0.51316 0.64966 0.0
C762 C 0.36183 0.49373 0.73076 0.0
C763 C 0.37019 0.50322 0.82631 0.0
C764 C 0.36882 0.50365 0.78671 0.0
C765 C 0.36995 0.50201 0.67131 0.0
C766 C 0.36868 0.50308 0.71094 0.0
H767 H 0.37252 0.52352 0.89789 0.0
H768 H 0.36736 0.52382 0.83411 0.0
H769 H 0.35676 0.48652 0.78282 0.0
H770 H 0.37653 0.47945 0.6073 0.0
H771 H 0.37186 0.48108 0.67101 0.0
C772 C 0.24178 0.62511 0.63191 0.0
C773 C 0.25261 0.62703 0.65411 0.0
C774 C 0.24337 0.6224 0.59549 0.0
C775 C 0.267 0.62817 0.52375 0.0
H776 H 0.2424 0.60876 0.46652 0.0
C777 C 0.26946 0.62883 0.36994 0.0
C778 C 0.25765 0.63176 0.35303 0.0
C779 C 0.26973 0.62516 0.40599 0.0
C780 C 0.24935 0.6142 0.48218 0.0
H781 H 0.2736 0.62659 0.65602 0.0
H782 H 0.27636 0.62159 0.59259 0.0
H783 H 0.24148 0.60742 0.53189 0.0
H784 H 0.23681 0.63246 0.36026 0.0
H785 H 0.2373 0.62615 0.42318 0.0
H786 H 0.27466 0.63521 0.47423 0.0
C787 C 0.26664 0.62253 0.60316 0.0
C788 C 0.24883 0.61345 0.5196 0.0
C789 C 0.26505 0.62532 0.63957 0.0
C790 C 0.24607 0.63033 0.37249 0.0
C791 C 0.24635 0.62662 0.40851 0.0
C792 C 0.26757 0.62886 0.48642 0.0
C793 C 0.25582 0.62145 0.58044 0.0
C794 C 0.25745 0.62068 0.54085 0.0
C795 C 0.2582 0.62429 0.42588 0.0
C796 C 0.25856 0.62213 0.46522 0.0
H797 H 0.23205 0.62632 0.64223 0.0
H798 H 0.23481 0.62176 0.57882 0.0
H799 H 0.27366 0.63406 0.53915 0.0
H800 H 0.27855 0.62974 0.35567 0.0
H801 H 0.27899 0.62326 0.41853 0.0
C802 C 0.12468 0.50826 0.37558 0.0
C803 C 0.12464 0.49633 0.39371 0.0
C804 C 0.12812 0.50891 0.33939 0.0
C805 C 0.12721 0.48852 0.25958 0.0
H806 H 0.14411 0.51783 0.21453 0.0
C807 C 0.12718 0.49395 0.10645 0.0
C808 C 0.12352 0.50628 0.09412 0.0
C809 C 0.13087 0.49212 0.14218 0.0
C810 C 0.13936 0.50958 0.22671 0.0
H811 H 0.12908 0.47586 0.38864 0.0
H812 H 0.13514 0.47704 0.32554 0.0
H813 H 0.1443 0.5158 0.2798 0.0
H814 H 0.12157 0.52649 0.10918 0.0
H815 H 0.12771 0.52327 0.17137 0.0
H816 H 0.12175 0.48256 0.20691 0.0
C817 C 0.13231 0.48585 0.33921 0.0
C818 C 0.13949 0.50842 0.26407 0.0
C819 C 0.12888 0.48519 0.37541 0.0
C820 C 0.12429 0.51684 0.11778 0.0
C821 C 0.12792 0.51501 0.15348 0.0
C822 C 0.12704 0.4897 0.22231 0.0
C823 C 0.1316 0.49765 0.32053 0.0
C824 C 0.13315 0.49803 0.28095 0.0
C825 C 0.13092 0.50258 0.16637 0.0
C826 C 0.13283 0.50041 0.20544 0.0
H827 H 0.12151 0.51703 0.38888 0.0
H828 H 0.12737 0.51814 0.32574 0.0
H829 H 0.12207 0.48049 0.27172 0.0
H830 H 0.12682 0.48561 0.08885 0.0
H831 H 0.13334 0.48245 0.15109 0.0
C832 C 0.23989 0.08499 0.18154 0.0
C833 C 0.23686 0.09817 0.18562 0.0
C834 C 0.23059 0.07626 0.16901 0.0
C835 C 0.19976 0.07449 0.11908 0.0
H836 H 0.19683 0.04084 0.16457 0.0
C837 C 0.15741 0.03941 0.09 0.0
C838 C 0.1604 0.02618 0.08689 0.0
C839 C 0.16677 0.04825 0.10154 0.0
C840 C 0.19762 0.05014 0.15129 0.0
H841 H 0.2217 0.11255 0.17957 0.0
H842 H 0.20545 0.09729 0.15795 0.0
H843 H 0.21311 0.05616 0.18555 0.0
H844 H 0.17562 0.01187 0.09316 0.0
H845 H 0.19197 0.02731 0.11294 0.0
H846 H 0.18426 0.06846 0.08483 0.0
C847 C 0.21506 0.09372 0.16409 0.0
C848 C 0.20695 0.05892 0.16332 0.0
C849 C 0.22435 0.10245 0.17667 0.0
C850 C 0.17298 0.02199 0.09539 0.0
C851 C 0.18234 0.03083 0.10693 0.0
C852 C 0.19043 0.0657 0.10703 0.0
C853 C 0.21806 0.08052 0.16023 0.0
C854 C 0.20814 0.07119 0.14735 0.0
C855 C 0.17934 0.04406 0.11024 0.0
C856 C 0.18926 0.05342 0.12298 0.0
H857 H 0.24945 0.08138 0.18809 0.0
H858 H 0.23327 0.06618 0.16588 0.0
H859 H 0.20054 0.08379 0.10587 0.0
H860 H 0.1478 0.04295 0.08374 0.0
H861 H 0.1641 0.05835 0.1042 0.0
C862 C 0.20755 0.92064 0.32535 0.0
C863 C 0.20694 0.9071 0.3218 0.0
C864 C 0.19715 0.92752 0.34 0.0
C865 C 0.1688 0.92336 0.39884 0.0
H866 H 0.15776 0.95612 0.35828 0.0
C867 C 0.12309 0.9497 0.44929 0.0
C868 C 0.12381 0.96321 0.45326 0.0
C869 C 0.13297 0.9429 0.43193 0.0
C870 C 0.16081 0.94705 0.37017 0.0
H871 H 0.19486 0.89019 0.33041 0.0
H872 H 0.17673 0.90221 0.35582 0.0
H873 H 0.17549 0.94417 0.33034 0.0
H874 H 0.13544 0.98021 0.4418 0.0
H875 H 0.15277 0.96833 0.41194 0.0
H876 H 0.15426 0.92625 0.43886 0.0
C877 C 0.18529 0.90749 0.34762 0.0
C878 C 0.17096 0.9402 0.35412 0.0
C879 C 0.19566 0.90061 0.33287 0.0
C880 C 0.13457 0.9698 0.43911 0.0
C881 C 0.14448 0.963 0.42181 0.0
C882 C 0.15869 0.93021 0.41492 0.0
C883 C 0.18595 0.92102 0.35156 0.0
C884 C 0.17507 0.92827 0.36828 0.0
C885 C 0.14384 0.94945 0.4182 0.0
C886 C 0.15456 0.94214 0.4008 0.0
H887 H 0.2161 0.92593 0.31711 0.0
H888 H 0.19802 0.93792 0.343 0.0
H889 H 0.17188 0.9143 0.41078 0.0
H890 H 0.1149 0.94433 0.45972 0.0
H891 H 0.13206 0.93251 0.42912 0.0
C892 C 0.35054 0.95853 0.57889 0.0
C893 C 0.34731 0.97145 0.57111 0.0
C894 C 0.34133 0.95013 0.59348 0.0
C895 C 0.31038 0.94989 0.64322 0.0
H896 H 0.30823 0.91443 0.6095 0.0
C897 C 0.26847 0.91577 0.68305 0.0
C898 C 0.27163 0.90285 0.69108 0.0
C899 C 0.27776 0.92412 0.66863 0.0
C900 C 0.3088 0.92426 0.6195 0.0
H901 H 0.33184 0.98565 0.57234 0.0
H902 H 0.31574 0.97096 0.59744 0.0
H903 H 0.32429 0.92902 0.58371 0.0
H904 H 0.28706 0.8886 0.6904 0.0
H905 H 0.30329 0.90321 0.6655 0.0
H906 H 0.29487 0.94514 0.67897 0.0
C907 C 0.32545 0.96737 0.59272 0.0
C908 C 0.31801 0.93262 0.60471 0.0
C909 C 0.33466 0.97577 0.57813 0.0
C910 C 0.2843 0.89848 0.68443 0.0
C911 C 0.29358 0.90684 0.66996 0.0
C912 C 0.30117 0.94153 0.65799 0.0
C913 C 0.32868 0.95445 0.60063 0.0
C914 C 0.3189 0.94554 0.61638 0.0
C915 C 0.29042 0.91975 0.66186 0.0
C916 C 0.30026 0.92862 0.64628 0.0
H917 H 0.36022 0.95491 0.57391 0.0
H918 H 0.34418 0.94029 0.59966 0.0
H919 H 0.31095 0.95972 0.65322 0.0
H920 H 0.25879 0.91943 0.68775 0.0
H921 H 0.27496 0.93397 0.66227 0.0
C922 C 0.2668 0.08392 0.82424 0.0
C923 C 0.27023 0.09688 0.81765 0.0
C924 C 0.27571 0.07534 0.83941 0.0
C925 C 0.31071 0.07029 0.85275 0.0
H926 H 0.29955 0.04643 0.92686 0.0
C927 C 0.34687 0.03859 0.93175 0.0
C928 C 0.34321 0.02573 0.93884 0.0
C929 C 0.33796 0.04738 0.91747 0.0
C930 C 0.30279 0.05293 0.90591 0.0
H931 H 0.28574 0.11098 0.82187 0.0
H932 H 0.30126 0.096 0.84848 0.0
H933 H 0.28402 0.06152 0.90083 0.0
H934 H 0.32732 0.01202 0.93647 0.0
H935 H 0.31184 0.0273 0.91115 0.0
H936 H 0.32946 0.06165 0.85763 0.0
C937 C 0.29171 0.09245 0.84161 0.0
C938 C 0.29389 0.06158 0.89101 0.0
C939 C 0.28278 0.10105 0.82654 0.0
C940 C 0.33044 0.02187 0.93144 0.0
C941 C 0.32154 0.03065 0.91711 0.0
C942 C 0.31961 0.06161 0.86758 0.0
C943 C 0.28827 0.0795 0.84824 0.0
C944 C 0.29775 0.07035 0.86423 0.0
C945 C 0.3252 0.04351 0.90989 0.0
C946 C 0.31575 0.05281 0.89432 0.0
H947 H 0.25721 0.08039 0.81764 0.0
H948 H 0.27281 0.06538 0.84379 0.0
H949 H 0.31394 0.0768 0.8318 0.0
H950 H 0.35662 0.04189 0.93726 0.0
H951 H 0.34105 0.05725 0.91271 0.0
C952 C 0.87023 0.94402 0.93803 0.0
C953 C 0.87054 0.95673 0.92451 0.0
C954 C 0.86178 0.93485 0.92351 0.0
C955 C 0.84323 0.92685 0.84278 0.0
H956 H 0.82169 0.90669 0.90726 0.0
C957 C 0.8111 0.88448 0.79446 0.0
C958 C 0.79821 0.88469 0.8065 0.0
C959 C 0.82029 0.89284 0.80928 0.0
C960 C 0.82764 0.91227 0.88897 0.0
H961 H 0.8624 0.9697 0.8847 0.0
H962 H 0.84777 0.95359 0.85903 0.0
H963 H 0.83723 0.92223 0.9318 0.0
H964 H 0.7849 0.89364 0.84409 0.0
H965 H 0.80102 0.90813 0.87032 0.0
H966 H 0.83361 0.91692 0.79995 0.0
C967 C 0.85405 0.95077 0.88092 0.0
C968 C 0.83659 0.92107 0.90299 0.0
C969 C 0.86239 0.95999 0.89573 0.0
C970 C 0.79475 0.89325 0.83421 0.0
C971 C 0.80399 0.9015 0.84934 0.0
C972 C 0.8344 0.91793 0.82878 0.0
C973 C 0.85358 0.93814 0.89489 0.0
C974 C 0.8444 0.92851 0.88002 0.0
C975 C 0.81681 0.90147 0.83676 0.0
C976 C 0.82646 0.91062 0.85173 0.0
H977 H 0.87638 0.94121 0.96023 0.0
H978 H 0.86168 0.92515 0.93458 0.0
H979 H 0.84919 0.93241 0.82449 0.0
H980 H 0.81407 0.878 0.77313 0.0
H981 H 0.83014 0.89254 0.79932 0.0
C982 C 0.8756 0.06323 0.55637 0.0
C983 C 0.87257 0.05017 0.54999 0.0
C984 C 0.86677 0.07133 0.57381 0.0
C985 C 0.83689 0.07082 0.62977 0.0
H986 H 0.83332 0.10616 0.59595 0.0
C987 C 0.79372 0.10361 0.66785 0.0
C988 C 0.79668 0.11633 0.67849 0.0
C989 C 0.80329 0.09562 0.65329 0.0
C990 C 0.8343 0.09635 0.60588 0.0
H991 H 0.85792 0.03534 0.55709 0.0
H992 H 0.8424 0.04951 0.58658 0.0
H993 H 0.84948 0.092 0.56882 0.0
H994 H 0.81197 0.13068 0.68188 0.0
H995 H 0.82866 0.11673 0.65597 0.0
H996 H 0.82143 0.07514 0.66619 0.0
C997 C 0.8517 0.05347 0.57891 0.0
C998 C 0.84359 0.08824 0.59046 0.0
C999 C 0.86058 0.04534 0.56178 0.0
C1000 C 0.80939 0.12092 0.67395 0.0
C1001 C 0.81893 0.11297 0.65899 0.0
C1002 C 0.82751 0.0789 0.64492 0.0
C1003 C 0.85464 0.0666 0.58498 0.0
C1004 C 0.84499 0.07535 0.60213 0.0
C1005 C 0.81598 0.10022 0.64869 0.0
C1006 C 0.8261 0.09173 0.63306 0.0
H1007 H 0.8848 0.06721 0.54781 0.0
H1008 H 0.86948 0.08131 0.5786 0.0
H1009 H 0.83783 0.06104 0.63994 0.0
H1010 H 0.78402 0.09978 0.67104 0.0
H1011 H 0.80072 0.08587 0.64525 0.0
C1012 C 0.69543 0.12058 0.315 0.0
C1013 C 0.70843 0.11704 0.30974 0.0
C1014 C 0.68669 0.11188 0.3305 0.0
C1015 C 0.68118 0.07716 0.34391 0.0
H1016 H 0.65762 0.08813 0.41898 0.0
C1017 C 0.65018 0.04068 0.42348 0.0
C1018 C 0.63764 0.04441 0.43376 0.0
C1019 C 0.65862 0.04961 0.40779 0.0
C1020 C 0.66399 0.08494 0.39766 0.0
H1021 H 0.72249 0.10164 0.31688 0.0
H1022 H 0.7072 0.08645 0.34371 0.0
H1023 H 0.67273 0.10369 0.39305 0.0
H1024 H 0.624 0.06037 0.43494 0.0
H1025 H 0.63858 0.07587 0.40669 0.0
H1026 H 0.67237 0.05849 0.34797 0.0
C1027 C 0.70377 0.09594 0.33572 0.0
C1028 C 0.67268 0.09386 0.38292 0.0
C1029 C 0.71254 0.10467 0.32057 0.0
C1030 C 0.63363 0.05721 0.4275 0.0
C1031 C 0.64203 0.06613 0.41152 0.0
C1032 C 0.67243 0.06827 0.3584 0.0
C1033 C 0.69075 0.09943 0.34069 0.0
C1034 C 0.68141 0.09004 0.35606 0.0
C1035 C 0.65467 0.06246 0.4017 0.0
C1036 C 0.66377 0.07202 0.38561 0.0
H1037 H 0.69196 0.13004 0.30695 0.0
H1038 H 0.67668 0.1148 0.3338 0.0
H1039 H 0.68767 0.074 0.32283 0.0
H1040 H 0.65359 0.0309 0.42814 0.0
H1041 H 0.66833 0.04648 0.40112 0.0
C1042 C 0.6875 0.87795 0.19613 0.0
C1043 C 0.70067 0.87771 0.1867 0.0
C1044 C 0.67907 0.88682 0.18015 0.0
C1045 C 0.67902 0.91799 0.13103 0.0
H1046 H 0.64343 0.90864 0.11054 0.0
C1047 C 0.64121 0.95624 0.08981 0.0
C1048 C 0.63216 0.95279 0.06338 0.0
C1049 C 0.64939 0.94691 0.10478 0.0
C1050 C 0.65337 0.91139 0.11575 0.0
H1051 H 0.71526 0.88634 0.15236 0.0
H1052 H 0.7005 0.90157 0.12377 0.0
H1053 H 0.65814 0.89244 0.13476 0.0
H1054 H 0.62458 0.93684 0.03192 0.0
H1055 H 0.63902 0.92063 0.05738 0.0
H1056 H 0.67438 0.93682 0.11097 0.0
C1057 C 0.69672 0.89513 0.14417 0.0
C1058 C 0.66178 0.90214 0.1301 0.0
C1059 C 0.70518 0.88633 0.16038 0.0
C1060 C 0.6314 0.9398 0.05238 0.0
C1061 C 0.63965 0.93049 0.06714 0.0
C1062 C 0.67065 0.92722 0.11646 0.0
C1063 C 0.68359 0.89558 0.15413 0.0
C1064 C 0.6747 0.90533 0.13805 0.0
C1065 C 0.64878 0.93393 0.09345 0.0
C1066 C 0.6577 0.92406 0.10877 0.0
H1067 H 0.68373 0.87147 0.21646 0.0
H1068 H 0.66907 0.88699 0.18887 0.0
H1069 H 0.68885 0.92087 0.13723 0.0
H1070 H 0.64199 0.96616 0.09901 0.0
H1071 H 0.65613 0.94988 0.12544 0.0
C1072 C 0.65061 0.54166 0.57093 0.0
C1073 C 0.65365 0.52858 0.56465 0.0
C1074 C 0.65985 0.55005 0.58542 0.0
C1075 C 0.69513 0.55391 0.59866 0.0
H1076 H 0.68472 0.57863 0.67145 0.0
C1077 C 0.73219 0.58375 0.68 0.0
C1078 C 0.72927 0.59686 0.68613 0.0
C1079 C 0.72295 0.57547 0.66502 0.0
C1080 C 0.68776 0.57188 0.65087 0.0
H1081 H 0.66878 0.51408 0.56864 0.0
H1082 H 0.68483 0.52869 0.59423 0.0
H1083 H 0.66865 0.56412 0.64545 0.0
H1084 H 0.71436 0.61156 0.68133 0.0
H1085 H 0.69828 0.59712 0.65498 0.0
H1086 H 0.71425 0.56165 0.60418 0.0
C1087 C 0.67537 0.5325 0.58754 0.0
C1088 C 0.67854 0.56357 0.63595 0.0
C1089 C 0.66613 0.5241 0.57304 0.0
C1090 C 0.71691 0.6015 0.67703 0.0
C1091 C 0.70766 0.59321 0.66211 0.0
C1092 C 0.70435 0.56222 0.61361 0.0
C1093 C 0.67233 0.54557 0.59396 0.0
C1094 C 0.68212 0.55447 0.60968 0.0
C1095 C 0.71058 0.5801 0.65588 0.0
C1096 C 0.70077 0.57129 0.63991 0.0
H1097 H 0.64109 0.54543 0.56466 0.0
H1098 H 0.65725 0.5601 0.58958 0.0
H1099 H 0.69817 0.54716 0.57808 0.0
H1100 H 0.74161 0.57986 0.68679 0.0
H1101 H 0.72545 0.56539 0.66099 0.0
C1102 C 0.71754 0.3965 0.82577 0.0
C1103 C 0.73018 0.40072 0.81802 0.0
C1104 C 0.70841 0.40506 0.84006 0.0
C1105 C 0.70556 0.43597 0.88918 0.0
H1106 H 0.67028 0.43551 0.85362 0.0
C1107 C 0.66821 0.47531 0.92704 0.0
C1108 C 0.65547 0.47126 0.93399 0.0
C1109 C 0.67733 0.46663 0.91322 0.0
C1110 C 0.68005 0.43566 0.86416 0.0
H1111 H 0.74312 0.41726 0.81916 0.0
H1112 H 0.72717 0.43221 0.84387 0.0
H1113 H 0.68617 0.4205 0.82884 0.0
H1114 H 0.64232 0.45488 0.93212 0.0
H1115 H 0.65826 0.43973 0.90839 0.0
H1116 H 0.69945 0.45111 0.92452 0.0
C1117 C 0.72436 0.42224 0.83926 0.0
C1118 C 0.68916 0.42706 0.84993 0.0
C1119 C 0.73348 0.41368 0.8249 0.0
C1120 C 0.65205 0.45833 0.92695 0.0
C1121 C 0.66117 0.44966 0.91315 0.0
C1122 C 0.69645 0.44456 0.90343 0.0
C1123 C 0.71172 0.41803 0.84701 0.0
C1124 C 0.70202 0.42713 0.86225 0.0
C1125 C 0.67391 0.45371 0.90605 0.0
C1126 C 0.68359 0.44452 0.89107 0.0
H1127 H 0.71469 0.38656 0.82086 0.0
H1128 H 0.6988 0.40147 0.84613 0.0
H1129 H 0.71534 0.43613 0.89964 0.0
H1130 H 0.67115 0.48521 0.93206 0.0
H1131 H 0.68702 0.47012 0.90763 0.0
C1132 C 0.76711 0.41691 0.17804 0.0
C1133 C 0.77038 0.40389 0.18418 0.0
C1134 C 0.77618 0.42548 0.16347 0.0
C1135 C 0.8113 0.43017 0.15109 0.0
H1136 H 0.80065 0.45459 0.07785 0.0
C1137 C 0.84807 0.4618 0.07398 0.0
C1138 C 0.84462 0.47476 0.06748 0.0
C1139 C 0.83901 0.45306 0.08774 0.0
C1140 C 0.80375 0.44793 0.09857 0.0
H1141 H 0.78573 0.38964 0.17981 0.0
H1142 H 0.80153 0.40457 0.15424 0.0
H1143 H 0.78486 0.43956 0.10295 0.0
H1144 H 0.82892 0.48868 0.07032 0.0
H1145 H 0.81317 0.47347 0.0947 0.0
H1146 H 0.83018 0.43858 0.14688 0.0
C1147 C 0.79199 0.40819 0.16101 0.0
C1148 C 0.7947 0.43931 0.11293 0.0
C1149 C 0.78291 0.39962 0.17549 0.0
C1150 C 0.83189 0.47876 0.07491 0.0
C1151 C 0.82283 0.47002 0.0887 0.0
C1152 C 0.82035 0.4388 0.13678 0.0
C1153 C 0.78872 0.42122 0.1548 0.0
C1154 C 0.79837 0.43034 0.13939 0.0
C1155 C 0.82629 0.45707 0.09535 0.0
C1156 C 0.81668 0.4478 0.11036 0.0
H1157 H 0.75754 0.42052 0.18451 0.0
H1158 H 0.77341 0.43549 0.15943 0.0
H1159 H 0.81439 0.4235 0.17181 0.0
H1160 H 0.85779 0.45839 0.06842 0.0
H1161 H 0.84195 0.44311 0.09207 0.0
C1162 C 0.78353 0.60187 0.33035 0.0
C1163 C 0.7708 0.59792 0.32276 0.0
C1164 C 0.79243 0.59317 0.34506 0.0
C1165 C 0.79447 0.56251 0.39565 0.0
H1166 H 0.82974 0.56177 0.36001 0.0
C1167 C 0.83065 0.5223 0.4349 0.0
C1168 C 0.84353 0.52598 0.44151 0.0
C1169 C 0.82178 0.53118 0.42089 0.0
C1170 C 0.81997 0.56196 0.37058 0.0
H1171 H 0.75744 0.58172 0.32461 0.0
H1172 H 0.77299 0.56653 0.35006 0.0
H1173 H 0.81428 0.57707 0.33459 0.0
H1174 H 0.85718 0.54192 0.43883 0.0
H1175 H 0.84167 0.55745 0.41477 0.0
H1176 H 0.80016 0.54741 0.43166 0.0
C1177 C 0.77606 0.57639 0.34499 0.0
C1178 C 0.81111 0.57072 0.35598 0.0
C1179 C 0.76716 0.58508 0.33021 0.0
C1180 C 0.84734 0.53876 0.43395 0.0
C1181 C 0.83847 0.54765 0.41995 0.0
C1182 C 0.80334 0.55376 0.41028 0.0
C1183 C 0.78879 0.58033 0.3526 0.0
C1184 C 0.79825 0.57108 0.3683 0.0
C1185 C 0.82559 0.54396 0.41316 0.0
C1186 C 0.81619 0.55336 0.39787 0.0
H1187 H 0.78663 0.6117 0.32501 0.0
H1188 H 0.80212 0.59655 0.35099 0.0
H1189 H 0.78469 0.56268 0.40612 0.0
H1190 H 0.82741 0.51251 0.44032 0.0
H1191 H 0.81199 0.52797 0.41555 0.0
C1192 C 0.35078 0.46034 0.42584 0.0
C1193 C 0.36342 0.45686 0.43582 0.0
C1194 C 0.34225 0.45107 0.41215 0.0
C1195 C 0.33698 0.41555 0.4071 0.0
H1196 H 0.31301 0.42505 0.33156 0.0
C1197 C 0.30609 0.37843 0.32792 0.0
C1198 C 0.29307 0.38173 0.32192 0.0
C1199 C 0.31463 0.38739 0.3431 0.0
C1200 C 0.31957 0.4223 0.35289 0.0
H1201 H 0.37711 0.44098 0.43875 0.0
H1202 H 0.36237 0.42488 0.41396 0.0
H1203 H 0.32822 0.44109 0.35438 0.0
H1204 H 0.27873 0.39696 0.32767 0.0
H1205 H 0.29367 0.41261 0.35394 0.0
H1206 H 0.32843 0.39665 0.40495 0.0
C1207 C 0.35891 0.4347 0.41748 0.0
C1208 C 0.32828 0.43149 0.36605 0.0
C1209 C 0.36741 0.44395 0.43146 0.0
C1210 C 0.28871 0.39411 0.33193 0.0
C1211 C 0.29727 0.40311 0.34676 0.0
C1212 C 0.32835 0.40632 0.39369 0.0
C1213 C 0.3462 0.43813 0.40781 0.0
C1214 C 0.33707 0.42826 0.39343 0.0
C1215 C 0.31034 0.39988 0.35223 0.0
C1216 C 0.31952 0.40962 0.36655 0.0
H1217 H 0.34737 0.47019 0.4291 0.0
H1218 H 0.33248 0.45404 0.40557 0.0
H1219 H 0.34345 0.41277 0.4286 0.0
H1220 H 0.30974 0.36896 0.32051 0.0
H1221 H 0.32467 0.38467 0.34681 0.0
C1222 C 0.30776 0.62292 0.17691 0.0
C1223 C 0.29464 0.61988 0.18245 0.0
C1224 C 0.31619 0.61378 0.16204 0.0
C1225 C 0.32046 0.57876 0.15186 0.0
H1226 H 0.34483 0.588 0.07702 0.0
C1227 C 0.35093 0.54033 0.0779 0.0
C1228 C 0.36367 0.54355 0.06817 0.0
C1229 C 0.34262 0.54971 0.09204 0.0
C1230 C 0.33822 0.58529 0.09829 0.0
H1231 H 0.28004 0.60494 0.17629 0.0
H1232 H 0.29478 0.58898 0.15052 0.0
H1233 H 0.33008 0.60437 0.10068 0.0
H1234 H 0.37778 0.55908 0.0663 0.0
H1235 H 0.36341 0.57538 0.09186 0.0
H1236 H 0.32868 0.55978 0.15005 0.0
C1237 C 0.29854 0.59841 0.15783 0.0
C1238 C 0.32974 0.59467 0.11171 0.0
C1239 C 0.29009 0.60758 0.17237 0.0
C1240 C 0.36799 0.55631 0.07337 0.0
C1241 C 0.35972 0.56568 0.08779 0.0
C1242 C 0.329 0.56942 0.13867 0.0
C1243 C 0.31169 0.60138 0.15276 0.0
C1244 C 0.32074 0.59148 0.13851 0.0
C1245 C 0.3469 0.56252 0.09708 0.0
C1246 C 0.33796 0.57254 0.11161 0.0
H1247 H 0.31157 0.63231 0.18439 0.0
H1248 H 0.3263 0.6163 0.15865 0.0
H1249 H 0.31375 0.57608 0.17293 0.0
H1250 H 0.34727 0.5306 0.07402 0.0
H1251 H 0.33276 0.54696 0.09835 0.0
C1252 C 0.13106 0.56375 0.94801 0.0
C1253 C 0.13009 0.55088 0.93607 0.0
C1254 C 0.14001 0.57222 0.93249 0.0
C1255 C 0.15904 0.57802 0.85124 0.0
H1256 H 0.18146 0.59796 0.91383 0.0
C1257 C 0.19265 0.61889 0.80019 0.0
C1258 C 0.20551 0.61845 0.81247 0.0
C1259 C 0.18325 0.61079 0.81514 0.0
C1260 C 0.17528 0.59243 0.89606 0.0
H1261 H 0.13756 0.53686 0.898 0.0
H1262 H 0.15307 0.55173 0.87054 0.0
H1263 H 0.16522 0.58349 0.93978 0.0
H1264 H 0.21856 0.60931 0.85037 0.0
H1265 H 0.20205 0.5953 0.87683 0.0
H1266 H 0.1691 0.58698 0.80751 0.0
C1267 C 0.14692 0.55523 0.89198 0.0
C1268 C 0.16593 0.58424 0.91088 0.0
C1269 C 0.13808 0.54671 0.90781 0.0
C1270 C 0.20873 0.60986 0.84031 0.0
C1271 C 0.19929 0.60189 0.85557 0.0
C1272 C 0.16827 0.58634 0.83641 0.0
C1273 C 0.14805 0.56803 0.90442 0.0
C1274 C 0.15777 0.57691 0.88861 0.0
C1275 C 0.18647 0.60222 0.84298 0.0
C1276 C 0.17652 0.59358 0.85869 0.0
H1277 H 0.12505 0.56725 0.96976 0.0
H1278 H 0.14061 0.58206 0.94236 0.0
H1279 H 0.15282 0.57252 0.83348 0.0
H1280 H 0.18987 0.62538 0.77874 0.0
H1281 H 0.17341 0.61131 0.80514 0.0
C1282 C 0.14133 0.45778 0.58828 0.0
C1283 C 0.13312 0.45355 0.5606 0.0
C1284 C 0.14979 0.44913 0.60503 0.0
C1285 C 0.1675 0.41908 0.58936 0.0
H1286 H 0.17072 0.41777 0.69293 0.0
C1287 C 0.20939 0.39291 0.66238 0.0
C1288 C 0.20588 0.38485 0.69115 0.0
C1289 C 0.20023 0.40101 0.64634 0.0
C1290 C 0.16988 0.418 0.66399 0.0
H1291 H 0.1273 0.43692 0.52894 0.0
H1292 H 0.14222 0.42186 0.55794 0.0
H1293 H 0.155 0.43248 0.66547 0.0
H1294 H 0.19003 0.379 0.72576 0.0
H1295 H 0.17408 0.39331 0.69798 0.0
H1296 H 0.18246 0.40471 0.58784 0.0
C1297 C 0.14207 0.43186 0.56664 0.0
C1298 C 0.16097 0.42647 0.6483 0.0
C1299 C 0.13349 0.44047 0.5502 0.0
C1300 C 0.19303 0.38507 0.70359 0.0
C1301 C 0.18392 0.39331 0.68785 0.0
C1302 C 0.17653 0.41074 0.60502 0.0
C1303 C 0.15034 0.43612 0.59412 0.0
C1304 C 0.15968 0.42707 0.61084 0.0
C1305 C 0.18743 0.40134 0.65906 0.0
C1306 C 0.17779 0.41012 0.64248 0.0
H1307 H 0.14126 0.4678 0.59691 0.0
H1308 H 0.15613 0.45268 0.62599 0.0
H1309 H 0.16678 0.41943 0.5604 0.0
H1310 H 0.21921 0.39294 0.65218 0.0
H1311 H 0.20321 0.40718 0.62435 0.0
C1312 C 0.25844 0.21466 0.33757 0.0
C1313 C 0.24893 0.20627 0.32386 0.0
C1314 C 0.25699 0.22808 0.33473 0.0
C1315 C 0.24072 0.25226 0.27845 0.0
H1316 H 0.2528 0.27647 0.35058 0.0
C1317 C 0.25135 0.30535 0.24476 0.0
C1318 C 0.24728 0.31493 0.26905 0.0
C1319 C 0.25073 0.29227 0.25393 0.0
C1320 C 0.24926 0.26984 0.33033 0.0
H1321 H 0.23013 0.20544 0.29799 0.0
H1322 H 0.22756 0.22884 0.29339 0.0
H1323 H 0.25259 0.25327 0.3637 0.0
H1324 H 0.23954 0.31827 0.32232 0.0
H1325 H 0.23844 0.29531 0.33838 0.0
H1326 H 0.23739 0.26876 0.24508 0.0
C1327 C 0.23625 0.22503 0.30576 0.0
C1328 C 0.24926 0.25655 0.33771 0.0
C1329 C 0.2377 0.21162 0.30856 0.0
C1330 C 0.24274 0.31112 0.30301 0.0
C1331 C 0.24216 0.29799 0.31225 0.0
C1332 C 0.24075 0.26551 0.27107 0.0
C1333 C 0.246 0.23342 0.31816 0.0
C1334 C 0.24512 0.2476 0.31168 0.0
C1335 C 0.24603 0.28842 0.28764 0.0
C1336 C 0.2452 0.27444 0.2967 0.0
H1337 H 0.2672 0.21086 0.34957 0.0
H1338 H 0.26474 0.23425 0.34426 0.0
H1339 H 0.2376 0.24565 0.25763 0.0
H1340 H 0.25496 0.30793 0.21844 0.0
H1341 H 0.25401 0.28516 0.23461 0.0
C1342 C 0.03917 0.96993 0.50464 0.0
C1343 C 0.04515 0.97531 0.53503 0.0
C1344 C 0.02592 0.97177 0.49857 0.0
C1345 C 0.99554 0.97979 0.5458 0.0
H1346 H 0.98272 0.98749 0.45049 0.0
C1347 C 0.94245 0.99487 0.51906 0.0
C1348 C 0.9365 0.98985 0.48816 0.0
C1349 C 0.95569 0.99299 0.52503 0.0
C1350 C 0.98612 0.98519 0.47721 0.0
H1351 H 0.04193 0.987 0.58259 0.0
H1352 H 0.01893 0.99026 0.57185 0.0
H1353 H 0.00588 0.98443 0.45992 0.0
H1354 H 0.93976 0.97872 0.43962 0.0
H1355 H 0.96274 0.9753 0.45028 0.0
H1356 H 0.97579 0.98051 0.56311 0.0
C1357 C 0.02441 0.98448 0.55296 0.0
C1358 C 0.9994 0.98344 0.48259 0.0
C1359 C 0.03763 0.98267 0.55897 0.0
C1360 C 0.94404 0.98278 0.46362 0.0
C1361 C 0.95725 0.98089 0.4696 0.0
C1362 C 0.98226 0.98151 0.54042 0.0
C1363 C 0.01838 0.97899 0.52282 0.0
C1364 C 0.00426 0.98074 0.51696 0.0
C1365 C 0.96326 0.98604 0.50023 0.0
C1366 C 0.97739 0.98424 0.50605 0.0
H1367 H 0.04468 0.96419 0.48571 0.0
H1368 H 0.02153 0.96732 0.47525 0.0
H1369 H 0.99896 0.97752 0.57253 0.0
H1370 H 0.93692 0.00039 0.53843 0.0
H1371 H 0.96004 0.9972 0.54872 0.0
C1372 C 0.2569 0.69168 0.81164 0.0
C1373 C 0.24663 0.68621 0.79211 0.0
C1374 C 0.25662 0.70476 0.8214 0.0
C1375 C 0.23491 0.73309 0.83136 0.0
H1376 H 0.26564 0.753 0.80819 0.0
C1377 C 0.2337 0.78835 0.81213 0.0
C1378 C 0.24441 0.79574 0.82313 0.0
C1379 C 0.23405 0.77484 0.81382 0.0
C1380 C 0.25705 0.74758 0.81548 0.0
H1381 H 0.22775 0.69004 0.76889 0.0
H1382 H 0.22727 0.71279 0.7859 0.0
H1383 H 0.26603 0.72951 0.80237 0.0
H1384 H 0.26377 0.79474 0.84548 0.0
H1385 H 0.26432 0.77114 0.84887 0.0
H1386 H 0.22587 0.75117 0.84396 0.0
C1387 C 0.23552 0.70698 0.79379 0.0
C1388 C 0.25728 0.7341 0.81211 0.0
C1389 C 0.23584 0.69395 0.78384 0.0
C1390 C 0.25538 0.78933 0.83661 0.0
C1391 C 0.25572 0.7758 0.83839 0.0
C1392 C 0.2347 0.74656 0.83488 0.0
C1393 C 0.24601 0.7126 0.8121 0.0
C1394 C 0.24614 0.72673 0.81937 0.0
C1395 C 0.2451 0.76839 0.82669 0.0
C1396 C 0.24569 0.75399 0.82631 0.0
H1397 H 0.26534 0.68597 0.8185 0.0
H1398 H 0.26478 0.70879 0.83584 0.0
H1399 H 0.22624 0.72765 0.83766 0.0
H1400 H 0.2251 0.79297 0.80154 0.0
H1401 H 0.22577 0.76946 0.80405 0.0
C1402 C 0.46115 0.99832 0.08075 0.0
C1403 C 0.45476 0.98839 0.06195 0.0
C1404 C 0.47466 0.99849 0.08299 0.0
C1405 C 0.50391 0.97802 0.07019 0.0
H1406 H 0.52098 0.01089 0.05304 0.0
C1407 C 0.55675 0.98217 0.02243 0.0
C1408 C 0.56441 0.99237 0.03556 0.0
C1409 C 0.54367 0.98128 0.03158 0.0
C1410 C 0.51638 0.00167 0.0585 0.0
H1411 H 0.45757 0.97073 0.03142 0.0
H1412 H 0.48108 0.97115 0.03485 0.0
H1413 H 0.49748 0.01012 0.05801 0.0
H1414 H 0.56444 0.00938 0.06969 0.0
H1415 H 0.54155 0.00781 0.0857 0.0
H1416 H 0.52283 0.96954 0.06963 0.0
C1417 C 0.47567 0.9787 0.04833 0.0
C1418 C 0.5029 0.00122 0.06136 0.0
C1419 C 0.46217 0.97851 0.04614 0.0
C1420 C 0.5588 0.00143 0.05903 0.0
C1421 C 0.54567 0.00057 0.06805 0.0
C1422 C 0.51739 0.97846 0.06723 0.0
C1423 C 0.48209 0.98876 0.06647 0.0
C1424 C 0.49648 0.98936 0.06664 0.0
C1425 C 0.53793 0.99059 0.05399 0.0
C1426 C 0.52376 0.99026 0.06077 0.0
H1427 H 0.45572 0.00604 0.09342 0.0
H1428 H 0.4793 0.00629 0.09758 0.0
H1429 H 0.49929 0.96876 0.07493 0.0
H1430 H 0.56078 0.97501 0.00435 0.0
H1431 H 0.53795 0.97355 0.01999 0.0
C1432 C 0.26449 0.70011 0.21504 0.0
C1433 C 0.25371 0.69183 0.21331 0.0
C1434 C 0.26327 0.71325 0.20681 0.0
C1435 C 0.23898 0.73911 0.20661 0.0
H1436 H 0.2657 0.75869 0.15763 0.0
C1437 C 0.23465 0.79433 0.18584 0.0
C1438 C 0.24589 0.80162 0.19251 0.0
C1439 C 0.23526 0.78083 0.18339 0.0
C1440 C 0.25819 0.75337 0.17157 0.0
H1441 H 0.23328 0.69078 0.20005 0.0
H1442 H 0.23116 0.71373 0.18558 0.0
H1443 H 0.26744 0.73515 0.16155 0.0
H1444 H 0.26663 0.80043 0.20115 0.0
H1445 H 0.26766 0.77694 0.19752 0.0
H1446 H 0.2299 0.75729 0.21753 0.0
C1447 C 0.24053 0.71006 0.19372 0.0
C1448 C 0.25918 0.73989 0.17375 0.0
C1449 C 0.24177 0.69689 0.20181 0.0
C1450 C 0.25779 0.79512 0.19595 0.0
C1451 C 0.25839 0.78163 0.19361 0.0
C1452 C 0.23801 0.75258 0.20455 0.0
C1453 C 0.25121 0.71843 0.19676 0.0
C1454 C 0.24967 0.73262 0.19169 0.0
C1455 C 0.24712 0.7743 0.18764 0.0
C1456 C 0.24769 0.7599 0.18742 0.0
H1457 H 0.27383 0.69652 0.22373 0.0
H1458 H 0.27166 0.71945 0.20973 0.0
H1459 H 0.23159 0.73382 0.22109 0.0
H1460 H 0.22534 0.79904 0.18283 0.0
H1461 H 0.22642 0.77549 0.17826 0.0
C1462 C 0.46485 0.99509 0.42177 0.0
C1463 C 0.45825 0.00614 0.43406 0.0
C1464 C 0.47837 0.99498 0.41974 0.0
C1465 C 0.50731 0.01639 0.42012 0.0
H1466 H 0.52466 0.986 0.45778 0.0
C1467 C 0.56007 0.01687 0.47017 0.0
C1468 C 0.56781 0.00586 0.4645 0.0
C1469 C 0.54704 0.01688 0.46021 0.0
C1470 C 0.51999 0.99447 0.44656 0.0
H1471 H 0.46069 0.02586 0.45297 0.0
H1472 H 0.48422 0.02561 0.44992 0.0
H1473 H 0.50119 0.98603 0.45192 0.0
H1474 H 0.56805 0.98641 0.44251 0.0
H1475 H 0.54526 0.98646 0.42498 0.0
H1476 H 0.52614 0.02494 0.41571 0.0
C1477 C 0.47897 0.01707 0.44138 0.0
C1478 C 0.50652 0.99449 0.4432 0.0
C1479 C 0.46546 0.01719 0.44338 0.0
C1480 C 0.56234 0.99503 0.44739 0.0
C1481 C 0.54927 0.99503 0.43753 0.0
C1482 C 0.52079 0.01637 0.42354 0.0
C1483 C 0.4856 0.00591 0.42996 0.0
C1484 C 0.49999 0.00552 0.43048 0.0
C1485 C 0.54142 0.00588 0.44441 0.0
C1486 C 0.52726 0.00549 0.43735 0.0
H1487 H 0.45959 0.98644 0.41418 0.0
H1488 H 0.48317 0.98629 0.41036 0.0
H1489 H 0.5026 0.02496 0.40963 0.0
H1490 H 0.56398 0.02539 0.48322 0.0
H1491 H 0.54124 0.02535 0.46623 0.0
C1492 C 0.23491 0.30848 0.71755 0.0
C1493 C 0.24591 0.31611 0.71088 0.0
C1494 C 0.23473 0.2954 0.70801 0.0
C1495 C 0.25679 0.26815 0.69469 0.0
H1496 H 0.22613 0.25084 0.65863 0.0
C1497 C 0.25559 0.21283 0.67276 0.0
C1498 C 0.24437 0.20644 0.68471 0.0
C1499 C 0.2559 0.22634 0.67027 0.0
C1500 C 0.23475 0.25552 0.66891 0.0
H1501 H 0.26516 0.31613 0.68757 0.0
H1502 H 0.26483 0.29325 0.67092 0.0
H1503 H 0.22636 0.2744 0.6638 0.0
H1504 H 0.22459 0.20924 0.70277 0.0
H1505 H 0.2252 0.23273 0.69909 0.0
H1506 H 0.26506 0.24931 0.70092 0.0
C1507 C 0.2564 0.29739 0.68384 0.0
C1508 C 0.23488 0.26901 0.67178 0.0
C1509 C 0.25655 0.3105 0.69321 0.0
C1510 C 0.23339 0.21384 0.69341 0.0
C1511 C 0.23371 0.22733 0.69104 0.0
C1512 C 0.25664 0.25466 0.69197 0.0
C1513 C 0.24557 0.28965 0.69171 0.0
C1514 C 0.24583 0.27546 0.68522 0.0
C1515 C 0.245 0.23376 0.67976 0.0
C1516 C 0.24555 0.24816 0.6796 0.0
H1517 H 0.22653 0.3125 0.73104 0.0
H1518 H 0.22628 0.28967 0.71475 0.0
H1519 H 0.26531 0.27282 0.70562 0.0
H1520 H 0.2642 0.2074 0.66563 0.0
H1521 H 0.2647 0.23097 0.66102 0.0
C1522 C 0.04563 0.00907 0.9293 0.0
C1523 C 0.05195 0.99754 0.93912 0.0
C1524 C 0.03221 0.00928 0.92438 0.0
C1525 C 0.00344 0.98802 0.91191 0.0
H1526 H 0.98499 0.01679 0.95493 0.0
C1527 C 0.94937 0.98605 0.9507 0.0
C1528 C 0.94187 0.99732 0.94675 0.0
C1529 C 0.96264 0.98623 0.94336 0.0
C1530 C 0.98999 0.00879 0.9422 0.0
H1531 H 0.04915 0.97713 0.95051 0.0
H1532 H 0.02578 0.97755 0.94257 0.0
H1533 H 0.00855 0.0169 0.954 0.0
H1534 H 0.94233 0.01747 0.93028 0.0
H1535 H 0.96549 0.01776 0.91735 0.0
H1536 H 0.98481 0.97976 0.90112 0.0
C1537 C 0.03119 0.98639 0.93813 0.0
C1538 C 0.00351 0.00885 0.94165 0.0
C1539 C 0.0446 0.98617 0.94295 0.0
C1540 C 0.94783 0.00863 0.93381 0.0
C1541 C 0.96112 0.00883 0.92658 0.0
C1542 C 0.9899 0.98794 0.91258 0.0
C1543 C 0.0248 0.99798 0.92924 0.0
C1544 C 0.01042 0.99838 0.92697 0.0
C1545 C 0.96871 0.9977 0.93197 0.0
C1546 C 0.98303 0.99825 0.92819 0.0
H1547 H 0.05102 0.01798 0.92589 0.0
H1548 H 0.02762 0.01833 0.91701 0.0
H1549 H 0.00845 0.9799 0.89984 0.0
H1550 H 0.94508 0.97716 0.96054 0.0
H1551 H 0.96823 0.97753 0.94808 0.0
C1552 C 0.74566 0.8096 0.80063 0.0
C1553 C 0.757 0.8152 0.78663 0.0
C1554 C 0.74541 0.79651 0.81018 0.0
C1555 C 0.76624 0.76816 0.8298 0.0
H1556 H 0.73728 0.74843 0.79245 0.0
C1557 C 0.76801 0.71276 0.81202 0.0
C1558 C 0.75666 0.70555 0.81787 0.0
C1559 C 0.76776 0.72628 0.81336 0.0
C1560 C 0.74533 0.7538 0.80367 0.0
H1561 H 0.77712 0.81157 0.77321 0.0
H1562 H 0.77666 0.78877 0.78975 0.0
H1563 H 0.7374 0.77191 0.78656 0.0
H1564 H 0.73623 0.70688 0.83082 0.0
H1565 H 0.73583 0.73049 0.83364 0.0
H1566 H 0.77427 0.75002 0.84644 0.0
C1567 C 0.76798 0.7945 0.79351 0.0
C1568 C 0.7454 0.76727 0.80027 0.0
C1569 C 0.76822 0.80756 0.78383 0.0
C1570 C 0.74512 0.71215 0.82596 0.0
C1571 C 0.74488 0.72569 0.8274 0.0
C1572 C 0.76616 0.75468 0.83332 0.0
C1573 C 0.7565 0.78876 0.80612 0.0
C1574 C 0.75594 0.77459 0.81279 0.0
C1575 C 0.75617 0.73292 0.82072 0.0
C1576 C 0.7558 0.74732 0.81977 0.0
H1577 H 0.73686 0.81523 0.80328 0.0
H1578 H 0.73647 0.7924 0.82026 0.0
H1579 H 0.77442 0.77355 0.84017 0.0
H1580 H 0.77706 0.70799 0.80566 0.0
H1581 H 0.7766 0.73153 0.80757 0.0
C1582 C 0.76493 0.28888 0.30473 0.0
C1583 C 0.7544 0.29452 0.32284 0.0
C1584 C 0.76579 0.27544 0.30107 0.0
C1585 C 0.75295 0.2442 0.335 0.0
H1586 H 0.76138 0.23218 0.23929 0.0
C1587 C 0.75855 0.18977 0.29694 0.0
C1588 C 0.75295 0.18603 0.26416 0.0
C1589 C 0.75914 0.20286 0.30661 0.0
C1590 C 0.75897 0.23538 0.26614 0.0
H1591 H 0.73682 0.29042 0.35263 0.0
H1592 H 0.73828 0.26698 0.34591 0.0
H1593 H 0.76201 0.25524 0.25249 0.0
H1594 H 0.74329 0.19309 0.21631 0.0
H1595 H 0.74428 0.2158 0.23322 0.0
H1596 H 0.7496 0.22426 0.34823 0.0
C1597 C 0.74591 0.27295 0.33478 0.0
C1598 C 0.75948 0.24859 0.27384 0.0
C1599 C 0.74504 0.2864 0.33845 0.0
C1600 C 0.74774 0.19562 0.24166 0.0
C1601 C 0.74838 0.20866 0.25123 0.0
C1602 C 0.75248 0.23094 0.3273 0.0
C1603 C 0.75616 0.26733 0.31542 0.0
C1604 C 0.75636 0.25318 0.30824 0.0
C1605 C 0.75421 0.21245 0.28358 0.0
C1606 C 0.75533 0.22641 0.29263 0.0
H1607 H 0.77237 0.29485 0.29264 0.0
H1608 H 0.77393 0.27141 0.28652 0.0
H1609 H 0.75059 0.24743 0.36184 0.0
H1610 H 0.76264 0.18261 0.31488 0.0
H1611 H 0.76374 0.2055 0.33165 0.0
C1612 C 0.73805 0.28629 0.69063 0.0
C1613 C 0.74775 0.29237 0.67024 0.0
C1614 C 0.73752 0.2728 0.69301 0.0
C1615 C 0.74925 0.24231 0.65179 0.0
H1616 H 0.74446 0.22868 0.74777 0.0
C1617 C 0.74418 0.18737 0.68432 0.0
C1618 C 0.75073 0.18297 0.71507 0.0
C1619 C 0.74365 0.20061 0.67636 0.0
C1620 C 0.74587 0.23233 0.72082 0.0
H1621 H 0.76418 0.28902 0.63515 0.0
H1622 H 0.7633 0.26547 0.63957 0.0
H1623 H 0.74342 0.25194 0.73779 0.0
H1624 H 0.76221 0.18901 0.76083 0.0
H1625 H 0.76134 0.21198 0.74685 0.0
H1626 H 0.75198 0.22261 0.63509 0.0
C1627 C 0.75606 0.27113 0.65352 0.0
C1628 C 0.74511 0.24565 0.71501 0.0
C1629 C 0.7566 0.28464 0.65116 0.0
C1630 C 0.75701 0.19205 0.73707 0.0
C1631 C 0.75645 0.20524 0.7292 0.0
C1632 C 0.74996 0.22893 0.65759 0.0
C1633 C 0.74666 0.26507 0.67504 0.0
C1634 C 0.74687 0.25082 0.6805 0.0
C1635 C 0.7496 0.2097 0.69908 0.0
C1636 C 0.74842 0.22382 0.69227 0.0
H1637 H 0.73102 0.29194 0.70545 0.0
H1638 H 0.73003 0.26841 0.70932 0.0
H1639 H 0.75056 0.24599 0.62484 0.0
H1640 H 0.73925 0.18061 0.6668 0.0
H1641 H 0.73826 0.20376 0.65303 0.0
C1642 C 0.76361 0.71259 0.19092 0.0
C1643 C 0.75241 0.70645 0.17792 0.0
C1644 C 0.76423 0.72609 0.19309 0.0
C1645 C 0.74842 0.75651 0.16278 0.0
H1646 H 0.76194 0.77001 0.25225 0.0
C1647 C 0.75272 0.81159 0.19368 0.0
C1648 C 0.74906 0.81541 0.22844 0.0
C1649 C 0.75371 0.79844 0.1849 0.0
C1650 C 0.75809 0.7664 0.22716 0.0
H1651 H 0.73327 0.7097 0.15565 0.0
H1652 H 0.7343 0.73322 0.15991 0.0
H1653 H 0.76279 0.74686 0.24066 0.0
H1654 H 0.74332 0.8084 0.28096 0.0
H1655 H 0.74493 0.7856 0.26559 0.0
H1656 H 0.74334 0.7761 0.14992 0.0
C1657 C 0.74266 0.72762 0.16809 0.0
C1658 C 0.75873 0.75313 0.22029 0.0
C1659 C 0.74204 0.71412 0.16586 0.0
C1660 C 0.74624 0.80582 0.254 0.0
C1661 C 0.74725 0.79272 0.24526 0.0
C1662 C 0.74779 0.76982 0.16965 0.0
C1663 C 0.75366 0.73375 0.18237 0.0
C1664 C 0.75377 0.748 0.18821 0.0
C1665 C 0.75111 0.78887 0.21075 0.0
C1666 C 0.75246 0.77488 0.20217 0.0
H1667 H 0.77181 0.70698 0.20015 0.0
H1668 H 0.77293 0.73052 0.20365 0.0
H1669 H 0.74462 0.75287 0.13765 0.0
H1670 H 0.75496 0.81875 0.17338 0.0
H1671 H 0.75677 0.79577 0.15812 0.0
C1672 C 0.53737 0.49651 0.07925 0.0
C1673 C 0.54367 0.50779 0.06736 0.0
C1674 C 0.52386 0.49611 0.08182 0.0
C1675 C 0.49448 0.51689 0.0838 0.0
H1676 H 0.4776 0.48634 0.04548 0.0
C1677 C 0.44134 0.51631 0.03657 0.0
C1678 C 0.43396 0.50504 0.04198 0.0
C1679 C 0.45443 0.51663 0.04592 0.0
C1680 C 0.48214 0.49485 0.05688 0.0
H1681 H 0.54074 0.52759 0.04971 0.0
H1682 H 0.51723 0.52683 0.05367 0.0
H1683 H 0.5011 0.48689 0.05014 0.0
H1684 H 0.43441 0.48546 0.06301 0.0
H1685 H 0.45728 0.48606 0.07949 0.0
H1686 H 0.47548 0.52496 0.08959 0.0
C1687 C 0.5227 0.51834 0.06149 0.0
C1688 C 0.49563 0.49517 0.05956 0.0
C1689 C 0.5362 0.51875 0.05899 0.0
C1690 C 0.43984 0.49427 0.05831 0.0
C1691 C 0.45296 0.49458 0.06757 0.0
C1692 C 0.48098 0.51657 0.08105 0.0
C1693 C 0.51636 0.50697 0.07252 0.0
C1694 C 0.50197 0.50627 0.07254 0.0
C1695 C 0.46046 0.50569 0.06085 0.0
C1696 C 0.47467 0.50562 0.06706 0.0
H1697 H 0.54284 0.48792 0.08614 0.0
H1698 H 0.5193 0.48726 0.0909 0.0
H1699 H 0.49905 0.5255 0.09449 0.0
H1700 H 0.43711 0.52479 0.02411 0.0
H1701 H 0.45995 0.5253 0.04005 0.0
C1702 C 0.96156 0.48211 0.5576 0.0
C1703 C 0.95453 0.49315 0.5679 0.0
C1704 C 0.97508 0.48208 0.55893 0.0
C1705 C 0.00288 0.50438 0.55731 0.0
H1706 H 0.02227 0.47348 0.58195 0.0
C1707 C 0.05866 0.50326 0.55125 0.0
C1708 C 0.06393 0.49256 0.53305 0.0
C1709 C 0.04563 0.5033 0.56152 0.0
C1710 C 0.01698 0.48218 0.57492 0.0
H1711 H 0.95618 0.5127 0.58877 0.0
H1712 H 0.97978 0.51259 0.59147 0.0
H1713 H 0.99877 0.47368 0.58902 0.0
H1714 H 0.05981 0.47329 0.51282 0.0
H1715 H 0.03713 0.4734 0.53059 0.0
H1716 H 0.02104 0.5128 0.54259 0.0
C1717 C 0.97484 0.50402 0.58182 0.0
C1718 C 0.00353 0.48229 0.57891 0.0
C1719 C 0.96131 0.50406 0.58044 0.0
C1720 C 0.05605 0.48171 0.52671 0.0
C1721 C 0.04305 0.48173 0.5371 0.0
C1722 C 0.01633 0.50428 0.55341 0.0
C1723 C 0.98189 0.49308 0.57067 0.0
C1724 C 0.99629 0.49332 0.56956 0.0
C1725 C 0.03763 0.49262 0.55401 0.0
C1726 C 0.02352 0.49311 0.5616 0.0
H1727 H 0.95665 0.47355 0.54778 0.0
H1728 H 0.9802 0.47356 0.54967 0.0
H1729 H 0.9976 0.51298 0.54937 0.0
H1730 H 0.06448 0.51175 0.55668 0.0
H1731 H 0.04177 0.51177 0.57492 0.0
C1732 C 0.05997 0.50049 0.93303 0.0
C1733 C 0.06367 0.50817 0.96241 0.0
C1734 C 0.04705 0.50019 0.92172 0.0
C1735 C 0.0158 0.51774 0.9291 0.0
H1736 H 0.00061 0.48394 0.91226 0.0
C1737 C 0.96152 0.51177 0.89647 0.0
C1738 C 0.95507 0.50206 0.91595 0.0
C1739 C 0.97505 0.51237 0.89623 0.0
C1740 C 0.00471 0.49345 0.91686 0.0
H1741 H 0.05679 0.52188 0.0022 0.0
H1742 H 0.03435 0.52129 0.9827 0.0
H1743 H 0.02384 0.48578 0.92295 0.0
H1744 H 0.9578 0.4851 0.94946 0.0
H1745 H 0.98134 0.48623 0.94932 0.0
H1746 H 0.99661 0.52536 0.92452 0.0
C1747 C 0.0414 0.51558 0.96815 0.0
C1748 C 0.01804 0.49452 0.92259 0.0
C1749 C 0.05428 0.51584 0.9795 0.0
C1750 C 0.96245 0.49272 0.93421 0.0
C1751 C 0.97596 0.49331 0.93393 0.0
C1752 C 0.00248 0.51667 0.92332 0.0
C1753 C 0.0376 0.50763 0.93944 0.0
C1754 C 0.0237 0.50665 0.92948 0.0
C1755 C 0.98242 0.50325 0.91537 0.0
C1756 C 0.99674 0.50448 0.91782 0.0
H1757 H 0.06698 0.49449 0.91922 0.0
H1758 H 0.04444 0.49407 0.89928 0.0
H1759 H 0.01988 0.52724 0.9339 0.0
H1760 H 0.95612 0.51908 0.88195 0.0
H1761 H 0.97973 0.52005 0.8813 0.0
C1762 C 0.53592 0.50359 0.41581 0.0
C1763 C 0.54234 0.49325 0.4327 0.0
C1764 C 0.52241 0.50372 0.4133 0.0
C1765 C 0.49326 0.48281 0.4215 0.0
H1766 H 0.47602 0.51502 0.44561 0.0
C1767 C 0.44046 0.48535 0.4705 0.0
C1768 C 0.43275 0.4959 0.45995 0.0
C1769 C 0.45351 0.48476 0.46085 0.0
C1770 C 0.48066 0.506 0.43817 0.0
H1771 H 0.53959 0.47479 0.45945 0.0
H1772 H 0.51609 0.47512 0.45556 0.0
H1773 H 0.49952 0.51451 0.44047 0.0
H1774 H 0.43259 0.51385 0.42975 0.0
H1775 H 0.45543 0.51279 0.41282 0.0
H1776 H 0.47438 0.47424 0.42026 0.0
C1777 C 0.52147 0.48305 0.44378 0.0
C1778 C 0.49415 0.50571 0.43522 0.0
C1779 C 0.53497 0.4829 0.44624 0.0
C1780 C 0.43827 0.50562 0.43842 0.0
C1781 C 0.45137 0.50505 0.42889 0.0
C1782 C 0.47977 0.4831 0.42454 0.0
C1783 C 0.51502 0.49353 0.42764 0.0
C1784 C 0.50063 0.49406 0.42746 0.0
C1785 C 0.45918 0.49471 0.44049 0.0
C1786 C 0.47334 0.49465 0.43351 0.0
H1787 H 0.54132 0.51168 0.40491 0.0
H1788 H 0.51775 0.51186 0.40028 0.0
H1789 H 0.49793 0.47373 0.41484 0.0
H1790 H 0.43651 0.47769 0.48703 0.0
H1791 H 0.45928 0.47673 0.47055 0.0
loop_
_geom_bond_atom_site_label_1
_geom_bond_atom_site_label_2
_geom_bond_distance
_geom_bond_site_symmetry_2
_ccdc_geom_bond_type
O0 Cd1 2.300 . S
O0 C7 1.275 . S
Cd1 O0 2.300 . S
Cd1 O9 2.381 . S
Cd1 O10 2.378 . S
O2 Cd3 2.385 . S
O2 C7 1.255 . S
Cd3 O2 2.385 . S
Cd3 O4 2.317 . S
O4 Cd3 2.317 . S
O4 C5 1.232 . S
C5 O4 1.232 . S
C5 O6 1.218 . S
O6 C5 1.218 . S
C7 O0 1.275 . S
C7 O2 1.255 . S
C8 O9 1.258 . S
C8 O10 1.256 . S
O9 Cd1 2.381 . S
O9 C8 1.258 . S
O10 Cd1 2.378 . S
O10 C8 1.256 . S
O11 Cd12 2.300 . S
O11 C18 1.275 . S
Cd12 O11 2.300 . S
Cd12 O20 2.381 . S
Cd12 O21 2.378 . S
O13 Cd14 2.385 . S
O13 C18 1.255 . S
Cd14 O13 2.385 . S
Cd14 O15 2.317 . S
O15 Cd14 2.317 . S
O15 C16 1.232 . S
C16 O15 1.232 . S
C16 O17 1.218 . S
O17 C16 1.218 . S
C18 O11 1.275 . S
C18 O13 1.255 . S
C19 O20 1.258 . S
C19 O21 1.256 . S
O20 Cd12 2.381 . S
O20 C19 1.258 . S
O21 Cd12 2.378 . S
O21 C19 1.256 . S
O22 Cd23 2.300 . S
O22 C29 1.275 . S
Cd23 O22 2.300 . S
Cd23 O31 2.381 . S
Cd23 O32 2.378 . S
O24 Cd25 2.385 . S
O24 C29 1.255 . S
Cd25 O24 2.385 . S
Cd25 O26 2.317 . S
O26 Cd25 2.317 . S
O26 C27 1.232 . S
C27 O26 1.232 . S
C27 O28 1.218 . S
O28 C27 1.218 . S
C29 O22 1.275 . S
C29 O24 1.255 . S
C30 O31 1.258 . S
C30 O32 1.256 . S
O31 Cd23 2.381 . S
O31 C30 1.258 . S
O32 Cd23 2.378 . S
O32 C30 1.256 . S
O33 Cd34 2.300 . S
O33 C40 1.275 . S
Cd34 O33 2.300 . S
Cd34 O42 2.381 1_554 S
Cd34 O43 2.378 1_554 S
O35 Cd36 2.385 . S
O35 C40 1.255 . S
Cd36 O35 2.385 . S
Cd36 O37 2.317 1_554 S
O37 Cd36 2.317 1_556 S
O37 C38 1.232 1_556 S
C38 O37 1.232 1_554 S
C38 O39 1.218 . S
O39 C38 1.218 . S
C40 O33 1.275 . S
C40 O35 1.255 . S
C41 O42 1.258 . S
C41 O43 1.256 . S
O42 Cd34 2.381 1_556 S
O42 C41 1.258 . S
O43 Cd34 2.378 1_556 S
O43 C41 1.256 . S
O44 Cd45 2.300 . S
O44 C51 1.275 . S
Cd45 O44 2.300 . S
Cd45 O53 2.381 . S
Cd45 O54 2.378 . S
O46 Cd47 2.385 . S
O46 C51 1.255 . S
Cd47 O46 2.385 . S
Cd47 O48 2.317 . S
O48 Cd47 2.317 . S
O48 C49 1.232 . S
C49 O48 1.232 . S
C49 O50 1.218 . S
O50 C49 1.218 . S
C51 O44 1.275 . S
C51 O46 1.255 . S
C52 O53 1.258 . S
C52 O54 1.256 . S
O53 Cd45 2.381 . S
O53 C52 1.258 . S
O54 Cd45 2.378 . S
O54 C52 1.256 . S
O55 Cd56 2.300 . S
O55 C62 1.275 . S
Cd56 O55 2.300 . S
Cd56 O64 2.381 . S
Cd56 O65 2.378 . S
O57 Cd58 2.385 . S
O57 C62 1.255 . S
Cd58 O57 2.385 . S
Cd58 O59 2.317 . S
O59 Cd58 2.317 . S
O59 C60 1.232 . S
C60 O59 1.232 . S
C60 O61 1.218 . S
O61 C60 1.218 . S
C62 O55 1.275 . S
C62 O57 1.255 . S
C63 O64 1.258 . S
C63 O65 1.256 . S
O64 Cd56 2.381 . S
O64 C63 1.258 . S
O65 Cd56 2.378 . S
O65 C63 1.256 . S
O66 Cd67 2.300 . S
O66 C73 1.275 . S
Cd67 O66 2.300 . S
Cd67 O75 2.381 . S
Cd67 O76 2.378 . S
O68 Cd69 2.385 . S
O68 C73 1.255 . S
Cd69 O68 2.385 . S
Cd69 O70 2.317 . S
O70 Cd69 2.317 . S
O70 C71 1.232 . S
C71 O70 1.232 . S
C71 O72 1.218 . S
O72 C71 1.218 . S
C73 O66 1.275 . S
C73 O68 1.255 . S
C74 O75 1.258 . S
C74 O76 1.256 . S
O75 Cd67 2.381 . S
O75 C74 1.258 . S
O76 Cd67 2.378 . S
O76 C74 1.256 . S
O77 Cd78 2.300 . S
O77 C84 1.275 . S
Cd78 O77 2.300 . S
Cd78 O86 2.381 1_556 S
Cd78 O87 2.378 1_556 S
O79 Cd80 2.385 . S
O79 C84 1.255 . S
Cd80 O79 2.385 . S
Cd80 O81 2.317 1_556 S
O81 Cd80 2.317 1_554 S
O81 C82 1.232 1_554 S
C82 O81 1.232 1_556 S
C82 O83 1.218 . S
O83 C82 1.218 . S
C84 O77 1.275 . S
C84 O79 1.255 . S
C85 O86 1.258 . S
C85 O87 1.256 . S
O86 Cd78 2.381 1_554 S
O86 C85 1.258 . S
O87 Cd78 2.378 1_554 S
O87 C85 1.256 . S
O88 Cd89 2.300 . S
O88 C95 1.275 . S
Cd89 O88 2.300 . S
Cd89 O97 2.381 . S
Cd89 O98 2.378 . S
O90 Cd91 2.385 . S
O90 C95 1.255 . S
Cd91 O90 2.385 . S
Cd91 O92 2.317 . S
O92 Cd91 2.317 . S
O92 C93 1.232 . S
C93 O92 1.232 . S
C93 O94 1.218 . S
O94 C93 1.218 . S
C95 O88 1.275 . S
C95 O90 1.255 . S
C96 O97 1.258 . S
C96 O98 1.256 . S
O97 Cd89 2.381 . S
O97 C96 1.258 . S
O98 Cd89 2.378 . S
O98 C96 1.256 . S
O99 Cd100 2.300 . S
O99 C106 1.275 . S
Cd100 O99 2.300 . S
Cd100 O108 2.381 . S
Cd100 O109 2.378 . S
O101 Cd102 2.385 . S
O101 C106 1.255 1_565 S
Cd102 O101 2.385 . S
Cd102 O103 2.353 . S
O103 Cd102 2.353 . S
O103 C104 1.241 . S
C104 O103 1.241 . S
C104 O105 1.218 . S
O105 C104 1.218 . S
C106 O99 1.275 . S
C106 O101 1.255 1_545 S
C107 O108 1.258 . S
C107 O109 1.256 . S
O108 Cd100 2.381 . S
O108 C107 1.258 . S
O109 Cd100 2.378 . S
O109 C107 1.256 . S
O110 Cd111 2.300 . S
O110 C117 1.275 . S
Cd111 O110 2.300 . S
Cd111 O119 2.381 . S
Cd111 O120 2.378 . S
O112 Cd113 2.385 . S
O112 C117 1.255 . S
Cd113 O112 2.385 . S
Cd113 O114 2.317 . S
O114 Cd113 2.317 . S
O114 C115 1.232 . S
C115 O114 1.232 . S
C115 O116 1.218 . S
O116 C115 1.218 . S
C117 O110 1.275 . S
C117 O112 1.255 . S
C118 O119 1.258 . S
C118 O120 1.256 . S
O119 Cd111 2.381 . S
O119 C118 1.258 . S
O120 Cd111 2.378 . S
O120 C118 1.256 . S
O121 Cd122 2.300 1_556 S
O121 C128 1.275 . S
Cd122 O121 2.300 1_554 S
Cd122 O130 2.381 . S
Cd122 O131 2.378 . S
O123 Cd124 2.385 1_556 S
O123 C128 1.255 1_545 S
Cd124 O123 2.385 1_554 S
Cd124 O125 2.354 . S
O125 Cd124 2.354 . S
O125 C126 1.242 . S
C126 O125 1.242 . S
C126 O127 1.218 1_554 S
O127 C126 1.218 1_556 S
C128 O121 1.275 . S
C128 O123 1.255 1_565 S
C129 O130 1.258 . S
C129 O131 1.256 . S
O130 Cd122 2.381 . S
O130 C129 1.258 . S
O131 Cd122 2.378 . S
O131 C129 1.256 . S
O132 Cd133 2.300 . S
O132 C139 1.275 . S
Cd133 O132 2.300 . S
Cd133 O141 2.381 . S
Cd133 O142 2.378 . S
O134 Cd135 2.385 . S
O134 C139 1.255 . S
Cd135 O134 2.385 . S
Cd135 O136 2.317 . S
O136 Cd135 2.317 . S
O136 C137 1.232 . S
C137 O136 1.232 . S
C137 O138 1.218 . S
O138 C137 1.218 . S
C139 O132 1.275 . S
C139 O134 1.255 . S
C140 O141 1.258 . S
C140 O142 1.256 . S
O141 Cd133 2.381 . S
O141 C140 1.258 . S
O142 Cd133 2.378 . S
O142 C140 1.256 . S
O143 Cd144 2.300 . S
O143 C150 1.275 . S
Cd144 O143 2.300 . S
Cd144 O152 2.381 . S
Cd144 O153 2.378 . S
O145 Cd146 2.385 . S
O145 C150 1.255 1_565 S
Cd146 O145 2.385 . S
Cd146 O147 2.354 . S
O147 Cd146 2.354 . S
O147 C148 1.242 . S
C148 O147 1.242 . S
C148 O149 1.218 . S
O149 C148 1.218 . S
C150 O143 1.275 . S
C150 O145 1.255 1_545 S
C151 O152 1.258 . S
C151 O153 1.256 . S
O152 Cd144 2.381 . S
O152 C151 1.258 . S
O153 Cd144 2.378 . S
O153 C151 1.256 . S
O154 Cd155 2.300 . S
O154 C161 1.275 . S
Cd155 O154 2.300 . S
Cd155 O163 2.381 . S
Cd155 O164 2.378 . S
O156 Cd157 2.385 . S
O156 C161 1.255 . S
Cd157 O156 2.385 . S
Cd157 O158 2.317 . S
O158 Cd157 2.317 . S
O158 C159 1.232 . S
C159 O158 1.232 . S
C159 O160 1.218 . S
O160 C159 1.218 . S
C161 O154 1.275 . S
C161 O156 1.255 . S
C162 O163 1.258 . S
C162 O164 1.256 . S
O163 Cd155 2.381 . S
O163 C162 1.258 . S
O164 Cd155 2.378 . S
O164 C162 1.256 . S
O165 Cd166 2.300 1_554 S
O165 C172 1.275 . S
Cd166 O165 2.300 1_556 S
Cd166 O174 2.381 . S
Cd166 O175 2.378 . S
O167 Cd168 2.385 1_554 S
O167 C172 1.255 1_545 S
Cd168 O167 2.385 1_556 S
Cd168 O169 2.355 . S
O169 Cd168 2.355 . S
O169 C170 1.242 . S
C170 O169 1.242 . S
C170 O171 1.218 1_556 S
O171 C170 1.218 1_554 S
C172 O165 1.275 . S
C172 O167 1.255 1_565 S
C173 O174 1.258 . S
C173 O175 1.256 . S
O174 Cd166 2.381 . S
O174 C173 1.258 . S
O175 Cd166 2.378 . S
O175 C173 1.256 . S
O176 Cd177 2.300 . S
O176 C183 1.275 . S
Cd177 O176 2.300 . S
Cd177 O185 2.381 . S
Cd177 O186 2.378 . S
O178 Cd179 2.385 . S
O178 C183 1.255 . S
Cd179 O178 2.385 . S
Cd179 O180 2.317 . S
O180 Cd179 2.317 . S
O180 C181 1.232 . S
C181 O180 1.232 . S
C181 O182 1.218 . S
O182 C181 1.218 . S
C183 O176 1.275 . S
C183 O178 1.255 . S
C184 O185 1.258 . S
C184 O186 1.256 . S
O185 Cd177 2.381 . S
O185 C184 1.258 . S
O186 Cd177 2.378 . S
O186 C184 1.256 . S
O187 Cd188 2.300 . S
O187 C194 1.275 . S
Cd188 O187 2.300 . S
Cd188 O196 2.381 1_554 S
Cd188 O197 2.378 1_554 S
O189 Cd190 2.385 . S
O189 C194 1.255 . S
Cd190 O189 2.385 . S
Cd190 O191 2.317 1_554 S
O191 Cd190 2.317 1_556 S
O191 C192 1.232 1_556 S
C192 O191 1.232 1_554 S
C192 O193 1.218 . S
O193 C192 1.218 . S
C194 O187 1.275 . S
C194 O189 1.255 . S
C195 O196 1.258 . S
C195 O197 1.256 . S
O196 Cd188 2.381 1_556 S
O196 C195 1.258 . S
O197 Cd188 2.378 1_556 S
O197 C195 1.256 . S
O198 Cd199 2.300 . S
O198 C205 1.275 . S
Cd199 O198 2.300 . S
Cd199 O207 2.381 . S
Cd199 O208 2.378 . S
O200 Cd201 2.385 . S
O200 C205 1.255 . S
Cd201 O200 2.385 . S
Cd201 O202 2.317 . S
O202 Cd201 2.317 . S
O202 C203 1.232 . S
C203 O202 1.232 . S
C203 O204 1.218 . S
O204 C203 1.218 . S
C205 O198 1.275 . S
C205 O200 1.255 . S
C206 O207 1.258 . S
C206 O208 1.256 . S
O207 Cd199 2.381 . S
O207 C206 1.258 . S
O208 Cd199 2.378 . S
O208 C206 1.256 . S
O209 Cd210 2.300 . S
O209 C216 1.275 . S
Cd210 O209 2.300 . S
Cd210 O218 2.381 . S
Cd210 O219 2.378 . S
O211 Cd212 2.385 . S
O211 C216 1.255 . S
Cd212 O211 2.385 . S
Cd212 O213 2.317 . S
O213 Cd212 2.317 . S
O213 C214 1.232 . S
C214 O213 1.232 . S
C214 O215 1.218 . S
O215 C214 1.218 . S
C216 O209 1.275 . S
C216 O211 1.255 . S
C217 O218 1.258 . S
C217 O219 1.256 . S
O218 Cd210 2.381 . S
O218 C217 1.258 . S
O219 Cd210 2.378 . S
O219 C217 1.256 . S
O220 Cd221 2.300 . S
O220 C227 1.275 . S
Cd221 O220 2.300 . S
Cd221 O229 2.381 . S
Cd221 O230 2.378 . S
O222 Cd223 2.385 . S
O222 C227 1.255 . S
Cd223 O222 2.385 . S
Cd223 O224 2.317 . S
O224 Cd223 2.317 . S
O224 C225 1.232 . S
C225 O224 1.232 . S
C225 O226 1.218 . S
O226 C225 1.218 . S
C227 O220 1.275 . S
C227 O222 1.255 . S
C228 O229 1.258 . S
C228 O230 1.256 . S
O229 Cd221 2.381 . S
O229 C228 1.258 . S
O230 Cd221 2.378 . S
O230 C228 1.256 . S
O231 Cd232 2.300 . S
O231 C238 1.275 . S
Cd232 O231 2.300 . S
Cd232 O240 2.381 1_556 S
Cd232 O241 2.378 1_556 S
O233 Cd234 2.385 . S
O233 C238 1.255 . S
Cd234 O233 2.385 . S
Cd234 O235 2.317 1_556 S
O235 Cd234 2.317 1_554 S
O235 C236 1.232 1_554 S
C236 O235 1.232 1_556 S
C236 O237 1.218 . S
O237 C236 1.218 . S
C238 O231 1.275 . S
C238 O233 1.255 . S
C239 O240 1.258 . S
C239 O241 1.256 . S
O240 Cd232 2.381 1_554 S
O240 C239 1.258 . S
O241 Cd232 2.378 1_554 S
O241 C239 1.256 . S
O242 Cd243 2.300 . S
O242 C249 1.275 . S
Cd243 O242 2.300 . S
Cd243 O251 2.381 . S
Cd243 O252 2.378 . S
O244 Cd245 2.385 . S
O244 C249 1.255 . S
Cd245 O244 2.385 . S
Cd245 O246 2.317 . S
O246 Cd245 2.317 . S
O246 C247 1.232 . S
C247 O246 1.232 . S
C247 O248 1.218 . S
O248 C247 1.218 . S
C249 O242 1.275 . S
C249 O244 1.255 . S
C250 O251 1.258 . S
C250 O252 1.256 . S
O251 Cd243 2.381 . S
O251 C250 1.258 . S
O252 Cd243 2.378 . S
O252 C250 1.256 . S
O253 Cd254 2.300 . S
O253 C260 1.275 . S
Cd254 O253 2.300 . S
Cd254 O262 2.381 . S
Cd254 O263 2.378 . S
O255 Cd256 2.385 . S
O255 C260 1.255 . S
Cd256 O255 2.385 . S
Cd256 O257 2.317 . S
O257 Cd256 2.317 . S
O257 C258 1.232 . S
C258 O257 1.232 . S
C258 O259 1.218 . S
O259 C258 1.218 . S
C260 O253 1.275 . S
C260 O255 1.255 . S
C261 O262 1.258 . S
C261 O263 1.256 . S
O262 Cd254 2.381 . S
O262 C261 1.258 . S
O263 Cd254 2.378 . S
O263 C261 1.256 . S
O264 Cd265 2.300 . S
O264 C271 1.275 . S
Cd265 O264 2.300 . S
Cd265 O273 2.381 . S
Cd265 O274 2.378 . S
O266 Cd267 2.385 . S
O266 C271 1.255 . S
Cd267 O266 2.385 . S
Cd267 O268 2.317 . S
O268 Cd267 2.317 . S
O268 C269 1.232 . S
C269 O268 1.232 . S
C269 O270 1.218 . S
O270 C269 1.218 . S
C271 O264 1.275 . S
C271 O266 1.255 . S
C272 O273 1.258 . S
C272 O274 1.256 . S
O273 Cd265 2.381 . S
O273 C272 1.258 . S
O274 Cd265 2.378 . S
O274 C272 1.256 . S
O275 Cd276 2.300 1_556 S
O275 C282 1.275 . S
Cd276 O275 2.300 1_554 S
Cd276 O284 2.381 . S
Cd276 O285 2.378 . S
O277 Cd278 2.385 1_556 S
O277 C282 1.255 . S
Cd278 O277 2.385 1_554 S
Cd278 O279 2.317 . S
O279 Cd278 2.317 . S
O279 C280 1.232 . S
C280 O279 1.232 . S
C280 O281 1.218 1_554 S
O281 C280 1.218 1_556 S
C282 O275 1.275 . S
C282 O277 1.255 . S
C283 O284 1.258 . S
C283 O285 1.256 . S
O284 Cd276 2.381 . S
O284 C283 1.258 . S
O285 Cd276 2.378 . S
O285 C283 1.256 . S
O286 Cd287 2.300 . S
O286 C293 1.275 . S
Cd287 O286 2.300 . S
Cd287 O295 2.381 . S
Cd287 O296 2.378 . S
O288 Cd289 2.385 . S
O288 C293 1.255 . S
Cd289 O288 2.385 . S
Cd289 O290 2.317 . S
O290 Cd289 2.317 . S
O290 C291 1.232 . S
C291 O290 1.232 . S
C291 O292 1.218 . S
O292 C291 1.218 . S
C293 O286 1.275 . S
C293 O288 1.255 . S
C294 O295 1.258 . S
C294 O296 1.256 . S
O295 Cd287 2.381 . S
O295 C294 1.258 . S
O296 Cd287 2.378 . S
O296 C294 1.256 . S
O297 Cd298 2.300 . S
O297 C304 1.275 . S
Cd298 O297 2.300 . S
Cd298 O306 2.381 . S
Cd298 O307 2.378 . S
O299 Cd300 2.385 . S
O299 C304 1.255 . S
Cd300 O299 2.385 . S
Cd300 O301 2.317 . S
O301 Cd300 2.317 . S
O301 C302 1.232 . S
C302 O301 1.232 . S
C302 O303 1.218 . S
O303 C302 1.218 . S
C304 O297 1.275 . S
C304 O299 1.255 . S
C305 O306 1.258 . S
C305 O307 1.256 . S
O306 Cd298 2.381 . S
O306 C305 1.258 . S
O307 Cd298 2.378 . S
O307 C305 1.256 . S
O308 Cd309 2.300 . S
O308 C315 1.275 . S
Cd309 O308 2.300 . S
Cd309 O317 2.381 . S
Cd309 O318 2.378 . S
O310 Cd311 2.385 . S
O310 C315 1.255 . S
Cd311 O310 2.385 . S
Cd311 O312 2.317 . S
O312 Cd311 2.317 . S
O312 C313 1.232 . S
C313 O312 1.232 . S
C313 O314 1.218 . S
O314 C313 1.218 . S
C315 O308 1.275 . S
C315 O310 1.255 . S
C316 O317 1.258 . S
C316 O318 1.256 . S
O317 Cd309 2.381 . S
O317 C316 1.258 . S
O318 Cd309 2.378 . S
O318 C316 1.256 . S
O319 Cd320 2.300 1_554 S
O319 C326 1.275 . S
Cd320 O319 2.300 1_556 S
Cd320 O328 2.381 . S
Cd320 O329 2.378 . S
O321 Cd322 2.385 1_554 S
O321 C326 1.255 . S
Cd322 O321 2.385 1_556 S
Cd322 O323 2.317 . S
O323 Cd322 2.317 . S
O323 C324 1.232 . S
C324 O323 1.232 . S
C324 O325 1.218 1_556 S
O325 C324 1.218 1_554 S
C326 O319 1.275 . S
C326 O321 1.255 . S
C327 O328 1.258 . S
C327 O329 1.256 . S
O328 Cd320 2.381 . S
O328 C327 1.258 . S
O329 Cd320 2.378 . S
O329 C327 1.256 . S
O330 Cd331 2.300 . S
O330 C337 1.275 . S
Cd331 O330 2.300 . S
Cd331 O339 2.381 . S
Cd331 O340 2.378 . S
O332 Cd333 2.385 . S
O332 C337 1.255 . S
Cd333 O332 2.385 . S
Cd333 O334 2.317 . S
O334 Cd333 2.317 . S
O334 C335 1.232 . S
C335 O334 1.232 . S
C335 O336 1.218 . S
O336 C335 1.218 . S
C337 O330 1.275 . S
C337 O332 1.255 . S
C338 O339 1.258 . S
C338 O340 1.256 . S
O339 Cd331 2.381 . S
O339 C338 1.258 . S
O340 Cd331 2.378 . S
O340 C338 1.256 . S
O341 Cd342 2.300 . S
O341 C348 1.275 . S
Cd342 O341 2.300 . S
Cd342 O350 2.381 . S
Cd342 O351 2.378 . S
O343 Cd344 2.385 . S
O343 C348 1.255 . S
Cd344 O343 2.385 . S
Cd344 O345 2.317 . S
O345 Cd344 2.317 . S
O345 C346 1.232 . S
C346 O345 1.232 . S
C346 O347 1.218 . S
O347 C346 1.218 . S
C348 O341 1.275 . S
C348 O343 1.255 . S
C349 O350 1.258 . S
C349 O351 1.256 . S
O350 Cd342 2.381 . S
O350 C349 1.258 . S
O351 Cd342 2.378 . S
O351 C349 1.256 . S
C352 C353 1.349 . S
C352 C354 1.327 . S
C352 H377 0.950 . S
C353 C352 1.349 . S
C353 C369 1.349 . S
C354 C352 1.327 . S
C354 C373 1.429 . S
C354 H378 0.950 . S
C355 C372 1.574 . S
C355 C374 1.368 . S
C355 H379 0.949 . S
H356 C360 0.949 . S
C357 C358 1.349 . S
C357 C359 1.327 . S
C357 H380 0.950 . S
C358 C357 1.349 . S
C358 C370 1.349 . S
C359 C357 1.327 . S
C359 C375 1.429 . S
C359 H381 0.950 . S
C360 H356 0.949 . S
C360 C368 1.574 . S
C360 C376 1.368 . S
H361 C369 0.950 . S
H362 C367 0.950 . S
H363 C368 0.949 . S
H364 C370 0.950 . S
H365 C371 0.950 . S
H366 C372 0.949 . S
C367 H362 0.950 . S
C367 C369 1.327 . S
C367 C373 1.429 . S
C368 C360 1.574 . S
C368 H363 0.949 . S
C368 C374 1.368 . S
C369 C353 1.349 . S
C369 H361 0.950 . S
C369 C367 1.327 . S
C370 C358 1.349 . S
C370 H364 0.950 . S
C370 C371 1.327 . S
C371 H365 0.950 . S
C371 C370 1.327 . S
C371 C375 1.429 . S
C372 C355 1.574 . S
C372 H366 0.949 . S
C372 C376 1.368 . S
C373 C354 1.429 . S
C373 C367 1.429 . S
C373 C374 1.523 . S
C374 C355 1.368 . S
C374 C368 1.368 . S
C374 C373 1.523 . S
C375 C359 1.429 . S
C375 C371 1.429 . S
C375 C376 1.523 . S
C376 C360 1.368 . S
C376 C372 1.368 . S
C376 C375 1.523 . S
H377 C352 0.950 . S
H378 C354 0.950 . S
H379 C355 0.949 . S
H380 C357 0.950 . S
H381 C359 0.950 . S
C382 C383 1.349 . S
C382 C384 1.327 . S
C382 H407 0.950 . S
C383 C382 1.349 . S
C383 C399 1.349 1_565 S
C384 C382 1.327 . S
C384 C403 1.429 . S
C384 H408 0.950 . S
C385 C402 1.574 . S
C385 C404 1.300 1_545 S
C385 H409 0.949 . S
H386 C390 0.949 . S
C387 C388 1.349 . S
C387 C389 1.327 . S
C387 H410 0.950 . S
C388 C387 1.349 . S
C388 C400 1.349 1_545 S
C389 C387 1.327 . S
C389 C405 1.429 . S
C389 H411 0.950 . S
C390 H386 0.949 . S
C390 C398 1.574 . S
C390 C406 1.301 1_565 S
H391 C399 0.950 . S
H392 C397 0.950 . S
H393 C398 0.949 . S
H394 C400 0.950 . S
H395 C401 0.950 . S
H396 C402 0.949 . S
C397 H392 0.950 . S
C397 C399 1.327 . S
C397 C403 1.429 1_545 S
C398 C390 1.574 . S
C398 H393 0.949 . S
C398 C404 1.434 . S
C399 C383 1.349 1_545 S
C399 H391 0.950 . S
C399 C397 1.327 . S
C400 C388 1.349 1_565 S
C400 H394 0.950 . S
C400 C401 1.327 . S
C401 H395 0.950 . S
C401 C400 1.327 . S
C401 C405 1.429 1_565 S
C402 C385 1.574 . S
C402 H396 0.949 . S
C402 C406 1.432 . S
C403 C384 1.429 . S
C403 C397 1.429 1_565 S
C403 C404 1.531 . S
C404 C385 1.300 1_565 S
C404 C398 1.434 . S
C404 C403 1.531 . S
C405 C389 1.429 . S
C405 C401 1.429 1_545 S
C405 C406 1.531 . S
C406 C390 1.301 1_545 S
C406 C402 1.432 . S
C406 C405 1.531 . S
H407 C382 0.950 . S
H408 C384 0.950 . S
H409 C385 0.949 . S
H410 C387 0.950 . S
H411 C389 0.950 . S
C412 C413 1.349 . S
C412 C414 1.327 . S
C412 H437 0.950 . S
C413 C412 1.349 . S
C413 C429 1.349 . S
C414 C412 1.327 . S
C414 C433 1.429 . S
C414 H438 0.950 . S
C415 C432 1.574 1_556 S
C415 C434 1.368 . S
C415 H439 0.949 . S
H416 C420 0.949 . S
C417 C418 1.349 . S
C417 C419 1.327 . S
C417 H440 0.950 . S
C418 C417 1.349 . S
C418 C430 1.349 . S
C419 C417 1.327 . S
C419 C435 1.429 . S
C419 H441 0.950 . S
C420 H416 0.949 . S
C420 C428 1.574 1_554 S
C420 C436 1.368 . S
H421 C429 0.950 . S
H422 C427 0.950 . S
H423 C428 0.949 . S
H424 C430 0.950 . S
H425 C431 0.950 . S
H426 C432 0.949 . S
C427 H422 0.950 . S
C427 C429 1.327 . S
C427 C433 1.429 . S
C428 C420 1.574 1_556 S
C428 H423 0.949 . S
C428 C434 1.368 . S
C429 C413 1.349 . S
C429 H421 0.950 . S
C429 C427 1.327 . S
C430 C418 1.349 . S
C430 H424 0.950 . S
C430 C431 1.327 . S
C431 H425 0.950 . S
C431 C430 1.327 . S
C431 C435 1.429 . S
C432 C415 1.574 1_554 S
C432 H426 0.949 . S
C432 C436 1.368 . S
C433 C414 1.429 . S
C433 C427 1.429 . S
C433 C434 1.523 . S
C434 C415 1.368 . S
C434 C428 1.368 . S
C434 C433 1.523 . S
C435 C419 1.429 . S
C435 C431 1.429 . S
C435 C436 1.523 . S
C436 C420 1.368 . S
C436 C432 1.368 . S
C436 C435 1.523 . S
H437 C412 0.950 . S
H438 C414 0.950 . S
H439 C415 0.949 . S
H440 C417 0.950 . S
H441 C419 0.950 . S
C442 C443 1.349 . S
C442 C444 1.327 . S
C442 H467 0.950 . S
C443 C442 1.349 . S
C443 C459 1.349 1_545 S
C444 C442 1.327 . S
C444 C463 1.429 . S
C444 H468 0.950 . S
C445 C462 1.574 . S
C445 C464 1.305 1_565 S
C445 H469 0.949 . S
H446 C450 0.949 . S
C447 C448 1.349 . S
C447 C449 1.327 . S
C447 H470 0.950 . S
C448 C447 1.349 . S
C448 C460 1.349 1_565 S
C449 C447 1.327 . S
C449 C465 1.429 . S
C449 H471 0.950 . S
C450 H446 0.949 . S
C450 C458 1.574 . S
C450 C466 1.305 1_545 S
H451 C459 0.950 . S
H452 C457 0.950 . S
H453 C458 0.949 . S
H454 C460 0.950 . S
H455 C461 0.950 . S
H456 C462 0.949 . S
C457 H452 0.950 . S
C457 C459 1.327 . S
C457 C463 1.429 1_565 S
C458 C450 1.574 . S
C458 H453 0.949 . S
C458 C464 1.430 . S
C459 C443 1.349 1_565 S
C459 H451 0.950 . S
C459 C457 1.327 . S
C460 C448 1.349 1_545 S
C460 H454 0.950 . S
C460 C461 1.327 . S
C461 H455 0.950 . S
C461 C460 1.327 . S
C461 C465 1.429 1_545 S
C462 C445 1.574 . S
C462 H456 0.949 . S
C462 C466 1.429 . S
C463 C444 1.429 . S
C463 C457 1.429 1_545 S
C463 C464 1.531 . S
C464 C445 1.305 1_545 S
C464 C458 1.430 . S
C464 C463 1.531 . S
C465 C449 1.429 . S
C465 C461 1.429 1_565 S
C465 C466 1.531 . S
C466 C450 1.305 1_565 S
C466 C462 1.429 . S
C466 C465 1.531 . S
H467 C442 0.950 . S
H468 C444 0.950 . S
H469 C445 0.949 . S
H470 C447 0.950 . S
H471 C449 0.950 . S
C472 C473 1.349 . S
C472 C474 1.327 . S
C472 H497 0.950 . S
C473 C472 1.349 . S
C473 C489 1.349 . S
C474 C472 1.327 . S
C474 C493 1.429 . S
C474 H498 0.950 . S
C475 C492 1.574 . S
C475 C494 1.368 . S
C475 H499 0.949 . S
H476 C480 0.949 . S
C477 C478 1.349 . S
C477 C479 1.327 . S
C477 H500 0.950 . S
C478 C477 1.349 . S
C478 C490 1.349 . S
C479 C477 1.327 . S
C479 C495 1.429 . S
C479 H501 0.950 . S
C480 H476 0.949 . S
C480 C488 1.574 . S
C480 C496 1.368 . S
H481 C489 0.950 . S
H482 C487 0.950 . S
H483 C488 0.949 . S
H484 C490 0.950 . S
H485 C491 0.950 . S
H486 C492 0.949 . S
C487 H482 0.950 . S
C487 C489 1.327 . S
C487 C493 1.429 . S
C488 C480 1.574 . S
C488 H483 0.949 . S
C488 C494 1.368 . S
C489 C473 1.349 . S
C489 H481 0.950 . S
C489 C487 1.327 . S
C490 C478 1.349 . S
C490 H484 0.950 . S
C490 C491 1.327 . S
C491 H485 0.950 . S
C491 C490 1.327 . S
C491 C495 1.429 . S
C492 C475 1.574 . S
C492 H486 0.949 . S
C492 C496 1.368 . S
C493 C474 1.429 . S
C493 C487 1.429 . S
C493 C494 1.523 . S
C494 C475 1.368 . S
C494 C488 1.368 . S
C494 C493 1.523 . S
C495 C479 1.429 . S
C495 C491 1.429 . S
C495 C496 1.523 . S
C496 C480 1.368 . S
C496 C492 1.368 . S
C496 C495 1.523 . S
H497 C472 0.950 . S
H498 C474 0.950 . S
H499 C475 0.949 . S
H500 C477 0.950 . S
H501 C479 0.950 . S
C502 C503 1.349 . S
C502 C504 1.327 . S
C502 H527 0.950 . S
C503 C502 1.349 . S
C503 C519 1.349 1_565 S
C504 C502 1.327 . S
C504 C523 1.429 . S
C504 H528 0.950 . S
C505 C522 1.574 . S
C505 C524 1.302 1_545 S
C505 H529 0.949 . S
H506 C510 0.949 . S
C507 C508 1.349 . S
C507 C509 1.327 . S
C507 H530 0.950 . S
C508 C507 1.349 . S
C508 C520 1.349 1_545 S
C509 C507 1.327 . S
C509 C525 1.429 . S
C509 H531 0.950 . S
C510 H506 0.949 . S
C510 C518 1.574 . S
C510 C526 1.300 1_565 S
H511 C519 0.950 . S
H512 C517 0.950 . S
H513 C518 0.949 . S
H514 C520 0.950 . S
H515 C521 0.950 . S
H516 C522 0.949 . S
C517 H512 0.950 . S
C517 C519 1.327 . S
C517 C523 1.429 1_545 S
C518 C510 1.574 . S
C518 H513 0.949 . S
C518 C524 1.432 . S
C519 C503 1.349 1_545 S
C519 H511 0.950 . S
C519 C517 1.327 . S
C520 C508 1.349 1_565 S
C520 H514 0.950 . S
C520 C521 1.327 . S
C521 H515 0.950 . S
C521 C520 1.327 . S
C521 C525 1.429 1_565 S
C522 C505 1.574 . S
C522 H516 0.949 . S
C522 C526 1.434 . S
C523 C504 1.429 . S
C523 C517 1.429 1_565 S
C523 C524 1.531 . S
C524 C505 1.302 1_565 S
C524 C518 1.432 . S
C524 C523 1.531 . S
C525 C509 1.429 . S
C525 C521 1.429 1_545 S
C525 C526 1.531 . S
C526 C510 1.300 1_545 S
C526 C522 1.434 . S
C526 C525 1.531 . S
H527 C502 0.950 . S
H528 C504 0.950 . S
H529 C505 0.949 . S
H530 C507 0.950 . S
H531 C509 0.950 . S
C532 C533 1.349 . S
C532 C534 1.327 . S
C532 H557 0.950 . S
C533 C532 1.349 . S
C533 C549 1.349 . S
C534 C532 1.327 . S
C534 C553 1.429 . S
C534 H558 0.950 . S
C535 C552 1.574 1_556 S
C535 C554 1.368 . S
C535 H559 0.949 . S
H536 C540 0.949 . S
C537 C538 1.349 . S
C537 C539 1.327 . S
C537 H560 0.950 . S
C538 C537 1.349 . S
C538 C550 1.349 . S
C539 C537 1.327 . S
C539 C555 1.429 . S
C539 H561 0.950 . S
C540 H536 0.949 . S
C540 C548 1.574 1_554 S
C540 C556 1.368 . S
H541 C549 0.950 . S
H542 C547 0.950 . S
H543 C548 0.949 . S
H544 C550 0.950 . S
H545 C551 0.950 . S
H546 C552 0.949 . S
C547 H542 0.950 . S
C547 C549 1.327 . S
C547 C553 1.429 . S
C548 C540 1.574 1_556 S
C548 H543 0.949 . S
C548 C554 1.368 . S
C549 C533 1.349 . S
C549 H541 0.950 . S
C549 C547 1.327 . S
C550 C538 1.349 . S
C550 H544 0.950 . S
C550 C551 1.327 . S
C551 H545 0.950 . S
C551 C550 1.327 . S
C551 C555 1.429 . S
C552 C535 1.574 1_554 S
C552 H546 0.949 . S
C552 C556 1.368 . S
C553 C534 1.429 . S
C553 C547 1.429 . S
C553 C554 1.523 . S
C554 C535 1.368 . S
C554 C548 1.368 . S
C554 C553 1.523 . S
C555 C539 1.429 . S
C555 C551 1.429 . S
C555 C556 1.523 . S
C556 C540 1.368 . S
C556 C552 1.368 . S
C556 C555 1.523 . S
H557 C532 0.950 . S
H558 C534 0.950 . S
H559 C535 0.949 . S
H560 C537 0.950 . S
H561 C539 0.950 . S
C562 C563 1.349 . S
C562 C564 1.327 . S
C562 H587 0.950 . S
C563 C562 1.349 . S
C563 C579 1.349 1_545 S
C564 C562 1.327 . S
C564 C583 1.429 . S
C564 H588 0.950 . S
C565 C582 1.574 . S
C565 C584 1.307 1_565 S
C565 H589 0.949 . S
H566 C570 0.949 . S
C567 C568 1.349 . S
C567 C569 1.327 . S
C567 H590 0.950 . S
C568 C567 1.349 . S
C568 C580 1.349 1_565 S
C569 C567 1.327 . S
C569 C585 1.429 . S
C569 H591 0.950 . S
C570 H566 0.949 . S
C570 C578 1.574 . S
C570 C586 1.306 1_545 S
H571 C579 0.950 . S
H572 C577 0.950 . S
H573 C578 0.949 . S
H574 C580 0.950 . S
H575 C581 0.950 . S
H576 C582 0.949 . S
C577 H572 0.950 . S
C577 C579 1.327 . S
C577 C583 1.429 1_565 S
C578 C570 1.574 . S
C578 H573 0.949 . S
C578 C584 1.428 . S
C579 C563 1.349 1_565 S
C579 H571 0.950 . S
C579 C577 1.327 . S
C580 C568 1.349 1_545 S
C580 H574 0.950 . S
C580 C581 1.327 . S
C581 H575 0.950 . S
C581 C580 1.327 . S
C581 C585 1.429 1_545 S
C582 C565 1.574 . S
C582 H576 0.949 . S
C582 C586 1.428 . S
C583 C564 1.429 . S
C583 C577 1.429 1_545 S
C583 C584 1.531 . S
C584 C565 1.307 1_545 S
C584 C578 1.428 . S
C584 C583 1.531 . S
C585 C569 1.429 . S
C585 C581 1.429 1_565 S
C585 C586 1.531 . S
C586 C570 1.306 1_565 S
C586 C582 1.428 . S
C586 C585 1.531 . S
H587 C562 0.950 . S
H588 C564 0.950 . S
H589 C565 0.949 . S
H590 C567 0.950 . S
H591 C569 0.950 . S
C592 C593 1.349 . S
C592 C594 1.327 . S
C592 H617 0.950 . S
C593 C592 1.349 . S
C593 C609 1.349 . S
C594 C592 1.327 . S
C594 C613 1.429 . S
C594 H618 0.950 . S
C595 C612 1.574 1_554 S
C595 C614 1.368 . S
C595 H619 0.949 . S
H596 C600 0.949 . S
C597 C598 1.349 . S
C597 C599 1.327 . S
C597 H620 0.950 . S
C598 C597 1.349 . S
C598 C610 1.349 . S
C599 C597 1.327 . S
C599 C615 1.429 . S
C599 H621 0.950 . S
C600 H596 0.949 . S
C600 C608 1.574 1_556 S
C600 C616 1.368 . S
H601 C609 0.950 . S
H602 C607 0.950 . S
H603 C608 0.949 . S
H604 C610 0.950 . S
H605 C611 0.950 . S
H606 C612 0.949 . S
C607 H602 0.950 . S
C607 C609 1.327 . S
C607 C613 1.429 . S
C608 C600 1.574 1_554 S
C608 H603 0.949 . S
C608 C614 1.368 . S
C609 C593 1.349 . S
C609 H601 0.950 . S
C609 C607 1.327 . S
C610 C598 1.349 . S
C610 H604 0.950 . S
C610 C611 1.327 . S
C611 H605 0.950 . S
C611 C610 1.327 . S
C611 C615 1.429 . S
C612 C595 1.574 1_556 S
C612 H606 0.949 . S
C612 C616 1.368 . S
C613 C594 1.429 . S
C613 C607 1.429 . S
C613 C614 1.523 . S
C614 C595 1.368 . S
C614 C608 1.368 . S
C614 C613 1.523 . S
C615 C599 1.429 . S
C615 C611 1.429 . S
C615 C616 1.523 . S
C616 C600 1.368 . S
C616 C612 1.368 . S
C616 C615 1.523 . S
H617 C592 0.950 . S
H618 C594 0.950 . S
H619 C595 0.949 . S
H620 C597 0.950 . S
H621 C599 0.950 . S
C622 C623 1.349 . S
C622 C624 1.327 . S
C622 H647 0.950 . S
C623 C622 1.349 . S
C623 C639 1.349 . S
C624 C622 1.327 . S
C624 C643 1.429 . S
C624 H648 0.950 . S
C625 C642 1.574 . S
C625 C644 1.368 . S
C625 H649 0.949 . S
H626 C630 0.949 . S
C627 C628 1.349 . S
C627 C629 1.327 . S
C627 H650 0.950 . S
C628 C627 1.349 . S
C628 C640 1.349 . S
C629 C627 1.327 . S
C629 C645 1.429 . S
C629 H651 0.950 . S
C630 H626 0.949 . S
C630 C638 1.574 . S
C630 C646 1.368 . S
H631 C639 0.950 . S
H632 C637 0.950 . S
H633 C638 0.949 . S
H634 C640 0.950 . S
H635 C641 0.950 . S
H636 C642 0.949 . S
C637 H632 0.950 . S
C637 C639 1.327 . S
C637 C643 1.429 . S
C638 C630 1.574 . S
C638 H633 0.949 . S
C638 C644 1.368 . S
C639 C623 1.349 . S
C639 H631 0.950 . S
C639 C637 1.327 . S
C640 C628 1.349 . S
C640 H634 0.950 . S
C640 C641 1.327 . S
C641 H635 0.950 . S
C641 C640 1.327 . S
C641 C645 1.429 . S
C642 C625 1.574 . S
C642 H636 0.949 . S
C642 C646 1.368 . S
C643 C624 1.429 . S
C643 C637 1.429 . S
C643 C644 1.523 . S
C644 C625 1.368 . S
C644 C638 1.368 . S
C644 C643 1.523 . S
C645 C629 1.429 . S
C645 C641 1.429 . S
C645 C646 1.523 . S
C646 C630 1.368 . S
C646 C642 1.368 . S
C646 C645 1.523 . S
H647 C622 0.950 . S
H648 C624 0.950 . S
H649 C625 0.949 . S
H650 C627 0.950 . S
H651 C629 0.950 . S
C652 C653 1.349 . S
C652 C654 1.327 . S
C652 H677 0.950 . S
C653 C652 1.349 . S
C653 C669 1.349 . S
C654 C652 1.327 . S
C654 C673 1.429 . S
C654 H678 0.950 . S
C655 C672 1.574 . S
C655 C674 1.368 . S
C655 H679 0.949 . S
H656 C660 0.949 . S
C657 C658 1.349 . S
C657 C659 1.327 . S
C657 H680 0.950 . S
C658 C657 1.349 . S
C658 C670 1.349 . S
C659 C657 1.327 . S
C659 C675 1.429 . S
C659 H681 0.950 . S
C660 H656 0.949 . S
C660 C668 1.574 . S
C660 C676 1.368 . S
H661 C669 0.950 . S
H662 C667 0.950 . S
H663 C668 0.949 . S
H664 C670 0.950 . S
H665 C671 0.950 . S
H666 C672 0.949 . S
C667 H662 0.950 . S
C667 C669 1.327 . S
C667 C673 1.429 . S
C668 C660 1.574 . S
C668 H663 0.949 . S
C668 C674 1.368 . S
C669 C653 1.349 . S
C669 H661 0.950 . S
C669 C667 1.327 . S
C670 C658 1.349 . S
C670 H664 0.950 . S
C670 C671 1.327 . S
C671 H665 0.950 . S
C671 C670 1.327 . S
C671 C675 1.429 . S
C672 C655 1.574 . S
C672 H666 0.949 . S
C672 C676 1.368 . S
C673 C654 1.429 . S
C673 C667 1.429 . S
C673 C674 1.523 . S
C674 C655 1.368 . S
C674 C668 1.368 . S
C674 C673 1.523 . S
C675 C659 1.429 . S
C675 C671 1.429 . S
C675 C676 1.523 . S
C676 C660 1.368 . S
C676 C672 1.368 . S
C676 C675 1.523 . S
H677 C652 0.950 . S
H678 C654 0.950 . S
H679 C655 0.949 . S
H680 C657 0.950 . S
H681 C659 0.950 . S
C682 C683 1.349 . S
C682 C684 1.327 . S
C682 H707 0.950 . S
C683 C682 1.349 . S
C683 C699 1.349 . S
C684 C682 1.327 . S
C684 C703 1.429 . S
C684 H708 0.950 . S
C685 C702 1.574 . S
C685 C704 1.368 . S
C685 H709 0.949 . S
H686 C690 0.949 . S
C687 C688 1.349 . S
C687 C689 1.327 . S
C687 H710 0.950 . S
C688 C687 1.349 . S
C688 C700 1.349 . S
C689 C687 1.327 . S
C689 C705 1.429 . S
C689 H711 0.950 . S
C690 H686 0.949 . S
C690 C698 1.574 . S
C690 C706 1.368 . S
H691 C699 0.950 . S
H692 C697 0.950 . S
H693 C698 0.949 . S
H694 C700 0.950 . S
H695 C701 0.950 . S
H696 C702 0.949 . S
C697 H692 0.950 . S
C697 C699 1.327 . S
C697 C703 1.429 . S
C698 C690 1.574 . S
C698 H693 0.949 . S
C698 C704 1.368 . S
C699 C683 1.349 . S
C699 H691 0.950 . S
C699 C697 1.327 . S
C700 C688 1.349 . S
C700 H694 0.950 . S
C700 C701 1.327 . S
C701 H695 0.950 . S
C701 C700 1.327 . S
C701 C705 1.429 . S
C702 C685 1.574 . S
C702 H696 0.949 . S
C702 C706 1.368 . S
C703 C684 1.429 . S
C703 C697 1.429 . S
C703 C704 1.523 . S
C704 C685 1.368 . S
C704 C698 1.368 . S
C704 C703 1.523 . S
C705 C689 1.429 . S
C705 C701 1.429 . S
C705 C706 1.523 . S
C706 C690 1.368 . S
C706 C702 1.368 . S
C706 C705 1.523 . S
H707 C682 0.950 . S
H708 C684 0.950 . S
H709 C685 0.949 . S
H710 C687 0.950 . S
H711 C689 0.950 . S
C712 C713 1.349 . S
C712 C714 1.327 . S
C712 H737 0.950 . S
C713 C712 1.349 . S
C713 C729 1.349 . S
C714 C712 1.327 . S
C714 C733 1.429 . S
C714 H738 0.950 . S
C715 C732 1.574 1_556 S
C715 C734 1.368 . S
C715 H739 0.949 . S
H716 C720 0.949 . S
C717 C718 1.349 . S
C717 C719 1.327 . S
C717 H740 0.950 . S
C718 C717 1.349 . S
C718 C730 1.349 . S
C719 C717 1.327 . S
C719 C735 1.429 . S
C719 H741 0.950 . S
C720 H716 0.949 . S
C720 C728 1.574 1_554 S
C720 C736 1.368 . S
H721 C729 0.950 . S
H722 C727 0.950 . S
H723 C728 0.949 . S
H724 C730 0.950 . S
H725 C731 0.950 . S
H726 C732 0.949 . S
C727 H722 0.950 . S
C727 C729 1.327 . S
C727 C733 1.429 . S
C728 C720 1.574 1_556 S
C728 H723 0.949 . S
C728 C734 1.368 . S
C729 C713 1.349 . S
C729 H721 0.950 . S
C729 C727 1.327 . S
C730 C718 1.349 . S
C730 H724 0.950 . S
C730 C731 1.327 . S
C731 H725 0.950 . S
C731 C730 1.327 . S
C731 C735 1.429 . S
C732 C715 1.574 1_554 S
C732 H726 0.949 . S
C732 C736 1.368 . S
C733 C714 1.429 . S
C733 C727 1.429 . S
C733 C734 1.523 . S
C734 C715 1.368 . S
C734 C728 1.368 . S
C734 C733 1.523 . S
C735 C719 1.429 . S
C735 C731 1.429 . S
C735 C736 1.523 . S
C736 C720 1.368 . S
C736 C732 1.368 . S
C736 C735 1.523 . S
H737 C712 0.950 . S
H738 C714 0.950 . S
H739 C715 0.949 . S
H740 C717 0.950 . S
H741 C719 0.950 . S
C742 C743 1.349 . S
C742 C744 1.327 . S
C742 H767 0.950 . S
C743 C742 1.349 . S
C743 C759 1.349 . S
C744 C742 1.327 . S
C744 C763 1.429 . S
C744 H768 0.950 . S
C745 C762 1.574 . S
C745 C764 1.368 . S
C745 H769 0.949 . S
H746 C750 0.949 . S
C747 C748 1.349 . S
C747 C749 1.327 . S
C747 H770 0.950 . S
C748 C747 1.349 . S
C748 C760 1.349 . S
C749 C747 1.327 . S
C749 C765 1.429 . S
C749 H771 0.950 . S
C750 H746 0.949 . S
C750 C758 1.574 . S
C750 C766 1.368 . S
H751 C759 0.950 . S
H752 C757 0.950 . S
H753 C758 0.949 . S
H754 C760 0.950 . S
H755 C761 0.950 . S
H756 C762 0.949 . S
C757 H752 0.950 . S
C757 C759 1.327 . S
C757 C763 1.429 . S
C758 C750 1.574 . S
C758 H753 0.949 . S
C758 C764 1.368 . S
C759 C743 1.349 . S
C759 H751 0.950 . S
C759 C757 1.327 . S
C760 C748 1.349 . S
C760 H754 0.950 . S
C760 C761 1.327 . S
C761 H755 0.950 . S
C761 C760 1.327 . S
C761 C765 1.429 . S
C762 C745 1.574 . S
C762 H756 0.949 . S
C762 C766 1.368 . S
C763 C744 1.429 . S
C763 C757 1.429 . S
C763 C764 1.523 . S
C764 C745 1.368 . S
C764 C758 1.368 . S
C764 C763 1.523 . S
C765 C749 1.429 . S
C765 C761 1.429 . S
C765 C766 1.523 . S
C766 C750 1.368 . S
C766 C762 1.368 . S
C766 C765 1.523 . S
H767 C742 0.950 . S
H768 C744 0.950 . S
H769 C745 0.949 . S
H770 C747 0.950 . S
H771 C749 0.950 . S
C772 C773 1.349 . S
C772 C774 1.327 . S
C772 H797 0.950 . S
C773 C772 1.349 . S
C773 C789 1.349 . S
C774 C772 1.327 . S
C774 C793 1.429 . S
C774 H798 0.950 . S
C775 C792 1.574 . S
C775 C794 1.368 . S
C775 H799 0.949 . S
H776 C780 0.949 . S
C777 C778 1.349 . S
C777 C779 1.327 . S
C777 H800 0.950 . S
C778 C777 1.349 . S
C778 C790 1.349 . S
C779 C777 1.327 . S
C779 C795 1.429 . S
C779 H801 0.950 . S
C780 H776 0.949 . S
C780 C788 1.574 . S
C780 C796 1.368 . S
H781 C789 0.950 . S
H782 C787 0.950 . S
H783 C788 0.949 . S
H784 C790 0.950 . S
H785 C791 0.950 . S
H786 C792 0.949 . S
C787 H782 0.950 . S
C787 C789 1.327 . S
C787 C793 1.429 . S
C788 C780 1.574 . S
C788 H783 0.949 . S
C788 C794 1.368 . S
C789 C773 1.349 . S
C789 H781 0.950 . S
C789 C787 1.327 . S
C790 C778 1.349 . S
C790 H784 0.950 . S
C790 C791 1.327 . S
C791 H785 0.950 . S
C791 C790 1.327 . S
C791 C795 1.429 . S
C792 C775 1.574 . S
C792 H786 0.949 . S
C792 C796 1.368 . S
C793 C774 1.429 . S
C793 C787 1.429 . S
C793 C794 1.523 . S
C794 C775 1.368 . S
C794 C788 1.368 . S
C794 C793 1.523 . S
C795 C779 1.429 . S
C795 C791 1.429 . S
C795 C796 1.523 . S
C796 C780 1.368 . S
C796 C792 1.368 . S
C796 C795 1.523 . S
H797 C772 0.950 . S
H798 C774 0.950 . S
H799 C775 0.949 . S
H800 C777 0.950 . S
H801 C779 0.950 . S
C802 C803 1.349 . S
C802 C804 1.327 . S
C802 H827 0.950 . S
C803 C802 1.349 . S
C803 C819 1.349 . S
C804 C802 1.327 . S
C804 C823 1.429 . S
C804 H828 0.950 . S
C805 C822 1.574 . S
C805 C824 1.368 . S
C805 H829 0.949 . S
H806 C810 0.949 . S
C807 C808 1.349 . S
C807 C809 1.327 . S
C807 H830 0.950 . S
C808 C807 1.349 . S
C808 C820 1.349 . S
C809 C807 1.327 . S
C809 C825 1.429 . S
C809 H831 0.950 . S
C810 H806 0.949 . S
C810 C818 1.574 . S
C810 C826 1.368 . S
H811 C819 0.950 . S
H812 C817 0.950 . S
H813 C818 0.949 . S
H814 C820 0.950 . S
H815 C821 0.950 . S
H816 C822 0.949 . S
C817 H812 0.950 . S
C817 C819 1.327 . S
C817 C823 1.429 . S
C818 C810 1.574 . S
C818 H813 0.949 . S
C818 C824 1.368 . S
C819 C803 1.349 . S
C819 H811 0.950 . S
C819 C817 1.327 . S
C820 C808 1.349 . S
C820 H814 0.950 . S
C820 C821 1.327 . S
C821 H815 0.950 . S
C821 C820 1.327 . S
C821 C825 1.429 . S
C822 C805 1.574 . S
C822 H816 0.949 . S
C822 C826 1.368 . S
C823 C804 1.429 . S
C823 C817 1.429 . S
C823 C824 1.523 . S
C824 C805 1.368 . S
C824 C818 1.368 . S
C824 C823 1.523 . S
C825 C809 1.429 . S
C825 C821 1.429 . S
C825 C826 1.523 . S
C826 C810 1.368 . S
C826 C822 1.368 . S
C826 C825 1.523 . S
H827 C802 0.950 . S
H828 C804 0.950 . S
H829 C805 0.949 . S
H830 C807 0.950 . S
H831 C809 0.950 . S
C832 C833 1.349 . S
C832 C834 1.327 . S
C832 H857 0.950 . S
C833 C832 1.349 . S
C833 C849 1.349 . S
C834 C832 1.327 . S
C834 C853 1.429 . S
C834 H858 0.950 . S
C835 C852 1.574 . S
C835 C854 1.368 . S
C835 H859 0.949 . S
H836 C840 0.949 . S
C837 C838 1.349 . S
C837 C839 1.327 . S
C837 H860 0.950 . S
C838 C837 1.349 . S
C838 C850 1.349 . S
C839 C837 1.327 . S
C839 C855 1.429 . S
C839 H861 0.950 . S
C840 H836 0.949 . S
C840 C848 1.574 . S
C840 C856 1.368 . S
H841 C849 0.950 . S
H842 C847 0.950 . S
H843 C848 0.949 . S
H844 C850 0.950 . S
H845 C851 0.950 . S
H846 C852 0.949 . S
C847 H842 0.950 . S
C847 C849 1.327 . S
C847 C853 1.429 . S
C848 C840 1.574 . S
C848 H843 0.949 . S
C848 C854 1.368 . S
C849 C833 1.349 . S
C849 H841 0.950 . S
C849 C847 1.327 . S
C850 C838 1.349 . S
C850 H844 0.950 . S
C850 C851 1.327 . S
C851 H845 0.950 . S
C851 C850 1.327 . S
C851 C855 1.429 . S
C852 C835 1.574 . S
C852 H846 0.949 . S
C852 C856 1.368 . S
C853 C834 1.429 . S
C853 C847 1.429 . S
C853 C854 1.523 . S
C854 C835 1.368 . S
C854 C848 1.368 . S
C854 C853 1.523 . S
C855 C839 1.429 . S
C855 C851 1.429 . S
C855 C856 1.523 . S
C856 C840 1.368 . S
C856 C852 1.368 . S
C856 C855 1.523 . S
H857 C832 0.950 . S
H858 C834 0.950 . S
H859 C835 0.949 . S
H860 C837 0.950 . S
H861 C839 0.950 . S
C862 C863 1.349 . S
C862 C864 1.327 . S
C862 H887 0.950 . S
C863 C862 1.349 . S
C863 C879 1.349 . S
C864 C862 1.327 . S
C864 C883 1.429 . S
C864 H888 0.950 . S
C865 C882 1.574 . S
C865 C884 1.368 . S
C865 H889 0.949 . S
H866 C870 0.949 . S
C867 C868 1.349 . S
C867 C869 1.327 . S
C867 H890 0.950 . S
C868 C867 1.349 . S
C868 C880 1.349 . S
C869 C867 1.327 . S
C869 C885 1.429 . S
C869 H891 0.950 . S
C870 H866 0.949 . S
C870 C878 1.574 . S
C870 C886 1.368 . S
H871 C879 0.950 . S
H872 C877 0.950 . S
H873 C878 0.949 . S
H874 C880 0.950 . S
H875 C881 0.950 . S
H876 C882 0.949 . S
C877 H872 0.950 . S
C877 C879 1.327 . S
C877 C883 1.429 . S
C878 C870 1.574 . S
C878 H873 0.949 . S
C878 C884 1.368 . S
C879 C863 1.349 . S
C879 H871 0.950 . S
C879 C877 1.327 . S
C880 C868 1.349 . S
C880 H874 0.950 . S
C880 C881 1.327 . S
C881 H875 0.950 . S
C881 C880 1.327 . S
C881 C885 1.429 . S
C882 C865 1.574 . S
C882 H876 0.949 . S
C882 C886 1.368 . S
C883 C864 1.429 . S
C883 C877 1.429 . S
C883 C884 1.523 . S
C884 C865 1.368 . S
C884 C878 1.368 . S
C884 C883 1.523 . S
C885 C869 1.429 . S
C885 C881 1.429 . S
C885 C886 1.523 . S
C886 C870 1.368 . S
C886 C882 1.368 . S
C886 C885 1.523 . S
H887 C862 0.950 . S
H888 C864 0.950 . S
H889 C865 0.949 . S
H890 C867 0.950 . S
H891 C869 0.950 . S
C892 C893 1.349 . S
C892 C894 1.327 . S
C892 H917 0.950 . S
C893 C892 1.349 . S
C893 C909 1.349 . S
C894 C892 1.327 . S
C894 C913 1.429 . S
C894 H918 0.950 . S
C895 C912 1.574 . S
C895 C914 1.368 . S
C895 H919 0.949 . S
H896 C900 0.949 . S
C897 C898 1.349 . S
C897 C899 1.327 . S
C897 H920 0.950 . S
C898 C897 1.349 . S
C898 C910 1.349 . S
C899 C897 1.327 . S
C899 C915 1.429 . S
C899 H921 0.950 . S
C900 H896 0.949 . S
C900 C908 1.574 . S
C900 C916 1.368 . S
H901 C909 0.950 . S
H902 C907 0.950 . S
H903 C908 0.949 . S
H904 C910 0.950 . S
H905 C911 0.950 . S
H906 C912 0.949 . S
C907 H902 0.950 . S
C907 C909 1.327 . S
C907 C913 1.429 . S
C908 C900 1.574 . S
C908 H903 0.949 . S
C908 C914 1.368 . S
C909 C893 1.349 . S
C909 H901 0.950 . S
C909 C907 1.327 . S
C910 C898 1.349 . S
C910 H904 0.950 . S
C910 C911 1.327 . S
C911 H905 0.950 . S
C911 C910 1.327 . S
C911 C915 1.429 . S
C912 C895 1.574 . S
C912 H906 0.949 . S
C912 C916 1.368 . S
C913 C894 1.429 . S
C913 C907 1.429 . S
C913 C914 1.523 . S
C914 C895 1.368 . S
C914 C908 1.368 . S
C914 C913 1.523 . S
C915 C899 1.429 . S
C915 C911 1.429 . S
C915 C916 1.523 . S
C916 C900 1.368 . S
C916 C912 1.368 . S
C916 C915 1.523 . S
H917 C892 0.950 . S
H918 C894 0.950 . S
H919 C895 0.949 . S
H920 C897 0.950 . S
H921 C899 0.950 . S
C922 C923 1.349 . S
C922 C924 1.327 . S
C922 H947 0.950 . S
C923 C922 1.349 . S
C923 C939 1.349 . S
C924 C922 1.327 . S
C924 C943 1.429 . S
C924 H948 0.950 . S
C925 C942 1.574 . S
C925 C944 1.368 . S
C925 H949 0.949 . S
H926 C930 0.949 . S
C927 C928 1.349 . S
C927 C929 1.327 . S
C927 H950 0.950 . S
C928 C927 1.349 . S
C928 C940 1.349 . S
C929 C927 1.327 . S
C929 C945 1.429 . S
C929 H951 0.950 . S
C930 H926 0.949 . S
C930 C938 1.574 . S
C930 C946 1.368 . S
H931 C939 0.950 . S
H932 C937 0.950 . S
H933 C938 0.949 . S
H934 C940 0.950 . S
H935 C941 0.950 . S
H936 C942 0.949 . S
C937 H932 0.950 . S
C937 C939 1.327 . S
C937 C943 1.429 . S
C938 C930 1.574 . S
C938 H933 0.949 . S
C938 C944 1.368 . S
C939 C923 1.349 . S
C939 H931 0.950 . S
C939 C937 1.327 . S
C940 C928 1.349 . S
C940 H934 0.950 . S
C940 C941 1.327 . S
C941 H935 0.950 . S
C941 C940 1.327 . S
C941 C945 1.429 . S
C942 C925 1.574 . S
C942 H936 0.949 . S
C942 C946 1.368 . S
C943 C924 1.429 . S
C943 C937 1.429 . S
C943 C944 1.523 . S
C944 C925 1.368 . S
C944 C938 1.368 . S
C944 C943 1.523 . S
C945 C929 1.429 . S
C945 C941 1.429 . S
C945 C946 1.523 . S
C946 C930 1.368 . S
C946 C942 1.368 . S
C946 C945 1.523 . S
H947 C922 0.950 . S
H948 C924 0.950 . S
H949 C925 0.949 . S
H950 C927 0.950 . S
H951 C929 0.950 . S
C952 C953 1.349 . S
C952 C954 1.327 . S
C952 H977 0.950 . S
C953 C952 1.349 . S
C953 C969 1.349 . S
C954 C952 1.327 . S
C954 C973 1.429 . S
C954 H978 0.950 . S
C955 C972 1.574 . S
C955 C974 1.368 . S
C955 H979 0.949 . S
H956 C960 0.949 . S
C957 C958 1.349 . S
C957 C959 1.327 . S
C957 H980 0.950 . S
C958 C957 1.349 . S
C958 C970 1.349 . S
C959 C957 1.327 . S
C959 C975 1.429 . S
C959 H981 0.950 . S
C960 H956 0.949 . S
C960 C968 1.574 . S
C960 C976 1.368 . S
H961 C969 0.950 . S
H962 C967 0.950 . S
H963 C968 0.949 . S
H964 C970 0.950 . S
H965 C971 0.950 . S
H966 C972 0.949 . S
C967 H962 0.950 . S
C967 C969 1.327 . S
C967 C973 1.429 . S
C968 C960 1.574 . S
C968 H963 0.949 . S
C968 C974 1.368 . S
C969 C953 1.349 . S
C969 H961 0.950 . S
C969 C967 1.327 . S
C970 C958 1.349 . S
C970 H964 0.950 . S
C970 C971 1.327 . S
C971 H965 0.950 . S
C971 C970 1.327 . S
C971 C975 1.429 . S
C972 C955 1.574 . S
C972 H966 0.949 . S
C972 C976 1.368 . S
C973 C954 1.429 . S
C973 C967 1.429 . S
C973 C974 1.523 . S
C974 C955 1.368 . S
C974 C968 1.368 . S
C974 C973 1.523 . S
C975 C959 1.429 . S
C975 C971 1.429 . S
C975 C976 1.523 . S
C976 C960 1.368 . S
C976 C972 1.368 . S
C976 C975 1.523 . S
H977 C952 0.950 . S
H978 C954 0.950 . S
H979 C955 0.949 . S
H980 C957 0.950 . S
H981 C959 0.950 . S
C982 C983 1.349 . S
C982 C984 1.327 . S
C982 H1007 0.950 . S
C983 C982 1.349 . S
C983 C999 1.349 . S
C984 C982 1.327 . S
C984 C1003 1.429 . S
C984 H1008 0.950 . S
C985 C1002 1.574 . S
C985 C1004 1.368 . S
C985 H1009 0.949 . S
H986 C990 0.949 . S
C987 C988 1.349 . S
C987 C989 1.327 . S
C987 H1010 0.950 . S
C988 C987 1.349 . S
C988 C1000 1.349 . S
C989 C987 1.327 . S
C989 C1005 1.429 . S
C989 H1011 0.950 . S
C990 H986 0.949 . S
C990 C998 1.574 . S
C990 C1006 1.368 . S
H991 C999 0.950 . S
H992 C997 0.950 . S
H993 C998 0.949 . S
H994 C1000 0.950 . S
H995 C1001 0.950 . S
H996 C1002 0.949 . S
C997 H992 0.950 . S
C997 C999 1.327 . S
C997 C1003 1.429 . S
C998 C990 1.574 . S
C998 H993 0.949 . S
C998 C1004 1.368 . S
C999 C983 1.349 . S
C999 H991 0.950 . S
C999 C997 1.327 . S
C1000 C988 1.349 . S
C1000 H994 0.950 . S
C1000 C1001 1.327 . S
C1001 H995 0.950 . S
C1001 C1000 1.327 . S
C1001 C1005 1.429 . S
C1002 C985 1.574 . S
C1002 H996 0.949 . S
C1002 C1006 1.368 . S
C1003 C984 1.429 . S
C1003 C997 1.429 . S
C1003 C1004 1.523 . S
C1004 C985 1.368 . S
C1004 C998 1.368 . S
C1004 C1003 1.523 . S
C1005 C989 1.429 . S
C1005 C1001 1.429 . S
C1005 C1006 1.523 . S
C1006 C990 1.368 . S
C1006 C1002 1.368 . S
C1006 C1005 1.523 . S
H1007 C982 0.950 . S
H1008 C984 0.950 . S
H1009 C985 0.949 . S
H1010 C987 0.950 . S
H1011 C989 0.950 . S
C1012 C1013 1.349 . S
C1012 C1014 1.327 . S
C1012 H1037 0.950 . S
C1013 C1012 1.349 . S
C1013 C1029 1.349 . S
C1014 C1012 1.327 . S
C1014 C1033 1.429 . S
C1014 H1038 0.950 . S
C1015 C1032 1.574 . S
C1015 C1034 1.368 . S
C1015 H1039 0.949 . S
H1016 C1020 0.949 . S
C1017 C1018 1.349 . S
C1017 C1019 1.327 . S
C1017 H1040 0.950 . S
C1018 C1017 1.349 . S
C1018 C1030 1.349 . S
C1019 C1017 1.327 . S
C1019 C1035 1.429 . S
C1019 H1041 0.950 . S
C1020 H1016 0.949 . S
C1020 C1028 1.574 . S
C1020 C1036 1.368 . S
H1021 C1029 0.950 . S
H1022 C1027 0.950 . S
H1023 C1028 0.949 . S
H1024 C1030 0.950 . S
H1025 C1031 0.950 . S
H1026 C1032 0.949 . S
C1027 H1022 0.950 . S
C1027 C1029 1.327 . S
C1027 C1033 1.429 . S
C1028 C1020 1.574 . S
C1028 H1023 0.949 . S
C1028 C1034 1.368 . S
C1029 C1013 1.349 . S
C1029 H1021 0.950 . S
C1029 C1027 1.327 . S
C1030 C1018 1.349 . S
C1030 H1024 0.950 . S
C1030 C1031 1.327 . S
C1031 H1025 0.950 . S
C1031 C1030 1.327 . S
C1031 C1035 1.429 . S
C1032 C1015 1.574 . S
C1032 H1026 0.949 . S
C1032 C1036 1.368 . S
C1033 C1014 1.429 . S
C1033 C1027 1.429 . S
C1033 C1034 1.523 . S
C1034 C1015 1.368 . S
C1034 C1028 1.368 . S
C1034 C1033 1.523 . S
C1035 C1019 1.429 . S
C1035 C1031 1.429 . S
C1035 C1036 1.523 . S
C1036 C1020 1.368 . S
C1036 C1032 1.368 . S
C1036 C1035 1.523 . S
H1037 C1012 0.950 . S
H1038 C1014 0.950 . S
H1039 C1015 0.949 . S
H1040 C1017 0.950 . S
H1041 C1019 0.950 . S
C1042 C1043 1.349 . S
C1042 C1044 1.327 . S
C1042 H1067 0.950 . S
C1043 C1042 1.349 . S
C1043 C1059 1.349 . S
C1044 C1042 1.327 . S
C1044 C1063 1.429 . S
C1044 H1068 0.950 . S
C1045 C1062 1.574 . S
C1045 C1064 1.368 . S
C1045 H1069 0.949 . S
H1046 C1050 0.949 . S
C1047 C1048 1.349 . S
C1047 C1049 1.327 . S
C1047 H1070 0.950 . S
C1048 C1047 1.349 . S
C1048 C1060 1.349 . S
C1049 C1047 1.327 . S
C1049 C1065 1.429 . S
C1049 H1071 0.950 . S
C1050 H1046 0.949 . S
C1050 C1058 1.574 . S
C1050 C1066 1.368 . S
H1051 C1059 0.950 . S
H1052 C1057 0.950 . S
H1053 C1058 0.949 . S
H1054 C1060 0.950 . S
H1055 C1061 0.950 . S
H1056 C1062 0.949 . S
C1057 H1052 0.950 . S
C1057 C1059 1.327 . S
C1057 C1063 1.429 . S
C1058 C1050 1.574 . S
C1058 H1053 0.949 . S
C1058 C1064 1.368 . S
C1059 C1043 1.349 . S
C1059 H1051 0.950 . S
C1059 C1057 1.327 . S
C1060 C1048 1.349 . S
C1060 H1054 0.950 . S
C1060 C1061 1.327 . S
C1061 H1055 0.950 . S
C1061 C1060 1.327 . S
C1061 C1065 1.429 . S
C1062 C1045 1.574 . S
C1062 H1056 0.949 . S
C1062 C1066 1.368 . S
C1063 C1044 1.429 . S
C1063 C1057 1.429 . S
C1063 C1064 1.523 . S
C1064 C1045 1.368 . S
C1064 C1058 1.368 . S
C1064 C1063 1.523 . S
C1065 C1049 1.429 . S
C1065 C1061 1.429 . S
C1065 C1066 1.523 . S
C1066 C1050 1.368 . S
C1066 C1062 1.368 . S
C1066 C1065 1.523 . S
H1067 C1042 0.950 . S
H1068 C1044 0.950 . S
H1069 C1045 0.949 . S
H1070 C1047 0.950 . S
H1071 C1049 0.950 . S
C1072 C1073 1.349 . S
C1072 C1074 1.327 . S
C1072 H1097 0.950 . S
C1073 C1072 1.349 . S
C1073 C1089 1.349 . S
C1074 C1072 1.327 . S
C1074 C1093 1.429 . S
C1074 H1098 0.950 . S
C1075 C1092 1.574 . S
C1075 C1094 1.368 . S
C1075 H1099 0.949 . S
H1076 C1080 0.949 . S
C1077 C1078 1.349 . S
C1077 C1079 1.327 . S
C1077 H1100 0.950 . S
C1078 C1077 1.349 . S
C1078 C1090 1.349 . S
C1079 C1077 1.327 . S
C1079 C1095 1.429 . S
C1079 H1101 0.950 . S
C1080 H1076 0.949 . S
C1080 C1088 1.574 . S
C1080 C1096 1.368 . S
H1081 C1089 0.950 . S
H1082 C1087 0.950 . S
H1083 C1088 0.949 . S
H1084 C1090 0.950 . S
H1085 C1091 0.950 . S
H1086 C1092 0.949 . S
C1087 H1082 0.950 . S
C1087 C1089 1.327 . S
C1087 C1093 1.429 . S
C1088 C1080 1.574 . S
C1088 H1083 0.949 . S
C1088 C1094 1.368 . S
C1089 C1073 1.349 . S
C1089 H1081 0.950 . S
C1089 C1087 1.327 . S
C1090 C1078 1.349 . S
C1090 H1084 0.950 . S
C1090 C1091 1.327 . S
C1091 H1085 0.950 . S
C1091 C1090 1.327 . S
C1091 C1095 1.429 . S
C1092 C1075 1.574 . S
C1092 H1086 0.949 . S
C1092 C1096 1.368 . S
C1093 C1074 1.429 . S
C1093 C1087 1.429 . S
C1093 C1094 1.523 . S
C1094 C1075 1.368 . S
C1094 C1088 1.368 . S
C1094 C1093 1.523 . S
C1095 C1079 1.429 . S
C1095 C1091 1.429 . S
C1095 C1096 1.523 . S
C1096 C1080 1.368 . S
C1096 C1092 1.368 . S
C1096 C1095 1.523 . S
H1097 C1072 0.950 . S
H1098 C1074 0.950 . S
H1099 C1075 0.949 . S
H1100 C1077 0.950 . S
H1101 C1079 0.950 . S
C1102 C1103 1.349 . S
C1102 C1104 1.327 . S
C1102 H1127 0.950 . S
C1103 C1102 1.349 . S
C1103 C1119 1.349 . S
C1104 C1102 1.327 . S
C1104 C1123 1.429 . S
C1104 H1128 0.950 . S
C1105 C1122 1.574 . S
C1105 C1124 1.368 . S
C1105 H1129 0.949 . S
H1106 C1110 0.949 . S
C1107 C1108 1.349 . S
C1107 C1109 1.327 . S
C1107 H1130 0.950 . S
C1108 C1107 1.349 . S
C1108 C1120 1.349 . S
C1109 C1107 1.327 . S
C1109 C1125 1.429 . S
C1109 H1131 0.950 . S
C1110 H1106 0.949 . S
C1110 C1118 1.574 . S
C1110 C1126 1.368 . S
H1111 C1119 0.950 . S
H1112 C1117 0.950 . S
H1113 C1118 0.949 . S
H1114 C1120 0.950 . S
H1115 C1121 0.950 . S
H1116 C1122 0.949 . S
C1117 H1112 0.950 . S
C1117 C1119 1.327 . S
C1117 C1123 1.429 . S
C1118 C1110 1.574 . S
C1118 H1113 0.949 . S
C1118 C1124 1.368 . S
C1119 C1103 1.349 . S
C1119 H1111 0.950 . S
C1119 C1117 1.327 . S
C1120 C1108 1.349 . S
C1120 H1114 0.950 . S
C1120 C1121 1.327 . S
C1121 H1115 0.950 . S
C1121 C1120 1.327 . S
C1121 C1125 1.429 . S
C1122 C1105 1.574 . S
C1122 H1116 0.949 . S
C1122 C1126 1.368 . S
C1123 C1104 1.429 . S
C1123 C1117 1.429 . S
C1123 C1124 1.523 . S
C1124 C1105 1.368 . S
C1124 C1118 1.368 . S
C1124 C1123 1.523 . S
C1125 C1109 1.429 . S
C1125 C1121 1.429 . S
C1125 C1126 1.523 . S
C1126 C1110 1.368 . S
C1126 C1122 1.368 . S
C1126 C1125 1.523 . S
H1127 C1102 0.950 . S
H1128 C1104 0.950 . S
H1129 C1105 0.949 . S
H1130 C1107 0.950 . S
H1131 C1109 0.950 . S
C1132 C1133 1.349 . S
C1132 C1134 1.327 . S
C1132 H1157 0.950 . S
C1133 C1132 1.349 . S
C1133 C1149 1.349 . S
C1134 C1132 1.327 . S
C1134 C1153 1.429 . S
C1134 H1158 0.950 . S
C1135 C1152 1.574 . S
C1135 C1154 1.368 . S
C1135 H1159 0.949 . S
H1136 C1140 0.949 . S
C1137 C1138 1.349 . S
C1137 C1139 1.327 . S
C1137 H1160 0.950 . S
C1138 C1137 1.349 . S
C1138 C1150 1.349 . S
C1139 C1137 1.327 . S
C1139 C1155 1.429 . S
C1139 H1161 0.950 . S
C1140 H1136 0.949 . S
C1140 C1148 1.574 . S
C1140 C1156 1.368 . S
H1141 C1149 0.950 . S
H1142 C1147 0.950 . S
H1143 C1148 0.949 . S
H1144 C1150 0.950 . S
H1145 C1151 0.950 . S
H1146 C1152 0.949 . S
C1147 H1142 0.950 . S
C1147 C1149 1.327 . S
C1147 C1153 1.429 . S
C1148 C1140 1.574 . S
C1148 H1143 0.949 . S
C1148 C1154 1.368 . S
C1149 C1133 1.349 . S
C1149 H1141 0.950 . S
C1149 C1147 1.327 . S
C1150 C1138 1.349 . S
C1150 H1144 0.950 . S
C1150 C1151 1.327 . S
C1151 H1145 0.950 . S
C1151 C1150 1.327 . S
C1151 C1155 1.429 . S
C1152 C1135 1.574 . S
C1152 H1146 0.949 . S
C1152 C1156 1.368 . S
C1153 C1134 1.429 . S
C1153 C1147 1.429 . S
C1153 C1154 1.523 . S
C1154 C1135 1.368 . S
C1154 C1148 1.368 . S
C1154 C1153 1.523 . S
C1155 C1139 1.429 . S
C1155 C1151 1.429 . S
C1155 C1156 1.523 . S
C1156 C1140 1.368 . S
C1156 C1152 1.368 . S
C1156 C1155 1.523 . S
H1157 C1132 0.950 . S
H1158 C1134 0.950 . S
H1159 C1135 0.949 . S
H1160 C1137 0.950 . S
H1161 C1139 0.950 . S
C1162 C1163 1.349 . S
C1162 C1164 1.327 . S
C1162 H1187 0.950 . S
C1163 C1162 1.349 . S
C1163 C1179 1.349 . S
C1164 C1162 1.327 . S
C1164 C1183 1.429 . S
C1164 H1188 0.950 . S
C1165 C1182 1.574 . S
C1165 C1184 1.368 . S
C1165 H1189 0.949 . S
H1166 C1170 0.949 . S
C1167 C1168 1.349 . S
C1167 C1169 1.327 . S
C1167 H1190 0.950 . S
C1168 C1167 1.349 . S
C1168 C1180 1.349 . S
C1169 C1167 1.327 . S
C1169 C1185 1.429 . S
C1169 H1191 0.950 . S
C1170 H1166 0.949 . S
C1170 C1178 1.574 . S
C1170 C1186 1.368 . S
H1171 C1179 0.950 . S
H1172 C1177 0.950 . S
H1173 C1178 0.949 . S
H1174 C1180 0.950 . S
H1175 C1181 0.950 . S
H1176 C1182 0.949 . S
C1177 H1172 0.950 . S
C1177 C1179 1.327 . S
C1177 C1183 1.429 . S
C1178 C1170 1.574 . S
C1178 H1173 0.949 . S
C1178 C1184 1.368 . S
C1179 C1163 1.349 . S
C1179 H1171 0.950 . S
C1179 C1177 1.327 . S
C1180 C1168 1.349 . S
C1180 H1174 0.950 . S
C1180 C1181 1.327 . S
C1181 H1175 0.950 . S
C1181 C1180 1.327 . S
C1181 C1185 1.429 . S
C1182 C1165 1.574 . S
C1182 H1176 0.949 . S
C1182 C1186 1.368 . S
C1183 C1164 1.429 . S
C1183 C1177 1.429 . S
C1183 C1184 1.523 . S
C1184 C1165 1.368 . S
C1184 C1178 1.368 . S
C1184 C1183 1.523 . S
C1185 C1169 1.429 . S
C1185 C1181 1.429 . S
C1185 C1186 1.523 . S
C1186 C1170 1.368 . S
C1186 C1182 1.368 . S
C1186 C1185 1.523 . S
H1187 C1162 0.950 . S
H1188 C1164 0.950 . S
H1189 C1165 0.949 . S
H1190 C1167 0.950 . S
H1191 C1169 0.950 . S
C1192 C1193 1.349 . S
C1192 C1194 1.327 . S
C1192 H1217 0.950 . S
C1193 C1192 1.349 . S
C1193 C1209 1.349 . S
C1194 C1192 1.327 . S
C1194 C1213 1.429 . S
C1194 H1218 0.950 . S
C1195 C1212 1.574 . S
C1195 C1214 1.368 . S
C1195 H1219 0.949 . S
H1196 C1200 0.949 . S
C1197 C1198 1.349 . S
C1197 C1199 1.327 . S
C1197 H1220 0.950 . S
C1198 C1197 1.349 . S
C1198 C1210 1.349 . S
C1199 C1197 1.327 . S
C1199 C1215 1.429 . S
C1199 H1221 0.950 . S
C1200 H1196 0.949 . S
C1200 C1208 1.574 . S
C1200 C1216 1.368 . S
H1201 C1209 0.950 . S
H1202 C1207 0.950 . S
H1203 C1208 0.949 . S
H1204 C1210 0.950 . S
H1205 C1211 0.950 . S
H1206 C1212 0.949 . S
C1207 H1202 0.950 . S
C1207 C1209 1.327 . S
C1207 C1213 1.429 . S
C1208 C1200 1.574 . S
C1208 H1203 0.949 . S
C1208 C1214 1.368 . S
C1209 C1193 1.349 . S
C1209 H1201 0.950 . S
C1209 C1207 1.327 . S
C1210 C1198 1.349 . S
C1210 H1204 0.950 . S
C1210 C1211 1.327 . S
C1211 H1205 0.950 . S
C1211 C1210 1.327 . S
C1211 C1215 1.429 . S
C1212 C1195 1.574 . S
C1212 H1206 0.949 . S
C1212 C1216 1.368 . S
C1213 C1194 1.429 . S
C1213 C1207 1.429 . S
C1213 C1214 1.523 . S
C1214 C1195 1.368 . S
C1214 C1208 1.368 . S
C1214 C1213 1.523 . S
C1215 C1199 1.429 . S
C1215 C1211 1.429 . S
C1215 C1216 1.523 . S
C1216 C1200 1.368 . S
C1216 C1212 1.368 . S
C1216 C1215 1.523 . S
H1217 C1192 0.950 . S
H1218 C1194 0.950 . S
H1219 C1195 0.949 . S
H1220 C1197 0.950 . S
H1221 C1199 0.950 . S
C1222 C1223 1.349 . S
C1222 C1224 1.327 . S
C1222 H1247 0.950 . S
C1223 C1222 1.349 . S
C1223 C1239 1.349 . S
C1224 C1222 1.327 . S
C1224 C1243 1.429 . S
C1224 H1248 0.950 . S
C1225 C1242 1.574 . S
C1225 C1244 1.368 . S
C1225 H1249 0.949 . S
H1226 C1230 0.949 . S
C1227 C1228 1.349 . S
C1227 C1229 1.327 . S
C1227 H1250 0.950 . S
C1228 C1227 1.349 . S
C1228 C1240 1.349 . S
C1229 C1227 1.327 . S
C1229 C1245 1.429 . S
C1229 H1251 0.950 . S
C1230 H1226 0.949 . S
C1230 C1238 1.574 . S
C1230 C1246 1.368 . S
H1231 C1239 0.950 . S
H1232 C1237 0.950 . S
H1233 C1238 0.949 . S
H1234 C1240 0.950 . S
H1235 C1241 0.950 . S
H1236 C1242 0.949 . S
C1237 H1232 0.950 . S
C1237 C1239 1.327 . S
C1237 C1243 1.429 . S
C1238 C1230 1.574 . S
C1238 H1233 0.949 . S
C1238 C1244 1.368 . S
C1239 C1223 1.349 . S
C1239 H1231 0.950 . S
C1239 C1237 1.327 . S
C1240 C1228 1.349 . S
C1240 H1234 0.950 . S
C1240 C1241 1.327 . S
C1241 H1235 0.950 . S
C1241 C1240 1.327 . S
C1241 C1245 1.429 . S
C1242 C1225 1.574 . S
C1242 H1236 0.949 . S
C1242 C1246 1.368 . S
C1243 C1224 1.429 . S
C1243 C1237 1.429 . S
C1243 C1244 1.523 . S
C1244 C1225 1.368 . S
C1244 C1238 1.368 . S
C1244 C1243 1.523 . S
C1245 C1229 1.429 . S
C1245 C1241 1.429 . S
C1245 C1246 1.523 . S
C1246 C1230 1.368 . S
C1246 C1242 1.368 . S
C1246 C1245 1.523 . S
H1247 C1222 0.950 . S
H1248 C1224 0.950 . S
H1249 C1225 0.949 . S
H1250 C1227 0.950 . S
H1251 C1229 0.950 . S
C1252 C1253 1.349 . S
C1252 C1254 1.327 . S
C1252 H1277 0.950 . S
C1253 C1252 1.349 . S
C1253 C1269 1.349 . S
C1254 C1252 1.327 . S
C1254 C1273 1.429 . S
C1254 H1278 0.950 . S
C1255 C1272 1.574 . S
C1255 C1274 1.368 . S
C1255 H1279 0.949 . S
H1256 C1260 0.949 . S
C1257 C1258 1.349 . S
C1257 C1259 1.327 . S
C1257 H1280 0.950 . S
C1258 C1257 1.349 . S
C1258 C1270 1.349 . S
C1259 C1257 1.327 . S
C1259 C1275 1.429 . S
C1259 H1281 0.950 . S
C1260 H1256 0.949 . S
C1260 C1268 1.574 . S
C1260 C1276 1.368 . S
H1261 C1269 0.950 . S
H1262 C1267 0.950 . S
H1263 C1268 0.949 . S
H1264 C1270 0.950 . S
H1265 C1271 0.950 . S
H1266 C1272 0.949 . S
C1267 H1262 0.950 . S
C1267 C1269 1.327 . S
C1267 C1273 1.429 . S
C1268 C1260 1.574 . S
C1268 H1263 0.949 . S
C1268 C1274 1.368 . S
C1269 C1253 1.349 . S
C1269 H1261 0.950 . S
C1269 C1267 1.327 . S
C1270 C1258 1.349 . S
C1270 H1264 0.950 . S
C1270 C1271 1.327 . S
C1271 H1265 0.950 . S
C1271 C1270 1.327 . S
C1271 C1275 1.429 . S
C1272 C1255 1.574 . S
C1272 H1266 0.949 . S
C1272 C1276 1.368 . S
C1273 C1254 1.429 . S
C1273 C1267 1.429 . S
C1273 C1274 1.523 . S
C1274 C1255 1.368 . S
C1274 C1268 1.368 . S
C1274 C1273 1.523 . S
C1275 C1259 1.429 . S
C1275 C1271 1.429 . S
C1275 C1276 1.523 . S
C1276 C1260 1.368 . S
C1276 C1272 1.368 . S
C1276 C1275 1.523 . S
H1277 C1252 0.950 . S
H1278 C1254 0.950 . S
H1279 C1255 0.949 . S
H1280 C1257 0.950 . S
H1281 C1259 0.950 . S
C1282 C1283 1.349 . S
C1282 C1284 1.327 . S
C1282 H1307 0.950 . S
C1283 C1282 1.349 . S
C1283 C1299 1.349 . S
C1284 C1282 1.327 . S
C1284 C1303 1.429 . S
C1284 H1308 0.950 . S
C1285 C1302 1.574 . S
C1285 C1304 1.368 . S
C1285 H1309 0.949 . S
H1286 C1290 0.949 . S
C1287 C1288 1.349 . S
C1287 C1289 1.327 . S
C1287 H1310 0.950 . S
C1288 C1287 1.349 . S
C1288 C1300 1.349 . S
C1289 C1287 1.327 . S
C1289 C1305 1.429 . S
C1289 H1311 0.950 . S
C1290 H1286 0.949 . S
C1290 C1298 1.574 . S
C1290 C1306 1.368 . S
H1291 C1299 0.950 . S
H1292 C1297 0.950 . S
H1293 C1298 0.949 . S
H1294 C1300 0.950 . S
H1295 C1301 0.950 . S
H1296 C1302 0.949 . S
C1297 H1292 0.950 . S
C1297 C1299 1.327 . S
C1297 C1303 1.429 . S
C1298 C1290 1.574 . S
C1298 H1293 0.949 . S
C1298 C1304 1.368 . S
C1299 C1283 1.349 . S
C1299 H1291 0.950 . S
C1299 C1297 1.327 . S
C1300 C1288 1.349 . S
C1300 H1294 0.950 . S
C1300 C1301 1.327 . S
C1301 H1295 0.950 . S
C1301 C1300 1.327 . S
C1301 C1305 1.429 . S
C1302 C1285 1.574 . S
C1302 H1296 0.949 . S
C1302 C1306 1.368 . S
C1303 C1284 1.429 . S
C1303 C1297 1.429 . S
C1303 C1304 1.523 . S
C1304 C1285 1.368 . S
C1304 C1298 1.368 . S
C1304 C1303 1.523 . S
C1305 C1289 1.429 . S
C1305 C1301 1.429 . S
C1305 C1306 1.523 . S
C1306 C1290 1.368 . S
C1306 C1302 1.368 . S
C1306 C1305 1.523 . S
H1307 C1282 0.950 . S
H1308 C1284 0.950 . S
H1309 C1285 0.949 . S
H1310 C1287 0.950 . S
H1311 C1289 0.950 . S
C1312 C1313 1.349 . S
C1312 C1314 1.327 . S
C1312 H1337 0.950 . S
C1313 C1312 1.349 . S
C1313 C1329 1.349 . S
C1314 C1312 1.327 . S
C1314 C1333 1.429 . S
C1314 H1338 0.950 . S
C1315 C1332 1.574 . S
C1315 C1334 1.368 . S
C1315 H1339 0.949 . S
H1316 C1320 0.949 . S
C1317 C1318 1.349 . S
C1317 C1319 1.327 . S
C1317 H1340 0.950 . S
C1318 C1317 1.349 . S
C1318 C1330 1.349 . S
C1319 C1317 1.327 . S
C1319 C1335 1.429 . S
C1319 H1341 0.950 . S
C1320 H1316 0.949 . S
C1320 C1328 1.574 . S
C1320 C1336 1.368 . S
H1321 C1329 0.950 . S
H1322 C1327 0.950 . S
H1323 C1328 0.949 . S
H1324 C1330 0.950 . S
H1325 C1331 0.950 . S
H1326 C1332 0.949 . S
C1327 H1322 0.950 . S
C1327 C1329 1.327 . S
C1327 C1333 1.429 . S
C1328 C1320 1.574 . S
C1328 H1323 0.949 . S
C1328 C1334 1.368 . S
C1329 C1313 1.349 . S
C1329 H1321 0.950 . S
C1329 C1327 1.327 . S
C1330 C1318 1.349 . S
C1330 H1324 0.950 . S
C1330 C1331 1.327 . S
C1331 H1325 0.950 . S
C1331 C1330 1.327 . S
C1331 C1335 1.429 . S
C1332 C1315 1.574 . S
C1332 H1326 0.949 . S
C1332 C1336 1.368 . S
C1333 C1314 1.429 . S
C1333 C1327 1.429 . S
C1333 C1334 1.523 . S
C1334 C1315 1.368 . S
C1334 C1328 1.368 . S
C1334 C1333 1.523 . S
C1335 C1319 1.429 . S
C1335 C1331 1.429 . S
C1335 C1336 1.523 . S
C1336 C1320 1.368 . S
C1336 C1332 1.368 . S
C1336 C1335 1.523 . S
H1337 C1312 0.950 . S
H1338 C1314 0.950 . S
H1339 C1315 0.949 . S
H1340 C1317 0.950 . S
H1341 C1319 0.950 . S
C1342 C1343 1.349 1_545 S
C1342 C1344 1.326 . S
C1342 H1367 0.950 . S
C1343 C1342 1.349 1_565 S
C1343 C1359 1.349 . S
C1344 C1342 1.326 . S
C1344 C1363 1.421 1_545 S
C1344 H1368 0.957 . S
C1345 C1362 1.574 1_455 S
C1345 C1364 1.372 . S
C1345 H1369 0.949 . S
H1346 C1350 0.949 . S
C1347 C1348 1.349 1_565 S
C1347 C1349 1.326 . S
C1347 H1370 0.950 . S
C1348 C1347 1.349 1_545 S
C1348 C1360 1.349 . S
C1349 C1347 1.326 . S
C1349 C1365 1.421 1_565 S
C1349 H1371 0.957 . S
C1350 H1346 0.949 . S
C1350 C1358 1.574 1_655 S
C1350 C1366 1.372 . S
H1351 C1359 0.950 . S
H1352 C1357 0.950 . S
H1353 C1358 0.949 . S
H1354 C1360 0.950 . S
H1355 C1361 0.950 . S
H1356 C1362 0.949 . S
C1357 H1352 0.950 . S
C1357 C1359 1.327 . S
C1357 C1363 1.441 . S
C1358 C1350 1.574 1_455 S
C1358 H1353 0.949 . S
C1358 C1364 1.364 1_545 S
C1359 C1343 1.349 . S
C1359 H1351 0.950 . S
C1359 C1357 1.327 . S
C1360 C1348 1.349 . S
C1360 H1354 0.950 . S
C1360 C1361 1.327 . S
C1361 H1355 0.950 . S
C1361 C1360 1.327 . S
C1361 C1365 1.441 . S
C1362 C1345 1.574 1_655 S
C1362 H1356 0.949 . S
C1362 C1366 1.364 1_565 S
C1363 C1344 1.421 1_565 S
C1363 C1357 1.441 . S
C1363 C1364 1.522 . S
C1364 C1345 1.372 . S
C1364 C1358 1.364 1_565 S
C1364 C1363 1.522 . S
C1365 C1349 1.421 1_545 S
C1365 C1361 1.441 . S
C1365 C1366 1.522 . S
C1366 C1350 1.372 . S
C1366 C1362 1.364 1_545 S
C1366 C1365 1.522 . S
H1367 C1342 0.950 . S
H1368 C1344 0.957 . S
H1369 C1345 0.949 . S
H1370 C1347 0.950 . S
H1371 C1349 0.957 . S
C1372 C1373 1.349 . S
C1372 C1374 1.327 . S
C1372 H1397 0.950 . S
C1373 C1372 1.349 . S
C1373 C1389 1.349 . S
C1374 C1372 1.327 . S
C1374 C1393 1.429 . S
C1374 H1398 0.950 . S
C1375 C1392 1.574 . S
C1375 C1394 1.368 . S
C1375 H1399 0.949 . S
H1376 C1380 0.949 . S
C1377 C1378 1.349 . S
C1377 C1379 1.327 . S
C1377 H1400 0.950 . S
C1378 C1377 1.349 . S
C1378 C1390 1.349 . S
C1379 C1377 1.327 . S
C1379 C1395 1.429 . S
C1379 H1401 0.950 . S
C1380 H1376 0.949 . S
C1380 C1388 1.574 . S
C1380 C1396 1.368 . S
H1381 C1389 0.950 . S
H1382 C1387 0.950 . S
H1383 C1388 0.949 . S
H1384 C1390 0.950 . S
H1385 C1391 0.950 . S
H1386 C1392 0.949 . S
C1387 H1382 0.950 . S
C1387 C1389 1.327 . S
C1387 C1393 1.429 . S
C1388 C1380 1.574 . S
C1388 H1383 0.949 . S
C1388 C1394 1.368 . S
C1389 C1373 1.349 . S
C1389 H1381 0.950 . S
C1389 C1387 1.327 . S
C1390 C1378 1.349 . S
C1390 H1384 0.950 . S
C1390 C1391 1.327 . S
C1391 H1385 0.950 . S
C1391 C1390 1.327 . S
C1391 C1395 1.429 . S
C1392 C1375 1.574 . S
C1392 H1386 0.949 . S
C1392 C1396 1.368 . S
C1393 C1374 1.429 . S
C1393 C1387 1.429 . S
C1393 C1394 1.523 . S
C1394 C1375 1.368 . S
C1394 C1388 1.368 . S
C1394 C1393 1.523 . S
C1395 C1379 1.429 . S
C1395 C1391 1.429 . S
C1395 C1396 1.523 . S
C1396 C1380 1.368 . S
C1396 C1392 1.368 . S
C1396 C1395 1.523 . S
H1397 C1372 0.950 . S
H1398 C1374 0.950 . S
H1399 C1375 0.949 . S
H1400 C1377 0.950 . S
H1401 C1379 0.950 . S
C1402 C1403 1.349 1_554 S
C1402 C1404 1.327 . S
C1402 H1427 0.950 . S
C1403 C1402 1.349 1_556 S
C1403 C1419 1.349 1_545 S
C1404 C1402 1.327 . S
C1404 C1423 1.462 1_554 S
C1404 H1428 0.950 . S
C1405 C1422 1.574 . S
C1405 C1424 1.381 1_565 S
C1405 H1429 0.949 . S
H1406 C1410 0.949 . S
C1407 C1408 1.349 1_556 S
C1407 C1409 1.327 . S
C1407 H1430 0.950 . S
C1408 C1407 1.349 1_554 S
C1408 C1420 1.349 1_565 S
C1409 C1407 1.327 . S
C1409 C1425 1.462 1_556 S
C1409 H1431 0.950 . S
C1410 H1406 0.949 . S
C1410 C1418 1.574 . S
C1410 C1426 1.381 1_545 S
H1411 C1419 0.950 . S
H1412 C1417 0.950 . S
H1413 C1418 0.949 . S
H1414 C1420 0.950 . S
H1415 C1421 0.950 . S
H1416 C1422 0.949 . S
C1417 H1412 0.950 . S
C1417 C1419 1.327 . S
C1417 C1423 1.401 1_565 S
C1418 C1410 1.574 . S
C1418 H1413 0.949 . S
C1418 C1424 1.355 1_554 S
C1419 C1403 1.349 1_565 S
C1419 H1411 0.950 . S
C1419 C1417 1.327 . S
C1420 C1408 1.349 1_545 S
C1420 H1414 0.950 . S
C1420 C1421 1.327 . S
C1421 H1415 0.950 . S
C1421 C1420 1.327 . S
C1421 C1425 1.401 1_545 S
C1422 C1405 1.574 . S
C1422 H1416 0.949 . S
C1422 C1426 1.355 1_556 S
C1423 C1404 1.462 1_556 S
C1423 C1417 1.401 1_545 S
C1423 C1424 1.523 . S
C1424 C1405 1.381 1_545 S
C1424 C1418 1.355 1_556 S
C1424 C1423 1.523 . S
C1425 C1409 1.462 1_554 S
C1425 C1421 1.401 1_565 S
C1425 C1426 1.523 . S
C1426 C1410 1.381 1_565 S
C1426 C1422 1.355 1_554 S
C1426 C1425 1.523 . S
H1427 C1402 0.950 . S
H1428 C1404 0.950 . S
H1429 C1405 0.949 . S
H1430 C1407 0.950 . S
H1431 C1409 0.950 . S
C1432 C1433 1.349 . S
C1432 C1434 1.327 . S
C1432 H1457 0.950 . S
C1433 C1432 1.349 . S
C1433 C1449 1.349 . S
C1434 C1432 1.327 . S
C1434 C1453 1.429 . S
C1434 H1458 0.950 . S
C1435 C1452 1.574 . S
C1435 C1454 1.368 . S
C1435 H1459 0.949 . S
H1436 C1440 0.949 . S
C1437 C1438 1.349 . S
C1437 C1439 1.327 . S
C1437 H1460 0.950 . S
C1438 C1437 1.349 . S
C1438 C1450 1.349 . S
C1439 C1437 1.327 . S
C1439 C1455 1.429 . S
C1439 H1461 0.950 . S
C1440 H1436 0.949 . S
C1440 C1448 1.574 . S
C1440 C1456 1.368 . S
H1441 C1449 0.950 . S
H1442 C1447 0.950 . S
H1443 C1448 0.949 . S
H1444 C1450 0.950 . S
H1445 C1451 0.950 . S
H1446 C1452 0.949 . S
C1447 H1442 0.950 . S
C1447 C1449 1.327 . S
C1447 C1453 1.429 . S
C1448 C1440 1.574 . S
C1448 H1443 0.949 . S
C1448 C1454 1.368 . S
C1449 C1433 1.349 . S
C1449 H1441 0.950 . S
C1449 C1447 1.327 . S
C1450 C1438 1.349 . S
C1450 H1444 0.950 . S
C1450 C1451 1.327 . S
C1451 H1445 0.950 . S
C1451 C1450 1.327 . S
C1451 C1455 1.429 . S
C1452 C1435 1.574 . S
C1452 H1446 0.949 . S
C1452 C1456 1.368 . S
C1453 C1434 1.429 . S
C1453 C1447 1.429 . S
C1453 C1454 1.523 . S
C1454 C1435 1.368 . S
C1454 C1448 1.368 . S
C1454 C1453 1.523 . S
C1455 C1439 1.429 . S
C1455 C1451 1.429 . S
C1455 C1456 1.523 . S
C1456 C1440 1.368 . S
C1456 C1452 1.368 . S
C1456 C1455 1.523 . S
H1457 C1432 0.950 . S
H1458 C1434 0.950 . S
H1459 C1435 0.949 . S
H1460 C1437 0.950 . S
H1461 C1439 0.950 . S
C1462 C1463 1.349 . S
C1462 C1464 1.327 . S
C1462 H1487 0.950 . S
C1463 C1462 1.349 . S
C1463 C1479 1.349 1_565 S
C1464 C1462 1.327 . S
C1464 C1483 1.447 . S
C1464 H1488 0.950 . S
C1465 C1482 1.574 . S
C1465 C1484 1.362 1_545 S
C1465 H1489 0.949 . S
H1466 C1470 0.949 . S
C1467 C1468 1.349 . S
C1467 C1469 1.327 . S
C1467 H1490 0.950 . S
C1468 C1467 1.349 . S
C1468 C1480 1.349 1_545 S
C1469 C1467 1.327 . S
C1469 C1485 1.447 . S
C1469 H1491 0.950 . S
C1470 H1466 0.949 . S
C1470 C1478 1.574 . S
C1470 C1486 1.362 1_565 S
H1471 C1479 0.950 . S
H1472 C1477 0.950 . S
H1473 C1478 0.949 . S
H1474 C1480 0.950 . S
H1475 C1481 0.950 . S
H1476 C1482 0.949 . S
C1477 H1472 0.950 . S
C1477 C1479 1.327 . S
C1477 C1483 1.417 1_545 S
C1478 C1470 1.574 . S
C1478 H1473 0.949 . S
C1478 C1484 1.375 . S
C1479 C1463 1.349 1_545 S
C1479 H1471 0.950 . S
C1479 C1477 1.327 . S
C1480 C1468 1.349 1_565 S
C1480 H1474 0.950 . S
C1480 C1481 1.327 . S
C1481 H1475 0.950 . S
C1481 C1480 1.327 . S
C1481 C1485 1.417 1_565 S
C1482 C1465 1.574 . S
C1482 H1476 0.949 . S
C1482 C1486 1.375 . S
C1483 C1464 1.447 . S
C1483 C1477 1.417 1_565 S
C1483 C1484 1.522 . S
C1484 C1465 1.362 1_565 S
C1484 C1478 1.375 . S
C1484 C1483 1.522 . S
C1485 C1469 1.447 . S
C1485 C1481 1.417 1_545 S
C1485 C1486 1.522 . S
C1486 C1470 1.362 1_545 S
C1486 C1482 1.375 . S
C1486 C1485 1.522 . S
H1487 C1462 0.950 . S
H1488 C1464 0.950 . S
H1489 C1465 0.949 . S
H1490 C1467 0.950 . S
H1491 C1469 0.950 . S
C1492 C1493 1.349 . S
C1492 C1494 1.327 . S
C1492 H1517 0.950 . S
C1493 C1492 1.349 . S
C1493 C1509 1.349 . S
C1494 C1492 1.327 . S
C1494 C1513 1.429 . S
C1494 H1518 0.950 . S
C1495 C1512 1.574 . S
C1495 C1514 1.368 . S
C1495 H1519 0.949 . S
H1496 C1500 0.949 . S
C1497 C1498 1.349 . S
C1497 C1499 1.327 . S
C1497 H1520 0.950 . S
C1498 C1497 1.349 . S
C1498 C1510 1.349 . S
C1499 C1497 1.327 . S
C1499 C1515 1.429 . S
C1499 H1521 0.950 . S
C1500 H1496 0.949 . S
C1500 C1508 1.574 . S
C1500 C1516 1.368 . S
H1501 C1509 0.950 . S
H1502 C1507 0.950 . S
H1503 C1508 0.949 . S
H1504 C1510 0.950 . S
H1505 C1511 0.950 . S
H1506 C1512 0.949 . S
C1507 H1502 0.950 . S
C1507 C1509 1.327 . S
C1507 C1513 1.429 . S
C1508 C1500 1.574 . S
C1508 H1503 0.949 . S
C1508 C1514 1.368 . S
C1509 C1493 1.349 . S
C1509 H1501 0.950 . S
C1509 C1507 1.327 . S
C1510 C1498 1.349 . S
C1510 H1504 0.950 . S
C1510 C1511 1.327 . S
C1511 H1505 0.950 . S
C1511 C1510 1.327 . S
C1511 C1515 1.429 . S
C1512 C1495 1.574 . S
C1512 H1506 0.949 . S
C1512 C1516 1.368 . S
C1513 C1494 1.429 . S
C1513 C1507 1.429 . S
C1513 C1514 1.523 . S
C1514 C1495 1.368 . S
C1514 C1508 1.368 . S
C1514 C1513 1.523 . S
C1515 C1499 1.429 . S
C1515 C1511 1.429 . S
C1515 C1516 1.523 . S
C1516 C1500 1.368 . S
C1516 C1512 1.368 . S
C1516 C1515 1.523 . S
H1517 C1492 0.950 . S
H1518 C1494 0.950 . S
H1519 C1495 0.949 . S
H1520 C1497 0.950 . S
H1521 C1499 0.950 . S
C1522 C1523 1.349 1_556 S
C1522 C1524 1.327 . S
C1522 H1547 0.950 . S
C1523 C1522 1.349 1_554 S
C1523 C1539 1.349 1_545 S
C1524 C1522 1.327 . S
C1524 C1543 1.462 1_556 S
C1524 H1548 0.950 . S
C1525 C1542 1.574 1_455 S
C1525 C1544 1.381 1_565 S
C1525 H1549 0.949 . S
H1526 C1530 0.949 . S
C1527 C1528 1.349 1_554 S
C1527 C1529 1.327 . S
C1527 H1550 0.950 . S
C1528 C1527 1.349 1_556 S
C1528 C1540 1.349 1_565 S
C1529 C1527 1.327 . S
C1529 C1545 1.462 1_554 S
C1529 H1551 0.950 . S
C1530 H1526 0.949 . S
C1530 C1538 1.574 1_655 S
C1530 C1546 1.381 1_545 S
H1531 C1539 0.950 . S
H1532 C1537 0.950 . S
H1533 C1538 0.949 . S
H1534 C1540 0.950 . S
H1535 C1541 0.950 . S
H1536 C1542 0.949 . S
C1537 H1532 0.950 . S
C1537 C1539 1.327 . S
C1537 C1543 1.401 1_565 S
C1538 C1530 1.574 1_455 S
C1538 H1533 0.949 . S
C1538 C1544 1.355 1_556 S
C1539 C1523 1.349 1_565 S
C1539 H1531 0.950 . S
C1539 C1537 1.327 . S
C1540 C1528 1.349 1_545 S
C1540 H1534 0.950 . S
C1540 C1541 1.327 . S
C1541 H1535 0.950 . S
C1541 C1540 1.327 . S
C1541 C1545 1.401 1_545 S
C1542 C1525 1.574 1_655 S
C1542 H1536 0.949 . S
C1542 C1546 1.355 1_554 S
C1543 C1524 1.462 1_554 S
C1543 C1537 1.401 1_545 S
C1543 C1544 1.523 . S
C1544 C1525 1.381 1_545 S
C1544 C1538 1.355 1_554 S
C1544 C1543 1.523 . S
C1545 C1529 1.462 1_556 S
C1545 C1541 1.401 1_565 S
C1545 C1546 1.523 . S
C1546 C1530 1.381 1_565 S
C1546 C1542 1.355 1_556 S
C1546 C1545 1.523 . S
H1547 C1522 0.950 . S
H1548 C1524 0.950 . S
H1549 C1525 0.949 . S
H1550 C1527 0.950 . S
H1551 C1529 0.950 . S
C1552 C1553 1.349 . S
C1552 C1554 1.327 . S
C1552 H1577 0.950 . S
C1553 C1552 1.349 . S
C1553 C1569 1.349 . S
C1554 C1552 1.327 . S
C1554 C1573 1.429 . S
C1554 H1578 0.950 . S
C1555 C1572 1.574 . S
C1555 C1574 1.368 . S
C1555 H1579 0.949 . S
H1556 C1560 0.949 . S
C1557 C1558 1.349 . S
C1557 C1559 1.327 . S
C1557 H1580 0.950 . S
C1558 C1557 1.349 . S
C1558 C1570 1.349 . S
C1559 C1557 1.327 . S
C1559 C1575 1.429 . S
C1559 H1581 0.950 . S
C1560 H1556 0.949 . S
C1560 C1568 1.574 . S
C1560 C1576 1.368 . S
H1561 C1569 0.950 . S
H1562 C1567 0.950 . S
H1563 C1568 0.949 . S
H1564 C1570 0.950 . S
H1565 C1571 0.950 . S
H1566 C1572 0.949 . S
C1567 H1562 0.950 . S
C1567 C1569 1.327 . S
C1567 C1573 1.429 . S
C1568 C1560 1.574 . S
C1568 H1563 0.949 . S
C1568 C1574 1.368 . S
C1569 C1553 1.349 . S
C1569 H1561 0.950 . S
C1569 C1567 1.327 . S
C1570 C1558 1.349 . S
C1570 H1564 0.950 . S
C1570 C1571 1.327 . S
C1571 H1565 0.950 . S
C1571 C1570 1.327 . S
C1571 C1575 1.429 . S
C1572 C1555 1.574 . S
C1572 H1566 0.949 . S
C1572 C1576 1.368 . S
C1573 C1554 1.429 . S
C1573 C1567 1.429 . S
C1573 C1574 1.523 . S
C1574 C1555 1.368 . S
C1574 C1568 1.368 . S
C1574 C1573 1.523 . S
C1575 C1559 1.429 . S
C1575 C1571 1.429 . S
C1575 C1576 1.523 . S
C1576 C1560 1.368 . S
C1576 C1572 1.368 . S
C1576 C1575 1.523 . S
H1577 C1552 0.950 . S
H1578 C1554 0.950 . S
H1579 C1555 0.949 . S
H1580 C1557 0.950 . S
H1581 C1559 0.950 . S
C1582 C1583 1.349 . S
C1582 C1584 1.327 . S
C1582 H1607 0.950 . S
C1583 C1582 1.349 . S
C1583 C1599 1.349 . S
C1584 C1582 1.327 . S
C1584 C1603 1.429 . S
C1584 H1608 0.950 . S
C1585 C1602 1.574 . S
C1585 C1604 1.368 . S
C1585 H1609 0.949 . S
H1586 C1590 0.949 . S
C1587 C1588 1.349 . S
C1587 C1589 1.327 . S
C1587 H1610 0.950 . S
C1588 C1587 1.349 . S
C1588 C1600 1.349 . S
C1589 C1587 1.327 . S
C1589 C1605 1.429 . S
C1589 H1611 0.950 . S
C1590 H1586 0.949 . S
C1590 C1598 1.574 . S
C1590 C1606 1.368 . S
H1591 C1599 0.950 . S
H1592 C1597 0.950 . S
H1593 C1598 0.949 . S
H1594 C1600 0.950 . S
H1595 C1601 0.950 . S
H1596 C1602 0.949 . S
C1597 H1592 0.950 . S
C1597 C1599 1.327 . S
C1597 C1603 1.429 . S
C1598 C1590 1.574 . S
C1598 H1593 0.949 . S
C1598 C1604 1.368 . S
C1599 C1583 1.349 . S
C1599 H1591 0.950 . S
C1599 C1597 1.327 . S
C1600 C1588 1.349 . S
C1600 H1594 0.950 . S
C1600 C1601 1.327 . S
C1601 H1595 0.950 . S
C1601 C1600 1.327 . S
C1601 C1605 1.429 . S
C1602 C1585 1.574 . S
C1602 H1596 0.949 . S
C1602 C1606 1.368 . S
C1603 C1584 1.429 . S
C1603 C1597 1.429 . S
C1603 C1604 1.523 . S
C1604 C1585 1.368 . S
C1604 C1598 1.368 . S
C1604 C1603 1.523 . S
C1605 C1589 1.429 . S
C1605 C1601 1.429 . S
C1605 C1606 1.523 . S
C1606 C1590 1.368 . S
C1606 C1602 1.368 . S
C1606 C1605 1.523 . S
H1607 C1582 0.950 . S
H1608 C1584 0.950 . S
H1609 C1585 0.949 . S
H1610 C1587 0.950 . S
H1611 C1589 0.950 . S
C1612 C1613 1.349 . S
C1612 C1614 1.327 . S
C1612 H1637 0.950 . S
C1613 C1612 1.349 . S
C1613 C1629 1.349 . S
C1614 C1612 1.327 . S
C1614 C1633 1.429 . S
C1614 H1638 0.950 . S
C1615 C1632 1.574 . S
C1615 C1634 1.368 . S
C1615 H1639 0.949 . S
H1616 C1620 0.949 . S
C1617 C1618 1.349 . S
C1617 C1619 1.327 . S
C1617 H1640 0.950 . S
C1618 C1617 1.349 . S
C1618 C1630 1.349 . S
C1619 C1617 1.327 . S
C1619 C1635 1.429 . S
C1619 H1641 0.950 . S
C1620 H1616 0.949 . S
C1620 C1628 1.574 . S
C1620 C1636 1.368 . S
H1621 C1629 0.950 . S
H1622 C1627 0.950 . S
H1623 C1628 0.949 . S
H1624 C1630 0.950 . S
H1625 C1631 0.950 . S
H1626 C1632 0.949 . S
C1627 H1622 0.950 . S
C1627 C1629 1.327 . S
C1627 C1633 1.429 . S
C1628 C1620 1.574 . S
C1628 H1623 0.949 . S
C1628 C1634 1.368 . S
C1629 C1613 1.349 . S
C1629 H1621 0.950 . S
C1629 C1627 1.327 . S
C1630 C1618 1.349 . S
C1630 H1624 0.950 . S
C1630 C1631 1.327 . S
C1631 H1625 0.950 . S
C1631 C1630 1.327 . S
C1631 C1635 1.429 . S
C1632 C1615 1.574 . S
C1632 H1626 0.949 . S
C1632 C1636 1.368 . S
C1633 C1614 1.429 . S
C1633 C1627 1.429 . S
C1633 C1634 1.523 . S
C1634 C1615 1.368 . S
C1634 C1628 1.368 . S
C1634 C1633 1.523 . S
C1635 C1619 1.429 . S
C1635 C1631 1.429 . S
C1635 C1636 1.523 . S
C1636 C1620 1.368 . S
C1636 C1632 1.368 . S
C1636 C1635 1.523 . S
H1637 C1612 0.950 . S
H1638 C1614 0.950 . S
H1639 C1615 0.949 . S
H1640 C1617 0.950 . S
H1641 C1619 0.950 . S
C1642 C1643 1.349 . S
C1642 C1644 1.327 . S
C1642 H1667 0.950 . S
C1643 C1642 1.349 . S
C1643 C1659 1.349 . S
C1644 C1642 1.327 . S
C1644 C1663 1.429 . S
C1644 H1668 0.950 . S
C1645 C1662 1.574 . S
C1645 C1664 1.368 . S
C1645 H1669 0.949 . S
H1646 C1650 0.949 . S
C1647 C1648 1.349 . S
C1647 C1649 1.327 . S
C1647 H1670 0.950 . S
C1648 C1647 1.349 . S
C1648 C1660 1.349 . S
C1649 C1647 1.327 . S
C1649 C1665 1.429 . S
C1649 H1671 0.950 . S
C1650 H1646 0.949 . S
C1650 C1658 1.574 . S
C1650 C1666 1.368 . S
H1651 C1659 0.950 . S
H1652 C1657 0.950 . S
H1653 C1658 0.949 . S
H1654 C1660 0.950 . S
H1655 C1661 0.950 . S
H1656 C1662 0.949 . S
C1657 H1652 0.950 . S
C1657 C1659 1.327 . S
C1657 C1663 1.429 . S
C1658 C1650 1.574 . S
C1658 H1653 0.949 . S
C1658 C1664 1.368 . S
C1659 C1643 1.349 . S
C1659 H1651 0.950 . S
C1659 C1657 1.327 . S
C1660 C1648 1.349 . S
C1660 H1654 0.950 . S
C1660 C1661 1.327 . S
C1661 H1655 0.950 . S
C1661 C1660 1.327 . S
C1661 C1665 1.429 . S
C1662 C1645 1.574 . S
C1662 H1656 0.949 . S
C1662 C1666 1.368 . S
C1663 C1644 1.429 . S
C1663 C1657 1.429 . S
C1663 C1664 1.523 . S
C1664 C1645 1.368 . S
C1664 C1658 1.368 . S
C1664 C1663 1.523 . S
C1665 C1649 1.429 . S
C1665 C1661 1.429 . S
C1665 C1666 1.523 . S
C1666 C1650 1.368 . S
C1666 C1662 1.368 . S
C1666 C1665 1.523 . S
H1667 C1642 0.950 . S
H1668 C1644 0.950 . S
H1669 C1645 0.949 . S
H1670 C1647 0.950 . S
H1671 C1649 0.950 . S
C1672 C1673 1.349 1_554 S
C1672 C1674 1.327 . S
C1672 H1697 0.950 . S
C1673 C1672 1.349 1_556 S
C1673 C1689 1.349 . S
C1674 C1672 1.327 . S
C1674 C1693 1.429 1_554 S
C1674 H1698 0.950 . S
C1675 C1692 1.574 . S
C1675 C1694 1.395 . S
C1675 H1699 0.949 . S
H1676 C1680 0.949 . S
C1677 C1678 1.349 1_556 S
C1677 C1679 1.327 . S
C1677 H1700 0.950 . S
C1678 C1677 1.349 1_554 S
C1678 C1690 1.349 . S
C1679 C1677 1.327 . S
C1679 C1695 1.429 1_556 S
C1679 H1701 0.950 . S
C1680 H1676 0.949 . S
C1680 C1688 1.574 . S
C1680 C1696 1.395 . S
H1681 C1689 0.950 . S
H1682 C1687 0.950 . S
H1683 C1688 0.949 . S
H1684 C1690 0.950 . S
H1685 C1691 0.950 . S
H1686 C1692 0.949 . S
C1687 H1682 0.950 . S
C1687 C1689 1.327 . S
C1687 C1693 1.429 . S
C1688 C1680 1.574 . S
C1688 H1683 0.949 . S
C1688 C1694 1.342 1_554 S
C1689 C1673 1.349 . S
C1689 H1681 0.950 . S
C1689 C1687 1.327 . S
C1690 C1678 1.349 . S
C1690 H1684 0.950 . S
C1690 C1691 1.327 . S
C1691 H1685 0.950 . S
C1691 C1690 1.327 . S
C1691 C1695 1.429 . S
C1692 C1675 1.574 . S
C1692 H1686 0.949 . S
C1692 C1696 1.342 1_556 S
C1693 C1674 1.429 1_556 S
C1693 C1687 1.429 . S
C1693 C1694 1.524 . S
C1694 C1675 1.395 . S
C1694 C1688 1.342 1_556 S
C1694 C1693 1.524 . S
C1695 C1679 1.429 1_554 S
C1695 C1691 1.429 . S
C1695 C1696 1.524 . S
C1696 C1680 1.395 . S
C1696 C1692 1.342 1_554 S
C1696 C1695 1.524 . S
H1697 C1672 0.950 . S
H1698 C1674 0.950 . S
H1699 C1675 0.949 . S
H1700 C1677 0.950 . S
H1701 C1679 0.950 . S
C1702 C1703 1.349 . S
C1702 C1704 1.327 . S
C1702 H1727 0.950 . S
C1703 C1702 1.349 . S
C1703 C1719 1.349 . S
C1704 C1702 1.327 . S
C1704 C1723 1.429 . S
C1704 H1728 0.950 . S
C1705 C1722 1.574 1_655 S
C1705 C1724 1.368 . S
C1705 H1729 0.949 . S
H1706 C1710 0.949 . S
C1707 C1708 1.349 . S
C1707 C1709 1.327 . S
C1707 H1730 0.950 . S
C1708 C1707 1.349 . S
C1708 C1720 1.349 . S
C1709 C1707 1.327 . S
C1709 C1725 1.429 . S
C1709 H1731 0.950 . S
C1710 H1706 0.949 . S
C1710 C1718 1.574 1_455 S
C1710 C1726 1.368 . S
H1711 C1719 0.950 . S
H1712 C1717 0.950 . S
H1713 C1718 0.949 . S
H1714 C1720 0.950 . S
H1715 C1721 0.950 . S
H1716 C1722 0.949 . S
C1717 H1712 0.950 . S
C1717 C1719 1.327 . S
C1717 C1723 1.429 . S
C1718 C1710 1.574 1_655 S
C1718 H1713 0.949 . S
C1718 C1724 1.368 . S
C1719 C1703 1.349 . S
C1719 H1711 0.950 . S
C1719 C1717 1.327 . S
C1720 C1708 1.349 . S
C1720 H1714 0.950 . S
C1720 C1721 1.327 . S
C1721 H1715 0.950 . S
C1721 C1720 1.327 . S
C1721 C1725 1.429 . S
C1722 C1705 1.574 1_455 S
C1722 H1716 0.949 . S
C1722 C1726 1.368 . S
C1723 C1704 1.429 . S
C1723 C1717 1.429 . S
C1723 C1724 1.523 . S
C1724 C1705 1.368 . S
C1724 C1718 1.368 . S
C1724 C1723 1.523 . S
C1725 C1709 1.429 . S
C1725 C1721 1.429 . S
C1725 C1726 1.523 . S
C1726 C1710 1.368 . S
C1726 C1722 1.368 . S
C1726 C1725 1.523 . S
H1727 C1702 0.950 . S
H1728 C1704 0.950 . S
H1729 C1705 0.949 . S
H1730 C1707 0.950 . S
H1731 C1709 0.950 . S
C1732 C1733 1.349 . S
C1732 C1734 1.327 . S
C1732 H1757 0.950 . S
C1733 C1732 1.349 . S
C1733 C1749 1.349 1_556 S
C1734 C1732 1.327 . S
C1734 C1753 1.429 . S
C1734 H1758 0.950 . S
C1735 C1752 1.574 1_455 S
C1735 C1754 1.360 1_554 S
C1735 H1759 0.949 . S
H1736 C1740 0.949 . S
C1737 C1738 1.349 . S
C1737 C1739 1.327 . S
C1737 H1760 0.950 . S
C1738 C1737 1.349 . S
C1738 C1750 1.349 1_554 S
C1739 C1737 1.327 . S
C1739 C1755 1.429 . S
C1739 H1761 0.950 . S
C1740 H1736 0.949 . S
C1740 C1748 1.574 1_655 S
C1740 C1756 1.360 1_556 S
H1741 C1749 0.950 . S
H1742 C1747 0.950 . S
H1743 C1748 0.949 . S
H1744 C1750 0.950 . S
H1745 C1751 0.950 . S
H1746 C1752 0.949 . S
C1747 H1742 0.950 . S
C1747 C1749 1.327 . S
C1747 C1753 1.429 1_554 S
C1748 C1740 1.574 1_455 S
C1748 H1743 0.949 . S
C1748 C1754 1.376 . S
C1749 C1733 1.349 1_554 S
C1749 H1741 0.950 . S
C1749 C1747 1.327 . S
C1750 C1738 1.349 1_556 S
C1750 H1744 0.950 . S
C1750 C1751 1.327 . S
C1751 H1745 0.950 . S
C1751 C1750 1.327 . S
C1751 C1755 1.429 1_556 S
C1752 C1735 1.574 1_655 S
C1752 H1746 0.949 . S
C1752 C1756 1.376 . S
C1753 C1734 1.429 . S
C1753 C1747 1.429 1_556 S
C1753 C1754 1.524 . S
C1754 C1735 1.360 1_556 S
C1754 C1748 1.376 . S
C1754 C1753 1.524 . S
C1755 C1739 1.429 . S
C1755 C1751 1.429 1_554 S
C1755 C1756 1.524 . S
C1756 C1740 1.360 1_554 S
C1756 C1752 1.376 . S
C1756 C1755 1.524 . S
H1757 C1732 0.950 . S
H1758 C1734 0.950 . S
H1759 C1735 0.949 . S
H1760 C1737 0.950 . S
H1761 C1739 0.950 . S
C1762 C1763 1.349 . S
C1762 C1764 1.327 . S
C1762 H1787 0.950 . S
C1763 C1762 1.349 . S
C1763 C1779 1.349 . S
C1764 C1762 1.327 . S
C1764 C1783 1.429 . S
C1764 H1788 0.950 . S
C1765 C1782 1.574 . S
C1765 C1784 1.368 . S
C1765 H1789 0.949 . S
H1766 C1770 0.949 . S
C1767 C1768 1.349 . S
C1767 C1769 1.327 . S
C1767 H1790 0.950 . S
C1768 C1767 1.349 . S
C1768 C1780 1.349 . S
C1769 C1767 1.327 . S
C1769 C1785 1.429 . S
C1769 H1791 0.950 . S
C1770 H1766 0.949 . S
C1770 C1778 1.574 . S
C1770 C1786 1.368 . S
H1771 C1779 0.950 . S
H1772 C1777 0.950 . S
H1773 C1778 0.949 . S
H1774 C1780 0.950 . S
H1775 C1781 0.950 . S
H1776 C1782 0.949 . S
C1777 H1772 0.950 . S
C1777 C1779 1.327 . S
C1777 C1783 1.429 . S
C1778 C1770 1.574 . S
C1778 H1773 0.949 . S
C1778 C1784 1.368 . S
C1779 C1763 1.349 . S
C1779 H1771 0.950 . S
C1779 C1777 1.327 . S
C1780 C1768 1.349 . S
C1780 H1774 0.950 . S
C1780 C1781 1.327 . S
C1781 H1775 0.950 . S
C1781 C1780 1.327 . S
C1781 C1785 1.429 . S
C1782 C1765 1.574 . S
C1782 H1776 0.949 . S
C1782 C1786 1.368 . S
C1783 C1764 1.429 . S
C1783 C1777 1.429 . S
C1783 C1784 1.523 . S
C1784 C1765 1.368 . S
C1784 C1778 1.368 . S
C1784 C1783 1.523 . S
C1785 C1769 1.429 . S
C1785 C1781 1.429 . S
C1785 C1786 1.523 . S
C1786 C1770 1.368 . S
C1786 C1782 1.368 . S
C1786 C1785 1.523 . S
H1787 C1762 0.950 . S
H1788 C1764 0.950 . S
H1789 C1765 0.949 . S
H1790 C1767 0.950 . S
H1791 C1769 0.950 . S
C353 C7 1.418 . S
C358 C73 1.418 . S
C383 C18 1.418 . S
C388 C84 1.418 . S
C413 C29 1.418 . S
C418 C51 1.418 . S
C443 C40 1.418 . S
C448 C62 1.418 . S
C473 C161 1.495 . S
C478 C95 1.495 . S
C503 C172 1.495 . S
C508 C106 1.495 . S
C533 C139 1.495 . S
C538 C117 1.495 . S
C563 C150 1.495 . S
C568 C128 1.495 . S
C593 C249 1.418 . S
C598 C183 1.418 . S
C623 C194 1.418 . S
C628 C260 1.418 . S
C653 C227 1.418 . S
C658 C205 1.418 . S
C683 C216 1.418 . S
C688 C238 1.418 . S
C713 C337 1.495 . S
C718 C271 1.495 . S
C743 C282 1.495 . S
C748 C348 1.495 . S
C773 C293 1.495 . S
C778 C315 1.495 . S
C803 C304 1.495 . S
C808 C326 1.495 . S
C833 C8 1.679 . S
C838 C85 1.679 . S
C863 C52 1.679 . S
C868 C19 1.679 . S
C893 C63 1.679 . S
C898 C30 1.679 . S
C923 C74 1.679 . S
C928 C41 1.679 . S
C953 C173 1.716 . S
C958 C96 1.716 . S
C983 C107 1.716 . S
C988 C140 1.716 . S
C1013 C118 1.716 . S
C1018 C151 1.716 . S
C1043 C162 1.716 . S
C1048 C129 1.716 . S
C1073 C261 1.679 . S
C1078 C184 1.679 . S
C1103 C228 1.679 . S
C1108 C195 1.679 . S
C1133 C206 1.679 . S
C1138 C239 1.679 . S
C1163 C250 1.679 . S
C1168 C217 1.679 . S
C1193 C349 1.716 . S
C1198 C272 1.716 . S
C1223 C316 1.716 . S
C1228 C283 1.716 . S
C1253 C327 1.716 . S
C1258 C294 1.716 . S
C1283 C305 1.716 . S
C1288 C338 1.716 . S
C1313 C5 1.363 . S
C1318 C269 1.613 . S
C1343 C16 1.363 . S
C1348 C104 1.614 1_545 S
C1373 C291 1.613 . S
C1378 C27 1.363 . S
C1403 C38 1.363 1_556 S
C1408 C126 1.614 1_565 S
C1433 C313 1.613 . S
C1438 C49 1.363 . S
C1463 C60 1.363 . S
C1468 C148 1.613 1_545 S
C1493 C335 1.613 . S
C1498 C71 1.363 . S
C1523 C82 1.363 1_554 S
C1528 C170 1.614 1_565 S
C1553 C93 1.613 . S
C1558 C181 1.363 . S
C1583 C203 1.363 . S
C1588 C115 1.613 . S
C1613 C225 1.363 . S
C1618 C137 1.613 . S
C1643 C247 1.363 . S
C1648 C159 1.613 . S
C1673 C192 1.363 1_556 S
C1678 C280 1.614 . S
C1703 C214 1.363 . S
C1708 C302 1.614 . S
C1733 C324 1.613 . S
C1738 C236 1.363 1_554 S
C1763 C258 1.363 . S
C1768 C346 1.613 . S
