# Generated by pormake.
# Topology wju, (5)-cn, num edge types: 1
# Building blocks:
#     Node 0, Type 0, BuildingBlock: XOMCOT_clean_sbu_1, # of connection points: 5
#     Node 1, Type 0, BuildingBlock: XOMCOT_clean_sbu_1, # of connection points: 5
#     Node 2, Type 0, BuildingBlock: XOMCOT_clean_sbu_1, # of connection points: 5
#     Node 3, Type 0, BuildingBlock: XOMCOT_clean_sbu_1, # of connection points: 5
#     Node 4, Type 0, BuildingBlock: XOMCOT_clean_sbu_1, # of connection points: 5
#     Node 5, Type 0, BuildingBlock: XOMCOT_clean_sbu_1, # of connection points: 5
#     Node 6, Type 0, BuildingBlock: XOMCOT_clean_sbu_1, # of connection points: 5
#     Node 7, Type 0, BuildingBlock: XOMCOT_clean_sbu_1, # of connection points: 5
#     Node 8, Type 0, BuildingBlock: XOMCOT_clean_sbu_1, # of connection points: 5
#     Node 9, Type 0, BuildingBlock: XOMCOT_clean_sbu_1, # of connection points: 5
#     Node 10, Type 0, BuildingBlock: XOMCOT_clean_sbu_1, # of connection points: 5
#     Node 11, Type 0, BuildingBlock: XOMCOT_clean_sbu_1, # of connection points: 5
#     Edge 12, Type (0, 0), BuildingBlock: CIFDUS_clean_linker_0, # of connection points: 2
#     Edge 13, Type (0, 0), BuildingBlock: CIFDUS_clean_linker_0, # of connection points: 2
#     Edge 14, Type (0, 0), BuildingBlock: CIFDUS_clean_linker_0, # of connection points: 2
#     Edge 15, Type (0, 0), BuildingBlock: CIFDUS_clean_linker_0, # of connection points: 2
#     Edge 16, Type (0, 0), BuildingBlock: CIFDUS_clean_linker_0, # of connection points: 2
#     Edge 17, Type (0, 0), BuildingBlock: CIFDUS_clean_linker_0, # of connection points: 2
#     Edge 18, Type (0, 0), BuildingBlock: CIFDUS_clean_linker_0, # of connection points: 2
#     Edge 19, Type (0, 0), BuildingBlock: CIFDUS_clean_linker_0, # of connection points: 2
#     Edge 20, Type (0, 0), BuildingBlock: CIFDUS_clean_linker_0, # of connection points: 2
#     Edge 21, Type (0, 0), BuildingBlock: CIFDUS_clean_linker_0, # of connection points: 2
#     Edge 22, Type (0, 0), BuildingBlock: CIFDUS_clean_linker_0, # of connection points: 2
#     Edge 23, Type (0, 0), BuildingBlock: CIFDUS_clean_linker_0, # of connection points: 2
#     Edge 24, Type (0, 0), BuildingBlock: CIFDUS_clean_linker_0, # of connection points: 2
#     Edge 25, Type (0, 0), BuildingBlock: CIFDUS_clean_linker_0, # of connection points: 2
#     Edge 26, Type (0, 0), BuildingBlock: CIFDUS_clean_linker_0, # of connection points: 2
#     Edge 27, Type (0, 0), BuildingBlock: CIFDUS_clean_linker_0, # of connection points: 2
#     Edge 28, Type (0, 0), BuildingBlock: CIFDUS_clean_linker_0, # of connection points: 2
#     Edge 29, Type (0, 0), BuildingBlock: CIFDUS_clean_linker_0, # of connection points: 2
#     Edge 30, Type (0, 0), BuildingBlock: CIFDUS_clean_linker_0, # of connection points: 2
#     Edge 31, Type (0, 0), BuildingBlock: CIFDUS_clean_linker_0, # of connection points: 2
#     Edge 32, Type (0, 0), BuildingBlock: CIFDUS_clean_linker_0, # of connection points: 2
#     Edge 33, Type (0, 0), BuildingBlock: CIFDUS_clean_linker_0, # of connection points: 2
#     Edge 34, Type (0, 0), BuildingBlock: CIFDUS_clean_linker_0, # of connection points: 2
#     Edge 35, Type (0, 0), BuildingBlock: CIFDUS_clean_linker_0, # of connection points: 2
#     Edge 36, Type (0, 0), BuildingBlock: CIFDUS_clean_linker_0, # of connection points: 2
#     Edge 37, Type (0, 0), BuildingBlock: CIFDUS_clean_linker_0, # of connection points: 2
#     Edge 38, Type (0, 0), BuildingBlock: CIFDUS_clean_linker_0, # of connection points: 2
#     Edge 39, Type (0, 0), BuildingBlock: CIFDUS_clean_linker_0, # of connection points: 2
#     Edge 40, Type (0, 0), BuildingBlock: CIFDUS_clean_linker_0, # of connection points: 2
#     Edge 41, Type (0, 0), BuildingBlock: CIFDUS_clean_linker_0, # of connection points: 2
# Relax obj value: 0.078
# Max RMSD: 0.117
# Mean RMSD: 0.117
data_MOF--net-wju--node1-XOMCOT_clean_sbu_1--edge1-CIFDUS_clean_linker_0
_symmetry_space_group_name_H-M    P1
_symmetry_Int_Tables_number       1
_symmetry_cell_setting            triclinic
loop_
_symmetry_equiv_pos_as_xyz
'x, y, z'
_cell_length_a     24.45491
_cell_length_b     24.755585
_cell_length_c     92.256321
_cell_angle_alpha  89.745086
_cell_angle_beta   90.284712
_cell_angle_gamma 120.00369
loop_
_atom_site_label
_atom_site_type_symbol
_atom_site_fract_x
_atom_site_fract_y
_atom_site_fract_z
_atom_type_partial_charge
C0 C 0.32463 0.19288 0.12115 0.0
C1 C 0.31848 0.20152 0.1356 0.0
N2 N 0.32823 0.16068 0.1433 0.0
N3 N 0.33862 0.14698 0.1196 0.0
C4 C 0.33996 0.12779 0.13329 0.0
H5 H 0.31951 0.2187 0.11227 0.0
Co6 Co 0.34979 0.11923 0.10145 0.0
C7 C 0.45606 0.09743 0.11235 0.0
O8 O 0.4993 0.15465 0.10921 0.0
N9 N 0.35949 0.08965 0.08317 0.0
C10 C 0.40338 0.07278 0.06388 0.0
C11 C 0.41377 0.09643 0.07769 0.0
C12 C 0.3166 0.06107 0.07242 0.0
N13 N 0.34224 0.05063 0.06055 0.0
O14 O 0.26802 0.04594 0.10387 0.0
H15 H 0.45895 0.11929 0.0831 0.0
H16 H 0.2679 0.0498 0.07303 0.0
O17 O 0.39709 0.07894 0.11019 0.0
C18 C 0.23251 0.06772 0.09971 0.0
O19 O 0.25975 0.12354 0.09377 0.0
N20 N 0.42238 0.19804 0.09825 0.0
C21 C 0.48459 0.32705 0.09473 0.0
C22 C 0.49082 0.30089 0.10767 0.0
C23 C 0.45868 0.23625 0.10929 0.0
C24 C 0.41929 0.22362 0.08532 0.0
C25 C 0.4509 0.2877 0.08325 0.0
H26 H 0.45821 0.21746 0.11992 0.0
H27 H 0.38628 0.19545 0.077 0.0
H28 H 0.34969 0.09072 0.13583 0.0
H29 H 0.30629 0.23451 0.14004 0.0
H30 H 0.43827 0.07211 0.05682 0.0
H31 H 0.51643 0.33006 0.11682 0.0
H32 H 0.44342 0.30608 0.07322 0.0
C33 C 0.12377 0.21529 0.45981 0.0
C34 C 0.11891 0.21452 0.4746 0.0
N35 N 0.17204 0.26294 0.47998 0.0
N36 N 0.18006 0.2635 0.45576 0.0
C37 C 0.20871 0.29179 0.46832 0.0
H38 H 0.08698 0.18433 0.45246 0.0
Co39 Co 0.19988 0.28729 0.43646 0.0
C40 C 0.33545 0.38262 0.43551 0.0
O41 O 0.3208 0.41173 0.42565 0.0
N42 N 0.21771 0.31011 0.4165 0.0
C43 C 0.22066 0.34764 0.39435 0.0
C44 C 0.2022 0.34625 0.40843 0.0
C45 C 0.24554 0.29005 0.40691 0.0
N46 N 0.24757 0.31182 0.39331 0.0
O47 O 0.19483 0.20854 0.43269 0.0
H48 H 0.17898 0.37062 0.41233 0.0
H49 H 0.26254 0.25867 0.40984 0.0
O50 O 0.29199 0.33094 0.44091 0.0
C51 C 0.13957 0.17451 0.42727 0.0
O52 O 0.10848 0.20208 0.42284 0.0
N53 N 0.19274 0.35668 0.44042 0.0
C54 C 0.14587 0.43666 0.44396 0.0
C55 C 0.20851 0.45617 0.44785 0.0
C56 C 0.231 0.41433 0.4463 0.0
C57 C 0.13045 0.33587 0.4381 0.0
C58 C 0.10606 0.37494 0.43974 0.0
H59 H 0.27824 0.42844 0.44989 0.0
H60 H 0.0997 0.28862 0.43453 0.0
H61 H 0.25373 0.33463 0.46885 0.0
H62 H 0.07857 0.18155 0.48089 0.0
H63 H 0.21466 0.37346 0.3856 0.0
H64 H 0.23959 0.50303 0.45176 0.0
H65 H 0.05659 0.3574 0.4373 0.0
C66 C 0.80464 0.07918 0.79113 0.0
C67 C 0.78611 0.06675 0.80534 0.0
N68 N 0.82316 0.1179 0.81332 0.0
N69 N 0.85326 0.13804 0.78996 0.0
C70 C 0.86369 0.16051 0.80365 0.0
H71 H 0.78455 0.04676 0.78222 0.0
Co72 Co 0.89587 0.17391 0.77252 0.0
C73 C 0.9242 0.30468 0.77326 0.0
O74 O 0.89701 0.29289 0.76045 0.0
N75 N 0.94094 0.21049 0.75498 0.0
C76 C 0.02373 0.27283 0.74121 0.0
C77 C 1.00292 0.25396 0.75511 0.0
C78 C 0.9255 0.20386 0.74068 0.0
N79 N 0.97495 0.24113 0.73204 0.0
O80 O 0.96732 0.16819 0.77968 0.0
H81 H 0.03136 0.27172 0.76481 0.0
H82 H 0.87916 0.1725 0.7365 0.0
O83 O 0.92714 0.26069 0.78011 0.0
C84 C 0.94974 0.11156 0.77625 0.0
O85 O 0.89685 0.07994 0.76894 0.0
N86 N 0.8206 0.1656 0.76523 0.0
C87 C 0.69028 0.09162 0.7623 0.0
C88 C 0.71621 0.14566 0.77089 0.0
C89 C 0.78217 0.18217 0.77232 0.0
C90 C 0.79528 0.11545 0.75618 0.0
C91 C 0.73071 0.07913 0.75423 0.0
H92 H 0.8014 0.21819 0.78049 0.0
H93 H 0.82435 0.09773 0.75199 0.0
H94 H 0.90069 0.20702 0.80643 0.0
H95 H 0.7494 0.02243 0.80947 0.0
H96 H 0.07112 0.30798 0.73821 0.0
H97 H 0.68608 0.156 0.77748 0.0
H98 H 0.71246 0.03765 0.74757 0.0
C99 C 0.78739 0.85727 0.12576 0.0
C100 C 0.78317 0.85135 0.14051 0.0
N101 N 0.74526 0.87237 0.14523 0.0
N102 N 0.75264 0.88225 0.121 0.0
C103 C 0.72751 0.89141 0.13317 0.0
H104 H 0.8132 0.84269 0.11887 0.0
Co105 Co 0.74422 0.88864 0.10105 0.0
C106 C 0.64259 0.91783 0.09587 0.0
O107 O 0.62575 0.8759 0.08557 0.0
N108 N 0.73872 0.8942 0.08042 0.0
C109 C 0.73014 0.87343 0.05679 0.0
C110 C 0.72675 0.84985 0.07041 0.0
C111 C 0.75078 0.94509 0.07239 0.0
N112 N 0.74489 0.93337 0.05795 0.0
O113 O 0.8251 0.96546 0.10089 0.0
H114 H 0.71768 0.80332 0.07253 0.0
H115 H 0.76308 0.98968 0.07713 0.0
O116 O 0.69143 0.93039 0.10371 0.0
C117 C 0.86291 0.94563 0.09748 0.0
O118 O 0.83827 0.88797 0.09292 0.0
N119 N 0.67335 0.80904 0.1017 0.0
C120 C 0.59104 0.68146 0.10277 0.0
C121 C 0.57106 0.72256 0.10749 0.0
C122 C 0.61402 0.78697 0.10723 0.0
C123 C 0.69433 0.76885 0.0987 0.0
C124 C 0.65409 0.70535 0.09889 0.0
H125 H 0.59983 0.81821 0.11173 0.0
H126 H 0.74317 0.78634 0.096 0.0
H127 H 0.69545 0.90963 0.13317 0.0
H128 H 0.80663 0.83318 0.14726 0.0
H129 H 0.72415 0.84848 0.04677 0.0
H130 H 0.52341 0.70521 0.11138 0.0
H131 H 0.67256 0.67502 0.09611 0.0
C132 C 0.93283 0.73226 0.45611 0.0
C133 C 0.94604 0.73504 0.47064 0.0
N134 N 0.89251 0.71774 0.47807 0.0
N135 N 0.87102 0.71302 0.45422 0.0
C136 C 0.84763 0.70523 0.46785 0.0
H137 H 0.96585 0.74139 0.44742 0.0
Co138 Co 0.83383 0.69714 0.43558 0.0
C139 C 0.70544 0.5904 0.44413 0.0
O140 O 0.72117 0.54954 0.43995 0.0
N141 N 0.79594 0.68192 0.41662 0.0
C142 C 0.74416 0.63356 0.39642 0.0
C143 C 0.76068 0.62574 0.41017 0.0
C144 C 0.79888 0.72315 0.40645 0.0
N145 N 0.76823 0.69487 0.39407 0.0
O146 O 0.83639 0.77567 0.43654 0.0
H147 H 0.74929 0.58138 0.41484 0.0
H148 H 0.82388 0.77315 0.40789 0.0
O149 O 0.74596 0.64918 0.44357 0.0
C150 C 0.89333 0.81052 0.43212 0.0
O151 O 0.92345 0.78346 0.42683 0.0
N152 N 0.84588 0.62836 0.43408 0.0
C153 C 0.91262 0.56487 0.43286 0.0
C154 C 0.87569 0.55861 0.44499 0.0
C155 C 0.84329 0.59159 0.44549 0.0
C156 C 0.88149 0.63405 0.42221 0.0
C157 C 0.91388 0.60168 0.42123 0.0
H158 H 0.81955 0.59078 0.45541 0.0
H159 H 0.88964 0.66813 0.4139 0.0
H160 H 0.79833 0.68796 0.47024 0.0
H161 H 0.99153 0.74796 0.47538 0.0
H162 H 0.71625 0.59687 0.38875 0.0
H163 H 0.87448 0.53112 0.45428 0.0
H164 H 0.94386 0.60963 0.41192 0.0
C165 C 0.21966 0.88093 0.78722 0.0
C166 C 0.23205 0.89637 0.80163 0.0
N167 N 0.18005 0.85816 0.80931 0.0
N168 N 0.16053 0.8321 0.78574 0.0
C169 C 0.13719 0.82024 0.79937 0.0
H170 H 0.251 0.90548 0.7783 0.0
Co171 Co 0.11801 0.79989 0.76798 0.0
C172 C 0.07676 0.67439 0.78476 0.0
O173 O 0.11845 0.69613 0.79532 0.0
N174 N 0.07474 0.76876 0.75018 0.0
C175 C 0.02756 0.70672 0.7313 0.0
C176 C 0.05192 0.71047 0.74494 0.0
C177 C 0.06448 0.79988 0.73934 0.0
N178 N 0.03577 0.76298 0.72775 0.0
O179 O 0.05184 0.81449 0.77453 0.0
H180 H 0.05631 0.67377 0.75018 0.0
H181 H 0.08091 0.84938 0.7396 0.0
O182 O 0.07565 0.71183 0.77522 0.0
C183 C 0.07518 0.87338 0.77267 0.0
O184 O 0.13119 0.9049 0.76664 0.0
N185 N 0.18802 0.79599 0.76081 0.0
C186 C 0.31791 0.86036 0.75679 0.0
C187 C 0.29053 0.81274 0.76726 0.0
C188 C 0.22466 0.77994 0.76893 0.0
C189 C 0.21356 0.83497 0.74921 0.0
C190 C 0.27815 0.86639 0.7468 0.0
H191 H 0.20528 0.74984 0.77819 0.0
H192 H 0.18605 0.84972 0.74297 0.0
H193 H 0.089 0.78536 0.80184 0.0
H194 H 0.27498 0.93492 0.80597 0.0
H195 H 1.00967 0.66704 0.72408 0.0
H196 H 0.3195 0.80584 0.77512 0.0
H197 H 0.29714 0.90082 0.73819 0.0
C198 C 0.79503 0.69586 0.58517 0.0
C199 C 0.78135 0.69864 0.57084 0.0
N200 N 0.8311 0.70758 0.56281 0.0
N201 N 0.85275 0.70165 0.58634 0.0
C202 C 0.87409 0.70997 0.57252 0.0
H203 H 0.76494 0.69068 0.59425 0.0
Co204 Co 0.89287 0.70663 0.60429 0.0
C205 C 0.93502 0.623 0.58744 0.0
O206 O 0.89457 0.6034 0.57662 0.0
N207 N 0.93357 0.71289 0.6223 0.0
C208 C 0.97232 0.68707 0.64128 0.0
C209 C 0.95153 0.67264 0.62725 0.0
C210 C 0.94341 0.75111 0.63374 0.0
N211 N 0.96718 0.7363 0.64539 0.0
O212 O 0.96084 0.78721 0.59868 0.0
H213 H 0.94494 0.63178 0.62157 0.0
H214 H 0.92849 0.78555 0.63392 0.0
O215 O 0.93431 0.66072 0.59684 0.0
C216 C 0.93764 0.82262 0.60124 0.0
O217 O 0.88126 0.79732 0.60714 0.0
N218 N 0.82102 0.63305 0.61061 0.0
C219 C 0.69102 0.56894 0.6144 0.0
C220 C 0.71847 0.55022 0.60362 0.0
C221 C 0.7844 0.58268 0.60202 0.0
C222 C 0.79511 0.64529 0.62231 0.0
C223 C 0.7305 0.61286 0.62459 0.0
H224 H 0.80404 0.57345 0.59259 0.0
H225 H 0.82251 0.68621 0.62881 0.0
H226 H 0.92102 0.7196 0.5697 0.0
H227 H 0.73785 0.69423 0.56669 0.0
H228 H 0.98458 0.65981 0.64841 0.0
H229 H 0.68945 0.51593 0.59558 0.0
H230 H 0.71125 0.62734 0.63333 0.0
C231 C 0.13834 0.92751 0.91335 0.0
C232 C 0.13638 0.92664 0.89853 0.0
N233 N 0.18562 0.9221 0.89361 0.0
N234 N 0.18919 0.9246 0.918 0.0
C235 C 0.21767 0.92199 0.90565 0.0
H236 H 0.10217 0.92625 0.92022 0.0
Co237 Co 0.19893 0.91038 0.93763 0.0
C238 C 0.32868 0.93178 0.94176 0.0
O239 O 0.30037 0.88181 0.94999 0.0
N240 N 0.20581 0.89586 0.95773 0.0
C241 C 0.18864 0.85636 0.9801 0.0
C242 C 0.17299 0.8433 0.96571 0.0
C243 C 0.24106 0.94018 0.96765 0.0
N244 N 0.23137 0.91736 0.98132 0.0
O245 O 0.19698 0.98602 0.94273 0.0
H246 H 0.13854 0.79815 0.96162 0.0
H247 H 0.27193 0.98876 0.96491 0.0
O248 O 0.29491 0.95245 0.93569 0.0
C249 C 0.13963 0.96458 0.94696 0.0
O250 O 0.10459 0.90406 0.9488 0.0
N251 N 0.18701 0.83225 0.93231 0.0
C252 C 0.13471 0.71002 0.92235 0.0
C253 C 0.19885 0.75331 0.92001 0.0
C254 C 0.22401 0.81488 0.92486 0.0
C255 C 0.12432 0.79133 0.93395 0.0
C256 C 0.09769 0.73006 0.92949 0.0
H257 H 0.27202 0.84835 0.92204 0.0
H258 H 0.09432 0.80648 0.93884 0.0
H259 H 0.25846 0.91591 0.90546 0.0
H260 H 0.09983 0.92688 0.89192 0.0
H261 H 0.16984 0.82342 0.98898 0.0
H262 H 0.22882 0.74022 0.9142 0.0
H263 H 0.04827 0.69868 0.93181 0.0
C264 C 0.25427 0.11342 0.2495 0.0
C265 C 0.25066 0.10598 0.23476 0.0
N266 N 0.28785 0.16197 0.22855 0.0
N267 N 0.29302 0.17395 0.25277 0.0
C268 C 0.31237 0.20275 0.23974 0.0
H269 H 0.23226 0.07617 0.25735 0.0
Co270 Co 0.31822 0.19867 0.27198 0.0
C271 C 0.41739 0.33225 0.27033 0.0
O272 O 0.45407 0.31631 0.27731 0.0
N273 N 0.34259 0.22205 0.29188 0.0
C274 C 0.3894 0.24195 0.31361 0.0
C275 C 0.39146 0.22512 0.29956 0.0
C276 C 0.31218 0.23819 0.30172 0.0
N277 N 0.33912 0.24981 0.31504 0.0
O278 O 0.23712 0.19204 0.27539 0.0
H279 H 0.42782 0.21704 0.29533 0.0
H280 H 0.27016 0.24042 0.29925 0.0
O281 O 0.36075 0.28994 0.2669 0.0
C282 C 0.20263 0.13648 0.28031 0.0
O283 O 0.23065 0.10492 0.28401 0.0
N284 N 0.38924 0.19173 0.26827 0.0
C285 C 0.45432 0.13385 0.25834 0.0
C286 C 0.46647 0.19105 0.25239 0.0
C287 C 0.43238 0.21895 0.25736 0.0
C288 C 0.37853 0.13704 0.27431 0.0
C289 C 0.41138 0.10816 0.26977 0.0
H290 H 0.43733 0.25945 0.25172 0.0
H291 H 0.34157 0.11386 0.28225 0.0
H292 H 0.34677 0.25173 0.2385 0.0
H293 H 0.22379 0.06218 0.22908 0.0
H294 H 0.42308 0.2486 0.32205 0.0
H295 H 0.49898 0.2119 0.24343 0.0
H296 H 0.40138 0.06463 0.27485 0.0
C297 C 0.20494 0.30246 0.58681 0.0
C298 C 0.21717 0.30317 0.57227 0.0
N299 N 0.17154 0.30659 0.56478 0.0
N300 N 0.15215 0.30611 0.58856 0.0
C301 C 0.13271 0.30828 0.57495 0.0
H302 H 0.23168 0.29735 0.59553 0.0
Co303 Co 0.11157 0.30053 0.60615 0.0
C304 C 0.08003 0.40122 0.60456 0.0
O305 O 0.10671 0.41787 0.6174 0.0
N306 N 0.06817 0.29298 0.62385 0.0
C307 C 0.98659 0.27318 0.63804 0.0
C308 C 1.00682 0.27756 0.624 0.0
C309 C 0.0837 0.29698 0.63811 0.0
N310 N 0.03501 0.28521 0.647 0.0
O311 O 0.04056 0.22317 0.59959 0.0
H312 H 0.97823 0.26984 0.61441 0.0
H313 H 0.12917 0.30705 0.6421 0.0
O314 O 0.07798 0.35403 0.59821 0.0
C315 C 0.06008 0.18498 0.60261 0.0
O316 O 0.11417 0.20665 0.6095 0.0
N317 N 0.18668 0.36866 0.61282 0.0
C318 C 0.31764 0.42679 0.61433 0.0
C319 C 0.28869 0.45314 0.60597 0.0
C320 C 0.22247 0.42289 0.60528 0.0
C321 C 0.21498 0.34585 0.62174 0.0
C322 C 0.28002 0.37515 0.62301 0.0
H323 H 0.20098 0.43811 0.59719 0.0
H324 H 0.18816 0.29927 0.62607 0.0
H325 H 0.08994 0.30945 0.57259 0.0
H326 H 0.25495 0.29825 0.5676 0.0
H327 H 0.93969 0.26214 0.64129 0.0
H328 H 0.31654 0.49258 0.59893 0.0
H329 H 0.30066 0.3532 0.62948 0.0
C330 C 0.92891 0.18068 0.91957 0.0
C331 C 0.9406 0.1866 0.90501 0.0
N332 N 0.88555 0.16639 0.89792 0.0
N333 N 0.86657 0.15606 0.9219 0.0
C334 C 0.84091 0.1472 0.90843 0.0
H335 H 0.96444 0.19613 0.92797 0.0
Co336 Co 0.839 0.15227 0.941 0.0
C337 C 0.70532 0.12023 0.93961 0.0
O338 O 0.72344 0.16842 0.94817 0.0
N339 N 0.81394 0.14898 0.96092 0.0
C340 C 0.80056 0.17207 0.98356 0.0
C341 C 0.81799 0.19462 0.96971 0.0
C342 C 0.79242 0.09874 0.96985 0.0
N343 N 0.7849 0.11177 0.98368 0.0
O344 O 0.84542 0.07805 0.94381 0.0
H345 H 0.83216 0.24172 0.9665 0.0
H346 H 0.78448 0.05365 0.96644 0.0
O347 O 0.74634 0.10557 0.93522 0.0
C348 C 0.90094 0.09829 0.94915 0.0
O349 O 0.93175 0.15615 0.95381 0.0
N350 N 0.84644 0.23004 0.93785 0.0
C351 C 0.90453 0.35232 0.92764 0.0
C352 C 0.8471 0.30653 0.92162 0.0
C353 C 0.81898 0.24521 0.9268 0.0
C354 C 0.90152 0.27445 0.9439 0.0
C355 C 0.93011 0.33596 0.93933 0.0
H356 H 0.77874 0.20945 0.92102 0.0
H357 H 0.92546 0.26123 0.95182 0.0
H358 H 0.79139 0.13056 0.90639 0.0
H359 H 0.98663 0.20566 0.90005 0.0
H360 H 0.7996 0.19822 0.99283 0.0
H361 H 0.82632 0.31692 0.91241 0.0
H362 H 0.97363 0.3698 0.94455 0.0
C363 C 0.76473 0.92284 0.25104 0.0
C364 C 0.76685 0.92852 0.23624 0.0
N365 N 0.73661 0.87095 0.23046 0.0
N366 N 0.73356 0.86196 0.25472 0.0
C367 C 0.71728 0.83118 0.24191 0.0
H368 H 0.78255 0.96097 0.25866 0.0
Co369 Co 0.7118 0.83797 0.27401 0.0
C370 C 0.61552 0.70384 0.2735 0.0
O371 O 0.58155 0.71886 0.28174 0.0
N372 N 0.69115 0.81585 0.29403 0.0
C373 C 0.65487 0.8058 0.31663 0.0
C374 C 0.65036 0.82266 0.30269 0.0
C375 C 0.71866 0.79307 0.30313 0.0
N376 N 0.69806 0.78748 0.31693 0.0
O377 O 0.79393 0.84637 0.277 0.0
H378 H 0.61822 0.8382 0.29934 0.0
H379 H 0.7544 0.78215 0.29981 0.0
O380 O 0.67022 0.74686 0.26914 0.0
C381 C 0.82874 0.90259 0.28143 0.0
O382 O 0.80091 0.93434 0.28495 0.0
N383 N 0.63903 0.84234 0.27062 0.0
C384 C 0.57032 0.89577 0.25996 0.0
C385 C 0.55788 0.83731 0.25491 0.0
C386 C 0.59394 0.81174 0.2602 0.0
C387 C 0.65042 0.89859 0.27568 0.0
C388 C 0.61573 0.92527 0.27082 0.0
H389 H 0.5892 0.77061 0.25501 0.0
H390 H 0.6894 0.92472 0.28303 0.0
H391 H 0.68903 0.78097 0.24099 0.0
H392 H 0.78854 0.97186 0.2302 0.0
H393 H 0.62787 0.80633 0.32584 0.0
H394 H 0.52374 0.81374 0.24634 0.0
H395 H 0.62634 0.97012 0.27514 0.0
H396 H 0.39417 0.07892 0.03392 0.0
H397 H 0.22104 0.95946 0.05666 0.0
H398 H 0.1704 0.90817 0.03387 0.0
H399 H 0.17663 0.89508 1.0076 0.0
H400 H 0.3494 0.01519 0.98482 0.0
H401 H 0.39905 0.06872 1.00749 0.0
C402 C 0.34545 0.04148 0.03389 0.0
C403 C 0.31157 0.02262 0.047 0.0
C404 C 0.3167 0.01241 0.02074 0.0
C405 C 0.24801 0.97501 0.04673 0.0
C406 C 0.21919 0.94548 0.03371 0.0
C407 C 0.22522 0.93281 1.00762 0.0
C408 C 0.2595 0.9508 0.99456 0.0
C409 C 0.25326 0.9634 0.02068 0.0
C410 C 0.32198 1.00071 0.9947 0.0
C411 C 0.35043 0.03106 1.00767 0.0
H412 H 0.21886 0.32452 0.36553 0.0
H413 H 0.32879 0.26696 0.39133 0.0
H414 H 0.36618 0.2419 0.36932 0.0
H415 H 0.3673 0.23577 0.34279 0.0
H416 H 0.26198 0.29918 0.31711 0.0
H417 H 0.2235 0.32264 0.33912 0.0
C418 C 0.25167 0.30737 0.36645 0.0
C419 C 0.27073 0.29784 0.38024 0.0
C420 C 0.27379 0.29383 0.35373 0.0
C421 C 0.3124 0.27419 0.38099 0.0
C422 C 0.33421 0.26013 0.36836 0.0
C423 C 0.33663 0.25546 0.34192 0.0
C424 C 0.31765 0.26534 0.32815 0.0
C425 C 0.31518 0.26974 0.35467 0.0
C426 C 0.27684 0.28998 0.32743 0.0
C427 C 0.25501 0.30386 0.34006 0.0
H428 H 0.07754 0.29384 0.7144 0.0
H429 H 0.87351 0.199 0.71378 0.0
H430 H 0.87445 0.20344 0.6875 0.0
H431 H 0.93243 0.23284 0.66462 0.0
H432 H 0.13652 0.33473 0.66531 0.0
H433 H 0.13562 0.32877 0.69159 0.0
C434 C 0.03307 0.27468 0.70865 0.0
C435 C 0.97557 0.2456 0.71634 0.0
C436 C 0.03373 0.27837 0.69342 0.0
C437 C 0.91872 0.22062 0.70839 0.0
C438 C 0.91909 0.22349 0.69325 0.0
C439 C 0.97693 0.25454 0.67041 0.0
C440 C 0.03443 0.2837 0.66272 0.0
C441 C 0.9763 0.25207 0.68565 0.0
C442 C 0.09131 0.31076 0.67069 0.0
C443 C 0.09096 0.3078 0.68583 0.0
H444 H 0.82303 0.14566 1.01135 0.0
H445 H 0.71 0.98626 0.98418 0.0
H446 H 0.6853 0.91698 1.00508 0.0
H447 H 0.69718 0.90165 0.03084 0.0
H448 H 0.81328 0.06029 0.05801 0.0
H449 H 0.83355 0.13017 0.03741 0.0
C450 C 0.79234 0.09586 1.01003 0.0
C451 C 0.76846 0.07124 0.99617 0.0
C452 C 0.77864 0.05624 0.0221 0.0
C453 C 0.72961 1.0064 0.99464 0.0
C454 C 0.71523 0.9668 1.00661 0.0
C455 C 0.72747 0.95141 0.03231 0.0
C456 C 0.75416 0.97532 0.04603 0.0
C457 C 0.73995 0.99117 0.02035 0.0
C458 C 0.79175 0.04031 0.04767 0.0
C459 C 0.80373 0.08035 0.03585 0.0
H460 H 0.71321 0.83338 0.34391 0.0
H461 H 0.72777 0.69608 0.31829 0.0
H462 H 0.75348 0.65617 0.3401 0.0
H463 H 0.76643 0.65726 0.36666 0.0
H464 H 0.75432 0.79629 0.39217 0.0
H465 H 0.73348 0.83916 0.37021 0.0
C466 C 0.72206 0.79474 0.34313 0.0
C467 C 0.71792 0.76716 0.32955 0.0
C468 C 0.73717 0.77249 0.35569 0.0
C469 C 0.73084 0.71805 0.32861 0.0
C470 C 0.7452 0.69511 0.34109 0.0
C471 C 0.75926 0.69697 0.36738 0.0
C472 C 0.76122 0.72322 0.38103 0.0
C473 C 0.74763 0.72143 0.35471 0.0
C474 C 0.75323 0.77549 0.38179 0.0
C475 C 0.74097 0.79972 0.36926 0.0
H476 H 0.93009 0.71414 0.71191 0.0
H477 H 0.12827 0.84938 0.71105 0.0
H478 H 0.12337 0.86049 0.68469 0.0
H479 H 0.06511 0.81813 0.66153 0.0
H480 H 0.86646 0.68477 0.66265 0.0
H481 H 0.86799 0.68682 0.68922 0.0
C482 C 0.97151 0.74745 0.70594 0.0
C483 C 0.02939 0.78096 0.71329 0.0
C484 C 0.9681 0.75332 0.69084 0.0
C485 C 0.08318 0.82376 0.70556 0.0
C486 C 0.08042 0.82955 0.6905 0.0
C487 C 0.02198 0.79158 0.66767 0.0
C488 C 0.96559 0.75176 0.66029 0.0
C489 C 0.02358 0.79286 0.68295 0.0
C490 C 0.90994 0.71637 0.66823 0.0
C491 C 0.91107 0.71709 0.68337 0.0
H492 H 0.64059 0.99082 0.11871 0.0
H493 H 0.54645 0.90311 0.07862 0.0
H494 H 0.47255 0.93982 0.08179 0.0
H495 H 0.43792 1.00346 0.09465 0.0
H496 H 0.53462 0.09946 0.13353 0.0
H497 H 0.60168 0.0519 0.13242 0.0
C498 C 0.60397 0.97985 0.11069 0.0
C499 C 0.59998 0.94416 0.09842 0.0
C500 C 0.56068 1.00179 0.11247 0.0
C501 C 0.55151 0.93032 0.08821 0.0
C502 C 0.50854 0.95116 0.09 0.0
C503 C 0.47192 0.0119 0.10319 0.0
C504 C 0.47983 0.05332 0.1144 0.0
C505 C 0.51274 0.98726 0.10199 0.0
C506 C 0.52627 0.06614 0.12503 0.0
C507 C 0.56546 0.0398 0.12424 0.0
H508 H 0.42015 0.50639 0.43494 0.0
H509 H 0.39913 0.32991 0.44843 0.0
H510 H 0.51195 0.38181 0.45449 0.0
H511 H 0.61793 0.47492 0.45314 0.0
H512 H 0.63878 0.65093 0.4393 0.0
H513 H 0.52402 0.60189 0.43656 0.0
C514 C 0.44009 0.47922 0.43931 0.0
C515 C 0.40152 0.41401 0.44095 0.0
C516 C 0.50478 0.50942 0.44275 0.0
C517 C 0.4278 0.3799 0.44695 0.0
C518 C 0.49231 0.40962 0.45039 0.0
C519 C 0.59726 0.50294 0.44983 0.0
C520 C 0.63699 0.56651 0.44631 0.0
C521 C 0.53147 0.47402 0.44795 0.0
C522 C 0.60945 0.6022 0.44217 0.0
C523 C 0.54384 0.57389 0.44042 0.0
H524 H 0.08945 0.58061 0.7977 0.0
H525 H 0.97307 0.61141 0.76726 0.0
H526 H 0.91492 0.50034 0.76164 0.0
H527 H 0.90048 0.39545 0.76422 0.0
H528 H 1.01414 0.36183 0.79481 0.0
H529 H 0.06901 0.47251 0.80168 0.0
C530 C 0.0509 0.56303 0.78995 0.0
C531 C 0.03679 0.60522 0.7827 0.0
C532 C 1.0171 0.49839 0.78678 0.0
C533 C 0.9863 0.5809 0.77277 0.0
C534 C 0.95268 0.51709 0.76958 0.0
C535 C 0.93699 0.41199 0.77248 0.0
C536 C 0.95336 0.37 0.77889 0.0
C537 C 0.96836 0.4756 0.77631 0.0
C538 C 1.00035 0.39269 0.78969 0.0
C539 C 0.03198 0.4562 0.79357 0.0
H540 H 0.10512 0.51733 0.61199 0.0
H541 H 0.99187 0.36718 0.58254 0.0
H542 H 0.93978 0.42427 0.57388 0.0
H543 H 0.92146 0.51424 0.57599 0.0
H544 H 0.03758 0.66425 0.60531 0.0
H545 H 0.0933 0.60987 0.61265 0.0
C546 C 0.06925 0.49698 0.60361 0.0
C547 C 0.05209 0.43749 0.59805 0.0
C548 C 0.03965 0.53008 0.59871 0.0
C549 C 1.00609 0.41267 0.58704 0.0
C550 C 0.97612 0.44533 0.58213 0.0
C551 C 0.95954 0.53551 0.58384 0.0
C552 C 0.97429 0.59311 0.59027 0.0
C553 C 0.99181 0.50373 0.58805 0.0
C554 C 0.02408 0.61966 0.60038 0.0
C555 C 0.0562 0.58856 0.60457 0.0
H556 H 0.61469 0.99655 0.94169 0.0
H557 H 0.64434 0.17533 0.92778 0.0
H558 H 0.53034 0.1334 0.92595 0.0
H559 H 0.42065 0.04838 0.93124 0.0
H560 H 0.39337 0.87065 0.94584 0.0
H561 H 0.5057 0.90912 0.94441 0.0
C562 C 0.59615 0.02559 0.93776 0.0
C563 C 0.63821 0.08876 0.93468 0.0
C564 C 0.53001 1.00159 0.93718 0.0
C565 C 0.61306 0.12625 0.93004 0.0
C566 C 0.54765 0.10244 0.92913 0.0
C567 C 0.4392 0.01789 0.93389 0.0
C568 C 0.39774 0.95686 0.93889 0.0
C569 C 0.5053 0.04058 0.93315 0.0
C570 C 0.42342 0.91826 0.94222 0.0
C571 C 0.48819 0.94009 0.94136 0.0
H572 H 0.53979 0.421 0.26608 0.0
H573 H 0.35277 0.39656 0.26886 0.0
H574 H 0.39809 0.5102 0.26904 0.0
H575 H 0.49147 0.61594 0.27095 0.0
H576 H 0.67835 0.64044 0.26753 0.0
H577 H 0.63255 0.52729 0.26493 0.0
C578 C 0.50878 0.44051 0.26649 0.0
C579 C 0.44278 0.4001 0.26757 0.0
C580 C 0.53532 0.50589 0.26661 0.0
C581 C 0.40345 0.42629 0.26795 0.0
C582 C 0.42952 0.49136 0.26817 0.0
C583 C 0.52226 0.59663 0.26946 0.0
C584 C 0.58851 0.63676 0.26961 0.0
C585 C 0.49544 0.53153 0.2679 0.0
C586 C 0.62747 0.6109 0.26745 0.0
C587 C 0.60118 0.54609 0.26605 0.0
H588 H 0.28509 0.0805 0.20879 0.0
H589 H 0.32387 0.26963 0.21378 0.0
H590 H 0.34325 0.28711 0.18769 0.0
H591 H 0.34504 0.24714 0.16342 0.0
H592 H 0.30184 0.0564 0.15855 0.0
H593 H 0.28861 0.04122 0.18471 0.0
C594 C 0.29711 0.12543 0.2042 0.0
C595 C 0.30207 0.17345 0.21327 0.0
C596 C 0.30753 0.13486 0.18921 0.0
C597 C 0.31979 0.23192 0.2071 0.0
C598 C 0.33057 0.2418 0.19217 0.0
C599 C 0.33229 0.20205 0.16802 0.0
C600 C 0.32397 0.15282 0.15889 0.0
C601 C 0.32385 0.19335 0.1831 0.0
C602 C 0.30905 0.09529 0.16521 0.0
C603 C 0.30102 0.08643 0.1802 0.0
H604 H 0.08545 0.24687 0.49995 0.0
H605 H 0.28519 0.32184 0.49378 0.0
H606 H 0.30361 0.34614 0.5197 0.0
H607 H 0.26159 0.34017 0.54428 0.0
H608 H 0.06081 0.26122 0.55015 0.0
H609 H 0.0442 0.24479 0.52413 0.0
C610 C 0.13301 0.26817 0.50426 0.0
C611 C 0.1838 0.28158 0.49498 0.0
C612 C 0.14299 0.28134 0.51912 0.0
C613 C 0.24536 0.31105 0.50069 0.0
C614 C 0.25579 0.32462 0.51551 0.0
C615 C 0.21418 0.31925 0.53988 0.0
C616 C 0.16253 0.30161 0.54926 0.0
C617 C 0.20478 0.309 0.52487 0.0
C618 C 0.10157 0.27583 0.54328 0.0
C619 C 0.09191 0.26592 0.52837 0.0
H620 H 0.9155 0.20362 0.83066 0.0
H621 H 0.72691 0.04425 0.83164 0.0
H622 H 0.72804 0.04649 0.85798 0.0
H623 H 0.78519 0.09005 0.88107 0.0
H624 H 0.97154 0.25221 0.8797 0.0
H625 H 0.96794 0.25283 0.85338 0.0
C626 C 0.87414 0.16983 0.83653 0.0
C627 C 0.82178 0.12317 0.82895 0.0
C628 C 0.87465 0.17159 0.85178 0.0
C629 C 0.76882 0.07987 0.837 0.0
C630 C 0.76911 0.08127 0.85217 0.0
C631 C 0.82452 0.12593 0.875 0.0
C632 C 0.87906 0.17004 0.88241 0.0
C633 C 0.8222 0.1263 0.85971 0.0
C634 C 0.92963 0.21645 0.87433 0.0
C635 C 0.92756 0.21716 0.85923 0.0
H636 H 0.72964 0.78956 0.16602 0.0
H637 H 0.72648 0.95973 0.15822 0.0
H638 H 0.71779 0.97164 0.18435 0.0
H639 H 0.72205 0.93887 0.20942 0.0
H640 H 0.72889 0.77038 0.21708 0.0
H641 H 0.72488 0.7522 0.19094 0.0
C642 C 0.72678 0.82914 0.17004 0.0
C643 C 0.72983 0.87437 0.16022 0.0
C644 C 0.72297 0.83608 0.18503 0.0
C645 C 0.72424 0.9244 0.16555 0.0
C646 C 0.71982 0.93141 0.18049 0.0
C647 C 0.72264 0.89815 0.20537 0.0
C648 C 0.72691 0.85653 0.21519 0.0
C649 C 0.721 0.88847 0.19034 0.0
C650 C 0.72567 0.80303 0.20978 0.0
C651 C 0.72374 0.79287 0.19483 0.0
H652 H 0.81696 0.74038 0.49525 0.0
H653 H 0.95308 0.67826 0.49593 0.0
H654 H 0.94725 0.67068 0.52231 0.0
H655 H 0.90381 0.68194 0.54534 0.0
H656 H 0.76961 0.74675 0.54481 0.0
H657 H 0.77393 0.75245 0.51845 0.0
C658 C 0.84481 0.7247 0.5012 0.0
C659 C 0.88558 0.71023 0.49361 0.0
C660 C 0.84172 0.72099 0.51647 0.0
C661 C 0.92194 0.69052 0.50149 0.0
C662 C 0.91853 0.68599 0.5166 0.0
C663 C 0.876 0.69792 0.53949 0.0
C664 C 0.83624 0.71352 0.54717 0.0
C665 C 0.87895 0.70155 0.52424 0.0
C666 C 0.79994 0.7334 0.53928 0.0
C667 C 0.80255 0.73699 0.52414 0.0
H668 H 0.09631 0.86437 0.87312 0.0
H669 H 0.29711 0.95396 0.88054 0.0
H670 H 0.31334 0.93958 0.85493 0.0
H671 H 0.27008 0.90493 0.83027 0.0
H672 H 0.06897 0.81916 0.82324 0.0
H673 H 0.05334 0.82868 0.84891 0.0
C674 C 0.14381 0.88152 0.86916 0.0
C675 C 0.19559 0.91128 0.87873 0.0
C676 C 0.15265 0.87361 0.85448 0.0
C677 C 0.25651 0.93103 0.87343 0.0
C678 C 0.26574 0.92303 0.85877 0.0
C679 C 0.22285 0.88862 0.83432 0.0
C680 C 0.17084 0.8615 0.82469 0.0
C681 C 0.21414 0.89501 0.84916 0.0
C682 C 0.10989 0.83953 0.83028 0.0
C683 C 0.10088 0.84538 0.84499 0.0
H684 H 0.57718 0.60751 0.08043 0.0
H685 H 0.51501 0.60377 0.12424 0.0
H686 H 0.47368 0.49079 0.12542 0.0
H687 H 0.46801 0.39675 0.11491 0.0
H688 H 0.54296 0.40578 0.07211 0.0
H689 H 0.56864 0.51415 0.06972 0.0
C690 C 0.55348 0.58156 0.09015 0.0
C691 C 0.54956 0.61338 0.10229 0.0
C692 C 0.53434 0.51839 0.09106 0.0
C693 C 0.51813 0.57983 0.11476 0.0
C694 C 0.49568 0.51566 0.11551 0.0
C695 C 0.49086 0.4228 0.10516 0.0
C696 C 0.5046 0.39385 0.09378 0.0
C697 C 0.50613 0.48518 0.10394 0.0
C698 C 0.53232 0.42735 0.08102 0.0
C699 C 0.54666 0.48903 0.07962 0.0
H700 H 0.08985 0.45515 0.42132 0.0
H701 H 0.14211 0.50965 0.46579 0.0
H702 H 0.0738 0.55625 0.46623 0.0
H703 H 0.99103 0.5709 0.45448 0.0
H704 H 0.93204 0.50457 0.41079 0.0
H705 H 1.01011 0.471 0.4096 0.0
C706 C 0.08689 0.47816 0.43103 0.0
C707 C 0.11998 0.47881 0.44354 0.0
C708 C 0.04505 0.50072 0.43144 0.0
C709 C 0.11698 0.50915 0.45604 0.0
C710 C 0.07727 0.53469 0.45634 0.0
C711 C 0.99476 0.54822 0.44481 0.0
C712 C 0.95563 0.5395 0.43278 0.0
C713 C 0.03933 0.52855 0.44425 0.0
C714 C 0.96175 0.51156 0.42016 0.0
C715 C 1.00645 0.49272 0.41945 0.0
H716 H 0.42165 0.84927 0.76289 0.0
H717 H 0.36495 0.98532 0.75355 0.0
H718 H 0.47398 0.06907 0.75502 0.0
H719 H 0.58687 0.1045 0.75835 0.0
H720 H 0.64347 0.9692 0.76834 0.0
H721 H 0.53372 0.88519 0.76754 0.0
C722 C 0.43317 0.89721 0.76122 0.0
C723 C 0.38519 0.91047 0.75773 0.0
C724 C 0.49622 0.94573 0.76229 0.0
C725 C 0.40106 0.97319 0.75573 0.0
C726 C 0.46345 0.02147 0.75674 0.0
C727 C 0.57484 0.05669 0.7605 0.0
C728 C 0.62293 0.04286 0.76319 0.0
C729 C 0.51157 0.00837 0.75991 0.0
C730 C 0.60703 0.98073 0.76598 0.0
C731 C 0.54435 0.93265 0.76555 0.0
H732 H 0.58754 0.45418 0.60959 0.0
H733 H 0.64373 0.64694 0.61722 0.0
H734 H 0.53388 0.6213 0.61718 0.0
H735 H 0.42072 0.54324 0.61606 0.0
H736 H 0.36433 0.35084 0.60808 0.0
H737 H 0.47457 0.37716 0.60697 0.0
C738 C 0.5756 0.49045 0.61116 0.0
C739 C 0.62363 0.55191 0.61377 0.0
C740 C 0.51207 0.47553 0.61106 0.0
C741 C 0.6075 0.59871 0.61566 0.0
C742 C 0.54467 0.58431 0.61551 0.0
C743 C 0.43284 0.50743 0.61394 0.0
C744 C 0.3848 0.44527 0.61242 0.0
C745 C 0.49643 0.52276 0.61341 0.0
C746 C 0.40081 0.39902 0.60961 0.0
C747 C 0.46377 0.41397 0.60892 0.0
H748 H 1.01623 0.63408 0.91184 0.0
H749 H 0.18806 0.63556 0.92369 0.0
H750 H 0.13194 0.52182 0.92327 0.0
H751 H 0.0314 0.42394 0.92421 0.0
H752 H 0.85696 0.42448 0.91713 0.0
H753 H 0.91653 0.53525 0.91097 0.0
C754 C 0.04156 0.60958 0.91431 0.0
C755 C 0.10582 0.64333 0.91828 0.0
C756 C 1.00812 0.54446 0.91515 0.0
C757 C 0.13858 0.61094 0.9207 0.0
C758 C 0.10629 0.54582 0.92065 0.0
C759 C 1.00625 0.44825 0.92139 0.0
C760 C 0.93975 0.41642 0.92161 0.0
C761 C 0.04056 0.51241 0.9187 0.0
C762 C 0.90805 0.4479 0.91719 0.0
C763 C 0.9421 0.51134 0.91376 0.0
H764 H 0.62521 0.01614 0.25147 0.0
H765 H 0.44407 0.84823 0.25511 0.0
H766 H 0.3909 0.9088 0.25143 0.0
H767 H 0.39719 0.01071 0.2523 0.0
H768 H 0.57894 0.17917 0.25204 0.0
H769 H 0.63098 0.11743 0.24896 0.0
C770 C 0.57402 0.99278 0.25123 0.0
C771 C 0.53838 0.92826 0.25397 0.0
C772 C 0.5442 0.02821 0.24988 0.0
C773 C 0.47231 0.89795 0.25316 0.0
C774 C 0.44204 0.93266 0.25119 0.0
C775 C 0.4482 0.03388 0.25137 0.0
C776 C 0.48451 0.09913 0.25282 0.0
C777 C 0.47765 0.99803 0.25036 0.0
C778 C 0.5502 0.12896 0.25109 0.0
C779 C 0.57988 0.09364 0.24945 0.0
H780 H 0.15896 0.12055 0.09949 0.0
H781 H 0.14951 0.94248 0.10424 0.0
H782 H 0.03376 0.89059 0.105 0.0
H783 H 0.93659 0.89569 0.10266 0.0
H784 H 0.94526 0.07325 0.09769 0.0
H785 H 0.06128 0.12624 0.09885 0.0
C786 C 0.13173 0.07027 0.10072 0.0
C787 C 0.16291 0.03514 0.10159 0.0
C788 C 0.06554 0.04109 0.10109 0.0
C789 C 0.12683 0.97041 0.1035 0.0
C790 C 0.06073 0.94089 0.10388 0.0
C791 C 0.96368 0.94615 0.10185 0.0
C792 C 0.93229 0.9806 0.09985 0.0
C793 C 0.02978 0.97574 0.10242 0.0
C794 C 0.96816 0.04581 0.09919 0.0
C795 C 0.03439 0.07587 0.09978 0.0
H796 H 1.01281 0.10153 0.42761 0.0
H797 H 0.18468 0.09337 0.43123 0.0
H798 H 0.12191 0.97954 0.43398 0.0
H799 H 0.01888 0.8834 0.43452 0.0
H800 H 0.84715 0.8918 0.4314 0.0
H801 H 0.90987 1.00609 0.42958 0.0
C802 C 0.03688 0.07502 0.4289 0.0
C803 C 0.1036 0.1058 0.42893 0.0
C804 C 1.00057 0.01023 0.43071 0.0
C805 C 0.13363 0.07076 0.43101 0.0
C806 C 0.09771 1.00585 0.43262 0.0
C807 C 0.995 0.91022 0.43349 0.0
C808 C 0.92839 0.87932 0.43291 0.0
C809 C 0.03128 0.97527 0.43237 0.0
C810 C 0.89818 0.91458 0.43188 0.0
C811 C 0.93409 0.97971 0.43074 0.0
H812 H 0.89951 0.98896 0.78124 0.0
H813 H 0.07847 0.15988 0.77857 0.0
H814 H 0.13336 0.09946 0.7787 0.0
H815 H 0.12869 0.99808 0.77642 0.0
H816 H 0.94898 0.82729 0.77821 0.0
H817 H 0.89566 0.88792 0.78164 0.0
C818 C 0.95071 0.01317 0.78092 0.0
C819 C 0.98504 0.07888 0.77974 0.0
C820 C 0.98138 0.97808 0.78064 0.0
C821 C 0.05115 0.10957 0.77955 0.0
C822 C 0.08232 0.07489 0.77947 0.0
C823 C 0.07781 0.9739 0.77768 0.0
C824 C 0.0426 0.90805 0.7768 0.0
C825 C 0.04769 0.00913 0.77949 0.0
C826 C 0.97703 0.87767 0.77876 0.0
C827 C 0.94664 0.91242 0.78067 0.0
H828 H 0.88402 0.89447 0.59806 0.0
H829 H 0.06487 0.90344 0.59753 0.0
H830 H 0.11796 0.01766 0.59611 0.0
H831 H 0.11271 0.11395 0.59777 0.0
H832 H 0.93219 0.10535 0.599 0.0
H833 H 0.87863 0.99108 0.59715 0.0
C834 C 0.93514 0.92131 0.59751 0.0
C835 C 0.97067 0.89053 0.59814 0.0
C836 C 0.96503 0.98667 0.59687 0.0
C837 C 0.0366 0.92592 0.59711 0.0
C838 C 0.06682 0.99116 0.59637 0.0
C839 C 0.06153 0.08716 0.59747 0.0
C840 C 0.02626 0.11794 0.59874 0.0
C841 C 0.0315 0.0219 0.59666 0.0
C842 C 0.96022 0.08279 0.59804 0.0
C843 C 0.92978 0.01753 0.5971 0.0
H844 H 0.02779 0.14653 0.95094 0.0
H845 H 0.85357 0.97229 0.9453 0.0
H846 H 0.91342 0.91712 0.94413 0.0
H847 H 1.01401 0.91858 0.94488 0.0
H848 H 0.18931 0.09254 0.94954 0.0
H849 H 0.12967 0.14831 0.95083 0.0
C850 C 1.0026 0.09633 0.94954 0.0
C851 C 0.93581 0.06336 0.9484 0.0
C852 C 0.03749 0.06528 0.94866 0.0
C853 C 0.90453 0.99866 0.94629 0.0
C854 C 0.93885 0.96725 0.94562 0.0
C855 C 0.03969 0.9688 0.94627 0.0
C856 C 0.10645 1.00131 0.94732 0.0
C857 C 1.00519 1.00012 0.94684 0.0
C858 C 0.13829 0.06639 0.94876 0.0
C859 C 0.10405 0.09809 0.94953 0.0
H860 H 0.12423 0.01165 0.2807 0.0
H861 H 0.12305 0.1854 0.27971 0.0
H862 H 1.00706 0.12729 0.28015 0.0
H863 H 0.90706 0.02756 0.28098 0.0
H864 H 0.90833 0.85381 0.28086 0.0
H865 H 0.02428 0.91197 0.28067 0.0
C866 C 0.09881 0.03711 0.28065 0.0
C867 C 0.13245 0.10309 0.28035 0.0
C868 C 0.03246 1.00337 0.28069 0.0
C869 C 0.09847 0.13491 0.28 0.0
C870 C 0.03222 0.1016 0.28026 0.0
C871 C 0.93252 1.00213 0.28099 0.0
C872 C 0.89891 0.93613 0.28112 0.0
C873 C 0.99887 0.03589 0.28066 0.0
C874 C 0.93288 0.90432 0.28083 0.0
C875 C 0.99912 0.93765 0.28073 0.0
loop_
_geom_bond_atom_site_label_1
_geom_bond_atom_site_label_2
_geom_bond_distance
_geom_bond_site_symmetry_2
_ccdc_geom_bond_type
C0 C1 1.351 . S
C0 N3 1.368 . S
C0 H5 0.931 . S
C1 C0 1.351 . S
C1 N2 1.373 . S
C1 H29 0.930 . S
N2 C1 1.373 . S
N2 C4 1.340 . S
N3 C0 1.368 . S
N3 C4 1.321 . S
N3 Co6 2.135 . S
C4 N2 1.340 . S
C4 N3 1.321 . S
C4 H28 0.930 . S
H5 C0 0.931 . S
Co6 N3 2.135 . S
Co6 N9 2.121 . S
Co6 O14 2.055 . S
Co6 O17 2.039 . S
Co6 N20 2.140 . S
C7 O8 1.227 . S
C7 O17 1.265 . S
O8 C7 1.227 . S
N9 Co6 2.121 . S
N9 C11 1.375 . S
N9 C12 1.313 . S
C10 C11 1.338 . S
C10 N13 1.377 . S
C10 H30 0.930 . S
C11 N9 1.375 . S
C11 C10 1.338 . S
C11 H15 0.931 . S
C12 N9 1.313 . S
C12 N13 1.344 . S
C12 H16 0.930 . S
N13 C10 1.377 . S
N13 C12 1.344 . S
O14 Co6 2.055 . S
O14 C18 1.253 . S
H15 C11 0.931 . S
H16 C12 0.930 . S
O17 Co6 2.039 . S
O17 C7 1.265 . S
C18 O14 1.253 . S
C18 O19 1.227 . S
O19 C18 1.227 . S
N20 Co6 2.140 . S
N20 C23 1.346 . S
N20 C24 1.345 . S
C21 C22 1.387 . S
C21 C25 1.391 . S
C22 C21 1.387 . S
C22 C23 1.369 . S
C22 H31 0.929 . S
C23 N20 1.346 . S
C23 C22 1.369 . S
C23 H26 0.928 . S
C24 N20 1.345 . S
C24 C25 1.371 . S
C24 H27 0.931 . S
C25 C21 1.391 . S
C25 C24 1.371 . S
C25 H32 0.930 . S
H26 C23 0.928 . S
H27 C24 0.931 . S
H28 C4 0.930 . S
H29 C1 0.930 . S
H30 C10 0.930 . S
H31 C22 0.929 . S
H32 C25 0.930 . S
C33 C34 1.351 . S
C33 N36 1.368 . S
C33 H38 0.931 . S
C34 C33 1.351 . S
C34 N35 1.373 . S
C34 H62 0.930 . S
N35 C34 1.373 . S
N35 C37 1.340 . S
N36 C33 1.368 . S
N36 C37 1.321 . S
N36 Co39 2.135 . S
C37 N35 1.340 . S
C37 N36 1.321 . S
C37 H61 0.930 . S
H38 C33 0.931 . S
Co39 N36 2.135 . S
Co39 N42 2.121 . S
Co39 O47 2.055 . S
Co39 O50 2.039 . S
Co39 N53 2.140 . S
C40 O41 1.227 . S
C40 O50 1.265 . S
O41 C40 1.227 . S
N42 Co39 2.121 . S
N42 C44 1.375 . S
N42 C45 1.313 . S
C43 C44 1.338 . S
C43 N46 1.377 . S
C43 H63 0.930 . S
C44 N42 1.375 . S
C44 C43 1.338 . S
C44 H48 0.931 . S
C45 N42 1.313 . S
C45 N46 1.344 . S
C45 H49 0.930 . S
N46 C43 1.377 . S
N46 C45 1.344 . S
O47 Co39 2.055 . S
O47 C51 1.253 . S
H48 C44 0.931 . S
H49 C45 0.930 . S
O50 Co39 2.039 . S
O50 C40 1.265 . S
C51 O47 1.253 . S
C51 O52 1.227 . S
O52 C51 1.227 . S
N53 Co39 2.140 . S
N53 C56 1.346 . S
N53 C57 1.345 . S
C54 C55 1.387 . S
C54 C58 1.391 . S
C55 C54 1.387 . S
C55 C56 1.369 . S
C55 H64 0.929 . S
C56 N53 1.346 . S
C56 C55 1.369 . S
C56 H59 0.928 . S
C57 N53 1.345 . S
C57 C58 1.371 . S
C57 H60 0.931 . S
C58 C54 1.391 . S
C58 C57 1.371 . S
C58 H65 0.930 . S
H59 C56 0.928 . S
H60 C57 0.931 . S
H61 C37 0.930 . S
H62 C34 0.930 . S
H63 C43 0.930 . S
H64 C55 0.929 . S
H65 C58 0.930 . S
C66 C67 1.351 . S
C66 N69 1.368 . S
C66 H71 0.931 . S
C67 C66 1.351 . S
C67 N68 1.373 . S
C67 H95 0.930 . S
N68 C67 1.373 . S
N68 C70 1.340 . S
N69 C66 1.368 . S
N69 C70 1.321 . S
N69 Co72 2.135 . S
C70 N68 1.340 . S
C70 N69 1.321 . S
C70 H94 0.930 . S
H71 C66 0.931 . S
Co72 N69 2.135 . S
Co72 N75 2.121 . S
Co72 O80 2.055 . S
Co72 O83 2.039 . S
Co72 N86 2.140 . S
C73 O74 1.227 . S
C73 O83 1.265 . S
O74 C73 1.227 . S
N75 Co72 2.121 . S
N75 C77 1.375 . S
N75 C78 1.313 . S
C76 C77 1.338 . S
C76 N79 1.377 . S
C76 H96 0.930 . S
C77 N75 1.375 . S
C77 C76 1.338 . S
C77 H81 0.931 . S
C78 N75 1.313 . S
C78 N79 1.344 . S
C78 H82 0.930 . S
N79 C76 1.377 . S
N79 C78 1.344 . S
O80 Co72 2.055 . S
O80 C84 1.253 . S
H81 C77 0.931 . S
H82 C78 0.930 . S
O83 Co72 2.039 . S
O83 C73 1.265 . S
C84 O80 1.253 . S
C84 O85 1.227 . S
O85 C84 1.227 . S
N86 Co72 2.140 . S
N86 C89 1.346 . S
N86 C90 1.345 . S
C87 C88 1.387 . S
C87 C91 1.391 . S
C88 C87 1.387 . S
C88 C89 1.369 . S
C88 H97 0.929 . S
C89 N86 1.346 . S
C89 C88 1.369 . S
C89 H92 0.928 . S
C90 N86 1.345 . S
C90 C91 1.371 . S
C90 H93 0.931 . S
C91 C87 1.391 . S
C91 C90 1.371 . S
C91 H98 0.930 . S
H92 C89 0.928 . S
H93 C90 0.931 . S
H94 C70 0.930 . S
H95 C67 0.930 . S
H96 C76 0.930 . S
H97 C88 0.929 . S
H98 C91 0.930 . S
C99 C100 1.351 . S
C99 N102 1.368 . S
C99 H104 0.931 . S
C100 C99 1.351 . S
C100 N101 1.373 . S
C100 H128 0.930 . S
N101 C100 1.373 . S
N101 C103 1.340 . S
N102 C99 1.368 . S
N102 C103 1.321 . S
N102 Co105 2.135 . S
C103 N101 1.340 . S
C103 N102 1.321 . S
C103 H127 0.930 . S
H104 C99 0.931 . S
Co105 N102 2.135 . S
Co105 N108 2.121 . S
Co105 O113 2.055 . S
Co105 O116 2.039 . S
Co105 N119 2.140 . S
C106 O107 1.227 . S
C106 O116 1.265 . S
O107 C106 1.227 . S
N108 Co105 2.121 . S
N108 C110 1.375 . S
N108 C111 1.313 . S
C109 C110 1.338 . S
C109 N112 1.377 . S
C109 H129 0.930 . S
C110 N108 1.375 . S
C110 C109 1.338 . S
C110 H114 0.931 . S
C111 N108 1.313 . S
C111 N112 1.344 . S
C111 H115 0.930 . S
N112 C109 1.377 . S
N112 C111 1.344 . S
O113 Co105 2.055 . S
O113 C117 1.253 . S
H114 C110 0.931 . S
H115 C111 0.930 . S
O116 Co105 2.039 . S
O116 C106 1.265 . S
C117 O113 1.253 . S
C117 O118 1.227 . S
O118 C117 1.227 . S
N119 Co105 2.140 . S
N119 C122 1.346 . S
N119 C123 1.345 . S
C120 C121 1.387 . S
C120 C124 1.391 . S
C121 C120 1.387 . S
C121 C122 1.369 . S
C121 H130 0.929 . S
C122 N119 1.346 . S
C122 C121 1.369 . S
C122 H125 0.928 . S
C123 N119 1.345 . S
C123 C124 1.371 . S
C123 H126 0.931 . S
C124 C120 1.391 . S
C124 C123 1.371 . S
C124 H131 0.930 . S
H125 C122 0.928 . S
H126 C123 0.931 . S
H127 C103 0.930 . S
H128 C100 0.930 . S
H129 C109 0.930 . S
H130 C121 0.929 . S
H131 C124 0.930 . S
C132 C133 1.351 . S
C132 N135 1.368 . S
C132 H137 0.931 . S
C133 C132 1.351 . S
C133 N134 1.373 . S
C133 H161 0.930 . S
N134 C133 1.373 . S
N134 C136 1.340 . S
N135 C132 1.368 . S
N135 C136 1.321 . S
N135 Co138 2.135 . S
C136 N134 1.340 . S
C136 N135 1.321 . S
C136 H160 0.930 . S
H137 C132 0.931 . S
Co138 N135 2.135 . S
Co138 N141 2.121 . S
Co138 O146 2.055 . S
Co138 O149 2.039 . S
Co138 N152 2.140 . S
C139 O140 1.227 . S
C139 O149 1.265 . S
O140 C139 1.227 . S
N141 Co138 2.121 . S
N141 C143 1.375 . S
N141 C144 1.313 . S
C142 C143 1.338 . S
C142 N145 1.377 . S
C142 H162 0.930 . S
C143 N141 1.375 . S
C143 C142 1.338 . S
C143 H147 0.931 . S
C144 N141 1.313 . S
C144 N145 1.344 . S
C144 H148 0.930 . S
N145 C142 1.377 . S
N145 C144 1.344 . S
O146 Co138 2.055 . S
O146 C150 1.253 . S
H147 C143 0.931 . S
H148 C144 0.930 . S
O149 Co138 2.039 . S
O149 C139 1.265 . S
C150 O146 1.253 . S
C150 O151 1.227 . S
O151 C150 1.227 . S
N152 Co138 2.140 . S
N152 C155 1.346 . S
N152 C156 1.345 . S
C153 C154 1.387 . S
C153 C157 1.391 . S
C154 C153 1.387 . S
C154 C155 1.369 . S
C154 H163 0.929 . S
C155 N152 1.346 . S
C155 C154 1.369 . S
C155 H158 0.928 . S
C156 N152 1.345 . S
C156 C157 1.371 . S
C156 H159 0.931 . S
C157 C153 1.391 . S
C157 C156 1.371 . S
C157 H164 0.930 . S
H158 C155 0.928 . S
H159 C156 0.931 . S
H160 C136 0.930 . S
H161 C133 0.930 . S
H162 C142 0.930 . S
H163 C154 0.929 . S
H164 C157 0.930 . S
C165 C166 1.351 . S
C165 N168 1.368 . S
C165 H170 0.931 . S
C166 C165 1.351 . S
C166 N167 1.373 . S
C166 H194 0.930 . S
N167 C166 1.373 . S
N167 C169 1.340 . S
N168 C165 1.368 . S
N168 C169 1.321 . S
N168 Co171 2.135 . S
C169 N167 1.340 . S
C169 N168 1.321 . S
C169 H193 0.930 . S
H170 C165 0.931 . S
Co171 N168 2.135 . S
Co171 N174 2.121 . S
Co171 O179 2.055 . S
Co171 O182 2.039 . S
Co171 N185 2.140 . S
C172 O173 1.227 . S
C172 O182 1.265 . S
O173 C172 1.227 . S
N174 Co171 2.121 . S
N174 C176 1.375 . S
N174 C177 1.313 . S
C175 C176 1.338 . S
C175 N178 1.377 . S
C175 H195 0.930 . S
C176 N174 1.375 . S
C176 C175 1.338 . S
C176 H180 0.931 . S
C177 N174 1.313 . S
C177 N178 1.344 . S
C177 H181 0.930 . S
N178 C175 1.377 . S
N178 C177 1.344 . S
O179 Co171 2.055 . S
O179 C183 1.253 . S
H180 C176 0.931 . S
H181 C177 0.930 . S
O182 Co171 2.039 . S
O182 C172 1.265 . S
C183 O179 1.253 . S
C183 O184 1.227 . S
O184 C183 1.227 . S
N185 Co171 2.140 . S
N185 C188 1.346 . S
N185 C189 1.345 . S
C186 C187 1.387 . S
C186 C190 1.391 . S
C187 C186 1.387 . S
C187 C188 1.369 . S
C187 H196 0.929 . S
C188 N185 1.346 . S
C188 C187 1.369 . S
C188 H191 0.928 . S
C189 N185 1.345 . S
C189 C190 1.371 . S
C189 H192 0.931 . S
C190 C186 1.391 . S
C190 C189 1.371 . S
C190 H197 0.930 . S
H191 C188 0.928 . S
H192 C189 0.931 . S
H193 C169 0.930 . S
H194 C166 0.930 . S
H195 C175 0.930 . S
H196 C187 0.929 . S
H197 C190 0.930 . S
C198 C199 1.351 . S
C198 N201 1.368 . S
C198 H203 0.931 . S
C199 C198 1.351 . S
C199 N200 1.373 . S
C199 H227 0.930 . S
N200 C199 1.373 . S
N200 C202 1.340 . S
N201 C198 1.368 . S
N201 C202 1.321 . S
N201 Co204 2.135 . S
C202 N200 1.340 . S
C202 N201 1.321 . S
C202 H226 0.930 . S
H203 C198 0.931 . S
Co204 N201 2.135 . S
Co204 N207 2.121 . S
Co204 O212 2.055 . S
Co204 O215 2.039 . S
Co204 N218 2.140 . S
C205 O206 1.227 . S
C205 O215 1.265 . S
O206 C205 1.227 . S
N207 Co204 2.121 . S
N207 C209 1.375 . S
N207 C210 1.313 . S
C208 C209 1.338 . S
C208 N211 1.377 . S
C208 H228 0.930 . S
C209 N207 1.375 . S
C209 C208 1.338 . S
C209 H213 0.931 . S
C210 N207 1.313 . S
C210 N211 1.344 . S
C210 H214 0.930 . S
N211 C208 1.377 . S
N211 C210 1.344 . S
O212 Co204 2.055 . S
O212 C216 1.253 . S
H213 C209 0.931 . S
H214 C210 0.930 . S
O215 Co204 2.039 . S
O215 C205 1.265 . S
C216 O212 1.253 . S
C216 O217 1.227 . S
O217 C216 1.227 . S
N218 Co204 2.140 . S
N218 C221 1.346 . S
N218 C222 1.345 . S
C219 C220 1.387 . S
C219 C223 1.391 . S
C220 C219 1.387 . S
C220 C221 1.369 . S
C220 H229 0.929 . S
C221 N218 1.346 . S
C221 C220 1.369 . S
C221 H224 0.928 . S
C222 N218 1.345 . S
C222 C223 1.371 . S
C222 H225 0.931 . S
C223 C219 1.391 . S
C223 C222 1.371 . S
C223 H230 0.930 . S
H224 C221 0.928 . S
H225 C222 0.931 . S
H226 C202 0.930 . S
H227 C199 0.930 . S
H228 C208 0.930 . S
H229 C220 0.929 . S
H230 C223 0.930 . S
C231 C232 1.351 . S
C231 N234 1.368 . S
C231 H236 0.931 . S
C232 C231 1.351 . S
C232 N233 1.373 . S
C232 H260 0.930 . S
N233 C232 1.373 . S
N233 C235 1.340 . S
N234 C231 1.368 . S
N234 C235 1.321 . S
N234 Co237 2.135 . S
C235 N233 1.340 . S
C235 N234 1.321 . S
C235 H259 0.930 . S
H236 C231 0.931 . S
Co237 N234 2.135 . S
Co237 N240 2.121 . S
Co237 O245 2.055 . S
Co237 O248 2.039 . S
Co237 N251 2.140 . S
C238 O239 1.227 . S
C238 O248 1.265 . S
O239 C238 1.227 . S
N240 Co237 2.121 . S
N240 C242 1.375 . S
N240 C243 1.313 . S
C241 C242 1.338 . S
C241 N244 1.377 . S
C241 H261 0.930 . S
C242 N240 1.375 . S
C242 C241 1.338 . S
C242 H246 0.931 . S
C243 N240 1.313 . S
C243 N244 1.344 . S
C243 H247 0.930 . S
N244 C241 1.377 . S
N244 C243 1.344 . S
O245 Co237 2.055 . S
O245 C249 1.253 . S
H246 C242 0.931 . S
H247 C243 0.930 . S
O248 Co237 2.039 . S
O248 C238 1.265 . S
C249 O245 1.253 . S
C249 O250 1.227 . S
O250 C249 1.227 . S
N251 Co237 2.140 . S
N251 C254 1.346 . S
N251 C255 1.345 . S
C252 C253 1.387 . S
C252 C256 1.391 . S
C253 C252 1.387 . S
C253 C254 1.369 . S
C253 H262 0.929 . S
C254 N251 1.346 . S
C254 C253 1.369 . S
C254 H257 0.928 . S
C255 N251 1.345 . S
C255 C256 1.371 . S
C255 H258 0.931 . S
C256 C252 1.391 . S
C256 C255 1.371 . S
C256 H263 0.930 . S
H257 C254 0.928 . S
H258 C255 0.931 . S
H259 C235 0.930 . S
H260 C232 0.930 . S
H261 C241 0.930 . S
H262 C253 0.929 . S
H263 C256 0.930 . S
C264 C265 1.351 . S
C264 N267 1.368 . S
C264 H269 0.931 . S
C265 C264 1.351 . S
C265 N266 1.373 . S
C265 H293 0.930 . S
N266 C265 1.373 . S
N266 C268 1.340 . S
N267 C264 1.368 . S
N267 C268 1.321 . S
N267 Co270 2.135 . S
C268 N266 1.340 . S
C268 N267 1.321 . S
C268 H292 0.930 . S
H269 C264 0.931 . S
Co270 N267 2.135 . S
Co270 N273 2.121 . S
Co270 O278 2.055 . S
Co270 O281 2.039 . S
Co270 N284 2.140 . S
C271 O272 1.227 . S
C271 O281 1.265 . S
O272 C271 1.227 . S
N273 Co270 2.121 . S
N273 C275 1.375 . S
N273 C276 1.313 . S
C274 C275 1.338 . S
C274 N277 1.377 . S
C274 H294 0.930 . S
C275 N273 1.375 . S
C275 C274 1.338 . S
C275 H279 0.931 . S
C276 N273 1.313 . S
C276 N277 1.344 . S
C276 H280 0.930 . S
N277 C274 1.377 . S
N277 C276 1.344 . S
O278 Co270 2.055 . S
O278 C282 1.253 . S
H279 C275 0.931 . S
H280 C276 0.930 . S
O281 Co270 2.039 . S
O281 C271 1.265 . S
C282 O278 1.253 . S
C282 O283 1.227 . S
O283 C282 1.227 . S
N284 Co270 2.140 . S
N284 C287 1.346 . S
N284 C288 1.345 . S
C285 C286 1.387 . S
C285 C289 1.391 . S
C286 C285 1.387 . S
C286 C287 1.369 . S
C286 H295 0.929 . S
C287 N284 1.346 . S
C287 C286 1.369 . S
C287 H290 0.928 . S
C288 N284 1.345 . S
C288 C289 1.371 . S
C288 H291 0.931 . S
C289 C285 1.391 . S
C289 C288 1.371 . S
C289 H296 0.930 . S
H290 C287 0.928 . S
H291 C288 0.931 . S
H292 C268 0.930 . S
H293 C265 0.930 . S
H294 C274 0.930 . S
H295 C286 0.929 . S
H296 C289 0.930 . S
C297 C298 1.351 . S
C297 N300 1.368 . S
C297 H302 0.931 . S
C298 C297 1.351 . S
C298 N299 1.373 . S
C298 H326 0.930 . S
N299 C298 1.373 . S
N299 C301 1.340 . S
N300 C297 1.368 . S
N300 C301 1.321 . S
N300 Co303 2.135 . S
C301 N299 1.340 . S
C301 N300 1.321 . S
C301 H325 0.930 . S
H302 C297 0.931 . S
Co303 N300 2.135 . S
Co303 N306 2.121 . S
Co303 O311 2.055 . S
Co303 O314 2.039 . S
Co303 N317 2.140 . S
C304 O305 1.227 . S
C304 O314 1.265 . S
O305 C304 1.227 . S
N306 Co303 2.121 . S
N306 C308 1.375 . S
N306 C309 1.313 . S
C307 C308 1.338 . S
C307 N310 1.377 . S
C307 H327 0.930 . S
C308 N306 1.375 . S
C308 C307 1.338 . S
C308 H312 0.931 . S
C309 N306 1.313 . S
C309 N310 1.344 . S
C309 H313 0.930 . S
N310 C307 1.377 . S
N310 C309 1.344 . S
O311 Co303 2.055 . S
O311 C315 1.253 . S
H312 C308 0.931 . S
H313 C309 0.930 . S
O314 Co303 2.039 . S
O314 C304 1.265 . S
C315 O311 1.253 . S
C315 O316 1.227 . S
O316 C315 1.227 . S
N317 Co303 2.140 . S
N317 C320 1.346 . S
N317 C321 1.345 . S
C318 C319 1.387 . S
C318 C322 1.391 . S
C319 C318 1.387 . S
C319 C320 1.369 . S
C319 H328 0.929 . S
C320 N317 1.346 . S
C320 C319 1.369 . S
C320 H323 0.928 . S
C321 N317 1.345 . S
C321 C322 1.371 . S
C321 H324 0.931 . S
C322 C318 1.391 . S
C322 C321 1.371 . S
C322 H329 0.930 . S
H323 C320 0.928 . S
H324 C321 0.931 . S
H325 C301 0.930 . S
H326 C298 0.930 . S
H327 C307 0.930 . S
H328 C319 0.929 . S
H329 C322 0.930 . S
C330 C331 1.351 . S
C330 N333 1.368 . S
C330 H335 0.931 . S
C331 C330 1.351 . S
C331 N332 1.373 . S
C331 H359 0.930 . S
N332 C331 1.373 . S
N332 C334 1.340 . S
N333 C330 1.368 . S
N333 C334 1.321 . S
N333 Co336 2.135 . S
C334 N332 1.340 . S
C334 N333 1.321 . S
C334 H358 0.930 . S
H335 C330 0.931 . S
Co336 N333 2.135 . S
Co336 N339 2.121 . S
Co336 O344 2.055 . S
Co336 O347 2.039 . S
Co336 N350 2.140 . S
C337 O338 1.227 . S
C337 O347 1.265 . S
O338 C337 1.227 . S
N339 Co336 2.121 . S
N339 C341 1.375 . S
N339 C342 1.313 . S
C340 C341 1.338 . S
C340 N343 1.377 . S
C340 H360 0.930 . S
C341 N339 1.375 . S
C341 C340 1.338 . S
C341 H345 0.931 . S
C342 N339 1.313 . S
C342 N343 1.344 . S
C342 H346 0.930 . S
N343 C340 1.377 . S
N343 C342 1.344 . S
O344 Co336 2.055 . S
O344 C348 1.253 . S
H345 C341 0.931 . S
H346 C342 0.930 . S
O347 Co336 2.039 . S
O347 C337 1.265 . S
C348 O344 1.253 . S
C348 O349 1.227 . S
O349 C348 1.227 . S
N350 Co336 2.140 . S
N350 C353 1.346 . S
N350 C354 1.345 . S
C351 C352 1.387 . S
C351 C355 1.391 . S
C352 C351 1.387 . S
C352 C353 1.369 . S
C352 H361 0.929 . S
C353 N350 1.346 . S
C353 C352 1.369 . S
C353 H356 0.928 . S
C354 N350 1.345 . S
C354 C355 1.371 . S
C354 H357 0.931 . S
C355 C351 1.391 . S
C355 C354 1.371 . S
C355 H362 0.930 . S
H356 C353 0.928 . S
H357 C354 0.931 . S
H358 C334 0.930 . S
H359 C331 0.930 . S
H360 C340 0.930 . S
H361 C352 0.929 . S
H362 C355 0.930 . S
C363 C364 1.351 . S
C363 N366 1.368 . S
C363 H368 0.931 . S
C364 C363 1.351 . S
C364 N365 1.373 . S
C364 H392 0.930 . S
N365 C364 1.373 . S
N365 C367 1.340 . S
N366 C363 1.368 . S
N366 C367 1.321 . S
N366 Co369 2.135 . S
C367 N365 1.340 . S
C367 N366 1.321 . S
C367 H391 0.930 . S
H368 C363 0.931 . S
Co369 N366 2.135 . S
Co369 N372 2.121 . S
Co369 O377 2.055 . S
Co369 O380 2.039 . S
Co369 N383 2.140 . S
C370 O371 1.227 . S
C370 O380 1.265 . S
O371 C370 1.227 . S
N372 Co369 2.121 . S
N372 C374 1.375 . S
N372 C375 1.313 . S
C373 C374 1.338 . S
C373 N376 1.377 . S
C373 H393 0.930 . S
C374 N372 1.375 . S
C374 C373 1.338 . S
C374 H378 0.931 . S
C375 N372 1.313 . S
C375 N376 1.344 . S
C375 H379 0.930 . S
N376 C373 1.377 . S
N376 C375 1.344 . S
O377 Co369 2.055 . S
O377 C381 1.253 . S
H378 C374 0.931 . S
H379 C375 0.930 . S
O380 Co369 2.039 . S
O380 C370 1.265 . S
C381 O377 1.253 . S
C381 O382 1.227 . S
O382 C381 1.227 . S
N383 Co369 2.140 . S
N383 C386 1.346 . S
N383 C387 1.345 . S
C384 C385 1.387 . S
C384 C388 1.391 . S
C385 C384 1.387 . S
C385 C386 1.369 . S
C385 H394 0.929 . S
C386 N383 1.346 . S
C386 C385 1.369 . S
C386 H389 0.928 . S
C387 N383 1.345 . S
C387 C388 1.371 . S
C387 H390 0.931 . S
C388 C384 1.391 . S
C388 C387 1.371 . S
C388 H395 0.930 . S
H389 C386 0.928 . S
H390 C387 0.931 . S
H391 C367 0.930 . S
H392 C364 0.930 . S
H393 C373 0.930 . S
H394 C385 0.929 . S
H395 C388 0.930 . S
H396 C402 0.930 . S
H397 C405 0.930 . S
H398 C406 0.930 . S
H399 C407 0.930 . S
H400 C410 0.930 . S
H401 C411 0.930 . S
C402 H396 0.930 . S
C402 C403 1.355 . S
C402 C404 1.366 1_554 S
C403 C402 1.355 . S
C403 C405 1.411 1_545 S
C404 C402 1.366 1_556 S
C404 C409 1.418 1_546 S
C404 C411 1.465 . S
C405 H397 0.930 . S
C405 C403 1.411 1_565 S
C405 C406 1.371 . S
C406 H398 0.930 . S
C406 C405 1.371 . S
C406 C409 1.465 . S
C407 H399 0.930 . S
C407 C408 1.355 . S
C407 C409 1.366 1_556 S
C408 C407 1.355 . S
C408 C410 1.412 1_565 S
C409 C404 1.418 1_564 S
C409 C406 1.465 . S
C409 C407 1.366 1_554 S
C410 H400 0.930 . S
C410 C408 1.412 1_545 S
C410 C411 1.370 . S
C411 H401 0.930 . S
C411 C404 1.465 . S
C411 C410 1.370 . S
H412 C418 0.930 . S
H413 C421 0.930 . S
H414 C422 0.930 . S
H415 C423 0.930 . S
H416 C426 0.930 . S
H417 C427 0.930 . S
C418 H412 0.930 . S
C418 C419 1.355 . S
C418 C420 1.415 . S
C419 C418 1.355 . S
C419 C421 1.419 . S
C420 C418 1.415 . S
C420 C425 1.425 . S
C420 C427 1.409 . S
C421 H413 0.930 . S
C421 C419 1.419 . S
C421 C422 1.362 . S
C422 H414 0.930 . S
C422 C421 1.362 . S
C422 C425 1.409 . S
C423 H415 0.930 . S
C423 C424 1.355 . S
C423 C425 1.415 . S
C424 C423 1.355 . S
C424 C426 1.419 . S
C425 C420 1.425 . S
C425 C422 1.409 . S
C425 C423 1.415 . S
C426 H416 0.930 . S
C426 C424 1.419 . S
C426 C427 1.362 . S
C427 H417 0.930 . S
C427 C420 1.409 . S
C427 C426 1.362 . S
H428 C434 0.930 . S
H429 C437 0.930 . S
H430 C438 0.930 . S
H431 C439 0.930 . S
H432 C442 0.930 . S
H433 C443 0.930 . S
C434 H428 0.930 . S
C434 C435 1.355 . S
C434 C436 1.415 1_655 S
C435 C434 1.355 . S
C435 C437 1.419 . S
C436 C434 1.415 1_455 S
C436 C441 1.425 1_455 S
C436 C443 1.409 . S
C437 H429 0.930 . S
C437 C435 1.419 . S
C437 C438 1.362 . S
C438 H430 0.930 . S
C438 C437 1.362 . S
C438 C441 1.409 . S
C439 H431 0.930 . S
C439 C440 1.355 . S
C439 C441 1.415 1_455 S
C440 C439 1.355 . S
C440 C442 1.419 . S
C441 C436 1.425 1_655 S
C441 C438 1.409 . S
C441 C439 1.415 1_655 S
C442 H432 0.930 . S
C442 C440 1.419 . S
C442 C443 1.362 . S
C443 H433 0.930 . S
C443 C436 1.409 . S
C443 C442 1.362 . S
H444 C450 0.930 . S
H445 C453 0.930 . S
H446 C454 0.930 . S
H447 C455 0.930 . S
H448 C458 0.930 . S
H449 C459 0.930 . S
C450 H444 0.930 . S
C450 C451 1.355 . S
C450 C452 1.431 . S
C451 C450 1.355 . S
C451 C453 1.419 . S
C452 C450 1.431 . S
C452 C457 1.424 1_546 S
C452 C459 1.394 1_556 S
C453 H445 0.930 . S
C453 C451 1.419 . S
C453 C454 1.362 1_545 S
C454 H446 0.930 . S
C454 C453 1.362 1_565 S
C454 C457 1.394 1_556 S
C455 H447 0.930 . S
C455 C456 1.355 . S
C455 C457 1.431 . S
C456 C455 1.355 . S
C456 C458 1.419 . S
C457 C452 1.424 1_564 S
C457 C454 1.394 1_554 S
C457 C455 1.431 . S
C458 H448 0.930 . S
C458 C456 1.419 . S
C458 C459 1.362 1_565 S
C459 H449 0.930 . S
C459 C452 1.394 1_554 S
C459 C458 1.362 1_545 S
H460 C466 0.930 . S
H461 C469 0.930 . S
H462 C470 0.930 . S
H463 C471 0.930 . S
H464 C474 0.930 . S
H465 C475 0.930 . S
C466 H460 0.930 . S
C466 C467 1.355 . S
C466 C468 1.415 . S
C467 C466 1.355 . S
C467 C469 1.419 . S
C468 C466 1.415 . S
C468 C473 1.425 . S
C468 C475 1.409 . S
C469 H461 0.930 . S
C469 C467 1.419 . S
C469 C470 1.362 . S
C470 H462 0.930 . S
C470 C469 1.362 . S
C470 C473 1.409 . S
C471 H463 0.930 . S
C471 C472 1.355 . S
C471 C473 1.415 . S
C472 C471 1.355 . S
C472 C474 1.419 . S
C473 C468 1.425 . S
C473 C470 1.409 . S
C473 C471 1.415 . S
C474 H464 0.930 . S
C474 C472 1.419 . S
C474 C475 1.362 . S
C475 H465 0.930 . S
C475 C468 1.409 . S
C475 C474 1.362 . S
H476 C482 0.930 . S
H477 C485 0.930 . S
H478 C486 0.930 . S
H479 C487 0.930 . S
H480 C490 0.930 . S
H481 C491 0.930 . S
C482 H476 0.930 . S
C482 C483 1.355 . S
C482 C484 1.415 1_455 S
C483 C482 1.355 . S
C483 C485 1.419 . S
C484 C482 1.415 1_655 S
C484 C489 1.425 1_655 S
C484 C491 1.409 . S
C485 H477 0.930 . S
C485 C483 1.419 . S
C485 C486 1.362 . S
C486 H478 0.930 . S
C486 C485 1.362 . S
C486 C489 1.409 . S
C487 H479 0.930 . S
C487 C488 1.355 . S
C487 C489 1.415 1_655 S
C488 C487 1.355 . S
C488 C490 1.419 . S
C489 C484 1.425 1_455 S
C489 C486 1.409 . S
C489 C487 1.415 1_455 S
C490 H480 0.930 . S
C490 C488 1.419 . S
C490 C491 1.362 . S
C491 H481 0.930 . S
C491 C484 1.409 . S
C491 C490 1.362 . S
H492 C498 0.930 . S
H493 C501 0.930 . S
H494 C502 0.930 . S
H495 C503 0.930 . S
H496 C506 0.930 . S
H497 C507 0.930 . S
C498 H492 0.930 . S
C498 C499 1.355 1_545 S
C498 C500 1.415 . S
C499 C498 1.355 1_565 S
C499 C501 1.419 . S
C500 C498 1.415 . S
C500 C505 1.425 1_545 S
C500 C507 1.409 . S
C501 H493 0.930 . S
C501 C499 1.419 . S
C501 C502 1.362 . S
C502 H494 0.930 . S
C502 C501 1.362 . S
C502 C505 1.409 . S
C503 H495 0.930 . S
C503 C504 1.355 1_565 S
C503 C505 1.415 . S
C504 C503 1.355 1_545 S
C504 C506 1.419 . S
C505 C500 1.425 1_565 S
C505 C502 1.409 . S
C505 C503 1.415 . S
C506 H496 0.930 . S
C506 C504 1.419 . S
C506 C507 1.362 . S
C507 H497 0.930 . S
C507 C500 1.409 . S
C507 C506 1.362 . S
H508 C514 0.930 . S
H509 C517 0.930 . S
H510 C518 0.930 . S
H511 C519 0.930 . S
H512 C522 0.930 . S
H513 C523 0.930 . S
C514 H508 0.930 . S
C514 C515 1.355 . S
C514 C516 1.415 . S
C515 C514 1.355 . S
C515 C517 1.419 . S
C516 C514 1.415 . S
C516 C521 1.425 . S
C516 C523 1.409 . S
C517 H509 0.930 . S
C517 C515 1.419 . S
C517 C518 1.362 . S
C518 H510 0.930 . S
C518 C517 1.362 . S
C518 C521 1.409 . S
C519 H511 0.930 . S
C519 C520 1.355 . S
C519 C521 1.415 . S
C520 C519 1.355 . S
C520 C522 1.419 . S
C521 C516 1.425 . S
C521 C518 1.409 . S
C521 C519 1.415 . S
C522 H512 0.930 . S
C522 C520 1.419 . S
C522 C523 1.362 . S
C523 H513 0.930 . S
C523 C516 1.409 . S
C523 C522 1.362 . S
H524 C530 0.931 1_655 S
H525 C533 0.930 . S
H526 C534 0.930 . S
H527 C535 0.931 1_455 S
H528 C538 0.930 . S
H529 C539 0.930 . S
C530 H524 0.931 1_455 S
C530 C531 1.354 . S
C530 C532 1.414 1_455 S
C531 C530 1.354 . S
C531 C533 1.419 . S
C532 C530 1.414 1_655 S
C532 C537 1.425 1_655 S
C532 C539 1.409 . S
C533 H525 0.930 . S
C533 C531 1.419 . S
C533 C534 1.362 . S
C534 H526 0.930 . S
C534 C533 1.362 . S
C534 C537 1.409 . S
C535 H527 0.931 1_655 S
C535 C536 1.353 . S
C535 C537 1.414 1_655 S
C536 C535 1.353 . S
C536 C538 1.419 . S
C537 C532 1.425 1_455 S
C537 C534 1.409 . S
C537 C535 1.414 1_455 S
C538 H528 0.930 . S
C538 C536 1.419 . S
C538 C539 1.362 . S
C539 H529 0.930 . S
C539 C532 1.409 . S
C539 C538 1.362 . S
H540 C546 0.930 . S
H541 C549 0.930 . S
H542 C550 0.930 . S
H543 C551 0.930 . S
H544 C554 0.930 . S
H545 C555 0.930 . S
C546 H540 0.930 . S
C546 C547 1.355 . S
C546 C548 1.415 . S
C547 C546 1.355 . S
C547 C549 1.419 1_455 S
C548 C546 1.415 . S
C548 C553 1.425 1_455 S
C548 C555 1.409 . S
C549 H541 0.930 . S
C549 C547 1.419 1_655 S
C549 C550 1.362 . S
C550 H542 0.930 . S
C550 C549 1.362 . S
C550 C553 1.409 . S
C551 H543 0.930 . S
C551 C552 1.355 . S
C551 C553 1.415 . S
C552 C551 1.355 . S
C552 C554 1.419 1_655 S
C553 C548 1.425 1_655 S
C553 C550 1.409 . S
C553 C551 1.415 . S
C554 H544 0.930 . S
C554 C552 1.419 1_455 S
C554 C555 1.362 . S
C555 H545 0.930 . S
C555 C548 1.409 . S
C555 C554 1.362 . S
H556 C562 0.930 . S
H557 C565 0.930 . S
H558 C566 0.930 . S
H559 C567 0.930 . S
H560 C570 0.930 . S
H561 C571 0.930 . S
C562 H556 0.930 . S
C562 C563 1.355 1_565 S
C562 C564 1.415 . S
C563 C562 1.355 1_545 S
C563 C565 1.419 . S
C564 C562 1.415 . S
C564 C569 1.425 1_565 S
C564 C571 1.409 . S
C565 H557 0.930 . S
C565 C563 1.419 . S
C565 C566 1.362 . S
C566 H558 0.930 . S
C566 C565 1.362 . S
C566 C569 1.409 . S
C567 H559 0.930 . S
C567 C568 1.355 1_545 S
C567 C569 1.415 . S
C568 C567 1.355 1_565 S
C568 C570 1.419 . S
C569 C564 1.425 1_545 S
C569 C566 1.409 . S
C569 C567 1.415 . S
C570 H560 0.930 . S
C570 C568 1.419 . S
C570 C571 1.362 . S
C571 H561 0.930 . S
C571 C564 1.409 . S
C571 C570 1.362 . S
H572 C578 0.930 . S
H573 C581 0.930 . S
H574 C582 0.930 . S
H575 C583 0.930 . S
H576 C586 0.930 . S
H577 C587 0.930 . S
C578 H572 0.930 . S
C578 C579 1.355 . S
C578 C580 1.415 . S
C579 C578 1.355 . S
C579 C581 1.419 . S
C580 C578 1.415 . S
C580 C585 1.425 . S
C580 C587 1.409 . S
C581 H573 0.930 . S
C581 C579 1.419 . S
C581 C582 1.362 . S
C582 H574 0.930 . S
C582 C581 1.362 . S
C582 C585 1.409 . S
C583 H575 0.930 . S
C583 C584 1.355 . S
C583 C585 1.415 . S
C584 C583 1.355 . S
C584 C586 1.419 . S
C585 C580 1.425 . S
C585 C582 1.409 . S
C585 C583 1.415 . S
C586 H576 0.930 . S
C586 C584 1.419 . S
C586 C587 1.362 . S
C587 H577 0.930 . S
C587 C580 1.409 . S
C587 C586 1.362 . S
H588 C594 0.930 . S
H589 C597 0.930 . S
H590 C598 0.930 . S
H591 C599 0.930 . S
H592 C602 0.930 . S
H593 C603 0.930 . S
C594 H588 0.930 . S
C594 C595 1.355 . S
C594 C596 1.415 . S
C595 C594 1.355 . S
C595 C597 1.419 . S
C596 C594 1.415 . S
C596 C601 1.425 . S
C596 C603 1.409 . S
C597 H589 0.930 . S
C597 C595 1.419 . S
C597 C598 1.362 . S
C598 H590 0.930 . S
C598 C597 1.362 . S
C598 C601 1.409 . S
C599 H591 0.930 . S
C599 C600 1.355 . S
C599 C601 1.415 . S
C600 C599 1.355 . S
C600 C602 1.419 . S
C601 C596 1.425 . S
C601 C598 1.409 . S
C601 C599 1.415 . S
C602 H592 0.930 . S
C602 C600 1.419 . S
C602 C603 1.362 . S
C603 H593 0.930 . S
C603 C596 1.409 . S
C603 C602 1.362 . S
H604 C610 0.930 . S
H605 C613 0.930 . S
H606 C614 0.930 . S
H607 C615 0.930 . S
H608 C618 0.930 . S
H609 C619 0.930 . S
C610 H604 0.930 . S
C610 C611 1.355 . S
C610 C612 1.415 . S
C611 C610 1.355 . S
C611 C613 1.419 . S
C612 C610 1.415 . S
C612 C617 1.425 . S
C612 C619 1.409 . S
C613 H605 0.930 . S
C613 C611 1.419 . S
C613 C614 1.362 . S
C614 H606 0.930 . S
C614 C613 1.362 . S
C614 C617 1.409 . S
C615 H607 0.930 . S
C615 C616 1.355 . S
C615 C617 1.415 . S
C616 C615 1.355 . S
C616 C618 1.419 . S
C617 C612 1.425 . S
C617 C614 1.409 . S
C617 C615 1.415 . S
C618 H608 0.930 . S
C618 C616 1.419 . S
C618 C619 1.362 . S
C619 H609 0.930 . S
C619 C612 1.409 . S
C619 C618 1.362 . S
H620 C626 0.930 . S
H621 C629 0.930 . S
H622 C630 0.930 . S
H623 C631 0.930 . S
H624 C634 0.930 . S
H625 C635 0.930 . S
C626 H620 0.930 . S
C626 C627 1.355 . S
C626 C628 1.415 . S
C627 C626 1.355 . S
C627 C629 1.419 . S
C628 C626 1.415 . S
C628 C633 1.425 . S
C628 C635 1.409 . S
C629 H621 0.930 . S
C629 C627 1.419 . S
C629 C630 1.362 . S
C630 H622 0.930 . S
C630 C629 1.362 . S
C630 C633 1.409 . S
C631 H623 0.930 . S
C631 C632 1.355 . S
C631 C633 1.415 . S
C632 C631 1.355 . S
C632 C634 1.419 . S
C633 C628 1.425 . S
C633 C630 1.409 . S
C633 C631 1.415 . S
C634 H624 0.930 . S
C634 C632 1.419 . S
C634 C635 1.362 . S
C635 H625 0.930 . S
C635 C628 1.409 . S
C635 C634 1.362 . S
H636 C642 0.930 . S
H637 C645 0.930 . S
H638 C646 0.930 . S
H639 C647 0.930 . S
H640 C650 0.930 . S
H641 C651 0.930 . S
C642 H636 0.930 . S
C642 C643 1.355 . S
C642 C644 1.415 . S
C643 C642 1.355 . S
C643 C645 1.419 . S
C644 C642 1.415 . S
C644 C649 1.425 . S
C644 C651 1.409 . S
C645 H637 0.930 . S
C645 C643 1.419 . S
C645 C646 1.362 . S
C646 H638 0.930 . S
C646 C645 1.362 . S
C646 C649 1.409 . S
C647 H639 0.930 . S
C647 C648 1.355 . S
C647 C649 1.415 . S
C648 C647 1.355 . S
C648 C650 1.419 . S
C649 C644 1.425 . S
C649 C646 1.409 . S
C649 C647 1.415 . S
C650 H640 0.930 . S
C650 C648 1.419 . S
C650 C651 1.362 . S
C651 H641 0.930 . S
C651 C644 1.409 . S
C651 C650 1.362 . S
H652 C658 0.930 . S
H653 C661 0.930 . S
H654 C662 0.930 . S
H655 C663 0.930 . S
H656 C666 0.930 . S
H657 C667 0.930 . S
C658 H652 0.930 . S
C658 C659 1.355 . S
C658 C660 1.415 . S
C659 C658 1.355 . S
C659 C661 1.419 . S
C660 C658 1.415 . S
C660 C665 1.425 . S
C660 C667 1.409 . S
C661 H653 0.930 . S
C661 C659 1.419 . S
C661 C662 1.362 . S
C662 H654 0.930 . S
C662 C661 1.362 . S
C662 C665 1.409 . S
C663 H655 0.930 . S
C663 C664 1.355 . S
C663 C665 1.415 . S
C664 C663 1.355 . S
C664 C666 1.419 . S
C665 C660 1.425 . S
C665 C662 1.409 . S
C665 C663 1.415 . S
C666 H656 0.930 . S
C666 C664 1.419 . S
C666 C667 1.362 . S
C667 H657 0.930 . S
C667 C660 1.409 . S
C667 C666 1.362 . S
H668 C674 0.930 . S
H669 C677 0.930 . S
H670 C678 0.930 . S
H671 C679 0.930 . S
H672 C682 0.930 . S
H673 C683 0.930 . S
C674 H668 0.930 . S
C674 C675 1.355 . S
C674 C676 1.415 . S
C675 C674 1.355 . S
C675 C677 1.419 . S
C676 C674 1.415 . S
C676 C681 1.425 . S
C676 C683 1.409 . S
C677 H669 0.930 . S
C677 C675 1.419 . S
C677 C678 1.362 . S
C678 H670 0.930 . S
C678 C677 1.362 . S
C678 C681 1.409 . S
C679 H671 0.930 . S
C679 C680 1.355 . S
C679 C681 1.415 . S
C680 C679 1.355 . S
C680 C682 1.419 . S
C681 C676 1.425 . S
C681 C678 1.409 . S
C681 C679 1.415 . S
C682 H672 0.930 . S
C682 C680 1.419 . S
C682 C683 1.362 . S
C683 H673 0.930 . S
C683 C676 1.409 . S
C683 C682 1.362 . S
H684 C690 0.930 . S
H685 C693 0.930 . S
H686 C694 0.930 . S
H687 C695 0.930 . S
H688 C698 0.930 . S
H689 C699 0.930 . S
C690 H684 0.930 . S
C690 C691 1.355 . S
C690 C692 1.415 . S
C691 C690 1.355 . S
C691 C693 1.419 . S
C692 C690 1.415 . S
C692 C697 1.425 . S
C692 C699 1.409 . S
C693 H685 0.930 . S
C693 C691 1.419 . S
C693 C694 1.362 . S
C694 H686 0.930 . S
C694 C693 1.362 . S
C694 C697 1.409 . S
C695 H687 0.930 . S
C695 C696 1.355 . S
C695 C697 1.415 . S
C696 C695 1.355 . S
C696 C698 1.419 . S
C697 C692 1.425 . S
C697 C694 1.409 . S
C697 C695 1.415 . S
C698 H688 0.930 . S
C698 C696 1.419 . S
C698 C699 1.362 . S
C699 H689 0.930 . S
C699 C692 1.409 . S
C699 C698 1.362 . S
H700 C706 0.930 . S
H701 C709 0.930 . S
H702 C710 0.930 . S
H703 C711 0.930 . S
H704 C714 0.930 . S
H705 C715 0.930 . S
C706 H700 0.930 . S
C706 C707 1.355 . S
C706 C708 1.415 . S
C707 C706 1.355 . S
C707 C709 1.419 . S
C708 C706 1.415 . S
C708 C713 1.425 1_455 S
C708 C715 1.409 . S
C709 H701 0.930 . S
C709 C707 1.419 . S
C709 C710 1.362 1_455 S
C710 H702 0.930 . S
C710 C709 1.362 1_655 S
C710 C713 1.409 . S
C711 H703 0.930 . S
C711 C712 1.355 . S
C711 C713 1.415 . S
C712 C711 1.355 . S
C712 C714 1.419 . S
C713 C708 1.425 1_655 S
C713 C710 1.409 . S
C713 C711 1.415 . S
C714 H704 0.930 . S
C714 C712 1.419 . S
C714 C715 1.362 1_655 S
C715 H705 0.930 . S
C715 C708 1.409 . S
C715 C714 1.362 1_455 S
H716 C722 0.930 . S
H717 C725 0.930 . S
H718 C726 0.930 . S
H719 C727 0.930 . S
H720 C730 0.930 . S
H721 C731 0.930 . S
C722 H716 0.930 . S
C722 C723 1.355 . S
C722 C724 1.415 . S
C723 C722 1.355 . S
C723 C725 1.419 1_565 S
C724 C722 1.415 . S
C724 C729 1.425 1_565 S
C724 C731 1.409 . S
C725 H717 0.930 . S
C725 C723 1.419 1_545 S
C725 C726 1.362 . S
C726 H718 0.930 . S
C726 C725 1.362 . S
C726 C729 1.409 . S
C727 H719 0.930 . S
C727 C728 1.355 . S
C727 C729 1.415 . S
C728 C727 1.355 . S
C728 C730 1.419 1_545 S
C729 C724 1.425 1_545 S
C729 C726 1.409 . S
C729 C727 1.415 . S
C730 H720 0.930 . S
C730 C728 1.419 1_565 S
C730 C731 1.362 . S
C731 H721 0.930 . S
C731 C724 1.409 . S
C731 C730 1.362 . S
H732 C738 0.930 . S
H733 C741 0.930 . S
H734 C742 0.930 . S
H735 C743 0.930 . S
H736 C746 0.930 . S
H737 C747 0.930 . S
C738 H732 0.930 . S
C738 C739 1.355 . S
C738 C740 1.415 . S
C739 C738 1.355 . S
C739 C741 1.419 . S
C740 C738 1.415 . S
C740 C745 1.425 . S
C740 C747 1.409 . S
C741 H733 0.930 . S
C741 C739 1.419 . S
C741 C742 1.362 . S
C742 H734 0.930 . S
C742 C741 1.362 . S
C742 C745 1.409 . S
C743 H735 0.930 . S
C743 C744 1.355 . S
C743 C745 1.415 . S
C744 C743 1.355 . S
C744 C746 1.419 . S
C745 C740 1.425 . S
C745 C742 1.409 . S
C745 C743 1.415 . S
C746 H736 0.930 . S
C746 C744 1.419 . S
C746 C747 1.362 . S
C747 H737 0.930 . S
C747 C740 1.409 . S
C747 C746 1.362 . S
H748 C754 0.934 . S
H749 C757 0.930 . S
H750 C758 0.930 . S
H751 C759 0.933 . S
H752 C762 0.930 . S
H753 C763 0.930 . S
C754 H748 0.934 . S
C754 C755 1.351 1_655 S
C754 C756 1.414 . S
C755 C754 1.351 1_455 S
C755 C757 1.419 . S
C756 C754 1.414 . S
C756 C761 1.425 1_655 S
C756 C763 1.409 . S
C757 H749 0.930 . S
C757 C755 1.419 . S
C757 C758 1.362 . S
C758 H750 0.930 . S
C758 C757 1.362 . S
C758 C761 1.409 . S
C759 H751 0.933 . S
C759 C760 1.352 1_455 S
C759 C761 1.414 . S
C760 C759 1.352 1_655 S
C760 C762 1.419 . S
C761 C756 1.425 1_455 S
C761 C758 1.409 . S
C761 C759 1.414 . S
C762 H752 0.930 . S
C762 C760 1.419 . S
C762 C763 1.362 . S
C763 H753 0.930 . S
C763 C756 1.409 . S
C763 C762 1.362 . S
H764 C770 0.928 1_545 S
H765 C773 0.930 . S
H766 C774 0.930 . S
H767 C775 0.928 1_565 S
H768 C778 0.930 . S
H769 C779 0.930 . S
C770 H764 0.928 1_565 S
C770 C771 1.362 . S
C770 C772 1.409 1_565 S
C771 C770 1.362 . S
C771 C773 1.419 . S
C772 C770 1.409 1_545 S
C772 C777 1.425 1_545 S
C772 C779 1.409 . S
C773 H765 0.930 . S
C773 C771 1.419 . S
C773 C774 1.362 . S
C774 H766 0.930 . S
C774 C773 1.362 . S
C774 C777 1.409 . S
C775 H767 0.928 1_545 S
C775 C776 1.361 . S
C775 C777 1.410 1_545 S
C776 C775 1.361 . S
C776 C778 1.419 . S
C777 C772 1.425 1_565 S
C777 C774 1.409 . S
C777 C775 1.410 1_565 S
C778 H768 0.930 . S
C778 C776 1.419 . S
C778 C779 1.362 . S
C779 H769 0.930 . S
C779 C772 1.409 . S
C779 C778 1.362 . S
H780 C786 0.930 . S
H781 C789 0.930 . S
H782 C790 0.930 . S
H783 C791 0.930 . S
H784 C794 0.930 . S
H785 C795 0.930 . S
C786 H780 0.930 . S
C786 C787 1.355 1_565 S
C786 C788 1.415 . S
C787 C786 1.355 1_545 S
C787 C789 1.419 . S
C788 C786 1.415 . S
C788 C793 1.425 1_465 S
C788 C795 1.409 1_455 S
C789 H781 0.930 . S
C789 C787 1.419 . S
C789 C790 1.362 . S
C790 H782 0.930 . S
C790 C789 1.362 . S
C790 C793 1.409 1_455 S
C791 H783 0.930 . S
C791 C792 1.355 1_545 S
C791 C793 1.415 . S
C792 C791 1.355 1_565 S
C792 C794 1.419 . S
C793 C788 1.425 1_645 S
C793 C790 1.409 1_655 S
C793 C791 1.415 . S
C794 H784 0.930 . S
C794 C792 1.419 . S
C794 C795 1.362 . S
C795 H785 0.930 . S
C795 C788 1.409 1_655 S
C795 C794 1.362 . S
H796 C802 0.930 1_655 S
H797 C805 0.930 . S
H798 C806 0.942 . S
H799 C807 0.930 1_455 S
H800 C810 0.930 . S
H801 C811 0.941 . S
C802 H796 0.930 1_455 S
C802 C803 1.355 . S
C802 C804 1.415 1_455 S
C803 C802 1.355 . S
C803 C805 1.419 . S
C804 C802 1.415 1_655 S
C804 C809 1.425 1_645 S
C804 C811 1.409 1_545 S
C805 H797 0.930 . S
C805 C803 1.419 . S
C805 C806 1.362 . S
C806 H798 0.942 . S
C806 C805 1.362 . S
C806 C809 1.409 1_545 S
C807 H799 0.930 1_655 S
C807 C808 1.355 . S
C807 C809 1.415 1_655 S
C808 C807 1.355 . S
C808 C810 1.419 . S
C809 C804 1.425 1_465 S
C809 C806 1.409 1_565 S
C809 C807 1.415 1_455 S
C810 H800 0.930 . S
C810 C808 1.419 . S
C810 C811 1.362 . S
C811 H801 0.941 . S
C811 C804 1.409 1_565 S
C811 C810 1.362 . S
H812 C818 0.930 1_455 S
H813 C821 0.930 . S
H814 C822 0.930 . S
H815 C823 0.930 1_655 S
H816 C826 0.930 . S
H817 C827 0.930 . S
C818 H812 0.930 1_655 S
C818 C819 1.355 . S
C818 C820 1.415 1_655 S
C819 C818 1.355 . S
C819 C821 1.419 . S
C820 C818 1.415 1_455 S
C820 C825 1.425 1_445 S
C820 C827 1.409 . S
C821 H813 0.930 . S
C821 C819 1.419 . S
C821 C822 1.362 1_545 S
C822 H814 0.930 . S
C822 C821 1.362 1_565 S
C822 C825 1.409 . S
C823 H815 0.930 1_455 S
C823 C824 1.355 . S
C823 C825 1.415 1_455 S
C824 C823 1.355 . S
C824 C826 1.419 . S
C825 C820 1.425 1_665 S
C825 C822 1.409 . S
C825 C823 1.415 1_655 S
C826 H816 0.930 . S
C826 C824 1.419 . S
C826 C827 1.362 1_565 S
C827 H817 0.930 . S
C827 C820 1.409 . S
C827 C826 1.362 1_545 S
H828 C834 0.930 . S
H829 C837 0.930 . S
H830 C838 0.930 . S
H831 C839 0.930 . S
H832 C842 0.930 . S
H833 C843 0.930 . S
C834 H828 0.930 . S
C834 C835 1.355 . S
C834 C836 1.415 . S
C835 C834 1.355 . S
C835 C837 1.419 1_655 S
C836 C834 1.415 . S
C836 C841 1.425 1_665 S
C836 C843 1.409 1_565 S
C837 H829 0.930 . S
C837 C835 1.419 1_455 S
C837 C838 1.362 . S
C838 H830 0.930 . S
C838 C837 1.362 . S
C838 C841 1.409 1_565 S
C839 H831 0.930 . S
C839 C840 1.355 . S
C839 C841 1.415 . S
C840 C839 1.355 . S
C840 C842 1.419 1_455 S
C841 C836 1.425 1_445 S
C841 C838 1.409 1_545 S
C841 C839 1.415 . S
C842 H832 0.930 . S
C842 C840 1.419 1_655 S
C842 C843 1.362 . S
C843 H833 0.930 . S
C843 C836 1.409 1_545 S
C843 C842 1.362 . S
H844 C850 0.930 . S
H845 C853 0.930 . S
H846 C854 0.930 . S
H847 C855 0.930 . S
H848 C858 0.930 . S
H849 C859 0.930 . S
C850 H844 0.930 . S
C850 C851 1.355 . S
C850 C852 1.415 1_655 S
C851 C850 1.355 . S
C851 C853 1.419 . S
C852 C850 1.415 1_455 S
C852 C857 1.425 1_445 S
C852 C859 1.409 . S
C853 H845 0.930 . S
C853 C851 1.419 . S
C853 C854 1.362 1_545 S
C854 H846 0.930 . S
C854 C853 1.362 1_565 S
C854 C857 1.409 . S
C855 H847 0.930 . S
C855 C856 1.355 . S
C855 C857 1.415 1_455 S
C856 C855 1.355 . S
C856 C858 1.419 . S
C857 C852 1.425 1_665 S
C857 C854 1.409 . S
C857 C855 1.415 1_655 S
C858 H848 0.930 . S
C858 C856 1.419 . S
C858 C859 1.362 1_565 S
C859 H849 0.930 . S
C859 C852 1.409 . S
C859 C858 1.362 1_545 S
H860 C866 0.929 . S
H861 C869 0.930 . S
H862 C870 0.930 . S
H863 C871 0.930 . S
H864 C874 0.930 . S
H865 C875 0.930 . S
C866 H860 0.929 . S
C866 C867 1.355 . S
C866 C868 1.415 1_545 S
C867 C866 1.355 . S
C867 C869 1.419 . S
C868 C866 1.415 1_565 S
C868 C873 1.425 1_465 S
C868 C875 1.409 1_455 S
C869 H861 0.930 . S
C869 C867 1.419 . S
C869 C870 1.362 . S
C870 H862 0.930 . S
C870 C869 1.362 . S
C870 C873 1.409 1_455 S
C871 H863 0.930 . S
C871 C872 1.355 . S
C871 C873 1.415 1_565 S
C872 C871 1.355 . S
C872 C874 1.419 . S
C873 C868 1.425 1_645 S
C873 C870 1.409 1_655 S
C873 C871 1.415 1_545 S
C874 H864 0.930 . S
C874 C872 1.419 . S
C874 C875 1.362 . S
C875 H865 0.930 . S
C875 C868 1.409 1_655 S
C875 C874 1.362 . S
C403 N13 1.552 . S
C408 N244 1.502 . S
C419 N46 1.503 . S
C424 N277 1.561 . S
C435 N79 1.512 . S
C440 N310 1.572 . S
C451 N343 1.564 . S
C456 N112 1.504 . S
C467 N376 1.537 . S
C472 N145 1.507 . S
C483 N178 1.571 . S
C488 N211 1.534 . S
C499 C106 1.721 . S
C504 C7 1.721 . S
C515 C40 1.723 . S
C520 C139 1.722 . S
C531 C172 1.721 . S
C536 C73 1.721 . S
C547 C304 1.738 . S
C552 C205 1.736 . S
C563 C337 1.721 . S
C568 C238 1.721 . S
C579 C271 1.727 . S
C584 C370 1.728 . S
C595 N266 1.461 . S
C600 N2 1.529 . S
C611 N35 1.499 . S
C616 N299 1.462 . S
C627 N68 1.456 . S
C632 N332 1.512 . S
C643 N101 1.484 . S
C648 N365 1.526 . S
C659 N134 1.465 . S
C664 N200 1.494 . S
C675 N233 1.530 . S
C680 N167 1.473 . S
C691 C120 1.197 . S
C696 C21 1.215 . S
C707 C54 1.197 . S
C712 C153 1.215 . S
C723 C186 1.206 . S
C728 C87 1.206 . S
C739 C219 1.200 . S
C744 C318 1.211 . S
C755 C252 1.211 . S
C760 C351 1.202 . S
C771 C384 1.208 . S
C776 C285 1.205 . S
C787 C18 1.199 . S
C792 C117 1.199 . S
C803 C51 1.224 . S
C808 C150 1.224 . S
C819 C84 1.208 . S
C824 C183 1.208 . S
C835 C216 1.224 . S
C840 C315 1.224 . S
C851 C348 1.219 . S
C856 C249 1.220 . S
C867 C282 1.220 . S
C872 C381 1.219 . S
