# Generated by pormake.
# Topology rob, (6)-cn, num edge types: 1
# Building blocks:
#     Node 0, Type 0, BuildingBlock: KUMBUR_clean_sbu_0, # of connection points: 6
#     Node 1, Type 0, BuildingBlock: KUMBUR_clean_sbu_0, # of connection points: 6
#     Node 2, Type 0, BuildingBlock: KUMBUR_clean_sbu_0, # of connection points: 6
#     Node 3, Type 0, BuildingBlock: KUMBUR_clean_sbu_0, # of connection points: 6
#     Edge 4, Type (0, 0), BuildingBlock: EZIPEK_clean_linker_0, # of connection points: 2
#     Edge 5, Type (0, 0), BuildingBlock: EZIPEK_clean_linker_0, # of connection points: 2
#     Edge 6, Type (0, 0), BuildingBlock: EZIPEK_clean_linker_0, # of connection points: 2
#     Edge 7, Type (0, 0), BuildingBlock: EZIPEK_clean_linker_0, # of connection points: 2
#     Edge 8, Type (0, 0), BuildingBlock: EZIPEK_clean_linker_0, # of connection points: 2
#     Edge 9, Type (0, 0), BuildingBlock: EZIPEK_clean_linker_0, # of connection points: 2
#     Edge 10, Type (0, 0), BuildingBlock: EZIPEK_clean_linker_0, # of connection points: 2
#     Edge 11, Type (0, 0), BuildingBlock: EZIPEK_clean_linker_0, # of connection points: 2
#     Edge 12, Type (0, 0), BuildingBlock: EZIPEK_clean_linker_0, # of connection points: 2
#     Edge 13, Type (0, 0), BuildingBlock: EZIPEK_clean_linker_0, # of connection points: 2
#     Edge 14, Type (0, 0), BuildingBlock: EZIPEK_clean_linker_0, # of connection points: 2
#     Edge 15, Type (0, 0), BuildingBlock: EZIPEK_clean_linker_0, # of connection points: 2
# Relax obj value: 0.040
# Max RMSD: 0.176
# Mean RMSD: 0.176
data_MOF--net-rob--node1-KUMBUR_clean_sbu_0--edge1-EZIPEK_clean_linker_0
_symmetry_space_group_name_H-M    P1
_symmetry_Int_Tables_number       1
_symmetry_cell_setting            triclinic
loop_
_symmetry_equiv_pos_as_xyz
'x, y, z'
_cell_length_a     12.942494
_cell_length_b     19.25407
_cell_length_c     26.64021
_cell_angle_alpha  113.98913
_cell_angle_beta   90.862487
_cell_angle_gamma 89.737765
loop_
_atom_site_label
_atom_site_type_symbol
_atom_site_fract_x
_atom_site_fract_y
_atom_site_fract_z
_atom_type_partial_charge
Tb0 Tb 0.14266 0.2775 0.04273 0.0
C1 C 0.51255 0.07393 0.01366 0.0
C2 C 0.65731 0.15613 0.05861 0.0
C3 C 0.65916 0.02623 0.04765 0.0
C4 C 0.55815 0.14479 0.03299 0.0
C5 C 0.56539 0.01298 0.0181 0.0
C6 C 0.70447 0.0977 0.06851 0.0
C7 C 0.44099 0.92737 0.95487 0.0
N8 N 0.42412 0.062 0.98354 0.0
C9 C 0.39198 -0.01073 0.95153 0.0
C10 C 0.52554 0.9399 0.9898 0.0
Tb11 Tb 0.35314 0.16401 0.97392 0.0
N12 N 0.51338 0.19857 0.0193 0.0
C13 C 0.57314 0.26046 0.02397 0.0
C14 C 0.71076 0.22322 0.0693 0.0
C15 C 0.66941 0.27475 0.05064 0.0
H16 H 0.3285 -0.02114 0.92291 0.0
H17 H 0.71131 0.32625 0.05735 0.0
H18 H 0.77917 0.10574 0.0891 0.0
H19 H 0.41411 0.87017 0.93038 0.0
H20 H 0.5516 0.30095 0.00762 0.0
H21 H 0.83539 0.09939 0.90783 0.0
H22 H 0.78638 0.23382 0.08905 0.0
H23 H 0.16916 0.46441 0.10194 0.0
H24 H 0.00027 0.1206 0.9539 0.0
H25 H 0.07674 0.57696 0.10214 0.0
H26 H 0.69989 -0.01822 0.05378 0.0
H27 H 0.72715 0.2071 0.91219 0.0
H28 H 0.69677 0.34637 0.9532 0.0
H29 H 0.56142 0.8916 0.99282 0.0
H30 H 0.75878 0.47501 0.01011 0.0
N31 N -0.00173 0.24299 0.98374 0.0
C32 C 0.95893 0.17049 0.9569 0.0
C33 C 0.80279 0.21772 0.9319 0.0
C34 C 0.83849 0.29147 0.96174 0.0
C35 C 0.86323 0.15703 0.92971 0.0
C36 C 0.93839 0.30262 0.98634 0.0
H37 H 0.91039 0.55924 0.05262 0.0
N38 N 0.06679 0.38514 0.04339 0.0
C39 C 0.04585 0.52043 0.07977 0.0
C40 C 0.97374 0.3756 0.01703 0.0
C41 C 0.1004 0.45664 0.07706 0.0
C42 C 0.95028 0.51079 0.05351 0.0
C43 C 0.91007 0.43836 0.02481 0.0
O44 O 0.02639 0.33406 0.09887 0.0
O45 O 0.28747 0.22859 0.05627 0.0
O46 O 0.25862 0.09345 0.00736 0.0
O47 O 0.10369 0.15954 0.02794 0.0
O48 O 0.26043 0.34027 0.10214 0.0
O49 O 0.10668 0.24232 0.10645 0.0
O50 O 0.37598 0.07994 0.89414 0.0
O51 O 0.21205 0.2191 0.96365 0.0
O52 O 0.24944 0.35948 0.0257 0.0
O53 O 0.3877 0.28161 0.98547 0.0
O54 O 0.23308 0.10917 0.91199 0.0
O55 O 0.46011 0.18335 0.9214 0.0
C56 C 0.32298 0.28615 0.09811 0.0
C57 C 0.01331 0.32568 0.18473 0.0
C58 C 0.97282 0.31176 0.26957 0.0
C59 C 0.99287 0.27911 0.21284 0.0
C60 C 0.97169 0.39152 0.29725 0.0
C61 C 0.00522 0.40494 0.21282 0.0
C62 C 0.98392 0.43723 0.26865 0.0
C63 C 0.15802 0.09776 0.01983 0.0
C64 C 0.03241 0.29086 0.12521 0.0
C65 C 0.8094 0.42729 0.00298 0.0
C66 C 0.77427 0.35406 0.97057 0.0
C67 C 0.17374 0.16628 0.92114 0.0
C68 C 0.41085 0.12676 0.8263 0.0
C69 C 0.47461 0.16723 0.80467 0.0
C70 C 0.44485 0.17529 0.75591 0.0
C71 C 0.34751 0.14867 0.73233 0.0
C72 C 0.32079 0.09153 0.79659 0.0
C73 C 0.28782 0.1047 0.75123 0.0
C74 C 0.34473 0.34954 0.00439 0.0
C75 C 0.43695 0.12111 0.87933 0.0
H76 H 0.98837 0.21803 0.19025 0.0
H77 H 0.95207 0.41851 0.34024 0.0
H78 H 0.01634 0.4419 0.19175 0.0
H79 H 0.9736 0.49774 0.2896 0.0
H80 H 0.54809 0.19001 0.82439 0.0
H81 H 0.31939 0.15938 0.69771 0.0
H82 H 0.27295 0.05596 0.80938 0.0
H83 H 0.21542 0.08084 0.73073 0.0
Tb84 Tb 0.67091 0.78837 0.07331 0.0
C85 C 0.98275 0.53118 0.94826 0.0
C86 C 0.14697 0.58018 0.99231 0.0
C87 C 0.12573 0.44503 0.93964 0.0
C88 C 0.04253 0.59149 0.98123 0.0
C89 C 0.02323 0.45688 0.9272 0.0
C90 C 0.18841 0.50684 0.97069 0.0
C91 C 0.85657 0.41193 0.88573 0.0
N92 N 0.88273 0.54461 0.93969 0.0
C93 C 0.82222 0.48646 0.90501 0.0
C94 C 0.95703 0.39669 0.89746 0.0
Tb95 Tb 0.83185 0.66861 0.97089 0.0
N96 N -0.0026 0.66077 0.00373 0.0
C97 C 0.05673 0.72171 0.03656 0.0
C98 C 0.20594 0.64245 0.02596 0.0
C99 C 0.16012 0.71361 0.04802 0.0
H100 H 0.74599 0.49726 0.89323 0.0
H101 H 0.2044 0.76323 0.07361 0.0
H102 H 0.26776 0.4974 0.97917 0.0
H103 H 0.80238 0.36683 0.86556 0.0
H104 H 0.02784 0.77816 0.05441 0.0
H105 H 0.32812 0.68482 0.93755 0.0
H106 H 0.28642 0.63622 0.03521 0.0
H107 H 0.7354 0.96215 0.15845 0.0
H108 H 0.49933 0.67371 0.96895 0.0
H109 H 0.65747 0.08892 0.19451 0.0
H110 H 0.15671 0.38852 0.92646 0.0
H111 H 0.23 0.80377 0.98139 0.0
H112 H 0.22373 0.93606 0.05091 0.0
H113 H 0.98022 0.33862 0.88613 0.0
H114 H 0.31579 0.04837 0.11671 0.0
N115 N 0.50956 0.78783 0.03169 0.0
C116 C 0.46228 0.7275 0.98968 0.0
C117 C 0.3073 0.79958 0.99615 0.0
C118 C 0.35292 0.86057 0.03938 0.0
C119 C 0.36258 0.73286 0.97109 0.0
C120 C 0.45504 0.85314 0.05635 0.0
H121 H 0.48093 0.10463 0.16167 0.0
N122 N 0.60588 0.9084 0.1072 0.0
C123 C 0.61363 0.04089 0.16658 0.0
C124 C 0.50542 0.91558 0.09481 0.0
C125 C 0.65887 0.96932 0.14477 0.0
C126 C 0.51346 0.04953 0.15017 0.0
C127 C 0.45626 -0.01336 0.11636 0.0
O128 O 0.61369 0.84282 0.1546 0.0
O129 O 0.79604 0.70871 0.05693 0.0
O130 O 0.71902 0.59094 0.98692 0.0
O131 O 0.59579 0.67516 0.04139 0.0
O132 O 0.81282 0.81382 0.1209 0.0
O133 O 0.64592 0.72557 0.11987 0.0
O134 O 0.80713 0.62227 0.88571 0.0
O135 O 0.71897 0.75931 0.9885 0.0
O136 O 0.79528 0.86829 0.06602 0.0
O137 O 0.90037 0.78384 -0.00163 0.0
O138 O 0.68881 0.65876 0.92557 0.0
O139 O 0.93831 0.69554 0.92268 0.0
C140 C 0.85354 0.74703 0.09823 0.0
C141 C 0.51109 0.76264 0.18057 0.0
C142 C 0.41721 0.71282 0.23749 0.0
C143 C 0.50868 0.7425 0.22585 0.0
C144 C 0.32922 0.70689 0.20482 0.0
C145 C 0.42135 0.75581 0.1488 0.0
C146 C 0.33076 0.72888 0.16155 0.0
C147 C 0.62604 0.60476 0.0106 0.0
C148 C 0.60913 0.78066 0.16193 0.0
C149 C 0.354 -0.00626 0.10095 0.0
C150 C 0.30183 0.93029 0.06333 0.0
C151 C 0.66321 0.72936 0.94486 0.0
C152 C 0.9422 0.61841 0.82742 0.0
C153 C 0.96348 0.66079 0.79718 0.0
C154 C 0.00937 0.6266 0.74611 0.0
C155 C 0.0377 0.54936 0.72623 0.0
C156 C 0.96745 0.54096 0.80703 0.0
C157 C 0.01563 0.50659 0.75634 0.0
C158 C 0.8805 0.85411 0.03442 0.0
C159 C 0.88626 0.65723 0.87774 0.0
H160 H 0.57726 0.74891 0.25122 0.0
H161 H 0.25639 0.69235 0.2161 0.0
H162 H 0.42145 0.77 0.1137 0.0
H163 H 0.2604 0.72599 0.13896 0.0
H164 H 0.94554 0.72107 0.81377 0.0
H165 H 0.08087 0.523 0.68882 0.0
H166 H 0.95055 0.50738 0.82995 0.0
H167 H 0.03749 0.44727 0.74083 0.0
Tb168 Tb 0.13929 0.65182 0.47724 0.0
C169 C 0.50041 0.88255 0.53539 0.0
C170 C 0.63808 0.80528 0.47953 0.0
C171 C 0.65296 0.94199 0.51813 0.0
C172 C 0.54087 0.8121 0.5048 0.0
C173 C 0.55562 0.94826 0.54196 0.0
C174 C 0.69403 0.87067 0.48666 0.0
C175 C 0.41714 0.02282 0.59752 0.0
N176 N 0.40821 0.88693 0.56001 0.0
C177 C 0.36896 0.95634 0.59338 0.0
C178 C 0.51073 0.01843 0.57182 0.0
Tb179 Tb 0.34181 0.77565 0.55704 0.0
N180 N 0.48716 0.75039 0.50173 0.0
C181 C 0.53114 0.67971 0.47527 0.0
C182 C 0.67813 0.73313 0.44949 0.0
C183 C 0.62423 0.66999 0.44746 0.0
H184 H 0.30015 0.96056 0.61685 0.0
H185 H 0.65557 0.61356 0.42563 0.0
H186 H 0.76918 0.86673 0.46829 0.0
H187 H 0.38218 0.07733 0.6198 0.0
H188 H 0.49539 0.62875 0.47345 0.0
H189 H 0.80865 0.81763 0.58552 0.0
H190 H 0.75197 0.72568 0.42931 0.0
H191 H 0.18212 0.4643 0.42579 0.0
H192 H 0.98682 0.80029 0.55871 0.0
H193 H 0.08331 0.34889 0.40849 0.0
H194 H 0.69691 -0.00825 0.52337 0.0
H195 H 0.69697 0.70696 0.5693 0.0
H196 H 0.67392 0.56639 0.52627 0.0
H197 H 0.54546 0.0694 0.5731 0.0
H198 H 0.74801 0.43967 0.47556 0.0
N199 N 0.98409 0.67847 0.52405 0.0
C200 C 0.94235 0.74981 0.54931 0.0
C201 C 0.77689 0.69834 0.55666 0.0
C202 C 0.81742 0.62559 0.52963 0.0
C203 C 0.83943 0.76069 0.5658 0.0
C204 C 0.92237 0.61743 0.51396 0.0
H205 H 0.90469 0.35988 0.4419 0.0
N206 N 0.06397 0.54077 0.47159 0.0
C207 C 0.04878 0.40415 0.43049 0.0
C208 C 0.96352 0.54631 0.48627 0.0
C209 C 0.10602 0.47017 0.44249 0.0
C210 C 0.94667 0.41008 0.44692 0.0
C211 C 0.90157 0.48123 0.47321 0.0
O212 O 0.09835 0.57196 0.39883 0.0
O213 O 0.2771 0.71304 0.47562 0.0
O214 O 0.2266 0.85199 0.5398 0.0
O215 O 0.097 0.7687 0.48759 0.0
O216 O 0.26346 0.60535 0.41891 0.0
O217 O 0.05632 0.68891 0.42385 0.0
O218 O 0.37667 0.8463 0.64072 0.0
O219 O 0.20563 0.71077 0.55926 0.0
O220 O 0.24605 0.57802 0.50125 0.0
O221 O 0.38474 0.65825 0.54406 0.0
O222 O 0.22017 0.8171 0.61848 0.0
O223 O 0.46297 0.74334 0.59605 0.0
C224 C 0.32022 0.66462 0.43313 0.0
C225 C 0.09614 0.61848 0.33002 0.0
C226 C 0.06272 0.64393 0.24931 0.0
C227 C 0.03962 0.65627 0.30346 0.0
C228 C 0.14189 0.59359 0.22192 0.0
C229 C 0.17775 0.56987 0.30223 0.0
C230 C 0.20175 0.55918 0.24894 0.0
C231 C 0.13592 0.83846 0.51247 0.0
C232 C 0.06056 0.62236 0.38324 0.0
C233 C 0.79693 0.48901 0.48712 0.0
C234 C 0.75497 0.56104 0.51579 0.0
C235 C 0.16274 0.75745 0.60278 0.0
C236 C 0.53811 0.82802 0.68017 0.0
C237 C 0.53931 0.81122 0.72669 0.0
C238 C 0.62972 0.81965 0.75805 0.0
C239 C 0.71777 0.85077 0.74449 0.0
C240 C 0.62595 0.85876 0.66688 0.0
C241 C 0.71507 0.87141 0.69977 0.0
C242 C 0.34175 0.58993 0.52277 0.0
C243 C 0.44969 0.8009 0.64269 0.0
H244 H 0.97487 0.69217 0.3237 0.0
H245 H 0.1599 0.5829 0.18006 0.0
H246 H 0.22105 0.53772 0.32047 0.0
H247 H 0.2655 0.52294 0.22807 0.0
H248 H 0.47089 0.78888 0.7377 0.0
H249 H 0.78814 0.85973 0.76887 0.0
H250 H 0.62623 0.87131 0.63077 0.0
H251 H 0.78285 0.89585 0.68996 0.0
Tb252 Tb 0.65767 0.15837 0.4661 0.0
C253 C 0.02266 0.38981 0.5493 0.0
C254 C 0.1676 0.31362 0.50107 0.0
C255 C 0.18775 0.4494 0.55083 0.0
C256 C 0.06367 0.31985 0.51792 0.0
C257 C 0.08346 0.45585 0.56451 0.0
C258 C 0.23017 0.37845 0.51929 0.0
C259 C 0.93384 0.52987 0.60611 0.0
N260 N 0.9221 0.39349 0.56318 0.0
C261 C 0.87919 0.46279 0.59376 0.0
C262 C 0.03714 0.52655 0.59183 0.0
Tb263 Tb 0.84764 0.28024 0.552 0.0
N264 N 0.00107 0.25839 0.50295 0.0
C265 C 0.03976 0.18856 0.46898 0.0
C266 C 0.2056 0.24279 0.46626 0.0
C267 C 0.14082 0.18004 0.44973 0.0
H268 H 0.80415 0.467 0.61066 0.0
H269 H 0.16909 0.12449 0.42283 0.0
H270 H 0.31068 0.37416 0.50857 0.0
H271 H 0.89604 0.58361 0.62738 0.0
H272 H 0.99458 0.13766 0.45551 0.0
H273 H 0.32972 0.29302 0.59835 0.0
H274 H 0.28456 0.23595 0.45202 0.0
H275 H 0.71346 -0.01669 0.39043 0.0
H276 H 0.49863 0.29196 0.56244 0.0
H277 H 0.6238 0.86006 0.35631 0.0
H278 H 0.23472 0.49937 0.56346 0.0
H279 H 0.227 0.17521 0.56716 0.0
H280 H 0.20803 0.04061 0.50114 0.0
H281 H 0.08033 0.57843 0.60169 0.0
H282 H 0.28093 0.93041 0.43061 0.0
N283 N 0.50806 0.17085 0.51633 0.0
C284 C 0.46192 0.23794 0.55028 0.0
C285 C 0.30562 0.1734 0.55322 0.0
C286 C 0.34848 0.10635 0.51549 0.0
C287 C 0.36307 0.23967 0.5708 0.0
C288 C 0.45198 0.10613 0.49908 0.0
H289 H 0.45055 0.85447 0.38685 0.0
N290 N 0.59625 0.04166 0.44734 0.0
C291 C 0.58787 0.9104 0.38636 0.0
C292 C 0.497 0.03985 0.46255 0.0
C293 C 0.63988 -0.02074 0.40741 0.0
C294 C 0.48743 0.90771 0.40287 0.0
C295 C 0.43835 -0.0268 0.43942 0.0
O296 O 0.64776 0.11395 0.37852 0.0
O297 O 0.78434 0.23371 0.46873 0.0
O298 O 0.73651 0.35755 0.53237 0.0
O299 O 0.60135 0.27502 0.49148 0.0
O300 O 0.78352 0.12656 0.40798 0.0
O301 O 0.51896 0.17408 0.42854 0.0
O302 O 0.87025 0.35309 0.63519 0.0
O303 O 0.71765 0.2076 0.55034 0.0
O304 O 0.76826 0.07864 0.48314 0.0
O305 O 0.89967 0.16189 0.53276 0.0
O306 O 0.72206 0.31446 0.61043 0.0
O307 O 0.95441 0.24869 0.5996 0.0
C308 C 0.82987 0.19109 0.42441 0.0
C309 C 0.49634 0.13147 0.32899 0.0
C310 C 0.42687 0.18195 0.26369 0.0
C311 C 0.49806 0.18645 0.30594 0.0
C312 C 0.3538 0.12251 0.24617 0.0
C313 C 0.4256 0.07131 0.3083 0.0
C314 C 0.35491 0.06695 0.26717 0.0
C315 C 0.63887 0.3445 0.51293 0.0
C316 C 0.55575 0.14133 0.37951 0.0
C317 C 0.33282 -0.02433 0.45218 0.0
C318 C 0.28909 0.04073 0.49146 0.0
C319 C 0.67295 0.2513 0.59476 0.0
C320 C 0.90168 0.28706 0.69195 0.0
C321 C 0.96932 0.24488 0.71071 0.0
C322 C 0.9429 0.22916 0.75624 0.0
C323 C 0.84312 0.2467 0.77751 0.0
C324 C 0.8076 0.31236 0.71913 0.0
C325 C 0.77642 0.28876 0.75939 0.0
C326 C 0.86305 0.09155 0.50683 0.0
C327 C 0.92991 0.3055 0.64502 0.0
H328 H 0.55109 0.23381 0.32212 0.0
H329 H 0.29618 0.11844 0.21518 0.0
H330 H 0.42244 0.02911 0.3255 0.0
H331 H 0.29905 0.0211 0.25224 0.0
H332 H 0.04452 0.22829 0.69219 0.0
H333 H 0.81941 0.23265 0.81112 0.0
H334 H 0.75675 0.34965 0.70913 0.0
H335 H 0.70199 0.30608 0.77846 0.0
C336 C 0.52422 0.47893 0.95711 0.0
C337 C 0.55265 0.53946 0.00719 0.0
C338 C 0.43242 0.48352 0.05388 0.0
C339 C 0.41371 0.4168 0.00458 0.0
N340 N 0.47662 0.34775 0.91123 0.0
N341 N 0.54552 0.59147 0.10354 0.0
C342 C 0.46965 0.41363 0.95689 0.0
C343 C 0.50792 0.53952 0.05536 0.0
N344 N 0.54428 0.48474 0.90887 0.0
N345 N 0.38083 0.49358 0.10046 0.0
H346 H 0.52885 0.59197 0.14172 0.0
H347 H 0.52885 0.59197 0.14172 0.0
H348 H 0.34153 0.45024 0.10524 0.0
H349 H 0.37446 0.54597 0.13376 0.0
H350 H 0.51628 0.44604 0.87092 0.0
H351 H 0.57764 0.53323 0.90779 0.0
H352 H 0.52503 0.34107 0.87864 0.0
H353 H 0.44554 0.29747 0.90842 0.0
C354 C 0.43274 0.46201 0.47022 0.0
C355 C 0.41069 0.52357 0.52036 0.0
C356 C 0.54573 0.47344 0.56454 0.0
C357 C 0.56324 0.40829 0.51474 0.0
N358 N 0.48003 0.33311 0.4259 0.0
N359 N 0.4188 0.5645 0.61779 0.0
C360 C 0.49502 0.40058 0.46933 0.0
C361 C 0.46162 0.5241 0.56822 0.0
N362 N 0.39363 0.4598 0.42194 0.0
N363 N 0.60253 0.48437 0.61042 0.0
H364 H 0.34355 0.58339 0.61908 0.0
H365 H 0.44626 0.56474 0.65482 0.0
H366 H 0.64777 0.44203 0.61383 0.0
H367 H 0.60456 0.53612 0.64463 0.0
H368 H 0.41957 0.42189 0.3836 0.0
H369 H 0.34086 0.4987 0.41998 0.0
H370 H 0.41715 0.32212 0.39877 0.0
H371 H 0.52308 0.2862 0.4188 0.0
C372 C 0.06756 0.96655 0.97748 0.0
C373 C 0.09756 0.03156 0.02483 0.0
C374 C 0.98686 -0.0175 0.08026 0.0
C375 C 0.95264 0.91826 0.03211 0.0
N376 N 0.95034 0.86216 0.93192 0.0
N377 N 0.10455 0.09068 0.12305 0.0
C378 C 0.99172 0.9135 0.98021 0.0
C379 C 0.06066 0.03706 0.07658 0.0
N380 N 0.11377 0.95379 0.92888 0.0
N381 N 0.94867 -0.0076 0.13014 0.0
H382 H 0.16246 0.12734 0.12172 0.0
H383 H 0.09333 0.09347 0.16237 0.0
H384 H 0.90589 0.95113 0.13621 0.0
H385 H 0.95567 0.0427 0.16526 0.0
H386 H 0.1113 0.90194 0.89477 0.0
H387 H 0.16227 -0.00665 0.92419 0.0
H388 H 0.96268 0.86371 0.89387 0.0
H389 H 0.89373 0.82303 0.92894 0.0
C390 C 0.95848 0.96195 0.4587 0.0
C391 C 0.93266 0.02575 0.50807 0.0
C392 C 0.04435 0.96864 0.5597 0.0
C393 C 0.069 0.90457 0.51062 0.0
N394 N 0.0551 0.84435 0.41196 0.0
N395 N 0.94886 0.08449 0.60715 0.0
C396 C 0.02603 0.9021 0.4599 0.0
C397 C 0.97666 0.02785 0.55861 0.0
N398 N 0.92103 0.95996 0.40992 0.0
N399 N 0.08612 -0.02626 0.6085 0.0
H400 H 0.91062 0.13297 0.61 0.0
H401 H 0.95837 0.08205 0.6452 0.0
H402 H 0.11934 0.92788 0.61368 0.0
H403 H 0.09124 0.024 0.64378 0.0
H404 H 0.92425 0.91349 0.37232 0.0
H405 H 0.88529 0.00644 0.40674 0.0
H406 H 0.02986 0.83708 0.37306 0.0
H407 H 0.1096 0.80385 0.41024 0.0
C408 C 0.49534 0.24775 0.20306 0.0
C409 C 0.41906 0.23909 0.23802 0.0
C410 C 0.29856 0.306 0.20099 0.0
C411 C 0.35997 0.28331 0.15252 0.0
N412 N 0.53716 0.31274 0.1466 0.0
N413 N 0.2637 0.29199 0.2862 0.0
C414 C 0.46556 0.27622 0.16336 0.0
C415 C 0.32495 0.27832 0.24193 0.0
N416 N 0.59618 0.23163 0.20831 0.0
N417 N 0.23088 0.36473 0.21381 0.0
H418 H 0.28607 0.27694 0.31827 0.0
H419 H 0.19133 0.31745 0.29096 0.0
H420 H 0.21776 0.39487 0.18984 0.0
H421 H 0.1999 0.39205 0.2528 0.0
H422 H 0.65287 0.23692 0.1826 0.0
H423 H 0.62189 0.21438 0.23859 0.0
H424 H 0.5167 0.34841 0.12721 0.0
H425 H 0.5167 0.34841 0.12721 0.0
C426 C 0.33672 0.75 0.32867 0.0
C427 C 0.40432 0.70103 0.28892 0.0
C428 C 0.4271 0.62725 0.34515 0.0
C429 C 0.36675 0.68143 0.38752 0.0
N430 N 0.30209 0.80784 0.42227 0.0
N431 N 0.52958 0.59966 0.2638 0.0
C432 C 0.3293 0.74454 0.37937 0.0
C433 C 0.45439 0.64144 0.29835 0.0
N434 N 0.293 0.81109 0.32274 0.0
N435 N 0.45773 0.56196 0.34907 0.0
H436 H 0.55305 0.60963 0.23026 0.0
H437 H 0.5756 0.56041 0.27144 0.0
H438 H 0.44975 0.55424 0.38502 0.0
H439 H 0.48789 0.51539 0.31641 0.0
H440 H 0.23845 0.84533 0.35008 0.0
H441 H 0.31161 0.82883 0.29188 0.0
H442 H 0.33105 0.82094 0.4615 0.0
H443 H 0.33105 0.82094 0.4615 0.0
C444 C 0.59499 0.70974 0.84922 0.0
C445 C 0.64136 0.76023 0.90036 0.0
C446 C 0.65754 0.85405 0.85849 0.0
C447 C 0.63039 0.79886 0.80643 0.0
N448 N 0.59353 0.66704 0.75018 0.0
N449 N 0.72513 0.88407 0.94585 0.0
C450 C 0.60447 0.72467 0.80113 0.0
C451 C 0.67606 0.83216 0.90226 0.0
N452 N 0.53917 0.64807 0.84611 0.0
N453 N 0.66544 0.92904 0.86723 0.0
H454 H 0.73497 0.87759 0.98199 0.0
H455 H 0.73497 0.87759 0.98199 0.0
H456 H 0.64427 0.94947 0.83781 0.0
H457 H 0.68527 -0.02821 0.9054 0.0
H458 H 0.49672 0.61421 0.81119 0.0
H459 H 0.52449 0.63587 0.87986 0.0
H460 H 0.58558 0.61034 0.74416 0.0
H461 H 0.60381 0.67469 0.714 0.0
C462 C 0.64349 0.1688 0.65111 0.0
C463 C 0.61593 0.2323 0.63852 0.0
C464 C 0.49543 0.27131 0.71816 0.0
C465 C 0.51694 0.20315 0.72455 0.0
N466 N 0.61935 0.08945 0.70024 0.0
N467 N 0.52779 0.35433 0.67175 0.0
C468 C 0.59466 0.15414 0.69297 0.0
C469 C 0.5457 0.28688 0.67592 0.0
N470 N 0.71383 0.11701 0.62214 0.0
N471 N 0.42653 0.3211 0.75318 0.0
H472 H 0.56004 0.3685 0.64195 0.0
H473 H 0.48193 0.39807 0.69786 0.0
H474 H 0.39539 0.31273 0.78619 0.0
H475 H 0.3997 0.3706 0.75083 0.0
H476 H 0.74525 0.1156 0.58652 0.0
H477 H 0.74525 0.1156 0.58652 0.0
H478 H 0.67558 0.05094 0.67745 0.0
H479 H 0.58401 0.0731 0.72855 0.0
C480 C 0.86445 0.65723 0.1486 0.0
C481 C 0.90625 0.71809 0.13695 0.0
C482 C 0.02732 0.74504 0.21511 0.0
C483 C -0.00233 0.67678 0.21839 0.0
N484 N 0.88578 0.56857 0.19142 0.0
N485 N 0.02565 0.82499 0.16524 0.0
C486 C 0.91424 0.63419 0.18693 0.0
C487 C 0.98706 0.76355 0.17219 0.0
N488 N 0.77725 0.61975 0.12327 0.0
N489 N 0.08934 0.79437 0.2555 0.0
H490 H 0.9929 0.84711 0.13911 0.0
H491 H 0.09426 0.85227 0.18345 0.0
H492 H 0.11212 0.7827 0.28879 0.0
H493 H 0.10762 0.84908 0.25973 0.0
H494 H 0.73244 0.58847 0.13882 0.0
H495 H 0.75396 0.61561 0.08517 0.0
H496 H 0.83907 0.52686 0.16275 0.0
H497 H 0.91304 0.55389 0.22278 0.0
C498 C 0.80156 0.26477 0.36387 0.0
C499 C 0.8635 0.2148 0.3791 0.0
C500 C 0.98838 0.21027 0.30871 0.0
C501 C 0.9305 0.26637 0.29873 0.0
N502 N 0.76387 0.32264 0.30023 0.0
N503 N 0.98662 0.11199 0.34341 0.0
C504 C 0.83136 0.28594 0.32126 0.0
C505 C 0.94858 0.17897 0.34484 0.0
N506 N 0.71298 0.29244 0.39038 0.0
N507 N 0.08126 0.18678 0.28415 0.0
H508 H 0.95451 0.08403 0.3656 0.0
H509 H 0.04187 0.07976 0.31552 0.0
H510 H 0.10728 0.20143 0.25303 0.0
H511 H 0.13345 0.15471 0.29601 0.0
H512 H 0.67541 0.34074 0.39105 0.0
H513 H 0.67748 0.26306 0.40971 0.0
H514 H 0.68738 0.33469 0.31225 0.0
H515 H 0.7809 0.33415 0.26621 0.0
C516 C 0.10431 0.24833 0.81462 0.0
C517 C 0.01958 0.2014 0.78637 0.0
C518 C 0.05124 0.12097 0.83717 0.0
C519 C 0.12291 0.17596 0.87252 0.0
N520 N 0.25294 0.26468 0.87319 0.0
N521 N 0.91901 0.08796 0.76533 0.0
C522 C 0.15936 0.23203 0.85505 0.0
C523 C -0.00344 0.13534 0.79541 0.0
N524 N 0.12753 0.31251 0.8067 0.0
N525 N 0.03876 0.05336 0.84166 0.0
H526 H 0.88373 0.09335 0.73162 0.0
H527 H 0.88651 0.0455 0.77481 0.0
H528 H 0.07556 0.04081 0.87176 0.0
H529 H -0.002 0.00729 0.81333 0.0
H530 H 0.18232 0.35258 0.82969 0.0
H531 H 0.08702 0.33105 0.78058 0.0
H532 H 0.29119 0.29848 0.85732 0.0
H533 H 0.29877 0.24775 0.89801 0.0
C534 C 0.19282 0.70942 0.67826 0.0
C535 C 0.12368 0.73579 0.64763 0.0
C536 C 0.98035 0.71589 0.69819 0.0
C537 C 0.04714 0.67512 0.71932 0.0
N538 N 0.21871 0.6673 0.75239 0.0
N539 N 0.97163 0.81602 0.66826 0.0
C540 C 0.15462 0.68399 0.71736 0.0
C541 C 0.0231 0.75488 0.66889 0.0
N542 N 0.29505 0.70974 0.67021 0.0
N543 N 0.87649 0.71977 0.70563 0.0
H544 H 0.00463 0.8544 0.65453 0.0
H545 H 0.00463 0.8544 0.65453 0.0
H546 H 0.83734 0.6916 0.72583 0.0
H547 H 0.83734 0.6916 0.72583 0.0
H548 H 0.35256 0.69944 0.6938 0.0
H549 H 0.3192 0.70732 0.63325 0.0
H550 H 0.29859 0.67311 0.75453 0.0
H551 H 0.1908 0.65241 0.78322 0.0
loop_
_geom_bond_atom_site_label_1
_geom_bond_atom_site_label_2
_geom_bond_distance
_geom_bond_site_symmetry_2
_ccdc_geom_bond_type
Tb0 N31 2.660 1_455 S
Tb0 N38 2.600 . S
Tb0 O44 2.546 . S
Tb0 O45 2.610 . S
Tb0 O47 2.320 . S
Tb0 O48 2.552 . S
Tb0 O49 2.413 . S
Tb0 O51 2.362 1_554 S
Tb0 O52 2.421 . S
Tb0 C64 2.833 . S
C1 C4 1.432 . S
C1 C5 1.414 1_545 S
C1 N8 1.359 . S
C2 C4 1.417 1_554 S
C2 C6 1.432 . S
C2 C14 1.410 . S
C3 C5 1.444 . S
C3 C6 1.317 1_566 S
C3 H26 0.929 . S
C4 C1 1.432 . S
C4 C2 1.417 1_556 S
C4 N12 1.360 1_556 S
C5 C1 1.414 1_565 S
C5 C3 1.444 . S
C5 C10 1.385 . S
C6 C2 1.432 . S
C6 C3 1.317 1_544 S
C6 H18 0.930 . S
C7 C9 1.392 . S
C7 C10 1.370 . S
C7 H19 0.931 . S
N8 C1 1.359 . S
N8 C9 1.327 1_545 S
N8 Tb11 2.600 . S
C9 C7 1.392 . S
C9 N8 1.327 1_565 S
C9 H16 0.930 . S
C10 C5 1.385 . S
C10 C7 1.370 . S
C10 H29 0.930 . S
Tb11 N8 2.600 . S
Tb11 N12 2.660 1_556 S
Tb11 O45 2.362 1_556 S
Tb11 O46 2.421 . S
Tb11 O50 2.546 . S
Tb11 O51 2.610 . S
Tb11 O53 2.320 . S
Tb11 O54 2.552 . S
Tb11 O55 2.413 . S
Tb11 C75 2.833 . S
N12 C4 1.360 1_554 S
N12 Tb11 2.660 1_554 S
N12 C13 1.305 . S
C13 N12 1.305 . S
C13 C15 1.407 . S
C13 H20 0.930 . S
C14 C2 1.410 . S
C14 C15 1.345 . S
C14 H22 0.930 . S
C15 C13 1.407 . S
C15 C14 1.345 . S
C15 H17 0.930 . S
H16 C9 0.930 . S
H17 C15 0.930 . S
H18 C6 0.930 . S
H19 C7 0.931 . S
H20 C13 0.930 . S
H21 C35 0.930 . S
H22 C14 0.930 . S
H23 C41 0.930 . S
H24 C32 0.930 . S
H25 C39 0.931 . S
H26 C3 0.929 . S
H27 C33 0.930 . S
H28 C66 0.939 . S
H29 C10 0.930 . S
H30 C65 0.929 . S
N31 Tb0 2.660 1_655 S
N31 C32 1.305 1_554 S
N31 C36 1.360 . S
C32 H24 0.930 . S
C32 N31 1.305 1_556 S
C32 C35 1.407 . S
C33 H27 0.930 . S
C33 C34 1.410 1_556 S
C33 C35 1.345 . S
C34 C33 1.410 1_554 S
C34 C36 1.417 . S
C34 C66 1.432 . S
C35 H21 0.930 . S
C35 C32 1.407 . S
C35 C33 1.345 . S
C36 N31 1.360 . S
C36 C34 1.417 . S
C36 C40 1.432 . S
H37 C42 0.930 . S
N38 Tb0 2.600 . S
N38 C40 1.359 1_455 S
N38 C41 1.327 . S
C39 H25 0.931 . S
C39 C41 1.392 . S
C39 C42 1.370 1_455 S
C40 C36 1.432 . S
C40 N38 1.359 1_655 S
C40 C43 1.414 . S
C41 H23 0.930 . S
C41 N38 1.327 . S
C41 C39 1.392 . S
C42 H37 0.930 . S
C42 C39 1.370 1_655 S
C42 C43 1.385 . S
C43 C40 1.414 . S
C43 C42 1.385 . S
C43 C65 1.444 . S
O44 Tb0 2.546 . S
O44 C64 1.251 . S
O45 Tb0 2.610 . S
O45 Tb11 2.362 1_554 S
O45 C56 1.283 . S
O46 Tb11 2.421 . S
O46 C63 1.274 . S
O47 Tb0 2.320 . S
O47 C63 1.258 1_554 S
O48 Tb0 2.552 . S
O48 C56 1.243 . S
O49 Tb0 2.413 . S
O49 C64 1.256 . S
O50 Tb11 2.546 . S
O50 C75 1.251 . S
O51 Tb0 2.362 1_556 S
O51 Tb11 2.610 . S
O51 C67 1.283 . S
O52 Tb0 2.421 . S
O52 C74 1.262 . S
O53 Tb11 2.320 . S
O53 C74 1.260 1_556 S
O54 Tb11 2.552 . S
O54 C67 1.243 . S
O55 Tb11 2.413 . S
O55 C75 1.256 . S
C56 O45 1.283 . S
C56 O48 1.243 . S
C57 C59 1.382 1_455 S
C57 C61 1.393 1_455 S
C57 C64 1.500 . S
C58 C59 1.400 . S
C58 C60 1.384 . S
C59 C57 1.382 1_655 S
C59 C58 1.400 . S
C59 H76 0.930 . S
C60 C58 1.384 . S
C60 C62 1.392 . S
C60 H77 0.931 . S
C61 C57 1.393 1_655 S
C61 C62 1.401 . S
C61 H78 0.930 1_655 S
C62 C60 1.392 . S
C62 C61 1.401 . S
C62 H79 0.930 . S
C63 O46 1.274 . S
C63 O47 1.258 1_556 S
C64 Tb0 2.833 . S
C64 O44 1.251 . S
C64 O49 1.256 . S
C64 C57 1.500 . S
C65 H30 0.929 . S
C65 C43 1.444 . S
C65 C66 1.317 . S
C66 H28 0.939 . S
C66 C34 1.432 . S
C66 C65 1.317 . S
C67 O51 1.283 . S
C67 O54 1.243 . S
C68 C69 1.382 . S
C68 C72 1.393 1_545 S
C68 C75 1.500 . S
C69 C68 1.382 . S
C69 C70 1.400 . S
C69 H80 0.930 . S
C70 C69 1.400 . S
C70 C71 1.384 . S
C71 C70 1.384 . S
C71 C73 1.392 1_545 S
C71 H81 0.931 . S
C72 C68 1.393 1_565 S
C72 C73 1.401 . S
C72 H82 0.930 . S
C73 C71 1.392 1_565 S
C73 C72 1.401 . S
C73 H83 0.930 . S
C74 O52 1.262 . S
C74 O53 1.260 1_554 S
C75 Tb11 2.833 . S
C75 O50 1.251 . S
C75 O55 1.256 . S
C75 C68 1.500 . S
H76 C59 0.930 . S
H77 C60 0.931 . S
H78 C61 0.930 1_455 S
H79 C62 0.930 . S
H80 C69 0.930 . S
H81 C71 0.931 . S
H82 C72 0.930 . S
H83 C73 0.930 . S
Tb84 N115 2.660 . S
Tb84 N122 2.600 . S
Tb84 O128 2.546 . S
Tb84 O129 2.610 . S
Tb84 O131 2.320 . S
Tb84 O132 2.552 . S
Tb84 O133 2.413 . S
Tb84 O135 2.362 1_554 S
Tb84 O136 2.421 . S
Tb84 C148 2.833 . S
C85 C88 1.432 . S
C85 C89 1.414 . S
C85 N92 1.359 1_455 S
C86 C88 1.417 1_554 S
C86 C90 1.432 . S
C86 C98 1.410 . S
C87 C89 1.444 . S
C87 C90 1.317 1_556 S
C87 H110 0.929 . S
C88 C85 1.432 . S
C88 C86 1.417 1_556 S
C88 N96 1.360 1_556 S
C89 C85 1.414 . S
C89 C87 1.444 . S
C89 C94 1.385 . S
C90 C86 1.432 . S
C90 C87 1.317 1_554 S
C90 H102 0.930 . S
C91 C93 1.392 . S
C91 C94 1.370 1_655 S
C91 H103 0.931 . S
N92 C85 1.359 1_655 S
N92 C93 1.327 . S
N92 Tb95 2.600 . S
C93 C91 1.392 . S
C93 N92 1.327 . S
C93 H100 0.930 . S
C94 C89 1.385 . S
C94 C91 1.370 1_455 S
C94 H113 0.930 . S
Tb95 N92 2.600 . S
Tb95 N96 2.660 1_656 S
Tb95 O129 2.362 1_556 S
Tb95 O130 2.421 . S
Tb95 O134 2.546 . S
Tb95 O135 2.610 . S
Tb95 O137 2.320 . S
Tb95 O138 2.552 . S
Tb95 O139 2.413 . S
Tb95 C159 2.833 . S
N96 C88 1.360 1_554 S
N96 Tb95 2.660 1_454 S
N96 C97 1.305 . S
C97 N96 1.305 . S
C97 C99 1.407 . S
C97 H104 0.930 . S
C98 C86 1.410 . S
C98 C99 1.345 . S
C98 H106 0.930 . S
C99 C97 1.407 . S
C99 C98 1.345 . S
C99 H101 0.930 . S
H100 C93 0.930 . S
H101 C99 0.930 . S
H102 C90 0.930 . S
H103 C91 0.931 . S
H104 C97 0.930 . S
H105 C119 0.930 . S
H106 C98 0.930 . S
H107 C125 0.930 . S
H108 C116 0.930 . S
H109 C123 0.931 . S
H110 C87 0.929 . S
H111 C117 0.930 . S
H112 C150 0.939 . S
H113 C94 0.930 . S
H114 C149 0.929 . S
N115 Tb84 2.660 . S
N115 C116 1.305 1_554 S
N115 C120 1.360 . S
C116 H108 0.930 . S
C116 N115 1.305 1_556 S
C116 C119 1.407 . S
C117 H111 0.930 . S
C117 C118 1.410 1_556 S
C117 C119 1.345 . S
C118 C117 1.410 1_554 S
C118 C120 1.417 . S
C118 C150 1.432 . S
C119 H105 0.930 . S
C119 C116 1.407 . S
C119 C117 1.345 . S
C120 N115 1.360 . S
C120 C118 1.417 . S
C120 C124 1.432 . S
H121 C126 0.930 . S
N122 Tb84 2.600 . S
N122 C124 1.359 . S
N122 C125 1.327 1_565 S
C123 H109 0.931 . S
C123 C125 1.392 . S
C123 C126 1.370 . S
C124 C120 1.432 . S
C124 N122 1.359 . S
C124 C127 1.414 1_565 S
C125 H107 0.930 . S
C125 N122 1.327 1_545 S
C125 C123 1.392 . S
C126 H121 0.930 . S
C126 C123 1.370 . S
C126 C127 1.385 . S
C127 C124 1.414 1_545 S
C127 C126 1.385 . S
C127 C149 1.444 . S
O128 Tb84 2.546 . S
O128 C148 1.251 . S
O129 Tb84 2.610 . S
O129 Tb95 2.362 1_554 S
O129 C140 1.283 . S
O130 Tb95 2.421 . S
O130 C147 1.274 . S
O131 Tb84 2.320 . S
O131 C147 1.258 1_554 S
O132 Tb84 2.552 . S
O132 C140 1.243 . S
O133 Tb84 2.413 . S
O133 C148 1.256 . S
O134 Tb95 2.546 . S
O134 C159 1.251 . S
O135 Tb84 2.362 1_556 S
O135 Tb95 2.610 . S
O135 C151 1.283 . S
O136 Tb84 2.421 . S
O136 C158 1.262 . S
O137 Tb95 2.320 . S
O137 C158 1.260 1_556 S
O138 Tb95 2.552 . S
O138 C151 1.243 . S
O139 Tb95 2.413 . S
O139 C159 1.256 . S
C140 O129 1.283 . S
C140 O132 1.243 . S
C141 C143 1.382 . S
C141 C145 1.393 1_565 S
C141 C148 1.500 . S
C142 C143 1.400 . S
C142 C144 1.384 . S
C143 C141 1.382 . S
C143 C142 1.400 . S
C143 H160 0.930 . S
C144 C142 1.384 . S
C144 C146 1.392 1_565 S
C144 H161 0.931 . S
C145 C141 1.393 1_545 S
C145 C146 1.401 . S
C145 H162 0.930 . S
C146 C144 1.392 1_545 S
C146 C145 1.401 . S
C146 H163 0.930 . S
C147 O130 1.274 . S
C147 O131 1.258 1_556 S
C148 Tb84 2.833 . S
C148 O128 1.251 . S
C148 O133 1.256 . S
C148 C141 1.500 . S
C149 H114 0.929 . S
C149 C127 1.444 . S
C149 C150 1.317 1_545 S
C150 H112 0.939 . S
C150 C118 1.432 . S
C150 C149 1.317 1_565 S
C151 O135 1.283 . S
C151 O138 1.243 . S
C152 C153 1.382 1_655 S
C152 C156 1.393 1_655 S
C152 C159 1.500 . S
C153 C152 1.382 1_455 S
C153 C154 1.400 . S
C153 H164 0.930 . S
C154 C153 1.400 . S
C154 C155 1.384 . S
C155 C154 1.384 . S
C155 C157 1.392 . S
C155 H165 0.931 . S
C156 C152 1.393 1_455 S
C156 C157 1.401 . S
C156 H166 0.930 1_455 S
C157 C155 1.392 . S
C157 C156 1.401 . S
C157 H167 0.930 . S
C158 O136 1.262 . S
C158 O137 1.260 1_554 S
C159 Tb95 2.833 . S
C159 O134 1.251 . S
C159 O139 1.256 . S
C159 C152 1.500 . S
H160 C143 0.930 . S
H161 C144 0.931 . S
H162 C145 0.930 . S
H163 C146 0.930 . S
H164 C153 0.930 . S
H165 C155 0.931 . S
H166 C156 0.930 1_655 S
H167 C157 0.930 . S
Tb168 N199 2.660 1_455 S
Tb168 N206 2.600 . S
Tb168 O212 2.546 . S
Tb168 O213 2.610 . S
Tb168 O215 2.320 . S
Tb168 O216 2.552 . S
Tb168 O217 2.413 . S
Tb168 O219 2.362 . S
Tb168 O220 2.421 . S
Tb168 C232 2.833 . S
C169 C172 1.432 . S
C169 C173 1.414 1_565 S
C169 N176 1.359 . S
C170 C172 1.417 . S
C170 C174 1.432 . S
C170 C182 1.410 . S
C171 C173 1.444 . S
C171 C174 1.317 1_545 S
C171 H194 0.929 . S
C172 C169 1.432 . S
C172 C170 1.417 . S
C172 N180 1.360 . S
C173 C169 1.414 1_545 S
C173 C171 1.444 . S
C173 C178 1.385 . S
C174 C170 1.432 . S
C174 C171 1.317 1_565 S
C174 H186 0.930 . S
C175 C177 1.392 . S
C175 C178 1.370 . S
C175 H187 0.931 . S
N176 C169 1.359 . S
N176 C177 1.327 1_565 S
N176 Tb179 2.600 . S
C177 C175 1.392 . S
C177 N176 1.327 1_545 S
C177 H184 0.930 . S
C178 C173 1.385 . S
C178 C175 1.370 . S
C178 H197 0.930 . S
Tb179 N176 2.600 . S
Tb179 N180 2.660 . S
Tb179 O213 2.362 . S
Tb179 O214 2.421 . S
Tb179 O218 2.546 . S
Tb179 O219 2.610 . S
Tb179 O221 2.320 . S
Tb179 O222 2.552 . S
Tb179 O223 2.413 . S
Tb179 C243 2.833 . S
N180 C172 1.360 . S
N180 Tb179 2.660 . S
N180 C181 1.305 . S
C181 N180 1.305 . S
C181 C183 1.407 . S
C181 H188 0.930 . S
C182 C170 1.410 . S
C182 C183 1.345 . S
C182 H190 0.930 . S
C183 C181 1.407 . S
C183 C182 1.345 . S
C183 H185 0.930 . S
H184 C177 0.930 . S
H185 C183 0.930 . S
H186 C174 0.930 . S
H187 C175 0.931 . S
H188 C181 0.930 . S
H189 C203 0.930 . S
H190 C182 0.930 . S
H191 C209 0.930 . S
H192 C200 0.930 . S
H193 C207 0.931 . S
H194 C171 0.929 . S
H195 C201 0.930 . S
H196 C234 0.930 . S
H197 C178 0.930 . S
H198 C233 0.929 . S
N199 Tb168 2.660 1_655 S
N199 C200 1.305 . S
N199 C204 1.360 . S
C200 H192 0.930 . S
C200 N199 1.305 . S
C200 C203 1.407 . S
C201 H195 0.930 . S
C201 C202 1.410 . S
C201 C203 1.345 . S
C202 C201 1.410 . S
C202 C204 1.417 . S
C202 C234 1.432 . S
C203 H189 0.930 . S
C203 C200 1.407 . S
C203 C201 1.345 . S
C204 N199 1.360 . S
C204 C202 1.417 . S
C204 C208 1.432 . S
H205 C210 0.930 . S
N206 Tb168 2.600 . S
N206 C208 1.359 1_455 S
N206 C209 1.327 . S
C207 H193 0.931 . S
C207 C209 1.392 . S
C207 C210 1.370 1_455 S
C208 C204 1.432 . S
C208 N206 1.359 1_655 S
C208 C211 1.414 . S
C209 H191 0.930 . S
C209 N206 1.327 . S
C209 C207 1.392 . S
C210 H205 0.930 . S
C210 C207 1.370 1_655 S
C210 C211 1.385 . S
C211 C208 1.414 . S
C211 C210 1.385 . S
C211 C233 1.444 . S
O212 Tb168 2.546 . S
O212 C232 1.251 . S
O213 Tb168 2.610 . S
O213 Tb179 2.362 . S
O213 C224 1.283 . S
O214 Tb179 2.421 . S
O214 C231 1.262 . S
O215 Tb168 2.320 . S
O215 C231 1.260 . S
O216 Tb168 2.552 . S
O216 C224 1.243 . S
O217 Tb168 2.413 . S
O217 C232 1.256 . S
O218 Tb179 2.546 . S
O218 C243 1.251 . S
O219 Tb168 2.362 . S
O219 Tb179 2.610 . S
O219 C235 1.283 . S
O220 Tb168 2.421 . S
O220 C242 1.262 . S
O221 Tb179 2.320 . S
O221 C242 1.260 . S
O222 Tb179 2.552 . S
O222 C235 1.243 . S
O223 Tb179 2.413 . S
O223 C243 1.256 . S
C224 O213 1.283 . S
C224 O216 1.243 . S
C225 C227 1.382 1_455 S
C225 C229 1.393 1_455 S
C225 C232 1.500 . S
C226 C227 1.400 . S
C226 C228 1.384 . S
C227 C225 1.382 1_655 S
C227 C226 1.400 . S
C227 H244 0.930 . S
C228 C226 1.384 . S
C228 C230 1.392 . S
C228 H245 0.931 . S
C229 C225 1.393 1_655 S
C229 C230 1.401 . S
C229 H246 0.930 1_655 S
C230 C228 1.392 . S
C230 C229 1.401 . S
C230 H247 0.930 . S
C231 O214 1.262 . S
C231 O215 1.260 . S
C232 Tb168 2.833 . S
C232 O212 1.251 . S
C232 O217 1.256 . S
C232 C225 1.500 . S
C233 H198 0.929 . S
C233 C211 1.444 . S
C233 C234 1.317 . S
C234 H196 0.930 . S
C234 C202 1.432 . S
C234 C233 1.317 . S
C235 O219 1.283 . S
C235 O222 1.243 . S
C236 C237 1.382 . S
C236 C240 1.393 1_565 S
C236 C243 1.500 . S
C237 C236 1.382 . S
C237 C238 1.400 . S
C237 H248 0.930 . S
C238 C237 1.400 . S
C238 C239 1.384 . S
C239 C238 1.384 . S
C239 C241 1.392 1_565 S
C239 H249 0.931 . S
C240 C236 1.393 1_545 S
C240 C241 1.401 . S
C240 H250 0.930 . S
C241 C239 1.392 1_545 S
C241 C240 1.401 . S
C241 H251 0.930 . S
C242 O220 1.262 . S
C242 O221 1.260 . S
C243 Tb179 2.833 . S
C243 O218 1.251 . S
C243 O223 1.256 . S
C243 C236 1.500 . S
H244 C227 0.930 . S
H245 C228 0.931 . S
H246 C229 0.930 1_455 S
H247 C230 0.930 . S
H248 C237 0.930 . S
H249 C239 0.931 . S
H250 C240 0.930 . S
H251 C241 0.930 . S
Tb252 N283 2.660 . S
Tb252 N290 2.600 . S
Tb252 O296 2.546 . S
Tb252 O297 2.610 . S
Tb252 O299 2.320 . S
Tb252 O300 2.552 . S
Tb252 O301 2.413 . S
Tb252 O303 2.362 . S
Tb252 O304 2.421 . S
Tb252 C316 2.833 . S
C253 C256 1.432 . S
C253 C257 1.414 . S
C253 N260 1.359 1_455 S
C254 C256 1.417 . S
C254 C258 1.432 . S
C254 C266 1.410 . S
C255 C257 1.444 . S
C255 C258 1.317 . S
C255 H278 0.929 . S
C256 C253 1.432 . S
C256 C254 1.417 . S
C256 N264 1.360 . S
C257 C253 1.414 . S
C257 C255 1.444 . S
C257 C262 1.385 . S
C258 C254 1.432 . S
C258 C255 1.317 . S
C258 H270 0.930 . S
C259 C261 1.392 . S
C259 C262 1.370 1_655 S
C259 H271 0.931 . S
N260 C253 1.359 1_655 S
N260 C261 1.327 . S
N260 Tb263 2.600 . S
C261 C259 1.392 . S
C261 N260 1.327 . S
C261 H268 0.930 . S
C262 C257 1.385 . S
C262 C259 1.370 1_455 S
C262 H281 0.930 . S
Tb263 N260 2.600 . S
Tb263 N264 2.660 1_655 S
Tb263 O297 2.362 . S
Tb263 O298 2.421 . S
Tb263 O302 2.546 . S
Tb263 O303 2.610 . S
Tb263 O305 2.320 . S
Tb263 O306 2.552 . S
Tb263 O307 2.413 . S
Tb263 C327 2.833 . S
N264 C256 1.360 . S
N264 Tb263 2.660 1_455 S
N264 C265 1.305 . S
C265 N264 1.305 . S
C265 C267 1.407 . S
C265 H272 0.930 . S
C266 C254 1.410 . S
C266 C267 1.345 . S
C266 H274 0.930 . S
C267 C265 1.407 . S
C267 C266 1.345 . S
C267 H269 0.930 . S
H268 C261 0.930 . S
H269 C267 0.930 . S
H270 C258 0.930 . S
H271 C259 0.931 . S
H272 C265 0.930 . S
H273 C287 0.930 . S
H274 C266 0.930 . S
H275 C293 0.930 . S
H276 C284 0.930 . S
H277 C291 0.931 . S
H278 C255 0.929 . S
H279 C285 0.930 . S
H280 C318 0.930 . S
H281 C262 0.930 . S
H282 C317 0.929 . S
N283 Tb252 2.660 . S
N283 C284 1.305 . S
N283 C288 1.360 . S
C284 H276 0.930 . S
C284 N283 1.305 . S
C284 C287 1.407 . S
C285 H279 0.930 . S
C285 C286 1.410 . S
C285 C287 1.345 . S
C286 C285 1.410 . S
C286 C288 1.417 . S
C286 C318 1.432 . S
C287 H273 0.930 . S
C287 C284 1.407 . S
C287 C285 1.345 . S
C288 N283 1.360 . S
C288 C286 1.417 . S
C288 C292 1.432 . S
H289 C294 0.930 . S
N290 Tb252 2.600 . S
N290 C292 1.359 . S
N290 C293 1.327 1_545 S
C291 H277 0.931 . S
C291 C293 1.392 . S
C291 C294 1.370 . S
C292 C288 1.432 . S
C292 N290 1.359 . S
C292 C295 1.414 1_545 S
C293 H275 0.930 . S
C293 N290 1.327 1_565 S
C293 C291 1.392 . S
C294 H289 0.930 . S
C294 C291 1.370 . S
C294 C295 1.385 . S
C295 C292 1.414 1_565 S
C295 C294 1.385 . S
C295 C317 1.444 . S
O296 Tb252 2.546 . S
O296 C316 1.251 . S
O297 Tb252 2.610 . S
O297 Tb263 2.362 . S
O297 C308 1.283 . S
O298 Tb263 2.421 . S
O298 C315 1.262 . S
O299 Tb252 2.320 . S
O299 C315 1.260 . S
O300 Tb252 2.552 . S
O300 C308 1.243 . S
O301 Tb252 2.413 . S
O301 C316 1.256 . S
O302 Tb263 2.546 . S
O302 C327 1.251 . S
O303 Tb252 2.362 . S
O303 Tb263 2.610 . S
O303 C319 1.283 . S
O304 Tb252 2.421 . S
O304 C326 1.262 . S
O305 Tb263 2.320 . S
O305 C326 1.260 . S
O306 Tb263 2.552 . S
O306 C319 1.243 . S
O307 Tb263 2.413 . S
O307 C327 1.256 . S
C308 O297 1.283 . S
C308 O300 1.243 . S
C309 C311 1.382 . S
C309 C313 1.393 1_545 S
C309 C316 1.500 . S
C310 C311 1.400 . S
C310 C312 1.384 . S
C311 C309 1.382 . S
C311 C310 1.400 . S
C311 H328 0.930 . S
C312 C310 1.384 . S
C312 C314 1.392 1_545 S
C312 H329 0.931 . S
C313 C309 1.393 1_565 S
C313 C314 1.401 . S
C313 H330 0.930 . S
C314 C312 1.392 1_565 S
C314 C313 1.401 . S
C314 H331 0.930 . S
C315 O298 1.262 . S
C315 O299 1.260 . S
C316 Tb252 2.833 . S
C316 O296 1.251 . S
C316 O301 1.256 . S
C316 C309 1.500 . S
C317 H282 0.929 . S
C317 C295 1.444 . S
C317 C318 1.317 1_565 S
C318 H280 0.930 . S
C318 C286 1.432 . S
C318 C317 1.317 1_545 S
C319 O303 1.283 . S
C319 O306 1.243 . S
C320 C321 1.382 1_655 S
C320 C324 1.393 1_655 S
C320 C327 1.500 . S
C321 C320 1.382 1_455 S
C321 C322 1.400 . S
C321 H332 0.930 . S
C322 C321 1.400 . S
C322 C323 1.384 . S
C323 C322 1.384 . S
C323 C325 1.392 . S
C323 H333 0.931 . S
C324 C320 1.393 1_455 S
C324 C325 1.401 . S
C324 H334 0.930 1_455 S
C325 C323 1.392 . S
C325 C324 1.401 . S
C325 H335 0.930 . S
C326 O304 1.262 . S
C326 O305 1.260 . S
C327 Tb263 2.833 . S
C327 O302 1.251 . S
C327 O307 1.256 . S
C327 C320 1.500 . S
H328 C311 0.930 . S
H329 C312 0.931 . S
H330 C313 0.930 . S
H331 C314 0.930 . S
H332 C321 0.930 . S
H333 C323 0.931 . S
H334 C324 0.930 1_655 S
H335 C325 0.930 . S
C336 C337 1.363 1_556 S
C336 C342 1.379 . S
C336 N344 1.356 . S
C337 C336 1.363 1_554 S
C337 C343 1.363 . S
C338 C339 1.363 . S
C338 C343 1.379 . S
C338 N345 1.356 . S
C339 C338 1.363 . S
C339 C342 1.363 1_554 S
N340 C342 1.356 . S
N340 H352 0.984 . S
N340 H353 0.985 . S
N341 C343 1.356 . S
N341 H346 0.984 . S
N341 H347 0.985 . S
C342 C336 1.379 . S
C342 C339 1.363 1_556 S
C342 N340 1.356 . S
C343 C337 1.363 . S
C343 C338 1.379 . S
C343 N341 1.356 . S
N344 C336 1.356 . S
N344 H350 0.984 . S
N344 H351 0.984 . S
N345 C338 1.356 . S
N345 H348 0.984 . S
N345 H349 0.985 . S
H346 N341 0.984 . S
H347 N341 0.985 . S
H348 N345 0.984 . S
H349 N345 0.985 . S
H350 N344 0.984 . S
H351 N344 0.984 . S
H352 N340 0.984 . S
H353 N340 0.985 . S
C354 C355 1.363 . S
C354 C360 1.379 . S
C354 N362 1.356 . S
C355 C354 1.363 . S
C355 C361 1.363 . S
C356 C357 1.363 . S
C356 C361 1.379 . S
C356 N363 1.356 . S
C357 C356 1.363 . S
C357 C360 1.363 . S
N358 C360 1.356 . S
N358 H370 0.984 . S
N358 H371 0.985 . S
N359 C361 1.356 . S
N359 H364 0.984 . S
N359 H365 0.985 . S
C360 C354 1.379 . S
C360 C357 1.363 . S
C360 N358 1.356 . S
C361 C355 1.363 . S
C361 C356 1.379 . S
C361 N359 1.356 . S
N362 C354 1.356 . S
N362 H368 0.984 . S
N362 H369 0.984 . S
N363 C356 1.356 . S
N363 H366 0.984 . S
N363 H367 0.985 . S
H364 N359 0.984 . S
H365 N359 0.985 . S
H366 N363 0.984 . S
H367 N363 0.985 . S
H368 N362 0.984 . S
H369 N362 0.984 . S
H370 N358 0.984 . S
H371 N358 0.985 . S
C372 C373 1.363 1_566 S
C372 C378 1.379 1_455 S
C372 N380 1.356 . S
C373 C372 1.363 1_544 S
C373 C379 1.363 . S
C374 C375 1.363 1_545 S
C374 C379 1.379 1_655 S
C374 N381 1.356 . S
C375 C374 1.363 1_565 S
C375 C378 1.363 1_554 S
N376 C378 1.356 . S
N376 H388 0.984 . S
N376 H389 0.985 . S
N377 C379 1.356 . S
N377 H382 0.984 . S
N377 H383 0.985 . S
C378 C372 1.379 1_655 S
C378 C375 1.363 1_556 S
C378 N376 1.356 . S
C379 C373 1.363 . S
C379 C374 1.379 1_455 S
C379 N377 1.356 . S
N380 C372 1.356 . S
N380 H386 0.984 . S
N380 H387 0.984 1_565 S
N381 C374 1.356 . S
N381 H384 0.984 1_545 S
N381 H385 0.985 . S
H382 N377 0.984 . S
H383 N377 0.985 . S
H384 N381 0.984 1_565 S
H385 N381 0.985 . S
H386 N380 0.984 . S
H387 N380 0.984 1_545 S
H388 N376 0.984 . S
H389 N376 0.985 . S
C390 C391 1.363 1_565 S
C390 C396 1.379 1_655 S
C390 N398 1.356 . S
C391 C390 1.363 1_545 S
C391 C397 1.363 . S
C392 C393 1.363 1_545 S
C392 C397 1.379 1_455 S
C392 N399 1.356 . S
C393 C392 1.363 1_565 S
C393 C396 1.363 . S
N394 C396 1.356 . S
N394 H406 0.984 . S
N394 H407 0.985 . S
N395 C397 1.356 . S
N395 H400 0.984 . S
N395 H401 0.985 . S
C396 C390 1.379 1_455 S
C396 C393 1.363 . S
C396 N394 1.356 . S
C397 C391 1.363 . S
C397 C392 1.379 1_655 S
C397 N395 1.356 . S
N398 C390 1.356 . S
N398 H404 0.984 . S
N398 H405 0.984 1_565 S
N399 C392 1.356 . S
N399 H402 0.984 1_545 S
N399 H403 0.985 . S
H400 N395 0.984 . S
H401 N395 0.985 . S
H402 N399 0.984 1_565 S
H403 N399 0.985 . S
H404 N398 0.984 . S
H405 N398 0.984 1_545 S
H406 N394 0.984 . S
H407 N394 0.985 . S
C408 C409 1.363 . S
C408 C414 1.379 . S
C408 N416 1.356 . S
C409 C408 1.363 . S
C409 C415 1.363 . S
C410 C411 1.363 . S
C410 C415 1.379 . S
C410 N417 1.356 . S
C411 C410 1.363 . S
C411 C414 1.363 . S
N412 C414 1.356 . S
N412 H424 0.984 . S
N412 H425 0.985 . S
N413 C415 1.356 . S
N413 H418 0.984 . S
N413 H419 0.985 . S
C414 C408 1.379 . S
C414 C411 1.363 . S
C414 N412 1.356 . S
C415 C409 1.363 . S
C415 C410 1.379 . S
C415 N413 1.356 . S
N416 C408 1.356 . S
N416 H422 0.979 1_545 S
N416 H423 0.984 . S
N417 C410 1.356 . S
N417 H420 0.984 . S
N417 H421 0.985 . S
H418 N413 0.984 . S
H419 N413 0.985 . S
H420 N417 0.984 . S
H421 N417 0.985 . S
H422 N416 0.979 1_565 S
H423 N416 0.984 . S
H424 N412 0.984 . S
H425 N412 0.985 . S
C426 C427 1.363 . S
C426 C432 1.379 . S
C426 N434 1.356 . S
C427 C426 1.363 . S
C427 C433 1.363 . S
C428 C429 1.363 . S
C428 C433 1.379 . S
C428 N435 1.356 . S
C429 C428 1.363 . S
C429 C432 1.363 . S
N430 C432 1.356 . S
N430 H442 0.984 . S
N430 H443 0.985 . S
N431 C433 1.356 . S
N431 H436 0.984 . S
N431 H437 0.985 . S
C432 C426 1.379 . S
C432 C429 1.363 . S
C432 N430 1.356 . S
C433 C427 1.363 . S
C433 C428 1.379 . S
C433 N431 1.356 . S
N434 C426 1.356 . S
N434 H440 0.984 1_565 S
N434 H441 0.984 . S
N435 C428 1.356 . S
N435 H438 0.984 . S
N435 H439 0.985 . S
H436 N431 0.984 . S
H437 N431 0.985 . S
H438 N435 0.984 . S
H439 N435 0.985 . S
H440 N434 0.984 1_545 S
H441 N434 0.984 . S
H442 N430 0.984 . S
H443 N430 0.985 . S
C444 C445 1.363 . S
C444 C450 1.379 . S
C444 N452 1.356 . S
C445 C444 1.363 . S
C445 C451 1.363 . S
C446 C447 1.363 . S
C446 C451 1.379 . S
C446 N453 1.356 . S
C447 C446 1.363 . S
C447 C450 1.363 . S
N448 C450 1.356 . S
N448 H460 0.984 . S
N448 H461 0.985 . S
N449 C451 1.356 . S
N449 H454 0.984 . S
N449 H455 0.985 . S
C450 C444 1.379 . S
C450 C447 1.363 . S
C450 N448 1.356 . S
C451 C445 1.363 . S
C451 C446 1.379 . S
C451 N449 1.356 . S
N452 C444 1.356 . S
N452 H458 0.984 . S
N452 H459 0.984 . S
N453 C446 1.356 . S
N453 H456 0.984 . S
N453 H457 0.985 1_565 S
H454 N449 0.984 . S
H455 N449 0.985 . S
H456 N453 0.984 . S
H457 N453 0.985 1_545 S
H458 N452 0.984 . S
H459 N452 0.984 . S
H460 N448 0.984 . S
H461 N448 0.985 . S
C462 C463 1.363 . S
C462 C468 1.379 . S
C462 N470 1.356 . S
C463 C462 1.363 . S
C463 C469 1.363 . S
C464 C465 1.363 . S
C464 C469 1.379 . S
C464 N471 1.356 . S
C465 C464 1.363 . S
C465 C468 1.363 . S
N466 C468 1.356 . S
N466 H478 0.984 1_545 S
N466 H479 0.985 . S
N467 C469 1.356 . S
N467 H472 0.984 . S
N467 H473 0.985 . S
C468 C462 1.379 . S
C468 C465 1.363 . S
C468 N466 1.356 . S
C469 C463 1.363 . S
C469 C464 1.379 . S
C469 N467 1.356 . S
N470 C462 1.356 . S
N470 H476 0.984 . S
N470 H477 0.984 . S
N471 C464 1.356 . S
N471 H474 0.984 . S
N471 H475 0.985 . S
H472 N467 0.984 . S
H473 N467 0.985 . S
H474 N471 0.984 . S
H475 N471 0.985 . S
H476 N470 0.984 . S
H477 N470 0.984 . S
H478 N466 0.984 1_565 S
H479 N466 0.985 . S
C480 C481 1.363 . S
C480 C486 1.379 . S
C480 N488 1.356 . S
C481 C480 1.363 . S
C481 C487 1.363 . S
C482 C483 1.363 . S
C482 C487 1.379 . S
C482 N489 1.356 1_655 S
C483 C482 1.363 . S
C483 C486 1.363 . S
N484 C486 1.356 . S
N484 H496 0.984 . S
N484 H497 0.985 . S
N485 C487 1.356 . S
N485 H490 0.984 . S
N485 H491 0.985 1_655 S
C486 C480 1.379 . S
C486 C483 1.363 . S
C486 N484 1.356 . S
C487 C481 1.363 . S
C487 C482 1.379 . S
C487 N485 1.356 . S
N488 C480 1.356 . S
N488 H494 0.984 . S
N488 H495 0.984 . S
N489 C482 1.356 1_455 S
N489 H492 0.984 . S
N489 H493 0.985 . S
H490 N485 0.984 . S
H491 N485 0.985 1_455 S
H492 N489 0.984 . S
H493 N489 0.985 . S
H494 N488 0.984 . S
H495 N488 0.984 . S
H496 N484 0.984 . S
H497 N484 0.985 . S
C498 C499 1.363 . S
C498 C504 1.379 . S
C498 N506 1.356 . S
C499 C498 1.363 . S
C499 C505 1.363 . S
C500 C501 1.363 . S
C500 C505 1.379 . S
C500 N507 1.356 1_655 S
C501 C500 1.363 . S
C501 C504 1.363 . S
N502 C504 1.356 . S
N502 H514 0.984 . S
N502 H515 0.985 . S
N503 C505 1.356 1_455 S
N503 H508 0.984 1_455 S
N503 H509 0.985 . S
C504 C498 1.379 . S
C504 C501 1.363 . S
C504 N502 1.356 . S
C505 C499 1.363 . S
C505 C500 1.379 . S
C505 N503 1.356 1_655 S
N506 C498 1.356 . S
N506 H512 0.984 . S
N506 H513 0.984 . S
N507 C500 1.356 1_455 S
N507 H510 0.984 . S
N507 H511 0.985 . S
H508 N503 0.984 1_655 S
H509 N503 0.985 . S
H510 N507 0.984 . S
H511 N507 0.985 . S
H512 N506 0.984 . S
H513 N506 0.984 . S
H514 N502 0.984 . S
H515 N502 0.985 . S
C516 C517 1.363 . S
C516 C522 1.379 . S
C516 N524 1.356 . S
C517 C516 1.363 . S
C517 C523 1.363 . S
C518 C519 1.363 . S
C518 C523 1.379 . S
C518 N525 1.356 . S
C519 C518 1.363 . S
C519 C522 1.363 . S
N520 C522 1.356 . S
N520 H532 0.984 . S
N520 H533 0.985 . S
N521 C523 1.356 . S
N521 H526 0.984 . S
N521 H527 0.985 . S
C522 C516 1.379 . S
C522 C519 1.363 . S
C522 N520 1.356 . S
C523 C517 1.363 . S
C523 C518 1.379 . S
C523 N521 1.356 . S
N524 C516 1.356 . S
N524 H530 0.984 . S
N524 H531 0.984 . S
N525 C518 1.356 . S
N525 H528 0.984 . S
N525 H529 0.985 . S
H526 N521 0.984 . S
H527 N521 0.985 . S
H528 N525 0.984 . S
H529 N525 0.985 . S
H530 N524 0.984 . S
H531 N524 0.984 . S
H532 N520 0.984 . S
H533 N520 0.985 . S
C534 C535 1.363 . S
C534 C540 1.379 . S
C534 N542 1.356 . S
C535 C534 1.363 . S
C535 C541 1.363 . S
C536 C537 1.363 . S
C536 C541 1.379 . S
C536 N543 1.356 1_455 S
C537 C536 1.363 . S
C537 C540 1.363 . S
N538 C540 1.356 . S
N538 H550 0.984 . S
N538 H551 0.985 . S
N539 C541 1.356 1_655 S
N539 H544 0.984 1_655 S
N539 H545 0.985 . S
C540 C534 1.379 . S
C540 C537 1.363 . S
C540 N538 1.356 . S
C541 C535 1.363 . S
C541 C536 1.379 . S
C541 N539 1.356 1_455 S
N542 C534 1.356 . S
N542 H548 0.984 . S
N542 H549 0.984 . S
N543 C536 1.356 1_655 S
N543 H546 0.984 . S
N543 H547 0.985 . S
H544 N539 0.984 1_455 S
H545 N539 0.985 . S
H546 N543 0.984 . S
H547 N543 0.985 . S
H548 N542 0.984 . S
H549 N542 0.984 . S
H550 N538 0.984 . S
H551 N538 0.985 . S
C337 C147 1.514 1_554 S
C339 C74 1.523 . S
C355 C242 1.523 . S
C357 C315 1.523 . S
C373 C63 1.514 1_554 S
C375 C158 1.523 . S
C391 C326 1.523 . S
C393 C231 1.523 . S
C409 C310 1.399 . S
C411 C56 1.350 . S
C427 C142 1.399 . S
C429 C224 1.350 . S
C445 C151 1.350 . S
C447 C238 1.399 . S
C463 C319 1.350 . S
C465 C70 1.399 . S
C481 C140 1.350 . S
C483 C226 1.399 . S
C499 C308 1.350 . S
C501 C58 1.399 . S
C517 C322 1.399 . S
C519 C67 1.350 . S
C535 C235 1.350 . S
C537 C154 1.399 . S
