# Generated by pormake.
# Topology uku, (4)-cn, num edge types: 1
# Building blocks:
#     Node 0, Type 0, BuildingBlock: ICAMEG_clean_sbu_1, # of connection points: 4
#     Node 1, Type 0, BuildingBlock: ICAMEG_clean_sbu_1, # of connection points: 4
#     Node 2, Type 0, BuildingBlock: ICAMEG_clean_sbu_1, # of connection points: 4
#     Node 3, Type 0, BuildingBlock: ICAMEG_clean_sbu_1, # of connection points: 4
#     Node 4, Type 0, BuildingBlock: ICAMEG_clean_sbu_1, # of connection points: 4
#     Node 5, Type 0, BuildingBlock: ICAMEG_clean_sbu_1, # of connection points: 4
#     Node 6, Type 0, BuildingBlock: ICAMEG_clean_sbu_1, # of connection points: 4
#     Node 7, Type 0, BuildingBlock: ICAMEG_clean_sbu_1, # of connection points: 4
#     Node 8, Type 0, BuildingBlock: ICAMEG_clean_sbu_1, # of connection points: 4
#     Node 9, Type 0, BuildingBlock: ICAMEG_clean_sbu_1, # of connection points: 4
#     Node 10, Type 0, BuildingBlock: ICAMEG_clean_sbu_1, # of connection points: 4
#     Node 11, Type 0, BuildingBlock: ICAMEG_clean_sbu_1, # of connection points: 4
#     Edge 12, Type (0, 0), BuildingBlock: UVAHIK_clean_linker_0, # of connection points: 2
#     Edge 13, Type (0, 0), BuildingBlock: UVAHIK_clean_linker_0, # of connection points: 2
#     Edge 14, Type (0, 0), BuildingBlock: UVAHIK_clean_linker_0, # of connection points: 2
#     Edge 15, Type (0, 0), BuildingBlock: UVAHIK_clean_linker_0, # of connection points: 2
#     Edge 16, Type (0, 0), BuildingBlock: UVAHIK_clean_linker_0, # of connection points: 2
#     Edge 17, Type (0, 0), BuildingBlock: UVAHIK_clean_linker_0, # of connection points: 2
#     Edge 18, Type (0, 0), BuildingBlock: UVAHIK_clean_linker_0, # of connection points: 2
#     Edge 19, Type (0, 0), BuildingBlock: UVAHIK_clean_linker_0, # of connection points: 2
#     Edge 20, Type (0, 0), BuildingBlock: UVAHIK_clean_linker_0, # of connection points: 2
#     Edge 21, Type (0, 0), BuildingBlock: UVAHIK_clean_linker_0, # of connection points: 2
#     Edge 22, Type (0, 0), BuildingBlock: UVAHIK_clean_linker_0, # of connection points: 2
#     Edge 23, Type (0, 0), BuildingBlock: UVAHIK_clean_linker_0, # of connection points: 2
#     Edge 24, Type (0, 0), BuildingBlock: UVAHIK_clean_linker_0, # of connection points: 2
#     Edge 25, Type (0, 0), BuildingBlock: UVAHIK_clean_linker_0, # of connection points: 2
#     Edge 26, Type (0, 0), BuildingBlock: UVAHIK_clean_linker_0, # of connection points: 2
#     Edge 27, Type (0, 0), BuildingBlock: UVAHIK_clean_linker_0, # of connection points: 2
#     Edge 28, Type (0, 0), BuildingBlock: UVAHIK_clean_linker_0, # of connection points: 2
#     Edge 29, Type (0, 0), BuildingBlock: UVAHIK_clean_linker_0, # of connection points: 2
#     Edge 30, Type (0, 0), BuildingBlock: UVAHIK_clean_linker_0, # of connection points: 2
#     Edge 31, Type (0, 0), BuildingBlock: UVAHIK_clean_linker_0, # of connection points: 2
#     Edge 32, Type (0, 0), BuildingBlock: UVAHIK_clean_linker_0, # of connection points: 2
#     Edge 33, Type (0, 0), BuildingBlock: UVAHIK_clean_linker_0, # of connection points: 2
#     Edge 34, Type (0, 0), BuildingBlock: UVAHIK_clean_linker_0, # of connection points: 2
#     Edge 35, Type (0, 0), BuildingBlock: UVAHIK_clean_linker_0, # of connection points: 2
# Relax obj value: 0.337
# Max RMSD: 0.223
# Mean RMSD: 0.223
data_MOF--net-uku--node1-ICAMEG_clean_sbu_1--edge1-UVAHIK_clean_linker_0
_symmetry_space_group_name_H-M    P1
_symmetry_Int_Tables_number       1
_symmetry_cell_setting            triclinic
loop_
_symmetry_equiv_pos_as_xyz
'x, y, z'
_cell_length_a     55.027156
_cell_length_b     55.037987
_cell_length_c     55.026501
_cell_angle_alpha  90.016149
_cell_angle_beta   89.99735
_cell_angle_gamma 89.975657
loop_
_atom_site_label
_atom_site_type_symbol
_atom_site_fract_x
_atom_site_fract_y
_atom_site_fract_z
_atom_type_partial_charge
Co0 Co 0.06586 0.16136 0.65774 0.0
Co1 Co 0.10592 0.19118 0.61958 0.0
O2 O 0.07567 0.17361 0.62591 0.0
C3 C 0.06318 0.11643 0.62734 0.0
O4 O 0.0852 0.12053 0.6191 0.0
C5 C 0.06759 0.22442 0.60226 0.0
O6 O 0.05608 0.22053 0.62279 0.0
O7 O 0.10075 0.21313 0.64802 0.0
O8 O 0.07735 0.19167 0.67376 0.0
H9 H 0.18633 0.22861 0.64132 0.0
H10 H 0.03104 0.16296 0.61668 0.0
O11 O 0.05343 0.13091 0.64249 0.0
H12 H 0.99337 0.21198 0.68156 0.0
H13 H 0.01023 0.11802 0.7161 0.0
H14 H 0.08809 0.16136 0.70678 0.0
H15 H 0.03278 0.19168 0.68825 0.0
H16 H 0.02257 0.13433 0.67623 0.0
O17 O 0.08801 0.21435 0.59823 0.0
H18 H 0.14822 0.20645 0.64933 0.0
H19 H 0.12772 0.21343 0.57524 0.0
H20 H 0.07635 0.14553 0.74703 0.0
H21 H 0.9915 0.18272 0.60925 0.0
H22 H 0.03717 0.12367 0.75187 0.0
H23 H 0.97245 0.20754 0.6418 0.0
O24 O 0.09844 0.14599 0.66294 0.0
H25 H 0.08122 0.14654 0.54384 0.0
H26 H 0.148 0.1621 0.60151 0.0
H27 H 0.15466 0.13416 0.5671 0.0
H28 H 0.12112 0.12626 0.53794 0.0
H29 H 0.07529 0.17418 0.57862 0.0
H30 H 0.16553 0.23584 0.56647 0.0
H31 H 0.19518 0.24349 0.59963 0.0
O32 O 0.12427 0.1684 0.6406 0.0
C33 C 0.08987 0.21036 0.66831 0.0
C34 C 0.17357 0.22537 0.62671 0.0
C35 C 0.16188 0.22945 0.5847 0.0
N36 N 0.1358 0.20859 0.61277 0.0
C37 C 0.15198 0.21279 0.63112 0.0
C38 C 0.14047 0.21682 0.5898 0.0
C39 C 0.17852 0.23372 0.60332 0.0
C40 C 0.0228 0.17362 0.63098 0.0
N41 N 0.03429 0.17632 0.65283 0.0
C42 C 0.00043 0.1848 0.62665 0.0
C43 C 0.98977 0.19875 0.64491 0.0
C44 C 0.00152 0.20129 0.6672 0.0
C45 C 0.02389 0.18987 0.67085 0.0
C46 C 0.02733 0.12754 0.71423 0.0
C47 C 0.07094 0.152 0.70877 0.0
C48 C 0.03445 0.13676 0.69168 0.0
N49 N 0.05596 0.14893 0.68921 0.0
C50 C 0.06442 0.14302 0.7316 0.0
C51 C 0.04245 0.13073 0.7343 0.0
C52 C 0.11985 0.15156 0.65585 0.0
C53 C 0.09599 0.14987 0.55639 0.0
C54 C 0.1333 0.15868 0.58896 0.0
C55 C 0.13719 0.14289 0.56947 0.0
C56 C 0.11837 0.13848 0.55311 0.0
N57 N 0.11131 0.16983 0.59204 0.0
C58 C 0.09277 0.16557 0.57608 0.0
Co59 Co 0.94312 0.841 0.66402 0.0
Co60 Co 0.90255 0.81223 0.6254 0.0
O61 O 0.93299 0.82951 0.63194 0.0
C62 C 0.94572 0.88579 0.63355 0.0
O63 O 0.92524 0.87971 0.62294 0.0
C64 C 0.94058 0.77847 0.60814 0.0
O65 O 0.95263 0.7828 0.62826 0.0
O66 O 0.90724 0.79017 0.65389 0.0
O67 O 0.93194 0.81037 0.67925 0.0
H68 H 0.82177 0.77566 0.64708 0.0
H69 H 0.97777 0.84158 0.62283 0.0
O70 O 0.955 0.87219 0.64978 0.0
H71 H 0.01561 0.78902 0.68475 0.0
H72 H -0.00034 0.88222 0.72304 0.0
H73 H 0.92157 0.83938 0.71337 0.0
H74 H 0.97618 0.8088 0.69265 0.0
H75 H 0.98672 0.86725 0.68282 0.0
O76 O 0.92018 0.78864 0.60429 0.0
H77 H 0.8601 0.79748 0.65508 0.0
H78 H 0.8806 0.79006 0.58103 0.0
H79 H 0.9339 0.85384 0.75396 0.0
H80 H 0.01732 0.82231 0.61422 0.0
H81 H 0.9732 0.87546 0.75898 0.0
H82 H 0.03646 0.79575 0.64528 0.0
O83 O 0.91054 0.85601 0.6701 0.0
H84 H 0.92869 0.85639 0.54988 0.0
H85 H 0.86079 0.84105 0.60627 0.0
H86 H 0.85483 0.86893 0.57169 0.0
H87 H 0.88895 0.87671 0.54317 0.0
H88 H 0.93391 0.82887 0.58487 0.0
H89 H 0.8426 0.76798 0.57227 0.0
H90 H 0.81283 0.76074 0.60542 0.0
O91 O 0.88438 0.83559 0.64611 0.0
C92 C 0.91872 0.79217 0.67393 0.0
C93 C 0.83456 0.77876 0.63247 0.0
C94 C 0.84627 0.77442 0.59049 0.0
N95 N 0.87248 0.79518 0.61851 0.0
C96 C 0.85626 0.79117 0.63687 0.0
C97 C 0.86779 0.78687 0.59557 0.0
C98 C 0.82957 0.77037 0.60909 0.0
C99 C 0.98609 0.83022 0.63652 0.0
N100 N 0.97468 0.82636 0.65824 0.0
C101 C 0.00844 0.81929 0.63151 0.0
C102 C 0.01915 0.80435 0.64893 0.0
C103 C 0.00745 0.80056 0.67106 0.0
C104 C 0.98508 0.81174 0.67542 0.0
C105 C 0.98249 0.87284 0.72108 0.0
C106 C 0.93873 0.8487 0.71542 0.0
C107 C 0.97502 0.8644 0.69834 0.0
N108 N 0.95341 0.85244 0.69575 0.0
C109 C 0.9456 0.85688 0.73845 0.0
C110 C 0.96764 0.86902 0.74125 0.0
C111 C 0.88917 0.85158 0.66216 0.0
C112 C 0.91369 0.85315 0.56218 0.0
C113 C 0.87577 0.84453 0.59408 0.0
C114 C 0.87226 0.86023 0.57445 0.0
C115 C 0.8914 0.86457 0.55844 0.0
N116 N 0.8977 0.83344 0.59766 0.0
C117 C 0.91652 0.83754 0.58199 0.0
Co118 Co 0.05908 0.839 0.33706 0.0
Co119 Co 0.09902 0.81147 0.37708 0.0
O120 O 0.06846 0.82796 0.36946 0.0
C121 C 0.05451 0.88362 0.3673 0.0
O122 O 0.07525 0.87821 0.3778 0.0
C123 C 0.06139 0.77699 0.39339 0.0
O124 O 0.05101 0.7796 0.37207 0.0
O125 O 0.09548 0.78884 0.34887 0.0
O126 O 0.07187 0.80874 0.32225 0.0
H127 H 0.18099 0.77586 0.35834 0.0
H128 H 0.02295 0.83844 0.37699 0.0
O129 O 0.04572 0.86976 0.351 0.0
H130 H 0.98949 0.78424 0.31397 0.0
H131 H 0.00321 0.87852 0.2763 0.0
H132 H 0.08218 0.83791 0.28838 0.0
H133 H 0.02838 0.80549 0.30741 0.0
H134 H 0.01536 0.86397 0.31691 0.0
O135 O 0.08107 0.78814 0.3982 0.0
H136 H 0.14252 0.79684 0.34885 0.0
H137 H 0.12009 0.79055 0.42244 0.0
H138 H 0.07067 0.85199 0.24742 0.0
H139 H 0.98392 0.81765 0.38426 0.0
H140 H 0.03093 0.87248 0.24118 0.0
H141 H 0.96698 0.79027 0.35263 0.0
O142 O 0.0913 0.85498 0.33207 0.0
H143 H 0.07018 0.85664 0.45105 0.0
H144 H 0.13971 0.84146 0.39663 0.0
H145 H 0.14429 0.87014 0.43077 0.0
H146 H 0.10935 0.87785 0.4583 0.0
H147 H 0.06634 0.82834 0.4165 0.0
H148 H 0.15823 0.76933 0.43268 0.0
H149 H 0.18904 0.76195 0.40052 0.0
O150 O 0.11736 0.83471 0.35633 0.0
C151 C 0.08503 0.7907 0.32825 0.0
C152 C 0.16774 0.77904 0.37253 0.0
C153 C 0.15495 0.77533 0.41425 0.0
N154 N 0.12917 0.79506 0.3851 0.0
C155 C 0.14596 0.79096 0.36728 0.0
C156 C 0.13336 0.7873 0.40832 0.0
C157 C 0.17223 0.77121 0.39619 0.0
C158 C 0.01558 0.82673 0.36305 0.0
N159 N 0.02788 0.82327 0.34176 0.0
C160 C 0.99352 0.81494 0.36731 0.0
C161 C 0.98404 0.79954 0.34957 0.0
C162 C 0.99667 0.79614 0.32788 0.0
C163 C 0.01871 0.80819 0.32428 0.0
C164 C 0.02058 0.86963 0.27878 0.0
C165 C 0.06483 0.84675 0.2858 0.0
C166 C 0.02759 0.86144 0.30176 0.0
N167 N 0.04946 0.8501 0.30501 0.0
C168 C 0.05843 0.85471 0.26257 0.0
C169 C 0.03613 0.86622 0.25909 0.0
C170 C 0.11262 0.85072 0.34025 0.0
C171 C 0.08553 0.85344 0.43918 0.0
C172 C 0.12439 0.8449 0.40839 0.0
C173 C 0.12711 0.86106 0.42777 0.0
C174 C 0.10751 0.86535 0.44322 0.0
N175 N 0.10277 0.83333 0.4045 0.0
C176 C 0.08349 0.83738 0.41963 0.0
Co177 Co 0.93278 0.15689 0.34049 0.0
Co178 Co 0.89578 0.19093 0.37786 0.0
O179 O 0.92493 0.17155 0.37177 0.0
C180 C 0.93651 0.11384 0.37336 0.0
O181 O 0.9147 0.11838 0.38193 0.0
C182 C 0.93587 0.22328 0.39234 0.0
O183 O 0.94561 0.21911 0.37096 0.0
O184 O 0.90153 0.2113 0.34836 0.0
O185 O 0.92048 0.18583 0.32278 0.0
H186 H 0.81728 0.23209 0.3559 0.0
H187 H 0.97022 0.16066 0.37899 0.0
O188 O 0.94587 0.12755 0.35728 0.0
H189 H 0.0035 0.20589 0.30919 0.0
H190 H 0.985 0.10899 0.28252 0.0
H191 H 0.90771 0.15316 0.29295 0.0
H192 H 0.96371 0.18551 0.30624 0.0
H193 H 0.97493 0.12834 0.32167 0.0
O194 O 0.9155 0.21384 0.39786 0.0
H195 H 0.85397 0.20752 0.34817 0.0
H196 H 0.8761 0.21615 0.42161 0.0
H197 H 0.91715 0.13425 0.25342 0.0
H198 H 0.01017 0.18063 0.38269 0.0
H199 H 0.95605 0.11197 0.24802 0.0
H200 H 0.02702 0.20352 0.34764 0.0
O201 O 0.89986 0.14174 0.33843 0.0
H202 H 0.91968 0.14821 0.45496 0.0
H203 H 0.85256 0.16518 0.39809 0.0
H204 H 0.84514 0.13916 0.4338 0.0
H205 H 0.87885 0.13057 0.46257 0.0
H206 H 0.92635 0.17395 0.41889 0.0
H207 H 0.83974 0.24099 0.43009 0.0
H208 H 0.80998 0.24901 0.39711 0.0
O209 O 0.87572 0.16821 0.35817 0.0
C210 C 0.91007 0.20595 0.32747 0.0
C211 C 0.83008 0.22867 0.37043 0.0
C212 C 0.84271 0.23369 0.41206 0.0
N213 N 0.86706 0.21028 0.38445 0.0
C214 C 0.85085 0.21472 0.36618 0.0
C215 C 0.86329 0.21967 0.40714 0.0
C216 C 0.82601 0.23818 0.39356 0.0
C217 C 0.97753 0.17041 0.36359 0.0
N218 N 0.96465 0.17189 0.34241 0.0
C219 C 0.00012 0.18175 0.36582 0.0
C220 C 0.00954 0.19462 0.34617 0.0
C221 C 0.99635 0.19598 0.32459 0.0
C222 C 0.97379 0.18446 0.32305 0.0
C223 C 0.96801 0.11868 0.28464 0.0
C224 C 0.92473 0.1436 0.2907 0.0
C225 C 0.96218 0.12962 0.30679 0.0
N226 N 0.94081 0.14199 0.30955 0.0
C227 C 0.92995 0.13289 0.26829 0.0
C228 C 0.95176 0.12037 0.26528 0.0
C229 C 0.87892 0.14948 0.34489 0.0
C230 C 0.90484 0.15186 0.44258 0.0
C231 C 0.86734 0.16142 0.41044 0.0
C232 C 0.86302 0.14674 0.43068 0.0
C233 C 0.88193 0.14194 0.44682 0.0
N234 N 0.88985 0.17111 0.40642 0.0
C235 C 0.90849 0.16648 0.42216 0.0
Co236 Co 0.65916 0.06114 0.15691 0.0
Co237 Co 0.62051 0.09869 0.18895 0.0
O238 O 0.62732 0.06904 0.17051 0.0
C239 C 0.62676 0.05618 0.1138 0.0
O240 O 0.61705 0.07738 0.11887 0.0
C241 C 0.60461 0.05937 0.22175 0.0
O242 O 0.62523 0.04825 0.21721 0.0
O243 O 0.64926 0.09334 0.21034 0.0
O244 O 0.67591 0.07421 0.18613 0.0
H245 H 0.64139 0.17808 0.22889 0.0
H246 H 0.62112 0.02316 0.15991 0.0
O247 O 0.64337 0.04741 0.12729 0.0
H248 H 0.68959 0.99198 0.20859 0.0
H249 H 0.71898 0.00834 0.11203 0.0
H250 H 0.70655 0.08657 0.15395 0.0
H251 H 0.69264 0.03149 0.18769 0.0
H252 H 0.67919 0.0185 0.13 0.0
O253 O 0.59992 0.07978 0.21196 0.0
H254 H 0.64977 0.14078 0.20548 0.0
H255 H 0.576 0.11914 0.21219 0.0
H256 H 0.74669 0.07707 0.13641 0.0
H257 H 0.61736 0.98347 0.18036 0.0
H258 H 0.7531 0.0377 0.11526 0.0
H259 H 0.65174 0.96767 0.20497 0.0
O260 O 0.66141 0.09367 0.14102 0.0
H261 H 0.54472 0.07348 0.14472 0.0
H262 H 0.60094 0.14117 0.16145 0.0
H263 H 0.56599 0.14778 0.13419 0.0
H264 H 0.53756 0.11378 0.1257 0.0
H265 H 0.58005 0.06763 0.17168 0.0
H266 H 0.56685 0.15611 0.23586 0.0
H267 H 0.59967 0.18593 0.24425 0.0
O268 O 0.64079 0.11825 0.16631 0.0
C269 C 0.67038 0.08485 0.20592 0.0
C270 C 0.62692 0.16526 0.22529 0.0
C271 C 0.58509 0.15291 0.22923 0.0
N272 N 0.61336 0.1279 0.20733 0.0
C273 C 0.63155 0.14414 0.21199 0.0
C274 C 0.59039 0.13199 0.21587 0.0
C275 C 0.60351 0.16964 0.23392 0.0
C276 C 0.63624 0.0163 0.1704 0.0
N277 N 0.6571 0.0296 0.17253 0.0
C278 C 0.63398 0.99385 0.18201 0.0
C279 C 0.65326 0.98502 0.19585 0.0
C280 C 0.67449 0.99866 0.19791 0.0
C281 C 0.67609 0.02106 0.18608 0.0
C282 C 0.71642 0.02554 0.12123 0.0
C283 C 0.70923 0.06935 0.14488 0.0
C284 C 0.69392 0.03142 0.13138 0.0
N285 N 0.69059 0.05306 0.14313 0.0
C286 C 0.73199 0.0641 0.13494 0.0
C287 C 0.73556 0.04202 0.12305 0.0
C288 C 0.6546 0.11472 0.14805 0.0
C289 C 0.55696 0.08845 0.1483 0.0
C290 C 0.58874 0.12627 0.15773 0.0
C291 C 0.56893 0.13013 0.14235 0.0
C292 C 0.55297 0.11105 0.13761 0.0
N293 N 0.59253 0.10405 0.16816 0.0
C294 C 0.57695 0.08526 0.16361 0.0
Co295 Co 0.34078 0.93688 0.16181 0.0
Co296 Co 0.37703 0.895 0.1915 0.0
O297 O 0.37191 0.92582 0.17461 0.0
C298 C 0.37298 0.93888 0.11847 0.0
O299 O 0.38087 0.91699 0.12379 0.0
C300 C 0.39334 0.93207 0.22645 0.0
O301 O 0.37234 0.9429 0.22312 0.0
O302 O 0.34792 0.9001 0.21258 0.0
O303 O 0.32362 0.92531 0.19147 0.0
H304 H 0.35268 0.8141 0.22611 0.0
H305 H 0.38288 0.97028 0.16506 0.0
O306 O 0.35721 0.94918 0.13189 0.0
H307 H 0.31826 0.00885 0.21374 0.0
H308 H 0.28542 0.99531 0.11821 0.0
H309 H 0.29107 0.91629 0.16007 0.0
H310 H 0.3107 0.97023 0.19228 0.0
H311 H 0.32443 0.9813 0.13529 0.0
O312 O 0.39795 0.91212 0.2157 0.0
H313 H 0.34606 0.85289 0.20466 0.0
H314 H 0.42018 0.87191 0.21471 0.0
H315 H 0.25164 0.92969 0.14345 0.0
H316 H 0.39122 0.00898 0.18608 0.0
H317 H 0.24865 0.96947 0.12234 0.0
H318 H 0.3588 0.02847 0.21072 0.0
O319 O 0.33497 0.90484 0.14571 0.0
H320 H 0.4548 0.91915 0.15016 0.0
H321 H 0.39508 0.85341 0.16179 0.0
H322 H 0.43025 0.84672 0.13483 0.0
H323 H 0.46045 0.87973 0.12891 0.0
H324 H 0.41925 0.92514 0.17678 0.0
H325 H 0.42757 0.83341 0.23644 0.0
H326 H 0.39368 0.80416 0.24218 0.0
O327 O 0.35638 0.87768 0.16752 0.0
C328 C 0.32809 0.9118 0.20973 0.0
C329 C 0.3676 0.82668 0.22369 0.0
C330 C 0.40962 0.83753 0.22952 0.0
N331 N 0.38273 0.86459 0.20836 0.0
C332 C 0.36397 0.84865 0.21152 0.0
C333 C 0.40531 0.85933 0.21726 0.0
C334 C 0.39061 0.82112 0.23272 0.0
C335 C 0.36863 0.97873 0.17562 0.0
N336 N 0.34634 0.96796 0.17753 0.0
C337 C 0.37348 0.00061 0.18753 0.0
C338 C 0.35529 0.01152 0.20138 0.0
C339 C 0.33256 0.00051 0.20311 0.0
C340 C 0.3284 0.97859 0.19101 0.0
C341 C 0.28648 0.97796 0.12741 0.0
C342 C 0.28987 0.93369 0.15104 0.0
C343 C 0.30854 0.9699 0.13705 0.0
N344 N 0.30998 0.94807 0.1488 0.0
C345 C 0.26752 0.94115 0.14161 0.0
C346 C 0.26586 0.96346 0.12974 0.0
C347 C 0.34152 0.88309 0.15059 0.0
C348 C 0.44181 0.90461 0.15264 0.0
C349 C 0.40809 0.86789 0.15924 0.0
C350 C 0.428 0.86398 0.144 0.0
C351 C 0.44494 0.8825 0.1407 0.0
N352 N 0.40516 0.88961 0.17093 0.0
C353 C 0.42168 0.90786 0.16777 0.0
Co354 Co 0.66028 0.93994 0.83739 0.0
Co355 Co 0.62407 0.89689 0.80929 0.0
O356 O 0.62896 0.92806 0.8257 0.0
C357 C 0.62938 0.94221 0.88178 0.0
O358 O 0.6211 0.92039 0.87684 0.0
C359 C 0.60484 0.9333 0.77497 0.0
O360 O 0.62487 0.9458 0.77835 0.0
O361 O 0.65233 0.90245 0.78717 0.0
O362 O 0.67669 0.92827 0.80738 0.0
H363 H 0.64954 0.81611 0.77511 0.0
H364 H 0.6175 0.97258 0.83543 0.0
O365 O 0.6447 0.95233 0.86773 0.0
H366 H 0.67943 0.01162 0.78379 0.0
H367 H 0.71589 0.00019 0.87807 0.0
H368 H 0.71043 0.9203 0.83783 0.0
H369 H 0.68849 0.97334 0.80527 0.0
H370 H 0.67662 0.98515 0.86256 0.0
O371 O 0.60192 0.91293 0.78548 0.0
H372 H 0.65575 0.8554 0.79576 0.0
H373 H 0.58084 0.87227 0.7878 0.0
H374 H 0.7501 0.93474 0.85286 0.0
H375 H 0.6077 0.01096 0.81447 0.0
H376 H 0.753 0.97496 0.87317 0.0
H377 H 0.63876 0.03069 0.78835 0.0
O378 O 0.66732 0.90824 0.85375 0.0
H379 H 0.54709 0.9198 0.8528 0.0
H380 H 0.60789 0.85522 0.83998 0.0
H381 H 0.57374 0.8481 0.86811 0.0
H382 H 0.54301 0.88052 0.87463 0.0
H383 H 0.58166 0.92624 0.82502 0.0
H384 H 0.57386 0.83325 0.76688 0.0
H385 H 0.60835 0.80483 0.7605 0.0
O386 O 0.64588 0.88043 0.83284 0.0
C387 C 0.67201 0.91452 0.78937 0.0
C388 C 0.63436 0.82833 0.77781 0.0
C389 C 0.59189 0.83796 0.77317 0.0
N390 N 0.61868 0.86608 0.79304 0.0
C391 C 0.63776 0.85058 0.78953 0.0
C392 C 0.59597 0.86007 0.78495 0.0
C393 C 0.61125 0.82201 0.7696 0.0
C394 C 0.63117 0.98115 0.82423 0.0
N395 N 0.65353 0.97068 0.82149 0.0
C396 C 0.62549 0.00285 0.81236 0.0
C397 C 0.64291 0.01388 0.79767 0.0
C398 C 0.66572 0.00317 0.79508 0.0
C399 C 0.67073 0.98144 0.80719 0.0
C400 C 0.71486 0.98265 0.86923 0.0
C401 C 0.71157 0.93788 0.84652 0.0
C402 C 0.69266 0.974 0.86048 0.0
N403 N 0.69126 0.95192 0.84919 0.0
C404 C 0.73407 0.94594 0.85505 0.0
C405 C 0.73568 0.96849 0.86646 0.0
C406 C 0.6611 0.88632 0.84927 0.0
C407 C 0.56034 0.90552 0.85008 0.0
C408 C 0.59466 0.86946 0.84281 0.0
C409 C 0.57532 0.86529 0.8587 0.0
C410 C 0.55808 0.88348 0.86234 0.0
N411 N 0.59674 0.8911 0.83081 0.0
C412 C 0.5799 0.90902 0.8343 0.0
Co413 Co 0.33508 0.06016 0.8487 0.0
Co414 Co 0.37453 0.09738 0.81708 0.0
O415 O 0.36713 0.06813 0.83578 0.0
C416 C 0.36721 0.05746 0.892 0.0
O417 O 0.37687 0.07829 0.88554 0.0
C418 C 0.38981 0.05731 0.78487 0.0
O419 O 0.36846 0.04735 0.78862 0.0
O420 O 0.34574 0.09238 0.79552 0.0
O421 O 0.31911 0.07179 0.81853 0.0
H422 H 0.3554 0.17669 0.77614 0.0
H423 H 0.37406 0.02295 0.84822 0.0
O424 O 0.35033 0.04801 0.87932 0.0
H425 H 0.30782 0.9886 0.7986 0.0
H426 H 0.27519 0.00788 0.89398 0.0
H427 H 0.28683 0.08422 0.84857 0.0
H428 H 0.30324 0.0287 0.81806 0.0
H429 H 0.31532 0.01837 0.877 0.0
O430 O 0.39502 0.07764 0.79457 0.0
H431 H 0.34619 0.13988 0.79999 0.0
H432 H 0.41952 0.11658 0.79372 0.0
H433 H 0.24636 0.07437 0.86508 0.0
H434 H 0.37936 0.98271 0.82919 0.0
H435 H 0.24034 0.03595 0.88799 0.0
H436 H 0.34611 0.96532 0.80411 0.0
O437 O 0.33152 0.09327 0.86316 0.0
H438 H 0.44932 0.07122 0.86252 0.0
H439 H 0.39502 0.13994 0.84369 0.0
H440 H 0.42981 0.14626 0.87123 0.0
H441 H 0.45728 0.11172 0.88077 0.0
H442 H 0.41415 0.06568 0.8353 0.0
H443 H 0.42948 0.15303 0.76962 0.0
H444 H 0.39731 0.18345 0.76078 0.0
O445 O 0.35441 0.11754 0.83942 0.0
C446 C 0.32481 0.08308 0.79916 0.0
C447 C 0.36959 0.16361 0.77994 0.0
C448 C 0.41116 0.15031 0.77625 0.0
N449 N 0.38233 0.1262 0.79838 0.0
C450 C 0.3645 0.14277 0.79349 0.0
C451 C 0.4054 0.12967 0.78984 0.0
C452 C 0.3931 0.16738 0.7713 0.0
C453 C 0.35941 0.01539 0.83753 0.0
N454 N 0.33831 0.02811 0.83437 0.0
C455 C 0.36256 0.99264 0.82672 0.0
C456 C 0.34391 0.98291 0.81262 0.0
C457 C 0.32243 0.99597 0.80951 0.0
C458 C 0.31995 0.01869 0.82055 0.0
C459 C 0.27758 0.02468 0.88404 0.0
C460 C 0.28435 0.06745 0.85847 0.0
C461 C 0.30028 0.03076 0.87446 0.0
N462 N 0.30341 0.05189 0.86179 0.0
C463 C 0.26139 0.06198 0.8678 0.0
C464 C 0.25803 0.04043 0.88066 0.0
C465 C 0.33928 0.11418 0.85667 0.0
C466 C 0.43749 0.08641 0.8585 0.0
C467 C 0.40676 0.12481 0.84793 0.0
C468 C 0.4265 0.1285 0.86343 0.0
C469 C 0.44192 0.10913 0.86876 0.0
N470 N 0.40249 0.10247 0.83797 0.0
C471 C 0.41758 0.0834 0.84304 0.0
Co472 Co 0.15097 0.66407 0.06259 0.0
Co473 Co 0.18953 0.62593 0.09433 0.0
O474 O 0.16693 0.63266 0.06755 0.0
C475 C 0.10973 0.62866 0.06055 0.0
O476 O 0.11974 0.61558 0.0778 0.0
C477 C 0.21704 0.61338 0.05016 0.0
O478 O 0.20883 0.63351 0.04037 0.0
O479 O 0.20849 0.65605 0.08767 0.0
O480 O 0.18104 0.68171 0.07196 0.0
H481 H 0.23805 0.64622 0.16898 0.0
H482 H 0.14992 0.62723 0.02337 0.0
O483 O 0.12013 0.64775 0.05271 0.0
H484 H 0.19095 0.69842 0.98771 0.0
H485 H 0.0972 0.72364 0.01852 0.0
H486 H 0.14966 0.71043 0.08997 0.0
H487 H 0.17591 0.69957 0.0299 0.0
H488 H 0.11781 0.68432 0.02468 0.0
O489 O 0.21116 0.60756 0.07174 0.0
H490 H 0.20965 0.65456 0.13531 0.0
H491 H 0.21768 0.58221 0.10964 0.0
H492 H 0.12955 0.7501 0.08441 0.0
H493 H 0.16444 0.62537 0.98101 0.0
H494 H 0.1031 0.75689 0.04847 0.0
H495 H 0.18521 0.66113 0.96294 0.0
O496 O 0.13967 0.66461 0.09702 0.0
H497 H 0.14771 0.54796 0.07184 0.0
H498 H 0.16827 0.60365 0.13897 0.0
H499 H 0.14435 0.56675 0.1475 0.0
H500 H 0.13396 0.53857 0.1138 0.0
H501 H 0.17137 0.58521 0.06408 0.0
H502 H 0.24632 0.57314 0.14292 0.0
H503 H 0.2566 0.60525 0.17293 0.0
O504 O 0.16849 0.64412 0.11748 0.0
C505 C 0.20214 0.67703 0.08019 0.0
C506 C 0.23366 0.63206 0.15606 0.0
C507 C 0.23833 0.59105 0.14141 0.0
N508 N 0.21188 0.61885 0.12065 0.0
C509 C 0.21754 0.63665 0.137 0.0
C510 C 0.22214 0.59631 0.12258 0.0
C511 C 0.24408 0.60907 0.15825 0.0
C512 C 0.1587 0.64295 0.01555 0.0
N513 N 0.162 0.66351 0.02909 0.0
C514 C 0.16698 0.64176 0.99159 0.0
C515 C 0.17868 0.6618 0.98148 0.0
C516 C 0.18193 0.68272 0.99538 0.0
C517 C 0.17345 0.68324 0.0193 0.0
C518 C 0.10871 0.72091 0.03424 0.0
C519 C 0.13827 0.71329 0.07422 0.0
C520 C 0.12038 0.69866 0.03785 0.0
N521 N 0.13503 0.69513 0.0576 0.0
C522 C 0.12689 0.73577 0.0712 0.0
C523 C 0.11203 0.73956 0.05104 0.0
C524 C 0.14943 0.65729 0.11676 0.0
C525 C 0.15217 0.56006 0.08669 0.0
C526 C 0.16371 0.59155 0.12419 0.0
C527 C 0.15023 0.57064 0.12914 0.0
C528 C 0.14443 0.55483 0.11023 0.0
N529 N 0.17126 0.59655 0.10106 0.0
C530 C 0.16565 0.58113 0.08242 0.0
Co531 Co 0.16201 0.34002 0.93644 0.0
Co532 Co 0.18893 0.37979 0.89567 0.0
O533 O 0.17275 0.37236 0.92651 0.0
C534 C 0.11663 0.36958 0.93971 0.0
O535 O 0.12162 0.37947 0.91857 0.0
C536 C 0.22332 0.39558 0.93352 0.0
O537 O 0.21866 0.3752 0.94498 0.0
O538 O 0.21095 0.35103 0.89848 0.0
O539 O 0.1929 0.3255 0.92479 0.0
H540 H 0.22188 0.36094 0.8126 0.0
H541 H 0.16119 0.38083 0.9716 0.0
O542 O 0.13081 0.35378 0.94887 0.0
H543 H 0.21459 0.31895 0.00833 0.0
H544 H 0.12188 0.27984 0.99251 0.0
H545 H 0.16442 0.29093 0.91442 0.0
H546 H 0.19476 0.31141 0.96884 0.0
H547 H 0.13617 0.3204 0.97994 0.0
O548 O 0.21329 0.40017 0.91321 0.0
H549 H 0.20161 0.35164 0.85148 0.0
H550 H 0.21067 0.42472 0.87457 0.0
H551 H 0.15062 0.25001 0.92638 0.0
H552 H 0.18041 0.38902 0.01126 0.0
H553 H 0.12916 0.24428 0.96568 0.0
H554 H 0.20742 0.35799 0.02983 0.0
O555 O 0.14675 0.33399 0.90395 0.0
H556 H 0.14624 0.45469 0.92582 0.0
H557 H 0.15829 0.40006 0.85582 0.0
H558 H 0.13038 0.43493 0.85202 0.0
H559 H 0.12425 0.46257 0.88719 0.0
H560 H 0.17378 0.41946 0.92888 0.0
H561 H 0.23122 0.43477 0.83603 0.0
H562 H 0.23685 0.40277 0.80468 0.0
O563 O 0.1649 0.35971 0.87778 0.0
C564 C 0.21008 0.33116 0.91039 0.0
C565 C 0.21949 0.37505 0.82609 0.0
C566 C 0.22476 0.41648 0.83926 0.0
N567 N 0.20486 0.38763 0.86522 0.0
C568 C 0.20798 0.36991 0.84812 0.0
C569 C 0.21318 0.41066 0.86108 0.0
C570 C 0.22791 0.39852 0.82167 0.0
C571 C 0.17275 0.36715 0.97967 0.0
N572 N 0.17685 0.34566 0.96792 0.0
C573 C 0.18364 0.37192 0.00209 0.0
C574 C 0.19882 0.35452 0.01248 0.0
C575 C 0.20288 0.33262 0.00041 0.0
C576 C 0.19169 0.32849 0.97801 0.0
C577 C 0.13121 0.28211 0.97535 0.0
C578 C 0.15519 0.28856 0.9316 0.0
C579 C 0.13928 0.30505 0.96809 0.0
N580 N 0.15118 0.30802 0.94649 0.0
C581 C 0.14738 0.26536 0.93825 0.0
C582 C 0.13532 0.26216 0.96029 0.0
C583 C 0.14988 0.34279 0.88268 0.0
C584 C 0.14877 0.4428 0.91036 0.0
C585 C 0.15559 0.41191 0.87123 0.0
C586 C 0.13984 0.43168 0.86895 0.0
C587 C 0.13642 0.44719 0.88869 0.0
N588 N 0.16765 0.40772 0.89254 0.0
C589 C 0.1644 0.42286 0.91196 0.0
Co590 Co 0.84477 0.65748 0.93545 0.0
Co591 Co 0.80565 0.62517 0.89905 0.0
O592 O 0.82678 0.62802 0.92748 0.0
C593 C 0.88588 0.62172 0.93743 0.0
O594 O 0.88311 0.61664 0.91428 0.0
C595 C 0.77512 0.6102 0.94025 0.0
O596 O 0.7826 0.62982 0.95156 0.0
O597 O 0.78809 0.65555 0.90789 0.0
O598 O 0.81765 0.67859 0.92389 0.0
H599 H 0.76219 0.65536 0.82464 0.0
H600 H 0.83818 0.61947 0.97309 0.0
O601 O 0.87219 0.63716 0.94789 0.0
H602 H 0.80112 0.69349 0.00744 0.0
H603 H 0.89994 0.70894 0.98725 0.0
H604 H 0.85331 0.70464 0.91084 0.0
H605 H 0.82012 0.69425 0.96688 0.0
H606 H 0.87613 0.67235 0.97714 0.0
O607 O 0.78214 0.60575 0.91869 0.0
H608 H 0.78919 0.65876 0.86027 0.0
H609 H 0.77623 0.5848 0.87807 0.0
H610 H 0.87672 0.74164 0.92032 0.0
H611 H 0.81973 0.618 0.0139 0.0
H612 H 0.90026 0.74396 0.95878 0.0
H613 H 0.80091 0.65517 0.03128 0.0
O614 O 0.85927 0.65826 0.90226 0.0
H615 H 0.8434 0.54371 0.91572 0.0
H616 H 0.82767 0.60605 0.85331 0.0
H617 H 0.8504 0.56903 0.84226 0.0
H618 H 0.85834 0.53752 0.87357 0.0
H619 H 0.82092 0.5811 0.92603 0.0
H620 H 0.74894 0.58065 0.84274 0.0
H621 H 0.74186 0.61607 0.81569 0.0
O622 O 0.82882 0.64435 0.87886 0.0
C623 C 0.79622 0.67586 0.91553 0.0
C624 C 0.76519 0.63977 0.83625 0.0
C625 C 0.75773 0.59785 0.84643 0.0
N626 N 0.78442 0.62195 0.87111 0.0
C627 C 0.78051 0.64157 0.85641 0.0
C628 C 0.77315 0.60032 0.86643 0.0
C629 C 0.75377 0.61773 0.83125 0.0
C630 C 0.83029 0.6358 0.98064 0.0
N631 N 0.83031 0.65694 0.96763 0.0
C632 C 0.81976 0.63483 0.00372 0.0
C633 C 0.80917 0.65567 0.01344 0.0
C634 C 0.80925 0.67717 6e-05 0.0
C635 C 0.81996 0.67747 0.97705 0.0
C636 C 0.88972 0.70817 0.97046 0.0
C637 C 0.86339 0.70556 0.92767 0.0
C638 C 0.87624 0.68748 0.96461 0.0
N639 N 0.86319 0.68643 0.9435 0.0
C640 C 0.87667 0.72654 0.93291 0.0
C641 C 0.88989 0.72781 0.95448 0.0
C642 C 0.84947 0.65455 0.88155 0.0
C643 C 0.84 0.55728 0.9019 0.0
C644 C 0.83113 0.59246 0.86706 0.0
C645 C 0.84396 0.57151 0.86068 0.0
C646 C 0.8484 0.55383 0.87825 0.0
N647 N 0.82287 0.59568 0.89027 0.0
C648 C 0.82721 0.57846 0.90761 0.0
Co649 Co 0.84194 0.33457 0.05961 0.0
Co650 Co 0.80768 0.37326 0.09504 0.0
O651 O 0.82786 0.36645 0.06649 0.0
C652 C 0.88512 0.36719 0.05572 0.0
O653 O 0.8792 0.37748 0.07643 0.0
C654 C 0.77803 0.38934 0.05354 0.0
O655 O 0.78394 0.36899 0.04259 0.0
O656 O 0.78658 0.34465 0.08833 0.0
O657 O 0.81225 0.31778 0.07162 0.0
H658 H 0.76287 0.35237 0.1718 0.0
H659 H 0.84072 0.37186 0.02079 0.0
O660 O 0.87206 0.35026 0.04693 0.0
H661 H 0.79379 0.30269 0.98855 0.0
H662 H 0.88936 0.27409 0.00985 0.0
H663 H 0.84416 0.2877 0.08604 0.0
H664 H 0.81258 0.30051 0.02916 0.0
H665 H 0.87071 0.31392 0.01848 0.0
O666 O 0.78586 0.39396 0.07478 0.0
H667 H 0.78851 0.34397 0.13599 0.0
H668 H 0.78341 0.4178 0.11414 0.0
H669 H 0.86236 0.24753 0.07805 0.0
H670 H 0.82247 0.37471 0.97995 0.0
H671 H 0.88516 0.24052 0.03972 0.0
H672 H 0.79873 0.33998 0.96362 0.0
O673 O 0.85632 0.33303 0.09282 0.0
H674 H 0.85341 0.44911 0.07298 0.0
H675 H 0.83292 0.39228 0.13913 0.0
H676 H 0.8598 0.42712 0.14756 0.0
H677 H 0.87017 0.45586 0.11435 0.0
H678 H 0.82676 0.4139 0.06531 0.0
H679 H 0.75756 0.42697 0.14961 0.0
H680 H 0.74721 0.39413 0.17879 0.0
O681 O 0.82903 0.35278 0.11593 0.0
C682 C 0.79172 0.32338 0.08073 0.0
C683 C 0.76732 0.36685 0.15926 0.0
C684 C 0.76431 0.40871 0.14679 0.0
N685 N 0.7876 0.38041 0.12311 0.0
C686 C 0.78188 0.36221 0.13899 0.0
C687 C 0.77891 0.4034 0.12671 0.0
C688 C 0.75852 0.39028 0.16315 0.0
C689 C 0.83063 0.35657 0.0137 0.0
N690 N 0.82778 0.33602 0.02733 0.0
C691 C 0.82025 0.35833 0.99061 0.0
C692 C 0.80689 0.33886 0.98148 0.0
C693 C 0.80409 0.31794 0.99547 0.0
C694 C 0.8147 0.31684 0.0185 0.0
C695 C 0.87944 0.27691 0.0266 0.0
C696 C 0.85395 0.28476 0.06926 0.0
C697 C 0.8689 0.29944 0.03162 0.0
N698 N 0.85625 0.3031 0.05268 0.0
C699 C 0.86426 0.26199 0.06486 0.0
C700 C 0.87707 0.25808 0.04336 0.0
C701 C 0.84781 0.33941 0.11345 0.0
C702 C 0.84898 0.43675 0.08762 0.0
C703 C 0.83742 0.40464 0.12457 0.0
C704 C 0.8526 0.42438 0.12946 0.0
C705 C 0.8584 0.44051 0.11082 0.0
N706 N 0.82821 0.40111 0.10177 0.0
C707 C 0.83383 0.41683 0.0834 0.0
C708 C 0.97408 0.24289 0.40757 0.0
C709 C 0.94978 0.23609 0.4114 0.0
C710 C 0.98817 0.25152 0.42688 0.0
C711 C 0.98556 0.27084 0.49208 0.0
H712 H 0.04641 0.23561 0.49595 0.0
C713 C 0.03031 0.2401 0.58145 0.0
C714 C 0.05568 0.23756 0.58216 0.0
C715 C 0.01887 0.24833 0.56029 0.0
C716 C 0.02979 0.24611 0.49505 0.0
H717 H 0.92069 0.23472 0.43804 0.0
H718 H 0.94527 0.24911 0.47161 0.0
H719 H 0.02363 0.23535 0.45834 0.0
H720 H 0.08916 0.24386 0.5623 0.0
H721 H 0.06926 0.25859 0.52565 0.0
H722 H 0.99129 0.28042 0.52942 0.0
C723 C 0.95349 0.24814 0.45375 0.0
C724 C 0.01669 0.246 0.47338 0.0
C725 C 0.93942 0.23962 0.43449 0.0
C726 C 0.06952 0.24527 0.56213 0.0
C727 C 0.05813 0.25365 0.54112 0.0
C728 C 0.99866 0.27088 0.51386 0.0
C729 C 0.97824 0.25343 0.45038 0.0
C730 C 0.99406 0.25771 0.47183 0.0
C731 C 0.03266 0.2543 0.53959 0.0
C732 C 0.02059 0.25792 0.51575 0.0
H733 H 0.98254 0.24055 0.38995 0.0
H734 H 0.00709 0.25582 0.4236 0.0
H735 H 0.96835 0.28038 0.49136 0.0
H736 H 0.01919 0.23428 0.59662 0.0
H737 H 0.9992 0.24846 0.55966 0.0
C738 C 0.06036 0.76116 0.43584 0.0
C739 C 0.0489 0.76382 0.41316 0.0
C740 C 0.04751 0.75238 0.4558 0.0
C741 C 0.98524 0.75259 0.47805 0.0
H742 H 0.01449 0.72096 0.53384 0.0
C743 C 0.93709 0.75562 0.56926 0.0
C744 C 0.95175 0.76453 0.58816 0.0
C745 C 0.94757 0.74649 0.54808 0.0
C746 C 0.00604 0.7297 0.51837 0.0
H747 H 0.01554 0.75747 0.39316 0.0
H748 H 0.9931 0.74177 0.42808 0.0
H749 H 0.03554 0.72044 0.49471 0.0
H750 H 0.98884 0.76918 0.60058 0.0
H751 H 0.00724 0.75373 0.56329 0.0
H752 H 0.95633 0.76281 0.50172 0.0
C753 C 0.01194 0.74694 0.43048 0.0
C754 C 0.01806 0.72941 0.49597 0.0
C755 C 0.02482 0.75582 0.41044 0.0
C756 C 0.97711 0.76243 0.58628 0.0
C757 C 0.98763 0.75347 0.56494 0.0
C758 C 0.97323 0.7528 0.50034 0.0
C759 C 0.0229 0.74595 0.45357 0.0
C760 C 0.00818 0.7416 0.47578 0.0
C761 C 0.97294 0.74631 0.54525 0.0
C762 C 0.98384 0.74205 0.52094 0.0
H763 H 0.07898 0.76697 0.43852 0.0
H764 H 0.0565 0.75213 0.47331 0.0
H765 H 0.97724 0.7625 0.46305 0.0
H766 H 0.91746 0.75666 0.57039 0.0
H767 H 0.93578 0.74062 0.53345 0.0
C768 C 0.41014 0.96854 0.24791 0.0
C769 C 0.41315 0.94464 0.23949 0.0
C770 C 0.43011 0.98174 0.25642 0.0
C771 C 0.49627 0.97714 0.27173 0.0
H772 H 0.49906 0.03945 0.2391 0.0
C773 C 0.58436 0.02181 0.23742 0.0
C774 C 0.58525 0.04723 0.2357 0.0
C775 C 0.56361 0.01036 0.24659 0.0
C776 C 0.49852 0.0224 0.2489 0.0
H777 H 0.43906 0.91517 0.23523 0.0
H778 H 0.47377 0.93824 0.2494 0.0
H779 H 0.46114 0.01734 0.24018 0.0
H780 H 0.56635 0.08071 0.24443 0.0
H781 H 0.53045 0.06079 0.26087 0.0
H782 H 0.53422 0.98183 0.27922 0.0
C783 C 0.45606 0.94682 0.24979 0.0
C784 C 0.47665 0.00968 0.24955 0.0
C785 C 0.43613 0.93363 0.24141 0.0
C786 C 0.56597 0.06104 0.24516 0.0
C787 C 0.54539 0.04964 0.25453 0.0
C788 C 0.51825 0.98988 0.27101 0.0
C789 C 0.45346 0.97131 0.25655 0.0
C790 C 0.47541 0.98656 0.2603 0.0
C791 C 0.54352 0.02419 0.25436 0.0
C792 C 0.51974 0.01234 0.25896 0.0
H793 H 0.39262 0.97748 0.24687 0.0
H794 H 0.42743 0.00045 0.26191 0.0
H795 H 0.49581 0.95952 0.28049 0.0
H796 H 0.59898 0.01073 0.23024 0.0
H797 H 0.56269 0.99071 0.24605 0.0
C798 C 0.56395 0.92968 0.75584 0.0
C799 C 0.5838 0.94429 0.76248 0.0
C800 C 0.5421 0.94022 0.74851 0.0
C801 C 0.49537 0.96683 0.75829 0.0
H802 H 0.48771 0.02814 0.72451 0.0
C803 C 0.43172 0.05496 0.76773 0.0
C804 C 0.40908 0.04388 0.77184 0.0
C805 C 0.45118 0.04155 0.75861 0.0
C806 C 0.48954 0.01096 0.73393 0.0
H807 H 0.59698 0.98133 0.76487 0.0
H808 H 0.55864 -0.00019 0.75253 0.0
H809 H 0.52652 0.0066 0.72243 0.0
H810 H 0.38863 0.01042 0.76802 0.0
H811 H 0.42268 0.98696 0.7518 0.0
H812 H 0.45901 0.97164 0.77086 0.0
C813 C 0.56002 0.98019 0.75268 0.0
C814 C 0.51175 0.99865 0.73273 0.0
C815 C 0.58199 0.96961 0.75985 0.0
C816 C 0.4059 0.01944 0.7652 0.0
C817 C 0.42543 0.00599 0.75602 0.0
C818 C 0.47325 0.97914 0.75954 0.0
C819 C 0.53956 0.96561 0.74787 0.0
C820 C 0.51511 0.97679 0.74549 0.0
C821 C 0.44848 0.01672 0.75333 0.0
C822 C 0.4703 0.00171 0.74801 0.0
H823 H 0.56493 0.91007 0.75735 0.0
H824 H 0.52683 0.9285 0.74442 0.0
H825 H 0.4974 0.95024 0.76867 0.0
H826 H 0.43477 0.07382 0.7725 0.0
H827 H 0.4687 0.05037 0.75707 0.0
C828 C 0.24943 0.43247 0.93232 0.0
C829 C 0.23633 0.41534 0.9459 0.0
C830 C 0.25779 0.45379 0.94323 0.0
C831 C 0.25986 0.48692 0.0032 0.0
H832 H 0.2511 0.54296 0.96153 0.0
C833 C 0.24796 0.58073 0.04594 0.0
C834 C 0.23003 0.5954 0.03533 0.0
C835 C 0.25735 0.56081 0.03335 0.0
C836 C 0.25342 0.52757 0.97354 0.0
H837 H 0.22265 0.40628 0.98162 0.0
H838 H 0.23573 0.44389 0.00039 0.0
H839 H 0.25132 0.50283 0.94391 0.0
H840 H 0.20846 0.60162 0.00308 0.0
H841 H 0.22345 0.56613 0.98163 0.0
H842 H 0.2592 0.51141 0.0331 0.0
C843 C 0.2406 0.44079 0.9816 0.0
C844 C 0.25409 0.50436 0.96331 0.0
C845 C 0.2329 0.41916 0.97083 0.0
C846 C 0.22247 0.59065 0.01151 0.0
C847 C 0.23127 0.57028 0.99918 0.0
C848 C 0.25845 0.51006 0.0135 0.0
C849 C 0.25246 0.45882 0.96776 0.0
C850 C 0.25645 0.4836 0.97809 0.0
C851 C 0.24831 0.5546 0.01022 0.0
C852 C 0.25433 0.53068 0.99889 0.0
H853 H 0.25246 0.42975 0.91305 0.0
H854 H 0.26756 0.46674 0.93211 0.0
H855 H 0.26255 0.47156 0.01517 0.0
H856 H 0.25419 0.58426 0.06429 0.0
H857 H 0.27102 0.54979 0.04221 0.0
C858 C 0.74709 0.57473 0.94134 0.0
C859 C 0.76249 0.59086 0.95366 0.0
C860 C 0.73877 0.55366 0.95278 0.0
C861 C 0.74084 0.51974 0.01223 0.0
H862 H 0.74186 0.46392 0.96933 0.0
C863 C 0.74966 0.42449 0.0526 0.0
C864 C 0.76538 0.40871 0.04023 0.0
C865 C 0.7408 0.44534 0.04118 0.0
C866 C 0.74173 0.47924 0.98167 0.0
H867 H 0.7804 0.59844 0.98784 0.0
H868 H 0.7673 0.56124 0.00737 0.0
H869 H 0.74257 0.50429 0.95223 0.0
H870 H 0.78354 0.40156 0.0061 0.0
H871 H 0.76955 0.43854 0.98659 0.0
H872 H 0.74272 0.49477 0.04167 0.0
C873 C 0.76065 0.56497 0.98925 0.0
C874 C 0.7416 0.50261 0.9718 0.0
C875 C 0.76836 0.58636 0.97802 0.0
C876 C 0.77122 0.4134 0.01591 0.0
C877 C 0.76301 0.43463 0.00471 0.0
C878 C 0.7417 0.49639 0.02211 0.0
C879 C 0.74638 0.54789 0.97653 0.0
C880 C 0.74199 0.52324 0.98695 0.0
C881 C 0.74823 0.45131 0.01742 0.0
C882 C 0.74298 0.47579 0.00696 0.0
H883 H 0.74215 0.57799 0.92256 0.0
H884 H 0.72717 0.54148 0.9426 0.0
H885 H 0.74033 0.53505 0.02457 0.0
H886 H 0.74476 0.42104 0.07136 0.0
H887 H 0.72884 0.45718 0.05136 0.0
C888 C 0.16458 0.14396 0.65754 0.0
C889 C 0.14116 0.13906 0.6666 0.0
C890 C 0.18514 0.13478 0.66909 0.0
C891 C 0.20745 0.0895 0.71296 0.0
H892 H 0.25752 0.1376 0.72515 0.0
C893 C 0.28229 0.07621 0.78467 0.0
C894 C 0.30555 0.08602 0.78055 0.0
C895 C 0.2634 0.08032 0.76832 0.0
C896 C 0.244 0.12378 0.72151 0.0
H897 H 0.12107 0.11961 0.69439 0.0
H898 H 0.15725 0.10353 0.7147 0.0
H899 H 0.22197 0.14859 0.70132 0.0
H900 H 0.32731 0.10717 0.75539 0.0
H901 H 0.29428 0.11402 0.72653 0.0
H902 H 0.22946 0.06471 0.73331 0.0
C903 C 0.15951 0.11449 0.69851 0.0
C904 C 0.22355 0.13011 0.70792 0.0
C905 C 0.13881 0.12373 0.68691 0.0
C906 C 0.30962 0.09942 0.7592 0.0
C907 C 0.29065 0.10347 0.74273 0.0
C908 C 0.22802 0.0831 0.72645 0.0
C909 C 0.18289 0.12045 0.69003 0.0
C910 C 0.20495 0.11312 0.70368 0.0
C911 C 0.26722 0.09425 0.7473 0.0
C912 C 0.24641 0.10027 0.73114 0.0
H913 H 0.16722 0.15551 0.64183 0.0
H914 H 0.20288 0.13931 0.66187 0.0
H915 H 0.19354 0.07596 0.70973 0.0
H916 H 0.27837 0.06578 0.80089 0.0
H917 H 0.24556 0.07325 0.77266 0.0
C918 C 0.70843 0.93013 0.76738 0.0
C919 C 0.69143 0.91147 0.77108 0.0
C920 C 0.72895 0.92628 0.75303 0.0
C921 C 0.77848 0.90882 0.73791 0.0
H922 H 0.77933 0.86538 0.68255 0.0
C923 C 0.86763 0.86995 0.6978 0.0
C924 C 0.86823 0.86445 0.67291 0.0
C925 C 0.84613 0.87826 0.70859 0.0
C926 C 0.77944 0.87789 0.69773 0.0
H927 H 0.68211 0.87437 0.76181 0.0
H928 H 0.71837 0.86727 0.73733 0.0
H929 H 0.7409 0.87524 0.70185 0.0
H930 H 0.84751 0.86514 0.63944 0.0
H931 H 0.8105 0.88057 0.65788 0.0
H932 H 0.81693 0.91207 0.73333 0.0
C933 C 0.71563 0.88513 0.7451 0.0
C934 C 0.75736 0.88323 0.70907 0.0
C935 C 0.69482 0.88915 0.75918 0.0
C936 C 0.84746 0.86886 0.65875 0.0
C937 C 0.82616 0.87752 0.66939 0.0
C938 C 0.80052 0.90371 0.72638 0.0
C939 C 0.73326 0.90349 0.74233 0.0
C940 C 0.75659 0.89862 0.72944 0.0
C941 C 0.82493 0.88158 0.69458 0.0
C942 C 0.80135 0.88802 0.70625 0.0
H943 H 0.70617 0.94764 0.77603 0.0
H944 H 0.74168 0.9411 0.75073 0.0
H945 H 0.77875 0.92043 0.75379 0.0
H946 H 0.88333 0.86657 0.70918 0.0
H947 H 0.84588 0.88099 0.72807 0.0
C948 C 0.29183 0.92789 0.23166 0.0
C949 C 0.30854 0.90898 0.22788 0.0
C950 C 0.27157 0.92448 0.24648 0.0
C951 C 0.22226 0.90817 0.26342 0.0
H952 H 0.22227 0.86432 0.31843 0.0
C953 C 0.13369 0.86997 0.30485 0.0
C954 C 0.13354 0.86367 0.32956 0.0
C955 C 0.15504 0.87837 0.29389 0.0
C956 C 0.22192 0.87698 0.30339 0.0
H957 H 0.31756 0.87184 0.23727 0.0
H958 H 0.28168 0.86544 0.26243 0.0
H959 H 0.26028 0.87375 0.29822 0.0
H960 H 0.15496 0.86306 0.36259 0.0
H961 H 0.1917 0.87878 0.34391 0.0
H962 H 0.18404 0.91208 0.26912 0.0
C963 C 0.28448 0.8832 0.25446 0.0
C964 C 0.24376 0.88206 0.29149 0.0
C965 C 0.30505 0.8868 0.23996 0.0
C966 C 0.15462 0.86742 0.34343 0.0
C967 C 0.17578 0.87624 0.33263 0.0
C968 C 0.20048 0.90338 0.27554 0.0
C969 C 0.2672 0.90187 0.25753 0.0
C970 C 0.24421 0.8975 0.27116 0.0
C971 C 0.17655 0.88106 0.30755 0.0
C972 C 0.19995 0.88749 0.29552 0.0
H973 H 0.29422 0.94531 0.22288 0.0
H974 H 0.25913 0.93953 0.24895 0.0
H975 H 0.22171 0.91985 0.24761 0.0
H976 H 0.11775 0.86714 0.29368 0.0
H977 H 0.1549 0.88165 0.2745 0.0
C978 C 0.71315 0.07802 0.21972 0.0
C979 C 0.68992 0.08777 0.22423 0.0
C980 C 0.73213 0.08169 0.23606 0.0
C981 C 0.75242 0.12416 0.28307 0.0
H982 H 0.80145 0.0749 0.29508 0.0
C983 C 0.83386 0.14387 0.34461 0.0
C984 C 0.85683 0.13731 0.33546 0.0
C985 C 0.81268 0.13498 0.33398 0.0
C986 C 0.78796 0.08885 0.2918 0.0
H987 H 0.6684 0.10858 0.24991 0.0
H988 H 0.7017 0.11487 0.27863 0.0
H989 H 0.76519 0.06461 0.2716 0.0
H990 H 0.87545 0.11527 0.30858 0.0
H991 H 0.83828 0.09993 0.28975 0.0
H992 H 0.77529 0.14852 0.30279 0.0
C993 C 0.70515 0.10455 0.26223 0.0
C994 C 0.76719 0.08297 0.27838 0.0
C995 C 0.68605 0.10085 0.24583 0.0
C996 C 0.85808 0.12068 0.3161 0.0
C997 C 0.83677 0.11183 0.30536 0.0
C998 C 0.77312 0.13001 0.29648 0.0
C999 C 0.72846 0.09521 0.25738 0.0
C1000 C 0.74934 0.10067 0.27359 0.0
C1001 C 0.81385 0.1194 0.31383 0.0
C1002 C 0.79126 0.11251 0.30078 0.0
H1003 H 0.71692 0.06788 0.20328 0.0
H1004 H 0.74992 0.07457 0.23155 0.0
H1005 H 0.73927 0.13832 0.27935 0.0
H1006 H 0.8321 0.15647 0.35961 0.0
H1007 H 0.79531 0.14075 0.34125 0.0
C1008 C 0.65454 0.1596 0.1412 0.0
C1009 C 0.66409 0.13657 0.13551 0.0
C1010 C 0.66503 0.18063 0.13183 0.0
C1011 C 0.70776 0.20445 0.08567 0.0
H1012 H 0.71811 0.25509 0.13364 0.0
C1013 C 0.77872 0.28031 0.07425 0.0
C1014 C 0.77351 0.3037 0.08321 0.0
C1015 C 0.76257 0.26116 0.07792 0.0
C1016 C 0.71498 0.24138 0.11987 0.0
H1017 H 0.69162 0.11764 0.11456 0.0
H1018 H 0.71025 0.15457 0.09843 0.0
H1019 H 0.6952 0.21899 0.14462 0.0
H1020 H 0.74676 0.32536 0.10247 0.0
H1021 H 0.71841 0.29178 0.10877 0.0
H1022 H 0.72807 0.22674 0.06109 0.0
C1023 C 0.69441 0.15623 0.10998 0.0
C1024 C 0.70186 0.22063 0.12617 0.0
C1025 C 0.68378 0.13506 0.11929 0.0
C1026 C 0.75138 0.30759 0.09537 0.0
C1027 C 0.7352 0.28833 0.09908 0.0
C1028 C 0.72089 0.22526 0.07935 0.0
C1029 C 0.68548 0.17926 0.11665 0.0
C1030 C 0.6983 0.20181 0.10924 0.0
C1031 C 0.74079 0.26483 0.09067 0.0
C1032 C 0.7249 0.24382 0.09649 0.0
H1033 H 0.63929 0.16155 0.15347 0.0
H1034 H 0.6574 0.19805 0.13691 0.0
H1035 H 0.70505 0.19042 0.07214 0.0
H1036 H 0.79558 0.27654 0.06482 0.0
H1037 H 0.76763 0.24325 0.07151 0.0
C1038 C 0.24169 0.69515 0.09436 0.0
C1039 C 0.21953 0.69751 0.08186 0.0
C1040 C 0.25684 0.71533 0.0976 0.0
C1041 C 0.25321 0.78196 0.10047 0.0
H1042 H 0.32355 0.77902 0.09829 0.0
C1043 C 0.31128 0.86651 0.12059 0.0
C1044 C 0.33054 0.86266 0.13692 0.0
C1045 C 0.29938 0.84676 0.10986 0.0
C1046 C 0.30391 0.7801 0.09902 0.0
H1047 H 0.19652 0.72282 0.06206 0.0
H1048 H 0.223 0.75755 0.06737 0.0
H1049 H 0.29974 0.74313 0.08746 0.0
H1050 H 0.35308 0.83496 0.15384 0.0
H1051 H 0.33226 0.80086 0.13546 0.0
H1052 H 0.25724 0.81861 0.1126 0.0
C1053 C 0.22847 0.74029 0.07508 0.0
C1054 C 0.2903 0.75954 0.09287 0.0
C1055 C 0.21335 0.72025 0.07192 0.0
C1056 C 0.33829 0.8387 0.14141 0.0
C1057 C 0.32645 0.81905 0.1307 0.0
C1058 C 0.26678 0.80245 0.10664 0.0
C1059 C 0.25013 0.73821 0.08838 0.0
C1060 C 0.2648 0.7602 0.09375 0.0
C1061 C 0.30654 0.8228 0.1152 0.0
C1062 C 0.29229 0.8017 0.10626 0.0
H1063 H 0.247 0.67793 0.10228 0.0
H1064 H 0.27335 0.71319 0.1081 0.0
H1065 H 0.23359 0.78296 0.10174 0.0
H1066 H 0.30488 0.88471 0.11664 0.0
H1067 H 0.28428 0.85025 0.09772 0.0
C1068 C 0.78904 0.72019 0.92287 0.0
C1069 C 0.78056 0.69773 0.91403 0.0
C1070 C 0.77511 0.74121 0.92031 0.0
C1071 C 0.71305 0.7636 0.90761 0.0
H1072 H 0.74675 0.82074 0.88381 0.0
C1073 C 0.66436 0.84226 0.85973 0.0
C1074 C 0.67277 0.8662 0.86287 0.0
C1075 C 0.67652 0.82276 0.87032 0.0
C1076 C 0.73711 0.80514 0.89094 0.0
H1077 H 0.75042 0.67979 0.896 0.0
H1078 H 0.72616 0.71664 0.89134 0.0
H1079 H 0.76979 0.78429 0.89371 0.0
H1080 H 0.70017 0.8884 0.88048 0.0
H1081 H 0.72147 0.85412 0.89916 0.0
H1082 H 0.6803 0.78433 0.90432 0.0
C1083 C 0.74354 0.71785 0.90051 0.0
C1084 C 0.75031 0.7842 0.89655 0.0
C1085 C 0.7575 0.69674 0.90307 0.0
C1086 C 0.69321 0.87021 0.87767 0.0
C1087 C 0.70549 0.85057 0.88824 0.0
C1088 C 0.69985 0.78457 0.90204 0.0
C1089 C 0.75235 0.74036 0.90882 0.0
C1090 C 0.73839 0.76306 0.90456 0.0
C1091 C 0.69747 0.8266 0.88435 0.0
C1092 C 0.71168 0.80543 0.89321 0.0
H1093 H 0.80665 0.7217 0.93152 0.0
H1094 H 0.78225 0.75819 0.92722 0.0
H1095 H 0.7034 0.74775 0.91414 0.0
H1096 H 0.6487 0.83837 0.84846 0.0
H1097 H 0.67003 0.80455 0.86664 0.0
C1098 C 0.30486 0.13622 0.87673 0.0
C1099 C 0.32893 0.13612 0.86821 0.0
C1100 C 0.29378 0.15805 0.88362 0.0
C1101 C 0.30429 0.2204 0.90354 0.0
H1102 H 0.24576 0.23605 0.86742 0.0
C1103 C 0.23758 0.30751 0.8831 0.0
C1104 C 0.22913 0.31275 0.90659 0.0
C1105 C 0.25217 0.28708 0.87904 0.0
C1106 C 0.26216 0.23194 0.87751 0.0
H1107 H 0.36074 0.1585 0.86186 0.0
H1108 H 0.34163 0.19637 0.87465 0.0
H1109 H 0.26555 0.19667 0.86136 0.0
H1110 H 0.23055 0.30195 0.94443 0.0
H1111 H 0.25665 0.26672 0.93742 0.0
H1112 H 0.30053 0.25555 0.92007 0.0
C1113 C 0.33126 0.17966 0.87561 0.0
C1114 C 0.27329 0.20936 0.87426 0.0
C1115 C 0.34216 0.15798 0.86823 0.0
C1116 C 0.23675 0.2982 0.92613 0.0
C1117 C 0.25173 0.27813 0.92216 0.0
C1118 C 0.29286 0.24282 0.90716 0.0
C1119 C 0.30679 0.17999 0.88266 0.0
C1120 C 0.29446 0.20343 0.8872 0.0
C1121 C 0.25895 0.27198 0.8985 0.0
C1122 C 0.27179 0.2488 0.89405 0.0
H1123 H 0.29418 0.11971 0.87688 0.0
H1124 H 0.27489 0.15789 0.88917 0.0
H1125 H 0.32065 0.21621 0.91364 0.0
H1126 H 0.2318 0.31836 0.86773 0.0
H1127 H 0.25764 0.28269 0.86064 0.0
C1128 C 0.07607 0.77282 0.28748 0.0
C1129 C 0.08865 0.77148 0.30971 0.0
C1130 C 0.08054 0.75609 0.26903 0.0
C1131 C 0.12825 0.71573 0.24631 0.0
H1132 H 0.07738 0.69461 0.20229 0.0
C1133 C 0.14948 0.65737 0.16227 0.0
C1134 C 0.13913 0.66542 0.1403 0.0
C1135 C 0.14152 0.66662 0.18449 0.0
C1136 C 0.09177 0.70042 0.21439 0.0
H1137 H 0.11534 0.75087 0.33015 0.0
H1138 H 0.12307 0.72139 0.29776 0.0
H1139 H 0.06668 0.71668 0.23927 0.0
H1140 H 0.11158 0.68891 0.12465 0.0
H1141 H 0.09775 0.70516 0.16354 0.0
H1142 H 0.15337 0.6999 0.22123 0.0
C1143 C 0.10987 0.73565 0.29467 0.0
C1144 C 0.08567 0.71303 0.23558 0.0
C1145 C 0.10535 0.75246 0.31326 0.0
C1146 C 0.11995 0.68228 0.14119 0.0
C1147 C 0.11195 0.69152 0.16349 0.0
C1148 C 0.13434 0.70304 0.22519 0.0
C1149 C 0.0977 0.73749 0.27223 0.0
C1150 C 0.10388 0.7213 0.25151 0.0
C1151 C 0.12298 0.68412 0.18534 0.0
C1152 C 0.1162 0.69566 0.20876 0.0
H1153 H 0.0631 0.78719 0.28396 0.0
H1154 H 0.07115 0.75833 0.25188 0.0
H1155 H 0.14275 0.72213 0.25799 0.0
H1156 H 0.16419 0.64429 0.16239 0.0
H1157 H 0.15012 0.6603 0.20103 0.0
C1158 C 0.07354 0.23321 0.70382 0.0
C1159 C 0.09255 0.22908 0.68732 0.0
C1160 C 0.0769 0.24825 0.72392 0.0
C1161 C 0.09329 0.26502 0.77323 0.0
H1162 H 0.13659 0.32046 0.77325 0.0
C1163 C 0.1313 0.30694 0.86171 0.0
C1164 C 0.13691 0.33182 0.86191 0.0
C1165 C 0.12305 0.29582 0.84038 0.0
C1166 C 0.12411 0.30527 0.77358 0.0
H1167 H 0.12975 0.23821 0.67835 0.0
H1168 H 0.13605 0.2639 0.71396 0.0
H1169 H 0.12744 0.30005 0.73521 0.0
H1170 H 0.13647 0.36491 0.84057 0.0
H1171 H 0.12112 0.34586 0.80382 0.0
H1172 H 0.08938 0.27067 0.81147 0.0
C1173 C 0.11828 0.25594 0.71114 0.0
C1174 C 0.11917 0.2933 0.75173 0.0
C1175 C 0.11474 0.24118 0.69072 0.0
C1176 C 0.13262 0.34563 0.84088 0.0
C1177 C 0.12402 0.33464 0.81972 0.0
C1178 C 0.09798 0.27717 0.79502 0.0
C1179 C 0.09954 0.25921 0.72831 0.0
C1180 C 0.10388 0.27286 0.75129 0.0
C1181 C 0.11989 0.30945 0.81893 0.0
C1182 C 0.11365 0.29731 0.79554 0.0
H1183 H 0.05611 0.22448 0.70143 0.0
H1184 H 0.06181 0.25092 0.73627 0.0
H1185 H 0.08173 0.24912 0.77376 0.0
H1186 H 0.1346 0.2958 0.8776 0.0
H1187 H 0.12027 0.27635 0.84047 0.0
C1188 C 0.88284 0.67792 0.86083 0.0
C1189 C 0.86168 0.6637 0.85936 0.0
C1190 C 0.89266 0.68855 0.83992 0.0
C1191 C 0.89004 0.6878 0.77221 0.0
H1192 H 0.90722 0.75574 0.77904 0.0
C1193 C 0.89771 0.75541 0.69135 0.0
C1194 C 0.91605 0.77314 0.69279 0.0
C1195 C 0.89378 0.73939 0.71075 0.0
C1196 C 0.90286 0.73668 0.77683 0.0
H1197 H 0.83493 0.64864 0.83446 0.0
H1198 H 0.85179 0.66737 0.7984 0.0
H1199 H 0.89643 0.73236 0.81486 0.0
H1200 H 0.94551 0.7869 0.71525 0.0
H1201 H 0.93891 0.75891 0.74849 0.0
H1202 H 0.89591 0.69248 0.73396 0.0
C1203 C 0.861 0.67014 0.81557 0.0
C1204 C 0.89674 0.72324 0.79742 0.0
C1205 C 0.85121 0.65952 0.83638 0.0
C1206 C 0.93106 0.77369 0.7135 0.0
C1207 C 0.9272 0.7577 0.73271 0.0
C1208 C 0.89612 0.70131 0.75155 0.0
C1209 C 0.88153 0.68518 0.81713 0.0
C1210 C 0.89005 0.6987 0.79537 0.0
C1211 C 0.90815 0.7408 0.73187 0.0
C1212 C 0.90246 0.72594 0.75365 0.0
H1213 H 0.89144 0.68143 0.87818 0.0
H1214 H 0.90872 0.69977 0.84168 0.0
H1215 H 0.88521 0.66885 0.77005 0.0
H1216 H 0.88582 0.75451 0.6757 0.0
H1217 H 0.87886 0.72661 0.70962 0.0
C1218 C 0.91926 0.21866 0.2849 0.0
C1219 C 0.90739 0.22334 0.30707 0.0
C1220 C 0.91553 0.23354 0.26481 0.0
C1221 C 0.89225 0.29311 0.24458 0.0
H1222 H 0.8823 0.25868 0.18385 0.0
C1223 C 0.85045 0.33704 0.15882 0.0
C1224 C 0.85914 0.32972 0.13589 0.0
C1225 C 0.85905 0.32611 0.18002 0.0
C1226 C 0.88545 0.26864 0.20054 0.0
H1227 H 0.88276 0.24794 0.32558 0.0
H1228 H 0.87591 0.27391 0.29008 0.0
H1229 H 0.89147 0.23598 0.22055 0.0
H1230 H 0.8846 0.30589 0.11745 0.0
H1231 H 0.89977 0.28694 0.15456 0.0
H1232 H 0.88578 0.32581 0.22442 0.0
C1233 C 0.88837 0.25875 0.28851 0.0
C1234 C 0.89066 0.25561 0.22163 0.0
C1235 C 0.89223 0.24384 0.30881 0.0
C1236 C 0.87742 0.31191 0.13476 0.0
C1237 C 0.886 0.30094 0.15602 0.0
C1238 C 0.887 0.3062 0.2234 0.0
C1239 C 0.89964 0.25343 0.26616 0.0
C1240 C 0.89413 0.26766 0.2439 0.0
C1241 C 0.87653 0.30757 0.17884 0.0
C1242 C 0.88351 0.29407 0.20115 0.0
H1243 H 0.93118 0.20315 0.28278 0.0
H1244 H 0.92491 0.22923 0.24804 0.0
H1245 H 0.89506 0.30293 0.26141 0.0
H1246 H 0.8364 0.35073 0.16047 0.0
H1247 H 0.8512 0.33149 0.19725 0.0
C1248 C 0.06112 0.07444 0.60899 0.0
C1249 C 0.04972 0.09404 0.6208 0.0
C1250 C 0.04876 0.05235 0.60588 0.0
C1251 C 0.00229 0.01731 0.63685 0.0
H1252 H 0.00055 0.97605 0.57969 0.0
C1253 C 0.97712 0.91711 0.64282 0.0
C1254 C 0.95788 0.90916 0.62798 0.0
C1255 C 0.98801 0.9396 0.63893 0.0
C1256 C 0.00082 0.98753 0.59569 0.0
H1257 H 0.0158 0.1064 0.63683 0.0
H1258 H 0.99459 0.06813 0.63154 0.0
H1259 H 0.02011 0.01627 0.57751 0.0
H1260 H 0.93568 0.91832 0.59673 0.0
H1261 H 0.95517 0.95794 0.58975 0.0
H1262 H 0.98359 0.98866 0.65523 0.0
C1263 C 0.01311 0.06963 0.62503 0.0
C1264 C 0.01212 0.01036 0.5945 0.0
C1265 C 0.02534 0.09157 0.62806 0.0
C1266 C 0.95035 0.92399 0.60856 0.0
C1267 C 0.96155 0.94654 0.60447 0.0
C1268 C 0.99139 0.99451 0.63812 0.0
C1269 C 0.02488 0.04958 0.61459 0.0
C1270 C 0.0129 0.02545 0.61511 0.0
C1271 C 0.98017 0.95468 0.61996 0.0
C1272 C 0.99064 0.97934 0.61764 0.0
H1273 H 0.07985 0.07581 0.60309 0.0
H1274 H 0.05825 0.03712 0.59779 0.0
H1275 H 0.00283 0.02842 0.6531 0.0
H1276 H 0.98352 0.90621 0.6579 0.0
H1277 H 0.00247 0.94537 0.65099 0.0
C1278 C 0.97399 0.08844 0.3722 0.0
C1279 C 0.94992 0.09153 0.38025 0.0
C1280 C 0.98591 0.06633 0.37524 0.0
C1281 C 0.98759 0.00792 0.40687 0.0
H1282 H 0.01199 0.98415 0.3451 0.0
C1283 C 0.04943 0.92196 0.39193 0.0
C1284 C 0.04159 0.90653 0.3731 0.0
C1285 C 0.03773 0.94424 0.39606 0.0
C1286 C 0.00529 0.99054 0.36248 0.0
H1287 H 0.92016 0.07429 0.39946 0.0
H1288 H 0.94126 0.03531 0.40487 0.0
H1289 H 0.9931 0.0241 0.34727 0.0
H1290 H 0.01473 0.90208 0.34448 0.0
H1291 H 0.99484 0.94082 0.35146 0.0
H1292 H 5e-05 0.97405 0.42197 0.0
C1293 C 0.95071 0.05019 0.39611 0.0
C1294 C 0.99461 0.01345 0.36376 0.0
C1295 C 0.93864 0.07244 0.39295 0.0
C1296 C 0.02142 0.91351 0.35903 0.0
C1297 C 0.00999 0.93574 0.36298 0.0
C1298 C 0.99869 0.98498 0.40565 0.0
C1299 C 0.97416 0.04675 0.38653 0.0
C1300 C 0.9856 0.02237 0.38591 0.0
C1301 C 0.01823 0.9515 0.38123 0.0
C1302 C 0.00741 0.97605 0.38335 0.0
H1303 H 0.98344 0.10286 0.36271 0.0
H1304 H 0.00412 0.06428 0.36803 0.0
H1305 H 0.98081 0.01445 0.42416 0.0
H1306 H 0.06481 0.91702 0.40318 0.0
H1307 H 0.04445 0.95615 0.41021 0.0
C1308 C 0.60705 0.9441 0.92179 0.0
C1309 C 0.62273 0.95478 0.90465 0.0
C1310 C 0.60298 0.95536 0.94432 0.0
C1311 C 0.6354 0.99291 0.98704 0.0
H1312 H 0.57372 0.00745 0.018 0.0
C1313 C 0.63111 0.02018 0.0866 0.0
C1314 C 0.62026 0.04286 0.09131 0.0
C1315 C 0.6277 0.00861 0.06436 0.0
C1316 C 0.59101 0.00347 0.00947 0.0
H1317 H 0.64526 0.98638 0.89727 0.0
H1318 H 0.63849 0.00549 0.93642 0.0
H1319 H 0.57437 0.98902 0.97714 0.0
H1320 H 0.59595 0.07032 0.07687 0.0
H1321 H 0.58989 0.04976 0.03769 0.0
H1322 H 0.65217 0.00696 0.01911 0.0
C1323 C 0.62945 0.98844 0.93252 0.0
C1324 C 0.59137 0.99284 0.98628 0.0
C1325 C 0.63331 0.97741 0.91008 0.0
C1326 C 0.60468 0.05296 0.07373 0.0
C1327 C 0.60112 0.04118 0.05139 0.0
C1328 C 0.63504 0.00308 0.0102 0.0
C1329 C 0.61472 0.9773 0.95005 0.0
C1330 C 0.61363 0.98769 0.97484 0.0
C1331 C 0.61322 0.01926 0.04631 0.0
C1332 C 0.6129 0.00851 0.02164 0.0
H1333 H 0.5985 0.92676 0.91811 0.0
H1334 H 0.59158 0.94641 0.95763 0.0
H1335 H 0.65279 0.98897 0.97867 0.0
H1336 H 0.64294 0.01163 0.0998 0.0
H1337 H 0.63698 0.99156 0.06099 0.0
C1338 C 0.39644 0.9401 0.07916 0.0
C1339 C 0.38111 0.9515 0.09613 0.0
C1340 C 0.40222 0.95167 0.05721 0.0
C1341 C 0.39474 0.97214 0.00631 0.0
H1342 H 0.39804 0.04237 0.0015 0.0
C1343 C 0.3641 0.02283 0.92113 0.0
C1344 C 0.37534 0.04472 0.91428 0.0
C1345 C 0.37076 0.011 0.9425 0.0
C1346 C 0.39762 0.02272 0.00243 0.0
H1347 H 0.36072 0.98445 0.10375 0.0
H1348 H 0.37028 0.00414 0.06567 0.0
H1349 H 0.40046 0.02302 0.0412 0.0
H1350 H 0.403 0.07094 0.92425 0.0
H1351 H 0.41484 0.05005 0.9617 0.0
H1352 H 0.39185 0.97184 0.96756 0.0
C1353 C 0.37821 0.9865 0.06926 0.0
C1354 C 0.3987 0.01161 0.02525 0.0
C1355 C 0.37249 0.97502 0.09109 0.0
C1356 C 0.39387 0.0542 0.92909 0.0
C1357 C 0.4006 0.04226 0.95057 0.0
C1358 C 0.39384 0.98323 0.98348 0.0
C1359 C 0.39283 0.97487 0.05184 0.0
C1360 C 0.39633 0.98625 0.02754 0.0
C1361 C 0.38895 0.0206 0.95762 0.0
C1362 C 0.39433 0.0087 0.98133 0.0
H1363 H 0.4035 0.92205 0.08257 0.0
H1364 H 0.41376 0.94229 0.04431 0.0
H1365 H 0.39281 0.95259 0.00732 0.0
H1366 H 0.34976 0.01495 0.91021 0.0
H1367 H 0.36101 0.99466 0.94752 0.0
C1368 C 0.90536 0.61183 0.97702 0.0
C1369 C 0.90649 0.61177 0.95151 0.0
C1370 C 0.92599 0.60687 0.99086 0.0
C1371 C 0.99023 0.58575 0.98935 0.0
H1372 H 0.99862 0.63651 0.03756 0.0
C1373 C 0.07614 0.5986 0.05201 0.0
C1374 C 0.08573 0.62223 0.05027 0.0
C1375 C 0.05352 0.59309 0.04152 0.0
C1376 C 0.99645 0.62207 0.02435 0.0
H1377 H 0.92965 0.60465 0.92048 0.0
H1378 H 0.96606 0.59646 0.94476 0.0
H1379 H 0.96025 0.63305 0.01605 0.0
H1380 H 0.07901 0.65858 0.03643 0.0
H1381 H 0.03981 0.64908 0.01874 0.0
H1382 H 0.02713 0.57556 0.9973 0.0
C1383 C 0.94909 0.60009 0.95404 0.0
C1384 C 0.97439 0.61994 0.01212 0.0
C1385 C 0.92827 0.60485 0.94011 0.0
C1386 C 0.07225 0.64017 0.03807 0.0
C1387 C 0.0497 0.63479 0.02801 0.0
C1388 C 0.01238 0.58779 0.00183 0.0
C1389 C 0.94835 0.602 0.97955 0.0
C1390 C 0.97111 0.60207 0.99414 0.0
C1391 C 0.04005 0.61127 0.02963 0.0
C1392 C 0.01582 0.60638 0.01899 0.0
H1393 H 0.88871 0.61671 0.98635 0.0
H1394 H 0.92466 0.60793 0.01047 0.0
H1395 H 0.9882 0.57173 0.9757 0.0
H1396 H 0.08619 0.58439 0.0612 0.0
H1397 H 0.0464 0.57481 0.04301 0.0
C1398 C 0.07589 0.39051 0.94262 0.0
C1399 C 0.09387 0.3755 0.95287 0.0
C1400 C 0.05361 0.39394 0.95456 0.0
C1401 C 0.01363 0.36073 0.99497 0.0
H1402 H 0.97937 0.4214 0.00586 0.0
C1403 C 0.91369 0.36176 0.02097 0.0
C1404 C 0.90791 0.37362 0.04288 0.0
C1405 C 0.93607 0.36544 0.00978 0.0
C1406 C 0.98886 0.4044 0.00297 0.0
H1407 H 0.10307 0.35363 0.98446 0.0
H1408 H 0.06444 0.3594 0.00485 0.0
H1409 H 0.01998 0.42182 0.98691 0.0
H1410 H 0.92066 0.39988 0.06937 0.0
H1411 H 0.96012 0.40646 0.04942 0.0
H1412 H 0.98269 0.34319 0.01054 0.0
C1413 C 0.0674 0.3683 0.98754 0.0
C1414 C 0.01191 0.40462 0.99202 0.0
C1415 C 0.08955 0.36499 0.97577 0.0
C1416 C 0.92462 0.39035 0.05261 0.0
C1417 C 0.94711 0.3942 0.04118 0.0
C1418 C 0.99062 0.36049 0.00549 0.0
C1419 C 0.04899 0.38229 0.97683 0.0
C1420 C 0.02451 0.38273 0.98805 0.0
C1421 C 0.95321 0.38123 0.02003 0.0
C1422 C 0.97797 0.38226 0.00955 0.0
H1423 H 0.07872 0.39898 0.92508 0.0
H1424 H 0.03965 0.40478 0.94591 0.0
H1425 H 0.02283 0.34358 0.99194 0.0
H1426 H 0.9012 0.349 0.01269 0.0
H1427 H 0.94023 0.35546 0.99332 0.0
loop_
_geom_bond_atom_site_label_1
_geom_bond_atom_site_label_2
_geom_bond_distance
_geom_bond_site_symmetry_2
_ccdc_geom_bond_type
Co0 O2 2.143 . S
Co0 O8 2.074 . S
Co0 O11 2.093 . S
Co0 O24 2.097 . S
Co0 N41 2.151 . S
Co0 N49 2.214 . S
Co1 O2 2.160 . S
Co1 O7 2.058 . S
Co1 O17 2.057 . S
Co1 O32 2.037 . S
Co1 N36 2.145 . S
Co1 N57 2.257 . S
O2 Co0 2.143 . S
O2 Co1 2.160 . S
C3 O4 1.278 . S
C3 O11 1.224 . S
O4 C3 1.278 . S
C5 O6 1.245 . S
C5 O17 1.232 . S
O6 C5 1.245 . S
O7 Co1 2.058 . S
O7 C33 1.269 . S
O8 Co0 2.074 . S
O8 C33 1.257 . S
H9 C34 0.930 . S
H10 C40 0.930 . S
O11 Co0 2.093 . S
O11 C3 1.224 . S
H12 C44 0.929 . S
H13 C46 0.930 . S
H14 C47 0.930 . S
H15 C45 0.929 . S
H16 C48 0.928 . S
O17 Co1 2.057 . S
O17 C5 1.232 . S
H18 C37 0.929 . S
H19 C38 0.929 . S
H20 C50 0.931 . S
H21 C42 0.929 . S
H22 C51 0.930 . S
H23 C43 0.931 . S
O24 Co0 2.097 . S
O24 C52 1.214 . S
H25 C53 0.929 . S
H26 C54 0.929 . S
H27 C55 0.930 . S
H28 C56 0.929 . S
H29 C58 0.930 . S
H30 C35 0.930 . S
H31 C39 0.930 . S
O32 Co1 2.037 . S
O32 C52 1.234 . S
C33 O7 1.269 . S
C33 O8 1.257 . S
C34 H9 0.930 . S
C34 C37 1.388 . S
C34 C39 1.418 . S
C35 H30 0.930 . S
C35 C38 1.404 . S
C35 C39 1.353 . S
N36 Co1 2.145 . S
N36 C37 1.397 . S
N36 C38 1.334 . S
C37 H18 0.929 . S
C37 C34 1.388 . S
C37 N36 1.397 . S
C38 H19 0.929 . S
C38 C35 1.404 . S
C38 N36 1.334 . S
C39 H31 0.930 . S
C39 C34 1.418 . S
C39 C35 1.353 . S
C40 H10 0.930 . S
C40 N41 1.330 . S
C40 C42 1.446 1_455 S
N41 Co0 2.151 . S
N41 C40 1.330 . S
N41 C45 1.418 . S
C42 H21 0.929 . S
C42 C40 1.446 1_655 S
C42 C43 1.332 . S
C43 H23 0.931 . S
C43 C42 1.332 . S
C43 C44 1.267 1_655 S
C44 H12 0.929 . S
C44 C43 1.267 1_455 S
C44 C45 1.251 . S
C45 H15 0.929 . S
C45 N41 1.418 . S
C45 C44 1.251 . S
C46 H13 0.930 . S
C46 C48 1.406 . S
C46 C51 1.261 . S
C47 H14 0.930 . S
C47 N49 1.325 . S
C47 C50 1.357 . S
C48 H16 0.928 . S
C48 C46 1.406 . S
C48 N49 1.261 . S
N49 Co0 2.214 . S
N49 C47 1.325 . S
N49 C48 1.261 . S
C50 H20 0.931 . S
C50 C47 1.357 . S
C50 C51 1.312 . S
C51 H22 0.930 . S
C51 C46 1.261 . S
C51 C50 1.312 . S
C52 O24 1.214 . S
C52 O32 1.234 . S
C53 H25 0.929 . S
C53 C56 1.391 . S
C53 C58 1.391 . S
C54 H26 0.929 . S
C54 C55 1.390 . S
C54 N57 1.391 . S
C55 H27 0.930 . S
C55 C54 1.390 . S
C55 C56 1.392 . S
C56 H28 0.929 . S
C56 C53 1.391 . S
C56 C55 1.392 . S
N57 Co1 2.257 . S
N57 C54 1.391 . S
N57 C58 1.388 . S
C58 H29 0.930 . S
C58 C53 1.391 . S
C58 N57 1.388 . S
Co59 O61 2.143 . S
Co59 O67 2.074 . S
Co59 O70 2.093 . S
Co59 O83 2.097 . S
Co59 N100 2.151 . S
Co59 N108 2.214 . S
Co60 O61 2.160 . S
Co60 O66 2.058 . S
Co60 O76 2.057 . S
Co60 O91 2.037 . S
Co60 N95 2.145 . S
Co60 N116 2.257 . S
O61 Co59 2.143 . S
O61 Co60 2.160 . S
C62 O63 1.278 . S
C62 O70 1.224 . S
O63 C62 1.278 . S
C64 O65 1.245 . S
C64 O76 1.232 . S
O65 C64 1.245 . S
O66 Co60 2.058 . S
O66 C92 1.269 . S
O67 Co59 2.074 . S
O67 C92 1.257 . S
H68 C93 0.930 . S
H69 C99 0.930 . S
O70 Co59 2.093 . S
O70 C62 1.224 . S
H71 C103 0.929 . S
H72 C105 0.930 . S
H73 C106 0.930 . S
H74 C104 0.929 . S
H75 C107 0.928 . S
O76 Co60 2.057 . S
O76 C64 1.232 . S
H77 C96 0.929 . S
H78 C97 0.929 . S
H79 C109 0.931 . S
H80 C101 0.929 . S
H81 C110 0.930 . S
H82 C102 0.931 . S
O83 Co59 2.097 . S
O83 C111 1.214 . S
H84 C112 0.929 . S
H85 C113 0.929 . S
H86 C114 0.930 . S
H87 C115 0.929 . S
H88 C117 0.930 . S
H89 C94 0.930 . S
H90 C98 0.930 . S
O91 Co60 2.037 . S
O91 C111 1.234 . S
C92 O66 1.269 . S
C92 O67 1.257 . S
C93 H68 0.930 . S
C93 C96 1.388 . S
C93 C98 1.418 . S
C94 H89 0.930 . S
C94 C97 1.404 . S
C94 C98 1.353 . S
N95 Co60 2.145 . S
N95 C96 1.397 . S
N95 C97 1.334 . S
C96 H77 0.929 . S
C96 C93 1.388 . S
C96 N95 1.397 . S
C97 H78 0.929 . S
C97 C94 1.404 . S
C97 N95 1.334 . S
C98 H90 0.930 . S
C98 C93 1.418 . S
C98 C94 1.353 . S
C99 H69 0.930 . S
C99 N100 1.330 . S
C99 C101 1.446 1_655 S
N100 Co59 2.151 . S
N100 C99 1.330 . S
N100 C104 1.418 . S
C101 H80 0.929 . S
C101 C99 1.446 1_455 S
C101 C102 1.332 . S
C102 H82 0.931 . S
C102 C101 1.332 . S
C102 C103 1.267 1_455 S
C103 H71 0.929 . S
C103 C102 1.267 1_655 S
C103 C104 1.251 . S
C104 H74 0.929 . S
C104 N100 1.418 . S
C104 C103 1.251 . S
C105 H72 0.930 . S
C105 C107 1.406 . S
C105 C110 1.261 . S
C106 H73 0.930 . S
C106 N108 1.325 . S
C106 C109 1.357 . S
C107 H75 0.928 . S
C107 C105 1.406 . S
C107 N108 1.261 . S
N108 Co59 2.214 . S
N108 C106 1.325 . S
N108 C107 1.261 . S
C109 H79 0.931 . S
C109 C106 1.357 . S
C109 C110 1.312 . S
C110 H81 0.930 . S
C110 C105 1.261 . S
C110 C109 1.312 . S
C111 O83 1.214 . S
C111 O91 1.234 . S
C112 H84 0.929 . S
C112 C115 1.391 . S
C112 C117 1.391 . S
C113 H85 0.929 . S
C113 C114 1.390 . S
C113 N116 1.391 . S
C114 H86 0.930 . S
C114 C113 1.390 . S
C114 C115 1.392 . S
C115 H87 0.929 . S
C115 C112 1.391 . S
C115 C114 1.392 . S
N116 Co60 2.257 . S
N116 C113 1.391 . S
N116 C117 1.388 . S
C117 H88 0.930 . S
C117 C112 1.391 . S
C117 N116 1.388 . S
Co118 O120 2.143 . S
Co118 O126 2.074 . S
Co118 O129 2.093 . S
Co118 O142 2.097 . S
Co118 N159 2.151 . S
Co118 N167 2.214 . S
Co119 O120 2.160 . S
Co119 O125 2.058 . S
Co119 O135 2.057 . S
Co119 O150 2.037 . S
Co119 N154 2.145 . S
Co119 N175 2.257 . S
O120 Co118 2.143 . S
O120 Co119 2.160 . S
C121 O122 1.278 . S
C121 O129 1.224 . S
O122 C121 1.278 . S
C123 O124 1.245 . S
C123 O135 1.232 . S
O124 C123 1.245 . S
O125 Co119 2.058 . S
O125 C151 1.269 . S
O126 Co118 2.074 . S
O126 C151 1.257 . S
H127 C152 0.930 . S
H128 C158 0.930 . S
O129 Co118 2.093 . S
O129 C121 1.224 . S
H130 C162 0.929 . S
H131 C164 0.930 . S
H132 C165 0.930 . S
H133 C163 0.929 . S
H134 C166 0.928 . S
O135 Co119 2.057 . S
O135 C123 1.232 . S
H136 C155 0.929 . S
H137 C156 0.929 . S
H138 C168 0.931 . S
H139 C160 0.929 . S
H140 C169 0.930 . S
H141 C161 0.931 . S
O142 Co118 2.097 . S
O142 C170 1.214 . S
H143 C171 0.929 . S
H144 C172 0.929 . S
H145 C173 0.930 . S
H146 C174 0.929 . S
H147 C176 0.930 . S
H148 C153 0.930 . S
H149 C157 0.930 . S
O150 Co119 2.037 . S
O150 C170 1.234 . S
C151 O125 1.269 . S
C151 O126 1.257 . S
C152 H127 0.930 . S
C152 C155 1.388 . S
C152 C157 1.418 . S
C153 H148 0.930 . S
C153 C156 1.404 . S
C153 C157 1.353 . S
N154 Co119 2.145 . S
N154 C155 1.397 . S
N154 C156 1.334 . S
C155 H136 0.929 . S
C155 C152 1.388 . S
C155 N154 1.397 . S
C156 H137 0.929 . S
C156 C153 1.404 . S
C156 N154 1.334 . S
C157 H149 0.930 . S
C157 C152 1.418 . S
C157 C153 1.353 . S
C158 H128 0.930 . S
C158 N159 1.330 . S
C158 C160 1.446 1_455 S
N159 Co118 2.151 . S
N159 C158 1.330 . S
N159 C163 1.418 . S
C160 H139 0.929 . S
C160 C158 1.446 1_655 S
C160 C161 1.332 . S
C161 H141 0.931 . S
C161 C160 1.332 . S
C161 C162 1.267 1_655 S
C162 H130 0.929 . S
C162 C161 1.267 1_455 S
C162 C163 1.251 . S
C163 H133 0.929 . S
C163 N159 1.418 . S
C163 C162 1.251 . S
C164 H131 0.930 . S
C164 C166 1.406 . S
C164 C169 1.261 . S
C165 H132 0.930 . S
C165 N167 1.325 . S
C165 C168 1.357 . S
C166 H134 0.928 . S
C166 C164 1.406 . S
C166 N167 1.261 . S
N167 Co118 2.214 . S
N167 C165 1.325 . S
N167 C166 1.261 . S
C168 H138 0.931 . S
C168 C165 1.357 . S
C168 C169 1.312 . S
C169 H140 0.930 . S
C169 C164 1.261 . S
C169 C168 1.312 . S
C170 O142 1.214 . S
C170 O150 1.234 . S
C171 H143 0.929 . S
C171 C174 1.391 . S
C171 C176 1.391 . S
C172 H144 0.929 . S
C172 C173 1.390 . S
C172 N175 1.391 . S
C173 H145 0.930 . S
C173 C172 1.390 . S
C173 C174 1.392 . S
C174 H146 0.929 . S
C174 C171 1.391 . S
C174 C173 1.392 . S
N175 Co119 2.257 . S
N175 C172 1.391 . S
N175 C176 1.388 . S
C176 H147 0.930 . S
C176 C171 1.391 . S
C176 N175 1.388 . S
Co177 O179 2.143 . S
Co177 O185 2.074 . S
Co177 O188 2.093 . S
Co177 O201 2.097 . S
Co177 N218 2.151 . S
Co177 N226 2.214 . S
Co178 O179 2.160 . S
Co178 O184 2.058 . S
Co178 O194 2.057 . S
Co178 O209 2.037 . S
Co178 N213 2.145 . S
Co178 N234 2.257 . S
O179 Co177 2.143 . S
O179 Co178 2.160 . S
C180 O181 1.278 . S
C180 O188 1.224 . S
O181 C180 1.278 . S
C182 O183 1.245 . S
C182 O194 1.232 . S
O183 C182 1.245 . S
O184 Co178 2.058 . S
O184 C210 1.269 . S
O185 Co177 2.074 . S
O185 C210 1.257 . S
H186 C211 0.930 . S
H187 C217 0.930 . S
O188 Co177 2.093 . S
O188 C180 1.224 . S
H189 C221 0.929 . S
H190 C223 0.930 . S
H191 C224 0.930 . S
H192 C222 0.929 . S
H193 C225 0.928 . S
O194 Co178 2.057 . S
O194 C182 1.232 . S
H195 C214 0.929 . S
H196 C215 0.929 . S
H197 C227 0.931 . S
H198 C219 0.929 . S
H199 C228 0.930 . S
H200 C220 0.931 . S
O201 Co177 2.097 . S
O201 C229 1.214 . S
H202 C230 0.929 . S
H203 C231 0.929 . S
H204 C232 0.930 . S
H205 C233 0.929 . S
H206 C235 0.930 . S
H207 C212 0.930 . S
H208 C216 0.930 . S
O209 Co178 2.037 . S
O209 C229 1.234 . S
C210 O184 1.269 . S
C210 O185 1.257 . S
C211 H186 0.930 . S
C211 C214 1.388 . S
C211 C216 1.418 . S
C212 H207 0.930 . S
C212 C215 1.404 . S
C212 C216 1.353 . S
N213 Co178 2.145 . S
N213 C214 1.397 . S
N213 C215 1.334 . S
C214 H195 0.929 . S
C214 C211 1.388 . S
C214 N213 1.397 . S
C215 H196 0.929 . S
C215 C212 1.404 . S
C215 N213 1.334 . S
C216 H208 0.930 . S
C216 C211 1.418 . S
C216 C212 1.353 . S
C217 H187 0.930 . S
C217 N218 1.330 . S
C217 C219 1.446 1_655 S
N218 Co177 2.151 . S
N218 C217 1.330 . S
N218 C222 1.418 . S
C219 H198 0.929 . S
C219 C217 1.446 1_455 S
C219 C220 1.332 . S
C220 H200 0.931 . S
C220 C219 1.332 . S
C220 C221 1.267 1_455 S
C221 H189 0.929 . S
C221 C220 1.267 1_655 S
C221 C222 1.251 . S
C222 H192 0.929 . S
C222 N218 1.418 . S
C222 C221 1.251 . S
C223 H190 0.930 . S
C223 C225 1.406 . S
C223 C228 1.261 . S
C224 H191 0.930 . S
C224 N226 1.325 . S
C224 C227 1.357 . S
C225 H193 0.928 . S
C225 C223 1.406 . S
C225 N226 1.261 . S
N226 Co177 2.214 . S
N226 C224 1.325 . S
N226 C225 1.261 . S
C227 H197 0.931 . S
C227 C224 1.357 . S
C227 C228 1.312 . S
C228 H199 0.930 . S
C228 C223 1.261 . S
C228 C227 1.312 . S
C229 O201 1.214 . S
C229 O209 1.234 . S
C230 H202 0.929 . S
C230 C233 1.391 . S
C230 C235 1.391 . S
C231 H203 0.929 . S
C231 C232 1.390 . S
C231 N234 1.391 . S
C232 H204 0.930 . S
C232 C231 1.390 . S
C232 C233 1.392 . S
C233 H205 0.929 . S
C233 C230 1.391 . S
C233 C232 1.392 . S
N234 Co178 2.257 . S
N234 C231 1.391 . S
N234 C235 1.388 . S
C235 H206 0.930 . S
C235 C230 1.391 . S
C235 N234 1.388 . S
Co236 O238 2.143 . S
Co236 O244 2.074 . S
Co236 O247 2.093 . S
Co236 O260 2.097 . S
Co236 N277 2.151 . S
Co236 N285 2.214 . S
Co237 O238 2.160 . S
Co237 O243 2.058 . S
Co237 O253 2.057 . S
Co237 O268 2.037 . S
Co237 N272 2.145 . S
Co237 N293 2.257 . S
O238 Co236 2.143 . S
O238 Co237 2.160 . S
C239 O240 1.278 . S
C239 O247 1.224 . S
O240 C239 1.278 . S
C241 O242 1.245 . S
C241 O253 1.232 . S
O242 C241 1.245 . S
O243 Co237 2.058 . S
O243 C269 1.269 . S
O244 Co236 2.074 . S
O244 C269 1.257 . S
H245 C270 0.930 . S
H246 C276 0.930 . S
O247 Co236 2.093 . S
O247 C239 1.224 . S
H248 C280 0.929 . S
H249 C282 0.930 . S
H250 C283 0.930 . S
H251 C281 0.929 . S
H252 C284 0.928 . S
O253 Co237 2.057 . S
O253 C241 1.232 . S
H254 C273 0.929 . S
H255 C274 0.929 . S
H256 C286 0.931 . S
H257 C278 0.929 . S
H258 C287 0.930 . S
H259 C279 0.931 . S
O260 Co236 2.097 . S
O260 C288 1.214 . S
H261 C289 0.929 . S
H262 C290 0.929 . S
H263 C291 0.930 . S
H264 C292 0.929 . S
H265 C294 0.930 . S
H266 C271 0.930 . S
H267 C275 0.930 . S
O268 Co237 2.037 . S
O268 C288 1.234 . S
C269 O243 1.269 . S
C269 O244 1.257 . S
C270 H245 0.930 . S
C270 C273 1.388 . S
C270 C275 1.418 . S
C271 H266 0.930 . S
C271 C274 1.404 . S
C271 C275 1.353 . S
N272 Co237 2.145 . S
N272 C273 1.397 . S
N272 C274 1.334 . S
C273 H254 0.929 . S
C273 C270 1.388 . S
C273 N272 1.397 . S
C274 H255 0.929 . S
C274 C271 1.404 . S
C274 N272 1.334 . S
C275 H267 0.930 . S
C275 C270 1.418 . S
C275 C271 1.353 . S
C276 H246 0.930 . S
C276 N277 1.330 . S
C276 C278 1.446 1_545 S
N277 Co236 2.151 . S
N277 C276 1.330 . S
N277 C281 1.418 . S
C278 H257 0.929 . S
C278 C276 1.446 1_565 S
C278 C279 1.332 . S
C279 H259 0.931 . S
C279 C278 1.332 . S
C279 C280 1.267 1_565 S
C280 H248 0.929 . S
C280 C279 1.267 1_545 S
C280 C281 1.251 . S
C281 H251 0.929 . S
C281 N277 1.418 . S
C281 C280 1.251 . S
C282 H249 0.930 . S
C282 C284 1.406 . S
C282 C287 1.261 . S
C283 H250 0.930 . S
C283 N285 1.325 . S
C283 C286 1.357 . S
C284 H252 0.928 . S
C284 C282 1.406 . S
C284 N285 1.261 . S
N285 Co236 2.214 . S
N285 C283 1.325 . S
N285 C284 1.261 . S
C286 H256 0.931 . S
C286 C283 1.357 . S
C286 C287 1.312 . S
C287 H258 0.930 . S
C287 C282 1.261 . S
C287 C286 1.312 . S
C288 O260 1.214 . S
C288 O268 1.234 . S
C289 H261 0.929 . S
C289 C292 1.391 . S
C289 C294 1.391 . S
C290 H262 0.929 . S
C290 C291 1.390 . S
C290 N293 1.391 . S
C291 H263 0.930 . S
C291 C290 1.390 . S
C291 C292 1.392 . S
C292 H264 0.929 . S
C292 C289 1.391 . S
C292 C291 1.392 . S
N293 Co237 2.257 . S
N293 C290 1.391 . S
N293 C294 1.388 . S
C294 H265 0.930 . S
C294 C289 1.391 . S
C294 N293 1.388 . S
Co295 O297 2.143 . S
Co295 O303 2.074 . S
Co295 O306 2.093 . S
Co295 O319 2.097 . S
Co295 N336 2.151 . S
Co295 N344 2.214 . S
Co296 O297 2.160 . S
Co296 O302 2.058 . S
Co296 O312 2.057 . S
Co296 O327 2.037 . S
Co296 N331 2.145 . S
Co296 N352 2.257 . S
O297 Co295 2.143 . S
O297 Co296 2.160 . S
C298 O299 1.278 . S
C298 O306 1.224 . S
O299 C298 1.278 . S
C300 O301 1.245 . S
C300 O312 1.232 . S
O301 C300 1.245 . S
O302 Co296 2.058 . S
O302 C328 1.269 . S
O303 Co295 2.074 . S
O303 C328 1.257 . S
H304 C329 0.930 . S
H305 C335 0.930 . S
O306 Co295 2.093 . S
O306 C298 1.224 . S
H307 C339 0.929 . S
H308 C341 0.930 . S
H309 C342 0.930 . S
H310 C340 0.929 . S
H311 C343 0.928 . S
O312 Co296 2.057 . S
O312 C300 1.232 . S
H313 C332 0.929 . S
H314 C333 0.929 . S
H315 C345 0.931 . S
H316 C337 0.929 . S
H317 C346 0.930 . S
H318 C338 0.931 . S
O319 Co295 2.097 . S
O319 C347 1.214 . S
H320 C348 0.929 . S
H321 C349 0.929 . S
H322 C350 0.930 . S
H323 C351 0.929 . S
H324 C353 0.930 . S
H325 C330 0.930 . S
H326 C334 0.930 . S
O327 Co296 2.037 . S
O327 C347 1.234 . S
C328 O302 1.269 . S
C328 O303 1.257 . S
C329 H304 0.930 . S
C329 C332 1.388 . S
C329 C334 1.418 . S
C330 H325 0.930 . S
C330 C333 1.404 . S
C330 C334 1.353 . S
N331 Co296 2.145 . S
N331 C332 1.397 . S
N331 C333 1.334 . S
C332 H313 0.929 . S
C332 C329 1.388 . S
C332 N331 1.397 . S
C333 H314 0.929 . S
C333 C330 1.404 . S
C333 N331 1.334 . S
C334 H326 0.930 . S
C334 C329 1.418 . S
C334 C330 1.353 . S
C335 H305 0.930 . S
C335 N336 1.330 . S
C335 C337 1.446 1_565 S
N336 Co295 2.151 . S
N336 C335 1.330 . S
N336 C340 1.418 . S
C337 H316 0.929 . S
C337 C335 1.446 1_545 S
C337 C338 1.332 . S
C338 H318 0.931 . S
C338 C337 1.332 . S
C338 C339 1.267 1_545 S
C339 H307 0.929 . S
C339 C338 1.267 1_565 S
C339 C340 1.251 . S
C340 H310 0.929 . S
C340 N336 1.418 . S
C340 C339 1.251 . S
C341 H308 0.930 . S
C341 C343 1.406 . S
C341 C346 1.261 . S
C342 H309 0.930 . S
C342 N344 1.325 . S
C342 C345 1.357 . S
C343 H311 0.928 . S
C343 C341 1.406 . S
C343 N344 1.261 . S
N344 Co295 2.214 . S
N344 C342 1.325 . S
N344 C343 1.261 . S
C345 H315 0.931 . S
C345 C342 1.357 . S
C345 C346 1.312 . S
C346 H317 0.930 . S
C346 C341 1.261 . S
C346 C345 1.312 . S
C347 O319 1.214 . S
C347 O327 1.234 . S
C348 H320 0.929 . S
C348 C351 1.391 . S
C348 C353 1.391 . S
C349 H321 0.929 . S
C349 C350 1.390 . S
C349 N352 1.391 . S
C350 H322 0.930 . S
C350 C349 1.390 . S
C350 C351 1.392 . S
C351 H323 0.929 . S
C351 C348 1.391 . S
C351 C350 1.392 . S
N352 Co296 2.257 . S
N352 C349 1.391 . S
N352 C353 1.388 . S
C353 H324 0.930 . S
C353 C348 1.391 . S
C353 N352 1.388 . S
Co354 O356 2.143 . S
Co354 O362 2.074 . S
Co354 O365 2.093 . S
Co354 O378 2.097 . S
Co354 N395 2.151 . S
Co354 N403 2.214 . S
Co355 O356 2.160 . S
Co355 O361 2.058 . S
Co355 O371 2.057 . S
Co355 O386 2.037 . S
Co355 N390 2.145 . S
Co355 N411 2.257 . S
O356 Co354 2.143 . S
O356 Co355 2.160 . S
C357 O358 1.278 . S
C357 O365 1.224 . S
O358 C357 1.278 . S
C359 O360 1.245 . S
C359 O371 1.232 . S
O360 C359 1.245 . S
O361 Co355 2.058 . S
O361 C387 1.269 . S
O362 Co354 2.074 . S
O362 C387 1.257 . S
H363 C388 0.930 . S
H364 C394 0.930 . S
O365 Co354 2.093 . S
O365 C357 1.224 . S
H366 C398 0.929 . S
H367 C400 0.930 . S
H368 C401 0.930 . S
H369 C399 0.929 . S
H370 C402 0.928 . S
O371 Co355 2.057 . S
O371 C359 1.232 . S
H372 C391 0.929 . S
H373 C392 0.929 . S
H374 C404 0.931 . S
H375 C396 0.929 . S
H376 C405 0.930 . S
H377 C397 0.931 . S
O378 Co354 2.097 . S
O378 C406 1.214 . S
H379 C407 0.929 . S
H380 C408 0.929 . S
H381 C409 0.930 . S
H382 C410 0.929 . S
H383 C412 0.930 . S
H384 C389 0.930 . S
H385 C393 0.930 . S
O386 Co355 2.037 . S
O386 C406 1.234 . S
C387 O361 1.269 . S
C387 O362 1.257 . S
C388 H363 0.930 . S
C388 C391 1.388 . S
C388 C393 1.418 . S
C389 H384 0.930 . S
C389 C392 1.404 . S
C389 C393 1.353 . S
N390 Co355 2.145 . S
N390 C391 1.397 . S
N390 C392 1.334 . S
C391 H372 0.929 . S
C391 C388 1.388 . S
C391 N390 1.397 . S
C392 H373 0.929 . S
C392 C389 1.404 . S
C392 N390 1.334 . S
C393 H385 0.930 . S
C393 C388 1.418 . S
C393 C389 1.353 . S
C394 H364 0.930 . S
C394 N395 1.330 . S
C394 C396 1.446 1_565 S
N395 Co354 2.151 . S
N395 C394 1.330 . S
N395 C399 1.418 . S
C396 H375 0.929 . S
C396 C394 1.446 1_545 S
C396 C397 1.332 . S
C397 H377 0.931 . S
C397 C396 1.332 . S
C397 C398 1.267 1_545 S
C398 H366 0.929 . S
C398 C397 1.267 1_565 S
C398 C399 1.251 . S
C399 H369 0.929 . S
C399 N395 1.418 . S
C399 C398 1.251 . S
C400 H367 0.930 . S
C400 C402 1.406 . S
C400 C405 1.261 . S
C401 H368 0.930 . S
C401 N403 1.325 . S
C401 C404 1.357 . S
C402 H370 0.928 . S
C402 C400 1.406 . S
C402 N403 1.261 . S
N403 Co354 2.214 . S
N403 C401 1.325 . S
N403 C402 1.261 . S
C404 H374 0.931 . S
C404 C401 1.357 . S
C404 C405 1.312 . S
C405 H376 0.930 . S
C405 C400 1.261 . S
C405 C404 1.312 . S
C406 O378 1.214 . S
C406 O386 1.234 . S
C407 H379 0.929 . S
C407 C410 1.391 . S
C407 C412 1.391 . S
C408 H380 0.929 . S
C408 C409 1.390 . S
C408 N411 1.391 . S
C409 H381 0.930 . S
C409 C408 1.390 . S
C409 C410 1.392 . S
C410 H382 0.929 . S
C410 C407 1.391 . S
C410 C409 1.392 . S
N411 Co355 2.257 . S
N411 C408 1.391 . S
N411 C412 1.388 . S
C412 H383 0.930 . S
C412 C407 1.391 . S
C412 N411 1.388 . S
Co413 O415 2.143 . S
Co413 O421 2.074 . S
Co413 O424 2.093 . S
Co413 O437 2.097 . S
Co413 N454 2.151 . S
Co413 N462 2.214 . S
Co414 O415 2.160 . S
Co414 O420 2.058 . S
Co414 O430 2.057 . S
Co414 O445 2.037 . S
Co414 N449 2.145 . S
Co414 N470 2.257 . S
O415 Co413 2.143 . S
O415 Co414 2.160 . S
C416 O417 1.278 . S
C416 O424 1.224 . S
O417 C416 1.278 . S
C418 O419 1.245 . S
C418 O430 1.232 . S
O419 C418 1.245 . S
O420 Co414 2.058 . S
O420 C446 1.269 . S
O421 Co413 2.074 . S
O421 C446 1.257 . S
H422 C447 0.930 . S
H423 C453 0.930 . S
O424 Co413 2.093 . S
O424 C416 1.224 . S
H425 C457 0.929 . S
H426 C459 0.930 . S
H427 C460 0.930 . S
H428 C458 0.929 . S
H429 C461 0.928 . S
O430 Co414 2.057 . S
O430 C418 1.232 . S
H431 C450 0.929 . S
H432 C451 0.929 . S
H433 C463 0.931 . S
H434 C455 0.929 . S
H435 C464 0.930 . S
H436 C456 0.931 . S
O437 Co413 2.097 . S
O437 C465 1.214 . S
H438 C466 0.929 . S
H439 C467 0.929 . S
H440 C468 0.930 . S
H441 C469 0.929 . S
H442 C471 0.930 . S
H443 C448 0.930 . S
H444 C452 0.930 . S
O445 Co414 2.037 . S
O445 C465 1.234 . S
C446 O420 1.269 . S
C446 O421 1.257 . S
C447 H422 0.930 . S
C447 C450 1.388 . S
C447 C452 1.418 . S
C448 H443 0.930 . S
C448 C451 1.404 . S
C448 C452 1.353 . S
N449 Co414 2.145 . S
N449 C450 1.397 . S
N449 C451 1.334 . S
C450 H431 0.929 . S
C450 C447 1.388 . S
C450 N449 1.397 . S
C451 H432 0.929 . S
C451 C448 1.404 . S
C451 N449 1.334 . S
C452 H444 0.930 . S
C452 C447 1.418 . S
C452 C448 1.353 . S
C453 H423 0.930 . S
C453 N454 1.330 . S
C453 C455 1.446 1_545 S
N454 Co413 2.151 . S
N454 C453 1.330 . S
N454 C458 1.418 . S
C455 H434 0.929 . S
C455 C453 1.446 1_565 S
C455 C456 1.332 . S
C456 H436 0.931 . S
C456 C455 1.332 . S
C456 C457 1.267 1_565 S
C457 H425 0.929 . S
C457 C456 1.267 1_545 S
C457 C458 1.251 . S
C458 H428 0.929 . S
C458 N454 1.418 . S
C458 C457 1.251 . S
C459 H426 0.930 . S
C459 C461 1.406 . S
C459 C464 1.261 . S
C460 H427 0.930 . S
C460 N462 1.325 . S
C460 C463 1.357 . S
C461 H429 0.928 . S
C461 C459 1.406 . S
C461 N462 1.261 . S
N462 Co413 2.214 . S
N462 C460 1.325 . S
N462 C461 1.261 . S
C463 H433 0.931 . S
C463 C460 1.357 . S
C463 C464 1.312 . S
C464 H435 0.930 . S
C464 C459 1.261 . S
C464 C463 1.312 . S
C465 O437 1.214 . S
C465 O445 1.234 . S
C466 H438 0.929 . S
C466 C469 1.391 . S
C466 C471 1.391 . S
C467 H439 0.929 . S
C467 C468 1.390 . S
C467 N470 1.391 . S
C468 H440 0.930 . S
C468 C467 1.390 . S
C468 C469 1.392 . S
C469 H441 0.929 . S
C469 C466 1.391 . S
C469 C468 1.392 . S
N470 Co414 2.257 . S
N470 C467 1.391 . S
N470 C471 1.388 . S
C471 H442 0.930 . S
C471 C466 1.391 . S
C471 N470 1.388 . S
Co472 O474 2.143 . S
Co472 O480 2.074 . S
Co472 O483 2.093 . S
Co472 O496 2.097 . S
Co472 N513 2.151 . S
Co472 N521 2.214 . S
Co473 O474 2.160 . S
Co473 O479 2.058 . S
Co473 O489 2.057 . S
Co473 O504 2.037 . S
Co473 N508 2.145 . S
Co473 N529 2.257 . S
O474 Co472 2.143 . S
O474 Co473 2.160 . S
C475 O476 1.278 . S
C475 O483 1.224 . S
O476 C475 1.278 . S
C477 O478 1.245 . S
C477 O489 1.232 . S
O478 C477 1.245 . S
O479 Co473 2.058 . S
O479 C505 1.269 . S
O480 Co472 2.074 . S
O480 C505 1.257 . S
H481 C506 0.930 . S
H482 C512 0.930 . S
O483 Co472 2.093 . S
O483 C475 1.224 . S
H484 C516 0.929 . S
H485 C518 0.930 . S
H486 C519 0.930 . S
H487 C517 0.929 . S
H488 C520 0.928 . S
O489 Co473 2.057 . S
O489 C477 1.232 . S
H490 C509 0.929 . S
H491 C510 0.929 . S
H492 C522 0.931 . S
H493 C514 0.929 . S
H494 C523 0.930 . S
H495 C515 0.931 . S
O496 Co472 2.097 . S
O496 C524 1.214 . S
H497 C525 0.929 . S
H498 C526 0.929 . S
H499 C527 0.930 . S
H500 C528 0.929 . S
H501 C530 0.930 . S
H502 C507 0.930 . S
H503 C511 0.930 . S
O504 Co473 2.037 . S
O504 C524 1.234 . S
C505 O479 1.269 . S
C505 O480 1.257 . S
C506 H481 0.930 . S
C506 C509 1.388 . S
C506 C511 1.418 . S
C507 H502 0.930 . S
C507 C510 1.404 . S
C507 C511 1.353 . S
N508 Co473 2.145 . S
N508 C509 1.397 . S
N508 C510 1.334 . S
C509 H490 0.929 . S
C509 C506 1.388 . S
C509 N508 1.397 . S
C510 H491 0.929 . S
C510 C507 1.404 . S
C510 N508 1.334 . S
C511 H503 0.930 . S
C511 C506 1.418 . S
C511 C507 1.353 . S
C512 H482 0.930 . S
C512 N513 1.330 . S
C512 C514 1.446 1_554 S
N513 Co472 2.151 . S
N513 C512 1.330 . S
N513 C517 1.418 . S
C514 H493 0.929 . S
C514 C512 1.446 1_556 S
C514 C515 1.332 . S
C515 H495 0.931 . S
C515 C514 1.332 . S
C515 C516 1.267 1_556 S
C516 H484 0.929 . S
C516 C515 1.267 1_554 S
C516 C517 1.251 . S
C517 H487 0.929 . S
C517 N513 1.418 . S
C517 C516 1.251 . S
C518 H485 0.930 . S
C518 C520 1.406 . S
C518 C523 1.261 . S
C519 H486 0.930 . S
C519 N521 1.325 . S
C519 C522 1.357 . S
C520 H488 0.928 . S
C520 C518 1.406 . S
C520 N521 1.261 . S
N521 Co472 2.214 . S
N521 C519 1.325 . S
N521 C520 1.261 . S
C522 H492 0.931 . S
C522 C519 1.357 . S
C522 C523 1.312 . S
C523 H494 0.930 . S
C523 C518 1.261 . S
C523 C522 1.312 . S
C524 O496 1.214 . S
C524 O504 1.234 . S
C525 H497 0.929 . S
C525 C528 1.391 . S
C525 C530 1.391 . S
C526 H498 0.929 . S
C526 C527 1.390 . S
C526 N529 1.391 . S
C527 H499 0.930 . S
C527 C526 1.390 . S
C527 C528 1.392 . S
C528 H500 0.929 . S
C528 C525 1.391 . S
C528 C527 1.392 . S
N529 Co473 2.257 . S
N529 C526 1.391 . S
N529 C530 1.388 . S
C530 H501 0.930 . S
C530 C525 1.391 . S
C530 N529 1.388 . S
Co531 O533 2.143 . S
Co531 O539 2.074 . S
Co531 O542 2.093 . S
Co531 O555 2.097 . S
Co531 N572 2.151 . S
Co531 N580 2.214 . S
Co532 O533 2.160 . S
Co532 O538 2.058 . S
Co532 O548 2.057 . S
Co532 O563 2.037 . S
Co532 N567 2.145 . S
Co532 N588 2.257 . S
O533 Co531 2.143 . S
O533 Co532 2.160 . S
C534 O535 1.278 . S
C534 O542 1.224 . S
O535 C534 1.278 . S
C536 O537 1.245 . S
C536 O548 1.232 . S
O537 C536 1.245 . S
O538 Co532 2.058 . S
O538 C564 1.269 . S
O539 Co531 2.074 . S
O539 C564 1.257 . S
H540 C565 0.930 . S
H541 C571 0.930 . S
O542 Co531 2.093 . S
O542 C534 1.224 . S
H543 C575 0.929 . S
H544 C577 0.930 . S
H545 C578 0.930 . S
H546 C576 0.929 . S
H547 C579 0.928 . S
O548 Co532 2.057 . S
O548 C536 1.232 . S
H549 C568 0.929 . S
H550 C569 0.929 . S
H551 C581 0.931 . S
H552 C573 0.929 . S
H553 C582 0.930 . S
H554 C574 0.931 . S
O555 Co531 2.097 . S
O555 C583 1.214 . S
H556 C584 0.929 . S
H557 C585 0.929 . S
H558 C586 0.930 . S
H559 C587 0.929 . S
H560 C589 0.930 . S
H561 C566 0.930 . S
H562 C570 0.930 . S
O563 Co532 2.037 . S
O563 C583 1.234 . S
C564 O538 1.269 . S
C564 O539 1.257 . S
C565 H540 0.930 . S
C565 C568 1.388 . S
C565 C570 1.418 . S
C566 H561 0.930 . S
C566 C569 1.404 . S
C566 C570 1.353 . S
N567 Co532 2.145 . S
N567 C568 1.397 . S
N567 C569 1.334 . S
C568 H549 0.929 . S
C568 C565 1.388 . S
C568 N567 1.397 . S
C569 H550 0.929 . S
C569 C566 1.404 . S
C569 N567 1.334 . S
C570 H562 0.930 . S
C570 C565 1.418 . S
C570 C566 1.353 . S
C571 H541 0.930 . S
C571 N572 1.330 . S
C571 C573 1.446 1_556 S
N572 Co531 2.151 . S
N572 C571 1.330 . S
N572 C576 1.418 . S
C573 H552 0.929 . S
C573 C571 1.446 1_554 S
C573 C574 1.332 . S
C574 H554 0.931 . S
C574 C573 1.332 . S
C574 C575 1.267 1_554 S
C575 H543 0.929 . S
C575 C574 1.267 1_556 S
C575 C576 1.251 . S
C576 H546 0.929 . S
C576 N572 1.418 . S
C576 C575 1.251 . S
C577 H544 0.930 . S
C577 C579 1.406 . S
C577 C582 1.261 . S
C578 H545 0.930 . S
C578 N580 1.325 . S
C578 C581 1.357 . S
C579 H547 0.928 . S
C579 C577 1.406 . S
C579 N580 1.261 . S
N580 Co531 2.214 . S
N580 C578 1.325 . S
N580 C579 1.261 . S
C581 H551 0.931 . S
C581 C578 1.357 . S
C581 C582 1.312 . S
C582 H553 0.930 . S
C582 C577 1.261 . S
C582 C581 1.312 . S
C583 O555 1.214 . S
C583 O563 1.234 . S
C584 H556 0.929 . S
C584 C587 1.391 . S
C584 C589 1.391 . S
C585 H557 0.929 . S
C585 C586 1.390 . S
C585 N588 1.391 . S
C586 H558 0.930 . S
C586 C585 1.390 . S
C586 C587 1.392 . S
C587 H559 0.929 . S
C587 C584 1.391 . S
C587 C586 1.392 . S
N588 Co532 2.257 . S
N588 C585 1.391 . S
N588 C589 1.388 . S
C589 H560 0.930 . S
C589 C584 1.391 . S
C589 N588 1.388 . S
Co590 O592 2.143 . S
Co590 O598 2.074 . S
Co590 O601 2.093 . S
Co590 O614 2.097 . S
Co590 N631 2.151 . S
Co590 N639 2.214 . S
Co591 O592 2.160 . S
Co591 O597 2.058 . S
Co591 O607 2.057 . S
Co591 O622 2.037 . S
Co591 N626 2.145 . S
Co591 N647 2.257 . S
O592 Co590 2.143 . S
O592 Co591 2.160 . S
C593 O594 1.278 . S
C593 O601 1.224 . S
O594 C593 1.278 . S
C595 O596 1.245 . S
C595 O607 1.232 . S
O596 C595 1.245 . S
O597 Co591 2.058 . S
O597 C623 1.269 . S
O598 Co590 2.074 . S
O598 C623 1.257 . S
H599 C624 0.930 . S
H600 C630 0.930 . S
O601 Co590 2.093 . S
O601 C593 1.224 . S
H602 C634 0.929 . S
H603 C636 0.930 . S
H604 C637 0.930 . S
H605 C635 0.929 . S
H606 C638 0.928 . S
O607 Co591 2.057 . S
O607 C595 1.232 . S
H608 C627 0.929 . S
H609 C628 0.929 . S
H610 C640 0.931 . S
H611 C632 0.929 . S
H612 C641 0.930 . S
H613 C633 0.931 . S
O614 Co590 2.097 . S
O614 C642 1.214 . S
H615 C643 0.929 . S
H616 C644 0.929 . S
H617 C645 0.930 . S
H618 C646 0.929 . S
H619 C648 0.930 . S
H620 C625 0.930 . S
H621 C629 0.930 . S
O622 Co591 2.037 . S
O622 C642 1.234 . S
C623 O597 1.269 . S
C623 O598 1.257 . S
C624 H599 0.930 . S
C624 C627 1.388 . S
C624 C629 1.418 . S
C625 H620 0.930 . S
C625 C628 1.404 . S
C625 C629 1.353 . S
N626 Co591 2.145 . S
N626 C627 1.397 . S
N626 C628 1.334 . S
C627 H608 0.929 . S
C627 C624 1.388 . S
C627 N626 1.397 . S
C628 H609 0.929 . S
C628 C625 1.404 . S
C628 N626 1.334 . S
C629 H621 0.930 . S
C629 C624 1.418 . S
C629 C625 1.353 . S
C630 H600 0.930 . S
C630 N631 1.330 . S
C630 C632 1.446 1_556 S
N631 Co590 2.151 . S
N631 C630 1.330 . S
N631 C635 1.418 . S
C632 H611 0.929 . S
C632 C630 1.446 1_554 S
C632 C633 1.332 . S
C633 H613 0.931 . S
C633 C632 1.332 . S
C633 C634 1.267 1_554 S
C634 H602 0.929 . S
C634 C633 1.267 1_556 S
C634 C635 1.251 . S
C635 H605 0.929 . S
C635 N631 1.418 . S
C635 C634 1.251 . S
C636 H603 0.930 . S
C636 C638 1.406 . S
C636 C641 1.261 . S
C637 H604 0.930 . S
C637 N639 1.325 . S
C637 C640 1.357 . S
C638 H606 0.928 . S
C638 C636 1.406 . S
C638 N639 1.261 . S
N639 Co590 2.214 . S
N639 C637 1.325 . S
N639 C638 1.261 . S
C640 H610 0.931 . S
C640 C637 1.357 . S
C640 C641 1.312 . S
C641 H612 0.930 . S
C641 C636 1.261 . S
C641 C640 1.312 . S
C642 O614 1.214 . S
C642 O622 1.234 . S
C643 H615 0.929 . S
C643 C646 1.391 . S
C643 C648 1.391 . S
C644 H616 0.929 . S
C644 C645 1.390 . S
C644 N647 1.391 . S
C645 H617 0.930 . S
C645 C644 1.390 . S
C645 C646 1.392 . S
C646 H618 0.929 . S
C646 C643 1.391 . S
C646 C645 1.392 . S
N647 Co591 2.257 . S
N647 C644 1.391 . S
N647 C648 1.388 . S
C648 H619 0.930 . S
C648 C643 1.391 . S
C648 N647 1.388 . S
Co649 O651 2.143 . S
Co649 O657 2.074 . S
Co649 O660 2.093 . S
Co649 O673 2.097 . S
Co649 N690 2.151 . S
Co649 N698 2.214 . S
Co650 O651 2.160 . S
Co650 O656 2.058 . S
Co650 O666 2.057 . S
Co650 O681 2.037 . S
Co650 N685 2.145 . S
Co650 N706 2.257 . S
O651 Co649 2.143 . S
O651 Co650 2.160 . S
C652 O653 1.278 . S
C652 O660 1.224 . S
O653 C652 1.278 . S
C654 O655 1.245 . S
C654 O666 1.232 . S
O655 C654 1.245 . S
O656 Co650 2.058 . S
O656 C682 1.269 . S
O657 Co649 2.074 . S
O657 C682 1.257 . S
H658 C683 0.930 . S
H659 C689 0.930 . S
O660 Co649 2.093 . S
O660 C652 1.224 . S
H661 C693 0.929 . S
H662 C695 0.930 . S
H663 C696 0.930 . S
H664 C694 0.929 . S
H665 C697 0.928 . S
O666 Co650 2.057 . S
O666 C654 1.232 . S
H667 C686 0.929 . S
H668 C687 0.929 . S
H669 C699 0.931 . S
H670 C691 0.929 . S
H671 C700 0.930 . S
H672 C692 0.931 . S
O673 Co649 2.097 . S
O673 C701 1.214 . S
H674 C702 0.929 . S
H675 C703 0.929 . S
H676 C704 0.930 . S
H677 C705 0.929 . S
H678 C707 0.930 . S
H679 C684 0.930 . S
H680 C688 0.930 . S
O681 Co650 2.037 . S
O681 C701 1.234 . S
C682 O656 1.269 . S
C682 O657 1.257 . S
C683 H658 0.930 . S
C683 C686 1.388 . S
C683 C688 1.418 . S
C684 H679 0.930 . S
C684 C687 1.404 . S
C684 C688 1.353 . S
N685 Co650 2.145 . S
N685 C686 1.397 . S
N685 C687 1.334 . S
C686 H667 0.929 . S
C686 C683 1.388 . S
C686 N685 1.397 . S
C687 H668 0.929 . S
C687 C684 1.404 . S
C687 N685 1.334 . S
C688 H680 0.930 . S
C688 C683 1.418 . S
C688 C684 1.353 . S
C689 H659 0.930 . S
C689 N690 1.330 . S
C689 C691 1.446 1_554 S
N690 Co649 2.151 . S
N690 C689 1.330 . S
N690 C694 1.418 . S
C691 H670 0.929 . S
C691 C689 1.446 1_556 S
C691 C692 1.332 . S
C692 H672 0.931 . S
C692 C691 1.332 . S
C692 C693 1.267 1_556 S
C693 H661 0.929 . S
C693 C692 1.267 1_554 S
C693 C694 1.251 . S
C694 H664 0.929 . S
C694 N690 1.418 . S
C694 C693 1.251 . S
C695 H662 0.930 . S
C695 C697 1.406 . S
C695 C700 1.261 . S
C696 H663 0.930 . S
C696 N698 1.325 . S
C696 C699 1.357 . S
C697 H665 0.928 . S
C697 C695 1.406 . S
C697 N698 1.261 . S
N698 Co649 2.214 . S
N698 C696 1.325 . S
N698 C697 1.261 . S
C699 H669 0.931 . S
C699 C696 1.357 . S
C699 C700 1.312 . S
C700 H671 0.930 . S
C700 C695 1.261 . S
C700 C699 1.312 . S
C701 O673 1.214 . S
C701 O681 1.234 . S
C702 H674 0.929 . S
C702 C705 1.391 . S
C702 C707 1.391 . S
C703 H675 0.929 . S
C703 C704 1.390 . S
C703 N706 1.391 . S
C704 H676 0.930 . S
C704 C703 1.390 . S
C704 C705 1.392 . S
C705 H677 0.929 . S
C705 C702 1.391 . S
C705 C704 1.392 . S
N706 Co650 2.257 . S
N706 C703 1.391 . S
N706 C707 1.388 . S
C707 H678 0.930 . S
C707 C702 1.391 . S
C707 N706 1.388 . S
C708 C709 1.349 . S
C708 C710 1.327 . S
C708 H733 0.950 . S
C709 C708 1.349 . S
C709 C725 1.349 . S
C710 C708 1.327 . S
C710 C729 1.429 . S
C710 H734 0.950 . S
C711 C728 1.574 . S
C711 C730 1.368 . S
C711 H735 0.949 . S
H712 C716 0.949 . S
C713 C714 1.349 . S
C713 C715 1.327 . S
C713 H736 0.950 . S
C714 C713 1.349 . S
C714 C726 1.349 . S
C715 C713 1.327 . S
C715 C731 1.429 . S
C715 H737 0.950 . S
C716 H712 0.949 . S
C716 C724 1.574 . S
C716 C732 1.368 . S
H717 C725 0.950 . S
H718 C723 0.950 . S
H719 C724 0.949 . S
H720 C726 0.950 . S
H721 C727 0.950 . S
H722 C728 0.949 . S
C723 H718 0.950 . S
C723 C725 1.327 . S
C723 C729 1.429 . S
C724 C716 1.574 . S
C724 H719 0.949 . S
C724 C730 1.368 1_455 S
C725 C709 1.349 . S
C725 H717 0.950 . S
C725 C723 1.327 . S
C726 C714 1.349 . S
C726 H720 0.950 . S
C726 C727 1.327 . S
C727 H721 0.950 . S
C727 C726 1.327 . S
C727 C731 1.429 . S
C728 C711 1.574 . S
C728 H722 0.949 . S
C728 C732 1.368 1_655 S
C729 C710 1.429 . S
C729 C723 1.429 . S
C729 C730 1.523 . S
C730 C711 1.368 . S
C730 C724 1.368 1_655 S
C730 C729 1.523 . S
C731 C715 1.429 . S
C731 C727 1.429 . S
C731 C732 1.523 . S
C732 C716 1.368 . S
C732 C728 1.368 1_455 S
C732 C731 1.523 . S
H733 C708 0.950 . S
H734 C710 0.950 . S
H735 C711 0.949 . S
H736 C713 0.950 . S
H737 C715 0.950 . S
C738 C739 1.349 . S
C738 C740 1.327 . S
C738 H763 0.950 . S
C739 C738 1.349 . S
C739 C755 1.349 . S
C740 C738 1.327 . S
C740 C759 1.429 . S
C740 H764 0.950 . S
C741 C758 1.574 . S
C741 C760 1.368 1_655 S
C741 H765 0.949 . S
H742 C746 0.949 . S
C743 C744 1.349 . S
C743 C745 1.327 . S
C743 H766 0.950 . S
C744 C743 1.349 . S
C744 C756 1.349 . S
C745 C743 1.327 . S
C745 C761 1.429 . S
C745 H767 0.950 . S
C746 H742 0.949 . S
C746 C754 1.574 . S
C746 C762 1.368 1_455 S
H747 C755 0.950 . S
H748 C753 0.950 . S
H749 C754 0.949 . S
H750 C756 0.950 . S
H751 C757 0.950 . S
H752 C758 0.949 . S
C753 H748 0.950 . S
C753 C755 1.327 . S
C753 C759 1.429 . S
C754 C746 1.574 . S
C754 H749 0.949 . S
C754 C760 1.368 . S
C755 C739 1.349 . S
C755 H747 0.950 . S
C755 C753 1.327 . S
C756 C744 1.349 . S
C756 H750 0.950 . S
C756 C757 1.327 . S
C757 H751 0.950 . S
C757 C756 1.327 . S
C757 C761 1.429 . S
C758 C741 1.574 . S
C758 H752 0.949 . S
C758 C762 1.368 . S
C759 C740 1.429 . S
C759 C753 1.429 . S
C759 C760 1.523 . S
C760 C741 1.368 1_455 S
C760 C754 1.368 . S
C760 C759 1.523 . S
C761 C745 1.429 . S
C761 C757 1.429 . S
C761 C762 1.523 . S
C762 C746 1.368 1_655 S
C762 C758 1.368 . S
C762 C761 1.523 . S
H763 C738 0.950 . S
H764 C740 0.950 . S
H765 C741 0.949 . S
H766 C743 0.950 . S
H767 C745 0.950 . S
C768 C769 1.349 . S
C768 C770 1.327 . S
C768 H793 0.950 . S
C769 C768 1.349 . S
C769 C785 1.349 . S
C770 C768 1.327 . S
C770 C789 1.429 . S
C770 H794 0.950 . S
C771 C788 1.574 . S
C771 C790 1.368 . S
C771 H795 0.949 . S
H772 C776 0.949 . S
C773 C774 1.349 . S
C773 C775 1.327 . S
C773 H796 0.950 . S
C774 C773 1.349 . S
C774 C786 1.349 . S
C775 C773 1.327 . S
C775 C791 1.429 . S
C775 H797 0.950 . S
C776 H772 0.949 . S
C776 C784 1.574 . S
C776 C792 1.368 . S
H777 C785 0.950 . S
H778 C783 0.950 . S
H779 C784 0.949 . S
H780 C786 0.950 . S
H781 C787 0.950 . S
H782 C788 0.949 . S
C783 H778 0.950 . S
C783 C785 1.327 . S
C783 C789 1.429 . S
C784 C776 1.574 . S
C784 H779 0.949 . S
C784 C790 1.368 1_545 S
C785 C769 1.349 . S
C785 H777 0.950 . S
C785 C783 1.327 . S
C786 C774 1.349 . S
C786 H780 0.950 . S
C786 C787 1.327 . S
C787 H781 0.950 . S
C787 C786 1.327 . S
C787 C791 1.429 . S
C788 C771 1.574 . S
C788 H782 0.949 . S
C788 C792 1.368 1_565 S
C789 C770 1.429 . S
C789 C783 1.429 . S
C789 C790 1.523 . S
C790 C771 1.368 . S
C790 C784 1.368 1_565 S
C790 C789 1.523 . S
C791 C775 1.429 . S
C791 C787 1.429 . S
C791 C792 1.523 . S
C792 C776 1.368 . S
C792 C788 1.368 1_545 S
C792 C791 1.523 . S
H793 C768 0.950 . S
H794 C770 0.950 . S
H795 C771 0.949 . S
H796 C773 0.950 . S
H797 C775 0.950 . S
C798 C799 1.349 . S
C798 C800 1.327 . S
C798 H823 0.950 . S
C799 C798 1.349 . S
C799 C815 1.349 . S
C800 C798 1.327 . S
C800 C819 1.429 . S
C800 H824 0.950 . S
C801 C818 1.574 . S
C801 C820 1.368 1_545 S
C801 H825 0.949 . S
H802 C806 0.949 . S
C803 C804 1.349 . S
C803 C805 1.327 . S
C803 H826 0.950 . S
C804 C803 1.349 . S
C804 C816 1.349 . S
C805 C803 1.327 . S
C805 C821 1.429 . S
C805 H827 0.950 . S
C806 H802 0.949 . S
C806 C814 1.574 . S
C806 C822 1.368 1_565 S
H807 C815 0.950 . S
H808 C813 0.950 . S
H809 C814 0.949 . S
H810 C816 0.950 . S
H811 C817 0.950 . S
H812 C818 0.949 . S
C813 H808 0.950 . S
C813 C815 1.327 . S
C813 C819 1.429 . S
C814 C806 1.574 . S
C814 H809 0.949 . S
C814 C820 1.368 . S
C815 C799 1.349 . S
C815 H807 0.950 . S
C815 C813 1.327 . S
C816 C804 1.349 . S
C816 H810 0.950 . S
C816 C817 1.327 . S
C817 H811 0.950 . S
C817 C816 1.327 . S
C817 C821 1.429 . S
C818 C801 1.574 . S
C818 H812 0.949 . S
C818 C822 1.368 . S
C819 C800 1.429 . S
C819 C813 1.429 . S
C819 C820 1.523 . S
C820 C801 1.368 1_565 S
C820 C814 1.368 . S
C820 C819 1.523 . S
C821 C805 1.429 . S
C821 C817 1.429 . S
C821 C822 1.523 . S
C822 C806 1.368 1_545 S
C822 C818 1.368 . S
C822 C821 1.523 . S
H823 C798 0.950 . S
H824 C800 0.950 . S
H825 C801 0.949 . S
H826 C803 0.950 . S
H827 C805 0.950 . S
C828 C829 1.349 . S
C828 C830 1.327 . S
C828 H853 0.950 . S
C829 C828 1.349 . S
C829 C845 1.349 . S
C830 C828 1.327 . S
C830 C849 1.429 . S
C830 H854 0.950 . S
C831 C848 1.574 . S
C831 C850 1.368 1_554 S
C831 H855 0.949 . S
H832 C836 0.949 . S
C833 C834 1.349 . S
C833 C835 1.327 . S
C833 H856 0.950 . S
C834 C833 1.349 . S
C834 C846 1.349 . S
C835 C833 1.327 . S
C835 C851 1.429 . S
C835 H857 0.950 . S
C836 H832 0.949 . S
C836 C844 1.574 . S
C836 C852 1.368 1_556 S
H837 C845 0.950 . S
H838 C843 0.950 . S
H839 C844 0.949 . S
H840 C846 0.950 . S
H841 C847 0.950 . S
H842 C848 0.949 . S
C843 H838 0.950 . S
C843 C845 1.327 . S
C843 C849 1.429 . S
C844 C836 1.574 . S
C844 H839 0.949 . S
C844 C850 1.368 . S
C845 C829 1.349 . S
C845 H837 0.950 . S
C845 C843 1.327 . S
C846 C834 1.349 . S
C846 H840 0.950 . S
C846 C847 1.327 . S
C847 H841 0.950 . S
C847 C846 1.327 . S
C847 C851 1.429 . S
C848 C831 1.574 . S
C848 H842 0.949 . S
C848 C852 1.368 . S
C849 C830 1.429 . S
C849 C843 1.429 . S
C849 C850 1.523 . S
C850 C831 1.368 1_556 S
C850 C844 1.368 . S
C850 C849 1.523 . S
C851 C835 1.429 . S
C851 C847 1.429 . S
C851 C852 1.523 . S
C852 C836 1.368 1_554 S
C852 C848 1.368 . S
C852 C851 1.523 . S
H853 C828 0.950 . S
H854 C830 0.950 . S
H855 C831 0.949 . S
H856 C833 0.950 . S
H857 C835 0.950 . S
C858 C859 1.349 . S
C858 C860 1.327 . S
C858 H883 0.950 . S
C859 C858 1.349 . S
C859 C875 1.349 . S
C860 C858 1.327 . S
C860 C879 1.429 . S
C860 H884 0.950 . S
C861 C878 1.574 . S
C861 C880 1.368 1_554 S
C861 H885 0.949 . S
H862 C866 0.949 . S
C863 C864 1.349 . S
C863 C865 1.327 . S
C863 H886 0.950 . S
C864 C863 1.349 . S
C864 C876 1.349 . S
C865 C863 1.327 . S
C865 C881 1.429 . S
C865 H887 0.950 . S
C866 H862 0.949 . S
C866 C874 1.574 . S
C866 C882 1.368 1_556 S
H867 C875 0.950 . S
H868 C873 0.950 . S
H869 C874 0.949 . S
H870 C876 0.950 . S
H871 C877 0.950 . S
H872 C878 0.949 . S
C873 H868 0.950 . S
C873 C875 1.327 . S
C873 C879 1.429 . S
C874 C866 1.574 . S
C874 H869 0.949 . S
C874 C880 1.368 . S
C875 C859 1.349 . S
C875 H867 0.950 . S
C875 C873 1.327 . S
C876 C864 1.349 . S
C876 H870 0.950 . S
C876 C877 1.327 . S
C877 H871 0.950 . S
C877 C876 1.327 . S
C877 C881 1.429 . S
C878 C861 1.574 . S
C878 H872 0.949 . S
C878 C882 1.368 . S
C879 C860 1.429 . S
C879 C873 1.429 . S
C879 C880 1.523 . S
C880 C861 1.368 1_556 S
C880 C874 1.368 . S
C880 C879 1.523 . S
C881 C865 1.429 . S
C881 C877 1.429 . S
C881 C882 1.523 . S
C882 C866 1.368 1_554 S
C882 C878 1.368 . S
C882 C881 1.523 . S
H883 C858 0.950 . S
H884 C860 0.950 . S
H885 C861 0.949 . S
H886 C863 0.950 . S
H887 C865 0.950 . S
C888 C889 1.349 . S
C888 C890 1.327 . S
C888 H913 0.950 . S
C889 C888 1.349 . S
C889 C905 1.349 . S
C890 C888 1.327 . S
C890 C909 1.429 . S
C890 H914 0.950 . S
C891 C908 1.574 . S
C891 C910 1.368 . S
C891 H915 0.949 . S
H892 C896 0.949 . S
C893 C894 1.349 . S
C893 C895 1.327 . S
C893 H916 0.950 . S
C894 C893 1.349 . S
C894 C906 1.349 . S
C895 C893 1.327 . S
C895 C911 1.429 . S
C895 H917 0.950 . S
C896 H892 0.949 . S
C896 C904 1.574 . S
C896 C912 1.368 . S
H897 C905 0.950 . S
H898 C903 0.950 . S
H899 C904 0.949 . S
H900 C906 0.950 . S
H901 C907 0.950 . S
H902 C908 0.949 . S
C903 H898 0.950 . S
C903 C905 1.327 . S
C903 C909 1.429 . S
C904 C896 1.574 . S
C904 H899 0.949 . S
C904 C910 1.368 . S
C905 C889 1.349 . S
C905 H897 0.950 . S
C905 C903 1.327 . S
C906 C894 1.349 . S
C906 H900 0.950 . S
C906 C907 1.327 . S
C907 H901 0.950 . S
C907 C906 1.327 . S
C907 C911 1.429 . S
C908 C891 1.574 . S
C908 H902 0.949 . S
C908 C912 1.368 . S
C909 C890 1.429 . S
C909 C903 1.429 . S
C909 C910 1.523 . S
C910 C891 1.368 . S
C910 C904 1.368 . S
C910 C909 1.523 . S
C911 C895 1.429 . S
C911 C907 1.429 . S
C911 C912 1.523 . S
C912 C896 1.368 . S
C912 C908 1.368 . S
C912 C911 1.523 . S
H913 C888 0.950 . S
H914 C890 0.950 . S
H915 C891 0.949 . S
H916 C893 0.950 . S
H917 C895 0.950 . S
C918 C919 1.349 . S
C918 C920 1.327 . S
C918 H943 0.950 . S
C919 C918 1.349 . S
C919 C935 1.349 . S
C920 C918 1.327 . S
C920 C939 1.429 . S
C920 H944 0.950 . S
C921 C938 1.574 . S
C921 C940 1.368 . S
C921 H945 0.949 . S
H922 C926 0.949 . S
C923 C924 1.349 . S
C923 C925 1.327 . S
C923 H946 0.950 . S
C924 C923 1.349 . S
C924 C936 1.349 . S
C925 C923 1.327 . S
C925 C941 1.429 . S
C925 H947 0.950 . S
C926 H922 0.949 . S
C926 C934 1.574 . S
C926 C942 1.368 . S
H927 C935 0.950 . S
H928 C933 0.950 . S
H929 C934 0.949 . S
H930 C936 0.950 . S
H931 C937 0.950 . S
H932 C938 0.949 . S
C933 H928 0.950 . S
C933 C935 1.327 . S
C933 C939 1.429 . S
C934 C926 1.574 . S
C934 H929 0.949 . S
C934 C940 1.368 . S
C935 C919 1.349 . S
C935 H927 0.950 . S
C935 C933 1.327 . S
C936 C924 1.349 . S
C936 H930 0.950 . S
C936 C937 1.327 . S
C937 H931 0.950 . S
C937 C936 1.327 . S
C937 C941 1.429 . S
C938 C921 1.574 . S
C938 H932 0.949 . S
C938 C942 1.368 . S
C939 C920 1.429 . S
C939 C933 1.429 . S
C939 C940 1.523 . S
C940 C921 1.368 . S
C940 C934 1.368 . S
C940 C939 1.523 . S
C941 C925 1.429 . S
C941 C937 1.429 . S
C941 C942 1.523 . S
C942 C926 1.368 . S
C942 C938 1.368 . S
C942 C941 1.523 . S
H943 C918 0.950 . S
H944 C920 0.950 . S
H945 C921 0.949 . S
H946 C923 0.950 . S
H947 C925 0.950 . S
C948 C949 1.349 . S
C948 C950 1.327 . S
C948 H973 0.950 . S
C949 C948 1.349 . S
C949 C965 1.349 . S
C950 C948 1.327 . S
C950 C969 1.429 . S
C950 H974 0.950 . S
C951 C968 1.574 . S
C951 C970 1.368 . S
C951 H975 0.949 . S
H952 C956 0.949 . S
C953 C954 1.349 . S
C953 C955 1.327 . S
C953 H976 0.950 . S
C954 C953 1.349 . S
C954 C966 1.349 . S
C955 C953 1.327 . S
C955 C971 1.429 . S
C955 H977 0.950 . S
C956 H952 0.949 . S
C956 C964 1.574 . S
C956 C972 1.368 . S
H957 C965 0.950 . S
H958 C963 0.950 . S
H959 C964 0.949 . S
H960 C966 0.950 . S
H961 C967 0.950 . S
H962 C968 0.949 . S
C963 H958 0.950 . S
C963 C965 1.327 . S
C963 C969 1.429 . S
C964 C956 1.574 . S
C964 H959 0.949 . S
C964 C970 1.368 . S
C965 C949 1.349 . S
C965 H957 0.950 . S
C965 C963 1.327 . S
C966 C954 1.349 . S
C966 H960 0.950 . S
C966 C967 1.327 . S
C967 H961 0.950 . S
C967 C966 1.327 . S
C967 C971 1.429 . S
C968 C951 1.574 . S
C968 H962 0.949 . S
C968 C972 1.368 . S
C969 C950 1.429 . S
C969 C963 1.429 . S
C969 C970 1.523 . S
C970 C951 1.368 . S
C970 C964 1.368 . S
C970 C969 1.523 . S
C971 C955 1.429 . S
C971 C967 1.429 . S
C971 C972 1.523 . S
C972 C956 1.368 . S
C972 C968 1.368 . S
C972 C971 1.523 . S
H973 C948 0.950 . S
H974 C950 0.950 . S
H975 C951 0.949 . S
H976 C953 0.950 . S
H977 C955 0.950 . S
C978 C979 1.349 . S
C978 C980 1.327 . S
C978 H1003 0.950 . S
C979 C978 1.349 . S
C979 C995 1.349 . S
C980 C978 1.327 . S
C980 C999 1.429 . S
C980 H1004 0.950 . S
C981 C998 1.574 . S
C981 C1000 1.368 . S
C981 H1005 0.949 . S
H982 C986 0.949 . S
C983 C984 1.349 . S
C983 C985 1.327 . S
C983 H1006 0.950 . S
C984 C983 1.349 . S
C984 C996 1.349 . S
C985 C983 1.327 . S
C985 C1001 1.429 . S
C985 H1007 0.950 . S
C986 H982 0.949 . S
C986 C994 1.574 . S
C986 C1002 1.368 . S
H987 C995 0.950 . S
H988 C993 0.950 . S
H989 C994 0.949 . S
H990 C996 0.950 . S
H991 C997 0.950 . S
H992 C998 0.949 . S
C993 H988 0.950 . S
C993 C995 1.327 . S
C993 C999 1.429 . S
C994 C986 1.574 . S
C994 H989 0.949 . S
C994 C1000 1.368 . S
C995 C979 1.349 . S
C995 H987 0.950 . S
C995 C993 1.327 . S
C996 C984 1.349 . S
C996 H990 0.950 . S
C996 C997 1.327 . S
C997 H991 0.950 . S
C997 C996 1.327 . S
C997 C1001 1.429 . S
C998 C981 1.574 . S
C998 H992 0.949 . S
C998 C1002 1.368 . S
C999 C980 1.429 . S
C999 C993 1.429 . S
C999 C1000 1.523 . S
C1000 C981 1.368 . S
C1000 C994 1.368 . S
C1000 C999 1.523 . S
C1001 C985 1.429 . S
C1001 C997 1.429 . S
C1001 C1002 1.523 . S
C1002 C986 1.368 . S
C1002 C998 1.368 . S
C1002 C1001 1.523 . S
H1003 C978 0.950 . S
H1004 C980 0.950 . S
H1005 C981 0.949 . S
H1006 C983 0.950 . S
H1007 C985 0.950 . S
C1008 C1009 1.349 . S
C1008 C1010 1.327 . S
C1008 H1033 0.950 . S
C1009 C1008 1.349 . S
C1009 C1025 1.349 . S
C1010 C1008 1.327 . S
C1010 C1029 1.429 . S
C1010 H1034 0.950 . S
C1011 C1028 1.574 . S
C1011 C1030 1.368 . S
C1011 H1035 0.949 . S
H1012 C1016 0.949 . S
C1013 C1014 1.349 . S
C1013 C1015 1.327 . S
C1013 H1036 0.950 . S
C1014 C1013 1.349 . S
C1014 C1026 1.349 . S
C1015 C1013 1.327 . S
C1015 C1031 1.429 . S
C1015 H1037 0.950 . S
C1016 H1012 0.949 . S
C1016 C1024 1.574 . S
C1016 C1032 1.368 . S
H1017 C1025 0.950 . S
H1018 C1023 0.950 . S
H1019 C1024 0.949 . S
H1020 C1026 0.950 . S
H1021 C1027 0.950 . S
H1022 C1028 0.949 . S
C1023 H1018 0.950 . S
C1023 C1025 1.327 . S
C1023 C1029 1.429 . S
C1024 C1016 1.574 . S
C1024 H1019 0.949 . S
C1024 C1030 1.368 . S
C1025 C1009 1.349 . S
C1025 H1017 0.950 . S
C1025 C1023 1.327 . S
C1026 C1014 1.349 . S
C1026 H1020 0.950 . S
C1026 C1027 1.327 . S
C1027 H1021 0.950 . S
C1027 C1026 1.327 . S
C1027 C1031 1.429 . S
C1028 C1011 1.574 . S
C1028 H1022 0.949 . S
C1028 C1032 1.368 . S
C1029 C1010 1.429 . S
C1029 C1023 1.429 . S
C1029 C1030 1.523 . S
C1030 C1011 1.368 . S
C1030 C1024 1.368 . S
C1030 C1029 1.523 . S
C1031 C1015 1.429 . S
C1031 C1027 1.429 . S
C1031 C1032 1.523 . S
C1032 C1016 1.368 . S
C1032 C1028 1.368 . S
C1032 C1031 1.523 . S
H1033 C1008 0.950 . S
H1034 C1010 0.950 . S
H1035 C1011 0.949 . S
H1036 C1013 0.950 . S
H1037 C1015 0.950 . S
C1038 C1039 1.349 . S
C1038 C1040 1.327 . S
C1038 H1063 0.950 . S
C1039 C1038 1.349 . S
C1039 C1055 1.349 . S
C1040 C1038 1.327 . S
C1040 C1059 1.429 . S
C1040 H1064 0.950 . S
C1041 C1058 1.574 . S
C1041 C1060 1.368 . S
C1041 H1065 0.949 . S
H1042 C1046 0.949 . S
C1043 C1044 1.349 . S
C1043 C1045 1.327 . S
C1043 H1066 0.950 . S
C1044 C1043 1.349 . S
C1044 C1056 1.349 . S
C1045 C1043 1.327 . S
C1045 C1061 1.429 . S
C1045 H1067 0.950 . S
C1046 H1042 0.949 . S
C1046 C1054 1.574 . S
C1046 C1062 1.368 . S
H1047 C1055 0.950 . S
H1048 C1053 0.950 . S
H1049 C1054 0.949 . S
H1050 C1056 0.950 . S
H1051 C1057 0.950 . S
H1052 C1058 0.949 . S
C1053 H1048 0.950 . S
C1053 C1055 1.327 . S
C1053 C1059 1.429 . S
C1054 C1046 1.574 . S
C1054 H1049 0.949 . S
C1054 C1060 1.368 . S
C1055 C1039 1.349 . S
C1055 H1047 0.950 . S
C1055 C1053 1.327 . S
C1056 C1044 1.349 . S
C1056 H1050 0.950 . S
C1056 C1057 1.327 . S
C1057 H1051 0.950 . S
C1057 C1056 1.327 . S
C1057 C1061 1.429 . S
C1058 C1041 1.574 . S
C1058 H1052 0.949 . S
C1058 C1062 1.368 . S
C1059 C1040 1.429 . S
C1059 C1053 1.429 . S
C1059 C1060 1.523 . S
C1060 C1041 1.368 . S
C1060 C1054 1.368 . S
C1060 C1059 1.523 . S
C1061 C1045 1.429 . S
C1061 C1057 1.429 . S
C1061 C1062 1.523 . S
C1062 C1046 1.368 . S
C1062 C1058 1.368 . S
C1062 C1061 1.523 . S
H1063 C1038 0.950 . S
H1064 C1040 0.950 . S
H1065 C1041 0.949 . S
H1066 C1043 0.950 . S
H1067 C1045 0.950 . S
C1068 C1069 1.349 . S
C1068 C1070 1.327 . S
C1068 H1093 0.950 . S
C1069 C1068 1.349 . S
C1069 C1085 1.349 . S
C1070 C1068 1.327 . S
C1070 C1089 1.429 . S
C1070 H1094 0.950 . S
C1071 C1088 1.574 . S
C1071 C1090 1.368 . S
C1071 H1095 0.949 . S
H1072 C1076 0.949 . S
C1073 C1074 1.349 . S
C1073 C1075 1.327 . S
C1073 H1096 0.950 . S
C1074 C1073 1.349 . S
C1074 C1086 1.349 . S
C1075 C1073 1.327 . S
C1075 C1091 1.429 . S
C1075 H1097 0.950 . S
C1076 H1072 0.949 . S
C1076 C1084 1.574 . S
C1076 C1092 1.368 . S
H1077 C1085 0.950 . S
H1078 C1083 0.950 . S
H1079 C1084 0.949 . S
H1080 C1086 0.950 . S
H1081 C1087 0.950 . S
H1082 C1088 0.949 . S
C1083 H1078 0.950 . S
C1083 C1085 1.327 . S
C1083 C1089 1.429 . S
C1084 C1076 1.574 . S
C1084 H1079 0.949 . S
C1084 C1090 1.368 . S
C1085 C1069 1.349 . S
C1085 H1077 0.950 . S
C1085 C1083 1.327 . S
C1086 C1074 1.349 . S
C1086 H1080 0.950 . S
C1086 C1087 1.327 . S
C1087 H1081 0.950 . S
C1087 C1086 1.327 . S
C1087 C1091 1.429 . S
C1088 C1071 1.574 . S
C1088 H1082 0.949 . S
C1088 C1092 1.368 . S
C1089 C1070 1.429 . S
C1089 C1083 1.429 . S
C1089 C1090 1.523 . S
C1090 C1071 1.368 . S
C1090 C1084 1.368 . S
C1090 C1089 1.523 . S
C1091 C1075 1.429 . S
C1091 C1087 1.429 . S
C1091 C1092 1.523 . S
C1092 C1076 1.368 . S
C1092 C1088 1.368 . S
C1092 C1091 1.523 . S
H1093 C1068 0.950 . S
H1094 C1070 0.950 . S
H1095 C1071 0.949 . S
H1096 C1073 0.950 . S
H1097 C1075 0.950 . S
C1098 C1099 1.349 . S
C1098 C1100 1.327 . S
C1098 H1123 0.950 . S
C1099 C1098 1.349 . S
C1099 C1115 1.349 . S
C1100 C1098 1.327 . S
C1100 C1119 1.429 . S
C1100 H1124 0.950 . S
C1101 C1118 1.574 . S
C1101 C1120 1.368 . S
C1101 H1125 0.949 . S
H1102 C1106 0.949 . S
C1103 C1104 1.349 . S
C1103 C1105 1.327 . S
C1103 H1126 0.950 . S
C1104 C1103 1.349 . S
C1104 C1116 1.349 . S
C1105 C1103 1.327 . S
C1105 C1121 1.429 . S
C1105 H1127 0.950 . S
C1106 H1102 0.949 . S
C1106 C1114 1.574 . S
C1106 C1122 1.368 . S
H1107 C1115 0.950 . S
H1108 C1113 0.950 . S
H1109 C1114 0.949 . S
H1110 C1116 0.950 . S
H1111 C1117 0.950 . S
H1112 C1118 0.949 . S
C1113 H1108 0.950 . S
C1113 C1115 1.327 . S
C1113 C1119 1.429 . S
C1114 C1106 1.574 . S
C1114 H1109 0.949 . S
C1114 C1120 1.368 . S
C1115 C1099 1.349 . S
C1115 H1107 0.950 . S
C1115 C1113 1.327 . S
C1116 C1104 1.349 . S
C1116 H1110 0.950 . S
C1116 C1117 1.327 . S
C1117 H1111 0.950 . S
C1117 C1116 1.327 . S
C1117 C1121 1.429 . S
C1118 C1101 1.574 . S
C1118 H1112 0.949 . S
C1118 C1122 1.368 . S
C1119 C1100 1.429 . S
C1119 C1113 1.429 . S
C1119 C1120 1.523 . S
C1120 C1101 1.368 . S
C1120 C1114 1.368 . S
C1120 C1119 1.523 . S
C1121 C1105 1.429 . S
C1121 C1117 1.429 . S
C1121 C1122 1.523 . S
C1122 C1106 1.368 . S
C1122 C1118 1.368 . S
C1122 C1121 1.523 . S
H1123 C1098 0.950 . S
H1124 C1100 0.950 . S
H1125 C1101 0.949 . S
H1126 C1103 0.950 . S
H1127 C1105 0.950 . S
C1128 C1129 1.349 . S
C1128 C1130 1.327 . S
C1128 H1153 0.950 . S
C1129 C1128 1.349 . S
C1129 C1145 1.349 . S
C1130 C1128 1.327 . S
C1130 C1149 1.429 . S
C1130 H1154 0.950 . S
C1131 C1148 1.574 . S
C1131 C1150 1.368 . S
C1131 H1155 0.949 . S
H1132 C1136 0.949 . S
C1133 C1134 1.349 . S
C1133 C1135 1.327 . S
C1133 H1156 0.950 . S
C1134 C1133 1.349 . S
C1134 C1146 1.349 . S
C1135 C1133 1.327 . S
C1135 C1151 1.429 . S
C1135 H1157 0.950 . S
C1136 H1132 0.949 . S
C1136 C1144 1.574 . S
C1136 C1152 1.368 . S
H1137 C1145 0.950 . S
H1138 C1143 0.950 . S
H1139 C1144 0.949 . S
H1140 C1146 0.950 . S
H1141 C1147 0.950 . S
H1142 C1148 0.949 . S
C1143 H1138 0.950 . S
C1143 C1145 1.327 . S
C1143 C1149 1.429 . S
C1144 C1136 1.574 . S
C1144 H1139 0.949 . S
C1144 C1150 1.368 . S
C1145 C1129 1.349 . S
C1145 H1137 0.950 . S
C1145 C1143 1.327 . S
C1146 C1134 1.349 . S
C1146 H1140 0.950 . S
C1146 C1147 1.327 . S
C1147 H1141 0.950 . S
C1147 C1146 1.327 . S
C1147 C1151 1.429 . S
C1148 C1131 1.574 . S
C1148 H1142 0.949 . S
C1148 C1152 1.368 . S
C1149 C1130 1.429 . S
C1149 C1143 1.429 . S
C1149 C1150 1.523 . S
C1150 C1131 1.368 . S
C1150 C1144 1.368 . S
C1150 C1149 1.523 . S
C1151 C1135 1.429 . S
C1151 C1147 1.429 . S
C1151 C1152 1.523 . S
C1152 C1136 1.368 . S
C1152 C1148 1.368 . S
C1152 C1151 1.523 . S
H1153 C1128 0.950 . S
H1154 C1130 0.950 . S
H1155 C1131 0.949 . S
H1156 C1133 0.950 . S
H1157 C1135 0.950 . S
C1158 C1159 1.349 . S
C1158 C1160 1.327 . S
C1158 H1183 0.950 . S
C1159 C1158 1.349 . S
C1159 C1175 1.349 . S
C1160 C1158 1.327 . S
C1160 C1179 1.429 . S
C1160 H1184 0.950 . S
C1161 C1178 1.574 . S
C1161 C1180 1.368 . S
C1161 H1185 0.949 . S
H1162 C1166 0.949 . S
C1163 C1164 1.349 . S
C1163 C1165 1.327 . S
C1163 H1186 0.950 . S
C1164 C1163 1.349 . S
C1164 C1176 1.349 . S
C1165 C1163 1.327 . S
C1165 C1181 1.429 . S
C1165 H1187 0.950 . S
C1166 H1162 0.949 . S
C1166 C1174 1.574 . S
C1166 C1182 1.368 . S
H1167 C1175 0.950 . S
H1168 C1173 0.950 . S
H1169 C1174 0.949 . S
H1170 C1176 0.950 . S
H1171 C1177 0.950 . S
H1172 C1178 0.949 . S
C1173 H1168 0.950 . S
C1173 C1175 1.327 . S
C1173 C1179 1.429 . S
C1174 C1166 1.574 . S
C1174 H1169 0.949 . S
C1174 C1180 1.368 . S
C1175 C1159 1.349 . S
C1175 H1167 0.950 . S
C1175 C1173 1.327 . S
C1176 C1164 1.349 . S
C1176 H1170 0.950 . S
C1176 C1177 1.327 . S
C1177 H1171 0.950 . S
C1177 C1176 1.327 . S
C1177 C1181 1.429 . S
C1178 C1161 1.574 . S
C1178 H1172 0.949 . S
C1178 C1182 1.368 . S
C1179 C1160 1.429 . S
C1179 C1173 1.429 . S
C1179 C1180 1.523 . S
C1180 C1161 1.368 . S
C1180 C1174 1.368 . S
C1180 C1179 1.523 . S
C1181 C1165 1.429 . S
C1181 C1177 1.429 . S
C1181 C1182 1.523 . S
C1182 C1166 1.368 . S
C1182 C1178 1.368 . S
C1182 C1181 1.523 . S
H1183 C1158 0.950 . S
H1184 C1160 0.950 . S
H1185 C1161 0.949 . S
H1186 C1163 0.950 . S
H1187 C1165 0.950 . S
C1188 C1189 1.349 . S
C1188 C1190 1.327 . S
C1188 H1213 0.950 . S
C1189 C1188 1.349 . S
C1189 C1205 1.349 . S
C1190 C1188 1.327 . S
C1190 C1209 1.429 . S
C1190 H1214 0.950 . S
C1191 C1208 1.574 . S
C1191 C1210 1.368 . S
C1191 H1215 0.949 . S
H1192 C1196 0.949 . S
C1193 C1194 1.349 . S
C1193 C1195 1.327 . S
C1193 H1216 0.950 . S
C1194 C1193 1.349 . S
C1194 C1206 1.349 . S
C1195 C1193 1.327 . S
C1195 C1211 1.429 . S
C1195 H1217 0.950 . S
C1196 H1192 0.949 . S
C1196 C1204 1.574 . S
C1196 C1212 1.368 . S
H1197 C1205 0.950 . S
H1198 C1203 0.950 . S
H1199 C1204 0.949 . S
H1200 C1206 0.950 . S
H1201 C1207 0.950 . S
H1202 C1208 0.949 . S
C1203 H1198 0.950 . S
C1203 C1205 1.327 . S
C1203 C1209 1.429 . S
C1204 C1196 1.574 . S
C1204 H1199 0.949 . S
C1204 C1210 1.368 . S
C1205 C1189 1.349 . S
C1205 H1197 0.950 . S
C1205 C1203 1.327 . S
C1206 C1194 1.349 . S
C1206 H1200 0.950 . S
C1206 C1207 1.327 . S
C1207 H1201 0.950 . S
C1207 C1206 1.327 . S
C1207 C1211 1.429 . S
C1208 C1191 1.574 . S
C1208 H1202 0.949 . S
C1208 C1212 1.368 . S
C1209 C1190 1.429 . S
C1209 C1203 1.429 . S
C1209 C1210 1.523 . S
C1210 C1191 1.368 . S
C1210 C1204 1.368 . S
C1210 C1209 1.523 . S
C1211 C1195 1.429 . S
C1211 C1207 1.429 . S
C1211 C1212 1.523 . S
C1212 C1196 1.368 . S
C1212 C1208 1.368 . S
C1212 C1211 1.523 . S
H1213 C1188 0.950 . S
H1214 C1190 0.950 . S
H1215 C1191 0.949 . S
H1216 C1193 0.950 . S
H1217 C1195 0.950 . S
C1218 C1219 1.349 . S
C1218 C1220 1.327 . S
C1218 H1243 0.950 . S
C1219 C1218 1.349 . S
C1219 C1235 1.349 . S
C1220 C1218 1.327 . S
C1220 C1239 1.429 . S
C1220 H1244 0.950 . S
C1221 C1238 1.574 . S
C1221 C1240 1.368 . S
C1221 H1245 0.949 . S
H1222 C1226 0.949 . S
C1223 C1224 1.349 . S
C1223 C1225 1.327 . S
C1223 H1246 0.950 . S
C1224 C1223 1.349 . S
C1224 C1236 1.349 . S
C1225 C1223 1.327 . S
C1225 C1241 1.429 . S
C1225 H1247 0.950 . S
C1226 H1222 0.949 . S
C1226 C1234 1.574 . S
C1226 C1242 1.368 . S
H1227 C1235 0.950 . S
H1228 C1233 0.950 . S
H1229 C1234 0.949 . S
H1230 C1236 0.950 . S
H1231 C1237 0.950 . S
H1232 C1238 0.949 . S
C1233 H1228 0.950 . S
C1233 C1235 1.327 . S
C1233 C1239 1.429 . S
C1234 C1226 1.574 . S
C1234 H1229 0.949 . S
C1234 C1240 1.368 . S
C1235 C1219 1.349 . S
C1235 H1227 0.950 . S
C1235 C1233 1.327 . S
C1236 C1224 1.349 . S
C1236 H1230 0.950 . S
C1236 C1237 1.327 . S
C1237 H1231 0.950 . S
C1237 C1236 1.327 . S
C1237 C1241 1.429 . S
C1238 C1221 1.574 . S
C1238 H1232 0.949 . S
C1238 C1242 1.368 . S
C1239 C1220 1.429 . S
C1239 C1233 1.429 . S
C1239 C1240 1.523 . S
C1240 C1221 1.368 . S
C1240 C1234 1.368 . S
C1240 C1239 1.523 . S
C1241 C1225 1.429 . S
C1241 C1237 1.429 . S
C1241 C1242 1.523 . S
C1242 C1226 1.368 . S
C1242 C1238 1.368 . S
C1242 C1241 1.523 . S
H1243 C1218 0.950 . S
H1244 C1220 0.950 . S
H1245 C1221 0.949 . S
H1246 C1223 0.950 . S
H1247 C1225 0.950 . S
C1248 C1249 1.349 . S
C1248 C1250 1.327 . S
C1248 H1273 0.950 . S
C1249 C1248 1.349 . S
C1249 C1265 1.349 . S
C1250 C1248 1.327 . S
C1250 C1269 1.429 . S
C1250 H1274 0.950 . S
C1251 C1268 1.574 1_545 S
C1251 C1270 1.368 1_655 S
C1251 H1275 0.949 . S
H1252 C1256 0.949 . S
C1253 C1254 1.349 . S
C1253 C1255 1.327 . S
C1253 H1276 0.950 . S
C1254 C1253 1.349 . S
C1254 C1266 1.349 . S
C1255 C1253 1.327 . S
C1255 C1271 1.429 . S
C1255 H1277 0.950 . S
C1256 H1252 0.949 . S
C1256 C1264 1.574 1_565 S
C1256 C1272 1.368 1_455 S
H1257 C1265 0.950 . S
H1258 C1263 0.950 . S
H1259 C1264 0.949 . S
H1260 C1266 0.950 . S
H1261 C1267 0.950 . S
H1262 C1268 0.949 . S
C1263 H1258 0.950 . S
C1263 C1265 1.327 . S
C1263 C1269 1.429 . S
C1264 C1256 1.574 1_545 S
C1264 H1259 0.949 . S
C1264 C1270 1.368 . S
C1265 C1249 1.349 . S
C1265 H1257 0.950 . S
C1265 C1263 1.327 . S
C1266 C1254 1.349 . S
C1266 H1260 0.950 . S
C1266 C1267 1.327 . S
C1267 H1261 0.950 . S
C1267 C1266 1.327 . S
C1267 C1271 1.429 . S
C1268 C1251 1.574 1_565 S
C1268 H1262 0.949 . S
C1268 C1272 1.368 . S
C1269 C1250 1.429 . S
C1269 C1263 1.429 . S
C1269 C1270 1.523 . S
C1270 C1251 1.368 1_455 S
C1270 C1264 1.368 . S
C1270 C1269 1.523 . S
C1271 C1255 1.429 . S
C1271 C1267 1.429 . S
C1271 C1272 1.523 . S
C1272 C1256 1.368 1_655 S
C1272 C1268 1.368 . S
C1272 C1271 1.523 . S
H1273 C1248 0.950 . S
H1274 C1250 0.950 . S
H1275 C1251 0.949 . S
H1276 C1253 0.950 . S
H1277 C1255 0.950 . S
C1278 C1279 1.349 . S
C1278 C1280 1.327 . S
C1278 H1303 0.950 . S
C1279 C1278 1.349 . S
C1279 C1295 1.349 . S
C1280 C1278 1.327 . S
C1280 C1299 1.429 . S
C1280 H1304 0.950 . S
C1281 C1298 1.574 1_545 S
C1281 C1300 1.368 . S
C1281 H1305 0.949 . S
H1282 C1286 0.949 . S
C1283 C1284 1.349 . S
C1283 C1285 1.327 . S
C1283 H1306 0.950 . S
C1284 C1283 1.349 . S
C1284 C1296 1.349 . S
C1285 C1283 1.327 . S
C1285 C1301 1.429 . S
C1285 H1307 0.950 . S
C1286 H1282 0.949 . S
C1286 C1294 1.574 1_565 S
C1286 C1302 1.368 . S
H1287 C1295 0.950 . S
H1288 C1293 0.950 . S
H1289 C1294 0.949 . S
H1290 C1296 0.950 . S
H1291 C1297 0.950 . S
H1292 C1298 0.949 . S
C1293 H1288 0.950 . S
C1293 C1295 1.327 . S
C1293 C1299 1.429 . S
C1294 C1286 1.574 1_545 S
C1294 H1289 0.949 . S
C1294 C1300 1.368 1_455 S
C1295 C1279 1.349 . S
C1295 H1287 0.950 . S
C1295 C1293 1.327 . S
C1296 C1284 1.349 . S
C1296 H1290 0.950 . S
C1296 C1297 1.327 . S
C1297 H1291 0.950 . S
C1297 C1296 1.327 . S
C1297 C1301 1.429 . S
C1298 C1281 1.574 1_565 S
C1298 H1292 0.949 . S
C1298 C1302 1.368 1_655 S
C1299 C1280 1.429 . S
C1299 C1293 1.429 . S
C1299 C1300 1.523 . S
C1300 C1281 1.368 . S
C1300 C1294 1.368 1_655 S
C1300 C1299 1.523 . S
C1301 C1285 1.429 . S
C1301 C1297 1.429 . S
C1301 C1302 1.523 . S
C1302 C1286 1.368 . S
C1302 C1298 1.368 1_455 S
C1302 C1301 1.523 . S
H1303 C1278 0.950 . S
H1304 C1280 0.950 . S
H1305 C1281 0.949 . S
H1306 C1283 0.950 . S
H1307 C1285 0.950 . S
C1308 C1309 1.349 . S
C1308 C1310 1.327 . S
C1308 H1333 0.950 . S
C1309 C1308 1.349 . S
C1309 C1325 1.349 . S
C1310 C1308 1.327 . S
C1310 C1329 1.429 . S
C1310 H1334 0.950 . S
C1311 C1328 1.574 1_556 S
C1311 C1330 1.368 . S
C1311 H1335 0.949 . S
H1312 C1316 0.949 . S
C1313 C1314 1.349 . S
C1313 C1315 1.327 . S
C1313 H1336 0.950 . S
C1314 C1313 1.349 . S
C1314 C1326 1.349 . S
C1315 C1313 1.327 . S
C1315 C1331 1.429 . S
C1315 H1337 0.950 . S
C1316 H1312 0.949 . S
C1316 C1324 1.574 1_554 S
C1316 C1332 1.368 . S
H1317 C1325 0.950 . S
H1318 C1323 0.950 . S
H1319 C1324 0.949 . S
H1320 C1326 0.950 . S
H1321 C1327 0.950 . S
H1322 C1328 0.949 . S
C1323 H1318 0.950 . S
C1323 C1325 1.327 . S
C1323 C1329 1.429 . S
C1324 C1316 1.574 1_556 S
C1324 H1319 0.949 . S
C1324 C1330 1.368 1_545 S
C1325 C1309 1.349 . S
C1325 H1317 0.950 . S
C1325 C1323 1.327 . S
C1326 C1314 1.349 . S
C1326 H1320 0.950 . S
C1326 C1327 1.327 . S
C1327 H1321 0.950 . S
C1327 C1326 1.327 . S
C1327 C1331 1.429 . S
C1328 C1311 1.574 1_554 S
C1328 H1322 0.949 . S
C1328 C1332 1.368 1_565 S
C1329 C1310 1.429 . S
C1329 C1323 1.429 . S
C1329 C1330 1.523 . S
C1330 C1311 1.368 . S
C1330 C1324 1.368 1_565 S
C1330 C1329 1.523 . S
C1331 C1315 1.429 . S
C1331 C1327 1.429 . S
C1331 C1332 1.523 . S
C1332 C1316 1.368 . S
C1332 C1328 1.368 1_545 S
C1332 C1331 1.523 . S
H1333 C1308 0.950 . S
H1334 C1310 0.950 . S
H1335 C1311 0.949 . S
H1336 C1313 0.950 . S
H1337 C1315 0.950 . S
C1338 C1339 1.349 . S
C1338 C1340 1.327 . S
C1338 H1363 0.950 . S
C1339 C1338 1.349 . S
C1339 C1355 1.349 . S
C1340 C1338 1.327 . S
C1340 C1359 1.429 . S
C1340 H1364 0.950 . S
C1341 C1358 1.574 1_554 S
C1341 C1360 1.368 . S
C1341 H1365 0.949 . S
H1342 C1346 0.949 . S
C1343 C1344 1.349 . S
C1343 C1345 1.327 . S
C1343 H1366 0.950 . S
C1344 C1343 1.349 . S
C1344 C1356 1.349 . S
C1345 C1343 1.327 . S
C1345 C1361 1.429 . S
C1345 H1367 0.950 . S
C1346 H1342 0.949 . S
C1346 C1354 1.574 1_556 S
C1346 C1362 1.368 . S
H1347 C1355 0.950 . S
H1348 C1353 0.950 . S
H1349 C1354 0.949 . S
H1350 C1356 0.950 . S
H1351 C1357 0.950 . S
H1352 C1358 0.949 . S
C1353 H1348 0.950 . S
C1353 C1355 1.327 . S
C1353 C1359 1.429 . S
C1354 C1346 1.574 1_554 S
C1354 H1349 0.949 . S
C1354 C1360 1.368 1_545 S
C1355 C1339 1.349 . S
C1355 H1347 0.950 . S
C1355 C1353 1.327 . S
C1356 C1344 1.349 . S
C1356 H1350 0.950 . S
C1356 C1357 1.327 . S
C1357 H1351 0.950 . S
C1357 C1356 1.327 . S
C1357 C1361 1.429 . S
C1358 C1341 1.574 1_556 S
C1358 H1352 0.949 . S
C1358 C1362 1.368 1_565 S
C1359 C1340 1.429 . S
C1359 C1353 1.429 . S
C1359 C1360 1.523 . S
C1360 C1341 1.368 . S
C1360 C1354 1.368 1_565 S
C1360 C1359 1.523 . S
C1361 C1345 1.429 . S
C1361 C1357 1.429 . S
C1361 C1362 1.523 . S
C1362 C1346 1.368 . S
C1362 C1358 1.368 1_545 S
C1362 C1361 1.523 . S
H1363 C1338 0.950 . S
H1364 C1340 0.950 . S
H1365 C1341 0.949 . S
H1366 C1343 0.950 . S
H1367 C1345 0.950 . S
C1368 C1369 1.349 . S
C1368 C1370 1.327 . S
C1368 H1393 0.950 . S
C1369 C1368 1.349 . S
C1369 C1385 1.349 . S
C1370 C1368 1.327 . S
C1370 C1389 1.429 . S
C1370 H1394 0.950 . S
C1371 C1388 1.574 1_655 S
C1371 C1390 1.368 . S
C1371 H1395 0.949 . S
H1372 C1376 0.949 . S
C1373 C1374 1.349 . S
C1373 C1375 1.327 . S
C1373 H1396 0.950 . S
C1374 C1373 1.349 . S
C1374 C1386 1.349 . S
C1375 C1373 1.327 . S
C1375 C1391 1.429 . S
C1375 H1397 0.950 . S
C1376 H1372 0.949 . S
C1376 C1384 1.574 1_455 S
C1376 C1392 1.368 . S
H1377 C1385 0.950 . S
H1378 C1383 0.950 . S
H1379 C1384 0.949 . S
H1380 C1386 0.950 . S
H1381 C1387 0.950 . S
H1382 C1388 0.949 . S
C1383 H1378 0.950 . S
C1383 C1385 1.327 . S
C1383 C1389 1.429 . S
C1384 C1376 1.574 1_655 S
C1384 H1379 0.949 . S
C1384 C1390 1.368 1_554 S
C1385 C1369 1.349 . S
C1385 H1377 0.950 . S
C1385 C1383 1.327 . S
C1386 C1374 1.349 . S
C1386 H1380 0.950 . S
C1386 C1387 1.327 . S
C1387 H1381 0.950 . S
C1387 C1386 1.327 . S
C1387 C1391 1.429 . S
C1388 C1371 1.574 1_455 S
C1388 H1382 0.949 . S
C1388 C1392 1.368 1_556 S
C1389 C1370 1.429 . S
C1389 C1383 1.429 . S
C1389 C1390 1.523 . S
C1390 C1371 1.368 . S
C1390 C1384 1.368 1_556 S
C1390 C1389 1.523 . S
C1391 C1375 1.429 . S
C1391 C1387 1.429 . S
C1391 C1392 1.523 . S
C1392 C1376 1.368 . S
C1392 C1388 1.368 1_554 S
C1392 C1391 1.523 . S
H1393 C1368 0.950 . S
H1394 C1370 0.950 . S
H1395 C1371 0.949 . S
H1396 C1373 0.950 . S
H1397 C1375 0.950 . S
C1398 C1399 1.349 . S
C1398 C1400 1.327 . S
C1398 H1423 0.950 . S
C1399 C1398 1.349 . S
C1399 C1415 1.349 . S
C1400 C1398 1.327 . S
C1400 C1419 1.429 . S
C1400 H1424 0.950 . S
C1401 C1418 1.574 1_455 S
C1401 C1420 1.368 1_554 S
C1401 H1425 0.949 . S
H1402 C1406 0.949 . S
C1403 C1404 1.349 . S
C1403 C1405 1.327 . S
C1403 H1426 0.950 . S
C1404 C1403 1.349 . S
C1404 C1416 1.349 . S
C1405 C1403 1.327 . S
C1405 C1421 1.429 . S
C1405 H1427 0.950 . S
C1406 H1402 0.949 . S
C1406 C1414 1.574 1_655 S
C1406 C1422 1.368 1_556 S
H1407 C1415 0.950 . S
H1408 C1413 0.950 . S
H1409 C1414 0.949 . S
H1410 C1416 0.950 . S
H1411 C1417 0.950 . S
H1412 C1418 0.949 . S
C1413 H1408 0.950 . S
C1413 C1415 1.327 . S
C1413 C1419 1.429 . S
C1414 C1406 1.574 1_455 S
C1414 H1409 0.949 . S
C1414 C1420 1.368 . S
C1415 C1399 1.349 . S
C1415 H1407 0.950 . S
C1415 C1413 1.327 . S
C1416 C1404 1.349 . S
C1416 H1410 0.950 . S
C1416 C1417 1.327 . S
C1417 H1411 0.950 . S
C1417 C1416 1.327 . S
C1417 C1421 1.429 . S
C1418 C1401 1.574 1_655 S
C1418 H1412 0.949 . S
C1418 C1422 1.368 . S
C1419 C1400 1.429 . S
C1419 C1413 1.429 . S
C1419 C1420 1.523 . S
C1420 C1401 1.368 1_556 S
C1420 C1414 1.368 . S
C1420 C1419 1.523 . S
C1421 C1405 1.429 . S
C1421 C1417 1.429 . S
C1421 C1422 1.523 . S
C1422 C1406 1.368 1_554 S
C1422 C1418 1.368 . S
C1422 C1421 1.523 . S
H1423 C1398 0.950 . S
H1424 C1400 0.950 . S
H1425 C1401 0.949 . S
H1426 C1403 0.950 . S
H1427 C1405 0.950 . S
C709 C182 0.710 . S
C714 C5 0.710 . S
C739 C123 0.710 . S
C744 C64 0.710 . S
C769 C300 0.710 . S
C774 C241 0.710 . S
C799 C359 0.710 . S
C804 C418 0.710 . S
C829 C536 0.710 . S
C834 C477 0.710 . S
C859 C595 0.710 . S
C864 C654 0.710 . S
C889 C52 1.049 . S
C894 C446 1.022 . S
C919 C387 1.022 . S
C924 C111 1.049 . S
C949 C328 1.022 . S
C954 C170 1.049 . S
C979 C269 1.022 . S
C984 C229 1.049 . S
C1009 C288 1.049 . S
C1014 C682 1.022 . S
C1039 C505 1.022 . S
C1044 C347 1.049 . S
C1069 C623 1.022 . S
C1074 C406 1.049 . S
C1099 C465 1.049 . S
C1104 C564 1.022 . S
C1129 C151 1.022 . S
C1134 C524 1.049 . S
C1159 C33 1.022 . S
C1164 C583 1.049 . S
C1189 C642 1.049 . S
C1194 C92 1.022 . S
C1219 C210 1.022 . S
C1224 C701 1.049 . S
C1249 C3 1.232 . S
C1254 C62 1.232 . S
C1279 C180 1.232 . S
C1284 C121 1.232 . S
C1309 C357 1.232 . S
C1314 C239 1.232 . S
C1339 C298 1.232 . S
C1344 C416 1.232 . S
C1369 C593 1.232 . S
C1374 C475 1.232 . S
C1399 C534 1.232 . S
C1404 C652 1.232 . S
