# Generated by pormake.
# Topology smu, (6)-cn, num edge types: 1
# Building blocks:
#     Node 0, Type 0, BuildingBlock: CUKXOW_clean_sbu_0, # of connection points: 6
#     Node 1, Type 0, BuildingBlock: CUKXOW_clean_sbu_0, # of connection points: 6
#     Node 2, Type 0, BuildingBlock: CUKXOW_clean_sbu_0, # of connection points: 6
#     Node 3, Type 0, BuildingBlock: CUKXOW_clean_sbu_0, # of connection points: 6
#     Node 4, Type 0, BuildingBlock: CUKXOW_clean_sbu_0, # of connection points: 6
#     Node 5, Type 0, BuildingBlock: CUKXOW_clean_sbu_0, # of connection points: 6
#     Edge 6, Type (0, 0), BuildingBlock: MIFKUJ_clean_linker_0, # of connection points: 2
#     Edge 7, Type (0, 0), BuildingBlock: MIFKUJ_clean_linker_0, # of connection points: 2
#     Edge 8, Type (0, 0), BuildingBlock: MIFKUJ_clean_linker_0, # of connection points: 2
#     Edge 9, Type (0, 0), BuildingBlock: MIFKUJ_clean_linker_0, # of connection points: 2
#     Edge 10, Type (0, 0), BuildingBlock: MIFKUJ_clean_linker_0, # of connection points: 2
#     Edge 11, Type (0, 0), BuildingBlock: MIFKUJ_clean_linker_0, # of connection points: 2
#     Edge 12, Type (0, 0), BuildingBlock: MIFKUJ_clean_linker_0, # of connection points: 2
#     Edge 13, Type (0, 0), BuildingBlock: MIFKUJ_clean_linker_0, # of connection points: 2
#     Edge 14, Type (0, 0), BuildingBlock: MIFKUJ_clean_linker_0, # of connection points: 2
#     Edge 15, Type (0, 0), BuildingBlock: MIFKUJ_clean_linker_0, # of connection points: 2
#     Edge 16, Type (0, 0), BuildingBlock: MIFKUJ_clean_linker_0, # of connection points: 2
#     Edge 17, Type (0, 0), BuildingBlock: MIFKUJ_clean_linker_0, # of connection points: 2
#     Edge 18, Type (0, 0), BuildingBlock: MIFKUJ_clean_linker_0, # of connection points: 2
#     Edge 19, Type (0, 0), BuildingBlock: MIFKUJ_clean_linker_0, # of connection points: 2
#     Edge 20, Type (0, 0), BuildingBlock: MIFKUJ_clean_linker_0, # of connection points: 2
#     Edge 21, Type (0, 0), BuildingBlock: MIFKUJ_clean_linker_0, # of connection points: 2
#     Edge 22, Type (0, 0), BuildingBlock: MIFKUJ_clean_linker_0, # of connection points: 2
#     Edge 23, Type (0, 0), BuildingBlock: MIFKUJ_clean_linker_0, # of connection points: 2
# Relax obj value: 0.191
# Max RMSD: 0.295
# Mean RMSD: 0.274
data_MOF--net-smu--node1-CUKXOW_clean_sbu_0--edge1-MIFKUJ_clean_linker_0
_symmetry_space_group_name_H-M    P1
_symmetry_Int_Tables_number       1
_symmetry_cell_setting            triclinic
loop_
_symmetry_equiv_pos_as_xyz
'x, y, z'
_cell_length_a     39.268495
_cell_length_b     39.169279
_cell_length_c     37.511403
_cell_angle_alpha  94.065834
_cell_angle_beta   91.116611
_cell_angle_gamma 119.965
loop_
_atom_site_label
_atom_site_type_symbol
_atom_site_fract_x
_atom_site_fract_y
_atom_site_fract_z
_atom_type_partial_charge
Tb0 Tb 0.38215 0.13886 0.26521 0.0
C1 C 0.35477 0.09208 0.33551 0.0
Tb2 Tb 0.31742 0.05232 0.2617 0.0
O3 O 0.34002 0.15293 0.2422 0.0
O4 O 0.32124 0.10791 0.27622 0.0
O5 O 0.38551 0.1193 0.31939 0.0
C6 C 0.2442 0.99028 0.25188 0.0
O7 O 0.3205 0.06936 0.31771 0.0
C8 C 0.3908 0.06587 0.26444 0.0
C9 C 0.34861 0.09014 0.18851 0.0
O10 O 0.27253 0.99171 0.27173 0.0
O11 O 0.25761 0.0231 0.23701 0.0
O12 O 0.36147 0.03403 0.27524 0.0
O13 O 0.37684 0.08418 0.24987 0.0
O14 O 0.32015 0.06135 0.20487 0.0
O15 O 0.37889 0.12191 0.20675 0.0
C16 C 0.44162 0.21406 0.27857 0.0
O17 O 0.40771 0.19859 0.29246 0.0
O18 O 0.44261 0.18673 0.25746 0.0
C19 C 0.30984 0.12517 0.25599 0.0
Tb20 Tb 0.75121 0.70939 0.26664 0.0
C21 C 0.76681 0.67639 0.33166 0.0
Tb22 Tb 0.77341 0.64624 0.25141 0.0
O23 O 0.69336 0.66643 0.28618 0.0
O24 O 0.72144 0.64871 0.24922 0.0
O25 O 0.77403 0.70985 0.31926 0.0
C26 C 0.79724 0.59285 0.25431 0.0
O27 O 0.76053 0.64527 0.30943 0.0
C28 C 0.8291 0.71963 0.24581 0.0
C29 C 0.74195 0.67205 0.18552 0.0
O30 O 0.76154 0.58437 0.24474 0.0
O31 O 0.81858 0.63069 0.26194 0.0
O32 O 0.82329 0.68947 0.22456 0.0
O33 O 0.80447 0.7076 0.26963 0.0
O34 O 0.75054 0.64506 0.19622 0.0
O35 O 0.74222 0.69975 0.20835 0.0
C36 C 0.76432 0.78278 0.26359 0.0
O37 O 0.77921 0.76585 0.24366 0.0
O38 O 0.74085 0.75794 0.28526 0.0
C39 C 0.69313 0.63608 0.26904 0.0
Tb40 Tb 0.88875 0.25266 0.26485 0.0
C41 C 0.9356 0.27079 0.3411 0.0
Tb42 Tb 0.97609 0.27744 0.27107 0.0
O43 O 0.87617 0.19665 0.23704 0.0
O44 O 0.92168 0.22444 0.27662 0.0
O45 O 0.90859 0.27491 0.32254 0.0
C46 C 0.03804 0.26713 0.26417 0.0
O47 O 0.96 0.26201 0.3246 0.0
C48 C 0.9611 0.33634 0.27806 0.0
C49 C 0.93648 0.27019 0.19407 0.0
O50 O 0.03609 0.29167 0.28822 0.0
O51 O 1.00577 0.24959 0.24386 0.0
O52 O 0.9947 0.34034 0.28917 0.0
O53 O 0.94232 0.30374 0.25983 0.0
O54 O 0.96571 0.27096 0.21308 0.0
O55 O 0.90482 0.268 0.20915 0.0
C56 C 0.81311 0.23322 0.27193 0.0
O57 O 0.83227 0.21996 0.28924 0.0
O58 O 0.83686 0.25836 0.25071 0.0
C59 C 0.90473 0.19526 0.25328 0.0
Tb60 Tb 0.06282 0.31805 0.7692 0.0
C61 C 0.10429 0.35804 0.70168 0.0
Tb62 Tb 0.14818 0.38624 0.77896 0.0
O63 O 0.04337 0.35858 0.75019 0.0
O64 O 0.09238 0.3794 0.78527 0.0
O65 O 0.08022 0.32408 0.71451 0.0
C66 C 0.22213 0.44544 0.79636 0.0
O67 O 0.1306 0.38963 0.72303 0.0
C68 C 0.13825 0.31574 0.75843 0.0
C69 C 0.09806 0.3504 0.84808 0.0
O70 O 0.19624 0.4477 0.77589 0.0
O71 O 0.2057 0.41052 0.80775 0.0
O72 O 0.16576 0.34866 0.74834 0.0
O73 O 0.11881 0.32367 0.7804 0.0
O74 O 0.12936 0.38091 0.8353 0.0
O75 O 0.06991 0.32072 0.8269 0.0
C76 C 1.00467 0.24296 0.76128 0.0
O77 O 1.00258 0.27183 0.77875 0.0
O78 O 0.03877 0.25682 0.74787 0.0
C79 C 0.07326 0.39019 0.76663 0.0
Tb80 Tb 0.27391 0.96753 0.76129 0.0
C81 C 0.27205 0.93729 0.68095 0.0
Tb82 Tb 0.25543 0.88161 0.7461 0.0
O83 O 0.33441 0.9859 0.78332 0.0
O84 O 0.30447 0.93812 0.74525 0.0
O85 O 0.27036 0.96392 0.70355 0.0
C86 C 0.24127 0.80768 0.72889 0.0
O87 O 0.26865 0.90363 0.69153 0.0
C88 C 0.19643 0.89121 0.76571 0.0
C89 C 0.27284 0.92172 0.82574 0.0
O90 O 0.22209 0.82339 0.71552 0.0
O91 O 0.26986 0.83445 0.75073 0.0
O92 O 0.20149 0.86254 0.77383 0.0
O93 O 0.22278 0.91183 0.74544 0.0
O94 O 0.27758 0.8965 0.80338 0.0
O95 O 0.26351 0.9472 0.81412 0.0
C96 C 0.25898 0.02689 0.7703 0.0
O97 O 0.28863 0.02853 0.75381 0.0
O98 O 0.23872 0.9924 0.78214 0.0
C99 C 0.33503 0.95631 0.76562 0.0
Tb100 Tb 0.71323 0.7531 0.767 0.0
C101 C 0.67323 0.74181 0.68856 0.0
Tb102 Tb 0.64826 0.7731 0.75845 0.0
O103 O 0.67244 0.69521 0.7874 0.0
O104 O 0.6523 0.72173 0.75341 0.0
O105 O 0.70183 0.74284 0.70897 0.0
C106 C 0.59349 0.79449 0.76749 0.0
O107 O 0.64629 0.74979 0.70206 0.0
C108 C 0.7196 0.82996 0.74849 0.0
C109 C 0.68119 0.76819 0.83567 0.0
O110 O 0.62954 0.81361 0.78078 0.0
O111 O 0.58762 0.76233 0.74896 0.0
O112 O 0.68812 0.82349 0.73065 0.0
O113 O 0.71003 0.80591 0.77217 0.0
O114 O 0.64914 0.76025 0.81557 0.0
O115 O 0.71431 0.7764 0.82087 0.0
C116 C 0.78663 0.76707 0.76118 0.0
O117 O 0.76096 0.7414 0.78096 0.0
O118 O 0.77053 0.78376 0.74445 0.0
C119 C 0.64123 0.69376 0.7728 0.0
H120 H 0.34275 0.94252 0.86185 0.0
H121 H 0.36228 0.97299 0.92388 0.0
H122 H 0.24271 0.94487 0.93916 0.0
H123 H 0.22375 0.91572 0.8772 0.0
H124 H 0.28999 0.01993 0.95693 0.0
H125 H 0.29043 0.90124 0.9832 0.0
H126 H 0.31052 0.85089 0.97529 0.0
H127 H 0.4314 0.94052 1.00002 0.0
H128 H 0.41208 0.99153 1.00757 0.0
H129 H 0.28397 0.05535 0.14263 0.0
H130 H 0.2782 0.02929 0.08046 0.0
H131 H 0.40399 0.07803 0.08259 0.0
H132 H 0.40988 0.10448 0.14553 0.0
H133 H 0.36331 0.99944 0.05425 0.0
H134 H 0.36212 0.11704 0.03302 0.0
H135 H 0.34252 0.16782 0.03961 0.0
H136 H 0.22353 0.0807 1.00417 0.0
H137 H 0.24223 0.02921 0.99794 0.0
C138 C 0.32038 0.94128 0.87905 0.0
C139 C 0.28154 0.92604 0.86493 0.0
C140 C 0.33161 0.95909 0.91448 0.0
C141 C 0.30408 0.96163 0.93647 0.0
C142 C 0.2647 0.94372 0.92292 0.0
C143 C 0.25367 0.92644 0.8876 0.0
C144 C 0.3163 0.98583 0.97212 0.0
C145 C 0.30559 0.01497 0.97829 0.0
C146 C 0.33827 0.98094 0.99972 0.0
C147 C 0.34985 0.95026 0.99556 0.0
C148 C 0.32133 0.91026 0.98669 0.0
C149 C 0.33257 0.88159 0.98231 0.0
C150 C 0.37222 0.89251 0.98704 0.0
C151 C 0.4007 0.93211 0.9963 0.0
C152 C 0.38962 0.96091 1.00065 0.0
C153 C 0.3106 0.06143 0.12965 0.0
C154 C 0.34744 0.08242 0.14894 0.0
C155 C 0.30724 0.04638 0.09401 0.0
C156 C 0.34061 0.05162 0.07653 0.0
C157 C 0.37776 0.07356 0.09538 0.0
C158 C 0.3812 0.08915 0.13119 0.0
C159 C 0.33573 0.03246 0.03928 0.0
C160 C 0.34793 1.00447 0.03275 0.0
C161 C 0.31508 0.03834 1.01121 0.0
C162 C 0.30356 0.06916 0.01527 0.0
C163 C 0.33169 0.1086 0.02695 0.0
C164 C 0.32075 0.13754 0.03057 0.0
C165 C 0.28179 0.12748 0.02238 0.0
C166 C 0.25369 0.08844 1.01054 0.0
C167 C 0.26445 0.05937 1.00693 0.0
H168 H 0.2734 0.14994 0.02514 0.0
H169 H 0.38087 0.87028 0.98362 0.0
H170 H 0.66246 0.7713 0.62672 0.0
H171 H 0.67319 0.75347 0.56518 0.0
H172 H 0.69059 0.66166 0.60345 0.0
H173 H 0.68074 0.67976 0.6642 0.0
H174 H 0.74842 0.70367 0.56535 0.0
H175 H 0.60763 0.64219 0.54896 0.0
H176 H 0.54362 0.63967 0.54946 0.0
H177 H 0.58185 0.72732 0.47404 0.0
H178 H 0.6463 0.73073 0.47344 0.0
H179 H 0.70625 0.61556 0.36307 0.0
H180 H 0.68466 0.6192 0.4238 0.0
H181 H 0.78636 0.73549 0.44708 0.0
H182 H 0.80755 0.73211 0.38675 0.0
H183 H 0.66552 0.67558 0.45371 0.0
H184 H 0.81541 0.74776 0.53559 0.0
H185 H 0.87754 0.7464 0.53545 0.0
H186 H 0.81687 0.62929 0.48113 0.0
H187 H 0.7543 0.62971 0.48141 0.0
C188 C 0.66749 0.74665 0.62168 0.0
C189 C 0.67069 0.72693 0.65035 0.0
C190 C 0.67382 0.73652 0.58651 0.0
C191 C 0.68305 0.70623 0.57939 0.0
C192 C 0.68404 0.68536 0.60793 0.0
C193 C 0.67811 0.69561 0.64276 0.0
C194 C 0.6944 0.69762 0.5432 0.0
C195 C 0.73013 0.69756 0.54103 0.0
C196 C 0.67064 0.68907 0.51118 0.0
C197 C 0.63191 0.68698 0.51143 0.0
C198 C 0.60249 0.66114 0.53269 0.0
C199 C 0.56611 0.65951 0.53295 0.0
C200 C 0.55871 0.68339 0.51187 0.0
C201 C 0.58764 0.70888 0.4904 0.0
C202 C 0.62408 0.71064 0.49006 0.0
C203 C 0.72463 0.64127 0.38161 0.0
C204 C 0.75901 0.67329 0.3703 0.0
C205 C 0.71194 0.64363 0.41613 0.0
C206 C 0.73375 0.67773 0.44016 0.0
C207 C 0.76903 0.70879 0.42931 0.0
C208 C 0.78133 0.7067 0.39483 0.0
C209 C 0.71952 0.68199 0.47612 0.0
C210 C 0.68355 0.68154 0.47816 0.0
C211 C 0.7428 0.68967 0.50819 0.0
C212 C 0.78023 0.68895 0.50824 0.0
C213 C 0.8153 0.72166 0.52375 0.0
C214 C 0.8506 0.72106 0.52363 0.0
C215 C 0.85118 0.68783 0.5082 0.0
C216 C 0.81642 0.65507 0.49296 0.0
C217 C 0.78104 0.6555 0.49304 0.0
H218 H 0.87854 0.68744 0.50811 0.0
H219 H 0.53053 0.68209 0.51211 0.0
H220 H 0.9536 0.22623 0.14711 0.0
H221 H 0.98128 0.24319 0.08891 0.0
H222 H 0.967 0.34567 0.09669 0.0
H223 H 0.93758 0.32754 0.15473 0.0
H224 H 0.95639 0.31774 0.0286 0.0
H225 H 0.05631 0.35044 0.12015 0.0
H226 H 0.08816 0.3384 0.17121 0.0
H227 H 0.09863 0.25051 0.10504 0.0
H228 H 0.06606 0.2614 0.05369 0.0
H229 H 0.09703 0.40715 0.89505 0.0
H230 H 0.07054 0.3977 0.95491 0.0
H231 H 0.05513 0.28046 0.94804 0.0
H232 H 0.08037 0.28941 0.88816 0.0
H233 H 0.08466 0.32303 0.01761 0.0
H234 H 0.97947 0.28788 0.92798 0.0
H235 H 0.94749 0.30069 0.87755 0.0
H236 H 0.94995 0.39723 0.94174 0.0
H237 H 0.98254 0.38535 0.99242 0.0
C238 C 0.95512 0.25166 0.13585 0.0
C239 C 0.94289 0.27522 0.15534 0.0
C240 C 0.9716 0.26176 0.10273 0.0
C241 C 0.97762 0.29654 0.08856 0.0
C242 C 0.96311 0.31886 0.10693 0.0
C243 C 0.9459 0.3083 0.14001 0.0
C244 C 1.00072 0.31023 0.05575 0.0
C245 C 0.98474 0.31952 0.02659 0.0
C246 C 0.03784 0.31249 0.05253 0.0
C247 C 0.05836 0.30649 0.08311 0.0
C248 C 0.06519 0.32838 0.1165 0.0
C249 C 0.08335 0.32174 0.14552 0.0
C250 C 0.09526 0.29359 0.1414 0.0
C251 C 0.08927 0.27221 0.10819 0.0
C252 C 0.07096 0.27862 0.07912 0.0
C253 C 0.08909 0.37988 0.90683 0.0
C254 C 0.09137 0.34925 0.88708 0.0
C255 C 0.07354 0.3743 0.9409 0.0
C256 C 0.06055 0.33821 0.95613 0.0
C257 C 0.06496 0.30857 0.93714 0.0
C258 C 0.07959 0.31379 0.90291 0.0
C259 C 0.04003 0.32999 0.99055 0.0
C260 C 0.05653 0.32167 0.01994 0.0
C261 C 1.00369 0.32905 0.99414 0.0
C262 C 0.98388 0.33605 0.96382 0.0
C263 C 0.97352 0.31207 0.93123 0.0
C264 C 0.95523 0.31912 0.90262 0.0
C265 C 0.94681 0.34984 0.9064 0.0
C266 C 0.95657 0.3735 0.93883 0.0
C267 C 0.97494 0.36662 0.96751 0.0
H268 H 0.93263 0.35525 0.88422 0.0
H269 H 0.10915 0.28838 0.16394 0.0
H270 H 0.38232 0.13597 0.40208 0.0
H271 H 0.37397 0.10859 0.46073 0.0
H272 H 0.32565 0.99123 0.4071 0.0
H273 H 0.33352 0.01817 0.34939 0.0
H274 H 0.27843 0.98917 0.45551 0.0
H275 H 0.41681 0.03913 0.45413 0.0
H276 H 0.4868 0.0884 0.44964 0.0
H277 H 0.48265 0.15895 0.5406 0.0
H278 H 0.41243 0.11018 0.54545 0.0
H279 H 0.2653 0.89196 0.61713 0.0
H280 H 0.28443 0.91617 0.55753 0.0
H281 H 0.32419 0.03533 0.60251 0.0
H282 H 0.30528 1.01198 0.66084 0.0
H283 H 0.37734 0.03366 0.55781 0.0
H284 H 0.23699 0.98336 0.55624 0.0
H285 H 0.16753 0.93224 0.56053 0.0
H286 H 0.1767 0.86027 0.4737 0.0
H287 H 0.24643 0.91079 0.46923 0.0
C288 C 0.37096 0.10455 0.40298 0.0
C289 C 0.35863 0.07927 0.3711 0.0
C290 C 0.36596 0.08877 0.4365 0.0
C291 C 0.34877 0.04754 0.43861 0.0
C292 C 0.33848 0.02291 0.40656 0.0
C293 C 0.34329 0.03849 0.37345 0.0
C294 C 0.3391 0.02928 0.47364 0.0
C295 C 0.30037 0.99863 0.47762 0.0
C296 C 0.36722 0.04156 0.50295 0.0
C297 C 0.40926 0.07122 0.4999 0.0
C298 C 0.43072 0.06534 0.47297 0.0
C299 C 0.47046 0.09312 0.47042 0.0
C300 C 0.48915 0.12686 0.49476 0.0
C301 C 0.46812 0.13283 0.52174 0.0
C302 C 0.42836 0.1051 0.52443 0.0
C303 C 0.27808 0.92324 0.61422 0.0
C304 C 0.28315 0.9497 0.644 0.0
C305 C 0.28903 0.93712 0.58013 0.0
C306 C 0.30583 0.97777 0.57536 0.0
C307 C 0.31151 1.00399 0.60523 0.0
C308 C 0.3002 0.99025 0.63877 0.0
C309 C 0.3168 0.99371 0.53952 0.0
C310 C 0.35564 0.02403 0.53548 0.0
C311 C 0.28888 0.98096 0.51002 0.0
C312 C 0.24703 0.95059 0.51271 0.0
C313 C 0.22429 0.95646 0.53829 0.0
C314 C 0.18486 0.92764 0.54071 0.0
C315 C 0.16775 0.89297 0.51749 0.0
C316 C 0.19002 0.8871 0.49173 0.0
C317 C 0.22949 0.91582 0.48923 0.0
H318 H 0.13721 0.87069 0.51938 0.0
H319 H 0.51994 0.14831 0.49276 0.0
H320 H 0.7419 0.80413 0.88622 0.0
H321 H 0.74549 0.78379 0.94539 0.0
H322 H 0.62197 0.69608 0.93251 0.0
H323 H 0.61849 0.71588 0.8723 0.0
H324 H 0.71378 0.78055 1.00691 0.0
H325 H 0.60618 0.61689 0.97493 0.0
H326 H 0.57404 0.56898 0.92177 0.0
H327 H 0.67696 0.63381 0.8635 0.0
H328 H 0.70984 0.68182 0.91645 0.0
H329 H 0.68544 0.68794 0.16516 0.0
H330 H 0.66939 0.69955 0.10592 0.0
H331 H 0.75049 0.66712 0.06076 0.0
H332 H 0.76677 0.65508 0.12091 0.0
H333 H 0.67833 0.64082 0.01524 0.0
H334 H 0.78143 0.76154 0.0816 0.0
H335 H 0.8096 0.8116 0.13369 0.0
H336 H 0.71398 0.83448 0.12249 0.0
H337 H 0.68493 0.78417 0.07078 0.0
C338 C 0.7152 0.781 0.89618 0.0
C339 C 0.67987 0.76171 0.87444 0.0
C340 C 0.71733 0.76932 0.93016 0.0
C341 C 0.68426 0.73779 0.94347 0.0
C342 C 0.64816 0.72 0.92275 0.0
C343 C 0.646 0.73176 0.88851 0.0
C344 C 0.6888 0.7229 0.97808 0.0
C345 C 0.70584 0.74994 1.00864 0.0
C346 C 0.67868 0.68297 0.98072 0.0
C347 C 0.66038 0.65289 0.9496 0.0
C348 C 0.6221 0.62061 0.9509 0.0
C349 C 0.6037 0.59354 0.92078 0.0
C350 C 0.62342 0.59838 0.88928 0.0
C351 C 0.66172 0.6301 0.88792 0.0
C352 C 0.68026 0.65721 0.91798 0.0
C353 C 0.69953 0.68257 0.14263 0.0
C354 C 0.72776 0.67091 0.14796 0.0
C355 C 0.69025 0.68929 0.10864 0.0
C356 C 0.70914 0.68497 0.07878 0.0
C357 C 0.73553 0.6708 0.08339 0.0
C358 C 0.74478 0.66379 0.11775 0.0
C359 C 0.70352 0.69865 0.04392 0.0
C360 C 0.68624 0.6714 1.01344 0.0
C361 C 0.71314 0.73845 0.04136 0.0
C362 C 0.73086 0.76887 0.07243 0.0
C363 C 0.76627 0.77705 0.09041 0.0
C364 C 0.78242 0.80551 0.11987 0.0
C365 C 0.7636 0.82623 0.13139 0.0
C366 C 0.72857 0.81848 0.11355 0.0
C367 C 0.71226 0.79 0.08416 0.0
H368 H 0.77619 0.84839 0.15406 0.0
H369 H 0.60903 0.57755 0.86591 0.0
H370 H 0.93637 0.33106 0.38493 0.0
H371 H 0.96284 0.35173 0.44779 0.0
H372 H 0.97924 0.25087 0.4489 0.0
H373 H 0.9532 0.2305 0.38669 0.0
H374 H 0.95334 0.26358 0.51201 0.0
H375 H 0.05516 0.34287 0.43362 0.0
H376 H 0.0821 0.38943 0.38711 0.0
H377 H 0.06967 0.47628 0.45307 0.0
H378 H 0.04222 0.42999 0.49982 0.0
H379 H 0.09337 0.30338 0.64771 0.0
H380 H 0.06362 0.29466 0.58762 0.0
H381 H 0.06454 0.40485 0.60792 0.0
H382 H 0.09565 0.41419 0.66832 0.0
H383 H 0.07632 0.39315 0.5372 0.0
H384 H 0.98188 0.31769 0.61863 0.0
H385 H 0.95411 0.27161 0.66538 0.0
H386 H 0.94948 0.17813 0.59458 0.0
H387 H 0.97792 0.22384 0.54758 0.0
C388 C 0.9445 0.31272 0.39901 0.0
C389 C 0.94232 0.27892 0.38085 0.0
C390 C 0.96016 0.32483 0.43484 0.0
C391 C 0.97368 0.30321 0.45325 0.0
C392 C 0.96922 0.26823 0.4356 0.0
C393 C 0.95414 0.25649 0.39993 0.0
C394 C 0.99438 0.3174 0.49002 0.0
C395 C 0.98029 0.29186 0.51739 0.0
C396 C 0.02907 0.3548 0.49775 0.0
C397 C 0.04628 0.38286 0.47002 0.0
C398 C 0.05799 0.37183 0.43811 0.0
C399 C 0.07337 0.39817 0.41173 0.0
C400 C 0.0775 0.43576 0.4171 0.0
C401 C 0.06641 0.44714 0.44893 0.0
C402 C 0.05097 0.42088 0.47539 0.0
C403 C 0.08846 0.32646 0.63902 0.0
C404 C 0.09717 0.35961 0.6628 0.0
C405 C 0.07093 0.3212 0.60469 0.0
C406 C 0.06059 0.34844 0.59327 0.0
C407 C 0.07184 0.38316 0.61599 0.0
C408 C 0.08998 0.3887 0.65046 0.0
C409 C 0.0358 0.33879 0.55887 0.0
C410 C 0.04908 0.36511 0.53202 0.0
C411 C 1.00006 0.30217 0.55164 0.0
C412 C 0.98232 0.27432 0.57963 0.0
C413 C 0.97516 0.28737 0.61308 0.0
C414 C 0.95929 0.26131 0.63963 0.0
C415 C 0.95009 0.22198 0.63298 0.0
C416 C 0.95665 0.20861 0.5997 0.0
C417 C 0.97262 0.23458 0.57308 0.0
H418 H 0.93782 0.20185 0.65358 0.0
H419 H 0.08936 0.45609 0.39662 0.0
H420 H 0.43255 0.04284 0.30742 0.0
H421 H 0.50447 0.06956 0.31069 0.0
H422 H 0.51635 0.14518 0.22794 0.0
H423 H 0.44555 0.11884 0.2246 0.0
H424 H 0.56085 0.11198 0.21593 0.0
H425 H 0.53829 0.18189 0.31371 0.0
H426 H 0.50844 0.18876 0.36897 0.0
H427 H 0.55945 0.13139 0.42473 0.0
H428 H 0.58907 0.12351 0.36953 0.0
H429 H 0.76612 0.25178 0.23204 0.0
H430 H 0.69433 0.22253 0.23264 0.0
H431 H 0.69162 0.15125 0.31626 0.0
H432 H 0.76313 0.18063 0.31597 0.0
H433 H 0.64221 0.17944 0.32892 0.0
H434 H 0.66678 0.11228 0.22864 0.0
H435 H 0.69655 0.10823 0.17235 0.0
H436 H 0.64159 0.16421 0.12038 0.0
H437 H 0.61189 0.16906 0.17651 0.0
C438 C 0.45061 0.06486 0.28978 0.0
C439 C 0.43341 0.07878 0.26584 0.0
C440 C 0.49167 0.0803 0.29177 0.0
C441 C 0.516 0.10963 0.26964 0.0
C442 C 0.49844 0.12262 0.24523 0.0
C443 C 0.45783 0.10758 0.24349 0.0
C444 C 0.5598 0.12769 0.27191 0.0
C445 C 0.57861 0.12692 0.24062 0.0
C446 C 0.58316 0.14698 0.30412 0.0
C447 C 0.5655 0.15167 0.33737 0.0
C448 C 0.54284 0.17038 0.33765 0.0
C449 C 0.526 0.17451 0.36897 0.0
C450 C 0.53196 0.16043 0.4003 0.0
C451 C 0.5548 0.14221 0.4004 0.0
C452 C 0.57162 0.13789 0.3691 0.0
C453 C 0.7502 0.23016 0.25075 0.0
C454 C 0.77026 0.21839 0.27383 0.0
C455 C 0.70913 0.21327 0.25098 0.0
C456 C 0.68728 0.18416 0.27419 0.0
C457 C 0.7076 0.17351 0.29807 0.0
C458 C 0.74854 0.1903 0.29781 0.0
C459 C 0.64326 0.16385 0.27286 0.0
C460 C 0.62443 0.16422 0.3043 0.0
C461 C 0.61982 0.14451 0.24068 0.0
C462 C 0.63741 0.14135 0.20685 0.0
C463 C 0.66126 0.12396 0.20527 0.0
C464 C 0.67809 0.12149 0.17339 0.0
C465 C 0.67104 0.13604 0.14283 0.0
C466 C 0.64706 0.15299 0.14407 0.0
C467 C 0.63019 0.15558 0.1759 0.0
H468 H 0.6841 0.1341 0.11818 0.0
H469 H 0.51899 0.16379 0.42452 0.0
H470 H 0.63417 0.6009 0.31576 0.0
H471 H 0.59099 0.52949 0.32021 0.0
H472 H 0.64839 0.50407 0.23388 0.0
H473 H 0.68981 0.57456 0.22845 0.0
H474 H 0.57399 0.45542 0.22426 0.0
H475 H 0.66802 0.49944 0.32531 0.0
H476 H 0.70359 0.54191 0.38051 0.0
H477 H 0.5946 0.49782 0.43197 0.0
H478 H 0.55827 0.45559 0.37683 0.0
H479 H 0.50913 0.25369 0.24291 0.0
H480 H 0.55306 0.32566 0.24477 0.0
H481 H 0.48409 0.34339 0.32421 0.0
H482 H 0.44045 0.2717 0.3226 0.0
H483 H 0.56261 0.39587 0.33894 0.0
H484 H 0.46936 0.35197 0.23691 0.0
H485 H 0.4345 0.31119 0.18079 0.0
H486 H 0.54442 0.35608 0.13079 0.0
H487 H 0.57999 0.39675 0.1868 0.0
C488 C 0.63722 0.57994 0.29764 0.0
C489 C 0.66557 0.59335 0.27194 0.0
C490 C 0.61279 0.53912 0.30034 0.0
C491 C 0.61665 0.51108 0.27768 0.0
C492 C 0.64464 0.52477 0.25173 0.0
C493 C 0.66861 0.56526 0.24884 0.0
C494 C 0.59191 0.46747 0.28053 0.0
C495 C 0.57198 0.4425 0.24933 0.0
C496 C 0.58846 0.45029 0.31327 0.0
C497 C 0.61037 0.47461 0.34683 0.0
C498 C 0.65161 0.49891 0.34836 0.0
C499 C 0.67191 0.52296 0.37962 0.0
C500 C 0.65136 0.52263 0.4097 0.0
C501 C 0.61048 0.49809 0.40863 0.0
C502 C 0.59001 0.47407 0.37738 0.0
C503 C 0.50373 0.27295 0.26113 0.0
C504 C 0.47121 0.25703 0.28244 0.0
C505 C 0.52873 0.3141 0.26208 0.0
C506 C 0.52165 0.34016 0.2843 0.0
C507 C 0.49025 0.3241 0.30682 0.0
C508 C 0.46523 0.28304 0.30579 0.0
C509 C 0.54533 0.38399 0.28254 0.0
C510 C 0.56483 0.40892 0.31392 0.0
C511 C 0.54872 0.40125 0.24991 0.0
C512 C 0.52735 0.3771 0.21614 0.0
C513 C 0.48611 0.35294 0.21401 0.0
C514 C 0.46622 0.32988 0.18222 0.0
C515 C 0.48724 0.33097 0.15227 0.0
C516 C 0.52818 0.35523 0.15403 0.0
C517 C 0.54821 0.37831 0.18578 0.0
H518 H 0.47179 0.31309 0.12768 0.0
H519 H 0.66712 0.54134 0.43385 0.0
H520 H 1.00373 0.41789 0.27955 0.0
H521 H 0.97661 0.46261 0.27785 0.0
H522 H 0.85963 0.36353 0.28502 0.0
H523 H 0.88671 0.31961 0.28662 0.0
H524 H 0.85885 0.40438 0.23287 0.0
H525 H 0.91016 0.43581 0.35568 0.0
H526 H 0.96179 0.45711 0.4043 0.0
H527 H 0.02963 0.569 0.36113 0.0
H528 H 0.97866 0.54812 0.31191 0.0
H529 H 0.75598 0.51163 0.2558 0.0
H530 H 0.78365 0.4682 0.26316 0.0
H531 H 0.90112 0.56898 0.26449 0.0
H532 H 0.87366 0.61219 0.25889 0.0
H533 H 0.90176 0.52704 0.31269 0.0
H534 H 0.85188 0.49529 0.189 0.0
H535 H 0.80136 0.47361 0.13926 0.0
H536 H 0.73195 0.36237 0.18306 0.0
H537 H 0.78185 0.38358 0.23329 0.0
C538 C 0.97237 0.40598 0.28137 0.0
C539 C 0.94712 0.36514 0.28259 0.0
C540 C 0.95681 0.43146 0.28031 0.0
C541 C 0.91586 0.41649 0.28103 0.0
C542 C 0.89114 0.3759 0.28384 0.0
C543 C 0.90661 0.35069 0.28464 0.0
C544 C 0.89811 0.44225 0.27749 0.0
C545 C 0.86797 0.43098 0.25064 0.0
C546 C 0.91038 0.47744 0.30006 0.0
C547 C 0.94076 0.49025 0.32992 0.0
C548 C 0.9362 0.46486 0.35643 0.0
C549 C 0.96533 0.47686 0.3841 0.0
C550 C 0.99901 0.51434 0.38575 0.0
C551 C 1.00355 0.53995 0.35979 0.0
C552 C 0.97454 0.52806 0.33201 0.0
C553 C 0.78766 0.52431 0.2575 0.0
C554 C 0.81263 0.56526 0.25665 0.0
C555 C 0.80355 0.4995 0.26158 0.0
C556 C 0.84471 0.51506 0.264 0.0
C557 C 0.8694 0.556 0.26288 0.0
C558 C 0.8536 0.58073 0.25946 0.0
C559 C 0.86246 0.48924 0.26794 0.0
C560 C 0.89261 0.50047 0.29488 0.0
C561 C 0.85031 0.45402 0.24535 0.0
C562 C 0.8204 0.44119 0.21508 0.0
C563 C 0.82572 0.46631 0.18813 0.0
C564 C 0.79721 0.45409 0.15984 0.0
C565 C 0.76342 0.41668 0.15805 0.0
C566 C 0.75811 0.39136 0.1845 0.0
C567 C 0.7865 0.40345 0.21287 0.0
H568 H 0.74138 0.40728 0.13614 0.0
H569 H 0.02155 0.52357 0.40718 0.0
H570 H 0.13522 0.455 0.80155 0.0
H571 H 0.16219 0.52418 0.79104 0.0
H572 H 0.06999 0.49079 0.70872 0.0
H573 H 0.04367 0.42056 0.71832 0.0
H574 H 0.13801 0.54703 0.68743 0.0
H575 H 0.06938 0.5338 0.79364 0.0
H576 H 0.05006 0.51451 0.8544 0.0
H577 H 0.16937 0.59167 0.89616 0.0
H578 H 0.18954 0.61102 0.83555 0.0
H579 H 0.17874 0.74837 0.68734 0.0
H580 H 0.14938 0.6768 0.68997 0.0
H581 H 0.24094 0.69768 0.76857 0.0
H582 H 0.27021 0.76932 0.76592 0.0
H583 H 0.16901 0.64712 0.79015 0.0
H584 H 0.23705 0.65888 0.68242 0.0
H585 H 0.25499 0.67785 0.62133 0.0
H586 H 0.13423 0.60369 0.58226 0.0
H587 H 0.11547 0.58469 0.64324 0.0
C588 C 0.12061 0.46226 0.78113 0.0
C589 C 0.08724 0.43223 0.7608 0.0
C590 C 0.13594 0.50203 0.77532 0.0
C591 C 0.11786 0.51316 0.74951 0.0
C592 C 0.08446 0.48316 0.72895 0.0
C593 C 0.06922 0.44304 0.7346 0.0
C594 C 0.13433 0.55608 0.74421 0.0
C595 C 0.14413 0.5688 0.70983 0.0
C596 C 0.14309 0.5849 0.7734 0.0
C597 C 0.13102 0.57363 0.80998 0.0
C598 C 0.09155 0.54647 0.81574 0.0
C599 C 0.08044 0.53555 0.85016 0.0
C600 C 0.10849 0.55179 0.87911 0.0
C601 C 0.14769 0.57909 0.8737 0.0
C602 C 0.15896 0.59009 0.83933 0.0
C603 C 0.19306 0.73766 0.70464 0.0
C604 C 0.22697 0.76449 0.72636 0.0
C605 C 0.17621 0.69667 0.70615 0.0
C606 C 0.19289 0.68158 0.72943 0.0
C607 C 0.22742 0.70843 0.75041 0.0
C608 C 0.24434 0.74937 0.74874 0.0
C609 C 0.17325 0.63813 0.73352 0.0
C610 C 0.16275 0.62533 0.76773 0.0
C611 C 0.16357 0.60933 0.70414 0.0
C612 C 0.1748 0.6207 0.66747 0.0
C613 C 0.21426 0.64688 0.66086 0.0
C614 C 0.22459 0.65759 0.62624 0.0
C615 C 0.19575 0.64208 0.59795 0.0
C616 C 0.15653 0.61573 0.60421 0.0
C617 C 0.14604 0.60496 0.63879 0.0
H618 H 0.2038 0.65039 0.57117 0.0
H619 H 0.09983 0.54328 0.90573 0.0
H620 H 0.33363 0.89376 0.72885 0.0
H621 H 0.3776 0.86739 0.73663 0.0
H622 H 0.44761 0.96249 0.81798 0.0
H623 H 0.40191 0.98813 0.81156 0.0
H624 H 0.49026 0.94595 0.7598 0.0
H625 H 0.3986 0.88404 0.84661 0.0
H626 H 0.33448 0.84612 0.87254 0.0
H627 H 0.30941 0.74289 0.80369 0.0
H628 H 0.37247 0.7807 0.77594 0.0
H629 H 0.60705 0.86206 0.80535 0.0
H630 H 0.56414 0.89039 0.80973 0.0
H631 H 0.47423 0.79034 0.74259 0.0
H632 H 0.51737 0.76148 0.73833 0.0
H633 H 0.44352 0.81228 0.7996 0.0
H634 H 0.53213 0.8778 0.70828 0.0
H635 H 0.59718 0.91575 0.68367 0.0
H636 H 0.62893 1.01184 0.7644 0.0
H637 H 0.56422 0.9742 0.7898 0.0
C638 C 0.35797 0.90882 0.74886 0.0
C639 C 0.36389 0.94267 0.77003 0.0
C640 C 0.38322 0.89375 0.75314 0.0
C641 C 0.41566 0.91267 0.77811 0.0
C642 C 0.42256 0.94729 0.79868 0.0
C643 C 0.39656 0.96195 0.79497 0.0
C644 C 0.44241 0.89622 0.78162 0.0
C645 C 0.48031 0.91705 0.76916 0.0
C646 C 0.42905 0.85805 0.79307 0.0
C647 C 0.39022 0.83552 0.80873 0.0
C648 C 0.3791 0.85352 0.83634 0.0
C649 C 0.34289 0.83199 0.85144 0.0
C650 C 0.31778 0.79216 0.83963 0.0
C651 C 0.32881 0.77381 0.81269 0.0
C652 C 0.36469 0.79536 0.7971 0.0
C653 C 0.57806 0.84589 0.79162 0.0
C654 C 0.56566 0.80959 0.77131 0.0
C655 C 0.55358 0.86227 0.79405 0.0
C656 C 0.51611 0.8429 0.77607 0.0
C657 C 0.50309 0.80596 0.7566 0.0
C658 C 0.52772 0.7895 0.75412 0.0
C659 C 0.49106 0.86169 0.77718 0.0
C660 C 0.45347 0.84125 0.79043 0.0
C661 C 0.50467 0.90025 0.76655 0.0
C662 C 0.54348 0.92301 0.75116 0.0
C663 C 0.55309 0.90689 0.72095 0.0
C664 C 0.58988 0.92837 0.70683 0.0
C665 C 0.61721 0.96614 0.72252 0.0
C666 C 0.60775 0.98255 0.7523 0.0
C667 C 0.57101 0.96118 0.76656 0.0
H668 H 0.64569 0.98272 0.71156 0.0
H669 H 0.28983 0.77547 0.85145 0.0
H670 H 0.26392 0.51513 0.76542 0.0
H671 H 0.33582 0.5569 0.76608 0.0
H672 H 0.34934 0.4813 0.83627 0.0
H673 H 0.27767 0.43997 0.8361 0.0
H674 H 0.40493 0.55704 0.85456 0.0
H675 H 0.35687 0.47015 0.74643 0.0
H676 H 0.31528 0.43863 0.69047 0.0
H677 H 0.3632 0.55198 0.64888 0.0
H678 H 0.40468 0.58426 0.70483 0.0
H679 H 0.60918 0.63314 0.81738 0.0
H680 H 0.53872 0.58851 0.82521 0.0
H681 H 0.50886 0.64861 0.74911 0.0
H682 H 0.57815 0.69084 0.73978 0.0
H683 H 0.46165 0.57521 0.73573 0.0
H684 H 0.50768 0.6624 0.84695 0.0
H685 H 0.55054 0.69198 0.90251 0.0
H686 H 0.50827 0.57631 0.93761 0.0
H687 H 0.46529 0.54603 0.88216 0.0
C688 C 0.28224 0.50788 0.78149 0.0
C689 C 0.26512 0.47416 0.80055 0.0
C690 C 0.32337 0.53161 0.7817 0.0
C691 C 0.34822 0.52193 0.80075 0.0
C692 C 0.33101 0.48943 0.82129 0.0
C693 C 0.28996 0.46576 0.82111 0.0
C694 C 0.39184 0.54411 0.7975 0.0
C695 C 0.41734 0.56078 0.82857 0.0
C696 C 0.40834 0.54899 0.76371 0.0
C697 C 0.3836 0.52965 0.72995 0.0
C698 C 0.35833 0.48838 0.72545 0.0
C699 C 0.3348 0.47038 0.69372 0.0
C700 C 0.33652 0.4933 0.66618 0.0
C701 C 0.36185 0.53427 0.67026 0.0
C702 C 0.3854 0.55243 0.70197 0.0
C703 C 0.5874 0.63647 0.80226 0.0
C704 C 0.59922 0.66572 0.77818 0.0
C705 C 0.54712 0.61123 0.80695 0.0
C706 C 0.51808 0.61538 0.78814 0.0
C707 C 0.53028 0.64452 0.764 0.0
C708 C 0.57013 0.66904 0.75892 0.0
C709 C 0.47492 0.58962 0.79268 0.0
C710 C 0.44937 0.57178 0.76177 0.0
C711 C 0.45854 0.58366 0.8266 0.0
C712 C 0.48348 0.60196 0.86034 0.0
C713 C 0.50758 0.64329 0.86651 0.0
C714 C 0.53191 0.66017 0.89796 0.0
C715 C 0.5322 0.63603 0.92352 0.0
C716 C 0.50801 0.59497 0.91778 0.0
C717 C 0.48361 0.57794 0.88639 0.0
H718 H 0.55109 0.64911 0.94782 0.0
H719 H 0.31829 0.47931 0.64163 0.0
H720 H 0.28205 0.14213 0.31652 0.0
H721 H 0.23282 0.16303 0.31926 0.0
H722 H 0.20753 0.13438 0.20496 0.0
H723 H 0.25874 0.1162 0.20219 0.0
H724 H 0.21703 0.20147 0.2181 0.0
H725 H 0.14002 0.08221 0.273 0.0
H726 H 0.12426 0.03197 0.31562 0.0
H727 H 0.14392 0.11776 0.40326 0.0
H728 H 0.16032 0.16868 0.36121 0.0
H729 H 0.04777 0.22356 0.21035 0.0
H730 H 0.09212 0.19668 0.21062 0.0
H731 H 0.13998 0.25562 0.31613 0.0
H732 H 0.09545 0.28283 0.31593 0.0
H733 H 0.11789 0.1735 0.30833 0.0
H734 H 0.19401 0.29204 0.24769 0.0
H735 H 0.20212 0.33658 0.20119 0.0
H736 H 0.17504 0.24297 0.11909 0.0
H737 H 0.16635 0.19774 0.16512 0.0
C738 C 0.26499 0.13918 0.29226 0.0
C739 C 0.27361 0.12715 0.2592 0.0
C740 C 0.23681 0.15113 0.29376 0.0
C741 C 0.21604 0.15022 0.26232 0.0
C742 C 0.22318 0.13573 0.2296 0.0
C743 C 0.25208 0.12488 0.22802 0.0
C744 C 0.18987 0.1678 0.26281 0.0
C745 C 0.19498 0.19468 0.23758 0.0
C746 C 0.16144 0.15989 0.28854 0.0
C747 C 0.15181 0.12939 0.31396 0.0
C748 C 0.14132 0.09046 0.30139 0.0
C749 C 0.1322 0.06184 0.32544 0.0
C750 C 0.1332 0.07169 0.36213 0.0
C751 C 0.14322 0.11018 0.37484 0.0
C752 C 0.1524 0.13893 0.3509 0.0
C753 C 0.06811 0.23123 0.23342 0.0
C754 C 0.06838 0.25541 0.26306 0.0
C755 C 0.09337 0.21579 0.23357 0.0
C756 C 0.11933 0.22414 0.26339 0.0
C757 C 0.12008 0.24878 0.29289 0.0
C758 C 0.09498 0.26458 0.29261 0.0
C759 C 0.14526 0.20664 0.2637 0.0
C760 C 0.14008 0.17998 0.28903 0.0
C761 C 0.17291 0.21389 0.23752 0.0
C762 C 0.17934 0.24146 0.20986 0.0
C763 C 0.18968 0.28093 0.21972 0.0
C764 C 0.19441 0.3063 0.19345 0.0
C765 C 0.18911 0.29261 0.15721 0.0
C766 C 0.1792 0.25355 0.14717 0.0
C767 C 0.17445 0.22806 0.17334 0.0
H768 H 0.1926 0.31225 0.13692 0.0
H769 H 0.12611 0.04949 0.38071 0.0
H770 H 0.87914 0.74561 0.30531 0.0
H771 H 0.94978 0.79343 0.30854 0.0
H772 H 0.93879 0.82058 0.20075 0.0
H773 H 0.8687 0.77051 0.19685 0.0
H774 H 0.9958 0.80997 0.20349 0.0
H775 H 0.96129 0.88776 0.28251 0.0
H776 H 0.93103 0.90228 0.33405 0.0
H777 H 1.00165 0.8789 0.40615 0.0
H778 H 0.03201 0.86377 0.35501 0.0
H779 H 0.18618 0.98169 0.20538 0.0
H780 H 0.11528 0.93636 0.2066 0.0
H781 H 0.13559 0.88608 0.29765 0.0
H782 H 0.20698 0.93129 0.29626 0.0
H783 H 0.07564 0.90846 0.30502 0.0
H784 H 0.11079 0.83287 0.22191 0.0
H785 H 0.14159 0.82304 0.16845 0.0
H786 H 0.06892 0.84888 0.10152 0.0
H787 H 0.03806 0.8594 0.15465 0.0
C788 C 0.89175 0.7627 0.28277 0.0
C789 C 0.86864 0.7549 0.25097 0.0
C790 C 0.9322 0.79013 0.28458 0.0
C791 C 0.95 0.81114 0.25498 0.0
C792 C 0.9261 0.80475 0.22392 0.0
C793 C 0.88596 0.77649 0.22177 0.0
C794 C 0.99374 0.83697 0.25502 0.0
C795 C 1.01295 0.83194 0.22554 0.0
C796 C 0.01678 0.86508 0.28407 0.0
C797 C 0.99865 0.87426 0.31489 0.0
C798 C 0.97017 0.88544 0.30934 0.0
C799 C 0.95304 0.89383 0.33849 0.0
C800 C 0.96434 0.89141 0.37335 0.0
C801 C 0.99289 0.88072 0.37913 0.0
C802 C 1.01011 0.87228 0.35008 0.0
C803 C 0.17559 0.96057 0.22534 0.0
C804 C 0.20204 0.95976 0.25057 0.0
C805 C 0.13509 0.93478 0.22606 0.0
C806 C 0.12017 0.90787 0.25221 0.0
C807 C 0.14654 0.90668 0.27728 0.0
C808 C 0.18724 0.93222 0.27628 0.0
C809 C 0.07695 0.88154 0.25345 0.0
C810 C 0.05808 0.88646 0.28312 0.0
C811 C 0.05406 0.85394 0.22429 0.0
C812 C 0.07235 0.84723 0.1923 0.0
C813 C 0.10158 0.83674 0.19582 0.0
C814 C 0.11902 0.83099 0.16557 0.0
C815 C 0.10728 0.83541 0.13162 0.0
C816 C 0.07801 0.84549 0.12784 0.0
C817 C 0.0605 0.8513 0.158 0.0
H818 H 0.12083 0.83097 0.10824 0.0
H819 H 0.95103 0.8979 0.39588 0.0
H820 H 0.91037 0.16217 0.31317 0.0
H821 H 0.89071 0.0926 0.3167 0.0
H822 H 0.87577 0.07299 0.20126 0.0
H823 H 0.89297 0.14186 0.19808 0.0
H824 H 0.81501 0.02001 0.22441 0.0
H825 H 0.95033 0.06851 0.25475 0.0
H826 H 1.01559 0.10966 0.28667 0.0
H827 H 0.96696 0.0627 0.38525 0.0
H828 H 0.90124 0.02168 0.35403 0.0
H829 H 0.79982 0.82971 0.21101 0.0
H830 H 0.82684 0.90117 0.212 0.0
H831 H 0.78668 0.9036 0.31781 0.0
H832 H 0.75845 0.83136 0.31658 0.0
H833 H 0.87475 0.96369 0.30175 0.0
H834 H 0.73688 0.91448 0.26378 0.0
H835 H 0.67682 0.87057 0.22509 0.0
H836 H 0.73956 0.91785 0.13182 0.0
H837 H 0.80012 0.96172 0.16996 0.0
C838 C 0.90396 0.14316 0.2886 0.0
C839 C 0.9032 0.15715 0.25533 0.0
C840 C 0.89271 0.10334 0.29057 0.0
C841 C 0.88162 0.0772 0.25923 0.0
C842 C 0.8837 0.09223 0.22589 0.0
C843 C 0.89391 0.13166 0.224 0.0
C844 C 0.86422 0.03372 0.2611 0.0
C845 C 0.82859 1.00798 0.24108 0.0
C846 C 0.88128 0.0175 0.28312 0.0
C847 C 0.92072 0.04232 0.3021 0.0
C848 C 0.95345 0.06722 0.2833 0.0
C849 C 0.99056 0.09048 0.30125 0.0
C850 C 0.9954 0.08887 0.33798 0.0
C851 C 0.96315 0.06396 0.35681 0.0
C852 C 0.92596 0.04067 0.33899 0.0
C853 C 0.79624 0.84537 0.23431 0.0
C854 C 0.77676 0.82508 0.2636 0.0
C855 C 0.81192 0.88617 0.23491 0.0
C856 C 0.80898 0.90757 0.26506 0.0
C857 C 0.78936 0.88747 0.29439 0.0
C858 C 0.77295 0.84631 0.29352 0.0
C859 C 0.82607 0.95091 0.26524 0.0
C860 C 0.86149 0.97631 0.28545 0.0
C861 C 0.80965 0.9669 0.24255 0.0
C862 C 0.77304 0.94119 0.2197 0.0
C863 C 0.7379 0.91535 0.23501 0.0
C864 C 0.70377 0.89052 0.21319 0.0
C865 C 0.70438 0.89142 0.17602 0.0
C866 C 0.73911 0.91724 0.16061 0.0
C867 C 0.77332 0.94212 0.18232 0.0
H868 H 0.67795 0.87211 0.15917 0.0
H869 H 0.02416 0.10686 0.35182 0.0
H870 H 0.18386 0.29923 0.71572 0.0
H871 H 0.19729 0.24499 0.71782 0.0
H872 H 0.11344 0.19606 0.79867 0.0
H873 H 0.1003 0.25112 0.79701 0.0
H874 H 0.18112 0.19987 0.81833 0.0
H875 H 0.09428 0.14864 0.71445 0.0
H876 H 0.06608 0.14896 0.65528 0.0
H877 H 0.1741 0.17422 0.60821 0.0
H878 H 0.20321 0.17467 0.66722 0.0
H879 H 0.20203 0.02776 0.80953 0.0
H880 H 0.17694 0.07361 0.80841 0.0
H881 H 0.26128 0.13844 0.73213 0.0
H882 H 0.28703 0.09281 0.73362 0.0
H883 H 0.18591 0.12064 0.71136 0.0
H884 H 0.27299 0.17619 0.81883 0.0
H885 H 0.29821 0.17327 0.8786 0.0
H886 H 0.18451 0.13552 0.91925 0.0
H887 H 0.15847 0.13774 0.85957 0.0
C888 C 0.16778 0.27658 0.73355 0.0
C889 C 0.14117 0.27946 0.7563 0.0
C890 C 0.17538 0.24545 0.73464 0.0
C891 C 0.15627 0.21623 0.75828 0.0
C892 C 0.12858 0.21827 0.78023 0.0
C893 C 0.12091 0.24955 0.77912 0.0
C894 C 0.16748 0.18536 0.76143 0.0
C895 C 0.18141 0.18199 0.79502 0.0
C896 C 0.16842 0.16234 0.73101 0.0
C897 C 0.15104 0.16198 0.69536 0.0
C898 C 0.11215 0.15457 0.69155 0.0
C899 C 0.09597 0.15456 0.65802 0.0
C900 C 0.1183 0.16168 0.62802 0.0
C901 C 0.15684 0.16873 0.63148 0.0
C902 C 0.17318 0.16882 0.66496 0.0
C903 C 0.21559 0.05211 0.79287 0.0
C904 C 0.24662 0.05691 0.77178 0.0
C905 C 0.20112 0.07821 0.79218 0.0
C906 C 0.2171 0.10941 0.77012 0.0
C907 C 0.24844 0.11451 0.7493 0.0
C908 C 0.2633 0.08864 0.75033 0.0
C909 C 0.20041 0.136 0.76802 0.0
C910 C 0.18532 0.13838 0.73464 0.0
C911 C 0.19794 0.1577 0.7987 0.0
C912 C 0.2137 0.15679 0.83466 0.0
C913 C 0.2533 0.16702 0.84046 0.0
C914 C 0.26776 0.16553 0.87433 0.0
C915 C 0.24296 0.15412 0.90268 0.0
C916 C 0.20368 0.14431 0.89725 0.0
C917 C 0.18907 0.14572 0.86343 0.0
H918 H 0.25419 0.15294 0.92888 0.0
H919 H 0.10573 0.16166 0.60208 0.0
H920 H 0.16203 0.92228 0.72411 0.0
H921 H 0.09318 0.90693 0.72456 0.0
H922 H 0.07731 0.84195 0.81696 0.0
H923 H 0.14529 0.85636 0.81597 0.0
H924 H 0.02387 0.79733 0.76499 0.0
H925 H 0.07775 0.93093 0.81946 0.0
H926 H 0.11854 1.00368 0.82388 0.0
H927 H 0.05928 1.00651 0.7277 0.0
H928 H 0.0186 0.9337 0.7223 0.0
H929 H 0.82951 0.7472 0.80475 0.0
H930 H 0.90078 0.77311 0.80627 0.0
H931 H 0.9097 0.84072 0.71734 0.0
H932 H 0.83894 0.81603 0.71665 0.0
H933 H 0.96681 0.88509 0.76437 0.0
H934 H 0.91574 0.75464 0.70756 0.0
H935 H 0.87438 0.6819 0.69997 0.0
H936 H 0.92847 0.67358 0.79705 0.0
H937 H 0.96982 0.74634 0.80548 0.0
C938 C 0.14399 0.90557 0.74496 0.0
C939 C 0.15864 0.89006 0.76976 0.0
C940 C 0.10471 0.89681 0.74525 0.0
C941 C 0.07993 0.87298 0.77067 0.0
C942 C 0.09567 0.86001 0.7969 0.0
C943 C 0.13455 0.86837 0.79638 0.0
C944 C 0.03681 0.85786 0.76808 0.0
C945 C 1.01145 0.81664 0.76551 0.0
C946 C 0.02053 0.88291 0.76717 0.0
C947 C 0.04544 0.92672 0.77022 0.0
C948 C 0.07373 0.94698 0.79899 0.0
C949 C 0.09678 0.98828 0.80172 0.0
C950 C 0.09158 1.0097 0.77602 0.0
C951 C 0.06333 0.98987 0.74754 0.0
C952 C 0.04028 0.9486 0.74464 0.0
C953 C 0.84671 0.76726 0.78535 0.0
C954 C 0.82876 0.77939 0.76044 0.0
C955 C 0.88741 0.78205 0.78617 0.0
C956 C 0.91068 0.80865 0.76167 0.0
C957 C 0.89251 0.82037 0.73657 0.0
C958 C 0.85201 0.80599 0.73603 0.0
C959 C 0.95399 0.8247 0.76245 0.0
C960 C 0.97932 0.86592 0.76425 0.0
C961 C 0.9704 0.79974 0.76231 0.0
C962 C 0.9456 0.75597 0.75733 0.0
C963 C 0.9186 0.73732 0.72744 0.0
C964 C 0.8952 0.69608 0.72296 0.0
C965 C 0.89872 0.67314 0.74806 0.0
C966 C 0.92574 0.69139 0.77766 0.0
C967 C 0.94919 0.73263 0.78228 0.0
H968 H 0.88058 0.64122 0.74454 0.0
H969 H 0.10928 0.04166 0.77822 0.0
H970 H 1.01026 0.18287 0.72721 0.0
H971 H 0.96474 0.11189 0.7269 0.0
H972 H 0.88844 0.13522 0.79276 0.0
H973 H 0.93406 0.20677 0.79288 0.0
H974 H 0.9401 0.06354 0.77952 0.0
H975 H 0.79285 0.06293 0.76774 0.0
H976 H 0.76648 0.10286 0.74399 0.0
H977 H 0.85571 0.14517 0.66784 0.0
H978 H 0.88216 0.10502 0.69073 0.0
H979 H 0.77418 0.87098 0.80496 0.0
H980 H 0.8267 0.94072 0.80838 0.0
H981 H 0.79955 0.94504 0.6973 0.0
H982 H 0.74664 0.8762 0.69425 0.0
H983 H 0.80048 1.00334 0.73497 0.0
H984 H 0.88623 0.9486 0.72809 0.0
H985 H 0.91456 0.90829 0.74641 0.0
H986 H 0.95153 0.97483 0.84952 0.0
H987 H 0.92298 0.01524 0.83198 0.0
C988 C 0.98365 0.17293 0.74146 0.0
C989 C 0.97549 0.2003 0.75988 0.0
C990 C 0.95783 0.13232 0.7415 0.0
C991 C 0.92319 0.11816 0.75979 0.0
C992 C 0.91489 0.14548 0.77824 0.0
C993 C 0.94084 0.18628 0.77822 0.0
C994 C 0.8955 0.07482 0.75865 0.0
C995 C 0.9095 0.05032 0.76992 0.0
C996 C 0.85578 0.05751 0.74562 0.0
C997 C 0.83975 0.08134 0.73128 0.0
C998 C 0.80674 0.08066 0.74586 0.0
C999 C 0.79178 0.10332 0.73254 0.0
C1000 C 0.8095 0.12665 0.70452 0.0
C1001 C 0.8421 0.12721 0.68963 0.0
C1002 C 0.8571 0.10453 0.70279 0.0
C1003 C 0.78018 0.88668 0.78114 0.0
C1004 C 0.75633 0.86846 0.74939 0.0
C1005 C 0.81012 0.92652 0.78309 0.0
C1006 C 0.81695 0.94832 0.75313 0.0
C1007 C 0.79461 0.92909 0.72088 0.0
C1008 C 0.76455 0.88968 0.71908 0.0
C1009 C 0.84499 0.99175 0.75567 0.0
C1010 C 0.83099 0.0164 0.7448 0.0
C1011 C 0.88489 1.00898 0.76831 0.0
C1012 C 0.90206 0.98466 0.77885 0.0
C1013 C 0.9001 0.95442 0.75478 0.0
C1014 C 0.91626 0.93158 0.765 0.0
C1015 C 0.93469 0.93889 0.79916 0.0
C1016 C 0.93716 0.96915 0.8231 0.0
C1017 C 0.92103 0.99205 0.81302 0.0
H1018 H 0.94712 0.92117 0.80712 0.0
H1019 H 0.79791 0.14422 0.69428 0.0
loop_
_geom_bond_atom_site_label_1
_geom_bond_atom_site_label_2
_geom_bond_distance
_geom_bond_site_symmetry_2
_ccdc_geom_bond_type
Tb0 O3 2.453 . S
Tb0 O4 2.596 . S
Tb0 O5 2.374 . S
Tb0 O13 2.343 . S
Tb0 O15 2.353 . S
Tb0 O17 2.427 . S
Tb0 O18 2.513 . S
C1 O5 1.251 . S
C1 O7 1.263 . S
Tb2 O4 2.343 . S
Tb2 O7 2.353 . S
Tb2 O10 2.427 . S
Tb2 O11 2.513 . S
Tb2 O12 2.453 . S
Tb2 O13 2.596 . S
Tb2 O14 2.374 . S
O3 Tb0 2.453 . S
O3 C19 1.245 . S
O4 Tb0 2.596 . S
O4 Tb2 2.343 . S
O4 C19 1.259 . S
O5 Tb0 2.374 . S
O5 C1 1.251 . S
C6 O10 1.275 1_565 S
C6 O11 1.246 1_565 S
O7 C1 1.263 . S
O7 Tb2 2.353 . S
C8 O12 1.245 . S
C8 O13 1.259 . S
C9 O14 1.250 . S
C9 O15 1.263 . S
O10 Tb2 2.427 . S
O10 C6 1.275 1_545 S
O11 Tb2 2.513 . S
O11 C6 1.246 1_545 S
O12 Tb2 2.453 . S
O12 C8 1.245 . S
O13 Tb0 2.343 . S
O13 Tb2 2.596 . S
O13 C8 1.259 . S
O14 Tb2 2.374 . S
O14 C9 1.250 . S
O15 Tb0 2.353 . S
O15 C9 1.263 . S
C16 O17 1.275 . S
C16 O18 1.246 . S
O17 Tb0 2.427 . S
O17 C16 1.275 . S
O18 Tb0 2.513 . S
O18 C16 1.246 . S
C19 O3 1.245 . S
C19 O4 1.259 . S
Tb20 O23 2.453 . S
Tb20 O24 2.596 . S
Tb20 O25 2.374 . S
Tb20 O33 2.343 . S
Tb20 O35 2.353 . S
Tb20 O37 2.427 . S
Tb20 O38 2.513 . S
C21 O25 1.251 . S
C21 O27 1.263 . S
Tb22 O24 2.343 . S
Tb22 O27 2.353 . S
Tb22 O30 2.427 . S
Tb22 O31 2.513 . S
Tb22 O32 2.453 . S
Tb22 O33 2.596 . S
Tb22 O34 2.374 . S
O23 Tb20 2.453 . S
O23 C39 1.245 . S
O24 Tb20 2.596 . S
O24 Tb22 2.343 . S
O24 C39 1.259 . S
O25 Tb20 2.374 . S
O25 C21 1.251 . S
C26 O30 1.275 . S
C26 O31 1.246 . S
O27 C21 1.263 . S
O27 Tb22 2.353 . S
C28 O32 1.245 . S
C28 O33 1.259 . S
C29 O34 1.250 . S
C29 O35 1.263 . S
O30 Tb22 2.427 . S
O30 C26 1.275 . S
O31 Tb22 2.513 . S
O31 C26 1.246 . S
O32 Tb22 2.453 . S
O32 C28 1.245 . S
O33 Tb20 2.343 . S
O33 Tb22 2.596 . S
O33 C28 1.259 . S
O34 Tb22 2.374 . S
O34 C29 1.250 . S
O35 Tb20 2.353 . S
O35 C29 1.263 . S
C36 O37 1.275 . S
C36 O38 1.246 . S
O37 Tb20 2.427 . S
O37 C36 1.275 . S
O38 Tb20 2.513 . S
O38 C36 1.246 . S
C39 O23 1.245 . S
C39 O24 1.259 . S
Tb40 O43 2.453 . S
Tb40 O44 2.596 . S
Tb40 O45 2.374 . S
Tb40 O53 2.343 . S
Tb40 O55 2.353 . S
Tb40 O57 2.427 . S
Tb40 O58 2.513 . S
C41 O45 1.251 . S
C41 O47 1.263 . S
Tb42 O44 2.343 . S
Tb42 O47 2.353 . S
Tb42 O50 2.427 . S
Tb42 O51 2.513 . S
Tb42 O52 2.453 . S
Tb42 O53 2.596 . S
Tb42 O54 2.374 . S
O43 Tb40 2.453 . S
O43 C59 1.245 . S
O44 Tb40 2.596 . S
O44 Tb42 2.343 . S
O44 C59 1.259 . S
O45 Tb40 2.374 . S
O45 C41 1.251 . S
C46 O50 1.275 1_455 S
C46 O51 1.246 1_455 S
O47 C41 1.263 . S
O47 Tb42 2.353 . S
C48 O52 1.245 . S
C48 O53 1.259 . S
C49 O54 1.250 . S
C49 O55 1.263 . S
O50 Tb42 2.427 . S
O50 C46 1.275 1_655 S
O51 Tb42 2.513 . S
O51 C46 1.246 1_655 S
O52 Tb42 2.453 . S
O52 C48 1.245 . S
O53 Tb40 2.343 . S
O53 Tb42 2.596 . S
O53 C48 1.259 . S
O54 Tb42 2.374 . S
O54 C49 1.250 . S
O55 Tb40 2.353 . S
O55 C49 1.263 . S
C56 O57 1.275 . S
C56 O58 1.246 . S
O57 Tb40 2.427 . S
O57 C56 1.275 . S
O58 Tb40 2.513 . S
O58 C56 1.246 . S
C59 O43 1.245 . S
C59 O44 1.259 . S
Tb60 O63 2.453 . S
Tb60 O64 2.596 . S
Tb60 O65 2.374 . S
Tb60 O73 2.343 . S
Tb60 O75 2.353 . S
Tb60 O77 2.427 . S
Tb60 O78 2.513 . S
C61 O65 1.251 . S
C61 O67 1.263 . S
Tb62 O64 2.343 . S
Tb62 O67 2.353 . S
Tb62 O70 2.427 . S
Tb62 O71 2.513 . S
Tb62 O72 2.453 . S
Tb62 O73 2.596 . S
Tb62 O74 2.374 . S
O63 Tb60 2.453 . S
O63 C79 1.245 . S
O64 Tb60 2.596 . S
O64 Tb62 2.343 . S
O64 C79 1.259 . S
O65 Tb60 2.374 . S
O65 C61 1.251 . S
C66 O70 1.275 . S
C66 O71 1.246 . S
O67 C61 1.263 . S
O67 Tb62 2.353 . S
C68 O72 1.245 . S
C68 O73 1.259 . S
C69 O74 1.250 . S
C69 O75 1.263 . S
O70 Tb62 2.427 . S
O70 C66 1.275 . S
O71 Tb62 2.513 . S
O71 C66 1.246 . S
O72 Tb62 2.453 . S
O72 C68 1.245 . S
O73 Tb60 2.343 . S
O73 Tb62 2.596 . S
O73 C68 1.259 . S
O74 Tb62 2.374 . S
O74 C69 1.250 . S
O75 Tb60 2.353 . S
O75 C69 1.263 . S
C76 O77 1.275 1_655 S
C76 O78 1.246 1_655 S
O77 Tb60 2.427 . S
O77 C76 1.275 1_455 S
O78 Tb60 2.513 . S
O78 C76 1.246 1_455 S
C79 O63 1.245 . S
C79 O64 1.259 . S
Tb80 O83 2.453 . S
Tb80 O84 2.596 . S
Tb80 O85 2.374 . S
Tb80 O93 2.343 . S
Tb80 O95 2.353 . S
Tb80 O97 2.427 . S
Tb80 O98 2.513 . S
C81 O85 1.251 . S
C81 O87 1.263 . S
Tb82 O84 2.343 . S
Tb82 O87 2.353 . S
Tb82 O90 2.427 . S
Tb82 O91 2.513 . S
Tb82 O92 2.453 . S
Tb82 O93 2.596 . S
Tb82 O94 2.374 . S
O83 Tb80 2.453 . S
O83 C99 1.245 . S
O84 Tb80 2.596 . S
O84 Tb82 2.343 . S
O84 C99 1.259 . S
O85 Tb80 2.374 . S
O85 C81 1.251 . S
C86 O90 1.275 . S
C86 O91 1.246 . S
O87 C81 1.263 . S
O87 Tb82 2.353 . S
C88 O92 1.245 . S
C88 O93 1.259 . S
C89 O94 1.250 . S
C89 O95 1.263 . S
O90 Tb82 2.427 . S
O90 C86 1.275 . S
O91 Tb82 2.513 . S
O91 C86 1.246 . S
O92 Tb82 2.453 . S
O92 C88 1.245 . S
O93 Tb80 2.343 . S
O93 Tb82 2.596 . S
O93 C88 1.259 . S
O94 Tb82 2.374 . S
O94 C89 1.250 . S
O95 Tb80 2.353 . S
O95 C89 1.263 . S
C96 O97 1.275 1_545 S
C96 O98 1.246 1_545 S
O97 Tb80 2.427 . S
O97 C96 1.275 1_565 S
O98 Tb80 2.513 . S
O98 C96 1.246 1_565 S
C99 O83 1.245 . S
C99 O84 1.259 . S
Tb100 O103 2.453 . S
Tb100 O104 2.596 . S
Tb100 O105 2.374 . S
Tb100 O113 2.343 . S
Tb100 O115 2.353 . S
Tb100 O117 2.427 . S
Tb100 O118 2.513 . S
C101 O105 1.251 . S
C101 O107 1.263 . S
Tb102 O104 2.343 . S
Tb102 O107 2.353 . S
Tb102 O110 2.427 . S
Tb102 O111 2.513 . S
Tb102 O112 2.453 . S
Tb102 O113 2.596 . S
Tb102 O114 2.374 . S
O103 Tb100 2.453 . S
O103 C119 1.245 . S
O104 Tb100 2.596 . S
O104 Tb102 2.343 . S
O104 C119 1.259 . S
O105 Tb100 2.374 . S
O105 C101 1.251 . S
C106 O110 1.275 . S
C106 O111 1.246 . S
O107 C101 1.263 . S
O107 Tb102 2.353 . S
C108 O112 1.245 . S
C108 O113 1.259 . S
C109 O114 1.250 . S
C109 O115 1.263 . S
O110 Tb102 2.427 . S
O110 C106 1.275 . S
O111 Tb102 2.513 . S
O111 C106 1.246 . S
O112 Tb102 2.453 . S
O112 C108 1.245 . S
O113 Tb100 2.343 . S
O113 Tb102 2.596 . S
O113 C108 1.259 . S
O114 Tb102 2.374 . S
O114 C109 1.250 . S
O115 Tb100 2.353 . S
O115 C109 1.263 . S
C116 O117 1.275 . S
C116 O118 1.246 . S
O117 Tb100 2.427 . S
O117 C116 1.275 . S
O118 Tb100 2.513 . S
O118 C116 1.246 . S
C119 O103 1.245 . S
C119 O104 1.259 . S
H120 C138 0.951 . S
H121 C140 0.951 . S
H122 C142 0.950 . S
H123 C143 0.950 . S
H124 C145 0.950 . S
H125 C148 0.950 . S
H126 C149 0.950 . S
H127 C151 0.950 . S
H128 C152 0.950 . S
H129 C153 0.951 . S
H130 C155 0.951 . S
H131 C157 0.950 . S
H132 C158 0.950 . S
H133 C160 0.950 . S
H134 C163 0.950 . S
H135 C164 0.950 . S
H136 C166 0.950 . S
H137 C167 0.950 . S
C138 H120 0.951 . S
C138 C139 1.366 . S
C138 C140 1.388 . S
C139 C138 1.366 . S
C139 C143 1.385 . S
C140 H121 0.951 . S
C140 C138 1.388 . S
C140 C141 1.366 . S
C141 C140 1.366 . S
C141 C142 1.414 . S
C141 C144 1.499 . S
C142 H122 0.950 . S
C142 C141 1.414 . S
C142 C143 1.374 . S
C143 H123 0.950 . S
C143 C139 1.385 . S
C143 C142 1.374 . S
C144 C141 1.499 . S
C144 C145 1.373 1_565 S
C144 C146 1.389 . S
C145 H124 0.950 . S
C145 C144 1.373 1_545 S
C145 C161 1.377 1_556 S
C146 C144 1.389 . S
C146 C147 1.524 . S
C146 C160 1.377 1_556 S
C147 C146 1.524 . S
C147 C148 1.397 . S
C147 C152 1.363 . S
C148 H125 0.950 . S
C148 C147 1.397 . S
C148 C149 1.334 . S
C149 H126 0.950 . S
C149 C148 1.334 . S
C149 C150 1.287 . S
C150 C149 1.287 . S
C150 C151 1.524 . S
C150 H169 0.913 . S
C151 H127 0.950 . S
C151 C150 1.524 . S
C151 C152 1.415 . S
C152 H128 0.950 . S
C152 C147 1.363 . S
C152 C151 1.415 . S
C153 H129 0.951 . S
C153 C154 1.366 . S
C153 C155 1.388 . S
C154 C153 1.366 . S
C154 C158 1.385 . S
C155 H130 0.951 . S
C155 C153 1.388 . S
C155 C156 1.366 . S
C156 C155 1.366 . S
C156 C157 1.414 . S
C156 C159 1.499 . S
C157 H131 0.950 . S
C157 C156 1.414 . S
C157 C158 1.374 . S
C158 H132 0.950 . S
C158 C154 1.385 . S
C158 C157 1.374 . S
C159 C156 1.499 . S
C159 C160 1.373 1_545 S
C159 C161 1.389 . S
C160 H133 0.950 . S
C160 C146 1.377 1_554 S
C160 C159 1.373 1_565 S
C161 C145 1.377 1_554 S
C161 C159 1.389 . S
C161 C162 1.524 . S
C162 C161 1.524 . S
C162 C163 1.397 . S
C162 C167 1.363 . S
C163 H134 0.950 . S
C163 C162 1.397 . S
C163 C164 1.334 . S
C164 H135 0.950 . S
C164 C163 1.334 . S
C164 C165 1.287 . S
C165 C164 1.287 . S
C165 C166 1.524 . S
C165 H168 0.999 . S
C166 H136 0.950 . S
C166 C165 1.524 . S
C166 C167 1.415 . S
C167 H137 0.950 . S
C167 C162 1.363 . S
C167 C166 1.415 . S
H168 C165 0.999 . S
H169 C150 0.913 . S
H170 C188 0.951 . S
H171 C190 0.951 . S
H172 C192 0.950 . S
H173 C193 0.950 . S
H174 C195 0.950 . S
H175 C198 0.950 . S
H176 C199 0.950 . S
H177 C201 0.950 . S
H178 C202 0.950 . S
H179 C203 0.951 . S
H180 C205 0.951 . S
H181 C207 0.950 . S
H182 C208 0.950 . S
H183 C210 0.950 . S
H184 C213 0.950 . S
H185 C214 0.950 . S
H186 C216 0.950 . S
H187 C217 0.950 . S
C188 H170 0.951 . S
C188 C189 1.366 . S
C188 C190 1.388 . S
C189 C188 1.366 . S
C189 C193 1.385 . S
C190 H171 0.951 . S
C190 C188 1.388 . S
C190 C191 1.366 . S
C191 C190 1.366 . S
C191 C192 1.414 . S
C191 C194 1.499 . S
C192 H172 0.950 . S
C192 C191 1.414 . S
C192 C193 1.374 . S
C193 H173 0.950 . S
C193 C189 1.385 . S
C193 C192 1.374 . S
C194 C191 1.499 . S
C194 C195 1.373 . S
C194 C196 1.389 . S
C195 H174 0.950 . S
C195 C194 1.373 . S
C195 C211 1.377 . S
C196 C194 1.389 . S
C196 C197 1.524 . S
C196 C210 1.377 . S
C197 C196 1.524 . S
C197 C198 1.397 . S
C197 C202 1.363 . S
C198 H175 0.950 . S
C198 C197 1.397 . S
C198 C199 1.334 . S
C199 H176 0.950 . S
C199 C198 1.334 . S
C199 C200 1.287 . S
C200 C199 1.287 . S
C200 C201 1.524 . S
C200 H219 0.913 . S
C201 H177 0.950 . S
C201 C200 1.524 . S
C201 C202 1.415 . S
C202 H178 0.950 . S
C202 C197 1.363 . S
C202 C201 1.415 . S
C203 H179 0.951 . S
C203 C204 1.366 . S
C203 C205 1.388 . S
C204 C203 1.366 . S
C204 C208 1.385 . S
C205 H180 0.951 . S
C205 C203 1.388 . S
C205 C206 1.366 . S
C206 C205 1.366 . S
C206 C207 1.414 . S
C206 C209 1.499 . S
C207 H181 0.950 . S
C207 C206 1.414 . S
C207 C208 1.374 . S
C208 H182 0.950 . S
C208 C204 1.385 . S
C208 C207 1.374 . S
C209 C206 1.499 . S
C209 C210 1.373 . S
C209 C211 1.389 . S
C210 H183 0.950 . S
C210 C196 1.377 . S
C210 C209 1.373 . S
C211 C195 1.377 . S
C211 C209 1.389 . S
C211 C212 1.524 . S
C212 C211 1.524 . S
C212 C213 1.397 . S
C212 C217 1.363 . S
C213 H184 0.950 . S
C213 C212 1.397 . S
C213 C214 1.334 . S
C214 H185 0.950 . S
C214 C213 1.334 . S
C214 C215 1.287 . S
C215 C214 1.287 . S
C215 C216 1.524 . S
C215 H218 0.999 . S
C216 H186 0.950 . S
C216 C215 1.524 . S
C216 C217 1.415 . S
C217 H187 0.950 . S
C217 C212 1.363 . S
C217 C216 1.415 . S
H218 C215 0.999 . S
H219 C200 0.913 . S
H220 C238 0.951 . S
H221 C240 0.951 . S
H222 C242 0.950 . S
H223 C243 0.950 . S
H224 C245 0.950 . S
H225 C248 0.950 . S
H226 C249 0.950 . S
H227 C251 0.950 . S
H228 C252 0.950 . S
H229 C253 0.951 . S
H230 C255 0.951 . S
H231 C257 0.950 . S
H232 C258 0.950 . S
H233 C260 0.950 . S
H234 C263 0.950 . S
H235 C264 0.950 . S
H236 C266 0.950 . S
H237 C267 0.950 . S
C238 H220 0.951 . S
C238 C239 1.366 . S
C238 C240 1.388 . S
C239 C238 1.366 . S
C239 C243 1.385 . S
C240 H221 0.951 . S
C240 C238 1.388 . S
C240 C241 1.366 . S
C241 C240 1.366 . S
C241 C242 1.414 . S
C241 C244 1.499 . S
C242 H222 0.950 . S
C242 C241 1.414 . S
C242 C243 1.374 . S
C243 H223 0.950 . S
C243 C239 1.385 . S
C243 C242 1.374 . S
C244 C241 1.499 . S
C244 C245 1.373 . S
C244 C246 1.389 1_655 S
C245 H224 0.950 . S
C245 C244 1.373 . S
C245 C261 1.377 1_554 S
C246 C244 1.389 1_455 S
C246 C247 1.524 . S
C246 C260 1.391 . S
C247 C246 1.524 . S
C247 C248 1.397 . S
C247 C252 1.363 . S
C248 H225 0.950 . S
C248 C247 1.397 . S
C248 C249 1.334 . S
C249 H226 0.950 . S
C249 C248 1.334 . S
C249 C250 1.287 . S
C250 C249 1.287 . S
C250 C251 1.524 . S
C250 H269 0.913 . S
C251 H227 0.950 . S
C251 C250 1.524 . S
C251 C252 1.415 . S
C252 H228 0.950 . S
C252 C247 1.363 . S
C252 C251 1.415 . S
C253 H229 0.951 . S
C253 C254 1.366 . S
C253 C255 1.388 . S
C254 C253 1.366 . S
C254 C258 1.385 . S
C255 H230 0.951 . S
C255 C253 1.388 . S
C255 C256 1.366 . S
C256 C255 1.366 . S
C256 C257 1.414 . S
C256 C259 1.499 . S
C257 H231 0.950 . S
C257 C256 1.414 . S
C257 C258 1.374 . S
C258 H232 0.950 . S
C258 C254 1.385 . S
C258 C257 1.374 . S
C259 C256 1.499 . S
C259 C260 1.359 1_556 S
C259 C261 1.389 1_455 S
C260 H233 0.950 . S
C260 C246 1.391 . S
C260 C259 1.359 1_554 S
C261 C245 1.377 1_556 S
C261 C259 1.389 1_655 S
C261 C262 1.524 . S
C262 C261 1.524 . S
C262 C263 1.397 . S
C262 C267 1.363 . S
C263 H234 0.950 . S
C263 C262 1.397 . S
C263 C264 1.334 . S
C264 H235 0.950 . S
C264 C263 1.334 . S
C264 C265 1.287 . S
C265 C264 1.287 . S
C265 C266 1.524 . S
C265 H268 0.999 . S
C266 H236 0.950 . S
C266 C265 1.524 . S
C266 C267 1.415 . S
C267 H237 0.950 . S
C267 C262 1.363 . S
C267 C266 1.415 . S
H268 C265 0.999 . S
H269 C250 0.913 . S
H270 C288 0.951 . S
H271 C290 0.951 . S
H272 C292 0.950 1_565 S
H273 C293 0.950 . S
H274 C295 0.950 . S
H275 C298 0.950 . S
H276 C299 0.950 . S
H277 C301 0.950 . S
H278 C302 0.950 . S
H279 C303 0.951 . S
H280 C305 0.951 . S
H281 C307 0.950 1_545 S
H282 C308 0.950 . S
H283 C310 0.950 . S
H284 C313 0.950 . S
H285 C314 0.950 . S
H286 C316 0.950 . S
H287 C317 0.950 . S
C288 H270 0.951 . S
C288 C289 1.366 . S
C288 C290 1.388 . S
C289 C288 1.366 . S
C289 C293 1.385 . S
C290 H271 0.951 . S
C290 C288 1.388 . S
C290 C291 1.366 . S
C291 C290 1.366 . S
C291 C292 1.414 . S
C291 C294 1.499 . S
C292 H272 0.950 1_545 S
C292 C291 1.414 . S
C292 C293 1.374 . S
C293 H273 0.950 . S
C293 C289 1.385 . S
C293 C292 1.374 . S
C294 C291 1.499 . S
C294 C295 1.373 1_545 S
C294 C296 1.389 . S
C295 H274 0.950 . S
C295 C294 1.373 1_565 S
C295 C311 1.377 . S
C296 C294 1.389 . S
C296 C297 1.524 . S
C296 C310 1.377 . S
C297 C296 1.524 . S
C297 C298 1.397 . S
C297 C302 1.363 . S
C298 H275 0.950 . S
C298 C297 1.397 . S
C298 C299 1.334 . S
C299 H276 0.950 . S
C299 C298 1.334 . S
C299 C300 1.287 . S
C300 C299 1.287 . S
C300 C301 1.524 . S
C300 H319 0.913 . S
C301 H277 0.950 . S
C301 C300 1.524 . S
C301 C302 1.415 . S
C302 H278 0.950 . S
C302 C297 1.363 . S
C302 C301 1.415 . S
C303 H279 0.951 . S
C303 C304 1.366 . S
C303 C305 1.388 . S
C304 C303 1.366 . S
C304 C308 1.385 . S
C305 H280 0.951 . S
C305 C303 1.388 . S
C305 C306 1.366 . S
C306 C305 1.366 . S
C306 C307 1.414 . S
C306 C309 1.499 . S
C307 H281 0.950 1_565 S
C307 C306 1.414 . S
C307 C308 1.374 . S
C308 H282 0.950 . S
C308 C304 1.385 . S
C308 C307 1.374 . S
C309 C306 1.499 . S
C309 C310 1.373 1_565 S
C309 C311 1.389 . S
C310 H283 0.950 . S
C310 C296 1.377 . S
C310 C309 1.373 1_545 S
C311 C295 1.377 . S
C311 C309 1.389 . S
C311 C312 1.524 . S
C312 C311 1.524 . S
C312 C313 1.397 . S
C312 C317 1.363 . S
C313 H284 0.950 . S
C313 C312 1.397 . S
C313 C314 1.334 . S
C314 H285 0.950 . S
C314 C313 1.334 . S
C314 C315 1.287 . S
C315 C314 1.287 . S
C315 C316 1.524 . S
C315 H318 0.999 . S
C316 H286 0.950 . S
C316 C315 1.524 . S
C316 C317 1.415 . S
C317 H287 0.950 . S
C317 C312 1.363 . S
C317 C316 1.415 . S
H318 C315 0.999 . S
H319 C300 0.913 . S
H320 C338 0.951 . S
H321 C340 0.951 . S
H322 C342 0.950 . S
H323 C343 0.950 . S
H324 C345 0.950 . S
H325 C348 0.950 . S
H326 C349 0.950 . S
H327 C351 0.950 . S
H328 C352 0.950 . S
H329 C353 0.951 . S
H330 C355 0.951 . S
H331 C357 0.950 . S
H332 C358 0.950 . S
H333 C360 0.950 . S
H334 C363 0.950 . S
H335 C364 0.950 . S
H336 C366 0.950 . S
H337 C367 0.950 . S
C338 H320 0.951 . S
C338 C339 1.366 . S
C338 C340 1.388 . S
C339 C338 1.366 . S
C339 C343 1.385 . S
C340 H321 0.951 . S
C340 C338 1.388 . S
C340 C341 1.366 . S
C341 C340 1.366 . S
C341 C342 1.414 . S
C341 C344 1.499 . S
C342 H322 0.950 . S
C342 C341 1.414 . S
C342 C343 1.374 . S
C343 H323 0.950 . S
C343 C339 1.385 . S
C343 C342 1.374 . S
C344 C341 1.499 . S
C344 C345 1.373 . S
C344 C346 1.389 . S
C345 H324 0.950 . S
C345 C344 1.373 . S
C345 C361 1.377 1_556 S
C346 C344 1.389 . S
C346 C347 1.524 . S
C346 C360 1.377 1_556 S
C347 C346 1.524 . S
C347 C348 1.397 . S
C347 C352 1.363 . S
C348 H325 0.950 . S
C348 C347 1.397 . S
C348 C349 1.334 . S
C349 H326 0.950 . S
C349 C348 1.334 . S
C349 C350 1.287 . S
C350 C349 1.287 . S
C350 C351 1.524 . S
C350 H369 0.913 . S
C351 H327 0.950 . S
C351 C350 1.524 . S
C351 C352 1.415 . S
C352 H328 0.950 . S
C352 C347 1.363 . S
C352 C351 1.415 . S
C353 H329 0.951 . S
C353 C354 1.366 . S
C353 C355 1.388 . S
C354 C353 1.366 . S
C354 C358 1.385 . S
C355 H330 0.951 . S
C355 C353 1.388 . S
C355 C356 1.366 . S
C356 C355 1.366 . S
C356 C357 1.414 . S
C356 C359 1.499 . S
C357 H331 0.950 . S
C357 C356 1.414 . S
C357 C358 1.374 . S
C358 H332 0.950 . S
C358 C354 1.385 . S
C358 C357 1.374 . S
C359 C356 1.499 . S
C359 C360 1.373 . S
C359 C361 1.389 . S
C360 H333 0.950 . S
C360 C346 1.377 1_554 S
C360 C359 1.373 . S
C361 C345 1.377 1_554 S
C361 C359 1.389 . S
C361 C362 1.524 . S
C362 C361 1.524 . S
C362 C363 1.397 . S
C362 C367 1.363 . S
C363 H334 0.950 . S
C363 C362 1.397 . S
C363 C364 1.334 . S
C364 H335 0.950 . S
C364 C363 1.334 . S
C364 C365 1.287 . S
C365 C364 1.287 . S
C365 C366 1.524 . S
C365 H368 0.999 . S
C366 H336 0.950 . S
C366 C365 1.524 . S
C366 C367 1.415 . S
C367 H337 0.950 . S
C367 C362 1.363 . S
C367 C366 1.415 . S
H368 C365 0.999 . S
H369 C350 0.913 . S
H370 C388 0.951 . S
H371 C390 0.951 . S
H372 C392 0.950 . S
H373 C393 0.950 . S
H374 C395 0.950 . S
H375 C398 0.950 . S
H376 C399 0.950 . S
H377 C401 0.950 . S
H378 C402 0.950 . S
H379 C403 0.951 . S
H380 C405 0.951 . S
H381 C407 0.950 . S
H382 C408 0.950 . S
H383 C410 0.950 . S
H384 C413 0.950 . S
H385 C414 0.950 . S
H386 C416 0.950 . S
H387 C417 0.950 . S
C388 H370 0.951 . S
C388 C389 1.366 . S
C388 C390 1.388 . S
C389 C388 1.366 . S
C389 C393 1.385 . S
C390 H371 0.951 . S
C390 C388 1.388 . S
C390 C391 1.366 . S
C391 C390 1.366 . S
C391 C392 1.414 . S
C391 C394 1.499 . S
C392 H372 0.950 . S
C392 C391 1.414 . S
C392 C393 1.374 . S
C393 H373 0.950 . S
C393 C389 1.385 . S
C393 C392 1.374 . S
C394 C391 1.499 . S
C394 C395 1.373 . S
C394 C396 1.389 1_655 S
C395 H374 0.950 . S
C395 C394 1.373 . S
C395 C411 1.377 . S
C396 C394 1.389 1_455 S
C396 C397 1.524 . S
C396 C410 1.377 . S
C397 C396 1.524 . S
C397 C398 1.397 . S
C397 C402 1.363 . S
C398 H375 0.950 . S
C398 C397 1.397 . S
C398 C399 1.334 . S
C399 H376 0.950 . S
C399 C398 1.334 . S
C399 C400 1.287 . S
C400 C399 1.287 . S
C400 C401 1.524 . S
C400 H419 0.913 . S
C401 H377 0.950 . S
C401 C400 1.524 . S
C401 C402 1.415 . S
C402 H378 0.950 . S
C402 C397 1.363 . S
C402 C401 1.415 . S
C403 H379 0.951 . S
C403 C404 1.366 . S
C403 C405 1.388 . S
C404 C403 1.366 . S
C404 C408 1.385 . S
C405 H380 0.951 . S
C405 C403 1.388 . S
C405 C406 1.366 . S
C406 C405 1.366 . S
C406 C407 1.414 . S
C406 C409 1.499 . S
C407 H381 0.950 . S
C407 C406 1.414 . S
C407 C408 1.374 . S
C408 H382 0.950 . S
C408 C404 1.385 . S
C408 C407 1.374 . S
C409 C406 1.499 . S
C409 C410 1.373 . S
C409 C411 1.389 1_455 S
C410 H383 0.950 . S
C410 C396 1.377 . S
C410 C409 1.373 . S
C411 C395 1.377 . S
C411 C409 1.389 1_655 S
C411 C412 1.524 . S
C412 C411 1.524 . S
C412 C413 1.397 . S
C412 C417 1.363 . S
C413 H384 0.950 . S
C413 C412 1.397 . S
C413 C414 1.334 . S
C414 H385 0.950 . S
C414 C413 1.334 . S
C414 C415 1.287 . S
C415 C414 1.287 . S
C415 C416 1.524 . S
C415 H418 0.999 . S
C416 H386 0.950 . S
C416 C415 1.524 . S
C416 C417 1.415 . S
C417 H387 0.950 . S
C417 C412 1.363 . S
C417 C416 1.415 . S
H418 C415 0.999 . S
H419 C400 0.913 . S
H420 C438 0.951 . S
H421 C440 0.951 . S
H422 C442 0.950 . S
H423 C443 0.950 . S
H424 C445 0.950 . S
H425 C448 0.950 . S
H426 C449 0.950 . S
H427 C451 0.950 . S
H428 C452 0.950 . S
H429 C453 0.951 . S
H430 C455 0.951 . S
H431 C457 0.950 . S
H432 C458 0.950 . S
H433 C460 0.950 . S
H434 C463 0.950 . S
H435 C464 0.950 . S
H436 C466 0.950 . S
H437 C467 0.950 . S
C438 H420 0.951 . S
C438 C439 1.366 . S
C438 C440 1.388 . S
C439 C438 1.366 . S
C439 C443 1.385 . S
C440 H421 0.951 . S
C440 C438 1.388 . S
C440 C441 1.366 . S
C441 C440 1.366 . S
C441 C442 1.414 . S
C441 C444 1.499 . S
C442 H422 0.950 . S
C442 C441 1.414 . S
C442 C443 1.374 . S
C443 H423 0.950 . S
C443 C439 1.385 . S
C443 C442 1.374 . S
C444 C441 1.499 . S
C444 C445 1.373 . S
C444 C446 1.389 . S
C445 H424 0.950 . S
C445 C444 1.373 . S
C445 C461 1.377 . S
C446 C444 1.389 . S
C446 C447 1.524 . S
C446 C460 1.377 . S
C447 C446 1.524 . S
C447 C448 1.397 . S
C447 C452 1.363 . S
C448 H425 0.950 . S
C448 C447 1.397 . S
C448 C449 1.334 . S
C449 H426 0.950 . S
C449 C448 1.334 . S
C449 C450 1.287 . S
C450 C449 1.287 . S
C450 C451 1.524 . S
C450 H469 0.913 . S
C451 H427 0.950 . S
C451 C450 1.524 . S
C451 C452 1.415 . S
C452 H428 0.950 . S
C452 C447 1.363 . S
C452 C451 1.415 . S
C453 H429 0.951 . S
C453 C454 1.366 . S
C453 C455 1.388 . S
C454 C453 1.366 . S
C454 C458 1.385 . S
C455 H430 0.951 . S
C455 C453 1.388 . S
C455 C456 1.366 . S
C456 C455 1.366 . S
C456 C457 1.414 . S
C456 C459 1.499 . S
C457 H431 0.950 . S
C457 C456 1.414 . S
C457 C458 1.374 . S
C458 H432 0.950 . S
C458 C454 1.385 . S
C458 C457 1.374 . S
C459 C456 1.499 . S
C459 C460 1.373 . S
C459 C461 1.389 . S
C460 H433 0.950 . S
C460 C446 1.377 . S
C460 C459 1.373 . S
C461 C445 1.377 . S
C461 C459 1.389 . S
C461 C462 1.524 . S
C462 C461 1.524 . S
C462 C463 1.397 . S
C462 C467 1.363 . S
C463 H434 0.950 . S
C463 C462 1.397 . S
C463 C464 1.334 . S
C464 H435 0.950 . S
C464 C463 1.334 . S
C464 C465 1.287 . S
C465 C464 1.287 . S
C465 C466 1.524 . S
C465 H468 0.999 . S
C466 H436 0.950 . S
C466 C465 1.524 . S
C466 C467 1.415 . S
C467 H437 0.950 . S
C467 C462 1.363 . S
C467 C466 1.415 . S
H468 C465 0.999 . S
H469 C450 0.913 . S
H470 C488 0.951 . S
H471 C490 0.951 . S
H472 C492 0.950 . S
H473 C493 0.950 . S
H474 C495 0.950 . S
H475 C498 0.950 . S
H476 C499 0.950 . S
H477 C501 0.950 . S
H478 C502 0.950 . S
H479 C503 0.951 . S
H480 C505 0.951 . S
H481 C507 0.950 . S
H482 C508 0.950 . S
H483 C510 0.950 . S
H484 C513 0.950 . S
H485 C514 0.950 . S
H486 C516 0.950 . S
H487 C517 0.950 . S
C488 H470 0.951 . S
C488 C489 1.366 . S
C488 C490 1.388 . S
C489 C488 1.366 . S
C489 C493 1.385 . S
C490 H471 0.951 . S
C490 C488 1.388 . S
C490 C491 1.366 . S
C491 C490 1.366 . S
C491 C492 1.414 . S
C491 C494 1.499 . S
C492 H472 0.950 . S
C492 C491 1.414 . S
C492 C493 1.374 . S
C493 H473 0.950 . S
C493 C489 1.385 . S
C493 C492 1.374 . S
C494 C491 1.499 . S
C494 C495 1.373 . S
C494 C496 1.389 . S
C495 H474 0.950 . S
C495 C494 1.373 . S
C495 C511 1.377 . S
C496 C494 1.389 . S
C496 C497 1.524 . S
C496 C510 1.377 . S
C497 C496 1.524 . S
C497 C498 1.397 . S
C497 C502 1.363 . S
C498 H475 0.950 . S
C498 C497 1.397 . S
C498 C499 1.334 . S
C499 H476 0.950 . S
C499 C498 1.334 . S
C499 C500 1.287 . S
C500 C499 1.287 . S
C500 C501 1.524 . S
C500 H519 0.913 . S
C501 H477 0.950 . S
C501 C500 1.524 . S
C501 C502 1.415 . S
C502 H478 0.950 . S
C502 C497 1.363 . S
C502 C501 1.415 . S
C503 H479 0.951 . S
C503 C504 1.366 . S
C503 C505 1.388 . S
C504 C503 1.366 . S
C504 C508 1.385 . S
C505 H480 0.951 . S
C505 C503 1.388 . S
C505 C506 1.366 . S
C506 C505 1.366 . S
C506 C507 1.414 . S
C506 C509 1.499 . S
C507 H481 0.950 . S
C507 C506 1.414 . S
C507 C508 1.374 . S
C508 H482 0.950 . S
C508 C504 1.385 . S
C508 C507 1.374 . S
C509 C506 1.499 . S
C509 C510 1.373 . S
C509 C511 1.389 . S
C510 H483 0.950 . S
C510 C496 1.377 . S
C510 C509 1.373 . S
C511 C495 1.377 . S
C511 C509 1.389 . S
C511 C512 1.524 . S
C512 C511 1.524 . S
C512 C513 1.397 . S
C512 C517 1.363 . S
C513 H484 0.950 . S
C513 C512 1.397 . S
C513 C514 1.334 . S
C514 H485 0.950 . S
C514 C513 1.334 . S
C514 C515 1.287 . S
C515 C514 1.287 . S
C515 C516 1.524 . S
C515 H518 0.999 . S
C516 H486 0.950 . S
C516 C515 1.524 . S
C516 C517 1.415 . S
C517 H487 0.950 . S
C517 C512 1.363 . S
C517 C516 1.415 . S
H518 C515 0.999 . S
H519 C500 0.913 . S
H520 C538 0.951 . S
H521 C540 0.951 . S
H522 C542 0.950 . S
H523 C543 0.950 . S
H524 C545 0.950 . S
H525 C548 0.950 . S
H526 C549 0.950 . S
H527 C551 0.964 . S
H528 C552 0.950 . S
H529 C553 0.951 . S
H530 C555 0.951 . S
H531 C557 0.950 . S
H532 C558 0.950 . S
H533 C560 0.950 . S
H534 C563 0.950 . S
H535 C564 0.950 . S
H536 C566 0.950 . S
H537 C567 0.950 . S
C538 H520 0.951 . S
C538 C539 1.366 . S
C538 C540 1.388 . S
C539 C538 1.366 . S
C539 C543 1.385 . S
C540 H521 0.951 . S
C540 C538 1.388 . S
C540 C541 1.366 . S
C541 C540 1.366 . S
C541 C542 1.414 . S
C541 C544 1.499 . S
C542 H522 0.950 . S
C542 C541 1.414 . S
C542 C543 1.374 . S
C543 H523 0.950 . S
C543 C539 1.385 . S
C543 C542 1.374 . S
C544 C541 1.499 . S
C544 C545 1.373 . S
C544 C546 1.389 . S
C545 H524 0.950 . S
C545 C544 1.373 . S
C545 C561 1.377 . S
C546 C544 1.389 . S
C546 C547 1.524 . S
C546 C560 1.377 . S
C547 C546 1.524 . S
C547 C548 1.397 . S
C547 C552 1.363 . S
C548 H525 0.950 . S
C548 C547 1.397 . S
C548 C549 1.334 . S
C549 H526 0.950 . S
C549 C548 1.334 . S
C549 C550 1.287 . S
C550 C549 1.287 . S
C550 C551 1.524 . S
C550 H569 0.913 1_655 S
C551 H527 0.964 . S
C551 C550 1.524 . S
C551 C552 1.415 . S
C552 H528 0.950 . S
C552 C547 1.363 . S
C552 C551 1.415 . S
C553 H529 0.951 . S
C553 C554 1.366 . S
C553 C555 1.388 . S
C554 C553 1.366 . S
C554 C558 1.385 . S
C555 H530 0.951 . S
C555 C553 1.388 . S
C555 C556 1.366 . S
C556 C555 1.366 . S
C556 C557 1.414 . S
C556 C559 1.499 . S
C557 H531 0.950 . S
C557 C556 1.414 . S
C557 C558 1.374 . S
C558 H532 0.950 . S
C558 C554 1.385 . S
C558 C557 1.374 . S
C559 C556 1.499 . S
C559 C560 1.373 . S
C559 C561 1.389 . S
C560 H533 0.950 . S
C560 C546 1.377 . S
C560 C559 1.373 . S
C561 C545 1.377 . S
C561 C559 1.389 . S
C561 C562 1.524 . S
C562 C561 1.524 . S
C562 C563 1.397 . S
C562 C567 1.363 . S
C563 H534 0.950 . S
C563 C562 1.397 . S
C563 C564 1.334 . S
C564 H535 0.950 . S
C564 C563 1.334 . S
C564 C565 1.287 . S
C565 C564 1.287 . S
C565 C566 1.524 . S
C565 H568 0.999 . S
C566 H536 0.950 . S
C566 C565 1.524 . S
C566 C567 1.415 . S
C567 H537 0.950 . S
C567 C562 1.363 . S
C567 C566 1.415 . S
H568 C565 0.999 . S
H569 C550 0.913 1_455 S
H570 C588 0.951 . S
H571 C590 0.951 . S
H572 C592 0.950 . S
H573 C593 0.950 . S
H574 C595 0.950 . S
H575 C598 0.950 . S
H576 C599 0.950 . S
H577 C601 0.950 . S
H578 C602 0.950 . S
H579 C603 0.951 . S
H580 C605 0.951 . S
H581 C607 0.950 . S
H582 C608 0.950 . S
H583 C610 0.950 . S
H584 C613 0.950 . S
H585 C614 0.950 . S
H586 C616 0.950 . S
H587 C617 0.950 . S
C588 H570 0.951 . S
C588 C589 1.366 . S
C588 C590 1.388 . S
C589 C588 1.366 . S
C589 C593 1.385 . S
C590 H571 0.951 . S
C590 C588 1.388 . S
C590 C591 1.366 . S
C591 C590 1.366 . S
C591 C592 1.414 . S
C591 C594 1.499 . S
C592 H572 0.950 . S
C592 C591 1.414 . S
C592 C593 1.374 . S
C593 H573 0.950 . S
C593 C589 1.385 . S
C593 C592 1.374 . S
C594 C591 1.499 . S
C594 C595 1.373 . S
C594 C596 1.389 . S
C595 H574 0.950 . S
C595 C594 1.373 . S
C595 C611 1.377 . S
C596 C594 1.389 . S
C596 C597 1.524 . S
C596 C610 1.377 . S
C597 C596 1.524 . S
C597 C598 1.397 . S
C597 C602 1.363 . S
C598 H575 0.950 . S
C598 C597 1.397 . S
C598 C599 1.334 . S
C599 H576 0.950 . S
C599 C598 1.334 . S
C599 C600 1.287 . S
C600 C599 1.287 . S
C600 C601 1.524 . S
C600 H619 0.913 . S
C601 H577 0.950 . S
C601 C600 1.524 . S
C601 C602 1.415 . S
C602 H578 0.950 . S
C602 C597 1.363 . S
C602 C601 1.415 . S
C603 H579 0.951 . S
C603 C604 1.366 . S
C603 C605 1.388 . S
C604 C603 1.366 . S
C604 C608 1.385 . S
C605 H580 0.951 . S
C605 C603 1.388 . S
C605 C606 1.366 . S
C606 C605 1.366 . S
C606 C607 1.414 . S
C606 C609 1.499 . S
C607 H581 0.950 . S
C607 C606 1.414 . S
C607 C608 1.374 . S
C608 H582 0.950 . S
C608 C604 1.385 . S
C608 C607 1.374 . S
C609 C606 1.499 . S
C609 C610 1.373 . S
C609 C611 1.389 . S
C610 H583 0.950 . S
C610 C596 1.377 . S
C610 C609 1.373 . S
C611 C595 1.377 . S
C611 C609 1.389 . S
C611 C612 1.524 . S
C612 C611 1.524 . S
C612 C613 1.397 . S
C612 C617 1.363 . S
C613 H584 0.950 . S
C613 C612 1.397 . S
C613 C614 1.334 . S
C614 H585 0.950 . S
C614 C613 1.334 . S
C614 C615 1.287 . S
C615 C614 1.287 . S
C615 C616 1.524 . S
C615 H618 0.999 . S
C616 H586 0.950 . S
C616 C615 1.524 . S
C616 C617 1.415 . S
C617 H587 0.950 . S
C617 C612 1.363 . S
C617 C616 1.415 . S
H618 C615 0.999 . S
H619 C600 0.913 . S
H620 C638 0.951 . S
H621 C640 0.951 . S
H622 C642 0.950 . S
H623 C643 0.950 . S
H624 C645 0.950 . S
H625 C648 0.950 . S
H626 C649 0.950 . S
H627 C651 0.950 . S
H628 C652 0.950 . S
H629 C653 0.951 . S
H630 C655 0.951 . S
H631 C657 0.950 . S
H632 C658 0.950 . S
H633 C660 0.950 . S
H634 C663 0.950 . S
H635 C664 0.950 . S
H636 C666 0.950 . S
H637 C667 0.950 . S
C638 H620 0.951 . S
C638 C639 1.366 . S
C638 C640 1.388 . S
C639 C638 1.366 . S
C639 C643 1.385 . S
C640 H621 0.951 . S
C640 C638 1.388 . S
C640 C641 1.366 . S
C641 C640 1.366 . S
C641 C642 1.414 . S
C641 C644 1.499 . S
C642 H622 0.950 . S
C642 C641 1.414 . S
C642 C643 1.374 . S
C643 H623 0.950 . S
C643 C639 1.385 . S
C643 C642 1.374 . S
C644 C641 1.499 . S
C644 C645 1.373 . S
C644 C646 1.389 . S
C645 H624 0.950 . S
C645 C644 1.373 . S
C645 C661 1.377 . S
C646 C644 1.389 . S
C646 C647 1.524 . S
C646 C660 1.377 . S
C647 C646 1.524 . S
C647 C648 1.397 . S
C647 C652 1.363 . S
C648 H625 0.950 . S
C648 C647 1.397 . S
C648 C649 1.334 . S
C649 H626 0.950 . S
C649 C648 1.334 . S
C649 C650 1.287 . S
C650 C649 1.287 . S
C650 C651 1.524 . S
C650 H669 0.913 . S
C651 H627 0.950 . S
C651 C650 1.524 . S
C651 C652 1.415 . S
C652 H628 0.950 . S
C652 C647 1.363 . S
C652 C651 1.415 . S
C653 H629 0.951 . S
C653 C654 1.366 . S
C653 C655 1.388 . S
C654 C653 1.366 . S
C654 C658 1.385 . S
C655 H630 0.951 . S
C655 C653 1.388 . S
C655 C656 1.366 . S
C656 C655 1.366 . S
C656 C657 1.414 . S
C656 C659 1.499 . S
C657 H631 0.950 . S
C657 C656 1.414 . S
C657 C658 1.374 . S
C658 H632 0.950 . S
C658 C654 1.385 . S
C658 C657 1.374 . S
C659 C656 1.499 . S
C659 C660 1.373 . S
C659 C661 1.389 . S
C660 H633 0.950 . S
C660 C646 1.377 . S
C660 C659 1.373 . S
C661 C645 1.377 . S
C661 C659 1.389 . S
C661 C662 1.524 . S
C662 C661 1.524 . S
C662 C663 1.397 . S
C662 C667 1.363 . S
C663 H634 0.950 . S
C663 C662 1.397 . S
C663 C664 1.334 . S
C664 H635 0.950 . S
C664 C663 1.334 . S
C664 C665 1.287 . S
C665 C664 1.287 . S
C665 C666 1.524 . S
C665 H668 0.999 . S
C666 H636 0.950 . S
C666 C665 1.524 . S
C666 C667 1.415 . S
C667 H637 0.950 . S
C667 C662 1.363 . S
C667 C666 1.415 . S
H668 C665 0.999 . S
H669 C650 0.913 . S
H670 C688 0.951 . S
H671 C690 0.951 . S
H672 C692 0.950 . S
H673 C693 0.950 . S
H674 C695 0.950 . S
H675 C698 0.950 . S
H676 C699 0.950 . S
H677 C701 0.950 . S
H678 C702 0.950 . S
H679 C703 0.951 . S
H680 C705 0.951 . S
H681 C707 0.950 . S
H682 C708 0.950 . S
H683 C710 0.950 . S
H684 C713 0.950 . S
H685 C714 0.950 . S
H686 C716 0.950 . S
H687 C717 0.950 . S
C688 H670 0.951 . S
C688 C689 1.366 . S
C688 C690 1.388 . S
C689 C688 1.366 . S
C689 C693 1.385 . S
C690 H671 0.951 . S
C690 C688 1.388 . S
C690 C691 1.366 . S
C691 C690 1.366 . S
C691 C692 1.414 . S
C691 C694 1.499 . S
C692 H672 0.950 . S
C692 C691 1.414 . S
C692 C693 1.374 . S
C693 H673 0.950 . S
C693 C689 1.385 . S
C693 C692 1.374 . S
C694 C691 1.499 . S
C694 C695 1.373 . S
C694 C696 1.389 . S
C695 H674 0.950 . S
C695 C694 1.373 . S
C695 C711 1.377 . S
C696 C694 1.389 . S
C696 C697 1.524 . S
C696 C710 1.377 . S
C697 C696 1.524 . S
C697 C698 1.397 . S
C697 C702 1.363 . S
C698 H675 0.950 . S
C698 C697 1.397 . S
C698 C699 1.334 . S
C699 H676 0.950 . S
C699 C698 1.334 . S
C699 C700 1.287 . S
C700 C699 1.287 . S
C700 C701 1.524 . S
C700 H719 0.913 . S
C701 H677 0.950 . S
C701 C700 1.524 . S
C701 C702 1.415 . S
C702 H678 0.950 . S
C702 C697 1.363 . S
C702 C701 1.415 . S
C703 H679 0.951 . S
C703 C704 1.366 . S
C703 C705 1.388 . S
C704 C703 1.366 . S
C704 C708 1.385 . S
C705 H680 0.951 . S
C705 C703 1.388 . S
C705 C706 1.366 . S
C706 C705 1.366 . S
C706 C707 1.414 . S
C706 C709 1.499 . S
C707 H681 0.950 . S
C707 C706 1.414 . S
C707 C708 1.374 . S
C708 H682 0.950 . S
C708 C704 1.385 . S
C708 C707 1.374 . S
C709 C706 1.499 . S
C709 C710 1.373 . S
C709 C711 1.389 . S
C710 H683 0.950 . S
C710 C696 1.377 . S
C710 C709 1.373 . S
C711 C695 1.377 . S
C711 C709 1.389 . S
C711 C712 1.524 . S
C712 C711 1.524 . S
C712 C713 1.397 . S
C712 C717 1.363 . S
C713 H684 0.950 . S
C713 C712 1.397 . S
C713 C714 1.334 . S
C714 H685 0.950 . S
C714 C713 1.334 . S
C714 C715 1.287 . S
C715 C714 1.287 . S
C715 C716 1.524 . S
C715 H718 0.999 . S
C716 H686 0.950 . S
C716 C715 1.524 . S
C716 C717 1.415 . S
C717 H687 0.950 . S
C717 C712 1.363 . S
C717 C716 1.415 . S
H718 C715 0.999 . S
H719 C700 0.913 . S
H720 C738 0.951 . S
H721 C740 0.951 . S
H722 C742 0.950 . S
H723 C743 0.950 . S
H724 C745 0.950 . S
H725 C748 0.950 . S
H726 C749 0.950 . S
H727 C751 0.950 . S
H728 C752 0.950 . S
H729 C753 0.951 1_655 S
H730 C755 0.951 . S
H731 C757 0.950 . S
H732 C758 0.950 . S
H733 C760 0.950 . S
H734 C763 0.950 . S
H735 C764 0.950 . S
H736 C766 0.950 . S
H737 C767 0.950 . S
C738 H720 0.951 . S
C738 C739 1.366 . S
C738 C740 1.388 . S
C739 C738 1.366 . S
C739 C743 1.385 . S
C740 H721 0.951 . S
C740 C738 1.388 . S
C740 C741 1.366 . S
C741 C740 1.366 . S
C741 C742 1.414 . S
C741 C744 1.499 . S
C742 H722 0.950 . S
C742 C741 1.414 . S
C742 C743 1.374 . S
C743 H723 0.950 . S
C743 C739 1.385 . S
C743 C742 1.374 . S
C744 C741 1.499 . S
C744 C745 1.373 . S
C744 C746 1.389 . S
C745 H724 0.950 . S
C745 C744 1.373 . S
C745 C761 1.377 . S
C746 C744 1.389 . S
C746 C747 1.524 . S
C746 C760 1.377 . S
C747 C746 1.524 . S
C747 C748 1.397 . S
C747 C752 1.363 . S
C748 H725 0.950 . S
C748 C747 1.397 . S
C748 C749 1.334 . S
C749 H726 0.950 . S
C749 C748 1.334 . S
C749 C750 1.287 . S
C750 C749 1.287 . S
C750 C751 1.524 . S
C750 H769 0.913 . S
C751 H727 0.950 . S
C751 C750 1.524 . S
C751 C752 1.415 . S
C752 H728 0.950 . S
C752 C747 1.363 . S
C752 C751 1.415 . S
C753 H729 0.951 1_455 S
C753 C754 1.366 . S
C753 C755 1.388 . S
C754 C753 1.366 . S
C754 C758 1.385 . S
C755 H730 0.951 . S
C755 C753 1.388 . S
C755 C756 1.366 . S
C756 C755 1.366 . S
C756 C757 1.414 . S
C756 C759 1.499 . S
C757 H731 0.950 . S
C757 C756 1.414 . S
C757 C758 1.374 . S
C758 H732 0.950 . S
C758 C754 1.385 . S
C758 C757 1.374 . S
C759 C756 1.499 . S
C759 C760 1.373 . S
C759 C761 1.389 . S
C760 H733 0.950 . S
C760 C746 1.377 . S
C760 C759 1.373 . S
C761 C745 1.377 . S
C761 C759 1.389 . S
C761 C762 1.524 . S
C762 C761 1.524 . S
C762 C763 1.397 . S
C762 C767 1.363 . S
C763 H734 0.950 . S
C763 C762 1.397 . S
C763 C764 1.334 . S
C764 H735 0.950 . S
C764 C763 1.334 . S
C764 C765 1.287 . S
C765 C764 1.287 . S
C765 C766 1.524 . S
C765 H768 0.999 . S
C766 H736 0.950 . S
C766 C765 1.524 . S
C766 C767 1.415 . S
C767 H737 0.950 . S
C767 C762 1.363 . S
C767 C766 1.415 . S
H768 C765 0.999 . S
H769 C750 0.913 . S
H770 C788 0.951 . S
H771 C790 0.951 . S
H772 C792 0.950 . S
H773 C793 0.950 . S
H774 C795 0.950 1_655 S
H775 C798 0.950 . S
H776 C799 0.950 . S
H777 C801 0.950 1_455 S
H778 C802 0.950 . S
H779 C803 0.951 1_545 S
H780 C805 0.951 . S
H781 C807 0.950 . S
H782 C808 0.950 . S
H783 C810 0.950 . S
H784 C813 0.950 . S
H785 C814 0.950 . S
H786 C816 0.950 . S
H787 C817 0.950 . S
C788 H770 0.951 . S
C788 C789 1.366 . S
C788 C790 1.388 . S
C789 C788 1.366 . S
C789 C793 1.385 . S
C790 H771 0.951 . S
C790 C788 1.388 . S
C790 C791 1.366 . S
C791 C790 1.366 . S
C791 C792 1.414 . S
C791 C794 1.499 . S
C792 H772 0.950 . S
C792 C791 1.414 . S
C792 C793 1.374 . S
C793 H773 0.950 . S
C793 C789 1.385 . S
C793 C792 1.374 . S
C794 C791 1.499 . S
C794 C795 1.373 1_655 S
C794 C796 1.389 1_655 S
C795 H774 0.950 1_455 S
C795 C794 1.373 1_455 S
C795 C811 1.377 . S
C796 C794 1.389 1_455 S
C796 C797 1.524 1_455 S
C796 C810 1.377 . S
C797 C796 1.524 1_655 S
C797 C798 1.397 . S
C797 C802 1.363 1_655 S
C798 H775 0.950 . S
C798 C797 1.397 . S
C798 C799 1.334 . S
C799 H776 0.950 . S
C799 C798 1.334 . S
C799 C800 1.287 . S
C800 C799 1.287 . S
C800 C801 1.524 . S
C800 H819 0.913 . S
C801 H777 0.950 1_655 S
C801 C800 1.524 . S
C801 C802 1.415 1_655 S
C802 H778 0.950 . S
C802 C797 1.363 1_455 S
C802 C801 1.415 1_455 S
C803 H779 0.951 1_565 S
C803 C804 1.366 . S
C803 C805 1.388 . S
C804 C803 1.366 . S
C804 C808 1.385 . S
C805 H780 0.951 . S
C805 C803 1.388 . S
C805 C806 1.366 . S
C806 C805 1.366 . S
C806 C807 1.414 . S
C806 C809 1.499 . S
C807 H781 0.950 . S
C807 C806 1.414 . S
C807 C808 1.374 . S
C808 H782 0.950 . S
C808 C804 1.385 . S
C808 C807 1.374 . S
C809 C806 1.499 . S
C809 C810 1.373 . S
C809 C811 1.389 . S
C810 H783 0.950 . S
C810 C796 1.377 . S
C810 C809 1.373 . S
C811 C795 1.377 . S
C811 C809 1.389 . S
C811 C812 1.524 . S
C812 C811 1.524 . S
C812 C813 1.397 . S
C812 C817 1.363 . S
C813 H784 0.950 . S
C813 C812 1.397 . S
C813 C814 1.334 . S
C814 H785 0.950 . S
C814 C813 1.334 . S
C814 C815 1.287 . S
C815 C814 1.287 . S
C815 C816 1.524 . S
C815 H818 0.999 . S
C816 H786 0.950 . S
C816 C815 1.524 . S
C816 C817 1.415 . S
C817 H787 0.950 . S
C817 C812 1.363 . S
C817 C816 1.415 . S
H818 C815 0.999 . S
H819 C800 0.913 . S
H820 C838 0.951 . S
H821 C840 0.951 . S
H822 C842 0.950 . S
H823 C843 0.950 . S
H824 C845 0.950 1_545 S
H825 C848 0.950 . S
H826 C849 0.950 . S
H827 C851 0.950 . S
H828 C852 0.950 1_565 S
H829 C853 0.951 . S
H830 C855 0.951 . S
H831 C857 0.950 . S
H832 C858 0.950 . S
H833 C860 0.950 . S
H834 C863 0.950 . S
H835 C864 0.950 . S
H836 C866 0.950 . S
H837 C867 0.950 . S
C838 H820 0.951 . S
C838 C839 1.366 . S
C838 C840 1.388 . S
C839 C838 1.366 . S
C839 C843 1.385 . S
C840 H821 0.951 . S
C840 C838 1.388 . S
C840 C841 1.366 . S
C841 C840 1.366 . S
C841 C842 1.414 . S
C841 C844 1.499 . S
C842 H822 0.950 . S
C842 C841 1.414 . S
C842 C843 1.374 . S
C843 H823 0.950 . S
C843 C839 1.385 . S
C843 C842 1.374 . S
C844 C841 1.499 . S
C844 C845 1.373 1_545 S
C844 C846 1.389 1_545 S
C845 H824 0.950 1_565 S
C845 C844 1.373 1_565 S
C845 C861 1.377 . S
C846 C844 1.389 1_565 S
C846 C847 1.524 1_565 S
C846 C860 1.377 . S
C847 C846 1.524 1_545 S
C847 C848 1.397 . S
C847 C852 1.363 . S
C848 H825 0.950 . S
C848 C847 1.397 . S
C848 C849 1.334 . S
C849 H826 0.950 . S
C849 C848 1.334 . S
C849 C850 1.287 . S
C850 C849 1.287 . S
C850 C851 1.524 . S
C850 H869 0.913 . S
C851 H827 0.950 . S
C851 C850 1.524 . S
C851 C852 1.415 . S
C852 H828 0.950 1_545 S
C852 C847 1.363 . S
C852 C851 1.415 . S
C853 H829 0.951 . S
C853 C854 1.366 . S
C853 C855 1.388 . S
C854 C853 1.366 . S
C854 C858 1.385 . S
C855 H830 0.951 . S
C855 C853 1.388 . S
C855 C856 1.366 . S
C856 C855 1.366 . S
C856 C857 1.414 . S
C856 C859 1.499 . S
C857 H831 0.950 . S
C857 C856 1.414 . S
C857 C858 1.374 . S
C858 H832 0.950 . S
C858 C854 1.385 . S
C858 C857 1.374 . S
C859 C856 1.499 . S
C859 C860 1.373 . S
C859 C861 1.389 . S
C860 H833 0.950 . S
C860 C846 1.377 . S
C860 C859 1.373 . S
C861 C845 1.377 . S
C861 C859 1.389 . S
C861 C862 1.524 . S
C862 C861 1.524 . S
C862 C863 1.397 . S
C862 C867 1.363 . S
C863 H834 0.950 . S
C863 C862 1.397 . S
C863 C864 1.334 . S
C864 H835 0.950 . S
C864 C863 1.334 . S
C864 C865 1.287 . S
C865 C864 1.287 . S
C865 C866 1.524 . S
C865 H868 0.999 . S
C866 H836 0.950 . S
C866 C865 1.524 . S
C866 C867 1.415 . S
C867 H837 0.950 . S
C867 C862 1.363 . S
C867 C866 1.415 . S
H868 C865 0.999 . S
H869 C850 0.913 . S
H870 C888 0.951 . S
H871 C890 0.951 . S
H872 C892 0.950 . S
H873 C893 0.950 . S
H874 C895 0.950 . S
H875 C898 0.950 . S
H876 C899 0.950 . S
H877 C901 0.950 . S
H878 C902 0.950 . S
H879 C903 0.951 1_565 S
H880 C905 0.951 . S
H881 C907 0.950 . S
H882 C908 0.950 . S
H883 C910 0.950 . S
H884 C913 0.950 . S
H885 C914 0.950 . S
H886 C916 0.950 . S
H887 C917 0.950 . S
C888 H870 0.951 . S
C888 C889 1.366 . S
C888 C890 1.388 . S
C889 C888 1.366 . S
C889 C893 1.385 . S
C890 H871 0.951 . S
C890 C888 1.388 . S
C890 C891 1.366 . S
C891 C890 1.366 . S
C891 C892 1.414 . S
C891 C894 1.499 . S
C892 H872 0.950 . S
C892 C891 1.414 . S
C892 C893 1.374 . S
C893 H873 0.950 . S
C893 C889 1.385 . S
C893 C892 1.374 . S
C894 C891 1.499 . S
C894 C895 1.373 . S
C894 C896 1.389 . S
C895 H874 0.950 . S
C895 C894 1.373 . S
C895 C911 1.377 . S
C896 C894 1.389 . S
C896 C897 1.524 . S
C896 C910 1.377 . S
C897 C896 1.524 . S
C897 C898 1.397 . S
C897 C902 1.363 . S
C898 H875 0.950 . S
C898 C897 1.397 . S
C898 C899 1.334 . S
C899 H876 0.950 . S
C899 C898 1.334 . S
C899 C900 1.287 . S
C900 C899 1.287 . S
C900 C901 1.524 . S
C900 H919 0.913 . S
C901 H877 0.950 . S
C901 C900 1.524 . S
C901 C902 1.415 . S
C902 H878 0.950 . S
C902 C897 1.363 . S
C902 C901 1.415 . S
C903 H879 0.951 1_545 S
C903 C904 1.366 . S
C903 C905 1.388 . S
C904 C903 1.366 . S
C904 C908 1.385 . S
C905 H880 0.951 . S
C905 C903 1.388 . S
C905 C906 1.366 . S
C906 C905 1.366 . S
C906 C907 1.414 . S
C906 C909 1.499 . S
C907 H881 0.950 . S
C907 C906 1.414 . S
C907 C908 1.374 . S
C908 H882 0.950 . S
C908 C904 1.385 . S
C908 C907 1.374 . S
C909 C906 1.499 . S
C909 C910 1.373 . S
C909 C911 1.389 . S
C910 H883 0.950 . S
C910 C896 1.377 . S
C910 C909 1.373 . S
C911 C895 1.377 . S
C911 C909 1.389 . S
C911 C912 1.524 . S
C912 C911 1.524 . S
C912 C913 1.397 . S
C912 C917 1.363 . S
C913 H884 0.950 . S
C913 C912 1.397 . S
C913 C914 1.334 . S
C914 H885 0.950 . S
C914 C913 1.334 . S
C914 C915 1.287 . S
C915 C914 1.287 . S
C915 C916 1.524 . S
C915 H918 0.999 . S
C916 H886 0.950 . S
C916 C915 1.524 . S
C916 C917 1.415 . S
C917 H887 0.950 . S
C917 C912 1.363 . S
C917 C916 1.415 . S
H918 C915 0.999 . S
H919 C900 0.913 . S
H920 C938 0.951 . S
H921 C940 0.951 . S
H922 C942 0.950 . S
H923 C943 0.950 . S
H924 C945 0.950 . S
H925 C948 0.950 . S
H926 C949 0.950 1_545 S
H927 C951 0.946 1_545 S
H928 C952 0.950 1_655 S
H929 C953 0.951 . S
H930 C955 0.951 . S
H931 C957 0.950 . S
H932 C958 0.950 . S
H933 C960 0.950 . S
H934 C963 0.950 . S
H935 C964 0.950 . S
H936 C966 0.950 . S
H937 C967 0.950 . S
C938 H920 0.951 . S
C938 C939 1.366 . S
C938 C940 1.388 . S
C939 C938 1.366 . S
C939 C943 1.385 . S
C940 H921 0.951 . S
C940 C938 1.388 . S
C940 C941 1.366 . S
C941 C940 1.366 . S
C941 C942 1.414 . S
C941 C944 1.499 . S
C942 H922 0.950 . S
C942 C941 1.414 . S
C942 C943 1.374 . S
C943 H923 0.950 . S
C943 C939 1.385 . S
C943 C942 1.374 . S
C944 C941 1.499 . S
C944 C945 1.373 1_455 S
C944 C946 1.389 1_455 S
C945 H924 0.950 . S
C945 C944 1.373 1_655 S
C945 C961 1.377 . S
C946 C944 1.389 1_655 S
C946 C947 1.524 1_655 S
C946 C960 1.377 . S
C947 C946 1.524 1_455 S
C947 C948 1.397 . S
C947 C952 1.363 . S
C948 H925 0.950 . S
C948 C947 1.397 . S
C948 C949 1.334 . S
C949 H926 0.950 1_565 S
C949 C948 1.334 . S
C949 C950 1.287 1_565 S
C950 C949 1.287 1_545 S
C950 C951 1.524 1_545 S
C950 H969 0.913 . S
C951 H927 0.946 1_565 S
C951 C950 1.524 1_565 S
C951 C952 1.415 . S
C952 H928 0.950 1_455 S
C952 C947 1.363 . S
C952 C951 1.415 . S
C953 H929 0.951 . S
C953 C954 1.366 . S
C953 C955 1.388 . S
C954 C953 1.366 . S
C954 C958 1.385 . S
C955 H930 0.951 . S
C955 C953 1.388 . S
C955 C956 1.366 . S
C956 C955 1.366 . S
C956 C957 1.414 . S
C956 C959 1.499 . S
C957 H931 0.950 . S
C957 C956 1.414 . S
C957 C958 1.374 . S
C958 H932 0.950 . S
C958 C954 1.385 . S
C958 C957 1.374 . S
C959 C956 1.499 . S
C959 C960 1.373 . S
C959 C961 1.389 . S
C960 H933 0.950 . S
C960 C946 1.377 . S
C960 C959 1.373 . S
C961 C945 1.377 . S
C961 C959 1.389 . S
C961 C962 1.524 . S
C962 C961 1.524 . S
C962 C963 1.397 . S
C962 C967 1.363 . S
C963 H934 0.950 . S
C963 C962 1.397 . S
C963 C964 1.334 . S
C964 H935 0.950 . S
C964 C963 1.334 . S
C964 C965 1.287 . S
C965 C964 1.287 . S
C965 C966 1.524 . S
C965 H968 0.999 . S
C966 H936 0.950 . S
C966 C965 1.524 . S
C966 C967 1.415 . S
C967 H937 0.950 . S
C967 C962 1.363 . S
C967 C966 1.415 . S
H968 C965 0.999 . S
H969 C950 0.913 . S
H970 C988 0.951 . S
H971 C990 0.951 . S
H972 C992 0.950 . S
H973 C993 0.950 . S
H974 C995 0.950 . S
H975 C998 0.950 . S
H976 C999 0.950 . S
H977 C1001 0.950 . S
H978 C1002 0.950 . S
H979 C1003 0.951 . S
H980 C1005 0.951 . S
H981 C1007 0.950 . S
H982 C1008 0.950 . S
H983 C1010 0.950 1_565 S
H984 C1013 0.950 . S
H985 C1014 0.950 . S
H986 C1016 0.950 . S
H987 C1017 0.950 1_545 S
C988 H970 0.951 . S
C988 C989 1.366 . S
C988 C990 1.388 . S
C989 C988 1.366 . S
C989 C993 1.385 . S
C990 H971 0.951 . S
C990 C988 1.388 . S
C990 C991 1.366 . S
C991 C990 1.366 . S
C991 C992 1.414 . S
C991 C994 1.499 . S
C992 H972 0.950 . S
C992 C991 1.414 . S
C992 C993 1.374 . S
C993 H973 0.950 . S
C993 C989 1.385 . S
C993 C992 1.374 . S
C994 C991 1.499 . S
C994 C995 1.373 . S
C994 C996 1.389 . S
C995 H974 0.950 . S
C995 C994 1.373 . S
C995 C1011 1.377 . S
C996 C994 1.389 . S
C996 C997 1.524 . S
C996 C1010 1.377 . S
C997 C996 1.524 . S
C997 C998 1.397 . S
C997 C1002 1.363 . S
C998 H975 0.950 . S
C998 C997 1.397 . S
C998 C999 1.334 . S
C999 H976 0.950 . S
C999 C998 1.334 . S
C999 C1000 1.287 . S
C1000 C999 1.287 . S
C1000 C1001 1.524 . S
C1000 H1019 0.913 . S
C1001 H977 0.950 . S
C1001 C1000 1.524 . S
C1001 C1002 1.415 . S
C1002 H978 0.950 . S
C1002 C997 1.363 . S
C1002 C1001 1.415 . S
C1003 H979 0.951 . S
C1003 C1004 1.366 . S
C1003 C1005 1.388 . S
C1004 C1003 1.366 . S
C1004 C1008 1.385 . S
C1005 H980 0.951 . S
C1005 C1003 1.388 . S
C1005 C1006 1.366 . S
C1006 C1005 1.366 . S
C1006 C1007 1.414 . S
C1006 C1009 1.499 . S
C1007 H981 0.950 . S
C1007 C1006 1.414 . S
C1007 C1008 1.374 . S
C1008 H982 0.950 . S
C1008 C1004 1.385 . S
C1008 C1007 1.374 . S
C1009 C1006 1.499 . S
C1009 C1010 1.373 1_565 S
C1009 C1011 1.389 1_565 S
C1010 H983 0.950 1_545 S
C1010 C996 1.377 . S
C1010 C1009 1.373 1_545 S
C1011 C995 1.377 . S
C1011 C1009 1.389 1_545 S
C1011 C1012 1.524 1_545 S
C1012 C1011 1.524 1_565 S
C1012 C1013 1.397 . S
C1012 C1017 1.363 . S
C1013 H984 0.950 . S
C1013 C1012 1.397 . S
C1013 C1014 1.334 . S
C1014 H985 0.950 . S
C1014 C1013 1.334 . S
C1014 C1015 1.287 . S
C1015 C1014 1.287 . S
C1015 C1016 1.524 . S
C1015 H1018 0.999 . S
C1016 H986 0.950 . S
C1016 C1015 1.524 . S
C1016 C1017 1.415 . S
C1017 H987 0.950 1_565 S
C1017 C1012 1.363 . S
C1017 C1016 1.415 . S
H1018 C1015 0.999 . S
H1019 C1000 0.913 . S
C139 C89 1.886 . S
C154 C9 1.865 . S
C189 C101 2.065 . S
C204 C21 2.101 . S
C239 C49 2.329 . S
C254 C69 2.362 . S
C289 C1 2.443 . S
C304 C81 2.405 . S
C339 C109 2.220 . S
C354 C29 2.244 . S
C389 C41 1.953 . S
C404 C61 1.932 . S
C439 C8 1.776 . S
C454 C56 1.692 . S
C489 C39 1.773 . S
C504 C16 1.689 . S
C539 C48 1.774 . S
C554 C26 1.690 . S
C589 C79 1.780 . S
C604 C86 1.691 . S
C639 C99 1.775 . S
C654 C106 1.697 . S
C689 C66 1.718 . S
C704 C119 1.782 . S
C739 C19 0.909 . S
C754 C46 0.988 . S
C789 C28 0.907 . S
C804 C6 0.980 . S
C839 C59 0.903 . S
C854 C36 0.974 . S
C889 C68 0.908 . S
C904 C96 0.981 . S
C939 C88 0.903 . S
C954 C116 0.974 . S
C989 C76 1.002 . S
C1004 C108 0.916 . S
