# Generated by pormake.
# Topology vbr, (6)-cn, num edge types: 1
# Building blocks:
#     Node 0, Type 0, BuildingBlock: IZENUY_clean_sbu_0, # of connection points: 6
#     Node 1, Type 0, BuildingBlock: IZENUY_clean_sbu_0, # of connection points: 6
#     Node 2, Type 0, BuildingBlock: IZENUY_clean_sbu_0, # of connection points: 6
#     Node 3, Type 0, BuildingBlock: IZENUY_clean_sbu_0, # of connection points: 6
#     Node 4, Type 0, BuildingBlock: IZENUY_clean_sbu_0, # of connection points: 6
#     Node 5, Type 0, BuildingBlock: IZENUY_clean_sbu_0, # of connection points: 6
#     Node 6, Type 0, BuildingBlock: IZENUY_clean_sbu_0, # of connection points: 6
#     Node 7, Type 0, BuildingBlock: IZENUY_clean_sbu_0, # of connection points: 6
#     Node 8, Type 0, BuildingBlock: IZENUY_clean_sbu_0, # of connection points: 6
#     Node 9, Type 0, BuildingBlock: IZENUY_clean_sbu_0, # of connection points: 6
#     Node 10, Type 0, BuildingBlock: IZENUY_clean_sbu_0, # of connection points: 6
#     Node 11, Type 0, BuildingBlock: IZENUY_clean_sbu_0, # of connection points: 6
#     Node 12, Type 0, BuildingBlock: IZENUY_clean_sbu_0, # of connection points: 6
#     Node 13, Type 0, BuildingBlock: IZENUY_clean_sbu_0, # of connection points: 6
#     Node 14, Type 0, BuildingBlock: IZENUY_clean_sbu_0, # of connection points: 6
#     Node 15, Type 0, BuildingBlock: IZENUY_clean_sbu_0, # of connection points: 6
#     Edge 16, Type (0, 0), BuildingBlock: AJUNOK_clean_linker_0, # of connection points: 2
#     Edge 17, Type (0, 0), BuildingBlock: AJUNOK_clean_linker_0, # of connection points: 2
#     Edge 18, Type (0, 0), BuildingBlock: AJUNOK_clean_linker_0, # of connection points: 2
#     Edge 19, Type (0, 0), BuildingBlock: AJUNOK_clean_linker_0, # of connection points: 2
#     Edge 20, Type (0, 0), BuildingBlock: AJUNOK_clean_linker_0, # of connection points: 2
#     Edge 21, Type (0, 0), BuildingBlock: AJUNOK_clean_linker_0, # of connection points: 2
#     Edge 22, Type (0, 0), BuildingBlock: AJUNOK_clean_linker_0, # of connection points: 2
#     Edge 23, Type (0, 0), BuildingBlock: AJUNOK_clean_linker_0, # of connection points: 2
#     Edge 24, Type (0, 0), BuildingBlock: AJUNOK_clean_linker_0, # of connection points: 2
#     Edge 25, Type (0, 0), BuildingBlock: AJUNOK_clean_linker_0, # of connection points: 2
#     Edge 26, Type (0, 0), BuildingBlock: AJUNOK_clean_linker_0, # of connection points: 2
#     Edge 27, Type (0, 0), BuildingBlock: AJUNOK_clean_linker_0, # of connection points: 2
#     Edge 28, Type (0, 0), BuildingBlock: AJUNOK_clean_linker_0, # of connection points: 2
#     Edge 29, Type (0, 0), BuildingBlock: AJUNOK_clean_linker_0, # of connection points: 2
#     Edge 30, Type (0, 0), BuildingBlock: AJUNOK_clean_linker_0, # of connection points: 2
#     Edge 31, Type (0, 0), BuildingBlock: AJUNOK_clean_linker_0, # of connection points: 2
#     Edge 32, Type (0, 0), BuildingBlock: AJUNOK_clean_linker_0, # of connection points: 2
#     Edge 33, Type (0, 0), BuildingBlock: AJUNOK_clean_linker_0, # of connection points: 2
#     Edge 34, Type (0, 0), BuildingBlock: AJUNOK_clean_linker_0, # of connection points: 2
#     Edge 35, Type (0, 0), BuildingBlock: AJUNOK_clean_linker_0, # of connection points: 2
#     Edge 36, Type (0, 0), BuildingBlock: AJUNOK_clean_linker_0, # of connection points: 2
#     Edge 37, Type (0, 0), BuildingBlock: AJUNOK_clean_linker_0, # of connection points: 2
#     Edge 38, Type (0, 0), BuildingBlock: AJUNOK_clean_linker_0, # of connection points: 2
#     Edge 39, Type (0, 0), BuildingBlock: AJUNOK_clean_linker_0, # of connection points: 2
#     Edge 40, Type (0, 0), BuildingBlock: AJUNOK_clean_linker_0, # of connection points: 2
#     Edge 41, Type (0, 0), BuildingBlock: AJUNOK_clean_linker_0, # of connection points: 2
#     Edge 42, Type (0, 0), BuildingBlock: AJUNOK_clean_linker_0, # of connection points: 2
#     Edge 43, Type (0, 0), BuildingBlock: AJUNOK_clean_linker_0, # of connection points: 2
#     Edge 44, Type (0, 0), BuildingBlock: AJUNOK_clean_linker_0, # of connection points: 2
#     Edge 45, Type (0, 0), BuildingBlock: AJUNOK_clean_linker_0, # of connection points: 2
#     Edge 46, Type (0, 0), BuildingBlock: AJUNOK_clean_linker_0, # of connection points: 2
#     Edge 47, Type (0, 0), BuildingBlock: AJUNOK_clean_linker_0, # of connection points: 2
#     Edge 48, Type (0, 0), BuildingBlock: AJUNOK_clean_linker_0, # of connection points: 2
#     Edge 49, Type (0, 0), BuildingBlock: AJUNOK_clean_linker_0, # of connection points: 2
#     Edge 50, Type (0, 0), BuildingBlock: AJUNOK_clean_linker_0, # of connection points: 2
#     Edge 51, Type (0, 0), BuildingBlock: AJUNOK_clean_linker_0, # of connection points: 2
#     Edge 52, Type (0, 0), BuildingBlock: AJUNOK_clean_linker_0, # of connection points: 2
#     Edge 53, Type (0, 0), BuildingBlock: AJUNOK_clean_linker_0, # of connection points: 2
#     Edge 54, Type (0, 0), BuildingBlock: AJUNOK_clean_linker_0, # of connection points: 2
#     Edge 55, Type (0, 0), BuildingBlock: AJUNOK_clean_linker_0, # of connection points: 2
#     Edge 56, Type (0, 0), BuildingBlock: AJUNOK_clean_linker_0, # of connection points: 2
#     Edge 57, Type (0, 0), BuildingBlock: AJUNOK_clean_linker_0, # of connection points: 2
#     Edge 58, Type (0, 0), BuildingBlock: AJUNOK_clean_linker_0, # of connection points: 2
#     Edge 59, Type (0, 0), BuildingBlock: AJUNOK_clean_linker_0, # of connection points: 2
#     Edge 60, Type (0, 0), BuildingBlock: AJUNOK_clean_linker_0, # of connection points: 2
#     Edge 61, Type (0, 0), BuildingBlock: AJUNOK_clean_linker_0, # of connection points: 2
#     Edge 62, Type (0, 0), BuildingBlock: AJUNOK_clean_linker_0, # of connection points: 2
#     Edge 63, Type (0, 0), BuildingBlock: AJUNOK_clean_linker_0, # of connection points: 2
# Relax obj value: 0.289
# Max RMSD: 0.272
# Mean RMSD: 0.272
data_MOF--net-vbr--node1-IZENUY_clean_sbu_0--edge1-AJUNOK_clean_linker_0
_symmetry_space_group_name_H-M    P1
_symmetry_Int_Tables_number       1
_symmetry_cell_setting            triclinic
loop_
_symmetry_equiv_pos_as_xyz
'x, y, z'
_cell_length_a     32.08526
_cell_length_b     21.313306
_cell_length_c     39.84853
_cell_angle_alpha  89.885247
_cell_angle_beta   90.06301
_cell_angle_gamma 90.032444
loop_
_atom_site_label
_atom_site_type_symbol
_atom_site_fract_x
_atom_site_fract_y
_atom_site_fract_z
_atom_type_partial_charge
Fe0 Fe 0.37779 0.19675 0.11642 0.0
Fe1 Fe 0.37489 0.07357 0.1572 0.0
O2 O 0.34948 0.13977 0.13989 0.0
Fe3 Fe 0.29473 0.14901 0.14442 0.0
O4 O 0.28699 0.14404 0.09932 0.0
O5 O 0.33487 0.21502 0.0889 0.0
O6 O 0.39239 0.13972 0.08562 0.0
C7 C 0.40595 0.08499 0.08976 0.0
C8 C 0.32543 0.27496 0.14793 0.0
O9 O 0.40853 0.06117 0.11928 0.0
C10 C 0.31408 0.11256 0.20768 0.0
O11 O 0.42673 0.1876 0.13868 0.0
O12 O 0.41416 0.12038 0.17903 0.0
O13 O 0.29705 0.23456 0.14299 0.0
O14 O 0.36331 0.2594 0.1452 0.0
C15 C 0.30147 0.01623 0.14142 0.0
O16 O 0.34257 0.07518 0.19691 0.0
O17 O 0.29924 0.15477 0.18906 0.0
C18 C 0.43707 0.16177 0.16584 0.0
O19 O 0.33997 0.01944 0.13697 0.0
O20 O 0.28111 0.06525 0.14791 0.0
C21 C 0.3048 0.18156 0.07944 0.0
Fe22 Fe 0.24994 0.87337 0.64975 0.0
Fe23 Fe 0.16555 0.83055 0.62206 0.0
O24 O 0.1957 0.88802 0.64368 0.0
Fe25 Fe 0.17319 0.95946 0.65783 0.0
O26 O 0.21263 1.00782 0.6389 0.0
O27 O 0.26783 0.95558 0.65294 0.0
O28 O 0.25888 0.87442 0.60451 0.0
C29 C 0.2401 0.83629 0.58523 0.0
C30 C 0.22617 0.91271 0.71224 0.0
O31 O 0.20789 0.80757 0.59489 0.0
C32 C 0.10534 0.87968 0.66748 0.0
O33 O 0.24508 0.78773 0.6493 0.0
O34 O 0.17831 0.76935 0.65254 0.0
O35 O 0.20164 0.95454 0.69955 0.0
O36 O 0.24291 0.87088 0.6943 0.0
C37 C 0.14359 0.94235 0.58987 0.0
O38 O 0.1169 0.84448 0.64398 0.0
O39 O 0.12879 0.92237 0.67841 0.0
C40 C 0.21541 0.74973 0.6543 0.0
O41 O 0.15208 0.88486 0.58954 0.0
O42 O 0.14424 0.97345 0.61742 0.0
C43 C 0.25057 1.00676 0.64555 0.0
Fe44 Fe 0.36009 0.95164 0.89713 0.0
Fe45 Fe 0.28382 0.86597 0.9094 0.0
O46 O 0.33786 0.88275 0.91474 0.0
Fe47 Fe 0.36845 0.82968 0.93883 0.0
O48 O 0.38147 0.88886 0.96895 0.0
O49 O 0.39226 0.9698 0.93544 0.0
O50 O 0.32117 1.0024 0.91546 0.0
C51 C 0.28261 0.99868 0.91067 0.0
C52 C 0.42727 0.87072 0.8903 0.0
O53 O 0.26592 0.9469 0.90397 0.0
C54 C 0.32012 0.74387 0.90836 0.0
O55 O 0.3293 0.94385 0.8569 0.0
O56 O 0.29047 0.85871 0.86469 0.0
O57 O 0.4169 0.84203 0.91657 0.0
O58 O 0.40282 0.90966 0.87673 0.0
C59 C 0.29486 0.84117 0.97558 0.0
O60 O 0.28962 0.78047 0.91298 0.0
O61 O 0.35683 0.76462 0.91067 0.0
C62 C 0.30447 0.90137 0.8456 0.0
O63 O 0.27471 0.87334 0.95437 0.0
O64 O 0.32614 0.8095 0.96667 0.0
C65 C 0.3939 0.94415 0.96457 0.0
Fe66 Fe 0.1741 0.18388 0.43634 0.0
Fe67 Fe 0.18408 0.06791 0.39129 0.0
O68 O 0.20616 0.1354 0.41048 0.0
Fe69 Fe 0.26012 0.15248 0.40496 0.0
O70 O 0.26799 0.18386 0.44682 0.0
O71 O 0.20771 0.17307 0.47224 0.0
O72 O 0.14266 0.11935 0.45323 0.0
C73 C 0.15285 0.06248 0.45669 0.0
C74 C 0.22775 0.27281 0.40411 0.0
O75 O 0.17204 0.0347 0.43309 0.0
C76 C 0.23495 0.10959 0.34004 0.0
O77 O 0.137 0.19874 0.40262 0.0
O78 O 0.13137 0.10076 0.38712 0.0
O79 O 0.24898 0.23129 0.38907 0.0
O80 O 0.20027 0.25744 0.42529 0.0
C81 C 0.26535 0.02416 0.40691 0.0
O82 O 0.19748 0.09623 0.34854 0.0
O83 O 0.26172 0.12501 0.3618 0.0
C84 C 0.11642 0.15566 0.3886 0.0
O85 O 0.23122 0.02134 0.39148 0.0
O86 O 0.27703 0.075 0.42039 0.0
C87 C 0.2461 0.18479 0.47303 0.0
Fe88 Fe 0.67118 0.97256 0.89312 0.0
Fe89 Fe 0.66404 0.85474 0.93706 0.0
O90 O 0.69501 0.90591 0.91185 0.0
Fe91 Fe 0.74928 0.89302 0.90618 0.0
O92 O 0.76359 0.97153 0.92187 0.0
O93 O 0.7171 0.02093 0.89176 0.0
O94 O 0.66073 1.00453 0.93536 0.0
C95 C 0.64375 0.97436 0.95931 0.0
C96 C 0.72104 0.93193 0.84143 0.0
O97 O 0.6325 0.91814 0.95475 0.0
C98 C 0.71979 0.77093 0.90439 0.0
O99 O 0.61892 0.9389 0.89012 0.0
O100 O 0.62699 0.84035 0.90314 0.0
O101 O 0.74927 0.92109 0.8629 0.0
O102 O 0.68352 0.9438 0.85039 0.0
C103 C 0.73646 0.85287 0.97372 0.0
O104 O 0.69101 0.78315 0.92487 0.0
O105 O 0.74039 0.81414 0.89008 0.0
C106 C 0.60589 0.88315 0.88933 0.0
O107 O 0.69788 0.86357 0.97305 0.0
O108 O 0.75868 0.86078 0.94797 0.0
C109 C 0.75052 0.02132 0.90798 0.0
Fe110 Fe 0.87932 0.17826 0.43853 0.0
Fe111 Fe 0.79241 0.14655 0.4089 0.0
O112 O 0.84655 0.13015 0.41313 0.0
Fe113 Fe 0.86819 0.06378 0.39288 0.0
O114 O 0.88082 0.02904 0.43418 0.0
O115 O 0.91103 0.1129 0.45434 0.0
O116 O 0.84711 0.16666 0.47497 0.0
C117 C 0.80926 0.18084 0.47645 0.0
C118 C 0.93566 0.15186 0.3898 0.0
O119 O 0.78618 0.17862 0.45087 0.0
C120 C 0.81556 0.10733 0.34335 0.0
O121 O 0.85271 0.25182 0.42794 0.0
O122 O 0.80312 0.22497 0.39251 0.0
O123 O 0.92103 0.09672 0.38834 0.0
O124 O 0.91506 0.1942 0.40422 0.0
C125 C 0.78767 0.01854 0.40989 0.0
O126 O 0.78911 0.1193 0.36585 0.0
O127 O 0.8535 0.0945 0.35082 0.0
C128 C 0.8252 0.26671 0.40658 0.0
O129 O 0.77642 0.06855 0.42454 0.0
O130 O 0.82103 0.01735 0.39337 0.0
C131 C 0.8996 0.05654 0.4581 0.0
Fe132 Fe 0.68172 0.0772 0.16203 0.0
Fe133 Fe 0.66952 0.19535 0.11873 0.0
O134 O 0.70322 0.14514 0.14247 0.0
Fe135 Fe 0.75759 0.16019 0.14578 0.0
O136 O 0.77266 0.08157 0.13081 0.0
O137 O 0.72797 0.03021 0.16159 0.0
O138 O 0.66881 0.04537 0.1199 0.0
C139 C 0.64968 0.07552 0.09692 0.0
C140 C 0.7346 0.12119 0.2118 0.0
O141 O 0.63769 0.13083 0.10272 0.0
C142 C 0.72592 0.28179 0.14829 0.0
O143 O 0.62926 0.10897 0.16742 0.0
O144 O 0.63495 0.20781 0.15439 0.0
O145 O 0.76051 0.13491 0.18907 0.0
O146 O 0.697 0.10529 0.20449 0.0
C147 C 0.73974 0.19662 0.07862 0.0
O148 O 0.69569 0.26796 0.12962 0.0
O149 O 0.74923 0.24 0.16096 0.0
C150 C 0.61503 0.16405 0.16841 0.0
O151 O 0.70083 0.18909 0.08093 0.0
O152 O 0.76341 0.18929 0.1035 0.0
C153 C 0.7613 0.03182 0.14553 0.0
Fe154 Fe 0.86868 0.82142 0.62185 0.0
Fe155 Fe 0.78356 0.85829 0.6504 0.0
O156 O 0.83711 0.87637 0.64372 0.0
Fe157 Fe 0.85801 0.94897 0.65755 0.0
O158 O 0.88973 0.96177 0.61856 0.0
O159 O 0.87833 0.87666 0.58848 0.0
O160 O 0.82652 0.79176 0.59626 0.0
C161 C 0.7935 0.81807 0.5867 0.0
C162 C 0.9269 0.87402 0.6679 0.0
O163 O 0.77379 0.85536 0.60547 0.0
C164 C 0.80253 0.90702 0.71134 0.0
O165 O 0.85985 0.76065 0.65335 0.0
O166 O 0.79194 0.77351 0.65244 0.0
O167 O 0.90138 0.91272 0.68013 0.0
O168 O 0.91735 0.84178 0.64257 0.0
C169 C 0.78002 0.99076 0.64221 0.0
O170 O 0.79034 0.8598 0.69506 0.0
O171 O 0.82737 0.94724 0.69795 0.0
C172 C 0.82351 0.73984 0.6588 0.0
O173 O 0.76396 0.9395 0.65115 0.0
O174 O 0.81829 0.99399 0.63628 0.0
C175 C 0.88926 0.93334 0.59025 0.0
Fe176 Fe 0.8804 0.69438 0.11683 0.0
Fe177 Fe 0.86949 0.5749 0.15908 0.0
O178 O 0.84786 0.64431 0.14152 0.0
Fe179 Fe 0.79414 0.66156 0.14748 0.0
O180 O 0.78677 0.69631 0.10628 0.0
O181 O 0.8468 0.68786 0.08016 0.0
O182 O 0.91195 0.63104 0.09969 0.0
C183 C 0.89996 0.57602 0.09362 0.0
C184 C 0.82768 0.78091 0.15017 0.0
O185 O 0.88092 0.5455 0.11635 0.0
C186 C 0.8194 0.61302 0.21135 0.0
O187 O 0.91675 0.7062 0.15147 0.0
O188 O 0.92198 0.60664 0.16413 0.0
O189 O 0.80597 0.73933 0.16498 0.0
O190 O 0.85466 0.76627 0.12872 0.0
C191 C 0.79023 0.533 0.14019 0.0
O192 O 0.8566 0.59971 0.20235 0.0
O193 O 0.79228 0.63006 0.19012 0.0
C194 C 0.93609 0.66187 0.16565 0.0
O195 O 0.8224 0.52915 0.15787 0.0
O196 O 0.77709 0.58566 0.12991 0.0
C197 C 0.80825 0.69993 0.07987 0.0
Fe198 Fe 0.67275 0.32261 0.61801 0.0
Fe199 Fe 0.68005 0.44766 0.65663 0.0
O200 O 0.70229 0.37628 0.64255 0.0
Fe201 Fe 0.75502 0.35816 0.65224 0.0
O202 O 0.76925 0.3577 0.60832 0.0
O203 O 0.71736 0.29543 0.59407 0.0
O204 O 0.66526 0.37981 0.5853 0.0
C205 C 0.65222 0.43517 0.58806 0.0
C206 C 0.71489 0.2392 0.65625 0.0
O207 O 0.65005 0.46149 0.61688 0.0
C208 C 0.7319 0.40459 0.71226 0.0
O209 O 0.62235 0.34127 0.63688 0.0
O210 O 0.63614 0.40853 0.677 0.0
O211 O 0.74685 0.2733 0.65239 0.0
O212 O 0.67917 0.25975 0.64861 0.0
C213 C 0.75861 0.49074 0.64484 0.0
O214 O 0.70863 0.44588 0.69807 0.0
O215 O 0.74371 0.35702 0.69625 0.0
C216 C 0.61128 0.37103 0.66277 0.0
O217 O 0.72065 0.49416 0.63745 0.0
O218 O 0.77399 0.43965 0.65491 0.0
C219 C 0.75169 0.32167 0.58763 0.0
Fe220 Fe 0.87825 0.35771 0.93545 0.0
Fe221 Fe 0.86775 0.47421 0.89119 0.0
O222 O 0.84558 0.40735 0.9109 0.0
Fe223 Fe 0.7912 0.39277 0.9069 0.0
O224 O 0.78451 0.36049 0.94878 0.0
O225 O 0.84616 0.36679 0.97246 0.0
O226 O 0.91049 0.42165 0.95142 0.0
C227 C 0.89937 0.4777 0.95613 0.0
C228 C 0.82223 0.27148 0.90488 0.0
O229 O 0.88034 0.50712 0.93291 0.0
C230 C 0.81578 0.43183 0.84136 0.0
O231 O 0.91344 0.34333 0.9004 0.0
O232 O 0.92012 0.44176 0.88665 0.0
O233 O 0.80022 0.31344 0.89063 0.0
O234 O 0.85133 0.28586 0.92463 0.0
C235 C 0.79074 0.52164 0.91109 0.0
O236 O 0.85356 0.4444 0.84915 0.0
O237 O 0.78857 0.42118 0.86366 0.0
C238 C 0.93385 0.38639 0.88617 0.0
O239 O 0.82108 0.52102 0.89139 0.0
O240 O 0.77709 0.47086 0.92348 0.0
C241 C 0.80778 0.35473 0.97409 0.0
Fe242 Fe 0.66895 0.68807 0.43323 0.0
Fe243 Fe 0.68076 0.56473 0.3939 0.0
O244 O 0.70146 0.63536 0.41061 0.0
Fe245 Fe 0.75536 0.65328 0.40636 0.0
O246 O 0.76277 0.65261 0.45165 0.0
O247 O 0.70979 0.71544 0.46066 0.0
O248 O 0.65856 0.62985 0.46455 0.0
C249 C 0.64805 0.5735 0.4609 0.0
C250 C 0.71521 0.77316 0.40015 0.0
O251 O 0.64719 0.54869 0.4316 0.0
C252 C 0.73917 0.6109 0.34323 0.0
O253 O 0.62129 0.66966 0.41071 0.0
O254 O 0.63925 0.60436 0.37091 0.0
O255 O 0.74689 0.73894 0.40587 0.0
O256 O 0.67877 0.7517 0.40393 0.0
C257 C 0.75703 0.51935 0.41132 0.0
O258 O 0.71348 0.56958 0.35453 0.0
O259 O 0.75133 0.65549 0.36151 0.0
C260 C 0.61358 0.64234 0.38343 0.0
O261 O 0.71844 0.51678 0.41513 0.0
O262 O 0.77456 0.5711 0.40472 0.0
C263 C 0.74229 0.68843 0.47068 0.0
Fe264 Fe 0.18101 0.45252 0.90164 0.0
Fe265 Fe 0.1718 0.3243 0.93643 0.0
O266 O 0.20246 0.3793 0.91373 0.0
Fe267 Fe 0.25527 0.36094 0.90443 0.0
O268 O 0.27531 0.44187 0.90528 0.0
O269 O 0.2215 0.49534 0.92291 0.0
O270 O 0.15049 0.46284 0.94138 0.0
C271 C 0.15443 0.43525 0.96977 0.0
C272 C 0.23371 0.4155 0.84578 0.0
O273 O 0.16571 0.37861 0.97093 0.0
C274 C 0.21332 0.2439 0.89612 0.0
O275 O 0.13738 0.41627 0.87937 0.0
O276 O 0.12222 0.34712 0.91818 0.0
O277 O 0.24588 0.36641 0.86028 0.0
O278 O 0.21017 0.45507 0.86075 0.0
C279 C 0.2491 0.31566 0.96753 0.0
O280 O 0.17762 0.2648 0.9039 0.0
O281 O 0.24564 0.27689 0.90082 0.0
C282 C 0.11233 0.37726 0.89216 0.0
O283 O 0.2149 0.29171 0.95935 0.0
O284 O 0.2681 0.35365 0.94866 0.0
C285 C 0.25986 0.49129 0.91725 0.0
Fe286 Fe 0.29719 0.65948 0.41152 0.0
Fe287 Fe 0.3714 0.56943 0.40095 0.0
O288 O 0.3513 0.64214 0.41524 0.0
Fe289 Fe 0.38454 0.6975 0.43521 0.0
O290 O 0.34471 0.72851 0.46236 0.0
O291 O 0.29161 0.6645 0.45706 0.0
O292 O 0.27778 0.57694 0.41238 0.0
C293 C 0.29564 0.52568 0.41957 0.0
C294 C 0.33703 0.77842 0.40031 0.0
O295 O 0.33401 0.52512 0.42462 0.0
C296 C 0.43848 0.64513 0.38635 0.0
O297 O 0.29965 0.65626 0.3666 0.0
O298 O 0.33805 0.57007 0.36195 0.0
O299 O 0.37359 0.75715 0.40379 0.0
O300 O 0.3056 0.74504 0.40808 0.0
C301 C 0.40579 0.58641 0.46678 0.0
O302 O 0.41254 0.60535 0.37593 0.0
O303 O 0.43149 0.67628 0.41254 0.0
C304 C 0.31199 0.60985 0.34976 0.0
O305 O 0.40564 0.55769 0.43857 0.0
O306 O 0.39586 0.64333 0.46843 0.0
C307 C 0.31234 0.70383 0.47416 0.0
Fe308 Fe 0.18192 0.56759 0.16676 0.0
Fe309 Fe 0.17056 0.68491 0.12307 0.0
O310 O 0.20299 0.6355 0.14773 0.0
Fe311 Fe 0.25677 0.65259 0.15263 0.0
O312 O 0.27253 0.57862 0.13316 0.0
O313 O 0.22984 0.52275 0.16442 0.0
O314 O 0.16913 0.53528 0.12528 0.0
C315 C 0.15053 0.56322 0.10147 0.0
C316 C 0.23422 0.60612 0.21711 0.0
O317 O 0.13942 0.61996 0.10527 0.0
C318 C 0.22478 0.77029 0.15761 0.0
O319 O 0.129 0.59972 0.17206 0.0
O320 O 0.13478 0.69813 0.15729 0.0
O321 O 0.26083 0.61823 0.19458 0.0
O322 O 0.19627 0.59537 0.20923 0.0
C323 C 0.23982 0.69652 0.08641 0.0
O324 O 0.19731 0.75791 0.13564 0.0
O325 O 0.24439 0.72677 0.17237 0.0
C326 C 0.11457 0.65505 0.17141 0.0
O327 O 0.20335 0.67593 0.087 0.0
O328 O 0.26276 0.69216 0.11206 0.0
C329 C 0.26051 0.52634 0.14473 0.0
Fe330 Fe 0.3616 0.46424 0.6625 0.0
Fe331 Fe 0.37411 0.34336 0.6216 0.0
O332 O 0.34111 0.39365 0.64539 0.0
Fe333 Fe 0.28759 0.37445 0.65141 0.0
O334 O 0.26956 0.44751 0.63203 0.0
O335 O 0.31317 0.5085 0.65941 0.0
O336 O 0.37423 0.49322 0.62024 0.0
C337 C 0.39422 0.46378 0.59777 0.0
C338 C 0.31091 0.42678 0.71441 0.0
O339 O 0.40429 0.40702 0.60226 0.0
C340 C 0.32202 0.25691 0.65749 0.0
O341 O 0.41501 0.43427 0.66843 0.0
O342 O 0.41098 0.3346 0.65593 0.0
O343 O 0.28442 0.40921 0.69293 0.0
O344 O 0.34819 0.44013 0.70577 0.0
C345 C 0.30292 0.33178 0.58514 0.0
O346 O 0.34906 0.27041 0.63553 0.0
O347 O 0.30062 0.29973 0.67121 0.0
C348 C 0.43083 0.37984 0.6686 0.0
O349 O 0.34061 0.34776 0.58527 0.0
O350 O 0.28097 0.33545 0.61124 0.0
C351 C 0.28048 0.50115 0.64229 0.0
C352 C 0.26279 0.26341 0.0547 0.0
C353 C 0.28318 0.20575 0.05053 0.0
C354 C 0.25599 0.30303 1.02751 0.0
C355 C 0.26924 0.28569 0.99545 0.0
H356 H 0.25387 0.27919 0.07942 0.0
H357 H 0.23918 0.34652 0.03137 0.0
S358 S 0.31915 0.13618 0.97086 0.0
N359 N 0.31436 0.13133 1.01208 0.0
N360 N 0.29943 0.20491 0.96003 0.0
C361 C 0.2881 0.22706 0.99065 0.0
C362 C 0.29546 0.18704 1.01848 0.0
C363 C 0.25142 0.73958 0.50723 0.0
C364 C 0.29463 0.73508 0.50361 0.0
C365 C 0.23433 0.77674 0.53241 0.0
C366 C 0.25976 0.81027 0.55511 0.0
H367 H 0.23064 0.71538 0.49015 0.0
H368 H 0.2007 0.77778 0.53468 0.0
S369 S 0.375 0.81483 0.55575 0.0
N370 N 0.36289 0.76792 0.52431 0.0
N371 N 0.33018 0.83753 0.57193 0.0
C372 C 0.303 0.80714 0.55142 0.0
C373 C 0.32055 0.7692 0.52576 0.0
C374 C 0.29286 0.76268 0.05825 0.0
C375 C 0.25147 0.74174 0.06005 0.0
C376 C 0.3054 0.80344 0.03292 0.0
C377 C 0.27724 0.82382 1.00812 0.0
H378 H 0.31622 0.74555 0.07565 0.0
H379 H 0.33825 0.81461 0.03097 0.0
S380 S 0.16351 0.7959 1.00641 0.0
N381 N 0.18043 0.75521 0.039 0.0
N382 N 0.20509 0.82989 0.99014 0.0
C383 C 0.23496 0.80946 1.01174 0.0
C384 C 0.22185 0.76836 0.03792 0.0
C385 C 0.30465 0.30295 0.52486 0.0
C386 C 0.28739 0.29444 0.55687 0.0
C387 C 0.29253 0.26486 0.49814 0.0
C388 C 0.26291 0.21679 0.50261 0.0
H389 H 0.32736 0.33965 0.52035 0.0
H390 H 0.30549 0.27469 0.47358 0.0
S391 S 0.21209 0.17049 0.58227 0.0
N392 N 0.24155 0.2312 0.59221 0.0
N393 N 0.21901 0.1596 0.54167 0.0
C394 C 0.2464 0.20647 0.53465 0.0
C395 C 0.25853 0.24538 0.56188 0.0
C396 C 0.7976 0.80651 1.00405 0.0
C397 C 0.75423 0.81653 1.00213 0.0
C398 C 0.81488 0.76598 0.02807 0.0
C399 C 0.78947 0.73342 0.05097 0.0
H400 H 0.81848 0.83006 0.98679 0.0
H401 H 0.84848 0.76169 0.02927 0.0
S402 S 0.67382 0.73919 0.05511 0.0
N403 N 0.68616 0.78807 1.02457 0.0
N404 N 0.71853 0.71129 0.06908 0.0
C405 C 0.74599 0.74176 0.0488 0.0
C406 C 0.72845 0.78357 1.02468 0.0
C407 C 0.79792 0.24125 0.56468 0.0
C408 C 0.77462 0.29621 0.55964 0.0
C409 C 0.80882 0.20327 0.53754 0.0
C410 C 0.79577 0.21874 0.50494 0.0
H411 H 0.80567 0.22584 0.58987 0.0
H412 H 0.82628 0.16062 0.54212 0.0
S413 S 0.73731 0.36135 0.47912 0.0
N414 N 0.74118 0.3668 0.52032 0.0
N415 N 0.76113 0.29545 0.46895 0.0
C416 C 0.77363 0.27496 0.49967 0.0
C417 C 0.7632 0.31381 0.52721 0.0
C418 C 0.73136 0.26905 0.02992 0.0
C419 C 0.75727 0.2303 0.04944 0.0
C420 C 0.74818 0.31156 1.00681 0.0
C421 C 0.79156 0.31729 1.00244 0.0
H422 H 0.69787 0.26829 0.03327 0.0
H423 H 0.72693 0.34007 0.99215 0.0
S424 S 0.87291 0.22345 0.04591 0.0
N425 N 0.82847 0.19779 0.06158 0.0
N426 N 0.86008 0.2785 1.01864 0.0
C427 C 0.81784 0.27821 1.0215 0.0
C428 C 0.8007 0.23429 0.04468 0.0
C429 C 0.74925 0.69464 0.53171 0.0
C430 C 0.76123 0.71632 0.49995 0.0
C431 C 0.75647 0.73126 0.56015 0.0
C432 C 0.77447 0.79113 0.55721 0.0
H433 H 0.73345 0.64995 0.53442 0.0
H434 H 0.74903 0.71211 0.58465 0.0
S435 S 0.80925 0.86955 0.47935 0.0
N436 N 0.79084 0.80111 0.46685 0.0
N437 N 0.80371 0.87063 0.52056 0.0
C438 C 0.78589 0.81355 0.52559 0.0
C439 C 0.77939 0.77588 0.4968 0.0
C440 C 0.4089 0.04515 0.99611 0.0
C441 C 0.40723 0.97931 0.99566 0.0
C442 C 0.41212 0.07852 1.02657 0.0
C443 C 0.41383 0.04787 0.05821 0.0
H444 H 0.4053 0.07134 0.97298 0.0
H445 H 0.41086 0.12926 1.02524 0.0
S446 S 0.41909 0.87568 0.07066 0.0
N447 N 0.4145 0.88445 0.02966 0.0
N448 N 0.41938 0.94728 0.08634 0.0
C449 C 0.41603 0.98211 0.05788 0.0
C450 C 0.41301 0.94799 1.02686 0.0
C451 C 0.13741 0.03857 0.55171 0.0
C452 C 0.13794 0.9729 0.55575 0.0
C453 C 0.14 0.06674 0.51954 0.0
C454 C 0.14429 0.03081 0.48984 0.0
H455 H 0.1366 0.0686 0.57359 0.0
H456 H 0.14053 0.11748 0.51814 0.0
S457 S 0.1418 0.85728 0.48537 0.0
N458 N 0.13791 0.87276 0.5258 0.0
N459 N 0.145 0.92608 0.46654 0.0
C460 C 0.14286 0.9654 0.4933 0.0
C461 C 0.1391 0.93655 0.52579 0.0
C462 C 0.64441 0.96123 1.02243 0.0
C463 C 0.6409 1.00117 0.99411 0.0
C464 C 0.64662 0.9849 0.05548 0.0
C465 C 0.64378 0.04961 0.062 0.0
H466 H 0.64695 0.91102 1.01906 0.0
H467 H 0.65089 0.95218 0.07603 0.0
S468 S 0.63069 0.17417 0.99689 0.0
N469 N 0.63336 0.10852 0.97512 0.0
N470 N 0.63449 0.15313 0.03666 0.0
C471 C 0.63822 0.08984 0.03388 0.0
C472 C 0.63756 0.06574 1.00022 0.0
C473 C 0.89751 0.93125 0.52714 0.0
C474 C 0.8992 0.96586 0.55745 0.0
C475 C 0.89963 0.96026 0.49537 0.0
C476 C 0.90446 0.02549 0.49197 0.0
H477 H 0.89284 0.88092 0.52772 0.0
H478 H 0.89639 0.9313 0.47323 0.0
S479 S 0.91707 0.13757 0.56295 0.0
N480 N 0.91007 0.06908 0.58155 0.0
N481 N 0.91557 0.12347 0.52223 0.0
C482 C 0.90939 0.06039 0.52201 0.0
C483 C 0.90644 0.03079 0.5545 0.0
C484 C 0.90236 0.48662 0.05193 0.0
C485 C 0.90497 0.55117 0.0586 0.0
C486 C 0.90253 0.46364 1.01882 0.0
C487 C 0.90428 0.50421 0.99069 0.0
H488 H 0.90001 0.45351 0.07243 0.0
H489 H 0.89995 0.41344 1.01536 0.0
S490 S 0.91685 0.67674 0.99404 0.0
N491 N 0.91399 0.65513 0.03377 0.0
N492 N 0.91258 0.61159 0.97196 0.0
C493 C 0.90858 0.56855 0.99693 0.0
C494 C 0.90947 0.59201 0.03067 0.0
C495 C 0.64406 0.56828 0.52412 0.0
C496 C 0.64043 0.53704 0.49281 0.0
C497 C 0.64508 0.5357 0.55489 0.0
C498 C 0.6424 0.47001 0.55612 0.0
H499 H 0.64818 0.61869 0.52505 0.0
H500 H 0.65029 0.56214 0.5777 0.0
S501 S 0.62469 0.36579 0.48248 0.0
N502 N 0.62892 0.43654 0.46585 0.0
N503 N 0.63015 0.3752 0.52338 0.0
C504 C 0.63555 0.43834 0.52531 0.0
C505 C 0.63468 0.4717 0.49386 0.0
C506 C 0.15416 0.46634 0.06482 0.0
C507 C 0.14502 0.53075 0.06794 0.0
C508 C 0.15518 0.43621 0.03335 0.0
C509 C 0.14757 0.4686 1.0029 0.0
H510 H 0.16169 0.43889 0.08688 0.0
H511 H 0.16335 0.38689 0.03304 0.0
S512 S 0.11959 0.63719 0.99662 0.0
N513 N 0.12586 0.62542 0.03729 0.0
N514 N 0.1285 0.56897 0.97845 0.0
C515 C 0.13699 0.53261 1.00561 0.0
C516 C 0.13555 0.56339 0.03788 0.0
C517 C 0.40189 0.45913 0.53471 0.0
C518 C 0.4041 0.49413 0.56478 0.0
C519 C 0.40555 0.48802 0.50287 0.0
C520 C 0.41234 0.55308 0.49973 0.0
H521 H 0.39503 0.40939 0.53568 0.0
H522 H 0.40073 0.4597 0.48066 0.0
S523 S 0.42826 0.66352 0.57105 0.0
N524 N 0.41807 0.59574 0.58935 0.0
N525 N 0.42689 0.64981 0.5303 0.0
C526 C 0.41791 0.58747 0.52986 0.0
C527 C 0.41321 0.55822 0.56209 0.0
C528 C 0.31417 0.08543 0.26961 0.0
C529 C 0.29236 0.10308 0.24063 0.0
C530 C 0.2944 0.08481 0.30119 0.0
C531 C 0.25176 0.101 0.30525 0.0
H532 H 0.34713 0.07479 0.26818 0.0
H533 H 0.3132 0.07303 0.3229 0.0
S534 S 0.17906 0.1413 0.23642 0.0
N535 N 0.22423 0.13034 0.21748 0.0
N536 N 0.18773 0.12892 0.27675 0.0
C537 C 0.22894 0.11443 0.27619 0.0
C538 C 0.24907 0.11567 0.24401 0.0
C539 C 0.27969 0.96317 0.79419 0.0
C540 C 0.28547 0.9053 0.81104 0.0
C541 C 0.25762 0.96699 0.7633 0.0
C542 C 0.24031 0.91312 0.74812 0.0
H543 H 0.29197 1.00591 0.80505 0.0
H544 H 0.25547 1.0119 0.75065 0.0
S545 S 0.24615 0.75058 0.78159 0.0
N546 N 0.27159 0.79306 0.80948 0.0
N547 N 0.23024 0.80058 0.75266 0.0
C548 C 0.24545 0.8555 0.765 0.0
C549 C 0.26791 0.85149 0.79599 0.0
C550 C 0.74322 0.88603 0.75145 0.0
C551 C 0.78048 0.91927 0.74395 0.0
C552 C 0.72141 0.89455 0.78177 0.0
C553 C 0.73585 0.9366 0.80611 0.0
H554 H 0.73087 0.85197 0.73393 0.0
H555 H 0.6945 0.86539 0.78695 0.0
S556 S 0.82949 0.0386 0.79886 0.0
N557 N 0.82887 0.99899 0.76327 0.0
N558 N 0.78849 0.01428 0.82029 0.0
C559 C 0.77196 0.97198 0.79854 0.0
C560 C 0.79403 0.96365 0.76755 0.0
C561 C 0.79271 0.14571 0.25214 0.0
C562 C 0.75331 0.11701 0.24629 0.0
C563 C 0.81456 0.13862 0.28254 0.0
C564 C 0.79796 0.10294 0.30879 0.0
H565 H 0.80707 0.17456 0.23296 0.0
H566 H 0.84371 0.16348 0.28599 0.0
S567 S 0.69735 0.01581 0.30697 0.0
N568 N 0.69994 0.04923 0.26959 0.0
N569 N 0.74006 0.03734 0.32706 0.0
C570 C 0.75889 0.07348 0.30339 0.0
C571 C 0.73678 0.08025 0.27224 0.0
C572 C 0.79874 0.63758 0.30431 0.0
C573 C 0.76083 0.60464 0.30987 0.0
C574 C 0.81971 0.63624 0.27325 0.0
C575 C 0.80369 0.60218 0.24613 0.0
H576 H 0.81228 0.66591 0.32405 0.0
H577 H 0.84741 0.66467 0.26999 0.0
S578 S 0.70797 0.50374 0.24723 0.0
N579 N 0.71024 0.5333 0.2855 0.0
N580 N 0.74898 0.53167 0.2271 0.0
C581 C 0.76686 0.56704 0.25153 0.0
C582 C 0.74571 0.56786 0.28331 0.0
C583 C 0.81304 0.39119 0.78255 0.0
C584 C 0.79979 0.43498 0.80638 0.0
C585 C 0.79067 0.38216 0.75257 0.0
C586 C 0.75406 0.41678 0.74484 0.0
H587 H 0.83954 0.36128 0.78789 0.0
H588 H 0.80219 0.34681 0.73544 0.0
S589 S 0.70817 0.5406 0.79851 0.0
N590 N 0.74887 0.51534 0.82007 0.0
N591 N 0.70756 0.49957 0.76337 0.0
C592 C 0.74163 0.46274 0.76796 0.0
C593 C 0.7642 0.47138 0.79874 0.0
C594 C 0.2321 0.4469 0.78495 0.0
C595 C 0.2549 0.4307 0.81361 0.0
C596 C 0.25145 0.44903 0.75333 0.0
C597 C 0.29448 0.43598 0.74908 0.0
H598 H 0.19875 0.45423 0.78661 0.0
H599 H 0.23197 0.45849 0.73175 0.0
S600 S 0.36904 0.40061 0.81742 0.0
N601 N 0.32369 0.4081 0.83659 0.0
N602 N 0.35976 0.41296 0.77715 0.0
C603 C 0.31816 0.42462 0.77797 0.0
C604 C 0.2984 0.42165 0.81017 0.0
C605 C 0.2936 0.58204 0.25636 0.0
C606 C 0.25101 0.59804 0.25195 0.0
C607 C 0.31288 0.58228 0.28815 0.0
C608 C 0.29058 0.5995 0.3169 0.0
H609 H 0.31272 0.57065 0.23483 0.0
H610 H 0.34586 0.57192 0.28993 0.0
S611 S 0.1775 0.63811 0.32014 0.0
N612 N 0.18658 0.6258 0.2799 0.0
N613 N 0.22246 0.62701 0.3395 0.0
C614 C 0.24748 0.61228 0.31317 0.0
C615 C 0.22778 0.61124 0.28082 0.0
C616 C 0.50365 0.11938 0.18953 0.0
C617 C 0.48086 0.17067 0.1771 0.0
C618 C 0.54743 0.12014 0.1897 0.0
C619 C 0.57016 0.17217 0.17742 0.0
H620 H 0.48784 0.07629 0.19636 0.0
H621 H 0.56345 0.07763 0.1972 0.0
S622 S 0.52455 0.32416 0.15038 0.0
N623 N 0.48381 0.2792 0.15837 0.0
N624 N 0.56592 0.28073 0.15865 0.0
C625 C 0.54756 0.22649 0.16887 0.0
C626 C 0.50297 0.22564 0.16867 0.0
C627 C 0.03866 0.81974 0.67214 0.0
C628 C 0.06084 0.87564 0.67815 0.0
C629 C 0.99499 0.81836 0.67236 0.0
C630 C 0.97139 0.87278 0.67863 0.0
H631 H 0.0551 0.77747 0.66493 0.0
H632 H 0.97956 0.77514 0.66524 0.0
S633 S 1.01406 0.02902 0.70104 0.0
N634 N 0.05576 0.98517 0.69476 0.0
N635 N 0.97355 0.98245 0.69513 0.0
C636 C 0.99304 0.92749 0.68804 0.0
C637 C 0.03778 0.92895 0.6878 0.0
C638 C 0.54011 0.81957 0.89322 0.0
C639 C 0.56126 0.87223 0.88044 0.0
C640 C 0.49641 0.81667 0.89309 0.0
C641 C 0.47191 0.86618 0.88015 0.0
H642 H 0.55714 0.7824 0.90573 0.0
H643 H 0.4817 0.7771 0.90543 0.0
S644 S 0.51231 1.00773 0.83669 0.0
N645 N 0.55453 0.9698 0.84896 0.0
N646 N 0.47249 0.96448 0.84913 0.0
C647 C 0.49273 0.91564 0.86385 0.0
C648 C 0.53733 0.91865 0.86396 0.0
C649 C 1.0043 0.11258 0.36808 0.0
C650 C 0.98099 0.16178 0.38233 0.0
C651 C 0.04804 0.11365 0.36771 0.0
C652 C 0.07081 0.1639 0.38163 0.0
H653 H 0.98876 0.071 0.35873 0.0
H654 H 0.0641 0.07278 0.35808 0.0
S655 S 0.02497 0.31001 0.41645 0.0
N656 N 0.9842 0.26659 0.40645 0.0
N657 N 0.06629 0.26841 0.40586 0.0
C658 C 0.04795 0.21614 0.39311 0.0
C659 C 1.00318 0.2151 0.39344 0.0
C660 C 1.00471 0.71796 0.16155 0.0
C661 C 0.98043 0.66981 0.17577 0.0
C662 C 0.04843 0.71592 0.16294 0.0
C663 C 0.06955 0.66552 0.17848 0.0
H664 H 0.99012 0.75489 0.14699 0.0
H665 H 0.06563 0.75169 0.14945 0.0
S666 S 1.02016 0.53635 0.22666 0.0
N667 N 0.98058 0.57684 0.21135 0.0
N668 N 0.06259 0.57277 0.2136 0.0
C669 C 0.04555 0.62099 0.19593 0.0
C670 C 1.00107 0.62322 0.19468 0.0
C671 C 0.54157 0.31782 0.66138 0.0
C672 C 0.56624 0.3686 0.67232 0.0
C673 C 0.49785 0.3196 0.66297 0.0
C674 C 0.47658 0.37266 0.67523 0.0
H675 H 0.55609 0.27734 0.64986 0.0
H676 H 0.48069 0.28054 0.65243 0.0
S677 S 0.52649 0.51423 0.71195 0.0
N678 N 0.56607 0.47041 0.69972 0.0
N679 N 0.48403 0.4741 0.70255 0.0
C680 C 0.50093 0.42165 0.68882 0.0
C681 C 0.54562 0.41955 0.68744 0.0
C682 C 0.0435 0.32254 0.89247 0.0
C683 C 0.068 0.37344 0.88126 0.0
C684 C 0.99987 0.32417 0.89095 0.0
C685 C 0.97881 0.37692 0.87821 0.0
H686 H 0.05802 0.28257 0.90459 0.0
H687 H 0.98268 0.28579 0.90221 0.0
S688 S 0.02844 0.51616 0.83848 0.0
N689 N 0.06805 0.47336 0.85179 0.0
N690 N 0.98604 0.47641 0.84852 0.0
C691 C 1.00301 0.42494 0.86337 0.0
C692 C 0.04759 0.42322 0.86496 0.0
C693 C 0.50328 0.59157 0.3662 0.0
C694 C 0.48139 0.6475 0.37271 0.0
C695 C 0.54718 0.59091 0.36532 0.0
C696 C 0.57024 0.64617 0.37091 0.0
H697 H 0.48678 0.54725 0.36525 0.0
H698 H 0.56299 0.5461 0.3638 0.0
S699 S 0.5273 0.80638 0.38094 0.0
N700 N 0.48581 0.76071 0.37861 0.0
N701 N 0.56791 0.75937 0.37709 0.0
C702 C 0.54848 0.70313 0.37325 0.0
C703 C 0.5041 0.70383 0.37412 0.0
C704 C 0.23822 0.9467 0.14733 0.0
C705 C 0.28185 0.95323 0.14482 0.0
C706 C 0.21966 0.88762 0.15255 0.0
C707 C 0.24411 0.83333 0.15653 0.0
H708 H 0.21822 0.98741 0.14502 0.0
H709 H 0.18599 0.88432 0.15336 0.0
S710 S 0.35949 0.82396 0.15092 0.0
N711 N 0.34877 0.89897 0.14568 0.0
N712 N 0.31403 0.78937 0.15632 0.0
C713 C 0.28767 0.83922 0.15417 0.0
C714 C 0.30648 0.89871 0.14808 0.0
C715 C 0.24907 0.11761 0.66544 0.0
C716 C 0.27186 0.06785 0.65117 0.0
C717 C 0.26671 0.1772 0.66997 0.0
C718 C 0.30782 0.19025 0.65986 0.0
H719 H 0.21688 0.11076 0.6728 0.0
H720 H 0.24702 0.21411 0.67979 0.0
S721 S 0.38199 0.07457 0.62377 0.0
N722 N 0.33867 0.03398 0.6294 0.0
N723 N 0.3719 0.14641 0.63697 0.0
C724 C 0.33164 0.13999 0.64692 0.0
C725 C 0.31369 0.07879 0.64283 0.0
C726 C 0.25662 0.15742 0.87459 0.0
C727 C 0.22113 0.17588 0.89279 0.0
C728 C 0.27556 0.09933 0.8802 0.0
C729 C 0.2594 0.05693 0.90383 0.0
H730 H 0.27174 0.19017 0.85768 0.0
H731 H 0.30389 0.08827 0.86665 0.0
S732 S 0.16467 0.07878 0.95537 0.0
N733 N 0.16878 0.14474 0.93373 0.0
N734 N 0.20383 0.03393 0.94321 0.0
C735 C 0.22207 0.07213 0.92018 0.0
C736 C 0.20294 0.132 0.91484 0.0
C737 C 0.30614 0.87108 0.3723 0.0
C738 C 0.33017 0.84685 0.39859 0.0
C739 C 0.28839 0.93089 0.37448 0.0
C740 C 0.29291 0.96843 0.40349 0.0
H741 H 0.29905 0.84221 0.35067 0.0
H742 H 0.26891 0.94641 0.35384 0.0
S743 S 0.35525 0.9275 0.47861 0.0
N744 N 0.36031 0.86613 0.45365 0.0
N745 N 0.32574 0.97832 0.45811 0.0
C746 C 0.31907 0.94639 0.42915 0.0
C747 C 0.3378 0.88546 0.42667 0.0
C748 C 0.7827 0.18331 0.87845 0.0
C749 C 0.80962 0.2043 0.90369 0.0
C750 C 0.76594 0.12279 0.87945 0.0
C751 C 0.77492 0.08044 0.90592 0.0
H752 H 0.77354 0.21439 0.85819 0.0
H753 H 0.74454 0.10989 0.85957 0.0
S754 S 0.8457 0.11049 0.97734 0.0
N755 N 0.84666 0.17616 0.95529 0.0
N756 N 0.81424 0.06259 0.95692 0.0
C757 C 0.80334 0.09942 0.93048 0.0
C758 C 0.82081 0.16127 0.92945 0.0
C759 C 0.76677 0.92442 0.37713 0.0
C760 C 0.76022 0.96258 0.40569 0.0
C761 C 0.74861 0.86518 0.37403 0.0
C762 C 0.72236 0.84155 0.39897 0.0
H763 H 0.788 0.93894 0.35747 0.0
H764 H 0.75717 0.8361 0.35284 0.0
S765 S 0.69147 0.92325 0.47727 0.0
N766 N 0.72281 0.97362 0.45827 0.0
N767 N 0.68809 0.8616 0.45229 0.0
C768 C 0.71273 0.88052 0.42649 0.0
C769 C 0.73165 0.94132 0.42983 0.0
C770 C 0.80439 0.94651 0.11995 0.0
C771 C 0.78731 0.97483 0.14841 0.0
C772 C 0.81867 0.88428 0.12137 0.0
C773 C 0.81598 0.84809 0.15119 0.0
H774 H 0.8042 0.97089 0.09607 0.0
H775 H 0.82993 0.86333 0.09835 0.0
S776 S 0.7795 0.90448 0.23378 0.0
N777 N 0.77328 0.96506 0.20836 0.0
N778 N 0.79896 0.84769 0.2104 0.0
C779 C 0.80122 0.87719 0.18019 0.0
C780 C 0.78739 0.94073 0.17896 0.0
C781 C 0.70441 0.12817 0.63718 0.0
C782 C 0.72274 0.17123 0.65964 0.0
C783 C 0.72173 0.06801 0.63244 0.0
C784 C 0.75811 0.05003 0.64964 0.0
H785 H 0.6786 0.14258 0.62141 0.0
H786 H 0.70812 0.03701 0.61391 0.0
S787 S 0.81371 0.14205 0.7148 0.0
N788 N 0.7756 0.18844 0.70221 0.0
N789 N 0.80874 0.07711 0.69268 0.0
C790 C 0.77467 0.09108 0.6738 0.0
C791 C 0.75674 0.15122 0.67901 0.0
C792 C 0.71518 0.3986 0.15341 0.0
C793 C 0.74113 0.34702 0.14606 0.0
C794 C 0.72914 0.4608 0.1484 0.0
C795 C 0.76869 0.47274 0.13454 0.0
H796 H 0.68451 0.39079 0.16397 0.0
H797 H 0.70997 0.49935 0.15699 0.0
S798 S 0.84512 0.35378 0.10597 0.0
N799 N 0.80618 0.31223 0.12137 0.0
N800 N 0.83132 0.42784 0.11042 0.0
C801 C 0.79322 0.42122 0.12485 0.0
C802 C 0.7798 0.35871 0.13101 0.0
C803 C 0.76081 0.59415 0.67273 0.0
C804 C 0.78058 0.55005 0.652 0.0
C805 C 0.77793 0.6536 0.67791 0.0
C806 C 0.81531 0.67179 0.66226 0.0
H807 H 0.73106 0.58328 0.68423 0.0
H808 H 0.76026 0.68714 0.69254 0.0
S809 S 0.88139 0.57085 0.60833 0.0
N810 N 0.84144 0.5256 0.61842 0.0
N811 N 0.87339 0.63876 0.62722 0.0
C812 C 0.837 0.62654 0.64335 0.0
C813 C 0.81961 0.56529 0.63839 0.0
C814 C 0.71094 0.6533 0.90659 0.0
C815 C 0.73708 0.70662 0.90546 0.0
C816 C 0.72757 0.59245 0.91091 0.0
C817 C 0.77067 0.58364 0.91531 0.0
H818 H 0.67759 0.65863 0.9035 0.0
H819 H 0.70697 0.55228 0.90944 0.0
S820 S 0.85122 0.70874 0.91974 0.0
N821 N 0.80739 0.74666 0.91238 0.0
N822 N 0.83828 0.63391 0.92167 0.0
C823 C 0.79647 0.63716 0.91628 0.0
C824 C 0.77984 0.69818 0.91101 0.0
C825 C 0.75868 0.41038 0.38927 0.0
C826 C 0.77896 0.45856 0.40713 0.0
C827 C 0.77539 0.34984 0.3872 0.0
C828 C 0.813 0.33421 0.40335 0.0
H829 H 0.72888 0.41916 0.37731 0.0
H830 H 0.75747 0.31435 0.37417 0.0
S831 S 0.88031 0.4453 0.45092 0.0
N832 N 0.84013 0.48841 0.43902 0.0
N833 N 0.87179 0.37428 0.43584 0.0
C834 C 0.8348 0.38306 0.41989 0.0
C835 C 0.81778 0.44523 0.42159 0.0
C836 C 0.32411 0.63116 0.88953 0.0
C837 C 0.31221 0.67614 0.91344 0.0
C838 C 0.31017 0.56856 0.89221 0.0
C839 C 0.28433 0.54966 0.91901 0.0
H840 H 0.34201 0.64519 0.86773 0.0
H841 H 0.31714 0.53617 0.87207 0.0
S842 S 0.25049 0.64643 0.99068 0.0
N843 N 0.27722 0.69504 0.96662 0.0
N844 N 0.2521 0.57801 0.97165 0.0
C845 C 0.27538 0.59289 0.94427 0.0
C846 C 0.28899 0.65608 0.94146 0.0
C847 C 0.29984 0.41384 0.40128 0.0
C848 C 0.27527 0.46357 0.41377 0.0
C849 C 0.28339 0.35374 0.39596 0.0
C850 C 0.2416 0.33981 0.40334 0.0
H851 H 0.33252 0.42113 0.39567 0.0
H852 H 0.30432 0.31722 0.38746 0.0
S853 S 0.16283 0.45401 0.43411 0.0
N854 N 0.20607 0.4958 0.43106 0.0
N855 N 0.17506 0.38219 0.42206 0.0
C856 C 0.21611 0.38958 0.41472 0.0
C857 C 0.23288 0.45148 0.41961 0.0
C858 C 0.25613 0.41493 0.13286 0.0
C859 C 0.282 0.46683 0.13826 0.0
C860 C 0.27064 0.35426 0.13726 0.0
C861 C 0.31248 0.34177 0.14573 0.0
H862 H 0.2233 0.42136 0.12736 0.0
H863 H 0.24809 0.31687 0.1343 0.0
S864 S 0.39398 0.4621 0.16089 0.0
N865 N 0.35161 0.5033 0.15229 0.0
N866 N 0.38042 0.38742 0.158 0.0
C867 C 0.3396 0.39336 0.14957 0.0
C868 C 0.32412 0.45625 0.14616 0.0
C869 C 0.2567 0.66857 0.6243 0.0
C870 C 0.22498 0.68262 0.64767 0.0
C871 C 0.27108 0.60734 0.61968 0.0
C872 C 0.25418 0.55721 0.63792 0.0
H873 H 0.27195 0.70565 0.61029 0.0
H874 H 0.29768 0.59981 0.60342 0.0
S875 S 0.16789 0.56678 0.69952 0.0
N876 N 0.17465 0.64014 0.68707 0.0
N877 N 0.20201 0.52424 0.67841 0.0
C878 C 0.22049 0.56946 0.65956 0.0
C879 C 0.20571 0.63235 0.66436 0.0
loop_
_geom_bond_atom_site_label_1
_geom_bond_atom_site_label_2
_geom_bond_distance
_geom_bond_site_symmetry_2
_ccdc_geom_bond_type
Fe0 O2 1.918 . S
Fe0 O5 1.997 . S
Fe0 O6 2.002 . S
Fe0 O11 1.976 . S
Fe0 O14 1.996 . S
Fe1 O2 1.918 . S
Fe1 O9 1.997 . S
Fe1 O12 1.996 . S
Fe1 O16 1.976 . S
Fe1 O19 2.002 . S
O2 Fe0 1.918 . S
O2 Fe1 1.918 . S
O2 Fe3 1.918 . S
Fe3 O2 1.918 . S
Fe3 O4 2.002 . S
Fe3 O13 1.976 . S
Fe3 O17 1.996 . S
Fe3 O20 1.997 . S
O4 Fe3 2.002 . S
O4 C21 1.295 . S
O5 Fe0 1.997 . S
O5 C21 1.235 . S
O6 Fe0 2.002 . S
O6 C7 1.295 . S
C7 O6 1.295 . S
C7 O9 1.235 . S
C8 O13 1.287 . S
C8 O14 1.255 . S
O9 Fe1 1.997 . S
O9 C7 1.235 . S
C10 O16 1.287 . S
C10 O17 1.255 . S
O11 Fe0 1.976 . S
O11 C18 1.287 . S
O12 Fe1 1.996 . S
O12 C18 1.255 . S
O13 Fe3 1.976 . S
O13 C8 1.287 . S
O14 Fe0 1.996 . S
O14 C8 1.255 . S
C15 O19 1.295 . S
C15 O20 1.235 . S
O16 Fe1 1.976 . S
O16 C10 1.287 . S
O17 Fe3 1.996 . S
O17 C10 1.255 . S
C18 O11 1.287 . S
C18 O12 1.255 . S
O19 Fe1 2.002 . S
O19 C15 1.295 . S
O20 Fe3 1.997 . S
O20 C15 1.235 . S
C21 O4 1.295 . S
C21 O5 1.235 . S
Fe22 O24 1.918 . S
Fe22 O27 1.997 . S
Fe22 O28 2.002 . S
Fe22 O33 1.976 . S
Fe22 O36 1.996 . S
Fe23 O24 1.918 . S
Fe23 O31 1.997 . S
Fe23 O34 1.996 . S
Fe23 O38 1.976 . S
Fe23 O41 2.002 . S
O24 Fe22 1.918 . S
O24 Fe23 1.918 . S
O24 Fe25 1.918 . S
Fe25 O24 1.918 . S
Fe25 O26 2.002 . S
Fe25 O35 1.976 . S
Fe25 O39 1.996 . S
Fe25 O42 1.997 . S
O26 Fe25 2.002 . S
O26 C43 1.295 . S
O27 Fe22 1.997 . S
O27 C43 1.235 . S
O28 Fe22 2.002 . S
O28 C29 1.295 . S
C29 O28 1.295 . S
C29 O31 1.235 . S
C30 O35 1.287 . S
C30 O36 1.255 . S
O31 Fe23 1.997 . S
O31 C29 1.235 . S
C32 O38 1.287 . S
C32 O39 1.255 . S
O33 Fe22 1.976 . S
O33 C40 1.287 . S
O34 Fe23 1.996 . S
O34 C40 1.255 . S
O35 Fe25 1.976 . S
O35 C30 1.287 . S
O36 Fe22 1.996 . S
O36 C30 1.255 . S
C37 O41 1.295 . S
C37 O42 1.235 . S
O38 Fe23 1.976 . S
O38 C32 1.287 . S
O39 Fe25 1.996 . S
O39 C32 1.255 . S
C40 O33 1.287 . S
C40 O34 1.255 . S
O41 Fe23 2.002 . S
O41 C37 1.295 . S
O42 Fe25 1.997 . S
O42 C37 1.235 . S
C43 O26 1.295 . S
C43 O27 1.235 . S
Fe44 O46 1.918 . S
Fe44 O49 1.997 . S
Fe44 O50 2.002 . S
Fe44 O55 1.976 . S
Fe44 O58 1.996 . S
Fe45 O46 1.918 . S
Fe45 O53 1.997 . S
Fe45 O56 1.996 . S
Fe45 O60 1.976 . S
Fe45 O63 2.002 . S
O46 Fe44 1.918 . S
O46 Fe45 1.918 . S
O46 Fe47 1.918 . S
Fe47 O46 1.918 . S
Fe47 O48 2.002 . S
Fe47 O57 1.976 . S
Fe47 O61 1.996 . S
Fe47 O64 1.997 . S
O48 Fe47 2.002 . S
O48 C65 1.295 . S
O49 Fe44 1.997 . S
O49 C65 1.235 . S
O50 Fe44 2.002 . S
O50 C51 1.295 . S
C51 O50 1.295 . S
C51 O53 1.235 . S
C52 O57 1.287 . S
C52 O58 1.255 . S
O53 Fe45 1.997 . S
O53 C51 1.235 . S
C54 O60 1.287 . S
C54 O61 1.255 . S
O55 Fe44 1.976 . S
O55 C62 1.287 . S
O56 Fe45 1.996 . S
O56 C62 1.255 . S
O57 Fe47 1.976 . S
O57 C52 1.287 . S
O58 Fe44 1.996 . S
O58 C52 1.255 . S
C59 O63 1.295 . S
C59 O64 1.235 . S
O60 Fe45 1.976 . S
O60 C54 1.287 . S
O61 Fe47 1.996 . S
O61 C54 1.255 . S
C62 O55 1.287 . S
C62 O56 1.255 . S
O63 Fe45 2.002 . S
O63 C59 1.295 . S
O64 Fe47 1.997 . S
O64 C59 1.235 . S
C65 O48 1.295 . S
C65 O49 1.235 . S
Fe66 O68 1.918 . S
Fe66 O71 1.997 . S
Fe66 O72 2.002 . S
Fe66 O77 1.976 . S
Fe66 O80 1.996 . S
Fe67 O68 1.918 . S
Fe67 O75 1.997 . S
Fe67 O78 1.996 . S
Fe67 O82 1.976 . S
Fe67 O85 2.002 . S
O68 Fe66 1.918 . S
O68 Fe67 1.918 . S
O68 Fe69 1.918 . S
Fe69 O68 1.918 . S
Fe69 O70 2.002 . S
Fe69 O79 1.976 . S
Fe69 O83 1.996 . S
Fe69 O86 1.997 . S
O70 Fe69 2.002 . S
O70 C87 1.295 . S
O71 Fe66 1.997 . S
O71 C87 1.235 . S
O72 Fe66 2.002 . S
O72 C73 1.295 . S
C73 O72 1.295 . S
C73 O75 1.235 . S
C74 O79 1.287 . S
C74 O80 1.255 . S
O75 Fe67 1.997 . S
O75 C73 1.235 . S
C76 O82 1.287 . S
C76 O83 1.255 . S
O77 Fe66 1.976 . S
O77 C84 1.287 . S
O78 Fe67 1.996 . S
O78 C84 1.255 . S
O79 Fe69 1.976 . S
O79 C74 1.287 . S
O80 Fe66 1.996 . S
O80 C74 1.255 . S
C81 O85 1.295 . S
C81 O86 1.235 . S
O82 Fe67 1.976 . S
O82 C76 1.287 . S
O83 Fe69 1.996 . S
O83 C76 1.255 . S
C84 O77 1.287 . S
C84 O78 1.255 . S
O85 Fe67 2.002 . S
O85 C81 1.295 . S
O86 Fe69 1.997 . S
O86 C81 1.235 . S
C87 O70 1.295 . S
C87 O71 1.235 . S
Fe88 O90 1.918 . S
Fe88 O93 1.997 . S
Fe88 O94 2.002 . S
Fe88 O99 1.976 . S
Fe88 O102 1.996 . S
Fe89 O90 1.918 . S
Fe89 O97 1.997 . S
Fe89 O100 1.996 . S
Fe89 O104 1.976 . S
Fe89 O107 2.002 . S
O90 Fe88 1.918 . S
O90 Fe89 1.918 . S
O90 Fe91 1.918 . S
Fe91 O90 1.918 . S
Fe91 O92 2.002 . S
Fe91 O101 1.976 . S
Fe91 O105 1.996 . S
Fe91 O108 1.997 . S
O92 Fe91 2.002 . S
O92 C109 1.295 . S
O93 Fe88 1.997 . S
O93 C109 1.235 . S
O94 Fe88 2.002 . S
O94 C95 1.295 . S
C95 O94 1.295 . S
C95 O97 1.235 . S
C96 O101 1.287 . S
C96 O102 1.255 . S
O97 Fe89 1.997 . S
O97 C95 1.235 . S
C98 O104 1.287 . S
C98 O105 1.255 . S
O99 Fe88 1.976 . S
O99 C106 1.287 . S
O100 Fe89 1.996 . S
O100 C106 1.255 . S
O101 Fe91 1.976 . S
O101 C96 1.287 . S
O102 Fe88 1.996 . S
O102 C96 1.255 . S
C103 O107 1.295 . S
C103 O108 1.235 . S
O104 Fe89 1.976 . S
O104 C98 1.287 . S
O105 Fe91 1.996 . S
O105 C98 1.255 . S
C106 O99 1.287 . S
C106 O100 1.255 . S
O107 Fe89 2.002 . S
O107 C103 1.295 . S
O108 Fe91 1.997 . S
O108 C103 1.235 . S
C109 O92 1.295 . S
C109 O93 1.235 . S
Fe110 O112 1.918 . S
Fe110 O115 1.997 . S
Fe110 O116 2.002 . S
Fe110 O121 1.976 . S
Fe110 O124 1.996 . S
Fe111 O112 1.918 . S
Fe111 O119 1.997 . S
Fe111 O122 1.996 . S
Fe111 O126 1.976 . S
Fe111 O129 2.002 . S
O112 Fe110 1.918 . S
O112 Fe111 1.918 . S
O112 Fe113 1.918 . S
Fe113 O112 1.918 . S
Fe113 O114 2.002 . S
Fe113 O123 1.976 . S
Fe113 O127 1.996 . S
Fe113 O130 1.997 . S
O114 Fe113 2.002 . S
O114 C131 1.295 . S
O115 Fe110 1.997 . S
O115 C131 1.235 . S
O116 Fe110 2.002 . S
O116 C117 1.295 . S
C117 O116 1.295 . S
C117 O119 1.235 . S
C118 O123 1.287 . S
C118 O124 1.255 . S
O119 Fe111 1.997 . S
O119 C117 1.235 . S
C120 O126 1.287 . S
C120 O127 1.255 . S
O121 Fe110 1.976 . S
O121 C128 1.287 . S
O122 Fe111 1.996 . S
O122 C128 1.255 . S
O123 Fe113 1.976 . S
O123 C118 1.287 . S
O124 Fe110 1.996 . S
O124 C118 1.255 . S
C125 O129 1.295 . S
C125 O130 1.235 . S
O126 Fe111 1.976 . S
O126 C120 1.287 . S
O127 Fe113 1.996 . S
O127 C120 1.255 . S
C128 O121 1.287 . S
C128 O122 1.255 . S
O129 Fe111 2.002 . S
O129 C125 1.295 . S
O130 Fe113 1.997 . S
O130 C125 1.235 . S
C131 O114 1.295 . S
C131 O115 1.235 . S
Fe132 O134 1.918 . S
Fe132 O137 1.997 . S
Fe132 O138 2.002 . S
Fe132 O143 1.976 . S
Fe132 O146 1.996 . S
Fe133 O134 1.918 . S
Fe133 O141 1.997 . S
Fe133 O144 1.996 . S
Fe133 O148 1.976 . S
Fe133 O151 2.002 . S
O134 Fe132 1.918 . S
O134 Fe133 1.918 . S
O134 Fe135 1.918 . S
Fe135 O134 1.918 . S
Fe135 O136 2.002 . S
Fe135 O145 1.976 . S
Fe135 O149 1.996 . S
Fe135 O152 1.997 . S
O136 Fe135 2.002 . S
O136 C153 1.295 . S
O137 Fe132 1.997 . S
O137 C153 1.235 . S
O138 Fe132 2.002 . S
O138 C139 1.295 . S
C139 O138 1.295 . S
C139 O141 1.235 . S
C140 O145 1.287 . S
C140 O146 1.255 . S
O141 Fe133 1.997 . S
O141 C139 1.235 . S
C142 O148 1.287 . S
C142 O149 1.255 . S
O143 Fe132 1.976 . S
O143 C150 1.287 . S
O144 Fe133 1.996 . S
O144 C150 1.255 . S
O145 Fe135 1.976 . S
O145 C140 1.287 . S
O146 Fe132 1.996 . S
O146 C140 1.255 . S
C147 O151 1.295 . S
C147 O152 1.235 . S
O148 Fe133 1.976 . S
O148 C142 1.287 . S
O149 Fe135 1.996 . S
O149 C142 1.255 . S
C150 O143 1.287 . S
C150 O144 1.255 . S
O151 Fe133 2.002 . S
O151 C147 1.295 . S
O152 Fe135 1.997 . S
O152 C147 1.235 . S
C153 O136 1.295 . S
C153 O137 1.235 . S
Fe154 O156 1.918 . S
Fe154 O159 1.997 . S
Fe154 O160 2.002 . S
Fe154 O165 1.976 . S
Fe154 O168 1.996 . S
Fe155 O156 1.918 . S
Fe155 O163 1.997 . S
Fe155 O166 1.996 . S
Fe155 O170 1.976 . S
Fe155 O173 2.002 . S
O156 Fe154 1.918 . S
O156 Fe155 1.918 . S
O156 Fe157 1.918 . S
Fe157 O156 1.918 . S
Fe157 O158 2.002 . S
Fe157 O167 1.976 . S
Fe157 O171 1.996 . S
Fe157 O174 1.997 . S
O158 Fe157 2.002 . S
O158 C175 1.295 . S
O159 Fe154 1.997 . S
O159 C175 1.235 . S
O160 Fe154 2.002 . S
O160 C161 1.295 . S
C161 O160 1.295 . S
C161 O163 1.235 . S
C162 O167 1.287 . S
C162 O168 1.255 . S
O163 Fe155 1.997 . S
O163 C161 1.235 . S
C164 O170 1.287 . S
C164 O171 1.255 . S
O165 Fe154 1.976 . S
O165 C172 1.287 . S
O166 Fe155 1.996 . S
O166 C172 1.255 . S
O167 Fe157 1.976 . S
O167 C162 1.287 . S
O168 Fe154 1.996 . S
O168 C162 1.255 . S
C169 O173 1.295 . S
C169 O174 1.235 . S
O170 Fe155 1.976 . S
O170 C164 1.287 . S
O171 Fe157 1.996 . S
O171 C164 1.255 . S
C172 O165 1.287 . S
C172 O166 1.255 . S
O173 Fe155 2.002 . S
O173 C169 1.295 . S
O174 Fe157 1.997 . S
O174 C169 1.235 . S
C175 O158 1.295 . S
C175 O159 1.235 . S
Fe176 O178 1.918 . S
Fe176 O181 1.997 . S
Fe176 O182 2.002 . S
Fe176 O187 1.976 . S
Fe176 O190 1.996 . S
Fe177 O178 1.918 . S
Fe177 O185 1.997 . S
Fe177 O188 1.996 . S
Fe177 O192 1.976 . S
Fe177 O195 2.002 . S
O178 Fe176 1.918 . S
O178 Fe177 1.918 . S
O178 Fe179 1.918 . S
Fe179 O178 1.918 . S
Fe179 O180 2.002 . S
Fe179 O189 1.976 . S
Fe179 O193 1.996 . S
Fe179 O196 1.997 . S
O180 Fe179 2.002 . S
O180 C197 1.295 . S
O181 Fe176 1.997 . S
O181 C197 1.235 . S
O182 Fe176 2.002 . S
O182 C183 1.295 . S
C183 O182 1.295 . S
C183 O185 1.235 . S
C184 O189 1.287 . S
C184 O190 1.255 . S
O185 Fe177 1.997 . S
O185 C183 1.235 . S
C186 O192 1.287 . S
C186 O193 1.255 . S
O187 Fe176 1.976 . S
O187 C194 1.287 . S
O188 Fe177 1.996 . S
O188 C194 1.255 . S
O189 Fe179 1.976 . S
O189 C184 1.287 . S
O190 Fe176 1.996 . S
O190 C184 1.255 . S
C191 O195 1.295 . S
C191 O196 1.235 . S
O192 Fe177 1.976 . S
O192 C186 1.287 . S
O193 Fe179 1.996 . S
O193 C186 1.255 . S
C194 O187 1.287 . S
C194 O188 1.255 . S
O195 Fe177 2.002 . S
O195 C191 1.295 . S
O196 Fe179 1.997 . S
O196 C191 1.235 . S
C197 O180 1.295 . S
C197 O181 1.235 . S
Fe198 O200 1.918 . S
Fe198 O203 1.997 . S
Fe198 O204 2.002 . S
Fe198 O209 1.976 . S
Fe198 O212 1.996 . S
Fe199 O200 1.918 . S
Fe199 O207 1.997 . S
Fe199 O210 1.996 . S
Fe199 O214 1.976 . S
Fe199 O217 2.002 . S
O200 Fe198 1.918 . S
O200 Fe199 1.918 . S
O200 Fe201 1.918 . S
Fe201 O200 1.918 . S
Fe201 O202 2.002 . S
Fe201 O211 1.976 . S
Fe201 O215 1.996 . S
Fe201 O218 1.997 . S
O202 Fe201 2.002 . S
O202 C219 1.295 . S
O203 Fe198 1.997 . S
O203 C219 1.235 . S
O204 Fe198 2.002 . S
O204 C205 1.295 . S
C205 O204 1.295 . S
C205 O207 1.235 . S
C206 O211 1.287 . S
C206 O212 1.255 . S
O207 Fe199 1.997 . S
O207 C205 1.235 . S
C208 O214 1.287 . S
C208 O215 1.255 . S
O209 Fe198 1.976 . S
O209 C216 1.287 . S
O210 Fe199 1.996 . S
O210 C216 1.255 . S
O211 Fe201 1.976 . S
O211 C206 1.287 . S
O212 Fe198 1.996 . S
O212 C206 1.255 . S
C213 O217 1.295 . S
C213 O218 1.235 . S
O214 Fe199 1.976 . S
O214 C208 1.287 . S
O215 Fe201 1.996 . S
O215 C208 1.255 . S
C216 O209 1.287 . S
C216 O210 1.255 . S
O217 Fe199 2.002 . S
O217 C213 1.295 . S
O218 Fe201 1.997 . S
O218 C213 1.235 . S
C219 O202 1.295 . S
C219 O203 1.235 . S
Fe220 O222 1.918 . S
Fe220 O225 1.997 . S
Fe220 O226 2.002 . S
Fe220 O231 1.976 . S
Fe220 O234 1.996 . S
Fe221 O222 1.918 . S
Fe221 O229 1.997 . S
Fe221 O232 1.996 . S
Fe221 O236 1.976 . S
Fe221 O239 2.002 . S
O222 Fe220 1.918 . S
O222 Fe221 1.918 . S
O222 Fe223 1.918 . S
Fe223 O222 1.918 . S
Fe223 O224 2.002 . S
Fe223 O233 1.976 . S
Fe223 O237 1.996 . S
Fe223 O240 1.997 . S
O224 Fe223 2.002 . S
O224 C241 1.295 . S
O225 Fe220 1.997 . S
O225 C241 1.235 . S
O226 Fe220 2.002 . S
O226 C227 1.295 . S
C227 O226 1.295 . S
C227 O229 1.235 . S
C228 O233 1.287 . S
C228 O234 1.255 . S
O229 Fe221 1.997 . S
O229 C227 1.235 . S
C230 O236 1.287 . S
C230 O237 1.255 . S
O231 Fe220 1.976 . S
O231 C238 1.287 . S
O232 Fe221 1.996 . S
O232 C238 1.255 . S
O233 Fe223 1.976 . S
O233 C228 1.287 . S
O234 Fe220 1.996 . S
O234 C228 1.255 . S
C235 O239 1.295 . S
C235 O240 1.235 . S
O236 Fe221 1.976 . S
O236 C230 1.287 . S
O237 Fe223 1.996 . S
O237 C230 1.255 . S
C238 O231 1.287 . S
C238 O232 1.255 . S
O239 Fe221 2.002 . S
O239 C235 1.295 . S
O240 Fe223 1.997 . S
O240 C235 1.235 . S
C241 O224 1.295 . S
C241 O225 1.235 . S
Fe242 O244 1.918 . S
Fe242 O247 1.997 . S
Fe242 O248 2.002 . S
Fe242 O253 1.976 . S
Fe242 O256 1.996 . S
Fe243 O244 1.918 . S
Fe243 O251 1.997 . S
Fe243 O254 1.996 . S
Fe243 O258 1.976 . S
Fe243 O261 2.002 . S
O244 Fe242 1.918 . S
O244 Fe243 1.918 . S
O244 Fe245 1.918 . S
Fe245 O244 1.918 . S
Fe245 O246 2.002 . S
Fe245 O255 1.976 . S
Fe245 O259 1.996 . S
Fe245 O262 1.997 . S
O246 Fe245 2.002 . S
O246 C263 1.295 . S
O247 Fe242 1.997 . S
O247 C263 1.235 . S
O248 Fe242 2.002 . S
O248 C249 1.295 . S
C249 O248 1.295 . S
C249 O251 1.235 . S
C250 O255 1.287 . S
C250 O256 1.255 . S
O251 Fe243 1.997 . S
O251 C249 1.235 . S
C252 O258 1.287 . S
C252 O259 1.255 . S
O253 Fe242 1.976 . S
O253 C260 1.287 . S
O254 Fe243 1.996 . S
O254 C260 1.255 . S
O255 Fe245 1.976 . S
O255 C250 1.287 . S
O256 Fe242 1.996 . S
O256 C250 1.255 . S
C257 O261 1.295 . S
C257 O262 1.235 . S
O258 Fe243 1.976 . S
O258 C252 1.287 . S
O259 Fe245 1.996 . S
O259 C252 1.255 . S
C260 O253 1.287 . S
C260 O254 1.255 . S
O261 Fe243 2.002 . S
O261 C257 1.295 . S
O262 Fe245 1.997 . S
O262 C257 1.235 . S
C263 O246 1.295 . S
C263 O247 1.235 . S
Fe264 O266 1.918 . S
Fe264 O269 1.997 . S
Fe264 O270 2.002 . S
Fe264 O275 1.976 . S
Fe264 O278 1.996 . S
Fe265 O266 1.918 . S
Fe265 O273 1.997 . S
Fe265 O276 1.996 . S
Fe265 O280 1.976 . S
Fe265 O283 2.002 . S
O266 Fe264 1.918 . S
O266 Fe265 1.918 . S
O266 Fe267 1.918 . S
Fe267 O266 1.918 . S
Fe267 O268 2.002 . S
Fe267 O277 1.976 . S
Fe267 O281 1.996 . S
Fe267 O284 1.997 . S
O268 Fe267 2.002 . S
O268 C285 1.295 . S
O269 Fe264 1.997 . S
O269 C285 1.235 . S
O270 Fe264 2.002 . S
O270 C271 1.295 . S
C271 O270 1.295 . S
C271 O273 1.235 . S
C272 O277 1.287 . S
C272 O278 1.255 . S
O273 Fe265 1.997 . S
O273 C271 1.235 . S
C274 O280 1.287 . S
C274 O281 1.255 . S
O275 Fe264 1.976 . S
O275 C282 1.287 . S
O276 Fe265 1.996 . S
O276 C282 1.255 . S
O277 Fe267 1.976 . S
O277 C272 1.287 . S
O278 Fe264 1.996 . S
O278 C272 1.255 . S
C279 O283 1.295 . S
C279 O284 1.235 . S
O280 Fe265 1.976 . S
O280 C274 1.287 . S
O281 Fe267 1.996 . S
O281 C274 1.255 . S
C282 O275 1.287 . S
C282 O276 1.255 . S
O283 Fe265 2.002 . S
O283 C279 1.295 . S
O284 Fe267 1.997 . S
O284 C279 1.235 . S
C285 O268 1.295 . S
C285 O269 1.235 . S
Fe286 O288 1.918 . S
Fe286 O291 1.997 . S
Fe286 O292 2.002 . S
Fe286 O297 1.976 . S
Fe286 O300 1.996 . S
Fe287 O288 1.918 . S
Fe287 O295 1.997 . S
Fe287 O298 1.996 . S
Fe287 O302 1.976 . S
Fe287 O305 2.002 . S
O288 Fe286 1.918 . S
O288 Fe287 1.918 . S
O288 Fe289 1.918 . S
Fe289 O288 1.918 . S
Fe289 O290 2.002 . S
Fe289 O299 1.976 . S
Fe289 O303 1.996 . S
Fe289 O306 1.997 . S
O290 Fe289 2.002 . S
O290 C307 1.295 . S
O291 Fe286 1.997 . S
O291 C307 1.235 . S
O292 Fe286 2.002 . S
O292 C293 1.295 . S
C293 O292 1.295 . S
C293 O295 1.235 . S
C294 O299 1.287 . S
C294 O300 1.255 . S
O295 Fe287 1.997 . S
O295 C293 1.235 . S
C296 O302 1.287 . S
C296 O303 1.255 . S
O297 Fe286 1.976 . S
O297 C304 1.287 . S
O298 Fe287 1.996 . S
O298 C304 1.255 . S
O299 Fe289 1.976 . S
O299 C294 1.287 . S
O300 Fe286 1.996 . S
O300 C294 1.255 . S
C301 O305 1.295 . S
C301 O306 1.235 . S
O302 Fe287 1.976 . S
O302 C296 1.287 . S
O303 Fe289 1.996 . S
O303 C296 1.255 . S
C304 O297 1.287 . S
C304 O298 1.255 . S
O305 Fe287 2.002 . S
O305 C301 1.295 . S
O306 Fe289 1.997 . S
O306 C301 1.235 . S
C307 O290 1.295 . S
C307 O291 1.235 . S
Fe308 O310 1.918 . S
Fe308 O313 1.997 . S
Fe308 O314 2.002 . S
Fe308 O319 1.976 . S
Fe308 O322 1.996 . S
Fe309 O310 1.918 . S
Fe309 O317 1.997 . S
Fe309 O320 1.996 . S
Fe309 O324 1.976 . S
Fe309 O327 2.002 . S
O310 Fe308 1.918 . S
O310 Fe309 1.918 . S
O310 Fe311 1.918 . S
Fe311 O310 1.918 . S
Fe311 O312 2.002 . S
Fe311 O321 1.976 . S
Fe311 O325 1.996 . S
Fe311 O328 1.997 . S
O312 Fe311 2.002 . S
O312 C329 1.295 . S
O313 Fe308 1.997 . S
O313 C329 1.235 . S
O314 Fe308 2.002 . S
O314 C315 1.295 . S
C315 O314 1.295 . S
C315 O317 1.235 . S
C316 O321 1.287 . S
C316 O322 1.255 . S
O317 Fe309 1.997 . S
O317 C315 1.235 . S
C318 O324 1.287 . S
C318 O325 1.255 . S
O319 Fe308 1.976 . S
O319 C326 1.287 . S
O320 Fe309 1.996 . S
O320 C326 1.255 . S
O321 Fe311 1.976 . S
O321 C316 1.287 . S
O322 Fe308 1.996 . S
O322 C316 1.255 . S
C323 O327 1.295 . S
C323 O328 1.235 . S
O324 Fe309 1.976 . S
O324 C318 1.287 . S
O325 Fe311 1.996 . S
O325 C318 1.255 . S
C326 O319 1.287 . S
C326 O320 1.255 . S
O327 Fe309 2.002 . S
O327 C323 1.295 . S
O328 Fe311 1.997 . S
O328 C323 1.235 . S
C329 O312 1.295 . S
C329 O313 1.235 . S
Fe330 O332 1.918 . S
Fe330 O335 1.997 . S
Fe330 O336 2.002 . S
Fe330 O341 1.976 . S
Fe330 O344 1.996 . S
Fe331 O332 1.918 . S
Fe331 O339 1.997 . S
Fe331 O342 1.996 . S
Fe331 O346 1.976 . S
Fe331 O349 2.002 . S
O332 Fe330 1.918 . S
O332 Fe331 1.918 . S
O332 Fe333 1.918 . S
Fe333 O332 1.918 . S
Fe333 O334 2.002 . S
Fe333 O343 1.976 . S
Fe333 O347 1.996 . S
Fe333 O350 1.997 . S
O334 Fe333 2.002 . S
O334 C351 1.295 . S
O335 Fe330 1.997 . S
O335 C351 1.235 . S
O336 Fe330 2.002 . S
O336 C337 1.295 . S
C337 O336 1.295 . S
C337 O339 1.235 . S
C338 O343 1.287 . S
C338 O344 1.255 . S
O339 Fe331 1.997 . S
O339 C337 1.235 . S
C340 O346 1.287 . S
C340 O347 1.255 . S
O341 Fe330 1.976 . S
O341 C348 1.287 . S
O342 Fe331 1.996 . S
O342 C348 1.255 . S
O343 Fe333 1.976 . S
O343 C338 1.287 . S
O344 Fe330 1.996 . S
O344 C338 1.255 . S
C345 O349 1.295 . S
C345 O350 1.235 . S
O346 Fe331 1.976 . S
O346 C340 1.287 . S
O347 Fe333 1.996 . S
O347 C340 1.255 . S
C348 O341 1.287 . S
C348 O342 1.255 . S
O349 Fe331 2.002 . S
O349 C345 1.295 . S
O350 Fe333 1.997 . S
O350 C345 1.235 . S
C351 O334 1.295 . S
C351 O335 1.235 . S
C352 C353 1.369 . S
C352 C354 1.419 1_554 S
C352 H356 0.930 . S
C353 C352 1.369 . S
C353 C362 1.429 . S
C354 C352 1.419 1_556 S
C354 C355 1.363 . S
C354 H357 0.929 . S
C355 C354 1.363 . S
C355 C361 1.428 . S
H356 C352 0.930 . S
H357 C354 0.929 . S
S358 N359 1.613 1_556 S
S358 N360 1.610 . S
N359 S358 1.613 1_554 S
N359 C362 1.350 . S
N360 S358 1.610 . S
N360 C361 1.351 . S
C361 C355 1.428 . S
C361 N360 1.351 . S
C361 C362 1.434 1_556 S
C362 C353 1.429 . S
C362 N359 1.350 . S
C362 C361 1.434 1_554 S
C363 C364 1.369 . S
C363 C365 1.419 . S
C363 H367 0.930 . S
C364 C363 1.369 . S
C364 C373 1.429 . S
C365 C363 1.419 . S
C365 C366 1.363 . S
C365 H368 0.929 . S
C366 C365 1.363 . S
C366 C372 1.428 . S
H367 C363 0.930 . S
H368 C365 0.929 . S
S369 N370 1.613 . S
S369 N371 1.610 . S
N370 S369 1.613 . S
N370 C373 1.350 . S
N371 S369 1.610 . S
N371 C372 1.351 . S
C372 C366 1.428 . S
C372 N371 1.351 . S
C372 C373 1.434 . S
C373 C364 1.429 . S
C373 N370 1.350 . S
C373 C372 1.434 . S
C374 C375 1.369 . S
C374 C376 1.419 1_554 S
C374 H378 0.930 . S
C375 C374 1.369 . S
C375 C384 1.429 . S
C376 C374 1.419 1_556 S
C376 C377 1.363 . S
C376 H379 0.929 . S
C377 C376 1.363 . S
C377 C383 1.428 . S
H378 C374 0.930 . S
H379 C376 0.929 . S
S380 N381 1.613 . S
S380 N382 1.610 1_554 S
N381 S380 1.613 . S
N381 C384 1.350 . S
N382 S380 1.610 1_556 S
N382 C383 1.351 . S
C383 C377 1.428 . S
C383 N382 1.351 . S
C383 C384 1.434 1_556 S
C384 C375 1.429 . S
C384 N381 1.350 . S
C384 C383 1.434 1_554 S
C385 C386 1.369 . S
C385 C387 1.419 . S
C385 H389 0.930 . S
C386 C385 1.369 . S
C386 C395 1.429 . S
C387 C385 1.419 . S
C387 C388 1.363 . S
C387 H390 0.929 . S
C388 C387 1.363 . S
C388 C394 1.428 . S
H389 C385 0.930 . S
H390 C387 0.929 . S
S391 N392 1.613 . S
S391 N393 1.610 . S
N392 S391 1.613 . S
N392 C395 1.350 . S
N393 S391 1.610 . S
N393 C394 1.351 . S
C394 C388 1.428 . S
C394 N393 1.351 . S
C394 C395 1.434 . S
C395 C386 1.429 . S
C395 N392 1.350 . S
C395 C394 1.434 . S
C396 C397 1.369 . S
C396 C398 1.419 1_556 S
C396 H400 0.930 . S
C397 C396 1.369 . S
C397 C406 1.429 . S
C398 C396 1.419 1_554 S
C398 C399 1.363 . S
C398 H401 0.929 . S
C399 C398 1.363 . S
C399 C405 1.428 . S
H400 C396 0.930 . S
H401 C398 0.929 . S
S402 N403 1.613 . S
S402 N404 1.610 1_556 S
N403 S402 1.613 . S
N403 C406 1.350 . S
N404 S402 1.610 1_554 S
N404 C405 1.351 . S
C405 C399 1.428 . S
C405 N404 1.351 . S
C405 C406 1.434 1_554 S
C406 C397 1.429 . S
C406 N403 1.350 . S
C406 C405 1.434 1_556 S
C407 C408 1.369 . S
C407 C409 1.419 . S
C407 H411 0.930 . S
C408 C407 1.369 . S
C408 C417 1.429 . S
C409 C407 1.419 . S
C409 C410 1.363 . S
C409 H412 0.929 . S
C410 C409 1.363 . S
C410 C416 1.428 . S
H411 C407 0.930 . S
H412 C409 0.929 . S
S413 N414 1.613 . S
S413 N415 1.610 . S
N414 S413 1.613 . S
N414 C417 1.350 . S
N415 S413 1.610 . S
N415 C416 1.351 . S
C416 C410 1.428 . S
C416 N415 1.351 . S
C416 C417 1.434 . S
C417 C408 1.429 . S
C417 N414 1.350 . S
C417 C416 1.434 . S
C418 C419 1.369 . S
C418 C420 1.419 1_554 S
C418 H422 0.930 . S
C419 C418 1.369 . S
C419 C428 1.429 . S
C420 C418 1.419 1_556 S
C420 C421 1.363 . S
C420 H423 0.929 . S
C421 C420 1.363 . S
C421 C427 1.428 . S
H422 C418 0.930 . S
H423 C420 0.929 . S
S424 N425 1.613 1_556 S
S424 N426 1.610 . S
N425 S424 1.613 1_554 S
N425 C428 1.350 . S
N426 S424 1.610 . S
N426 C427 1.351 . S
C427 C421 1.428 . S
C427 N426 1.351 . S
C427 C428 1.434 1_556 S
C428 C419 1.429 . S
C428 N425 1.350 . S
C428 C427 1.434 1_554 S
C429 C430 1.369 . S
C429 C431 1.419 . S
C429 H433 0.930 . S
C430 C429 1.369 . S
C430 C439 1.429 . S
C431 C429 1.419 . S
C431 C432 1.363 . S
C431 H434 0.929 . S
C432 C431 1.363 . S
C432 C438 1.428 . S
H433 C429 0.930 . S
H434 C431 0.929 . S
S435 N436 1.613 . S
S435 N437 1.610 . S
N436 S435 1.613 . S
N436 C439 1.350 . S
N437 S435 1.610 . S
N437 C438 1.351 . S
C438 C432 1.428 . S
C438 N437 1.351 . S
C438 C439 1.434 . S
C439 C430 1.429 . S
C439 N436 1.350 . S
C439 C438 1.434 . S
C440 C441 1.369 1_545 S
C440 C442 1.436 . S
C440 H444 0.930 . S
C441 C440 1.369 1_565 S
C441 C450 1.429 1_556 S
C442 C440 1.436 . S
C442 C443 1.344 1_556 S
C442 H445 0.931 . S
C443 C442 1.344 1_554 S
C443 C449 1.428 1_545 S
H444 C440 0.930 . S
H445 C442 0.931 . S
S446 N447 1.613 . S
S446 N448 1.610 . S
N447 S446 1.613 . S
N447 C450 1.350 . S
N448 S446 1.610 . S
N448 C449 1.351 . S
C449 C443 1.428 1_565 S
C449 N448 1.351 . S
C449 C450 1.434 . S
C450 C441 1.429 1_554 S
C450 N447 1.350 . S
C450 C449 1.434 . S
C451 C452 1.369 1_545 S
C451 C453 1.419 . S
C451 H455 0.930 . S
C452 C451 1.369 1_565 S
C452 C461 1.429 . S
C453 C451 1.419 . S
C453 C454 1.363 . S
C453 H456 0.929 . S
C454 C453 1.363 . S
C454 C460 1.428 1_545 S
H455 C451 0.930 . S
H456 C453 0.929 . S
S457 N458 1.613 . S
S457 N459 1.610 . S
N458 S457 1.613 . S
N458 C461 1.350 . S
N459 S457 1.610 . S
N459 C460 1.351 . S
C460 C454 1.428 1_565 S
C460 N459 1.351 . S
C460 C461 1.434 . S
C461 C452 1.429 . S
C461 N458 1.350 . S
C461 C460 1.434 . S
C462 C463 1.369 . S
C462 C464 1.419 1_566 S
C462 H466 0.930 . S
C463 C462 1.369 . S
C463 C472 1.429 . S
C464 C462 1.419 1_544 S
C464 C465 1.363 . S
C464 H467 0.929 . S
C465 C464 1.363 . S
C465 C471 1.428 . S
H466 C462 0.930 . S
H467 C464 0.929 . S
S468 N469 1.613 1_545 S
S468 N470 1.610 1_556 S
N469 S468 1.613 1_565 S
N469 C472 1.350 . S
N470 S468 1.610 1_554 S
N470 C471 1.351 . S
C471 C465 1.428 . S
C471 N470 1.351 . S
C471 C472 1.434 1_544 S
C472 C463 1.429 . S
C472 N469 1.350 . S
C472 C471 1.434 1_566 S
C473 C474 1.369 . S
C473 C475 1.419 1_565 S
C473 H477 0.930 . S
C474 C473 1.369 . S
C474 C483 1.429 . S
C475 C473 1.419 1_545 S
C475 C476 1.363 . S
C475 H478 0.929 . S
C476 C475 1.363 . S
C476 C482 1.428 . S
H477 C473 0.930 . S
H478 C475 0.929 . S
S479 N480 1.603 1_545 S
S479 N481 1.610 . S
N480 S479 1.603 1_565 S
N480 C483 1.351 . S
N481 S479 1.610 . S
N481 C482 1.351 . S
C482 C476 1.428 . S
C482 N481 1.351 . S
C482 C483 1.434 1_545 S
C483 C474 1.429 . S
C483 N480 1.351 . S
C483 C482 1.434 1_565 S
C484 C485 1.369 . S
C484 C486 1.442 . S
C484 H488 0.930 . S
C485 C484 1.369 . S
C485 C494 1.429 1_554 S
C486 C484 1.442 . S
C486 C487 1.337 1_554 S
C486 H489 0.932 . S
C487 C486 1.337 1_556 S
C487 C493 1.428 . S
H488 C484 0.930 . S
H489 C486 0.932 . S
S490 N491 1.613 . S
S490 N492 1.610 . S
N491 S490 1.613 . S
N491 C494 1.350 . S
N492 S490 1.610 . S
N492 C493 1.351 . S
C493 C487 1.428 . S
C493 N492 1.351 . S
C493 C494 1.434 . S
C494 C485 1.429 1_556 S
C494 N491 1.350 . S
C494 C493 1.434 . S
C495 C496 1.369 . S
C495 C497 1.419 . S
C495 H499 0.930 . S
C496 C495 1.369 . S
C496 C505 1.429 . S
C497 C495 1.419 . S
C497 C498 1.363 . S
C497 H500 0.929 . S
C498 C497 1.363 . S
C498 C504 1.428 . S
H499 C495 0.930 . S
H500 C497 0.929 . S
S501 N502 1.613 . S
S501 N503 1.610 . S
N502 S501 1.613 . S
N502 C505 1.350 . S
N503 S501 1.610 . S
N503 C504 1.351 . S
C504 C498 1.428 . S
C504 N503 1.351 . S
C504 C505 1.434 . S
C505 C496 1.429 . S
C505 N502 1.350 . S
C505 C504 1.434 . S
C506 C507 1.369 . S
C506 C508 1.419 1_554 S
C506 H510 0.930 . S
C507 C506 1.369 . S
C507 C516 1.429 . S
C508 C506 1.419 1_556 S
C508 C509 1.363 . S
C508 H511 0.929 . S
C509 C508 1.363 . S
C509 C515 1.428 . S
H510 C506 0.930 . S
H511 C508 0.929 . S
S512 N513 1.613 . S
S512 N514 1.610 . S
N513 S512 1.613 . S
N513 C516 1.350 1_556 S
N514 S512 1.610 . S
N514 C515 1.351 . S
C515 C509 1.428 . S
C515 N514 1.351 . S
C515 C516 1.434 1_556 S
C516 C507 1.429 . S
C516 N513 1.350 1_554 S
C516 C515 1.434 1_554 S
C517 C518 1.369 . S
C517 C519 1.419 . S
C517 H521 0.930 . S
C518 C517 1.369 . S
C518 C527 1.429 . S
C519 C517 1.419 . S
C519 C520 1.363 . S
C519 H522 0.929 . S
C520 C519 1.363 . S
C520 C526 1.428 . S
H521 C517 0.930 . S
H522 C519 0.929 . S
S523 N524 1.613 . S
S523 N525 1.610 . S
N524 S523 1.613 . S
N524 C527 1.350 . S
N525 S523 1.610 . S
N525 C526 1.351 . S
C526 C520 1.428 . S
C526 N525 1.351 . S
C526 C527 1.434 . S
C527 C518 1.429 . S
C527 N524 1.350 . S
C527 C526 1.434 . S
C528 C529 1.369 . S
C528 C530 1.419 . S
C528 H532 0.930 . S
C529 C528 1.369 . S
C529 C538 1.429 . S
C530 C528 1.419 . S
C530 C531 1.363 . S
C530 H533 0.929 . S
C531 C530 1.363 . S
C531 C537 1.428 . S
H532 C528 0.930 . S
H533 C530 0.929 . S
S534 N535 1.613 . S
S534 N536 1.610 . S
N535 S534 1.613 . S
N535 C538 1.350 . S
N536 S534 1.610 . S
N536 C537 1.351 . S
C537 C531 1.428 . S
C537 N536 1.351 . S
C537 C538 1.434 . S
C538 C529 1.429 . S
C538 N535 1.350 . S
C538 C537 1.434 . S
C539 C540 1.369 . S
C539 C541 1.419 . S
C539 H543 0.930 . S
C540 C539 1.369 . S
C540 C549 1.429 . S
C541 C539 1.419 . S
C541 C542 1.363 . S
C541 H544 0.929 . S
C542 C541 1.363 . S
C542 C548 1.428 . S
H543 C539 0.930 . S
H544 C541 0.929 . S
S545 N546 1.613 . S
S545 N547 1.610 . S
N546 S545 1.613 . S
N546 C549 1.350 . S
N547 S545 1.610 . S
N547 C548 1.351 . S
C548 C542 1.428 . S
C548 N547 1.351 . S
C548 C549 1.434 . S
C549 C540 1.429 . S
C549 N546 1.350 . S
C549 C548 1.434 . S
C550 C551 1.369 . S
C550 C552 1.419 . S
C550 H554 0.930 . S
C551 C550 1.369 . S
C551 C560 1.429 . S
C552 C550 1.419 . S
C552 C553 1.363 . S
C552 H555 0.929 . S
C553 C552 1.363 . S
C553 C559 1.428 . S
H554 C550 0.930 . S
H555 C552 0.929 . S
S556 N557 1.613 . S
S556 N558 1.610 . S
N557 S556 1.613 . S
N557 C560 1.350 . S
N558 S556 1.610 . S
N558 C559 1.351 . S
C559 C553 1.428 . S
C559 N558 1.351 . S
C559 C560 1.434 . S
C560 C551 1.429 . S
C560 N557 1.350 . S
C560 C559 1.434 . S
C561 C562 1.369 . S
C561 C563 1.419 . S
C561 H565 0.930 . S
C562 C561 1.369 . S
C562 C571 1.429 . S
C563 C561 1.419 . S
C563 C564 1.363 . S
C563 H566 0.929 . S
C564 C563 1.363 . S
C564 C570 1.428 . S
H565 C561 0.930 . S
H566 C563 0.929 . S
S567 N568 1.613 . S
S567 N569 1.610 . S
N568 S567 1.613 . S
N568 C571 1.350 . S
N569 S567 1.610 . S
N569 C570 1.351 . S
C570 C564 1.428 . S
C570 N569 1.351 . S
C570 C571 1.434 . S
C571 C562 1.429 . S
C571 N568 1.350 . S
C571 C570 1.434 . S
C572 C573 1.369 . S
C572 C574 1.419 . S
C572 H576 0.930 . S
C573 C572 1.369 . S
C573 C582 1.429 . S
C574 C572 1.419 . S
C574 C575 1.363 . S
C574 H577 0.929 . S
C575 C574 1.363 . S
C575 C581 1.428 . S
H576 C572 0.930 . S
H577 C574 0.929 . S
S578 N579 1.613 . S
S578 N580 1.610 . S
N579 S578 1.613 . S
N579 C582 1.350 . S
N580 S578 1.610 . S
N580 C581 1.351 . S
C581 C575 1.428 . S
C581 N580 1.351 . S
C581 C582 1.434 . S
C582 C573 1.429 . S
C582 N579 1.350 . S
C582 C581 1.434 . S
C583 C584 1.369 . S
C583 C585 1.419 . S
C583 H587 0.930 . S
C584 C583 1.369 . S
C584 C593 1.429 . S
C585 C583 1.419 . S
C585 C586 1.363 . S
C585 H588 0.929 . S
C586 C585 1.363 . S
C586 C592 1.428 . S
H587 C583 0.930 . S
H588 C585 0.929 . S
S589 N590 1.613 . S
S589 N591 1.610 . S
N590 S589 1.613 . S
N590 C593 1.350 . S
N591 S589 1.610 . S
N591 C592 1.351 . S
C592 C586 1.428 . S
C592 N591 1.351 . S
C592 C593 1.434 . S
C593 C584 1.429 . S
C593 N590 1.350 . S
C593 C592 1.434 . S
C594 C595 1.369 . S
C594 C596 1.419 . S
C594 H598 0.930 . S
C595 C594 1.369 . S
C595 C604 1.429 . S
C596 C594 1.419 . S
C596 C597 1.363 . S
C596 H599 0.929 . S
C597 C596 1.363 . S
C597 C603 1.428 . S
H598 C594 0.930 . S
H599 C596 0.929 . S
S600 N601 1.613 . S
S600 N602 1.610 . S
N601 S600 1.613 . S
N601 C604 1.350 . S
N602 S600 1.610 . S
N602 C603 1.351 . S
C603 C597 1.428 . S
C603 N602 1.351 . S
C603 C604 1.434 . S
C604 C595 1.429 . S
C604 N601 1.350 . S
C604 C603 1.434 . S
C605 C606 1.369 . S
C605 C607 1.419 . S
C605 H609 0.930 . S
C606 C605 1.369 . S
C606 C615 1.429 . S
C607 C605 1.419 . S
C607 C608 1.363 . S
C607 H610 0.929 . S
C608 C607 1.363 . S
C608 C614 1.428 . S
H609 C605 0.930 . S
H610 C607 0.929 . S
S611 N612 1.613 . S
S611 N613 1.610 . S
N612 S611 1.613 . S
N612 C615 1.350 . S
N613 S611 1.610 . S
N613 C614 1.351 . S
C614 C608 1.428 . S
C614 N613 1.351 . S
C614 C615 1.434 . S
C615 C606 1.429 . S
C615 N612 1.350 . S
C615 C614 1.434 . S
C616 C617 1.369 . S
C616 C618 1.419 . S
C616 H620 0.930 . S
C617 C616 1.369 . S
C617 C626 1.429 . S
C618 C616 1.419 . S
C618 C619 1.363 . S
C618 H621 0.929 . S
C619 C618 1.363 . S
C619 C625 1.428 . S
H620 C616 0.930 . S
H621 C618 0.929 . S
S622 N623 1.613 . S
S622 N624 1.610 . S
N623 S622 1.613 . S
N623 C626 1.350 . S
N624 S622 1.610 . S
N624 C625 1.351 . S
C625 C619 1.428 . S
C625 N624 1.351 . S
C625 C626 1.434 . S
C626 C617 1.429 . S
C626 N623 1.350 . S
C626 C625 1.434 . S
C627 C628 1.369 . S
C627 C629 1.419 1_455 S
C627 H631 0.930 . S
C628 C627 1.369 . S
C628 C637 1.429 . S
C629 C627 1.419 1_655 S
C629 C630 1.363 . S
C629 H632 0.929 . S
C630 C629 1.363 . S
C630 C636 1.428 . S
H631 C627 0.930 . S
H632 C629 0.929 . S
S633 N634 1.599 1_655 S
S633 N635 1.625 . S
N634 S633 1.599 1_455 S
N634 C637 1.350 . S
N635 S633 1.625 . S
N635 C636 1.351 . S
C636 C630 1.428 . S
C636 N635 1.351 . S
C636 C637 1.434 1_655 S
C637 C628 1.429 . S
C637 N634 1.350 . S
C637 C636 1.434 1_455 S
C638 C639 1.369 . S
C638 C640 1.419 . S
C638 H642 0.930 . S
C639 C638 1.369 . S
C639 C648 1.429 . S
C640 C638 1.419 . S
C640 C641 1.363 . S
C640 H643 0.929 . S
C641 C640 1.363 . S
C641 C647 1.428 . S
H642 C638 0.930 . S
H643 C640 0.929 . S
S644 N645 1.613 . S
S644 N646 1.610 . S
N645 S644 1.613 . S
N645 C648 1.350 . S
N646 S644 1.610 . S
N646 C647 1.351 . S
C647 C641 1.428 . S
C647 N646 1.351 . S
C647 C648 1.434 . S
C648 C639 1.429 . S
C648 N645 1.350 . S
C648 C647 1.434 . S
C649 C650 1.369 . S
C649 C651 1.419 1_655 S
C649 H653 0.930 . S
C650 C649 1.369 . S
C650 C659 1.429 . S
C651 C649 1.419 1_455 S
C651 C652 1.363 . S
C651 H654 0.929 . S
C652 C651 1.363 . S
C652 C658 1.428 . S
H653 C649 0.930 . S
H654 C651 0.929 . S
S655 N656 1.612 1_455 S
S655 N657 1.612 . S
N656 S655 1.612 1_655 S
N656 C659 1.350 . S
N657 S655 1.612 . S
N657 C658 1.351 . S
C658 C652 1.428 . S
C658 N657 1.351 . S
C658 C659 1.434 1_455 S
C659 C650 1.429 . S
C659 N656 1.350 . S
C659 C658 1.434 1_655 S
C660 C661 1.369 . S
C660 C662 1.419 1_655 S
C660 H664 0.930 . S
C661 C660 1.369 . S
C661 C670 1.429 . S
C662 C660 1.419 1_455 S
C662 C663 1.363 . S
C662 H665 0.929 . S
C663 C662 1.363 . S
C663 C669 1.428 . S
H664 C660 0.930 . S
H665 C662 0.929 . S
S666 N667 1.599 1_455 S
S666 N668 1.624 . S
N667 S666 1.599 1_655 S
N667 C670 1.350 . S
N668 S666 1.624 . S
N668 C669 1.351 . S
C669 C663 1.428 . S
C669 N668 1.351 . S
C669 C670 1.434 1_455 S
C670 C661 1.429 . S
C670 N667 1.350 . S
C670 C669 1.434 1_655 S
C671 C672 1.369 . S
C671 C673 1.419 . S
C671 H675 0.930 . S
C672 C671 1.369 . S
C672 C681 1.429 . S
C673 C671 1.419 . S
C673 C674 1.363 . S
C673 H676 0.929 . S
C674 C673 1.363 . S
C674 C680 1.428 . S
H675 C671 0.930 . S
H676 C673 0.929 . S
S677 N678 1.613 . S
S677 N679 1.610 . S
N678 S677 1.613 . S
N678 C681 1.350 . S
N679 S677 1.610 . S
N679 C680 1.351 . S
C680 C674 1.428 . S
C680 N679 1.351 . S
C680 C681 1.434 . S
C681 C672 1.429 . S
C681 N678 1.350 . S
C681 C680 1.434 . S
C682 C683 1.369 . S
C682 C684 1.419 1_455 S
C682 H686 0.930 . S
C683 C682 1.369 . S
C683 C692 1.429 . S
C684 C682 1.419 1_655 S
C684 C685 1.363 . S
C684 H687 0.929 . S
C685 C684 1.363 . S
C685 C691 1.428 . S
H686 C682 0.930 . S
H687 C684 0.929 . S
S688 N689 1.630 . S
S688 N690 1.593 1_455 S
N689 S688 1.630 . S
N689 C692 1.350 . S
N690 S688 1.593 1_655 S
N690 C691 1.351 . S
C691 C685 1.428 . S
C691 N690 1.351 . S
C691 C692 1.434 1_655 S
C692 C683 1.429 . S
C692 N689 1.350 . S
C692 C691 1.434 1_455 S
C693 C694 1.369 . S
C693 C695 1.419 . S
C693 H697 0.930 . S
C694 C693 1.369 . S
C694 C703 1.429 . S
C695 C693 1.419 . S
C695 C696 1.363 . S
C695 H698 0.929 . S
C696 C695 1.363 . S
C696 C702 1.428 . S
H697 C693 0.930 . S
H698 C695 0.929 . S
S699 N700 1.613 . S
S699 N701 1.610 . S
N700 S699 1.613 . S
N700 C703 1.350 . S
N701 S699 1.610 . S
N701 C702 1.351 . S
C702 C696 1.428 . S
C702 N701 1.351 . S
C702 C703 1.434 . S
C703 C694 1.429 . S
C703 N700 1.350 . S
C703 C702 1.434 . S
C704 C705 1.369 . S
C704 C706 1.419 . S
C704 H708 0.930 1_565 S
C705 C704 1.369 . S
C705 C714 1.429 . S
C706 C704 1.419 . S
C706 C707 1.363 . S
C706 H709 0.929 . S
C707 C706 1.363 . S
C707 C713 1.428 . S
H708 C704 0.930 1_545 S
H709 C706 0.929 . S
S710 N711 1.613 . S
S710 N712 1.610 . S
N711 S710 1.613 . S
N711 C714 1.350 . S
N712 S710 1.610 . S
N712 C713 1.351 . S
C713 C707 1.428 . S
C713 N712 1.351 . S
C713 C714 1.434 . S
C714 C705 1.429 . S
C714 N711 1.350 . S
C714 C713 1.434 . S
C715 C716 1.369 . S
C715 C717 1.419 . S
C715 H719 0.930 . S
C716 C715 1.369 . S
C716 C725 1.429 . S
C717 C715 1.419 . S
C717 C718 1.363 . S
C717 H720 0.929 . S
C718 C717 1.363 . S
C718 C724 1.428 . S
H719 C715 0.930 . S
H720 C717 0.929 . S
S721 N722 1.613 1_545 S
S721 N723 1.610 . S
N722 S721 1.613 1_565 S
N722 C725 1.350 1_565 S
N723 S721 1.610 . S
N723 C724 1.351 . S
C724 C718 1.428 . S
C724 N723 1.351 . S
C724 C725 1.434 . S
C725 C716 1.429 . S
C725 N722 1.350 1_545 S
C725 C724 1.434 . S
C726 C727 1.369 . S
C726 C728 1.419 . S
C726 H730 0.930 . S
C727 C726 1.369 . S
C727 C736 1.429 . S
C728 C726 1.419 . S
C728 C729 1.363 . S
C728 H731 0.929 . S
C729 C728 1.363 . S
C729 C735 1.428 . S
H730 C726 0.930 . S
H731 C728 0.929 . S
S732 N733 1.613 . S
S732 N734 1.610 1_545 S
N733 S732 1.613 . S
N733 C736 1.350 . S
N734 S732 1.610 1_565 S
N734 C735 1.351 1_565 S
C735 C729 1.428 . S
C735 N734 1.351 1_545 S
C735 C736 1.434 . S
C736 C727 1.429 . S
C736 N733 1.350 . S
C736 C735 1.434 . S
C737 C738 1.369 . S
C737 C739 1.419 . S
C737 H741 0.930 . S
C738 C737 1.369 . S
C738 C747 1.429 . S
C739 C737 1.419 . S
C739 C740 1.363 . S
C739 H742 0.929 . S
C740 C739 1.363 . S
C740 C746 1.428 . S
H741 C737 0.930 . S
H742 C739 0.929 . S
S743 N744 1.613 . S
S743 N745 1.610 . S
N744 S743 1.613 . S
N744 C747 1.350 . S
N745 S743 1.610 . S
N745 C746 1.351 . S
C746 C740 1.428 . S
C746 N745 1.351 . S
C746 C747 1.434 . S
C747 C738 1.429 . S
C747 N744 1.350 . S
C747 C746 1.434 . S
C748 C749 1.369 . S
C748 C750 1.419 . S
C748 H752 0.930 . S
C749 C748 1.369 . S
C749 C758 1.429 . S
C750 C748 1.419 . S
C750 C751 1.363 . S
C750 H753 0.929 . S
C751 C750 1.363 . S
C751 C757 1.428 . S
H752 C748 0.930 . S
H753 C750 0.929 . S
S754 N755 1.613 . S
S754 N756 1.610 1_545 S
N755 S754 1.613 . S
N755 C758 1.350 . S
N756 S754 1.610 1_565 S
N756 C757 1.351 1_565 S
C757 C751 1.428 . S
C757 N756 1.351 1_545 S
C757 C758 1.434 . S
C758 C749 1.429 . S
C758 N755 1.350 . S
C758 C757 1.434 . S
C759 C760 1.369 . S
C759 C761 1.419 . S
C759 H763 0.930 . S
C760 C759 1.369 . S
C760 C769 1.429 . S
C761 C759 1.419 . S
C761 C762 1.363 . S
C761 H764 0.929 . S
C762 C761 1.363 . S
C762 C768 1.428 . S
H763 C759 0.930 . S
H764 C761 0.929 . S
S765 N766 1.613 1_565 S
S765 N767 1.610 . S
N766 S765 1.613 1_545 S
N766 C769 1.350 1_545 S
N767 S765 1.610 . S
N767 C768 1.351 . S
C768 C762 1.428 . S
C768 N767 1.351 . S
C768 C769 1.434 . S
C769 C760 1.429 . S
C769 N766 1.350 1_565 S
C769 C768 1.434 . S
C770 C771 1.369 . S
C770 C772 1.419 . S
C770 H774 0.921 1_565 S
C771 C770 1.369 . S
C771 C780 1.429 . S
C772 C770 1.419 . S
C772 C773 1.363 . S
C772 H775 0.929 . S
C773 C772 1.363 . S
C773 C779 1.428 . S
H774 C770 0.921 1_545 S
H775 C772 0.929 . S
S776 N777 1.613 . S
S776 N778 1.610 . S
N777 S776 1.613 . S
N777 C780 1.350 . S
N778 S776 1.610 . S
N778 C779 1.351 . S
C779 C773 1.428 . S
C779 N778 1.351 . S
C779 C780 1.434 . S
C780 C771 1.429 . S
C780 N777 1.350 . S
C780 C779 1.434 . S
C781 C782 1.369 . S
C781 C783 1.419 . S
C781 H785 0.930 . S
C782 C781 1.369 . S
C782 C791 1.429 . S
C783 C781 1.419 . S
C783 C784 1.363 . S
C783 H786 0.929 1_545 S
C784 C783 1.363 . S
C784 C790 1.428 . S
H785 C781 0.930 . S
H786 C783 0.929 1_565 S
S787 N788 1.613 . S
S787 N789 1.610 . S
N788 S787 1.613 . S
N788 C791 1.350 . S
N789 S787 1.610 . S
N789 C790 1.351 . S
C790 C784 1.428 . S
C790 N789 1.351 . S
C790 C791 1.434 . S
C791 C782 1.429 . S
C791 N788 1.350 . S
C791 C790 1.434 . S
C792 C793 1.369 . S
C792 C794 1.419 . S
C792 H796 0.930 . S
C793 C792 1.369 . S
C793 C802 1.429 . S
C794 C792 1.419 . S
C794 C795 1.363 . S
C794 H797 0.929 . S
C795 C794 1.363 . S
C795 C801 1.428 . S
H796 C792 0.930 . S
H797 C794 0.929 . S
S798 N799 1.613 . S
S798 N800 1.610 . S
N799 S798 1.613 . S
N799 C802 1.350 . S
N800 S798 1.610 . S
N800 C801 1.351 . S
C801 C795 1.428 . S
C801 N800 1.351 . S
C801 C802 1.434 . S
C802 C793 1.429 . S
C802 N799 1.350 . S
C802 C801 1.434 . S
C803 C804 1.369 . S
C803 C805 1.419 . S
C803 H807 0.930 . S
C804 C803 1.369 . S
C804 C813 1.429 . S
C805 C803 1.419 . S
C805 C806 1.363 . S
C805 H808 0.929 . S
C806 C805 1.363 . S
C806 C812 1.428 . S
H807 C803 0.930 . S
H808 C805 0.929 . S
S809 N810 1.613 . S
S809 N811 1.610 . S
N810 S809 1.613 . S
N810 C813 1.350 . S
N811 S809 1.610 . S
N811 C812 1.351 . S
C812 C806 1.428 . S
C812 N811 1.351 . S
C812 C813 1.434 . S
C813 C804 1.429 . S
C813 N810 1.350 . S
C813 C812 1.434 . S
C814 C815 1.369 . S
C814 C816 1.419 . S
C814 H818 0.930 . S
C815 C814 1.369 . S
C815 C824 1.429 . S
C816 C814 1.419 . S
C816 C817 1.363 . S
C816 H819 0.929 . S
C817 C816 1.363 . S
C817 C823 1.428 . S
H818 C814 0.930 . S
H819 C816 0.929 . S
S820 N821 1.613 . S
S820 N822 1.610 . S
N821 S820 1.613 . S
N821 C824 1.350 . S
N822 S820 1.610 . S
N822 C823 1.351 . S
C823 C817 1.428 . S
C823 N822 1.351 . S
C823 C824 1.434 . S
C824 C815 1.429 . S
C824 N821 1.350 . S
C824 C823 1.434 . S
C825 C826 1.369 . S
C825 C827 1.419 . S
C825 H829 0.930 . S
C826 C825 1.369 . S
C826 C835 1.429 . S
C827 C825 1.419 . S
C827 C828 1.363 . S
C827 H830 0.929 . S
C828 C827 1.363 . S
C828 C834 1.428 . S
H829 C825 0.930 . S
H830 C827 0.929 . S
S831 N832 1.613 . S
S831 N833 1.610 . S
N832 S831 1.613 . S
N832 C835 1.350 . S
N833 S831 1.610 . S
N833 C834 1.351 . S
C834 C828 1.428 . S
C834 N833 1.351 . S
C834 C835 1.434 . S
C835 C826 1.429 . S
C835 N832 1.350 . S
C835 C834 1.434 . S
C836 C837 1.369 . S
C836 C838 1.419 . S
C836 H840 0.930 . S
C837 C836 1.369 . S
C837 C846 1.429 . S
C838 C836 1.419 . S
C838 C839 1.363 . S
C838 H841 0.929 . S
C839 C838 1.363 . S
C839 C845 1.428 . S
H840 C836 0.930 . S
H841 C838 0.929 . S
S842 N843 1.613 . S
S842 N844 1.610 . S
N843 S842 1.613 . S
N843 C846 1.350 . S
N844 S842 1.610 . S
N844 C845 1.351 . S
C845 C839 1.428 . S
C845 N844 1.351 . S
C845 C846 1.434 . S
C846 C837 1.429 . S
C846 N843 1.350 . S
C846 C845 1.434 . S
C847 C848 1.369 . S
C847 C849 1.419 . S
C847 H851 0.930 . S
C848 C847 1.369 . S
C848 C857 1.429 . S
C849 C847 1.419 . S
C849 C850 1.363 . S
C849 H852 0.929 . S
C850 C849 1.363 . S
C850 C856 1.428 . S
H851 C847 0.930 . S
H852 C849 0.929 . S
S853 N854 1.613 . S
S853 N855 1.610 . S
N854 S853 1.613 . S
N854 C857 1.350 . S
N855 S853 1.610 . S
N855 C856 1.351 . S
C856 C850 1.428 . S
C856 N855 1.351 . S
C856 C857 1.434 . S
C857 C848 1.429 . S
C857 N854 1.350 . S
C857 C856 1.434 . S
C858 C859 1.369 . S
C858 C860 1.419 . S
C858 H862 0.930 . S
C859 C858 1.369 . S
C859 C868 1.429 . S
C860 C858 1.419 . S
C860 C861 1.363 . S
C860 H863 0.929 . S
C861 C860 1.363 . S
C861 C867 1.428 . S
H862 C858 0.930 . S
H863 C860 0.929 . S
S864 N865 1.613 . S
S864 N866 1.610 . S
N865 S864 1.613 . S
N865 C868 1.350 . S
N866 S864 1.610 . S
N866 C867 1.351 . S
C867 C861 1.428 . S
C867 N866 1.351 . S
C867 C868 1.434 . S
C868 C859 1.429 . S
C868 N865 1.350 . S
C868 C867 1.434 . S
C869 C870 1.369 . S
C869 C871 1.419 . S
C869 H873 0.930 . S
C870 C869 1.369 . S
C870 C879 1.429 . S
C871 C869 1.419 . S
C871 C872 1.363 . S
C871 H874 0.929 . S
C872 C871 1.363 . S
C872 C878 1.428 . S
H873 C869 0.930 . S
H874 C871 0.929 . S
S875 N876 1.613 . S
S875 N877 1.610 . S
N876 S875 1.613 . S
N876 C879 1.350 . S
N877 S875 1.610 . S
N877 C878 1.351 . S
C878 C872 1.428 . S
C878 N877 1.351 . S
C878 C879 1.434 . S
C879 C870 1.429 . S
C879 N876 1.350 . S
C879 C878 1.434 . S
C353 C21 1.148 . S
C355 C279 1.131 . S
C364 C307 1.128 . S
C366 C29 1.150 . S
C375 C323 1.127 . S
C377 C59 1.150 . S
C386 C345 1.142 . S
C388 C87 1.139 . S
C397 C103 1.127 . S
C399 C197 1.151 . S
C408 C219 1.150 . S
C410 C117 1.130 . S
C419 C147 1.142 . S
C421 C241 1.140 . S
C430 C263 1.144 . S
C432 C161 1.135 . S
C441 C65 1.657 . S
C443 C7 1.658 . S
C452 C37 1.658 . S
C454 C73 1.659 . S
C463 C95 1.658 . S
C465 C139 1.658 . S
C474 C175 1.658 . S
C476 C131 1.658 . S
C485 C183 1.657 . S
C487 C227 1.658 . S
C496 C249 1.661 . S
C498 C205 1.659 . S
C507 C315 1.656 . S
C509 C271 1.657 . S
C518 C337 1.657 . S
C520 C301 1.656 . S
C529 C10 1.795 . S
C531 C76 1.798 . S
C540 C62 1.800 . S
C542 C30 1.794 . S
C551 C164 1.823 . S
C553 C96 1.818 . S
C562 C140 1.824 . S
C564 C120 1.816 . S
C573 C252 1.797 . S
C575 C186 1.796 . S
C584 C230 1.792 . S
C586 C208 1.800 . S
C595 C272 1.819 . S
C597 C338 1.821 . S
C606 C316 1.822 . S
C608 C304 1.818 . S
C617 C18 1.476 . S
C619 C150 1.476 . S
C628 C32 1.473 . S
C630 C162 1.473 . S
C639 C106 1.476 . S
C641 C52 1.475 . S
C650 C118 1.476 . S
C652 C84 1.476 . S
C661 C194 1.476 . S
C663 C326 1.476 . S
C672 C216 1.473 . S
C674 C348 1.473 . S
C683 C282 1.474 . S
C685 C238 1.474 . S
C694 C296 1.472 . S
C696 C260 1.472 . S
C705 C15 1.434 1_565 S
C707 C318 1.415 . S
C716 C43 1.436 1_545 S
C718 C340 1.420 . S
C727 C274 1.421 . S
C729 C51 1.434 1_545 S
C738 C294 1.414 . S
C740 C81 1.433 1_565 S
C749 C228 1.428 . S
C751 C109 1.443 1_545 S
C760 C125 1.443 1_565 S
C762 C250 1.423 . S
C771 C153 1.440 1_565 S
C773 C184 1.425 . S
C782 C206 1.421 . S
C784 C169 1.440 1_545 S
C793 C142 1.414 . S
C795 C191 1.431 . S
C804 C213 1.433 . S
C806 C172 1.420 . S
C815 C98 1.414 . S
C817 C235 1.431 . S
C826 C257 1.436 . S
C828 C128 1.418 . S
C837 C54 1.421 . S
C839 C285 1.441 . S
C848 C293 1.442 . S
C850 C74 1.423 . S
C859 C329 1.443 . S
C861 C8 1.427 . S
C870 C40 1.427 . S
C872 C351 1.441 . S
