# Generated by pormake.
# Topology uog, (4)-cn, num edge types: 1
# Building blocks:
#     Node 0, Type 0, BuildingBlock: CEKHIL_clean_sbu_0, # of connection points: 4
#     Node 1, Type 0, BuildingBlock: CEKHIL_clean_sbu_0, # of connection points: 4
#     Node 2, Type 0, BuildingBlock: CEKHIL_clean_sbu_0, # of connection points: 4
#     Node 3, Type 0, BuildingBlock: CEKHIL_clean_sbu_0, # of connection points: 4
#     Node 4, Type 0, BuildingBlock: CEKHIL_clean_sbu_0, # of connection points: 4
#     Node 5, Type 0, BuildingBlock: CEKHIL_clean_sbu_0, # of connection points: 4
#     Edge 6, Type (0, 0), BuildingBlock: XUDNAN_clean_linker_2, # of connection points: 2
#     Edge 7, Type (0, 0), BuildingBlock: XUDNAN_clean_linker_2, # of connection points: 2
#     Edge 8, Type (0, 0), BuildingBlock: XUDNAN_clean_linker_2, # of connection points: 2
#     Edge 9, Type (0, 0), BuildingBlock: XUDNAN_clean_linker_2, # of connection points: 2
#     Edge 10, Type (0, 0), BuildingBlock: XUDNAN_clean_linker_2, # of connection points: 2
#     Edge 11, Type (0, 0), BuildingBlock: XUDNAN_clean_linker_2, # of connection points: 2
#     Edge 12, Type (0, 0), BuildingBlock: XUDNAN_clean_linker_2, # of connection points: 2
#     Edge 13, Type (0, 0), BuildingBlock: XUDNAN_clean_linker_2, # of connection points: 2
#     Edge 14, Type (0, 0), BuildingBlock: XUDNAN_clean_linker_2, # of connection points: 2
#     Edge 15, Type (0, 0), BuildingBlock: XUDNAN_clean_linker_2, # of connection points: 2
#     Edge 16, Type (0, 0), BuildingBlock: XUDNAN_clean_linker_2, # of connection points: 2
#     Edge 17, Type (0, 0), BuildingBlock: XUDNAN_clean_linker_2, # of connection points: 2
# Relax obj value: 0.071
# Max RMSD: 0.168
# Mean RMSD: 0.168
data_MOF--net-uog--node1-CEKHIL_clean_sbu_0--edge1-XUDNAN_clean_linker_2
_symmetry_space_group_name_H-M    P1
_symmetry_Int_Tables_number       1
_symmetry_cell_setting            triclinic
loop_
_symmetry_equiv_pos_as_xyz
'x, y, z'
_cell_length_a     28.498953
_cell_length_b     28.421542
_cell_length_c     41.834033
_cell_angle_alpha  90.011098
_cell_angle_beta   89.974439
_cell_angle_gamma 120.13598
loop_
_atom_site_label
_atom_site_type_symbol
_atom_site_fract_x
_atom_site_fract_y
_atom_site_fract_z
_atom_type_partial_charge
Co0 Co 0.60418 0.28278 0.17437 0.0
O1 O 0.60557 0.21634 0.17392 0.0
O2 O 0.54016 0.22595 0.15215 0.0
C3 C 0.62546 0.29836 0.22686 0.0
O4 O 0.5909 0.34788 0.17198 0.0
Co5 Co 0.71198 0.38626 0.18729 0.0
O6 O 0.66703 0.42068 0.19037 0.0
C7 C 0.68929 0.343 0.12213 0.0
C8 C 0.56023 0.19465 0.1586 0.0
C9 C 0.61855 0.3987 0.18001 0.0
O10 O 0.64368 0.30435 0.13231 0.0
O11 O 0.72423 0.3801 0.14044 0.0
O12 O 0.57575 0.26774 0.21755 0.0
O13 O 0.66173 0.31485 0.20444 0.0
Co14 Co 0.31149 0.59154 0.48636 0.0
O15 O 0.3828 0.60048 0.48568 0.0
O16 O 0.31176 0.53431 0.46087 0.0
C17 C 0.3087 0.60261 0.53905 0.0
O18 O 0.23115 0.57016 0.48296 0.0
Co19 Co 0.29767 0.68834 0.50629 0.0
O20 O 0.22141 0.63049 0.51294 0.0
C21 C 0.32882 0.68196 0.4402 0.0
C22 C 0.36318 0.55741 0.46795 0.0
C23 C 0.20144 0.58612 0.49735 0.0
O24 O 0.32915 0.63834 0.44748 0.0
O25 O 0.31761 0.70909 0.46011 0.0
O26 O 0.2966 0.55562 0.52731 0.0
O27 O 0.32753 0.64298 0.51913 0.0
Co28 Co 0.70124 0.29685 0.83761 0.0
O29 O 0.76867 0.36388 0.8404 0.0
O30 O 0.76061 0.28963 0.81871 0.0
C31 C 0.6787 0.30029 0.88928 0.0
O32 O 0.63479 0.21966 0.83221 0.0
Co33 Co 0.60007 0.30687 0.84547 0.0
O34 O 0.56114 0.22651 0.84371 0.0
C35 C 0.66083 0.34308 0.78577 0.0
C36 C 0.79191 0.34083 0.82616 0.0
C37 C 0.58291 0.19833 0.83617 0.0
O38 O 0.68743 0.31994 0.79465 0.0
O39 O 0.62749 0.34781 0.8041 0.0
O40 O 0.70814 0.27902 0.88168 0.0
O41 O 0.66748 0.32272 0.86587 0.0
Co42 Co 0.43856 0.72965 0.16297 0.0
O43 O 0.42614 0.7898 0.16006 0.0
O44 O 0.5036 0.79414 0.14719 0.0
C45 C 0.40267 0.70451 0.21205 0.0
O46 O 0.46456 0.6742 0.16431 0.0
Co47 Co 0.33938 0.61501 0.16619 0.0
O48 O 0.39299 0.59173 0.17524 0.0
C49 C 0.37139 0.66989 0.10438 0.0
C50 C 0.4753 0.81848 0.14978 0.0
C51 C 0.44366 0.62297 0.17062 0.0
O52 O 0.4134 0.70843 0.11794 0.0
O53 O 0.33335 0.63005 0.11972 0.0
O54 O 0.45292 0.74207 0.20818 0.0
O55 O 0.37393 0.68641 0.18622 0.0
Co56 Co 0.69665 0.4326 0.50196 0.0
O57 O 0.62214 0.41414 0.50045 0.0
O58 O 0.68835 0.48308 0.4741 0.0
C59 C 0.70083 0.42742 0.55571 0.0
O60 O 0.7786 0.46216 0.49842 0.0
Co61 Co 0.72055 0.34436 0.52408 0.0
O62 O 0.79633 0.4054 0.5266 0.0
C63 C 0.68474 0.34071 0.45816 0.0
C64 C 0.63679 0.45423 0.48079 0.0
C65 C 0.81199 0.44918 0.51092 0.0
O66 O 0.68441 0.38464 0.46427 0.0
O67 O 0.69506 0.31482 0.47946 0.0
O68 O 0.70766 0.47111 0.54169 0.0
O69 O 0.68609 0.38569 0.53707 0.0
Co70 Co 0.26716 0.67832 0.82793 0.0
O71 O 0.21358 0.60232 0.82829 0.0
O72 O 0.19679 0.66706 0.81355 0.0
C73 C 0.30043 0.67925 0.87655 0.0
O74 O 0.31583 0.76214 0.8256 0.0
Co75 Co 0.38728 0.70696 0.82807 0.0
O76 O 0.40112 0.78122 0.83652 0.0
C77 C 0.32439 0.66725 0.76915 0.0
C78 C 0.17904 0.61528 0.81767 0.0
C79 C 0.36662 0.79639 0.83143 0.0
O80 O 0.28565 0.66981 0.783 0.0
O81 O 0.36847 0.67773 0.78318 0.0
O82 O 0.25758 0.68377 0.87328 0.0
O83 O 0.31852 0.66882 0.85068 0.0
H84 H 0.5391 0.11315 0.1989 0.0
H85 H 0.52943 0.14754 0.09911 0.0
H86 H 0.51051 0.05459 0.08479 0.0
H87 H 0.60788 0.04287 0.1889 0.0
H88 H 0.57264 0.99342 0.21991 0.0
H89 H 0.57935 0.05974 0.22244 0.0
H90 H 0.47501 0.01682 0.22666 0.0
H91 H 0.46803 0.95027 0.22533 0.0
H92 H 0.43205 0.96826 0.19697 0.0
H93 H 0.50091 0.95917 0.08198 0.0
H94 H 0.48784 0.86695 0.09156 0.0
H95 H 0.50408 0.89797 0.19335 0.0
C96 C 0.53109 0.10034 0.17413 0.0
C97 C 0.53451 0.13669 0.15011 0.0
C98 C 0.52534 0.11946 0.11787 0.0
C99 C 0.5154 0.06711 0.10957 0.0
C100 C 0.51451 0.03286 0.1339 0.0
C101 C 0.52085 0.04857 0.16561 0.0
C102 C 0.51926 0.00537 0.18741 0.0
C103 C 0.57298 0.02665 0.20573 0.0
C104 C 0.47069 0.98389 0.21044 0.0
C105 C 0.51184 0.96287 0.16311 0.0
C106 C 0.50952 0.97931 0.1323 0.0
C107 C 0.50273 0.94612 0.10601 0.0
C108 C 0.49617 0.89424 0.11157 0.0
C109 C 0.49671 0.87647 0.14307 0.0
C110 C 0.5052 0.91146 0.16899 0.0
H111 H 0.4735 0.60955 0.4698 0.0
H112 H 0.33211 0.4549 0.44549 0.0
H113 H 0.3912 0.41511 0.43761 0.0
H114 H 0.571 0.59726 0.41419 0.0
H115 H 0.62555 0.62998 0.44266 0.0
H116 H 0.5735 0.6483 0.44086 0.0
H117 H 0.55398 0.62658 0.50118 0.0
H118 H 0.60556 0.60799 0.50316 0.0
H119 H 0.5373 0.56022 0.51569 0.0
H120 H 0.46255 0.38871 0.4421 0.0
H121 H 0.54072 0.37808 0.4565 0.0
H122 H 0.63718 0.5508 0.47571 0.0
C123 C 0.45507 0.56765 0.46198 0.0
C124 C 0.39819 0.53521 0.45821 0.0
C125 C 0.37559 0.48054 0.44823 0.0
C126 C 0.40889 0.45769 0.44369 0.0
C127 C 0.46472 0.49043 0.44863 0.0
C128 C 0.48773 0.54452 0.45708 0.0
C129 C 0.54798 0.56977 0.46368 0.0
C130 C 0.58149 0.61395 0.43886 0.0
C131 C 0.56197 0.59242 0.49796 0.0
C132 C 0.55486 0.52065 0.45945 0.0
C133 C 0.50644 0.47548 0.4503 0.0
C134 C 0.50095 0.42404 0.44836 0.0
C135 C 0.54549 0.41839 0.45665 0.0
C136 C 0.59506 0.46386 0.46653 0.0
C137 C 0.60027 0.51586 0.46714 0.0
H138 H 0.85871 0.44808 0.83926 0.0
H139 H 0.85892 0.30879 0.79688 0.0
H140 H 0.95774 0.36662 0.78616 0.0
H141 H 0.95452 0.55045 0.78523 0.0
H142 H 0.98552 0.60103 0.81619 0.0
H143 H 0.91512 0.54914 0.8193 0.0
H144 H 0.93328 0.52056 0.87466 0.0
H145 H 1.00357 0.57257 0.87185 0.0
H146 H 0.98551 0.50281 0.87849 0.0
H147 H 0.05789 0.43937 0.78351 0.0
H148 H 0.14996 0.51911 0.78918 0.0
H149 H 0.08247 0.61138 0.83148 0.0
C150 C 0.87918 0.42943 0.82752 0.0
C151 C 0.85089 0.37364 0.81888 0.0
C152 C 0.87963 0.35128 0.8037 0.0
C153 C 0.93569 0.38393 0.79747 0.0
C154 C 0.96213 0.43882 0.8064 0.0
C155 C 0.93461 0.46128 0.82108 0.0
C156 C 0.97219 0.52069 0.82938 0.0
C157 C 0.95585 0.55749 0.81145 0.0
C158 C 0.97372 0.52966 0.86575 0.0
C159 C 0.0257 0.52855 0.81727 0.0
C160 C 0.01906 0.48079 0.80413 0.0
C161 C 0.06324 0.47698 0.79332 0.0
C162 C 0.11536 0.52252 0.79662 0.0
C163 C 0.12311 0.5716 0.81025 0.0
C164 C 0.07754 0.57491 0.82014 0.0
H165 H 0.12419 0.5543 0.54346 0.0
H166 H 0.14619 0.55702 0.44089 0.0
H167 H 0.04931 0.52902 0.43298 0.0
H168 H 0.98705 0.43368 0.544 0.0
H169 H 0.96526 0.45963 0.57661 0.0
H170 H 0.03543 0.47802 0.57333 0.0
H171 H 0.06273 0.57979 0.57471 0.0
H172 H 0.99252 0.56171 0.57696 0.0
H173 H 0.035 0.6056 0.54539 0.0
H174 H 0.95184 0.50988 0.43681 0.0
H175 H 0.85678 0.48035 0.45174 0.0
H176 H 0.89755 0.48322 0.55174 0.0
C177 C 0.10809 0.54753 0.51938 0.0
C178 C 0.14216 0.55712 0.49274 0.0
C179 C 0.12025 0.54871 0.46155 0.0
C180 C 0.06556 0.53361 0.45688 0.0
C181 C 0.03339 0.52631 0.4837 0.0
C182 C 0.05348 0.5313 0.51436 0.0
C183 C 0.01025 0.51955 0.53919 0.0
C184 C 0.99881 0.46975 0.55947 0.0
C185 C 0.0261 0.56966 0.5603 0.0
C186 C 0.9627 0.5076 0.51779 0.0
C187 C 0.97708 0.51289 0.48586 0.0
C188 C 0.94008 0.50517 0.46172 0.0
C189 C 0.88643 0.4892 0.47041 0.0
C190 C 0.87023 0.4802 0.50286 0.0
C191 C 0.90916 0.49049 0.52678 0.0
H192 H 0.4704 0.87725 0.84539 0.0
H193 H 0.31348 0.85238 0.81565 0.0
H194 H 0.35325 0.95233 0.812 0.0
H195 H 0.50983 0.99619 0.89357 0.0
H196 H 0.58027 0.02814 0.88222 0.0
H197 H 0.53917 0.95507 0.88275 0.0
H198 H 0.56441 0.95166 0.82367 0.0
H199 H 0.60523 0.02478 0.82283 0.0
H200 H 0.55174 0.9899 0.79397 0.0
H201 H 0.41048 0.0548 0.81146 0.0
H202 H 0.4787 0.15189 0.81586 0.0
H203 H 0.59966 0.11052 0.84517 0.0
C204 C 0.44397 0.89244 0.83817 0.0
C205 C 0.38841 0.85642 0.83078 0.0
C206 C 0.35587 0.87874 0.82153 0.0
C207 C 0.37825 0.93552 0.81927 0.0
C208 C 0.43326 0.96949 0.82632 0.0
C209 C 0.4656 0.94874 0.83572 0.0
C210 C 0.52348 0.9939 0.84212 0.0
C211 C 0.53908 0.99328 0.87725 0.0
C212 C 0.56357 0.9898 0.81928 0.0
C213 C 0.51888 0.0437 0.83487 0.0
C214 C 0.46641 0.02851 0.82579 0.0
C215 C 0.45156 0.06698 0.81854 0.0
C216 C 0.49081 0.12219 0.82116 0.0
C217 C 0.54478 0.13914 0.8309 0.0
C218 C 0.55909 0.09908 0.83735 0.0
H219 H 0.41436 0.51666 0.1845 0.0
H220 H 0.55238 0.67212 0.15671 0.0
H221 H 0.60927 0.62947 0.15411 0.0
H222 H 0.48903 0.47328 0.23436 0.0
H223 H 0.44945 0.40282 0.22277 0.0
H224 H 0.41925 0.44533 0.22242 0.0
H225 H 0.39296 0.42086 0.163 0.0
H226 H 0.42348 0.37862 0.16305 0.0
H227 H 0.44482 0.43266 0.13419 0.0
H228 H 0.65099 0.57127 0.15417 0.0
H229 H 0.67787 0.50211 0.15963 0.0
H230 H 0.51356 0.38217 0.18732 0.0
C231 C 0.4566 0.54193 0.17795 0.0
C232 C 0.4788 0.59804 0.17078 0.0
C233 C 0.53432 0.62931 0.16238 0.0
C234 C 0.56694 0.60534 0.16071 0.0
C235 C 0.54357 0.55001 0.16753 0.0
C236 C 0.48983 0.51866 0.17618 0.0
C237 C 0.47524 0.46015 0.18274 0.0
C238 C 0.45719 0.44449 0.21765 0.0
C239 C 0.43153 0.42075 0.15934 0.0
C240 C 0.52937 0.46357 0.17646 0.0
C241 C 0.56793 0.51593 0.16762 0.0
C242 C 0.62122 0.53022 0.16112 0.0
C243 C 0.63603 0.49048 0.16437 0.0
C244 C 0.59792 0.43666 0.17406 0.0
C245 C 0.54345 0.42273 0.17963 0.0
H246 H 0.64416 0.2342 0.94197 0.0
H247 H 0.71416 0.40202 0.91173 0.0
H248 H 0.72891 0.4317 0.96825 0.0
H249 H 0.57242 0.24895 0.01178 0.0
H250 H 0.58211 0.2017 0.03564 0.0
H251 H 0.57659 0.19418 0.99282 0.0
H252 H 0.66875 0.19677 0.99132 0.0
H253 H 0.67504 0.20545 0.03404 0.0
H254 H 0.72797 0.25414 0.00833 0.0
H255 H 0.74448 0.44351 0.02773 0.0
H256 H 0.74257 0.43586 0.08667 0.0
H257 H 0.65411 0.25988 0.07866 0.0
C258 C 0.66151 0.27701 0.94742 0.0
C259 C 0.67774 0.31594 0.92272 0.0
C260 C 0.7007 0.37166 0.93047 0.0
C261 C 0.70975 0.38888 0.96244 0.0
C262 C 0.69444 0.34967 0.98632 0.0
C263 C 0.66921 0.29475 0.97928 0.0
C264 C 0.65464 0.26092 0.00956 0.0
C265 C 0.59277 0.22429 0.01263 0.0
C266 C 0.68333 0.22736 0.01087 0.0
C267 C 0.67687 0.30546 0.03463 0.0
C268 C 0.70045 0.35637 0.0207 0.0
C269 C 0.7255 0.40384 0.03894 0.0
C270 C 0.72475 0.39913 0.07236 0.0
C271 C 0.69827 0.34735 0.08718 0.0
C272 C 0.67462 0.30001 0.06795 0.0
H273 H 0.44731 0.69523 0.26704 0.0
H274 H 0.30528 0.69392 0.22896 0.0
H275 H 0.27404 0.69542 0.28411 0.0
H276 H 0.37693 0.60545 0.33482 0.0
H277 H 0.43509 0.64058 0.36062 0.0
H278 H 0.44442 0.63837 0.3182 0.0
H279 H 0.50141 0.74377 0.31739 0.0
H280 H 0.49087 0.74632 0.35965 0.0
H281 H 0.47199 0.78282 0.33217 0.0
H282 H 0.26342 0.70554 0.34362 0.0
H283 H 0.26326 0.70283 0.40288 0.0
H284 H 0.40867 0.69041 0.40118 0.0
C285 C 0.40909 0.69418 0.27042 0.0
C286 C 0.37846 0.69432 0.24406 0.0
C287 C 0.32878 0.69308 0.24907 0.0
C288 C 0.31117 0.69462 0.28022 0.0
C289 C 0.34337 0.69637 0.30582 0.0
C290 C 0.39041 0.69442 0.30122 0.0
C291 C 0.41664 0.69449 0.33263 0.0
C292 C 0.41833 0.64157 0.33682 0.0
C293 C 0.4736 0.74485 0.33561 0.0
C294 C 0.37735 0.69736 0.3557 0.0
C295 C 0.33594 0.69957 0.33983 0.0
C296 C 0.29542 0.70343 0.35628 0.0
C297 C 0.29601 0.70261 0.38984 0.0
C298 C 0.33626 0.69699 0.40628 0.0
C299 C 0.37785 0.69533 0.38901 0.0
H300 H 0.67465 0.29872 0.73069 0.0
H301 H 0.66503 0.43665 0.76693 0.0
H302 H 0.67964 0.4747 0.71234 0.0
H303 H 0.77577 0.36975 0.66872 0.0
H304 H 0.74354 0.31529 0.64007 0.0
H305 H 0.7362 0.30033 0.68224 0.0
H306 H 0.63163 0.24963 0.67639 0.0
H307 H 0.63863 0.26429 0.63421 0.0
H308 H 0.59964 0.28433 0.65878 0.0
H309 H 0.69632 0.49841 0.65499 0.0
H310 H 0.70392 0.50276 0.59657 0.0
H311 H 0.69544 0.3458 0.5951 0.0
C312 C 0.67611 0.33716 0.72705 0.0
C313 C 0.6692 0.36516 0.75298 0.0
C314 C 0.67021 0.4147 0.74736 0.0
C315 C 0.67877 0.4367 0.71651 0.0
C316 C 0.68529 0.40813 0.69145 0.0
C317 C 0.68327 0.35907 0.69618 0.0
C318 C 0.68777 0.3351 0.66459 0.0
C319 C 0.73887 0.32982 0.66388 0.0
C320 C 0.63635 0.28008 0.65812 0.0
C321 C 0.69259 0.37843 0.6414 0.0
C322 C 0.69197 0.42049 0.65767 0.0
C323 C 0.69653 0.46563 0.64195 0.0
C324 C 0.70096 0.46766 0.60865 0.0
C325 C 0.69994 0.42444 0.59112 0.0
C326 C 0.69608 0.37931 0.60781 0.0
H327 H 0.245 0.65366 0.93244 0.0
H328 H 0.40361 0.70377 0.89226 0.0
H329 H 0.43868 0.70466 0.94668 0.0
H330 H 0.2884 0.73162 0.00376 0.0
H331 H 0.23615 0.67961 0.02834 0.0
H332 H 0.22412 0.68305 0.9864 0.0
H333 H 0.20041 0.58286 0.97937 0.0
H334 H 0.21239 0.57908 0.02132 0.0
H335 H 0.24843 0.56292 0.99194 0.0
H336 H 0.45696 0.70589 0.0055 0.0
H337 H 0.4565 0.70064 0.0644 0.0
H338 H 0.28368 0.6424 0.06552 0.0
C339 C 0.28718 0.66493 0.93511 0.0
C340 C 0.32198 0.67919 0.90841 0.0
C341 C 0.37657 0.69283 0.9126 0.0
C342 C 0.39668 0.69346 0.94332 0.0
C343 C 0.36121 0.6793 0.96922 0.0
C344 C 0.30745 0.66459 0.96536 0.0
C345 C 0.27744 0.65014 -0.00306 0.0
C346 C 0.25524 0.6884 0.00428 0.0
C347 C 0.23199 0.59019 -0.00259 0.0
C348 C 0.32299 0.65993 0.01939 0.0
C349 C 0.37104 0.67713 0.00292 0.0
C350 C 0.41948 0.69177 0.01859 0.0
C351 C 0.41882 0.68885 0.05199 0.0
C352 C 0.36993 0.67069 0.06927 0.0
C353 C 0.32132 0.65551 0.05275 0.0
H354 H 0.69378 0.40197 0.40603 0.0
H355 H 0.65714 0.23963 0.43341 0.0
H356 H 0.64255 0.21229 0.37627 0.0
H357 H 0.59647 0.36405 0.34448 0.0
H358 H 0.6397 0.42072 0.31906 0.0
H359 H 0.64829 0.42697 0.36176 0.0
H360 H 0.74938 0.45461 0.35522 0.0
H361 H 0.74107 0.44822 0.31246 0.0
H362 H 0.76668 0.41052 0.33361 0.0
H363 H 0.62678 0.20216 0.31621 0.0
H364 H 0.61349 0.21029 0.25838 0.0
H365 H 0.66482 0.38066 0.2709 0.0
C366 C 0.68258 0.36049 0.40021 0.0
C367 C 0.6761 0.32269 0.42431 0.0
C368 C 0.66221 0.26919 0.4154 0.0
C369 C 0.65391 0.25341 0.38303 0.0
C370 C 0.6605 0.29188 0.35998 0.0
C371 C 0.67489 0.34443 0.36825 0.0
C372 C 0.67921 0.37823 0.33921 0.0
C373 C 0.63848 0.39867 0.34126 0.0
C374 C 0.73756 0.42569 0.33488 0.0
C375 C 0.66403 0.33627 0.3131 0.0
C376 C 0.65338 0.28668 0.32555 0.0
C377 C 0.63581 0.24095 0.30623 0.0
C378 C 0.62848 0.24593 0.27351 0.0
C379 C 0.63922 0.29631 0.26045 0.0
C380 C 0.65766 0.34213 0.28037 0.0
H381 H 0.39179 0.71335 0.7174 0.0
H382 H 0.23456 0.58032 0.74623 0.0
H383 H 0.21278 0.55111 0.69003 0.0
H384 H 0.34343 0.74576 0.6461 0.0
H385 H 0.40297 0.76278 0.62266 0.0
H386 H 0.40839 0.77186 0.66539 0.0
H387 H 0.45178 0.71089 0.66961 0.0
H388 H 0.44716 0.70222 0.62685 0.0
H389 H 0.41696 0.64347 0.65264 0.0
H390 H 0.20829 0.53512 0.63186 0.0
H391 H 0.22085 0.53387 0.57351 0.0
H392 H 0.3774 0.68144 0.58075 0.0
C393 C 0.35327 0.67762 0.71174 0.0
C394 C 0.31498 0.64847 0.73589 0.0
C395 C 0.26436 0.60276 0.72785 0.0
C396 C 0.25163 0.58599 0.6961 0.0
C397 C 0.28964 0.61604 0.67267 0.0
C398 C 0.33933 0.66098 0.67992 0.0
C399 C 0.37171 0.68702 0.64981 0.0
C400 C 0.38223 0.74531 0.64577 0.0
C401 C 0.42505 0.6858 0.64973 0.0
C402 C 0.33262 0.64927 0.62467 0.0
C403 C 0.2857 0.60849 0.63853 0.0
C404 C 0.24454 0.56707 0.62062 0.0
C405 C 0.25195 0.5667 0.58762 0.0
C406 C 0.29962 0.60794 0.57296 0.0
C407 C 0.34008 0.65026 0.59154 0.0
loop_
_geom_bond_atom_site_label_1
_geom_bond_atom_site_label_2
_geom_bond_distance
_geom_bond_site_symmetry_2
_ccdc_geom_bond_type
Co0 O1 2.216 . S
Co0 O2 2.091 . S
Co0 O4 2.004 . S
Co0 O10 2.021 . S
Co0 O12 2.137 . S
Co0 O13 2.244 . S
O1 Co0 2.216 . S
O1 C8 1.247 . S
O2 Co0 2.091 . S
O2 C8 1.261 . S
C3 O12 1.247 . S
C3 O13 1.272 . S
O4 Co0 2.004 . S
O4 C9 1.259 . S
Co5 O6 2.061 . S
Co5 O11 2.052 . S
Co5 O13 2.135 . S
O6 Co5 2.061 . S
O6 C9 1.235 . S
C7 O10 1.238 . S
C7 O11 1.241 . S
C8 O1 1.247 . S
C8 O2 1.261 . S
C9 O4 1.259 . S
C9 O6 1.235 . S
O10 Co0 2.021 . S
O10 C7 1.238 . S
O11 Co5 2.052 . S
O11 C7 1.241 . S
O12 Co0 2.137 . S
O12 C3 1.247 . S
O13 Co0 2.244 . S
O13 C3 1.272 . S
O13 Co5 2.135 . S
Co14 O15 2.216 . S
Co14 O16 2.091 . S
Co14 O18 2.004 . S
Co14 O24 2.021 . S
Co14 O26 2.137 . S
Co14 O27 2.244 . S
O15 Co14 2.216 . S
O15 C22 1.247 . S
O16 Co14 2.091 . S
O16 C22 1.261 . S
C17 O26 1.247 . S
C17 O27 1.272 . S
O18 Co14 2.004 . S
O18 C23 1.259 . S
Co19 O20 2.061 . S
Co19 O25 2.052 . S
Co19 O27 2.135 . S
O20 Co19 2.061 . S
O20 C23 1.235 . S
C21 O24 1.238 . S
C21 O25 1.241 . S
C22 O15 1.247 . S
C22 O16 1.261 . S
C23 O18 1.259 . S
C23 O20 1.235 . S
O24 Co14 2.021 . S
O24 C21 1.238 . S
O25 Co19 2.052 . S
O25 C21 1.241 . S
O26 Co14 2.137 . S
O26 C17 1.247 . S
O27 Co14 2.244 . S
O27 C17 1.272 . S
O27 Co19 2.135 . S
Co28 O29 2.216 . S
Co28 O30 2.091 . S
Co28 O32 2.004 . S
Co28 O38 2.021 . S
Co28 O40 2.137 . S
Co28 O41 2.244 . S
O29 Co28 2.216 . S
O29 C36 1.247 . S
O30 Co28 2.091 . S
O30 C36 1.261 . S
C31 O40 1.247 . S
C31 O41 1.272 . S
O32 Co28 2.004 . S
O32 C37 1.259 . S
Co33 O34 2.061 . S
Co33 O39 2.052 . S
Co33 O41 2.135 . S
O34 Co33 2.061 . S
O34 C37 1.235 . S
C35 O38 1.238 . S
C35 O39 1.241 . S
C36 O29 1.247 . S
C36 O30 1.261 . S
C37 O32 1.259 . S
C37 O34 1.235 . S
O38 Co28 2.021 . S
O38 C35 1.238 . S
O39 Co33 2.052 . S
O39 C35 1.241 . S
O40 Co28 2.137 . S
O40 C31 1.247 . S
O41 Co28 2.244 . S
O41 C31 1.272 . S
O41 Co33 2.135 . S
Co42 O43 2.216 . S
Co42 O44 2.091 . S
Co42 O46 2.004 . S
Co42 O52 2.021 . S
Co42 O54 2.137 . S
Co42 O55 2.244 . S
O43 Co42 2.216 . S
O43 C50 1.247 . S
O44 Co42 2.091 . S
O44 C50 1.261 . S
C45 O54 1.247 . S
C45 O55 1.272 . S
O46 Co42 2.004 . S
O46 C51 1.259 . S
Co47 O48 2.061 . S
Co47 O53 2.052 . S
Co47 O55 2.135 . S
O48 Co47 2.061 . S
O48 C51 1.235 . S
C49 O52 1.238 . S
C49 O53 1.241 . S
C50 O43 1.247 . S
C50 O44 1.261 . S
C51 O46 1.259 . S
C51 O48 1.235 . S
O52 Co42 2.021 . S
O52 C49 1.238 . S
O53 Co47 2.052 . S
O53 C49 1.241 . S
O54 Co42 2.137 . S
O54 C45 1.247 . S
O55 Co42 2.244 . S
O55 C45 1.272 . S
O55 Co47 2.135 . S
Co56 O57 2.216 . S
Co56 O58 2.091 . S
Co56 O60 2.004 . S
Co56 O66 2.021 . S
Co56 O68 2.137 . S
Co56 O69 2.244 . S
O57 Co56 2.216 . S
O57 C64 1.247 . S
O58 Co56 2.091 . S
O58 C64 1.261 . S
C59 O68 1.247 . S
C59 O69 1.272 . S
O60 Co56 2.004 . S
O60 C65 1.259 . S
Co61 O62 2.061 . S
Co61 O67 2.052 . S
Co61 O69 2.135 . S
O62 Co61 2.061 . S
O62 C65 1.235 . S
C63 O66 1.238 . S
C63 O67 1.241 . S
C64 O57 1.247 . S
C64 O58 1.261 . S
C65 O60 1.259 . S
C65 O62 1.235 . S
O66 Co56 2.021 . S
O66 C63 1.238 . S
O67 Co61 2.052 . S
O67 C63 1.241 . S
O68 Co56 2.137 . S
O68 C59 1.247 . S
O69 Co56 2.244 . S
O69 C59 1.272 . S
O69 Co61 2.135 . S
Co70 O71 2.216 . S
Co70 O72 2.091 . S
Co70 O74 2.004 . S
Co70 O80 2.021 . S
Co70 O82 2.137 . S
Co70 O83 2.244 . S
O71 Co70 2.216 . S
O71 C78 1.247 . S
O72 Co70 2.091 . S
O72 C78 1.261 . S
C73 O82 1.247 . S
C73 O83 1.272 . S
O74 Co70 2.004 . S
O74 C79 1.259 . S
Co75 O76 2.061 . S
Co75 O81 2.052 . S
Co75 O83 2.135 . S
O76 Co75 2.061 . S
O76 C79 1.235 . S
C77 O80 1.238 . S
C77 O81 1.241 . S
C78 O71 1.247 . S
C78 O72 1.261 . S
C79 O74 1.259 . S
C79 O76 1.235 . S
O80 Co70 2.021 . S
O80 C77 1.238 . S
O81 Co75 2.052 . S
O81 C77 1.241 . S
O82 Co70 2.137 . S
O82 C73 1.247 . S
O83 Co70 2.244 . S
O83 C73 1.272 . S
O83 Co75 2.135 . S
H84 C96 0.930 . S
H85 C98 0.930 . S
H86 C99 0.930 . S
H87 C103 0.959 . S
H88 C103 0.959 1_565 S
H89 C103 0.961 . S
H90 C104 0.960 1_545 S
H91 C104 0.961 . S
H92 C104 0.959 . S
H93 C107 0.929 . S
H94 C108 0.931 . S
H95 C110 0.930 . S
C96 H84 0.930 . S
C96 C97 1.399 . S
C96 C101 1.399 . S
C97 C96 1.399 . S
C97 C98 1.376 . S
C98 H85 0.930 . S
C98 C97 1.376 . S
C98 C99 1.388 . S
C99 H86 0.930 . S
C99 C98 1.388 . S
C99 C100 1.390 . S
C100 C99 1.390 . S
C100 C101 1.394 . S
C100 C106 1.465 1_545 S
C101 C96 1.399 . S
C101 C100 1.394 . S
C101 C102 1.516 . S
C102 C101 1.516 . S
C102 C103 1.502 . S
C102 C104 1.561 1_545 S
C102 C105 1.526 1_545 S
C103 H87 0.959 . S
C103 H88 0.959 1_545 S
C103 H89 0.961 . S
C103 C102 1.502 . S
C104 H90 0.960 1_565 S
C104 H91 0.961 . S
C104 H92 0.959 . S
C104 C102 1.561 1_565 S
C105 C102 1.526 1_565 S
C105 C106 1.396 . S
C105 C110 1.390 . S
C106 C100 1.465 1_565 S
C106 C105 1.396 . S
C106 C107 1.399 . S
C107 H93 0.929 . S
C107 C106 1.399 . S
C107 C108 1.385 . S
C108 H94 0.931 . S
C108 C107 1.385 . S
C108 C109 1.389 . S
C109 C108 1.389 . S
C109 C110 1.387 . S
C110 H95 0.930 . S
C110 C105 1.390 . S
C110 C109 1.387 . S
H111 C123 0.930 . S
H112 C125 0.930 . S
H113 C126 0.930 . S
H114 C130 0.959 . S
H115 C130 0.959 . S
H116 C130 0.961 . S
H117 C131 0.960 . S
H118 C131 0.961 . S
H119 C131 0.959 . S
H120 C134 0.929 . S
H121 C135 0.931 . S
H122 C137 0.930 . S
C123 H111 0.930 . S
C123 C124 1.399 . S
C123 C128 1.399 . S
C124 C123 1.399 . S
C124 C125 1.376 . S
C125 H112 0.930 . S
C125 C124 1.376 . S
C125 C126 1.388 . S
C126 H113 0.930 . S
C126 C125 1.388 . S
C126 C127 1.390 . S
C127 C126 1.390 . S
C127 C128 1.394 . S
C127 C133 1.465 . S
C128 C123 1.399 . S
C128 C127 1.394 . S
C128 C129 1.516 . S
C129 C128 1.516 . S
C129 C130 1.502 . S
C129 C131 1.561 . S
C129 C132 1.526 . S
C130 H114 0.959 . S
C130 H115 0.959 . S
C130 H116 0.961 . S
C130 C129 1.502 . S
C131 H117 0.960 . S
C131 H118 0.961 . S
C131 H119 0.959 . S
C131 C129 1.561 . S
C132 C129 1.526 . S
C132 C133 1.396 . S
C132 C137 1.390 . S
C133 C127 1.465 . S
C133 C132 1.396 . S
C133 C134 1.399 . S
C134 H120 0.929 . S
C134 C133 1.399 . S
C134 C135 1.385 . S
C135 H121 0.931 . S
C135 C134 1.385 . S
C135 C136 1.389 . S
C136 C135 1.389 . S
C136 C137 1.387 . S
C137 H122 0.930 . S
C137 C132 1.390 . S
C137 C136 1.387 . S
H138 C150 0.930 . S
H139 C152 0.930 . S
H140 C153 0.930 . S
H141 C157 0.959 . S
H142 C157 0.959 1_455 S
H143 C157 0.961 . S
H144 C158 0.960 . S
H145 C158 0.961 1_455 S
H146 C158 0.959 1_455 S
H147 C161 0.929 . S
H148 C162 0.931 . S
H149 C164 0.930 . S
C150 H138 0.930 . S
C150 C151 1.399 . S
C150 C155 1.399 . S
C151 C150 1.399 . S
C151 C152 1.376 . S
C152 H139 0.930 . S
C152 C151 1.376 . S
C152 C153 1.388 . S
C153 H140 0.930 . S
C153 C152 1.388 . S
C153 C154 1.390 . S
C154 C153 1.390 . S
C154 C155 1.394 . S
C154 C160 1.465 1_655 S
C155 C150 1.399 . S
C155 C154 1.394 . S
C155 C156 1.516 . S
C156 C155 1.516 . S
C156 C157 1.502 . S
C156 C158 1.561 . S
C156 C159 1.526 1_655 S
C157 H141 0.959 . S
C157 H142 0.959 1_655 S
C157 H143 0.961 . S
C157 C156 1.502 . S
C158 H144 0.960 . S
C158 H145 0.961 1_655 S
C158 H146 0.959 1_655 S
C158 C156 1.561 . S
C159 C156 1.526 1_455 S
C159 C160 1.396 . S
C159 C164 1.390 . S
C160 C154 1.465 1_455 S
C160 C159 1.396 . S
C160 C161 1.399 . S
C161 H147 0.929 . S
C161 C160 1.399 . S
C161 C162 1.385 . S
C162 H148 0.931 . S
C162 C161 1.385 . S
C162 C163 1.389 . S
C163 C162 1.389 . S
C163 C164 1.387 . S
C164 H149 0.930 . S
C164 C159 1.390 . S
C164 C163 1.387 . S
H165 C177 0.930 . S
H166 C179 0.930 . S
H167 C180 0.930 . S
H168 C184 0.959 . S
H169 C184 0.959 . S
H170 C184 0.961 1_455 S
H171 C185 0.960 . S
H172 C185 0.961 1_655 S
H173 C185 0.959 . S
H174 C188 0.929 . S
H175 C189 0.931 . S
H176 C191 0.930 . S
C177 H165 0.930 . S
C177 C178 1.399 . S
C177 C182 1.399 . S
C178 C177 1.399 . S
C178 C179 1.376 . S
C179 H166 0.930 . S
C179 C178 1.376 . S
C179 C180 1.388 . S
C180 H167 0.930 . S
C180 C179 1.388 . S
C180 C181 1.390 . S
C181 C180 1.390 . S
C181 C182 1.394 . S
C181 C187 1.465 1_455 S
C182 C177 1.399 . S
C182 C181 1.394 . S
C182 C183 1.516 1_455 S
C183 C182 1.516 1_655 S
C183 C184 1.502 . S
C183 C185 1.561 1_655 S
C183 C186 1.526 . S
C184 H168 0.959 . S
C184 H169 0.959 . S
C184 H170 0.961 1_655 S
C184 C183 1.502 . S
C185 H171 0.960 . S
C185 H172 0.961 1_455 S
C185 H173 0.959 . S
C185 C183 1.561 1_455 S
C186 C183 1.526 . S
C186 C187 1.396 . S
C186 C191 1.390 . S
C187 C181 1.465 1_655 S
C187 C186 1.396 . S
C187 C188 1.399 . S
C188 H174 0.929 . S
C188 C187 1.399 . S
C188 C189 1.385 . S
C189 H175 0.931 . S
C189 C188 1.385 . S
C189 C190 1.389 . S
C190 C189 1.389 . S
C190 C191 1.387 . S
C191 H176 0.930 . S
C191 C186 1.390 . S
C191 C190 1.387 . S
H192 C204 0.930 . S
H193 C206 0.930 . S
H194 C207 0.930 . S
H195 C211 0.959 . S
H196 C211 0.959 1_545 S
H197 C211 0.961 . S
H198 C212 0.960 . S
H199 C212 0.961 1_545 S
H200 C212 0.959 . S
H201 C215 0.929 . S
H202 C216 0.931 . S
H203 C218 0.930 . S
C204 H192 0.930 . S
C204 C205 1.399 . S
C204 C209 1.399 . S
C205 C204 1.399 . S
C205 C206 1.376 . S
C206 H193 0.930 . S
C206 C205 1.376 . S
C206 C207 1.388 . S
C207 H194 0.930 . S
C207 C206 1.388 . S
C207 C208 1.390 . S
C208 C207 1.390 . S
C208 C209 1.394 . S
C208 C214 1.465 1_565 S
C209 C204 1.399 . S
C209 C208 1.394 . S
C209 C210 1.516 . S
C210 C209 1.516 . S
C210 C211 1.502 . S
C210 C212 1.561 . S
C210 C213 1.526 1_565 S
C211 H195 0.959 . S
C211 H196 0.959 1_565 S
C211 H197 0.961 . S
C211 C210 1.502 . S
C212 H198 0.960 . S
C212 H199 0.961 1_565 S
C212 H200 0.959 . S
C212 C210 1.561 . S
C213 C210 1.526 1_545 S
C213 C214 1.396 . S
C213 C218 1.390 . S
C214 C208 1.465 1_545 S
C214 C213 1.396 . S
C214 C215 1.399 . S
C215 H201 0.929 . S
C215 C214 1.399 . S
C215 C216 1.385 . S
C216 H202 0.931 . S
C216 C215 1.385 . S
C216 C217 1.389 . S
C217 C216 1.389 . S
C217 C218 1.387 . S
C218 H203 0.930 . S
C218 C213 1.390 . S
C218 C217 1.387 . S
H219 C231 0.930 . S
H220 C233 0.930 . S
H221 C234 0.930 . S
H222 C238 0.959 . S
H223 C238 0.959 . S
H224 C238 0.961 . S
H225 C239 0.960 . S
H226 C239 0.961 . S
H227 C239 0.959 . S
H228 C242 0.929 . S
H229 C243 0.931 . S
H230 C245 0.930 . S
C231 H219 0.930 . S
C231 C232 1.399 . S
C231 C236 1.399 . S
C232 C231 1.399 . S
C232 C233 1.376 . S
C233 H220 0.930 . S
C233 C232 1.376 . S
C233 C234 1.388 . S
C234 H221 0.930 . S
C234 C233 1.388 . S
C234 C235 1.390 . S
C235 C234 1.390 . S
C235 C236 1.394 . S
C235 C241 1.465 . S
C236 C231 1.399 . S
C236 C235 1.394 . S
C236 C237 1.516 . S
C237 C236 1.516 . S
C237 C238 1.502 . S
C237 C239 1.561 . S
C237 C240 1.526 . S
C238 H222 0.959 . S
C238 H223 0.959 . S
C238 H224 0.961 . S
C238 C237 1.502 . S
C239 H225 0.960 . S
C239 H226 0.961 . S
C239 H227 0.959 . S
C239 C237 1.561 . S
C240 C237 1.526 . S
C240 C241 1.396 . S
C240 C245 1.390 . S
C241 C235 1.465 . S
C241 C240 1.396 . S
C241 C242 1.399 . S
C242 H228 0.929 . S
C242 C241 1.399 . S
C242 C243 1.385 . S
C243 H229 0.931 . S
C243 C242 1.385 . S
C243 C244 1.389 . S
C244 C243 1.389 . S
C244 C245 1.387 . S
C245 H230 0.930 . S
C245 C240 1.390 . S
C245 C244 1.387 . S
H246 C258 0.930 . S
H247 C260 0.930 . S
H248 C261 0.930 . S
H249 C265 0.959 . S
H250 C265 0.959 . S
H251 C265 0.961 1_556 S
H252 C266 0.931 1_556 S
H253 C266 0.988 . S
H254 C266 0.962 . S
H255 C269 0.929 . S
H256 C270 0.931 . S
H257 C272 0.930 . S
C258 H246 0.930 . S
C258 C259 1.399 . S
C258 C263 1.399 . S
C259 C258 1.399 . S
C259 C260 1.376 . S
C260 H247 0.930 . S
C260 C259 1.376 . S
C260 C261 1.388 . S
C261 H248 0.930 . S
C261 C260 1.388 . S
C261 C262 1.390 . S
C262 C261 1.390 . S
C262 C263 1.394 . S
C262 C268 1.465 1_556 S
C263 C258 1.399 . S
C263 C262 1.394 . S
C263 C264 1.493 1_556 S
C264 C263 1.493 1_554 S
C264 C265 1.503 . S
C264 C266 1.561 . S
C264 C267 1.549 . S
C265 H249 0.959 . S
C265 H250 0.959 . S
C265 H251 0.961 1_554 S
C265 C264 1.503 . S
C266 H252 0.931 1_554 S
C266 H253 0.988 . S
C266 H254 0.962 . S
C266 C264 1.561 . S
C267 C264 1.549 . S
C267 C268 1.396 . S
C267 C272 1.390 . S
C268 C262 1.465 1_554 S
C268 C267 1.396 . S
C268 C269 1.399 . S
C269 H255 0.929 . S
C269 C268 1.399 . S
C269 C270 1.385 . S
C270 H256 0.931 . S
C270 C269 1.385 . S
C270 C271 1.389 . S
C271 C270 1.389 . S
C271 C272 1.387 . S
C272 H257 0.930 . S
C272 C267 1.390 . S
C272 C271 1.387 . S
H273 C285 0.930 . S
H274 C287 0.930 . S
H275 C288 0.930 . S
H276 C292 0.959 . S
H277 C292 0.959 . S
H278 C292 0.961 . S
H279 C293 0.960 . S
H280 C293 0.961 . S
H281 C293 0.959 . S
H282 C296 0.929 . S
H283 C297 0.931 . S
H284 C299 0.930 . S
C285 H273 0.930 . S
C285 C286 1.399 . S
C285 C290 1.399 . S
C286 C285 1.399 . S
C286 C287 1.376 . S
C287 H274 0.930 . S
C287 C286 1.376 . S
C287 C288 1.388 . S
C288 H275 0.930 . S
C288 C287 1.388 . S
C288 C289 1.390 . S
C289 C288 1.390 . S
C289 C290 1.394 . S
C289 C295 1.465 . S
C290 C285 1.399 . S
C290 C289 1.394 . S
C290 C291 1.516 . S
C291 C290 1.516 . S
C291 C292 1.502 . S
C291 C293 1.561 . S
C291 C294 1.526 . S
C292 H276 0.959 . S
C292 H277 0.959 . S
C292 H278 0.961 . S
C292 C291 1.502 . S
C293 H279 0.960 . S
C293 H280 0.961 . S
C293 H281 0.959 . S
C293 C291 1.561 . S
C294 C291 1.526 . S
C294 C295 1.396 . S
C294 C299 1.390 . S
C295 C289 1.465 . S
C295 C294 1.396 . S
C295 C296 1.399 . S
C296 H282 0.929 . S
C296 C295 1.399 . S
C296 C297 1.385 . S
C297 H283 0.931 . S
C297 C296 1.385 . S
C297 C298 1.389 . S
C298 C297 1.389 . S
C298 C299 1.387 . S
C299 H284 0.930 . S
C299 C294 1.390 . S
C299 C298 1.387 . S
H300 C312 0.930 . S
H301 C314 0.930 . S
H302 C315 0.930 . S
H303 C319 0.959 . S
H304 C319 0.959 . S
H305 C319 0.961 . S
H306 C320 0.960 . S
H307 C320 0.961 . S
H308 C320 0.959 . S
H309 C323 0.929 . S
H310 C324 0.931 . S
H311 C326 0.930 . S
C312 H300 0.930 . S
C312 C313 1.399 . S
C312 C317 1.399 . S
C313 C312 1.399 . S
C313 C314 1.376 . S
C314 H301 0.930 . S
C314 C313 1.376 . S
C314 C315 1.388 . S
C315 H302 0.930 . S
C315 C314 1.388 . S
C315 C316 1.390 . S
C316 C315 1.390 . S
C316 C317 1.394 . S
C316 C322 1.465 . S
C317 C312 1.399 . S
C317 C316 1.394 . S
C317 C318 1.516 . S
C318 C317 1.516 . S
C318 C319 1.502 . S
C318 C320 1.561 . S
C318 C321 1.526 . S
C319 H303 0.959 . S
C319 H304 0.959 . S
C319 H305 0.961 . S
C319 C318 1.502 . S
C320 H306 0.960 . S
C320 H307 0.961 . S
C320 H308 0.959 . S
C320 C318 1.561 . S
C321 C318 1.526 . S
C321 C322 1.396 . S
C321 C326 1.390 . S
C322 C316 1.465 . S
C322 C321 1.396 . S
C322 C323 1.399 . S
C323 H309 0.929 . S
C323 C322 1.399 . S
C323 C324 1.385 . S
C324 H310 0.931 . S
C324 C323 1.385 . S
C324 C325 1.389 . S
C325 C324 1.389 . S
C325 C326 1.387 . S
C326 H311 0.930 . S
C326 C321 1.390 . S
C326 C325 1.387 . S
H327 C339 0.930 . S
H328 C341 0.930 . S
H329 C342 0.930 . S
H330 C346 0.959 1_554 S
H331 C346 0.959 1_554 S
H332 C346 0.961 . S
H333 C347 0.983 . S
H334 C347 0.941 1_554 S
H335 C347 0.957 1_554 S
H336 C350 0.929 . S
H337 C351 0.931 . S
H338 C353 0.930 . S
C339 H327 0.930 . S
C339 C340 1.399 . S
C339 C344 1.399 . S
C340 C339 1.399 . S
C340 C341 1.376 . S
C341 H328 0.930 . S
C341 C340 1.376 . S
C341 C342 1.388 . S
C342 H329 0.930 . S
C342 C341 1.388 . S
C342 C343 1.390 . S
C343 C342 1.390 . S
C343 C344 1.394 . S
C343 C349 1.465 1_556 S
C344 C339 1.399 . S
C344 C343 1.394 . S
C344 C345 1.526 . S
C345 C344 1.526 . S
C345 C346 1.502 . S
C345 C347 1.561 . S
C345 C348 1.516 1_556 S
C346 H330 0.959 1_556 S
C346 H331 0.959 1_556 S
C346 H332 0.961 . S
C346 C345 1.502 . S
C347 H333 0.983 . S
C347 H334 0.941 1_556 S
C347 H335 0.957 1_556 S
C347 C345 1.561 . S
C348 C345 1.516 1_554 S
C348 C349 1.396 . S
C348 C353 1.390 . S
C349 C343 1.465 1_554 S
C349 C348 1.396 . S
C349 C350 1.399 . S
C350 H336 0.929 . S
C350 C349 1.399 . S
C350 C351 1.385 . S
C351 H337 0.931 . S
C351 C350 1.385 . S
C351 C352 1.389 . S
C352 C351 1.389 . S
C352 C353 1.387 . S
C353 H338 0.930 . S
C353 C348 1.390 . S
C353 C352 1.387 . S
H354 C366 0.930 . S
H355 C368 0.930 . S
H356 C369 0.930 . S
H357 C373 0.959 . S
H358 C373 0.959 . S
H359 C373 0.961 . S
H360 C374 0.960 . S
H361 C374 0.961 . S
H362 C374 0.959 . S
H363 C377 0.929 . S
H364 C378 0.931 . S
H365 C380 0.930 . S
C366 H354 0.930 . S
C366 C367 1.399 . S
C366 C371 1.399 . S
C367 C366 1.399 . S
C367 C368 1.376 . S
C368 H355 0.930 . S
C368 C367 1.376 . S
C368 C369 1.388 . S
C369 H356 0.930 . S
C369 C368 1.388 . S
C369 C370 1.390 . S
C370 C369 1.390 . S
C370 C371 1.394 . S
C370 C376 1.465 . S
C371 C366 1.399 . S
C371 C370 1.394 . S
C371 C372 1.516 . S
C372 C371 1.516 . S
C372 C373 1.502 . S
C372 C374 1.561 . S
C372 C375 1.526 . S
C373 H357 0.959 . S
C373 H358 0.959 . S
C373 H359 0.961 . S
C373 C372 1.502 . S
C374 H360 0.960 . S
C374 H361 0.961 . S
C374 H362 0.959 . S
C374 C372 1.561 . S
C375 C372 1.526 . S
C375 C376 1.396 . S
C375 C380 1.390 . S
C376 C370 1.465 . S
C376 C375 1.396 . S
C376 C377 1.399 . S
C377 H363 0.929 . S
C377 C376 1.399 . S
C377 C378 1.385 . S
C378 H364 0.931 . S
C378 C377 1.385 . S
C378 C379 1.389 . S
C379 C378 1.389 . S
C379 C380 1.387 . S
C380 H365 0.930 . S
C380 C375 1.390 . S
C380 C379 1.387 . S
H381 C393 0.930 . S
H382 C395 0.930 . S
H383 C396 0.930 . S
H384 C400 0.959 . S
H385 C400 0.959 . S
H386 C400 0.961 . S
H387 C401 0.960 . S
H388 C401 0.961 . S
H389 C401 0.959 . S
H390 C404 0.929 . S
H391 C405 0.931 . S
H392 C407 0.930 . S
C393 H381 0.930 . S
C393 C394 1.399 . S
C393 C398 1.399 . S
C394 C393 1.399 . S
C394 C395 1.376 . S
C395 H382 0.930 . S
C395 C394 1.376 . S
C395 C396 1.388 . S
C396 H383 0.930 . S
C396 C395 1.388 . S
C396 C397 1.390 . S
C397 C396 1.390 . S
C397 C398 1.394 . S
C397 C403 1.465 . S
C398 C393 1.399 . S
C398 C397 1.394 . S
C398 C399 1.516 . S
C399 C398 1.516 . S
C399 C400 1.502 . S
C399 C401 1.561 . S
C399 C402 1.526 . S
C400 H384 0.959 . S
C400 H385 0.959 . S
C400 H386 0.961 . S
C400 C399 1.502 . S
C401 H387 0.960 . S
C401 H388 0.961 . S
C401 H389 0.959 . S
C401 C399 1.561 . S
C402 C399 1.526 . S
C402 C403 1.396 . S
C402 C407 1.390 . S
C403 C397 1.465 . S
C403 C402 1.396 . S
C403 C404 1.399 . S
C404 H390 0.929 . S
C404 C403 1.399 . S
C404 C405 1.385 . S
C405 H391 0.931 . S
C405 C404 1.385 . S
C405 C406 1.389 . S
C406 C405 1.389 . S
C406 C407 1.387 . S
C407 H392 0.930 . S
C407 C402 1.390 . S
C407 C406 1.387 . S
C97 C8 1.411 . S
C109 C50 1.409 . S
C124 C22 1.404 . S
C136 C64 1.404 . S
C151 C36 1.411 . S
C163 C78 1.407 . S
C178 C23 1.458 . S
C190 C65 1.478 . S
C205 C79 1.489 . S
C217 C37 1.448 . S
C232 C51 1.490 . S
C244 C9 1.446 . S
C259 C31 1.210 . S
C271 C7 1.261 . S
C286 C45 1.266 . S
C298 C21 1.228 . S
C313 C35 1.285 . S
C325 C59 1.187 . S
C340 C73 1.278 . S
C352 C49 1.237 . S
C367 C63 1.260 . S
C379 C3 1.212 . S
C394 C77 1.293 . S
C406 C17 1.192 . S
