# Generated by pormake.
# Topology crb, (4)-cn, num edge types: 1
# Building blocks:
#     Node 0, Type 0, BuildingBlock: QUQFOY_clean_sbu_3, # of connection points: 4
#     Node 1, Type 0, BuildingBlock: QUQFOY_clean_sbu_3, # of connection points: 4
#     Node 2, Type 0, BuildingBlock: QUQFOY_clean_sbu_3, # of connection points: 4
#     Node 3, Type 0, BuildingBlock: QUQFOY_clean_sbu_3, # of connection points: 4
#     Node 4, Type 0, BuildingBlock: QUQFOY_clean_sbu_3, # of connection points: 4
#     Node 5, Type 0, BuildingBlock: QUQFOY_clean_sbu_3, # of connection points: 4
#     Node 6, Type 0, BuildingBlock: QUQFOY_clean_sbu_3, # of connection points: 4
#     Node 7, Type 0, BuildingBlock: QUQFOY_clean_sbu_3, # of connection points: 4
#     Edge 8, Type (0, 0), BuildingBlock: KIFKEQ_clean_linker_1, # of connection points: 2
#     Edge 9, Type (0, 0), BuildingBlock: KIFKEQ_clean_linker_1, # of connection points: 2
#     Edge 10, Type (0, 0), BuildingBlock: KIFKEQ_clean_linker_1, # of connection points: 2
#     Edge 11, Type (0, 0), BuildingBlock: KIFKEQ_clean_linker_1, # of connection points: 2
#     Edge 12, Type (0, 0), BuildingBlock: KIFKEQ_clean_linker_1, # of connection points: 2
#     Edge 13, Type (0, 0), BuildingBlock: KIFKEQ_clean_linker_1, # of connection points: 2
#     Edge 14, Type (0, 0), BuildingBlock: KIFKEQ_clean_linker_1, # of connection points: 2
#     Edge 15, Type (0, 0), BuildingBlock: KIFKEQ_clean_linker_1, # of connection points: 2
#     Edge 16, Type (0, 0), BuildingBlock: KIFKEQ_clean_linker_1, # of connection points: 2
#     Edge 17, Type (0, 0), BuildingBlock: KIFKEQ_clean_linker_1, # of connection points: 2
#     Edge 18, Type (0, 0), BuildingBlock: KIFKEQ_clean_linker_1, # of connection points: 2
#     Edge 19, Type (0, 0), BuildingBlock: KIFKEQ_clean_linker_1, # of connection points: 2
#     Edge 20, Type (0, 0), BuildingBlock: KIFKEQ_clean_linker_1, # of connection points: 2
#     Edge 21, Type (0, 0), BuildingBlock: KIFKEQ_clean_linker_1, # of connection points: 2
#     Edge 22, Type (0, 0), BuildingBlock: KIFKEQ_clean_linker_1, # of connection points: 2
#     Edge 23, Type (0, 0), BuildingBlock: KIFKEQ_clean_linker_1, # of connection points: 2
# Relax obj value: 0.113
# Max RMSD: 0.155
# Mean RMSD: 0.155
data_MOF--net-crb--node1-QUQFOY_clean_sbu_3--edge1-KIFKEQ_clean_linker_1
_symmetry_space_group_name_H-M    P1
_symmetry_Int_Tables_number       1
_symmetry_cell_setting            triclinic
loop_
_symmetry_equiv_pos_as_xyz
'x, y, z'
_cell_length_a     46.623009
_cell_length_b     45.826826
_cell_length_c     24.883882
_cell_angle_alpha  90.051383
_cell_angle_beta   89.607414
_cell_angle_gamma 89.436138
loop_
_atom_site_label
_atom_site_type_symbol
_atom_site_fract_x
_atom_site_fract_y
_atom_site_fract_z
_atom_type_partial_charge
C0 C 0.3771 0.31036 0.06211 0.0
O1 O 0.36969 0.3151 0.11057 0.0
Cd2 Cd 0.32107 0.32144 0.13993 0.0
O3 O 0.35835 0.30782 0.02535 0.0
Cd4 Cd 0.30522 0.30838 0.019 0.0
C5 C 0.30188 0.37888 0.06055 0.0
O6 O 0.29729 0.28073 0.10014 0.0
O7 O 0.25907 0.29963 0.06612 0.0
O8 O 0.30681 0.27089 0.94843 0.0
C9 C 0.27023 0.28279 0.1007 0.0
O10 O 0.30574 0.37002 0.10846 0.0
C11 C 0.29127 0.28539 0.91606 0.0
O12 O 0.30244 0.36104 0.02144 0.0
O13 O 0.2829 0.31049 0.93146 0.0
C14 C 0.58795 0.31318 0.97074 0.0
O15 O 0.59499 0.3189 0.92253 0.0
Cd16 Cd 0.64324 0.3267 0.89395 0.0
O17 O 0.60697 0.31003 0.00696 0.0
Cd18 Cd 0.66023 0.30981 0.01328 0.0
C19 C 0.66337 0.38138 0.97955 0.0
O20 O 0.66828 0.28506 0.92907 0.0
O21 O 0.7065 0.30203 0.96545 0.0
O22 O 0.66087 0.26789 0.07391 0.0
C23 C 0.69534 0.28669 0.92881 0.0
O24 O 0.65698 0.37403 0.93177 0.0
C25 C 0.67289 0.28125 0.11223 0.0
O26 O 0.66503 0.36234 0.01653 0.0
O27 O 0.67857 0.30798 0.10481 0.0
C28 C 0.58647 0.66164 0.08335 0.0
O29 O 0.593 0.65476 0.1312 0.0
Cd30 Cd 0.64095 0.64914 0.16304 0.0
O31 O 0.60599 0.66615 0.04824 0.0
Cd32 Cd 0.65932 0.6654 0.04417 0.0
C33 C 0.663 0.59385 0.08069 0.0
O34 O 0.66535 0.69115 0.12817 0.0
O35 O 0.70449 0.67468 0.09247 0.0
O36 O 0.65853 0.70409 0.97584 0.0
C37 C 0.69246 0.68994 0.12882 0.0
O38 O 0.65678 0.6015 0.12859 0.0
C39 C 0.67442 0.69011 0.94284 0.0
O40 O 0.66398 0.61266 0.04326 0.0
O41 O 0.68274 0.66483 0.95699 0.0
C42 C 0.37787 0.66084 0.97919 0.0
O43 O 0.3713 0.65319 0.93181 0.0
Cd44 Cd 0.32313 0.64919 0.90026 0.0
O45 O 0.35837 0.66631 0.01406 0.0
Cd46 Cd 0.30516 0.66543 0.01723 0.0
C47 C 0.30187 0.59417 0.98148 0.0
O48 O 0.2995 0.69237 0.93397 0.0
O49 O 0.26046 0.6752 0.96725 0.0
O50 O 0.30809 0.70163 0.0902 0.0
C51 C 0.27243 0.69136 0.93265 0.0
O52 O 0.30552 0.60217 0.93298 0.0
C53 C 0.28796 0.69027 0.1175 0.0
O54 O 0.30306 0.61258 0.01959 0.0
O55 O 0.27666 0.66745 0.09854 0.0
C56 C 0.87708 0.81159 0.58105 0.0
O57 O 0.87066 0.8169 0.62979 0.0
Cd58 Cd 0.82287 0.82505 0.66156 0.0
O59 O 0.85757 0.80912 0.54564 0.0
Cd60 Cd 0.80414 0.81002 0.54271 0.0
C61 C 0.80239 0.88134 0.57982 0.0
O62 O 0.79764 0.7839 0.62617 0.0
O63 O 0.75877 0.80154 0.59239 0.0
O64 O 0.80476 0.77156 0.47384 0.0
C65 C 0.77056 0.78573 0.62785 0.0
O66 O 0.80894 0.87346 0.62727 0.0
C67 C 0.78872 0.7856 0.44164 0.0
O68 O 0.80038 0.86261 0.54241 0.0
O69 O 0.78043 0.81083 0.4564 0.0
C70 C 0.08671 0.81147 0.4798 0.0
O71 O 0.09329 0.81506 0.43071 0.0
Cd72 Cd 0.14141 0.82319 0.40215 0.0
O73 O 0.10611 0.81057 0.51569 0.0
Cd74 Cd 0.1595 0.81195 0.51873 0.0
C75 C 0.15891 0.88213 0.47923 0.0
O76 O 0.16839 0.78288 0.43928 0.0
O77 O 0.205 0.8068 0.46713 0.0
O78 O 0.15992 0.77402 0.58812 0.0
C79 C 0.19512 0.78711 0.43686 0.0
O80 O 0.15342 0.8729 0.43215 0.0
C81 C 0.17571 0.7882 0.62006 0.0
O82 O 0.16096 0.8644 0.5182 0.0
O83 O 0.18345 0.81338 0.605 0.0
C84 C 0.08564 0.16832 0.56122 0.0
O85 O 0.09189 0.16427 0.61026 0.0
Cd86 Cd 0.13964 0.15568 0.64085 0.0
O87 O 0.10522 0.16951 0.52527 0.0
Cd88 Cd 0.1585 0.168 0.52051 0.0
C89 C 0.15872 0.09747 0.56135 0.0
O90 O 0.16599 0.19533 0.60226 0.0
O91 O 0.20424 0.17599 0.56799 0.0
O92 O 0.15794 0.2057 0.4506 0.0
C93 C 0.19301 0.19267 0.6031 0.0
O94 O 0.15239 0.10645 0.60845 0.0
C95 C 0.17324 0.19098 0.41774 0.0
O96 O 0.16119 0.11537 0.52271 0.0
O97 O 0.18125 0.16574 0.43277 0.0
C98 C 0.87623 0.16358 0.46564 0.0
O99 O 0.86949 0.1569 0.4178 0.0
Cd100 Cd 0.82156 0.14773 0.38829 0.0
O101 O 0.85706 0.16693 0.50201 0.0
Cd102 Cd 0.80409 0.16573 0.51094 0.0
C103 C 0.80267 0.09358 0.47608 0.0
O104 O 0.7956 0.18842 0.42501 0.0
O105 O 0.75729 0.17676 0.46842 0.0
O106 O 0.80578 0.20487 0.57831 0.0
C107 C 0.7685 0.18812 0.42702 0.0
O108 O 0.80882 0.10055 0.42786 0.0
C109 C 0.79152 0.19076 0.61324 0.0
O110 O 0.80067 0.11295 0.51255 0.0
O111 O 0.78366 0.16527 0.60039 0.0
H112 H 0.28515 0.42217 0.13038 0.0
H113 H 0.31032 0.40666 0.96536 0.0
H114 H 0.2807 0.47426 0.11165 0.0
H115 H 0.3075 0.45854 0.94726 0.0
H116 H 0.28278 0.55114 0.91492 0.0
H117 H 0.27838 0.49934 0.93502 0.0
H118 H 0.30901 0.51504 0.09613 0.0
H119 H 0.31175 0.56685 0.07676 0.0
C120 C 0.28982 0.42993 0.09018 0.0
C121 C 0.2981 0.41035 0.04939 0.0
C122 C 0.28745 0.45981 0.07944 0.0
C123 C 0.29383 0.47081 0.0279 0.0
C124 C 0.30181 0.45101 0.98711 0.0
C125 C 0.30366 0.42117 -0.0024 0.0
C126 C 0.28828 0.54347 0.95474 0.0
C127 C 0.29771 0.56301 -0.00583 0.0
C128 C 0.28596 0.51374 0.96625 0.0
C129 C 0.29359 0.50279 0.01713 0.0
C130 C 0.30246 0.52257 0.05681 0.0
C131 C 0.30425 0.55234 0.04559 0.0
H132 H 0.42117 0.29434 0.1274 0.0
H133 H 0.40235 0.32225 0.96566 0.0
H134 H 0.47208 0.2923 0.10535 0.0
H135 H 0.45332 0.32206 0.94423 0.0
H136 H 0.54442 0.29725 0.905 0.0
H137 H 0.4937 0.29376 0.92719 0.0
H138 H 0.51154 0.3215 0.08978 0.0
H139 H 0.56248 0.3231 0.06808 0.0
C140 C 0.42801 0.30024 0.08719 0.0
C141 C 0.40786 0.30845 0.04821 0.0
C142 C 0.45723 0.2993 0.07459 0.0
C143 C 0.46703 0.30717 0.02303 0.0
C144 C 0.44669 0.31527 0.98404 0.0
C145 C 0.41743 0.31558 -0.00366 0.0
C146 C 0.53744 0.30242 0.94555 0.0
C147 C 0.55733 0.31049 0.98482 0.0
C148 C 0.50831 0.30064 0.95825 0.0
C149 C 0.49829 0.30756 0.01025 0.0
C150 C 0.51837 0.31547 0.04958 0.0
C151 C 0.5476 0.31661 0.03713 0.0
H152 H 0.65248 0.42908 0.91661 0.0
H153 H 0.68361 0.4041 0.07336 0.0
H154 H 0.65552 0.48026 0.94186 0.0
H155 H 0.6875 0.45531 0.09803 0.0
H156 H 0.65274 0.54647 0.14457 0.0
H157 H 0.65586 0.49517 0.1195 0.0
H158 H 0.68737 0.51933 0.96211 0.0
H159 H 0.6834 0.57064 0.98661 0.0
C160 C 0.66039 0.4345 0.95616 0.0
C161 C 0.66759 0.41249 -0.00693 0.0
C162 C 0.66229 0.46388 0.97059 0.0
C163 C 0.67164 0.47193 0.02211 0.0
C164 C 0.67972 0.44989 0.05838 0.0
C165 C 0.67764 0.42052 0.04409 0.0
C166 C 0.66059 0.54083 0.10481 0.0
C167 C 0.66759 0.56266 0.06748 0.0
C168 C 0.66253 0.51139 0.09047 0.0
C169 C 0.67171 0.50311 0.03862 0.0
C170 C 0.6797 0.52494 0.002 0.0
C171 C 0.67758 0.55437 0.01619 0.0
H172 H 0.42472 0.646 0.91814 0.0
H173 H 0.40029 0.68058 0.07374 0.0
H174 H 0.47496 0.6479 0.94341 0.0
H175 H 0.45068 0.68321 0.09845 0.0
H176 H 0.53975 0.6489 0.14549 0.0
H177 H 0.48955 0.6503 0.11989 0.0
H178 H 0.51346 0.68118 0.96193 0.0
H179 H 0.5639 0.67904 0.98706 0.0
C180 C 0.43006 0.65426 0.95759 0.0
C181 C 0.40846 0.66301 -0.00597 0.0
C182 C 0.45891 0.65553 0.97192 0.0
C183 C 0.46685 0.6657 0.02294 0.0
C184 C 0.44526 0.67487 0.0591 0.0
C185 C 0.41638 0.67349 0.04485 0.0
C186 C 0.53435 0.65611 0.10532 0.0
C187 C 0.55588 0.66375 0.06824 0.0
C188 C 0.50551 0.65709 0.09078 0.0
C189 C 0.49748 0.66585 0.03888 0.0
C190 C 0.51897 0.67393 0.00201 0.0
C191 C 0.54787 0.67285 0.0165 0.0
H192 H 0.7811 0.90483 0.48742 0.0
H193 H 0.81486 0.92863 0.64259 0.0
H194 H 0.77788 0.95611 0.46289 0.0
H195 H 0.81242 0.97997 0.61738 0.0
H196 H 0.81299 0.04546 0.41343 0.0
H197 H 0.81033 -0.00556 0.43985 0.0
H198 H 0.78081 0.02034 0.59803 0.0
H199 H 0.78425 0.0714 0.57212 0.0
C200 C 0.78779 0.92102 0.51639 0.0
C201 C 0.79841 0.91262 0.56688 0.0
C202 C 0.7861 0.95043 0.50215 0.0
C203 C 0.79514 0.97216 0.53792 0.0
C204 C 0.80498 0.96382 0.58905 0.0
C205 C 0.80651 0.93436 0.60344 0.0
C206 C 0.80573 0.04029 0.45371 0.0
C207 C 0.79899 0.06253 0.49071 0.0
C208 C 0.80405 0.011 0.46882 0.0
C209 C 0.79542 0.00327 0.52116 0.0
C210 C 0.78799 0.02553 0.55771 0.0
C211 C 0.78981 0.05481 0.5427 0.0
H212 H 0.04245 0.79381 0.41713 0.0
H213 H 0.06222 0.82354 0.57724 0.0
H214 H -0.00805 0.7909 0.44154 0.0
H215 H 0.01156 0.82235 0.60102 0.0
H216 H 0.92193 0.79602 0.64469 0.0
H217 H 0.97246 0.79307 0.62023 0.0
H218 H 0.95168 0.81989 0.45828 0.0
H219 H 0.90098 0.8211 0.4823 0.0
C220 C 0.03592 0.7999 0.45751 0.0
C221 C 0.05624 0.80892 0.4953 0.0
C222 C 0.00691 0.79845 0.47144 0.0
C223 C -0.00254 0.80655 0.52322 0.0
C224 C 0.01796 0.81539 0.56108 0.0
C225 C 0.04704 0.81627 0.54742 0.0
C226 C 0.92821 0.80109 0.60378 0.0
C227 C 0.90756 0.80885 0.5654 0.0
C228 C 0.95723 0.79961 0.58978 0.0
C229 C 0.96636 0.80647 0.53732 0.0
C230 C 0.94554 0.81396 0.49883 0.0
C231 C 0.91644 0.81484 0.5126 0.0
H232 H 0.17804 0.07144 0.46901 0.0
H233 H 0.14656 0.05193 0.62866 0.0
H234 H 0.18075 0.01953 0.44875 0.0
H235 H 0.1485 1e-05 0.60783 0.0
H236 H 0.14684 0.92773 0.4116 0.0
H237 H 0.14878 0.97973 0.43199 0.0
H238 H 0.18066 0.95988 0.59063 0.0
H239 H 0.17794 0.90802 0.57087 0.0
C240 C 0.17171 0.05607 0.49985 0.0
C241 C 0.16199 0.06585 0.55045 0.0
C242 C 0.1731 0.0263 0.48806 0.0
C243 C 0.16468 0.00559 0.5265 0.0
C244 C 0.1555 0.01535 0.57749 0.0
C245 C 0.15426 0.04514 0.58939 0.0
C246 C 0.15444 0.93449 0.45067 0.0
C247 C 0.16204 0.91373 0.48969 0.0
C248 C 0.15569 0.9643 0.46232 0.0
C249 C 0.16474 0.97398 0.5131 0.0
C250 C 0.17307 0.95318 0.55151 0.0
C251 C 0.17166 0.92343 0.54002 0.0
H252 H 0.90084 0.15652 0.56373 0.0
H253 H 0.92037 0.17799 0.39867 0.0
H254 H 0.95144 0.15919 0.58576 0.0
H255 H 0.97088 0.18252 0.42108 0.0
H256 H 0.06198 0.15479 0.46464 0.0
H257 H 0.01137 0.15503 0.4415 0.0
H258 H -0.00969 0.18926 0.59922 0.0
H259 H 0.0408 0.18718 0.62312 0.0
C260 C 0.91597 0.1623 0.53235 0.0
C261 C 0.90673 0.1669 0.47947 0.0
C262 C 0.94502 0.16406 0.545 0.0
C263 C 0.96545 0.1711 0.50526 0.0
C264 C 0.95597 0.17642 0.45256 0.0
C265 C 0.92697 0.17404 0.4397 0.0
C266 C 0.04648 0.16249 0.49416 0.0
C267 C 0.05524 0.17076 0.54575 0.0
C268 C 0.01742 0.16282 0.48086 0.0
C269 C -0.00346 0.17205 0.51852 0.0
C270 C 0.00559 0.18131 0.56956 0.0
C271 C 0.03457 0.18035 0.58321 0.0
H272 H 0.2041 0.16315 0.33952 0.0
H273 H 0.16397 0.24602 0.37828 0.0
H274 H 0.22428 0.18415 0.25799 0.0
H275 H 0.18464 0.26718 0.29677 0.0
H276 H 0.21279 0.28936 0.1234 0.0
H277 H 0.18566 0.26576 0.19582 0.0
H278 H 0.26253 0.22003 0.24519 0.0
H279 H 0.28935 0.24315 0.17326 0.0
C280 C 0.19939 0.1858 0.33041 0.0
C281 C 0.18275 0.20304 0.36565 0.0
C282 C 0.21103 0.19784 0.28379 0.0
C283 C 0.20633 0.22739 0.27139 0.0
C284 C 0.18849 0.2443 0.30518 0.0
C285 C 0.1768 0.23223 0.35196 0.0
C286 C 0.22376 0.27411 0.1496 0.0
C287 C 0.25318 0.26813 0.14277 0.0
C288 C 0.20828 0.26072 0.19108 0.0
C289 C 0.22196 0.24095 0.22594 0.0
C290 C 0.25128 0.23479 0.21847 0.0
C291 C 0.2667 0.24823 0.17745 0.0
H292 H 0.68161 0.22289 0.12578 0.0
H293 H 0.68428 0.30533 0.20996 0.0
H294 H 0.70179 0.19836 0.20455 0.0
H295 H 0.70368 0.28048 0.28918 0.0
H296 H 0.71381 0.21009 0.43122 0.0
H297 H 0.68644 0.23166 0.35673 0.0
H298 H 0.75671 0.2127 0.24814 0.0
H299 H 0.78438 0.19211 0.32236 0.0
C300 C 0.68592 0.23564 0.16146 0.0
C301 C 0.68158 0.26602 0.16176 0.0
C302 C 0.69745 0.22161 0.20631 0.0
C303 C 0.70411 0.23765 0.25252 0.0
C304 C 0.69845 0.26774 0.25393 0.0
C305 C 0.68753 0.2819 0.20865 0.0
C306 C 0.72326 0.21043 0.39134 0.0
C307 C 0.75119 0.1996 0.38239 0.0
C308 C 0.70769 0.22275 0.34901 0.0
C309 C 0.71957 0.22358 0.29709 0.0
C310 C 0.74713 0.21205 0.28792 0.0
C311 C 0.76294 0.20045 0.33033 0.0
H312 H 0.79991 0.73087 0.40169 0.0
H313 H 0.7547 0.81134 0.36655 0.0
H314 H 0.77883 0.70837 0.32219 0.0
H315 H 0.73403 0.789 0.28717 0.0
H316 H 0.67154 0.72676 0.20542 0.0
H317 H 0.69765 0.75058 0.27704 0.0
H318 H 0.77652 0.71036 0.22096 0.0
H319 H 0.75019 0.68615 0.14887 0.0
C320 C 0.78582 0.74386 0.37663 0.0
C321 C 0.77869 0.77276 0.39071 0.0
C322 C 0.77387 0.73102 0.33102 0.0
C323 C 0.75455 0.74685 0.29889 0.0
C324 C 0.74848 0.77613 0.31173 0.0
C325 C 0.76042 0.78894 0.35711 0.0
C326 C 0.69446 0.723 0.20816 0.0
C327 C 0.70881 0.70456 0.17154 0.0
C328 C 0.70945 0.73683 0.249 0.0
C329 C 0.73915 0.73248 0.25436 0.0
C330 C 0.7536 0.71399 0.21784 0.0
C331 C 0.73857 0.70025 0.17656 0.0
H332 H 0.23952 0.80873 0.3773 0.0
H333 H 0.19038 0.73098 0.40603 0.0
H334 H 0.26417 0.7846 0.30227 0.0
H335 H 0.2163 0.70595 0.33432 0.0
H336 H 0.23568 0.68254 0.16263 0.0
H337 H 0.21596 0.70543 0.24244 0.0
H338 H 0.29627 0.74983 0.26785 0.0
H339 H 0.31534 0.72806 0.18507 0.0
C340 C 0.23456 0.78621 0.36824 0.0
C341 C 0.21286 0.77175 0.39663 0.0
C342 C 0.24877 0.77227 0.32547 0.0
C343 C 0.24194 0.74338 0.3113 0.0
C344 C 0.22147 0.72849 0.3425 0.0
C345 C 0.20676 0.74269 0.38401 0.0
C346 C 0.24919 0.69709 0.18538 0.0
C347 C 0.27704 0.70349 0.16774 0.0
C348 C 0.23797 0.71009 0.23164 0.0
C349 C 0.25456 0.72932 0.26241 0.0
C350 C 0.28269 0.73545 0.24499 0.0
C351 C 0.29372 0.72286 0.19778 0.0
H352 H 0.20961 0.81396 0.69474 0.0
H353 H 0.16523 0.73377 0.66041 0.0
H354 H 0.2305 0.7917 0.77441 0.0
H355 H 0.18653 0.71136 0.73996 0.0
H356 H 0.21486 0.6884 0.91198 0.0
H357 H 0.18854 0.71327 0.84025 0.0
H358 H 0.26713 0.75329 0.78627 0.0
H359 H 0.29324 0.72884 0.85775 0.0
C360 C 0.20414 0.79164 0.70442 0.0
C361 C 0.18601 0.77551 0.67102 0.0
C362 C 0.2162 0.77888 0.74993 0.0
C363 C 0.21039 0.74971 0.76305 0.0
C364 C 0.19126 0.73394 0.731 0.0
C365 C 0.17919 0.74673 0.68532 0.0
C366 C 0.22642 0.70262 0.88488 0.0
C367 C 0.25611 0.70665 0.89039 0.0
C368 C 0.21139 0.71675 0.84378 0.0
C369 C 0.22577 0.73531 0.80785 0.0
C370 C 0.25538 0.73948 0.81384 0.0
C371 C 0.27038 0.7253 0.85458 0.0
H372 H 0.30091 0.23035 0.87634 0.0
H373 H 0.25971 0.3127 0.83911 0.0
H374 H 0.2797 0.20869 0.79622 0.0
H375 H 0.23897 0.29121 0.75899 0.0
H376 H 0.17386 0.23172 0.67748 0.0
H377 H 0.20091 0.25491 0.74848 0.0
H378 H 0.2778 0.2098 0.69534 0.0
H379 H 0.25048 0.18616 0.62389 0.0
C380 C 0.28774 0.24393 0.85061 0.0
C381 C 0.28167 0.27311 0.86438 0.0
C382 C 0.27571 0.23157 0.80464 0.0
C383 C 0.25739 0.24818 0.77177 0.0
C384 C 0.25258 0.27774 0.78414 0.0
C385 C 0.26456 0.29007 0.82993 0.0
C386 C 0.19656 0.22677 0.68069 0.0
C387 C 0.21004 0.20708 0.64513 0.0
C388 C 0.21211 0.24025 0.72117 0.0
C389 C 0.24152 0.23433 0.72724 0.0
C390 C 0.25512 0.21466 0.69168 0.0
C391 C 0.23953 0.20124 0.65076 0.0
H392 H 0.6765 0.24768 0.85562 0.0
H393 H 0.75272 0.29293 0.90571 0.0
H394 H 0.70358 0.2239 0.78412 0.0
H395 H 0.78009 0.26879 0.83333 0.0
H396 H 0.80046 0.24654 0.64906 0.0
H397 H 0.7803 0.26925 0.73022 0.0
H398 H 0.74293 0.18696 0.77569 0.0
H399 H 0.76269 0.16438 0.69486 0.0
C400 C 0.69911 0.25248 0.85146 0.0
C401 C 0.71249 0.27219 0.88626 0.0
C402 C 0.71467 0.23867 0.8107 0.0
C403 C 0.74398 0.24432 0.80348 0.0
C404 C 0.75748 0.26411 0.83806 0.0
C405 C 0.74188 0.2778 0.87946 0.0
C406 C 0.78829 0.23324 0.67683 0.0
C407 C 0.78278 0.2038 0.6652 0.0
C408 C 0.7769 0.2462 0.72336 0.0
C409 C 0.75977 0.22993 0.75879 0.0
C410 C 0.75566 0.20013 0.74857 0.0
C411 C 0.76704 0.1872 0.70231 0.0
H412 H 0.70736 0.66418 0.86543 0.0
H413 H 0.66378 0.74521 0.90453 0.0
H414 H 0.72781 0.68657 0.78544 0.0
H415 H 0.68467 0.76777 0.82443 0.0
H416 H 0.71297 0.79061 0.65039 0.0
H417 H 0.68648 0.76648 0.72301 0.0
H418 H 0.76481 0.72428 0.77471 0.0
H419 H 0.79104 0.748 0.70261 0.0
C420 C 0.70196 0.68672 0.85673 0.0
C421 C 0.68423 0.70304 0.89162 0.0
C422 C 0.71376 0.69956 0.811 0.0
C423 C 0.70812 0.729 0.7991 0.0
C424 C 0.68928 0.74499 0.83252 0.0
C425 C 0.67746 0.73211 0.87847 0.0
C426 C 0.72443 0.77609 0.67723 0.0
C427 C 0.75407 0.77119 0.67085 0.0
C428 C 0.70931 0.76239 0.71882 0.0
C429 C 0.72356 0.74336 0.75425 0.0
C430 C 0.75314 0.73844 0.74752 0.0
C431 C 0.76822 0.75221 0.7064 0.0
loop_
_geom_bond_atom_site_label_1
_geom_bond_atom_site_label_2
_geom_bond_distance
_geom_bond_site_symmetry_2
_ccdc_geom_bond_type
C0 O1 1.306 . S
C0 O3 1.160 1_554 S
O1 C0 1.306 . S
O1 Cd2 2.228 . S
Cd2 O1 2.228 . S
Cd2 O6 2.273 . S
Cd2 O10 2.277 . S
O3 C0 1.160 1_556 S
O3 Cd4 2.203 1_556 S
Cd4 O3 2.203 1_554 S
Cd4 O6 2.411 . S
Cd4 O7 2.333 . S
Cd4 O8 2.352 1_554 S
Cd4 O12 2.277 . S
Cd4 O13 2.356 1_554 S
C5 O10 1.209 . S
C5 O12 1.226 . S
O6 Cd2 2.273 . S
O6 Cd4 2.411 . S
O6 C9 1.320 . S
O7 Cd4 2.333 . S
O7 C9 1.214 . S
O8 Cd4 2.352 1_556 S
O8 C11 1.258 . S
C9 O6 1.320 . S
C9 O7 1.214 . S
O10 Cd2 2.277 . S
O10 C5 1.209 . S
C11 O8 1.258 . S
C11 O13 1.282 . S
O12 Cd4 2.277 . S
O12 C5 1.226 . S
O13 Cd4 2.356 1_556 S
O13 C11 1.282 . S
C14 O15 1.306 . S
C14 O17 1.160 . S
O15 C14 1.306 . S
O15 Cd16 2.228 1_554 S
Cd16 O15 2.228 1_556 S
Cd16 O20 2.273 . S
Cd16 O24 2.277 . S
O17 C14 1.160 . S
O17 Cd18 2.203 . S
Cd18 O17 2.203 . S
Cd18 O20 2.411 1_554 S
Cd18 O21 2.333 . S
Cd18 O22 2.352 . S
Cd18 O26 2.277 . S
Cd18 O27 2.356 . S
C19 O24 1.209 1_554 S
C19 O26 1.226 . S
O20 Cd16 2.273 . S
O20 Cd18 2.411 1_556 S
O20 C23 1.320 . S
O21 Cd18 2.333 . S
O21 C23 1.214 1_554 S
O22 Cd18 2.352 . S
O22 C25 1.258 . S
C23 O20 1.320 . S
C23 O21 1.214 1_556 S
O24 Cd16 2.277 . S
O24 C19 1.209 1_556 S
C25 O22 1.258 . S
C25 O27 1.282 . S
O26 Cd18 2.277 . S
O26 C19 1.226 . S
O27 Cd18 2.356 . S
O27 C25 1.282 . S
C28 O29 1.306 . S
C28 O31 1.160 1_554 S
O29 C28 1.306 . S
O29 Cd30 2.228 . S
Cd30 O29 2.228 . S
Cd30 O34 2.273 . S
Cd30 O38 2.277 . S
O31 C28 1.160 1_556 S
O31 Cd32 2.203 1_556 S
Cd32 O31 2.203 1_554 S
Cd32 O34 2.411 . S
Cd32 O35 2.333 . S
Cd32 O36 2.352 1_554 S
Cd32 O40 2.277 . S
Cd32 O41 2.356 1_554 S
C33 O38 1.209 . S
C33 O40 1.226 . S
O34 Cd30 2.273 . S
O34 Cd32 2.411 . S
O34 C37 1.320 . S
O35 Cd32 2.333 . S
O35 C37 1.214 . S
O36 Cd32 2.352 1_556 S
O36 C39 1.258 . S
C37 O34 1.320 . S
C37 O35 1.214 . S
O38 Cd30 2.277 . S
O38 C33 1.209 . S
C39 O36 1.258 . S
C39 O41 1.282 . S
O40 Cd32 2.277 . S
O40 C33 1.226 . S
O41 Cd32 2.356 1_556 S
O41 C39 1.282 . S
C42 O43 1.306 . S
C42 O45 1.160 . S
O43 C42 1.306 . S
O43 Cd44 2.228 1_554 S
Cd44 O43 2.228 1_556 S
Cd44 O48 2.273 . S
Cd44 O52 2.277 . S
O45 C42 1.160 . S
O45 Cd46 2.203 . S
Cd46 O45 2.203 . S
Cd46 O48 2.411 1_554 S
Cd46 O49 2.333 . S
Cd46 O50 2.352 . S
Cd46 O54 2.277 . S
Cd46 O55 2.356 . S
C47 O52 1.209 1_554 S
C47 O54 1.226 . S
O48 Cd44 2.273 . S
O48 Cd46 2.411 1_556 S
O48 C51 1.320 . S
O49 Cd46 2.333 . S
O49 C51 1.214 1_554 S
O50 Cd46 2.352 . S
O50 C53 1.258 . S
C51 O48 1.320 . S
C51 O49 1.214 1_556 S
O52 Cd44 2.277 . S
O52 C47 1.209 1_556 S
C53 O50 1.258 . S
C53 O55 1.282 . S
O54 Cd46 2.277 . S
O54 C47 1.226 . S
O55 Cd46 2.356 . S
O55 C53 1.282 . S
C56 O57 1.306 . S
C56 O59 1.160 . S
O57 C56 1.306 . S
O57 Cd58 2.228 . S
Cd58 O57 2.228 . S
Cd58 O62 2.273 . S
Cd58 O66 2.277 . S
O59 C56 1.160 . S
O59 Cd60 2.203 . S
Cd60 O59 2.203 . S
Cd60 O62 2.411 . S
Cd60 O63 2.333 . S
Cd60 O64 2.352 . S
Cd60 O68 2.277 . S
Cd60 O69 2.356 . S
C61 O66 1.209 . S
C61 O68 1.226 . S
O62 Cd58 2.273 . S
O62 Cd60 2.411 . S
O62 C65 1.320 . S
O63 Cd60 2.333 . S
O63 C65 1.214 . S
O64 Cd60 2.352 . S
O64 C67 1.258 . S
C65 O62 1.320 . S
C65 O63 1.214 . S
O66 Cd58 2.277 . S
O66 C61 1.209 . S
C67 O64 1.258 . S
C67 O69 1.282 . S
O68 Cd60 2.277 . S
O68 C61 1.226 . S
O69 Cd60 2.356 . S
O69 C67 1.282 . S
C70 O71 1.306 . S
C70 O73 1.160 . S
O71 C70 1.306 . S
O71 Cd72 2.228 . S
Cd72 O71 2.228 . S
Cd72 O76 2.273 . S
Cd72 O80 2.277 . S
O73 C70 1.160 . S
O73 Cd74 2.203 . S
Cd74 O73 2.203 . S
Cd74 O76 2.411 . S
Cd74 O77 2.333 . S
Cd74 O78 2.352 . S
Cd74 O82 2.277 . S
Cd74 O83 2.356 . S
C75 O80 1.209 . S
C75 O82 1.226 . S
O76 Cd72 2.273 . S
O76 Cd74 2.411 . S
O76 C79 1.320 . S
O77 Cd74 2.333 . S
O77 C79 1.214 . S
O78 Cd74 2.352 . S
O78 C81 1.258 . S
C79 O76 1.320 . S
C79 O77 1.214 . S
O80 Cd72 2.277 . S
O80 C75 1.209 . S
C81 O78 1.258 . S
C81 O83 1.282 . S
O82 Cd74 2.277 . S
O82 C75 1.226 . S
O83 Cd74 2.356 . S
O83 C81 1.282 . S
C84 O85 1.306 . S
C84 O87 1.160 . S
O85 C84 1.306 . S
O85 Cd86 2.228 . S
Cd86 O85 2.228 . S
Cd86 O90 2.273 . S
Cd86 O94 2.277 . S
O87 C84 1.160 . S
O87 Cd88 2.203 . S
Cd88 O87 2.203 . S
Cd88 O90 2.411 . S
Cd88 O91 2.333 . S
Cd88 O92 2.352 . S
Cd88 O96 2.277 . S
Cd88 O97 2.356 . S
C89 O94 1.209 . S
C89 O96 1.226 . S
O90 Cd86 2.273 . S
O90 Cd88 2.411 . S
O90 C93 1.320 . S
O91 Cd88 2.333 . S
O91 C93 1.214 . S
O92 Cd88 2.352 . S
O92 C95 1.258 . S
C93 O90 1.320 . S
C93 O91 1.214 . S
O94 Cd86 2.277 . S
O94 C89 1.209 . S
C95 O92 1.258 . S
C95 O97 1.282 . S
O96 Cd88 2.277 . S
O96 C89 1.226 . S
O97 Cd88 2.356 . S
O97 C95 1.282 . S
C98 O99 1.306 . S
C98 O101 1.160 . S
O99 C98 1.306 . S
O99 Cd100 2.228 . S
Cd100 O99 2.228 . S
Cd100 O104 2.273 . S
Cd100 O108 2.277 . S
O101 C98 1.160 . S
O101 Cd102 2.203 . S
Cd102 O101 2.203 . S
Cd102 O104 2.411 . S
Cd102 O105 2.333 . S
Cd102 O106 2.352 . S
Cd102 O110 2.277 . S
Cd102 O111 2.356 . S
C103 O108 1.209 . S
C103 O110 1.226 . S
O104 Cd100 2.273 . S
O104 Cd102 2.411 . S
O104 C107 1.320 . S
O105 Cd102 2.333 . S
O105 C107 1.214 . S
O106 Cd102 2.352 . S
O106 C109 1.258 . S
C107 O104 1.320 . S
C107 O105 1.214 . S
O108 Cd100 2.277 . S
O108 C103 1.209 . S
C109 O106 1.258 . S
C109 O111 1.282 . S
O110 Cd102 2.277 . S
O110 C103 1.226 . S
O111 Cd102 2.356 . S
O111 C109 1.282 . S
H112 C120 0.950 . S
H113 C125 0.950 . S
H114 C122 0.950 . S
H115 C124 0.950 1_556 S
H116 C126 0.950 1_556 S
H117 C128 0.950 1_556 S
H118 C130 0.950 . S
H119 C131 0.950 . S
C120 H112 0.950 . S
C120 C121 1.386 . S
C120 C122 1.391 . S
C121 C120 1.386 . S
C121 C125 1.393 . S
C122 H114 0.950 . S
C122 C120 1.391 . S
C122 C123 1.400 . S
C123 C122 1.400 . S
C123 C124 1.398 . S
C123 C129 1.491 . S
C124 H115 0.950 1_554 S
C124 C123 1.398 . S
C124 C125 1.391 . S
C125 H113 0.950 . S
C125 C121 1.393 . S
C125 C124 1.391 . S
C126 H116 0.950 1_554 S
C126 C127 1.386 . S
C126 C128 1.391 . S
C127 C126 1.386 . S
C127 C131 1.393 . S
C128 H117 0.950 1_554 S
C128 C126 1.391 . S
C128 C129 1.400 . S
C129 C123 1.491 . S
C129 C128 1.400 . S
C129 C130 1.398 . S
C130 H118 0.950 . S
C130 C129 1.398 . S
C130 C131 1.391 . S
C131 H119 0.950 . S
C131 C127 1.393 . S
C131 C130 1.391 . S
H132 C140 0.950 . S
H133 C145 0.950 . S
H134 C142 0.950 . S
H135 C144 0.950 . S
H136 C146 0.950 1_556 S
H137 C148 0.950 . S
H138 C150 0.950 . S
H139 C151 0.950 . S
C140 H132 0.950 . S
C140 C141 1.386 . S
C140 C142 1.391 . S
C141 C140 1.386 . S
C141 C145 1.393 1_554 S
C142 H134 0.950 . S
C142 C140 1.391 . S
C142 C143 1.400 . S
C143 C142 1.400 . S
C143 C144 1.398 1_554 S
C143 C149 1.491 . S
C144 H135 0.950 . S
C144 C143 1.398 1_556 S
C144 C145 1.391 . S
C145 H133 0.950 . S
C145 C141 1.393 1_556 S
C145 C144 1.391 . S
C146 H136 0.950 1_554 S
C146 C147 1.386 . S
C146 C148 1.391 1_554 S
C147 C146 1.386 . S
C147 C151 1.393 . S
C148 H137 0.950 . S
C148 C146 1.391 1_556 S
C148 C149 1.400 1_556 S
C149 C143 1.491 . S
C149 C148 1.400 1_554 S
C149 C150 1.398 . S
C150 H138 0.950 . S
C150 C149 1.398 . S
C150 C151 1.391 . S
C151 H139 0.950 . S
C151 C147 1.393 . S
C151 C150 1.391 . S
H152 C160 0.950 . S
H153 C165 0.950 . S
H154 C162 0.950 . S
H155 C164 0.950 . S
H156 C166 0.950 . S
H157 C168 0.950 . S
H158 C170 0.950 . S
H159 C171 0.954 . S
C160 H152 0.950 . S
C160 C161 1.386 1_556 S
C160 C162 1.391 . S
C161 C160 1.386 1_554 S
C161 C165 1.393 . S
C162 H154 0.950 . S
C162 C160 1.391 . S
C162 C163 1.400 1_556 S
C163 C162 1.400 1_554 S
C163 C164 1.398 . S
C163 C169 1.491 . S
C164 H155 0.950 . S
C164 C163 1.398 . S
C164 C165 1.391 . S
C165 H153 0.950 . S
C165 C161 1.393 . S
C165 C164 1.391 . S
C166 H156 0.950 . S
C166 C167 1.386 . S
C166 C168 1.391 . S
C167 C166 1.386 . S
C167 C171 1.389 1_554 S
C168 H157 0.950 . S
C168 C166 1.391 . S
C168 C169 1.400 . S
C169 C163 1.491 . S
C169 C168 1.400 . S
C169 C170 1.398 1_554 S
C170 H158 0.950 . S
C170 C169 1.398 1_556 S
C170 C171 1.391 . S
C171 H159 0.954 . S
C171 C167 1.389 1_556 S
C171 C170 1.391 . S
H172 C180 0.950 . S
H173 C185 0.950 . S
H174 C182 0.950 . S
H175 C184 0.950 . S
H176 C186 0.950 . S
H177 C188 0.950 . S
H178 C190 0.950 . S
H179 C191 0.946 1_556 S
C180 H172 0.950 . S
C180 C181 1.386 . S
C180 C182 1.391 . S
C181 C180 1.386 . S
C181 C185 1.393 . S
C182 H174 0.950 . S
C182 C180 1.391 . S
C182 C183 1.400 . S
C183 C182 1.400 . S
C183 C184 1.398 . S
C183 C189 1.491 . S
C184 H175 0.950 . S
C184 C183 1.398 . S
C184 C185 1.391 . S
C185 H173 0.950 . S
C185 C181 1.393 . S
C185 C184 1.391 . S
C186 H176 0.950 . S
C186 C187 1.386 . S
C186 C188 1.391 . S
C187 C186 1.386 . S
C187 C191 1.393 . S
C188 H177 0.950 . S
C188 C186 1.391 . S
C188 C189 1.400 . S
C189 C183 1.491 . S
C189 C188 1.400 . S
C189 C190 1.398 . S
C190 H178 0.950 . S
C190 C189 1.398 . S
C190 C191 1.391 . S
C191 H179 0.946 1_554 S
C191 C187 1.393 . S
C191 C190 1.391 . S
H192 C200 0.950 . S
H193 C205 0.950 . S
H194 C202 0.950 . S
H195 C204 0.950 . S
H196 C206 0.950 . S
H197 C208 0.950 . S
H198 C210 0.950 . S
H199 C211 0.950 . S
C200 H192 0.950 . S
C200 C201 1.386 . S
C200 C202 1.391 . S
C201 C200 1.386 . S
C201 C205 1.393 . S
C202 H194 0.950 . S
C202 C200 1.391 . S
C202 C203 1.400 . S
C203 C202 1.400 . S
C203 C204 1.398 . S
C203 C209 1.491 1_565 S
C204 H195 0.950 . S
C204 C203 1.398 . S
C204 C205 1.391 . S
C205 H193 0.950 . S
C205 C201 1.393 . S
C205 C204 1.391 . S
C206 H196 0.950 . S
C206 C207 1.386 . S
C206 C208 1.391 . S
C207 C206 1.386 . S
C207 C211 1.393 . S
C208 H197 0.950 . S
C208 C206 1.391 . S
C208 C209 1.400 . S
C209 C203 1.491 1_545 S
C209 C208 1.400 . S
C209 C210 1.398 . S
C210 H198 0.950 . S
C210 C209 1.398 . S
C210 C211 1.391 . S
C211 H199 0.950 . S
C211 C207 1.393 . S
C211 C210 1.391 . S
H212 C220 0.950 . S
H213 C225 0.950 . S
H214 C222 0.950 . S
H215 C224 0.950 . S
H216 C226 0.950 . S
H217 C228 0.950 . S
H218 C230 0.950 . S
H219 C231 0.950 . S
C220 H212 0.950 . S
C220 C221 1.386 . S
C220 C222 1.391 . S
C221 C220 1.386 . S
C221 C225 1.393 . S
C222 H214 0.950 . S
C222 C220 1.391 . S
C222 C223 1.400 . S
C223 C222 1.400 . S
C223 C224 1.398 . S
C223 C229 1.491 1_455 S
C224 H215 0.950 . S
C224 C223 1.398 . S
C224 C225 1.391 . S
C225 H213 0.950 . S
C225 C221 1.393 . S
C225 C224 1.391 . S
C226 H216 0.950 . S
C226 C227 1.386 . S
C226 C228 1.391 . S
C227 C226 1.386 . S
C227 C231 1.393 . S
C228 H217 0.950 . S
C228 C226 1.391 . S
C228 C229 1.400 . S
C229 C223 1.491 1_655 S
C229 C228 1.400 . S
C229 C230 1.398 . S
C230 H218 0.950 . S
C230 C229 1.398 . S
C230 C231 1.391 . S
C231 H219 0.950 . S
C231 C227 1.393 . S
C231 C230 1.391 . S
H232 C240 0.950 . S
H233 C245 0.950 . S
H234 C242 0.950 . S
H235 C244 0.950 . S
H236 C246 0.950 . S
H237 C248 0.950 . S
H238 C250 0.950 . S
H239 C251 0.950 . S
C240 H232 0.950 . S
C240 C241 1.386 . S
C240 C242 1.391 . S
C241 C240 1.386 . S
C241 C245 1.393 . S
C242 H234 0.950 . S
C242 C240 1.391 . S
C242 C243 1.400 . S
C243 C242 1.400 . S
C243 C244 1.398 . S
C243 C249 1.491 1_545 S
C244 H235 0.950 . S
C244 C243 1.398 . S
C244 C245 1.391 . S
C245 H233 0.950 . S
C245 C241 1.393 . S
C245 C244 1.391 . S
C246 H236 0.950 . S
C246 C247 1.386 . S
C246 C248 1.391 . S
C247 C246 1.386 . S
C247 C251 1.393 . S
C248 H237 0.950 . S
C248 C246 1.391 . S
C248 C249 1.400 . S
C249 C243 1.491 1_565 S
C249 C248 1.400 . S
C249 C250 1.398 . S
C250 H238 0.950 . S
C250 C249 1.398 . S
C250 C251 1.391 . S
C251 H239 0.950 . S
C251 C247 1.393 . S
C251 C250 1.391 . S
H252 C260 0.950 . S
H253 C265 0.950 . S
H254 C262 0.950 . S
H255 C264 0.950 . S
H256 C266 0.950 . S
H257 C268 0.950 . S
H258 C270 0.950 . S
H259 C271 0.950 . S
C260 H252 0.950 . S
C260 C261 1.386 . S
C260 C262 1.391 . S
C261 C260 1.386 . S
C261 C265 1.393 . S
C262 H254 0.950 . S
C262 C260 1.391 . S
C262 C263 1.400 . S
C263 C262 1.400 . S
C263 C264 1.398 . S
C263 C269 1.491 1_655 S
C264 H255 0.950 . S
C264 C263 1.398 . S
C264 C265 1.391 . S
C265 H253 0.950 . S
C265 C261 1.393 . S
C265 C264 1.391 . S
C266 H256 0.950 . S
C266 C267 1.386 . S
C266 C268 1.391 . S
C267 C266 1.386 . S
C267 C271 1.393 . S
C268 H257 0.950 . S
C268 C266 1.391 . S
C268 C269 1.400 . S
C269 C263 1.491 1_455 S
C269 C268 1.400 . S
C269 C270 1.398 . S
C270 H258 0.950 . S
C270 C269 1.398 . S
C270 C271 1.391 . S
C271 H259 0.950 . S
C271 C267 1.393 . S
C271 C270 1.391 . S
H272 C280 0.950 . S
H273 C285 0.950 . S
H274 C282 0.950 . S
H275 C284 0.950 . S
H276 C286 0.950 . S
H277 C288 0.950 . S
H278 C290 0.950 . S
H279 C291 0.950 . S
C280 H272 0.950 . S
C280 C281 1.386 . S
C280 C282 1.391 . S
C281 C280 1.386 . S
C281 C285 1.393 . S
C282 H274 0.950 . S
C282 C280 1.391 . S
C282 C283 1.400 . S
C283 C282 1.400 . S
C283 C284 1.398 . S
C283 C289 1.491 . S
C284 H275 0.950 . S
C284 C283 1.398 . S
C284 C285 1.391 . S
C285 H273 0.950 . S
C285 C281 1.393 . S
C285 C284 1.391 . S
C286 H276 0.950 . S
C286 C287 1.386 . S
C286 C288 1.391 . S
C287 C286 1.386 . S
C287 C291 1.393 . S
C288 H277 0.950 . S
C288 C286 1.391 . S
C288 C289 1.400 . S
C289 C283 1.491 . S
C289 C288 1.400 . S
C289 C290 1.398 . S
C290 H278 0.950 . S
C290 C289 1.398 . S
C290 C291 1.391 . S
C291 H279 0.950 . S
C291 C287 1.393 . S
C291 C290 1.391 . S
H292 C300 0.950 . S
H293 C305 0.950 . S
H294 C302 0.950 . S
H295 C304 0.950 . S
H296 C306 0.950 . S
H297 C308 0.950 . S
H298 C310 0.950 . S
H299 C311 0.950 . S
C300 H292 0.950 . S
C300 C301 1.386 . S
C300 C302 1.391 . S
C301 C300 1.386 . S
C301 C305 1.393 . S
C302 H294 0.950 . S
C302 C300 1.391 . S
C302 C303 1.400 . S
C303 C302 1.400 . S
C303 C304 1.398 . S
C303 C309 1.491 . S
C304 H295 0.950 . S
C304 C303 1.398 . S
C304 C305 1.391 . S
C305 H293 0.950 . S
C305 C301 1.393 . S
C305 C304 1.391 . S
C306 H296 0.950 . S
C306 C307 1.386 . S
C306 C308 1.391 . S
C307 C306 1.386 . S
C307 C311 1.393 . S
C308 H297 0.950 . S
C308 C306 1.391 . S
C308 C309 1.400 . S
C309 C303 1.491 . S
C309 C308 1.400 . S
C309 C310 1.398 . S
C310 H298 0.950 . S
C310 C309 1.398 . S
C310 C311 1.391 . S
C311 H299 0.950 . S
C311 C307 1.393 . S
C311 C310 1.391 . S
H312 C320 0.950 . S
H313 C325 0.950 . S
H314 C322 0.950 . S
H315 C324 0.950 . S
H316 C326 0.950 . S
H317 C328 0.950 . S
H318 C330 0.950 . S
H319 C331 0.950 . S
C320 H312 0.950 . S
C320 C321 1.386 . S
C320 C322 1.391 . S
C321 C320 1.386 . S
C321 C325 1.393 . S
C322 H314 0.950 . S
C322 C320 1.391 . S
C322 C323 1.400 . S
C323 C322 1.400 . S
C323 C324 1.398 . S
C323 C329 1.491 . S
C324 H315 0.950 . S
C324 C323 1.398 . S
C324 C325 1.391 . S
C325 H313 0.950 . S
C325 C321 1.393 . S
C325 C324 1.391 . S
C326 H316 0.950 . S
C326 C327 1.386 . S
C326 C328 1.391 . S
C327 C326 1.386 . S
C327 C331 1.393 . S
C328 H317 0.950 . S
C328 C326 1.391 . S
C328 C329 1.400 . S
C329 C323 1.491 . S
C329 C328 1.400 . S
C329 C330 1.398 . S
C330 H318 0.950 . S
C330 C329 1.398 . S
C330 C331 1.391 . S
C331 H319 0.950 . S
C331 C327 1.393 . S
C331 C330 1.391 . S
H332 C340 0.950 . S
H333 C345 0.950 . S
H334 C342 0.950 . S
H335 C344 0.950 . S
H336 C346 0.950 . S
H337 C348 0.950 . S
H338 C350 0.950 . S
H339 C351 0.950 . S
C340 H332 0.950 . S
C340 C341 1.386 . S
C340 C342 1.391 . S
C341 C340 1.386 . S
C341 C345 1.393 . S
C342 H334 0.950 . S
C342 C340 1.391 . S
C342 C343 1.400 . S
C343 C342 1.400 . S
C343 C344 1.398 . S
C343 C349 1.491 . S
C344 H335 0.950 . S
C344 C343 1.398 . S
C344 C345 1.391 . S
C345 H333 0.950 . S
C345 C341 1.393 . S
C345 C344 1.391 . S
C346 H336 0.950 . S
C346 C347 1.386 . S
C346 C348 1.391 . S
C347 C346 1.386 . S
C347 C351 1.393 . S
C348 H337 0.950 . S
C348 C346 1.391 . S
C348 C349 1.400 . S
C349 C343 1.491 . S
C349 C348 1.400 . S
C349 C350 1.398 . S
C350 H338 0.950 . S
C350 C349 1.398 . S
C350 C351 1.391 . S
C351 H339 0.950 . S
C351 C347 1.393 . S
C351 C350 1.391 . S
H352 C360 0.950 . S
H353 C365 0.950 . S
H354 C362 0.950 . S
H355 C364 0.950 . S
H356 C366 0.950 . S
H357 C368 0.950 . S
H358 C370 0.950 . S
H359 C371 0.950 . S
C360 H352 0.950 . S
C360 C361 1.386 . S
C360 C362 1.391 . S
C361 C360 1.386 . S
C361 C365 1.393 . S
C362 H354 0.950 . S
C362 C360 1.391 . S
C362 C363 1.400 . S
C363 C362 1.400 . S
C363 C364 1.398 . S
C363 C369 1.491 . S
C364 H355 0.950 . S
C364 C363 1.398 . S
C364 C365 1.391 . S
C365 H353 0.950 . S
C365 C361 1.393 . S
C365 C364 1.391 . S
C366 H356 0.950 . S
C366 C367 1.386 . S
C366 C368 1.391 . S
C367 C366 1.386 . S
C367 C371 1.393 . S
C368 H357 0.950 . S
C368 C366 1.391 . S
C368 C369 1.400 . S
C369 C363 1.491 . S
C369 C368 1.400 . S
C369 C370 1.398 . S
C370 H358 0.950 . S
C370 C369 1.398 . S
C370 C371 1.391 . S
C371 H359 0.950 . S
C371 C367 1.393 . S
C371 C370 1.391 . S
H372 C380 0.950 . S
H373 C385 0.950 . S
H374 C382 0.950 . S
H375 C384 0.950 . S
H376 C386 0.950 . S
H377 C388 0.950 . S
H378 C390 0.950 . S
H379 C391 0.950 . S
C380 H372 0.950 . S
C380 C381 1.386 . S
C380 C382 1.391 . S
C381 C380 1.386 . S
C381 C385 1.393 . S
C382 H374 0.950 . S
C382 C380 1.391 . S
C382 C383 1.400 . S
C383 C382 1.400 . S
C383 C384 1.398 . S
C383 C389 1.491 . S
C384 H375 0.950 . S
C384 C383 1.398 . S
C384 C385 1.391 . S
C385 H373 0.950 . S
C385 C381 1.393 . S
C385 C384 1.391 . S
C386 H376 0.950 . S
C386 C387 1.386 . S
C386 C388 1.391 . S
C387 C386 1.386 . S
C387 C391 1.393 . S
C388 H377 0.950 . S
C388 C386 1.391 . S
C388 C389 1.400 . S
C389 C383 1.491 . S
C389 C388 1.400 . S
C389 C390 1.398 . S
C390 H378 0.950 . S
C390 C389 1.398 . S
C390 C391 1.391 . S
C391 H379 0.950 . S
C391 C387 1.393 . S
C391 C390 1.391 . S
H392 C400 0.950 . S
H393 C405 0.950 . S
H394 C402 0.950 . S
H395 C404 0.950 . S
H396 C406 0.950 . S
H397 C408 0.950 . S
H398 C410 0.950 . S
H399 C411 0.950 . S
C400 H392 0.950 . S
C400 C401 1.386 . S
C400 C402 1.391 . S
C401 C400 1.386 . S
C401 C405 1.393 . S
C402 H394 0.950 . S
C402 C400 1.391 . S
C402 C403 1.400 . S
C403 C402 1.400 . S
C403 C404 1.398 . S
C403 C409 1.491 . S
C404 H395 0.950 . S
C404 C403 1.398 . S
C404 C405 1.391 . S
C405 H393 0.950 . S
C405 C401 1.393 . S
C405 C404 1.391 . S
C406 H396 0.950 . S
C406 C407 1.386 . S
C406 C408 1.391 . S
C407 C406 1.386 . S
C407 C411 1.393 . S
C408 H397 0.950 . S
C408 C406 1.391 . S
C408 C409 1.400 . S
C409 C403 1.491 . S
C409 C408 1.400 . S
C409 C410 1.398 . S
C410 H398 0.950 . S
C410 C409 1.398 . S
C410 C411 1.391 . S
C411 H399 0.950 . S
C411 C407 1.393 . S
C411 C410 1.391 . S
H412 C420 0.950 . S
H413 C425 0.950 . S
H414 C422 0.950 . S
H415 C424 0.950 . S
H416 C426 0.950 . S
H417 C428 0.950 . S
H418 C430 0.950 . S
H419 C431 0.950 . S
C420 H412 0.950 . S
C420 C421 1.386 . S
C420 C422 1.391 . S
C421 C420 1.386 . S
C421 C425 1.393 . S
C422 H414 0.950 . S
C422 C420 1.391 . S
C422 C423 1.400 . S
C423 C422 1.400 . S
C423 C424 1.398 . S
C423 C429 1.491 . S
C424 H415 0.950 . S
C424 C423 1.398 . S
C424 C425 1.391 . S
C425 H413 0.950 . S
C425 C421 1.393 . S
C425 C424 1.391 . S
C426 H416 0.950 . S
C426 C427 1.386 . S
C426 C428 1.391 . S
C427 C426 1.386 . S
C427 C431 1.393 . S
C428 H417 0.950 . S
C428 C426 1.391 . S
C428 C429 1.400 . S
C429 C423 1.491 . S
C429 C428 1.400 . S
C429 C430 1.398 . S
C430 H418 0.950 . S
C430 C429 1.398 . S
C430 C431 1.391 . S
C431 H419 0.950 . S
C431 C427 1.393 . S
C431 C430 1.391 . S
C121 C5 1.529 . S
C127 C47 1.531 . S
C141 C0 1.501 . S
C147 C14 1.494 . S
C161 C19 1.535 . S
C167 C33 1.538 . S
C181 C42 1.508 . S
C187 C28 1.508 . S
C201 C61 1.540 . S
C207 C103 1.541 . S
C221 C70 1.507 . S
C227 C56 1.501 . S
C241 C89 1.541 . S
C247 C75 1.541 . S
C261 C98 1.489 . S
C267 C84 1.494 . S
C281 C95 1.485 . S
C287 C9 1.494 . S
C301 C25 1.475 . S
C307 C107 1.495 . S
C321 C67 1.484 . S
C327 C37 1.490 . S
C341 C79 1.490 . S
C347 C53 1.483 . S
C361 C81 1.486 . S
C367 C51 1.493 . S
C381 C11 1.476 . S
C387 C93 1.493 . S
C401 C23 1.493 . S
C407 C109 1.486 . S
C421 C39 1.482 . S
C427 C65 1.495 . S
