# Generated by pormake.
# Topology rob, (6)-cn, num edge types: 1
# Building blocks:
#     Node 0, Type 0, BuildingBlock: BETDAH_clean_sbu_0, # of connection points: 6
#     Node 1, Type 0, BuildingBlock: BETDAH_clean_sbu_0, # of connection points: 6
#     Node 2, Type 0, BuildingBlock: BETDAH_clean_sbu_0, # of connection points: 6
#     Node 3, Type 0, BuildingBlock: BETDAH_clean_sbu_0, # of connection points: 6
#     Edge 4, Type (0, 0), BuildingBlock: ZUJKAS_clean_linker_0, # of connection points: 2
#     Edge 5, Type (0, 0), BuildingBlock: ZUJKAS_clean_linker_0, # of connection points: 2
#     Edge 6, Type (0, 0), BuildingBlock: ZUJKAS_clean_linker_0, # of connection points: 2
#     Edge 7, Type (0, 0), BuildingBlock: ZUJKAS_clean_linker_0, # of connection points: 2
#     Edge 8, Type (0, 0), BuildingBlock: ZUJKAS_clean_linker_0, # of connection points: 2
#     Edge 9, Type (0, 0), BuildingBlock: ZUJKAS_clean_linker_0, # of connection points: 2
#     Edge 10, Type (0, 0), BuildingBlock: ZUJKAS_clean_linker_0, # of connection points: 2
#     Edge 11, Type (0, 0), BuildingBlock: ZUJKAS_clean_linker_0, # of connection points: 2
#     Edge 12, Type (0, 0), BuildingBlock: ZUJKAS_clean_linker_0, # of connection points: 2
#     Edge 13, Type (0, 0), BuildingBlock: ZUJKAS_clean_linker_0, # of connection points: 2
#     Edge 14, Type (0, 0), BuildingBlock: ZUJKAS_clean_linker_0, # of connection points: 2
#     Edge 15, Type (0, 0), BuildingBlock: ZUJKAS_clean_linker_0, # of connection points: 2
# Relax obj value: 0.100
# Max RMSD: 0.170
# Mean RMSD: 0.170
data_MOF--net-rob--node1-BETDAH_clean_sbu_0--edge1-ZUJKAS_clean_linker_0
_symmetry_space_group_name_H-M    P1
_symmetry_Int_Tables_number       1
_symmetry_cell_setting            triclinic
loop_
_symmetry_equiv_pos_as_xyz
'x, y, z'
_cell_length_a     19.202305
_cell_length_b     32.154894
_cell_length_c     45.861793
_cell_angle_alpha  90.190316
_cell_angle_beta   121.25606
_cell_angle_gamma 89.8353
loop_
_atom_site_label
_atom_site_type_symbol
_atom_site_fract_x
_atom_site_fract_y
_atom_site_fract_z
_atom_type_partial_charge
Ho0 Ho 0.17748 0.27505 -0.00327 0.0
Ho1 Ho 0.33113 0.25242 0.99544 0.0
C2 C 0.34605 0.24953 0.06649 0.0
C3 C 0.06272 0.27713 0.01056 0.0
C4 C 0.06079 0.27563 0.04231 0.0
C5 C 0.99083 0.26125 0.04138 0.0
C6 C 0.9877 0.25999 0.0712 0.0
C7 C 0.05452 0.27326 0.10258 0.0
C8 C 0.12499 0.28728 0.10347 0.0
C9 C 0.12822 0.28828 0.07365 0.0
C10 C 0.26932 0.34005 -0.00067 0.0
C11 C 0.1622 0.27874 0.92588 0.0
C12 C 0.44795 0.24862 0.98276 0.0
C13 C 0.45467 0.25053 0.95212 0.0
C14 C 0.39826 0.2729 0.92304 0.0
C15 C 0.40453 0.27346 0.89394 0.0
C16 C 0.4676 0.25173 0.89334 0.0
C17 C 0.52399 0.2294 0.92262 0.0
C18 C 0.51746 0.2288 0.95164 0.0
C19 C 0.23899 0.18764 0.99311 0.0
O20 O 0.2656 0.25042 0.0491 0.0
O21 O 0.389 0.25615 0.05194 0.0
O22 O 0.09494 0.3104 0.00604 0.0
O23 O 0.08592 0.24303 0.0024 0.0
O24 O 0.19036 0.34074 0.98338 0.0
O25 O 0.29586 0.30588 0.01469 0.0
O26 O 0.24278 0.27799 0.94321 0.0
O27 O 0.11937 0.27137 0.94035 0.0
O28 O 0.41123 0.21589 0.98523 0.0
O29 O 0.42647 0.28285 0.99156 0.0
O30 O 0.31797 0.18703 0.00943 0.0
O31 O 0.21288 0.22166 0.97749 0.0
H32 H 0.9383 0.25122 0.0175 0.0
H33 H 0.93228 0.24938 0.06954 0.0
H34 H 0.17787 0.29719 0.12726 0.0
H35 H 0.18327 0.2991 0.07506 0.0
H36 H 0.34945 0.28999 0.92283 0.0
H37 H 0.36051 0.29136 0.87207 0.0
H38 H 0.57256 0.21179 0.92296 0.0
H39 H 0.56132 0.2111 0.97371 0.0
Ho40 Ho 0.67346 0.77734 0.9938 0.0
Ho41 Ho 0.83454 0.75115 -0.00051 0.0
C42 C 0.83937 0.76251 0.06847 0.0
C43 C 0.55201 0.78183 0.00332 0.0
C44 C 0.54424 0.78269 0.03377 0.0
C45 C 0.48296 0.75938 0.03404 0.0
C46 C 0.47635 0.75874 0.06305 0.0
C47 C 0.53126 0.78128 0.09253 0.0
C48 C 0.5926 0.80468 0.09212 0.0
C49 C 0.59883 0.80548 0.06303 0.0
C50 C 0.76289 0.84006 0.99124 0.0
C51 C 0.66876 0.76628 0.92483 0.0
C52 C 0.95595 0.74645 0.98995 0.0
C53 C 0.9636 0.74576 0.95946 0.0
C54 C 0.02505 0.76899 0.95925 0.0
C55 C 0.03149 0.7698 0.9302 0.0
C56 C 0.97622 0.74753 0.90062 0.0
C57 C 0.91472 0.72422 0.90097 0.0
C58 C 0.90867 0.72324 0.9301 0.0
C59 C 0.74478 0.68854 0.00206 0.0
O60 O 0.75896 0.76478 0.04971 0.0
O61 O 0.88572 0.7614 0.05501 0.0
O62 O 0.58523 0.81436 -0.00171 0.0
O63 O 0.57804 0.74685 -0.00231 0.0
O64 O 0.68376 0.83962 0.9742 0.0
O65 O 0.79038 0.8086 0.01041 0.0
O66 O 0.74917 0.76401 0.94361 0.0
O67 O 0.62237 0.76721 0.93827 0.0
O68 O 0.9223 0.71396 0.99479 0.0
O69 O 0.93043 0.78145 0.99581 0.0
O70 O 0.82392 0.68894 0.01918 0.0
O71 O 0.71768 0.71995 0.98284 0.0
H72 H 0.44049 0.74136 0.01185 0.0
H73 H 0.42902 0.73998 0.06258 0.0
H74 H 0.63534 0.82279 0.11417 0.0
H75 H 0.64656 0.82384 0.06348 0.0
H76 H 0.06779 0.78681 0.98153 0.0
H77 H 0.07897 0.78848 0.93072 0.0
H78 H 0.8717 0.70632 0.87883 0.0
H79 H 0.8608 0.70494 0.9296 0.0
Ho80 Ho 0.33105 0.77783 0.49568 0.0
Ho81 Ho 0.17805 0.75608 0.49789 0.0
C82 C 0.16132 0.75155 0.42655 0.0
C83 C 0.44719 0.7804 0.48257 0.0
C84 C 0.45328 0.77906 0.45175 0.0
C85 C 0.39521 0.75811 0.42208 0.0
C86 C 0.40116 0.75799 0.39289 0.0
C87 C 0.46555 0.77876 0.39279 0.0
C88 C 0.52356 0.79969 0.42266 0.0
C89 C 0.51737 0.79984 0.45176 0.0
C90 C 0.23924 0.84306 0.49319 0.0
C91 C 0.34784 0.78229 0.56702 0.0
C92 C 0.06198 0.7533 0.51103 0.0
C93 C 0.05603 0.75459 0.54188 0.0
C94 C 0.11439 0.77537 0.57159 0.0
C95 C 0.10868 0.7754 0.60083 0.0
C96 C 0.04426 0.75471 0.60095 0.0
C97 C 0.98593 0.73397 0.57105 0.0
C98 C 0.99188 0.7339 0.54189 0.0
C99 C 0.27007 0.69093 0.5003 0.0
O100 O 0.24186 0.7522 0.44355 0.0
O101 O 0.11923 0.75926 0.44136 0.0
O102 O 0.41279 0.81353 0.48615 0.0
O103 O 0.42379 0.74626 0.49047 0.0
O104 O 0.31815 0.84369 0.50905 0.0
O105 O 0.21274 0.80877 0.478 0.0
O106 O 0.26729 0.78172 0.55001 0.0
O107 O 0.38987 0.77458 0.55219 0.0
O108 O 0.09654 0.72024 0.50746 0.0
O109 O 0.08515 0.78749 0.50309 0.0
O110 O 0.19115 0.69024 0.4844 0.0
O111 O 0.29625 0.72519 0.51555 0.0
H112 H 0.34534 0.74179 0.42147 0.0
H113 H 0.35586 0.74116 0.37056 0.0
H114 H 0.57321 0.81655 0.42341 0.0
H115 H 0.56255 0.81643 0.4743 0.0
H116 H 0.16429 0.79163 0.57218 0.0
H117 H 0.15422 0.79209 0.6232 0.0
H118 H 0.93624 0.71717 0.57032 0.0
H119 H 0.9465 0.71742 0.51932 0.0
Ho120 Ho 0.83503 0.27985 0.49897 0.0
Ho121 Ho 0.67349 0.25454 0.49354 0.0
C122 C 0.66812 0.26576 0.42467 0.0
C123 C 0.95596 0.28422 0.48907 0.0
C124 C 0.96457 0.28169 0.4589 0.0
C125 C 0.90898 0.25907 0.42974 0.0
C126 C 0.91619 0.25833 0.40087 0.0
C127 C 0.97966 0.27991 0.40062 0.0
C128 C 0.03569 0.30213 0.43013 0.0
C129 C 0.02799 0.3031 0.45886 0.0
C130 C 0.7473 0.34279 0.50279 0.0
C131 C 0.84066 0.26865 0.56809 0.0
C132 C 0.55272 0.25068 0.50349 0.0
C133 C 0.54554 0.24951 0.53407 0.0
C134 C 0.48498 0.27307 0.53487 0.0
C135 C 0.47877 0.27333 0.56398 0.0
C136 C 0.53334 0.25011 0.59304 0.0
C137 C 0.59406 0.22653 0.59211 0.0
C138 C 0.59994 0.22615 0.56293 0.0
C139 C 0.76156 0.19159 0.48982 0.0
O140 O 0.74859 0.26631 0.44335 0.0
O141 O 0.62196 0.26595 0.43821 0.0
O142 O 0.91735 0.31687 0.49067 0.0
O143 O 0.93467 0.25 0.49779 0.0
O144 O 0.82644 0.34192 0.51966 0.0
O145 O 0.71902 0.31164 0.48324 0.0
O146 O 0.76023 0.26622 0.54951 0.0
O147 O 0.88673 0.27011 0.55451 0.0
O148 O 0.58474 0.218 0.49776 0.0
O149 O 0.57953 0.28557 0.49834 0.0
O150 O 0.68242 0.19231 0.47303 0.0
O151 O 0.78945 0.22279 0.5093 0.0
H152 H 0.85959 0.24217 0.42913 0.0
H153 H 0.87115 0.24137 0.37857 0.0
H154 H 0.08613 0.31854 0.4312 0.0
H155 H 0.07165 0.32067 0.48111 0.0
H156 H 0.44272 0.29155 0.513 0.0
H157 H 0.43198 0.29228 0.56391 0.0
H158 H 0.63654 0.20792 0.61382 0.0
H159 H 0.64721 0.20764 0.56298 0.0
H160 H 0.7978 0.61958 0.0421 0.0
H161 H 0.7173 0.56017 0.0412 0.0
H162 H 0.49871 0.61892 0.96165 0.0
H163 H 0.57952 0.67794 0.96177 0.0
H164 H 0.59358 0.55542 0.05361 0.0
H165 H 0.48352 0.50506 0.92086 0.0
H166 H 0.56416 0.54261 0.94289 0.0
H167 H 0.45944 0.55818 0.92416 0.0
C168 C 0.73259 0.61977 0.02432 0.0
C169 C 0.69496 0.65336 0.00194 0.0
C170 C 0.68661 0.58582 0.02388 0.0
C171 C 0.60203 0.58464 0.00098 0.0
C172 C 0.56407 0.61859 0.97902 0.0
H173 H 0.21738 0.41183 0.96297 0.0
H174 H 0.29986 0.47051 0.96423 0.0
C175 C 0.61017 0.65252 0.97934 0.0
C176 C 0.55387 0.54809 0.00051 0.0
H177 H 0.42457 0.47162 0.94905 0.0
C178 C 0.55696 0.53698 0.03078 0.0
C179 C 0.5062 0.52388 0.97076 0.0
C180 C 0.50356 0.53271 0.9379 0.0
C181 C 0.51249 0.50298 0.03192 0.0
C182 C 0.46437 0.47903 0.00211 0.0
C183 C 0.46141 0.49002 0.97188 0.0
C184 C 0.41515 0.44299 0.00152 0.0
C185 C 0.51586 0.49357 0.06484 0.0
C186 C 0.45256 0.40768 0.02176 0.0
C187 C 0.40542 0.37402 0.02108 0.0
C188 C 0.32011 0.37507 5e-05 0.0
C189 C 0.28298 0.41021 0.97955 0.0
C190 C 0.33003 0.44373 0.98019 0.0
H191 H 0.53988 0.52027 0.08286 0.0
H192 H 0.45452 0.48544 0.05996 0.0
H193 H 0.55672 0.46656 0.07736 0.0
H194 H 0.51823 0.40607 0.03798 0.0
H195 H 0.43568 0.34731 0.0371 0.0
H196 H 0.43623 0.68346 0.53855 0.0
H197 H 0.51927 0.62487 0.53899 0.0
H198 H 0.30153 0.56128 0.4638 0.0
H199 H 0.2186 0.61966 0.46307 0.0
H200 H 0.50866 0.53932 0.55417 0.0
H201 H 0.4489 0.55872 0.42285 0.0
H202 H 0.42967 0.5995 0.44498 0.0
H203 H 0.35916 0.55715 0.42575 0.0
C204 C 0.40628 0.65707 0.52198 0.0
C205 C 0.32105 0.65614 0.50067 0.0
C206 C 0.45368 0.62362 0.52231 0.0
C207 C 0.41665 0.58895 0.5011 0.0
C208 C 0.33151 0.588 0.47992 0.0
H209 H 0.58261 0.3546 0.46252 0.0
H210 H 0.50274 0.41372 0.46345 0.0
C211 C 0.28418 0.62128 0.47969 0.0
C212 C 0.46651 0.55317 0.50169 0.0
H213 H 0.51585 0.49659 0.45171 0.0
C214 C 0.51075 0.5301 0.53186 0.0
C215 C 0.46872 0.54107 0.47249 0.0
C216 C 0.4247 0.56555 0.43973 0.0
C217 C 0.55574 0.4947 0.53342 0.0
C218 C 0.55797 0.48256 0.50419 0.0
C219 C 0.51395 0.50579 0.47406 0.0
C220 C 0.60619 0.44614 0.50439 0.0
C221 C 0.59865 0.46999 0.56608 0.0
C222 C 0.69094 0.44478 0.5269 0.0
C223 C 0.73646 0.41094 0.52655 0.0
C224 C 0.69827 0.37793 0.5035 0.0
C225 C 0.61355 0.37938 0.48081 0.0
C226 C 0.56796 0.41322 0.48122 0.0
H227 H 0.57256 0.47621 0.58236 0.0
H228 H 0.59491 0.43609 0.56077 0.0
H229 H 0.6639 0.47893 0.58078 0.0
H230 H 0.72213 0.47019 0.54445 0.0
H231 H 0.80174 0.41079 0.54418 0.0
H232 H 0.29029 0.11618 0.02992 0.0
H233 H 0.2074 0.05774 0.02869 0.0
H234 H 0.98967 0.12187 0.95404 0.0
H235 H 0.07268 0.18036 0.95485 0.0
H236 H 0.08242 0.05705 0.04343 0.0
H237 H 0.96806 1.00733 0.90994 0.0
H238 H 0.05323 0.0423 0.93272 0.0
H239 H 0.9509 0.0611 0.91507 0.0
C240 C 0.22475 0.11778 0.01314 0.0
C241 C 0.18793 0.15276 0.99238 0.0
C242 C 0.17745 0.08439 0.01253 0.0
C243 C 0.0924 0.08512 0.99095 0.0
C244 C 0.0553 0.12027 0.97043 0.0
H245 H 0.70948 0.90891 0.95106 0.0
H246 H 0.7898 0.96827 0.95172 0.0
C247 C 0.10268 0.15378 0.97108 0.0
C248 C 0.04295 0.04923 0.99043 0.0
H249 H 0.91381 0.97265 0.93919 0.0
C250 C 0.04567 0.03852 0.02067 0.0
C251 C 0.99493 0.02511 0.9607 0.0
C252 C 0.99185 0.03419 0.9278 0.0
C253 C 1.00081 1.00476 0.02188 0.0
C254 C 0.95327 0.98039 0.99222 0.0
C255 C 0.95035 0.99123 0.96194 0.0
C256 C 0.9052 0.94389 0.9919 0.0
C257 C 1.00328 0.99619 0.05474 0.0
C258 C 0.94332 0.91001 0.01392 0.0
C259 C 0.89734 0.8761 0.01373 0.0
C260 C 0.81252 0.87523 0.99122 0.0
C261 C 0.77472 0.90876 0.96878 0.0
C262 C 0.82059 0.94268 0.96908 0.0
H263 H 0.02335 0.02393 0.07169 0.0
H264 H 0.94261 0.9864 0.04973 0.0
H265 H 0.04729 0.97072 0.06858 0.0
H266 H 0.0087 0.90972 0.03123 0.0
H267 H 0.92813 0.85074 0.03132 0.0
H268 H 0.92624 0.17987 0.53032 0.0
H269 H 0.00646 0.12082 0.52953 0.0
H270 H 0.78755 0.06426 0.44831 0.0
H271 H 0.70763 0.12361 0.44841 0.0
H272 H 0.99382 0.03812 0.54132 0.0
H273 H 0.93747 0.05805 0.4107 0.0
H274 H 0.91457 0.09818 0.4321 0.0
H275 H 0.84596 0.05519 0.41212 0.0
C276 C 0.8955 0.1551 0.51199 0.0
C277 C 0.81083 0.15651 0.4892 0.0
C278 C 0.94128 0.12129 0.51166 0.0
C279 C 0.90329 0.08836 0.48848 0.0
C280 C 0.81859 0.08968 0.46587 0.0
H281 H 0.07309 0.85059 0.45509 0.0
H282 H 0.99026 0.90937 0.45451 0.0
C283 C 0.77288 0.1235 0.46612 0.0
C284 C 0.9517 0.05194 0.4888 0.0
H285 H 1.00113 0.9949 0.43898 0.0
C286 C 0.99576 0.02882 0.51899 0.0
C287 C 0.954 0.03967 0.45961 0.0
C288 C 0.91113 0.06426 0.42689 0.0
C289 C 0.04106 0.99353 0.52067 0.0
C290 C 0.04327 0.98128 0.4915 0.0
C291 C 0.99903 1.00424 0.46127 0.0
C292 C 0.09304 0.9454 0.49216 0.0
C293 C 0.08515 0.96918 0.55349 0.0
C294 C 0.17821 0.94634 0.51326 0.0
C295 C 0.22543 0.91296 0.51357 0.0
C296 C 0.18842 0.87799 0.49275 0.0
C297 C 0.10315 0.87707 0.47153 0.0
C298 C 0.05587 0.91062 0.47112 0.0
H299 H 0.06115 0.97621 0.57041 0.0
H300 H 0.07999 0.93521 0.54833 0.0
H301 H 0.15072 0.9775 0.56738 0.0
H302 H 0.20828 0.97313 0.52927 0.0
H303 H 0.29103 0.91457 0.53012 0.0
H304 H 0.51712 0.23653 0.37684 0.0
H305 H 0.46264 0.22862 0.31541 0.0
H306 H 0.68032 0.28461 0.32771 0.0
H307 H 0.73524 0.29198 0.38865 0.0
H308 H 0.43185 0.28706 0.26641 0.0
H309 H 0.66896 0.17657 0.27985 0.0
H310 H 0.65492 0.18936 0.31483 0.0
H311 H 0.71068 0.22382 0.30343 0.0
C312 C 0.55291 0.2473 0.3663 0.0
C313 C 0.63076 0.26426 0.38747 0.0
C314 C 0.52205 0.24261 0.33137 0.0
C315 C 0.56866 0.25495 0.31736 0.0
C316 C 0.6447 0.27361 0.33826 0.0
H317 H 0.49943 0.27356 0.11626 0.0
H318 H 0.55531 0.27202 0.17808 0.0
C319 C 0.67573 0.27797 0.37304 0.0
C320 C 0.53755 0.2493 0.28072 0.0
H321 H 0.58466 0.20681 0.22478 0.0
C322 C 0.4647 0.2692 0.25723 0.0
C323 C 0.58104 0.22603 0.26902 0.0
C324 C 0.65782 0.2024 0.29309 0.0
C325 C 0.43507 0.26746 0.2222 0.0
C326 C 0.47913 0.24465 0.21054 0.0
C327 C 0.55154 0.22439 0.23398 0.0
C328 C 0.45028 0.24138 0.17397 0.0
C329 C 0.35795 0.29089 0.1981 0.0
C330 C 0.37476 0.22304 0.1517 0.0
C331 C 0.34284 0.22411 0.11671 0.0
C332 C 0.38648 0.24304 0.10346 0.0
C333 C 0.46469 0.25884 0.12589 0.0
C334 C 0.4964 0.25808 0.16106 0.0
H335 H 0.3441 0.31535 0.21153 0.0
H336 H 0.36237 0.30568 0.17727 0.0
H337 H 0.306 0.26884 0.18642 0.0
H338 H 0.33938 0.20906 0.16134 0.0
H339 H 0.28284 0.21109 0.09999 0.0
H340 H 0.65461 0.77634 0.15966 0.0
H341 H 0.64291 0.77513 0.21034 0.0
H342 H 0.38149 0.78341 0.14644 0.0
H343 H 0.39259 0.7847 0.0957 0.0
H344 H 0.57628 0.83349 0.23345 0.0
H345 H 0.41002 0.68404 0.20637 0.0
H346 H 0.45979 0.70011 0.18399 0.0
H347 H 0.36163 0.72099 0.17224 0.0
C348 C 0.59459 0.77807 0.15637 0.0
C349 C 0.52448 0.78042 0.12352 0.0
C350 C 0.588 0.77719 0.18538 0.0
C351 C 0.51125 0.77846 0.18223 0.0
C352 C 0.44126 0.78131 0.14953 0.0
H353 H 0.34275 0.7858 0.32569 0.0
H354 H 0.35443 0.78591 0.27501 0.0
C355 C 0.44774 0.78208 0.1205 0.0
C356 C 0.5045 0.7779 0.21315 0.0
H357 H 0.4207 0.72459 0.25194 0.0
C358 C 0.54267 0.80955 0.23759 0.0
C359 C 0.46044 0.7467 0.21853 0.0
C360 C 0.42124 0.7108 0.19408 0.0
C361 C 0.53676 0.81128 0.26688 0.0
C362 C 0.49255 0.78015 0.27221 0.0
C363 C 0.45438 0.7485 0.24779 0.0
C364 C 0.48567 0.77971 0.30307 0.0
C365 C 0.5764 0.84697 0.29152 0.0
C366 C 0.55536 0.7755 0.3357 0.0
C367 C 0.54882 0.77509 0.36472 0.0
C368 C 0.4723 0.77871 0.36177 0.0
C369 C 0.40248 0.78242 0.32895 0.0
C370 C 0.4091 0.78275 0.29993 0.0
H371 H 0.58961 0.87345 0.27962 0.0
H372 H 0.53707 0.85821 0.30106 0.0
H373 H 0.63495 0.83627 0.31372 0.0
H374 H 0.61491 0.77216 0.33873 0.0
H375 H 0.60375 0.77137 0.38946 0.0
H376 H 0.73325 0.73813 0.88816 0.0
H377 H 0.67918 0.74633 0.82742 0.0
H378 H 0.46719 0.80837 0.81636 0.0
H379 H 0.52068 0.79927 0.87758 0.0
H380 H 0.42916 0.75198 0.76602 0.0
H381 H 0.67982 0.85271 0.78154 0.0
H382 H 0.71624 0.80422 0.80359 0.0
H383 H 0.66576 0.84057 0.81654 0.0
C384 C 0.67519 0.75355 0.87287 0.0
C385 C 0.63159 0.7685 0.88762 0.0
C386 C 0.64463 0.75847 0.83819 0.0
C387 C 0.57053 0.77912 0.81767 0.0
C388 C 0.52516 0.79283 0.83199 0.0
H389 H 0.29378 0.82895 0.60051 0.0
H390 H 0.35045 0.83204 0.66198 0.0
C391 C 0.55545 0.78746 0.86681 0.0
C392 C 0.53996 0.78531 0.7811 0.0
H393 H 0.59273 0.82378 0.72589 0.0
C394 C 0.46438 0.76809 0.7572 0.0
C395 C 0.58639 0.80632 0.76979 0.0
C396 C 0.66617 0.82736 0.79423 0.0
C397 C 0.43496 0.77015 0.7222 0.0
C398 C 0.48216 0.79041 0.71097 0.0
C399 C 0.55718 0.80813 0.73477 0.0
C400 C 0.45431 0.79309 0.67446 0.0
C401 C 0.35464 0.7497 0.69756 0.0
C402 C 0.4967 0.77207 0.66148 0.0
C403 C 0.46466 0.77044 0.62629 0.0
C404 C 0.38982 0.78967 0.60393 0.0
C405 C 0.35057 0.81298 0.61724 0.0
C406 C 0.38278 0.81481 0.65227 0.0
H407 H 0.33483 0.72791 0.71062 0.0
H408 H 0.30709 0.77402 0.68491 0.0
H409 H 0.35854 0.73238 0.67746 0.0
H410 H 0.55252 0.75544 0.67842 0.0
H411 H 0.49599 0.75235 0.61658 0.0
H412 H 0.65699 0.25324 0.66022 0.0
H413 H 0.6456 0.25273 0.71099 0.0
H414 H 0.38383 0.24866 0.64708 0.0
H415 H 0.39464 0.2479 0.59625 0.0
H416 H 0.5667 0.30939 0.73063 0.0
H417 H 0.43219 0.15203 0.71254 0.0
H418 H 0.47946 0.16958 0.68952 0.0
H419 H 0.37751 0.18563 0.67633 0.0
C420 C 0.59698 0.25169 0.65694 0.0
C421 C 0.52672 0.25035 0.62407 0.0
C422 C 0.59058 0.25169 0.68601 0.0
C423 C 0.51391 0.25 0.6829 0.0
C424 C 0.44369 0.24917 0.65017 0.0
H425 H 0.3448 0.24731 0.8261 0.0
H426 H 0.35653 0.24864 0.77547 0.0
C427 C 0.44999 0.24923 0.62109 0.0
C428 C 0.50729 0.25001 0.71384 0.0
H429 H 0.43558 0.19387 0.75598 0.0
C430 C 0.53841 0.28405 0.73628 0.0
C431 C 0.47014 0.21698 0.72116 0.0
C432 C 0.43853 0.17878 0.69882 0.0
C433 C 0.53201 0.28635 0.76544 0.0
C434 C 0.4949 0.25329 0.77278 0.0
C435 C 0.46385 0.21924 0.75034 0.0
C436 C 0.48802 0.2533 0.80368 0.0
C437 C 0.56329 0.32466 0.78765 0.0
C438 C 0.55798 0.25505 0.83646 0.0
C439 C 0.55137 0.25473 0.86546 0.0
C440 C 0.4746 0.25228 0.86238 0.0
C441 C 0.4047 0.25003 0.82947 0.0
C442 C 0.41137 0.25044 0.80047 0.0
H443 H 0.56852 0.35149 0.77369 0.0
H444 H 0.52281 0.33361 0.79724 0.0
H445 H 0.62481 0.31814 0.80993 0.0
H446 H 0.61791 0.25639 0.83967 0.0
H447 H 0.60651 0.25678 0.89032 0.0
H448 H 0.98771 0.72994 0.11595 0.0
H449 H 0.04153 0.72174 0.17728 0.0
H450 H 0.82921 0.78387 0.1658 0.0
H451 H 0.77482 0.79119 0.10497 0.0
H452 H 0.0793 0.77895 0.22706 0.0
H453 H 0.8298 0.67831 0.21285 0.0
H454 H 0.84354 0.68981 0.17767 0.0
H455 H 0.79281 0.72644 0.19027 0.0
C456 C 0.95292 0.74194 0.12665 0.0
C457 C 0.87662 0.76068 0.1057 0.0
C458 C 0.98341 0.73709 0.16154 0.0
C459 C 0.93805 0.7511 0.17578 0.0
C460 C 0.86375 0.77151 0.1551 0.0
H461 H 0.01301 0.7811 0.37676 0.0
H462 H 0.95644 0.77724 0.31493 0.0
C463 C 0.83301 0.77591 0.12036 0.0
C464 C 0.96886 0.74551 0.21243 0.0
H465 H 0.9167 0.70818 0.26815 0.0
C466 C 0.0443 0.76306 0.2361 0.0
C467 C 0.92271 0.72479 0.22402 0.0
C468 C 0.84311 0.70342 0.19986 0.0
C469 C 0.07385 0.76161 0.27114 0.0
C470 C 0.02691 0.74166 0.28264 0.0
C471 C 0.95204 0.72361 0.25907 0.0
C472 C 0.05493 0.73957 0.31918 0.0
C473 C 0.15402 0.78239 0.29551 0.0
C474 C 0.12665 0.71809 0.34154 0.0
C475 C 0.15885 0.72036 0.37655 0.0
C476 C 0.11944 0.74386 0.38968 0.0
C477 C 0.04447 0.76287 0.36718 0.0
C478 C 0.01241 0.7608 0.33201 0.0
H479 H 0.17345 0.80397 0.28219 0.0
H480 H 0.15012 0.80001 0.31549 0.0
H481 H 0.20185 0.75824 0.30834 0.0
H482 H 0.15908 0.70069 0.33196 0.0
H483 H 0.21575 0.70454 0.3934 0.0
H484 H 0.95069 0.21485 0.35659 0.0
H485 H 0.96423 0.21409 0.3064 0.0
H486 H 0.04069 0.34222 0.32465 0.0
H487 H 0.02563 0.3437 0.3744 0.0
H488 H 0.8854 0.26732 0.24724 0.0
H489 H 0.22261 0.28184 0.31746 0.0
H490 H 0.16815 0.2664 0.33805 0.0
H491 H 0.17032 0.32007 0.32784 0.0
C492 C 0.96969 0.24305 0.34984 0.0
C493 C 0.98749 0.27929 0.36983 0.0
C494 C 0.97786 0.24245 0.32121 0.0
C495 C 0.00469 0.27789 0.31208 0.0
C496 C 0.02157 0.31424 0.33163 0.0
H497 H 0.10576 0.33367 0.15184 0.0
H498 H 0.09267 0.33459 0.20218 0.0
C499 C 0.01309 0.31495 0.36017 0.0
C500 C 0.01369 0.27703 0.28176 0.0
H501 H 0.15356 0.2852 0.25727 0.0
C502 C 0.94402 0.27106 0.24939 0.0
C503 C 0.09016 0.2822 0.28463 0.0
C504 C 0.16734 0.28767 0.31885 0.0
C505 C 0.94846 0.27082 0.21972 0.0
C506 C 0.02516 0.27549 0.22257 0.0
C507 C 0.09482 0.28153 0.25501 0.0
C508 C 0.03444 0.27436 0.19224 0.0
C509 C 0.87048 0.26673 0.18558 0.0
C510 C 0.00781 0.23984 0.1702 0.0
C511 C 0.01483 0.23935 0.1413 0.0
C512 C 0.04987 0.2731 0.13405 0.0
C513 C 0.07886 0.30708 0.15674 0.0
C514 C 0.07114 0.3077 0.18548 0.0
H515 H 0.81659 0.27604 0.18704 0.0
H516 H 0.87212 0.28605 0.16592 0.0
H517 H 0.86216 0.23377 0.17721 0.0
H518 H 0.9817 0.21314 0.17538 0.0
H519 H 0.99338 0.21235 0.12475 0.0
H520 H 0.77709 0.23974 0.60473 0.0
H521 H 0.83188 0.24731 0.6656 0.0
H522 H 0.04301 0.30982 0.67677 0.0
H523 H 0.98877 0.30145 0.61539 0.0
H524 H 0.08136 0.25223 0.72644 0.0
H525 H 0.83215 0.35344 0.71275 0.0
H526 H 0.7952 0.30536 0.68994 0.0
H527 H 0.84595 0.34192 0.67753 0.0
C528 C 0.83512 0.25514 0.62006 0.0
C529 C 0.87827 0.27046 0.60531 0.0
C530 C 0.86607 0.25968 0.65481 0.0
C531 C 0.94012 0.28027 0.67539 0.0
C532 C 0.98507 0.29433 0.66107 0.0
H533 H 0.2181 0.32549 0.8934 0.0
H534 H 0.16182 0.32995 0.83203 0.0
C535 C 0.95436 0.28937 0.62617 0.0
C536 C 0.97112 0.28597 0.71204 0.0
H537 H 0.91921 0.32354 0.76794 0.0
C538 C 0.0465 0.26825 0.73558 0.0
C539 C 0.92509 0.30685 0.72372 0.0
C540 C 0.84549 0.32832 0.69965 0.0
C541 C 0.07607 0.26963 0.77061 0.0
C542 C 0.02924 0.28973 0.78222 0.0
C543 C 0.95448 0.30802 0.75877 0.0
C544 C 0.05705 0.29155 0.81873 0.0
C545 C 0.15606 0.24858 0.79486 0.0
C546 C 0.01404 0.2704 0.83123 0.0
C547 C 0.04584 0.268 0.86635 0.0
C548 C 0.12104 0.28658 0.88911 0.0
C549 C 0.16103 0.30998 0.87633 0.0
C550 C 0.12905 0.31261 0.84137 0.0
H551 H 0.17559 0.2271 0.7814 0.0
H552 H 0.20396 0.27258 0.808 0.0
H553 H 0.15184 0.2308 0.81461 0.0
H554 H 0.95786 0.25429 0.81393 0.0
H555 H 0.01392 0.24988 0.87567 0.0
H556 H 0.90646 0.76215 0.60462 0.0
H557 H 0.89605 0.76133 0.65556 0.0
H558 H 0.15644 0.74649 0.71871 0.0
H559 H 0.16729 0.74667 0.66786 0.0
H560 H 0.94401 0.69886 0.70512 0.0
H561 H 0.11083 0.84593 0.76272 0.0
H562 H 0.07302 0.83208 0.71881 0.0
H563 H 0.16516 0.80894 0.75242 0.0
C564 C 0.96157 0.75848 0.6293 0.0
C565 C 0.03786 0.75468 0.63206 0.0
C566 C 0.9555 0.75822 0.65844 0.0
C567 C 0.02553 0.75448 0.69102 0.0
C568 C 0.10171 0.75038 0.69391 0.0
H569 H 0.11463 0.74408 0.89722 0.0
H570 H 0.12515 0.74536 0.84629 0.0
C571 C 0.10784 0.75056 0.66478 0.0
C572 C 0.01847 0.7539 0.72184 0.0
H573 H 0.07681 0.80512 0.79651 0.0
C574 C 0.97272 0.72219 0.72504 0.0
C575 C 0.05617 0.78428 0.74788 0.0
C576 C 0.1035 0.81997 0.74529 0.0
C577 C 0.96485 0.71959 0.75381 0.0
C578 C 1.00232 0.75006 0.77982 0.0
C579 C 0.04809 0.78177 0.77661 0.0
C580 C 0.99523 0.74949 0.81067 0.0
C581 C 0.91817 0.68361 0.75647 0.0
C582 C 0.91875 0.75201 0.8077 0.0
C583 C 0.91252 0.75133 0.83681 0.0
C584 C 0.98276 0.74852 0.86958 0.0
C585 C 0.05934 0.74665 0.87245 0.0
C586 C 0.06546 0.7472 0.84333 0.0
H587 H 0.91273 0.6574 0.73956 0.0
H588 H 0.94794 0.67202 0.78308 0.0
H589 H 0.85572 0.69409 0.7486 0.0
H590 H 0.86377 0.75489 0.78286 0.0
H591 H 0.85269 0.75362 0.83365 0.0
loop_
_geom_bond_atom_site_label_1
_geom_bond_atom_site_label_2
_geom_bond_distance
_geom_bond_site_symmetry_2
_ccdc_geom_bond_type
Ho0 C3 2.811 . S
Ho0 O20 2.322 . S
Ho0 O22 2.378 . S
Ho0 O23 2.524 . S
Ho0 O24 2.381 . S
Ho0 O25 2.669 1_554 S
Ho0 O27 2.346 1_554 S
Ho0 O31 2.305 . S
Ho1 C12 2.811 . S
Ho1 O21 2.346 1_556 S
Ho1 O25 2.305 . S
Ho1 O26 2.322 . S
Ho1 O28 2.378 . S
Ho1 O29 2.524 . S
Ho1 O30 2.381 . S
Ho1 O31 2.669 1_556 S
C2 O20 1.259 . S
C2 O21 1.268 . S
C3 Ho0 2.811 . S
C3 C4 1.488 . S
C3 O22 1.215 . S
C3 O23 1.289 . S
C4 C3 1.488 . S
C4 C5 1.348 . S
C4 C9 1.413 . S
C5 C4 1.348 . S
C5 C6 1.442 . S
C5 H32 0.930 . S
C6 C5 1.442 . S
C6 C7 1.381 . S
C6 H33 0.931 . S
C7 C6 1.381 . S
C7 C8 1.321 . S
C8 C7 1.321 . S
C8 C9 1.403 . S
C8 H34 0.934 . S
C9 C4 1.413 . S
C9 C8 1.403 . S
C9 H35 0.930 . S
C10 O24 1.275 . S
C10 O25 1.256 1_554 S
C11 O26 1.259 . S
C11 O27 1.268 . S
C12 Ho1 2.811 . S
C12 C13 1.488 . S
C12 O28 1.215 . S
C12 O29 1.289 . S
C13 C12 1.488 . S
C13 C14 1.348 . S
C13 C18 1.413 . S
C14 C13 1.348 . S
C14 C15 1.442 . S
C14 H36 0.930 . S
C15 C14 1.442 . S
C15 C16 1.381 . S
C15 H37 0.931 . S
C16 C15 1.381 . S
C16 C17 1.321 . S
C17 C16 1.321 . S
C17 C18 1.403 . S
C17 H38 0.934 . S
C18 C13 1.413 . S
C18 C17 1.403 . S
C18 H39 0.930 . S
C19 O30 1.275 . S
C19 O31 1.256 1_556 S
O20 Ho0 2.322 . S
O20 C2 1.259 . S
O21 Ho1 2.346 1_554 S
O21 C2 1.268 . S
O22 Ho0 2.378 . S
O22 C3 1.215 . S
O23 Ho0 2.524 . S
O23 C3 1.289 . S
O24 Ho0 2.381 . S
O24 C10 1.275 . S
O25 Ho0 2.669 1_556 S
O25 Ho1 2.305 . S
O25 C10 1.256 1_556 S
O26 Ho1 2.322 . S
O26 C11 1.259 . S
O27 Ho0 2.346 1_556 S
O27 C11 1.268 . S
O28 Ho1 2.378 . S
O28 C12 1.215 . S
O29 Ho1 2.524 . S
O29 C12 1.289 . S
O30 Ho1 2.381 . S
O30 C19 1.275 . S
O31 Ho0 2.305 . S
O31 Ho1 2.669 1_554 S
O31 C19 1.256 1_554 S
H32 C5 0.930 . S
H33 C6 0.931 . S
H34 C8 0.934 . S
H35 C9 0.930 . S
H36 C14 0.930 . S
H37 C15 0.931 . S
H38 C17 0.934 . S
H39 C18 0.930 . S
Ho40 C43 2.811 . S
Ho40 O60 2.322 . S
Ho40 O62 2.378 . S
Ho40 O63 2.524 . S
Ho40 O64 2.381 . S
Ho40 O65 2.669 1_554 S
Ho40 O67 2.346 1_554 S
Ho40 O71 2.305 . S
Ho41 C52 2.811 . S
Ho41 O61 2.346 1_556 S
Ho41 O65 2.305 . S
Ho41 O66 2.322 . S
Ho41 O68 2.378 . S
Ho41 O69 2.524 . S
Ho41 O70 2.381 . S
Ho41 O71 2.669 1_556 S
C42 O60 1.259 . S
C42 O61 1.268 . S
C43 Ho40 2.811 . S
C43 C44 1.488 . S
C43 O62 1.215 . S
C43 O63 1.289 . S
C44 C43 1.488 . S
C44 C45 1.348 . S
C44 C49 1.413 . S
C45 C44 1.348 . S
C45 C46 1.442 . S
C45 H72 0.930 . S
C46 C45 1.442 . S
C46 C47 1.381 . S
C46 H73 0.931 . S
C47 C46 1.381 . S
C47 C48 1.321 . S
C48 C47 1.321 . S
C48 C49 1.403 . S
C48 H74 0.934 . S
C49 C44 1.413 . S
C49 C48 1.403 . S
C49 H75 0.930 . S
C50 O64 1.275 . S
C50 O65 1.256 1_554 S
C51 O66 1.259 . S
C51 O67 1.268 . S
C52 Ho41 2.811 . S
C52 C53 1.488 . S
C52 O68 1.215 . S
C52 O69 1.289 . S
C53 C52 1.488 . S
C53 C54 1.348 . S
C53 C58 1.413 . S
C54 C53 1.348 . S
C54 C55 1.442 . S
C54 H76 0.930 . S
C55 C54 1.442 . S
C55 C56 1.381 . S
C55 H77 0.931 . S
C56 C55 1.381 . S
C56 C57 1.321 . S
C57 C56 1.321 . S
C57 C58 1.403 . S
C57 H78 0.934 . S
C58 C53 1.413 . S
C58 C57 1.403 . S
C58 H79 0.930 . S
C59 O70 1.275 . S
C59 O71 1.256 1_556 S
O60 Ho40 2.322 . S
O60 C42 1.259 . S
O61 Ho41 2.346 1_554 S
O61 C42 1.268 . S
O62 Ho40 2.378 . S
O62 C43 1.215 . S
O63 Ho40 2.524 . S
O63 C43 1.289 . S
O64 Ho40 2.381 . S
O64 C50 1.275 . S
O65 Ho40 2.669 1_556 S
O65 Ho41 2.305 . S
O65 C50 1.256 1_556 S
O66 Ho41 2.322 . S
O66 C51 1.259 . S
O67 Ho40 2.346 1_556 S
O67 C51 1.268 . S
O68 Ho41 2.378 . S
O68 C52 1.215 . S
O69 Ho41 2.524 . S
O69 C52 1.289 . S
O70 Ho41 2.381 . S
O70 C59 1.275 . S
O71 Ho40 2.305 . S
O71 Ho41 2.669 1_554 S
O71 C59 1.256 1_554 S
H72 C45 0.930 . S
H73 C46 0.931 . S
H74 C48 0.934 . S
H75 C49 0.930 . S
H76 C54 0.930 . S
H77 C55 0.931 . S
H78 C57 0.934 . S
H79 C58 0.930 . S
Ho80 C83 2.811 . S
Ho80 O100 2.322 . S
Ho80 O102 2.378 . S
Ho80 O103 2.524 . S
Ho80 O104 2.381 . S
Ho80 O105 2.669 . S
Ho80 O107 2.346 . S
Ho80 O111 2.305 . S
Ho81 C92 2.811 . S
Ho81 O101 2.346 . S
Ho81 O105 2.305 . S
Ho81 O106 2.322 . S
Ho81 O108 2.378 . S
Ho81 O109 2.524 . S
Ho81 O110 2.381 . S
Ho81 O111 2.669 . S
C82 O100 1.259 . S
C82 O101 1.268 . S
C83 Ho80 2.811 . S
C83 C84 1.488 . S
C83 O102 1.215 . S
C83 O103 1.289 . S
C84 C83 1.488 . S
C84 C85 1.348 . S
C84 C89 1.413 . S
C85 C84 1.348 . S
C85 C86 1.442 . S
C85 H112 0.930 . S
C86 C85 1.442 . S
C86 C87 1.381 . S
C86 H113 0.931 . S
C87 C86 1.381 . S
C87 C88 1.321 . S
C88 C87 1.321 . S
C88 C89 1.403 . S
C88 H114 0.934 . S
C89 C84 1.413 . S
C89 C88 1.403 . S
C89 H115 0.930 . S
C90 O104 1.275 . S
C90 O105 1.256 . S
C91 O106 1.259 . S
C91 O107 1.268 . S
C92 Ho81 2.811 . S
C92 C93 1.488 . S
C92 O108 1.215 . S
C92 O109 1.289 . S
C93 C92 1.488 . S
C93 C94 1.348 . S
C93 C98 1.413 . S
C94 C93 1.348 . S
C94 C95 1.442 . S
C94 H116 0.930 . S
C95 C94 1.442 . S
C95 C96 1.381 . S
C95 H117 0.931 . S
C96 C95 1.381 . S
C96 C97 1.321 . S
C97 C96 1.321 . S
C97 C98 1.403 . S
C97 H118 0.934 . S
C98 C93 1.413 . S
C98 C97 1.403 . S
C98 H119 0.930 . S
C99 O110 1.275 . S
C99 O111 1.256 . S
O100 Ho80 2.322 . S
O100 C82 1.259 . S
O101 Ho81 2.346 . S
O101 C82 1.268 . S
O102 Ho80 2.378 . S
O102 C83 1.215 . S
O103 Ho80 2.524 . S
O103 C83 1.289 . S
O104 Ho80 2.381 . S
O104 C90 1.275 . S
O105 Ho80 2.669 . S
O105 Ho81 2.305 . S
O105 C90 1.256 . S
O106 Ho81 2.322 . S
O106 C91 1.259 . S
O107 Ho80 2.346 . S
O107 C91 1.268 . S
O108 Ho81 2.378 . S
O108 C92 1.215 . S
O109 Ho81 2.524 . S
O109 C92 1.289 . S
O110 Ho81 2.381 . S
O110 C99 1.275 . S
O111 Ho80 2.305 . S
O111 Ho81 2.669 . S
O111 C99 1.256 . S
H112 C85 0.930 . S
H113 C86 0.931 . S
H114 C88 0.934 . S
H115 C89 0.930 . S
H116 C94 0.930 . S
H117 C95 0.931 . S
H118 C97 0.934 . S
H119 C98 0.930 . S
Ho120 C123 2.811 . S
Ho120 O140 2.322 . S
Ho120 O142 2.378 . S
Ho120 O143 2.524 . S
Ho120 O144 2.381 . S
Ho120 O145 2.669 . S
Ho120 O147 2.346 . S
Ho120 O151 2.305 . S
Ho121 C132 2.811 . S
Ho121 O141 2.346 . S
Ho121 O145 2.305 . S
Ho121 O146 2.322 . S
Ho121 O148 2.378 . S
Ho121 O149 2.524 . S
Ho121 O150 2.381 . S
Ho121 O151 2.669 . S
C122 O140 1.259 . S
C122 O141 1.268 . S
C123 Ho120 2.811 . S
C123 C124 1.488 . S
C123 O142 1.215 . S
C123 O143 1.289 . S
C124 C123 1.488 . S
C124 C125 1.348 . S
C124 C129 1.413 . S
C125 C124 1.348 . S
C125 C126 1.442 . S
C125 H152 0.930 . S
C126 C125 1.442 . S
C126 C127 1.381 . S
C126 H153 0.931 . S
C127 C126 1.381 . S
C127 C128 1.321 . S
C128 C127 1.321 . S
C128 C129 1.403 . S
C128 H154 0.934 . S
C129 C124 1.413 . S
C129 C128 1.403 . S
C129 H155 0.930 . S
C130 O144 1.275 . S
C130 O145 1.256 . S
C131 O146 1.259 . S
C131 O147 1.268 . S
C132 Ho121 2.811 . S
C132 C133 1.488 . S
C132 O148 1.215 . S
C132 O149 1.289 . S
C133 C132 1.488 . S
C133 C134 1.348 . S
C133 C138 1.413 . S
C134 C133 1.348 . S
C134 C135 1.442 . S
C134 H156 0.930 . S
C135 C134 1.442 . S
C135 C136 1.381 . S
C135 H157 0.931 . S
C136 C135 1.381 . S
C136 C137 1.321 . S
C137 C136 1.321 . S
C137 C138 1.403 . S
C137 H158 0.934 . S
C138 C133 1.413 . S
C138 C137 1.403 . S
C138 H159 0.930 . S
C139 O150 1.275 . S
C139 O151 1.256 . S
O140 Ho120 2.322 . S
O140 C122 1.259 . S
O141 Ho121 2.346 . S
O141 C122 1.268 . S
O142 Ho120 2.378 . S
O142 C123 1.215 . S
O143 Ho120 2.524 . S
O143 C123 1.289 . S
O144 Ho120 2.381 . S
O144 C130 1.275 . S
O145 Ho120 2.669 . S
O145 Ho121 2.305 . S
O145 C130 1.256 . S
O146 Ho121 2.322 . S
O146 C131 1.259 . S
O147 Ho120 2.346 . S
O147 C131 1.268 . S
O148 Ho121 2.378 . S
O148 C132 1.215 . S
O149 Ho121 2.524 . S
O149 C132 1.289 . S
O150 Ho121 2.381 . S
O150 C139 1.275 . S
O151 Ho120 2.305 . S
O151 Ho121 2.669 . S
O151 C139 1.256 . S
H152 C125 0.930 . S
H153 C126 0.931 . S
H154 C128 0.934 . S
H155 C129 0.930 . S
H156 C134 0.930 . S
H157 C135 0.931 . S
H158 C137 0.934 . S
H159 C138 0.930 . S
H160 C168 0.929 . S
H161 C170 0.930 . S
H162 C172 0.930 . S
H163 C175 0.929 . S
H164 C178 0.930 . S
H165 C180 0.960 . S
H166 C180 0.960 . S
H167 C180 0.960 . S
C168 H160 0.929 . S
C168 C169 1.377 1_554 S
C168 C170 1.384 . S
C169 C168 1.377 1_556 S
C169 C175 1.390 . S
C170 H161 0.930 . S
C170 C168 1.384 . S
C170 C171 1.385 . S
C171 C170 1.385 . S
C171 C172 1.378 1_554 S
C171 C176 1.499 . S
C172 H162 0.930 . S
C172 C171 1.378 1_556 S
C172 C175 1.386 . S
H173 C189 0.930 . S
H174 C190 0.931 . S
C175 H163 0.929 . S
C175 C169 1.390 . S
C175 C172 1.386 . S
C176 C171 1.499 . S
C176 C178 1.395 . S
C176 C179 1.403 1_554 S
H177 C183 0.930 . S
C178 H164 0.930 . S
C178 C176 1.395 . S
C178 C181 1.403 . S
C179 C176 1.403 1_556 S
C179 C180 1.524 . S
C179 C183 1.400 . S
C180 H165 0.960 . S
C180 H166 0.960 . S
C180 H167 0.960 . S
C180 C179 1.524 . S
C181 C178 1.403 . S
C181 C182 1.392 . S
C181 C185 1.495 . S
C182 C181 1.392 . S
C182 C183 1.385 1_554 S
C182 C184 1.478 . S
C183 H177 0.930 . S
C183 C179 1.400 . S
C183 C182 1.385 1_556 S
C184 C182 1.478 . S
C184 C186 1.381 . S
C184 C190 1.383 1_554 S
C185 C181 1.495 . S
C185 H191 0.959 . S
C185 H192 0.961 . S
C185 H193 0.960 . S
C186 C184 1.381 . S
C186 C187 1.394 . S
C186 H194 0.930 . S
C187 C186 1.394 . S
C187 C188 1.383 . S
C187 H195 0.929 . S
C188 C187 1.383 . S
C188 C189 1.377 1_554 S
C189 H173 0.930 . S
C189 C188 1.377 1_556 S
C189 C190 1.379 . S
C190 H174 0.931 . S
C190 C184 1.383 1_556 S
C190 C189 1.379 . S
H191 C185 0.959 . S
H192 C185 0.961 . S
H193 C185 0.960 . S
H194 C186 0.930 . S
H195 C187 0.929 . S
H196 C204 0.929 . S
H197 C206 0.930 . S
H198 C208 0.930 . S
H199 C211 0.929 . S
H200 C214 0.930 . S
H201 C216 0.960 . S
H202 C216 0.960 . S
H203 C216 0.960 . S
C204 H196 0.929 . S
C204 C205 1.377 . S
C204 C206 1.384 . S
C205 C204 1.377 . S
C205 C211 1.390 . S
C206 H197 0.930 . S
C206 C204 1.384 . S
C206 C207 1.372 . S
C207 C206 1.372 . S
C207 C208 1.400 . S
C207 C212 1.490 . S
C208 H198 0.930 . S
C208 C207 1.400 . S
C208 C211 1.386 . S
H209 C225 0.930 . S
H210 C226 0.931 . S
C211 H199 0.929 . S
C211 C205 1.390 . S
C211 C208 1.386 . S
C212 C207 1.490 . S
C212 C214 1.395 . S
C212 C215 1.403 . S
H213 C219 0.930 . S
C214 H200 0.930 . S
C214 C212 1.395 . S
C214 C217 1.403 . S
C215 C212 1.403 . S
C215 C216 1.524 . S
C215 C219 1.400 . S
C216 H201 0.960 . S
C216 H202 0.960 . S
C216 H203 0.960 . S
C216 C215 1.524 . S
C217 C214 1.403 . S
C217 C218 1.392 . S
C217 C221 1.495 . S
C218 C217 1.392 . S
C218 C219 1.385 . S
C218 C220 1.478 . S
C219 H213 0.930 . S
C219 C215 1.400 . S
C219 C218 1.385 . S
C220 C218 1.478 . S
C220 C222 1.381 . S
C220 C226 1.383 . S
C221 C217 1.495 . S
C221 H227 0.959 . S
C221 H228 0.961 . S
C221 H229 0.960 . S
C222 C220 1.381 . S
C222 C223 1.394 . S
C222 H230 0.930 . S
C223 C222 1.394 . S
C223 C224 1.383 . S
C223 H231 0.929 . S
C224 C223 1.383 . S
C224 C225 1.377 . S
C225 H209 0.930 . S
C225 C224 1.377 . S
C225 C226 1.379 . S
C226 H210 0.931 . S
C226 C220 1.383 . S
C226 C225 1.379 . S
H227 C221 0.959 . S
H228 C221 0.961 . S
H229 C221 0.960 . S
H230 C222 0.930 . S
H231 C223 0.929 . S
H232 C240 0.929 . S
H233 C242 0.930 . S
H234 C244 0.930 . S
H235 C247 0.929 . S
H236 C250 0.930 . S
H237 C252 0.960 . S
H238 C252 0.960 . S
H239 C252 0.960 . S
C240 H232 0.929 . S
C240 C241 1.377 . S
C240 C242 1.384 . S
C241 C240 1.377 . S
C241 C247 1.390 1_556 S
C242 H233 0.930 . S
C242 C240 1.384 . S
C242 C243 1.372 . S
C243 C242 1.372 . S
C243 C244 1.400 1_556 S
C243 C248 1.497 . S
C244 H234 0.930 . S
C244 C243 1.400 1_554 S
C244 C247 1.386 . S
H245 C261 0.930 . S
H246 C262 0.931 . S
C247 H235 0.929 . S
C247 C241 1.390 1_554 S
C247 C244 1.386 . S
C248 C243 1.497 . S
C248 C250 1.387 1_556 S
C248 C251 1.404 1_455 S
H249 C255 0.930 . S
C250 H236 0.930 . S
C250 C248 1.387 1_554 S
C250 C253 1.403 1_545 S
C251 C248 1.404 1_655 S
C251 C252 1.524 . S
C251 C255 1.400 1_545 S
C252 H237 0.960 . S
C252 H238 0.960 . S
C252 H239 0.960 . S
C252 C251 1.524 . S
C253 C250 1.403 1_565 S
C253 C254 1.392 1_455 S
C253 C257 1.495 . S
C254 C253 1.392 1_655 S
C254 C255 1.385 1_554 S
C254 C256 1.478 . S
C255 H249 0.930 . S
C255 C251 1.400 1_565 S
C255 C254 1.385 1_556 S
C256 C254 1.478 . S
C256 C258 1.381 1_554 S
C256 C262 1.383 . S
C257 C253 1.495 . S
C257 H263 0.959 . S
C257 H264 0.961 . S
C257 H265 0.960 . S
C258 C256 1.381 1_556 S
C258 C259 1.394 . S
C258 H266 0.930 . S
C259 C258 1.394 . S
C259 C260 1.383 1_556 S
C259 H267 0.929 . S
C260 C259 1.383 1_554 S
C260 C261 1.377 . S
C261 H245 0.930 . S
C261 C260 1.377 . S
C261 C262 1.379 . S
C262 H246 0.931 . S
C262 C256 1.383 . S
C262 C261 1.379 . S
H263 C257 0.959 . S
H264 C257 0.961 . S
H265 C257 0.960 . S
H266 C258 0.930 . S
H267 C259 0.929 . S
H268 C276 0.929 . S
H269 C278 0.930 . S
H270 C280 0.930 . S
H271 C283 0.929 . S
H272 C286 0.930 . S
H273 C288 0.960 1_565 S
H274 C288 0.960 . S
H275 C288 0.960 . S
C276 H268 0.929 . S
C276 C277 1.377 . S
C276 C278 1.384 . S
C277 C276 1.377 . S
C277 C283 1.390 . S
C278 H269 0.930 . S
C278 C276 1.384 . S
C278 C279 1.372 . S
C279 C278 1.372 . S
C279 C280 1.400 . S
C279 C284 1.490 . S
C280 H270 0.930 . S
C280 C279 1.400 . S
C280 C283 1.386 . S
H281 C297 0.930 . S
H282 C298 0.931 . S
C283 H271 0.929 . S
C283 C277 1.390 . S
C283 C280 1.386 . S
C284 C279 1.490 . S
C284 C286 1.395 1_655 S
C284 C287 1.403 . S
H285 C291 0.930 . S
C286 H272 0.930 . S
C286 C284 1.395 1_455 S
C286 C289 1.403 1_545 S
C287 C284 1.403 . S
C287 C288 1.524 . S
C287 C291 1.400 1_545 S
C288 H273 0.960 1_545 S
C288 H274 0.960 . S
C288 H275 0.960 . S
C288 C287 1.524 . S
C289 C286 1.403 1_565 S
C289 C290 1.392 . S
C289 C293 1.495 . S
C290 C289 1.392 . S
C290 C291 1.385 1_455 S
C290 C292 1.478 . S
C291 H285 0.930 . S
C291 C287 1.400 1_565 S
C291 C290 1.385 1_655 S
C292 C290 1.478 . S
C292 C294 1.381 . S
C292 C298 1.383 . S
C293 C289 1.495 . S
C293 H299 0.959 1_565 S
C293 H300 0.961 . S
C293 H301 0.960 . S
C294 C292 1.381 . S
C294 C295 1.394 . S
C294 H302 0.930 . S
C295 C294 1.394 . S
C295 C296 1.383 . S
C295 H303 0.929 . S
C296 C295 1.383 . S
C296 C297 1.377 . S
C297 H281 0.930 . S
C297 C296 1.377 . S
C297 C298 1.379 . S
C298 H282 0.931 . S
C298 C292 1.383 . S
C298 C297 1.379 . S
H299 C293 0.959 1_545 S
H300 C293 0.961 . S
H301 C293 0.960 . S
H302 C294 0.930 . S
H303 C295 0.929 . S
H304 C312 0.929 . S
H305 C314 0.930 . S
H306 C316 0.930 . S
H307 C319 0.929 . S
H308 C322 0.930 . S
H309 C324 0.960 . S
H310 C324 0.960 . S
H311 C324 0.960 . S
C312 H304 0.929 . S
C312 C313 1.377 . S
C312 C314 1.384 . S
C313 C312 1.377 . S
C313 C319 1.390 . S
C314 H305 0.930 . S
C314 C312 1.384 . S
C314 C315 1.372 . S
C315 C314 1.372 . S
C315 C316 1.400 . S
C315 C320 1.490 . S
C316 H306 0.930 . S
C316 C315 1.400 . S
C316 C319 1.386 . S
H317 C333 0.930 . S
H318 C334 0.931 . S
C319 H307 0.929 . S
C319 C313 1.390 . S
C319 C316 1.386 . S
C320 C315 1.490 . S
C320 C322 1.395 . S
C320 C323 1.403 . S
H321 C327 0.930 . S
C322 H308 0.930 . S
C322 C320 1.395 . S
C322 C325 1.403 . S
C323 C320 1.403 . S
C323 C324 1.524 . S
C323 C327 1.400 . S
C324 H309 0.960 . S
C324 H310 0.960 . S
C324 H311 0.960 . S
C324 C323 1.524 . S
C325 C322 1.403 . S
C325 C326 1.392 . S
C325 C329 1.495 . S
C326 C325 1.392 . S
C326 C327 1.385 . S
C326 C328 1.478 . S
C327 H321 0.930 . S
C327 C323 1.400 . S
C327 C326 1.385 . S
C328 C326 1.478 . S
C328 C330 1.381 . S
C328 C334 1.383 . S
C329 C325 1.495 . S
C329 H335 0.959 . S
C329 H336 0.961 . S
C329 H337 0.960 . S
C330 C328 1.381 . S
C330 C331 1.394 . S
C330 H338 0.930 . S
C331 C330 1.394 . S
C331 C332 1.383 . S
C331 H339 0.929 . S
C332 C331 1.383 . S
C332 C333 1.377 . S
C333 H317 0.930 . S
C333 C332 1.377 . S
C333 C334 1.379 . S
C334 H318 0.931 . S
C334 C328 1.383 . S
C334 C333 1.379 . S
H335 C329 0.959 . S
H336 C329 0.961 . S
H337 C329 0.960 . S
H338 C330 0.930 . S
H339 C331 0.929 . S
H340 C348 0.929 . S
H341 C350 0.930 . S
H342 C352 0.930 . S
H343 C355 0.929 . S
H344 C358 0.930 . S
H345 C360 0.960 . S
H346 C360 0.960 . S
H347 C360 0.960 . S
C348 H340 0.929 . S
C348 C349 1.377 . S
C348 C350 1.384 . S
C349 C348 1.377 . S
C349 C355 1.390 . S
C350 H341 0.930 . S
C350 C348 1.384 . S
C350 C351 1.372 . S
C351 C350 1.372 . S
C351 C352 1.400 . S
C351 C356 1.490 . S
C352 H342 0.930 . S
C352 C351 1.400 . S
C352 C355 1.386 . S
H353 C369 0.930 . S
H354 C370 0.931 . S
C355 H343 0.929 . S
C355 C349 1.390 . S
C355 C352 1.386 . S
C356 C351 1.490 . S
C356 C358 1.395 . S
C356 C359 1.403 . S
H357 C363 0.930 . S
C358 H344 0.930 . S
C358 C356 1.395 . S
C358 C361 1.403 . S
C359 C356 1.403 . S
C359 C360 1.524 . S
C359 C363 1.400 . S
C360 H345 0.960 . S
C360 H346 0.960 . S
C360 H347 0.960 . S
C360 C359 1.524 . S
C361 C358 1.403 . S
C361 C362 1.392 . S
C361 C365 1.495 . S
C362 C361 1.392 . S
C362 C363 1.385 . S
C362 C364 1.478 . S
C363 H357 0.930 . S
C363 C359 1.400 . S
C363 C362 1.385 . S
C364 C362 1.478 . S
C364 C366 1.381 . S
C364 C370 1.383 . S
C365 C361 1.495 . S
C365 H371 0.959 . S
C365 H372 0.961 . S
C365 H373 0.960 . S
C366 C364 1.381 . S
C366 C367 1.394 . S
C366 H374 0.930 . S
C367 C366 1.394 . S
C367 C368 1.383 . S
C367 H375 0.929 . S
C368 C367 1.383 . S
C368 C369 1.377 . S
C369 H353 0.930 . S
C369 C368 1.377 . S
C369 C370 1.379 . S
C370 H354 0.931 . S
C370 C364 1.383 . S
C370 C369 1.379 . S
H371 C365 0.959 . S
H372 C365 0.961 . S
H373 C365 0.960 . S
H374 C366 0.930 . S
H375 C367 0.929 . S
H376 C384 0.929 . S
H377 C386 0.930 . S
H378 C388 0.930 . S
H379 C391 0.929 . S
H380 C394 0.930 . S
H381 C396 0.960 . S
H382 C396 0.960 . S
H383 C396 0.960 . S
C384 H376 0.929 . S
C384 C385 1.377 . S
C384 C386 1.384 . S
C385 C384 1.377 . S
C385 C391 1.390 . S
C386 H377 0.930 . S
C386 C384 1.384 . S
C386 C387 1.372 . S
C387 C386 1.372 . S
C387 C388 1.400 . S
C387 C392 1.490 . S
C388 H378 0.930 . S
C388 C387 1.400 . S
C388 C391 1.386 . S
H389 C405 0.930 . S
H390 C406 0.931 . S
C391 H379 0.929 . S
C391 C385 1.390 . S
C391 C388 1.386 . S
C392 C387 1.490 . S
C392 C394 1.395 . S
C392 C395 1.403 . S
H393 C399 0.930 . S
C394 H380 0.930 . S
C394 C392 1.395 . S
C394 C397 1.403 . S
C395 C392 1.403 . S
C395 C396 1.524 . S
C395 C399 1.400 . S
C396 H381 0.960 . S
C396 H382 0.960 . S
C396 H383 0.960 . S
C396 C395 1.524 . S
C397 C394 1.403 . S
C397 C398 1.392 . S
C397 C401 1.495 . S
C398 C397 1.392 . S
C398 C399 1.385 . S
C398 C400 1.478 . S
C399 H393 0.930 . S
C399 C395 1.400 . S
C399 C398 1.385 . S
C400 C398 1.478 . S
C400 C402 1.381 . S
C400 C406 1.383 . S
C401 C397 1.495 . S
C401 H407 0.959 . S
C401 H408 0.961 . S
C401 H409 0.960 . S
C402 C400 1.381 . S
C402 C403 1.394 . S
C402 H410 0.930 . S
C403 C402 1.394 . S
C403 C404 1.383 . S
C403 H411 0.929 . S
C404 C403 1.383 . S
C404 C405 1.377 . S
C405 H389 0.930 . S
C405 C404 1.377 . S
C405 C406 1.379 . S
C406 H390 0.931 . S
C406 C400 1.383 . S
C406 C405 1.379 . S
H407 C401 0.959 . S
H408 C401 0.961 . S
H409 C401 0.960 . S
H410 C402 0.930 . S
H411 C403 0.929 . S
H412 C420 0.929 . S
H413 C422 0.930 . S
H414 C424 0.930 . S
H415 C427 0.929 . S
H416 C430 0.930 . S
H417 C432 0.960 . S
H418 C432 0.960 . S
H419 C432 0.960 . S
C420 H412 0.929 . S
C420 C421 1.377 . S
C420 C422 1.384 . S
C421 C420 1.377 . S
C421 C427 1.390 . S
C422 H413 0.930 . S
C422 C420 1.384 . S
C422 C423 1.372 . S
C423 C422 1.372 . S
C423 C424 1.400 . S
C423 C428 1.490 . S
C424 H414 0.930 . S
C424 C423 1.400 . S
C424 C427 1.386 . S
H425 C441 0.930 . S
H426 C442 0.931 . S
C427 H415 0.929 . S
C427 C421 1.390 . S
C427 C424 1.386 . S
C428 C423 1.490 . S
C428 C430 1.395 . S
C428 C431 1.403 . S
H429 C435 0.930 . S
C430 H416 0.930 . S
C430 C428 1.395 . S
C430 C433 1.403 . S
C431 C428 1.403 . S
C431 C432 1.524 . S
C431 C435 1.400 . S
C432 H417 0.960 . S
C432 H418 0.960 . S
C432 H419 0.960 . S
C432 C431 1.524 . S
C433 C430 1.403 . S
C433 C434 1.392 . S
C433 C437 1.495 . S
C434 C433 1.392 . S
C434 C435 1.385 . S
C434 C436 1.478 . S
C435 H429 0.930 . S
C435 C431 1.400 . S
C435 C434 1.385 . S
C436 C434 1.478 . S
C436 C438 1.381 . S
C436 C442 1.383 . S
C437 C433 1.495 . S
C437 H443 0.959 . S
C437 H444 0.961 . S
C437 H445 0.960 . S
C438 C436 1.381 . S
C438 C439 1.394 . S
C438 H446 0.930 . S
C439 C438 1.394 . S
C439 C440 1.383 . S
C439 H447 0.929 . S
C440 C439 1.383 . S
C440 C441 1.377 . S
C441 H425 0.930 . S
C441 C440 1.377 . S
C441 C442 1.379 . S
C442 H426 0.931 . S
C442 C436 1.383 . S
C442 C441 1.379 . S
H443 C437 0.959 . S
H444 C437 0.961 . S
H445 C437 0.960 . S
H446 C438 0.930 . S
H447 C439 0.929 . S
H448 C456 0.929 . S
H449 C458 0.930 . S
H450 C460 0.930 . S
H451 C463 0.929 . S
H452 C466 0.930 . S
H453 C468 0.960 . S
H454 C468 0.960 . S
H455 C468 0.960 . S
C456 H448 0.929 . S
C456 C457 1.377 . S
C456 C458 1.384 . S
C457 C456 1.377 . S
C457 C463 1.390 . S
C458 H449 0.930 . S
C458 C456 1.384 . S
C458 C459 1.372 . S
C459 C458 1.372 . S
C459 C460 1.400 . S
C459 C464 1.490 . S
C460 H450 0.930 . S
C460 C459 1.400 . S
C460 C463 1.386 . S
H461 C477 0.930 . S
H462 C478 0.931 . S
C463 H451 0.929 . S
C463 C457 1.390 . S
C463 C460 1.386 . S
C464 C459 1.490 . S
C464 C466 1.395 1_655 S
C464 C467 1.403 . S
H465 C471 0.930 . S
C466 H452 0.930 . S
C466 C464 1.395 1_455 S
C466 C469 1.403 . S
C467 C464 1.403 . S
C467 C468 1.524 . S
C467 C471 1.400 . S
C468 H453 0.960 . S
C468 H454 0.960 . S
C468 H455 0.960 . S
C468 C467 1.524 . S
C469 C466 1.403 . S
C469 C470 1.392 . S
C469 C473 1.495 . S
C470 C469 1.392 . S
C470 C471 1.385 1_455 S
C470 C472 1.478 . S
C471 H465 0.930 . S
C471 C467 1.400 . S
C471 C470 1.385 1_655 S
C472 C470 1.478 . S
C472 C474 1.381 . S
C472 C478 1.383 . S
C473 C469 1.495 . S
C473 H479 0.959 . S
C473 H480 0.961 . S
C473 H481 0.960 . S
C474 C472 1.381 . S
C474 C475 1.394 . S
C474 H482 0.930 . S
C475 C474 1.394 . S
C475 C476 1.383 . S
C475 H483 0.929 . S
C476 C475 1.383 . S
C476 C477 1.377 . S
C477 H461 0.930 . S
C477 C476 1.377 . S
C477 C478 1.379 . S
C478 H462 0.931 . S
C478 C472 1.383 . S
C478 C477 1.379 . S
H479 C473 0.959 . S
H480 C473 0.961 . S
H481 C473 0.960 . S
H482 C474 0.930 . S
H483 C475 0.929 . S
H484 C492 0.929 . S
H485 C494 0.930 . S
H486 C496 0.930 . S
H487 C499 0.929 . S
H488 C502 0.930 . S
H489 C504 0.960 . S
H490 C504 0.960 . S
H491 C504 0.960 . S
C492 H484 0.929 . S
C492 C493 1.377 . S
C492 C494 1.384 . S
C493 C492 1.377 . S
C493 C499 1.390 . S
C494 H485 0.930 . S
C494 C492 1.384 . S
C494 C495 1.372 . S
C495 C494 1.372 . S
C495 C496 1.400 . S
C495 C500 1.490 . S
C496 H486 0.930 . S
C496 C495 1.400 . S
C496 C499 1.386 . S
H497 C513 0.930 . S
H498 C514 0.931 1_655 S
C499 H487 0.929 . S
C499 C493 1.390 . S
C499 C496 1.386 . S
C500 C495 1.490 . S
C500 C502 1.395 . S
C500 C503 1.403 1_655 S
H501 C507 0.930 . S
C502 H488 0.930 . S
C502 C500 1.395 . S
C502 C505 1.403 . S
C503 C500 1.403 1_455 S
C503 C504 1.524 . S
C503 C507 1.400 . S
C504 H489 0.960 . S
C504 H490 0.960 . S
C504 H491 0.960 . S
C504 C503 1.524 . S
C505 C502 1.403 . S
C505 C506 1.392 1_655 S
C505 C509 1.495 . S
C506 C505 1.392 1_455 S
C506 C507 1.385 . S
C506 C508 1.478 . S
C507 H501 0.930 . S
C507 C503 1.400 . S
C507 C506 1.385 . S
C508 C506 1.478 . S
C508 C510 1.381 . S
C508 C514 1.383 . S
C509 C505 1.495 . S
C509 H515 0.959 . S
C509 H516 0.961 . S
C509 H517 0.960 . S
C510 C508 1.381 . S
C510 C511 1.394 . S
C510 H518 0.930 . S
C511 C510 1.394 . S
C511 C512 1.383 . S
C511 H519 0.929 . S
C512 C511 1.383 . S
C512 C513 1.377 . S
C513 H497 0.930 . S
C513 C512 1.377 . S
C513 C514 1.379 . S
C514 H498 0.931 1_455 S
C514 C508 1.383 . S
C514 C513 1.379 . S
H515 C509 0.959 . S
H516 C509 0.961 . S
H517 C509 0.960 . S
H518 C510 0.930 . S
H519 C511 0.929 . S
H520 C528 0.929 . S
H521 C530 0.930 . S
H522 C532 0.930 . S
H523 C535 0.929 . S
H524 C538 0.930 . S
H525 C540 0.960 . S
H526 C540 0.960 . S
H527 C540 0.960 . S
C528 H520 0.929 . S
C528 C529 1.377 . S
C528 C530 1.384 . S
C529 C528 1.377 . S
C529 C535 1.390 . S
C530 H521 0.930 . S
C530 C528 1.384 . S
C530 C531 1.372 . S
C531 C530 1.372 . S
C531 C532 1.400 . S
C531 C536 1.490 . S
C532 H522 0.930 . S
C532 C531 1.400 . S
C532 C535 1.386 . S
H533 C549 0.930 . S
H534 C550 0.931 . S
C535 H523 0.929 . S
C535 C529 1.390 . S
C535 C532 1.386 . S
C536 C531 1.490 . S
C536 C538 1.395 1_655 S
C536 C539 1.403 . S
H537 C543 0.930 . S
C538 H524 0.930 . S
C538 C536 1.395 1_455 S
C538 C541 1.403 . S
C539 C536 1.403 . S
C539 C540 1.524 . S
C539 C543 1.400 . S
C540 H525 0.960 . S
C540 H526 0.960 . S
C540 H527 0.960 . S
C540 C539 1.524 . S
C541 C538 1.403 . S
C541 C542 1.392 . S
C541 C545 1.495 . S
C542 C541 1.392 . S
C542 C543 1.385 1_455 S
C542 C544 1.478 . S
C543 H537 0.930 . S
C543 C539 1.400 . S
C543 C542 1.385 1_655 S
C544 C542 1.478 . S
C544 C546 1.381 . S
C544 C550 1.383 . S
C545 C541 1.495 . S
C545 H551 0.959 . S
C545 H552 0.961 . S
C545 H553 0.960 . S
C546 C544 1.381 . S
C546 C547 1.394 . S
C546 H554 0.930 . S
C547 C546 1.394 . S
C547 C548 1.383 . S
C547 H555 0.929 . S
C548 C547 1.383 . S
C548 C549 1.377 . S
C549 H533 0.930 . S
C549 C548 1.377 . S
C549 C550 1.379 . S
C550 H534 0.931 . S
C550 C544 1.383 . S
C550 C549 1.379 . S
H551 C545 0.959 . S
H552 C545 0.961 . S
H553 C545 0.960 . S
H554 C546 0.930 . S
H555 C547 0.929 . S
H556 C564 0.929 . S
H557 C566 0.930 . S
H558 C568 0.930 . S
H559 C571 0.929 . S
H560 C574 0.930 . S
H561 C576 0.960 . S
H562 C576 0.960 1_655 S
H563 C576 0.960 . S
C564 H556 0.929 . S
C564 C565 1.377 1_655 S
C564 C566 1.384 . S
C565 C564 1.377 1_455 S
C565 C571 1.390 . S
C566 H557 0.930 . S
C566 C564 1.384 . S
C566 C567 1.372 1_655 S
C567 C566 1.372 1_455 S
C567 C568 1.400 . S
C567 C572 1.490 . S
C568 H558 0.930 . S
C568 C567 1.400 . S
C568 C571 1.386 . S
H569 C585 0.930 . S
H570 C586 0.931 . S
C571 H559 0.929 . S
C571 C565 1.390 . S
C571 C568 1.386 . S
C572 C567 1.490 . S
C572 C574 1.395 1_455 S
C572 C575 1.403 . S
H573 C579 0.930 . S
C574 H560 0.930 . S
C574 C572 1.395 1_655 S
C574 C577 1.403 . S
C575 C572 1.403 . S
C575 C576 1.524 . S
C575 C579 1.400 1_455 S
C576 H561 0.960 . S
C576 H562 0.960 1_455 S
C576 H563 0.960 . S
C576 C575 1.524 . S
C577 C574 1.403 . S
C577 C578 1.392 . S
C577 C581 1.495 . S
C578 C577 1.392 . S
C578 C579 1.385 . S
C578 C580 1.478 . S
C579 H573 0.930 . S
C579 C575 1.400 1_655 S
C579 C578 1.385 . S
C580 C578 1.478 . S
C580 C582 1.381 . S
C580 C586 1.383 1_655 S
C581 C577 1.495 . S
C581 H587 0.959 . S
C581 H588 0.961 1_655 S
C581 H589 0.960 . S
C582 C580 1.381 . S
C582 C583 1.394 . S
C582 H590 0.930 . S
C583 C582 1.394 . S
C583 C584 1.383 . S
C583 H591 0.929 . S
C584 C583 1.383 . S
C584 C585 1.377 1_655 S
C585 H569 0.930 . S
C585 C584 1.377 1_455 S
C585 C586 1.379 . S
C586 H570 0.931 . S
C586 C580 1.383 1_455 S
C586 C585 1.379 . S
H587 C581 0.959 . S
H588 C581 0.961 1_455 S
H589 C581 0.960 . S
H590 C582 0.930 . S
H591 C583 0.929 . S
C169 C59 1.532 . S
C188 C10 1.520 . S
C205 C99 1.535 . S
C224 C130 1.521 . S
C241 C19 1.534 . S
C260 C50 1.540 . S
C277 C139 1.536 . S
C296 C90 1.525 . S
C313 C122 1.542 . S
C332 C2 1.528 . S
C349 C47 0.900 . S
C368 C87 0.915 . S
C385 C51 1.537 . S
C404 C91 1.535 . S
C421 C136 0.905 . S
C440 C16 0.904 . S
C457 C42 1.542 . S
C476 C82 1.533 . S
C493 C127 0.906 . S
C512 C7 0.904 . S
C529 C131 1.538 . S
C548 C11 1.532 . S
C565 C96 0.906 . S
C584 C56 0.920 . S
