# Generated by pormake.
# Topology vmv, (8)-cn, num edge types: 1
# Building blocks:
#     Node 0, Type 0, BuildingBlock: TAGTUT_clean_sbu_1, # of connection points: 8
#     Node 1, Type 0, BuildingBlock: TAGTUT_clean_sbu_1, # of connection points: 8
#     Node 2, Type 0, BuildingBlock: TAGTUT_clean_sbu_1, # of connection points: 8
#     Node 3, Type 0, BuildingBlock: TAGTUT_clean_sbu_1, # of connection points: 8
#     Edge 4, Type (0, 0), BuildingBlock: AJUNOK_clean_linker_0, # of connection points: 2
#     Edge 5, Type (0, 0), BuildingBlock: AJUNOK_clean_linker_0, # of connection points: 2
#     Edge 6, Type (0, 0), BuildingBlock: AJUNOK_clean_linker_0, # of connection points: 2
#     Edge 7, Type (0, 0), BuildingBlock: AJUNOK_clean_linker_0, # of connection points: 2
#     Edge 8, Type (0, 0), BuildingBlock: AJUNOK_clean_linker_0, # of connection points: 2
#     Edge 9, Type (0, 0), BuildingBlock: AJUNOK_clean_linker_0, # of connection points: 2
#     Edge 10, Type (0, 0), BuildingBlock: AJUNOK_clean_linker_0, # of connection points: 2
#     Edge 11, Type (0, 0), BuildingBlock: AJUNOK_clean_linker_0, # of connection points: 2
#     Edge 12, Type (0, 0), BuildingBlock: AJUNOK_clean_linker_0, # of connection points: 2
#     Edge 13, Type (0, 0), BuildingBlock: AJUNOK_clean_linker_0, # of connection points: 2
#     Edge 14, Type (0, 0), BuildingBlock: AJUNOK_clean_linker_0, # of connection points: 2
#     Edge 15, Type (0, 0), BuildingBlock: AJUNOK_clean_linker_0, # of connection points: 2
#     Edge 16, Type (0, 0), BuildingBlock: AJUNOK_clean_linker_0, # of connection points: 2
#     Edge 17, Type (0, 0), BuildingBlock: AJUNOK_clean_linker_0, # of connection points: 2
#     Edge 18, Type (0, 0), BuildingBlock: AJUNOK_clean_linker_0, # of connection points: 2
#     Edge 19, Type (0, 0), BuildingBlock: AJUNOK_clean_linker_0, # of connection points: 2
# Relax obj value: 0.307
# Max RMSD: 0.293
# Mean RMSD: 0.283
data_MOF--net-vmv--node1-TAGTUT_clean_sbu_1--edge1-AJUNOK_clean_linker_0
_symmetry_space_group_name_H-M    P1
_symmetry_Int_Tables_number       1
_symmetry_cell_setting            triclinic
loop_
_symmetry_equiv_pos_as_xyz
'x, y, z'
_cell_length_a     12.174041
_cell_length_b     23.688578
_cell_length_c     24.220822
_cell_angle_alpha  88.081625
_cell_angle_beta   106.72027
_cell_angle_gamma 89.810567
loop_
_atom_site_label
_atom_site_type_symbol
_atom_site_fract_x
_atom_site_fract_y
_atom_site_fract_z
_atom_type_partial_charge
C0 C 0.34848 0.14535 0.79426 0.0
C1 C 0.60585 0.27458 0.83965 0.0
C2 C 0.34483 0.44395 0.74648 0.0
Mg3 Mg 0.47525 0.21851 0.72342 0.0
O4 O 0.33917 0.26143 0.72213 0.0
Mg5 Mg 0.32007 0.29293 0.79294 0.0
Mg6 Mg 0.32984 0.32899 0.67355 0.0
O7 O 0.3373 0.39338 0.61818 0.0
Mg8 Mg 0.24672 0.4559 0.60721 0.0
Mg9 Mg 0.32033 0.34504 0.54917 0.0
C10 C 0.36506 0.23329 0.58752 0.0
C11 C 0.57553 0.33084 0.64355 0.0
O12 O 0.30712 0.18998 0.81212 0.0
O13 O 0.41395 0.14905 0.76146 0.0
O14 O 0.5058 0.28928 0.83952 0.0
O15 O 0.62191 0.24875 0.79656 0.0
O16 O 0.44818 0.20788 0.62602 0.0
O17 O 0.30621 0.27138 0.60158 0.0
C18 C 0.07656 0.31684 0.69798 0.0
O19 O 0.13066 0.32992 0.66113 0.0
O20 O 0.13047 0.29955 0.74894 0.0
O21 O 0.34357 0.41771 0.49807 0.0
O22 O 0.30811 0.4964 0.53833 0.0
O23 O 0.12454 0.36208 0.51347 0.0
C24 C 0.34033 0.47088 0.4995 0.0
O25 O 0.09321 0.41015 0.58407 0.0
O26 O 0.31466 0.47124 0.69758 0.0
C27 C 0.05629 0.38957 0.53455 0.0
O28 O 0.33848 0.38882 0.75034 0.0
O29 O 0.52607 0.32709 0.68388 0.0
O30 O 0.51661 0.33624 0.59042 0.0
C31 C 0.93731 0.74199 0.67974 0.0
C32 C 0.23687 0.65451 0.80745 0.0
C33 C 0.08721 0.73753 0.97356 0.0
Mg34 Mg 0.17274 0.77995 0.76214 0.0
O35 O 0.06427 0.78392 0.80429 0.0
Mg36 Mg 0.99739 0.71307 0.82487 0.0
Mg37 Mg 0.12101 0.81935 0.87847 0.0
O38 O 0.1787 0.8603 0.95283 0.0
Mg39 Mg 0.07574 0.85149 1.00615 0.0
Mg40 Mg 0.22925 0.94114 0.91734 0.0
C41 C 0.18332 0.91293 0.79513 0.0
C42 C 0.39359 0.84428 0.88771 0.0
O43 O 0.90663 0.71725 0.72154 0.0
O44 O 0.03648 0.7639 0.68773 0.0
O45 O 0.14104 0.65763 0.81777 0.0
O46 O 0.27787 0.69884 0.78884 0.0
O47 O 0.2166 0.87334 0.76758 0.0
O48 O 0.13224 0.90149 0.8334 0.0
C49 C 0.84056 0.80772 0.85496 0.0
O50 O 0.92911 0.83775 0.87573 0.0
O51 O 0.84919 0.76059 0.83371 0.0
O52 O 0.24587 0.87887 0.99343 0.0
O53 O 0.23128 0.87491 0.07995 0.0
O54 O 0.07149 0.98663 0.93304 0.0
C55 C 0.29224 0.8892 0.04702 0.0
O56 O 0.97319 0.91856 0.95628 0.0
O57 O 1.00482 0.77037 0.97309 0.0
C58 C 0.02192 0.96524 0.96842 0.0
O59 O 0.10898 0.73079 0.92502 0.0
O60 O 0.31384 0.80711 0.87926 0.0
O61 O 0.37756 0.89497 0.90001 0.0
C62 C 0.68559 0.53804 0.39459 0.0
C63 C 0.94684 0.60717 0.47623 0.0
C64 C 0.6667 0.7783 0.44284 0.0
Mg65 Mg 0.84428 0.58965 0.35501 0.0
O66 O 0.71333 0.63526 0.36931 0.0
Mg67 Mg 0.69114 0.65549 0.45589 0.0
Mg68 Mg 0.70357 0.71433 0.33569 0.0
O69 O 0.6962 0.79355 0.31084 0.0
Mg70 Mg 0.5548 0.82545 0.31342 0.0
Mg71 Mg 0.72452 0.78806 0.23543 0.0
C72 C 0.75979 0.64396 0.23962 0.0
C73 C 0.96276 0.74475 0.32546 0.0
O74 O 0.69404 0.59197 0.39074 0.0
O75 O 0.74491 0.51066 0.36851 0.0
O76 O 0.88577 0.6337 0.50218 0.0
O77 O 0.95321 0.62889 0.42912 0.0
O78 O 0.85265 0.64004 0.27969 0.0
O79 O 0.69047 0.68517 0.24036 0.0
C80 C 0.45011 0.69687 0.36162 0.0
O81 O 0.50448 0.71294 0.32548 0.0
O82 O 0.50202 0.67396 0.41076 0.0
O83 O 0.73704 0.88858 0.25006 0.0
O84 O 0.60298 0.90815 0.29476 0.0
O85 O 0.54145 0.79635 0.1818 0.0
C86 C 0.68445 0.92363 0.27443 0.0
O87 O 0.42474 0.78937 0.23664 0.0
O88 O 0.59171 0.81291 0.41031 0.0
C89 C 0.44321 0.78583 0.18728 0.0
O90 O 0.71816 0.74149 0.4221 0.0
O91 O 0.9034 0.71763 0.35314 0.0
O92 O 0.91385 0.77611 0.28158 0.0
C93 C 0.66649 0.04678 0.07822 0.0
C94 C 0.0305 0.06168 0.14292 0.0
C95 C 0.8446 0.15399 0.2989 0.0
Mg96 Mg 0.84135 0.13988 0.0615 0.0
O97 O 0.80796 0.1607 0.12918 0.0
Mg98 Mg 0.82103 0.09914 0.19175 0.0
Mg99 Mg 0.88193 0.21993 0.18871 0.0
O100 O 0.94141 0.27076 0.24991 0.0
Mg101 Mg 0.84918 0.28791 0.30011 0.0
Mg102 Mg 1.0116 0.32875 0.21452 0.0
C103 C 0.89902 0.26669 0.07692 0.0
C104 C 0.15891 0.22491 0.19733 0.0
O105 O 0.73662 0.03777 0.12754 0.0
O106 O 0.68062 0.08723 0.04395 0.0
O107 O 0.99466 0.06524 0.18728 0.0
O108 O 0.97517 0.08248 0.09354 0.0
O109 O 0.9381 0.217 0.08941 0.0
O110 O 0.88441 0.29567 0.11887 0.0
C111 C 0.62077 0.19078 0.18872 0.0
O112 O 0.69036 0.23197 0.1887 0.0
O113 O 0.65148 0.13888 0.1905 0.0
O114 O 0.12347 0.32264 0.31797 0.0
O115 O 0.99709 0.3043 0.36806 0.0
O116 O 0.87596 0.39064 0.22218 0.0
C117 C 0.10042 0.30741 0.36562 0.0
O118 O 0.74927 0.36991 0.26852 0.0
O119 O 0.80153 0.19783 0.31599 0.0
C120 C 0.78937 0.40511 0.23794 0.0
O121 O 0.89598 0.15852 0.26 0.0
O122 O 0.07184 0.19317 0.19044 0.0
O123 O 0.15179 0.27662 0.20561 0.0
C124 C 0.90603 0.51567 0.521 0.0
C125 C 0.94898 0.54448 0.48023 0.0
C126 C 0.90123 0.45677 0.5233 0.0
C127 C 0.96562 0.42501 0.49516 0.0
H128 H 0.88224 0.53842 0.5538 0.0
H129 H 0.87414 0.43715 0.55825 0.0
S130 S 0.07826 0.47688 0.37643 0.0
N131 N 0.03856 0.53436 0.40261 0.0
N132 N 0.04416 0.42375 0.41379 0.0
C133 C 0.99562 0.45177 0.4491 0.0
C134 C 0.99238 0.51178 0.44315 0.0
C135 C 0.54526 0.96968 0.02606 0.0
C136 C 0.56305 1.01136 0.06704 0.0
C137 C 0.46494 0.92711 0.02515 0.0
C138 C 0.39439 0.92606 0.06196 0.0
H139 H 0.59826 0.96791 0.99706 0.0
H140 H 0.46042 0.89261 0.99731 0.0
S141 S 0.43539 1.01345 0.1891 0.0
N142 N 0.52236 0.04092 0.15457 0.0
N143 N 0.37158 0.96018 0.1509 0.0
C144 C 0.4197 0.96345 0.10691 0.0
C145 C 0.50251 1.00676 0.10898 0.0
C146 C 0.51729 0.47958 0.39711 0.0
C147 C 0.6065 0.51464 0.4255 0.0
C148 C 0.42026 0.47266 0.41666 0.0
C149 C 0.41174 0.49815 0.46727 0.0
H150 H 0.52163 0.45768 0.35946 0.0
H151 H 0.35468 0.44391 0.39426 0.0
S152 S 0.63473 0.58244 0.56513 0.0
N153 N 0.68601 0.5683 0.51118 0.0
N154 N 0.50678 0.55396 0.54873 0.0
C155 C 0.50195 0.53155 0.49708 0.0
C156 C 0.59941 0.53913 0.47666 0.0
C157 C 0.18062 0.03713 0.10444 0.0
C158 C 0.11574 0.01921 0.1411 0.0
C159 C 0.15376 0.0179 0.04817 0.0
C160 C 0.07056 0.976 0.0304 0.0
H161 H 0.23266 0.07427 0.11458 0.0
H162 H 0.19214 0.0387 1.0179 0.0
S163 S 0.93673 0.893 0.12707 0.0
N164 N 1.01565 0.94036 0.1687 0.0
N165 N 0.95469 0.90458 0.06265 0.0
C166 C 0.03017 0.94785 0.07321 0.0
C167 C 0.06346 0.96679 0.13072 0.0
C168 C 0.67086 0.31516 0.93854 0.0
C169 C 0.69687 0.28217 0.89578 0.0
C170 C 0.73868 0.31302 0.99658 0.0
C171 C 0.83651 0.27817 1.01449 0.0
H172 H 0.59334 0.34086 0.92791 0.0
H173 H 0.71086 0.33648 0.02787 0.0
S174 S 0.95689 0.19245 0.91864 0.0
N175 N 0.83679 0.21962 0.87507 0.0
N176 N 0.96671 0.2169 0.9829 0.0
C177 C 0.86974 0.24929 0.97122 0.0
C178 C 0.79979 0.25101 0.91232 0.0
C179 C 0.82991 0.79775 0.52437 0.0
C180 C 0.71396 0.78335 0.50586 0.0
C181 C 0.899 0.78267 0.57953 0.0
C182 C 0.85588 0.75343 0.6206 0.0
H183 H 0.8704 0.8172 0.49416 0.0
H184 H 0.98863 0.79369 0.58921 0.0
S185 S 0.55056 0.71482 0.59675 0.0
N186 N 0.55438 0.74239 0.53368 0.0
N187 N 0.68297 0.71753 0.64018 0.0
C188 C 0.73716 0.74219 0.60407 0.0
C189 C 0.66668 0.75636 0.54629 0.0
C190 C 0.15582 0.74606 0.0814 0.0
C191 C 0.18304 0.73907 0.02883 0.0
C192 C 0.23958 0.75922 0.13292 0.0
C193 C 0.3548 0.76634 0.13427 0.0
H194 H 0.06739 0.7439 0.08217 0.0
H195 H 0.21284 0.76625 0.17113 0.0
S196 S 0.47543 0.7423 1.01128 0.0
N197 N 0.33652 0.7326 0.98399 0.0
N198 N 0.49392 0.75727 0.07933 0.0
C199 C 0.38458 0.75489 0.08297 0.0
C200 C 0.29909 0.74119 0.03078 0.0
C201 C 0.14593 0.23698 0.44927 0.0
C202 C 0.1874 0.27797 0.41645 0.0
C203 C 0.21584 0.21112 0.50038 0.0
C204 C 0.33147 0.22556 0.52346 0.0
H205 H 0.05606 0.22596 0.43692 0.0
H206 H 0.17444 0.18525 0.52614 0.0
S207 S 0.49487 0.31282 0.44432 0.0
N208 N 0.36071 0.31926 0.40319 0.0
N209 N 0.4924 0.27039 0.49961 0.0
C210 C 0.37891 0.25909 0.48654 0.0
C211 C 0.30699 0.28569 0.43351 0.0
C212 C 0.87814 0.3161 0.62724 0.0
C213 C 0.9494 0.32337 0.68352 0.0
C214 C 0.75775 0.31878 0.61475 0.0
C215 C 0.70358 0.32915 0.6579 0.0
H216 H 0.91542 0.30699 0.5929 0.0
H217 H 0.70687 0.31192 0.57089 0.0
S218 S 0.85265 0.36024 0.81025 0.0
N219 N 0.95722 0.34708 0.78156 0.0
N220 N 0.73261 0.35292 0.75791 0.0
C221 C 0.7744 0.33893 0.71378 0.0
C222 C 0.89659 0.33587 0.72655 0.0
C223 C 0.60694 0.85005 0.92037 0.0
C224 C 0.50671 0.83147 0.87986 0.0
C225 C 0.71484 0.84536 0.91091 0.0
C226 C 0.72617 0.8226 0.86013 0.0
H227 H 0.60268 0.86788 0.96013 0.0
H228 H 0.78986 0.85755 0.94454 0.0
S229 S 0.48922 0.7737 0.73752 0.0
N230 N 0.42507 0.79352 0.78533 0.0
N231 N 0.62733 0.78449 0.76702 0.0
C232 C 0.6262 0.80532 0.81851 0.0
C233 C 0.51669 0.80968 0.8285 0.0
C234 C 0.13524 0.67951 0.35459 0.0
C235 C 0.08842 0.73415 0.33845 0.0
C236 C 0.2516 0.6675 0.36061 0.0
C237 C 0.32546 0.70947 0.35002 0.0
H238 H 0.08101 0.6453 0.36085 0.0
H239 H 0.28389 0.62488 0.37325 0.0
S240 S 0.24865 0.8608 0.31379 0.0
N241 N 0.127 0.83127 0.31552 0.0
N242 N 0.34549 0.80929 0.32933 0.0
C243 C 0.28042 0.76458 0.33576 0.0
C244 C 0.16204 0.77671 0.32918 0.0
C245 C 0.36652 0.21522 0.24447 0.0
C246 C 0.27252 0.20484 0.19625 0.0
C247 C 0.47936 0.21341 0.24095 0.0
C248 C 0.50203 0.20111 0.18908 0.0
H249 H 0.35219 0.22714 0.2847 0.0
H250 H 0.54927 0.22141 0.27907 0.0
S251 S 0.28732 0.17365 0.04974 0.0
N252 N 0.20979 0.18519 0.0943 0.0
N253 N 0.42288 0.17801 0.08858 0.0
C254 C 0.40945 0.18967 0.14081 0.0
C255 C 0.29429 0.19255 0.14412 0.0
C256 C 0.2021 0.07397 0.80787 0.0
C257 C 0.3129 0.08602 0.80421 0.0
C258 C 0.16066 0.01808 0.8038 0.0
C259 C 0.22694 0.972 0.79453 0.0
H260 H 0.14543 0.10801 0.81168 0.0
H261 H 0.07483 1.01096 0.80701 0.0
S262 S 0.52785 0.9793 0.78946 0.0
N263 N 0.49296 0.04525 0.79763 0.0
N264 N 0.41212 0.94213 0.78657 0.0
C265 C 0.33865 0.98326 0.79246 0.0
C266 C 0.38226 0.03955 0.79842 0.0
C267 C 0.42916 0.53115 0.79138 0.0
C268 C 0.36079 0.48337 0.79451 0.0
C269 C 0.39365 0.58652 0.79892 0.0
C270 C 0.29122 0.59624 0.81305 0.0
H271 H 0.50108 0.52671 0.77382 0.0
H272 H 0.44225 0.62187 0.78941 0.0
S273 S 0.10396 0.48336 0.8467 0.0
N274 N 0.2013 0.44853 0.82546 0.0
N275 N 0.13836 0.55061 0.84486 0.0
C276 C 0.23393 0.54762 0.82667 0.0
C277 C 0.26877 0.49166 0.8171 0.0
C278 C 0.8379 0.99638 0.28523 0.0
C279 C 0.72743 0.9823 0.28744 0.0
C280 C 0.88127 0.05055 0.2985 0.0
C281 C 0.81302 0.09468 0.30986 0.0
H282 H 0.89162 0.96548 0.27305 0.0
H283 H 0.96601 0.05936 0.29451 0.0
S284 S 0.53171 0.07651 0.33759 0.0
N285 N 0.5635 1.01352 0.31873 0.0
N286 N 0.63922 0.11754 0.33444 0.0
C287 C 0.7074 0.08009 0.31801 0.0
C288 C 0.66573 0.02362 0.30833 0.0
C289 C 0.81775 0.50134 0.19865 0.0
C290 C 0.74985 0.4661 0.22364 0.0
C291 C 0.80419 0.56008 0.19425 0.0
C292 C 0.72315 0.58775 0.21525 0.0
H293 H 0.8886 0.48419 0.18558 0.0
H294 H 0.86733 0.5845 0.18039 0.0
S295 S 0.4875 0.51659 0.25693 0.0
N296 N 0.57159 0.46361 0.2504 0.0
N297 N 0.55001 0.57544 0.24428 0.0
C298 C 0.64271 0.5536 0.23176 0.0
C299 C 0.65527 0.49261 0.23556 0.0
loop_
_geom_bond_atom_site_label_1
_geom_bond_atom_site_label_2
_geom_bond_distance
_geom_bond_site_symmetry_2
_ccdc_geom_bond_type
C0 O12 1.241 . S
C0 O13 1.280 . S
C1 O14 1.277 . S
C1 O15 1.245 . S
C2 O26 1.247 . S
C2 O28 1.289 . S
Mg3 O4 1.926 . S
Mg3 O13 1.984 . S
Mg3 O15 1.988 . S
Mg3 O16 2.061 . S
O4 Mg3 1.926 . S
O4 Mg5 1.986 . S
O4 Mg6 1.917 . S
Mg5 O4 1.986 . S
Mg5 O12 2.042 . S
Mg5 O14 2.041 . S
Mg5 O20 2.038 . S
Mg5 O28 2.238 . S
Mg6 O4 1.917 . S
Mg6 O7 1.917 . S
Mg6 O17 2.106 . S
Mg6 O19 2.079 . S
Mg6 O28 2.106 . S
Mg6 O29 2.079 . S
O7 Mg6 1.917 . S
O7 Mg8 1.926 . S
O7 Mg9 1.986 . S
Mg8 O7 1.926 . S
Mg8 O22 1.984 . S
Mg8 O25 1.988 . S
Mg8 O26 2.061 . S
Mg9 O7 1.986 . S
Mg9 O17 2.238 . S
Mg9 O21 2.042 . S
Mg9 O23 2.041 . S
Mg9 O30 2.038 . S
C10 O16 1.247 . S
C10 O17 1.289 . S
C11 O29 1.245 . S
C11 O30 1.274 . S
O12 C0 1.241 . S
O12 Mg5 2.042 . S
O13 C0 1.280 . S
O13 Mg3 1.984 . S
O14 C1 1.277 . S
O14 Mg5 2.041 . S
O15 C1 1.245 . S
O15 Mg3 1.988 . S
O16 Mg3 2.061 . S
O16 C10 1.247 . S
O17 Mg6 2.106 . S
O17 Mg9 2.238 . S
O17 C10 1.289 . S
C18 O19 1.245 . S
C18 O20 1.274 . S
O19 Mg6 2.079 . S
O19 C18 1.245 . S
O20 Mg5 2.038 . S
O20 C18 1.274 . S
O21 Mg9 2.042 . S
O21 C24 1.241 . S
O22 Mg8 1.984 . S
O22 C24 1.280 . S
O23 Mg9 2.041 . S
O23 C27 1.277 . S
C24 O21 1.241 . S
C24 O22 1.280 . S
O25 Mg8 1.988 . S
O25 C27 1.245 . S
O26 C2 1.247 . S
O26 Mg8 2.061 . S
C27 O23 1.277 . S
C27 O25 1.245 . S
O28 C2 1.289 . S
O28 Mg5 2.238 . S
O28 Mg6 2.106 . S
O29 Mg6 2.079 . S
O29 C11 1.245 . S
O30 Mg9 2.038 . S
O30 C11 1.274 . S
C31 O43 1.241 . S
C31 O44 1.280 1_655 S
C32 O45 1.277 . S
C32 O46 1.245 . S
C33 O57 1.247 . S
C33 O59 1.289 . S
Mg34 O35 1.926 . S
Mg34 O44 1.984 . S
Mg34 O46 1.988 . S
Mg34 O47 2.061 . S
O35 Mg34 1.926 . S
O35 Mg36 1.986 . S
O35 Mg37 1.917 . S
Mg36 O35 1.986 . S
Mg36 O43 2.042 1_455 S
Mg36 O45 2.041 . S
Mg36 O51 2.038 1_455 S
Mg36 O59 2.238 . S
Mg37 O35 1.917 . S
Mg37 O38 1.917 . S
Mg37 O48 2.106 . S
Mg37 O50 2.079 . S
Mg37 O59 2.106 . S
Mg37 O60 2.079 . S
O38 Mg37 1.917 . S
O38 Mg39 1.926 . S
O38 Mg40 1.986 . S
Mg39 O38 1.926 . S
Mg39 O53 1.984 1_556 S
Mg39 O56 1.988 . S
Mg39 O57 2.061 . S
Mg40 O38 1.986 . S
Mg40 O48 2.238 . S
Mg40 O52 2.042 . S
Mg40 O54 2.041 . S
Mg40 O61 2.038 . S
C41 O47 1.247 . S
C41 O48 1.289 . S
C42 O60 1.245 . S
C42 O61 1.274 . S
O43 C31 1.241 . S
O43 Mg36 2.042 1_655 S
O44 C31 1.280 1_455 S
O44 Mg34 1.984 . S
O45 C32 1.277 . S
O45 Mg36 2.041 . S
O46 C32 1.245 . S
O46 Mg34 1.988 . S
O47 Mg34 2.061 . S
O47 C41 1.247 . S
O48 Mg37 2.106 . S
O48 Mg40 2.238 . S
O48 C41 1.289 . S
C49 O50 1.245 1_655 S
C49 O51 1.274 . S
O50 Mg37 2.079 . S
O50 C49 1.245 1_455 S
O51 Mg36 2.038 1_655 S
O51 C49 1.274 . S
O52 Mg40 2.042 . S
O52 C55 1.241 1_556 S
O53 Mg39 1.984 1_554 S
O53 C55 1.280 . S
O54 Mg40 2.041 . S
O54 C58 1.277 . S
C55 O52 1.241 1_554 S
C55 O53 1.280 . S
O56 Mg39 1.988 . S
O56 C58 1.245 . S
O57 C33 1.247 . S
O57 Mg39 2.061 . S
C58 O54 1.277 . S
C58 O56 1.245 . S
O59 C33 1.289 . S
O59 Mg36 2.238 . S
O59 Mg37 2.106 . S
O60 Mg37 2.079 . S
O60 C42 1.245 . S
O61 Mg40 2.038 . S
O61 C42 1.274 . S
C62 O74 1.241 . S
C62 O75 1.280 . S
C63 O76 1.277 . S
C63 O77 1.245 . S
C64 O88 1.247 . S
C64 O90 1.289 . S
Mg65 O66 1.926 . S
Mg65 O75 1.984 . S
Mg65 O77 1.988 . S
Mg65 O78 2.061 . S
O66 Mg65 1.926 . S
O66 Mg67 1.986 . S
O66 Mg68 1.917 . S
Mg67 O66 1.986 . S
Mg67 O74 2.042 . S
Mg67 O76 2.041 . S
Mg67 O82 2.038 . S
Mg67 O90 2.238 . S
Mg68 O66 1.917 . S
Mg68 O69 1.917 . S
Mg68 O79 2.106 . S
Mg68 O81 2.079 . S
Mg68 O90 2.106 . S
Mg68 O91 2.079 . S
O69 Mg68 1.917 . S
O69 Mg70 1.926 . S
O69 Mg71 1.986 . S
Mg70 O69 1.926 . S
Mg70 O84 1.984 . S
Mg70 O87 1.988 . S
Mg70 O88 2.061 . S
Mg71 O69 1.986 . S
Mg71 O79 2.238 . S
Mg71 O83 2.042 . S
Mg71 O85 2.041 . S
Mg71 O92 2.038 . S
C72 O78 1.247 . S
C72 O79 1.289 . S
C73 O91 1.245 . S
C73 O92 1.274 . S
O74 C62 1.241 . S
O74 Mg67 2.042 . S
O75 C62 1.280 . S
O75 Mg65 1.984 . S
O76 C63 1.277 . S
O76 Mg67 2.041 . S
O77 C63 1.245 . S
O77 Mg65 1.988 . S
O78 Mg65 2.061 . S
O78 C72 1.247 . S
O79 Mg68 2.106 . S
O79 Mg71 2.238 . S
O79 C72 1.289 . S
C80 O81 1.245 . S
C80 O82 1.274 . S
O81 Mg68 2.079 . S
O81 C80 1.245 . S
O82 Mg67 2.038 . S
O82 C80 1.274 . S
O83 Mg71 2.042 . S
O83 C86 1.241 . S
O84 Mg70 1.984 . S
O84 C86 1.280 . S
O85 Mg71 2.041 . S
O85 C89 1.277 . S
C86 O83 1.241 . S
C86 O84 1.280 . S
O87 Mg70 1.988 . S
O87 C89 1.245 . S
O88 C64 1.247 . S
O88 Mg70 2.061 . S
C89 O85 1.277 . S
C89 O87 1.245 . S
O90 C64 1.289 . S
O90 Mg67 2.238 . S
O90 Mg68 2.106 . S
O91 Mg68 2.079 . S
O91 C73 1.245 . S
O92 Mg71 2.038 . S
O92 C73 1.274 . S
C93 O105 1.241 1_556 S
C93 O106 1.280 . S
C94 O107 1.277 . S
C94 O108 1.245 . S
C95 O119 1.247 . S
C95 O121 1.289 . S
Mg96 O97 1.926 . S
Mg96 O106 1.984 1_554 S
Mg96 O108 1.988 . S
Mg96 O109 2.061 . S
O97 Mg96 1.926 . S
O97 Mg98 1.986 . S
O97 Mg99 1.917 . S
Mg98 O97 1.986 . S
Mg98 O105 2.042 . S
Mg98 O107 2.041 . S
Mg98 O113 2.038 . S
Mg98 O121 2.238 . S
Mg99 O97 1.917 . S
Mg99 O100 1.917 . S
Mg99 O110 2.106 . S
Mg99 O112 2.079 . S
Mg99 O121 2.106 . S
Mg99 O122 2.079 . S
O100 Mg99 1.917 . S
O100 Mg101 1.926 . S
O100 Mg102 1.986 . S
Mg101 O100 1.926 . S
Mg101 O115 1.984 . S
Mg101 O118 1.988 . S
Mg101 O119 2.061 . S
Mg102 O100 1.986 . S
Mg102 O110 2.238 . S
Mg102 O114 2.042 1_655 S
Mg102 O116 2.041 . S
Mg102 O123 2.038 1_655 S
C103 O109 1.247 . S
C103 O110 1.289 . S
C104 O122 1.245 1_455 S
C104 O123 1.274 . S
O105 C93 1.241 1_554 S
O105 Mg98 2.042 . S
O106 C93 1.280 . S
O106 Mg96 1.984 1_556 S
O107 C94 1.277 . S
O107 Mg98 2.041 . S
O108 C94 1.245 . S
O108 Mg96 1.988 . S
O109 Mg96 2.061 . S
O109 C103 1.247 . S
O110 Mg99 2.106 . S
O110 Mg102 2.238 . S
O110 C103 1.289 . S
C111 O112 1.245 . S
C111 O113 1.274 . S
O112 Mg99 2.079 . S
O112 C111 1.245 . S
O113 Mg98 2.038 . S
O113 C111 1.274 . S
O114 Mg102 2.042 1_455 S
O114 C117 1.241 . S
O115 Mg101 1.984 . S
O115 C117 1.280 1_655 S
O116 Mg102 2.041 . S
O116 C120 1.277 . S
C117 O114 1.241 . S
C117 O115 1.280 1_455 S
O118 Mg101 1.988 . S
O118 C120 1.245 . S
O119 C95 1.247 . S
O119 Mg101 2.061 . S
C120 O116 1.277 . S
C120 O118 1.245 . S
O121 C95 1.289 . S
O121 Mg98 2.238 . S
O121 Mg99 2.106 . S
O122 Mg99 2.079 . S
O122 C104 1.245 1_655 S
O123 Mg102 2.038 1_455 S
O123 C104 1.274 . S
C124 C125 1.369 . S
C124 C126 1.419 . S
C124 H128 0.930 . S
C125 C124 1.369 . S
C125 C134 1.429 1_655 S
C126 C124 1.419 . S
C126 C127 1.363 1_655 S
C126 H129 0.929 . S
C127 C126 1.363 1_455 S
C127 C133 1.428 . S
H128 C124 0.930 . S
H129 C126 0.929 . S
S130 N131 1.613 . S
S130 N132 1.610 . S
N131 S130 1.613 . S
N131 C134 1.350 . S
N132 S130 1.610 . S
N132 C133 1.351 . S
C133 C127 1.428 . S
C133 N132 1.351 . S
C133 C134 1.434 . S
C134 C125 1.429 1_455 S
C134 N131 1.350 . S
C134 C133 1.434 . S
C135 C136 1.369 . S
C135 C137 1.419 1_545 S
C135 H139 0.930 . S
C136 C135 1.369 . S
C136 C145 1.429 1_556 S
C137 C135 1.419 1_565 S
C137 C138 1.363 1_556 S
C137 H140 0.929 . S
C138 C137 1.363 1_554 S
C138 C144 1.428 . S
H139 C135 0.930 . S
H140 C137 0.929 . S
S141 N142 1.613 . S
S141 N143 1.610 . S
N142 S141 1.613 . S
N142 C145 1.350 . S
N143 S141 1.610 . S
N143 C144 1.351 1_545 S
C144 C138 1.428 . S
C144 N143 1.351 1_565 S
C144 C145 1.434 1_565 S
C145 C136 1.429 1_554 S
C145 N142 1.350 . S
C145 C144 1.434 1_545 S
C146 C147 1.369 . S
C146 C148 1.419 . S
C146 H150 0.930 . S
C147 C146 1.369 . S
C147 C156 1.429 . S
C148 C146 1.419 . S
C148 C149 1.363 . S
C148 H151 0.929 . S
C149 C148 1.363 . S
C149 C155 1.428 . S
H150 C146 0.930 . S
H151 C148 0.929 . S
S152 N153 1.613 . S
S152 N154 1.610 . S
N153 S152 1.613 . S
N153 C156 1.350 . S
N154 S152 1.610 . S
N154 C155 1.351 . S
C155 C149 1.428 . S
C155 N154 1.351 . S
C155 C156 1.434 . S
C156 C147 1.429 . S
C156 N153 1.350 . S
C156 C155 1.434 . S
C157 C158 1.369 1_445 S
C157 C159 1.419 . S
C157 H161 0.930 . S
C158 C157 1.369 1_665 S
C158 C167 1.429 1_554 S
C159 C157 1.419 . S
C159 C160 1.363 1_554 S
C159 H162 0.929 . S
C160 C159 1.363 1_556 S
C160 C166 1.428 1_445 S
H161 C157 0.930 . S
H162 C159 0.929 . S
S163 N164 1.613 . S
S163 N165 1.610 . S
N164 S163 1.613 . S
N164 C167 1.350 . S
N165 S163 1.610 . S
N165 C166 1.351 . S
C166 C160 1.428 1_665 S
C166 N165 1.351 . S
C166 C167 1.434 . S
C167 C158 1.429 1_556 S
C167 N164 1.350 . S
C167 C166 1.434 . S
C168 C169 1.369 . S
C168 C170 1.419 . S
C168 H172 0.930 . S
C169 C168 1.369 . S
C169 C178 1.429 . S
C170 C168 1.419 . S
C170 C171 1.363 . S
C170 H173 0.929 . S
C171 C170 1.363 . S
C171 C177 1.428 . S
H172 C168 0.930 . S
H173 C170 0.929 . S
S174 N175 1.613 . S
S174 N176 1.610 . S
N175 S174 1.613 . S
N175 C178 1.350 . S
N176 S174 1.610 . S
N176 C177 1.351 . S
C177 C171 1.428 . S
C177 N176 1.351 . S
C177 C178 1.434 . S
C178 C169 1.429 . S
C178 N175 1.350 . S
C178 C177 1.434 . S
C179 C180 1.369 . S
C179 C181 1.419 . S
C179 H183 0.930 . S
C180 C179 1.369 . S
C180 C189 1.429 . S
C181 C179 1.419 . S
C181 C182 1.363 . S
C181 H184 0.929 . S
C182 C181 1.363 . S
C182 C188 1.428 . S
H183 C179 0.930 . S
H184 C181 0.929 . S
S185 N186 1.613 . S
S185 N187 1.610 . S
N186 S185 1.613 . S
N186 C189 1.350 . S
N187 S185 1.610 . S
N187 C188 1.351 . S
C188 C182 1.428 . S
C188 N187 1.351 . S
C188 C189 1.434 . S
C189 C180 1.429 . S
C189 N186 1.350 . S
C189 C188 1.434 . S
C190 C191 1.369 . S
C190 C192 1.419 . S
C190 H194 0.930 . S
C191 C190 1.369 . S
C191 C200 1.429 . S
C192 C190 1.419 . S
C192 C193 1.363 . S
C192 H195 0.929 . S
C193 C192 1.363 . S
C193 C199 1.428 . S
H194 C190 0.930 . S
H195 C192 0.929 . S
S196 N197 1.613 1_554 S
S196 N198 1.610 . S
N197 S196 1.613 1_556 S
N197 C200 1.350 1_556 S
N198 S196 1.610 . S
N198 C199 1.351 . S
C199 C193 1.428 . S
C199 N198 1.351 . S
C199 C200 1.434 . S
C200 C191 1.429 . S
C200 N197 1.350 1_554 S
C200 C199 1.434 . S
C201 C202 1.369 . S
C201 C203 1.419 . S
C201 H205 0.930 . S
C202 C201 1.369 . S
C202 C211 1.429 . S
C203 C201 1.419 . S
C203 C204 1.363 . S
C203 H206 0.929 . S
C204 C203 1.363 . S
C204 C210 1.428 . S
H205 C201 0.930 . S
H206 C203 0.929 . S
S207 N208 1.613 . S
S207 N209 1.610 . S
N208 S207 1.613 . S
N208 C211 1.350 . S
N209 S207 1.610 . S
N209 C210 1.351 . S
C210 C204 1.428 . S
C210 N209 1.351 . S
C210 C211 1.434 . S
C211 C202 1.429 . S
C211 N208 1.350 . S
C211 C210 1.434 . S
C212 C213 1.369 . S
C212 C214 1.419 . S
C212 H216 0.930 . S
C213 C212 1.369 . S
C213 C222 1.429 . S
C214 C212 1.419 . S
C214 C215 1.363 . S
C214 H217 0.929 . S
C215 C214 1.363 . S
C215 C221 1.428 . S
H216 C212 0.930 . S
H217 C214 0.929 . S
S218 N219 1.613 . S
S218 N220 1.610 . S
N219 S218 1.613 . S
N219 C222 1.350 . S
N220 S218 1.610 . S
N220 C221 1.351 . S
C221 C215 1.428 . S
C221 N220 1.351 . S
C221 C222 1.434 . S
C222 C213 1.429 . S
C222 N219 1.350 . S
C222 C221 1.434 . S
C223 C224 1.369 . S
C223 C225 1.419 . S
C223 H227 0.930 . S
C224 C223 1.369 . S
C224 C233 1.429 . S
C225 C223 1.419 . S
C225 C226 1.363 . S
C225 H228 0.929 . S
C226 C225 1.363 . S
C226 C232 1.428 . S
H227 C223 0.930 . S
H228 C225 0.929 . S
S229 N230 1.613 . S
S229 N231 1.610 . S
N230 S229 1.613 . S
N230 C233 1.350 . S
N231 S229 1.610 . S
N231 C232 1.351 . S
C232 C226 1.428 . S
C232 N231 1.351 . S
C232 C233 1.434 . S
C233 C224 1.429 . S
C233 N230 1.350 . S
C233 C232 1.434 . S
C234 C235 1.369 . S
C234 C236 1.419 . S
C234 H238 0.930 . S
C235 C234 1.369 . S
C235 C244 1.429 . S
C236 C234 1.419 . S
C236 C237 1.363 . S
C236 H239 0.929 . S
C237 C236 1.363 . S
C237 C243 1.428 . S
H238 C234 0.930 . S
H239 C236 0.929 . S
S240 N241 1.613 . S
S240 N242 1.610 . S
N241 S240 1.613 . S
N241 C244 1.350 . S
N242 S240 1.610 . S
N242 C243 1.351 . S
C243 C237 1.428 . S
C243 N242 1.351 . S
C243 C244 1.434 . S
C244 C235 1.429 . S
C244 N241 1.350 . S
C244 C243 1.434 . S
C245 C246 1.369 . S
C245 C247 1.419 . S
C245 H249 0.930 . S
C246 C245 1.369 . S
C246 C255 1.429 . S
C247 C245 1.419 . S
C247 C248 1.363 . S
C247 H250 0.929 . S
C248 C247 1.363 . S
C248 C254 1.428 . S
H249 C245 0.930 . S
H250 C247 0.929 . S
S251 N252 1.613 . S
S251 N253 1.610 . S
N252 S251 1.613 . S
N252 C255 1.350 . S
N253 S251 1.610 . S
N253 C254 1.351 . S
C254 C248 1.428 . S
C254 N253 1.351 . S
C254 C255 1.434 . S
C255 C246 1.429 . S
C255 N252 1.350 . S
C255 C254 1.434 . S
C256 C257 1.369 . S
C256 C258 1.419 . S
C256 H260 0.930 1_455 S
C257 C256 1.369 . S
C257 C266 1.429 . S
C258 C256 1.419 . S
C258 C259 1.363 . S
C258 H261 0.929 1_455 S
C259 C258 1.363 . S
C259 C265 1.428 . S
H260 C256 0.930 1_655 S
H261 C258 0.929 1_655 S
S262 N263 1.613 . S
S262 N264 1.610 . S
N263 S262 1.613 . S
N263 C266 1.350 . S
N264 S262 1.610 . S
N264 C265 1.351 . S
C265 C259 1.428 . S
C265 N264 1.351 . S
C265 C266 1.434 . S
C266 C257 1.429 . S
C266 N263 1.350 . S
C266 C265 1.434 . S
C267 C268 1.369 . S
C267 C269 1.419 . S
C267 H271 0.930 . S
C268 C267 1.369 . S
C268 C277 1.429 . S
C269 C267 1.419 . S
C269 C270 1.363 . S
C269 H272 0.929 . S
C270 C269 1.363 . S
C270 C276 1.428 . S
H271 C267 0.930 . S
H272 C269 0.929 . S
S273 N274 1.613 . S
S273 N275 1.610 . S
N274 S273 1.613 . S
N274 C277 1.350 . S
N275 S273 1.610 . S
N275 C276 1.351 . S
C276 C270 1.428 . S
C276 N275 1.351 . S
C276 C277 1.434 . S
C277 C268 1.429 . S
C277 N274 1.350 . S
C277 C276 1.434 . S
C278 C279 1.369 . S
C278 C280 1.419 . S
C278 H282 0.930 1_655 S
C279 C278 1.369 . S
C279 C288 1.429 . S
C280 C278 1.419 . S
C280 C281 1.363 . S
C280 H283 0.929 1_655 S
C281 C280 1.363 . S
C281 C287 1.428 . S
H282 C278 0.930 1_455 S
H283 C280 0.929 1_455 S
S284 N285 1.613 . S
S284 N286 1.610 . S
N285 S284 1.613 . S
N285 C288 1.350 . S
N286 S284 1.610 . S
N286 C287 1.351 . S
C287 C281 1.428 . S
C287 N286 1.351 . S
C287 C288 1.434 . S
C288 C279 1.429 . S
C288 N285 1.350 . S
C288 C287 1.434 . S
C289 C290 1.369 . S
C289 C291 1.419 . S
C289 H293 0.930 . S
C290 C289 1.369 . S
C290 C299 1.429 . S
C291 C289 1.419 . S
C291 C292 1.363 . S
C291 H294 0.929 . S
C292 C291 1.363 . S
C292 C298 1.428 . S
H293 C289 0.930 . S
H294 C291 0.929 . S
S295 N296 1.613 . S
S295 N297 1.610 . S
N296 S295 1.613 . S
N296 C299 1.350 . S
N297 S295 1.610 . S
N297 C298 1.351 . S
C298 C292 1.428 . S
C298 N297 1.351 . S
C298 C299 1.434 . S
C299 C290 1.429 . S
C299 N296 1.350 . S
C299 C298 1.434 . S
C125 C63 0.774 . S
C127 C27 0.749 . S
C136 C93 0.792 . S
C138 C55 0.800 . S
C147 C62 1.020 . S
C149 C24 1.031 . S
C158 C94 0.943 1_565 S
C160 C58 0.945 1_545 S
C169 C1 1.926 . S
C171 C103 1.687 1_556 S
C180 C64 2.065 . S
C182 C31 1.942 . S
C191 C33 1.698 1_554 S
C193 C89 1.922 . S
C202 C117 1.939 . S
C204 C10 2.065 . S
C213 C18 1.728 1_655 S
C215 C11 1.731 . S
C224 C42 1.731 . S
C226 C49 1.727 . S
C235 C73 1.727 1_455 S
C237 C80 1.732 . S
C246 C104 1.729 . S
C248 C111 1.728 . S
C257 C0 1.975 . S
C259 C41 2.085 1_545 S
C268 C2 1.656 . S
C270 C32 1.842 . S
C279 C86 1.977 . S
C281 C95 2.084 1_565 S
C290 C120 1.845 . S
C292 C72 1.668 . S
