# Generated by pormake.
# Topology whw, (6)-cn, num edge types: 1
# Building blocks:
#     Node 0, Type 0, BuildingBlock: VOLQOD_clean_sbu_1, # of connection points: 6
#     Node 1, Type 0, BuildingBlock: VOLQOD_clean_sbu_1, # of connection points: 6
#     Node 2, Type 0, BuildingBlock: VOLQOD_clean_sbu_1, # of connection points: 6
#     Node 3, Type 0, BuildingBlock: VOLQOD_clean_sbu_1, # of connection points: 6
#     Node 4, Type 0, BuildingBlock: VOLQOD_clean_sbu_1, # of connection points: 6
#     Node 5, Type 0, BuildingBlock: VOLQOD_clean_sbu_1, # of connection points: 6
#     Node 6, Type 0, BuildingBlock: VOLQOD_clean_sbu_1, # of connection points: 6
#     Node 7, Type 0, BuildingBlock: VOLQOD_clean_sbu_1, # of connection points: 6
#     Node 8, Type 0, BuildingBlock: VOLQOD_clean_sbu_1, # of connection points: 6
#     Node 9, Type 0, BuildingBlock: VOLQOD_clean_sbu_1, # of connection points: 6
#     Node 10, Type 0, BuildingBlock: VOLQOD_clean_sbu_1, # of connection points: 6
#     Node 11, Type 0, BuildingBlock: VOLQOD_clean_sbu_1, # of connection points: 6
#     Node 12, Type 0, BuildingBlock: VOLQOD_clean_sbu_1, # of connection points: 6
#     Node 13, Type 0, BuildingBlock: VOLQOD_clean_sbu_1, # of connection points: 6
#     Node 14, Type 0, BuildingBlock: VOLQOD_clean_sbu_1, # of connection points: 6
#     Node 15, Type 0, BuildingBlock: VOLQOD_clean_sbu_1, # of connection points: 6
#     Edge 16, Type (0, 0), BuildingBlock: ZUJKAS_clean_linker_0, # of connection points: 2
#     Edge 17, Type (0, 0), BuildingBlock: ZUJKAS_clean_linker_0, # of connection points: 2
#     Edge 18, Type (0, 0), BuildingBlock: ZUJKAS_clean_linker_0, # of connection points: 2
#     Edge 19, Type (0, 0), BuildingBlock: ZUJKAS_clean_linker_0, # of connection points: 2
#     Edge 20, Type (0, 0), BuildingBlock: ZUJKAS_clean_linker_0, # of connection points: 2
#     Edge 21, Type (0, 0), BuildingBlock: ZUJKAS_clean_linker_0, # of connection points: 2
#     Edge 22, Type (0, 0), BuildingBlock: ZUJKAS_clean_linker_0, # of connection points: 2
#     Edge 23, Type (0, 0), BuildingBlock: ZUJKAS_clean_linker_0, # of connection points: 2
#     Edge 24, Type (0, 0), BuildingBlock: ZUJKAS_clean_linker_0, # of connection points: 2
#     Edge 25, Type (0, 0), BuildingBlock: ZUJKAS_clean_linker_0, # of connection points: 2
#     Edge 26, Type (0, 0), BuildingBlock: ZUJKAS_clean_linker_0, # of connection points: 2
#     Edge 27, Type (0, 0), BuildingBlock: ZUJKAS_clean_linker_0, # of connection points: 2
#     Edge 28, Type (0, 0), BuildingBlock: ZUJKAS_clean_linker_0, # of connection points: 2
#     Edge 29, Type (0, 0), BuildingBlock: ZUJKAS_clean_linker_0, # of connection points: 2
#     Edge 30, Type (0, 0), BuildingBlock: ZUJKAS_clean_linker_0, # of connection points: 2
#     Edge 31, Type (0, 0), BuildingBlock: ZUJKAS_clean_linker_0, # of connection points: 2
#     Edge 32, Type (0, 0), BuildingBlock: ZUJKAS_clean_linker_0, # of connection points: 2
#     Edge 33, Type (0, 0), BuildingBlock: ZUJKAS_clean_linker_0, # of connection points: 2
#     Edge 34, Type (0, 0), BuildingBlock: ZUJKAS_clean_linker_0, # of connection points: 2
#     Edge 35, Type (0, 0), BuildingBlock: ZUJKAS_clean_linker_0, # of connection points: 2
#     Edge 36, Type (0, 0), BuildingBlock: ZUJKAS_clean_linker_0, # of connection points: 2
#     Edge 37, Type (0, 0), BuildingBlock: ZUJKAS_clean_linker_0, # of connection points: 2
#     Edge 38, Type (0, 0), BuildingBlock: ZUJKAS_clean_linker_0, # of connection points: 2
#     Edge 39, Type (0, 0), BuildingBlock: ZUJKAS_clean_linker_0, # of connection points: 2
#     Edge 40, Type (0, 0), BuildingBlock: ZUJKAS_clean_linker_0, # of connection points: 2
#     Edge 41, Type (0, 0), BuildingBlock: ZUJKAS_clean_linker_0, # of connection points: 2
#     Edge 42, Type (0, 0), BuildingBlock: ZUJKAS_clean_linker_0, # of connection points: 2
#     Edge 43, Type (0, 0), BuildingBlock: ZUJKAS_clean_linker_0, # of connection points: 2
#     Edge 44, Type (0, 0), BuildingBlock: ZUJKAS_clean_linker_0, # of connection points: 2
#     Edge 45, Type (0, 0), BuildingBlock: ZUJKAS_clean_linker_0, # of connection points: 2
#     Edge 46, Type (0, 0), BuildingBlock: ZUJKAS_clean_linker_0, # of connection points: 2
#     Edge 47, Type (0, 0), BuildingBlock: ZUJKAS_clean_linker_0, # of connection points: 2
#     Edge 48, Type (0, 0), BuildingBlock: ZUJKAS_clean_linker_0, # of connection points: 2
#     Edge 49, Type (0, 0), BuildingBlock: ZUJKAS_clean_linker_0, # of connection points: 2
#     Edge 50, Type (0, 0), BuildingBlock: ZUJKAS_clean_linker_0, # of connection points: 2
#     Edge 51, Type (0, 0), BuildingBlock: ZUJKAS_clean_linker_0, # of connection points: 2
#     Edge 52, Type (0, 0), BuildingBlock: ZUJKAS_clean_linker_0, # of connection points: 2
#     Edge 53, Type (0, 0), BuildingBlock: ZUJKAS_clean_linker_0, # of connection points: 2
#     Edge 54, Type (0, 0), BuildingBlock: ZUJKAS_clean_linker_0, # of connection points: 2
#     Edge 55, Type (0, 0), BuildingBlock: ZUJKAS_clean_linker_0, # of connection points: 2
#     Edge 56, Type (0, 0), BuildingBlock: ZUJKAS_clean_linker_0, # of connection points: 2
#     Edge 57, Type (0, 0), BuildingBlock: ZUJKAS_clean_linker_0, # of connection points: 2
#     Edge 58, Type (0, 0), BuildingBlock: ZUJKAS_clean_linker_0, # of connection points: 2
#     Edge 59, Type (0, 0), BuildingBlock: ZUJKAS_clean_linker_0, # of connection points: 2
#     Edge 60, Type (0, 0), BuildingBlock: ZUJKAS_clean_linker_0, # of connection points: 2
#     Edge 61, Type (0, 0), BuildingBlock: ZUJKAS_clean_linker_0, # of connection points: 2
#     Edge 62, Type (0, 0), BuildingBlock: ZUJKAS_clean_linker_0, # of connection points: 2
#     Edge 63, Type (0, 0), BuildingBlock: ZUJKAS_clean_linker_0, # of connection points: 2
# Relax obj value: 0.800
# Max RMSD: 0.285
# Mean RMSD: 0.285
data_MOF--net-whw--node1-VOLQOD_clean_sbu_1--edge1-ZUJKAS_clean_linker_0
_symmetry_space_group_name_H-M    P1
_symmetry_Int_Tables_number       1
_symmetry_cell_setting            triclinic
loop_
_symmetry_equiv_pos_as_xyz
'x, y, z'
_cell_length_a     70.529005
_cell_length_b     70.650081
_cell_length_c     30.561796
_cell_angle_alpha  89.993657
_cell_angle_beta   89.866346
_cell_angle_gamma 89.976883
loop_
_atom_site_label
_atom_site_type_symbol
_atom_site_fract_x
_atom_site_fract_y
_atom_site_fract_z
_atom_type_partial_charge
O0 O 0.00806 0.14002 0.16912 0.0
Zn1 Zn 0.02534 0.13619 0.11738 0.0
O2 O 0.03303 0.1099 0.11209 0.0
Zn3 Zn 0.06044 0.10765 0.11543 0.0
Zn4 Zn 0.02128 0.09497 0.15817 0.0
Zn5 Zn 0.02638 0.10076 0.05522 0.0
O6 O 0.07246 0.09331 0.06557 0.0
O7 O 0.04956 0.09869 0.01781 0.0
O8 O 0.04809 0.15325 0.11854 0.0
O9 O 0.07169 0.13312 0.10625 0.0
O10 O 0.06816 0.09874 0.17489 0.0
O11 O 0.04098 0.08944 0.205 0.0
O12 O 0.00876 0.07141 0.13232 0.0
O13 O 0.01044 0.1444 0.06437 0.0
O14 O 0.01398 0.07588 0.06105 0.0
O15 O 0.00875 0.11844 0.0238 0.0
C16 C -0.00132 0.12836 0.19252 0.0
C17 C 0.06677 0.09476 0.02617 0.0
C18 C 0.05884 0.09229 0.20741 0.0
C19 C 0.06545 0.14989 0.10985 0.0
C20 C 0.00742 0.06606 0.0925 0.0
C21 C 0.00454 0.1357 0.03057 0.0
O22 O 0.00135 0.11055 0.18947 0.0
O23 O 0.10083 0.74902 0.44879 0.0
Zn24 Zn 0.09834 0.76207 0.39063 0.0
O25 O 0.11771 0.78087 0.38273 0.0
Zn26 Zn 0.10715 0.80594 0.38364 0.0
Zn27 Zn 0.13596 0.77797 0.42938 0.0
Zn28 Zn 0.12803 0.77881 0.32496 0.0
O29 O 0.11662 0.82275 0.33563 0.0
O30 O 0.11827 0.79998 0.28624 0.0
O31 O 0.07275 0.77367 0.38122 0.0
O32 O 0.07955 0.80407 0.37096 0.0
O33 O 0.1103 0.81761 0.44224 0.0
O34 O 0.12997 0.798 0.4768 0.0
O35 O 0.16272 0.77904 0.40221 0.0
O36 O 0.10121 0.74161 0.34532 0.0
O37 O 0.15592 0.78062 0.33086 0.0
O38 O 0.12177 0.7535 0.29768 0.0
C39 C 0.11615 0.74432 0.46799 0.0
C40 C 0.11599 0.81739 0.29591 0.0
C41 C 0.11934 0.81271 0.47638 0.0
C42 C 0.06774 0.7905 0.37163 0.0
C43 C 0.16788 0.78024 0.36205 0.0
C44 C 0.11088 0.74016 0.31025 0.0
O45 O 0.13187 0.75246 0.45921 0.0
O46 O 0.54753 0.8397 0.66815 0.0
Zn47 Zn 0.53311 0.84411 0.61143 0.0
O48 O 0.51724 0.86615 0.6181 0.0
Zn49 Zn 0.49071 0.86143 0.60983 0.0
Zn50 Zn 0.51925 0.87687 0.6756 0.0
Zn51 Zn 0.52317 0.88329 0.57153 0.0
O52 O 0.47836 0.87925 0.56778 0.0
O53 O 0.50321 0.88076 0.52407 0.0
O54 O 0.51689 0.82225 0.58904 0.0
O55 O 0.48885 0.83645 0.58177 0.0
O56 O 0.47594 0.86 0.6658 0.0
O57 O 0.4976 0.86786 0.71498 0.0
O58 O 0.51787 0.9055 0.66908 0.0
O59 O 0.55378 0.84886 0.56645 0.0
O60 O 0.52222 0.90903 0.59699 0.0
O61 O 0.5486 0.87827 0.54421 0.0
C62 C 0.552 0.85143 0.69835 0.0
C63 C 0.4853 0.88108 0.52961 0.0
C64 C 0.48096 0.86214 0.70541 0.0
C65 C 0.49964 0.82225 0.57614 0.0
C66 C 0.51973 0.9159 0.63512 0.0
C67 C 0.55859 0.86327 0.54389 0.0
O68 O 0.54356 0.86736 0.70239 0.0
O69 O 0.34627 0.29433 0.9527 0.0
Zn70 Zn 0.34963 0.28437 0.89232 0.0
O71 O 0.34369 0.25752 0.89024 0.0
Zn72 Zn 0.36665 0.24279 0.88157 0.0
Zn73 Zn 0.33188 0.24982 0.94584 0.0
Zn74 Zn 0.32722 0.25359 0.84022 0.0
O75 O 0.36508 0.22633 0.82894 0.0
O76 O 0.33833 0.23481 0.79661 0.0
O77 O 0.37676 0.28872 0.87649 0.0
O78 O 0.38864 0.25978 0.87042 0.0
O79 O 0.37251 0.22607 0.93242 0.0
O80 O 0.34749 0.22961 0.97571 0.0
O81 O 0.30605 0.23829 0.93411 0.0
O82 O 0.33575 0.29989 0.84774 0.0
O83 O 0.30281 0.24298 0.86221 0.0
O84 O 0.32349 0.27759 0.80555 0.0
C85 C 0.33914 0.28803 0.98811 0.0
C86 C 0.35347 0.22497 0.79741 0.0
C87 C 0.36339 0.22193 0.96705 0.0
C88 C 0.39054 0.27767 0.86852 0.0
C89 C 0.29648 0.23704 0.89884 0.0
C90 C 0.32743 0.29491 0.81268 0.0
O91 O 0.33176 0.27154 0.99 0.0
O92 O 0.94603 0.83527 0.84326 0.0
Zn93 Zn 0.95715 0.84322 0.90159 0.0
O94 O 0.96338 0.86978 0.90011 0.0
Zn95 Zn 0.99015 0.87438 0.90437 0.0
Zn96 Zn 0.95514 0.88056 0.84556 0.0
Zn97 Zn 0.95282 0.88177 0.95078 0.0
O98 O 0.99708 0.89366 0.9494 0.0
O99 O 0.97372 0.88683 0.99507 0.0
O100 O 0.9803 0.8283 0.92034 0.0
O101 O 0.00203 0.85095 0.92618 0.0
O102 O 0.00221 0.87962 0.84643 0.0
O103 O 0.9774 0.88087 0.80199 0.0
O104 O 0.94467 0.90703 0.85801 0.0
O105 O 0.93637 0.83831 0.94599 0.0
O106 O 0.94147 0.90589 0.93078 0.0
O107 O 0.93257 0.86596 0.97918 0.0
C108 C 0.93544 0.84513 0.81818 0.0
C109 C 0.99049 0.89292 0.98816 0.0
C110 C 0.99531 0.88077 0.80812 0.0
C111 C 0.99695 0.83382 0.93059 0.0
C112 C 0.93931 0.91434 0.8943 0.0
C113 C 0.92789 0.84871 0.97395 0.0
O114 O 0.93529 0.8632 0.81965 0.0
O115 O 0.41112 0.71187 0.06555 0.0
Zn116 Zn 0.41311 0.72863 0.11861 0.0
O117 O 0.389 0.74082 0.12856 0.0
Zn118 Zn 0.39037 0.76815 0.12669 0.0
Zn119 Zn 0.37099 0.73349 0.08428 0.0
Zn120 Zn 0.3808 0.73465 0.18643 0.0
O121 O 0.38203 0.78092 0.18224 0.0
O122 O 0.38609 0.7566 0.2271 0.0
O123 O 0.43386 0.74836 0.1133 0.0
O124 O 0.41743 0.77502 0.12145 0.0
O125 O 0.37885 0.77948 0.07286 0.0
O126 O 0.37162 0.75342 0.0361 0.0
O127 O 0.34479 0.73152 0.1137 0.0
O128 O 0.41947 0.71048 0.16774 0.0
O129 O 0.35305 0.73043 0.1842 0.0
O130 O 0.39396 0.71165 0.2102 0.0
C131 C 0.39703 0.70393 0.0469 0.0
C132 C 0.38438 0.77435 0.22064 0.0
C133 C 0.37432 0.77127 0.03736 0.0
C134 C 0.43305 0.76639 0.11592 0.0
C135 C 0.34049 0.73001 0.15432 0.0
C136 C 0.40994 0.7044 0.20031 0.0
O137 O 0.37999 0.70922 0.05466 0.0
O138 O 0.54007 0.10958 0.34171 0.0
Zn139 Zn 0.5282 0.11751 0.39834 0.0
O140 O 0.50082 0.11805 0.39444 0.0
Zn141 Zn 0.4914 0.14352 0.38663 0.0
Zn142 Zn 0.49332 0.10221 0.34557 0.0
Zn143 Zn 0.49172 0.10874 0.44932 0.0
O144 O 0.47151 0.15016 0.43216 0.0
O145 O 0.47088 0.12467 0.47431 0.0
O146 O 0.53731 0.14368 0.40912 0.0
O147 O 0.51281 0.1622 0.39278 0.0
O148 O 0.47815 0.1456 0.32894 0.0
O149 O 0.47294 0.11554 0.3106 0.0
O150 O 0.48425 0.07652 0.36833 0.0
O151 O 0.53804 0.10321 0.45025 0.0
O152 O 0.48153 0.08315 0.43951 0.0
O153 O 0.51309 0.1077 0.49313 0.0
C154 C 0.53299 0.10368 0.30595 0.0
C155 C 0.46464 0.141 0.4644 0.0
C156 C 0.47016 0.13323 0.30483 0.0
C157 C 0.53006 0.15998 0.40419 0.0
C158 C 0.47946 0.07195 0.40729 0.0
C159 C 0.53069 0.10409 0.4883 0.0
O160 O 0.51533 0.10001 0.30281 0.0
O161 O 0.16143 0.27834 0.53887 0.0
Zn162 Zn 0.14873 0.2706 0.59393 0.0
O163 O 0.151 0.24377 0.60527 0.0
Zn164 Zn 0.1261 0.23206 0.61253 0.0
Zn165 Zn 0.1647 0.23196 0.55663 0.0
Zn166 Zn 0.16483 0.24162 0.65953 0.0
O167 O 0.12396 0.21857 0.67066 0.0
O168 O 0.15271 0.22221 0.69869 0.0
O169 O 0.1216 0.27713 0.58556 0.0
O170 O 0.1054 0.2516 0.6057 0.0
O171 O 0.12209 0.21171 0.56714 0.0
O172 O 0.1494 0.21056 0.531 0.0
O173 O 0.18934 0.22062 0.57874 0.0
O174 O 0.15669 0.28699 0.6439 0.0
O175 O 0.19077 0.23202 0.64676 0.0
O176 O 0.1653 0.26614 0.69403 0.0
C177 C 0.16716 0.269 0.50585 0.0
C178 C 0.13621 0.21496 0.7001 0.0
C179 C 0.13269 0.20439 0.53787 0.0
C180 C 0.10598 0.26877 0.59291 0.0
C181 C 0.19801 0.22286 0.61493 0.0
C182 C 0.1619 0.28315 0.68266 0.0
O183 O 0.16862 0.25099 0.50716 0.0
O184 O 0.90299 0.22537 0.5488 0.0
Zn185 Zn 0.90425 0.24638 0.59203 0.0
O186 O 0.87969 0.25853 0.5978 0.0
Zn187 Zn 0.88218 0.28582 0.5889 0.0
Zn188 Zn 0.86182 0.24813 0.55465 0.0
Zn189 Zn 0.87091 0.25416 0.65677 0.0
O190 O 0.87492 0.30105 0.64177 0.0
O191 O 0.86809 0.2786 0.68996 0.0
O192 O 0.92355 0.26484 0.57057 0.0
O193 O 0.90918 0.29269 0.57565 0.0
O194 O 0.86845 0.2943 0.53535 0.0
O195 O 0.85797 0.2675 0.50623 0.0
O196 O 0.837 0.24008 0.58497 0.0
O197 O 0.91377 0.23537 0.64876 0.0
O198 O 0.84612 0.24136 0.65476 0.0
O199 O 0.8887 0.23807 0.69208 0.0
C200 C 0.89023 0.21855 0.52406 0.0
C201 C 0.87008 0.29601 0.68017 0.0
C202 C 0.86114 0.28525 0.50358 0.0
C203 C 0.92375 0.28278 0.56708 0.0
C204 C 0.83399 0.23712 0.62569 0.0
C205 C 0.90557 0.23243 0.68525 0.0
O206 O 0.87354 0.22551 0.52312 0.0
O207 O 0.66738 0.80271 0.06723 0.0
Zn208 Zn 0.65642 0.79489 0.12524 0.0
O209 O 0.65826 0.76749 0.13378 0.0
Zn210 Zn 0.63319 0.75625 0.13995 0.0
Zn211 Zn 0.67077 0.75591 0.08326 0.0
Zn212 Zn 0.67243 0.76302 0.18713 0.0
O213 O 0.62876 0.74576 0.20015 0.0
O214 O 0.6572 0.74769 0.2305 0.0
O215 O 0.62916 0.80277 0.12098 0.0
O216 O 0.61349 0.77558 0.12688 0.0
O217 O 0.62891 0.73498 0.09788 0.0
O218 O 0.65441 0.73589 0.05555 0.0
O219 O 0.69446 0.74212 0.10195 0.0
O220 O 0.66666 0.80967 0.17633 0.0
O221 O 0.69588 0.74829 0.17341 0.0
O222 O 0.6778 0.78716 0.21972 0.0
C223 C 0.67287 0.7933 0.03394 0.0
C224 C 0.6399 0.74264 0.23205 0.0
C225 C 0.63838 0.72882 0.06545 0.0
C226 C 0.61381 0.79338 0.12077 0.0
C227 C 0.70247 0.74041 0.13908 0.0
C228 C 0.67418 0.80452 0.21227 0.0
O229 O 0.67494 0.77537 0.03575 0.0
O230 O 0.59758 0.22093 0.94577 0.0
Zn231 Zn 0.59936 0.23702 0.89157 0.0
O232 O 0.62212 0.25213 0.89224 0.0
Zn233 Zn 0.61662 0.27885 0.89625 0.0
Zn234 Zn 0.63775 0.24483 0.94171 0.0
Zn235 Zn 0.63446 0.24948 0.83651 0.0
O236 O 0.62854 0.29463 0.8492 0.0
O237 O 0.62957 0.2724 0.79834 0.0
O238 O 0.57656 0.25373 0.88255 0.0
O239 O 0.58918 0.28251 0.88541 0.0
O240 O 0.62186 0.28909 0.95562 0.0
O241 O 0.63493 0.2647 0.99024 0.0
O242 O 0.66521 0.24174 0.92018 0.0
O243 O 0.60011 0.21838 0.84209 0.0
O244 O 0.6619 0.24726 0.84844 0.0
O245 O 0.62584 0.22601 0.80429 0.0
C246 C 0.61055 0.2142 0.97031 0.0
C247 C 0.62906 0.28983 0.8091 0.0
C248 C 0.62845 0.28159 0.99021 0.0
C249 C 0.57501 0.27168 0.88008 0.0
C250 C 0.67215 0.24385 0.88175 0.0
C251 C 0.61152 0.21535 0.81056 0.0
O252 O 0.62749 0.22059 0.96889 0.0
O253 O 0.84764 0.75783 0.43299 0.0
Zn254 Zn 0.85127 0.74871 0.37209 0.0
O255 O 0.85184 0.72122 0.36946 0.0
Zn256 Zn 0.87723 0.71223 0.35606 0.0
Zn257 Zn 0.84342 0.71108 0.42616 0.0
Zn258 Zn 0.83565 0.71376 0.32164 0.0
O259 O 0.87758 0.69399 0.30606 0.0
O260 O 0.84882 0.69673 0.27791 0.0
O261 O 0.87595 0.75924 0.35203 0.0
O262 O 0.89349 0.73394 0.3364 0.0
O263 O 0.88867 0.69892 0.4077 0.0
O264 O 0.86388 0.69434 0.45152 0.0
O265 O 0.81913 0.69576 0.41869 0.0
O266 O 0.83295 0.7607 0.33024 0.0
O267 O 0.81402 0.69955 0.34698 0.0
O268 O 0.82738 0.73639 0.28651 0.0
C269 C 0.84364 0.74995 0.46926 0.0
C270 C 0.86549 0.68986 0.27685 0.0
C271 C 0.88133 0.69183 0.44214 0.0
C272 C 0.891 0.75176 0.33718 0.0
C273 C 0.80932 0.69296 0.38427 0.0
C274 C 0.82677 0.75409 0.29426 0.0
O275 O 0.84061 0.73216 0.47163 0.0
O276 O 0.47175 0.60109 0.6803 0.0
Zn277 Zn 0.48551 0.611 0.62739 0.0
O278 O 0.51254 0.61362 0.63799 0.0
Zn279 Zn 0.51937 0.63968 0.64905 0.0
Zn280 Zn 0.519 0.59805 0.68804 0.0
Zn281 Zn 0.52554 0.60524 0.58644 0.0
O282 O 0.53873 0.64915 0.6051 0.0
O283 O 0.54478 0.62381 0.56476 0.0
O284 O 0.47471 0.6366 0.61794 0.0
O285 O 0.49648 0.65652 0.64322 0.0
O286 O 0.53171 0.64193 0.70778 0.0
O287 O 0.53731 0.61209 0.72734 0.0
O288 O 0.52989 0.57291 0.6669 0.0
O289 O 0.47926 0.59769 0.57099 0.0
O290 O 0.53774 0.58062 0.59851 0.0
O291 O 0.50689 0.60164 0.53747 0.0
C292 C 0.47778 0.59622 0.71792 0.0
C293 C 0.54783 0.64105 0.57429 0.0
C294 C 0.53935 0.62986 0.73327 0.0
C295 C 0.48008 0.65323 0.62746 0.0
C296 C 0.53774 0.56897 0.63027 0.0
C297 C 0.48925 0.59782 0.53619 0.0
O298 O 0.49549 0.59448 0.72533 0.0
O299 O 0.05656 0.33733 0.1371 0.0
Zn300 Zn 0.04403 0.34306 0.08079 0.0
O301 O 0.01969 0.35397 0.08872 0.0
Zn302 Zn 0.00027 0.33484 0.08172 0.0
Zn303 Zn 0.01876 0.36483 0.14724 0.0
Zn304 Zn 0.01799 0.37206 0.04138 0.0
O305 O 0.98042 0.34465 0.04095 0.0
O306 O 0.99336 0.36953 0.00801 0.0
O307 O 0.0411 0.31977 0.04634 0.0
O308 O 0.01094 0.31105 0.05292 0.0
O309 O 0.98649 0.33029 0.13875 0.0
O310 O 0.99479 0.35564 0.17766 0.0
O311 O 0.01892 0.39353 0.14219 0.0
O312 O 0.0616 0.35886 0.04536 0.0
O313 O 0.01846 0.39727 0.06945 0.0
O314 O 0.04051 0.37047 0.99928 0.0
C315 C 0.05465 0.34422 0.17525 0.0
C316 C 0.97958 0.35809 0.01328 0.0
C317 C 0.98439 0.34103 0.17203 0.0
C318 C 0.02766 0.30839 0.03806 0.0
C319 C 0.01879 0.40396 0.10811 0.0
C320 C 0.05764 0.36638 0.00878 0.0
O321 O 0.04138 0.35594 0.18404 0.0
O322 O 0.45954 0.34089 0.36308 0.0
Zn323 Zn 0.4721 0.34636 0.42162 0.0
O324 O 0.48544 0.36987 0.418 0.0
Zn325 Zn 0.51225 0.36742 0.42419 0.0
Zn326 Zn 0.48143 0.38097 0.36199 0.0
Zn327 Zn 0.47844 0.38564 0.46624 0.0
O328 O 0.52326 0.38624 0.46568 0.0
O329 O 0.49935 0.38432 0.51207 0.0
O330 O 0.49009 0.32616 0.44483 0.0
O331 O 0.51682 0.34265 0.45185 0.0
O332 O 0.52598 0.36725 0.36684 0.0
O333 O 0.50266 0.37311 0.32016 0.0
O334 O 0.48187 0.40944 0.37063 0.0
O335 O 0.45032 0.34901 0.46423 0.0
O336 O 0.47734 0.41186 0.44286 0.0
O337 O 0.45355 0.37765 0.49322 0.0
C338 C 0.45198 0.3531 0.33758 0.0
C339 C 0.51701 0.38667 0.50472 0.0
C340 C 0.51989 0.36872 0.32786 0.0
C341 C 0.50731 0.32757 0.4575 0.0
C342 C 0.47964 0.41935 0.40524 0.0
C343 C 0.44443 0.36216 0.4894 0.0
O344 O 0.45696 0.37049 0.33789 0.0
O345 O 0.07571 0.62469 0.83597 0.0
Zn346 Zn 0.06014 0.62861 0.88981 0.0
O347 O 0.03391 0.62156 0.88055 0.0
Zn348 Zn 0.01781 0.64362 0.87273 0.0
Zn349 Zn 0.03278 0.60539 0.8288 0.0
Zn350 Zn 0.02606 0.60865 0.93278 0.0
O351 O 0.99591 0.64386 0.91587 0.0
O352 O 0.00156 0.61857 0.95669 0.0
O353 O 0.06133 0.65617 0.90052 0.0
O354 O 0.03301 0.66745 0.88208 0.0
O355 O 0.0059 0.64318 0.81329 0.0
O356 O 0.0113 0.61391 0.78941 0.0
O357 O 0.02916 0.57793 0.84722 0.0
O358 O 0.0719 0.61777 0.94412 0.0
O359 O 0.02266 0.58166 0.91833 0.0
O360 O 0.04551 0.61137 0.98056 0.0
C361 C 0.07216 0.61737 0.79885 0.0
C362 C 0.99134 0.63279 0.94706 0.0
C363 C 0.00323 0.63 0.7855 0.0
C364 C 0.05001 0.66992 0.89499 0.0
C365 C 0.02445 0.5713 0.88455 0.0
C366 C 0.06336 0.61404 0.97984 0.0
O367 O 0.05643 0.60905 0.79158 0.0
H368 H 0.06145 0.09068 0.93835 0.0
H369 H 0.07929 0.10748 0.88167 0.0
H370 H 0.1206 0.12457 0.97744 0.0
H371 H 0.10307 0.10758 0.03425 0.0
H372 H 0.0914 0.15344 0.92645 0.0
H373 H 0.13951 0.1073 0.82844 0.0
H374 H 0.11701 0.09808 0.84707 0.0
H375 H 0.13524 0.10314 0.88604 0.0
C376 C 0.07483 0.09721 0.94695 0.0
C377 C 0.08077 0.09791 0.99083 0.0
C378 C 0.08496 0.10685 0.91455 0.0
C379 C 0.10114 0.11729 0.9256 0.0
C380 C 0.10819 0.11643 0.96838 0.0
H381 H 0.16027 0.19938 0.76046 0.0
H382 H 0.15265 0.17606 0.81705 0.0
C383 C 0.0982 0.10659 0.00074 0.0
C384 C 0.10819 0.13189 0.8951 0.0
H385 H 0.13519 0.13879 0.80376 0.0
C386 C 0.10114 0.15034 0.89987 0.0
C387 C 0.12081 0.12766 0.86063 0.0
C388 C 0.12872 0.108 0.85495 0.0
C389 C 0.1061 0.16469 0.87033 0.0
C390 C 0.11828 0.16036 0.83492 0.0
C391 C 0.12578 0.14201 0.83088 0.0
C392 C 0.12285 0.17459 0.80098 0.0
C393 C 0.09821 0.18434 0.87708 0.0
C394 C 0.1086 0.18138 0.77315 0.0
C395 C 0.11287 0.19466 0.74071 0.0
C396 C 0.1315 0.20143 0.73557 0.0
C397 C 0.14574 0.1946 0.76369 0.0
C398 C 0.14146 0.18121 0.79594 0.0
H399 H 0.09281 0.18638 0.91093 0.0
H400 H 0.10916 0.19523 0.87021 0.0
H401 H 0.08624 0.18664 0.85417 0.0
H402 H 0.09419 0.17625 0.77625 0.0
H403 H 0.10158 0.19955 0.71955 0.0
H404 H 0.10424 0.85403 0.30769 0.0
H405 H 0.08457 0.87261 0.25796 0.0
H406 H 0.09036 0.82942 0.15922 0.0
H407 H 0.10983 0.81055 0.20885 0.0
H408 H 0.08761 0.88715 0.17142 0.0
H409 H 0.03296 0.83107 0.18673 0.0
H410 H 0.05343 0.83222 0.22192 0.0
H411 H 0.05549 0.82247 0.16776 0.0
C412 C 0.10174 0.84863 0.27504 0.0
C413 C 0.10838 0.83061 0.26256 0.0
C414 C 0.09045 0.8593 0.24669 0.0
C415 C 0.08564 0.85215 0.2054 0.0
C416 C 0.09361 0.83498 0.19138 0.0
H417 H 0.02883 0.89833 0.9841 0.0
H418 H 0.05158 0.89198 0.04179 0.0
C419 C 0.10484 0.82427 0.21971 0.0
C420 C 0.07103 0.86175 0.17862 0.0
H421 H 0.02752 0.85474 0.13306 0.0
C422 C 0.0744 0.88015 0.16316 0.0
C423 C 0.05357 0.85282 0.1691 0.0
C424 C 0.0485 0.83364 0.18758 0.0
C425 C 0.06108 0.88955 0.13673 0.0
C426 C 0.04413 0.88012 0.1249 0.0
C427 C 0.04051 0.862 0.14189 0.0
C428 C 0.0305 0.88794 0.09254 0.0
C429 C 0.06529 0.90949 0.12203 0.0
C430 C 0.01097 0.88819 0.10178 0.0
C431 C 0.9978 0.89151 0.06846 0.0
C432 C 0.00393 0.89465 0.02525 0.0
C433 C 0.02354 0.89599 0.01696 0.0
C434 C 0.03666 0.89247 0.05013 0.0
H435 H 0.07456 0.9169 0.14587 0.0
H436 H 0.07293 0.90903 0.09027 0.0
H437 H 0.05209 0.91786 0.11776 0.0
H438 H 0.00586 0.88476 0.13428 0.0
H439 H 0.98283 0.89042 0.07608 0.0
H440 H 0.37556 0.81208 0.22551 0.0
H441 H 0.38767 0.83503 0.27856 0.0
H442 H 0.41589 0.78997 0.34806 0.0
H443 H 0.4031 0.76696 0.29666 0.0
H444 H 0.40312 0.81475 0.4037 0.0
H445 H 0.44108 0.85323 0.27158 0.0
H446 H 0.41583 0.85303 0.265 0.0
H447 H 0.42894 0.8312 0.2621 0.0
C448 C 0.38403 0.80705 0.25265 0.0
C449 C 0.38852 0.78772 0.25664 0.0
C450 C 0.39113 0.82021 0.28265 0.0
C451 C 0.40324 0.81433 0.31645 0.0
C452 C 0.40672 0.7949 0.32205 0.0
H453 H 0.49456 0.86782 0.44846 0.0
H454 H 0.4727 0.8545 0.39498 0.0
C455 C 0.39934 0.78172 0.29264 0.0
C456 C 0.41311 0.82825 0.34489 0.0
H457 H 0.44431 0.86528 0.34302 0.0
C458 C 0.41201 0.82589 0.39043 0.0
C459 C 0.425 0.8426 0.32752 0.0
C460 C 0.42798 0.8451 0.27891 0.0
C461 C 0.42282 0.83705 0.41901 0.0
C462 C 0.43443 0.85162 0.40169 0.0
C463 C 0.43517 0.85432 0.35623 0.0
C464 C 0.44731 0.86286 0.42994 0.0
C465 C 0.42251 0.83233 0.46723 0.0
C466 C 0.44031 0.87303 0.466 0.0
C467 C 0.45281 0.88048 0.49697 0.0
C468 C 0.47251 0.87823 0.49189 0.0
C469 C 0.47947 0.86982 0.45338 0.0
C470 C 0.46697 0.86211 0.42281 0.0
H471 H 0.4167 0.81796 0.47348 0.0
H472 H 0.43697 0.83306 0.4814 0.0
H473 H 0.41338 0.84268 0.48467 0.0
H474 H 0.42519 0.87433 0.4714 0.0
H475 H 0.44702 0.88708 0.52609 0.0
H476 H 0.3803 0.19732 0.79474 0.0
H477 H 0.39427 0.18284 0.72981 0.0
H478 H 0.35402 0.21205 0.64816 0.0
H479 H 0.33978 0.22673 0.71332 0.0
H480 H 0.36486 0.17003 0.62654 0.0
H481 H 0.42428 0.22107 0.64488 0.0
H482 H 0.41748 0.20868 0.69387 0.0
H483 H 0.40119 0.22496 0.66901 0.0
C484 C 0.37413 0.20042 0.76311 0.0
C485 C 0.35909 0.21339 0.75914 0.0
C486 C 0.38215 0.19212 0.72607 0.0
C487 C 0.37533 0.19663 0.68434 0.0
C488 C 0.35947 0.20848 0.68023 0.0
H489 H 0.44971 0.17683 0.45907 0.0
H490 H 0.42556 0.19102 0.50653 0.0
C491 C 0.35135 0.2168 0.71746 0.0
C492 C 0.38607 0.19031 0.64542 0.0
H493 H 0.4291 0.19551 0.59571 0.0
C494 C 0.3788 0.17572 0.61931 0.0
C495 C 0.40411 0.19799 0.63585 0.0
C496 C 0.41224 0.21415 0.66208 0.0
C497 C 0.38959 0.16797 0.58495 0.0
C498 C 0.40812 0.17491 0.57708 0.0
C499 C 0.41494 0.19014 0.60191 0.0
C500 C 0.42126 0.16582 0.54552 0.0
C501 C 0.38116 0.15231 0.5577 0.0
C502 C 0.42689 0.14698 0.55183 0.0
C503 C 0.44073 0.13886 0.525 0.0
C504 C 0.44931 0.14946 0.49136 0.0
C505 C 0.4434 0.16826 0.48462 0.0
C506 C 0.42957 0.17639 0.51164 0.0
H507 H 0.36542 0.15267 0.5586 0.0
H508 H 0.38594 0.15328 0.52312 0.0
H509 H 0.38581 0.13845 0.571 0.0
H510 H 0.421 0.1387 0.57842 0.0
H511 H 0.44491 0.12436 0.53117 0.0
H512 H 0.81909 0.7453 0.20877 0.0
H513 H 0.82903 0.76425 0.14606 0.0
H514 H 0.8403 0.8115 0.23115 0.0
H515 H 0.83041 0.79276 0.29424 0.0
H516 H 0.82663 0.81823 0.13162 0.0
H517 H 0.89013 0.77333 0.16388 0.0
H518 H 0.86748 0.76169 0.16037 0.0
H519 H 0.87219 0.77749 0.20494 0.0
C520 C 0.82284 0.75998 0.21412 0.0
C521 C 0.82452 0.76729 0.25681 0.0
C522 C 0.82854 0.77079 0.17811 0.0
C523 C 0.83575 0.78908 0.18426 0.0
C524 C 0.83486 0.79734 0.22589 0.0
H525 H 0.90799 0.86593 0.04001 0.0
H526 H 0.88395 0.85186 0.0876 0.0
C527 C 0.82917 0.78656 0.26196 0.0
C528 C 0.84776 0.7978 0.15009 0.0
H529 H 0.8922 0.79506 0.1062 0.0
C530 C 0.84093 0.81317 0.12576 0.0
C531 C 0.86645 0.79118 0.14299 0.0
C532 C 0.87466 0.77509 0.16947 0.0
C533 C 0.85234 0.82201 0.09393 0.0
C534 C 0.87109 0.81543 0.08701 0.0
C535 C 0.8778 0.8 0.11135 0.0
C536 C 0.88433 0.82453 0.05565 0.0
C537 C 0.8442 0.83814 0.06768 0.0
C538 C 0.89277 0.81376 0.02226 0.0
C539 C 0.90668 0.82169 0.99527 0.0
C540 C 0.91253 0.84054 0.00129 0.0
C541 C 0.90381 0.85139 0.03435 0.0
C542 C 0.88992 0.84342 0.06137 0.0
H543 H 0.82845 0.83798 0.06807 0.0
H544 H 0.84895 0.85175 0.08208 0.0
H545 H 0.84916 0.8376 0.03318 0.0
H546 H 0.88877 0.7991 0.0175 0.0
H547 H 0.91304 0.81293 0.97011 0.0
H548 H 0.89068 0.21583 0.75838 0.0
H549 H 0.90775 0.20002 0.81742 0.0
H550 H 0.96087 0.2116 0.75243 0.0
H551 H 0.94382 0.2268 0.69234 0.0
H552 H 0.96048 0.17672 0.78197 0.0
H553 H 0.93648 0.22403 0.91525 0.0
H554 H 0.91688 0.21344 0.8872 0.0
H555 H 0.93243 0.22938 0.85834 0.0
C556 C 0.906 0.21505 0.75668 0.0
C557 C 0.91591 0.22265 0.72077 0.0
C558 C 0.91576 0.20614 0.79066 0.0
C559 C 0.93563 0.20502 0.78995 0.0
C560 C 0.94554 0.2124 0.75385 0.0
H561 H 0.0033 0.17392 0.01716 0.0
H562 H 0.98715 0.19085 0.95823 0.0
C563 C 0.93577 0.22107 0.71951 0.0
C564 C 0.94605 0.19566 0.82614 0.0
H565 H 0.95118 0.19505 0.9372 0.0
C566 C 0.95855 0.18083 0.81589 0.0
C567 C 0.94383 0.20124 0.87036 0.0
C568 C 0.93184 0.21803 0.88342 0.0
C569 C 0.96856 0.17116 0.84862 0.0
C570 C 0.96547 0.176 0.89304 0.0
C571 C 0.95331 0.19112 0.90323 0.0
C572 C 0.97486 0.16571 0.92937 0.0
C573 C 0.98262 0.15614 0.83508 0.0
C574 C 0.97299 0.14599 0.93337 0.0
C575 C 0.98244 0.13625 0.9666 0.0
C576 C 0.99355 0.14611 0.99717 0.0
C577 C 0.99478 0.16593 0.9942 0.0
C578 C 0.98559 0.17562 0.96049 0.0
H579 H 0.98768 0.15838 0.80101 0.0
H580 H 0.9951 0.15592 0.85713 0.0
H581 H 0.97565 0.14207 0.83638 0.0
H582 H 0.9643 0.1381 0.91064 0.0
H583 H 0.98105 0.121 0.96835 0.0
H584 H 0.5819 0.1905 0.81345 0.0
H585 H 0.57451 0.16531 0.76196 0.0
H586 H 0.62512 0.17823 0.68834 0.0
H587 H 0.63252 0.20386 0.73949 0.0
H588 H 0.59407 0.1766 0.63736 0.0
H589 H 0.59564 0.11291 0.74212 0.0
H590 H 0.58086 0.13103 0.76509 0.0
H591 H 0.60592 0.13516 0.75888 0.0
C592 C 0.59163 0.1879 0.78664 0.0
C593 C 0.60778 0.19929 0.78056 0.0
C594 C 0.58747 0.17331 0.75746 0.0
C595 C 0.59946 0.1696 0.7218 0.0
C596 C 0.61578 0.18071 0.71594 0.0
H597 H 0.56957 0.10374 0.48932 0.0
H598 H 0.58967 0.11593 0.54787 0.0
C599 C 0.61995 0.19539 0.74513 0.0
C600 C 0.59373 0.15556 0.68827 0.0
H601 H 0.57723 0.11042 0.67546 0.0
C602 C 0.59081 0.16201 0.64541 0.0
C603 C 0.58944 0.13652 0.69889 0.0
C604 C 0.59332 0.12845 0.74367 0.0
C605 C 0.58265 0.15031 0.61356 0.0
C606 C 0.57754 0.13155 0.62474 0.0
C607 C 0.58118 0.1248 0.66705 0.0
C608 C 0.56666 0.11963 0.59394 0.0
C609 C 0.57853 0.15848 0.5689 0.0
C610 C 0.54733 0.11645 0.60169 0.0
C611 C 0.53576 0.10943 0.56838 0.0
C612 C 0.54339 0.10553 0.52675 0.0
C613 C 0.56316 0.10677 0.52079 0.0
C614 C 0.5747 0.11381 0.55416 0.0
H615 H 0.58076 0.17404 0.56785 0.0
H616 H 0.58807 0.15187 0.54435 0.0
H617 H 0.56369 0.15542 0.55914 0.0
H618 H 0.5409 0.12075 0.63235 0.0
H619 H 0.52065 0.10847 0.57429 0.0
H620 H 0.57217 0.89044 0.48796 0.0
H621 H 0.59851 0.88762 0.43615 0.0
H622 H 0.60987 0.83117 0.48274 0.0
H623 H 0.58364 0.83382 0.53488 0.0
H624 H 0.64364 0.85561 0.46533 0.0
H625 H 0.5918 0.85171 0.32829 0.0
H626 H 0.58975 0.87152 0.36493 0.0
H627 H 0.58487 0.84808 0.38454 0.0
C628 C 0.58037 0.87748 0.48761 0.0
C629 C 0.57561 0.86226 0.51529 0.0
C630 C 0.59543 0.87592 0.45796 0.0
C631 C 0.606 0.85914 0.45542 0.0
C632 C 0.60187 0.84425 0.48428 0.0
H633 H 0.68033 0.79656 0.29865 0.0
H634 H 0.66785 0.81455 0.35986 0.0
C635 C 0.5868 0.84577 0.5139 0.0
C636 C 0.62023 0.85637 0.42028 0.0
H637 H 0.6238 0.84803 0.31078 0.0
C638 C 0.63941 0.85417 0.4314 0.0
C639 C 0.61465 0.85465 0.37609 0.0
C640 C 0.59415 0.85648 0.36249 0.0
C641 C 0.65313 0.84983 0.39943 0.0
C642 C 0.64739 0.8472 0.35548 0.0
C643 C 0.6283 0.85018 0.34432 0.0
C644 C 0.66006 0.83907 0.32134 0.0
C645 C 0.67356 0.848 0.4132 0.0
C646 C 0.66069 0.84709 0.27928 0.0
C647 C 0.66756 0.83662 0.24377 0.0
C648 C 0.6739 0.81791 0.24973 0.0
C649 C 0.67547 0.81087 0.29267 0.0
C650 C 0.6684 0.82125 0.32804 0.0
H651 H 0.67671 0.85746 0.44128 0.0
H652 H 0.67625 0.83325 0.42401 0.0
H653 H 0.68342 0.85141 0.38595 0.0
H654 H 0.65444 0.86086 0.27331 0.0
H655 H 0.6663 0.84258 0.21125 0.0
H656 H 0.60523 0.72605 0.24333 0.0
H657 H 0.59282 0.71079 0.30899 0.0
H658 H 0.645 0.72274 0.37688 0.0
H659 H 0.65777 0.73771 0.31086 0.0
H660 H 0.63316 0.68687 0.39127 0.0
H661 H 0.5735 0.73626 0.41868 0.0
H662 H 0.57306 0.7265 0.36454 0.0
H663 H 0.59254 0.74136 0.38093 0.0
C664 C 0.61408 0.72551 0.27222 0.0
C665 C 0.63247 0.73321 0.27186 0.0
C666 C 0.6069 0.7169 0.30986 0.0
C667 C 0.61781 0.71602 0.34815 0.0
C668 C 0.63627 0.72342 0.3478 0.0
H669 H 0.5597 0.67771 0.58616 0.0
H670 H 0.57948 0.69661 0.53682 0.0
C671 C 0.64354 0.73196 0.31001 0.0
C672 C 0.61007 0.7068 0.38795 0.0
H673 H 0.57137 0.70616 0.45508 0.0
C674 C 0.61977 0.69124 0.40564 0.0
C675 C 0.59285 0.71277 0.40737 0.0
C676 C 0.5825 0.73027 0.3922 0.0
C677 C 0.61219 0.68086 0.44073 0.0
C678 C 0.59421 0.68592 0.45781 0.0
C679 C 0.58503 0.7021 0.44165 0.0
C680 C 0.58404 0.67399 0.49019 0.0
C681 C 0.62348 0.66452 0.45892 0.0
C682 C 0.58011 0.65498 0.48054 0.0
C683 C 0.56896 0.64412 0.50875 0.0
C684 C 0.56121 0.65213 0.54696 0.0
C685 C 0.56544 0.67109 0.55703 0.0
C686 C 0.57674 0.68192 0.52886 0.0
H687 H 0.63893 0.66671 0.45388 0.0
H688 H 0.62075 0.66253 0.49441 0.0
H689 H 0.61946 0.65135 0.44149 0.0
H690 H 0.58511 0.64868 0.45034 0.0
H691 H 0.5659 0.62962 0.49973 0.0
H692 H 0.62923 0.28558 0.71993 0.0
H693 H 0.61517 0.30707 0.66637 0.0
H694 H 0.60418 0.34774 0.76856 0.0
H695 H 0.6187 0.32672 0.82187 0.0
H696 H 0.57888 0.31593 0.66965 0.0
H697 H 0.61997 0.38255 0.67165 0.0
H698 H 0.62893 0.36083 0.69491 0.0
H699 H 0.61286 0.37556 0.72565 0.0
C700 C 0.62441 0.29936 0.73077 0.0
C701 C 0.62499 0.30433 0.7753 0.0
C702 C 0.61631 0.31162 0.70011 0.0
C703 C 0.60863 0.32907 0.71334 0.0
C704 C 0.61033 0.33457 0.75727 0.0
H705 H 0.50991 0.37843 0.59093 0.0
H706 H 0.53295 0.36682 0.64424 0.0
C707 C 0.61859 0.32242 0.78786 0.0
C708 C 0.59654 0.34015 0.68292 0.0
H709 H 0.5883 0.38453 0.64256 0.0
C710 C 0.5811 0.33089 0.66343 0.0
C711 C 0.59942 0.35966 0.67461 0.0
C712 C 0.61631 0.37018 0.69247 0.0
C713 C 0.56829 0.34061 0.6366 0.0
C714 C 0.57062 0.3603 0.63005 0.0
C715 C 0.58631 0.36952 0.64852 0.0
C716 C 0.55731 0.37114 0.60223 0.0
C717 C 0.55251 0.32962 0.61497 0.0
C718 C 0.56355 0.37865 0.56229 0.0
C719 C 0.55044 0.38546 0.53189 0.0
C720 C 0.53086 0.38481 0.54091 0.0
C721 C 0.52485 0.37901 0.58273 0.0
C722 C 0.53799 0.37223 0.61315 0.0
H723 H 0.55544 0.31417 0.61454 0.0
H724 H 0.53912 0.33193 0.63337 0.0
H725 H 0.55031 0.33445 0.58079 0.0
H726 H 0.57842 0.3781 0.55343 0.0
H727 H 0.55561 0.39002 0.50019 0.0
H728 H 0.94429 0.34453 0.03067 0.0
H729 H 0.91794 0.34142 0.97951 0.0
H730 H 0.95019 0.37093 0.88082 0.0
H731 H 0.9766 0.37448 0.93227 0.0
H732 H 0.90794 0.37772 0.88145 0.0
H733 H 0.93027 0.30214 0.88094 0.0
H734 H 0.925 0.31191 0.93385 0.0
H735 H 0.94491 0.32069 0.9032 0.0
C736 C 0.94564 0.35073 0.99839 0.0
C737 C 0.96264 0.35941 0.98511 0.0
C738 C 0.93054 0.34902 0.96932 0.0
C739 C 0.93228 0.3557 0.92633 0.0
C740 C 0.94862 0.3657 0.91396 0.0
H741 H 0.88545 0.33152 0.67843 0.0
H742 H 0.89566 0.34956 0.74197 0.0
C743 C 0.96371 0.36764 0.94329 0.0
C744 C 0.91852 0.34956 0.89286 0.0
H745 H 0.90402 0.31016 0.83819 0.0
C746 C 0.90692 0.36295 0.87206 0.0
C747 C 0.91738 0.33029 0.88065 0.0
C748 C 0.93013 0.3154 0.90046 0.0
C749 C 0.89407 0.35748 0.83925 0.0
C750 C 0.89306 0.33821 0.82689 0.0
C751 C 0.90455 0.32488 0.8482 0.0
C752 C 0.8818 0.33137 0.78922 0.0
C753 C 0.88171 0.3723 0.81818 0.0
C754 C 0.86987 0.31562 0.79444 0.0
C755 C 0.86428 0.30503 0.75812 0.0
C756 C 0.87049 0.3101 0.71598 0.0
C757 C 0.88046 0.32718 0.71045 0.0
C758 C 0.88623 0.33764 0.74686 0.0
H759 H 0.87952 0.3846 0.84026 0.0
H760 H 0.88877 0.37752 0.78802 0.0
H761 H 0.86768 0.3664 0.80903 0.0
H762 H 0.86626 0.31055 0.82687 0.0
H763 H 0.8564 0.29207 0.76344 0.0
H764 H 0.85155 0.69124 0.1935 0.0
H765 H 0.86669 0.67842 0.12748 0.0
H766 H 0.90921 0.65143 0.20707 0.0
H767 H 0.89445 0.66443 0.273 0.0
H768 H 0.90874 0.68818 0.11463 0.0
H769 H 0.89203 0.61138 0.10886 0.0
H770 H 0.87646 0.62858 0.13409 0.0
H771 H 0.89754 0.62105 0.16184 0.0
C772 C 0.86379 0.68211 0.197 0.0
C773 C 0.8719 0.67891 0.23837 0.0
C774 C 0.87243 0.67486 0.15928 0.0
C775 C 0.88898 0.66394 0.16257 0.0
C776 C 0.89633 0.65967 0.20399 0.0
H777 H 0.98261 0.61843 0.02736 0.0
H778 H 0.95553 0.62618 0.07364 0.0
C779 C 0.88792 0.66716 0.24157 0.0
C780 C 0.90022 0.65921 0.12323 0.0
H781 H 0.91814 0.6219 0.06573 0.0
C782 C 0.91057 0.67376 0.10317 0.0
C783 C 0.90261 0.64038 0.10895 0.0
C784 C 0.8915 0.62439 0.12924 0.0
C785 C 0.9242 0.66985 0.07088 0.0
C786 C 0.92707 0.65087 0.05736 0.0
C787 C 0.91596 0.63643 0.07605 0.0
C788 C 0.94274 0.64549 0.02728 0.0
C789 C 0.93621 0.68594 0.0538 0.0
C790 C 0.94445 0.65351 0.98537 0.0
C791 C 0.96019 0.64936 0.95903 0.0
C792 C 0.97425 0.63678 0.97377 0.0
C793 C 0.97206 0.6282 0.01498 0.0
C794 C 0.95653 0.63257 0.04148 0.0
H795 H 0.93528 0.69866 0.07509 0.0
H796 H 0.95133 0.68168 0.05123 0.0
H797 H 0.93119 0.69001 0.02074 0.0
H798 H 0.93374 0.66313 0.9732 0.0
H799 H 0.96133 0.656 0.92719 0.0
H800 H 0.41802 0.33429 0.47881 0.0
H801 H 0.39065 0.32748 0.5252 0.0
H802 H 0.40414 0.3756 0.60618 0.0
H803 H 0.43133 0.38282 0.55922 0.0
H804 H 0.39356 0.31804 0.60935 0.0
H805 H 0.34722 0.38109 0.59624 0.0
H806 H 0.36625 0.37643 0.55806 0.0
H807 H 0.37121 0.38683 0.61054 0.0
C808 C 0.41503 0.34362 0.5061 0.0
C809 C 0.42695 0.35904 0.51546 0.0
C810 C 0.39931 0.33974 0.53249 0.0
C811 C 0.39517 0.35115 0.56888 0.0
C812 C 0.40674 0.36687 0.57767 0.0
H813 H 0.34044 0.33147 0.81106 0.0
H814 H 0.35264 0.34749 0.74622 0.0
C815 C 0.4224 0.37087 0.551 0.0
C816 C 0.38026 0.34519 0.60039 0.0
H817 H 0.34088 0.36001 0.65631 0.0
C818 C 0.38187 0.32712 0.61901 0.0
C819 C 0.3651 0.35711 0.61331 0.0
C820 C 0.3622 0.37638 0.59319 0.0
C821 C 0.36914 0.32081 0.65105 0.0
C822 C 0.35411 0.33279 0.66443 0.0
C823 C 0.3523 0.35081 0.6456 0.0
C824 C 0.34134 0.32705 0.70059 0.0
C825 C 0.37233 0.30162 0.67161 0.0
C826 C 0.32962 0.31114 0.69603 0.0
C827 C 0.32267 0.30183 0.73312 0.0
C828 C 0.32743 0.30832 0.77525 0.0
C829 C 0.33675 0.32587 0.77921 0.0
C830 C 0.34376 0.33511 0.7421 0.0
H831 H 0.38646 0.29566 0.6632 0.0
H832 H 0.37114 0.30249 0.7078 0.0
H833 H 0.36135 0.29162 0.65979 0.0
H834 H 0.32737 0.30488 0.66409 0.0
H835 H 0.31528 0.28853 0.72873 0.0
H836 H 0.50538 0.59447 0.455 0.0
H837 H 0.49149 0.60547 0.38632 0.0
H838 H 0.43786 0.61405 0.45131 0.0
H839 H 0.45145 0.60273 0.51982 0.0
H840 H 0.43448 0.60331 0.36145 0.0
H841 H 0.48431 0.66337 0.38696 0.0
H842 H 0.49516 0.64045 0.38242 0.0
H843 H 0.48005 0.64567 0.4283 0.0
C844 C 0.49045 0.59806 0.45437 0.0
C845 C 0.47964 0.59813 0.49314 0.0
C846 C 0.48257 0.60444 0.41512 0.0
C847 C 0.46384 0.61113 0.41417 0.0
C848 C 0.45241 0.60912 0.4515 0.0
H849 H 0.39313 0.68706 0.27051 0.0
H850 H 0.40634 0.6623 0.31707 0.0
C851 C 0.46022 0.60259 0.49069 0.0
C852 C 0.45701 0.6227 0.37697 0.0
H853 H 0.46373 0.66545 0.32716 0.0
C854 C 0.44096 0.61681 0.35358 0.0
C855 C 0.46542 0.64041 0.36711 0.0
C856 C 0.48208 0.648 0.39266 0.0
C857 C 0.43304 0.62823 0.32067 0.0
C858 C 0.44124 0.64607 0.31149 0.0
C859 C 0.45755 0.65172 0.33413 0.0
C860 C 0.43257 0.65974 0.28067 0.0
C861 C 0.41592 0.62115 0.29613 0.0
C862 C 0.44305 0.66674 0.2451 0.0
C863 C 0.4356 0.68103 0.21854 0.0
C864 C 0.41758 0.68873 0.22734 0.0
C865 C 0.40704 0.68148 0.26272 0.0
C866 C 0.41449 0.66717 0.28917 0.0
H867 H 0.41479 0.60548 0.2977 0.0
H868 H 0.40293 0.62722 0.31111 0.0
H869 H 0.41643 0.62556 0.26126 0.0
H870 H 0.45712 0.66132 0.23827 0.0
H871 H 0.44411 0.68625 0.19157 0.0
H872 H 0.12806 0.7322 0.2317 0.0
H873 H 0.12292 0.70456 0.18492 0.0
H874 H 0.08451 0.6812 0.28062 0.0
H875 H 0.08939 0.70877 0.3275 0.0
H876 H 0.1267 0.66355 0.20177 0.0
H877 H 0.05289 0.6869 0.16646 0.0
H878 H 0.07035 0.70253 0.18992 0.0
H879 H 0.0591 0.68486 0.22327 0.0
C880 C 0.11862 0.72114 0.24301 0.0
C881 C 0.10895 0.72285 0.28315 0.0
C882 C 0.11578 0.70531 0.2163 0.0
C883 C 0.1032 0.69097 0.22919 0.0
C884 C 0.09412 0.69225 0.26993 0.0
H885 H 0.0505 0.60679 0.0628 0.0
H886 H 0.06242 0.62111 0.13005 0.0
C887 C 0.09693 0.70804 0.29664 0.0
C888 C 0.09859 0.67538 0.19869 0.0
H889 H 0.06312 0.65873 0.13367 0.0
C890 C 0.11277 0.66235 0.18705 0.0
C891 C 0.0804 0.67386 0.17975 0.0
C892 C 0.0648 0.68782 0.19009 0.0
C893 C 0.10924 0.64789 0.15651 0.0
C894 C 0.09119 0.64672 0.13661 0.0
C895 C 0.07691 0.65949 0.14921 0.0
C896 C 0.08706 0.63378 0.09957 0.0
C897 C 0.12486 0.63404 0.14591 0.0
C898 C 0.09749 0.63527 0.06055 0.0
C899 C 0.09081 0.62693 0.0221 0.0
C900 C 0.07337 0.61726 0.0218 0.0
C901 C 0.0639 0.61427 0.06177 0.0
C902 C 0.07068 0.62248 0.10029 0.0
H903 H 0.13479 0.63245 0.17386 0.0
H904 H 0.11909 0.61991 0.13733 0.0
H905 H 0.13313 0.63943 0.1176 0.0
H906 H 0.10996 0.64417 0.05886 0.0
H907 H 0.09849 0.62956 0.99196 0.0
H908 H 0.1639 0.27932 0.77187 0.0
H909 H 0.15175 0.30182 0.82592 0.0
H910 H 0.14301 0.34316 0.72435 0.0
H911 H 0.15519 0.3209 0.66997 0.0
H912 H 0.15808 0.34925 0.83903 0.0
H913 H 0.08926 0.31943 0.78134 0.0
H914 H 0.11074 0.30557 0.77905 0.0
H915 H 0.10764 0.32513 0.74244 0.0
C916 C 0.16009 0.29342 0.76114 0.0
C917 C 0.16021 0.29816 0.71641 0.0
C918 C 0.15315 0.30627 0.79214 0.0
C919 C 0.14637 0.32402 0.7789 0.0
C920 C 0.14822 0.3295 0.73507 0.0
H921 H 0.05505 0.37886 0.92368 0.0
H922 H 0.07836 0.37385 0.86528 0.0
C923 C 0.15515 0.3167 0.70405 0.0
C924 C 0.13438 0.33523 0.80898 0.0
H925 H 0.08831 0.34021 0.84067 0.0
C926 C 0.1428 0.34749 0.83926 0.0
C927 C 0.11448 0.33305 0.80859 0.0
C928 C 0.10485 0.3201 0.77626 0.0
C929 C 0.13174 0.35733 0.87018 0.0
C930 C 0.11186 0.35436 0.87137 0.0
C931 C 0.10349 0.3426 0.83979 0.0
C932 C 0.0996 0.36141 0.90753 0.0
C933 C 0.14151 0.37074 0.90119 0.0
C934 C 0.10398 0.3567 0.95093 0.0
C935 C 0.09083 0.35979 0.98433 0.0
C936 C 0.07277 0.36726 0.97502 0.0
C937 C 0.06879 0.37304 0.93199 0.0
C938 C 0.0821 0.37015 0.89856 0.0
H939 H 0.15426 0.37712 0.88567 0.0
H940 H 0.13191 0.38229 0.912 0.0
H941 H 0.14634 0.36277 0.93041 0.0
H942 H 0.11708 0.34948 0.95875 0.0
H943 H 0.09445 0.35514 0.01704 0.0
H944 H 0.0527 0.30679 0.9712 0.0
H945 H 0.06768 0.27831 0.94213 0.0
H946 H 0.02892 0.24396 0.01743 0.0
H947 H 0.01368 0.27247 0.04594 0.0
H948 H 0.08557 0.25884 0.00332 0.0
H949 H 0.03951 0.20921 0.9153 0.0
H950 H 0.03443 0.2343 0.91777 0.0
H951 H 0.02652 0.21863 0.96076 0.0
C952 C 0.04691 0.29311 0.98016 0.0
C953 C 0.03236 0.29169 0.01157 0.0
C954 C 0.05539 0.27689 0.96321 0.0
C955 C 0.04949 0.25902 0.97761 0.0
C956 C 0.03351 0.25759 0.00514 0.0
H957 H 0.06644 0.18645 0.13721 0.0
H958 H 0.07425 0.21324 0.09033 0.0
C959 C 0.02488 0.27388 0.02183 0.0
C960 C 0.06264 0.24279 0.97464 0.0
H961 H 0.06034 0.19479 0.97286 0.0
C962 C 0.08044 0.24485 0.99478 0.0
C963 C 0.05635 0.22459 0.96248 0.0
C964 C 0.03822 0.22163 0.93741 0.0
C965 C 0.09036 0.22904 0.01006 0.0
C966 C 0.08224 0.21099 0.00482 0.0
C967 C 0.06634 0.20877 0.97767 0.0
C968 C 0.08552 0.19608 0.03754 0.0
C969 C 0.10815 0.23186 0.03642 0.0
C970 C 0.09052 0.17776 0.02453 0.0
C971 C 0.08647 0.16245 0.05188 0.0
C972 C 0.07681 0.1654 0.09169 0.0
C973 C 0.0739 0.18389 0.10674 0.0
C974 C 0.07843 0.19917 0.07996 0.0
H975 H 0.11604 0.24455 0.02503 0.0
H976 H 0.10427 0.23411 0.07126 0.0
H977 H 0.11755 0.21926 0.03432 0.0
H978 H 0.09586 0.17516 0.99183 0.0
H979 H 0.08875 0.14827 0.0394 0.0
H980 H 0.91015 0.77854 0.38144 0.0
H981 H 0.93775 0.79605 0.35612 0.0
H982 H 0.93147 0.77147 0.22735 0.0
H983 H 0.90466 0.75268 0.25435 0.0
H984 H 0.9639 0.7655 0.24889 0.0
H985 H 0.95573 0.8397 0.29112 0.0
H986 H 0.94845 0.82764 0.33968 0.0
H987 H 0.93534 0.82424 0.2894 0.0
C988 C 0.91455 0.77719 0.34759 0.0
C989 C 0.90579 0.76412 0.31997 0.0
C990 C 0.93008 0.78752 0.33269 0.0
C991 C 0.93664 0.78543 0.28939 0.0
C992 C 0.92675 0.77337 0.26081 0.0
H993 H 0.05532 0.81975 0.32048 0.0
H994 H 0.0244 0.82237 0.28443 0.0
C995 C 0.91159 0.76255 0.27623 0.0
C996 C 0.95591 0.79227 0.27808 0.0
H997 H 0.9874 0.82487 0.31606 0.0
C998 C 0.96888 0.77889 0.2618 0.0
C999 C 0.96276 0.81 0.29274 0.0
C1000 C 0.94968 0.82622 0.30362 0.0
C1001 C 0.98836 0.78143 0.26726 0.0
C1002 C 0.99482 0.79735 0.29076 0.0
C1003 C 0.98226 0.81221 0.29993 0.0
C1004 C 0.0132 0.79678 0.31345 0.0
C1005 C 0.0017 0.76618 0.2515 0.0
C1006 C 0.01669 0.78201 0.34309 0.0
C1007 C 0.03418 0.78043 0.36358 0.0
C1008 C 0.04841 0.79381 0.35536 0.0
C1009 C 0.04454 0.80926 0.32759 0.0
C1010 C 0.02699 0.81073 0.30671 0.0
H1011 H 0.99635 0.75962 0.22088 0.0
H1012 H 0.01616 0.77184 0.24547 0.0
H1013 H 0.0026 0.75485 0.27659 0.0
H1014 H 0.00592 0.77146 0.3498 0.0
H1015 H 0.0367 0.76851 0.38509 0.0
H1016 H 0.47919 0.68853 0.66269 0.0
H1017 H 0.46564 0.71668 0.62905 0.0
H1018 H 0.44155 0.6825 0.52624 0.0
H1019 H 0.45478 0.6541 0.5604 0.0
H1020 H 0.46878 0.70894 0.4985 0.0
H1021 H 0.41572 0.7444 0.60202 0.0
H1022 H 0.43384 0.7342 0.63569 0.0
H1023 H 0.41919 0.71899 0.60257 0.0
C1024 C 0.4704 0.68694 0.63389 0.0
C1025 C 0.46819 0.66925 0.61388 0.0
C1026 C 0.46247 0.70298 0.61491 0.0
C1027 C 0.45244 0.7016 0.57537 0.0
C1028 C 0.44899 0.68377 0.55707 0.0
H1029 H 0.46573 0.81996 0.53385 0.0
H1030 H 0.44942 0.79137 0.51011 0.0
C1031 C 0.45662 0.66761 0.57659 0.0
C1032 C 0.44999 0.71895 0.54934 0.0
H1033 H 0.44115 0.76515 0.57175 0.0
C1034 C 0.46202 0.72123 0.51306 0.0
C1035 C 0.44074 0.73485 0.56729 0.0
C1036 C 0.42647 0.73292 0.60377 0.0
C1037 C 0.46779 0.7393 0.49986 0.0
C1038 C 0.4613 0.75514 0.52368 0.0
C1039 C 0.44656 0.75292 0.55425 0.0
C1040 C 0.4726 0.77264 0.5263 0.0
C1041 C 0.48224 0.74117 0.46373 0.0
C1042 C 0.49126 0.77159 0.54228 0.0
C1043 C 0.50059 0.78786 0.55646 0.0
C1044 C 0.49131 0.80539 0.55519 0.0
C1045 C 0.47315 0.80657 0.53611 0.0
C1046 C 0.46384 0.7903 0.52202 0.0
H1047 H 0.47994 0.73019 0.43828 0.0
H1048 H 0.48167 0.75539 0.44825 0.0
H1049 H 0.49664 0.73898 0.47741 0.0
H1050 H 0.49811 0.75801 0.54687 0.0
H1051 H 0.51458 0.78653 0.5707 0.0
H1052 H 0.54288 0.25352 0.85366 0.0
H1053 H 0.51307 0.26785 0.83085 0.0
H1054 H 0.53605 0.32351 0.85406 0.0
H1055 H 0.56603 0.30932 0.87718 0.0
H1056 H 0.5017 0.31671 0.89526 0.0
H1057 H 0.49673 0.29725 0.72127 0.0
H1058 H 0.50448 0.27736 0.753 0.0
H1059 H 0.51908 0.29827 0.75014 0.0
C1060 C 0.54166 0.2688 0.85379 0.0
C1061 C 0.55677 0.28025 0.86749 0.0
C1062 C 0.52474 0.27699 0.84004 0.0
C1063 C 0.52263 0.29674 0.83963 0.0
C1064 C 0.53761 0.30826 0.85336 0.0
H1065 H 0.40006 0.31505 0.85755 0.0
H1066 H 0.43133 0.32788 0.83861 0.0
C1067 C 0.55462 0.30009 0.86691 0.0
C1068 C 0.5038 0.30481 0.8306 0.0
H1069 H 0.46655 0.29667 0.76282 0.0
C1070 C 0.49405 0.31315 0.86563 0.0
C1071 C 0.49407 0.30056 0.79153 0.0
C1072 C 0.50424 0.29306 0.75169 0.0
C1073 C 0.47424 0.31444 0.86525 0.0
C1074 C 0.46428 0.30735 0.82868 0.0
C1075 C 0.47428 0.30182 0.79107 0.0
C1076 C 0.44474 0.30041 0.83383 0.0
C1077 C 0.46408 0.32104 0.90599 0.0
C1078 C 0.442 0.28079 0.83642 0.0
C1079 C 0.42434 0.27348 0.84725 0.0
C1080 C 0.40905 0.28564 0.85578 0.0
C1081 C 0.41164 0.30534 0.8517 0.0
C1082 C 0.42943 0.31268 0.84071 0.0
H1083 H 0.47405 0.32598 0.93167 0.0
H1084 H 0.45437 0.33287 0.89774 0.0
H1085 H 0.45539 0.30934 0.91966 0.0
H1086 H 0.45374 0.27112 0.83155 0.0
H1087 H 0.42281 0.25822 0.84971 0.0
H1088 H 0.99165 0.79637 0.94927 0.0
H1089 H 0.01569 0.77354 0.97102 0.0
H1090 H 0.05792 0.8177 0.97354 0.0
H1091 H 0.03395 0.84072 0.95162 0.0
H1092 H 0.06697 0.78922 0.91824 0.0
H1093 H 0.04722 0.7578 0.07603 0.0
H1094 H 0.02612 0.76095 0.04431 0.0
H1095 H 0.03983 0.78138 0.06026 0.0
C1096 C 0.00594 0.80132 0.95524 0.0
C1097 C 0.01094 0.82026 0.94794 0.0
C1098 C 0.01963 0.78832 0.96844 0.0
C1099 C 0.03852 0.79404 0.97474 0.0
C1100 C 0.04337 0.8131 0.96951 0.0
H1101 H 0.07782 0.6793 0.95281 0.0
H1102 H 0.08594 0.7111 0.97885 0.0
C1103 C 0.02966 0.82615 0.95651 0.0
C1104 C 0.05331 0.77937 0.97731 0.0
H1105 H 0.05622 0.73458 0.01694 0.0
C1106 C 0.06542 0.77755 0.94105 0.0
C1107 C 0.05192 0.76442 0.00776 0.0
C1108 C 0.04071 0.76638 0.04955 0.0
C1109 C 0.07301 0.7599 0.92996 0.0
C1110 C 0.06822 0.74407 0.95577 0.0
C1111 C 0.05941 0.74673 0.99649 0.0
C1112 C 0.06638 0.72531 0.93554 0.0
C1113 C 0.0839 0.75781 0.88776 0.0
C1114 C 0.05268 0.72295 0.90271 0.0
C1115 C 0.04771 0.70492 0.88852 0.0
C1116 C 0.05652 0.689 0.90666 0.0
C1117 C 0.07089 0.69141 0.93811 0.0
C1118 C 0.07561 0.70949 0.95293 0.0
H1119 H 0.09219 0.77082 0.88059 0.0
H1120 H 0.09366 0.74548 0.88902 0.0
H1121 H 0.07377 0.75564 0.86047 0.0
H1122 H 0.04509 0.73503 0.88968 0.0
H1123 H 0.03666 0.70344 0.8642 0.0
H1124 H 0.5856 0.78104 0.06927 0.0
H1125 H 0.5537 0.79386 0.06398 0.0
H1126 H 0.56921 0.83994 0.14947 0.0
H1127 H 0.60167 0.8272 0.15398 0.0
H1128 H 0.54016 0.81655 0.18083 0.0
H1129 H 0.52359 0.83797 0.01221 0.0
H1130 H 0.53805 0.8171 0.01145 0.0
H1131 H 0.54741 0.83873 0.03408 0.0
C1132 C 0.58235 0.7942 0.08588 0.0
C1133 C 0.59584 0.80307 0.11239 0.0
C1134 C 0.56422 0.80169 0.08235 0.0
C1135 C 0.5592 0.81802 0.10577 0.0
C1136 C 0.57297 0.82752 0.13054 0.0
H1137 H 0.43587 0.80449 0.10311 0.0
H1138 H 0.46459 0.82387 0.10506 0.0
C1139 C 0.59137 0.82021 0.13329 0.0
C1140 C 0.53885 0.822 0.11146 0.0
H1141 H 0.49897 0.81834 0.04957 0.0
C1142 C 0.53098 0.81784 0.15255 0.0
C1143 C 0.52686 0.82401 0.07481 0.0
C1144 C 0.53446 0.82992 0.03076 0.0
C1145 C 0.51192 0.81261 0.15638 0.0
C1146 C 0.50073 0.81163 0.11824 0.0
C1147 C 0.50781 0.81865 0.07856 0.0
C1148 C 0.48329 0.80026 0.11738 0.0
C1149 C 0.50438 0.80645 0.20033 0.0
C1150 C 0.48455 0.78056 0.12254 0.0
C1151 C 0.46828 0.76939 0.12095 0.0
C1152 C 0.4505 0.77782 0.1144 0.0
C1153 C 0.44938 0.79758 0.1085 0.0
C1154 C 0.4657 0.80871 0.10967 0.0
H1155 H 0.51234 0.81322 0.22747 0.0
H1156 H 0.48909 0.80997 0.20371 0.0
H1157 H 0.50599 0.79088 0.20351 0.0
H1158 H 0.49816 0.77382 0.12775 0.0
H1159 H 0.46958 0.75425 0.12568 0.0
H1160 H 0.52671 0.19585 0.37335 0.0
H1161 H 0.54043 0.2243 0.40533 0.0
H1162 H 0.5714 0.1903 0.49808 0.0
H1163 H 0.55797 0.16157 0.46554 0.0
H1164 H 0.54435 0.21642 0.53431 0.0
H1165 H 0.59181 0.25248 0.41799 0.0
H1166 H 0.57248 0.24157 0.38949 0.0
H1167 H 0.58901 0.227 0.41923 0.0
C1168 C 0.53692 0.19441 0.39958 0.0
C1169 C 0.54117 0.17662 0.4172 0.0
C1170 C 0.54491 0.21062 0.41756 0.0
C1171 C 0.55708 0.20931 0.45376 0.0
C1172 C 0.56226 0.19149 0.46981 0.0
H1173 H 0.54263 0.32715 0.4939 0.0
H1174 H 0.56079 0.2995 0.5167 0.0
C1175 C 0.55454 0.17517 0.4512 0.0
C1176 C 0.56062 0.2266 0.47925 0.0
H1177 H 0.56775 0.27285 0.45448 0.0
C1178 C 0.55026 0.22878 0.51819 0.0
C1179 C 0.56883 0.24258 0.45916 0.0
C1180 C 0.58135 0.24074 0.41938 0.0
C1181 C 0.54483 0.24681 0.53249 0.0
C1182 C 0.54995 0.26267 0.50703 0.0
C1183 C 0.56337 0.26059 0.47335 0.0
C1184 C 0.53792 0.27972 0.50581 0.0
C1185 C 0.53194 0.24859 0.57166 0.0
C1186 C 0.51886 0.27777 0.49319 0.0
C1187 C 0.50847 0.29347 0.4795 0.0
C1188 C 0.51705 0.31135 0.47797 0.0
C1189 C 0.53569 0.31347 0.49387 0.0
C1190 C 0.54608 0.29775 0.50742 0.0
H1191 H 0.53556 0.23779 0.59672 0.0
H1192 H 0.53287 0.2629 0.58658 0.0
H1193 H 0.51708 0.24604 0.56139 0.0
H1194 H 0.51242 0.26389 0.49068 0.0
H1195 H 0.49413 0.29141 0.46785 0.0
H1196 H 0.10139 0.30254 0.55049 0.0
H1197 H 0.0718 0.31994 0.5388 0.0
H1198 H 0.04108 0.27656 0.60848 0.0
H1199 H 0.07045 0.25909 0.62034 0.0
H1200 H 0.03961 0.30583 0.49438 0.0
H1201 H 0.0216 0.32636 0.66344 0.0
H1202 H 0.0455 0.32047 0.64666 0.0
H1203 H 0.02896 0.30207 0.66123 0.0
C1204 C 0.08835 0.2968 0.56374 0.0
C1205 C 0.08822 0.27943 0.58644 0.0
C1206 C 0.07152 0.3068 0.55706 0.0
C1207 C 0.05442 0.29972 0.57363 0.0
C1208 C 0.05427 0.28247 0.59641 0.0
H1209 H 0.95385 0.26697 0.52551 0.0
H1210 H 0.98516 0.28054 0.51587 0.0
C1211 C 0.07101 0.27239 0.60277 0.0
C1212 C 0.03625 0.30913 0.56412 0.0
H1213 H 0.99465 0.31869 0.6158 0.0
C1214 C 0.02988 0.30936 0.5207 0.0
C1215 C 0.02381 0.31443 0.59822 0.0
C1216 C 0.03041 0.31604 0.64496 0.0
C1217 C 0.01062 0.31194 0.51133 0.0
C1218 C 0.99766 0.31396 0.54634 0.0
C1219 C 0.00453 0.31672 0.58893 0.0
C1220 C 0.97767 0.3081 0.54192 0.0
C1221 C 0.00411 0.3108 0.46446 0.0
C1222 C 0.96293 0.31912 0.55943 0.0
C1223 C 0.94492 0.31125 0.56535 0.0
C1224 C 0.94159 0.29218 0.55458 0.0
C1225 C 0.95606 0.28162 0.53458 0.0
C1226 C 0.97391 0.28951 0.52834 0.0
H1227 H 0.01468 0.3175 0.44234 0.0
H1228 H 0.00286 0.29572 0.45472 0.0
H1229 H 0.99015 0.3178 0.45984 0.0
H1230 H 0.96564 0.3334 0.57066 0.0
H1231 H 0.93397 0.31973 0.58072 0.0
H1232 H 0.97489 0.0528 0.13083 0.0
H1233 H 0.95268 0.02997 0.09816 0.0
H1234 H 0.9925 0.01953 0.99354 0.0
H1235 H 0.01445 0.04227 0.02546 0.0
H1236 H 0.95423 0.03115 0.96724 0.0
H1237 H 0.95584 0.97091 0.08535 0.0
H1238 H 0.95254 0.99461 0.10575 0.0
H1239 H 0.97493 0.9879 0.0826 0.0
C1240 C 0.97908 0.04514 0.10166 0.0
C1241 C 0.99632 0.04924 0.08056 0.0
C1242 C 0.96636 0.03228 0.08287 0.0
C1243 C 0.97093 0.02332 0.04322 0.0
C1244 C 0.98866 0.02651 0.02387 0.0
H1245 H 0.95632 0.94467 0.85677 0.0
H1246 H 0.95631 0.97611 0.88954 0.0
C1247 C 0.00123 0.03936 0.04232 0.0
C1248 C 0.95725 0.01115 0.02007 0.0
H1249 H 0.94078 0.96596 0.01836 0.0
C1250 C 0.95086 0.01701 0.97871 0.0
C1251 C 0.95273 0.99291 0.03548 0.0
C1252 C 0.95934 0.98604 0.07965 0.0
C1253 C 0.94119 0.00453 0.95095 0.0
C1254 C 0.93812 0.98572 0.96483 0.0
C1255 C 0.94312 0.98042 0.00768 0.0
C1256 C 0.933 0.97041 0.93399 0.0
C1257 C 0.93507 0.01137 0.90645 0.0
C1258 C 0.91909 0.95718 0.94591 0.0
C1259 C 0.91929 0.93913 0.92752 0.0
C1260 C 0.93328 0.93418 0.89681 0.0
C1261 C 0.94527 0.94825 0.88005 0.0
C1262 C 0.94525 0.96627 0.89888 0.0
H1263 H 0.93137 0.02665 0.9074 0.0
H1264 H 0.947 0.00964 0.88303 0.0
H1265 H 0.9227 0.00328 0.89409 0.0
H1266 H 0.90949 0.9601 0.97281 0.0
H1267 H 0.90991 0.92843 0.9409 0.0
H1268 H 0.18475 0.79671 0.29222 0.0
H1269 H 0.21472 0.78734 0.25847 0.0
H1270 H 0.22612 0.75014 0.36712 0.0
H1271 H 0.196 0.75961 0.40149 0.0
H1272 H 0.25893 0.77112 0.33017 0.0
H1273 H 0.21651 0.73272 0.20558 0.0
H1274 H 0.21026 0.75718 0.21287 0.0
H1275 H 0.20659 0.74071 0.25688 0.0
C1276 C 0.19389 0.78693 0.30957 0.0
C1277 C 0.18801 0.77876 0.3493 0.0
C1278 C 0.21091 0.78149 0.29007 0.0
C1279 C 0.2223 0.76769 0.30976 0.0
C1280 C 0.21735 0.7607 0.35129 0.0
H1281 H 0.32596 0.71261 0.22584 0.0
H1282 H 0.296 0.72001 0.2622 0.0
C1283 C 0.20027 0.76624 0.37106 0.0
C1284 C 0.23853 0.75967 0.28525 0.0
H1285 H 0.24964 0.73482 0.1927 0.0
C1286 C 0.25694 0.76306 0.30033 0.0
C1287 C 0.2358 0.74919 0.24626 0.0
C1288 C 0.21623 0.74456 0.2295 0.0
C1289 C 0.2728 0.75667 0.27673 0.0
C1290 C 0.27008 0.74629 0.23755 0.0
C1291 C 0.25164 0.74278 0.22268 0.0
C1292 C 0.28633 0.73912 0.21169 0.0
C1293 C 0.29235 0.76152 0.2933 0.0
C1294 C 0.2901 0.74631 0.16969 0.0
C1295 C 0.30715 0.74185 0.14839 0.0
C1296 C 0.32057 0.73022 0.16908 0.0
C1297 C 0.31592 0.72174 0.20933 0.0
C1298 C 0.2989 0.72607 0.23032 0.0
H1299 H 0.29198 0.77328 0.31743 0.0
H1300 H 0.29853 0.74894 0.30968 0.0
H1301 H 0.30188 0.76559 0.26589 0.0
H1302 H 0.28043 0.75627 0.15462 0.0
H1303 H 0.31044 0.74867 0.11755 0.0
H1304 H 0.44967 0.06189 0.45742 0.0
H1305 H 0.4491 0.03366 0.50355 0.0
H1306 H 0.49665 0.01091 0.43191 0.0
H1307 H 0.4972 0.03917 0.38542 0.0
H1308 H 0.46573 0.98343 0.47543 0.0
H1309 H 0.50132 0.03774 0.57933 0.0
H1310 H 0.47893 0.04357 0.55456 0.0
H1311 H 0.49948 0.04035 0.52075 0.0
C1312 C 0.45926 0.05035 0.44988 0.0
C1313 C 0.47359 0.05265 0.4183 0.0
C1314 C 0.45898 0.03431 0.47637 0.0
C1315 C 0.47305 0.02051 0.47148 0.0
C1316 C 0.48569 0.02152 0.43599 0.0
H1317 H 0.54034 0.94464 0.60166 0.0
H1318 H 0.52632 0.97363 0.57261 0.0
C1319 C 0.48591 0.03757 0.40924 0.0
C1320 C 0.47731 0.00771 0.50815 0.0
H1321 H 0.50106 0.00653 0.60539 0.0
C1322 C 0.4731 0.98844 0.50429 0.0
C1323 C 0.48705 0.01448 0.54546 0.0
C1324 C 0.4921 0.03514 0.55053 0.0
C1325 C 0.47898 0.97556 0.53642 0.0
C1326 C 0.48927 0.98226 0.57303 0.0
C1327 C 0.49292 0.00161 0.57754 0.0
C1328 C 0.49891 0.96893 0.60256 0.0
C1329 C 0.47513 0.95473 0.52991 0.0
C1330 C 0.48852 0.95772 0.63191 0.0
C1331 C 0.49669 0.94136 0.64937 0.0
C1332 C 0.51511 0.93606 0.63682 0.0
C1333 C 0.52618 0.9486 0.61203 0.0
C1334 C 0.51813 0.96505 0.59516 0.0
H1335 H 0.46806 0.95177 0.49819 0.0
H1336 H 0.4886 0.94661 0.53123 0.0
H1337 H 0.46587 0.94949 0.5567 0.0
H1338 H 0.47367 0.96064 0.63798 0.0
H1339 H 0.48782 0.93171 0.66789 0.0
H1340 H 0.29403 0.20059 0.92567 0.0
H1341 H 0.27485 0.177 0.88707 0.0
H1342 H 0.24335 0.22198 0.82528 0.0
H1343 H 0.2625 0.24535 0.86325 0.0
H1344 H 0.22309 0.18618 0.83254 0.0
H1345 H 0.29541 0.17927 0.75981 0.0
H1346 H 0.29114 0.17338 0.81628 0.0
H1347 H 0.29092 0.19771 0.79918 0.0
C1348 C 0.28217 0.20536 0.90607 0.0
C1349 C 0.27981 0.22471 0.89676 0.0
C1350 C 0.27136 0.19186 0.88369 0.0
C1351 C 0.25811 0.19777 0.85238 0.0
C1352 C 0.25361 0.21709 0.84912 0.0
H1353 H 0.23148 0.23448 0.64807 0.0
H1354 H 0.2497 0.21568 0.69975 0.0
C1355 C 0.26449 0.23051 0.87097 0.0
C1356 C 0.25261 0.18553 0.81528 0.0
H1357 H 0.26964 0.17934 0.71178 0.0
C1358 C 0.23323 0.18358 0.80648 0.0
C1359 C 0.26595 0.18186 0.78154 0.0
C1360 C 0.28705 0.18308 0.78937 0.0
C1361 C 0.22676 0.18149 0.76338 0.0
C1362 C 0.24016 0.18128 0.72873 0.0
C1363 C 0.25948 0.17973 0.73847 0.0
C1364 C 0.23495 0.18947 0.68591 0.0
C1365 C 0.2057 0.18246 0.75482 0.0
C1366 C 0.22198 0.18054 0.65803 0.0
C1367 C 0.21179 0.19131 0.62765 0.0
C1368 C 0.2144 0.21103 0.62568 0.0
C1369 C 0.22936 0.21929 0.64887 0.0
C1370 C 0.23968 0.20853 0.67861 0.0
H1371 H 0.19723 0.18185 0.78549 0.0
H1372 H 0.20222 0.19585 0.73754 0.0
H1373 H 0.20136 0.17051 0.73356 0.0
H1374 H 0.2183 0.16581 0.66294 0.0
H1375 H 0.20015 0.1847 0.61035 0.0
H1376 H 0.69604 0.27004 0.8498 0.0
H1377 H 0.72559 0.26347 0.81064 0.0
H1378 H 0.72248 0.20496 0.85025 0.0
H1379 H 0.69283 0.21161 0.89004 0.0
H1380 H 0.76194 0.2448 0.8324 0.0
H1381 H 0.7167 0.20653 0.71204 0.0
H1382 H 0.70687 0.22244 0.75239 0.0
H1383 H 0.71518 0.19949 0.76857 0.0
C1384 C 0.70217 0.25599 0.85184 0.0
C1385 C 0.69243 0.24136 0.87324 0.0
C1386 C 0.71892 0.25222 0.82919 0.0
C1387 C 0.72596 0.23369 0.82704 0.0
C1388 C 0.71711 0.21932 0.85139 0.0
H1389 H 0.82911 0.20896 0.68381 0.0
H1390 H 0.8013 0.20444 0.73049 0.0
C1391 C 0.70039 0.22316 0.87455 0.0
C1392 C 0.7412 0.22935 0.79536 0.0
H1393 H 0.74883 0.21077 0.6935 0.0
C1394 C 0.7592 0.23711 0.80235 0.0
C1395 C 0.73735 0.21963 0.75584 0.0
C1396 C 0.71797 0.2116 0.74632 0.0
C1397 C 0.77347 0.2356 0.77055 0.0
C1398 C 0.7696 0.22599 0.73091 0.0
C1399 C 0.75168 0.21802 0.72406 0.0
C1400 C 0.78405 0.22482 0.696 0.0
C1401 C 0.79244 0.24479 0.77891 0.0
C1402 C 0.78299 0.23682 0.65941 0.0
C1403 C 0.79884 0.23926 0.63225 0.0
C1404 C 0.8158 0.22978 0.64183 0.0
C1405 C 0.81611 0.21636 0.67578 0.0
C1406 C 0.80031 0.21384 0.70257 0.0
H1407 H 0.79213 0.25421 0.80802 0.0
H1408 H 0.80326 0.23365 0.78455 0.0
H1409 H 0.79699 0.25321 0.75004 0.0
H1410 H 0.77048 0.24541 0.65398 0.0
H1411 H 0.79839 0.24987 0.60667 0.0
H1412 H 0.80832 0.6549 0.37539 0.0
H1413 H 0.78494 0.64067 0.32646 0.0
H1414 H 0.74998 0.69047 0.33964 0.0
H1415 H 0.77298 0.70429 0.38901 0.0
H1416 H 0.72997 0.65956 0.30528 0.0
H1417 H 0.79862 0.67043 0.21705 0.0
H1418 H 0.7966 0.65237 0.25813 0.0
H1419 H 0.79685 0.67692 0.2738 0.0
C1420 C 0.7949 0.66208 0.37057 0.0
C1421 C 0.79254 0.68085 0.38485 0.0
C1422 C 0.78167 0.65405 0.34204 0.0
C1423 C 0.76629 0.66497 0.32757 0.0
C1424 C 0.76196 0.68189 0.34965 0.0
H1425 H 0.73285 0.74206 0.19286 0.0
H1426 H 0.74972 0.71479 0.2225 0.0
C1427 C 0.77509 0.68982 0.37829 0.0
C1428 C 0.75867 0.66284 0.28269 0.0
H1429 H 0.77109 0.68052 0.18273 0.0
C1430 C 0.73891 0.66313 0.27757 0.0
C1431 C 0.77041 0.66727 0.24622 0.0
C1432 C 0.7918 0.66675 0.24873 0.0
C1433 C 0.73068 0.6709 0.23985 0.0
C1434 C 0.7426 0.67832 0.2068 0.0
C1435 C 0.76211 0.67496 0.20859 0.0
C1436 C 0.73608 0.69441 0.18005 0.0
C1437 C 0.70949 0.67363 0.23836 0.0
C1438 C 0.72378 0.69201 0.14456 0.0
C1439 C 0.71441 0.70772 0.12693 0.0
C1440 C 0.71703 0.7258 0.14533 0.0
C1441 C 0.73068 0.72829 0.17806 0.0
C1442 C 0.74023 0.71272 0.19506 0.0
H1443 H 0.70211 0.66563 0.26466 0.0
H1444 H 0.70609 0.68889 0.24212 0.0
H1445 H 0.70391 0.66893 0.20622 0.0
H1446 H 0.72048 0.67797 0.13262 0.0
H1447 H 0.70374 0.70543 0.10202 0.0
H1448 H 0.56615 0.55761 0.57647 0.0
H1449 H 0.56365 0.52977 0.52953 0.0
H1450 H 0.51779 0.50879 0.60935 0.0
H1451 H 0.52018 0.53663 0.65641 0.0
H1452 H 0.54472 0.48025 0.55595 0.0
H1453 H 0.50848 0.5391 0.4673 0.0
H1454 H 0.53224 0.54278 0.48697 0.0
H1455 H 0.51311 0.54031 0.52526 0.0
C1456 C 0.55631 0.5465 0.58555 0.0
C1457 C 0.54302 0.54942 0.61929 0.0
C1458 C 0.55486 0.53066 0.5586 0.0
C1459 C 0.54023 0.51762 0.56553 0.0
C1460 C 0.5291 0.51886 0.60354 0.0
H1461 H 0.46241 0.4476 0.45012 0.0
H1462 H 0.47926 0.4752 0.47833 0.0
C1463 C 0.53057 0.53472 0.63062 0.0
C1464 C 0.53346 0.50595 0.52887 0.0
H1465 H 0.50471 0.50847 0.43922 0.0
C1466 C 0.53634 0.48638 0.52983 0.0
C1467 C 0.52238 0.51417 0.49522 0.0
C1468 C 0.51872 0.53523 0.49338 0.0
C1469 C 0.52782 0.47462 0.49857 0.0
C1470 C 0.51618 0.48279 0.46591 0.0
C1471 C 0.51385 0.50242 0.46406 0.0
C1472 C 0.50415 0.47078 0.43816 0.0
C1473 C 0.53041 0.45346 0.50193 0.0
C1474 C 0.51203 0.46032 0.40366 0.0
C1475 C 0.50222 0.44478 0.38679 0.0
C1476 C 0.48472 0.43947 0.40513 0.0
C1477 C 0.47585 0.4515 0.43543 0.0
C1478 C 0.48552 0.46715 0.45178 0.0
H1479 H 0.53935 0.44935 0.53029 0.0
H1480 H 0.5164 0.44642 0.50514 0.0
H1481 H 0.5372 0.44806 0.47159 0.0
H1482 H 0.5264 0.46306 0.39279 0.0
H1483 H 0.50942 0.43559 0.36374 0.0
H1484 H 0.05146 0.54421 0.88209 0.0
H1485 H 0.0498 0.51452 0.9232 0.0
H1486 H 0.99019 0.52394 0.94703 0.0
H1487 H 0.99205 0.55389 0.90712 0.0
H1488 H 0.01058 0.52175 0.02193 0.0
H1489 H 0.02866 0.46141 0.91354 0.0
H1490 H 0.04534 0.48053 0.90998 0.0
H1491 H 0.02126 0.48412 0.89252 0.0
C1492 C 0.03783 0.53935 0.89406 0.0
C1493 C 0.02183 0.55104 0.89125 0.0
C1494 C 0.03689 0.52247 0.91774 0.0
C1495 C 0.01986 0.51709 0.93822 0.0
C1496 C 0.00344 0.52788 0.9315 0.0
H1497 H 0.9892 0.42802 0.11067 0.0
H1498 H 0.99023 0.45962 0.07803 0.0
C1499 C 0.00445 0.54482 0.90832 0.0
C1500 C 0.01987 0.50218 0.97205 0.0
H1501 H 0.0304 0.45582 0.99041 0.0
C1502 C 0.01477 0.50728 0.015 0.0
C1503 C 0.0255 0.48342 0.96291 0.0
C1504 C 0.03033 0.47697 0.91716 0.0
C1505 C 0.01528 0.49408 0.0492 0.0
C1506 C 0.02111 0.47543 0.04007 0.0
C1507 C 0.02622 0.47031 0.99723 0.0
C1508 C 0.02084 0.46042 0.07346 0.0
C1509 C 0.0098 0.50009 0.09484 0.0
C1510 C 0.03775 0.45112 0.08421 0.0
C1511 C 0.03716 0.43321 0.10333 0.0
C1512 C 0.01965 0.4245 0.11148 0.0
C1513 C 0.00283 0.43476 0.10561 0.0
C1514 C 0.00342 0.45272 0.08667 0.0
H1515 H 0.00896 0.51574 0.09801 0.0
H1516 H 0.99572 0.49406 0.1031 0.0
H1517 H 0.02017 0.49459 0.11901 0.0
H1518 H 0.05129 0.45686 0.07391 0.0
H1519 H 0.05024 0.42529 0.10668 0.0
H1520 H 0.09646 0.09736 0.2255 0.0
H1521 H 0.10937 0.10896 0.29416 0.0
H1522 H 0.05529 0.10022 0.35704 0.0
H1523 H 0.04207 0.08888 0.2881 0.0
H1524 H 0.06643 0.13698 0.35782 0.0
H1525 H 0.1259 0.09246 0.41495 0.0
H1526 H 0.12792 0.09818 0.35795 0.0
H1527 H 0.10835 0.08395 0.37673 0.0
C1528 C 0.08745 0.09718 0.25426 0.0
C1529 C 0.0681 0.09253 0.25096 0.0
C1530 C 0.09494 0.10374 0.29373 0.0
C1531 C 0.08329 0.10554 0.33079 0.0
C1532 C 0.06452 0.09897 0.32881 0.0
H1533 H 0.09974 0.18445 0.54947 0.0
H1534 H 0.08744 0.15872 0.50424 0.0
C1535 C 0.05701 0.0924 0.28931 0.0
C1536 C 0.08954 0.11753 0.36792 0.0
H1537 H 0.12599 0.12505 0.43923 0.0
C1538 C 0.07923 0.13416 0.37632 0.0
C1539 C 0.10639 0.11399 0.39155 0.0
C1540 C 0.11767 0.09607 0.38513 0.0
C1541 C 0.08574 0.14775 0.40614 0.0
C1542 C 0.10284 0.14445 0.42899 0.0
C1543 C 0.11288 0.12756 0.42165 0.0
C1544 C 0.11099 0.15889 0.45874 0.0
C1545 C 0.07473 0.16597 0.41113 0.0
C1546 C 0.12862 0.16708 0.44904 0.0
C1547 C 0.13578 0.1817 0.47501 0.0
C1548 C 0.12542 0.18843 0.51121 0.0
C1549 C 0.10799 0.17981 0.52153 0.0
C1550 C 0.10091 0.1651 0.49568 0.0
H1551 H 0.06452 0.16812 0.38395 0.0
H1552 H 0.06657 0.16556 0.44219 0.0
H1553 H 0.08443 0.17834 0.41233 0.0
H1554 H 0.13664 0.16247 0.42069 0.0
H1555 H 0.14929 0.18794 0.4662 0.0
H1556 H 0.11056 0.7966 0.55474 0.0
H1557 H 0.09178 0.81131 0.61305 0.0
H1558 H 0.09701 0.86547 0.54891 0.0
H1559 H 0.11479 0.85054 0.48933 0.0
H1560 H 0.0935 0.83786 0.67222 0.0
H1561 H 0.04096 0.86027 0.54826 0.0
H1562 H 0.06088 0.8454 0.53486 0.0
H1563 H 0.06377 0.87068 0.53899 0.0
C1564 C 0.10821 0.81175 0.55385 0.0
C1565 C 0.11408 0.82243 0.51748 0.0
C1566 C 0.09731 0.82015 0.587 0.0
C1567 C 0.09231 0.83941 0.58461 0.0
C1568 C 0.09998 0.85046 0.55068 0.0
H1569 H 0.03189 0.89316 0.8033 0.0
H1570 H 0.05557 0.88501 0.74784 0.0
C1571 C 0.11045 0.84199 0.51702 0.0
C1572 C 0.07812 0.84753 0.61576 0.0
H1573 H 0.03576 0.87107 0.62059 0.0
C1574 C 0.08089 0.84513 0.66091 0.0
C1575 C 0.06134 0.85663 0.60113 0.0
C1576 C 0.05643 0.85822 0.55319 0.0
C1577 C 0.06749 0.85158 0.69168 0.0
C1578 C 0.05114 0.86145 0.6771 0.0
C1579 C 0.04837 0.8638 0.63195 0.0
C1580 C 0.0363 0.8686 0.70792 0.0
C1581 C 0.0707 0.847 0.73936 0.0
C1582 C 0.01718 0.86347 0.70229 0.0
C1583 C 0.00344 0.86873 0.73321 0.0
C1584 C 0.0086 0.87904 0.77066 0.0
C1585 C 0.02751 0.88509 0.77493 0.0
C1586 C 0.04113 0.88019 0.74355 0.0
H1587 H 0.08034 0.83468 0.74339 0.0
H1588 H 0.07743 0.85932 0.75561 0.0
H1589 H 0.05714 0.84381 0.75636 0.0
H1590 H 0.01298 0.8547 0.67491 0.0
H1591 H 0.98904 0.86371 0.72917 0.0
H1592 H 0.36982 0.80929 0.02406 0.0
H1593 H 0.38239 0.82771 0.96275 0.0
H1594 H 0.39983 0.77602 0.89903 0.0
H1595 H 0.38629 0.75764 0.95873 0.0
H1596 H 0.41708 0.83076 0.94372 0.0
H1597 H 0.38308 0.80344 0.79458 0.0
H1598 H 0.37417 0.79781 0.84838 0.0
H1599 H 0.3932 0.78416 0.82448 0.0
C1600 C 0.37562 0.80186 0.99604 0.0
C1601 C 0.37692 0.782 0.99612 0.0
C1602 C 0.38297 0.81241 0.96113 0.0
C1603 C 0.39206 0.80335 0.92587 0.0
C1604 C 0.39245 0.78345 0.92494 0.0
H1605 H 0.4891 0.84823 0.78672 0.0
H1606 H 0.46678 0.83544 0.84043 0.0
C1607 C 0.38469 0.77289 0.95931 0.0
C1608 C 0.40315 0.81459 0.89327 0.0
H1609 H 0.41398 0.81783 0.78456 0.0
C1610 C 0.4161 0.82814 0.90883 0.0
C1611 C 0.40186 0.81152 0.84757 0.0
C1612 C 0.38715 0.79859 0.82784 0.0
C1613 C 0.42815 0.83814 0.88038 0.0
C1614 C 0.42792 0.83394 0.83507 0.0
C1615 C 0.41449 0.8209 0.8193 0.0
C1616 C 0.44157 0.8426 0.80347 0.0
C1617 C 0.44078 0.85328 0.89941 0.0
C1618 C 0.43504 0.85049 0.76407 0.0
C1619 C 0.44784 0.85729 0.73278 0.0
C1620 C 0.46748 0.85665 0.74042 0.0
C1621 C 0.47404 0.84923 0.78026 0.0
C1622 C 0.46124 0.842 0.81113 0.0
H1623 H 0.43446 0.85944 0.92956 0.0
H1624 H 0.45459 0.84691 0.9086 0.0
H1625 H 0.44337 0.86491 0.8757 0.0
H1626 H 0.41999 0.85114 0.75718 0.0
H1627 H 0.44235 0.8629 0.70234 0.0
H1628 H 0.4536 0.11197 0.24008 0.0
H1629 H 0.43421 0.12345 0.17908 0.0
H1630 H 0.43874 0.18045 0.22835 0.0
H1631 H 0.45822 0.16929 0.28879 0.0
H1632 H 0.39956 0.14408 0.17825 0.0
H1633 H 0.45841 0.18441 0.1021 0.0
H1634 H 0.46226 0.16676 0.14385 0.0
H1635 H 0.45473 0.19024 0.15865 0.0
C1636 C 0.45043 0.12694 0.23798 0.0
C1637 C 0.45765 0.13974 0.26906 0.0
C1638 C 0.43934 0.13345 0.20317 0.0
C1639 C 0.43537 0.15282 0.1989 0.0
C1640 C 0.44201 0.1655 0.23061 0.0
H1641 H 0.35334 0.21605 0.05256 0.0
H1642 H 0.36993 0.19664 0.10648 0.0
C1643 C 0.4531 0.15905 0.26522 0.0
C1644 C 0.42452 0.16002 0.16107 0.0
H1645 H 0.42724 0.19148 0.07678 0.0
C1646 C 0.40562 0.15429 0.15569 0.0
C1647 C 0.4326 0.17306 0.13134 0.0
C1648 C 0.45317 0.17885 0.13392 0.0
C1649 C 0.39432 0.16191 0.12224 0.0
C1650 C 0.4021 0.17581 0.09412 0.0
C1651 C 0.42122 0.18094 0.09858 0.0
C1652 C 0.39069 0.18576 0.06062 0.0
C1653 C 0.37421 0.15499 0.11734 0.0
C1654 C 0.39693 0.18622 0.01701 0.0
C1655 C 0.38768 0.19754 0.98632 0.0
C1656 C 0.37198 0.2086 0.99863 0.0
C1657 C 0.36532 0.20761 0.04198 0.0
C1658 C 0.37471 0.1964 0.07279 0.0
H1659 H 0.37243 0.14058 0.13135 0.0
H1660 H 0.36454 0.16466 0.13529 0.0
H1661 H 0.36986 0.1547 0.08246 0.0
H1662 H 0.40927 0.17817 0.00696 0.0
H1663 H 0.3931 0.1979 0.95313 0.0
H1664 H 0.86114 0.784 0.47682 0.0
H1665 H 0.87124 0.79967 0.54306 0.0
H1666 H 0.84137 0.75817 0.62066 0.0
H1667 H 0.83229 0.74138 0.55359 0.0
H1668 H 0.85702 0.81664 0.60714 0.0
H1669 H 0.89177 0.75221 0.67361 0.0
H1670 H 0.88149 0.75277 0.6198 0.0
H1671 H 0.86661 0.74997 0.66738 0.0
C1672 C 0.85647 0.77821 0.50785 0.0
C1673 C 0.84609 0.76122 0.50981 0.0
C1674 C 0.86229 0.78726 0.54596 0.0
C1675 C 0.85759 0.77988 0.5872 0.0
C1676 C 0.84586 0.76378 0.58936 0.0
H1677 H 0.89817 0.85228 0.80343 0.0
H1678 H 0.87696 0.83581 0.75283 0.0
C1679 C 0.84043 0.75432 0.55098 0.0
C1680 C 0.86594 0.78878 0.62698 0.0
H1681 H 0.89443 0.78 0.71495 0.0
C1682 C 0.86518 0.80859 0.63077 0.0
C1683 C 0.87675 0.77835 0.65774 0.0
C1684 C 0.87939 0.75719 0.65433 0.0
C1685 C 0.87568 0.81834 0.66258 0.0
C1686 C 0.88635 0.80791 0.6936 0.0
C1687 C 0.8863 0.78804 0.69126 0.0
C1688 C 0.8987 0.81722 0.72678 0.0
C1689 C 0.87611 0.83969 0.66048 0.0
C1690 C 0.91774 0.81158 0.73117 0.0
C1691 C 0.92962 0.82042 0.76151 0.0
C1692 C 0.92281 0.8354 0.78718 0.0
C1693 C 0.90379 0.84097 0.78328 0.0
C1694 C 0.89172 0.83167 0.75408 0.0
H1695 H 0.87224 0.84498 0.62743 0.0
H1696 H 0.86563 0.84553 0.684 0.0
H1697 H 0.89035 0.84531 0.66875 0.0
H1698 H 0.92354 0.80046 0.71071 0.0
H1699 H 0.94424 0.81587 0.76411 0.0
H1700 H 0.91835 0.19259 0.53341 0.0
H1701 H 0.93304 0.17378 0.47551 0.0
H1702 H 0.89076 0.19321 0.38423 0.0
H1703 H 0.87567 0.21185 0.44248 0.0
H1704 H 0.90302 0.15446 0.37106 0.0
H1705 H 0.96279 0.20522 0.38437 0.0
H1706 H 0.95701 0.19353 0.43482 0.0
H1707 H 0.94011 0.20929 0.41012 0.0
C1708 C 0.91187 0.19248 0.50129 0.0
C1709 C 0.89601 0.20388 0.49228 0.0
C1710 C 0.92032 0.18177 0.46824 0.0
C1711 C 0.91325 0.18251 0.42544 0.0
C1712 C 0.89648 0.19257 0.41707 0.0
H1713 H 0.98489 0.16442 0.19868 0.0
H1714 H 0.96241 0.17687 0.25224 0.0
C1715 C 0.88785 0.20316 0.45038 0.0
C1716 C 0.92458 0.17455 0.38896 0.0
H1717 H 0.96756 0.17869 0.33843 0.0
C1718 C 0.91711 0.15975 0.36372 0.0
C1719 C 0.94279 0.18178 0.37897 0.0
C1720 C 0.95112 0.19845 0.40317 0.0
C1721 C 0.92763 0.15165 0.32931 0.0
C1722 C 0.94617 0.15838 0.32058 0.0
C1723 C 0.95341 0.17344 0.34534 0.0
C1724 C 0.95845 0.1502 0.2859 0.0
C1725 C 0.91869 0.13621 0.30227 0.0
C1726 C 0.9637 0.13104 0.28694 0.0
C1727 C 0.9765 0.12382 0.25613 0.0
C1728 C 0.98451 0.13572 0.2241 0.0
C1729 C 0.97908 0.15487 0.22299 0.0
C1730 C 0.96618 0.16201 0.25353 0.0
H1731 H 0.90297 0.13656 0.3046 0.0
H1732 H 0.92285 0.13743 0.26732 0.0
H1733 H 0.92354 0.12225 0.31455 0.0
H1734 H 0.9583 0.12176 0.31227 0.0
H1735 H 0.98045 0.10903 0.25808 0.0
H1736 H 0.63269 0.19878 0.03503 0.0
H1737 H 0.62386 0.17404 0.08743 0.0
H1738 H 0.56863 0.16991 0.02806 0.0
H1739 H 0.57728 0.19446 0.97557 0.0
H1740 H 0.5934 0.17671 0.14643 0.0
H1741 H 0.585 0.11422 0.03864 0.0
H1742 H 0.59791 0.13512 0.02211 0.0
H1743 H 0.57244 0.13481 0.02003 0.0
C1744 C 0.61874 0.19247 0.03279 0.0
C1745 C 0.60569 0.19867 0.00109 0.0
C1746 C 0.61374 0.17831 0.06272 0.0
C1747 C 0.59571 0.16991 0.06116 0.0
C1748 C 0.58277 0.17588 0.02924 0.0
H1749 H 0.52069 0.10633 0.22133 0.0
H1750 H 0.53865 0.11941 0.16 0.0
C1751 C 0.5877 0.19008 0.9995 0.0
C1752 C 0.58973 0.15618 0.09521 0.0
H1753 H 0.57118 0.11195 0.1102 0.0
C1754 C 0.58885 0.16243 0.13869 0.0
C1755 C 0.58367 0.13762 0.08488 0.0
C1756 C 0.58494 0.12994 0.03893 0.0
C1757 C 0.58126 0.15097 0.17188 0.0
C1758 C 0.57485 0.1325 0.1615 0.0
C1759 C 0.5762 0.12604 0.11815 0.0
C1760 C 0.56532 0.12046 0.19475 0.0
C1761 C 0.57927 0.15917 0.21731 0.0
C1762 C 0.57463 0.11547 0.2336 0.0
C1763 C 0.56437 0.10811 0.26892 0.0
C1764 C 0.54466 0.10538 0.26572 0.0
C1765 C 0.53583 0.10829 0.22502 0.0
C1766 C 0.54608 0.11586 0.18988 0.0
H1767 H 0.58088 0.17482 0.21742 0.0
H1768 H 0.56525 0.1556 0.23169 0.0
H1769 H 0.59043 0.15315 0.23872 0.0
H1770 H 0.5896 0.11842 0.23762 0.0
H1771 H 0.57165 0.10581 0.29964 0.0
H1772 H 0.56577 0.87303 0.76545 0.0
H1773 H 0.59179 0.86559 0.81504 0.0
H1774 H 0.59987 0.81192 0.75049 0.0
H1775 H 0.57397 0.81931 0.70016 0.0
H1776 H 0.59326 0.83541 0.87184 0.0
H1777 H 0.654 0.83283 0.75619 0.0
H1778 H 0.63151 0.84343 0.74213 0.0
H1779 H 0.63429 0.81814 0.74111 0.0
C1780 C 0.5731 0.85966 0.76153 0.0
C1781 C 0.56772 0.84676 0.72874 0.0
C1782 C 0.58803 0.85547 0.78987 0.0
C1783 C 0.59799 0.83836 0.78599 0.0
C1784 C 0.59268 0.82541 0.75341 0.0
H1785 H 0.67214 0.77626 0.9534 0.0
H1786 H 0.65706 0.78944 0.88845 0.0
C1787 C 0.57773 0.82959 0.72494 0.0
C1788 C 0.61296 0.83356 0.81815 0.0
H1789 H 0.65975 0.82167 0.82868 0.0
C1790 C 0.60784 0.83261 0.86245 0.0
C1791 C 0.63194 0.8298 0.80573 0.0
C1792 C 0.63837 0.83125 0.75875 0.0
C1793 C 0.62104 0.82758 0.89463 0.0
C1794 C 0.64004 0.8238 0.8823 0.0
C1795 C 0.64523 0.82479 0.83802 0.0
C1796 C 0.65414 0.81762 0.91522 0.0
C1797 C 0.61434 0.82574 0.94144 0.0
C1798 C 0.65889 0.8295 0.95029 0.0
C1799 C 0.66747 0.82201 0.98767 0.0
C1800 C 0.67144 0.80251 0.99042 0.0
C1801 C 0.66912 0.79129 0.9527 0.0
C1802 C 0.66042 0.79879 0.91544 0.0
H1803 H 0.59863 0.82524 0.94388 0.0
H1804 H 0.62021 0.81276 0.95681 0.0
H1805 H 0.61935 0.83812 0.96051 0.0
H1806 H 0.65451 0.8442 0.95028 0.0
H1807 H 0.66932 0.83114 0.01581 0.0
H1808 H 0.55381 0.60949 0.80222 0.0
H1809 H 0.57103 0.62186 0.86576 0.0
H1810 H 0.56778 0.67819 0.81196 0.0
H1811 H 0.55045 0.66615 0.74909 0.0
H1812 H 0.60518 0.64209 0.87155 0.0
H1813 H 0.54494 0.68449 0.93399 0.0
H1814 H 0.54208 0.66631 0.89303 0.0
H1815 H 0.55014 0.68957 0.87772 0.0
C1816 C 0.55679 0.6245 0.80393 0.0
C1817 C 0.55056 0.63686 0.77081 0.0
C1818 C 0.56662 0.63153 0.84022 0.0
C1819 C 0.5703 0.65098 0.8439 0.0
C1820 C 0.56465 0.6632 0.81024 0.0
H1821 H 0.64976 0.71802 0.9836 0.0
H1822 H 0.63379 0.69604 0.93438 0.0
C1823 C 0.5548 0.65625 0.77421 0.0
C1824 C 0.58005 0.65876 0.88271 0.0
H1825 H 0.57572 0.69285 0.96097 0.0
C1826 C 0.59869 0.65299 0.8916 0.0
C1827 C 0.5714 0.67267 0.90935 0.0
C1828 C 0.55097 0.67848 0.90337 0.0
C1829 C 0.60928 0.66157 0.92503 0.0
C1830 C 0.60108 0.67652 0.94942 0.0
C1831 C 0.5821 0.68153 0.94198 0.0
C1832 C 0.61208 0.68799 0.98105 0.0
C1833 C 0.62914 0.65459 0.93365 0.0
C1834 C 0.6051 0.69096 0.02354 0.0
C1835 C 0.61399 0.70381 0.05148 0.0
C1836 C 0.63009 0.7139 0.03749 0.0
C1837 C 0.63746 0.71038 0.99549 0.0
C1838 C 0.62843 0.69768 0.9674 0.0
H1839 H 0.63077 0.63952 0.92395 0.0
H1840 H 0.63929 0.66302 0.91388 0.0
H1841 H 0.63296 0.65605 0.96871 0.0
H1842 H 0.59245 0.68371 0.03468 0.0
H1843 H 0.60801 0.70612 0.08372 0.0
H1844 H 0.51054 0.35285 0.24928 0.0
H1845 H 0.53225 0.33948 0.19483 0.0
H1846 H 0.58001 0.35968 0.26944 0.0
H1847 H 0.55838 0.37209 0.3251 0.0
H1848 H 0.55748 0.3522 0.14172 0.0
H1849 H 0.59473 0.30581 0.25942 0.0
H1850 H 0.57379 0.31898 0.27413 0.0
H1851 H 0.5967 0.33029 0.27405 0.0
C1852 C 0.52567 0.35459 0.25381 0.0
C1853 C 0.53277 0.36336 0.29161 0.0
C1854 C 0.53809 0.34687 0.22276 0.0
C1855 C 0.55785 0.34802 0.22858 0.0
C1856 C 0.5649 0.3579 0.26496 0.0
H1857 H 0.63074 0.31948 0.0059 0.0
H1858 H 0.61627 0.33652 0.06721 0.0
C1859 C 0.5525 0.36521 0.2965 0.0
C1860 C 0.57095 0.33879 0.19671 0.0
H1861 H 0.60817 0.30793 0.18823 0.0
C1862 C 0.56854 0.34249 0.15195 0.0
C1863 C 0.58521 0.32581 0.20984 0.0
C1864 C 0.58765 0.31982 0.25692 0.0
C1865 C 0.57982 0.33363 0.12005 0.0
C1866 C 0.59465 0.32132 0.13327 0.0
C1867 C 0.59709 0.31761 0.17805 0.0
C1868 C 0.60689 0.31124 0.10097 0.0
C1869 C 0.57511 0.33697 0.07248 0.0
C1870 C 0.60815 0.29137 0.10168 0.0
C1871 C 0.61714 0.28162 0.06756 0.0
C1872 C 0.62477 0.29158 0.03184 0.0
C1873 C 0.62489 0.31147 0.03298 0.0
C1874 C 0.61635 0.3212 0.06765 0.0
H1875 H 0.56028 0.34196 0.06832 0.0
H1876 H 0.58461 0.34808 0.05912 0.0
H1877 H 0.57699 0.32388 0.05285 0.0
H1878 H 0.60118 0.28332 0.12724 0.0
H1879 H 0.61666 0.26629 0.06733 0.0
H1880 H 0.97137 0.36351 0.23872 0.0
H1881 H 0.94515 0.35713 0.28899 0.0
H1882 H 0.93613 0.30292 0.22765 0.0
H1883 H 0.96202 0.30936 0.17645 0.0
H1884 H 0.90259 0.32159 0.24328 0.0
H1885 H 0.94741 0.32157 0.39238 0.0
H1886 H 0.94905 0.34303 0.36124 0.0
H1887 H 0.95737 0.32115 0.33799 0.0
C1888 C 0.96391 0.35017 0.23602 0.0
C1889 C 0.96895 0.33688 0.20374 0.0
C1890 C 0.94892 0.34653 0.26487 0.0
C1891 C 0.93885 0.32942 0.26252 0.0
C1892 C 0.94372 0.31621 0.23012 0.0
H1893 H 0.8617 0.26815 0.42315 0.0
H1894 H 0.87671 0.28145 0.35814 0.0
C1895 C 0.9586 0.31989 0.20101 0.0
C1896 C 0.9234 0.32517 0.29417 0.0
H1897 H 0.91434 0.31955 0.40311 0.0
C1898 C 0.90513 0.32118 0.27826 0.0
C1899 C 0.92674 0.32456 0.33978 0.0
C1900 C 0.94623 0.32762 0.35892 0.0
C1901 C 0.89012 0.31666 0.30682 0.0
C1902 C 0.89351 0.31608 0.35232 0.0
C1903 C 0.9117 0.32028 0.36818 0.0
C1904 C 0.87905 0.30977 0.38447 0.0
C1905 C 0.87076 0.3126 0.28824 0.0
C1906 C 0.87431 0.32153 0.41983 0.0
C1907 C 0.8657 0.31396 0.45714 0.0
C1908 C 0.86194 0.29443 0.45994 0.0
C1909 C 0.86441 0.28323 0.42224 0.0
C1910 C 0.87305 0.29083 0.38489 0.0
H1911 H 0.86922 0.31837 0.25462 0.0
H1912 H 0.86864 0.29705 0.2867 0.0
H1913 H 0.85946 0.31866 0.30938 0.0
H1914 H 0.87875 0.33621 0.42008 0.0
H1915 H 0.86382 0.32304 0.48539 0.0
H1916 H 0.99604 0.60696 0.71498 0.0
H1917 H 0.97608 0.61407 0.65147 0.0
H1918 H 0.9618 0.66825 0.70751 0.0
H1919 H 0.98176 0.66147 0.77051 0.0
H1920 H 0.93723 0.62301 0.64632 0.0
H1921 H 0.98187 0.682 0.58581 0.0
H1922 H 0.99008 0.66528 0.62622 0.0
H1923 H 0.97512 0.68475 0.64211 0.0
C1924 C 0.98865 0.62038 0.71379 0.0
C1925 C 0.99066 0.63372 0.74768 0.0
C1926 C 0.97725 0.6244 0.67751 0.0
C1927 C 0.96778 0.64182 0.67449 0.0
C1928 C 0.96935 0.6549 0.70877 0.0
H1929 H 0.87283 0.68053 0.52556 0.0
H1930 H 0.8941 0.6659 0.57859 0.0
C1931 C 0.98072 0.65095 0.74487 0.0
C1932 C 0.95616 0.64649 0.63571 0.0
H1933 H 0.95054 0.68001 0.55652 0.0
C1934 C 0.94023 0.63533 0.62628 0.0
C1935 C 0.96031 0.66237 0.6092 0.0
C1936 C 0.97788 0.67418 0.61601 0.0
C1937 C 0.92783 0.64016 0.59214 0.0
C1938 C 0.93134 0.65674 0.56744 0.0
C1939 C 0.94774 0.66739 0.57573 0.0
C1940 C 0.91791 0.66385 0.53402 0.0
C1941 C 0.91112 0.62746 0.58294 0.0
C1942 C 0.92428 0.66779 0.49145 0.0
C1943 C 0.91224 0.67642 0.4612 0.0
C1944 C 0.89357 0.68129 0.47297 0.0
C1945 C 0.88707 0.67685 0.5153 0.0
C1946 C 0.89918 0.66835 0.54561 0.0
H1947 H 0.91382 0.61275 0.5942 0.0
H1948 H 0.89854 0.63284 0.60091 0.0
H1949 H 0.90773 0.62715 0.54748 0.0
H1950 H 0.93872 0.66452 0.48188 0.0
H1951 H 0.91769 0.67958 0.42885 0.0
H1952 H 0.45251 0.32331 0.28137 0.0
H1953 H 0.42795 0.31436 0.22877 0.0
H1954 H 0.3921 0.35931 0.27738 0.0
H1955 H 0.41739 0.36922 0.32713 0.0
H1956 H 0.39471 0.30171 0.23342 0.0
H1957 H 0.38852 0.37179 0.15337 0.0
H1958 H 0.40656 0.36683 0.19326 0.0
H1959 H 0.38281 0.37282 0.21043 0.0
C1960 C 0.43941 0.33132 0.28039 0.0
C1961 C 0.43686 0.3471 0.30756 0.0
C1962 C 0.42534 0.32619 0.25052 0.0
C1963 C 0.40824 0.33643 0.24812 0.0
C1964 C 0.40538 0.35164 0.27707 0.0
H1965 H 0.3251 0.28175 0.07139 0.0
H1966 H 0.33741 0.29522 0.13964 0.0
C1967 C 0.41975 0.3572 0.30579 0.0
C1968 C 0.39362 0.33112 0.21514 0.0
H1969 H 0.36668 0.34848 0.1315 0.0
C1970 C 0.38863 0.31195 0.21102 0.0
C1971 C 0.3856 0.34445 0.18583 0.0
C1972 C 0.39129 0.36506 0.1856 0.0
C1973 C 0.37675 0.30557 0.17726 0.0
C1974 C 0.36863 0.31892 0.14813 0.0
C1975 C 0.37277 0.33822 0.15386 0.0
C1976 C 0.35826 0.31312 0.10783 0.0
C1977 C 0.37413 0.28449 0.1717 0.0
C1978 C 0.36455 0.31994 0.06718 0.0
C1979 C 0.35698 0.31294 0.0284 0.0
C1980 C 0.3432 0.29854 0.02908 0.0
C1981 C 0.33586 0.29266 0.06971 0.0
C1982 C 0.34312 0.30014 0.10878 0.0
H1983 H 0.38495 0.27627 0.19001 0.0
H1984 H 0.35999 0.28035 0.1845 0.0
H1985 H 0.37501 0.28038 0.1367 0.0
H1986 H 0.37608 0.33003 0.06521 0.0
H1987 H 0.36298 0.31794 0.99786 0.0
H1988 H 0.43055 0.68556 0.03318 0.0
H1989 H 0.43755 0.66091 0.97976 0.0
H1990 H 0.37945 0.66179 0.93639 0.0
H1991 H 0.37219 0.68666 0.99003 0.0
H1992 H 0.41947 0.62353 0.96613 0.0
H1993 H 0.41278 0.67326 0.8253 0.0
H1994 H 0.41577 0.68159 0.88069 0.0
H1995 H 0.39344 0.67198 0.8637 0.0
C1996 C 0.41917 0.68053 0.01247 0.0
C1997 C 0.40082 0.68826 0.01568 0.0
C1998 C 0.42321 0.66633 0.9821 0.0
C1999 C 0.40906 0.65961 0.95401 0.0
C2000 C 0.39059 0.6669 0.95765 0.0
H2001 H 0.43898 0.59873 0.71572 0.0
H2002 H 0.41847 0.6095 0.77524 0.0
C2003 C 0.38648 0.68108 0.98833 0.0
C2004 C 0.41419 0.64576 0.91952 0.0
H2005 H 0.42416 0.64287 0.81052 0.0
C2006 C 0.42023 0.6276 0.93194 0.0
C2007 C 0.41505 0.65109 0.875 0.0
C2008 C 0.40903 0.67055 0.86007 0.0
C2009 C 0.42769 0.61482 0.90112 0.0
C2010 C 0.42961 0.62056 0.85695 0.0
C2011 C 0.42268 0.6384 0.84431 0.0
C2012 C 0.4406 0.60946 0.82417 0.0
C2013 C 0.43364 0.59541 0.91637 0.0
C2014 C 0.45967 0.60493 0.83224 0.0
C2015 C 0.47139 0.59853 0.79838 0.0
C2016 C 0.46438 0.59692 0.75546 0.0
C2017 C 0.4449 0.5999 0.74828 0.0
C2018 C 0.43314 0.60614 0.7823 0.0
H2019 H 0.42486 0.59069 0.94456 0.0
H2020 H 0.43249 0.58477 0.88979 0.0
H2021 H 0.4486 0.59596 0.92752 0.0
H2022 H 0.46593 0.60771 0.8639 0.0
H2023 H 0.48631 0.59645 0.8052 0.0
H2024 H 0.14285 0.71684 0.48084 0.0
H2025 H 0.1402 0.68887 0.52807 0.0
H2026 H 0.08609 0.70904 0.57523 0.0
H2027 H 0.08814 0.73614 0.52595 0.0
H2028 H 0.13892 0.68231 0.60907 0.0
H2029 H 0.07067 0.65736 0.54512 0.0
H2030 H 0.08358 0.67631 0.51915 0.0
H2031 H 0.06755 0.68112 0.56401 0.0
C2032 C 0.1304 0.71521 0.50134 0.0
C2033 C 0.11559 0.72849 0.4995 0.0
C2034 C 0.12886 0.69921 0.52822 0.0
C2035 C 0.11263 0.69642 0.55426 0.0
C2036 C 0.09835 0.71031 0.55405 0.0
H2037 H 0.09936 0.64462 0.79696 0.0
H2038 H 0.11257 0.65958 0.73281 0.0
C2039 C 0.09963 0.72596 0.52631 0.0
C2040 C 0.11072 0.67939 0.58272 0.0
H2041 H 0.07796 0.64771 0.6197 0.0
C2042 C 0.1257 0.6745 0.61076 0.0
C2043 C 0.09388 0.66847 0.58391 0.0
C2044 C 0.07816 0.67097 0.55096 0.0
C2045 C 0.12371 0.66011 0.64219 0.0
C2046 C 0.10593 0.65101 0.6473 0.0
C2047 C 0.09152 0.65485 0.61686 0.0
C2048 C 0.10106 0.63939 0.68654 0.0
C2049 C 0.14072 0.65497 0.66956 0.0
C2050 C 0.09008 0.62283 0.6827 0.0
C2051 C 0.08179 0.61453 0.71975 0.0
C2052 C 0.08459 0.62246 0.76143 0.0
C2053 C 0.09697 0.63797 0.76552 0.0
C2054 C 0.10478 0.64653 0.72854 0.0
H2055 H 0.15392 0.6559 0.64975 0.0
H2056 H 0.14211 0.66525 0.69683 0.0
H2057 H 0.13961 0.64045 0.68323 0.0
H2058 H 0.08701 0.61694 0.65078 0.0
H2059 H 0.07235 0.60259 0.71545 0.0
H2060 H 0.0624 0.36158 0.25389 0.0
H2061 H 0.08715 0.35281 0.30659 0.0
H2062 H 0.10269 0.30523 0.22566 0.0
H2063 H 0.07856 0.31407 0.1728 0.0
H2064 H 0.0916 0.32107 0.35378 0.0
H2065 H 0.15376 0.32889 0.24487 0.0
H2066 H 0.13065 0.33797 0.23069 0.0
H2067 H 0.13637 0.31343 0.22154 0.0
C2068 C 0.07113 0.34928 0.24739 0.0
C2069 C 0.06863 0.33864 0.20896 0.0
C2070 C 0.08531 0.34434 0.27737 0.0
C2071 C 0.09716 0.3287 0.26937 0.0
C2072 C 0.09423 0.31776 0.23175 0.0
H2073 H 0.16188 0.25379 0.42444 0.0
H2074 H 0.14838 0.27089 0.36233 0.0
C2075 C 0.08026 0.32275 0.20174 0.0
C2076 C 0.11191 0.323 0.3013 0.0
H2077 H 0.15846 0.30981 0.30959 0.0
C2078 C 0.10627 0.31894 0.34432 0.0
C2079 C 0.13112 0.32026 0.28893 0.0
C2080 C 0.13837 0.32557 0.2441 0.0
C2081 C 0.11908 0.31137 0.37467 0.0
C2082 C 0.13801 0.30784 0.36166 0.0
C2083 C 0.14388 0.31243 0.31919 0.0
C2084 C 0.15141 0.29853 0.39184 0.0
C2085 C 0.11216 0.3066 0.42017 0.0
C2086 C 0.15882 0.30862 0.42731 0.0
C2087 C 0.16664 0.29892 0.46275 0.0
C2088 C 0.16696 0.27899 0.46329 0.0
C2089 C 0.16183 0.26912 0.42513 0.0
C2090 C 0.15399 0.27886 0.38966 0.0
H2091 H 0.0966 0.30852 0.42375 0.0
H2092 H 0.11578 0.29172 0.42838 0.0
H2093 H 0.11935 0.31586 0.44431 0.0
H2094 H 0.15704 0.32383 0.4293 0.0
H2095 H 0.17065 0.30695 0.49147 0.0
loop_
_geom_bond_atom_site_label_1
_geom_bond_atom_site_label_2
_geom_bond_distance
_geom_bond_site_symmetry_2
_ccdc_geom_bond_type
O0 Zn1 1.953 . S
O0 C16 1.225 . S
Zn1 O0 1.953 . S
Zn1 O2 1.949 1_655 S
Zn1 O8 1.919 . S
Zn1 O13 1.924 . S
O2 Zn1 1.949 1_455 S
O2 Zn3 1.923 . S
O2 Zn4 1.950 . S
O2 Zn5 1.945 . S
Zn3 O2 1.923 . S
Zn3 O6 1.933 . S
Zn3 O9 1.941 . S
Zn3 O10 1.965 . S
Zn4 O2 1.950 . S
Zn4 O11 1.938 . S
Zn4 O12 1.906 . S
Zn4 O22 1.953 1_455 S
Zn5 O2 1.945 . S
Zn5 O7 1.932 . S
Zn5 O14 1.977 . S
Zn5 O15 1.910 1_455 S
O6 Zn3 1.933 . S
O6 C17 1.226 . S
O7 Zn5 1.932 . S
O7 C17 1.307 . S
O8 Zn1 1.919 . S
O8 C19 1.253 1_655 S
O9 Zn3 1.941 . S
O9 C19 1.283 . S
O10 Zn3 1.965 . S
O10 C18 1.303 . S
O11 Zn4 1.938 . S
O11 C18 1.247 . S
O12 Zn4 1.906 . S
O12 C20 1.304 . S
O13 Zn1 1.924 . S
O13 C21 1.311 . S
O14 Zn5 1.977 . S
O14 C20 1.272 . S
O15 Zn5 1.910 1_655 S
O15 C21 1.231 . S
C16 O0 1.225 . S
C16 O22 1.298 . S
C17 O6 1.226 . S
C17 O7 1.307 . S
C18 O10 1.303 . S
C18 O11 1.247 . S
C19 O8 1.253 1_455 S
C19 O9 1.283 . S
C20 O12 1.304 . S
C20 O14 1.272 . S
C21 O13 1.311 . S
C21 O15 1.231 . S
O22 Zn4 1.953 1_655 S
O22 C16 1.298 . S
O23 Zn24 1.953 . S
O23 C39 1.225 . S
Zn24 O23 1.953 . S
Zn24 O25 1.949 . S
Zn24 O31 1.919 . S
Zn24 O36 1.924 . S
O25 Zn24 1.949 . S
O25 Zn26 1.923 . S
O25 Zn27 1.950 . S
O25 Zn28 1.945 . S
Zn26 O25 1.923 . S
Zn26 O29 1.933 . S
Zn26 O32 1.941 . S
Zn26 O33 1.965 . S
Zn27 O25 1.950 . S
Zn27 O34 1.938 . S
Zn27 O35 1.906 . S
Zn27 O45 1.953 . S
Zn28 O25 1.945 . S
Zn28 O30 1.932 . S
Zn28 O37 1.977 . S
Zn28 O38 1.910 . S
O29 Zn26 1.933 . S
O29 C40 1.226 . S
O30 Zn28 1.932 . S
O30 C40 1.307 . S
O31 Zn24 1.919 . S
O31 C42 1.253 . S
O32 Zn26 1.941 . S
O32 C42 1.283 . S
O33 Zn26 1.965 . S
O33 C41 1.303 . S
O34 Zn27 1.938 . S
O34 C41 1.247 . S
O35 Zn27 1.906 . S
O35 C43 1.304 . S
O36 Zn24 1.924 . S
O36 C44 1.311 . S
O37 Zn28 1.977 . S
O37 C43 1.272 . S
O38 Zn28 1.910 . S
O38 C44 1.231 . S
C39 O23 1.225 . S
C39 O45 1.298 . S
C40 O29 1.226 . S
C40 O30 1.307 . S
C41 O33 1.303 . S
C41 O34 1.247 . S
C42 O31 1.253 . S
C42 O32 1.283 . S
C43 O35 1.304 . S
C43 O37 1.272 . S
C44 O36 1.311 . S
C44 O38 1.231 . S
O45 Zn27 1.953 . S
O45 C39 1.298 . S
O46 Zn47 1.953 . S
O46 C62 1.225 . S
Zn47 O46 1.953 . S
Zn47 O48 1.949 . S
Zn47 O54 1.919 . S
Zn47 O59 1.924 . S
O48 Zn47 1.949 . S
O48 Zn49 1.923 . S
O48 Zn50 1.950 . S
O48 Zn51 1.945 . S
Zn49 O48 1.923 . S
Zn49 O52 1.933 . S
Zn49 O55 1.941 . S
Zn49 O56 1.965 . S
Zn50 O48 1.950 . S
Zn50 O57 1.938 . S
Zn50 O58 1.906 . S
Zn50 O68 1.953 . S
Zn51 O48 1.945 . S
Zn51 O53 1.932 . S
Zn51 O60 1.977 . S
Zn51 O61 1.910 . S
O52 Zn49 1.933 . S
O52 C63 1.226 . S
O53 Zn51 1.932 . S
O53 C63 1.307 . S
O54 Zn47 1.919 . S
O54 C65 1.253 . S
O55 Zn49 1.941 . S
O55 C65 1.283 . S
O56 Zn49 1.965 . S
O56 C64 1.303 . S
O57 Zn50 1.938 . S
O57 C64 1.247 . S
O58 Zn50 1.906 . S
O58 C66 1.304 . S
O59 Zn47 1.924 . S
O59 C67 1.311 . S
O60 Zn51 1.977 . S
O60 C66 1.272 . S
O61 Zn51 1.910 . S
O61 C67 1.231 . S
C62 O46 1.225 . S
C62 O68 1.298 . S
C63 O52 1.226 . S
C63 O53 1.307 . S
C64 O56 1.303 . S
C64 O57 1.247 . S
C65 O54 1.253 . S
C65 O55 1.283 . S
C66 O58 1.304 . S
C66 O60 1.272 . S
C67 O59 1.311 . S
C67 O61 1.231 . S
O68 Zn50 1.953 . S
O68 C62 1.298 . S
O69 Zn70 1.953 . S
O69 C85 1.225 . S
Zn70 O69 1.953 . S
Zn70 O71 1.949 . S
Zn70 O77 1.919 . S
Zn70 O82 1.924 . S
O71 Zn70 1.949 . S
O71 Zn72 1.923 . S
O71 Zn73 1.950 . S
O71 Zn74 1.945 . S
Zn72 O71 1.923 . S
Zn72 O75 1.933 . S
Zn72 O78 1.941 . S
Zn72 O79 1.965 . S
Zn73 O71 1.950 . S
Zn73 O80 1.938 . S
Zn73 O81 1.906 . S
Zn73 O91 1.953 . S
Zn74 O71 1.945 . S
Zn74 O76 1.932 . S
Zn74 O83 1.977 . S
Zn74 O84 1.910 . S
O75 Zn72 1.933 . S
O75 C86 1.226 . S
O76 Zn74 1.932 . S
O76 C86 1.307 . S
O77 Zn70 1.919 . S
O77 C88 1.253 . S
O78 Zn72 1.941 . S
O78 C88 1.283 . S
O79 Zn72 1.965 . S
O79 C87 1.303 . S
O80 Zn73 1.938 . S
O80 C87 1.247 . S
O81 Zn73 1.906 . S
O81 C89 1.304 . S
O82 Zn70 1.924 . S
O82 C90 1.311 . S
O83 Zn74 1.977 . S
O83 C89 1.272 . S
O84 Zn74 1.910 . S
O84 C90 1.231 . S
C85 O69 1.225 . S
C85 O91 1.298 . S
C86 O75 1.226 . S
C86 O76 1.307 . S
C87 O79 1.303 . S
C87 O80 1.247 . S
C88 O77 1.253 . S
C88 O78 1.283 . S
C89 O81 1.304 . S
C89 O83 1.272 . S
C90 O82 1.311 . S
C90 O84 1.231 . S
O91 Zn73 1.953 . S
O91 C85 1.298 . S
O92 Zn93 1.953 . S
O92 C108 1.225 . S
Zn93 O92 1.953 . S
Zn93 O94 1.949 1_655 S
Zn93 O100 1.919 . S
Zn93 O105 1.924 . S
O94 Zn93 1.949 1_455 S
O94 Zn95 1.923 . S
O94 Zn96 1.950 . S
O94 Zn97 1.945 . S
Zn95 O94 1.923 . S
Zn95 O98 1.933 . S
Zn95 O101 1.941 . S
Zn95 O102 1.965 . S
Zn96 O94 1.950 . S
Zn96 O103 1.938 . S
Zn96 O104 1.906 . S
Zn96 O114 1.953 1_455 S
Zn97 O94 1.945 . S
Zn97 O99 1.932 . S
Zn97 O106 1.977 . S
Zn97 O107 1.910 1_455 S
O98 Zn95 1.933 . S
O98 C109 1.226 . S
O99 Zn97 1.932 . S
O99 C109 1.307 . S
O100 Zn93 1.919 . S
O100 C111 1.253 1_655 S
O101 Zn95 1.941 . S
O101 C111 1.283 . S
O102 Zn95 1.965 . S
O102 C110 1.303 . S
O103 Zn96 1.938 . S
O103 C110 1.247 . S
O104 Zn96 1.906 . S
O104 C112 1.304 . S
O105 Zn93 1.924 . S
O105 C113 1.311 . S
O106 Zn97 1.977 . S
O106 C112 1.272 . S
O107 Zn97 1.910 1_655 S
O107 C113 1.231 . S
C108 O92 1.225 . S
C108 O114 1.298 . S
C109 O98 1.226 . S
C109 O99 1.307 . S
C110 O102 1.303 . S
C110 O103 1.247 . S
C111 O100 1.253 1_455 S
C111 O101 1.283 . S
C112 O104 1.304 . S
C112 O106 1.272 . S
C113 O105 1.311 . S
C113 O107 1.231 . S
O114 Zn96 1.953 1_655 S
O114 C108 1.298 . S
O115 Zn116 1.953 . S
O115 C131 1.225 . S
Zn116 O115 1.953 . S
Zn116 O117 1.949 . S
Zn116 O123 1.919 . S
Zn116 O128 1.924 . S
O117 Zn116 1.949 . S
O117 Zn118 1.923 . S
O117 Zn119 1.950 . S
O117 Zn120 1.945 . S
Zn118 O117 1.923 . S
Zn118 O121 1.933 . S
Zn118 O124 1.941 . S
Zn118 O125 1.965 . S
Zn119 O117 1.950 . S
Zn119 O126 1.938 . S
Zn119 O127 1.906 . S
Zn119 O137 1.953 . S
Zn120 O117 1.945 . S
Zn120 O122 1.932 . S
Zn120 O129 1.977 . S
Zn120 O130 1.910 . S
O121 Zn118 1.933 . S
O121 C132 1.226 . S
O122 Zn120 1.932 . S
O122 C132 1.307 . S
O123 Zn116 1.919 . S
O123 C134 1.253 . S
O124 Zn118 1.941 . S
O124 C134 1.283 . S
O125 Zn118 1.965 . S
O125 C133 1.303 . S
O126 Zn119 1.938 . S
O126 C133 1.247 . S
O127 Zn119 1.906 . S
O127 C135 1.304 . S
O128 Zn116 1.924 . S
O128 C136 1.311 . S
O129 Zn120 1.977 . S
O129 C135 1.272 . S
O130 Zn120 1.910 . S
O130 C136 1.231 . S
C131 O115 1.225 . S
C131 O137 1.298 . S
C132 O121 1.226 . S
C132 O122 1.307 . S
C133 O125 1.303 . S
C133 O126 1.247 . S
C134 O123 1.253 . S
C134 O124 1.283 . S
C135 O127 1.304 . S
C135 O129 1.272 . S
C136 O128 1.311 . S
C136 O130 1.231 . S
O137 Zn119 1.953 . S
O137 C131 1.298 . S
O138 Zn139 1.953 . S
O138 C154 1.225 . S
Zn139 O138 1.953 . S
Zn139 O140 1.949 . S
Zn139 O146 1.919 . S
Zn139 O151 1.924 . S
O140 Zn139 1.949 . S
O140 Zn141 1.923 . S
O140 Zn142 1.950 . S
O140 Zn143 1.945 . S
Zn141 O140 1.923 . S
Zn141 O144 1.933 . S
Zn141 O147 1.941 . S
Zn141 O148 1.965 . S
Zn142 O140 1.950 . S
Zn142 O149 1.938 . S
Zn142 O150 1.906 . S
Zn142 O160 1.953 . S
Zn143 O140 1.945 . S
Zn143 O145 1.932 . S
Zn143 O152 1.977 . S
Zn143 O153 1.910 . S
O144 Zn141 1.933 . S
O144 C155 1.226 . S
O145 Zn143 1.932 . S
O145 C155 1.307 . S
O146 Zn139 1.919 . S
O146 C157 1.253 . S
O147 Zn141 1.941 . S
O147 C157 1.283 . S
O148 Zn141 1.965 . S
O148 C156 1.303 . S
O149 Zn142 1.938 . S
O149 C156 1.247 . S
O150 Zn142 1.906 . S
O150 C158 1.304 . S
O151 Zn139 1.924 . S
O151 C159 1.311 . S
O152 Zn143 1.977 . S
O152 C158 1.272 . S
O153 Zn143 1.910 . S
O153 C159 1.231 . S
C154 O138 1.225 . S
C154 O160 1.298 . S
C155 O144 1.226 . S
C155 O145 1.307 . S
C156 O148 1.303 . S
C156 O149 1.247 . S
C157 O146 1.253 . S
C157 O147 1.283 . S
C158 O150 1.304 . S
C158 O152 1.272 . S
C159 O151 1.311 . S
C159 O153 1.231 . S
O160 Zn142 1.953 . S
O160 C154 1.298 . S
O161 Zn162 1.953 . S
O161 C177 1.225 . S
Zn162 O161 1.953 . S
Zn162 O163 1.949 . S
Zn162 O169 1.919 . S
Zn162 O174 1.924 . S
O163 Zn162 1.949 . S
O163 Zn164 1.923 . S
O163 Zn165 1.950 . S
O163 Zn166 1.945 . S
Zn164 O163 1.923 . S
Zn164 O167 1.933 . S
Zn164 O170 1.941 . S
Zn164 O171 1.965 . S
Zn165 O163 1.950 . S
Zn165 O172 1.938 . S
Zn165 O173 1.906 . S
Zn165 O183 1.953 . S
Zn166 O163 1.945 . S
Zn166 O168 1.932 . S
Zn166 O175 1.977 . S
Zn166 O176 1.910 . S
O167 Zn164 1.933 . S
O167 C178 1.226 . S
O168 Zn166 1.932 . S
O168 C178 1.307 . S
O169 Zn162 1.919 . S
O169 C180 1.253 . S
O170 Zn164 1.941 . S
O170 C180 1.283 . S
O171 Zn164 1.965 . S
O171 C179 1.303 . S
O172 Zn165 1.938 . S
O172 C179 1.247 . S
O173 Zn165 1.906 . S
O173 C181 1.304 . S
O174 Zn162 1.924 . S
O174 C182 1.311 . S
O175 Zn166 1.977 . S
O175 C181 1.272 . S
O176 Zn166 1.910 . S
O176 C182 1.231 . S
C177 O161 1.225 . S
C177 O183 1.298 . S
C178 O167 1.226 . S
C178 O168 1.307 . S
C179 O171 1.303 . S
C179 O172 1.247 . S
C180 O169 1.253 . S
C180 O170 1.283 . S
C181 O173 1.304 . S
C181 O175 1.272 . S
C182 O174 1.311 . S
C182 O176 1.231 . S
O183 Zn165 1.953 . S
O183 C177 1.298 . S
O184 Zn185 1.953 . S
O184 C200 1.225 . S
Zn185 O184 1.953 . S
Zn185 O186 1.949 . S
Zn185 O192 1.919 . S
Zn185 O197 1.924 . S
O186 Zn185 1.949 . S
O186 Zn187 1.923 . S
O186 Zn188 1.950 . S
O186 Zn189 1.945 . S
Zn187 O186 1.923 . S
Zn187 O190 1.933 . S
Zn187 O193 1.941 . S
Zn187 O194 1.965 . S
Zn188 O186 1.950 . S
Zn188 O195 1.938 . S
Zn188 O196 1.906 . S
Zn188 O206 1.953 . S
Zn189 O186 1.945 . S
Zn189 O191 1.932 . S
Zn189 O198 1.977 . S
Zn189 O199 1.910 . S
O190 Zn187 1.933 . S
O190 C201 1.226 . S
O191 Zn189 1.932 . S
O191 C201 1.307 . S
O192 Zn185 1.919 . S
O192 C203 1.253 . S
O193 Zn187 1.941 . S
O193 C203 1.283 . S
O194 Zn187 1.965 . S
O194 C202 1.303 . S
O195 Zn188 1.938 . S
O195 C202 1.247 . S
O196 Zn188 1.906 . S
O196 C204 1.304 . S
O197 Zn185 1.924 . S
O197 C205 1.311 . S
O198 Zn189 1.977 . S
O198 C204 1.272 . S
O199 Zn189 1.910 . S
O199 C205 1.231 . S
C200 O184 1.225 . S
C200 O206 1.298 . S
C201 O190 1.226 . S
C201 O191 1.307 . S
C202 O194 1.303 . S
C202 O195 1.247 . S
C203 O192 1.253 . S
C203 O193 1.283 . S
C204 O196 1.304 . S
C204 O198 1.272 . S
C205 O197 1.311 . S
C205 O199 1.231 . S
O206 Zn188 1.953 . S
O206 C200 1.298 . S
O207 Zn208 1.953 . S
O207 C223 1.225 . S
Zn208 O207 1.953 . S
Zn208 O209 1.949 . S
Zn208 O215 1.919 . S
Zn208 O220 1.924 . S
O209 Zn208 1.949 . S
O209 Zn210 1.923 . S
O209 Zn211 1.950 . S
O209 Zn212 1.945 . S
Zn210 O209 1.923 . S
Zn210 O213 1.933 . S
Zn210 O216 1.941 . S
Zn210 O217 1.965 . S
Zn211 O209 1.950 . S
Zn211 O218 1.938 . S
Zn211 O219 1.906 . S
Zn211 O229 1.953 . S
Zn212 O209 1.945 . S
Zn212 O214 1.932 . S
Zn212 O221 1.977 . S
Zn212 O222 1.910 . S
O213 Zn210 1.933 . S
O213 C224 1.226 . S
O214 Zn212 1.932 . S
O214 C224 1.307 . S
O215 Zn208 1.919 . S
O215 C226 1.253 . S
O216 Zn210 1.941 . S
O216 C226 1.283 . S
O217 Zn210 1.965 . S
O217 C225 1.303 . S
O218 Zn211 1.938 . S
O218 C225 1.247 . S
O219 Zn211 1.906 . S
O219 C227 1.304 . S
O220 Zn208 1.924 . S
O220 C228 1.311 . S
O221 Zn212 1.977 . S
O221 C227 1.272 . S
O222 Zn212 1.910 . S
O222 C228 1.231 . S
C223 O207 1.225 . S
C223 O229 1.298 . S
C224 O213 1.226 . S
C224 O214 1.307 . S
C225 O217 1.303 . S
C225 O218 1.247 . S
C226 O215 1.253 . S
C226 O216 1.283 . S
C227 O219 1.304 . S
C227 O221 1.272 . S
C228 O220 1.311 . S
C228 O222 1.231 . S
O229 Zn211 1.953 . S
O229 C223 1.298 . S
O230 Zn231 1.953 . S
O230 C246 1.225 . S
Zn231 O230 1.953 . S
Zn231 O232 1.949 . S
Zn231 O238 1.919 . S
Zn231 O243 1.924 . S
O232 Zn231 1.949 . S
O232 Zn233 1.923 . S
O232 Zn234 1.950 . S
O232 Zn235 1.945 . S
Zn233 O232 1.923 . S
Zn233 O236 1.933 . S
Zn233 O239 1.941 . S
Zn233 O240 1.965 . S
Zn234 O232 1.950 . S
Zn234 O241 1.938 . S
Zn234 O242 1.906 . S
Zn234 O252 1.953 . S
Zn235 O232 1.945 . S
Zn235 O237 1.932 . S
Zn235 O244 1.977 . S
Zn235 O245 1.910 . S
O236 Zn233 1.933 . S
O236 C247 1.226 . S
O237 Zn235 1.932 . S
O237 C247 1.307 . S
O238 Zn231 1.919 . S
O238 C249 1.253 . S
O239 Zn233 1.941 . S
O239 C249 1.283 . S
O240 Zn233 1.965 . S
O240 C248 1.303 . S
O241 Zn234 1.938 . S
O241 C248 1.247 . S
O242 Zn234 1.906 . S
O242 C250 1.304 . S
O243 Zn231 1.924 . S
O243 C251 1.311 . S
O244 Zn235 1.977 . S
O244 C250 1.272 . S
O245 Zn235 1.910 . S
O245 C251 1.231 . S
C246 O230 1.225 . S
C246 O252 1.298 . S
C247 O236 1.226 . S
C247 O237 1.307 . S
C248 O240 1.303 . S
C248 O241 1.247 . S
C249 O238 1.253 . S
C249 O239 1.283 . S
C250 O242 1.304 . S
C250 O244 1.272 . S
C251 O243 1.311 . S
C251 O245 1.231 . S
O252 Zn234 1.953 . S
O252 C246 1.298 . S
O253 Zn254 1.953 . S
O253 C269 1.225 . S
Zn254 O253 1.953 . S
Zn254 O255 1.949 . S
Zn254 O261 1.919 . S
Zn254 O266 1.924 . S
O255 Zn254 1.949 . S
O255 Zn256 1.923 . S
O255 Zn257 1.950 . S
O255 Zn258 1.945 . S
Zn256 O255 1.923 . S
Zn256 O259 1.933 . S
Zn256 O262 1.941 . S
Zn256 O263 1.965 . S
Zn257 O255 1.950 . S
Zn257 O264 1.938 . S
Zn257 O265 1.906 . S
Zn257 O275 1.953 . S
Zn258 O255 1.945 . S
Zn258 O260 1.932 . S
Zn258 O267 1.977 . S
Zn258 O268 1.910 . S
O259 Zn256 1.933 . S
O259 C270 1.226 . S
O260 Zn258 1.932 . S
O260 C270 1.307 . S
O261 Zn254 1.919 . S
O261 C272 1.253 . S
O262 Zn256 1.941 . S
O262 C272 1.283 . S
O263 Zn256 1.965 . S
O263 C271 1.303 . S
O264 Zn257 1.938 . S
O264 C271 1.247 . S
O265 Zn257 1.906 . S
O265 C273 1.304 . S
O266 Zn254 1.924 . S
O266 C274 1.311 . S
O267 Zn258 1.977 . S
O267 C273 1.272 . S
O268 Zn258 1.910 . S
O268 C274 1.231 . S
C269 O253 1.225 . S
C269 O275 1.298 . S
C270 O259 1.226 . S
C270 O260 1.307 . S
C271 O263 1.303 . S
C271 O264 1.247 . S
C272 O261 1.253 . S
C272 O262 1.283 . S
C273 O265 1.304 . S
C273 O267 1.272 . S
C274 O266 1.311 . S
C274 O268 1.231 . S
O275 Zn257 1.953 . S
O275 C269 1.298 . S
O276 Zn277 1.953 . S
O276 C292 1.225 . S
Zn277 O276 1.953 . S
Zn277 O278 1.949 . S
Zn277 O284 1.919 . S
Zn277 O289 1.924 . S
O278 Zn277 1.949 . S
O278 Zn279 1.923 . S
O278 Zn280 1.950 . S
O278 Zn281 1.945 . S
Zn279 O278 1.923 . S
Zn279 O282 1.933 . S
Zn279 O285 1.941 . S
Zn279 O286 1.965 . S
Zn280 O278 1.950 . S
Zn280 O287 1.938 . S
Zn280 O288 1.906 . S
Zn280 O298 1.953 . S
Zn281 O278 1.945 . S
Zn281 O283 1.932 . S
Zn281 O290 1.977 . S
Zn281 O291 1.910 . S
O282 Zn279 1.933 . S
O282 C293 1.226 . S
O283 Zn281 1.932 . S
O283 C293 1.307 . S
O284 Zn277 1.919 . S
O284 C295 1.253 . S
O285 Zn279 1.941 . S
O285 C295 1.283 . S
O286 Zn279 1.965 . S
O286 C294 1.303 . S
O287 Zn280 1.938 . S
O287 C294 1.247 . S
O288 Zn280 1.906 . S
O288 C296 1.304 . S
O289 Zn277 1.924 . S
O289 C297 1.311 . S
O290 Zn281 1.977 . S
O290 C296 1.272 . S
O291 Zn281 1.910 . S
O291 C297 1.231 . S
C292 O276 1.225 . S
C292 O298 1.298 . S
C293 O282 1.226 . S
C293 O283 1.307 . S
C294 O286 1.303 . S
C294 O287 1.247 . S
C295 O284 1.253 . S
C295 O285 1.283 . S
C296 O288 1.304 . S
C296 O290 1.272 . S
C297 O289 1.311 . S
C297 O291 1.231 . S
O298 Zn280 1.953 . S
O298 C292 1.298 . S
O299 Zn300 1.953 . S
O299 C315 1.225 . S
Zn300 O299 1.953 . S
Zn300 O301 1.949 . S
Zn300 O307 1.919 . S
Zn300 O312 1.924 . S
O301 Zn300 1.949 . S
O301 Zn302 1.923 1_455 S
O301 Zn303 1.950 . S
O301 Zn304 1.945 . S
Zn302 O301 1.923 1_655 S
Zn302 O305 1.933 . S
Zn302 O308 1.941 . S
Zn302 O309 1.965 . S
Zn303 O301 1.950 . S
Zn303 O310 1.938 1_455 S
Zn303 O311 1.906 . S
Zn303 O321 1.953 . S
Zn304 O301 1.945 . S
Zn304 O306 1.932 1_455 S
Zn304 O313 1.977 . S
Zn304 O314 1.910 . S
O305 Zn302 1.933 . S
O305 C316 1.226 . S
O306 Zn304 1.932 1_655 S
O306 C316 1.307 . S
O307 Zn300 1.919 . S
O307 C318 1.253 1_455 S
O308 Zn302 1.941 . S
O308 C318 1.283 . S
O309 Zn302 1.965 . S
O309 C317 1.303 . S
O310 Zn303 1.938 1_655 S
O310 C317 1.247 . S
O311 Zn303 1.906 . S
O311 C319 1.304 . S
O312 Zn300 1.924 . S
O312 C320 1.311 . S
O313 Zn304 1.977 . S
O313 C319 1.272 . S
O314 Zn304 1.910 . S
O314 C320 1.231 . S
C315 O299 1.225 . S
C315 O321 1.298 . S
C316 O305 1.226 . S
C316 O306 1.307 . S
C317 O309 1.303 . S
C317 O310 1.247 . S
C318 O307 1.253 1_655 S
C318 O308 1.283 . S
C319 O311 1.304 . S
C319 O313 1.272 . S
C320 O312 1.311 . S
C320 O314 1.231 . S
O321 Zn303 1.953 . S
O321 C315 1.298 . S
O322 Zn323 1.953 . S
O322 C338 1.225 . S
Zn323 O322 1.953 . S
Zn323 O324 1.949 . S
Zn323 O330 1.919 . S
Zn323 O335 1.924 . S
O324 Zn323 1.949 . S
O324 Zn325 1.923 . S
O324 Zn326 1.950 . S
O324 Zn327 1.945 . S
Zn325 O324 1.923 . S
Zn325 O328 1.933 . S
Zn325 O331 1.941 . S
Zn325 O332 1.965 . S
Zn326 O324 1.950 . S
Zn326 O333 1.938 . S
Zn326 O334 1.906 . S
Zn326 O344 1.953 . S
Zn327 O324 1.945 . S
Zn327 O329 1.932 . S
Zn327 O336 1.977 . S
Zn327 O337 1.910 . S
O328 Zn325 1.933 . S
O328 C339 1.226 . S
O329 Zn327 1.932 . S
O329 C339 1.307 . S
O330 Zn323 1.919 . S
O330 C341 1.253 . S
O331 Zn325 1.941 . S
O331 C341 1.283 . S
O332 Zn325 1.965 . S
O332 C340 1.303 . S
O333 Zn326 1.938 . S
O333 C340 1.247 . S
O334 Zn326 1.906 . S
O334 C342 1.304 . S
O335 Zn323 1.924 . S
O335 C343 1.311 . S
O336 Zn327 1.977 . S
O336 C342 1.272 . S
O337 Zn327 1.910 . S
O337 C343 1.231 . S
C338 O322 1.225 . S
C338 O344 1.298 . S
C339 O328 1.226 . S
C339 O329 1.307 . S
C340 O332 1.303 . S
C340 O333 1.247 . S
C341 O330 1.253 . S
C341 O331 1.283 . S
C342 O334 1.304 . S
C342 O336 1.272 . S
C343 O335 1.311 . S
C343 O337 1.231 . S
O344 Zn326 1.953 . S
O344 C338 1.298 . S
O345 Zn346 1.953 . S
O345 C361 1.225 . S
Zn346 O345 1.953 . S
Zn346 O347 1.949 . S
Zn346 O353 1.919 . S
Zn346 O358 1.924 . S
O347 Zn346 1.949 . S
O347 Zn348 1.923 1_455 S
O347 Zn349 1.950 . S
O347 Zn350 1.945 . S
Zn348 O347 1.923 1_655 S
Zn348 O351 1.933 . S
Zn348 O354 1.941 . S
Zn348 O355 1.965 . S
Zn349 O347 1.950 . S
Zn349 O356 1.938 1_455 S
Zn349 O357 1.906 . S
Zn349 O367 1.953 . S
Zn350 O347 1.945 . S
Zn350 O352 1.932 1_455 S
Zn350 O359 1.977 . S
Zn350 O360 1.910 . S
O351 Zn348 1.933 . S
O351 C362 1.226 . S
O352 Zn350 1.932 1_655 S
O352 C362 1.307 . S
O353 Zn346 1.919 . S
O353 C364 1.253 1_455 S
O354 Zn348 1.941 . S
O354 C364 1.283 . S
O355 Zn348 1.965 . S
O355 C363 1.303 . S
O356 Zn349 1.938 1_655 S
O356 C363 1.247 . S
O357 Zn349 1.906 . S
O357 C365 1.304 . S
O358 Zn346 1.924 . S
O358 C366 1.311 . S
O359 Zn350 1.977 . S
O359 C365 1.272 . S
O360 Zn350 1.910 . S
O360 C366 1.231 . S
C361 O345 1.225 . S
C361 O367 1.298 . S
C362 O351 1.226 . S
C362 O352 1.307 . S
C363 O355 1.303 . S
C363 O356 1.247 . S
C364 O353 1.253 1_655 S
C364 O354 1.283 . S
C365 O357 1.304 . S
C365 O359 1.272 . S
C366 O358 1.311 . S
C366 O360 1.231 . S
O367 Zn349 1.953 . S
O367 C361 1.298 . S
H368 C376 0.929 . S
H369 C378 0.930 . S
H370 C380 0.930 . S
H371 C383 0.929 . S
H372 C386 0.930 . S
H373 C388 0.960 . S
H374 C388 0.960 . S
H375 C388 0.960 . S
C376 H368 0.929 . S
C376 C377 1.377 1_556 S
C376 C378 1.384 . S
C377 C376 1.377 1_554 S
C377 C383 1.390 . S
C378 H369 0.930 . S
C378 C376 1.384 . S
C378 C379 1.372 . S
C379 C378 1.372 . S
C379 C380 1.400 . S
C379 C384 1.490 . S
C380 H370 0.930 . S
C380 C379 1.400 . S
C380 C383 1.386 1_556 S
H381 C397 0.930 . S
H382 C398 0.931 . S
C383 H371 0.929 . S
C383 C377 1.390 . S
C383 C380 1.386 1_554 S
C384 C379 1.490 . S
C384 C386 1.395 . S
C384 C387 1.403 . S
H385 C391 0.930 . S
C386 H372 0.930 . S
C386 C384 1.395 . S
C386 C389 1.403 . S
C387 C384 1.403 . S
C387 C388 1.524 . S
C387 C391 1.400 . S
C388 H373 0.960 . S
C388 H374 0.960 . S
C388 H375 0.960 . S
C388 C387 1.524 . S
C389 C386 1.403 . S
C389 C390 1.392 . S
C389 C393 1.495 . S
C390 C389 1.392 . S
C390 C391 1.385 . S
C390 C392 1.478 . S
C391 H385 0.930 . S
C391 C387 1.400 . S
C391 C390 1.385 . S
C392 C390 1.478 . S
C392 C394 1.381 . S
C392 C398 1.383 . S
C393 C389 1.495 . S
C393 H399 0.959 . S
C393 H400 0.961 . S
C393 H401 0.960 . S
C394 C392 1.381 . S
C394 C395 1.394 . S
C394 H402 0.930 . S
C395 C394 1.394 . S
C395 C396 1.383 . S
C395 H403 0.929 . S
C396 C395 1.383 . S
C396 C397 1.377 . S
C397 H381 0.930 . S
C397 C396 1.377 . S
C397 C398 1.379 . S
C398 H382 0.931 . S
C398 C392 1.383 . S
C398 C397 1.379 . S
H399 C393 0.959 . S
H400 C393 0.961 . S
H401 C393 0.960 . S
H402 C394 0.930 . S
H403 C395 0.929 . S
H404 C412 0.929 . S
H405 C414 0.930 . S
H406 C416 0.930 . S
H407 C419 0.929 . S
H408 C422 0.930 . S
H409 C424 0.960 . S
H410 C424 0.960 . S
H411 C424 0.960 . S
C412 H404 0.929 . S
C412 C413 1.377 . S
C412 C414 1.384 . S
C413 C412 1.377 . S
C413 C419 1.390 . S
C414 H405 0.930 . S
C414 C412 1.384 . S
C414 C415 1.372 . S
C415 C414 1.372 . S
C415 C416 1.400 . S
C415 C420 1.490 . S
C416 H406 0.930 . S
C416 C415 1.400 . S
C416 C419 1.386 . S
H417 C433 0.930 . S
H418 C434 0.931 . S
C419 H407 0.929 . S
C419 C413 1.390 . S
C419 C416 1.386 . S
C420 C415 1.490 . S
C420 C422 1.395 . S
C420 C423 1.403 . S
H421 C427 0.930 . S
C422 H408 0.930 . S
C422 C420 1.395 . S
C422 C425 1.403 . S
C423 C420 1.403 . S
C423 C424 1.524 . S
C423 C427 1.400 . S
C424 H409 0.960 . S
C424 H410 0.960 . S
C424 H411 0.960 . S
C424 C423 1.524 . S
C425 C422 1.403 . S
C425 C426 1.392 . S
C425 C429 1.495 . S
C426 C425 1.392 . S
C426 C427 1.385 . S
C426 C428 1.478 . S
C427 H421 0.930 . S
C427 C423 1.400 . S
C427 C426 1.385 . S
C428 C426 1.478 . S
C428 C430 1.381 . S
C428 C434 1.383 . S
C429 C425 1.495 . S
C429 H435 0.959 . S
C429 H436 0.961 . S
C429 H437 0.960 . S
C430 C428 1.381 . S
C430 C431 1.394 . S
C430 H438 0.930 . S
C431 C430 1.394 . S
C431 C432 1.383 1_554 S
C431 H439 0.929 . S
C432 C431 1.383 1_556 S
C432 C433 1.377 . S
C433 H417 0.930 . S
C433 C432 1.377 . S
C433 C434 1.379 1_556 S
C434 H418 0.931 . S
C434 C428 1.383 . S
C434 C433 1.379 1_554 S
H435 C429 0.959 . S
H436 C429 0.961 . S
H437 C429 0.960 . S
H438 C430 0.930 . S
H439 C431 0.929 . S
H440 C448 0.929 . S
H441 C450 0.930 . S
H442 C452 0.930 . S
H443 C455 0.929 . S
H444 C458 0.930 . S
H445 C460 0.960 . S
H446 C460 0.960 . S
H447 C460 0.960 . S
C448 H440 0.929 . S
C448 C449 1.377 . S
C448 C450 1.384 . S
C449 C448 1.377 . S
C449 C455 1.390 . S
C450 H441 0.930 . S
C450 C448 1.384 . S
C450 C451 1.372 . S
C451 C450 1.372 . S
C451 C452 1.400 . S
C451 C456 1.490 . S
C452 H442 0.930 . S
C452 C451 1.400 . S
C452 C455 1.386 . S
H453 C469 0.930 . S
H454 C470 0.931 . S
C455 H443 0.929 . S
C455 C449 1.390 . S
C455 C452 1.386 . S
C456 C451 1.490 . S
C456 C458 1.395 . S
C456 C459 1.403 . S
H457 C463 0.930 . S
C458 H444 0.930 . S
C458 C456 1.395 . S
C458 C461 1.403 . S
C459 C456 1.403 . S
C459 C460 1.524 . S
C459 C463 1.400 . S
C460 H445 0.960 . S
C460 H446 0.960 . S
C460 H447 0.960 . S
C460 C459 1.524 . S
C461 C458 1.403 . S
C461 C462 1.392 . S
C461 C465 1.495 . S
C462 C461 1.392 . S
C462 C463 1.385 . S
C462 C464 1.478 . S
C463 H457 0.930 . S
C463 C459 1.400 . S
C463 C462 1.385 . S
C464 C462 1.478 . S
C464 C466 1.381 . S
C464 C470 1.383 . S
C465 C461 1.495 . S
C465 H471 0.959 . S
C465 H472 0.961 . S
C465 H473 0.960 . S
C466 C464 1.381 . S
C466 C467 1.394 . S
C466 H474 0.930 . S
C467 C466 1.394 . S
C467 C468 1.383 . S
C467 H475 0.929 . S
C468 C467 1.383 . S
C468 C469 1.377 . S
C469 H453 0.930 . S
C469 C468 1.377 . S
C469 C470 1.379 . S
C470 H454 0.931 . S
C470 C464 1.383 . S
C470 C469 1.379 . S
H471 C465 0.959 . S
H472 C465 0.961 . S
H473 C465 0.960 . S
H474 C466 0.930 . S
H475 C467 0.929 . S
H476 C484 0.929 . S
H477 C486 0.930 . S
H478 C488 0.930 . S
H479 C491 0.929 . S
H480 C494 0.930 . S
H481 C496 0.960 . S
H482 C496 0.960 . S
H483 C496 0.960 . S
C484 H476 0.929 . S
C484 C485 1.377 . S
C484 C486 1.384 . S
C485 C484 1.377 . S
C485 C491 1.390 . S
C486 H477 0.930 . S
C486 C484 1.384 . S
C486 C487 1.372 . S
C487 C486 1.372 . S
C487 C488 1.400 . S
C487 C492 1.490 . S
C488 H478 0.930 . S
C488 C487 1.400 . S
C488 C491 1.386 . S
H489 C505 0.930 . S
H490 C506 0.931 . S
C491 H479 0.929 . S
C491 C485 1.390 . S
C491 C488 1.386 . S
C492 C487 1.490 . S
C492 C494 1.395 . S
C492 C495 1.403 . S
H493 C499 0.930 . S
C494 H480 0.930 . S
C494 C492 1.395 . S
C494 C497 1.403 . S
C495 C492 1.403 . S
C495 C496 1.524 . S
C495 C499 1.400 . S
C496 H481 0.960 . S
C496 H482 0.960 . S
C496 H483 0.960 . S
C496 C495 1.524 . S
C497 C494 1.403 . S
C497 C498 1.392 . S
C497 C501 1.495 . S
C498 C497 1.392 . S
C498 C499 1.385 . S
C498 C500 1.478 . S
C499 H493 0.930 . S
C499 C495 1.400 . S
C499 C498 1.385 . S
C500 C498 1.478 . S
C500 C502 1.381 . S
C500 C506 1.383 . S
C501 C497 1.495 . S
C501 H507 0.959 . S
C501 H508 0.961 . S
C501 H509 0.960 . S
C502 C500 1.381 . S
C502 C503 1.394 . S
C502 H510 0.930 . S
C503 C502 1.394 . S
C503 C504 1.383 . S
C503 H511 0.929 . S
C504 C503 1.383 . S
C504 C505 1.377 . S
C505 H489 0.930 . S
C505 C504 1.377 . S
C505 C506 1.379 . S
C506 H490 0.931 . S
C506 C500 1.383 . S
C506 C505 1.379 . S
H507 C501 0.959 . S
H508 C501 0.961 . S
H509 C501 0.960 . S
H510 C502 0.930 . S
H511 C503 0.929 . S
H512 C520 0.929 . S
H513 C522 0.930 . S
H514 C524 0.930 . S
H515 C527 0.929 . S
H516 C530 0.930 . S
H517 C532 0.960 . S
H518 C532 0.960 . S
H519 C532 0.960 . S
C520 H512 0.929 . S
C520 C521 1.377 . S
C520 C522 1.384 . S
C521 C520 1.377 . S
C521 C527 1.390 . S
C522 H513 0.930 . S
C522 C520 1.384 . S
C522 C523 1.372 . S
C523 C522 1.372 . S
C523 C524 1.400 . S
C523 C528 1.490 . S
C524 H514 0.930 . S
C524 C523 1.400 . S
C524 C527 1.386 . S
H525 C541 0.930 . S
H526 C542 0.931 . S
C527 H515 0.929 . S
C527 C521 1.390 . S
C527 C524 1.386 . S
C528 C523 1.490 . S
C528 C530 1.395 . S
C528 C531 1.403 . S
H529 C535 0.930 . S
C530 H516 0.930 . S
C530 C528 1.395 . S
C530 C533 1.403 . S
C531 C528 1.403 . S
C531 C532 1.524 . S
C531 C535 1.400 . S
C532 H517 0.960 . S
C532 H518 0.960 . S
C532 H519 0.960 . S
C532 C531 1.524 . S
C533 C530 1.403 . S
C533 C534 1.392 . S
C533 C537 1.495 . S
C534 C533 1.392 . S
C534 C535 1.385 . S
C534 C536 1.478 . S
C535 H529 0.930 . S
C535 C531 1.400 . S
C535 C534 1.385 . S
C536 C534 1.478 . S
C536 C538 1.381 . S
C536 C542 1.383 . S
C537 C533 1.495 . S
C537 H543 0.959 . S
C537 H544 0.961 . S
C537 H545 0.960 . S
C538 C536 1.381 . S
C538 C539 1.394 1_554 S
C538 H546 0.930 . S
C539 C538 1.394 1_556 S
C539 C540 1.383 . S
C539 H547 0.929 . S
C540 C539 1.383 . S
C540 C541 1.377 1_556 S
C541 H525 0.930 . S
C541 C540 1.377 1_554 S
C541 C542 1.379 . S
C542 H526 0.931 . S
C542 C536 1.383 . S
C542 C541 1.379 . S
H543 C537 0.959 . S
H544 C537 0.961 . S
H545 C537 0.960 . S
H546 C538 0.930 . S
H547 C539 0.929 . S
H548 C556 0.929 . S
H549 C558 0.930 . S
H550 C560 0.930 . S
H551 C563 0.929 . S
H552 C566 0.930 . S
H553 C568 0.960 . S
H554 C568 0.960 . S
H555 C568 0.960 . S
C556 H548 0.929 . S
C556 C557 1.377 . S
C556 C558 1.384 . S
C557 C556 1.377 . S
C557 C563 1.390 . S
C558 H549 0.930 . S
C558 C556 1.384 . S
C558 C559 1.372 . S
C559 C558 1.372 . S
C559 C560 1.400 . S
C559 C564 1.490 . S
C560 H550 0.930 . S
C560 C559 1.400 . S
C560 C563 1.386 . S
H561 C577 0.930 1_554 S
H562 C578 0.931 . S
C563 H551 0.929 . S
C563 C557 1.390 . S
C563 C560 1.386 . S
C564 C559 1.490 . S
C564 C566 1.395 . S
C564 C567 1.403 . S
H565 C571 0.930 . S
C566 H552 0.930 . S
C566 C564 1.395 . S
C566 C569 1.403 . S
C567 C564 1.403 . S
C567 C568 1.524 . S
C567 C571 1.400 . S
C568 H553 0.960 . S
C568 H554 0.960 . S
C568 H555 0.960 . S
C568 C567 1.524 . S
C569 C566 1.403 . S
C569 C570 1.392 . S
C569 C573 1.495 . S
C570 C569 1.392 . S
C570 C571 1.385 . S
C570 C572 1.478 . S
C571 H565 0.930 . S
C571 C567 1.400 . S
C571 C570 1.385 . S
C572 C570 1.478 . S
C572 C574 1.381 . S
C572 C578 1.383 . S
C573 C569 1.495 . S
C573 H579 0.959 . S
C573 H580 0.961 . S
C573 H581 0.960 . S
C574 C572 1.381 . S
C574 C575 1.394 1_556 S
C574 H582 0.930 . S
C575 C574 1.394 1_554 S
C575 C576 1.383 . S
C575 H583 0.929 . S
C576 C575 1.383 . S
C576 C577 1.377 1_554 S
C577 H561 0.930 1_556 S
C577 C576 1.377 1_556 S
C577 C578 1.379 . S
C578 H562 0.931 . S
C578 C572 1.383 . S
C578 C577 1.379 . S
H579 C573 0.959 . S
H580 C573 0.961 . S
H581 C573 0.960 . S
H582 C574 0.930 . S
H583 C575 0.929 . S
H584 C592 0.929 . S
H585 C594 0.930 . S
H586 C596 0.930 . S
H587 C599 0.929 . S
H588 C602 0.930 . S
H589 C604 0.960 . S
H590 C604 0.960 . S
H591 C604 0.960 . S
C592 H584 0.929 . S
C592 C593 1.377 . S
C592 C594 1.384 . S
C593 C592 1.377 . S
C593 C599 1.390 . S
C594 H585 0.930 . S
C594 C592 1.384 . S
C594 C595 1.372 . S
C595 C594 1.372 . S
C595 C596 1.400 . S
C595 C600 1.490 . S
C596 H586 0.930 . S
C596 C595 1.400 . S
C596 C599 1.386 . S
H597 C613 0.930 . S
H598 C614 0.931 . S
C599 H587 0.929 . S
C599 C593 1.390 . S
C599 C596 1.386 . S
C600 C595 1.490 . S
C600 C602 1.395 . S
C600 C603 1.403 . S
H601 C607 0.930 . S
C602 H588 0.930 . S
C602 C600 1.395 . S
C602 C605 1.403 . S
C603 C600 1.403 . S
C603 C604 1.524 . S
C603 C607 1.400 . S
C604 H589 0.960 . S
C604 H590 0.960 . S
C604 H591 0.960 . S
C604 C603 1.524 . S
C605 C602 1.403 . S
C605 C606 1.392 . S
C605 C609 1.495 . S
C606 C605 1.392 . S
C606 C607 1.385 . S
C606 C608 1.478 . S
C607 H601 0.930 . S
C607 C603 1.400 . S
C607 C606 1.385 . S
C608 C606 1.478 . S
C608 C610 1.381 . S
C608 C614 1.383 . S
C609 C605 1.495 . S
C609 H615 0.959 . S
C609 H616 0.961 . S
C609 H617 0.960 . S
C610 C608 1.381 . S
C610 C611 1.394 . S
C610 H618 0.930 . S
C611 C610 1.394 . S
C611 C612 1.383 . S
C611 H619 0.929 . S
C612 C611 1.383 . S
C612 C613 1.377 . S
C613 H597 0.930 . S
C613 C612 1.377 . S
C613 C614 1.379 . S
C614 H598 0.931 . S
C614 C608 1.383 . S
C614 C613 1.379 . S
H615 C609 0.959 . S
H616 C609 0.961 . S
H617 C609 0.960 . S
H618 C610 0.930 . S
H619 C611 0.929 . S
H620 C628 0.929 . S
H621 C630 0.930 . S
H622 C632 0.930 . S
H623 C635 0.929 . S
H624 C638 0.930 . S
H625 C640 0.960 . S
H626 C640 0.960 . S
H627 C640 0.960 . S
C628 H620 0.929 . S
C628 C629 1.377 . S
C628 C630 1.384 . S
C629 C628 1.377 . S
C629 C635 1.390 . S
C630 H621 0.930 . S
C630 C628 1.384 . S
C630 C631 1.372 . S
C631 C630 1.372 . S
C631 C632 1.400 . S
C631 C636 1.490 . S
C632 H622 0.930 . S
C632 C631 1.400 . S
C632 C635 1.386 . S
H633 C649 0.930 . S
H634 C650 0.931 . S
C635 H623 0.929 . S
C635 C629 1.390 . S
C635 C632 1.386 . S
C636 C631 1.490 . S
C636 C638 1.395 . S
C636 C639 1.403 . S
H637 C643 0.930 . S
C638 H624 0.930 . S
C638 C636 1.395 . S
C638 C641 1.403 . S
C639 C636 1.403 . S
C639 C640 1.524 . S
C639 C643 1.400 . S
C640 H625 0.960 . S
C640 H626 0.960 . S
C640 H627 0.960 . S
C640 C639 1.524 . S
C641 C638 1.403 . S
C641 C642 1.392 . S
C641 C645 1.495 . S
C642 C641 1.392 . S
C642 C643 1.385 . S
C642 C644 1.478 . S
C643 H637 0.930 . S
C643 C639 1.400 . S
C643 C642 1.385 . S
C644 C642 1.478 . S
C644 C646 1.381 . S
C644 C650 1.383 . S
C645 C641 1.495 . S
C645 H651 0.959 . S
C645 H652 0.961 . S
C645 H653 0.960 . S
C646 C644 1.381 . S
C646 C647 1.394 . S
C646 H654 0.930 . S
C647 C646 1.394 . S
C647 C648 1.383 . S
C647 H655 0.929 . S
C648 C647 1.383 . S
C648 C649 1.377 . S
C649 H633 0.930 . S
C649 C648 1.377 . S
C649 C650 1.379 . S
C650 H634 0.931 . S
C650 C644 1.383 . S
C650 C649 1.379 . S
H651 C645 0.959 . S
H652 C645 0.961 . S
H653 C645 0.960 . S
H654 C646 0.930 . S
H655 C647 0.929 . S
H656 C664 0.929 . S
H657 C666 0.930 . S
H658 C668 0.930 . S
H659 C671 0.929 . S
H660 C674 0.930 . S
H661 C676 0.960 . S
H662 C676 0.960 . S
H663 C676 0.960 . S
C664 H656 0.929 . S
C664 C665 1.377 . S
C664 C666 1.384 . S
C665 C664 1.377 . S
C665 C671 1.390 . S
C666 H657 0.930 . S
C666 C664 1.384 . S
C666 C667 1.372 . S
C667 C666 1.372 . S
C667 C668 1.400 . S
C667 C672 1.490 . S
C668 H658 0.930 . S
C668 C667 1.400 . S
C668 C671 1.386 . S
H669 C685 0.930 . S
H670 C686 0.931 . S
C671 H659 0.929 . S
C671 C665 1.390 . S
C671 C668 1.386 . S
C672 C667 1.490 . S
C672 C674 1.395 . S
C672 C675 1.403 . S
H673 C679 0.930 . S
C674 H660 0.930 . S
C674 C672 1.395 . S
C674 C677 1.403 . S
C675 C672 1.403 . S
C675 C676 1.524 . S
C675 C679 1.400 . S
C676 H661 0.960 . S
C676 H662 0.960 . S
C676 H663 0.960 . S
C676 C675 1.524 . S
C677 C674 1.403 . S
C677 C678 1.392 . S
C677 C681 1.495 . S
C678 C677 1.392 . S
C678 C679 1.385 . S
C678 C680 1.478 . S
C679 H673 0.930 . S
C679 C675 1.400 . S
C679 C678 1.385 . S
C680 C678 1.478 . S
C680 C682 1.381 . S
C680 C686 1.383 . S
C681 C677 1.495 . S
C681 H687 0.959 . S
C681 H688 0.961 . S
C681 H689 0.960 . S
C682 C680 1.381 . S
C682 C683 1.394 . S
C682 H690 0.930 . S
C683 C682 1.394 . S
C683 C684 1.383 . S
C683 H691 0.929 . S
C684 C683 1.383 . S
C684 C685 1.377 . S
C685 H669 0.930 . S
C685 C684 1.377 . S
C685 C686 1.379 . S
C686 H670 0.931 . S
C686 C680 1.383 . S
C686 C685 1.379 . S
H687 C681 0.959 . S
H688 C681 0.961 . S
H689 C681 0.960 . S
H690 C682 0.930 . S
H691 C683 0.929 . S
H692 C700 0.929 . S
H693 C702 0.930 . S
H694 C704 0.930 . S
H695 C707 0.929 . S
H696 C710 0.930 . S
H697 C712 0.960 . S
H698 C712 0.960 . S
H699 C712 0.960 . S
C700 H692 0.929 . S
C700 C701 1.377 . S
C700 C702 1.384 . S
C701 C700 1.377 . S
C701 C707 1.390 . S
C702 H693 0.930 . S
C702 C700 1.384 . S
C702 C703 1.372 . S
C703 C702 1.372 . S
C703 C704 1.400 . S
C703 C708 1.490 . S
C704 H694 0.930 . S
C704 C703 1.400 . S
C704 C707 1.386 . S
H705 C721 0.930 . S
H706 C722 0.931 . S
C707 H695 0.929 . S
C707 C701 1.390 . S
C707 C704 1.386 . S
C708 C703 1.490 . S
C708 C710 1.395 . S
C708 C711 1.403 . S
H709 C715 0.930 . S
C710 H696 0.930 . S
C710 C708 1.395 . S
C710 C713 1.403 . S
C711 C708 1.403 . S
C711 C712 1.524 . S
C711 C715 1.400 . S
C712 H697 0.960 . S
C712 H698 0.960 . S
C712 H699 0.960 . S
C712 C711 1.524 . S
C713 C710 1.403 . S
C713 C714 1.392 . S
C713 C717 1.495 . S
C714 C713 1.392 . S
C714 C715 1.385 . S
C714 C716 1.478 . S
C715 H709 0.930 . S
C715 C711 1.400 . S
C715 C714 1.385 . S
C716 C714 1.478 . S
C716 C718 1.381 . S
C716 C722 1.383 . S
C717 C713 1.495 . S
C717 H723 0.959 . S
C717 H724 0.961 . S
C717 H725 0.960 . S
C718 C716 1.381 . S
C718 C719 1.394 . S
C718 H726 0.930 . S
C719 C718 1.394 . S
C719 C720 1.383 . S
C719 H727 0.929 . S
C720 C719 1.383 . S
C720 C721 1.377 . S
C721 H705 0.930 . S
C721 C720 1.377 . S
C721 C722 1.379 . S
C722 H706 0.931 . S
C722 C716 1.383 . S
C722 C721 1.379 . S
H723 C717 0.959 . S
H724 C717 0.961 . S
H725 C717 0.960 . S
H726 C718 0.930 . S
H727 C719 0.929 . S
H728 C736 0.929 . S
H729 C738 0.930 . S
H730 C740 0.930 . S
H731 C743 0.929 . S
H732 C746 0.930 . S
H733 C748 0.960 . S
H734 C748 0.960 . S
H735 C748 0.960 . S
C736 H728 0.929 . S
C736 C737 1.377 . S
C736 C738 1.384 1_554 S
C737 C736 1.377 . S
C737 C743 1.390 1_554 S
C738 H729 0.930 . S
C738 C736 1.384 1_556 S
C738 C739 1.372 . S
C739 C738 1.372 . S
C739 C740 1.400 . S
C739 C744 1.490 . S
C740 H730 0.930 . S
C740 C739 1.400 . S
C740 C743 1.386 . S
H741 C757 0.930 . S
H742 C758 0.931 . S
C743 H731 0.929 . S
C743 C737 1.390 1_556 S
C743 C740 1.386 . S
C744 C739 1.490 . S
C744 C746 1.395 . S
C744 C747 1.403 . S
H745 C751 0.930 . S
C746 H732 0.930 . S
C746 C744 1.395 . S
C746 C749 1.403 . S
C747 C744 1.403 . S
C747 C748 1.524 . S
C747 C751 1.400 . S
C748 H733 0.960 . S
C748 H734 0.960 . S
C748 H735 0.960 . S
C748 C747 1.524 . S
C749 C746 1.403 . S
C749 C750 1.392 . S
C749 C753 1.495 . S
C750 C749 1.392 . S
C750 C751 1.385 . S
C750 C752 1.478 . S
C751 H745 0.930 . S
C751 C747 1.400 . S
C751 C750 1.385 . S
C752 C750 1.478 . S
C752 C754 1.381 . S
C752 C758 1.383 . S
C753 C749 1.495 . S
C753 H759 0.959 . S
C753 H760 0.961 . S
C753 H761 0.960 . S
C754 C752 1.381 . S
C754 C755 1.394 . S
C754 H762 0.930 . S
C755 C754 1.394 . S
C755 C756 1.383 . S
C755 H763 0.929 . S
C756 C755 1.383 . S
C756 C757 1.377 . S
C757 H741 0.930 . S
C757 C756 1.377 . S
C757 C758 1.379 . S
C758 H742 0.931 . S
C758 C752 1.383 . S
C758 C757 1.379 . S
H759 C753 0.959 . S
H760 C753 0.961 . S
H761 C753 0.960 . S
H762 C754 0.930 . S
H763 C755 0.929 . S
H764 C772 0.929 . S
H765 C774 0.930 . S
H766 C776 0.930 . S
H767 C779 0.929 . S
H768 C782 0.930 . S
H769 C784 0.960 . S
H770 C784 0.960 . S
H771 C784 0.960 . S
C772 H764 0.929 . S
C772 C773 1.377 . S
C772 C774 1.384 . S
C773 C772 1.377 . S
C773 C779 1.390 . S
C774 H765 0.930 . S
C774 C772 1.384 . S
C774 C775 1.372 . S
C775 C774 1.372 . S
C775 C776 1.400 . S
C775 C780 1.490 . S
C776 H766 0.930 . S
C776 C775 1.400 . S
C776 C779 1.386 . S
H777 C793 0.930 . S
H778 C794 0.931 . S
C779 H767 0.929 . S
C779 C773 1.390 . S
C779 C776 1.386 . S
C780 C775 1.490 . S
C780 C782 1.395 . S
C780 C783 1.403 . S
H781 C787 0.930 . S
C782 H768 0.930 . S
C782 C780 1.395 . S
C782 C785 1.403 . S
C783 C780 1.403 . S
C783 C784 1.524 . S
C783 C787 1.400 . S
C784 H769 0.960 . S
C784 H770 0.960 . S
C784 H771 0.960 . S
C784 C783 1.524 . S
C785 C782 1.403 . S
C785 C786 1.392 . S
C785 C789 1.495 . S
C786 C785 1.392 . S
C786 C787 1.385 . S
C786 C788 1.478 . S
C787 H781 0.930 . S
C787 C783 1.400 . S
C787 C786 1.385 . S
C788 C786 1.478 . S
C788 C790 1.381 . S
C788 C794 1.383 . S
C789 C785 1.495 . S
C789 H795 0.959 . S
C789 H796 0.961 . S
C789 H797 0.960 . S
C790 C788 1.381 . S
C790 C791 1.394 1_554 S
C790 H798 0.930 . S
C791 C790 1.394 1_556 S
C791 C792 1.383 . S
C791 H799 0.929 . S
C792 C791 1.383 . S
C792 C793 1.377 1_556 S
C793 H777 0.930 . S
C793 C792 1.377 1_554 S
C793 C794 1.379 . S
C794 H778 0.931 . S
C794 C788 1.383 . S
C794 C793 1.379 . S
H795 C789 0.959 . S
H796 C789 0.961 . S
H797 C789 0.960 . S
H798 C790 0.930 . S
H799 C791 0.929 . S
H800 C808 0.929 . S
H801 C810 0.930 . S
H802 C812 0.930 . S
H803 C815 0.929 . S
H804 C818 0.930 . S
H805 C820 0.960 . S
H806 C820 0.960 . S
H807 C820 0.960 . S
C808 H800 0.929 . S
C808 C809 1.377 . S
C808 C810 1.384 . S
C809 C808 1.377 . S
C809 C815 1.390 . S
C810 H801 0.930 . S
C810 C808 1.384 . S
C810 C811 1.372 . S
C811 C810 1.372 . S
C811 C812 1.400 . S
C811 C816 1.490 . S
C812 H802 0.930 . S
C812 C811 1.400 . S
C812 C815 1.386 . S
H813 C829 0.930 . S
H814 C830 0.931 . S
C815 H803 0.929 . S
C815 C809 1.390 . S
C815 C812 1.386 . S
C816 C811 1.490 . S
C816 C818 1.395 . S
C816 C819 1.403 . S
H817 C823 0.930 . S
C818 H804 0.930 . S
C818 C816 1.395 . S
C818 C821 1.403 . S
C819 C816 1.403 . S
C819 C820 1.524 . S
C819 C823 1.400 . S
C820 H805 0.960 . S
C820 H806 0.960 . S
C820 H807 0.960 . S
C820 C819 1.524 . S
C821 C818 1.403 . S
C821 C822 1.392 . S
C821 C825 1.495 . S
C822 C821 1.392 . S
C822 C823 1.385 . S
C822 C824 1.478 . S
C823 H817 0.930 . S
C823 C819 1.400 . S
C823 C822 1.385 . S
C824 C822 1.478 . S
C824 C826 1.381 . S
C824 C830 1.383 . S
C825 C821 1.495 . S
C825 H831 0.959 . S
C825 H832 0.961 . S
C825 H833 0.960 . S
C826 C824 1.381 . S
C826 C827 1.394 . S
C826 H834 0.930 . S
C827 C826 1.394 . S
C827 C828 1.383 . S
C827 H835 0.929 . S
C828 C827 1.383 . S
C828 C829 1.377 . S
C829 H813 0.930 . S
C829 C828 1.377 . S
C829 C830 1.379 . S
C830 H814 0.931 . S
C830 C824 1.383 . S
C830 C829 1.379 . S
H831 C825 0.959 . S
H832 C825 0.961 . S
H833 C825 0.960 . S
H834 C826 0.930 . S
H835 C827 0.929 . S
H836 C844 0.929 . S
H837 C846 0.930 . S
H838 C848 0.930 . S
H839 C851 0.929 . S
H840 C854 0.930 . S
H841 C856 0.960 . S
H842 C856 0.960 . S
H843 C856 0.960 . S
C844 H836 0.929 . S
C844 C845 1.377 . S
C844 C846 1.384 . S
C845 C844 1.377 . S
C845 C851 1.390 . S
C846 H837 0.930 . S
C846 C844 1.384 . S
C846 C847 1.372 . S
C847 C846 1.372 . S
C847 C848 1.400 . S
C847 C852 1.490 . S
C848 H838 0.930 . S
C848 C847 1.400 . S
C848 C851 1.386 . S
H849 C865 0.930 . S
H850 C866 0.931 . S
C851 H839 0.929 . S
C851 C845 1.390 . S
C851 C848 1.386 . S
C852 C847 1.490 . S
C852 C854 1.395 . S
C852 C855 1.403 . S
H853 C859 0.930 . S
C854 H840 0.930 . S
C854 C852 1.395 . S
C854 C857 1.403 . S
C855 C852 1.403 . S
C855 C856 1.524 . S
C855 C859 1.400 . S
C856 H841 0.960 . S
C856 H842 0.960 . S
C856 H843 0.960 . S
C856 C855 1.524 . S
C857 C854 1.403 . S
C857 C858 1.392 . S
C857 C861 1.495 . S
C858 C857 1.392 . S
C858 C859 1.385 . S
C858 C860 1.478 . S
C859 H853 0.930 . S
C859 C855 1.400 . S
C859 C858 1.385 . S
C860 C858 1.478 . S
C860 C862 1.381 . S
C860 C866 1.383 . S
C861 C857 1.495 . S
C861 H867 0.959 . S
C861 H868 0.961 . S
C861 H869 0.960 . S
C862 C860 1.381 . S
C862 C863 1.394 . S
C862 H870 0.930 . S
C863 C862 1.394 . S
C863 C864 1.383 . S
C863 H871 0.929 . S
C864 C863 1.383 . S
C864 C865 1.377 . S
C865 H849 0.930 . S
C865 C864 1.377 . S
C865 C866 1.379 . S
C866 H850 0.931 . S
C866 C860 1.383 . S
C866 C865 1.379 . S
H867 C861 0.959 . S
H868 C861 0.961 . S
H869 C861 0.960 . S
H870 C862 0.930 . S
H871 C863 0.929 . S
H872 C880 0.929 . S
H873 C882 0.930 . S
H874 C884 0.930 . S
H875 C887 0.929 . S
H876 C890 0.930 . S
H877 C892 0.960 . S
H878 C892 0.960 . S
H879 C892 0.960 . S
C880 H872 0.929 . S
C880 C881 1.377 . S
C880 C882 1.384 . S
C881 C880 1.377 . S
C881 C887 1.390 . S
C882 H873 0.930 . S
C882 C880 1.384 . S
C882 C883 1.372 . S
C883 C882 1.372 . S
C883 C884 1.400 . S
C883 C888 1.490 . S
C884 H874 0.930 . S
C884 C883 1.400 . S
C884 C887 1.386 . S
H885 C901 0.930 . S
H886 C902 0.931 . S
C887 H875 0.929 . S
C887 C881 1.390 . S
C887 C884 1.386 . S
C888 C883 1.490 . S
C888 C890 1.395 . S
C888 C891 1.403 . S
H889 C895 0.930 . S
C890 H876 0.930 . S
C890 C888 1.395 . S
C890 C893 1.403 . S
C891 C888 1.403 . S
C891 C892 1.524 . S
C891 C895 1.400 . S
C892 H877 0.960 . S
C892 H878 0.960 . S
C892 H879 0.960 . S
C892 C891 1.524 . S
C893 C890 1.403 . S
C893 C894 1.392 . S
C893 C897 1.495 . S
C894 C893 1.392 . S
C894 C895 1.385 . S
C894 C896 1.478 . S
C895 H889 0.930 . S
C895 C891 1.400 . S
C895 C894 1.385 . S
C896 C894 1.478 . S
C896 C898 1.381 . S
C896 C902 1.383 . S
C897 C893 1.495 . S
C897 H903 0.959 . S
C897 H904 0.961 . S
C897 H905 0.960 . S
C898 C896 1.381 . S
C898 C899 1.394 1_554 S
C898 H906 0.930 . S
C899 C898 1.394 1_556 S
C899 C900 1.383 . S
C899 H907 0.929 . S
C900 C899 1.383 . S
C900 C901 1.377 1_556 S
C901 H885 0.930 . S
C901 C900 1.377 1_554 S
C901 C902 1.379 . S
C902 H886 0.931 . S
C902 C896 1.383 . S
C902 C901 1.379 . S
H903 C897 0.959 . S
H904 C897 0.961 . S
H905 C897 0.960 . S
H906 C898 0.930 . S
H907 C899 0.929 . S
H908 C916 0.929 . S
H909 C918 0.930 . S
H910 C920 0.930 . S
H911 C923 0.929 . S
H912 C926 0.930 . S
H913 C928 0.960 . S
H914 C928 0.960 . S
H915 C928 0.960 . S
C916 H908 0.929 . S
C916 C917 1.377 . S
C916 C918 1.384 . S
C917 C916 1.377 . S
C917 C923 1.390 . S
C918 H909 0.930 . S
C918 C916 1.384 . S
C918 C919 1.372 . S
C919 C918 1.372 . S
C919 C920 1.400 . S
C919 C924 1.490 . S
C920 H910 0.930 . S
C920 C919 1.400 . S
C920 C923 1.386 . S
H921 C937 0.930 . S
H922 C938 0.931 . S
C923 H911 0.929 . S
C923 C917 1.390 . S
C923 C920 1.386 . S
C924 C919 1.490 . S
C924 C926 1.395 . S
C924 C927 1.403 . S
H925 C931 0.930 . S
C926 H912 0.930 . S
C926 C924 1.395 . S
C926 C929 1.403 . S
C927 C924 1.403 . S
C927 C928 1.524 . S
C927 C931 1.400 . S
C928 H913 0.960 . S
C928 H914 0.960 . S
C928 H915 0.960 . S
C928 C927 1.524 . S
C929 C926 1.403 . S
C929 C930 1.392 . S
C929 C933 1.495 . S
C930 C929 1.392 . S
C930 C931 1.385 . S
C930 C932 1.478 . S
C931 H925 0.930 . S
C931 C927 1.400 . S
C931 C930 1.385 . S
C932 C930 1.478 . S
C932 C934 1.381 . S
C932 C938 1.383 . S
C933 C929 1.495 . S
C933 H939 0.959 . S
C933 H940 0.961 . S
C933 H941 0.960 . S
C934 C932 1.381 . S
C934 C935 1.394 1_556 S
C934 H942 0.930 . S
C935 C934 1.394 1_554 S
C935 C936 1.383 . S
C935 H943 0.929 . S
C936 C935 1.383 . S
C936 C937 1.377 1_554 S
C937 H921 0.930 . S
C937 C936 1.377 1_556 S
C937 C938 1.379 . S
C938 H922 0.931 . S
C938 C932 1.383 . S
C938 C937 1.379 . S
H939 C933 0.959 . S
H940 C933 0.961 . S
H941 C933 0.960 . S
H942 C934 0.930 . S
H943 C935 0.929 . S
H944 C952 0.929 . S
H945 C954 0.930 . S
H946 C956 0.930 1_455 S
H947 C959 0.929 . S
H948 C962 0.930 . S
H949 C964 0.960 . S
H950 C964 0.960 . S
H951 C964 0.960 . S
C952 H944 0.929 . S
C952 C953 1.377 . S
C952 C954 1.384 . S
C953 C952 1.377 . S
C953 C959 1.390 . S
C954 H945 0.930 . S
C954 C952 1.384 . S
C954 C955 1.372 . S
C955 C954 1.372 . S
C955 C956 1.399 . S
C955 C960 1.491 1_655 S
C956 H946 0.930 1_655 S
C956 C955 1.399 . S
C956 C959 1.386 . S
H957 C973 0.930 . S
H958 C974 0.931 . S
C959 H947 0.929 . S
C959 C953 1.390 . S
C959 C956 1.386 . S
C960 C955 1.491 1_455 S
C960 C962 1.395 . S
C960 C963 1.403 1_455 S
H961 C967 0.930 . S
C962 H948 0.930 . S
C962 C960 1.395 . S
C962 C965 1.403 . S
C963 C960 1.403 1_655 S
C963 C964 1.524 . S
C963 C967 1.400 . S
C964 H949 0.960 . S
C964 H950 0.960 . S
C964 H951 0.960 . S
C964 C963 1.524 . S
C965 C962 1.403 . S
C965 C966 1.392 . S
C965 C969 1.495 . S
C966 C965 1.392 . S
C966 C967 1.385 1_455 S
C966 C968 1.478 . S
C967 H961 0.930 . S
C967 C963 1.400 . S
C967 C966 1.385 1_655 S
C968 C966 1.478 . S
C968 C970 1.381 . S
C968 C974 1.383 . S
C969 C965 1.495 . S
C969 H975 0.959 . S
C969 H976 0.961 . S
C969 H977 0.960 . S
C970 C968 1.381 . S
C970 C971 1.394 . S
C970 H978 0.930 . S
C971 C970 1.394 . S
C971 C972 1.383 . S
C971 H979 0.929 . S
C972 C971 1.383 . S
C972 C973 1.377 . S
C973 H957 0.930 . S
C973 C972 1.377 . S
C973 C974 1.379 . S
C974 H958 0.931 . S
C974 C968 1.383 . S
C974 C973 1.379 . S
H975 C969 0.959 . S
H976 C969 0.961 . S
H977 C969 0.960 . S
H978 C970 0.930 . S
H979 C971 0.929 . S
H980 C988 0.929 . S
H981 C990 0.930 . S
H982 C992 0.930 . S
H983 C995 0.929 . S
H984 C998 0.928 . S
H985 C1000 0.960 . S
H986 C1000 0.960 . S
H987 C1000 0.960 . S
C988 H980 0.929 . S
C988 C989 1.377 . S
C988 C990 1.384 . S
C989 C988 1.377 . S
C989 C995 1.390 . S
C990 H981 0.930 . S
C990 C988 1.384 . S
C990 C991 1.372 . S
C991 C990 1.372 . S
C991 C992 1.400 . S
C991 C996 1.490 . S
C992 H982 0.930 . S
C992 C991 1.400 . S
C992 C995 1.386 . S
H993 C1009 0.930 . S
H994 C1010 0.931 . S
C995 H983 0.929 . S
C995 C989 1.390 . S
C995 C992 1.386 . S
C996 C991 1.490 . S
C996 C998 1.392 . S
C996 C999 1.403 . S
H997 C1003 0.930 . S
C998 H984 0.928 . S
C998 C996 1.392 . S
C998 C1001 1.407 1_655 S
C999 C996 1.403 . S
C999 C1000 1.524 . S
C999 C1003 1.400 1_655 S
C1000 H985 0.960 . S
C1000 H986 0.960 . S
C1000 H987 0.960 . S
C1000 C999 1.524 . S
C1001 C998 1.407 1_455 S
C1001 C1002 1.392 . S
C1001 C1005 1.495 . S
C1002 C1001 1.392 . S
C1002 C1003 1.385 . S
C1002 C1004 1.478 . S
C1003 H997 0.930 . S
C1003 C999 1.400 1_455 S
C1003 C1002 1.385 . S
C1004 C1002 1.478 . S
C1004 C1006 1.381 . S
C1004 C1010 1.383 . S
C1005 C1001 1.495 . S
C1005 H1011 0.959 . S
C1005 H1012 0.961 . S
C1005 H1013 0.960 . S
C1006 C1004 1.381 . S
C1006 C1007 1.394 . S
C1006 H1014 0.930 . S
C1007 C1006 1.394 . S
C1007 C1008 1.383 . S
C1007 H1015 0.929 . S
C1008 C1007 1.383 . S
C1008 C1009 1.377 . S
C1009 H993 0.930 . S
C1009 C1008 1.377 . S
C1009 C1010 1.379 . S
C1010 H994 0.931 . S
C1010 C1004 1.383 . S
C1010 C1009 1.379 . S
H1011 C1005 0.959 . S
H1012 C1005 0.961 . S
H1013 C1005 0.960 . S
H1014 C1006 0.930 . S
H1015 C1007 0.929 . S
H1016 C1024 0.929 . S
H1017 C1026 0.930 . S
H1018 C1028 0.930 . S
H1019 C1031 0.929 . S
H1020 C1034 0.930 . S
H1021 C1036 0.960 . S
H1022 C1036 0.960 . S
H1023 C1036 0.960 . S
C1024 H1016 0.929 . S
C1024 C1025 1.377 . S
C1024 C1026 1.384 . S
C1025 C1024 1.377 . S
C1025 C1031 1.390 . S
C1026 H1017 0.930 . S
C1026 C1024 1.384 . S
C1026 C1027 1.372 . S
C1027 C1026 1.372 . S
C1027 C1028 1.400 . S
C1027 C1032 1.490 . S
C1028 H1018 0.930 . S
C1028 C1027 1.400 . S
C1028 C1031 1.386 . S
H1029 C1045 0.930 . S
H1030 C1046 0.931 . S
C1031 H1019 0.929 . S
C1031 C1025 1.390 . S
C1031 C1028 1.386 . S
C1032 C1027 1.490 . S
C1032 C1034 1.395 . S
C1032 C1035 1.403 . S
H1033 C1039 0.930 . S
C1034 H1020 0.930 . S
C1034 C1032 1.395 . S
C1034 C1037 1.403 . S
C1035 C1032 1.403 . S
C1035 C1036 1.524 . S
C1035 C1039 1.400 . S
C1036 H1021 0.960 . S
C1036 H1022 0.960 . S
C1036 H1023 0.960 . S
C1036 C1035 1.524 . S
C1037 C1034 1.403 . S
C1037 C1038 1.392 . S
C1037 C1041 1.495 . S
C1038 C1037 1.392 . S
C1038 C1039 1.385 . S
C1038 C1040 1.478 . S
C1039 H1033 0.930 . S
C1039 C1035 1.400 . S
C1039 C1038 1.385 . S
C1040 C1038 1.478 . S
C1040 C1042 1.381 . S
C1040 C1046 1.383 . S
C1041 C1037 1.495 . S
C1041 H1047 0.959 . S
C1041 H1048 0.961 . S
C1041 H1049 0.960 . S
C1042 C1040 1.381 . S
C1042 C1043 1.394 . S
C1042 H1050 0.930 . S
C1043 C1042 1.394 . S
C1043 C1044 1.383 . S
C1043 H1051 0.929 . S
C1044 C1043 1.383 . S
C1044 C1045 1.377 . S
C1045 H1029 0.930 . S
C1045 C1044 1.377 . S
C1045 C1046 1.379 . S
C1046 H1030 0.931 . S
C1046 C1040 1.383 . S
C1046 C1045 1.379 . S
H1047 C1041 0.959 . S
H1048 C1041 0.961 . S
H1049 C1041 0.960 . S
H1050 C1042 0.930 . S
H1051 C1043 0.929 . S
H1052 C1060 0.929 . S
H1053 C1062 0.930 . S
H1054 C1064 0.930 . S
H1055 C1067 0.929 . S
H1056 C1070 0.930 . S
H1057 C1072 0.960 . S
H1058 C1072 0.960 . S
H1059 C1072 0.960 . S
C1060 H1052 0.929 . S
C1060 C1061 1.377 . S
C1060 C1062 1.384 . S
C1061 C1060 1.377 . S
C1061 C1067 1.390 . S
C1062 H1053 0.930 . S
C1062 C1060 1.384 . S
C1062 C1063 1.372 . S
C1063 C1062 1.372 . S
C1063 C1064 1.400 . S
C1063 C1068 1.490 . S
C1064 H1054 0.930 . S
C1064 C1063 1.400 . S
C1064 C1067 1.386 . S
H1065 C1081 0.930 . S
H1066 C1082 0.931 . S
C1067 H1055 0.929 . S
C1067 C1061 1.390 . S
C1067 C1064 1.386 . S
C1068 C1063 1.490 . S
C1068 C1070 1.395 . S
C1068 C1071 1.403 . S
H1069 C1075 0.930 . S
C1070 H1056 0.930 . S
C1070 C1068 1.395 . S
C1070 C1073 1.403 . S
C1071 C1068 1.403 . S
C1071 C1072 1.524 . S
C1071 C1075 1.400 . S
C1072 H1057 0.960 . S
C1072 H1058 0.960 . S
C1072 H1059 0.960 . S
C1072 C1071 1.524 . S
C1073 C1070 1.403 . S
C1073 C1074 1.392 . S
C1073 C1077 1.495 . S
C1074 C1073 1.392 . S
C1074 C1075 1.385 . S
C1074 C1076 1.478 . S
C1075 H1069 0.930 . S
C1075 C1071 1.400 . S
C1075 C1074 1.385 . S
C1076 C1074 1.478 . S
C1076 C1078 1.381 . S
C1076 C1082 1.383 . S
C1077 C1073 1.495 . S
C1077 H1083 0.959 . S
C1077 H1084 0.961 . S
C1077 H1085 0.960 . S
C1078 C1076 1.381 . S
C1078 C1079 1.394 . S
C1078 H1086 0.930 . S
C1079 C1078 1.394 . S
C1079 C1080 1.383 . S
C1079 H1087 0.929 . S
C1080 C1079 1.383 . S
C1080 C1081 1.377 . S
C1081 H1065 0.930 . S
C1081 C1080 1.377 . S
C1081 C1082 1.379 . S
C1082 H1066 0.931 . S
C1082 C1076 1.383 . S
C1082 C1081 1.379 . S
H1083 C1077 0.959 . S
H1084 C1077 0.961 . S
H1085 C1077 0.960 . S
H1086 C1078 0.930 . S
H1087 C1079 0.929 . S
H1088 C1096 0.929 . S
H1089 C1098 0.930 . S
H1090 C1100 0.924 . S
H1091 C1103 0.929 1_655 S
H1092 C1106 0.930 . S
H1093 C1108 0.960 . S
H1094 C1108 0.960 1_455 S
H1095 C1108 0.960 . S
C1096 H1088 0.929 . S
C1096 C1097 1.377 . S
C1096 C1098 1.384 . S
C1097 C1096 1.377 . S
C1097 C1103 1.390 . S
C1098 H1089 0.930 . S
C1098 C1096 1.384 . S
C1098 C1099 1.372 . S
C1099 C1098 1.372 . S
C1099 C1100 1.405 1_455 S
C1099 C1104 1.490 . S
C1100 H1090 0.924 . S
C1100 C1099 1.405 1_655 S
C1100 C1103 1.387 1_655 S
H1101 C1117 0.930 . S
H1102 C1118 0.931 . S
C1103 H1091 0.929 1_455 S
C1103 C1097 1.390 . S
C1103 C1100 1.387 1_455 S
C1104 C1099 1.490 . S
C1104 C1106 1.395 . S
C1104 C1107 1.403 . S
H1105 C1111 0.930 . S
C1106 H1092 0.930 . S
C1106 C1104 1.395 . S
C1106 C1109 1.403 . S
C1107 C1104 1.403 . S
C1107 C1108 1.524 1_455 S
C1107 C1111 1.400 1_455 S
C1108 H1093 0.960 . S
C1108 H1094 0.960 1_655 S
C1108 H1095 0.960 . S
C1108 C1107 1.524 1_655 S
C1109 C1106 1.403 . S
C1109 C1110 1.392 . S
C1109 C1113 1.495 . S
C1110 C1109 1.392 . S
C1110 C1111 1.385 1_455 S
C1110 C1112 1.478 . S
C1111 H1105 0.930 . S
C1111 C1107 1.400 1_655 S
C1111 C1110 1.385 1_655 S
C1112 C1110 1.478 . S
C1112 C1114 1.381 . S
C1112 C1118 1.383 1_455 S
C1113 C1109 1.495 . S
C1113 H1119 0.959 . S
C1113 H1120 0.961 . S
C1113 H1121 0.960 . S
C1114 C1112 1.381 . S
C1114 C1115 1.394 . S
C1114 H1122 0.930 . S
C1115 C1114 1.394 . S
C1115 C1116 1.383 1_455 S
C1115 H1123 0.929 . S
C1116 C1115 1.383 1_655 S
C1116 C1117 1.377 . S
C1117 H1101 0.930 . S
C1117 C1116 1.377 . S
C1117 C1118 1.379 . S
C1118 H1102 0.931 . S
C1118 C1112 1.383 1_655 S
C1118 C1117 1.379 . S
H1119 C1113 0.959 . S
H1120 C1113 0.961 . S
H1121 C1113 0.960 . S
H1122 C1114 0.930 . S
H1123 C1115 0.929 . S
H1124 C1132 0.929 . S
H1125 C1134 0.930 . S
H1126 C1136 0.930 . S
H1127 C1139 0.929 . S
H1128 C1142 0.930 . S
H1129 C1144 0.960 . S
H1130 C1144 0.960 . S
H1131 C1144 0.960 . S
C1132 H1124 0.929 . S
C1132 C1133 1.377 . S
C1132 C1134 1.384 . S
C1133 C1132 1.377 . S
C1133 C1139 1.390 . S
C1134 H1125 0.930 . S
C1134 C1132 1.384 . S
C1134 C1135 1.372 . S
C1135 C1134 1.372 . S
C1135 C1136 1.400 . S
C1135 C1140 1.490 . S
C1136 H1126 0.930 . S
C1136 C1135 1.400 . S
C1136 C1139 1.386 . S
H1137 C1153 0.930 . S
H1138 C1154 0.931 . S
C1139 H1127 0.929 . S
C1139 C1133 1.390 . S
C1139 C1136 1.386 . S
C1140 C1135 1.490 . S
C1140 C1142 1.395 . S
C1140 C1143 1.403 . S
H1141 C1147 0.930 . S
C1142 H1128 0.930 . S
C1142 C1140 1.395 . S
C1142 C1145 1.403 . S
C1143 C1140 1.403 . S
C1143 C1144 1.524 . S
C1143 C1147 1.400 . S
C1144 H1129 0.960 . S
C1144 H1130 0.960 . S
C1144 H1131 0.960 . S
C1144 C1143 1.524 . S
C1145 C1142 1.403 . S
C1145 C1146 1.392 . S
C1145 C1149 1.495 . S
C1146 C1145 1.392 . S
C1146 C1147 1.385 . S
C1146 C1148 1.478 . S
C1147 H1141 0.930 . S
C1147 C1143 1.400 . S
C1147 C1146 1.385 . S
C1148 C1146 1.478 . S
C1148 C1150 1.381 . S
C1148 C1154 1.383 . S
C1149 C1145 1.495 . S
C1149 H1155 0.959 . S
C1149 H1156 0.961 . S
C1149 H1157 0.960 . S
C1150 C1148 1.381 . S
C1150 C1151 1.394 . S
C1150 H1158 0.930 . S
C1151 C1150 1.394 . S
C1151 C1152 1.383 . S
C1151 H1159 0.929 . S
C1152 C1151 1.383 . S
C1152 C1153 1.377 . S
C1153 H1137 0.930 . S
C1153 C1152 1.377 . S
C1153 C1154 1.379 . S
C1154 H1138 0.931 . S
C1154 C1148 1.383 . S
C1154 C1153 1.379 . S
H1155 C1149 0.959 . S
H1156 C1149 0.961 . S
H1157 C1149 0.960 . S
H1158 C1150 0.930 . S
H1159 C1151 0.929 . S
H1160 C1168 0.929 . S
H1161 C1170 0.930 . S
H1162 C1172 0.930 . S
H1163 C1175 0.929 . S
H1164 C1178 0.930 . S
H1165 C1180 0.960 . S
H1166 C1180 0.960 . S
H1167 C1180 0.960 . S
C1168 H1160 0.929 . S
C1168 C1169 1.377 . S
C1168 C1170 1.384 . S
C1169 C1168 1.377 . S
C1169 C1175 1.390 . S
C1170 H1161 0.930 . S
C1170 C1168 1.384 . S
C1170 C1171 1.372 . S
C1171 C1170 1.372 . S
C1171 C1172 1.400 . S
C1171 C1176 1.490 . S
C1172 H1162 0.930 . S
C1172 C1171 1.400 . S
C1172 C1175 1.386 . S
H1173 C1189 0.930 . S
H1174 C1190 0.931 . S
C1175 H1163 0.929 . S
C1175 C1169 1.390 . S
C1175 C1172 1.386 . S
C1176 C1171 1.490 . S
C1176 C1178 1.395 . S
C1176 C1179 1.403 . S
H1177 C1183 0.930 . S
C1178 H1164 0.930 . S
C1178 C1176 1.395 . S
C1178 C1181 1.403 . S
C1179 C1176 1.403 . S
C1179 C1180 1.524 . S
C1179 C1183 1.400 . S
C1180 H1165 0.960 . S
C1180 H1166 0.960 . S
C1180 H1167 0.960 . S
C1180 C1179 1.524 . S
C1181 C1178 1.403 . S
C1181 C1182 1.392 . S
C1181 C1185 1.495 . S
C1182 C1181 1.392 . S
C1182 C1183 1.385 . S
C1182 C1184 1.478 . S
C1183 H1177 0.930 . S
C1183 C1179 1.400 . S
C1183 C1182 1.385 . S
C1184 C1182 1.478 . S
C1184 C1186 1.381 . S
C1184 C1190 1.383 . S
C1185 C1181 1.495 . S
C1185 H1191 0.959 . S
C1185 H1192 0.961 . S
C1185 H1193 0.960 . S
C1186 C1184 1.381 . S
C1186 C1187 1.394 . S
C1186 H1194 0.930 . S
C1187 C1186 1.394 . S
C1187 C1188 1.383 . S
C1187 H1195 0.929 . S
C1188 C1187 1.383 . S
C1188 C1189 1.377 . S
C1189 H1173 0.930 . S
C1189 C1188 1.377 . S
C1189 C1190 1.379 . S
C1190 H1174 0.931 . S
C1190 C1184 1.383 . S
C1190 C1189 1.379 . S
H1191 C1185 0.959 . S
H1192 C1185 0.961 . S
H1193 C1185 0.960 . S
H1194 C1186 0.930 . S
H1195 C1187 0.929 . S
H1196 C1204 0.929 . S
H1197 C1206 0.930 . S
H1198 C1208 0.930 . S
H1199 C1211 0.929 . S
H1200 C1214 0.930 . S
H1201 C1216 0.960 . S
H1202 C1216 0.960 . S
H1203 C1216 0.960 . S
C1204 H1196 0.929 . S
C1204 C1205 1.377 . S
C1204 C1206 1.384 . S
C1205 C1204 1.377 . S
C1205 C1211 1.390 . S
C1206 H1197 0.930 . S
C1206 C1204 1.384 . S
C1206 C1207 1.372 . S
C1207 C1206 1.372 . S
C1207 C1208 1.400 . S
C1207 C1212 1.490 . S
C1208 H1198 0.930 . S
C1208 C1207 1.400 . S
C1208 C1211 1.386 . S
H1209 C1225 0.930 . S
H1210 C1226 0.931 . S
C1211 H1199 0.929 . S
C1211 C1205 1.390 . S
C1211 C1208 1.386 . S
C1212 C1207 1.490 . S
C1212 C1214 1.395 . S
C1212 C1215 1.403 . S
H1213 C1219 0.930 . S
C1214 H1200 0.930 . S
C1214 C1212 1.395 . S
C1214 C1217 1.403 1_455 S
C1215 C1212 1.403 . S
C1215 C1216 1.524 . S
C1215 C1219 1.400 1_455 S
C1216 H1201 0.960 . S
C1216 H1202 0.960 . S
C1216 H1203 0.960 . S
C1216 C1215 1.524 . S
C1217 C1214 1.403 1_655 S
C1217 C1218 1.392 . S
C1217 C1221 1.495 . S
C1218 C1217 1.392 . S
C1218 C1219 1.385 . S
C1218 C1220 1.478 . S
C1219 H1213 0.930 . S
C1219 C1215 1.400 1_655 S
C1219 C1218 1.385 . S
C1220 C1218 1.478 . S
C1220 C1222 1.381 . S
C1220 C1226 1.383 . S
C1221 C1217 1.495 . S
C1221 H1227 0.959 . S
C1221 H1228 0.961 . S
C1221 H1229 0.960 . S
C1222 C1220 1.381 . S
C1222 C1223 1.394 . S
C1222 H1230 0.930 . S
C1223 C1222 1.394 . S
C1223 C1224 1.383 . S
C1223 H1231 0.929 . S
C1224 C1223 1.383 . S
C1224 C1225 1.377 . S
C1225 H1209 0.930 . S
C1225 C1224 1.377 . S
C1225 C1226 1.379 . S
C1226 H1210 0.931 . S
C1226 C1220 1.383 . S
C1226 C1225 1.379 . S
H1227 C1221 0.959 . S
H1228 C1221 0.961 . S
H1229 C1221 0.960 . S
H1230 C1222 0.930 . S
H1231 C1223 0.929 . S
H1232 C1240 0.929 . S
H1233 C1242 0.930 . S
H1234 C1244 0.930 . S
H1235 C1247 0.929 . S
H1236 C1250 0.930 . S
H1237 C1252 0.960 . S
H1238 C1252 0.960 . S
H1239 C1252 0.960 . S
C1240 H1232 0.929 . S
C1240 C1241 1.377 . S
C1240 C1242 1.384 . S
C1241 C1240 1.377 . S
C1241 C1247 1.390 . S
C1242 H1233 0.930 . S
C1242 C1240 1.384 . S
C1242 C1243 1.372 . S
C1243 C1242 1.372 . S
C1243 C1244 1.400 . S
C1243 C1248 1.490 . S
C1244 H1234 0.930 . S
C1244 C1243 1.400 . S
C1244 C1247 1.386 . S
H1245 C1261 0.930 . S
H1246 C1262 0.931 . S
C1247 H1235 0.929 . S
C1247 C1241 1.390 . S
C1247 C1244 1.386 . S
C1248 C1243 1.490 . S
C1248 C1250 1.395 1_455 S
C1248 C1251 1.403 . S
H1249 C1255 0.930 . S
C1250 H1236 0.930 . S
C1250 C1248 1.395 1_655 S
C1250 C1253 1.403 1_544 S
C1251 C1248 1.403 . S
C1251 C1252 1.524 . S
C1251 C1255 1.400 1_544 S
C1252 H1237 0.960 . S
C1252 H1238 0.960 . S
C1252 H1239 0.960 . S
C1252 C1251 1.524 . S
C1253 C1250 1.403 1_566 S
C1253 C1254 1.392 1_655 S
C1253 C1257 1.495 . S
C1254 C1253 1.392 1_455 S
C1254 C1255 1.385 . S
C1254 C1256 1.478 . S
C1255 H1249 0.930 . S
C1255 C1251 1.400 1_566 S
C1255 C1254 1.385 . S
C1256 C1254 1.478 . S
C1256 C1258 1.381 . S
C1256 C1262 1.383 . S
C1257 C1253 1.495 . S
C1257 H1263 0.959 . S
C1257 H1264 0.961 . S
C1257 H1265 0.960 . S
C1258 C1256 1.381 . S
C1258 C1259 1.394 . S
C1258 H1266 0.954 1_556 S
C1259 C1258 1.394 . S
C1259 C1260 1.383 . S
C1259 H1267 0.929 . S
C1260 C1259 1.383 . S
C1260 C1261 1.377 . S
C1261 H1245 0.930 . S
C1261 C1260 1.377 . S
C1261 C1262 1.379 . S
C1262 H1246 0.931 . S
C1262 C1256 1.383 . S
C1262 C1261 1.379 . S
H1263 C1257 0.959 . S
H1264 C1257 0.961 . S
H1265 C1257 0.960 . S
H1266 C1258 0.954 1_554 S
H1267 C1259 0.929 . S
H1268 C1276 0.929 . S
H1269 C1278 0.930 . S
H1270 C1280 0.930 . S
H1271 C1283 0.929 . S
H1272 C1286 0.930 . S
H1273 C1288 0.960 . S
H1274 C1288 0.960 . S
H1275 C1288 0.960 . S
C1276 H1268 0.929 . S
C1276 C1277 1.377 . S
C1276 C1278 1.384 . S
C1277 C1276 1.377 . S
C1277 C1283 1.390 . S
C1278 H1269 0.930 . S
C1278 C1276 1.384 . S
C1278 C1279 1.372 . S
C1279 C1278 1.372 . S
C1279 C1280 1.400 . S
C1279 C1284 1.490 . S
C1280 H1270 0.930 . S
C1280 C1279 1.400 . S
C1280 C1283 1.386 . S
H1281 C1297 0.930 . S
H1282 C1298 0.931 . S
C1283 H1271 0.929 . S
C1283 C1277 1.390 . S
C1283 C1280 1.386 . S
C1284 C1279 1.490 . S
C1284 C1286 1.395 . S
C1284 C1287 1.403 . S
H1285 C1291 0.930 . S
C1286 H1272 0.930 . S
C1286 C1284 1.395 . S
C1286 C1289 1.403 . S
C1287 C1284 1.403 . S
C1287 C1288 1.524 . S
C1287 C1291 1.400 . S
C1288 H1273 0.960 . S
C1288 H1274 0.960 . S
C1288 H1275 0.960 . S
C1288 C1287 1.524 . S
C1289 C1286 1.403 . S
C1289 C1290 1.392 . S
C1289 C1293 1.495 . S
C1290 C1289 1.392 . S
C1290 C1291 1.385 . S
C1290 C1292 1.478 . S
C1291 H1285 0.930 . S
C1291 C1287 1.400 . S
C1291 C1290 1.385 . S
C1292 C1290 1.478 . S
C1292 C1294 1.381 . S
C1292 C1298 1.383 . S
C1293 C1289 1.495 . S
C1293 H1299 0.959 . S
C1293 H1300 0.961 . S
C1293 H1301 0.960 . S
C1294 C1292 1.381 . S
C1294 C1295 1.394 . S
C1294 H1302 0.930 . S
C1295 C1294 1.394 . S
C1295 C1296 1.383 . S
C1295 H1303 0.929 . S
C1296 C1295 1.383 . S
C1296 C1297 1.377 . S
C1297 H1281 0.930 . S
C1297 C1296 1.377 . S
C1297 C1298 1.379 . S
C1298 H1282 0.931 . S
C1298 C1292 1.383 . S
C1298 C1297 1.379 . S
H1299 C1293 0.959 . S
H1300 C1293 0.961 . S
H1301 C1293 0.960 . S
H1302 C1294 0.930 . S
H1303 C1295 0.929 . S
H1304 C1312 0.929 . S
H1305 C1314 0.930 . S
H1306 C1316 0.930 . S
H1307 C1319 0.929 . S
H1308 C1322 0.930 . S
H1309 C1324 0.960 . S
H1310 C1324 0.960 . S
H1311 C1324 0.960 . S
C1312 H1304 0.929 . S
C1312 C1313 1.377 . S
C1312 C1314 1.384 . S
C1313 C1312 1.377 . S
C1313 C1319 1.390 . S
C1314 H1305 0.930 . S
C1314 C1312 1.384 . S
C1314 C1315 1.372 . S
C1315 C1314 1.372 . S
C1315 C1316 1.400 . S
C1315 C1320 1.490 . S
C1316 H1306 0.930 . S
C1316 C1315 1.400 . S
C1316 C1319 1.386 . S
H1317 C1333 0.930 . S
H1318 C1334 0.931 . S
C1319 H1307 0.929 . S
C1319 C1313 1.390 . S
C1319 C1316 1.386 . S
C1320 C1315 1.490 . S
C1320 C1322 1.395 . S
C1320 C1323 1.403 . S
H1321 C1327 0.930 . S
C1322 H1308 0.930 . S
C1322 C1320 1.395 . S
C1322 C1325 1.403 1_545 S
C1323 C1320 1.403 . S
C1323 C1324 1.524 . S
C1323 C1327 1.400 1_545 S
C1324 H1309 0.960 . S
C1324 H1310 0.960 . S
C1324 H1311 0.960 . S
C1324 C1323 1.524 . S
C1325 C1322 1.403 1_565 S
C1325 C1326 1.392 . S
C1325 C1329 1.495 . S
C1326 C1325 1.392 . S
C1326 C1327 1.385 . S
C1326 C1328 1.478 . S
C1327 H1321 0.930 . S
C1327 C1323 1.400 1_565 S
C1327 C1326 1.385 . S
C1328 C1326 1.478 . S
C1328 C1330 1.381 . S
C1328 C1334 1.383 . S
C1329 C1325 1.495 . S
C1329 H1335 0.959 . S
C1329 H1336 0.961 . S
C1329 H1337 0.960 . S
C1330 C1328 1.381 . S
C1330 C1331 1.394 . S
C1330 H1338 0.930 . S
C1331 C1330 1.394 . S
C1331 C1332 1.383 . S
C1331 H1339 0.929 . S
C1332 C1331 1.383 . S
C1332 C1333 1.377 . S
C1333 H1317 0.930 . S
C1333 C1332 1.377 . S
C1333 C1334 1.379 . S
C1334 H1318 0.931 . S
C1334 C1328 1.383 . S
C1334 C1333 1.379 . S
H1335 C1329 0.959 . S
H1336 C1329 0.961 . S
H1337 C1329 0.960 . S
H1338 C1330 0.930 . S
H1339 C1331 0.929 . S
H1340 C1348 0.929 . S
H1341 C1350 0.930 . S
H1342 C1352 0.930 . S
H1343 C1355 0.929 . S
H1344 C1358 0.930 . S
H1345 C1360 0.960 . S
H1346 C1360 0.960 . S
H1347 C1360 0.960 . S
C1348 H1340 0.929 . S
C1348 C1349 1.377 . S
C1348 C1350 1.384 . S
C1349 C1348 1.377 . S
C1349 C1355 1.390 . S
C1350 H1341 0.930 . S
C1350 C1348 1.384 . S
C1350 C1351 1.372 . S
C1351 C1350 1.372 . S
C1351 C1352 1.400 . S
C1351 C1356 1.490 . S
C1352 H1342 0.930 . S
C1352 C1351 1.400 . S
C1352 C1355 1.386 . S
H1353 C1369 0.930 . S
H1354 C1370 0.931 . S
C1355 H1343 0.929 . S
C1355 C1349 1.390 . S
C1355 C1352 1.386 . S
C1356 C1351 1.490 . S
C1356 C1358 1.395 . S
C1356 C1359 1.403 . S
H1357 C1363 0.930 . S
C1358 H1344 0.930 . S
C1358 C1356 1.395 . S
C1358 C1361 1.403 . S
C1359 C1356 1.403 . S
C1359 C1360 1.524 . S
C1359 C1363 1.400 . S
C1360 H1345 0.960 . S
C1360 H1346 0.960 . S
C1360 H1347 0.960 . S
C1360 C1359 1.524 . S
C1361 C1358 1.403 . S
C1361 C1362 1.392 . S
C1361 C1365 1.495 . S
C1362 C1361 1.392 . S
C1362 C1363 1.385 . S
C1362 C1364 1.478 . S
C1363 H1357 0.930 . S
C1363 C1359 1.400 . S
C1363 C1362 1.385 . S
C1364 C1362 1.478 . S
C1364 C1366 1.381 . S
C1364 C1370 1.383 . S
C1365 C1361 1.495 . S
C1365 H1371 0.959 . S
C1365 H1372 0.961 . S
C1365 H1373 0.960 . S
C1366 C1364 1.381 . S
C1366 C1367 1.394 . S
C1366 H1374 0.930 . S
C1367 C1366 1.394 . S
C1367 C1368 1.383 . S
C1367 H1375 0.929 . S
C1368 C1367 1.383 . S
C1368 C1369 1.377 . S
C1369 H1353 0.930 . S
C1369 C1368 1.377 . S
C1369 C1370 1.379 . S
C1370 H1354 0.931 . S
C1370 C1364 1.383 . S
C1370 C1369 1.379 . S
H1371 C1365 0.959 . S
H1372 C1365 0.961 . S
H1373 C1365 0.960 . S
H1374 C1366 0.930 . S
H1375 C1367 0.929 . S
H1376 C1384 0.929 . S
H1377 C1386 0.930 . S
H1378 C1388 0.930 . S
H1379 C1391 0.929 . S
H1380 C1394 0.930 . S
H1381 C1396 0.960 . S
H1382 C1396 0.960 . S
H1383 C1396 0.960 . S
C1384 H1376 0.929 . S
C1384 C1385 1.377 . S
C1384 C1386 1.384 . S
C1385 C1384 1.377 . S
C1385 C1391 1.390 . S
C1386 H1377 0.930 . S
C1386 C1384 1.384 . S
C1386 C1387 1.372 . S
C1387 C1386 1.372 . S
C1387 C1388 1.400 . S
C1387 C1392 1.490 . S
C1388 H1378 0.930 . S
C1388 C1387 1.400 . S
C1388 C1391 1.386 . S
H1389 C1405 0.930 . S
H1390 C1406 0.931 . S
C1391 H1379 0.929 . S
C1391 C1385 1.390 . S
C1391 C1388 1.386 . S
C1392 C1387 1.490 . S
C1392 C1394 1.395 . S
C1392 C1395 1.403 . S
H1393 C1399 0.930 . S
C1394 H1380 0.930 . S
C1394 C1392 1.395 . S
C1394 C1397 1.403 . S
C1395 C1392 1.403 . S
C1395 C1396 1.524 . S
C1395 C1399 1.400 . S
C1396 H1381 0.960 . S
C1396 H1382 0.960 . S
C1396 H1383 0.960 . S
C1396 C1395 1.524 . S
C1397 C1394 1.403 . S
C1397 C1398 1.392 . S
C1397 C1401 1.495 . S
C1398 C1397 1.392 . S
C1398 C1399 1.385 . S
C1398 C1400 1.478 . S
C1399 H1393 0.930 . S
C1399 C1395 1.400 . S
C1399 C1398 1.385 . S
C1400 C1398 1.478 . S
C1400 C1402 1.381 . S
C1400 C1406 1.383 . S
C1401 C1397 1.495 . S
C1401 H1407 0.959 . S
C1401 H1408 0.961 . S
C1401 H1409 0.960 . S
C1402 C1400 1.381 . S
C1402 C1403 1.394 . S
C1402 H1410 0.930 . S
C1403 C1402 1.394 . S
C1403 C1404 1.383 . S
C1403 H1411 0.929 . S
C1404 C1403 1.383 . S
C1404 C1405 1.377 . S
C1405 H1389 0.930 . S
C1405 C1404 1.377 . S
C1405 C1406 1.379 . S
C1406 H1390 0.931 . S
C1406 C1400 1.383 . S
C1406 C1405 1.379 . S
H1407 C1401 0.959 . S
H1408 C1401 0.961 . S
H1409 C1401 0.960 . S
H1410 C1402 0.930 . S
H1411 C1403 0.929 . S
H1412 C1420 0.929 . S
H1413 C1422 0.930 . S
H1414 C1424 0.930 . S
H1415 C1427 0.929 . S
H1416 C1430 0.930 . S
H1417 C1432 0.960 . S
H1418 C1432 0.960 . S
H1419 C1432 0.960 . S
C1420 H1412 0.929 . S
C1420 C1421 1.377 . S
C1420 C1422 1.384 . S
C1421 C1420 1.377 . S
C1421 C1427 1.390 . S
C1422 H1413 0.930 . S
C1422 C1420 1.384 . S
C1422 C1423 1.372 . S
C1423 C1422 1.372 . S
C1423 C1424 1.400 . S
C1423 C1428 1.490 . S
C1424 H1414 0.930 . S
C1424 C1423 1.400 . S
C1424 C1427 1.386 . S
H1425 C1441 0.930 . S
H1426 C1442 0.931 . S
C1427 H1415 0.929 . S
C1427 C1421 1.390 . S
C1427 C1424 1.386 . S
C1428 C1423 1.490 . S
C1428 C1430 1.395 . S
C1428 C1431 1.403 . S
H1429 C1435 0.930 . S
C1430 H1416 0.930 . S
C1430 C1428 1.395 . S
C1430 C1433 1.403 . S
C1431 C1428 1.403 . S
C1431 C1432 1.524 . S
C1431 C1435 1.400 . S
C1432 H1417 0.960 . S
C1432 H1418 0.960 . S
C1432 H1419 0.960 . S
C1432 C1431 1.524 . S
C1433 C1430 1.403 . S
C1433 C1434 1.392 . S
C1433 C1437 1.495 . S
C1434 C1433 1.392 . S
C1434 C1435 1.385 . S
C1434 C1436 1.478 . S
C1435 H1429 0.930 . S
C1435 C1431 1.400 . S
C1435 C1434 1.385 . S
C1436 C1434 1.478 . S
C1436 C1438 1.381 . S
C1436 C1442 1.383 . S
C1437 C1433 1.495 . S
C1437 H1443 0.959 . S
C1437 H1444 0.961 . S
C1437 H1445 0.960 . S
C1438 C1436 1.381 . S
C1438 C1439 1.394 . S
C1438 H1446 0.930 . S
C1439 C1438 1.394 . S
C1439 C1440 1.383 . S
C1439 H1447 0.929 . S
C1440 C1439 1.383 . S
C1440 C1441 1.377 . S
C1441 H1425 0.930 . S
C1441 C1440 1.377 . S
C1441 C1442 1.379 . S
C1442 H1426 0.931 . S
C1442 C1436 1.383 . S
C1442 C1441 1.379 . S
H1443 C1437 0.959 . S
H1444 C1437 0.961 . S
H1445 C1437 0.960 . S
H1446 C1438 0.930 . S
H1447 C1439 0.929 . S
H1448 C1456 0.929 . S
H1449 C1458 0.930 . S
H1450 C1460 0.930 . S
H1451 C1463 0.929 . S
H1452 C1466 0.930 . S
H1453 C1468 0.960 . S
H1454 C1468 0.960 . S
H1455 C1468 0.960 . S
C1456 H1448 0.929 . S
C1456 C1457 1.377 . S
C1456 C1458 1.384 . S
C1457 C1456 1.377 . S
C1457 C1463 1.390 . S
C1458 H1449 0.930 . S
C1458 C1456 1.384 . S
C1458 C1459 1.372 . S
C1459 C1458 1.372 . S
C1459 C1460 1.400 . S
C1459 C1464 1.490 . S
C1460 H1450 0.930 . S
C1460 C1459 1.400 . S
C1460 C1463 1.386 . S
H1461 C1477 0.930 . S
H1462 C1478 0.931 . S
C1463 H1451 0.929 . S
C1463 C1457 1.390 . S
C1463 C1460 1.386 . S
C1464 C1459 1.490 . S
C1464 C1466 1.395 . S
C1464 C1467 1.403 . S
H1465 C1471 0.930 . S
C1466 H1452 0.930 . S
C1466 C1464 1.395 . S
C1466 C1469 1.403 . S
C1467 C1464 1.403 . S
C1467 C1468 1.524 . S
C1467 C1471 1.400 . S
C1468 H1453 0.960 . S
C1468 H1454 0.960 . S
C1468 H1455 0.960 . S
C1468 C1467 1.524 . S
C1469 C1466 1.403 . S
C1469 C1470 1.392 . S
C1469 C1473 1.495 . S
C1470 C1469 1.392 . S
C1470 C1471 1.385 . S
C1470 C1472 1.478 . S
C1471 H1465 0.930 . S
C1471 C1467 1.400 . S
C1471 C1470 1.385 . S
C1472 C1470 1.478 . S
C1472 C1474 1.381 . S
C1472 C1478 1.383 . S
C1473 C1469 1.495 . S
C1473 H1479 0.959 . S
C1473 H1480 0.961 . S
C1473 H1481 0.960 . S
C1474 C1472 1.381 . S
C1474 C1475 1.394 . S
C1474 H1482 0.930 . S
C1475 C1474 1.394 . S
C1475 C1476 1.383 . S
C1475 H1483 0.929 . S
C1476 C1475 1.383 . S
C1476 C1477 1.377 . S
C1477 H1461 0.930 . S
C1477 C1476 1.377 . S
C1477 C1478 1.379 . S
C1478 H1462 0.931 . S
C1478 C1472 1.383 . S
C1478 C1477 1.379 . S
H1479 C1473 0.959 . S
H1480 C1473 0.961 . S
H1481 C1473 0.960 . S
H1482 C1474 0.930 . S
H1483 C1475 0.929 . S
H1484 C1492 0.929 . S
H1485 C1494 0.930 . S
H1486 C1496 0.930 . S
H1487 C1499 0.929 . S
H1488 C1502 0.930 . S
H1489 C1504 0.960 . S
H1490 C1504 0.960 . S
H1491 C1504 0.960 1_655 S
C1492 H1484 0.929 . S
C1492 C1493 1.341 1_455 S
C1492 C1494 1.384 . S
C1493 C1492 1.341 1_655 S
C1493 C1499 1.427 . S
C1494 H1485 0.930 . S
C1494 C1492 1.384 . S
C1494 C1495 1.364 1_455 S
C1495 C1494 1.364 1_655 S
C1495 C1496 1.408 . S
C1495 C1500 1.490 . S
C1496 H1486 0.930 . S
C1496 C1495 1.408 . S
C1496 C1499 1.386 . S
H1497 C1513 0.930 . S
H1498 C1514 0.931 . S
C1499 H1487 0.929 . S
C1499 C1493 1.427 . S
C1499 C1496 1.386 . S
C1500 C1495 1.490 . S
C1500 C1502 1.399 1_556 S
C1500 C1503 1.399 1_655 S
H1501 C1507 0.930 . S
C1502 H1488 0.930 . S
C1502 C1500 1.399 1_554 S
C1502 C1505 1.403 . S
C1503 C1500 1.399 1_455 S
C1503 C1504 1.524 . S
C1503 C1507 1.400 . S
C1504 H1489 0.960 . S
C1504 H1490 0.960 . S
C1504 H1491 0.960 1_455 S
C1504 C1503 1.524 . S
C1505 C1502 1.403 . S
C1505 C1506 1.392 . S
C1505 C1509 1.495 . S
C1506 C1505 1.392 . S
C1506 C1507 1.385 1_654 S
C1506 C1508 1.478 . S
C1507 H1501 0.930 . S
C1507 C1503 1.400 . S
C1507 C1506 1.385 1_456 S
C1508 C1506 1.478 . S
C1508 C1510 1.381 1_655 S
C1508 C1514 1.383 . S
C1509 C1505 1.495 . S
C1509 H1515 0.959 . S
C1509 H1516 0.961 . S
C1509 H1517 0.960 1_655 S
C1510 C1508 1.381 1_455 S
C1510 C1511 1.394 . S
C1510 H1518 0.930 . S
C1511 C1510 1.394 . S
C1511 C1512 1.383 1_455 S
C1511 H1519 0.929 . S
C1512 C1511 1.383 1_655 S
C1512 C1513 1.377 . S
C1513 H1497 0.930 . S
C1513 C1512 1.377 . S
C1513 C1514 1.379 . S
C1514 H1498 0.931 . S
C1514 C1508 1.383 . S
C1514 C1513 1.379 . S
H1515 C1509 0.959 . S
H1516 C1509 0.961 . S
H1517 C1509 0.960 1_455 S
H1518 C1510 0.930 . S
H1519 C1511 0.929 . S
H1520 C1528 0.929 . S
H1521 C1530 0.930 . S
H1522 C1532 0.930 . S
H1523 C1535 0.929 . S
H1524 C1538 0.930 . S
H1525 C1540 0.960 . S
H1526 C1540 0.960 . S
H1527 C1540 0.960 . S
C1528 H1520 0.929 . S
C1528 C1529 1.377 . S
C1528 C1530 1.384 . S
C1529 C1528 1.377 . S
C1529 C1535 1.390 . S
C1530 H1521 0.930 . S
C1530 C1528 1.384 . S
C1530 C1531 1.372 . S
C1531 C1530 1.372 . S
C1531 C1532 1.400 . S
C1531 C1536 1.490 . S
C1532 H1522 0.930 . S
C1532 C1531 1.400 . S
C1532 C1535 1.386 . S
H1533 C1549 0.930 . S
H1534 C1550 0.931 . S
C1535 H1523 0.929 . S
C1535 C1529 1.390 . S
C1535 C1532 1.386 . S
C1536 C1531 1.490 . S
C1536 C1538 1.395 . S
C1536 C1539 1.403 . S
H1537 C1543 0.930 . S
C1538 H1524 0.930 . S
C1538 C1536 1.395 . S
C1538 C1541 1.403 . S
C1539 C1536 1.403 . S
C1539 C1540 1.524 . S
C1539 C1543 1.400 . S
C1540 H1525 0.960 . S
C1540 H1526 0.960 . S
C1540 H1527 0.960 . S
C1540 C1539 1.524 . S
C1541 C1538 1.403 . S
C1541 C1542 1.392 . S
C1541 C1545 1.495 . S
C1542 C1541 1.392 . S
C1542 C1543 1.385 . S
C1542 C1544 1.478 . S
C1543 H1537 0.930 . S
C1543 C1539 1.400 . S
C1543 C1542 1.385 . S
C1544 C1542 1.478 . S
C1544 C1546 1.381 . S
C1544 C1550 1.383 . S
C1545 C1541 1.495 . S
C1545 H1551 0.959 . S
C1545 H1552 0.961 . S
C1545 H1553 0.960 . S
C1546 C1544 1.381 . S
C1546 C1547 1.394 . S
C1546 H1554 0.930 . S
C1547 C1546 1.394 . S
C1547 C1548 1.383 . S
C1547 H1555 0.929 . S
C1548 C1547 1.383 . S
C1548 C1549 1.377 . S
C1549 H1533 0.930 . S
C1549 C1548 1.377 . S
C1549 C1550 1.379 . S
C1550 H1534 0.931 . S
C1550 C1544 1.383 . S
C1550 C1549 1.379 . S
H1551 C1545 0.959 . S
H1552 C1545 0.961 . S
H1553 C1545 0.960 . S
H1554 C1546 0.930 . S
H1555 C1547 0.929 . S
H1556 C1564 0.929 . S
H1557 C1566 0.930 . S
H1558 C1568 0.930 . S
H1559 C1571 0.929 . S
H1560 C1574 0.930 . S
H1561 C1576 0.960 . S
H1562 C1576 0.960 . S
H1563 C1576 0.960 . S
C1564 H1556 0.929 . S
C1564 C1565 1.377 . S
C1564 C1566 1.384 . S
C1565 C1564 1.377 . S
C1565 C1571 1.390 . S
C1566 H1557 0.930 . S
C1566 C1564 1.384 . S
C1566 C1567 1.372 . S
C1567 C1566 1.372 . S
C1567 C1568 1.400 . S
C1567 C1572 1.490 . S
C1568 H1558 0.930 . S
C1568 C1567 1.400 . S
C1568 C1571 1.386 . S
H1569 C1585 0.930 . S
H1570 C1586 0.931 . S
C1571 H1559 0.929 . S
C1571 C1565 1.390 . S
C1571 C1568 1.386 . S
C1572 C1567 1.490 . S
C1572 C1574 1.395 . S
C1572 C1575 1.403 . S
H1573 C1579 0.930 . S
C1574 H1560 0.930 . S
C1574 C1572 1.395 . S
C1574 C1577 1.403 . S
C1575 C1572 1.403 . S
C1575 C1576 1.524 . S
C1575 C1579 1.400 . S
C1576 H1561 0.960 . S
C1576 H1562 0.960 . S
C1576 H1563 0.960 . S
C1576 C1575 1.524 . S
C1577 C1574 1.403 . S
C1577 C1578 1.392 . S
C1577 C1581 1.495 . S
C1578 C1577 1.392 . S
C1578 C1579 1.385 . S
C1578 C1580 1.478 . S
C1579 H1573 0.930 . S
C1579 C1575 1.400 . S
C1579 C1578 1.385 . S
C1580 C1578 1.478 . S
C1580 C1582 1.381 . S
C1580 C1586 1.383 . S
C1581 C1577 1.495 . S
C1581 H1587 0.959 . S
C1581 H1588 0.961 . S
C1581 H1589 0.960 . S
C1582 C1580 1.381 . S
C1582 C1583 1.394 . S
C1582 H1590 0.930 . S
C1583 C1582 1.394 . S
C1583 C1584 1.383 . S
C1583 H1591 0.929 . S
C1584 C1583 1.383 . S
C1584 C1585 1.377 . S
C1585 H1569 0.930 . S
C1585 C1584 1.377 . S
C1585 C1586 1.379 . S
C1586 H1570 0.931 . S
C1586 C1580 1.383 . S
C1586 C1585 1.379 . S
H1587 C1581 0.959 . S
H1588 C1581 0.961 . S
H1589 C1581 0.960 . S
H1590 C1582 0.930 . S
H1591 C1583 0.929 . S
H1592 C1600 0.929 . S
H1593 C1602 0.930 . S
H1594 C1604 0.930 . S
H1595 C1607 0.929 . S
H1596 C1610 0.930 . S
H1597 C1612 0.960 . S
H1598 C1612 0.960 . S
H1599 C1612 0.960 . S
C1600 H1592 0.929 . S
C1600 C1601 1.377 1_556 S
C1600 C1602 1.384 . S
C1601 C1600 1.377 1_554 S
C1601 C1607 1.390 . S
C1602 H1593 0.930 . S
C1602 C1600 1.384 . S
C1602 C1603 1.372 . S
C1603 C1602 1.372 . S
C1603 C1604 1.400 . S
C1603 C1608 1.490 . S
C1604 H1594 0.930 . S
C1604 C1603 1.400 . S
C1604 C1607 1.386 1_556 S
H1605 C1621 0.930 . S
H1606 C1622 0.931 . S
C1607 H1595 0.929 . S
C1607 C1601 1.390 . S
C1607 C1604 1.386 1_554 S
C1608 C1603 1.490 . S
C1608 C1610 1.395 . S
C1608 C1611 1.403 . S
H1609 C1615 0.930 . S
C1610 H1596 0.930 . S
C1610 C1608 1.395 . S
C1610 C1613 1.403 . S
C1611 C1608 1.403 . S
C1611 C1612 1.524 . S
C1611 C1615 1.400 . S
C1612 H1597 0.960 . S
C1612 H1598 0.960 . S
C1612 H1599 0.960 . S
C1612 C1611 1.524 . S
C1613 C1610 1.403 . S
C1613 C1614 1.392 . S
C1613 C1617 1.495 . S
C1614 C1613 1.392 . S
C1614 C1615 1.385 . S
C1614 C1616 1.478 . S
C1615 H1609 0.930 . S
C1615 C1611 1.400 . S
C1615 C1614 1.385 . S
C1616 C1614 1.478 . S
C1616 C1618 1.381 . S
C1616 C1622 1.383 . S
C1617 C1613 1.495 . S
C1617 H1623 0.959 . S
C1617 H1624 0.961 . S
C1617 H1625 0.960 . S
C1618 C1616 1.381 . S
C1618 C1619 1.394 . S
C1618 H1626 0.930 . S
C1619 C1618 1.394 . S
C1619 C1620 1.383 . S
C1619 H1627 0.929 . S
C1620 C1619 1.383 . S
C1620 C1621 1.377 . S
C1621 H1605 0.930 . S
C1621 C1620 1.377 . S
C1621 C1622 1.379 . S
C1622 H1606 0.931 . S
C1622 C1616 1.383 . S
C1622 C1621 1.379 . S
H1623 C1617 0.959 . S
H1624 C1617 0.961 . S
H1625 C1617 0.960 . S
H1626 C1618 0.930 . S
H1627 C1619 0.929 . S
H1628 C1636 0.929 . S
H1629 C1638 0.930 . S
H1630 C1640 0.930 . S
H1631 C1643 0.929 . S
H1632 C1646 0.930 . S
H1633 C1648 0.960 . S
H1634 C1648 0.960 . S
H1635 C1648 0.960 . S
C1636 H1628 0.929 . S
C1636 C1637 1.377 . S
C1636 C1638 1.384 . S
C1637 C1636 1.377 . S
C1637 C1643 1.390 . S
C1638 H1629 0.930 . S
C1638 C1636 1.384 . S
C1638 C1639 1.372 . S
C1639 C1638 1.372 . S
C1639 C1640 1.400 . S
C1639 C1644 1.490 . S
C1640 H1630 0.930 . S
C1640 C1639 1.400 . S
C1640 C1643 1.386 . S
H1641 C1657 0.930 . S
H1642 C1658 0.931 . S
C1643 H1631 0.929 . S
C1643 C1637 1.390 . S
C1643 C1640 1.386 . S
C1644 C1639 1.490 . S
C1644 C1646 1.395 . S
C1644 C1647 1.403 . S
H1645 C1651 0.930 . S
C1646 H1632 0.930 . S
C1646 C1644 1.395 . S
C1646 C1649 1.403 . S
C1647 C1644 1.403 . S
C1647 C1648 1.524 . S
C1647 C1651 1.400 . S
C1648 H1633 0.960 . S
C1648 H1634 0.960 . S
C1648 H1635 0.960 . S
C1648 C1647 1.524 . S
C1649 C1646 1.403 . S
C1649 C1650 1.392 . S
C1649 C1653 1.495 . S
C1650 C1649 1.392 . S
C1650 C1651 1.385 . S
C1650 C1652 1.478 . S
C1651 H1645 0.930 . S
C1651 C1647 1.400 . S
C1651 C1650 1.385 . S
C1652 C1650 1.478 . S
C1652 C1654 1.381 . S
C1652 C1658 1.383 . S
C1653 C1649 1.495 . S
C1653 H1659 0.959 . S
C1653 H1660 0.961 . S
C1653 H1661 0.960 . S
C1654 C1652 1.381 . S
C1654 C1655 1.394 1_554 S
C1654 H1662 0.930 . S
C1655 C1654 1.394 1_556 S
C1655 C1656 1.383 . S
C1655 H1663 0.929 . S
C1656 C1655 1.383 . S
C1656 C1657 1.377 1_556 S
C1657 H1641 0.930 . S
C1657 C1656 1.377 1_554 S
C1657 C1658 1.379 . S
C1658 H1642 0.931 . S
C1658 C1652 1.383 . S
C1658 C1657 1.379 . S
H1659 C1653 0.959 . S
H1660 C1653 0.961 . S
H1661 C1653 0.960 . S
H1662 C1654 0.930 . S
H1663 C1655 0.929 . S
H1664 C1672 0.929 . S
H1665 C1674 0.930 . S
H1666 C1676 0.930 . S
H1667 C1679 0.929 . S
H1668 C1682 0.930 . S
H1669 C1684 0.960 . S
H1670 C1684 0.960 . S
H1671 C1684 0.960 . S
C1672 H1664 0.929 . S
C1672 C1673 1.377 . S
C1672 C1674 1.384 . S
C1673 C1672 1.377 . S
C1673 C1679 1.390 . S
C1674 H1665 0.930 . S
C1674 C1672 1.384 . S
C1674 C1675 1.372 . S
C1675 C1674 1.372 . S
C1675 C1676 1.400 . S
C1675 C1680 1.490 . S
C1676 H1666 0.930 . S
C1676 C1675 1.400 . S
C1676 C1679 1.386 . S
H1677 C1693 0.930 . S
H1678 C1694 0.931 . S
C1679 H1667 0.929 . S
C1679 C1673 1.390 . S
C1679 C1676 1.386 . S
C1680 C1675 1.490 . S
C1680 C1682 1.395 . S
C1680 C1683 1.403 . S
H1681 C1687 0.930 . S
C1682 H1668 0.930 . S
C1682 C1680 1.395 . S
C1682 C1685 1.403 . S
C1683 C1680 1.403 . S
C1683 C1684 1.524 . S
C1683 C1687 1.400 . S
C1684 H1669 0.960 . S
C1684 H1670 0.960 . S
C1684 H1671 0.960 . S
C1684 C1683 1.524 . S
C1685 C1682 1.403 . S
C1685 C1686 1.392 . S
C1685 C1689 1.495 . S
C1686 C1685 1.392 . S
C1686 C1687 1.385 . S
C1686 C1688 1.478 . S
C1687 H1681 0.930 . S
C1687 C1683 1.400 . S
C1687 C1686 1.385 . S
C1688 C1686 1.478 . S
C1688 C1690 1.381 . S
C1688 C1694 1.383 . S
C1689 C1685 1.495 . S
C1689 H1695 0.959 . S
C1689 H1696 0.961 . S
C1689 H1697 0.960 . S
C1690 C1688 1.381 . S
C1690 C1691 1.394 . S
C1690 H1698 0.930 . S
C1691 C1690 1.394 . S
C1691 C1692 1.383 . S
C1691 H1699 0.929 . S
C1692 C1691 1.383 . S
C1692 C1693 1.377 . S
C1693 H1677 0.930 . S
C1693 C1692 1.377 . S
C1693 C1694 1.379 . S
C1694 H1678 0.931 . S
C1694 C1688 1.383 . S
C1694 C1693 1.379 . S
H1695 C1689 0.959 . S
H1696 C1689 0.961 . S
H1697 C1689 0.960 . S
H1698 C1690 0.930 . S
H1699 C1691 0.929 . S
H1700 C1708 0.929 . S
H1701 C1710 0.930 . S
H1702 C1712 0.930 . S
H1703 C1715 0.929 . S
H1704 C1718 0.930 . S
H1705 C1720 0.960 . S
H1706 C1720 0.960 . S
H1707 C1720 0.960 . S
C1708 H1700 0.929 . S
C1708 C1709 1.377 . S
C1708 C1710 1.384 . S
C1709 C1708 1.377 . S
C1709 C1715 1.390 . S
C1710 H1701 0.930 . S
C1710 C1708 1.384 . S
C1710 C1711 1.372 . S
C1711 C1710 1.372 . S
C1711 C1712 1.400 . S
C1711 C1716 1.490 . S
C1712 H1702 0.930 . S
C1712 C1711 1.400 . S
C1712 C1715 1.386 . S
H1713 C1729 0.930 . S
H1714 C1730 0.931 . S
C1715 H1703 0.929 . S
C1715 C1709 1.390 . S
C1715 C1712 1.386 . S
C1716 C1711 1.490 . S
C1716 C1718 1.395 . S
C1716 C1719 1.403 . S
H1717 C1723 0.930 . S
C1718 H1704 0.930 . S
C1718 C1716 1.395 . S
C1718 C1721 1.403 . S
C1719 C1716 1.403 . S
C1719 C1720 1.524 . S
C1719 C1723 1.400 . S
C1720 H1705 0.960 . S
C1720 H1706 0.960 . S
C1720 H1707 0.960 . S
C1720 C1719 1.524 . S
C1721 C1718 1.403 . S
C1721 C1722 1.392 . S
C1721 C1725 1.495 . S
C1722 C1721 1.392 . S
C1722 C1723 1.385 . S
C1722 C1724 1.478 . S
C1723 H1717 0.930 . S
C1723 C1719 1.400 . S
C1723 C1722 1.385 . S
C1724 C1722 1.478 . S
C1724 C1726 1.381 . S
C1724 C1730 1.383 . S
C1725 C1721 1.495 . S
C1725 H1731 0.959 . S
C1725 H1732 0.961 . S
C1725 H1733 0.960 . S
C1726 C1724 1.381 . S
C1726 C1727 1.394 . S
C1726 H1734 0.930 . S
C1727 C1726 1.394 . S
C1727 C1728 1.383 . S
C1727 H1735 0.929 . S
C1728 C1727 1.383 . S
C1728 C1729 1.377 . S
C1729 H1713 0.930 . S
C1729 C1728 1.377 . S
C1729 C1730 1.379 . S
C1730 H1714 0.931 . S
C1730 C1724 1.383 . S
C1730 C1729 1.379 . S
H1731 C1725 0.959 . S
H1732 C1725 0.961 . S
H1733 C1725 0.960 . S
H1734 C1726 0.930 . S
H1735 C1727 0.929 . S
H1736 C1744 0.929 . S
H1737 C1746 0.930 . S
H1738 C1748 0.930 . S
H1739 C1751 0.929 . S
H1740 C1754 0.930 . S
H1741 C1756 0.960 . S
H1742 C1756 0.960 . S
H1743 C1756 0.960 . S
C1744 H1736 0.929 . S
C1744 C1745 1.377 1_554 S
C1744 C1746 1.384 . S
C1745 C1744 1.377 1_556 S
C1745 C1751 1.390 . S
C1746 H1737 0.930 . S
C1746 C1744 1.384 . S
C1746 C1747 1.372 . S
C1747 C1746 1.372 . S
C1747 C1748 1.400 . S
C1747 C1752 1.490 . S
C1748 H1738 0.930 . S
C1748 C1747 1.400 . S
C1748 C1751 1.386 1_554 S
H1749 C1765 0.930 . S
H1750 C1766 0.931 . S
C1751 H1739 0.929 . S
C1751 C1745 1.390 . S
C1751 C1748 1.386 1_556 S
C1752 C1747 1.490 . S
C1752 C1754 1.395 . S
C1752 C1755 1.403 . S
H1753 C1759 0.930 . S
C1754 H1740 0.930 . S
C1754 C1752 1.395 . S
C1754 C1757 1.403 . S
C1755 C1752 1.403 . S
C1755 C1756 1.524 . S
C1755 C1759 1.400 . S
C1756 H1741 0.960 . S
C1756 H1742 0.960 . S
C1756 H1743 0.960 . S
C1756 C1755 1.524 . S
C1757 C1754 1.403 . S
C1757 C1758 1.392 . S
C1757 C1761 1.495 . S
C1758 C1757 1.392 . S
C1758 C1759 1.385 . S
C1758 C1760 1.478 . S
C1759 H1753 0.930 . S
C1759 C1755 1.400 . S
C1759 C1758 1.385 . S
C1760 C1758 1.478 . S
C1760 C1762 1.381 . S
C1760 C1766 1.383 . S
C1761 C1757 1.495 . S
C1761 H1767 0.959 . S
C1761 H1768 0.961 . S
C1761 H1769 0.960 . S
C1762 C1760 1.381 . S
C1762 C1763 1.394 . S
C1762 H1770 0.930 . S
C1763 C1762 1.394 . S
C1763 C1764 1.383 . S
C1763 H1771 0.929 . S
C1764 C1763 1.383 . S
C1764 C1765 1.377 . S
C1765 H1749 0.930 . S
C1765 C1764 1.377 . S
C1765 C1766 1.379 . S
C1766 H1750 0.931 . S
C1766 C1760 1.383 . S
C1766 C1765 1.379 . S
H1767 C1761 0.959 . S
H1768 C1761 0.961 . S
H1769 C1761 0.960 . S
H1770 C1762 0.930 . S
H1771 C1763 0.929 . S
H1772 C1780 0.929 . S
H1773 C1782 0.930 . S
H1774 C1784 0.930 . S
H1775 C1787 0.929 . S
H1776 C1790 0.930 . S
H1777 C1792 0.960 . S
H1778 C1792 0.960 . S
H1779 C1792 0.960 . S
C1780 H1772 0.929 . S
C1780 C1781 1.377 . S
C1780 C1782 1.384 . S
C1781 C1780 1.377 . S
C1781 C1787 1.390 . S
C1782 H1773 0.930 . S
C1782 C1780 1.384 . S
C1782 C1783 1.372 . S
C1783 C1782 1.372 . S
C1783 C1784 1.400 . S
C1783 C1788 1.490 . S
C1784 H1774 0.930 . S
C1784 C1783 1.400 . S
C1784 C1787 1.386 . S
H1785 C1801 0.930 . S
H1786 C1802 0.931 . S
C1787 H1775 0.929 . S
C1787 C1781 1.390 . S
C1787 C1784 1.386 . S
C1788 C1783 1.490 . S
C1788 C1790 1.395 . S
C1788 C1791 1.403 . S
H1789 C1795 0.930 . S
C1790 H1776 0.930 . S
C1790 C1788 1.395 . S
C1790 C1793 1.403 . S
C1791 C1788 1.403 . S
C1791 C1792 1.524 . S
C1791 C1795 1.400 . S
C1792 H1777 0.960 . S
C1792 H1778 0.960 . S
C1792 H1779 0.960 . S
C1792 C1791 1.524 . S
C1793 C1790 1.403 . S
C1793 C1794 1.392 . S
C1793 C1797 1.495 . S
C1794 C1793 1.392 . S
C1794 C1795 1.385 . S
C1794 C1796 1.478 . S
C1795 H1789 0.930 . S
C1795 C1791 1.400 . S
C1795 C1794 1.385 . S
C1796 C1794 1.478 . S
C1796 C1798 1.381 . S
C1796 C1802 1.383 . S
C1797 C1793 1.495 . S
C1797 H1803 0.959 . S
C1797 H1804 0.961 . S
C1797 H1805 0.960 . S
C1798 C1796 1.381 . S
C1798 C1799 1.394 1_556 S
C1798 H1806 0.935 . S
C1799 C1798 1.394 1_554 S
C1799 C1800 1.383 . S
C1799 H1807 0.929 . S
C1800 C1799 1.383 . S
C1800 C1801 1.377 1_554 S
C1801 H1785 0.930 . S
C1801 C1800 1.377 1_556 S
C1801 C1802 1.379 . S
C1802 H1786 0.931 . S
C1802 C1796 1.383 . S
C1802 C1801 1.379 . S
H1803 C1797 0.959 . S
H1804 C1797 0.961 . S
H1805 C1797 0.960 . S
H1806 C1798 0.935 . S
H1807 C1799 0.929 . S
H1808 C1816 0.929 . S
H1809 C1818 0.930 . S
H1810 C1820 0.930 . S
H1811 C1823 0.929 . S
H1812 C1826 0.930 . S
H1813 C1828 0.960 . S
H1814 C1828 0.960 . S
H1815 C1828 0.960 . S
C1816 H1808 0.929 . S
C1816 C1817 1.377 . S
C1816 C1818 1.384 . S
C1817 C1816 1.377 . S
C1817 C1823 1.390 . S
C1818 H1809 0.930 . S
C1818 C1816 1.384 . S
C1818 C1819 1.372 . S
C1819 C1818 1.372 . S
C1819 C1820 1.400 . S
C1819 C1824 1.490 . S
C1820 H1810 0.930 . S
C1820 C1819 1.400 . S
C1820 C1823 1.386 . S
H1821 C1837 0.930 . S
H1822 C1838 0.931 . S
C1823 H1811 0.929 . S
C1823 C1817 1.390 . S
C1823 C1820 1.386 . S
C1824 C1819 1.490 . S
C1824 C1826 1.395 . S
C1824 C1827 1.403 . S
H1825 C1831 0.930 . S
C1826 H1812 0.930 . S
C1826 C1824 1.395 . S
C1826 C1829 1.403 . S
C1827 C1824 1.403 . S
C1827 C1828 1.524 . S
C1827 C1831 1.400 . S
C1828 H1813 0.960 . S
C1828 H1814 0.960 . S
C1828 H1815 0.960 . S
C1828 C1827 1.524 . S
C1829 C1826 1.403 . S
C1829 C1830 1.392 . S
C1829 C1833 1.495 . S
C1830 C1829 1.392 . S
C1830 C1831 1.385 . S
C1830 C1832 1.478 . S
C1831 H1825 0.930 . S
C1831 C1827 1.400 . S
C1831 C1830 1.385 . S
C1832 C1830 1.478 . S
C1832 C1834 1.381 . S
C1832 C1838 1.383 . S
C1833 C1829 1.495 . S
C1833 H1839 0.959 . S
C1833 H1840 0.961 . S
C1833 H1841 0.960 . S
C1834 C1832 1.381 . S
C1834 C1835 1.394 . S
C1834 H1842 0.930 . S
C1835 C1834 1.394 . S
C1835 C1836 1.383 1_556 S
C1835 H1843 0.929 1_556 S
C1836 C1835 1.383 1_554 S
C1836 C1837 1.377 1_554 S
C1837 H1821 0.930 . S
C1837 C1836 1.377 1_556 S
C1837 C1838 1.379 . S
C1838 H1822 0.931 . S
C1838 C1832 1.383 . S
C1838 C1837 1.379 . S
H1839 C1833 0.959 . S
H1840 C1833 0.961 . S
H1841 C1833 0.960 . S
H1842 C1834 0.930 . S
H1843 C1835 0.929 1_554 S
H1844 C1852 0.929 . S
H1845 C1854 0.930 . S
H1846 C1856 0.930 . S
H1847 C1859 0.929 . S
H1848 C1862 0.930 . S
H1849 C1864 0.960 . S
H1850 C1864 0.960 . S
H1851 C1864 0.960 . S
C1852 H1844 0.929 . S
C1852 C1853 1.377 . S
C1852 C1854 1.384 . S
C1853 C1852 1.377 . S
C1853 C1859 1.390 . S
C1854 H1845 0.930 . S
C1854 C1852 1.384 . S
C1854 C1855 1.372 . S
C1855 C1854 1.372 . S
C1855 C1856 1.400 . S
C1855 C1860 1.490 . S
C1856 H1846 0.930 . S
C1856 C1855 1.400 . S
C1856 C1859 1.386 . S
H1857 C1873 0.929 1_556 S
H1858 C1874 0.931 . S
C1859 H1847 0.929 . S
C1859 C1853 1.390 . S
C1859 C1856 1.386 . S
C1860 C1855 1.490 . S
C1860 C1862 1.395 . S
C1860 C1863 1.403 . S
H1861 C1867 0.930 . S
C1862 H1848 0.930 . S
C1862 C1860 1.395 . S
C1862 C1865 1.403 . S
C1863 C1860 1.403 . S
C1863 C1864 1.524 . S
C1863 C1867 1.400 . S
C1864 H1849 0.960 . S
C1864 H1850 0.960 . S
C1864 H1851 0.960 . S
C1864 C1863 1.524 . S
C1865 C1862 1.403 . S
C1865 C1866 1.392 . S
C1865 C1869 1.495 . S
C1866 C1865 1.392 . S
C1866 C1867 1.385 . S
C1866 C1868 1.478 . S
C1867 H1861 0.930 . S
C1867 C1863 1.400 . S
C1867 C1866 1.385 . S
C1868 C1866 1.478 . S
C1868 C1870 1.381 . S
C1868 C1874 1.383 . S
C1869 C1865 1.495 . S
C1869 H1875 0.959 . S
C1869 H1876 0.961 . S
C1869 H1877 0.960 . S
C1870 C1868 1.381 . S
C1870 C1871 1.394 . S
C1870 H1878 0.930 . S
C1871 C1870 1.394 . S
C1871 C1872 1.383 1_554 S
C1871 H1879 0.929 . S
C1872 C1871 1.383 1_556 S
C1872 C1873 1.377 1_556 S
C1873 H1857 0.929 1_554 S
C1873 C1872 1.377 1_554 S
C1873 C1874 1.380 . S
C1874 H1858 0.931 . S
C1874 C1868 1.383 . S
C1874 C1873 1.380 . S
H1875 C1869 0.959 . S
H1876 C1869 0.961 . S
H1877 C1869 0.960 . S
H1878 C1870 0.930 . S
H1879 C1871 0.929 . S
H1880 C1888 0.929 . S
H1881 C1890 0.930 . S
H1882 C1892 0.930 . S
H1883 C1895 0.929 . S
H1884 C1898 0.930 . S
H1885 C1900 0.960 . S
H1886 C1900 0.960 . S
H1887 C1900 0.960 . S
C1888 H1880 0.929 . S
C1888 C1889 1.377 . S
C1888 C1890 1.384 . S
C1889 C1888 1.377 . S
C1889 C1895 1.390 . S
C1890 H1881 0.930 . S
C1890 C1888 1.384 . S
C1890 C1891 1.372 . S
C1891 C1890 1.372 . S
C1891 C1892 1.400 . S
C1891 C1896 1.490 . S
C1892 H1882 0.930 . S
C1892 C1891 1.400 . S
C1892 C1895 1.386 . S
H1893 C1909 0.930 . S
H1894 C1910 0.931 . S
C1895 H1883 0.929 . S
C1895 C1889 1.390 . S
C1895 C1892 1.386 . S
C1896 C1891 1.490 . S
C1896 C1898 1.395 . S
C1896 C1899 1.403 . S
H1897 C1903 0.930 . S
C1898 H1884 0.930 . S
C1898 C1896 1.395 . S
C1898 C1901 1.403 . S
C1899 C1896 1.403 . S
C1899 C1900 1.524 . S
C1899 C1903 1.400 . S
C1900 H1885 0.960 . S
C1900 H1886 0.960 . S
C1900 H1887 0.960 . S
C1900 C1899 1.524 . S
C1901 C1898 1.403 . S
C1901 C1902 1.392 . S
C1901 C1905 1.495 . S
C1902 C1901 1.392 . S
C1902 C1903 1.385 . S
C1902 C1904 1.478 . S
C1903 H1897 0.930 . S
C1903 C1899 1.400 . S
C1903 C1902 1.385 . S
C1904 C1902 1.478 . S
C1904 C1906 1.381 . S
C1904 C1910 1.383 . S
C1905 C1901 1.495 . S
C1905 H1911 0.959 . S
C1905 H1912 0.961 . S
C1905 H1913 0.960 . S
C1906 C1904 1.381 . S
C1906 C1907 1.394 . S
C1906 H1914 0.930 . S
C1907 C1906 1.394 . S
C1907 C1908 1.383 . S
C1907 H1915 0.929 . S
C1908 C1907 1.383 . S
C1908 C1909 1.377 . S
C1909 H1893 0.930 . S
C1909 C1908 1.377 . S
C1909 C1910 1.379 . S
C1910 H1894 0.931 . S
C1910 C1904 1.383 . S
C1910 C1909 1.379 . S
H1911 C1905 0.959 . S
H1912 C1905 0.961 . S
H1913 C1905 0.960 . S
H1914 C1906 0.930 . S
H1915 C1907 0.929 . S
H1916 C1924 0.929 . S
H1917 C1926 0.930 . S
H1918 C1928 0.930 . S
H1919 C1931 0.929 . S
H1920 C1934 0.930 . S
H1921 C1936 0.960 . S
H1922 C1936 0.960 . S
H1923 C1936 0.960 . S
C1924 H1916 0.929 . S
C1924 C1925 1.377 . S
C1924 C1926 1.384 . S
C1925 C1924 1.377 . S
C1925 C1931 1.390 . S
C1926 H1917 0.930 . S
C1926 C1924 1.384 . S
C1926 C1927 1.372 . S
C1927 C1926 1.372 . S
C1927 C1928 1.400 . S
C1927 C1932 1.490 . S
C1928 H1918 0.930 . S
C1928 C1927 1.400 . S
C1928 C1931 1.386 . S
H1929 C1945 0.930 . S
H1930 C1946 0.931 . S
C1931 H1919 0.929 . S
C1931 C1925 1.390 . S
C1931 C1928 1.386 . S
C1932 C1927 1.490 . S
C1932 C1934 1.395 . S
C1932 C1935 1.403 . S
H1933 C1939 0.930 . S
C1934 H1920 0.930 . S
C1934 C1932 1.395 . S
C1934 C1937 1.403 . S
C1935 C1932 1.403 . S
C1935 C1936 1.524 . S
C1935 C1939 1.400 . S
C1936 H1921 0.960 . S
C1936 H1922 0.960 . S
C1936 H1923 0.960 . S
C1936 C1935 1.524 . S
C1937 C1934 1.403 . S
C1937 C1938 1.392 . S
C1937 C1941 1.495 . S
C1938 C1937 1.392 . S
C1938 C1939 1.385 . S
C1938 C1940 1.478 . S
C1939 H1933 0.930 . S
C1939 C1935 1.400 . S
C1939 C1938 1.385 . S
C1940 C1938 1.478 . S
C1940 C1942 1.381 . S
C1940 C1946 1.383 . S
C1941 C1937 1.495 . S
C1941 H1947 0.959 . S
C1941 H1948 0.961 . S
C1941 H1949 0.960 . S
C1942 C1940 1.381 . S
C1942 C1943 1.394 . S
C1942 H1950 0.930 . S
C1943 C1942 1.394 . S
C1943 C1944 1.383 . S
C1943 H1951 0.929 . S
C1944 C1943 1.383 . S
C1944 C1945 1.377 . S
C1945 H1929 0.930 . S
C1945 C1944 1.377 . S
C1945 C1946 1.379 . S
C1946 H1930 0.931 . S
C1946 C1940 1.383 . S
C1946 C1945 1.379 . S
H1947 C1941 0.959 . S
H1948 C1941 0.961 . S
H1949 C1941 0.960 . S
H1950 C1942 0.930 . S
H1951 C1943 0.929 . S
H1952 C1960 0.929 . S
H1953 C1962 0.930 . S
H1954 C1964 0.930 . S
H1955 C1967 0.929 . S
H1956 C1970 0.930 . S
H1957 C1972 0.960 . S
H1958 C1972 0.960 . S
H1959 C1972 0.960 . S
C1960 H1952 0.929 . S
C1960 C1961 1.377 . S
C1960 C1962 1.384 . S
C1961 C1960 1.377 . S
C1961 C1967 1.390 . S
C1962 H1953 0.930 . S
C1962 C1960 1.384 . S
C1962 C1963 1.372 . S
C1963 C1962 1.372 . S
C1963 C1964 1.400 . S
C1963 C1968 1.490 . S
C1964 H1954 0.930 . S
C1964 C1963 1.400 . S
C1964 C1967 1.386 . S
H1965 C1981 0.930 1_556 S
H1966 C1982 0.931 . S
C1967 H1955 0.929 . S
C1967 C1961 1.390 . S
C1967 C1964 1.386 . S
C1968 C1963 1.490 . S
C1968 C1970 1.395 . S
C1968 C1971 1.403 . S
H1969 C1975 0.930 . S
C1970 H1956 0.930 . S
C1970 C1968 1.395 . S
C1970 C1973 1.403 . S
C1971 C1968 1.403 . S
C1971 C1972 1.524 . S
C1971 C1975 1.400 . S
C1972 H1957 0.960 . S
C1972 H1958 0.960 . S
C1972 H1959 0.960 . S
C1972 C1971 1.524 . S
C1973 C1970 1.403 . S
C1973 C1974 1.392 . S
C1973 C1977 1.495 . S
C1974 C1973 1.392 . S
C1974 C1975 1.385 . S
C1974 C1976 1.478 . S
C1975 H1969 0.930 . S
C1975 C1971 1.400 . S
C1975 C1974 1.385 . S
C1976 C1974 1.478 . S
C1976 C1978 1.381 . S
C1976 C1982 1.383 . S
C1977 C1973 1.495 . S
C1977 H1983 0.959 . S
C1977 H1984 0.961 . S
C1977 H1985 0.960 . S
C1978 C1976 1.381 . S
C1978 C1979 1.394 1_554 S
C1978 H1986 0.930 . S
C1979 C1978 1.394 1_556 S
C1979 C1980 1.383 . S
C1979 H1987 0.929 . S
C1980 C1979 1.383 . S
C1980 C1981 1.377 1_556 S
C1981 H1965 0.930 1_554 S
C1981 C1980 1.377 1_554 S
C1981 C1982 1.379 . S
C1982 H1966 0.931 . S
C1982 C1976 1.383 . S
C1982 C1981 1.379 . S
H1983 C1977 0.959 . S
H1984 C1977 0.961 . S
H1985 C1977 0.960 . S
H1986 C1978 0.930 . S
H1987 C1979 0.929 . S
H1988 C1996 0.929 . S
H1989 C1998 0.930 . S
H1990 C2000 0.930 . S
H1991 C2003 0.929 . S
H1992 C2006 0.930 . S
H1993 C2008 0.960 . S
H1994 C2008 0.960 . S
H1995 C2008 0.960 . S
C1996 H1988 0.929 . S
C1996 C1997 1.377 . S
C1996 C1998 1.384 1_554 S
C1997 C1996 1.377 . S
C1997 C2003 1.390 1_554 S
C1998 H1989 0.930 . S
C1998 C1996 1.384 1_556 S
C1998 C1999 1.372 . S
C1999 C1998 1.372 . S
C1999 C2000 1.400 . S
C1999 C2004 1.490 . S
C2000 H1990 0.930 . S
C2000 C1999 1.400 . S
C2000 C2003 1.386 . S
H2001 C2017 0.930 . S
H2002 C2018 0.931 . S
C2003 H1991 0.929 . S
C2003 C1997 1.390 1_556 S
C2003 C2000 1.386 . S
C2004 C1999 1.490 . S
C2004 C2006 1.395 . S
C2004 C2007 1.403 . S
H2005 C2011 0.930 . S
C2006 H1992 0.930 . S
C2006 C2004 1.395 . S
C2006 C2009 1.403 . S
C2007 C2004 1.403 . S
C2007 C2008 1.524 . S
C2007 C2011 1.400 . S
C2008 H1993 0.960 . S
C2008 H1994 0.960 . S
C2008 H1995 0.960 . S
C2008 C2007 1.524 . S
C2009 C2006 1.403 . S
C2009 C2010 1.392 . S
C2009 C2013 1.495 . S
C2010 C2009 1.392 . S
C2010 C2011 1.385 . S
C2010 C2012 1.478 . S
C2011 H2005 0.930 . S
C2011 C2007 1.400 . S
C2011 C2010 1.385 . S
C2012 C2010 1.478 . S
C2012 C2014 1.381 . S
C2012 C2018 1.383 . S
C2013 C2009 1.495 . S
C2013 H2019 0.959 . S
C2013 H2020 0.961 . S
C2013 H2021 0.960 . S
C2014 C2012 1.381 . S
C2014 C2015 1.394 . S
C2014 H2022 0.930 . S
C2015 C2014 1.394 . S
C2015 C2016 1.383 . S
C2015 H2023 0.929 . S
C2016 C2015 1.383 . S
C2016 C2017 1.377 . S
C2017 H2001 0.930 . S
C2017 C2016 1.377 . S
C2017 C2018 1.379 . S
C2018 H2002 0.931 . S
C2018 C2012 1.383 . S
C2018 C2017 1.379 . S
H2019 C2013 0.959 . S
H2020 C2013 0.961 . S
H2021 C2013 0.960 . S
H2022 C2014 0.930 . S
H2023 C2015 0.929 . S
H2024 C2032 0.929 . S
H2025 C2034 0.930 . S
H2026 C2036 0.930 . S
H2027 C2039 0.929 . S
H2028 C2042 0.930 . S
H2029 C2044 0.960 . S
H2030 C2044 0.960 . S
H2031 C2044 0.960 . S
C2032 H2024 0.929 . S
C2032 C2033 1.377 . S
C2032 C2034 1.384 . S
C2033 C2032 1.377 . S
C2033 C2039 1.390 . S
C2034 H2025 0.930 . S
C2034 C2032 1.384 . S
C2034 C2035 1.372 . S
C2035 C2034 1.372 . S
C2035 C2036 1.400 . S
C2035 C2040 1.490 . S
C2036 H2026 0.930 . S
C2036 C2035 1.400 . S
C2036 C2039 1.386 . S
H2037 C2053 0.930 . S
H2038 C2054 0.931 . S
C2039 H2027 0.929 . S
C2039 C2033 1.390 . S
C2039 C2036 1.386 . S
C2040 C2035 1.490 . S
C2040 C2042 1.395 . S
C2040 C2043 1.403 . S
H2041 C2047 0.930 . S
C2042 H2028 0.930 . S
C2042 C2040 1.395 . S
C2042 C2045 1.403 . S
C2043 C2040 1.403 . S
C2043 C2044 1.524 . S
C2043 C2047 1.400 . S
C2044 H2029 0.960 . S
C2044 H2030 0.960 . S
C2044 H2031 0.960 . S
C2044 C2043 1.524 . S
C2045 C2042 1.403 . S
C2045 C2046 1.392 . S
C2045 C2049 1.495 . S
C2046 C2045 1.392 . S
C2046 C2047 1.385 . S
C2046 C2048 1.478 . S
C2047 H2041 0.930 . S
C2047 C2043 1.400 . S
C2047 C2046 1.385 . S
C2048 C2046 1.478 . S
C2048 C2050 1.381 . S
C2048 C2054 1.383 . S
C2049 C2045 1.495 . S
C2049 H2055 0.959 . S
C2049 H2056 0.961 . S
C2049 H2057 0.960 . S
C2050 C2048 1.381 . S
C2050 C2051 1.394 . S
C2050 H2058 0.930 . S
C2051 C2050 1.394 . S
C2051 C2052 1.383 . S
C2051 H2059 0.929 . S
C2052 C2051 1.383 . S
C2052 C2053 1.377 . S
C2053 H2037 0.930 . S
C2053 C2052 1.377 . S
C2053 C2054 1.379 . S
C2054 H2038 0.931 . S
C2054 C2048 1.383 . S
C2054 C2053 1.379 . S
H2055 C2049 0.959 . S
H2056 C2049 0.961 . S
H2057 C2049 0.960 . S
H2058 C2050 0.930 . S
H2059 C2051 0.929 . S
H2060 C2068 0.929 . S
H2061 C2070 0.930 . S
H2062 C2072 0.930 . S
H2063 C2075 0.929 . S
H2064 C2078 0.930 . S
H2065 C2080 0.960 . S
H2066 C2080 0.960 . S
H2067 C2080 0.960 . S
C2068 H2060 0.929 . S
C2068 C2069 1.377 . S
C2068 C2070 1.384 . S
C2069 C2068 1.377 . S
C2069 C2075 1.390 . S
C2070 H2061 0.930 . S
C2070 C2068 1.384 . S
C2070 C2071 1.372 . S
C2071 C2070 1.372 . S
C2071 C2072 1.400 . S
C2071 C2076 1.490 . S
C2072 H2062 0.930 . S
C2072 C2071 1.400 . S
C2072 C2075 1.386 . S
H2073 C2089 0.930 . S
H2074 C2090 0.931 . S
C2075 H2063 0.929 . S
C2075 C2069 1.390 . S
C2075 C2072 1.386 . S
C2076 C2071 1.490 . S
C2076 C2078 1.395 . S
C2076 C2079 1.403 . S
H2077 C2083 0.930 . S
C2078 H2064 0.930 . S
C2078 C2076 1.395 . S
C2078 C2081 1.403 . S
C2079 C2076 1.403 . S
C2079 C2080 1.524 . S
C2079 C2083 1.400 . S
C2080 H2065 0.960 . S
C2080 H2066 0.960 . S
C2080 H2067 0.960 . S
C2080 C2079 1.524 . S
C2081 C2078 1.403 . S
C2081 C2082 1.392 . S
C2081 C2085 1.495 . S
C2082 C2081 1.392 . S
C2082 C2083 1.385 . S
C2082 C2084 1.478 . S
C2083 H2077 0.930 . S
C2083 C2079 1.400 . S
C2083 C2082 1.385 . S
C2084 C2082 1.478 . S
C2084 C2086 1.381 . S
C2084 C2090 1.383 . S
C2085 C2081 1.495 . S
C2085 H2091 0.959 . S
C2085 H2092 0.961 . S
C2085 H2093 0.960 . S
C2086 C2084 1.381 . S
C2086 C2087 1.394 . S
C2086 H2094 0.930 . S
C2087 C2086 1.394 . S
C2087 C2088 1.383 . S
C2087 H2095 0.929 . S
C2088 C2087 1.383 . S
C2088 C2089 1.377 . S
C2089 H2073 0.930 . S
C2089 C2088 1.377 . S
C2089 C2090 1.379 . S
C2090 H2074 0.931 . S
C2090 C2084 1.383 . S
C2090 C2089 1.379 . S
H2091 C2085 0.959 . S
H2092 C2085 0.961 . S
H2093 C2085 0.960 . S
H2094 C2086 0.930 . S
H2095 C2087 0.929 . S
C377 C17 0.689 . S
C396 C178 0.650 . S
C413 C40 0.673 . S
C432 C109 0.725 . S
C449 C132 0.681 . S
C468 C63 0.703 . S
C485 C86 0.678 . S
C504 C155 0.716 . S
C521 C274 1.058 . S
C540 C113 1.117 . S
C557 C205 1.068 . S
C576 C21 1.080 . S
C593 C251 1.077 . S
C612 C159 1.029 . S
C629 C67 1.057 . S
C648 C228 1.119 . S
C665 C224 0.683 . S
C684 C293 0.697 . S
C701 C247 0.689 . S
C720 C339 0.636 . S
C737 C316 0.672 . S
C756 C201 0.725 . S
C773 C270 0.684 . S
C792 C362 0.641 . S
C809 C343 1.078 . S
C828 C90 1.009 . S
C845 C297 1.060 . S
C864 C136 1.112 . S
C881 C44 1.055 . S
C900 C366 1.115 . S
C917 C182 1.057 . S
C936 C320 1.101 . S
C953 C318 0.670 . S
C972 C19 0.724 . S
C989 C272 0.646 . S
C1008 C42 0.624 . S
C1025 C295 0.656 . S
C1044 C65 0.682 . S
C1061 C249 0.646 . S
C1080 C88 0.615 . S
C1097 C111 0.657 . S
C1116 C364 0.686 . S
C1133 C226 0.649 . S
C1152 C134 0.648 . S
C1169 C157 0.655 . S
C1188 C341 0.676 . S
C1205 C180 0.651 . S
C1224 C203 0.619 . S
C1241 C20 0.657 . S
C1260 C112 0.608 . S
C1277 C43 0.647 . S
C1296 C135 0.636 . S
C1313 C158 0.637 . S
C1332 C66 0.686 . S
C1349 C89 0.654 . S
C1368 C181 0.606 . S
C1385 C250 0.645 . S
C1404 C204 0.645 . S
C1421 C273 0.657 . S
C1440 C227 0.594 . S
C1457 C296 0.653 . S
C1476 C342 0.609 . S
C1493 C365 0.619 1_655 S
C1512 C319 0.692 1_655 S
C1529 C18 1.328 . S
C1548 C179 1.317 . S
C1565 C41 1.328 . S
C1584 C110 1.311 . S
C1601 C133 1.336 . S
C1620 C64 1.344 . S
C1637 C156 1.333 . S
C1656 C87 1.325 . S
C1673 C269 1.367 . S
C1692 C108 1.361 . S
C1709 C200 1.364 . S
C1728 C16 1.398 . S
C1745 C246 1.375 . S
C1764 C154 1.336 . S
C1781 C62 1.376 . S
C1800 C223 1.337 . S
C1817 C294 1.336 . S
C1836 C225 1.347 . S
C1853 C340 1.328 . S
C1872 C248 1.311 . S
C1889 C317 1.334 . S
C1908 C202 1.328 . S
C1925 C363 1.336 . S
C1944 C271 1.344 . S
C1961 C338 1.367 . S
C1980 C85 1.361 . S
C1997 C131 1.363 . S
C2016 C292 1.394 . S
C2033 C39 1.368 . S
C2052 C361 1.389 . S
C2069 C315 1.376 . S
C2088 C177 1.346 . S
