# Generated by pormake.
# Topology ure, (4)-cn, num edge types: 1
# Building blocks:
#     Node 0, Type 0, BuildingBlock: CEKHIL_clean_sbu_0, # of connection points: 4
#     Node 1, Type 0, BuildingBlock: CEKHIL_clean_sbu_0, # of connection points: 4
#     Node 2, Type 0, BuildingBlock: CEKHIL_clean_sbu_0, # of connection points: 4
#     Node 3, Type 0, BuildingBlock: CEKHIL_clean_sbu_0, # of connection points: 4
#     Node 4, Type 0, BuildingBlock: CEKHIL_clean_sbu_0, # of connection points: 4
#     Node 5, Type 0, BuildingBlock: CEKHIL_clean_sbu_0, # of connection points: 4
#     Node 6, Type 0, BuildingBlock: CEKHIL_clean_sbu_0, # of connection points: 4
#     Node 7, Type 0, BuildingBlock: CEKHIL_clean_sbu_0, # of connection points: 4
#     Node 8, Type 0, BuildingBlock: CEKHIL_clean_sbu_0, # of connection points: 4
#     Node 9, Type 0, BuildingBlock: CEKHIL_clean_sbu_0, # of connection points: 4
#     Node 10, Type 0, BuildingBlock: CEKHIL_clean_sbu_0, # of connection points: 4
#     Node 11, Type 0, BuildingBlock: CEKHIL_clean_sbu_0, # of connection points: 4
#     Node 12, Type 0, BuildingBlock: CEKHIL_clean_sbu_0, # of connection points: 4
#     Node 13, Type 0, BuildingBlock: CEKHIL_clean_sbu_0, # of connection points: 4
#     Node 14, Type 0, BuildingBlock: CEKHIL_clean_sbu_0, # of connection points: 4
#     Node 15, Type 0, BuildingBlock: CEKHIL_clean_sbu_0, # of connection points: 4
#     Edge 16, Type (0, 0), BuildingBlock: EZIPEK_clean_linker_0, # of connection points: 2
#     Edge 17, Type (0, 0), BuildingBlock: EZIPEK_clean_linker_0, # of connection points: 2
#     Edge 18, Type (0, 0), BuildingBlock: EZIPEK_clean_linker_0, # of connection points: 2
#     Edge 19, Type (0, 0), BuildingBlock: EZIPEK_clean_linker_0, # of connection points: 2
#     Edge 20, Type (0, 0), BuildingBlock: EZIPEK_clean_linker_0, # of connection points: 2
#     Edge 21, Type (0, 0), BuildingBlock: EZIPEK_clean_linker_0, # of connection points: 2
#     Edge 22, Type (0, 0), BuildingBlock: EZIPEK_clean_linker_0, # of connection points: 2
#     Edge 23, Type (0, 0), BuildingBlock: EZIPEK_clean_linker_0, # of connection points: 2
#     Edge 24, Type (0, 0), BuildingBlock: EZIPEK_clean_linker_0, # of connection points: 2
#     Edge 25, Type (0, 0), BuildingBlock: EZIPEK_clean_linker_0, # of connection points: 2
#     Edge 26, Type (0, 0), BuildingBlock: EZIPEK_clean_linker_0, # of connection points: 2
#     Edge 27, Type (0, 0), BuildingBlock: EZIPEK_clean_linker_0, # of connection points: 2
#     Edge 28, Type (0, 0), BuildingBlock: EZIPEK_clean_linker_0, # of connection points: 2
#     Edge 29, Type (0, 0), BuildingBlock: EZIPEK_clean_linker_0, # of connection points: 2
#     Edge 30, Type (0, 0), BuildingBlock: EZIPEK_clean_linker_0, # of connection points: 2
#     Edge 31, Type (0, 0), BuildingBlock: EZIPEK_clean_linker_0, # of connection points: 2
#     Edge 32, Type (0, 0), BuildingBlock: EZIPEK_clean_linker_0, # of connection points: 2
#     Edge 33, Type (0, 0), BuildingBlock: EZIPEK_clean_linker_0, # of connection points: 2
#     Edge 34, Type (0, 0), BuildingBlock: EZIPEK_clean_linker_0, # of connection points: 2
#     Edge 35, Type (0, 0), BuildingBlock: EZIPEK_clean_linker_0, # of connection points: 2
#     Edge 36, Type (0, 0), BuildingBlock: EZIPEK_clean_linker_0, # of connection points: 2
#     Edge 37, Type (0, 0), BuildingBlock: EZIPEK_clean_linker_0, # of connection points: 2
#     Edge 38, Type (0, 0), BuildingBlock: EZIPEK_clean_linker_0, # of connection points: 2
#     Edge 39, Type (0, 0), BuildingBlock: EZIPEK_clean_linker_0, # of connection points: 2
#     Edge 40, Type (0, 0), BuildingBlock: EZIPEK_clean_linker_0, # of connection points: 2
#     Edge 41, Type (0, 0), BuildingBlock: EZIPEK_clean_linker_0, # of connection points: 2
#     Edge 42, Type (0, 0), BuildingBlock: EZIPEK_clean_linker_0, # of connection points: 2
#     Edge 43, Type (0, 0), BuildingBlock: EZIPEK_clean_linker_0, # of connection points: 2
#     Edge 44, Type (0, 0), BuildingBlock: EZIPEK_clean_linker_0, # of connection points: 2
#     Edge 45, Type (0, 0), BuildingBlock: EZIPEK_clean_linker_0, # of connection points: 2
#     Edge 46, Type (0, 0), BuildingBlock: EZIPEK_clean_linker_0, # of connection points: 2
#     Edge 47, Type (0, 0), BuildingBlock: EZIPEK_clean_linker_0, # of connection points: 2
# Relax obj value: 0.214
# Max RMSD: 0.161
# Mean RMSD: 0.161
data_MOF--net-ure--node1-CEKHIL_clean_sbu_0--edge1-EZIPEK_clean_linker_0
_symmetry_space_group_name_H-M    P1
_symmetry_Int_Tables_number       1
_symmetry_cell_setting            triclinic
loop_
_symmetry_equiv_pos_as_xyz
'x, y, z'
_cell_length_a     25.264445
_cell_length_b     21.129049
_cell_length_c     21.111995
_cell_angle_alpha  89.954445
_cell_angle_beta   89.963024
_cell_angle_gamma 89.974494
loop_
_atom_site_label
_atom_site_type_symbol
_atom_site_fract_x
_atom_site_fract_y
_atom_site_fract_z
_atom_type_partial_charge
Co0 Co 0.28714 0.22923 0.28307 0.0
O1 O 0.21187 0.21535 0.26832 0.0
O2 O 0.27349 0.20043 0.19626 0.0
C3 C 0.2878 0.17652 0.37686 0.0
O4 O 0.37019 0.2335 0.28179 0.0
Co5 Co 0.32552 0.30482 0.39891 0.0
O6 O 0.39563 0.30038 0.3574 0.0
C7 C 0.27423 0.3728 0.29658 0.0
C8 C 0.2237 0.19634 0.21179 0.0
C9 C 0.40731 0.26356 0.31187 0.0
O10 O 0.27898 0.32339 0.26032 0.0
O11 O 0.28406 0.37174 0.35575 0.0
O12 O 0.29163 0.14531 0.3241 0.0
O13 O 0.28079 0.23646 0.37113 0.0
Co14 Co 0.98861 0.02632 0.48846 0.0
O15 O 0.06413 0.00962 0.47885 0.0
O16 O 1.00275 0.93889 0.45992 0.0
C17 C 0.99186 0.11985 0.43495 0.0
O18 O 0.90546 0.02814 0.48821 0.0
Co19 Co 0.95162 0.14606 0.56066 0.0
O20 O 0.88026 0.10954 0.54896 0.0
C21 C 0.99955 0.04401 0.63106 0.0
C22 C 0.05281 0.95373 0.45782 0.0
C23 C 0.86855 0.06257 0.5139 0.0
O24 O 0.99176 0.00524 0.58405 0.0
O25 O 0.9968 0.10391 0.62488 0.0
O26 O 0.98802 0.06711 0.40382 0.0
O27 O 0.99672 0.11394 0.49504 0.0
Co28 Co 0.2384 0.77601 0.78163 0.0
O29 O 0.31402 0.79113 0.77119 0.0
O30 O 0.25451 0.81269 0.69872 0.0
C31 C 0.23444 0.8207 0.88079 0.0
O32 O 0.15584 0.77152 0.77309 0.0
Co33 Co 0.1928 0.69162 0.88555 0.0
O34 O 0.12387 0.70027 0.84175 0.0
C35 C 0.25171 0.63235 0.78366 0.0
C36 C 0.30382 0.81561 0.71612 0.0
C37 C 0.11692 0.73872 0.79612 0.0
O38 O 0.24868 0.68458 0.75143 0.0
O39 O 0.23723 0.62833 0.84138 0.0
O40 O 0.23187 0.85575 0.83028 0.0
O41 O 0.24108 0.76118 0.87006 0.0
Co42 Co 0.52574 0.98177 0.98352 0.0
O43 O 0.45163 1.00108 0.96784 0.0
O44 O 0.51621 0.07019 0.9577 0.0
C45 C 0.52447 0.88888 0.92757 0.0
O46 O 0.60825 0.97883 0.99137 0.0
Co47 Co 0.55592 0.86099 0.05702 0.0
O48 O 0.62919 0.89333 0.04935 0.0
C49 C 0.50167 0.96084 0.12133 0.0
C50 C 0.46601 0.05764 0.95175 0.0
C51 C 0.64294 0.94259 0.01862 0.0
O52 O 0.51683 1.00082 0.07836 0.0
O53 O 0.50047 0.9016 0.11075 0.0
O54 O 0.53093 0.94235 0.89817 0.0
O55 O 0.51577 0.89398 0.98719 0.0
Co56 Co 0.26943 0.77697 0.23658 0.0
O57 O 0.19666 0.79122 0.26267 0.0
O58 O 0.26477 0.80612 0.3252 0.0
C59 C 0.26243 0.82915 0.14213 0.0
O60 O 0.35054 0.77028 0.22405 0.0
Co61 Co 0.29021 0.69855 0.11441 0.0
O62 O 0.36551 0.7134 0.13548 0.0
C63 C 0.2497 0.63663 0.22317 0.0
C64 C 0.21373 0.81008 0.31709 0.0
C65 C 0.38224 0.74464 0.1831 0.0
O66 O 0.26554 0.68241 0.2595 0.0
O67 O 0.23967 0.64582 0.16485 0.0
O68 O 0.27041 0.86112 0.19379 0.0
O69 O 0.25419 0.7699 0.15074 0.0
Co70 Co 0.51671 0.03363 0.52599 0.0
O71 O 0.44254 0.01659 0.54524 0.0
O72 O 0.508 0.95007 0.56359 0.0
C73 C 0.51424 0.13425 0.56746 0.0
O74 O 0.59956 0.03198 0.51843 0.0
Co75 Co 0.55536 0.1363 0.4368 0.0
O76 O 0.62766 0.09943 0.44384 0.0
C77 C 0.49908 0.03096 0.38311 0.0
C78 C 0.45782 0.96262 0.56831 0.0
C79 C 0.63712 0.05608 0.48405 0.0
O80 O 0.50631 1.00039 0.43573 0.0
O81 O 0.50918 0.08974 0.3776 0.0
O82 O 0.52158 0.08559 0.60424 0.0
O83 O 0.50802 0.12047 0.50831 0.0
Co84 Co 0.24912 0.23021 0.72738 0.0
O85 O 0.32307 0.21757 0.74834 0.0
O86 O 0.25805 0.20042 0.8152 0.0
C87 C 0.25476 0.17789 0.63326 0.0
O88 O 0.16704 0.23487 0.72079 0.0
Co89 Co 0.2196 0.30569 0.60649 0.0
O90 O 0.14591 0.29282 0.63498 0.0
C91 C 0.26563 0.37066 0.71285 0.0
C92 C 0.30861 0.19693 0.80337 0.0
C93 C 0.13239 0.26086 0.68358 0.0
O94 O 0.25354 0.32432 0.75047 0.0
O95 O 0.26791 0.36393 0.65297 0.0
O96 O 0.24774 0.14638 0.68541 0.0
O97 O 0.26135 0.23765 0.64036 0.0
Co98 Co 0.99772 0.97971 0.04103 0.0
O99 O 0.07228 1.00022 0.0509 0.0
O100 O 1.00839 0.0649 0.07751 0.0
C101 C 0.01163 0.88201 0.08825 0.0
O102 O 0.91322 0.97355 0.03912 0.0
Co103 Co 0.96298 0.86634 0.96253 0.0
O104 O 0.88939 0.89713 0.97096 0.0
C105 C 1.00035 0.97926 0.89558 0.0
C106 C 0.05906 0.05316 0.077 0.0
C107 C 0.87675 0.94189 0.00832 0.0
O108 O 1.00053 0.01082 0.94842 0.0
O109 O 0.98988 0.9204 0.89267 0.0
O110 O 1.00111 0.93143 0.12239 0.0
O111 O 0.01199 0.89301 0.02802 0.0
Co112 Co 0.78465 0.27106 0.73503 0.0
O113 O 0.7104 0.28958 0.75142 0.0
O114 O 0.77281 0.30429 0.82107 0.0
C115 C 0.78538 0.31639 0.63654 0.0
O116 O 0.86689 0.26278 0.73248 0.0
Co117 Co 0.81516 0.1836 0.62237 0.0
O118 O 0.8881 0.20145 0.64902 0.0
C119 C 0.76519 0.12755 0.73314 0.0
C120 C 0.72268 0.30932 0.80749 0.0
C121 C 0.90151 0.23619 0.69553 0.0
O122 O 0.77371 0.17927 0.76472 0.0
O123 O 0.77408 0.1227 0.67391 0.0
O124 O 0.79047 0.35176 0.6866 0.0
O125 O 0.77688 0.25774 0.64878 0.0
Co126 Co 0.04612 0.5262 0.02812 0.0
O127 O 0.97208 0.50828 0.04523 0.0
O128 O 0.03535 0.43907 0.05975 0.0
C129 C 0.04771 0.6218 0.07993 0.0
O130 O 0.12699 0.53125 0.01701 0.0
Co131 Co 0.06892 0.64877 0.9464 0.0
O132 O 0.1422 0.61745 0.95599 0.0
C133 C 0.02064 0.53989 0.88809 0.0
C134 C 0.98533 0.45299 0.06615 0.0
C135 C 0.15847 0.56975 0.98763 0.0
O136 O 0.03588 0.50341 0.93426 0.0
O137 O 0.0194 0.60009 0.89222 0.0
O138 O 0.05262 0.56969 0.11208 0.0
O139 O 0.03836 0.61253 0.02099 0.0
Co140 Co 0.72822 0.72541 0.22819 0.0
O141 O 0.80216 0.70866 0.24766 0.0
O142 O 0.73727 0.69606 0.31595 0.0
C143 C 0.72699 0.67424 0.1326 0.0
O144 O 0.64688 0.73419 0.22204 0.0
Co145 Co 0.70404 0.80808 0.10932 0.0
O146 O 0.62997 0.79664 0.13812 0.0
C147 C 0.75724 0.8628 0.21488 0.0
C148 C 0.78767 0.69106 0.30372 0.0
C149 C 0.61415 0.76251 0.18424 0.0
O150 O 0.73779 0.81928 0.25148 0.0
O151 O 0.76105 0.85468 0.15542 0.0
O152 O 0.72228 0.64185 0.18469 0.0
O153 O 0.73729 0.73303 0.14161 0.0
Co154 Co 0.01036 0.47637 0.4801 0.0
O155 O 0.93603 0.49527 0.46743 0.0
O156 O 0.99957 0.56284 0.44695 0.0
C157 C 1.0065 0.38038 0.43106 0.0
O158 O 0.09246 0.47203 0.48305 0.0
Co159 Co 0.04379 0.35917 0.55923 0.0
O160 O 0.1165 0.38943 0.54359 0.0
C161 C 1.00548 0.47137 0.62582 0.0
C162 C 0.9492 0.54982 0.44466 0.0
C163 C 0.12841 0.43687 0.50919 0.0
O164 O 1.00605 0.50397 0.57352 0.0
O165 O 0.01331 0.41175 0.6279 0.0
O166 O 0.01205 0.43161 0.39782 0.0
O167 O 1.00006 0.38903 0.4908 0.0
Co168 Co 0.5031 0.53508 0.9734 0.0
O169 O 0.57507 0.50788 0.96168 0.0
O170 O 0.50777 0.44519 0.94767 0.0
C171 C 0.51244 0.62837 0.919 0.0
O172 O 0.42215 0.54673 0.9767 0.0
Co173 Co 0.47832 0.65914 0.04617 0.0
O174 O 0.40379 0.63446 0.03235 0.0
C175 C 0.5185 0.55226 0.11497 0.0
C176 C 0.55881 0.45285 0.94396 0.0
C177 C 0.38877 0.58587 1.00156 0.0
O178 O 0.50534 0.51468 0.06889 0.0
O179 O 0.52375 0.61161 0.10707 0.0
O180 O 0.50431 0.57595 0.88821 0.0
O181 O 0.51852 0.62155 0.97883 0.0
Co182 Co 0.76575 0.72459 0.77893 0.0
O183 O 0.69015 0.71772 0.76243 0.0
O184 O 0.75072 0.69674 0.69135 0.0
C185 C 0.75788 0.67041 0.87308 0.0
O186 O 0.84972 0.72496 0.78009 0.0
Co187 Co 0.80472 0.79342 0.89936 0.0
O188 O 0.87588 0.78698 0.86055 0.0
C189 C 0.7568 0.8655 0.798 0.0
C190 C 0.70064 0.69664 0.70639 0.0
C191 C 0.88702 0.75345 0.81218 0.0
O192 O 0.76419 0.81956 0.75814 0.0
O193 O 0.7588 0.85751 0.85772 0.0
O194 O 0.76367 0.63951 0.82038 0.0
O195 O 0.75685 0.73079 0.86658 0.0
Co196 Co 0.75931 0.27041 0.2744 0.0
O197 O 0.83518 0.28483 0.26178 0.0
O198 O 0.77446 0.30409 0.18981 0.0
C199 C 0.7569 0.31649 0.3731 0.0
O200 O 0.67641 0.26684 0.26871 0.0
Co201 Co 0.71407 0.18733 0.38019 0.0
O202 O 0.64438 0.1945 0.33655 0.0
C203 C 0.77248 0.12759 0.28105 0.0
C204 C 0.82407 0.30686 0.20595 0.0
C205 C 0.63735 0.23407 0.29187 0.0
O206 O 0.76642 0.17781 0.24619 0.0
O207 O 0.76504 0.12798 0.34066 0.0
O208 O 0.75477 0.3513 0.32233 0.0
O209 O 0.7625 0.25676 0.36244 0.0
Co210 Co 0.47398 0.49584 0.52126 0.0
O211 O 0.54812 0.51436 0.53856 0.0
O212 O 0.48347 0.58153 0.55618 0.0
C213 C 0.47596 0.3975 0.5671 0.0
O214 O 0.39194 0.49059 0.51238 0.0
Co215 Co 0.44603 0.38101 0.435 0.0
O216 O 0.37288 0.40926 0.44701 0.0
C217 C 0.49543 0.49138 0.37924 0.0
C218 C 0.53387 0.56895 0.56021 0.0
C219 C 0.35845 0.45464 0.48262 0.0
O220 O 0.48392 0.52478 0.4291 0.0
O221 O 0.49032 0.43153 0.37679 0.0
O222 O 0.46967 0.44733 0.60239 0.0
O223 O 0.48346 0.41015 0.50832 0.0
C224 C 0.14165 0.19422 0.14124 0.0
C225 C 0.18352 0.16156 0.17237 0.0
C226 C 0.13877 0.06071 0.14948 0.0
C227 C 0.10009 0.09229 0.11166 0.0
N228 N 0.07031 0.18978 0.06397 0.0
N229 N 0.22648 0.06218 0.19557 0.0
C230 C 0.10288 0.15939 0.10569 0.0
C231 C 0.18365 0.09439 0.17262 0.0
N232 N 0.13868 0.25859 0.14589 0.0
N233 N 0.13091 0.99927 0.16758 0.0
H234 H 0.25945 0.08445 0.21504 0.0
H235 H 0.23133 0.01351 0.18996 0.0
H236 H 0.09655 0.97424 0.15718 0.0
H237 H 0.15518 0.97565 0.19971 0.0
H238 H 0.1061 0.2847 0.13063 0.0
H239 H 0.16749 0.2855 0.16883 0.0
H240 H 0.07415 0.23751 0.05254 0.0
H241 H 0.04243 0.16614 0.03639 0.0
C242 C 0.10376 0.84974 0.43866 0.0
C243 C 0.09433 0.91457 0.4237 0.0
C244 C 0.17145 0.9121 0.35157 0.0
C245 C 0.17728 0.846 0.36077 0.0
N246 N 0.14553 0.74996 0.40869 0.0
N247 N 0.11118 1.00072 0.35107 0.0
C248 C 0.14231 0.81422 0.40308 0.0
C249 C 0.12625 0.94399 0.37637 0.0
N250 N 0.0773 0.82263 0.48813 0.0
N251 N 0.20914 0.94488 0.31872 0.0
H252 H 0.07604 0.0232 0.36341 0.0
H253 H 0.13 0.02161 0.31243 0.0
H254 H 0.24273 0.92346 0.29968 0.0
H255 H 0.20976 0.99411 0.31604 0.0
H256 H 0.08588 0.77768 0.50559 0.0
H257 H 0.04942 0.84715 0.51507 0.0
H258 H 0.11776 0.72274 0.43293 0.0
H259 H 0.17484 0.72355 0.38599 0.0
C260 C 0.42499 0.91805 0.6719 0.0
C261 C 0.42077 0.92098 0.60497 0.0
C262 C 0.34625 0.8456 0.61018 0.0
C263 C 0.34552 0.84996 0.67759 0.0
N264 N 0.37876 0.90417 0.77063 0.0
N265 N 0.37359 0.89253 0.51011 0.0
C266 C 0.3838 0.88936 0.70799 0.0
C267 C 0.38003 0.88649 0.57407 0.0
N268 N 0.46797 0.9436 0.70172 0.0
N269 N 0.31697 0.80005 0.58055 0.0
H270 H 0.39907 0.91929 0.48188 0.0
H271 H 0.34101 0.8745 0.48587 0.0
H272 H 0.29463 0.76662 0.60514 0.0
H273 H 0.31953 0.79077 0.5322 0.0
H274 H 0.47643 0.93521 0.74933 0.0
H275 H 0.49744 0.96891 0.67825 0.0
H276 H 0.40207 0.93789 0.79336 0.0
H277 H 0.34741 0.88895 0.79829 0.0
C278 C 0.39233 0.14035 0.94664 0.0
C279 C 0.42874 0.09943 0.91552 0.0
C280 C 0.38048 0.11512 0.816 0.0
C281 C 0.34758 0.16176 0.84458 0.0
N282 N 0.32716 0.22485 0.93649 0.0
N283 N 0.46462 0.06086 0.81704 0.0
C284 C 0.35471 0.17598 0.90997 0.0
C285 C 0.42514 0.09127 0.8491 0.0
N286 N 0.39345 0.14476 0.01114 0.0
N287 N 0.36706 0.08987 0.75868 0.0
H288 H 0.4983 0.04306 0.83923 0.0
H289 H 0.46657 0.05971 0.76776 0.0
H290 H 0.33186 0.10102 0.73569 0.0
H291 H 0.38714 0.05197 0.73815 0.0
H292 H 0.36462 0.1682 0.03747 0.0
H293 H 0.42194 0.12169 0.03852 0.0
H294 H 0.33424 0.24167 0.98205 0.0
H295 H 0.29993 0.25188 0.91106 0.0
C296 C 0.69278 0.38279 0.89954 0.0
C297 C 0.68076 0.33784 0.85112 0.0
C298 C 0.58588 0.36391 0.86572 0.0
C299 C 0.5979 0.40495 0.91732 0.0
N300 N 0.66251 0.42885 0.99806 0.0
N301 N 0.61215 0.26847 0.81093 0.0
C302 C 0.65123 0.40619 0.93907 0.0
C303 C 0.62616 0.32296 0.84131 0.0
N304 N 0.74252 0.4071 0.90627 0.0
N305 N 0.53744 0.36524 0.83716 0.0
H306 H 0.63958 0.2337 0.79864 0.0
H307 H 0.57287 0.25392 0.80654 0.0
H308 H 0.507 0.39555 0.85039 0.0
H309 H 0.5295 0.34023 0.79565 0.0
H310 H 0.75084 0.44384 0.93771 0.0
H311 H 0.77382 0.39711 0.876 0.0
H312 H 0.70037 0.42661 0.01765 0.0
H313 H 0.633 0.4428 0.0297 0.0
C314 C 0.94295 0.34573 0.09651 0.0
C315 C 0.94561 0.41293 0.10251 0.0
C316 C 0.86373 0.40949 0.16666 0.0
C317 C 0.86463 0.34234 0.16725 0.0
N318 N 0.9099 0.24605 0.13917 0.0
N319 N 0.91628 0.50469 0.16167 0.0
C320 C 0.90596 0.31033 0.13442 0.0
C321 C 0.90797 0.44369 0.14245 0.0
N322 N 0.97349 0.31575 0.05239 0.0
N323 N 0.82079 0.44133 0.18971 0.0
H324 H 0.95115 0.52931 0.1524 0.0
H325 H 0.89195 0.52793 0.19405 0.0
H326 H 0.78851 0.41896 0.21077 0.0
H327 H 0.81542 0.48978 0.1828 0.0
H328 H 0.96933 0.26799 0.0413 0.0
H329 H 0.99937 0.33971 0.02237 0.0
H330 H 0.94227 0.22055 0.12227 0.0
H331 H 0.88239 0.21874 0.16396 0.0
C332 C 0.87801 0.55907 0.36128 0.0
C333 C 0.90908 0.58903 0.40885 0.0
C334 C 0.85992 0.68843 0.38842 0.0
C335 C 0.8258 0.65604 0.34574 0.0
N336 N 0.7956 0.55697 0.3028 0.0
N337 N 0.92516 0.68109 0.47325 0.0
C338 C 0.83273 0.59024 0.33597 0.0
C339 C 0.89896 0.65364 0.42383 0.0
N340 N 0.89353 0.50199 0.33717 0.0
N341 N 0.85534 0.75252 0.39461 0.0
H342 H 0.95366 0.65714 0.49977 0.0
H343 H 0.91606 0.7258 0.49086 0.0
H344 H 0.82558 0.77832 0.37204 0.0
H345 H 0.8824 0.78034 0.41922 0.0
H346 H 0.87498 0.48016 0.29901 0.0
H347 H 0.92826 0.47932 0.35085 0.0
H348 H 0.7953 0.50777 0.30043 0.0
H349 H 0.76195 0.57789 0.28338 0.0
C350 C 0.61195 0.64562 0.56494 0.0
C351 C 0.57268 0.60902 0.59659 0.0
C352 C 0.62101 0.62385 0.69667 0.0
C353 C 0.65763 0.66585 0.66682 0.0
N354 N 0.68177 0.72465 0.57326 0.0
N355 N 0.53439 0.57466 0.69535 0.0
C356 C 0.65147 0.67884 0.60098 0.0
C357 C 0.57533 0.60237 0.66334 0.0
N358 N 0.61187 0.64811 0.5003 0.0
N359 N 0.63184 0.59998 0.75543 0.0
H360 H 0.50083 0.5569 0.67284 0.0
H361 H 0.53149 0.57488 0.74461 0.0
H362 H 0.66688 0.60935 0.77946 0.0
H363 H 0.60941 0.56459 0.77692 0.0
H364 H 0.64257 0.66774 0.47384 0.0
H365 H 0.58232 0.62703 0.47299 0.0
H366 H 0.67576 0.7408 0.52721 0.0
H367 H 0.71002 0.75058 0.59816 0.0
C368 C 0.23656 0.12486 0.46382 0.0
C369 C 0.28576 0.14685 0.44035 0.0
C370 C 0.31936 0.15268 0.54847 0.0
C371 C 0.26687 0.1483 0.57127 0.0
N372 N 0.17616 0.11964 0.55358 0.0
N373 N 0.37702 0.1721 0.45871 0.0
C374 C 0.22575 0.1295 0.52997 0.0
C375 C 0.3285 0.15632 0.48228 0.0
N376 N 0.20048 0.10023 0.42273 0.0
N377 N 0.36022 0.1533 0.59045 0.0
H378 H 0.38499 0.17179 0.41023 0.0
H379 H 0.40849 0.18684 0.48684 0.0
H380 H 0.35399 0.15159 0.63921 0.0
H381 H 0.39948 0.14813 0.5767 0.0
H382 H 0.16646 0.07677 0.43756 0.0
H383 H 0.20756 0.09791 0.37409 0.0
H384 H 0.14293 0.11234 0.52535 0.0
H385 H 0.16833 0.12068 0.60214 0.0
C386 C 0.96829 0.04621 0.8061 0.0
C387 C 0.00937 0.00956 0.83247 0.0
C388 C 0.04681 0.99436 0.725 0.0
C389 C 1.00098 0.0227 0.69857 0.0
N390 N 0.91361 0.06617 0.71431 0.0
N391 N 0.09024 0.95127 0.81854 0.0
C392 C 0.96057 0.0461 0.73942 0.0
C393 C 0.04955 0.98458 0.7921 0.0
N394 N 0.9368 0.08175 0.84466 0.0
N395 N 0.0881 0.97863 0.68627 0.0
H396 H 0.09557 0.94886 0.86754 0.0
H397 H 0.11762 0.92515 0.79256 0.0
H398 H 0.08626 0.98358 0.63713 0.0
H399 H 0.12487 0.96367 0.70268 0.0
H400 H 0.91036 0.11535 0.82734 0.0
H401 H 0.94142 0.08283 0.89369 0.0
H402 H 0.88117 0.07922 0.74175 0.0
H403 H 0.90526 0.06361 0.66601 0.0
C404 C 0.19481 0.82952 0.99036 0.0
C405 C 0.23542 0.84608 0.9471 0.0
C406 C 0.29142 0.87731 0.0374 0.0
C407 C 0.25098 0.85743 0.07912 0.0
N408 N 0.15772 0.84919 0.09358 0.0
N409 N 0.31296 0.91058 0.93026 0.0
C410 C 0.20033 0.84608 0.05466 0.0
C411 C 0.28082 0.87845 0.97077 0.0
N412 N 0.15329 0.7929 0.97215 0.0
N413 N 0.33972 0.89345 0.06105 0.0
H414 H 0.30311 0.91608 0.8828 0.0
H415 H 0.34467 0.93826 0.94524 0.0
H416 H 0.34693 0.89493 0.10973 0.0
H417 H 0.37252 0.90269 0.03255 0.0
H418 H 0.1251 0.7756 0.0039 0.0
H419 H 0.15075 0.77424 0.92693 0.0
H420 H 0.1194 0.84827 0.07557 0.0
H421 H 0.1618 0.86179 0.14114 0.0
C422 C 0.45179 0.02969 0.27862 0.0
C423 C 0.48645 0.99861 0.32205 0.0
C424 C 0.53125 0.94688 0.23368 0.0
C425 C 0.49747 0.97852 0.18966 0.0
N426 N 0.41915 0.04031 0.17047 0.0
N427 N 0.54567 0.9115 0.34152 0.0
C428 C 0.45571 0.01719 0.2122 0.0
C429 C 0.52154 0.95164 0.29975 0.0
N430 N 0.41569 0.07202 0.30156 0.0
N431 N 0.57412 0.91384 0.21225 0.0
H432 H 0.53579 0.9093 0.38927 0.0
H433 H 0.57063 0.87479 0.3282 0.0
H434 H 0.5837 0.91035 0.16447 0.0
H435 H 0.60328 0.89525 0.24166 0.0
H436 H 0.39364 0.10253 0.27327 0.0
H437 H 0.40877 0.07708 0.35005 0.0
H438 H 0.38489 0.0641 0.18395 0.0
H439 H 0.42158 0.03236 0.12179 0.0
C440 C 0.50348 0.27838 0.34469 0.0
C441 C 0.46695 0.25495 0.29857 0.0
C442 C 0.54641 0.22031 0.23783 0.0
C443 C 0.58041 0.25287 0.28066 0.0
N444 N 0.58665 0.33284 0.36065 0.0
N445 N 0.45841 0.21294 0.19171 0.0
C446 C 0.55691 0.28995 0.32812 0.0
C447 C 0.48962 0.2285 0.24203 0.0
N448 N 0.48935 0.283 0.40668 0.0
N449 N 0.56817 0.18152 0.19337 0.0
H450 H 0.41785 0.22079 0.19041 0.0
H451 H 0.47379 0.19813 0.14838 0.0
H452 H 0.60899 0.17911 0.18643 0.0
H453 H 0.54587 0.15044 0.16588 0.0
H454 H 0.51367 0.30342 0.44037 0.0
H455 H 0.45677 0.25954 0.42564 0.0
H456 H 0.5711 0.36203 0.39578 0.0
H457 H 0.62541 0.34363 0.3473 0.0
C458 C 0.95108 0.2864 0.40261 0.0
C459 C 1.00136 0.31606 0.40345 0.0
C460 C 0.04479 0.2131 0.39787 0.0
C461 C 0.9948 0.18338 0.40538 0.0
N462 N 0.90074 0.18869 0.39259 0.0
N463 N 0.093 0.31018 0.37538 0.0
C464 C 0.94792 0.21922 0.39972 0.0
C465 C 0.04732 0.28008 0.39188 0.0
N466 N 0.9067 0.32262 0.40758 0.0
N467 N 0.08979 0.1776 0.40038 0.0
H468 H 0.09484 0.35934 0.37112 0.0
H469 H 0.12703 0.28654 0.36063 0.0
H470 H 0.08861 0.12835 0.40225 0.0
H471 H 0.12761 0.19701 0.403 0.0
H472 H 0.86909 0.30396 0.41451 0.0
H473 H 0.9084 0.3719 0.40592 0.0
H474 H 0.86536 0.21157 0.38196 0.0
H475 H 0.89813 0.13941 0.39217 0.0
C476 C 0.98159 0.75786 0.85078 0.0
C477 C 0.94666 0.74668 0.79894 0.0
C478 C 0.02837 0.73648 0.73331 0.0
C479 C 0.05984 0.75705 0.78537 0.0
N480 N 0.06006 0.81277 0.88365 0.0
N481 N 0.94052 0.73499 0.68486 0.0
C482 C 0.03363 0.77793 0.83979 0.0
C483 C 0.97099 0.73872 0.73794 0.0
N484 N 0.96749 0.74237 0.9108 0.0
N485 N 0.05297 0.715 0.68014 0.0
H486 H 0.89941 0.73757 0.68606 0.0
H487 H 0.95639 0.73436 0.63931 0.0
H488 H 0.09412 0.71622 0.67556 0.0
H489 H 0.03281 0.6939 0.64265 0.0
H490 H 0.99363 0.74564 0.94888 0.0
H491 H 0.93436 0.71503 0.91914 0.0
H492 H 0.04351 0.82617 0.9268 0.0
H493 H 0.09639 0.83344 0.87261 0.0
C494 C 0.468 0.72844 0.88479 0.0
C495 C 0.51501 0.69282 0.89022 0.0
C496 C 0.56619 0.79137 0.88201 0.0
C497 C 0.51988 0.82606 0.89595 0.0
N498 N 0.42482 0.82949 0.90255 0.0
N499 N 0.60982 0.68915 0.88584 0.0
C500 C 0.46999 0.79527 0.89351 0.0
C501 C 0.56451 0.724 0.88498 0.0
N502 N 0.42187 0.69814 0.8711 0.0
N503 N 0.61129 0.82289 0.86593 0.0
H504 H 0.60886 0.63987 0.88393 0.0
H505 H 0.64732 0.70902 0.89037 0.0
H506 H 0.61258 0.87222 0.86332 0.0
H507 H 0.64554 0.80028 0.85036 0.0
H508 H 0.387 0.7219 0.85968 0.0
H509 H 0.42053 0.64916 0.86502 0.0
H510 H 0.3877 0.80887 0.90855 0.0
H511 H 0.42526 0.87876 0.90601 0.0
C512 C 0.52624 0.7481 0.24624 0.0
C513 C 0.55493 0.75239 0.18812 0.0
C514 C 0.47045 0.76322 0.13115 0.0
C515 C 0.44143 0.75224 0.18783 0.0
N516 N 0.44375 0.71795 0.29703 0.0
N517 N 0.55103 0.74048 0.07408 0.0
C518 C 0.46983 0.74017 0.2449 0.0
C519 C 0.52592 0.75287 0.13024 0.0
N520 N 0.55187 0.75361 0.30284 0.0
N521 N 0.44523 0.78435 0.07789 0.0
H522 H 0.58938 0.72226 0.07182 0.0
H523 H 0.53213 0.74015 0.03031 0.0
H524 H 0.40537 0.79675 0.07716 0.0
H525 H 0.46497 0.79683 0.03648 0.0
H526 H 0.53195 0.75713 0.34594 0.0
H527 H 0.59238 0.76128 0.3068 0.0
H528 H 0.46327 0.70155 0.3373 0.0
H529 H 0.40313 0.70949 0.29776 0.0
C530 C 0.54517 0.24524 0.55282 0.0
C531 C 0.51457 0.20244 0.58856 0.0
C532 C 0.46313 0.29349 0.62882 0.0
C533 C 0.49424 0.33466 0.59087 0.0
N534 N 0.57665 0.35181 0.53722 0.0
N535 N 0.455 0.18887 0.67685 0.0
C536 C 0.53968 0.31089 0.56088 0.0
C537 C 0.47727 0.22753 0.63262 0.0
N538 N 0.57846 0.22296 0.50822 0.0
N539 N 0.41875 0.31617 0.65765 0.0
H540 H 0.46413 0.14086 0.67972 0.0
H541 H 0.43098 0.20561 0.7133 0.0
H542 H 0.40846 0.36399 0.65597 0.0
H543 H 0.3912 0.28718 0.68008 0.0
H544 H 0.58706 0.24866 0.46749 0.0
H545 H 0.59519 0.17847 0.5127 0.0
H546 H 0.6084 0.33806 0.50917 0.0
H547 H 0.57683 0.3997 0.54903 0.0
C548 C 0.04716 0.2564 0.75205 0.0
C549 C 0.07348 0.25132 0.69231 0.0
C550 C 0.98697 0.25706 0.64011 0.0
C551 C 0.96002 0.25059 0.69883 0.0
N552 N 0.96659 0.23613 0.81202 0.0
N553 N 0.06406 0.22594 0.58102 0.0
C554 C 0.99064 0.24811 0.75543 0.0
C555 C 0.04197 0.24522 0.63688 0.0
N556 N 0.07515 0.27194 0.80505 0.0
N557 N 0.96003 0.2752 0.58697 0.0
H558 H 0.10321 0.21094 0.57734 0.0
H559 H 0.04189 0.21729 0.54041 0.0
H560 H 0.92074 0.29037 0.58826 0.0
H561 H 0.97819 0.28176 0.54322 0.0
H562 H 0.05714 0.28227 0.84825 0.0
H563 H 0.11574 0.28048 0.80453 0.0
H564 H 0.98765 0.2269 0.85344 0.0
H565 H 0.9258 0.23067 0.81655 0.0
C566 C 0.97552 0.77416 0.08295 0.0
C567 C 0.01122 0.81494 0.1124 0.0
C568 C 0.06436 0.72284 0.1448 0.0
C569 C 0.03106 0.68351 0.10778 0.0
N570 N 0.9479 0.66785 0.05727 0.0
N571 N 0.07511 0.82602 0.19545 0.0
C572 C 0.98382 0.70827 0.08302 0.0
C573 C 0.0511 0.78871 0.15161 0.0
N574 N 0.93265 0.80012 0.05562 0.0
N575 N 0.10988 0.69868 0.16938 0.0
H576 H 0.06512 0.87366 0.20056 0.0
H577 H 0.10061 0.80811 0.22975 0.0
H578 H 0.11951 0.6508 0.1654 0.0
H579 H 0.13867 0.72675 0.19049 0.0
H580 H 0.91324 0.77968 0.01824 0.0
H581 H 0.92138 0.84579 0.06769 0.0
H582 H 0.92301 0.68051 0.0208 0.0
H583 H 0.94671 0.62001 0.06924 0.0
C584 C 0.29897 0.46507 0.22734 0.0
C585 C 0.26296 0.43698 0.27034 0.0
C586 C 0.22204 0.54175 0.28917 0.0
C587 C 0.25546 0.56872 0.24243 0.0
N588 N 0.31918 0.55178 0.15778 0.0
N589 N 0.18468 0.44594 0.33486 0.0
C590 C 0.29144 0.52895 0.20841 0.0
C591 C 0.22286 0.47476 0.29917 0.0
N592 N 0.34315 0.43276 0.20817 0.0
N593 N 0.18939 0.58001 0.32376 0.0
H594 H 0.18372 0.39706 0.34179 0.0
H595 H 0.15161 0.46918 0.35286 0.0
H596 H 0.18619 0.62853 0.31554 0.0
H597 H 0.16805 0.56464 0.36304 0.0
H598 H 0.3745 0.4541 0.18419 0.0
H599 H 0.35134 0.3862 0.22106 0.0
H600 H 0.33933 0.52248 0.12628 0.0
H601 H 0.32144 0.59938 0.1457 0.0
C602 C 0.7858 0.04 0.80828 0.0
C603 C 0.75028 0.06668 0.76439 0.0
C604 C 0.7134 0.95998 0.74462 0.0
C605 C 0.7564 0.93326 0.77844 0.0
N606 N 0.83966 0.94911 0.83264 0.0
N607 N 0.67575 0.05363 0.69478 0.0
C608 C 0.79428 0.9738 0.80753 0.0
C609 C 0.71237 0.02688 0.73407 0.0
N610 N 0.81103 0.0774 0.85129 0.0
N611 N 0.67309 0.92198 0.72441 0.0
H612 H 0.67114 0.10266 0.69161 0.0
H613 H 0.65117 0.0278 0.66485 0.0
H614 H 0.67354 0.87297 0.73051 0.0
H615 H 0.63804 0.93914 0.705 0.0
H616 H 0.83391 0.0589 0.88792 0.0
H617 H 0.80367 0.12571 0.85535 0.0
H618 H 0.87026 0.97694 0.85035 0.0
H619 H 0.84924 0.90126 0.82922 0.0
C620 C 0.30461 0.51636 0.99422 0.0
C621 C 0.32981 0.5771 0.99432 0.0
C622 C 0.24275 0.62597 0.00782 0.0
C623 C 0.2171 0.56748 0.99707 0.0
N624 N 0.2249 0.45759 0.96783 0.0
N625 N 0.31726 0.69021 0.97942 0.0
C626 C 0.24831 0.5126 0.98665 0.0
C627 C 0.29716 0.63205 0.99432 0.0
N628 N 0.33311 0.4625 0.00492 0.0
N629 N 0.21505 0.67613 0.03162 0.0
H630 H 0.35571 0.69713 0.96346 0.0
H631 H 0.29389 0.73058 0.97534 0.0
H632 H 0.17629 0.67223 0.04836 0.0
H633 H 0.23262 0.71928 0.04192 0.0
H634 H 0.31539 0.41833 0.01063 0.0
H635 H 0.37328 0.46241 0.0156 0.0
H636 H 0.24655 0.4182 0.95318 0.0
H637 H 0.18413 0.45334 0.9616 0.0
C638 C 0.72703 0.03927 0.22444 0.0
C639 C 0.77366 0.06295 0.25318 0.0
C640 C 0.80593 0.95335 0.26746 0.0
C641 C 0.76075 0.93036 0.23504 0.0
N642 N 0.68363 0.95331 0.17131 0.0
N643 N 0.86105 0.04426 0.29376 0.0
C644 C 0.72313 0.97398 0.2101 0.0
C645 C 0.81422 0.02024 0.27226 0.0
N646 N 0.68446 0.07811 0.2147 0.0
N647 N 0.84072 0.91124 0.2935 0.0
H648 H 0.86831 0.09287 0.29491 0.0
H649 H 0.89399 0.01682 0.30479 0.0
H650 H 0.83595 0.86239 0.28918 0.0
H651 H 0.87197 0.92423 0.32281 0.0
H652 H 0.64679 0.06143 0.20352 0.0
H653 H 0.68525 0.12664 0.22248 0.0
H654 H 0.6599 0.98379 0.1449 0.0
H655 H 0.67606 0.9057 0.16292 0.0
C656 C 0.78594 0.89279 0.01627 0.0
C657 C 0.81676 0.94911 0.01868 0.0
C658 C 0.73108 0.00767 0.0221 0.0
C659 C 0.70237 0.95058 0.00966 0.0
N660 N 0.70792 0.8412 0.97697 0.0
N661 N 0.81589 0.06324 0.01679 0.0
C662 C 0.73188 0.89449 0.99983 0.0
C663 C 0.78854 0.00774 0.01963 0.0
N664 N 0.80697 0.83719 0.03631 0.0
N665 N 0.70409 0.06099 0.03881 0.0
H666 H 0.85709 0.06487 0.01537 0.0
H667 H 0.79755 0.10704 0.01103 0.0
H668 H 0.6629 0.0625 0.04106 0.0
H669 H 0.72271 0.10186 0.05502 0.0
H670 H 0.78554 0.79526 0.03848 0.0
H671 H 0.83997 0.83728 0.06503 0.0
H672 H 0.72841 0.79968 0.96661 0.0
H673 H 0.6688 0.84053 0.9618 0.0
C674 C 0.23429 0.54522 0.70657 0.0
C675 C 0.26704 0.57069 0.7543 0.0
C676 C 0.30368 0.46369 0.77378 0.0
C677 C 0.26408 0.43785 0.73405 0.0
N678 N 0.18445 0.45381 0.67279 0.0
N679 N 0.33497 0.55503 0.83283 0.0
C680 C 0.22741 0.47873 0.70326 0.0
C681 C 0.30266 0.52998 0.78752 0.0
N682 N 0.20946 0.58412 0.66443 0.0
N683 N 0.34269 0.42537 0.79697 0.0
H684 H 0.33741 0.60366 0.84076 0.0
H685 H 0.35787 0.52791 0.86352 0.0
H686 H 0.34344 0.37668 0.78874 0.0
H687 H 0.37583 0.44205 0.82099 0.0
H688 H 0.18817 0.56717 0.62591 0.0
H689 H 0.21484 0.6329 0.66343 0.0
H690 H 0.15431 0.48118 0.65336 0.0
H691 H 0.17589 0.40558 0.673 0.0
C692 C 0.21968 0.39176 0.49463 0.0
C693 C 0.18694 0.44661 0.49722 0.0
C694 C 0.26829 0.51143 0.48661 0.0
C695 C 0.29999 0.45651 0.49558 0.0
N696 N 0.30335 0.34589 0.52466 0.0
N697 N 0.18259 0.56119 0.50228 0.0
C698 C 0.27467 0.39736 0.50529 0.0
C699 C 0.21184 0.50739 0.4948 0.0
N700 N 0.19887 0.33415 0.47899 0.0
N701 N 0.29149 0.56669 0.46793 0.0
H702 H 0.14203 0.56103 0.51067 0.0
H703 H 0.19951 0.60595 0.50647 0.0
H704 H 0.33227 0.57119 0.46186 0.0
H705 H 0.26992 0.6062 0.45352 0.0
H706 H 0.22204 0.2941 0.47104 0.0
H707 H 0.15952 0.32803 0.46599 0.0
H708 H 0.28655 0.3018 0.5337 0.0
H709 H 0.34287 0.34901 0.53873 0.0
C710 C 0.71554 0.61009 0.96365 0.0
C711 C 0.75932 0.64214 0.93807 0.0
C712 C 0.79019 0.66477 0.04528 0.0
C713 C 0.74105 0.64598 0.07016 0.0
N714 N 0.65569 0.59907 0.05362 0.0
N715 N 0.84192 0.68978 0.95306 0.0
C716 C 0.70364 0.61638 0.0299 0.0
C717 C 0.79796 0.66517 0.979 0.0
N718 N 0.68684 0.57232 0.92497 0.0
N719 N 0.82846 0.6853 0.08572 0.0
H720 H 0.85399 0.67654 0.9077 0.0
H721 H 0.85715 0.73104 0.97126 0.0
H722 H 0.82777 0.67494 0.13403 0.0
H723 H 0.85772 0.71651 0.07232 0.0
H724 H 0.65922 0.54117 0.94262 0.0
H725 H 0.69618 0.56654 0.87719 0.0
H726 H 0.62436 0.58557 0.02479 0.0
H727 H 0.64686 0.60229 0.10183 0.0
C728 C 0.55332 0.50374 0.28421 0.0
C729 C 0.50592 0.52061 0.3166 0.0
C730 C 0.46748 0.5564 0.2165 0.0
C731 C 0.51242 0.53336 0.18273 0.0
N732 N 0.59782 0.48357 0.18354 0.0
N733 N 0.41539 0.55648 0.31266 0.0
C734 C 0.5554 0.50656 0.21647 0.0
C735 C 0.46265 0.54606 0.28263 0.0
N736 N 0.59634 0.48561 0.319 0.0
N737 N 0.42941 0.58983 0.18541 0.0
H738 H 0.41023 0.55228 0.36143 0.0
H739 H 0.38016 0.56597 0.28894 0.0
H740 H 0.42766 0.59302 0.13639 0.0
H741 H 0.40107 0.61682 0.2088 0.0
H742 H 0.63348 0.4762 0.29991 0.0
H743 H 0.59565 0.48471 0.36845 0.0
H744 H 0.62907 0.45895 0.2041 0.0
H745 H 0.60004 0.48573 0.13423 0.0
C746 C 0.79145 0.38098 0.46655 0.0
C747 C 0.7526 0.3406 0.43999 0.0
C748 C 0.72302 0.31564 0.54777 0.0
C749 C 0.76992 0.34075 0.57283 0.0
N750 N 0.85178 0.39523 0.55487 0.0
N751 N 0.6828 0.2675 0.45786 0.0
C752 C 0.80454 0.37453 0.53228 0.0
C753 C 0.718 0.30894 0.48159 0.0
N754 N 0.8164 0.42416 0.42939 0.0
N755 N 0.68427 0.29508 0.58781 0.0
H756 H 0.66917 0.27159 0.41181 0.0
H757 H 0.67315 0.22671 0.48266 0.0
H758 H 0.6843 0.30588 0.63598 0.0
H759 H 0.65157 0.26958 0.57307 0.0
H760 H 0.84103 0.4588 0.44824 0.0
H761 H 0.80793 0.42874 0.38134 0.0
H762 H 0.88134 0.41348 0.5258 0.0
H763 H 0.86242 0.38814 0.6019 0.0
C764 C 0.0457 0.53552 0.7125 0.0
C765 C 1.00143 0.50179 0.68948 0.0
C766 C 0.96865 0.48988 0.79934 0.0
C767 C 0.01642 0.51634 0.82204 0.0
N768 N 0.10442 0.55488 0.80096 0.0
N769 N 0.91964 0.44771 0.70998 0.0
C770 C 0.05601 0.5365 0.77864 0.0
C771 C 0.96247 0.4794 0.73292 0.0
N772 N 0.0778 0.56722 0.67133 0.0
N773 N 0.92882 0.4765 0.84106 0.0
H774 H 0.91191 0.44634 0.66163 0.0
H775 H 0.89296 0.42264 0.73798 0.0
H776 H 0.93333 0.48141 0.88996 0.0
H777 H 0.89082 0.46327 0.8274 0.0
H778 H 0.1067 0.59889 0.68629 0.0
H779 H 0.07188 0.56755 0.62254 0.0
H780 H 0.13652 0.56505 0.77183 0.0
H781 H 0.11406 0.55385 0.84898 0.0
C782 C 0.77576 0.1069 0.51306 0.0
C783 C 0.80906 0.05368 0.50159 0.0
C784 C 0.72605 0.99483 0.47681 0.0
C785 C 0.69488 0.04609 0.50006 0.0
N786 N 0.6951 0.13979 0.56381 0.0
N787 N 0.81137 0.94085 0.47966 0.0
C788 C 0.72155 0.098 0.52641 0.0
C789 C 0.78305 0.99548 0.48531 0.0
N790 N 0.79444 0.16702 0.50639 0.0
N791 N 0.70165 0.94628 0.44603 0.0
H792 H 0.85201 0.93842 0.48687 0.0
H793 H 0.79358 0.89685 0.47311 0.0
H794 H 0.66054 0.94412 0.44141 0.0
H795 H 0.72237 0.91089 0.42219 0.0
H796 H 0.77058 0.20627 0.51348 0.0
H797 H 0.83101 0.17742 0.48615 0.0
H798 H 0.71455 0.17641 0.58711 0.0
H799 H 0.65582 0.13264 0.57727 0.0
loop_
_geom_bond_atom_site_label_1
_geom_bond_atom_site_label_2
_geom_bond_distance
_geom_bond_site_symmetry_2
_ccdc_geom_bond_type
Co0 O1 2.216 . S
Co0 O2 2.091 . S
Co0 O4 2.004 . S
Co0 O10 2.021 . S
Co0 O12 2.137 . S
Co0 O13 2.244 . S
O1 Co0 2.216 . S
O1 C8 1.247 . S
O2 Co0 2.091 . S
O2 C8 1.261 . S
C3 O12 1.247 . S
C3 O13 1.272 . S
O4 Co0 2.004 . S
O4 C9 1.259 . S
Co5 O6 2.061 . S
Co5 O11 2.052 . S
Co5 O13 2.135 . S
O6 Co5 2.061 . S
O6 C9 1.235 . S
C7 O10 1.238 . S
C7 O11 1.241 . S
C8 O1 1.247 . S
C8 O2 1.261 . S
C9 O4 1.259 . S
C9 O6 1.235 . S
O10 Co0 2.021 . S
O10 C7 1.238 . S
O11 Co5 2.052 . S
O11 C7 1.241 . S
O12 Co0 2.137 . S
O12 C3 1.247 . S
O13 Co0 2.244 . S
O13 C3 1.272 . S
O13 Co5 2.135 . S
Co14 O15 2.216 1_655 S
Co14 O16 2.091 1_545 S
Co14 O18 2.004 . S
Co14 O24 2.021 1_545 S
Co14 O26 2.137 . S
Co14 O27 2.244 . S
O15 Co14 2.216 1_455 S
O15 C22 1.247 1_545 S
O16 Co14 2.091 1_565 S
O16 C22 1.261 1_655 S
C17 O26 1.247 . S
C17 O27 1.272 . S
O18 Co14 2.004 . S
O18 C23 1.259 . S
Co19 O20 2.061 . S
Co19 O25 2.052 . S
Co19 O27 2.135 . S
O20 Co19 2.061 . S
O20 C23 1.235 . S
C21 O24 1.238 . S
C21 O25 1.241 1_565 S
C22 O15 1.247 1_565 S
C22 O16 1.261 1_455 S
C23 O18 1.259 . S
C23 O20 1.235 . S
O24 Co14 2.021 1_565 S
O24 C21 1.238 . S
O25 Co19 2.052 . S
O25 C21 1.241 1_545 S
O26 Co14 2.137 . S
O26 C17 1.247 . S
O27 Co14 2.244 . S
O27 C17 1.272 . S
O27 Co19 2.135 . S
Co28 O29 2.216 . S
Co28 O30 2.091 . S
Co28 O32 2.004 . S
Co28 O38 2.021 . S
Co28 O40 2.137 . S
Co28 O41 2.244 . S
O29 Co28 2.216 . S
O29 C36 1.247 . S
O30 Co28 2.091 . S
O30 C36 1.261 . S
C31 O40 1.247 . S
C31 O41 1.272 . S
O32 Co28 2.004 . S
O32 C37 1.259 . S
Co33 O34 2.061 . S
Co33 O39 2.052 . S
Co33 O41 2.135 . S
O34 Co33 2.061 . S
O34 C37 1.235 . S
C35 O38 1.238 . S
C35 O39 1.241 . S
C36 O29 1.247 . S
C36 O30 1.261 . S
C37 O32 1.259 . S
C37 O34 1.235 . S
O38 Co28 2.021 . S
O38 C35 1.238 . S
O39 Co33 2.052 . S
O39 C35 1.241 . S
O40 Co28 2.137 . S
O40 C31 1.247 . S
O41 Co28 2.244 . S
O41 C31 1.272 . S
O41 Co33 2.135 . S
Co42 O43 2.216 . S
Co42 O44 2.091 1_565 S
Co42 O46 2.004 . S
Co42 O52 2.021 1_566 S
Co42 O54 2.137 . S
Co42 O55 2.244 1_556 S
O43 Co42 2.216 . S
O43 C50 1.247 1_565 S
O44 Co42 2.091 1_545 S
O44 C50 1.261 . S
C45 O54 1.247 . S
C45 O55 1.272 1_556 S
O46 Co42 2.004 . S
O46 C51 1.259 . S
Co47 O48 2.061 . S
Co47 O53 2.052 . S
Co47 O55 2.135 . S
O48 Co47 2.061 . S
O48 C51 1.235 1_554 S
C49 O52 1.238 . S
C49 O53 1.241 1_545 S
C50 O43 1.247 1_545 S
C50 O44 1.261 . S
C51 O46 1.259 . S
C51 O48 1.235 1_556 S
O52 Co42 2.021 1_544 S
O52 C49 1.238 . S
O53 Co47 2.052 . S
O53 C49 1.241 1_565 S
O54 Co42 2.137 . S
O54 C45 1.247 . S
O55 Co42 2.244 1_554 S
O55 C45 1.272 1_554 S
O55 Co47 2.135 . S
Co56 O57 2.216 . S
Co56 O58 2.091 . S
Co56 O60 2.004 . S
Co56 O66 2.021 . S
Co56 O68 2.137 . S
Co56 O69 2.244 . S
O57 Co56 2.216 . S
O57 C64 1.247 . S
O58 Co56 2.091 . S
O58 C64 1.261 . S
C59 O68 1.247 . S
C59 O69 1.272 . S
O60 Co56 2.004 . S
O60 C65 1.259 . S
Co61 O62 2.061 . S
Co61 O67 2.052 . S
Co61 O69 2.135 . S
O62 Co61 2.061 . S
O62 C65 1.235 . S
C63 O66 1.238 . S
C63 O67 1.241 . S
C64 O57 1.247 . S
C64 O58 1.261 . S
C65 O60 1.259 . S
C65 O62 1.235 . S
O66 Co56 2.021 . S
O66 C63 1.238 . S
O67 Co61 2.052 . S
O67 C63 1.241 . S
O68 Co56 2.137 . S
O68 C59 1.247 . S
O69 Co56 2.244 . S
O69 C59 1.272 . S
O69 Co61 2.135 . S
Co70 O71 2.216 . S
Co70 O72 2.091 1_545 S
Co70 O74 2.004 . S
Co70 O80 2.021 1_545 S
Co70 O82 2.137 . S
Co70 O83 2.244 . S
O71 Co70 2.216 . S
O71 C78 1.247 1_545 S
O72 Co70 2.091 1_565 S
O72 C78 1.261 . S
C73 O82 1.247 . S
C73 O83 1.272 . S
O74 Co70 2.004 . S
O74 C79 1.259 . S
Co75 O76 2.061 . S
Co75 O81 2.052 . S
Co75 O83 2.135 . S
O76 Co75 2.061 . S
O76 C79 1.235 . S
C77 O80 1.238 . S
C77 O81 1.241 1_565 S
C78 O71 1.247 1_565 S
C78 O72 1.261 . S
C79 O74 1.259 . S
C79 O76 1.235 . S
O80 Co70 2.021 1_565 S
O80 C77 1.238 . S
O81 Co75 2.052 . S
O81 C77 1.241 1_545 S
O82 Co70 2.137 . S
O82 C73 1.247 . S
O83 Co70 2.244 . S
O83 C73 1.272 . S
O83 Co75 2.135 . S
Co84 O85 2.216 . S
Co84 O86 2.091 . S
Co84 O88 2.004 . S
Co84 O94 2.021 . S
Co84 O96 2.137 . S
Co84 O97 2.244 . S
O85 Co84 2.216 . S
O85 C92 1.247 . S
O86 Co84 2.091 . S
O86 C92 1.261 . S
C87 O96 1.247 . S
C87 O97 1.272 . S
O88 Co84 2.004 . S
O88 C93 1.259 . S
Co89 O90 2.061 . S
Co89 O95 2.052 . S
Co89 O97 2.135 . S
O90 Co89 2.061 . S
O90 C93 1.235 . S
C91 O94 1.238 . S
C91 O95 1.241 . S
C92 O85 1.247 . S
C92 O86 1.261 . S
C93 O88 1.259 . S
C93 O90 1.235 . S
O94 Co84 2.021 . S
O94 C91 1.238 . S
O95 Co89 2.052 . S
O95 C91 1.241 . S
O96 Co84 2.137 . S
O96 C87 1.247 . S
O97 Co84 2.244 . S
O97 C87 1.272 . S
O97 Co89 2.135 . S
Co98 O99 2.216 1_655 S
Co98 O100 2.091 1_565 S
Co98 O102 2.004 . S
Co98 O108 2.021 1_564 S
Co98 O110 2.137 . S
Co98 O111 2.244 1_554 S
O99 Co98 2.216 1_455 S
O99 C106 1.247 1_565 S
O100 Co98 2.091 1_545 S
O100 C106 1.261 1_655 S
C101 O110 1.247 . S
C101 O111 1.272 1_554 S
O102 Co98 2.004 . S
O102 C107 1.259 . S
Co103 O104 2.061 . S
Co103 O109 2.052 . S
Co103 O111 2.135 . S
O104 Co103 2.061 . S
O104 C107 1.235 1_556 S
C105 O108 1.238 . S
C105 O109 1.241 1_545 S
C106 O99 1.247 1_545 S
C106 O100 1.261 1_455 S
C107 O102 1.259 . S
C107 O104 1.235 1_554 S
O108 Co98 2.021 1_546 S
O108 C105 1.238 . S
O109 Co103 2.052 . S
O109 C105 1.241 1_565 S
O110 Co98 2.137 . S
O110 C101 1.247 . S
O111 Co98 2.244 1_556 S
O111 C101 1.272 1_556 S
O111 Co103 2.135 . S
Co112 O113 2.216 . S
Co112 O114 2.091 . S
Co112 O116 2.004 . S
Co112 O122 2.021 . S
Co112 O124 2.137 . S
Co112 O125 2.244 . S
O113 Co112 2.216 . S
O113 C120 1.247 . S
O114 Co112 2.091 . S
O114 C120 1.261 . S
C115 O124 1.247 . S
C115 O125 1.272 . S
O116 Co112 2.004 . S
O116 C121 1.259 . S
Co117 O118 2.061 . S
Co117 O123 2.052 . S
Co117 O125 2.135 . S
O118 Co117 2.061 . S
O118 C121 1.235 . S
C119 O122 1.238 . S
C119 O123 1.241 . S
C120 O113 1.247 . S
C120 O114 1.261 . S
C121 O116 1.259 . S
C121 O118 1.235 . S
O122 Co112 2.021 . S
O122 C119 1.238 . S
O123 Co117 2.052 . S
O123 C119 1.241 . S
O124 Co112 2.137 . S
O124 C115 1.247 . S
O125 Co112 2.244 . S
O125 C115 1.272 . S
O125 Co117 2.135 . S
Co126 O127 2.216 1_455 S
Co126 O128 2.091 . S
Co126 O130 2.004 . S
Co126 O136 2.021 1_554 S
Co126 O138 2.137 . S
Co126 O139 2.244 1_554 S
O127 Co126 2.216 1_655 S
O127 C134 1.247 . S
O128 Co126 2.091 . S
O128 C134 1.261 1_455 S
C129 O138 1.247 . S
C129 O139 1.272 1_554 S
O130 Co126 2.004 . S
O130 C135 1.259 . S
Co131 O132 2.061 . S
Co131 O137 2.052 . S
Co131 O139 2.135 . S
O132 Co131 2.061 . S
O132 C135 1.235 1_556 S
C133 O136 1.238 . S
C133 O137 1.241 . S
C134 O127 1.247 . S
C134 O128 1.261 1_655 S
C135 O130 1.259 . S
C135 O132 1.235 1_554 S
O136 Co126 2.021 1_556 S
O136 C133 1.238 . S
O137 Co131 2.052 . S
O137 C133 1.241 . S
O138 Co126 2.137 . S
O138 C129 1.247 . S
O139 Co126 2.244 1_556 S
O139 C129 1.272 1_556 S
O139 Co131 2.135 . S
Co140 O141 2.216 . S
Co140 O142 2.091 . S
Co140 O144 2.004 . S
Co140 O150 2.021 . S
Co140 O152 2.137 . S
Co140 O153 2.244 . S
O141 Co140 2.216 . S
O141 C148 1.247 . S
O142 Co140 2.091 . S
O142 C148 1.261 . S
C143 O152 1.247 . S
C143 O153 1.272 . S
O144 Co140 2.004 . S
O144 C149 1.259 . S
Co145 O146 2.061 . S
Co145 O151 2.052 . S
Co145 O153 2.135 . S
O146 Co145 2.061 . S
O146 C149 1.235 . S
C147 O150 1.238 . S
C147 O151 1.241 . S
C148 O141 1.247 . S
C148 O142 1.261 . S
C149 O144 1.259 . S
C149 O146 1.235 . S
O150 Co140 2.021 . S
O150 C147 1.238 . S
O151 Co145 2.052 . S
O151 C147 1.241 . S
O152 Co140 2.137 . S
O152 C143 1.247 . S
O153 Co140 2.244 . S
O153 C143 1.272 . S
O153 Co145 2.135 . S
Co154 O155 2.216 1_455 S
Co154 O156 2.091 . S
Co154 O158 2.004 . S
Co154 O164 2.021 . S
Co154 O166 2.137 . S
Co154 O167 2.244 . S
O155 Co154 2.216 1_655 S
O155 C162 1.247 . S
O156 Co154 2.091 . S
O156 C162 1.261 1_455 S
C157 O166 1.247 . S
C157 O167 1.272 . S
O158 Co154 2.004 . S
O158 C163 1.259 . S
Co159 O160 2.061 . S
Co159 O165 2.052 . S
Co159 O167 2.135 . S
O160 Co159 2.061 . S
O160 C163 1.235 . S
C161 O164 1.238 . S
C161 O165 1.241 . S
C162 O155 1.247 . S
C162 O156 1.261 1_655 S
C163 O158 1.259 . S
C163 O160 1.235 . S
O164 Co154 2.021 . S
O164 C161 1.238 . S
O165 Co159 2.052 . S
O165 C161 1.241 . S
O166 Co154 2.137 . S
O166 C157 1.247 . S
O167 Co154 2.244 . S
O167 C157 1.272 . S
O167 Co159 2.135 . S
Co168 O169 2.216 . S
Co168 O170 2.091 . S
Co168 O172 2.004 . S
Co168 O178 2.021 1_556 S
Co168 O180 2.137 . S
Co168 O181 2.244 1_556 S
O169 Co168 2.216 . S
O169 C176 1.247 . S
O170 Co168 2.091 . S
O170 C176 1.261 . S
C171 O180 1.247 . S
C171 O181 1.272 1_556 S
O172 Co168 2.004 . S
O172 C177 1.259 . S
Co173 O174 2.061 . S
Co173 O179 2.052 . S
Co173 O181 2.135 . S
O174 Co173 2.061 . S
O174 C177 1.235 1_554 S
C175 O178 1.238 . S
C175 O179 1.241 . S
C176 O169 1.247 . S
C176 O170 1.261 . S
C177 O172 1.259 . S
C177 O174 1.235 1_556 S
O178 Co168 2.021 1_554 S
O178 C175 1.238 . S
O179 Co173 2.052 . S
O179 C175 1.241 . S
O180 Co168 2.137 . S
O180 C171 1.247 . S
O181 Co168 2.244 1_554 S
O181 C171 1.272 1_554 S
O181 Co173 2.135 . S
Co182 O183 2.216 . S
Co182 O184 2.091 . S
Co182 O186 2.004 . S
Co182 O192 2.021 . S
Co182 O194 2.137 . S
Co182 O195 2.244 . S
O183 Co182 2.216 . S
O183 C190 1.247 . S
O184 Co182 2.091 . S
O184 C190 1.261 . S
C185 O194 1.247 . S
C185 O195 1.272 . S
O186 Co182 2.004 . S
O186 C191 1.259 . S
Co187 O188 2.061 . S
Co187 O193 2.052 . S
Co187 O195 2.135 . S
O188 Co187 2.061 . S
O188 C191 1.235 . S
C189 O192 1.238 . S
C189 O193 1.241 . S
C190 O183 1.247 . S
C190 O184 1.261 . S
C191 O186 1.259 . S
C191 O188 1.235 . S
O192 Co182 2.021 . S
O192 C189 1.238 . S
O193 Co187 2.052 . S
O193 C189 1.241 . S
O194 Co182 2.137 . S
O194 C185 1.247 . S
O195 Co182 2.244 . S
O195 C185 1.272 . S
O195 Co187 2.135 . S
Co196 O197 2.216 . S
Co196 O198 2.091 . S
Co196 O200 2.004 . S
Co196 O206 2.021 . S
Co196 O208 2.137 . S
Co196 O209 2.244 . S
O197 Co196 2.216 . S
O197 C204 1.247 . S
O198 Co196 2.091 . S
O198 C204 1.261 . S
C199 O208 1.247 . S
C199 O209 1.272 . S
O200 Co196 2.004 . S
O200 C205 1.259 . S
Co201 O202 2.061 . S
Co201 O207 2.052 . S
Co201 O209 2.135 . S
O202 Co201 2.061 . S
O202 C205 1.235 . S
C203 O206 1.238 . S
C203 O207 1.241 . S
C204 O197 1.247 . S
C204 O198 1.261 . S
C205 O200 1.259 . S
C205 O202 1.235 . S
O206 Co196 2.021 . S
O206 C203 1.238 . S
O207 Co201 2.052 . S
O207 C203 1.241 . S
O208 Co196 2.137 . S
O208 C199 1.247 . S
O209 Co196 2.244 . S
O209 C199 1.272 . S
O209 Co201 2.135 . S
Co210 O211 2.216 . S
Co210 O212 2.091 . S
Co210 O214 2.004 . S
Co210 O220 2.021 . S
Co210 O222 2.137 . S
Co210 O223 2.244 . S
O211 Co210 2.216 . S
O211 C218 1.247 . S
O212 Co210 2.091 . S
O212 C218 1.261 . S
C213 O222 1.247 . S
C213 O223 1.272 . S
O214 Co210 2.004 . S
O214 C219 1.259 . S
Co215 O216 2.061 . S
Co215 O221 2.052 . S
Co215 O223 2.135 . S
O216 Co215 2.061 . S
O216 C219 1.235 . S
C217 O220 1.238 . S
C217 O221 1.241 . S
C218 O211 1.247 . S
C218 O212 1.261 . S
C219 O214 1.259 . S
C219 O216 1.235 . S
O220 Co210 2.021 . S
O220 C217 1.238 . S
O221 Co215 2.052 . S
O221 C217 1.241 . S
O222 Co210 2.137 . S
O222 C213 1.247 . S
O223 Co210 2.244 . S
O223 C213 1.272 . S
O223 Co215 2.135 . S
C224 C225 1.363 . S
C224 C230 1.379 . S
C224 N232 1.356 . S
C225 C224 1.363 . S
C225 C231 1.363 . S
C226 C227 1.363 . S
C226 C231 1.379 . S
C226 N233 1.356 . S
C227 C226 1.363 . S
C227 C230 1.363 . S
N228 C230 1.356 . S
N228 H240 0.984 1_554 S
N228 H241 0.985 . S
N229 C231 1.356 . S
N229 H234 0.984 . S
N229 H235 0.985 . S
C230 C224 1.379 . S
C230 C227 1.363 . S
C230 N228 1.356 . S
C231 C225 1.363 . S
C231 C226 1.379 . S
C231 N229 1.356 . S
N232 C224 1.356 . S
N232 H238 0.984 . S
N232 H239 0.984 . S
N233 C226 1.356 . S
N233 H236 0.984 1_545 S
N233 H237 0.985 1_545 S
H234 N229 0.984 . S
H235 N229 0.985 . S
H236 N233 0.984 1_565 S
H237 N233 0.985 1_565 S
H238 N232 0.984 . S
H239 N232 0.984 . S
H240 N228 0.984 1_556 S
H241 N228 0.985 . S
C242 C243 1.363 . S
C242 C248 1.379 . S
C242 N250 1.356 . S
C243 C242 1.363 . S
C243 C249 1.363 . S
C244 C245 1.363 . S
C244 C249 1.379 . S
C244 N251 1.356 . S
C245 C244 1.363 . S
C245 C248 1.363 . S
N246 C248 1.356 . S
N246 H258 0.984 . S
N246 H259 0.985 . S
N247 C249 1.356 1_545 S
N247 H252 0.984 . S
N247 H253 0.985 . S
C248 C242 1.379 . S
C248 C245 1.363 . S
C248 N246 1.356 . S
C249 C243 1.363 . S
C249 C244 1.379 . S
C249 N247 1.356 1_565 S
N250 C242 1.356 . S
N250 H256 0.984 . S
N250 H257 0.984 . S
N251 C244 1.356 . S
N251 H254 0.984 . S
N251 H255 0.985 . S
H252 N247 0.984 . S
H253 N247 0.985 . S
H254 N251 0.984 . S
H255 N251 0.985 . S
H256 N250 0.984 . S
H257 N250 0.984 . S
H258 N246 0.984 . S
H259 N246 0.985 . S
C260 C261 1.363 . S
C260 C266 1.379 . S
C260 N268 1.356 . S
C261 C260 1.363 . S
C261 C267 1.363 . S
C262 C263 1.363 . S
C262 C267 1.379 . S
C262 N269 1.356 . S
C263 C262 1.363 . S
C263 C266 1.363 . S
N264 C266 1.356 . S
N264 H276 0.984 . S
N264 H277 0.985 . S
N265 C267 1.356 . S
N265 H270 0.984 . S
N265 H271 0.985 . S
C266 C260 1.379 . S
C266 C263 1.363 . S
C266 N264 1.356 . S
C267 C261 1.363 . S
C267 C262 1.379 . S
C267 N265 1.356 . S
N268 C260 1.356 . S
N268 H274 0.984 1_565 S
N268 H275 0.984 1_565 S
N269 C262 1.356 . S
N269 H272 0.984 . S
N269 H273 0.985 . S
H270 N265 0.984 . S
H271 N265 0.985 . S
H272 N269 0.984 . S
H273 N269 0.985 . S
H274 N268 0.984 1_545 S
H275 N268 0.984 1_545 S
H276 N264 0.984 . S
H277 N264 0.985 . S
C278 C279 1.363 . S
C278 C284 1.379 . S
C278 N286 1.356 . S
C279 C278 1.363 . S
C279 C285 1.363 . S
C280 C281 1.363 . S
C280 C285 1.379 . S
C280 N287 1.356 . S
C281 C280 1.363 . S
C281 C284 1.363 . S
N282 C284 1.356 . S
N282 H294 0.984 . S
N282 H295 0.985 . S
N283 C285 1.356 . S
N283 H288 0.984 . S
N283 H289 0.985 . S
C284 C278 1.379 . S
C284 C281 1.363 . S
C284 N282 1.356 . S
C285 C279 1.363 . S
C285 C280 1.379 . S
C285 N283 1.356 . S
N286 C278 1.356 . S
N286 H292 0.984 1_556 S
N286 H293 0.984 1_556 S
N287 C280 1.356 . S
N287 H290 0.984 . S
N287 H291 0.985 . S
H288 N283 0.984 . S
H289 N283 0.985 . S
H290 N287 0.984 . S
H291 N287 0.985 . S
H292 N286 0.984 1_554 S
H293 N286 0.984 1_554 S
H294 N282 0.984 . S
H295 N282 0.985 . S
C296 C297 1.363 . S
C296 C302 1.379 . S
C296 N304 1.356 . S
C297 C296 1.363 . S
C297 C303 1.363 . S
C298 C299 1.363 . S
C298 C303 1.379 . S
C298 N305 1.356 . S
C299 C298 1.363 . S
C299 C302 1.363 . S
N300 C302 1.356 . S
N300 H312 0.984 . S
N300 H313 0.985 . S
N301 C303 1.356 . S
N301 H306 0.984 . S
N301 H307 0.985 . S
C302 C296 1.379 . S
C302 C299 1.363 . S
C302 N300 1.356 . S
C303 C297 1.363 . S
C303 C298 1.379 . S
C303 N301 1.356 . S
N304 C296 1.356 . S
N304 H310 0.984 . S
N304 H311 0.984 . S
N305 C298 1.356 . S
N305 H308 0.984 . S
N305 H309 0.985 . S
H306 N301 0.984 . S
H307 N301 0.985 . S
H308 N305 0.984 . S
H309 N305 0.985 . S
H310 N304 0.984 . S
H311 N304 0.984 . S
H312 N300 0.984 . S
H313 N300 0.985 . S
C314 C315 1.363 . S
C314 C320 1.379 . S
C314 N322 1.356 . S
C315 C314 1.363 . S
C315 C321 1.363 . S
C316 C317 1.363 . S
C316 C321 1.379 . S
C316 N323 1.356 . S
C317 C316 1.363 . S
C317 C320 1.363 . S
N318 C320 1.356 . S
N318 H330 0.984 . S
N318 H331 0.985 . S
N319 C321 1.356 . S
N319 H324 0.984 . S
N319 H325 0.985 . S
C320 C314 1.379 . S
C320 C317 1.363 . S
C320 N318 1.356 . S
C321 C315 1.363 . S
C321 C316 1.379 . S
C321 N319 1.356 . S
N322 C314 1.356 . S
N322 H328 0.984 . S
N322 H329 0.984 . S
N323 C316 1.356 . S
N323 H326 0.984 . S
N323 H327 0.985 . S
H324 N319 0.984 . S
H325 N319 0.985 . S
H326 N323 0.984 . S
H327 N323 0.985 . S
H328 N322 0.984 . S
H329 N322 0.984 . S
H330 N318 0.984 . S
H331 N318 0.985 . S
C332 C333 1.363 . S
C332 C338 1.379 . S
C332 N340 1.356 . S
C333 C332 1.363 . S
C333 C339 1.363 . S
C334 C335 1.363 . S
C334 C339 1.379 . S
C334 N341 1.356 . S
C335 C334 1.363 . S
C335 C338 1.363 . S
N336 C338 1.356 . S
N336 H348 0.984 . S
N336 H349 0.985 . S
N337 C339 1.356 . S
N337 H342 0.984 . S
N337 H343 0.985 . S
C338 C332 1.379 . S
C338 C335 1.363 . S
C338 N336 1.356 . S
C339 C333 1.363 . S
C339 C334 1.379 . S
C339 N337 1.356 . S
N340 C332 1.356 . S
N340 H346 0.984 . S
N340 H347 0.984 . S
N341 C334 1.356 . S
N341 H344 0.984 . S
N341 H345 0.985 . S
H342 N337 0.984 . S
H343 N337 0.985 . S
H344 N341 0.984 . S
H345 N341 0.985 . S
H346 N340 0.984 . S
H347 N340 0.984 . S
H348 N336 0.984 . S
H349 N336 0.985 . S
C350 C351 1.363 . S
C350 C356 1.379 . S
C350 N358 1.356 . S
C351 C350 1.363 . S
C351 C357 1.363 . S
C352 C353 1.363 . S
C352 C357 1.379 . S
C352 N359 1.356 . S
C353 C352 1.363 . S
C353 C356 1.363 . S
N354 C356 1.356 . S
N354 H366 0.984 . S
N354 H367 0.985 . S
N355 C357 1.356 . S
N355 H360 0.984 . S
N355 H361 0.985 . S
C356 C350 1.379 . S
C356 C353 1.363 . S
C356 N354 1.356 . S
C357 C351 1.363 . S
C357 C352 1.379 . S
C357 N355 1.356 . S
N358 C350 1.356 . S
N358 H364 0.984 . S
N358 H365 0.984 . S
N359 C352 1.356 . S
N359 H362 0.984 . S
N359 H363 0.985 . S
H360 N355 0.984 . S
H361 N355 0.985 . S
H362 N359 0.984 . S
H363 N359 0.985 . S
H364 N358 0.984 . S
H365 N358 0.984 . S
H366 N354 0.984 . S
H367 N354 0.985 . S
C368 C369 1.363 . S
C368 C374 1.379 . S
C368 N376 1.356 . S
C369 C368 1.363 . S
C369 C375 1.363 . S
C370 C371 1.363 . S
C370 C375 1.379 . S
C370 N377 1.356 . S
C371 C370 1.363 . S
C371 C374 1.363 . S
N372 C374 1.356 . S
N372 H384 0.984 . S
N372 H385 0.985 . S
N373 C375 1.356 . S
N373 H378 0.984 . S
N373 H379 0.985 . S
C374 C368 1.379 . S
C374 C371 1.363 . S
C374 N372 1.356 . S
C375 C369 1.363 . S
C375 C370 1.379 . S
C375 N373 1.356 . S
N376 C368 1.356 . S
N376 H382 0.984 . S
N376 H383 0.984 . S
N377 C370 1.356 . S
N377 H380 0.984 . S
N377 H381 0.985 . S
H378 N373 0.984 . S
H379 N373 0.985 . S
H380 N377 0.984 . S
H381 N377 0.985 . S
H382 N376 0.984 . S
H383 N376 0.984 . S
H384 N372 0.984 . S
H385 N372 0.985 . S
C386 C387 1.363 . S
C386 C392 1.379 . S
C386 N394 1.356 . S
C387 C386 1.363 . S
C387 C393 1.363 1_645 S
C388 C389 1.363 1_455 S
C388 C393 1.379 . S
C388 N395 1.356 . S
C389 C388 1.363 1_655 S
C389 C392 1.363 1_565 S
N390 C392 1.356 . S
N390 H402 0.984 . S
N390 H403 0.985 . S
N391 C393 1.356 . S
N391 H396 0.984 . S
N391 H397 0.985 . S
C392 C386 1.379 . S
C392 C389 1.363 1_545 S
C392 N390 1.356 . S
C393 C387 1.363 1_465 S
C393 C388 1.379 . S
C393 N391 1.356 . S
N394 C386 1.356 . S
N394 H400 0.984 . S
N394 H401 0.984 . S
N395 C388 1.356 . S
N395 H398 0.984 . S
N395 H399 0.985 . S
H396 N391 0.984 . S
H397 N391 0.985 . S
H398 N395 0.984 . S
H399 N395 0.985 . S
H400 N394 0.984 . S
H401 N394 0.984 . S
H402 N390 0.984 . S
H403 N390 0.985 . S
C404 C405 1.363 . S
C404 C410 1.379 1_556 S
C404 N412 1.356 . S
C405 C404 1.363 . S
C405 C411 1.363 . S
C406 C407 1.363 . S
C406 C411 1.379 1_554 S
C406 N413 1.356 . S
C407 C406 1.363 . S
C407 C410 1.363 . S
N408 C410 1.356 . S
N408 H420 0.984 . S
N408 H421 0.985 . S
N409 C411 1.356 . S
N409 H414 0.984 . S
N409 H415 0.985 . S
C410 C404 1.379 1_554 S
C410 C407 1.363 . S
C410 N408 1.356 . S
C411 C405 1.363 . S
C411 C406 1.379 1_556 S
C411 N409 1.356 . S
N412 C404 1.356 . S
N412 H418 0.984 . S
N412 H419 0.984 . S
N413 C406 1.356 . S
N413 H416 0.984 . S
N413 H417 0.985 . S
H414 N409 0.984 . S
H415 N409 0.985 . S
H416 N413 0.984 . S
H417 N413 0.985 . S
H418 N412 0.984 . S
H419 N412 0.984 . S
H420 N408 0.984 . S
H421 N408 0.985 . S
C422 C423 1.363 1_545 S
C422 C428 1.379 . S
C422 N430 1.356 . S
C423 C422 1.363 1_565 S
C423 C429 1.363 . S
C424 C425 1.363 1_565 S
C424 C429 1.379 . S
C424 N431 1.356 . S
C425 C424 1.363 1_545 S
C425 C428 1.363 . S
N426 C428 1.356 . S
N426 H438 0.984 . S
N426 H439 0.985 . S
N427 C429 1.356 . S
N427 H432 0.984 . S
N427 H433 0.985 . S
C428 C422 1.379 . S
C428 C425 1.363 . S
C428 N426 1.356 . S
C429 C423 1.363 . S
C429 C424 1.379 . S
C429 N427 1.356 . S
N430 C422 1.356 . S
N430 H436 0.984 . S
N430 H437 0.984 . S
N431 C424 1.356 . S
N431 H434 0.984 . S
N431 H435 0.985 . S
H432 N427 0.984 . S
H433 N427 0.985 . S
H434 N431 0.984 . S
H435 N431 0.985 . S
H436 N430 0.984 . S
H437 N430 0.984 . S
H438 N426 0.984 . S
H439 N426 0.985 . S
C440 C441 1.363 . S
C440 C446 1.379 . S
C440 N448 1.356 . S
C441 C440 1.363 . S
C441 C447 1.363 . S
C442 C443 1.363 . S
C442 C447 1.379 . S
C442 N449 1.356 . S
C443 C442 1.363 . S
C443 C446 1.363 . S
N444 C446 1.356 . S
N444 H456 0.984 . S
N444 H457 0.985 . S
N445 C447 1.356 . S
N445 H450 0.984 . S
N445 H451 0.985 . S
C446 C440 1.379 . S
C446 C443 1.363 . S
C446 N444 1.356 . S
C447 C441 1.363 . S
C447 C442 1.379 . S
C447 N445 1.356 . S
N448 C440 1.356 . S
N448 H454 0.984 . S
N448 H455 0.984 . S
N449 C442 1.356 . S
N449 H452 0.984 . S
N449 H453 0.985 . S
H450 N445 0.984 . S
H451 N445 0.985 . S
H452 N449 0.984 . S
H453 N449 0.985 . S
H454 N448 0.984 . S
H455 N448 0.984 . S
H456 N444 0.984 . S
H457 N444 0.985 . S
C458 C459 1.363 1_655 S
C458 C464 1.379 . S
C458 N466 1.356 . S
C459 C458 1.363 1_455 S
C459 C465 1.363 . S
C460 C461 1.363 1_455 S
C460 C465 1.379 . S
C460 N467 1.356 . S
C461 C460 1.363 1_655 S
C461 C464 1.363 . S
N462 C464 1.356 . S
N462 H474 0.984 . S
N462 H475 0.985 . S
N463 C465 1.356 . S
N463 H468 0.984 . S
N463 H469 0.985 . S
C464 C458 1.379 . S
C464 C461 1.363 . S
C464 N462 1.356 . S
C465 C459 1.363 . S
C465 C460 1.379 . S
C465 N463 1.356 . S
N466 C458 1.356 . S
N466 H472 0.984 . S
N466 H473 0.984 . S
N467 C460 1.356 . S
N467 H470 0.984 . S
N467 H471 0.985 . S
H468 N463 0.984 . S
H469 N463 0.985 . S
H470 N467 0.984 . S
H471 N467 0.985 . S
H472 N466 0.984 . S
H473 N466 0.984 . S
H474 N462 0.984 . S
H475 N462 0.985 . S
C476 C477 1.363 . S
C476 C482 1.379 1_655 S
C476 N484 1.356 . S
C477 C476 1.363 . S
C477 C483 1.363 . S
C478 C479 1.363 . S
C478 C483 1.379 1_455 S
C478 N485 1.356 . S
C479 C478 1.363 . S
C479 C482 1.363 . S
N480 C482 1.356 . S
N480 H492 0.984 . S
N480 H493 0.985 . S
N481 C483 1.356 . S
N481 H486 0.984 . S
N481 H487 0.985 . S
C482 C476 1.379 1_455 S
C482 C479 1.363 . S
C482 N480 1.356 . S
C483 C477 1.363 . S
C483 C478 1.379 1_655 S
C483 N481 1.356 . S
N484 C476 1.356 . S
N484 H490 0.984 . S
N484 H491 0.984 . S
N485 C478 1.356 . S
N485 H488 0.984 . S
N485 H489 0.985 . S
H486 N481 0.984 . S
H487 N481 0.985 . S
H488 N485 0.984 . S
H489 N485 0.985 . S
H490 N484 0.984 . S
H491 N484 0.984 . S
H492 N480 0.984 . S
H493 N480 0.985 . S
C494 C495 1.363 1_554 S
C494 C500 1.379 . S
C494 N502 1.356 . S
C495 C494 1.363 1_556 S
C495 C501 1.363 . S
C496 C497 1.363 . S
C496 C501 1.379 . S
C496 N503 1.356 . S
C497 C496 1.363 . S
C497 C500 1.363 1_556 S
N498 C500 1.356 . S
N498 H510 0.984 . S
N498 H511 0.985 . S
N499 C501 1.356 . S
N499 H504 0.984 . S
N499 H505 0.985 . S
C500 C494 1.379 . S
C500 C497 1.363 1_554 S
C500 N498 1.356 . S
C501 C495 1.363 . S
C501 C496 1.379 . S
C501 N499 1.356 . S
N502 C494 1.356 . S
N502 H508 0.984 . S
N502 H509 0.984 . S
N503 C496 1.356 . S
N503 H506 0.984 . S
N503 H507 0.985 . S
H504 N499 0.984 . S
H505 N499 0.985 . S
H506 N503 0.984 . S
H507 N503 0.985 . S
H508 N502 0.984 . S
H509 N502 0.984 . S
H510 N498 0.984 . S
H511 N498 0.985 . S
C512 C513 1.363 . S
C512 C518 1.379 . S
C512 N520 1.356 . S
C513 C512 1.363 . S
C513 C519 1.363 . S
C514 C515 1.363 . S
C514 C519 1.379 . S
C514 N521 1.356 . S
C515 C514 1.363 . S
C515 C518 1.363 . S
N516 C518 1.356 . S
N516 H528 0.984 . S
N516 H529 0.985 . S
N517 C519 1.356 . S
N517 H522 0.984 . S
N517 H523 0.985 . S
C518 C512 1.379 . S
C518 C515 1.363 . S
C518 N516 1.356 . S
C519 C513 1.363 . S
C519 C514 1.379 . S
C519 N517 1.356 . S
N520 C512 1.356 . S
N520 H526 0.984 . S
N520 H527 0.984 . S
N521 C514 1.356 . S
N521 H524 0.984 . S
N521 H525 0.985 . S
H522 N517 0.984 . S
H523 N517 0.985 . S
H524 N521 0.984 . S
H525 N521 0.985 . S
H526 N520 0.984 . S
H527 N520 0.984 . S
H528 N516 0.984 . S
H529 N516 0.985 . S
C530 C531 1.363 . S
C530 C536 1.379 . S
C530 N538 1.356 . S
C531 C530 1.363 . S
C531 C537 1.363 . S
C532 C533 1.363 . S
C532 C537 1.379 . S
C532 N539 1.356 . S
C533 C532 1.363 . S
C533 C536 1.363 . S
N534 C536 1.356 . S
N534 H546 0.984 . S
N534 H547 0.985 . S
N535 C537 1.356 . S
N535 H540 0.984 . S
N535 H541 0.985 . S
C536 C530 1.379 . S
C536 C533 1.363 . S
C536 N534 1.356 . S
C537 C531 1.363 . S
C537 C532 1.379 . S
C537 N535 1.356 . S
N538 C530 1.356 . S
N538 H544 0.984 . S
N538 H545 0.984 . S
N539 C532 1.356 . S
N539 H542 0.984 . S
N539 H543 0.985 . S
H540 N535 0.984 . S
H541 N535 0.985 . S
H542 N539 0.984 . S
H543 N539 0.985 . S
H544 N538 0.984 . S
H545 N538 0.984 . S
H546 N534 0.984 . S
H547 N534 0.985 . S
C548 C549 1.363 . S
C548 C554 1.379 1_455 S
C548 N556 1.356 . S
C549 C548 1.363 . S
C549 C555 1.363 . S
C550 C551 1.363 . S
C550 C555 1.379 1_655 S
C550 N557 1.356 . S
C551 C550 1.363 . S
C551 C554 1.363 . S
N552 C554 1.356 . S
N552 H564 0.984 . S
N552 H565 0.985 . S
N553 C555 1.356 . S
N553 H558 0.984 . S
N553 H559 0.985 . S
C554 C548 1.379 1_655 S
C554 C551 1.363 . S
C554 N552 1.356 . S
C555 C549 1.363 . S
C555 C550 1.379 1_455 S
C555 N553 1.356 . S
N556 C548 1.356 . S
N556 H562 0.984 . S
N556 H563 0.984 . S
N557 C550 1.356 . S
N557 H560 0.984 . S
N557 H561 0.985 . S
H558 N553 0.984 . S
H559 N553 0.985 . S
H560 N557 0.984 . S
H561 N557 0.985 . S
H562 N556 0.984 . S
H563 N556 0.984 . S
H564 N552 0.984 . S
H565 N552 0.985 . S
C566 C567 1.363 1_556 S
C566 C572 1.379 . S
C566 N574 1.356 . S
C567 C566 1.363 1_554 S
C567 C573 1.363 1_655 S
C568 C569 1.363 . S
C568 C573 1.379 . S
C568 N575 1.356 . S
C569 C568 1.363 . S
C569 C572 1.363 1_454 S
N570 C572 1.356 . S
N570 H582 0.984 . S
N570 H583 0.985 . S
N571 C573 1.356 . S
N571 H576 0.984 . S
N571 H577 0.985 . S
C572 C566 1.379 . S
C572 C569 1.363 1_656 S
C572 N570 1.356 . S
C573 C567 1.363 1_455 S
C573 C568 1.379 . S
C573 N571 1.356 . S
N574 C566 1.356 . S
N574 H580 0.984 . S
N574 H581 0.984 . S
N575 C568 1.356 . S
N575 H578 0.984 . S
N575 H579 0.985 . S
H576 N571 0.984 . S
H577 N571 0.985 . S
H578 N575 0.984 . S
H579 N575 0.985 . S
H580 N574 0.984 . S
H581 N574 0.984 . S
H582 N570 0.984 . S
H583 N570 0.985 . S
C584 C585 1.363 . S
C584 C590 1.379 . S
C584 N592 1.356 . S
C585 C584 1.363 . S
C585 C591 1.363 . S
C586 C587 1.363 . S
C586 C591 1.379 . S
C586 N593 1.356 . S
C587 C586 1.363 . S
C587 C590 1.363 . S
N588 C590 1.356 . S
N588 H600 0.984 . S
N588 H601 0.985 . S
N589 C591 1.356 . S
N589 H594 0.984 . S
N589 H595 0.985 . S
C590 C584 1.379 . S
C590 C587 1.363 . S
C590 N588 1.356 . S
C591 C585 1.363 . S
C591 C586 1.379 . S
C591 N589 1.356 . S
N592 C584 1.356 . S
N592 H598 0.984 . S
N592 H599 0.984 . S
N593 C586 1.356 . S
N593 H596 0.984 . S
N593 H597 0.985 . S
H594 N589 0.984 . S
H595 N589 0.985 . S
H596 N593 0.984 . S
H597 N593 0.985 . S
H598 N592 0.984 . S
H599 N592 0.984 . S
H600 N588 0.984 . S
H601 N588 0.985 . S
C602 C603 1.363 . S
C602 C608 1.379 1_545 S
C602 N610 1.356 . S
C603 C602 1.363 . S
C603 C609 1.363 . S
C604 C605 1.363 . S
C604 C609 1.379 1_565 S
C604 N611 1.356 . S
C605 C604 1.363 . S
C605 C608 1.363 . S
N606 C608 1.356 . S
N606 H618 0.984 . S
N606 H619 0.985 . S
N607 C609 1.356 . S
N607 H612 0.984 . S
N607 H613 0.985 . S
C608 C602 1.379 1_565 S
C608 C605 1.363 . S
C608 N606 1.356 . S
C609 C603 1.363 . S
C609 C604 1.379 1_545 S
C609 N607 1.356 . S
N610 C602 1.356 . S
N610 H616 0.984 . S
N610 H617 0.984 . S
N611 C604 1.356 . S
N611 H614 0.984 . S
N611 H615 0.985 . S
H612 N607 0.984 . S
H613 N607 0.985 . S
H614 N611 0.984 . S
H615 N611 0.985 . S
H616 N610 0.984 . S
H617 N610 0.984 . S
H618 N606 0.984 . S
H619 N606 0.985 . S
C620 C621 1.363 . S
C620 C626 1.379 . S
C620 N628 1.356 . S
C621 C620 1.363 . S
C621 C627 1.363 1_556 S
C622 C623 1.363 . S
C622 C627 1.379 . S
C622 N629 1.356 . S
C623 C622 1.363 . S
C623 C626 1.363 1_554 S
N624 C626 1.356 . S
N624 H636 0.984 . S
N624 H637 0.985 . S
N625 C627 1.356 . S
N625 H630 0.984 . S
N625 H631 0.985 . S
C626 C620 1.379 . S
C626 C623 1.363 1_556 S
C626 N624 1.356 . S
C627 C621 1.363 1_554 S
C627 C622 1.379 . S
C627 N625 1.356 . S
N628 C620 1.356 . S
N628 H634 0.984 . S
N628 H635 0.984 . S
N629 C622 1.356 . S
N629 H632 0.984 . S
N629 H633 0.985 . S
H630 N625 0.984 . S
H631 N625 0.985 . S
H632 N629 0.984 . S
H633 N629 0.985 . S
H634 N628 0.984 . S
H635 N628 0.984 . S
H636 N624 0.984 . S
H637 N624 0.985 . S
C638 C639 1.363 . S
C638 C644 1.379 1_545 S
C638 N646 1.356 . S
C639 C638 1.363 . S
C639 C645 1.363 . S
C640 C641 1.363 . S
C640 C645 1.379 1_565 S
C640 N647 1.356 . S
C641 C640 1.363 . S
C641 C644 1.363 . S
N642 C644 1.356 . S
N642 H654 0.984 . S
N642 H655 0.985 . S
N643 C645 1.356 . S
N643 H648 0.984 . S
N643 H649 0.985 . S
C644 C638 1.379 1_565 S
C644 C641 1.363 . S
C644 N642 1.356 . S
C645 C639 1.363 . S
C645 C640 1.379 1_545 S
C645 N643 1.356 . S
N646 C638 1.356 . S
N646 H652 0.984 . S
N646 H653 0.984 . S
N647 C640 1.356 . S
N647 H650 0.984 . S
N647 H651 0.985 . S
H648 N643 0.984 . S
H649 N643 0.985 . S
H650 N647 0.984 . S
H651 N647 0.985 . S
H652 N646 0.984 . S
H653 N646 0.984 . S
H654 N642 0.984 . S
H655 N642 0.985 . S
C656 C657 1.363 1_556 S
C656 C662 1.379 . S
C656 N664 1.356 . S
C657 C656 1.363 1_554 S
C657 C663 1.363 1_565 S
C658 C659 1.363 1_544 S
C658 C663 1.379 . S
C658 N665 1.356 . S
C659 C658 1.363 1_566 S
C659 C662 1.363 . S
N660 C662 1.356 . S
N660 H672 0.984 . S
N660 H673 0.985 . S
N661 C663 1.356 . S
N661 H666 0.984 . S
N661 H667 0.985 . S
C662 C656 1.379 . S
C662 C659 1.363 . S
C662 N660 1.356 . S
C663 C657 1.363 1_545 S
C663 C658 1.379 . S
C663 N661 1.356 . S
N664 C656 1.356 . S
N664 H670 0.984 . S
N664 H671 0.984 . S
N665 C658 1.356 . S
N665 H668 0.984 . S
N665 H669 0.985 . S
H666 N661 0.984 . S
H667 N661 0.985 . S
H668 N665 0.984 . S
H669 N665 0.985 . S
H670 N664 0.984 . S
H671 N664 0.984 . S
H672 N660 0.984 . S
H673 N660 0.985 . S
C674 C675 1.363 . S
C674 C680 1.379 . S
C674 N682 1.356 . S
C675 C674 1.363 . S
C675 C681 1.363 . S
C676 C677 1.363 . S
C676 C681 1.379 . S
C676 N683 1.356 . S
C677 C676 1.363 . S
C677 C680 1.363 . S
N678 C680 1.356 . S
N678 H690 0.984 . S
N678 H691 0.985 . S
N679 C681 1.356 . S
N679 H684 0.984 . S
N679 H685 0.985 . S
C680 C674 1.379 . S
C680 C677 1.363 . S
C680 N678 1.356 . S
C681 C675 1.363 . S
C681 C676 1.379 . S
C681 N679 1.356 . S
N682 C674 1.356 . S
N682 H688 0.984 . S
N682 H689 0.984 . S
N683 C676 1.356 . S
N683 H686 0.984 . S
N683 H687 0.985 . S
H684 N679 0.984 . S
H685 N679 0.985 . S
H686 N683 0.984 . S
H687 N683 0.985 . S
H688 N682 0.984 . S
H689 N682 0.984 . S
H690 N678 0.984 . S
H691 N678 0.985 . S
C692 C693 1.363 . S
C692 C698 1.379 . S
C692 N700 1.356 . S
C693 C692 1.363 . S
C693 C699 1.363 . S
C694 C695 1.363 . S
C694 C699 1.379 . S
C694 N701 1.356 . S
C695 C694 1.363 . S
C695 C698 1.363 . S
N696 C698 1.356 . S
N696 H708 0.984 . S
N696 H709 0.985 . S
N697 C699 1.356 . S
N697 H702 0.984 . S
N697 H703 0.985 . S
C698 C692 1.379 . S
C698 C695 1.363 . S
C698 N696 1.356 . S
C699 C693 1.363 . S
C699 C694 1.379 . S
C699 N697 1.356 . S
N700 C692 1.356 . S
N700 H706 0.984 . S
N700 H707 0.984 . S
N701 C694 1.356 . S
N701 H704 0.984 . S
N701 H705 0.985 . S
H702 N697 0.984 . S
H703 N697 0.985 . S
H704 N701 0.984 . S
H705 N701 0.985 . S
H706 N700 0.984 . S
H707 N700 0.984 . S
H708 N696 0.984 . S
H709 N696 0.985 . S
C710 C711 1.363 . S
C710 C716 1.379 1_556 S
C710 N718 1.356 . S
C711 C710 1.363 . S
C711 C717 1.363 . S
C712 C713 1.363 . S
C712 C717 1.379 1_554 S
C712 N719 1.356 . S
C713 C712 1.363 . S
C713 C716 1.363 . S
N714 C716 1.356 . S
N714 H726 0.984 . S
N714 H727 0.985 . S
N715 C717 1.356 . S
N715 H720 0.984 . S
N715 H721 0.985 . S
C716 C710 1.379 1_554 S
C716 C713 1.363 . S
C716 N714 1.356 . S
C717 C711 1.363 . S
C717 C712 1.379 1_556 S
C717 N715 1.356 . S
N718 C710 1.356 . S
N718 H724 0.984 . S
N718 H725 0.984 . S
N719 C712 1.356 . S
N719 H722 0.984 . S
N719 H723 0.985 . S
H720 N715 0.984 . S
H721 N715 0.985 . S
H722 N719 0.984 . S
H723 N719 0.985 . S
H724 N718 0.984 . S
H725 N718 0.984 . S
H726 N714 0.984 . S
H727 N714 0.985 . S
C728 C729 1.363 . S
C728 C734 1.379 . S
C728 N736 1.356 . S
C729 C728 1.363 . S
C729 C735 1.363 . S
C730 C731 1.363 . S
C730 C735 1.379 . S
C730 N737 1.356 . S
C731 C730 1.363 . S
C731 C734 1.363 . S
N732 C734 1.356 . S
N732 H744 0.984 . S
N732 H745 0.985 . S
N733 C735 1.356 . S
N733 H738 0.984 . S
N733 H739 0.985 . S
C734 C728 1.379 . S
C734 C731 1.363 . S
C734 N732 1.356 . S
C735 C729 1.363 . S
C735 C730 1.379 . S
C735 N733 1.356 . S
N736 C728 1.356 . S
N736 H742 0.984 . S
N736 H743 0.984 . S
N737 C730 1.356 . S
N737 H740 0.984 . S
N737 H741 0.985 . S
H738 N733 0.984 . S
H739 N733 0.985 . S
H740 N737 0.984 . S
H741 N737 0.985 . S
H742 N736 0.984 . S
H743 N736 0.984 . S
H744 N732 0.984 . S
H745 N732 0.985 . S
C746 C747 1.363 . S
C746 C752 1.379 . S
C746 N754 1.356 . S
C747 C746 1.363 . S
C747 C753 1.363 . S
C748 C749 1.363 . S
C748 C753 1.379 . S
C748 N755 1.356 . S
C749 C748 1.363 . S
C749 C752 1.363 . S
N750 C752 1.356 . S
N750 H762 0.984 . S
N750 H763 0.985 . S
N751 C753 1.356 . S
N751 H756 0.984 . S
N751 H757 0.985 . S
C752 C746 1.379 . S
C752 C749 1.363 . S
C752 N750 1.356 . S
C753 C747 1.363 . S
C753 C748 1.379 . S
C753 N751 1.356 . S
N754 C746 1.356 . S
N754 H760 0.984 . S
N754 H761 0.984 . S
N755 C748 1.356 . S
N755 H758 0.984 . S
N755 H759 0.985 . S
H756 N751 0.984 . S
H757 N751 0.985 . S
H758 N755 0.984 . S
H759 N755 0.985 . S
H760 N754 0.984 . S
H761 N754 0.984 . S
H762 N750 0.984 . S
H763 N750 0.985 . S
C764 C765 1.363 . S
C764 C770 1.379 . S
C764 N772 1.356 . S
C765 C764 1.363 . S
C765 C771 1.363 1_455 S
C766 C767 1.363 1_655 S
C766 C771 1.379 . S
C766 N773 1.356 . S
C767 C766 1.363 1_455 S
C767 C770 1.363 . S
N768 C770 1.356 . S
N768 H780 0.984 . S
N768 H781 0.985 . S
N769 C771 1.356 . S
N769 H774 0.984 . S
N769 H775 0.985 . S
C770 C764 1.379 . S
C770 C767 1.363 . S
C770 N768 1.356 . S
C771 C765 1.363 1_655 S
C771 C766 1.379 . S
C771 N769 1.356 . S
N772 C764 1.356 . S
N772 H778 0.984 . S
N772 H779 0.984 . S
N773 C766 1.356 . S
N773 H776 0.984 . S
N773 H777 0.985 . S
H774 N769 0.984 . S
H775 N769 0.985 . S
H776 N773 0.984 . S
H777 N773 0.985 . S
H778 N772 0.984 . S
H779 N772 0.984 . S
H780 N768 0.984 . S
H781 N768 0.985 . S
C782 C783 1.363 . S
C782 C788 1.379 . S
C782 N790 1.356 . S
C783 C782 1.363 . S
C783 C789 1.363 1_545 S
C784 C785 1.363 1_565 S
C784 C789 1.379 . S
C784 N791 1.356 . S
C785 C784 1.363 1_545 S
C785 C788 1.363 . S
N786 C788 1.356 . S
N786 H798 0.984 . S
N786 H799 0.985 . S
N787 C789 1.356 . S
N787 H792 0.984 . S
N787 H793 0.985 . S
C788 C782 1.379 . S
C788 C785 1.363 . S
C788 N786 1.356 . S
C789 C783 1.363 1_565 S
C789 C784 1.379 . S
C789 N787 1.356 . S
N790 C782 1.356 . S
N790 H796 0.984 . S
N790 H797 0.984 . S
N791 C784 1.356 . S
N791 H794 0.984 . S
N791 H795 0.985 . S
H792 N787 0.984 . S
H793 N787 0.985 . S
H794 N791 0.984 . S
H795 N791 0.985 . S
H796 N790 0.984 . S
H797 N790 0.984 . S
H798 N786 0.984 . S
H799 N786 0.985 . S
C225 C8 1.683 . S
C227 C106 1.683 . S
C243 C22 1.684 . S
C245 C64 1.684 . S
C261 C78 1.684 . S
C263 C36 1.684 . S
C279 C50 1.683 . S
C281 C92 1.683 . S
C297 C120 1.683 . S
C299 C176 1.683 . S
C315 C134 1.683 . S
C317 C204 1.683 . S
C333 C162 1.684 . S
C335 C148 1.684 . S
C351 C218 1.684 . S
C353 C190 1.684 . S
C369 C3 1.013 . S
C371 C87 1.013 . S
C387 C105 1.501 . S
C389 C21 1.501 . S
C405 C31 1.013 . S
C407 C59 1.013 . S
C423 C77 1.501 . S
C425 C49 1.501 . S
C441 C9 1.419 . S
C443 C205 1.419 . S
C459 C157 1.013 . S
C461 C17 1.013 . S
C477 C191 1.419 . S
C479 C37 1.419 . S
C495 C171 1.013 . S
C497 C45 1.013 . S
C513 C149 1.419 . S
C515 C65 1.419 . S
C531 C73 1.013 . S
C533 C213 1.013 . S
C549 C93 1.419 . S
C551 C121 1.419 . S
C567 C101 1.013 . S
C569 C129 1.013 . S
C585 C7 1.501 . S
C587 C63 1.501 . S
C603 C119 1.501 . S
C605 C189 1.501 . S
C621 C177 1.419 . S
C623 C135 1.419 . S
C639 C203 1.501 . S
C641 C147 1.501 . S
C657 C107 1.419 . S
C659 C51 1.419 . S
C675 C35 1.501 . S
C677 C91 1.501 . S
C693 C163 1.418 . S
C695 C219 1.418 . S
C711 C185 1.013 . S
C713 C143 1.013 . S
C729 C217 1.501 . S
C731 C175 1.501 . S
C747 C199 1.013 . S
C749 C115 1.013 . S
C765 C161 1.501 . S
C767 C133 1.501 . S
C783 C23 1.418 . S
C785 C79 1.418 . S
