# Generated by pormake.
# Topology uot, (4)-cn, num edge types: 1
# Building blocks:
#     Node 0, Type 0, BuildingBlock: ICAMEG_clean_sbu_1, # of connection points: 4
#     Node 1, Type 0, BuildingBlock: ICAMEG_clean_sbu_1, # of connection points: 4
#     Node 2, Type 0, BuildingBlock: ICAMEG_clean_sbu_1, # of connection points: 4
#     Node 3, Type 0, BuildingBlock: ICAMEG_clean_sbu_1, # of connection points: 4
#     Node 4, Type 0, BuildingBlock: ICAMEG_clean_sbu_1, # of connection points: 4
#     Node 5, Type 0, BuildingBlock: ICAMEG_clean_sbu_1, # of connection points: 4
#     Node 6, Type 0, BuildingBlock: ICAMEG_clean_sbu_1, # of connection points: 4
#     Node 7, Type 0, BuildingBlock: ICAMEG_clean_sbu_1, # of connection points: 4
#     Node 8, Type 0, BuildingBlock: ICAMEG_clean_sbu_1, # of connection points: 4
#     Node 9, Type 0, BuildingBlock: ICAMEG_clean_sbu_1, # of connection points: 4
#     Node 10, Type 0, BuildingBlock: ICAMEG_clean_sbu_1, # of connection points: 4
#     Node 11, Type 0, BuildingBlock: ICAMEG_clean_sbu_1, # of connection points: 4
#     Node 12, Type 0, BuildingBlock: ICAMEG_clean_sbu_1, # of connection points: 4
#     Node 13, Type 0, BuildingBlock: ICAMEG_clean_sbu_1, # of connection points: 4
#     Node 14, Type 0, BuildingBlock: ICAMEG_clean_sbu_1, # of connection points: 4
#     Node 15, Type 0, BuildingBlock: ICAMEG_clean_sbu_1, # of connection points: 4
#     Edge 16, Type (0, 0), BuildingBlock: AJUNOK_clean_linker_0, # of connection points: 2
#     Edge 17, Type (0, 0), BuildingBlock: AJUNOK_clean_linker_0, # of connection points: 2
#     Edge 18, Type (0, 0), BuildingBlock: AJUNOK_clean_linker_0, # of connection points: 2
#     Edge 19, Type (0, 0), BuildingBlock: AJUNOK_clean_linker_0, # of connection points: 2
#     Edge 20, Type (0, 0), BuildingBlock: AJUNOK_clean_linker_0, # of connection points: 2
#     Edge 21, Type (0, 0), BuildingBlock: AJUNOK_clean_linker_0, # of connection points: 2
#     Edge 22, Type (0, 0), BuildingBlock: AJUNOK_clean_linker_0, # of connection points: 2
#     Edge 23, Type (0, 0), BuildingBlock: AJUNOK_clean_linker_0, # of connection points: 2
#     Edge 24, Type (0, 0), BuildingBlock: AJUNOK_clean_linker_0, # of connection points: 2
#     Edge 25, Type (0, 0), BuildingBlock: AJUNOK_clean_linker_0, # of connection points: 2
#     Edge 26, Type (0, 0), BuildingBlock: AJUNOK_clean_linker_0, # of connection points: 2
#     Edge 27, Type (0, 0), BuildingBlock: AJUNOK_clean_linker_0, # of connection points: 2
#     Edge 28, Type (0, 0), BuildingBlock: AJUNOK_clean_linker_0, # of connection points: 2
#     Edge 29, Type (0, 0), BuildingBlock: AJUNOK_clean_linker_0, # of connection points: 2
#     Edge 30, Type (0, 0), BuildingBlock: AJUNOK_clean_linker_0, # of connection points: 2
#     Edge 31, Type (0, 0), BuildingBlock: AJUNOK_clean_linker_0, # of connection points: 2
#     Edge 32, Type (0, 0), BuildingBlock: AJUNOK_clean_linker_0, # of connection points: 2
#     Edge 33, Type (0, 0), BuildingBlock: AJUNOK_clean_linker_0, # of connection points: 2
#     Edge 34, Type (0, 0), BuildingBlock: AJUNOK_clean_linker_0, # of connection points: 2
#     Edge 35, Type (0, 0), BuildingBlock: AJUNOK_clean_linker_0, # of connection points: 2
#     Edge 36, Type (0, 0), BuildingBlock: AJUNOK_clean_linker_0, # of connection points: 2
#     Edge 37, Type (0, 0), BuildingBlock: AJUNOK_clean_linker_0, # of connection points: 2
#     Edge 38, Type (0, 0), BuildingBlock: AJUNOK_clean_linker_0, # of connection points: 2
#     Edge 39, Type (0, 0), BuildingBlock: AJUNOK_clean_linker_0, # of connection points: 2
#     Edge 40, Type (0, 0), BuildingBlock: AJUNOK_clean_linker_0, # of connection points: 2
#     Edge 41, Type (0, 0), BuildingBlock: AJUNOK_clean_linker_0, # of connection points: 2
#     Edge 42, Type (0, 0), BuildingBlock: AJUNOK_clean_linker_0, # of connection points: 2
#     Edge 43, Type (0, 0), BuildingBlock: AJUNOK_clean_linker_0, # of connection points: 2
#     Edge 44, Type (0, 0), BuildingBlock: AJUNOK_clean_linker_0, # of connection points: 2
#     Edge 45, Type (0, 0), BuildingBlock: AJUNOK_clean_linker_0, # of connection points: 2
#     Edge 46, Type (0, 0), BuildingBlock: AJUNOK_clean_linker_0, # of connection points: 2
#     Edge 47, Type (0, 0), BuildingBlock: AJUNOK_clean_linker_0, # of connection points: 2
# Relax obj value: 0.031
# Max RMSD: 0.054
# Mean RMSD: 0.054
data_MOF--net-uot--node1-ICAMEG_clean_sbu_1--edge1-AJUNOK_clean_linker_0
_symmetry_space_group_name_H-M    P1
_symmetry_Int_Tables_number       1
_symmetry_cell_setting            triclinic
loop_
_symmetry_equiv_pos_as_xyz
'x, y, z'
_cell_length_a     35.23715
_cell_length_b     35.256905
_cell_length_c     34.771126
_cell_angle_alpha  90.054524
_cell_angle_beta   89.995895
_cell_angle_gamma 90.050244
loop_
_atom_site_label
_atom_site_type_symbol
_atom_site_fract_x
_atom_site_fract_y
_atom_site_fract_z
_atom_type_partial_charge
Co0 Co 0.15103 0.44854 0.36873 0.0
Co1 Co 0.21219 0.42821 0.29577 0.0
O2 O 0.19923 0.42846 0.35029 0.0
C3 C 0.20208 0.49032 0.42504 0.0
O4 O 0.21934 0.50865 0.39721 0.0
C5 C 0.23342 0.34957 0.32032 0.0
O6 O 0.1999 0.3455 0.3363 0.0
O7 O 0.16522 0.39867 0.28426 0.0
O8 O 0.12363 0.42986 0.32149 0.0
H9 H 0.18471 0.43974 0.15447 0.0
H10 H 0.19636 0.39618 0.41709 0.0
O11 O 0.17642 0.46608 0.41725 0.0
H12 H 0.07122 0.33497 0.4031 0.0
H13 H 0.06356 0.48976 0.4741 0.0
H14 H 0.08806 0.49331 0.33452 0.0
H15 H 0.08387 0.39717 0.37338 0.0
H16 H 0.11311 0.44952 0.44535 0.0
O17 O 0.24187 0.38037 0.30323 0.0
H18 H 0.1694 0.44156 0.22363 0.0
H19 H 0.28269 0.411 0.25139 0.0
H20 H 0.0379 0.53372 0.36223 0.0
H21 H 0.18488 0.33406 0.44757 0.0
H22 H 0.02756 0.53434 0.43269 0.0
H23 H 0.12197 0.30299 0.44056 0.0
O24 O 0.16105 0.49809 0.34239 0.0
H25 H 0.32859 0.4596 0.3729 0.0
H26 H 0.25013 0.49642 0.26181 0.0
H27 H 0.30648 0.53451 0.27827 0.0
H28 H 0.34626 0.5161 0.33419 0.0
H29 H 0.27171 0.42258 0.35555 0.0
H30 H 0.29916 0.40853 0.1825 0.0
H31 H 0.25003 0.42318 0.1335 0.0
O32 O 0.18361 0.47657 0.2864 0.0
C33 C 0.13122 0.40699 0.2939 0.0
C34 C 0.2064 0.43341 0.17554 0.0
C35 C 0.27063 0.41589 0.19128 0.0
N36 N 0.22521 0.42679 0.24156 0.0
C37 C 0.19792 0.43446 0.21476 0.0
C38 C 0.26111 0.41725 0.23025 0.0
C39 C 0.24305 0.4241 0.1638 0.0
C40 C 0.16883 0.38294 0.41412 0.0
N41 N 0.14083 0.40026 0.39342 0.0
C42 C 0.16253 0.34773 0.43137 0.0
C43 C 0.12724 0.33029 0.42738 0.0
C44 C 0.09877 0.3482 0.40634 0.0
C45 C 0.10612 0.38337 0.38946 0.0
C46 C 0.06859 0.49054 0.4434 0.0
C47 C 0.08236 0.49195 0.36502 0.0
C48 C 0.09647 0.46765 0.42689 0.0
N49 N 0.10411 0.46974 0.38838 0.0
C50 C 0.0542 0.51519 0.38054 0.0
C51 C 0.04822 0.51533 0.42012 0.0
C52 C 0.16852 0.50269 0.30671 0.0
C53 C 0.3115 0.46792 0.34847 0.0
C54 C 0.26701 0.48845 0.28631 0.0
C55 C 0.29905 0.51 0.29542 0.0
C56 C 0.32137 0.49964 0.32677 0.0
N57 N 0.25748 0.45739 0.30771 0.0
C58 C 0.27928 0.44703 0.33845 0.0
Co59 Co 0.44793 0.85665 0.64533 0.0
Co60 Co 0.43175 0.79359 0.71843 0.0
O61 O 0.43032 0.8076 0.66414 0.0
C62 C 0.48902 0.80356 0.59099 0.0
O63 O 0.50336 0.78408 0.61968 0.0
C64 C 0.35261 0.77289 0.69516 0.0
O65 O 0.34883 0.80639 0.67917 0.0
O66 O 0.4024 0.84006 0.73231 0.0
O67 O 0.42712 0.88327 0.69194 0.0
H68 H 0.4499 0.81741 0.85975 0.0
H69 H 0.39856 0.80722 0.59772 0.0
O70 O 0.4676 0.83187 0.5975 0.0
H71 H 0.33077 0.92917 0.60707 0.0
H72 H 0.48368 0.94831 0.54109 0.0
H73 H 0.48683 0.92276 0.68042 0.0
H74 H 0.39335 0.92087 0.63764 0.0
H75 H 0.44911 0.89375 0.56815 0.0
O76 O 0.38354 0.76409 0.71187 0.0
H77 H 0.44931 0.83428 0.79098 0.0
H78 H 0.41504 0.72239 0.76174 0.0
H79 H 0.52168 0.97771 0.65445 0.0
H80 H 0.33619 0.8143 0.56637 0.0
H81 H 0.52244 0.98909 0.58398 0.0
H82 H 0.30177 0.87558 0.57109 0.0
O83 O 0.49791 0.84996 0.67179 0.0
H84 H 0.46044 0.67904 0.63752 0.0
H85 H 0.50094 0.75493 0.74924 0.0
H86 H 0.53852 0.69913 0.73011 0.0
H87 H 0.51826 0.66066 0.67384 0.0
H88 H 0.42401 0.73539 0.6575 0.0
H89 H 0.41489 0.70439 0.83027 0.0
H90 H 0.43257 0.75204 0.87981 0.0
O91 O 0.48034 0.82213 0.7268 0.0
C92 C 0.4071 0.87433 0.7213 0.0
C93 C 0.44221 0.79636 0.83845 0.0
C94 C 0.42251 0.73296 0.82189 0.0
N95 N 0.4323 0.77933 0.77233 0.0
C96 C 0.4419 0.80573 0.79944 0.0
C97 C 0.42251 0.74336 0.78314 0.0
C98 C 0.43246 0.7597 0.84967 0.0
C99 C 0.38383 0.83402 0.59979 0.0
N100 N 0.39942 0.86352 0.61986 0.0
C101 C 0.3485 0.83784 0.58201 0.0
C102 C 0.32918 0.87222 0.58471 0.0
C103 C 0.3454 0.90227 0.60494 0.0
C104 C 0.38075 0.89737 0.62241 0.0
C105 C 0.48447 0.94292 0.57169 0.0
C106 C 0.48564 0.92854 0.64992 0.0
C107 C 0.46478 0.9122 0.58725 0.0
N108 N 0.46649 0.90468 0.62578 0.0
C109 C 0.50577 0.95946 0.63535 0.0
C110 C 0.50595 0.966 0.59584 0.0
C111 C 0.50452 0.84018 0.70651 0.0
C112 C 0.46959 0.69559 0.66207 0.0
C113 C 0.49221 0.73867 0.72457 0.0
C114 C 0.51346 0.70691 0.71396 0.0
C115 C 0.50205 0.68531 0.68243 0.0
N116 N 0.46049 0.74866 0.70443 0.0
C117 C 0.44904 0.7275 0.67358 0.0
Co118 Co 0.85903 0.55821 0.36886 0.0
Co119 Co 0.80001 0.57615 0.29413 0.0
O120 O 0.8111 0.57765 0.34914 0.0
C121 C 0.80581 0.51997 0.42543 0.0
O122 O 0.7875 0.50272 0.39755 0.0
C123 C 0.77498 0.65406 0.31701 0.0
O124 O 0.80851 0.66016 0.33231 0.0
O125 O 0.84609 0.60731 0.28394 0.0
O126 O 0.88712 0.5754 0.32111 0.0
H127 H 0.83254 0.56264 0.15404 0.0
H128 H 0.81381 0.61254 0.41506 0.0
O129 O 0.83308 0.54239 0.41769 0.0
H130 H 0.93978 0.67189 0.40049 0.0
H131 H 0.94583 0.52003 0.47596 0.0
H132 H 0.92166 0.51158 0.33664 0.0
H133 H 0.9266 0.60908 0.3722 0.0
H134 H 0.89641 0.55934 0.44579 0.0
O135 O 0.768 0.62274 0.30015 0.0
H136 H 0.8456 0.56253 0.22366 0.0
H137 H 0.73059 0.59017 0.2471 0.0
H138 H 0.9715 0.4719 0.36571 0.0
H139 H 0.82584 0.67529 0.44413 0.0
H140 H 0.9818 0.4739 0.43625 0.0
H141 H 0.88919 0.7054 0.43684 0.0
O142 O 0.8485 0.50795 0.34437 0.0
H143 H 0.68145 0.54048 0.36579 0.0
H144 H 0.76822 0.50491 0.26049 0.0
H145 H 0.71283 0.46446 0.27466 0.0
H146 H 0.66891 0.48225 0.32756 0.0
H147 H 0.73738 0.57992 0.35088 0.0
H148 H 0.71636 0.59093 0.17767 0.0
H149 H 0.76751 0.57693 0.1306 0.0
O150 O 0.83116 0.52911 0.28643 0.0
C151 C 0.87998 0.59854 0.29358 0.0
C152 C 0.80998 0.56869 0.17426 0.0
C153 C 0.74479 0.58461 0.18752 0.0
N154 N 0.78884 0.57609 0.23947 0.0
C155 C 0.81718 0.56857 0.21375 0.0
C156 C 0.75305 0.58425 0.22681 0.0
C157 C 0.7735 0.57674 0.16113 0.0
C158 C 0.84151 0.62539 0.41197 0.0
N159 N 0.86948 0.60718 0.392 0.0
C160 C 0.84813 0.66095 0.4284 0.0
C161 C 0.88367 0.67784 0.42427 0.0
C162 C 0.91206 0.65907 0.40386 0.0
C163 C 0.9044 0.62356 0.38781 0.0
C164 C 0.94083 0.51814 0.44533 0.0
C165 C 0.92724 0.51398 0.36705 0.0
C166 C 0.91308 0.54055 0.42799 0.0
N167 N 0.90563 0.53725 0.38953 0.0
C168 C 0.95523 0.49114 0.3834 0.0
C169 C 0.96115 0.49243 0.42298 0.0
C170 C 0.84396 0.50311 0.30833 0.0
C171 C 0.7003 0.5325 0.34258 0.0
C172 C 0.74929 0.5128 0.28362 0.0
C173 C 0.71794 0.48981 0.29146 0.0
C174 C 0.69331 0.49981 0.32115 0.0
N175 N 0.75585 0.54493 0.30464 0.0
C176 C 0.73194 0.55479 0.33392 0.0
Co177 Co 0.55295 0.15368 0.64725 0.0
Co178 Co 0.5783 0.21153 0.72139 0.0
O179 O 0.57575 0.20098 0.66578 0.0
C180 C 0.53346 0.21167 0.5841 0.0
O181 O 0.55395 0.23912 0.59897 0.0
C182 C 0.65495 0.23636 0.69346 0.0
O183 O 0.65724 0.20573 0.67211 0.0
O184 O 0.60937 0.16518 0.72862 0.0
O185 O 0.57497 0.12502 0.69255 0.0
H186 H 0.57624 0.17704 0.86166 0.0
H187 H 0.6097 0.19855 0.60143 0.0
O188 O 0.53053 0.17965 0.6009 0.0
H189 H 0.6552 0.06668 0.5978 0.0
H190 H 0.49713 0.06798 0.54669 0.0
H191 H 0.51085 0.09159 0.68577 0.0
H192 H 0.59681 0.08301 0.63277 0.0
H193 H 0.54112 0.11709 0.57036 0.0
O194 O 0.6253 0.2428 0.71341 0.0
H195 H 0.57099 0.16482 0.79207 0.0
H196 H 0.59366 0.28079 0.7683 0.0
H197 H 0.46686 0.04197 0.66332 0.0
H198 H 0.66768 0.18347 0.56556 0.0
H199 H 0.45807 0.03154 0.59325 0.0
H200 H 0.69103 0.11707 0.56355 0.0
O201 O 0.50578 0.16541 0.67639 0.0
H202 H 0.54095 0.33223 0.65487 0.0
H203 H 0.50893 0.24314 0.75921 0.0
H204 H 0.46842 0.29906 0.74821 0.0
H205 H 0.4844 0.34414 0.69578 0.0
H206 H 0.5805 0.27573 0.66666 0.0
H207 H 0.59944 0.29422 0.83766 0.0
H208 H 0.59061 0.24213 0.8849 0.0
O209 O 0.53154 0.18079 0.73267 0.0
C210 C 0.59984 0.1316 0.71871 0.0
C211 C 0.58012 0.19998 0.84137 0.0
C212 C 0.59316 0.26574 0.82791 0.0
N213 N 0.582 0.22206 0.77609 0.0
C214 C 0.57715 0.19325 0.8019 0.0
C215 C 0.58995 0.25794 0.78866 0.0
C216 C 0.5882 0.2365 0.85439 0.0
C217 C 0.61883 0.16953 0.60013 0.0
N218 N 0.59895 0.14166 0.61857 0.0
C219 C 0.6521 0.16116 0.58 0.0
C220 C 0.66526 0.12395 0.57898 0.0
C221 C 0.64519 0.09569 0.59818 0.0
C222 C 0.61206 0.10515 0.61802 0.0
C223 C 0.50019 0.07281 0.57729 0.0
C224 C 0.5085 0.08607 0.6553 0.0
C225 C 0.52524 0.10043 0.5909 0.0
N226 N 0.52822 0.10762 0.62945 0.0
C227 C 0.48321 0.05821 0.64274 0.0
C228 C 0.47836 0.05231 0.60343 0.0
C229 C 0.50374 0.1688 0.7127 0.0
C230 C 0.53372 0.31284 0.67784 0.0
C231 C 0.51596 0.26249 0.73619 0.0
C232 C 0.49298 0.29418 0.73018 0.0
C233 C 0.50198 0.31948 0.70078 0.0
N234 N 0.5471 0.2562 0.7136 0.0
C235 C 0.55606 0.28085 0.6847 0.0
Co236 Co 0.151 0.55507 0.64971 0.0
Co237 Co 0.21256 0.57806 0.72188 0.0
O238 O 0.19925 0.57661 0.66704 0.0
C239 C 0.20804 0.53542 0.58622 0.0
O240 O 0.23604 0.5533 0.60326 0.0
C241 C 0.23478 0.65579 0.69539 0.0
O242 O 0.20122 0.65973 0.67949 0.0
O243 O 0.16638 0.60872 0.73253 0.0
O244 O 0.12409 0.5769 0.69634 0.0
H245 H 0.18682 0.57023 0.86393 0.0
H246 H 0.19578 0.61089 0.60281 0.0
O247 O 0.1754 0.53314 0.60202 0.0
H248 H 0.06553 0.66113 0.6066 0.0
H249 H 0.05938 0.5053 0.55102 0.0
H250 H 0.08892 0.51405 0.68934 0.0
H251 H 0.08125 0.60134 0.63936 0.0
H252 H 0.11191 0.54573 0.5738 0.0
O253 O 0.24318 0.62515 0.71281 0.0
H254 H 0.17064 0.56656 0.79512 0.0
H255 H 0.28368 0.59565 0.7649 0.0
H256 H 0.03611 0.47339 0.66778 0.0
H257 H 0.18126 0.67035 0.56931 0.0
H258 H 0.02238 0.46729 0.59801 0.0
H259 H 0.11569 0.69605 0.57103 0.0
O260 O 0.16245 0.50703 0.67756 0.0
H261 H 0.33106 0.54344 0.64956 0.0
H262 H 0.2459 0.50796 0.75618 0.0
H263 H 0.30169 0.4682 0.74192 0.0
H264 H 0.34478 0.48591 0.68831 0.0
H265 H 0.27477 0.58222 0.66462 0.0
H266 H 0.30108 0.60006 0.83343 0.0
H267 H 0.25249 0.58718 0.88353 0.0
O268 O 0.18251 0.53104 0.73332 0.0
C269 C 0.13223 0.60055 0.72325 0.0
C270 C 0.20829 0.5758 0.8424 0.0
C271 C 0.27237 0.59263 0.82527 0.0
N272 N 0.22614 0.58075 0.77595 0.0
C273 C 0.1993 0.57362 0.80335 0.0
C274 C 0.26231 0.59023 0.78649 0.0
C275 C 0.24511 0.58537 0.85336 0.0
C276 C 0.16707 0.62117 0.60321 0.0
N277 N 0.13929 0.60185 0.62243 0.0
C278 C 0.15904 0.65521 0.58438 0.0
C279 C 0.12229 0.66967 0.58544 0.0
C280 C 0.09416 0.6501 0.60538 0.0
C281 C 0.10326 0.61618 0.6239 0.0
C282 C 0.06559 0.5072 0.58145 0.0
C283 C 0.08221 0.51269 0.65906 0.0
C284 C 0.09517 0.5302 0.59456 0.0
N285 N 0.1038 0.53191 0.63287 0.0
C286 C 0.0525 0.48932 0.64699 0.0
C287 C 0.04477 0.48597 0.60784 0.0
C288 C 0.16836 0.50414 0.71348 0.0
C289 C 0.3125 0.53542 0.67299 0.0
C290 C 0.26433 0.5157 0.73261 0.0
C291 C 0.29598 0.49316 0.72478 0.0
C292 C 0.32016 0.50313 0.69472 0.0
N293 N 0.25697 0.54731 0.71112 0.0
C294 C 0.2806 0.5573 0.68168 0.0
Co295 Co 0.55708 0.85326 0.37079 0.0
Co296 Co 0.58023 0.79711 0.29471 0.0
O297 O 0.57805 0.80608 0.35037 0.0
C298 C 0.53652 0.79338 0.43144 0.0
O299 O 0.55553 0.76594 0.41475 0.0
C300 C 0.6575 0.77121 0.31957 0.0
O301 O 0.66386 0.80458 0.33511 0.0
O302 O 0.61213 0.84317 0.28851 0.0
O303 O 0.5795 0.88308 0.32643 0.0
H304 H 0.57692 0.83487 0.15536 0.0
H305 H 0.61329 0.80447 0.41285 0.0
O306 O 0.53433 0.82621 0.41623 0.0
H307 H 0.66258 0.93471 0.42345 0.0
H308 H 0.50693 0.93734 0.47557 0.0
H309 H 0.51558 0.91749 0.3355 0.0
H310 H 0.60305 0.92199 0.38895 0.0
H311 H 0.54821 0.88743 0.44908 0.0
O312 O 0.62621 0.76459 0.30251 0.0
H313 H 0.57193 0.84536 0.22525 0.0
H314 H 0.59702 0.72937 0.24608 0.0
H315 H 0.4735 0.96737 0.36089 0.0
H316 H 0.67241 0.81592 0.44816 0.0
H317 H 0.46758 0.97627 0.43153 0.0
H318 H 0.69768 0.88146 0.45369 0.0
O319 O 0.50931 0.84399 0.34172 0.0
H320 H 0.54039 0.67508 0.35741 0.0
H321 H 0.51082 0.76755 0.25542 0.0
H322 H 0.46953 0.71172 0.26414 0.0
H323 H 0.4843 0.66493 0.31535 0.0
H324 H 0.58069 0.73152 0.34793 0.0
H325 H 0.60259 0.71768 0.17639 0.0
H326 H 0.59236 0.77064 0.13048 0.0
O327 O 0.53393 0.82887 0.2847 0.0
C328 C 0.60377 0.87667 0.29966 0.0
C329 C 0.58133 0.81153 0.17506 0.0
C330 C 0.59578 0.74578 0.18687 0.0
N331 N 0.5839 0.78796 0.23977 0.0
C332 C 0.57843 0.81728 0.2147 0.0
C333 C 0.59268 0.7526 0.22632 0.0
C334 C 0.59003 0.7755 0.16113 0.0
C335 C 0.62331 0.83314 0.41559 0.0
N336 N 0.60382 0.86257 0.39937 0.0
C337 C 0.6572 0.83943 0.43544 0.0
C338 C 0.67143 0.87617 0.43845 0.0
C339 C 0.65176 0.90602 0.42149 0.0
C340 C 0.61798 0.89862 0.40187 0.0
C341 C 0.50874 0.93326 0.4448 0.0
C342 C 0.51422 0.92209 0.3662 0.0
C343 C 0.53234 0.90525 0.42957 0.0
N344 N 0.53406 0.89927 0.39074 0.0
C345 C 0.49004 0.95013 0.38042 0.0
C346 C 0.48673 0.95512 0.42005 0.0
C347 C 0.50662 0.84089 0.3054 0.0
C348 C 0.53367 0.69524 0.33497 0.0
C349 C 0.5173 0.74746 0.27794 0.0
C350 C 0.49388 0.71583 0.28265 0.0
C351 C 0.50219 0.68958 0.31138 0.0
N352 N 0.54818 0.75278 0.30115 0.0
C353 C 0.55642 0.72722 0.32943 0.0
Co354 Co 0.85532 0.45311 0.64717 0.0
Co355 Co 0.79497 0.43097 0.72182 0.0
O356 O 0.80723 0.43258 0.66648 0.0
C357 C 0.79673 0.47663 0.58668 0.0
O358 O 0.76901 0.4579 0.60322 0.0
C359 C 0.77181 0.35361 0.69438 0.0
O360 O 0.80314 0.35124 0.67411 0.0
O361 O 0.84139 0.40051 0.73184 0.0
O362 O 0.88351 0.42716 0.69084 0.0
H363 H 0.82249 0.44005 0.86352 0.0
H364 H 0.80467 0.39876 0.60428 0.0
O365 O 0.82946 0.47858 0.6023 0.0
H366 H 0.93448 0.35128 0.58445 0.0
H367 H 0.94309 0.50684 0.5469 0.0
H368 H 0.92096 0.48896 0.6857 0.0
H369 H 0.92326 0.40797 0.62398 0.0
H370 H 0.89041 0.46673 0.56961 0.0
O371 O 0.76447 0.38349 0.71365 0.0
H372 H 0.8377 0.44359 0.79444 0.0
H373 H 0.72432 0.4143 0.76591 0.0
H374 H 0.97394 0.52937 0.66412 0.0
H375 H 0.81468 0.34228 0.56454 0.0
H376 H 0.98409 0.53996 0.59426 0.0
H377 H 0.87999 0.31794 0.55425 0.0
O378 O 0.84784 0.50025 0.67787 0.0
H379 H 0.67535 0.46493 0.65123 0.0
H380 H 0.76214 0.5014 0.75621 0.0
H381 H 0.70621 0.54108 0.74246 0.0
H382 H 0.66229 0.52287 0.68969 0.0
H383 H 0.73186 0.42626 0.66571 0.0
H384 H 0.70781 0.41024 0.83467 0.0
H385 H 0.7571 0.42319 0.88406 0.0
O386 O 0.825 0.47785 0.73313 0.0
C387 C 0.87517 0.40539 0.71931 0.0
C388 C 0.80081 0.43413 0.8423 0.0
C389 C 0.73646 0.41741 0.82611 0.0
N390 N 0.78217 0.42853 0.77611 0.0
C391 C 0.80933 0.43596 0.80311 0.0
C392 C 0.74604 0.41955 0.7872 0.0
C393 C 0.76411 0.42471 0.8538 0.0
C394 C 0.83324 0.38912 0.59975 0.0
N395 N 0.86332 0.40761 0.61612 0.0
C396 C 0.83872 0.35672 0.57728 0.0
C397 C 0.87533 0.34303 0.57157 0.0
C398 C 0.90587 0.36173 0.58848 0.0
C399 C 0.89927 0.39398 0.61084 0.0
C400 C 0.93854 0.5029 0.5774 0.0
C401 C 0.92613 0.49218 0.65524 0.0
C402 C 0.90885 0.48006 0.59049 0.0
N403 N 0.90243 0.4756 0.62904 0.0
C404 C 0.95591 0.51546 0.6432 0.0
C405 C 0.9616 0.52138 0.60401 0.0
C406 C 0.84088 0.50376 0.71353 0.0
C407 C 0.69426 0.47315 0.67432 0.0
C408 C 0.74336 0.49342 0.733 0.0
C409 C 0.71162 0.51592 0.72546 0.0
C410 C 0.68697 0.50567 0.69588 0.0
N411 N 0.75033 0.46156 0.71169 0.0
C412 C 0.72625 0.45131 0.6827 0.0
Co413 Co 0.44898 0.14751 0.36645 0.0
Co414 Co 0.43005 0.21161 0.29544 0.0
O415 O 0.42928 0.19646 0.3497 0.0
C416 C 0.48853 0.19991 0.42355 0.0
O417 O 0.50348 0.22069 0.39611 0.0
C418 C 0.35186 0.23327 0.3204 0.0
O419 O 0.34742 0.19904 0.33457 0.0
O420 O 0.39921 0.1664 0.28177 0.0
O421 O 0.42734 0.12195 0.31882 0.0
H422 H 0.44292 0.19147 0.15282 0.0
H423 H 0.39651 0.1935 0.41397 0.0
O424 O 0.46818 0.17121 0.41525 0.0
H425 H 0.34139 0.06495 0.41228 0.0
H426 H 0.49712 0.05473 0.46455 0.0
H427 H 0.48791 0.08478 0.32642 0.0
H428 H 0.40014 0.07894 0.37637 0.0
H429 H 0.45692 0.10744 0.44224 0.0
O430 O 0.38305 0.24242 0.30432 0.0
H431 H 0.4441 0.17257 0.22104 0.0
H432 H 0.41452 0.28442 0.25485 0.0
H433 H 0.52698 0.03092 0.34734 0.0
H434 H 0.33717 0.18104 0.44936 0.0
H435 H 0.53455 0.01769 0.41705 0.0
H436 H 0.30932 0.11629 0.44884 0.0
O437 O 0.4981 0.158 0.33996 0.0
H438 H 0.46532 0.32487 0.37564 0.0
H439 H 0.50124 0.24583 0.26437 0.0
H440 H 0.54171 0.29998 0.28281 0.0
H441 H 0.52377 0.33998 0.33876 0.0
H442 H 0.42585 0.27022 0.35643 0.0
H443 H 0.41274 0.30454 0.18698 0.0
H444 H 0.42713 0.25792 0.1354 0.0
O445 O 0.47697 0.18131 0.2843 0.0
C446 C 0.40539 0.13193 0.29109 0.0
C447 C 0.43661 0.21205 0.17502 0.0
C448 C 0.41963 0.2755 0.19419 0.0
N449 N 0.42939 0.2273 0.24194 0.0
C450 C 0.43726 0.20149 0.21372 0.0
C451 C 0.42055 0.2639 0.23258 0.0
C452 C 0.42773 0.24933 0.16527 0.0
C453 C 0.38429 0.16539 0.41314 0.0
N454 N 0.40165 0.13704 0.39291 0.0
C455 C 0.35078 0.15845 0.43341 0.0
C456 C 0.33521 0.12212 0.43315 0.0
C457 C 0.35319 0.0933 0.41265 0.0
C458 C 0.38648 0.10138 0.39242 0.0
C459 C 0.495 0.06098 0.43415 0.0
C460 C 0.48914 0.07782 0.35665 0.0
C461 C 0.47222 0.09077 0.42132 0.0
N462 N 0.47056 0.09966 0.38308 0.0
C463 C 0.51189 0.04765 0.36839 0.0
C464 C 0.51576 0.04002 0.40748 0.0
C465 C 0.50261 0.16553 0.30449 0.0
C466 C 0.47337 0.30772 0.35113 0.0
C467 C 0.49329 0.26304 0.28882 0.0
C468 C 0.51628 0.29371 0.29907 0.0
C469 C 0.50619 0.31616 0.33046 0.0
N470 N 0.4611 0.25501 0.30919 0.0
C471 C 0.45106 0.27684 0.34004 0.0
Co472 Co 0.64521 0.95159 0.86394 0.0
Co473 Co 0.7117 0.93165 0.79549 0.0
O474 O 0.69471 0.9307 0.84945 0.0
C475 C 0.69594 0.98944 0.92359 0.0
O476 O 0.71888 1.00301 0.89719 0.0
C477 C 0.73599 0.85426 0.82199 0.0
O478 O 0.70389 0.85019 0.84071 0.0
O479 O 0.66723 0.89999 0.78105 0.0
O480 O 0.6216 0.93014 0.81505 0.0
H481 H 0.69407 0.94145 0.65232 0.0
H482 H 0.68733 0.89838 0.91403 0.0
O483 O 0.66678 0.97039 0.91392 0.0
H484 H 0.55733 0.84711 0.90667 0.0
H485 H 0.54876 1.00282 0.95693 0.0
H486 H 0.58544 0.9919 0.8206 0.0
H487 H 0.57502 0.90448 0.87024 0.0
H488 H 0.60124 0.96086 0.93748 0.0
O489 O 0.74326 0.88505 0.80427 0.0
H490 H 0.67362 0.94214 0.72008 0.0
H491 H 0.78647 0.92076 0.75667 0.0
H492 H 0.53244 0.03375 0.83872 0.0
H493 H 0.67122 0.84026 0.94991 0.0
H494 H 0.51536 0.04121 0.90756 0.0
H495 H 0.60569 0.8144 0.94658 0.0
O496 O 0.65815 1.00047 0.8383 0.0
H497 H 0.82237 0.96813 0.87866 0.0
H498 H 0.74547 1.00379 0.76587 0.0
H499 H 0.79847 0.04495 0.78605 0.0
H500 H 0.83742 0.02714 0.84276 0.0
H501 H 0.76881 0.928 0.85772 0.0
H502 H 0.80822 0.91957 0.68929 0.0
H503 H 0.76188 0.93004 0.63653 0.0
O504 O 0.68102 0.97796 0.78325 0.0
C505 C 0.63243 0.90685 0.78873 0.0
C506 C 0.71456 0.93683 0.67503 0.0
C507 C 0.7786 0.92456 0.69578 0.0
N508 N 0.72873 0.93143 0.74235 0.0
C509 C 0.7031 0.93719 0.71348 0.0
C510 C 0.76608 0.92517 0.73389 0.0
C511 C 0.75259 0.93043 0.6662 0.0
C512 C 0.65894 0.88694 0.91191 0.0
N513 N 0.63221 0.90469 0.8899 0.0
C514 C 0.64992 0.85415 0.93248 0.0
C515 C 0.61315 0.83969 0.93065 0.0
C516 C 0.586 0.85804 0.90827 0.0
C517 C 0.59617 0.89055 0.88776 0.0
C518 C 0.55658 1.00048 0.92692 0.0
C519 C 0.57712 0.99366 0.85043 0.0
C520 C 0.5862 0.97662 0.91569 0.0
N521 N 0.59698 0.97443 0.87798 0.0
C522 C 0.54735 0.01777 0.86057 0.0
C523 C 0.53777 0.02191 0.8992 0.0
C524 C 0.66563 0.00424 0.80282 0.0
C525 C 0.80569 0.97613 0.85382 0.0
C526 C 0.76217 0.99592 0.79068 0.0
C527 C 0.79222 0.01929 0.8019 0.0
C528 C 0.81408 0.00926 0.8337 0.0
N529 N 0.7542 0.9634 0.8105 0.0
C530 C 0.77544 0.95344 0.84175 0.0
Co531 Co 0.95322 0.35776 0.14928 0.0
Co532 Co 0.92972 0.29599 0.21992 0.0
O533 O 0.93031 0.30997 0.16546 0.0
C534 C 0.98841 0.30447 0.09093 0.0
O535 O 1.00199 0.28254 0.11815 0.0
C536 C 0.85143 0.2748 0.19369 0.0
O537 O 0.84759 0.30851 0.17817 0.0
O538 O 0.90015 0.34275 0.23153 0.0
O539 O 0.93576 0.38388 0.19802 0.0
H540 H 0.93912 0.32086 0.36199 0.0
H541 H 0.89769 0.31848 0.09908 0.0
O542 O 0.96922 0.33382 0.09957 0.0
H543 H 0.84606 0.44706 0.11849 0.0
H544 H 1.00265 0.44866 0.05031 0.0
H545 H 1.00042 0.41605 0.18803 0.0
H546 H 0.90701 0.42857 0.14782 0.0
H547 H 0.95927 0.39927 0.07453 0.0
O548 O 0.88201 0.26619 0.21117 0.0
H549 H 0.94204 0.33746 0.29324 0.0
H550 H 0.91206 0.22473 0.26258 0.0
H551 H 0.04377 0.46597 0.16521 0.0
H552 H 0.8367 0.33582 0.06899 0.0
H553 H 0.04687 0.48076 0.09549 0.0
H554 H 0.81048 0.4005 0.07871 0.0
O555 O 1.00186 0.34285 0.17441 0.0
H556 H 0.96262 0.17988 0.14306 0.0
H557 H 0.99885 0.25993 0.25352 0.0
H558 H 0.03764 0.20397 0.23727 0.0
H559 H 0.01954 0.16346 0.18173 0.0
H560 H 0.92479 0.23628 0.16014 0.0
H561 H 0.90846 0.20696 0.33106 0.0
H562 H 0.92221 0.25517 0.38132 0.0
O563 O 0.97776 0.32486 0.2308 0.0
C564 C 0.91096 0.37659 0.22402 0.0
C565 C 0.93321 0.29956 0.34037 0.0
C566 C 0.91595 0.23565 0.323 0.0
N567 N 0.92762 0.28203 0.27387 0.0
C568 C 0.93495 0.30877 0.30136 0.0
C569 C 0.91797 0.24591 0.28427 0.0
C570 C 0.92368 0.26271 0.35119 0.0
C571 C 0.88653 0.34674 0.10326 0.0
N572 N 0.90586 0.37248 0.12518 0.0
C573 C 0.85197 0.35637 0.08622 0.0
C574 C 0.83725 0.39265 0.09172 0.0
C575 C 0.85718 0.41878 0.11405 0.0
C576 C 0.89164 0.40813 0.13066 0.0
C577 C 1.00219 0.44178 0.08064 0.0
C578 C 1.00033 0.42348 0.15796 0.0
C579 C 0.97751 0.414 0.09458 0.0
N580 N 0.97778 0.40423 0.13262 0.0
C581 C 0.02525 0.45152 0.14512 0.0
C582 C 0.02689 0.45988 0.10602 0.0
C583 C 0.00511 0.33744 0.21043 0.0
C584 C 0.97072 0.19724 0.16741 0.0
C585 C 0.99083 0.24249 0.22925 0.0
C586 C 0.01287 0.2108 0.22024 0.0
C587 C 1.00269 0.18807 0.18908 0.0
N588 N 0.95945 0.25122 0.20792 0.0
C589 C 0.94934 0.22913 0.17729 0.0
Co590 Co 0.35742 0.05352 0.8672 0.0
Co591 Co 0.29624 0.07654 0.79522 0.0
O592 O 0.30929 0.07515 0.85006 0.0
C593 C 0.30038 0.03371 0.9307 0.0
O594 O 0.27282 0.05369 0.9155 0.0
C595 C 0.27264 0.15427 0.82132 0.0
O596 O 0.30703 0.16057 0.83441 0.0
O597 O 0.34192 0.10797 0.78542 0.0
O598 O 0.38452 0.07572 0.82076 0.0
H599 H 0.3231 0.06995 0.65332 0.0
H600 H 0.31304 0.11029 0.91349 0.0
O601 O 0.33272 0.03131 0.91436 0.0
H602 H 0.44444 0.15777 0.91205 0.0
H603 H 0.4459 0.99963 0.966 0.0
H604 H 0.41889 0.01176 0.82742 0.0
H605 H 0.42786 0.09847 0.87867 0.0
H606 H 0.39613 0.0432 0.94311 0.0
O607 O 0.26471 0.12288 0.80499 0.0
H608 H 0.33878 0.06569 0.72223 0.0
H609 H 0.22538 0.09421 0.7518 0.0
H610 H 0.46886 0.96783 0.84909 0.0
H611 H 0.32841 0.16927 0.94762 0.0
H612 H 0.48119 0.96006 0.91896 0.0
H613 H 0.39457 0.19357 0.94711 0.0
O614 O 0.34548 0.00581 0.83923 0.0
H615 H 0.17835 0.03868 0.86689 0.0
H616 H 0.26358 0.00685 0.75913 0.0
H617 H 0.20812 0.9662 0.77232 0.0
H618 H 0.16497 0.98209 0.82647 0.0
H619 H 0.23434 0.07833 0.8529 0.0
H620 H 0.20855 0.09913 0.68318 0.0
H621 H 0.25758 0.08685 0.63337 0.0
O622 O 0.32695 0.02993 0.78323 0.0
C623 C 0.37612 0.10003 0.79456 0.0
C624 C 0.30146 0.07527 0.67474 0.0
C625 C 0.2372 0.09174 0.6915 0.0
N626 N 0.28304 0.07959 0.74109 0.0
C627 C 0.31014 0.07278 0.71384 0.0
C628 C 0.24694 0.08904 0.73034 0.0
C629 C 0.26471 0.08481 0.66357 0.0
C630 C 0.34198 0.11992 0.91365 0.0
N631 N 0.36962 0.10004 0.89486 0.0
C632 C 0.3505 0.15371 0.93282 0.0
C633 C 0.38758 0.16739 0.93244 0.0
C634 C 0.41556 0.14732 0.9128 0.0
C635 C 0.40597 0.11366 0.89396 0.0
C636 C 0.44028 1.00228 0.93551 0.0
C637 C 0.42517 0.00973 0.85776 0.0
C638 C 0.41236 0.02715 0.92233 0.0
N639 N 0.40426 0.0297 0.88395 0.0
C640 C 0.45317 0.98444 0.86989 0.0
C641 C 0.46006 0.98008 0.90911 0.0
C642 C 0.34018 1.00276 0.80326 0.0
C643 C 0.19693 0.03145 0.84322 0.0
C644 C 0.24512 0.01381 0.78293 0.0
C645 C 0.21367 0.99075 0.79017 0.0
C646 C 0.18946 0.9997 0.82054 0.0
N647 N 0.25224 0.04493 0.80529 0.0
C648 C 0.22866 0.05382 0.83514 0.0
Co649 Co 0.06178 0.64828 0.14643 0.0
Co650 Co 0.07889 0.71085 0.22002 0.0
O651 O 0.08084 0.69691 0.16539 0.0
C652 C 0.02108 0.70135 0.09087 0.0
O653 O 0.00488 0.72057 0.11876 0.0
C654 C 0.1574 0.73367 0.1961 0.0
O655 O 0.16053 0.70182 0.17678 0.0
O656 O 0.10895 0.665 0.23343 0.0
O657 O 0.08339 0.62129 0.19334 0.0
H658 H 0.06184 0.68716 0.36159 0.0
H659 H 0.11373 0.69702 0.10117 0.0
O660 O 0.04264 0.67343 0.09849 0.0
H661 H 0.17053 0.56936 0.09709 0.0
H662 H 0.01721 0.55965 0.04287 0.0
H663 H 0.02126 0.58383 0.18249 0.0
H664 H 0.11138 0.5809 0.13323 0.0
H665 H 0.05705 0.61082 0.06916 0.0
O666 O 0.12671 0.74148 0.21386 0.0
H667 H 0.0625 0.67003 0.29286 0.0
H668 H 0.09251 0.78281 0.26299 0.0
H669 H 0.98117 0.53211 0.15726 0.0
H670 H 0.17322 0.68694 0.06529 0.0
H671 H 0.97692 0.52159 0.08686 0.0
H672 H 0.20198 0.62267 0.063 0.0
O673 O 0.0121 0.65676 0.17281 0.0
H674 H 0.0473 0.82622 0.14173 0.0
H675 H 0.0069 0.74477 0.24947 0.0
H676 H 0.96751 0.79962 0.23107 0.0
H677 H 0.98771 0.84084 0.17689 0.0
H678 H 0.08567 0.77087 0.16089 0.0
H679 H 0.0925 0.80121 0.33142 0.0
H680 H 0.07701 0.75321 0.38129 0.0
O681 O 0.03153 0.68069 0.22889 0.0
C682 C 0.10391 0.63073 0.22249 0.0
C683 C 0.06876 0.70831 0.34016 0.0
C684 C 0.08597 0.7723 0.32323 0.0
N685 N 0.07791 0.72523 0.27393 0.0
C686 C 0.06923 0.69873 0.30118 0.0
C687 C 0.08611 0.76167 0.28453 0.0
C688 C 0.07726 0.74537 0.35119 0.0
C689 C 0.12637 0.6691 0.10082 0.0
N690 N 0.10945 0.63971 0.11987 0.0
C691 C 0.15995 0.66352 0.08026 0.0
C692 C 0.17604 0.62746 0.07894 0.0
C693 C 0.15842 0.59755 0.09808 0.0
C694 C 0.12498 0.60426 0.11857 0.0
C695 C 0.01804 0.56468 0.07356 0.0
C696 C 0.02098 0.57822 0.15194 0.0
C697 C 0.04072 0.59352 0.08868 0.0
N698 N 0.04097 0.60085 0.12732 0.0
C699 C 0.99786 0.54921 0.13782 0.0
C700 C 0.99561 0.5432 0.09828 0.0
C701 C 0.00669 0.66437 0.20812 0.0
C702 C 0.03827 0.80855 0.16547 0.0
C703 C 0.01583 0.76251 0.2258 0.0
C704 C 0.99345 0.79358 0.21557 0.0
C705 C 0.00481 0.81671 0.18518 0.0
N706 N 0.04868 0.75479 0.20642 0.0
C707 C 0.05995 0.77727 0.17654 0.0
Co708 Co 0.65004 0.05267 0.15056 0.0
Co709 Co 0.71241 0.07947 0.22032 0.0
O710 O 0.69808 0.0761 0.16577 0.0
C711 C 0.70523 0.0332 0.0851 0.0
O712 O 0.73298 0.05362 0.09945 0.0
C713 C 0.73406 0.15709 0.19218 0.0
O714 O 0.69981 0.16168 0.17806 0.0
O715 O 0.66616 0.11021 0.23047 0.0
O716 O 0.62385 0.07548 0.19713 0.0
H717 H 0.68914 0.07841 0.36304 0.0
H718 H 0.69185 0.10962 0.10212 0.0
O719 O 0.67371 0.02993 0.10291 0.0
H720 H 0.55921 0.15319 0.10508 0.0
H721 H 0.55954 0.9929 0.05685 0.0
H722 H 0.59014 0.01201 0.19383 0.0
H723 H 0.57804 0.09521 0.13937 0.0
H724 H 0.60942 0.03812 0.07617 0.0
O725 O 0.74286 0.12619 0.2089 0.0
H726 H 0.6717 0.07204 0.29474 0.0
H727 H 0.7845 0.09821 0.26123 0.0
H728 H 0.53966 0.96704 0.17577 0.0
H729 H 0.67422 0.16734 0.06713 0.0
H730 H 0.52569 0.95555 0.10676 0.0
H731 H 0.60742 0.18968 0.06838 0.0
O732 O 0.66385 0.00604 0.17962 0.0
H733 H 0.8292 0.04207 0.14661 0.0
H734 H 0.74694 0.01109 0.25696 0.0
H735 H 0.80256 0.97095 0.24308 0.0
H736 H 0.84419 0.98641 0.18761 0.0
H737 H 0.7731 0.08127 0.16135 0.0
H738 H 0.80319 0.10535 0.32917 0.0
H739 H 0.75538 0.09527 0.38067 0.0
O740 O 0.68278 0.03274 0.23439 0.0
C741 C 0.63201 0.10081 0.22243 0.0
C742 C 0.71031 0.08269 0.3409 0.0
C743 C 0.77426 0.09791 0.32188 0.0
N744 N 0.72703 0.08436 0.27397 0.0
C745 C 0.7006 0.07891 0.30215 0.0
C746 C 0.76347 0.09392 0.28343 0.0
C747 C 0.74744 0.09222 0.35076 0.0
C748 C 0.66264 0.11836 0.10232 0.0
N749 N 0.63592 0.09809 0.12206 0.0
C750 C 0.65284 0.15146 0.08264 0.0
C751 C 0.6154 0.16404 0.08344 0.0
C752 C 0.58836 0.14358 0.10399 0.0
C753 C 0.59922 0.11065 0.12334 0.0
C754 C 0.56597 0.9971 0.08699 0.0
C755 C 0.58308 0.00849 0.16381 0.0
C756 C 0.59403 0.02284 0.09815 0.0
N757 N 0.6032 0.02726 0.13611 0.0
C758 C 0.55477 0.98261 0.15374 0.0
C759 C 0.54694 0.9762 0.11501 0.0
C760 C 0.6693 0.00471 0.2157 0.0
C761 C 0.81128 0.03505 0.17087 0.0
C762 C 0.76474 0.01785 0.23259 0.0
C763 C 0.79629 0.9951 0.22497 0.0
C764 C 0.81966 1.0038 0.19386 0.0
N765 N 0.75671 0.04845 0.20989 0.0
C766 C 0.7795 0.05717 0.17937 0.0
Co767 Co 0.05295 0.3557 0.8677 0.0
Co768 Co 0.079 0.29683 0.79469 0.0
O769 O 0.07506 0.30802 0.84982 0.0
C770 C 0.03148 0.29743 0.92942 0.0
O771 O 0.04968 0.26961 0.91248 0.0
C772 C 0.15642 0.27257 0.82192 0.0
O773 O 0.16305 0.30666 0.83563 0.0
O774 O 0.11037 0.34325 0.78748 0.0
O775 O 0.07589 0.38388 0.82274 0.0
H776 H 0.08066 0.32917 0.65394 0.0
H777 H 0.10764 0.30962 0.91448 0.0
O778 O 0.02963 0.33018 0.91391 0.0
H779 H 0.15721 0.44017 0.91776 0.0
H780 H 1.00004 0.44433 0.9674 0.0
H781 H 0.01224 0.41827 0.82862 0.0
H782 H 0.0986 0.42536 0.88241 0.0
H783 H 0.04159 0.39294 0.94429 0.0
O784 O 0.12517 0.2653 0.80506 0.0
H785 H 0.07346 0.34238 0.72317 0.0
H786 H 0.09737 0.22722 0.74941 0.0
H787 H 0.97054 0.47002 0.85051 0.0
H788 H 0.16589 0.32321 0.9506 0.0
H789 H 0.96262 0.4819 0.92045 0.0
H790 H 0.19126 0.38892 0.95247 0.0
O791 O 0.0061 0.3448 0.83763 0.0
H792 H 0.03962 0.17676 0.86148 0.0
H793 H 0.01145 0.26401 0.75455 0.0
H794 H 0.97102 0.20779 0.76446 0.0
H795 H 0.98509 0.16359 0.81819 0.0
H796 H 0.07904 0.23358 0.85073 0.0
H797 H 0.10507 0.21281 0.68046 0.0
H798 H 0.0965 0.26396 0.63215 0.0
O799 O 0.03227 0.32716 0.78211 0.0
C800 C 0.101 0.37699 0.79699 0.0
C801 C 0.08433 0.3066 0.67469 0.0
C802 C 0.09803 0.24131 0.68957 0.0
N803 N 0.08451 0.28552 0.74032 0.0
C804 C 0.08022 0.31389 0.71395 0.0
C805 C 0.09368 0.24966 0.7286 0.0
C806 C 0.09323 0.27002 0.66249 0.0
C807 C 0.11777 0.33838 0.91558 0.0
N808 N 0.09886 0.36675 0.89691 0.0
C809 C 0.15113 0.34588 0.93591 0.0
C810 C 0.1654 0.38271 0.93688 0.0
C811 C 0.14632 0.41145 0.91742 0.0
C812 C 0.11306 0.40287 0.89739 0.0
C813 C 1.00273 0.43892 0.93687 0.0
C814 C 0.01017 0.42426 0.85903 0.0
C815 C 0.02639 0.41 0.92357 0.0
N816 N 0.02907 0.4023 0.8851 0.0
C817 C 0.9862 0.45336 0.87127 0.0
C818 C 0.98185 0.46008 0.91051 0.0
C819 C 1.00421 0.33986 0.80139 0.0
C820 C 0.03317 0.1958 0.83798 0.0
C821 C 0.01756 0.24516 0.7782 0.0
C822 C 0.99465 0.21325 0.78357 0.0
C823 C 1.00258 0.18844 0.81369 0.0
N824 N 0.04755 0.25216 0.80211 0.0
C825 C 0.05542 0.228 0.83173 0.0
Co826 Co 0.36098 0.94788 0.14743 0.0
Co827 Co 0.29697 0.92939 0.21903 0.0
O828 O 0.31213 0.9277 0.16484 0.0
C829 C 0.30855 0.98588 0.0901 0.0
O830 O 0.28831 1.0015 0.11758 0.0
C831 C 0.27538 0.85004 0.19522 0.0
O832 O 0.30658 0.8471 0.17481 0.0
O833 O 0.3437 0.90076 0.23335 0.0
O834 O 0.38688 0.92914 0.19542 0.0
H835 H 0.31951 0.94643 0.36071 0.0
H836 H 0.31654 0.89494 0.09876 0.0
O837 O 0.33699 0.96524 0.09831 0.0
H838 H 0.44267 0.83596 0.11221 0.0
H839 H 0.45319 0.99059 0.04627 0.0
H840 H 0.42359 0.99028 0.18485 0.0
H841 H 0.42881 0.89751 0.14281 0.0
H842 H 0.40109 0.95121 0.07158 0.0
O843 O 0.26792 0.88064 0.2132 0.0
H844 H 0.3372 0.94564 0.29214 0.0
H845 H 0.22457 0.91519 0.26141 0.0
H846 H 0.47602 0.03005 0.16079 0.0
H847 H 0.32925 0.83359 0.06715 0.0
H848 H 0.48954 0.03211 0.09072 0.0
H849 H 0.39268 0.80362 0.0739 0.0
O850 O 0.35045 0.99775 0.17265 0.0
H851 H 0.18314 0.9555 0.13639 0.0
H852 H 0.25738 0.99896 0.24809 0.0
H853 H 0.20143 0.03558 0.22762 0.0
H854 H 0.16376 0.0138 0.17138 0.0
H855 H 0.23966 0.92007 0.15767 0.0
H856 H 0.2057 0.91534 0.3297 0.0
H857 H 0.25332 0.93117 0.37991 0.0
O858 O 0.32477 0.97831 0.22786 0.0
C859 C 0.37806 0.90766 0.22376 0.0
C860 C 0.29849 0.93949 0.33912 0.0
C861 C 0.23463 0.92203 0.32172 0.0
N862 N 0.28197 0.93034 0.27276 0.0
C863 C 0.30833 0.939 0.30022 0.0
C864 C 0.24552 0.92187 0.2831 0.0
C865 C 0.26136 0.93092 0.34987 0.0
C866 C 0.34423 0.8821 0.10177 0.0
N867 N 0.37182 0.89962 0.12293 0.0
C868 C 0.35125 0.84735 0.08383 0.0
C869 C 0.38683 0.83054 0.08765 0.0
C870 C 0.41487 0.84863 0.10918 0.0
C871 C 0.40681 0.88337 0.12668 0.0
C872 C 0.44693 0.99062 0.07674 0.0
C873 C 0.43031 0.98982 0.15453 0.0
C874 C 0.41755 0.96824 0.09129 0.0
N875 N 0.40867 0.96913 0.12955 0.0
C876 C 0.45978 0.01272 0.14103 0.0
C877 C 0.46739 0.01381 0.10172 0.0
C878 C 0.34121 1.00356 0.20761 0.0
C879 C 0.1993 0.96528 0.16094 0.0
C880 C 0.24146 0.98956 0.22344 0.0
C881 C 0.20962 0.01027 0.21207 0.0
C882 C 0.18847 0.99801 0.18055 0.0
N883 N 0.25194 0.95749 0.20409 0.0
C884 C 0.23129 0.94528 0.1732 0.0
Co885 Co 0.95034 0.65272 0.86962 0.0
Co886 Co 0.93069 0.71246 0.79488 0.0
O887 O 0.93122 0.70116 0.85021 0.0
C888 C 0.97296 0.71086 0.93149 0.0
O889 O 0.95464 0.73909 0.91544 0.0
C890 C 0.85382 0.73783 0.82095 0.0
O891 O 0.8506 0.70644 0.84095 0.0
O892 O 0.8986 0.66707 0.78552 0.0
O893 O 0.92749 0.62492 0.82412 0.0
H894 H 0.93918 0.68083 0.65408 0.0
H895 H 0.89673 0.70162 0.91532 0.0
O896 O 0.97366 0.67803 0.91602 0.0
H897 H 0.84005 0.57401 0.91521 0.0
H898 H 0.99415 0.56392 0.97323 0.0
H899 H 0.98854 0.58679 0.83345 0.0
H900 H 0.9003 0.58599 0.88157 0.0
H901 H 0.95698 0.61721 0.94731 0.0
O902 O 0.88408 0.74458 0.80201 0.0
H903 H 0.94157 0.66726 0.72354 0.0
H904 H 0.91732 0.78254 0.74891 0.0
H905 H 0.02524 0.53264 0.85825 0.0
H906 H 0.83699 0.69081 0.94982 0.0
H907 H 0.03031 0.52245 0.9287 0.0
H908 H 0.80802 0.62658 0.94996 0.0
O909 O 0.99903 0.66045 0.84144 0.0
H910 H 0.96828 0.83194 0.86392 0.0
H911 H 1.00235 0.74253 0.76041 0.0
H912 H 0.04377 0.79742 0.77353 0.0
H913 H 0.02677 0.84266 0.82555 0.0
H914 H 0.92783 0.77644 0.85005 0.0
H915 H 0.91423 0.79733 0.67969 0.0
H916 H 0.92528 0.74627 0.6317 0.0
O917 O 0.97697 0.68071 0.78496 0.0
C918 C 0.9049 0.63306 0.79635 0.0
C919 C 0.93428 0.70334 0.67468 0.0
C920 C 0.92021 0.76869 0.68905 0.0
N921 N 0.92927 0.724 0.74031 0.0
C922 C 0.93564 0.69583 0.71409 0.0
C923 C 0.92179 0.7601 0.72822 0.0
C924 C 0.92645 0.74004 0.66215 0.0
C925 C 0.88515 0.67345 0.91587 0.0
N926 N 0.90292 0.64434 0.8972 0.0
C927 C 0.85089 0.66754 0.93519 0.0
C928 C 0.83459 0.63155 0.93515 0.0
C929 C 0.85252 0.60207 0.91567 0.0
C930 C 0.88672 0.60906 0.89665 0.0
C931 C 0.99288 0.5686 0.94251 0.0
C932 C 0.98914 0.58151 0.86406 0.0
C933 C 0.97175 0.59864 0.92761 0.0
N934 N 0.97094 0.60539 0.88887 0.0
C935 C 0.01042 0.5511 0.87795 0.0
C936 C 0.01304 0.54527 0.91749 0.0
C937 C 1.00289 0.66582 0.80548 0.0
C938 C 0.97597 0.81245 0.84115 0.0
C939 C 0.99488 0.76192 0.78328 0.0
C940 C 0.01838 0.79304 0.79047 0.0
C941 C 0.00881 0.81843 0.81964 0.0
N942 N 0.96271 0.75626 0.80451 0.0
C943 C 0.95314 0.78103 0.83312 0.0
C944 C 0.29785 0.32495 0.30388 0.0
C945 C 0.26246 0.31885 0.32168 0.0
C946 C 0.32617 0.29724 0.30399 0.0
C947 C 0.32071 0.26184 0.32186 0.0
H948 H 0.30402 0.35148 0.2895 0.0
H949 H 0.35264 0.30384 0.28964 0.0
S950 S 0.23363 0.23147 0.37367 0.0
N951 N 0.22372 0.27472 0.3585 0.0
N952 N 0.27716 0.22239 0.35866 0.0
C953 C 0.28559 0.25524 0.34013 0.0
C954 C 0.2565 0.28373 0.34005 0.0
C955 C 0.32563 0.71041 0.71508 0.0
C956 C 0.32134 0.74438 0.69428 0.0
C957 C 0.29755 0.68241 0.71504 0.0
C958 C 0.26357 0.68679 0.69421 0.0
H959 H 0.35102 0.70514 0.73179 0.0
H960 H 0.30277 0.65704 0.73173 0.0
S961 S 0.23818 0.77001 0.63406 0.0
N962 N 0.28041 0.78067 0.65162 0.0
N963 N 0.22738 0.72783 0.65158 0.0
C964 C 0.25871 0.72057 0.67311 0.0
C965 C 0.28757 0.74934 0.67314 0.0
C966 C 0.72486 0.7493 0.33013 0.0
C967 C 0.68687 0.74083 0.32077 0.0
C968 C 0.75316 0.72112 0.32937 0.0
C969 C 0.74459 0.68337 0.31922 0.0
H970 H 0.733 0.77805 0.33741 0.0
H971 H 0.78205 0.72919 0.33617 0.0
S972 S 0.64871 0.64546 0.29616 0.0
N973 N 0.64188 0.6911 0.30375 0.0
N974 N 0.69458 0.63863 0.30232 0.0
C975 C 0.70646 0.67435 0.31098 0.0
C976 C 0.67778 0.7029 0.31177 0.0
C977 C 0.71128 0.26907 0.66321 0.0
C978 C 0.68672 0.26414 0.69481 0.0
C979 C 0.73958 0.29738 0.66344 0.0
C980 C 0.74423 0.3217 0.69528 0.0
H981 H 0.70792 0.25172 0.6377 0.0
H982 H 0.75711 0.30099 0.63811 0.0
S983 S 0.69146 0.31626 0.78756 0.0
N984 N 0.67207 0.28316 0.76036 0.0
N985 N 0.72476 0.33586 0.76079 0.0
C986 C 0.72109 0.31568 0.72767 0.0
C987 C 0.69248 0.28706 0.72743 0.0
C988 C 0.76775 0.79682 0.85097 0.0
C989 C 0.76435 0.82303 0.82062 0.0
C990 C 0.79627 0.76877 0.85072 0.0
C991 C 0.82235 0.76597 0.8201 0.0
H992 H 0.74893 0.79858 0.87553 0.0
H993 H 0.79846 0.7498 0.8751 0.0
S994 S 0.82173 0.82396 0.73099 0.0
N995 N 0.78696 0.84151 0.75729 0.0
N996 N 0.8401 0.78937 0.75686 0.0
C997 C 0.81806 0.79097 0.7889 0.0
C998 C 0.7892 0.81932 0.78915 0.0
C999 C 0.79884 0.18173 0.20747 0.0
C1000 C 0.76309 0.1879 0.19047 0.0
C1001 C 0.82678 0.20987 0.20799 0.0
C1002 C 0.82062 0.2458 0.19149 0.0
H1003 H 0.80552 0.15485 0.2209 0.0
H1004 H 0.85352 0.20316 0.22175 0.0
S1005 S 0.73256 0.27649 0.14174 0.0
N1006 N 0.72338 0.23263 0.15559 0.0
N1007 N 0.77616 0.28573 0.15648 0.0
C1008 C 0.78525 0.2524 0.17375 0.0
C1009 C 0.75651 0.22349 0.17327 0.0
C1010 C 0.22387 0.25055 0.83211 0.0
C1011 C 0.1855 0.24199 0.82463 0.0
C1012 C 0.25188 0.22203 0.83191 0.0
C1013 C 0.24258 0.18387 0.82425 0.0
H1014 H 0.23255 0.2796 0.83719 0.0
H1015 H 0.28112 0.23016 0.83687 0.0
S1016 S 0.14552 0.14577 0.80748 0.0
N1017 N 0.13943 0.19185 0.81253 0.0
N1018 N 0.19153 0.13879 0.81227 0.0
C1019 C 0.20407 0.17481 0.81828 0.0
C1020 C 0.17571 0.20369 0.81845 0.0
C1021 C 0.24401 0.79212 0.16653 0.0
C1022 C 0.24754 0.81828 0.19699 0.0
C1023 C 0.21542 0.76408 0.16671 0.0
C1024 C 0.18934 0.76129 0.19732 0.0
H1025 H 0.26267 0.79402 0.14185 0.0
H1026 H 0.21304 0.74525 0.14219 0.0
S1027 S 0.19031 0.81896 0.28672 0.0
N1028 N 0.22515 0.83652 0.2605 0.0
N1029 N 0.17177 0.78447 0.2607 0.0
C1030 C 0.19383 0.78612 0.22868 0.0
C1031 C 0.22282 0.81441 0.22855 0.0
C1032 C 0.1301 0.56338 0.3042 0.0
C1033 C 0.15557 0.53791 0.28647 0.0
C1034 C 0.11404 0.59389 0.2837 0.0
C1035 C 0.12283 0.60018 0.24473 0.0
H1036 H 0.12158 0.55922 0.3338 0.0
H1037 H 0.09383 0.61195 0.29824 0.0
S1038 S 0.19249 0.54648 0.18651 0.0
N1039 N 0.19154 0.52423 0.22817 0.0
N1040 N 0.16228 0.58191 0.19094 0.0
C1041 C 0.14978 0.57654 0.22743 0.0
C1042 C 0.16594 0.54541 0.24795 0.0
C1043 C 0.56277 0.88207 0.70884 0.0
C1044 C 0.54019 0.85347 0.72572 0.0
C1045 C 0.59348 0.89845 0.72878 0.0
C1046 C 0.60286 0.88685 0.76625 0.0
H1047 H 0.55604 0.89285 0.68051 0.0
H1048 H 0.60935 0.9209 0.71505 0.0
S1049 S 0.55794 0.80887 0.82102 0.0
N1050 N 0.53281 0.81175 0.78112 0.0
N1051 N 0.59107 0.84175 0.81724 0.0
C1052 C 0.58243 0.85678 0.7824 0.0
C1053 C 0.551 0.84031 0.76249 0.0
C1054 C 0.86645 0.4027 0.27473 0.0
C1055 C 0.89531 0.40882 0.24714 0.0
C1056 C 0.85042 0.43301 0.29564 0.0
C1057 C 0.86241 0.47047 0.28935 0.0
H1058 H 0.85575 0.37436 0.27993 0.0
H1059 H 0.82786 0.42725 0.31598 0.0
S1060 S 0.93932 0.50215 0.22426 0.0
N1061 N 0.93709 0.45585 0.21779 0.0
N1062 N 0.90615 0.5121 0.25611 0.0
C1063 C 0.89175 0.47695 0.26293 0.0
C1064 C 0.90842 0.44635 0.2421 0.0
C1065 C 0.4754 0.13474 0.76872 0.0
C1066 C 0.47028 0.15317 0.73322 0.0
C1067 C 0.44495 0.11758 0.78801 0.0
C1068 C 0.40775 0.1189 0.77321 0.0
H1069 H 0.50344 0.1326 0.78131 0.0
H1070 H 0.45085 0.1031 0.81475 0.0
S1071 S 0.37918 0.16476 0.68132 0.0
N1072 N 0.42546 0.17175 0.68377 0.0
N1073 N 0.36774 0.14123 0.72068 0.0
C1074 C 0.40218 0.13794 0.7379 0.0
C1075 C 0.43351 0.15456 0.71776 0.0
C1076 C 0.15837 0.43403 0.72333 0.0
C1077 C 0.15162 0.47172 0.73449 0.0
C1078 C 0.14237 0.40355 0.74393 0.0
C1079 C 0.11838 0.4097 0.77594 0.0
H1080 H 0.1765 0.42808 0.6989 0.0
H1081 H 0.14866 0.37497 0.73443 0.0
S1082 S 0.08928 0.50413 0.81372 0.0
N1083 N 0.11801 0.5139 0.77768 0.0
N1084 N 0.08729 0.45745 0.81579 0.0
C1085 C 0.11077 0.44764 0.78643 0.0
C1086 C 0.12753 0.47839 0.76587 0.0
C1087 C 0.44698 0.89164 0.23095 0.0
C1088 C 0.40981 0.89005 0.2459 0.0
C1089 C 0.47761 0.87491 0.25006 0.0
C1090 C 0.47285 0.85668 0.28566 0.0
H1091 H 0.45283 0.906 0.20413 0.0
H1092 H 0.50551 0.87713 0.23715 0.0
S1093 S 0.38227 0.84574 0.33879 0.0
N1094 N 0.37035 0.86874 0.29924 0.0
N1095 N 0.42853 0.8387 0.33592 0.0
C1096 C 0.43622 0.85545 0.30162 0.0
C1097 C 0.40461 0.87174 0.2816 0.0
C1098 C 0.87166 0.53329 0.77078 0.0
C1099 C 0.85519 0.53763 0.73422 0.0
C1100 C 0.88741 0.56422 0.7905 0.0
C1101 C 0.88656 0.60113 0.77499 0.0
H1102 H 0.87342 0.50548 0.78389 0.0
H1103 H 0.90057 0.5589 0.81808 0.0
S1104 S 0.84467 0.62772 0.68054 0.0
N1105 N 0.83834 0.58139 0.68325 0.0
N1106 N 0.86612 0.64008 0.72088 0.0
C1107 C 0.86915 0.60595 0.73869 0.0
C1108 C 0.85402 0.57411 0.71817 0.0
C1109 C 0.56266 0.1154 0.2298 0.0
C1110 C 0.6 0.11884 0.24396 0.0
C1111 C 0.53172 0.13141 0.24921 0.0
C1112 C 0.53647 0.15063 0.28431 0.0
H1113 H 0.55702 0.10014 0.20342 0.0
H1114 H 0.50361 0.12783 0.23707 0.0
S1115 S 0.6275 0.16783 0.3346 0.0
N1116 N 0.63961 0.14421 0.29544 0.0
N1117 N 0.58088 0.17231 0.33283 0.0
C1118 C 0.57328 0.15408 0.29926 0.0
C1119 C 0.60514 0.13876 0.27887 0.0
C1120 C 0.65576 0.07431 0.79314 0.0
C1121 C 0.6492 0.03668 0.78168 0.0
C1122 C 0.64014 0.10485 0.7724 0.0
C1123 C 0.61666 0.0988 0.73996 0.0
H1124 H 0.67348 0.08017 0.81791 0.0
H1125 H 0.64634 0.13338 0.78213 0.0
S1126 S 0.58806 0.00464 0.70126 0.0
N1127 N 0.61641 0.99471 0.73759 0.0
N1128 N 0.58603 0.05131 0.6995 0.0
C1129 C 0.60915 0.06095 0.72921 0.0
C1130 C 0.62566 0.03015 0.74982 0.0
C1131 C 0.10546 0.36402 0.24165 0.0
C1132 C 0.09886 0.38995 0.27198 0.0
C1133 C 0.07522 0.34718 0.22125 0.0
C1134 C 0.03736 0.35511 0.23098 0.0
H1135 H 0.13417 0.35654 0.23357 0.0
H1136 H 0.08147 0.32741 0.19826 0.0
S1137 S 1.00397 0.42362 0.30442 0.0
N1138 N 0.05063 0.42479 0.30789 0.0
N1139 N 0.99465 0.3924 0.27042 0.0
C1140 C 0.0303 0.38141 0.26042 0.0
C1141 C 0.06078 0.39901 0.28068 0.0
C1142 C 0.36946 0.9727 0.74553 0.0
C1143 C 0.35496 0.96876 0.78297 0.0
C1144 C 0.38629 0.94216 0.72629 0.0
C1145 C 0.38856 0.90584 0.74307 0.0
H1146 H 0.36893 0.99999 0.73125 0.0
H1147 H 0.39787 0.94744 0.69801 0.0
S1148 S 0.35421 0.8804 0.8408 0.0
N1149 N 0.34412 0.92594 0.83655 0.0
N1150 N 0.3743 0.86791 0.79979 0.0
C1151 C 0.37358 0.90134 0.78043 0.0
C1152 C 0.3572 0.93288 0.80048 0.0
C1153 C 0.90616 0.64128 0.24138 0.0
C1154 C 0.91245 0.61446 0.27093 0.0
C1155 C 0.93649 0.65702 0.22024 0.0
C1156 C 0.97417 0.64675 0.22818 0.0
H1157 H 0.87761 0.65049 0.23463 0.0
H1158 H 0.93052 0.67785 0.19819 0.0
S1159 S 0.00652 0.57543 0.29892 0.0
N1160 N 0.96004 0.5766 0.30434 0.0
N1161 N 0.01627 0.60663 0.26507 0.0
C1162 C 0.98088 0.61948 0.25666 0.0
C1163 C 0.95027 0.60322 0.27791 0.0
C1164 C 0.65743 0.93475 0.22414 0.0
C1165 C 0.65381 0.97214 0.23768 0.0
C1166 C 0.64184 0.90405 0.24467 0.0
C1167 C 0.62119 0.90962 0.27907 0.0
H1168 H 0.67264 0.92917 0.19766 0.0
H1169 H 0.64561 0.87578 0.23308 0.0
S1170 S 0.60143 1.00298 0.32475 0.0
N1171 N 0.62693 0.01336 0.28645 0.0
N1172 N 0.59692 0.95643 0.32439 0.0
C1173 C 0.61684 0.9472 0.29228 0.0
C1174 C 0.6333 0.9782 0.27178 0.0
C1175 C 0.90904 0.38736 0.78025 0.0
C1176 C 0.90664 0.38598 0.73988 0.0
C1177 C 0.94002 0.37153 0.80001 0.0
C1178 C 0.96974 0.35314 0.78023 0.0
H1179 H 0.88744 0.40173 0.79678 0.0
H1180 H 0.94097 0.37452 0.831 0.0
S1181 S 0.9737 0.33685 0.67457 0.0
N1182 N 0.93441 0.36137 0.68127 0.0
N1183 N 0.99233 0.33144 0.71772 0.0
C1184 C 0.96652 0.34992 0.7399 0.0
C1185 C 0.93515 0.36639 0.71993 0.0
C1186 C 0.39786 0.09326 0.23092 0.0
C1187 C 0.38631 0.10177 0.26865 0.0
C1188 C 0.38169 0.06277 0.21047 0.0
C1189 C 0.35382 0.03923 0.22726 0.0
H1190 H 0.42027 0.10953 0.21747 0.0
H1191 H 0.39214 0.05693 0.18181 0.0
S1192 S 0.31037 0.05373 0.32373 0.0
N1193 N 0.34234 0.08776 0.32012 0.0
N1194 N 0.31322 0.02957 0.28321 0.0
C1195 C 0.341 0.04888 0.2645 0.0
C1196 C 0.35701 0.08026 0.28483 0.0
C1197 C 0.06309 0.6166 0.72998 0.0
C1198 C 0.1002 0.6183 0.74503 0.0
C1199 C 0.03221 0.63269 0.74947 0.0
C1200 C 0.03672 0.6503 0.78549 0.0
H1201 H 0.0576 0.60272 0.70279 0.0
H1202 H 0.00433 0.63051 0.73652 0.0
S1203 S 0.12716 0.66214 0.83852 0.0
N1204 N 0.13936 0.6399 0.79857 0.0
N1205 N 0.08077 0.6683 0.83591 0.0
C1206 C 0.07331 0.65185 0.80137 0.0
C1207 C 0.10513 0.63639 0.78098 0.0
C1208 C 0.1886 0.49153 0.53354 0.0
C1209 C 0.21198 0.52137 0.54608 0.0
C1210 C 0.1873 0.48073 0.49482 0.0
C1211 C 0.2087 0.49976 0.46644 0.0
H1212 H 0.17039 0.47683 0.55375 0.0
H1213 H 0.16826 0.45785 0.48711 0.0
S1214 S 0.27644 0.57851 0.48464 0.0
N1215 N 0.25893 0.56851 0.52752 0.0
N1216 N 0.25595 0.5487 0.45438 0.0
C1217 C 0.23348 0.52872 0.4788 0.0
C1218 C 0.23521 0.5394 0.51862 0.0
C1219 C 0.49064 0.81216 0.48226 0.0
C1220 C 0.52124 0.78916 0.47101 0.0
C1221 C 0.47954 0.81488 0.52075 0.0
C1222 C 0.49879 0.79512 0.5501 0.0
H1223 H 0.47584 0.82934 0.46124 0.0
H1224 H 0.45628 0.8338 0.52754 0.0
S1225 S 0.57902 0.72845 0.53548 0.0
N1226 N 0.56912 0.74402 0.49182 0.0
N1227 N 0.54843 0.74936 0.56459 0.0
C1228 C 0.52819 0.77031 0.53906 0.0
C1229 C 0.53936 0.76729 0.49946 0.0
C1230 C 0.81919 0.53058 0.49537 0.0
C1231 C 0.79808 0.51145 0.46682 0.0
C1232 C 0.8169 0.52039 0.53421 0.0
C1233 C 0.79293 0.49098 0.54664 0.0
H1234 H 0.83883 0.55296 0.48769 0.0
H1235 H 0.83504 0.53502 0.55457 0.0
S1236 S 0.72887 0.43391 0.48458 0.0
N1237 N 0.75031 0.46307 0.45441 0.0
N1238 N 0.74568 0.44426 0.52768 0.0
C1239 C 0.76991 0.47298 0.51895 0.0
C1240 C 0.77255 0.48312 0.47905 0.0
C1241 C 0.52775 0.23032 0.47628 0.0
C1242 C 0.49662 0.20772 0.46502 0.0
C1243 C 0.53825 0.23374 0.5153 0.0
C1244 C 0.51807 0.2146 0.54441 0.0
H1245 H 0.54514 0.24411 0.45474 0.0
H1246 H 0.56355 0.24975 0.52243 0.0
S1247 S 0.43099 0.15686 0.53119 0.0
N1248 N 0.44301 0.16989 0.48729 0.0
N1249 N 0.46326 0.17573 0.55977 0.0
C1250 C 0.48563 0.19393 0.53377 0.0
C1251 C 0.47478 0.19066 0.49436 0.0
C1252 C 0.72874 0.03736 0.0167 0.0
C1253 C 0.70751 0.01827 0.0451 0.0
C1254 C 0.72608 0.02714 0.97755 0.0
C1255 C 0.70217 0.99739 0.96537 0.0
H1256 H 0.74613 0.06152 0.02447 0.0
H1257 H 0.74174 0.04363 0.95661 0.0
S1258 S 0.64527 0.93473 0.02941 0.0
N1259 N 0.66499 0.96576 0.0588 0.0
N1260 N 0.66042 0.94613 0.98604 0.0
C1261 C 0.68271 0.97664 0.99398 0.0
C1262 C 0.68525 0.98719 0.03357 0.0
C1263 C 0.98951 0.31912 0.98274 0.0
C1264 C 0.01721 0.29357 0.96951 0.0
C1265 C 0.97943 0.32096 0.0216 0.0
C1266 C 0.99684 0.29763 0.0494 0.0
H1267 H 0.97614 0.33879 0.96302 0.0
H1268 H 0.95844 0.34183 0.02992 0.0
S1269 S 0.06914 0.22363 0.02942 0.0
N1270 N 0.06028 0.24251 0.9869 0.0
N1271 N 0.04152 0.24616 0.06028 0.0
C1272 C 0.02329 0.27056 0.03638 0.0
C1273 C 0.03342 0.26849 0.99642 0.0
C1274 C 0.27696 0.0374 0.99896 0.0
C1275 C 0.29664 0.01767 0.96992 0.0
C1276 C 0.2793 0.02603 0.03775 0.0
C1277 C 0.30121 0.99442 0.04873 0.0
H1278 H 0.26142 0.06299 0.99203 0.0
H1279 H 0.26529 0.04316 0.05936 0.0
S1280 S 0.35272 0.9296 0.98225 0.0
N1281 N 0.33512 0.96281 0.95405 0.0
N1282 N 0.3387 0.94072 0.02611 0.0
C1283 C 0.31862 0.97293 0.01932 0.0
C1284 C 0.31657 0.98476 0.98017 0.0
C1285 C 0.96874 0.73326 1.00012 0.0
C1286 C 0.98899 0.71462 0.97074 0.0
C1287 C 0.98013 0.73049 0.03891 0.0
C1288 C 0.01232 0.70923 0.04958 0.0
H1289 H 0.94273 0.74821 0.99339 0.0
H1290 H 0.9626 0.74364 0.06076 0.0
S1291 S 0.07846 0.66063 0.98215 0.0
N1292 N 0.04471 0.67774 0.95425 0.0
N1293 N 0.06706 0.67368 0.02624 0.0
C1294 C 0.03428 0.69296 0.01983 0.0
C1295 C 0.02235 0.69532 0.98069 0.0
loop_
_geom_bond_atom_site_label_1
_geom_bond_atom_site_label_2
_geom_bond_distance
_geom_bond_site_symmetry_2
_ccdc_geom_bond_type
Co0 O2 2.143 . S
Co0 O8 2.074 . S
Co0 O11 2.093 . S
Co0 O24 2.097 . S
Co0 N41 2.151 . S
Co0 N49 2.214 . S
Co1 O2 2.160 . S
Co1 O7 2.058 . S
Co1 O17 2.057 . S
Co1 O32 2.037 . S
Co1 N36 2.145 . S
Co1 N57 2.257 . S
O2 Co0 2.143 . S
O2 Co1 2.160 . S
C3 O4 1.278 . S
C3 O11 1.224 . S
O4 C3 1.278 . S
C5 O6 1.245 . S
C5 O17 1.232 . S
O6 C5 1.245 . S
O7 Co1 2.058 . S
O7 C33 1.269 . S
O8 Co0 2.074 . S
O8 C33 1.257 . S
H9 C34 0.930 . S
H10 C40 0.930 . S
O11 Co0 2.093 . S
O11 C3 1.224 . S
H12 C44 0.929 . S
H13 C46 0.930 . S
H14 C47 0.930 . S
H15 C45 0.929 . S
H16 C48 0.928 . S
O17 Co1 2.057 . S
O17 C5 1.232 . S
H18 C37 0.929 . S
H19 C38 0.929 . S
H20 C50 0.931 . S
H21 C42 0.929 . S
H22 C51 0.930 1_655 S
H23 C43 0.931 . S
O24 Co0 2.097 . S
O24 C52 1.214 . S
H25 C53 0.929 . S
H26 C54 0.929 . S
H27 C55 0.930 . S
H28 C56 0.929 . S
H29 C58 0.930 . S
H30 C35 0.930 . S
H31 C39 0.930 . S
O32 Co1 2.037 . S
O32 C52 1.234 . S
C33 O7 1.269 . S
C33 O8 1.257 . S
C34 H9 0.930 . S
C34 C37 1.388 . S
C34 C39 1.418 . S
C35 H30 0.930 . S
C35 C38 1.404 . S
C35 C39 1.353 . S
N36 Co1 2.145 . S
N36 C37 1.397 . S
N36 C38 1.334 . S
C37 H18 0.929 . S
C37 C34 1.388 . S
C37 N36 1.397 . S
C38 H19 0.929 . S
C38 C35 1.404 . S
C38 N36 1.334 . S
C39 H31 0.930 . S
C39 C34 1.418 . S
C39 C35 1.353 . S
C40 H10 0.930 . S
C40 N41 1.330 . S
C40 C42 1.446 . S
N41 Co0 2.151 . S
N41 C40 1.330 . S
N41 C45 1.418 . S
C42 H21 0.929 . S
C42 C40 1.446 . S
C42 C43 1.332 . S
C43 H23 0.931 . S
C43 C42 1.332 . S
C43 C44 1.267 . S
C44 H12 0.929 . S
C44 C43 1.267 . S
C44 C45 1.251 . S
C45 H15 0.929 . S
C45 N41 1.418 . S
C45 C44 1.251 . S
C46 H13 0.930 . S
C46 C48 1.406 . S
C46 C51 1.261 . S
C47 H14 0.930 . S
C47 N49 1.325 . S
C47 C50 1.357 . S
C48 H16 0.928 . S
C48 C46 1.406 . S
C48 N49 1.261 . S
N49 Co0 2.214 . S
N49 C47 1.325 . S
N49 C48 1.261 . S
C50 H20 0.931 . S
C50 C47 1.357 . S
C50 C51 1.312 . S
C51 H22 0.930 1_455 S
C51 C46 1.261 . S
C51 C50 1.312 . S
C52 O24 1.214 . S
C52 O32 1.234 . S
C53 H25 0.929 . S
C53 C56 1.391 . S
C53 C58 1.391 . S
C54 H26 0.929 . S
C54 C55 1.390 . S
C54 N57 1.391 . S
C55 H27 0.930 . S
C55 C54 1.390 . S
C55 C56 1.392 . S
C56 H28 0.929 . S
C56 C53 1.391 . S
C56 C55 1.392 . S
N57 Co1 2.257 . S
N57 C54 1.391 . S
N57 C58 1.388 . S
C58 H29 0.930 . S
C58 C53 1.391 . S
C58 N57 1.388 . S
Co59 O61 2.143 . S
Co59 O67 2.074 . S
Co59 O70 2.093 . S
Co59 O83 2.097 . S
Co59 N100 2.151 . S
Co59 N108 2.214 . S
Co60 O61 2.160 . S
Co60 O66 2.058 . S
Co60 O76 2.057 . S
Co60 O91 2.037 . S
Co60 N95 2.145 . S
Co60 N116 2.257 . S
O61 Co59 2.143 . S
O61 Co60 2.160 . S
C62 O63 1.278 . S
C62 O70 1.224 . S
O63 C62 1.278 . S
C64 O65 1.245 . S
C64 O76 1.232 . S
O65 C64 1.245 . S
O66 Co60 2.058 . S
O66 C92 1.269 . S
O67 Co59 2.074 . S
O67 C92 1.257 . S
H68 C93 0.930 . S
H69 C99 0.930 . S
O70 Co59 2.093 . S
O70 C62 1.224 . S
H71 C103 0.929 . S
H72 C105 0.930 . S
H73 C106 0.930 . S
H74 C104 0.929 . S
H75 C107 0.928 . S
O76 Co60 2.057 . S
O76 C64 1.232 . S
H77 C96 0.929 . S
H78 C97 0.929 . S
H79 C109 0.931 . S
H80 C101 0.929 . S
H81 C110 0.930 1_545 S
H82 C102 0.931 . S
O83 Co59 2.097 . S
O83 C111 1.214 . S
H84 C112 0.929 . S
H85 C113 0.929 . S
H86 C114 0.930 . S
H87 C115 0.929 . S
H88 C117 0.930 . S
H89 C94 0.930 . S
H90 C98 0.930 . S
O91 Co60 2.037 . S
O91 C111 1.234 . S
C92 O66 1.269 . S
C92 O67 1.257 . S
C93 H68 0.930 . S
C93 C96 1.388 . S
C93 C98 1.418 . S
C94 H89 0.930 . S
C94 C97 1.404 . S
C94 C98 1.353 . S
N95 Co60 2.145 . S
N95 C96 1.397 . S
N95 C97 1.334 . S
C96 H77 0.929 . S
C96 C93 1.388 . S
C96 N95 1.397 . S
C97 H78 0.929 . S
C97 C94 1.404 . S
C97 N95 1.334 . S
C98 H90 0.930 . S
C98 C93 1.418 . S
C98 C94 1.353 . S
C99 H69 0.930 . S
C99 N100 1.330 . S
C99 C101 1.446 . S
N100 Co59 2.151 . S
N100 C99 1.330 . S
N100 C104 1.418 . S
C101 H80 0.929 . S
C101 C99 1.446 . S
C101 C102 1.332 . S
C102 H82 0.931 . S
C102 C101 1.332 . S
C102 C103 1.267 . S
C103 H71 0.929 . S
C103 C102 1.267 . S
C103 C104 1.251 . S
C104 H74 0.929 . S
C104 N100 1.418 . S
C104 C103 1.251 . S
C105 H72 0.930 . S
C105 C107 1.406 . S
C105 C110 1.261 . S
C106 H73 0.930 . S
C106 N108 1.325 . S
C106 C109 1.357 . S
C107 H75 0.928 . S
C107 C105 1.406 . S
C107 N108 1.261 . S
N108 Co59 2.214 . S
N108 C106 1.325 . S
N108 C107 1.261 . S
C109 H79 0.931 . S
C109 C106 1.357 . S
C109 C110 1.312 . S
C110 H81 0.930 1_565 S
C110 C105 1.261 . S
C110 C109 1.312 . S
C111 O83 1.214 . S
C111 O91 1.234 . S
C112 H84 0.929 . S
C112 C115 1.391 . S
C112 C117 1.391 . S
C113 H85 0.929 . S
C113 C114 1.390 . S
C113 N116 1.391 . S
C114 H86 0.930 . S
C114 C113 1.390 . S
C114 C115 1.392 . S
C115 H87 0.929 . S
C115 C112 1.391 . S
C115 C114 1.392 . S
N116 Co60 2.257 . S
N116 C113 1.391 . S
N116 C117 1.388 . S
C117 H88 0.930 . S
C117 C112 1.391 . S
C117 N116 1.388 . S
Co118 O120 2.143 . S
Co118 O126 2.074 . S
Co118 O129 2.093 . S
Co118 O142 2.097 . S
Co118 N159 2.151 . S
Co118 N167 2.214 . S
Co119 O120 2.160 . S
Co119 O125 2.058 . S
Co119 O135 2.057 . S
Co119 O150 2.037 . S
Co119 N154 2.145 . S
Co119 N175 2.257 . S
O120 Co118 2.143 . S
O120 Co119 2.160 . S
C121 O122 1.278 . S
C121 O129 1.224 . S
O122 C121 1.278 . S
C123 O124 1.245 . S
C123 O135 1.232 . S
O124 C123 1.245 . S
O125 Co119 2.058 . S
O125 C151 1.269 . S
O126 Co118 2.074 . S
O126 C151 1.257 . S
H127 C152 0.930 . S
H128 C158 0.930 . S
O129 Co118 2.093 . S
O129 C121 1.224 . S
H130 C162 0.929 . S
H131 C164 0.930 . S
H132 C165 0.930 . S
H133 C163 0.929 . S
H134 C166 0.928 . S
O135 Co119 2.057 . S
O135 C123 1.232 . S
H136 C155 0.929 . S
H137 C156 0.929 . S
H138 C168 0.931 . S
H139 C160 0.929 . S
H140 C169 0.930 1_455 S
H141 C161 0.931 . S
O142 Co118 2.097 . S
O142 C170 1.214 . S
H143 C171 0.929 . S
H144 C172 0.929 . S
H145 C173 0.930 . S
H146 C174 0.929 . S
H147 C176 0.930 . S
H148 C153 0.930 . S
H149 C157 0.930 . S
O150 Co119 2.037 . S
O150 C170 1.234 . S
C151 O125 1.269 . S
C151 O126 1.257 . S
C152 H127 0.930 . S
C152 C155 1.388 . S
C152 C157 1.418 . S
C153 H148 0.930 . S
C153 C156 1.404 . S
C153 C157 1.353 . S
N154 Co119 2.145 . S
N154 C155 1.397 . S
N154 C156 1.334 . S
C155 H136 0.929 . S
C155 C152 1.388 . S
C155 N154 1.397 . S
C156 H137 0.929 . S
C156 C153 1.404 . S
C156 N154 1.334 . S
C157 H149 0.930 . S
C157 C152 1.418 . S
C157 C153 1.353 . S
C158 H128 0.930 . S
C158 N159 1.330 . S
C158 C160 1.446 . S
N159 Co118 2.151 . S
N159 C158 1.330 . S
N159 C163 1.418 . S
C160 H139 0.929 . S
C160 C158 1.446 . S
C160 C161 1.332 . S
C161 H141 0.931 . S
C161 C160 1.332 . S
C161 C162 1.267 . S
C162 H130 0.929 . S
C162 C161 1.267 . S
C162 C163 1.251 . S
C163 H133 0.929 . S
C163 N159 1.418 . S
C163 C162 1.251 . S
C164 H131 0.930 . S
C164 C166 1.406 . S
C164 C169 1.261 . S
C165 H132 0.930 . S
C165 N167 1.325 . S
C165 C168 1.357 . S
C166 H134 0.928 . S
C166 C164 1.406 . S
C166 N167 1.261 . S
N167 Co118 2.214 . S
N167 C165 1.325 . S
N167 C166 1.261 . S
C168 H138 0.931 . S
C168 C165 1.357 . S
C168 C169 1.312 . S
C169 H140 0.930 1_655 S
C169 C164 1.261 . S
C169 C168 1.312 . S
C170 O142 1.214 . S
C170 O150 1.234 . S
C171 H143 0.929 . S
C171 C174 1.391 . S
C171 C176 1.391 . S
C172 H144 0.929 . S
C172 C173 1.390 . S
C172 N175 1.391 . S
C173 H145 0.930 . S
C173 C172 1.390 . S
C173 C174 1.392 . S
C174 H146 0.929 . S
C174 C171 1.391 . S
C174 C173 1.392 . S
N175 Co119 2.257 . S
N175 C172 1.391 . S
N175 C176 1.388 . S
C176 H147 0.930 . S
C176 C171 1.391 . S
C176 N175 1.388 . S
Co177 O179 2.143 . S
Co177 O185 2.074 . S
Co177 O188 2.093 . S
Co177 O201 2.097 . S
Co177 N218 2.151 . S
Co177 N226 2.214 . S
Co178 O179 2.160 . S
Co178 O184 2.058 . S
Co178 O194 2.057 . S
Co178 O209 2.037 . S
Co178 N213 2.145 . S
Co178 N234 2.257 . S
O179 Co177 2.143 . S
O179 Co178 2.160 . S
C180 O181 1.278 . S
C180 O188 1.224 . S
O181 C180 1.278 . S
C182 O183 1.245 . S
C182 O194 1.232 . S
O183 C182 1.245 . S
O184 Co178 2.058 . S
O184 C210 1.269 . S
O185 Co177 2.074 . S
O185 C210 1.257 . S
H186 C211 0.930 . S
H187 C217 0.930 . S
O188 Co177 2.093 . S
O188 C180 1.224 . S
H189 C221 0.929 . S
H190 C223 0.930 . S
H191 C224 0.930 . S
H192 C222 0.929 . S
H193 C225 0.928 . S
O194 Co178 2.057 . S
O194 C182 1.232 . S
H195 C214 0.929 . S
H196 C215 0.929 . S
H197 C227 0.931 . S
H198 C219 0.929 . S
H199 C228 0.930 1_565 S
H200 C220 0.931 . S
O201 Co177 2.097 . S
O201 C229 1.214 . S
H202 C230 0.929 . S
H203 C231 0.929 . S
H204 C232 0.930 . S
H205 C233 0.929 . S
H206 C235 0.930 . S
H207 C212 0.930 . S
H208 C216 0.930 . S
O209 Co178 2.037 . S
O209 C229 1.234 . S
C210 O184 1.269 . S
C210 O185 1.257 . S
C211 H186 0.930 . S
C211 C214 1.388 . S
C211 C216 1.418 . S
C212 H207 0.930 . S
C212 C215 1.404 . S
C212 C216 1.353 . S
N213 Co178 2.145 . S
N213 C214 1.397 . S
N213 C215 1.334 . S
C214 H195 0.929 . S
C214 C211 1.388 . S
C214 N213 1.397 . S
C215 H196 0.929 . S
C215 C212 1.404 . S
C215 N213 1.334 . S
C216 H208 0.930 . S
C216 C211 1.418 . S
C216 C212 1.353 . S
C217 H187 0.930 . S
C217 N218 1.330 . S
C217 C219 1.446 . S
N218 Co177 2.151 . S
N218 C217 1.330 . S
N218 C222 1.418 . S
C219 H198 0.929 . S
C219 C217 1.446 . S
C219 C220 1.332 . S
C220 H200 0.931 . S
C220 C219 1.332 . S
C220 C221 1.267 . S
C221 H189 0.929 . S
C221 C220 1.267 . S
C221 C222 1.251 . S
C222 H192 0.929 . S
C222 N218 1.418 . S
C222 C221 1.251 . S
C223 H190 0.930 . S
C223 C225 1.406 . S
C223 C228 1.261 . S
C224 H191 0.930 . S
C224 N226 1.325 . S
C224 C227 1.357 . S
C225 H193 0.928 . S
C225 C223 1.406 . S
C225 N226 1.261 . S
N226 Co177 2.214 . S
N226 C224 1.325 . S
N226 C225 1.261 . S
C227 H197 0.931 . S
C227 C224 1.357 . S
C227 C228 1.312 . S
C228 H199 0.930 1_545 S
C228 C223 1.261 . S
C228 C227 1.312 . S
C229 O201 1.214 . S
C229 O209 1.234 . S
C230 H202 0.929 . S
C230 C233 1.391 . S
C230 C235 1.391 . S
C231 H203 0.929 . S
C231 C232 1.390 . S
C231 N234 1.391 . S
C232 H204 0.930 . S
C232 C231 1.390 . S
C232 C233 1.392 . S
C233 H205 0.929 . S
C233 C230 1.391 . S
C233 C232 1.392 . S
N234 Co178 2.257 . S
N234 C231 1.391 . S
N234 C235 1.388 . S
C235 H206 0.930 . S
C235 C230 1.391 . S
C235 N234 1.388 . S
Co236 O238 2.143 . S
Co236 O244 2.074 . S
Co236 O247 2.093 . S
Co236 O260 2.097 . S
Co236 N277 2.151 . S
Co236 N285 2.214 . S
Co237 O238 2.160 . S
Co237 O243 2.058 . S
Co237 O253 2.057 . S
Co237 O268 2.037 . S
Co237 N272 2.145 . S
Co237 N293 2.257 . S
O238 Co236 2.143 . S
O238 Co237 2.160 . S
C239 O240 1.278 . S
C239 O247 1.224 . S
O240 C239 1.278 . S
C241 O242 1.245 . S
C241 O253 1.232 . S
O242 C241 1.245 . S
O243 Co237 2.058 . S
O243 C269 1.269 . S
O244 Co236 2.074 . S
O244 C269 1.257 . S
H245 C270 0.930 . S
H246 C276 0.930 . S
O247 Co236 2.093 . S
O247 C239 1.224 . S
H248 C280 0.929 . S
H249 C282 0.930 . S
H250 C283 0.930 . S
H251 C281 0.929 . S
H252 C284 0.928 . S
O253 Co237 2.057 . S
O253 C241 1.232 . S
H254 C273 0.929 . S
H255 C274 0.929 . S
H256 C286 0.931 . S
H257 C278 0.929 . S
H258 C287 0.930 1_655 S
H259 C279 0.931 . S
O260 Co236 2.097 . S
O260 C288 1.214 . S
H261 C289 0.929 . S
H262 C290 0.929 . S
H263 C291 0.930 . S
H264 C292 0.929 . S
H265 C294 0.930 . S
H266 C271 0.930 . S
H267 C275 0.930 . S
O268 Co237 2.037 . S
O268 C288 1.234 . S
C269 O243 1.269 . S
C269 O244 1.257 . S
C270 H245 0.930 . S
C270 C273 1.388 . S
C270 C275 1.418 . S
C271 H266 0.930 . S
C271 C274 1.404 . S
C271 C275 1.353 . S
N272 Co237 2.145 . S
N272 C273 1.397 . S
N272 C274 1.334 . S
C273 H254 0.929 . S
C273 C270 1.388 . S
C273 N272 1.397 . S
C274 H255 0.929 . S
C274 C271 1.404 . S
C274 N272 1.334 . S
C275 H267 0.930 . S
C275 C270 1.418 . S
C275 C271 1.353 . S
C276 H246 0.930 . S
C276 N277 1.330 . S
C276 C278 1.446 . S
N277 Co236 2.151 . S
N277 C276 1.330 . S
N277 C281 1.418 . S
C278 H257 0.929 . S
C278 C276 1.446 . S
C278 C279 1.332 . S
C279 H259 0.931 . S
C279 C278 1.332 . S
C279 C280 1.267 . S
C280 H248 0.929 . S
C280 C279 1.267 . S
C280 C281 1.251 . S
C281 H251 0.929 . S
C281 N277 1.418 . S
C281 C280 1.251 . S
C282 H249 0.930 . S
C282 C284 1.406 . S
C282 C287 1.261 . S
C283 H250 0.930 . S
C283 N285 1.325 . S
C283 C286 1.357 . S
C284 H252 0.928 . S
C284 C282 1.406 . S
C284 N285 1.261 . S
N285 Co236 2.214 . S
N285 C283 1.325 . S
N285 C284 1.261 . S
C286 H256 0.931 . S
C286 C283 1.357 . S
C286 C287 1.312 . S
C287 H258 0.930 1_455 S
C287 C282 1.261 . S
C287 C286 1.312 . S
C288 O260 1.214 . S
C288 O268 1.234 . S
C289 H261 0.929 . S
C289 C292 1.391 . S
C289 C294 1.391 . S
C290 H262 0.929 . S
C290 C291 1.390 . S
C290 N293 1.391 . S
C291 H263 0.930 . S
C291 C290 1.390 . S
C291 C292 1.392 . S
C292 H264 0.929 . S
C292 C289 1.391 . S
C292 C291 1.392 . S
N293 Co237 2.257 . S
N293 C290 1.391 . S
N293 C294 1.388 . S
C294 H265 0.930 . S
C294 C289 1.391 . S
C294 N293 1.388 . S
Co295 O297 2.143 . S
Co295 O303 2.074 . S
Co295 O306 2.093 . S
Co295 O319 2.097 . S
Co295 N336 2.151 . S
Co295 N344 2.214 . S
Co296 O297 2.160 . S
Co296 O302 2.058 . S
Co296 O312 2.057 . S
Co296 O327 2.037 . S
Co296 N331 2.145 . S
Co296 N352 2.257 . S
O297 Co295 2.143 . S
O297 Co296 2.160 . S
C298 O299 1.278 . S
C298 O306 1.224 . S
O299 C298 1.278 . S
C300 O301 1.245 . S
C300 O312 1.232 . S
O301 C300 1.245 . S
O302 Co296 2.058 . S
O302 C328 1.269 . S
O303 Co295 2.074 . S
O303 C328 1.257 . S
H304 C329 0.930 . S
H305 C335 0.930 . S
O306 Co295 2.093 . S
O306 C298 1.224 . S
H307 C339 0.929 . S
H308 C341 0.930 . S
H309 C342 0.930 . S
H310 C340 0.929 . S
H311 C343 0.928 . S
O312 Co296 2.057 . S
O312 C300 1.232 . S
H313 C332 0.929 . S
H314 C333 0.929 . S
H315 C345 0.931 . S
H316 C337 0.929 . S
H317 C346 0.930 1_545 S
H318 C338 0.931 . S
O319 Co295 2.097 . S
O319 C347 1.214 . S
H320 C348 0.929 . S
H321 C349 0.929 . S
H322 C350 0.930 . S
H323 C351 0.929 . S
H324 C353 0.930 . S
H325 C330 0.930 . S
H326 C334 0.930 . S
O327 Co296 2.037 . S
O327 C347 1.234 . S
C328 O302 1.269 . S
C328 O303 1.257 . S
C329 H304 0.930 . S
C329 C332 1.388 . S
C329 C334 1.418 . S
C330 H325 0.930 . S
C330 C333 1.404 . S
C330 C334 1.353 . S
N331 Co296 2.145 . S
N331 C332 1.397 . S
N331 C333 1.334 . S
C332 H313 0.929 . S
C332 C329 1.388 . S
C332 N331 1.397 . S
C333 H314 0.929 . S
C333 C330 1.404 . S
C333 N331 1.334 . S
C334 H326 0.930 . S
C334 C329 1.418 . S
C334 C330 1.353 . S
C335 H305 0.930 . S
C335 N336 1.330 . S
C335 C337 1.446 . S
N336 Co295 2.151 . S
N336 C335 1.330 . S
N336 C340 1.418 . S
C337 H316 0.929 . S
C337 C335 1.446 . S
C337 C338 1.332 . S
C338 H318 0.931 . S
C338 C337 1.332 . S
C338 C339 1.267 . S
C339 H307 0.929 . S
C339 C338 1.267 . S
C339 C340 1.251 . S
C340 H310 0.929 . S
C340 N336 1.418 . S
C340 C339 1.251 . S
C341 H308 0.930 . S
C341 C343 1.406 . S
C341 C346 1.261 . S
C342 H309 0.930 . S
C342 N344 1.325 . S
C342 C345 1.357 . S
C343 H311 0.928 . S
C343 C341 1.406 . S
C343 N344 1.261 . S
N344 Co295 2.214 . S
N344 C342 1.325 . S
N344 C343 1.261 . S
C345 H315 0.931 . S
C345 C342 1.357 . S
C345 C346 1.312 . S
C346 H317 0.930 1_565 S
C346 C341 1.261 . S
C346 C345 1.312 . S
C347 O319 1.214 . S
C347 O327 1.234 . S
C348 H320 0.929 . S
C348 C351 1.391 . S
C348 C353 1.391 . S
C349 H321 0.929 . S
C349 C350 1.390 . S
C349 N352 1.391 . S
C350 H322 0.930 . S
C350 C349 1.390 . S
C350 C351 1.392 . S
C351 H323 0.929 . S
C351 C348 1.391 . S
C351 C350 1.392 . S
N352 Co296 2.257 . S
N352 C349 1.391 . S
N352 C353 1.388 . S
C353 H324 0.930 . S
C353 C348 1.391 . S
C353 N352 1.388 . S
Co354 O356 2.143 . S
Co354 O362 2.074 . S
Co354 O365 2.093 . S
Co354 O378 2.097 . S
Co354 N395 2.151 . S
Co354 N403 2.214 . S
Co355 O356 2.160 . S
Co355 O361 2.058 . S
Co355 O371 2.057 . S
Co355 O386 2.037 . S
Co355 N390 2.145 . S
Co355 N411 2.257 . S
O356 Co354 2.143 . S
O356 Co355 2.160 . S
C357 O358 1.278 . S
C357 O365 1.224 . S
O358 C357 1.278 . S
C359 O360 1.245 . S
C359 O371 1.232 . S
O360 C359 1.245 . S
O361 Co355 2.058 . S
O361 C387 1.269 . S
O362 Co354 2.074 . S
O362 C387 1.257 . S
H363 C388 0.930 . S
H364 C394 0.930 . S
O365 Co354 2.093 . S
O365 C357 1.224 . S
H366 C398 0.929 . S
H367 C400 0.930 . S
H368 C401 0.930 . S
H369 C399 0.929 . S
H370 C402 0.928 . S
O371 Co355 2.057 . S
O371 C359 1.232 . S
H372 C391 0.929 . S
H373 C392 0.929 . S
H374 C404 0.931 . S
H375 C396 0.929 . S
H376 C405 0.930 1_455 S
H377 C397 0.931 . S
O378 Co354 2.097 . S
O378 C406 1.214 . S
H379 C407 0.929 . S
H380 C408 0.929 . S
H381 C409 0.930 . S
H382 C410 0.929 . S
H383 C412 0.930 . S
H384 C389 0.930 . S
H385 C393 0.930 . S
O386 Co355 2.037 . S
O386 C406 1.234 . S
C387 O361 1.269 . S
C387 O362 1.257 . S
C388 H363 0.930 . S
C388 C391 1.388 . S
C388 C393 1.418 . S
C389 H384 0.930 . S
C389 C392 1.404 . S
C389 C393 1.353 . S
N390 Co355 2.145 . S
N390 C391 1.397 . S
N390 C392 1.334 . S
C391 H372 0.929 . S
C391 C388 1.388 . S
C391 N390 1.397 . S
C392 H373 0.929 . S
C392 C389 1.404 . S
C392 N390 1.334 . S
C393 H385 0.930 . S
C393 C388 1.418 . S
C393 C389 1.353 . S
C394 H364 0.930 . S
C394 N395 1.330 . S
C394 C396 1.446 . S
N395 Co354 2.151 . S
N395 C394 1.330 . S
N395 C399 1.418 . S
C396 H375 0.929 . S
C396 C394 1.446 . S
C396 C397 1.332 . S
C397 H377 0.931 . S
C397 C396 1.332 . S
C397 C398 1.267 . S
C398 H366 0.929 . S
C398 C397 1.267 . S
C398 C399 1.251 . S
C399 H369 0.929 . S
C399 N395 1.418 . S
C399 C398 1.251 . S
C400 H367 0.930 . S
C400 C402 1.406 . S
C400 C405 1.261 . S
C401 H368 0.930 . S
C401 N403 1.325 . S
C401 C404 1.357 . S
C402 H370 0.928 . S
C402 C400 1.406 . S
C402 N403 1.261 . S
N403 Co354 2.214 . S
N403 C401 1.325 . S
N403 C402 1.261 . S
C404 H374 0.931 . S
C404 C401 1.357 . S
C404 C405 1.312 . S
C405 H376 0.930 1_655 S
C405 C400 1.261 . S
C405 C404 1.312 . S
C406 O378 1.214 . S
C406 O386 1.234 . S
C407 H379 0.929 . S
C407 C410 1.391 . S
C407 C412 1.391 . S
C408 H380 0.929 . S
C408 C409 1.390 . S
C408 N411 1.391 . S
C409 H381 0.930 . S
C409 C408 1.390 . S
C409 C410 1.392 . S
C410 H382 0.929 . S
C410 C407 1.391 . S
C410 C409 1.392 . S
N411 Co355 2.257 . S
N411 C408 1.391 . S
N411 C412 1.388 . S
C412 H383 0.930 . S
C412 C407 1.391 . S
C412 N411 1.388 . S
Co413 O415 2.143 . S
Co413 O421 2.074 . S
Co413 O424 2.093 . S
Co413 O437 2.097 . S
Co413 N454 2.151 . S
Co413 N462 2.214 . S
Co414 O415 2.160 . S
Co414 O420 2.058 . S
Co414 O430 2.057 . S
Co414 O445 2.037 . S
Co414 N449 2.145 . S
Co414 N470 2.257 . S
O415 Co413 2.143 . S
O415 Co414 2.160 . S
C416 O417 1.278 . S
C416 O424 1.224 . S
O417 C416 1.278 . S
C418 O419 1.245 . S
C418 O430 1.232 . S
O419 C418 1.245 . S
O420 Co414 2.058 . S
O420 C446 1.269 . S
O421 Co413 2.074 . S
O421 C446 1.257 . S
H422 C447 0.930 . S
H423 C453 0.930 . S
O424 Co413 2.093 . S
O424 C416 1.224 . S
H425 C457 0.929 . S
H426 C459 0.930 . S
H427 C460 0.930 . S
H428 C458 0.929 . S
H429 C461 0.928 . S
O430 Co414 2.057 . S
O430 C418 1.232 . S
H431 C450 0.929 . S
H432 C451 0.929 . S
H433 C463 0.931 . S
H434 C455 0.929 . S
H435 C464 0.930 1_565 S
H436 C456 0.931 . S
O437 Co413 2.097 . S
O437 C465 1.214 . S
H438 C466 0.929 . S
H439 C467 0.929 . S
H440 C468 0.930 . S
H441 C469 0.929 . S
H442 C471 0.930 . S
H443 C448 0.930 . S
H444 C452 0.930 . S
O445 Co414 2.037 . S
O445 C465 1.234 . S
C446 O420 1.269 . S
C446 O421 1.257 . S
C447 H422 0.930 . S
C447 C450 1.388 . S
C447 C452 1.418 . S
C448 H443 0.930 . S
C448 C451 1.404 . S
C448 C452 1.353 . S
N449 Co414 2.145 . S
N449 C450 1.397 . S
N449 C451 1.334 . S
C450 H431 0.929 . S
C450 C447 1.388 . S
C450 N449 1.397 . S
C451 H432 0.929 . S
C451 C448 1.404 . S
C451 N449 1.334 . S
C452 H444 0.930 . S
C452 C447 1.418 . S
C452 C448 1.353 . S
C453 H423 0.930 . S
C453 N454 1.330 . S
C453 C455 1.446 . S
N454 Co413 2.151 . S
N454 C453 1.330 . S
N454 C458 1.418 . S
C455 H434 0.929 . S
C455 C453 1.446 . S
C455 C456 1.332 . S
C456 H436 0.931 . S
C456 C455 1.332 . S
C456 C457 1.267 . S
C457 H425 0.929 . S
C457 C456 1.267 . S
C457 C458 1.251 . S
C458 H428 0.929 . S
C458 N454 1.418 . S
C458 C457 1.251 . S
C459 H426 0.930 . S
C459 C461 1.406 . S
C459 C464 1.261 . S
C460 H427 0.930 . S
C460 N462 1.325 . S
C460 C463 1.357 . S
C461 H429 0.928 . S
C461 C459 1.406 . S
C461 N462 1.261 . S
N462 Co413 2.214 . S
N462 C460 1.325 . S
N462 C461 1.261 . S
C463 H433 0.931 . S
C463 C460 1.357 . S
C463 C464 1.312 . S
C464 H435 0.930 1_545 S
C464 C459 1.261 . S
C464 C463 1.312 . S
C465 O437 1.214 . S
C465 O445 1.234 . S
C466 H438 0.929 . S
C466 C469 1.391 . S
C466 C471 1.391 . S
C467 H439 0.929 . S
C467 C468 1.390 . S
C467 N470 1.391 . S
C468 H440 0.930 . S
C468 C467 1.390 . S
C468 C469 1.392 . S
C469 H441 0.929 . S
C469 C466 1.391 . S
C469 C468 1.392 . S
N470 Co414 2.257 . S
N470 C467 1.391 . S
N470 C471 1.388 . S
C471 H442 0.930 . S
C471 C466 1.391 . S
C471 N470 1.388 . S
Co472 O474 2.143 . S
Co472 O480 2.074 . S
Co472 O483 2.093 . S
Co472 O496 2.097 1_565 S
Co472 N513 2.151 . S
Co472 N521 2.214 . S
Co473 O474 2.160 . S
Co473 O479 2.058 . S
Co473 O489 2.057 . S
Co473 O504 2.037 . S
Co473 N508 2.145 . S
Co473 N529 2.257 . S
O474 Co472 2.143 . S
O474 Co473 2.160 . S
C475 O476 1.278 . S
C475 O483 1.224 . S
O476 C475 1.278 . S
C477 O478 1.245 . S
C477 O489 1.232 . S
O478 C477 1.245 . S
O479 Co473 2.058 . S
O479 C505 1.269 . S
O480 Co472 2.074 . S
O480 C505 1.257 . S
H481 C506 0.930 . S
H482 C512 0.930 . S
O483 Co472 2.093 . S
O483 C475 1.224 . S
H484 C516 0.929 . S
H485 C518 0.930 . S
H486 C519 0.930 . S
H487 C517 0.929 . S
H488 C520 0.928 . S
O489 Co473 2.057 . S
O489 C477 1.232 . S
H490 C509 0.929 . S
H491 C510 0.929 . S
H492 C522 0.928 1_545 S
H493 C514 0.929 . S
H494 C523 0.932 . S
H495 C515 0.931 . S
O496 Co472 2.097 1_545 S
O496 C524 1.214 . S
H497 C525 0.929 . S
H498 C526 0.929 . S
H499 C527 0.930 . S
H500 C528 0.929 . S
H501 C530 0.930 . S
H502 C507 0.930 . S
H503 C511 0.930 . S
O504 Co473 2.037 . S
O504 C524 1.234 1_565 S
C505 O479 1.269 . S
C505 O480 1.257 . S
C506 H481 0.930 . S
C506 C509 1.388 . S
C506 C511 1.418 . S
C507 H502 0.930 . S
C507 C510 1.404 . S
C507 C511 1.353 . S
N508 Co473 2.145 . S
N508 C509 1.397 . S
N508 C510 1.334 . S
C509 H490 0.929 . S
C509 C506 1.388 . S
C509 N508 1.397 . S
C510 H491 0.929 . S
C510 C507 1.404 . S
C510 N508 1.334 . S
C511 H503 0.930 . S
C511 C506 1.418 . S
C511 C507 1.353 . S
C512 H482 0.930 . S
C512 N513 1.330 . S
C512 C514 1.446 . S
N513 Co472 2.151 . S
N513 C512 1.330 . S
N513 C517 1.418 . S
C514 H493 0.929 . S
C514 C512 1.446 . S
C514 C515 1.332 . S
C515 H495 0.931 . S
C515 C514 1.332 . S
C515 C516 1.267 . S
C516 H484 0.929 . S
C516 C515 1.267 . S
C516 C517 1.251 . S
C517 H487 0.929 . S
C517 N513 1.418 . S
C517 C516 1.251 . S
C518 H485 0.930 . S
C518 C520 1.406 . S
C518 C523 1.259 1_565 S
C519 H486 0.930 . S
C519 N521 1.325 . S
C519 C522 1.360 . S
C520 H488 0.928 . S
C520 C518 1.406 . S
C520 N521 1.261 . S
N521 Co472 2.214 . S
N521 C519 1.325 . S
N521 C520 1.261 . S
C522 H492 0.928 1_565 S
C522 C519 1.360 . S
C522 C523 1.312 1_565 S
C523 H494 0.932 . S
C523 C518 1.259 1_545 S
C523 C522 1.312 1_545 S
C524 O496 1.214 . S
C524 O504 1.234 1_545 S
C525 H497 0.929 . S
C525 C528 1.391 1_565 S
C525 C530 1.391 . S
C526 H498 0.929 . S
C526 C527 1.390 . S
C526 N529 1.391 1_545 S
C527 H499 0.930 . S
C527 C526 1.390 . S
C527 C528 1.392 . S
C528 H500 0.929 . S
C528 C525 1.391 1_545 S
C528 C527 1.392 . S
N529 Co473 2.257 . S
N529 C526 1.391 1_565 S
N529 C530 1.388 . S
C530 H501 0.930 . S
C530 C525 1.391 . S
C530 N529 1.388 . S
Co531 O533 2.143 . S
Co531 O539 2.074 . S
Co531 O542 2.093 . S
Co531 O555 2.097 1_655 S
Co531 N572 2.151 . S
Co531 N580 2.214 . S
Co532 O533 2.160 . S
Co532 O538 2.058 . S
Co532 O548 2.057 . S
Co532 O563 2.037 . S
Co532 N567 2.145 . S
Co532 N588 2.257 . S
O533 Co531 2.143 . S
O533 Co532 2.160 . S
C534 O535 1.278 . S
C534 O542 1.224 . S
O535 C534 1.278 . S
C536 O537 1.245 . S
C536 O548 1.232 . S
O537 C536 1.245 . S
O538 Co532 2.058 . S
O538 C564 1.269 . S
O539 Co531 2.074 . S
O539 C564 1.257 . S
H540 C565 0.930 . S
H541 C571 0.930 . S
O542 Co531 2.093 . S
O542 C534 1.224 . S
H543 C575 0.929 . S
H544 C577 0.930 . S
H545 C578 0.930 . S
H546 C576 0.929 . S
H547 C579 0.928 . S
O548 Co532 2.057 . S
O548 C536 1.232 . S
H549 C568 0.929 . S
H550 C569 0.929 . S
H551 C581 0.928 1_455 S
H552 C573 0.929 . S
H553 C582 0.932 . S
H554 C574 0.931 . S
O555 Co531 2.097 1_455 S
O555 C583 1.214 . S
H556 C584 0.929 . S
H557 C585 0.929 . S
H558 C586 0.930 . S
H559 C587 0.929 . S
H560 C589 0.930 . S
H561 C566 0.930 . S
H562 C570 0.930 . S
O563 Co532 2.037 . S
O563 C583 1.234 1_655 S
C564 O538 1.269 . S
C564 O539 1.257 . S
C565 H540 0.930 . S
C565 C568 1.388 . S
C565 C570 1.418 . S
C566 H561 0.930 . S
C566 C569 1.404 . S
C566 C570 1.353 . S
N567 Co532 2.145 . S
N567 C568 1.397 . S
N567 C569 1.334 . S
C568 H549 0.929 . S
C568 C565 1.388 . S
C568 N567 1.397 . S
C569 H550 0.929 . S
C569 C566 1.404 . S
C569 N567 1.334 . S
C570 H562 0.930 . S
C570 C565 1.418 . S
C570 C566 1.353 . S
C571 H541 0.930 . S
C571 N572 1.330 . S
C571 C573 1.446 . S
N572 Co531 2.151 . S
N572 C571 1.330 . S
N572 C576 1.418 . S
C573 H552 0.929 . S
C573 C571 1.446 . S
C573 C574 1.332 . S
C574 H554 0.931 . S
C574 C573 1.332 . S
C574 C575 1.267 . S
C575 H543 0.929 . S
C575 C574 1.267 . S
C575 C576 1.251 . S
C576 H546 0.929 . S
C576 N572 1.418 . S
C576 C575 1.251 . S
C577 H544 0.930 . S
C577 C579 1.406 . S
C577 C582 1.259 1_655 S
C578 H545 0.930 . S
C578 N580 1.325 . S
C578 C581 1.360 . S
C579 H547 0.928 . S
C579 C577 1.406 . S
C579 N580 1.261 . S
N580 Co531 2.214 . S
N580 C578 1.325 . S
N580 C579 1.261 . S
C581 H551 0.928 1_655 S
C581 C578 1.360 . S
C581 C582 1.312 1_655 S
C582 H553 0.932 . S
C582 C577 1.259 1_455 S
C582 C581 1.312 1_455 S
C583 O555 1.214 . S
C583 O563 1.234 1_455 S
C584 H556 0.929 . S
C584 C587 1.391 1_655 S
C584 C589 1.391 . S
C585 H557 0.929 . S
C585 C586 1.390 . S
C585 N588 1.391 1_455 S
C586 H558 0.930 . S
C586 C585 1.390 . S
C586 C587 1.392 . S
C587 H559 0.929 . S
C587 C584 1.391 1_455 S
C587 C586 1.392 . S
N588 Co532 2.257 . S
N588 C585 1.391 1_655 S
N588 C589 1.388 . S
C589 H560 0.930 . S
C589 C584 1.391 . S
C589 N588 1.388 . S
Co590 O592 2.143 . S
Co590 O598 2.074 . S
Co590 O601 2.093 . S
Co590 O614 2.097 1_545 S
Co590 N631 2.151 . S
Co590 N639 2.214 . S
Co591 O592 2.160 . S
Co591 O597 2.058 . S
Co591 O607 2.057 . S
Co591 O622 2.037 . S
Co591 N626 2.145 . S
Co591 N647 2.257 . S
O592 Co590 2.143 . S
O592 Co591 2.160 . S
C593 O594 1.278 . S
C593 O601 1.224 . S
O594 C593 1.278 . S
C595 O596 1.245 . S
C595 O607 1.232 . S
O596 C595 1.245 . S
O597 Co591 2.058 . S
O597 C623 1.269 . S
O598 Co590 2.074 . S
O598 C623 1.257 . S
H599 C624 0.930 . S
H600 C630 0.930 . S
O601 Co590 2.093 . S
O601 C593 1.224 . S
H602 C634 0.929 . S
H603 C636 0.930 . S
H604 C637 0.930 . S
H605 C635 0.929 . S
H606 C638 0.928 . S
O607 Co591 2.057 . S
O607 C595 1.232 . S
H608 C627 0.929 . S
H609 C628 0.929 . S
H610 C640 0.928 1_565 S
H611 C632 0.929 . S
H612 C641 0.932 . S
H613 C633 0.931 . S
O614 Co590 2.097 1_565 S
O614 C642 1.214 . S
H615 C643 0.929 . S
H616 C644 0.929 . S
H617 C645 0.930 . S
H618 C646 0.929 . S
H619 C648 0.930 . S
H620 C625 0.930 . S
H621 C629 0.930 . S
O622 Co591 2.037 . S
O622 C642 1.234 1_545 S
C623 O597 1.269 . S
C623 O598 1.257 . S
C624 H599 0.930 . S
C624 C627 1.388 . S
C624 C629 1.418 . S
C625 H620 0.930 . S
C625 C628 1.404 . S
C625 C629 1.353 . S
N626 Co591 2.145 . S
N626 C627 1.397 . S
N626 C628 1.334 . S
C627 H608 0.929 . S
C627 C624 1.388 . S
C627 N626 1.397 . S
C628 H609 0.929 . S
C628 C625 1.404 . S
C628 N626 1.334 . S
C629 H621 0.930 . S
C629 C624 1.418 . S
C629 C625 1.353 . S
C630 H600 0.930 . S
C630 N631 1.330 . S
C630 C632 1.446 . S
N631 Co590 2.151 . S
N631 C630 1.330 . S
N631 C635 1.418 . S
C632 H611 0.929 . S
C632 C630 1.446 . S
C632 C633 1.332 . S
C633 H613 0.931 . S
C633 C632 1.332 . S
C633 C634 1.267 . S
C634 H602 0.929 . S
C634 C633 1.267 . S
C634 C635 1.251 . S
C635 H605 0.929 . S
C635 N631 1.418 . S
C635 C634 1.251 . S
C636 H603 0.930 . S
C636 C638 1.406 . S
C636 C641 1.259 1_545 S
C637 H604 0.930 . S
C637 N639 1.325 . S
C637 C640 1.360 . S
C638 H606 0.928 . S
C638 C636 1.406 . S
C638 N639 1.261 . S
N639 Co590 2.214 . S
N639 C637 1.325 . S
N639 C638 1.261 . S
C640 H610 0.928 1_545 S
C640 C637 1.360 . S
C640 C641 1.312 1_545 S
C641 H612 0.932 . S
C641 C636 1.259 1_565 S
C641 C640 1.312 1_565 S
C642 O614 1.214 . S
C642 O622 1.234 1_565 S
C643 H615 0.929 . S
C643 C646 1.391 1_545 S
C643 C648 1.391 . S
C644 H616 0.929 . S
C644 C645 1.390 . S
C644 N647 1.391 1_565 S
C645 H617 0.930 . S
C645 C644 1.390 . S
C645 C646 1.392 . S
C646 H618 0.929 . S
C646 C643 1.391 1_565 S
C646 C645 1.392 . S
N647 Co591 2.257 . S
N647 C644 1.391 1_545 S
N647 C648 1.388 . S
C648 H619 0.930 . S
C648 C643 1.391 . S
C648 N647 1.388 . S
Co649 O651 2.143 . S
Co649 O657 2.074 . S
Co649 O660 2.093 . S
Co649 O673 2.097 1_455 S
Co649 N690 2.151 . S
Co649 N698 2.214 . S
Co650 O651 2.160 . S
Co650 O656 2.058 . S
Co650 O666 2.057 . S
Co650 O681 2.037 . S
Co650 N685 2.145 . S
Co650 N706 2.257 . S
O651 Co649 2.143 . S
O651 Co650 2.160 . S
C652 O653 1.278 . S
C652 O660 1.224 . S
O653 C652 1.278 . S
C654 O655 1.245 . S
C654 O666 1.232 . S
O655 C654 1.245 . S
O656 Co650 2.058 . S
O656 C682 1.269 . S
O657 Co649 2.074 . S
O657 C682 1.257 . S
H658 C683 0.930 . S
H659 C689 0.930 . S
O660 Co649 2.093 . S
O660 C652 1.224 . S
H661 C693 0.929 . S
H662 C695 0.930 . S
H663 C696 0.930 . S
H664 C694 0.929 . S
H665 C697 0.928 . S
O666 Co650 2.057 . S
O666 C654 1.232 . S
H667 C686 0.929 . S
H668 C687 0.929 . S
H669 C699 0.928 1_655 S
H670 C691 0.929 . S
H671 C700 0.932 . S
H672 C692 0.931 . S
O673 Co649 2.097 1_655 S
O673 C701 1.214 . S
H674 C702 0.929 . S
H675 C703 0.929 . S
H676 C704 0.930 . S
H677 C705 0.929 . S
H678 C707 0.930 . S
H679 C684 0.930 . S
H680 C688 0.930 . S
O681 Co650 2.037 . S
O681 C701 1.234 1_455 S
C682 O656 1.269 . S
C682 O657 1.257 . S
C683 H658 0.930 . S
C683 C686 1.388 . S
C683 C688 1.418 . S
C684 H679 0.930 . S
C684 C687 1.404 . S
C684 C688 1.353 . S
N685 Co650 2.145 . S
N685 C686 1.397 . S
N685 C687 1.334 . S
C686 H667 0.929 . S
C686 C683 1.388 . S
C686 N685 1.397 . S
C687 H668 0.929 . S
C687 C684 1.404 . S
C687 N685 1.334 . S
C688 H680 0.930 . S
C688 C683 1.418 . S
C688 C684 1.353 . S
C689 H659 0.930 . S
C689 N690 1.330 . S
C689 C691 1.446 . S
N690 Co649 2.151 . S
N690 C689 1.330 . S
N690 C694 1.418 . S
C691 H670 0.929 . S
C691 C689 1.446 . S
C691 C692 1.332 . S
C692 H672 0.931 . S
C692 C691 1.332 . S
C692 C693 1.267 . S
C693 H661 0.929 . S
C693 C692 1.267 . S
C693 C694 1.251 . S
C694 H664 0.929 . S
C694 N690 1.418 . S
C694 C693 1.251 . S
C695 H662 0.930 . S
C695 C697 1.406 . S
C695 C700 1.259 1_455 S
C696 H663 0.930 . S
C696 N698 1.325 . S
C696 C699 1.360 . S
C697 H665 0.928 . S
C697 C695 1.406 . S
C697 N698 1.261 . S
N698 Co649 2.214 . S
N698 C696 1.325 . S
N698 C697 1.261 . S
C699 H669 0.928 1_455 S
C699 C696 1.360 . S
C699 C700 1.312 1_455 S
C700 H671 0.932 . S
C700 C695 1.259 1_655 S
C700 C699 1.312 1_655 S
C701 O673 1.214 . S
C701 O681 1.234 1_655 S
C702 H674 0.929 . S
C702 C705 1.391 1_455 S
C702 C707 1.391 . S
C703 H675 0.929 . S
C703 C704 1.390 . S
C703 N706 1.391 1_655 S
C704 H676 0.930 . S
C704 C703 1.390 . S
C704 C705 1.392 . S
C705 H677 0.929 . S
C705 C702 1.391 1_655 S
C705 C704 1.392 . S
N706 Co650 2.257 . S
N706 C703 1.391 1_455 S
N706 C707 1.388 . S
C707 H678 0.930 . S
C707 C702 1.391 . S
C707 N706 1.388 . S
Co708 O710 2.143 . S
Co708 O716 2.074 . S
Co708 O719 2.093 . S
Co708 O732 2.097 1_545 S
Co708 N749 2.151 . S
Co708 N757 2.214 . S
Co709 O710 2.160 . S
Co709 O715 2.058 . S
Co709 O725 2.057 . S
Co709 O740 2.037 . S
Co709 N744 2.145 . S
Co709 N765 2.257 . S
O710 Co708 2.143 . S
O710 Co709 2.160 . S
C711 O712 1.278 . S
C711 O719 1.224 . S
O712 C711 1.278 . S
C713 O714 1.245 . S
C713 O725 1.232 . S
O714 C713 1.245 . S
O715 Co709 2.058 . S
O715 C741 1.269 . S
O716 Co708 2.074 . S
O716 C741 1.257 . S
H717 C742 0.930 . S
H718 C748 0.930 . S
O719 Co708 2.093 . S
O719 C711 1.224 . S
H720 C752 0.929 . S
H721 C754 0.930 . S
H722 C755 0.930 . S
H723 C753 0.929 . S
H724 C756 0.928 . S
O725 Co709 2.057 . S
O725 C713 1.232 . S
H726 C745 0.929 . S
H727 C746 0.929 . S
H728 C758 0.928 1_565 S
H729 C750 0.929 . S
H730 C759 0.932 . S
H731 C751 0.931 . S
O732 Co708 2.097 1_565 S
O732 C760 1.214 . S
H733 C761 0.929 . S
H734 C762 0.929 . S
H735 C763 0.930 . S
H736 C764 0.929 . S
H737 C766 0.930 . S
H738 C743 0.930 . S
H739 C747 0.930 . S
O740 Co709 2.037 . S
O740 C760 1.234 1_545 S
C741 O715 1.269 . S
C741 O716 1.257 . S
C742 H717 0.930 . S
C742 C745 1.388 . S
C742 C747 1.418 . S
C743 H738 0.930 . S
C743 C746 1.404 . S
C743 C747 1.353 . S
N744 Co709 2.145 . S
N744 C745 1.397 . S
N744 C746 1.334 . S
C745 H726 0.929 . S
C745 C742 1.388 . S
C745 N744 1.397 . S
C746 H727 0.929 . S
C746 C743 1.404 . S
C746 N744 1.334 . S
C747 H739 0.930 . S
C747 C742 1.418 . S
C747 C743 1.353 . S
C748 H718 0.930 . S
C748 N749 1.330 . S
C748 C750 1.446 . S
N749 Co708 2.151 . S
N749 C748 1.330 . S
N749 C753 1.418 . S
C750 H729 0.929 . S
C750 C748 1.446 . S
C750 C751 1.332 . S
C751 H731 0.931 . S
C751 C750 1.332 . S
C751 C752 1.267 . S
C752 H720 0.929 . S
C752 C751 1.267 . S
C752 C753 1.251 . S
C753 H723 0.929 . S
C753 N749 1.418 . S
C753 C752 1.251 . S
C754 H721 0.930 . S
C754 C756 1.406 . S
C754 C759 1.259 1_545 S
C755 H722 0.930 . S
C755 N757 1.325 . S
C755 C758 1.360 . S
C756 H724 0.928 . S
C756 C754 1.406 . S
C756 N757 1.261 . S
N757 Co708 2.214 . S
N757 C755 1.325 . S
N757 C756 1.261 . S
C758 H728 0.928 1_545 S
C758 C755 1.360 . S
C758 C759 1.312 1_545 S
C759 H730 0.932 . S
C759 C754 1.259 1_565 S
C759 C758 1.312 1_565 S
C760 O732 1.214 . S
C760 O740 1.234 1_565 S
C761 H733 0.929 . S
C761 C764 1.391 1_545 S
C761 C766 1.391 . S
C762 H734 0.929 . S
C762 C763 1.390 . S
C762 N765 1.391 1_565 S
C763 H735 0.930 . S
C763 C762 1.390 . S
C763 C764 1.392 . S
C764 H736 0.929 . S
C764 C761 1.391 1_565 S
C764 C763 1.392 . S
N765 Co709 2.257 . S
N765 C762 1.391 1_545 S
N765 C766 1.388 . S
C766 H737 0.930 . S
C766 C761 1.391 . S
C766 N765 1.388 . S
Co767 O769 2.143 . S
Co767 O775 2.074 . S
Co767 O778 2.093 . S
Co767 O791 2.097 1_455 S
Co767 N808 2.151 . S
Co767 N816 2.214 . S
Co768 O769 2.160 . S
Co768 O774 2.058 . S
Co768 O784 2.057 . S
Co768 O799 2.037 . S
Co768 N803 2.145 . S
Co768 N824 2.257 . S
O769 Co767 2.143 . S
O769 Co768 2.160 . S
C770 O771 1.278 . S
C770 O778 1.224 . S
O771 C770 1.278 . S
C772 O773 1.245 . S
C772 O784 1.232 . S
O773 C772 1.245 . S
O774 Co768 2.058 . S
O774 C800 1.269 . S
O775 Co767 2.074 . S
O775 C800 1.257 . S
H776 C801 0.930 . S
H777 C807 0.930 . S
O778 Co767 2.093 . S
O778 C770 1.224 . S
H779 C811 0.929 . S
H780 C813 0.930 . S
H781 C814 0.930 . S
H782 C812 0.929 . S
H783 C815 0.928 . S
O784 Co768 2.057 . S
O784 C772 1.232 . S
H785 C804 0.929 . S
H786 C805 0.929 . S
H787 C817 0.928 1_655 S
H788 C809 0.929 . S
H789 C818 0.932 . S
H790 C810 0.931 . S
O791 Co767 2.097 1_655 S
O791 C819 1.214 . S
H792 C820 0.929 . S
H793 C821 0.929 . S
H794 C822 0.930 . S
H795 C823 0.929 . S
H796 C825 0.930 . S
H797 C802 0.930 . S
H798 C806 0.930 . S
O799 Co768 2.037 . S
O799 C819 1.234 1_455 S
C800 O774 1.269 . S
C800 O775 1.257 . S
C801 H776 0.930 . S
C801 C804 1.388 . S
C801 C806 1.418 . S
C802 H797 0.930 . S
C802 C805 1.404 . S
C802 C806 1.353 . S
N803 Co768 2.145 . S
N803 C804 1.397 . S
N803 C805 1.334 . S
C804 H785 0.929 . S
C804 C801 1.388 . S
C804 N803 1.397 . S
C805 H786 0.929 . S
C805 C802 1.404 . S
C805 N803 1.334 . S
C806 H798 0.930 . S
C806 C801 1.418 . S
C806 C802 1.353 . S
C807 H777 0.930 . S
C807 N808 1.330 . S
C807 C809 1.446 . S
N808 Co767 2.151 . S
N808 C807 1.330 . S
N808 C812 1.418 . S
C809 H788 0.929 . S
C809 C807 1.446 . S
C809 C810 1.332 . S
C810 H790 0.931 . S
C810 C809 1.332 . S
C810 C811 1.267 . S
C811 H779 0.929 . S
C811 C810 1.267 . S
C811 C812 1.251 . S
C812 H782 0.929 . S
C812 N808 1.418 . S
C812 C811 1.251 . S
C813 H780 0.930 . S
C813 C815 1.406 . S
C813 C818 1.259 1_455 S
C814 H781 0.930 . S
C814 N816 1.325 . S
C814 C817 1.360 . S
C815 H783 0.928 . S
C815 C813 1.406 . S
C815 N816 1.261 . S
N816 Co767 2.214 . S
N816 C814 1.325 . S
N816 C815 1.261 . S
C817 H787 0.928 1_455 S
C817 C814 1.360 . S
C817 C818 1.312 1_455 S
C818 H789 0.932 . S
C818 C813 1.259 1_655 S
C818 C817 1.312 1_655 S
C819 O791 1.214 . S
C819 O799 1.234 1_655 S
C820 H792 0.929 . S
C820 C823 1.391 1_455 S
C820 C825 1.391 . S
C821 H793 0.929 . S
C821 C822 1.390 . S
C821 N824 1.391 1_655 S
C822 H794 0.930 . S
C822 C821 1.390 . S
C822 C823 1.392 . S
C823 H795 0.929 . S
C823 C820 1.391 1_655 S
C823 C822 1.392 . S
N824 Co768 2.257 . S
N824 C821 1.391 1_455 S
N824 C825 1.388 . S
C825 H796 0.930 . S
C825 C820 1.391 . S
C825 N824 1.388 . S
Co826 O828 2.143 . S
Co826 O834 2.074 . S
Co826 O837 2.093 . S
Co826 O850 2.097 1_565 S
Co826 N867 2.151 . S
Co826 N875 2.214 . S
Co827 O828 2.160 . S
Co827 O833 2.058 . S
Co827 O843 2.057 . S
Co827 O858 2.037 . S
Co827 N862 2.145 . S
Co827 N883 2.257 . S
O828 Co826 2.143 . S
O828 Co827 2.160 . S
C829 O830 1.278 . S
C829 O837 1.224 . S
O830 C829 1.278 . S
C831 O832 1.245 . S
C831 O843 1.232 . S
O832 C831 1.245 . S
O833 Co827 2.058 . S
O833 C859 1.269 . S
O834 Co826 2.074 . S
O834 C859 1.257 . S
H835 C860 0.930 . S
H836 C866 0.930 . S
O837 Co826 2.093 . S
O837 C829 1.224 . S
H838 C870 0.929 . S
H839 C872 0.930 . S
H840 C873 0.930 . S
H841 C871 0.929 . S
H842 C874 0.928 . S
O843 Co827 2.057 . S
O843 C831 1.232 . S
H844 C863 0.929 . S
H845 C864 0.929 . S
H846 C876 0.928 1_545 S
H847 C868 0.929 . S
H848 C877 0.932 . S
H849 C869 0.931 . S
O850 Co826 2.097 1_545 S
O850 C878 1.214 . S
H851 C879 0.929 . S
H852 C880 0.929 . S
H853 C881 0.930 . S
H854 C882 0.929 . S
H855 C884 0.930 . S
H856 C861 0.930 . S
H857 C865 0.930 . S
O858 Co827 2.037 . S
O858 C878 1.234 1_565 S
C859 O833 1.269 . S
C859 O834 1.257 . S
C860 H835 0.930 . S
C860 C863 1.388 . S
C860 C865 1.418 . S
C861 H856 0.930 . S
C861 C864 1.404 . S
C861 C865 1.353 . S
N862 Co827 2.145 . S
N862 C863 1.397 . S
N862 C864 1.334 . S
C863 H844 0.929 . S
C863 C860 1.388 . S
C863 N862 1.397 . S
C864 H845 0.929 . S
C864 C861 1.404 . S
C864 N862 1.334 . S
C865 H857 0.930 . S
C865 C860 1.418 . S
C865 C861 1.353 . S
C866 H836 0.930 . S
C866 N867 1.330 . S
C866 C868 1.446 . S
N867 Co826 2.151 . S
N867 C866 1.330 . S
N867 C871 1.418 . S
C868 H847 0.929 . S
C868 C866 1.446 . S
C868 C869 1.332 . S
C869 H849 0.931 . S
C869 C868 1.332 . S
C869 C870 1.267 . S
C870 H838 0.929 . S
C870 C869 1.267 . S
C870 C871 1.251 . S
C871 H841 0.929 . S
C871 N867 1.418 . S
C871 C870 1.251 . S
C872 H839 0.930 . S
C872 C874 1.406 . S
C872 C877 1.259 1_565 S
C873 H840 0.930 . S
C873 N875 1.325 . S
C873 C876 1.360 . S
C874 H842 0.928 . S
C874 C872 1.406 . S
C874 N875 1.261 . S
N875 Co826 2.214 . S
N875 C873 1.325 . S
N875 C874 1.261 . S
C876 H846 0.928 1_565 S
C876 C873 1.360 . S
C876 C877 1.312 1_565 S
C877 H848 0.932 . S
C877 C872 1.259 1_545 S
C877 C876 1.312 1_545 S
C878 O850 1.214 . S
C878 O858 1.234 1_545 S
C879 H851 0.929 . S
C879 C882 1.391 1_565 S
C879 C884 1.391 . S
C880 H852 0.929 . S
C880 C881 1.390 . S
C880 N883 1.391 1_545 S
C881 H853 0.930 . S
C881 C880 1.390 . S
C881 C882 1.392 . S
C882 H854 0.929 . S
C882 C879 1.391 1_545 S
C882 C881 1.392 . S
N883 Co827 2.257 . S
N883 C880 1.391 1_565 S
N883 C884 1.388 . S
C884 H855 0.930 . S
C884 C879 1.391 . S
C884 N883 1.388 . S
Co885 O887 2.143 . S
Co885 O893 2.074 . S
Co885 O896 2.093 . S
Co885 O909 2.097 1_655 S
Co885 N926 2.151 . S
Co885 N934 2.214 . S
Co886 O887 2.160 . S
Co886 O892 2.058 . S
Co886 O902 2.057 . S
Co886 O917 2.037 . S
Co886 N921 2.145 . S
Co886 N942 2.257 . S
O887 Co885 2.143 . S
O887 Co886 2.160 . S
C888 O889 1.278 . S
C888 O896 1.224 . S
O889 C888 1.278 . S
C890 O891 1.245 . S
C890 O902 1.232 . S
O891 C890 1.245 . S
O892 Co886 2.058 . S
O892 C918 1.269 . S
O893 Co885 2.074 . S
O893 C918 1.257 . S
H894 C919 0.930 . S
H895 C925 0.930 . S
O896 Co885 2.093 . S
O896 C888 1.224 . S
H897 C929 0.929 . S
H898 C931 0.930 . S
H899 C932 0.930 . S
H900 C930 0.929 . S
H901 C933 0.928 . S
O902 Co886 2.057 . S
O902 C890 1.232 . S
H903 C922 0.929 . S
H904 C923 0.929 . S
H905 C935 0.928 1_455 S
H906 C927 0.929 . S
H907 C936 0.932 . S
H908 C928 0.931 . S
O909 Co885 2.097 1_455 S
O909 C937 1.214 . S
H910 C938 0.929 . S
H911 C939 0.929 . S
H912 C940 0.930 . S
H913 C941 0.929 . S
H914 C943 0.930 . S
H915 C920 0.930 . S
H916 C924 0.930 . S
O917 Co886 2.037 . S
O917 C937 1.234 1_655 S
C918 O892 1.269 . S
C918 O893 1.257 . S
C919 H894 0.930 . S
C919 C922 1.388 . S
C919 C924 1.418 . S
C920 H915 0.930 . S
C920 C923 1.404 . S
C920 C924 1.353 . S
N921 Co886 2.145 . S
N921 C922 1.397 . S
N921 C923 1.334 . S
C922 H903 0.929 . S
C922 C919 1.388 . S
C922 N921 1.397 . S
C923 H904 0.929 . S
C923 C920 1.404 . S
C923 N921 1.334 . S
C924 H916 0.930 . S
C924 C919 1.418 . S
C924 C920 1.353 . S
C925 H895 0.930 . S
C925 N926 1.330 . S
C925 C927 1.446 . S
N926 Co885 2.151 . S
N926 C925 1.330 . S
N926 C930 1.418 . S
C927 H906 0.929 . S
C927 C925 1.446 . S
C927 C928 1.332 . S
C928 H908 0.931 . S
C928 C927 1.332 . S
C928 C929 1.267 . S
C929 H897 0.929 . S
C929 C928 1.267 . S
C929 C930 1.251 . S
C930 H900 0.929 . S
C930 N926 1.418 . S
C930 C929 1.251 . S
C931 H898 0.930 . S
C931 C933 1.406 . S
C931 C936 1.259 1_655 S
C932 H899 0.930 . S
C932 N934 1.325 . S
C932 C935 1.360 . S
C933 H901 0.928 . S
C933 C931 1.406 . S
C933 N934 1.261 . S
N934 Co885 2.214 . S
N934 C932 1.325 . S
N934 C933 1.261 . S
C935 H905 0.928 1_655 S
C935 C932 1.360 . S
C935 C936 1.312 1_655 S
C936 H907 0.932 . S
C936 C931 1.259 1_455 S
C936 C935 1.312 1_455 S
C937 O909 1.214 . S
C937 O917 1.234 1_455 S
C938 H910 0.929 . S
C938 C941 1.391 1_655 S
C938 C943 1.391 . S
C939 H911 0.929 . S
C939 C940 1.390 . S
C939 N942 1.391 1_455 S
C940 H912 0.930 . S
C940 C939 1.390 . S
C940 C941 1.392 . S
C941 H913 0.929 . S
C941 C938 1.391 1_455 S
C941 C940 1.392 . S
N942 Co886 2.257 . S
N942 C939 1.391 1_655 S
N942 C943 1.388 . S
C943 H914 0.930 . S
C943 C938 1.391 . S
C943 N942 1.388 . S
C944 C945 1.369 . S
C944 C946 1.419 . S
C944 H948 0.930 . S
C945 C944 1.369 . S
C945 C954 1.429 . S
C946 C944 1.419 . S
C946 C947 1.363 . S
C946 H949 0.929 . S
C947 C946 1.363 . S
C947 C953 1.428 . S
H948 C944 0.930 . S
H949 C946 0.929 . S
S950 N951 1.613 . S
S950 N952 1.610 . S
N951 S950 1.613 . S
N951 C954 1.350 . S
N952 S950 1.610 . S
N952 C953 1.351 . S
C953 C947 1.428 . S
C953 N952 1.351 . S
C953 C954 1.434 . S
C954 C945 1.429 . S
C954 N951 1.350 . S
C954 C953 1.434 . S
C955 C956 1.369 . S
C955 C957 1.419 . S
C955 H959 0.930 . S
C956 C955 1.369 . S
C956 C965 1.429 . S
C957 C955 1.419 . S
C957 C958 1.363 . S
C957 H960 0.929 . S
C958 C957 1.363 . S
C958 C964 1.428 . S
H959 C955 0.930 . S
H960 C957 0.929 . S
S961 N962 1.613 . S
S961 N963 1.610 . S
N962 S961 1.613 . S
N962 C965 1.350 . S
N963 S961 1.610 . S
N963 C964 1.351 . S
C964 C958 1.428 . S
C964 N963 1.351 . S
C964 C965 1.434 . S
C965 C956 1.429 . S
C965 N962 1.350 . S
C965 C964 1.434 . S
C966 C967 1.369 . S
C966 C968 1.419 . S
C966 H970 0.930 . S
C967 C966 1.369 . S
C967 C976 1.429 . S
C968 C966 1.419 . S
C968 C969 1.363 . S
C968 H971 0.929 . S
C969 C968 1.363 . S
C969 C975 1.428 . S
H970 C966 0.930 . S
H971 C968 0.929 . S
S972 N973 1.613 . S
S972 N974 1.610 . S
N973 S972 1.613 . S
N973 C976 1.350 . S
N974 S972 1.610 . S
N974 C975 1.351 . S
C975 C969 1.428 . S
C975 N974 1.351 . S
C975 C976 1.434 . S
C976 C967 1.429 . S
C976 N973 1.350 . S
C976 C975 1.434 . S
C977 C978 1.369 . S
C977 C979 1.419 . S
C977 H981 0.930 . S
C978 C977 1.369 . S
C978 C987 1.429 . S
C979 C977 1.419 . S
C979 C980 1.363 . S
C979 H982 0.929 . S
C980 C979 1.363 . S
C980 C986 1.428 . S
H981 C977 0.930 . S
H982 C979 0.929 . S
S983 N984 1.613 . S
S983 N985 1.610 . S
N984 S983 1.613 . S
N984 C987 1.350 . S
N985 S983 1.610 . S
N985 C986 1.351 . S
C986 C980 1.428 . S
C986 N985 1.351 . S
C986 C987 1.434 . S
C987 C978 1.429 . S
C987 N984 1.350 . S
C987 C986 1.434 . S
C988 C989 1.369 . S
C988 C990 1.419 . S
C988 H992 0.930 . S
C989 C988 1.369 . S
C989 C998 1.429 . S
C990 C988 1.419 . S
C990 C991 1.363 . S
C990 H993 0.929 . S
C991 C990 1.363 . S
C991 C997 1.428 . S
H992 C988 0.930 . S
H993 C990 0.929 . S
S994 N995 1.613 . S
S994 N996 1.610 . S
N995 S994 1.613 . S
N995 C998 1.350 . S
N996 S994 1.610 . S
N996 C997 1.351 . S
C997 C991 1.428 . S
C997 N996 1.351 . S
C997 C998 1.434 . S
C998 C989 1.429 . S
C998 N995 1.350 . S
C998 C997 1.434 . S
C999 C1000 1.369 . S
C999 C1001 1.419 . S
C999 H1003 0.930 . S
C1000 C999 1.369 . S
C1000 C1009 1.429 . S
C1001 C999 1.419 . S
C1001 C1002 1.363 . S
C1001 H1004 0.929 . S
C1002 C1001 1.363 . S
C1002 C1008 1.428 . S
H1003 C999 0.930 . S
H1004 C1001 0.929 . S
S1005 N1006 1.613 . S
S1005 N1007 1.610 . S
N1006 S1005 1.613 . S
N1006 C1009 1.350 . S
N1007 S1005 1.610 . S
N1007 C1008 1.351 . S
C1008 C1002 1.428 . S
C1008 N1007 1.351 . S
C1008 C1009 1.434 . S
C1009 C1000 1.429 . S
C1009 N1006 1.350 . S
C1009 C1008 1.434 . S
C1010 C1011 1.369 . S
C1010 C1012 1.419 . S
C1010 H1014 0.930 . S
C1011 C1010 1.369 . S
C1011 C1020 1.429 . S
C1012 C1010 1.419 . S
C1012 C1013 1.363 . S
C1012 H1015 0.929 . S
C1013 C1012 1.363 . S
C1013 C1019 1.428 . S
H1014 C1010 0.930 . S
H1015 C1012 0.929 . S
S1016 N1017 1.613 . S
S1016 N1018 1.610 . S
N1017 S1016 1.613 . S
N1017 C1020 1.350 . S
N1018 S1016 1.610 . S
N1018 C1019 1.351 . S
C1019 C1013 1.428 . S
C1019 N1018 1.351 . S
C1019 C1020 1.434 . S
C1020 C1011 1.429 . S
C1020 N1017 1.350 . S
C1020 C1019 1.434 . S
C1021 C1022 1.369 . S
C1021 C1023 1.419 . S
C1021 H1025 0.930 . S
C1022 C1021 1.369 . S
C1022 C1031 1.429 . S
C1023 C1021 1.419 . S
C1023 C1024 1.363 . S
C1023 H1026 0.929 . S
C1024 C1023 1.363 . S
C1024 C1030 1.428 . S
H1025 C1021 0.930 . S
H1026 C1023 0.929 . S
S1027 N1028 1.613 . S
S1027 N1029 1.610 . S
N1028 S1027 1.613 . S
N1028 C1031 1.350 . S
N1029 S1027 1.610 . S
N1029 C1030 1.351 . S
C1030 C1024 1.428 . S
C1030 N1029 1.351 . S
C1030 C1031 1.434 . S
C1031 C1022 1.429 . S
C1031 N1028 1.350 . S
C1031 C1030 1.434 . S
C1032 C1033 1.369 . S
C1032 C1034 1.419 . S
C1032 H1036 0.930 . S
C1033 C1032 1.369 . S
C1033 C1042 1.429 . S
C1034 C1032 1.419 . S
C1034 C1035 1.363 . S
C1034 H1037 0.929 . S
C1035 C1034 1.363 . S
C1035 C1041 1.428 . S
H1036 C1032 0.930 . S
H1037 C1034 0.929 . S
S1038 N1039 1.613 . S
S1038 N1040 1.610 . S
N1039 S1038 1.613 . S
N1039 C1042 1.350 . S
N1040 S1038 1.610 . S
N1040 C1041 1.351 . S
C1041 C1035 1.428 . S
C1041 N1040 1.351 . S
C1041 C1042 1.434 . S
C1042 C1033 1.429 . S
C1042 N1039 1.350 . S
C1042 C1041 1.434 . S
C1043 C1044 1.369 . S
C1043 C1045 1.419 . S
C1043 H1047 0.930 . S
C1044 C1043 1.369 . S
C1044 C1053 1.429 . S
C1045 C1043 1.419 . S
C1045 C1046 1.363 . S
C1045 H1048 0.929 . S
C1046 C1045 1.363 . S
C1046 C1052 1.428 . S
H1047 C1043 0.930 . S
H1048 C1045 0.929 . S
S1049 N1050 1.613 . S
S1049 N1051 1.610 . S
N1050 S1049 1.613 . S
N1050 C1053 1.350 . S
N1051 S1049 1.610 . S
N1051 C1052 1.351 . S
C1052 C1046 1.428 . S
C1052 N1051 1.351 . S
C1052 C1053 1.434 . S
C1053 C1044 1.429 . S
C1053 N1050 1.350 . S
C1053 C1052 1.434 . S
C1054 C1055 1.369 . S
C1054 C1056 1.419 . S
C1054 H1058 0.930 . S
C1055 C1054 1.369 . S
C1055 C1064 1.429 . S
C1056 C1054 1.419 . S
C1056 C1057 1.363 . S
C1056 H1059 0.929 . S
C1057 C1056 1.363 . S
C1057 C1063 1.428 . S
H1058 C1054 0.930 . S
H1059 C1056 0.929 . S
S1060 N1061 1.613 . S
S1060 N1062 1.610 . S
N1061 S1060 1.613 . S
N1061 C1064 1.350 . S
N1062 S1060 1.610 . S
N1062 C1063 1.351 . S
C1063 C1057 1.428 . S
C1063 N1062 1.351 . S
C1063 C1064 1.434 . S
C1064 C1055 1.429 . S
C1064 N1061 1.350 . S
C1064 C1063 1.434 . S
C1065 C1066 1.369 . S
C1065 C1067 1.419 . S
C1065 H1069 0.930 . S
C1066 C1065 1.369 . S
C1066 C1075 1.429 . S
C1067 C1065 1.419 . S
C1067 C1068 1.363 . S
C1067 H1070 0.929 . S
C1068 C1067 1.363 . S
C1068 C1074 1.428 . S
H1069 C1065 0.930 . S
H1070 C1067 0.929 . S
S1071 N1072 1.613 . S
S1071 N1073 1.610 . S
N1072 S1071 1.613 . S
N1072 C1075 1.350 . S
N1073 S1071 1.610 . S
N1073 C1074 1.351 . S
C1074 C1068 1.428 . S
C1074 N1073 1.351 . S
C1074 C1075 1.434 . S
C1075 C1066 1.429 . S
C1075 N1072 1.350 . S
C1075 C1074 1.434 . S
C1076 C1077 1.369 . S
C1076 C1078 1.419 . S
C1076 H1080 0.930 . S
C1077 C1076 1.369 . S
C1077 C1086 1.429 . S
C1078 C1076 1.419 . S
C1078 C1079 1.363 . S
C1078 H1081 0.929 . S
C1079 C1078 1.363 . S
C1079 C1085 1.428 . S
H1080 C1076 0.930 . S
H1081 C1078 0.929 . S
S1082 N1083 1.613 . S
S1082 N1084 1.610 . S
N1083 S1082 1.613 . S
N1083 C1086 1.350 . S
N1084 S1082 1.610 . S
N1084 C1085 1.351 . S
C1085 C1079 1.428 . S
C1085 N1084 1.351 . S
C1085 C1086 1.434 . S
C1086 C1077 1.429 . S
C1086 N1083 1.350 . S
C1086 C1085 1.434 . S
C1087 C1088 1.369 . S
C1087 C1089 1.419 . S
C1087 H1091 0.930 . S
C1088 C1087 1.369 . S
C1088 C1097 1.429 . S
C1089 C1087 1.419 . S
C1089 C1090 1.363 . S
C1089 H1092 0.929 . S
C1090 C1089 1.363 . S
C1090 C1096 1.428 . S
H1091 C1087 0.930 . S
H1092 C1089 0.929 . S
S1093 N1094 1.613 . S
S1093 N1095 1.610 . S
N1094 S1093 1.613 . S
N1094 C1097 1.350 . S
N1095 S1093 1.610 . S
N1095 C1096 1.351 . S
C1096 C1090 1.428 . S
C1096 N1095 1.351 . S
C1096 C1097 1.434 . S
C1097 C1088 1.429 . S
C1097 N1094 1.350 . S
C1097 C1096 1.434 . S
C1098 C1099 1.369 . S
C1098 C1100 1.419 . S
C1098 H1102 0.930 . S
C1099 C1098 1.369 . S
C1099 C1108 1.429 . S
C1100 C1098 1.419 . S
C1100 C1101 1.363 . S
C1100 H1103 0.929 . S
C1101 C1100 1.363 . S
C1101 C1107 1.428 . S
H1102 C1098 0.930 . S
H1103 C1100 0.929 . S
S1104 N1105 1.613 . S
S1104 N1106 1.610 . S
N1105 S1104 1.613 . S
N1105 C1108 1.350 . S
N1106 S1104 1.610 . S
N1106 C1107 1.351 . S
C1107 C1101 1.428 . S
C1107 N1106 1.351 . S
C1107 C1108 1.434 . S
C1108 C1099 1.429 . S
C1108 N1105 1.350 . S
C1108 C1107 1.434 . S
C1109 C1110 1.369 . S
C1109 C1111 1.419 . S
C1109 H1113 0.930 . S
C1110 C1109 1.369 . S
C1110 C1119 1.429 . S
C1111 C1109 1.419 . S
C1111 C1112 1.363 . S
C1111 H1114 0.929 . S
C1112 C1111 1.363 . S
C1112 C1118 1.428 . S
H1113 C1109 0.930 . S
H1114 C1111 0.929 . S
S1115 N1116 1.613 . S
S1115 N1117 1.610 . S
N1116 S1115 1.613 . S
N1116 C1119 1.350 . S
N1117 S1115 1.610 . S
N1117 C1118 1.351 . S
C1118 C1112 1.428 . S
C1118 N1117 1.351 . S
C1118 C1119 1.434 . S
C1119 C1110 1.429 . S
C1119 N1116 1.350 . S
C1119 C1118 1.434 . S
C1120 C1121 1.369 . S
C1120 C1122 1.419 . S
C1120 H1124 0.930 . S
C1121 C1120 1.369 . S
C1121 C1130 1.429 . S
C1122 C1120 1.419 . S
C1122 C1123 1.363 . S
C1122 H1125 0.929 . S
C1123 C1122 1.363 . S
C1123 C1129 1.428 . S
H1124 C1120 0.930 . S
H1125 C1122 0.929 . S
S1126 N1127 1.613 . S
S1126 N1128 1.610 . S
N1127 S1126 1.613 . S
N1127 C1130 1.350 . S
N1128 S1126 1.610 . S
N1128 C1129 1.351 . S
C1129 C1123 1.428 . S
C1129 N1128 1.351 . S
C1129 C1130 1.434 . S
C1130 C1121 1.429 . S
C1130 N1127 1.350 . S
C1130 C1129 1.434 . S
C1131 C1132 1.369 . S
C1131 C1133 1.419 . S
C1131 H1135 0.930 . S
C1132 C1131 1.369 . S
C1132 C1141 1.429 . S
C1133 C1131 1.419 . S
C1133 C1134 1.363 . S
C1133 H1136 0.929 . S
C1134 C1133 1.363 . S
C1134 C1140 1.428 . S
H1135 C1131 0.930 . S
H1136 C1133 0.929 . S
S1137 N1138 1.613 . S
S1137 N1139 1.610 . S
N1138 S1137 1.613 . S
N1138 C1141 1.350 . S
N1139 S1137 1.610 . S
N1139 C1140 1.351 . S
C1140 C1134 1.428 . S
C1140 N1139 1.351 . S
C1140 C1141 1.434 . S
C1141 C1132 1.429 . S
C1141 N1138 1.350 . S
C1141 C1140 1.434 . S
C1142 C1143 1.369 . S
C1142 C1144 1.419 . S
C1142 H1146 0.930 . S
C1143 C1142 1.369 . S
C1143 C1152 1.429 . S
C1144 C1142 1.419 . S
C1144 C1145 1.363 . S
C1144 H1147 0.929 . S
C1145 C1144 1.363 . S
C1145 C1151 1.428 . S
H1146 C1142 0.930 . S
H1147 C1144 0.929 . S
S1148 N1149 1.613 . S
S1148 N1150 1.610 . S
N1149 S1148 1.613 . S
N1149 C1152 1.350 . S
N1150 S1148 1.610 . S
N1150 C1151 1.351 . S
C1151 C1145 1.428 . S
C1151 N1150 1.351 . S
C1151 C1152 1.434 . S
C1152 C1143 1.429 . S
C1152 N1149 1.350 . S
C1152 C1151 1.434 . S
C1153 C1154 1.369 . S
C1153 C1155 1.419 . S
C1153 H1157 0.930 . S
C1154 C1153 1.369 . S
C1154 C1163 1.429 . S
C1155 C1153 1.419 . S
C1155 C1156 1.363 . S
C1155 H1158 0.929 . S
C1156 C1155 1.363 . S
C1156 C1162 1.428 . S
H1157 C1153 0.930 . S
H1158 C1155 0.929 . S
S1159 N1160 1.613 . S
S1159 N1161 1.610 . S
N1160 S1159 1.613 . S
N1160 C1163 1.350 . S
N1161 S1159 1.610 . S
N1161 C1162 1.351 . S
C1162 C1156 1.428 . S
C1162 N1161 1.351 . S
C1162 C1163 1.434 . S
C1163 C1154 1.429 . S
C1163 N1160 1.350 . S
C1163 C1162 1.434 . S
C1164 C1165 1.369 . S
C1164 C1166 1.419 . S
C1164 H1168 0.930 . S
C1165 C1164 1.369 . S
C1165 C1174 1.429 . S
C1166 C1164 1.419 . S
C1166 C1167 1.363 . S
C1166 H1169 0.929 . S
C1167 C1166 1.363 . S
C1167 C1173 1.428 . S
H1168 C1164 0.930 . S
H1169 C1166 0.929 . S
S1170 N1171 1.613 . S
S1170 N1172 1.610 . S
N1171 S1170 1.613 . S
N1171 C1174 1.350 . S
N1172 S1170 1.610 . S
N1172 C1173 1.351 . S
C1173 C1167 1.428 . S
C1173 N1172 1.351 . S
C1173 C1174 1.434 . S
C1174 C1165 1.429 . S
C1174 N1171 1.350 . S
C1174 C1173 1.434 . S
C1175 C1176 1.369 . S
C1175 C1177 1.419 . S
C1175 H1179 0.930 . S
C1176 C1175 1.369 . S
C1176 C1185 1.429 . S
C1177 C1175 1.419 . S
C1177 C1178 1.363 . S
C1177 H1180 0.929 . S
C1178 C1177 1.363 . S
C1178 C1184 1.428 . S
H1179 C1175 0.930 . S
H1180 C1177 0.929 . S
S1181 N1182 1.613 . S
S1181 N1183 1.610 . S
N1182 S1181 1.613 . S
N1182 C1185 1.350 . S
N1183 S1181 1.610 . S
N1183 C1184 1.351 . S
C1184 C1178 1.428 . S
C1184 N1183 1.351 . S
C1184 C1185 1.434 . S
C1185 C1176 1.429 . S
C1185 N1182 1.350 . S
C1185 C1184 1.434 . S
C1186 C1187 1.369 . S
C1186 C1188 1.419 . S
C1186 H1190 0.930 . S
C1187 C1186 1.369 . S
C1187 C1196 1.429 . S
C1188 C1186 1.419 . S
C1188 C1189 1.363 . S
C1188 H1191 0.929 . S
C1189 C1188 1.363 . S
C1189 C1195 1.428 . S
H1190 C1186 0.930 . S
H1191 C1188 0.929 . S
S1192 N1193 1.613 . S
S1192 N1194 1.610 . S
N1193 S1192 1.613 . S
N1193 C1196 1.350 . S
N1194 S1192 1.610 . S
N1194 C1195 1.351 . S
C1195 C1189 1.428 . S
C1195 N1194 1.351 . S
C1195 C1196 1.434 . S
C1196 C1187 1.429 . S
C1196 N1193 1.350 . S
C1196 C1195 1.434 . S
C1197 C1198 1.369 . S
C1197 C1199 1.419 . S
C1197 H1201 0.930 . S
C1198 C1197 1.369 . S
C1198 C1207 1.429 . S
C1199 C1197 1.419 . S
C1199 C1200 1.363 . S
C1199 H1202 0.929 . S
C1200 C1199 1.363 . S
C1200 C1206 1.428 . S
H1201 C1197 0.930 . S
H1202 C1199 0.929 . S
S1203 N1204 1.613 . S
S1203 N1205 1.610 . S
N1204 S1203 1.613 . S
N1204 C1207 1.350 . S
N1205 S1203 1.610 . S
N1205 C1206 1.351 . S
C1206 C1200 1.428 . S
C1206 N1205 1.351 . S
C1206 C1207 1.434 . S
C1207 C1198 1.429 . S
C1207 N1204 1.350 . S
C1207 C1206 1.434 . S
C1208 C1209 1.369 . S
C1208 C1210 1.419 . S
C1208 H1212 0.930 . S
C1209 C1208 1.369 . S
C1209 C1218 1.429 . S
C1210 C1208 1.419 . S
C1210 C1211 1.363 . S
C1210 H1213 0.929 . S
C1211 C1210 1.363 . S
C1211 C1217 1.428 . S
H1212 C1208 0.930 . S
H1213 C1210 0.929 . S
S1214 N1215 1.613 . S
S1214 N1216 1.610 . S
N1215 S1214 1.613 . S
N1215 C1218 1.350 . S
N1216 S1214 1.610 . S
N1216 C1217 1.351 . S
C1217 C1211 1.428 . S
C1217 N1216 1.351 . S
C1217 C1218 1.434 . S
C1218 C1209 1.429 . S
C1218 N1215 1.350 . S
C1218 C1217 1.434 . S
C1219 C1220 1.369 . S
C1219 C1221 1.419 . S
C1219 H1223 0.930 . S
C1220 C1219 1.369 . S
C1220 C1229 1.429 . S
C1221 C1219 1.419 . S
C1221 C1222 1.363 . S
C1221 H1224 0.929 . S
C1222 C1221 1.363 . S
C1222 C1228 1.428 . S
H1223 C1219 0.930 . S
H1224 C1221 0.929 . S
S1225 N1226 1.613 . S
S1225 N1227 1.610 . S
N1226 S1225 1.613 . S
N1226 C1229 1.350 . S
N1227 S1225 1.610 . S
N1227 C1228 1.351 . S
C1228 C1222 1.428 . S
C1228 N1227 1.351 . S
C1228 C1229 1.434 . S
C1229 C1220 1.429 . S
C1229 N1226 1.350 . S
C1229 C1228 1.434 . S
C1230 C1231 1.369 . S
C1230 C1232 1.419 . S
C1230 H1234 0.930 . S
C1231 C1230 1.369 . S
C1231 C1240 1.429 . S
C1232 C1230 1.419 . S
C1232 C1233 1.363 . S
C1232 H1235 0.929 . S
C1233 C1232 1.363 . S
C1233 C1239 1.428 . S
H1234 C1230 0.930 . S
H1235 C1232 0.929 . S
S1236 N1237 1.613 . S
S1236 N1238 1.610 . S
N1237 S1236 1.613 . S
N1237 C1240 1.350 . S
N1238 S1236 1.610 . S
N1238 C1239 1.351 . S
C1239 C1233 1.428 . S
C1239 N1238 1.351 . S
C1239 C1240 1.434 . S
C1240 C1231 1.429 . S
C1240 N1237 1.350 . S
C1240 C1239 1.434 . S
C1241 C1242 1.369 . S
C1241 C1243 1.419 . S
C1241 H1245 0.930 . S
C1242 C1241 1.369 . S
C1242 C1251 1.429 . S
C1243 C1241 1.419 . S
C1243 C1244 1.363 . S
C1243 H1246 0.929 . S
C1244 C1243 1.363 . S
C1244 C1250 1.428 . S
H1245 C1241 0.930 . S
H1246 C1243 0.929 . S
S1247 N1248 1.613 . S
S1247 N1249 1.610 . S
N1248 S1247 1.613 . S
N1248 C1251 1.350 . S
N1249 S1247 1.610 . S
N1249 C1250 1.351 . S
C1250 C1244 1.428 . S
C1250 N1249 1.351 . S
C1250 C1251 1.434 . S
C1251 C1242 1.429 . S
C1251 N1248 1.350 . S
C1251 C1250 1.434 . S
C1252 C1253 1.369 . S
C1252 C1254 1.419 1_554 S
C1252 H1256 0.930 . S
C1253 C1252 1.369 . S
C1253 C1262 1.429 1_545 S
C1254 C1252 1.419 1_556 S
C1254 C1255 1.363 1_545 S
C1254 H1257 0.929 . S
C1255 C1254 1.363 1_565 S
C1255 C1261 1.428 . S
H1256 C1252 0.930 . S
H1257 C1254 0.929 . S
S1258 N1259 1.613 . S
S1258 N1260 1.610 1_554 S
N1259 S1258 1.613 . S
N1259 C1262 1.350 . S
N1260 S1258 1.610 1_556 S
N1260 C1261 1.351 . S
C1261 C1255 1.428 . S
C1261 N1260 1.351 . S
C1261 C1262 1.434 1_556 S
C1262 C1253 1.429 1_565 S
C1262 N1259 1.350 . S
C1262 C1261 1.434 1_554 S
C1263 C1264 1.369 1_655 S
C1263 C1265 1.419 1_556 S
C1263 H1267 0.930 . S
C1264 C1263 1.369 1_455 S
C1264 C1273 1.429 . S
C1265 C1263 1.419 1_554 S
C1265 C1266 1.363 . S
C1265 H1268 0.929 . S
C1266 C1265 1.363 . S
C1266 C1272 1.428 1_655 S
H1267 C1263 0.930 . S
H1268 C1265 0.929 . S
S1269 N1270 1.613 1_554 S
S1269 N1271 1.610 . S
N1270 S1269 1.613 1_556 S
N1270 C1273 1.350 . S
N1271 S1269 1.610 . S
N1271 C1272 1.351 . S
C1272 C1266 1.428 1_455 S
C1272 N1271 1.351 . S
C1272 C1273 1.434 1_554 S
C1273 C1264 1.429 . S
C1273 N1270 1.350 . S
C1273 C1272 1.434 1_556 S
C1274 C1275 1.369 . S
C1274 C1276 1.414 1_546 S
C1274 H1278 0.930 . S
C1275 C1274 1.369 . S
C1275 C1284 1.424 1_545 S
C1276 C1274 1.414 1_564 S
C1276 C1277 1.368 . S
C1276 H1279 0.929 . S
C1277 C1276 1.368 . S
C1277 C1283 1.428 . S
H1278 C1274 0.930 . S
H1279 C1276 0.929 . S
S1280 N1281 1.613 . S
S1280 N1282 1.610 1_556 S
N1281 S1280 1.613 . S
N1281 C1284 1.352 . S
N1282 S1280 1.610 1_554 S
N1282 C1283 1.351 . S
C1283 C1277 1.428 . S
C1283 N1282 1.351 . S
C1283 C1284 1.438 1_554 S
C1284 C1275 1.424 1_565 S
C1284 N1281 1.352 . S
C1284 C1283 1.438 1_556 S
C1285 C1286 1.369 . S
C1285 C1287 1.419 1_556 S
C1285 H1289 0.930 . S
C1286 C1285 1.369 . S
C1286 C1295 1.429 1_655 S
C1287 C1285 1.419 1_554 S
C1287 C1288 1.363 1_655 S
C1287 H1290 0.929 . S
C1288 C1287 1.363 1_455 S
C1288 C1294 1.428 . S
H1289 C1285 0.930 . S
H1290 C1287 0.929 . S
S1291 N1292 1.613 . S
S1291 N1293 1.610 1_556 S
N1292 S1291 1.613 . S
N1292 C1295 1.350 . S
N1293 S1291 1.610 1_554 S
N1293 C1294 1.351 . S
C1294 C1288 1.428 . S
C1294 N1293 1.351 . S
C1294 C1295 1.434 1_554 S
C1295 C1286 1.429 1_455 S
C1295 N1292 1.350 . S
C1295 C1294 1.434 1_556 S
C945 C5 1.407 . S
C947 C418 1.407 . S
C956 C64 1.407 . S
C958 C241 1.407 . S
C967 C300 1.408 . S
C969 C123 1.408 . S
C978 C182 1.408 . S
C980 C359 1.408 . S
C989 C477 1.407 . S
C991 C890 1.407 . S
C1000 C713 1.407 . S
C1002 C536 1.407 . S
C1011 C772 1.409 . S
C1013 C595 1.408 . S
C1022 C831 1.407 . S
C1024 C654 1.407 . S
C1033 C52 1.532 . S
C1035 C682 1.529 . S
C1044 C111 1.531 . S
C1046 C505 1.529 . S
C1055 C564 1.529 . S
C1057 C170 1.530 . S
C1066 C229 1.530 . S
C1068 C623 1.531 . S
C1077 C288 1.530 . S
C1079 C800 1.529 . S
C1088 C859 1.531 . S
C1090 C347 1.531 . S
C1099 C406 1.529 . S
C1101 C918 1.530 . S
C1110 C741 1.531 . S
C1112 C465 1.530 . S
C1121 C524 1.531 . S
C1123 C210 1.529 . S
C1132 C33 1.529 . S
C1134 C583 1.531 . S
C1143 C642 1.531 . S
C1145 C92 1.531 . S
C1154 C151 1.528 . S
C1156 C701 1.530 . S
C1165 C760 1.531 . S
C1167 C328 1.529 . S
C1176 C387 1.530 . S
C1178 C819 1.531 . S
C1187 C446 1.529 . S
C1189 C878 1.531 . S
C1198 C269 1.531 . S
C1200 C937 1.531 . S
C1209 C239 1.613 . S
C1211 C3 1.612 . S
C1220 C298 1.614 . S
C1222 C62 1.613 . S
C1231 C121 1.612 . S
C1233 C357 1.613 . S
C1242 C416 1.612 . S
C1244 C180 1.611 . S
C1253 C711 1.612 . S
C1255 C475 1.612 . S
C1264 C770 1.614 . S
C1266 C534 1.613 . S
C1275 C593 1.610 . S
C1277 C829 1.611 . S
C1286 C888 1.610 . S
C1288 C652 1.611 . S
