# Generated by pormake.
# Topology umz, (4)-cn, num edge types: 1
# Building blocks:
#     Node 0, Type 0, BuildingBlock: CEKHIL_clean_sbu_0, # of connection points: 4
#     Node 1, Type 0, BuildingBlock: CEKHIL_clean_sbu_0, # of connection points: 4
#     Node 2, Type 0, BuildingBlock: CEKHIL_clean_sbu_0, # of connection points: 4
#     Node 3, Type 0, BuildingBlock: CEKHIL_clean_sbu_0, # of connection points: 4
#     Node 4, Type 0, BuildingBlock: CEKHIL_clean_sbu_0, # of connection points: 4
#     Node 5, Type 0, BuildingBlock: CEKHIL_clean_sbu_0, # of connection points: 4
#     Node 6, Type 0, BuildingBlock: CEKHIL_clean_sbu_0, # of connection points: 4
#     Node 7, Type 0, BuildingBlock: CEKHIL_clean_sbu_0, # of connection points: 4
#     Node 8, Type 0, BuildingBlock: CEKHIL_clean_sbu_0, # of connection points: 4
#     Node 9, Type 0, BuildingBlock: CEKHIL_clean_sbu_0, # of connection points: 4
#     Node 10, Type 0, BuildingBlock: CEKHIL_clean_sbu_0, # of connection points: 4
#     Node 11, Type 0, BuildingBlock: CEKHIL_clean_sbu_0, # of connection points: 4
#     Node 12, Type 0, BuildingBlock: CEKHIL_clean_sbu_0, # of connection points: 4
#     Node 13, Type 0, BuildingBlock: CEKHIL_clean_sbu_0, # of connection points: 4
#     Node 14, Type 0, BuildingBlock: CEKHIL_clean_sbu_0, # of connection points: 4
#     Node 15, Type 0, BuildingBlock: CEKHIL_clean_sbu_0, # of connection points: 4
#     Edge 16, Type (0, 0), BuildingBlock: EYOCIG_clean_linker_4, # of connection points: 2
#     Edge 17, Type (0, 0), BuildingBlock: EYOCIG_clean_linker_4, # of connection points: 2
#     Edge 18, Type (0, 0), BuildingBlock: EYOCIG_clean_linker_4, # of connection points: 2
#     Edge 19, Type (0, 0), BuildingBlock: EYOCIG_clean_linker_4, # of connection points: 2
#     Edge 20, Type (0, 0), BuildingBlock: EYOCIG_clean_linker_4, # of connection points: 2
#     Edge 21, Type (0, 0), BuildingBlock: EYOCIG_clean_linker_4, # of connection points: 2
#     Edge 22, Type (0, 0), BuildingBlock: EYOCIG_clean_linker_4, # of connection points: 2
#     Edge 23, Type (0, 0), BuildingBlock: EYOCIG_clean_linker_4, # of connection points: 2
#     Edge 24, Type (0, 0), BuildingBlock: EYOCIG_clean_linker_4, # of connection points: 2
#     Edge 25, Type (0, 0), BuildingBlock: EYOCIG_clean_linker_4, # of connection points: 2
#     Edge 26, Type (0, 0), BuildingBlock: EYOCIG_clean_linker_4, # of connection points: 2
#     Edge 27, Type (0, 0), BuildingBlock: EYOCIG_clean_linker_4, # of connection points: 2
#     Edge 28, Type (0, 0), BuildingBlock: EYOCIG_clean_linker_4, # of connection points: 2
#     Edge 29, Type (0, 0), BuildingBlock: EYOCIG_clean_linker_4, # of connection points: 2
#     Edge 30, Type (0, 0), BuildingBlock: EYOCIG_clean_linker_4, # of connection points: 2
#     Edge 31, Type (0, 0), BuildingBlock: EYOCIG_clean_linker_4, # of connection points: 2
#     Edge 32, Type (0, 0), BuildingBlock: EYOCIG_clean_linker_4, # of connection points: 2
#     Edge 33, Type (0, 0), BuildingBlock: EYOCIG_clean_linker_4, # of connection points: 2
#     Edge 34, Type (0, 0), BuildingBlock: EYOCIG_clean_linker_4, # of connection points: 2
#     Edge 35, Type (0, 0), BuildingBlock: EYOCIG_clean_linker_4, # of connection points: 2
#     Edge 36, Type (0, 0), BuildingBlock: EYOCIG_clean_linker_4, # of connection points: 2
#     Edge 37, Type (0, 0), BuildingBlock: EYOCIG_clean_linker_4, # of connection points: 2
#     Edge 38, Type (0, 0), BuildingBlock: EYOCIG_clean_linker_4, # of connection points: 2
#     Edge 39, Type (0, 0), BuildingBlock: EYOCIG_clean_linker_4, # of connection points: 2
#     Edge 40, Type (0, 0), BuildingBlock: EYOCIG_clean_linker_4, # of connection points: 2
#     Edge 41, Type (0, 0), BuildingBlock: EYOCIG_clean_linker_4, # of connection points: 2
#     Edge 42, Type (0, 0), BuildingBlock: EYOCIG_clean_linker_4, # of connection points: 2
#     Edge 43, Type (0, 0), BuildingBlock: EYOCIG_clean_linker_4, # of connection points: 2
#     Edge 44, Type (0, 0), BuildingBlock: EYOCIG_clean_linker_4, # of connection points: 2
#     Edge 45, Type (0, 0), BuildingBlock: EYOCIG_clean_linker_4, # of connection points: 2
#     Edge 46, Type (0, 0), BuildingBlock: EYOCIG_clean_linker_4, # of connection points: 2
#     Edge 47, Type (0, 0), BuildingBlock: EYOCIG_clean_linker_4, # of connection points: 2
# Relax obj value: 0.258
# Max RMSD: 0.166
# Mean RMSD: 0.166
data_MOF--net-umz--node1-CEKHIL_clean_sbu_0--edge1-EYOCIG_clean_linker_4
_symmetry_space_group_name_H-M    P1
_symmetry_Int_Tables_number       1
_symmetry_cell_setting            triclinic
loop_
_symmetry_equiv_pos_as_xyz
'x, y, z'
_cell_length_a     46.440812
_cell_length_b     46.441644
_cell_length_c     17.924509
_cell_angle_alpha  89.960842
_cell_angle_beta   89.95263
_cell_angle_gamma 89.990272
loop_
_atom_site_label
_atom_site_type_symbol
_atom_site_fract_x
_atom_site_fract_y
_atom_site_fract_z
_atom_type_partial_charge
Co0 Co 0.00714 0.63892 0.13352 0.0
O1 O 0.98608 0.66048 0.05999 0.0
O2 O 0.02125 0.67793 0.13092 0.0
C3 C 0.96786 0.61857 0.18453 0.0
O4 O 0.03322 0.62339 0.21669 0.0
Co5 Co 0.00474 0.57204 0.13219 0.0
O6 O 0.03074 0.57491 0.21927 0.0
C7 C 0.03929 0.60268 0.0199 0.0
C8 C 0.00201 0.68208 0.0794 0.0
C9 C 0.04058 0.59869 0.24341 0.0
O10 O 0.03615 0.62666 0.05503 0.0
O11 O 0.02592 0.57956 0.03692 0.0
O12 O 0.97562 0.6442 0.20515 0.0
O13 O 0.98251 0.60711 0.13134 0.0
Co14 Co 0.85266 0.00698 0.6332 0.0
O15 O 0.83088 0.98585 0.56031 0.0
O16 O 0.81361 0.02104 0.63157 0.0
C17 C 0.87337 0.96792 0.68381 0.0
O18 O 0.86847 0.03307 0.716 0.0
Co19 Co 0.91961 0.00478 0.63001 0.0
O20 O 0.91694 0.03007 0.71854 0.0
C21 C 0.88828 0.03866 0.5177 0.0
C22 C 0.80933 0.00179 0.58015 0.0
C23 C 0.89323 0.04001 0.74304 0.0
O24 O 0.86453 0.03585 0.55412 0.0
O25 O 0.91149 0.02537 0.53423 0.0
O26 O 0.84776 0.97552 0.70509 0.0
O27 O 0.88455 0.98254 0.63016 0.0
Co28 Co 0.48485 0.85242 0.13316 0.0
O29 O 0.50637 0.83087 0.06066 0.0
O30 O 0.47125 0.81318 0.13152 0.0
C31 C 0.52386 0.87324 0.18383 0.0
O32 O 0.45845 0.86816 0.21561 0.0
Co33 Co 0.48671 0.91929 0.12961 0.0
O34 O 0.46117 0.91664 0.21769 0.0
C35 C 0.45256 0.88784 0.01805 0.0
C36 C 0.49077 0.8091 0.08058 0.0
C37 C 0.45125 0.89294 0.24222 0.0
O38 O 0.45595 0.86402 0.05379 0.0
O39 O 0.4655 0.91122 0.03478 0.0
O40 O 0.51619 0.84769 0.20529 0.0
O41 O 0.50925 0.88441 0.13015 0.0
Co42 Co 0.63889 0.48464 0.63291 0.0
O43 O 0.66007 0.50567 0.5585 0.0
O44 O 0.67817 0.47123 0.63085 0.0
C45 C 0.61787 0.52391 0.68173 0.0
O46 O 0.62386 0.45873 0.71733 0.0
Co47 Co 0.57196 0.48585 0.63244 0.0
O48 O 0.57536 0.46056 0.72087 0.0
C49 C 0.60315 0.45184 0.5201 0.0
C50 C 0.68197 0.49027 0.57858 0.0
C51 C 0.59934 0.45121 0.74498 0.0
O52 O 0.62707 0.45508 0.55549 0.0
O53 O 0.57993 0.46507 0.5369 0.0
O54 O 0.64358 0.51669 0.70303 0.0
O55 O 0.60664 0.50863 0.62953 0.0
Co56 Co 0.00721 0.85272 0.8574 0.0
O57 O 0.98619 0.83099 0.93081 0.0
O58 O 0.02103 0.81361 0.85849 0.0
C59 C 0.96795 0.87369 0.80846 0.0
O60 O 0.03322 0.86812 0.77382 0.0
Co61 Co 0.00563 0.91965 0.85831 0.0
O62 O 0.03104 0.91658 0.77002 0.0
C63 C 0.03902 0.8884 0.97183 0.0
C64 C 0.0019 0.80935 0.91027 0.0
C65 C 0.04062 0.89264 0.74615 0.0
O66 O 0.03633 0.86456 0.93579 0.0
O67 O 0.02571 0.91154 0.95475 0.0
O68 O 0.97536 0.84808 0.78661 0.0
O69 O 0.98305 0.88483 0.8611 0.0
Co70 Co 0.63885 0.00665 0.35728 0.0
O71 O 0.66075 0.98607 0.43102 0.0
O72 O 0.67781 0.02093 0.35823 0.0
C73 C 0.61845 0.96703 0.30862 0.0
O74 O 0.62309 0.03223 0.27335 0.0
Co75 Co 0.57198 0.00423 0.35933 0.0
O76 O 0.57462 0.02974 0.27111 0.0
C77 C 0.60282 0.03876 0.47101 0.0
C78 C 0.68223 0.00196 0.4103 0.0
C79 C 0.59839 0.0394 0.24633 0.0
O80 O 0.62669 0.03591 0.4351 0.0
O81 O 0.57976 0.0252 0.45464 0.0
O82 O 0.64398 0.97475 0.2869 0.0
O83 O 0.60708 0.98202 0.36127 0.0
Co84 Co 0.48475 0.63935 0.85717 0.0
O85 O 0.50617 0.66077 0.93009 0.0
O86 O 0.4713 0.67863 0.85881 0.0
C87 C 0.52367 0.61835 0.80662 0.0
O88 O 0.45857 0.62395 0.77393 0.0
Co89 Co 0.48608 0.57249 0.85975 0.0
O90 O 0.46135 0.5755 0.77024 0.0
C91 C 0.45235 0.60393 0.97225 0.0
C92 C 0.49073 0.68262 0.90993 0.0
C93 C 0.45164 0.59933 0.74599 0.0
O94 O 0.45564 0.62774 0.93629 0.0
O95 O 0.46529 0.58056 0.95532 0.0
O96 O 0.51626 0.64402 0.78547 0.0
O97 O 0.5089 0.6072 0.86011 0.0
Co98 Co 0.85273 0.48477 0.35719 0.0
O99 O 0.83056 0.50531 0.43045 0.0
O100 O 0.8137 0.47057 0.3572 0.0
C101 C 0.8733 0.52449 0.30928 0.0
O102 O 0.8688 0.45925 0.27355 0.0
Co103 Co 0.91964 0.48732 0.36016 0.0
O104 O 0.91727 0.46181 0.272 0.0
C105 C 0.8885 0.45251 0.47114 0.0
C106 C 0.8091 0.48958 0.40905 0.0
C107 C 0.89358 0.4521 0.24696 0.0
O108 O 0.86467 0.45541 0.43513 0.0
O109 O 0.91157 0.46614 0.45508 0.0
O110 O 0.84788 0.51678 0.28686 0.0
O111 O 0.88448 0.50939 0.36197 0.0
Co112 Co 0.98494 0.35267 0.85727 0.0
O113 O 0.00562 0.33093 0.93112 0.0
O114 O 0.97082 0.31367 0.85866 0.0
C115 C 0.02447 0.37316 0.80837 0.0
O116 O 0.95929 0.36827 0.77323 0.0
Co117 Co 0.98708 0.41954 0.85856 0.0
O118 O 0.96175 0.41673 0.77015 0.0
C119 C 0.95294 0.38863 0.97119 0.0
C120 C 0.98983 0.30937 0.91064 0.0
C121 C 0.95214 0.3929 0.74574 0.0
O122 O 0.95569 0.36479 0.93521 0.0
O123 O 0.96643 0.41171 0.95443 0.0
O124 O 0.01685 0.3476 0.78681 0.0
O125 O 0.00942 0.38453 0.86091 0.0
Co126 Co 0.1391 0.9848 0.35737 0.0
O127 O 0.16072 0.00577 0.43071 0.0
O128 O 0.17821 0.97085 0.35895 0.0
C129 C 0.11849 0.02409 0.30741 0.0
O130 O 0.12333 0.95893 0.2741 0.0
Co131 Co 0.07224 0.98695 0.36103 0.0
O132 O 0.07484 0.96168 0.27246 0.0
C133 C 0.10349 0.95221 0.47167 0.0
C134 C 0.18235 0.99 0.41071 0.0
C135 C 0.09853 0.95189 0.24746 0.0
O136 O 0.12728 0.95557 0.43578 0.0
O137 O 0.0802 0.96543 0.45554 0.0
O138 O 0.14408 0.01645 0.28609 0.0
O139 O 0.10723 0.00933 0.36075 0.0
Co140 Co 0.50684 0.13888 0.85729 0.0
O141 O 0.48614 0.16091 0.93061 0.0
O142 O 0.52081 0.17796 0.8572 0.0
C143 C 0.46736 0.11801 0.80942 0.0
O144 O 0.53246 0.12309 0.77348 0.0
Co145 Co 0.50481 0.07191 0.85986 0.0
O146 O 0.52989 0.07463 0.77085 0.0
C147 C 0.53909 0.10322 0.97138 0.0
C148 C 0.50178 0.18246 0.90908 0.0
C149 C 0.53953 0.09842 0.74616 0.0
O150 O 0.53621 0.12705 0.93525 0.0
O151 O 0.52561 0.0801 0.95515 0.0
O152 O 0.47482 0.14353 0.78705 0.0
O153 O 0.48252 0.10693 0.8621 0.0
Co154 Co 0.35265 0.50685 0.35721 0.0
O155 O 0.33109 0.48557 0.43039 0.0
O156 O 0.31347 0.52056 0.35905 0.0
C157 C 0.3733 0.46755 0.30709 0.0
O158 O 0.36815 0.53307 0.27403 0.0
Co159 Co 0.41952 0.50485 0.35864 0.0
O160 O 0.41663 0.53078 0.27136 0.0
C161 C 0.38862 0.5393 0.47073 0.0
C162 C 0.30933 0.50114 0.41019 0.0
C163 C 0.39281 0.54053 0.24721 0.0
O164 O 0.3646 0.53595 0.43582 0.0
O165 O 0.41182 0.5261 0.4536 0.0
O166 O 0.34773 0.47525 0.28577 0.0
O167 O 0.38461 0.48239 0.36007 0.0
Co168 Co 0.98486 0.13883 0.1333 0.0
O169 O 0.00568 0.16085 0.06026 0.0
O170 O 0.97047 0.17775 0.13215 0.0
C171 C 0.02434 0.11845 0.18292 0.0
O172 O 0.95893 0.1229 0.21631 0.0
Co173 Co 0.98747 0.07197 0.13094 0.0
O174 O 0.96157 0.07444 0.2184 0.0
C175 C 0.95314 0.10289 0.01872 0.0
C176 C 0.98962 0.18226 0.08053 0.0
C177 C 0.95169 0.09815 0.24288 0.0
O178 O 0.95595 0.12674 0.05461 0.0
O179 O 0.96657 0.07977 0.03549 0.0
O180 O 0.01646 0.14392 0.20461 0.0
O181 O 0.00959 0.10712 0.12982 0.0
Co182 Co 0.35251 0.98432 0.63369 0.0
O183 O 0.33048 0.00565 0.56165 0.0
O184 O 0.31344 0.97032 0.63294 0.0
C185 C 0.37336 0.02333 0.68414 0.0
O186 O 0.36838 0.95797 0.7159 0.0
Co187 Co 0.4194 0.9863 0.63054 0.0
O188 O 0.41682 0.96076 0.71872 0.0
C189 C 0.388 0.95272 0.51769 0.0
C190 C 0.30896 0.98976 0.58207 0.0
C191 C 0.39308 0.95082 0.7429 0.0
O192 O 0.3642 0.95562 0.55391 0.0
O193 O 0.41127 0.96582 0.53467 0.0
O194 O 0.34784 0.01564 0.70594 0.0
O195 O 0.38445 0.00875 0.63033 0.0
Co196 Co 0.50697 0.35243 0.13351 0.0
O197 O 0.48613 0.33105 0.05941 0.0
O198 O 0.52079 0.31329 0.13162 0.0
C199 C 0.46759 0.37315 0.18297 0.0
O200 O 0.5327 0.36774 0.21767 0.0
Co201 Co 0.50536 0.41924 0.13169 0.0
O202 O 0.5305 0.41622 0.22044 0.0
C203 C 0.5397 0.38819 0.01992 0.0
C204 C 0.50179 0.30932 0.07941 0.0
C205 C 0.53995 0.39235 0.24508 0.0
O206 O 0.53643 0.36435 0.0557 0.0
O207 O 0.52647 0.41144 0.03645 0.0
O208 O 0.47505 0.34747 0.20403 0.0
O209 O 0.48262 0.38447 0.13024 0.0
Co210 Co 0.13919 0.50669 0.63284 0.0
O211 O 0.16023 0.48522 0.55918 0.0
O212 O 0.17845 0.5201 0.62977 0.0
C213 C 0.11835 0.46781 0.68408 0.0
O214 O 0.12414 0.53295 0.71644 0.0
Co215 Co 0.07236 0.50552 0.63168 0.0
O216 O 0.07568 0.53041 0.72079 0.0
C217 C 0.10356 0.539 0.51834 0.0
C218 C 0.18216 0.50072 0.57836 0.0
C219 C 0.09959 0.54003 0.74464 0.0
O220 O 0.12739 0.53578 0.55409 0.0
O221 O 0.08022 0.52608 0.53562 0.0
O222 O 0.1441 0.47521 0.70448 0.0
O223 O 0.10701 0.48258 0.6309 0.0
C224 C -0.00316 0.73218 0.01234 0.0
C225 C -0.00089 0.70924 0.0428 0.0
C226 C -0.00322 0.75896 0.97585 0.0
C227 C -0.00099 0.78203 0.94611 0.0
C228 C 0.73251 -0.00303 0.47641 0.0
C229 C 0.70956 -0.00071 0.44613 0.0
C230 C 0.75918 -0.00318 0.51338 0.0
C231 C 0.78212 -0.00098 0.54375 0.0
C232 C 0.49733 0.75913 0.01392 0.0
C233 C 0.49426 0.78193 0.04451 0.0
C234 C 0.49735 0.73267 0.97608 0.0
C235 C 0.49429 0.70983 0.94578 0.0
C236 C 0.73189 0.49565 0.51067 0.0
C237 C 0.70902 0.49332 0.54143 0.0
C238 C 0.75855 0.49526 0.47356 0.0
C239 C 0.78158 0.49253 0.44382 0.0
C240 C 0.9948 0.25907 0.97673 0.0
C241 C 0.99259 0.28208 0.94665 0.0
C242 C 0.99461 0.23243 0.01385 0.0
C243 C 0.99225 0.20955 0.04448 0.0
C244 C 0.25864 0.99539 0.5166 0.0
C245 C 0.2816 0.99276 0.54663 0.0
C246 C 0.23218 0.99541 0.47875 0.0
C247 C 0.20945 0.99286 0.44751 0.0
C248 C 0.49634 0.233 0.97356 0.0
C249 C 0.49886 0.20993 0.94402 0.0
C250 C 0.49641 0.25955 0.01102 0.0
C251 C 0.49892 0.28226 0.04236 0.0
C252 C 0.25887 0.4947 0.47465 0.0
C253 C 0.28196 0.49757 0.44536 0.0
C254 C 0.23208 0.49457 0.51104 0.0
C255 C 0.20919 0.49723 0.5415 0.0
C256 C 0.07568 0.59167 0.91154 0.0
C257 C 0.06019 0.60023 0.96099 0.0
C258 C 0.09029 0.57621 0.85482 0.0
C259 C 0.09805 0.56028 0.8054 0.0
C260 C 0.91451 0.0885 0.35073 0.0
C261 C 0.93092 0.09623 0.30236 0.0
C262 C 0.89879 0.07419 0.40738 0.0
C263 C 0.89035 0.05912 0.45778 0.0
C264 C 0.41679 0.89812 0.90813 0.0
C265 C 0.432 0.88974 0.95831 0.0
C266 C 0.4025 0.91377 0.85126 0.0
C267 C 0.39489 0.93011 0.8026 0.0
C268 C 0.57637 0.40146 0.35487 0.0
C269 C 0.56026 0.39392 0.30566 0.0
C270 C 0.59214 0.41573 0.41149 0.0
C271 C 0.60086 0.43104 0.46104 0.0
C272 C 0.08864 0.91525 0.13862 0.0
C273 C 0.09647 0.93142 0.18736 0.0
C274 C 0.07436 0.89948 0.08204 0.0
C275 C 0.0594 0.89076 0.0318 0.0
C276 C 0.576 0.08909 0.6365 0.0
C277 C 0.55989 0.0967 0.68567 0.0
C278 C 0.59171 0.07478 0.57982 0.0
C279 C 0.6004 0.05953 0.5301 0.0
C280 C 0.40233 0.5778 0.13934 0.0
C281 C 0.39457 0.56136 0.18771 0.0
C282 C 0.41671 0.59353 0.08264 0.0
C283 C 0.43185 0.60198 0.03229 0.0
C284 C 0.91561 0.40212 0.6362 0.0
C285 C 0.93175 0.39456 0.68533 0.0
C286 C 0.89977 0.41637 0.57962 0.0
C287 C 0.89093 0.43163 0.53005 0.0
C288 C 0.91738 0.39967 0.08114 0.0
C289 C 0.93242 0.391 0.03094 0.0
C290 C 0.9032 0.41542 0.13796 0.0
C291 C 0.89555 0.43164 0.18682 0.0
C292 C 0.07753 0.90152 0.63726 0.0
C293 C 0.06123 0.89404 0.68616 0.0
C294 C 0.09316 0.9159 0.58049 0.0
C295 C 0.10152 0.93133 0.53072 0.0
C296 C 0.58906 0.07608 0.13706 0.0
C297 C 0.59662 0.05985 0.18605 0.0
C298 C 0.57491 0.09199 0.08045 0.0
C299 C 0.55979 0.10085 0.03064 0.0
C300 C 0.39979 0.57556 0.57907 0.0
C301 C 0.39103 0.56017 0.5297 0.0
C302 C 0.41544 0.58998 0.63575 0.0
C303 C 0.4314 0.59765 0.6852 0.0
C304 C 0.90306 0.07656 0.8521 0.0
C305 C 0.89522 0.06046 0.80319 0.0
C306 C 0.91747 0.09208 0.90892 0.0
C307 C 0.93261 0.10058 0.95906 0.0
C308 C 0.39858 0.91738 0.40696 0.0
C309 C 0.39011 0.93239 0.45746 0.0
C310 C 0.41422 0.90294 0.35028 0.0
C311 C 0.43053 0.89498 0.30187 0.0
C312 C 0.5759 0.3988 0.9109 0.0
C313 C 0.56052 0.39032 0.9607 0.0
C314 C 0.59035 0.41445 0.8542 0.0
C315 C 0.59795 0.43069 0.80524 0.0
C316 C 0.09334 0.57461 0.40785 0.0
C317 C 0.10162 0.55944 0.45824 0.0
C318 C 0.07776 0.58906 0.35114 0.0
C319 C 0.06137 0.59686 0.30282 0.0
C320 C 0.90377 0.56807 0.25925 0.0
C321 C 0.88842 0.54862 0.27885 0.0
C322 C 0.92448 0.5886 0.23775 0.0
C323 C 0.94387 0.60374 0.21668 0.0
C324 C 0.90409 0.92517 0.73721 0.0
C325 C 0.88861 0.94427 0.71614 0.0
C326 C 0.92471 0.90453 0.75837 0.0
C327 C 0.94399 0.88899 0.77794 0.0
C328 C 0.56744 0.90314 0.23591 0.0
C329 C 0.54792 0.88813 0.21517 0.0
C330 C 0.5882 0.92354 0.25756 0.0
C331 C 0.60348 0.94295 0.27763 0.0
C332 C 0.5873 0.56738 0.73169 0.0
C333 C 0.60268 0.54799 0.71199 0.0
C334 C 0.56666 0.58792 0.75335 0.0
C335 C 0.54743 0.60318 0.77463 0.0
C336 C 0.08847 0.42425 0.7365 0.0
C337 C 0.1035 0.44374 0.7156 0.0
C338 C 0.06806 0.40345 0.75792 0.0
C339 C 0.04863 0.38813 0.77766 0.0
C340 C 0.06796 0.08835 0.23397 0.0
C341 C 0.04848 0.10358 0.214 0.0
C342 C 0.08848 0.06764 0.25537 0.0
C343 C 0.10357 0.04816 0.27601 0.0
C344 C 0.40392 0.06625 0.73721 0.0
C345 C 0.38858 0.04705 0.71616 0.0
C346 C 0.42437 0.08698 0.75875 0.0
C347 C 0.44355 0.10258 0.77864 0.0
C348 C 0.42395 0.40324 0.23442 0.0
C349 C 0.44345 0.38811 0.214 0.0
C350 C 0.40332 0.42385 0.25594 0.0
C351 C 0.38817 0.44337 0.2761 0.0
loop_
_geom_bond_atom_site_label_1
_geom_bond_atom_site_label_2
_geom_bond_distance
_geom_bond_site_symmetry_2
_ccdc_geom_bond_type
Co0 O1 2.216 1_455 S
Co0 O2 2.091 . S
Co0 O4 2.004 . S
Co0 O10 2.021 . S
Co0 O12 2.137 1_455 S
Co0 O13 2.244 1_455 S
O1 Co0 2.216 1_655 S
O1 C8 1.247 1_655 S
O2 Co0 2.091 . S
O2 C8 1.261 . S
C3 O12 1.247 . S
C3 O13 1.272 . S
O4 Co0 2.004 . S
O4 C9 1.259 . S
Co5 O6 2.061 . S
Co5 O11 2.052 . S
Co5 O13 2.135 1_455 S
O6 Co5 2.061 . S
O6 C9 1.235 . S
C7 O10 1.238 . S
C7 O11 1.241 . S
C8 O1 1.247 1_455 S
C8 O2 1.261 . S
C9 O4 1.259 . S
C9 O6 1.235 . S
O10 Co0 2.021 . S
O10 C7 1.238 . S
O11 Co5 2.052 . S
O11 C7 1.241 . S
O12 Co0 2.137 1_655 S
O12 C3 1.247 . S
O13 Co0 2.244 1_655 S
O13 C3 1.272 . S
O13 Co5 2.135 1_655 S
Co14 O15 2.216 1_545 S
Co14 O16 2.091 . S
Co14 O18 2.004 . S
Co14 O24 2.021 . S
Co14 O26 2.137 1_545 S
Co14 O27 2.244 1_545 S
O15 Co14 2.216 1_565 S
O15 C22 1.247 1_565 S
O16 Co14 2.091 . S
O16 C22 1.261 . S
C17 O26 1.247 . S
C17 O27 1.272 . S
O18 Co14 2.004 . S
O18 C23 1.259 . S
Co19 O20 2.061 . S
Co19 O25 2.052 . S
Co19 O27 2.135 1_545 S
O20 Co19 2.061 . S
O20 C23 1.235 . S
C21 O24 1.238 . S
C21 O25 1.241 . S
C22 O15 1.247 1_545 S
C22 O16 1.261 . S
C23 O18 1.259 . S
C23 O20 1.235 . S
O24 Co14 2.021 . S
O24 C21 1.238 . S
O25 Co19 2.052 . S
O25 C21 1.241 . S
O26 Co14 2.137 1_565 S
O26 C17 1.247 . S
O27 Co14 2.244 1_565 S
O27 C17 1.272 . S
O27 Co19 2.135 1_565 S
Co28 O29 2.216 . S
Co28 O30 2.091 . S
Co28 O32 2.004 . S
Co28 O38 2.021 . S
Co28 O40 2.137 . S
Co28 O41 2.244 . S
O29 Co28 2.216 . S
O29 C36 1.247 . S
O30 Co28 2.091 . S
O30 C36 1.261 . S
C31 O40 1.247 . S
C31 O41 1.272 . S
O32 Co28 2.004 . S
O32 C37 1.259 . S
Co33 O34 2.061 . S
Co33 O39 2.052 . S
Co33 O41 2.135 . S
O34 Co33 2.061 . S
O34 C37 1.235 . S
C35 O38 1.238 . S
C35 O39 1.241 . S
C36 O29 1.247 . S
C36 O30 1.261 . S
C37 O32 1.259 . S
C37 O34 1.235 . S
O38 Co28 2.021 . S
O38 C35 1.238 . S
O39 Co33 2.052 . S
O39 C35 1.241 . S
O40 Co28 2.137 . S
O40 C31 1.247 . S
O41 Co28 2.244 . S
O41 C31 1.272 . S
O41 Co33 2.135 . S
Co42 O43 2.216 . S
Co42 O44 2.091 . S
Co42 O46 2.004 . S
Co42 O52 2.021 . S
Co42 O54 2.137 . S
Co42 O55 2.244 . S
O43 Co42 2.216 . S
O43 C50 1.247 . S
O44 Co42 2.091 . S
O44 C50 1.261 . S
C45 O54 1.247 . S
C45 O55 1.272 . S
O46 Co42 2.004 . S
O46 C51 1.259 . S
Co47 O48 2.061 . S
Co47 O53 2.052 . S
Co47 O55 2.135 . S
O48 Co47 2.061 . S
O48 C51 1.235 . S
C49 O52 1.238 . S
C49 O53 1.241 . S
C50 O43 1.247 . S
C50 O44 1.261 . S
C51 O46 1.259 . S
C51 O48 1.235 . S
O52 Co42 2.021 . S
O52 C49 1.238 . S
O53 Co47 2.052 . S
O53 C49 1.241 . S
O54 Co42 2.137 . S
O54 C45 1.247 . S
O55 Co42 2.244 . S
O55 C45 1.272 . S
O55 Co47 2.135 . S
Co56 O57 2.216 1_455 S
Co56 O58 2.091 . S
Co56 O60 2.004 . S
Co56 O66 2.021 . S
Co56 O68 2.137 1_455 S
Co56 O69 2.244 1_455 S
O57 Co56 2.216 1_655 S
O57 C64 1.247 1_655 S
O58 Co56 2.091 . S
O58 C64 1.261 . S
C59 O68 1.247 . S
C59 O69 1.272 . S
O60 Co56 2.004 . S
O60 C65 1.259 . S
Co61 O62 2.061 . S
Co61 O67 2.052 . S
Co61 O69 2.135 1_455 S
O62 Co61 2.061 . S
O62 C65 1.235 . S
C63 O66 1.238 . S
C63 O67 1.241 . S
C64 O57 1.247 1_455 S
C64 O58 1.261 . S
C65 O60 1.259 . S
C65 O62 1.235 . S
O66 Co56 2.021 . S
O66 C63 1.238 . S
O67 Co61 2.052 . S
O67 C63 1.241 . S
O68 Co56 2.137 1_655 S
O68 C59 1.247 . S
O69 Co56 2.244 1_655 S
O69 C59 1.272 . S
O69 Co61 2.135 1_655 S
Co70 O71 2.216 1_545 S
Co70 O72 2.091 . S
Co70 O74 2.004 . S
Co70 O80 2.021 . S
Co70 O82 2.137 1_545 S
Co70 O83 2.244 1_545 S
O71 Co70 2.216 1_565 S
O71 C78 1.247 1_565 S
O72 Co70 2.091 . S
O72 C78 1.261 . S
C73 O82 1.247 . S
C73 O83 1.272 . S
O74 Co70 2.004 . S
O74 C79 1.259 . S
Co75 O76 2.061 . S
Co75 O81 2.052 . S
Co75 O83 2.135 1_545 S
O76 Co75 2.061 . S
O76 C79 1.235 . S
C77 O80 1.238 . S
C77 O81 1.241 . S
C78 O71 1.247 1_545 S
C78 O72 1.261 . S
C79 O74 1.259 . S
C79 O76 1.235 . S
O80 Co70 2.021 . S
O80 C77 1.238 . S
O81 Co75 2.052 . S
O81 C77 1.241 . S
O82 Co70 2.137 1_565 S
O82 C73 1.247 . S
O83 Co70 2.244 1_565 S
O83 C73 1.272 . S
O83 Co75 2.135 1_565 S
Co84 O85 2.216 . S
Co84 O86 2.091 . S
Co84 O88 2.004 . S
Co84 O94 2.021 . S
Co84 O96 2.137 . S
Co84 O97 2.244 . S
O85 Co84 2.216 . S
O85 C92 1.247 . S
O86 Co84 2.091 . S
O86 C92 1.261 . S
C87 O96 1.247 . S
C87 O97 1.272 . S
O88 Co84 2.004 . S
O88 C93 1.259 . S
Co89 O90 2.061 . S
Co89 O95 2.052 . S
Co89 O97 2.135 . S
O90 Co89 2.061 . S
O90 C93 1.235 . S
C91 O94 1.238 . S
C91 O95 1.241 . S
C92 O85 1.247 . S
C92 O86 1.261 . S
C93 O88 1.259 . S
C93 O90 1.235 . S
O94 Co84 2.021 . S
O94 C91 1.238 . S
O95 Co89 2.052 . S
O95 C91 1.241 . S
O96 Co84 2.137 . S
O96 C87 1.247 . S
O97 Co84 2.244 . S
O97 C87 1.272 . S
O97 Co89 2.135 . S
Co98 O99 2.216 . S
Co98 O100 2.091 . S
Co98 O102 2.004 . S
Co98 O108 2.021 . S
Co98 O110 2.137 . S
Co98 O111 2.244 . S
O99 Co98 2.216 . S
O99 C106 1.247 . S
O100 Co98 2.091 . S
O100 C106 1.261 . S
C101 O110 1.247 . S
C101 O111 1.272 . S
O102 Co98 2.004 . S
O102 C107 1.259 . S
Co103 O104 2.061 . S
Co103 O109 2.052 . S
Co103 O111 2.135 . S
O104 Co103 2.061 . S
O104 C107 1.235 . S
C105 O108 1.238 . S
C105 O109 1.241 . S
C106 O99 1.247 . S
C106 O100 1.261 . S
C107 O102 1.259 . S
C107 O104 1.235 . S
O108 Co98 2.021 . S
O108 C105 1.238 . S
O109 Co103 2.052 . S
O109 C105 1.241 . S
O110 Co98 2.137 . S
O110 C101 1.247 . S
O111 Co98 2.244 . S
O111 C101 1.272 . S
O111 Co103 2.135 . S
Co112 O113 2.216 1_655 S
Co112 O114 2.091 . S
Co112 O116 2.004 . S
Co112 O122 2.021 . S
Co112 O124 2.137 1_655 S
Co112 O125 2.244 1_655 S
O113 Co112 2.216 1_455 S
O113 C120 1.247 1_455 S
O114 Co112 2.091 . S
O114 C120 1.261 . S
C115 O124 1.247 . S
C115 O125 1.272 . S
O116 Co112 2.004 . S
O116 C121 1.259 . S
Co117 O118 2.061 . S
Co117 O123 2.052 . S
Co117 O125 2.135 1_655 S
O118 Co117 2.061 . S
O118 C121 1.235 . S
C119 O122 1.238 . S
C119 O123 1.241 . S
C120 O113 1.247 1_655 S
C120 O114 1.261 . S
C121 O116 1.259 . S
C121 O118 1.235 . S
O122 Co112 2.021 . S
O122 C119 1.238 . S
O123 Co117 2.052 . S
O123 C119 1.241 . S
O124 Co112 2.137 1_455 S
O124 C115 1.247 . S
O125 Co112 2.244 1_455 S
O125 C115 1.272 . S
O125 Co117 2.135 1_455 S
Co126 O127 2.216 1_565 S
Co126 O128 2.091 . S
Co126 O130 2.004 . S
Co126 O136 2.021 . S
Co126 O138 2.137 1_565 S
Co126 O139 2.244 1_565 S
O127 Co126 2.216 1_545 S
O127 C134 1.247 1_545 S
O128 Co126 2.091 . S
O128 C134 1.261 . S
C129 O138 1.247 . S
C129 O139 1.272 . S
O130 Co126 2.004 . S
O130 C135 1.259 . S
Co131 O132 2.061 . S
Co131 O137 2.052 . S
Co131 O139 2.135 1_565 S
O132 Co131 2.061 . S
O132 C135 1.235 . S
C133 O136 1.238 . S
C133 O137 1.241 . S
C134 O127 1.247 1_565 S
C134 O128 1.261 . S
C135 O130 1.259 . S
C135 O132 1.235 . S
O136 Co126 2.021 . S
O136 C133 1.238 . S
O137 Co131 2.052 . S
O137 C133 1.241 . S
O138 Co126 2.137 1_545 S
O138 C129 1.247 . S
O139 Co126 2.244 1_545 S
O139 C129 1.272 . S
O139 Co131 2.135 1_545 S
Co140 O141 2.216 . S
Co140 O142 2.091 . S
Co140 O144 2.004 . S
Co140 O150 2.021 . S
Co140 O152 2.137 . S
Co140 O153 2.244 . S
O141 Co140 2.216 . S
O141 C148 1.247 . S
O142 Co140 2.091 . S
O142 C148 1.261 . S
C143 O152 1.247 . S
C143 O153 1.272 . S
O144 Co140 2.004 . S
O144 C149 1.259 . S
Co145 O146 2.061 . S
Co145 O151 2.052 . S
Co145 O153 2.135 . S
O146 Co145 2.061 . S
O146 C149 1.235 . S
C147 O150 1.238 . S
C147 O151 1.241 . S
C148 O141 1.247 . S
C148 O142 1.261 . S
C149 O144 1.259 . S
C149 O146 1.235 . S
O150 Co140 2.021 . S
O150 C147 1.238 . S
O151 Co145 2.052 . S
O151 C147 1.241 . S
O152 Co140 2.137 . S
O152 C143 1.247 . S
O153 Co140 2.244 . S
O153 C143 1.272 . S
O153 Co145 2.135 . S
Co154 O155 2.216 . S
Co154 O156 2.091 . S
Co154 O158 2.004 . S
Co154 O164 2.021 . S
Co154 O166 2.137 . S
Co154 O167 2.244 . S
O155 Co154 2.216 . S
O155 C162 1.247 . S
O156 Co154 2.091 . S
O156 C162 1.261 . S
C157 O166 1.247 . S
C157 O167 1.272 . S
O158 Co154 2.004 . S
O158 C163 1.259 . S
Co159 O160 2.061 . S
Co159 O165 2.052 . S
Co159 O167 2.135 . S
O160 Co159 2.061 . S
O160 C163 1.235 . S
C161 O164 1.238 . S
C161 O165 1.241 . S
C162 O155 1.247 . S
C162 O156 1.261 . S
C163 O158 1.259 . S
C163 O160 1.235 . S
O164 Co154 2.021 . S
O164 C161 1.238 . S
O165 Co159 2.052 . S
O165 C161 1.241 . S
O166 Co154 2.137 . S
O166 C157 1.247 . S
O167 Co154 2.244 . S
O167 C157 1.272 . S
O167 Co159 2.135 . S
Co168 O169 2.216 1_655 S
Co168 O170 2.091 . S
Co168 O172 2.004 . S
Co168 O178 2.021 . S
Co168 O180 2.137 1_655 S
Co168 O181 2.244 1_655 S
O169 Co168 2.216 1_455 S
O169 C176 1.247 1_455 S
O170 Co168 2.091 . S
O170 C176 1.261 . S
C171 O180 1.247 . S
C171 O181 1.272 . S
O172 Co168 2.004 . S
O172 C177 1.259 . S
Co173 O174 2.061 . S
Co173 O179 2.052 . S
Co173 O181 2.135 1_655 S
O174 Co173 2.061 . S
O174 C177 1.235 . S
C175 O178 1.238 . S
C175 O179 1.241 . S
C176 O169 1.247 1_655 S
C176 O170 1.261 . S
C177 O172 1.259 . S
C177 O174 1.235 . S
O178 Co168 2.021 . S
O178 C175 1.238 . S
O179 Co173 2.052 . S
O179 C175 1.241 . S
O180 Co168 2.137 1_455 S
O180 C171 1.247 . S
O181 Co168 2.244 1_455 S
O181 C171 1.272 . S
O181 Co173 2.135 1_455 S
Co182 O183 2.216 1_565 S
Co182 O184 2.091 . S
Co182 O186 2.004 . S
Co182 O192 2.021 . S
Co182 O194 2.137 1_565 S
Co182 O195 2.244 1_565 S
O183 Co182 2.216 1_545 S
O183 C190 1.247 1_545 S
O184 Co182 2.091 . S
O184 C190 1.261 . S
C185 O194 1.247 . S
C185 O195 1.272 . S
O186 Co182 2.004 . S
O186 C191 1.259 . S
Co187 O188 2.061 . S
Co187 O193 2.052 . S
Co187 O195 2.135 1_565 S
O188 Co187 2.061 . S
O188 C191 1.235 . S
C189 O192 1.238 . S
C189 O193 1.241 . S
C190 O183 1.247 1_565 S
C190 O184 1.261 . S
C191 O186 1.259 . S
C191 O188 1.235 . S
O192 Co182 2.021 . S
O192 C189 1.238 . S
O193 Co187 2.052 . S
O193 C189 1.241 . S
O194 Co182 2.137 1_545 S
O194 C185 1.247 . S
O195 Co182 2.244 1_545 S
O195 C185 1.272 . S
O195 Co187 2.135 1_545 S
Co196 O197 2.216 . S
Co196 O198 2.091 . S
Co196 O200 2.004 . S
Co196 O206 2.021 . S
Co196 O208 2.137 . S
Co196 O209 2.244 . S
O197 Co196 2.216 . S
O197 C204 1.247 . S
O198 Co196 2.091 . S
O198 C204 1.261 . S
C199 O208 1.247 . S
C199 O209 1.272 . S
O200 Co196 2.004 . S
O200 C205 1.259 . S
Co201 O202 2.061 . S
Co201 O207 2.052 . S
Co201 O209 2.135 . S
O202 Co201 2.061 . S
O202 C205 1.235 . S
C203 O206 1.238 . S
C203 O207 1.241 . S
C204 O197 1.247 . S
C204 O198 1.261 . S
C205 O200 1.259 . S
C205 O202 1.235 . S
O206 Co196 2.021 . S
O206 C203 1.238 . S
O207 Co201 2.052 . S
O207 C203 1.241 . S
O208 Co196 2.137 . S
O208 C199 1.247 . S
O209 Co196 2.244 . S
O209 C199 1.272 . S
O209 Co201 2.135 . S
Co210 O211 2.216 . S
Co210 O212 2.091 . S
Co210 O214 2.004 . S
Co210 O220 2.021 . S
Co210 O222 2.137 . S
Co210 O223 2.244 . S
O211 Co210 2.216 . S
O211 C218 1.247 . S
O212 Co210 2.091 . S
O212 C218 1.261 . S
C213 O222 1.247 . S
C213 O223 1.272 . S
O214 Co210 2.004 . S
O214 C219 1.259 . S
Co215 O216 2.061 . S
Co215 O221 2.052 . S
Co215 O223 2.135 . S
O216 Co215 2.061 . S
O216 C219 1.235 . S
C217 O220 1.238 . S
C217 O221 1.241 . S
C218 O211 1.247 . S
C218 O212 1.261 . S
C219 O214 1.259 . S
C219 O216 1.235 . S
O220 Co210 2.021 . S
O220 C217 1.238 . S
O221 Co215 2.052 . S
O221 C217 1.241 . S
O222 Co210 2.137 . S
O222 C213 1.247 . S
O223 Co210 2.244 . S
O223 C213 1.272 . S
O223 Co215 2.135 . S
C224 C225 1.171 . S
C224 C226 1.380 1_554 S
C225 C224 1.171 . S
C226 C224 1.380 1_556 S
C226 C227 1.170 . S
C227 C226 1.170 . S
C228 C229 1.172 . S
C228 C230 1.380 . S
C229 C228 1.172 . S
C230 C228 1.380 . S
C230 C231 1.172 . S
C231 C230 1.172 . S
C232 C233 1.170 . S
C232 C234 1.380 1_554 S
C233 C232 1.170 . S
C234 C232 1.380 1_556 S
C234 C235 1.170 . S
C235 C234 1.170 . S
C236 C237 1.170 . S
C236 C238 1.380 . S
C237 C236 1.170 . S
C238 C236 1.380 . S
C238 C239 1.170 . S
C239 C238 1.170 . S
C240 C241 1.172 . S
C240 C242 1.380 1_556 S
C241 C240 1.172 . S
C242 C240 1.380 1_554 S
C242 C243 1.172 . S
C243 C242 1.172 . S
C244 C245 1.169 1_565 S
C244 C246 1.381 . S
C245 C244 1.169 1_545 S
C246 C244 1.381 . S
C246 C247 1.171 . S
C247 C246 1.171 . S
C248 C249 1.170 . S
C248 C250 1.380 1_556 S
C249 C248 1.170 . S
C250 C248 1.380 1_554 S
C250 C251 1.170 . S
C251 C250 1.170 . S
C252 C253 1.170 . S
C252 C254 1.380 . S
C253 C252 1.170 . S
C254 C252 1.380 . S
C254 C255 1.170 . S
C255 C254 1.170 . S
C256 C257 1.170 . S
C256 C258 1.380 . S
C257 C256 1.170 . S
C258 C256 1.380 . S
C258 C259 1.170 . S
C259 C258 1.170 . S
C260 C261 1.170 . S
C260 C262 1.380 . S
C261 C260 1.170 . S
C262 C260 1.380 . S
C262 C263 1.170 . S
C263 C262 1.170 . S
C264 C265 1.170 . S
C264 C266 1.380 . S
C265 C264 1.170 . S
C266 C264 1.380 . S
C266 C267 1.170 . S
C267 C266 1.170 . S
C268 C269 1.170 . S
C268 C270 1.380 . S
C269 C268 1.170 . S
C270 C268 1.380 . S
C270 C271 1.170 . S
C271 C270 1.170 . S
C272 C273 1.170 . S
C272 C274 1.380 . S
C273 C272 1.170 . S
C274 C272 1.380 . S
C274 C275 1.170 . S
C275 C274 1.170 . S
C276 C277 1.170 . S
C276 C278 1.380 . S
C277 C276 1.170 . S
C278 C276 1.380 . S
C278 C279 1.170 . S
C279 C278 1.170 . S
C280 C281 1.170 . S
C280 C282 1.380 . S
C281 C280 1.170 . S
C282 C280 1.380 . S
C282 C283 1.170 . S
C283 C282 1.170 . S
C284 C285 1.170 . S
C284 C286 1.380 . S
C285 C284 1.170 . S
C286 C284 1.380 . S
C286 C287 1.170 . S
C287 C286 1.170 . S
C288 C289 1.170 . S
C288 C290 1.380 . S
C289 C288 1.170 . S
C290 C288 1.380 . S
C290 C291 1.170 . S
C291 C290 1.170 . S
C292 C293 1.170 . S
C292 C294 1.380 . S
C293 C292 1.170 . S
C294 C292 1.380 . S
C294 C295 1.170 . S
C295 C294 1.170 . S
C296 C297 1.170 . S
C296 C298 1.380 . S
C297 C296 1.170 . S
C298 C296 1.380 . S
C298 C299 1.170 . S
C299 C298 1.170 . S
C300 C301 1.170 . S
C300 C302 1.380 . S
C301 C300 1.170 . S
C302 C300 1.380 . S
C302 C303 1.170 . S
C303 C302 1.170 . S
C304 C305 1.170 . S
C304 C306 1.380 . S
C305 C304 1.170 . S
C306 C304 1.380 . S
C306 C307 1.170 . S
C307 C306 1.170 . S
C308 C309 1.170 . S
C308 C310 1.380 . S
C309 C308 1.170 . S
C310 C308 1.380 . S
C310 C311 1.170 . S
C311 C310 1.170 . S
C312 C313 1.170 . S
C312 C314 1.380 . S
C313 C312 1.170 . S
C314 C312 1.380 . S
C314 C315 1.170 . S
C315 C314 1.170 . S
C316 C317 1.170 . S
C316 C318 1.380 . S
C317 C316 1.170 . S
C318 C316 1.380 . S
C318 C319 1.170 . S
C319 C318 1.170 . S
C320 C321 1.170 . S
C320 C322 1.380 . S
C321 C320 1.170 . S
C322 C320 1.380 . S
C322 C323 1.170 . S
C323 C322 1.170 . S
C324 C325 1.170 . S
C324 C326 1.380 . S
C325 C324 1.170 . S
C326 C324 1.380 . S
C326 C327 1.170 . S
C327 C326 1.170 . S
C328 C329 1.170 . S
C328 C330 1.380 . S
C329 C328 1.170 . S
C330 C328 1.380 . S
C330 C331 1.170 . S
C331 C330 1.170 . S
C332 C333 1.170 . S
C332 C334 1.380 . S
C333 C332 1.170 . S
C334 C332 1.380 . S
C334 C335 1.170 . S
C335 C334 1.170 . S
C336 C337 1.170 . S
C336 C338 1.380 . S
C337 C336 1.170 . S
C338 C336 1.380 . S
C338 C339 1.170 . S
C339 C338 1.170 . S
C340 C341 1.170 . S
C340 C342 1.380 . S
C341 C340 1.170 . S
C342 C340 1.380 . S
C342 C343 1.170 . S
C343 C342 1.170 . S
C344 C345 1.170 . S
C344 C346 1.380 . S
C345 C344 1.170 . S
C346 C344 1.380 . S
C346 C347 1.170 . S
C347 C346 1.170 . S
C348 C349 1.170 . S
C348 C350 1.380 . S
C349 C348 1.170 . S
C350 C348 1.380 . S
C350 C351 1.170 . S
C351 C350 1.170 . S
C225 C8 1.200 . S
C227 C64 1.200 . S
C229 C78 1.202 . S
C231 C22 1.200 . S
C233 C36 1.217 . S
C235 C92 1.218 . S
C237 C50 1.203 . S
C239 C106 1.207 . S
C241 C120 1.204 . S
C243 C176 1.204 . S
C245 C190 1.210 1_545 S
C247 C134 1.200 . S
C249 C148 1.210 . S
C251 C204 1.198 . S
C253 C162 1.218 . S
C255 C218 1.208 . S
C257 C7 1.428 1_556 S
C259 C219 1.469 . S
C261 C177 1.441 . S
C263 C21 1.453 . S
C265 C35 1.463 1_556 S
C267 C191 1.460 . S
C269 C205 1.472 . S
C271 C49 1.431 . S
C273 C135 1.442 . S
C275 C63 1.438 1_554 S
C277 C149 1.451 . S
C279 C77 1.427 . S
C281 C163 1.458 . S
C283 C91 1.464 1_554 S
C285 C121 1.456 . S
C287 C105 1.425 . S
C289 C119 1.427 1_554 S
C291 C107 1.440 . S
C293 C65 1.475 . S
C295 C133 1.461 . S
C297 C79 1.442 . S
C299 C147 1.424 1_554 S
C301 C161 1.436 . S
C303 C93 1.459 . S
C305 C23 1.441 . S
C307 C175 1.430 1_556 S
C309 C189 1.450 . S
C311 C37 1.454 . S
C313 C203 1.458 1_556 S
C315 C51 1.474 . S
C317 C217 1.461 . S
C319 C9 1.466 . S
C321 C101 1.245 . S
C323 C3 1.244 . S
C325 C17 1.226 . S
C327 C59 1.226 . S
C329 C31 1.250 . S
C331 C73 1.251 . S
C333 C45 1.239 . S
C335 C87 1.238 . S
C337 C213 1.241 . S
C339 C115 1.253 . S
C341 C171 1.253 . S
C343 C129 1.245 . S
C345 C185 1.221 . S
C347 C143 1.237 . S
C349 C199 1.249 . S
C351 C157 1.251 . S
