# Generated by pormake.
# Topology yfq, (5)-cn, num edge types: 1
# Building blocks:
#     Node 0, Type 0, BuildingBlock: XOMCOT_clean_sbu_1, # of connection points: 5
#     Node 1, Type 0, BuildingBlock: XOMCOT_clean_sbu_1, # of connection points: 5
#     Node 2, Type 0, BuildingBlock: XOMCOT_clean_sbu_1, # of connection points: 5
#     Node 3, Type 0, BuildingBlock: XOMCOT_clean_sbu_1, # of connection points: 5
#     Node 4, Type 0, BuildingBlock: XOMCOT_clean_sbu_1, # of connection points: 5
#     Node 5, Type 0, BuildingBlock: XOMCOT_clean_sbu_1, # of connection points: 5
#     Node 6, Type 0, BuildingBlock: XOMCOT_clean_sbu_1, # of connection points: 5
#     Node 7, Type 0, BuildingBlock: XOMCOT_clean_sbu_1, # of connection points: 5
#     Node 8, Type 0, BuildingBlock: XOMCOT_clean_sbu_1, # of connection points: 5
#     Node 9, Type 0, BuildingBlock: XOMCOT_clean_sbu_1, # of connection points: 5
#     Node 10, Type 0, BuildingBlock: XOMCOT_clean_sbu_1, # of connection points: 5
#     Node 11, Type 0, BuildingBlock: XOMCOT_clean_sbu_1, # of connection points: 5
#     Node 12, Type 0, BuildingBlock: XOMCOT_clean_sbu_1, # of connection points: 5
#     Node 13, Type 0, BuildingBlock: XOMCOT_clean_sbu_1, # of connection points: 5
#     Node 14, Type 0, BuildingBlock: XOMCOT_clean_sbu_1, # of connection points: 5
#     Node 15, Type 0, BuildingBlock: XOMCOT_clean_sbu_1, # of connection points: 5
#     Node 16, Type 0, BuildingBlock: XOMCOT_clean_sbu_1, # of connection points: 5
#     Node 17, Type 0, BuildingBlock: XOMCOT_clean_sbu_1, # of connection points: 5
#     Node 18, Type 0, BuildingBlock: XOMCOT_clean_sbu_1, # of connection points: 5
#     Node 19, Type 0, BuildingBlock: XOMCOT_clean_sbu_1, # of connection points: 5
#     Node 20, Type 0, BuildingBlock: XOMCOT_clean_sbu_1, # of connection points: 5
#     Node 21, Type 0, BuildingBlock: XOMCOT_clean_sbu_1, # of connection points: 5
#     Node 22, Type 0, BuildingBlock: XOMCOT_clean_sbu_1, # of connection points: 5
#     Node 23, Type 0, BuildingBlock: XOMCOT_clean_sbu_1, # of connection points: 5
#     Node 24, Type 0, BuildingBlock: XOMCOT_clean_sbu_1, # of connection points: 5
#     Node 25, Type 0, BuildingBlock: XOMCOT_clean_sbu_1, # of connection points: 5
#     Node 26, Type 0, BuildingBlock: XOMCOT_clean_sbu_1, # of connection points: 5
#     Node 27, Type 0, BuildingBlock: XOMCOT_clean_sbu_1, # of connection points: 5
#     Node 28, Type 0, BuildingBlock: XOMCOT_clean_sbu_1, # of connection points: 5
#     Node 29, Type 0, BuildingBlock: XOMCOT_clean_sbu_1, # of connection points: 5
#     Node 30, Type 0, BuildingBlock: XOMCOT_clean_sbu_1, # of connection points: 5
#     Node 31, Type 0, BuildingBlock: XOMCOT_clean_sbu_1, # of connection points: 5
#     Edge 32, Type (0, 0), None
#     Edge 33, Type (0, 0), None
#     Edge 34, Type (0, 0), None
#     Edge 35, Type (0, 0), None
#     Edge 36, Type (0, 0), None
#     Edge 37, Type (0, 0), None
#     Edge 38, Type (0, 0), None
#     Edge 39, Type (0, 0), None
#     Edge 40, Type (0, 0), None
#     Edge 41, Type (0, 0), None
#     Edge 42, Type (0, 0), None
#     Edge 43, Type (0, 0), None
#     Edge 44, Type (0, 0), None
#     Edge 45, Type (0, 0), None
#     Edge 46, Type (0, 0), None
#     Edge 47, Type (0, 0), None
#     Edge 48, Type (0, 0), None
#     Edge 49, Type (0, 0), None
#     Edge 50, Type (0, 0), None
#     Edge 51, Type (0, 0), None
#     Edge 52, Type (0, 0), None
#     Edge 53, Type (0, 0), None
#     Edge 54, Type (0, 0), None
#     Edge 55, Type (0, 0), None
#     Edge 56, Type (0, 0), None
#     Edge 57, Type (0, 0), None
#     Edge 58, Type (0, 0), None
#     Edge 59, Type (0, 0), None
#     Edge 60, Type (0, 0), None
#     Edge 61, Type (0, 0), None
#     Edge 62, Type (0, 0), None
#     Edge 63, Type (0, 0), None
#     Edge 64, Type (0, 0), None
#     Edge 65, Type (0, 0), None
#     Edge 66, Type (0, 0), None
#     Edge 67, Type (0, 0), None
#     Edge 68, Type (0, 0), None
#     Edge 69, Type (0, 0), None
#     Edge 70, Type (0, 0), None
#     Edge 71, Type (0, 0), None
#     Edge 72, Type (0, 0), None
#     Edge 73, Type (0, 0), None
#     Edge 74, Type (0, 0), None
#     Edge 75, Type (0, 0), None
#     Edge 76, Type (0, 0), None
#     Edge 77, Type (0, 0), None
#     Edge 78, Type (0, 0), None
#     Edge 79, Type (0, 0), None
#     Edge 80, Type (0, 0), None
#     Edge 81, Type (0, 0), None
#     Edge 82, Type (0, 0), None
#     Edge 83, Type (0, 0), None
#     Edge 84, Type (0, 0), None
#     Edge 85, Type (0, 0), None
#     Edge 86, Type (0, 0), None
#     Edge 87, Type (0, 0), None
#     Edge 88, Type (0, 0), None
#     Edge 89, Type (0, 0), None
#     Edge 90, Type (0, 0), None
#     Edge 91, Type (0, 0), None
#     Edge 92, Type (0, 0), None
#     Edge 93, Type (0, 0), None
#     Edge 94, Type (0, 0), None
#     Edge 95, Type (0, 0), None
#     Edge 96, Type (0, 0), None
#     Edge 97, Type (0, 0), None
#     Edge 98, Type (0, 0), None
#     Edge 99, Type (0, 0), None
#     Edge 100, Type (0, 0), None
#     Edge 101, Type (0, 0), None
#     Edge 102, Type (0, 0), None
#     Edge 103, Type (0, 0), None
#     Edge 104, Type (0, 0), None
#     Edge 105, Type (0, 0), None
#     Edge 106, Type (0, 0), None
#     Edge 107, Type (0, 0), None
#     Edge 108, Type (0, 0), None
#     Edge 109, Type (0, 0), None
#     Edge 110, Type (0, 0), None
#     Edge 111, Type (0, 0), None
# Relax obj value: 0.590
# Max RMSD: 0.299
# Mean RMSD: 0.299
data_MOF--net-yfq--node1-XOMCOT_clean_sbu_1--edge1-none
_symmetry_space_group_name_H-M    P1
_symmetry_Int_Tables_number       1
_symmetry_cell_setting            triclinic
loop_
_symmetry_equiv_pos_as_xyz
'x, y, z'
_cell_length_a     24.652317
_cell_length_b     24.652469
_cell_length_c     34.127743
_cell_angle_alpha  90.0
_cell_angle_beta   90.0
_cell_angle_gamma 90.000248
loop_
_atom_site_label
_atom_site_type_symbol
_atom_site_fract_x
_atom_site_fract_y
_atom_site_fract_z
_atom_type_partial_charge
C0 C 0.21114 0.21278 0.30478 0.0
C1 C 0.22304 0.243 0.33722 0.0
N2 N 0.19452 0.2893 0.33531 0.0
N3 N 0.17586 0.24003 0.28187 0.0
C4 C 0.16679 0.28685 0.30102 0.0
H5 H 0.22532 0.17204 0.29901 0.0
Co6 Co 0.1533 0.20855 0.23513 0.0
C7 C 0.04301 0.25065 0.21336 0.0
O8 O 0.0278 0.20006 0.20889 0.0
N9 N 0.13479 0.17389 0.18678 0.0
C10 C 0.10157 0.1192 0.14014 0.0
C11 C 0.10723 0.12717 0.17993 0.0
C12 C 0.14655 0.19264 0.15032 0.0
N13 N 0.12666 0.16024 0.12181 0.0
O14 O 0.20548 0.2547 0.21012 0.0
H15 H 0.09047 0.10089 0.20209 0.0
H16 H 0.16846 0.22979 0.14458 0.0
O17 O 0.09245 0.26202 0.22387 0.0
C18 C 0.25444 0.24797 0.22175 0.0
O19 O 0.27038 0.1996 0.23298 0.0
N20 N 0.10586 0.16611 0.26531 0.0
C21 C 0.06318 0.12034 0.33281 0.0
C22 C 0.04813 0.17211 0.32156 0.0
C23 C 0.07069 0.19463 0.2887 0.0
C24 C 0.12047 0.11453 0.27551 0.0
C25 C 0.09856 0.09019 0.30919 0.0
H26 H 0.06428 0.23752 0.2856 0.0
H27 H 0.1519 0.09381 0.25922 0.0
H28 H 0.13616 0.31591 0.29223 0.0
H29 H 0.24511 0.22889 0.36271 0.0
H30 H 0.08103 0.08586 0.12583 0.0
H31 H 1.02091 0.1962 0.33942 0.0
H32 H 0.1109 0.04977 0.31765 0.0
C33 C 0.08055 0.96115 0.5548 0.0
C34 C 0.05033 0.97306 0.58723 0.0
N35 N 1.00401 0.94455 0.58532 0.0
N36 N 0.05327 0.9259 0.53188 0.0
C37 C 1.00645 0.91684 0.55102 0.0
H38 H 0.12129 0.97532 0.54903 0.0
Co39 Co 0.08474 0.90332 0.48514 0.0
C40 C 0.0426 0.79303 0.4634 0.0
O41 O 0.09319 0.77781 0.45891 0.0
N42 N 0.11938 0.88479 0.43679 0.0
C43 C 0.17405 0.85154 0.39014 0.0
C44 C 0.16608 0.85721 0.42993 0.0
C45 C 0.10063 0.89657 0.40032 0.0
N46 N 0.13302 0.87666 0.37181 0.0
O47 O 0.03859 0.9555 0.46012 0.0
H48 H 0.19235 0.84043 0.45209 0.0
H49 H 0.06349 0.9185 0.39459 0.0
O50 O 0.03124 0.84248 0.4739 0.0
C51 C 0.04531 1.00446 0.47176 0.0
O52 O 0.09368 1.0204 0.483 0.0
N53 N 0.12717 0.85587 0.51532 0.0
C54 C 0.17296 0.81316 0.5828 0.0
C55 C 0.12117 0.79814 0.57156 0.0
C56 C 0.09864 0.82072 0.53871 0.0
C57 C 0.17876 0.87045 0.52551 0.0
C58 C 0.20311 0.84853 0.55917 0.0
H59 H 0.05575 0.81433 0.53563 0.0
H60 H 0.19949 0.90187 0.50921 0.0
H61 H 0.97737 0.88623 0.54222 0.0
H62 H 0.06445 0.9951 0.61273 0.0
H63 H 0.20737 0.83099 0.37583 0.0
H64 H 0.09707 0.77093 0.58942 0.0
H65 H 0.24354 0.86084 0.56762 0.0
C66 C 0.33213 0.83049 0.80478 0.0
C67 C 0.32022 0.80026 0.83722 0.0
N68 N 0.34875 0.75396 0.83531 0.0
N69 N 0.36741 0.80323 0.78187 0.0
C70 C 0.37648 0.75641 0.80102 0.0
H71 H 0.31795 0.87122 0.79901 0.0
Co72 Co 0.38997 0.83472 0.73513 0.0
C73 C 0.50026 0.79261 0.71336 0.0
O74 O 0.51547 0.8432 0.70889 0.0
N75 N 0.40848 0.86938 0.68678 0.0
C76 C 0.4417 0.92407 0.64014 0.0
C77 C 0.43603 0.91609 0.67993 0.0
C78 C 0.39672 0.85062 0.65032 0.0
N79 N 0.41661 0.88302 0.62181 0.0
O80 O 0.33779 0.78856 0.71012 0.0
H81 H 0.4528 0.94238 0.70209 0.0
H82 H 0.37481 0.81347 0.64458 0.0
O83 O 0.45082 0.78124 0.72387 0.0
C84 C 0.28883 0.79529 0.72175 0.0
O85 O 0.27289 0.84366 0.73298 0.0
N86 N 0.43741 0.87715 0.76531 0.0
C87 C 0.48009 0.92293 0.83281 0.0
C88 C 0.49514 0.87115 0.82156 0.0
C89 C 0.47257 0.84863 0.7887 0.0
C90 C 0.4228 0.92873 0.77551 0.0
C91 C 0.44471 0.95308 0.80919 0.0
H92 H 0.47899 0.80574 0.7856 0.0
H93 H 0.39137 0.94945 0.75922 0.0
H94 H 0.40711 0.72735 0.79223 0.0
H95 H 0.29816 0.81437 0.86271 0.0
H96 H 0.46224 0.9574 0.62583 0.0
H97 H 0.52236 0.84706 0.83942 0.0
H98 H 0.43237 0.99349 0.81765 0.0
C99 C 0.46272 0.08211 0.0548 0.0
C100 C 0.49294 0.07021 0.08723 0.0
N101 N 0.53926 0.09871 0.08532 0.0
N102 N 0.49 0.11737 0.03188 0.0
C103 C 0.53682 0.12643 0.05102 0.0
H104 H 0.42198 0.06794 0.04903 0.0
Co105 Co 0.45853 0.13994 -0.01486 0.0
C106 C 0.50067 0.25024 0.9634 0.0
O107 O 0.45008 0.26545 0.95891 0.0
N108 N 0.42389 0.15847 0.93679 0.0
C109 C 0.36922 0.19172 0.89014 0.0
C110 C 0.37719 0.18605 0.92993 0.0
C111 C 0.44264 0.14669 0.90032 0.0
N112 N 0.41025 0.1666 0.87181 0.0
O113 O 0.50468 0.08776 0.96012 0.0
H114 H 0.35092 0.20283 0.95209 0.0
H115 H 0.47977 0.12476 0.89459 0.0
O116 O 0.51203 0.20078 0.9739 0.0
C117 C 0.49796 0.0388 0.97176 0.0
O118 O 0.44959 0.02286 -0.017 0.0
N119 N 0.4161 0.18739 0.01532 0.0
C120 C 0.37031 0.2301 0.0828 0.0
C121 C 0.4221 0.24513 0.07156 0.0
C122 C 0.44463 0.22254 0.03871 0.0
C123 C 0.36451 0.17281 0.02551 0.0
C124 C 0.34015 0.19473 0.05917 0.0
H125 H 0.48752 0.22893 0.03563 0.0
H126 H 0.34378 0.14139 0.00921 0.0
H127 H 0.5659 0.15703 0.04222 0.0
H128 H 0.47882 0.04816 0.11273 0.0
H129 H 0.3359 0.21228 0.87583 0.0
H130 H 0.4462 0.27233 0.08942 0.0
H131 H 0.29973 0.18242 0.06762 0.0
C132 C 0.21113 0.83049 0.14793 0.0
C133 C 0.22304 0.80027 0.1155 0.0
N134 N 0.19451 0.75396 0.1174 0.0
N135 N 0.17586 0.80323 0.17084 0.0
C136 C 0.16678 0.75641 0.15169 0.0
H137 H 0.22532 0.87122 0.1537 0.0
Co138 Co 0.1533 0.83472 0.21758 0.0
C139 C 0.04301 0.79261 0.23936 0.0
O140 O 0.0278 0.8432 0.24383 0.0
N141 N 0.13479 0.86938 0.26593 0.0
C142 C 0.10158 0.92406 0.31258 0.0
C143 C 0.10724 0.91609 0.27279 0.0
C144 C 0.14657 0.85063 0.30239 0.0
N145 N 0.12669 0.88303 0.33091 0.0
O146 O 0.20548 0.78856 0.2426 0.0
H147 H 0.09046 0.94237 0.25063 0.0
H148 H 0.16847 0.81347 0.30813 0.0
O149 O 0.09245 0.78124 0.22885 0.0
C150 C 0.25444 0.79529 0.23096 0.0
O151 O 0.27038 0.84366 0.21973 0.0
N152 N 0.10586 0.87715 0.1874 0.0
C153 C 0.06318 0.92292 0.1199 0.0
C154 C 0.04813 0.87115 0.13116 0.0
C155 C 0.07069 0.84863 0.16402 0.0
C156 C 0.12046 0.92873 0.1772 0.0
C157 C 0.09856 0.95308 0.14353 0.0
H158 H 0.06428 0.80574 0.16711 0.0
H159 H 0.15189 0.94945 0.19349 0.0
H160 H 0.13616 0.72735 0.16049 0.0
H161 H 0.24511 0.81437 0.09001 0.0
H162 H 0.08103 0.95739 0.32689 0.0
H163 H 1.02091 0.84706 0.1133 0.0
H164 H 0.11089 0.99349 0.13507 0.0
C165 C 0.46272 0.96114 0.39792 0.0
C166 C 0.49294 0.97305 0.36548 0.0
N167 N 0.53926 0.94455 0.36739 0.0
N168 N 0.49 0.92589 0.42083 0.0
C169 C 0.53682 0.91683 0.40169 0.0
H170 H 0.42198 0.97531 0.40368 0.0
Co171 Co 0.45853 0.90332 0.46757 0.0
C172 C 0.50067 0.79303 0.48932 0.0
O173 O 0.45008 0.77781 0.49381 0.0
N174 N 0.42389 0.88479 0.51593 0.0
C175 C 0.36922 0.85155 0.56258 0.0
C176 C 0.37719 0.85721 0.52279 0.0
C177 C 0.44263 0.89659 0.55239 0.0
N178 N 0.41025 0.87669 0.5809 0.0
O179 O 0.50468 0.9555 0.49259 0.0
H180 H 0.35092 0.84041 0.50064 0.0
H181 H 0.47978 0.91851 0.55813 0.0
O182 O 0.51203 0.84248 0.47882 0.0
C183 C 0.49796 1.00446 0.48095 0.0
O184 O 0.44959 1.0204 0.46971 0.0
N185 N 0.4161 0.85587 0.4374 0.0
C186 C 0.37031 0.81316 0.36991 0.0
C187 C 0.4221 0.79813 0.38115 0.0
C188 C 0.44463 0.82072 0.41401 0.0
C189 C 0.36451 0.87045 0.42721 0.0
C190 C 0.34016 0.84853 0.39354 0.0
H191 H 0.48752 0.81433 0.41709 0.0
H192 H 0.34378 0.90187 0.44351 0.0
H193 H 0.5659 0.88623 0.41049 0.0
H194 H 0.47882 0.9951 0.33998 0.0
H195 H 0.33591 0.83098 0.57689 0.0
H196 H 0.4462 0.77092 0.3633 0.0
H197 H 0.29973 0.86084 0.38509 0.0
C198 C 0.33214 0.21277 0.64793 0.0
C199 C 0.32023 0.243 0.6155 0.0
N200 N 0.34876 0.2893 0.6174 0.0
N201 N 0.36741 0.24003 0.67084 0.0
C202 C 0.37649 0.28685 0.65169 0.0
H203 H 0.31795 0.17204 0.6537 0.0
Co204 Co 0.38997 0.20855 0.71758 0.0
C205 C 0.50026 0.25065 0.73936 0.0
O206 O 0.51547 0.20006 0.74383 0.0
N207 N 0.40848 0.17388 0.76593 0.0
C208 C 0.44169 0.1192 0.81258 0.0
C209 C 0.43603 0.12717 0.77279 0.0
C210 C 0.3967 0.19264 0.80239 0.0
N211 N 0.41658 0.16024 0.83091 0.0
O212 O 0.33779 0.2547 0.7426 0.0
H213 H 0.45281 0.10089 0.75063 0.0
H214 H 0.3748 0.22979 0.80813 0.0
O215 O 0.45082 0.26202 0.72885 0.0
C216 C 0.28883 0.24797 0.73096 0.0
O217 O 0.27289 0.1996 0.71973 0.0
N218 N 0.43741 0.16611 0.6874 0.0
C219 C 0.48009 0.12034 0.6199 0.0
C220 C 0.49514 0.17211 0.63116 0.0
C221 C 0.47258 0.19464 0.66402 0.0
C222 C 0.4228 0.11453 0.6772 0.0
C223 C 0.44471 0.09019 0.64353 0.0
H224 H 0.47899 0.23752 0.66711 0.0
H225 H 0.39138 0.09381 0.69349 0.0
H226 H 0.40711 0.31591 0.66049 0.0
H227 H 0.29816 0.22889 0.59001 0.0
H228 H 0.46224 0.08587 0.82689 0.0
H229 H 0.52236 0.1962 0.6133 0.0
H230 H 0.43238 0.04977 0.63507 0.0
C231 C 0.08055 0.08212 0.89792 0.0
C232 C 0.05033 0.07021 0.86548 0.0
N233 N 1.00401 0.09872 0.86739 0.0
N234 N 0.05327 0.11737 0.92083 0.0
C235 C 1.00645 0.12643 0.90169 0.0
H236 H 0.12129 0.06795 0.90368 0.0
Co237 Co 0.08474 0.13994 0.96757 0.0
C238 C 0.0426 0.25024 -0.01068 0.0
O239 O 0.09319 0.26545 -0.00619 0.0
N240 N 0.11938 0.15847 0.01593 0.0
C241 C 0.17404 0.19171 0.06258 0.0
C242 C 0.16608 0.18605 0.02279 0.0
C243 C 0.10063 0.14668 0.05239 0.0
N244 N 0.13302 0.16657 0.0809 0.0
O245 O 0.03859 0.08776 -0.00741 0.0
H246 H 0.19234 0.20285 0.00064 0.0
H247 H 0.06349 0.12475 0.05813 0.0
O248 O 0.03124 0.20078 -0.02118 0.0
C249 C 0.04531 0.0388 -0.01905 0.0
O250 O 0.09368 0.02286 0.96971 0.0
N251 N 0.12717 0.1874 0.9374 0.0
C252 C 0.17296 0.23011 0.86991 0.0
C253 C 0.12117 0.24513 0.88115 0.0
C254 C 0.09864 0.22255 0.91401 0.0
C255 C 0.17876 0.17281 0.92721 0.0
C256 C 0.20311 0.19474 0.89354 0.0
H257 H 0.05575 0.22894 0.91709 0.0
H258 H 0.19949 0.1414 0.94351 0.0
H259 H 0.97737 0.15704 0.91049 0.0
H260 H 0.06445 0.04817 0.83998 0.0
H261 H 0.20736 0.21228 0.07689 0.0
H262 H 0.09707 0.27234 0.8633 0.0
H263 H 0.24354 0.18242 0.88509 0.0
C264 C 0.83215 0.83057 0.64789 0.0
C265 C 0.82025 0.80034 0.61546 0.0
N266 N 0.84875 0.75403 0.61738 0.0
N267 N 0.86741 0.80331 0.67081 0.0
C268 C 0.87647 0.75648 0.65167 0.0
H269 H 0.81797 0.8713 0.65365 0.0
Co270 Co 0.88997 0.83476 0.71755 0.0
C271 C 1.00027 0.79262 0.73929 0.0
O272 O 1.0155 0.84321 0.74378 0.0
N273 N 0.9085 0.86939 0.76591 0.0
C274 C 0.94175 0.92405 0.81257 0.0
C275 C 0.93608 0.91608 0.77277 0.0
C276 C 0.89671 0.85064 0.80237 0.0
N277 N 0.91662 0.88302 0.83089 0.0
O278 O 0.83781 0.78858 0.74256 0.0
H279 H 0.95287 0.94236 0.75062 0.0
H280 H 0.87477 0.8135 0.8081 0.0
O281 O 0.95082 0.78128 0.72878 0.0
C282 C 0.78885 0.79531 0.73092 0.0
O283 O 0.7729 0.84368 0.71969 0.0
N284 N 0.9374 0.87722 0.68738 0.0
C285 C 0.97999 0.92307 0.61987 0.0
C286 C 0.9951 0.8713 0.63111 0.0
C287 C 0.97258 0.84874 0.66398 0.0
C288 C 0.92275 0.9288 0.6772 0.0
C289 C 0.9446 0.95317 0.64352 0.0
H290 H 0.97902 0.80586 0.66706 0.0
H291 H 0.89131 0.94949 0.69351 0.0
H292 H 0.90708 0.72741 0.66048 0.0
H293 H 0.79819 0.81444 0.58996 0.0
H294 H 0.9623 0.95737 0.82688 0.0
H295 H 0.02233 0.84724 0.61325 0.0
H296 H 0.93222 0.99358 0.63507 0.0
C297 C 0.96272 0.08208 0.39795 0.0
C298 C 0.99289 0.07025 0.36547 0.0
N299 N 0.0391 0.0989 0.36736 0.0
N300 N 0.98997 0.11739 0.42085 0.0
C301 C 0.03673 0.12657 0.40167 0.0
H302 H 0.92201 0.06784 0.40375 0.0
Co303 Co 0.95851 0.13996 0.46759 0.0
C304 C 1.00067 0.25024 0.48935 0.0
O305 O 0.95008 0.26546 0.49385 0.0
N306 N 0.92387 0.15848 0.51595 0.0
C307 C 0.8692 0.19171 0.5626 0.0
C308 C 0.87717 0.18604 0.52281 0.0
C309 C 0.94263 0.14671 0.55241 0.0
N310 N 0.91025 0.16661 0.58092 0.0
O311 O 1.00466 0.08777 0.4926 0.0
H312 H 0.85088 0.2028 0.50065 0.0
H313 H 0.97978 0.1248 0.55814 0.0
O314 O 1.01201 0.20079 0.47884 0.0
C315 C 0.99794 0.03881 0.48097 0.0
O316 O 0.94956 0.02285 0.46976 0.0
N317 N 0.91607 0.18741 0.43742 0.0
C318 C 0.8703 0.23006 0.3699 0.0
C319 C 0.92207 0.24514 0.38116 0.0
C320 C 0.94459 0.22259 0.41404 0.0
C321 C 0.8645 0.17279 0.42721 0.0
C322 C 0.84015 0.19468 0.39353 0.0
H323 H 0.98747 0.22902 0.41713 0.0
H324 H 0.84378 0.14136 0.4435 0.0
H325 H 0.06576 0.15723 0.41044 0.0
H326 H 0.97878 0.04818 0.33998 0.0
H327 H 0.83587 0.21224 0.57691 0.0
H328 H 0.94615 0.27236 0.36331 0.0
H329 H 0.79974 0.18233 0.38506 0.0
C330 C 0.71112 0.2127 0.14789 0.0
C331 C 0.72302 0.24293 0.11546 0.0
N332 N 0.69451 0.28924 0.11738 0.0
N333 N 0.67586 0.23996 0.17081 0.0
C334 C 0.66679 0.28678 0.15167 0.0
H335 H 0.7253 0.17196 0.15365 0.0
Co336 Co 0.6533 0.2085 0.21755 0.0
C337 C 0.543 0.25064 0.23929 0.0
O338 O 0.52777 0.20006 0.24378 0.0
N339 N 0.63477 0.17387 0.26591 0.0
C340 C 0.60152 0.11922 0.31257 0.0
C341 C 0.60719 0.12718 0.27277 0.0
C342 C 0.64656 0.19262 0.30237 0.0
N343 N 0.62665 0.16025 0.33089 0.0
O344 O 0.70546 0.25468 0.24256 0.0
H345 H 0.5904 0.1009 0.25062 0.0
H346 H 0.6685 0.22976 0.3081 0.0
O347 O 0.59245 0.26199 0.22878 0.0
C348 C 0.75442 0.24796 0.23092 0.0
O349 O 0.77037 0.19958 0.21969 0.0
N350 N 0.60587 0.16604 0.18738 0.0
C351 C 0.56328 0.1202 0.11987 0.0
C352 C 0.54817 0.17196 0.13111 0.0
C353 C 0.57069 0.19452 0.16398 0.0
C354 C 0.62052 0.11447 0.1772 0.0
C355 C 0.59867 0.09009 0.14352 0.0
H356 H 0.56425 0.23741 0.16706 0.0
H357 H 0.65196 0.09378 0.19351 0.0
H358 H 0.63619 0.31585 0.16048 0.0
H359 H 0.74508 0.22882 0.08996 0.0
H360 H 0.58097 0.0859 0.32688 0.0
H361 H 0.52094 0.19602 0.11325 0.0
H362 H 0.61105 0.04968 0.13507 0.0
C363 C 0.58055 0.96118 0.89795 0.0
C364 C 0.55038 0.97302 0.86547 0.0
N365 N 0.50417 0.94436 0.86736 0.0
N366 N 0.5533 0.92587 0.92085 0.0
C367 C 0.50654 0.91669 0.90167 0.0
H368 H 0.62126 0.97543 0.90375 0.0
Co369 Co 0.58476 0.90331 0.96759 0.0
C370 C 0.5426 0.79302 -0.01065 0.0
O371 O 0.59319 0.7778 -0.00615 0.0
N372 N 0.6194 0.88478 0.01595 0.0
C373 C 0.67407 0.85155 0.0626 0.0
C374 C 0.6661 0.85722 0.02281 0.0
C375 C 0.60063 0.89655 0.05241 0.0
N376 N 0.63302 0.87665 0.08092 0.0
O377 O 0.5386 0.95549 -0.0074 0.0
H378 H 0.69239 0.84046 0.00065 0.0
H379 H 0.56349 0.91846 0.05814 0.0
O380 O 0.53126 0.84247 -0.02116 0.0
C381 C 0.54533 1.00445 -0.01903 0.0
O382 O 0.59371 1.02041 0.96976 0.0
N383 N 0.6272 0.85585 0.93742 0.0
C384 C 0.67297 0.8132 0.8699 0.0
C385 C 0.6212 0.79812 0.88116 0.0
C386 C 0.59868 0.82068 0.91404 0.0
C387 C 0.67877 0.87048 0.92721 0.0
C388 C 0.70312 0.84858 0.89353 0.0
H389 H 0.5558 0.81425 0.91713 0.0
H390 H 0.69949 0.90191 0.9435 0.0
H391 H 0.47751 0.88603 0.91044 0.0
H392 H 0.56448 0.99508 0.83998 0.0
H393 H 0.7074 0.83102 0.07691 0.0
H394 H 0.59712 0.7709 0.86331 0.0
H395 H 0.74352 0.86093 0.88506 0.0
C396 C 0.83216 0.21269 0.80483 0.0
C397 C 0.82025 0.24292 0.83726 0.0
N398 N 0.84876 0.28923 0.83533 0.0
N399 N 0.86741 0.23996 0.78191 0.0
C400 C 0.87648 0.28678 0.80104 0.0
H401 H 0.81797 0.17196 0.79906 0.0
Co402 Co 0.88997 0.2085 0.73516 0.0
C403 C 1.00027 0.25064 0.71342 0.0
O404 O 1.0155 0.20006 0.70893 0.0
N405 N 0.90849 0.17387 0.6868 0.0
C406 C 0.94173 0.11922 0.64014 0.0
C407 C 0.93608 0.12718 0.67994 0.0
C408 C 0.89669 0.19262 0.65034 0.0
N409 N 0.91658 0.16024 0.62183 0.0
O410 O 0.83781 0.25468 0.71016 0.0
H411 H 0.95288 0.10091 0.70209 0.0
H412 H 0.87477 0.22976 0.64461 0.0
O413 O 0.95082 0.26199 0.72393 0.0
C414 C 0.78885 0.24796 0.72179 0.0
O415 O 0.7729 0.19958 0.73302 0.0
N416 N 0.93741 0.16604 0.76533 0.0
C417 C 0.97999 0.1202 0.83284 0.0
C418 C 0.99511 0.17197 0.8216 0.0
C419 C 0.97258 0.19452 0.78873 0.0
C420 C 0.92275 0.11447 0.77551 0.0
C421 C 0.9446 0.09009 0.8092 0.0
H422 H 0.97903 0.23741 0.78565 0.0
H423 H 0.89132 0.09378 0.7592 0.0
H424 H 0.90709 0.31585 0.79224 0.0
H425 H 0.7982 0.22882 0.86275 0.0
H426 H 0.9623 0.08591 0.62583 0.0
H427 H 0.02233 0.19603 0.83947 0.0
H428 H 0.93222 0.04968 0.81764 0.0
C429 C 0.58055 0.08209 0.55477 0.0
C430 C 0.55038 0.07025 0.58725 0.0
N431 N 0.50417 0.09891 0.58536 0.0
N432 N 0.5533 0.11739 0.53186 0.0
C433 C 0.50654 0.12658 0.55105 0.0
H434 H 0.62126 0.06784 0.54897 0.0
Co435 Co 0.58476 0.13996 0.48512 0.0
C436 C 0.5426 0.25024 0.46336 0.0
O437 O 0.59319 0.26546 0.45886 0.0
N438 N 0.6194 0.15848 0.43677 0.0
C439 C 0.67407 0.1917 0.39011 0.0
C440 C 0.6661 0.18604 0.4299 0.0
C441 C 0.60064 0.1467 0.40031 0.0
N442 N 0.63303 0.16658 0.37179 0.0
O443 O 0.5386 0.08778 0.46011 0.0
H444 H 0.69238 0.20282 0.45206 0.0
H445 H 0.56348 0.12479 0.39458 0.0
O446 O 0.53126 0.20079 0.47388 0.0
C447 C 0.54533 0.03881 0.47174 0.0
O448 O 0.59371 0.02285 0.48296 0.0
N449 N 0.6272 0.18742 0.5153 0.0
C450 C 0.67297 0.23007 0.58281 0.0
C451 C 0.6212 0.24514 0.57155 0.0
C452 C 0.59868 0.22259 0.53867 0.0
C453 C 0.67877 0.17279 0.5255 0.0
C454 C 0.70311 0.19468 0.55919 0.0
H455 H 0.5558 0.22902 0.53558 0.0
H456 H 0.69949 0.14136 0.50921 0.0
H457 H 0.47751 0.15724 0.54228 0.0
H458 H 0.56449 0.04819 0.61274 0.0
H459 H 0.70739 0.21225 0.3758 0.0
H460 H 0.59712 0.27237 0.5894 0.0
H461 H 0.74352 0.18233 0.56765 0.0
C462 C 0.71111 0.83057 0.30483 0.0
C463 C 0.72302 0.80034 0.33726 0.0
N464 N 0.69451 0.75403 0.33533 0.0
N465 N 0.67586 0.80331 0.28191 0.0
C466 C 0.66679 0.75648 0.30104 0.0
H467 H 0.72529 0.87131 0.29906 0.0
Co468 Co 0.65329 0.83476 0.23516 0.0
C469 C 0.543 0.79262 0.21342 0.0
O470 O 0.52777 0.84321 0.20893 0.0
N471 N 0.63478 0.86939 0.1868 0.0
C472 C 0.60154 0.92405 0.14014 0.0
C473 C 0.60719 0.91608 0.17994 0.0
C474 C 0.64658 0.85064 0.15034 0.0
N475 N 0.62669 0.88302 0.12183 0.0
O476 O 0.70546 0.78858 0.21016 0.0
H477 H 0.59039 0.94235 0.20209 0.0
H478 H 0.6685 0.8135 0.14461 0.0
O479 O 0.59244 0.78128 0.22393 0.0
C480 C 0.75442 0.79531 0.22179 0.0
O481 O 0.77037 0.84368 0.23302 0.0
N482 N 0.60586 0.87722 0.26533 0.0
C483 C 0.56328 0.92306 0.33284 0.0
C484 C 0.54816 0.8713 0.3216 0.0
C485 C 0.57069 0.84874 0.28873 0.0
C486 C 0.62052 0.9288 0.27551 0.0
C487 C 0.59867 0.95317 0.3092 0.0
H488 H 0.56424 0.80586 0.28565 0.0
H489 H 0.65195 0.94949 0.2592 0.0
H490 H 0.63618 0.72741 0.29224 0.0
H491 H 0.74507 0.81444 0.36275 0.0
H492 H 0.58097 0.95736 0.12583 0.0
H493 H 0.52094 0.84724 0.33947 0.0
H494 H 0.61105 0.99358 0.31764 0.0
C495 C 0.96272 0.96118 0.05477 0.0
C496 C 0.99289 0.97301 0.08725 0.0
N497 N 0.0391 0.94436 0.08536 0.0
N498 N 0.98997 0.92587 0.03186 0.0
C499 C 0.03673 0.91669 0.05105 0.0
H500 H 0.92201 0.97542 0.04897 0.0
Co501 Co 0.95851 0.9033 -0.01488 0.0
C502 C 1.00067 0.79302 0.96336 0.0
O503 O 0.95008 0.7778 0.95886 0.0
N504 N 0.92387 0.88478 0.93677 0.0
C505 C 0.8692 0.85156 0.89011 0.0
C506 C 0.87717 0.85722 0.9299 0.0
C507 C 0.94263 0.89657 0.90031 0.0
N508 N 0.91024 0.87669 0.87179 0.0
O509 O 1.00467 0.95549 0.96011 0.0
H510 H 0.85089 0.84044 0.95206 0.0
H511 H 0.97979 0.91847 0.89458 0.0
O512 O 1.01201 0.84247 0.97388 0.0
C513 C 0.99794 1.00445 0.97174 0.0
O514 O 0.94956 1.02041 -0.01704 0.0
N515 N 0.91607 0.85585 0.0153 0.0
C516 C 0.8703 0.8132 0.08281 0.0
C517 C 0.92207 0.79812 0.07155 0.0
C518 C 0.94459 0.82067 0.03867 0.0
C519 C 0.8645 0.87047 0.0255 0.0
C520 C 0.84016 0.84858 0.05919 0.0
H521 H 0.98747 0.81424 0.03558 0.0
H522 H 0.84378 0.9019 0.00921 0.0
H523 H 0.06576 0.88602 0.04228 0.0
H524 H 0.97878 0.99507 0.11274 0.0
H525 H 0.83588 0.83102 0.8758 0.0
H526 H 0.94615 0.77089 0.0894 0.0
H527 H 0.79975 0.86093 0.06765 0.0
C528 C 0.71123 0.71276 0.80475 0.0
C529 C 0.72307 0.74293 0.83723 0.0
N530 N 0.6944 0.78913 0.83535 0.0
N531 N 0.67591 0.74 0.78185 0.0
C532 C 0.66672 0.78676 0.80105 0.0
H533 H 0.72549 0.67206 0.79895 0.0
Co534 Co 0.65335 0.70852 0.73512 0.0
C535 C 0.54306 0.75064 0.71334 0.0
O536 O 0.52785 0.70005 0.70885 0.0
N537 N 0.63483 0.67386 0.68677 0.0
C538 C 0.6016 0.61917 0.64012 0.0
C539 C 0.60727 0.62715 0.67991 0.0
C540 C 0.64659 0.69262 0.6503 0.0
N541 N 0.62669 0.66022 0.62179 0.0
O542 O 0.70553 0.75467 0.7101 0.0
H543 H 0.59052 0.60086 0.70207 0.0
H544 H 0.66849 0.72977 0.64456 0.0
O545 O 0.5925 0.762 0.72386 0.0
C546 C 0.75449 0.74794 0.72172 0.0
O547 O 0.77045 0.69956 0.73294 0.0
N548 N 0.60589 0.66609 0.7653 0.0
C549 C 0.56321 0.62033 0.8328 0.0
C550 C 0.54814 0.6721 0.82154 0.0
C551 C 0.57072 0.69461 0.78867 0.0
C552 C 0.62051 0.61452 0.77551 0.0
C553 C 0.5986 0.59018 0.80919 0.0
H554 H 0.56429 0.73749 0.78557 0.0
H555 H 0.65195 0.59379 0.75923 0.0
H556 H 0.63604 0.81578 0.79228 0.0
H557 H 0.74514 0.72883 0.86272 0.0
H558 H 0.58107 0.58584 0.62582 0.0
H559 H 0.52091 0.69619 0.83938 0.0
H560 H 0.61094 0.54977 0.81766 0.0
C561 C 0.58053 0.46117 0.05481 0.0
C562 C 0.5503 0.47307 0.08724 0.0
N563 N 0.504 0.44455 0.08533 0.0
N564 N 0.55328 0.42589 0.0319 0.0
C565 C 0.50645 0.41682 0.05104 0.0
H566 H 0.62126 0.47536 0.04905 0.0
Co567 Co 0.58475 0.40333 -0.01484 0.0
C568 C 0.54265 0.29302 0.96341 0.0
O569 O 0.59324 0.27781 0.95893 0.0
N570 N 0.6194 0.38481 0.9368 0.0
C571 C 0.67408 0.35157 0.89016 0.0
C572 C 0.6661 0.35724 0.92995 0.0
C573 C 0.60066 0.39659 0.90034 0.0
N574 N 0.63304 0.37668 0.87183 0.0
O575 O 0.53858 0.45549 0.96014 0.0
H576 H 0.69238 0.34046 0.95211 0.0
H577 H 0.56352 0.41852 0.8946 0.0
O578 O 0.53128 0.34247 0.97391 0.0
C579 C 0.54531 0.50445 0.97177 0.0
O580 O 0.59368 0.5204 -0.017 0.0
N581 N 0.62721 0.35591 0.01533 0.0
C582 C 0.67304 0.31328 0.08284 0.0
C583 C 0.62127 0.29818 0.07159 0.0
C584 C 0.59871 0.32073 0.03873 0.0
C585 C 0.67878 0.37055 0.02552 0.0
C586 C 0.70315 0.34868 0.0592 0.0
H587 H 0.55583 0.31429 0.03564 0.0
H588 H 0.69947 0.40199 0.00923 0.0
H589 H 0.47739 0.3862 0.04224 0.0
H590 H 0.5644 0.49513 0.11274 0.0
H591 H 0.7074 0.33101 0.87585 0.0
H592 H 0.5972 0.27095 0.08945 0.0
H593 H 0.74356 0.36105 0.06765 0.0
C594 C 0.83203 0.3305 0.30475 0.0
C595 C 0.8202 0.30033 0.33723 0.0
N596 N 0.84887 0.25413 0.33535 0.0
N597 N 0.86736 0.30327 0.28185 0.0
C598 C 0.87655 0.25651 0.30105 0.0
H599 H 0.81778 0.3712 0.29895 0.0
Co600 Co 0.88992 0.33474 0.23512 0.0
C601 C 1.00021 0.29262 0.21334 0.0
O602 O 1.01542 0.34321 0.20885 0.0
N603 N 0.90844 0.3694 0.18677 0.0
C604 C 0.94167 0.42409 0.14012 0.0
C605 C 0.93599 0.41612 0.17991 0.0
C606 C 0.89668 0.35065 0.1503 0.0
N607 N 0.91658 0.38304 0.12179 0.0
O608 O 0.83774 0.2886 0.2101 0.0
H609 H 0.95275 0.4424 0.20207 0.0
H610 H 0.87478 0.31349 0.14456 0.0
O611 O 0.95077 0.28126 0.22386 0.0
C612 C 0.78878 0.29533 0.22172 0.0
O613 O 0.77282 0.3437 0.23294 0.0
N614 N 0.93737 0.37717 0.2653 0.0
C615 C 0.98006 0.42293 0.3328 0.0
C616 C 0.99513 0.37117 0.32154 0.0
C617 C 0.97255 0.34865 0.28867 0.0
C618 C 0.92276 0.42875 0.27551 0.0
C619 C 0.94467 0.45308 0.30919 0.0
H620 H 0.97898 0.30577 0.28557 0.0
H621 H 0.89132 0.44947 0.25923 0.0
H622 H 0.90723 0.22749 0.29228 0.0
H623 H 0.79813 0.31443 0.36272 0.0
H624 H 0.9622 0.45743 0.12582 0.0
H625 H 0.02236 0.34708 0.33938 0.0
H626 H 0.93233 0.49349 0.31766 0.0
C627 C 0.96274 0.5821 0.55481 0.0
C628 C 0.99297 0.57019 0.58724 0.0
N629 N 0.03927 0.59872 0.58533 0.0
N630 N 0.98999 0.61737 0.5319 0.0
C631 C 0.03682 0.62645 0.55104 0.0
H632 H 0.92201 0.56791 0.54905 0.0
Co633 Co 0.95852 0.63993 0.48516 0.0
C634 C 1.00062 0.75024 0.46341 0.0
O635 O 0.95003 0.76545 0.45893 0.0
N636 N 0.92387 0.65845 0.4368 0.0
C637 C 0.86919 0.6917 0.39016 0.0
C638 C 0.87717 0.68603 0.42995 0.0
C639 C 0.94261 0.64667 0.40034 0.0
N640 N 0.91023 0.66658 0.37183 0.0
O641 O 1.00469 0.58777 0.46014 0.0
H642 H 0.85089 0.70281 0.45211 0.0
H643 H 0.97975 0.62474 0.3946 0.0
O644 O 1.01199 0.70079 0.47391 0.0
C645 C 0.99796 0.53881 0.47177 0.0
O646 O 0.94959 0.52286 0.483 0.0
N647 N 0.91606 0.68736 0.51533 0.0
C648 C 0.87023 0.72998 0.58284 0.0
C649 C 0.922 0.74508 0.57159 0.0
C650 C 0.94456 0.72253 0.53873 0.0
C651 C 0.86449 0.67271 0.52552 0.0
C652 C 0.84012 0.69458 0.5592 0.0
H653 H 0.98744 0.72897 0.53564 0.0
H654 H 0.84379 0.64127 0.50923 0.0
H655 H 0.06588 0.65707 0.54224 0.0
H656 H 0.97887 0.54813 0.61274 0.0
H657 H 0.83587 0.71225 0.37585 0.0
H658 H 0.94607 0.77232 0.58945 0.0
H659 H 0.79971 0.68221 0.56765 0.0
C660 C 0.71123 0.33051 0.64796 0.0
C661 C 0.72306 0.30034 0.61548 0.0
N662 N 0.69439 0.25413 0.61736 0.0
N663 N 0.67591 0.30327 0.67086 0.0
C664 C 0.66671 0.25651 0.65167 0.0
H665 H 0.72548 0.37121 0.65377 0.0
Co666 Co 0.65334 0.33475 0.7176 0.0
C667 C 0.54306 0.29262 0.73937 0.0
O668 O 0.52785 0.34321 0.74387 0.0
N669 N 0.63483 0.3694 0.76595 0.0
C670 C 0.60161 0.42409 0.8126 0.0
C671 C 0.60728 0.41611 0.77281 0.0
C672 C 0.6466 0.35065 0.80241 0.0
N673 N 0.62672 0.38305 0.83092 0.0
O674 O 0.70552 0.2886 0.74262 0.0
H675 H 0.59051 0.44239 0.75065 0.0
H676 H 0.6685 0.31349 0.80815 0.0
O677 O 0.5925 0.28126 0.72886 0.0
C678 C 0.75449 0.29533 0.73099 0.0
O679 O 0.77045 0.3437 0.71978 0.0
N680 N 0.60589 0.37717 0.68742 0.0
C681 C 0.5632 0.42293 0.61991 0.0
C682 C 0.54814 0.37116 0.63118 0.0
C683 C 0.57071 0.34865 0.66405 0.0
C684 C 0.62051 0.42875 0.67721 0.0
C685 C 0.5986 0.45308 0.64353 0.0
H686 H 0.56429 0.30577 0.66715 0.0
H687 H 0.65194 0.44947 0.69349 0.0
H688 H 0.63604 0.22749 0.66043 0.0
H689 H 0.74514 0.31444 0.59 0.0
H690 H 0.58107 0.45741 0.82691 0.0
H691 H 0.52091 0.34707 0.61334 0.0
H692 H 0.61094 0.49349 0.63505 0.0
C693 C 0.96274 0.46116 0.8979 0.0
C694 C 0.99297 0.47307 0.86547 0.0
N695 N 0.03927 0.44454 0.86738 0.0
N696 N 0.98999 0.42589 0.92082 0.0
C697 C 0.03682 0.41681 0.90167 0.0
H698 H 0.92201 0.47535 0.90367 0.0
Co699 Co 0.95852 0.40333 0.96756 0.0
C700 C 1.00062 0.29302 -0.01069 0.0
O701 O 0.95003 0.27781 -0.00621 0.0
N702 N 0.92387 0.38482 0.01591 0.0
C703 C 0.8692 0.35158 0.06256 0.0
C704 C 0.87717 0.35724 0.02277 0.0
C705 C 0.94261 0.39661 0.05238 0.0
N706 N 0.91022 0.37672 0.08089 0.0
O707 O 1.00469 0.45549 -0.00743 0.0
H708 H 0.8509 0.34044 0.00061 0.0
H709 H 0.97976 0.41853 0.05811 0.0
O710 O 1.01199 0.34247 -0.0212 0.0
C711 C 0.99796 0.50445 -0.01906 0.0
O712 O 0.94959 0.5204 0.96971 0.0
N713 N 0.91606 0.3559 0.93738 0.0
C714 C 0.87024 0.31328 0.86988 0.0
C715 C 0.92201 0.29818 0.88113 0.0
C716 C 0.94456 0.32072 0.91399 0.0
C717 C 0.86449 0.37055 0.92719 0.0
C718 C 0.84012 0.34867 0.89351 0.0
H719 H 0.98744 0.31428 0.91708 0.0
H720 H 0.84379 0.40198 0.94349 0.0
H721 H 0.06588 0.38619 0.91047 0.0
H722 H 0.97887 0.49513 0.83998 0.0
H723 H 0.83588 0.33101 0.07687 0.0
H724 H 0.94607 0.27094 0.86327 0.0
H725 H 0.79972 0.36105 0.88506 0.0
C726 C 0.83204 0.71276 0.14796 0.0
C727 C 0.82021 0.74292 0.11548 0.0
N728 N 0.84888 0.78913 0.11736 0.0
N729 N 0.86736 0.74 0.17086 0.0
C730 C 0.87655 0.78676 0.15167 0.0
H731 H 0.81779 0.67206 0.15377 0.0
Co732 Co 0.88992 0.70852 0.2176 0.0
C733 C 1.00021 0.75064 0.23937 0.0
O734 O 1.01542 0.70005 0.24387 0.0
N735 N 0.90844 0.67386 0.26595 0.0
C736 C 0.94166 0.61918 0.3126 0.0
C737 C 0.93599 0.62715 0.27281 0.0
C738 C 0.89667 0.69261 0.30241 0.0
N739 N 0.91654 0.66021 0.33092 0.0
O740 O 0.83774 0.75467 0.24262 0.0
H741 H 0.95276 0.60087 0.25065 0.0
H742 H 0.87477 0.72977 0.30815 0.0
O743 O 0.95077 0.762 0.22886 0.0
C744 C 0.78878 0.74794 0.23099 0.0
O745 O 0.77282 0.69956 0.21978 0.0
N746 N 0.93738 0.66609 0.18742 0.0
C747 C 0.98007 0.62033 0.11991 0.0
C748 C 0.99513 0.6721 0.13118 0.0
C749 C 0.97256 0.69461 0.16405 0.0
C750 C 0.92276 0.61452 0.17721 0.0
C751 C 0.94467 0.59018 0.14353 0.0
H752 H 0.97898 0.73749 0.16715 0.0
H753 H 0.89133 0.59379 0.19349 0.0
H754 H 0.90723 0.81578 0.16043 0.0
H755 H 0.79813 0.72882 0.09 0.0
H756 H 0.9622 0.58585 0.32691 0.0
H757 H 0.02236 0.69619 0.11334 0.0
H758 H 0.93233 0.54977 0.13505 0.0
C759 C 0.58053 0.5821 0.3979 0.0
C760 C 0.5503 0.5702 0.36547 0.0
N761 N 0.504 0.59872 0.36738 0.0
N762 N 0.55328 0.61738 0.42082 0.0
C763 C 0.50645 0.62645 0.40167 0.0
H764 H 0.62126 0.56791 0.40367 0.0
Co765 Co 0.58475 0.63993 0.46756 0.0
C766 C 0.54265 0.75024 0.48931 0.0
O767 O 0.59324 0.76545 0.49379 0.0
N768 N 0.6194 0.65845 0.51591 0.0
C769 C 0.67407 0.69169 0.56256 0.0
C770 C 0.6661 0.68603 0.52277 0.0
C771 C 0.60066 0.64665 0.55238 0.0
N772 N 0.63305 0.66655 0.58089 0.0
O773 O 0.53858 0.58777 0.49257 0.0
H774 H 0.69237 0.70282 0.50061 0.0
H775 H 0.56351 0.62474 0.55811 0.0
O776 O 0.53128 0.70079 0.4788 0.0
C777 C 0.54531 0.53881 0.48094 0.0
O778 O 0.59368 0.52287 0.46971 0.0
N779 N 0.6272 0.68736 0.43738 0.0
C780 C 0.67303 0.72999 0.36988 0.0
C781 C 0.62126 0.74509 0.38113 0.0
C782 C 0.59871 0.72254 0.41399 0.0
C783 C 0.67878 0.67272 0.42719 0.0
C784 C 0.70315 0.69459 0.39351 0.0
H785 H 0.55583 0.72898 0.41708 0.0
H786 H 0.69947 0.64128 0.44349 0.0
H787 H 0.47739 0.65707 0.41047 0.0
H788 H 0.5644 0.54813 0.33998 0.0
H789 H 0.70739 0.71225 0.57687 0.0
H790 H 0.5972 0.77232 0.36327 0.0
H791 H 0.74355 0.68222 0.38506 0.0
C792 C 0.33205 0.33059 0.14792 0.0
C793 C 0.32022 0.30041 0.11544 0.0
N794 N 0.34887 0.25419 0.11734 0.0
N795 N 0.36736 0.30334 0.17083 0.0
C796 C 0.37654 0.25657 0.15165 0.0
H797 H 0.31781 0.37129 0.15372 0.0
Co798 Co 0.38993 0.33479 0.21757 0.0
C799 C 0.50022 0.29263 0.23931 0.0
O800 O 0.51545 0.34321 0.24381 0.0
N801 N 0.40846 0.36941 0.26593 0.0
C802 C 0.44171 0.42407 0.31258 0.0
C803 C 0.43604 0.41611 0.27279 0.0
C804 C 0.39667 0.35066 0.30239 0.0
N805 N 0.41658 0.38304 0.3309 0.0
O806 O 0.33776 0.28862 0.24258 0.0
H807 H 0.45282 0.44239 0.25063 0.0
H808 H 0.37474 0.31352 0.30812 0.0
O809 O 0.45077 0.2813 0.2288 0.0
C810 C 0.2888 0.29534 0.23095 0.0
O811 O 0.27283 0.34372 0.21974 0.0
N812 N 0.43737 0.37725 0.1874 0.0
C813 C 0.47997 0.42307 0.11988 0.0
C814 C 0.49509 0.37131 0.13114 0.0
C815 C 0.47255 0.34876 0.16401 0.0
C816 C 0.4227 0.42881 0.1772 0.0
C817 C 0.44456 0.45318 0.14352 0.0
H818 H 0.47901 0.30588 0.16709 0.0
H819 H 0.39126 0.44951 0.1935 0.0
H820 H 0.4072 0.22754 0.16043 0.0
H821 H 0.29816 0.31451 0.08995 0.0
H822 H 0.46226 0.45739 0.32689 0.0
H823 H 0.52233 0.34725 0.11328 0.0
H824 H 0.43218 0.49358 0.13506 0.0
C825 C 0.46274 0.58206 0.89793 0.0
C826 C 0.49292 0.57023 0.86546 0.0
N827 N 0.53912 0.59891 0.86735 0.0
N828 N 0.48996 0.61739 0.92083 0.0
C829 C 0.53673 0.62659 0.90165 0.0
H830 H 0.42204 0.5678 0.90373 0.0
Co831 Co 0.45849 0.63995 0.96757 0.0
C832 C 0.50062 0.75024 -0.01066 0.0
O833 O 0.45003 0.76546 -0.00617 0.0
N834 N 0.42385 0.65846 0.01593 0.0
C835 C 0.36917 0.69168 0.06258 0.0
C836 C 0.37714 0.68602 0.02279 0.0
C837 C 0.44261 0.64669 0.05239 0.0
N838 N 0.41022 0.66658 0.0809 0.0
O839 O 0.50467 0.58778 -0.00742 0.0
H840 H 0.35085 0.70277 0.00063 0.0
H841 H 0.47976 0.62478 0.05812 0.0
O842 O 0.51197 0.7008 -0.02118 0.0
C843 C 0.49794 0.53882 -0.01903 0.0
O844 O 0.44956 0.52285 0.96975 0.0
N845 N 0.41603 0.68738 0.9374 0.0
C846 C 0.37022 0.72994 0.86987 0.0
C847 C 0.42197 0.74509 0.88114 0.0
C848 C 0.44451 0.72258 0.91402 0.0
C849 C 0.36448 0.67269 0.92719 0.0
C850 C 0.34012 0.69453 0.8935 0.0
H851 H 0.48739 0.72906 0.91712 0.0
H852 H 0.3438 0.64124 0.94348 0.0
H853 H 0.56574 0.65727 0.91042 0.0
H854 H 0.47883 0.54815 0.83997 0.0
H855 H 0.33584 0.71222 0.07689 0.0
H856 H 0.44602 0.77235 0.86329 0.0
H857 H 0.29973 0.68212 0.88503 0.0
C858 C 0.21122 0.71268 0.64792 0.0
C859 C 0.22305 0.74285 0.61544 0.0
N860 N 0.19439 0.78907 0.61734 0.0
N861 N 0.17591 0.73992 0.67083 0.0
C862 C 0.16673 0.78669 0.65165 0.0
H863 H 0.22546 0.67197 0.65372 0.0
Co864 Co 0.15334 0.70847 0.71757 0.0
C865 C 0.04305 0.75063 0.73931 0.0
O866 O 0.02782 0.70005 0.74381 0.0
N867 N 0.13481 0.67385 0.76593 0.0
C868 C 0.10156 0.61919 0.81258 0.0
C869 C 0.10723 0.62716 0.77279 0.0
C870 C 0.1466 0.6926 0.80239 0.0
N871 N 0.12668 0.66022 0.8309 0.0
O872 O 0.20551 0.75465 0.74258 0.0
H873 H 0.09045 0.60088 0.75063 0.0
H874 H 0.16853 0.72974 0.80812 0.0
O875 O 0.0925 0.76197 0.7288 0.0
C876 C 0.25447 0.74792 0.73095 0.0
O877 O 0.27043 0.69954 0.71974 0.0
N878 N 0.1059 0.66602 0.6874 0.0
C879 C 0.0633 0.62019 0.61988 0.0
C880 C 0.04818 0.67195 0.63114 0.0
C881 C 0.07071 0.6945 0.66401 0.0
C882 C 0.12057 0.61445 0.6772 0.0
C883 C 0.09871 0.59008 0.64352 0.0
H884 H 0.06426 0.73738 0.66709 0.0
H885 H 0.152 0.59376 0.6935 0.0
H886 H 0.13607 0.81572 0.66043 0.0
H887 H 0.24511 0.72876 0.58995 0.0
H888 H 0.08101 0.58587 0.82689 0.0
H889 H 1.02094 0.69601 0.61328 0.0
H890 H 0.11109 0.54968 0.63506 0.0
C891 C 0.08053 0.4612 0.39793 0.0
C892 C 0.05035 0.47303 0.36546 0.0
N893 N 1.00415 0.44435 0.36735 0.0
N894 N 0.05331 0.42587 0.42083 0.0
C895 C 1.00654 0.41667 0.40165 0.0
H896 H 0.12123 0.47546 0.40373 0.0
Co897 Co 0.08477 0.40332 0.46757 0.0
C898 C 0.04265 0.29302 0.48934 0.0
O899 O 0.09324 0.2778 0.49383 0.0
N900 N 0.11942 0.3848 0.51593 0.0
C901 C 0.1741 0.35158 0.56258 0.0
C902 C 0.16613 0.35725 0.52279 0.0
C903 C 0.10066 0.39657 0.55239 0.0
N904 N 0.13305 0.37668 0.5809 0.0
O905 O 0.0386 0.45548 0.49258 0.0
H906 H 0.19242 0.34049 0.50063 0.0
H907 H 0.06351 0.41848 0.55812 0.0
O908 O 0.0313 0.34246 0.47882 0.0
C909 C 0.04533 0.50444 0.48097 0.0
O910 O 0.09371 0.52041 0.46975 0.0
N911 N 0.12723 0.35589 0.4374 0.0
C912 C 0.17305 0.31332 0.36987 0.0
C913 C 0.1213 0.29817 0.38114 0.0
C914 C 0.09876 0.32068 0.41402 0.0
C915 C 0.17879 0.37057 0.42719 0.0
C916 C 0.20315 0.34873 0.3935 0.0
H917 H 0.05588 0.3142 0.41712 0.0
H918 H 0.19947 0.40202 0.44348 0.0
H919 H 0.97753 0.38599 0.41042 0.0
H920 H 0.06444 0.49511 0.33997 0.0
H921 H 0.20743 0.33105 0.57689 0.0
H922 H 0.09725 0.27092 0.36329 0.0
H923 H 0.24354 0.36114 0.38503 0.0
C924 C 0.33206 0.71268 0.30479 0.0
C925 C 0.32023 0.74285 0.33727 0.0
N926 N 0.34888 0.78907 0.33537 0.0
N927 N 0.36737 0.73992 0.28189 0.0
C928 C 0.37655 0.78669 0.30107 0.0
H929 H 0.31781 0.67197 0.29899 0.0
Co930 Co 0.38993 0.70847 0.23514 0.0
C931 C 0.50022 0.75063 0.2134 0.0
O932 O 0.51545 0.70005 0.2089 0.0
N933 N 0.40845 0.67385 0.18678 0.0
C934 C 0.4417 0.61919 0.14012 0.0
C935 C 0.43604 0.62716 0.17992 0.0
C936 C 0.39666 0.6926 0.15032 0.0
N937 N 0.41655 0.66022 0.12181 0.0
O938 O 0.33776 0.75465 0.21014 0.0
H939 H 0.45283 0.60089 0.20208 0.0
H940 H 0.37473 0.72974 0.14459 0.0
O941 O 0.45077 0.76197 0.22392 0.0
C942 C 0.2888 0.74792 0.22176 0.0
O943 O 0.27283 0.69954 0.23298 0.0
N944 N 0.43737 0.66602 0.26531 0.0
C945 C 0.47997 0.62019 0.33283 0.0
C946 C 0.49509 0.67195 0.32157 0.0
C947 C 0.47256 0.6945 0.2887 0.0
C948 C 0.42271 0.61445 0.27551 0.0
C949 C 0.44457 0.59008 0.3092 0.0
H950 H 0.47902 0.73738 0.28562 0.0
H951 H 0.39127 0.59376 0.25921 0.0
H952 H 0.40721 0.81572 0.29229 0.0
H953 H 0.29816 0.72875 0.36276 0.0
H954 H 0.46226 0.58588 0.12581 0.0
H955 H 0.52233 0.69601 0.33943 0.0
H956 H 0.43218 0.54968 0.31766 0.0
C957 C 0.08053 0.58207 0.05478 0.0
C958 C 0.05035 0.57024 0.08725 0.0
N959 N 1.00415 0.59891 0.08537 0.0
N960 N 0.05331 0.6174 0.03188 0.0
C961 C 1.00654 0.6266 0.05107 0.0
H962 H 0.12123 0.56781 0.04898 0.0
Co963 Co 0.08477 0.63995 -0.01486 0.0
C964 C 0.04265 0.75024 0.96337 0.0
O965 O 0.09324 0.76546 0.95888 0.0
N966 N 0.11942 0.65846 0.93678 0.0
C967 C 0.17409 0.69167 0.89013 0.0
C968 C 0.16613 0.68602 0.92992 0.0
C969 C 0.10066 0.64667 0.90032 0.0
N970 N 0.13306 0.66655 0.87181 0.0
O971 O 0.0386 0.58778 0.96013 0.0
H972 H 0.19241 0.70279 0.95208 0.0
H973 H 0.06351 0.62477 0.89459 0.0
O974 O 0.0313 0.7008 0.97389 0.0
C975 C 0.04533 0.53882 0.97175 0.0
O976 O 0.09371 0.52286 -0.01704 0.0
N977 N 0.12723 0.68738 0.01531 0.0
C978 C 0.17304 0.72995 0.08284 0.0
C979 C 0.1213 0.7451 0.07157 0.0
C980 C 0.09876 0.72258 0.03869 0.0
C981 C 0.17879 0.67269 0.02552 0.0
C982 C 0.20315 0.69453 0.05922 0.0
H983 H 0.05588 0.72907 0.03559 0.0
H984 H 0.19947 0.64125 0.00923 0.0
H985 H 0.97753 0.65728 0.0423 0.0
H986 H 0.06444 0.54815 0.11274 0.0
H987 H 0.20742 0.71222 0.87582 0.0
H988 H 0.09724 0.77235 0.08943 0.0
H989 H 0.24354 0.68213 0.06769 0.0
C990 C 0.21121 0.33059 0.80479 0.0
C991 C 0.22304 0.30041 0.83727 0.0
N992 N 0.19439 0.2542 0.83537 0.0
N993 N 0.1759 0.30334 0.78189 0.0
C994 C 0.16672 0.25657 0.80107 0.0
H995 H 0.22546 0.37129 0.79899 0.0
Co996 Co 0.15334 0.33479 0.73514 0.0
C997 C 0.04305 0.29263 0.7134 0.0
O998 O 0.02782 0.34321 0.7089 0.0
N999 N 0.13482 0.36941 0.68678 0.0
C1000 C 0.10157 0.42407 0.64012 0.0
C1001 C 0.10723 0.41611 0.67992 0.0
C1002 C 0.14661 0.35066 0.65032 0.0
N1003 N 0.12672 0.38305 0.62181 0.0
O1004 O 0.20551 0.28862 0.71014 0.0
H1005 H 0.09044 0.44238 0.70208 0.0
H1006 H 0.16854 0.31352 0.64459 0.0
O1007 O 0.0925 0.2813 0.72392 0.0
C1008 C 0.25447 0.29534 0.72176 0.0
O1009 O 0.27043 0.34372 0.73298 0.0
N1010 N 0.1059 0.37725 0.76531 0.0
C1011 C 0.0633 0.42307 0.83283 0.0
C1012 C 0.04818 0.37131 0.82157 0.0
C1013 C 0.07071 0.34876 0.7887 0.0
C1014 C 0.12056 0.42881 0.77551 0.0
C1015 C 0.0987 0.45318 0.8092 0.0
H1016 H 0.06425 0.30588 0.78562 0.0
H1017 H 0.152 0.44951 0.75921 0.0
H1018 H 0.13606 0.22754 0.79229 0.0
H1019 H 0.24511 0.31451 0.86276 0.0
H1020 H 0.081 0.45738 0.62581 0.0
H1021 H 1.02094 0.34725 0.83943 0.0
H1022 H 0.11109 0.49358 0.81766 0.0
C1023 C 0.46274 0.46119 0.55478 0.0
C1024 C 0.49292 0.47303 0.58725 0.0
N1025 N 0.53912 0.44435 0.58537 0.0
N1026 N 0.48996 0.42586 0.53188 0.0
C1027 C 0.53673 0.41667 0.55107 0.0
H1028 H 0.42204 0.47546 0.54898 0.0
Co1029 Co 0.45849 0.40331 0.48514 0.0
C1030 C 0.50062 0.29302 0.46337 0.0
O1031 O 0.45003 0.2778 0.45888 0.0
N1032 N 0.42385 0.38481 0.43678 0.0
C1033 C 0.36917 0.35159 0.39013 0.0
C1034 C 0.37714 0.35725 0.42992 0.0
C1035 C 0.44261 0.39659 0.40032 0.0
N1036 N 0.41021 0.37671 0.37181 0.0
O1037 O 0.50467 0.45548 0.46013 0.0
H1038 H 0.35086 0.34047 0.45208 0.0
H1039 H 0.47976 0.41849 0.39459 0.0
O1040 O 0.51197 0.34246 0.47389 0.0
C1041 C 0.49794 0.50444 0.47175 0.0
O1042 O 0.44956 0.52041 0.48296 0.0
N1043 N 0.41603 0.35588 0.51531 0.0
C1044 C 0.37023 0.31332 0.58284 0.0
C1045 C 0.42197 0.29816 0.57157 0.0
C1046 C 0.44451 0.32068 0.53869 0.0
C1047 C 0.36448 0.37057 0.52552 0.0
C1048 C 0.34012 0.34873 0.55922 0.0
H1049 H 0.48739 0.3142 0.53559 0.0
H1050 H 0.3438 0.40202 0.50923 0.0
H1051 H 0.56574 0.38599 0.5423 0.0
H1052 H 0.47883 0.49511 0.61274 0.0
H1053 H 0.33585 0.33104 0.37582 0.0
H1054 H 0.44603 0.27091 0.58943 0.0
H1055 H 0.29973 0.36114 0.56769 0.0
loop_
_geom_bond_atom_site_label_1
_geom_bond_atom_site_label_2
_geom_bond_distance
_geom_bond_site_symmetry_2
_ccdc_geom_bond_type
C0 C1 1.351 . S
C0 N3 1.368 . S
C0 H5 0.931 . S
C1 C0 1.351 . S
C1 N2 1.373 . S
C1 H29 0.930 . S
N2 C1 1.373 . S
N2 C4 1.340 . S
N3 C0 1.368 . S
N3 C4 1.321 . S
N3 Co6 2.135 . S
C4 N2 1.340 . S
C4 N3 1.321 . S
C4 H28 0.930 . S
H5 C0 0.931 . S
Co6 N3 2.135 . S
Co6 N9 2.121 . S
Co6 O14 2.055 . S
Co6 O17 2.039 . S
Co6 N20 2.140 . S
C7 O8 1.227 . S
C7 O17 1.265 . S
O8 C7 1.227 . S
N9 Co6 2.121 . S
N9 C11 1.375 . S
N9 C12 1.313 . S
C10 C11 1.338 . S
C10 N13 1.377 . S
C10 H30 0.930 . S
C11 N9 1.375 . S
C11 C10 1.338 . S
C11 H15 0.931 . S
C12 N9 1.313 . S
C12 N13 1.344 . S
C12 H16 0.930 . S
N13 C10 1.377 . S
N13 C12 1.344 . S
O14 Co6 2.055 . S
O14 C18 1.253 . S
H15 C11 0.931 . S
H16 C12 0.930 . S
O17 Co6 2.039 . S
O17 C7 1.265 . S
C18 O14 1.253 . S
C18 O19 1.227 . S
O19 C18 1.227 . S
N20 Co6 2.140 . S
N20 C23 1.346 . S
N20 C24 1.345 . S
C21 C22 1.387 . S
C21 C25 1.391 . S
C22 C21 1.387 . S
C22 C23 1.369 . S
C22 H31 0.929 . S
C23 N20 1.346 . S
C23 C22 1.369 . S
C23 H26 0.928 . S
C24 N20 1.345 . S
C24 C25 1.371 . S
C24 H27 0.931 . S
C25 C21 1.391 . S
C25 C24 1.371 . S
C25 H32 0.930 . S
H26 C23 0.928 . S
H27 C24 0.931 . S
H28 C4 0.930 . S
H29 C1 0.930 . S
H30 C10 0.930 . S
H31 C22 0.929 . S
H32 C25 0.930 . S
C33 C34 1.351 . S
C33 N36 1.368 . S
C33 H38 0.931 1_655 S
C34 C33 1.351 . S
C34 N35 1.373 . S
C34 H62 0.930 . S
N35 C34 1.373 . S
N35 C37 1.340 . S
N36 C33 1.368 . S
N36 C37 1.321 . S
N36 Co39 2.135 1_655 S
C37 N35 1.340 . S
C37 N36 1.321 . S
C37 H61 0.930 . S
H38 C33 0.931 1_455 S
Co39 N36 2.135 1_455 S
Co39 N42 2.121 . S
Co39 O47 2.055 . S
Co39 O50 2.039 1_455 S
Co39 N53 2.140 . S
C40 O41 1.227 1_655 S
C40 O50 1.265 . S
O41 C40 1.227 1_455 S
N42 Co39 2.121 . S
N42 C44 1.375 . S
N42 C45 1.313 . S
C43 C44 1.338 . S
C43 N46 1.377 . S
C43 H63 0.930 . S
C44 N42 1.375 . S
C44 C43 1.338 . S
C44 H48 0.931 . S
C45 N42 1.313 . S
C45 N46 1.344 . S
C45 H49 0.930 . S
N46 C43 1.377 . S
N46 C45 1.344 . S
O47 Co39 2.055 . S
O47 C51 1.253 . S
H48 C44 0.931 . S
H49 C45 0.930 . S
O50 Co39 2.039 1_655 S
O50 C40 1.265 . S
C51 O47 1.253 . S
C51 O52 1.227 . S
O52 C51 1.227 . S
N53 Co39 2.140 . S
N53 C56 1.346 . S
N53 C57 1.345 . S
C54 C55 1.387 . S
C54 C58 1.391 . S
C55 C54 1.387 . S
C55 C56 1.369 . S
C55 H64 0.929 . S
C56 N53 1.346 . S
C56 C55 1.369 . S
C56 H59 0.928 . S
C57 N53 1.345 . S
C57 C58 1.371 . S
C57 H60 0.931 . S
C58 C54 1.391 . S
C58 C57 1.371 . S
C58 H65 0.930 . S
H59 C56 0.928 . S
H60 C57 0.931 . S
H61 C37 0.930 . S
H62 C34 0.930 . S
H63 C43 0.930 . S
H64 C55 0.929 . S
H65 C58 0.930 . S
C66 C67 1.351 . S
C66 N69 1.368 . S
C66 H71 0.931 . S
C67 C66 1.351 . S
C67 N68 1.373 . S
C67 H95 0.930 . S
N68 C67 1.373 . S
N68 C70 1.340 . S
N69 C66 1.368 . S
N69 C70 1.321 . S
N69 Co72 2.135 . S
C70 N68 1.340 . S
C70 N69 1.321 . S
C70 H94 0.930 . S
H71 C66 0.931 . S
Co72 N69 2.135 . S
Co72 N75 2.121 . S
Co72 O80 2.055 . S
Co72 O83 2.039 . S
Co72 N86 2.140 . S
C73 O74 1.227 . S
C73 O83 1.265 . S
O74 C73 1.227 . S
N75 Co72 2.121 . S
N75 C77 1.375 . S
N75 C78 1.313 . S
C76 C77 1.338 . S
C76 N79 1.377 . S
C76 H96 0.930 . S
C77 N75 1.375 . S
C77 C76 1.338 . S
C77 H81 0.931 . S
C78 N75 1.313 . S
C78 N79 1.344 . S
C78 H82 0.930 . S
N79 C76 1.377 . S
N79 C78 1.344 . S
O80 Co72 2.055 . S
O80 C84 1.253 . S
H81 C77 0.931 . S
H82 C78 0.930 . S
O83 Co72 2.039 . S
O83 C73 1.265 . S
C84 O80 1.253 . S
C84 O85 1.227 . S
O85 C84 1.227 . S
N86 Co72 2.140 . S
N86 C89 1.346 . S
N86 C90 1.345 . S
C87 C88 1.387 . S
C87 C91 1.391 . S
C88 C87 1.387 . S
C88 C89 1.369 . S
C88 H97 0.929 . S
C89 N86 1.346 . S
C89 C88 1.369 . S
C89 H92 0.928 . S
C90 N86 1.345 . S
C90 C91 1.371 . S
C90 H93 0.931 . S
C91 C87 1.391 . S
C91 C90 1.371 . S
C91 H98 0.930 . S
H92 C89 0.928 . S
H93 C90 0.931 . S
H94 C70 0.930 . S
H95 C67 0.930 . S
H96 C76 0.930 . S
H97 C88 0.929 . S
H98 C91 0.930 . S
C99 C100 1.351 . S
C99 N102 1.368 . S
C99 H104 0.931 . S
C100 C99 1.351 . S
C100 N101 1.373 . S
C100 H128 0.930 . S
N101 C100 1.373 . S
N101 C103 1.340 . S
N102 C99 1.368 . S
N102 C103 1.321 . S
N102 Co105 2.135 . S
C103 N101 1.340 . S
C103 N102 1.321 . S
C103 H127 0.930 . S
H104 C99 0.931 . S
Co105 N102 2.135 . S
Co105 N108 2.121 1_554 S
Co105 O113 2.055 1_554 S
Co105 O116 2.039 1_554 S
Co105 N119 2.140 . S
C106 O107 1.227 . S
C106 O116 1.265 1_554 S
O107 C106 1.227 . S
N108 Co105 2.121 1_556 S
N108 C110 1.375 . S
N108 C111 1.313 . S
C109 C110 1.338 . S
C109 N112 1.377 . S
C109 H129 0.930 . S
C110 N108 1.375 . S
C110 C109 1.338 . S
C110 H114 0.931 . S
C111 N108 1.313 . S
C111 N112 1.344 . S
C111 H115 0.930 . S
N112 C109 1.377 . S
N112 C111 1.344 . S
O113 Co105 2.055 1_556 S
O113 C117 1.253 . S
H114 C110 0.931 . S
H115 C111 0.930 . S
O116 Co105 2.039 1_556 S
O116 C106 1.265 1_556 S
C117 O113 1.253 . S
C117 O118 1.227 1_556 S
O118 C117 1.227 1_554 S
N119 Co105 2.140 . S
N119 C122 1.346 . S
N119 C123 1.345 . S
C120 C121 1.387 . S
C120 C124 1.391 . S
C121 C120 1.387 . S
C121 C122 1.369 . S
C121 H130 0.929 . S
C122 N119 1.346 . S
C122 C121 1.369 . S
C122 H125 0.928 . S
C123 N119 1.345 . S
C123 C124 1.371 . S
C123 H126 0.931 . S
C124 C120 1.391 . S
C124 C123 1.371 . S
C124 H131 0.930 . S
H125 C122 0.928 . S
H126 C123 0.931 . S
H127 C103 0.930 . S
H128 C100 0.930 . S
H129 C109 0.930 . S
H130 C121 0.929 . S
H131 C124 0.930 . S
C132 C133 1.351 . S
C132 N135 1.368 . S
C132 H137 0.931 . S
C133 C132 1.351 . S
C133 N134 1.373 . S
C133 H161 0.930 . S
N134 C133 1.373 . S
N134 C136 1.340 . S
N135 C132 1.368 . S
N135 C136 1.321 . S
N135 Co138 2.135 . S
C136 N134 1.340 . S
C136 N135 1.321 . S
C136 H160 0.930 . S
H137 C132 0.931 . S
Co138 N135 2.135 . S
Co138 N141 2.121 . S
Co138 O146 2.055 . S
Co138 O149 2.039 . S
Co138 N152 2.140 . S
C139 O140 1.227 . S
C139 O149 1.265 . S
O140 C139 1.227 . S
N141 Co138 2.121 . S
N141 C143 1.375 . S
N141 C144 1.313 . S
C142 C143 1.338 . S
C142 N145 1.377 . S
C142 H162 0.930 . S
C143 N141 1.375 . S
C143 C142 1.338 . S
C143 H147 0.931 . S
C144 N141 1.313 . S
C144 N145 1.344 . S
C144 H148 0.930 . S
N145 C142 1.377 . S
N145 C144 1.344 . S
O146 Co138 2.055 . S
O146 C150 1.253 . S
H147 C143 0.931 . S
H148 C144 0.930 . S
O149 Co138 2.039 . S
O149 C139 1.265 . S
C150 O146 1.253 . S
C150 O151 1.227 . S
O151 C150 1.227 . S
N152 Co138 2.140 . S
N152 C155 1.346 . S
N152 C156 1.345 . S
C153 C154 1.387 . S
C153 C157 1.391 . S
C154 C153 1.387 . S
C154 C155 1.369 . S
C154 H163 0.929 . S
C155 N152 1.346 . S
C155 C154 1.369 . S
C155 H158 0.928 . S
C156 N152 1.345 . S
C156 C157 1.371 . S
C156 H159 0.931 . S
C157 C153 1.391 . S
C157 C156 1.371 . S
C157 H164 0.930 . S
H158 C155 0.928 . S
H159 C156 0.931 . S
H160 C136 0.930 . S
H161 C133 0.930 . S
H162 C142 0.930 . S
H163 C154 0.929 . S
H164 C157 0.930 . S
C165 C166 1.351 . S
C165 N168 1.368 . S
C165 H170 0.931 . S
C166 C165 1.351 . S
C166 N167 1.373 . S
C166 H194 0.930 . S
N167 C166 1.373 . S
N167 C169 1.340 . S
N168 C165 1.368 . S
N168 C169 1.321 . S
N168 Co171 2.135 . S
C169 N167 1.340 . S
C169 N168 1.321 . S
C169 H193 0.930 . S
H170 C165 0.931 . S
Co171 N168 2.135 . S
Co171 N174 2.121 . S
Co171 O179 2.055 . S
Co171 O182 2.039 . S
Co171 N185 2.140 . S
C172 O173 1.227 . S
C172 O182 1.265 . S
O173 C172 1.227 . S
N174 Co171 2.121 . S
N174 C176 1.375 . S
N174 C177 1.313 . S
C175 C176 1.338 . S
C175 N178 1.377 . S
C175 H195 0.930 . S
C176 N174 1.375 . S
C176 C175 1.338 . S
C176 H180 0.931 . S
C177 N174 1.313 . S
C177 N178 1.344 . S
C177 H181 0.930 . S
N178 C175 1.377 . S
N178 C177 1.344 . S
O179 Co171 2.055 . S
O179 C183 1.253 . S
H180 C176 0.931 . S
H181 C177 0.930 . S
O182 Co171 2.039 . S
O182 C172 1.265 . S
C183 O179 1.253 . S
C183 O184 1.227 . S
O184 C183 1.227 . S
N185 Co171 2.140 . S
N185 C188 1.346 . S
N185 C189 1.345 . S
C186 C187 1.387 . S
C186 C190 1.391 . S
C187 C186 1.387 . S
C187 C188 1.369 . S
C187 H196 0.929 . S
C188 N185 1.346 . S
C188 C187 1.369 . S
C188 H191 0.928 . S
C189 N185 1.345 . S
C189 C190 1.371 . S
C189 H192 0.931 . S
C190 C186 1.391 . S
C190 C189 1.371 . S
C190 H197 0.930 . S
H191 C188 0.928 . S
H192 C189 0.931 . S
H193 C169 0.930 . S
H194 C166 0.930 . S
H195 C175 0.930 . S
H196 C187 0.929 . S
H197 C190 0.930 . S
C198 C199 1.351 . S
C198 N201 1.368 . S
C198 H203 0.931 . S
C199 C198 1.351 . S
C199 N200 1.373 . S
C199 H227 0.930 . S
N200 C199 1.373 . S
N200 C202 1.340 . S
N201 C198 1.368 . S
N201 C202 1.321 . S
N201 Co204 2.135 . S
C202 N200 1.340 . S
C202 N201 1.321 . S
C202 H226 0.930 . S
H203 C198 0.931 . S
Co204 N201 2.135 . S
Co204 N207 2.121 . S
Co204 O212 2.055 . S
Co204 O215 2.039 . S
Co204 N218 2.140 . S
C205 O206 1.227 . S
C205 O215 1.265 . S
O206 C205 1.227 . S
N207 Co204 2.121 . S
N207 C209 1.375 . S
N207 C210 1.313 . S
C208 C209 1.338 . S
C208 N211 1.377 . S
C208 H228 0.930 . S
C209 N207 1.375 . S
C209 C208 1.338 . S
C209 H213 0.931 . S
C210 N207 1.313 . S
C210 N211 1.344 . S
C210 H214 0.930 . S
N211 C208 1.377 . S
N211 C210 1.344 . S
O212 Co204 2.055 . S
O212 C216 1.253 . S
H213 C209 0.931 . S
H214 C210 0.930 . S
O215 Co204 2.039 . S
O215 C205 1.265 . S
C216 O212 1.253 . S
C216 O217 1.227 . S
O217 C216 1.227 . S
N218 Co204 2.140 . S
N218 C221 1.346 . S
N218 C222 1.345 . S
C219 C220 1.387 . S
C219 C223 1.391 . S
C220 C219 1.387 . S
C220 C221 1.369 . S
C220 H229 0.929 . S
C221 N218 1.346 . S
C221 C220 1.369 . S
C221 H224 0.928 . S
C222 N218 1.345 . S
C222 C223 1.371 . S
C222 H225 0.931 . S
C223 C219 1.391 . S
C223 C222 1.371 . S
C223 H230 0.930 . S
H224 C221 0.928 . S
H225 C222 0.931 . S
H226 C202 0.930 . S
H227 C199 0.930 . S
H228 C208 0.930 . S
H229 C220 0.929 . S
H230 C223 0.930 . S
C231 C232 1.351 . S
C231 N234 1.368 . S
C231 H236 0.931 1_655 S
C232 C231 1.351 . S
C232 N233 1.373 . S
C232 H260 0.930 . S
N233 C232 1.373 . S
N233 C235 1.340 . S
N234 C231 1.368 . S
N234 C235 1.321 . S
N234 Co237 2.135 1_655 S
C235 N233 1.340 . S
C235 N234 1.321 . S
C235 H259 0.930 . S
H236 C231 0.931 1_455 S
Co237 N234 2.135 1_455 S
Co237 N240 2.121 1_556 S
Co237 O245 2.055 1_556 S
Co237 O248 2.039 1_456 S
Co237 N251 2.140 . S
C238 O239 1.227 1_655 S
C238 O248 1.265 1_556 S
O239 C238 1.227 1_455 S
N240 Co237 2.121 1_554 S
N240 C242 1.375 . S
N240 C243 1.313 . S
C241 C242 1.338 . S
C241 N244 1.377 . S
C241 H261 0.930 . S
C242 N240 1.375 . S
C242 C241 1.338 . S
C242 H246 0.931 . S
C243 N240 1.313 . S
C243 N244 1.344 . S
C243 H247 0.930 . S
N244 C241 1.377 . S
N244 C243 1.344 . S
O245 Co237 2.055 1_554 S
O245 C249 1.253 . S
H246 C242 0.931 . S
H247 C243 0.930 . S
O248 Co237 2.039 1_654 S
O248 C238 1.265 1_554 S
C249 O245 1.253 . S
C249 O250 1.227 1_554 S
O250 C249 1.227 1_556 S
N251 Co237 2.140 . S
N251 C254 1.346 . S
N251 C255 1.345 . S
C252 C253 1.387 . S
C252 C256 1.391 . S
C253 C252 1.387 . S
C253 C254 1.369 . S
C253 H262 0.929 . S
C254 N251 1.346 . S
C254 C253 1.369 . S
C254 H257 0.928 . S
C255 N251 1.345 . S
C255 C256 1.371 . S
C255 H258 0.931 . S
C256 C252 1.391 . S
C256 C255 1.371 . S
C256 H263 0.930 . S
H257 C254 0.928 . S
H258 C255 0.931 . S
H259 C235 0.930 . S
H260 C232 0.930 . S
H261 C241 0.930 . S
H262 C253 0.929 . S
H263 C256 0.930 . S
C264 C265 1.351 . S
C264 N267 1.368 . S
C264 H269 0.931 . S
C265 C264 1.351 . S
C265 N266 1.373 . S
C265 H293 0.930 . S
N266 C265 1.373 . S
N266 C268 1.340 . S
N267 C264 1.368 . S
N267 C268 1.321 . S
N267 Co270 2.135 . S
C268 N266 1.340 . S
C268 N267 1.321 . S
C268 H292 0.930 . S
H269 C264 0.931 . S
Co270 N267 2.135 . S
Co270 N273 2.121 . S
Co270 O278 2.055 . S
Co270 O281 2.039 . S
Co270 N284 2.140 . S
C271 O272 1.227 . S
C271 O281 1.265 . S
O272 C271 1.227 . S
N273 Co270 2.121 . S
N273 C275 1.375 . S
N273 C276 1.313 . S
C274 C275 1.338 . S
C274 N277 1.377 . S
C274 H294 0.930 . S
C275 N273 1.375 . S
C275 C274 1.338 . S
C275 H279 0.931 . S
C276 N273 1.313 . S
C276 N277 1.344 . S
C276 H280 0.930 . S
N277 C274 1.377 . S
N277 C276 1.344 . S
O278 Co270 2.055 . S
O278 C282 1.253 . S
H279 C275 0.931 . S
H280 C276 0.930 . S
O281 Co270 2.039 . S
O281 C271 1.265 . S
C282 O278 1.253 . S
C282 O283 1.227 . S
O283 C282 1.227 . S
N284 Co270 2.140 . S
N284 C287 1.346 . S
N284 C288 1.345 . S
C285 C286 1.387 . S
C285 C289 1.391 . S
C286 C285 1.387 . S
C286 C287 1.369 . S
C286 H295 0.929 . S
C287 N284 1.346 . S
C287 C286 1.369 . S
C287 H290 0.928 . S
C288 N284 1.345 . S
C288 C289 1.371 . S
C288 H291 0.931 . S
C289 C285 1.391 . S
C289 C288 1.371 . S
C289 H296 0.930 . S
H290 C287 0.928 . S
H291 C288 0.931 . S
H292 C268 0.930 . S
H293 C265 0.930 . S
H294 C274 0.930 . S
H295 C286 0.929 . S
H296 C289 0.930 . S
C297 C298 1.351 . S
C297 N300 1.368 . S
C297 H302 0.931 1_455 S
C298 C297 1.351 . S
C298 N299 1.373 . S
C298 H326 0.930 . S
N299 C298 1.373 . S
N299 C301 1.340 . S
N300 C297 1.368 . S
N300 C301 1.321 . S
N300 Co303 2.135 1_455 S
C301 N299 1.340 . S
C301 N300 1.321 . S
C301 H325 0.930 . S
H302 C297 0.931 1_655 S
Co303 N300 2.135 1_655 S
Co303 N306 2.121 . S
Co303 O311 2.055 . S
Co303 O314 2.039 1_655 S
Co303 N317 2.140 . S
C304 O305 1.227 1_455 S
C304 O314 1.265 . S
O305 C304 1.227 1_655 S
N306 Co303 2.121 . S
N306 C308 1.375 . S
N306 C309 1.313 . S
C307 C308 1.338 . S
C307 N310 1.377 . S
C307 H327 0.930 . S
C308 N306 1.375 . S
C308 C307 1.338 . S
C308 H312 0.931 . S
C309 N306 1.313 . S
C309 N310 1.344 . S
C309 H313 0.930 . S
N310 C307 1.377 . S
N310 C309 1.344 . S
O311 Co303 2.055 . S
O311 C315 1.253 . S
H312 C308 0.931 . S
H313 C309 0.930 . S
O314 Co303 2.039 1_455 S
O314 C304 1.265 . S
C315 O311 1.253 . S
C315 O316 1.227 . S
O316 C315 1.227 . S
N317 Co303 2.140 . S
N317 C320 1.346 . S
N317 C321 1.345 . S
C318 C319 1.387 . S
C318 C322 1.391 . S
C319 C318 1.387 . S
C319 C320 1.369 . S
C319 H328 0.929 . S
C320 N317 1.346 . S
C320 C319 1.369 . S
C320 H323 0.928 . S
C321 N317 1.345 . S
C321 C322 1.371 . S
C321 H324 0.931 . S
C322 C318 1.391 . S
C322 C321 1.371 . S
C322 H329 0.930 . S
H323 C320 0.928 . S
H324 C321 0.931 . S
H325 C301 0.930 . S
H326 C298 0.930 . S
H327 C307 0.930 . S
H328 C319 0.929 . S
H329 C322 0.930 . S
C330 C331 1.351 . S
C330 N333 1.368 . S
C330 H335 0.931 . S
C331 C330 1.351 . S
C331 N332 1.373 . S
C331 H359 0.930 . S
N332 C331 1.373 . S
N332 C334 1.340 . S
N333 C330 1.368 . S
N333 C334 1.321 . S
N333 Co336 2.135 . S
C334 N332 1.340 . S
C334 N333 1.321 . S
C334 H358 0.930 . S
H335 C330 0.931 . S
Co336 N333 2.135 . S
Co336 N339 2.121 . S
Co336 O344 2.055 . S
Co336 O347 2.039 . S
Co336 N350 2.140 . S
C337 O338 1.227 . S
C337 O347 1.265 . S
O338 C337 1.227 . S
N339 Co336 2.121 . S
N339 C341 1.375 . S
N339 C342 1.313 . S
C340 C341 1.338 . S
C340 N343 1.377 . S
C340 H360 0.930 . S
C341 N339 1.375 . S
C341 C340 1.338 . S
C341 H345 0.931 . S
C342 N339 1.313 . S
C342 N343 1.344 . S
C342 H346 0.930 . S
N343 C340 1.377 . S
N343 C342 1.344 . S
O344 Co336 2.055 . S
O344 C348 1.253 . S
H345 C341 0.931 . S
H346 C342 0.930 . S
O347 Co336 2.039 . S
O347 C337 1.265 . S
C348 O344 1.253 . S
C348 O349 1.227 . S
O349 C348 1.227 . S
N350 Co336 2.140 . S
N350 C353 1.346 . S
N350 C354 1.345 . S
C351 C352 1.387 . S
C351 C355 1.391 . S
C352 C351 1.387 . S
C352 C353 1.369 . S
C352 H361 0.929 . S
C353 N350 1.346 . S
C353 C352 1.369 . S
C353 H356 0.928 . S
C354 N350 1.345 . S
C354 C355 1.371 . S
C354 H357 0.931 . S
C355 C351 1.391 . S
C355 C354 1.371 . S
C355 H362 0.930 . S
H356 C353 0.928 . S
H357 C354 0.931 . S
H358 C334 0.930 . S
H359 C331 0.930 . S
H360 C340 0.930 . S
H361 C352 0.929 . S
H362 C355 0.930 . S
C363 C364 1.351 . S
C363 N366 1.368 . S
C363 H368 0.931 . S
C364 C363 1.351 . S
C364 N365 1.373 . S
C364 H392 0.930 . S
N365 C364 1.373 . S
N365 C367 1.340 . S
N366 C363 1.368 . S
N366 C367 1.321 . S
N366 Co369 2.135 . S
C367 N365 1.340 . S
C367 N366 1.321 . S
C367 H391 0.930 . S
H368 C363 0.931 . S
Co369 N366 2.135 . S
Co369 N372 2.121 1_556 S
Co369 O377 2.055 1_556 S
Co369 O380 2.039 1_556 S
Co369 N383 2.140 . S
C370 O371 1.227 . S
C370 O380 1.265 1_556 S
O371 C370 1.227 . S
N372 Co369 2.121 1_554 S
N372 C374 1.375 . S
N372 C375 1.313 . S
C373 C374 1.338 . S
C373 N376 1.377 . S
C373 H393 0.930 . S
C374 N372 1.375 . S
C374 C373 1.338 . S
C374 H378 0.931 . S
C375 N372 1.313 . S
C375 N376 1.344 . S
C375 H379 0.930 . S
N376 C373 1.377 . S
N376 C375 1.344 . S
O377 Co369 2.055 1_554 S
O377 C381 1.253 . S
H378 C374 0.931 . S
H379 C375 0.930 . S
O380 Co369 2.039 1_554 S
O380 C370 1.265 1_554 S
C381 O377 1.253 . S
C381 O382 1.227 1_554 S
O382 C381 1.227 1_556 S
N383 Co369 2.140 . S
N383 C386 1.346 . S
N383 C387 1.345 . S
C384 C385 1.387 . S
C384 C388 1.391 . S
C385 C384 1.387 . S
C385 C386 1.369 . S
C385 H394 0.929 . S
C386 N383 1.346 . S
C386 C385 1.369 . S
C386 H389 0.928 . S
C387 N383 1.345 . S
C387 C388 1.371 . S
C387 H390 0.931 . S
C388 C384 1.391 . S
C388 C387 1.371 . S
C388 H395 0.930 . S
H389 C386 0.928 . S
H390 C387 0.931 . S
H391 C367 0.930 . S
H392 C364 0.930 . S
H393 C373 0.930 . S
H394 C385 0.929 . S
H395 C388 0.930 . S
C396 C397 1.351 . S
C396 N399 1.368 . S
C396 H401 0.931 . S
C397 C396 1.351 . S
C397 N398 1.373 . S
C397 H425 0.930 . S
N398 C397 1.373 . S
N398 C400 1.340 . S
N399 C396 1.368 . S
N399 C400 1.321 . S
N399 Co402 2.135 . S
C400 N398 1.340 . S
C400 N399 1.321 . S
C400 H424 0.930 . S
H401 C396 0.931 . S
Co402 N399 2.135 . S
Co402 N405 2.121 . S
Co402 O410 2.055 . S
Co402 O413 2.039 . S
Co402 N416 2.140 . S
C403 O404 1.227 . S
C403 O413 1.265 . S
O404 C403 1.227 . S
N405 Co402 2.121 . S
N405 C407 1.375 . S
N405 C408 1.313 . S
C406 C407 1.338 . S
C406 N409 1.377 . S
C406 H426 0.930 . S
C407 N405 1.375 . S
C407 C406 1.338 . S
C407 H411 0.931 . S
C408 N405 1.313 . S
C408 N409 1.344 . S
C408 H412 0.930 . S
N409 C406 1.377 . S
N409 C408 1.344 . S
O410 Co402 2.055 . S
O410 C414 1.253 . S
H411 C407 0.931 . S
H412 C408 0.930 . S
O413 Co402 2.039 . S
O413 C403 1.265 . S
C414 O410 1.253 . S
C414 O415 1.227 . S
O415 C414 1.227 . S
N416 Co402 2.140 . S
N416 C419 1.346 . S
N416 C420 1.345 . S
C417 C418 1.387 . S
C417 C421 1.391 . S
C418 C417 1.387 . S
C418 C419 1.369 . S
C418 H427 0.929 . S
C419 N416 1.346 . S
C419 C418 1.369 . S
C419 H422 0.928 . S
C420 N416 1.345 . S
C420 C421 1.371 . S
C420 H423 0.931 . S
C421 C417 1.391 . S
C421 C420 1.371 . S
C421 H428 0.930 . S
H422 C419 0.928 . S
H423 C420 0.931 . S
H424 C400 0.930 . S
H425 C397 0.930 . S
H426 C406 0.930 . S
H427 C418 0.929 . S
H428 C421 0.930 . S
C429 C430 1.351 . S
C429 N432 1.368 . S
C429 H434 0.931 . S
C430 C429 1.351 . S
C430 N431 1.373 . S
C430 H458 0.930 . S
N431 C430 1.373 . S
N431 C433 1.340 . S
N432 C429 1.368 . S
N432 C433 1.321 . S
N432 Co435 2.135 . S
C433 N431 1.340 . S
C433 N432 1.321 . S
C433 H457 0.930 . S
H434 C429 0.931 . S
Co435 N432 2.135 . S
Co435 N438 2.121 . S
Co435 O443 2.055 . S
Co435 O446 2.039 . S
Co435 N449 2.140 . S
C436 O437 1.227 . S
C436 O446 1.265 . S
O437 C436 1.227 . S
N438 Co435 2.121 . S
N438 C440 1.375 . S
N438 C441 1.313 . S
C439 C440 1.338 . S
C439 N442 1.377 . S
C439 H459 0.930 . S
C440 N438 1.375 . S
C440 C439 1.338 . S
C440 H444 0.931 . S
C441 N438 1.313 . S
C441 N442 1.344 . S
C441 H445 0.930 . S
N442 C439 1.377 . S
N442 C441 1.344 . S
O443 Co435 2.055 . S
O443 C447 1.253 . S
H444 C440 0.931 . S
H445 C441 0.930 . S
O446 Co435 2.039 . S
O446 C436 1.265 . S
C447 O443 1.253 . S
C447 O448 1.227 . S
O448 C447 1.227 . S
N449 Co435 2.140 . S
N449 C452 1.346 . S
N449 C453 1.345 . S
C450 C451 1.387 . S
C450 C454 1.391 . S
C451 C450 1.387 . S
C451 C452 1.369 . S
C451 H460 0.929 . S
C452 N449 1.346 . S
C452 C451 1.369 . S
C452 H455 0.928 . S
C453 N449 1.345 . S
C453 C454 1.371 . S
C453 H456 0.931 . S
C454 C450 1.391 . S
C454 C453 1.371 . S
C454 H461 0.930 . S
H455 C452 0.928 . S
H456 C453 0.931 . S
H457 C433 0.930 . S
H458 C430 0.930 . S
H459 C439 0.930 . S
H460 C451 0.929 . S
H461 C454 0.930 . S
C462 C463 1.351 . S
C462 N465 1.368 . S
C462 H467 0.931 . S
C463 C462 1.351 . S
C463 N464 1.373 . S
C463 H491 0.930 . S
N464 C463 1.373 . S
N464 C466 1.340 . S
N465 C462 1.368 . S
N465 C466 1.321 . S
N465 Co468 2.135 . S
C466 N464 1.340 . S
C466 N465 1.321 . S
C466 H490 0.930 . S
H467 C462 0.931 . S
Co468 N465 2.135 . S
Co468 N471 2.121 . S
Co468 O476 2.055 . S
Co468 O479 2.039 . S
Co468 N482 2.140 . S
C469 O470 1.227 . S
C469 O479 1.265 . S
O470 C469 1.227 . S
N471 Co468 2.121 . S
N471 C473 1.375 . S
N471 C474 1.313 . S
C472 C473 1.338 . S
C472 N475 1.377 . S
C472 H492 0.930 . S
C473 N471 1.375 . S
C473 C472 1.338 . S
C473 H477 0.931 . S
C474 N471 1.313 . S
C474 N475 1.344 . S
C474 H478 0.930 . S
N475 C472 1.377 . S
N475 C474 1.344 . S
O476 Co468 2.055 . S
O476 C480 1.253 . S
H477 C473 0.931 . S
H478 C474 0.930 . S
O479 Co468 2.039 . S
O479 C469 1.265 . S
C480 O476 1.253 . S
C480 O481 1.227 . S
O481 C480 1.227 . S
N482 Co468 2.140 . S
N482 C485 1.346 . S
N482 C486 1.345 . S
C483 C484 1.387 . S
C483 C487 1.391 . S
C484 C483 1.387 . S
C484 C485 1.369 . S
C484 H493 0.929 . S
C485 N482 1.346 . S
C485 C484 1.369 . S
C485 H488 0.928 . S
C486 N482 1.345 . S
C486 C487 1.371 . S
C486 H489 0.931 . S
C487 C483 1.391 . S
C487 C486 1.371 . S
C487 H494 0.930 . S
H488 C485 0.928 . S
H489 C486 0.931 . S
H490 C466 0.930 . S
H491 C463 0.930 . S
H492 C472 0.930 . S
H493 C484 0.929 . S
H494 C487 0.930 . S
C495 C496 1.351 . S
C495 N498 1.368 . S
C495 H500 0.931 1_455 S
C496 C495 1.351 . S
C496 N497 1.373 . S
C496 H524 0.930 . S
N497 C496 1.373 . S
N497 C499 1.340 . S
N498 C495 1.368 . S
N498 C499 1.321 . S
N498 Co501 2.135 1_455 S
C499 N497 1.340 . S
C499 N498 1.321 . S
C499 H523 0.930 . S
H500 C495 0.931 1_655 S
Co501 N498 2.135 1_655 S
Co501 N504 2.121 1_554 S
Co501 O509 2.055 1_554 S
Co501 O512 2.039 1_654 S
Co501 N515 2.140 . S
C502 O503 1.227 1_455 S
C502 O512 1.265 1_554 S
O503 C502 1.227 1_655 S
N504 Co501 2.121 1_556 S
N504 C506 1.375 . S
N504 C507 1.313 . S
C505 C506 1.338 . S
C505 N508 1.377 . S
C505 H525 0.930 . S
C506 N504 1.375 . S
C506 C505 1.338 . S
C506 H510 0.931 . S
C507 N504 1.313 . S
C507 N508 1.344 . S
C507 H511 0.930 . S
N508 C505 1.377 . S
N508 C507 1.344 . S
O509 Co501 2.055 1_556 S
O509 C513 1.253 . S
H510 C506 0.931 . S
H511 C507 0.930 . S
O512 Co501 2.039 1_456 S
O512 C502 1.265 1_556 S
C513 O509 1.253 . S
C513 O514 1.227 1_556 S
O514 C513 1.227 1_554 S
N515 Co501 2.140 . S
N515 C518 1.346 . S
N515 C519 1.345 . S
C516 C517 1.387 . S
C516 C520 1.391 . S
C517 C516 1.387 . S
C517 C518 1.369 . S
C517 H526 0.929 . S
C518 N515 1.346 . S
C518 C517 1.369 . S
C518 H521 0.928 . S
C519 N515 1.345 . S
C519 C520 1.371 . S
C519 H522 0.931 . S
C520 C516 1.391 . S
C520 C519 1.371 . S
C520 H527 0.930 . S
H521 C518 0.928 . S
H522 C519 0.931 . S
H523 C499 0.930 . S
H524 C496 0.930 . S
H525 C505 0.930 . S
H526 C517 0.929 . S
H527 C520 0.930 . S
C528 C529 1.351 . S
C528 N531 1.368 . S
C528 H533 0.931 . S
C529 C528 1.351 . S
C529 N530 1.373 . S
C529 H557 0.930 . S
N530 C529 1.373 . S
N530 C532 1.340 . S
N531 C528 1.368 . S
N531 C532 1.321 . S
N531 Co534 2.135 . S
C532 N530 1.340 . S
C532 N531 1.321 . S
C532 H556 0.930 . S
H533 C528 0.931 . S
Co534 N531 2.135 . S
Co534 N537 2.121 . S
Co534 O542 2.055 . S
Co534 O545 2.039 . S
Co534 N548 2.140 . S
C535 O536 1.227 . S
C535 O545 1.265 . S
O536 C535 1.227 . S
N537 Co534 2.121 . S
N537 C539 1.375 . S
N537 C540 1.313 . S
C538 C539 1.338 . S
C538 N541 1.377 . S
C538 H558 0.930 . S
C539 N537 1.375 . S
C539 C538 1.338 . S
C539 H543 0.931 . S
C540 N537 1.313 . S
C540 N541 1.344 . S
C540 H544 0.930 . S
N541 C538 1.377 . S
N541 C540 1.344 . S
O542 Co534 2.055 . S
O542 C546 1.253 . S
H543 C539 0.931 . S
H544 C540 0.930 . S
O545 Co534 2.039 . S
O545 C535 1.265 . S
C546 O542 1.253 . S
C546 O547 1.227 . S
O547 C546 1.227 . S
N548 Co534 2.140 . S
N548 C551 1.346 . S
N548 C552 1.345 . S
C549 C550 1.387 . S
C549 C553 1.391 . S
C550 C549 1.387 . S
C550 C551 1.369 . S
C550 H559 0.929 . S
C551 N548 1.346 . S
C551 C550 1.369 . S
C551 H554 0.928 . S
C552 N548 1.345 . S
C552 C553 1.371 . S
C552 H555 0.931 . S
C553 C549 1.391 . S
C553 C552 1.371 . S
C553 H560 0.930 . S
H554 C551 0.928 . S
H555 C552 0.931 . S
H556 C532 0.930 . S
H557 C529 0.930 . S
H558 C538 0.930 . S
H559 C550 0.929 . S
H560 C553 0.930 . S
C561 C562 1.351 . S
C561 N564 1.368 . S
C561 H566 0.931 . S
C562 C561 1.351 . S
C562 N563 1.373 . S
C562 H590 0.930 . S
N563 C562 1.373 . S
N563 C565 1.340 . S
N564 C561 1.368 . S
N564 C565 1.321 . S
N564 Co567 2.135 . S
C565 N563 1.340 . S
C565 N564 1.321 . S
C565 H589 0.930 . S
H566 C561 0.931 . S
Co567 N564 2.135 . S
Co567 N570 2.121 1_554 S
Co567 O575 2.055 1_554 S
Co567 O578 2.039 1_554 S
Co567 N581 2.140 . S
C568 O569 1.227 . S
C568 O578 1.265 1_554 S
O569 C568 1.227 . S
N570 Co567 2.121 1_556 S
N570 C572 1.375 . S
N570 C573 1.313 . S
C571 C572 1.338 . S
C571 N574 1.377 . S
C571 H591 0.930 . S
C572 N570 1.375 . S
C572 C571 1.338 . S
C572 H576 0.931 . S
C573 N570 1.313 . S
C573 N574 1.344 . S
C573 H577 0.930 . S
N574 C571 1.377 . S
N574 C573 1.344 . S
O575 Co567 2.055 1_556 S
O575 C579 1.253 . S
H576 C572 0.931 . S
H577 C573 0.930 . S
O578 Co567 2.039 1_556 S
O578 C568 1.265 1_556 S
C579 O575 1.253 . S
C579 O580 1.227 1_556 S
O580 C579 1.227 1_554 S
N581 Co567 2.140 . S
N581 C584 1.346 . S
N581 C585 1.345 . S
C582 C583 1.387 . S
C582 C586 1.391 . S
C583 C582 1.387 . S
C583 C584 1.369 . S
C583 H592 0.929 . S
C584 N581 1.346 . S
C584 C583 1.369 . S
C584 H587 0.928 . S
C585 N581 1.345 . S
C585 C586 1.371 . S
C585 H588 0.931 . S
C586 C582 1.391 . S
C586 C585 1.371 . S
C586 H593 0.930 . S
H587 C584 0.928 . S
H588 C585 0.931 . S
H589 C565 0.930 . S
H590 C562 0.930 . S
H591 C571 0.930 . S
H592 C583 0.929 . S
H593 C586 0.930 . S
C594 C595 1.351 . S
C594 N597 1.368 . S
C594 H599 0.931 . S
C595 C594 1.351 . S
C595 N596 1.373 . S
C595 H623 0.930 . S
N596 C595 1.373 . S
N596 C598 1.340 . S
N597 C594 1.368 . S
N597 C598 1.321 . S
N597 Co600 2.135 . S
C598 N596 1.340 . S
C598 N597 1.321 . S
C598 H622 0.930 . S
H599 C594 0.931 . S
Co600 N597 2.135 . S
Co600 N603 2.121 . S
Co600 O608 2.055 . S
Co600 O611 2.039 . S
Co600 N614 2.140 . S
C601 O602 1.227 . S
C601 O611 1.265 . S
O602 C601 1.227 . S
N603 Co600 2.121 . S
N603 C605 1.375 . S
N603 C606 1.313 . S
C604 C605 1.338 . S
C604 N607 1.377 . S
C604 H624 0.930 . S
C605 N603 1.375 . S
C605 C604 1.338 . S
C605 H609 0.931 . S
C606 N603 1.313 . S
C606 N607 1.344 . S
C606 H610 0.930 . S
N607 C604 1.377 . S
N607 C606 1.344 . S
O608 Co600 2.055 . S
O608 C612 1.253 . S
H609 C605 0.931 . S
H610 C606 0.930 . S
O611 Co600 2.039 . S
O611 C601 1.265 . S
C612 O608 1.253 . S
C612 O613 1.227 . S
O613 C612 1.227 . S
N614 Co600 2.140 . S
N614 C617 1.346 . S
N614 C618 1.345 . S
C615 C616 1.387 . S
C615 C619 1.391 . S
C616 C615 1.387 . S
C616 C617 1.369 . S
C616 H625 0.929 . S
C617 N614 1.346 . S
C617 C616 1.369 . S
C617 H620 0.928 . S
C618 N614 1.345 . S
C618 C619 1.371 . S
C618 H621 0.931 . S
C619 C615 1.391 . S
C619 C618 1.371 . S
C619 H626 0.930 . S
H620 C617 0.928 . S
H621 C618 0.931 . S
H622 C598 0.930 . S
H623 C595 0.930 . S
H624 C604 0.930 . S
H625 C616 0.929 . S
H626 C619 0.930 . S
C627 C628 1.351 . S
C627 N630 1.368 . S
C627 H632 0.931 1_455 S
C628 C627 1.351 . S
C628 N629 1.373 . S
C628 H656 0.930 . S
N629 C628 1.373 . S
N629 C631 1.340 . S
N630 C627 1.368 . S
N630 C631 1.321 . S
N630 Co633 2.135 1_455 S
C631 N629 1.340 . S
C631 N630 1.321 . S
C631 H655 0.930 . S
H632 C627 0.931 1_655 S
Co633 N630 2.135 1_655 S
Co633 N636 2.121 . S
Co633 O641 2.055 . S
Co633 O644 2.039 1_655 S
Co633 N647 2.140 . S
C634 O635 1.227 1_455 S
C634 O644 1.265 . S
O635 C634 1.227 1_655 S
N636 Co633 2.121 . S
N636 C638 1.375 . S
N636 C639 1.313 . S
C637 C638 1.338 . S
C637 N640 1.377 . S
C637 H657 0.930 . S
C638 N636 1.375 . S
C638 C637 1.338 . S
C638 H642 0.931 . S
C639 N636 1.313 . S
C639 N640 1.344 . S
C639 H643 0.930 . S
N640 C637 1.377 . S
N640 C639 1.344 . S
O641 Co633 2.055 . S
O641 C645 1.253 . S
H642 C638 0.931 . S
H643 C639 0.930 . S
O644 Co633 2.039 1_455 S
O644 C634 1.265 . S
C645 O641 1.253 . S
C645 O646 1.227 . S
O646 C645 1.227 . S
N647 Co633 2.140 . S
N647 C650 1.346 . S
N647 C651 1.345 . S
C648 C649 1.387 . S
C648 C652 1.391 . S
C649 C648 1.387 . S
C649 C650 1.369 . S
C649 H658 0.929 . S
C650 N647 1.346 . S
C650 C649 1.369 . S
C650 H653 0.928 . S
C651 N647 1.345 . S
C651 C652 1.371 . S
C651 H654 0.931 . S
C652 C648 1.391 . S
C652 C651 1.371 . S
C652 H659 0.930 . S
H653 C650 0.928 . S
H654 C651 0.931 . S
H655 C631 0.930 . S
H656 C628 0.930 . S
H657 C637 0.930 . S
H658 C649 0.929 . S
H659 C652 0.930 . S
C660 C661 1.351 . S
C660 N663 1.368 . S
C660 H665 0.931 . S
C661 C660 1.351 . S
C661 N662 1.373 . S
C661 H689 0.930 . S
N662 C661 1.373 . S
N662 C664 1.340 . S
N663 C660 1.368 . S
N663 C664 1.321 . S
N663 Co666 2.135 . S
C664 N662 1.340 . S
C664 N663 1.321 . S
C664 H688 0.930 . S
H665 C660 0.931 . S
Co666 N663 2.135 . S
Co666 N669 2.121 . S
Co666 O674 2.055 . S
Co666 O677 2.039 . S
Co666 N680 2.140 . S
C667 O668 1.227 . S
C667 O677 1.265 . S
O668 C667 1.227 . S
N669 Co666 2.121 . S
N669 C671 1.375 . S
N669 C672 1.313 . S
C670 C671 1.338 . S
C670 N673 1.377 . S
C670 H690 0.930 . S
C671 N669 1.375 . S
C671 C670 1.338 . S
C671 H675 0.931 . S
C672 N669 1.313 . S
C672 N673 1.344 . S
C672 H676 0.930 . S
N673 C670 1.377 . S
N673 C672 1.344 . S
O674 Co666 2.055 . S
O674 C678 1.253 . S
H675 C671 0.931 . S
H676 C672 0.930 . S
O677 Co666 2.039 . S
O677 C667 1.265 . S
C678 O674 1.253 . S
C678 O679 1.227 . S
O679 C678 1.227 . S
N680 Co666 2.140 . S
N680 C683 1.346 . S
N680 C684 1.345 . S
C681 C682 1.387 . S
C681 C685 1.391 . S
C682 C681 1.387 . S
C682 C683 1.369 . S
C682 H691 0.929 . S
C683 N680 1.346 . S
C683 C682 1.369 . S
C683 H686 0.928 . S
C684 N680 1.345 . S
C684 C685 1.371 . S
C684 H687 0.931 . S
C685 C681 1.391 . S
C685 C684 1.371 . S
C685 H692 0.930 . S
H686 C683 0.928 . S
H687 C684 0.931 . S
H688 C664 0.930 . S
H689 C661 0.930 . S
H690 C670 0.930 . S
H691 C682 0.929 . S
H692 C685 0.930 . S
C693 C694 1.351 . S
C693 N696 1.368 . S
C693 H698 0.931 1_455 S
C694 C693 1.351 . S
C694 N695 1.373 . S
C694 H722 0.930 . S
N695 C694 1.373 . S
N695 C697 1.340 . S
N696 C693 1.368 . S
N696 C697 1.321 . S
N696 Co699 2.135 1_455 S
C697 N695 1.340 . S
C697 N696 1.321 . S
C697 H721 0.930 . S
H698 C693 0.931 1_655 S
Co699 N696 2.135 1_655 S
Co699 N702 2.121 1_556 S
Co699 O707 2.055 1_556 S
Co699 O710 2.039 1_656 S
Co699 N713 2.140 . S
C700 O701 1.227 1_455 S
C700 O710 1.265 1_556 S
O701 C700 1.227 1_655 S
N702 Co699 2.121 1_554 S
N702 C704 1.375 . S
N702 C705 1.313 . S
C703 C704 1.338 . S
C703 N706 1.377 . S
C703 H723 0.930 . S
C704 N702 1.375 . S
C704 C703 1.338 . S
C704 H708 0.931 . S
C705 N702 1.313 . S
C705 N706 1.344 . S
C705 H709 0.930 . S
N706 C703 1.377 . S
N706 C705 1.344 . S
O707 Co699 2.055 1_554 S
O707 C711 1.253 . S
H708 C704 0.931 . S
H709 C705 0.930 . S
O710 Co699 2.039 1_454 S
O710 C700 1.265 1_554 S
C711 O707 1.253 . S
C711 O712 1.227 1_554 S
O712 C711 1.227 1_556 S
N713 Co699 2.140 . S
N713 C716 1.346 . S
N713 C717 1.345 . S
C714 C715 1.387 . S
C714 C718 1.391 . S
C715 C714 1.387 . S
C715 C716 1.369 . S
C715 H724 0.929 . S
C716 N713 1.346 . S
C716 C715 1.369 . S
C716 H719 0.928 . S
C717 N713 1.345 . S
C717 C718 1.371 . S
C717 H720 0.931 . S
C718 C714 1.391 . S
C718 C717 1.371 . S
C718 H725 0.930 . S
H719 C716 0.928 . S
H720 C717 0.931 . S
H721 C697 0.930 . S
H722 C694 0.930 . S
H723 C703 0.930 . S
H724 C715 0.929 . S
H725 C718 0.930 . S
C726 C727 1.351 . S
C726 N729 1.368 . S
C726 H731 0.931 . S
C727 C726 1.351 . S
C727 N728 1.373 . S
C727 H755 0.930 . S
N728 C727 1.373 . S
N728 C730 1.340 . S
N729 C726 1.368 . S
N729 C730 1.321 . S
N729 Co732 2.135 . S
C730 N728 1.340 . S
C730 N729 1.321 . S
C730 H754 0.930 . S
H731 C726 0.931 . S
Co732 N729 2.135 . S
Co732 N735 2.121 . S
Co732 O740 2.055 . S
Co732 O743 2.039 . S
Co732 N746 2.140 . S
C733 O734 1.227 . S
C733 O743 1.265 . S
O734 C733 1.227 . S
N735 Co732 2.121 . S
N735 C737 1.375 . S
N735 C738 1.313 . S
C736 C737 1.338 . S
C736 N739 1.377 . S
C736 H756 0.930 . S
C737 N735 1.375 . S
C737 C736 1.338 . S
C737 H741 0.931 . S
C738 N735 1.313 . S
C738 N739 1.344 . S
C738 H742 0.930 . S
N739 C736 1.377 . S
N739 C738 1.344 . S
O740 Co732 2.055 . S
O740 C744 1.253 . S
H741 C737 0.931 . S
H742 C738 0.930 . S
O743 Co732 2.039 . S
O743 C733 1.265 . S
C744 O740 1.253 . S
C744 O745 1.227 . S
O745 C744 1.227 . S
N746 Co732 2.140 . S
N746 C749 1.346 . S
N746 C750 1.345 . S
C747 C748 1.387 . S
C747 C751 1.391 . S
C748 C747 1.387 . S
C748 C749 1.369 . S
C748 H757 0.929 . S
C749 N746 1.346 . S
C749 C748 1.369 . S
C749 H752 0.928 . S
C750 N746 1.345 . S
C750 C751 1.371 . S
C750 H753 0.931 . S
C751 C747 1.391 . S
C751 C750 1.371 . S
C751 H758 0.930 . S
H752 C749 0.928 . S
H753 C750 0.931 . S
H754 C730 0.930 . S
H755 C727 0.930 . S
H756 C736 0.930 . S
H757 C748 0.929 . S
H758 C751 0.930 . S
C759 C760 1.351 . S
C759 N762 1.368 . S
C759 H764 0.931 . S
C760 C759 1.351 . S
C760 N761 1.373 . S
C760 H788 0.930 . S
N761 C760 1.373 . S
N761 C763 1.340 . S
N762 C759 1.368 . S
N762 C763 1.321 . S
N762 Co765 2.135 . S
C763 N761 1.340 . S
C763 N762 1.321 . S
C763 H787 0.930 . S
H764 C759 0.931 . S
Co765 N762 2.135 . S
Co765 N768 2.121 . S
Co765 O773 2.055 . S
Co765 O776 2.039 . S
Co765 N779 2.140 . S
C766 O767 1.227 . S
C766 O776 1.265 . S
O767 C766 1.227 . S
N768 Co765 2.121 . S
N768 C770 1.375 . S
N768 C771 1.313 . S
C769 C770 1.338 . S
C769 N772 1.377 . S
C769 H789 0.930 . S
C770 N768 1.375 . S
C770 C769 1.338 . S
C770 H774 0.931 . S
C771 N768 1.313 . S
C771 N772 1.344 . S
C771 H775 0.930 . S
N772 C769 1.377 . S
N772 C771 1.344 . S
O773 Co765 2.055 . S
O773 C777 1.253 . S
H774 C770 0.931 . S
H775 C771 0.930 . S
O776 Co765 2.039 . S
O776 C766 1.265 . S
C777 O773 1.253 . S
C777 O778 1.227 . S
O778 C777 1.227 . S
N779 Co765 2.140 . S
N779 C782 1.346 . S
N779 C783 1.345 . S
C780 C781 1.387 . S
C780 C784 1.391 . S
C781 C780 1.387 . S
C781 C782 1.369 . S
C781 H790 0.929 . S
C782 N779 1.346 . S
C782 C781 1.369 . S
C782 H785 0.928 . S
C783 N779 1.345 . S
C783 C784 1.371 . S
C783 H786 0.931 . S
C784 C780 1.391 . S
C784 C783 1.371 . S
C784 H791 0.930 . S
H785 C782 0.928 . S
H786 C783 0.931 . S
H787 C763 0.930 . S
H788 C760 0.930 . S
H789 C769 0.930 . S
H790 C781 0.929 . S
H791 C784 0.930 . S
C792 C793 1.351 . S
C792 N795 1.368 . S
C792 H797 0.931 . S
C793 C792 1.351 . S
C793 N794 1.373 . S
C793 H821 0.930 . S
N794 C793 1.373 . S
N794 C796 1.340 . S
N795 C792 1.368 . S
N795 C796 1.321 . S
N795 Co798 2.135 . S
C796 N794 1.340 . S
C796 N795 1.321 . S
C796 H820 0.930 . S
H797 C792 0.931 . S
Co798 N795 2.135 . S
Co798 N801 2.121 . S
Co798 O806 2.055 . S
Co798 O809 2.039 . S
Co798 N812 2.140 . S
C799 O800 1.227 . S
C799 O809 1.265 . S
O800 C799 1.227 . S
N801 Co798 2.121 . S
N801 C803 1.375 . S
N801 C804 1.313 . S
C802 C803 1.338 . S
C802 N805 1.377 . S
C802 H822 0.930 . S
C803 N801 1.375 . S
C803 C802 1.338 . S
C803 H807 0.931 . S
C804 N801 1.313 . S
C804 N805 1.344 . S
C804 H808 0.930 . S
N805 C802 1.377 . S
N805 C804 1.344 . S
O806 Co798 2.055 . S
O806 C810 1.253 . S
H807 C803 0.931 . S
H808 C804 0.930 . S
O809 Co798 2.039 . S
O809 C799 1.265 . S
C810 O806 1.253 . S
C810 O811 1.227 . S
O811 C810 1.227 . S
N812 Co798 2.140 . S
N812 C815 1.346 . S
N812 C816 1.345 . S
C813 C814 1.387 . S
C813 C817 1.391 . S
C814 C813 1.387 . S
C814 C815 1.369 . S
C814 H823 0.929 . S
C815 N812 1.346 . S
C815 C814 1.369 . S
C815 H818 0.928 . S
C816 N812 1.345 . S
C816 C817 1.371 . S
C816 H819 0.931 . S
C817 C813 1.391 . S
C817 C816 1.371 . S
C817 H824 0.930 . S
H818 C815 0.928 . S
H819 C816 0.931 . S
H820 C796 0.930 . S
H821 C793 0.930 . S
H822 C802 0.930 . S
H823 C814 0.929 . S
H824 C817 0.930 . S
C825 C826 1.351 . S
C825 N828 1.368 . S
C825 H830 0.931 . S
C826 C825 1.351 . S
C826 N827 1.373 . S
C826 H854 0.930 . S
N827 C826 1.373 . S
N827 C829 1.340 . S
N828 C825 1.368 . S
N828 C829 1.321 . S
N828 Co831 2.135 . S
C829 N827 1.340 . S
C829 N828 1.321 . S
C829 H853 0.930 . S
H830 C825 0.931 . S
Co831 N828 2.135 . S
Co831 N834 2.121 1_556 S
Co831 O839 2.055 1_556 S
Co831 O842 2.039 1_556 S
Co831 N845 2.140 . S
C832 O833 1.227 . S
C832 O842 1.265 1_556 S
O833 C832 1.227 . S
N834 Co831 2.121 1_554 S
N834 C836 1.375 . S
N834 C837 1.313 . S
C835 C836 1.338 . S
C835 N838 1.377 . S
C835 H855 0.930 . S
C836 N834 1.375 . S
C836 C835 1.338 . S
C836 H840 0.931 . S
C837 N834 1.313 . S
C837 N838 1.344 . S
C837 H841 0.930 . S
N838 C835 1.377 . S
N838 C837 1.344 . S
O839 Co831 2.055 1_554 S
O839 C843 1.253 . S
H840 C836 0.931 . S
H841 C837 0.930 . S
O842 Co831 2.039 1_554 S
O842 C832 1.265 1_554 S
C843 O839 1.253 . S
C843 O844 1.227 1_554 S
O844 C843 1.227 1_556 S
N845 Co831 2.140 . S
N845 C848 1.346 . S
N845 C849 1.345 . S
C846 C847 1.387 . S
C846 C850 1.391 . S
C847 C846 1.387 . S
C847 C848 1.369 . S
C847 H856 0.929 . S
C848 N845 1.346 . S
C848 C847 1.369 . S
C848 H851 0.928 . S
C849 N845 1.345 . S
C849 C850 1.371 . S
C849 H852 0.931 . S
C850 C846 1.391 . S
C850 C849 1.371 . S
C850 H857 0.930 . S
H851 C848 0.928 . S
H852 C849 0.931 . S
H853 C829 0.930 . S
H854 C826 0.930 . S
H855 C835 0.930 . S
H856 C847 0.929 . S
H857 C850 0.930 . S
C858 C859 1.351 . S
C858 N861 1.368 . S
C858 H863 0.931 . S
C859 C858 1.351 . S
C859 N860 1.373 . S
C859 H887 0.930 . S
N860 C859 1.373 . S
N860 C862 1.340 . S
N861 C858 1.368 . S
N861 C862 1.321 . S
N861 Co864 2.135 . S
C862 N860 1.340 . S
C862 N861 1.321 . S
C862 H886 0.930 . S
H863 C858 0.931 . S
Co864 N861 2.135 . S
Co864 N867 2.121 . S
Co864 O872 2.055 . S
Co864 O875 2.039 . S
Co864 N878 2.140 . S
C865 O866 1.227 . S
C865 O875 1.265 . S
O866 C865 1.227 . S
N867 Co864 2.121 . S
N867 C869 1.375 . S
N867 C870 1.313 . S
C868 C869 1.338 . S
C868 N871 1.377 . S
C868 H888 0.930 . S
C869 N867 1.375 . S
C869 C868 1.338 . S
C869 H873 0.931 . S
C870 N867 1.313 . S
C870 N871 1.344 . S
C870 H874 0.930 . S
N871 C868 1.377 . S
N871 C870 1.344 . S
O872 Co864 2.055 . S
O872 C876 1.253 . S
H873 C869 0.931 . S
H874 C870 0.930 . S
O875 Co864 2.039 . S
O875 C865 1.265 . S
C876 O872 1.253 . S
C876 O877 1.227 . S
O877 C876 1.227 . S
N878 Co864 2.140 . S
N878 C881 1.346 . S
N878 C882 1.345 . S
C879 C880 1.387 . S
C879 C883 1.391 . S
C880 C879 1.387 . S
C880 C881 1.369 . S
C880 H889 0.929 . S
C881 N878 1.346 . S
C881 C880 1.369 . S
C881 H884 0.928 . S
C882 N878 1.345 . S
C882 C883 1.371 . S
C882 H885 0.931 . S
C883 C879 1.391 . S
C883 C882 1.371 . S
C883 H890 0.930 . S
H884 C881 0.928 . S
H885 C882 0.931 . S
H886 C862 0.930 . S
H887 C859 0.930 . S
H888 C868 0.930 . S
H889 C880 0.929 . S
H890 C883 0.930 . S
C891 C892 1.351 . S
C891 N894 1.368 . S
C891 H896 0.931 1_655 S
C892 C891 1.351 . S
C892 N893 1.373 . S
C892 H920 0.930 . S
N893 C892 1.373 . S
N893 C895 1.340 . S
N894 C891 1.368 . S
N894 C895 1.321 . S
N894 Co897 2.135 1_655 S
C895 N893 1.340 . S
C895 N894 1.321 . S
C895 H919 0.930 . S
H896 C891 0.931 1_455 S
Co897 N894 2.135 1_455 S
Co897 N900 2.121 . S
Co897 O905 2.055 . S
Co897 O908 2.039 1_455 S
Co897 N911 2.140 . S
C898 O899 1.227 1_655 S
C898 O908 1.265 . S
O899 C898 1.227 1_455 S
N900 Co897 2.121 . S
N900 C902 1.375 . S
N900 C903 1.313 . S
C901 C902 1.338 . S
C901 N904 1.377 . S
C901 H921 0.930 . S
C902 N900 1.375 . S
C902 C901 1.338 . S
C902 H906 0.931 . S
C903 N900 1.313 . S
C903 N904 1.344 . S
C903 H907 0.930 . S
N904 C901 1.377 . S
N904 C903 1.344 . S
O905 Co897 2.055 . S
O905 C909 1.253 . S
H906 C902 0.931 . S
H907 C903 0.930 . S
O908 Co897 2.039 1_655 S
O908 C898 1.265 . S
C909 O905 1.253 . S
C909 O910 1.227 . S
O910 C909 1.227 . S
N911 Co897 2.140 . S
N911 C914 1.346 . S
N911 C915 1.345 . S
C912 C913 1.387 . S
C912 C916 1.391 . S
C913 C912 1.387 . S
C913 C914 1.369 . S
C913 H922 0.929 . S
C914 N911 1.346 . S
C914 C913 1.369 . S
C914 H917 0.928 . S
C915 N911 1.345 . S
C915 C916 1.371 . S
C915 H918 0.931 . S
C916 C912 1.391 . S
C916 C915 1.371 . S
C916 H923 0.930 . S
H917 C914 0.928 . S
H918 C915 0.931 . S
H919 C895 0.930 . S
H920 C892 0.930 . S
H921 C901 0.930 . S
H922 C913 0.929 . S
H923 C916 0.930 . S
C924 C925 1.351 . S
C924 N927 1.368 . S
C924 H929 0.931 . S
C925 C924 1.351 . S
C925 N926 1.373 . S
C925 H953 0.930 . S
N926 C925 1.373 . S
N926 C928 1.340 . S
N927 C924 1.368 . S
N927 C928 1.321 . S
N927 Co930 2.135 . S
C928 N926 1.340 . S
C928 N927 1.321 . S
C928 H952 0.930 . S
H929 C924 0.931 . S
Co930 N927 2.135 . S
Co930 N933 2.121 . S
Co930 O938 2.055 . S
Co930 O941 2.039 . S
Co930 N944 2.140 . S
C931 O932 1.227 . S
C931 O941 1.265 . S
O932 C931 1.227 . S
N933 Co930 2.121 . S
N933 C935 1.375 . S
N933 C936 1.313 . S
C934 C935 1.338 . S
C934 N937 1.377 . S
C934 H954 0.930 . S
C935 N933 1.375 . S
C935 C934 1.338 . S
C935 H939 0.931 . S
C936 N933 1.313 . S
C936 N937 1.344 . S
C936 H940 0.930 . S
N937 C934 1.377 . S
N937 C936 1.344 . S
O938 Co930 2.055 . S
O938 C942 1.253 . S
H939 C935 0.931 . S
H940 C936 0.930 . S
O941 Co930 2.039 . S
O941 C931 1.265 . S
C942 O938 1.253 . S
C942 O943 1.227 . S
O943 C942 1.227 . S
N944 Co930 2.140 . S
N944 C947 1.346 . S
N944 C948 1.345 . S
C945 C946 1.387 . S
C945 C949 1.391 . S
C946 C945 1.387 . S
C946 C947 1.369 . S
C946 H955 0.929 . S
C947 N944 1.346 . S
C947 C946 1.369 . S
C947 H950 0.928 . S
C948 N944 1.345 . S
C948 C949 1.371 . S
C948 H951 0.931 . S
C949 C945 1.391 . S
C949 C948 1.371 . S
C949 H956 0.930 . S
H950 C947 0.928 . S
H951 C948 0.931 . S
H952 C928 0.930 . S
H953 C925 0.930 . S
H954 C934 0.930 . S
H955 C946 0.929 . S
H956 C949 0.930 . S
C957 C958 1.351 . S
C957 N960 1.368 . S
C957 H962 0.931 1_655 S
C958 C957 1.351 . S
C958 N959 1.373 . S
C958 H986 0.930 . S
N959 C958 1.373 . S
N959 C961 1.340 . S
N960 C957 1.368 . S
N960 C961 1.321 . S
N960 Co963 2.135 1_655 S
C961 N959 1.340 . S
C961 N960 1.321 . S
C961 H985 0.930 . S
H962 C957 0.931 1_455 S
Co963 N960 2.135 1_455 S
Co963 N966 2.121 1_554 S
Co963 O971 2.055 1_554 S
Co963 O974 2.039 1_454 S
Co963 N977 2.140 . S
C964 O965 1.227 1_655 S
C964 O974 1.265 1_554 S
O965 C964 1.227 1_455 S
N966 Co963 2.121 1_556 S
N966 C968 1.375 . S
N966 C969 1.313 . S
C967 C968 1.338 . S
C967 N970 1.377 . S
C967 H987 0.930 . S
C968 N966 1.375 . S
C968 C967 1.338 . S
C968 H972 0.931 . S
C969 N966 1.313 . S
C969 N970 1.344 . S
C969 H973 0.930 . S
N970 C967 1.377 . S
N970 C969 1.344 . S
O971 Co963 2.055 1_556 S
O971 C975 1.253 . S
H972 C968 0.931 . S
H973 C969 0.930 . S
O974 Co963 2.039 1_656 S
O974 C964 1.265 1_556 S
C975 O971 1.253 . S
C975 O976 1.227 1_556 S
O976 C975 1.227 1_554 S
N977 Co963 2.140 . S
N977 C980 1.346 . S
N977 C981 1.345 . S
C978 C979 1.387 . S
C978 C982 1.391 . S
C979 C978 1.387 . S
C979 C980 1.369 . S
C979 H988 0.929 . S
C980 N977 1.346 . S
C980 C979 1.369 . S
C980 H983 0.928 . S
C981 N977 1.345 . S
C981 C982 1.371 . S
C981 H984 0.931 . S
C982 C978 1.391 . S
C982 C981 1.371 . S
C982 H989 0.930 . S
H983 C980 0.928 . S
H984 C981 0.931 . S
H985 C961 0.930 . S
H986 C958 0.930 . S
H987 C967 0.930 . S
H988 C979 0.929 . S
H989 C982 0.930 . S
C990 C991 1.351 . S
C990 N993 1.368 . S
C990 H995 0.931 . S
C991 C990 1.351 . S
C991 N992 1.373 . S
C991 H1019 0.930 . S
N992 C991 1.373 . S
N992 C994 1.340 . S
N993 C990 1.368 . S
N993 C994 1.321 . S
N993 Co996 2.135 . S
C994 N992 1.340 . S
C994 N993 1.321 . S
C994 H1018 0.930 . S
H995 C990 0.931 . S
Co996 N993 2.135 . S
Co996 N999 2.121 . S
Co996 O1004 2.055 . S
Co996 O1007 2.039 . S
Co996 N1010 2.140 . S
C997 O998 1.227 . S
C997 O1007 1.265 . S
O998 C997 1.227 . S
N999 Co996 2.121 . S
N999 C1001 1.375 . S
N999 C1002 1.313 . S
C1000 C1001 1.338 . S
C1000 N1003 1.377 . S
C1000 H1020 0.930 . S
C1001 N999 1.375 . S
C1001 C1000 1.338 . S
C1001 H1005 0.931 . S
C1002 N999 1.313 . S
C1002 N1003 1.344 . S
C1002 H1006 0.930 . S
N1003 C1000 1.377 . S
N1003 C1002 1.344 . S
O1004 Co996 2.055 . S
O1004 C1008 1.253 . S
H1005 C1001 0.931 . S
H1006 C1002 0.930 . S
O1007 Co996 2.039 . S
O1007 C997 1.265 . S
C1008 O1004 1.253 . S
C1008 O1009 1.227 . S
O1009 C1008 1.227 . S
N1010 Co996 2.140 . S
N1010 C1013 1.346 . S
N1010 C1014 1.345 . S
C1011 C1012 1.387 . S
C1011 C1015 1.391 . S
C1012 C1011 1.387 . S
C1012 C1013 1.369 . S
C1012 H1021 0.929 . S
C1013 N1010 1.346 . S
C1013 C1012 1.369 . S
C1013 H1016 0.928 . S
C1014 N1010 1.345 . S
C1014 C1015 1.371 . S
C1014 H1017 0.931 . S
C1015 C1011 1.391 . S
C1015 C1014 1.371 . S
C1015 H1022 0.930 . S
H1016 C1013 0.928 . S
H1017 C1014 0.931 . S
H1018 C994 0.930 . S
H1019 C991 0.930 . S
H1020 C1000 0.930 . S
H1021 C1012 0.929 . S
H1022 C1015 0.930 . S
C1023 C1024 1.351 . S
C1023 N1026 1.368 . S
C1023 H1028 0.931 . S
C1024 C1023 1.351 . S
C1024 N1025 1.373 . S
C1024 H1052 0.930 . S
N1025 C1024 1.373 . S
N1025 C1027 1.340 . S
N1026 C1023 1.368 . S
N1026 C1027 1.321 . S
N1026 Co1029 2.135 . S
C1027 N1025 1.340 . S
C1027 N1026 1.321 . S
C1027 H1051 0.930 . S
H1028 C1023 0.931 . S
Co1029 N1026 2.135 . S
Co1029 N1032 2.121 . S
Co1029 O1037 2.055 . S
Co1029 O1040 2.039 . S
Co1029 N1043 2.140 . S
C1030 O1031 1.227 . S
C1030 O1040 1.265 . S
O1031 C1030 1.227 . S
N1032 Co1029 2.121 . S
N1032 C1034 1.375 . S
N1032 C1035 1.313 . S
C1033 C1034 1.338 . S
C1033 N1036 1.377 . S
C1033 H1053 0.930 . S
C1034 N1032 1.375 . S
C1034 C1033 1.338 . S
C1034 H1038 0.931 . S
C1035 N1032 1.313 . S
C1035 N1036 1.344 . S
C1035 H1039 0.930 . S
N1036 C1033 1.377 . S
N1036 C1035 1.344 . S
O1037 Co1029 2.055 . S
O1037 C1041 1.253 . S
H1038 C1034 0.931 . S
H1039 C1035 0.930 . S
O1040 Co1029 2.039 . S
O1040 C1030 1.265 . S
C1041 O1037 1.253 . S
C1041 O1042 1.227 . S
O1042 C1041 1.227 . S
N1043 Co1029 2.140 . S
N1043 C1046 1.346 . S
N1043 C1047 1.345 . S
C1044 C1045 1.387 . S
C1044 C1048 1.391 . S
C1045 C1044 1.387 . S
C1045 C1046 1.369 . S
C1045 H1054 0.929 . S
C1046 N1043 1.346 . S
C1046 C1045 1.369 . S
C1046 H1049 0.928 . S
C1047 N1043 1.345 . S
C1047 C1048 1.371 . S
C1047 H1050 0.931 . S
C1048 C1044 1.391 . S
C1048 C1047 1.371 . S
C1048 H1055 0.930 . S
H1049 C1046 0.928 . S
H1050 C1047 0.931 . S
H1051 C1027 0.930 . S
H1052 C1024 0.930 . S
H1053 C1033 0.930 . S
H1054 C1045 0.929 . S
H1055 C1048 0.930 . S
N244 N13 2.023 . S
N46 N145 2.023 . S
N79 N178 2.023 . S
N211 N112 2.023 . S
N508 N277 2.023 . S
N409 N310 2.023 . S
N343 N442 2.023 . S
N376 N475 2.023 . S
N772 N541 2.023 . S
N574 N673 2.023 . S
N607 N706 2.023 . S
N739 N640 2.023 . S
N1036 N805 2.023 . S
N838 N937 2.023 . S
N970 N871 2.023 . S
N1003 N904 2.023 . S
C601 C7 1.846 1_655 S
C634 C40 1.846 1_455 S
C73 C535 1.846 . S
C106 C568 1.846 . S
C733 C139 1.846 1_655 S
C766 C172 1.846 . S
C205 C667 1.846 . S
C238 C700 1.846 1_655 S
C271 C865 1.846 1_655 S
C898 C304 1.846 1_655 S
C799 C337 1.846 . S
C370 C832 1.846 . S
C403 C997 1.846 1_655 S
C1030 C436 1.846 . S
C931 C469 1.846 . S
C964 C502 1.846 1_655 S
N2 C912 1.870 . S
C285 N35 1.870 . S
C846 N68 1.870 . S
N101 C351 1.870 . S
C978 N134 1.870 . S
C483 N167 1.870 . S
N200 C1044 1.870 . S
N233 C417 1.870 . S
N266 C648 1.870 . S
N299 C21 1.870 . S
C582 N332 1.870 . S
N365 C87 1.870 . S
C714 N398 1.870 . S
N431 C219 1.870 . S
N464 C780 1.870 . S
C153 N497 1.870 . S
N530 C384 1.870 . S
C813 N563 1.870 . S
C318 N596 1.870 . S
N629 C879 1.870 . S
N662 C450 1.870 . S
C1011 N695 1.870 . S
N728 C516 1.870 . S
C945 N761 1.870 . S
C120 N794 1.870 . S
C549 N827 1.870 . S
C54 N860 1.870 . S
C615 N893 1.870 . S
N926 C186 1.870 . S
C747 N959 1.870 . S
C252 N992 1.870 . S
C681 N1025 1.870 . S
C18 C810 1.995 . S
C51 C315 1.995 1_465 S
C876 C84 1.995 . S
C381 C117 1.995 1_564 S
C942 C150 1.995 . S
C447 C183 1.995 1_545 S
C1008 C216 1.995 . S
C513 C249 1.995 1_666 S
C282 C546 1.995 . S
C612 C348 1.995 . S
C414 C678 1.995 . S
C480 C744 1.995 . S
C843 C579 1.995 1_554 S
C645 C909 1.995 1_655 S
C975 C711 1.995 1_456 S
C1041 C777 1.995 . S
