# Generated by pormake.
# Topology smn, (6)-cn, num edge types: 1
# Building blocks:
#     Node 0, Type 0, BuildingBlock: VOLQOD_clean_sbu_1, # of connection points: 6
#     Node 1, Type 0, BuildingBlock: VOLQOD_clean_sbu_1, # of connection points: 6
#     Node 2, Type 0, BuildingBlock: VOLQOD_clean_sbu_1, # of connection points: 6
#     Node 3, Type 0, BuildingBlock: VOLQOD_clean_sbu_1, # of connection points: 6
#     Node 4, Type 0, BuildingBlock: VOLQOD_clean_sbu_1, # of connection points: 6
#     Node 5, Type 0, BuildingBlock: VOLQOD_clean_sbu_1, # of connection points: 6
#     Node 6, Type 0, BuildingBlock: VOLQOD_clean_sbu_1, # of connection points: 6
#     Node 7, Type 0, BuildingBlock: VOLQOD_clean_sbu_1, # of connection points: 6
#     Node 8, Type 0, BuildingBlock: VOLQOD_clean_sbu_1, # of connection points: 6
#     Node 9, Type 0, BuildingBlock: VOLQOD_clean_sbu_1, # of connection points: 6
#     Node 10, Type 0, BuildingBlock: VOLQOD_clean_sbu_1, # of connection points: 6
#     Node 11, Type 0, BuildingBlock: VOLQOD_clean_sbu_1, # of connection points: 6
#     Node 12, Type 0, BuildingBlock: VOLQOD_clean_sbu_1, # of connection points: 6
#     Node 13, Type 0, BuildingBlock: VOLQOD_clean_sbu_1, # of connection points: 6
#     Node 14, Type 0, BuildingBlock: VOLQOD_clean_sbu_1, # of connection points: 6
#     Node 15, Type 0, BuildingBlock: VOLQOD_clean_sbu_1, # of connection points: 6
#     Node 16, Type 0, BuildingBlock: VOLQOD_clean_sbu_1, # of connection points: 6
#     Node 17, Type 0, BuildingBlock: VOLQOD_clean_sbu_1, # of connection points: 6
#     Edge 18, Type (0, 0), BuildingBlock: XIVTED_clean_linker_0, # of connection points: 2
#     Edge 19, Type (0, 0), BuildingBlock: XIVTED_clean_linker_0, # of connection points: 2
#     Edge 20, Type (0, 0), BuildingBlock: XIVTED_clean_linker_0, # of connection points: 2
#     Edge 21, Type (0, 0), BuildingBlock: XIVTED_clean_linker_0, # of connection points: 2
#     Edge 22, Type (0, 0), BuildingBlock: XIVTED_clean_linker_0, # of connection points: 2
#     Edge 23, Type (0, 0), BuildingBlock: XIVTED_clean_linker_0, # of connection points: 2
#     Edge 24, Type (0, 0), BuildingBlock: XIVTED_clean_linker_0, # of connection points: 2
#     Edge 25, Type (0, 0), BuildingBlock: XIVTED_clean_linker_0, # of connection points: 2
#     Edge 26, Type (0, 0), BuildingBlock: XIVTED_clean_linker_0, # of connection points: 2
#     Edge 27, Type (0, 0), BuildingBlock: XIVTED_clean_linker_0, # of connection points: 2
#     Edge 28, Type (0, 0), BuildingBlock: XIVTED_clean_linker_0, # of connection points: 2
#     Edge 29, Type (0, 0), BuildingBlock: XIVTED_clean_linker_0, # of connection points: 2
#     Edge 30, Type (0, 0), BuildingBlock: XIVTED_clean_linker_0, # of connection points: 2
#     Edge 31, Type (0, 0), BuildingBlock: XIVTED_clean_linker_0, # of connection points: 2
#     Edge 32, Type (0, 0), BuildingBlock: XIVTED_clean_linker_0, # of connection points: 2
#     Edge 33, Type (0, 0), BuildingBlock: XIVTED_clean_linker_0, # of connection points: 2
#     Edge 34, Type (0, 0), BuildingBlock: XIVTED_clean_linker_0, # of connection points: 2
#     Edge 35, Type (0, 0), BuildingBlock: XIVTED_clean_linker_0, # of connection points: 2
#     Edge 36, Type (0, 0), BuildingBlock: XIVTED_clean_linker_0, # of connection points: 2
#     Edge 37, Type (0, 0), BuildingBlock: XIVTED_clean_linker_0, # of connection points: 2
#     Edge 38, Type (0, 0), BuildingBlock: XIVTED_clean_linker_0, # of connection points: 2
#     Edge 39, Type (0, 0), BuildingBlock: XIVTED_clean_linker_0, # of connection points: 2
#     Edge 40, Type (0, 0), BuildingBlock: XIVTED_clean_linker_0, # of connection points: 2
#     Edge 41, Type (0, 0), BuildingBlock: XIVTED_clean_linker_0, # of connection points: 2
#     Edge 42, Type (0, 0), BuildingBlock: XIVTED_clean_linker_0, # of connection points: 2
#     Edge 43, Type (0, 0), BuildingBlock: XIVTED_clean_linker_0, # of connection points: 2
#     Edge 44, Type (0, 0), BuildingBlock: XIVTED_clean_linker_0, # of connection points: 2
#     Edge 45, Type (0, 0), BuildingBlock: XIVTED_clean_linker_0, # of connection points: 2
#     Edge 46, Type (0, 0), BuildingBlock: XIVTED_clean_linker_0, # of connection points: 2
#     Edge 47, Type (0, 0), BuildingBlock: XIVTED_clean_linker_0, # of connection points: 2
#     Edge 48, Type (0, 0), BuildingBlock: XIVTED_clean_linker_0, # of connection points: 2
#     Edge 49, Type (0, 0), BuildingBlock: XIVTED_clean_linker_0, # of connection points: 2
#     Edge 50, Type (0, 0), BuildingBlock: XIVTED_clean_linker_0, # of connection points: 2
#     Edge 51, Type (0, 0), BuildingBlock: XIVTED_clean_linker_0, # of connection points: 2
#     Edge 52, Type (0, 0), BuildingBlock: XIVTED_clean_linker_0, # of connection points: 2
#     Edge 53, Type (0, 0), BuildingBlock: XIVTED_clean_linker_0, # of connection points: 2
#     Edge 54, Type (0, 0), BuildingBlock: XIVTED_clean_linker_0, # of connection points: 2
#     Edge 55, Type (0, 0), BuildingBlock: XIVTED_clean_linker_0, # of connection points: 2
#     Edge 56, Type (0, 0), BuildingBlock: XIVTED_clean_linker_0, # of connection points: 2
#     Edge 57, Type (0, 0), BuildingBlock: XIVTED_clean_linker_0, # of connection points: 2
#     Edge 58, Type (0, 0), BuildingBlock: XIVTED_clean_linker_0, # of connection points: 2
#     Edge 59, Type (0, 0), BuildingBlock: XIVTED_clean_linker_0, # of connection points: 2
#     Edge 60, Type (0, 0), BuildingBlock: XIVTED_clean_linker_0, # of connection points: 2
#     Edge 61, Type (0, 0), BuildingBlock: XIVTED_clean_linker_0, # of connection points: 2
#     Edge 62, Type (0, 0), BuildingBlock: XIVTED_clean_linker_0, # of connection points: 2
#     Edge 63, Type (0, 0), BuildingBlock: XIVTED_clean_linker_0, # of connection points: 2
#     Edge 64, Type (0, 0), BuildingBlock: XIVTED_clean_linker_0, # of connection points: 2
#     Edge 65, Type (0, 0), BuildingBlock: XIVTED_clean_linker_0, # of connection points: 2
#     Edge 66, Type (0, 0), BuildingBlock: XIVTED_clean_linker_0, # of connection points: 2
#     Edge 67, Type (0, 0), BuildingBlock: XIVTED_clean_linker_0, # of connection points: 2
#     Edge 68, Type (0, 0), BuildingBlock: XIVTED_clean_linker_0, # of connection points: 2
#     Edge 69, Type (0, 0), BuildingBlock: XIVTED_clean_linker_0, # of connection points: 2
#     Edge 70, Type (0, 0), BuildingBlock: XIVTED_clean_linker_0, # of connection points: 2
#     Edge 71, Type (0, 0), BuildingBlock: XIVTED_clean_linker_0, # of connection points: 2
# Relax obj value: 0.237
# Max RMSD: 0.243
# Mean RMSD: 0.242
data_MOF--net-smn--node1-VOLQOD_clean_sbu_1--edge1-XIVTED_clean_linker_0
_symmetry_space_group_name_H-M    P1
_symmetry_Int_Tables_number       1
_symmetry_cell_setting            triclinic
loop_
_symmetry_equiv_pos_as_xyz
'x, y, z'
_cell_length_a     63.872265
_cell_length_b     63.82535
_cell_length_c     21.410506
_cell_angle_alpha  90.017215
_cell_angle_beta   89.988619
_cell_angle_gamma 120.05418
loop_
_atom_site_label
_atom_site_type_symbol
_atom_site_fract_x
_atom_site_fract_y
_atom_site_fract_z
_atom_type_partial_charge
O0 O 0.01662 0.2492 0.65293 0.0
Zn1 Zn 0.98983 0.21764 0.68717 0.0
O2 O 0.00412 0.20551 0.74658 0.0
Zn3 Zn 0.00367 0.17627 0.72065 0.0
Zn4 Zn 0.03652 0.23005 0.76819 0.0
Zn5 Zn 0.98512 0.19629 0.81964 0.0
O6 O 0.98244 0.14702 0.7753 0.0
O7 O 0.96049 0.16167 0.81639 0.0
O8 O 0.9748 0.19319 0.615 0.0
O9 O 0.98814 0.16782 0.63758 0.0
O10 O 0.03738 0.18187 0.70885 0.0
O11 O 0.05963 0.22102 0.7308 0.0
O12 O 0.0419 0.23076 0.86208 0.0
O13 O 0.96645 0.22622 0.73232 0.0
O14 O 0.00604 0.20101 0.8933 0.0
O15 O 0.96809 0.21464 0.82928 0.0
C16 C 0.03668 0.26546 0.67594 0.0
C17 C 0.96351 0.14398 0.80325 0.0
C18 C 0.0578 0.20133 0.71137 0.0
C19 C 0.97704 0.17484 0.60157 0.0
C20 C 0.02818 0.21609 0.90414 0.0
C21 C 0.96093 0.22472 0.79028 0.0
O22 O 0.04516 0.26185 0.72634 0.0
O23 O 0.77058 0.78664 0.64696 0.0
Zn24 Zn 0.80165 0.7926 0.68769 0.0
O25 O 0.81243 0.8195 0.74684 0.0
Zn26 Zn 0.84319 0.84752 0.7228 0.0
Zn27 Zn 0.78801 0.82867 0.7561 0.0
Zn28 Zn 0.81662 0.80936 0.82726 0.0
O29 O 0.87098 0.85344 0.78112 0.0
O30 O 0.85098 0.82174 0.84383 0.0
O31 O 0.82691 0.80159 0.61805 0.0
O32 O 0.85242 0.84022 0.64098 0.0
O33 O 0.83983 0.87711 0.70761 0.0
O34 O 0.80009 0.86101 0.71753 0.0
O35 O 0.78178 0.83316 0.8463 0.0
O36 O 0.79303 0.76102 0.73424 0.0
O37 O 0.80609 0.82322 0.89531 0.0
O38 O 0.79995 0.7737 0.83289 0.0
C39 C 0.75468 0.79219 0.66243 0.0
C40 C 0.87053 0.83984 0.82527 0.0
C41 C 0.82073 0.87869 0.70319 0.0
C42 C 0.84553 0.82203 0.60521 0.0
C43 C 0.79187 0.83169 0.89614 0.0
C44 C 0.79244 0.75675 0.79279 0.0
O45 O 0.75802 0.80636 0.70809 0.0
O46 O 0.22655 0.99504 0.63305 0.0
Zn47 Zn 0.2236 0.02236 0.67189 0.0
O48 O 0.19846 0.00882 0.73508 0.0
Zn49 Zn 0.17232 0.01522 0.71971 0.0
Zn50 Zn 0.18679 0.97512 0.74818 0.0
Zn51 Zn 0.21245 0.02344 0.81176 0.0
O52 O 0.17392 0.04145 0.779 0.0
O53 O 0.20975 0.05256 0.8213 0.0
O54 O 0.21448 0.03872 0.60348 0.0
O55 O 0.17785 0.03008 0.63542 0.0
O56 O 0.14009 0.98356 0.71197 0.0
O57 O 0.15338 0.95732 0.71566 0.0
O58 O 0.18338 0.96606 0.83954 0.0
O59 O 0.25651 0.04463 0.71259 0.0
O60 O 0.19477 0.00164 0.88328 0.0
O61 O 0.24726 0.03346 0.8121 0.0
C62 C 0.2197 0.97343 0.65052 0.0
C63 C 0.19248 0.05649 0.81035 0.0
C64 C 0.13652 0.96206 0.70636 0.0
C65 C 0.19478 0.03897 0.59519 0.0
C66 C 0.18503 0.97879 0.88716 0.0
C67 C 0.26275 0.044 0.76897 0.0
O68 O 0.206 0.96406 0.69789 0.0
O69 O 0.04204 0.79703 0.2517 0.0
Zn70 Zn 0.01963 0.80638 0.29761 0.0
O71 O 0.00499 0.8182 0.23857 0.0
Zn72 Zn 0.01139 0.85052 0.25665 0.0
Zn73 Zn 0.01814 0.81896 0.15977 0.0
Zn74 Zn 0.97135 0.79628 0.2287 0.0
O75 O 0.97965 0.85092 0.26756 0.0
O76 O 0.95413 0.81111 0.26872 0.0
O77 O 0.03545 0.83075 0.36889 0.0
O78 O 0.02592 0.85854 0.34117 0.0
O79 O 0.03817 0.87573 0.19905 0.0
O80 O 0.04752 0.85053 0.15138 0.0
O81 O -0.00439 0.81592 0.09109 0.0
O82 O 0.99316 0.77515 0.33448 0.0
O83 O 0.96082 0.79267 0.13912 0.0
O84 O 0.9614 0.76503 0.27284 0.0
C85 C 0.03965 0.78959 0.19526 0.0
C86 C 0.95859 0.83267 0.27748 0.0
C87 C 0.05254 0.87185 0.16575 0.0
C88 C 0.03497 0.8502 0.37996 0.0
C89 C 0.97264 0.80378 0.09045 0.0
C90 C 0.97156 0.76023 0.31744 0.0
O91 O 0.0275 0.79382 0.1553 0.0
O92 O 0.21161 0.26304 0.23736 0.0
Zn93 Zn 0.20612 0.23382 0.28763 0.0
O94 O 0.19356 0.20516 0.23586 0.0
Zn95 Zn 0.16287 0.1792 0.26756 0.0
Zn96 Zn 0.1879 0.21364 0.1553 0.0
Zn97 Zn 0.21678 0.19456 0.22577 0.0
O98 O 0.16393 0.148 0.27891 0.0
O99 O 0.20339 0.16235 0.26615 0.0
O100 O 0.18503 0.22777 0.36405 0.0
O101 O 0.1589 0.18841 0.3537 0.0
O102 O 0.13377 0.17677 0.21943 0.0
O103 O 0.15439 0.2067 0.15214 0.0
O104 O 0.19315 0.19479 0.08887 0.0
O105 O 0.23886 0.24202 0.31829 0.0
O106 O 0.22066 0.18843 0.13483 0.0
O107 O 0.24829 0.21695 0.27005 0.0
C108 C 0.21363 0.26646 0.17842 0.0
C109 C 0.18248 0.14537 0.28168 0.0
C110 C 0.13463 0.1915 0.17775 0.0
C111 C 0.16778 0.2079 0.38524 0.0
C112 C 0.20805 0.18708 0.08715 0.0
C113 C 0.25361 0.23457 0.30713 0.0
O114 O 0.20769 0.24904 0.1404 0.0
O115 O 0.75382 0.97898 0.24653 0.0
Zn116 Zn 0.78519 0.00032 0.29462 0.0
O117 O 0.81244 0.01448 0.23824 0.0
Zn118 Zn 0.83697 0.00643 0.25915 0.0
Zn119 Zn 0.80045 0.00228 0.15836 0.0
Zn120 Zn 0.82586 0.04843 0.22997 0.0
O121 O 0.87003 0.03727 0.27109 0.0
O122 O 0.8573 0.06402 0.27255 0.0
O123 O 0.79148 0.98323 0.3665 0.0
O124 O 0.82892 0.99174 0.34371 0.0
O125 O 0.83411 0.97895 0.20225 0.0
O126 O 0.80123 0.97218 0.14973 0.0
O127 O 0.82129 0.02482 0.09135 0.0
O128 O 0.78149 0.02737 0.33085 0.0
O129 O 0.83499 0.05961 0.14152 0.0
O130 O 0.80513 0.05953 0.27222 0.0
C131 C 0.74942 0.98198 0.19001 0.0
C132 C 0.87373 0.05864 0.28141 0.0
C133 C 0.81621 0.96568 0.16647 0.0
C134 C 0.81079 0.98291 0.38026 0.0
C135 C 0.83375 0.04778 0.09243 0.0
C136 C 0.78939 0.04935 0.31523 0.0
O137 O 0.76632 0.99423 0.15129 0.0
O138 O 0.68437 0.58031 0.98722 0.0
Zn139 Zn 0.65757 0.54892 0.02262 0.0
O140 O 0.67109 0.53758 0.08636 0.0
Zn141 Zn 0.66986 0.50735 0.06608 0.0
Zn142 Zn 0.70358 0.56229 0.10645 0.0
Zn143 Zn 0.65238 0.53082 0.1597 0.0
O144 O 0.64864 0.47986 0.12636 0.0
O145 O 0.62769 0.49638 0.1629 0.0
O146 O 0.64309 0.52352 0.95308 0.0
O147 O 0.65379 0.49677 0.98324 0.0
O148 O 0.70361 0.51257 0.05506 0.0
O149 O 0.72607 0.55216 0.07161 0.0
O150 O 0.70942 0.56469 0.20008 0.0
O151 O 0.63325 0.55735 0.0617 0.0
O152 O 0.67316 0.53722 0.23496 0.0
O153 O 0.63492 0.54893 0.16184 0.0
C154 C 0.70422 0.59683 0.01051 0.0
C155 C 0.63022 0.47813 0.15438 0.0
C156 C 0.72409 0.53207 0.05535 0.0
C157 C 0.64385 0.50408 0.94407 0.0
C158 C 0.69556 0.5517 0.24424 0.0
C159 C 0.6274 0.55724 0.11886 0.0
O160 O 0.71247 0.59361 0.06179 0.0
O161 O 0.43474 0.11478 0.9891 0.0
Zn162 Zn 0.46594 0.1229 0.03198 0.0
O163 O 0.47486 0.15021 0.0883 0.0
Zn164 Zn 0.50611 0.17826 0.06686 0.0
Zn165 Zn 0.45 0.15906 0.09056 0.0
Zn166 Zn 0.47725 0.14058 0.17082 0.0
O167 O 0.53305 0.18362 0.12809 0.0
O168 O 0.51121 0.15278 0.1916 0.0
O169 O 0.49182 0.1322 0.96413 0.0
O170 O 0.51647 0.17107 0.98641 0.0
O171 O 0.50307 0.20801 0.0496 0.0
O172 O 0.46307 0.19136 0.05166 0.0
O173 O 0.44187 0.16407 0.17878 0.0
O174 O 0.45841 0.09225 0.0809 0.0
O175 O 0.46554 0.15499 0.23413 0.0
O176 O 0.46071 0.10496 0.17876 0.0
C177 C 0.41864 0.12074 0.99743 0.0
C178 C 0.53145 0.17019 0.17408 0.0
C179 C 0.48396 0.2093 0.04087 0.0
C180 C 0.51027 0.15278 0.95148 0.0
C181 C 0.45123 0.16333 0.23074 0.0
C182 C 0.45569 0.0881 0.13961 0.0
O183 O 0.42119 0.13647 0.0381 0.0
O184 O 0.89672 0.33562 0.99174 0.0
Zn185 Zn 0.89135 0.36184 0.02664 0.0
O186 O 0.86508 0.34727 0.08629 0.0
Zn187 Zn 0.83607 0.34705 0.05932 0.0
Zn188 Zn 0.85819 0.3151 0.10824 0.0
Zn189 Zn 0.87462 0.3665 0.15923 0.0
O190 O 0.82765 0.36831 0.11251 0.0
O191 O 0.86368 0.39045 0.15657 0.0
O192 O 0.88182 0.37656 0.95483 0.0
O193 O 0.84272 0.36196 0.97511 0.0
O194 O 0.80832 0.313 0.05019 0.0
O195 O 0.82574 0.29136 0.07352 0.0
O196 O 0.85452 0.31007 0.20252 0.0
O197 O 0.92312 0.38557 0.07089 0.0
O198 O 0.85922 0.34544 0.23331 0.0
O199 O 0.9101 0.38434 0.16789 0.0
C200 C 0.89331 0.3156 0.01388 0.0
C201 C 0.84302 0.38718 0.14176 0.0
C202 C 0.8076 0.29272 0.05443 0.0
C203 C 0.86109 0.37358 0.94003 0.0
C204 C 0.85311 0.32355 0.24455 0.0
C205 C 0.92723 0.39146 0.12855 0.0
O206 O 0.88135 0.30675 0.06432 0.0
O207 O 0.71219 0.13612 0.58468 0.0
Zn208 Zn 0.69006 0.1443 0.63389 0.0
O209 O 0.67694 0.15937 0.58 0.0
Zn210 Zn 0.68233 0.19009 0.61307 0.0
Zn211 Zn 0.69221 0.16557 0.50073 0.0
Zn212 Zn 0.6433 0.13738 0.56538 0.0
O213 O 0.65035 0.18947 0.62625 0.0
O214 O 0.62478 0.1504 0.60865 0.0
O215 O 0.70599 0.16499 0.71033 0.0
O216 O 0.69524 0.19299 0.69909 0.0
O217 O 0.70947 0.21939 0.56575 0.0
O218 O 0.71959 0.19872 0.50082 0.0
O219 O 0.66966 0.16224 0.43108 0.0
O220 O 0.66304 0.11259 0.66522 0.0
O221 O 0.63476 0.13593 0.47486 0.0
O222 O 0.6321 0.10459 0.60286 0.0
C223 C 0.71526 0.13584 0.52582 0.0
C224 C 0.62902 0.17104 0.62764 0.0
C225 C 0.72395 0.21849 0.52604 0.0
C226 C 0.70458 0.18297 0.73117 0.0
C227 C 0.64685 0.14839 0.42794 0.0
C228 C 0.64155 0.09843 0.64632 0.0
O229 O 0.70653 0.14469 0.48748 0.0
O230 O 0.88266 0.59498 0.58463 0.0
Zn231 Zn 0.87336 0.56413 0.63363 0.0
O232 O 0.85862 0.53621 0.57897 0.0
Zn233 Zn 0.82723 0.51114 0.60888 0.0
Zn234 Zn 0.85403 0.54613 0.49935 0.0
Zn235 Zn 0.87998 0.52374 0.56629 0.0
O236 O 0.8265 0.47895 0.62013 0.0
O237 O 0.86583 0.49213 0.60888 0.0
O238 O 0.85202 0.55896 0.70938 0.0
O239 O 0.82378 0.52042 0.6951 0.0
O240 O 0.79917 0.51088 0.55997 0.0
O241 O 0.82155 0.54212 0.49768 0.0
O242 O 0.85636 0.52587 0.43104 0.0
O243 O 0.90459 0.56815 0.66595 0.0
O244 O 0.88054 0.5149 0.47685 0.0
O245 O 0.91285 0.54507 0.60457 0.0
C246 C 0.88457 0.59859 0.52567 0.0
C247 C 0.84462 0.47562 0.62364 0.0
C248 C 0.80126 0.52706 0.52123 0.0
C249 C 0.83369 0.53944 0.72857 0.0
C250 C 0.8684 0.51493 0.4297 0.0
C251 C 0.91876 0.5607 0.64807 0.0
O252 O 0.87645 0.58112 0.48694 0.0
O253 O 0.41671 0.30934 0.58349 0.0
Zn254 Zn 0.44703 0.33108 0.63501 0.0
O255 O 0.47499 0.34773 0.58197 0.0
Zn256 Zn 0.49872 0.33806 0.59731 0.0
Zn257 Zn 0.4629 0.33872 0.50059 0.0
Zn258 Zn 0.48935 0.38202 0.58376 0.0
O259 O 0.53241 0.36793 0.61087 0.0
O260 O 0.52062 0.39504 0.62676 0.0
O261 O 0.45375 0.3137 0.70548 0.0
O262 O 0.49088 0.32197 0.68 0.0
O263 O 0.49427 0.3114 0.53499 0.0
O264 O 0.46326 0.30894 0.48163 0.0
O265 O 0.48396 0.36341 0.43854 0.0
O266 O 0.44106 0.35631 0.67285 0.0
O267 O 0.49976 0.39638 0.49746 0.0
O268 O 0.46831 0.39179 0.63187 0.0
C269 C 0.41203 0.31508 0.53023 0.0
C270 C 0.53673 0.3889 0.62862 0.0
C271 C 0.47694 0.30054 0.49581 0.0
C272 C 0.47299 0.31298 0.71732 0.0
C273 C 0.49766 0.3861 0.44493 0.0
C274 C 0.45007 0.3791 0.66697 0.0
O275 O 0.42874 0.33079 0.49574 0.0
O276 O 0.35146 0.90944 0.32286 0.0
Zn277 Zn 0.32468 0.87785 0.357 0.0
O278 O 0.33764 0.86644 0.42196 0.0
Zn279 Zn 0.33806 0.83719 0.39975 0.0
Zn280 Zn 0.36944 0.89191 0.4448 0.0
Zn281 Zn 0.31766 0.85829 0.49364 0.0
O282 O 0.31715 0.80877 0.45762 0.0
O283 O 0.29459 0.82325 0.49606 0.0
O284 O 0.31087 0.85283 0.28706 0.0
O285 O 0.32282 0.82692 0.31584 0.0
O286 O 0.37242 0.844 0.39096 0.0
O287 O 0.39339 0.88336 0.41198 0.0
O288 O 0.37391 0.89423 0.5386 0.0
O289 O 0.29993 0.88583 0.39388 0.0
O290 O 0.33766 0.86576 0.57102 0.0
O291 O 0.29885 0.87517 0.49326 0.0
C292 C 0.37042 0.92634 0.34869 0.0
C293 C 0.29831 0.80579 0.48612 0.0
C294 C 0.39247 0.8639 0.39421 0.0
C295 C 0.31249 0.83394 0.27708 0.0
C296 C 0.35974 0.88102 0.58197 0.0
C297 C 0.29249 0.88444 0.44995 0.0
O298 O 0.37781 0.92326 0.40145 0.0
O299 O 0.10344 0.45588 0.322 0.0
Zn300 Zn 0.13509 0.46133 0.35655 0.0
O301 O 0.14602 0.48664 0.41879 0.0
Zn302 Zn 0.17462 0.51654 0.39554 0.0
Zn303 Zn 0.12033 0.49243 0.44218 0.0
Zn304 Zn 0.15564 0.4764 0.49017 0.0
O305 O 0.20389 0.52471 0.45022 0.0
O306 O 0.19049 0.48745 0.48554 0.0
O307 O 0.15993 0.47269 0.28542 0.0
O308 O 0.184 0.51144 0.31105 0.0
O309 O 0.16742 0.5438 0.38817 0.0
O310 O 0.12809 0.52481 0.40923 0.0
O311 O 0.1187 0.49492 0.53637 0.0
O312 O 0.12715 0.42897 0.39783 0.0
O313 O 0.14981 0.49085 0.56627 0.0
O314 O 0.13805 0.44084 0.49597 0.0
C315 C 0.08643 0.45816 0.34619 0.0
C316 C 0.20769 0.50871 0.47464 0.0
C317 C 0.14739 0.54359 0.39165 0.0
C318 C 0.17776 0.49382 0.27353 0.0
C319 C 0.13355 0.49623 0.57828 0.0
C320 C 0.12848 0.42417 0.45523 0.0
O321 O 0.08918 0.46901 0.39831 0.0
O322 O 0.55997 0.66578 0.31068 0.0
Zn323 Zn 0.55625 0.69221 0.35162 0.0
O324 O 0.53066 0.67798 0.41459 0.0
Zn325 Zn 0.50395 0.68388 0.3971 0.0
Zn326 Zn 0.51918 0.64381 0.42347 0.0
Zn327 Zn 0.54362 0.69185 0.49369 0.0
O328 O 0.50243 0.70801 0.45841 0.0
O329 O 0.53496 0.71623 0.51381 0.0
O330 O 0.54716 0.70883 0.28389 0.0
O331 O 0.51029 0.69997 0.31422 0.0
O332 O 0.47235 0.65204 0.38634 0.0
O333 O 0.48583 0.62598 0.39014 0.0
O334 O 0.51548 0.63309 0.51372 0.0
O335 O 0.58903 0.71491 0.39249 0.0
O336 O 0.52967 0.66809 0.56303 0.0
O337 O 0.57919 0.70894 0.49333 0.0
C338 C 0.55309 0.64392 0.32541 0.0
C339 C 0.51802 0.72032 0.50031 0.0
C340 C 0.46892 0.63062 0.38054 0.0
C341 C 0.52758 0.70927 0.27505 0.0
C342 C 0.51913 0.64516 0.56393 0.0
C343 C 0.59488 0.71828 0.4502 0.0
O344 O 0.53888 0.63363 0.37143 0.0
O345 O 0.37059 0.46616 0.92955 0.0
Zn346 Zn 0.34834 0.47598 0.97341 0.0
O347 O 0.33562 0.48942 0.91413 0.0
Zn348 Zn 0.34479 0.52256 0.93218 0.0
Zn349 Zn 0.34821 0.48822 0.83588 0.0
Zn350 Zn 0.30167 0.46988 0.90455 0.0
O351 O 0.3146 0.52606 0.94043 0.0
O352 O 0.28701 0.4868 0.9462 0.0
O353 O 0.36394 0.49903 0.04661 0.0
O354 O 0.35826 0.52933 0.01807 0.0
O355 O 0.37329 0.54602 0.87575 0.0
O356 O 0.379 0.51845 0.82711 0.0
O357 O 0.32681 0.48691 0.7661 0.0
O358 O 0.32053 0.44509 0.00637 0.0
O359 O 0.29162 0.46901 0.81562 0.0
O360 O 0.28918 0.43737 0.94543 0.0
C361 C 0.36771 0.45771 0.87412 0.0
C362 C 0.29308 0.50896 0.95218 0.0
C363 C 0.38624 0.5403 0.84197 0.0
C364 C 0.36527 0.51932 0.05778 0.0
C365 C 0.30406 0.4783 0.76644 0.0
C366 C 0.29872 0.43129 0.98897 0.0
O367 O 0.35534 0.4614 0.83362 0.0
O368 O 0.5482 0.93444 0.91507 0.0
Zn369 Zn 0.54142 0.90478 0.9658 0.0
O370 O 0.5276 0.87595 0.91399 0.0
Zn371 Zn 0.49688 0.85048 0.94633 0.0
Zn372 Zn 0.52159 0.88445 0.83381 0.0
Zn373 Zn 0.54987 0.86431 0.90306 0.0
O374 O 0.49687 0.81877 0.95751 0.0
O375 O 0.53612 0.83221 0.94434 0.0
O376 O 0.52098 0.89927 0.04363 0.0
O377 O 0.49414 0.8601 0.03262 0.0
O378 O 0.46779 0.84864 0.89984 0.0
O379 O 0.48833 0.87853 0.8324 0.0
O380 O 0.52568 0.86493 0.7667 0.0
O381 O 0.57399 0.91182 0.9953 0.0
O382 O 0.55273 0.85781 0.81227 0.0
O383 O 0.5819 0.88599 0.94527 0.0
C384 C 0.54983 0.93745 0.85593 0.0
C385 C 0.51509 0.81562 0.96038 0.0
C386 C 0.46864 0.86354 0.85872 0.0
C387 C 0.50366 0.87943 0.06487 0.0
C388 C 0.54015 0.8567 0.76477 0.0
C389 C 0.58807 0.90366 0.98274 0.0
O390 O 0.54245 0.91964 0.81853 0.0
O391 O 0.08374 0.63491 0.91091 0.0
Zn392 Zn 0.11301 0.65693 0.96414 0.0
O393 O 0.14236 0.67152 0.91482 0.0
Zn394 Zn 0.16649 0.66445 0.94801 0.0
Zn395 Zn 0.13414 0.65816 0.8333 0.0
Zn396 Zn 0.15574 0.70588 0.90715 0.0
O397 O 0.19903 0.69515 0.96113 0.0
O398 O 0.18703 0.72226 0.95198 0.0
O399 O 0.11687 0.64085 0.04195 0.0
O400 O 0.15572 0.65164 0.03353 0.0
O401 O 0.16717 0.63686 0.9001 0.0
O402 O 0.13864 0.62987 0.83027 0.0
O403 O 0.15553 0.68226 0.76937 0.0
O404 O 0.10698 0.68314 0.99375 0.0
O405 O 0.16558 0.71672 0.81835 0.0
O406 O 0.13441 0.71717 0.94752 0.0
C407 C 0.0812 0.63428 0.85164 0.0
C408 C 0.20301 0.71679 0.9664 0.0
C409 C 0.15257 0.62386 0.85709 0.0
C410 C 0.13607 0.64231 0.06441 0.0
C411 C 0.16633 0.70528 0.77033 0.0
C412 C 0.11608 0.70567 0.98308 0.0
O413 O 0.09932 0.64513 0.81533 0.0
H414 H 0.10258 0.2409 0.69115 0.0
H415 H 0.138 0.16789 0.45356 0.0
H416 H 0.06175 0.16339 0.66528 0.0
H417 H 0.17288 0.2459 0.45745 0.0
H418 H 0.11612 0.16602 0.54824 0.0
H419 H 0.13436 0.24272 0.62417 0.0
C420 C 0.10048 0.22418 0.67247 0.0
C421 C 0.07918 0.20198 0.68278 0.0
C422 C 0.12872 0.18358 0.52882 0.0
C423 C 0.11547 0.20406 0.60582 0.0
C424 C 0.1412 0.18469 0.47457 0.0
C425 C 0.15691 0.2071 0.44672 0.0
C426 C 0.13177 0.20501 0.5554 0.0
C427 C 0.16071 0.22824 0.47691 0.0
C428 C 0.11863 0.22529 0.63401 0.0
C429 C 0.07763 0.18094 0.65779 0.0
N430 N 0.14792 0.22666 0.52924 0.0
N431 N 0.09538 0.18255 0.61975 0.0
H432 H 0.77489 0.95537 0.46515 0.0
H433 H 0.85962 0.91748 0.64768 0.0
H434 H 0.85132 0.98576 0.43038 0.0
H435 H 0.78379 0.88823 0.68872 0.0
H436 H 0.85823 0.94747 0.57975 0.0
H437 H 0.77879 0.93489 0.55753 0.0
C438 C 0.79249 0.95791 0.47717 0.0
C439 C 0.81268 0.97192 0.43926 0.0
C440 C 0.84196 0.9347 0.60432 0.0
C441 C 0.81731 0.94868 0.54465 0.0
C442 C 0.8428 0.91763 0.64339 0.0
C443 C 0.82169 0.89999 0.67297 0.0
C444 C 0.81984 0.93398 0.59444 0.0
C445 C 0.80043 0.90121 0.66595 0.0
C446 C 0.79473 0.94626 0.52992 0.0
C447 C 0.83511 0.97476 0.45743 0.0
N448 N 0.79995 0.91763 0.62662 0.0
N449 N 0.83675 0.96308 0.50836 0.0
H450 H 0.11924 0.91345 0.71139 0.0
H451 H 0.03267 0.88951 0.42046 0.0
H452 H 0.10284 0.96635 0.63628 0.0
H453 H 0.05953 0.84202 0.47426 0.0
H454 H 0.0509 0.91365 0.51341 0.0
H455 H 0.08935 0.88307 0.6414 0.0
C456 C 0.10892 0.91855 0.68119 0.0
C457 C 0.1139 0.94263 0.67871 0.0
C458 C 0.05269 0.89787 0.50522 0.0
C459 C 0.0799 0.90796 0.59792 0.0
C460 C 0.04236 0.88405 0.45189 0.0
C461 C 0.04494 0.86386 0.43874 0.0
C462 C 0.0658 0.89161 0.54602 0.0
C463 C 0.05734 0.85757 0.48204 0.0
C464 C 0.09196 0.9012 0.641 0.0
C465 C 0.09973 0.94808 0.63941 0.0
N466 N 0.06753 0.87156 0.53351 0.0
N467 N 0.08366 0.93096 0.59965 0.0
H468 H 0.15678 0.06827 0.83137 0.0
H469 H 0.24346 0.17754 0.0514 0.0
H470 H 0.23368 0.09629 0.84783 0.0
H471 H 0.17263 0.16441 -0.00093 0.0
H472 H 0.2404 0.14893 0.97152 0.0
H473 H 0.16187 0.10429 0.88715 0.0
C474 C 0.17469 0.08208 0.8459 0.0
C475 C 0.19472 0.07901 0.83619 0.0
C476 C 0.22563 0.15253 0.97675 0.0
C477 C 0.20067 0.11994 0.89964 0.0
C478 C 0.22742 0.1689 0.0224 0.0
C479 C 0.20824 0.17323 0.03215 0.0
C480 C 0.20429 0.13999 0.94141 0.0
C481 C 0.18787 0.16159 0.99304 0.0
C482 C 0.17761 0.1026 0.87765 0.0
C483 C 0.21759 0.09754 0.85558 0.0
N484 N 0.18622 0.14514 0.95004 0.0
N485 N 0.21986 0.11699 0.88688 0.0
H486 H 0.87586 0.09054 0.09981 0.0
H487 H 0.91842 0.11305 0.76037 0.0
H488 H 0.83187 0.03314 0.97051 0.0
H489 H 0.96813 0.12446 0.90988 0.0
H490 H 0.88469 0.08512 0.82764 0.0
H491 H 0.90812 0.10769 0.02249 0.0
C492 C 0.87275 0.08179 0.05466 0.0
C493 C 0.85108 0.06041 0.04144 0.0
C494 C 0.90307 0.09301 0.84467 0.0
C495 C 0.88813 0.07985 0.95331 0.0
C496 C 0.92226 0.10865 0.80627 0.0
C497 C 0.94593 0.12064 0.82976 0.0
C498 C 0.90779 0.09029 0.90714 0.0
C499 C 0.9501 0.11517 0.89007 0.0
C500 C 0.89135 0.09137 0.01108 0.0
C501 C 0.8483 0.0497 0.98235 0.0
N502 N 0.93109 0.10086 0.92749 0.0
N503 N 0.86663 0.05968 0.93992 0.0
H504 H 0.87869 0.84641 0.94813 0.0
H505 H 0.99089 0.82828 0.97952 0.0
H506 H 0.91059 0.84059 0.77633 0.0
H507 H 0.92433 0.78758 0.08316 0.0
H508 H 0.96988 0.84194 0.90821 0.0
H509 H 0.90631 0.83784 0.00667 0.0
C510 C 0.89223 0.84427 0.92296 0.0
C511 C 0.89252 0.8442 0.85764 0.0
C512 C 0.95999 0.82973 0.94614 0.0
C513 C 0.92344 0.8336 0.92385 0.0
C514 C 0.97181 0.82178 0.98656 0.0
C515 C 0.95943 0.807 0.03804 0.0
C516 C 0.93596 0.82322 0.95854 0.0
C517 C 0.93474 0.79913 0.04473 0.0
C518 C 0.90767 0.83902 0.95619 0.0
C519 C 0.91012 0.841 0.82685 0.0
N520 N 0.92398 0.80774 0.00627 0.0
N521 N 0.92482 0.83542 0.86037 0.0
H522 H 0.88572 0.86335 0.5667 0.0
H523 H 0.91014 0.80109 0.27492 0.0
H524 H 0.83847 0.78886 0.51276 0.0
H525 H 0.96336 0.87007 0.35139 0.0
H526 H 0.88012 0.80013 0.34698 0.0
H527 H 0.91068 0.869 0.47568 0.0
C528 C 0.88048 0.84811 0.53565 0.0
C529 C 0.86002 0.82541 0.54809 0.0
C530 C 0.89824 0.81566 0.34738 0.0
C531 C 0.88874 0.83201 0.44297 0.0
C532 C 0.91539 0.81633 0.306 0.0
C533 C 0.93942 0.83554 0.3079 0.0
C534 C 0.90515 0.83431 0.39114 0.0
C535 C 0.94509 0.85489 0.3485 0.0
C536 C 0.8948 0.85145 0.48347 0.0
C537 C 0.85416 0.80657 0.50549 0.0
N538 N 0.92815 0.85359 0.38932 0.0
N539 N 0.86856 0.81026 0.45498 0.0
H540 H 0.15323 0.0376 0.55835 0.0
H541 H 0.21626 0.13111 0.2795 0.0
H542 H 0.22754 0.06545 0.50263 0.0
H543 H 0.14546 0.11046 0.3523 0.0
H544 H 0.21761 0.10096 0.34645 0.0
H545 H 0.14761 0.05832 0.47039 0.0
C546 C 0.16841 0.048 0.52747 0.0
C547 C 0.19107 0.05009 0.53865 0.0
C548 C 0.20164 0.10277 0.34718 0.0
C549 C 0.18459 0.0739 0.43725 0.0
C550 C 0.20078 0.11994 0.30879 0.0
C551 C 0.18086 0.12364 0.31108 0.0
C552 C 0.18248 0.08919 0.38837 0.0
C553 C 0.16124 0.10837 0.34929 0.0
C554 C 0.16511 0.05979 0.47704 0.0
C555 C 0.20985 0.06352 0.49624 0.0
N556 N 0.1627 0.09205 0.38715 0.0
N557 N 0.20625 0.07512 0.4477 0.0
H558 H 0.90529 0.05282 0.35706 0.0
H559 H 0.95205 0.18253 0.50742 0.0
H560 H 0.89273 0.10729 0.27494 0.0
H561 H 0.97746 0.13417 0.56453 0.0
H562 H 0.93249 0.15637 0.41696 0.0
H563 H 0.93526 0.08373 0.4269 0.0
C564 C 0.90934 0.07138 0.3525 0.0
C565 C 0.89623 0.07742 0.31104 0.0
C566 C 0.94259 0.15168 0.44907 0.0
C567 C 0.92984 0.11265 0.39152 0.0
C568 C 0.95365 0.16656 0.50084 0.0
C569 C 0.96616 0.16044 0.54418 0.0
C570 C 0.94388 0.13045 0.44102 0.0
C571 C 0.96781 0.13957 0.53288 0.0
C572 C 0.92627 0.089 0.39272 0.0
C573 C 0.90211 0.10176 0.30721 0.0
N574 N 0.9566 0.12524 0.48291 0.0
N575 N 0.91814 0.11838 0.34772 0.0
H576 H 0.84805 0.94829 0.15405 0.0
H577 H 0.75832 0.84468 0.92672 0.0
H578 H 0.77337 0.9286 0.12754 0.0
H579 H 0.82392 0.84843 0.99327 0.0
H580 H 0.76248 0.87348 0.00742 0.0
H581 H 0.83931 0.91027 0.10233 0.0
C582 C 0.82983 0.93588 0.1382 0.0
C583 C 0.81159 0.9419 0.14359 0.0
C584 C 0.77576 0.86769 0.0052 0.0
C585 C 0.80149 0.8987 0.08493 0.0
C586 C 0.77332 0.85118 0.95916 0.0
C587 C 0.79089 0.84434 0.95284 0.0
C588 C 0.79623 0.87786 0.04428 0.0
C589 C 0.80996 0.85328 0.99635 0.0
C590 C 0.82483 0.91421 0.10883 0.0
C591 C 0.78821 0.92507 0.12282 0.0
N592 N 0.81242 0.87001 0.03944 0.0
N593 N 0.78393 0.90448 0.09381 0.0
H594 H 0.17359 0.93389 0.92881 0.0
H595 H 0.0658 0.91943 0.13874 0.0
H596 H 0.16538 0.99527 0.97406 0.0
H597 H 0.09257 0.86933 0.14061 0.0
H598 H 0.103 0.94893 0.084 0.0
H599 H 0.14494 0.91085 0.01144 0.0
C600 C 0.16608 0.94264 0.95699 0.0
C601 C 0.17176 0.96643 0.94445 0.0
C602 C 0.1008 0.93159 0.09751 0.0
C603 C 0.13842 0.94003 0.03801 0.0
C604 C 0.07963 0.91483 0.12869 0.0
C605 C 0.07588 0.89175 0.14276 0.0
C606 C 0.11804 0.925 0.08053 0.0
C607 C 0.09441 0.88669 0.1291 0.0
C608 C 0.1497 0.92951 0.00416 0.0
C609 C 0.16151 0.97694 0.98239 0.0
N610 N 0.11446 0.903 0.09809 0.0
N611 N 0.14491 0.9635 0.02673 0.0
H612 H 0.01041 0.17683 0.98159 0.0
H613 H 0.13302 0.23259 0.1759 0.0
H614 H 0.07083 0.24931 0.9591 0.0
H615 H 0.0888 0.156 0.14157 0.0
H616 H 0.10274 0.2393 0.12517 0.0
H617 H 0.03211 0.17004 0.06622 0.0
C618 C 0.02798 0.19155 0.99545 0.0
C619 C 0.03897 0.21366 0.96281 0.0
C620 C 0.09939 0.22097 0.12969 0.0
C621 C 0.06364 0.20591 0.05961 0.0
C622 C 0.11657 0.21709 0.15882 0.0
C623 C 0.11344 0.19375 0.162 0.0
C624 C 0.07896 0.20138 0.10297 0.0
C625 C 0.09181 0.17426 0.13979 0.0
C626 C 0.04034 0.18754 0.04346 0.0
C627 C 0.06178 0.23195 0.98257 0.0
N628 N 0.07545 0.17855 0.11 0.0
N629 N 0.07342 0.22761 0.02947 0.0
H630 H 0.80336 0.49902 0.79437 0.0
H631 H 0.76962 0.57094 0.0394 0.0
H632 H 0.83965 0.57703 0.80413 0.0
H633 H 0.72715 0.49391 0.00666 0.0
H634 H 0.80136 0.57269 0.97254 0.0
H635 H 0.78161 0.49654 0.88972 0.0
C636 C 0.80688 0.51569 0.8168 0.0
C637 C 0.82293 0.53831 0.7904 0.0
C638 C 0.78527 0.55535 0.98086 0.0
C639 C 0.79795 0.53551 0.89991 0.0
C640 C 0.76712 0.55428 0.01922 0.0
C641 C 0.74538 0.53229 0.0275 0.0
C642 C 0.78166 0.53431 0.95067 0.0
C643 C 0.74339 0.51131 0.00081 0.0
C644 C 0.79448 0.51423 0.87147 0.0
C645 C 0.82719 0.55924 0.82246 0.0
N646 N 0.76115 0.51291 0.9628 0.0
N647 N 0.81445 0.55734 0.87517 0.0
H648 H 0.52278 0.24694 0.98167 0.0
H649 H 0.43805 0.2866 0.80547 0.0
H650 H 0.44787 0.2201 0.02912 0.0
H651 H 0.51345 0.31412 0.76221 0.0
H652 H 0.44258 0.26635 0.89744 0.0
H653 H 0.52139 0.27669 0.91258 0.0
C654 C 0.5062 0.24762 0.97859 0.0
C655 C 0.48529 0.23069 0.01022 0.0
C656 C 0.45816 0.27702 0.868 0.0
C657 C 0.4834 0.26433 0.93049 0.0
C658 C 0.45554 0.28851 0.81545 0.0
C659 C 0.47525 0.30171 0.7754 0.0
C660 C 0.48063 0.27877 0.88041 0.0
C661 C 0.4976 0.30378 0.79101 0.0
C662 C 0.50535 0.26451 0.93883 0.0
C663 C 0.46432 0.2325 0.00464 0.0
N664 N 0.4996 0.29228 0.84186 0.0
N665 N 0.4638 0.24873 0.96474 0.0
H666 H 0.80304 0.24819 0.03491 0.0
H667 H 0.69334 0.21132 0.80191 0.0
H668 H 0.76464 0.28742 0.01294 0.0
H669 H 0.73746 0.17761 0.80252 0.0
H670 H 0.71283 0.23247 0.89782 0.0
H671 H 0.77271 0.21573 0.97002 0.0
C672 C 0.78797 0.24978 0.01761 0.0
C673 C 0.7867 0.27086 0.02809 0.0
C674 C 0.71812 0.22028 0.87746 0.0
C675 C 0.75209 0.23383 0.9536 0.0
C676 C 0.70707 0.20824 0.82249 0.0
C677 C 0.71425 0.19315 0.79335 0.0
C678 C 0.73673 0.21747 0.9033 0.0
C679 C 0.73165 0.18936 0.82302 0.0
C680 C 0.77071 0.23125 0.98036 0.0
C681 C 0.76662 0.27174 0.00505 0.0
N682 N 0.74263 0.20181 0.87597 0.0
N683 N 0.7503 0.25366 0.96808 0.0
H684 H 0.87134 0.47414 0.43625 0.0
H685 H 0.85791 0.43261 0.10007 0.0
H686 H 0.85449 0.5159 0.30819 0.0
H687 H 0.81641 0.38159 0.24445 0.0
H688 H 0.86091 0.46562 0.16587 0.0
H689 H 0.85815 0.44226 0.35821 0.0
C690 C 0.86532 0.47685 0.39123 0.0
C691 C 0.86416 0.4978 0.37849 0.0
C692 C 0.85033 0.44708 0.18188 0.0
C693 C 0.84882 0.46119 0.28946 0.0
C694 C 0.84844 0.42831 0.14436 0.0
C695 C 0.83662 0.40449 0.16696 0.0
C696 C 0.8411 0.44183 0.24277 0.0
C697 C 0.82532 0.39973 0.2253 0.0
C698 C 0.85742 0.45846 0.34724 0.0
C699 C 0.85574 0.50004 0.31959 0.0
N700 N 0.82842 0.41838 0.26213 0.0
N701 N 0.84858 0.48197 0.2766 0.0
H702 H 0.49376 0.37567 0.31971 0.0
H703 H 0.63508 0.46231 0.2669 0.0
H704 H 0.54247 0.42558 0.45782 0.0
H705 H 0.58474 0.44635 0.11596 0.0
H706 H 0.60113 0.43749 0.3367 0.0
H707 H 0.52683 0.39298 0.24291 0.0
C708 C 0.51125 0.39053 0.33352 0.0
C709 C 0.51533 0.39939 0.39503 0.0
C710 C 0.59759 0.43883 0.28782 0.0
C711 C 0.55319 0.41823 0.3088 0.0
C712 C 0.61694 0.45251 0.24783 0.0
C713 C 0.61256 0.45592 0.18571 0.0
C714 C 0.57383 0.42857 0.26517 0.0
C715 C 0.58871 0.44367 0.16349 0.0
C716 C 0.53008 0.40016 0.28998 0.0
C717 C 0.5384 0.41843 0.41074 0.0
N718 N 0.57008 0.43065 0.20346 0.0
N719 N 0.55654 0.427 0.36811 0.0
H720 H 0.60039 0.1164 0.39587 0.0
H721 H 0.57815 0.18799 0.12963 0.0
H722 H 0.66229 0.18377 0.33752 0.0
H723 H 0.53328 0.15774 0.29308 0.0
H724 H 0.60976 0.18239 0.181 0.0
H725 H 0.57506 0.12419 0.32576 0.0
C726 C 0.60877 0.13258 0.36728 0.0
C727 C 0.63336 0.14973 0.37362 0.0
C728 C 0.59303 0.17735 0.20536 0.0
C729 C 0.6044 0.1588 0.29392 0.0
C730 C 0.57519 0.18074 0.17659 0.0
C731 C 0.55298 0.17297 0.20691 0.0
C732 C 0.58813 0.16579 0.26372 0.0
C733 C 0.54993 0.16355 0.2675 0.0
C734 C 0.59429 0.13706 0.32759 0.0
C735 C 0.64331 0.17021 0.33445 0.0
N736 N 0.56709 0.15986 0.29336 0.0
N737 N 0.62866 0.17447 0.29676 0.0
H738 H 0.50427 0.11948 0.86058 0.0
H739 H 0.63173 0.20756 0.70177 0.0
H740 H 0.55069 0.19414 0.91442 0.0
H741 H 0.58114 0.13659 0.63006 0.0
H742 H 0.60052 0.2044 0.77359 0.0
H743 H 0.53086 0.12615 0.77108 0.0
C744 C 0.51994 0.13724 0.85356 0.0
C745 C 0.52533 0.15615 0.89558 0.0
C746 C 0.59614 0.18967 0.74146 0.0
C747 C 0.55576 0.16396 0.79336 0.0
C748 C 0.61394 0.19156 0.70009 0.0
C749 C 0.60921 0.17217 0.66051 0.0
C750 C 0.57357 0.16817 0.7435 0.0
C751 C 0.58576 0.15186 0.66047 0.0
C752 C 0.53507 0.1411 0.80233 0.0
C753 C 0.54584 0.17889 0.88376 0.0
N754 N 0.56896 0.15023 0.70202 0.0
N755 N 0.56034 0.18208 0.83418 0.0
H756 H 0.89518 0.40149 0.85186 0.0
H757 H 0.87275 0.45557 0.60215 0.0
H758 H 0.81939 0.37038 0.89663 0.0
H759 H 0.81194 0.44607 0.71186 0.0
H760 H 0.87606 0.42629 0.66819 0.0
H761 H 0.88936 0.4216 0.76216 0.0
C762 C 0.87726 0.39857 0.84227 0.0
C763 C 0.85785 0.38437 0.88222 0.0
C764 C 0.86202 0.43058 0.67808 0.0
C765 C 0.8508 0.40688 0.77867 0.0
C766 C 0.85987 0.44703 0.6398 0.0
C767 C 0.84233 0.45359 0.65243 0.0
C768 C 0.84672 0.42088 0.72997 0.0
C769 C 0.82581 0.44164 0.70081 0.0
C770 C 0.87384 0.40986 0.79051 0.0
C771 C 0.83499 0.38129 0.86751 0.0
N772 N 0.82865 0.4261 0.73855 0.0
N773 N 0.8322 0.39268 0.81748 0.0
H774 H 0.62342 0.51374 0.84288 0.0
H775 H 0.56603 0.38034 0.70583 0.0
H776 H 0.63892 0.45998 0.91672 0.0
H777 H 0.55947 0.43762 0.61826 0.0
H778 H 0.59726 0.4104 0.77518 0.0
H779 H 0.60333 0.48722 0.75373 0.0
C780 C 0.62271 0.49645 0.84028 0.0
C781 C 0.63263 0.48902 0.88784 0.0
C782 C 0.58935 0.41645 0.73983 0.0
C783 C 0.60966 0.45851 0.78592 0.0
C784 C 0.57175 0.39931 0.69986 0.0
C785 C 0.56001 0.40653 0.65703 0.0
C786 C 0.595 0.44079 0.73678 0.0
C787 C 0.56788 0.4313 0.65147 0.0
C788 C 0.61134 0.48133 0.78919 0.0
C789 C 0.63136 0.46645 0.88154 0.0
N790 N 0.58456 0.44747 0.69158 0.0
N791 N 0.61987 0.45192 0.83197 0.0
H792 H 0.47822 0.17613 0.33805 0.0
H793 H 0.43616 0.27008 0.43216 0.0
H794 H 0.42138 0.18228 0.24591 0.0
H795 H 0.50358 0.27696 0.4954 0.0
H796 H 0.42619 0.23247 0.38103 0.0
H797 H 0.48257 0.20685 0.41324 0.0
C798 C 0.46621 0.18346 0.33444 0.0
C799 C 0.44961 0.17685 0.28485 0.0
C800 C 0.44316 0.2421 0.40609 0.0
C801 C 0.45474 0.21213 0.37059 0.0
C802 C 0.44902 0.26376 0.43525 0.0
C803 C 0.47109 0.2771 0.4672 0.0
C804 C 0.45944 0.2335 0.40828 0.0
C805 C 0.48655 0.26746 0.47061 0.0
C806 C 0.4689 0.20116 0.37716 0.0
C807 C 0.43458 0.18698 0.28282 0.0
N808 N 0.48053 0.24628 0.44085 0.0
N809 N 0.4377 0.20429 0.32463 0.0
H810 H 0.84563 0.2816 0.29976 0.0
H811 H 0.73362 0.2643 0.49217 0.0
H812 H 0.83103 0.34026 0.3232 0.0
H813 H 0.76688 0.22059 0.51987 0.0
H814 H 0.77053 0.29457 0.43785 0.0
H815 H 0.81836 0.26044 0.38665 0.0
C816 C 0.83702 0.29021 0.3239 0.0
C817 C 0.84048 0.31261 0.30387 0.0
C818 C 0.76993 0.27863 0.45734 0.0
C819 C 0.80876 0.28829 0.40245 0.0
C820 C 0.74896 0.2615 0.48859 0.0
C821 C 0.74722 0.23989 0.50951 0.0
C822 C 0.78889 0.27377 0.4469 0.0
C823 C 0.76746 0.23692 0.50339 0.0
C824 C 0.82145 0.27816 0.37359 0.0
C825 C 0.82887 0.32297 0.33704 0.0
N826 N 0.78724 0.25341 0.47173 0.0
N827 N 0.81313 0.31051 0.38387 0.0
H828 H 0.80204 0.56936 0.51146 0.0
H829 H 0.67713 0.51414 0.32743 0.0
H830 H 0.75423 0.49247 0.4908 0.0
H831 H 0.73901 0.58498 0.29527 0.0
H832 H 0.69901 0.50798 0.41278 0.0
H833 H 0.77228 0.57668 0.46027 0.0
C834 C 0.78498 0.55396 0.49709 0.0
C835 C 0.78069 0.53028 0.50423 0.0
C836 C 0.70754 0.52502 0.38778 0.0
C837 C 0.74668 0.53859 0.4448 0.0
C838 C 0.69506 0.52869 0.33938 0.0
C839 C 0.70639 0.55009 0.30377 0.0
C840 C 0.73132 0.54304 0.40127 0.0
C841 C 0.72968 0.56816 0.32109 0.0
C842 C 0.76806 0.55818 0.46776 0.0
C843 C 0.75821 0.51098 0.48576 0.0
N844 N 0.74142 0.56415 0.36834 0.0
N845 N 0.7421 0.51558 0.45566 0.0
H846 H 0.3988 0.8269 0.35158 0.0
H847 H 0.50923 0.91692 0.14033 0.0
H848 H 0.43638 0.90457 0.37448 0.0
H849 H 0.47538 0.83902 0.13305 0.0
H850 H 0.48761 0.91316 0.23811 0.0
H851 H 0.4317 0.83106 0.28539 0.0
C852 C 0.41417 0.84479 0.34371 0.0
C853 C 0.41451 0.86544 0.36733 0.0
C854 C 0.48522 0.89693 0.21548 0.0
C855 C 0.45203 0.87041 0.29052 0.0
C856 C 0.49753 0.89909 0.15967 0.0
C857 C 0.4936 0.87825 0.1277 0.0
C858 C 0.46893 0.87378 0.23907 0.0
C859 C 0.47847 0.85559 0.1552 0.0
C860 C 0.43297 0.84719 0.30573 0.0
C861 C 0.43511 0.88815 0.35631 0.0
N862 N 0.46647 0.85396 0.20876 0.0
N863 N 0.45281 0.89008 0.31756 0.0
H864 H 0.18429 0.58825 0.35674 0.0
H865 H 0.09733 0.60943 0.13492 0.0
H866 H 0.10636 0.54539 0.36555 0.0
H867 H 0.17516 0.65398 0.13733 0.0
H868 H 0.09943 0.59045 0.23257 0.0
H869 H 0.18064 0.61754 0.29157 0.0
C870 C 0.16641 0.58522 0.34594 0.0
C871 C 0.14562 0.56405 0.36536 0.0
C872 C 0.11599 0.60465 0.21211 0.0
C873 C 0.14127 0.59724 0.28962 0.0
C874 C 0.11478 0.61545 0.15641 0.0
C875 C 0.13613 0.63282 0.1272 0.0
C876 C 0.1387 0.61136 0.23838 0.0
C877 C 0.15826 0.64017 0.15734 0.0
C878 C 0.16431 0.60193 0.30856 0.0
C879 C 0.12291 0.56127 0.35076 0.0
N880 N 0.15898 0.6292 0.21075 0.0
N881 N 0.12133 0.57741 0.31259 0.0
H882 H 0.38736 0.50801 0.15192 0.0
H883 H 0.43306 0.63456 0.32029 0.0
H884 H 0.3651 0.55943 0.10081 0.0
H885 H 0.45326 0.58226 0.37783 0.0
H886 H 0.40183 0.60382 0.25327 0.0
H887 H 0.40615 0.53175 0.2463 0.0
C888 C 0.38626 0.52414 0.16072 0.0
C889 C 0.37512 0.53201 0.11768 0.0
C890 C 0.41282 0.59894 0.28142 0.0
C891 C 0.39643 0.55916 0.22542 0.0
C892 C 0.43055 0.61648 0.32004 0.0
C893 C 0.44619 0.61115 0.35343 0.0
C894 C 0.41091 0.57607 0.27598 0.0
C895 C 0.44198 0.58733 0.35164 0.0
C896 C 0.39691 0.53765 0.21468 0.0
C897 C 0.37395 0.5529 0.13191 0.0
N898 N 0.42506 0.57081 0.31256 0.0
N899 N 0.3847 0.56587 0.18411 0.0
H900 H 0.57268 0.84252 0.73568 0.0
H901 H 0.49699 0.74793 0.46795 0.0
H902 H 0.50593 0.83692 0.6717 0.0
H903 H 0.53921 0.73851 0.6112 0.0
H904 H 0.50367 0.78508 0.52229 0.0
H905 H 0.56654 0.81064 0.66303 0.0
C906 C 0.55693 0.83489 0.70556 0.0
C907 C 0.53954 0.84202 0.71074 0.0
C908 C 0.5113 0.77465 0.54136 0.0
C909 C 0.53218 0.80517 0.62823 0.0
C910 C 0.50734 0.75345 0.51088 0.0
C911 C 0.51783 0.74031 0.5346 0.0
C912 C 0.52608 0.7826 0.59481 0.0
C913 C 0.53113 0.74824 0.59032 0.0
C914 C 0.55335 0.81658 0.66436 0.0
C915 C 0.51966 0.83173 0.66961 0.0
N916 N 0.53505 0.7689 0.61791 0.0
N917 N 0.51625 0.81343 0.63057 0.0
H918 H 0.25562 0.76948 0.44154 0.0
H919 H 0.20484 0.75094 0.77755 0.0
H920 H 0.30221 0.79282 0.6027 0.0
H921 H 0.16885 0.69026 0.65131 0.0
H922 H 0.23825 0.77042 0.70396 0.0
H923 H 0.22164 0.74153 0.50844 0.0
C924 C 0.25889 0.76778 0.49044 0.0
C925 C 0.28168 0.78299 0.51686 0.0
C926 C 0.22297 0.75287 0.69233 0.0
C927 C 0.24305 0.75262 0.59328 0.0
C928 C 0.20369 0.7419 0.73378 0.0
C929 C 0.18399 0.71891 0.72057 0.0
C930 C 0.22241 0.74108 0.63661 0.0
C931 C 0.18373 0.708 0.66324 0.0
C932 C 0.23952 0.75215 0.52854 0.0
C933 C 0.28496 0.78097 0.58069 0.0
N934 N 0.20268 0.71927 0.62295 0.0
N935 N 0.26569 0.76649 0.61713 0.0
H936 H 0.23204 0.53945 0.56917 0.0
H937 H 0.31608 0.48338 0.64161 0.0
H938 H 0.23518 0.48948 0.43946 0.0
H939 H 0.26775 0.48826 0.77417 0.0
H940 H 0.29954 0.49812 0.55927 0.0
H941 H 0.26125 0.53586 0.63618 0.0
C942 C 0.23988 0.52875 0.55333 0.0
C943 C 0.2314 0.51474 0.49914 0.0
C944 C 0.29276 0.49595 0.60659 0.0
C945 C 0.26406 0.5102 0.57526 0.0
C946 C 0.30191 0.48735 0.65315 0.0
C947 C 0.29286 0.48412 0.71428 0.0
C948 C 0.27527 0.5022 0.62237 0.0
C949 C 0.27484 0.48993 0.72734 0.0
C950 C 0.25621 0.52644 0.5918 0.0
C951 C 0.24151 0.50059 0.48109 0.0
N952 N 0.26679 0.49888 0.68188 0.0
N953 N 0.25715 0.49835 0.51966 0.0
H954 H 0.16955 0.46339 0.17361 0.0
H955 H 0.30033 0.54583 0.0316 0.0
H956 H 0.21931 0.5352 0.24211 0.0
H957 H 0.24442 0.48215 0.93969 0.0
H958 H 0.26969 0.5451 0.10205 0.0
H959 H 0.19563 0.47155 0.08236 0.0
C960 C 0.18584 0.48087 0.16938 0.0
C961 C 0.19234 0.49847 0.21604 0.0
C962 C 0.26405 0.53161 0.0655 0.0
C963 C 0.22228 0.50799 0.11188 0.0
C964 C 0.28152 0.53222 0.02489 0.0
C965 C 0.27491 0.5138 0.98062 0.0
C966 C 0.24001 0.51233 0.06177 0.0
C967 C 0.2503 0.49644 0.97411 0.0
C968 C 0.20067 0.48561 0.11711 0.0
C969 C 0.2136 0.52094 0.20768 0.0
N970 N 0.23382 0.49584 0.01506 0.0
N971 N 0.22791 0.52494 0.15711 0.0
H972 H 0.56033 0.73392 0.18099 0.0
H973 H 0.47724 0.78098 0.02946 0.0
H974 H 0.48735 0.71103 0.24056 0.0
H975 H 0.5486 0.80099 0.96218 0.0
H976 H 0.47846 0.75084 0.09745 0.0
H977 H 0.55474 0.75495 0.0925 0.0
C978 C 0.54312 0.73318 0.17534 0.0
C979 C 0.52445 0.72097 0.21888 0.0
C980 C 0.49371 0.76159 0.06711 0.0
C981 C 0.51787 0.74491 0.11778 0.0
C982 C 0.49293 0.7787 0.02794 0.0
C983 C 0.513 0.79384 0.99086 0.0
C984 C 0.51474 0.75974 0.06937 0.0
C985 C 0.53285 0.79001 0.99081 0.0
C986 C 0.5399 0.74513 0.12473 0.0
C987 C 0.50243 0.72046 0.20879 0.0
N988 N 0.53337 0.77362 0.03016 0.0
N989 N 0.49985 0.73241 0.15973 0.0
H990 H 0.31201 0.79236 0.24352 0.0
H991 H 0.22175 0.76552 0.95884 0.0
H992 H 0.28771 0.84112 0.1821 0.0
H993 H 0.23499 0.7116 0.04186 0.0
H994 H 0.25314 0.79629 0.02482 0.0
H995 H 0.29073 0.76574 0.15609 0.0
C996 C 0.30235 0.79762 0.21143 0.0
C997 C 0.30136 0.81891 0.22085 0.0
C998 C 0.24943 0.7778 0.02808 0.0
C999 C 0.27699 0.78837 0.12029 0.0
C1000 C 0.23155 0.7602 0.9903 0.0
C1001 C 0.22543 0.73585 0.99575 0.0
C1002 C 0.26126 0.77105 0.07191 0.0
C1003 C 0.23901 0.73011 0.03648 0.0
C1004 C 0.29022 0.78235 0.16142 0.0
C1005 C 0.28876 0.8248 0.17716 0.0
N1006 N 0.25607 0.74756 0.07381 0.0
N1007 N 0.2769 0.80949 0.12905 0.0
H1008 H 0.11056 0.58256 0.83989 0.0
H1009 H 0.17133 0.51727 0.66077 0.0
H1010 H 0.18771 0.6117 0.83305 0.0
H1011 H 0.09835 0.50275 0.63209 0.0
H1012 H 0.17574 0.54425 0.74734 0.0
H1013 H 0.10449 0.54574 0.7896 0.0
C1014 C 0.12625 0.58097 0.82859 0.0
C1015 C 0.14969 0.60028 0.83946 0.0
C1016 C 0.15864 0.53476 0.72283 0.0
C1017 C 0.14287 0.55832 0.78073 0.0
C1018 C 0.156 0.51924 0.67364 0.0
C1019 C 0.1345 0.508 0.63853 0.0
C1020 C 0.13955 0.53881 0.73735 0.0
C1021 C 0.11532 0.51128 0.65729 0.0
C1022 C 0.12276 0.55997 0.7998 0.0
C1023 C 0.16938 0.59721 0.82497 0.0
N1024 N 0.11839 0.52656 0.70502 0.0
N1025 N 0.16555 0.57672 0.79504 0.0
H1026 H 0.42255 0.53246 0.80857 0.0
H1027 H 0.50673 0.66336 0.66381 0.0
H1028 H 0.40523 0.58958 0.82298 0.0
H1029 H 0.50217 0.59766 0.59451 0.0
H1030 H 0.47792 0.63996 0.74637 0.0
H1031 H 0.45997 0.56007 0.75563 0.0
C1032 C 0.42669 0.55094 0.80095 0.0
C1033 C 0.41038 0.55857 0.81874 0.0
C1034 C 0.48363 0.63082 0.71376 0.0
C1035 C 0.4535 0.59034 0.75812 0.0
C1036 C 0.50023 0.64413 0.66693 0.0
C1037 C 0.50668 0.63236 0.62175 0.0
C1038 C 0.4738 0.60569 0.71597 0.0
C1039 C 0.49754 0.60742 0.62797 0.0
C1040 C 0.44813 0.56667 0.77082 0.0
C1041 C 0.41714 0.5829 0.80926 0.0
N1042 N 0.48143 0.59489 0.67393 0.0
N1043 N 0.43813 0.59793 0.77861 0.0
H1044 H 0.34235 0.84347 0.66502 0.0
H1045 H 0.46727 0.90474 0.84962 0.0
H1046 H 0.40126 0.91632 0.63634 0.0
H1047 H 0.42208 0.8274 0.8308 0.0
H1048 H 0.43594 0.91018 0.80053 0.0
H1049 H 0.36462 0.83899 0.75226 0.0
C1050 C 0.35965 0.85878 0.67819 0.0
C1051 C 0.37015 0.88025 0.64291 0.0
C1052 C 0.43263 0.89198 0.80802 0.0
C1053 C 0.39552 0.87515 0.7424 0.0
C1054 C 0.45045 0.88884 0.83612 0.0
C1055 C 0.44732 0.8656 0.84308 0.0
C1056 C 0.41158 0.87175 0.78587 0.0
C1057 C 0.42514 0.84561 0.82578 0.0
C1058 C 0.37237 0.8561 0.72768 0.0
C1059 C 0.39263 0.89939 0.66182 0.0
N1060 N 0.40817 0.84915 0.79664 0.0
N1061 N 0.40465 0.8963 0.70994 0.0
H1062 H 0.08076 0.30418 0.70745 0.0
H1063 H 0.09025 0.38283 0.40539 0.0
H1064 H 0.02568 0.27909 0.56458 0.0
H1065 H 0.14133 0.40833 0.55778 0.0
H1066 H 0.06844 0.34295 0.45612 0.0
H1067 H 0.1048 0.34119 0.64776 0.0
C1068 C 0.07365 0.30646 0.66367 0.0
C1069 C 0.05105 0.28849 0.64135 0.0
C1070 C 0.08459 0.35724 0.47799 0.0
C1071 C 0.07869 0.33091 0.57217 0.0
C1072 C 0.09714 0.3799 0.44876 0.0
C1073 C 0.11748 0.39894 0.47771 0.0
C1074 C 0.09259 0.35371 0.53622 0.0
C1075 C 0.12554 0.39424 0.53416 0.0
C1076 C 0.08745 0.3276 0.62937 0.0
C1077 C 0.04292 0.29248 0.5839 0.0
N1078 N 0.11301 0.37221 0.56167 0.0
N1079 N 0.05671 0.31326 0.55136 0.0
H1080 H 0.74123 0.76303 0.55814 0.0
H1081 H 0.61095 0.75076 0.54378 0.0
H1082 H 0.71706 0.80036 0.68105 0.0
H1083 H 0.63584 0.7201 0.40276 0.0
H1084 H 0.65113 0.77115 0.58976 0.0
H1085 H 0.70395 0.74832 0.49738 0.0
C1086 C 0.72812 0.76813 0.57243 0.0
C1087 C 0.73222 0.7828 0.62523 0.0
C1088 C 0.64804 0.76023 0.54836 0.0
C1089 C 0.68972 0.7662 0.5556 0.0
C1090 C 0.6251 0.74864 0.52203 0.0
C1091 C 0.62016 0.73369 0.46975 0.0
C1092 C 0.66619 0.75651 0.52302 0.0
C1093 C 0.63907 0.73159 0.44304 0.0
C1094 C 0.70693 0.75984 0.53746 0.0
C1095 C 0.71468 0.78897 0.64112 0.0
N1096 N 0.66128 0.74261 0.47064 0.0
N1097 N 0.69422 0.78057 0.60665 0.0
H1098 H 0.20857 0.9268 0.67304 0.0
H1099 H 0.29037 0.9224 0.39561 0.0
H1100 H 0.24851 0.98636 0.54583 0.0
H1101 H 0.26032 0.87029 0.54525 0.0
H1102 H 0.26967 0.94301 0.43817 0.0
H1103 H 0.22234 0.90308 0.61545 0.0
C1104 C 0.22022 0.93492 0.63295 0.0
C1105 C 0.2276 0.95875 0.61477 0.0
C1106 C 0.26742 0.92689 0.46111 0.0
C1107 C 0.24343 0.93153 0.54828 0.0
C1108 C 0.27905 0.91505 0.4366 0.0
C1109 C 0.27723 0.89481 0.46742 0.0
C1110 C 0.25378 0.91819 0.51629 0.0
C1111 C 0.26246 0.88605 0.52052 0.0
C1112 C 0.22805 0.92132 0.59995 0.0
C1113 C 0.24254 0.96814 0.56192 0.0
N1114 N 0.25145 0.89787 0.54343 0.0
N1115 N 0.25008 0.95455 0.53069 0.0
H1116 H 0.29648 0.09199 0.76196 0.0
H1117 H 0.39868 0.07726 0.93704 0.0
H1118 H 0.28615 0.02274 0.81938 0.0
H1119 H 0.38944 0.13909 0.96591 0.0
H1120 H 0.36271 0.05916 0.87027 0.0
H1121 H 0.33662 0.11183 0.8121 0.0
C1122 C 0.30303 0.08101 0.78358 0.0
C1123 C 0.28833 0.05581 0.78652 0.0
C1124 C 0.36867 0.07673 0.8911 0.0
C1125 C 0.33359 0.07808 0.84358 0.0
C1126 C 0.38913 0.08705 0.92915 0.0
C1127 C 0.39687 0.10958 0.95752 0.0
C1128 C 0.35618 0.08925 0.88032 0.0
C1129 C 0.38387 0.12153 0.94558 0.0
C1130 C 0.32568 0.09227 0.81262 0.0
C1131 C 0.29718 0.04225 0.81608 0.0
N1132 N 0.36416 0.11124 0.90763 0.0
N1133 N 0.3193 0.05355 0.84353 0.0
H1134 H 0.9326 0.2108 0.89363 0.0
H1135 H 0.91802 0.32795 0.90266 0.0
H1136 H 0.95792 0.26369 0.74545 0.0
H1137 H 0.88921 0.27174 0.0428 0.0
H1138 H 0.93171 0.30449 0.84267 0.0
H1139 H 0.91475 0.23204 0.94531 0.0
C1140 C 0.93418 0.22681 0.87156 0.0
C1141 C 0.94694 0.2356 0.8153 0.0
C1142 C 0.92236 0.29728 0.88647 0.0
C1143 C 0.92674 0.26035 0.87507 0.0
C1144 C 0.91461 0.31071 0.92104 0.0
C1145 C 0.9025 0.3019 0.97825 0.0
C1146 C 0.91805 0.27484 0.90919 0.0
C1147 C 0.89854 0.27937 -0.00076 0.0
C1148 C 0.924 0.23898 0.90126 0.0
C1149 C 0.94819 0.25628 0.78867 0.0
N1150 N 0.90633 0.26669 0.96481 0.0
N1151 N 0.93846 0.26815 0.81922 0.0
H1152 H 0.75815 0.71393 0.73854 0.0
H1153 H 0.74666 0.6369 0.04581 0.0
H1154 H 0.80276 0.74285 0.90278 0.0
H1155 H 0.69436 0.60939 0.89601 0.0
H1156 H 0.76999 0.67449 0.9878 0.0
H1157 H 0.73749 0.67384 0.78859 0.0
C1158 C 0.76386 0.71176 0.78456 0.0
C1159 C 0.78203 0.73176 0.81678 0.0
C1160 C 0.75341 0.66023 0.96753 0.0
C1161 C 0.7585 0.68625 0.87425 0.0
C1162 C 0.74003 0.63874 0.00077 0.0
C1163 C 0.71838 0.61995 0.97609 0.0
C1164 C 0.7452 0.66306 0.90895 0.0
C1165 C 0.71084 0.62342 0.91716 0.0
C1166 C 0.75196 0.68897 0.81328 0.0
C1167 C 0.78864 0.728 0.87648 0.0
N1168 N 0.72421 0.64457 0.88565 0.0
N1169 N 0.77684 0.70579 0.90329 0.0
H1170 H 0.91753 0.64121 0.58253 0.0
H1171 H 0.92819 0.72127 0.28416 0.0
H1172 H 0.87791 0.61225 0.41087 0.0
H1173 H 0.98342 0.74614 0.42668 0.0
H1174 H 0.90578 0.68281 0.339 0.0
H1175 H 0.93818 0.68167 0.53464 0.0
C1176 C 0.91305 0.6434 0.5351 0.0
C1177 C 0.89617 0.62338 0.50039 0.0
C1178 C 0.92281 0.69669 0.35829 0.0
C1179 C 0.91944 0.66926 0.44587 0.0
C1180 C 0.93561 0.71868 0.32704 0.0
C1181 C 0.95782 0.7369 0.35058 0.0
C1182 C 0.93213 0.69291 0.41379 0.0
C1183 C 0.96647 0.7325 0.40654 0.0
C1184 C 0.92489 0.6664 0.50777 0.0
C1185 C 0.89102 0.62715 0.43909 0.0
N1186 N 0.95359 0.71091 0.43634 0.0
N1187 N 0.90259 0.64962 0.41385 0.0
H1188 H 0.27863 0.28113 0.34743 0.0
H1189 H 0.37684 0.26745 0.54306 0.0
H1190 H 0.2815 0.21502 0.34256 0.0
H1191 H 0.39137 0.33491 0.45942 0.0
H1192 H 0.33748 0.24698 0.48902 0.0
H1193 H 0.31629 0.30039 0.40708 0.0
C1194 C 0.28724 0.27069 0.35885 0.0
C1195 C 0.27707 0.24651 0.33979 0.0
C1196 C 0.3493 0.26629 0.48307 0.0
C1197 C 0.31979 0.26827 0.40902 0.0
C1198 C 0.37154 0.27796 0.51425 0.0
C1199 C 0.38723 0.30283 0.50547 0.0
C1200 C 0.34271 0.27979 0.44433 0.0
C1201 C 0.37976 0.31567 0.46712 0.0
C1202 C 0.30868 0.28168 0.39283 0.0
C1203 C 0.28895 0.23379 0.35586 0.0
N1204 N 0.35798 0.30402 0.43814 0.0
N1205 N 0.30967 0.24479 0.39012 0.0
H1206 H 0.79568 0.09372 0.28411 0.0
H1207 H 0.72436 0.10236 0.58082 0.0
H1208 H 0.76283 0.03726 0.42305 0.0
H1209 H 0.73731 0.14445 0.41264 0.0
H1210 H 0.74462 0.08235 0.53257 0.0
H1211 H 0.78025 0.11655 0.33991 0.0
C1212 C 0.78527 0.08614 0.32638 0.0
C1213 C 0.78035 0.06345 0.34864 0.0
C1214 C 0.74308 0.09606 0.50654 0.0
C1215 C 0.76282 0.08955 0.41284 0.0
C1216 C 0.73166 0.10753 0.53409 0.0
C1217 C 0.72897 0.12487 0.50038 0.0
C1218 C 0.75207 0.10228 0.44538 0.0
C1219 C 0.73873 0.13094 0.43998 0.0
C1220 C 0.77646 0.09917 0.35816 0.0
C1221 C 0.76683 0.05457 0.40385 0.0
N1222 N 0.74982 0.11963 0.41439 0.0
N1223 N 0.75852 0.06765 0.43411 0.0
H1224 H 0.61457 0.88234 0.01512 0.0
H1225 H 0.73076 0.003 0.11669 0.0
H1226 H 0.61511 0.95018 0.02249 0.0
H1227 H 0.71197 0.93592 0.20969 0.0
H1228 H 0.69067 0.98358 0.06836 0.0
H1229 H 0.65314 0.90124 0.07248 0.0
C1230 C 0.62291 0.90122 0.02837 0.0
C1231 C 0.61177 0.91479 0.01402 0.0
C1232 C 0.69524 0.97319 0.09982 0.0
C1233 C 0.65552 0.93631 0.07881 0.0
C1234 C 0.71802 0.98421 0.12731 0.0
C1235 C 0.72444 0.97098 0.1673 0.0
C1236 C 0.67907 0.9486 0.111 0.0
C1237 C 0.70745 0.94669 0.17953 0.0
C1238 C 0.64468 0.91186 0.06152 0.0
C1239 C 0.62311 0.9391 0.03278 0.0
N1240 N 0.68553 0.93608 0.15061 0.0
N1241 N 0.64451 0.94917 0.0637 0.0
H1242 H 0.01759 0.7473 0.13295 0.0
H1243 H 0.13785 0.75386 0.01417 0.0
H1244 H 0.08686 0.80066 0.20675 0.0
H1245 H 0.07004 0.68657 0.02599 0.0
H1246 H 0.11971 0.77379 0.07357 0.0
H1247 H 0.03667 0.72656 0.08353 0.0
C1248 C 0.03682 0.75439 0.13938 0.0
C1249 C 0.05073 0.77549 0.17418 0.0
C1250 C 0.10893 0.75466 0.06314 0.0
C1251 C 0.07276 0.75243 0.11631 0.0
C1252 C 0.11913 0.74336 0.02878 0.0
C1253 C 0.10537 0.71857 0.01502 0.0
C1254 C 0.08472 0.74111 0.08254 0.0
C1255 C 0.0813 0.70571 0.03565 0.0
C1256 C 0.04768 0.74263 0.11115 0.0
C1257 C 0.07557 0.7842 0.18083 0.0
N1258 N 0.0717 0.71717 0.06794 0.0
N1259 N 0.08596 0.77279 0.15125 0.0
H1260 H 0.20848 0.27921 0.06034 0.0
H1261 H 0.30781 0.41724 0.10125 0.0
H1262 H 0.24122 0.3097 0.23857 0.0
H1263 H 0.25696 0.39168 0.94815 0.0
H1264 H 0.28489 0.37761 0.1507 0.0
H1265 H 0.22716 0.31995 0.01661 0.0
C1266 C 0.21953 0.2945 0.09035 0.0
C1267 C 0.22347 0.29109 0.15308 0.0
C1268 C 0.27865 0.38074 0.10653 0.0
C1269 C 0.24499 0.33768 0.10316 0.0
C1270 C 0.29179 0.40329 0.07806 0.0
C1271 C 0.28436 0.40769 0.02024 0.0
C1272 C 0.25815 0.36233 0.07655 0.0
C1273 C 0.26334 0.38904 0.99267 0.0
C1274 C 0.23008 0.31774 0.06541 0.0
C1275 C 0.23774 0.31155 0.18997 0.0
N1276 N 0.25108 0.36705 0.0208 0.0
N1277 N 0.24824 0.33401 0.16423 0.0
H1278 H 0.94203 0.41933 0.23282 0.0
H1279 H 0.07426 0.43523 0.23241 0.0
H1280 H 0.96901 0.3951 0.0808 0.0
H1281 H 0.04639 0.46089 0.3793 0.0
H1282 H 0.03688 0.42193 0.1737 0.0
H1283 H 0.98141 0.43711 0.28291 0.0
C1284 C 0.95638 0.41799 0.20959 0.0
C1285 C 0.95218 0.40553 0.15277 0.0
C1286 C 0.03898 0.43051 0.21871 0.0
C1287 C -0.00258 0.42561 0.21061 0.0
C1288 C 0.06028 0.43801 0.2525 0.0
C1289 C 0.06348 0.44911 0.3112 0.0
C1290 C 0.0207 0.43409 0.24375 0.0
C1291 C 0.04475 0.45233 0.3345 0.0
C1292 C 0.97889 0.42811 0.23837 0.0
C1293 C 0.97151 0.40458 0.12456 0.0
N1294 N 0.0242 0.44483 0.30078 0.0
N1295 N 0.99327 0.41424 0.1542 0.0
H1296 H 0.59454 0.54092 0.21222 0.0
H1297 H 0.58188 0.65874 0.22072 0.0
H1298 H 0.62537 0.59616 0.07024 0.0
H1299 H 0.5436 0.59753 0.34409 0.0
H1300 H 0.59648 0.63582 0.16143 0.0
H1301 H 0.57363 0.56053 0.25616 0.0
C1302 C 0.59665 0.55709 0.18983 0.0
C1303 C 0.61184 0.56708 0.13787 0.0
C1304 C 0.58474 0.62738 0.20121 0.0
C1305 C 0.58826 0.59 0.18876 0.0
C1306 C 0.57648 0.64048 0.23533 0.0
C1307 C 0.56165 0.63015 0.28798 0.0
C1308 C 0.57824 0.60382 0.22003 0.0
C1309 C 0.55512 0.60635 0.30424 0.0
C1310 C 0.58471 0.56832 0.21499 0.0
C1311 C 0.61377 0.58791 0.11033 0.0
N1312 N 0.56357 0.5941 0.27067 0.0
N1313 N 0.60239 0.59895 0.13676 0.0
H1314 H 0.40989 0.96775 0.39152 0.0
H1315 H 0.42695 0.04453 0.08022 0.0
H1316 H 0.36323 0.93841 0.23068 0.0
H1317 H 0.46195 0.07534 0.25604 0.0
H1318 H 0.40738 0.00416 0.1286 0.0
H1319 H 0.43282 0.00618 0.33671 0.0
C1320 C 0.40443 0.96935 0.34469 0.0
C1321 C 0.38444 0.94982 0.31596 0.0
C1322 C 0.4195 0.01979 0.15628 0.0
C1323 C 0.4108 0.99387 0.25261 0.0
C1324 C 0.43077 0.04277 0.12861 0.0
C1325 C 0.4459 0.06331 0.16434 0.0
C1326 C 0.42366 0.01746 0.21976 0.0
C1327 C 0.45018 0.06003 0.22693 0.0
C1328 C 0.41757 0.99133 0.31334 0.0
C1329 C 0.37838 0.95302 0.25493 0.0
N1330 N 0.43907 0.03761 0.2526 0.0
N1331 N 0.39148 0.97463 0.22531 0.0
H1332 H 0.58132 0.98051 0.91256 0.0
H1333 H 0.59865 0.05982 0.6075 0.0
H1334 H 0.54448 0.95023 0.73826 0.0
H1335 H 0.65108 0.08342 0.75687 0.0
H1336 H 0.57455 0.02123 0.66155 0.0
H1337 H 0.6028 0.02049 0.86294 0.0
C1338 C 0.57755 0.98232 0.86415 0.0
C1339 C 0.56126 0.96204 0.82929 0.0
C1340 C 0.59134 0.03488 0.68238 0.0
C1341 C 0.58564 0.00748 0.77256 0.0
C1342 C 0.6051 0.05689 0.6516 0.0
C1343 C 0.62699 0.0748 0.67748 0.0
C1344 C 0.59939 0.03088 0.73978 0.0
C1345 C 0.63443 0.07004 0.73489 0.0
C1346 C 0.58991 0.00506 0.83581 0.0
C1347 C 0.55709 0.96536 0.76666 0.0
N1348 N 0.62061 0.04854 0.76422 0.0
N1349 N 0.56923 0.98764 0.74028 0.0
H1350 H 0.06957 0.61759 0.73227 0.0
H1351 H 0.93256 0.58447 0.75967 0.0
H1352 H 0.03751 0.62083 0.90694 0.0
H1353 H 0.95844 0.55819 0.60953 0.0
H1354 H 0.97154 0.60026 0.81183 0.0
H1355 H 0.02957 0.59787 0.68412 0.0
C1356 C 0.05408 0.61409 0.76057 0.0
C1357 C 0.05686 0.62099 0.82364 0.0
C1358 C 0.96864 0.59093 0.76763 0.0
C1359 C 0.0111 0.59859 0.7686 0.0
C1360 C 0.94646 0.58205 0.73757 0.0
C1361 C 0.94229 0.57011 0.67991 0.0
C1362 C 0.98694 0.58818 0.73949 0.0
C1363 C 0.96089 0.5673 0.65386 0.0
C1364 C 0.03126 0.60273 0.73308 0.0
C1365 C 0.03615 0.61579 0.8582 0.0
N1366 N 0.98251 0.57646 0.68363 0.0
N1367 N 0.01413 0.60511 0.83 0.0
H1368 H 0.47055 0.42654 0.70425 0.0
H1369 H 0.34766 0.41658 0.80615 0.0
H1370 H 0.40384 0.35798 0.70967 0.0
H1371 H 0.41435 0.46849 0.89482 0.0
H1372 H 0.3683 0.39672 0.76049 0.0
H1373 H 0.45078 0.44481 0.76377 0.0
C1374 C 0.45178 0.41539 0.7178 0.0
C1375 C 0.43876 0.39076 0.7019 0.0
C1376 C 0.37836 0.41226 0.79058 0.0
C1377 C 0.41624 0.41142 0.7692 0.0
C1378 C 0.36662 0.42355 0.81657 0.0
C1379 C 0.37938 0.44402 0.85437 0.0
C1380 C 0.40319 0.42195 0.80105 0.0
C1381 C 0.40392 0.45254 0.86635 0.0
C1382 C 0.44064 0.42574 0.75214 0.0
C1383 C 0.41456 0.37703 0.72105 0.0
N1384 N 0.41523 0.44166 0.83882 0.0
N1385 N 0.404 0.38761 0.75311 0.0
loop_
_geom_bond_atom_site_label_1
_geom_bond_atom_site_label_2
_geom_bond_distance
_geom_bond_site_symmetry_2
_ccdc_geom_bond_type
O0 Zn1 1.953 1_455 S
O0 C16 1.225 . S
Zn1 O0 1.953 1_655 S
Zn1 O2 1.949 1_655 S
Zn1 O8 1.919 . S
Zn1 O13 1.924 . S
O2 Zn1 1.949 1_455 S
O2 Zn3 1.923 . S
O2 Zn4 1.950 . S
O2 Zn5 1.946 . S
Zn3 O2 1.923 . S
Zn3 O6 1.933 1_455 S
Zn3 O9 1.941 1_455 S
Zn3 O10 1.965 . S
Zn4 O2 1.950 . S
Zn4 O11 1.938 . S
Zn4 O12 1.906 . S
Zn4 O22 1.953 . S
Zn5 O2 1.946 . S
Zn5 O7 1.932 1_455 S
Zn5 O14 1.979 . S
Zn5 O15 1.907 1_455 S
O6 Zn3 1.933 1_655 S
O6 C17 1.226 . S
O7 Zn5 1.932 1_655 S
O7 C17 1.307 . S
O8 Zn1 1.919 . S
O8 C19 1.253 . S
O9 Zn3 1.941 1_655 S
O9 C19 1.283 . S
O10 Zn3 1.965 . S
O10 C18 1.303 . S
O11 Zn4 1.938 . S
O11 C18 1.247 . S
O12 Zn4 1.906 . S
O12 C20 1.304 . S
O13 Zn1 1.924 . S
O13 C21 1.311 . S
O14 Zn5 1.979 . S
O14 C20 1.272 . S
O15 Zn5 1.907 1_655 S
O15 C21 1.231 . S
C16 O0 1.225 . S
C16 O22 1.298 . S
C17 O6 1.226 . S
C17 O7 1.307 . S
C18 O10 1.303 . S
C18 O11 1.247 . S
C19 O8 1.253 . S
C19 O9 1.283 . S
C20 O12 1.304 . S
C20 O14 1.272 . S
C21 O13 1.311 . S
C21 O15 1.231 . S
O22 Zn4 1.953 . S
O22 C16 1.298 . S
O23 Zn24 1.953 . S
O23 C39 1.225 . S
Zn24 O23 1.953 . S
Zn24 O25 1.949 . S
Zn24 O31 1.919 . S
Zn24 O36 1.924 . S
O25 Zn24 1.949 . S
O25 Zn26 1.923 . S
O25 Zn27 1.950 . S
O25 Zn28 1.945 . S
Zn26 O25 1.923 . S
Zn26 O29 1.933 . S
Zn26 O32 1.941 . S
Zn26 O33 1.965 . S
Zn27 O25 1.950 . S
Zn27 O34 1.938 . S
Zn27 O35 1.906 . S
Zn27 O45 1.953 . S
Zn28 O25 1.945 . S
Zn28 O30 1.932 . S
Zn28 O37 1.977 . S
Zn28 O38 1.910 . S
O29 Zn26 1.933 . S
O29 C40 1.226 . S
O30 Zn28 1.932 . S
O30 C40 1.307 . S
O31 Zn24 1.919 . S
O31 C42 1.253 . S
O32 Zn26 1.941 . S
O32 C42 1.283 . S
O33 Zn26 1.965 . S
O33 C41 1.303 . S
O34 Zn27 1.938 . S
O34 C41 1.247 . S
O35 Zn27 1.906 . S
O35 C43 1.304 . S
O36 Zn24 1.924 . S
O36 C44 1.311 . S
O37 Zn28 1.977 . S
O37 C43 1.272 . S
O38 Zn28 1.910 . S
O38 C44 1.231 . S
C39 O23 1.225 . S
C39 O45 1.298 . S
C40 O29 1.226 . S
C40 O30 1.307 . S
C41 O33 1.303 . S
C41 O34 1.247 . S
C42 O31 1.253 . S
C42 O32 1.283 . S
C43 O35 1.304 . S
C43 O37 1.272 . S
C44 O36 1.311 . S
C44 O38 1.231 . S
O45 Zn27 1.953 . S
O45 C39 1.298 . S
O46 Zn47 1.953 . S
O46 C62 1.225 1_545 S
Zn47 O46 1.953 . S
Zn47 O48 1.949 . S
Zn47 O54 1.919 . S
Zn47 O59 1.924 . S
O48 Zn47 1.949 . S
O48 Zn49 1.923 . S
O48 Zn50 1.950 1_545 S
O48 Zn51 1.945 . S
Zn49 O48 1.923 . S
Zn49 O52 1.933 . S
Zn49 O55 1.941 . S
Zn49 O56 1.965 1_545 S
Zn50 O48 1.950 1_565 S
Zn50 O57 1.938 . S
Zn50 O58 1.906 . S
Zn50 O68 1.953 . S
Zn51 O48 1.945 . S
Zn51 O53 1.932 . S
Zn51 O60 1.977 1_545 S
Zn51 O61 1.910 . S
O52 Zn49 1.933 . S
O52 C63 1.226 . S
O53 Zn51 1.932 . S
O53 C63 1.307 . S
O54 Zn47 1.919 . S
O54 C65 1.253 . S
O55 Zn49 1.941 . S
O55 C65 1.283 . S
O56 Zn49 1.965 1_565 S
O56 C64 1.303 . S
O57 Zn50 1.938 . S
O57 C64 1.247 . S
O58 Zn50 1.906 . S
O58 C66 1.304 . S
O59 Zn47 1.924 . S
O59 C67 1.311 . S
O60 Zn51 1.977 1_565 S
O60 C66 1.272 . S
O61 Zn51 1.910 . S
O61 C67 1.231 . S
C62 O46 1.225 1_565 S
C62 O68 1.298 . S
C63 O52 1.226 . S
C63 O53 1.307 . S
C64 O56 1.303 . S
C64 O57 1.247 . S
C65 O54 1.253 . S
C65 O55 1.283 . S
C66 O58 1.304 . S
C66 O60 1.272 . S
C67 O59 1.311 . S
C67 O61 1.231 . S
O68 Zn50 1.953 . S
O68 C62 1.298 . S
O69 Zn70 1.953 . S
O69 C85 1.225 . S
Zn70 O69 1.953 . S
Zn70 O71 1.949 . S
Zn70 O77 1.919 . S
Zn70 O82 1.924 . S
O71 Zn70 1.949 . S
O71 Zn72 1.923 . S
O71 Zn73 1.950 . S
O71 Zn74 1.945 1_455 S
Zn72 O71 1.923 . S
Zn72 O75 1.933 . S
Zn72 O78 1.941 . S
Zn72 O79 1.965 . S
Zn73 O71 1.950 . S
Zn73 O80 1.938 . S
Zn73 O81 1.906 1_455 S
Zn73 O91 1.953 . S
Zn74 O71 1.945 1_655 S
Zn74 O76 1.932 . S
Zn74 O83 1.977 . S
Zn74 O84 1.910 . S
O75 Zn72 1.933 . S
O75 C86 1.226 1_455 S
O76 Zn74 1.932 . S
O76 C86 1.307 . S
O77 Zn70 1.919 . S
O77 C88 1.253 . S
O78 Zn72 1.941 . S
O78 C88 1.283 . S
O79 Zn72 1.965 . S
O79 C87 1.303 . S
O80 Zn73 1.938 . S
O80 C87 1.247 . S
O81 Zn73 1.906 1_655 S
O81 C89 1.304 . S
O82 Zn70 1.924 . S
O82 C90 1.311 1_455 S
O83 Zn74 1.977 . S
O83 C89 1.272 . S
O84 Zn74 1.910 . S
O84 C90 1.231 . S
C85 O69 1.225 . S
C85 O91 1.298 . S
C86 O75 1.226 1_655 S
C86 O76 1.307 . S
C87 O79 1.303 . S
C87 O80 1.247 . S
C88 O77 1.253 . S
C88 O78 1.283 . S
C89 O81 1.304 . S
C89 O83 1.272 . S
C90 O82 1.311 1_655 S
C90 O84 1.231 . S
O91 Zn73 1.953 . S
O91 C85 1.298 . S
O92 Zn93 1.953 . S
O92 C108 1.225 . S
Zn93 O92 1.953 . S
Zn93 O94 1.949 . S
Zn93 O100 1.919 . S
Zn93 O105 1.924 . S
O94 Zn93 1.949 . S
O94 Zn95 1.923 . S
O94 Zn96 1.950 . S
O94 Zn97 1.945 . S
Zn95 O94 1.923 . S
Zn95 O98 1.933 . S
Zn95 O101 1.941 . S
Zn95 O102 1.965 . S
Zn96 O94 1.950 . S
Zn96 O103 1.938 . S
Zn96 O104 1.906 . S
Zn96 O114 1.953 . S
Zn97 O94 1.945 . S
Zn97 O99 1.932 . S
Zn97 O106 1.977 . S
Zn97 O107 1.910 . S
O98 Zn95 1.933 . S
O98 C109 1.226 . S
O99 Zn97 1.932 . S
O99 C109 1.307 . S
O100 Zn93 1.919 . S
O100 C111 1.253 . S
O101 Zn95 1.941 . S
O101 C111 1.283 . S
O102 Zn95 1.965 . S
O102 C110 1.303 . S
O103 Zn96 1.938 . S
O103 C110 1.247 . S
O104 Zn96 1.906 . S
O104 C112 1.304 . S
O105 Zn93 1.924 . S
O105 C113 1.311 . S
O106 Zn97 1.977 . S
O106 C112 1.272 . S
O107 Zn97 1.910 . S
O107 C113 1.231 . S
C108 O92 1.225 . S
C108 O114 1.298 . S
C109 O98 1.226 . S
C109 O99 1.307 . S
C110 O102 1.303 . S
C110 O103 1.247 . S
C111 O100 1.253 . S
C111 O101 1.283 . S
C112 O104 1.304 . S
C112 O106 1.272 . S
C113 O105 1.311 . S
C113 O107 1.231 . S
O114 Zn96 1.953 . S
O114 C108 1.298 . S
O115 Zn116 1.953 . S
O115 C131 1.225 . S
Zn116 O115 1.953 . S
Zn116 O117 1.949 1_565 S
Zn116 O123 1.919 . S
Zn116 O128 1.924 1_565 S
O117 Zn116 1.949 1_545 S
O117 Zn118 1.910 1_545 S
O117 Zn119 1.950 . S
O117 Zn120 1.945 . S
Zn118 O117 1.910 1_565 S
Zn118 O121 1.929 1_565 S
Zn118 O124 1.951 . S
Zn118 O125 1.976 . S
Zn119 O117 1.950 . S
Zn119 O126 1.938 1_545 S
Zn119 O127 1.906 . S
Zn119 O137 1.953 1_545 S
Zn120 O117 1.945 . S
Zn120 O122 1.932 . S
Zn120 O129 1.977 . S
Zn120 O130 1.910 . S
O121 Zn118 1.929 1_545 S
O121 C132 1.226 . S
O122 Zn120 1.932 . S
O122 C132 1.307 . S
O123 Zn116 1.919 . S
O123 C134 1.253 . S
O124 Zn118 1.951 . S
O124 C134 1.283 . S
O125 Zn118 1.976 . S
O125 C133 1.303 . S
O126 Zn119 1.938 1_565 S
O126 C133 1.247 . S
O127 Zn119 1.906 . S
O127 C135 1.304 . S
O128 Zn116 1.924 1_545 S
O128 C136 1.311 . S
O129 Zn120 1.977 . S
O129 C135 1.272 . S
O130 Zn120 1.910 . S
O130 C136 1.231 . S
C131 O115 1.225 . S
C131 O137 1.298 . S
C132 O121 1.226 . S
C132 O122 1.307 . S
C133 O125 1.303 . S
C133 O126 1.247 . S
C134 O123 1.253 . S
C134 O124 1.283 . S
C135 O127 1.304 . S
C135 O129 1.272 . S
C136 O128 1.311 . S
C136 O130 1.231 . S
O137 Zn119 1.953 1_565 S
O137 C131 1.298 . S
O138 Zn139 1.953 1_556 S
O138 C154 1.225 1_556 S
Zn139 O138 1.953 1_554 S
Zn139 O140 1.949 . S
Zn139 O146 1.919 1_554 S
Zn139 O151 1.924 . S
O140 Zn139 1.949 . S
O140 Zn141 1.923 . S
O140 Zn142 1.950 . S
O140 Zn143 1.945 . S
Zn141 O140 1.923 . S
Zn141 O144 1.933 . S
Zn141 O147 1.941 1_554 S
Zn141 O148 1.965 . S
Zn142 O140 1.950 . S
Zn142 O149 1.938 . S
Zn142 O150 1.906 . S
Zn142 O160 1.953 . S
Zn143 O140 1.945 . S
Zn143 O145 1.932 . S
Zn143 O152 1.977 . S
Zn143 O153 1.910 . S
O144 Zn141 1.933 . S
O144 C155 1.226 . S
O145 Zn143 1.932 . S
O145 C155 1.307 . S
O146 Zn139 1.919 1_556 S
O146 C157 1.253 . S
O147 Zn141 1.941 1_556 S
O147 C157 1.283 . S
O148 Zn141 1.965 . S
O148 C156 1.303 1_554 S
O149 Zn142 1.938 . S
O149 C156 1.247 1_554 S
O150 Zn142 1.906 . S
O150 C158 1.304 . S
O151 Zn139 1.924 . S
O151 C159 1.311 . S
O152 Zn143 1.977 . S
O152 C158 1.272 . S
O153 Zn143 1.910 . S
O153 C159 1.231 . S
C154 O138 1.225 1_554 S
C154 O160 1.298 . S
C155 O144 1.226 . S
C155 O145 1.307 . S
C156 O148 1.303 1_556 S
C156 O149 1.247 1_556 S
C157 O146 1.253 . S
C157 O147 1.283 . S
C158 O150 1.304 . S
C158 O152 1.272 . S
C159 O151 1.311 . S
C159 O153 1.231 . S
O160 Zn142 1.953 . S
O160 C154 1.298 . S
O161 Zn162 1.953 1_556 S
O161 C177 1.225 1_556 S
Zn162 O161 1.953 1_554 S
Zn162 O163 1.949 . S
Zn162 O169 1.919 1_554 S
Zn162 O174 1.924 . S
O163 Zn162 1.949 . S
O163 Zn164 1.923 . S
O163 Zn165 1.950 . S
O163 Zn166 1.945 . S
Zn164 O163 1.923 . S
Zn164 O167 1.933 . S
Zn164 O170 1.941 1_554 S
Zn164 O171 1.965 . S
Zn165 O163 1.950 . S
Zn165 O172 1.938 . S
Zn165 O173 1.906 . S
Zn165 O183 1.953 . S
Zn166 O163 1.945 . S
Zn166 O168 1.932 . S
Zn166 O175 1.977 . S
Zn166 O176 1.910 . S
O167 Zn164 1.933 . S
O167 C178 1.226 . S
O168 Zn166 1.932 . S
O168 C178 1.307 . S
O169 Zn162 1.919 1_556 S
O169 C180 1.253 . S
O170 Zn164 1.941 1_556 S
O170 C180 1.283 . S
O171 Zn164 1.965 . S
O171 C179 1.303 1_554 S
O172 Zn165 1.938 . S
O172 C179 1.247 1_554 S
O173 Zn165 1.906 . S
O173 C181 1.304 . S
O174 Zn162 1.924 . S
O174 C182 1.311 . S
O175 Zn166 1.977 . S
O175 C181 1.272 . S
O176 Zn166 1.910 . S
O176 C182 1.231 . S
C177 O161 1.225 1_554 S
C177 O183 1.298 . S
C178 O167 1.226 . S
C178 O168 1.307 . S
C179 O171 1.303 1_556 S
C179 O172 1.247 1_556 S
C180 O169 1.253 . S
C180 O170 1.283 . S
C181 O173 1.304 . S
C181 O175 1.272 . S
C182 O174 1.311 . S
C182 O176 1.231 . S
O183 Zn165 1.953 . S
O183 C177 1.298 . S
O184 Zn185 1.953 1_556 S
O184 C200 1.225 1_556 S
Zn185 O184 1.953 1_554 S
Zn185 O186 1.949 . S
Zn185 O192 1.919 1_554 S
Zn185 O197 1.924 . S
O186 Zn185 1.949 . S
O186 Zn187 1.923 . S
O186 Zn188 1.950 . S
O186 Zn189 1.945 . S
Zn187 O186 1.923 . S
Zn187 O190 1.933 . S
Zn187 O193 1.941 1_554 S
Zn187 O194 1.965 . S
Zn188 O186 1.950 . S
Zn188 O195 1.938 . S
Zn188 O196 1.906 . S
Zn188 O206 1.953 . S
Zn189 O186 1.945 . S
Zn189 O191 1.932 . S
Zn189 O198 1.977 . S
Zn189 O199 1.910 . S
O190 Zn187 1.933 . S
O190 C201 1.226 . S
O191 Zn189 1.932 . S
O191 C201 1.307 . S
O192 Zn185 1.919 1_556 S
O192 C203 1.253 . S
O193 Zn187 1.941 1_556 S
O193 C203 1.283 . S
O194 Zn187 1.965 . S
O194 C202 1.303 1_554 S
O195 Zn188 1.938 . S
O195 C202 1.247 1_554 S
O196 Zn188 1.906 . S
O196 C204 1.304 . S
O197 Zn185 1.924 . S
O197 C205 1.311 . S
O198 Zn189 1.977 . S
O198 C204 1.272 . S
O199 Zn189 1.910 . S
O199 C205 1.231 . S
C200 O184 1.225 1_554 S
C200 O206 1.298 . S
C201 O190 1.226 . S
C201 O191 1.307 . S
C202 O194 1.303 1_556 S
C202 O195 1.247 1_556 S
C203 O192 1.253 . S
C203 O193 1.283 . S
C204 O196 1.304 . S
C204 O198 1.272 . S
C205 O197 1.311 . S
C205 O199 1.231 . S
O206 Zn188 1.953 . S
O206 C200 1.298 . S
O207 Zn208 1.953 . S
O207 C223 1.225 . S
Zn208 O207 1.953 . S
Zn208 O209 1.949 . S
Zn208 O215 1.919 . S
Zn208 O220 1.924 . S
O209 Zn208 1.949 . S
O209 Zn210 1.923 . S
O209 Zn211 1.950 . S
O209 Zn212 1.945 . S
Zn210 O209 1.923 . S
Zn210 O213 1.933 . S
Zn210 O216 1.941 . S
Zn210 O217 1.965 . S
Zn211 O209 1.950 . S
Zn211 O218 1.938 . S
Zn211 O219 1.906 . S
Zn211 O229 1.953 . S
Zn212 O209 1.945 . S
Zn212 O214 1.932 . S
Zn212 O221 1.977 . S
Zn212 O222 1.910 . S
O213 Zn210 1.933 . S
O213 C224 1.226 . S
O214 Zn212 1.932 . S
O214 C224 1.307 . S
O215 Zn208 1.919 . S
O215 C226 1.253 . S
O216 Zn210 1.941 . S
O216 C226 1.283 . S
O217 Zn210 1.965 . S
O217 C225 1.303 . S
O218 Zn211 1.938 . S
O218 C225 1.247 . S
O219 Zn211 1.906 . S
O219 C227 1.304 . S
O220 Zn208 1.924 . S
O220 C228 1.311 . S
O221 Zn212 1.977 . S
O221 C227 1.272 . S
O222 Zn212 1.910 . S
O222 C228 1.231 . S
C223 O207 1.225 . S
C223 O229 1.298 . S
C224 O213 1.226 . S
C224 O214 1.307 . S
C225 O217 1.303 . S
C225 O218 1.247 . S
C226 O215 1.253 . S
C226 O216 1.283 . S
C227 O219 1.304 . S
C227 O221 1.272 . S
C228 O220 1.311 . S
C228 O222 1.231 . S
O229 Zn211 1.953 . S
O229 C223 1.298 . S
O230 Zn231 1.953 . S
O230 C246 1.225 . S
Zn231 O230 1.953 . S
Zn231 O232 1.949 . S
Zn231 O238 1.919 . S
Zn231 O243 1.924 . S
O232 Zn231 1.949 . S
O232 Zn233 1.923 . S
O232 Zn234 1.950 . S
O232 Zn235 1.945 . S
Zn233 O232 1.923 . S
Zn233 O236 1.933 . S
Zn233 O239 1.941 . S
Zn233 O240 1.965 . S
Zn234 O232 1.950 . S
Zn234 O241 1.938 . S
Zn234 O242 1.906 . S
Zn234 O252 1.953 . S
Zn235 O232 1.945 . S
Zn235 O237 1.932 . S
Zn235 O244 1.977 . S
Zn235 O245 1.910 . S
O236 Zn233 1.933 . S
O236 C247 1.226 . S
O237 Zn235 1.932 . S
O237 C247 1.307 . S
O238 Zn231 1.919 . S
O238 C249 1.253 . S
O239 Zn233 1.941 . S
O239 C249 1.283 . S
O240 Zn233 1.965 . S
O240 C248 1.303 . S
O241 Zn234 1.938 . S
O241 C248 1.247 . S
O242 Zn234 1.906 . S
O242 C250 1.304 . S
O243 Zn231 1.924 . S
O243 C251 1.311 . S
O244 Zn235 1.977 . S
O244 C250 1.272 . S
O245 Zn235 1.910 . S
O245 C251 1.231 . S
C246 O230 1.225 . S
C246 O252 1.298 . S
C247 O236 1.226 . S
C247 O237 1.307 . S
C248 O240 1.303 . S
C248 O241 1.247 . S
C249 O238 1.253 . S
C249 O239 1.283 . S
C250 O242 1.304 . S
C250 O244 1.272 . S
C251 O243 1.311 . S
C251 O245 1.231 . S
O252 Zn234 1.953 . S
O252 C246 1.298 . S
O253 Zn254 1.953 . S
O253 C269 1.225 . S
Zn254 O253 1.953 . S
Zn254 O255 1.949 . S
Zn254 O261 1.919 . S
Zn254 O266 1.924 . S
O255 Zn254 1.949 . S
O255 Zn256 1.923 . S
O255 Zn257 1.950 . S
O255 Zn258 1.945 . S
Zn256 O255 1.923 . S
Zn256 O259 1.933 . S
Zn256 O262 1.941 . S
Zn256 O263 1.965 . S
Zn257 O255 1.950 . S
Zn257 O264 1.938 . S
Zn257 O265 1.906 . S
Zn257 O275 1.953 . S
Zn258 O255 1.945 . S
Zn258 O260 1.932 . S
Zn258 O267 1.977 . S
Zn258 O268 1.910 . S
O259 Zn256 1.933 . S
O259 C270 1.226 . S
O260 Zn258 1.932 . S
O260 C270 1.307 . S
O261 Zn254 1.919 . S
O261 C272 1.253 . S
O262 Zn256 1.941 . S
O262 C272 1.283 . S
O263 Zn256 1.965 . S
O263 C271 1.303 . S
O264 Zn257 1.938 . S
O264 C271 1.247 . S
O265 Zn257 1.906 . S
O265 C273 1.304 . S
O266 Zn254 1.924 . S
O266 C274 1.311 . S
O267 Zn258 1.977 . S
O267 C273 1.272 . S
O268 Zn258 1.910 . S
O268 C274 1.231 . S
C269 O253 1.225 . S
C269 O275 1.298 . S
C270 O259 1.226 . S
C270 O260 1.307 . S
C271 O263 1.303 . S
C271 O264 1.247 . S
C272 O261 1.253 . S
C272 O262 1.283 . S
C273 O265 1.304 . S
C273 O267 1.272 . S
C274 O266 1.311 . S
C274 O268 1.231 . S
O275 Zn257 1.953 . S
O275 C269 1.298 . S
O276 Zn277 1.953 . S
O276 C292 1.225 . S
Zn277 O276 1.953 . S
Zn277 O278 1.949 . S
Zn277 O284 1.919 . S
Zn277 O289 1.924 . S
O278 Zn277 1.949 . S
O278 Zn279 1.923 . S
O278 Zn280 1.950 . S
O278 Zn281 1.945 . S
Zn279 O278 1.923 . S
Zn279 O282 1.933 . S
Zn279 O285 1.941 . S
Zn279 O286 1.965 . S
Zn280 O278 1.950 . S
Zn280 O287 1.938 . S
Zn280 O288 1.906 . S
Zn280 O298 1.953 . S
Zn281 O278 1.945 . S
Zn281 O283 1.932 . S
Zn281 O290 1.977 . S
Zn281 O291 1.910 . S
O282 Zn279 1.933 . S
O282 C293 1.226 . S
O283 Zn281 1.932 . S
O283 C293 1.307 . S
O284 Zn277 1.919 . S
O284 C295 1.253 . S
O285 Zn279 1.941 . S
O285 C295 1.283 . S
O286 Zn279 1.965 . S
O286 C294 1.303 . S
O287 Zn280 1.938 . S
O287 C294 1.247 . S
O288 Zn280 1.906 . S
O288 C296 1.304 . S
O289 Zn277 1.924 . S
O289 C297 1.311 . S
O290 Zn281 1.977 . S
O290 C296 1.272 . S
O291 Zn281 1.910 . S
O291 C297 1.231 . S
C292 O276 1.225 . S
C292 O298 1.298 . S
C293 O282 1.226 . S
C293 O283 1.307 . S
C294 O286 1.303 . S
C294 O287 1.247 . S
C295 O284 1.253 . S
C295 O285 1.283 . S
C296 O288 1.304 . S
C296 O290 1.272 . S
C297 O289 1.311 . S
C297 O291 1.231 . S
O298 Zn280 1.953 . S
O298 C292 1.298 . S
O299 Zn300 1.953 . S
O299 C315 1.225 . S
Zn300 O299 1.953 . S
Zn300 O301 1.949 . S
Zn300 O307 1.919 . S
Zn300 O312 1.924 . S
O301 Zn300 1.949 . S
O301 Zn302 1.923 . S
O301 Zn303 1.950 . S
O301 Zn304 1.945 . S
Zn302 O301 1.923 . S
Zn302 O305 1.933 . S
Zn302 O308 1.941 . S
Zn302 O309 1.965 . S
Zn303 O301 1.950 . S
Zn303 O310 1.938 . S
Zn303 O311 1.906 . S
Zn303 O321 1.953 . S
Zn304 O301 1.945 . S
Zn304 O306 1.932 . S
Zn304 O313 1.977 . S
Zn304 O314 1.910 . S
O305 Zn302 1.933 . S
O305 C316 1.226 . S
O306 Zn304 1.932 . S
O306 C316 1.307 . S
O307 Zn300 1.919 . S
O307 C318 1.253 . S
O308 Zn302 1.941 . S
O308 C318 1.283 . S
O309 Zn302 1.965 . S
O309 C317 1.303 . S
O310 Zn303 1.938 . S
O310 C317 1.247 . S
O311 Zn303 1.906 . S
O311 C319 1.304 . S
O312 Zn300 1.924 . S
O312 C320 1.311 . S
O313 Zn304 1.977 . S
O313 C319 1.272 . S
O314 Zn304 1.910 . S
O314 C320 1.231 . S
C315 O299 1.225 . S
C315 O321 1.298 . S
C316 O305 1.226 . S
C316 O306 1.307 . S
C317 O309 1.303 . S
C317 O310 1.247 . S
C318 O307 1.253 . S
C318 O308 1.283 . S
C319 O311 1.304 . S
C319 O313 1.272 . S
C320 O312 1.311 . S
C320 O314 1.231 . S
O321 Zn303 1.953 . S
O321 C315 1.298 . S
O322 Zn323 1.953 . S
O322 C338 1.225 . S
Zn323 O322 1.953 . S
Zn323 O324 1.949 . S
Zn323 O330 1.919 . S
Zn323 O335 1.924 . S
O324 Zn323 1.949 . S
O324 Zn325 1.923 . S
O324 Zn326 1.950 . S
O324 Zn327 1.945 . S
Zn325 O324 1.923 . S
Zn325 O328 1.933 . S
Zn325 O331 1.941 . S
Zn325 O332 1.965 . S
Zn326 O324 1.950 . S
Zn326 O333 1.938 . S
Zn326 O334 1.906 . S
Zn326 O344 1.953 . S
Zn327 O324 1.945 . S
Zn327 O329 1.932 . S
Zn327 O336 1.977 . S
Zn327 O337 1.910 . S
O328 Zn325 1.933 . S
O328 C339 1.226 . S
O329 Zn327 1.932 . S
O329 C339 1.307 . S
O330 Zn323 1.919 . S
O330 C341 1.253 . S
O331 Zn325 1.941 . S
O331 C341 1.283 . S
O332 Zn325 1.965 . S
O332 C340 1.303 . S
O333 Zn326 1.938 . S
O333 C340 1.247 . S
O334 Zn326 1.906 . S
O334 C342 1.304 . S
O335 Zn323 1.924 . S
O335 C343 1.311 . S
O336 Zn327 1.977 . S
O336 C342 1.272 . S
O337 Zn327 1.910 . S
O337 C343 1.231 . S
C338 O322 1.225 . S
C338 O344 1.298 . S
C339 O328 1.226 . S
C339 O329 1.307 . S
C340 O332 1.303 . S
C340 O333 1.247 . S
C341 O330 1.253 . S
C341 O331 1.283 . S
C342 O334 1.304 . S
C342 O336 1.272 . S
C343 O335 1.311 . S
C343 O337 1.231 . S
O344 Zn326 1.953 . S
O344 C338 1.298 . S
O345 Zn346 1.953 . S
O345 C361 1.225 . S
Zn346 O345 1.953 . S
Zn346 O347 1.949 . S
Zn346 O353 1.919 1_556 S
Zn346 O358 1.924 . S
O347 Zn346 1.949 . S
O347 Zn348 1.923 . S
O347 Zn349 1.950 . S
O347 Zn350 1.945 . S
Zn348 O347 1.923 . S
Zn348 O351 1.933 . S
Zn348 O354 1.941 . S
Zn348 O355 1.965 . S
Zn349 O347 1.950 . S
Zn349 O356 1.938 . S
Zn349 O357 1.906 . S
Zn349 O367 1.953 . S
Zn350 O347 1.945 . S
Zn350 O352 1.932 . S
Zn350 O359 1.977 . S
Zn350 O360 1.910 . S
O351 Zn348 1.933 . S
O351 C362 1.232 . S
O352 Zn350 1.932 . S
O352 C362 1.310 . S
O353 Zn346 1.919 1_554 S
O353 C364 1.253 . S
O354 Zn348 1.941 . S
O354 C364 1.283 1_556 S
O355 Zn348 1.965 . S
O355 C363 1.303 . S
O356 Zn349 1.938 . S
O356 C363 1.247 . S
O357 Zn349 1.906 . S
O357 C365 1.304 . S
O358 Zn346 1.924 . S
O358 C366 1.311 . S
O359 Zn350 1.977 . S
O359 C365 1.272 . S
O360 Zn350 1.910 . S
O360 C366 1.231 . S
C361 O345 1.225 . S
C361 O367 1.298 . S
C362 O351 1.232 . S
C362 O352 1.310 . S
C363 O355 1.303 . S
C363 O356 1.247 . S
C364 O353 1.253 . S
C364 O354 1.283 1_554 S
C365 O357 1.304 . S
C365 O359 1.272 . S
C366 O358 1.311 . S
C366 O360 1.231 . S
O367 Zn349 1.953 . S
O367 C361 1.298 . S
O368 Zn369 1.953 . S
O368 C384 1.225 . S
Zn369 O368 1.953 . S
Zn369 O370 1.949 . S
Zn369 O376 1.919 1_556 S
Zn369 O381 1.924 . S
O370 Zn369 1.949 . S
O370 Zn371 1.923 . S
O370 Zn372 1.950 . S
O370 Zn373 1.945 . S
Zn371 O370 1.923 . S
Zn371 O374 1.933 . S
Zn371 O377 1.941 . S
Zn371 O378 1.965 . S
Zn372 O370 1.950 . S
Zn372 O379 1.938 . S
Zn372 O380 1.906 . S
Zn372 O390 1.953 . S
Zn373 O370 1.945 . S
Zn373 O375 1.932 . S
Zn373 O382 1.977 . S
Zn373 O383 1.910 . S
O374 Zn371 1.933 . S
O374 C385 1.232 . S
O375 Zn373 1.932 . S
O375 C385 1.310 . S
O376 Zn369 1.919 1_554 S
O376 C387 1.253 . S
O377 Zn371 1.941 . S
O377 C387 1.283 1_556 S
O378 Zn371 1.965 . S
O378 C386 1.303 . S
O379 Zn372 1.938 . S
O379 C386 1.247 . S
O380 Zn372 1.906 . S
O380 C388 1.304 . S
O381 Zn369 1.924 . S
O381 C389 1.311 . S
O382 Zn373 1.977 . S
O382 C388 1.272 . S
O383 Zn373 1.910 . S
O383 C389 1.231 . S
C384 O368 1.225 . S
C384 O390 1.298 . S
C385 O374 1.232 . S
C385 O375 1.310 . S
C386 O378 1.303 . S
C386 O379 1.247 . S
C387 O376 1.253 . S
C387 O377 1.283 1_554 S
C388 O380 1.304 . S
C388 O382 1.272 . S
C389 O381 1.311 . S
C389 O383 1.231 . S
O390 Zn372 1.953 . S
O390 C384 1.298 . S
O391 Zn392 1.953 . S
O391 C407 1.225 . S
Zn392 O391 1.953 . S
Zn392 O393 1.949 . S
Zn392 O399 1.919 1_556 S
Zn392 O404 1.924 . S
O393 Zn392 1.949 . S
O393 Zn394 1.923 . S
O393 Zn395 1.950 . S
O393 Zn396 1.945 . S
Zn394 O393 1.923 . S
Zn394 O397 1.933 . S
Zn394 O400 1.941 . S
Zn394 O401 1.965 . S
Zn395 O393 1.950 . S
Zn395 O402 1.938 . S
Zn395 O403 1.906 . S
Zn395 O413 1.953 . S
Zn396 O393 1.945 . S
Zn396 O398 1.932 . S
Zn396 O405 1.977 . S
Zn396 O406 1.910 . S
O397 Zn394 1.933 . S
O397 C408 1.232 . S
O398 Zn396 1.932 . S
O398 C408 1.310 . S
O399 Zn392 1.919 1_554 S
O399 C410 1.253 . S
O400 Zn394 1.941 . S
O400 C410 1.283 1_556 S
O401 Zn394 1.965 . S
O401 C409 1.303 . S
O402 Zn395 1.938 . S
O402 C409 1.247 . S
O403 Zn395 1.906 . S
O403 C411 1.304 . S
O404 Zn392 1.924 . S
O404 C412 1.311 . S
O405 Zn396 1.977 . S
O405 C411 1.272 . S
O406 Zn396 1.910 . S
O406 C412 1.231 . S
C407 O391 1.225 . S
C407 O413 1.298 . S
C408 O397 1.232 . S
C408 O398 1.310 . S
C409 O401 1.303 . S
C409 O402 1.247 . S
C410 O399 1.253 . S
C410 O400 1.283 1_554 S
C411 O403 1.304 . S
C411 O405 1.272 . S
C412 O404 1.311 . S
C412 O406 1.231 . S
O413 Zn395 1.953 . S
O413 C407 1.298 . S
H414 C420 0.930 . S
H415 C424 0.930 . S
H416 C429 0.929 . S
H417 C427 0.929 . S
H418 C422 0.929 . S
H419 C428 0.929 . S
C420 H414 0.930 . S
C420 C421 1.367 . S
C420 C428 1.378 . S
C421 C420 1.367 . S
C421 C429 1.433 . S
C422 H418 0.929 . S
C422 C424 1.378 . S
C422 C426 1.350 . S
C423 C426 1.463 . S
C423 C428 1.350 . S
C423 N431 1.427 . S
C424 H415 0.930 . S
C424 C422 1.378 . S
C424 C425 1.367 . S
C425 C424 1.367 . S
C425 C427 1.433 . S
C426 C422 1.350 . S
C426 C423 1.463 . S
C426 N430 1.427 . S
C427 H417 0.929 . S
C427 C425 1.433 . S
C427 N430 1.384 . S
C428 H419 0.929 . S
C428 C420 1.378 . S
C428 C423 1.350 . S
C429 H416 0.929 . S
C429 C421 1.433 . S
C429 N431 1.384 . S
N430 C426 1.427 . S
N430 C427 1.384 . S
N431 C423 1.427 . S
N431 C429 1.384 . S
H432 C438 0.930 . S
H433 C442 0.930 . S
H434 C447 0.929 . S
H435 C445 0.929 . S
H436 C440 0.929 . S
H437 C446 0.929 . S
C438 H432 0.930 . S
C438 C439 1.367 . S
C438 C446 1.378 . S
C439 C438 1.367 . S
C439 C447 1.433 . S
C440 H436 0.929 . S
C440 C442 1.378 . S
C440 C444 1.350 . S
C441 C444 1.463 . S
C441 C446 1.350 . S
C441 N449 1.427 . S
C442 H433 0.930 . S
C442 C440 1.378 . S
C442 C443 1.367 . S
C443 C442 1.367 . S
C443 C445 1.433 . S
C444 C440 1.350 . S
C444 C441 1.463 . S
C444 N448 1.427 . S
C445 H435 0.929 . S
C445 C443 1.433 . S
C445 N448 1.384 . S
C446 H437 0.929 . S
C446 C438 1.378 . S
C446 C441 1.350 . S
C447 H434 0.929 . S
C447 C439 1.433 . S
C447 N449 1.384 . S
N448 C444 1.427 . S
N448 C445 1.384 . S
N449 C441 1.427 . S
N449 C447 1.384 . S
H450 C456 0.930 . S
H451 C460 0.930 . S
H452 C465 0.929 . S
H453 C463 0.929 . S
H454 C458 0.929 . S
H455 C464 0.929 . S
C456 H450 0.930 . S
C456 C457 1.367 . S
C456 C464 1.378 . S
C457 C456 1.367 . S
C457 C465 1.433 . S
C458 H454 0.929 . S
C458 C460 1.378 . S
C458 C462 1.350 . S
C459 C462 1.463 . S
C459 C464 1.350 . S
C459 N467 1.427 . S
C460 H451 0.930 . S
C460 C458 1.378 . S
C460 C461 1.367 . S
C461 C460 1.367 . S
C461 C463 1.433 . S
C462 C458 1.350 . S
C462 C459 1.463 . S
C462 N466 1.427 . S
C463 H453 0.929 . S
C463 C461 1.433 . S
C463 N466 1.384 . S
C464 H455 0.929 . S
C464 C456 1.378 . S
C464 C459 1.350 . S
C465 H452 0.929 . S
C465 C457 1.433 . S
C465 N467 1.384 . S
N466 C462 1.427 . S
N466 C463 1.384 . S
N467 C459 1.427 . S
N467 C465 1.384 . S
H468 C474 0.930 . S
H469 C478 0.930 . S
H470 C483 0.929 . S
H471 C481 0.929 . S
H472 C476 0.929 . S
H473 C482 0.929 . S
C474 H468 0.930 . S
C474 C475 1.367 . S
C474 C482 1.378 . S
C475 C474 1.367 . S
C475 C483 1.433 . S
C476 H472 0.929 . S
C476 C478 1.378 . S
C476 C480 1.350 . S
C477 C480 1.463 1_556 S
C477 C482 1.350 . S
C477 N485 1.427 . S
C478 H469 0.930 . S
C478 C476 1.378 . S
C478 C479 1.367 . S
C479 C478 1.367 . S
C479 C481 1.433 . S
C480 C476 1.350 . S
C480 C477 1.463 1_554 S
C480 N484 1.427 . S
C481 H471 0.929 . S
C481 C479 1.433 . S
C481 N484 1.384 . S
C482 H473 0.929 . S
C482 C474 1.378 . S
C482 C477 1.350 . S
C483 H470 0.929 . S
C483 C475 1.433 . S
C483 N485 1.384 . S
N484 C480 1.427 . S
N484 C481 1.384 . S
N485 C477 1.427 . S
N485 C483 1.384 . S
H486 C492 0.930 . S
H487 C496 0.930 . S
H488 C501 0.929 . S
H489 C499 0.929 . S
H490 C494 0.929 . S
H491 C500 0.929 . S
C492 H486 0.930 . S
C492 C493 1.367 . S
C492 C500 1.378 . S
C493 C492 1.367 . S
C493 C501 1.433 . S
C494 H490 0.929 . S
C494 C496 1.378 . S
C494 C498 1.350 . S
C495 C498 1.463 1_554 S
C495 C500 1.350 . S
C495 N503 1.427 . S
C496 H487 0.930 . S
C496 C494 1.378 . S
C496 C497 1.367 . S
C497 C496 1.367 . S
C497 C499 1.433 . S
C498 C494 1.350 . S
C498 C495 1.463 1_556 S
C498 N502 1.427 . S
C499 H489 0.929 . S
C499 C497 1.433 . S
C499 N502 1.384 . S
C500 H491 0.929 . S
C500 C492 1.378 . S
C500 C495 1.350 . S
C501 H488 0.929 . S
C501 C493 1.433 . S
C501 N503 1.384 . S
N502 C498 1.427 . S
N502 C499 1.384 . S
N503 C495 1.427 . S
N503 C501 1.384 . S
H504 C510 0.930 . S
H505 C514 0.930 . S
H506 C519 0.929 . S
H507 C517 0.929 . S
H508 C512 0.929 . S
H509 C518 0.929 1_554 S
C510 H504 0.930 . S
C510 C511 1.367 . S
C510 C518 1.378 . S
C511 C510 1.367 . S
C511 C519 1.433 . S
C512 H508 0.929 . S
C512 C514 1.378 1_556 S
C512 C516 1.350 1_556 S
C513 C516 1.463 1_556 S
C513 C518 1.350 . S
C513 N521 1.427 . S
C514 H505 0.930 . S
C514 C512 1.378 1_554 S
C514 C515 1.367 . S
C515 C514 1.367 . S
C515 C517 1.433 . S
C516 C512 1.350 1_554 S
C516 C513 1.463 1_554 S
C516 N520 1.427 . S
C517 H507 0.929 . S
C517 C515 1.433 . S
C517 N520 1.384 . S
C518 H509 0.929 1_556 S
C518 C510 1.378 . S
C518 C513 1.350 . S
C519 H506 0.929 . S
C519 C511 1.433 . S
C519 N521 1.384 . S
N520 C516 1.427 . S
N520 C517 1.384 . S
N521 C513 1.427 . S
N521 C519 1.384 . S
H522 C528 0.930 . S
H523 C532 0.930 . S
H524 C537 0.929 . S
H525 C535 0.929 . S
H526 C530 0.929 . S
H527 C536 0.929 . S
C528 H522 0.930 . S
C528 C529 1.367 . S
C528 C536 1.378 . S
C529 C528 1.367 . S
C529 C537 1.433 . S
C530 H526 0.929 . S
C530 C532 1.378 . S
C530 C534 1.350 . S
C531 C534 1.463 . S
C531 C536 1.350 . S
C531 N539 1.427 . S
C532 H523 0.930 . S
C532 C530 1.378 . S
C532 C533 1.367 . S
C533 C532 1.367 . S
C533 C535 1.433 . S
C534 C530 1.350 . S
C534 C531 1.463 . S
C534 N538 1.427 . S
C535 H525 0.929 . S
C535 C533 1.433 . S
C535 N538 1.384 . S
C536 H527 0.929 . S
C536 C528 1.378 . S
C536 C531 1.350 . S
C537 H524 0.929 . S
C537 C529 1.433 . S
C537 N539 1.384 . S
N538 C534 1.427 . S
N538 C535 1.384 . S
N539 C531 1.427 . S
N539 C537 1.384 . S
H540 C546 0.930 . S
H541 C550 0.930 . S
H542 C555 0.929 . S
H543 C553 0.929 . S
H544 C548 0.929 . S
H545 C554 0.929 . S
C546 H540 0.930 . S
C546 C547 1.367 . S
C546 C554 1.378 . S
C547 C546 1.367 . S
C547 C555 1.433 . S
C548 H544 0.929 . S
C548 C550 1.378 . S
C548 C552 1.350 . S
C549 C552 1.463 . S
C549 C554 1.350 . S
C549 N557 1.427 . S
C550 H541 0.930 . S
C550 C548 1.378 . S
C550 C551 1.367 . S
C551 C550 1.367 . S
C551 C553 1.433 . S
C552 C548 1.350 . S
C552 C549 1.463 . S
C552 N556 1.427 . S
C553 H543 0.929 . S
C553 C551 1.433 . S
C553 N556 1.384 . S
C554 H545 0.929 . S
C554 C546 1.378 . S
C554 C549 1.350 . S
C555 H542 0.929 . S
C555 C547 1.433 . S
C555 N557 1.384 . S
N556 C552 1.427 . S
N556 C553 1.384 . S
N557 C549 1.427 . S
N557 C555 1.384 . S
H558 C564 0.930 . S
H559 C568 0.930 . S
H560 C573 0.929 . S
H561 C571 0.929 . S
H562 C566 0.929 . S
H563 C572 0.929 . S
C564 H558 0.930 . S
C564 C565 1.367 . S
C564 C572 1.378 . S
C565 C564 1.367 . S
C565 C573 1.433 . S
C566 H562 0.929 . S
C566 C568 1.378 . S
C566 C570 1.350 . S
C567 C570 1.463 . S
C567 C572 1.350 . S
C567 N575 1.427 . S
C568 H559 0.930 . S
C568 C566 1.378 . S
C568 C569 1.367 . S
C569 C568 1.367 . S
C569 C571 1.433 . S
C570 C566 1.350 . S
C570 C567 1.463 . S
C570 N574 1.427 . S
C571 H561 0.929 . S
C571 C569 1.433 . S
C571 N574 1.384 . S
C572 H563 0.929 . S
C572 C564 1.378 . S
C572 C567 1.350 . S
C573 H560 0.929 . S
C573 C565 1.433 . S
C573 N575 1.384 . S
N574 C570 1.427 . S
N574 C571 1.384 . S
N575 C567 1.427 . S
N575 C573 1.384 . S
H576 C582 0.930 . S
H577 C586 0.930 . S
H578 C591 0.929 . S
H579 C589 0.929 1_554 S
H580 C584 0.929 . S
H581 C590 0.929 . S
C582 H576 0.930 . S
C582 C583 1.367 . S
C582 C590 1.378 . S
C583 C582 1.367 . S
C583 C591 1.433 . S
C584 H580 0.929 . S
C584 C586 1.378 . S
C584 C588 1.345 1_556 S
C585 C588 1.466 . S
C585 C590 1.350 . S
C585 N593 1.427 . S
C586 H577 0.930 . S
C586 C584 1.378 . S
C586 C587 1.367 . S
C587 C586 1.367 . S
C587 C589 1.433 . S
C588 C584 1.345 1_554 S
C588 C585 1.466 . S
C588 N592 1.429 . S
C589 H579 0.929 1_556 S
C589 C587 1.433 . S
C589 N592 1.384 1_556 S
C590 H581 0.929 . S
C590 C582 1.378 . S
C590 C585 1.350 . S
C591 H578 0.929 . S
C591 C583 1.433 . S
C591 N593 1.384 . S
N592 C588 1.429 . S
N592 C589 1.384 1_554 S
N593 C585 1.427 . S
N593 C591 1.384 . S
H594 C600 0.930 . S
H595 C604 0.930 . S
H596 C609 0.929 . S
H597 C607 0.929 . S
H598 C602 0.929 . S
H599 C608 0.929 . S
C600 H594 0.930 . S
C600 C601 1.367 . S
C600 C608 1.378 . S
C601 C600 1.367 . S
C601 C609 1.433 . S
C602 H598 0.929 . S
C602 C604 1.378 . S
C602 C606 1.350 . S
C603 C606 1.470 . S
C603 C608 1.341 1_554 S
C603 N611 1.430 . S
C604 H595 0.930 . S
C604 C602 1.378 . S
C604 C605 1.367 . S
C605 C604 1.367 . S
C605 C607 1.433 . S
C606 C602 1.350 . S
C606 C603 1.470 . S
C606 N610 1.427 . S
C607 H597 0.929 . S
C607 C605 1.433 . S
C607 N610 1.384 . S
C608 H599 0.929 . S
C608 C600 1.378 . S
C608 C603 1.341 1_556 S
C609 H596 0.929 . S
C609 C601 1.433 . S
C609 N611 1.384 1_556 S
N610 C606 1.427 . S
N610 C607 1.384 . S
N611 C603 1.430 . S
N611 C609 1.384 1_554 S
H612 C618 0.930 . S
H613 C622 0.930 . S
H614 C627 0.929 . S
H615 C625 0.929 . S
H616 C620 0.929 . S
H617 C626 0.929 . S
C618 H612 0.930 . S
C618 C619 1.367 . S
C618 C626 1.378 . S
C619 C618 1.367 . S
C619 C627 1.433 . S
C620 H616 0.929 . S
C620 C622 1.378 . S
C620 C624 1.350 . S
C621 C624 1.463 . S
C621 C626 1.350 1_554 S
C621 N629 1.427 . S
C622 H613 0.930 . S
C622 C620 1.378 . S
C622 C623 1.367 . S
C623 C622 1.367 . S
C623 C625 1.433 . S
C624 C620 1.350 . S
C624 C621 1.463 . S
C624 N628 1.427 . S
C625 H615 0.929 . S
C625 C623 1.433 . S
C625 N628 1.384 . S
C626 H617 0.929 . S
C626 C618 1.378 . S
C626 C621 1.350 1_556 S
C627 H614 0.929 . S
C627 C619 1.433 . S
C627 N629 1.384 1_556 S
N628 C624 1.427 . S
N628 C625 1.384 . S
N629 C621 1.427 . S
N629 C627 1.384 1_554 S
H630 C636 0.930 . S
H631 C640 0.930 1_554 S
H632 C645 0.929 . S
H633 C643 0.929 . S
H634 C638 0.929 . S
H635 C644 0.929 . S
C636 H630 0.930 . S
C636 C637 1.367 . S
C636 C644 1.378 . S
C637 C636 1.367 . S
C637 C645 1.433 . S
C638 H634 0.929 . S
C638 C640 1.378 . S
C638 C642 1.350 . S
C639 C642 1.463 . S
C639 C644 1.350 . S
C639 N647 1.427 . S
C640 H631 0.930 1_556 S
C640 C638 1.378 . S
C640 C641 1.367 . S
C641 C640 1.367 . S
C641 C643 1.433 . S
C642 C638 1.350 . S
C642 C639 1.463 . S
C642 N646 1.427 . S
C643 H633 0.929 . S
C643 C641 1.433 . S
C643 N646 1.384 . S
C644 H635 0.929 . S
C644 C636 1.378 . S
C644 C639 1.350 . S
C645 H632 0.929 . S
C645 C637 1.433 . S
C645 N647 1.384 . S
N646 C642 1.427 . S
N646 C643 1.384 . S
N647 C639 1.427 . S
N647 C645 1.384 . S
H648 C654 0.930 . S
H649 C658 0.930 . S
H650 C663 0.929 1_554 S
H651 C661 0.929 . S
H652 C656 0.929 . S
H653 C662 0.929 . S
C654 H648 0.930 . S
C654 C655 1.367 . S
C654 C662 1.378 . S
C655 C654 1.367 . S
C655 C663 1.433 . S
C656 H652 0.929 . S
C656 C658 1.378 . S
C656 C660 1.350 . S
C657 C660 1.463 . S
C657 C662 1.350 . S
C657 N665 1.427 . S
C658 H649 0.930 . S
C658 C656 1.378 . S
C658 C659 1.367 . S
C659 C658 1.367 . S
C659 C661 1.433 . S
C660 C656 1.350 . S
C660 C657 1.463 . S
C660 N664 1.427 . S
C661 H651 0.929 . S
C661 C659 1.433 . S
C661 N664 1.384 . S
C662 H653 0.929 . S
C662 C654 1.378 . S
C662 C657 1.350 . S
C663 H650 0.929 1_556 S
C663 C655 1.433 . S
C663 N665 1.384 . S
N664 C660 1.427 . S
N664 C661 1.384 . S
N665 C657 1.427 . S
N665 C663 1.384 . S
H666 C672 0.930 1_554 S
H667 C676 0.930 . S
H668 C681 0.929 . S
H669 C679 0.929 . S
H670 C674 0.929 . S
H671 C680 0.929 . S
C672 H666 0.930 1_556 S
C672 C673 1.367 . S
C672 C680 1.378 . S
C673 C672 1.367 . S
C673 C681 1.433 . S
C674 H670 0.929 . S
C674 C676 1.378 . S
C674 C678 1.350 . S
C675 C678 1.463 . S
C675 C680 1.350 . S
C675 N683 1.427 . S
C676 H667 0.930 . S
C676 C674 1.378 . S
C676 C677 1.367 . S
C677 C676 1.367 . S
C677 C679 1.433 . S
C678 C674 1.350 . S
C678 C675 1.463 . S
C678 N682 1.427 . S
C679 H669 0.929 . S
C679 C677 1.433 . S
C679 N682 1.384 . S
C680 H671 0.929 . S
C680 C672 1.378 . S
C680 C675 1.350 . S
C681 H668 0.929 . S
C681 C673 1.433 . S
C681 N683 1.384 . S
N682 C678 1.427 . S
N682 C679 1.384 . S
N683 C675 1.427 . S
N683 C681 1.384 . S
H684 C690 0.930 . S
H685 C694 0.930 . S
H686 C699 0.929 . S
H687 C697 0.929 . S
H688 C692 0.929 . S
H689 C698 0.929 . S
C690 H684 0.930 . S
C690 C691 1.367 . S
C690 C698 1.378 . S
C691 C690 1.367 . S
C691 C699 1.433 . S
C692 H688 0.929 . S
C692 C694 1.378 . S
C692 C696 1.350 . S
C693 C696 1.463 . S
C693 C698 1.350 . S
C693 N701 1.427 . S
C694 H685 0.930 . S
C694 C692 1.378 . S
C694 C695 1.367 . S
C695 C694 1.367 . S
C695 C697 1.433 . S
C696 C692 1.350 . S
C696 C693 1.463 . S
C696 N700 1.427 . S
C697 H687 0.929 . S
C697 C695 1.433 . S
C697 N700 1.384 . S
C698 H689 0.929 . S
C698 C690 1.378 . S
C698 C693 1.350 . S
C699 H686 0.929 . S
C699 C691 1.433 . S
C699 N701 1.384 . S
N700 C696 1.427 . S
N700 C697 1.384 . S
N701 C693 1.427 . S
N701 C699 1.384 . S
H702 C708 0.930 . S
H703 C712 0.930 . S
H704 C717 0.929 . S
H705 C715 0.929 . S
H706 C710 0.929 . S
H707 C716 0.929 . S
C708 H702 0.930 . S
C708 C709 1.367 . S
C708 C716 1.378 . S
C709 C708 1.367 . S
C709 C717 1.433 . S
C710 H706 0.929 . S
C710 C712 1.378 . S
C710 C714 1.350 . S
C711 C714 1.463 . S
C711 C716 1.350 . S
C711 N719 1.427 . S
C712 H703 0.930 . S
C712 C710 1.378 . S
C712 C713 1.367 . S
C713 C712 1.367 . S
C713 C715 1.433 . S
C714 C710 1.350 . S
C714 C711 1.463 . S
C714 N718 1.427 . S
C715 H705 0.929 . S
C715 C713 1.433 . S
C715 N718 1.384 . S
C716 H707 0.929 . S
C716 C708 1.378 . S
C716 C711 1.350 . S
C717 H704 0.929 . S
C717 C709 1.433 . S
C717 N719 1.384 . S
N718 C714 1.427 . S
N718 C715 1.384 . S
N719 C711 1.427 . S
N719 C717 1.384 . S
H720 C726 0.930 . S
H721 C730 0.930 . S
H722 C735 0.929 . S
H723 C733 0.929 . S
H724 C728 0.929 . S
H725 C734 0.929 . S
C726 H720 0.930 . S
C726 C727 1.367 . S
C726 C734 1.378 . S
C727 C726 1.367 . S
C727 C735 1.433 . S
C728 H724 0.929 . S
C728 C730 1.378 . S
C728 C732 1.350 . S
C729 C732 1.463 . S
C729 C734 1.350 . S
C729 N737 1.427 . S
C730 H721 0.930 . S
C730 C728 1.378 . S
C730 C731 1.367 . S
C731 C730 1.367 . S
C731 C733 1.433 . S
C732 C728 1.350 . S
C732 C729 1.463 . S
C732 N736 1.427 . S
C733 H723 0.929 . S
C733 C731 1.433 . S
C733 N736 1.384 . S
C734 H725 0.929 . S
C734 C726 1.378 . S
C734 C729 1.350 . S
C735 H722 0.929 . S
C735 C727 1.433 . S
C735 N737 1.384 . S
N736 C732 1.427 . S
N736 C733 1.384 . S
N737 C729 1.427 . S
N737 C735 1.384 . S
H738 C744 0.930 . S
H739 C748 0.930 . S
H740 C753 0.929 . S
H741 C751 0.929 . S
H742 C746 0.929 . S
H743 C752 0.929 . S
C744 H738 0.930 . S
C744 C745 1.367 . S
C744 C752 1.378 . S
C745 C744 1.367 . S
C745 C753 1.433 . S
C746 H742 0.929 . S
C746 C748 1.378 . S
C746 C750 1.350 . S
C747 C750 1.463 . S
C747 C752 1.350 . S
C747 N755 1.427 . S
C748 H739 0.930 . S
C748 C746 1.378 . S
C748 C749 1.367 . S
C749 C748 1.367 . S
C749 C751 1.433 . S
C750 C746 1.350 . S
C750 C747 1.463 . S
C750 N754 1.427 . S
C751 H741 0.929 . S
C751 C749 1.433 . S
C751 N754 1.384 . S
C752 H743 0.929 . S
C752 C744 1.378 . S
C752 C747 1.350 . S
C753 H740 0.929 . S
C753 C745 1.433 . S
C753 N755 1.384 . S
N754 C750 1.427 . S
N754 C751 1.384 . S
N755 C747 1.427 . S
N755 C753 1.384 . S
H756 C762 0.930 . S
H757 C766 0.930 . S
H758 C771 0.929 . S
H759 C769 0.929 . S
H760 C764 0.929 . S
H761 C770 0.929 . S
C762 H756 0.930 . S
C762 C763 1.367 . S
C762 C770 1.378 . S
C763 C762 1.367 . S
C763 C771 1.433 . S
C764 H760 0.929 . S
C764 C766 1.378 . S
C764 C768 1.350 . S
C765 C768 1.463 . S
C765 C770 1.350 . S
C765 N773 1.427 . S
C766 H757 0.930 . S
C766 C764 1.378 . S
C766 C767 1.367 . S
C767 C766 1.367 . S
C767 C769 1.433 . S
C768 C764 1.350 . S
C768 C765 1.463 . S
C768 N772 1.427 . S
C769 H759 0.929 . S
C769 C767 1.433 . S
C769 N772 1.384 . S
C770 H761 0.929 . S
C770 C762 1.378 . S
C770 C765 1.350 . S
C771 H758 0.929 . S
C771 C763 1.433 . S
C771 N773 1.384 . S
N772 C768 1.427 . S
N772 C769 1.384 . S
N773 C765 1.427 . S
N773 C771 1.384 . S
H774 C780 0.930 . S
H775 C784 0.930 . S
H776 C789 0.929 . S
H777 C787 0.929 . S
H778 C782 0.929 . S
H779 C788 0.929 . S
C780 H774 0.930 . S
C780 C781 1.367 . S
C780 C788 1.378 . S
C781 C780 1.367 . S
C781 C789 1.433 . S
C782 H778 0.929 . S
C782 C784 1.378 . S
C782 C786 1.350 . S
C783 C786 1.463 . S
C783 C788 1.350 . S
C783 N791 1.427 . S
C784 H775 0.930 . S
C784 C782 1.378 . S
C784 C785 1.367 . S
C785 C784 1.367 . S
C785 C787 1.433 . S
C786 C782 1.350 . S
C786 C783 1.463 . S
C786 N790 1.427 . S
C787 H777 0.929 . S
C787 C785 1.433 . S
C787 N790 1.384 . S
C788 H779 0.929 . S
C788 C780 1.378 . S
C788 C783 1.350 . S
C789 H776 0.929 . S
C789 C781 1.433 . S
C789 N791 1.384 . S
N790 C786 1.427 . S
N790 C787 1.384 . S
N791 C783 1.427 . S
N791 C789 1.384 . S
H792 C798 0.930 . S
H793 C802 0.930 . S
H794 C807 0.929 . S
H795 C805 0.929 . S
H796 C800 0.929 . S
H797 C806 0.929 . S
C798 H792 0.930 . S
C798 C799 1.367 . S
C798 C806 1.378 . S
C799 C798 1.367 . S
C799 C807 1.433 . S
C800 H796 0.929 . S
C800 C802 1.378 . S
C800 C804 1.350 . S
C801 C804 1.463 . S
C801 C806 1.350 . S
C801 N809 1.427 . S
C802 H793 0.930 . S
C802 C800 1.378 . S
C802 C803 1.367 . S
C803 C802 1.367 . S
C803 C805 1.433 . S
C804 C800 1.350 . S
C804 C801 1.463 . S
C804 N808 1.427 . S
C805 H795 0.929 . S
C805 C803 1.433 . S
C805 N808 1.384 . S
C806 H797 0.929 . S
C806 C798 1.378 . S
C806 C801 1.350 . S
C807 H794 0.929 . S
C807 C799 1.433 . S
C807 N809 1.384 . S
N808 C804 1.427 . S
N808 C805 1.384 . S
N809 C801 1.427 . S
N809 C807 1.384 . S
H810 C816 0.930 . S
H811 C820 0.930 . S
H812 C825 0.929 . S
H813 C823 0.929 . S
H814 C818 0.929 . S
H815 C824 0.929 . S
C816 H810 0.930 . S
C816 C817 1.367 . S
C816 C824 1.378 . S
C817 C816 1.367 . S
C817 C825 1.433 . S
C818 H814 0.929 . S
C818 C820 1.378 . S
C818 C822 1.350 . S
C819 C822 1.463 . S
C819 C824 1.350 . S
C819 N827 1.427 . S
C820 H811 0.930 . S
C820 C818 1.378 . S
C820 C821 1.367 . S
C821 C820 1.367 . S
C821 C823 1.433 . S
C822 C818 1.350 . S
C822 C819 1.463 . S
C822 N826 1.427 . S
C823 H813 0.929 . S
C823 C821 1.433 . S
C823 N826 1.384 . S
C824 H815 0.929 . S
C824 C816 1.378 . S
C824 C819 1.350 . S
C825 H812 0.929 . S
C825 C817 1.433 . S
C825 N827 1.384 . S
N826 C822 1.427 . S
N826 C823 1.384 . S
N827 C819 1.427 . S
N827 C825 1.384 . S
H828 C834 0.930 . S
H829 C838 0.930 . S
H830 C843 0.929 . S
H831 C841 0.929 . S
H832 C836 0.929 . S
H833 C842 0.929 . S
C834 H828 0.930 . S
C834 C835 1.367 . S
C834 C842 1.378 . S
C835 C834 1.367 . S
C835 C843 1.433 . S
C836 H832 0.929 . S
C836 C838 1.378 . S
C836 C840 1.350 . S
C837 C840 1.463 . S
C837 C842 1.350 . S
C837 N845 1.427 . S
C838 H829 0.930 . S
C838 C836 1.378 . S
C838 C839 1.367 . S
C839 C838 1.367 . S
C839 C841 1.433 . S
C840 C836 1.350 . S
C840 C837 1.463 . S
C840 N844 1.427 . S
C841 H831 0.929 . S
C841 C839 1.433 . S
C841 N844 1.384 . S
C842 H833 0.929 . S
C842 C834 1.378 . S
C842 C837 1.350 . S
C843 H830 0.929 . S
C843 C835 1.433 . S
C843 N845 1.384 . S
N844 C840 1.427 . S
N844 C841 1.384 . S
N845 C837 1.427 . S
N845 C843 1.384 . S
H846 C852 0.930 . S
H847 C856 0.930 . S
H848 C861 0.929 . S
H849 C859 0.929 . S
H850 C854 0.929 . S
H851 C860 0.929 . S
C852 H846 0.930 . S
C852 C853 1.367 . S
C852 C860 1.378 . S
C853 C852 1.367 . S
C853 C861 1.433 . S
C854 H850 0.929 . S
C854 C856 1.378 . S
C854 C858 1.350 . S
C855 C858 1.463 . S
C855 C860 1.350 . S
C855 N863 1.427 . S
C856 H847 0.930 . S
C856 C854 1.378 . S
C856 C857 1.367 . S
C857 C856 1.367 . S
C857 C859 1.433 . S
C858 C854 1.350 . S
C858 C855 1.463 . S
C858 N862 1.427 . S
C859 H849 0.929 . S
C859 C857 1.433 . S
C859 N862 1.384 . S
C860 H851 0.929 . S
C860 C852 1.378 . S
C860 C855 1.350 . S
C861 H848 0.929 . S
C861 C853 1.433 . S
C861 N863 1.384 . S
N862 C858 1.427 . S
N862 C859 1.384 . S
N863 C855 1.427 . S
N863 C861 1.384 . S
H864 C870 0.930 . S
H865 C874 0.930 . S
H866 C879 0.929 . S
H867 C877 0.929 . S
H868 C872 0.929 . S
H869 C878 0.929 . S
C870 H864 0.930 . S
C870 C871 1.367 . S
C870 C878 1.378 . S
C871 C870 1.367 . S
C871 C879 1.433 . S
C872 H868 0.929 . S
C872 C874 1.378 . S
C872 C876 1.350 . S
C873 C876 1.463 . S
C873 C878 1.350 . S
C873 N881 1.427 . S
C874 H865 0.930 . S
C874 C872 1.378 . S
C874 C875 1.367 . S
C875 C874 1.367 . S
C875 C877 1.433 . S
C876 C872 1.350 . S
C876 C873 1.463 . S
C876 N880 1.427 . S
C877 H867 0.929 . S
C877 C875 1.433 . S
C877 N880 1.384 . S
C878 H869 0.929 . S
C878 C870 1.378 . S
C878 C873 1.350 . S
C879 H866 0.929 . S
C879 C871 1.433 . S
C879 N881 1.384 . S
N880 C876 1.427 . S
N880 C877 1.384 . S
N881 C873 1.427 . S
N881 C879 1.384 . S
H882 C888 0.930 . S
H883 C892 0.930 . S
H884 C897 0.929 . S
H885 C895 0.929 . S
H886 C890 0.929 . S
H887 C896 0.929 . S
C888 H882 0.930 . S
C888 C889 1.367 . S
C888 C896 1.378 . S
C889 C888 1.367 . S
C889 C897 1.433 . S
C890 H886 0.929 . S
C890 C892 1.378 . S
C890 C894 1.350 . S
C891 C894 1.463 . S
C891 C896 1.350 . S
C891 N899 1.427 . S
C892 H883 0.930 . S
C892 C890 1.378 . S
C892 C893 1.367 . S
C893 C892 1.367 . S
C893 C895 1.433 . S
C894 C890 1.350 . S
C894 C891 1.463 . S
C894 N898 1.427 . S
C895 H885 0.929 . S
C895 C893 1.433 . S
C895 N898 1.384 . S
C896 H887 0.929 . S
C896 C888 1.378 . S
C896 C891 1.350 . S
C897 H884 0.929 . S
C897 C889 1.433 . S
C897 N899 1.384 . S
N898 C894 1.427 . S
N898 C895 1.384 . S
N899 C891 1.427 . S
N899 C897 1.384 . S
H900 C906 0.930 . S
H901 C910 0.930 . S
H902 C915 0.929 . S
H903 C913 0.929 . S
H904 C908 0.929 . S
H905 C914 0.929 . S
C906 H900 0.930 . S
C906 C907 1.367 . S
C906 C914 1.378 . S
C907 C906 1.367 . S
C907 C915 1.433 . S
C908 H904 0.929 . S
C908 C910 1.378 . S
C908 C912 1.350 . S
C909 C912 1.463 . S
C909 C914 1.350 . S
C909 N917 1.427 . S
C910 H901 0.930 . S
C910 C908 1.378 . S
C910 C911 1.367 . S
C911 C910 1.367 . S
C911 C913 1.433 . S
C912 C908 1.350 . S
C912 C909 1.463 . S
C912 N916 1.427 . S
C913 H903 0.929 . S
C913 C911 1.433 . S
C913 N916 1.384 . S
C914 H905 0.929 . S
C914 C906 1.378 . S
C914 C909 1.350 . S
C915 H902 0.929 . S
C915 C907 1.433 . S
C915 N917 1.384 . S
N916 C912 1.427 . S
N916 C913 1.384 . S
N917 C909 1.427 . S
N917 C915 1.384 . S
H918 C924 0.930 . S
H919 C928 0.930 . S
H920 C933 0.929 . S
H921 C931 0.929 . S
H922 C926 0.929 . S
H923 C932 0.929 . S
C924 H918 0.930 . S
C924 C925 1.367 . S
C924 C932 1.378 . S
C925 C924 1.367 . S
C925 C933 1.433 . S
C926 H922 0.929 . S
C926 C928 1.378 . S
C926 C930 1.350 . S
C927 C930 1.463 . S
C927 C932 1.350 . S
C927 N935 1.427 . S
C928 H919 0.930 . S
C928 C926 1.378 . S
C928 C929 1.367 . S
C929 C928 1.367 . S
C929 C931 1.433 . S
C930 C926 1.350 . S
C930 C927 1.463 . S
C930 N934 1.427 . S
C931 H921 0.929 . S
C931 C929 1.433 . S
C931 N934 1.384 . S
C932 H923 0.929 . S
C932 C924 1.378 . S
C932 C927 1.350 . S
C933 H920 0.929 . S
C933 C925 1.433 . S
C933 N935 1.384 . S
N934 C930 1.427 . S
N934 C931 1.384 . S
N935 C927 1.427 . S
N935 C933 1.384 . S
H936 C942 0.930 . S
H937 C946 0.930 . S
H938 C951 0.929 . S
H939 C949 0.929 . S
H940 C944 0.929 . S
H941 C950 0.929 . S
C942 H936 0.930 . S
C942 C943 1.367 . S
C942 C950 1.378 . S
C943 C942 1.367 . S
C943 C951 1.433 . S
C944 H940 0.929 . S
C944 C946 1.378 . S
C944 C948 1.350 . S
C945 C948 1.463 . S
C945 C950 1.350 . S
C945 N953 1.427 . S
C946 H937 0.930 . S
C946 C944 1.378 . S
C946 C947 1.367 . S
C947 C946 1.367 . S
C947 C949 1.433 . S
C948 C944 1.350 . S
C948 C945 1.463 . S
C948 N952 1.427 . S
C949 H939 0.929 . S
C949 C947 1.433 . S
C949 N952 1.384 . S
C950 H941 0.929 . S
C950 C942 1.378 . S
C950 C945 1.350 . S
C951 H938 0.929 . S
C951 C943 1.433 . S
C951 N953 1.384 . S
N952 C948 1.427 . S
N952 C949 1.384 . S
N953 C945 1.427 . S
N953 C951 1.384 . S
H954 C960 0.930 . S
H955 C964 0.930 . S
H956 C969 0.929 . S
H957 C967 0.929 1_556 S
H958 C962 0.929 . S
H959 C968 0.929 . S
C960 H954 0.930 . S
C960 C961 1.367 . S
C960 C968 1.378 . S
C961 C960 1.367 . S
C961 C969 1.433 . S
C962 H958 0.929 . S
C962 C964 1.378 . S
C962 C966 1.350 . S
C963 C966 1.463 . S
C963 C968 1.350 . S
C963 N971 1.427 . S
C964 H955 0.930 . S
C964 C962 1.378 . S
C964 C965 1.367 . S
C965 C964 1.367 . S
C965 C967 1.433 . S
C966 C962 1.350 . S
C966 C963 1.463 . S
C966 N970 1.427 . S
C967 H957 0.929 1_554 S
C967 C965 1.433 . S
C967 N970 1.384 . S
C968 H959 0.929 . S
C968 C960 1.378 . S
C968 C963 1.350 . S
C969 H956 0.929 . S
C969 C961 1.433 . S
C969 N971 1.384 . S
N970 C966 1.427 . S
N970 C967 1.384 . S
N971 C963 1.427 . S
N971 C969 1.384 . S
H972 C978 0.930 . S
H973 C982 0.930 . S
H974 C987 0.929 . S
H975 C985 0.929 1_556 S
H976 C980 0.929 . S
H977 C986 0.929 . S
C978 H972 0.930 . S
C978 C979 1.367 . S
C978 C986 1.378 . S
C979 C978 1.367 . S
C979 C987 1.433 . S
C980 H976 0.929 . S
C980 C982 1.378 . S
C980 C984 1.350 . S
C981 C984 1.463 . S
C981 C986 1.350 . S
C981 N989 1.427 . S
C982 H973 0.930 . S
C982 C980 1.378 . S
C982 C983 1.367 . S
C983 C982 1.367 . S
C983 C985 1.433 . S
C984 C980 1.350 . S
C984 C981 1.463 . S
C984 N988 1.427 . S
C985 H975 0.929 1_554 S
C985 C983 1.433 . S
C985 N988 1.384 . S
C986 H977 0.929 . S
C986 C978 1.378 . S
C986 C981 1.350 . S
C987 H974 0.929 . S
C987 C979 1.433 . S
C987 N989 1.384 . S
N988 C984 1.427 . S
N988 C985 1.384 . S
N989 C981 1.427 . S
N989 C987 1.384 . S
H990 C996 0.930 . S
H991 C1000 0.930 1_556 S
H992 C1005 0.929 . S
H993 C1003 0.929 . S
H994 C998 0.929 . S
H995 C1004 0.929 . S
C996 H990 0.930 . S
C996 C997 1.367 . S
C996 C1004 1.378 . S
C997 C996 1.367 . S
C997 C1005 1.433 . S
C998 H994 0.929 . S
C998 C1000 1.378 . S
C998 C1002 1.350 . S
C999 C1002 1.463 . S
C999 C1004 1.350 . S
C999 N1007 1.427 . S
C1000 H991 0.930 1_554 S
C1000 C998 1.378 . S
C1000 C1001 1.367 . S
C1001 C1000 1.367 . S
C1001 C1003 1.433 . S
C1002 C998 1.350 . S
C1002 C999 1.463 . S
C1002 N1006 1.427 . S
C1003 H993 0.929 . S
C1003 C1001 1.433 . S
C1003 N1006 1.384 . S
C1004 H995 0.929 . S
C1004 C996 1.378 . S
C1004 C999 1.350 . S
C1005 H992 0.929 . S
C1005 C997 1.433 . S
C1005 N1007 1.384 . S
N1006 C1002 1.427 . S
N1006 C1003 1.384 . S
N1007 C999 1.427 . S
N1007 C1005 1.384 . S
H1008 C1014 0.930 . S
H1009 C1018 0.930 . S
H1010 C1023 0.929 . S
H1011 C1021 0.929 . S
H1012 C1016 0.929 . S
H1013 C1022 0.929 . S
C1014 H1008 0.930 . S
C1014 C1015 1.367 . S
C1014 C1022 1.378 . S
C1015 C1014 1.367 . S
C1015 C1023 1.433 . S
C1016 H1012 0.929 . S
C1016 C1018 1.378 . S
C1016 C1020 1.350 . S
C1017 C1020 1.463 . S
C1017 C1022 1.350 . S
C1017 N1025 1.427 . S
C1018 H1009 0.930 . S
C1018 C1016 1.378 . S
C1018 C1019 1.367 . S
C1019 C1018 1.367 . S
C1019 C1021 1.433 . S
C1020 C1016 1.350 . S
C1020 C1017 1.463 . S
C1020 N1024 1.427 . S
C1021 H1011 0.929 . S
C1021 C1019 1.433 . S
C1021 N1024 1.384 . S
C1022 H1013 0.929 . S
C1022 C1014 1.378 . S
C1022 C1017 1.350 . S
C1023 H1010 0.929 . S
C1023 C1015 1.433 . S
C1023 N1025 1.384 . S
N1024 C1020 1.427 . S
N1024 C1021 1.384 . S
N1025 C1017 1.427 . S
N1025 C1023 1.384 . S
H1026 C1032 0.930 . S
H1027 C1036 0.930 . S
H1028 C1041 0.929 . S
H1029 C1039 0.929 . S
H1030 C1034 0.929 . S
H1031 C1040 0.929 . S
C1032 H1026 0.930 . S
C1032 C1033 1.367 . S
C1032 C1040 1.378 . S
C1033 C1032 1.367 . S
C1033 C1041 1.433 . S
C1034 H1030 0.929 . S
C1034 C1036 1.378 . S
C1034 C1038 1.350 . S
C1035 C1038 1.463 . S
C1035 C1040 1.350 . S
C1035 N1043 1.427 . S
C1036 H1027 0.930 . S
C1036 C1034 1.378 . S
C1036 C1037 1.367 . S
C1037 C1036 1.367 . S
C1037 C1039 1.433 . S
C1038 C1034 1.350 . S
C1038 C1035 1.463 . S
C1038 N1042 1.427 . S
C1039 H1029 0.929 . S
C1039 C1037 1.433 . S
C1039 N1042 1.384 . S
C1040 H1031 0.929 . S
C1040 C1032 1.378 . S
C1040 C1035 1.350 . S
C1041 H1028 0.929 . S
C1041 C1033 1.433 . S
C1041 N1043 1.384 . S
N1042 C1038 1.427 . S
N1042 C1039 1.384 . S
N1043 C1035 1.427 . S
N1043 C1041 1.384 . S
H1044 C1050 0.930 . S
H1045 C1054 0.930 . S
H1046 C1059 0.929 . S
H1047 C1057 0.929 . S
H1048 C1052 0.929 . S
H1049 C1058 0.929 . S
C1050 H1044 0.930 . S
C1050 C1051 1.367 . S
C1050 C1058 1.378 . S
C1051 C1050 1.367 . S
C1051 C1059 1.433 . S
C1052 H1048 0.929 . S
C1052 C1054 1.378 . S
C1052 C1056 1.350 . S
C1053 C1056 1.463 . S
C1053 C1058 1.350 . S
C1053 N1061 1.427 . S
C1054 H1045 0.930 . S
C1054 C1052 1.378 . S
C1054 C1055 1.367 . S
C1055 C1054 1.367 . S
C1055 C1057 1.433 . S
C1056 C1052 1.350 . S
C1056 C1053 1.463 . S
C1056 N1060 1.427 . S
C1057 H1047 0.929 . S
C1057 C1055 1.433 . S
C1057 N1060 1.384 . S
C1058 H1049 0.929 . S
C1058 C1050 1.378 . S
C1058 C1053 1.350 . S
C1059 H1046 0.929 . S
C1059 C1051 1.433 . S
C1059 N1061 1.384 . S
N1060 C1056 1.427 . S
N1060 C1057 1.384 . S
N1061 C1053 1.427 . S
N1061 C1059 1.384 . S
H1062 C1068 0.930 . S
H1063 C1072 0.930 . S
H1064 C1077 0.929 . S
H1065 C1075 0.929 . S
H1066 C1070 0.929 . S
H1067 C1076 0.929 . S
C1068 H1062 0.930 . S
C1068 C1069 1.367 . S
C1068 C1076 1.378 . S
C1069 C1068 1.367 . S
C1069 C1077 1.433 . S
C1070 H1066 0.929 . S
C1070 C1072 1.378 . S
C1070 C1074 1.350 . S
C1071 C1074 1.463 . S
C1071 C1076 1.350 . S
C1071 N1079 1.427 . S
C1072 H1063 0.930 . S
C1072 C1070 1.378 . S
C1072 C1073 1.367 . S
C1073 C1072 1.367 . S
C1073 C1075 1.433 . S
C1074 C1070 1.350 . S
C1074 C1071 1.463 . S
C1074 N1078 1.427 . S
C1075 H1065 0.929 . S
C1075 C1073 1.433 . S
C1075 N1078 1.384 . S
C1076 H1067 0.929 . S
C1076 C1068 1.378 . S
C1076 C1071 1.350 . S
C1077 H1064 0.929 . S
C1077 C1069 1.433 . S
C1077 N1079 1.384 . S
N1078 C1074 1.427 . S
N1078 C1075 1.384 . S
N1079 C1071 1.427 . S
N1079 C1077 1.384 . S
H1080 C1086 0.930 . S
H1081 C1090 0.930 . S
H1082 C1095 0.929 . S
H1083 C1093 0.929 . S
H1084 C1088 0.929 . S
H1085 C1094 0.929 . S
C1086 H1080 0.930 . S
C1086 C1087 1.367 . S
C1086 C1094 1.378 . S
C1087 C1086 1.367 . S
C1087 C1095 1.433 . S
C1088 H1084 0.929 . S
C1088 C1090 1.378 . S
C1088 C1092 1.350 . S
C1089 C1092 1.463 . S
C1089 C1094 1.350 . S
C1089 N1097 1.427 . S
C1090 H1081 0.930 . S
C1090 C1088 1.378 . S
C1090 C1091 1.367 . S
C1091 C1090 1.367 . S
C1091 C1093 1.433 . S
C1092 C1088 1.350 . S
C1092 C1089 1.463 . S
C1092 N1096 1.427 . S
C1093 H1083 0.929 . S
C1093 C1091 1.433 . S
C1093 N1096 1.384 . S
C1094 H1085 0.929 . S
C1094 C1086 1.378 . S
C1094 C1089 1.350 . S
C1095 H1082 0.929 . S
C1095 C1087 1.433 . S
C1095 N1097 1.384 . S
N1096 C1092 1.427 . S
N1096 C1093 1.384 . S
N1097 C1089 1.427 . S
N1097 C1095 1.384 . S
H1098 C1104 0.930 . S
H1099 C1108 0.930 . S
H1100 C1113 0.953 . S
H1101 C1111 0.929 . S
H1102 C1106 0.929 . S
H1103 C1112 0.929 . S
C1104 H1098 0.930 . S
C1104 C1105 1.367 . S
C1104 C1112 1.378 . S
C1105 C1104 1.367 . S
C1105 C1113 1.433 . S
C1106 H1102 0.929 . S
C1106 C1108 1.378 . S
C1106 C1110 1.350 . S
C1107 C1110 1.463 . S
C1107 C1112 1.350 . S
C1107 N1115 1.427 . S
C1108 H1099 0.930 . S
C1108 C1106 1.378 . S
C1108 C1109 1.367 . S
C1109 C1108 1.367 . S
C1109 C1111 1.433 . S
C1110 C1106 1.350 . S
C1110 C1107 1.463 . S
C1110 N1114 1.427 . S
C1111 H1101 0.929 . S
C1111 C1109 1.433 . S
C1111 N1114 1.384 . S
C1112 H1103 0.929 . S
C1112 C1104 1.378 . S
C1112 C1107 1.350 . S
C1113 H1100 0.953 . S
C1113 C1105 1.433 . S
C1113 N1115 1.384 . S
N1114 C1110 1.427 . S
N1114 C1111 1.384 . S
N1115 C1107 1.427 . S
N1115 C1113 1.384 . S
H1116 C1122 0.930 . S
H1117 C1126 0.930 1_554 S
H1118 C1131 0.929 . S
H1119 C1129 0.929 . S
H1120 C1124 0.929 . S
H1121 C1130 0.929 . S
C1122 H1116 0.930 . S
C1122 C1123 1.367 . S
C1122 C1130 1.378 . S
C1123 C1122 1.367 . S
C1123 C1131 1.433 . S
C1124 H1120 0.929 . S
C1124 C1126 1.378 . S
C1124 C1128 1.350 . S
C1125 C1128 1.463 . S
C1125 C1130 1.350 . S
C1125 N1133 1.427 . S
C1126 H1117 0.930 1_556 S
C1126 C1124 1.378 . S
C1126 C1127 1.367 . S
C1127 C1126 1.367 . S
C1127 C1129 1.433 . S
C1128 C1124 1.350 . S
C1128 C1125 1.463 . S
C1128 N1132 1.427 . S
C1129 H1119 0.929 . S
C1129 C1127 1.433 . S
C1129 N1132 1.384 . S
C1130 H1121 0.929 . S
C1130 C1122 1.378 . S
C1130 C1125 1.350 . S
C1131 H1118 0.929 . S
C1131 C1123 1.433 . S
C1131 N1133 1.384 . S
N1132 C1128 1.427 . S
N1132 C1129 1.384 . S
N1133 C1125 1.427 . S
N1133 C1131 1.384 . S
H1134 C1140 0.930 . S
H1135 C1144 0.930 . S
H1136 C1149 0.929 . S
H1137 C1147 0.929 1_554 S
H1138 C1142 0.929 . S
H1139 C1148 0.929 . S
C1140 H1134 0.930 . S
C1140 C1141 1.367 . S
C1140 C1148 1.378 . S
C1141 C1140 1.367 . S
C1141 C1149 1.433 . S
C1142 H1138 0.929 . S
C1142 C1144 1.378 . S
C1142 C1146 1.350 . S
C1143 C1146 1.463 . S
C1143 C1148 1.350 . S
C1143 N1151 1.427 . S
C1144 H1135 0.930 . S
C1144 C1142 1.378 . S
C1144 C1145 1.367 . S
C1145 C1144 1.367 . S
C1145 C1147 1.433 . S
C1146 C1142 1.350 . S
C1146 C1143 1.463 . S
C1146 N1150 1.427 . S
C1147 H1137 0.929 1_556 S
C1147 C1145 1.433 . S
C1147 N1150 1.384 . S
C1148 H1139 0.929 . S
C1148 C1140 1.378 . S
C1148 C1143 1.350 . S
C1149 H1136 0.929 . S
C1149 C1141 1.433 . S
C1149 N1151 1.384 . S
N1150 C1146 1.427 . S
N1150 C1147 1.384 . S
N1151 C1143 1.427 . S
N1151 C1149 1.384 . S
H1152 C1158 0.930 . S
H1153 C1162 0.930 . S
H1154 C1167 0.929 . S
H1155 C1165 0.929 . S
H1156 C1160 0.929 1_554 S
H1157 C1166 0.929 . S
C1158 H1152 0.930 . S
C1158 C1159 1.367 . S
C1158 C1166 1.378 . S
C1159 C1158 1.367 . S
C1159 C1167 1.433 . S
C1160 H1156 0.929 1_556 S
C1160 C1162 1.378 1_556 S
C1160 C1164 1.350 . S
C1161 C1164 1.463 . S
C1161 C1166 1.350 . S
C1161 N1169 1.427 . S
C1162 H1153 0.930 . S
C1162 C1160 1.378 1_554 S
C1162 C1163 1.367 1_554 S
C1163 C1162 1.367 1_556 S
C1163 C1165 1.433 . S
C1164 C1160 1.350 . S
C1164 C1161 1.463 . S
C1164 N1168 1.427 . S
C1165 H1155 0.929 . S
C1165 C1163 1.433 . S
C1165 N1168 1.384 . S
C1166 H1157 0.929 . S
C1166 C1158 1.378 . S
C1166 C1161 1.350 . S
C1167 H1154 0.929 . S
C1167 C1159 1.433 . S
C1167 N1169 1.384 . S
N1168 C1164 1.427 . S
N1168 C1165 1.384 . S
N1169 C1161 1.427 . S
N1169 C1167 1.384 . S
H1170 C1176 0.930 . S
H1171 C1180 0.930 . S
H1172 C1185 0.929 . S
H1173 C1183 0.929 . S
H1174 C1178 0.929 . S
H1175 C1184 0.929 . S
C1176 H1170 0.930 . S
C1176 C1177 1.367 . S
C1176 C1184 1.378 . S
C1177 C1176 1.367 . S
C1177 C1185 1.433 . S
C1178 H1174 0.929 . S
C1178 C1180 1.378 . S
C1178 C1182 1.350 . S
C1179 C1182 1.463 . S
C1179 C1184 1.350 . S
C1179 N1187 1.427 . S
C1180 H1171 0.930 . S
C1180 C1178 1.378 . S
C1180 C1181 1.367 . S
C1181 C1180 1.367 . S
C1181 C1183 1.433 . S
C1182 C1178 1.350 . S
C1182 C1179 1.463 . S
C1182 N1186 1.427 . S
C1183 H1173 0.929 . S
C1183 C1181 1.433 . S
C1183 N1186 1.384 . S
C1184 H1175 0.929 . S
C1184 C1176 1.378 . S
C1184 C1179 1.350 . S
C1185 H1172 0.929 . S
C1185 C1177 1.433 . S
C1185 N1187 1.384 . S
N1186 C1182 1.427 . S
N1186 C1183 1.384 . S
N1187 C1179 1.427 . S
N1187 C1185 1.384 . S
H1188 C1194 0.930 . S
H1189 C1198 0.930 . S
H1190 C1203 0.929 . S
H1191 C1201 0.929 . S
H1192 C1196 0.929 . S
H1193 C1202 0.929 . S
C1194 H1188 0.930 . S
C1194 C1195 1.367 . S
C1194 C1202 1.378 . S
C1195 C1194 1.367 . S
C1195 C1203 1.433 . S
C1196 H1192 0.929 . S
C1196 C1198 1.378 . S
C1196 C1200 1.350 . S
C1197 C1200 1.463 . S
C1197 C1202 1.350 . S
C1197 N1205 1.427 . S
C1198 H1189 0.930 . S
C1198 C1196 1.378 . S
C1198 C1199 1.367 . S
C1199 C1198 1.367 . S
C1199 C1201 1.433 . S
C1200 C1196 1.350 . S
C1200 C1197 1.463 . S
C1200 N1204 1.427 . S
C1201 H1191 0.929 . S
C1201 C1199 1.433 . S
C1201 N1204 1.384 . S
C1202 H1193 0.929 . S
C1202 C1194 1.378 . S
C1202 C1197 1.350 . S
C1203 H1190 0.929 . S
C1203 C1195 1.433 . S
C1203 N1205 1.384 . S
N1204 C1200 1.427 . S
N1204 C1201 1.384 . S
N1205 C1197 1.427 . S
N1205 C1203 1.384 . S
H1206 C1212 0.930 . S
H1207 C1216 0.930 . S
H1208 C1221 0.929 . S
H1209 C1219 0.929 . S
H1210 C1214 0.929 . S
H1211 C1220 0.929 . S
C1212 H1206 0.930 . S
C1212 C1213 1.367 . S
C1212 C1220 1.378 . S
C1213 C1212 1.367 . S
C1213 C1221 1.433 . S
C1214 H1210 0.929 . S
C1214 C1216 1.378 . S
C1214 C1218 1.350 . S
C1215 C1218 1.463 . S
C1215 C1220 1.350 . S
C1215 N1223 1.427 . S
C1216 H1207 0.930 . S
C1216 C1214 1.378 . S
C1216 C1217 1.367 . S
C1217 C1216 1.367 . S
C1217 C1219 1.433 . S
C1218 C1214 1.350 . S
C1218 C1215 1.463 . S
C1218 N1222 1.427 . S
C1219 H1209 0.929 . S
C1219 C1217 1.433 . S
C1219 N1222 1.384 . S
C1220 H1211 0.929 . S
C1220 C1212 1.378 . S
C1220 C1215 1.350 . S
C1221 H1208 0.929 . S
C1221 C1213 1.433 . S
C1221 N1223 1.384 . S
N1222 C1218 1.427 . S
N1222 C1219 1.384 . S
N1223 C1215 1.427 . S
N1223 C1221 1.384 . S
H1224 C1230 0.930 . S
H1225 C1234 0.930 1_545 S
H1226 C1239 0.929 1_556 S
H1227 C1237 0.929 . S
H1228 C1232 0.929 . S
H1229 C1238 0.929 . S
C1230 H1224 0.930 . S
C1230 C1231 1.367 . S
C1230 C1238 1.378 . S
C1231 C1230 1.367 . S
C1231 C1239 1.433 . S
C1232 H1228 0.929 . S
C1232 C1234 1.378 . S
C1232 C1236 1.350 . S
C1233 C1236 1.463 . S
C1233 C1238 1.350 . S
C1233 N1241 1.427 . S
C1234 H1225 0.930 1_565 S
C1234 C1232 1.378 . S
C1234 C1235 1.367 . S
C1235 C1234 1.367 . S
C1235 C1237 1.433 . S
C1236 C1232 1.350 . S
C1236 C1233 1.463 . S
C1236 N1240 1.427 . S
C1237 H1227 0.929 . S
C1237 C1235 1.433 . S
C1237 N1240 1.384 . S
C1238 H1229 0.929 . S
C1238 C1230 1.378 . S
C1238 C1233 1.350 . S
C1239 H1226 0.929 1_554 S
C1239 C1231 1.433 . S
C1239 N1241 1.384 . S
N1240 C1236 1.427 . S
N1240 C1237 1.384 . S
N1241 C1233 1.427 . S
N1241 C1239 1.384 . S
H1242 C1248 0.930 . S
H1243 C1252 0.930 . S
H1244 C1257 0.929 . S
H1245 C1255 0.929 . S
H1246 C1250 0.929 . S
H1247 C1256 0.929 . S
C1248 H1242 0.930 . S
C1248 C1249 1.367 . S
C1248 C1256 1.378 . S
C1249 C1248 1.367 . S
C1249 C1257 1.433 . S
C1250 H1246 0.929 . S
C1250 C1252 1.378 . S
C1250 C1254 1.350 . S
C1251 C1254 1.463 . S
C1251 C1256 1.350 . S
C1251 N1259 1.427 . S
C1252 H1243 0.930 . S
C1252 C1250 1.378 . S
C1252 C1253 1.367 . S
C1253 C1252 1.367 . S
C1253 C1255 1.433 . S
C1254 C1250 1.350 . S
C1254 C1251 1.463 . S
C1254 N1258 1.427 . S
C1255 H1245 0.929 . S
C1255 C1253 1.433 . S
C1255 N1258 1.384 . S
C1256 H1247 0.929 . S
C1256 C1248 1.378 . S
C1256 C1251 1.350 . S
C1257 H1244 0.929 . S
C1257 C1249 1.433 . S
C1257 N1259 1.384 . S
N1258 C1254 1.427 . S
N1258 C1255 1.384 . S
N1259 C1251 1.427 . S
N1259 C1257 1.384 . S
H1260 C1266 0.930 . S
H1261 C1270 0.930 . S
H1262 C1275 0.929 . S
H1263 C1273 0.929 . S
H1264 C1268 0.929 . S
H1265 C1274 0.929 . S
C1266 H1260 0.930 . S
C1266 C1267 1.367 . S
C1266 C1274 1.378 . S
C1267 C1266 1.367 . S
C1267 C1275 1.433 . S
C1268 H1264 0.929 . S
C1268 C1270 1.378 . S
C1268 C1272 1.350 . S
C1269 C1272 1.463 . S
C1269 C1274 1.350 . S
C1269 N1277 1.427 . S
C1270 H1261 0.930 . S
C1270 C1268 1.378 . S
C1270 C1271 1.367 . S
C1271 C1270 1.367 . S
C1271 C1273 1.433 1_554 S
C1272 C1268 1.350 . S
C1272 C1269 1.463 . S
C1272 N1276 1.427 . S
C1273 H1263 0.929 . S
C1273 C1271 1.433 1_556 S
C1273 N1276 1.384 1_556 S
C1274 H1265 0.929 . S
C1274 C1266 1.378 . S
C1274 C1269 1.350 . S
C1275 H1262 0.929 . S
C1275 C1267 1.433 . S
C1275 N1277 1.384 . S
N1276 C1272 1.427 . S
N1276 C1273 1.384 1_554 S
N1277 C1269 1.427 . S
N1277 C1275 1.384 . S
H1278 C1284 0.930 . S
H1279 C1288 0.930 . S
H1280 C1293 0.929 . S
H1281 C1291 0.929 . S
H1282 C1286 0.929 . S
H1283 C1292 0.929 . S
C1284 H1278 0.930 . S
C1284 C1285 1.367 . S
C1284 C1292 1.378 . S
C1285 C1284 1.367 . S
C1285 C1293 1.433 . S
C1286 H1282 0.929 . S
C1286 C1288 1.378 . S
C1286 C1290 1.350 . S
C1287 C1290 1.463 1_655 S
C1287 C1292 1.350 . S
C1287 N1295 1.427 . S
C1288 H1279 0.930 . S
C1288 C1286 1.378 . S
C1288 C1289 1.367 . S
C1289 C1288 1.367 . S
C1289 C1291 1.433 . S
C1290 C1286 1.350 . S
C1290 C1287 1.463 1_455 S
C1290 N1294 1.427 . S
C1291 H1281 0.929 . S
C1291 C1289 1.433 . S
C1291 N1294 1.384 . S
C1292 H1283 0.929 . S
C1292 C1284 1.378 . S
C1292 C1287 1.350 . S
C1293 H1280 0.929 . S
C1293 C1285 1.433 . S
C1293 N1295 1.384 . S
N1294 C1290 1.427 . S
N1294 C1291 1.384 . S
N1295 C1287 1.427 . S
N1295 C1293 1.384 . S
H1296 C1302 0.930 . S
H1297 C1306 0.930 . S
H1298 C1311 0.929 . S
H1299 C1309 0.929 . S
H1300 C1304 0.929 . S
H1301 C1310 0.929 . S
C1302 H1296 0.930 . S
C1302 C1303 1.367 . S
C1302 C1310 1.378 . S
C1303 C1302 1.367 . S
C1303 C1311 1.433 . S
C1304 H1300 0.929 . S
C1304 C1306 1.378 . S
C1304 C1308 1.350 . S
C1305 C1308 1.463 . S
C1305 C1310 1.350 . S
C1305 N1313 1.427 . S
C1306 H1297 0.930 . S
C1306 C1304 1.378 . S
C1306 C1307 1.367 . S
C1307 C1306 1.367 . S
C1307 C1309 1.433 . S
C1308 C1304 1.350 . S
C1308 C1305 1.463 . S
C1308 N1312 1.427 . S
C1309 H1299 0.929 . S
C1309 C1307 1.433 . S
C1309 N1312 1.384 . S
C1310 H1301 0.929 . S
C1310 C1302 1.378 . S
C1310 C1305 1.350 . S
C1311 H1298 0.929 . S
C1311 C1303 1.433 . S
C1311 N1313 1.384 . S
N1312 C1308 1.427 . S
N1312 C1309 1.384 . S
N1313 C1305 1.427 . S
N1313 C1311 1.384 . S
H1314 C1320 0.930 . S
H1315 C1324 0.930 . S
H1316 C1329 0.929 . S
H1317 C1327 0.929 . S
H1318 C1322 0.929 . S
H1319 C1328 0.931 . S
C1320 H1314 0.930 . S
C1320 C1321 1.367 . S
C1320 C1328 1.372 1_565 S
C1321 C1320 1.367 . S
C1321 C1329 1.433 . S
C1322 H1318 0.929 . S
C1322 C1324 1.378 . S
C1322 C1326 1.350 . S
C1323 C1326 1.463 . S
C1323 C1328 1.353 . S
C1323 N1331 1.427 1_545 S
C1324 H1315 0.930 . S
C1324 C1322 1.378 . S
C1324 C1325 1.367 . S
C1325 C1324 1.367 . S
C1325 C1327 1.433 . S
C1326 C1322 1.350 . S
C1326 C1323 1.463 . S
C1326 N1330 1.427 . S
C1327 H1317 0.929 . S
C1327 C1325 1.433 . S
C1327 N1330 1.384 . S
C1328 H1319 0.931 . S
C1328 C1320 1.372 1_545 S
C1328 C1323 1.353 . S
C1329 H1316 0.929 . S
C1329 C1321 1.433 . S
C1329 N1331 1.384 . S
N1330 C1326 1.427 . S
N1330 C1327 1.384 . S
N1331 C1323 1.427 1_565 S
N1331 C1329 1.384 . S
H1332 C1338 0.930 . S
H1333 C1342 0.930 . S
H1334 C1347 0.929 . S
H1335 C1345 0.929 . S
H1336 C1340 0.929 . S
H1337 C1346 0.929 . S
C1338 H1332 0.930 . S
C1338 C1339 1.367 . S
C1338 C1346 1.378 1_565 S
C1339 C1338 1.367 . S
C1339 C1347 1.433 . S
C1340 H1336 0.929 . S
C1340 C1342 1.378 . S
C1340 C1344 1.350 . S
C1341 C1344 1.463 . S
C1341 C1346 1.350 . S
C1341 N1349 1.427 1_545 S
C1342 H1333 0.930 . S
C1342 C1340 1.378 . S
C1342 C1343 1.367 . S
C1343 C1342 1.367 . S
C1343 C1345 1.433 . S
C1344 C1340 1.350 . S
C1344 C1341 1.463 . S
C1344 N1348 1.427 . S
C1345 H1335 0.929 . S
C1345 C1343 1.433 . S
C1345 N1348 1.384 . S
C1346 H1337 0.929 . S
C1346 C1338 1.378 1_545 S
C1346 C1341 1.350 . S
C1347 H1334 0.929 . S
C1347 C1339 1.433 . S
C1347 N1349 1.384 . S
N1348 C1344 1.427 . S
N1348 C1345 1.384 . S
N1349 C1341 1.427 1_565 S
N1349 C1347 1.384 . S
H1350 C1356 0.930 . S
H1351 C1360 0.930 . S
H1352 C1365 0.929 . S
H1353 C1363 0.929 . S
H1354 C1358 0.929 . S
H1355 C1364 0.929 . S
C1356 H1350 0.930 . S
C1356 C1357 1.367 . S
C1356 C1364 1.378 . S
C1357 C1356 1.367 . S
C1357 C1365 1.433 . S
C1358 H1354 0.929 . S
C1358 C1360 1.378 . S
C1358 C1362 1.350 . S
C1359 C1362 1.463 1_455 S
C1359 C1364 1.350 . S
C1359 N1367 1.427 . S
C1360 H1351 0.930 . S
C1360 C1358 1.378 . S
C1360 C1361 1.367 . S
C1361 C1360 1.367 . S
C1361 C1363 1.433 . S
C1362 C1358 1.350 . S
C1362 C1359 1.463 1_655 S
C1362 N1366 1.427 . S
C1363 H1353 0.929 . S
C1363 C1361 1.433 . S
C1363 N1366 1.384 . S
C1364 H1355 0.929 . S
C1364 C1356 1.378 . S
C1364 C1359 1.350 . S
C1365 H1352 0.929 . S
C1365 C1357 1.433 . S
C1365 N1367 1.384 . S
N1366 C1362 1.427 . S
N1366 C1363 1.384 . S
N1367 C1359 1.427 . S
N1367 C1365 1.384 . S
H1368 C1374 0.930 . S
H1369 C1378 0.930 . S
H1370 C1383 0.929 . S
H1371 C1381 0.929 . S
H1372 C1376 0.929 . S
H1373 C1382 0.929 . S
C1374 H1368 0.930 . S
C1374 C1375 1.367 . S
C1374 C1382 1.378 . S
C1375 C1374 1.367 . S
C1375 C1383 1.433 . S
C1376 H1372 0.929 . S
C1376 C1378 1.378 . S
C1376 C1380 1.350 . S
C1377 C1380 1.463 . S
C1377 C1382 1.350 . S
C1377 N1385 1.427 . S
C1378 H1369 0.930 . S
C1378 C1376 1.378 . S
C1378 C1379 1.367 . S
C1379 C1378 1.367 . S
C1379 C1381 1.433 . S
C1380 C1376 1.350 . S
C1380 C1377 1.463 . S
C1380 N1384 1.427 . S
C1381 H1371 0.929 . S
C1381 C1379 1.433 . S
C1381 N1384 1.384 . S
C1382 H1373 0.929 . S
C1382 C1374 1.378 . S
C1382 C1377 1.350 . S
C1383 H1370 0.929 . S
C1383 C1375 1.433 . S
C1383 N1385 1.384 . S
N1384 C1380 1.427 . S
N1384 C1381 1.384 . S
N1385 C1377 1.427 . S
N1385 C1383 1.384 . S
C421 C18 1.366 . S
C425 C111 1.353 . S
C439 C134 1.367 . S
C443 C41 1.378 . S
C457 C64 1.367 . S
C461 C88 1.353 . S
C475 C63 1.645 . S
C479 C112 1.714 . S
C493 C135 1.721 . S
C497 C17 1.658 . S
C511 C40 1.653 . S
C515 C89 1.718 . S
C529 C42 1.713 . S
C533 C86 1.711 . S
C547 C65 1.708 . S
C551 C109 1.710 . S
C565 C132 1.718 . S
C569 C19 1.714 . S
C583 C133 1.347 . S
C587 C43 1.343 . S
C601 C66 1.345 . S
C605 C87 1.347 . S
C619 C20 1.343 . S
C623 C110 1.344 . S
C637 C249 1.353 . S
C641 C156 1.366 . S
C655 C179 1.378 . S
C659 C272 1.368 . S
C673 C202 1.368 . S
C677 C226 1.354 . S
C691 C250 1.715 . S
C695 C201 1.646 . S
C709 C273 1.715 . S
C713 C155 1.647 . S
C727 C227 1.719 . S
C731 C178 1.653 . S
C745 C180 1.715 . S
C749 C224 1.719 . S
C763 C203 1.723 . S
C767 C247 1.722 . S
C781 C157 1.711 . S
C785 C270 1.715 . S
C799 C181 1.343 . S
C803 C271 1.344 . S
C817 C204 1.349 . S
C821 C225 1.342 . S
C835 C248 1.342 . S
C839 C158 1.343 . S
C853 C294 1.372 . S
C857 C387 1.358 . S
C871 C317 1.372 . S
C875 C410 1.358 . S
C889 C364 1.368 . S
C893 C340 1.379 . S
C907 C388 1.717 . S
C911 C339 1.651 . S
C925 C293 1.643 . S
C929 C411 1.713 . S
C943 C316 1.652 . S
C947 C365 1.717 . S
C961 C318 1.711 . S
C965 C362 1.704 1_554 S
C979 C341 1.711 . S
C983 C385 1.704 1_554 S
C997 C295 1.719 . S
C1001 C408 1.705 1_554 S
C1015 C409 1.341 . S
C1019 C319 1.345 . S
C1033 C363 1.343 . S
C1037 C342 1.343 . S
C1051 C296 1.346 . S
C1055 C386 1.340 . S
C1069 C16 1.350 . S
C1073 C320 1.334 . S
C1087 C39 1.346 . S
C1091 C343 1.323 . S
C1105 C62 1.351 . S
C1109 C297 1.334 . S
C1123 C67 1.323 . S
C1127 C177 1.345 1_556 S
C1141 C21 1.324 . S
C1145 C200 1.347 1_556 S
C1159 C44 1.327 . S
C1163 C154 1.346 1_556 S
C1177 C246 1.413 . S
C1181 C90 1.403 . S
C1195 C113 1.406 . S
C1199 C269 1.416 . S
C1213 C136 1.404 . S
C1217 C223 1.413 . S
C1231 C389 1.397 1_554 S
C1235 C131 1.414 . S
C1249 C85 1.414 . S
C1253 C412 1.398 1_554 S
C1267 C108 1.418 . S
C1271 C366 1.402 1_554 S
C1285 C205 1.328 . S
C1289 C315 1.349 . S
C1303 C159 1.326 . S
C1307 C338 1.348 . S
C1321 C292 1.349 . S
C1325 C182 1.332 . S
C1339 C384 1.413 . S
C1343 C228 1.405 . S
C1357 C407 1.418 . S
C1361 C251 1.398 . S
C1375 C274 1.399 . S
C1379 C361 1.413 . S
