# Generated by pormake.
# Topology yfd, (5)-cn, num edge types: 1
# Building blocks:
#     Node 0, Type 0, BuildingBlock: BEQFEK_clean_sbu_0, # of connection points: 5
#     Node 1, Type 0, BuildingBlock: BEQFEK_clean_sbu_0, # of connection points: 5
#     Node 2, Type 0, BuildingBlock: BEQFEK_clean_sbu_0, # of connection points: 5
#     Node 3, Type 0, BuildingBlock: BEQFEK_clean_sbu_0, # of connection points: 5
#     Node 4, Type 0, BuildingBlock: BEQFEK_clean_sbu_0, # of connection points: 5
#     Node 5, Type 0, BuildingBlock: BEQFEK_clean_sbu_0, # of connection points: 5
#     Node 6, Type 0, BuildingBlock: BEQFEK_clean_sbu_0, # of connection points: 5
#     Node 7, Type 0, BuildingBlock: BEQFEK_clean_sbu_0, # of connection points: 5
#     Node 8, Type 0, BuildingBlock: BEQFEK_clean_sbu_0, # of connection points: 5
#     Node 9, Type 0, BuildingBlock: BEQFEK_clean_sbu_0, # of connection points: 5
#     Node 10, Type 0, BuildingBlock: BEQFEK_clean_sbu_0, # of connection points: 5
#     Node 11, Type 0, BuildingBlock: BEQFEK_clean_sbu_0, # of connection points: 5
#     Node 12, Type 0, BuildingBlock: BEQFEK_clean_sbu_0, # of connection points: 5
#     Node 13, Type 0, BuildingBlock: BEQFEK_clean_sbu_0, # of connection points: 5
#     Node 14, Type 0, BuildingBlock: BEQFEK_clean_sbu_0, # of connection points: 5
#     Node 15, Type 0, BuildingBlock: BEQFEK_clean_sbu_0, # of connection points: 5
#     Edge 16, Type (0, 0), BuildingBlock: CIFDUS_clean_linker_0, # of connection points: 2
#     Edge 17, Type (0, 0), BuildingBlock: CIFDUS_clean_linker_0, # of connection points: 2
#     Edge 18, Type (0, 0), BuildingBlock: CIFDUS_clean_linker_0, # of connection points: 2
#     Edge 19, Type (0, 0), BuildingBlock: CIFDUS_clean_linker_0, # of connection points: 2
#     Edge 20, Type (0, 0), BuildingBlock: CIFDUS_clean_linker_0, # of connection points: 2
#     Edge 21, Type (0, 0), BuildingBlock: CIFDUS_clean_linker_0, # of connection points: 2
#     Edge 22, Type (0, 0), BuildingBlock: CIFDUS_clean_linker_0, # of connection points: 2
#     Edge 23, Type (0, 0), BuildingBlock: CIFDUS_clean_linker_0, # of connection points: 2
#     Edge 24, Type (0, 0), BuildingBlock: CIFDUS_clean_linker_0, # of connection points: 2
#     Edge 25, Type (0, 0), BuildingBlock: CIFDUS_clean_linker_0, # of connection points: 2
#     Edge 26, Type (0, 0), BuildingBlock: CIFDUS_clean_linker_0, # of connection points: 2
#     Edge 27, Type (0, 0), BuildingBlock: CIFDUS_clean_linker_0, # of connection points: 2
#     Edge 28, Type (0, 0), BuildingBlock: CIFDUS_clean_linker_0, # of connection points: 2
#     Edge 29, Type (0, 0), BuildingBlock: CIFDUS_clean_linker_0, # of connection points: 2
#     Edge 30, Type (0, 0), BuildingBlock: CIFDUS_clean_linker_0, # of connection points: 2
#     Edge 31, Type (0, 0), BuildingBlock: CIFDUS_clean_linker_0, # of connection points: 2
#     Edge 32, Type (0, 0), BuildingBlock: CIFDUS_clean_linker_0, # of connection points: 2
#     Edge 33, Type (0, 0), BuildingBlock: CIFDUS_clean_linker_0, # of connection points: 2
#     Edge 34, Type (0, 0), BuildingBlock: CIFDUS_clean_linker_0, # of connection points: 2
#     Edge 35, Type (0, 0), BuildingBlock: CIFDUS_clean_linker_0, # of connection points: 2
#     Edge 36, Type (0, 0), BuildingBlock: CIFDUS_clean_linker_0, # of connection points: 2
#     Edge 37, Type (0, 0), BuildingBlock: CIFDUS_clean_linker_0, # of connection points: 2
#     Edge 38, Type (0, 0), BuildingBlock: CIFDUS_clean_linker_0, # of connection points: 2
#     Edge 39, Type (0, 0), BuildingBlock: CIFDUS_clean_linker_0, # of connection points: 2
#     Edge 40, Type (0, 0), BuildingBlock: CIFDUS_clean_linker_0, # of connection points: 2
#     Edge 41, Type (0, 0), BuildingBlock: CIFDUS_clean_linker_0, # of connection points: 2
#     Edge 42, Type (0, 0), BuildingBlock: CIFDUS_clean_linker_0, # of connection points: 2
#     Edge 43, Type (0, 0), BuildingBlock: CIFDUS_clean_linker_0, # of connection points: 2
#     Edge 44, Type (0, 0), BuildingBlock: CIFDUS_clean_linker_0, # of connection points: 2
#     Edge 45, Type (0, 0), BuildingBlock: CIFDUS_clean_linker_0, # of connection points: 2
#     Edge 46, Type (0, 0), BuildingBlock: CIFDUS_clean_linker_0, # of connection points: 2
#     Edge 47, Type (0, 0), BuildingBlock: CIFDUS_clean_linker_0, # of connection points: 2
#     Edge 48, Type (0, 0), BuildingBlock: CIFDUS_clean_linker_0, # of connection points: 2
#     Edge 49, Type (0, 0), BuildingBlock: CIFDUS_clean_linker_0, # of connection points: 2
#     Edge 50, Type (0, 0), BuildingBlock: CIFDUS_clean_linker_0, # of connection points: 2
#     Edge 51, Type (0, 0), BuildingBlock: CIFDUS_clean_linker_0, # of connection points: 2
#     Edge 52, Type (0, 0), BuildingBlock: CIFDUS_clean_linker_0, # of connection points: 2
#     Edge 53, Type (0, 0), BuildingBlock: CIFDUS_clean_linker_0, # of connection points: 2
#     Edge 54, Type (0, 0), BuildingBlock: CIFDUS_clean_linker_0, # of connection points: 2
#     Edge 55, Type (0, 0), BuildingBlock: CIFDUS_clean_linker_0, # of connection points: 2
# Relax obj value: 0.582
# Max RMSD: 0.254
# Mean RMSD: 0.254
data_MOF--net-yfd--node1-BEQFEK_clean_sbu_0--edge1-CIFDUS_clean_linker_0
_symmetry_space_group_name_H-M    P1
_symmetry_Int_Tables_number       1
_symmetry_cell_setting            triclinic
loop_
_symmetry_equiv_pos_as_xyz
'x, y, z'
_cell_length_a     58.921475
_cell_length_b     59.019478
_cell_length_c     22.790314
_cell_angle_alpha  89.966147
_cell_angle_beta   89.926626
_cell_angle_gamma 90.271347
loop_
_atom_site_label
_atom_site_type_symbol
_atom_site_fract_x
_atom_site_fract_y
_atom_site_fract_z
_atom_type_partial_charge
Co0 Co 0.53971 0.09396 0.16616 0.0
Co1 Co 0.54343 0.14657 0.1807 0.0
C2 C 0.50014 0.11949 0.20995 0.0
O3 O 0.50978 0.10137 0.19464 0.0
O4 O 0.51077 0.13847 0.20855 0.0
C5 C 0.52116 0.05143 0.13426 0.0
O6 O 0.50192 0.06058 0.15074 0.0
C7 C 0.53465 0.18968 0.12107 0.0
C8 C 0.5568 0.21409 0.16687 0.0
C9 C 0.54227 0.21207 0.1192 0.0
N10 N 0.54458 0.17898 0.16652 0.0
N11 N 0.55758 0.1938 0.19422 0.0
C12 C 0.51794 0.17848 0.0809 0.0
H13 H 0.50899 0.16453 0.10417 0.0
H14 H 0.52696 0.17103 0.0429 0.0
H15 H 0.50547 0.19098 0.06429 0.0
C16 C 0.55624 0.10384 0.04844 0.0
N17 N 0.5475 0.11097 0.09976 0.0
N18 N 0.55224 0.13256 0.10721 0.0
C19 C 0.56556 0.13942 0.06183 0.0
C20 C 0.56804 0.12151 0.02265 0.0
C21 C 0.55613 0.07971 0.02825 0.0
H22 H 0.5668 0.06941 0.05804 0.0
H23 H 0.53851 0.07315 0.02941 0.0
H24 H 0.56278 0.07796 0.98293 0.0
O25 O 0.56324 0.09906 0.22567 0.0
O26 O 0.56652 0.13623 0.24181 0.0
H27 H 0.58176 0.16753 0.10517 0.0
H28 H 0.59487 0.15917 0.03663 0.0
C29 C 0.5785 0.16128 0.06009 0.0
H30 H 0.56848 0.17411 0.03595 0.0
H31 H 0.5677 0.18986 0.23034 0.0
O32 O 0.53964 0.06188 0.14416 0.0
C33 C 0.57255 0.11574 0.25187 0.0
Co34 Co 0.43954 0.53861 0.69323 0.0
Co35 Co 0.38637 0.53874 0.68567 0.0
C36 C 0.41294 0.49682 0.72085 0.0
O37 O 0.43089 0.50839 0.71575 0.0
O38 O 0.39345 0.50564 0.71135 0.0
C39 C 0.48426 0.52061 0.69339 0.0
O40 O 0.47524 0.50349 0.72206 0.0
C41 C 0.34198 0.53029 0.62555 0.0
C42 C 0.32161 0.55863 0.65989 0.0
C43 C 0.32095 0.54093 0.61991 0.0
N44 N 0.35439 0.54145 0.66624 0.0
N45 N 0.34186 0.55811 0.68716 0.0
C46 C 0.35108 0.51139 0.58888 0.0
H47 H 0.36989 0.51088 0.59154 0.0
H48 H 0.34565 0.51334 0.54254 0.0
H49 H 0.34422 0.49508 0.60557 0.0
C50 C 0.43611 0.55499 0.57308 0.0
N51 N 0.42625 0.54652 0.62163 0.0
N52 N 0.40403 0.54823 0.61763 0.0
C53 C 0.39921 0.55884 0.56626 0.0
C54 C 0.41941 0.56311 0.53627 0.0
C55 C 0.46125 0.55746 0.56515 0.0
H56 H 0.46823 0.56807 0.60107 0.0
H57 H 0.46925 0.54051 0.56768 0.0
H58 H 0.46574 0.56542 0.52258 0.0
O59 O 0.43138 0.56106 0.75158 0.0
O60 O 0.39354 0.56136 0.75162 0.0
H61 H 0.36673 0.57315 0.58639 0.0
H62 H 0.37712 0.57967 0.51349 0.0
C63 C 0.3761 0.56644 0.54801 0.0
H64 H 0.36658 0.55179 0.52998 0.0
H65 H 0.34753 0.56984 0.71815 0.0
O66 O 0.47249 0.53817 0.6835 0.0
C67 C 0.41266 0.56864 0.77083 0.0
Co68 Co 0.99819 0.43676 0.16843 0.0
Co69 Co 0.99708 0.38371 0.17493 0.0
C70 C 0.0397 0.41142 0.20253 0.0
O71 O 0.02881 0.42939 0.19233 0.0
O72 O 0.03011 0.39197 0.19814 0.0
C73 C 1.01578 0.48016 0.14008 0.0
O74 O 0.0353 0.47114 0.15468 0.0
C75 C 1.00341 0.33897 0.1174 0.0
C76 C 0.98284 0.31652 0.17397 0.0
C77 C 0.99586 0.31661 0.12316 0.0
N78 N 0.99493 0.35135 0.16209 0.0
N79 N 0.98276 0.33772 0.19583 0.0
C80 C 0.0192 0.34842 0.07202 0.0
H81 H 0.02762 0.364 0.0887 0.0
H82 H 1.00948 0.35298 0.03215 0.0
H83 H 0.03213 0.33565 0.0597 0.0
C84 C 0.97813 0.42892 0.05428 0.0
N85 N 0.98918 0.42076 0.10128 0.0
N86 N 0.98571 0.39879 0.1054 0.0
C87 C 0.97102 0.3926 0.06232 0.0
C88 C 0.96591 0.41158 0.02848 0.0
C89 C 0.97736 0.45343 0.03748 0.0
H90 H 0.99483 0.46042 0.03737 0.0
H91 H 0.96999 0.45585 0.99314 0.0
H92 H 0.96695 0.46285 0.0698 0.0
O93 O 0.97637 0.43023 0.23174 0.0
O94 O 0.97647 0.39263 0.24192 0.0
H95 H 0.95681 0.36319 0.10454 0.0
H96 H 0.94215 0.37195 0.03848 0.0
C97 C 0.95899 0.37024 0.05976 0.0
H98 H 0.96918 0.35822 0.03341 0.0
H99 H 0.97403 0.34297 0.23326 0.0
O100 O 0.99755 0.46924 0.14995 0.0
C101 C 0.96938 0.41225 0.25705 0.0
Co102 Co 0.0989 0.99942 0.65193 0.0
Co103 Co 0.15051 0.99416 0.67818 0.0
C104 C 0.12377 0.0377 0.70462 0.0
O105 O 0.10613 0.02897 0.68263 0.0
O106 O 0.14228 0.02644 0.7079 0.0
C107 C 0.05537 0.01814 0.62811 0.0
O108 O 0.06135 0.0343 0.66464 0.0
C109 C 0.19634 1.00207 0.63116 0.0
C110 C 0.21759 0.97888 0.68309 0.0
C111 C 0.21839 0.99381 0.636 0.0
N112 N 0.1832 0.99213 0.6724 0.0
N113 N 0.19611 0.97844 0.70368 0.0
C114 C 0.18781 0.01959 0.58922 0.0
H115 H 0.17278 0.02827 0.60794 0.0
H116 H 0.18253 1.01137 0.54769 0.0
H117 H 0.20134 0.03215 0.57912 0.0
C118 C 0.11203 0.98406 0.53611 0.0
N119 N 0.11779 0.99178 0.58953 0.0
N120 N 0.13895 0.98648 0.60096 0.0
C121 C 0.14687 0.97382 0.5556 0.0
C122 C 0.13003 0.97219 0.51297 0.0
C123 C 0.08884 0.98586 0.51004 0.0
H124 H 0.07742 0.97355 0.53221 0.0
H125 H 0.08229 1.00324 0.51667 0.0
H126 H 0.08897 0.98207 0.46234 0.0
O127 O 0.10091 0.97573 0.71238 0.0
O128 O 0.13735 0.97109 0.73549 0.0
H129 H 0.17344 0.95668 0.60243 0.0
H130 H 0.16659 0.94462 0.53147 0.0
C131 C 0.16848 0.96061 0.55665 0.0
H132 H 0.18218 0.9707 0.53567 0.0
H133 H 0.19012 0.96824 0.73781 0.0
O134 O 0.06788 1.00083 0.62257 0.0
C135 C 0.11636 0.96579 0.74171 0.0
Co136 Co 0.54443 0.43672 0.82877 0.0
Co137 Co 0.5439 0.38401 0.83338 0.0
C138 C 0.50216 0.41242 0.79906 0.0
O139 O 0.51353 0.43043 0.80606 0.0
O140 O 0.51122 0.39291 0.80671 0.0
C141 C 0.53234 0.48348 0.82256 0.0
O142 O 0.51569 0.47691 0.78816 0.0
C143 C 0.53405 0.34196 0.9003 0.0
C144 C 0.55624 0.3171 0.85671 0.0
C145 C 0.54162 0.31961 0.90401 0.0
N146 N 0.54415 0.35213 0.85399 0.0
N147 N 0.55716 0.33702 0.82778 0.0
C148 C 0.5169 0.35338 0.93856 0.0
H149 H 0.50832 0.3671 0.91388 0.0
H150 H 0.52543 0.36116 0.97692 0.0
H151 H 0.50419 0.34093 0.95481 0.0
C152 C 0.55951 0.43218 0.95011 0.0
N153 N 0.55139 0.42289 0.90048 0.0
N154 N 0.55404 0.40078 0.90197 0.0
C155 C 0.56547 0.39557 0.9519 0.0
C156 C 0.56878 0.4153 0.98439 0.0
C157 C 0.5607 0.45713 0.96152 0.0
H158 H 0.57357 0.46483 0.93199 0.0
H159 H 0.54397 0.46484 0.95205 0.0
H160 H 0.56546 0.46093 0.00755 0.0
O161 O 0.5666 0.42775 0.76995 0.0
O162 O 0.56705 0.39004 0.76809 0.0
H163 H 0.5785 0.36329 0.92389 0.0
H164 H 0.59234 0.37523 0.98764 0.0
C165 C 0.57584 0.37302 0.96487 0.0
H166 H 0.56454 0.36329 0.9946 0.0
H167 H 0.56733 0.34052 0.79133 0.0
O168 O 0.54716 0.46925 0.83851 0.0
C169 C 0.5743 0.40927 0.74974 0.0
Co170 Co 0.10042 0.53709 0.34179 0.0
Co171 Co 0.15337 0.53927 0.33072 0.0
C172 C 0.12602 0.49577 0.30953 0.0
O173 O 0.108 0.50632 0.32148 0.0
O174 O 0.14533 0.50587 0.31038 0.0
C175 C 0.05543 0.51967 0.355 0.0
O176 O 0.06211 0.50332 0.32001 0.0
C177 C 0.19873 0.53558 0.38756 0.0
C178 C 0.21921 0.55853 0.33227 0.0
C179 C 0.22008 0.54566 0.38316 0.0
N180 N 0.18589 0.54235 0.34172 0.0
N181 N 0.19851 0.55568 0.30827 0.0
C182 C 0.18992 0.52189 0.43796 0.0
H183 H 0.17146 0.51857 0.43313 0.0
H184 H 0.19329 0.53087 0.47986 0.0
H185 H 0.19906 0.50552 0.4396 0.0
C186 C 0.10897 0.55871 0.45313 0.0
N187 N 0.11696 0.54728 0.40663 0.0
N188 N 0.13873 0.5515 0.40008 0.0
C189 C 0.14484 0.56722 0.44074 0.0
C190 C 0.12606 0.57219 0.47569 0.0
C191 C 0.08467 0.55866 0.47209 0.0
H192 H 0.07465 0.56918 0.44128 0.0
H193 H 0.07808 0.54104 0.47155 0.0
H194 H 0.08269 0.5656 0.51706 0.0
O195 O 0.1057 0.55788 0.27537 0.0
O196 O 0.14324 0.55867 0.26249 0.0
H197 H 0.16477 0.59709 0.45992 0.0
H198 H 0.17956 0.57067 0.46589 0.0
C199 C 0.16679 0.58006 0.43995 0.0
H200 H 0.1731 0.58184 0.39432 0.0
H201 H 0.19256 0.56396 0.27089 0.0
O202 O 0.06823 0.53677 0.36278 0.0
C203 C 0.12324 0.56492 0.24795 0.0
Co204 Co 0.99638 0.09961 0.84771 0.0
Co205 Co 0.99638 0.15219 0.83033 0.0
C206 C 0.03902 0.12338 0.81442 0.0
O207 O 0.02775 0.10591 0.82831 0.0
O208 O 0.02952 0.14284 0.81207 0.0
C209 C 1.0121 0.05461 0.86388 0.0
O210 O 0.0275 0.06008 0.82458 0.0
C211 C 1.00353 0.19743 0.88279 0.0
C212 C 0.9841 0.21968 0.82375 0.0
C213 C 0.99659 0.21984 0.87538 0.0
N214 N 0.99517 0.1848 0.83841 0.0
N215 N 0.98372 0.19829 0.80305 0.0
C216 C 1.0185 0.18807 0.92984 0.0
H217 H 0.02708 0.1725 0.91411 0.0
H218 H 1.0081 0.18346 0.96863 0.0
H219 H 0.03132 0.20086 0.94344 0.0
C220 C 0.97505 0.11098 0.95815 0.0
N221 N 0.9865 0.11757 0.91006 0.0
N222 N 0.98351 0.13935 0.90127 0.0
C223 C 0.96861 0.14696 0.94224 0.0
C224 C 0.96301 0.12914 0.97982 0.0
C225 C 0.97368 0.08706 0.97958 0.0
H226 H 0.991 0.07985 0.98108 0.0
H227 H 0.9661 0.086 0.02412 0.0
H228 H 0.96312 0.07694 0.94889 0.0
O229 O 0.9762 0.10429 0.77962 0.0
O230 O 0.97676 0.14156 0.76292 0.0
H231 H 0.95564 0.17538 0.89393 0.0
H232 H 0.93994 0.16849 0.96009 0.0
C233 C 0.95708 0.16947 0.93996 0.0
H234 H 0.96718 0.18203 0.96509 0.0
H235 H 0.97514 0.19281 0.76558 0.0
O236 O 0.99564 0.06795 0.87315 0.0
C237 C 0.96991 0.12153 0.75016 0.0
Co238 Co 0.43366 0.99659 0.34056 0.0
Co239 Co 0.38076 0.99608 0.33218 0.0
C240 C 0.40922 0.03831 0.30613 0.0
O241 O 0.42683 0.02714 0.3179 0.0
O242 O 0.38955 0.02898 0.30807 0.0
C243 C 0.47894 1.01277 0.34739 0.0
O244 O 0.4717 0.02948 0.3144 0.0
C245 C 0.33598 1.0038 0.3887 0.0
C246 C 0.31339 0.98224 0.33526 0.0
C247 C 0.31364 0.99606 0.38447 0.0
N248 N 0.34828 0.99461 0.34477 0.0
N249 N 0.33455 0.98189 0.3128 0.0
C250 C 0.34538 0.02047 0.43186 0.0
H251 H 0.36103 0.02851 0.41418 0.0
H252 H 0.34979 1.01171 0.47326 0.0
H253 H 0.33255 0.0336 0.44211 0.0
C254 C 0.42532 0.97839 0.45622 0.0
N255 N 0.41748 0.98818 0.40716 0.0
N256 N 0.39535 0.98548 0.40358 0.0
C257 C 0.38859 0.9727 0.45008 0.0
C258 C 0.40744 0.96795 0.48474 0.0
C259 C 0.44983 0.97792 0.47363 0.0
H260 H 0.45904 0.96582 0.44508 0.0
H261 H 0.45742 0.99501 0.46775 0.0
H262 H 0.45197 0.97272 0.52008 0.0
O263 O 0.42733 0.97473 0.27887 0.0
O264 O 0.38977 0.9742 0.26694 0.0
H265 H 0.35768 0.95954 0.41277 0.0
H266 H 0.36709 0.94516 0.47843 0.0
C267 C 0.3657 0.96186 0.4563 0.0
H268 H 0.35471 0.9727 0.48388 0.0
H269 H 0.33974 0.97249 0.27645 0.0
O270 O 0.46598 0.99605 0.35815 0.0
C271 C 0.40964 0.96714 0.25357 0.0
Co272 Co 0.4949 0.93767 0.82956 0.0
Co273 Co 0.49502 0.88462 0.83515 0.0
C274 C 0.53793 0.91268 0.81121 0.0
O275 O 0.52651 0.93067 0.81566 0.0
O276 O 0.52844 0.8932 0.81641 0.0
C277 C 0.5097 0.98326 0.83969 0.0
O278 O 0.52898 0.97566 0.81874 0.0
C279 C 0.5019 0.84365 0.90723 0.0
C280 C 0.4813 0.81799 0.86103 0.0
C281 C 0.49412 0.82131 0.91144 0.0
N282 N 0.49362 0.85301 0.85772 0.0
N283 N 0.48152 0.83746 0.83003 0.0
C284 C 0.51735 0.856 0.94844 0.0
H285 H 0.52649 0.86976 0.9249 0.0
H286 H 0.50725 0.86387 0.984 0.0
H287 H 0.52972 0.84416 0.96843 0.0
C288 C 0.47241 0.93323 0.94201 0.0
N289 N 0.4843 0.92386 0.89802 0.0
N290 N 0.48166 0.90172 0.89892 0.0
C291 C 0.46682 0.8965 0.9426 0.0
C292 C 0.46058 0.91639 0.97112 0.0
C293 C 0.47142 0.95814 0.95409 0.0
H294 H 0.48878 0.96538 0.95191 0.0
H295 H 0.46427 0.9617 0.99818 0.0
H296 H 0.46072 0.96648 0.92047 0.0
O297 O 0.47543 0.92818 0.7647 0.0
O298 O 0.47567 0.89038 0.76292 0.0
H299 H 0.43878 0.87551 0.97093 0.0
H300 H 0.46637 0.86339 0.98066 0.0
C301 C 0.45586 0.87379 0.9508 0.0
H302 H 0.45431 0.86494 0.90811 0.0
H303 H 0.47275 0.84034 0.791 0.0
O304 O 0.49232 0.97052 0.83901 0.0
C305 C 0.46898 0.90945 0.74256 0.0
Co306 Co 0.60385 0.50432 0.37777 0.0
Co307 Co 0.65293 0.49627 0.33517 0.0
C308 C 0.62751 0.54223 0.32425 0.0
O309 O 0.61059 0.53469 0.35248 0.0
O310 O 0.64455 0.52945 0.31315 0.0
C311 C 0.56156 0.48827 0.42446 0.0
O312 O 0.56748 0.46828 0.40443 0.0
C313 C 0.69856 0.50132 0.38264 0.0
C314 C 0.7203 0.4819 0.32244 0.0
C315 C 0.72078 0.49392 0.37488 0.0
N316 N 0.68566 0.49373 0.33788 0.0
N317 N 0.69882 0.48222 0.30177 0.0
C318 C 0.68952 0.51584 0.43107 0.0
H319 H 0.67425 0.52513 0.41605 0.0
H320 H 0.68449 0.50495 0.46861 0.0
H321 H 0.70265 0.52805 0.44619 0.0
C322 C 0.62037 0.48385 0.48532 0.0
N323 N 0.62461 0.49408 0.43366 0.0
N324 N 0.64323 0.48576 0.41107 0.0
C325 C 0.65012 0.46831 0.44517 0.0
C326 C 0.63582 0.46659 0.49375 0.0
C327 C 0.60049 0.48868 0.52414 0.0
H328 H 0.5876 0.47508 0.51926 0.0
H329 H 0.59317 0.50549 0.51398 0.0
H330 H 0.60599 0.48848 0.57072 0.0
O331 O 0.60289 0.48309 0.30958 0.0
O332 O 0.63764 0.47606 0.27587 0.0
H333 H 0.66926 0.45086 0.37897 0.0
H334 H 0.66443 0.43473 0.44595 0.0
C335 C 0.66802 0.45178 0.42751 0.0
H336 H 0.68462 0.45767 0.44489 0.0
H337 H 0.69306 0.47403 0.26402 0.0
O338 O 0.57401 0.50535 0.41357 0.0
C339 C 0.61611 0.47308 0.27356 0.0
Co340 Co 0.04079 0.59897 0.83022 0.0
Co341 Co 0.03925 0.65211 0.82762 0.0
C342 C 0.9978 0.62274 0.80072 0.0
O343 O 1.01001 0.60533 0.80627 0.0
O344 O 1.00602 0.64262 0.80891 0.0
C345 C 0.02499 0.55438 0.85353 0.0
O346 O 1.00532 0.56233 0.83623 0.0
C347 C 0.03003 0.69719 0.88276 0.0
C348 C 0.05329 0.71934 0.83275 0.0
C349 C 0.03807 0.71946 0.87924 0.0
N350 N 0.04037 0.68462 0.84104 0.0
N351 N 0.0541 0.69813 0.81114 0.0
C352 C 1.01198 0.68819 0.92286 0.0
H353 H 1.00469 0.67225 0.90505 0.0
H354 H 0.01928 0.6845 0.96655 0.0
H355 H 0.99843 0.701 0.92876 0.0
C356 C 0.05767 0.60688 0.9487 0.0
N357 N 0.04866 0.61487 0.89866 0.0
N358 N 0.0502 0.63714 0.89775 0.0
C359 C 0.06119 0.64385 0.94718 0.0
C360 C 0.06606 0.62483 0.98086 0.0
C361 C 0.05868 0.58233 0.96499 0.0
H362 H 0.04147 0.57487 0.96136 0.0
H363 H 0.06478 0.57976 0.01053 0.0
H364 H 0.0702 0.57336 0.93437 0.0
O365 O 0.06269 0.60641 0.76991 0.0
O366 O 0.06139 0.64398 0.76068 0.0
H367 H 0.07309 0.67635 0.9169 0.0
H368 H 0.08569 0.66678 0.98478 0.0
C369 C 0.06981 0.66731 0.95867 0.0
H370 H 0.05709 0.67678 0.9846 0.0
H371 H 0.06447 0.69274 0.77676 0.0
O372 O 0.0427 0.56647 0.84736 0.0
C373 C 0.06945 0.62465 0.7459 0.0
Co374 Co 0.93511 0.04066 0.33518 0.0
Co375 Co 0.88234 0.04183 0.32514 0.0
C376 C 0.91082 1.00017 0.2918 0.0
O377 O 0.92869 1.01072 0.30602 0.0
O378 O 0.8913 1.00965 0.29533 0.0
C379 C 0.98111 0.02608 0.34222 0.0
O380 O 0.97514 1.01009 0.30518 0.0
C381 C 0.83744 0.03303 0.38081 0.0
C382 C 0.81527 0.0563 0.33172 0.0
C383 C 0.81533 0.04138 0.37882 0.0
N384 N 0.8498 0.04296 0.33782 0.0
N385 N 0.83629 0.05667 0.30839 0.0
C386 C 0.84657 1.01525 0.4211 0.0
H387 H 0.86175 1.00716 0.40139 0.0
H388 H 0.85168 0.023 0.46333 0.0
H389 H 0.83334 1.00228 0.43039 0.0
C390 C 0.9261 0.0539 0.45547 0.0
N391 N 0.91856 0.04665 0.40313 0.0
N392 N 0.89659 0.0501 0.39898 0.0
C393 C 0.88976 0.06106 0.44832 0.0
C394 C 0.90829 0.06346 0.4857 0.0
C395 C 0.95038 0.05335 0.47453 0.0
H396 H 0.95996 0.06672 0.45076 0.0
H397 H 0.95775 0.0366 0.46381 0.0
H398 H 0.95209 0.05635 0.52239 0.0
O399 O 0.92916 0.0643 0.27761 0.0
O400 O 0.89176 0.06565 0.26435 0.0
H401 H 0.85944 0.07595 0.41267 0.0
H402 H 0.86949 0.08871 0.47997 0.0
C403 C 0.86734 0.07251 0.45582 0.0
H404 H 0.85589 0.0616 0.48229 0.0
H405 H 0.8416 0.06687 0.27351 0.0
O406 O 0.9672 0.0417 0.35453 0.0
C407 C 0.91184 0.07284 0.25302 0.0
Co408 Co 0.50926 0.6002 0.14184 0.0
Co409 Co 0.49863 0.64897 0.18376 0.0
C410 C 0.54589 0.6263 0.19347 0.0
O411 O 0.5394 0.60973 0.16271 0.0
O412 O 0.53201 0.6421 0.20709 0.0
C413 C 0.53068 0.55957 0.10422 0.0
O414 O 0.54765 0.56612 0.13753 0.0
C415 C 0.50348 0.69322 0.13184 0.0
C416 C 0.4807 0.71556 0.18171 0.0
C417 C 0.49438 0.71493 0.13202 0.0
N418 N 0.49526 0.6815 0.17796 0.0
N419 N 0.48183 0.69506 0.2082 0.0
C420 C 0.51956 0.68337 0.08787 0.0
H421 H 0.52997 0.66995 0.10856 0.0
H422 H 0.5098 0.6755 0.05158 0.0
H423 H 0.53075 0.69675 0.06926 0.0
C424 C 0.4851 0.61401 0.0378 0.0
N425 N 0.49618 0.61945 0.08737 0.0
N426 N 0.48816 0.63844 0.10838 0.0
C427 C 0.47043 0.64487 0.07447 0.0
C428 C 0.46804 0.6296 0.02827 0.0
C429 C 0.48782 0.59207 0.00593 0.0
H430 H 0.50604 0.58755 0.00378 0.0
H431 H 0.48098 0.59318 0.96065 0.0
H432 H 0.4783 0.57867 0.02979 0.0
O433 O 0.48924 0.59847 0.21216 0.0
O434 O 0.47924 0.63279 0.24378 0.0
H435 H 0.45283 0.66448 0.13937 0.0
H436 H 0.43702 0.65972 0.07201 0.0
C437 C 0.45406 0.66308 0.09092 0.0
H438 H 0.46033 0.67949 0.07334 0.0
H439 H 0.47251 0.69003 0.24497 0.0
O440 O 0.51212 0.57038 0.10571 0.0
C441 C 0.47827 0.61112 0.24775 0.0
Co442 Co 0.93646 0.49537 0.66031 0.0
Co443 Co 0.88367 0.49511 0.67511 0.0
C444 C 0.91266 0.53745 0.69575 0.0
O445 O 0.93019 0.52593 0.68505 0.0
O446 O 0.89281 0.52854 0.69298 0.0
C447 C 0.98155 0.51154 0.64313 0.0
O448 O 0.97583 0.52773 0.67974 0.0
C449 C 0.83821 0.50265 0.62295 0.0
C450 C 0.81666 0.47955 0.6751 0.0
C451 C 0.81619 0.49396 0.62694 0.0
N452 N 0.85101 0.49337 0.66575 0.0
N453 N 0.83788 0.47977 0.69708 0.0
C454 C 0.84691 0.52005 0.58061 0.0
H455 H 0.86183 0.52901 0.59934 0.0
H456 H 0.85236 0.51174 0.5394 0.0
H457 H 0.83337 0.53238 0.5698 0.0
C458 C 0.92531 0.47872 0.54392 0.0
N459 N 0.91869 0.48734 0.59564 0.0
N460 N 0.8967 0.48436 0.60233 0.0
C461 C 0.88891 0.47242 0.55547 0.0
C462 C 0.90686 0.46879 0.517 0.0
C463 C 0.94924 0.47883 0.52193 0.0
H464 H 0.95934 0.46664 0.54801 0.0
H465 H 0.95654 0.49605 0.52729 0.0
H466 H 0.95027 0.47403 0.47494 0.0
O467 O 0.93145 0.47334 0.72237 0.0
O468 O 0.89424 0.47348 0.74039 0.0
H469 H 0.85886 0.45845 0.59565 0.0
H470 H 0.86708 0.44517 0.52744 0.0
C471 C 0.86599 0.46151 0.55135 0.0
H472 H 0.85441 0.47262 0.52627 0.0
H473 H 0.84358 0.47 0.73222 0.0
O474 O 0.96824 0.49482 0.63577 0.0
C475 C 0.91429 0.46607 0.75067 0.0
Co476 Co 0.04037 0.93624 0.1631 0.0
Co477 Co 0.03867 0.88341 0.17516 0.0
C478 C 0.99706 0.91338 0.19535 0.0
O479 O 1.00893 0.93069 0.18359 0.0
O480 O 1.00582 0.89354 0.19499 0.0
C481 C 0.02637 0.98208 0.15253 0.0
O482 O 1.01103 0.97665 0.19205 0.0
C483 C 0.02978 0.8384 0.12097 0.0
C484 C 0.04974 0.81562 0.1774 0.0
C485 C 0.03649 0.81585 0.12709 0.0
N486 N 0.03899 0.85075 0.16486 0.0
N487 N 0.05075 0.83691 0.19862 0.0
C488 C 1.01408 0.84802 0.07592 0.0
H489 H 1.00618 0.8638 0.09258 0.0
H490 H 0.0237 0.85229 0.03558 0.0
H491 H 1.00075 0.83546 0.06428 0.0
C492 C 0.0592 0.92576 0.0487 0.0
N493 N 0.049 0.91889 0.09838 0.0
N494 N 0.05108 0.89683 0.10415 0.0
C495 C 0.06414 0.88923 0.05912 0.0
C496 C 0.0693 0.90738 0.02227 0.0
C497 C 0.06117 0.94996 0.02968 0.0
H498 H 0.07252 0.95916 0.06037 0.0
H499 H 0.04413 0.95782 0.03086 0.0
H500 H 0.06813 0.95156 0.9846 0.0
O501 O 0.06099 0.9301 0.22893 0.0
O502 O 0.05927 0.89271 0.24283 0.0
H503 H 0.07597 0.85863 0.1001 0.0
H504 H 0.09137 0.86693 0.03465 0.0
C505 C 0.07438 0.86612 0.05571 0.0
H506 H 0.06348 0.85502 0.02837 0.0
H507 H 0.05995 0.84209 0.23537 0.0
O508 O 0.04214 0.96819 0.14096 0.0
C509 C 0.06697 0.91235 0.25661 0.0
Co510 Co 0.60389 0.032 0.64558 0.0
Co511 Co 0.65412 0.03877 0.68035 0.0
C512 C 0.62656 0.9944 0.70227 0.0
O513 O 0.60947 1.00227 0.67591 0.0
O514 O 0.64463 1.00639 0.70885 0.0
C515 C 0.56191 0.04899 0.60203 0.0
O516 O 0.56981 0.06912 0.6161 0.0
C517 C 0.69941 0.03235 0.62978 0.0
C518 C 0.72184 0.05244 0.68714 0.0
C519 C 0.72179 0.0398 0.63571 0.0
N520 N 0.68693 0.04054 0.67462 0.0
N521 N 0.70053 0.05242 0.70903 0.0
C522 C 0.68991 1.01721 0.58314 0.0
H523 H 0.67457 1.00824 0.59963 0.0
H524 H 0.6849 0.02755 0.54468 0.0
H525 H 0.70281 1.00473 0.56872 0.0
C526 C 0.61942 0.0478 0.5318 0.0
N527 N 0.62404 0.03946 0.58538 0.0
N528 N 0.64356 0.04752 0.60348 0.0
C529 C 0.65084 0.06314 0.56403 0.0
C530 C 0.6358 0.06363 0.51689 0.0
C531 C 0.59846 0.04268 0.4972 0.0
H532 H 0.59016 0.02696 0.51314 0.0
H533 H 0.60294 0.04047 0.45024 0.0
H534 H 0.5867 0.05726 0.4997 0.0
O535 O 0.60522 0.05523 0.7084 0.0
O536 O 0.64078 0.06109 0.73777 0.0
H537 H 0.67315 0.08123 0.62231 0.0
H538 H 0.66667 0.09593 0.55426 0.0
C539 C 0.67011 0.0792 0.57456 0.0
H540 H 0.68569 0.07226 0.55405 0.0
H541 H 0.69515 0.06111 0.74636 0.0
O542 O 0.57336 0.03153 0.61471 0.0
C543 C 0.61955 0.06545 0.74104 0.0
H544 H 0.4881 0.04461 0.05468 0.0
H545 H 0.55507 0.02251 0.10465 0.0
H546 H 0.55878 1.00195 0.01204 0.0
H547 H 0.54318 0.99098 0.91682 0.0
H548 H 0.47605 1.01262 0.86743 0.0
H549 H 0.47257 0.03375 0.95936 0.0
C550 C 0.50328 0.03483 0.04597 0.0
C551 C 0.5212 0.03478 0.08653 0.0
C552 C 0.5056 0.02384 0.99201 0.0
C553 C 0.54097 0.02248 0.07418 0.0
C554 C 0.54323 1.01106 0.021 0.0
C555 C 0.52809 1.00091 0.9254 0.0
C556 C 0.51005 1.00072 0.88525 0.0
C557 C 0.52583 1.01203 0.9792 0.0
C558 C 0.49028 1.01301 0.89749 0.0
C559 C 0.48815 0.02469 0.95033 0.0
H560 H 0.55232 0.52591 0.48666 0.0
H561 H 0.5347 0.45497 0.47287 0.0
H562 H 0.51166 0.45795 0.56209 0.0
H563 H 0.49602 0.48115 0.64209 0.0
H564 H 0.51432 0.5519 0.65426 0.0
H565 H 0.53889 0.54817 0.56856 0.0
C566 C 0.54337 0.51104 0.50269 0.0
C567 C 0.54507 0.49027 0.47284 0.0
C568 C 0.53095 0.51269 0.55457 0.0
C569 C 0.53343 0.47122 0.49466 0.0
C570 C 0.52053 0.47285 0.54601 0.0
C571 C 0.50595 0.49555 0.62701 0.0
C572 C 0.50357 0.51676 0.6543 0.0
C573 C 0.51931 0.49348 0.57645 0.0
C574 C 0.51614 0.53541 0.63394 0.0
C575 C 0.52987 0.53336 0.58458 0.0
H576 H 0.04881 0.49009 0.06213 0.0
H577 H 0.98073 0.50819 0.11355 0.0
H578 H 0.97655 0.53068 0.02413 0.0
H579 H 0.99195 0.54426 0.93087 0.0
H580 H 0.06014 0.52653 0.87989 0.0
H581 H 0.06428 0.50384 0.96909 0.0
C582 C 0.03325 0.49939 0.0545 0.0
C583 C 1.01516 0.49773 0.09449 0.0
C584 C 0.03071 0.51158 1.0023 0.0
C585 C 0.99495 0.50949 0.08352 0.0
C586 C 0.99244 0.52204 0.03212 0.0
C587 C 1.0075 0.53495 0.93852 0.0
C588 C 0.02561 0.53669 0.89867 0.0
C589 C 1.01005 0.5228 0.99075 0.0
C590 C 0.04588 0.52507 0.90977 0.0
C591 C 0.04836 0.51243 0.96104 0.0
H592 H 0.03999 0.98872 0.54632 0.0
H593 H 0.03421 0.05818 0.60377 0.0
H594 H 1.01362 0.06756 0.51415 0.0
H595 H 0.9986 0.05627 0.41875 0.0
H596 H 1.00434 0.98679 0.36155 0.0
H597 H 0.02606 0.97771 0.4496 0.0
C598 C 0.03431 1.00594 0.53924 0.0
C599 C 0.03892 0.02279 0.58119 0.0
C600 C 0.02352 1.01142 0.48669 0.0
C601 C 0.03087 0.04488 0.57218 0.0
C602 C 0.01946 0.05035 0.52056 0.0
C603 C 1.00478 0.03917 0.42529 0.0
C604 C 0.99951 0.02213 0.38442 0.0
C605 C 1.01611 0.03384 0.47717 0.0
C606 C 1.00812 1.00021 0.39249 0.0
C607 C 0.02015 0.99491 0.4433 0.0
H608 H 0.56473 0.50333 0.88828 0.0
H609 H 0.49377 0.5078 0.8429 0.0
H610 H 0.48682 0.53087 0.92989 0.0
H611 H 0.49989 0.54486 0.02476 0.0
H612 H 0.57078 0.54024 0.07105 0.0
H613 H 0.57838 0.51994 0.97983 0.0
C614 C 0.54782 0.50973 0.89689 0.0
C615 C 0.5297 0.50348 0.86016 0.0
C616 C 0.54372 0.52175 0.94849 0.0
C617 C 0.50799 0.5123 0.87072 0.0
C618 C 0.50392 0.52507 0.92105 0.0
C619 C 0.51707 0.5397 0.01472 0.0
C620 C 0.53477 0.5443 0.05433 0.0
C621 C 0.52147 0.52897 0.96139 0.0
C622 C 0.55682 0.53685 0.0414 0.0
C623 C 0.56125 0.52558 0.9889 0.0
H624 H 0.99796 0.48169 0.56382 0.0
H625 H 1.00267 0.55168 0.6179 0.0
H626 H 0.02325 0.56093 0.52799 0.0
H627 H 0.03785 0.54957 0.43227 0.0
H628 H 0.03401 0.47946 0.37896 0.0
H629 H 1.01282 0.47027 0.46808 0.0
C630 C 1.00356 0.49896 0.55607 0.0
C631 C 0.99851 0.51602 0.59703 0.0
C632 C 1.01449 0.50433 0.50338 0.0
C633 C 1.00635 0.53821 0.58711 0.0
C634 C 1.01775 0.5436 0.53527 0.0
C635 C 0.03239 0.53226 0.44008 0.0
C636 C 0.0379 0.51517 0.39968 0.0
C637 C 0.02141 0.52689 0.49264 0.0
C638 C 0.03004 0.49296 0.40942 0.0
C639 C 1.01829 0.48761 0.46083 0.0
H640 H 0.05446 0.9977 0.06754 0.0
H641 H 0.98665 1.00505 0.13686 0.0
H642 H 0.97553 0.02604 0.04927 0.0
H643 H 0.98434 0.03973 0.9506 0.0
H644 H 0.05216 0.03241 0.88124 0.0
H645 H 0.0634 1.01179 0.96933 0.0
C646 C 0.03726 1.00395 0.06363 0.0
C647 C 0.02132 0.99947 0.10813 0.0
C648 C 0.03071 1.01501 0.01217 0.0
C649 C 0.99927 1.00824 0.10322 0.0
C650 C 0.99278 0.01989 0.05273 0.0
C651 C 1.0016 0.03367 0.95471 0.0
C652 C 1.01746 0.03791 0.90984 0.0
C653 C 1.00821 0.0228 0.00638 0.0
C654 C 0.03958 0.02936 0.91508 0.0
C655 C 0.04613 0.01791 0.96583 0.0
H656 H 0.49438 0.05284 0.38895 0.0
H657 H 0.50496 0.98057 0.39767 0.0
H658 H 0.53014 0.98558 0.48155 0.0
H659 H 0.54706 1.00993 0.55472 0.0
H660 H 0.53764 0.08241 0.54682 0.0
H661 H 0.513 0.07775 0.46114 0.0
C662 C 0.50271 0.03828 0.40828 0.0
C663 C 0.49805 1.01638 0.38723 0.0
C664 C 0.51656 0.04123 0.45757 0.0
C665 C 0.50852 0.99758 0.41314 0.0
C666 C 0.52263 1.0004 0.46142 0.0
C667 C 0.53953 0.02479 0.53473 0.0
C668 C 0.54411 0.04649 0.55722 0.0
C669 C 0.52626 0.02206 0.48472 0.0
C670 C 0.53419 0.0655 0.53064 0.0
C671 C 0.52038 0.06286 0.48126 0.0
H672 H 0.53846 0.25786 0.13194 0.0
H673 H 0.54054 0.2055 1.00019 0.0
H674 H 0.53875 0.23391 0.92293 0.0
H675 H 0.53912 0.2739 0.89191 0.0
H676 H 0.53786 0.32649 0.02305 0.0
H677 H 0.53658 0.29801 0.10062 0.0
C678 C 0.53823 0.25269 0.08629 0.0
C679 C 0.53915 0.22944 0.07226 0.0
C680 C 0.53739 0.26927 0.04163 0.0
C681 C 0.53907 0.22308 0.01277 0.0
C682 C 0.53834 0.23942 0.96828 0.0
C683 C 0.53825 0.27913 0.93747 0.0
C684 C 0.53817 0.3024 0.95126 0.0
C685 C 0.53776 0.26257 0.98211 0.0
C686 C 0.53722 0.30882 0.01066 0.0
C687 C 0.5368 0.29246 0.0553 0.0
H688 H 0.29642 0.57301 0.56453 0.0
H689 H 0.30359 0.50055 0.57739 0.0
H690 H 0.27253 0.49532 0.50705 0.0
H691 H 0.24301 0.51169 0.44098 0.0
H692 H 0.23782 0.58432 0.42653 0.0
H693 H 0.26807 0.58913 0.4985 0.0
C694 C 0.29119 0.55603 0.55206 0.0
C695 C 0.3025 0.53721 0.57604 0.0
C696 C 0.27348 0.5532 0.51131 0.0
C697 C 0.29554 0.51537 0.55895 0.0
C698 C 0.27761 0.51238 0.519 0.0
C699 C 0.24845 0.52851 0.45405 0.0
C700 C 0.23809 0.54765 0.42865 0.0
C701 C 0.2664 0.53119 0.49479 0.0
C702 C 0.24555 0.56935 0.44527 0.0
C703 C 0.26285 0.57212 0.48649 0.0
H704 H 0.99949 0.31523 1.00243 0.0
H705 H 0.99826 0.27247 0.15596 0.0
H706 H 0.99961 0.23881 0.09396 0.0
H707 H 0.99859 0.2214 0.99613 0.0
H708 H 0.99996 0.264 0.84237 0.0
H709 H 1.0012 0.29773 0.90441 0.0
C710 C 1.00022 0.29864 0.02255 0.0
C711 C 0.99915 0.29655 0.08413 0.0
C712 C 1.00082 0.27921 0.98644 0.0
C713 C 0.99914 0.27468 0.10882 0.0
C714 C 0.99991 0.25536 0.07334 0.0
C715 C 0.99991 0.23795 0.97595 0.0
C716 C 0.99963 0.23999 0.91433 0.0
C717 C 1.00047 0.25738 0.01203 0.0
C718 C 1.00027 0.26184 0.88956 0.0
C719 C 1.00097 0.28119 0.92507 0.0
H720 H 0.21928 0.9989 0.51623 0.0
H721 H 0.26287 0.99543 0.66769 0.0
H722 H 0.29634 0.99765 0.60425 0.0
H723 H 0.31324 0.99796 0.50507 0.0
H724 H 0.26941 1.0004 0.3539 0.0
H725 H 0.2361 1.00151 0.41778 0.0
C726 C 0.23603 0.99934 0.53566 0.0
C727 C 0.23845 0.99747 0.59698 0.0
C728 C 0.25525 1.00029 0.49874 0.0
C729 C 0.26046 0.99701 0.62075 0.0
C730 C 0.27964 0.99826 0.58444 0.0
C731 C 0.29648 0.99941 0.48608 0.0
C732 C 0.29392 0.99949 0.42458 0.0
C733 C 0.27727 0.99962 0.52324 0.0
C734 C 0.2719 1.00044 0.40099 0.0
C735 C 0.25282 1.00104 0.43754 0.0
H736 H 0.49725 0.76104 0.14308 0.0
H737 H 0.49213 0.70802 0.01361 0.0
H738 H 0.4932 0.73593 0.93516 0.0
H739 H 0.49439 0.77551 0.90238 0.0
H740 H 0.49731 0.82903 0.03095 0.0
H741 H 0.49853 0.80111 0.10972 0.0
C742 C 0.49654 0.75565 0.09765 0.0
C743 C 0.49539 0.73233 0.08451 0.0
C744 C 0.49684 0.77197 0.0522 0.0
C745 C 0.49407 0.72567 0.02533 0.0
C746 C 0.49437 0.74171 0.98019 0.0
C747 C 0.4955 0.78111 0.94762 0.0
C748 C 0.49639 0.80447 0.96013 0.0
C749 C 0.49572 0.7649 0.99302 0.0
C750 C 0.49753 0.8113 0.01926 0.0
C751 C 0.49787 0.79525 0.06469 0.0
H752 H 0.81562 0.49835 0.50641 0.0
H753 H 0.77174 0.49451 0.65772 0.0
H754 H 0.73844 0.49495 0.5941 0.0
H755 H 0.72178 0.49403 0.49558 0.0
H756 H 0.7653 0.49779 0.34365 0.0
H757 H 0.79868 0.4996 0.40732 0.0
C758 C 0.79882 0.49828 0.52565 0.0
C759 C 0.79629 0.49682 0.58713 0.0
C760 C 0.77961 0.49823 0.48855 0.0
C761 C 0.77424 0.49578 0.61073 0.0
C762 C 0.75515 0.49598 0.57431 0.0
C763 C 0.73843 0.49599 0.47615 0.0
C764 C 0.74084 0.49635 0.41459 0.0
C765 C 0.7576 0.49694 0.51311 0.0
C766 C 0.76285 0.49765 0.39077 0.0
C767 C 0.78199 0.49871 0.42722 0.0
H768 H 0.0342 0.8146 0.00639 0.0
H769 H 0.03168 0.77178 0.15961 0.0
H770 H 0.02996 0.73815 0.09726 0.0
H771 H 0.03224 0.72069 0.99914 0.0
H772 H 0.03569 0.76356 0.84615 0.0
H773 H 0.03371 0.79722 0.90822 0.0
C774 C 0.03256 0.79801 0.02628 0.0
C775 C 0.0327 0.79588 0.0879 0.0
C776 C 0.03193 0.77861 0.98999 0.0
C777 C 0.03151 0.77401 0.11243 0.0
C778 C 0.03055 0.75471 0.07673 0.0
C779 C 0.03184 0.73733 0.97917 0.0
C780 C 0.03375 0.73947 0.91775 0.0
C781 C 0.03111 0.75675 0.01539 0.0
C782 C 0.03413 0.76135 0.89318 0.0
C783 C 0.03304 0.78066 0.92872 0.0
H784 H 0.81566 0.03639 0.49912 0.0
H785 H 0.77071 0.03965 0.35023 0.0
H786 H 0.73784 0.03831 0.41555 0.0
H787 H 0.72184 0.03892 0.51499 0.0
H788 H 0.76648 0.03618 0.66451 0.0
H789 H 0.79941 0.03471 0.59909 0.0
C790 C 0.79872 0.03613 0.48079 0.0
C791 C 0.79576 0.03773 0.41951 0.0
C792 C 0.77976 0.03573 0.51889 0.0
C793 C 0.77354 0.0383 0.39706 0.0
C794 C 0.75469 0.03759 0.43446 0.0
C795 C 0.73865 0.03726 0.5335 0.0
C796 C 0.74151 0.03713 0.59492 0.0
C797 C 0.75757 0.03661 0.49551 0.0
C798 C 0.76369 0.03615 0.61754 0.0
C799 C 0.78257 0.0353 0.58008 0.0
H800 H 0.46228 0.105 0.15407 0.0
H801 H 0.48749 0.12501 0.32355 0.0
H802 H 0.4563 0.10454 0.37126 0.0
H803 H 0.42796 0.07363 0.3641 0.0
H804 H 0.40311 0.05318 0.19464 0.0
H805 H 0.42737 0.08161 0.14742 0.0
C806 C 0.46018 0.10591 0.20131 0.0
C807 C 0.47708 0.11674 0.23523 0.0
C808 C 0.44239 0.09366 0.22841 0.0
C809 C 0.47451 0.11727 0.29645 0.0
C810 C 0.45683 0.10521 0.32376 0.0
C811 C 0.42686 0.07635 0.3171 0.0
C812 C 0.41353 0.06141 0.28298 0.0
C813 C 0.44143 0.09235 0.29023 0.0
C814 C 0.41276 0.06472 0.222 0.0
C815 C 0.42703 0.08072 0.19491 0.0
H816 H 0.46571 0.4268 0.86098 0.0
H817 H 0.4874 0.40845 0.68711 0.0
H818 H 0.4562 0.43024 0.64485 0.0
H819 H 0.42904 0.46167 0.65776 0.0
H820 H 0.40803 0.48079 0.83157 0.0
H821 H 0.43191 0.45114 0.87359 0.0
C822 C 0.46277 0.4265 0.814 0.0
C823 C 0.47867 0.41564 0.77729 0.0
C824 C 0.44502 0.43961 0.79 0.0
C825 C 0.47512 0.4161 0.71638 0.0
C826 C 0.45745 0.42892 0.69217 0.0
C827 C 0.42861 0.45839 0.7046 0.0
C828 C 0.41641 0.47324 0.74139 0.0
C829 C 0.44307 0.44172 0.72848 0.0
C830 C 0.4167 0.46929 0.80217 0.0
C831 C 0.43079 0.45258 0.82627 0.0
H832 H 0.10796 0.45891 0.36354 0.0
H833 H 0.13344 0.48264 0.19735 0.0
H834 H 0.11098 0.4538 0.14637 0.0
H835 H 0.07718 0.42863 0.14906 0.0
H836 H 0.0521 0.40453 0.31532 0.0
H837 H 0.08157 0.42615 0.36641 0.0
C838 C 0.10962 0.45687 0.31642 0.0
C839 C 0.12255 0.47283 0.28435 0.0
C840 C 0.09627 0.44042 0.28735 0.0
C841 C 0.12406 0.47034 0.22319 0.0
C842 C 0.11083 0.45406 0.19392 0.0
C843 C 0.07902 0.42708 0.19625 0.0
C844 C 0.06258 0.41476 0.22831 0.0
C845 C 0.0959 0.4399 0.22539 0.0
C846 C 0.06479 0.41343 0.28955 0.0
C847 C 0.08145 0.42616 0.31886 0.0
H848 H 0.10934 0.07704 0.65639 0.0
H849 H 0.12756 0.04639 0.82106 0.0
H850 H 0.10518 0.07468 0.87377 0.0
H851 H 0.07339 0.10193 0.8701 0.0
H852 H 0.05534 0.13279 0.70553 0.0
H853 H 0.08504 0.11118 0.65573 0.0
C854 C 0.10943 0.07736 0.70399 0.0
C855 C 0.12026 0.05969 0.73478 0.0
C856 C 0.09612 0.0935 0.7339 0.0
C857 C 0.1198 0.06 0.79637 0.0
C858 C 0.10663 0.07598 0.82648 0.0
C859 C 0.07679 0.10481 0.82389 0.0
C860 C 0.06221 0.11906 0.7916 0.0
C861 C 0.09372 0.09199 0.79544 0.0
C862 C 0.06652 0.1223 0.73156 0.0
C863 C 0.0833 0.10961 0.7029 0.0
H864 H 0.61272 0.95406 0.65758 0.0
H865 H 0.62835 0.98789 0.81996 0.0
H866 H 0.60435 0.96097 0.87348 0.0
H867 H 0.57176 0.93434 0.86909 0.0
H868 H 0.55626 0.90037 0.70684 0.0
H869 H 0.58767 0.92026 0.65841 0.0
C870 C 0.61188 0.95473 0.7051 0.0
C871 C 0.62239 0.97296 0.73475 0.0
C872 C 0.59761 0.93939 0.7354 0.0
C873 C 0.62081 0.97386 0.79619 0.0
C874 C 0.6067 0.95867 0.82669 0.0
C875 C 0.57609 0.93037 0.82398 0.0
C876 C 0.56177 0.91576 0.79168 0.0
C877 C 0.59399 0.94224 0.79622 0.0
C878 C 0.56723 0.91116 0.73292 0.0
C879 C 0.585 0.92287 0.70498 0.0
H880 H 0.58474 0.60866 0.14895 0.0
H881 H 0.55544 0.63446 0.30868 0.0
H882 H 0.58312 0.61321 0.36628 0.0
H883 H 0.60859 0.58008 0.37048 0.0
H884 H 0.63708 0.55346 0.2107 0.0
H885 H 0.61726 0.58246 0.15396 0.0
C886 C 0.58513 0.61049 0.1963 0.0
C887 C 0.56784 0.62299 0.22445 0.0
C888 C 0.60067 0.59758 0.22919 0.0
C889 C 0.56856 0.62516 0.28579 0.0
C890 C 0.58419 0.61264 0.31883 0.0
C891 C 0.61128 0.5813 0.32348 0.0
C892 C 0.62418 0.56447 0.29482 0.0
C893 C 0.59933 0.59772 0.29102 0.0
C894 C 0.62746 0.56623 0.23394 0.0
C895 C 0.61581 0.58266 0.20136 0.0
H896 H 0.97465 0.62052 0.69738 0.0
H897 H 0.96744 0.61127 0.88371 0.0
H898 H 0.93504 0.58604 0.86821 0.0
H899 H 0.91543 0.55954 0.80064 0.0
H900 H 0.92268 0.56884 0.61431 0.0
H901 H 0.94765 0.60136 0.6304 0.0
C902 C 0.9651 0.61409 0.73459 0.0
C903 C 0.9733 0.61809 0.7917 0.0
C904 C 0.94665 0.5991 0.72515 0.0
C905 C 0.96118 0.60893 0.83942 0.0
C906 C 0.94284 0.59412 0.83048 0.0
C907 C 0.92135 0.56955 0.7637 0.0
C908 C 0.9169 0.5619 0.70629 0.0
C909 C 0.93624 0.58807 0.77342 0.0
C910 C 0.9254 0.57464 0.65887 0.0
C911 C 0.94007 0.59305 0.6681 0.0
H912 H 0.92543 0.962 0.34554 0.0
H913 H 0.90772 0.98933 0.17669 0.0
H914 H 0.9308 0.96047 0.12829 0.0
H915 H 0.96283 0.93364 0.13628 0.0
H916 H 0.9805 0.90616 0.30503 0.0
H917 H 0.95035 0.92834 0.35122 0.0
C918 C 0.92558 0.96078 0.29804 0.0
C919 C 0.91456 0.97764 0.26474 0.0
C920 C 0.93934 0.94433 0.2706 0.0
C921 C 0.91551 0.97628 0.20328 0.0
C922 C 0.9291 0.95998 0.17563 0.0
C923 C 0.95925 0.93159 0.18269 0.0
C924 C 0.97378 0.91805 0.21709 0.0
C925 C 0.94205 0.94473 0.20902 0.0
C926 C 0.96931 0.91601 0.2774 0.0
C927 C 0.95227 0.92904 0.30396 0.0
H928 H 0.63748 0.07923 0.84712 0.0
H929 H 0.58058 0.0891 0.73091 0.0
H930 H 0.56116 0.11117 0.80537 0.0
H931 H 0.55762 0.12277 0.90813 0.0
H932 H 0.61311 0.11202 0.02708 0.0
H933 H 0.63592 0.09577 0.94742 0.0
C934 C 0.62109 0.08667 0.83777 0.0
C935 C 0.61039 0.08214 0.78374 0.0
C936 C 0.60966 0.09919 0.88157 0.0
C937 C 0.58909 0.09192 0.77239 0.0
C938 C 0.57791 0.10463 0.81498 0.0
C939 C 0.57504 0.11769 0.91581 0.0
C940 C 0.58389 0.11888 0.97276 0.0
C941 C 0.58765 0.10771 0.87035 0.0
C942 C 0.60621 0.11167 0.98304 0.0
C943 C 0.6191 0.1021 0.93768 0.0
H944 H 0.4342 0.54554 0.43511 0.0
H945 H 0.41541 0.60856 0.51582 0.0
H946 H 0.43091 0.62965 0.43158 0.0
H947 H 0.45351 0.62993 0.33899 0.0
H948 H 0.47231 0.5658 0.26169 0.0
H949 H 0.45323 0.5456 0.33993 0.0
C950 C 0.43295 0.56387 0.43325 0.0
C951 C 0.4235 0.57553 0.4808 0.0
C952 C 0.44234 0.57575 0.38563 0.0
C953 C 0.4223 0.59928 0.47894 0.0
C954 C 0.43141 0.6113 0.43114 0.0
C955 C 0.45323 0.61156 0.33902 0.0
C956 C 0.46472 0.59958 0.29448 0.0
C957 C 0.44208 0.59973 0.38483 0.0
C958 C 0.46396 0.57569 0.29533 0.0
C959 C 0.45295 0.56396 0.34017 0.0
H960 H 0.966 0.39955 0.91404 0.0
H961 H 0.92599 0.43326 0.04527 0.0
H962 H 0.90281 0.45095 0.969 0.0
H963 H 0.89918 0.46262 0.86469 0.0
H964 H 0.94058 0.42957 0.73462 0.0
H965 H 0.95746 0.40562 0.80969 0.0
C966 C 0.95157 0.40998 0.92572 0.0
C967 C 0.94763 0.41511 0.98485 0.0
C968 C 0.93878 0.42063 0.88151 0.0
C969 C 0.92915 0.42897 0.99977 0.0
C970 C 0.91608 0.4393 0.95614 0.0
C971 C 0.91127 0.44961 0.85275 0.0
C972 C 0.91881 0.44804 0.79435 0.0
C973 C 0.92145 0.43616 0.89672 0.0
C974 C 0.93468 0.43124 0.77947 0.0
C975 C 0.94443 0.41757 0.82241 0.0
H976 H 0.10237 0.9414 0.26362 0.0
H977 H 0.06602 0.89079 0.36313 0.0
H978 H 0.08628 0.90236 0.45233 0.0
H979 H 0.10941 0.93133 0.50396 0.0
H980 H 0.14512 0.98208 0.40384 0.0
H981 H 0.13058 0.96572 0.31251 0.0
C982 C 0.09927 0.93256 0.30464 0.0
C983 C 0.0825 0.91549 0.3071 0.0
C984 C 0.1109 0.93938 0.3555 0.0
C985 C 0.07883 0.90397 0.3602 0.0
C986 C 0.09032 0.9107 0.41122 0.0
C987 C 0.11476 0.9381 0.46187 0.0
C988 C 0.1285 0.95769 0.46021 0.0
C989 C 0.10576 0.92894 0.40975 0.0
C990 C 0.13493 0.96676 0.40584 0.0
C991 C 0.12633 0.9576 0.35378 0.0
H992 H 0.55248 0.42286 0.09254 0.0
H993 H 0.61476 0.41846 0.99479 0.0
H994 H 0.63588 0.43457 0.07795 0.0
H995 H 0.63559 0.45404 0.17476 0.0
H996 H 0.57225 0.45879 0.26968 0.0
H997 H 0.55279 0.43845 0.1921 0.0
C998 C 0.57079 0.42476 0.09041 0.0
C999 C 0.58218 0.41918 0.03839 0.0
C1000 C 0.5826 0.43457 0.13764 0.0
C1001 C 0.60579 0.42224 0.03511 0.0
C1002 C 0.61778 0.43171 0.08237 0.0
C1003 C 0.61762 0.45035 0.1788 0.0
C1004 C 0.60547 0.45835 0.22793 0.0
C1005 C 0.60625 0.43859 0.13334 0.0
C1006 C 0.58212 0.45325 0.23226 0.0
C1007 C 0.57087 0.44151 0.18784 0.0
H1008 H 0.13983 0.57657 0.58856 0.0
H1009 H 0.10155 0.60988 0.45335 0.0
H1010 H 0.08261 0.63344 0.52664 0.0
H1011 H 0.07109 0.63823 0.6307 0.0
H1012 H 0.10914 0.60403 0.76523 0.0
H1013 H 0.13427 0.58775 0.69162 0.0
C1014 C 0.12813 0.58973 0.57516 0.0
C1015 C 0.12199 0.59148 0.51596 0.0
C1016 C 0.11689 0.60284 0.61782 0.0
C1017 C 0.10657 0.60837 0.4989 0.0
C1018 C 0.09553 0.62165 0.54089 0.0
C1019 C 0.08549 0.62804 0.64382 0.0
C1020 C 0.08821 0.62222 0.70318 0.0
C1021 C 0.09965 0.61818 0.60081 0.0
C1022 C 0.10673 0.60869 0.71966 0.0
C1023 C 0.12102 0.59921 0.67754 0.0
H1024 H 0.89511 0.07931 0.14173 0.0
H1025 H 0.9396 0.10828 0.27187 0.0
H1026 H 0.95653 0.13316 0.19846 0.0
H1027 H 0.96435 0.14049 0.09431 0.0
H1028 H 0.92142 0.11064 0.96269 0.0
H1029 H 0.89795 0.09288 0.03877 0.0
C1030 C 0.90788 0.0917 0.15421 0.0
C1031 C 0.91628 0.09179 0.21191 0.0
C1032 C 0.91808 0.10566 0.11109 0.0
C1033 C 0.93301 0.10777 0.2275 0.0
C1034 C 0.94279 0.12196 0.18549 0.0
C1035 C 0.94919 0.13103 0.08263 0.0
C1036 C 0.94447 0.12696 0.02333 0.0
C1037 C 0.9363 0.12022 0.12663 0.0
C1038 C 0.9251 0.11423 0.00833 0.0
C1039 C 0.9119 0.10379 0.05183 0.0
H1040 H 0.43061 0.92863 0.49325 0.0
H1041 H 0.38981 0.97518 0.5929 0.0
H1042 H 0.4028 0.9578 0.68452 0.0
H1043 H 0.43129 0.93456 0.73493 0.0
H1044 H 0.47299 0.88856 0.63594 0.0
H1045 H 0.45393 0.90013 0.54505 0.0
C1046 C 0.42401 0.93435 0.53513 0.0
C1047 C 0.40945 0.95319 0.53687 0.0
C1048 C 0.43201 0.9246 0.58742 0.0
C1049 C 0.40095 0.96064 0.59088 0.0
C1050 C 0.40857 0.95086 0.64313 0.0
C1051 C 0.43567 0.92657 0.69358 0.0
C1052 C 0.45358 0.91089 0.6917 0.0
C1053 C 0.42492 0.9336 0.64183 0.0
C1054 C 0.45916 0.90055 0.63826 0.0
C1055 C 0.44841 0.90736 0.58635 0.0
H1056 H 0.45983 0.90227 0.08406 0.0
H1057 H 0.4218 0.94028 0.95689 0.0
H1058 H 0.39856 0.95676 0.03484 0.0
H1059 H 0.3946 0.9661 0.14023 0.0
H1060 H 0.43433 0.92936 0.26677 0.0
H1061 H 0.45086 0.90634 0.18898 0.0
C1062 C 0.44588 0.91349 0.07355 0.0
C1063 C 0.44259 0.92028 0.01531 0.0
C1064 C 0.43306 0.92342 0.11882 0.0
C1065 C 0.42461 0.93495 1.00179 0.0
C1066 C 0.41145 0.9445 0.04636 0.0
C1067 C 0.40618 0.95245 0.1507 0.0
C1068 C 0.41335 0.94946 0.20888 0.0
C1069 C 0.41627 0.93974 0.1053 0.0
C1070 C 0.42864 0.93196 0.22206 0.0
C1071 C 0.43823 0.91889 0.17758 0.0
H1072 H 0.57572 0.39919 0.63262 0.0
H1073 H 0.61524 0.42637 0.77515 0.0
H1074 H 0.64173 0.4437 0.70592 0.0
H1075 H 0.64845 0.45801 0.60581 0.0
H1076 H 0.60896 0.43144 0.46273 0.0
H1077 H 0.58803 0.40674 0.53024 0.0
C1078 C 0.59075 0.40796 0.64825 0.0
C1079 C 0.59363 0.41143 0.70879 0.0
C1080 C 0.60572 0.41841 0.60787 0.0
C1081 C 0.61286 0.42333 0.72866 0.0
C1082 C 0.62788 0.43347 0.68906 0.0
C1083 C 0.63605 0.44597 0.58928 0.0
C1084 C 0.63033 0.44635 0.52959 0.0
C1085 C 0.62381 0.43213 0.62864 0.0
C1086 C 0.61386 0.4311 0.50855 0.0
C1087 C 0.60167 0.41721 0.54729 0.0
H1088 H 0.10763 0.60692 0.99824 0.0
H1089 H 0.05099 0.6368 0.08859 0.0
H1090 H 0.06542 0.62266 0.18248 0.0
H1091 H 0.09069 0.59666 0.23539 0.0
H1092 H 0.14745 0.56653 0.14545 0.0
H1093 H 0.13669 0.58607 0.05474 0.0
C1094 C 0.099 0.61101 0.03893 0.0
C1095 C 0.07836 0.62288 0.03704 0.0
C1096 C 0.10718 0.60237 0.09236 0.0
C1097 C 0.06703 0.6279 0.08947 0.0
C1098 C 0.07514 0.61957 0.14289 0.0
C1099 C 0.10094 0.59471 0.19615 0.0
C1100 C 0.11961 0.57989 0.1967 0.0
C1101 C 0.09464 0.60596 0.14441 0.0
C1102 C 0.13298 0.57778 0.14598 0.0
C1103 C 0.12675 0.58887 0.0941 0.0
H1104 H 0.93742 0.08929 0.73886 0.0
H1105 H 0.96925 0.14464 0.64602 0.0
H1106 H 0.94945 0.13355 0.55588 0.0
H1107 H 0.92757 0.10463 0.50091 0.0
H1108 H 0.89592 0.04944 0.59416 0.0
H1109 H 0.91069 0.06415 0.68721 0.0
C1110 C 0.93972 0.09915 0.69908 0.0
C1111 C 0.95505 0.11754 0.69875 0.0
C1112 C 0.92826 0.09268 0.64767 0.0
C1113 C 0.9576 0.1304 0.64729 0.0
C1114 C 0.94635 0.12399 0.59572 0.0
C1115 C 0.92322 0.09642 0.54205 0.0
C1116 C 0.91056 0.07615 0.54123 0.0
C1117 C 0.93221 0.10474 0.59501 0.0
C1118 C 0.90533 0.06526 0.59422 0.0
C1119 C 0.91403 0.07351 0.64717 0.0
H1120 H 0.45947 0.643 0.91705 0.0
H1121 H 0.43269 0.60271 0.05861 0.0
H1122 H 0.40837 0.58191 0.99011 0.0
H1123 H 0.40167 0.56975 0.88736 0.0
H1124 H 0.42947 0.60977 0.74628 0.0
H1125 H 0.44584 0.63641 0.81642 0.0
C1126 C 0.44744 0.63046 0.93304 0.0
C1127 C 0.44771 0.62442 0.99253 0.0
C1128 C 0.43395 0.6182 0.89306 0.0
C1129 C 0.43246 0.6078 0.01291 0.0
C1130 C 0.4188 0.59569 0.9736 0.0
C1131 C 0.41038 0.5849 0.87222 0.0
C1132 C 0.41433 0.58789 0.8119 0.0
C1133 C 0.42032 0.59991 0.91312 0.0
C1134 C 0.42609 0.60729 0.79262 0.0
C1135 C 0.43567 0.6224 0.83273 0.0
H1136 H 0.93537 0.4425 0.2657 0.0
H1137 H 0.96795 0.38828 0.35975 0.0
H1138 H 0.94711 0.39854 0.44902 0.0
H1139 H 0.92502 0.42727 0.50334 0.0
H1140 H 0.89311 0.48168 0.40903 0.0
H1141 H 0.90772 0.46673 0.3162 0.0
C1142 C 0.93751 0.43263 0.30548 0.0
C1143 C 0.95343 0.41493 0.30666 0.0
C1144 C 0.92557 0.4387 0.35639 0.0
C1145 C 0.95584 0.40202 0.35798 0.0
C1146 C 0.94402 0.40797 0.40902 0.0
C1147 C 0.92048 0.43518 0.46202 0.0
C1148 C 0.90795 0.45541 0.46246 0.0
C1149 C 0.92953 0.42683 0.40924 0.0
C1150 C 0.90245 0.46591 0.40925 0.0
C1151 C 0.91109 0.45754 0.35642 0.0
H1152 H 0.13597 0.95243 0.84601 0.0
H1153 H 0.07929 0.93908 0.73116 0.0
H1154 H 0.06173 0.91509 0.80521 0.0
H1155 H 0.05908 0.90342 0.90811 0.0
H1156 H 0.11415 0.91797 0.02595 0.0
H1157 H 0.13593 0.93527 0.94569 0.0
C1158 C 0.12008 0.94379 0.83681 0.0
C1159 C 0.10879 0.94794 0.78348 0.0
C1160 C 0.1097 0.93019 0.88043 0.0
C1161 C 0.08817 0.93658 0.77224 0.0
C1162 C 0.07808 0.92277 0.81457 0.0
C1163 C 0.07629 0.90942 0.91534 0.0
C1164 C 0.08522 0.90912 0.97227 0.0
C1165 C 0.08821 0.92018 0.8696 0.0
C1166 C 0.10722 0.91759 0.98195 0.0
C1167 C 0.11949 0.92783 0.93625 0.0
H1168 H 0.58115 0.13124 0.36395 0.0
H1169 H 0.60635 0.08683 0.22884 0.0
H1170 H 0.63247 0.06949 0.29803 0.0
H1171 H 0.64281 0.06195 0.40025 0.0
H1172 H 0.61703 0.10472 0.53737 0.0
H1173 H 0.59701 0.1279 0.46489 0.0
C1174 C 0.5929 0.11831 0.34948 0.0
C1175 C 0.59165 0.11016 0.29155 0.0
C1176 C 0.60768 0.10791 0.39021 0.0
C1177 C 0.60684 0.09322 0.27341 0.0
C1178 C 0.62177 0.08323 0.31298 0.0
C1179 C 0.63368 0.077 0.41375 0.0
C1180 C 0.63162 0.08186 0.47367 0.0
C1181 C 0.62164 0.08972 0.37199 0.0
C1182 C 0.61922 0.101 0.49116 0.0
C1183 C 0.60747 0.11403 0.44976 0.0
loop_
_geom_bond_atom_site_label_1
_geom_bond_atom_site_label_2
_geom_bond_distance
_geom_bond_site_symmetry_2
_ccdc_geom_bond_type
Co0 O3 1.970 . S
Co0 N17 1.989 . S
Co0 O25 1.967 . S
Co0 O32 1.920 . S
Co1 O4 1.966 . S
Co1 N10 2.022 . S
Co1 N18 1.993 . S
Co1 O26 1.941 . S
C2 O3 1.258 . S
C2 O4 1.263 . S
O3 Co0 1.970 . S
O3 C2 1.258 . S
O4 Co1 1.966 . S
O4 C2 1.263 . S
C5 O6 1.245 . S
C5 O32 1.289 . S
O6 C5 1.245 . S
C7 C9 1.400 . S
C7 N10 1.351 . S
C7 C12 1.501 . S
C8 C9 1.387 . S
C8 N11 1.341 . S
C9 C7 1.400 . S
C9 C8 1.387 . S
N10 Co1 2.022 . S
N10 C7 1.351 . S
N10 N11 1.365 . S
N11 C8 1.341 . S
N11 N10 1.365 . S
N11 H31 0.862 . S
C12 C7 1.501 . S
C12 H13 0.961 . S
C12 H14 0.961 . S
C12 H15 0.960 . S
H13 C12 0.961 . S
H14 C12 0.961 . S
H15 C12 0.960 . S
C16 N17 1.342 1_556 S
C16 C20 1.401 . S
C16 C21 1.499 . S
N17 Co0 1.989 . S
N17 C16 1.342 1_554 S
N17 N18 1.388 . S
N18 Co1 1.993 . S
N18 N17 1.388 . S
N18 C19 1.346 1_554 S
C19 N18 1.346 1_556 S
C19 C20 1.396 . S
C19 C29 1.510 . S
C20 C16 1.401 . S
C20 C19 1.396 . S
C21 C16 1.499 . S
C21 H22 0.959 . S
C21 H23 0.960 . S
C21 H24 0.961 . S
H22 C21 0.959 . S
H23 C21 0.960 . S
H24 C21 0.961 . S
O25 Co0 1.967 . S
O25 C33 1.258 . S
O26 Co1 1.941 . S
O26 C33 1.266 . S
H27 C29 0.959 . S
H28 C29 0.961 . S
C29 C19 1.510 . S
C29 H27 0.959 . S
C29 H28 0.961 . S
C29 H30 0.960 . S
H30 C29 0.960 . S
H31 N11 0.862 . S
O32 Co0 1.920 . S
O32 C5 1.289 . S
C33 O25 1.258 . S
C33 O26 1.266 . S
Co34 O37 1.970 . S
Co34 N51 1.989 . S
Co34 O59 1.967 . S
Co34 O66 1.920 . S
Co35 O38 1.966 . S
Co35 N44 2.022 . S
Co35 N52 1.993 . S
Co35 O60 1.941 . S
C36 O37 1.258 . S
C36 O38 1.263 . S
O37 Co34 1.970 . S
O37 C36 1.258 . S
O38 Co35 1.966 . S
O38 C36 1.263 . S
C39 O40 1.235 . S
C39 O66 1.289 . S
O40 C39 1.235 . S
C41 C43 1.400 . S
C41 N44 1.351 . S
C41 C46 1.501 . S
C42 C43 1.387 . S
C42 N45 1.341 . S
C43 C41 1.400 . S
C43 C42 1.387 . S
N44 Co35 2.022 . S
N44 C41 1.351 . S
N44 N45 1.365 . S
N45 C42 1.341 . S
N45 N44 1.365 . S
N45 H65 0.862 . S
C46 C41 1.501 . S
C46 H47 0.961 . S
C46 H48 0.961 . S
C46 H49 0.960 . S
H47 C46 0.961 . S
H48 C46 0.961 . S
H49 C46 0.960 . S
C50 N51 1.342 . S
C50 C54 1.401 . S
C50 C55 1.499 . S
N51 Co34 1.989 . S
N51 C50 1.342 . S
N51 N52 1.388 . S
N52 Co35 1.993 . S
N52 N51 1.388 . S
N52 C53 1.346 . S
C53 N52 1.346 . S
C53 C54 1.396 . S
C53 C63 1.510 . S
C54 C50 1.401 . S
C54 C53 1.396 . S
C55 C50 1.499 . S
C55 H56 0.959 . S
C55 H57 0.960 . S
C55 H58 0.961 . S
H56 C55 0.959 . S
H57 C55 0.960 . S
H58 C55 0.961 . S
O59 Co34 1.967 . S
O59 C67 1.258 . S
O60 Co35 1.941 . S
O60 C67 1.266 . S
H61 C63 0.959 . S
H62 C63 0.961 . S
C63 C53 1.510 . S
C63 H61 0.959 . S
C63 H62 0.961 . S
C63 H64 0.960 . S
H64 C63 0.960 . S
H65 N45 0.862 . S
O66 Co34 1.920 . S
O66 C39 1.289 . S
C67 O59 1.258 . S
C67 O60 1.266 . S
Co68 O71 1.970 1_655 S
Co68 N85 1.989 . S
Co68 O93 1.967 . S
Co68 O100 1.920 . S
Co69 O72 1.966 1_655 S
Co69 N78 2.022 . S
Co69 N86 1.993 . S
Co69 O94 1.941 . S
C70 O71 1.258 . S
C70 O72 1.263 . S
O71 Co68 1.970 1_455 S
O71 C70 1.258 . S
O72 Co69 1.966 1_455 S
O72 C70 1.263 . S
C73 O74 1.245 1_655 S
C73 O100 1.289 . S
O74 C73 1.245 1_455 S
C75 C77 1.400 . S
C75 N78 1.351 . S
C75 C80 1.501 1_655 S
C76 C77 1.387 . S
C76 N79 1.341 . S
C77 C75 1.400 . S
C77 C76 1.387 . S
N78 Co69 2.022 . S
N78 C75 1.351 . S
N78 N79 1.365 . S
N79 C76 1.341 . S
N79 N78 1.365 . S
N79 H99 0.862 . S
C80 C75 1.501 1_455 S
C80 H81 0.961 . S
C80 H82 0.961 . S
C80 H83 0.960 . S
H81 C80 0.961 . S
H82 C80 0.961 . S
H83 C80 0.960 . S
C84 N85 1.342 1_556 S
C84 C88 1.401 . S
C84 C89 1.499 . S
N85 Co68 1.989 . S
N85 C84 1.342 1_554 S
N85 N86 1.388 . S
N86 Co69 1.993 . S
N86 N85 1.388 . S
N86 C87 1.346 1_554 S
C87 N86 1.346 1_556 S
C87 C88 1.396 . S
C87 C97 1.510 . S
C88 C84 1.401 . S
C88 C87 1.396 . S
C89 C84 1.499 . S
C89 H90 0.959 . S
C89 H91 0.960 . S
C89 H92 0.961 . S
H90 C89 0.959 . S
H91 C89 0.960 . S
H92 C89 0.961 . S
O93 Co68 1.967 . S
O93 C101 1.258 . S
O94 Co69 1.941 . S
O94 C101 1.266 . S
H95 C97 0.959 . S
H96 C97 0.961 . S
C97 C87 1.510 . S
C97 H95 0.959 . S
C97 H96 0.961 . S
C97 H98 0.960 . S
H98 C97 0.960 . S
H99 N79 0.862 . S
O100 Co68 1.920 . S
O100 C73 1.289 . S
C101 O93 1.258 . S
C101 O94 1.266 . S
Co102 O105 1.970 1_565 S
Co102 N119 1.989 . S
Co102 O127 1.967 . S
Co102 O134 1.920 . S
Co103 O106 1.966 1_565 S
Co103 N112 2.022 . S
Co103 N120 1.993 . S
Co103 O128 1.941 . S
C104 O105 1.258 . S
C104 O106 1.263 . S
O105 Co102 1.970 1_545 S
O105 C104 1.258 . S
O106 Co103 1.966 1_545 S
O106 C104 1.263 . S
C107 O108 1.235 1_565 S
C107 O134 1.289 . S
O108 C107 1.235 1_545 S
C109 C111 1.400 . S
C109 N112 1.351 . S
C109 C114 1.501 1_565 S
C110 C111 1.387 . S
C110 N113 1.341 . S
C111 C109 1.400 . S
C111 C110 1.387 . S
N112 Co103 2.022 . S
N112 C109 1.351 . S
N112 N113 1.365 . S
N113 C110 1.341 . S
N113 N112 1.365 . S
N113 H133 0.862 . S
C114 C109 1.501 1_545 S
C114 H115 0.961 . S
C114 H116 0.961 . S
C114 H117 0.960 . S
H115 C114 0.961 . S
H116 C114 0.961 . S
H117 C114 0.960 . S
C118 N119 1.342 . S
C118 C122 1.401 . S
C118 C123 1.499 . S
N119 Co102 1.989 . S
N119 C118 1.342 . S
N119 N120 1.388 . S
N120 Co103 1.993 . S
N120 N119 1.388 . S
N120 C121 1.346 . S
C121 N120 1.346 . S
C121 C122 1.396 . S
C121 C131 1.510 . S
C122 C118 1.401 . S
C122 C121 1.396 . S
C123 C118 1.499 . S
C123 H124 0.959 . S
C123 H125 0.960 . S
C123 H126 0.961 . S
H124 C123 0.959 . S
H125 C123 0.960 . S
H126 C123 0.961 . S
O127 Co102 1.967 . S
O127 C135 1.258 . S
O128 Co103 1.941 . S
O128 C135 1.266 . S
H129 C131 0.959 . S
H130 C131 0.961 . S
C131 C121 1.510 . S
C131 H129 0.959 . S
C131 H130 0.961 . S
C131 H132 0.960 . S
H132 C131 0.960 . S
H133 N113 0.862 . S
O134 Co102 1.920 . S
O134 C107 1.289 . S
C135 O127 1.258 . S
C135 O128 1.266 . S
Co136 O139 1.970 . S
Co136 N153 1.989 . S
Co136 O161 1.967 . S
Co136 O168 1.920 . S
Co137 O140 1.966 . S
Co137 N146 2.022 . S
Co137 N154 1.993 . S
Co137 O162 1.941 . S
C138 O139 1.258 . S
C138 O140 1.263 . S
O139 Co136 1.970 . S
O139 C138 1.258 . S
O140 Co137 1.966 . S
O140 C138 1.263 . S
C141 O142 1.245 . S
C141 O168 1.289 . S
O142 C141 1.245 . S
C143 C145 1.400 . S
C143 N146 1.351 . S
C143 C148 1.501 . S
C144 C145 1.387 . S
C144 N147 1.341 . S
C145 C143 1.400 . S
C145 C144 1.387 . S
N146 Co137 2.022 . S
N146 C143 1.351 . S
N146 N147 1.365 . S
N147 C144 1.341 . S
N147 N146 1.365 . S
N147 H167 0.862 . S
C148 C143 1.501 . S
C148 H149 0.961 . S
C148 H150 0.961 . S
C148 H151 0.960 . S
H149 C148 0.961 . S
H150 C148 0.961 . S
H151 C148 0.960 . S
C152 N153 1.342 1_554 S
C152 C156 1.401 . S
C152 C157 1.499 . S
N153 Co136 1.989 . S
N153 C152 1.342 1_556 S
N153 N154 1.388 . S
N154 Co137 1.993 . S
N154 N153 1.388 . S
N154 C155 1.346 1_556 S
C155 N154 1.346 1_554 S
C155 C156 1.396 . S
C155 C165 1.510 . S
C156 C152 1.401 . S
C156 C155 1.396 . S
C157 C152 1.499 . S
C157 H158 0.959 . S
C157 H159 0.960 . S
C157 H160 0.961 . S
H158 C157 0.959 . S
H159 C157 0.960 . S
H160 C157 0.961 . S
O161 Co136 1.967 . S
O161 C169 1.258 . S
O162 Co137 1.941 . S
O162 C169 1.266 . S
H163 C165 0.959 . S
H164 C165 0.961 . S
C165 C155 1.510 . S
C165 H163 0.959 . S
C165 H164 0.961 . S
C165 H166 0.960 . S
H166 C165 0.960 . S
H167 N147 0.862 . S
O168 Co136 1.920 . S
O168 C141 1.289 . S
C169 O161 1.258 . S
C169 O162 1.266 . S
Co170 O173 1.970 . S
Co170 N187 1.989 . S
Co170 O195 1.967 . S
Co170 O202 1.920 . S
Co171 O174 1.966 . S
Co171 N180 2.022 . S
Co171 N188 1.993 . S
Co171 O196 1.941 . S
C172 O173 1.258 . S
C172 O174 1.263 . S
O173 Co170 1.970 . S
O173 C172 1.258 . S
O174 Co171 1.966 . S
O174 C172 1.263 . S
C175 O176 1.235 . S
C175 O202 1.289 . S
O176 C175 1.235 . S
C177 C179 1.400 . S
C177 N180 1.351 . S
C177 C182 1.501 . S
C178 C179 1.387 . S
C178 N181 1.341 . S
C179 C177 1.400 . S
C179 C178 1.387 . S
N180 Co171 2.022 . S
N180 C177 1.351 . S
N180 N181 1.365 . S
N181 C178 1.341 . S
N181 N180 1.365 . S
N181 H201 0.862 . S
C182 C177 1.501 . S
C182 H183 0.961 . S
C182 H184 0.961 . S
C182 H185 0.960 . S
H183 C182 0.961 . S
H184 C182 0.961 . S
H185 C182 0.960 . S
C186 N187 1.342 . S
C186 C190 1.401 . S
C186 C191 1.499 . S
N187 Co170 1.989 . S
N187 C186 1.342 . S
N187 N188 1.388 . S
N188 Co171 1.993 . S
N188 N187 1.388 . S
N188 C189 1.346 . S
C189 N188 1.346 . S
C189 C190 1.396 . S
C189 C199 1.510 . S
C190 C186 1.401 . S
C190 C189 1.396 . S
C191 C186 1.499 . S
C191 H192 0.959 . S
C191 H193 0.960 . S
C191 H194 0.961 . S
H192 C191 0.959 . S
H193 C191 0.960 . S
H194 C191 0.961 . S
O195 Co170 1.967 . S
O195 C203 1.258 . S
O196 Co171 1.941 . S
O196 C203 1.266 . S
H197 C199 0.959 . S
H198 C199 0.961 . S
C199 C189 1.510 . S
C199 H197 0.959 . S
C199 H198 0.961 . S
C199 H200 0.960 . S
H200 C199 0.960 . S
H201 N181 0.862 . S
O202 Co170 1.920 . S
O202 C175 1.289 . S
C203 O195 1.258 . S
C203 O196 1.266 . S
Co204 O207 1.970 1_655 S
Co204 N221 1.989 . S
Co204 O229 1.967 . S
Co204 O236 1.920 . S
Co205 O208 1.966 1_655 S
Co205 N214 2.022 . S
Co205 N222 1.993 . S
Co205 O230 1.941 . S
C206 O207 1.258 . S
C206 O208 1.263 . S
O207 Co204 1.970 1_455 S
O207 C206 1.258 . S
O208 Co205 1.966 1_455 S
O208 C206 1.263 . S
C209 O210 1.245 1_655 S
C209 O236 1.289 . S
O210 C209 1.245 1_455 S
C211 C213 1.400 . S
C211 N214 1.351 . S
C211 C216 1.501 1_655 S
C212 C213 1.387 . S
C212 N215 1.341 . S
C213 C211 1.400 . S
C213 C212 1.387 . S
N214 Co205 2.022 . S
N214 C211 1.351 . S
N214 N215 1.365 . S
N215 C212 1.341 . S
N215 N214 1.365 . S
N215 H235 0.862 . S
C216 C211 1.501 1_455 S
C216 H217 0.961 . S
C216 H218 0.961 . S
C216 H219 0.960 . S
H217 C216 0.961 . S
H218 C216 0.961 . S
H219 C216 0.960 . S
C220 N221 1.342 1_554 S
C220 C224 1.401 . S
C220 C225 1.499 . S
N221 Co204 1.989 . S
N221 C220 1.342 1_556 S
N221 N222 1.388 . S
N222 Co205 1.993 . S
N222 N221 1.388 . S
N222 C223 1.346 1_556 S
C223 N222 1.346 1_554 S
C223 C224 1.396 . S
C223 C233 1.510 . S
C224 C220 1.401 . S
C224 C223 1.396 . S
C225 C220 1.499 . S
C225 H226 0.959 . S
C225 H227 0.960 . S
C225 H228 0.961 . S
H226 C225 0.959 . S
H227 C225 0.960 . S
H228 C225 0.961 . S
O229 Co204 1.967 . S
O229 C237 1.258 . S
O230 Co205 1.941 . S
O230 C237 1.266 . S
H231 C233 0.959 . S
H232 C233 0.961 . S
C233 C223 1.510 . S
C233 H231 0.959 . S
C233 H232 0.961 . S
C233 H234 0.960 . S
H234 C233 0.960 . S
H235 N215 0.862 . S
O236 Co204 1.920 . S
O236 C209 1.289 . S
C237 O229 1.258 . S
C237 O230 1.266 . S
Co238 O241 1.970 1_565 S
Co238 N255 1.989 . S
Co238 O263 1.967 . S
Co238 O270 1.920 . S
Co239 O242 1.966 1_565 S
Co239 N248 2.022 . S
Co239 N256 1.993 . S
Co239 O264 1.941 . S
C240 O241 1.258 . S
C240 O242 1.263 . S
O241 Co238 1.970 1_545 S
O241 C240 1.258 . S
O242 Co239 1.966 1_545 S
O242 C240 1.263 . S
C243 O244 1.235 1_565 S
C243 O270 1.289 . S
O244 C243 1.235 1_545 S
C245 C247 1.400 . S
C245 N248 1.351 . S
C245 C250 1.501 1_565 S
C246 C247 1.387 . S
C246 N249 1.341 . S
C247 C245 1.400 . S
C247 C246 1.387 . S
N248 Co239 2.022 . S
N248 C245 1.351 . S
N248 N249 1.365 . S
N249 C246 1.341 . S
N249 N248 1.365 . S
N249 H269 0.862 . S
C250 C245 1.501 1_545 S
C250 H251 0.961 . S
C250 H252 0.961 . S
C250 H253 0.960 . S
H251 C250 0.961 . S
H252 C250 0.961 . S
H253 C250 0.960 . S
C254 N255 1.342 . S
C254 C258 1.401 . S
C254 C259 1.499 . S
N255 Co238 1.989 . S
N255 C254 1.342 . S
N255 N256 1.388 . S
N256 Co239 1.993 . S
N256 N255 1.388 . S
N256 C257 1.346 . S
C257 N256 1.346 . S
C257 C258 1.396 . S
C257 C267 1.510 . S
C258 C254 1.401 . S
C258 C257 1.396 . S
C259 C254 1.499 . S
C259 H260 0.959 . S
C259 H261 0.960 . S
C259 H262 0.961 . S
H260 C259 0.959 . S
H261 C259 0.960 . S
H262 C259 0.961 . S
O263 Co238 1.967 . S
O263 C271 1.258 . S
O264 Co239 1.941 . S
O264 C271 1.266 . S
H265 C267 0.959 . S
H266 C267 0.961 . S
C267 C257 1.510 . S
C267 H265 0.959 . S
C267 H266 0.961 . S
C267 H268 0.960 . S
H268 C267 0.960 . S
H269 N249 0.862 . S
O270 Co238 1.920 . S
O270 C243 1.289 . S
C271 O263 1.258 . S
C271 O264 1.266 . S
Co272 O275 1.970 . S
Co272 N289 1.989 . S
Co272 O297 1.967 . S
Co272 O304 1.920 . S
Co273 O276 1.966 . S
Co273 N282 2.022 . S
Co273 N290 1.993 . S
Co273 O298 1.941 . S
C274 O275 1.258 . S
C274 O276 1.263 . S
O275 Co272 1.970 . S
O275 C274 1.258 . S
O276 Co273 1.966 . S
O276 C274 1.263 . S
C277 O278 1.245 . S
C277 O304 1.289 . S
O278 C277 1.245 . S
C279 C281 1.400 . S
C279 N282 1.351 . S
C279 C284 1.501 . S
C280 C281 1.387 . S
C280 N283 1.341 . S
C281 C279 1.400 . S
C281 C280 1.387 . S
N282 Co273 2.022 . S
N282 C279 1.351 . S
N282 N283 1.365 . S
N283 C280 1.341 . S
N283 N282 1.365 . S
N283 H303 0.862 . S
C284 C279 1.501 . S
C284 H285 0.961 . S
C284 H286 0.961 . S
C284 H287 0.960 . S
H285 C284 0.961 . S
H286 C284 0.961 . S
H287 C284 0.960 . S
C288 N289 1.342 1_554 S
C288 C292 1.401 . S
C288 C293 1.499 . S
N289 Co272 1.989 . S
N289 C288 1.342 1_556 S
N289 N290 1.388 . S
N290 Co273 1.993 . S
N290 N289 1.388 . S
N290 C291 1.346 1_556 S
C291 N290 1.346 1_554 S
C291 C292 1.396 . S
C291 C301 1.510 . S
C292 C288 1.401 . S
C292 C291 1.396 . S
C293 C288 1.499 . S
C293 H294 0.959 . S
C293 H295 0.960 . S
C293 H296 0.961 . S
H294 C293 0.959 . S
H295 C293 0.960 . S
H296 C293 0.961 . S
O297 Co272 1.967 . S
O297 C305 1.258 . S
O298 Co273 1.941 . S
O298 C305 1.266 . S
H299 C301 0.959 . S
H300 C301 0.961 . S
C301 C291 1.510 . S
C301 H299 0.959 . S
C301 H300 0.961 . S
C301 H302 0.960 . S
H302 C301 0.960 . S
H303 N283 0.862 . S
O304 Co272 1.920 . S
O304 C277 1.289 . S
C305 O297 1.258 . S
C305 O298 1.266 . S
Co306 O309 1.970 . S
Co306 N323 1.989 . S
Co306 O331 1.967 . S
Co306 O338 1.920 . S
Co307 O310 1.966 . S
Co307 N316 2.022 . S
Co307 N324 1.993 . S
Co307 O332 1.941 . S
C308 O309 1.258 . S
C308 O310 1.263 . S
O309 Co306 1.970 . S
O309 C308 1.258 . S
O310 Co307 1.966 . S
O310 C308 1.263 . S
C311 O312 1.235 . S
C311 O338 1.289 . S
O312 C311 1.235 . S
C313 C315 1.400 . S
C313 N316 1.351 . S
C313 C318 1.501 . S
C314 C315 1.387 . S
C314 N317 1.341 . S
C315 C313 1.400 . S
C315 C314 1.387 . S
N316 Co307 2.022 . S
N316 C313 1.351 . S
N316 N317 1.365 . S
N317 C314 1.341 . S
N317 N316 1.365 . S
N317 H337 0.862 . S
C318 C313 1.501 . S
C318 H319 0.961 . S
C318 H320 0.961 . S
C318 H321 0.960 . S
H319 C318 0.961 . S
H320 C318 0.961 . S
H321 C318 0.960 . S
C322 N323 1.342 . S
C322 C326 1.401 . S
C322 C327 1.499 . S
N323 Co306 1.989 . S
N323 C322 1.342 . S
N323 N324 1.388 . S
N324 Co307 1.993 . S
N324 N323 1.388 . S
N324 C325 1.346 . S
C325 N324 1.346 . S
C325 C326 1.396 . S
C325 C335 1.510 . S
C326 C322 1.401 . S
C326 C325 1.396 . S
C327 C322 1.499 . S
C327 H328 0.959 . S
C327 H329 0.960 . S
C327 H330 0.961 . S
H328 C327 0.959 . S
H329 C327 0.960 . S
H330 C327 0.961 . S
O331 Co306 1.967 . S
O331 C339 1.258 . S
O332 Co307 1.941 . S
O332 C339 1.266 . S
H333 C335 0.959 . S
H334 C335 0.961 . S
C335 C325 1.510 . S
C335 H333 0.959 . S
C335 H334 0.961 . S
C335 H336 0.960 . S
H336 C335 0.960 . S
H337 N317 0.862 . S
O338 Co306 1.920 . S
O338 C311 1.289 . S
C339 O331 1.258 . S
C339 O332 1.266 . S
Co340 O343 1.970 1_455 S
Co340 N357 1.989 . S
Co340 O365 1.967 . S
Co340 O372 1.920 . S
Co341 O344 1.966 1_455 S
Co341 N350 2.022 . S
Co341 N358 1.993 . S
Co341 O366 1.941 . S
C342 O343 1.258 . S
C342 O344 1.263 . S
O343 Co340 1.970 1_655 S
O343 C342 1.258 . S
O344 Co341 1.966 1_655 S
O344 C342 1.263 . S
C345 O346 1.245 1_455 S
C345 O372 1.289 . S
O346 C345 1.245 1_655 S
C347 C349 1.400 . S
C347 N350 1.351 . S
C347 C352 1.501 1_455 S
C348 C349 1.387 . S
C348 N351 1.341 . S
C349 C347 1.400 . S
C349 C348 1.387 . S
N350 Co341 2.022 . S
N350 C347 1.351 . S
N350 N351 1.365 . S
N351 C348 1.341 . S
N351 N350 1.365 . S
N351 H371 0.862 . S
C352 C347 1.501 1_655 S
C352 H353 0.961 . S
C352 H354 0.961 . S
C352 H355 0.960 . S
H353 C352 0.961 . S
H354 C352 0.961 . S
H355 C352 0.960 . S
C356 N357 1.342 1_554 S
C356 C360 1.401 . S
C356 C361 1.499 . S
N357 Co340 1.989 . S
N357 C356 1.342 1_556 S
N357 N358 1.388 . S
N358 Co341 1.993 . S
N358 N357 1.388 . S
N358 C359 1.346 1_556 S
C359 N358 1.346 1_554 S
C359 C360 1.396 . S
C359 C369 1.510 . S
C360 C356 1.401 . S
C360 C359 1.396 . S
C361 C356 1.499 . S
C361 H362 0.959 . S
C361 H363 0.960 . S
C361 H364 0.961 . S
H362 C361 0.959 . S
H363 C361 0.960 . S
H364 C361 0.961 . S
O365 Co340 1.967 . S
O365 C373 1.258 . S
O366 Co341 1.941 . S
O366 C373 1.266 . S
H367 C369 0.959 . S
H368 C369 0.961 . S
C369 C359 1.510 . S
C369 H367 0.959 . S
C369 H368 0.961 . S
C369 H370 0.960 . S
H370 C369 0.960 . S
H371 N351 0.862 . S
O372 Co340 1.920 . S
O372 C345 1.289 . S
C373 O365 1.258 . S
C373 O366 1.266 . S
Co374 O377 1.970 1_545 S
Co374 N391 1.989 . S
Co374 O399 1.967 . S
Co374 O406 1.920 . S
Co375 O378 1.966 1_545 S
Co375 N384 2.022 . S
Co375 N392 1.993 . S
Co375 O400 1.941 . S
C376 O377 1.258 . S
C376 O378 1.263 . S
O377 Co374 1.970 1_565 S
O377 C376 1.258 . S
O378 Co375 1.966 1_565 S
O378 C376 1.263 . S
C379 O380 1.235 1_545 S
C379 O406 1.289 . S
O380 C379 1.235 1_565 S
C381 C383 1.400 . S
C381 N384 1.351 . S
C381 C386 1.501 1_545 S
C382 C383 1.387 . S
C382 N385 1.341 . S
C383 C381 1.400 . S
C383 C382 1.387 . S
N384 Co375 2.022 . S
N384 C381 1.351 . S
N384 N385 1.365 . S
N385 C382 1.341 . S
N385 N384 1.365 . S
N385 H405 0.862 . S
C386 C381 1.501 1_565 S
C386 H387 0.961 . S
C386 H388 0.961 . S
C386 H389 0.960 . S
H387 C386 0.961 . S
H388 C386 0.961 . S
H389 C386 0.960 . S
C390 N391 1.342 . S
C390 C394 1.401 . S
C390 C395 1.499 . S
N391 Co374 1.989 . S
N391 C390 1.342 . S
N391 N392 1.388 . S
N392 Co375 1.993 . S
N392 N391 1.388 . S
N392 C393 1.346 . S
C393 N392 1.346 . S
C393 C394 1.396 . S
C393 C403 1.510 . S
C394 C390 1.401 . S
C394 C393 1.396 . S
C395 C390 1.499 . S
C395 H396 0.959 . S
C395 H397 0.960 . S
C395 H398 0.961 . S
H396 C395 0.959 . S
H397 C395 0.960 . S
H398 C395 0.961 . S
O399 Co374 1.967 . S
O399 C407 1.258 . S
O400 Co375 1.941 . S
O400 C407 1.266 . S
H401 C403 0.959 . S
H402 C403 0.961 . S
C403 C393 1.510 . S
C403 H401 0.959 . S
C403 H402 0.961 . S
C403 H404 0.960 . S
H404 C403 0.960 . S
H405 N385 0.862 . S
O406 Co374 1.920 . S
O406 C379 1.289 . S
C407 O399 1.258 . S
C407 O400 1.266 . S
Co408 O411 1.970 . S
Co408 N425 1.989 . S
Co408 O433 1.967 . S
Co408 O440 1.920 . S
Co409 O412 1.966 . S
Co409 N418 2.022 . S
Co409 N426 1.993 . S
Co409 O434 1.941 . S
C410 O411 1.258 . S
C410 O412 1.263 . S
O411 Co408 1.970 . S
O411 C410 1.258 . S
O412 Co409 1.966 . S
O412 C410 1.263 . S
C413 O414 1.245 . S
C413 O440 1.289 . S
O414 C413 1.245 . S
C415 C417 1.400 . S
C415 N418 1.351 . S
C415 C420 1.501 . S
C416 C417 1.387 . S
C416 N419 1.341 . S
C417 C415 1.400 . S
C417 C416 1.387 . S
N418 Co409 2.022 . S
N418 C415 1.351 . S
N418 N419 1.365 . S
N419 C416 1.341 . S
N419 N418 1.365 . S
N419 H439 0.862 . S
C420 C415 1.501 . S
C420 H421 0.961 . S
C420 H422 0.961 . S
C420 H423 0.960 . S
H421 C420 0.961 . S
H422 C420 0.961 . S
H423 C420 0.960 . S
C424 N425 1.342 1_556 S
C424 C428 1.401 . S
C424 C429 1.499 . S
N425 Co408 1.989 . S
N425 C424 1.342 1_554 S
N425 N426 1.388 . S
N426 Co409 1.993 . S
N426 N425 1.388 . S
N426 C427 1.346 1_554 S
C427 N426 1.346 1_556 S
C427 C428 1.396 . S
C427 C437 1.510 . S
C428 C424 1.401 . S
C428 C427 1.396 . S
C429 C424 1.499 . S
C429 H430 0.959 . S
C429 H431 0.960 . S
C429 H432 0.961 . S
H430 C429 0.959 . S
H431 C429 0.960 . S
H432 C429 0.961 . S
O433 Co408 1.967 . S
O433 C441 1.258 . S
O434 Co409 1.941 . S
O434 C441 1.266 . S
H435 C437 0.959 . S
H436 C437 0.961 . S
C437 C427 1.510 . S
C437 H435 0.959 . S
C437 H436 0.961 . S
C437 H438 0.960 . S
H438 C437 0.960 . S
H439 N419 0.862 . S
O440 Co408 1.920 . S
O440 C413 1.289 . S
C441 O433 1.258 . S
C441 O434 1.266 . S
Co442 O445 1.970 . S
Co442 N459 1.989 . S
Co442 O467 1.967 . S
Co442 O474 1.920 . S
Co443 O446 1.966 . S
Co443 N452 2.022 . S
Co443 N460 1.993 . S
Co443 O468 1.941 . S
C444 O445 1.258 . S
C444 O446 1.263 . S
O445 Co442 1.970 . S
O445 C444 1.258 . S
O446 Co443 1.966 . S
O446 C444 1.263 . S
C447 O448 1.235 . S
C447 O474 1.289 . S
O448 C447 1.235 . S
C449 C451 1.400 . S
C449 N452 1.351 . S
C449 C454 1.501 . S
C450 C451 1.387 . S
C450 N453 1.341 . S
C451 C449 1.400 . S
C451 C450 1.387 . S
N452 Co443 2.022 . S
N452 C449 1.351 . S
N452 N453 1.365 . S
N453 C450 1.341 . S
N453 N452 1.365 . S
N453 H473 0.862 . S
C454 C449 1.501 . S
C454 H455 0.961 . S
C454 H456 0.961 . S
C454 H457 0.960 . S
H455 C454 0.961 . S
H456 C454 0.961 . S
H457 C454 0.960 . S
C458 N459 1.342 . S
C458 C462 1.401 . S
C458 C463 1.499 . S
N459 Co442 1.989 . S
N459 C458 1.342 . S
N459 N460 1.388 . S
N460 Co443 1.993 . S
N460 N459 1.388 . S
N460 C461 1.346 . S
C461 N460 1.346 . S
C461 C462 1.396 . S
C461 C471 1.510 . S
C462 C458 1.401 . S
C462 C461 1.396 . S
C463 C458 1.499 . S
C463 H464 0.959 . S
C463 H465 0.960 . S
C463 H466 0.961 . S
H464 C463 0.959 . S
H465 C463 0.960 . S
H466 C463 0.961 . S
O467 Co442 1.967 . S
O467 C475 1.258 . S
O468 Co443 1.941 . S
O468 C475 1.266 . S
H469 C471 0.959 . S
H470 C471 0.961 . S
C471 C461 1.510 . S
C471 H469 0.959 . S
C471 H470 0.961 . S
C471 H472 0.960 . S
H472 C471 0.960 . S
H473 N453 0.862 . S
O474 Co442 1.920 . S
O474 C447 1.289 . S
C475 O467 1.258 . S
C475 O468 1.266 . S
Co476 O479 1.970 1_455 S
Co476 N493 1.989 . S
Co476 O501 1.967 . S
Co476 O508 1.920 . S
Co477 O480 1.966 1_455 S
Co477 N486 2.022 . S
Co477 N494 1.993 . S
Co477 O502 1.941 . S
C478 O479 1.258 . S
C478 O480 1.263 . S
O479 Co476 1.970 1_655 S
O479 C478 1.258 . S
O480 Co477 1.966 1_655 S
O480 C478 1.263 . S
C481 O482 1.245 1_455 S
C481 O508 1.289 . S
O482 C481 1.245 1_655 S
C483 C485 1.400 . S
C483 N486 1.351 . S
C483 C488 1.501 1_455 S
C484 C485 1.387 . S
C484 N487 1.341 . S
C485 C483 1.400 . S
C485 C484 1.387 . S
N486 Co477 2.022 . S
N486 C483 1.351 . S
N486 N487 1.365 . S
N487 C484 1.341 . S
N487 N486 1.365 . S
N487 H507 0.862 . S
C488 C483 1.501 1_655 S
C488 H489 0.961 . S
C488 H490 0.961 . S
C488 H491 0.960 . S
H489 C488 0.961 . S
H490 C488 0.961 . S
H491 C488 0.960 . S
C492 N493 1.342 1_556 S
C492 C496 1.401 . S
C492 C497 1.499 . S
N493 Co476 1.989 . S
N493 C492 1.342 1_554 S
N493 N494 1.388 . S
N494 Co477 1.993 . S
N494 N493 1.388 . S
N494 C495 1.346 1_554 S
C495 N494 1.346 1_556 S
C495 C496 1.396 . S
C495 C505 1.510 . S
C496 C492 1.401 . S
C496 C495 1.396 . S
C497 C492 1.499 . S
C497 H498 0.959 . S
C497 H499 0.960 . S
C497 H500 0.961 . S
H498 C497 0.959 . S
H499 C497 0.960 . S
H500 C497 0.961 . S
O501 Co476 1.967 . S
O501 C509 1.258 . S
O502 Co477 1.941 . S
O502 C509 1.266 . S
H503 C505 0.959 . S
H504 C505 0.961 . S
C505 C495 1.510 . S
C505 H503 0.959 . S
C505 H504 0.961 . S
C505 H506 0.960 . S
H506 C505 0.960 . S
H507 N487 0.862 . S
O508 Co476 1.920 . S
O508 C481 1.289 . S
C509 O501 1.258 . S
C509 O502 1.266 . S
Co510 O513 1.970 1_545 S
Co510 N527 1.989 . S
Co510 O535 1.967 . S
Co510 O542 1.920 . S
Co511 O514 1.966 1_545 S
Co511 N520 2.022 . S
Co511 N528 1.993 . S
Co511 O536 1.941 . S
C512 O513 1.258 . S
C512 O514 1.263 . S
O513 Co510 1.970 1_565 S
O513 C512 1.258 . S
O514 Co511 1.966 1_565 S
O514 C512 1.263 . S
C515 O516 1.235 1_545 S
C515 O542 1.289 . S
O516 C515 1.235 1_565 S
C517 C519 1.400 . S
C517 N520 1.351 . S
C517 C522 1.501 1_545 S
C518 C519 1.387 . S
C518 N521 1.341 . S
C519 C517 1.400 . S
C519 C518 1.387 . S
N520 Co511 2.022 . S
N520 C517 1.351 . S
N520 N521 1.365 . S
N521 C518 1.341 . S
N521 N520 1.365 . S
N521 H541 0.862 . S
C522 C517 1.501 1_565 S
C522 H523 0.961 . S
C522 H524 0.961 . S
C522 H525 0.960 . S
H523 C522 0.961 . S
H524 C522 0.961 . S
H525 C522 0.960 . S
C526 N527 1.342 . S
C526 C530 1.401 . S
C526 C531 1.499 . S
N527 Co510 1.989 . S
N527 C526 1.342 . S
N527 N528 1.388 . S
N528 Co511 1.993 . S
N528 N527 1.388 . S
N528 C529 1.346 . S
C529 N528 1.346 . S
C529 C530 1.396 . S
C529 C539 1.510 . S
C530 C526 1.401 . S
C530 C529 1.396 . S
C531 C526 1.499 . S
C531 H532 0.959 . S
C531 H533 0.960 . S
C531 H534 0.961 . S
H532 C531 0.959 . S
H533 C531 0.960 . S
H534 C531 0.961 . S
O535 Co510 1.967 . S
O535 C543 1.258 . S
O536 Co511 1.941 . S
O536 C543 1.266 . S
H537 C539 0.959 . S
H538 C539 0.961 . S
C539 C529 1.510 . S
C539 H537 0.959 . S
C539 H538 0.961 . S
C539 H540 0.960 . S
H540 C539 0.960 . S
H541 N521 0.862 . S
O542 Co510 1.920 . S
O542 C515 1.289 . S
C543 O535 1.258 . S
C543 O536 1.266 . S
H544 C550 0.930 . S
H545 C553 0.930 . S
H546 C554 0.930 . S
H547 C555 0.930 . S
H548 C558 0.930 . S
H549 C559 0.930 . S
C550 H544 0.930 . S
C550 C551 1.355 . S
C550 C552 1.415 1_554 S
C551 C550 1.355 . S
C551 C553 1.419 . S
C552 C550 1.415 1_556 S
C552 C557 1.425 1_546 S
C552 C559 1.409 . S
C553 H545 0.930 . S
C553 C551 1.419 . S
C553 C554 1.362 1_545 S
C554 H546 0.930 . S
C554 C553 1.362 1_565 S
C554 C557 1.409 . S
C555 H547 0.930 . S
C555 C556 1.355 . S
C555 C557 1.415 1_556 S
C556 C555 1.355 . S
C556 C558 1.419 . S
C557 C552 1.425 1_564 S
C557 C554 1.409 . S
C557 C555 1.415 1_554 S
C558 H548 0.930 . S
C558 C556 1.419 . S
C558 C559 1.362 1_565 S
C559 H549 0.930 . S
C559 C552 1.409 . S
C559 C558 1.362 1_545 S
H560 C566 0.930 . S
H561 C569 0.930 . S
H562 C570 0.930 . S
H563 C571 0.930 . S
H564 C574 0.930 . S
H565 C575 0.930 . S
C566 H560 0.930 . S
C566 C567 1.355 . S
C566 C568 1.415 . S
C567 C566 1.355 . S
C567 C569 1.419 . S
C568 C566 1.415 . S
C568 C573 1.425 . S
C568 C575 1.409 . S
C569 H561 0.930 . S
C569 C567 1.419 . S
C569 C570 1.362 . S
C570 H562 0.930 . S
C570 C569 1.362 . S
C570 C573 1.409 . S
C571 H563 0.930 . S
C571 C572 1.355 . S
C571 C573 1.415 . S
C572 C571 1.355 . S
C572 C574 1.419 . S
C573 C568 1.425 . S
C573 C570 1.409 . S
C573 C571 1.415 . S
C574 H564 0.930 . S
C574 C572 1.419 . S
C574 C575 1.362 . S
C575 H565 0.930 . S
C575 C568 1.409 . S
C575 C574 1.362 . S
H576 C582 0.930 . S
H577 C585 0.930 . S
H578 C586 0.930 . S
H579 C587 0.930 . S
H580 C590 0.930 . S
H581 C591 0.930 . S
C582 H576 0.930 . S
C582 C583 1.355 1_455 S
C582 C584 1.415 . S
C583 C582 1.355 1_655 S
C583 C585 1.419 1_554 S
C584 C582 1.415 . S
C584 C589 1.425 1_454 S
C584 C591 1.409 . S
C585 H577 0.930 . S
C585 C583 1.419 1_556 S
C585 C586 1.362 . S
C586 H578 0.930 . S
C586 C585 1.362 . S
C586 C589 1.409 . S
C587 H579 0.930 . S
C587 C588 1.355 1_655 S
C587 C589 1.415 . S
C588 C587 1.355 1_455 S
C588 C590 1.419 1_556 S
C589 C584 1.425 1_656 S
C589 C586 1.409 . S
C589 C587 1.415 . S
C590 H580 0.930 . S
C590 C588 1.419 1_554 S
C590 C591 1.362 . S
C591 H581 0.930 . S
C591 C584 1.409 . S
C591 C590 1.362 . S
H592 C598 0.930 . S
H593 C601 0.928 1_545 S
H594 C602 0.930 . S
H595 C603 0.930 . S
H596 C606 0.928 1_565 S
H597 C607 0.930 . S
C598 H592 0.930 . S
C598 C599 1.355 . S
C598 C600 1.415 . S
C599 C598 1.355 . S
C599 C601 1.434 . S
C600 C598 1.415 . S
C600 C605 1.425 1_465 S
C600 C607 1.409 . S
C601 H593 0.928 1_565 S
C601 C599 1.434 . S
C601 C602 1.351 1_465 S
C602 H594 0.930 . S
C602 C601 1.351 1_645 S
C602 C605 1.409 . S
C603 H595 0.930 . S
C603 C604 1.355 . S
C603 C605 1.415 . S
C604 C603 1.355 . S
C604 C606 1.434 . S
C605 C600 1.425 1_645 S
C605 C602 1.409 . S
C605 C603 1.415 . S
C606 H596 0.928 1_545 S
C606 C604 1.434 . S
C606 C607 1.351 1_645 S
C607 H597 0.930 . S
C607 C600 1.409 . S
C607 C606 1.351 1_465 S
H608 C614 0.930 . S
H609 C617 0.930 . S
H610 C618 0.930 . S
H611 C619 0.930 . S
H612 C622 0.930 . S
H613 C623 0.930 . S
C614 H608 0.930 . S
C614 C615 1.355 . S
C614 C616 1.415 . S
C615 C614 1.355 . S
C615 C617 1.419 . S
C616 C614 1.415 . S
C616 C621 1.425 1_556 S
C616 C623 1.409 1_556 S
C617 H609 0.930 . S
C617 C615 1.419 . S
C617 C618 1.362 . S
C618 H610 0.930 . S
C618 C617 1.362 . S
C618 C621 1.409 1_556 S
C619 H611 0.930 . S
C619 C620 1.355 . S
C619 C621 1.415 . S
C620 C619 1.355 . S
C620 C622 1.419 . S
C621 C616 1.425 1_554 S
C621 C618 1.409 1_554 S
C621 C619 1.415 . S
C622 H612 0.930 . S
C622 C620 1.419 . S
C622 C623 1.362 . S
C623 H613 0.930 . S
C623 C616 1.409 1_554 S
C623 C622 1.362 . S
H624 C630 0.930 . S
H625 C633 0.930 . S
H626 C634 0.930 . S
H627 C635 0.930 . S
H628 C638 0.930 . S
H629 C639 0.930 . S
C630 H624 0.930 . S
C630 C631 1.355 . S
C630 C632 1.415 . S
C631 C630 1.355 . S
C631 C633 1.419 . S
C632 C630 1.415 . S
C632 C637 1.425 1_655 S
C632 C639 1.409 . S
C633 H625 0.930 . S
C633 C631 1.419 . S
C633 C634 1.362 1_655 S
C634 H626 0.930 . S
C634 C633 1.362 1_455 S
C634 C637 1.409 . S
C635 H627 0.930 . S
C635 C636 1.355 . S
C635 C637 1.415 . S
C636 C635 1.355 . S
C636 C638 1.419 . S
C637 C632 1.425 1_455 S
C637 C634 1.409 . S
C637 C635 1.415 . S
C638 H628 0.930 . S
C638 C636 1.419 . S
C638 C639 1.362 1_455 S
C639 H629 0.930 . S
C639 C632 1.409 . S
C639 C638 1.362 1_655 S
H640 C646 0.930 . S
H641 C649 0.930 . S
H642 C650 0.930 . S
H643 C651 0.930 . S
H644 C654 0.930 . S
H645 C655 0.930 . S
C646 H640 0.930 . S
C646 C647 1.355 . S
C646 C648 1.438 . S
C647 C646 1.355 . S
C647 C649 1.419 1_455 S
C648 C646 1.438 . S
C648 C653 1.423 1_464 S
C648 C655 1.387 1_564 S
C649 H641 0.930 . S
C649 C647 1.419 1_655 S
C649 C650 1.362 . S
C650 H642 0.930 . S
C650 C649 1.362 . S
C650 C653 1.387 1_564 S
C651 H643 0.930 . S
C651 C652 1.355 . S
C651 C653 1.438 . S
C652 C651 1.355 . S
C652 C654 1.419 1_655 S
C653 C648 1.423 1_646 S
C653 C650 1.387 1_546 S
C653 C651 1.438 . S
C654 H644 0.930 . S
C654 C652 1.419 1_455 S
C654 C655 1.362 . S
C655 H645 0.930 . S
C655 C648 1.387 1_546 S
C655 C654 1.362 . S
H656 C662 0.930 . S
H657 C665 0.930 . S
H658 C666 0.930 . S
H659 C667 0.930 . S
H660 C670 0.930 . S
H661 C671 0.930 . S
C662 H656 0.930 . S
C662 C663 1.355 1_545 S
C662 C664 1.415 . S
C663 C662 1.355 1_565 S
C663 C665 1.419 . S
C664 C662 1.415 . S
C664 C669 1.425 1_545 S
C664 C671 1.409 . S
C665 H657 0.930 . S
C665 C663 1.419 . S
C665 C666 1.362 . S
C666 H658 0.930 . S
C666 C665 1.362 . S
C666 C669 1.409 . S
C667 H659 0.930 . S
C667 C668 1.355 1_565 S
C667 C669 1.415 . S
C668 C667 1.355 1_545 S
C668 C670 1.419 . S
C669 C664 1.425 1_565 S
C669 C666 1.409 . S
C669 C667 1.415 . S
C670 H660 0.930 . S
C670 C668 1.419 . S
C670 C671 1.362 . S
C671 H661 0.930 . S
C671 C664 1.409 . S
C671 C670 1.362 . S
H672 C678 0.930 . S
H673 C681 0.930 . S
H674 C682 0.930 . S
H675 C683 0.930 . S
H676 C686 0.930 . S
H677 C687 0.930 . S
C678 H672 0.930 . S
C678 C679 1.355 . S
C678 C680 1.415 . S
C679 C678 1.355 . S
C679 C681 1.419 . S
C680 C678 1.415 . S
C680 C685 1.425 1_554 S
C680 C687 1.409 . S
C681 H673 0.930 . S
C681 C679 1.419 . S
C681 C682 1.362 1_554 S
C682 H674 0.930 . S
C682 C681 1.362 1_556 S
C682 C685 1.409 . S
C683 H675 0.930 . S
C683 C684 1.355 . S
C683 C685 1.415 . S
C684 C683 1.355 . S
C684 C686 1.419 . S
C685 C680 1.425 1_556 S
C685 C682 1.409 . S
C685 C683 1.415 . S
C686 H676 0.930 . S
C686 C684 1.419 . S
C686 C687 1.362 1_556 S
C687 H677 0.930 . S
C687 C680 1.409 . S
C687 C686 1.362 1_554 S
H688 C694 0.930 . S
H689 C697 0.930 . S
H690 C698 0.930 . S
H691 C699 0.930 . S
H692 C702 0.930 . S
H693 C703 0.930 . S
C694 H688 0.930 . S
C694 C695 1.355 . S
C694 C696 1.415 . S
C695 C694 1.355 . S
C695 C697 1.419 . S
C696 C694 1.415 . S
C696 C701 1.425 . S
C696 C703 1.409 . S
C697 H689 0.930 . S
C697 C695 1.419 . S
C697 C698 1.362 . S
C698 H690 0.930 . S
C698 C697 1.362 . S
C698 C701 1.409 . S
C699 H691 0.930 . S
C699 C700 1.355 . S
C699 C701 1.415 . S
C700 C699 1.355 . S
C700 C702 1.419 . S
C701 C696 1.425 . S
C701 C698 1.409 . S
C701 C699 1.415 . S
C702 H692 0.930 . S
C702 C700 1.419 . S
C702 C703 1.362 . S
C703 H693 0.930 . S
C703 C696 1.409 . S
C703 C702 1.362 . S
H704 C710 0.930 . S
H705 C713 0.942 . S
H706 C714 0.923 1_455 S
H707 C715 0.944 . S
H708 C718 0.930 . S
H709 C719 0.930 . S
C710 H704 0.930 . S
C710 C711 1.355 1_556 S
C710 C712 1.415 . S
C711 C710 1.355 1_554 S
C711 C713 1.419 . S
C712 C710 1.415 . S
C712 C717 1.425 1_556 S
C712 C719 1.409 . S
C713 H705 0.942 . S
C713 C711 1.419 . S
C713 C714 1.362 . S
C714 H706 0.923 1_655 S
C714 C713 1.362 . S
C714 C717 1.409 . S
C715 H707 0.944 . S
C715 C716 1.355 1_554 S
C715 C717 1.415 . S
C716 C715 1.355 1_556 S
C716 C718 1.419 . S
C717 C712 1.425 1_554 S
C717 C714 1.409 . S
C717 C715 1.415 . S
C718 H708 0.930 . S
C718 C716 1.419 . S
C718 C719 1.362 . S
C719 H709 0.930 . S
C719 C712 1.409 . S
C719 C718 1.362 . S
H720 C726 0.930 . S
H721 C729 0.930 . S
H722 C730 0.930 1_545 S
H723 C731 0.930 . S
H724 C734 0.930 . S
H725 C735 0.930 . S
C726 H720 0.930 . S
C726 C727 1.355 . S
C726 C728 1.415 . S
C727 C726 1.355 . S
C727 C729 1.419 . S
C728 C726 1.415 . S
C728 C733 1.425 . S
C728 C735 1.409 . S
C729 H721 0.930 . S
C729 C727 1.419 . S
C729 C730 1.362 . S
C730 H722 0.930 1_565 S
C730 C729 1.362 . S
C730 C733 1.409 . S
C731 H723 0.930 . S
C731 C732 1.355 . S
C731 C733 1.415 . S
C732 C731 1.355 . S
C732 C734 1.419 . S
C733 C728 1.425 . S
C733 C730 1.409 . S
C733 C731 1.415 . S
C734 H724 0.930 . S
C734 C732 1.419 . S
C734 C735 1.362 . S
C735 H725 0.930 . S
C735 C728 1.409 . S
C735 C734 1.362 . S
H736 C742 0.930 . S
H737 C745 0.930 . S
H738 C746 0.930 . S
H739 C747 0.930 . S
H740 C750 0.930 . S
H741 C751 0.930 . S
C742 H736 0.930 . S
C742 C743 1.355 . S
C742 C744 1.415 . S
C743 C742 1.355 . S
C743 C745 1.419 1_554 S
C744 C742 1.415 . S
C744 C749 1.425 1_554 S
C744 C751 1.409 . S
C745 H737 0.930 . S
C745 C743 1.419 1_556 S
C745 C746 1.362 . S
C746 H738 0.930 . S
C746 C745 1.362 . S
C746 C749 1.409 . S
C747 H739 0.930 . S
C747 C748 1.355 . S
C747 C749 1.415 . S
C748 C747 1.355 . S
C748 C750 1.419 1_556 S
C749 C744 1.425 1_556 S
C749 C746 1.409 . S
C749 C747 1.415 . S
C750 H740 0.930 . S
C750 C748 1.419 1_554 S
C750 C751 1.362 . S
C751 H741 0.930 . S
C751 C744 1.409 . S
C751 C750 1.362 . S
H752 C758 0.930 . S
H753 C761 0.930 . S
H754 C762 0.930 . S
H755 C763 0.930 . S
H756 C766 0.930 . S
H757 C767 0.930 . S
C758 H752 0.930 . S
C758 C759 1.355 . S
C758 C760 1.415 . S
C759 C758 1.355 . S
C759 C761 1.419 . S
C760 C758 1.415 . S
C760 C765 1.425 . S
C760 C767 1.409 . S
C761 H753 0.930 . S
C761 C759 1.419 . S
C761 C762 1.362 . S
C762 H754 0.930 . S
C762 C761 1.362 . S
C762 C765 1.409 . S
C763 H755 0.930 . S
C763 C764 1.355 . S
C763 C765 1.415 . S
C764 C763 1.355 . S
C764 C766 1.419 . S
C765 C760 1.425 . S
C765 C762 1.409 . S
C765 C763 1.415 . S
C766 H756 0.930 . S
C766 C764 1.419 . S
C766 C767 1.362 . S
C767 H757 0.930 . S
C767 C760 1.409 . S
C767 C766 1.362 . S
H768 C774 0.930 1_556 S
H769 C777 0.930 . S
H770 C778 0.930 . S
H771 C779 0.930 1_554 S
H772 C782 0.930 . S
H773 C783 0.930 . S
C774 H768 0.930 1_554 S
C774 C775 1.355 . S
C774 C776 1.415 1_554 S
C775 C774 1.355 . S
C775 C777 1.419 1_455 S
C776 C774 1.415 1_556 S
C776 C781 1.425 1_556 S
C776 C783 1.409 . S
C777 H769 0.930 . S
C777 C775 1.419 1_655 S
C777 C778 1.362 . S
C778 H770 0.930 . S
C778 C777 1.362 . S
C778 C781 1.409 1_655 S
C779 H771 0.930 1_556 S
C779 C780 1.355 1_655 S
C779 C781 1.415 1_656 S
C780 C779 1.355 1_455 S
C780 C782 1.419 . S
C781 C776 1.425 1_554 S
C781 C778 1.409 1_455 S
C781 C779 1.415 1_454 S
C782 H772 0.930 . S
C782 C780 1.419 . S
C782 C783 1.362 . S
C783 H773 0.930 . S
C783 C776 1.409 . S
C783 C782 1.362 . S
H784 C790 0.930 . S
H785 C793 0.930 . S
H786 C794 0.930 . S
H787 C795 0.930 . S
H788 C798 0.930 . S
H789 C799 0.930 . S
C790 H784 0.930 . S
C790 C791 1.355 . S
C790 C792 1.415 . S
C791 C790 1.355 . S
C791 C793 1.419 . S
C792 C790 1.415 . S
C792 C797 1.425 . S
C792 C799 1.409 . S
C793 H785 0.930 . S
C793 C791 1.419 . S
C793 C794 1.362 . S
C794 H786 0.930 . S
C794 C793 1.362 . S
C794 C797 1.409 . S
C795 H787 0.930 . S
C795 C796 1.355 . S
C795 C797 1.415 . S
C796 C795 1.355 . S
C796 C798 1.419 . S
C797 C792 1.425 . S
C797 C794 1.409 . S
C797 C795 1.415 . S
C798 H788 0.930 . S
C798 C796 1.419 . S
C798 C799 1.362 . S
C799 H789 0.930 . S
C799 C792 1.409 . S
C799 C798 1.362 . S
H800 C806 0.930 . S
H801 C809 0.930 . S
H802 C810 0.930 . S
H803 C811 0.930 . S
H804 C814 0.930 . S
H805 C815 0.930 . S
C806 H800 0.930 . S
C806 C807 1.355 . S
C806 C808 1.415 . S
C807 C806 1.355 . S
C807 C809 1.419 . S
C808 C806 1.415 . S
C808 C813 1.425 . S
C808 C815 1.409 . S
C809 H801 0.930 . S
C809 C807 1.419 . S
C809 C810 1.362 . S
C810 H802 0.930 . S
C810 C809 1.362 . S
C810 C813 1.409 . S
C811 H803 0.930 . S
C811 C812 1.355 . S
C811 C813 1.415 . S
C812 C811 1.355 . S
C812 C814 1.419 . S
C813 C808 1.425 . S
C813 C810 1.409 . S
C813 C811 1.415 . S
C814 H804 0.930 . S
C814 C812 1.419 . S
C814 C815 1.362 . S
C815 H805 0.930 . S
C815 C808 1.409 . S
C815 C814 1.362 . S
H816 C822 0.930 . S
H817 C825 0.930 . S
H818 C826 0.930 . S
H819 C827 0.930 . S
H820 C830 0.930 . S
H821 C831 0.930 . S
C822 H816 0.930 . S
C822 C823 1.355 . S
C822 C824 1.415 . S
C823 C822 1.355 . S
C823 C825 1.419 . S
C824 C822 1.415 . S
C824 C829 1.425 . S
C824 C831 1.409 . S
C825 H817 0.930 . S
C825 C823 1.419 . S
C825 C826 1.362 . S
C826 H818 0.930 . S
C826 C825 1.362 . S
C826 C829 1.409 . S
C827 H819 0.930 . S
C827 C828 1.355 . S
C827 C829 1.415 . S
C828 C827 1.355 . S
C828 C830 1.419 . S
C829 C824 1.425 . S
C829 C826 1.409 . S
C829 C827 1.415 . S
C830 H820 0.930 . S
C830 C828 1.419 . S
C830 C831 1.362 . S
C831 H821 0.930 . S
C831 C824 1.409 . S
C831 C830 1.362 . S
H832 C838 0.930 . S
H833 C841 0.930 . S
H834 C842 0.930 . S
H835 C843 0.930 . S
H836 C846 0.930 . S
H837 C847 0.930 . S
C838 H832 0.930 . S
C838 C839 1.355 . S
C838 C840 1.415 . S
C839 C838 1.355 . S
C839 C841 1.419 . S
C840 C838 1.415 . S
C840 C845 1.425 . S
C840 C847 1.409 . S
C841 H833 0.930 . S
C841 C839 1.419 . S
C841 C842 1.362 . S
C842 H834 0.930 . S
C842 C841 1.362 . S
C842 C845 1.409 . S
C843 H835 0.930 . S
C843 C844 1.355 . S
C843 C845 1.415 . S
C844 C843 1.355 . S
C844 C846 1.419 . S
C845 C840 1.425 . S
C845 C842 1.409 . S
C845 C843 1.415 . S
C846 H836 0.930 . S
C846 C844 1.419 . S
C846 C847 1.362 . S
C847 H837 0.930 . S
C847 C840 1.409 . S
C847 C846 1.362 . S
H848 C854 0.930 . S
H849 C857 0.930 . S
H850 C858 0.930 . S
H851 C859 0.930 . S
H852 C862 0.930 . S
H853 C863 0.930 . S
C854 H848 0.930 . S
C854 C855 1.355 . S
C854 C856 1.415 . S
C855 C854 1.355 . S
C855 C857 1.419 . S
C856 C854 1.415 . S
C856 C861 1.425 . S
C856 C863 1.409 . S
C857 H849 0.930 . S
C857 C855 1.419 . S
C857 C858 1.362 . S
C858 H850 0.930 . S
C858 C857 1.362 . S
C858 C861 1.409 . S
C859 H851 0.930 . S
C859 C860 1.355 . S
C859 C861 1.415 . S
C860 C859 1.355 . S
C860 C862 1.419 . S
C861 C856 1.425 . S
C861 C858 1.409 . S
C861 C859 1.415 . S
C862 H852 0.930 . S
C862 C860 1.419 . S
C862 C863 1.362 . S
C863 H853 0.930 . S
C863 C856 1.409 . S
C863 C862 1.362 . S
H864 C870 0.930 . S
H865 C873 0.930 . S
H866 C874 0.930 . S
H867 C875 0.930 . S
H868 C878 0.930 . S
H869 C879 0.930 . S
C870 H864 0.930 . S
C870 C871 1.355 . S
C870 C872 1.415 . S
C871 C870 1.355 . S
C871 C873 1.419 . S
C872 C870 1.415 . S
C872 C877 1.425 . S
C872 C879 1.409 . S
C873 H865 0.930 . S
C873 C871 1.419 . S
C873 C874 1.362 . S
C874 H866 0.930 . S
C874 C873 1.362 . S
C874 C877 1.409 . S
C875 H867 0.930 . S
C875 C876 1.355 . S
C875 C877 1.415 . S
C876 C875 1.355 . S
C876 C878 1.419 . S
C877 C872 1.425 . S
C877 C874 1.409 . S
C877 C875 1.415 . S
C878 H868 0.930 . S
C878 C876 1.419 . S
C878 C879 1.362 . S
C879 H869 0.930 . S
C879 C872 1.409 . S
C879 C878 1.362 . S
H880 C886 0.930 . S
H881 C889 0.930 . S
H882 C890 0.930 . S
H883 C891 0.930 . S
H884 C894 0.930 . S
H885 C895 0.930 . S
C886 H880 0.930 . S
C886 C887 1.355 . S
C886 C888 1.415 . S
C887 C886 1.355 . S
C887 C889 1.419 . S
C888 C886 1.415 . S
C888 C893 1.425 . S
C888 C895 1.409 . S
C889 H881 0.930 . S
C889 C887 1.419 . S
C889 C890 1.362 . S
C890 H882 0.930 . S
C890 C889 1.362 . S
C890 C893 1.409 . S
C891 H883 0.930 . S
C891 C892 1.355 . S
C891 C893 1.415 . S
C892 C891 1.355 . S
C892 C894 1.419 . S
C893 C888 1.425 . S
C893 C890 1.409 . S
C893 C891 1.415 . S
C894 H884 0.930 . S
C894 C892 1.419 . S
C894 C895 1.362 . S
C895 H885 0.930 . S
C895 C888 1.409 . S
C895 C894 1.362 . S
H896 C902 0.930 . S
H897 C905 0.930 . S
H898 C906 0.930 . S
H899 C907 0.930 . S
H900 C910 0.930 . S
H901 C911 0.930 . S
C902 H896 0.930 . S
C902 C903 1.355 . S
C902 C904 1.415 . S
C903 C902 1.355 . S
C903 C905 1.419 . S
C904 C902 1.415 . S
C904 C909 1.425 . S
C904 C911 1.409 . S
C905 H897 0.930 . S
C905 C903 1.419 . S
C905 C906 1.362 . S
C906 H898 0.930 . S
C906 C905 1.362 . S
C906 C909 1.409 . S
C907 H899 0.930 . S
C907 C908 1.355 . S
C907 C909 1.415 . S
C908 C907 1.355 . S
C908 C910 1.419 . S
C909 C904 1.425 . S
C909 C906 1.409 . S
C909 C907 1.415 . S
C910 H900 0.930 . S
C910 C908 1.419 . S
C910 C911 1.362 . S
C911 H901 0.930 . S
C911 C904 1.409 . S
C911 C910 1.362 . S
H912 C918 0.930 . S
H913 C921 0.930 . S
H914 C922 0.930 . S
H915 C923 0.930 . S
H916 C926 0.930 . S
H917 C927 0.930 . S
C918 H912 0.930 . S
C918 C919 1.355 . S
C918 C920 1.415 . S
C919 C918 1.355 . S
C919 C921 1.419 . S
C920 C918 1.415 . S
C920 C925 1.425 . S
C920 C927 1.409 . S
C921 H913 0.930 . S
C921 C919 1.419 . S
C921 C922 1.362 . S
C922 H914 0.930 . S
C922 C921 1.362 . S
C922 C925 1.409 . S
C923 H915 0.930 . S
C923 C924 1.355 . S
C923 C925 1.415 . S
C924 C923 1.355 . S
C924 C926 1.419 . S
C925 C920 1.425 . S
C925 C922 1.409 . S
C925 C923 1.415 . S
C926 H916 0.930 . S
C926 C924 1.419 . S
C926 C927 1.362 . S
C927 H917 0.930 . S
C927 C920 1.409 . S
C927 C926 1.362 . S
H928 C934 0.930 . S
H929 C937 0.930 . S
H930 C938 0.930 . S
H931 C939 0.930 . S
H932 C942 0.930 . S
H933 C943 0.930 . S
C934 H928 0.930 . S
C934 C935 1.355 . S
C934 C936 1.415 . S
C935 C934 1.355 . S
C935 C937 1.419 . S
C936 C934 1.415 . S
C936 C941 1.425 . S
C936 C943 1.409 . S
C937 H929 0.930 . S
C937 C935 1.419 . S
C937 C938 1.362 . S
C938 H930 0.930 . S
C938 C937 1.362 . S
C938 C941 1.409 . S
C939 H931 0.930 . S
C939 C940 1.355 . S
C939 C941 1.415 . S
C940 C939 1.355 . S
C940 C942 1.419 . S
C941 C936 1.425 . S
C941 C938 1.409 . S
C941 C939 1.415 . S
C942 H932 0.930 . S
C942 C940 1.419 . S
C942 C943 1.362 . S
C943 H933 0.930 . S
C943 C936 1.409 . S
C943 C942 1.362 . S
H944 C950 0.930 . S
H945 C953 0.930 . S
H946 C954 0.930 . S
H947 C955 0.930 . S
H948 C958 0.930 . S
H949 C959 0.930 . S
C950 H944 0.930 . S
C950 C951 1.355 . S
C950 C952 1.415 . S
C951 C950 1.355 . S
C951 C953 1.419 . S
C952 C950 1.415 . S
C952 C957 1.425 . S
C952 C959 1.409 . S
C953 H945 0.930 . S
C953 C951 1.419 . S
C953 C954 1.362 . S
C954 H946 0.930 . S
C954 C953 1.362 . S
C954 C957 1.409 . S
C955 H947 0.930 . S
C955 C956 1.355 . S
C955 C957 1.415 . S
C956 C955 1.355 . S
C956 C958 1.419 . S
C957 C952 1.425 . S
C957 C954 1.409 . S
C957 C955 1.415 . S
C958 H948 0.930 . S
C958 C956 1.419 . S
C958 C959 1.362 . S
C959 H949 0.930 . S
C959 C952 1.409 . S
C959 C958 1.362 . S
H960 C966 0.930 . S
H961 C969 0.930 . S
H962 C970 0.930 . S
H963 C971 0.930 . S
H964 C974 0.930 . S
H965 C975 0.930 . S
C966 H960 0.930 . S
C966 C967 1.355 . S
C966 C968 1.415 . S
C967 C966 1.355 . S
C967 C969 1.419 . S
C968 C966 1.415 . S
C968 C973 1.425 . S
C968 C975 1.409 . S
C969 H961 0.930 . S
C969 C967 1.419 . S
C969 C970 1.362 . S
C970 H962 0.930 . S
C970 C969 1.362 . S
C970 C973 1.409 . S
C971 H963 0.930 . S
C971 C972 1.355 . S
C971 C973 1.415 . S
C972 C971 1.355 . S
C972 C974 1.419 . S
C973 C968 1.425 . S
C973 C970 1.409 . S
C973 C971 1.415 . S
C974 H964 0.930 . S
C974 C972 1.419 . S
C974 C975 1.362 . S
C975 H965 0.930 . S
C975 C968 1.409 . S
C975 C974 1.362 . S
H976 C982 0.930 . S
H977 C985 0.930 . S
H978 C986 0.930 . S
H979 C987 0.930 . S
H980 C990 0.930 . S
H981 C991 0.930 . S
C982 H976 0.930 . S
C982 C983 1.355 . S
C982 C984 1.415 . S
C983 C982 1.355 . S
C983 C985 1.419 . S
C984 C982 1.415 . S
C984 C989 1.425 . S
C984 C991 1.409 . S
C985 H977 0.930 . S
C985 C983 1.419 . S
C985 C986 1.362 . S
C986 H978 0.930 . S
C986 C985 1.362 . S
C986 C989 1.409 . S
C987 H979 0.930 . S
C987 C988 1.355 . S
C987 C989 1.415 . S
C988 C987 1.355 . S
C988 C990 1.419 . S
C989 C984 1.425 . S
C989 C986 1.409 . S
C989 C987 1.415 . S
C990 H980 0.930 . S
C990 C988 1.419 . S
C990 C991 1.362 . S
C991 H981 0.930 . S
C991 C984 1.409 . S
C991 C990 1.362 . S
H992 C998 0.930 . S
H993 C1001 0.930 . S
H994 C1002 0.930 . S
H995 C1003 0.930 . S
H996 C1006 0.930 . S
H997 C1007 0.930 . S
C998 H992 0.930 . S
C998 C999 1.355 . S
C998 C1000 1.415 . S
C999 C998 1.355 . S
C999 C1001 1.419 . S
C1000 C998 1.415 . S
C1000 C1005 1.425 . S
C1000 C1007 1.409 . S
C1001 H993 0.930 . S
C1001 C999 1.419 . S
C1001 C1002 1.362 . S
C1002 H994 0.930 . S
C1002 C1001 1.362 . S
C1002 C1005 1.409 . S
C1003 H995 0.930 . S
C1003 C1004 1.355 . S
C1003 C1005 1.415 . S
C1004 C1003 1.355 . S
C1004 C1006 1.419 . S
C1005 C1000 1.425 . S
C1005 C1002 1.409 . S
C1005 C1003 1.415 . S
C1006 H996 0.930 . S
C1006 C1004 1.419 . S
C1006 C1007 1.362 . S
C1007 H997 0.930 . S
C1007 C1000 1.409 . S
C1007 C1006 1.362 . S
H1008 C1014 0.930 . S
H1009 C1017 0.930 . S
H1010 C1018 0.930 . S
H1011 C1019 0.930 . S
H1012 C1022 0.930 . S
H1013 C1023 0.930 . S
C1014 H1008 0.930 . S
C1014 C1015 1.355 . S
C1014 C1016 1.415 . S
C1015 C1014 1.355 . S
C1015 C1017 1.419 . S
C1016 C1014 1.415 . S
C1016 C1021 1.425 . S
C1016 C1023 1.409 . S
C1017 H1009 0.930 . S
C1017 C1015 1.419 . S
C1017 C1018 1.362 . S
C1018 H1010 0.930 . S
C1018 C1017 1.362 . S
C1018 C1021 1.409 . S
C1019 H1011 0.930 . S
C1019 C1020 1.355 . S
C1019 C1021 1.415 . S
C1020 C1019 1.355 . S
C1020 C1022 1.419 . S
C1021 C1016 1.425 . S
C1021 C1018 1.409 . S
C1021 C1019 1.415 . S
C1022 H1012 0.930 . S
C1022 C1020 1.419 . S
C1022 C1023 1.362 . S
C1023 H1013 0.930 . S
C1023 C1016 1.409 . S
C1023 C1022 1.362 . S
H1024 C1030 0.930 . S
H1025 C1033 0.930 . S
H1026 C1034 0.930 . S
H1027 C1035 0.930 . S
H1028 C1038 0.930 . S
H1029 C1039 0.930 . S
C1030 H1024 0.930 . S
C1030 C1031 1.355 . S
C1030 C1032 1.415 . S
C1031 C1030 1.355 . S
C1031 C1033 1.419 . S
C1032 C1030 1.415 . S
C1032 C1037 1.425 . S
C1032 C1039 1.409 . S
C1033 H1025 0.930 . S
C1033 C1031 1.419 . S
C1033 C1034 1.362 . S
C1034 H1026 0.930 . S
C1034 C1033 1.362 . S
C1034 C1037 1.409 . S
C1035 H1027 0.930 . S
C1035 C1036 1.355 . S
C1035 C1037 1.415 . S
C1036 C1035 1.355 . S
C1036 C1038 1.419 . S
C1037 C1032 1.425 . S
C1037 C1034 1.409 . S
C1037 C1035 1.415 . S
C1038 H1028 0.930 . S
C1038 C1036 1.419 . S
C1038 C1039 1.362 . S
C1039 H1029 0.930 . S
C1039 C1032 1.409 . S
C1039 C1038 1.362 . S
H1040 C1046 0.930 . S
H1041 C1049 0.930 . S
H1042 C1050 0.930 . S
H1043 C1051 0.930 . S
H1044 C1054 0.930 . S
H1045 C1055 0.930 . S
C1046 H1040 0.930 . S
C1046 C1047 1.355 . S
C1046 C1048 1.415 . S
C1047 C1046 1.355 . S
C1047 C1049 1.419 . S
C1048 C1046 1.415 . S
C1048 C1053 1.425 . S
C1048 C1055 1.409 . S
C1049 H1041 0.930 . S
C1049 C1047 1.419 . S
C1049 C1050 1.362 . S
C1050 H1042 0.930 . S
C1050 C1049 1.362 . S
C1050 C1053 1.409 . S
C1051 H1043 0.930 . S
C1051 C1052 1.355 . S
C1051 C1053 1.415 . S
C1052 C1051 1.355 . S
C1052 C1054 1.419 . S
C1053 C1048 1.425 . S
C1053 C1050 1.409 . S
C1053 C1051 1.415 . S
C1054 H1044 0.930 . S
C1054 C1052 1.419 . S
C1054 C1055 1.362 . S
C1055 H1045 0.930 . S
C1055 C1048 1.409 . S
C1055 C1054 1.362 . S
H1056 C1062 0.930 . S
H1057 C1065 0.930 . S
H1058 C1066 0.930 . S
H1059 C1067 0.930 . S
H1060 C1070 0.930 . S
H1061 C1071 0.930 . S
C1062 H1056 0.930 . S
C1062 C1063 1.355 . S
C1062 C1064 1.415 . S
C1063 C1062 1.355 . S
C1063 C1065 1.419 . S
C1064 C1062 1.415 . S
C1064 C1069 1.425 . S
C1064 C1071 1.409 . S
C1065 H1057 0.930 . S
C1065 C1063 1.419 . S
C1065 C1066 1.362 . S
C1066 H1058 0.930 . S
C1066 C1065 1.362 . S
C1066 C1069 1.409 . S
C1067 H1059 0.930 . S
C1067 C1068 1.355 . S
C1067 C1069 1.415 . S
C1068 C1067 1.355 . S
C1068 C1070 1.419 . S
C1069 C1064 1.425 . S
C1069 C1066 1.409 . S
C1069 C1067 1.415 . S
C1070 H1060 0.930 . S
C1070 C1068 1.419 . S
C1070 C1071 1.362 . S
C1071 H1061 0.930 . S
C1071 C1064 1.409 . S
C1071 C1070 1.362 . S
H1072 C1078 0.930 . S
H1073 C1081 0.930 . S
H1074 C1082 0.930 . S
H1075 C1083 0.930 . S
H1076 C1086 0.930 . S
H1077 C1087 0.930 . S
C1078 H1072 0.930 . S
C1078 C1079 1.355 . S
C1078 C1080 1.415 . S
C1079 C1078 1.355 . S
C1079 C1081 1.419 . S
C1080 C1078 1.415 . S
C1080 C1085 1.425 . S
C1080 C1087 1.409 . S
C1081 H1073 0.930 . S
C1081 C1079 1.419 . S
C1081 C1082 1.362 . S
C1082 H1074 0.930 . S
C1082 C1081 1.362 . S
C1082 C1085 1.409 . S
C1083 H1075 0.930 . S
C1083 C1084 1.355 . S
C1083 C1085 1.415 . S
C1084 C1083 1.355 . S
C1084 C1086 1.419 . S
C1085 C1080 1.425 . S
C1085 C1082 1.409 . S
C1085 C1083 1.415 . S
C1086 H1076 0.930 . S
C1086 C1084 1.419 . S
C1086 C1087 1.362 . S
C1087 H1077 0.930 . S
C1087 C1080 1.409 . S
C1087 C1086 1.362 . S
H1088 C1094 0.930 . S
H1089 C1097 0.930 . S
H1090 C1098 0.930 . S
H1091 C1099 0.930 . S
H1092 C1102 0.930 . S
H1093 C1103 0.930 . S
C1094 H1088 0.930 . S
C1094 C1095 1.355 . S
C1094 C1096 1.415 . S
C1095 C1094 1.355 . S
C1095 C1097 1.419 . S
C1096 C1094 1.415 . S
C1096 C1101 1.425 . S
C1096 C1103 1.409 . S
C1097 H1089 0.930 . S
C1097 C1095 1.419 . S
C1097 C1098 1.362 . S
C1098 H1090 0.930 . S
C1098 C1097 1.362 . S
C1098 C1101 1.409 . S
C1099 H1091 0.930 . S
C1099 C1100 1.355 . S
C1099 C1101 1.415 . S
C1100 C1099 1.355 . S
C1100 C1102 1.419 . S
C1101 C1096 1.425 . S
C1101 C1098 1.409 . S
C1101 C1099 1.415 . S
C1102 H1092 0.930 . S
C1102 C1100 1.419 . S
C1102 C1103 1.362 . S
C1103 H1093 0.930 . S
C1103 C1096 1.409 . S
C1103 C1102 1.362 . S
H1104 C1110 0.930 . S
H1105 C1113 0.930 . S
H1106 C1114 0.930 . S
H1107 C1115 0.930 . S
H1108 C1118 0.930 . S
H1109 C1119 0.930 . S
C1110 H1104 0.930 . S
C1110 C1111 1.355 . S
C1110 C1112 1.415 . S
C1111 C1110 1.355 . S
C1111 C1113 1.419 . S
C1112 C1110 1.415 . S
C1112 C1117 1.425 . S
C1112 C1119 1.409 . S
C1113 H1105 0.930 . S
C1113 C1111 1.419 . S
C1113 C1114 1.362 . S
C1114 H1106 0.930 . S
C1114 C1113 1.362 . S
C1114 C1117 1.409 . S
C1115 H1107 0.930 . S
C1115 C1116 1.355 . S
C1115 C1117 1.415 . S
C1116 C1115 1.355 . S
C1116 C1118 1.419 . S
C1117 C1112 1.425 . S
C1117 C1114 1.409 . S
C1117 C1115 1.415 . S
C1118 H1108 0.930 . S
C1118 C1116 1.419 . S
C1118 C1119 1.362 . S
C1119 H1109 0.930 . S
C1119 C1112 1.409 . S
C1119 C1118 1.362 . S
H1120 C1126 0.930 . S
H1121 C1129 0.930 . S
H1122 C1130 0.930 . S
H1123 C1131 0.930 . S
H1124 C1134 0.930 . S
H1125 C1135 0.930 . S
C1126 H1120 0.930 . S
C1126 C1127 1.355 . S
C1126 C1128 1.415 . S
C1127 C1126 1.355 . S
C1127 C1129 1.419 . S
C1128 C1126 1.415 . S
C1128 C1133 1.425 . S
C1128 C1135 1.409 . S
C1129 H1121 0.930 . S
C1129 C1127 1.419 . S
C1129 C1130 1.362 . S
C1130 H1122 0.930 . S
C1130 C1129 1.362 . S
C1130 C1133 1.409 . S
C1131 H1123 0.930 . S
C1131 C1132 1.355 . S
C1131 C1133 1.415 . S
C1132 C1131 1.355 . S
C1132 C1134 1.419 . S
C1133 C1128 1.425 . S
C1133 C1130 1.409 . S
C1133 C1131 1.415 . S
C1134 H1124 0.930 . S
C1134 C1132 1.419 . S
C1134 C1135 1.362 . S
C1135 H1125 0.930 . S
C1135 C1128 1.409 . S
C1135 C1134 1.362 . S
H1136 C1142 0.930 . S
H1137 C1145 0.930 . S
H1138 C1146 0.930 . S
H1139 C1147 0.930 . S
H1140 C1150 0.930 . S
H1141 C1151 0.930 . S
C1142 H1136 0.930 . S
C1142 C1143 1.355 . S
C1142 C1144 1.415 . S
C1143 C1142 1.355 . S
C1143 C1145 1.419 . S
C1144 C1142 1.415 . S
C1144 C1149 1.425 . S
C1144 C1151 1.409 . S
C1145 H1137 0.930 . S
C1145 C1143 1.419 . S
C1145 C1146 1.362 . S
C1146 H1138 0.930 . S
C1146 C1145 1.362 . S
C1146 C1149 1.409 . S
C1147 H1139 0.930 . S
C1147 C1148 1.355 . S
C1147 C1149 1.415 . S
C1148 C1147 1.355 . S
C1148 C1150 1.419 . S
C1149 C1144 1.425 . S
C1149 C1146 1.409 . S
C1149 C1147 1.415 . S
C1150 H1140 0.930 . S
C1150 C1148 1.419 . S
C1150 C1151 1.362 . S
C1151 H1141 0.930 . S
C1151 C1144 1.409 . S
C1151 C1150 1.362 . S
H1152 C1158 0.930 . S
H1153 C1161 0.930 . S
H1154 C1162 0.930 . S
H1155 C1163 0.930 . S
H1156 C1166 0.930 . S
H1157 C1167 0.930 . S
C1158 H1152 0.930 . S
C1158 C1159 1.355 . S
C1158 C1160 1.415 . S
C1159 C1158 1.355 . S
C1159 C1161 1.419 . S
C1160 C1158 1.415 . S
C1160 C1165 1.425 . S
C1160 C1167 1.409 . S
C1161 H1153 0.930 . S
C1161 C1159 1.419 . S
C1161 C1162 1.362 . S
C1162 H1154 0.930 . S
C1162 C1161 1.362 . S
C1162 C1165 1.409 . S
C1163 H1155 0.930 . S
C1163 C1164 1.355 . S
C1163 C1165 1.415 . S
C1164 C1163 1.355 . S
C1164 C1166 1.419 . S
C1165 C1160 1.425 . S
C1165 C1162 1.409 . S
C1165 C1163 1.415 . S
C1166 H1156 0.930 . S
C1166 C1164 1.419 . S
C1166 C1167 1.362 . S
C1167 H1157 0.930 . S
C1167 C1160 1.409 . S
C1167 C1166 1.362 . S
H1168 C1174 0.930 . S
H1169 C1177 0.930 . S
H1170 C1178 0.930 . S
H1171 C1179 0.930 . S
H1172 C1182 0.930 . S
H1173 C1183 0.930 . S
C1174 H1168 0.930 . S
C1174 C1175 1.355 . S
C1174 C1176 1.415 . S
C1175 C1174 1.355 . S
C1175 C1177 1.419 . S
C1176 C1174 1.415 . S
C1176 C1181 1.425 . S
C1176 C1183 1.409 . S
C1177 H1169 0.930 . S
C1177 C1175 1.419 . S
C1177 C1178 1.362 . S
C1178 H1170 0.930 . S
C1178 C1177 1.362 . S
C1178 C1181 1.409 . S
C1179 H1171 0.930 . S
C1179 C1180 1.355 . S
C1179 C1181 1.415 . S
C1180 C1179 1.355 . S
C1180 C1182 1.419 . S
C1181 C1176 1.425 . S
C1181 C1178 1.409 . S
C1181 C1179 1.415 . S
C1182 H1172 0.930 . S
C1182 C1180 1.419 . S
C1182 C1183 1.362 . S
C1183 H1173 0.930 . S
C1183 C1176 1.409 . S
C1183 C1182 1.362 . S
C551 C5 0.745 . S
C556 C277 0.745 . S
C567 C311 0.589 . S
C572 C39 0.589 . S
C583 C73 0.669 . S
C588 C345 0.669 . S
C599 C107 0.689 . S
C604 C379 0.689 . S
C615 C141 0.576 . S
C620 C413 0.576 . S
C631 C447 0.732 . S
C636 C175 0.732 . S
C647 C481 0.636 . S
C652 C209 0.636 . S
C663 C243 0.708 . S
C668 C515 0.708 . S
C679 C9 1.375 . S
C684 C145 1.293 . S
C695 C43 1.376 . S
C700 C179 1.297 . S
C711 C77 1.340 . S
C716 C213 1.345 . S
C727 C111 1.340 . S
C732 C247 1.346 . S
C743 C417 1.332 . S
C748 C281 1.322 . S
C759 C451 1.364 . S
C764 C315 1.317 . S
C775 C485 1.376 . S
C780 C349 1.297 . S
C791 C383 1.362 . S
C796 C519 1.322 . S
C807 C2 2.155 . S
C812 C240 2.103 . S
C823 C138 2.157 . S
C828 C36 2.100 . S
C839 C172 2.148 . S
C844 C70 2.104 . S
C855 C104 2.113 . S
C860 C206 2.147 . S
C871 C512 2.098 . S
C876 C274 2.158 . S
C887 C410 2.158 . S
C892 C308 2.099 . S
C903 C342 2.146 . S
C908 C444 2.106 . S
C919 C376 2.158 . S
C924 C478 2.098 . S
C935 C543 1.413 . S
C940 C20 1.392 . S
C951 C54 1.384 . S
C956 C441 1.413 . S
C967 C88 1.326 . S
C972 C475 1.436 . S
C983 C509 1.441 . S
C988 C122 1.382 . S
C999 C156 1.403 . S
C1004 C339 1.413 . S
C1015 C190 1.324 . S
C1020 C373 1.441 . S
C1031 C407 1.414 . S
C1036 C224 1.379 . S
C1047 C258 1.328 . S
C1052 C305 1.446 . S
C1063 C292 1.326 . S
C1068 C271 1.436 . S
C1079 C169 1.437 . S
C1084 C326 1.325 . S
C1095 C360 1.373 . S
C1100 C203 1.444 . S
C1111 C237 1.448 . S
C1116 C394 1.354 . S
C1127 C428 1.379 . S
C1132 C67 1.414 . S
C1143 C101 1.448 . S
C1148 C462 1.347 . S
C1159 C135 1.413 . S
C1164 C496 1.401 . S
C1175 C33 1.436 . S
C1180 C530 1.326 . S
