# Generated by pormake.
# Topology unr, (4)-cn, num edge types: 1
# Building blocks:
#     Node 0, Type 0, BuildingBlock: QUQFOY_clean_sbu_1, # of connection points: 4
#     Node 1, Type 0, BuildingBlock: QUQFOY_clean_sbu_1, # of connection points: 4
#     Node 2, Type 0, BuildingBlock: QUQFOY_clean_sbu_1, # of connection points: 4
#     Node 3, Type 0, BuildingBlock: QUQFOY_clean_sbu_1, # of connection points: 4
#     Node 4, Type 0, BuildingBlock: QUQFOY_clean_sbu_1, # of connection points: 4
#     Node 5, Type 0, BuildingBlock: QUQFOY_clean_sbu_1, # of connection points: 4
#     Node 6, Type 0, BuildingBlock: QUQFOY_clean_sbu_1, # of connection points: 4
#     Node 7, Type 0, BuildingBlock: QUQFOY_clean_sbu_1, # of connection points: 4
#     Node 8, Type 0, BuildingBlock: QUQFOY_clean_sbu_1, # of connection points: 4
#     Node 9, Type 0, BuildingBlock: QUQFOY_clean_sbu_1, # of connection points: 4
#     Node 10, Type 0, BuildingBlock: QUQFOY_clean_sbu_1, # of connection points: 4
#     Node 11, Type 0, BuildingBlock: QUQFOY_clean_sbu_1, # of connection points: 4
#     Node 12, Type 0, BuildingBlock: QUQFOY_clean_sbu_1, # of connection points: 4
#     Node 13, Type 0, BuildingBlock: QUQFOY_clean_sbu_1, # of connection points: 4
#     Node 14, Type 0, BuildingBlock: QUQFOY_clean_sbu_1, # of connection points: 4
#     Node 15, Type 0, BuildingBlock: QUQFOY_clean_sbu_1, # of connection points: 4
#     Node 16, Type 0, BuildingBlock: QUQFOY_clean_sbu_1, # of connection points: 4
#     Node 17, Type 0, BuildingBlock: QUQFOY_clean_sbu_1, # of connection points: 4
#     Node 18, Type 0, BuildingBlock: QUQFOY_clean_sbu_1, # of connection points: 4
#     Node 19, Type 0, BuildingBlock: QUQFOY_clean_sbu_1, # of connection points: 4
#     Node 20, Type 0, BuildingBlock: QUQFOY_clean_sbu_1, # of connection points: 4
#     Node 21, Type 0, BuildingBlock: QUQFOY_clean_sbu_1, # of connection points: 4
#     Node 22, Type 0, BuildingBlock: QUQFOY_clean_sbu_1, # of connection points: 4
#     Node 23, Type 0, BuildingBlock: QUQFOY_clean_sbu_1, # of connection points: 4
#     Node 24, Type 0, BuildingBlock: QUQFOY_clean_sbu_1, # of connection points: 4
#     Node 25, Type 0, BuildingBlock: QUQFOY_clean_sbu_1, # of connection points: 4
#     Node 26, Type 0, BuildingBlock: QUQFOY_clean_sbu_1, # of connection points: 4
#     Node 27, Type 0, BuildingBlock: QUQFOY_clean_sbu_1, # of connection points: 4
#     Node 28, Type 0, BuildingBlock: QUQFOY_clean_sbu_1, # of connection points: 4
#     Node 29, Type 0, BuildingBlock: QUQFOY_clean_sbu_1, # of connection points: 4
#     Node 30, Type 0, BuildingBlock: QUQFOY_clean_sbu_1, # of connection points: 4
#     Node 31, Type 0, BuildingBlock: QUQFOY_clean_sbu_1, # of connection points: 4
#     Node 32, Type 0, BuildingBlock: QUQFOY_clean_sbu_1, # of connection points: 4
#     Node 33, Type 0, BuildingBlock: QUQFOY_clean_sbu_1, # of connection points: 4
#     Node 34, Type 0, BuildingBlock: QUQFOY_clean_sbu_1, # of connection points: 4
#     Node 35, Type 0, BuildingBlock: QUQFOY_clean_sbu_1, # of connection points: 4
#     Edge 36, Type (0, 0), None
#     Edge 37, Type (0, 0), None
#     Edge 38, Type (0, 0), None
#     Edge 39, Type (0, 0), None
#     Edge 40, Type (0, 0), None
#     Edge 41, Type (0, 0), None
#     Edge 42, Type (0, 0), None
#     Edge 43, Type (0, 0), None
#     Edge 44, Type (0, 0), None
#     Edge 45, Type (0, 0), None
#     Edge 46, Type (0, 0), None
#     Edge 47, Type (0, 0), None
#     Edge 48, Type (0, 0), None
#     Edge 49, Type (0, 0), None
#     Edge 50, Type (0, 0), None
#     Edge 51, Type (0, 0), None
#     Edge 52, Type (0, 0), None
#     Edge 53, Type (0, 0), None
#     Edge 54, Type (0, 0), None
#     Edge 55, Type (0, 0), None
#     Edge 56, Type (0, 0), None
#     Edge 57, Type (0, 0), None
#     Edge 58, Type (0, 0), None
#     Edge 59, Type (0, 0), None
#     Edge 60, Type (0, 0), None
#     Edge 61, Type (0, 0), None
#     Edge 62, Type (0, 0), None
#     Edge 63, Type (0, 0), None
#     Edge 64, Type (0, 0), None
#     Edge 65, Type (0, 0), None
#     Edge 66, Type (0, 0), None
#     Edge 67, Type (0, 0), None
#     Edge 68, Type (0, 0), None
#     Edge 69, Type (0, 0), None
#     Edge 70, Type (0, 0), None
#     Edge 71, Type (0, 0), None
#     Edge 72, Type (0, 0), None
#     Edge 73, Type (0, 0), None
#     Edge 74, Type (0, 0), None
#     Edge 75, Type (0, 0), None
#     Edge 76, Type (0, 0), None
#     Edge 77, Type (0, 0), None
#     Edge 78, Type (0, 0), None
#     Edge 79, Type (0, 0), None
#     Edge 80, Type (0, 0), None
#     Edge 81, Type (0, 0), None
#     Edge 82, Type (0, 0), None
#     Edge 83, Type (0, 0), None
#     Edge 84, Type (0, 0), None
#     Edge 85, Type (0, 0), None
#     Edge 86, Type (0, 0), None
#     Edge 87, Type (0, 0), None
#     Edge 88, Type (0, 0), None
#     Edge 89, Type (0, 0), None
#     Edge 90, Type (0, 0), None
#     Edge 91, Type (0, 0), None
#     Edge 92, Type (0, 0), None
#     Edge 93, Type (0, 0), None
#     Edge 94, Type (0, 0), None
#     Edge 95, Type (0, 0), None
#     Edge 96, Type (0, 0), None
#     Edge 97, Type (0, 0), None
#     Edge 98, Type (0, 0), None
#     Edge 99, Type (0, 0), None
#     Edge 100, Type (0, 0), None
#     Edge 101, Type (0, 0), None
#     Edge 102, Type (0, 0), None
#     Edge 103, Type (0, 0), None
#     Edge 104, Type (0, 0), None
#     Edge 105, Type (0, 0), None
#     Edge 106, Type (0, 0), None
#     Edge 107, Type (0, 0), None
# Relax obj value: 0.279
# Max RMSD: 0.135
# Mean RMSD: 0.135
data_MOF--net-unr--node1-QUQFOY_clean_sbu_1--edge1-none
_symmetry_space_group_name_H-M    P1
_symmetry_Int_Tables_number       1
_symmetry_cell_setting            triclinic
loop_
_symmetry_equiv_pos_as_xyz
'x, y, z'
_cell_length_a     22.906588
_cell_length_b     22.906448
_cell_length_c     68.798274
_cell_angle_alpha  89.998176
_cell_angle_beta   90.000714
_cell_angle_gamma 120.00382
loop_
_atom_site_label
_atom_site_type_symbol
_atom_site_fract_x
_atom_site_fract_y
_atom_site_fract_z
_atom_type_partial_charge
O0 O 0.12804 0.01698 0.16637 0.0
Cd1 Cd 0.18344 0.11875 0.16692 0.0
Cd2 Cd 0.15822 0.10065 0.2083 0.0
O3 O 0.14879 0.00975 0.19744 0.0
O4 O 0.26498 0.15011 0.15048 0.0
O5 O 0.26602 0.15035 0.18293 0.0
C6 C 0.29726 0.15787 0.16662 0.0
C7 C 0.14263 0.12414 0.24059 0.0
C8 C 0.12406 0.98154 0.18098 0.0
C9 C 0.08497 0.15102 0.18167 0.0
O10 O 0.09463 0.1253 0.19653 0.0
O11 O 0.12173 0.16212 0.16666 0.0
O12 O 0.19971 0.16147 0.23209 0.0
O13 O 0.10081 0.06861 0.23224 0.0
O14 O 0.98194 0.11092 0.16637 0.0
Cd15 Cd 0.88016 0.06451 0.16693 0.0
Cd16 Cd 0.89836 0.05751 0.2083 0.0
O17 O 0.98919 0.13906 0.19743 0.0
O18 O 0.84875 0.11462 0.15048 0.0
O19 O 0.84858 0.11551 0.18293 0.0
C20 C 0.84101 0.13917 0.16662 0.0
C21 C 0.87479 0.0185 0.24059 0.0
C22 C 0.01736 0.14248 0.18096 0.0
C23 C 0.84804 0.93383 0.1817 0.0
O24 O 0.87384 0.96926 0.19655 0.0
O25 O 0.8368 0.95942 0.16671 0.0
O26 O 0.83742 0.03813 0.23206 0.0
O27 O 0.93039 0.03228 0.23226 0.0
O28 O 0.88797 0.87081 0.16638 0.0
Cd29 Cd 0.93437 0.81545 0.16689 0.0
Cd30 Cd 0.9415 0.84051 0.20831 0.0
O31 O 0.86007 0.85005 0.19747 0.0
O32 O 0.88416 0.73389 0.15046 0.0
O33 O 0.88347 0.73289 0.18291 0.0
C34 C 0.85971 0.70163 0.16661 0.0
C35 C 0.98062 0.85615 0.24059 0.0
C36 C 0.85656 0.87475 0.181 0.0
C37 C 0.0651 0.91385 0.18166 0.0
O38 O 0.02975 0.90407 0.19653 0.0
O39 O 0.03945 0.87723 0.16663 0.0
O40 O 0.96083 0.79905 0.2321 0.0
O41 O 0.96694 0.89797 0.23224 0.0
O42 O 0.01673 0.12829 0.33334 0.0
Cd43 Cd 0.11851 0.1837 0.33279 0.0
Cd44 Cd 0.10033 0.15846 0.29141 0.0
O45 O 0.00948 0.14911 0.30228 0.0
O46 O 0.14989 0.26522 0.34923 0.0
O47 O 0.15008 0.26629 0.31678 0.0
C48 C 0.15763 0.29751 0.33309 0.0
C49 C 0.12383 0.14293 0.25912 0.0
C50 C 0.98128 0.12435 0.31875 0.0
C51 C 0.15072 0.0852 0.31803 0.0
O52 O 0.12494 0.09481 0.30317 0.0
O53 O 0.1619 0.122 0.33302 0.0
O54 O 0.16119 0.19998 0.26764 0.0
O55 O 0.06828 0.10111 0.26746 0.0
O56 O 0.8706 0.88824 0.33333 0.0
Cd57 Cd 0.81521 0.93463 0.33283 0.0
Cd58 Cd 0.8403 0.94179 0.29141 0.0
O59 O 0.84987 0.86039 0.30225 0.0
O60 O 0.73366 0.8844 0.34925 0.0
O61 O 0.73265 0.88372 0.31681 0.0
C62 C 0.7014 0.85995 0.33311 0.0
C63 C 0.85596 0.9809 0.25912 0.0
C64 C 0.87461 0.85688 0.31871 0.0
C65 C 0.9136 0.06538 0.31806 0.0
O66 O 0.90382 0.03005 0.30319 0.0
O67 O 0.87698 0.0397 0.33309 0.0
O68 O 0.79885 0.9611 0.26761 0.0
O69 O 0.8978 0.96726 0.26749 0.0
O70 O 0.11071 0.9822 0.33333 0.0
Cd71 Cd 0.0643 0.88042 0.3328 0.0
Cd72 Cd 0.05727 0.89852 0.2914 0.0
O73 O 0.13876 0.98941 0.30226 0.0
O74 O 0.11446 0.84903 0.34923 0.0
O75 O 0.11526 0.84882 0.31678 0.0
C76 C 0.13897 0.84128 0.33309 0.0
C77 C 0.01823 0.87497 0.25912 0.0
C78 C 0.14221 0.0176 0.31873 0.0
C79 C 0.93362 0.84823 0.31802 0.0
O80 O 0.96901 0.87394 0.30316 0.0
O81 O 0.95922 0.8371 0.33303 0.0
O82 O 0.03791 0.83762 0.26764 0.0
O83 O 0.03199 0.93054 0.26745 0.0
O84 O 0.8706 0.98211 0.83334 0.0
Cd85 Cd 0.8152 0.88033 0.8328 0.0
Cd86 Cd 0.84042 0.89844 0.79142 0.0
O87 O 0.84985 0.98934 0.80227 0.0
O88 O 0.73366 0.84897 0.84924 0.0
O89 O 0.73262 0.84873 0.81679 0.0
C90 C 0.70139 0.84121 0.8331 0.0
C91 C 0.85601 0.87495 0.75913 0.0
C92 C 0.87458 0.01754 0.81874 0.0
C93 C 0.91367 0.84807 0.81805 0.0
O94 O 0.90401 0.87378 0.80319 0.0
O95 O 0.87691 0.83697 0.83305 0.0
O96 O 0.79893 0.83762 0.76763 0.0
O97 O 0.89784 0.93047 0.76748 0.0
O98 O 0.0167 0.88816 0.83335 0.0
Cd99 Cd 0.11848 0.93457 0.83279 0.0
Cd100 Cd 0.10028 0.94157 0.79142 0.0
O101 O 0.00945 0.86003 0.80228 0.0
O102 O 0.1499 0.88446 0.84924 0.0
O103 O 0.15006 0.88357 0.81679 0.0
C104 C 0.15763 0.85991 0.8331 0.0
C105 C 0.12385 0.98058 0.75913 0.0
C106 C 0.98128 0.85661 0.81875 0.0
C107 C 0.15061 0.06525 0.81802 0.0
O108 O 0.1248 0.02982 0.80317 0.0
O109 O 0.16184 0.03966 0.83301 0.0
O110 O 0.16122 0.96095 0.76766 0.0
O111 O 0.06826 0.9668 0.76745 0.0
O112 O 0.11068 0.12828 0.83334 0.0
Cd113 Cd 0.06427 0.18364 0.83283 0.0
Cd114 Cd 0.05715 0.15857 0.79141 0.0
O115 O 0.13857 0.14903 0.80225 0.0
O116 O 0.11449 0.2652 0.84926 0.0
O117 O 0.11517 0.2662 0.81681 0.0
C118 C 0.13894 0.29746 0.83311 0.0
C119 C 0.01803 0.14294 0.75913 0.0
C120 C 0.14209 0.12433 0.81872 0.0
C121 C 0.93355 0.08524 0.81806 0.0
O122 O 0.96889 0.09502 0.80319 0.0
O123 O 0.9592 0.12185 0.83309 0.0
O124 O 0.03781 0.20004 0.76762 0.0
O125 O 0.0317 0.10111 0.76748 0.0
O126 O 0.98191 0.87079 0.66638 0.0
Cd127 Cd 0.88013 0.81539 0.66693 0.0
Cd128 Cd 0.89831 0.84063 0.70831 0.0
O129 O 0.98916 0.84997 0.69744 0.0
O130 O 0.84875 0.73386 0.65049 0.0
O131 O 0.84856 0.7328 0.68294 0.0
C132 C 0.84101 0.70158 0.66663 0.0
C133 C 0.87481 0.85616 0.74059 0.0
C134 C 0.01736 0.87473 0.68097 0.0
C135 C 0.84793 0.91389 0.68169 0.0
O136 O 0.87371 0.90428 0.69655 0.0
O137 O 0.83675 0.87709 0.6667 0.0
O138 O 0.83745 0.79911 0.73208 0.0
O139 O 0.93036 0.89798 0.73226 0.0
O140 O 0.12804 0.11084 0.66639 0.0
Cd141 Cd 0.18343 0.06446 0.66689 0.0
Cd142 Cd 0.15835 0.0573 0.70831 0.0
O143 O 0.14877 0.1387 0.69747 0.0
O144 O 0.26498 0.11469 0.65046 0.0
O145 O 0.26599 0.11536 0.68291 0.0
C146 C 0.29725 0.13914 0.66661 0.0
C147 C 0.14268 0.01818 0.7406 0.0
C148 C 0.12403 0.14221 0.681 0.0
C149 C 0.08505 0.93371 0.68165 0.0
O150 O 0.09482 0.96903 0.69653 0.0
O151 O 0.12166 0.95938 0.66663 0.0
O152 O 0.19979 0.03799 0.73211 0.0
O153 O 0.10085 0.03183 0.73223 0.0
O154 O 0.88793 0.01688 0.66638 0.0
Cd155 Cd 0.93434 0.11866 0.66692 0.0
Cd156 Cd 0.94137 0.10056 0.70831 0.0
O157 O 0.85988 0.00968 0.69746 0.0
O158 O 0.88418 0.15006 0.65049 0.0
O159 O 0.88339 0.15027 0.68294 0.0
C160 C 0.85968 0.15781 0.66663 0.0
C161 C 0.98042 0.12411 0.74059 0.0
C162 C 0.85643 0.98149 0.68099 0.0
C163 C 0.06502 0.15086 0.6817 0.0
O164 O 0.02963 0.12514 0.69656 0.0
O165 O 0.03943 0.16198 0.66669 0.0
O166 O 0.96074 0.16147 0.73208 0.0
O167 O 0.96666 0.06854 0.73227 0.0
O168 O 0.79471 0.35029 0.49973 0.0
Cd169 Cd 0.85011 0.45207 0.50026 0.0
Cd170 Cd 0.82492 0.434 0.54165 0.0
O171 O 0.81546 0.34309 0.5308 0.0
O172 O 0.93164 0.48341 0.48382 0.0
O173 O 0.9327 0.48368 0.51627 0.0
C174 C 0.96392 0.49119 0.49995 0.0
C175 C 0.80932 0.45748 0.57394 0.0
C176 C 0.79072 0.31487 0.51433 0.0
C177 C 0.75167 0.48437 0.51501 0.0
O178 O 0.76135 0.45869 0.52987 0.0
O179 O 0.7884 0.49544 0.5 0.0
O180 O 0.8664 0.4948 0.56544 0.0
O181 O 0.76748 0.40197 0.56558 0.0
O182 O 0.64863 0.44427 0.49972 0.0
Cd183 Cd 0.54685 0.39785 0.50027 0.0
Cd184 Cd 0.56503 0.39083 0.54165 0.0
O185 O 0.65587 0.47236 0.53078 0.0
O186 O 0.51544 0.44797 0.48382 0.0
O187 O 0.51525 0.44884 0.51627 0.0
C188 C 0.50769 0.47251 0.49996 0.0
C189 C 0.54148 0.35178 0.57393 0.0
C190 C 0.68405 0.4758 0.51431 0.0
C191 C 0.51468 0.26716 0.51504 0.0
O192 O 0.54047 0.30258 0.52989 0.0
O193 O 0.50348 0.29276 0.50004 0.0
O194 O 0.50412 0.37145 0.56541 0.0
O195 O 0.59706 0.36555 0.5656 0.0
O196 O 0.55462 0.20413 0.49973 0.0
Cd197 Cd 0.60102 0.14877 0.50024 0.0
Cd198 Cd 0.60812 0.17384 0.54166 0.0
O199 O 0.52669 0.18337 0.53081 0.0
O200 O 0.55084 0.06722 0.48381 0.0
O201 O 0.5501 0.06619 0.51626 0.0
C202 C 0.52636 0.03495 0.49995 0.0
C203 C 0.64721 0.18941 0.57394 0.0
C204 C 0.5232 0.20808 0.51434 0.0
C205 C 0.73174 0.24719 0.51502 0.0
O206 O 0.69638 0.23744 0.52989 0.0
O207 O 0.7061 0.21054 0.49999 0.0
O208 O 0.62745 0.13234 0.56544 0.0
O209 O 0.63352 0.23125 0.56559 0.0
O210 O 0.6834 0.46156 0.66669 0.0
Cd211 Cd 0.78518 0.51696 0.66613 0.0
Cd212 Cd 0.76698 0.49174 0.62476 0.0
O213 O 0.67616 0.48244 0.63563 0.0
O214 O 0.81657 0.59849 0.68257 0.0
O215 O 0.81675 0.59955 0.65012 0.0
C216 C 0.8243 0.63078 0.66643 0.0
C217 C 0.79051 0.47625 0.59247 0.0
C218 C 0.64795 0.45764 0.65209 0.0
C219 C 0.81734 0.41843 0.65137 0.0
O220 O 0.79153 0.42803 0.63652 0.0
O221 O 0.82856 0.45526 0.66636 0.0
O222 O 0.82788 0.53328 0.601 0.0
O223 O 0.73493 0.43444 0.6008 0.0
O224 O 0.53725 0.22151 0.66668 0.0
Cd225 Cd 0.48187 0.2679 0.66615 0.0
Cd226 Cd 0.50702 0.27506 0.62475 0.0
O227 O 0.51654 0.19363 0.6356 0.0
O228 O 0.40031 0.21768 0.68258 0.0
O229 O 0.39931 0.21698 0.65013 0.0
C230 C 0.36805 0.19322 0.66643 0.0
C231 C 0.52266 0.31418 0.59247 0.0
C232 C 0.54126 0.19012 0.65206 0.0
C233 C 0.58028 0.39865 0.6514 0.0
O234 O 0.57056 0.36331 0.63653 0.0
O235 O 0.54363 0.37297 0.66642 0.0
O236 O 0.46556 0.29439 0.60096 0.0
O237 O 0.56449 0.3005 0.60082 0.0
O238 O 0.77735 0.31546 0.66668 0.0
Cd239 Cd 0.73094 0.21368 0.66616 0.0
Cd240 Cd 0.72389 0.23173 0.62475 0.0
O241 O 0.80537 0.32263 0.63561 0.0
O242 O 0.78111 0.1823 0.68259 0.0
O243 O 0.78188 0.18205 0.65014 0.0
C244 C 0.8056 0.17453 0.66645 0.0
C245 C 0.68482 0.20822 0.59247 0.0
C246 C 0.80883 0.35083 0.65207 0.0
C247 C 0.60025 0.18144 0.65138 0.0
O248 O 0.63563 0.20711 0.63651 0.0
O249 O 0.62586 0.17037 0.66639 0.0
O250 O 0.70453 0.17087 0.60098 0.0
O251 O 0.69856 0.26376 0.60081 0.0
O252 O 0.53728 0.31547 0.16668 0.0
Cd253 Cd 0.48186 0.21369 0.16613 0.0
Cd254 Cd 0.5071 0.23181 0.12475 0.0
O255 O 0.51649 0.32269 0.13561 0.0
O256 O 0.40033 0.18234 0.18257 0.0
O257 O 0.39929 0.18211 0.15012 0.0
C258 C 0.36805 0.17458 0.16643 0.0
C259 C 0.52268 0.20832 0.09247 0.0
C260 C 0.54125 0.35091 0.15208 0.0
C261 C 0.58034 0.18143 0.15139 0.0
O262 O 0.5707 0.20717 0.13653 0.0
O263 O 0.54356 0.17031 0.16638 0.0
O264 O 0.46561 0.17098 0.10097 0.0
O265 O 0.5645 0.26385 0.10081 0.0
O266 O 0.68337 0.22152 0.16668 0.0
Cd267 Cd 0.78515 0.26792 0.16612 0.0
Cd268 Cd 0.76691 0.27491 0.12475 0.0
O269 O 0.67611 0.19335 0.13562 0.0
O270 O 0.81656 0.2178 0.18256 0.0
O271 O 0.81671 0.21691 0.15011 0.0
C272 C 0.82429 0.19325 0.16642 0.0
C273 C 0.79049 0.31393 0.09247 0.0
C274 C 0.64794 0.18995 0.15209 0.0
C275 C 0.81726 0.39859 0.15134 0.0
O276 O 0.79141 0.36316 0.1365 0.0
O277 O 0.82853 0.37301 0.16633 0.0
O278 O 0.82786 0.29431 0.101 0.0
O279 O 0.73488 0.30013 0.10078 0.0
O280 O 0.77735 0.46163 0.16667 0.0
Cd281 Cd 0.73095 0.51701 0.16616 0.0
Cd282 Cd 0.72383 0.49191 0.12474 0.0
O283 O 0.80527 0.48241 0.13558 0.0
O284 O 0.78117 0.59857 0.18258 0.0
O285 O 0.78187 0.59956 0.15013 0.0
C286 C 0.80563 0.63082 0.16643 0.0
C287 C 0.68471 0.4763 0.09246 0.0
C288 C 0.80877 0.45769 0.15205 0.0
C289 C 0.60023 0.41858 0.15139 0.0
O290 O 0.63558 0.42833 0.13652 0.0
O291 O 0.62588 0.45523 0.16641 0.0
O292 O 0.70448 0.53338 0.10096 0.0
O293 O 0.69841 0.43447 0.10081 0.0
O294 O 0.64859 0.20415 0.99971 0.0
Cd295 Cd 0.54681 0.14876 0.00026 0.0
Cd296 Cd 0.56498 0.17398 0.04164 0.0
O297 O 0.65584 0.18335 0.03078 0.0
O298 O 0.51543 0.06723 0.98382 0.0
O299 O 0.51522 0.06617 0.01627 0.0
C300 C 0.50768 0.03494 -4e-05 0.0
C301 C 0.54148 0.18953 0.07393 0.0
C302 C 0.68404 0.20811 0.01431 0.0
C303 C 0.51459 0.24725 0.01502 0.0
O304 O 0.54036 0.23762 0.02988 0.0
O305 O 0.50343 0.21046 3e-05 0.0
O306 O 0.50413 0.13247 0.06542 0.0
O307 O 0.59702 0.23135 0.06559 0.0
O308 O 0.79472 0.44422 0.99972 0.0
Cd309 Cd 0.8501 0.39783 0.00023 0.0
Cd310 Cd 0.82501 0.39067 0.04165 0.0
O311 O 0.81541 0.47206 0.03081 0.0
O312 O 0.93165 0.44805 0.9838 0.0
O313 O 0.93267 0.44874 0.01625 0.0
C314 C 0.96392 0.4725 -5e-05 0.0
C315 C 0.80932 0.35154 0.07393 0.0
C316 C 0.79069 0.47558 0.01434 0.0
C317 C 0.75172 0.26708 0.01499 0.0
O318 O 0.7615 0.30241 0.02987 0.0
O319 O 0.78833 0.29276 -3e-05 0.0
O320 O 0.86645 0.37137 0.06545 0.0
O321 O 0.76749 0.36518 0.06557 0.0
O322 O 0.55459 0.35024 0.99971 0.0
Cd323 Cd 0.60101 0.45202 0.00024 0.0
Cd324 Cd 0.60804 0.43395 0.04165 0.0
O325 O 0.52657 0.34305 0.03079 0.0
O326 O 0.55086 0.48341 0.98381 0.0
O327 O 0.55007 0.48364 0.01626 0.0
C328 C 0.52636 0.49118 -5e-05 0.0
C329 C 0.6471 0.45748 0.07393 0.0
C330 C 0.52311 0.31485 0.01432 0.0
C331 C 0.7317 0.48425 0.01503 0.0
O332 O 0.69631 0.45857 0.02989 0.0
O333 O 0.70609 0.49533 1e-05 0.0
O334 O 0.62739 0.49482 0.06542 0.0
O335 O 0.63336 0.40193 0.06559 0.0
O336 O 0.46137 0.68361 0.83304 0.0
Cd337 Cd 0.51678 0.78539 0.83359 0.0
Cd338 Cd 0.49154 0.76727 0.87497 0.0
O339 O 0.48215 0.67639 0.86411 0.0
O340 O 0.59832 0.81674 0.81715 0.0
O341 O 0.59935 0.81698 0.8496 0.0
C342 C 0.63059 0.8245 0.83329 0.0
C343 C 0.47596 0.79077 0.90725 0.0
C344 C 0.4574 0.64818 0.84764 0.0
C345 C 0.41831 0.81765 0.84833 0.0
O346 O 0.42795 0.79192 0.86319 0.0
O347 O 0.45508 0.82877 0.83334 0.0
O348 O 0.53303 0.82811 0.89875 0.0
O349 O 0.43414 0.73523 0.89891 0.0
O350 O 0.31528 0.77756 0.83304 0.0
Cd351 Cd 0.2135 0.73116 0.8336 0.0
Cd352 Cd 0.23173 0.72417 0.87497 0.0
O353 O 0.32254 0.80573 0.8641 0.0
O354 O 0.18208 0.78128 0.81716 0.0
O355 O 0.18193 0.78218 0.84961 0.0
C356 C 0.17436 0.80584 0.8333 0.0
C357 C 0.20816 0.68515 0.90725 0.0
C358 C 0.35071 0.80913 0.84763 0.0
C359 C 0.18138 0.60049 0.84838 0.0
O360 O 0.20723 0.63592 0.86322 0.0
O361 O 0.17012 0.62607 0.83339 0.0
O362 O 0.17078 0.70478 0.89872 0.0
O363 O 0.26376 0.69896 0.89894 0.0
O364 O 0.2213 0.53745 0.83305 0.0
Cd365 Cd 0.26769 0.48208 0.83357 0.0
Cd366 Cd 0.27481 0.50718 0.87498 0.0
O367 O 0.19337 0.51667 0.86414 0.0
O368 O 0.21747 0.40052 0.81714 0.0
O369 O 0.21678 0.39952 0.84959 0.0
C370 C 0.19302 0.36826 0.83329 0.0
C371 C 0.31393 0.52279 0.90726 0.0
C372 C 0.18987 0.54139 0.84767 0.0
C373 C 0.39841 0.5805 0.84833 0.0
O374 O 0.36306 0.57076 0.8632 0.0
O375 O 0.37277 0.54385 0.83331 0.0
O376 O 0.29417 0.4657 0.89876 0.0
O377 O 0.30023 0.56461 0.89891 0.0
O378 O 0.35005 0.79493 1e-05 0.0
Cd379 Cd 0.45183 0.85033 0.99946 0.0
Cd380 Cd 0.43366 0.8251 0.95808 0.0
O381 O 0.3428 0.81574 0.96894 0.0
O382 O 0.48321 0.93185 0.0159 0.0
O383 O 0.48342 0.93292 0.98345 0.0
C384 C 0.49096 0.96414 0.99976 0.0
C385 C 0.45716 0.80956 0.92579 0.0
C386 C 0.31461 0.79098 0.98541 0.0
C387 C 0.48405 0.75184 0.9847 0.0
O388 O 0.45828 0.76146 0.96984 0.0
O389 O 0.49521 0.78863 0.99969 0.0
O390 O 0.49451 0.86661 0.9343 0.0
O391 O 0.40162 0.76774 0.93413 0.0
O392 O 0.20392 0.55487 -0.0 0.0
Cd393 Cd 0.14854 0.60125 0.99949 0.0
Cd394 Cd 0.17364 0.60841 0.95807 0.0
O395 O 0.18323 0.52702 0.96892 0.0
O396 O 0.06699 0.55103 0.01592 0.0
O397 O 0.06598 0.55035 0.98347 0.0
C398 C 0.03472 0.52658 0.99977 0.0
C399 C 0.18932 0.64754 0.92579 0.0
C400 C 0.20795 0.5235 0.98538 0.0
C401 C 0.24692 0.73201 0.98473 0.0
O402 O 0.23715 0.69668 0.96985 0.0
O403 O 0.21031 0.70633 0.99975 0.0
O404 O 0.1322 0.62772 0.93427 0.0
O405 O 0.23116 0.6339 0.93415 0.0
O406 O 0.44405 0.64884 1e-05 0.0
Cd407 Cd 0.39763 0.54707 0.99948 0.0
Cd408 Cd 0.3906 0.56514 0.95807 0.0
O409 O 0.47207 0.65604 0.96893 0.0
O410 O 0.44779 0.51568 0.01591 0.0
O411 O 0.44858 0.51545 0.98346 0.0
C412 C 0.47229 0.50791 0.99977 0.0
C413 C 0.35155 0.54161 0.92579 0.0
C414 C 0.47553 0.68424 0.9854 0.0
C415 C 0.26695 0.51484 0.98469 0.0
O416 O 0.30234 0.54052 0.96983 0.0
O417 O 0.29255 0.50375 0.99971 0.0
O418 O 0.37125 0.50427 0.9343 0.0
O419 O 0.36528 0.59716 0.93413 0.0
O420 O 0.20394 0.64879 0.5 0.0
Cd421 Cd 0.14853 0.54701 0.49946 0.0
Cd422 Cd 0.17372 0.56508 0.45807 0.0
O423 O 0.18318 0.656 0.46892 0.0
O424 O 0.06701 0.51568 0.5159 0.0
O425 O 0.06594 0.5154 0.48345 0.0
C426 C 0.03472 0.5079 0.49977 0.0
C427 C 0.18933 0.54161 0.42578 0.0
C428 C 0.20793 0.68422 0.48539 0.0
C429 C 0.24698 0.51472 0.48471 0.0
O430 O 0.23729 0.5404 0.46985 0.0
O431 O 0.21024 0.50365 0.49972 0.0
O432 O 0.13224 0.50428 0.43428 0.0
O433 O 0.23116 0.59712 0.43414 0.0
O434 O 0.35001 0.55482 0.5 0.0
Cd435 Cd 0.4518 0.60123 0.49945 0.0
Cd436 Cd 0.43361 0.60825 0.45807 0.0
O437 O 0.34277 0.52672 0.46894 0.0
O438 O 0.4832 0.55111 0.5159 0.0
O439 O 0.48339 0.55024 0.48345 0.0
C440 C 0.49095 0.52657 0.49976 0.0
C441 C 0.45716 0.6473 0.42579 0.0
C442 C 0.3146 0.52328 0.48541 0.0
C443 C 0.48396 0.73192 0.48468 0.0
O444 O 0.45817 0.69651 0.46983 0.0
O445 O 0.49516 0.70632 0.49968 0.0
O446 O 0.49452 0.62763 0.43431 0.0
O447 O 0.40158 0.63353 0.43412 0.0
O448 O 0.44402 0.79495 0.49999 0.0
Cd449 Cd 0.39762 0.85032 0.49948 0.0
Cd450 Cd 0.39053 0.82524 0.45806 0.0
O451 O 0.47195 0.81572 0.46891 0.0
O452 O 0.44781 0.93187 0.51591 0.0
O453 O 0.44855 0.9329 0.48346 0.0
C454 C 0.47229 0.96414 0.49977 0.0
C455 C 0.35143 0.80967 0.42578 0.0
C456 C 0.47545 0.79101 0.48538 0.0
C457 C 0.26691 0.75189 0.4847 0.0
O458 O 0.30227 0.76164 0.46983 0.0
O459 O 0.29254 0.78854 0.49972 0.0
O460 O 0.37119 0.86675 0.43429 0.0
O461 O 0.36513 0.76784 0.43413 0.0
O462 O 0.31525 0.53753 0.33303 0.0
Cd463 Cd 0.21346 0.48212 0.33359 0.0
Cd464 Cd 0.23166 0.50735 0.37496 0.0
O465 O 0.32249 0.51665 0.36409 0.0
O466 O 0.18208 0.40059 0.31715 0.0
O467 O 0.1819 0.39953 0.3496 0.0
C468 C 0.17434 0.36831 0.33329 0.0
C469 C 0.20814 0.52284 0.40725 0.0
C470 C 0.35069 0.54145 0.34763 0.0
C471 C 0.1813 0.58065 0.34835 0.0
O472 O 0.20711 0.57105 0.36321 0.0
O473 O 0.17009 0.54383 0.33336 0.0
O474 O 0.17076 0.46581 0.39873 0.0
O475 O 0.26371 0.56465 0.39892 0.0
O476 O 0.4614 0.77758 0.33304 0.0
Cd477 Cd 0.51678 0.73119 0.33357 0.0
Cd478 Cd 0.49163 0.72403 0.37497 0.0
O479 O 0.4821 0.80545 0.36412 0.0
O480 O 0.59834 0.78141 0.31714 0.0
O481 O 0.59934 0.78211 0.34959 0.0
C482 C 0.63059 0.80587 0.33328 0.0
C483 C 0.47598 0.68491 0.40725 0.0
C484 C 0.45738 0.80896 0.34766 0.0
C485 C 0.41836 0.60044 0.34832 0.0
O486 O 0.42809 0.63577 0.36319 0.0
O487 O 0.45502 0.62611 0.3333 0.0
O488 O 0.53309 0.7047 0.39877 0.0
O489 O 0.43415 0.69858 0.3989 0.0
O490 O 0.22129 0.68363 0.33304 0.0
Cd491 Cd 0.26771 0.78541 0.33356 0.0
Cd492 Cd 0.27475 0.76736 0.37497 0.0
O493 O 0.19328 0.67646 0.36411 0.0
O494 O 0.21754 0.81678 0.31713 0.0
O495 O 0.21677 0.81703 0.34958 0.0
C496 C 0.19304 0.82456 0.33327 0.0
C497 C 0.31382 0.79087 0.40725 0.0
C498 C 0.18981 0.64825 0.34765 0.0
C499 C 0.39839 0.81764 0.34834 0.0
O500 O 0.36301 0.79199 0.36321 0.0
O501 O 0.37279 0.82872 0.33333 0.0
O502 O 0.29411 0.82822 0.39874 0.0
O503 O 0.30009 0.73532 0.39891 0.0
loop_
_geom_bond_atom_site_label_1
_geom_bond_atom_site_label_2
_geom_bond_distance
_geom_bond_site_symmetry_2
_ccdc_geom_bond_type
O0 Cd1 2.223 . S
O0 C8 1.315 . S
Cd1 O0 2.223 . S
Cd1 O4 2.297 . S
Cd1 O5 2.439 . S
Cd1 O11 2.240 . S
Cd2 O3 2.240 . S
Cd2 O10 2.223 . S
Cd2 O12 2.297 . S
Cd2 O13 2.439 . S
O3 Cd2 2.240 . S
O3 C8 1.279 . S
O4 Cd1 2.297 . S
O4 C6 1.247 . S
O5 Cd1 2.439 . S
O5 C6 1.208 . S
C6 O4 1.247 . S
C6 O5 1.208 . S
C7 O12 1.247 . S
C7 O13 1.208 . S
C8 O0 1.315 . S
C8 O3 1.279 . S
C9 O10 1.315 . S
C9 O11 1.279 . S
O10 Cd2 2.223 . S
O10 C9 1.315 . S
O11 Cd1 2.240 . S
O11 C9 1.279 . S
O12 Cd2 2.297 . S
O12 C7 1.247 . S
O13 Cd2 2.439 . S
O13 C7 1.208 . S
O14 Cd15 2.223 1_545 S
O14 C22 1.315 . S
Cd15 O14 2.223 1_565 S
Cd15 O18 2.297 1_565 S
Cd15 O19 2.439 1_565 S
Cd15 O25 2.240 . S
Cd16 O17 2.240 . S
Cd16 O24 2.223 1_545 S
Cd16 O26 2.297 1_545 S
Cd16 O27 2.439 1_545 S
O17 Cd16 2.240 . S
O17 C22 1.279 . S
O18 Cd15 2.297 1_545 S
O18 C20 1.247 . S
O19 Cd15 2.439 1_545 S
O19 C20 1.208 . S
C20 O18 1.247 . S
C20 O19 1.208 . S
C21 O26 1.247 . S
C21 O27 1.208 . S
C22 O14 1.315 . S
C22 O17 1.279 . S
C23 O24 1.315 . S
C23 O25 1.279 . S
O24 Cd16 2.223 1_565 S
O24 C23 1.315 . S
O25 Cd15 2.240 . S
O25 C23 1.279 . S
O26 Cd16 2.297 1_565 S
O26 C21 1.247 . S
O27 Cd16 2.439 1_565 S
O27 C21 1.208 . S
O28 Cd29 2.223 1_655 S
O28 C36 1.315 . S
Cd29 O28 2.223 1_455 S
Cd29 O32 2.297 1_455 S
Cd29 O33 2.439 1_455 S
Cd29 O39 2.240 . S
Cd30 O31 2.240 . S
Cd30 O38 2.223 1_655 S
Cd30 O40 2.297 1_655 S
Cd30 O41 2.439 1_655 S
O31 Cd30 2.240 . S
O31 C36 1.279 . S
O32 Cd29 2.297 1_655 S
O32 C34 1.247 . S
O33 Cd29 2.439 1_655 S
O33 C34 1.208 . S
C34 O32 1.247 . S
C34 O33 1.208 . S
C35 O40 1.247 . S
C35 O41 1.208 . S
C36 O28 1.315 . S
C36 O31 1.279 . S
C37 O38 1.315 . S
C37 O39 1.279 . S
O38 Cd30 2.223 1_455 S
O38 C37 1.315 . S
O39 Cd29 2.240 . S
O39 C37 1.279 . S
O40 Cd30 2.297 1_455 S
O40 C35 1.247 . S
O41 Cd30 2.439 1_455 S
O41 C35 1.208 . S
O42 Cd43 2.223 . S
O42 C50 1.315 . S
Cd43 O42 2.223 . S
Cd43 O46 2.297 . S
Cd43 O47 2.439 . S
Cd43 O53 2.240 . S
Cd44 O45 2.240 . S
Cd44 O52 2.223 . S
Cd44 O54 2.297 . S
Cd44 O55 2.439 . S
O45 Cd44 2.240 . S
O45 C50 1.279 . S
O46 Cd43 2.297 . S
O46 C48 1.247 . S
O47 Cd43 2.439 . S
O47 C48 1.208 . S
C48 O46 1.247 . S
C48 O47 1.208 . S
C49 O54 1.247 . S
C49 O55 1.208 . S
C50 O42 1.315 . S
C50 O45 1.279 . S
C51 O52 1.315 . S
C51 O53 1.279 . S
O52 Cd44 2.223 . S
O52 C51 1.315 . S
O53 Cd43 2.240 . S
O53 C51 1.279 . S
O54 Cd44 2.297 . S
O54 C49 1.247 . S
O55 Cd44 2.439 . S
O55 C49 1.208 . S
O56 Cd57 2.223 1_565 S
O56 C64 1.315 . S
Cd57 O56 2.223 1_545 S
Cd57 O60 2.297 1_545 S
Cd57 O61 2.439 1_545 S
Cd57 O67 2.240 . S
Cd58 O59 2.240 . S
Cd58 O66 2.223 1_565 S
Cd58 O68 2.297 1_565 S
Cd58 O69 2.439 1_565 S
O59 Cd58 2.240 . S
O59 C64 1.279 . S
O60 Cd57 2.297 1_565 S
O60 C62 1.247 . S
O61 Cd57 2.439 1_565 S
O61 C62 1.208 . S
C62 O60 1.247 . S
C62 O61 1.208 . S
C63 O68 1.247 . S
C63 O69 1.208 . S
C64 O56 1.315 . S
C64 O59 1.279 . S
C65 O66 1.315 . S
C65 O67 1.279 . S
O66 Cd58 2.223 1_545 S
O66 C65 1.315 . S
O67 Cd57 2.240 . S
O67 C65 1.279 . S
O68 Cd58 2.297 1_545 S
O68 C63 1.247 . S
O69 Cd58 2.439 1_545 S
O69 C63 1.208 . S
O70 Cd71 2.223 1_455 S
O70 C78 1.315 . S
Cd71 O70 2.223 1_655 S
Cd71 O74 2.297 1_655 S
Cd71 O75 2.439 1_655 S
Cd71 O81 2.240 . S
Cd72 O73 2.240 . S
Cd72 O80 2.223 1_455 S
Cd72 O82 2.297 1_455 S
Cd72 O83 2.439 1_455 S
O73 Cd72 2.240 . S
O73 C78 1.279 . S
O74 Cd71 2.297 1_455 S
O74 C76 1.247 . S
O75 Cd71 2.439 1_455 S
O75 C76 1.208 . S
C76 O74 1.247 . S
C76 O75 1.208 . S
C77 O82 1.247 . S
C77 O83 1.208 . S
C78 O70 1.315 . S
C78 O73 1.279 . S
C79 O80 1.315 . S
C79 O81 1.279 . S
O80 Cd72 2.223 1_655 S
O80 C79 1.315 . S
O81 Cd71 2.240 . S
O81 C79 1.279 . S
O82 Cd72 2.297 1_655 S
O82 C77 1.247 . S
O83 Cd72 2.439 1_655 S
O83 C77 1.208 . S
O84 Cd85 2.223 . S
O84 C92 1.315 . S
Cd85 O84 2.223 . S
Cd85 O88 2.297 . S
Cd85 O89 2.439 . S
Cd85 O95 2.240 . S
Cd86 O87 2.240 . S
Cd86 O94 2.223 . S
Cd86 O96 2.297 . S
Cd86 O97 2.439 . S
O87 Cd86 2.240 . S
O87 C92 1.279 . S
O88 Cd85 2.297 . S
O88 C90 1.247 . S
O89 Cd85 2.439 . S
O89 C90 1.208 . S
C90 O88 1.247 . S
C90 O89 1.208 . S
C91 O96 1.247 . S
C91 O97 1.208 . S
C92 O84 1.315 . S
C92 O87 1.279 . S
C93 O94 1.315 . S
C93 O95 1.279 . S
O94 Cd86 2.223 . S
O94 C93 1.315 . S
O95 Cd85 2.240 . S
O95 C93 1.279 . S
O96 Cd86 2.297 . S
O96 C91 1.247 . S
O97 Cd86 2.439 . S
O97 C91 1.208 . S
O98 Cd99 2.223 1_565 S
O98 C106 1.315 . S
Cd99 O98 2.223 1_545 S
Cd99 O102 2.297 1_545 S
Cd99 O103 2.439 1_545 S
Cd99 O109 2.240 . S
Cd100 O101 2.240 . S
Cd100 O108 2.223 1_565 S
Cd100 O110 2.297 1_565 S
Cd100 O111 2.439 1_565 S
O101 Cd100 2.240 . S
O101 C106 1.279 . S
O102 Cd99 2.297 1_565 S
O102 C104 1.247 . S
O103 Cd99 2.439 1_565 S
O103 C104 1.208 . S
C104 O102 1.247 . S
C104 O103 1.208 . S
C105 O110 1.247 . S
C105 O111 1.208 . S
C106 O98 1.315 . S
C106 O101 1.279 . S
C107 O108 1.315 . S
C107 O109 1.279 . S
O108 Cd100 2.223 1_545 S
O108 C107 1.315 . S
O109 Cd99 2.240 . S
O109 C107 1.279 . S
O110 Cd100 2.297 1_545 S
O110 C105 1.247 . S
O111 Cd100 2.439 1_545 S
O111 C105 1.208 . S
O112 Cd113 2.223 1_455 S
O112 C120 1.315 . S
Cd113 O112 2.223 1_655 S
Cd113 O116 2.297 1_655 S
Cd113 O117 2.439 1_655 S
Cd113 O123 2.240 . S
Cd114 O115 2.240 . S
Cd114 O122 2.223 1_455 S
Cd114 O124 2.297 1_455 S
Cd114 O125 2.439 1_455 S
O115 Cd114 2.240 . S
O115 C120 1.279 . S
O116 Cd113 2.297 1_455 S
O116 C118 1.247 . S
O117 Cd113 2.439 1_455 S
O117 C118 1.208 . S
C118 O116 1.247 . S
C118 O117 1.208 . S
C119 O124 1.247 . S
C119 O125 1.208 . S
C120 O112 1.315 . S
C120 O115 1.279 . S
C121 O122 1.315 . S
C121 O123 1.279 . S
O122 Cd114 2.223 1_655 S
O122 C121 1.315 . S
O123 Cd113 2.240 . S
O123 C121 1.279 . S
O124 Cd114 2.297 1_655 S
O124 C119 1.247 . S
O125 Cd114 2.439 1_655 S
O125 C119 1.208 . S
O126 Cd127 2.223 . S
O126 C134 1.315 . S
Cd127 O126 2.223 . S
Cd127 O130 2.297 . S
Cd127 O131 2.439 . S
Cd127 O137 2.240 . S
Cd128 O129 2.240 . S
Cd128 O136 2.223 . S
Cd128 O138 2.297 . S
Cd128 O139 2.439 . S
O129 Cd128 2.240 . S
O129 C134 1.279 . S
O130 Cd127 2.297 . S
O130 C132 1.247 . S
O131 Cd127 2.439 . S
O131 C132 1.208 . S
C132 O130 1.247 . S
C132 O131 1.208 . S
C133 O138 1.247 . S
C133 O139 1.208 . S
C134 O126 1.315 . S
C134 O129 1.279 . S
C135 O136 1.315 . S
C135 O137 1.279 . S
O136 Cd128 2.223 . S
O136 C135 1.315 . S
O137 Cd127 2.240 . S
O137 C135 1.279 . S
O138 Cd128 2.297 . S
O138 C133 1.247 . S
O139 Cd128 2.439 . S
O139 C133 1.208 . S
O140 Cd141 2.223 1_545 S
O140 C148 1.315 . S
Cd141 O140 2.223 1_565 S
Cd141 O144 2.297 1_565 S
Cd141 O145 2.439 1_565 S
Cd141 O151 2.240 . S
Cd142 O143 2.240 . S
Cd142 O150 2.223 1_545 S
Cd142 O152 2.297 1_545 S
Cd142 O153 2.439 1_545 S
O143 Cd142 2.240 . S
O143 C148 1.279 . S
O144 Cd141 2.297 1_545 S
O144 C146 1.247 . S
O145 Cd141 2.439 1_545 S
O145 C146 1.208 . S
C146 O144 1.247 . S
C146 O145 1.208 . S
C147 O152 1.247 . S
C147 O153 1.208 . S
C148 O140 1.315 . S
C148 O143 1.279 . S
C149 O150 1.315 . S
C149 O151 1.279 . S
O150 Cd142 2.223 1_565 S
O150 C149 1.315 . S
O151 Cd141 2.240 . S
O151 C149 1.279 . S
O152 Cd142 2.297 1_565 S
O152 C147 1.247 . S
O153 Cd142 2.439 1_565 S
O153 C147 1.208 . S
O154 Cd155 2.223 1_655 S
O154 C162 1.315 . S
Cd155 O154 2.223 1_455 S
Cd155 O158 2.297 1_455 S
Cd155 O159 2.439 1_455 S
Cd155 O165 2.240 . S
Cd156 O157 2.240 . S
Cd156 O164 2.223 1_655 S
Cd156 O166 2.297 1_655 S
Cd156 O167 2.439 1_655 S
O157 Cd156 2.240 . S
O157 C162 1.279 . S
O158 Cd155 2.297 1_655 S
O158 C160 1.247 . S
O159 Cd155 2.439 1_655 S
O159 C160 1.208 . S
C160 O158 1.247 . S
C160 O159 1.208 . S
C161 O166 1.247 . S
C161 O167 1.208 . S
C162 O154 1.315 . S
C162 O157 1.279 . S
C163 O164 1.315 . S
C163 O165 1.279 . S
O164 Cd156 2.223 1_455 S
O164 C163 1.315 . S
O165 Cd155 2.240 . S
O165 C163 1.279 . S
O166 Cd156 2.297 1_455 S
O166 C161 1.247 . S
O167 Cd156 2.439 1_455 S
O167 C161 1.208 . S
O168 Cd169 2.223 . S
O168 C176 1.315 . S
Cd169 O168 2.223 . S
Cd169 O172 2.297 . S
Cd169 O173 2.439 . S
Cd169 O179 2.240 . S
Cd170 O171 2.240 . S
Cd170 O178 2.223 . S
Cd170 O180 2.297 . S
Cd170 O181 2.439 . S
O171 Cd170 2.240 . S
O171 C176 1.279 . S
O172 Cd169 2.297 . S
O172 C174 1.247 . S
O173 Cd169 2.439 . S
O173 C174 1.208 . S
C174 O172 1.247 . S
C174 O173 1.208 . S
C175 O180 1.247 . S
C175 O181 1.208 . S
C176 O168 1.315 . S
C176 O171 1.279 . S
C177 O178 1.315 . S
C177 O179 1.279 . S
O178 Cd170 2.223 . S
O178 C177 1.315 . S
O179 Cd169 2.240 . S
O179 C177 1.279 . S
O180 Cd170 2.297 . S
O180 C175 1.247 . S
O181 Cd170 2.439 . S
O181 C175 1.208 . S
O182 Cd183 2.223 . S
O182 C190 1.315 . S
Cd183 O182 2.223 . S
Cd183 O186 2.297 . S
Cd183 O187 2.439 . S
Cd183 O193 2.240 . S
Cd184 O185 2.240 . S
Cd184 O192 2.223 . S
Cd184 O194 2.297 . S
Cd184 O195 2.439 . S
O185 Cd184 2.240 . S
O185 C190 1.279 . S
O186 Cd183 2.297 . S
O186 C188 1.247 . S
O187 Cd183 2.439 . S
O187 C188 1.208 . S
C188 O186 1.247 . S
C188 O187 1.208 . S
C189 O194 1.247 . S
C189 O195 1.208 . S
C190 O182 1.315 . S
C190 O185 1.279 . S
C191 O192 1.315 . S
C191 O193 1.279 . S
O192 Cd184 2.223 . S
O192 C191 1.315 . S
O193 Cd183 2.240 . S
O193 C191 1.279 . S
O194 Cd184 2.297 . S
O194 C189 1.247 . S
O195 Cd184 2.439 . S
O195 C189 1.208 . S
O196 Cd197 2.223 . S
O196 C204 1.315 . S
Cd197 O196 2.223 . S
Cd197 O200 2.297 . S
Cd197 O201 2.439 . S
Cd197 O207 2.240 . S
Cd198 O199 2.240 . S
Cd198 O206 2.223 . S
Cd198 O208 2.297 . S
Cd198 O209 2.439 . S
O199 Cd198 2.240 . S
O199 C204 1.279 . S
O200 Cd197 2.297 . S
O200 C202 1.247 . S
O201 Cd197 2.439 . S
O201 C202 1.208 . S
C202 O200 1.247 . S
C202 O201 1.208 . S
C203 O208 1.247 . S
C203 O209 1.208 . S
C204 O196 1.315 . S
C204 O199 1.279 . S
C205 O206 1.315 . S
C205 O207 1.279 . S
O206 Cd198 2.223 . S
O206 C205 1.315 . S
O207 Cd197 2.240 . S
O207 C205 1.279 . S
O208 Cd198 2.297 . S
O208 C203 1.247 . S
O209 Cd198 2.439 . S
O209 C203 1.208 . S
O210 Cd211 2.223 . S
O210 C218 1.315 . S
Cd211 O210 2.223 . S
Cd211 O214 2.297 . S
Cd211 O215 2.439 . S
Cd211 O221 2.240 . S
Cd212 O213 2.240 . S
Cd212 O220 2.223 . S
Cd212 O222 2.297 . S
Cd212 O223 2.439 . S
O213 Cd212 2.240 . S
O213 C218 1.279 . S
O214 Cd211 2.297 . S
O214 C216 1.247 . S
O215 Cd211 2.439 . S
O215 C216 1.208 . S
C216 O214 1.247 . S
C216 O215 1.208 . S
C217 O222 1.247 . S
C217 O223 1.208 . S
C218 O210 1.315 . S
C218 O213 1.279 . S
C219 O220 1.315 . S
C219 O221 1.279 . S
O220 Cd212 2.223 . S
O220 C219 1.315 . S
O221 Cd211 2.240 . S
O221 C219 1.279 . S
O222 Cd212 2.297 . S
O222 C217 1.247 . S
O223 Cd212 2.439 . S
O223 C217 1.208 . S
O224 Cd225 2.223 . S
O224 C232 1.315 . S
Cd225 O224 2.223 . S
Cd225 O228 2.297 . S
Cd225 O229 2.439 . S
Cd225 O235 2.240 . S
Cd226 O227 2.240 . S
Cd226 O234 2.223 . S
Cd226 O236 2.297 . S
Cd226 O237 2.439 . S
O227 Cd226 2.240 . S
O227 C232 1.279 . S
O228 Cd225 2.297 . S
O228 C230 1.247 . S
O229 Cd225 2.439 . S
O229 C230 1.208 . S
C230 O228 1.247 . S
C230 O229 1.208 . S
C231 O236 1.247 . S
C231 O237 1.208 . S
C232 O224 1.315 . S
C232 O227 1.279 . S
C233 O234 1.315 . S
C233 O235 1.279 . S
O234 Cd226 2.223 . S
O234 C233 1.315 . S
O235 Cd225 2.240 . S
O235 C233 1.279 . S
O236 Cd226 2.297 . S
O236 C231 1.247 . S
O237 Cd226 2.439 . S
O237 C231 1.208 . S
O238 Cd239 2.223 . S
O238 C246 1.315 . S
Cd239 O238 2.223 . S
Cd239 O242 2.297 . S
Cd239 O243 2.439 . S
Cd239 O249 2.240 . S
Cd240 O241 2.240 . S
Cd240 O248 2.223 . S
Cd240 O250 2.297 . S
Cd240 O251 2.439 . S
O241 Cd240 2.240 . S
O241 C246 1.279 . S
O242 Cd239 2.297 . S
O242 C244 1.247 . S
O243 Cd239 2.439 . S
O243 C244 1.208 . S
C244 O242 1.247 . S
C244 O243 1.208 . S
C245 O250 1.247 . S
C245 O251 1.208 . S
C246 O238 1.315 . S
C246 O241 1.279 . S
C247 O248 1.315 . S
C247 O249 1.279 . S
O248 Cd240 2.223 . S
O248 C247 1.315 . S
O249 Cd239 2.240 . S
O249 C247 1.279 . S
O250 Cd240 2.297 . S
O250 C245 1.247 . S
O251 Cd240 2.439 . S
O251 C245 1.208 . S
O252 Cd253 2.223 . S
O252 C260 1.315 . S
Cd253 O252 2.223 . S
Cd253 O256 2.297 . S
Cd253 O257 2.439 . S
Cd253 O263 2.240 . S
Cd254 O255 2.240 . S
Cd254 O262 2.223 . S
Cd254 O264 2.297 . S
Cd254 O265 2.439 . S
O255 Cd254 2.240 . S
O255 C260 1.279 . S
O256 Cd253 2.297 . S
O256 C258 1.247 . S
O257 Cd253 2.439 . S
O257 C258 1.208 . S
C258 O256 1.247 . S
C258 O257 1.208 . S
C259 O264 1.247 . S
C259 O265 1.208 . S
C260 O252 1.315 . S
C260 O255 1.279 . S
C261 O262 1.315 . S
C261 O263 1.279 . S
O262 Cd254 2.223 . S
O262 C261 1.315 . S
O263 Cd253 2.240 . S
O263 C261 1.279 . S
O264 Cd254 2.297 . S
O264 C259 1.247 . S
O265 Cd254 2.439 . S
O265 C259 1.208 . S
O266 Cd267 2.223 . S
O266 C274 1.315 . S
Cd267 O266 2.223 . S
Cd267 O270 2.297 . S
Cd267 O271 2.439 . S
Cd267 O277 2.240 . S
Cd268 O269 2.240 . S
Cd268 O276 2.223 . S
Cd268 O278 2.297 . S
Cd268 O279 2.439 . S
O269 Cd268 2.240 . S
O269 C274 1.279 . S
O270 Cd267 2.297 . S
O270 C272 1.247 . S
O271 Cd267 2.439 . S
O271 C272 1.208 . S
C272 O270 1.247 . S
C272 O271 1.208 . S
C273 O278 1.247 . S
C273 O279 1.208 . S
C274 O266 1.315 . S
C274 O269 1.279 . S
C275 O276 1.315 . S
C275 O277 1.279 . S
O276 Cd268 2.223 . S
O276 C275 1.315 . S
O277 Cd267 2.240 . S
O277 C275 1.279 . S
O278 Cd268 2.297 . S
O278 C273 1.247 . S
O279 Cd268 2.439 . S
O279 C273 1.208 . S
O280 Cd281 2.223 . S
O280 C288 1.315 . S
Cd281 O280 2.223 . S
Cd281 O284 2.297 . S
Cd281 O285 2.439 . S
Cd281 O291 2.240 . S
Cd282 O283 2.240 . S
Cd282 O290 2.223 . S
Cd282 O292 2.297 . S
Cd282 O293 2.439 . S
O283 Cd282 2.240 . S
O283 C288 1.279 . S
O284 Cd281 2.297 . S
O284 C286 1.247 . S
O285 Cd281 2.439 . S
O285 C286 1.208 . S
C286 O284 1.247 . S
C286 O285 1.208 . S
C287 O292 1.247 . S
C287 O293 1.208 . S
C288 O280 1.315 . S
C288 O283 1.279 . S
C289 O290 1.315 . S
C289 O291 1.279 . S
O290 Cd282 2.223 . S
O290 C289 1.315 . S
O291 Cd281 2.240 . S
O291 C289 1.279 . S
O292 Cd282 2.297 . S
O292 C287 1.247 . S
O293 Cd282 2.439 . S
O293 C287 1.208 . S
O294 Cd295 2.223 . S
O294 C302 1.315 1_556 S
Cd295 O294 2.223 . S
Cd295 O298 2.297 . S
Cd295 O299 2.439 1_556 S
Cd295 O305 2.240 1_556 S
Cd296 O297 2.240 . S
Cd296 O304 2.223 . S
Cd296 O306 2.297 . S
Cd296 O307 2.439 . S
O297 Cd296 2.240 . S
O297 C302 1.279 . S
O298 Cd295 2.297 . S
O298 C300 1.247 . S
O299 Cd295 2.439 1_554 S
O299 C300 1.208 1_554 S
C300 O298 1.247 . S
C300 O299 1.208 1_556 S
C301 O306 1.247 . S
C301 O307 1.208 . S
C302 O294 1.315 1_554 S
C302 O297 1.279 . S
C303 O304 1.315 . S
C303 O305 1.279 . S
O304 Cd296 2.223 . S
O304 C303 1.315 . S
O305 Cd295 2.240 1_554 S
O305 C303 1.279 . S
O306 Cd296 2.297 . S
O306 C301 1.247 . S
O307 Cd296 2.439 . S
O307 C301 1.208 . S
O308 Cd309 2.223 . S
O308 C316 1.315 1_556 S
Cd309 O308 2.223 . S
Cd309 O312 2.297 . S
Cd309 O313 2.439 1_556 S
Cd309 O319 2.240 1_556 S
Cd310 O311 2.240 . S
Cd310 O318 2.223 . S
Cd310 O320 2.297 . S
Cd310 O321 2.439 . S
O311 Cd310 2.240 . S
O311 C316 1.279 . S
O312 Cd309 2.297 . S
O312 C314 1.247 . S
O313 Cd309 2.439 1_554 S
O313 C314 1.208 1_554 S
C314 O312 1.247 . S
C314 O313 1.208 1_556 S
C315 O320 1.247 . S
C315 O321 1.208 . S
C316 O308 1.315 1_554 S
C316 O311 1.279 . S
C317 O318 1.315 . S
C317 O319 1.279 . S
O318 Cd310 2.223 . S
O318 C317 1.315 . S
O319 Cd309 2.240 1_554 S
O319 C317 1.279 . S
O320 Cd310 2.297 . S
O320 C315 1.247 . S
O321 Cd310 2.439 . S
O321 C315 1.208 . S
O322 Cd323 2.223 . S
O322 C330 1.315 1_556 S
Cd323 O322 2.223 . S
Cd323 O326 2.297 . S
Cd323 O327 2.439 1_556 S
Cd323 O333 2.240 1_556 S
Cd324 O325 2.240 . S
Cd324 O332 2.223 . S
Cd324 O334 2.297 . S
Cd324 O335 2.439 . S
O325 Cd324 2.240 . S
O325 C330 1.279 . S
O326 Cd323 2.297 . S
O326 C328 1.247 . S
O327 Cd323 2.439 1_554 S
O327 C328 1.208 1_554 S
C328 O326 1.247 . S
C328 O327 1.208 1_556 S
C329 O334 1.247 . S
C329 O335 1.208 . S
C330 O322 1.315 1_554 S
C330 O325 1.279 . S
C331 O332 1.315 . S
C331 O333 1.279 . S
O332 Cd324 2.223 . S
O332 C331 1.315 . S
O333 Cd323 2.240 1_554 S
O333 C331 1.279 . S
O334 Cd324 2.297 . S
O334 C329 1.247 . S
O335 Cd324 2.439 . S
O335 C329 1.208 . S
O336 Cd337 2.223 . S
O336 C344 1.315 . S
Cd337 O336 2.223 . S
Cd337 O340 2.297 . S
Cd337 O341 2.439 . S
Cd337 O347 2.240 . S
Cd338 O339 2.240 . S
Cd338 O346 2.223 . S
Cd338 O348 2.297 . S
Cd338 O349 2.439 . S
O339 Cd338 2.240 . S
O339 C344 1.279 . S
O340 Cd337 2.297 . S
O340 C342 1.247 . S
O341 Cd337 2.439 . S
O341 C342 1.208 . S
C342 O340 1.247 . S
C342 O341 1.208 . S
C343 O348 1.247 . S
C343 O349 1.208 . S
C344 O336 1.315 . S
C344 O339 1.279 . S
C345 O346 1.315 . S
C345 O347 1.279 . S
O346 Cd338 2.223 . S
O346 C345 1.315 . S
O347 Cd337 2.240 . S
O347 C345 1.279 . S
O348 Cd338 2.297 . S
O348 C343 1.247 . S
O349 Cd338 2.439 . S
O349 C343 1.208 . S
O350 Cd351 2.223 . S
O350 C358 1.315 . S
Cd351 O350 2.223 . S
Cd351 O354 2.297 . S
Cd351 O355 2.439 . S
Cd351 O361 2.240 . S
Cd352 O353 2.240 . S
Cd352 O360 2.223 . S
Cd352 O362 2.297 . S
Cd352 O363 2.439 . S
O353 Cd352 2.240 . S
O353 C358 1.279 . S
O354 Cd351 2.297 . S
O354 C356 1.247 . S
O355 Cd351 2.439 . S
O355 C356 1.208 . S
C356 O354 1.247 . S
C356 O355 1.208 . S
C357 O362 1.247 . S
C357 O363 1.208 . S
C358 O350 1.315 . S
C358 O353 1.279 . S
C359 O360 1.315 . S
C359 O361 1.279 . S
O360 Cd352 2.223 . S
O360 C359 1.315 . S
O361 Cd351 2.240 . S
O361 C359 1.279 . S
O362 Cd352 2.297 . S
O362 C357 1.247 . S
O363 Cd352 2.439 . S
O363 C357 1.208 . S
O364 Cd365 2.223 . S
O364 C372 1.315 . S
Cd365 O364 2.223 . S
Cd365 O368 2.297 . S
Cd365 O369 2.439 . S
Cd365 O375 2.240 . S
Cd366 O367 2.240 . S
Cd366 O374 2.223 . S
Cd366 O376 2.297 . S
Cd366 O377 2.439 . S
O367 Cd366 2.240 . S
O367 C372 1.279 . S
O368 Cd365 2.297 . S
O368 C370 1.247 . S
O369 Cd365 2.439 . S
O369 C370 1.208 . S
C370 O368 1.247 . S
C370 O369 1.208 . S
C371 O376 1.247 . S
C371 O377 1.208 . S
C372 O364 1.315 . S
C372 O367 1.279 . S
C373 O374 1.315 . S
C373 O375 1.279 . S
O374 Cd366 2.223 . S
O374 C373 1.315 . S
O375 Cd365 2.240 . S
O375 C373 1.279 . S
O376 Cd366 2.297 . S
O376 C371 1.247 . S
O377 Cd366 2.439 . S
O377 C371 1.208 . S
O378 Cd379 2.223 . S
O378 C386 1.315 1_554 S
Cd379 O378 2.223 . S
Cd379 O382 2.297 . S
Cd379 O383 2.439 1_554 S
Cd379 O389 2.240 1_554 S
Cd380 O381 2.240 . S
Cd380 O388 2.223 . S
Cd380 O390 2.297 . S
Cd380 O391 2.439 . S
O381 Cd380 2.240 . S
O381 C386 1.279 . S
O382 Cd379 2.297 . S
O382 C384 1.247 . S
O383 Cd379 2.439 1_556 S
O383 C384 1.208 1_556 S
C384 O382 1.247 . S
C384 O383 1.208 1_554 S
C385 O390 1.247 . S
C385 O391 1.208 . S
C386 O378 1.315 1_556 S
C386 O381 1.279 . S
C387 O388 1.315 . S
C387 O389 1.279 . S
O388 Cd380 2.223 . S
O388 C387 1.315 . S
O389 Cd379 2.240 1_556 S
O389 C387 1.279 . S
O390 Cd380 2.297 . S
O390 C385 1.247 . S
O391 Cd380 2.439 . S
O391 C385 1.208 . S
O392 Cd393 2.223 . S
O392 C400 1.315 1_554 S
Cd393 O392 2.223 . S
Cd393 O396 2.297 . S
Cd393 O397 2.439 1_554 S
Cd393 O403 2.240 1_554 S
Cd394 O395 2.240 . S
Cd394 O402 2.223 . S
Cd394 O404 2.297 . S
Cd394 O405 2.439 . S
O395 Cd394 2.240 . S
O395 C400 1.279 . S
O396 Cd393 2.297 . S
O396 C398 1.247 . S
O397 Cd393 2.439 1_556 S
O397 C398 1.208 1_556 S
C398 O396 1.247 . S
C398 O397 1.208 1_554 S
C399 O404 1.247 . S
C399 O405 1.208 . S
C400 O392 1.315 1_556 S
C400 O395 1.279 . S
C401 O402 1.315 . S
C401 O403 1.279 . S
O402 Cd394 2.223 . S
O402 C401 1.315 . S
O403 Cd393 2.240 1_556 S
O403 C401 1.279 . S
O404 Cd394 2.297 . S
O404 C399 1.247 . S
O405 Cd394 2.439 . S
O405 C399 1.208 . S
O406 Cd407 2.223 . S
O406 C414 1.315 1_554 S
Cd407 O406 2.223 . S
Cd407 O410 2.297 . S
Cd407 O411 2.439 1_554 S
Cd407 O417 2.240 1_554 S
Cd408 O409 2.240 . S
Cd408 O416 2.223 . S
Cd408 O418 2.297 . S
Cd408 O419 2.439 . S
O409 Cd408 2.240 . S
O409 C414 1.279 . S
O410 Cd407 2.297 . S
O410 C412 1.247 . S
O411 Cd407 2.439 1_556 S
O411 C412 1.208 1_556 S
C412 O410 1.247 . S
C412 O411 1.208 1_554 S
C413 O418 1.247 . S
C413 O419 1.208 . S
C414 O406 1.315 1_556 S
C414 O409 1.279 . S
C415 O416 1.315 . S
C415 O417 1.279 . S
O416 Cd408 2.223 . S
O416 C415 1.315 . S
O417 Cd407 2.240 1_556 S
O417 C415 1.279 . S
O418 Cd408 2.297 . S
O418 C413 1.247 . S
O419 Cd408 2.439 . S
O419 C413 1.208 . S
O420 Cd421 2.223 . S
O420 C428 1.315 . S
Cd421 O420 2.223 . S
Cd421 O424 2.297 . S
Cd421 O425 2.439 . S
Cd421 O431 2.240 . S
Cd422 O423 2.240 . S
Cd422 O430 2.223 . S
Cd422 O432 2.297 . S
Cd422 O433 2.439 . S
O423 Cd422 2.240 . S
O423 C428 1.279 . S
O424 Cd421 2.297 . S
O424 C426 1.247 . S
O425 Cd421 2.439 . S
O425 C426 1.208 . S
C426 O424 1.247 . S
C426 O425 1.208 . S
C427 O432 1.247 . S
C427 O433 1.208 . S
C428 O420 1.315 . S
C428 O423 1.279 . S
C429 O430 1.315 . S
C429 O431 1.279 . S
O430 Cd422 2.223 . S
O430 C429 1.315 . S
O431 Cd421 2.240 . S
O431 C429 1.279 . S
O432 Cd422 2.297 . S
O432 C427 1.247 . S
O433 Cd422 2.439 . S
O433 C427 1.208 . S
O434 Cd435 2.223 . S
O434 C442 1.315 . S
Cd435 O434 2.223 . S
Cd435 O438 2.297 . S
Cd435 O439 2.439 . S
Cd435 O445 2.240 . S
Cd436 O437 2.240 . S
Cd436 O444 2.223 . S
Cd436 O446 2.297 . S
Cd436 O447 2.439 . S
O437 Cd436 2.240 . S
O437 C442 1.279 . S
O438 Cd435 2.297 . S
O438 C440 1.247 . S
O439 Cd435 2.439 . S
O439 C440 1.208 . S
C440 O438 1.247 . S
C440 O439 1.208 . S
C441 O446 1.247 . S
C441 O447 1.208 . S
C442 O434 1.315 . S
C442 O437 1.279 . S
C443 O444 1.315 . S
C443 O445 1.279 . S
O444 Cd436 2.223 . S
O444 C443 1.315 . S
O445 Cd435 2.240 . S
O445 C443 1.279 . S
O446 Cd436 2.297 . S
O446 C441 1.247 . S
O447 Cd436 2.439 . S
O447 C441 1.208 . S
O448 Cd449 2.223 . S
O448 C456 1.315 . S
Cd449 O448 2.223 . S
Cd449 O452 2.297 . S
Cd449 O453 2.439 . S
Cd449 O459 2.240 . S
Cd450 O451 2.240 . S
Cd450 O458 2.223 . S
Cd450 O460 2.297 . S
Cd450 O461 2.439 . S
O451 Cd450 2.240 . S
O451 C456 1.279 . S
O452 Cd449 2.297 . S
O452 C454 1.247 . S
O453 Cd449 2.439 . S
O453 C454 1.208 . S
C454 O452 1.247 . S
C454 O453 1.208 . S
C455 O460 1.247 . S
C455 O461 1.208 . S
C456 O448 1.315 . S
C456 O451 1.279 . S
C457 O458 1.315 . S
C457 O459 1.279 . S
O458 Cd450 2.223 . S
O458 C457 1.315 . S
O459 Cd449 2.240 . S
O459 C457 1.279 . S
O460 Cd450 2.297 . S
O460 C455 1.247 . S
O461 Cd450 2.439 . S
O461 C455 1.208 . S
O462 Cd463 2.223 . S
O462 C470 1.315 . S
Cd463 O462 2.223 . S
Cd463 O466 2.297 . S
Cd463 O467 2.439 . S
Cd463 O473 2.240 . S
Cd464 O465 2.240 . S
Cd464 O472 2.223 . S
Cd464 O474 2.297 . S
Cd464 O475 2.439 . S
O465 Cd464 2.240 . S
O465 C470 1.279 . S
O466 Cd463 2.297 . S
O466 C468 1.247 . S
O467 Cd463 2.439 . S
O467 C468 1.208 . S
C468 O466 1.247 . S
C468 O467 1.208 . S
C469 O474 1.247 . S
C469 O475 1.208 . S
C470 O462 1.315 . S
C470 O465 1.279 . S
C471 O472 1.315 . S
C471 O473 1.279 . S
O472 Cd464 2.223 . S
O472 C471 1.315 . S
O473 Cd463 2.240 . S
O473 C471 1.279 . S
O474 Cd464 2.297 . S
O474 C469 1.247 . S
O475 Cd464 2.439 . S
O475 C469 1.208 . S
O476 Cd477 2.223 . S
O476 C484 1.315 . S
Cd477 O476 2.223 . S
Cd477 O480 2.297 . S
Cd477 O481 2.439 . S
Cd477 O487 2.240 . S
Cd478 O479 2.240 . S
Cd478 O486 2.223 . S
Cd478 O488 2.297 . S
Cd478 O489 2.439 . S
O479 Cd478 2.240 . S
O479 C484 1.279 . S
O480 Cd477 2.297 . S
O480 C482 1.247 . S
O481 Cd477 2.439 . S
O481 C482 1.208 . S
C482 O480 1.247 . S
C482 O481 1.208 . S
C483 O488 1.247 . S
C483 O489 1.208 . S
C484 O476 1.315 . S
C484 O479 1.279 . S
C485 O486 1.315 . S
C485 O487 1.279 . S
O486 Cd478 2.223 . S
O486 C485 1.315 . S
O487 Cd477 2.240 . S
O487 C485 1.279 . S
O488 Cd478 2.297 . S
O488 C483 1.247 . S
O489 Cd478 2.439 . S
O489 C483 1.208 . S
O490 Cd491 2.223 . S
O490 C498 1.315 . S
Cd491 O490 2.223 . S
Cd491 O494 2.297 . S
Cd491 O495 2.439 . S
Cd491 O501 2.240 . S
Cd492 O493 2.240 . S
Cd492 O500 2.223 . S
Cd492 O502 2.297 . S
Cd492 O503 2.439 . S
O493 Cd492 2.240 . S
O493 C498 1.279 . S
O494 Cd491 2.297 . S
O494 C496 1.247 . S
O495 Cd491 2.439 . S
O495 C496 1.208 . S
C496 O494 1.247 . S
C496 O495 1.208 . S
C497 O502 1.247 . S
C497 O503 1.208 . S
C498 O490 1.315 . S
C498 O493 1.279 . S
C499 O500 1.315 . S
C499 O501 1.279 . S
O500 Cd492 2.223 . S
O500 C499 1.315 . S
O501 Cd491 2.240 . S
O501 C499 1.279 . S
O502 Cd492 2.297 . S
O502 C497 1.247 . S
O503 Cd492 2.439 . S
O503 C497 1.208 . S
C9 C22 2.094 1_455 S
C23 C36 2.094 . S
C8 C37 2.094 1_545 S
C51 C78 2.094 1_545 S
C65 C50 2.094 1_655 S
C64 C79 2.094 . S
C93 C106 2.094 1_655 S
C120 C107 2.094 . S
C92 C121 2.094 1_565 S
C162 C135 2.094 1_545 S
C149 C134 2.094 1_455 S
C163 C148 2.094 . S
C190 C177 2.094 . S
C191 C204 2.094 . S
C205 C176 2.094 . S
C219 C246 2.094 . S
C233 C218 2.094 . S
C247 C232 2.094 . S
C274 C261 2.094 . S
C275 C288 2.094 . S
C260 C289 2.094 . S
C330 C303 2.094 . S
C317 C302 2.094 . S
C316 C331 2.094 . S
C358 C345 2.094 . S
C359 C372 2.094 . S
C373 C344 2.094 . S
C414 C387 2.094 . S
C401 C386 2.094 . S
C400 C415 2.094 . S
C429 C442 2.094 . S
C443 C456 2.094 . S
C457 C428 2.094 . S
C498 C471 2.094 . S
C470 C485 2.094 . S
C499 C484 2.094 . S
C49 C7 2.227 . S
C21 C63 2.227 1_565 S
C77 C35 2.227 1_655 S
C133 C91 2.227 . S
C105 C147 2.227 1_545 S
C161 C119 2.227 1_455 S
C175 C217 2.227 . S
C189 C231 2.227 . S
C203 C245 2.227 . S
C301 C259 2.227 . S
C315 C273 2.227 . S
C287 C329 2.227 . S
C385 C343 2.227 . S
C399 C357 2.227 . S
C371 C413 2.227 . S
C427 C469 2.227 . S
C483 C441 2.227 . S
C455 C497 2.227 . S
C6 C258 2.611 . S
C20 C272 2.611 . S
C34 C286 2.610 . S
C468 C48 2.611 . S
C482 C62 2.610 . S
C76 C496 2.611 . S
C90 C342 2.611 . S
C356 C104 2.611 . S
C370 C118 2.610 . S
C216 C132 2.611 . S
C230 C146 2.610 . S
C244 C160 2.611 . S
C426 C174 2.611 1_455 S
C188 C440 2.610 . S
C202 C454 2.611 1_545 S
C300 C384 2.611 1_546 S
C314 C398 2.610 1_656 S
C412 C328 2.611 1_554 S
