# Generated by pormake.
# Topology wjl, (5)-cn, num edge types: 1
# Building blocks:
#     Node 0, Type 0, BuildingBlock: BEQFEK_clean_sbu_0, # of connection points: 5
#     Node 1, Type 0, BuildingBlock: BEQFEK_clean_sbu_0, # of connection points: 5
#     Node 2, Type 0, BuildingBlock: BEQFEK_clean_sbu_0, # of connection points: 5
#     Node 3, Type 0, BuildingBlock: BEQFEK_clean_sbu_0, # of connection points: 5
#     Node 4, Type 0, BuildingBlock: BEQFEK_clean_sbu_0, # of connection points: 5
#     Node 5, Type 0, BuildingBlock: BEQFEK_clean_sbu_0, # of connection points: 5
#     Node 6, Type 0, BuildingBlock: BEQFEK_clean_sbu_0, # of connection points: 5
#     Node 7, Type 0, BuildingBlock: BEQFEK_clean_sbu_0, # of connection points: 5
#     Node 8, Type 0, BuildingBlock: BEQFEK_clean_sbu_0, # of connection points: 5
#     Node 9, Type 0, BuildingBlock: BEQFEK_clean_sbu_0, # of connection points: 5
#     Node 10, Type 0, BuildingBlock: BEQFEK_clean_sbu_0, # of connection points: 5
#     Node 11, Type 0, BuildingBlock: BEQFEK_clean_sbu_0, # of connection points: 5
#     Edge 12, Type (0, 0), BuildingBlock: OJICUG_clean_linker_0, # of connection points: 2
#     Edge 13, Type (0, 0), BuildingBlock: OJICUG_clean_linker_0, # of connection points: 2
#     Edge 14, Type (0, 0), BuildingBlock: OJICUG_clean_linker_0, # of connection points: 2
#     Edge 15, Type (0, 0), BuildingBlock: OJICUG_clean_linker_0, # of connection points: 2
#     Edge 16, Type (0, 0), BuildingBlock: OJICUG_clean_linker_0, # of connection points: 2
#     Edge 17, Type (0, 0), BuildingBlock: OJICUG_clean_linker_0, # of connection points: 2
#     Edge 18, Type (0, 0), BuildingBlock: OJICUG_clean_linker_0, # of connection points: 2
#     Edge 19, Type (0, 0), BuildingBlock: OJICUG_clean_linker_0, # of connection points: 2
#     Edge 20, Type (0, 0), BuildingBlock: OJICUG_clean_linker_0, # of connection points: 2
#     Edge 21, Type (0, 0), BuildingBlock: OJICUG_clean_linker_0, # of connection points: 2
#     Edge 22, Type (0, 0), BuildingBlock: OJICUG_clean_linker_0, # of connection points: 2
#     Edge 23, Type (0, 0), BuildingBlock: OJICUG_clean_linker_0, # of connection points: 2
#     Edge 24, Type (0, 0), BuildingBlock: OJICUG_clean_linker_0, # of connection points: 2
#     Edge 25, Type (0, 0), BuildingBlock: OJICUG_clean_linker_0, # of connection points: 2
#     Edge 26, Type (0, 0), BuildingBlock: OJICUG_clean_linker_0, # of connection points: 2
#     Edge 27, Type (0, 0), BuildingBlock: OJICUG_clean_linker_0, # of connection points: 2
#     Edge 28, Type (0, 0), BuildingBlock: OJICUG_clean_linker_0, # of connection points: 2
#     Edge 29, Type (0, 0), BuildingBlock: OJICUG_clean_linker_0, # of connection points: 2
#     Edge 30, Type (0, 0), BuildingBlock: OJICUG_clean_linker_0, # of connection points: 2
#     Edge 31, Type (0, 0), BuildingBlock: OJICUG_clean_linker_0, # of connection points: 2
#     Edge 32, Type (0, 0), BuildingBlock: OJICUG_clean_linker_0, # of connection points: 2
#     Edge 33, Type (0, 0), BuildingBlock: OJICUG_clean_linker_0, # of connection points: 2
#     Edge 34, Type (0, 0), BuildingBlock: OJICUG_clean_linker_0, # of connection points: 2
#     Edge 35, Type (0, 0), BuildingBlock: OJICUG_clean_linker_0, # of connection points: 2
#     Edge 36, Type (0, 0), BuildingBlock: OJICUG_clean_linker_0, # of connection points: 2
#     Edge 37, Type (0, 0), BuildingBlock: OJICUG_clean_linker_0, # of connection points: 2
#     Edge 38, Type (0, 0), BuildingBlock: OJICUG_clean_linker_0, # of connection points: 2
#     Edge 39, Type (0, 0), BuildingBlock: OJICUG_clean_linker_0, # of connection points: 2
#     Edge 40, Type (0, 0), BuildingBlock: OJICUG_clean_linker_0, # of connection points: 2
#     Edge 41, Type (0, 0), BuildingBlock: OJICUG_clean_linker_0, # of connection points: 2
# Relax obj value: 0.512
# Max RMSD: 0.237
# Mean RMSD: 0.237
data_MOF--net-wjl--node1-BEQFEK_clean_sbu_0--edge1-OJICUG_clean_linker_0
_symmetry_space_group_name_H-M    P1
_symmetry_Int_Tables_number       1
_symmetry_cell_setting            triclinic
loop_
_symmetry_equiv_pos_as_xyz
'x, y, z'
_cell_length_a     20.359858
_cell_length_b     20.366486
_cell_length_c     63.119906
_cell_angle_alpha  90.230992
_cell_angle_beta   89.858595
_cell_angle_gamma 119.96597
loop_
_atom_site_label
_atom_site_type_symbol
_atom_site_fract_x
_atom_site_fract_y
_atom_site_fract_z
_atom_type_partial_charge
Co0 Co 0.47411 0.06486 0.37382 0.0
Co1 Co 0.31133 0.99063 0.3542 0.0
C2 C 0.44384 0.14153 0.33913 0.0
O3 O 0.49028 0.13676 0.35148 0.0
O4 O 0.37363 0.09081 0.33891 0.0
C5 C 0.63456 0.14074 0.3786 0.0
O6 O 0.63463 0.15721 0.35849 0.0
C7 C 0.2085 0.92331 0.31784 0.0
C8 C 0.09726 0.85357 0.33314 0.0
C9 C 0.13262 0.87226 0.3135 0.0
N10 N 0.21726 0.93414 0.33894 0.0
N11 N 0.15019 0.89315 0.34796 0.0
C12 C 0.27329 0.9549 0.30252 0.0
H13 H 0.2762 0.00453 0.29441 0.0
H14 H 0.32764 0.97365 0.31093 0.0
H15 H 0.26492 0.912 0.29032 0.0
C16 C 0.46499 0.92406 0.35979 0.0
N17 N 0.43279 0.96705 0.3628 0.0
N18 N 0.36384 0.93304 0.35489 0.0
C19 C 0.34923 0.8651 0.34702 0.0
C20 C 0.41304 0.85721 0.34981 0.0
C21 C 0.54774 0.95292 0.36339 0.0
H22 H 0.55965 0.95991 0.38065 0.0
H23 H 0.58084 0.00905 0.3558 0.0
H24 H 0.56762 0.91578 0.35661 0.0
O25 O 0.40881 0.07227 0.39559 0.0
O26 O 0.2904 0.01481 0.3838 0.0
H27 H 0.26837 0.75082 0.33753 0.0
H28 H 0.27583 0.82409 0.32015 0.0
C29 C 0.27592 0.80866 0.33696 0.0
H30 H 0.22785 0.80881 0.34519 0.0
H31 H 0.14104 0.88979 0.3643 0.0
O32 O 0.57189 0.09813 0.38779 0.0
C33 C 0.33918 0.05152 0.39824 0.0
Co34 Co 0.40686 0.47795 0.54409 0.0
Co35 Co 0.31871 0.32009 0.52119 0.0
C36 C 0.30358 0.45671 0.50889 0.0
O37 O 0.35007 0.49799 0.52304 0.0
O38 O 0.28664 0.3878 0.50616 0.0
C39 C 0.49447 0.63664 0.55013 0.0
O40 O 0.47977 0.63808 0.52993 0.0
C41 C 0.29535 0.2297 0.48287 0.0
C42 C 0.23871 0.1118 0.49436 0.0
C43 C 0.2684 0.15528 0.47627 0.0
N44 N 0.28308 0.23026 0.5038 0.0
N45 N 0.24809 0.15936 0.51054 0.0
C46 C 0.3306 0.29979 0.46952 0.0
H47 H 0.29056 0.32166 0.46845 0.0
H48 H 0.38285 0.34457 0.47723 0.0
H49 H 0.34328 0.28882 0.45323 0.0
C50 C 0.53869 0.4695 0.52964 0.0
N51 N 0.46331 0.43809 0.53205 0.0
N52 N 0.42835 0.37007 0.5235 0.0
C53 C 0.48176 0.35498 0.51598 0.0
C54 C 0.55354 0.41784 0.51942 0.0
C55 C 0.59321 0.55145 0.53418 0.0
H56 H 0.59513 0.56168 0.5515 0.0
H57 H 0.57286 0.58632 0.52628 0.0
H58 H 0.65119 0.57086 0.52831 0.0
O59 O 0.33338 0.40916 0.56473 0.0
O60 O 0.26807 0.29452 0.55033 0.0
H61 H 0.5138 0.27191 0.50793 0.0
H62 H 0.45542 0.28355 0.48878 0.0
C63 C 0.46514 0.28161 0.50595 0.0
H64 H 0.41369 0.23393 0.5131 0.0
H65 H 0.23289 0.14357 0.52629 0.0
O66 O 0.47154 0.57323 0.55914 0.0
C67 C 0.28139 0.34014 0.56586 0.0
Co68 Co 0.92893 0.41352 0.71288 0.0
Co69 Co 0.99528 0.32411 0.68879 0.0
C70 C 0.84486 0.31353 0.67716 0.0
O71 O 0.85136 0.35961 0.69166 0.0
O72 O 0.89566 0.29515 0.67409 0.0
C73 C 0.86022 0.50269 0.7203 0.0
O74 O 0.84442 0.49061 0.69999 0.0
C75 C 0.05772 0.29711 0.64997 0.0
C76 C 0.11931 0.24042 0.6612 0.0
C77 C 0.1039 0.26882 0.64312 0.0
N78 N 0.04715 0.28673 0.67101 0.0
N79 N 0.08317 0.25163 0.67758 0.0
C80 C 0.02191 0.33178 0.63677 0.0
H81 H 0.95981 0.2923 0.6363 0.0
H82 H 0.03104 0.38507 0.64425 0.0
H83 H 0.04337 0.34243 0.62027 0.0
C84 C 0.06977 0.54438 0.69861 0.0
N85 N 0.02519 0.46905 0.70081 0.0
N86 N 0.05653 0.43353 0.69153 0.0
C87 C 0.12438 0.48646 0.68364 0.0
C88 C 0.13476 0.55858 0.68767 0.0
C89 C 0.04378 0.59954 0.70399 0.0
H90 H 0.03525 0.59943 0.72136 0.0
H91 H 0.98888 0.58123 0.69608 0.0
H92 H 0.08324 0.65801 0.69875 0.0
O93 O 0.92268 0.33779 0.73283 0.0
O94 O 0.97037 0.2721 0.71765 0.0
H95 H 0.23763 0.51725 0.67386 0.0
H96 H 0.16392 0.45889 0.65548 0.0
C97 C 0.17879 0.46897 0.6725 0.0
H98 H 0.17579 0.41743 0.67929 0.0
H99 H 0.08527 0.2376 0.69336 0.0
O100 O 0.90016 0.47813 0.72882 0.0
C101 C 0.93875 0.28505 0.73341 0.0
Co102 Co 0.51832 0.93313 0.8819 0.0
Co103 Co 0.67054 0.99985 0.8562 0.0
C104 C 0.53186 0.84851 0.84553 0.0
O105 O 0.49433 0.8553 0.86057 0.0
O106 O 0.60012 0.89984 0.84168 0.0
C107 C 0.36103 0.86298 0.88917 0.0
O108 O 0.35836 0.85263 0.86855 0.0
C109 C 0.75937 0.06037 0.81721 0.0
C110 C 0.87696 0.12836 0.82875 0.0
C111 C 0.83343 0.10869 0.81048 0.0
N112 N 0.75913 0.05267 0.83837 0.0
N113 N 0.82989 0.09251 0.84514 0.0
C114 C 0.68951 0.01984 0.80382 0.0
H115 H 0.6702 0.95836 0.80394 0.0
H116 H 0.64319 0.02671 0.81077 0.0
H117 H 0.69982 0.03933 0.78715 0.0
C118 C 0.52442 0.07297 0.86813 0.0
N119 N 0.55633 0.02916 0.86984 0.0
N120 N 0.6209 0.05972 0.85941 0.0
C121 C 0.6326 0.12567 0.85095 0.0
C122 C 0.57139 0.13588 0.85596 0.0
C123 C 0.44514 0.04797 0.87531 0.0
H124 H 0.43945 0.03318 0.89236 0.0
H125 H 0.40532 0.99683 0.86622 0.0
H126 H 0.42803 0.09097 0.8729 0.0
O127 O 0.58999 0.92837 0.90128 0.0
O128 O 0.70082 0.97609 0.88469 0.0
H129 H 0.75186 0.17929 0.84439 0.0
H130 H 0.70904 0.23631 0.83823 0.0
C131 C 0.70051 0.17804 0.83808 0.0
H132 H 0.69198 0.15782 0.82146 0.0
H133 H 0.84582 0.09743 0.86103 0.0
O134 O 0.42506 0.90135 0.89811 0.0
C135 C 0.65903 0.94518 0.90092 0.0
Co136 Co 0.59933 0.53089 0.04966 0.0
Co137 Co 0.68167 0.67779 0.02224 0.0
C138 C 0.70615 0.54652 0.01468 0.0
O139 O 0.66471 0.51246 0.03051 0.0
O140 O 0.71651 0.61078 0.00874 0.0
C141 C 0.51606 0.37341 0.05445 0.0
O142 O 0.52783 0.37609 0.03391 0.0
C143 C 0.71416 0.768 0.9834 0.0
C144 C 0.7518 0.88316 0.99554 0.0
C145 C 0.73544 0.84133 0.97697 0.0
N146 N 0.71667 0.76649 1.00468 0.0
N147 N 0.74069 0.83596 0.01182 0.0
C148 C 0.6934 0.70017 0.96968 0.0
H149 H 0.73737 0.68362 0.97148 0.0
H150 H 0.63901 0.6515 0.97511 0.0
H151 H 0.69001 0.71173 0.9527 0.0
C152 C 0.46284 0.52636 0.03264 0.0
N153 N 0.53863 0.56095 0.03501 0.0
N154 N 0.57152 0.62376 0.02382 0.0
C155 C 0.51649 0.63108 0.01399 0.0
C156 C 0.44583 0.56922 0.01906 0.0
C157 C 0.40943 0.44906 0.04122 0.0
H158 H 0.42194 0.44657 0.05817 0.0
H159 H 0.41757 0.40667 0.03233 0.0
H160 H 0.34919 0.43274 0.0397 0.0
O161 O 0.66242 0.60678 0.07064 0.0
O162 O 0.73108 0.71031 0.05138 0.0
H163 H 0.57807 0.74942 0.00623 0.0
H164 H 0.47905 0.70143 0.99886 0.0
C165 C 0.53046 0.69587 0.99998 0.0
H166 H 0.54512 0.68572 0.98386 0.0
H167 H 0.74651 0.85057 0.02785 0.0
O168 O 0.53866 0.43489 0.06463 0.0
C169 C 0.71486 0.67541 0.06911 0.0
Co170 Co 0.0675 0.59866 0.21301 0.0
Co171 Co 0.00112 0.68335 0.18745 0.0
C172 C 0.15719 0.71093 0.17899 0.0
O173 O 0.15065 0.66795 0.19432 0.0
O174 O 0.10257 0.72084 0.17341 0.0
C175 C 0.14367 0.51595 0.21628 0.0
O176 O 0.15633 0.53321 0.19608 0.0
C177 C 0.93615 0.72131 0.15061 0.0
C178 C 0.86359 0.75881 0.16637 0.0
C179 C 0.88392 0.74504 0.14656 0.0
N180 N 0.94545 0.72078 0.17174 0.0
N181 N 0.9029 0.74468 0.18101 0.0
C182 C 0.97108 0.6924 0.13496 0.0
H183 H 0.99262 0.6586 0.14304 0.0
H184 H 0.92925 0.65728 0.12264 0.0
H185 H 0.01935 0.74127 0.12703 0.0
C186 C 0.936 0.46417 0.19504 0.0
N187 N 0.97683 0.53961 0.19808 0.0
N188 N 0.94569 0.57327 0.1878 0.0
C189 C 0.88261 0.51905 0.17799 0.0
C190 C 0.87469 0.44815 0.18212 0.0
C191 C 0.96157 0.41048 0.20226 0.0
H192 H 0.97351 0.41788 0.21949 0.0
H193 H 0.01438 0.42376 0.19376 0.0
H194 H 0.92015 0.3504 0.19903 0.0
O195 O 0.05384 0.65736 0.23531 0.0
O196 O 0.01895 0.72839 0.21726 0.0
H197 H 0.7728 0.48274 0.16426 0.0
H198 H 0.85236 0.54905 0.14871 0.0
C199 C 0.82999 0.53393 0.16506 0.0
H200 H 0.82524 0.58143 0.172 0.0
H201 H 0.89827 0.74836 0.19738 0.0
O202 O 0.10299 0.53578 0.22671 0.0
C203 C 0.03747 0.70985 0.23464 0.0
Co204 Co 0.92526 0.51656 0.44133 0.0
Co205 Co 0.992 0.668 0.46758 0.0
C206 C 0.84164 0.52769 0.4782 0.0
O207 O 0.84812 0.49064 0.46295 0.0
O208 O 0.89263 0.59612 0.48207 0.0
C209 C 0.85594 0.35953 0.43248 0.0
O210 O 0.84161 0.35372 0.45291 0.0
C211 C 0.0538 0.75583 0.5068 0.0
C212 C 0.11875 0.87392 0.49556 0.0
C213 C 0.10125 0.82997 0.51367 0.0
N214 N 0.04459 0.75599 0.4857 0.0
N215 N 0.0826 0.82703 0.47913 0.0
C216 C 0.01521 0.68553 0.52001 0.0
H217 H 0.95364 0.66581 0.52049 0.0
H218 H 0.02163 0.63966 0.51253 0.0
H219 H 0.03659 0.69546 0.53651 0.0
C220 C 0.06548 0.52289 0.455 0.0
N221 N 0.02177 0.55493 0.45329 0.0
N222 N 0.05249 0.61943 0.4638 0.0
C223 C 0.11869 0.63127 0.47215 0.0
C224 C 0.12872 0.56997 0.46712 0.0
C225 C 0.0398 0.44324 0.44802 0.0
H226 H 0.02774 0.43786 0.43078 0.0
H227 H 0.98681 0.40436 0.45651 0.0
H228 H 0.08127 0.42473 0.45134 0.0
O229 O 0.91862 0.58869 0.42245 0.0
O230 O 0.96721 0.69902 0.43942 0.0
H231 H 0.17178 0.7505 0.47877 0.0
H232 H 0.23001 0.70856 0.48439 0.0
C233 C 0.17153 0.69948 0.48491 0.0
H234 H 0.15258 0.69095 0.50163 0.0
H235 H 0.08601 0.84333 0.46333 0.0
O236 O 0.89518 0.42486 0.42437 0.0
C237 C 0.93563 0.65773 0.42313 0.0
Co238 Co 0.41178 0.92941 0.61047 0.0
Co239 Co 0.32278 0.9959 0.63464 0.0
C240 C 0.31274 0.84614 0.64639 0.0
O241 O 0.35835 0.8525 0.6318 0.0
O242 O 0.2944 0.89693 0.64955 0.0
C243 C 0.50097 0.86058 0.60336 0.0
O244 O 0.48937 0.84577 0.62371 0.0
C245 C 0.29696 0.06034 0.67326 0.0
C246 C 0.23932 0.12074 0.66181 0.0
C247 C 0.26865 0.10669 0.67993 0.0
N248 N 0.28566 0.04834 0.65227 0.0
N249 N 0.24998 0.08365 0.64557 0.0
C250 C 0.33258 0.02579 0.68657 0.0
H251 H 0.29222 0.96409 0.68795 0.0
H252 H 0.38421 0.03231 0.67866 0.0
H253 H 0.34627 0.05028 0.70275 0.0
C254 C 0.54298 0.07061 0.62454 0.0
N255 N 0.46758 0.02597 0.62239 0.0
N256 N 0.43218 0.05735 0.63172 0.0
C257 C 0.48528 0.12526 0.63959 0.0
C258 C 0.55735 0.13561 0.63553 0.0
C259 C 0.59813 0.04469 0.61906 0.0
H260 H 0.59671 0.03477 0.60174 0.0
H261 H 0.58078 0.99052 0.62725 0.0
H262 H 0.65696 0.08484 0.62392 0.0
O263 O 0.33546 0.92226 0.59052 0.0
O264 O 0.26974 0.96959 0.60587 0.0
H265 H 0.41621 0.17659 0.6441 0.0
H266 H 0.51625 0.23863 0.6493 0.0
C267 C 0.46806 0.17981 0.65076 0.0
H268 H 0.45875 0.16538 0.6678 0.0
H269 H 0.23525 0.08466 0.6298 0.0
O270 O 0.47617 0.90006 0.59468 0.0
C271 C 0.28231 0.9378 0.59007 0.0
Co272 Co 0.4786 0.41283 0.77878 0.0
Co273 Co 0.32074 0.32431 0.80151 0.0
C274 C 0.45585 0.30838 0.8141 0.0
O275 O 0.4967 0.35447 0.79984 0.0
O276 O 0.38707 0.29168 0.81702 0.0
C277 C 0.63801 0.49969 0.77352 0.0
O278 O 0.63865 0.48441 0.7937 0.0
C279 C 0.21814 0.28832 0.83829 0.0
C280 C 0.10668 0.24529 0.82298 0.0
C281 C 0.14196 0.26259 0.84262 0.0
N282 N 0.22709 0.28627 0.81717 0.0
N283 N 0.15989 0.25926 0.80817 0.0
C284 C 0.28279 0.32184 0.85363 0.0
H285 H 0.28625 0.27536 0.8617 0.0
H286 H 0.3371 0.35792 0.84524 0.0
H287 H 0.27383 0.35591 0.86586 0.0
C288 C 0.47015 0.54442 0.79342 0.0
N289 N 0.43838 0.46907 0.79083 0.0
N290 N 0.37116 0.43409 0.79984 0.0
C291 C 0.3573 0.48744 0.8081 0.0
C292 C 0.41983 0.55925 0.80441 0.0
C293 C 0.55169 0.59882 0.78839 0.0
H294 H 0.56081 0.59866 0.77106 0.0
H295 H 0.58741 0.57981 0.79647 0.0
H296 H 0.57114 0.65742 0.79372 0.0
O297 O 0.41168 0.34103 0.75755 0.0
O298 O 0.29775 0.27488 0.77216 0.0
H299 H 0.27776 0.52043 0.81933 0.0
H300 H 0.28957 0.45596 0.83616 0.0
C301 C 0.28601 0.47051 0.81947 0.0
H302 H 0.23656 0.42172 0.81191 0.0
H303 H 0.15077 0.25315 0.79184 0.0
O304 O 0.57499 0.47763 0.76432 0.0
C305 C 0.34286 0.2886 0.75652 0.0
Co306 Co 0.0673 0.46605 0.94269 0.0
Co307 Co 0.0009 0.31492 0.96816 0.0
C308 C 0.15594 0.44432 0.97717 0.0
O309 O 0.14967 0.48074 0.96179 0.0
O310 O 0.10155 0.37939 0.98254 0.0
C311 C 0.14318 0.62507 0.93886 0.0
O312 O 0.15737 0.6221 0.95902 0.0
C313 C 0.93575 0.21171 1.00493 0.0
C314 C 0.8642 0.10158 0.98916 0.0
C315 C 0.8841 0.13563 0.00898 0.0
N316 N 0.94522 0.22166 0.98381 0.0
N317 N 0.90324 0.15519 0.97453 0.0
C318 C 0.97 0.27548 0.0206 0.0
H319 H 0.99091 0.33073 0.01253 0.0
H320 H 0.92793 0.26824 0.03293 0.0
H321 H 0.0186 0.27548 0.02851 0.0
C322 C 0.93488 0.46828 0.96023 0.0
N323 N 0.97581 0.43369 0.95725 0.0
N324 N 0.94463 0.3689 0.96751 0.0
C325 C 0.88133 0.36001 0.97725 0.0
C326 C 0.87332 0.42296 0.97307 0.0
C327 C 0.96091 0.54778 0.95317 0.0
H328 H 0.97227 0.55249 0.9359 0.0
H329 H 0.01416 0.5867 0.96156 0.0
H330 H 0.92005 0.56702 0.95666 0.0
O331 O 0.05597 0.39425 0.92048 0.0
O332 O 0.02101 0.28829 0.93848 0.0
H333 H 0.77161 0.28657 0.99104 0.0
H334 H 0.8513 0.30034 0.00662 0.0
C335 C 0.82891 0.29273 0.99028 0.0
H336 H 0.82445 0.24048 0.98344 0.0
H337 H 0.8989 0.14693 0.95815 0.0
O338 O 0.10206 0.56383 0.92881 0.0
C339 C 0.04044 0.32568 0.92116 0.0
Co340 Co 0.60026 0.06527 0.10585 0.0
Co341 Co 0.68356 0.00233 0.13358 0.0
C342 C 0.70745 0.15794 0.14056 0.0
O343 O 0.66561 0.14998 0.12479 0.0
O344 O 0.71832 0.10448 0.14659 0.0
C345 C 0.51587 0.13826 0.10099 0.0
O346 O 0.52718 0.14703 0.12155 0.0
C347 C 0.72141 0.94973 0.17263 0.0
C348 C 0.74981 0.86485 0.16079 0.0
C349 C 0.73987 0.8958 0.1793 0.0
N350 N 0.71898 0.94932 0.15132 0.0
N351 N 0.73763 0.89951 0.14434 0.0
C352 C 0.70811 0.00266 0.18614 0.0
H353 H 0.74985 0.06184 0.18178 0.0
H354 H 0.65083 0.99424 0.18297 0.0
H355 H 0.71489 0.99555 0.20325 0.0
C356 C 0.46437 0.93369 0.12326 0.0
N357 N 0.5401 0.97503 0.12079 0.0
N358 N 0.57344 0.94644 0.13235 0.0
C359 C 0.51887 0.88533 0.14272 0.0
C360 C 0.44792 0.8755 0.13743 0.0
C361 C 0.41039 0.95604 0.11419 0.0
H362 H 0.424 0.97129 0.09729 0.0
H363 H 0.4165 0.00595 0.12298 0.0
H364 H 0.35043 0.91112 0.11538 0.0
O365 O 0.66325 0.05203 0.08493 0.0
O366 O 0.73227 0.0179 0.10432 0.0
H367 H 0.57897 0.82777 0.15116 0.0
H368 H 0.48186 0.7818 0.16025 0.0
C369 C 0.53382 0.83737 0.15763 0.0
H370 H 0.55297 0.86696 0.17307 0.0
H371 H 0.73883 0.88675 0.12836 0.0
O372 O 0.5391 0.09986 0.09081 0.0
C373 C 0.71578 0.03593 0.08653 0.0
Co374 Co 0.52159 0.58862 0.27141 0.0
Co375 Co 0.66526 0.66867 0.30059 0.0
C376 C 0.52697 0.681 0.30925 0.0
O377 O 0.49418 0.64033 0.29311 0.0
O378 O 0.59372 0.69662 0.31454 0.0
C379 C 0.36581 0.49547 0.26379 0.0
O380 O 0.36308 0.49509 0.2846 0.0
C381 C 0.7578 0.70748 0.33968 0.0
C382 C 0.86771 0.72693 0.32743 0.0
C383 C 0.82967 0.72301 0.34605 0.0
N384 N 0.75337 0.70122 0.31841 0.0
N385 N 0.81989 0.71441 0.31119 0.0
C386 C 0.69503 0.70167 0.35343 0.0
H387 H 0.68192 0.74629 0.3487 0.0
H388 H 0.64288 0.64625 0.35089 0.0
H389 H 0.71065 0.70957 0.37044 0.0
C390 C 0.52559 0.45304 0.28378 0.0
N391 N 0.55749 0.52882 0.28339 0.0
N392 N 0.61428 0.55964 0.29686 0.0
C393 C 0.61819 0.50309 0.30694 0.0
C394 C 0.56117 0.43344 0.29909 0.0
C395 C 0.46129 0.39992 0.26983 0.0
H396 H 0.46689 0.42547 0.25398 0.0
H397 H 0.40689 0.38862 0.277 0.0
H398 H 0.46019 0.34514 0.26802 0.0
O399 O 0.59527 0.66595 0.25303 0.0
O400 O 0.69985 0.72643 0.27249 0.0
H401 H 0.72884 0.55302 0.32066 0.0
H402 H 0.66216 0.46203 0.33182 0.0
C403 C 0.66898 0.51566 0.32546 0.0
H404 H 0.65581 0.54458 0.33826 0.0
H405 H 0.83176 0.71189 0.29521 0.0
O406 O 0.42987 0.52866 0.25464 0.0
C407 C 0.6636 0.71812 0.25523 0.0
C408 C 0.4143 0.77966 0.31912 0.0
C409 C 0.42953 0.79983 0.34057 0.0
H410 H 0.43272 0.7254 0.29253 0.0
C411 C 0.4699 0.77293 0.35231 0.0
H412 H 0.3841 0.80008 0.3096 0.0
C413 C 0.50082 0.73299 0.34233 0.0
C414 C 0.48894 0.7164 0.32061 0.0
H415 H 0.48119 0.78658 0.36899 0.0
H416 H 0.53501 0.71629 0.35147 0.0
C417 C 0.44294 0.73755 0.30931 0.0
C418 C 0.69486 0.47358 0.52169 0.0
C419 C 0.62711 0.4344 0.51001 0.0
H420 H 0.81675 0.53704 0.52062 0.0
C421 C 0.63109 0.42007 0.48844 0.0
H422 H 0.69321 0.48402 0.53847 0.0
C423 C 0.70126 0.44791 0.47849 0.0
C424 C 0.76893 0.49241 0.48976 0.0
H425 H 0.5802 0.39106 0.47893 0.0
H426 H 0.70245 0.43803 0.46165 0.0
C427 C 0.76534 0.50401 0.51154 0.0
C428 C 0.26172 0.77013 0.67974 0.0
C429 C 0.27388 0.77348 0.65781 0.0
H430 H 0.21264 0.69821 0.70679 0.0
C431 C 0.24767 0.70571 0.6463 0.0
H432 H 0.2826 0.82169 0.68898 0.0
C433 C 0.20566 0.63569 0.65624 0.0
C434 C 0.19079 0.63191 0.67804 0.0
H435 H 0.25655 0.70688 0.62934 0.0
H436 H 0.18162 0.58482 0.64662 0.0
C437 C 0.22205 0.69971 0.68986 0.0
C438 C 0.48579 0.26222 0.84756 0.0
C439 C 0.4877 0.26757 0.82542 0.0
H440 H 0.51658 0.2208 0.87484 0.0
C441 C 0.52319 0.23536 0.81363 0.0
H442 H 0.46007 0.28804 0.85696 0.0
C443 C 0.55293 0.19507 0.82368 0.0
C444 C 0.54973 0.18793 0.8458 0.0
H445 H 0.52568 0.23922 0.7965 0.0
H446 H 0.57577 0.16709 0.81403 0.0
C447 C 0.5182 0.22407 0.85771 0.0
C448 C 0.30451 0.51573 0.02047 0.0
C449 C 0.3718 0.54442 0.00857 0.0
H450 H 0.1826 0.45801 0.01985 0.0
C451 C 0.36725 0.54278 0.98638 0.0
H452 H 0.30657 0.51843 0.03761 0.0
C453 C 0.29685 0.51094 0.9763 0.0
C454 C 0.22951 0.47817 0.9882 0.0
H455 H 0.41792 0.56383 0.97677 0.0
H456 H 0.29491 0.50984 0.95914 0.0
C457 C 0.23377 0.48123 0.01038 0.0
C458 C 0.81582 0.36971 0.14966 0.0
C459 C 0.82314 0.37439 0.17179 0.0
H460 H 0.77283 0.29702 0.12248 0.0
C461 C 0.78736 0.30724 0.18373 0.0
H462 H 0.84311 0.42035 0.14003 0.0
C463 C 0.75038 0.23648 0.17365 0.0
C464 C 0.74549 0.23194 0.15148 0.0
H465 H 0.79034 0.30944 0.20087 0.0
H466 H 0.72537 0.18544 0.18314 0.0
C467 C 0.77645 0.29914 0.13962 0.0
C468 C 0.23076 0.52425 0.50932 0.0
C469 C 0.26228 0.48804 0.49756 0.0
H470 H 0.16231 0.57659 0.50897 0.0
C471 C 0.25532 0.48448 0.47545 0.0
H472 H 0.2357 0.52786 0.52644 0.0
C473 C 0.21639 0.51611 0.46531 0.0
C474 C 0.18112 0.54855 0.47721 0.0
H475 H 0.28046 0.45806 0.46606 0.0
H476 H 0.21186 0.51318 0.44819 0.0
C477 C 0.18972 0.55321 0.4993 0.0
C478 C 0.63436 0.20557 0.66715 0.0
C479 C 0.63067 0.19135 0.6453 0.0
H480 H 0.70547 0.25603 0.69417 0.0
C481 C 0.69852 0.22313 0.63354 0.0
H482 H 0.58344 0.1811 0.67672 0.0
C483 C 0.76892 0.2628 0.64374 0.0
C484 C 0.77218 0.2744 0.6657 0.0
H485 H 0.69709 0.21424 0.61658 0.0
H486 H 0.82053 0.28419 0.63453 0.0
C487 C 0.70435 0.24758 0.67718 0.0
C488 C 0.50574 0.77115 0.81227 0.0
C489 C 0.49717 0.77532 0.83418 0.0
H490 H 0.48238 0.69832 0.78528 0.0
C491 C 0.45528 0.70793 0.84572 0.0
H492 H 0.53664 0.82235 0.80299 0.0
C493 C 0.42675 0.6375 0.83582 0.0
C494 C 0.4377 0.63297 0.81405 0.0
H495 H 0.44771 0.70966 0.86268 0.0
H496 H 0.39954 0.58686 0.84544 0.0
C497 C 0.47455 0.70039 0.8022 0.0
C498 C 0.78653 0.4774 0.97146 0.0
C499 C 0.82182 0.44544 0.98338 0.0
H500 H 0.72502 0.53783 0.97205 0.0
C501 C 0.81426 0.44268 0.00551 0.0
H502 H 0.78981 0.47843 0.95432 0.0
C503 C 0.77508 0.47417 0.01555 0.0
C504 C 0.74449 0.51084 1.0037 0.0
H505 H 0.84122 0.41898 0.01515 0.0
H506 H 0.77123 0.47242 0.03269 0.0
C507 C 0.74972 0.51146 0.98154 0.0
C508 C 0.30701 0.78619 0.13602 0.0
C509 C 0.37385 0.82677 0.14797 0.0
H510 H 0.18519 0.72047 0.13644 0.0
C511 C 0.36866 0.82616 0.17015 0.0
H512 H 0.30961 0.78374 0.11891 0.0
C513 C 0.298 0.78776 0.18013 0.0
C514 C 0.23106 0.7511 0.16812 0.0
H515 H 0.41901 0.85728 0.17978 0.0
H516 H 0.29549 0.7885 0.19728 0.0
C517 C 0.23601 0.75011 0.14598 0.0
C518 C 0.54947 0.25503 0.32135 0.0
C519 C 0.472 0.21174 0.32661 0.0
H520 H 0.63826 0.3585 0.30803 0.0
C521 C 0.42406 0.24075 0.32203 0.0
H522 H 0.58783 0.23402 0.32471 0.0
C523 C 0.45353 0.31284 0.31319 0.0
C524 C 0.53115 0.3567 0.30825 0.0
H525 H 0.36452 0.20938 0.32621 0.0
H526 H 0.41571 0.3351 0.31077 0.0
C527 C 0.5786 0.32653 0.31205 0.0
C528 C 0.82119 0.30247 0.39636 0.0
C529 C 0.81319 0.29367 0.41846 0.0
H530 H 0.77063 0.25943 0.36614 0.0
C531 C 0.75531 0.2253 0.42682 0.0
H532 H 0.86626 0.35396 0.38944 0.0
C533 C 0.70052 0.17109 0.41346 0.0
C534 C 0.70301 0.18458 0.39157 0.0
H535 H 0.74856 0.21622 0.44377 0.0
H536 H 0.65308 0.12162 0.42048 0.0
C537 C 0.76643 0.24819 0.38299 0.0
C538 C 0.52622 0.7708 0.55451 0.0
C539 C 0.52121 0.70518 0.56323 0.0
H540 H 0.52522 0.87344 0.56066 0.0
C541 C 0.52901 0.70127 0.58523 0.0
H542 H 0.52201 0.77616 0.53757 0.0
C543 C 0.53088 0.75705 0.59848 0.0
C544 C 0.52483 0.81722 0.58985 0.0
H545 H 0.52718 0.65209 0.59236 0.0
H546 H 0.53017 0.74924 0.61546 0.0
C547 C 0.528 0.82655 0.56776 0.0
C548 C 0.75874 0.53547 0.72535 0.0
C549 C 0.81771 0.52721 0.73394 0.0
H550 H 0.65514 0.5346 0.73146 0.0
C551 C 0.82656 0.5291 0.75605 0.0
H552 H 0.75138 0.53584 0.70837 0.0
C553 C 0.77133 0.52832 0.7693 0.0
C554 C 0.7067 0.52561 0.76056 0.0
H555 H 0.87256 0.52458 0.76313 0.0
H556 H 0.77612 0.52303 0.78621 0.0
C557 C 0.7035 0.53465 0.7386 0.0
C558 C 0.22837 0.75682 0.8928 0.0
C559 C 0.294 0.81536 0.90226 0.0
H560 H 0.12768 0.65004 0.89722 0.0
C561 C 0.29994 0.81904 0.92446 0.0
H562 H 0.22148 0.75324 0.87575 0.0
C563 C 0.24619 0.7598 0.93678 0.0
C564 C 0.18596 0.69627 0.92702 0.0
H565 H 0.34921 0.86441 0.93223 0.0
H566 H 0.25546 0.7611 0.9537 0.0
C567 C 0.1747 0.69755 0.90511 0.0
C568 C 0.48752 0.24373 0.09986 0.0
C569 C 0.49263 0.18564 0.0893 0.0
H570 H 0.48987 0.3493 0.0969 0.0
C571 C 0.48781 0.18145 0.0671 0.0
H572 H 0.48969 0.24768 0.11699 0.0
C573 C 0.48778 0.23964 0.05558 0.0
C574 C 0.4928 0.30279 0.06614 0.0
H575 H 0.49003 0.13637 0.05854 0.0
H576 H 0.49013 0.23794 0.03845 0.0
C577 C 0.48772 0.30205 0.08834 0.0
C578 C 0.23278 0.46896 0.26133 0.0
C579 C 0.29762 0.47613 0.25128 0.0
H580 H 0.1318 0.47539 0.25788 0.0
C581 C 0.30185 0.47891 0.22906 0.0
H582 H 0.22741 0.46559 0.27842 0.0
C583 C 0.24708 0.48451 0.21728 0.0
C584 C 0.18758 0.48765 0.22761 0.0
H585 H 0.35055 0.48292 0.22086 0.0
H586 H 0.25498 0.49267 0.20032 0.0
C587 C 0.17814 0.47489 0.24956 0.0
C588 C 0.09135 0.83282 0.25456 0.0
C589 C 0.04785 0.7533 0.25441 0.0
H590 H 0.15302 0.9334 0.2735 0.0
C591 C 0.02589 0.71466 0.27382 0.0
H592 H 0.1097 0.86389 0.23981 0.0
C593 C 0.04998 0.7542 0.29299 0.0
C594 C 0.09846 0.8331 0.29317 0.0
H595 H 0.99264 0.65333 0.27414 0.0
H596 H 0.03429 0.72238 0.30764 0.0
C597 C 0.11701 0.87239 0.27381 0.0
C598 C 0.37509 0.13737 0.42964 0.0
C599 C 0.31799 0.07635 0.41807 0.0
H600 H 0.40397 0.20954 0.45676 0.0
C601 C 0.24308 0.04135 0.42575 0.0
H602 H 0.43346 0.16604 0.42429 0.0
C603 C 0.22633 0.06661 0.44474 0.0
C604 C 0.28378 0.12855 0.45595 0.0
H605 H 0.19788 0.99402 0.4173 0.0
H606 H 0.16857 0.03828 0.45058 0.0
C607 C 0.3582 0.16308 0.44823 0.0
C608 C 0.18375 0.3575 0.6148 0.0
C609 C 0.14498 0.28343 0.62267 0.0
H610 H 0.25585 0.43255 0.59096 0.0
C611 C 0.15059 0.22612 0.61163 0.0
H612 H 0.18237 0.40325 0.62319 0.0
C613 C 0.19315 0.24284 0.59275 0.0
C614 C 0.23251 0.3176 0.58508 0.0
H615 H 0.12205 0.16861 0.61759 0.0
H616 H 0.19675 0.19801 0.5845 0.0
C617 C 0.22676 0.37433 0.59636 0.0
C618 C 0.92474 0.15757 0.77957 0.0
C619 C 0.85897 0.14805 0.78982 0.0
H620 H 0.00134 0.20693 0.75312 0.0
C621 C 0.82021 0.18214 0.7811 0.0
H622 H 0.95638 0.13279 0.78622 0.0
C623 C 0.8461 0.22475 0.76264 0.0
C624 C 0.91171 0.23478 0.75224 0.0
H625 H 0.77083 0.17788 0.78892 0.0
H626 H 0.81467 0.25068 0.75659 0.0
C627 C 0.95035 0.19972 0.76068 0.0
C628 C 0.65188 0.82186 0.94613 0.0
C629 C 0.72197 0.86598 0.95614 0.0
H630 H 0.57837 0.81235 0.92086 0.0
C631 C 0.7744 0.93641 0.94723 0.0
H632 H 0.60932 0.76864 0.95289 0.0
C633 C 0.75663 0.96188 0.92854 0.0
C634 C 0.68528 0.91806 0.91899 0.0
H635 H 0.82846 0.97206 0.95489 0.0
H636 H 0.79699 0.01678 0.92214 0.0
C637 C 0.63383 0.84748 0.92786 0.0
C638 C 0.76532 0.71246 0.12685 0.0
C639 C 0.8439 0.74032 0.12643 0.0
H640 H 0.66301 0.67052 0.10886 0.0
C641 C 0.88141 0.75879 0.10673 0.0
H642 H 0.7347 0.69825 0.14172 0.0
C643 C 0.84017 0.74442 0.0878 0.0
C644 C 0.7608 0.71059 0.08831 0.0
H645 H 0.94218 0.78227 0.10591 0.0
H646 H 0.86967 0.75488 0.0728 0.0
C647 C 0.72419 0.69687 0.10802 0.0
C648 C 0.17829 0.81868 0.54241 0.0
C649 C 0.14177 0.85583 0.5342 0.0
H650 H 0.24999 0.81515 0.56632 0.0
C651 C 0.15018 0.9207 0.54476 0.0
H652 H 0.17489 0.77007 0.53433 0.0
C653 C 0.19365 0.94701 0.56345 0.0
C654 C 0.23118 0.91008 0.57137 0.0
H655 H 0.1235 0.9511 0.53851 0.0
H656 H 0.19982 0.99722 0.57127 0.0
C657 C 0.22225 0.84534 0.56066 0.0
C658 C 0.3766 0.23455 0.72575 0.0
C659 C 0.31994 0.23936 0.73733 0.0
H660 H 0.40459 0.18934 0.69891 0.0
C661 C 0.24454 0.19796 0.73014 0.0
H662 H 0.43529 0.26516 0.73079 0.0
C663 C 0.22704 0.15417 0.71145 0.0
C664 C 0.28426 0.14933 0.70016 0.0
H665 H 0.19971 0.20072 0.73864 0.0
H666 H 0.16899 0.12396 0.70588 0.0
C667 C 0.35901 0.19022 0.70752 0.0
C668 C 0.12608 0.24733 0.88237 0.0
C669 C 0.10696 0.26689 0.86291 0.0
H670 H 0.11745 0.24821 0.91636 0.0
C671 C 0.0564 0.29494 0.86291 0.0
H672 H 0.16363 0.22407 0.88284 0.0
C673 C 0.0306 0.30913 0.88198 0.0
C674 C 0.05287 0.2935 0.90149 0.0
H675 H 0.04017 0.31012 0.84819 0.0
H676 H 0.99565 0.33542 0.88151 0.0
C677 C 0.09872 0.25997 0.90153 0.0
C678 C 0.88204 0.1194 0.04879 0.0
C679 C 0.84439 0.10004 0.02913 0.0
H680 H 0.87056 0.11183 0.08273 0.0
C681 C 0.76596 0.04878 0.02878 0.0
H682 H 0.94272 0.15709 0.04956 0.0
C683 C 0.72502 0.0231 0.04764 0.0
C684 C 0.7617 0.04641 0.06732 0.0
H685 H 0.73525 0.03209 0.01392 0.0
H686 H 0.66388 0.98791 0.04685 0.0
C687 C 0.84101 0.09243 0.06776 0.0
C688 C 0.77737 0.83488 0.20803 0.0
C689 C 0.72967 0.86162 0.20065 0.0
H690 H 0.79543 0.76949 0.23176 0.0
C691 C 0.66562 0.84664 0.21264 0.0
H692 H 0.82657 0.84478 0.1989 0.0
C693 C 0.64836 0.80449 0.2312 0.0
C694 C 0.69415 0.77546 0.23825 0.0
H695 H 0.62592 0.86341 0.20708 0.0
H696 H 0.59664 0.79129 0.23956 0.0
C697 C 0.76006 0.79248 0.22685 0.0
C698 C 0.93001 0.76347 0.37434 0.0
C699 C 0.85491 0.71551 0.36749 0.0
H700 H 0.01485 0.78451 0.39796 0.0
C701 C 0.80629 0.65354 0.38014 0.0
H702 H 0.96892 0.81105 0.3647 0.0
C703 C 0.83248 0.6383 0.39882 0.0
C704 C 0.90786 0.68462 0.40543 0.0
H705 H 0.74907 0.61402 0.37501 0.0
H706 H 0.79429 0.58814 0.40775 0.0
C707 C 0.95617 0.74866 0.39336 0.0
loop_
_geom_bond_atom_site_label_1
_geom_bond_atom_site_label_2
_geom_bond_distance
_geom_bond_site_symmetry_2
_ccdc_geom_bond_type
Co0 O3 1.970 . S
Co0 N17 1.989 . S
Co0 O25 1.967 . S
Co0 O32 1.920 . S
Co1 O4 1.966 . S
Co1 N10 2.022 . S
Co1 N18 1.993 . S
Co1 O26 1.941 . S
C2 O3 1.258 . S
C2 O4 1.263 . S
O3 Co0 1.970 . S
O3 C2 1.258 . S
O4 Co1 1.966 . S
O4 C2 1.263 . S
C5 O6 1.235 . S
C5 O32 1.289 . S
O6 C5 1.235 . S
C7 C9 1.400 1_545 S
C7 N10 1.351 . S
C7 C12 1.501 . S
C8 C9 1.387 . S
C8 N11 1.341 . S
C9 C7 1.400 1_565 S
C9 C8 1.387 . S
N10 Co1 2.022 . S
N10 C7 1.351 . S
N10 N11 1.365 1_545 S
N11 C8 1.341 . S
N11 N10 1.365 1_565 S
N11 H31 0.862 . S
C12 C7 1.501 . S
C12 H13 0.961 . S
C12 H14 0.961 . S
C12 H15 0.960 . S
H13 C12 0.961 . S
H14 C12 0.961 . S
H15 C12 0.960 . S
C16 N17 1.342 . S
C16 C20 1.401 . S
C16 C21 1.499 . S
N17 Co0 1.989 . S
N17 C16 1.342 . S
N17 N18 1.388 . S
N18 Co1 1.993 . S
N18 N17 1.388 . S
N18 C19 1.346 . S
C19 N18 1.346 . S
C19 C20 1.396 . S
C19 C29 1.510 1_545 S
C20 C16 1.401 . S
C20 C19 1.396 . S
C21 C16 1.499 . S
C21 H22 0.959 . S
C21 H23 0.960 . S
C21 H24 0.961 . S
H22 C21 0.959 . S
H23 C21 0.960 . S
H24 C21 0.961 . S
O25 Co0 1.967 . S
O25 C33 1.258 . S
O26 Co1 1.941 . S
O26 C33 1.266 . S
H27 C29 0.959 . S
H28 C29 0.961 . S
C29 C19 1.510 1_565 S
C29 H27 0.959 . S
C29 H28 0.961 . S
C29 H30 0.960 . S
H30 C29 0.960 . S
H31 N11 0.862 . S
O32 Co0 1.920 . S
O32 C5 1.289 . S
C33 O25 1.258 . S
C33 O26 1.266 . S
Co34 O37 1.970 . S
Co34 N51 1.989 . S
Co34 O59 1.967 . S
Co34 O66 1.920 . S
Co35 O38 1.966 . S
Co35 N44 2.022 . S
Co35 N52 1.993 . S
Co35 O60 1.941 . S
C36 O37 1.258 . S
C36 O38 1.263 . S
O37 Co34 1.970 . S
O37 C36 1.258 . S
O38 Co35 1.966 . S
O38 C36 1.263 . S
C39 O40 1.235 . S
C39 O66 1.289 . S
O40 C39 1.235 . S
C41 C43 1.400 . S
C41 N44 1.351 . S
C41 C46 1.501 . S
C42 C43 1.387 . S
C42 N45 1.341 . S
C43 C41 1.400 . S
C43 C42 1.387 . S
N44 Co35 2.022 . S
N44 C41 1.351 . S
N44 N45 1.365 . S
N45 C42 1.341 . S
N45 N44 1.365 . S
N45 H65 0.862 . S
C46 C41 1.501 . S
C46 H47 0.961 . S
C46 H48 0.961 . S
C46 H49 0.960 . S
H47 C46 0.961 . S
H48 C46 0.961 . S
H49 C46 0.960 . S
C50 N51 1.342 . S
C50 C54 1.401 . S
C50 C55 1.499 . S
N51 Co34 1.989 . S
N51 C50 1.342 . S
N51 N52 1.388 . S
N52 Co35 1.993 . S
N52 N51 1.388 . S
N52 C53 1.346 . S
C53 N52 1.346 . S
C53 C54 1.396 . S
C53 C63 1.510 . S
C54 C50 1.401 . S
C54 C53 1.396 . S
C55 C50 1.499 . S
C55 H56 0.959 . S
C55 H57 0.960 . S
C55 H58 0.961 . S
H56 C55 0.959 . S
H57 C55 0.960 . S
H58 C55 0.961 . S
O59 Co34 1.967 . S
O59 C67 1.258 . S
O60 Co35 1.941 . S
O60 C67 1.266 . S
H61 C63 0.959 . S
H62 C63 0.961 . S
C63 C53 1.510 . S
C63 H61 0.959 . S
C63 H62 0.961 . S
C63 H64 0.960 . S
H64 C63 0.960 . S
H65 N45 0.862 . S
O66 Co34 1.920 . S
O66 C39 1.289 . S
C67 O59 1.258 . S
C67 O60 1.266 . S
Co68 O71 1.970 . S
Co68 N85 1.989 . S
Co68 O93 1.967 . S
Co68 O100 1.920 . S
Co69 O72 1.966 . S
Co69 N78 2.022 . S
Co69 N86 1.993 . S
Co69 O94 1.941 . S
C70 O71 1.258 . S
C70 O72 1.263 . S
O71 Co68 1.970 . S
O71 C70 1.258 . S
O72 Co69 1.966 . S
O72 C70 1.263 . S
C73 O74 1.235 . S
C73 O100 1.289 . S
O74 C73 1.235 . S
C75 C77 1.400 1_655 S
C75 N78 1.351 . S
C75 C80 1.501 . S
C76 C77 1.387 . S
C76 N79 1.341 . S
C77 C75 1.400 1_455 S
C77 C76 1.387 . S
N78 Co69 2.022 . S
N78 C75 1.351 . S
N78 N79 1.365 1_655 S
N79 C76 1.341 . S
N79 N78 1.365 1_455 S
N79 H99 0.862 . S
C80 C75 1.501 . S
C80 H81 0.961 . S
C80 H82 0.961 . S
C80 H83 0.960 . S
H81 C80 0.961 . S
H82 C80 0.961 . S
H83 C80 0.960 . S
C84 N85 1.342 . S
C84 C88 1.401 . S
C84 C89 1.499 . S
N85 Co68 1.989 . S
N85 C84 1.342 . S
N85 N86 1.388 . S
N86 Co69 1.993 . S
N86 N85 1.388 . S
N86 C87 1.346 . S
C87 N86 1.346 . S
C87 C88 1.396 . S
C87 C97 1.510 1_655 S
C88 C84 1.401 . S
C88 C87 1.396 . S
C89 C84 1.499 . S
C89 H90 0.959 . S
C89 H91 0.960 . S
C89 H92 0.961 . S
H90 C89 0.959 . S
H91 C89 0.960 . S
H92 C89 0.961 . S
O93 Co68 1.967 . S
O93 C101 1.258 . S
O94 Co69 1.941 . S
O94 C101 1.266 . S
H95 C97 0.959 . S
H96 C97 0.961 . S
C97 C87 1.510 1_455 S
C97 H95 0.959 . S
C97 H96 0.961 . S
C97 H98 0.960 . S
H98 C97 0.960 . S
H99 N79 0.862 . S
O100 Co68 1.920 . S
O100 C73 1.289 . S
C101 O93 1.258 . S
C101 O94 1.266 . S
Co102 O105 1.970 . S
Co102 N119 1.989 . S
Co102 O127 1.967 . S
Co102 O134 1.920 . S
Co103 O106 1.966 . S
Co103 N112 2.022 . S
Co103 N120 1.993 . S
Co103 O128 1.941 . S
C104 O105 1.258 . S
C104 O106 1.263 . S
O105 Co102 1.970 . S
O105 C104 1.258 . S
O106 Co103 1.966 . S
O106 C104 1.263 . S
C107 O108 1.235 . S
C107 O134 1.289 . S
O108 C107 1.235 . S
C109 C111 1.400 1_565 S
C109 N112 1.351 . S
C109 C114 1.501 . S
C110 C111 1.387 . S
C110 N113 1.341 . S
C111 C109 1.400 1_545 S
C111 C110 1.387 . S
N112 Co103 2.022 . S
N112 C109 1.351 . S
N112 N113 1.365 1_565 S
N113 C110 1.341 . S
N113 N112 1.365 1_545 S
N113 H133 0.862 . S
C114 C109 1.501 . S
C114 H115 0.961 . S
C114 H116 0.961 . S
C114 H117 0.960 . S
H115 C114 0.961 . S
H116 C114 0.961 . S
H117 C114 0.960 . S
C118 N119 1.342 . S
C118 C122 1.401 . S
C118 C123 1.499 . S
N119 Co102 1.989 . S
N119 C118 1.342 . S
N119 N120 1.388 . S
N120 Co103 1.993 . S
N120 N119 1.388 . S
N120 C121 1.346 . S
C121 N120 1.346 . S
C121 C122 1.396 . S
C121 C131 1.510 1_565 S
C122 C118 1.401 . S
C122 C121 1.396 . S
C123 C118 1.499 . S
C123 H124 0.959 . S
C123 H125 0.960 . S
C123 H126 0.961 . S
H124 C123 0.959 . S
H125 C123 0.960 . S
H126 C123 0.961 . S
O127 Co102 1.967 . S
O127 C135 1.258 . S
O128 Co103 1.941 . S
O128 C135 1.266 . S
H129 C131 0.959 . S
H130 C131 0.961 . S
C131 C121 1.510 1_545 S
C131 H129 0.959 . S
C131 H130 0.961 . S
C131 H132 0.960 . S
H132 C131 0.960 . S
H133 N113 0.862 . S
O134 Co102 1.920 . S
O134 C107 1.289 . S
C135 O127 1.258 . S
C135 O128 1.266 . S
Co136 O139 1.970 . S
Co136 N153 1.989 . S
Co136 O161 1.967 . S
Co136 O168 1.920 . S
Co137 O140 1.966 . S
Co137 N146 2.022 . S
Co137 N154 1.996 . S
Co137 O162 1.941 1_556 S
C138 O139 1.258 1_556 S
C138 O140 1.263 . S
O139 Co136 1.970 . S
O139 C138 1.258 1_554 S
O140 Co137 1.966 . S
O140 C138 1.263 . S
C141 O142 1.235 . S
C141 O168 1.289 . S
O142 C141 1.235 . S
C143 C145 1.400 . S
C143 N146 1.351 . S
C143 C148 1.501 . S
C144 C145 1.387 . S
C144 N147 1.341 . S
C145 C143 1.400 . S
C145 C144 1.387 . S
N146 Co137 2.022 . S
N146 C143 1.351 . S
N146 N147 1.365 . S
N147 C144 1.341 . S
N147 N146 1.365 . S
N147 H167 0.862 . S
C148 C143 1.501 . S
C148 H149 0.961 . S
C148 H150 0.961 . S
C148 H151 0.960 . S
H149 C148 0.961 . S
H150 C148 0.961 . S
H151 C148 0.960 . S
C152 N153 1.342 . S
C152 C156 1.401 . S
C152 C157 1.499 . S
N153 Co136 1.989 . S
N153 C152 1.342 . S
N153 N154 1.375 1_554 S
N154 Co137 1.996 . S
N154 N153 1.375 1_556 S
N154 C155 1.351 . S
C155 N154 1.351 . S
C155 C156 1.396 1_556 S
C155 C165 1.510 . S
C156 C152 1.401 . S
C156 C155 1.396 1_554 S
C157 C152 1.499 . S
C157 H158 0.959 . S
C157 H159 0.960 . S
C157 H160 0.961 . S
H158 C157 0.959 . S
H159 C157 0.960 . S
H160 C157 0.961 . S
O161 Co136 1.967 . S
O161 C169 1.258 . S
O162 Co137 1.941 1_554 S
O162 C169 1.266 . S
H163 C165 0.959 . S
H164 C165 0.961 . S
C165 C155 1.510 . S
C165 H163 0.959 . S
C165 H164 0.961 . S
C165 H166 0.960 . S
H166 C165 0.960 . S
H167 N147 0.862 . S
O168 Co136 1.920 . S
O168 C141 1.289 . S
C169 O161 1.258 . S
C169 O162 1.266 . S
Co170 O173 1.970 . S
Co170 N187 1.989 . S
Co170 O195 1.967 . S
Co170 O202 1.920 . S
Co171 O174 1.966 . S
Co171 N180 2.022 . S
Co171 N188 1.993 . S
Co171 O196 1.941 . S
C172 O173 1.258 . S
C172 O174 1.263 . S
O173 Co170 1.970 . S
O173 C172 1.258 . S
O174 Co171 1.966 . S
O174 C172 1.263 . S
C175 O176 1.235 . S
C175 O202 1.289 . S
O176 C175 1.235 . S
C177 C179 1.400 1_455 S
C177 N180 1.351 . S
C177 C182 1.501 . S
C178 C179 1.387 . S
C178 N181 1.341 . S
C179 C177 1.400 1_655 S
C179 C178 1.387 . S
N180 Co171 2.022 . S
N180 C177 1.351 . S
N180 N181 1.365 1_455 S
N181 C178 1.341 . S
N181 N180 1.365 1_655 S
N181 H201 0.862 . S
C182 C177 1.501 . S
C182 H183 0.961 . S
C182 H184 0.961 . S
C182 H185 0.960 . S
H183 C182 0.961 . S
H184 C182 0.961 . S
H185 C182 0.960 . S
C186 N187 1.342 . S
C186 C190 1.401 . S
C186 C191 1.499 . S
N187 Co170 1.989 . S
N187 C186 1.342 . S
N187 N188 1.388 . S
N188 Co171 1.993 . S
N188 N187 1.388 . S
N188 C189 1.346 . S
C189 N188 1.346 . S
C189 C190 1.396 . S
C189 C199 1.510 1_455 S
C190 C186 1.401 . S
C190 C189 1.396 . S
C191 C186 1.499 . S
C191 H192 0.959 . S
C191 H193 0.960 . S
C191 H194 0.961 . S
H192 C191 0.959 . S
H193 C191 0.960 . S
H194 C191 0.961 . S
O195 Co170 1.967 . S
O195 C203 1.258 . S
O196 Co171 1.941 . S
O196 C203 1.266 . S
H197 C199 0.959 . S
H198 C199 0.961 . S
C199 C189 1.510 1_655 S
C199 H197 0.959 . S
C199 H198 0.961 . S
C199 H200 0.960 . S
H200 C199 0.960 . S
H201 N181 0.862 . S
O202 Co170 1.920 . S
O202 C175 1.289 . S
C203 O195 1.258 . S
C203 O196 1.266 . S
Co204 O207 1.970 . S
Co204 N221 1.989 . S
Co204 O229 1.967 . S
Co204 O236 1.920 . S
Co205 O208 1.966 . S
Co205 N214 2.022 . S
Co205 N222 1.993 . S
Co205 O230 1.941 . S
C206 O207 1.258 . S
C206 O208 1.263 . S
O207 Co204 1.970 . S
O207 C206 1.258 . S
O208 Co205 1.966 . S
O208 C206 1.263 . S
C209 O210 1.235 . S
C209 O236 1.289 . S
O210 C209 1.235 . S
C211 C213 1.400 1_655 S
C211 N214 1.351 . S
C211 C216 1.501 . S
C212 C213 1.387 . S
C212 N215 1.341 . S
C213 C211 1.400 1_455 S
C213 C212 1.387 . S
N214 Co205 2.022 . S
N214 C211 1.351 . S
N214 N215 1.365 1_655 S
N215 C212 1.341 . S
N215 N214 1.365 1_455 S
N215 H235 0.862 . S
C216 C211 1.501 . S
C216 H217 0.961 . S
C216 H218 0.961 . S
C216 H219 0.960 . S
H217 C216 0.961 . S
H218 C216 0.961 . S
H219 C216 0.960 . S
C220 N221 1.342 . S
C220 C224 1.401 . S
C220 C225 1.499 . S
N221 Co204 1.989 . S
N221 C220 1.342 . S
N221 N222 1.388 . S
N222 Co205 1.993 . S
N222 N221 1.388 . S
N222 C223 1.346 . S
C223 N222 1.346 . S
C223 C224 1.396 . S
C223 C233 1.510 1_655 S
C224 C220 1.401 . S
C224 C223 1.396 . S
C225 C220 1.499 . S
C225 H226 0.959 . S
C225 H227 0.960 . S
C225 H228 0.961 . S
H226 C225 0.959 . S
H227 C225 0.960 . S
H228 C225 0.961 . S
O229 Co204 1.967 . S
O229 C237 1.258 . S
O230 Co205 1.941 . S
O230 C237 1.266 . S
H231 C233 0.959 . S
H232 C233 0.961 . S
C233 C223 1.510 1_455 S
C233 H231 0.959 . S
C233 H232 0.961 . S
C233 H234 0.960 . S
H234 C233 0.960 . S
H235 N215 0.862 . S
O236 Co204 1.920 . S
O236 C209 1.289 . S
C237 O229 1.258 . S
C237 O230 1.266 . S
Co238 O241 1.970 . S
Co238 N255 1.989 . S
Co238 O263 1.967 . S
Co238 O270 1.920 . S
Co239 O242 1.966 . S
Co239 N248 2.022 . S
Co239 N256 1.993 . S
Co239 O264 1.941 . S
C240 O241 1.258 . S
C240 O242 1.263 . S
O241 Co238 1.970 . S
O241 C240 1.258 . S
O242 Co239 1.966 . S
O242 C240 1.263 . S
C243 O244 1.235 . S
C243 O270 1.289 . S
O244 C243 1.235 . S
C245 C247 1.400 1_565 S
C245 N248 1.351 . S
C245 C250 1.501 . S
C246 C247 1.387 . S
C246 N249 1.341 . S
C247 C245 1.400 1_545 S
C247 C246 1.387 . S
N248 Co239 2.022 . S
N248 C245 1.351 . S
N248 N249 1.365 1_565 S
N249 C246 1.341 . S
N249 N248 1.365 1_545 S
N249 H269 0.862 . S
C250 C245 1.501 . S
C250 H251 0.961 . S
C250 H252 0.961 . S
C250 H253 0.960 . S
H251 C250 0.961 . S
H252 C250 0.961 . S
H253 C250 0.960 . S
C254 N255 1.342 . S
C254 C258 1.401 . S
C254 C259 1.499 . S
N255 Co238 1.989 . S
N255 C254 1.342 . S
N255 N256 1.388 . S
N256 Co239 1.993 . S
N256 N255 1.388 . S
N256 C257 1.346 . S
C257 N256 1.346 . S
C257 C258 1.396 . S
C257 C267 1.510 1_565 S
C258 C254 1.401 . S
C258 C257 1.396 . S
C259 C254 1.499 . S
C259 H260 0.959 . S
C259 H261 0.960 . S
C259 H262 0.961 . S
H260 C259 0.959 . S
H261 C259 0.960 . S
H262 C259 0.961 . S
O263 Co238 1.967 . S
O263 C271 1.258 . S
O264 Co239 1.941 . S
O264 C271 1.266 . S
H265 C267 0.959 . S
H266 C267 0.961 . S
C267 C257 1.510 1_545 S
C267 H265 0.959 . S
C267 H266 0.961 . S
C267 H268 0.960 . S
H268 C267 0.960 . S
H269 N249 0.862 . S
O270 Co238 1.920 . S
O270 C243 1.289 . S
C271 O263 1.258 . S
C271 O264 1.266 . S
Co272 O275 1.970 . S
Co272 N289 1.989 . S
Co272 O297 1.967 . S
Co272 O304 1.920 . S
Co273 O276 1.966 . S
Co273 N282 2.022 . S
Co273 N290 1.993 . S
Co273 O298 1.941 . S
C274 O275 1.258 . S
C274 O276 1.263 . S
O275 Co272 1.970 . S
O275 C274 1.258 . S
O276 Co273 1.966 . S
O276 C274 1.263 . S
C277 O278 1.235 . S
C277 O304 1.289 . S
O278 C277 1.235 . S
C279 C281 1.400 . S
C279 N282 1.351 . S
C279 C284 1.501 . S
C280 C281 1.387 . S
C280 N283 1.341 . S
C281 C279 1.400 . S
C281 C280 1.387 . S
N282 Co273 2.022 . S
N282 C279 1.351 . S
N282 N283 1.365 . S
N283 C280 1.341 . S
N283 N282 1.365 . S
N283 H303 0.862 . S
C284 C279 1.501 . S
C284 H285 0.961 . S
C284 H286 0.961 . S
C284 H287 0.960 . S
H285 C284 0.961 . S
H286 C284 0.961 . S
H287 C284 0.960 . S
C288 N289 1.342 . S
C288 C292 1.401 . S
C288 C293 1.499 . S
N289 Co272 1.989 . S
N289 C288 1.342 . S
N289 N290 1.388 . S
N290 Co273 1.993 . S
N290 N289 1.388 . S
N290 C291 1.346 . S
C291 N290 1.346 . S
C291 C292 1.396 . S
C291 C301 1.510 . S
C292 C288 1.401 . S
C292 C291 1.396 . S
C293 C288 1.499 . S
C293 H294 0.959 . S
C293 H295 0.960 . S
C293 H296 0.961 . S
H294 C293 0.959 . S
H295 C293 0.960 . S
H296 C293 0.961 . S
O297 Co272 1.967 . S
O297 C305 1.258 . S
O298 Co273 1.941 . S
O298 C305 1.266 . S
H299 C301 0.959 . S
H300 C301 0.961 . S
C301 C291 1.510 . S
C301 H299 0.959 . S
C301 H300 0.961 . S
C301 H302 0.960 . S
H302 C301 0.960 . S
H303 N283 0.862 . S
O304 Co272 1.920 . S
O304 C277 1.289 . S
C305 O297 1.258 . S
C305 O298 1.266 . S
Co306 O309 1.970 . S
Co306 N323 1.989 . S
Co306 O331 1.967 . S
Co306 O338 1.920 . S
Co307 O310 1.966 . S
Co307 N316 2.022 1_556 S
Co307 N324 1.993 . S
Co307 O332 1.941 . S
C308 O309 1.258 . S
C308 O310 1.263 . S
O309 Co306 1.970 . S
O309 C308 1.258 . S
O310 Co307 1.966 . S
O310 C308 1.263 . S
C311 O312 1.235 . S
C311 O338 1.289 . S
O312 C311 1.235 . S
C313 C315 1.400 1_455 S
C313 N316 1.351 . S
C313 C318 1.501 . S
C314 C315 1.387 . S
C314 N317 1.341 . S
C315 C313 1.400 1_655 S
C315 C314 1.387 . S
N316 Co307 2.022 1_554 S
N316 C313 1.351 . S
N316 N317 1.365 1_455 S
N317 C314 1.341 . S
N317 N316 1.365 1_655 S
N317 H337 0.862 1_554 S
C318 C313 1.501 . S
C318 H319 0.961 . S
C318 H320 0.961 . S
C318 H321 0.960 . S
H319 C318 0.961 . S
H320 C318 0.961 . S
H321 C318 0.960 . S
C322 N323 1.342 . S
C322 C326 1.401 . S
C322 C327 1.499 . S
N323 Co306 1.989 . S
N323 C322 1.342 . S
N323 N324 1.388 . S
N324 Co307 1.993 . S
N324 N323 1.388 . S
N324 C325 1.346 . S
C325 N324 1.346 . S
C325 C326 1.396 . S
C325 C335 1.510 1_456 S
C326 C322 1.401 . S
C326 C325 1.396 . S
C327 C322 1.499 . S
C327 H328 0.959 . S
C327 H329 0.960 . S
C327 H330 0.961 . S
H328 C327 0.959 . S
H329 C327 0.960 . S
H330 C327 0.961 . S
O331 Co306 1.967 . S
O331 C339 1.258 . S
O332 Co307 1.941 . S
O332 C339 1.266 . S
H333 C335 0.959 1_556 S
H334 C335 0.961 . S
C335 C325 1.510 1_654 S
C335 H333 0.959 1_554 S
C335 H334 0.961 . S
C335 H336 0.960 . S
H336 C335 0.960 . S
H337 N317 0.862 1_556 S
O338 Co306 1.920 . S
O338 C311 1.289 . S
C339 O331 1.258 . S
C339 O332 1.266 . S
Co340 O343 1.970 . S
Co340 N357 1.989 . S
Co340 O365 1.967 . S
Co340 O372 1.920 . S
Co341 O344 1.966 . S
Co341 N350 2.022 . S
Co341 N358 1.993 . S
Co341 O366 1.941 . S
C342 O343 1.258 . S
C342 O344 1.263 . S
O343 Co340 1.970 . S
O343 C342 1.258 . S
O344 Co341 1.966 . S
O344 C342 1.263 . S
C345 O346 1.235 . S
C345 O372 1.289 . S
O346 C345 1.235 . S
C347 C349 1.400 1_545 S
C347 N350 1.351 . S
C347 C352 1.501 . S
C348 C349 1.387 . S
C348 N351 1.341 . S
C349 C347 1.400 1_565 S
C349 C348 1.387 . S
N350 Co341 2.022 . S
N350 C347 1.351 . S
N350 N351 1.365 1_545 S
N351 C348 1.341 . S
N351 N350 1.365 1_565 S
N351 H371 0.862 . S
C352 C347 1.501 . S
C352 H353 0.961 . S
C352 H354 0.961 . S
C352 H355 0.960 . S
H353 C352 0.961 . S
H354 C352 0.961 . S
H355 C352 0.960 . S
C356 N357 1.342 . S
C356 C360 1.401 . S
C356 C361 1.499 . S
N357 Co340 1.989 . S
N357 C356 1.342 . S
N357 N358 1.388 . S
N358 Co341 1.993 . S
N358 N357 1.388 . S
N358 C359 1.346 . S
C359 N358 1.346 . S
C359 C360 1.396 . S
C359 C369 1.510 1_545 S
C360 C356 1.401 . S
C360 C359 1.396 . S
C361 C356 1.499 . S
C361 H362 0.959 . S
C361 H363 0.960 . S
C361 H364 0.961 . S
H362 C361 0.959 . S
H363 C361 0.960 . S
H364 C361 0.961 . S
O365 Co340 1.967 . S
O365 C373 1.258 . S
O366 Co341 1.941 . S
O366 C373 1.266 . S
H367 C369 0.959 . S
H368 C369 0.961 . S
C369 C359 1.510 1_565 S
C369 H367 0.959 . S
C369 H368 0.961 . S
C369 H370 0.960 . S
H370 C369 0.960 . S
H371 N351 0.862 . S
O372 Co340 1.920 . S
O372 C345 1.289 . S
C373 O365 1.258 . S
C373 O366 1.266 . S
Co374 O377 1.970 . S
Co374 N391 1.989 . S
Co374 O399 1.967 . S
Co374 O406 1.920 . S
Co375 O378 1.966 . S
Co375 N384 2.022 . S
Co375 N392 1.993 . S
Co375 O400 1.941 . S
C376 O377 1.258 . S
C376 O378 1.263 . S
O377 Co374 1.970 . S
O377 C376 1.258 . S
O378 Co375 1.966 . S
O378 C376 1.263 . S
C379 O380 1.235 . S
C379 O406 1.289 . S
O380 C379 1.235 . S
C381 C383 1.400 . S
C381 N384 1.351 . S
C381 C386 1.501 . S
C382 C383 1.387 . S
C382 N385 1.341 . S
C383 C381 1.400 . S
C383 C382 1.387 . S
N384 Co375 2.022 . S
N384 C381 1.351 . S
N384 N385 1.365 . S
N385 C382 1.341 . S
N385 N384 1.365 . S
N385 H405 0.862 . S
C386 C381 1.501 . S
C386 H387 0.961 . S
C386 H388 0.961 . S
C386 H389 0.960 . S
H387 C386 0.961 . S
H388 C386 0.961 . S
H389 C386 0.960 . S
C390 N391 1.342 . S
C390 C394 1.401 . S
C390 C395 1.499 . S
N391 Co374 1.989 . S
N391 C390 1.342 . S
N391 N392 1.388 . S
N392 Co375 1.993 . S
N392 N391 1.388 . S
N392 C393 1.346 . S
C393 N392 1.346 . S
C393 C394 1.396 . S
C393 C403 1.510 . S
C394 C390 1.401 . S
C394 C393 1.396 . S
C395 C390 1.499 . S
C395 H396 0.959 . S
C395 H397 0.960 . S
C395 H398 0.961 . S
H396 C395 0.959 . S
H397 C395 0.960 . S
H398 C395 0.961 . S
O399 Co374 1.967 . S
O399 C407 1.258 . S
O400 Co375 1.941 . S
O400 C407 1.266 . S
H401 C403 0.959 . S
H402 C403 0.961 . S
C403 C393 1.510 . S
C403 H401 0.959 . S
C403 H402 0.961 . S
C403 H404 0.960 . S
H404 C403 0.960 . S
H405 N385 0.862 . S
O406 Co374 1.920 . S
O406 C379 1.289 . S
C407 O399 1.258 . S
C407 O400 1.266 . S
C408 C409 1.387 . S
C408 H412 0.950 . S
C408 C417 1.390 . S
C409 C408 1.387 . S
C409 C411 1.387 . S
H410 C417 0.950 . S
C411 C409 1.387 . S
C411 C413 1.390 . S
C411 H415 0.949 . S
H412 C408 0.950 . S
C413 C411 1.390 . S
C413 C414 1.387 . S
C413 H416 0.950 . S
C414 C413 1.387 . S
C414 C417 1.387 . S
H415 C411 0.949 . S
H416 C413 0.950 . S
C417 C408 1.390 . S
C417 H410 0.950 . S
C417 C414 1.387 . S
C418 C419 1.387 . S
C418 H422 0.950 . S
C418 C427 1.390 . S
C419 C418 1.387 . S
C419 C421 1.387 . S
H420 C427 0.950 . S
C421 C419 1.387 . S
C421 C423 1.390 . S
C421 H425 0.950 . S
H422 C418 0.950 . S
C423 C421 1.390 . S
C423 C424 1.387 . S
C423 H426 0.950 . S
C424 C423 1.387 . S
C424 C427 1.387 . S
H425 C421 0.950 . S
H426 C423 0.950 . S
C427 C418 1.390 . S
C427 H420 0.950 . S
C427 C424 1.387 . S
C428 C429 1.387 . S
C428 H432 0.950 . S
C428 C437 1.390 . S
C429 C428 1.387 . S
C429 C431 1.387 . S
H430 C437 0.950 1_655 S
C431 C429 1.387 . S
C431 C433 1.390 . S
C431 H435 0.950 . S
H432 C428 0.950 . S
C433 C431 1.390 . S
C433 C434 1.387 . S
C433 H436 0.950 . S
C434 C433 1.387 . S
C434 C437 1.387 . S
H435 C431 0.950 . S
H436 C433 0.950 . S
C437 C428 1.390 . S
C437 H430 0.950 1_455 S
C437 C434 1.387 . S
C438 C439 1.387 . S
C438 H442 0.950 . S
C438 C447 1.390 . S
C439 C438 1.387 . S
C439 C441 1.387 . S
H440 C447 0.950 . S
C441 C439 1.387 . S
C441 C443 1.390 . S
C441 H445 0.950 . S
H442 C438 0.950 . S
C443 C441 1.390 . S
C443 C444 1.387 . S
C443 H446 0.950 1_545 S
C444 C443 1.387 . S
C444 C447 1.387 . S
H445 C441 0.950 . S
H446 C443 0.950 1_565 S
C447 C438 1.390 . S
C447 H440 0.950 . S
C447 C444 1.387 . S
C448 C449 1.387 . S
C448 H452 0.950 . S
C448 C457 1.390 . S
C449 C448 1.387 . S
C449 C451 1.387 1_554 S
H450 C457 0.950 . S
C451 C449 1.387 1_556 S
C451 C453 1.390 . S
C451 H455 0.950 . S
H452 C448 0.950 . S
C453 C451 1.390 . S
C453 C454 1.387 . S
C453 H456 0.950 . S
C454 C453 1.387 . S
C454 C457 1.387 1_556 S
H455 C451 0.950 . S
H456 C453 0.950 . S
C457 C448 1.390 . S
C457 H450 0.950 . S
C457 C454 1.387 1_554 S
C458 C459 1.387 . S
C458 H462 0.950 . S
C458 C467 1.390 . S
C459 C458 1.387 . S
C459 C461 1.387 . S
H460 C467 0.950 . S
C461 C459 1.387 . S
C461 C463 1.390 . S
C461 H465 0.950 . S
H462 C458 0.950 . S
C463 C461 1.390 . S
C463 C464 1.387 . S
C463 H466 0.950 . S
C464 C463 1.387 . S
C464 C467 1.387 . S
H465 C461 0.950 . S
H466 C463 0.950 . S
C467 C458 1.390 . S
C467 H460 0.950 . S
C467 C464 1.387 . S
C468 C469 1.382 1_655 S
C468 H472 0.951 . S
C468 C477 1.394 . S
C469 C468 1.382 1_455 S
C469 C471 1.387 . S
H470 C477 0.950 . S
C471 C469 1.387 . S
C471 C473 1.390 . S
C471 H475 0.950 . S
H472 C468 0.951 . S
C473 C471 1.390 . S
C473 C474 1.387 . S
C473 H476 0.950 . S
C474 C473 1.387 . S
C474 C477 1.387 1_455 S
H475 C471 0.950 . S
H476 C473 0.950 . S
C477 C468 1.394 . S
C477 H470 0.950 . S
C477 C474 1.387 1_655 S
C478 C479 1.387 1_565 S
C478 H482 0.950 . S
C478 C487 1.390 1_565 S
C479 C478 1.387 1_545 S
C479 C481 1.387 . S
H480 C487 0.950 1_565 S
C481 C479 1.387 . S
C481 C483 1.390 . S
C481 H485 0.950 . S
H482 C478 0.950 . S
C483 C481 1.390 . S
C483 C484 1.387 . S
C483 H486 0.950 . S
C484 C483 1.387 . S
C484 C487 1.387 . S
H485 C481 0.950 . S
H486 C483 0.950 . S
C487 C478 1.390 1_545 S
C487 H480 0.950 1_545 S
C487 C484 1.387 . S
C488 C489 1.387 . S
C488 H492 0.950 . S
C488 C497 1.390 . S
C489 C488 1.387 . S
C489 C491 1.387 . S
H490 C497 0.950 . S
C491 C489 1.387 . S
C491 C493 1.390 . S
C491 H495 0.950 . S
H492 C488 0.950 . S
C493 C491 1.390 . S
C493 C494 1.387 . S
C493 H496 0.950 . S
C494 C493 1.387 . S
C494 C497 1.387 . S
H495 C491 0.950 . S
H496 C493 0.950 . S
C497 C488 1.390 . S
C497 H490 0.950 . S
C497 C494 1.387 . S
C498 C499 1.387 . S
C498 H502 0.950 . S
C498 C507 1.390 . S
C499 C498 1.387 . S
C499 C501 1.387 . S
H500 C507 0.950 . S
C501 C499 1.387 . S
C501 C503 1.385 1_556 S
C501 H505 0.950 1_556 S
H502 C498 0.950 . S
C503 C501 1.385 1_554 S
C503 C504 1.368 1_554 S
C503 H506 0.975 . S
C504 C503 1.368 1_556 S
C504 C507 1.387 . S
H505 C501 0.950 1_554 S
H506 C503 0.975 . S
C507 C498 1.390 . S
C507 H500 0.950 . S
C507 C504 1.387 . S
C508 C509 1.387 . S
C508 H512 0.950 . S
C508 C517 1.390 . S
C509 C508 1.387 . S
C509 C511 1.387 1_565 S
H510 C517 0.950 . S
C511 C509 1.387 1_545 S
C511 C513 1.390 1_545 S
C511 H515 0.950 . S
H512 C508 0.950 . S
C513 C511 1.390 1_565 S
C513 C514 1.387 . S
C513 H516 0.950 1_565 S
C514 C513 1.387 . S
C514 C517 1.387 . S
H515 C511 0.950 . S
H516 C513 0.950 1_545 S
C517 C508 1.390 . S
C517 H510 0.950 . S
C517 C514 1.387 . S
C518 C519 1.387 . S
C518 H522 0.950 . S
C518 C527 1.390 . S
C519 C518 1.387 . S
C519 C521 1.387 . S
H520 C527 0.950 . S
C521 C519 1.387 . S
C521 C523 1.390 . S
C521 H525 0.950 . S
H522 C518 0.950 . S
C523 C521 1.390 . S
C523 C524 1.387 . S
C523 H526 0.950 . S
C524 C523 1.387 . S
C524 C527 1.387 . S
H525 C521 0.950 . S
H526 C523 0.950 . S
C527 C518 1.390 . S
C527 H520 0.950 . S
C527 C524 1.387 . S
C528 C529 1.387 . S
C528 H532 0.950 . S
C528 C537 1.390 . S
C529 C528 1.387 . S
C529 C531 1.387 . S
H530 C537 0.950 . S
C531 C529 1.387 . S
C531 C533 1.390 . S
C531 H535 0.950 . S
H532 C528 0.950 . S
C533 C531 1.390 . S
C533 C534 1.387 . S
C533 H536 0.950 . S
C534 C533 1.387 . S
C534 C537 1.387 . S
H535 C531 0.950 . S
H536 C533 0.950 . S
C537 C528 1.390 . S
C537 H530 0.950 . S
C537 C534 1.387 . S
C538 C539 1.387 . S
C538 H542 0.950 . S
C538 C547 1.390 . S
C539 C538 1.387 . S
C539 C541 1.387 . S
H540 C547 0.950 . S
C541 C539 1.387 . S
C541 C543 1.390 . S
C541 H545 0.950 . S
H542 C538 0.950 . S
C543 C541 1.390 . S
C543 C544 1.387 . S
C543 H546 0.950 . S
C544 C543 1.387 . S
C544 C547 1.387 . S
H545 C541 0.950 . S
H546 C543 0.950 . S
C547 C538 1.390 . S
C547 H540 0.950 . S
C547 C544 1.387 . S
C548 C549 1.387 . S
C548 H552 0.950 . S
C548 C557 1.390 . S
C549 C548 1.387 . S
C549 C551 1.387 . S
H550 C557 0.950 . S
C551 C549 1.387 . S
C551 C553 1.390 . S
C551 H555 0.950 . S
H552 C548 0.950 . S
C553 C551 1.390 . S
C553 C554 1.387 . S
C553 H556 0.950 . S
C554 C553 1.387 . S
C554 C557 1.387 . S
H555 C551 0.950 . S
H556 C553 0.950 . S
C557 C548 1.390 . S
C557 H550 0.950 . S
C557 C554 1.387 . S
C558 C559 1.387 . S
C558 H562 0.950 . S
C558 C567 1.390 . S
C559 C558 1.387 . S
C559 C561 1.387 . S
H560 C567 0.950 . S
C561 C559 1.387 . S
C561 C563 1.390 . S
C561 H565 0.950 . S
H562 C558 0.950 . S
C563 C561 1.390 . S
C563 C564 1.387 . S
C563 H566 0.950 . S
C564 C563 1.387 . S
C564 C567 1.387 . S
H565 C561 0.950 . S
H566 C563 0.950 . S
C567 C558 1.390 . S
C567 H560 0.950 . S
C567 C564 1.387 . S
C568 C569 1.387 . S
C568 H572 0.950 . S
C568 C577 1.390 . S
C569 C568 1.387 . S
C569 C571 1.387 . S
H570 C577 0.950 . S
C571 C569 1.387 . S
C571 C573 1.390 . S
C571 H575 0.950 . S
H572 C568 0.950 . S
C573 C571 1.390 . S
C573 C574 1.387 . S
C573 H576 0.950 . S
C574 C573 1.387 . S
C574 C577 1.387 . S
H575 C571 0.950 . S
H576 C573 0.950 . S
C577 C568 1.390 . S
C577 H570 0.950 . S
C577 C574 1.387 . S
C578 C579 1.387 . S
C578 H582 0.950 . S
C578 C587 1.390 . S
C579 C578 1.387 . S
C579 C581 1.387 . S
H580 C587 0.950 . S
C581 C579 1.387 . S
C581 C583 1.390 . S
C581 H585 0.950 . S
H582 C578 0.950 . S
C583 C581 1.390 . S
C583 C584 1.387 . S
C583 H586 0.950 . S
C584 C583 1.387 . S
C584 C587 1.387 . S
H585 C581 0.950 . S
H586 C583 0.950 . S
C587 C578 1.390 . S
C587 H580 0.950 . S
C587 C584 1.387 . S
C588 C589 1.387 . S
C588 H592 0.950 . S
C588 C597 1.390 . S
C589 C588 1.387 . S
C589 C591 1.387 . S
H590 C597 0.950 . S
C591 C589 1.387 . S
C591 C593 1.390 . S
C591 H595 0.950 . S
H592 C588 0.950 . S
C593 C591 1.390 . S
C593 C594 1.387 . S
C593 H596 0.950 . S
C594 C593 1.387 . S
C594 C597 1.387 . S
H595 C591 0.950 . S
H596 C593 0.950 . S
C597 C588 1.390 . S
C597 H590 0.950 . S
C597 C594 1.387 . S
C598 C599 1.387 . S
C598 H602 0.950 . S
C598 C607 1.390 . S
C599 C598 1.387 . S
C599 C601 1.387 . S
H600 C607 0.950 . S
C601 C599 1.387 . S
C601 C603 1.390 . S
C601 H605 0.950 . S
H602 C598 0.950 . S
C603 C601 1.390 . S
C603 C604 1.387 . S
C603 H606 0.950 . S
C604 C603 1.387 . S
C604 C607 1.387 . S
H605 C601 0.950 . S
H606 C603 0.950 . S
C607 C598 1.390 . S
C607 H600 0.950 . S
C607 C604 1.387 . S
C608 C609 1.387 . S
C608 H612 0.950 . S
C608 C617 1.390 . S
C609 C608 1.387 . S
C609 C611 1.387 . S
H610 C617 0.950 . S
C611 C609 1.387 . S
C611 C613 1.390 . S
C611 H615 0.950 . S
H612 C608 0.950 . S
C613 C611 1.390 . S
C613 C614 1.387 . S
C613 H616 0.950 . S
C614 C613 1.387 . S
C614 C617 1.387 . S
H615 C611 0.950 . S
H616 C613 0.950 . S
C617 C608 1.390 . S
C617 H610 0.950 . S
C617 C614 1.387 . S
C618 C619 1.387 . S
C618 H622 0.950 . S
C618 C627 1.390 . S
C619 C618 1.387 . S
C619 C621 1.387 . S
H620 C627 0.950 . S
C621 C619 1.387 . S
C621 C623 1.390 . S
C621 H625 0.950 . S
H622 C618 0.950 . S
C623 C621 1.390 . S
C623 C624 1.387 . S
C623 H626 0.950 . S
C624 C623 1.387 . S
C624 C627 1.387 . S
H625 C621 0.950 . S
H626 C623 0.950 . S
C627 C618 1.390 . S
C627 H620 0.950 . S
C627 C624 1.387 . S
C628 C629 1.387 . S
C628 H632 0.950 . S
C628 C637 1.390 . S
C629 C628 1.387 . S
C629 C631 1.387 . S
H630 C637 0.950 . S
C631 C629 1.387 . S
C631 C633 1.390 . S
C631 H635 0.950 . S
H632 C628 0.950 . S
C633 C631 1.390 . S
C633 C634 1.387 . S
C633 H636 0.950 . S
C634 C633 1.387 . S
C634 C637 1.387 . S
H635 C631 0.950 . S
H636 C633 0.950 . S
C637 C628 1.390 . S
C637 H630 0.950 . S
C637 C634 1.387 . S
C638 C639 1.387 . S
C638 H642 0.950 . S
C638 C647 1.390 . S
C639 C638 1.387 . S
C639 C641 1.387 1_655 S
H640 C647 0.950 . S
C641 C639 1.387 1_455 S
C641 C643 1.390 1_455 S
C641 H645 0.950 . S
H642 C638 0.950 . S
C643 C641 1.390 1_655 S
C643 C644 1.387 . S
C643 H646 0.950 . S
C644 C643 1.387 . S
C644 C647 1.387 . S
H645 C641 0.950 . S
H646 C643 0.950 . S
C647 C638 1.390 . S
C647 H640 0.950 . S
C647 C644 1.387 . S
C648 C649 1.387 1_655 S
C648 H652 0.950 . S
C648 C657 1.390 1_655 S
C649 C648 1.387 1_455 S
C649 C651 1.387 . S
H650 C657 0.950 . S
C651 C649 1.387 . S
C651 C653 1.390 . S
C651 H655 0.950 . S
H652 C648 0.950 . S
C653 C651 1.390 . S
C653 C654 1.387 . S
C653 H656 0.950 . S
C654 C653 1.387 . S
C654 C657 1.387 . S
H655 C651 0.950 . S
H656 C653 0.950 . S
C657 C648 1.390 1_455 S
C657 H650 0.950 . S
C657 C654 1.387 . S
C658 C659 1.387 . S
C658 H662 0.950 . S
C658 C667 1.390 . S
C659 C658 1.387 . S
C659 C661 1.387 . S
H660 C667 0.950 . S
C661 C659 1.387 . S
C661 C663 1.390 . S
C661 H665 0.950 . S
H662 C658 0.950 . S
C663 C661 1.390 . S
C663 C664 1.387 . S
C663 H666 0.950 . S
C664 C663 1.387 . S
C664 C667 1.387 . S
H665 C661 0.950 . S
H666 C663 0.950 . S
C667 C658 1.390 . S
C667 H660 0.950 . S
C667 C664 1.387 . S
C668 C669 1.387 . S
C668 H672 0.950 . S
C668 C677 1.390 . S
C669 C668 1.387 . S
C669 C671 1.387 . S
H670 C677 0.950 . S
C671 C669 1.387 . S
C671 C673 1.390 . S
C671 H675 0.950 . S
H672 C668 0.950 . S
C673 C671 1.390 . S
C673 C674 1.387 . S
C673 H676 0.950 . S
C674 C673 1.387 . S
C674 C677 1.387 . S
H675 C671 0.950 . S
H676 C673 0.950 . S
C677 C668 1.390 . S
C677 H670 0.950 . S
C677 C674 1.387 . S
C678 C679 1.387 . S
C678 H682 0.950 1_655 S
C678 C687 1.390 . S
C679 C678 1.387 . S
C679 C681 1.387 . S
H680 C687 0.950 . S
C681 C679 1.387 . S
C681 C683 1.390 . S
C681 H685 0.950 . S
H682 C678 0.950 1_455 S
C683 C681 1.390 . S
C683 C684 1.387 . S
C683 H686 0.950 . S
C684 C683 1.387 . S
C684 C687 1.387 . S
H685 C681 0.950 . S
H686 C683 0.950 . S
C687 C678 1.390 . S
C687 H680 0.950 . S
C687 C684 1.387 . S
C688 C689 1.387 . S
C688 H692 0.950 . S
C688 C697 1.390 . S
C689 C688 1.387 . S
C689 C691 1.387 . S
H690 C697 0.950 . S
C691 C689 1.387 . S
C691 C693 1.390 . S
C691 H695 0.950 . S
H692 C688 0.950 . S
C693 C691 1.390 . S
C693 C694 1.387 . S
C693 H696 0.950 . S
C694 C693 1.387 . S
C694 C697 1.387 . S
H695 C691 0.950 . S
H696 C693 0.950 . S
C697 C688 1.390 . S
C697 H690 0.950 . S
C697 C694 1.387 . S
C698 C699 1.387 . S
C698 H702 0.950 . S
C698 C707 1.390 . S
C699 C698 1.387 . S
C699 C701 1.387 . S
H700 C707 0.950 . S
C701 C699 1.387 . S
C701 C703 1.390 . S
C701 H705 0.950 . S
H702 C698 0.950 . S
C703 C701 1.390 . S
C703 C704 1.387 . S
C703 H706 0.950 . S
C704 C703 1.387 . S
C704 C707 1.387 . S
H705 C701 0.950 . S
H706 C703 0.950 . S
C707 C698 1.390 . S
C707 H700 0.950 . S
C707 C704 1.387 . S
C409 C20 1.556 1_565 S
C414 C376 1.540 . S
C419 C54 1.553 . S
C424 C206 1.537 . S
C429 C240 1.538 . S
C434 C88 1.553 1_455 S
C439 C274 1.537 . S
C444 C122 1.553 1_545 S
C449 C156 1.553 . S
C454 C308 1.537 . S
C459 C190 1.556 1_655 S
C464 C342 1.541 . S
C469 C36 1.541 . S
C474 C224 1.555 1_455 S
C479 C258 1.555 1_545 S
C484 C70 1.541 . S
C489 C104 1.537 . S
C494 C292 1.553 . S
C499 C326 1.553 1_655 S
C504 C138 1.537 . S
C509 C360 1.554 1_565 S
C514 C172 1.537 . S
C519 C2 1.539 . S
C524 C394 1.555 . S
C529 C209 0.868 . S
C534 C5 0.868 . S
C539 C39 0.870 . S
C544 C243 0.868 . S
C549 C73 0.870 . S
C554 C277 0.870 . S
C559 C107 0.870 . S
C564 C311 0.870 . S
C569 C345 0.868 . S
C574 C141 0.867 . S
C579 C379 0.870 . S
C584 C175 0.870 . S
C589 C203 1.080 . S
C594 C9 1.093 . S
C599 C33 1.078 . S
C604 C43 1.096 . S
C609 C77 1.096 . S
C614 C67 1.078 . S
C619 C111 1.093 . S
C624 C101 1.080 . S
C629 C145 1.095 . S
C634 C135 1.077 . S
C639 C179 1.095 . S
C644 C169 1.080 . S
C649 C213 1.096 . S
C654 C271 1.077 . S
C659 C305 1.078 . S
C664 C247 1.096 . S
C669 C281 1.093 . S
C674 C339 1.079 . S
C679 C315 1.094 . S
C684 C373 1.079 . S
C689 C349 1.093 . S
C694 C407 1.080 . S
C699 C383 1.093 . S
C704 C237 1.081 . S
