# Generated by pormake.
# Topology dmp, (4)-cn, num edge types: 1
# Building blocks:
#     Node 0, Type 0, BuildingBlock: CEKHIL_clean_sbu_0, # of connection points: 4
#     Node 1, Type 0, BuildingBlock: CEKHIL_clean_sbu_0, # of connection points: 4
#     Node 2, Type 0, BuildingBlock: CEKHIL_clean_sbu_0, # of connection points: 4
#     Node 3, Type 0, BuildingBlock: CEKHIL_clean_sbu_0, # of connection points: 4
#     Edge 4, Type (0, 0), BuildingBlock: TEMPAE_clean_linker_10, # of connection points: 2
#     Edge 5, Type (0, 0), BuildingBlock: TEMPAE_clean_linker_10, # of connection points: 2
#     Edge 6, Type (0, 0), BuildingBlock: TEMPAE_clean_linker_10, # of connection points: 2
#     Edge 7, Type (0, 0), BuildingBlock: TEMPAE_clean_linker_10, # of connection points: 2
#     Edge 8, Type (0, 0), BuildingBlock: TEMPAE_clean_linker_10, # of connection points: 2
#     Edge 9, Type (0, 0), BuildingBlock: TEMPAE_clean_linker_10, # of connection points: 2
#     Edge 10, Type (0, 0), BuildingBlock: TEMPAE_clean_linker_10, # of connection points: 2
#     Edge 11, Type (0, 0), BuildingBlock: TEMPAE_clean_linker_10, # of connection points: 2
# Relax obj value: 0.088
# Max RMSD: 0.196
# Mean RMSD: 0.196
data_MOF--net-dmp--node1-CEKHIL_clean_sbu_0--edge1-TEMPAE_clean_linker_10
_symmetry_space_group_name_H-M    P1
_symmetry_Int_Tables_number       1
_symmetry_cell_setting            triclinic
loop_
_symmetry_equiv_pos_as_xyz
'x, y, z'
_cell_length_a     39.76007
_cell_length_b     19.226964
_cell_length_c     14.605411
_cell_angle_alpha  89.95544
_cell_angle_beta   90.012967
_cell_angle_gamma 91.885147
loop_
_atom_site_label
_atom_site_type_symbol
_atom_site_fract_x
_atom_site_fract_y
_atom_site_fract_z
_atom_type_partial_charge
Co0 Co 0.10162 0.24386 0.25165 0.0
O1 O 0.07304 0.32109 0.23312 0.0
O2 O 0.09703 0.2952 0.36516 0.0
C3 C 0.0676 0.16604 0.18022 0.0
O4 O 0.13251 0.16676 0.29456 0.0
Co5 Co 0.13131 0.17061 0.08064 0.0
O6 O 0.14267 0.09937 0.17237 0.0
C7 C 0.16157 0.30417 0.14479 0.0
C8 C 0.07737 0.33531 0.31902 0.0
C9 C 0.14477 0.11198 0.25791 0.0
O10 O 0.14192 0.30313 0.21477 0.0
O11 O 0.15991 0.25859 0.08088 0.0
O12 O 0.0622 0.1816 0.26529 0.0
O13 O 0.09122 0.20179 0.13964 0.0
Co14 Co 0.39636 0.75335 0.27315 0.0
O15 O 0.43025 0.68551 0.25932 0.0
O16 O 0.40073 0.70056 0.38598 0.0
C17 C 0.42731 0.84025 0.20943 0.0
O18 O 0.3601 0.82124 0.31121 0.0
Co19 Co 0.36687 0.82156 0.09797 0.0
O20 O 0.35072 0.88915 0.18882 0.0
C21 C 0.34292 0.68092 0.15384 0.0
C22 C 0.4244 0.66812 0.34355 0.0
C23 C 0.34689 0.87463 0.27345 0.0
O24 O 0.36074 0.68533 0.22733 0.0
O25 O 0.3436 0.7276 0.09122 0.0
O26 O 0.43151 0.82492 0.29522 0.0
O27 O 0.40696 0.79955 0.16436 0.0
Co28 Co 0.90168 0.74862 0.71748 0.0
O29 O 0.93826 0.68704 0.7061 0.0
O30 O 0.90544 0.71767 0.5911 0.0
C31 C 0.9307 0.8274 0.80202 0.0
O32 O 0.86222 0.81369 0.70636 0.0
Co33 Co 0.87407 0.77703 0.91315 0.0
O34 O 0.85057 0.85209 0.84817 0.0
C35 C 0.85435 0.64721 0.81789 0.0
C36 C 0.93103 0.68306 0.61995 0.0
C37 C 0.84634 0.8534 0.76156 0.0
O38 O 0.8694 0.66887 0.7449 0.0
O39 O 0.85583 0.67946 0.89452 0.0
O40 O 0.93312 0.82873 0.71332 0.0
O41 O 0.91331 0.7759 0.83603 0.0
Co42 Co 0.5977 0.24035 0.7352 0.0
O43 O 0.56851 0.31765 0.73958 0.0
O44 O 0.59176 0.27813 0.61288 0.0
C45 C 0.56457 0.17128 0.8229 0.0
O46 O 0.62921 0.16127 0.7064 0.0
Co47 Co 0.62852 0.18417 0.91584 0.0
O48 O 0.63938 0.1039 0.8373 0.0
C49 C 0.65887 0.30882 0.82502 0.0
C50 C 0.5721 0.32231 0.65172 0.0
C51 C 0.64165 0.11006 0.75062 0.0
O52 O 0.63797 0.30363 0.75808 0.0
O53 O 0.65822 0.26921 0.8955 0.0
O54 O 0.55909 0.17513 0.73547 0.0
O55 O 0.58812 0.21184 0.85515 0.0
C56 C 0.30139 0.8867 0.39191 0.0
C57 C 0.32215 0.91641 0.32365 0.0
C58 C 0.27138 0.91857 0.41781 0.0
C59 C 0.2618 0.98015 0.37261 0.0
C60 C 0.28495 0.01456 0.3128 0.0
C61 C 0.31495 0.98263 0.29004 0.0
C62 C 0.24877 0.88298 0.48749 0.0
C63 C 0.27643 0.08111 0.26408 0.0
C64 C 0.17568 0.00242 0.27382 0.0
C65 C 0.16731 0.06684 0.31105 0.0
C66 C 0.2049 0.96927 0.30073 0.0
C67 C 0.22584 0.0001 0.36904 0.0
C68 C 0.21463 0.05905 0.41712 0.0
C69 C 0.18563 0.09254 0.38669 0.0
C70 C 0.21533 0.90598 0.24777 0.0
C71 C 0.23464 0.09063 0.49521 0.0
H72 H 0.30704 0.83612 0.41974 0.0
H73 H 0.33146 0.00694 0.23937 0.0
H74 H 0.2328 0.92069 0.52326 0.0
H75 H 0.23205 0.84394 0.45276 0.0
H76 H 0.26382 0.85499 0.53901 0.0
H77 H 0.29793 0.10303 0.22358 0.0
H78 H 0.25492 0.07103 0.21692 0.0
H79 H 0.2688 0.12086 0.31414 0.0
H80 H 0.16104 0.98099 0.21723 0.0
H81 H 0.17904 0.14156 0.41741 0.0
H82 H 0.22155 0.86335 0.29527 0.0
H83 H 0.23823 0.91914 0.20698 0.0
H84 H 0.19535 0.88641 0.20029 0.0
H85 H 0.2504 0.05173 0.52944 0.0
H86 H 0.21762 0.11336 0.54668 0.0
H87 H 0.25136 0.13344 0.46893 0.0
C88 C 0.18647 0.41907 0.19418 0.0
C89 C 0.18831 0.35925 0.13979 0.0
C90 C 0.21231 0.47038 0.1929 0.0
C91 C 0.24081 0.46117 0.13669 0.0
C92 C 0.24278 0.40118 0.08128 0.0
C93 C 0.21639 0.35106 0.08306 0.0
C94 C 0.20919 0.53426 0.25207 0.0
C95 C 0.27298 0.38948 0.02116 0.0
C96 C 0.29312 0.62307 0.07786 0.0
C97 C 0.31869 0.62132 0.14409 0.0
C98 C 0.26796 0.57047 0.07353 0.0
C99 C 0.26856 0.5145 0.13626 0.0
C100 C 0.29493 0.51096 0.20104 0.0
C101 C 0.31963 0.56463 0.20443 0.0
C102 C 0.24007 0.57608 0.00388 0.0
C103 C 0.29654 0.45148 0.26832 0.0
H104 H 0.16477 0.42592 0.23779 0.0
H105 H 0.21812 0.3047 0.04137 0.0
H106 H 0.23019 0.53744 0.30208 0.0
H107 H 0.21105 0.58185 0.20909 0.0
H108 H 0.18503 0.53418 0.29027 0.0
H109 H 0.27049 0.34021 0.98169 0.0
H110 H 0.27655 0.43331 0.97232 0.0
H111 H 0.29604 0.38794 0.06383 0.0
H112 H 0.29208 0.66672 0.0311 0.0
H113 H 0.3394 0.56261 0.25543 0.0
H114 H 0.21567 0.58152 0.03957 0.0
H115 H 0.23801 0.52801 0.96205 0.0
H116 H 0.24411 0.62129 0.95731 0.0
H117 H 0.27449 0.45204 0.3148 0.0
H118 H 0.31981 0.45427 0.31048 0.0
H119 H 0.29543 0.40101 0.23148 0.0
C120 C 0.66893 -0.00381 0.73634 0.0
C121 C 0.66563 0.06442 0.70475 0.0
C122 C 0.69825 0.95975 0.71905 0.0
C123 C 0.72512 0.99296 0.67044 0.0
C124 C 0.72023 0.05856 0.62913 0.0
C125 C 0.69036 0.09354 0.64647 0.0
C126 C 0.70191 0.88907 0.76231 0.0
C127 C 0.74793 0.0954 0.57553 0.0
C128 C 0.8081 0.95229 0.78115 0.0
C129 C 0.8194 0.89794 0.72637 0.0
C130 C 0.77857 0.98657 0.7599 0.0
C131 C 0.75971 0.96633 0.68147 0.0
C132 C 0.77238 0.91547 0.6216 0.0
C133 C 0.80213 0.88166 0.64486 0.0
C134 C 0.76639 0.04124 0.82527 0.0
C135 C 0.75351 0.89345 0.5363 0.0
H136 H 0.6497 0.97338 0.78081 0.0
H137 H 0.688 0.14646 0.62213 0.0
H138 H 0.71376 0.85286 0.71385 0.0
H139 H 0.71851 0.89414 0.82324 0.0
H140 H 0.67728 0.86588 0.78451 0.0
H141 H 0.73784 0.13603 0.52993 0.0
H142 H 0.76593 0.12109 0.62386 0.0
H143 H 0.76207 0.05814 0.53366 0.0
H144 H 0.82159 0.96609 0.84341 0.0
H145 H 0.81072 0.83986 0.60191 0.0
H146 H 0.7429 0.02196 0.85921 0.0
H147 H 0.76048 0.08942 0.78757 0.0
H148 H 0.78523 0.05464 0.87915 0.0
H149 H 0.73271 0.8563 0.55515 0.0
H150 H 0.77012 0.8673 0.4868 0.0
H151 H 0.74222 0.93869 0.50219 0.0
C152 C 0.80964 0.58249 0.73214 0.0
C153 C 0.83017 0.58806 0.80994 0.0
C154 C 0.78224 0.5349 0.72947 0.0
C155 C 0.77599 0.4906 0.80536 0.0
C156 C 0.79797 0.49301 0.88169 0.0
C157 C 0.82454 0.54274 0.88377 0.0
C158 C 0.7589 0.53487 0.64784 0.0
C159 C 0.79263 0.44496 0.96257 0.0
C160 C 0.68676 0.42427 0.85107 0.0
C161 C 0.68771 0.35705 0.81551 0.0
C162 C 0.71535 0.46883 0.84705 0.0
C163 C 0.74535 0.44472 0.80729 0.0
C164 C 0.7461 0.37675 0.77048 0.0
C165 C 0.71709 0.33361 0.77496 0.0
C166 C 0.71361 0.54129 0.88622 0.0
C167 C 0.77765 0.34921 0.72813 0.0
H168 H 0.81372 0.61836 0.67557 0.0
H169 H 0.84052 0.54716 0.9438 0.0
H170 H 0.75539 0.4815 0.61994 0.0
H171 H 0.73377 0.55225 0.66947 0.0
H172 H 0.76839 0.5698 0.59228 0.0
H173 H 0.81385 0.44872 0.01202 0.0
H174 H 0.76916 0.45809 -0.0012 0.0
H175 H 0.78962 0.39023 0.9391 0.0
H176 H 0.66383 0.44152 0.88279 0.0
H177 H 0.71747 0.28101 0.74816 0.0
H178 H 0.72103 0.5804 0.83345 0.0
H179 H 0.7316 0.54753 0.94391 0.0
H180 H 0.68802 0.55276 0.91144 0.0
H181 H 0.78627 0.38342 0.67103 0.0
H182 H 0.7738 0.2954 0.70152 0.0
H183 H 0.79813 0.34942 0.77975 0.0
C184 C 0.01196 0.11103 0.14413 0.0
C185 C 0.04682 0.11412 0.13105 0.0
C186 C 0.9914 0.06582 0.09169 0.0
C187 C 0.00642 0.02099 0.02788 0.0
C188 C 0.04182 0.02233 0.01708 0.0
C189 C 0.06158 0.0702 0.06748 0.0
C190 C 0.95366 0.06743 0.10261 0.0
C191 C 0.0588 0.97338 0.95224 0.0
C192 C 0.957 0.86018 0.95041 0.0
C193 C 0.9483 0.8786 0.86089 0.0
C194 C 0.97582 0.90626 0.00589 0.0
C195 C 0.98519 0.97294 0.97164 0.0
C196 C 0.97537 0.99271 0.88236 0.0
C197 C 0.95743 0.9447 0.82731 0.0
C198 C 0.98666 0.88272 0.09978 0.0
C199 C 0.98412 0.06421 0.84473 0.0
H200 H 0.00068 0.14594 0.19273 0.0
H201 H 0.08861 0.0728 0.05786 0.0
H202 H 0.94193 0.08054 0.0361 0.0
H203 H 0.94343 0.01537 0.12306 0.0
H204 H 0.94602 0.10604 0.15453 0.0
H205 H 0.08668 0.978 0.95665 0.0
H206 H 0.05075 0.91878 0.96753 0.0
H207 H 0.05117 0.98443 0.88079 0.0
H208 H 0.95008 0.80874 0.97606 0.0
H209 H 0.95042 0.95893 0.75821 0.0
H210 H 0.97774 0.91894 0.15287 0.0
H211 H 0.01455 0.88351 0.10366 0.0
H212 H 0.97693 0.82937 0.11641 0.0
H213 H 0.97588 0.10476 0.89307 0.0
H214 H 0.97228 0.07318 0.77702 0.0
H215 H 0.0118 0.07084 0.83715 0.0
C216 C 0.53902 0.05519 0.85961 0.0
C217 C 0.54473 0.12501 0.88289 0.0
C218 C 0.52066 0.01043 0.91824 0.0
C219 C 0.50662 0.03739 -0.0005 0.0
C220 C 0.51197 0.1084 0.02222 0.0
C221 C 0.53168 0.15113 0.96436 0.0
C222 C 0.51641 0.9344 0.89352 0.0
C223 C 0.49628 0.13952 0.10631 0.0
C224 C 0.43201 0.93181 0.09033 0.0
C225 C 0.44648 0.89649 0.16343 0.0
C226 C 0.45099 0.98039 0.03896 0.0
C227 C 0.48554 0.99156 0.05927 0.0
C228 C 0.50013 0.95685 0.13425 0.0
C229 C 0.48016 0.91042 0.18668 0.0
C230 C 0.43427 0.01839 0.96162 0.0
C231 C 0.53713 0.96606 0.1562 0.0
H232 H 0.54959 0.03538 0.79673 0.0
H233 H 0.53613 0.20555 0.98142 0.0
H234 H 0.52475 0.90159 0.95127 0.0
H235 H 0.48946 0.92102 0.88101 0.0
H236 H 0.53095 0.92094 0.83141 0.0
H237 H 0.50257 0.196 0.1133 0.0
H238 H 0.4685 0.13216 0.10313 0.0
H239 H 0.50489 0.1125 0.16874 0.0
H240 H 0.40587 0.92102 0.07281 0.0
H241 H 0.49133 0.88223 0.24272 0.0
H242 H 0.44449 0.00102 0.8951 0.0
H243 H 0.43975 0.0752 0.96713 0.0
H244 H 0.40655 0.00908 0.96103 0.0
H245 H 0.55223 0.94746 0.09774 0.0
H246 H 0.54428 0.937 0.21864 0.0
H247 H 0.54397 0.0219 0.16619 0.0
C248 C 0.93811 0.58671 0.50797 0.0
C249 C 0.9521 0.64149 0.55978 0.0
C250 C 0.95894 0.53852 0.46549 0.0
C251 C 0.99443 0.54686 0.47346 0.0
C252 C 0.0085 0.60468 0.52151 0.0
C253 C 0.98713 0.65056 0.56545 0.0
C254 C 0.94301 0.4768 0.41629 0.0
C255 C 0.04612 0.61679 0.52923 0.0
C256 C 0.0489 0.38845 0.45331 0.0
C257 C 0.05884 0.39222 0.36148 0.0
C258 C 0.02764 0.43817 0.49046 0.0
C259 C 0.0169 0.4938 0.43493 0.0
C260 C 0.02796 0.49909 0.34308 0.0
C261 C 0.04843 0.44772 0.30715 0.0
C262 C 0.01598 0.43021 0.5884 0.0
C263 C 0.01798 0.55872 0.28258 0.0
H264 H 0.91097 0.57922 0.50528 0.0
H265 H 0.99781 0.69299 0.60613 0.0
H266 H 0.95292 0.47362 0.3455 0.0
H267 H 0.94962 0.42814 0.452 0.0
H268 H 0.91516 0.47929 0.41316 0.0
H269 H 0.0529 0.66772 0.56131 0.0
H270 H 0.05701 0.575 0.57116 0.0
H271 H 0.05797 0.61486 0.46054 0.0
H272 H 0.05662 0.34512 0.49503 0.0
H273 H 0.05622 0.45082 0.23608 0.0
H274 H 0.98808 0.42652 0.59073 0.0
H275 H 0.02404 0.47667 0.62875 0.0
H276 H 0.02604 0.3833 0.62179 0.0
H277 H 0.99027 0.55768 0.27362 0.0
H278 H 0.02992 0.55682 0.21389 0.0
H279 H 0.02524 0.60906 0.31538 0.0
C280 C 0.4323 0.56775 0.45028 0.0
C281 C 0.44574 0.61713 0.38888 0.0
C282 C 0.45286 0.51733 0.48922 0.0
C283 C 0.48777 0.51837 0.46868 0.0
C284 C 0.50141 0.56923 0.40795 0.0
C285 C 0.48011 0.61712 0.36757 0.0
C286 C 0.43725 0.4627 0.55172 0.0
C287 C 0.53862 0.57395 0.3869 0.0
C288 C 0.54524 0.43679 0.64308 0.0
C289 C 0.55317 0.37424 0.60021 0.0
C290 C 0.52445 0.48453 0.60033 0.0
C291 C 0.5104 0.46839 0.51359 0.0
C292 C 0.51852 0.40538 0.46954 0.0
C293 C 0.54027 0.35937 0.51294 0.0
C294 C 0.51741 0.55208 0.64833 0.0
C295 C 0.50348 0.38576 0.37786 0.0
H296 H 0.40564 0.56744 0.46586 0.0
H297 H 0.49052 0.65576 0.32044 0.0
H298 H 0.44323 0.41002 0.52677 0.0
H299 H 0.44799 0.46824 0.62152 0.0
H300 H 0.40948 0.46641 0.55629 0.0
H301 H 0.54525 0.61728 0.33917 0.0
H302 H 0.55312 0.58185 0.45121 0.0
H303 H 0.54676 0.52458 0.35608 0.0
H304 H 0.55529 0.44837 0.7106 0.0
H305 H 0.54602 0.31051 0.48041 0.0
H306 H 0.49015 0.55475 0.66335 0.0
H307 H 0.52427 0.59678 0.60318 0.0
H308 H 0.53154 0.55803 0.71364 0.0
H309 H 0.47561 0.38381 0.3828 0.0
H310 H 0.51191 0.33449 0.35337 0.0
H311 H 0.51048 0.4258 0.32597 0.0
loop_
_geom_bond_atom_site_label_1
_geom_bond_atom_site_label_2
_geom_bond_distance
_geom_bond_site_symmetry_2
_ccdc_geom_bond_type
Co0 O1 2.216 . S
Co0 O2 2.091 . S
Co0 O4 2.004 . S
Co0 O10 2.021 . S
Co0 O12 2.137 . S
Co0 O13 2.244 . S
O1 Co0 2.216 . S
O1 C8 1.247 . S
O2 Co0 2.091 . S
O2 C8 1.261 . S
C3 O12 1.247 . S
C3 O13 1.272 . S
O4 Co0 2.004 . S
O4 C9 1.259 . S
Co5 O6 2.061 . S
Co5 O11 2.052 . S
Co5 O13 2.135 . S
O6 Co5 2.061 . S
O6 C9 1.235 . S
C7 O10 1.238 . S
C7 O11 1.241 . S
C8 O1 1.247 . S
C8 O2 1.261 . S
C9 O4 1.259 . S
C9 O6 1.235 . S
O10 Co0 2.021 . S
O10 C7 1.238 . S
O11 Co5 2.052 . S
O11 C7 1.241 . S
O12 Co0 2.137 . S
O12 C3 1.247 . S
O13 Co0 2.244 . S
O13 C3 1.272 . S
O13 Co5 2.135 . S
Co14 O15 2.216 . S
Co14 O16 2.091 . S
Co14 O18 2.004 . S
Co14 O24 2.021 . S
Co14 O26 2.137 . S
Co14 O27 2.244 . S
O15 Co14 2.216 . S
O15 C22 1.247 . S
O16 Co14 2.091 . S
O16 C22 1.261 . S
C17 O26 1.247 . S
C17 O27 1.272 . S
O18 Co14 2.004 . S
O18 C23 1.259 . S
Co19 O20 2.061 . S
Co19 O25 2.052 . S
Co19 O27 2.135 . S
O20 Co19 2.061 . S
O20 C23 1.235 . S
C21 O24 1.238 . S
C21 O25 1.241 . S
C22 O15 1.247 . S
C22 O16 1.261 . S
C23 O18 1.259 . S
C23 O20 1.235 . S
O24 Co14 2.021 . S
O24 C21 1.238 . S
O25 Co19 2.052 . S
O25 C21 1.241 . S
O26 Co14 2.137 . S
O26 C17 1.247 . S
O27 Co14 2.244 . S
O27 C17 1.272 . S
O27 Co19 2.135 . S
Co28 O29 2.216 . S
Co28 O30 2.091 . S
Co28 O32 2.004 . S
Co28 O38 2.021 . S
Co28 O40 2.137 . S
Co28 O41 2.244 . S
O29 Co28 2.216 . S
O29 C36 1.247 . S
O30 Co28 2.091 . S
O30 C36 1.261 . S
C31 O40 1.247 . S
C31 O41 1.272 . S
O32 Co28 2.004 . S
O32 C37 1.259 . S
Co33 O34 2.061 . S
Co33 O39 2.052 . S
Co33 O41 2.135 . S
O34 Co33 2.061 . S
O34 C37 1.235 . S
C35 O38 1.238 . S
C35 O39 1.241 . S
C36 O29 1.247 . S
C36 O30 1.261 . S
C37 O32 1.259 . S
C37 O34 1.235 . S
O38 Co28 2.021 . S
O38 C35 1.238 . S
O39 Co33 2.052 . S
O39 C35 1.241 . S
O40 Co28 2.137 . S
O40 C31 1.247 . S
O41 Co28 2.244 . S
O41 C31 1.272 . S
O41 Co33 2.135 . S
Co42 O43 2.216 . S
Co42 O44 2.091 . S
Co42 O46 2.004 . S
Co42 O52 2.021 . S
Co42 O54 2.137 . S
Co42 O55 2.244 . S
O43 Co42 2.216 . S
O43 C50 1.247 . S
O44 Co42 2.091 . S
O44 C50 1.261 . S
C45 O54 1.247 . S
C45 O55 1.272 . S
O46 Co42 2.004 . S
O46 C51 1.259 . S
Co47 O48 2.061 . S
Co47 O53 2.052 . S
Co47 O55 2.135 . S
O48 Co47 2.061 . S
O48 C51 1.235 . S
C49 O52 1.238 . S
C49 O53 1.241 . S
C50 O43 1.247 . S
C50 O44 1.261 . S
C51 O46 1.259 . S
C51 O48 1.235 . S
O52 Co42 2.021 . S
O52 C49 1.238 . S
O53 Co47 2.052 . S
O53 C49 1.241 . S
O54 Co42 2.137 . S
O54 C45 1.247 . S
O55 Co42 2.244 . S
O55 C45 1.272 . S
O55 Co47 2.135 . S
C56 C57 1.391 . S
C56 C58 1.394 . S
C56 H72 0.931 . S
C57 C56 1.391 . S
C57 C61 1.376 . S
C58 C56 1.394 . S
C58 C59 1.369 . S
C58 C62 1.531 . S
C59 C58 1.369 . S
C59 C60 1.410 1_565 S
C59 C67 1.503 1_565 S
C60 C59 1.410 1_545 S
C60 C61 1.392 1_545 S
C60 C63 1.511 . S
C61 C57 1.376 . S
C61 C60 1.392 1_565 S
C61 H73 0.929 . S
C62 C58 1.531 . S
C62 H74 0.960 . S
C62 H75 0.962 . S
C62 H76 0.960 . S
C63 C60 1.511 . S
C63 H77 0.961 . S
C63 H78 0.961 . S
C63 H79 0.961 . S
C64 C65 1.370 . S
C64 C66 1.363 . S
C64 H80 0.931 . S
C65 C64 1.370 . S
C65 C69 1.408 . S
C66 C64 1.363 . S
C66 C67 1.370 . S
C66 C70 1.524 . S
C67 C59 1.503 1_545 S
C67 C66 1.370 . S
C67 C68 1.403 . S
C68 C67 1.403 . S
C68 C69 1.404 . S
C68 C71 1.539 . S
C69 C65 1.408 . S
C69 C68 1.404 . S
C69 H81 0.930 . S
C70 C66 1.524 . S
C70 H82 0.956 1_545 S
C70 H83 0.961 . S
C70 H84 0.961 . S
C71 C68 1.539 . S
C71 H85 0.958 1_545 S
C71 H86 0.961 . S
C71 H87 0.960 . S
H72 C56 0.931 . S
H73 C61 0.929 . S
H74 C62 0.960 . S
H75 C62 0.962 . S
H76 C62 0.960 . S
H77 C63 0.961 . S
H78 C63 0.961 . S
H79 C63 0.961 . S
H80 C64 0.931 . S
H81 C69 0.930 . S
H82 C70 0.956 1_565 S
H83 C70 0.961 . S
H84 C70 0.961 . S
H85 C71 0.958 1_565 S
H86 C71 0.961 . S
H87 C71 0.960 . S
C88 C89 1.391 . S
C88 C90 1.394 . S
C88 H104 0.931 . S
C89 C88 1.391 . S
C89 C93 1.376 . S
C90 C88 1.394 . S
C90 C91 1.369 . S
C90 C94 1.531 . S
C91 C90 1.369 . S
C91 C92 1.410 . S
C91 C99 1.503 . S
C92 C91 1.410 . S
C92 C93 1.392 . S
C92 C95 1.511 . S
C93 C89 1.376 . S
C93 C92 1.392 . S
C93 H105 0.929 . S
C94 C90 1.531 . S
C94 H106 0.960 . S
C94 H107 0.962 . S
C94 H108 0.960 . S
C95 C92 1.511 . S
C95 H109 0.961 . S
C95 H110 0.961 . S
C95 H111 0.961 . S
C96 C97 1.370 . S
C96 C98 1.363 . S
C96 H112 0.931 . S
C97 C96 1.370 . S
C97 C101 1.408 . S
C98 C96 1.363 . S
C98 C99 1.370 . S
C98 C102 1.524 . S
C99 C91 1.503 . S
C99 C98 1.370 . S
C99 C100 1.403 . S
C100 C99 1.403 . S
C100 C101 1.404 . S
C100 C103 1.539 . S
C101 C97 1.408 . S
C101 C100 1.404 . S
C101 H113 0.930 . S
C102 C98 1.524 . S
C102 H114 0.956 . S
C102 H115 0.961 . S
C102 H116 0.961 . S
C103 C100 1.539 . S
C103 H117 0.958 . S
C103 H118 0.961 . S
C103 H119 0.960 . S
H104 C88 0.931 . S
H105 C93 0.929 . S
H106 C94 0.960 . S
H107 C94 0.962 . S
H108 C94 0.960 . S
H109 C95 0.961 . S
H110 C95 0.961 . S
H111 C95 0.961 . S
H112 C96 0.931 . S
H113 C101 0.930 . S
H114 C102 0.956 . S
H115 C102 0.961 . S
H116 C102 0.961 . S
H117 C103 0.958 . S
H118 C103 0.961 . S
H119 C103 0.960 . S
C120 C121 1.391 . S
C120 C122 1.394 1_545 S
C120 H136 0.931 . S
C121 C120 1.391 . S
C121 C125 1.376 . S
C122 C120 1.394 1_565 S
C122 C123 1.369 1_565 S
C122 C126 1.531 . S
C123 C122 1.369 1_545 S
C123 C124 1.410 . S
C123 C131 1.503 1_545 S
C124 C123 1.410 . S
C124 C125 1.392 . S
C124 C127 1.511 . S
C125 C121 1.376 . S
C125 C124 1.392 . S
C125 H137 0.929 . S
C126 C122 1.531 . S
C126 H138 0.960 . S
C126 H139 0.962 . S
C126 H140 0.960 . S
C127 C124 1.511 . S
C127 H141 0.961 . S
C127 H142 0.961 . S
C127 H143 0.961 . S
C128 C129 1.370 . S
C128 C130 1.363 . S
C128 H144 0.931 . S
C129 C128 1.370 . S
C129 C133 1.408 . S
C130 C128 1.363 . S
C130 C131 1.370 . S
C130 C134 1.524 . S
C131 C123 1.503 1_565 S
C131 C130 1.370 . S
C131 C132 1.403 . S
C132 C131 1.403 . S
C132 C133 1.404 . S
C132 C135 1.539 1_565 S
C133 C129 1.408 . S
C133 C132 1.404 . S
C133 H145 0.930 . S
C134 C130 1.524 . S
C134 H146 0.956 . S
C134 H147 0.961 1_565 S
C134 H148 0.961 . S
C135 C132 1.539 1_545 S
C135 H149 0.958 1_545 S
C135 H150 0.961 . S
C135 H151 0.960 . S
H136 C120 0.931 . S
H137 C125 0.929 . S
H138 C126 0.960 . S
H139 C126 0.962 . S
H140 C126 0.960 . S
H141 C127 0.961 . S
H142 C127 0.961 . S
H143 C127 0.961 . S
H144 C128 0.931 . S
H145 C133 0.930 . S
H146 C134 0.956 . S
H147 C134 0.961 1_545 S
H148 C134 0.961 . S
H149 C135 0.958 1_565 S
H150 C135 0.961 . S
H151 C135 0.960 . S
C152 C153 1.391 . S
C152 C154 1.394 . S
C152 H168 0.931 . S
C153 C152 1.391 . S
C153 C157 1.376 . S
C154 C152 1.394 . S
C154 C155 1.369 . S
C154 C158 1.531 . S
C155 C154 1.369 . S
C155 C156 1.410 . S
C155 C163 1.503 . S
C156 C155 1.410 . S
C156 C157 1.392 . S
C156 C159 1.511 . S
C157 C153 1.376 . S
C157 C156 1.392 . S
C157 H169 0.929 . S
C158 C154 1.531 . S
C158 H170 0.960 . S
C158 H171 0.962 . S
C158 H172 0.960 . S
C159 C156 1.511 . S
C159 H173 0.961 . S
C159 H174 0.961 . S
C159 H175 0.961 . S
C160 C161 1.370 . S
C160 C162 1.363 . S
C160 H176 0.931 . S
C161 C160 1.370 . S
C161 C165 1.408 . S
C162 C160 1.363 . S
C162 C163 1.370 . S
C162 C166 1.524 . S
C163 C155 1.503 . S
C163 C162 1.370 . S
C163 C164 1.403 . S
C164 C163 1.403 . S
C164 C165 1.404 . S
C164 C167 1.539 . S
C165 C161 1.408 . S
C165 C164 1.404 . S
C165 H177 0.930 . S
C166 C162 1.524 . S
C166 H178 0.956 . S
C166 H179 0.961 . S
C166 H180 0.961 . S
C167 C164 1.539 . S
C167 H181 0.958 . S
C167 H182 0.961 . S
C167 H183 0.960 . S
H168 C152 0.931 . S
H169 C157 0.929 . S
H170 C158 0.960 . S
H171 C158 0.962 . S
H172 C158 0.960 . S
H173 C159 0.961 . S
H174 C159 0.961 . S
H175 C159 0.961 . S
H176 C160 0.931 . S
H177 C165 0.930 . S
H178 C166 0.956 . S
H179 C166 0.961 . S
H180 C166 0.961 . S
H181 C167 0.958 . S
H182 C167 0.961 . S
H183 C167 0.960 . S
C184 C185 1.391 . S
C184 C186 1.408 . S
C184 H200 0.931 . S
C185 C184 1.391 . S
C185 C189 1.376 . S
C186 C184 1.408 . S
C186 C187 1.377 1_554 S
C186 C190 1.507 1_455 S
C187 C186 1.377 1_556 S
C187 C188 1.409 1_556 S
C187 C195 1.505 1_445 S
C188 C187 1.409 1_554 S
C188 C189 1.392 . S
C188 C191 1.511 1_544 S
C189 C185 1.376 . S
C189 C188 1.392 . S
C189 H201 0.929 . S
C190 C186 1.507 1_655 S
C190 H202 0.960 1_554 S
C190 H203 0.962 . S
C190 H204 0.960 . S
C191 C188 1.511 1_566 S
C191 H205 0.961 1_556 S
C191 H206 0.961 . S
C191 H207 0.961 . S
C192 C193 1.370 . S
C192 C194 1.363 1_556 S
C192 H208 0.931 1_556 S
C193 C192 1.370 . S
C193 C197 1.408 . S
C194 C192 1.363 1_554 S
C194 C195 1.370 1_554 S
C194 C198 1.524 . S
C195 C187 1.505 1_665 S
C195 C194 1.370 1_556 S
C195 C196 1.403 . S
C196 C195 1.403 . S
C196 C197 1.404 . S
C196 C199 1.552 1_565 S
C197 C193 1.408 . S
C197 C196 1.404 . S
C197 H209 0.930 . S
C198 C194 1.524 . S
C198 H210 0.956 . S
C198 H211 0.961 1_655 S
C198 H212 0.961 . S
C199 C196 1.552 1_545 S
C199 H213 0.976 . S
C199 H214 0.957 1_645 S
C199 H215 0.934 1_655 S
H200 C184 0.931 . S
H201 C189 0.929 . S
H202 C190 0.960 1_556 S
H203 C190 0.962 . S
H204 C190 0.960 . S
H205 C191 0.961 1_554 S
H206 C191 0.961 . S
H207 C191 0.961 . S
H208 C192 0.931 1_554 S
H209 C197 0.930 . S
H210 C198 0.956 . S
H211 C198 0.961 1_455 S
H212 C198 0.961 . S
H213 C199 0.976 . S
H214 C199 0.957 1_465 S
H215 C199 0.934 1_455 S
C216 C217 1.391 . S
C216 C218 1.394 . S
C216 H232 0.931 . S
C217 C216 1.391 . S
C217 C221 1.376 . S
C218 C216 1.394 . S
C218 C219 1.369 . S
C218 C222 1.531 1_545 S
C219 C218 1.369 . S
C219 C220 1.410 1_556 S
C219 C227 1.503 1_546 S
C220 C219 1.410 1_554 S
C220 C221 1.392 1_554 S
C220 C223 1.511 . S
C221 C217 1.376 . S
C221 C220 1.392 1_556 S
C221 H233 0.929 . S
C222 C218 1.531 1_565 S
C222 H234 0.960 . S
C222 H235 0.962 . S
C222 H236 0.960 . S
C223 C220 1.511 . S
C223 H237 0.961 . S
C223 H238 0.961 . S
C223 H239 0.961 . S
C224 C225 1.370 . S
C224 C226 1.363 1_554 S
C224 H240 0.931 1_554 S
C225 C224 1.370 . S
C225 C229 1.408 . S
C226 C224 1.363 1_556 S
C226 C227 1.370 1_556 S
C226 C230 1.524 . S
C227 C219 1.503 1_564 S
C227 C226 1.370 1_554 S
C227 C228 1.403 . S
C228 C227 1.403 . S
C228 C229 1.404 . S
C228 C231 1.539 . S
C229 C225 1.408 . S
C229 C228 1.404 . S
C229 H241 0.930 . S
C230 C226 1.524 . S
C230 H242 0.956 . S
C230 H243 0.961 1_565 S
C230 H244 0.961 . S
C231 C228 1.539 . S
C231 H245 0.958 . S
C231 H246 0.961 . S
C231 H247 0.960 1_565 S
H232 C216 0.931 . S
H233 C221 0.929 . S
H234 C222 0.960 . S
H235 C222 0.962 . S
H236 C222 0.960 . S
H237 C223 0.961 . S
H238 C223 0.961 . S
H239 C223 0.961 . S
H240 C224 0.931 1_556 S
H241 C229 0.930 . S
H242 C230 0.956 . S
H243 C230 0.961 1_545 S
H244 C230 0.961 . S
H245 C231 0.958 . S
H246 C231 0.961 . S
H247 C231 0.960 1_545 S
C248 C249 1.391 . S
C248 C250 1.394 . S
C248 H264 0.931 . S
C249 C248 1.391 . S
C249 C253 1.376 . S
C250 C248 1.394 . S
C250 C251 1.369 . S
C250 C254 1.531 . S
C251 C250 1.369 . S
C251 C252 1.410 1_655 S
C251 C259 1.503 1_655 S
C252 C251 1.410 1_455 S
C252 C253 1.392 1_455 S
C252 C255 1.511 . S
C253 C249 1.376 . S
C253 C252 1.392 1_655 S
C253 H265 0.929 . S
C254 C250 1.531 . S
C254 H266 0.960 . S
C254 H267 0.962 . S
C254 H268 0.960 . S
C255 C252 1.511 . S
C255 H269 0.961 . S
C255 H270 0.961 . S
C255 H271 0.961 . S
C256 C257 1.370 . S
C256 C258 1.363 . S
C256 H272 0.931 . S
C257 C256 1.370 . S
C257 C261 1.408 . S
C258 C256 1.363 . S
C258 C259 1.370 . S
C258 C262 1.524 . S
C259 C251 1.503 1_455 S
C259 C258 1.370 . S
C259 C260 1.403 . S
C260 C259 1.403 . S
C260 C261 1.404 . S
C260 C263 1.539 . S
C261 C257 1.408 . S
C261 C260 1.404 . S
C261 H273 0.930 . S
C262 C258 1.524 . S
C262 H274 0.956 1_455 S
C262 H275 0.961 . S
C262 H276 0.961 . S
C263 C260 1.539 . S
C263 H277 0.958 1_455 S
C263 H278 0.961 . S
C263 H279 0.960 . S
H264 C248 0.931 . S
H265 C253 0.929 . S
H266 C254 0.960 . S
H267 C254 0.962 . S
H268 C254 0.960 . S
H269 C255 0.961 . S
H270 C255 0.961 . S
H271 C255 0.961 . S
H272 C256 0.931 . S
H273 C261 0.930 . S
H274 C262 0.956 1_655 S
H275 C262 0.961 . S
H276 C262 0.961 . S
H277 C263 0.958 1_655 S
H278 C263 0.961 . S
H279 C263 0.960 . S
C280 C281 1.391 . S
C280 C282 1.394 . S
C280 H296 0.931 . S
C281 C280 1.391 . S
C281 C285 1.376 . S
C282 C280 1.394 . S
C282 C283 1.369 . S
C282 C286 1.531 . S
C283 C282 1.369 . S
C283 C284 1.410 . S
C283 C291 1.503 . S
C284 C283 1.410 . S
C284 C285 1.392 . S
C284 C287 1.511 . S
C285 C281 1.376 . S
C285 C284 1.392 . S
C285 H297 0.929 . S
C286 C282 1.531 . S
C286 H298 0.960 . S
C286 H299 0.962 . S
C286 H300 0.960 . S
C287 C284 1.511 . S
C287 H301 0.961 . S
C287 H302 0.961 . S
C287 H303 0.961 . S
C288 C289 1.370 . S
C288 C290 1.363 . S
C288 H304 0.931 . S
C289 C288 1.370 . S
C289 C293 1.408 . S
C290 C288 1.363 . S
C290 C291 1.370 . S
C290 C294 1.524 . S
C291 C283 1.503 . S
C291 C290 1.370 . S
C291 C292 1.403 . S
C292 C291 1.403 . S
C292 C293 1.404 . S
C292 C295 1.539 . S
C293 C289 1.408 . S
C293 C292 1.404 . S
C293 H305 0.930 . S
C294 C290 1.524 . S
C294 H306 0.956 . S
C294 H307 0.961 . S
C294 H308 0.961 . S
C295 C292 1.539 . S
C295 H309 0.958 . S
C295 H310 0.961 . S
C295 H311 0.960 . S
H296 C280 0.931 . S
H297 C285 0.929 . S
H298 C286 0.960 . S
H299 C286 0.962 . S
H300 C286 0.960 . S
H301 C287 0.961 . S
H302 C287 0.961 . S
H303 C287 0.961 . S
H304 C288 0.931 . S
H305 C293 0.930 . S
H306 C294 0.956 . S
H307 C294 0.961 . S
H308 C294 0.961 . S
H309 C295 0.958 . S
H310 C295 0.961 . S
H311 C295 0.960 . S
C57 C23 1.095 . S
C65 C9 1.076 . S
C89 C7 0.951 . S
C97 C21 0.980 . S
C121 C51 1.089 . S
C129 C37 1.078 . S
C153 C35 0.999 . S
C161 C49 0.955 . S
C185 C3 1.543 . S
C193 C31 1.514 . S
C217 C45 1.537 . S
C225 C17 1.515 . S
C249 C36 1.550 . S
C257 C8 1.536 . S
C281 C22 1.524 . S
C289 C50 1.546 . S
