# Generated by pormake.
# Topology wio, (6)-cn, num edge types: 1
# Building blocks:
#     Node 0, Type 0, BuildingBlock: BETGAK_clean_sbu_0, # of connection points: 6
#     Node 1, Type 0, BuildingBlock: BETGAK_clean_sbu_0, # of connection points: 6
#     Node 2, Type 0, BuildingBlock: BETGAK_clean_sbu_0, # of connection points: 6
#     Node 3, Type 0, BuildingBlock: BETGAK_clean_sbu_0, # of connection points: 6
#     Node 4, Type 0, BuildingBlock: BETGAK_clean_sbu_0, # of connection points: 6
#     Node 5, Type 0, BuildingBlock: BETGAK_clean_sbu_0, # of connection points: 6
#     Node 6, Type 0, BuildingBlock: BETGAK_clean_sbu_0, # of connection points: 6
#     Node 7, Type 0, BuildingBlock: BETGAK_clean_sbu_0, # of connection points: 6
#     Node 8, Type 0, BuildingBlock: BETGAK_clean_sbu_0, # of connection points: 6
#     Node 9, Type 0, BuildingBlock: BETGAK_clean_sbu_0, # of connection points: 6
#     Node 10, Type 0, BuildingBlock: BETGAK_clean_sbu_0, # of connection points: 6
#     Node 11, Type 0, BuildingBlock: BETGAK_clean_sbu_0, # of connection points: 6
#     Node 12, Type 0, BuildingBlock: BETGAK_clean_sbu_0, # of connection points: 6
#     Node 13, Type 0, BuildingBlock: BETGAK_clean_sbu_0, # of connection points: 6
#     Node 14, Type 0, BuildingBlock: BETGAK_clean_sbu_0, # of connection points: 6
#     Node 15, Type 0, BuildingBlock: BETGAK_clean_sbu_0, # of connection points: 6
#     Node 16, Type 0, BuildingBlock: BETGAK_clean_sbu_0, # of connection points: 6
#     Node 17, Type 0, BuildingBlock: BETGAK_clean_sbu_0, # of connection points: 6
#     Node 18, Type 0, BuildingBlock: BETGAK_clean_sbu_0, # of connection points: 6
#     Node 19, Type 0, BuildingBlock: BETGAK_clean_sbu_0, # of connection points: 6
#     Node 20, Type 0, BuildingBlock: BETGAK_clean_sbu_0, # of connection points: 6
#     Node 21, Type 0, BuildingBlock: BETGAK_clean_sbu_0, # of connection points: 6
#     Node 22, Type 0, BuildingBlock: BETGAK_clean_sbu_0, # of connection points: 6
#     Node 23, Type 0, BuildingBlock: BETGAK_clean_sbu_0, # of connection points: 6
#     Node 24, Type 0, BuildingBlock: BETGAK_clean_sbu_0, # of connection points: 6
#     Node 25, Type 0, BuildingBlock: BETGAK_clean_sbu_0, # of connection points: 6
#     Node 26, Type 0, BuildingBlock: BETGAK_clean_sbu_0, # of connection points: 6
#     Node 27, Type 0, BuildingBlock: BETGAK_clean_sbu_0, # of connection points: 6
#     Node 28, Type 0, BuildingBlock: BETGAK_clean_sbu_0, # of connection points: 6
#     Node 29, Type 0, BuildingBlock: BETGAK_clean_sbu_0, # of connection points: 6
#     Node 30, Type 0, BuildingBlock: BETGAK_clean_sbu_0, # of connection points: 6
#     Node 31, Type 0, BuildingBlock: BETGAK_clean_sbu_0, # of connection points: 6
#     Edge 32, Type (0, 0), BuildingBlock: OJICUG_clean_linker_0, # of connection points: 2
#     Edge 33, Type (0, 0), BuildingBlock: OJICUG_clean_linker_0, # of connection points: 2
#     Edge 34, Type (0, 0), BuildingBlock: OJICUG_clean_linker_0, # of connection points: 2
#     Edge 35, Type (0, 0), BuildingBlock: OJICUG_clean_linker_0, # of connection points: 2
#     Edge 36, Type (0, 0), BuildingBlock: OJICUG_clean_linker_0, # of connection points: 2
#     Edge 37, Type (0, 0), BuildingBlock: OJICUG_clean_linker_0, # of connection points: 2
#     Edge 38, Type (0, 0), BuildingBlock: OJICUG_clean_linker_0, # of connection points: 2
#     Edge 39, Type (0, 0), BuildingBlock: OJICUG_clean_linker_0, # of connection points: 2
#     Edge 40, Type (0, 0), BuildingBlock: OJICUG_clean_linker_0, # of connection points: 2
#     Edge 41, Type (0, 0), BuildingBlock: OJICUG_clean_linker_0, # of connection points: 2
#     Edge 42, Type (0, 0), BuildingBlock: OJICUG_clean_linker_0, # of connection points: 2
#     Edge 43, Type (0, 0), BuildingBlock: OJICUG_clean_linker_0, # of connection points: 2
#     Edge 44, Type (0, 0), BuildingBlock: OJICUG_clean_linker_0, # of connection points: 2
#     Edge 45, Type (0, 0), BuildingBlock: OJICUG_clean_linker_0, # of connection points: 2
#     Edge 46, Type (0, 0), BuildingBlock: OJICUG_clean_linker_0, # of connection points: 2
#     Edge 47, Type (0, 0), BuildingBlock: OJICUG_clean_linker_0, # of connection points: 2
#     Edge 48, Type (0, 0), BuildingBlock: OJICUG_clean_linker_0, # of connection points: 2
#     Edge 49, Type (0, 0), BuildingBlock: OJICUG_clean_linker_0, # of connection points: 2
#     Edge 50, Type (0, 0), BuildingBlock: OJICUG_clean_linker_0, # of connection points: 2
#     Edge 51, Type (0, 0), BuildingBlock: OJICUG_clean_linker_0, # of connection points: 2
#     Edge 52, Type (0, 0), BuildingBlock: OJICUG_clean_linker_0, # of connection points: 2
#     Edge 53, Type (0, 0), BuildingBlock: OJICUG_clean_linker_0, # of connection points: 2
#     Edge 54, Type (0, 0), BuildingBlock: OJICUG_clean_linker_0, # of connection points: 2
#     Edge 55, Type (0, 0), BuildingBlock: OJICUG_clean_linker_0, # of connection points: 2
#     Edge 56, Type (0, 0), BuildingBlock: OJICUG_clean_linker_0, # of connection points: 2
#     Edge 57, Type (0, 0), BuildingBlock: OJICUG_clean_linker_0, # of connection points: 2
#     Edge 58, Type (0, 0), BuildingBlock: OJICUG_clean_linker_0, # of connection points: 2
#     Edge 59, Type (0, 0), BuildingBlock: OJICUG_clean_linker_0, # of connection points: 2
#     Edge 60, Type (0, 0), BuildingBlock: OJICUG_clean_linker_0, # of connection points: 2
#     Edge 61, Type (0, 0), BuildingBlock: OJICUG_clean_linker_0, # of connection points: 2
#     Edge 62, Type (0, 0), BuildingBlock: OJICUG_clean_linker_0, # of connection points: 2
#     Edge 63, Type (0, 0), BuildingBlock: OJICUG_clean_linker_0, # of connection points: 2
#     Edge 64, Type (0, 0), BuildingBlock: OJICUG_clean_linker_0, # of connection points: 2
#     Edge 65, Type (0, 0), BuildingBlock: OJICUG_clean_linker_0, # of connection points: 2
#     Edge 66, Type (0, 0), BuildingBlock: OJICUG_clean_linker_0, # of connection points: 2
#     Edge 67, Type (0, 0), BuildingBlock: OJICUG_clean_linker_0, # of connection points: 2
#     Edge 68, Type (0, 0), BuildingBlock: OJICUG_clean_linker_0, # of connection points: 2
#     Edge 69, Type (0, 0), BuildingBlock: OJICUG_clean_linker_0, # of connection points: 2
#     Edge 70, Type (0, 0), BuildingBlock: OJICUG_clean_linker_0, # of connection points: 2
#     Edge 71, Type (0, 0), BuildingBlock: OJICUG_clean_linker_0, # of connection points: 2
#     Edge 72, Type (0, 0), BuildingBlock: OJICUG_clean_linker_0, # of connection points: 2
#     Edge 73, Type (0, 0), BuildingBlock: OJICUG_clean_linker_0, # of connection points: 2
#     Edge 74, Type (0, 0), BuildingBlock: OJICUG_clean_linker_0, # of connection points: 2
#     Edge 75, Type (0, 0), BuildingBlock: OJICUG_clean_linker_0, # of connection points: 2
#     Edge 76, Type (0, 0), BuildingBlock: OJICUG_clean_linker_0, # of connection points: 2
#     Edge 77, Type (0, 0), BuildingBlock: OJICUG_clean_linker_0, # of connection points: 2
#     Edge 78, Type (0, 0), BuildingBlock: OJICUG_clean_linker_0, # of connection points: 2
#     Edge 79, Type (0, 0), BuildingBlock: OJICUG_clean_linker_0, # of connection points: 2
#     Edge 80, Type (0, 0), BuildingBlock: OJICUG_clean_linker_0, # of connection points: 2
#     Edge 81, Type (0, 0), BuildingBlock: OJICUG_clean_linker_0, # of connection points: 2
#     Edge 82, Type (0, 0), BuildingBlock: OJICUG_clean_linker_0, # of connection points: 2
#     Edge 83, Type (0, 0), BuildingBlock: OJICUG_clean_linker_0, # of connection points: 2
#     Edge 84, Type (0, 0), BuildingBlock: OJICUG_clean_linker_0, # of connection points: 2
#     Edge 85, Type (0, 0), BuildingBlock: OJICUG_clean_linker_0, # of connection points: 2
#     Edge 86, Type (0, 0), BuildingBlock: OJICUG_clean_linker_0, # of connection points: 2
#     Edge 87, Type (0, 0), BuildingBlock: OJICUG_clean_linker_0, # of connection points: 2
#     Edge 88, Type (0, 0), BuildingBlock: OJICUG_clean_linker_0, # of connection points: 2
#     Edge 89, Type (0, 0), BuildingBlock: OJICUG_clean_linker_0, # of connection points: 2
#     Edge 90, Type (0, 0), BuildingBlock: OJICUG_clean_linker_0, # of connection points: 2
#     Edge 91, Type (0, 0), BuildingBlock: OJICUG_clean_linker_0, # of connection points: 2
#     Edge 92, Type (0, 0), BuildingBlock: OJICUG_clean_linker_0, # of connection points: 2
#     Edge 93, Type (0, 0), BuildingBlock: OJICUG_clean_linker_0, # of connection points: 2
#     Edge 94, Type (0, 0), BuildingBlock: OJICUG_clean_linker_0, # of connection points: 2
#     Edge 95, Type (0, 0), BuildingBlock: OJICUG_clean_linker_0, # of connection points: 2
#     Edge 96, Type (0, 0), BuildingBlock: OJICUG_clean_linker_0, # of connection points: 2
#     Edge 97, Type (0, 0), BuildingBlock: OJICUG_clean_linker_0, # of connection points: 2
#     Edge 98, Type (0, 0), BuildingBlock: OJICUG_clean_linker_0, # of connection points: 2
#     Edge 99, Type (0, 0), BuildingBlock: OJICUG_clean_linker_0, # of connection points: 2
#     Edge 100, Type (0, 0), BuildingBlock: OJICUG_clean_linker_0, # of connection points: 2
#     Edge 101, Type (0, 0), BuildingBlock: OJICUG_clean_linker_0, # of connection points: 2
#     Edge 102, Type (0, 0), BuildingBlock: OJICUG_clean_linker_0, # of connection points: 2
#     Edge 103, Type (0, 0), BuildingBlock: OJICUG_clean_linker_0, # of connection points: 2
#     Edge 104, Type (0, 0), BuildingBlock: OJICUG_clean_linker_0, # of connection points: 2
#     Edge 105, Type (0, 0), BuildingBlock: OJICUG_clean_linker_0, # of connection points: 2
#     Edge 106, Type (0, 0), BuildingBlock: OJICUG_clean_linker_0, # of connection points: 2
#     Edge 107, Type (0, 0), BuildingBlock: OJICUG_clean_linker_0, # of connection points: 2
#     Edge 108, Type (0, 0), BuildingBlock: OJICUG_clean_linker_0, # of connection points: 2
#     Edge 109, Type (0, 0), BuildingBlock: OJICUG_clean_linker_0, # of connection points: 2
#     Edge 110, Type (0, 0), BuildingBlock: OJICUG_clean_linker_0, # of connection points: 2
#     Edge 111, Type (0, 0), BuildingBlock: OJICUG_clean_linker_0, # of connection points: 2
#     Edge 112, Type (0, 0), BuildingBlock: OJICUG_clean_linker_0, # of connection points: 2
#     Edge 113, Type (0, 0), BuildingBlock: OJICUG_clean_linker_0, # of connection points: 2
#     Edge 114, Type (0, 0), BuildingBlock: OJICUG_clean_linker_0, # of connection points: 2
#     Edge 115, Type (0, 0), BuildingBlock: OJICUG_clean_linker_0, # of connection points: 2
#     Edge 116, Type (0, 0), BuildingBlock: OJICUG_clean_linker_0, # of connection points: 2
#     Edge 117, Type (0, 0), BuildingBlock: OJICUG_clean_linker_0, # of connection points: 2
#     Edge 118, Type (0, 0), BuildingBlock: OJICUG_clean_linker_0, # of connection points: 2
#     Edge 119, Type (0, 0), BuildingBlock: OJICUG_clean_linker_0, # of connection points: 2
#     Edge 120, Type (0, 0), BuildingBlock: OJICUG_clean_linker_0, # of connection points: 2
#     Edge 121, Type (0, 0), BuildingBlock: OJICUG_clean_linker_0, # of connection points: 2
#     Edge 122, Type (0, 0), BuildingBlock: OJICUG_clean_linker_0, # of connection points: 2
#     Edge 123, Type (0, 0), BuildingBlock: OJICUG_clean_linker_0, # of connection points: 2
#     Edge 124, Type (0, 0), BuildingBlock: OJICUG_clean_linker_0, # of connection points: 2
#     Edge 125, Type (0, 0), BuildingBlock: OJICUG_clean_linker_0, # of connection points: 2
#     Edge 126, Type (0, 0), BuildingBlock: OJICUG_clean_linker_0, # of connection points: 2
#     Edge 127, Type (0, 0), BuildingBlock: OJICUG_clean_linker_0, # of connection points: 2
# Relax obj value: 0.221
# Max RMSD: 0.247
# Mean RMSD: 0.247
data_MOF--net-wio--node1-BETGAK_clean_sbu_0--edge1-OJICUG_clean_linker_0
_symmetry_space_group_name_H-M    P1
_symmetry_Int_Tables_number       1
_symmetry_cell_setting            triclinic
loop_
_symmetry_equiv_pos_as_xyz
'x, y, z'
_cell_length_a     48.636112
_cell_length_b     48.596045
_cell_length_c     41.014321
_cell_angle_alpha  89.97686
_cell_angle_beta   89.997055
_cell_angle_gamma 89.988806
loop_
_atom_site_label
_atom_site_type_symbol
_atom_site_fract_x
_atom_site_fract_y
_atom_site_fract_z
_atom_type_partial_charge
La0 La 0.16268 0.11702 0.30998 0.0
La1 La 0.1038 0.13051 0.3254 0.0
C2 C 0.20772 0.09846 0.28916 0.0
C3 C 0.23064 0.10847 0.26921 0.0
C4 C 0.25711 0.09853 0.2756 0.0
C5 C 0.27951 0.10805 0.25763 0.0
C6 C 0.27581 0.12766 0.23279 0.0
C7 C 0.24926 0.13813 0.22701 0.0
C8 C 0.22683 0.12867 0.24518 0.0
C9 C 0.15616 0.16492 0.33963 0.0
C10 C 0.12613 0.14329 0.25352 0.0
C11 C 0.06128 0.15113 0.35207 0.0
C12 C 0.04155 0.14727 0.37973 0.0
C13 C 1.01448 0.13877 0.37328 0.0
C14 C 0.99489 0.1372 0.39831 0.0
C15 C 1.00161 0.14417 0.43073 0.0
C16 C 0.02866 0.15298 0.4372 0.0
C17 C 0.04836 0.15452 0.41206 0.0
C18 C 0.11144 0.07885 0.30333 0.0
C19 C 0.1418 0.10099 0.37901 0.0
O20 O 0.20483 0.11095 0.31712 0.0
O21 O 0.18411 0.09428 0.27453 0.0
O22 O 0.17802 0.14996 0.34065 0.0
O23 O 0.14 0.15471 0.31854 0.0
O24 O 0.14869 0.12989 0.2617 0.0
O25 O 0.10635 0.14844 0.2753 0.0
O26 O 0.06049 0.13362 0.32783 0.0
O27 O 0.08652 0.15828 0.359 0.0
O28 O 0.08914 0.09325 0.29983 0.0
O29 O 0.12713 0.09308 0.32086 0.0
O30 O 0.11938 0.1159 0.37342 0.0
O31 O 0.15867 0.09441 0.35505 0.0
H32 H 0.26045 0.08329 0.2945 0.0
H33 H 0.29973 0.09982 0.26292 0.0
H34 H 0.24566 0.15296 0.20775 0.0
H35 H 0.20654 0.1369 0.24027 0.0
H36 H 1.00826 0.13371 0.34864 0.0
H37 H 0.97421 0.13086 0.39204 0.0
H38 H 0.03474 0.15835 0.46178 0.0
H39 H 0.06886 0.16164 0.41796 0.0
La40 La 0.17107 0.91493 0.56347 0.0
La41 La 0.157 0.85511 0.57415 0.0
C42 C 0.19082 0.96017 0.54468 0.0
C43 C 0.18207 0.98285 0.52349 0.0
C44 C 0.15927 0.98011 0.50282 0.0
C45 C 0.15087 1.0022 0.48333 0.0
C46 C 0.16504 0.02743 0.48446 0.0
C47 C 0.1874 0.0302 0.506 0.0
C48 C 0.19585 1.00807 0.52527 0.0
C49 C 0.12359 0.90739 0.59296 0.0
C50 C 0.14348 0.88158 0.50446 0.0
C51 C 0.13581 0.81171 0.59813 0.0
C52 C 0.13879 0.7916 0.62557 0.0
C53 C 0.14418 0.76387 0.61845 0.0
C54 C 0.14523 0.74404 0.64328 0.0
C55 C 0.14089 0.75121 0.67621 0.0
C56 C 0.13507 0.77897 0.68338 0.0
C57 C 0.13404 0.79892 0.6584 0.0
C58 C 0.20888 0.86383 0.55355 0.0
C59 C 0.18565 0.89006 0.6312 0.0
O60 O 0.17622 0.95716 0.57116 0.0
O61 O 0.19625 0.93655 0.53057 0.0
O62 O 0.13875 0.92909 0.59548 0.0
O63 O 0.13335 0.89215 0.57054 0.0
O64 O 0.15559 0.9042 0.51515 0.0
O65 O 0.14001 0.85975 0.52385 0.0
O66 O 0.15449 0.81165 0.57514 0.0
O67 O 0.12782 0.8367 0.60511 0.0
O68 O 0.19451 0.84177 0.54809 0.0
O69 O 0.19443 0.87857 0.57196 0.0
O70 O 0.17155 0.86767 0.62321 0.0
O71 O 0.19206 0.90893 0.60933 0.0
H72 H 0.14811 0.96089 0.50167 0.0
H73 H 0.13381 0.99924 0.46673 0.0
H74 H 0.19853 0.04944 0.50777 0.0
H75 H 0.21318 1.01066 0.54159 0.0
H76 H 0.1473 0.75737 0.59346 0.0
H77 H 0.14925 0.72288 0.63651 0.0
H78 H 0.13178 0.78539 0.70835 0.0
H79 H 0.12942 0.82003 0.66485 0.0
La80 La 0.37473 0.92146 0.81135 0.0
La81 La 0.43344 0.90717 0.82649 0.0
C82 C 0.33035 0.9407 0.78956 0.0
C83 C 0.30774 0.9308 0.7689 0.0
C84 C 0.29781 0.90372 0.7715 0.0
C85 C 0.27532 0.8952 0.75283 0.0
C86 C 0.26252 0.91356 0.73112 0.0
C87 C 0.273 0.94048 0.72819 0.0
C88 C 0.2953 0.94902 0.74702 0.0
C89 C 0.38054 0.87333 0.8408 0.0
C90 C 0.41092 0.89504 0.75463 0.0
C91 C 0.47571 0.88574 0.85278 0.0
C92 C 0.49606 0.88933 0.87978 0.0
C93 C 0.52359 0.8952 0.87217 0.0
C94 C 0.54366 0.89652 0.89663 0.0
C95 C 0.53695 0.89195 0.92965 0.0
C96 C 0.50942 0.88568 0.93732 0.0
C97 C 0.48923 0.88438 0.91271 0.0
C98 C 0.42635 0.95912 0.80486 0.0
C99 C 0.39593 0.93685 0.88043 0.0
O100 O 0.33278 0.92872 0.81794 0.0
O101 O 0.35416 0.94453 0.77532 0.0
O102 O 0.3588 0.8885 0.84163 0.0
O103 O 0.39689 0.88342 0.81978 0.0
O104 O 0.38866 0.90885 0.76299 0.0
O105 O 0.43055 0.88932 0.77638 0.0
O106 O 0.47666 0.90284 0.82812 0.0
O107 O 0.45038 0.87956 0.86051 0.0
O108 O 0.44854 0.94455 0.80134 0.0
O109 O 0.41056 0.94491 0.82227 0.0
O110 O 0.41825 0.92186 0.8746 0.0
O111 O 0.37891 0.94363 0.85668 0.0
H112 H 0.30722 0.88923 0.78819 0.0
H113 H 0.26777 0.87438 0.75572 0.0
H114 H 0.26418 0.95495 0.71104 0.0
H115 H 0.30279 0.96992 0.74455 0.0
H116 H 0.52975 0.89842 0.84707 0.0
H117 H 0.56466 0.90087 0.88952 0.0
H118 H 0.50338 0.8822 0.96239 0.0
H119 H 0.46832 0.87931 0.91952 0.0
La120 La 0.36658 0.12505 0.06191 0.0
La121 La 0.37989 0.18483 0.07327 0.0
C122 C 0.34725 0.07972 1.04293 0.0
C123 C 0.35613 0.0568 1.02222 0.0
C124 C 0.37812 0.05968 1.00037 0.0
C125 C 0.38667 0.03728 0.98151 0.0
C126 C 0.37343 1.01164 0.98441 0.0
C127 C 0.35187 1.00879 1.00704 0.0
C128 C 0.3433 0.0312 1.02573 0.0
C129 C 0.41372 0.1328 0.09219 0.0
C130 C 0.39418 0.15883 1.00332 0.0
C131 C 0.4002 0.22837 0.0981 0.0
C132 C 0.39684 0.24797 0.12607 0.0
C133 C 0.38834 0.27513 0.12001 0.0
C134 C 0.38705 0.2946 0.14523 0.0
C135 C 0.39428 0.28769 0.17755 0.0
C136 C 0.40312 0.26054 0.18363 0.0
C137 C 0.40439 0.24096 0.15826 0.0
C138 C 0.3282 0.17576 1.05209 0.0
C139 C 0.35102 0.1491 0.12961 0.0
O140 O 0.36147 0.08283 0.06967 0.0
O141 O 0.34207 0.10326 1.02849 0.0
O142 O 0.39866 0.11101 0.09433 0.0
O143 O 0.4041 0.14811 0.06971 0.0
O144 O 0.38234 0.136 1.0138 0.0
O145 O 0.39717 0.18065 1.02289 0.0
O146 O 0.38149 0.22833 0.07514 0.0
O147 O 0.4088 0.20346 0.10444 0.0
O148 O 0.34244 0.19796 1.04688 0.0
O149 O 0.34271 0.16105 0.0705 0.0
O150 O 0.36524 0.17157 0.12216 0.0
O151 O 0.34481 0.13061 0.10725 0.0
H152 H 0.38852 0.07925 0.99779 0.0
H153 H 0.40307 0.04026 0.964 0.0
H154 H 0.34147 0.98926 1.01013 0.0
H155 H 0.32661 0.02853 1.04295 0.0
H156 H 0.38303 0.28151 0.09549 0.0
H157 H 0.38068 0.31534 0.1392 0.0
H158 H 0.40871 0.25427 0.20808 0.0
H159 H 0.41148 0.22037 0.1639 0.0
La160 La 0.16334 0.92143 0.30777 0.0
La161 La 0.10451 0.90659 0.29304 0.0
C162 C 0.2076 0.94103 0.32944 0.0
C163 C 0.23018 0.93109 0.35016 0.0
C164 C 0.23991 0.90392 0.34778 0.0
C165 C 0.26227 0.89528 0.3666 0.0
C166 C 0.27516 0.9136 0.38827 0.0
C167 C 0.26489 0.94062 0.39096 0.0
C168 C 0.24272 0.94929 0.37197 0.0
C169 C 0.15766 0.87278 0.27973 0.0
C170 C 0.1271 0.89553 0.36488 0.0
C171 C 0.06231 0.88478 0.26718 0.0
C172 C 0.04197 0.88829 0.24017 0.0
C173 C 1.01429 0.89336 0.24781 0.0
C174 C 0.99428 0.89477 0.22328 0.0
C175 C 1.00123 0.89107 0.19018 0.0
C176 C 0.02892 0.88557 0.18248 0.0
C177 C 0.04904 0.8842 0.20715 0.0
C178 C 0.11153 0.95875 0.31375 0.0
C179 C 0.14176 0.93563 0.23838 0.0
O180 O 0.20522 0.92904 0.30106 0.0
O181 O 0.18376 0.9448 0.34363 0.0
O182 O 0.17946 0.88786 0.27863 0.0
O183 O 0.14125 0.8833 0.30034 0.0
O184 O 0.14916 0.9096 0.35633 0.0
O185 O 0.10763 0.88916 0.34323 0.0
O186 O 0.06132 0.90201 0.29171 0.0
O187 O 0.08765 0.87864 0.25943 0.0
O188 O 0.08936 0.94421 0.31759 0.0
O189 O 0.12731 0.94441 0.2965 0.0
O190 O 0.11943 0.92084 0.24472 0.0
O191 O 0.15907 0.94266 0.26174 0.0
H192 H 0.23041 0.88944 0.33116 0.0
H193 H 0.26965 0.87438 0.36387 0.0
H194 H 0.27377 0.95508 0.40806 0.0
H195 H 0.23538 0.97026 0.37428 0.0
H196 H 1.00798 0.89594 0.27296 0.0
H197 H 0.97317 0.89853 0.23038 0.0
H198 H 0.03513 0.88279 0.15735 0.0
H199 H 0.07009 0.87979 0.20032 0.0
La200 La 0.36685 0.91391 0.55607 0.0
La201 La 0.38053 0.854 0.54516 0.0
C202 C 0.34715 0.95914 0.57492 0.0
C203 C 0.35591 0.98201 0.59577 0.0
C204 C 0.37828 0.97928 0.61709 0.0
C205 C 0.38673 1.00162 0.63613 0.0
C206 C 0.37301 0.02706 0.63392 0.0
C207 C 0.35106 0.02978 0.61179 0.0
C208 C 0.34259 1.00742 0.59294 0.0
C209 C 0.41413 0.90627 0.52621 0.0
C210 C 0.39441 0.88033 0.61498 0.0
C211 C 0.40111 0.81047 0.52061 0.0
C212 C 0.39787 0.79075 0.49272 0.0
C213 C 0.38958 0.76355 0.49891 0.0
C214 C 0.38837 0.744 0.47376 0.0
C215 C 0.39547 0.75086 0.44138 0.0
C216 C 0.40411 0.77806 0.43518 0.0
C217 C 0.4053 0.79772 0.46047 0.0
C218 C 0.32878 0.8631 0.56602 0.0
C219 C 0.35186 0.88934 0.48835 0.0
O220 O 0.36153 0.95611 0.54827 0.0
O221 O 0.34198 0.93556 0.58927 0.0
O222 O 0.39907 0.92806 0.52401 0.0
O223 O 0.40445 0.89093 0.54863 0.0
O224 O 0.38253 0.90309 0.6043 0.0
O225 O 0.39759 0.85844 0.59557 0.0
O226 O 0.38237 0.81051 0.54354 0.0
O227 O 0.40961 0.8354 0.51417 0.0
O228 O 0.34298 0.8409 0.57138 0.0
O229 O 0.3433 0.87773 0.54757 0.0
O230 O 0.36591 0.86687 0.4962 0.0
O231 O 0.34559 0.90814 0.51034 0.0
H232 H 0.38907 0.95989 0.61911 0.0
H233 H 0.40345 0.99871 0.65323 0.0
H234 H 0.34028 0.04916 0.60922 0.0
H235 H 0.32559 1.00999 0.57612 0.0
H236 H 0.38436 0.7572 0.52346 0.0
H237 H 0.38215 0.72324 0.47989 0.0
H238 H 0.40959 0.7843 0.41069 0.0
H239 H 0.41223 0.81834 0.45473 0.0
La240 La 0.37479 0.11719 0.80738 0.0
La241 La 0.4335 0.13135 0.79195 0.0
C242 C 0.33047 0.09806 0.82944 0.0
C243 C 0.30794 0.10792 0.85029 0.0
C244 C 0.29711 0.1346 0.84685 0.0
C245 C 0.27465 0.14297 0.86568 0.0
C246 C 0.26276 0.12486 0.88838 0.0
C247 C 0.27416 0.0984 0.8922 0.0
C248 C 0.29643 0.09 0.87322 0.0
C249 C 0.3806 0.16519 0.77765 0.0
C250 C 0.41106 0.14386 0.86384 0.0
C251 C 0.47574 0.15269 0.76547 0.0
C252 C 0.49618 0.14911 0.73854 0.0
C253 C 0.52372 0.14337 0.74625 0.0
C254 C 0.54389 0.14217 0.72187 0.0
C255 C 0.53727 0.14674 0.68882 0.0
C256 C 0.50972 0.15286 0.68104 0.0
C257 C 0.48944 0.15404 0.70557 0.0
C258 C 0.42641 0.07946 0.8138 0.0
C259 C 0.39578 0.10154 0.73828 0.0
O260 O 0.3328 0.11006 0.80106 0.0
O261 O 0.35434 0.09412 0.84351 0.0
O262 O 0.35884 0.15004 0.77695 0.0
O263 O 0.39699 0.15516 0.79868 0.0
O264 O 0.38873 0.13012 0.85561 0.0
O265 O 0.43072 0.14934 0.84203 0.0
O266 O 0.47673 0.1357 0.79024 0.0
O267 O 0.4504 0.15876 0.75767 0.0
O268 O 0.44865 0.09399 0.81713 0.0
O269 O 0.41058 0.09367 0.79643 0.0
O270 O 0.41814 0.11652 0.74396 0.0
O271 O 0.37882 0.09488 0.76213 0.0
H272 H 0.30577 0.14888 0.82936 0.0
H273 H 0.26638 0.16344 0.86211 0.0
H274 H 0.26605 0.08417 0.9101 0.0
H275 H 0.3046 0.06942 0.87636 0.0
H276 H 0.52983 0.14018 0.77137 0.0
H277 H 0.56489 0.13794 0.72908 0.0
H278 H 0.50373 0.15633 0.65595 0.0
H279 H 0.46853 0.15902 0.69868 0.0
La280 La 0.17019 0.12471 1.0558 0.0
La281 La 0.15643 0.18436 1.04415 0.0
C282 C 0.18978 0.08018 0.07665 0.0
C283 C 0.18062 0.05773 0.09823 0.0
C284 C 0.15501 0.04478 0.09385 0.0
C285 C 0.14742 0.02249 0.11344 0.0
C286 C 0.16522 1.01283 0.13789 0.0
C287 C 0.19055 0.02631 0.14263 0.0
C288 C 0.19821 0.04841 0.12288 0.0
C289 C 0.12294 0.13184 1.02569 0.0
C290 C 0.14233 0.15851 0.11416 0.0
C291 C 0.13545 0.22759 1.01946 0.0
C292 C 0.13868 0.24763 0.99198 0.0
C293 C 0.14464 0.27527 0.999 0.0
C294 C 0.14584 0.29506 0.97415 0.0
C295 C 0.14108 0.28796 0.94128 0.0
C296 C 0.13472 0.26031 0.9342 0.0
C297 C 0.13354 0.2404 0.95921 0.0
C298 C 0.20828 0.17572 0.06506 0.0
C299 C 0.18533 0.14868 0.98781 0.0
O300 O 0.17663 0.08264 1.04899 0.0
O301 O 0.19473 0.10406 0.09037 0.0
O302 O 0.13804 0.11003 1.02393 0.0
O303 O 0.13252 0.14744 1.04792 0.0
O304 O 0.15391 0.13557 0.10369 0.0
O305 O 0.13945 0.18034 0.09461 0.0
O306 O 0.15382 0.2278 1.0428 0.0
O307 O 0.12765 0.20255 1.01248 0.0
O308 O 0.19398 0.19792 0.07004 0.0
O309 O 0.19376 0.16084 1.04691 0.0
O310 O 0.17136 0.17127 0.99541 0.0
O311 O 0.19142 0.12995 1.00998 0.0
H312 H 0.14093 0.05164 0.07506 0.0
H313 H 0.12783 1.01258 0.10907 0.0
H314 H 0.20447 0.01995 0.16181 0.0
H315 H 0.21797 0.05817 0.12678 0.0
H316 H 0.14806 0.28173 1.02396 0.0
H317 H 0.15027 0.31615 0.98086 0.0
H318 H 0.1311 0.25394 0.90927 0.0
H319 H 0.12846 0.21938 0.95283 0.0
La320 La 0.93394 0.90644 0.79327 0.0
La321 La 0.87508 0.92121 0.80845 0.0
C322 C 0.97603 0.88462 0.76715 0.0
C323 C 0.99635 0.88826 0.74015 0.0
C324 C 0.02402 0.89341 0.74776 0.0
C325 C 0.04401 0.89494 0.72322 0.0
C326 C 0.03705 0.89131 0.69012 0.0
C327 C 1.00937 0.88574 0.68243 0.0
C328 C 0.98928 0.88423 0.70712 0.0
C329 C 0.92698 0.95863 0.81377 0.0
C330 C 0.89635 0.93523 0.73884 0.0
C331 C 0.83088 0.94089 0.83016 0.0
C332 C 0.80825 0.93087 0.85067 0.0
C333 C 0.79915 0.90346 0.84875 0.0
C334 C 0.77669 0.89467 0.8673 0.0
C335 C 0.76311 0.91308 0.88826 0.0
C336 C 0.77274 0.94036 0.8905 0.0
C337 C 0.79501 0.94917 0.87176 0.0
C338 C 0.88081 0.87254 0.78041 0.0
C339 C 0.91156 0.89526 0.86527 0.0
O340 O 0.97711 0.90165 0.79187 0.0
O341 O 0.95066 0.87863 0.75938 0.0
O342 O 0.94926 0.9442 0.81728 0.0
O343 O 0.91101 0.94422 0.79687 0.0
O344 O 0.91872 0.92046 0.74502 0.0
O345 O 0.8792 0.94234 0.76233 0.0
O346 O 0.83327 0.92908 0.80168 0.0
O347 O 0.85471 0.94443 0.84447 0.0
O348 O 0.85891 0.88749 0.77952 0.0
O349 O 0.89722 0.88319 0.80088 0.0
O350 O 0.88942 0.90928 0.85691 0.0
O351 O 0.93099 0.88901 0.8435 0.0
H352 H 0.03034 0.89594 0.77292 0.0
H353 H 0.06511 0.89875 0.73031 0.0
H354 H 1.00315 0.88299 0.6573 0.0
H355 H 0.96824 0.87977 0.70029 0.0
H356 H 0.8092 0.88891 0.83267 0.0
H357 H 0.76981 0.87358 0.86494 0.0
H358 H 0.76331 0.95492 0.90706 0.0
H359 H 0.80186 0.97032 0.8737 0.0
La360 La 0.88224 0.18386 0.54282 0.0
La361 La 0.86722 0.12497 0.55772 0.0
C362 C 0.90421 0.22597 0.51677 0.0
C363 C 0.90074 0.24641 0.48979 0.0
C364 C 0.89537 0.27406 0.49743 0.0
C365 C 0.89407 0.29416 0.47294 0.0
C366 C 0.89816 0.28735 0.43987 0.0
C367 C 0.90394 0.2597 0.43216 0.0
C368 C 0.90522 0.23949 0.45679 0.0
C369 C 0.82998 0.17702 0.56315 0.0
C370 C 0.85337 0.14652 0.48817 0.0
C371 C 0.84734 0.08075 0.57928 0.0
C372 C 0.85662 0.05797 0.60024 0.0
C373 C 0.88193 0.04467 0.5949 0.0
C374 C 0.88961 0.02213 0.61404 0.0
C375 C 0.87222 1.01257 0.63894 0.0
C376 C 0.84719 0.02638 0.64459 0.0
C377 C 0.83944 0.04873 0.62532 0.0
C378 C 0.9159 0.13057 0.52969 0.0
C379 C 0.89312 0.16124 0.61482 0.0
O380 O 0.88716 0.22707 0.54147 0.0
O381 O 0.91011 0.20056 0.50897 0.0
O382 O 0.84448 0.19925 0.56681 0.0
O383 O 0.84438 0.16105 0.54621 0.0
O384 O 0.86818 0.16885 0.4945 0.0
O385 O 0.84622 0.12927 0.51155 0.0
O386 O 0.85961 0.08306 0.55106 0.0
O387 O 0.8435 0.10465 0.59335 0.0
O388 O 0.90084 0.10874 0.52871 0.0
O389 O 0.90534 0.14699 0.55027 0.0
O390 O 0.87898 0.13922 0.60626 0.0
O391 O 0.8996 0.18069 0.59313 0.0
H392 H 0.8925 0.28029 0.52256 0.0
H393 H 0.89009 0.31524 0.48008 0.0
H394 H 0.90704 0.25357 0.40705 0.0
H395 H 0.90987 0.21848 0.44994 0.0
H396 H 0.89567 0.05146 0.57574 0.0
H397 H 0.90897 1.01197 0.609 0.0
H398 H 0.83361 0.02008 0.66415 0.0
H399 H 0.81992 0.05877 0.62995 0.0
La400 La 0.60455 0.13239 0.2921 0.0
La401 La 0.6634 0.11785 0.30687 0.0
C402 C 0.56229 0.15394 0.2659 0.0
C403 C 0.5419 0.15031 0.2389 0.0
C404 C 0.51443 0.1441 0.24647 0.0
C405 C 0.49433 0.14272 0.22201 0.0
C406 C 0.50095 0.14759 0.18902 0.0
C407 C 0.52842 0.15419 0.18139 0.0
C408 C 0.54862 0.15554 0.20599 0.0
C409 C 0.61153 0.08042 0.31346 0.0
C410 C 0.64178 0.10281 0.23778 0.0
C411 C 0.7078 0.09843 0.32845 0.0
C412 C 0.73046 0.10771 0.34958 0.0
C413 C 0.7437 0.13308 0.34444 0.0
C414 C 0.76623 0.14068 0.36361 0.0
C415 C 0.77584 0.12311 0.38834 0.0
C416 C 0.76208 0.09802 0.3938 0.0
C417 C 0.73973 0.09037 0.3745 0.0
C418 C 0.6575 0.16606 0.27763 0.0
C419 C 0.6274 0.14425 0.36387 0.0
O420 O 0.56134 0.13688 0.29061 0.0
O421 O 0.58763 0.16009 0.25815 0.0
O422 O 0.58939 0.09504 0.31713 0.0
O423 O 0.62743 0.09456 0.29606 0.0
O424 O 0.61938 0.11756 0.24396 0.0
O425 O 0.65917 0.09613 0.26118 0.0
O426 O 0.70541 0.11092 0.30038 0.0
O427 O 0.68393 0.09419 0.34241 0.0
O428 O 0.67926 0.1509 0.27667 0.0
O429 O 0.64127 0.15589 0.29872 0.0
O430 O 0.64964 0.13047 0.35532 0.0
O431 O 0.60767 0.15005 0.34228 0.0
H432 H 0.50832 0.14065 0.27155 0.0
H433 H 0.47339 0.13812 0.22913 0.0
H434 H 0.53441 0.1579 0.15635 0.0
H435 H 0.56947 0.16087 0.1992 0.0
H436 H 0.73689 0.14694 0.32539 0.0
H437 H 0.77636 0.16009 0.35872 0.0
H438 H 0.76841 0.08431 0.41321 0.0
H439 H 0.72975 0.07078 0.37896 0.0
La440 La 0.65753 0.85427 1.04537 0.0
La441 La 0.67183 0.91402 1.05565 0.0
C442 C 0.63655 0.81085 1.02113 0.0
C443 C 0.63995 0.79076 0.9937 0.0
C444 C 0.64645 0.76322 1.00072 0.0
C445 C 0.64784 0.74341 0.9759 0.0
C446 C 0.64272 0.75036 0.94304 0.0
C447 C 0.63584 0.77791 0.93598 0.0
C448 C 0.63448 0.79783 0.96094 0.0
C449 C 0.70943 0.86285 0.0659 0.0
C450 C 0.68645 0.88907 0.98818 0.0
C451 C 0.69135 0.95879 0.07583 0.0
C452 C 0.68207 0.98123 0.09735 0.0
C453 C 0.65632 0.99393 0.09305 0.0
C454 C 0.64849 1.01606 0.11276 0.0
C455 C 0.66617 0.0258 0.13727 0.0
C456 C 0.69167 1.01257 0.14191 0.0
C457 C 0.69956 0.99063 0.12204 0.0
C458 C 0.62438 0.9067 1.02605 0.0
C459 C 0.64376 0.88118 0.1148 0.0
O460 O 0.65488 0.81081 1.04452 0.0
O461 O 0.62865 0.83585 1.01401 0.0
O462 O 0.69504 0.84081 0.07143 0.0
O463 O 0.69505 0.87761 1.04745 0.0
O464 O 0.67222 0.86678 0.99629 0.0
O465 O 0.69296 0.90798 1.00993 0.0
O466 O 0.67809 0.95608 1.04827 0.0
O467 O 0.69658 0.93502 0.08967 0.0
O468 O 0.63964 0.92835 1.02358 0.0
O469 O 0.634 0.89147 1.04861 0.0
O470 O 0.65607 0.90358 0.10385 0.0
O471 O 0.64024 0.8592 0.09563 0.0
H472 H 0.65015 0.75686 1.02566 0.0
H473 H 0.65267 0.72241 0.98263 0.0
H474 H 0.63193 0.78419 0.91108 0.0
H475 H 0.629 0.81875 0.95454 0.0
H476 H 0.6423 0.98699 0.07425 0.0
H477 H 0.62878 0.02577 0.10845 0.0
H478 H 0.70551 1.01899 0.16113 0.0
H479 H 0.71941 0.98105 0.12591 0.0
La480 La 0.93344 0.13043 0.82439 0.0
La481 La 0.87415 0.11597 0.8128 0.0
C482 C 0.9764 0.15172 0.84927 0.0
C483 C 0.99644 0.14845 0.87671 0.0
C484 C 0.02397 0.14204 0.86971 0.0
C485 C 0.04376 0.14083 0.89454 0.0
C486 C 0.03676 0.14604 0.92735 0.0
C487 C 1.00922 0.15285 0.93439 0.0
C488 C 0.98933 0.15403 0.90941 0.0
C489 C 0.92568 0.07867 0.80304 0.0
C490 C 0.89789 0.10069 0.8805 0.0
C491 C 0.82957 0.09678 0.79173 0.0
C492 C 0.80751 0.10682 0.77028 0.0
C493 C 0.79823 0.13419 0.77193 0.0
C494 C 0.77635 0.14299 0.75243 0.0
C495 C 0.76352 0.12465 0.73075 0.0
C496 C 0.7734 0.09743 0.7287 0.0
C497 C 0.79507 0.0886 0.7484 0.0
C498 C 0.881 0.16348 0.84274 0.0
C499 C 0.90751 0.14429 0.75444 0.0
O500 O 0.97681 0.13354 0.82572 0.0
O501 O 0.95129 0.15918 0.85636 0.0
O502 O 0.94759 0.09337 0.79805 0.0
O503 O 0.91051 0.09268 0.82143 0.0
O504 O 0.92012 0.11537 0.8732 0.0
O505 O 0.87965 0.0941 0.85802 0.0
O506 O 0.8321 0.10955 0.81964 0.0
O507 O 0.85341 0.0918 0.77799 0.0
O508 O 0.85952 0.14801 0.84508 0.0
O509 O 0.89638 0.15394 0.82034 0.0
O510 O 0.88513 0.13166 0.7648 0.0
O511 O 0.92908 0.14802 0.77416 0.0
H512 H 0.03036 0.13828 0.8448 0.0
H513 H 0.06476 0.13605 0.88787 0.0
H514 H 1.00293 0.15683 0.95927 0.0
H515 H 0.96841 0.15948 0.91577 0.0
H516 H 0.80768 0.14872 0.78852 0.0
H517 H 0.76928 0.16403 0.75468 0.0
H518 H 0.76457 0.08293 0.71161 0.0
H519 H 0.8021 0.06749 0.74659 0.0
La520 La 0.65829 0.18476 0.57334 0.0
La521 La 0.67221 0.12509 0.56232 0.0
C522 C 0.63748 0.22811 0.59804 0.0
C523 C 0.64074 0.24777 0.62594 0.0
C524 C 0.64872 0.27506 0.61975 0.0
C525 C 0.65 0.29454 0.64495 0.0
C526 C 0.64327 0.2875 0.67737 0.0
C527 C 0.63491 0.26023 0.68359 0.0
C528 C 0.63366 0.24063 0.65825 0.0
C529 C 0.70997 0.17627 0.55213 0.0
C530 C 0.68754 0.14957 0.62988 0.0
C531 C 0.69175 0.07977 0.5435 0.0
C532 C 0.68287 0.05687 0.52278 0.0
C533 C 0.66044 0.0596 0.50153 0.0
C534 C 0.65189 0.03725 0.48261 0.0
C535 C 0.66554 1.01177 0.48487 0.0
C536 C 0.68752 1.00904 0.50694 0.0
C537 C 0.69611 0.03142 0.52567 0.0
C538 C 0.62498 0.13259 0.59254 0.0
C539 C 0.64435 0.15853 0.50353 0.0
O540 O 0.65613 0.22823 0.57502 0.0
O541 O 0.62919 0.20311 0.6045 0.0
O542 O 0.69547 0.19828 0.54682 0.0
O543 O 0.69579 0.16134 0.57065 0.0
O544 O 0.67324 0.17194 0.62222 0.0
O545 O 0.69386 0.13092 0.60776 0.0
O546 O 0.67748 0.0829 0.57021 0.0
O547 O 0.6969 0.10332 0.52905 0.0
O548 O 0.64027 0.11098 0.59492 0.0
O549 O 0.63449 0.14778 0.5699 0.0
O550 O 0.65644 0.13585 0.51412 0.0
O551 O 0.64106 0.18034 0.52303 0.0
H552 H 0.65367 0.28151 0.59515 0.0
H553 H 0.656 0.31537 0.63884 0.0
H554 H 0.62972 0.25387 0.70814 0.0
H555 H 0.62699 0.21993 0.664 0.0
H556 H 0.64971 0.07902 0.49949 0.0
H557 H 0.63514 0.04016 0.46555 0.0
H558 H 0.69824 0.98963 0.50955 0.0
H559 H 0.71314 0.02885 0.54244 0.0
La560 La 0.60486 0.90807 0.32645 0.0
La561 La 0.66343 0.92282 0.31101 0.0
C562 C 0.56289 0.8862 0.35287 0.0
C563 C 0.54243 0.88961 0.3798 0.0
C564 C 0.51485 0.8952 0.37211 0.0
C565 C 0.49472 0.89632 0.39652 0.0
C566 C 0.50141 0.89182 0.42956 0.0
C567 C 0.52899 0.88583 0.4373 0.0
C568 C 0.54924 0.88473 0.41275 0.0
C569 C 0.61143 0.96012 0.30513 0.0
C570 C 0.64253 0.93772 0.38029 0.0
C571 C 0.70774 0.94206 0.28902 0.0
C572 C 0.73034 0.93199 0.26845 0.0
C573 C 0.74041 0.90499 0.27152 0.0
C574 C 0.76284 0.89629 0.25286 0.0
C575 C 0.77545 0.91439 0.2307 0.0
C576 C 0.76483 0.94121 0.22729 0.0
C577 C 0.74258 0.94993 0.2461 0.0
C578 C 0.65785 0.87434 0.33984 0.0
C579 C 0.62704 0.89667 0.25437 0.0
O580 O 0.5617 0.90315 0.32807 0.0
O581 O 0.5883 0.88045 0.3607 0.0
O582 O 0.58929 0.94546 0.30179 0.0
O583 O 0.62752 0.94602 0.3223 0.0
O584 O 0.62033 0.92252 0.37456 0.0
O585 O 0.65928 0.94484 0.35642 0.0
O586 O 0.70534 0.93036 0.31756 0.0
O587 O 0.68392 0.9457 0.27475 0.0
O588 O 0.67955 0.88957 0.34084 0.0
O589 O 0.64151 0.88467 0.31903 0.0
O590 O 0.649 0.91098 0.26264 0.0
O591 O 0.6078 0.89022 0.27631 0.0
H592 H 0.50871 0.89835 0.34699 0.0
H593 H 0.47369 0.90046 0.38935 0.0
H594 H 0.53502 0.88241 0.46239 0.0
H595 H 0.57019 0.87987 0.41962 0.0
H596 H 0.73114 0.8907 0.28856 0.0
H597 H 0.7705 0.87554 0.25611 0.0
H598 H 0.77351 0.95546 0.20979 0.0
H599 H 0.73497 0.97076 0.24324 0.0
La600 La 0.88114 0.85477 0.07437 0.0
La601 La 0.86724 0.91452 0.06329 0.0
C602 C 0.90229 0.81148 0.09864 0.0
C603 C 0.89916 0.79147 0.12614 0.0
C604 C 0.89321 0.76382 0.11916 0.0
C605 C 0.892 0.74408 0.14406 0.0
C606 C 0.89676 0.75125 0.1769 0.0
C607 C 0.90313 0.77891 0.18393 0.0
C608 C 0.9043 0.79877 0.15889 0.0
C609 C 0.82932 0.86332 1.05359 0.0
C610 C 0.85231 0.88998 0.13105 0.0
C611 C 0.84795 0.95986 1.04428 0.0
C612 C 0.85729 0.98256 1.02345 0.0
C613 C 0.84673 1.00899 1.02869 0.0
C614 C 0.85597 0.03113 1.00995 0.0
C615 C 0.87593 0.02718 0.98556 0.0
C616 C 0.88691 1.00067 0.9809 0.0
C617 C 0.87771 0.97856 0.99978 0.0
C618 C 0.91462 0.9069 0.09308 0.0
C619 C 0.89495 0.88093 1.00459 0.0
O620 O 0.88374 0.81134 0.07551 0.0
O621 O 0.9102 0.8365 0.10559 0.0
O622 O 0.84372 0.84122 1.04839 0.0
O623 O 0.84367 0.87829 0.07186 0.0
O624 O 0.86648 0.86757 0.12332 0.0
O625 O 0.84593 0.90868 0.10897 0.0
O626 O 0.86201 0.95672 0.07115 0.0
O627 O 0.84257 0.9363 1.03001 0.0
O628 O 0.89947 0.92861 0.09551 0.0
O629 O 0.90487 0.89173 0.07061 0.0
O630 O 0.88287 0.90363 1.01508 0.0
O631 O 0.89826 0.85916 1.02411 0.0
H632 H 0.88977 0.75733 0.09422 0.0
H633 H 0.88755 0.72298 0.13741 0.0
H634 H 0.90674 0.78532 0.20884 0.0
H635 H 0.90937 0.8198 0.16522 0.0
H636 H 0.83131 1.01251 1.0473 0.0
H637 H 0.84731 0.05132 1.01437 0.0
H638 H 0.902 0.99684 0.96201 0.0
H639 H 0.88636 0.95834 0.99578 0.0
La640 La 0.66434 0.617 0.81374 0.0
La641 La 0.60494 0.63076 0.82519 0.0
C642 C 0.70908 0.59803 0.79278 0.0
C643 C 0.73126 0.60744 0.77095 0.0
C644 C 0.74464 0.63278 0.77586 0.0
C645 C 0.76662 0.64058 0.75592 0.0
C646 C 0.77555 0.62327 0.73061 0.0
C647 C 0.76164 0.59824 0.72534 0.0
C648 C 0.73984 0.59037 0.74542 0.0
C649 C 0.65713 0.66404 0.8446 0.0
C650 C 0.63103 0.64549 0.75543 0.0
C651 C 0.56158 0.65142 0.84998 0.0
C652 C 0.54144 0.64812 0.87737 0.0
C653 C 0.51404 0.64126 0.87029 0.0
C654 C 0.4941 0.64016 0.89497 0.0
C655 C 0.50078 0.64594 0.92775 0.0
C656 C 0.5282 0.65317 0.93487 0.0
C657 C 0.54826 0.65425 0.91004 0.0
C658 C 0.61339 0.57905 0.80349 0.0
C659 C 0.6406 0.6012 0.88128 0.0
O660 O 0.70652 0.61124 0.82039 0.0
O661 O 0.68524 0.5926 0.77927 0.0
O662 O 0.67871 0.64864 0.84662 0.0
O663 O 0.64177 0.65479 0.82194 0.0
O664 O 0.6536 0.63326 0.76589 0.0
O665 O 0.60925 0.6486 0.77501 0.0
O666 O 0.56151 0.63313 0.82656 0.0
O667 O 0.58656 0.65928 0.85707 0.0
O668 O 0.59141 0.59363 0.79839 0.0
O669 O 0.62823 0.59322 0.82211 0.0
O670 O 0.61822 0.61564 0.87397 0.0
O671 O 0.65898 0.59492 0.85883 0.0
H672 H 0.73839 0.64646 0.79534 0.0
H673 H 0.77689 0.65993 0.7607 0.0
H674 H 0.76745 0.58472 0.70552 0.0
H675 H 0.72974 0.57083 0.74108 0.0
H676 H 0.50786 0.63709 0.8454 0.0
H677 H 0.4732 0.63507 0.88817 0.0
H678 H 0.53428 0.6576 0.95972 0.0
H679 H 0.56906 0.66007 0.91646 0.0
La680 La 0.67227 0.41411 0.06251 0.0
La681 La 0.65893 0.35452 0.07393 0.0
C682 C 0.69111 0.45964 1.0435 0.0
C683 C 0.6815 0.48251 1.02316 0.0
C684 C 0.66064 0.4788 0.99998 0.0
C685 C 0.65133 0.50109 0.98146 0.0
C686 C 0.66264 0.52747 0.98603 0.0
C687 C 0.68299 0.53113 1.01003 0.0
C688 C 0.69234 0.50882 1.02837 0.0
C689 C 0.6252 0.40645 0.09305 0.0
C690 C 0.64462 0.38039 1.00397 0.0
C691 C 0.63858 0.31097 0.09865 0.0
C692 C 0.64187 0.29132 0.12655 0.0
C693 C 0.65002 0.26409 0.12036 0.0
C694 C 0.65129 0.24457 0.14553 0.0
C695 C 0.64438 0.25153 0.17791 0.0
C696 C 0.63587 0.27876 0.18414 0.0
C697 C 0.63464 0.29838 0.15882 0.0
C698 C 0.71045 0.36334 1.05218 0.0
C699 C 0.68827 0.39014 0.13003 0.0
O700 O 0.67743 0.45628 0.0706 0.0
O701 O 0.69628 0.4362 1.02884 0.0
O702 O 0.64043 0.42809 0.0953 0.0
O703 O 0.63466 0.3912 0.07045 0.0
O704 O 0.65654 0.40319 1.01437 0.0
O705 O 0.64153 0.35864 1.02363 0.0
O706 O 0.65736 0.31104 0.07579 0.0
O707 O 0.62997 0.33587 0.10503 0.0
O708 O 0.696 0.34129 1.04697 0.0
O709 O 0.69625 0.3781 0.07086 0.0
O710 O 0.67384 0.36775 0.12277 0.0
O711 O 0.69451 0.40849 0.10752 0.0
H712 H 0.65175 0.45867 0.99606 0.0
H713 H 0.63593 0.49748 0.96287 0.0
H714 H 0.69189 0.55122 1.0144 0.0
H715 H 0.7081 0.51211 1.04664 0.0
H716 H 0.6551 0.2577 0.09578 0.0
H717 H 0.65741 0.22378 0.13942 0.0
H718 H 0.63054 0.28504 0.20866 0.0
H719 H 0.62783 0.31904 0.16456 0.0
La720 La 0.87484 0.42142 0.31249 0.0
La721 La 0.93464 0.40825 0.32347 0.0
C722 C 0.82938 0.44029 0.29338 0.0
C723 C 0.80674 0.43084 0.27256 0.0
C724 C 0.81086 0.41065 0.24864 0.0
C725 C 0.78879 0.4014 0.22975 0.0
C726 C 0.76222 0.41212 0.23464 0.0
C727 C 0.75817 0.43186 0.25926 0.0
C728 C 0.78025 0.44113 0.27802 0.0
C729 C 0.88283 0.3743 0.34275 0.0
C730 C 0.90863 0.39398 0.25371 0.0
C731 C 0.9782 0.38779 0.34794 0.0
C732 C 0.9977 0.39093 0.37597 0.0
C733 C 0.02499 0.39893 0.36995 0.0
C734 C 0.04434 0.40013 0.39527 0.0
C735 C 0.03716 0.3933 0.42761 0.0
C736 C 1.00989 0.38493 0.43365 0.0
C737 C 0.99042 0.38376 0.40819 0.0
C738 C 0.92538 0.45995 0.30233 0.0
C739 C 0.89925 0.43707 0.38006 0.0
O740 O 0.8326 0.42624 0.32025 0.0
O741 O 0.85289 0.44585 0.27911 0.0
O742 O 0.86104 0.38933 0.34504 0.0
O743 O 0.898 0.38395 0.32016 0.0
O744 O 0.88574 0.40558 0.26435 0.0
O745 O 0.93053 0.39115 0.27312 0.0
O746 O 0.97809 0.40681 0.32533 0.0
O747 O 0.95335 0.37899 0.35413 0.0
O748 O 0.94754 0.44571 0.29693 0.0
O749 O 0.91078 0.44543 0.32084 0.0
O750 O 0.92178 0.42308 0.37234 0.0
O751 O 0.88044 0.44307 0.35799 0.0
H752 H 0.83113 0.40221 0.24444 0.0
H753 H 0.79269 0.38649 0.21068 0.0
H754 H 0.73793 0.44031 0.26386 0.0
H755 H 0.77665 0.45638 0.29681 0.0
H756 H 0.03153 0.40395 0.34541 0.0
H757 H 0.06518 0.40615 0.38931 0.0
H758 H 1.00345 0.37967 0.45814 0.0
H759 H 0.96971 0.37708 0.41379 0.0
La760 La 0.8676 0.62656 0.56077 0.0
La761 La 0.88165 0.68542 0.57573 0.0
C762 C 0.84853 0.58217 0.53873 0.0
C763 C 0.85843 0.55979 0.51767 0.0
C764 C 0.88539 0.54956 0.52037 0.0
C765 C 0.89385 0.5272 0.50142 0.0
C766 C 0.87557 0.5148 0.47933 0.0
C767 C 0.84882 0.52563 0.47622 0.0
C768 C 0.84033 0.54781 0.49532 0.0
C769 C 0.91568 0.63255 0.59007 0.0
C770 C 0.89382 0.66293 0.50392 0.0
C771 C 0.90254 0.72785 0.60227 0.0
C772 C 0.89861 0.74753 0.62995 0.0
C773 C 0.89002 0.7746 0.62357 0.0
C774 C 0.88826 0.79411 0.64867 0.0
C775 C 0.89513 0.78728 0.6811 0.0
C776 C 0.90405 0.76024 0.6875 0.0
C777 C 0.90578 0.74063 0.66228 0.0
C778 C 0.82974 0.67803 0.55433 0.0
C779 C 0.8524 0.64775 0.62993 0.0
O780 O 0.8607 0.58448 0.567 0.0
O781 O 0.84436 0.6061 0.52483 0.0
O782 O 0.90065 0.61069 0.59087 0.0
O783 O 0.90551 0.6489 0.56908 0.0
O784 O 0.88021 0.64057 0.51241 0.0
O785 O 0.89939 0.6827 0.52555 0.0
O786 O 0.8851 0.72873 0.57797 0.0
O787 O 0.90955 0.70255 0.60922 0.0
O788 O 0.84426 0.70022 0.55045 0.0
O789 O 0.84404 0.66233 0.57178 0.0
O790 O 0.86704 0.67025 0.62384 0.0
O791 O 0.84579 0.63044 0.60642 0.0
H792 H 0.89981 0.55862 0.53739 0.0
H793 H 0.91455 0.51938 0.50445 0.0
H794 H 0.83442 0.51713 0.45878 0.0
H795 H 0.81953 0.55553 0.49274 0.0
H796 H 0.885 0.78089 0.59893 0.0
H797 H 0.88183 0.8148 0.64247 0.0
H798 H 0.90936 0.75408 0.71208 0.0
H799 H 0.91296 0.72012 0.66814 0.0
La800 La 0.66338 0.42054 0.80682 0.0
La801 La 0.60421 0.40667 0.79266 0.0
C802 C 0.70795 0.43986 0.82795 0.0
C803 C 0.73063 0.43065 0.84912 0.0
C804 C 0.74409 0.40539 0.84389 0.0
C805 C 0.7666 0.39787 0.86313 0.0
C806 C 0.77599 0.41538 0.888 0.0
C807 C 0.76203 0.44035 0.89354 0.0
C808 C 0.73969 0.44794 0.87418 0.0
C809 C 0.65695 0.37251 0.77757 0.0
C810 C 0.62751 0.39444 0.86424 0.0
C811 C 0.56157 0.38544 0.76698 0.0
C812 C 0.54119 0.38889 0.73993 0.0
C813 C 0.51363 0.39467 0.74751 0.0
C814 C 0.49352 0.39584 0.72305 0.0
C815 C 0.50021 0.39121 0.69003 0.0
C816 C 0.52778 0.38504 0.68239 0.0
C817 C 0.548 0.38388 0.707 0.0
C818 C 0.61215 0.45871 0.81365 0.0
C819 C 0.6413 0.43559 0.7378 0.0
O820 O 0.70542 0.42712 0.80005 0.0
O821 O 0.68414 0.4444 0.84195 0.0
O822 O 0.67888 0.38741 0.77665 0.0
O823 O 0.64078 0.38274 0.79874 0.0
O824 O 0.65002 0.40763 0.85537 0.0
O825 O 0.60737 0.38925 0.84296 0.0
O826 O 0.56091 0.40292 0.79127 0.0
O827 O 0.5868 0.37877 0.75934 0.0
O828 O 0.5898 0.44444 0.81759 0.0
O829 O 0.62759 0.44415 0.7962 0.0
O830 O 0.61873 0.42123 0.74433 0.0
O831 O 0.65903 0.44203 0.76094 0.0
H832 H 0.73746 0.39158 0.82473 0.0
H833 H 0.7769 0.37856 0.85817 0.0
H834 H 0.7682 0.45402 0.91306 0.0
H835 H 0.72956 0.46743 0.8787 0.0
H836 H 0.50747 0.39793 0.7726 0.0
H837 H 0.47251 0.4001 0.73018 0.0
H838 H 0.53383 0.38151 0.65733 0.0
H839 H 0.56893 0.37889 0.70019 0.0
La840 La 0.86842 0.41356 1.05709 0.0
La841 La 0.88244 0.35447 1.04241 0.0
C842 C 0.84906 0.45797 0.07869 0.0
C843 C 0.85874 0.48052 0.09965 0.0
C844 C 0.88545 0.4913 0.09656 0.0
C845 C 0.89369 0.51373 0.11552 0.0
C846 C 0.87544 0.52564 0.13802 0.0
C847 C 0.84893 0.5143 0.14147 0.0
C848 C 0.84066 0.49206 0.12235 0.0
C849 C 0.9166 0.40739 1.02821 0.0
C850 C 0.89448 0.37729 0.11413 0.0
C851 C 0.90346 0.31185 1.01642 0.0
C852 C 0.89952 0.29157 0.98937 0.0
C853 C 0.89308 0.26412 0.9969 0.0
C854 C 0.89135 0.24411 0.97238 0.0
C855 C 0.89608 0.25079 0.93938 0.0
C856 C 0.90288 0.27824 0.93179 0.0
C857 C 0.90458 0.29837 0.95645 0.0
C858 C 0.83045 0.36221 0.06336 0.0
C859 C 0.85369 0.39198 0.98781 0.0
O860 O 0.86136 0.45558 1.0505 0.0
O861 O 0.84492 0.4341 0.09274 0.0
O862 O 0.90175 0.42937 1.02744 0.0
O863 O 0.90624 0.39103 1.04906 0.0
O864 O 0.88103 0.39974 0.10555 0.0
O865 O 0.89998 0.35741 0.09262 0.0
O866 O 0.88632 0.31116 1.04104 0.0
O867 O 0.91005 0.33711 1.0087 0.0
O868 O 0.84472 0.33984 0.06716 0.0
O869 O 0.84498 0.37778 1.04606 0.0
O870 O 0.86815 0.36943 0.99415 0.0
O871 O 0.84705 0.40948 1.01114 0.0
H872 H 0.89986 0.48261 0.07925 0.0
H873 H 0.9142 0.52195 0.11222 0.0
H874 H 0.83458 0.52243 0.15921 0.0
H875 H 0.82005 0.48393 0.12522 0.0
H876 H 0.88973 0.25797 1.02198 0.0
H877 H 0.8866 0.22317 0.97944 0.0
H878 H 0.9065 0.28428 0.90675 0.0
H879 H 0.91005 0.3192 0.94969 0.0
La880 La 0.87472 0.61809 0.3057 0.0
La881 La 0.93441 0.63177 0.29445 0.0
C882 C 0.83011 0.59884 0.32666 0.0
C883 C 0.80791 0.60818 0.3485 0.0
C884 C 0.79485 0.63375 0.34397 0.0
C885 C 0.77286 0.64153 0.3639 0.0
C886 C 0.7636 0.62399 0.38883 0.0
C887 C 0.7772 0.59872 0.39372 0.0
C888 C 0.79901 0.59086 0.37365 0.0
C889 C 0.88205 0.6653 0.27549 0.0
C890 C 0.90832 0.64607 0.36424 0.0
C891 C 0.97776 0.65233 0.26956 0.0
C892 C 0.99736 0.64895 0.24162 0.0
C893 C 0.02451 0.64052 0.24771 0.0
C894 C 0.04395 0.63917 0.22248 0.0
C895 C 0.03701 0.64627 0.19014 0.0
C896 C 1.00987 0.65506 0.18403 0.0
C897 C 0.99032 0.65639 0.2094 0.0
C898 C 0.92552 0.57995 0.31546 0.0
C899 C 0.89881 0.60285 0.23794 0.0
O900 O 0.83258 0.61208 0.29904 0.0
O901 O 0.85398 0.59351 0.34015 0.0
O902 O 0.86026 0.6502 0.2736 0.0
O903 O 0.89752 0.65574 0.29788 0.0
O904 O 0.88559 0.63423 0.3536 0.0
O905 O 0.93021 0.64905 0.34481 0.0
O906 O 0.97784 0.6337 0.29264 0.0
O907 O 0.95281 0.66073 0.26314 0.0
O908 O 0.94766 0.59425 0.32072 0.0
O909 O 0.91082 0.59447 0.29709 0.0
O910 O 0.92133 0.61687 0.24565 0.0
O911 O 0.88003 0.59673 0.26001 0.0
H912 H 0.80138 0.64763 0.32481 0.0
H913 H 0.76284 0.66107 0.3594 0.0
H914 H 0.77115 0.585 0.41325 0.0
H915 H 0.80887 0.57115 0.37769 0.0
H916 H 0.0309 0.63529 0.27225 0.0
H917 H 0.06468 0.63283 0.22851 0.0
H918 H 1.0036 0.66055 0.15955 0.0
H919 H 0.96974 0.66343 0.20374 0.0
La920 La 0.67186 0.62698 0.55879 0.0
La921 La 0.65768 0.68592 0.54393 0.0
C922 C 0.69115 0.58256 0.58058 0.0
C923 C 0.68154 0.55985 0.60141 0.0
C924 C 0.65556 0.54773 0.59684 0.0
C925 C 0.64758 0.52508 0.61561 0.0
C926 C 0.66535 0.51424 0.63939 0.0
C927 C 0.69106 0.52693 0.64435 0.0
C928 C 0.6991 0.5494 0.62543 0.0
C929 C 0.62363 0.63293 0.52985 0.0
C930 C 0.64575 0.66324 0.6158 0.0
C931 C 0.63685 0.72844 0.51734 0.0
C932 C 0.64083 0.74828 0.48975 0.0
C933 C 0.64964 0.77527 0.49622 0.0
C934 C 0.65135 0.79494 0.47124 0.0
C935 C 0.6442 0.78839 0.43881 0.0
C936 C 0.63509 0.76141 0.43232 0.0
C937 C 0.63341 0.74165 0.45742 0.0
C938 C 0.70966 0.67842 0.5651 0.0
C939 C 0.68678 0.6483 0.48958 0.0
O940 O 0.67906 0.58498 0.55227 0.0
O941 O 0.69509 0.60642 0.59471 0.0
O942 O 0.63865 0.61107 0.52904 0.0
O943 O 0.63388 0.64933 0.55071 0.0
O944 O 0.65949 0.64098 0.60723 0.0
O945 O 0.63997 0.683 0.59417 0.0
O946 O 0.65413 0.72925 0.54181 0.0
O947 O 0.62994 0.70314 0.51025 0.0
O948 O 0.69521 0.70066 0.569 0.0
O949 O 0.69528 0.66279 0.54771 0.0
O950 O 0.67212 0.67077 0.49575 0.0
O951 O 0.6935 0.63098 0.51304 0.0
H952 H 0.64154 0.55551 0.57851 0.0
H953 H 0.62769 0.51581 0.61113 0.0
H954 H 0.70498 0.51965 0.66307 0.0
H955 H 0.71914 0.55854 0.62945 0.0
H956 H 0.65485 0.78138 0.52086 0.0
H957 H 0.65792 0.81554 0.47756 0.0
H958 H 0.62956 0.75544 0.40775 0.0
H959 H 0.62604 0.72123 0.45148 0.0
La960 La 0.43385 0.40693 0.29248 0.0
La961 La 0.37498 0.42121 0.30682 0.0
C962 C 0.47632 0.3856 0.2665 0.0
C963 C 0.49674 0.38925 0.23952 0.0
C964 C 0.52422 0.39536 0.24714 0.0
C965 C 0.54434 0.39672 0.22271 0.0
C966 C 0.53775 0.39195 0.1897 0.0
C967 C 0.51026 0.38547 0.18202 0.0
C968 C 0.49003 0.38413 0.20659 0.0
C969 C 0.4266 0.45896 0.31365 0.0
C970 C 0.39677 0.43633 0.23786 0.0
C971 C 0.33042 0.44035 0.32829 0.0
C972 C 0.30785 0.43094 0.34949 0.0
C973 C 0.29454 0.40561 0.34419 0.0
C974 C 0.27211 0.39789 0.36345 0.0
C975 C 0.26264 0.41527 0.38841 0.0
C976 C 0.27648 0.44029 0.39406 0.0
C977 C 0.29874 0.44807 0.37469 0.0
C978 C 0.3811 0.37307 0.27747 0.0
C979 C 0.41081 0.39498 0.36412 0.0
O980 O 0.47711 0.40274 0.29111 0.0
O981 O 0.45104 0.37927 0.25871 0.0
O982 O 0.44872 0.44436 0.31758 0.0
O983 O 0.41084 0.44475 0.29617 0.0
O984 O 0.41918 0.42165 0.24421 0.0
O985 O 0.37928 0.44299 0.26117 0.0
O986 O 0.33291 0.42782 0.30027 0.0
O987 O 0.35425 0.44484 0.34221 0.0
O988 O 0.35935 0.38823 0.27641 0.0
O989 O 0.39721 0.38319 0.29874 0.0
O990 O 0.38864 0.40877 0.35536 0.0
O991 O 0.43062 0.38915 0.34264 0.0
H992 H 0.5303 0.39872 0.27224 0.0
H993 H 0.56529 0.40123 0.22987 0.0
H994 H 0.50428 0.38183 0.15696 0.0
H995 H 0.46917 0.37889 0.19975 0.0
H996 H 0.30122 0.3919 0.32494 0.0
H997 H 0.26191 0.37854 0.35842 0.0
H998 H 0.27024 0.45385 0.41366 0.0
H999 H 0.30877 0.4676 0.37929 0.0
La1000 La 0.38002 0.68499 1.04487 0.0
La1001 La 0.36627 0.62549 1.05568 0.0
C1002 C 0.40047 0.72844 1.01995 0.0
C1003 C 0.39686 0.74811 0.99208 0.0
C1004 C 0.38809 0.77517 0.99821 0.0
C1005 C 0.38656 0.79468 0.97303 0.0
C1006 C 0.39383 0.78791 0.94069 0.0
C1007 C 0.40293 0.76086 0.93454 0.0
C1008 C 0.40443 0.74125 0.95985 0.0
C1009 C 0.32837 0.67648 0.06631 0.0
C1010 C 0.35033 0.64988 0.98839 0.0
C1011 C 0.34725 0.58063 0.0763 0.0
C1012 C 0.35668 0.5583 0.09791 0.0
C1013 C 0.38246 0.54567 0.09357 0.0
C1014 C 0.39033 0.52351 0.11321 0.0
C1015 C 0.37264 0.51366 0.13768 0.0
C1016 C 0.34715 0.52685 0.14239 0.0
C1017 C 0.33922 0.54882 0.1226 0.0
C1018 C 0.41326 0.63284 1.02485 0.0
C1019 C 0.39455 0.65854 0.11448 0.0
O1020 O 0.38205 0.72847 1.04323 0.0
O1021 O 0.40878 0.70348 1.01337 0.0
O1022 O 0.34295 0.69841 0.07173 0.0
O1023 O 0.34251 0.66165 1.04765 0.0
O1024 O 0.36458 0.67228 0.99608 0.0
O1025 O 0.34433 0.63105 1.01043 0.0
O1026 O 0.36045 0.58333 1.0487 0.0
O1027 O 0.34189 0.60441 0.09003 0.0
O1028 O 0.39784 0.61129 1.02267 0.0
O1029 O 0.40407 0.64805 1.04771 0.0
O1030 O 0.38257 0.63593 0.10365 0.0
O1031 O 0.39755 0.68053 0.09517 0.0
H1032 H 0.38274 0.78144 1.02275 0.0
H1033 H 0.37998 0.81534 0.97911 0.0
H1034 H 0.40855 0.7547 0.91007 0.0
H1035 H 0.41172 0.72075 0.95414 0.0
H1036 H 0.39645 0.55267 0.07476 0.0
H1037 H 0.41004 0.51383 0.10887 0.0
H1038 H 0.33331 0.52034 0.16159 0.0
H1039 H 0.31934 0.55836 0.12649 0.0
La1040 La 0.10344 0.6315 0.79421 0.0
La1041 La 0.16309 0.61783 0.80499 0.0
C1042 C 0.06004 0.65213 0.76948 0.0
C1043 C 0.0404 0.64872 0.7416 0.0
C1044 C 1.01324 0.64037 0.74776 0.0
C1045 C 0.99378 0.63898 0.72256 0.0
C1046 C 1.00071 0.64596 0.69019 0.0
C1047 C 0.02786 0.65466 0.684 0.0
C1048 C 0.04743 0.65602 0.70933 0.0
C1049 C 0.11219 0.5797 0.81522 0.0
C1050 C 0.13868 0.60228 0.73755 0.0
C1051 C 0.20789 0.5989 0.82579 0.0
C1052 C 0.22987 0.60871 0.84753 0.0
C1053 C 0.23969 0.63589 0.84579 0.0
C1054 C 0.26154 0.64439 0.86552 0.0
C1055 C 0.27383 0.62593 0.88753 0.0
C1056 C 0.2634 0.59893 0.88969 0.0
C1057 C 0.24175 0.5904 0.86978 0.0
C1058 C 0.15552 0.66495 0.77453 0.0
C1059 C 0.12982 0.6458 0.86383 0.0
O1060 O 0.06 0.63353 0.79259 0.0
O1061 O 0.08498 0.6605 0.76298 0.0
O1062 O 0.09013 0.5941 0.82059 0.0
O1063 O 0.12698 0.59408 0.79677 0.0
O1064 O 0.11623 0.6164 0.74536 0.0
O1065 O 0.15755 0.59621 0.75951 0.0
O1066 O 0.20525 0.6121 0.79817 0.0
O1067 O 0.18409 0.5934 0.83936 0.0
O1068 O 0.17723 0.64974 0.77237 0.0
O1069 O 0.14033 0.65549 0.79724 0.0
O1070 O 0.15246 0.63393 0.85297 0.0
O1071 O 0.10783 0.64882 0.84457 0.0
H1072 H 1.00687 0.63524 0.77234 0.0
H1073 H 0.97304 0.63271 0.72865 0.0
H1074 H 0.03413 0.66005 0.65949 0.0
H1075 H 0.06803 0.66299 0.70361 0.0
H1076 H 0.23071 0.65051 0.82892 0.0
H1077 H 0.26905 0.66527 0.86318 0.0
H1078 H 0.2718 0.58436 0.90702 0.0
H1079 H 0.23433 0.56943 0.87167 0.0
La1080 La 0.15573 0.35382 0.54227 0.0
La1081 La 0.16997 0.41279 0.55711 0.0
C1082 C 0.13458 0.3114 0.51594 0.0
C1083 C 0.13849 0.29138 0.48858 0.0
C1084 C 0.14668 0.26426 0.49544 0.0
C1085 C 0.14837 0.24446 0.47065 0.0
C1086 C 0.14183 0.25101 0.43804 0.0
C1087 C 0.1333 0.27811 0.43116 0.0
C1088 C 0.13164 0.29801 0.45607 0.0
C1089 C 0.20776 0.36114 0.56315 0.0
C1090 C 0.18476 0.39138 0.48785 0.0
C1091 C 0.18916 0.45723 0.57885 0.0
C1092 C 0.17931 0.47973 0.59977 0.0
C1093 C 0.15233 0.4899 0.59714 0.0
C1094 C 0.14387 0.5123 0.61603 0.0
C1095 C 0.16219 0.5248 0.638 0.0
C1096 C 0.18899 0.51405 0.64101 0.0
C1097 C 0.19746 0.49184 0.62197 0.0
C1098 C 0.12171 0.40675 0.52818 0.0
C1099 C 0.1441 0.37643 0.61417 0.0
O1100 O 0.15177 0.31053 0.54049 0.0
O1101 O 0.12796 0.33673 0.50856 0.0
O1102 O 0.19335 0.33886 0.56688 0.0
O1103 O 0.19337 0.37697 0.54598 0.0
O1104 O 0.17012 0.36891 0.49406 0.0
O1105 O 0.19151 0.40873 0.51129 0.0
O1106 O 0.17699 0.45483 0.55059 0.0
O1107 O 0.19326 0.43336 0.59291 0.0
O1108 O 0.13665 0.42866 0.52739 0.0
O1109 O 0.13208 0.39045 0.54908 0.0
O1110 O 0.15781 0.3987 0.60557 0.0
O1111 O 0.1382 0.35673 0.59256 0.0
H1112 H 0.15143 0.25817 0.52022 0.0
H1113 H 0.15449 0.22376 0.47722 0.0
H1114 H 0.12825 0.28407 0.40643 0.0
H1115 H 0.12477 0.31855 0.44983 0.0
H1116 H 0.13786 0.48075 0.58023 0.0
H1117 H 0.12314 0.52005 0.61308 0.0
H1118 H 0.20342 0.52263 0.65835 0.0
H1119 H 0.21828 0.48417 0.62449 0.0
La1120 La 0.43461 0.63119 0.32622 0.0
La1121 La 0.37565 0.61764 0.31151 0.0
C1122 C 0.47716 0.65192 0.35283 0.0
C1123 C 0.49697 0.64817 0.38048 0.0
C1124 C 0.52378 0.63874 0.37421 0.0
C1125 C 0.54348 0.63735 0.39916 0.0
C1126 C 0.53716 0.64542 0.43135 0.0
C1127 C 0.51038 0.65514 0.43763 0.0
C1128 C 0.49058 0.65652 0.41256 0.0
C1129 C 0.42693 0.57938 0.30461 0.0
C1130 C 0.39699 0.6018 0.38042 0.0
C1131 C 0.33096 0.59902 0.28979 0.0
C1132 C 0.30855 0.60849 0.26838 0.0
C1133 C 0.29502 0.63368 0.27379 0.0
C1134 C 0.27261 0.64135 0.25445 0.0
C1135 C 0.26339 0.62403 0.22929 0.0
C1136 C 0.27748 0.59918 0.2235 0.0
C1137 C 0.29972 0.59146 0.24295 0.0
C1138 C 0.38219 0.66549 0.34139 0.0
C1139 C 0.41187 0.64371 0.25442 0.0
O1140 O 0.47793 0.63443 0.32856 0.0
O1141 O 0.4519 0.65901 0.35979 0.0
O1142 O 0.44919 0.59381 0.3008 0.0
O1143 O 0.41125 0.59365 0.32214 0.0
O1144 O 0.41959 0.61627 0.3743 0.0
O1145 O 0.37951 0.59552 0.35697 0.0
O1146 O 0.33345 0.61168 0.31773 0.0
O1147 O 0.35482 0.59417 0.27606 0.0
O1148 O 0.36032 0.65051 0.3423 0.0
O1149 O 0.39824 0.65538 0.32003 0.0
O1150 O 0.38939 0.63041 0.26311 0.0
O1151 O 0.43185 0.64895 0.27593 0.0
H1152 H 0.52973 0.63283 0.34974 0.0
H1153 H 0.56394 0.63029 0.39297 0.0
H1154 H 0.50458 0.66139 0.46202 0.0
H1155 H 0.47033 0.6644 0.41832 0.0
H1156 H 0.30146 0.64732 0.29323 0.0
H1157 H 0.26222 0.66058 0.25958 0.0
H1158 H 0.27144 0.58568 0.20376 0.0
H1159 H 0.30991 0.57202 0.23826 0.0
La1160 La 0.15631 0.6852 0.07559 0.0
La1161 La 0.17013 0.62619 0.06088 0.0
C1162 C 0.13547 0.72773 0.102 0.0
C1163 C 0.1395 0.74746 0.12961 0.0
C1164 C 0.14803 0.77453 0.12313 0.0
C1165 C 0.14989 0.79408 0.14818 0.0
C1166 C 0.14318 0.7873 0.18067 0.0
C1167 C 0.13431 0.76026 0.18718 0.0
C1168 C 0.13248 0.74061 0.16201 0.0
C1169 C 0.20832 0.67755 1.05472 0.0
C1170 C 0.18518 0.64757 0.13007 0.0
C1171 C 0.1891 0.58162 1.03923 0.0
C1172 C 0.17924 0.55917 1.01826 0.0
C1173 C 0.1524 0.54869 1.02124 0.0
C1174 C 0.14399 0.52631 1.00231 0.0
C1175 C 0.16221 0.51413 0.97996 0.0
C1176 C 0.18884 0.52519 0.9766 0.0
C1177 C 0.19728 0.54739 0.99568 0.0
C1178 C 0.12198 0.63255 0.08998 0.0
C1179 C 0.14439 0.66261 1.00373 0.0
O1180 O 0.15284 0.72853 0.07762 0.0
O1181 O 0.12845 0.70245 0.10907 0.0
O1182 O 0.19399 0.69987 1.05086 0.0
O1183 O 0.19383 0.66183 0.07193 0.0
O1184 O 0.17066 0.67012 0.12382 0.0
O1185 O 0.19177 0.63015 0.10665 0.0
O1186 O 0.17683 0.58411 0.06742 0.0
O1187 O 0.19341 0.60546 1.02519 0.0
O1188 O 0.13685 0.61058 0.09084 0.0
O1189 O 0.13235 0.64874 0.06895 0.0
O1190 O 0.15789 0.64021 1.01239 0.0
O1191 O 0.13877 0.68244 1.02528 0.0
H1192 H 0.15293 0.78079 0.09845 0.0
H1193 H 0.15628 0.81476 0.1419 0.0
H1194 H 0.12912 0.75413 0.21181 0.0
H1195 H 0.12536 0.7201 0.16796 0.0
H1196 H 0.13802 0.55757 1.03845 0.0
H1197 H 0.12339 0.51831 1.00552 0.0
H1198 H 0.20317 0.51686 0.95896 0.0
H1199 H 0.21798 0.5553 0.99289 0.0
La1200 La 0.10348 0.4078 0.82356 0.0
La1201 La 0.16306 0.42154 0.81273 0.0
C1202 C 0.06012 0.38713 0.84822 0.0
C1203 C 0.04059 0.39052 0.87618 0.0
C1204 C 1.01345 0.39898 0.87016 0.0
C1205 C 0.9941 0.40045 0.89547 0.0
C1206 C 1.00115 0.39341 0.92779 0.0
C1207 C 0.02828 0.38458 0.93383 0.0
C1208 C 0.04773 0.38315 0.90839 0.0
C1209 C 0.11216 0.45963 0.80261 0.0
C1210 C 0.1387 0.43689 0.88025 0.0
C1211 C 0.2078 0.44061 0.79196 0.0
C1212 C 0.22985 0.4306 0.77051 0.0
C1213 C 0.23855 0.40302 0.77148 0.0
C1214 C 0.26044 0.39419 0.75203 0.0
C1215 C 0.27386 0.41272 0.73105 0.0
C1216 C 0.26458 0.44017 0.72969 0.0
C1217 C 0.24289 0.44902 0.74935 0.0
C1218 C 0.15564 0.37434 0.84306 0.0
C1219 C 0.12977 0.39352 0.75394 0.0
O1220 O 0.06005 0.40582 0.82522 0.0
O1221 O 0.08505 0.37869 0.85462 0.0
O1222 O 0.09012 0.44522 0.79722 0.0
O1223 O 0.12696 0.44525 0.82104 0.0
O1224 O 0.11629 0.42272 0.87246 0.0
O1225 O 0.15748 0.4431 0.85824 0.0
O1226 O 0.20514 0.42765 0.81974 0.0
O1227 O 0.18402 0.44581 0.77817 0.0
O1228 O 0.17734 0.38955 0.84518 0.0
O1229 O 0.1404 0.38383 0.82043 0.0
O1230 O 0.15241 0.40544 0.76474 0.0
O1231 O 0.10782 0.39048 0.77324 0.0
H1232 H 1.007 0.40418 0.84563 0.0
H1233 H 0.97336 0.40683 0.88953 0.0
H1234 H 0.03462 0.37915 0.95831 0.0
H1235 H 0.06833 0.37611 0.91399 0.0
H1236 H 0.22863 0.38834 0.78751 0.0
H1237 H 0.26705 0.37296 0.75375 0.0
H1238 H 0.27386 0.45485 0.71315 0.0
H1239 H 0.23632 0.47031 0.74808 0.0
La1240 La 0.37944 0.35326 0.57343 0.0
La1241 La 0.36553 0.41289 0.56298 0.0
C1242 C 0.4 0.30976 0.59808 0.0
C1243 C 0.39655 0.29012 0.62601 0.0
C1244 C 0.38779 0.26305 0.61997 0.0
C1245 C 0.38635 0.24357 0.6452 0.0
C1246 C 0.3937 0.2504 0.67749 0.0
C1247 C 0.40279 0.27746 0.68355 0.0
C1248 C 0.4042 0.29704 0.65819 0.0
C1249 C 0.32779 0.36188 0.55212 0.0
C1250 C 0.34995 0.38819 0.63019 0.0
C1251 C 0.34661 0.45786 0.54251 0.0
C1252 C 0.3561 0.48013 0.5208 0.0
C1253 C 0.3816 0.49321 0.52562 0.0
C1254 C 0.38953 0.51523 0.50578 0.0
C1255 C 0.3722 0.52451 0.48066 0.0
C1256 C 0.347 0.51089 0.47549 0.0
C1257 C 0.339 0.48905 0.49546 0.0
C1258 C 0.41263 0.40537 0.59342 0.0
C1259 C 0.39368 0.37995 0.50397 0.0
O1260 O 0.38139 0.30978 0.57503 0.0
O1261 O 0.40846 0.33469 0.60454 0.0
O1262 O 0.34235 0.33995 0.54656 0.0
O1263 O 0.34193 0.37663 0.57087 0.0
O1264 O 0.36424 0.36586 0.62232 0.0
O1265 O 0.34375 0.40708 0.60829 0.0
O1266 O 0.35987 0.45507 0.57005 0.0
O1267 O 0.34104 0.43411 0.52884 0.0
O1268 O 0.39725 0.42694 0.59586 0.0
O1269 O 0.4033 0.39028 0.57056 0.0
O1270 O 0.38157 0.40246 0.51491 0.0
O1271 O 0.39691 0.35793 0.52317 0.0
H1272 H 0.38238 0.25674 0.59546 0.0
H1273 H 0.37978 0.2229 0.63919 0.0
H1274 H 0.40847 0.28366 0.70799 0.0
H1275 H 0.41148 0.31755 0.66382 0.0
H1276 H 0.39532 0.48668 0.54493 0.0
H1277 H 0.40901 0.52527 0.51048 0.0
H1278 H 0.33345 0.51697 0.45582 0.0
H1279 H 0.31935 0.47917 0.49119 0.0
C1280 C 0.30254 0.16199 0.19922 0.0
C1281 C 0.29896 0.13495 0.21088 0.0
H1282 H 0.32292 0.18807 0.16441 0.0
C1283 C 0.3162 0.11403 0.19905 0.0
H1284 H 0.28973 0.17858 0.20817 0.0
C1285 C 0.33508 0.11951 0.17442 0.0
C1286 C 0.33731 0.14602 0.16123 0.0
H1287 H 0.31385 0.09295 0.20719 0.0
H1288 H 0.34678 0.10258 0.16422 0.0
C1289 C 0.32175 0.16754 0.1746 0.0
C1290 C 0.12493 0.07476 0.42773 0.0
C1291 C 0.1465 0.08714 0.41039 0.0
H1292 H 0.11387 0.04588 0.46515 0.0
C1293 C 0.17373 0.08217 0.42 0.0
H1294 H 0.10377 0.07809 0.42049 0.0
C1295 C 0.17953 0.06384 0.44513 0.0
C1296 C 0.1582 0.04988 0.46121 0.0
H1297 H 0.19072 0.09146 0.40689 0.0
H1298 H 0.20087 0.0594 0.45057 0.0
C1299 C 0.13076 0.05609 0.45291 0.0
C1300 C 0.23867 0.87863 0.69567 0.0
C1301 C 0.23894 0.90473 0.71061 0.0
H1302 H 0.2205 0.85308 0.65877 0.0
C1303 C 0.2177 0.9234 0.70342 0.0
H1304 H 0.25477 0.8638 0.70054 0.0
C1305 C 0.19841 0.91731 0.67939 0.0
C1306 C 0.19955 0.89219 0.66271 0.0
H1307 H 0.21681 0.94334 0.71514 0.0
H1308 H 0.18361 0.93291 0.6724 0.0
C1309 C 0.21898 0.87236 0.67191 0.0
C1310 C 0.36454 0.95518 0.92225 0.0
C1311 C 0.39164 0.95075 0.91181 0.0
H1312 H 0.3376 0.97791 0.95311 0.0
C1313 C 0.41331 0.96399 0.92803 0.0
H1314 H 0.34749 0.94525 0.90994 0.0
C1315 C 0.40763 0.98304 0.95281 0.0
C1316 C 0.38026 0.98875 0.96185 0.0
H1317 H 0.43435 0.9611 0.92007 0.0
H1318 H 0.42453 0.99398 0.96409 0.0
C1319 C 0.3589 0.97388 0.94704 0.0
C1320 C 0.33918 0.91684 0.44029 0.0
C1321 C 0.33788 0.89169 0.45689 0.0
H1322 H 0.32099 0.94308 0.40455 0.0
C1323 C 0.3183 0.87204 0.44766 0.0
H1324 H 0.35409 0.93232 0.44731 0.0
C1325 C 0.29867 0.87849 0.42389 0.0
C1326 C 0.29859 0.90461 0.40896 0.0
H1327 H 0.31666 0.85273 0.46075 0.0
H1328 H 0.28248 0.86378 0.41897 0.0
C1329 C 0.31994 0.92312 0.41624 0.0
C1330 C 0.35845 0.06432 0.67202 0.0
C1331 C 0.37982 0.04983 0.65668 0.0
H1332 H 0.34711 0.09257 0.70953 0.0
C1333 C 0.40722 0.05582 0.66534 0.0
H1334 H 0.33714 0.06007 0.66626 0.0
C1335 C 0.41295 0.07475 0.69023 0.0
C1336 C 0.39131 0.08762 0.70693 0.0
H1337 H 0.42413 0.04518 0.65366 0.0
H1338 H 0.43405 0.07787 0.69785 0.0
C1339 C 0.36415 0.08292 0.69689 0.0
C1340 C 0.19907 0.12049 0.94077 0.0
C1341 C 0.19942 0.14609 0.95645 0.0
H1342 H 0.21821 0.09406 0.90597 0.0
C1343 C 0.21818 0.16626 0.94637 0.0
H1344 H 0.18478 0.10463 0.9484 0.0
C1345 C 0.238 0.15996 0.92276 0.0
C1346 C 0.23907 0.13347 0.90884 0.0
H1347 H 0.21908 0.18595 0.9587 0.0
H1348 H 0.25358 0.17516 0.91717 0.0
C1349 C 0.21849 0.11434 0.91691 0.0
C1350 C 0.1243 0.96657 0.19471 0.0
C1351 C 0.14522 0.94968 0.20705 0.0
H1352 H 0.11435 1.00047 0.1635 0.0
C1353 C 0.17163 0.95113 0.19352 0.0
H1354 H 0.1039 0.96609 0.20533 0.0
C1355 C 0.1776 0.97047 0.16947 0.0
C1356 C 0.15742 0.98922 0.15902 0.0
H1357 H 0.18806 0.93829 0.20286 0.0
H1358 H 0.19841 0.97153 0.16013 0.0
C1359 C 0.13038 0.98633 0.17091 0.0
C1360 C 0.71781 0.92206 0.91531 0.0
C1361 C 0.73965 0.90392 0.90878 0.0
H1362 H 0.68327 0.9311 0.94584 0.0
C1363 C 0.74007 0.8781 0.92441 0.0
H1364 H 0.71641 0.94177 0.90307 0.0
C1365 C 0.72042 0.87166 0.94815 0.0
C1366 C 0.70034 0.89105 0.95666 0.0
H1367 H 0.75665 0.86368 0.92008 0.0
H1368 H 0.72245 0.85268 0.96182 0.0
C1369 C 0.69856 0.91582 0.93935 0.0
C1370 C 0.90733 0.98568 0.67105 0.0
C1371 C 0.88016 0.98878 0.65969 0.0
H1372 H 0.93408 0.96525 0.70501 0.0
C1373 C 0.85998 0.97018 0.67045 0.0
H1374 H 0.92336 0.9997 0.66333 0.0
C1375 C 0.86612 0.95079 0.69438 0.0
C1376 C 0.89267 0.94917 0.70748 0.0
H1377 H 0.83906 0.97144 0.66151 0.0
H1378 H 0.8497 0.93809 0.70403 0.0
C1379 C 0.91357 0.96587 0.69474 0.0
C1380 C 0.80283 0.15801 0.42064 0.0
C1381 C 0.79968 0.1309 0.40906 0.0
H1382 H 0.82334 0.18454 0.45476 0.0
C1383 C 0.81828 0.11061 0.41957 0.0
H1384 H 0.78881 0.17412 0.41312 0.0
C1385 C 0.83771 0.11658 0.44348 0.0
C1386 C 0.83939 0.14306 0.45681 0.0
H1387 H 0.81698 0.08974 0.41046 0.0
H1388 H 0.85041 0.10007 0.45294 0.0
C1389 C 0.82268 0.16408 0.44431 0.0
C1390 C 0.63104 0.05181 0.17042 0.0
C1391 C 0.65811 0.04924 0.15853 0.0
H1392 H 0.6043 0.07177 0.2048 0.0
C1393 C 0.67808 0.06818 0.16903 0.0
H1394 H 0.61517 0.03752 0.16297 0.0
C1395 C 0.67186 0.08745 0.19306 0.0
C1396 C 0.64542 0.08864 0.20655 0.0
H1397 H 0.6989 0.06736 0.15971 0.0
H1398 H 0.68814 0.10048 0.20239 0.0
C1399 C 0.62471 0.07151 0.19421 0.0
C1400 C 0.7408 0.15983 0.69445 0.0
C1401 C 0.74045 0.13377 0.70954 0.0
H1402 H 0.72328 0.18572 0.6574 0.0
C1403 C 0.71892 0.1155 0.70215 0.0
H1404 H 0.75715 0.17435 0.69943 0.0
C1405 C 0.69985 0.12198 0.67798 0.0
C1406 C 0.7015 0.14709 0.66133 0.0
H1407 H 0.71753 0.09561 0.71395 0.0
H1408 H 0.68476 0.10668 0.67095 0.0
C1409 C 0.72134 0.16648 0.67055 0.0
C1410 C 0.63122 0.9831 0.4535 0.0
C1411 C 0.65864 0.98898 0.46216 0.0
H1412 H 0.60432 0.96125 0.42089 0.0
C1413 C 0.67995 0.97443 0.44681 0.0
H1414 H 0.61435 0.99379 0.46519 0.0
C1415 C 0.67419 0.95591 0.42188 0.0
C1416 C 0.64702 0.95135 0.4118 0.0
H1417 H 0.70128 0.97859 0.45257 0.0
H1418 H 0.69119 0.94624 0.40917 0.0
C1419 C 0.62542 0.96425 0.42854 0.0
C1420 C 0.83949 0.91769 0.17882 0.0
C1421 C 0.8384 0.8924 0.16253 0.0
H1422 H 0.82103 0.9441 0.21417 0.0
C1423 C 0.81902 0.87263 0.17205 0.0
H1424 H 0.85425 0.93325 0.17158 0.0
C1425 C 0.79934 0.87912 0.19574 0.0
C1426 C 0.79901 0.90538 0.21027 0.0
H1427 H 0.81755 0.8532 0.15921 0.0
H1428 H 0.78328 0.86431 0.20088 0.0
C1429 C 0.82019 0.92401 0.20277 0.0
C1430 C 0.91603 0.07233 0.9266 0.0
C1431 C 0.89455 0.08737 0.91236 0.0
H1432 H 0.92697 0.04116 0.96138 0.0
C1433 C 0.86791 0.0851 0.92514 0.0
H1434 H 0.93667 0.07354 0.91678 0.0
C1435 C 0.86231 0.06669 0.95026 0.0
C1436 C 0.88324 0.04995 0.96302 0.0
H1437 H 0.85101 0.09643 0.91432 0.0
H1438 H 0.84118 0.0643 0.95811 0.0
C1439 C 0.91037 0.05358 0.95172 0.0
C1440 C 0.80207 0.65845 0.69805 0.0
C1441 C 0.79897 0.63121 0.70927 0.0
H1442 H 0.82239 0.68538 0.66415 0.0
C1443 C 0.81734 0.61099 0.69807 0.0
H1444 H 0.78821 0.67451 0.7061 0.0
C1445 C 0.83658 0.61721 0.67402 0.0
C1446 C 0.83828 0.64388 0.66117 0.0
H1447 H 0.8161 0.59001 0.70687 0.0
H1448 H 0.84918 0.60079 0.66417 0.0
C1449 C 0.82172 0.66477 0.67421 0.0
C1450 C 0.67073 0.58535 0.92563 0.0
C1451 C 0.64402 0.58784 0.91309 0.0
H1452 H 0.69751 0.5643 0.95829 0.0
C1453 C 0.6225 0.57303 0.92758 0.0
H1454 H 0.68765 0.59653 0.91465 0.0
C1455 C 0.62817 0.55425 0.95266 0.0
C1456 C 0.65535 0.55035 0.96366 0.0
H1457 H 0.6018 0.57444 0.91797 0.0
H1458 H 0.61152 0.542 0.96251 0.0
C1459 C 0.67634 0.5669 0.95069 0.0
C1460 C 0.71709 0.37201 0.17573 0.0
C1461 C 0.70184 0.39347 0.16174 0.0
H1462 H 0.7485 0.36109 0.21018 0.0
C1463 C 0.70405 0.4201 0.17461 0.0
H1464 H 0.71592 0.35138 0.16582 0.0
C1465 C 0.72255 0.4257 0.19962 0.0
C1466 C 0.73946 0.40479 0.21214 0.0
H1467 H 0.69257 0.43699 0.16398 0.0
H1468 H 0.72486 0.44682 0.20757 0.0
C1469 C 0.73594 0.37767 0.20071 0.0
C1470 C 0.91049 0.49052 0.44423 0.0
C1471 C 0.88427 0.49116 0.4588 0.0
H1472 H 0.93624 0.47183 0.40787 0.0
C1473 C 0.86543 0.47013 0.4514 0.0
H1474 H 0.92546 0.50645 0.44927 0.0
C1475 C 0.87157 0.45063 0.42761 0.0
C1476 C 0.89687 0.45135 0.41133 0.0
H1477 H 0.84537 0.46951 0.46284 0.0
H1478 H 0.85588 0.43596 0.42051 0.0
C1479 C 0.91679 0.47062 0.42069 0.0
C1480 C 0.81825 0.42802 0.91946 0.0
C1481 C 0.79981 0.40766 0.90878 0.0
H1482 H 0.85029 0.43862 0.9529 0.0
C1483 C 0.80313 0.38052 0.92024 0.0
H1484 H 0.81684 0.44892 0.91043 0.0
C1485 C 0.82299 0.37447 0.94392 0.0
C1486 C 0.83952 0.39554 0.95657 0.0
H1487 H 0.78924 0.36435 0.91259 0.0
H1488 H 0.82379 0.35396 0.95423 0.0
C1489 C 0.83769 0.42208 0.94337 0.0
C1490 C 0.91652 0.57 0.19658 0.0
C1491 C 0.89634 0.58879 0.20653 0.0
H1492 H 0.92552 0.53463 0.16735 0.0
C1493 C 0.87086 0.58924 0.19064 0.0
H1494 H 0.93612 0.56903 0.20908 0.0
C1495 C 0.86482 0.56988 0.16666 0.0
C1496 C 0.88395 0.54926 0.15868 0.0
H1497 H 0.85499 0.60356 0.19817 0.0
H1498 H 0.84463 0.57024 0.15553 0.0
C1499 C 0.91033 0.55024 0.17285 0.0
C1500 C 0.72161 0.6118 0.4211 0.0
C1501 C 0.7402 0.63194 0.4102 0.0
H1502 H 0.68961 0.60161 0.4548 0.0
C1503 C 0.73732 0.65911 0.42173 0.0
H1504 H 0.72267 0.59089 0.41206 0.0
C1505 C 0.71767 0.6654 0.44557 0.0
C1506 C 0.70088 0.64456 0.45831 0.0
H1507 H 0.75135 0.67511 0.41394 0.0
H1508 H 0.71716 0.68592 0.45588 0.0
C1509 C 0.70237 0.61799 0.44517 0.0
C1510 C 0.67077 0.45094 0.69252 0.0
C1511 C 0.64457 0.44999 0.70668 0.0
H1512 H 0.6976 0.47136 0.6592 0.0
C1513 C 0.62396 0.46776 0.69538 0.0
H1514 H 0.68697 0.43743 0.70108 0.0
C1515 C 0.63024 0.48788 0.67209 0.0
C1516 C 0.65715 0.49026 0.65968 0.0
H1517 H 0.60376 0.46767 0.70652 0.0
H1518 H 0.61453 0.50268 0.66554 0.0
C1519 C 0.67692 0.47066 0.66897 0.0
C1520 C 0.21569 0.37405 0.44407 0.0
C1521 C 0.19896 0.39501 0.45664 0.0
H1522 H 0.24962 0.36415 0.41291 0.0
C1523 C 0.20071 0.42157 0.4435 0.0
H1524 H 0.21497 0.35353 0.45437 0.0
C1525 C 0.22022 0.42765 0.41972 0.0
C1526 C 0.23882 0.4074 0.40911 0.0
H1527 H 0.18798 0.43804 0.453 0.0
H1528 H 0.22156 0.44858 0.41075 0.0
C1529 C 0.23561 0.38023 0.42051 0.0
C1530 C 0.41399 0.46775 0.1945 0.0
C1531 C 0.39326 0.45052 0.20663 0.0
H1532 H 0.42358 0.50191 0.1635 0.0
C1533 C 0.36688 0.4517 0.19298 0.0
H1534 H 0.43435 0.46749 0.20522 0.0
C1535 C 0.36072 0.47107 0.16903 0.0
C1536 C 0.38069 0.49011 0.15878 0.0
H1537 H 0.35059 0.4386 0.20216 0.0
H1538 H 0.33994 0.4719 0.1596 0.0
C1539 C 0.40772 0.48754 0.17079 0.0
C1540 C 0.31812 0.61599 0.91648 0.0
C1541 C 0.29699 0.63467 0.90884 0.0
H1542 H 0.35207 0.60664 0.94778 0.0
C1543 C 0.29716 0.66082 0.9237 0.0
H1544 H 0.31911 0.596 0.90486 0.0
C1545 C 0.31673 0.6672 0.94758 0.0
C1546 C 0.33617 0.64745 0.95702 0.0
H1547 H 0.28114 0.67566 0.91852 0.0
H1548 H 0.3152 0.68658 0.96052 0.0
C1549 C 0.33729 0.6222 0.94061 0.0
C1550 C 0.12105 0.56878 0.69692 0.0
C1551 C 0.14096 0.5881 0.70621 0.0
H1552 H 0.11238 0.53298 0.66831 0.0
C1553 C 0.16618 0.58894 0.68977 0.0
H1554 H 0.10167 0.5675 0.70986 0.0
C1555 C 0.17228 0.56951 0.66589 0.0
C1556 C 0.15348 0.54842 0.65856 0.0
H1557 H 0.18185 0.60365 0.69682 0.0
H1558 H 0.19229 0.5702 0.65433 0.0
C1559 C 0.12731 0.54896 0.67329 0.0
C1560 C 0.21603 0.66503 0.17387 0.0
C1561 C 0.19948 0.64396 0.16122 0.0
H1562 H 0.24989 0.67513 0.20506 0.0
C1563 C 0.2015 0.61737 0.17423 0.0
H1564 H 0.2151 0.68559 0.16369 0.0
C1565 C 0.2211 0.61138 0.19794 0.0
C1566 C 0.23951 0.63177 0.20862 0.0
H1567 H 0.18891 0.60083 0.16469 0.0
H1568 H 0.22265 0.59044 0.2068 0.0
C1569 C 0.23603 0.65895 0.19738 0.0
C1570 C 0.1664 0.45025 0.92782 0.0
C1571 C 0.14104 0.45094 0.91166 0.0
H1572 H 0.19261 0.4691 0.96306 0.0
C1573 C 0.12102 0.47001 0.92129 0.0
H1574 H 0.18215 0.43573 0.92051 0.0
C1575 C 0.12726 0.48979 0.94497 0.0
C1576 C 0.15355 0.49052 0.95939 0.0
H1577 H 0.10152 0.47118 0.90857 0.0
H1578 H 0.11222 0.50561 0.95023 0.0
C1579 C 0.17249 0.46964 0.95174 0.0
C1580 C 0.31562 0.37123 0.67016 0.0
C1581 C 0.3359 0.39038 0.66161 0.0
H1582 H 0.27948 0.36351 0.6985 0.0
C1583 C 0.33793 0.41514 0.6789 0.0
H1584 H 0.31338 0.35228 0.65649 0.0
C1585 C 0.31884 0.42153 0.70309 0.0
C1586 C 0.29691 0.40355 0.70983 0.0
H1587 H 0.35335 0.43027 0.67237 0.0
H1588 H 0.32055 0.44116 0.71541 0.0
C1589 C 0.29614 0.3778 0.69406 0.0
C1590 C 0.36021 0.56665 0.4485 0.0
C1591 C 0.38027 0.54798 0.45943 0.0
H1592 H 0.35021 0.59883 0.41493 0.0
C1593 C 0.40747 0.55086 0.44806 0.0
H1594 H 0.33928 0.56558 0.45742 0.0
C1595 C 0.41388 0.57061 0.42433 0.0
C1596 C 0.39312 0.58749 0.41156 0.0
H1597 H 0.42341 0.53678 0.45589 0.0
H1598 H 0.43443 0.57113 0.41415 0.0
C1599 C 0.36652 0.58599 0.42457 0.0
C1600 C 0.12598 0.22705 0.38562 0.0
C1601 C 0.14493 0.22972 0.41161 0.0
H1602 H 0.11433 0.20465 0.34219 0.0
C1603 C 0.16728 0.21143 0.41257 0.0
H1604 H 0.10845 0.24072 0.38401 0.0
C1605 C 0.17042 0.19093 0.38902 0.0
C1606 C 0.15139 0.18775 0.36343 0.0
H1607 H 0.18269 0.21304 0.43153 0.0
H1608 H 0.18797 0.17732 0.39114 0.0
C1609 C 0.12916 0.20624 0.36178 0.0
C1610 C 0.08113 0.88093 0.61287 0.0
C1611 C 0.10084 0.90189 0.61658 0.0
H1612 H 0.04537 0.86096 0.63315 0.0
C1613 C 0.09886 0.91919 0.644 0.0
H1614 H 0.08183 0.86747 0.59186 0.0
C1615 C 0.0782 0.9157 0.66722 0.0
C1616 C 0.05858 0.89469 0.6641 0.0
H1617 H 0.11348 0.9357 0.64779 0.0
H1618 H 0.07751 0.92982 0.68762 0.0
C1619 C 0.06013 0.87741 0.6364 0.0
C1620 C 0.4073 0.83208 0.8639 0.0
C1621 C 0.385 0.85053 0.86487 0.0
H1622 H 0.42785 0.79788 0.88701 0.0
C1623 C 0.36561 0.84743 0.89012 0.0
H1624 H 0.4224 0.83355 0.84458 0.0
C1625 C 0.3685 0.82712 0.91401 0.0
C1626 C 0.39096 0.80893 0.9138 0.0
H1627 H 0.34797 0.86098 0.89173 0.0
H1628 H 0.35281 0.82561 0.93266 0.0
C1629 C 0.41023 0.81148 0.8881 0.0
C1630 C 0.43922 0.11994 0.14239 0.0
C1631 C 0.43672 0.13794 0.11564 0.0
H1632 H 0.46108 0.10844 0.18536 0.0
C1633 C 0.45611 0.15927 0.11251 0.0
H1634 H 0.42489 0.1031 0.14573 0.0
C1635 C 0.47724 0.16249 0.13596 0.0
C1636 C 0.47929 0.14451 0.16302 0.0
H1637 H 0.45504 0.1733 0.09204 0.0
H1638 H 0.4917 0.17926 0.13317 0.0
C1639 C 0.46002 0.12312 0.16552 0.0
C1640 C 0.13064 0.83162 0.25732 0.0
C1641 C 0.15298 0.84997 0.2559 0.0
H1642 H 0.10975 0.79745 0.23468 0.0
C1643 C 0.17214 0.84674 0.23044 0.0
H1644 H 0.11574 0.8332 0.27684 0.0
C1645 C 0.16895 0.82639 0.20673 0.0
C1646 C 0.14642 0.80833 0.20737 0.0
H1647 H 0.1898 0.86023 0.22853 0.0
H1648 H 0.18443 0.82476 0.18784 0.0
C1649 C 0.12739 0.81098 0.23329 0.0
C1650 C 0.46021 0.91591 0.45279 0.0
C1651 C 0.4797 0.89474 0.45547 0.0
H1652 H 0.42488 0.93567 0.47239 0.0
C1653 C 0.47784 0.87686 0.48264 0.0
H1654 H 0.46113 0.93049 0.43283 0.0
C1655 C 0.45667 0.87998 0.50605 0.0
C1656 C 0.43708 0.90112 0.50275 0.0
H1657 H 0.49249 0.86026 0.48555 0.0
H1658 H 0.45573 0.86606 0.52663 0.0
C1659 C 0.43939 0.919 0.47586 0.0
C1660 C 0.41023 0.22691 0.73007 0.0
C1661 C 0.39088 0.22943 0.70444 0.0
H1662 H 0.42249 0.20489 0.77359 0.0
C1663 C 0.36841 0.21127 0.70436 0.0
H1664 H 0.42786 0.24048 0.73106 0.0
C1665 C 0.36557 0.191 0.72831 0.0
C1666 C 0.38502 0.18793 0.7535 0.0
H1667 H 0.35268 0.21276 0.68576 0.0
H1668 H 0.34792 0.17748 0.7268 0.0
C1669 C 0.40734 0.20635 0.75433 0.0
C1670 C 0.08078 0.15823 1.00442 0.0
C1671 C 0.10013 0.1368 1.00189 0.0
H1672 H 0.0455 0.17819 0.98292 0.0
C1673 C 0.09781 0.11853 0.97539 0.0
H1674 H 0.08168 0.17245 1.02471 0.0
C1675 C 0.07727 0.12157 0.95191 0.0
C1676 C 0.05808 0.1431 0.95377 0.0
H1677 H 0.1121 0.1016 0.97251 0.0
H1678 H 0.07636 0.10671 0.93227 0.0
C1679 C 0.05991 0.16132 0.9806 0.0
C1680 C 0.86624 0.84656 0.73116 0.0
C1681 C 0.8855 0.8498 0.75649 0.0
H1682 H 0.85381 0.8246 0.68861 0.0
C1683 C 0.90791 0.83152 0.75773 0.0
H1684 H 0.84852 0.85999 0.72939 0.0
C1685 C 0.91111 0.81092 0.73364 0.0
C1686 C 0.89196 0.80825 0.70785 0.0
H1687 H 0.92288 0.83312 0.77717 0.0
H1688 H 0.9288 0.79744 0.73489 0.0
C1689 C 0.86937 0.82625 0.70739 0.0
C1690 C 0.97785 0.16045 0.48312 0.0
C1691 C 0.98052 0.14121 0.45741 0.0
H1692 H 0.95555 0.17249 0.52648 0.0
C1693 C 0.9624 0.11872 0.45694 0.0
H1694 H 0.99142 0.17808 0.48436 0.0
C1695 C 0.94199 0.11577 0.48061 0.0
C1696 C 0.93875 0.13512 0.50587 0.0
H1697 H 0.96404 0.10308 0.43824 0.0
H1698 H 0.92848 0.09811 0.47883 0.0
C1699 C 0.95714 0.15744 0.50712 0.0
C1700 C 0.62797 0.22812 0.23059 0.0
C1701 C 0.64716 0.23051 0.20478 0.0
H1702 H 0.61583 0.2061 0.27416 0.0
C1703 C 0.66945 0.21214 0.20439 0.0
H1704 H 0.61049 0.24188 0.2318 0.0
C1705 C 0.67228 0.1918 0.22821 0.0
C1706 C 0.65299 0.18884 0.25359 0.0
H1707 H 0.68506 0.21353 0.18562 0.0
H1708 H 0.6898 0.17811 0.22646 0.0
C1709 C 0.63084 0.20746 0.25474 0.0
C1710 C 0.57792 0.91637 0.95296 0.0
C1711 C 0.55859 0.89505 0.95562 0.0
H1712 H 0.61316 0.9363 0.97251 0.0
C1713 C 0.56059 0.87716 0.98276 0.0
H1714 H 0.57687 0.93098 0.93305 0.0
C1715 C 0.58179 0.88037 1.00613 0.0
C1716 C 0.60126 0.9016 1.0028 0.0
H1717 H 0.54607 0.86046 0.98566 0.0
H1718 H 0.58285 0.86642 1.02667 0.0
C1719 C 0.59877 0.91954 0.97599 0.0
C1720 C 0.8713 0.21001 0.91587 0.0
C1721 C 0.89277 0.22921 0.91334 0.0
H1722 H 0.85119 0.17488 0.89613 0.0
C1723 C 0.91064 0.22714 0.88622 0.0
H1724 H 0.8567 0.21111 0.93576 0.0
C1725 C 0.90731 0.20601 0.86279 0.0
C1726 C 0.88599 0.18663 0.86602 0.0
H1727 H 0.92745 0.24154 0.88339 0.0
H1728 H 0.92129 0.2049 0.8423 0.0
C1729 C 0.86802 0.1892 0.89276 0.0
C1730 C 0.57858 0.12271 0.66568 0.0
C1731 C 0.55903 0.14383 0.66294 0.0
H1732 H 0.61405 0.10308 0.64624 0.0
C1733 C 0.56092 0.1617 0.63576 0.0
H1734 H 0.57764 0.10812 0.68562 0.0
C1735 C 0.58218 0.15865 0.61244 0.0
C1736 C 0.60185 0.1376 0.61583 0.0
H1737 H 0.54624 0.17826 0.63279 0.0
H1738 H 0.58314 0.17258 0.59186 0.0
C1739 C 0.5995 0.1197 0.6427 0.0
C1740 C 0.63102 0.83303 0.36243 0.0
C1741 C 0.65334 0.85142 0.36366 0.0
H1742 H 0.61035 0.79875 0.38515 0.0
C1743 C 0.67267 0.84814 0.38894 0.0
H1744 H 0.61598 0.83466 0.34307 0.0
C1745 C 0.66969 0.82769 0.41262 0.0
C1746 C 0.6472 0.80956 0.41215 0.0
H1747 H 0.69032 0.86165 0.39072 0.0
H1748 H 0.68532 0.82603 0.43133 0.0
C1749 C 0.62799 0.81229 0.38642 0.0
C1750 C 0.93933 0.91875 0.14408 0.0
C1751 C 0.93736 0.90141 0.11669 0.0
H1752 H 0.96069 0.9295 0.18765 0.0
C1753 C 0.95711 0.88048 0.11301 0.0
H1754 H 0.92469 0.93525 0.14784 0.0
C1755 C 0.97814 0.87703 0.13653 0.0
C1756 C 0.97967 0.89436 0.16419 0.0
H1757 H 0.95642 0.86698 0.09203 0.0
H1758 H 0.99292 0.8606 0.1333 0.0
C1759 C 0.96001 0.91533 0.16728 0.0
C1760 C 0.67024 0.68909 0.89513 0.0
C1761 C 0.65217 0.68689 0.86842 0.0
H1762 H 0.68186 0.71044 0.93843 0.0
C1763 C 0.63087 0.70638 0.86574 0.0
H1764 H 0.68706 0.67469 0.89814 0.0
C1765 C 0.62772 0.72726 0.88957 0.0
C1766 C 0.64575 0.72898 0.91661 0.0
H1767 H 0.61678 0.70556 0.84533 0.0
H1768 H 0.61095 0.74175 0.8871 0.0
C1769 C 0.66713 0.70963 0.91864 0.0
C1770 C 0.58264 0.38017 0.11325 0.0
C1771 C 0.60212 0.40141 0.11644 0.0
H1772 H 0.54692 0.36032 0.13383 0.0
C1773 C 0.59966 0.41939 0.14321 0.0
H1774 H 0.58368 0.36617 0.09277 0.0
C1775 C 0.57882 0.41627 0.16629 0.0
C1776 C 0.55945 0.39497 0.16374 0.0
H1777 H 0.61407 0.43615 0.14658 0.0
H1778 H 0.5778 0.43092 0.18615 0.0
C1779 C 0.56145 0.37702 0.13666 0.0
C1780 C 0.87072 0.3494 0.39362 0.0
C1781 C 0.88823 0.35148 0.36638 0.0
H1782 H 0.85971 0.3279 0.43702 0.0
C1783 C 0.90923 0.33177 0.36287 0.0
H1784 H 0.85418 0.36401 0.39726 0.0
C1785 C 0.91255 0.31067 0.38638 0.0
C1786 C 0.89503 0.30901 0.41388 0.0
H1787 H 0.92286 0.33253 0.34203 0.0
H1788 H 0.92902 0.29592 0.38327 0.0
C1789 C 0.87402 0.32866 0.4168 0.0
C1790 C 0.94122 0.61785 0.6397 0.0
C1791 C 0.93832 0.63711 0.61425 0.0
H1792 H 0.9628 0.60516 0.68243 0.0
C1793 C 0.95686 0.65933 0.61317 0.0
H1794 H 0.92758 0.60029 0.64141 0.0
C1795 C 0.9774 0.66228 0.63742 0.0
C1796 C 0.97975 0.64311 0.66328 0.0
H1797 H 0.95554 0.67433 0.59371 0.0
H1798 H 0.99109 0.67981 0.63623 0.0
C1799 C 0.96144 0.62076 0.66363 0.0
C1800 C 0.63008 0.33126 0.75456 0.0
C1801 C 0.6522 0.34992 0.75333 0.0
H1802 H 0.60967 0.2969 0.73162 0.0
C1803 C 0.67128 0.34715 0.7277 0.0
H1804 H 0.61522 0.33249 0.77415 0.0
C1805 C 0.66834 0.32692 0.70377 0.0
C1806 C 0.64611 0.30848 0.70429 0.0
H1807 H 0.68877 0.36087 0.72584 0.0
H1808 H 0.68382 0.32567 0.68485 0.0
C1809 C 0.6271 0.31071 0.7303 0.0
C1810 C 0.9422 0.42202 0.97865 0.0
C1811 C 0.93915 0.40268 1.00398 0.0
H1812 H 0.9638 0.43462 0.93591 0.0
C1813 C 0.95745 0.38025 1.0049 0.0
H1814 H 0.92876 0.43975 0.97708 0.0
C1815 C 0.97788 0.37716 0.98056 0.0
C1816 C 0.98035 0.39641 0.95481 0.0
H1817 H 0.95601 0.3652 1.02429 0.0
H1818 H 0.99139 0.35948 0.98159 0.0
C1819 C 0.96232 0.41898 0.95464 0.0
C1820 C 0.87236 0.71062 0.20126 0.0
C1821 C 0.89371 0.72997 0.20337 0.0
H1822 H 0.85241 0.67572 0.22174 0.0
C1823 C 0.91165 0.72834 0.23048 0.0
H1824 H 0.85771 0.71138 0.1814 0.0
C1825 C 0.90846 0.70751 0.25435 0.0
C1826 C 0.88718 0.68802 0.2516 0.0
H1827 H 0.92838 0.74288 0.23298 0.0
H1828 H 0.92245 0.70676 0.27486 0.0
C1829 C 0.8692 0.69013 0.2248 0.0
C1830 C 0.58237 0.65976 0.50698 0.0
C1831 C 0.60049 0.63718 0.50627 0.0
H1832 H 0.54822 0.68036 0.48389 0.0
C1833 C 0.59676 0.6173 0.48168 0.0
H1834 H 0.5843 0.67522 0.52582 0.0
C1835 C 0.57619 0.61999 0.45813 0.0
C1836 C 0.55839 0.64274 0.458 0.0
H1837 H 0.61002 0.59942 0.48032 0.0
H1838 H 0.57421 0.60393 0.43998 0.0
C1839 C 0.56152 0.66251 0.48308 0.0
C1840 C 0.36913 0.32695 0.20426 0.0
C1841 C 0.3915 0.30867 0.20449 0.0
H1842 H 0.3487 0.36085 0.22646 0.0
C1843 C 0.41076 0.31112 0.23023 0.0
H1844 H 0.35345 0.32552 0.18559 0.0
C1845 C 0.40788 0.33173 0.25444 0.0
C1846 C 0.38565 0.35027 0.25343 0.0
H1847 H 0.42831 0.29744 0.23135 0.0
H1848 H 0.42295 0.33313 0.27379 0.0
C1849 C 0.3663 0.34725 0.22812 0.0
C1850 C 0.47708 0.66171 0.98057 0.0
C1851 C 0.47925 0.64321 0.95402 0.0
H1852 H 0.45475 0.67335 1.02412 0.0
C1853 C 0.46011 0.62163 0.95225 0.0
H1854 H 0.49143 0.67863 0.98284 0.0
C1855 C 0.43928 0.61886 0.97542 0.0
C1856 C 0.43657 0.63744 1.00158 0.0
H1857 H 0.46127 0.60652 0.93289 0.0
H1858 H 0.42504 0.60189 0.97255 0.0
C1859 C 0.45592 0.65889 1.00411 0.0
C1860 C 0.12617 0.7284 0.72996 0.0
C1861 C 0.14385 0.72981 0.70258 0.0
H1862 H 0.11554 0.7069 0.77448 0.0
C1863 C 0.16487 0.71013 0.70011 0.0
H1864 H 0.10969 0.74319 0.73274 0.0
C1865 C 0.16799 0.68957 0.72357 0.0
C1866 C 0.1503 0.68769 0.75067 0.0
H1867 H 0.17932 0.71069 0.68002 0.0
H1868 H 0.18455 0.67492 0.72022 0.0
C1869 C 0.12932 0.70748 0.75376 0.0
C1870 C 0.0602 0.37694 0.48052 0.0
C1871 C 0.05799 0.3961 0.45464 0.0
H1872 H 0.08188 0.3649 0.52437 0.0
C1873 C 0.07632 0.41842 0.45435 0.0
H1874 H 0.04646 0.35944 0.48165 0.0
C1875 C 0.09644 0.42132 0.47838 0.0
C1876 C 0.09922 0.40208 0.50386 0.0
H1877 H 0.07505 0.434 0.43553 0.0
H1878 H 0.11009 0.43888 0.47671 0.0
C1879 C 0.08065 0.37988 0.50488 0.0
C1880 C 0.37048 0.71138 0.4149 0.0
C1881 C 0.39273 0.7298 0.41451 0.0
H1882 H 0.35012 0.67739 0.39281 0.0
C1883 C 0.41188 0.72744 0.38864 0.0
H1884 H 0.35488 0.71272 0.43368 0.0
C1885 C 0.40899 0.70682 0.36443 0.0
C1886 C 0.38685 0.68819 0.36555 0.0
H1887 H 0.42934 0.74122 0.38739 0.0
H1888 H 0.42397 0.70552 0.34496 0.0
C1889 C 0.36764 0.69108 0.39103 0.0
C1890 C 0.08091 0.65958 0.11311 0.0
C1891 C 0.09935 0.63727 0.11415 0.0
H1892 H 0.04676 0.68019 0.13624 0.0
C1893 C 0.09634 0.61798 0.13955 0.0
H1894 H 0.08229 0.6746 0.09368 0.0
C1895 C 0.07613 0.62094 0.16347 0.0
C1896 C 0.05793 0.64339 0.16319 0.0
H1897 H 0.10988 0.60033 0.14123 0.0
H1898 H 0.07469 0.6053 0.18222 0.0
C1899 C 0.06038 0.66259 0.13738 0.0
C1900 C 0.16847 0.34935 0.89365 0.0
C1901 C 0.15054 0.35148 0.8668 0.0
H1902 H 0.17999 0.32801 0.93699 0.0
C1903 C 0.12937 0.33189 0.86391 0.0
H1904 H 0.1852 0.36382 0.89684 0.0
C1905 C 0.12621 0.31096 0.88769 0.0
C1906 C 0.1441 0.30933 0.91486 0.0
H1907 H 0.11541 0.33264 0.84336 0.0
H1908 H 0.10956 0.29636 0.88508 0.0
C1909 C 0.16536 0.32877 0.91709 0.0
C1910 C 0.45893 0.41523 0.6667 0.0
C1911 C 0.4785 0.39412 0.66404 0.0
H1912 H 0.4235 0.43486 0.64714 0.0
C1913 C 0.47668 0.37627 0.63684 0.0
H1914 H 0.4598 0.42981 0.68664 0.0
C1915 C 0.45546 0.37933 0.61344 0.0
C1916 C 0.43577 0.40037 0.61676 0.0
H1917 H 0.49137 0.35972 0.63392 0.0
H1918 H 0.45456 0.3654 0.59288 0.0
C1919 C 0.43806 0.41825 0.64364 0.0
C1920 C 0.13632 0.03324 0.30674 0.0
C1921 C 0.11148 0.04803 0.30463 0.0
H1922 H 0.15582 0.99358 0.31093 0.0
C1923 C 0.08667 0.03316 0.3064 0.0
H1924 H 0.15579 0.04403 0.30577 0.0
C1925 C 0.08668 1.0044 0.31051 0.0
C1926 C 0.11151 0.98956 0.31223 0.0
H1927 H 0.06713 0.04383 0.30526 0.0
H1928 H 0.06716 0.99372 0.31172 0.0
C1929 C 0.13634 1.00436 0.31 0.0
C1930 C 0.25434 0.83876 0.55752 0.0
C1931 C 0.23966 0.8637 0.55552 0.0
H1932 H 0.29355 0.81898 0.5635 0.0
C1933 C 0.25456 0.88845 0.55804 0.0
H1934 H 0.24358 0.81929 0.55613 0.0
C1935 C 0.28338 0.88827 0.56173 0.0
C1936 C 0.298 0.86333 0.56418 0.0
H1937 H 0.24391 0.90801 0.55696 0.0
H1938 H 0.29426 0.90769 0.56281 0.0
C1939 C 0.28302 0.83858 0.56217 0.0
C1940 C 0.45118 1.00486 0.80742 0.0
C1941 C 0.42636 0.98998 0.80595 0.0
H1942 H 0.47073 0.04435 0.8121 0.0
C1943 C 0.40154 1.00484 0.80799 0.0
H1944 H 0.4707 0.99418 0.80633 0.0
C1945 C 0.40156 0.03377 0.81084 0.0
C1946 C 0.42639 0.04859 0.81273 0.0
H1947 H 0.38206 0.99406 0.80723 0.0
H1948 H 0.38208 0.04456 0.8117 0.0
C1949 C 0.4512 0.03368 0.81113 0.0
C1950 C 0.25386 0.20053 0.06063 0.0
C1951 C 0.23906 0.1757 0.063 0.0
H1952 H 0.29315 0.22007 1.05423 0.0
C1953 C 0.25386 0.15085 0.06071 0.0
H1954 H 0.2432 0.22007 0.06182 0.0
C1955 C 0.28268 0.15085 1.05687 0.0
C1956 C 0.29741 0.1757 1.05406 0.0
H1957 H 0.24312 0.13136 0.06207 0.0
H1958 H 0.29347 0.13137 1.05594 0.0
C1959 C 0.28254 0.20053 1.05585 0.0
C1960 C 0.90141 0.03286 0.80756 0.0
C1961 C 0.92603 0.04786 0.80436 0.0
H1962 H 0.88239 0.99307 0.81267 0.0
C1963 C 0.95102 0.03322 0.80518 0.0
H1964 H 0.88182 0.04348 0.80736 0.0
C1965 C 0.95138 1.00446 0.80942 0.0
C1966 C 0.92674 0.98942 0.81221 0.0
H1967 H 0.97041 0.04406 0.80323 0.0
H1968 H 0.97101 0.99394 0.80988 0.0
C1969 C 0.90174 1.00401 0.81092 0.0
C1970 C 0.75554 0.20138 0.55426 0.0
C1971 C 0.74078 0.17644 0.55359 0.0
H1972 H 0.79487 0.22121 0.55888 0.0
C1973 C 0.75565 0.15174 0.55701 0.0
H1974 H 0.74481 0.22083 0.55214 0.0
C1975 C 0.7845 0.15195 0.56039 0.0
C1976 C 0.79919 0.17691 0.56152 0.0
H1977 H 0.74496 0.13219 0.55696 0.0
H1978 H 0.79534 0.13254 0.5623 0.0
C1979 C 0.78427 0.20162 0.55854 0.0
C1980 C 0.63629 0.03472 0.31032 0.0
C1981 C 0.61149 0.04957 0.3125 0.0
H1982 H 0.65573 0.995 0.30664 0.0
C1983 C 0.58665 0.0347 0.31131 0.0
H1984 H 0.65578 0.04549 0.31086 0.0
C1985 C 0.58661 1.00587 0.30775 0.0
C1986 C 0.61141 0.99097 0.30601 0.0
H1987 H 0.56714 0.0454 0.31251 0.0
H1988 H 0.56707 0.99519 0.30699 0.0
C1989 C 0.63626 1.0058 0.30762 0.0
C1990 C 0.75485 0.88785 0.06148 0.0
C1991 C 0.74021 0.86295 0.06416 0.0
H1992 H 0.79433 0.9075 1.0565 0.0
C1993 C 0.75515 0.83816 0.06238 0.0
H1994 H 0.744 0.90729 0.06237 0.0
C1995 C 0.78384 0.83828 1.05773 0.0
C1996 C 0.79854 0.86318 1.05549 0.0
H1997 H 0.74458 0.81859 0.06389 0.0
H1998 H 0.79458 0.81878 1.05654 0.0
C1999 C 0.78367 0.88797 1.05777 0.0
C2000 C 0.58818 0.53349 0.80575 0.0
C2001 C 0.61315 0.54817 0.80479 0.0
H2002 H 0.56821 0.4942 0.81036 0.0
C2003 C 0.63779 0.53311 0.80762 0.0
H2004 H 0.56878 0.54433 0.80407 0.0
C2005 C 0.63748 0.50419 0.8107 0.0
C2006 C 0.61249 0.48957 0.81215 0.0
H2007 H 0.65738 0.54372 0.8073 0.0
H2008 H 0.65684 0.49323 0.81215 0.0
C2009 C 0.58785 0.50469 0.80976 0.0
C2010 C 0.78465 0.33783 1.05886 0.0
C2011 C 0.79966 0.3625 0.06167 0.0
H2012 H 0.74515 0.31872 1.05257 0.0
C2013 C 0.78505 0.3875 0.06031 0.0
H2014 H 0.79518 0.31819 1.05937 0.0
C2015 C 0.7562 0.3878 1.05691 0.0
C2016 C 0.74125 0.36313 1.05367 0.0
H2017 H 0.79596 0.40688 0.06207 0.0
H2018 H 0.74555 0.40738 1.05667 0.0
C2019 C 0.75593 0.33815 1.05455 0.0
C2020 C 0.95025 0.53427 0.31121 0.0
C2021 C 0.92546 0.54914 0.31345 0.0
H2022 H 0.96972 0.49492 0.30484 0.0
C2023 C 0.90061 0.53439 0.31102 0.0
H2024 H 0.96979 0.5449 0.31252 0.0
C2025 C 0.90057 0.50555 0.30712 0.0
C2026 C 0.92537 0.49076 0.3044 0.0
H2027 H 0.88115 0.54518 0.31227 0.0
H2028 H 0.88108 0.4948 0.30607 0.0
C2029 C 0.95021 0.50558 0.30637 0.0
C2030 C 0.75519 0.65342 0.56138 0.0
C2031 C 0.74047 0.67832 0.56359 0.0
H2032 H 0.79476 0.63379 0.5571 0.0
C2033 C 0.7554 0.70311 0.5618 0.0
H2034 H 0.74436 0.63396 0.56236 0.0
C2035 C 0.78415 0.70301 0.55762 0.0
C2036 C 0.79893 0.67812 0.55584 0.0
H2037 H 0.7448 0.72268 0.56299 0.0
H2038 H 0.79487 0.72252 0.55641 0.0
C2039 C 0.78405 0.65332 0.55807 0.0
C2040 C 0.40196 0.53371 0.30764 0.0
C2041 C 0.42683 0.5485 0.30572 0.0
H2042 H 0.38237 0.49404 0.31124 0.0
C2043 C 0.4516 0.53351 0.3073 0.0
H2044 H 0.38251 0.54455 0.3068 0.0
C2045 C 0.45152 0.50468 0.311 0.0
C2046 C 0.42667 0.48985 0.31249 0.0
H2047 H 0.47116 0.54413 0.3063 0.0
H2048 H 0.47101 0.49395 0.31209 0.0
C2049 C 0.40188 0.50477 0.31047 0.0
C2050 C 0.28284 0.70172 0.06388 0.0
C2051 C 0.29755 0.67675 0.06476 0.0
H2052 H 0.24358 0.72165 1.05894 0.0
C2053 C 0.28261 0.65208 0.0614 0.0
H2054 H 0.29361 0.72114 0.06594 0.0
C2055 C 0.25377 0.65235 1.05786 0.0
C2056 C 0.23913 0.67734 1.0565 0.0
H2057 H 0.29326 0.6325 0.06161 0.0
H2058 H 0.24289 0.63297 1.056 0.0
C2059 C 0.25412 0.70202 0.05944 0.0
C2060 C 0.08732 0.50532 0.80658 0.0
C2061 C 0.11213 0.49046 0.80448 0.0
H2062 H 0.06781 0.5447 0.81273 0.0
C2063 C 0.13696 0.50524 0.80696 0.0
H2064 H 0.06779 0.49466 0.80525 0.0
C2065 C 0.13697 0.53408 0.81075 0.0
C2066 C 0.11215 0.54887 0.81333 0.0
H2067 H 0.15643 0.49447 0.8058 0.0
H2068 H 0.15645 0.54484 0.81183 0.0
C2069 C 0.08733 0.53404 0.81132 0.0
C2070 C 0.25327 0.3862 0.56043 0.0
C2071 C 0.23856 0.36126 0.56152 0.0
H2072 H 0.29282 0.40595 0.55702 0.0
C2073 C 0.25348 0.33654 0.55846 0.0
H2074 H 0.24244 0.40562 0.56239 0.0
C2075 C 0.28222 0.33678 0.55416 0.0
C2076 C 0.29699 0.36171 0.55354 0.0
H2077 H 0.24288 0.31695 0.55876 0.0
H2078 H 0.29294 0.31733 0.55199 0.0
C2079 C 0.28211 0.38641 0.55703 0.0
C2080 C 0.13725 0.17966 0.1713 0.0
C2081 C 0.13227 0.15805 0.14909 0.0
H2082 H 0.13913 0.19217 0.22191 0.0
C2083 C 0.12147 0.13332 0.16187 0.0
H2084 H 0.14615 0.19875 0.1627 0.0
C2085 C 0.11709 0.12972 0.19554 0.0
C2086 C 0.12336 0.15065 0.21798 0.0
H2087 H 0.11754 0.11606 0.14581 0.0
H2088 H 0.11028 0.10981 0.20426 0.0
C2089 C 0.13314 0.17589 0.20534 0.0
C2090 C 0.13507 0.85975 0.44805 0.0
C2091 C 0.1335 0.88243 0.46951 0.0
H2092 H 0.134 0.8458 0.3979 0.0
C2093 C 0.12569 0.90799 0.45605 0.0
H2094 H 0.14136 0.83982 0.45722 0.0
C2095 C 0.12138 0.91134 0.42241 0.0
C2096 C 0.12437 0.88923 0.40066 0.0
H2097 H 0.12397 0.92596 0.47149 0.0
H2098 H 0.11704 0.93177 0.41313 0.0
C2099 C 0.13074 0.86317 0.41398 0.0
C2100 C 0.40643 0.86238 0.70585 0.0
C2101 C 0.41367 0.88833 0.71889 0.0
H2102 H 0.39516 0.83898 0.66289 0.0
C2103 C 0.41741 0.91011 0.6968 0.0
H2104 H 0.40252 0.8453 0.72215 0.0
C2105 C 0.41304 0.90659 0.66315 0.0
C2106 C 0.40447 0.88116 0.64997 0.0
H2107 H 0.42234 0.93048 0.7058 0.0
H2108 H 0.4153 0.92437 0.64747 0.0
C2109 C 0.4021 0.85878 0.67178 0.0
C2110 C 0.40578 0.17662 0.91237 0.0
C2111 C 0.41381 0.15083 0.89952 0.0
H2112 H 0.39383 0.19992 0.95514 0.0
C2113 C 0.41822 0.1293 0.92179 0.0
H2114 H 0.40131 0.19348 0.89594 0.0
C2115 C 0.41374 0.13288 0.95542 0.0
C2116 C 0.40443 0.15814 0.96841 0.0
H2117 H 0.42372 0.10902 0.91294 0.0
H2118 H 0.41645 0.11526 0.97126 0.0
C2119 C 0.40138 0.1803 0.94641 0.0
C2120 C 0.9185 0.91033 0.92295 0.0
C2121 C 0.91433 0.88859 0.90094 0.0
H2122 H 0.91676 0.92458 0.97229 0.0
C2123 C 0.90671 0.86276 0.91398 0.0
H2124 H 0.92377 0.93061 0.91389 0.0
C2125 C 0.90236 0.85925 0.94801 0.0
C2126 C 0.90511 0.88161 0.96974 0.0
H2127 H 0.9025 0.84574 0.8977 0.0
H2128 H 0.89508 0.83958 0.95695 0.0
C2129 C 0.91414 0.90688 0.95659 0.0
C2130 C 0.92919 0.15479 0.6982 0.0
C2131 C 0.90637 0.15455 0.71954 0.0
H2132 H 0.94323 0.1574 0.64811 0.0
C2133 C 0.88041 0.16071 0.70595 0.0
H2134 H 0.94944 0.1498 0.70742 0.0
C2135 C 0.87693 0.16514 0.67237 0.0
C2136 C 0.89924 0.16393 0.65069 0.0
H2137 H 0.86222 0.16089 0.72122 0.0
H2138 H 0.8563 0.16815 0.66305 0.0
C2139 C 0.92563 0.15927 0.66413 0.0
C2140 C 0.63617 0.18025 0.4469 0.0
C2141 C 0.63421 0.15773 0.46857 0.0
H2142 H 0.63532 0.19398 0.39663 0.0
C2143 C 0.62593 0.13225 0.45527 0.0
H2144 H 0.64287 0.20009 0.45589 0.0
C2145 C 0.62146 0.12883 0.42164 0.0
C2146 C 0.62479 0.15077 0.39967 0.0
H2147 H 0.62396 0.11438 0.47085 0.0
H2148 H 0.61675 0.10844 0.41253 0.0
C2149 C 0.63173 0.17675 0.41284 0.0
C2150 C 0.63308 0.85998 0.17131 0.0
C2151 C 0.63366 0.88268 0.14976 0.0
H2152 H 0.63019 0.84624 0.22151 0.0
C2153 C 0.62782 0.90882 0.16313 0.0
H2154 H 0.63778 0.83958 0.16227 0.0
C2155 C 0.62337 0.91254 0.19667 0.0
C2156 C 0.62424 0.89032 0.21855 0.0
H2157 H 0.62788 0.92694 0.14772 0.0
H2158 H 0.62062 0.93329 0.2058 0.0
C2159 C 0.62858 0.86379 0.20535 0.0
C2160 C 0.60945 0.6556 0.69898 0.0
C2161 C 0.63212 0.65594 0.72055 0.0
H2162 H 0.59562 0.65793 0.64879 0.0
C2163 C 0.65797 0.66286 0.70715 0.0
H2164 H 0.58929 0.64998 0.708 0.0
C2165 C 0.66151 0.66756 0.67358 0.0
C2166 C 0.63936 0.66582 0.65169 0.0
H2167 H 0.67606 0.66344 0.72256 0.0
H2168 H 0.6821 0.67115 0.66443 0.0
C2169 C 0.61307 0.66028 0.66494 0.0
C2170 C 0.62081 0.40955 0.92208 0.0
C2171 C 0.62506 0.38783 0.90005 0.0
H2172 H 0.62261 0.4239 0.97141 0.0
C2173 C 0.63297 0.3621 0.91318 0.0
H2174 H 0.61538 0.42979 0.91301 0.0
C2175 C 0.63737 0.35863 0.94725 0.0
C2176 C 0.63445 0.38097 0.96901 0.0
H2177 H 0.63727 0.34508 0.89693 0.0
H2178 H 0.64479 0.33902 0.95619 0.0
C2179 C 0.62529 0.40618 0.95575 0.0
C2180 C 0.92682 0.38286 0.1629 0.0
C2181 C 0.90119 0.37466 0.14986 0.0
H2182 H 0.9498 0.39485 0.20586 0.0
C2183 C 0.87958 0.37002 0.17193 0.0
H2184 H 0.94372 0.38747 0.1466 0.0
C2185 C 0.88297 0.37444 0.2056 0.0
C2186 C 0.90806 0.38391 0.21876 0.0
H2187 H 0.85943 0.36436 0.1629 0.0
H2188 H 0.86534 0.37146 0.22132 0.0
C2189 C 0.9303 0.38719 0.19696 0.0
C2190 C 0.92997 0.65496 0.42082 0.0
C2191 C 0.90738 0.65624 0.3992 0.0
H2192 H 0.94373 0.65631 0.47106 0.0
C2193 C 0.88171 0.66382 0.41257 0.0
H2194 H 0.94997 0.64879 0.4118 0.0
C2195 C 0.87824 0.66833 0.44618 0.0
C2196 C 0.90028 0.66567 0.4681 0.0
H2197 H 0.8637 0.6651 0.39709 0.0
H2198 H 0.85775 0.67248 0.45533 0.0
C2199 C 0.9264 0.6594 0.45489 0.0
C2200 C 0.4089 0.3623 0.41342 0.0
C2201 C 0.41331 0.38878 0.40006 0.0
H2202 H 0.39963 0.33823 0.45662 0.0
C2203 C 0.41411 0.41106 0.42184 0.0
H2204 H 0.40734 0.34469 0.39736 0.0
C2205 C 0.4096 0.40745 0.45541 0.0
C2206 C 0.40376 0.38135 0.46895 0.0
H2207 H 0.4169 0.43177 0.41259 0.0
H2208 H 0.40952 0.42562 0.47071 0.0
C2209 C 0.40435 0.35859 0.44749 0.0
C2210 C 0.41597 0.62784 0.1966 0.0
C2211 C 0.41446 0.65003 0.21848 0.0
H2212 H 0.4118 0.61326 0.14764 0.0
C2213 C 0.40915 0.67637 0.20515 0.0
H2214 H 0.41936 0.6072 0.20579 0.0
C2215 C 0.40455 0.68002 0.17108 0.0
C2216 C 0.40473 0.65732 0.14952 0.0
H2217 H 0.40695 0.69388 0.22126 0.0
H2218 H 0.39918 0.70024 0.16202 0.0
C2219 C 0.41134 0.63138 0.163 0.0
C2220 C 0.10826 0.65576 0.92034 0.0
C2221 C 0.131 0.65586 0.89887 0.0
H2222 H 0.09431 0.6581 0.97049 0.0
C2223 C 0.15693 0.66229 0.91243 0.0
H2224 H 0.08804 0.65055 0.9112 0.0
C2225 C 0.16043 0.66676 0.94603 0.0
C2226 C 0.13818 0.66529 0.96782 0.0
H2227 H 0.17508 0.66272 0.89711 0.0
H2228 H 0.18104 0.67 0.9553 0.0
C2229 C 0.11185 0.66023 0.95443 0.0
C2230 C 0.10811 0.38351 0.69755 0.0
C2231 C 0.13089 0.38338 0.71896 0.0
H2232 H 0.09407 0.38112 0.64746 0.0
C2233 C 0.15677 0.37682 0.70539 0.0
H2234 H 0.08793 0.38882 0.70673 0.0
C2235 C 0.1602 0.37225 0.6718 0.0
C2236 C 0.13792 0.37376 0.65007 0.0
H2237 H 0.17494 0.37637 0.72068 0.0
H2238 H 0.18079 0.3689 0.6625 0.0
C2239 C 0.11163 0.37895 0.66349 0.0
loop_
_geom_bond_atom_site_label_1
_geom_bond_atom_site_label_2
_geom_bond_distance
_geom_bond_site_symmetry_2
_ccdc_geom_bond_type
La0 C2 2.928 . S
La0 O20 2.521 . S
La0 O21 2.628 . S
La0 O22 2.554 . S
La0 O23 2.757 . S
La0 O24 2.470 . S
La0 O29 2.482 . S
La0 O31 2.503 . S
La1 C11 2.928 . S
La1 O23 2.482 . S
La1 O25 2.503 . S
La1 O26 2.521 . S
La1 O27 2.628 . S
La1 O28 2.554 . S
La1 O29 2.757 . S
La1 O30 2.470 . S
C2 La0 2.928 . S
C2 C3 1.503 . S
C2 O20 1.261 . S
C2 O21 1.243 . S
C3 C2 1.503 . S
C3 C4 1.394 . S
C3 C8 1.373 . S
C4 C3 1.394 . S
C4 C5 1.380 . S
C4 H32 0.930 . S
C5 C4 1.380 . S
C5 C6 1.376 . S
C5 H33 0.930 . S
C6 C5 1.376 . S
C6 C7 1.370 . S
C7 C6 1.370 . S
C7 C8 1.396 . S
C7 H34 0.929 . S
C8 C3 1.373 . S
C8 C7 1.396 . S
C8 H35 0.929 . S
C9 O22 1.240 . S
C9 O23 1.289 . S
C10 O24 1.258 . S
C10 O25 1.256 . S
C11 La1 2.928 . S
C11 C12 1.503 . S
C11 O26 1.261 . S
C11 O27 1.243 . S
C12 C11 1.503 . S
C12 C13 1.394 . S
C12 C17 1.373 . S
C13 C12 1.394 . S
C13 C14 1.380 1_455 S
C13 H36 0.930 . S
C14 C13 1.380 1_655 S
C14 C15 1.376 . S
C14 H37 0.930 . S
C15 C14 1.376 . S
C15 C16 1.370 1_655 S
C16 C15 1.370 1_455 S
C16 C17 1.396 . S
C16 H38 0.929 . S
C17 C12 1.373 . S
C17 C16 1.396 . S
C17 H39 0.929 . S
C18 O28 1.240 . S
C18 O29 1.289 . S
C19 O30 1.258 . S
C19 O31 1.256 . S
O20 La0 2.521 . S
O20 C2 1.261 . S
O21 La0 2.628 . S
O21 C2 1.243 . S
O22 La0 2.554 . S
O22 C9 1.240 . S
O23 La0 2.757 . S
O23 La1 2.482 . S
O23 C9 1.289 . S
O24 La0 2.470 . S
O24 C10 1.258 . S
O25 La1 2.503 . S
O25 C10 1.256 . S
O26 La1 2.521 . S
O26 C11 1.261 . S
O27 La1 2.628 . S
O27 C11 1.243 . S
O28 La1 2.554 . S
O28 C18 1.240 . S
O29 La0 2.482 . S
O29 La1 2.757 . S
O29 C18 1.289 . S
O30 La1 2.470 . S
O30 C19 1.258 . S
O31 La0 2.503 . S
O31 C19 1.256 . S
H32 C4 0.930 . S
H33 C5 0.930 . S
H34 C7 0.929 . S
H35 C8 0.929 . S
H36 C13 0.930 . S
H37 C14 0.930 . S
H38 C16 0.929 . S
H39 C17 0.929 . S
La40 C42 2.928 . S
La40 O60 2.521 . S
La40 O61 2.628 . S
La40 O62 2.554 . S
La40 O63 2.757 . S
La40 O64 2.470 . S
La40 O69 2.482 . S
La40 O71 2.503 . S
La41 C51 2.928 . S
La41 O63 2.482 . S
La41 O65 2.503 . S
La41 O66 2.521 . S
La41 O67 2.628 . S
La41 O68 2.554 . S
La41 O69 2.757 . S
La41 O70 2.470 . S
C42 La40 2.928 . S
C42 C43 1.503 . S
C42 O60 1.261 . S
C42 O61 1.243 . S
C43 C42 1.503 . S
C43 C44 1.394 . S
C43 C48 1.373 . S
C44 C43 1.394 . S
C44 C45 1.380 1_565 S
C44 H72 0.932 . S
C45 C44 1.380 1_545 S
C45 C46 1.376 . S
C45 H73 0.930 . S
C46 C45 1.376 . S
C46 C47 1.370 1_545 S
C47 C46 1.370 1_565 S
C47 C48 1.396 . S
C47 H74 0.929 . S
C48 C43 1.373 . S
C48 C47 1.396 . S
C48 H75 0.929 . S
C49 O62 1.240 . S
C49 O63 1.289 . S
C50 O64 1.258 . S
C50 O65 1.256 . S
C51 La41 2.928 . S
C51 C52 1.503 . S
C51 O66 1.261 . S
C51 O67 1.243 . S
C52 C51 1.503 . S
C52 C53 1.394 . S
C52 C57 1.373 . S
C53 C52 1.394 . S
C53 C54 1.380 . S
C53 H76 0.930 . S
C54 C53 1.380 . S
C54 C55 1.376 . S
C54 H77 0.930 . S
C55 C54 1.376 . S
C55 C56 1.370 . S
C56 C55 1.370 . S
C56 C57 1.396 . S
C56 H78 0.929 . S
C57 C52 1.373 . S
C57 C56 1.396 . S
C57 H79 0.929 . S
C58 O68 1.240 . S
C58 O69 1.289 . S
C59 O70 1.258 . S
C59 O71 1.256 . S
O60 La40 2.521 . S
O60 C42 1.261 . S
O61 La40 2.628 . S
O61 C42 1.243 . S
O62 La40 2.554 . S
O62 C49 1.240 . S
O63 La40 2.757 . S
O63 La41 2.482 . S
O63 C49 1.289 . S
O64 La40 2.470 . S
O64 C50 1.258 . S
O65 La41 2.503 . S
O65 C50 1.256 . S
O66 La41 2.521 . S
O66 C51 1.261 . S
O67 La41 2.628 . S
O67 C51 1.243 . S
O68 La41 2.554 . S
O68 C58 1.240 . S
O69 La40 2.482 . S
O69 La41 2.757 . S
O69 C58 1.289 . S
O70 La41 2.470 . S
O70 C59 1.258 . S
O71 La40 2.503 . S
O71 C59 1.256 . S
H72 C44 0.932 . S
H73 C45 0.930 . S
H74 C47 0.929 . S
H75 C48 0.929 . S
H76 C53 0.930 . S
H77 C54 0.930 . S
H78 C56 0.929 . S
H79 C57 0.929 . S
La80 C82 2.928 . S
La80 O100 2.521 . S
La80 O101 2.628 . S
La80 O102 2.554 . S
La80 O103 2.757 . S
La80 O104 2.470 . S
La80 O109 2.482 . S
La80 O111 2.503 . S
La81 C91 2.928 . S
La81 O103 2.482 . S
La81 O105 2.503 . S
La81 O106 2.521 . S
La81 O107 2.628 . S
La81 O108 2.554 . S
La81 O109 2.757 . S
La81 O110 2.470 . S
C82 La80 2.928 . S
C82 C83 1.503 . S
C82 O100 1.261 . S
C82 O101 1.243 . S
C83 C82 1.503 . S
C83 C84 1.394 . S
C83 C88 1.373 . S
C84 C83 1.394 . S
C84 C85 1.380 . S
C84 H112 0.930 . S
C85 C84 1.380 . S
C85 C86 1.376 . S
C85 H113 0.930 . S
C86 C85 1.376 . S
C86 C87 1.370 . S
C87 C86 1.370 . S
C87 C88 1.396 . S
C87 H114 0.929 . S
C88 C83 1.373 . S
C88 C87 1.396 . S
C88 H115 0.929 . S
C89 O102 1.240 . S
C89 O103 1.289 . S
C90 O104 1.258 . S
C90 O105 1.256 . S
C91 La81 2.928 . S
C91 C92 1.503 . S
C91 O106 1.261 . S
C91 O107 1.243 . S
C92 C91 1.503 . S
C92 C93 1.394 . S
C92 C97 1.373 . S
C93 C92 1.394 . S
C93 C94 1.380 . S
C93 H116 0.930 . S
C94 C93 1.380 . S
C94 C95 1.376 . S
C94 H117 0.930 . S
C95 C94 1.376 . S
C95 C96 1.370 . S
C96 C95 1.370 . S
C96 C97 1.396 . S
C96 H118 0.929 . S
C97 C92 1.373 . S
C97 C96 1.396 . S
C97 H119 0.929 . S
C98 O108 1.240 . S
C98 O109 1.289 . S
C99 O110 1.258 . S
C99 O111 1.256 . S
O100 La80 2.521 . S
O100 C82 1.261 . S
O101 La80 2.628 . S
O101 C82 1.243 . S
O102 La80 2.554 . S
O102 C89 1.240 . S
O103 La80 2.757 . S
O103 La81 2.482 . S
O103 C89 1.289 . S
O104 La80 2.470 . S
O104 C90 1.258 . S
O105 La81 2.503 . S
O105 C90 1.256 . S
O106 La81 2.521 . S
O106 C91 1.261 . S
O107 La81 2.628 . S
O107 C91 1.243 . S
O108 La81 2.554 . S
O108 C98 1.240 . S
O109 La80 2.482 . S
O109 La81 2.757 . S
O109 C98 1.289 . S
O110 La81 2.470 . S
O110 C99 1.258 . S
O111 La80 2.503 . S
O111 C99 1.256 . S
H112 C84 0.930 . S
H113 C85 0.930 . S
H114 C87 0.929 . S
H115 C88 0.929 . S
H116 C93 0.930 . S
H117 C94 0.930 . S
H118 C96 0.929 . S
H119 C97 0.929 . S
La120 C122 2.928 1_554 S
La120 O140 2.521 1_554 S
La120 O141 2.628 1_554 S
La120 O142 2.554 . S
La120 O143 2.757 . S
La120 O144 2.470 1_554 S
La120 O149 2.480 1_554 S
La120 O151 2.503 . S
La121 C131 2.928 . S
La121 O143 2.482 . S
La121 O145 2.503 1_554 S
La121 O146 2.521 . S
La121 O147 2.628 . S
La121 O148 2.554 . S
La121 O149 2.755 1_554 S
La121 O150 2.470 . S
C122 La120 2.928 1_556 S
C122 C123 1.503 . S
C122 O140 1.261 . S
C122 O141 1.243 . S
C123 C122 1.503 . S
C123 C124 1.394 . S
C123 C128 1.373 . S
C124 C123 1.394 . S
C124 C125 1.380 1_545 S
C124 H152 0.932 . S
C125 C124 1.380 1_565 S
C125 C126 1.376 . S
C125 H153 0.930 . S
C126 C125 1.376 . S
C126 C127 1.370 1_565 S
C127 C126 1.370 1_545 S
C127 C128 1.396 . S
C127 H154 0.929 . S
C128 C123 1.373 . S
C128 C127 1.396 . S
C128 H155 0.929 . S
C129 O142 1.240 . S
C129 O143 1.289 . S
C130 O144 1.258 . S
C130 O145 1.256 . S
C131 La121 2.928 . S
C131 C132 1.503 . S
C131 O146 1.261 . S
C131 O147 1.243 . S
C132 C131 1.503 . S
C132 C133 1.394 . S
C132 C137 1.373 . S
C133 C132 1.394 . S
C133 C134 1.380 . S
C133 H156 0.930 . S
C134 C133 1.380 . S
C134 C135 1.376 . S
C134 H157 0.930 . S
C135 C134 1.376 . S
C135 C136 1.370 . S
C136 C135 1.370 . S
C136 C137 1.396 . S
C136 H158 0.929 . S
C137 C132 1.373 . S
C137 C136 1.396 . S
C137 H159 0.929 . S
C138 O148 1.240 1_556 S
C138 O149 1.290 . S
C139 O150 1.258 . S
C139 O151 1.256 . S
O140 La120 2.521 1_556 S
O140 C122 1.261 . S
O141 La120 2.628 1_556 S
O141 C122 1.243 . S
O142 La120 2.554 . S
O142 C129 1.240 . S
O143 La120 2.757 . S
O143 La121 2.482 . S
O143 C129 1.289 . S
O144 La120 2.470 1_556 S
O144 C130 1.258 . S
O145 La121 2.503 1_556 S
O145 C130 1.256 . S
O146 La121 2.521 . S
O146 C131 1.261 . S
O147 La121 2.628 . S
O147 C131 1.243 . S
O148 La121 2.554 . S
O148 C138 1.240 1_554 S
O149 La120 2.480 1_556 S
O149 La121 2.755 1_556 S
O149 C138 1.290 . S
O150 La121 2.470 . S
O150 C139 1.258 . S
O151 La120 2.503 . S
O151 C139 1.256 . S
H152 C124 0.932 . S
H153 C125 0.930 . S
H154 C127 0.929 . S
H155 C128 0.929 . S
H156 C133 0.930 . S
H157 C134 0.930 . S
H158 C136 0.929 . S
H159 C137 0.929 . S
La160 C162 2.928 . S
La160 O180 2.521 . S
La160 O181 2.628 . S
La160 O182 2.554 . S
La160 O183 2.757 . S
La160 O184 2.470 . S
La160 O189 2.482 . S
La160 O191 2.503 . S
La161 C171 2.928 . S
La161 O183 2.482 . S
La161 O185 2.503 . S
La161 O186 2.521 . S
La161 O187 2.628 . S
La161 O188 2.554 . S
La161 O189 2.757 . S
La161 O190 2.470 . S
C162 La160 2.928 . S
C162 C163 1.503 . S
C162 O180 1.261 . S
C162 O181 1.243 . S
C163 C162 1.503 . S
C163 C164 1.394 . S
C163 C168 1.373 . S
C164 C163 1.394 . S
C164 C165 1.380 . S
C164 H192 0.930 . S
C165 C164 1.380 . S
C165 C166 1.376 . S
C165 H193 0.930 . S
C166 C165 1.376 . S
C166 C167 1.370 . S
C167 C166 1.370 . S
C167 C168 1.396 . S
C167 H194 0.929 . S
C168 C163 1.373 . S
C168 C167 1.396 . S
C168 H195 0.929 . S
C169 O182 1.240 . S
C169 O183 1.289 . S
C170 O184 1.258 . S
C170 O185 1.256 . S
C171 La161 2.928 . S
C171 C172 1.503 . S
C171 O186 1.261 . S
C171 O187 1.243 . S
C172 C171 1.503 . S
C172 C173 1.394 . S
C172 C177 1.373 . S
C173 C172 1.394 . S
C173 C174 1.380 1_455 S
C173 H196 0.930 . S
C174 C173 1.380 1_655 S
C174 C175 1.376 . S
C174 H197 0.930 . S
C175 C174 1.376 . S
C175 C176 1.370 1_655 S
C176 C175 1.370 1_455 S
C176 C177 1.396 . S
C176 H198 0.929 . S
C177 C172 1.373 . S
C177 C176 1.396 . S
C177 H199 0.929 . S
C178 O188 1.240 . S
C178 O189 1.289 . S
C179 O190 1.258 . S
C179 O191 1.256 . S
O180 La160 2.521 . S
O180 C162 1.261 . S
O181 La160 2.628 . S
O181 C162 1.243 . S
O182 La160 2.554 . S
O182 C169 1.240 . S
O183 La160 2.757 . S
O183 La161 2.482 . S
O183 C169 1.289 . S
O184 La160 2.470 . S
O184 C170 1.258 . S
O185 La161 2.503 . S
O185 C170 1.256 . S
O186 La161 2.521 . S
O186 C171 1.261 . S
O187 La161 2.628 . S
O187 C171 1.243 . S
O188 La161 2.554 . S
O188 C178 1.240 . S
O189 La160 2.482 . S
O189 La161 2.757 . S
O189 C178 1.289 . S
O190 La161 2.470 . S
O190 C179 1.258 . S
O191 La160 2.503 . S
O191 C179 1.256 . S
H192 C164 0.930 . S
H193 C165 0.930 . S
H194 C167 0.929 . S
H195 C168 0.929 . S
H196 C173 0.930 . S
H197 C174 0.930 . S
H198 C176 0.929 . S
H199 C177 0.929 . S
La200 C202 2.928 . S
La200 O220 2.521 . S
La200 O221 2.628 . S
La200 O222 2.554 . S
La200 O223 2.757 . S
La200 O224 2.470 . S
La200 O229 2.482 . S
La200 O231 2.503 . S
La201 C211 2.928 . S
La201 O223 2.482 . S
La201 O225 2.503 . S
La201 O226 2.521 . S
La201 O227 2.628 . S
La201 O228 2.554 . S
La201 O229 2.757 . S
La201 O230 2.470 . S
C202 La200 2.928 . S
C202 C203 1.503 . S
C202 O220 1.261 . S
C202 O221 1.243 . S
C203 C202 1.503 . S
C203 C204 1.394 . S
C203 C208 1.373 . S
C204 C203 1.394 . S
C204 C205 1.380 1_565 S
C204 H232 0.932 . S
C205 C204 1.380 1_545 S
C205 C206 1.376 . S
C205 H233 0.930 . S
C206 C205 1.376 . S
C206 C207 1.370 1_545 S
C207 C206 1.370 1_565 S
C207 C208 1.396 . S
C207 H234 0.929 . S
C208 C203 1.373 . S
C208 C207 1.396 . S
C208 H235 0.929 . S
C209 O222 1.240 . S
C209 O223 1.289 . S
C210 O224 1.258 . S
C210 O225 1.256 . S
C211 La201 2.928 . S
C211 C212 1.503 . S
C211 O226 1.261 . S
C211 O227 1.243 . S
C212 C211 1.503 . S
C212 C213 1.394 . S
C212 C217 1.373 . S
C213 C212 1.394 . S
C213 C214 1.380 . S
C213 H236 0.930 . S
C214 C213 1.380 . S
C214 C215 1.376 . S
C214 H237 0.930 . S
C215 C214 1.376 . S
C215 C216 1.370 . S
C216 C215 1.370 . S
C216 C217 1.396 . S
C216 H238 0.929 . S
C217 C212 1.373 . S
C217 C216 1.396 . S
C217 H239 0.929 . S
C218 O228 1.240 . S
C218 O229 1.289 . S
C219 O230 1.258 . S
C219 O231 1.256 . S
O220 La200 2.521 . S
O220 C202 1.261 . S
O221 La200 2.628 . S
O221 C202 1.243 . S
O222 La200 2.554 . S
O222 C209 1.240 . S
O223 La200 2.757 . S
O223 La201 2.482 . S
O223 C209 1.289 . S
O224 La200 2.470 . S
O224 C210 1.258 . S
O225 La201 2.503 . S
O225 C210 1.256 . S
O226 La201 2.521 . S
O226 C211 1.261 . S
O227 La201 2.628 . S
O227 C211 1.243 . S
O228 La201 2.554 . S
O228 C218 1.240 . S
O229 La200 2.482 . S
O229 La201 2.757 . S
O229 C218 1.289 . S
O230 La201 2.470 . S
O230 C219 1.258 . S
O231 La200 2.503 . S
O231 C219 1.256 . S
H232 C204 0.932 . S
H233 C205 0.930 . S
H234 C207 0.929 . S
H235 C208 0.929 . S
H236 C213 0.930 . S
H237 C214 0.930 . S
H238 C216 0.929 . S
H239 C217 0.929 . S
La240 C242 2.928 . S
La240 O260 2.521 . S
La240 O261 2.628 . S
La240 O262 2.554 . S
La240 O263 2.757 . S
La240 O264 2.470 . S
La240 O269 2.482 . S
La240 O271 2.503 . S
La241 C251 2.928 . S
La241 O263 2.482 . S
La241 O265 2.503 . S
La241 O266 2.521 . S
La241 O267 2.628 . S
La241 O268 2.554 . S
La241 O269 2.757 . S
La241 O270 2.470 . S
C242 La240 2.928 . S
C242 C243 1.503 . S
C242 O260 1.261 . S
C242 O261 1.243 . S
C243 C242 1.503 . S
C243 C244 1.394 . S
C243 C248 1.373 . S
C244 C243 1.394 . S
C244 C245 1.380 . S
C244 H272 0.930 . S
C245 C244 1.380 . S
C245 C246 1.376 . S
C245 H273 0.930 . S
C246 C245 1.376 . S
C246 C247 1.370 . S
C247 C246 1.370 . S
C247 C248 1.396 . S
C247 H274 0.929 . S
C248 C243 1.373 . S
C248 C247 1.396 . S
C248 H275 0.929 . S
C249 O262 1.240 . S
C249 O263 1.289 . S
C250 O264 1.258 . S
C250 O265 1.256 . S
C251 La241 2.928 . S
C251 C252 1.503 . S
C251 O266 1.261 . S
C251 O267 1.243 . S
C252 C251 1.503 . S
C252 C253 1.394 . S
C252 C257 1.373 . S
C253 C252 1.394 . S
C253 C254 1.380 . S
C253 H276 0.930 . S
C254 C253 1.380 . S
C254 C255 1.376 . S
C254 H277 0.930 . S
C255 C254 1.376 . S
C255 C256 1.370 . S
C256 C255 1.370 . S
C256 C257 1.396 . S
C256 H278 0.929 . S
C257 C252 1.373 . S
C257 C256 1.396 . S
C257 H279 0.929 . S
C258 O268 1.240 . S
C258 O269 1.289 . S
C259 O270 1.258 . S
C259 O271 1.256 . S
O260 La240 2.521 . S
O260 C242 1.261 . S
O261 La240 2.628 . S
O261 C242 1.243 . S
O262 La240 2.554 . S
O262 C249 1.240 . S
O263 La240 2.757 . S
O263 La241 2.482 . S
O263 C249 1.289 . S
O264 La240 2.470 . S
O264 C250 1.258 . S
O265 La241 2.503 . S
O265 C250 1.256 . S
O266 La241 2.521 . S
O266 C251 1.261 . S
O267 La241 2.628 . S
O267 C251 1.243 . S
O268 La241 2.554 . S
O268 C258 1.240 . S
O269 La240 2.482 . S
O269 La241 2.757 . S
O269 C258 1.289 . S
O270 La241 2.470 . S
O270 C259 1.258 . S
O271 La240 2.503 . S
O271 C259 1.256 . S
H272 C244 0.930 . S
H273 C245 0.930 . S
H274 C247 0.929 . S
H275 C248 0.929 . S
H276 C253 0.930 . S
H277 C254 0.930 . S
H278 C256 0.929 . S
H279 C257 0.929 . S
La280 C282 2.928 1_556 S
La280 O300 2.521 1_556 S
La280 O301 2.628 1_556 S
La280 O302 2.554 . S
La280 O303 2.757 . S
La280 O304 2.470 1_556 S
La280 O309 2.480 1_556 S
La280 O311 2.503 . S
La281 C291 2.928 . S
La281 O303 2.482 . S
La281 O305 2.503 1_556 S
La281 O306 2.521 . S
La281 O307 2.628 . S
La281 O308 2.554 . S
La281 O309 2.755 1_556 S
La281 O310 2.470 . S
C282 La280 2.928 1_554 S
C282 C283 1.503 . S
C282 O300 1.261 . S
C282 O301 1.243 . S
C283 C282 1.503 . S
C283 C284 1.394 . S
C283 C288 1.373 . S
C284 C283 1.394 . S
C284 C285 1.380 1_545 S
C284 H312 0.932 . S
C285 C284 1.380 1_565 S
C285 C286 1.376 . S
C285 H313 0.930 . S
C286 C285 1.376 . S
C286 C287 1.370 1_565 S
C287 C286 1.370 1_545 S
C287 C288 1.396 . S
C287 H314 0.929 . S
C288 C283 1.373 . S
C288 C287 1.396 . S
C288 H315 0.929 . S
C289 O302 1.240 . S
C289 O303 1.289 . S
C290 O304 1.258 . S
C290 O305 1.256 . S
C291 La281 2.928 . S
C291 C292 1.503 . S
C291 O306 1.261 . S
C291 O307 1.243 . S
C292 C291 1.503 . S
C292 C293 1.394 . S
C292 C297 1.373 . S
C293 C292 1.394 . S
C293 C294 1.380 . S
C293 H316 0.930 . S
C294 C293 1.380 . S
C294 C295 1.376 . S
C294 H317 0.930 . S
C295 C294 1.376 . S
C295 C296 1.370 . S
C296 C295 1.370 . S
C296 C297 1.396 . S
C296 H318 0.929 . S
C297 C292 1.373 . S
C297 C296 1.396 . S
C297 H319 0.929 . S
C298 O308 1.240 1_554 S
C298 O309 1.290 . S
C299 O310 1.258 . S
C299 O311 1.256 . S
O300 La280 2.521 1_554 S
O300 C282 1.261 . S
O301 La280 2.628 1_554 S
O301 C282 1.243 . S
O302 La280 2.554 . S
O302 C289 1.240 . S
O303 La280 2.757 . S
O303 La281 2.482 . S
O303 C289 1.289 . S
O304 La280 2.470 1_554 S
O304 C290 1.258 . S
O305 La281 2.503 1_554 S
O305 C290 1.256 . S
O306 La281 2.521 . S
O306 C291 1.261 . S
O307 La281 2.628 . S
O307 C291 1.243 . S
O308 La281 2.554 . S
O308 C298 1.240 1_556 S
O309 La280 2.480 1_554 S
O309 La281 2.755 1_554 S
O309 C298 1.290 . S
O310 La281 2.470 . S
O310 C299 1.258 . S
O311 La280 2.503 . S
O311 C299 1.256 . S
H312 C284 0.932 . S
H313 C285 0.930 . S
H314 C287 0.929 . S
H315 C288 0.929 . S
H316 C293 0.930 . S
H317 C294 0.930 . S
H318 C296 0.929 . S
H319 C297 0.929 . S
La320 C322 2.928 . S
La320 O340 2.521 . S
La320 O341 2.628 . S
La320 O342 2.554 . S
La320 O343 2.757 . S
La320 O344 2.470 . S
La320 O349 2.482 . S
La320 O351 2.503 . S
La321 C331 2.928 . S
La321 O343 2.482 . S
La321 O345 2.503 . S
La321 O346 2.521 . S
La321 O347 2.628 . S
La321 O348 2.554 . S
La321 O349 2.757 . S
La321 O350 2.470 . S
C322 La320 2.928 . S
C322 C323 1.503 . S
C322 O340 1.261 . S
C322 O341 1.243 . S
C323 C322 1.503 . S
C323 C324 1.394 . S
C323 C328 1.373 . S
C324 C323 1.394 . S
C324 C325 1.380 1_655 S
C324 H352 0.930 . S
C325 C324 1.380 1_455 S
C325 C326 1.376 . S
C325 H353 0.930 . S
C326 C325 1.376 . S
C326 C327 1.370 1_455 S
C327 C326 1.370 1_655 S
C327 C328 1.396 . S
C327 H354 0.929 . S
C328 C323 1.373 . S
C328 C327 1.396 . S
C328 H355 0.929 . S
C329 O342 1.240 . S
C329 O343 1.289 . S
C330 O344 1.258 . S
C330 O345 1.256 . S
C331 La321 2.928 . S
C331 C332 1.503 . S
C331 O346 1.261 . S
C331 O347 1.243 . S
C332 C331 1.503 . S
C332 C333 1.394 . S
C332 C337 1.373 . S
C333 C332 1.394 . S
C333 C334 1.380 . S
C333 H356 0.930 . S
C334 C333 1.380 . S
C334 C335 1.376 . S
C334 H357 0.930 . S
C335 C334 1.376 . S
C335 C336 1.370 . S
C336 C335 1.370 . S
C336 C337 1.396 . S
C336 H358 0.929 . S
C337 C332 1.373 . S
C337 C336 1.396 . S
C337 H359 0.929 . S
C338 O348 1.240 . S
C338 O349 1.289 . S
C339 O350 1.258 . S
C339 O351 1.256 . S
O340 La320 2.521 . S
O340 C322 1.261 . S
O341 La320 2.628 . S
O341 C322 1.243 . S
O342 La320 2.554 . S
O342 C329 1.240 . S
O343 La320 2.757 . S
O343 La321 2.482 . S
O343 C329 1.289 . S
O344 La320 2.470 . S
O344 C330 1.258 . S
O345 La321 2.503 . S
O345 C330 1.256 . S
O346 La321 2.521 . S
O346 C331 1.261 . S
O347 La321 2.628 . S
O347 C331 1.243 . S
O348 La321 2.554 . S
O348 C338 1.240 . S
O349 La320 2.482 . S
O349 La321 2.757 . S
O349 C338 1.289 . S
O350 La321 2.470 . S
O350 C339 1.258 . S
O351 La320 2.503 . S
O351 C339 1.256 . S
H352 C324 0.930 . S
H353 C325 0.930 . S
H354 C327 0.929 . S
H355 C328 0.929 . S
H356 C333 0.930 . S
H357 C334 0.930 . S
H358 C336 0.929 . S
H359 C337 0.929 . S
La360 C362 2.928 . S
La360 O380 2.521 . S
La360 O381 2.628 . S
La360 O382 2.554 . S
La360 O383 2.757 . S
La360 O384 2.470 . S
La360 O389 2.482 . S
La360 O391 2.503 . S
La361 C371 2.928 . S
La361 O383 2.482 . S
La361 O385 2.503 . S
La361 O386 2.521 . S
La361 O387 2.628 . S
La361 O388 2.554 . S
La361 O389 2.757 . S
La361 O390 2.470 . S
C362 La360 2.928 . S
C362 C363 1.503 . S
C362 O380 1.261 . S
C362 O381 1.243 . S
C363 C362 1.503 . S
C363 C364 1.394 . S
C363 C368 1.373 . S
C364 C363 1.394 . S
C364 C365 1.380 . S
C364 H392 0.930 . S
C365 C364 1.380 . S
C365 C366 1.376 . S
C365 H393 0.930 . S
C366 C365 1.376 . S
C366 C367 1.370 . S
C367 C366 1.370 . S
C367 C368 1.396 . S
C367 H394 0.929 . S
C368 C363 1.373 . S
C368 C367 1.396 . S
C368 H395 0.929 . S
C369 O382 1.240 . S
C369 O383 1.289 . S
C370 O384 1.258 . S
C370 O385 1.256 . S
C371 La361 2.928 . S
C371 C372 1.503 . S
C371 O386 1.261 . S
C371 O387 1.243 . S
C372 C371 1.503 . S
C372 C373 1.394 . S
C372 C377 1.373 . S
C373 C372 1.394 . S
C373 C374 1.380 1_545 S
C373 H396 0.932 . S
C374 C373 1.380 1_565 S
C374 C375 1.376 . S
C374 H397 0.930 . S
C375 C374 1.376 . S
C375 C376 1.370 1_565 S
C376 C375 1.370 1_545 S
C376 C377 1.396 . S
C376 H398 0.929 . S
C377 C372 1.373 . S
C377 C376 1.396 . S
C377 H399 0.929 . S
C378 O388 1.240 . S
C378 O389 1.289 . S
C379 O390 1.258 . S
C379 O391 1.256 . S
O380 La360 2.521 . S
O380 C362 1.261 . S
O381 La360 2.628 . S
O381 C362 1.243 . S
O382 La360 2.554 . S
O382 C369 1.240 . S
O383 La360 2.757 . S
O383 La361 2.482 . S
O383 C369 1.289 . S
O384 La360 2.470 . S
O384 C370 1.258 . S
O385 La361 2.503 . S
O385 C370 1.256 . S
O386 La361 2.521 . S
O386 C371 1.261 . S
O387 La361 2.628 . S
O387 C371 1.243 . S
O388 La361 2.554 . S
O388 C378 1.240 . S
O389 La360 2.482 . S
O389 La361 2.757 . S
O389 C378 1.289 . S
O390 La361 2.470 . S
O390 C379 1.258 . S
O391 La360 2.503 . S
O391 C379 1.256 . S
H392 C364 0.930 . S
H393 C365 0.930 . S
H394 C367 0.929 . S
H395 C368 0.929 . S
H396 C373 0.932 . S
H397 C374 0.930 . S
H398 C376 0.929 . S
H399 C377 0.929 . S
La400 C402 2.928 . S
La400 O420 2.521 . S
La400 O421 2.628 . S
La400 O422 2.554 . S
La400 O423 2.757 . S
La400 O424 2.470 . S
La400 O429 2.482 . S
La400 O431 2.503 . S
La401 C411 2.928 . S
La401 O423 2.482 . S
La401 O425 2.503 . S
La401 O426 2.521 . S
La401 O427 2.628 . S
La401 O428 2.554 . S
La401 O429 2.757 . S
La401 O430 2.470 . S
C402 La400 2.928 . S
C402 C403 1.503 . S
C402 O420 1.261 . S
C402 O421 1.243 . S
C403 C402 1.503 . S
C403 C404 1.394 . S
C403 C408 1.373 . S
C404 C403 1.394 . S
C404 C405 1.380 . S
C404 H432 0.930 . S
C405 C404 1.380 . S
C405 C406 1.376 . S
C405 H433 0.930 . S
C406 C405 1.376 . S
C406 C407 1.370 . S
C407 C406 1.370 . S
C407 C408 1.396 . S
C407 H434 0.929 . S
C408 C403 1.373 . S
C408 C407 1.396 . S
C408 H435 0.929 . S
C409 O422 1.240 . S
C409 O423 1.289 . S
C410 O424 1.258 . S
C410 O425 1.256 . S
C411 La401 2.928 . S
C411 C412 1.503 . S
C411 O426 1.261 . S
C411 O427 1.243 . S
C412 C411 1.503 . S
C412 C413 1.394 . S
C412 C417 1.373 . S
C413 C412 1.394 . S
C413 C414 1.380 . S
C413 H436 0.930 . S
C414 C413 1.380 . S
C414 C415 1.376 . S
C414 H437 0.930 . S
C415 C414 1.376 . S
C415 C416 1.370 . S
C416 C415 1.370 . S
C416 C417 1.396 . S
C416 H438 0.929 . S
C417 C412 1.373 . S
C417 C416 1.396 . S
C417 H439 0.929 . S
C418 O428 1.240 . S
C418 O429 1.289 . S
C419 O430 1.258 . S
C419 O431 1.256 . S
O420 La400 2.521 . S
O420 C402 1.261 . S
O421 La400 2.628 . S
O421 C402 1.243 . S
O422 La400 2.554 . S
O422 C409 1.240 . S
O423 La400 2.757 . S
O423 La401 2.482 . S
O423 C409 1.289 . S
O424 La400 2.470 . S
O424 C410 1.258 . S
O425 La401 2.503 . S
O425 C410 1.256 . S
O426 La401 2.521 . S
O426 C411 1.261 . S
O427 La401 2.628 . S
O427 C411 1.243 . S
O428 La401 2.554 . S
O428 C418 1.240 . S
O429 La400 2.482 . S
O429 La401 2.757 . S
O429 C418 1.289 . S
O430 La401 2.470 . S
O430 C419 1.258 . S
O431 La400 2.503 . S
O431 C419 1.256 . S
H432 C404 0.930 . S
H433 C405 0.930 . S
H434 C407 0.929 . S
H435 C408 0.929 . S
H436 C413 0.930 . S
H437 C414 0.930 . S
H438 C416 0.929 . S
H439 C417 0.929 . S
La440 C442 2.928 . S
La440 O460 2.521 . S
La440 O461 2.628 . S
La440 O462 2.554 . S
La440 O463 2.755 1_556 S
La440 O464 2.470 . S
La440 O469 2.482 . S
La440 O471 2.503 1_556 S
La441 C451 2.928 1_556 S
La441 O463 2.480 1_556 S
La441 O465 2.503 . S
La441 O466 2.521 1_556 S
La441 O467 2.628 1_556 S
La441 O468 2.554 . S
La441 O469 2.757 . S
La441 O470 2.470 1_556 S
C442 La440 2.928 . S
C442 C443 1.503 . S
C442 O460 1.261 . S
C442 O461 1.243 . S
C443 C442 1.503 . S
C443 C444 1.394 . S
C443 C448 1.373 . S
C444 C443 1.394 . S
C444 C445 1.380 . S
C444 H472 0.930 . S
C445 C444 1.380 . S
C445 C446 1.376 . S
C445 H473 0.930 . S
C446 C445 1.376 . S
C446 C447 1.370 . S
C447 C446 1.370 . S
C447 C448 1.396 . S
C447 H474 0.929 . S
C448 C443 1.373 . S
C448 C447 1.396 . S
C448 H475 0.929 . S
C449 O462 1.240 1_554 S
C449 O463 1.290 . S
C450 O464 1.258 . S
C450 O465 1.256 . S
C451 La441 2.928 1_554 S
C451 C452 1.503 . S
C451 O466 1.261 . S
C451 O467 1.243 . S
C452 C451 1.503 . S
C452 C453 1.394 . S
C452 C457 1.373 . S
C453 C452 1.394 . S
C453 C454 1.380 1_565 S
C453 H476 0.932 . S
C454 C453 1.380 1_545 S
C454 C455 1.376 . S
C454 H477 0.930 . S
C455 C454 1.376 . S
C455 C456 1.370 1_545 S
C456 C455 1.370 1_565 S
C456 C457 1.396 . S
C456 H478 0.929 . S
C457 C452 1.373 . S
C457 C456 1.396 . S
C457 H479 0.929 . S
C458 O468 1.240 . S
C458 O469 1.289 . S
C459 O470 1.258 . S
C459 O471 1.256 . S
O460 La440 2.521 . S
O460 C442 1.261 . S
O461 La440 2.628 . S
O461 C442 1.243 . S
O462 La440 2.554 . S
O462 C449 1.240 1_556 S
O463 La440 2.755 1_554 S
O463 La441 2.480 1_554 S
O463 C449 1.290 . S
O464 La440 2.470 . S
O464 C450 1.258 . S
O465 La441 2.503 . S
O465 C450 1.256 . S
O466 La441 2.521 1_554 S
O466 C451 1.261 . S
O467 La441 2.628 1_554 S
O467 C451 1.243 . S
O468 La441 2.554 . S
O468 C458 1.240 . S
O469 La440 2.482 . S
O469 La441 2.757 . S
O469 C458 1.289 . S
O470 La441 2.470 1_554 S
O470 C459 1.258 . S
O471 La440 2.503 1_554 S
O471 C459 1.256 . S
H472 C444 0.930 . S
H473 C445 0.930 . S
H474 C447 0.929 . S
H475 C448 0.929 . S
H476 C453 0.932 . S
H477 C454 0.930 . S
H478 C456 0.929 . S
H479 C457 0.929 . S
La480 C482 2.928 . S
La480 O500 2.521 . S
La480 O501 2.628 . S
La480 O502 2.554 . S
La480 O503 2.757 . S
La480 O504 2.470 . S
La480 O509 2.482 . S
La480 O511 2.503 . S
La481 C491 2.928 . S
La481 O503 2.482 . S
La481 O505 2.503 . S
La481 O506 2.521 . S
La481 O507 2.628 . S
La481 O508 2.554 . S
La481 O509 2.757 . S
La481 O510 2.470 . S
C482 La480 2.928 . S
C482 C483 1.503 . S
C482 O500 1.261 . S
C482 O501 1.243 . S
C483 C482 1.503 . S
C483 C484 1.394 . S
C483 C488 1.373 . S
C484 C483 1.394 . S
C484 C485 1.380 1_655 S
C484 H512 0.930 . S
C485 C484 1.380 1_455 S
C485 C486 1.376 . S
C485 H513 0.930 . S
C486 C485 1.376 . S
C486 C487 1.370 1_455 S
C487 C486 1.370 1_655 S
C487 C488 1.396 . S
C487 H514 0.929 . S
C488 C483 1.373 . S
C488 C487 1.396 . S
C488 H515 0.929 . S
C489 O502 1.240 . S
C489 O503 1.289 . S
C490 O504 1.258 . S
C490 O505 1.256 . S
C491 La481 2.928 . S
C491 C492 1.503 . S
C491 O506 1.261 . S
C491 O507 1.243 . S
C492 C491 1.503 . S
C492 C493 1.394 . S
C492 C497 1.373 . S
C493 C492 1.394 . S
C493 C494 1.380 . S
C493 H516 0.930 . S
C494 C493 1.380 . S
C494 C495 1.376 . S
C494 H517 0.930 . S
C495 C494 1.376 . S
C495 C496 1.370 . S
C496 C495 1.370 . S
C496 C497 1.396 . S
C496 H518 0.929 . S
C497 C492 1.373 . S
C497 C496 1.396 . S
C497 H519 0.929 . S
C498 O508 1.240 . S
C498 O509 1.289 . S
C499 O510 1.258 . S
C499 O511 1.256 . S
O500 La480 2.521 . S
O500 C482 1.261 . S
O501 La480 2.628 . S
O501 C482 1.243 . S
O502 La480 2.554 . S
O502 C489 1.240 . S
O503 La480 2.757 . S
O503 La481 2.482 . S
O503 C489 1.289 . S
O504 La480 2.470 . S
O504 C490 1.258 . S
O505 La481 2.503 . S
O505 C490 1.256 . S
O506 La481 2.521 . S
O506 C491 1.261 . S
O507 La481 2.628 . S
O507 C491 1.243 . S
O508 La481 2.554 . S
O508 C498 1.240 . S
O509 La480 2.482 . S
O509 La481 2.757 . S
O509 C498 1.289 . S
O510 La481 2.470 . S
O510 C499 1.258 . S
O511 La480 2.503 . S
O511 C499 1.256 . S
H512 C484 0.930 . S
H513 C485 0.930 . S
H514 C487 0.929 . S
H515 C488 0.929 . S
H516 C493 0.930 . S
H517 C494 0.930 . S
H518 C496 0.929 . S
H519 C497 0.929 . S
La520 C522 2.928 . S
La520 O540 2.521 . S
La520 O541 2.628 . S
La520 O542 2.554 . S
La520 O543 2.757 . S
La520 O544 2.470 . S
La520 O549 2.482 . S
La520 O551 2.503 . S
La521 C531 2.928 . S
La521 O543 2.482 . S
La521 O545 2.503 . S
La521 O546 2.521 . S
La521 O547 2.628 . S
La521 O548 2.554 . S
La521 O549 2.757 . S
La521 O550 2.470 . S
C522 La520 2.928 . S
C522 C523 1.503 . S
C522 O540 1.261 . S
C522 O541 1.243 . S
C523 C522 1.503 . S
C523 C524 1.394 . S
C523 C528 1.373 . S
C524 C523 1.394 . S
C524 C525 1.380 . S
C524 H552 0.930 . S
C525 C524 1.380 . S
C525 C526 1.376 . S
C525 H553 0.930 . S
C526 C525 1.376 . S
C526 C527 1.370 . S
C527 C526 1.370 . S
C527 C528 1.396 . S
C527 H554 0.929 . S
C528 C523 1.373 . S
C528 C527 1.396 . S
C528 H555 0.929 . S
C529 O542 1.240 . S
C529 O543 1.289 . S
C530 O544 1.258 . S
C530 O545 1.256 . S
C531 La521 2.928 . S
C531 C532 1.503 . S
C531 O546 1.261 . S
C531 O547 1.243 . S
C532 C531 1.503 . S
C532 C533 1.394 . S
C532 C537 1.373 . S
C533 C532 1.394 . S
C533 C534 1.380 1_545 S
C533 H556 0.932 . S
C534 C533 1.380 1_565 S
C534 C535 1.376 . S
C534 H557 0.930 . S
C535 C534 1.376 . S
C535 C536 1.370 1_565 S
C536 C535 1.370 1_545 S
C536 C537 1.396 . S
C536 H558 0.929 . S
C537 C532 1.373 . S
C537 C536 1.396 . S
C537 H559 0.929 . S
C538 O548 1.240 . S
C538 O549 1.289 . S
C539 O550 1.258 . S
C539 O551 1.256 . S
O540 La520 2.521 . S
O540 C522 1.261 . S
O541 La520 2.628 . S
O541 C522 1.243 . S
O542 La520 2.554 . S
O542 C529 1.240 . S
O543 La520 2.757 . S
O543 La521 2.482 . S
O543 C529 1.289 . S
O544 La520 2.470 . S
O544 C530 1.258 . S
O545 La521 2.503 . S
O545 C530 1.256 . S
O546 La521 2.521 . S
O546 C531 1.261 . S
O547 La521 2.628 . S
O547 C531 1.243 . S
O548 La521 2.554 . S
O548 C538 1.240 . S
O549 La520 2.482 . S
O549 La521 2.757 . S
O549 C538 1.289 . S
O550 La521 2.470 . S
O550 C539 1.258 . S
O551 La520 2.503 . S
O551 C539 1.256 . S
H552 C524 0.930 . S
H553 C525 0.930 . S
H554 C527 0.929 . S
H555 C528 0.929 . S
H556 C533 0.932 . S
H557 C534 0.930 . S
H558 C536 0.929 . S
H559 C537 0.929 . S
La560 C562 2.928 . S
La560 O580 2.521 . S
La560 O581 2.628 . S
La560 O582 2.554 . S
La560 O583 2.757 . S
La560 O584 2.470 . S
La560 O589 2.482 . S
La560 O591 2.503 . S
La561 C571 2.928 . S
La561 O583 2.482 . S
La561 O585 2.503 . S
La561 O586 2.521 . S
La561 O587 2.628 . S
La561 O588 2.554 . S
La561 O589 2.757 . S
La561 O590 2.470 . S
C562 La560 2.928 . S
C562 C563 1.503 . S
C562 O580 1.261 . S
C562 O581 1.243 . S
C563 C562 1.503 . S
C563 C564 1.394 . S
C563 C568 1.373 . S
C564 C563 1.394 . S
C564 C565 1.380 . S
C564 H592 0.930 . S
C565 C564 1.380 . S
C565 C566 1.376 . S
C565 H593 0.930 . S
C566 C565 1.376 . S
C566 C567 1.370 . S
C567 C566 1.370 . S
C567 C568 1.396 . S
C567 H594 0.929 . S
C568 C563 1.373 . S
C568 C567 1.396 . S
C568 H595 0.929 . S
C569 O582 1.240 . S
C569 O583 1.289 . S
C570 O584 1.258 . S
C570 O585 1.256 . S
C571 La561 2.928 . S
C571 C572 1.503 . S
C571 O586 1.261 . S
C571 O587 1.243 . S
C572 C571 1.503 . S
C572 C573 1.394 . S
C572 C577 1.373 . S
C573 C572 1.394 . S
C573 C574 1.380 . S
C573 H596 0.930 . S
C574 C573 1.380 . S
C574 C575 1.376 . S
C574 H597 0.930 . S
C575 C574 1.376 . S
C575 C576 1.370 . S
C576 C575 1.370 . S
C576 C577 1.396 . S
C576 H598 0.929 . S
C577 C572 1.373 . S
C577 C576 1.396 . S
C577 H599 0.929 . S
C578 O588 1.240 . S
C578 O589 1.289 . S
C579 O590 1.258 . S
C579 O591 1.256 . S
O580 La560 2.521 . S
O580 C562 1.261 . S
O581 La560 2.628 . S
O581 C562 1.243 . S
O582 La560 2.554 . S
O582 C569 1.240 . S
O583 La560 2.757 . S
O583 La561 2.482 . S
O583 C569 1.289 . S
O584 La560 2.470 . S
O584 C570 1.258 . S
O585 La561 2.503 . S
O585 C570 1.256 . S
O586 La561 2.521 . S
O586 C571 1.261 . S
O587 La561 2.628 . S
O587 C571 1.243 . S
O588 La561 2.554 . S
O588 C578 1.240 . S
O589 La560 2.482 . S
O589 La561 2.757 . S
O589 C578 1.289 . S
O590 La561 2.470 . S
O590 C579 1.258 . S
O591 La560 2.503 . S
O591 C579 1.256 . S
H592 C564 0.930 . S
H593 C565 0.930 . S
H594 C567 0.929 . S
H595 C568 0.929 . S
H596 C573 0.930 . S
H597 C574 0.930 . S
H598 C576 0.929 . S
H599 C577 0.929 . S
La600 C602 2.928 . S
La600 O620 2.521 . S
La600 O621 2.628 . S
La600 O622 2.554 . S
La600 O623 2.755 1_554 S
La600 O624 2.470 . S
La600 O629 2.482 . S
La600 O631 2.503 1_554 S
La601 C611 2.928 1_554 S
La601 O623 2.480 1_554 S
La601 O625 2.503 . S
La601 O626 2.521 1_554 S
La601 O627 2.628 1_554 S
La601 O628 2.554 . S
La601 O629 2.757 . S
La601 O630 2.470 1_554 S
C602 La600 2.928 . S
C602 C603 1.503 . S
C602 O620 1.261 . S
C602 O621 1.243 . S
C603 C602 1.503 . S
C603 C604 1.394 . S
C603 C608 1.373 . S
C604 C603 1.394 . S
C604 C605 1.380 . S
C604 H632 0.930 . S
C605 C604 1.380 . S
C605 C606 1.376 . S
C605 H633 0.930 . S
C606 C605 1.376 . S
C606 C607 1.370 . S
C607 C606 1.370 . S
C607 C608 1.396 . S
C607 H634 0.929 . S
C608 C603 1.373 . S
C608 C607 1.396 . S
C608 H635 0.929 . S
C609 O622 1.240 1_556 S
C609 O623 1.290 . S
C610 O624 1.258 . S
C610 O625 1.256 . S
C611 La601 2.928 1_556 S
C611 C612 1.503 . S
C611 O626 1.261 . S
C611 O627 1.243 . S
C612 C611 1.503 . S
C612 C613 1.394 . S
C612 C617 1.373 . S
C613 C612 1.394 . S
C613 C614 1.380 1_565 S
C613 H636 0.932 . S
C614 C613 1.380 1_545 S
C614 C615 1.376 . S
C614 H637 0.930 . S
C615 C614 1.376 . S
C615 C616 1.370 1_545 S
C616 C615 1.370 1_565 S
C616 C617 1.396 . S
C616 H638 0.929 . S
C617 C612 1.373 . S
C617 C616 1.396 . S
C617 H639 0.929 . S
C618 O628 1.240 . S
C618 O629 1.289 . S
C619 O630 1.258 . S
C619 O631 1.256 . S
O620 La600 2.521 . S
O620 C602 1.261 . S
O621 La600 2.628 . S
O621 C602 1.243 . S
O622 La600 2.554 . S
O622 C609 1.240 1_554 S
O623 La600 2.755 1_556 S
O623 La601 2.480 1_556 S
O623 C609 1.290 . S
O624 La600 2.470 . S
O624 C610 1.258 . S
O625 La601 2.503 . S
O625 C610 1.256 . S
O626 La601 2.521 1_556 S
O626 C611 1.261 . S
O627 La601 2.628 1_556 S
O627 C611 1.243 . S
O628 La601 2.554 . S
O628 C618 1.240 . S
O629 La600 2.482 . S
O629 La601 2.757 . S
O629 C618 1.289 . S
O630 La601 2.470 1_556 S
O630 C619 1.258 . S
O631 La600 2.503 1_556 S
O631 C619 1.256 . S
H632 C604 0.930 . S
H633 C605 0.930 . S
H634 C607 0.929 . S
H635 C608 0.929 . S
H636 C613 0.932 . S
H637 C614 0.930 . S
H638 C616 0.929 . S
H639 C617 0.929 . S
La640 C642 2.928 . S
La640 O660 2.521 . S
La640 O661 2.628 . S
La640 O662 2.554 . S
La640 O663 2.757 . S
La640 O664 2.470 . S
La640 O669 2.482 . S
La640 O671 2.503 . S
La641 C651 2.928 . S
La641 O663 2.482 . S
La641 O665 2.503 . S
La641 O666 2.521 . S
La641 O667 2.628 . S
La641 O668 2.554 . S
La641 O669 2.757 . S
La641 O670 2.470 . S
C642 La640 2.928 . S
C642 C643 1.503 . S
C642 O660 1.261 . S
C642 O661 1.243 . S
C643 C642 1.503 . S
C643 C644 1.394 . S
C643 C648 1.373 . S
C644 C643 1.394 . S
C644 C645 1.380 . S
C644 H672 0.930 . S
C645 C644 1.380 . S
C645 C646 1.376 . S
C645 H673 0.930 . S
C646 C645 1.376 . S
C646 C647 1.370 . S
C647 C646 1.370 . S
C647 C648 1.396 . S
C647 H674 0.929 . S
C648 C643 1.373 . S
C648 C647 1.396 . S
C648 H675 0.929 . S
C649 O662 1.240 . S
C649 O663 1.289 . S
C650 O664 1.258 . S
C650 O665 1.256 . S
C651 La641 2.928 . S
C651 C652 1.503 . S
C651 O666 1.261 . S
C651 O667 1.243 . S
C652 C651 1.503 . S
C652 C653 1.394 . S
C652 C657 1.373 . S
C653 C652 1.394 . S
C653 C654 1.380 . S
C653 H676 0.930 . S
C654 C653 1.380 . S
C654 C655 1.376 . S
C654 H677 0.930 . S
C655 C654 1.376 . S
C655 C656 1.370 . S
C656 C655 1.370 . S
C656 C657 1.396 . S
C656 H678 0.929 . S
C657 C652 1.373 . S
C657 C656 1.396 . S
C657 H679 0.929 . S
C658 O668 1.240 . S
C658 O669 1.289 . S
C659 O670 1.258 . S
C659 O671 1.256 . S
O660 La640 2.521 . S
O660 C642 1.261 . S
O661 La640 2.628 . S
O661 C642 1.243 . S
O662 La640 2.554 . S
O662 C649 1.240 . S
O663 La640 2.757 . S
O663 La641 2.482 . S
O663 C649 1.289 . S
O664 La640 2.470 . S
O664 C650 1.258 . S
O665 La641 2.503 . S
O665 C650 1.256 . S
O666 La641 2.521 . S
O666 C651 1.261 . S
O667 La641 2.628 . S
O667 C651 1.243 . S
O668 La641 2.554 . S
O668 C658 1.240 . S
O669 La640 2.482 . S
O669 La641 2.757 . S
O669 C658 1.289 . S
O670 La641 2.470 . S
O670 C659 1.258 . S
O671 La640 2.503 . S
O671 C659 1.256 . S
H672 C644 0.930 . S
H673 C645 0.930 . S
H674 C647 0.929 . S
H675 C648 0.929 . S
H676 C653 0.930 . S
H677 C654 0.930 . S
H678 C656 0.929 . S
H679 C657 0.929 . S
La680 C682 2.928 1_554 S
La680 O700 2.521 1_554 S
La680 O701 2.628 1_554 S
La680 O702 2.554 . S
La680 O703 2.757 . S
La680 O704 2.470 1_554 S
La680 O709 2.480 1_554 S
La680 O711 2.503 . S
La681 C691 2.928 . S
La681 O703 2.482 . S
La681 O705 2.503 1_554 S
La681 O706 2.521 . S
La681 O707 2.628 . S
La681 O708 2.554 . S
La681 O709 2.755 1_554 S
La681 O710 2.470 . S
C682 La680 2.928 1_556 S
C682 C683 1.503 . S
C682 O700 1.261 . S
C682 O701 1.243 . S
C683 C682 1.503 . S
C683 C684 1.394 . S
C683 C688 1.373 . S
C684 C683 1.394 . S
C684 C685 1.380 . S
C684 H712 0.930 . S
C685 C684 1.380 . S
C685 C686 1.376 . S
C685 H713 0.930 . S
C686 C685 1.376 . S
C686 C687 1.370 . S
C687 C686 1.370 . S
C687 C688 1.396 . S
C687 H714 0.929 . S
C688 C683 1.373 . S
C688 C687 1.396 . S
C688 H715 0.929 . S
C689 O702 1.240 . S
C689 O703 1.289 . S
C690 O704 1.258 . S
C690 O705 1.256 . S
C691 La681 2.928 . S
C691 C692 1.503 . S
C691 O706 1.261 . S
C691 O707 1.243 . S
C692 C691 1.503 . S
C692 C693 1.394 . S
C692 C697 1.373 . S
C693 C692 1.394 . S
C693 C694 1.380 . S
C693 H716 0.930 . S
C694 C693 1.380 . S
C694 C695 1.376 . S
C694 H717 0.930 . S
C695 C694 1.376 . S
C695 C696 1.370 . S
C696 C695 1.370 . S
C696 C697 1.396 . S
C696 H718 0.929 . S
C697 C692 1.373 . S
C697 C696 1.396 . S
C697 H719 0.929 . S
C698 O708 1.240 1_556 S
C698 O709 1.290 . S
C699 O710 1.258 . S
C699 O711 1.256 . S
O700 La680 2.521 1_556 S
O700 C682 1.261 . S
O701 La680 2.628 1_556 S
O701 C682 1.243 . S
O702 La680 2.554 . S
O702 C689 1.240 . S
O703 La680 2.757 . S
O703 La681 2.482 . S
O703 C689 1.289 . S
O704 La680 2.470 1_556 S
O704 C690 1.258 . S
O705 La681 2.503 1_556 S
O705 C690 1.256 . S
O706 La681 2.521 . S
O706 C691 1.261 . S
O707 La681 2.628 . S
O707 C691 1.243 . S
O708 La681 2.554 . S
O708 C698 1.240 1_554 S
O709 La680 2.480 1_556 S
O709 La681 2.755 1_556 S
O709 C698 1.290 . S
O710 La681 2.470 . S
O710 C699 1.258 . S
O711 La680 2.503 . S
O711 C699 1.256 . S
H712 C684 0.930 . S
H713 C685 0.930 . S
H714 C687 0.929 . S
H715 C688 0.929 . S
H716 C693 0.930 . S
H717 C694 0.930 . S
H718 C696 0.929 . S
H719 C697 0.929 . S
La720 C722 2.928 . S
La720 O740 2.521 . S
La720 O741 2.628 . S
La720 O742 2.554 . S
La720 O743 2.757 . S
La720 O744 2.470 . S
La720 O749 2.482 . S
La720 O751 2.503 . S
La721 C731 2.928 . S
La721 O743 2.482 . S
La721 O745 2.503 . S
La721 O746 2.521 . S
La721 O747 2.628 . S
La721 O748 2.554 . S
La721 O749 2.757 . S
La721 O750 2.470 . S
C722 La720 2.928 . S
C722 C723 1.503 . S
C722 O740 1.261 . S
C722 O741 1.243 . S
C723 C722 1.503 . S
C723 C724 1.394 . S
C723 C728 1.373 . S
C724 C723 1.394 . S
C724 C725 1.380 . S
C724 H752 0.930 . S
C725 C724 1.380 . S
C725 C726 1.376 . S
C725 H753 0.930 . S
C726 C725 1.376 . S
C726 C727 1.370 . S
C727 C726 1.370 . S
C727 C728 1.396 . S
C727 H754 0.929 . S
C728 C723 1.373 . S
C728 C727 1.396 . S
C728 H755 0.929 . S
C729 O742 1.240 . S
C729 O743 1.289 . S
C730 O744 1.258 . S
C730 O745 1.256 . S
C731 La721 2.928 . S
C731 C732 1.503 . S
C731 O746 1.261 . S
C731 O747 1.243 . S
C732 C731 1.503 . S
C732 C733 1.394 . S
C732 C737 1.373 . S
C733 C732 1.394 . S
C733 C734 1.380 1_655 S
C733 H756 0.930 . S
C734 C733 1.380 1_455 S
C734 C735 1.376 . S
C734 H757 0.930 . S
C735 C734 1.376 . S
C735 C736 1.370 1_455 S
C736 C735 1.370 1_655 S
C736 C737 1.396 . S
C736 H758 0.929 . S
C737 C732 1.373 . S
C737 C736 1.396 . S
C737 H759 0.929 . S
C738 O748 1.240 . S
C738 O749 1.289 . S
C739 O750 1.258 . S
C739 O751 1.256 . S
O740 La720 2.521 . S
O740 C722 1.261 . S
O741 La720 2.628 . S
O741 C722 1.243 . S
O742 La720 2.554 . S
O742 C729 1.240 . S
O743 La720 2.757 . S
O743 La721 2.482 . S
O743 C729 1.289 . S
O744 La720 2.470 . S
O744 C730 1.258 . S
O745 La721 2.503 . S
O745 C730 1.256 . S
O746 La721 2.521 . S
O746 C731 1.261 . S
O747 La721 2.628 . S
O747 C731 1.243 . S
O748 La721 2.554 . S
O748 C738 1.240 . S
O749 La720 2.482 . S
O749 La721 2.757 . S
O749 C738 1.289 . S
O750 La721 2.470 . S
O750 C739 1.258 . S
O751 La720 2.503 . S
O751 C739 1.256 . S
H752 C724 0.930 . S
H753 C725 0.930 . S
H754 C727 0.929 . S
H755 C728 0.929 . S
H756 C733 0.930 . S
H757 C734 0.930 . S
H758 C736 0.929 . S
H759 C737 0.929 . S
La760 C762 2.928 . S
La760 O780 2.521 . S
La760 O781 2.628 . S
La760 O782 2.554 . S
La760 O783 2.757 . S
La760 O784 2.470 . S
La760 O789 2.482 . S
La760 O791 2.503 . S
La761 C771 2.928 . S
La761 O783 2.482 . S
La761 O785 2.503 . S
La761 O786 2.521 . S
La761 O787 2.628 . S
La761 O788 2.554 . S
La761 O789 2.757 . S
La761 O790 2.470 . S
C762 La760 2.928 . S
C762 C763 1.503 . S
C762 O780 1.261 . S
C762 O781 1.243 . S
C763 C762 1.503 . S
C763 C764 1.394 . S
C763 C768 1.373 . S
C764 C763 1.394 . S
C764 C765 1.380 . S
C764 H792 0.930 . S
C765 C764 1.380 . S
C765 C766 1.376 . S
C765 H793 0.930 . S
C766 C765 1.376 . S
C766 C767 1.370 . S
C767 C766 1.370 . S
C767 C768 1.396 . S
C767 H794 0.929 . S
C768 C763 1.373 . S
C768 C767 1.396 . S
C768 H795 0.929 . S
C769 O782 1.240 . S
C769 O783 1.289 . S
C770 O784 1.258 . S
C770 O785 1.256 . S
C771 La761 2.928 . S
C771 C772 1.503 . S
C771 O786 1.261 . S
C771 O787 1.243 . S
C772 C771 1.503 . S
C772 C773 1.394 . S
C772 C777 1.373 . S
C773 C772 1.394 . S
C773 C774 1.380 . S
C773 H796 0.930 . S
C774 C773 1.380 . S
C774 C775 1.376 . S
C774 H797 0.930 . S
C775 C774 1.376 . S
C775 C776 1.370 . S
C776 C775 1.370 . S
C776 C777 1.396 . S
C776 H798 0.929 . S
C777 C772 1.373 . S
C777 C776 1.396 . S
C777 H799 0.929 . S
C778 O788 1.240 . S
C778 O789 1.289 . S
C779 O790 1.258 . S
C779 O791 1.256 . S
O780 La760 2.521 . S
O780 C762 1.261 . S
O781 La760 2.628 . S
O781 C762 1.243 . S
O782 La760 2.554 . S
O782 C769 1.240 . S
O783 La760 2.757 . S
O783 La761 2.482 . S
O783 C769 1.289 . S
O784 La760 2.470 . S
O784 C770 1.258 . S
O785 La761 2.503 . S
O785 C770 1.256 . S
O786 La761 2.521 . S
O786 C771 1.261 . S
O787 La761 2.628 . S
O787 C771 1.243 . S
O788 La761 2.554 . S
O788 C778 1.240 . S
O789 La760 2.482 . S
O789 La761 2.757 . S
O789 C778 1.289 . S
O790 La761 2.470 . S
O790 C779 1.258 . S
O791 La760 2.503 . S
O791 C779 1.256 . S
H792 C764 0.930 . S
H793 C765 0.930 . S
H794 C767 0.929 . S
H795 C768 0.929 . S
H796 C773 0.930 . S
H797 C774 0.930 . S
H798 C776 0.929 . S
H799 C777 0.929 . S
La800 C802 2.928 . S
La800 O820 2.521 . S
La800 O821 2.628 . S
La800 O822 2.554 . S
La800 O823 2.757 . S
La800 O824 2.470 . S
La800 O829 2.482 . S
La800 O831 2.503 . S
La801 C811 2.928 . S
La801 O823 2.482 . S
La801 O825 2.503 . S
La801 O826 2.521 . S
La801 O827 2.628 . S
La801 O828 2.554 . S
La801 O829 2.757 . S
La801 O830 2.470 . S
C802 La800 2.928 . S
C802 C803 1.503 . S
C802 O820 1.261 . S
C802 O821 1.243 . S
C803 C802 1.503 . S
C803 C804 1.394 . S
C803 C808 1.373 . S
C804 C803 1.394 . S
C804 C805 1.380 . S
C804 H832 0.930 . S
C805 C804 1.380 . S
C805 C806 1.376 . S
C805 H833 0.930 . S
C806 C805 1.376 . S
C806 C807 1.370 . S
C807 C806 1.370 . S
C807 C808 1.396 . S
C807 H834 0.929 . S
C808 C803 1.373 . S
C808 C807 1.396 . S
C808 H835 0.929 . S
C809 O822 1.240 . S
C809 O823 1.289 . S
C810 O824 1.258 . S
C810 O825 1.256 . S
C811 La801 2.928 . S
C811 C812 1.503 . S
C811 O826 1.261 . S
C811 O827 1.243 . S
C812 C811 1.503 . S
C812 C813 1.394 . S
C812 C817 1.373 . S
C813 C812 1.394 . S
C813 C814 1.380 . S
C813 H836 0.930 . S
C814 C813 1.380 . S
C814 C815 1.376 . S
C814 H837 0.930 . S
C815 C814 1.376 . S
C815 C816 1.370 . S
C816 C815 1.370 . S
C816 C817 1.396 . S
C816 H838 0.929 . S
C817 C812 1.373 . S
C817 C816 1.396 . S
C817 H839 0.929 . S
C818 O828 1.240 . S
C818 O829 1.289 . S
C819 O830 1.258 . S
C819 O831 1.256 . S
O820 La800 2.521 . S
O820 C802 1.261 . S
O821 La800 2.628 . S
O821 C802 1.243 . S
O822 La800 2.554 . S
O822 C809 1.240 . S
O823 La800 2.757 . S
O823 La801 2.482 . S
O823 C809 1.289 . S
O824 La800 2.470 . S
O824 C810 1.258 . S
O825 La801 2.503 . S
O825 C810 1.256 . S
O826 La801 2.521 . S
O826 C811 1.261 . S
O827 La801 2.628 . S
O827 C811 1.243 . S
O828 La801 2.554 . S
O828 C818 1.240 . S
O829 La800 2.482 . S
O829 La801 2.757 . S
O829 C818 1.289 . S
O830 La801 2.470 . S
O830 C819 1.258 . S
O831 La800 2.503 . S
O831 C819 1.256 . S
H832 C804 0.930 . S
H833 C805 0.930 . S
H834 C807 0.929 . S
H835 C808 0.929 . S
H836 C813 0.930 . S
H837 C814 0.930 . S
H838 C816 0.929 . S
H839 C817 0.929 . S
La840 C842 2.928 1_556 S
La840 O860 2.521 1_556 S
La840 O861 2.628 1_556 S
La840 O862 2.554 . S
La840 O863 2.757 . S
La840 O864 2.470 1_556 S
La840 O869 2.480 1_556 S
La840 O871 2.503 . S
La841 C851 2.928 . S
La841 O863 2.482 . S
La841 O865 2.503 1_556 S
La841 O866 2.521 . S
La841 O867 2.628 . S
La841 O868 2.554 . S
La841 O869 2.755 1_556 S
La841 O870 2.470 . S
C842 La840 2.928 1_554 S
C842 C843 1.503 . S
C842 O860 1.261 . S
C842 O861 1.243 . S
C843 C842 1.503 . S
C843 C844 1.394 . S
C843 C848 1.373 . S
C844 C843 1.394 . S
C844 C845 1.380 . S
C844 H872 0.930 . S
C845 C844 1.380 . S
C845 C846 1.376 . S
C845 H873 0.930 . S
C846 C845 1.376 . S
C846 C847 1.370 . S
C847 C846 1.370 . S
C847 C848 1.396 . S
C847 H874 0.929 . S
C848 C843 1.373 . S
C848 C847 1.396 . S
C848 H875 0.929 . S
C849 O862 1.240 . S
C849 O863 1.289 . S
C850 O864 1.258 . S
C850 O865 1.256 . S
C851 La841 2.928 . S
C851 C852 1.503 . S
C851 O866 1.261 . S
C851 O867 1.243 . S
C852 C851 1.503 . S
C852 C853 1.394 . S
C852 C857 1.373 . S
C853 C852 1.394 . S
C853 C854 1.380 . S
C853 H876 0.930 . S
C854 C853 1.380 . S
C854 C855 1.376 . S
C854 H877 0.930 . S
C855 C854 1.376 . S
C855 C856 1.370 . S
C856 C855 1.370 . S
C856 C857 1.396 . S
C856 H878 0.929 . S
C857 C852 1.373 . S
C857 C856 1.396 . S
C857 H879 0.929 . S
C858 O868 1.240 1_554 S
C858 O869 1.290 . S
C859 O870 1.258 . S
C859 O871 1.256 . S
O860 La840 2.521 1_554 S
O860 C842 1.261 . S
O861 La840 2.628 1_554 S
O861 C842 1.243 . S
O862 La840 2.554 . S
O862 C849 1.240 . S
O863 La840 2.757 . S
O863 La841 2.482 . S
O863 C849 1.289 . S
O864 La840 2.470 1_554 S
O864 C850 1.258 . S
O865 La841 2.503 1_554 S
O865 C850 1.256 . S
O866 La841 2.521 . S
O866 C851 1.261 . S
O867 La841 2.628 . S
O867 C851 1.243 . S
O868 La841 2.554 . S
O868 C858 1.240 1_556 S
O869 La840 2.480 1_554 S
O869 La841 2.755 1_554 S
O869 C858 1.290 . S
O870 La841 2.470 . S
O870 C859 1.258 . S
O871 La840 2.503 . S
O871 C859 1.256 . S
H872 C844 0.930 . S
H873 C845 0.930 . S
H874 C847 0.929 . S
H875 C848 0.929 . S
H876 C853 0.930 . S
H877 C854 0.930 . S
H878 C856 0.929 . S
H879 C857 0.929 . S
La880 C882 2.928 . S
La880 O900 2.521 . S
La880 O901 2.628 . S
La880 O902 2.554 . S
La880 O903 2.757 . S
La880 O904 2.470 . S
La880 O909 2.482 . S
La880 O911 2.503 . S
La881 C891 2.928 . S
La881 O903 2.482 . S
La881 O905 2.503 . S
La881 O906 2.521 . S
La881 O907 2.628 . S
La881 O908 2.554 . S
La881 O909 2.757 . S
La881 O910 2.470 . S
C882 La880 2.928 . S
C882 C883 1.503 . S
C882 O900 1.261 . S
C882 O901 1.243 . S
C883 C882 1.503 . S
C883 C884 1.394 . S
C883 C888 1.373 . S
C884 C883 1.394 . S
C884 C885 1.380 . S
C884 H912 0.930 . S
C885 C884 1.380 . S
C885 C886 1.376 . S
C885 H913 0.930 . S
C886 C885 1.376 . S
C886 C887 1.370 . S
C887 C886 1.370 . S
C887 C888 1.396 . S
C887 H914 0.929 . S
C888 C883 1.373 . S
C888 C887 1.396 . S
C888 H915 0.929 . S
C889 O902 1.240 . S
C889 O903 1.289 . S
C890 O904 1.258 . S
C890 O905 1.256 . S
C891 La881 2.928 . S
C891 C892 1.503 . S
C891 O906 1.261 . S
C891 O907 1.243 . S
C892 C891 1.503 . S
C892 C893 1.394 . S
C892 C897 1.373 . S
C893 C892 1.394 . S
C893 C894 1.380 1_655 S
C893 H916 0.930 . S
C894 C893 1.380 1_455 S
C894 C895 1.376 . S
C894 H917 0.930 . S
C895 C894 1.376 . S
C895 C896 1.370 1_455 S
C896 C895 1.370 1_655 S
C896 C897 1.396 . S
C896 H918 0.929 . S
C897 C892 1.373 . S
C897 C896 1.396 . S
C897 H919 0.929 . S
C898 O908 1.240 . S
C898 O909 1.289 . S
C899 O910 1.258 . S
C899 O911 1.256 . S
O900 La880 2.521 . S
O900 C882 1.261 . S
O901 La880 2.628 . S
O901 C882 1.243 . S
O902 La880 2.554 . S
O902 C889 1.240 . S
O903 La880 2.757 . S
O903 La881 2.482 . S
O903 C889 1.289 . S
O904 La880 2.470 . S
O904 C890 1.258 . S
O905 La881 2.503 . S
O905 C890 1.256 . S
O906 La881 2.521 . S
O906 C891 1.261 . S
O907 La881 2.628 . S
O907 C891 1.243 . S
O908 La881 2.554 . S
O908 C898 1.240 . S
O909 La880 2.482 . S
O909 La881 2.757 . S
O909 C898 1.289 . S
O910 La881 2.470 . S
O910 C899 1.258 . S
O911 La880 2.503 . S
O911 C899 1.256 . S
H912 C884 0.930 . S
H913 C885 0.930 . S
H914 C887 0.929 . S
H915 C888 0.929 . S
H916 C893 0.930 . S
H917 C894 0.930 . S
H918 C896 0.929 . S
H919 C897 0.929 . S
La920 C922 2.928 . S
La920 O940 2.521 . S
La920 O941 2.628 . S
La920 O942 2.554 . S
La920 O943 2.757 . S
La920 O944 2.470 . S
La920 O949 2.482 . S
La920 O951 2.503 . S
La921 C931 2.928 . S
La921 O943 2.482 . S
La921 O945 2.503 . S
La921 O946 2.521 . S
La921 O947 2.628 . S
La921 O948 2.554 . S
La921 O949 2.757 . S
La921 O950 2.470 . S
C922 La920 2.928 . S
C922 C923 1.503 . S
C922 O940 1.261 . S
C922 O941 1.243 . S
C923 C922 1.503 . S
C923 C924 1.394 . S
C923 C928 1.373 . S
C924 C923 1.394 . S
C924 C925 1.380 . S
C924 H952 0.930 . S
C925 C924 1.380 . S
C925 C926 1.376 . S
C925 H953 0.930 . S
C926 C925 1.376 . S
C926 C927 1.370 . S
C927 C926 1.370 . S
C927 C928 1.396 . S
C927 H954 0.929 . S
C928 C923 1.373 . S
C928 C927 1.396 . S
C928 H955 0.929 . S
C929 O942 1.240 . S
C929 O943 1.289 . S
C930 O944 1.258 . S
C930 O945 1.256 . S
C931 La921 2.928 . S
C931 C932 1.503 . S
C931 O946 1.261 . S
C931 O947 1.243 . S
C932 C931 1.503 . S
C932 C933 1.394 . S
C932 C937 1.373 . S
C933 C932 1.394 . S
C933 C934 1.380 . S
C933 H956 0.930 . S
C934 C933 1.380 . S
C934 C935 1.376 . S
C934 H957 0.930 . S
C935 C934 1.376 . S
C935 C936 1.370 . S
C936 C935 1.370 . S
C936 C937 1.396 . S
C936 H958 0.929 . S
C937 C932 1.373 . S
C937 C936 1.396 . S
C937 H959 0.929 . S
C938 O948 1.240 . S
C938 O949 1.289 . S
C939 O950 1.258 . S
C939 O951 1.256 . S
O940 La920 2.521 . S
O940 C922 1.261 . S
O941 La920 2.628 . S
O941 C922 1.243 . S
O942 La920 2.554 . S
O942 C929 1.240 . S
O943 La920 2.757 . S
O943 La921 2.482 . S
O943 C929 1.289 . S
O944 La920 2.470 . S
O944 C930 1.258 . S
O945 La921 2.503 . S
O945 C930 1.256 . S
O946 La921 2.521 . S
O946 C931 1.261 . S
O947 La921 2.628 . S
O947 C931 1.243 . S
O948 La921 2.554 . S
O948 C938 1.240 . S
O949 La920 2.482 . S
O949 La921 2.757 . S
O949 C938 1.289 . S
O950 La921 2.470 . S
O950 C939 1.258 . S
O951 La920 2.503 . S
O951 C939 1.256 . S
H952 C924 0.930 . S
H953 C925 0.930 . S
H954 C927 0.929 . S
H955 C928 0.929 . S
H956 C933 0.930 . S
H957 C934 0.930 . S
H958 C936 0.929 . S
H959 C937 0.929 . S
La960 C962 2.928 . S
La960 O980 2.521 . S
La960 O981 2.628 . S
La960 O982 2.554 . S
La960 O983 2.757 . S
La960 O984 2.470 . S
La960 O989 2.482 . S
La960 O991 2.503 . S
La961 C971 2.928 . S
La961 O983 2.482 . S
La961 O985 2.503 . S
La961 O986 2.521 . S
La961 O987 2.628 . S
La961 O988 2.554 . S
La961 O989 2.757 . S
La961 O990 2.470 . S
C962 La960 2.928 . S
C962 C963 1.503 . S
C962 O980 1.261 . S
C962 O981 1.243 . S
C963 C962 1.503 . S
C963 C964 1.394 . S
C963 C968 1.373 . S
C964 C963 1.394 . S
C964 C965 1.380 . S
C964 H992 0.930 . S
C965 C964 1.380 . S
C965 C966 1.376 . S
C965 H993 0.930 . S
C966 C965 1.376 . S
C966 C967 1.370 . S
C967 C966 1.370 . S
C967 C968 1.396 . S
C967 H994 0.929 . S
C968 C963 1.373 . S
C968 C967 1.396 . S
C968 H995 0.929 . S
C969 O982 1.240 . S
C969 O983 1.289 . S
C970 O984 1.258 . S
C970 O985 1.256 . S
C971 La961 2.928 . S
C971 C972 1.503 . S
C971 O986 1.261 . S
C971 O987 1.243 . S
C972 C971 1.503 . S
C972 C973 1.394 . S
C972 C977 1.373 . S
C973 C972 1.394 . S
C973 C974 1.380 . S
C973 H996 0.930 . S
C974 C973 1.380 . S
C974 C975 1.376 . S
C974 H997 0.930 . S
C975 C974 1.376 . S
C975 C976 1.370 . S
C976 C975 1.370 . S
C976 C977 1.396 . S
C976 H998 0.929 . S
C977 C972 1.373 . S
C977 C976 1.396 . S
C977 H999 0.929 . S
C978 O988 1.240 . S
C978 O989 1.289 . S
C979 O990 1.258 . S
C979 O991 1.256 . S
O980 La960 2.521 . S
O980 C962 1.261 . S
O981 La960 2.628 . S
O981 C962 1.243 . S
O982 La960 2.554 . S
O982 C969 1.240 . S
O983 La960 2.757 . S
O983 La961 2.482 . S
O983 C969 1.289 . S
O984 La960 2.470 . S
O984 C970 1.258 . S
O985 La961 2.503 . S
O985 C970 1.256 . S
O986 La961 2.521 . S
O986 C971 1.261 . S
O987 La961 2.628 . S
O987 C971 1.243 . S
O988 La961 2.554 . S
O988 C978 1.240 . S
O989 La960 2.482 . S
O989 La961 2.757 . S
O989 C978 1.289 . S
O990 La961 2.470 . S
O990 C979 1.258 . S
O991 La960 2.503 . S
O991 C979 1.256 . S
H992 C964 0.930 . S
H993 C965 0.930 . S
H994 C967 0.929 . S
H995 C968 0.929 . S
H996 C973 0.930 . S
H997 C974 0.930 . S
H998 C976 0.929 . S
H999 C977 0.929 . S
La1000 C1002 2.928 . S
La1000 O1020 2.521 . S
La1000 O1021 2.628 . S
La1000 O1022 2.554 . S
La1000 O1023 2.755 1_556 S
La1000 O1024 2.470 . S
La1000 O1029 2.482 . S
La1000 O1031 2.503 1_556 S
La1001 C1011 2.928 1_556 S
La1001 O1023 2.480 1_556 S
La1001 O1025 2.503 . S
La1001 O1026 2.521 1_556 S
La1001 O1027 2.628 1_556 S
La1001 O1028 2.554 . S
La1001 O1029 2.757 . S
La1001 O1030 2.470 1_556 S
C1002 La1000 2.928 . S
C1002 C1003 1.503 . S
C1002 O1020 1.261 . S
C1002 O1021 1.243 . S
C1003 C1002 1.503 . S
C1003 C1004 1.394 . S
C1003 C1008 1.373 . S
C1004 C1003 1.394 . S
C1004 C1005 1.380 . S
C1004 H1032 0.930 . S
C1005 C1004 1.380 . S
C1005 C1006 1.376 . S
C1005 H1033 0.930 . S
C1006 C1005 1.376 . S
C1006 C1007 1.370 . S
C1007 C1006 1.370 . S
C1007 C1008 1.396 . S
C1007 H1034 0.929 . S
C1008 C1003 1.373 . S
C1008 C1007 1.396 . S
C1008 H1035 0.929 . S
C1009 O1022 1.240 1_554 S
C1009 O1023 1.290 . S
C1010 O1024 1.258 . S
C1010 O1025 1.256 . S
C1011 La1001 2.928 1_554 S
C1011 C1012 1.503 . S
C1011 O1026 1.261 . S
C1011 O1027 1.243 . S
C1012 C1011 1.503 . S
C1012 C1013 1.394 . S
C1012 C1017 1.373 . S
C1013 C1012 1.394 . S
C1013 C1014 1.380 . S
C1013 H1036 0.930 . S
C1014 C1013 1.380 . S
C1014 C1015 1.376 . S
C1014 H1037 0.930 . S
C1015 C1014 1.376 . S
C1015 C1016 1.370 . S
C1016 C1015 1.370 . S
C1016 C1017 1.396 . S
C1016 H1038 0.929 . S
C1017 C1012 1.373 . S
C1017 C1016 1.396 . S
C1017 H1039 0.929 . S
C1018 O1028 1.240 . S
C1018 O1029 1.289 . S
C1019 O1030 1.258 . S
C1019 O1031 1.256 . S
O1020 La1000 2.521 . S
O1020 C1002 1.261 . S
O1021 La1000 2.628 . S
O1021 C1002 1.243 . S
O1022 La1000 2.554 . S
O1022 C1009 1.240 1_556 S
O1023 La1000 2.755 1_554 S
O1023 La1001 2.480 1_554 S
O1023 C1009 1.290 . S
O1024 La1000 2.470 . S
O1024 C1010 1.258 . S
O1025 La1001 2.503 . S
O1025 C1010 1.256 . S
O1026 La1001 2.521 1_554 S
O1026 C1011 1.261 . S
O1027 La1001 2.628 1_554 S
O1027 C1011 1.243 . S
O1028 La1001 2.554 . S
O1028 C1018 1.240 . S
O1029 La1000 2.482 . S
O1029 La1001 2.757 . S
O1029 C1018 1.289 . S
O1030 La1001 2.470 1_554 S
O1030 C1019 1.258 . S
O1031 La1000 2.503 1_554 S
O1031 C1019 1.256 . S
H1032 C1004 0.930 . S
H1033 C1005 0.930 . S
H1034 C1007 0.929 . S
H1035 C1008 0.929 . S
H1036 C1013 0.930 . S
H1037 C1014 0.930 . S
H1038 C1016 0.929 . S
H1039 C1017 0.929 . S
La1040 C1042 2.928 . S
La1040 O1060 2.521 . S
La1040 O1061 2.628 . S
La1040 O1062 2.554 . S
La1040 O1063 2.757 . S
La1040 O1064 2.470 . S
La1040 O1069 2.482 . S
La1040 O1071 2.503 . S
La1041 C1051 2.928 . S
La1041 O1063 2.482 . S
La1041 O1065 2.503 . S
La1041 O1066 2.521 . S
La1041 O1067 2.628 . S
La1041 O1068 2.554 . S
La1041 O1069 2.757 . S
La1041 O1070 2.470 . S
C1042 La1040 2.928 . S
C1042 C1043 1.503 . S
C1042 O1060 1.261 . S
C1042 O1061 1.243 . S
C1043 C1042 1.503 . S
C1043 C1044 1.394 . S
C1043 C1048 1.373 . S
C1044 C1043 1.394 . S
C1044 C1045 1.380 1_455 S
C1044 H1072 0.930 . S
C1045 C1044 1.380 1_655 S
C1045 C1046 1.376 . S
C1045 H1073 0.930 . S
C1046 C1045 1.376 . S
C1046 C1047 1.370 1_655 S
C1047 C1046 1.370 1_455 S
C1047 C1048 1.396 . S
C1047 H1074 0.929 . S
C1048 C1043 1.373 . S
C1048 C1047 1.396 . S
C1048 H1075 0.929 . S
C1049 O1062 1.240 . S
C1049 O1063 1.289 . S
C1050 O1064 1.258 . S
C1050 O1065 1.256 . S
C1051 La1041 2.928 . S
C1051 C1052 1.503 . S
C1051 O1066 1.261 . S
C1051 O1067 1.243 . S
C1052 C1051 1.503 . S
C1052 C1053 1.394 . S
C1052 C1057 1.373 . S
C1053 C1052 1.394 . S
C1053 C1054 1.380 . S
C1053 H1076 0.930 . S
C1054 C1053 1.380 . S
C1054 C1055 1.376 . S
C1054 H1077 0.930 . S
C1055 C1054 1.376 . S
C1055 C1056 1.370 . S
C1056 C1055 1.370 . S
C1056 C1057 1.396 . S
C1056 H1078 0.929 . S
C1057 C1052 1.373 . S
C1057 C1056 1.396 . S
C1057 H1079 0.929 . S
C1058 O1068 1.240 . S
C1058 O1069 1.289 . S
C1059 O1070 1.258 . S
C1059 O1071 1.256 . S
O1060 La1040 2.521 . S
O1060 C1042 1.261 . S
O1061 La1040 2.628 . S
O1061 C1042 1.243 . S
O1062 La1040 2.554 . S
O1062 C1049 1.240 . S
O1063 La1040 2.757 . S
O1063 La1041 2.482 . S
O1063 C1049 1.289 . S
O1064 La1040 2.470 . S
O1064 C1050 1.258 . S
O1065 La1041 2.503 . S
O1065 C1050 1.256 . S
O1066 La1041 2.521 . S
O1066 C1051 1.261 . S
O1067 La1041 2.628 . S
O1067 C1051 1.243 . S
O1068 La1041 2.554 . S
O1068 C1058 1.240 . S
O1069 La1040 2.482 . S
O1069 La1041 2.757 . S
O1069 C1058 1.289 . S
O1070 La1041 2.470 . S
O1070 C1059 1.258 . S
O1071 La1040 2.503 . S
O1071 C1059 1.256 . S
H1072 C1044 0.930 . S
H1073 C1045 0.930 . S
H1074 C1047 0.929 . S
H1075 C1048 0.929 . S
H1076 C1053 0.930 . S
H1077 C1054 0.930 . S
H1078 C1056 0.929 . S
H1079 C1057 0.929 . S
La1080 C1082 2.928 . S
La1080 O1100 2.521 . S
La1080 O1101 2.628 . S
La1080 O1102 2.554 . S
La1080 O1103 2.757 . S
La1080 O1104 2.470 . S
La1080 O1109 2.482 . S
La1080 O1111 2.503 . S
La1081 C1091 2.928 . S
La1081 O1103 2.482 . S
La1081 O1105 2.503 . S
La1081 O1106 2.521 . S
La1081 O1107 2.628 . S
La1081 O1108 2.554 . S
La1081 O1109 2.757 . S
La1081 O1110 2.470 . S
C1082 La1080 2.928 . S
C1082 C1083 1.503 . S
C1082 O1100 1.261 . S
C1082 O1101 1.243 . S
C1083 C1082 1.503 . S
C1083 C1084 1.394 . S
C1083 C1088 1.373 . S
C1084 C1083 1.394 . S
C1084 C1085 1.380 . S
C1084 H1112 0.930 . S
C1085 C1084 1.380 . S
C1085 C1086 1.376 . S
C1085 H1113 0.930 . S
C1086 C1085 1.376 . S
C1086 C1087 1.370 . S
C1087 C1086 1.370 . S
C1087 C1088 1.396 . S
C1087 H1114 0.929 . S
C1088 C1083 1.373 . S
C1088 C1087 1.396 . S
C1088 H1115 0.929 . S
C1089 O1102 1.240 . S
C1089 O1103 1.289 . S
C1090 O1104 1.258 . S
C1090 O1105 1.256 . S
C1091 La1081 2.928 . S
C1091 C1092 1.503 . S
C1091 O1106 1.261 . S
C1091 O1107 1.243 . S
C1092 C1091 1.503 . S
C1092 C1093 1.394 . S
C1092 C1097 1.373 . S
C1093 C1092 1.394 . S
C1093 C1094 1.380 . S
C1093 H1116 0.930 . S
C1094 C1093 1.380 . S
C1094 C1095 1.376 . S
C1094 H1117 0.930 . S
C1095 C1094 1.376 . S
C1095 C1096 1.370 . S
C1096 C1095 1.370 . S
C1096 C1097 1.396 . S
C1096 H1118 0.929 . S
C1097 C1092 1.373 . S
C1097 C1096 1.396 . S
C1097 H1119 0.929 . S
C1098 O1108 1.240 . S
C1098 O1109 1.289 . S
C1099 O1110 1.258 . S
C1099 O1111 1.256 . S
O1100 La1080 2.521 . S
O1100 C1082 1.261 . S
O1101 La1080 2.628 . S
O1101 C1082 1.243 . S
O1102 La1080 2.554 . S
O1102 C1089 1.240 . S
O1103 La1080 2.757 . S
O1103 La1081 2.482 . S
O1103 C1089 1.289 . S
O1104 La1080 2.470 . S
O1104 C1090 1.258 . S
O1105 La1081 2.503 . S
O1105 C1090 1.256 . S
O1106 La1081 2.521 . S
O1106 C1091 1.261 . S
O1107 La1081 2.628 . S
O1107 C1091 1.243 . S
O1108 La1081 2.554 . S
O1108 C1098 1.240 . S
O1109 La1080 2.482 . S
O1109 La1081 2.757 . S
O1109 C1098 1.289 . S
O1110 La1081 2.470 . S
O1110 C1099 1.258 . S
O1111 La1080 2.503 . S
O1111 C1099 1.256 . S
H1112 C1084 0.930 . S
H1113 C1085 0.930 . S
H1114 C1087 0.929 . S
H1115 C1088 0.929 . S
H1116 C1093 0.930 . S
H1117 C1094 0.930 . S
H1118 C1096 0.929 . S
H1119 C1097 0.929 . S
La1120 C1122 2.928 . S
La1120 O1140 2.521 . S
La1120 O1141 2.628 . S
La1120 O1142 2.554 . S
La1120 O1143 2.757 . S
La1120 O1144 2.470 . S
La1120 O1149 2.482 . S
La1120 O1151 2.503 . S
La1121 C1131 2.928 . S
La1121 O1143 2.482 . S
La1121 O1145 2.503 . S
La1121 O1146 2.521 . S
La1121 O1147 2.628 . S
La1121 O1148 2.554 . S
La1121 O1149 2.757 . S
La1121 O1150 2.470 . S
C1122 La1120 2.928 . S
C1122 C1123 1.503 . S
C1122 O1140 1.261 . S
C1122 O1141 1.243 . S
C1123 C1122 1.503 . S
C1123 C1124 1.394 . S
C1123 C1128 1.373 . S
C1124 C1123 1.394 . S
C1124 C1125 1.380 . S
C1124 H1152 0.930 . S
C1125 C1124 1.380 . S
C1125 C1126 1.376 . S
C1125 H1153 0.930 . S
C1126 C1125 1.376 . S
C1126 C1127 1.370 . S
C1127 C1126 1.370 . S
C1127 C1128 1.396 . S
C1127 H1154 0.929 . S
C1128 C1123 1.373 . S
C1128 C1127 1.396 . S
C1128 H1155 0.929 . S
C1129 O1142 1.240 . S
C1129 O1143 1.289 . S
C1130 O1144 1.258 . S
C1130 O1145 1.256 . S
C1131 La1121 2.928 . S
C1131 C1132 1.503 . S
C1131 O1146 1.261 . S
C1131 O1147 1.243 . S
C1132 C1131 1.503 . S
C1132 C1133 1.394 . S
C1132 C1137 1.373 . S
C1133 C1132 1.394 . S
C1133 C1134 1.380 . S
C1133 H1156 0.930 . S
C1134 C1133 1.380 . S
C1134 C1135 1.376 . S
C1134 H1157 0.930 . S
C1135 C1134 1.376 . S
C1135 C1136 1.370 . S
C1136 C1135 1.370 . S
C1136 C1137 1.396 . S
C1136 H1158 0.929 . S
C1137 C1132 1.373 . S
C1137 C1136 1.396 . S
C1137 H1159 0.929 . S
C1138 O1148 1.240 . S
C1138 O1149 1.289 . S
C1139 O1150 1.258 . S
C1139 O1151 1.256 . S
O1140 La1120 2.521 . S
O1140 C1122 1.261 . S
O1141 La1120 2.628 . S
O1141 C1122 1.243 . S
O1142 La1120 2.554 . S
O1142 C1129 1.240 . S
O1143 La1120 2.757 . S
O1143 La1121 2.482 . S
O1143 C1129 1.289 . S
O1144 La1120 2.470 . S
O1144 C1130 1.258 . S
O1145 La1121 2.503 . S
O1145 C1130 1.256 . S
O1146 La1121 2.521 . S
O1146 C1131 1.261 . S
O1147 La1121 2.628 . S
O1147 C1131 1.243 . S
O1148 La1121 2.554 . S
O1148 C1138 1.240 . S
O1149 La1120 2.482 . S
O1149 La1121 2.757 . S
O1149 C1138 1.289 . S
O1150 La1121 2.470 . S
O1150 C1139 1.258 . S
O1151 La1120 2.503 . S
O1151 C1139 1.256 . S
H1152 C1124 0.930 . S
H1153 C1125 0.930 . S
H1154 C1127 0.929 . S
H1155 C1128 0.929 . S
H1156 C1133 0.930 . S
H1157 C1134 0.930 . S
H1158 C1136 0.929 . S
H1159 C1137 0.929 . S
La1160 C1162 2.928 . S
La1160 O1180 2.521 . S
La1160 O1181 2.628 . S
La1160 O1182 2.554 . S
La1160 O1183 2.755 1_554 S
La1160 O1184 2.470 . S
La1160 O1189 2.482 . S
La1160 O1191 2.503 1_554 S
La1161 C1171 2.928 1_554 S
La1161 O1183 2.480 1_554 S
La1161 O1185 2.503 . S
La1161 O1186 2.521 1_554 S
La1161 O1187 2.628 1_554 S
La1161 O1188 2.554 . S
La1161 O1189 2.757 . S
La1161 O1190 2.470 1_554 S
C1162 La1160 2.928 . S
C1162 C1163 1.503 . S
C1162 O1180 1.261 . S
C1162 O1181 1.243 . S
C1163 C1162 1.503 . S
C1163 C1164 1.394 . S
C1163 C1168 1.373 . S
C1164 C1163 1.394 . S
C1164 C1165 1.380 . S
C1164 H1192 0.930 . S
C1165 C1164 1.380 . S
C1165 C1166 1.376 . S
C1165 H1193 0.930 . S
C1166 C1165 1.376 . S
C1166 C1167 1.370 . S
C1167 C1166 1.370 . S
C1167 C1168 1.396 . S
C1167 H1194 0.929 . S
C1168 C1163 1.373 . S
C1168 C1167 1.396 . S
C1168 H1195 0.929 . S
C1169 O1182 1.240 1_556 S
C1169 O1183 1.290 . S
C1170 O1184 1.258 . S
C1170 O1185 1.256 . S
C1171 La1161 2.928 1_556 S
C1171 C1172 1.503 . S
C1171 O1186 1.261 . S
C1171 O1187 1.243 . S
C1172 C1171 1.503 . S
C1172 C1173 1.394 . S
C1172 C1177 1.373 . S
C1173 C1172 1.394 . S
C1173 C1174 1.380 . S
C1173 H1196 0.930 . S
C1174 C1173 1.380 . S
C1174 C1175 1.376 . S
C1174 H1197 0.930 . S
C1175 C1174 1.376 . S
C1175 C1176 1.370 . S
C1176 C1175 1.370 . S
C1176 C1177 1.396 . S
C1176 H1198 0.929 . S
C1177 C1172 1.373 . S
C1177 C1176 1.396 . S
C1177 H1199 0.929 . S
C1178 O1188 1.240 . S
C1178 O1189 1.289 . S
C1179 O1190 1.258 . S
C1179 O1191 1.256 . S
O1180 La1160 2.521 . S
O1180 C1162 1.261 . S
O1181 La1160 2.628 . S
O1181 C1162 1.243 . S
O1182 La1160 2.554 . S
O1182 C1169 1.240 1_554 S
O1183 La1160 2.755 1_556 S
O1183 La1161 2.480 1_556 S
O1183 C1169 1.290 . S
O1184 La1160 2.470 . S
O1184 C1170 1.258 . S
O1185 La1161 2.503 . S
O1185 C1170 1.256 . S
O1186 La1161 2.521 1_556 S
O1186 C1171 1.261 . S
O1187 La1161 2.628 1_556 S
O1187 C1171 1.243 . S
O1188 La1161 2.554 . S
O1188 C1178 1.240 . S
O1189 La1160 2.482 . S
O1189 La1161 2.757 . S
O1189 C1178 1.289 . S
O1190 La1161 2.470 1_556 S
O1190 C1179 1.258 . S
O1191 La1160 2.503 1_556 S
O1191 C1179 1.256 . S
H1192 C1164 0.930 . S
H1193 C1165 0.930 . S
H1194 C1167 0.929 . S
H1195 C1168 0.929 . S
H1196 C1173 0.930 . S
H1197 C1174 0.930 . S
H1198 C1176 0.929 . S
H1199 C1177 0.929 . S
La1200 C1202 2.928 . S
La1200 O1220 2.521 . S
La1200 O1221 2.628 . S
La1200 O1222 2.554 . S
La1200 O1223 2.757 . S
La1200 O1224 2.470 . S
La1200 O1229 2.482 . S
La1200 O1231 2.503 . S
La1201 C1211 2.928 . S
La1201 O1223 2.482 . S
La1201 O1225 2.503 . S
La1201 O1226 2.521 . S
La1201 O1227 2.628 . S
La1201 O1228 2.554 . S
La1201 O1229 2.757 . S
La1201 O1230 2.470 . S
C1202 La1200 2.928 . S
C1202 C1203 1.503 . S
C1202 O1220 1.261 . S
C1202 O1221 1.243 . S
C1203 C1202 1.503 . S
C1203 C1204 1.394 . S
C1203 C1208 1.373 . S
C1204 C1203 1.394 . S
C1204 C1205 1.380 1_455 S
C1204 H1232 0.930 . S
C1205 C1204 1.380 1_655 S
C1205 C1206 1.376 . S
C1205 H1233 0.930 . S
C1206 C1205 1.376 . S
C1206 C1207 1.370 1_655 S
C1207 C1206 1.370 1_455 S
C1207 C1208 1.396 . S
C1207 H1234 0.929 . S
C1208 C1203 1.373 . S
C1208 C1207 1.396 . S
C1208 H1235 0.929 . S
C1209 O1222 1.240 . S
C1209 O1223 1.289 . S
C1210 O1224 1.258 . S
C1210 O1225 1.256 . S
C1211 La1201 2.928 . S
C1211 C1212 1.503 . S
C1211 O1226 1.261 . S
C1211 O1227 1.243 . S
C1212 C1211 1.503 . S
C1212 C1213 1.394 . S
C1212 C1217 1.373 . S
C1213 C1212 1.394 . S
C1213 C1214 1.380 . S
C1213 H1236 0.930 . S
C1214 C1213 1.380 . S
C1214 C1215 1.376 . S
C1214 H1237 0.930 . S
C1215 C1214 1.376 . S
C1215 C1216 1.370 . S
C1216 C1215 1.370 . S
C1216 C1217 1.396 . S
C1216 H1238 0.929 . S
C1217 C1212 1.373 . S
C1217 C1216 1.396 . S
C1217 H1239 0.929 . S
C1218 O1228 1.240 . S
C1218 O1229 1.289 . S
C1219 O1230 1.258 . S
C1219 O1231 1.256 . S
O1220 La1200 2.521 . S
O1220 C1202 1.261 . S
O1221 La1200 2.628 . S
O1221 C1202 1.243 . S
O1222 La1200 2.554 . S
O1222 C1209 1.240 . S
O1223 La1200 2.757 . S
O1223 La1201 2.482 . S
O1223 C1209 1.289 . S
O1224 La1200 2.470 . S
O1224 C1210 1.258 . S
O1225 La1201 2.503 . S
O1225 C1210 1.256 . S
O1226 La1201 2.521 . S
O1226 C1211 1.261 . S
O1227 La1201 2.628 . S
O1227 C1211 1.243 . S
O1228 La1201 2.554 . S
O1228 C1218 1.240 . S
O1229 La1200 2.482 . S
O1229 La1201 2.757 . S
O1229 C1218 1.289 . S
O1230 La1201 2.470 . S
O1230 C1219 1.258 . S
O1231 La1200 2.503 . S
O1231 C1219 1.256 . S
H1232 C1204 0.930 . S
H1233 C1205 0.930 . S
H1234 C1207 0.929 . S
H1235 C1208 0.929 . S
H1236 C1213 0.930 . S
H1237 C1214 0.930 . S
H1238 C1216 0.929 . S
H1239 C1217 0.929 . S
La1240 C1242 2.928 . S
La1240 O1260 2.521 . S
La1240 O1261 2.628 . S
La1240 O1262 2.554 . S
La1240 O1263 2.757 . S
La1240 O1264 2.470 . S
La1240 O1269 2.482 . S
La1240 O1271 2.503 . S
La1241 C1251 2.928 . S
La1241 O1263 2.482 . S
La1241 O1265 2.503 . S
La1241 O1266 2.521 . S
La1241 O1267 2.628 . S
La1241 O1268 2.554 . S
La1241 O1269 2.757 . S
La1241 O1270 2.470 . S
C1242 La1240 2.928 . S
C1242 C1243 1.503 . S
C1242 O1260 1.261 . S
C1242 O1261 1.243 . S
C1243 C1242 1.503 . S
C1243 C1244 1.394 . S
C1243 C1248 1.373 . S
C1244 C1243 1.394 . S
C1244 C1245 1.380 . S
C1244 H1272 0.930 . S
C1245 C1244 1.380 . S
C1245 C1246 1.376 . S
C1245 H1273 0.930 . S
C1246 C1245 1.376 . S
C1246 C1247 1.370 . S
C1247 C1246 1.370 . S
C1247 C1248 1.396 . S
C1247 H1274 0.929 . S
C1248 C1243 1.373 . S
C1248 C1247 1.396 . S
C1248 H1275 0.929 . S
C1249 O1262 1.240 . S
C1249 O1263 1.289 . S
C1250 O1264 1.258 . S
C1250 O1265 1.256 . S
C1251 La1241 2.928 . S
C1251 C1252 1.503 . S
C1251 O1266 1.261 . S
C1251 O1267 1.243 . S
C1252 C1251 1.503 . S
C1252 C1253 1.394 . S
C1252 C1257 1.373 . S
C1253 C1252 1.394 . S
C1253 C1254 1.380 . S
C1253 H1276 0.930 . S
C1254 C1253 1.380 . S
C1254 C1255 1.376 . S
C1254 H1277 0.930 . S
C1255 C1254 1.376 . S
C1255 C1256 1.370 . S
C1256 C1255 1.370 . S
C1256 C1257 1.396 . S
C1256 H1278 0.929 . S
C1257 C1252 1.373 . S
C1257 C1256 1.396 . S
C1257 H1279 0.929 . S
C1258 O1268 1.240 . S
C1258 O1269 1.289 . S
C1259 O1270 1.258 . S
C1259 O1271 1.256 . S
O1260 La1240 2.521 . S
O1260 C1242 1.261 . S
O1261 La1240 2.628 . S
O1261 C1242 1.243 . S
O1262 La1240 2.554 . S
O1262 C1249 1.240 . S
O1263 La1240 2.757 . S
O1263 La1241 2.482 . S
O1263 C1249 1.289 . S
O1264 La1240 2.470 . S
O1264 C1250 1.258 . S
O1265 La1241 2.503 . S
O1265 C1250 1.256 . S
O1266 La1241 2.521 . S
O1266 C1251 1.261 . S
O1267 La1241 2.628 . S
O1267 C1251 1.243 . S
O1268 La1241 2.554 . S
O1268 C1258 1.240 . S
O1269 La1240 2.482 . S
O1269 La1241 2.757 . S
O1269 C1258 1.289 . S
O1270 La1241 2.470 . S
O1270 C1259 1.258 . S
O1271 La1240 2.503 . S
O1271 C1259 1.256 . S
H1272 C1244 0.930 . S
H1273 C1245 0.930 . S
H1274 C1247 0.929 . S
H1275 C1248 0.929 . S
H1276 C1253 0.930 . S
H1277 C1254 0.930 . S
H1278 C1256 0.929 . S
H1279 C1257 0.929 . S
C1280 C1281 1.387 . S
C1280 H1284 0.950 . S
C1280 C1289 1.390 . S
C1281 C1280 1.387 . S
C1281 C1283 1.387 . S
H1282 C1289 0.950 . S
C1283 C1281 1.387 . S
C1283 C1285 1.390 . S
C1283 H1287 0.950 . S
H1284 C1280 0.950 . S
C1285 C1283 1.390 . S
C1285 C1286 1.387 . S
C1285 H1288 0.950 . S
C1286 C1285 1.387 . S
C1286 C1289 1.387 . S
H1287 C1283 0.950 . S
H1288 C1285 0.950 . S
C1289 C1280 1.390 . S
C1289 H1282 0.950 . S
C1289 C1286 1.387 . S
C1290 C1291 1.387 . S
C1290 H1294 0.950 . S
C1290 C1299 1.390 . S
C1291 C1290 1.387 . S
C1291 C1293 1.387 . S
H1292 C1299 0.950 . S
C1293 C1291 1.387 . S
C1293 C1295 1.390 . S
C1293 H1297 0.950 . S
H1294 C1290 0.950 . S
C1295 C1293 1.390 . S
C1295 C1296 1.387 . S
C1295 H1298 0.950 . S
C1296 C1295 1.387 . S
C1296 C1299 1.387 . S
H1297 C1293 0.950 . S
H1298 C1295 0.950 . S
C1299 C1290 1.390 . S
C1299 H1292 0.950 . S
C1299 C1296 1.387 . S
C1300 C1301 1.387 . S
C1300 H1304 0.950 . S
C1300 C1309 1.390 . S
C1301 C1300 1.387 . S
C1301 C1303 1.387 . S
H1302 C1309 0.950 . S
C1303 C1301 1.387 . S
C1303 C1305 1.390 . S
C1303 H1307 0.950 . S
H1304 C1300 0.950 . S
C1305 C1303 1.390 . S
C1305 C1306 1.387 . S
C1305 H1308 0.950 . S
C1306 C1305 1.387 . S
C1306 C1309 1.387 . S
H1307 C1303 0.950 . S
H1308 C1305 0.950 . S
C1309 C1300 1.390 . S
C1309 H1302 0.950 . S
C1309 C1306 1.387 . S
C1310 C1311 1.387 . S
C1310 H1314 0.950 . S
C1310 C1319 1.390 . S
C1311 C1310 1.387 . S
C1311 C1313 1.387 . S
H1312 C1319 0.950 . S
C1313 C1311 1.387 . S
C1313 C1315 1.390 . S
C1313 H1317 0.950 . S
H1314 C1310 0.950 . S
C1315 C1313 1.390 . S
C1315 C1316 1.387 . S
C1315 H1318 0.950 . S
C1316 C1315 1.387 . S
C1316 C1319 1.387 . S
H1317 C1313 0.950 . S
H1318 C1315 0.950 . S
C1319 C1310 1.390 . S
C1319 H1312 0.950 . S
C1319 C1316 1.387 . S
C1320 C1321 1.387 . S
C1320 H1324 0.950 . S
C1320 C1329 1.390 . S
C1321 C1320 1.387 . S
C1321 C1323 1.387 . S
H1322 C1329 0.950 . S
C1323 C1321 1.387 . S
C1323 C1325 1.390 . S
C1323 H1327 0.950 . S
H1324 C1320 0.950 . S
C1325 C1323 1.390 . S
C1325 C1326 1.387 . S
C1325 H1328 0.950 . S
C1326 C1325 1.387 . S
C1326 C1329 1.387 . S
H1327 C1323 0.950 . S
H1328 C1325 0.950 . S
C1329 C1320 1.390 . S
C1329 H1322 0.950 . S
C1329 C1326 1.387 . S
C1330 C1331 1.387 . S
C1330 H1334 0.950 . S
C1330 C1339 1.390 . S
C1331 C1330 1.387 . S
C1331 C1333 1.387 . S
H1332 C1339 0.950 . S
C1333 C1331 1.387 . S
C1333 C1335 1.390 . S
C1333 H1337 0.950 . S
H1334 C1330 0.950 . S
C1335 C1333 1.390 . S
C1335 C1336 1.387 . S
C1335 H1338 0.950 . S
C1336 C1335 1.387 . S
C1336 C1339 1.387 . S
H1337 C1333 0.950 . S
H1338 C1335 0.950 . S
C1339 C1330 1.390 . S
C1339 H1332 0.950 . S
C1339 C1336 1.387 . S
C1340 C1341 1.387 . S
C1340 H1344 0.950 . S
C1340 C1349 1.390 . S
C1341 C1340 1.387 . S
C1341 C1343 1.387 . S
H1342 C1349 0.950 . S
C1343 C1341 1.387 . S
C1343 C1345 1.390 . S
C1343 H1347 0.950 . S
H1344 C1340 0.950 . S
C1345 C1343 1.390 . S
C1345 C1346 1.387 . S
C1345 H1348 0.950 . S
C1346 C1345 1.387 . S
C1346 C1349 1.387 . S
H1347 C1343 0.950 . S
H1348 C1345 0.950 . S
C1349 C1340 1.390 . S
C1349 H1342 0.950 . S
C1349 C1346 1.387 . S
C1350 C1351 1.387 . S
C1350 H1354 0.950 . S
C1350 C1359 1.390 . S
C1351 C1350 1.387 . S
C1351 C1353 1.387 . S
H1352 C1359 0.950 . S
C1353 C1351 1.387 . S
C1353 C1355 1.390 . S
C1353 H1357 0.950 . S
H1354 C1350 0.950 . S
C1355 C1353 1.390 . S
C1355 C1356 1.387 . S
C1355 H1358 0.950 . S
C1356 C1355 1.387 . S
C1356 C1359 1.387 . S
H1357 C1353 0.950 . S
H1358 C1355 0.950 . S
C1359 C1350 1.390 . S
C1359 H1352 0.950 . S
C1359 C1356 1.387 . S
C1360 C1361 1.387 . S
C1360 H1364 0.950 . S
C1360 C1369 1.390 . S
C1361 C1360 1.387 . S
C1361 C1363 1.387 . S
H1362 C1369 0.950 . S
C1363 C1361 1.387 . S
C1363 C1365 1.390 . S
C1363 H1367 0.950 . S
H1364 C1360 0.950 . S
C1365 C1363 1.390 . S
C1365 C1366 1.387 . S
C1365 H1368 0.950 . S
C1366 C1365 1.387 . S
C1366 C1369 1.387 . S
H1367 C1363 0.950 . S
H1368 C1365 0.950 . S
C1369 C1360 1.390 . S
C1369 H1362 0.950 . S
C1369 C1366 1.387 . S
C1370 C1371 1.387 . S
C1370 H1374 0.950 . S
C1370 C1379 1.390 . S
C1371 C1370 1.387 . S
C1371 C1373 1.387 . S
H1372 C1379 0.950 . S
C1373 C1371 1.387 . S
C1373 C1375 1.390 . S
C1373 H1377 0.950 . S
H1374 C1370 0.950 . S
C1375 C1373 1.390 . S
C1375 C1376 1.387 . S
C1375 H1378 0.950 . S
C1376 C1375 1.387 . S
C1376 C1379 1.387 . S
H1377 C1373 0.950 . S
H1378 C1375 0.950 . S
C1379 C1370 1.390 . S
C1379 H1372 0.950 . S
C1379 C1376 1.387 . S
C1380 C1381 1.387 . S
C1380 H1384 0.950 . S
C1380 C1389 1.390 . S
C1381 C1380 1.387 . S
C1381 C1383 1.387 . S
H1382 C1389 0.950 . S
C1383 C1381 1.387 . S
C1383 C1385 1.390 . S
C1383 H1387 0.950 . S
H1384 C1380 0.950 . S
C1385 C1383 1.390 . S
C1385 C1386 1.387 . S
C1385 H1388 0.950 . S
C1386 C1385 1.387 . S
C1386 C1389 1.387 . S
H1387 C1383 0.950 . S
H1388 C1385 0.950 . S
C1389 C1380 1.390 . S
C1389 H1382 0.950 . S
C1389 C1386 1.387 . S
C1390 C1391 1.387 . S
C1390 H1394 0.950 . S
C1390 C1399 1.390 . S
C1391 C1390 1.387 . S
C1391 C1393 1.387 . S
H1392 C1399 0.950 . S
C1393 C1391 1.387 . S
C1393 C1395 1.390 . S
C1393 H1397 0.950 . S
H1394 C1390 0.950 . S
C1395 C1393 1.390 . S
C1395 C1396 1.387 . S
C1395 H1398 0.950 . S
C1396 C1395 1.387 . S
C1396 C1399 1.387 . S
H1397 C1393 0.950 . S
H1398 C1395 0.950 . S
C1399 C1390 1.390 . S
C1399 H1392 0.950 . S
C1399 C1396 1.387 . S
C1400 C1401 1.387 . S
C1400 H1404 0.950 . S
C1400 C1409 1.390 . S
C1401 C1400 1.387 . S
C1401 C1403 1.387 . S
H1402 C1409 0.950 . S
C1403 C1401 1.387 . S
C1403 C1405 1.390 . S
C1403 H1407 0.950 . S
H1404 C1400 0.950 . S
C1405 C1403 1.390 . S
C1405 C1406 1.387 . S
C1405 H1408 0.950 . S
C1406 C1405 1.387 . S
C1406 C1409 1.387 . S
H1407 C1403 0.950 . S
H1408 C1405 0.950 . S
C1409 C1400 1.390 . S
C1409 H1402 0.950 . S
C1409 C1406 1.387 . S
C1410 C1411 1.387 . S
C1410 H1414 0.950 . S
C1410 C1419 1.390 . S
C1411 C1410 1.387 . S
C1411 C1413 1.387 . S
H1412 C1419 0.950 . S
C1413 C1411 1.387 . S
C1413 C1415 1.390 . S
C1413 H1417 0.950 . S
H1414 C1410 0.950 . S
C1415 C1413 1.390 . S
C1415 C1416 1.387 . S
C1415 H1418 0.950 . S
C1416 C1415 1.387 . S
C1416 C1419 1.387 . S
H1417 C1413 0.950 . S
H1418 C1415 0.950 . S
C1419 C1410 1.390 . S
C1419 H1412 0.950 . S
C1419 C1416 1.387 . S
C1420 C1421 1.387 . S
C1420 H1424 0.950 . S
C1420 C1429 1.390 . S
C1421 C1420 1.387 . S
C1421 C1423 1.387 . S
H1422 C1429 0.950 . S
C1423 C1421 1.387 . S
C1423 C1425 1.390 . S
C1423 H1427 0.950 . S
H1424 C1420 0.950 . S
C1425 C1423 1.390 . S
C1425 C1426 1.387 . S
C1425 H1428 0.950 . S
C1426 C1425 1.387 . S
C1426 C1429 1.387 . S
H1427 C1423 0.950 . S
H1428 C1425 0.950 . S
C1429 C1420 1.390 . S
C1429 H1422 0.950 . S
C1429 C1426 1.387 . S
C1430 C1431 1.387 . S
C1430 H1434 0.950 . S
C1430 C1439 1.390 . S
C1431 C1430 1.387 . S
C1431 C1433 1.387 . S
H1432 C1439 0.950 . S
C1433 C1431 1.387 . S
C1433 C1435 1.390 . S
C1433 H1437 0.950 . S
H1434 C1430 0.950 . S
C1435 C1433 1.390 . S
C1435 C1436 1.387 . S
C1435 H1438 0.950 . S
C1436 C1435 1.387 . S
C1436 C1439 1.387 . S
H1437 C1433 0.950 . S
H1438 C1435 0.950 . S
C1439 C1430 1.390 . S
C1439 H1432 0.950 . S
C1439 C1436 1.387 . S
C1440 C1441 1.387 . S
C1440 H1444 0.950 . S
C1440 C1449 1.390 . S
C1441 C1440 1.387 . S
C1441 C1443 1.387 . S
H1442 C1449 0.950 . S
C1443 C1441 1.387 . S
C1443 C1445 1.390 . S
C1443 H1447 0.950 . S
H1444 C1440 0.950 . S
C1445 C1443 1.390 . S
C1445 C1446 1.387 . S
C1445 H1448 0.950 . S
C1446 C1445 1.387 . S
C1446 C1449 1.387 . S
H1447 C1443 0.950 . S
H1448 C1445 0.950 . S
C1449 C1440 1.390 . S
C1449 H1442 0.950 . S
C1449 C1446 1.387 . S
C1450 C1451 1.387 . S
C1450 H1454 0.950 . S
C1450 C1459 1.390 . S
C1451 C1450 1.387 . S
C1451 C1453 1.387 . S
H1452 C1459 0.950 . S
C1453 C1451 1.387 . S
C1453 C1455 1.390 . S
C1453 H1457 0.950 . S
H1454 C1450 0.950 . S
C1455 C1453 1.390 . S
C1455 C1456 1.387 . S
C1455 H1458 0.950 . S
C1456 C1455 1.387 . S
C1456 C1459 1.387 . S
H1457 C1453 0.950 . S
H1458 C1455 0.950 . S
C1459 C1450 1.390 . S
C1459 H1452 0.950 . S
C1459 C1456 1.387 . S
C1460 C1461 1.387 . S
C1460 H1464 0.950 . S
C1460 C1469 1.390 . S
C1461 C1460 1.387 . S
C1461 C1463 1.387 . S
H1462 C1469 0.950 . S
C1463 C1461 1.387 . S
C1463 C1465 1.390 . S
C1463 H1467 0.950 . S
H1464 C1460 0.950 . S
C1465 C1463 1.390 . S
C1465 C1466 1.387 . S
C1465 H1468 0.950 . S
C1466 C1465 1.387 . S
C1466 C1469 1.387 . S
H1467 C1463 0.950 . S
H1468 C1465 0.950 . S
C1469 C1460 1.390 . S
C1469 H1462 0.950 . S
C1469 C1466 1.387 . S
C1470 C1471 1.387 . S
C1470 H1474 0.950 . S
C1470 C1479 1.390 . S
C1471 C1470 1.387 . S
C1471 C1473 1.387 . S
H1472 C1479 0.950 . S
C1473 C1471 1.387 . S
C1473 C1475 1.390 . S
C1473 H1477 0.950 . S
H1474 C1470 0.950 . S
C1475 C1473 1.390 . S
C1475 C1476 1.387 . S
C1475 H1478 0.950 . S
C1476 C1475 1.387 . S
C1476 C1479 1.387 . S
H1477 C1473 0.950 . S
H1478 C1475 0.950 . S
C1479 C1470 1.390 . S
C1479 H1472 0.950 . S
C1479 C1476 1.387 . S
C1480 C1481 1.387 . S
C1480 H1484 0.950 . S
C1480 C1489 1.390 . S
C1481 C1480 1.387 . S
C1481 C1483 1.387 . S
H1482 C1489 0.950 . S
C1483 C1481 1.387 . S
C1483 C1485 1.390 . S
C1483 H1487 0.950 . S
H1484 C1480 0.950 . S
C1485 C1483 1.390 . S
C1485 C1486 1.387 . S
C1485 H1488 0.950 . S
C1486 C1485 1.387 . S
C1486 C1489 1.387 . S
H1487 C1483 0.950 . S
H1488 C1485 0.950 . S
C1489 C1480 1.390 . S
C1489 H1482 0.950 . S
C1489 C1486 1.387 . S
C1490 C1491 1.387 . S
C1490 H1494 0.950 . S
C1490 C1499 1.390 . S
C1491 C1490 1.387 . S
C1491 C1493 1.387 . S
H1492 C1499 0.950 . S
C1493 C1491 1.387 . S
C1493 C1495 1.390 . S
C1493 H1497 0.950 . S
H1494 C1490 0.950 . S
C1495 C1493 1.390 . S
C1495 C1496 1.387 . S
C1495 H1498 0.950 . S
C1496 C1495 1.387 . S
C1496 C1499 1.387 . S
H1497 C1493 0.950 . S
H1498 C1495 0.950 . S
C1499 C1490 1.390 . S
C1499 H1492 0.950 . S
C1499 C1496 1.387 . S
C1500 C1501 1.387 . S
C1500 H1504 0.950 . S
C1500 C1509 1.390 . S
C1501 C1500 1.387 . S
C1501 C1503 1.387 . S
H1502 C1509 0.950 . S
C1503 C1501 1.387 . S
C1503 C1505 1.390 . S
C1503 H1507 0.950 . S
H1504 C1500 0.950 . S
C1505 C1503 1.390 . S
C1505 C1506 1.387 . S
C1505 H1508 0.950 . S
C1506 C1505 1.387 . S
C1506 C1509 1.387 . S
H1507 C1503 0.950 . S
H1508 C1505 0.950 . S
C1509 C1500 1.390 . S
C1509 H1502 0.950 . S
C1509 C1506 1.387 . S
C1510 C1511 1.387 . S
C1510 H1514 0.950 . S
C1510 C1519 1.390 . S
C1511 C1510 1.387 . S
C1511 C1513 1.387 . S
H1512 C1519 0.950 . S
C1513 C1511 1.387 . S
C1513 C1515 1.390 . S
C1513 H1517 0.950 . S
H1514 C1510 0.950 . S
C1515 C1513 1.390 . S
C1515 C1516 1.387 . S
C1515 H1518 0.950 . S
C1516 C1515 1.387 . S
C1516 C1519 1.387 . S
H1517 C1513 0.950 . S
H1518 C1515 0.950 . S
C1519 C1510 1.390 . S
C1519 H1512 0.950 . S
C1519 C1516 1.387 . S
C1520 C1521 1.387 . S
C1520 H1524 0.950 . S
C1520 C1529 1.390 . S
C1521 C1520 1.387 . S
C1521 C1523 1.387 . S
H1522 C1529 0.950 . S
C1523 C1521 1.387 . S
C1523 C1525 1.390 . S
C1523 H1527 0.950 . S
H1524 C1520 0.950 . S
C1525 C1523 1.390 . S
C1525 C1526 1.387 . S
C1525 H1528 0.950 . S
C1526 C1525 1.387 . S
C1526 C1529 1.387 . S
H1527 C1523 0.950 . S
H1528 C1525 0.950 . S
C1529 C1520 1.390 . S
C1529 H1522 0.950 . S
C1529 C1526 1.387 . S
C1530 C1531 1.387 . S
C1530 H1534 0.950 . S
C1530 C1539 1.390 . S
C1531 C1530 1.387 . S
C1531 C1533 1.387 . S
H1532 C1539 0.950 . S
C1533 C1531 1.387 . S
C1533 C1535 1.390 . S
C1533 H1537 0.950 . S
H1534 C1530 0.950 . S
C1535 C1533 1.390 . S
C1535 C1536 1.387 . S
C1535 H1538 0.950 . S
C1536 C1535 1.387 . S
C1536 C1539 1.387 . S
H1537 C1533 0.950 . S
H1538 C1535 0.950 . S
C1539 C1530 1.390 . S
C1539 H1532 0.950 . S
C1539 C1536 1.387 . S
C1540 C1541 1.387 . S
C1540 H1544 0.950 . S
C1540 C1549 1.390 . S
C1541 C1540 1.387 . S
C1541 C1543 1.387 . S
H1542 C1549 0.950 . S
C1543 C1541 1.387 . S
C1543 C1545 1.390 . S
C1543 H1547 0.950 . S
H1544 C1540 0.950 . S
C1545 C1543 1.390 . S
C1545 C1546 1.387 . S
C1545 H1548 0.950 . S
C1546 C1545 1.387 . S
C1546 C1549 1.387 . S
H1547 C1543 0.950 . S
H1548 C1545 0.950 . S
C1549 C1540 1.390 . S
C1549 H1542 0.950 . S
C1549 C1546 1.387 . S
C1550 C1551 1.387 . S
C1550 H1554 0.950 . S
C1550 C1559 1.390 . S
C1551 C1550 1.387 . S
C1551 C1553 1.387 . S
H1552 C1559 0.950 . S
C1553 C1551 1.387 . S
C1553 C1555 1.390 . S
C1553 H1557 0.950 . S
H1554 C1550 0.950 . S
C1555 C1553 1.390 . S
C1555 C1556 1.387 . S
C1555 H1558 0.950 . S
C1556 C1555 1.387 . S
C1556 C1559 1.387 . S
H1557 C1553 0.950 . S
H1558 C1555 0.950 . S
C1559 C1550 1.390 . S
C1559 H1552 0.950 . S
C1559 C1556 1.387 . S
C1560 C1561 1.387 . S
C1560 H1564 0.950 . S
C1560 C1569 1.390 . S
C1561 C1560 1.387 . S
C1561 C1563 1.387 . S
H1562 C1569 0.950 . S
C1563 C1561 1.387 . S
C1563 C1565 1.390 . S
C1563 H1567 0.950 . S
H1564 C1560 0.950 . S
C1565 C1563 1.390 . S
C1565 C1566 1.387 . S
C1565 H1568 0.950 . S
C1566 C1565 1.387 . S
C1566 C1569 1.387 . S
H1567 C1563 0.950 . S
H1568 C1565 0.950 . S
C1569 C1560 1.390 . S
C1569 H1562 0.950 . S
C1569 C1566 1.387 . S
C1570 C1571 1.387 . S
C1570 H1574 0.950 . S
C1570 C1579 1.390 . S
C1571 C1570 1.387 . S
C1571 C1573 1.387 . S
H1572 C1579 0.950 . S
C1573 C1571 1.387 . S
C1573 C1575 1.390 . S
C1573 H1577 0.950 . S
H1574 C1570 0.950 . S
C1575 C1573 1.390 . S
C1575 C1576 1.387 . S
C1575 H1578 0.950 . S
C1576 C1575 1.387 . S
C1576 C1579 1.387 . S
H1577 C1573 0.950 . S
H1578 C1575 0.950 . S
C1579 C1570 1.390 . S
C1579 H1572 0.950 . S
C1579 C1576 1.387 . S
C1580 C1581 1.387 . S
C1580 H1584 0.950 . S
C1580 C1589 1.390 . S
C1581 C1580 1.387 . S
C1581 C1583 1.387 . S
H1582 C1589 0.950 . S
C1583 C1581 1.387 . S
C1583 C1585 1.390 . S
C1583 H1587 0.950 . S
H1584 C1580 0.950 . S
C1585 C1583 1.390 . S
C1585 C1586 1.387 . S
C1585 H1588 0.950 . S
C1586 C1585 1.387 . S
C1586 C1589 1.387 . S
H1587 C1583 0.950 . S
H1588 C1585 0.950 . S
C1589 C1580 1.390 . S
C1589 H1582 0.950 . S
C1589 C1586 1.387 . S
C1590 C1591 1.387 . S
C1590 H1594 0.950 . S
C1590 C1599 1.390 . S
C1591 C1590 1.387 . S
C1591 C1593 1.387 . S
H1592 C1599 0.950 . S
C1593 C1591 1.387 . S
C1593 C1595 1.390 . S
C1593 H1597 0.950 . S
H1594 C1590 0.950 . S
C1595 C1593 1.390 . S
C1595 C1596 1.387 . S
C1595 H1598 0.950 . S
C1596 C1595 1.387 . S
C1596 C1599 1.387 . S
H1597 C1593 0.950 . S
H1598 C1595 0.950 . S
C1599 C1590 1.390 . S
C1599 H1592 0.950 . S
C1599 C1596 1.387 . S
C1600 C1601 1.387 . S
C1600 H1604 0.950 . S
C1600 C1609 1.390 . S
C1601 C1600 1.387 . S
C1601 C1603 1.387 . S
H1602 C1609 0.950 . S
C1603 C1601 1.387 . S
C1603 C1605 1.390 . S
C1603 H1607 0.950 . S
H1604 C1600 0.950 . S
C1605 C1603 1.390 . S
C1605 C1606 1.387 . S
C1605 H1608 0.950 . S
C1606 C1605 1.387 . S
C1606 C1609 1.387 . S
H1607 C1603 0.950 . S
H1608 C1605 0.950 . S
C1609 C1600 1.390 . S
C1609 H1602 0.950 . S
C1609 C1606 1.387 . S
C1610 C1611 1.387 . S
C1610 H1614 0.950 . S
C1610 C1619 1.390 . S
C1611 C1610 1.387 . S
C1611 C1613 1.387 . S
H1612 C1619 0.950 . S
C1613 C1611 1.387 . S
C1613 C1615 1.390 . S
C1613 H1617 0.950 . S
H1614 C1610 0.950 . S
C1615 C1613 1.390 . S
C1615 C1616 1.387 . S
C1615 H1618 0.950 . S
C1616 C1615 1.387 . S
C1616 C1619 1.387 . S
H1617 C1613 0.950 . S
H1618 C1615 0.950 . S
C1619 C1610 1.390 . S
C1619 H1612 0.950 . S
C1619 C1616 1.387 . S
C1620 C1621 1.387 . S
C1620 H1624 0.950 . S
C1620 C1629 1.390 . S
C1621 C1620 1.387 . S
C1621 C1623 1.387 . S
H1622 C1629 0.950 . S
C1623 C1621 1.387 . S
C1623 C1625 1.390 . S
C1623 H1627 0.950 . S
H1624 C1620 0.950 . S
C1625 C1623 1.390 . S
C1625 C1626 1.387 . S
C1625 H1628 0.950 . S
C1626 C1625 1.387 . S
C1626 C1629 1.387 . S
H1627 C1623 0.950 . S
H1628 C1625 0.950 . S
C1629 C1620 1.390 . S
C1629 H1622 0.950 . S
C1629 C1626 1.387 . S
C1630 C1631 1.387 . S
C1630 H1634 0.950 . S
C1630 C1639 1.390 . S
C1631 C1630 1.387 . S
C1631 C1633 1.387 . S
H1632 C1639 0.950 . S
C1633 C1631 1.387 . S
C1633 C1635 1.390 . S
C1633 H1637 0.950 . S
H1634 C1630 0.950 . S
C1635 C1633 1.390 . S
C1635 C1636 1.387 . S
C1635 H1638 0.950 . S
C1636 C1635 1.387 . S
C1636 C1639 1.387 . S
H1637 C1633 0.950 . S
H1638 C1635 0.950 . S
C1639 C1630 1.390 . S
C1639 H1632 0.950 . S
C1639 C1636 1.387 . S
C1640 C1641 1.387 . S
C1640 H1644 0.950 . S
C1640 C1649 1.390 . S
C1641 C1640 1.387 . S
C1641 C1643 1.387 . S
H1642 C1649 0.950 . S
C1643 C1641 1.387 . S
C1643 C1645 1.390 . S
C1643 H1647 0.950 . S
H1644 C1640 0.950 . S
C1645 C1643 1.390 . S
C1645 C1646 1.387 . S
C1645 H1648 0.950 . S
C1646 C1645 1.387 . S
C1646 C1649 1.387 . S
H1647 C1643 0.950 . S
H1648 C1645 0.950 . S
C1649 C1640 1.390 . S
C1649 H1642 0.950 . S
C1649 C1646 1.387 . S
C1650 C1651 1.387 . S
C1650 H1654 0.950 . S
C1650 C1659 1.390 . S
C1651 C1650 1.387 . S
C1651 C1653 1.387 . S
H1652 C1659 0.950 . S
C1653 C1651 1.387 . S
C1653 C1655 1.390 . S
C1653 H1657 0.950 . S
H1654 C1650 0.950 . S
C1655 C1653 1.390 . S
C1655 C1656 1.387 . S
C1655 H1658 0.950 . S
C1656 C1655 1.387 . S
C1656 C1659 1.387 . S
H1657 C1653 0.950 . S
H1658 C1655 0.950 . S
C1659 C1650 1.390 . S
C1659 H1652 0.950 . S
C1659 C1656 1.387 . S
C1660 C1661 1.387 . S
C1660 H1664 0.950 . S
C1660 C1669 1.390 . S
C1661 C1660 1.387 . S
C1661 C1663 1.387 . S
H1662 C1669 0.950 . S
C1663 C1661 1.387 . S
C1663 C1665 1.390 . S
C1663 H1667 0.950 . S
H1664 C1660 0.950 . S
C1665 C1663 1.390 . S
C1665 C1666 1.387 . S
C1665 H1668 0.950 . S
C1666 C1665 1.387 . S
C1666 C1669 1.387 . S
H1667 C1663 0.950 . S
H1668 C1665 0.950 . S
C1669 C1660 1.390 . S
C1669 H1662 0.950 . S
C1669 C1666 1.387 . S
C1670 C1671 1.387 . S
C1670 H1674 0.950 . S
C1670 C1679 1.390 . S
C1671 C1670 1.387 . S
C1671 C1673 1.387 . S
H1672 C1679 0.950 . S
C1673 C1671 1.387 . S
C1673 C1675 1.390 . S
C1673 H1677 0.950 . S
H1674 C1670 0.950 . S
C1675 C1673 1.390 . S
C1675 C1676 1.387 . S
C1675 H1678 0.950 . S
C1676 C1675 1.387 . S
C1676 C1679 1.387 . S
H1677 C1673 0.950 . S
H1678 C1675 0.950 . S
C1679 C1670 1.390 . S
C1679 H1672 0.950 . S
C1679 C1676 1.387 . S
C1680 C1681 1.387 . S
C1680 H1684 0.950 . S
C1680 C1689 1.390 . S
C1681 C1680 1.387 . S
C1681 C1683 1.387 . S
H1682 C1689 0.950 . S
C1683 C1681 1.387 . S
C1683 C1685 1.390 . S
C1683 H1687 0.950 . S
H1684 C1680 0.950 . S
C1685 C1683 1.390 . S
C1685 C1686 1.387 . S
C1685 H1688 0.950 . S
C1686 C1685 1.387 . S
C1686 C1689 1.387 . S
H1687 C1683 0.950 . S
H1688 C1685 0.950 . S
C1689 C1680 1.390 . S
C1689 H1682 0.950 . S
C1689 C1686 1.387 . S
C1690 C1691 1.387 . S
C1690 H1694 0.950 . S
C1690 C1699 1.390 . S
C1691 C1690 1.387 . S
C1691 C1693 1.387 . S
H1692 C1699 0.950 . S
C1693 C1691 1.387 . S
C1693 C1695 1.390 . S
C1693 H1697 0.950 . S
H1694 C1690 0.950 . S
C1695 C1693 1.390 . S
C1695 C1696 1.387 . S
C1695 H1698 0.950 . S
C1696 C1695 1.387 . S
C1696 C1699 1.387 . S
H1697 C1693 0.950 . S
H1698 C1695 0.950 . S
C1699 C1690 1.390 . S
C1699 H1692 0.950 . S
C1699 C1696 1.387 . S
C1700 C1701 1.387 . S
C1700 H1704 0.950 . S
C1700 C1709 1.390 . S
C1701 C1700 1.387 . S
C1701 C1703 1.387 . S
H1702 C1709 0.950 . S
C1703 C1701 1.387 . S
C1703 C1705 1.390 . S
C1703 H1707 0.950 . S
H1704 C1700 0.950 . S
C1705 C1703 1.390 . S
C1705 C1706 1.387 . S
C1705 H1708 0.950 . S
C1706 C1705 1.387 . S
C1706 C1709 1.387 . S
H1707 C1703 0.950 . S
H1708 C1705 0.950 . S
C1709 C1700 1.390 . S
C1709 H1702 0.950 . S
C1709 C1706 1.387 . S
C1710 C1711 1.387 . S
C1710 H1714 0.950 . S
C1710 C1719 1.390 . S
C1711 C1710 1.387 . S
C1711 C1713 1.387 . S
H1712 C1719 0.950 . S
C1713 C1711 1.387 . S
C1713 C1715 1.390 . S
C1713 H1717 0.950 . S
H1714 C1710 0.950 . S
C1715 C1713 1.390 . S
C1715 C1716 1.387 . S
C1715 H1718 0.950 . S
C1716 C1715 1.387 . S
C1716 C1719 1.387 . S
H1717 C1713 0.950 . S
H1718 C1715 0.950 . S
C1719 C1710 1.390 . S
C1719 H1712 0.950 . S
C1719 C1716 1.387 . S
C1720 C1721 1.387 . S
C1720 H1724 0.950 . S
C1720 C1729 1.390 . S
C1721 C1720 1.387 . S
C1721 C1723 1.387 . S
H1722 C1729 0.950 . S
C1723 C1721 1.387 . S
C1723 C1725 1.390 . S
C1723 H1727 0.950 . S
H1724 C1720 0.950 . S
C1725 C1723 1.390 . S
C1725 C1726 1.387 . S
C1725 H1728 0.950 . S
C1726 C1725 1.387 . S
C1726 C1729 1.387 . S
H1727 C1723 0.950 . S
H1728 C1725 0.950 . S
C1729 C1720 1.390 . S
C1729 H1722 0.950 . S
C1729 C1726 1.387 . S
C1730 C1731 1.387 . S
C1730 H1734 0.950 . S
C1730 C1739 1.390 . S
C1731 C1730 1.387 . S
C1731 C1733 1.387 . S
H1732 C1739 0.950 . S
C1733 C1731 1.387 . S
C1733 C1735 1.390 . S
C1733 H1737 0.950 . S
H1734 C1730 0.950 . S
C1735 C1733 1.390 . S
C1735 C1736 1.387 . S
C1735 H1738 0.950 . S
C1736 C1735 1.387 . S
C1736 C1739 1.387 . S
H1737 C1733 0.950 . S
H1738 C1735 0.950 . S
C1739 C1730 1.390 . S
C1739 H1732 0.950 . S
C1739 C1736 1.387 . S
C1740 C1741 1.387 . S
C1740 H1744 0.950 . S
C1740 C1749 1.390 . S
C1741 C1740 1.387 . S
C1741 C1743 1.387 . S
H1742 C1749 0.950 . S
C1743 C1741 1.387 . S
C1743 C1745 1.390 . S
C1743 H1747 0.950 . S
H1744 C1740 0.950 . S
C1745 C1743 1.390 . S
C1745 C1746 1.387 . S
C1745 H1748 0.950 . S
C1746 C1745 1.387 . S
C1746 C1749 1.387 . S
H1747 C1743 0.950 . S
H1748 C1745 0.950 . S
C1749 C1740 1.390 . S
C1749 H1742 0.950 . S
C1749 C1746 1.387 . S
C1750 C1751 1.387 . S
C1750 H1754 0.950 . S
C1750 C1759 1.390 . S
C1751 C1750 1.387 . S
C1751 C1753 1.387 . S
H1752 C1759 0.950 . S
C1753 C1751 1.387 . S
C1753 C1755 1.390 . S
C1753 H1757 0.950 . S
H1754 C1750 0.950 . S
C1755 C1753 1.390 . S
C1755 C1756 1.387 . S
C1755 H1758 0.950 . S
C1756 C1755 1.387 . S
C1756 C1759 1.387 . S
H1757 C1753 0.950 . S
H1758 C1755 0.950 . S
C1759 C1750 1.390 . S
C1759 H1752 0.950 . S
C1759 C1756 1.387 . S
C1760 C1761 1.387 . S
C1760 H1764 0.950 . S
C1760 C1769 1.390 . S
C1761 C1760 1.387 . S
C1761 C1763 1.387 . S
H1762 C1769 0.950 . S
C1763 C1761 1.387 . S
C1763 C1765 1.390 . S
C1763 H1767 0.950 . S
H1764 C1760 0.950 . S
C1765 C1763 1.390 . S
C1765 C1766 1.387 . S
C1765 H1768 0.950 . S
C1766 C1765 1.387 . S
C1766 C1769 1.387 . S
H1767 C1763 0.950 . S
H1768 C1765 0.950 . S
C1769 C1760 1.390 . S
C1769 H1762 0.950 . S
C1769 C1766 1.387 . S
C1770 C1771 1.387 . S
C1770 H1774 0.950 . S
C1770 C1779 1.390 . S
C1771 C1770 1.387 . S
C1771 C1773 1.387 . S
H1772 C1779 0.950 . S
C1773 C1771 1.387 . S
C1773 C1775 1.390 . S
C1773 H1777 0.950 . S
H1774 C1770 0.950 . S
C1775 C1773 1.390 . S
C1775 C1776 1.387 . S
C1775 H1778 0.950 . S
C1776 C1775 1.387 . S
C1776 C1779 1.387 . S
H1777 C1773 0.950 . S
H1778 C1775 0.950 . S
C1779 C1770 1.390 . S
C1779 H1772 0.950 . S
C1779 C1776 1.387 . S
C1780 C1781 1.387 . S
C1780 H1784 0.950 . S
C1780 C1789 1.390 . S
C1781 C1780 1.387 . S
C1781 C1783 1.387 . S
H1782 C1789 0.950 . S
C1783 C1781 1.387 . S
C1783 C1785 1.390 . S
C1783 H1787 0.950 . S
H1784 C1780 0.950 . S
C1785 C1783 1.390 . S
C1785 C1786 1.387 . S
C1785 H1788 0.950 . S
C1786 C1785 1.387 . S
C1786 C1789 1.387 . S
H1787 C1783 0.950 . S
H1788 C1785 0.950 . S
C1789 C1780 1.390 . S
C1789 H1782 0.950 . S
C1789 C1786 1.387 . S
C1790 C1791 1.387 . S
C1790 H1794 0.950 . S
C1790 C1799 1.390 . S
C1791 C1790 1.387 . S
C1791 C1793 1.387 . S
H1792 C1799 0.950 . S
C1793 C1791 1.387 . S
C1793 C1795 1.390 . S
C1793 H1797 0.950 . S
H1794 C1790 0.950 . S
C1795 C1793 1.390 . S
C1795 C1796 1.387 . S
C1795 H1798 0.950 . S
C1796 C1795 1.387 . S
C1796 C1799 1.387 . S
H1797 C1793 0.950 . S
H1798 C1795 0.950 . S
C1799 C1790 1.390 . S
C1799 H1792 0.950 . S
C1799 C1796 1.387 . S
C1800 C1801 1.387 . S
C1800 H1804 0.950 . S
C1800 C1809 1.390 . S
C1801 C1800 1.387 . S
C1801 C1803 1.387 . S
H1802 C1809 0.950 . S
C1803 C1801 1.387 . S
C1803 C1805 1.390 . S
C1803 H1807 0.950 . S
H1804 C1800 0.950 . S
C1805 C1803 1.390 . S
C1805 C1806 1.387 . S
C1805 H1808 0.950 . S
C1806 C1805 1.387 . S
C1806 C1809 1.387 . S
H1807 C1803 0.950 . S
H1808 C1805 0.950 . S
C1809 C1800 1.390 . S
C1809 H1802 0.950 . S
C1809 C1806 1.387 . S
C1810 C1811 1.387 . S
C1810 H1814 0.950 . S
C1810 C1819 1.390 . S
C1811 C1810 1.387 . S
C1811 C1813 1.387 . S
H1812 C1819 0.950 . S
C1813 C1811 1.387 . S
C1813 C1815 1.390 . S
C1813 H1817 0.950 . S
H1814 C1810 0.950 . S
C1815 C1813 1.390 . S
C1815 C1816 1.387 . S
C1815 H1818 0.950 . S
C1816 C1815 1.387 . S
C1816 C1819 1.387 . S
H1817 C1813 0.950 . S
H1818 C1815 0.950 . S
C1819 C1810 1.390 . S
C1819 H1812 0.950 . S
C1819 C1816 1.387 . S
C1820 C1821 1.387 . S
C1820 H1824 0.950 . S
C1820 C1829 1.390 . S
C1821 C1820 1.387 . S
C1821 C1823 1.387 . S
H1822 C1829 0.950 . S
C1823 C1821 1.387 . S
C1823 C1825 1.390 . S
C1823 H1827 0.950 . S
H1824 C1820 0.950 . S
C1825 C1823 1.390 . S
C1825 C1826 1.387 . S
C1825 H1828 0.950 . S
C1826 C1825 1.387 . S
C1826 C1829 1.387 . S
H1827 C1823 0.950 . S
H1828 C1825 0.950 . S
C1829 C1820 1.390 . S
C1829 H1822 0.950 . S
C1829 C1826 1.387 . S
C1830 C1831 1.387 . S
C1830 H1834 0.950 . S
C1830 C1839 1.390 . S
C1831 C1830 1.387 . S
C1831 C1833 1.387 . S
H1832 C1839 0.950 . S
C1833 C1831 1.387 . S
C1833 C1835 1.390 . S
C1833 H1837 0.950 . S
H1834 C1830 0.950 . S
C1835 C1833 1.390 . S
C1835 C1836 1.387 . S
C1835 H1838 0.950 . S
C1836 C1835 1.387 . S
C1836 C1839 1.387 . S
H1837 C1833 0.950 . S
H1838 C1835 0.950 . S
C1839 C1830 1.390 . S
C1839 H1832 0.950 . S
C1839 C1836 1.387 . S
C1840 C1841 1.387 . S
C1840 H1844 0.950 . S
C1840 C1849 1.390 . S
C1841 C1840 1.387 . S
C1841 C1843 1.387 . S
H1842 C1849 0.950 . S
C1843 C1841 1.387 . S
C1843 C1845 1.390 . S
C1843 H1847 0.950 . S
H1844 C1840 0.950 . S
C1845 C1843 1.390 . S
C1845 C1846 1.387 . S
C1845 H1848 0.950 . S
C1846 C1845 1.387 . S
C1846 C1849 1.387 . S
H1847 C1843 0.950 . S
H1848 C1845 0.950 . S
C1849 C1840 1.390 . S
C1849 H1842 0.950 . S
C1849 C1846 1.387 . S
C1850 C1851 1.387 . S
C1850 H1854 0.950 . S
C1850 C1859 1.390 . S
C1851 C1850 1.387 . S
C1851 C1853 1.387 . S
H1852 C1859 0.950 . S
C1853 C1851 1.387 . S
C1853 C1855 1.390 . S
C1853 H1857 0.950 . S
H1854 C1850 0.950 . S
C1855 C1853 1.390 . S
C1855 C1856 1.387 . S
C1855 H1858 0.950 . S
C1856 C1855 1.387 . S
C1856 C1859 1.387 . S
H1857 C1853 0.950 . S
H1858 C1855 0.950 . S
C1859 C1850 1.390 . S
C1859 H1852 0.950 . S
C1859 C1856 1.387 . S
C1860 C1861 1.387 . S
C1860 H1864 0.950 . S
C1860 C1869 1.390 . S
C1861 C1860 1.387 . S
C1861 C1863 1.387 . S
H1862 C1869 0.950 . S
C1863 C1861 1.387 . S
C1863 C1865 1.390 . S
C1863 H1867 0.950 . S
H1864 C1860 0.950 . S
C1865 C1863 1.390 . S
C1865 C1866 1.387 . S
C1865 H1868 0.950 . S
C1866 C1865 1.387 . S
C1866 C1869 1.387 . S
H1867 C1863 0.950 . S
H1868 C1865 0.950 . S
C1869 C1860 1.390 . S
C1869 H1862 0.950 . S
C1869 C1866 1.387 . S
C1870 C1871 1.387 . S
C1870 H1874 0.950 . S
C1870 C1879 1.390 . S
C1871 C1870 1.387 . S
C1871 C1873 1.387 . S
H1872 C1879 0.950 . S
C1873 C1871 1.387 . S
C1873 C1875 1.390 . S
C1873 H1877 0.950 . S
H1874 C1870 0.950 . S
C1875 C1873 1.390 . S
C1875 C1876 1.387 . S
C1875 H1878 0.950 . S
C1876 C1875 1.387 . S
C1876 C1879 1.387 . S
H1877 C1873 0.950 . S
H1878 C1875 0.950 . S
C1879 C1870 1.390 . S
C1879 H1872 0.950 . S
C1879 C1876 1.387 . S
C1880 C1881 1.387 . S
C1880 H1884 0.950 . S
C1880 C1889 1.390 . S
C1881 C1880 1.387 . S
C1881 C1883 1.387 . S
H1882 C1889 0.950 . S
C1883 C1881 1.387 . S
C1883 C1885 1.390 . S
C1883 H1887 0.950 . S
H1884 C1880 0.950 . S
C1885 C1883 1.390 . S
C1885 C1886 1.387 . S
C1885 H1888 0.950 . S
C1886 C1885 1.387 . S
C1886 C1889 1.387 . S
H1887 C1883 0.950 . S
H1888 C1885 0.950 . S
C1889 C1880 1.390 . S
C1889 H1882 0.950 . S
C1889 C1886 1.387 . S
C1890 C1891 1.387 . S
C1890 H1894 0.950 . S
C1890 C1899 1.390 . S
C1891 C1890 1.387 . S
C1891 C1893 1.387 . S
H1892 C1899 0.950 . S
C1893 C1891 1.387 . S
C1893 C1895 1.390 . S
C1893 H1897 0.950 . S
H1894 C1890 0.950 . S
C1895 C1893 1.390 . S
C1895 C1896 1.387 . S
C1895 H1898 0.950 . S
C1896 C1895 1.387 . S
C1896 C1899 1.387 . S
H1897 C1893 0.950 . S
H1898 C1895 0.950 . S
C1899 C1890 1.390 . S
C1899 H1892 0.950 . S
C1899 C1896 1.387 . S
C1900 C1901 1.387 . S
C1900 H1904 0.950 . S
C1900 C1909 1.390 . S
C1901 C1900 1.387 . S
C1901 C1903 1.387 . S
H1902 C1909 0.950 . S
C1903 C1901 1.387 . S
C1903 C1905 1.390 . S
C1903 H1907 0.950 . S
H1904 C1900 0.950 . S
C1905 C1903 1.390 . S
C1905 C1906 1.387 . S
C1905 H1908 0.950 . S
C1906 C1905 1.387 . S
C1906 C1909 1.387 . S
H1907 C1903 0.950 . S
H1908 C1905 0.950 . S
C1909 C1900 1.390 . S
C1909 H1902 0.950 . S
C1909 C1906 1.387 . S
C1910 C1911 1.387 . S
C1910 H1914 0.950 . S
C1910 C1919 1.390 . S
C1911 C1910 1.387 . S
C1911 C1913 1.387 . S
H1912 C1919 0.950 . S
C1913 C1911 1.387 . S
C1913 C1915 1.390 . S
C1913 H1917 0.950 . S
H1914 C1910 0.950 . S
C1915 C1913 1.390 . S
C1915 C1916 1.387 . S
C1915 H1918 0.950 . S
C1916 C1915 1.387 . S
C1916 C1919 1.387 . S
H1917 C1913 0.950 . S
H1918 C1915 0.950 . S
C1919 C1910 1.390 . S
C1919 H1912 0.950 . S
C1919 C1916 1.387 . S
C1920 C1921 1.387 . S
C1920 H1924 0.950 . S
C1920 C1929 1.390 1_545 S
C1921 C1920 1.387 . S
C1921 C1923 1.387 . S
H1922 C1929 0.950 . S
C1923 C1921 1.387 . S
C1923 C1925 1.390 1_545 S
C1923 H1927 0.950 . S
H1924 C1920 0.950 . S
C1925 C1923 1.390 1_565 S
C1925 C1926 1.387 . S
C1925 H1928 0.950 . S
C1926 C1925 1.387 . S
C1926 C1929 1.387 . S
H1927 C1923 0.950 . S
H1928 C1925 0.950 . S
C1929 C1920 1.390 1_565 S
C1929 H1922 0.950 . S
C1929 C1926 1.387 . S
C1930 C1931 1.387 . S
C1930 H1934 0.950 . S
C1930 C1939 1.390 . S
C1931 C1930 1.387 . S
C1931 C1933 1.387 . S
H1932 C1939 0.950 . S
C1933 C1931 1.387 . S
C1933 C1935 1.390 . S
C1933 H1937 0.950 . S
H1934 C1930 0.950 . S
C1935 C1933 1.390 . S
C1935 C1936 1.387 . S
C1935 H1938 0.950 . S
C1936 C1935 1.387 . S
C1936 C1939 1.387 . S
H1937 C1933 0.950 . S
H1938 C1935 0.950 . S
C1939 C1930 1.390 . S
C1939 H1932 0.950 . S
C1939 C1936 1.387 . S
C1940 C1941 1.387 . S
C1940 H1944 0.950 . S
C1940 C1949 1.390 1_565 S
C1941 C1940 1.387 . S
C1941 C1943 1.387 . S
H1942 C1949 0.950 . S
C1943 C1941 1.387 . S
C1943 C1945 1.390 1_565 S
C1943 H1947 0.950 . S
H1944 C1940 0.950 . S
C1945 C1943 1.390 1_545 S
C1945 C1946 1.387 . S
C1945 H1948 0.950 . S
C1946 C1945 1.387 . S
C1946 C1949 1.387 . S
H1947 C1943 0.950 . S
H1948 C1945 0.950 . S
C1949 C1940 1.390 1_545 S
C1949 H1942 0.950 . S
C1949 C1946 1.387 . S
C1950 C1951 1.387 . S
C1950 H1954 0.950 . S
C1950 C1959 1.390 1_554 S
C1951 C1950 1.387 . S
C1951 C1953 1.387 . S
H1952 C1959 0.950 . S
C1953 C1951 1.387 . S
C1953 C1955 1.390 1_554 S
C1953 H1957 0.950 . S
H1954 C1950 0.950 . S
C1955 C1953 1.390 1_556 S
C1955 C1956 1.387 . S
C1955 H1958 0.950 . S
C1956 C1955 1.387 . S
C1956 C1959 1.387 . S
H1957 C1953 0.950 . S
H1958 C1955 0.950 . S
C1959 C1950 1.390 1_556 S
C1959 H1952 0.950 . S
C1959 C1956 1.387 . S
C1960 C1961 1.387 . S
C1960 H1964 0.950 . S
C1960 C1969 1.390 1_545 S
C1961 C1960 1.387 . S
C1961 C1963 1.387 . S
H1962 C1969 0.950 . S
C1963 C1961 1.387 . S
C1963 C1965 1.390 1_545 S
C1963 H1967 0.950 . S
H1964 C1960 0.950 . S
C1965 C1963 1.390 1_565 S
C1965 C1966 1.387 . S
C1965 H1968 0.950 . S
C1966 C1965 1.387 . S
C1966 C1969 1.387 . S
H1967 C1963 0.950 . S
H1968 C1965 0.950 . S
C1969 C1960 1.390 1_565 S
C1969 H1962 0.950 . S
C1969 C1966 1.387 . S
C1970 C1971 1.387 . S
C1970 H1974 0.950 . S
C1970 C1979 1.390 . S
C1971 C1970 1.387 . S
C1971 C1973 1.387 . S
H1972 C1979 0.950 . S
C1973 C1971 1.387 . S
C1973 C1975 1.390 . S
C1973 H1977 0.950 . S
H1974 C1970 0.950 . S
C1975 C1973 1.390 . S
C1975 C1976 1.387 . S
C1975 H1978 0.950 . S
C1976 C1975 1.387 . S
C1976 C1979 1.387 . S
H1977 C1973 0.950 . S
H1978 C1975 0.950 . S
C1979 C1970 1.390 . S
C1979 H1972 0.950 . S
C1979 C1976 1.387 . S
C1980 C1981 1.387 . S
C1980 H1984 0.950 . S
C1980 C1989 1.390 1_545 S
C1981 C1980 1.387 . S
C1981 C1983 1.387 . S
H1982 C1989 0.950 . S
C1983 C1981 1.387 . S
C1983 C1985 1.390 1_545 S
C1983 H1987 0.950 . S
H1984 C1980 0.950 . S
C1985 C1983 1.390 1_565 S
C1985 C1986 1.387 . S
C1985 H1988 0.950 . S
C1986 C1985 1.387 . S
C1986 C1989 1.387 . S
H1987 C1983 0.950 . S
H1988 C1985 0.950 . S
C1989 C1980 1.390 1_565 S
C1989 H1982 0.950 . S
C1989 C1986 1.387 . S
C1990 C1991 1.387 . S
C1990 H1994 0.950 . S
C1990 C1999 1.390 1_554 S
C1991 C1990 1.387 . S
C1991 C1993 1.387 . S
H1992 C1999 0.950 . S
C1993 C1991 1.387 . S
C1993 C1995 1.390 1_554 S
C1993 H1997 0.950 . S
H1994 C1990 0.950 . S
C1995 C1993 1.390 1_556 S
C1995 C1996 1.387 . S
C1995 H1998 0.950 . S
C1996 C1995 1.387 . S
C1996 C1999 1.387 . S
H1997 C1993 0.950 . S
H1998 C1995 0.950 . S
C1999 C1990 1.390 1_556 S
C1999 H1992 0.950 . S
C1999 C1996 1.387 . S
C2000 C2001 1.387 . S
C2000 H2004 0.950 . S
C2000 C2009 1.390 . S
C2001 C2000 1.387 . S
C2001 C2003 1.387 . S
H2002 C2009 0.950 . S
C2003 C2001 1.387 . S
C2003 C2005 1.390 . S
C2003 H2007 0.950 . S
H2004 C2000 0.950 . S
C2005 C2003 1.390 . S
C2005 C2006 1.387 . S
C2005 H2008 0.950 . S
C2006 C2005 1.387 . S
C2006 C2009 1.387 . S
H2007 C2003 0.950 . S
H2008 C2005 0.950 . S
C2009 C2000 1.390 . S
C2009 H2002 0.950 . S
C2009 C2006 1.387 . S
C2010 C2011 1.387 . S
C2010 H2014 0.950 . S
C2010 C2019 1.390 1_554 S
C2011 C2010 1.387 . S
C2011 C2013 1.387 . S
H2012 C2019 0.950 . S
C2013 C2011 1.387 . S
C2013 C2015 1.390 1_554 S
C2013 H2017 0.950 . S
H2014 C2010 0.950 . S
C2015 C2013 1.390 1_556 S
C2015 C2016 1.387 . S
C2015 H2018 0.950 . S
C2016 C2015 1.387 . S
C2016 C2019 1.387 . S
H2017 C2013 0.950 . S
H2018 C2015 0.950 . S
C2019 C2010 1.390 1_556 S
C2019 H2012 0.950 . S
C2019 C2016 1.387 . S
C2020 C2021 1.387 . S
C2020 H2024 0.950 . S
C2020 C2029 1.390 . S
C2021 C2020 1.387 . S
C2021 C2023 1.387 . S
H2022 C2029 0.950 . S
C2023 C2021 1.387 . S
C2023 C2025 1.390 . S
C2023 H2027 0.950 . S
H2024 C2020 0.950 . S
C2025 C2023 1.390 . S
C2025 C2026 1.387 . S
C2025 H2028 0.950 . S
C2026 C2025 1.387 . S
C2026 C2029 1.387 . S
H2027 C2023 0.950 . S
H2028 C2025 0.950 . S
C2029 C2020 1.390 . S
C2029 H2022 0.950 . S
C2029 C2026 1.387 . S
C2030 C2031 1.387 . S
C2030 H2034 0.950 . S
C2030 C2039 1.390 . S
C2031 C2030 1.387 . S
C2031 C2033 1.387 . S
H2032 C2039 0.950 . S
C2033 C2031 1.387 . S
C2033 C2035 1.390 . S
C2033 H2037 0.950 . S
H2034 C2030 0.950 . S
C2035 C2033 1.390 . S
C2035 C2036 1.387 . S
C2035 H2038 0.950 . S
C2036 C2035 1.387 . S
C2036 C2039 1.387 . S
H2037 C2033 0.950 . S
H2038 C2035 0.950 . S
C2039 C2030 1.390 . S
C2039 H2032 0.950 . S
C2039 C2036 1.387 . S
C2040 C2041 1.387 . S
C2040 H2044 0.950 . S
C2040 C2049 1.390 . S
C2041 C2040 1.387 . S
C2041 C2043 1.387 . S
H2042 C2049 0.950 . S
C2043 C2041 1.387 . S
C2043 C2045 1.390 . S
C2043 H2047 0.950 . S
H2044 C2040 0.950 . S
C2045 C2043 1.390 . S
C2045 C2046 1.387 . S
C2045 H2048 0.950 . S
C2046 C2045 1.387 . S
C2046 C2049 1.387 . S
H2047 C2043 0.950 . S
H2048 C2045 0.950 . S
C2049 C2040 1.390 . S
C2049 H2042 0.950 . S
C2049 C2046 1.387 . S
C2050 C2051 1.387 . S
C2050 H2054 0.950 . S
C2050 C2059 1.390 1_554 S
C2051 C2050 1.387 . S
C2051 C2053 1.387 . S
H2052 C2059 0.950 . S
C2053 C2051 1.387 . S
C2053 C2055 1.390 1_554 S
C2053 H2057 0.950 . S
H2054 C2050 0.950 . S
C2055 C2053 1.390 1_556 S
C2055 C2056 1.387 . S
C2055 H2058 0.950 . S
C2056 C2055 1.387 . S
C2056 C2059 1.387 . S
H2057 C2053 0.950 . S
H2058 C2055 0.950 . S
C2059 C2050 1.390 1_556 S
C2059 H2052 0.950 . S
C2059 C2056 1.387 . S
C2060 C2061 1.387 . S
C2060 H2064 0.950 . S
C2060 C2069 1.390 . S
C2061 C2060 1.387 . S
C2061 C2063 1.387 . S
H2062 C2069 0.950 . S
C2063 C2061 1.387 . S
C2063 C2065 1.390 . S
C2063 H2067 0.950 . S
H2064 C2060 0.950 . S
C2065 C2063 1.390 . S
C2065 C2066 1.387 . S
C2065 H2068 0.950 . S
C2066 C2065 1.387 . S
C2066 C2069 1.387 . S
H2067 C2063 0.950 . S
H2068 C2065 0.950 . S
C2069 C2060 1.390 . S
C2069 H2062 0.950 . S
C2069 C2066 1.387 . S
C2070 C2071 1.387 . S
C2070 H2074 0.950 . S
C2070 C2079 1.390 . S
C2071 C2070 1.387 . S
C2071 C2073 1.387 . S
H2072 C2079 0.950 . S
C2073 C2071 1.387 . S
C2073 C2075 1.390 . S
C2073 H2077 0.950 . S
H2074 C2070 0.950 . S
C2075 C2073 1.390 . S
C2075 C2076 1.387 . S
C2075 H2078 0.950 . S
C2076 C2075 1.387 . S
C2076 C2079 1.387 . S
H2077 C2073 0.950 . S
H2078 C2075 0.950 . S
C2079 C2070 1.390 . S
C2079 H2072 0.950 . S
C2079 C2076 1.387 . S
C2080 C2081 1.387 . S
C2080 H2084 0.950 . S
C2080 C2089 1.390 . S
C2081 C2080 1.387 . S
C2081 C2083 1.387 . S
H2082 C2089 0.950 . S
C2083 C2081 1.387 . S
C2083 C2085 1.390 . S
C2083 H2087 0.950 . S
H2084 C2080 0.950 . S
C2085 C2083 1.390 . S
C2085 C2086 1.387 . S
C2085 H2088 0.950 . S
C2086 C2085 1.387 . S
C2086 C2089 1.387 . S
H2087 C2083 0.950 . S
H2088 C2085 0.950 . S
C2089 C2080 1.390 . S
C2089 H2082 0.950 . S
C2089 C2086 1.387 . S
C2090 C2091 1.387 . S
C2090 H2094 0.950 . S
C2090 C2099 1.390 . S
C2091 C2090 1.387 . S
C2091 C2093 1.387 . S
H2092 C2099 0.950 . S
C2093 C2091 1.387 . S
C2093 C2095 1.390 . S
C2093 H2097 0.950 . S
H2094 C2090 0.950 . S
C2095 C2093 1.390 . S
C2095 C2096 1.387 . S
C2095 H2098 0.950 . S
C2096 C2095 1.387 . S
C2096 C2099 1.387 . S
H2097 C2093 0.950 . S
H2098 C2095 0.950 . S
C2099 C2090 1.390 . S
C2099 H2092 0.950 . S
C2099 C2096 1.387 . S
C2100 C2101 1.387 . S
C2100 H2104 0.950 . S
C2100 C2109 1.390 . S
C2101 C2100 1.387 . S
C2101 C2103 1.387 . S
H2102 C2109 0.950 . S
C2103 C2101 1.387 . S
C2103 C2105 1.390 . S
C2103 H2107 0.950 . S
H2104 C2100 0.950 . S
C2105 C2103 1.390 . S
C2105 C2106 1.387 . S
C2105 H2108 0.950 . S
C2106 C2105 1.387 . S
C2106 C2109 1.387 . S
H2107 C2103 0.950 . S
H2108 C2105 0.950 . S
C2109 C2100 1.390 . S
C2109 H2102 0.950 . S
C2109 C2106 1.387 . S
C2110 C2111 1.387 . S
C2110 H2114 0.950 . S
C2110 C2119 1.390 . S
C2111 C2110 1.387 . S
C2111 C2113 1.387 . S
H2112 C2119 0.950 . S
C2113 C2111 1.387 . S
C2113 C2115 1.390 . S
C2113 H2117 0.950 . S
H2114 C2110 0.950 . S
C2115 C2113 1.390 . S
C2115 C2116 1.387 . S
C2115 H2118 0.950 . S
C2116 C2115 1.387 . S
C2116 C2119 1.387 . S
H2117 C2113 0.950 . S
H2118 C2115 0.950 . S
C2119 C2110 1.390 . S
C2119 H2112 0.950 . S
C2119 C2116 1.387 . S
C2120 C2121 1.387 . S
C2120 H2124 0.950 . S
C2120 C2129 1.390 . S
C2121 C2120 1.387 . S
C2121 C2123 1.387 . S
H2122 C2129 0.950 . S
C2123 C2121 1.387 . S
C2123 C2125 1.390 . S
C2123 H2127 0.950 . S
H2124 C2120 0.950 . S
C2125 C2123 1.390 . S
C2125 C2126 1.387 . S
C2125 H2128 0.950 . S
C2126 C2125 1.387 . S
C2126 C2129 1.387 . S
H2127 C2123 0.950 . S
H2128 C2125 0.950 . S
C2129 C2120 1.390 . S
C2129 H2122 0.950 . S
C2129 C2126 1.387 . S
C2130 C2131 1.387 . S
C2130 H2134 0.950 . S
C2130 C2139 1.390 . S
C2131 C2130 1.387 . S
C2131 C2133 1.387 . S
H2132 C2139 0.950 . S
C2133 C2131 1.387 . S
C2133 C2135 1.390 . S
C2133 H2137 0.950 . S
H2134 C2130 0.950 . S
C2135 C2133 1.390 . S
C2135 C2136 1.387 . S
C2135 H2138 0.950 . S
C2136 C2135 1.387 . S
C2136 C2139 1.387 . S
H2137 C2133 0.950 . S
H2138 C2135 0.950 . S
C2139 C2130 1.390 . S
C2139 H2132 0.950 . S
C2139 C2136 1.387 . S
C2140 C2141 1.387 . S
C2140 H2144 0.950 . S
C2140 C2149 1.390 . S
C2141 C2140 1.387 . S
C2141 C2143 1.387 . S
H2142 C2149 0.950 . S
C2143 C2141 1.387 . S
C2143 C2145 1.390 . S
C2143 H2147 0.950 . S
H2144 C2140 0.950 . S
C2145 C2143 1.390 . S
C2145 C2146 1.387 . S
C2145 H2148 0.950 . S
C2146 C2145 1.387 . S
C2146 C2149 1.387 . S
H2147 C2143 0.950 . S
H2148 C2145 0.950 . S
C2149 C2140 1.390 . S
C2149 H2142 0.950 . S
C2149 C2146 1.387 . S
C2150 C2151 1.387 . S
C2150 H2154 0.950 . S
C2150 C2159 1.390 . S
C2151 C2150 1.387 . S
C2151 C2153 1.387 . S
H2152 C2159 0.950 . S
C2153 C2151 1.387 . S
C2153 C2155 1.390 . S
C2153 H2157 0.950 . S
H2154 C2150 0.950 . S
C2155 C2153 1.390 . S
C2155 C2156 1.387 . S
C2155 H2158 0.950 . S
C2156 C2155 1.387 . S
C2156 C2159 1.387 . S
H2157 C2153 0.950 . S
H2158 C2155 0.950 . S
C2159 C2150 1.390 . S
C2159 H2152 0.950 . S
C2159 C2156 1.387 . S
C2160 C2161 1.387 . S
C2160 H2164 0.950 . S
C2160 C2169 1.390 . S
C2161 C2160 1.387 . S
C2161 C2163 1.387 . S
H2162 C2169 0.950 . S
C2163 C2161 1.387 . S
C2163 C2165 1.390 . S
C2163 H2167 0.950 . S
H2164 C2160 0.950 . S
C2165 C2163 1.390 . S
C2165 C2166 1.387 . S
C2165 H2168 0.950 . S
C2166 C2165 1.387 . S
C2166 C2169 1.387 . S
H2167 C2163 0.950 . S
H2168 C2165 0.950 . S
C2169 C2160 1.390 . S
C2169 H2162 0.950 . S
C2169 C2166 1.387 . S
C2170 C2171 1.387 . S
C2170 H2174 0.950 . S
C2170 C2179 1.390 . S
C2171 C2170 1.387 . S
C2171 C2173 1.387 . S
H2172 C2179 0.950 . S
C2173 C2171 1.387 . S
C2173 C2175 1.390 . S
C2173 H2177 0.950 . S
H2174 C2170 0.950 . S
C2175 C2173 1.390 . S
C2175 C2176 1.387 . S
C2175 H2178 0.950 . S
C2176 C2175 1.387 . S
C2176 C2179 1.387 . S
H2177 C2173 0.950 . S
H2178 C2175 0.950 . S
C2179 C2170 1.390 . S
C2179 H2172 0.950 . S
C2179 C2176 1.387 . S
C2180 C2181 1.387 . S
C2180 H2184 0.950 . S
C2180 C2189 1.390 . S
C2181 C2180 1.387 . S
C2181 C2183 1.387 . S
H2182 C2189 0.950 . S
C2183 C2181 1.387 . S
C2183 C2185 1.390 . S
C2183 H2187 0.950 . S
H2184 C2180 0.950 . S
C2185 C2183 1.390 . S
C2185 C2186 1.387 . S
C2185 H2188 0.950 . S
C2186 C2185 1.387 . S
C2186 C2189 1.387 . S
H2187 C2183 0.950 . S
H2188 C2185 0.950 . S
C2189 C2180 1.390 . S
C2189 H2182 0.950 . S
C2189 C2186 1.387 . S
C2190 C2191 1.387 . S
C2190 H2194 0.950 . S
C2190 C2199 1.390 . S
C2191 C2190 1.387 . S
C2191 C2193 1.387 . S
H2192 C2199 0.950 . S
C2193 C2191 1.387 . S
C2193 C2195 1.390 . S
C2193 H2197 0.950 . S
H2194 C2190 0.950 . S
C2195 C2193 1.390 . S
C2195 C2196 1.387 . S
C2195 H2198 0.950 . S
C2196 C2195 1.387 . S
C2196 C2199 1.387 . S
H2197 C2193 0.950 . S
H2198 C2195 0.950 . S
C2199 C2190 1.390 . S
C2199 H2192 0.950 . S
C2199 C2196 1.387 . S
C2200 C2201 1.387 . S
C2200 H2204 0.950 . S
C2200 C2209 1.390 . S
C2201 C2200 1.387 . S
C2201 C2203 1.387 . S
H2202 C2209 0.950 . S
C2203 C2201 1.387 . S
C2203 C2205 1.390 . S
C2203 H2207 0.950 . S
H2204 C2200 0.950 . S
C2205 C2203 1.390 . S
C2205 C2206 1.387 . S
C2205 H2208 0.950 . S
C2206 C2205 1.387 . S
C2206 C2209 1.387 . S
H2207 C2203 0.950 . S
H2208 C2205 0.950 . S
C2209 C2200 1.390 . S
C2209 H2202 0.950 . S
C2209 C2206 1.387 . S
C2210 C2211 1.387 . S
C2210 H2214 0.950 . S
C2210 C2219 1.390 . S
C2211 C2210 1.387 . S
C2211 C2213 1.387 . S
H2212 C2219 0.950 . S
C2213 C2211 1.387 . S
C2213 C2215 1.390 . S
C2213 H2217 0.950 . S
H2214 C2210 0.950 . S
C2215 C2213 1.390 . S
C2215 C2216 1.387 . S
C2215 H2218 0.950 . S
C2216 C2215 1.387 . S
C2216 C2219 1.387 . S
H2217 C2213 0.950 . S
H2218 C2215 0.950 . S
C2219 C2210 1.390 . S
C2219 H2212 0.950 . S
C2219 C2216 1.387 . S
C2220 C2221 1.387 . S
C2220 H2224 0.950 . S
C2220 C2229 1.390 . S
C2221 C2220 1.387 . S
C2221 C2223 1.387 . S
H2222 C2229 0.950 . S
C2223 C2221 1.387 . S
C2223 C2225 1.390 . S
C2223 H2227 0.950 . S
H2224 C2220 0.950 . S
C2225 C2223 1.390 . S
C2225 C2226 1.387 . S
C2225 H2228 0.950 . S
C2226 C2225 1.387 . S
C2226 C2229 1.387 . S
H2227 C2223 0.950 . S
H2228 C2225 0.950 . S
C2229 C2220 1.390 . S
C2229 H2222 0.950 . S
C2229 C2226 1.387 . S
C2230 C2231 1.387 . S
C2230 H2234 0.950 . S
C2230 C2239 1.390 . S
C2231 C2230 1.387 . S
C2231 C2233 1.387 . S
H2232 C2239 0.950 . S
C2233 C2231 1.387 . S
C2233 C2235 1.390 . S
C2233 H2237 0.950 . S
H2234 C2230 0.950 . S
C2235 C2233 1.390 . S
C2235 C2236 1.387 . S
C2235 H2238 0.950 . S
C2236 C2235 1.387 . S
C2236 C2239 1.387 . S
H2237 C2233 0.950 . S
H2238 C2235 0.950 . S
C2239 C2230 1.390 . S
C2239 H2232 0.950 . S
C2239 C2236 1.387 . S
C1281 C6 1.041 . S
C1286 C139 0.993 . S
C1291 C19 0.989 . S
C1296 C46 1.041 . S
C1301 C86 1.041 . S
C1306 C59 0.994 . S
C1311 C99 0.990 . S
C1316 C126 1.041 . S
C1321 C219 0.988 . S
C1326 C166 1.042 . S
C1331 C206 1.041 . S
C1336 C259 0.991 . S
C1341 C299 0.989 . S
C1346 C246 1.042 . S
C1351 C179 0.994 . S
C1356 C286 1.041 . S
C1361 C335 1.041 . S
C1366 C450 0.994 . S
C1371 C375 1.041 . S
C1376 C330 0.988 . S
C1381 C415 1.042 . S
C1386 C370 0.988 . S
C1391 C455 1.041 . S
C1396 C410 0.988 . S
C1401 C495 1.042 . S
C1406 C530 0.988 . S
C1411 C535 1.041 . S
C1416 C570 0.991 . S
C1421 C610 0.994 . S
C1426 C575 1.041 . S
C1431 C490 0.989 . S
C1436 C615 1.041 . S
C1441 C646 1.041 . S
C1446 C779 0.994 . S
C1451 C659 0.992 . S
C1456 C686 1.041 . S
C1461 C699 0.989 . S
C1466 C726 1.041 . S
C1471 C766 1.041 . S
C1476 C739 0.994 . S
C1481 C806 1.042 . S
C1486 C859 0.989 . S
C1491 C899 0.994 . S
C1496 C846 1.041 . S
C1501 C886 1.042 . S
C1506 C939 0.988 . S
C1511 C819 0.988 . S
C1516 C926 1.041 . S
C1521 C1090 0.988 . S
C1526 C975 1.042 . S
C1531 C970 0.988 . S
C1536 C1015 1.041 . S
C1541 C1055 1.041 . S
C1546 C1010 0.994 . S
C1551 C1050 0.988 . S
C1556 C1095 1.041 . S
C1561 C1170 0.988 . S
C1566 C1135 1.042 . S
C1571 C1210 0.993 . S
C1576 C1175 1.041 . S
C1581 C1250 0.988 . S
C1586 C1215 1.042 . S
C1591 C1255 1.041 . S
C1596 C1130 0.994 . S
C1601 C1086 1.627 . S
C1606 C9 1.544 . S
C1611 C49 1.546 . S
C1616 C326 1.629 . S
C1621 C89 1.542 . S
C1626 C1006 1.627 . S
C1631 C129 1.546 . S
C1636 C406 1.629 . S
C1641 C169 1.542 . S
C1646 C1166 1.627 . S
C1651 C566 1.628 . S
C1656 C209 1.543 . S
C1661 C1246 1.627 . S
C1666 C249 1.543 . S
C1671 C289 1.546 . S
C1676 C486 1.629 . S
C1681 C338 1.543 . S
C1686 C775 1.627 . S
C1691 C15 1.628 . S
C1696 C378 1.543 . S
C1701 C695 1.629 . S
C1706 C418 1.546 . S
C1711 C95 1.628 . S
C1716 C458 1.546 . S
C1721 C855 1.627 . S
C1726 C498 1.542 . S
C1731 C255 1.627 . S
C1736 C538 1.543 . S
C1741 C578 1.546 . S
C1746 C935 1.629 . S
C1751 C618 1.542 . S
C1756 C175 1.627 . S
C1761 C649 1.545 . S
C1766 C446 1.629 . S
C1771 C689 1.543 . S
C1776 C966 1.627 . S
C1781 C729 1.543 . S
C1786 C366 1.628 . S
C1791 C769 1.547 . S
C1796 C1046 1.629 . S
C1801 C809 1.545 . S
C1806 C526 1.628 . S
C1811 C849 1.544 . S
C1816 C1206 1.629 . S
C1821 C606 1.629 . S
C1826 C889 1.545 . S
C1831 C929 1.546 . S
C1836 C1126 1.628 . S
C1841 C135 1.628 . S
C1846 C978 1.544 . S
C1851 C655 1.629 . S
C1856 C1018 1.546 . S
C1861 C55 1.629 . S
C1866 C1058 1.546 . S
C1871 C735 1.628 . S
C1876 C1098 1.543 . S
C1881 C215 1.628 . S
C1886 C1138 1.545 . S
C1891 C1178 1.544 . S
C1896 C895 1.628 . S
C1901 C1218 1.542 . S
C1906 C295 1.627 . S
C1911 C815 1.628 . S
C1916 C1258 1.544 . S
C1921 C18 1.292 . S
C1926 C178 1.292 . S
C1931 C58 1.288 . S
C1936 C218 1.288 . S
C1941 C98 1.288 . S
C1946 C258 1.288 . S
C1951 C298 1.288 . S
C1956 C138 1.288 . S
C1961 C489 1.288 . S
C1966 C329 1.288 . S
C1971 C529 1.292 . S
C1976 C369 1.292 . S
C1981 C409 1.288 . S
C1986 C569 1.288 . S
C1991 C449 1.288 . S
C1996 C609 1.288 . S
C2001 C658 1.288 . S
C2006 C818 1.288 . S
C2011 C858 1.288 . S
C2016 C698 1.288 . S
C2021 C898 1.288 . S
C2026 C738 1.288 . S
C2031 C938 1.292 . S
C2036 C778 1.292 . S
C2041 C1129 1.288 . S
C2046 C969 1.288 . S
C2051 C1009 1.292 . S
C2056 C1169 1.292 . S
C2061 C1209 1.292 . S
C2066 C1049 1.292 . S
C2071 C1089 1.288 . S
C2076 C1249 1.288 . S
C2081 C290 2.703 . S
C2086 C10 2.703 . S
C2091 C50 2.703 . S
C2096 C170 2.703 . S
C2101 C90 2.703 . S
C2106 C210 2.703 . S
C2111 C250 2.703 . S
C2116 C130 2.703 . S
C2121 C339 2.703 . S
C2126 C619 2.703 . S
C2131 C499 2.703 . S
C2136 C379 2.703 . S
C2141 C539 2.703 . S
C2146 C419 2.703 . S
C2151 C459 2.703 . S
C2156 C579 2.703 . S
C2161 C650 2.703 . S
C2166 C930 2.703 . S
C2171 C810 2.703 . S
C2176 C690 2.703 . S
C2181 C850 2.703 . S
C2186 C730 2.703 . S
C2191 C890 2.703 . S
C2196 C770 2.703 . S
C2201 C979 2.703 . S
C2206 C1259 2.703 . S
C2211 C1139 2.703 . S
C2216 C1019 2.703 . S
C2221 C1059 2.703 . S
C2226 C1179 2.703 . S
C2231 C1219 2.703 . S
C2236 C1099 2.703 . S
