# Generated by pormake.
# Topology msp, (4)-cn, num edge types: 1
# Building blocks:
#     Node 0, Type 0, BuildingBlock: NAWXER_clean_sbu_0, # of connection points: 4
#     Node 1, Type 0, BuildingBlock: NAWXER_clean_sbu_0, # of connection points: 4
#     Node 2, Type 0, BuildingBlock: NAWXER_clean_sbu_0, # of connection points: 4
#     Node 3, Type 0, BuildingBlock: NAWXER_clean_sbu_0, # of connection points: 4
#     Node 4, Type 0, BuildingBlock: NAWXER_clean_sbu_0, # of connection points: 4
#     Node 5, Type 0, BuildingBlock: NAWXER_clean_sbu_0, # of connection points: 4
#     Node 6, Type 0, BuildingBlock: NAWXER_clean_sbu_0, # of connection points: 4
#     Node 7, Type 0, BuildingBlock: NAWXER_clean_sbu_0, # of connection points: 4
#     Edge 8, Type (0, 0), BuildingBlock: OJICUG_clean_linker_0, # of connection points: 2
#     Edge 9, Type (0, 0), BuildingBlock: OJICUG_clean_linker_0, # of connection points: 2
#     Edge 10, Type (0, 0), BuildingBlock: OJICUG_clean_linker_0, # of connection points: 2
#     Edge 11, Type (0, 0), BuildingBlock: OJICUG_clean_linker_0, # of connection points: 2
#     Edge 12, Type (0, 0), BuildingBlock: OJICUG_clean_linker_0, # of connection points: 2
#     Edge 13, Type (0, 0), BuildingBlock: OJICUG_clean_linker_0, # of connection points: 2
#     Edge 14, Type (0, 0), BuildingBlock: OJICUG_clean_linker_0, # of connection points: 2
#     Edge 15, Type (0, 0), BuildingBlock: OJICUG_clean_linker_0, # of connection points: 2
#     Edge 16, Type (0, 0), BuildingBlock: OJICUG_clean_linker_0, # of connection points: 2
#     Edge 17, Type (0, 0), BuildingBlock: OJICUG_clean_linker_0, # of connection points: 2
#     Edge 18, Type (0, 0), BuildingBlock: OJICUG_clean_linker_0, # of connection points: 2
#     Edge 19, Type (0, 0), BuildingBlock: OJICUG_clean_linker_0, # of connection points: 2
#     Edge 20, Type (0, 0), BuildingBlock: OJICUG_clean_linker_0, # of connection points: 2
#     Edge 21, Type (0, 0), BuildingBlock: OJICUG_clean_linker_0, # of connection points: 2
#     Edge 22, Type (0, 0), BuildingBlock: OJICUG_clean_linker_0, # of connection points: 2
#     Edge 23, Type (0, 0), BuildingBlock: OJICUG_clean_linker_0, # of connection points: 2
# Relax obj value: 0.113
# Max RMSD: 0.238
# Mean RMSD: 0.238
data_MOF--net-msp--node1-NAWXER_clean_sbu_0--edge1-OJICUG_clean_linker_0
_symmetry_space_group_name_H-M    P1
_symmetry_Int_Tables_number       1
_symmetry_cell_setting            triclinic
loop_
_symmetry_equiv_pos_as_xyz
'x, y, z'
_cell_length_a     16.743578
_cell_length_b     14.028178
_cell_length_c     31.988406
_cell_angle_alpha  89.991693
_cell_angle_beta   101.01351
_cell_angle_gamma 90.020069
loop_
_atom_site_label
_atom_site_type_symbol
_atom_site_fract_x
_atom_site_fract_y
_atom_site_fract_z
_atom_type_partial_charge
C0 C 0.13882 0.19264 0.42538 0.0
C1 C 0.89238 0.257 0.32155 0.0
O2 O 0.13833 0.27632 0.40903 0.0
Zn3 Zn 0.05703 0.36357 0.36351 0.0
O4 O 0.07908 0.13652 0.41359 0.0
Zn5 Zn 0.01757 0.22564 0.37428 0.0
O6 O 0.09406 0.23716 0.32651 0.0
O7 O 0.12296 0.38992 0.32231 0.0
O8 O 0.91287 0.18343 0.34402 0.0
O9 O 0.94021 0.32926 0.32585 0.0
O10 O 0.03886 0.46863 0.39904 0.0
O11 O 0.99533 0.3319 0.42015 0.0
C12 C 0.13048 0.30466 0.3104 0.0
C13 C 0.00902 0.4214 0.42623 0.0
C14 C 0.34997 0.29376 0.69685 0.0
C15 C 0.4876 0.41814 0.58864 0.0
O16 O 0.38997 0.22732 0.68236 0.0
Zn17 Zn 0.47395 0.21934 0.63849 0.0
O18 O 0.3579 0.37912 0.68532 0.0
Zn19 Zn 0.43148 0.3558 0.64764 0.0
O20 O 0.35929 0.26984 0.59732 0.0
O21 O 0.41951 0.12908 0.59756 0.0
O22 O 0.4533 0.46334 0.61471 0.0
O23 O 0.50223 0.32864 0.59452 0.0
O24 O 0.5757 0.17801 0.67166 0.0
O25 O 0.54606 0.32373 0.68877 0.0
C26 C 0.36265 0.18587 0.58176 0.0
C27 C 0.59406 0.25161 0.69437 0.0
C28 C 0.87057 0.70717 0.7055 0.0
C29 C 0.99179 0.59038 0.58959 0.0
O30 O 0.87803 0.62191 0.69357 0.0
Zn31 Zn 0.9439 0.64822 0.65235 0.0
O32 O 0.907 0.77466 0.68937 0.0
Zn33 Zn 0.98342 0.78611 0.64157 0.0
O34 O 0.92195 0.87531 0.60231 0.0
O35 O 0.86259 0.73557 0.60687 0.0
O36 O 0.00553 0.67987 0.59567 0.0
O37 O 0.96196 0.54316 0.61678 0.0
O38 O 0.06078 0.68245 0.68998 0.0
O39 O 0.08815 0.82825 0.67179 0.0
C40 C 0.86215 0.81926 0.59053 0.0
C41 C 0.10864 0.75468 0.69426 0.0
C42 C 0.40638 0.75978 0.32188 0.0
C43 C 0.6379 0.82594 0.43435 0.0
O44 O 0.42472 0.83339 0.34458 0.0
Zn45 Zn 0.52652 0.7922 0.37772 0.0
O46 O 0.45443 0.68771 0.32747 0.0
Zn47 Zn 0.56909 0.6558 0.36858 0.0
O48 O 0.54743 0.54828 0.40157 0.0
O49 O 0.49846 0.68296 0.42176 0.0
O50 O 0.64132 0.74195 0.41883 0.0
O51 O 0.58091 0.8826 0.41858 0.0
O52 O 0.61045 0.78427 0.33381 0.0
O53 O 0.64261 0.63249 0.33087 0.0
C54 C 0.51316 0.59348 0.42766 0.0
C55 C 0.65047 0.71785 0.31932 0.0
C56 C 0.64924 0.79425 0.81883 0.0
C57 C 0.51204 0.91856 0.9272 0.0
O58 O 0.60955 0.72773 0.83349 0.0
Zn59 Zn 0.52601 0.71952 0.87757 0.0
O60 O 0.64122 0.87963 0.83028 0.0
Zn61 Zn 0.56797 0.85625 0.86815 0.0
O62 O 0.64053 0.77111 0.91856 0.0
O63 O 0.58124 0.62983 0.91863 0.0
O64 O 0.54598 0.96383 0.90098 0.0
O65 O 0.49763 0.82898 0.92144 0.0
O66 O 0.42413 0.67761 0.84457 0.0
O67 O 0.45334 0.82342 0.82731 0.0
C68 C 0.6377 0.68728 0.93433 0.0
C69 C 0.40549 0.75113 0.82184 0.0
C70 C 0.87203 0.80496 0.20611 0.0
C71 C 0.99284 0.9215 0.08999 0.0
O72 O 0.90796 0.73737 0.1898 0.0
Zn73 Zn 0.98383 0.72555 0.14179 0.0
O74 O 0.87982 0.89025 0.19429 0.0
Zn75 Zn 0.94521 0.86382 0.15285 0.0
O76 O 0.86323 0.7774 0.10738 0.0
O77 O 0.92123 0.63707 0.10245 0.0
O78 O 0.9636 0.96886 0.11734 0.0
O79 O 0.00613 0.8319 0.09595 0.0
O80 O 0.08863 0.68271 0.17184 0.0
O81 O 0.06198 0.82866 0.19013 0.0
C82 C 0.86189 0.69384 0.09086 0.0
C83 C 0.10955 0.75621 0.1943 0.0
C84 C 0.48868 0.09352 0.08853 0.0
C85 C 0.35179 0.21772 0.19704 0.0
O86 O 0.45477 0.04823 0.11475 0.0
Zn87 Zn 0.43294 0.15577 0.14765 0.0
O88 O 0.50317 0.18308 0.09432 0.0
Zn89 Zn 0.47498 0.29246 0.13827 0.0
O90 O 0.57692 0.33421 0.17125 0.0
O91 O 0.54763 0.18842 0.18848 0.0
O92 O 0.39149 0.28424 0.18239 0.0
O93 O 0.35976 0.13235 0.18555 0.0
O94 O 0.36033 0.2411 0.09733 0.0
O95 O 0.41979 0.38229 0.09728 0.0
C96 C 0.59554 0.26066 0.19396 0.0
C97 C 0.36322 0.32497 0.0816 0.0
C98 C 0.89091 0.25528 0.82195 0.0
C99 C 0.13859 0.31818 0.92528 0.0
O100 O 0.91179 0.32881 0.84439 0.0
Zn101 Zn 0.01665 0.28615 0.87442 0.0
O102 O 0.93854 0.18288 0.82612 0.0
Zn103 Zn 0.05539 0.14794 0.86341 0.0
O104 O 0.03716 0.04294 0.89897 0.0
O105 O 0.99453 0.17987 0.92033 0.0
O106 O 0.13736 0.23458 0.9088 0.0
O107 O 0.07914 0.37481 0.91369 0.0
O108 O 0.09247 0.27434 0.82638 0.0
O109 O 0.12073 0.12147 0.82196 0.0
C110 C 0.00792 0.0903 0.92632 0.0
C111 C 0.12844 0.20675 0.81009 0.0
C112 C 0.97846 0.41055 0.49989 0.0
C113 C 0.0008 0.46587 0.46729 0.0
H114 H 0.95972 0.40559 0.5642 0.0
C115 C 0.02272 0.56171 0.47581 0.0
H116 H 0.96212 0.33619 0.49464 0.0
C117 C 0.02229 0.60124 0.51592 0.0
C118 C 0.99996 0.54591 0.54852 0.0
H119 H 0.04103 0.6062 0.45161 0.0
H120 H 0.03863 0.67559 0.52117 0.0
C121 C 0.97803 0.45007 0.54 0.0
C122 C 0.47631 0.6005 0.50006 0.0
C123 C 0.50235 0.54717 0.46794 0.0
H124 H 0.45321 0.60267 0.56357 0.0
C125 C 0.52641 0.45195 0.47655 0.0
H126 H 0.45833 0.67435 0.49478 0.0
C127 C 0.52456 0.41116 0.51626 0.0
C128 C 0.4985 0.46448 0.54838 0.0
H129 H 0.54765 0.40898 0.45275 0.0
H130 H 0.54253 0.3373 0.52154 0.0
C131 C 0.47446 0.5597 0.53978 0.0
C132 C 0.47457 0.95216 0.03955 0.0
C133 C 0.49903 0.04726 0.04817 0.0
H134 H 0.45754 0.83774 0.99445 0.0
C135 C 0.52484 0.10061 0.01597 0.0
H136 H 0.45349 0.90918 0.0634 0.0
C137 C 0.52605 0.05996 0.97616 0.0
C138 C 0.50161 0.96486 0.96754 0.0
H139 H 0.54309 0.17438 0.02126 0.0
H140 H 0.54715 0.10293 0.95231 0.0
C141 C 0.47578 0.91152 0.99973 0.0
C142 C 0.02199 0.91045 0.01606 0.0
C143 C 0.00059 0.96594 0.04885 0.0
H144 H 0.03942 0.90531 0.95153 0.0
C145 C 0.97902 0.0619 0.04045 0.0
H146 H 0.03803 0.836 0.02122 0.0
C147 C 0.97884 0.10138 1.00026 0.0
C148 C 1.00023 0.04589 0.96747 0.0
H149 H 0.96141 0.10651 0.0648 0.0
H150 H 0.9628 0.17583 0.99511 0.0
C151 C 0.02182 0.94993 0.97588 0.0
C152 C 0.72067 0.34101 0.23427 0.0
C153 C 0.67117 0.25934 0.22684 0.0
H154 H 0.82859 0.40461 0.27 0.0
C155 C 0.69443 0.17722 0.25135 0.0
H156 H 0.7045 0.40569 0.21612 0.0
C157 C 0.76575 0.17669 0.2824 0.0
C158 C 0.81541 0.2583 0.28965 0.0
H159 H 0.65774 0.11311 0.24648 0.0
H160 H 0.78221 0.11199 0.30048 0.0
C161 C 0.79187 0.3405 0.26528 0.0
C162 C 0.71885 0.17126 0.73489 0.0
C163 C 0.66956 0.25303 0.72734 0.0
H164 H 0.8266 0.10758 0.77067 0.0
C165 C 0.69294 0.33524 0.75177 0.0
H166 H 0.70258 0.1065 0.71683 0.0
C167 C 0.76429 0.33578 0.78283 0.0
C168 C 0.81379 0.25408 0.79015 0.0
H169 H 0.65639 0.39942 0.74681 0.0
H170 H 0.78093 0.40054 0.80083 0.0
C171 C 0.79003 0.17178 0.7659 0.0
C172 C 0.23528 0.83498 0.73338 0.0
C173 C 0.18563 0.75337 0.72615 0.0
H174 H 0.34328 0.89861 0.76928 0.0
C175 C 0.20918 0.67118 0.75052 0.0
H176 H 0.21881 0.89967 0.71529 0.0
C177 C 0.28039 0.6707 0.78153 0.0
C178 C 0.32987 0.75239 0.78895 0.0
H179 H 0.17246 0.60707 0.74582 0.0
H180 H 0.29657 0.60604 0.7997 0.0
C181 C 0.30661 0.83448 0.76443 0.0
C182 C 0.28159 0.84011 0.28138 0.0
C183 C 0.33088 0.75833 0.28892 0.0
H184 H 0.17387 0.90383 0.2456 0.0
C185 C 0.30748 0.67613 0.26449 0.0
H186 H 0.29787 0.90487 0.29944 0.0
C187 C 0.23613 0.67562 0.23343 0.0
C188 C 0.18665 0.75733 0.22611 0.0
H189 H 0.34402 0.61195 0.26945 0.0
H190 H 0.21948 0.61086 0.21542 0.0
C191 C 0.21042 0.83962 0.25037 0.0
C192 C 0.28221 0.33509 0.23723 0.0
C193 C 0.29509 0.24028 0.22597 0.0
H194 H 0.21968 0.42992 0.27231 0.0
C195 C 0.25184 0.16705 0.2419 0.0
H196 H 0.31424 0.39322 0.22537 0.0
C197 C 0.19736 0.18808 0.26869 0.0
C198 C 0.18484 0.28281 0.28017 0.0
H199 H 0.2601 0.0932 0.23378 0.0
H200 H 0.16566 0.12986 0.28068 0.0
C201 C 0.22767 0.35613 0.26401 0.0
C202 C 0.24974 0.34433 0.74152 0.0
C203 C 0.29306 0.27113 0.72565 0.0
H204 H 0.16349 0.3815 0.78025 0.0
C205 C 0.28009 0.17631 0.73689 0.0
H206 H 0.25804 0.41819 0.73341 0.0
C207 C 0.22547 0.15524 0.76364 0.0
C208 C 0.18266 0.22855 0.77979 0.0
H209 H 0.31214 0.1182 0.72507 0.0
H210 H 0.21746 0.08145 0.77195 0.0
C211 C 0.1952 0.32328 0.76828 0.0
C212 C 0.71886 0.67683 0.77869 0.0
C213 C 0.70597 0.77166 0.78992 0.0
H214 H 0.78139 0.58196 0.74362 0.0
C215 C 0.74923 0.84486 0.77398 0.0
H216 H 0.68683 0.61872 0.79055 0.0
C217 C 0.80371 0.8238 0.7472 0.0
C218 C 0.81624 0.72906 0.73573 0.0
H219 H 0.74097 0.91873 0.78208 0.0
H220 H 0.83542 0.88201 0.73519 0.0
C221 C 0.77341 0.65576 0.75191 0.0
C222 C 0.77495 0.85643 0.25254 0.0
C223 C 0.81777 0.78313 0.23639 0.0
H224 H 0.68827 0.89344 0.29112 0.0
C225 C 0.80522 0.68839 0.24787 0.0
H226 H 0.78298 0.93023 0.24424 0.0
C227 C 0.75067 0.66732 0.27462 0.0
C228 C 0.70735 0.7405 0.2905 0.0
H229 H 0.83693 0.63018 0.2359 0.0
H230 H 0.74236 0.59345 0.28272 0.0
C231 C 0.72032 0.83533 0.27928 0.0
C232 C 0.24303 0.11087 0.53442 0.0
C233 C 0.31342 0.16709 0.53979 0.0
H234 H 0.13151 0.07316 0.49245 0.0
C235 C 0.33195 0.21812 0.50526 0.0
H236 H 0.2279 0.07164 0.56102 0.0
C237 C 0.27782 0.21907 0.4665 0.0
C238 C 0.20395 0.16928 0.46172 0.0
H239 H 0.38626 0.26182 0.50903 0.0
H240 H 0.2915 0.26365 0.44109 0.0
C241 C 0.18843 0.11156 0.49528 0.0
C242 C 0.7229 0.79344 0.54963 0.0
C243 C 0.79697 0.84275 0.55425 0.0
H244 H 0.61413 0.75103 0.50727 0.0
C245 C 0.81261 0.90001 0.52056 0.0
H246 H 0.70916 0.7492 0.57513 0.0
C247 C 0.75789 0.90067 0.48147 0.0
C248 C 0.68725 0.84492 0.47627 0.0
H249 H 0.8697 0.93801 0.52328 0.0
H250 H 0.77311 0.93948 0.45478 0.0
C251 C 0.66862 0.79439 0.51091 0.0
C252 C 0.72409 0.72468 0.04918 0.0
C253 C 0.79626 0.67144 0.05457 0.0
H254 H 0.61729 0.77016 1.00616 0.0
C255 C 0.80984 0.61058 0.02162 0.0
H256 H 0.71172 0.77162 0.07409 0.0
C257 C 0.75519 0.60985 0.98248 0.0
C258 C 0.68686 0.6695 0.97644 0.0
H259 H 0.86536 0.5693 0.02494 0.0
H260 H 0.76887 0.56773 0.95636 0.0
C261 C 0.67011 0.72397 0.01039 0.0
C262 C 0.33089 0.28906 1.00546 0.0
C263 C 0.31394 0.34294 0.03954 0.0
H264 H 0.28927 0.2417 0.94171 0.0
C265 C 0.2452 0.40194 0.03368 0.0
H266 H 0.384 0.24334 0.00956 0.0
C267 C 0.19043 0.40116 0.99458 0.0
C268 C 0.20425 0.34082 0.96151 0.0
H269 H 0.23135 0.44355 0.05991 0.0
H270 H 0.13464 0.44188 0.99141 0.0
C271 C 0.27675 0.28825 0.96672 0.0
loop_
_geom_bond_atom_site_label_1
_geom_bond_atom_site_label_2
_geom_bond_distance
_geom_bond_site_symmetry_2
_ccdc_geom_bond_type
C0 O2 1.247 . S
C0 O4 1.258 . S
C1 O8 1.247 . S
C1 O9 1.258 . S
O2 C0 1.247 . S
O2 Zn3 2.028 . S
Zn3 O2 2.028 . S
Zn3 O7 2.035 . S
Zn3 O9 2.035 1_455 S
Zn3 O10 2.028 . S
O4 C0 1.258 . S
O4 Zn5 2.035 . S
Zn5 O4 2.035 . S
Zn5 O6 2.028 . S
Zn5 O8 2.028 1_455 S
Zn5 O11 2.035 1_455 S
O6 Zn5 2.028 . S
O6 C12 1.247 . S
O7 Zn3 2.035 . S
O7 C12 1.258 . S
O8 C1 1.247 . S
O8 Zn5 2.028 1_655 S
O9 C1 1.258 . S
O9 Zn3 2.035 1_655 S
O10 Zn3 2.028 . S
O10 C13 1.247 1_455 S
O11 Zn5 2.035 1_655 S
O11 C13 1.258 . S
C12 O6 1.247 . S
C12 O7 1.258 . S
C13 O10 1.247 1_655 S
C13 O11 1.258 . S
C14 O16 1.247 . S
C14 O18 1.258 . S
C15 O22 1.247 . S
C15 O23 1.258 . S
O16 C14 1.247 . S
O16 Zn17 2.028 . S
Zn17 O16 2.028 . S
Zn17 O21 2.035 . S
Zn17 O23 2.035 . S
Zn17 O24 2.028 . S
O18 C14 1.258 . S
O18 Zn19 2.035 . S
Zn19 O18 2.035 . S
Zn19 O20 2.028 . S
Zn19 O22 2.028 . S
Zn19 O25 2.035 . S
O20 Zn19 2.028 . S
O20 C26 1.247 . S
O21 Zn17 2.035 . S
O21 C26 1.258 . S
O22 C15 1.247 . S
O22 Zn19 2.028 . S
O23 C15 1.258 . S
O23 Zn17 2.035 . S
O24 Zn17 2.028 . S
O24 C27 1.247 . S
O25 Zn19 2.035 . S
O25 C27 1.258 . S
C26 O20 1.247 . S
C26 O21 1.258 . S
C27 O24 1.247 . S
C27 O25 1.258 . S
C28 O30 1.247 . S
C28 O32 1.258 . S
C29 O36 1.247 . S
C29 O37 1.258 1_455 S
O30 C28 1.247 . S
O30 Zn31 2.028 . S
Zn31 O30 2.028 . S
Zn31 O35 2.035 . S
Zn31 O37 2.035 . S
Zn31 O38 2.028 1_655 S
O32 C28 1.258 . S
O32 Zn33 2.035 . S
Zn33 O32 2.035 . S
Zn33 O34 2.028 . S
Zn33 O36 2.028 1_655 S
Zn33 O39 2.035 1_655 S
O34 Zn33 2.028 . S
O34 C40 1.247 . S
O35 Zn31 2.035 . S
O35 C40 1.258 . S
O36 C29 1.247 . S
O36 Zn33 2.028 1_455 S
O37 C29 1.258 1_655 S
O37 Zn31 2.035 . S
O38 Zn31 2.028 1_455 S
O38 C41 1.247 . S
O39 Zn33 2.035 1_455 S
O39 C41 1.258 . S
C40 O34 1.247 . S
C40 O35 1.258 . S
C41 O38 1.247 . S
C41 O39 1.258 . S
C42 O44 1.247 . S
C42 O46 1.258 . S
C43 O50 1.247 . S
C43 O51 1.258 . S
O44 C42 1.247 . S
O44 Zn45 2.028 . S
Zn45 O44 2.028 . S
Zn45 O49 2.035 . S
Zn45 O51 2.035 . S
Zn45 O52 2.028 . S
O46 C42 1.258 . S
O46 Zn47 2.035 . S
Zn47 O46 2.035 . S
Zn47 O48 2.028 . S
Zn47 O50 2.028 . S
Zn47 O53 2.035 . S
O48 Zn47 2.028 . S
O48 C54 1.247 . S
O49 Zn45 2.035 . S
O49 C54 1.258 . S
O50 C43 1.247 . S
O50 Zn47 2.028 . S
O51 C43 1.258 . S
O51 Zn45 2.035 . S
O52 Zn45 2.028 . S
O52 C55 1.247 . S
O53 Zn47 2.035 . S
O53 C55 1.258 . S
C54 O48 1.247 . S
C54 O49 1.258 . S
C55 O52 1.247 . S
C55 O53 1.258 . S
C56 O58 1.247 . S
C56 O60 1.258 . S
C57 O64 1.247 . S
C57 O65 1.258 . S
O58 C56 1.247 . S
O58 Zn59 2.028 . S
Zn59 O58 2.028 . S
Zn59 O63 2.035 . S
Zn59 O65 2.035 . S
Zn59 O66 2.028 . S
O60 C56 1.258 . S
O60 Zn61 2.035 . S
Zn61 O60 2.035 . S
Zn61 O62 2.028 . S
Zn61 O64 2.028 . S
Zn61 O67 2.035 . S
O62 Zn61 2.028 . S
O62 C68 1.247 . S
O63 Zn59 2.035 . S
O63 C68 1.258 . S
O64 C57 1.247 . S
O64 Zn61 2.028 . S
O65 C57 1.258 . S
O65 Zn59 2.035 . S
O66 Zn59 2.028 . S
O66 C69 1.247 . S
O67 Zn61 2.035 . S
O67 C69 1.258 . S
C68 O62 1.247 . S
C68 O63 1.258 . S
C69 O66 1.247 . S
C69 O67 1.258 . S
C70 O72 1.247 . S
C70 O74 1.258 . S
C71 O78 1.247 1_455 S
C71 O79 1.258 . S
O72 C70 1.247 . S
O72 Zn73 2.028 . S
Zn73 O72 2.028 . S
Zn73 O77 2.035 . S
Zn73 O79 2.035 1_655 S
Zn73 O80 2.028 1_655 S
O74 C70 1.258 . S
O74 Zn75 2.035 . S
Zn75 O74 2.035 . S
Zn75 O76 2.028 . S
Zn75 O78 2.028 . S
Zn75 O81 2.035 1_655 S
O76 Zn75 2.028 . S
O76 C82 1.247 . S
O77 Zn73 2.035 . S
O77 C82 1.258 . S
O78 C71 1.247 1_655 S
O78 Zn75 2.028 . S
O79 C71 1.258 . S
O79 Zn73 2.035 1_455 S
O80 Zn73 2.028 1_455 S
O80 C83 1.247 . S
O81 Zn75 2.035 1_455 S
O81 C83 1.258 . S
C82 O76 1.247 . S
C82 O77 1.258 . S
C83 O80 1.247 . S
C83 O81 1.258 . S
C84 O86 1.247 . S
C84 O88 1.258 . S
C85 O92 1.247 . S
C85 O93 1.258 . S
O86 C84 1.247 . S
O86 Zn87 2.028 . S
Zn87 O86 2.028 . S
Zn87 O91 2.035 . S
Zn87 O93 2.035 . S
Zn87 O94 2.028 . S
O88 C84 1.258 . S
O88 Zn89 2.035 . S
Zn89 O88 2.035 . S
Zn89 O90 2.028 . S
Zn89 O92 2.028 . S
Zn89 O95 2.035 . S
O90 Zn89 2.028 . S
O90 C96 1.247 . S
O91 Zn87 2.035 . S
O91 C96 1.258 . S
O92 C85 1.247 . S
O92 Zn89 2.028 . S
O93 C85 1.258 . S
O93 Zn87 2.035 . S
O94 Zn87 2.028 . S
O94 C97 1.247 . S
O95 Zn89 2.035 . S
O95 C97 1.258 . S
C96 O90 1.247 . S
C96 O91 1.258 . S
C97 O94 1.247 . S
C97 O95 1.258 . S
C98 O100 1.247 . S
C98 O102 1.258 . S
C99 O106 1.247 . S
C99 O107 1.258 . S
O100 C98 1.247 . S
O100 Zn101 2.028 1_655 S
Zn101 O100 2.028 1_455 S
Zn101 O105 2.035 1_455 S
Zn101 O107 2.035 . S
Zn101 O108 2.028 . S
O102 C98 1.258 . S
O102 Zn103 2.035 1_655 S
Zn103 O102 2.035 1_455 S
Zn103 O104 2.028 . S
Zn103 O106 2.028 . S
Zn103 O109 2.035 . S
O104 Zn103 2.028 . S
O104 C110 1.247 1_455 S
O105 Zn101 2.035 1_655 S
O105 C110 1.258 . S
O106 C99 1.247 . S
O106 Zn103 2.028 . S
O107 C99 1.258 . S
O107 Zn101 2.035 . S
O108 Zn101 2.028 . S
O108 C111 1.247 . S
O109 Zn103 2.035 . S
O109 C111 1.258 . S
C110 O104 1.247 1_655 S
C110 O105 1.258 . S
C111 O108 1.247 . S
C111 O109 1.258 . S
C112 C113 1.387 1_455 S
C112 H116 0.950 . S
C112 C121 1.390 . S
C113 C112 1.387 1_655 S
C113 C115 1.387 . S
H114 C121 0.950 . S
C115 C113 1.387 . S
C115 C117 1.390 . S
C115 H119 0.950 . S
H116 C112 0.950 . S
C117 C115 1.390 . S
C117 C118 1.387 1_655 S
C117 H120 0.950 . S
C118 C117 1.387 1_455 S
C118 C121 1.387 . S
H119 C115 0.950 . S
H120 C117 0.950 . S
C121 C112 1.390 . S
C121 H114 0.950 . S
C121 C118 1.387 . S
C122 C123 1.387 . S
C122 H126 0.950 . S
C122 C131 1.390 . S
C123 C122 1.387 . S
C123 C125 1.387 . S
H124 C131 0.950 . S
C125 C123 1.387 . S
C125 C127 1.390 . S
C125 H129 0.950 . S
H126 C122 0.950 . S
C127 C125 1.390 . S
C127 C128 1.387 . S
C127 H130 0.950 . S
C128 C127 1.387 . S
C128 C131 1.387 . S
H129 C125 0.950 . S
H130 C127 0.950 . S
C131 C122 1.390 . S
C131 H124 0.950 . S
C131 C128 1.387 . S
C132 C133 1.387 1_565 S
C132 H136 0.950 . S
C132 C141 1.390 . S
C133 C132 1.387 1_545 S
C133 C135 1.387 1_554 S
H134 C141 0.950 . S
C135 C133 1.387 1_556 S
C135 C137 1.390 . S
C135 H139 0.950 . S
H136 C132 0.950 . S
C137 C135 1.390 . S
C137 C138 1.387 1_545 S
C137 H140 0.950 . S
C138 C137 1.387 1_565 S
C138 C141 1.387 1_556 S
H139 C135 0.950 . S
H140 C137 0.950 . S
C141 C132 1.390 . S
C141 H134 0.950 . S
C141 C138 1.387 1_554 S
C142 C143 1.387 1_656 S
C142 H146 0.950 . S
C142 C151 1.390 . S
C143 C142 1.387 1_454 S
C143 C145 1.387 1_565 S
H144 C151 0.950 . S
C145 C143 1.387 1_545 S
C145 C147 1.390 . S
C145 H149 0.950 . S
H146 C142 0.950 . S
C147 C145 1.390 . S
C147 C148 1.387 1_454 S
C147 H150 0.950 . S
C148 C147 1.387 1_656 S
C148 C151 1.387 1_545 S
H149 C145 0.950 . S
H150 C147 0.950 . S
C151 C142 1.390 . S
C151 H144 0.950 . S
C151 C148 1.387 1_565 S
C152 C153 1.387 . S
C152 H156 0.950 . S
C152 C161 1.390 . S
C153 C152 1.387 . S
C153 C155 1.387 . S
H154 C161 0.950 . S
C155 C153 1.387 . S
C155 C157 1.390 . S
C155 H159 0.950 . S
H156 C152 0.950 . S
C157 C155 1.390 . S
C157 C158 1.387 . S
C157 H160 0.950 . S
C158 C157 1.387 . S
C158 C161 1.387 . S
H159 C155 0.950 . S
H160 C157 0.950 . S
C161 C152 1.390 . S
C161 H154 0.950 . S
C161 C158 1.387 . S
C162 C163 1.387 . S
C162 H166 0.950 . S
C162 C171 1.390 . S
C163 C162 1.387 . S
C163 C165 1.387 . S
H164 C171 0.950 . S
C165 C163 1.387 . S
C165 C167 1.390 . S
C165 H169 0.950 . S
H166 C162 0.950 . S
C167 C165 1.390 . S
C167 C168 1.387 . S
C167 H170 0.950 . S
C168 C167 1.387 . S
C168 C171 1.387 . S
H169 C165 0.950 . S
H170 C167 0.950 . S
C171 C162 1.390 . S
C171 H164 0.950 . S
C171 C168 1.387 . S
C172 C173 1.387 . S
C172 H176 0.950 . S
C172 C181 1.390 . S
C173 C172 1.387 . S
C173 C175 1.387 . S
H174 C181 0.950 . S
C175 C173 1.387 . S
C175 C177 1.390 . S
C175 H179 0.950 . S
H176 C172 0.950 . S
C177 C175 1.390 . S
C177 C178 1.387 . S
C177 H180 0.950 . S
C178 C177 1.387 . S
C178 C181 1.387 . S
H179 C175 0.950 . S
H180 C177 0.950 . S
C181 C172 1.390 . S
C181 H174 0.950 . S
C181 C178 1.387 . S
C182 C183 1.387 . S
C182 H186 0.950 . S
C182 C191 1.390 . S
C183 C182 1.387 . S
C183 C185 1.387 . S
H184 C191 0.950 . S
C185 C183 1.387 . S
C185 C187 1.390 . S
C185 H189 0.950 . S
H186 C182 0.950 . S
C187 C185 1.390 . S
C187 C188 1.387 . S
C187 H190 0.950 . S
C188 C187 1.387 . S
C188 C191 1.387 . S
H189 C185 0.950 . S
H190 C187 0.950 . S
C191 C182 1.390 . S
C191 H184 0.950 . S
C191 C188 1.387 . S
C192 C193 1.387 . S
C192 H196 0.950 . S
C192 C201 1.390 . S
C193 C192 1.387 . S
C193 C195 1.387 . S
H194 C201 0.950 . S
C195 C193 1.387 . S
C195 C197 1.390 . S
C195 H199 0.950 . S
H196 C192 0.950 . S
C197 C195 1.390 . S
C197 C198 1.387 . S
C197 H200 0.950 . S
C198 C197 1.387 . S
C198 C201 1.387 . S
H199 C195 0.950 . S
H200 C197 0.950 . S
C201 C192 1.390 . S
C201 H194 0.950 . S
C201 C198 1.387 . S
C202 C203 1.387 . S
C202 H206 0.950 . S
C202 C211 1.390 . S
C203 C202 1.387 . S
C203 C205 1.387 . S
H204 C211 0.950 . S
C205 C203 1.387 . S
C205 C207 1.390 . S
C205 H209 0.950 . S
H206 C202 0.950 . S
C207 C205 1.390 . S
C207 C208 1.387 . S
C207 H210 0.950 . S
C208 C207 1.387 . S
C208 C211 1.387 . S
H209 C205 0.950 . S
H210 C207 0.950 . S
C211 C202 1.390 . S
C211 H204 0.950 . S
C211 C208 1.387 . S
C212 C213 1.387 . S
C212 H216 0.950 . S
C212 C221 1.390 . S
C213 C212 1.387 . S
C213 C215 1.387 . S
H214 C221 0.950 . S
C215 C213 1.387 . S
C215 C217 1.390 . S
C215 H219 0.950 . S
H216 C212 0.950 . S
C217 C215 1.390 . S
C217 C218 1.387 . S
C217 H220 0.950 . S
C218 C217 1.387 . S
C218 C221 1.387 . S
H219 C215 0.950 . S
H220 C217 0.950 . S
C221 C212 1.390 . S
C221 H214 0.950 . S
C221 C218 1.387 . S
C222 C223 1.387 . S
C222 H226 0.950 . S
C222 C231 1.390 . S
C223 C222 1.387 . S
C223 C225 1.387 . S
H224 C231 0.950 . S
C225 C223 1.387 . S
C225 C227 1.390 . S
C225 H229 0.950 . S
H226 C222 0.950 . S
C227 C225 1.390 . S
C227 C228 1.387 . S
C227 H230 0.950 . S
C228 C227 1.387 . S
C228 C231 1.387 . S
H229 C225 0.950 . S
H230 C227 0.950 . S
C231 C222 1.390 . S
C231 H224 0.950 . S
C231 C228 1.387 . S
C232 C233 1.387 . S
C232 H236 0.950 . S
C232 C241 1.390 . S
C233 C232 1.387 . S
C233 C235 1.387 . S
H234 C241 0.950 . S
C235 C233 1.387 . S
C235 C237 1.390 . S
C235 H239 0.950 . S
H236 C232 0.950 . S
C237 C235 1.390 . S
C237 C238 1.387 . S
C237 H240 0.950 . S
C238 C237 1.387 . S
C238 C241 1.387 . S
H239 C235 0.950 . S
H240 C237 0.950 . S
C241 C232 1.390 . S
C241 H234 0.950 . S
C241 C238 1.387 . S
C242 C243 1.387 . S
C242 H246 0.950 . S
C242 C251 1.390 . S
C243 C242 1.387 . S
C243 C245 1.387 . S
H244 C251 0.950 . S
C245 C243 1.387 . S
C245 C247 1.390 . S
C245 H249 0.950 . S
H246 C242 0.950 . S
C247 C245 1.390 . S
C247 C248 1.387 . S
C247 H250 0.950 . S
C248 C247 1.387 . S
C248 C251 1.387 . S
H249 C245 0.950 . S
H250 C247 0.950 . S
C251 C242 1.390 . S
C251 H244 0.950 . S
C251 C248 1.387 . S
C252 C253 1.387 . S
C252 H256 0.950 . S
C252 C261 1.390 1_554 S
C253 C252 1.387 . S
C253 C255 1.387 . S
H254 C261 0.950 . S
C255 C253 1.387 . S
C255 C257 1.390 1_554 S
C255 H259 0.950 . S
H256 C252 0.950 . S
C257 C255 1.390 1_556 S
C257 C258 1.387 . S
C257 H260 0.950 . S
C258 C257 1.387 . S
C258 C261 1.387 . S
H259 C255 0.950 . S
H260 C257 0.950 . S
C261 C252 1.390 1_556 S
C261 H254 0.950 . S
C261 C258 1.387 . S
C262 C263 1.387 . S
C262 H266 0.950 . S
C262 C271 1.390 1_554 S
C263 C262 1.387 . S
C263 C265 1.387 . S
H264 C271 0.950 . S
C265 C263 1.387 . S
C265 C267 1.390 1_554 S
C265 H269 0.950 . S
H266 C262 0.950 . S
C267 C265 1.390 1_556 S
C267 C268 1.387 . S
C267 H270 0.950 . S
C268 C267 1.387 . S
C268 C271 1.387 . S
H269 C265 0.950 . S
H270 C267 0.950 . S
C271 C262 1.390 1_556 S
C271 H264 0.950 . S
C271 C268 1.387 . S
C113 C13 1.887 . S
C118 C29 1.891 . S
C123 C54 1.886 . S
C128 C15 1.886 . S
C133 C84 1.887 . S
C138 C57 1.887 . S
C143 C71 1.887 . S
C148 C110 1.887 . S
C153 C96 1.835 . S
C158 C1 1.835 . S
C163 C27 1.836 . S
C168 C98 1.836 . S
C173 C41 1.836 . S
C178 C69 1.834 . S
C183 C42 1.834 . S
C188 C83 1.834 . S
C193 C85 2.039 . S
C198 C12 2.039 . S
C203 C14 2.037 . S
C208 C111 2.037 . S
C213 C56 2.038 . S
C218 C28 2.034 . S
C223 C70 2.038 . S
C228 C55 2.038 . S
C233 C26 0.941 . S
C238 C0 0.941 . S
C243 C40 0.941 . S
C248 C43 0.941 . S
C253 C82 0.946 . S
C258 C68 0.946 . S
C263 C97 0.941 . S
C268 C99 0.941 . S
