# Generated by pormake.
# Topology wgw, (6)-cn, num edge types: 1
# Building blocks:
#     Node 0, Type 0, BuildingBlock: OJICUG_clean_sbu_0, # of connection points: 6
#     Node 1, Type 0, BuildingBlock: OJICUG_clean_sbu_0, # of connection points: 6
#     Node 2, Type 0, BuildingBlock: OJICUG_clean_sbu_0, # of connection points: 6
#     Node 3, Type 0, BuildingBlock: OJICUG_clean_sbu_0, # of connection points: 6
#     Node 4, Type 0, BuildingBlock: OJICUG_clean_sbu_0, # of connection points: 6
#     Node 5, Type 0, BuildingBlock: OJICUG_clean_sbu_0, # of connection points: 6
#     Node 6, Type 0, BuildingBlock: OJICUG_clean_sbu_0, # of connection points: 6
#     Node 7, Type 0, BuildingBlock: OJICUG_clean_sbu_0, # of connection points: 6
#     Edge 8, Type (0, 0), BuildingBlock: XUDNAN_clean_linker_2, # of connection points: 2
#     Edge 9, Type (0, 0), BuildingBlock: XUDNAN_clean_linker_2, # of connection points: 2
#     Edge 10, Type (0, 0), BuildingBlock: XUDNAN_clean_linker_2, # of connection points: 2
#     Edge 11, Type (0, 0), BuildingBlock: XUDNAN_clean_linker_2, # of connection points: 2
#     Edge 12, Type (0, 0), BuildingBlock: XUDNAN_clean_linker_2, # of connection points: 2
#     Edge 13, Type (0, 0), BuildingBlock: XUDNAN_clean_linker_2, # of connection points: 2
#     Edge 14, Type (0, 0), BuildingBlock: XUDNAN_clean_linker_2, # of connection points: 2
#     Edge 15, Type (0, 0), BuildingBlock: XUDNAN_clean_linker_2, # of connection points: 2
#     Edge 16, Type (0, 0), BuildingBlock: XUDNAN_clean_linker_2, # of connection points: 2
#     Edge 17, Type (0, 0), BuildingBlock: XUDNAN_clean_linker_2, # of connection points: 2
#     Edge 18, Type (0, 0), BuildingBlock: XUDNAN_clean_linker_2, # of connection points: 2
#     Edge 19, Type (0, 0), BuildingBlock: XUDNAN_clean_linker_2, # of connection points: 2
#     Edge 20, Type (0, 0), BuildingBlock: XUDNAN_clean_linker_2, # of connection points: 2
#     Edge 21, Type (0, 0), BuildingBlock: XUDNAN_clean_linker_2, # of connection points: 2
#     Edge 22, Type (0, 0), BuildingBlock: XUDNAN_clean_linker_2, # of connection points: 2
#     Edge 23, Type (0, 0), BuildingBlock: XUDNAN_clean_linker_2, # of connection points: 2
#     Edge 24, Type (0, 0), BuildingBlock: XUDNAN_clean_linker_2, # of connection points: 2
#     Edge 25, Type (0, 0), BuildingBlock: XUDNAN_clean_linker_2, # of connection points: 2
#     Edge 26, Type (0, 0), BuildingBlock: XUDNAN_clean_linker_2, # of connection points: 2
#     Edge 27, Type (0, 0), BuildingBlock: XUDNAN_clean_linker_2, # of connection points: 2
#     Edge 28, Type (0, 0), BuildingBlock: XUDNAN_clean_linker_2, # of connection points: 2
#     Edge 29, Type (0, 0), BuildingBlock: XUDNAN_clean_linker_2, # of connection points: 2
#     Edge 30, Type (0, 0), BuildingBlock: XUDNAN_clean_linker_2, # of connection points: 2
#     Edge 31, Type (0, 0), BuildingBlock: XUDNAN_clean_linker_2, # of connection points: 2
# Relax obj value: 0.221
# Max RMSD: 0.288
# Mean RMSD: 0.288
data_MOF--net-wgw--node1-OJICUG_clean_sbu_0--edge1-XUDNAN_clean_linker_2
_symmetry_space_group_name_H-M    P1
_symmetry_Int_Tables_number       1
_symmetry_cell_setting            triclinic
loop_
_symmetry_equiv_pos_as_xyz
'x, y, z'
_cell_length_a     29.033809
_cell_length_b     28.950933
_cell_length_c     43.036348
_cell_angle_alpha  90.213909
_cell_angle_beta   90.059208
_cell_angle_gamma 89.974794
loop_
_atom_site_label
_atom_site_type_symbol
_atom_site_fract_x
_atom_site_fract_y
_atom_site_fract_z
_atom_type_partial_charge
Sc0 Sc 0.08201 0.46208 0.16154 0.0
Sc1 Sc 0.02242 0.43151 0.22934 0.0
Sc2 Sc 0.00518 0.36841 0.15956 0.0
O3 O 0.03677 0.42035 0.18356 0.0
C4 C 0.00921 0.44444 0.10705 0.0
C5 C 0.01981 0.5326 0.19975 0.0
C6 C 0.9234 0.40715 0.20106 0.0
C7 C 0.12774 0.45906 0.22919 0.0
C8 C 0.11055 0.36203 0.13749 0.0
C9 C 0.02544 0.32264 0.22619 0.0
O10 O 0.04287 0.46495 0.1197 0.0
O11 O 0.0114 0.5037 0.2212 0.0
O12 O 0.93757 0.38751 0.17637 0.0
O13 O 0.12779 0.46702 0.20026 0.0
O14 O 0.06998 0.34569 0.14022 0.0
O15 O 0.03018 0.36008 0.2413 0.0
O16 O 0.12136 0.40318 0.1453 0.0
O17 O 0.09266 0.44383 0.24338 0.0
O18 O 0.01592 0.32074 0.19734 0.0
O19 O 0.04461 0.52305 0.17617 0.0
O20 O 0.99035 0.40902 0.1187 0.0
O21 O 0.95037 0.42232 0.22192 0.0
Sc22 Sc 0.15009 0.01538 0.65748 0.0
Sc23 Sc 0.07507 0.03552 0.71994 0.0
Sc24 Sc 0.057 0.09313 0.6493 0.0
O25 O 0.09424 0.04818 0.67554 0.0
C26 C 0.1611 0.1204 0.63534 0.0
C27 C 0.18299 0.0352 0.72753 0.0
C28 C 0.04933 0.14088 0.71678 0.0
C29 C 0.10183 0.9349 0.69521 0.0
C30 C 0.08655 0.01897 0.5974 0.0
C31 C 0.97976 0.03477 0.68249 0.0
O32 O 0.17639 0.07973 0.64006 0.0
O33 O 0.14294 0.04051 0.73858 0.0
O34 O 0.04352 0.14014 0.68748 0.0
O35 O 0.12758 0.94804 0.67303 0.0
O36 O 0.06327 0.05334 0.60696 0.0
O37 O 0.00522 0.02811 0.70605 0.0
O38 O 0.11775 0.00025 0.61371 0.0
O39 O 0.08217 0.96286 0.71368 0.0
O40 O 0.99329 0.05657 0.65849 0.0
O41 O 0.19061 0.02608 0.69905 0.0
O42 O 0.11892 0.13177 0.63883 0.0
O43 O 0.06477 0.10654 0.73167 0.0
Sc44 Sc 0.4551 0.12727 0.16243 0.0
Sc45 Sc 0.4073 0.05489 0.21932 0.0
Sc46 Sc 0.3823 0.03619 0.1402 0.0
O47 O 0.41473 0.07286 0.17396 0.0
C48 C 0.36108 0.14199 0.12476 0.0
C49 C 0.40928 0.16252 0.22645 0.0
C50 C 0.30798 0.02789 0.1951 0.0
C51 C 0.51479 0.07954 0.21414 0.0
C52 C 0.47212 0.06513 0.10231 0.0
C53 C 0.42592 0.95918 0.18329 0.0
O54 O 0.39787 0.15743 0.13739 0.0
O55 O 0.39274 0.12413 0.2353 0.0
O56 O 0.32158 0.0242 0.16723 0.0
O57 O 0.51353 0.09957 0.18782 0.0
O58 O 0.43675 0.04055 0.10679 0.0
O59 O 0.42343 0.98444 0.20756 0.0
O60 O 0.48356 0.09744 0.12068 0.0
O61 O 0.47907 0.06537 0.2282 0.0
O62 O 0.41286 0.97262 0.15648 0.0
O63 O 0.43361 0.1667 0.20213 0.0
O64 O 0.35104 0.09905 0.12325 0.0
O65 O 0.33432 0.04131 0.21686 0.0
Sc66 Sc 0.48118 0.41212 0.65683 0.0
Sc67 Sc 0.46248 0.46645 0.72911 0.0
Sc68 Sc 0.38154 0.4794 0.66921 0.0
O69 O 0.44168 0.45237 0.68501 0.0
C70 C 0.44203 0.48406 0.60757 0.0
C71 C 0.55468 0.47791 0.68953 0.0
C72 C 0.42228 0.56351 0.70702 0.0
C73 C 0.4977 0.36328 0.72238 0.0
C74 C 0.37882 0.37534 0.64456 0.0
C75 C 0.35665 0.45312 0.73954 0.0
O76 O 0.47183 0.45502 0.61663 0.0
O77 O 0.52924 0.48619 0.71294 0.0
O78 O 0.40047 0.54865 0.68337 0.0
O79 O 0.49676 0.36282 0.69286 0.0
O80 O 0.35881 0.41229 0.65347 0.0
O81 O 0.39755 0.44832 0.7493 0.0
O82 O 0.42248 0.37055 0.6441 0.0
O83 O 0.48588 0.3981 0.73834 0.0
O84 O 0.34652 0.46652 0.71233 0.0
O85 O 0.54265 0.45126 0.66735 0.0
O86 O 0.40776 0.49579 0.62403 0.0
O87 O 0.4427 0.5371 0.72599 0.0
Sc88 Sc 0.50727 0.62888 0.33139 0.0
Sc89 Sc 0.52066 0.55582 0.26674 0.0
Sc90 Sc 0.57522 0.52856 0.33748 0.0
O91 O 0.53476 0.57122 0.31186 0.0
C92 C 0.6123 0.63063 0.35357 0.0
C93 C 0.5266 0.66391 0.26183 0.0
C94 C 0.62395 0.52215 0.27063 0.0
C95 C 0.42307 0.58731 0.29405 0.0
C96 C 0.50618 0.56228 0.39018 0.0
C97 C 0.51102 0.4579 0.30073 0.0
O98 O 0.57496 0.65133 0.34626 0.0
O99 O 0.53346 0.62438 0.24991 0.0
O100 O 0.62287 0.51684 0.29992 0.0
O101 O 0.43822 0.6082 0.31808 0.0
O102 O 0.53429 0.53316 0.379 0.0
O103 O 0.50494 0.48569 0.2783 0.0
O104 O 0.49415 0.59827 0.37568 0.0
O105 O 0.44927 0.57068 0.27319 0.0
O106 O 0.53518 0.46805 0.32456 0.0
O107 O 0.51538 0.66951 0.2901 0.0
O108 O 0.61706 0.58675 0.35217 0.0
O109 O 0.59017 0.53785 0.25526 0.0
Sc110 Sc 0.89 0.51902 0.83089 0.0
Sc111 Sc 0.96481 0.5284 0.76738 0.0
Sc112 Sc 0.98711 0.5911 0.83576 0.0
O113 O 0.94723 0.54654 0.81143 0.0
C114 C 0.88432 0.62576 0.84934 0.0
C115 C 0.85897 0.53941 0.76024 0.0
C116 C -0.00043 0.63242 0.76798 0.0
C117 C 0.92849 0.43301 0.79486 0.0
C118 C 0.95351 0.52672 0.89098 0.0
C119 C 0.0582 0.51998 0.80549 0.0
O120 O 0.86519 0.58707 0.84328 0.0
O121 O 0.89877 0.54677 0.74916 0.0
O122 O -0.00192 0.63623 0.79728 0.0
O123 O 0.91201 0.44924 0.82001 0.0
O124 O 0.98155 0.5544 0.87842 0.0
O125 O 0.03132 0.50778 0.78358 0.0
O126 O 0.91883 0.51017 0.87686 0.0
O127 O 0.94311 0.45846 0.77309 0.0
O128 O 0.04868 0.55159 0.82521 0.0
O129 O 0.8521 0.52541 0.78789 0.0
O130 O 0.92777 0.63223 0.84805 0.0
O131 O 0.9899 0.59521 0.7539 0.0
Sc132 Sc 0.8828 0.95844 0.3508 0.0
Sc133 Sc 0.90716 0.935 0.27232 0.0
Sc134 Sc 0.95711 0.86774 0.33109 0.0
O135 O 0.91547 0.92024 0.31808 0.0
C136 C 0.97246 0.93172 0.39005 0.0
C137 C 0.92949 0.03125 0.30633 0.0
C138 C 0.015 0.91189 0.27714 0.0
C139 C 0.80892 0.96565 0.29562 0.0
C140 C 0.86208 0.85369 0.36812 0.0
C141 C 0.90964 0.82739 0.26881 0.0
O142 O 0.93514 0.95339 0.38587 0.0
O143 O 0.92428 0.00555 0.28246 0.0
O144 O 0.01455 0.89406 0.30416 0.0
O145 O 0.8234 0.97214 0.32302 0.0
O146 O 0.90108 0.83932 0.35816 0.0
O147 O 0.89244 0.86489 0.25883 0.0
O148 O 0.84931 0.89599 0.36695 0.0
O149 O 0.8342 0.94875 0.27447 0.0
O150 O 0.93471 0.82519 0.29298 0.0
O151 O 0.91685 0.02006 0.33373 0.0
O152 O 0.98652 0.90124 0.37115 0.0
O153 O 0.97873 0.92417 0.26289 0.0
Sc154 Sc 0.55832 0.90605 0.84416 0.0
Sc155 Sc 0.57546 0.96266 0.77291 0.0
Sc156 Sc 0.6515 0.98295 0.835 0.0
O157 O 0.59521 0.95039 0.81737 0.0
C158 C 0.58873 0.98085 0.89538 0.0
C159 C 0.48108 0.96585 0.81116 0.0
C160 C 0.60543 0.06315 0.79605 0.0
C161 C 0.54767 0.85768 0.77739 0.0
C162 C 0.66251 0.87824 0.85777 0.0
C163 C 0.68292 0.96014 0.76491 0.0
O164 O 0.56514 0.94666 0.88594 0.0
O165 O 0.50641 0.97331 0.78767 0.0
O166 O 0.62947 0.05014 0.81912 0.0
O167 O 0.54446 0.85834 0.80681 0.0
O168 O 0.67785 0.91873 0.85265 0.0
O169 O 0.64281 0.95406 0.75406 0.0
O170 O 0.62019 0.8671 0.85474 0.0
O171 O 0.56141 0.89207 0.76188 0.0
O172 O 0.69074 0.97117 0.7931 0.0
O173 O 0.4945 0.94264 0.83465 0.0
O174 O 0.62008 -0.00089 0.879 0.0
O175 O 0.58585 0.03516 0.77758 0.0
H176 H 0.37906 0.55955 0.24168 0.0
H177 H 0.35562 0.58826 0.33947 0.0
H178 H 0.27685 0.55558 0.33468 0.0
H179 H 0.26447 0.58285 0.21365 0.0
H180 H 0.26698 0.53626 0.18579 0.0
H181 H 0.31897 0.56554 0.19727 0.0
H182 H 0.35465 0.48667 0.21306 0.0
H183 H 0.30232 0.45733 0.20232 0.0
H184 H 0.32516 0.45119 0.24104 0.0
H185 H 0.20136 0.51464 0.31862 0.0
H186 H 0.13502 0.47783 0.29194 0.0
H187 H 0.21338 0.47397 0.20615 0.0
C188 C 0.35731 0.55978 0.26212 0.0
C189 C 0.3735 0.57653 0.29096 0.0
C190 C 0.34373 0.57606 0.31703 0.0
C191 C 0.29917 0.55714 0.31459 0.0
C192 C 0.28526 0.53896 0.28597 0.0
C193 C 0.3135 0.54075 0.26018 0.0
C194 C 0.29188 0.51789 0.23223 0.0
C195 C 0.28516 0.55272 0.20568 0.0
C196 C 0.3202 0.47579 0.22154 0.0
C197 C 0.24659 0.50323 0.24605 0.0
C198 C 0.24318 0.51523 0.27708 0.0
C199 C 0.20377 0.50521 0.29432 0.0
C200 C 0.16645 0.48391 0.27907 0.0
C201 C 0.16902 0.47313 0.24695 0.0
C202 C 0.21018 0.48189 0.23068 0.0
H203 H 0.93115 0.38594 0.74045 0.0
H204 H 0.94644 0.36831 0.83996 0.0
H205 H 0.97779 0.28967 0.831 0.0
H206 H 0.90197 0.26466 0.72118 0.0
H207 H 0.93418 0.26707 0.68543 0.0
H208 H 0.90708 0.31846 0.70049 0.0
H209 H 0.98589 0.36043 0.69891 0.0
H210 H 0.01354 0.30892 0.6847 0.0
H211 H 0.03417 0.33639 0.71969 0.0
H212 H 0.01645 0.21712 0.81021 0.0
H213 H 0.05062 0.15302 0.78016 0.0
H214 H 0.01051 0.22052 0.69428 0.0
C215 C 0.93984 0.36505 0.76045 0.0
C216 C 0.93624 0.38299 0.79091 0.0
C217 C 0.94828 0.35486 0.81647 0.0
C218 C 0.9665 0.3104 0.81156 0.0
C219 C 0.97185 0.29479 0.78102 0.0
C220 C 0.958 0.32102 0.75596 0.0
C221 C 0.96961 0.29791 0.72539 0.0
C222 C 0.92559 0.28632 0.70705 0.0
C223 C 0.00277 0.32769 0.70605 0.0
C224 C 0.99307 0.25478 0.73704 0.0
C225 C 0.99405 0.25349 0.76915 0.0
C226 C 0.0153 0.21754 0.78508 0.0
C227 C 0.03493 0.18143 0.76773 0.0
C228 C 0.03322 0.18155 0.73475 0.0
C229 C 0.01243 0.21918 0.71939 0.0
H230 H 0.26675 0.01824 0.25282 0.0
H231 H 0.24214 0.00022 0.1538 0.0
H232 H 0.16732 0.96477 0.16505 0.0
H233 H 0.21604 0.91257 0.27756 0.0
H234 H 0.18943 0.9362 0.31195 0.0
H235 H 0.24125 0.96188 0.29682 0.0
H236 H 0.20062 0.04148 0.2933 0.0
H237 H 0.14902 0.01617 0.30901 0.0
H238 H 0.14695 0.04618 0.27243 0.0
H239 H 0.09725 0.92925 0.18589 0.0
H240 H 0.0301 0.90261 0.21566 0.0
H241 H 0.09738 0.94302 0.30167 0.0
C242 C 0.24539 0.00737 0.2335 0.0
C243 C 0.26069 0.01189 0.20239 0.0
C244 C 0.23156 0.99707 0.17783 0.0
C245 C 0.18894 0.97667 0.18394 0.0
C246 C 0.1756 0.97149 0.21473 0.0
C247 C 0.20238 0.98699 0.23916 0.0
C248 C 0.17897 0.9776 0.27007 0.0
C249 C 0.20818 0.94513 0.29029 0.0
C250 C 0.16825 0.02307 0.2872 0.0
C251 C 0.13519 0.95401 0.25905 0.0
C252 C 0.13432 0.95084 0.227 0.0
C253 C 0.09741 0.93153 0.211 0.0
C254 C 0.05954 0.91638 0.22811 0.0
C255 C 0.05879 0.9205 0.26091 0.0
C256 C 0.09753 0.93865 0.27667 0.0
H257 H 0.51041 0.27558 0.69967 0.0
H258 H 0.52636 0.35946 0.7829 0.0
H259 H 0.56012 0.29291 0.81028 0.0
H260 H 0.47738 0.17203 0.73926 0.0
H261 H 0.50733 0.13458 0.71253 0.0
H262 H 0.48551 0.18937 0.69945 0.0
H263 H 0.56733 0.21174 0.68048 0.0
H264 H 0.58947 0.15717 0.69382 0.0
H265 H 0.61487 0.21032 0.70745 0.0
H266 H 0.59272 0.21691 0.82859 0.0
H267 H 0.6152 0.13539 0.83735 0.0
H268 H 0.57671 0.10262 0.74225 0.0
C269 C 0.52104 0.28001 0.72363 0.0
C270 C 0.51584 0.32272 0.73908 0.0
C271 C 0.52981 0.32696 0.77057 0.0
C272 C 0.54931 0.28948 0.78631 0.0
C273 C 0.55434 0.24798 0.77029 0.0
C274 C 0.54016 0.24293 0.73977 0.0
C275 C 0.54776 0.19426 0.72818 0.0
C276 C 0.50176 0.17122 0.71935 0.0
C277 C 0.5819 0.19334 0.70087 0.0
C278 C 0.56842 0.1728 0.75694 0.0
C279 C 0.57235 0.20428 0.78095 0.0
C280 C 0.58988 0.19188 0.80995 0.0
C281 C 0.60277 0.14568 0.81467 0.0
C282 C 0.59755 0.11273 0.79054 0.0
C283 C 0.58094 0.12693 0.76124 0.0
H284 H 0.70948 0.50486 0.29446 0.0
H285 H 0.63134 0.50258 0.20838 0.0
H286 H 0.69839 0.46896 0.18112 0.0
H287 H 0.81819 0.53634 0.25955 0.0
H288 H 0.85117 0.50155 0.28614 0.0
H289 H 0.79701 0.52593 0.29825 0.0
H290 H 0.76804 0.444 0.31283 0.0
H291 H 0.82185 0.41928 0.30029 0.0
H292 H 0.76846 0.39884 0.28386 0.0
H293 H 0.77418 0.43308 0.16375 0.0
H294 H 0.85443 0.40565 0.15693 0.0
H295 H 0.88067 0.43211 0.25476 0.0
C296 C 0.70644 0.49753 0.26984 0.0
C297 C 0.66515 0.50619 0.25359 0.0
C298 C 0.66276 0.49643 0.2213 0.0
C299 C 0.70053 0.47705 0.20565 0.0
C300 C 0.74042 0.46803 0.22258 0.0
C301 C 0.74373 0.47859 0.25387 0.0
C302 C 0.79059 0.46658 0.26672 0.0
C303 C 0.81571 0.51018 0.27834 0.0
C304 C 0.78699 0.43 0.29244 0.0
C305 C 0.813 0.44708 0.23788 0.0
C306 C 0.78367 0.44797 0.21262 0.0
C307 C 0.79748 0.43224 0.18338 0.0
C308 C 0.84294 0.41641 0.17977 0.0
C309 C 0.87383 0.41676 0.20527 0.0
C310 C 0.85804 0.43142 0.23473 0.0
H311 H 0.06166 0.89572 0.74555 0.0
H312 H 0.11976 0.86191 0.65533 0.0
H313 H 0.09771 0.77992 0.663 0.0
H314 H 0.09721 0.79372 0.78483 0.0
H315 H 0.04539 0.7907 0.80777 0.0
H316 H 0.0663 0.84578 0.79466 0.0
H317 H 0.98732 0.862 0.76873 0.0
H318 H 0.9662 0.80673 0.78137 0.0
H319 H 0.96457 0.82152 0.74074 0.0
H320 H 0.06667 0.70152 0.68092 0.0
H321 H 0.03529 0.63375 0.70879 0.0
H322 H -0.00108 0.72223 0.78663 0.0
C323 C 0.06999 0.87129 0.72728 0.0
C324 C 0.09234 0.88526 0.69977 0.0
C325 C 0.10279 0.8519 0.67666 0.0
C326 C 0.09017 0.8054 0.68074 0.0
C327 C 0.06735 0.79315 0.70804 0.0
C328 C 0.05778 0.82526 0.73095 0.0
C329 C 0.03342 0.80397 0.7583 0.0
C330 C 0.06232 0.80882 0.78814 0.0
C331 C 0.98502 0.82478 0.76251 0.0
C332 C 0.03099 0.75449 0.74747 0.0
C333 C 0.05026 0.74875 0.71833 0.0
C334 C 0.05162 0.70568 0.70376 0.0
C335 C 0.03355 0.66749 0.71968 0.0
C336 C 0.0149 0.67277 0.74992 0.0
C337 C 0.01325 0.717 0.76365 0.0
H338 H 0.59715 0.04917 0.18922 0.0
H339 H 0.53049 0.08946 0.27538 0.0
H340 H 0.59829 0.06377 0.30496 0.0
H341 H 0.64767 0.94688 0.2183 0.0
H342 H 0.70106 0.95178 0.19722 0.0
H343 H 0.64921 0.97702 0.18174 0.0
H344 H 0.68891 0.057 0.17869 0.0
H345 H 0.74121 0.03185 0.19358 0.0
H346 H 0.71577 0.08091 0.21294 0.0
H347 H 0.66854 0.0289 0.32564 0.0
H348 H 0.74343 0.99356 0.33684 0.0
H349 H 0.76753 0.97498 0.23785 0.0
C350 C 0.59762 0.05372 0.2142 0.0
C351 C 0.55889 0.07154 0.2301 0.0
C352 C 0.55997 0.07595 0.26286 0.0
C353 C 0.5982 0.06135 0.27986 0.0
C354 C 0.63511 0.04233 0.26376 0.0
C355 C 0.63568 0.03892 0.23171 0.0
C356 C 0.67956 0.0155 0.22065 0.0
C357 C 0.6687 0.9701 0.20346 0.0
C358 C 0.70805 0.04828 0.20026 0.0
C359 C 0.70321 0.00638 0.25152 0.0
C360 C 0.67658 0.02198 0.27596 0.0
C361 C 0.69009 0.01698 0.30673 0.0
C362 C 0.73275 0.99668 0.31282 0.0
C363 C 0.76172 0.98173 0.28824 0.0
C364 C 0.74626 0.98599 0.25715 0.0
H365 H 0.44275 0.6062 0.76136 0.0
H366 H 0.42046 0.63274 0.66331 0.0
H367 H 0.44977 0.7125 0.67058 0.0
H368 H 0.41474 0.72203 0.79063 0.0
H369 H 0.45931 0.71926 0.81976 0.0
H370 H 0.43105 0.66716 0.807 0.0
H371 H 0.5107 0.63188 0.79338 0.0
H372 H 0.53915 0.68425 0.80526 0.0
H373 H 0.54795 0.66166 0.76664 0.0
H374 H 0.49009 0.78604 0.688 0.0
H375 H 0.5287 0.85066 0.71503 0.0
H376 H 0.52523 0.77319 0.80125 0.0
C377 C 0.44293 0.62907 0.74149 0.0
C378 C 0.42934 0.61343 0.71176 0.0
C379 C 0.43023 0.64431 0.68635 0.0
C380 C 0.44721 0.68943 0.69023 0.0
C381 C 0.46268 0.70281 0.71965 0.0
C382 C 0.45988 0.67369 0.74491 0.0
C383 C 0.48079 0.695 0.77373 0.0
C384 C 0.44429 0.70125 0.79928 0.0
C385 C 0.52208 0.6665 0.78542 0.0
C386 C 0.49617 0.74078 0.7608 0.0
C387 C 0.4857 0.74468 0.72957 0.0
C388 C 0.49796 0.78354 0.71252 0.0
C389 C 0.52026 0.81987 0.72805 0.0
C390 C 0.52988 0.81706 0.76034 0.0
C391 C 0.5182 0.77659 0.77664 0.0
H392 H 0.77313 0.56536 0.7775 0.0
H393 H 0.85381 0.52267 0.69775 0.0
H394 H 0.78251 0.51574 0.66657 0.0
H395 H 0.68939 0.4886 0.77001 0.0
H396 H 0.64201 0.52502 0.78161 0.0
H397 H 0.6991 0.53775 0.79504 0.0
H398 H 0.69322 0.62004 0.77232 0.0
H399 H 0.63578 0.60794 0.75866 0.0
H400 H 0.6791 0.62781 0.73188 0.0
H401 H 0.70266 0.49622 0.64857 0.0
H402 H 0.62164 0.47084 0.64431 0.0
H403 H 0.59394 0.52961 0.73538 0.0
C404 C 0.7758 0.55612 0.75315 0.0
C405 C 0.8186 0.54442 0.73993 0.0
C406 C 0.82116 0.53216 0.70813 0.0
C407 C 0.78089 0.5282 0.69028 0.0
C408 C 0.73877 0.53782 0.70447 0.0
C409 C 0.73614 0.55263 0.73504 0.0
C410 C 0.68688 0.55549 0.7461 0.0
C411 C 0.67893 0.52487 0.77485 0.0
C412 C 0.67293 0.60583 0.7526 0.0
C413 C 0.6624 0.53672 0.7178 0.0
C414 C 0.69261 0.52751 0.69376 0.0
C415 C 0.67844 0.50456 0.66684 0.0
C416 C 0.63242 0.49001 0.66471 0.0
C417 C 0.60137 0.49824 0.68949 0.0
C418 C 0.61652 0.52318 0.71582 0.0
H419 H 0.97514 0.56875 0.24997 0.0
H420 H 0.01372 0.60021 0.15492 0.0
H421 H 0.9745 0.67584 0.15947 0.0
H422 H 0.86229 0.62791 0.2496 0.0
H423 H 0.86952 0.64781 0.28904 0.0
H424 H 0.89499 0.59393 0.27683 0.0
H425 H 0.97547 0.6224 0.29484 0.0
H426 H 0.95012 0.67571 0.30763 0.0
H427 H -0.00276 0.67653 0.28039 0.0
H428 H 0.93702 0.75068 0.17621 0.0
H429 H 0.91535 0.82094 0.20565 0.0
H430 H 0.90245 0.73951 0.28941 0.0
C431 C 0.97492 0.59114 0.22987 0.0
C432 C -0.00251 0.57846 0.20207 0.0
C433 C -0.00318 0.60922 0.17653 0.0
C434 C 0.97413 0.65199 0.17877 0.0
C435 C 0.95207 0.66324 0.20659 0.0
C436 C 0.95267 0.6337 0.23173 0.0
C437 C 0.931 0.65549 0.26012 0.0
C438 C 0.88683 0.62975 0.26943 0.0
C439 C 0.96552 0.65769 0.28732 0.0
C440 C 0.92014 0.70291 0.24754 0.0
C441 C 0.93113 0.70638 0.21636 0.0
C442 C 0.92757 0.74816 0.20047 0.0
C443 C 0.91487 0.78783 0.21728 0.0
C444 C 0.90696 0.7853 0.24966 0.0
C445 C 0.90766 0.74204 0.26455 0.0
H446 H 0.94486 0.98267 0.72901 0.0
H447 H 0.90751 0.04497 0.64083 0.0
H448 H 0.82701 0.01867 0.64846 0.0
H449 H 0.86336 0.88404 0.72731 0.0
H450 H 0.8529 0.88961 0.76844 0.0
H451 H 0.90838 0.90462 0.75268 0.0
H452 H 0.90196 0.98611 0.77748 0.0
H453 H 0.84667 0.97154 0.79321 0.0
H454 H 0.85259 0.02158 0.76873 0.0
H455 H 0.74932 0.99442 0.66948 0.0
H456 H 0.68172 0.98108 0.70308 0.0
H457 H 0.772 0.93913 0.77817 0.0
C458 C 0.92024 0.99018 0.71079 0.0
C459 C 0.93252 0.01604 0.6843 0.0
C460 C 0.89889 0.02511 0.66129 0.0
C461 C 0.85323 0.01005 0.66536 0.0
C462 C 0.84223 0.9858 0.69238 0.0
C463 C 0.87502 0.976 0.71465 0.0
C464 C 0.85418 0.95541 0.74356 0.0
C465 C 0.87067 0.90544 0.74825 0.0
C466 C 0.86444 0.98547 0.77241 0.0
C467 C 0.80397 0.95703 0.73482 0.0
C468 C 0.79769 0.97331 0.70489 0.0
C469 C 0.7539 0.98097 0.69271 0.0
C470 C 0.71575 0.97324 0.71195 0.0
C471 C 0.72192 0.95914 0.74317 0.0
C472 C 0.76645 0.94969 0.75434 0.0
H473 H 0.46875 0.92471 0.23461 0.0
H474 H 0.43074 0.88876 0.13993 0.0
H475 H 0.4647 0.8111 0.14726 0.0
H476 H 0.57757 0.85867 0.23707 0.0
H477 H 0.56861 0.84261 0.27704 0.0
H478 H 0.54675 0.89689 0.26285 0.0
H479 H 0.46454 0.87489 0.28119 0.0
H480 H 0.48619 0.82098 0.29567 0.0
H481 H 0.43941 0.82129 0.26809 0.0
H482 H 0.49582 0.73493 0.16711 0.0
H483 H 0.51541 0.66635 0.19849 0.0
H484 H 0.53298 0.75402 0.27962 0.0
C485 C 0.46785 0.90085 0.21518 0.0
C486 C 0.44684 0.91284 0.18671 0.0
C487 C 0.44661 0.88038 0.16198 0.0
C488 C 0.46611 0.83632 0.16586 0.0
C489 C 0.4862 0.82564 0.19442 0.0
C490 C 0.4872 0.85714 0.2186 0.0
C491 C 0.50712 0.8364 0.24782 0.0
C492 C 0.55272 0.86005 0.2567 0.0
C493 C 0.47223 0.83849 0.27475 0.0
C494 C 0.51511 0.78747 0.23685 0.0
C495 C 0.50395 0.78205 0.2058 0.0
C496 C 0.50534 0.73893 0.19129 0.0
C497 C 0.51668 0.70018 0.20928 0.0
C498 C 0.52568 0.7049 0.24151 0.0
C499 C 0.5265 0.74936 0.25502 0.0
H500 H 0.32282 0.51592 0.77948 0.0
H501 H 0.30307 0.3771 0.74458 0.0
H502 H 0.22741 0.37333 0.77074 0.0
H503 H 0.25087 0.50306 0.85514 0.0
H504 H 0.22877 0.5608 0.85037 0.0
H505 H 0.28665 0.54715 0.8382 0.0
H506 H 0.26796 0.57789 0.78318 0.0
H507 H 0.2102 0.59101 0.79491 0.0
H508 H 0.22005 0.55366 0.76197 0.0
H509 H 0.14927 0.39134 0.78766 0.0
H510 H 0.07398 0.42923 0.79444 0.0
H511 H 0.14219 0.55747 0.81876 0.0
C512 C 0.30341 0.48396 0.77902 0.0
C513 C 0.31863 0.44625 0.76108 0.0
C514 C 0.29201 0.40565 0.75913 0.0
C515 C 0.24919 0.40329 0.77395 0.0
C516 C 0.23384 0.44192 0.79047 0.0
C517 C 0.26039 0.48143 0.79342 0.0
C518 C 0.23285 0.52099 0.80716 0.0
C519 C 0.25086 0.53373 0.83966 0.0
C520 C 0.23275 0.56332 0.7855 0.0
C521 C 0.18578 0.49879 0.80902 0.0
C522 C 0.18746 0.45276 0.80018 0.0
C523 C 0.14765 0.42681 0.7956 0.0
C524 C 0.10508 0.4487 0.79925 0.0
C525 C 0.10269 0.49604 0.80735 0.0
C526 C 0.1434 0.52091 0.81342 0.0
H527 H 0.96944 0.29586 0.27299 0.0
H528 H 0.08356 0.25099 0.21565 0.0
H529 H 0.07986 0.17342 0.23945 0.0
H530 H 0.99302 0.2195 0.3429 0.0
H531 H 0.93246 0.20834 0.34817 0.0
H532 H 0.95125 0.26305 0.33281 0.0
H533 H 0.89892 0.25101 0.28467 0.0
H534 H 0.88017 0.1964 0.29974 0.0
H535 H 0.90538 0.19936 0.26154 0.0
H536 H 0.05691 0.09976 0.26235 0.0
H537 H 0.01272 0.03214 0.27971 0.0
H538 H 0.90994 0.12204 0.32092 0.0
C539 C 0.99472 0.27002 0.26654 0.0
C540 C 0.02758 0.2791 0.24325 0.0
C541 C 0.05883 0.24441 0.23395 0.0
C542 C 0.05707 0.20054 0.24745 0.0
C543 C 0.02348 0.19206 0.26988 0.0
C544 C 0.99264 0.22571 0.2793 0.0
C545 C 0.95518 0.20558 0.29974 0.0
C546 C 0.95818 0.22529 0.33288 0.0
C547 C 0.9071 0.21355 0.28555 0.0
C548 C 0.96842 0.15497 0.29904 0.0
C549 C 0.00874 0.14835 0.28241 0.0
C550 C 0.02586 0.10453 0.27589 0.0
C551 C 0.00044 0.06641 0.28571 0.0
C552 C 0.95826 0.07228 0.30171 0.0
C553 C 0.94266 0.11697 0.30934 0.0
H554 H 0.44581 0.02044 0.76591 0.0
H555 H 0.40867 0.95206 0.85198 0.0
H556 H 0.32748 0.97575 0.84394 0.0
H557 H 0.35911 0.11554 0.76863 0.0
H558 H 0.35019 0.11154 0.72725 0.0
H559 H 0.40593 0.09866 0.74356 0.0
H560 H 0.40446 0.01834 0.71677 0.0
H561 H 0.34884 0.03069 0.7006 0.0
H562 H 0.3569 0.97982 0.72403 0.0
H563 H 0.24954 -0.00241 0.8225 0.0
H564 H 0.18208 0.01003 0.78854 0.0
H565 H 0.27193 0.05876 0.71524 0.0
C566 C 0.42105 0.01118 0.78362 0.0
C567 C 0.43364 0.98425 0.80961 0.0
C568 C 0.39985 0.97283 0.83197 0.0
C569 C 0.35376 0.98634 0.82764 0.0
C570 C 0.34242 0.01141 0.80101 0.0
C571 C 0.37533 0.02373 0.77945 0.0
C572 C 0.35422 0.04466 0.75066 0.0
C573 C 0.36819 0.09563 0.74735 0.0
C574 C 0.36684 0.01668 0.72132 0.0
C575 C 0.30388 0.04006 0.75855 0.0
C576 C 0.29767 0.02225 0.78808 0.0
C577 C 0.25402 0.0122 0.79959 0.0
C578 C 0.21596 0.01939 0.78014 0.0
C579 C 0.22206 0.03529 0.74931 0.0
C580 C 0.26644 0.04673 0.73875 0.0
H581 H 0.46573 0.42245 0.2505 0.0
H582 H 0.50524 0.38926 0.34516 0.0
H583 H 0.46857 0.31243 0.33931 0.0
H584 H 0.35548 0.35934 0.24848 0.0
H585 H 0.36452 0.3406 0.20896 0.0
H586 H 0.38774 0.39499 0.222 0.0
H587 H 0.46951 0.37033 0.20501 0.0
H588 H 0.44663 0.31645 0.1912 0.0
H589 H 0.49301 0.31667 0.21909 0.0
H590 H 0.43462 0.23617 0.32078 0.0
H591 H 0.41564 0.16638 0.28986 0.0
H592 H 0.39959 0.25104 0.2078 0.0
C593 C 0.46609 0.39956 0.27034 0.0
C594 C 0.4883 0.4121 0.29838 0.0
C595 C 0.48844 0.38051 0.32345 0.0
C596 C 0.46731 0.33697 0.32042 0.0
C597 C 0.44599 0.32574 0.29228 0.0
C598 C 0.44551 0.35625 0.26766 0.0
C599 C 0.42544 0.33454 0.23867 0.0
C600 C 0.3806 0.3588 0.22899 0.0
C601 C 0.46076 0.33447 0.21195 0.0
C602 C 0.41616 0.28634 0.25038 0.0
C603 C 0.42711 0.28202 0.28154 0.0
C604 C 0.42517 0.23939 0.29655 0.0
C605 C 0.41399 0.19997 0.2789 0.0
C606 C 0.40583 0.20362 0.24659 0.0
C607 C 0.40503 0.24755 0.23259 0.0
H608 H 0.20214 0.3604 0.15339 0.0
H609 H 0.1 0.29171 0.09594 0.0
H610 H 0.15793 0.23394 0.08005 0.0
H611 H 0.30495 0.33577 0.10359 0.0
H612 H 0.34122 0.3253 0.13686 0.0
H613 H 0.29421 0.36579 0.13965 0.0
H614 H 0.26203 0.32088 0.18668 0.0
H615 H 0.30844 0.27995 0.18392 0.0
H616 H 0.24964 0.26011 0.1827 0.0
H617 H 0.22286 0.17859 0.07551 0.0
H618 H 0.28975 0.12765 0.0842 0.0
H619 H 0.35033 0.23123 0.1449 0.0
C620 C 0.19247 0.33401 0.13672 0.0
C621 C 0.14678 0.33077 0.12557 0.0
C622 C 0.13489 0.29487 0.10463 0.0
C623 C 0.16762 0.26207 0.09534 0.0
C624 C 0.21211 0.26553 0.10725 0.0
C625 C 0.22466 0.30053 0.12752 0.0
C626 C 0.27314 0.29319 0.13972 0.0
C627 C 0.30528 0.33235 0.12931 0.0
C628 C 0.27328 0.28823 0.17535 0.0
C629 C 0.28529 0.248 0.12378 0.0
C630 C 0.24984 0.23302 0.10482 0.0
C631 C 0.25125 0.1903 0.08981 0.0
C632 C 0.28936 0.16157 0.09492 0.0
C633 C 0.32555 0.17562 0.11491 0.0
C634 C 0.32386 0.21997 0.12882 0.0
H635 H 0.15776 0.21307 0.64872 0.0
H636 H 0.24218 0.10777 0.60478 0.0
H637 H 0.30425 0.16467 0.59735 0.0
H638 H 0.19949 0.31293 0.6015 0.0
H639 H 0.19863 0.35131 0.63457 0.0
H640 H 0.15797 0.3044 0.63206 0.0
H641 H 0.18529 0.27483 0.68576 0.0
H642 H 0.22625 0.32127 0.68833 0.0
H643 H 0.24548 0.2623 0.69174 0.0
H644 H 0.36018 0.2291 0.6004 0.0
H645 H 0.40646 0.29796 0.61299 0.0
H646 H 0.28653 0.36197 0.65543 0.0
C647 C 0.18874 0.20246 0.63665 0.0
C648 C 0.19508 0.15617 0.62709 0.0
C649 C 0.23663 0.14313 0.61222 0.0
C650 C 0.272 0.17522 0.60778 0.0
C651 C 0.2653 0.22021 0.61833 0.0
C652 C 0.22467 0.23402 0.63231 0.0
C653 C 0.22811 0.28325 0.64418 0.0
C654 C 0.19403 0.31484 0.62705 0.0
C655 C 0.22087 0.28551 0.67959 0.0
C656 C 0.27743 0.29433 0.6355 0.0
C657 C 0.29803 0.25766 0.62031 0.0
C658 C 0.34428 0.25839 0.61183 0.0
C659 C 0.37034 0.29759 0.61924 0.0
C660 C 0.35012 0.3355 0.63507 0.0
C661 C 0.30285 0.3339 0.6429 0.0
H662 H 0.76835 0.85692 0.36146 0.0
H663 H 0.87973 0.76882 0.39301 0.0
H664 H 0.82532 0.70379 0.39796 0.0
H665 H 0.67405 0.80307 0.40892 0.0
H666 H 0.63309 0.80886 0.37766 0.0
H667 H 0.67884 0.85047 0.38206 0.0
H668 H 0.70436 0.83459 0.32538 0.0
H669 H 0.65923 0.79256 0.32092 0.0
H670 H 0.71821 0.77638 0.31365 0.0
H671 H 0.76194 0.64608 0.39261 0.0
H672 H 0.69341 0.60007 0.37898 0.0
H673 H 0.62294 0.72509 0.3499 0.0
C674 C 0.78088 0.82448 0.37065 0.0
C675 C 0.82816 0.81812 0.37735 0.0
C676 C 0.84359 0.77458 0.38809 0.0
C677 C 0.81292 0.73744 0.39096 0.0
C678 C 0.76691 0.74432 0.38298 0.0
C679 C 0.75078 0.78685 0.37329 0.0
C680 C 0.70085 0.7838 0.36304 0.0
C681 C 0.66988 0.8133 0.38419 0.0
C682 C 0.69538 0.79764 0.32872 0.0
C683 C 0.69189 0.73269 0.36763 0.0
C684 C 0.73029 0.71069 0.37946 0.0
C685 C 0.7314 0.66304 0.38382 0.0
C686 C 0.69229 0.63715 0.37585 0.0
C687 C 0.65252 0.65884 0.36348 0.0
C688 C 0.65242 0.7074 0.35968 0.0
H689 H 0.66101 0.78601 0.84255 0.0
H690 H 0.74216 0.89063 0.88991 0.0
H691 H 0.80502 0.83446 0.89717 0.0
H692 H 0.70249 0.68446 0.88809 0.0
H693 H 0.70371 0.6478 0.85414 0.0
H694 H 0.66228 0.69402 0.85681 0.0
H695 H 0.69155 0.72584 0.80444 0.0
H696 H 0.73431 0.68098 0.80186 0.0
H697 H 0.75153 0.74067 0.80021 0.0
H698 H 0.86218 0.77121 0.89379 0.0
H699 H 0.90982 0.70311 0.88147 0.0
H700 H 0.79253 0.63856 0.83612 0.0
C701 C 0.69141 0.79653 0.85535 0.0
C702 C 0.69662 0.84247 0.86598 0.0
C703 C 0.73748 0.85552 0.88171 0.0
C704 C 0.77331 0.82385 0.88602 0.0
C705 C 0.76778 0.77925 0.87443 0.0
C706 C 0.72782 0.76536 0.85959 0.0
C707 C 0.73263 0.7167 0.84681 0.0
C708 C 0.69824 0.6838 0.86241 0.0
C709 C 0.72717 0.71605 0.81123 0.0
C710 C 0.78173 0.70587 0.85635 0.0
C711 C 0.80121 0.7424 0.87238 0.0
C712 C 0.84714 0.74203 0.88172 0.0
C713 C 0.87399 0.70331 0.87444 0.0
C714 C 0.85484 0.6654 0.85803 0.0
C715 C 0.80792 0.66665 0.84918 0.0
H716 H 0.94372 0.44742 0.9265 0.0
H717 H 0.97148 0.59459 0.93164 0.0
H718 H 0.97845 0.58968 0.98837 0.0
H719 H 0.88037 0.43802 0.00118 0.0
H720 H 0.90634 0.38348 0.01115 0.0
H721 H 0.89773 0.39846 0.97093 0.0
H722 H 0.98458 0.38565 0.96012 0.0
H723 H 0.99333 0.37038 0.00019 0.0
H724 H 0.02661 0.41631 0.98315 0.0
H725 H 0.98767 0.57007 0.04263 0.0
H726 H 0.00558 0.53493 0.09306 0.0
H727 H 0.97484 0.3991 0.0553 0.0
C728 C 0.95067 0.47848 0.93979 0.0
C729 C 0.95714 0.52138 0.92485 0.0
C730 C 0.96686 0.56135 0.94271 0.0
C731 C 0.9704 0.55904 0.97495 0.0
C732 C 0.96442 0.51641 0.98907 0.0
C733 C 0.95524 0.47665 0.97228 0.0
C734 C 0.95493 0.43476 0.99346 0.0
C735 C 0.90698 0.41236 0.99422 0.0
C736 C 0.99208 0.39972 0.98364 0.0
C737 C 0.96654 0.45732 0.02444 0.0
C738 C 0.97091 0.50459 0.02119 0.0
C739 C 0.98399 0.53317 0.04566 0.0
C740 C 0.99424 0.51286 0.07415 0.0
C741 C 0.99154 0.46441 0.07798 0.0
C742 C 0.97638 0.4363 0.05304 0.0
H743 H 0.01845 0.04493 0.55648 0.0
H744 H 0.1341 0.95084 0.56653 0.0
H745 H 0.1196 0.92054 0.51379 0.0
H746 H 0.94511 0.96662 0.51553 0.0
H747 H 0.92096 0.01041 0.4907 0.0
H748 H 0.94139 0.02559 0.5289 0.0
H749 H 0.99512 0.08738 0.50489 0.0
H750 H 0.97499 0.07222 0.46658 0.0
H751 H 0.03572 0.07059 0.47524 0.0
H752 H 0.09193 0.89979 0.45994 0.0
H753 H 0.0512 0.88811 0.41013 0.0
H754 H 0.9536 0.9955 0.4357 0.0
C755 C 0.0409 0.01806 0.54763 0.0
C756 C 0.07751 0.00041 0.56576 0.0
C757 C 0.1058 0.96501 0.5532 0.0
C758 C 0.09795 0.94762 0.52319 0.0
C759 C 0.06167 0.9659 0.50598 0.0
C760 C 0.03351 0.00021 0.51778 0.0
C761 C -0.00386 0.01313 0.49483 0.0
C762 C 0.94807 0.00333 0.5083 0.0
C763 C 0.0008 0.06384 0.4848 0.0
C764 C 0.00748 0.98048 0.46837 0.0
C765 C 0.04556 0.95372 0.47513 0.0
C766 C 0.06212 0.92062 0.45436 0.0
C767 C 0.03876 0.9143 0.42608 0.0
C768 C -0.00089 0.94083 0.41888 0.0
C769 C 0.98379 0.97464 0.44034 0.0
H770 H 0.52255 0.95278 0.9367 0.0
H771 H 0.63395 0.05148 0.92564 0.0
H772 H 0.61862 0.08188 0.97834 0.0
H773 H 0.44626 0.02805 0.97731 0.0
H774 H 0.42435 0.98342 0.00236 0.0
H775 H 0.44516 0.96885 0.96418 0.0
H776 H 0.50188 0.90978 0.98831 0.0
H777 H 0.48137 0.92434 0.02661 0.0
H778 H 0.5419 0.92865 0.0178 0.0
H779 H 0.58989 0.10232 0.03232 0.0
H780 H 0.54864 0.11255 0.0821 0.0
H781 H 0.45667 7e-05 0.05704 0.0
C782 C 0.54392 0.98071 0.94528 0.0
C783 C 0.57954 -0.00037 0.92692 0.0
C784 C 0.60644 0.03633 0.93918 0.0
C785 C 0.59809 0.05378 0.96914 0.0
C786 C 0.56276 0.03418 0.98658 0.0
C787 C 0.53608 -0.00148 0.97503 0.0
C788 C 0.49955 0.98409 0.99807 0.0
C789 C 0.45096 0.99157 0.98468 0.0
C790 C 0.50662 0.93373 0.0083 0.0
C791 C 0.50959 0.01744 0.02435 0.0
C792 C 0.54628 0.04594 0.01742 0.0
C793 C 0.56119 0.08008 0.03803 0.0
C794 C 0.53756 0.08558 0.06628 0.0
C795 C 0.49935 0.05715 0.07361 0.0
C796 C 0.48577 0.02236 0.05234 0.0
H797 H 0.53579 0.49985 0.43381 0.0
H798 H 0.43646 0.60987 0.41875 0.0
H799 H 0.40987 0.6022 0.47283 0.0
H800 H 0.4639 0.42997 0.48388 0.0
H801 H 0.5112 0.41293 0.50846 0.0
H802 H 0.52133 0.42608 0.46817 0.0
H803 H 0.58249 0.48678 0.48442 0.0
H804 H 0.57224 0.47413 0.52476 0.0
H805 H 0.56668 0.53253 0.51088 0.0
H806 H 0.39507 0.58389 0.52862 0.0
H807 H 0.39147 0.55449 0.58224 0.0
H808 H 0.5012 0.45718 0.56111 0.0
C809 C 0.50812 0.52202 0.44173 0.0
C810 C 0.48822 0.55544 0.42198 0.0
C811 C 0.45235 0.58405 0.43343 0.0
C812 C 0.43697 0.58 0.46412 0.0
C813 C 0.45785 0.54725 0.48308 0.0
C814 C 0.49249 0.51863 0.47235 0.0
C815 C 0.50961 0.4868 0.49768 0.0
C816 C 0.50097 0.43594 0.48903 0.0
C817 C 0.56079 0.49561 0.50485 0.0
C818 C 0.4792 0.5021 0.52433 0.0
C819 C 0.44958 0.53697 0.5154 0.0
C820 C 0.41803 0.55654 0.53592 0.0
C821 C 0.41631 0.5396 0.56634 0.0
C822 C 0.44606 0.50352 0.57596 0.0
C823 C 0.47814 0.48494 0.55461 0.0
loop_
_geom_bond_atom_site_label_1
_geom_bond_atom_site_label_2
_geom_bond_distance
_geom_bond_site_symmetry_2
_ccdc_geom_bond_type
Sc0 O3 2.025 . S
Sc0 O10 2.105 . S
Sc0 O13 2.105 . S
Sc0 O16 2.105 . S
Sc0 O19 2.105 . S
Sc1 O3 2.025 . S
Sc1 O11 2.105 . S
Sc1 O15 2.105 . S
Sc1 O17 2.105 . S
Sc1 O21 2.105 1_455 S
Sc2 O3 2.025 . S
Sc2 O12 2.105 1_455 S
Sc2 O14 2.105 . S
Sc2 O18 2.105 . S
Sc2 O20 2.105 . S
O3 Sc0 2.025 . S
O3 Sc1 2.025 . S
O3 Sc2 2.025 . S
C4 O10 1.268 . S
C4 O20 1.268 . S
C5 O11 1.268 . S
C5 O19 1.268 . S
C6 O12 1.268 . S
C6 O21 1.268 . S
C7 O13 1.268 . S
C7 O17 1.268 . S
C8 O14 1.268 . S
C8 O16 1.268 . S
C9 O15 1.268 . S
C9 O18 1.268 . S
O10 Sc0 2.105 . S
O10 C4 1.268 . S
O11 Sc1 2.105 . S
O11 C5 1.268 . S
O12 Sc2 2.105 1_655 S
O12 C6 1.268 . S
O13 Sc0 2.105 . S
O13 C7 1.268 . S
O14 Sc2 2.105 . S
O14 C8 1.268 . S
O15 Sc1 2.105 . S
O15 C9 1.268 . S
O16 Sc0 2.105 . S
O16 C8 1.268 . S
O17 Sc1 2.105 . S
O17 C7 1.268 . S
O18 Sc2 2.105 . S
O18 C9 1.268 . S
O19 Sc0 2.105 . S
O19 C5 1.268 . S
O20 Sc2 2.105 . S
O20 C4 1.268 . S
O21 Sc1 2.105 1_655 S
O21 C6 1.268 . S
Sc22 O25 2.025 . S
Sc22 O32 2.105 . S
Sc22 O35 2.105 1_545 S
Sc22 O38 2.105 . S
Sc22 O41 2.105 . S
Sc23 O25 2.025 . S
Sc23 O33 2.105 . S
Sc23 O37 2.105 1_455 S
Sc23 O39 2.105 1_545 S
Sc23 O43 2.105 . S
Sc24 O25 2.025 . S
Sc24 O34 2.105 . S
Sc24 O36 2.105 . S
Sc24 O40 2.105 1_455 S
Sc24 O42 2.105 . S
O25 Sc22 2.025 . S
O25 Sc23 2.025 . S
O25 Sc24 2.025 . S
C26 O32 1.268 . S
C26 O42 1.268 . S
C27 O33 1.268 . S
C27 O41 1.268 . S
C28 O34 1.268 . S
C28 O43 1.268 . S
C29 O35 1.268 . S
C29 O39 1.268 . S
C30 O36 1.268 . S
C30 O38 1.268 . S
C31 O37 1.268 . S
C31 O40 1.268 . S
O32 Sc22 2.105 . S
O32 C26 1.268 . S
O33 Sc23 2.105 . S
O33 C27 1.268 . S
O34 Sc24 2.105 . S
O34 C28 1.268 . S
O35 Sc22 2.105 1_565 S
O35 C29 1.268 . S
O36 Sc24 2.105 . S
O36 C30 1.268 . S
O37 Sc23 2.105 1_655 S
O37 C31 1.268 . S
O38 Sc22 2.105 . S
O38 C30 1.268 . S
O39 Sc23 2.105 1_565 S
O39 C29 1.268 . S
O40 Sc24 2.105 1_655 S
O40 C31 1.268 . S
O41 Sc22 2.105 . S
O41 C27 1.268 . S
O42 Sc24 2.105 . S
O42 C26 1.268 . S
O43 Sc23 2.105 . S
O43 C28 1.268 . S
Sc44 O47 2.025 . S
Sc44 O54 2.105 . S
Sc44 O57 2.105 . S
Sc44 O60 2.105 . S
Sc44 O63 2.105 . S
Sc45 O47 2.025 . S
Sc45 O55 2.105 . S
Sc45 O59 2.105 1_545 S
Sc45 O61 2.105 . S
Sc45 O65 2.105 . S
Sc46 O47 2.025 . S
Sc46 O56 2.105 . S
Sc46 O58 2.105 . S
Sc46 O62 2.105 1_545 S
Sc46 O64 2.105 . S
O47 Sc44 2.025 . S
O47 Sc45 2.025 . S
O47 Sc46 2.025 . S
C48 O54 1.268 . S
C48 O64 1.268 . S
C49 O55 1.268 . S
C49 O63 1.268 . S
C50 O56 1.268 . S
C50 O65 1.268 . S
C51 O57 1.268 . S
C51 O61 1.268 . S
C52 O58 1.268 . S
C52 O60 1.268 . S
C53 O59 1.268 . S
C53 O62 1.268 . S
O54 Sc44 2.105 . S
O54 C48 1.268 . S
O55 Sc45 2.105 . S
O55 C49 1.268 . S
O56 Sc46 2.105 . S
O56 C50 1.268 . S
O57 Sc44 2.105 . S
O57 C51 1.268 . S
O58 Sc46 2.105 . S
O58 C52 1.268 . S
O59 Sc45 2.105 1_565 S
O59 C53 1.268 . S
O60 Sc44 2.105 . S
O60 C52 1.268 . S
O61 Sc45 2.105 . S
O61 C51 1.268 . S
O62 Sc46 2.105 1_565 S
O62 C53 1.268 . S
O63 Sc44 2.105 . S
O63 C49 1.268 . S
O64 Sc46 2.105 . S
O64 C48 1.268 . S
O65 Sc45 2.105 . S
O65 C50 1.268 . S
Sc66 O69 2.025 . S
Sc66 O76 2.105 . S
Sc66 O79 2.105 . S
Sc66 O82 2.105 . S
Sc66 O85 2.105 . S
Sc67 O69 2.025 . S
Sc67 O77 2.105 . S
Sc67 O81 2.105 . S
Sc67 O83 2.105 . S
Sc67 O87 2.105 . S
Sc68 O69 2.025 . S
Sc68 O78 2.105 . S
Sc68 O80 2.105 . S
Sc68 O84 2.105 . S
Sc68 O86 2.105 . S
O69 Sc66 2.025 . S
O69 Sc67 2.025 . S
O69 Sc68 2.025 . S
C70 O76 1.268 . S
C70 O86 1.268 . S
C71 O77 1.268 . S
C71 O85 1.268 . S
C72 O78 1.268 . S
C72 O87 1.268 . S
C73 O79 1.268 . S
C73 O83 1.268 . S
C74 O80 1.268 . S
C74 O82 1.268 . S
C75 O81 1.268 . S
C75 O84 1.268 . S
O76 Sc66 2.105 . S
O76 C70 1.268 . S
O77 Sc67 2.105 . S
O77 C71 1.268 . S
O78 Sc68 2.105 . S
O78 C72 1.268 . S
O79 Sc66 2.105 . S
O79 C73 1.268 . S
O80 Sc68 2.105 . S
O80 C74 1.268 . S
O81 Sc67 2.105 . S
O81 C75 1.268 . S
O82 Sc66 2.105 . S
O82 C74 1.268 . S
O83 Sc67 2.105 . S
O83 C73 1.268 . S
O84 Sc68 2.105 . S
O84 C75 1.268 . S
O85 Sc66 2.105 . S
O85 C71 1.268 . S
O86 Sc68 2.105 . S
O86 C70 1.268 . S
O87 Sc67 2.105 . S
O87 C72 1.268 . S
Sc88 O91 2.025 . S
Sc88 O98 2.105 . S
Sc88 O101 2.105 . S
Sc88 O104 2.105 . S
Sc88 O107 2.105 . S
Sc89 O91 2.025 . S
Sc89 O99 2.105 . S
Sc89 O103 2.105 . S
Sc89 O105 2.105 . S
Sc89 O109 2.105 . S
Sc90 O91 2.025 . S
Sc90 O100 2.105 . S
Sc90 O102 2.105 . S
Sc90 O106 2.105 . S
Sc90 O108 2.105 . S
O91 Sc88 2.025 . S
O91 Sc89 2.025 . S
O91 Sc90 2.025 . S
C92 O98 1.268 . S
C92 O108 1.268 . S
C93 O99 1.268 . S
C93 O107 1.268 . S
C94 O100 1.268 . S
C94 O109 1.268 . S
C95 O101 1.268 . S
C95 O105 1.268 . S
C96 O102 1.268 . S
C96 O104 1.268 . S
C97 O103 1.268 . S
C97 O106 1.268 . S
O98 Sc88 2.105 . S
O98 C92 1.268 . S
O99 Sc89 2.105 . S
O99 C93 1.268 . S
O100 Sc90 2.105 . S
O100 C94 1.268 . S
O101 Sc88 2.105 . S
O101 C95 1.268 . S
O102 Sc90 2.105 . S
O102 C96 1.268 . S
O103 Sc89 2.105 . S
O103 C97 1.268 . S
O104 Sc88 2.105 . S
O104 C96 1.268 . S
O105 Sc89 2.105 . S
O105 C95 1.268 . S
O106 Sc90 2.105 . S
O106 C97 1.268 . S
O107 Sc88 2.105 . S
O107 C93 1.268 . S
O108 Sc90 2.105 . S
O108 C92 1.268 . S
O109 Sc89 2.105 . S
O109 C94 1.268 . S
Sc110 O113 2.025 . S
Sc110 O120 2.105 . S
Sc110 O123 2.105 . S
Sc110 O126 2.105 . S
Sc110 O129 2.105 . S
Sc111 O113 2.025 . S
Sc111 O121 2.105 . S
Sc111 O125 2.105 1_655 S
Sc111 O127 2.105 . S
Sc111 O131 2.105 . S
Sc112 O113 2.025 . S
Sc112 O122 2.105 . S
Sc112 O124 2.105 . S
Sc112 O128 2.105 1_655 S
Sc112 O130 2.105 . S
O113 Sc110 2.025 . S
O113 Sc111 2.025 . S
O113 Sc112 2.025 . S
C114 O120 1.268 . S
C114 O130 1.268 . S
C115 O121 1.268 . S
C115 O129 1.268 . S
C116 O122 1.268 . S
C116 O131 1.268 . S
C117 O123 1.268 . S
C117 O127 1.268 . S
C118 O124 1.268 . S
C118 O126 1.268 . S
C119 O125 1.268 . S
C119 O128 1.268 . S
O120 Sc110 2.105 . S
O120 C114 1.268 . S
O121 Sc111 2.105 . S
O121 C115 1.268 . S
O122 Sc112 2.105 . S
O122 C116 1.268 . S
O123 Sc110 2.105 . S
O123 C117 1.268 . S
O124 Sc112 2.105 . S
O124 C118 1.268 . S
O125 Sc111 2.105 1_455 S
O125 C119 1.268 . S
O126 Sc110 2.105 . S
O126 C118 1.268 . S
O127 Sc111 2.105 . S
O127 C117 1.268 . S
O128 Sc112 2.105 1_455 S
O128 C119 1.268 . S
O129 Sc110 2.105 . S
O129 C115 1.268 . S
O130 Sc112 2.105 . S
O130 C114 1.268 . S
O131 Sc111 2.105 . S
O131 C116 1.268 . S
Sc132 O135 2.025 . S
Sc132 O142 2.105 . S
Sc132 O145 2.105 . S
Sc132 O148 2.105 . S
Sc132 O151 2.105 1_565 S
Sc133 O135 2.025 . S
Sc133 O143 2.105 1_565 S
Sc133 O147 2.105 . S
Sc133 O149 2.105 . S
Sc133 O153 2.105 1_655 S
Sc134 O135 2.025 . S
Sc134 O144 2.105 1_655 S
Sc134 O146 2.105 . S
Sc134 O150 2.105 . S
Sc134 O152 2.105 . S
O135 Sc132 2.025 . S
O135 Sc133 2.025 . S
O135 Sc134 2.025 . S
C136 O142 1.268 . S
C136 O152 1.268 . S
C137 O143 1.268 . S
C137 O151 1.268 . S
C138 O144 1.268 . S
C138 O153 1.268 . S
C139 O145 1.268 . S
C139 O149 1.268 . S
C140 O146 1.268 . S
C140 O148 1.268 . S
C141 O147 1.268 . S
C141 O150 1.268 . S
O142 Sc132 2.105 . S
O142 C136 1.268 . S
O143 Sc133 2.105 1_545 S
O143 C137 1.268 . S
O144 Sc134 2.105 1_455 S
O144 C138 1.268 . S
O145 Sc132 2.105 . S
O145 C139 1.268 . S
O146 Sc134 2.105 . S
O146 C140 1.268 . S
O147 Sc133 2.105 . S
O147 C141 1.268 . S
O148 Sc132 2.105 . S
O148 C140 1.268 . S
O149 Sc133 2.105 . S
O149 C139 1.268 . S
O150 Sc134 2.105 . S
O150 C141 1.268 . S
O151 Sc132 2.105 1_545 S
O151 C137 1.268 . S
O152 Sc134 2.105 . S
O152 C136 1.268 . S
O153 Sc133 2.105 1_455 S
O153 C138 1.268 . S
Sc154 O157 2.025 . S
Sc154 O164 2.105 . S
Sc154 O167 2.105 . S
Sc154 O170 2.105 . S
Sc154 O173 2.105 . S
Sc155 O157 2.025 . S
Sc155 O165 2.105 . S
Sc155 O169 2.105 . S
Sc155 O171 2.105 . S
Sc155 O175 2.105 1_565 S
Sc156 O157 2.025 . S
Sc156 O166 2.105 1_565 S
Sc156 O168 2.105 . S
Sc156 O172 2.105 . S
Sc156 O174 2.105 . S
O157 Sc154 2.025 . S
O157 Sc155 2.025 . S
O157 Sc156 2.025 . S
C158 O164 1.268 . S
C158 O174 1.268 . S
C159 O165 1.268 . S
C159 O173 1.268 . S
C160 O166 1.268 . S
C160 O175 1.268 . S
C161 O167 1.268 . S
C161 O171 1.268 . S
C162 O168 1.268 . S
C162 O170 1.268 . S
C163 O169 1.268 . S
C163 O172 1.268 . S
O164 Sc154 2.105 . S
O164 C158 1.268 . S
O165 Sc155 2.105 . S
O165 C159 1.268 . S
O166 Sc156 2.105 1_545 S
O166 C160 1.268 . S
O167 Sc154 2.105 . S
O167 C161 1.268 . S
O168 Sc156 2.105 . S
O168 C162 1.268 . S
O169 Sc155 2.105 . S
O169 C163 1.268 . S
O170 Sc154 2.105 . S
O170 C162 1.268 . S
O171 Sc155 2.105 . S
O171 C161 1.268 . S
O172 Sc156 2.105 . S
O172 C163 1.268 . S
O173 Sc154 2.105 . S
O173 C159 1.268 . S
O174 Sc156 2.105 . S
O174 C158 1.268 . S
O175 Sc155 2.105 1_545 S
O175 C160 1.268 . S
H176 C188 0.930 . S
H177 C190 0.930 . S
H178 C191 0.930 . S
H179 C195 0.959 . S
H180 C195 0.959 . S
H181 C195 0.961 . S
H182 C196 0.960 . S
H183 C196 0.961 . S
H184 C196 0.959 . S
H185 C199 0.929 . S
H186 C200 0.931 . S
H187 C202 0.930 . S
C188 H176 0.930 . S
C188 C189 1.399 . S
C188 C193 1.399 . S
C189 C188 1.399 . S
C189 C190 1.376 . S
C190 H177 0.930 . S
C190 C189 1.376 . S
C190 C191 1.388 . S
C191 H178 0.930 . S
C191 C190 1.388 . S
C191 C192 1.390 . S
C192 C191 1.390 . S
C192 C193 1.394 . S
C192 C198 1.465 . S
C193 C188 1.399 . S
C193 C192 1.394 . S
C193 C194 1.516 . S
C194 C193 1.516 . S
C194 C195 1.502 . S
C194 C196 1.561 . S
C194 C197 1.526 . S
C195 H179 0.959 . S
C195 H180 0.959 . S
C195 H181 0.961 . S
C195 C194 1.502 . S
C196 H182 0.960 . S
C196 H183 0.961 . S
C196 H184 0.959 . S
C196 C194 1.561 . S
C197 C194 1.526 . S
C197 C198 1.396 . S
C197 C202 1.390 . S
C198 C192 1.465 . S
C198 C197 1.396 . S
C198 C199 1.399 . S
C199 H185 0.929 . S
C199 C198 1.399 . S
C199 C200 1.385 . S
C200 H186 0.931 . S
C200 C199 1.385 . S
C200 C201 1.389 . S
C201 C200 1.389 . S
C201 C202 1.387 . S
C202 H187 0.930 . S
C202 C197 1.390 . S
C202 C201 1.387 . S
H203 C215 0.945 . S
H204 C217 0.930 . S
H205 C218 0.930 . S
H206 C222 0.959 . S
H207 C222 0.959 . S
H208 C222 0.961 . S
H209 C223 0.960 . S
H210 C223 0.961 . S
H211 C223 0.959 . S
H212 C226 0.929 . S
H213 C227 0.931 . S
H214 C229 0.930 . S
C215 H203 0.945 . S
C215 C216 1.382 1_455 S
C215 C220 1.401 . S
C216 C215 1.382 1_655 S
C216 C217 1.376 . S
C217 H204 0.930 . S
C217 C216 1.376 . S
C217 C218 1.388 . S
C218 H205 0.930 . S
C218 C217 1.388 . S
C218 C219 1.390 . S
C219 C218 1.390 . S
C219 C220 1.394 1_655 S
C219 C225 1.465 . S
C220 C215 1.401 . S
C220 C219 1.394 1_455 S
C220 C221 1.516 . S
C221 C220 1.516 . S
C221 C222 1.502 . S
C221 C223 1.561 . S
C221 C224 1.526 . S
C222 H206 0.959 . S
C222 H207 0.959 . S
C222 H208 0.961 . S
C222 C221 1.502 . S
C223 H209 0.960 . S
C223 H210 0.961 . S
C223 H211 0.959 . S
C223 C221 1.561 . S
C224 C221 1.526 . S
C224 C225 1.396 1_455 S
C224 C229 1.390 . S
C225 C219 1.465 . S
C225 C224 1.396 1_655 S
C225 C226 1.399 . S
C226 H212 0.929 . S
C226 C225 1.399 . S
C226 C227 1.385 . S
C227 H213 0.931 . S
C227 C226 1.385 . S
C227 C228 1.389 1_655 S
C228 C227 1.389 1_455 S
C228 C229 1.387 . S
C229 H214 0.930 . S
C229 C224 1.390 . S
C229 C228 1.387 . S
H230 C242 0.930 . S
H231 C244 0.930 . S
H232 C245 0.930 . S
H233 C249 0.959 . S
H234 C249 0.959 . S
H235 C249 0.961 . S
H236 C250 0.960 . S
H237 C250 0.961 . S
H238 C250 0.959 . S
H239 C253 0.929 . S
H240 C254 0.931 . S
H241 C256 0.930 . S
C242 H230 0.930 . S
C242 C243 1.399 . S
C242 C247 1.399 . S
C243 C242 1.399 . S
C243 C244 1.376 . S
C244 H231 0.930 . S
C244 C243 1.376 . S
C244 C245 1.388 . S
C245 H232 0.930 . S
C245 C244 1.388 . S
C245 C246 1.390 . S
C246 C245 1.390 . S
C246 C247 1.394 . S
C246 C252 1.465 1_545 S
C247 C242 1.399 . S
C247 C246 1.394 . S
C247 C248 1.516 . S
C248 C247 1.516 . S
C248 C249 1.502 1_545 S
C248 C250 1.561 . S
C248 C251 1.526 1_545 S
C249 H233 0.959 . S
C249 H234 0.959 . S
C249 H235 0.961 . S
C249 C248 1.502 1_565 S
C250 H236 0.960 . S
C250 H237 0.961 . S
C250 H238 0.959 . S
C250 C248 1.561 . S
C251 C248 1.526 1_565 S
C251 C252 1.396 . S
C251 C256 1.390 . S
C252 C246 1.465 1_565 S
C252 C251 1.396 . S
C252 C253 1.399 . S
C253 H239 0.929 . S
C253 C252 1.399 . S
C253 C254 1.385 . S
C254 H240 0.931 . S
C254 C253 1.385 . S
C254 C255 1.389 . S
C255 C254 1.389 . S
C255 C256 1.387 . S
C256 H241 0.930 . S
C256 C251 1.390 . S
C256 C255 1.387 . S
H257 C269 0.930 . S
H258 C271 0.930 . S
H259 C272 0.930 . S
H260 C276 0.959 . S
H261 C276 0.959 . S
H262 C276 0.961 . S
H263 C277 0.960 . S
H264 C277 0.961 . S
H265 C277 0.959 . S
H266 C280 0.929 . S
H267 C281 0.931 . S
H268 C283 0.930 . S
C269 H257 0.930 . S
C269 C270 1.399 . S
C269 C274 1.399 . S
C270 C269 1.399 . S
C270 C271 1.376 . S
C271 H258 0.930 . S
C271 C270 1.376 . S
C271 C272 1.388 . S
C272 H259 0.930 . S
C272 C271 1.388 . S
C272 C273 1.390 . S
C273 C272 1.390 . S
C273 C274 1.394 . S
C273 C279 1.465 . S
C274 C269 1.399 . S
C274 C273 1.394 . S
C274 C275 1.516 . S
C275 C274 1.516 . S
C275 C276 1.502 . S
C275 C277 1.561 . S
C275 C278 1.526 . S
C276 H260 0.959 . S
C276 H261 0.959 . S
C276 H262 0.961 . S
C276 C275 1.502 . S
C277 H263 0.960 . S
C277 H264 0.961 . S
C277 H265 0.959 . S
C277 C275 1.561 . S
C278 C275 1.526 . S
C278 C279 1.396 . S
C278 C283 1.390 . S
C279 C273 1.465 . S
C279 C278 1.396 . S
C279 C280 1.399 . S
C280 H266 0.929 . S
C280 C279 1.399 . S
C280 C281 1.385 . S
C281 H267 0.931 . S
C281 C280 1.385 . S
C281 C282 1.389 . S
C282 C281 1.389 . S
C282 C283 1.387 . S
C283 H268 0.930 . S
C283 C278 1.390 . S
C283 C282 1.387 . S
H284 C296 0.930 . S
H285 C298 0.930 . S
H286 C299 0.930 . S
H287 C303 0.959 . S
H288 C303 0.959 . S
H289 C303 0.961 . S
H290 C304 0.960 . S
H291 C304 0.961 . S
H292 C304 0.959 . S
H293 C307 0.929 . S
H294 C308 0.931 . S
H295 C310 0.930 . S
C296 H284 0.930 . S
C296 C297 1.399 . S
C296 C301 1.399 . S
C297 C296 1.399 . S
C297 C298 1.376 . S
C298 H285 0.930 . S
C298 C297 1.376 . S
C298 C299 1.388 . S
C299 H286 0.930 . S
C299 C298 1.388 . S
C299 C300 1.390 . S
C300 C299 1.390 . S
C300 C301 1.394 . S
C300 C306 1.465 . S
C301 C296 1.399 . S
C301 C300 1.394 . S
C301 C302 1.516 . S
C302 C301 1.516 . S
C302 C303 1.502 . S
C302 C304 1.561 . S
C302 C305 1.526 . S
C303 H287 0.959 . S
C303 H288 0.959 . S
C303 H289 0.961 . S
C303 C302 1.502 . S
C304 H290 0.960 . S
C304 H291 0.961 . S
C304 H292 0.959 . S
C304 C302 1.561 . S
C305 C302 1.526 . S
C305 C306 1.396 . S
C305 C310 1.390 . S
C306 C300 1.465 . S
C306 C305 1.396 . S
C306 C307 1.399 . S
C307 H293 0.929 . S
C307 C306 1.399 . S
C307 C308 1.385 . S
C308 H294 0.931 . S
C308 C307 1.385 . S
C308 C309 1.389 . S
C309 C308 1.389 . S
C309 C310 1.387 . S
C310 H295 0.930 . S
C310 C305 1.390 . S
C310 C309 1.387 . S
H311 C323 0.930 . S
H312 C325 0.930 . S
H313 C326 0.930 . S
H314 C330 0.959 . S
H315 C330 0.959 . S
H316 C330 0.961 . S
H317 C331 0.966 . S
H318 C331 0.961 . S
H319 C331 0.959 . S
H320 C334 0.929 . S
H321 C335 0.931 . S
H322 C337 0.930 . S
C323 H311 0.930 . S
C323 C324 1.399 . S
C323 C328 1.399 . S
C324 C323 1.399 . S
C324 C325 1.376 . S
C325 H312 0.930 . S
C325 C324 1.376 . S
C325 C326 1.388 1_455 S
C326 H313 0.930 . S
C326 C325 1.388 1_655 S
C326 C327 1.390 . S
C327 C326 1.390 . S
C327 C328 1.394 1_655 S
C327 C333 1.465 . S
C328 C323 1.399 . S
C328 C327 1.394 1_455 S
C328 C329 1.516 . S
C329 C328 1.516 . S
C329 C330 1.502 . S
C329 C331 1.561 1_455 S
C329 C332 1.526 1_455 S
C330 H314 0.959 . S
C330 H315 0.959 . S
C330 H316 0.961 . S
C330 C329 1.502 . S
C331 H317 0.966 . S
C331 H318 0.961 . S
C331 H319 0.959 . S
C331 C329 1.561 1_655 S
C332 C329 1.526 1_655 S
C332 C333 1.396 . S
C332 C337 1.390 . S
C333 C327 1.465 . S
C333 C332 1.396 . S
C333 C334 1.399 . S
C334 H320 0.929 . S
C334 C333 1.399 . S
C334 C335 1.385 . S
C335 H321 0.931 . S
C335 C334 1.385 . S
C335 C336 1.389 . S
C336 C335 1.389 . S
C336 C337 1.387 . S
C337 H322 0.930 . S
C337 C332 1.390 . S
C337 C336 1.387 . S
H338 C350 0.930 . S
H339 C352 0.930 . S
H340 C353 0.930 . S
H341 C357 0.959 . S
H342 C357 0.959 . S
H343 C357 0.961 . S
H344 C358 0.960 . S
H345 C358 0.961 1_565 S
H346 C358 0.959 . S
H347 C361 0.929 . S
H348 C362 0.931 . S
H349 C364 0.930 . S
C350 H338 0.930 . S
C350 C351 1.399 . S
C350 C355 1.399 . S
C351 C350 1.399 . S
C351 C352 1.376 . S
C352 H339 0.930 . S
C352 C351 1.376 . S
C352 C353 1.388 . S
C353 H340 0.930 . S
C353 C352 1.388 . S
C353 C354 1.390 . S
C354 C353 1.390 . S
C354 C355 1.394 . S
C354 C360 1.465 . S
C355 C350 1.399 . S
C355 C354 1.394 . S
C355 C356 1.516 1_545 S
C356 C355 1.516 1_565 S
C356 C357 1.502 . S
C356 C358 1.561 1_565 S
C356 C359 1.526 . S
C357 H341 0.959 . S
C357 H342 0.959 . S
C357 H343 0.961 . S
C357 C356 1.502 . S
C358 H344 0.960 . S
C358 H345 0.961 1_545 S
C358 H346 0.959 . S
C358 C356 1.561 1_545 S
C359 C356 1.526 . S
C359 C360 1.396 1_565 S
C359 C364 1.390 . S
C360 C354 1.465 . S
C360 C359 1.396 1_545 S
C360 C361 1.399 . S
C361 H347 0.929 . S
C361 C360 1.399 . S
C361 C362 1.385 1_545 S
C362 H348 0.931 . S
C362 C361 1.385 1_565 S
C362 C363 1.389 . S
C363 C362 1.389 . S
C363 C364 1.387 . S
C364 H349 0.930 . S
C364 C359 1.390 . S
C364 C363 1.387 . S
H365 C377 0.930 . S
H366 C379 0.930 . S
H367 C380 0.930 . S
H368 C384 0.959 . S
H369 C384 0.959 . S
H370 C384 0.961 . S
H371 C385 0.960 . S
H372 C385 0.961 . S
H373 C385 0.959 . S
H374 C388 0.929 . S
H375 C389 0.931 . S
H376 C391 0.930 . S
C377 H365 0.930 . S
C377 C378 1.399 . S
C377 C382 1.399 . S
C378 C377 1.399 . S
C378 C379 1.376 . S
C379 H366 0.930 . S
C379 C378 1.376 . S
C379 C380 1.388 . S
C380 H367 0.930 . S
C380 C379 1.388 . S
C380 C381 1.390 . S
C381 C380 1.390 . S
C381 C382 1.394 . S
C381 C387 1.465 . S
C382 C377 1.399 . S
C382 C381 1.394 . S
C382 C383 1.516 . S
C383 C382 1.516 . S
C383 C384 1.502 . S
C383 C385 1.561 . S
C383 C386 1.526 . S
C384 H368 0.959 . S
C384 H369 0.959 . S
C384 H370 0.961 . S
C384 C383 1.502 . S
C385 H371 0.960 . S
C385 H372 0.961 . S
C385 H373 0.959 . S
C385 C383 1.561 . S
C386 C383 1.526 . S
C386 C387 1.396 . S
C386 C391 1.390 . S
C387 C381 1.465 . S
C387 C386 1.396 . S
C387 C388 1.399 . S
C388 H374 0.929 . S
C388 C387 1.399 . S
C388 C389 1.385 . S
C389 H375 0.931 . S
C389 C388 1.385 . S
C389 C390 1.389 . S
C390 C389 1.389 . S
C390 C391 1.387 . S
C391 H376 0.930 . S
C391 C386 1.390 . S
C391 C390 1.387 . S
H392 C404 0.930 . S
H393 C406 0.930 . S
H394 C407 0.930 . S
H395 C411 0.959 . S
H396 C411 0.959 . S
H397 C411 0.961 . S
H398 C412 0.960 . S
H399 C412 0.961 . S
H400 C412 0.959 . S
H401 C415 0.929 . S
H402 C416 0.931 . S
H403 C418 0.930 . S
C404 H392 0.930 . S
C404 C405 1.399 . S
C404 C409 1.399 . S
C405 C404 1.399 . S
C405 C406 1.376 . S
C406 H393 0.930 . S
C406 C405 1.376 . S
C406 C407 1.388 . S
C407 H394 0.930 . S
C407 C406 1.388 . S
C407 C408 1.390 . S
C408 C407 1.390 . S
C408 C409 1.394 . S
C408 C414 1.465 . S
C409 C404 1.399 . S
C409 C408 1.394 . S
C409 C410 1.516 . S
C410 C409 1.516 . S
C410 C411 1.502 . S
C410 C412 1.561 . S
C410 C413 1.526 . S
C411 H395 0.959 . S
C411 H396 0.959 . S
C411 H397 0.961 . S
C411 C410 1.502 . S
C412 H398 0.960 . S
C412 H399 0.961 . S
C412 H400 0.959 . S
C412 C410 1.561 . S
C413 C410 1.526 . S
C413 C414 1.396 . S
C413 C418 1.390 . S
C414 C408 1.465 . S
C414 C413 1.396 . S
C414 C415 1.399 . S
C415 H401 0.929 . S
C415 C414 1.399 . S
C415 C416 1.385 . S
C416 H402 0.931 . S
C416 C415 1.385 . S
C416 C417 1.389 . S
C417 C416 1.389 . S
C417 C418 1.387 . S
C418 H403 0.930 . S
C418 C413 1.390 . S
C418 C417 1.387 . S
H419 C431 0.930 . S
H420 C433 0.930 . S
H421 C434 0.930 . S
H422 C438 0.959 1_455 S
H423 C438 0.959 . S
H424 C438 0.961 . S
H425 C439 0.960 . S
H426 C439 0.961 . S
H427 C439 0.959 . S
H428 C442 0.929 . S
H429 C443 0.931 . S
H430 C445 0.930 . S
C431 H419 0.930 . S
C431 C432 1.399 . S
C431 C436 1.399 . S
C432 C431 1.399 . S
C432 C433 1.376 . S
C433 H420 0.930 . S
C433 C432 1.376 . S
C433 C434 1.388 . S
C434 H421 0.930 . S
C434 C433 1.388 . S
C434 C435 1.390 . S
C435 C434 1.390 . S
C435 C436 1.394 . S
C435 C441 1.465 . S
C436 C431 1.399 . S
C436 C435 1.394 . S
C436 C437 1.516 1_455 S
C437 C436 1.516 1_655 S
C437 C438 1.502 . S
C437 C439 1.561 . S
C437 C440 1.526 . S
C438 H422 0.959 1_655 S
C438 H423 0.959 . S
C438 H424 0.961 . S
C438 C437 1.502 . S
C439 H425 0.960 . S
C439 H426 0.961 . S
C439 H427 0.959 . S
C439 C437 1.561 . S
C440 C437 1.526 . S
C440 C441 1.396 1_655 S
C440 C445 1.390 . S
C441 C435 1.465 . S
C441 C440 1.396 1_455 S
C441 C442 1.399 . S
C442 H428 0.929 . S
C442 C441 1.399 . S
C442 C443 1.385 1_455 S
C443 H429 0.931 . S
C443 C442 1.385 1_655 S
C443 C444 1.389 . S
C444 C443 1.389 . S
C444 C445 1.387 . S
C445 H430 0.930 . S
C445 C440 1.390 . S
C445 C444 1.387 . S
H446 C458 0.930 . S
H447 C460 0.930 . S
H448 C461 0.930 . S
H449 C465 0.959 . S
H450 C465 0.959 . S
H451 C465 0.961 . S
H452 C466 0.960 . S
H453 C466 0.961 . S
H454 C466 0.959 . S
H455 C469 0.929 . S
H456 C470 0.931 . S
H457 C472 0.930 . S
C458 H446 0.930 . S
C458 C459 1.399 . S
C458 C463 1.399 . S
C459 C458 1.399 . S
C459 C460 1.376 1_545 S
C460 H447 0.930 . S
C460 C459 1.376 1_565 S
C460 C461 1.388 . S
C461 H448 0.930 . S
C461 C460 1.388 . S
C461 C462 1.390 . S
C462 C461 1.390 . S
C462 C463 1.394 1_565 S
C462 C468 1.465 . S
C463 C458 1.399 . S
C463 C462 1.394 1_545 S
C463 C464 1.516 . S
C464 C463 1.516 . S
C464 C465 1.502 . S
C464 C466 1.561 . S
C464 C467 1.526 . S
C465 H449 0.959 . S
C465 H450 0.959 . S
C465 H451 0.961 . S
C465 C464 1.502 . S
C466 H452 0.960 . S
C466 H453 0.961 . S
C466 H454 0.959 . S
C466 C464 1.561 . S
C467 C464 1.526 . S
C467 C468 1.396 1_545 S
C467 C472 1.390 . S
C468 C462 1.465 . S
C468 C467 1.396 1_565 S
C468 C469 1.399 . S
C469 H455 0.929 . S
C469 C468 1.399 . S
C469 C470 1.385 . S
C470 H456 0.931 . S
C470 C469 1.385 . S
C470 C471 1.389 . S
C471 C470 1.389 . S
C471 C472 1.387 1_565 S
C472 H457 0.930 . S
C472 C467 1.390 . S
C472 C471 1.387 1_545 S
H473 C485 0.930 . S
H474 C487 0.930 . S
H475 C488 0.930 . S
H476 C492 0.959 . S
H477 C492 0.959 . S
H478 C492 0.961 . S
H479 C493 0.960 . S
H480 C493 0.961 . S
H481 C493 0.959 . S
H482 C496 0.929 . S
H483 C497 0.931 . S
H484 C499 0.930 . S
C485 H473 0.930 . S
C485 C486 1.399 . S
C485 C490 1.399 . S
C486 C485 1.399 . S
C486 C487 1.376 . S
C487 H474 0.930 . S
C487 C486 1.376 . S
C487 C488 1.388 . S
C488 H475 0.930 . S
C488 C487 1.388 . S
C488 C489 1.390 . S
C489 C488 1.390 . S
C489 C490 1.394 . S
C489 C495 1.465 . S
C490 C485 1.399 . S
C490 C489 1.394 . S
C490 C491 1.516 . S
C491 C490 1.516 . S
C491 C492 1.502 . S
C491 C493 1.561 . S
C491 C494 1.526 . S
C492 H476 0.959 . S
C492 H477 0.959 . S
C492 H478 0.961 . S
C492 C491 1.502 . S
C493 H479 0.960 . S
C493 H480 0.961 . S
C493 H481 0.959 . S
C493 C491 1.561 . S
C494 C491 1.526 . S
C494 C495 1.396 . S
C494 C499 1.390 . S
C495 C489 1.465 . S
C495 C494 1.396 . S
C495 C496 1.399 . S
C496 H482 0.929 . S
C496 C495 1.399 . S
C496 C497 1.385 . S
C497 H483 0.931 . S
C497 C496 1.385 . S
C497 C498 1.389 . S
C498 C497 1.389 . S
C498 C499 1.387 . S
C499 H484 0.930 . S
C499 C494 1.390 . S
C499 C498 1.387 . S
H500 C512 0.930 . S
H501 C514 0.930 . S
H502 C515 0.930 . S
H503 C519 0.959 . S
H504 C519 0.959 . S
H505 C519 0.961 . S
H506 C520 0.960 . S
H507 C520 0.961 . S
H508 C520 0.959 . S
H509 C523 0.929 . S
H510 C524 0.931 . S
H511 C526 0.930 . S
C512 H500 0.930 . S
C512 C513 1.399 . S
C512 C517 1.399 . S
C513 C512 1.399 . S
C513 C514 1.376 . S
C514 H501 0.930 . S
C514 C513 1.376 . S
C514 C515 1.388 . S
C515 H502 0.930 . S
C515 C514 1.388 . S
C515 C516 1.390 . S
C516 C515 1.390 . S
C516 C517 1.394 . S
C516 C522 1.465 . S
C517 C512 1.399 . S
C517 C516 1.394 . S
C517 C518 1.516 . S
C518 C517 1.516 . S
C518 C519 1.502 . S
C518 C520 1.561 . S
C518 C521 1.526 . S
C519 H503 0.959 . S
C519 H504 0.959 . S
C519 H505 0.961 . S
C519 C518 1.502 . S
C520 H506 0.960 . S
C520 H507 0.961 . S
C520 H508 0.959 . S
C520 C518 1.561 . S
C521 C518 1.526 . S
C521 C522 1.396 . S
C521 C526 1.390 . S
C522 C516 1.465 . S
C522 C521 1.396 . S
C522 C523 1.399 . S
C523 H509 0.929 . S
C523 C522 1.399 . S
C523 C524 1.385 . S
C524 H510 0.931 . S
C524 C523 1.385 . S
C524 C525 1.389 . S
C525 C524 1.389 . S
C525 C526 1.387 . S
C526 H511 0.930 . S
C526 C521 1.390 . S
C526 C525 1.387 . S
H527 C539 0.935 . S
H528 C541 0.930 . S
H529 C542 0.930 . S
H530 C546 0.959 . S
H531 C546 0.959 . S
H532 C546 0.961 . S
H533 C547 0.960 . S
H534 C547 0.961 . S
H535 C547 0.959 . S
H536 C550 0.929 . S
H537 C551 0.931 . S
H538 C553 0.930 . S
C539 H527 0.935 . S
C539 C540 1.392 1_655 S
C539 C544 1.401 . S
C540 C539 1.392 1_455 S
C540 C541 1.376 . S
C541 H528 0.930 . S
C541 C540 1.376 . S
C541 C542 1.388 . S
C542 H529 0.930 . S
C542 C541 1.388 . S
C542 C543 1.390 . S
C543 C542 1.390 . S
C543 C544 1.394 1_455 S
C543 C549 1.465 . S
C544 C539 1.401 . S
C544 C543 1.394 1_655 S
C544 C545 1.516 . S
C545 C544 1.516 . S
C545 C546 1.502 . S
C545 C547 1.561 . S
C545 C548 1.526 . S
C546 H530 0.959 . S
C546 H531 0.959 . S
C546 H532 0.961 . S
C546 C545 1.502 . S
C547 H533 0.960 . S
C547 H534 0.961 . S
C547 H535 0.959 . S
C547 C545 1.561 . S
C548 C545 1.526 . S
C548 C549 1.396 1_655 S
C548 C553 1.390 . S
C549 C543 1.465 . S
C549 C548 1.396 1_455 S
C549 C550 1.399 . S
C550 H536 0.929 . S
C550 C549 1.399 . S
C550 C551 1.385 . S
C551 H537 0.931 . S
C551 C550 1.385 . S
C551 C552 1.389 1_455 S
C552 C551 1.389 1_655 S
C552 C553 1.387 . S
C553 H538 0.930 . S
C553 C548 1.390 . S
C553 C552 1.387 . S
H554 C566 0.930 1_545 S
H555 C568 0.930 . S
H556 C569 0.930 . S
H557 C573 0.959 . S
H558 C573 0.959 . S
H559 C573 0.961 . S
H560 C574 0.960 . S
H561 C574 0.961 . S
H562 C574 0.959 . S
H563 C577 0.929 . S
H564 C578 0.931 . S
H565 C580 0.930 . S
C566 H554 0.930 1_565 S
C566 C567 1.399 . S
C566 C571 1.399 1_565 S
C567 C566 1.399 . S
C567 C568 1.376 . S
C568 H555 0.930 . S
C568 C567 1.376 . S
C568 C569 1.388 . S
C569 H556 0.930 . S
C569 C568 1.388 . S
C569 C570 1.390 . S
C570 C569 1.390 . S
C570 C571 1.394 1_565 S
C570 C576 1.465 . S
C571 C566 1.399 1_545 S
C571 C570 1.394 1_545 S
C571 C572 1.516 . S
C572 C571 1.516 . S
C572 C573 1.502 . S
C572 C574 1.561 . S
C572 C575 1.526 . S
C573 H557 0.959 . S
C573 H558 0.959 . S
C573 H559 0.961 . S
C573 C572 1.502 . S
C574 H560 0.960 . S
C574 H561 0.961 . S
C574 H562 0.959 . S
C574 C572 1.561 . S
C575 C572 1.526 . S
C575 C576 1.396 1_545 S
C575 C580 1.390 . S
C576 C570 1.465 . S
C576 C575 1.396 1_565 S
C576 C577 1.399 . S
C577 H563 0.929 . S
C577 C576 1.399 . S
C577 C578 1.386 . S
C578 H564 0.931 . S
C578 C577 1.386 . S
C578 C579 1.388 1_565 S
C579 C578 1.388 1_545 S
C579 C580 1.387 . S
C580 H565 0.930 . S
C580 C575 1.390 . S
C580 C579 1.387 . S
H581 C593 0.930 . S
H582 C595 0.930 . S
H583 C596 0.930 . S
H584 C600 0.959 . S
H585 C600 0.959 . S
H586 C600 0.961 . S
H587 C601 0.960 . S
H588 C601 0.961 . S
H589 C601 0.959 . S
H590 C604 0.929 . S
H591 C605 0.931 . S
H592 C607 0.930 . S
C593 H581 0.930 . S
C593 C594 1.399 . S
C593 C598 1.399 . S
C594 C593 1.399 . S
C594 C595 1.376 . S
C595 H582 0.930 . S
C595 C594 1.376 . S
C595 C596 1.388 . S
C596 H583 0.930 . S
C596 C595 1.388 . S
C596 C597 1.390 . S
C597 C596 1.390 . S
C597 C598 1.394 . S
C597 C603 1.465 . S
C598 C593 1.399 . S
C598 C597 1.394 . S
C598 C599 1.516 . S
C599 C598 1.516 . S
C599 C600 1.502 . S
C599 C601 1.561 . S
C599 C602 1.526 . S
C600 H584 0.959 . S
C600 H585 0.959 . S
C600 H586 0.961 . S
C600 C599 1.502 . S
C601 H587 0.960 . S
C601 H588 0.961 . S
C601 H589 0.959 . S
C601 C599 1.561 . S
C602 C599 1.526 . S
C602 C603 1.396 . S
C602 C607 1.390 . S
C603 C597 1.465 . S
C603 C602 1.396 . S
C603 C604 1.399 . S
C604 H590 0.929 . S
C604 C603 1.399 . S
C604 C605 1.385 . S
C605 H591 0.931 . S
C605 C604 1.385 . S
C605 C606 1.389 . S
C606 C605 1.389 . S
C606 C607 1.387 . S
C607 H592 0.930 . S
C607 C602 1.390 . S
C607 C606 1.387 . S
H608 C620 0.930 . S
H609 C622 0.930 . S
H610 C623 0.930 . S
H611 C627 0.959 . S
H612 C627 0.959 . S
H613 C627 0.961 . S
H614 C628 0.960 . S
H615 C628 0.961 . S
H616 C628 0.959 . S
H617 C631 0.929 . S
H618 C632 0.931 . S
H619 C634 0.930 . S
C620 H608 0.930 . S
C620 C621 1.399 . S
C620 C625 1.399 . S
C621 C620 1.399 . S
C621 C622 1.376 . S
C622 H609 0.930 . S
C622 C621 1.376 . S
C622 C623 1.388 . S
C623 H610 0.930 . S
C623 C622 1.388 . S
C623 C624 1.390 . S
C624 C623 1.390 . S
C624 C625 1.394 . S
C624 C630 1.465 . S
C625 C620 1.399 . S
C625 C624 1.394 . S
C625 C626 1.516 . S
C626 C625 1.516 . S
C626 C627 1.502 . S
C626 C628 1.561 . S
C626 C629 1.526 . S
C627 H611 0.959 . S
C627 H612 0.959 . S
C627 H613 0.961 . S
C627 C626 1.502 . S
C628 H614 0.960 . S
C628 H615 0.961 . S
C628 H616 0.959 . S
C628 C626 1.561 . S
C629 C626 1.526 . S
C629 C630 1.396 . S
C629 C634 1.390 . S
C630 C624 1.465 . S
C630 C629 1.396 . S
C630 C631 1.399 . S
C631 H617 0.929 . S
C631 C630 1.399 . S
C631 C632 1.385 . S
C632 H618 0.931 . S
C632 C631 1.385 . S
C632 C633 1.389 . S
C633 C632 1.389 . S
C633 C634 1.387 . S
C634 H619 0.930 . S
C634 C629 1.390 . S
C634 C633 1.387 . S
H635 C647 0.930 . S
H636 C649 0.930 . S
H637 C650 0.930 . S
H638 C654 0.959 . S
H639 C654 0.959 . S
H640 C654 0.961 . S
H641 C655 0.960 . S
H642 C655 0.961 . S
H643 C655 0.959 . S
H644 C658 0.929 . S
H645 C659 0.931 . S
H646 C661 0.930 . S
C647 H635 0.930 . S
C647 C648 1.399 . S
C647 C652 1.399 . S
C648 C647 1.399 . S
C648 C649 1.376 . S
C649 H636 0.930 . S
C649 C648 1.376 . S
C649 C650 1.388 . S
C650 H637 0.930 . S
C650 C649 1.388 . S
C650 C651 1.390 . S
C651 C650 1.390 . S
C651 C652 1.394 . S
C651 C657 1.465 . S
C652 C647 1.399 . S
C652 C651 1.394 . S
C652 C653 1.516 . S
C653 C652 1.516 . S
C653 C654 1.502 . S
C653 C655 1.561 . S
C653 C656 1.526 . S
C654 H638 0.959 . S
C654 H639 0.959 . S
C654 H640 0.961 . S
C654 C653 1.502 . S
C655 H641 0.960 . S
C655 H642 0.961 . S
C655 H643 0.959 . S
C655 C653 1.561 . S
C656 C653 1.526 . S
C656 C657 1.396 . S
C656 C661 1.390 . S
C657 C651 1.465 . S
C657 C656 1.396 . S
C657 C658 1.399 . S
C658 H644 0.929 . S
C658 C657 1.399 . S
C658 C659 1.385 . S
C659 H645 0.931 . S
C659 C658 1.385 . S
C659 C660 1.389 . S
C660 C659 1.389 . S
C660 C661 1.387 . S
C661 H646 0.930 . S
C661 C656 1.390 . S
C661 C660 1.387 . S
H662 C674 0.930 . S
H663 C676 0.930 . S
H664 C677 0.930 . S
H665 C681 0.959 . S
H666 C681 0.959 . S
H667 C681 0.961 . S
H668 C682 0.960 . S
H669 C682 0.961 . S
H670 C682 0.959 . S
H671 C685 0.929 . S
H672 C686 0.931 . S
H673 C688 0.930 . S
C674 H662 0.930 . S
C674 C675 1.399 . S
C674 C679 1.399 . S
C675 C674 1.399 . S
C675 C676 1.376 . S
C676 H663 0.930 . S
C676 C675 1.376 . S
C676 C677 1.388 . S
C677 H664 0.930 . S
C677 C676 1.388 . S
C677 C678 1.390 . S
C678 C677 1.390 . S
C678 C679 1.394 . S
C678 C684 1.465 . S
C679 C674 1.399 . S
C679 C678 1.394 . S
C679 C680 1.516 . S
C680 C679 1.516 . S
C680 C681 1.502 . S
C680 C682 1.561 . S
C680 C683 1.526 . S
C681 H665 0.959 . S
C681 H666 0.959 . S
C681 H667 0.961 . S
C681 C680 1.502 . S
C682 H668 0.960 . S
C682 H669 0.961 . S
C682 H670 0.959 . S
C682 C680 1.561 . S
C683 C680 1.526 . S
C683 C684 1.396 . S
C683 C688 1.390 . S
C684 C678 1.465 . S
C684 C683 1.396 . S
C684 C685 1.399 . S
C685 H671 0.929 . S
C685 C684 1.399 . S
C685 C686 1.385 . S
C686 H672 0.931 . S
C686 C685 1.385 . S
C686 C687 1.389 . S
C687 C686 1.389 . S
C687 C688 1.387 . S
C688 H673 0.930 . S
C688 C683 1.390 . S
C688 C687 1.387 . S
H689 C701 0.930 . S
H690 C703 0.930 . S
H691 C704 0.930 . S
H692 C708 0.959 . S
H693 C708 0.959 . S
H694 C708 0.961 . S
H695 C709 0.960 . S
H696 C709 0.961 . S
H697 C709 0.959 . S
H698 C712 0.929 . S
H699 C713 0.931 . S
H700 C715 0.930 . S
C701 H689 0.930 . S
C701 C702 1.399 . S
C701 C706 1.399 . S
C702 C701 1.399 . S
C702 C703 1.376 . S
C703 H690 0.930 . S
C703 C702 1.376 . S
C703 C704 1.388 . S
C704 H691 0.930 . S
C704 C703 1.388 . S
C704 C705 1.390 . S
C705 C704 1.390 . S
C705 C706 1.394 . S
C705 C711 1.465 . S
C706 C701 1.399 . S
C706 C705 1.394 . S
C706 C707 1.516 . S
C707 C706 1.516 . S
C707 C708 1.502 . S
C707 C709 1.561 . S
C707 C710 1.526 . S
C708 H692 0.959 . S
C708 H693 0.959 . S
C708 H694 0.961 . S
C708 C707 1.502 . S
C709 H695 0.960 . S
C709 H696 0.961 . S
C709 H697 0.959 . S
C709 C707 1.561 . S
C710 C707 1.526 . S
C710 C711 1.396 . S
C710 C715 1.390 . S
C711 C705 1.465 . S
C711 C710 1.396 . S
C711 C712 1.399 . S
C712 H698 0.929 . S
C712 C711 1.399 . S
C712 C713 1.385 . S
C713 H699 0.931 . S
C713 C712 1.385 . S
C713 C714 1.389 . S
C714 C713 1.389 . S
C714 C715 1.387 . S
C715 H700 0.930 . S
C715 C710 1.390 . S
C715 C714 1.387 . S
H716 C728 0.930 . S
H717 C730 0.930 . S
H718 C731 0.930 . S
H719 C735 0.958 . S
H720 C735 0.956 . S
H721 C735 0.964 1_556 S
H722 C736 0.960 . S
H723 C736 0.961 1_554 S
H724 C736 0.959 . S
H725 C739 0.929 . S
H726 C740 0.931 . S
H727 C742 0.930 1_655 S
C728 H716 0.930 . S
C728 C729 1.399 . S
C728 C733 1.399 . S
C729 C728 1.399 . S
C729 C730 1.376 1_655 S
C730 H717 0.930 . S
C730 C729 1.376 1_455 S
C730 C731 1.388 . S
C731 H718 0.930 . S
C731 C730 1.388 . S
C731 C732 1.390 . S
C732 C731 1.390 . S
C732 C733 1.394 1_455 S
C732 C738 1.465 1_556 S
C733 C728 1.399 . S
C733 C732 1.394 1_655 S
C733 C734 1.516 . S
C734 C733 1.516 . S
C734 C735 1.502 1_556 S
C734 C736 1.561 1_655 S
C734 C737 1.523 1_656 S
C735 H719 0.958 . S
C735 H720 0.956 . S
C735 H721 0.964 1_554 S
C735 C734 1.502 1_554 S
C736 H722 0.960 . S
C736 H723 0.961 1_556 S
C736 H724 0.959 . S
C736 C734 1.561 1_455 S
C737 C734 1.523 1_454 S
C737 C738 1.399 . S
C737 C742 1.390 . S
C738 C732 1.465 1_554 S
C738 C737 1.399 . S
C738 C739 1.399 . S
C739 H725 0.929 . S
C739 C738 1.399 . S
C739 C740 1.385 . S
C740 H726 0.931 . S
C740 C739 1.385 . S
C740 C741 1.389 . S
C741 C740 1.389 . S
C741 C742 1.387 . S
C742 H727 0.930 1_455 S
C742 C737 1.390 . S
C742 C741 1.387 . S
H743 C755 0.926 1_655 S
H744 C757 0.930 . S
H745 C758 0.930 . S
H746 C762 0.959 . S
H747 C762 0.959 . S
H748 C762 0.961 . S
H749 C763 0.960 . S
H750 C763 0.961 . S
H751 C763 0.959 . S
H752 C766 0.929 . S
H753 C767 0.930 1_455 S
H754 C769 0.930 . S
C755 H743 0.926 1_455 S
C755 C756 1.399 . S
C755 C760 1.399 . S
C756 C755 1.399 . S
C756 C757 1.376 1_545 S
C757 H744 0.930 . S
C757 C756 1.376 1_565 S
C757 C758 1.388 . S
C758 H745 0.930 . S
C758 C757 1.388 . S
C758 C759 1.390 . S
C759 C758 1.390 . S
C759 C760 1.394 1_565 S
C759 C765 1.465 . S
C760 C755 1.399 . S
C760 C759 1.394 1_545 S
C760 C761 1.516 1_455 S
C761 C760 1.516 1_655 S
C761 C762 1.502 . S
C761 C763 1.561 1_655 S
C761 C764 1.526 . S
C762 H746 0.959 . S
C762 H747 0.959 . S
C762 H748 0.961 . S
C762 C761 1.502 . S
C763 H749 0.960 . S
C763 H750 0.961 . S
C763 H751 0.959 . S
C763 C761 1.561 1_455 S
C764 C761 1.526 . S
C764 C765 1.396 1_645 S
C764 C769 1.390 . S
C765 C759 1.465 . S
C765 C764 1.396 1_465 S
C765 C766 1.399 . S
C766 H752 0.929 . S
C766 C765 1.399 . S
C766 C767 1.385 1_455 S
C767 H753 0.930 1_655 S
C767 C766 1.385 1_655 S
C767 C768 1.389 . S
C768 C767 1.389 . S
C768 C769 1.387 1_565 S
C769 H754 0.930 . S
C769 C764 1.390 . S
C769 C768 1.387 1_545 S
H770 C782 0.930 . S
H771 C784 0.930 . S
H772 C785 0.930 . S
H773 C789 0.959 . S
H774 C789 0.959 . S
H775 C789 0.961 1_556 S
H776 C790 0.960 1_556 S
H777 C790 0.961 . S
H778 C790 0.959 . S
H779 C793 0.929 . S
H780 C794 0.931 . S
H781 C796 0.930 . S
C782 H770 0.930 . S
C782 C783 1.399 . S
C782 C787 1.399 . S
C783 C782 1.399 . S
C783 C784 1.376 1_565 S
C784 H771 0.930 . S
C784 C783 1.376 1_545 S
C784 C785 1.388 . S
C785 H772 0.930 . S
C785 C784 1.388 . S
C785 C786 1.390 . S
C786 C785 1.390 . S
C786 C787 1.394 1_545 S
C786 C792 1.465 1_556 S
C787 C782 1.399 . S
C787 C786 1.394 1_565 S
C787 C788 1.516 1_556 S
C788 C787 1.516 1_554 S
C788 C789 1.502 . S
C788 C790 1.561 . S
C788 C791 1.526 . S
C789 H773 0.959 . S
C789 H774 0.959 . S
C789 H775 0.961 1_554 S
C789 C788 1.502 . S
C790 H776 0.960 1_554 S
C790 H777 0.961 . S
C790 H778 0.959 . S
C790 C788 1.561 . S
C791 C788 1.526 . S
C791 C792 1.396 1_565 S
C791 C796 1.390 . S
C792 C786 1.465 1_554 S
C792 C791 1.396 1_545 S
C792 C793 1.399 . S
C793 H779 0.929 . S
C793 C792 1.399 . S
C793 C794 1.385 . S
C794 H780 0.931 . S
C794 C793 1.385 . S
C794 C795 1.389 . S
C795 C794 1.389 . S
C795 C796 1.387 1_545 S
C796 H781 0.930 . S
C796 C791 1.390 . S
C796 C795 1.387 1_565 S
H797 C809 0.930 . S
H798 C811 0.930 . S
H799 C812 0.930 . S
H800 C816 0.959 . S
H801 C816 0.959 . S
H802 C816 0.961 . S
H803 C817 0.960 . S
H804 C817 0.961 . S
H805 C817 0.959 . S
H806 C820 0.929 . S
H807 C821 0.931 . S
H808 C823 0.930 . S
C809 H797 0.930 . S
C809 C810 1.399 . S
C809 C814 1.399 . S
C810 C809 1.399 . S
C810 C811 1.376 . S
C811 H798 0.930 . S
C811 C810 1.376 . S
C811 C812 1.388 . S
C812 H799 0.930 . S
C812 C811 1.388 . S
C812 C813 1.390 . S
C813 C812 1.390 . S
C813 C814 1.394 . S
C813 C819 1.465 . S
C814 C809 1.399 . S
C814 C813 1.394 . S
C814 C815 1.516 . S
C815 C814 1.516 . S
C815 C816 1.502 . S
C815 C817 1.561 . S
C815 C818 1.526 . S
C816 H800 0.959 . S
C816 H801 0.959 . S
C816 H802 0.961 . S
C816 C815 1.502 . S
C817 H803 0.960 . S
C817 H804 0.961 . S
C817 H805 0.959 . S
C817 C815 1.561 . S
C818 C815 1.526 . S
C818 C819 1.396 . S
C818 C823 1.390 . S
C819 C813 1.465 . S
C819 C818 1.396 . S
C819 C820 1.399 . S
C820 H806 0.929 . S
C820 C819 1.399 . S
C820 C821 1.385 . S
C821 H807 0.931 . S
C821 C820 1.385 . S
C821 C822 1.389 . S
C822 C821 1.389 . S
C822 C823 1.387 . S
C823 H808 0.930 . S
C823 C818 1.390 . S
C823 C822 1.387 . S
C189 C95 1.348 . S
C201 C7 1.374 . S
C216 C117 1.368 . S
C228 C28 1.297 . S
C243 C50 1.335 . S
C255 C138 1.322 . S
C270 C73 1.292 . S
C282 C160 1.341 . S
C297 C94 1.292 . S
C309 C6 1.341 . S
C324 C29 1.381 . S
C336 C116 1.368 . S
C351 C51 1.332 . S
C363 C139 1.299 . S
C378 C72 1.328 . S
C390 C161 1.304 . S
C405 C115 1.324 . S
C417 C71 1.374 . S
C432 C5 1.321 . S
C444 C141 1.308 . S
C459 C31 1.379 . S
C471 C163 1.377 . S
C486 C53 1.322 . S
C498 C93 1.299 . S
C513 C75 1.309 . S
C525 C119 1.322 . S
C540 C9 1.341 . S
C552 C137 1.335 . S
C567 C159 1.321 . S
C579 C27 1.301 . S
C594 C97 1.359 . S
C606 C49 1.307 . S
C621 C8 1.658 . S
C633 C48 1.661 . S
C648 C26 1.657 . S
C660 C74 1.660 . S
C675 C140 1.657 . S
C687 C92 1.660 . S
C702 C162 1.659 . S
C714 C114 1.661 . S
C729 C118 1.428 . S
C741 C4 1.435 . S
C756 C30 1.430 . S
C768 C136 1.411 . S
C783 C158 1.439 . S
C795 C52 1.403 . S
C810 C96 1.388 . S
C822 C70 1.461 . S
