# Generated by pormake.
# Topology qtz-x, (6)-cn, num edge types: 1
# Building blocks:
#     Node 0, Type 0, BuildingBlock: KUMBUR_clean_sbu_1, # of connection points: 6
#     Node 1, Type 0, BuildingBlock: KUMBUR_clean_sbu_1, # of connection points: 6
#     Node 2, Type 0, BuildingBlock: KUMBUR_clean_sbu_1, # of connection points: 6
#     Edge 3, Type (0, 0), BuildingBlock: AJUNOK_clean_linker_0, # of connection points: 2
#     Edge 4, Type (0, 0), BuildingBlock: AJUNOK_clean_linker_0, # of connection points: 2
#     Edge 5, Type (0, 0), BuildingBlock: AJUNOK_clean_linker_0, # of connection points: 2
#     Edge 6, Type (0, 0), BuildingBlock: AJUNOK_clean_linker_0, # of connection points: 2
#     Edge 7, Type (0, 0), BuildingBlock: AJUNOK_clean_linker_0, # of connection points: 2
#     Edge 8, Type (0, 0), BuildingBlock: AJUNOK_clean_linker_0, # of connection points: 2
#     Edge 9, Type (0, 0), BuildingBlock: AJUNOK_clean_linker_0, # of connection points: 2
#     Edge 10, Type (0, 0), BuildingBlock: AJUNOK_clean_linker_0, # of connection points: 2
#     Edge 11, Type (0, 0), BuildingBlock: AJUNOK_clean_linker_0, # of connection points: 2
# Relax obj value: 0.204
# Max RMSD: 0.284
# Mean RMSD: 0.284
data_MOF--net-qtz-x--node1-KUMBUR_clean_sbu_1--edge1-AJUNOK_clean_linker_0
_symmetry_space_group_name_H-M    P1
_symmetry_Int_Tables_number       1
_symmetry_cell_setting            triclinic
loop_
_symmetry_equiv_pos_as_xyz
'x, y, z'
_cell_length_a     11.471828
_cell_length_b     11.481199
_cell_length_c     42.145429
_cell_angle_alpha  89.952795
_cell_angle_beta   90.196899
_cell_angle_gamma 119.82227
loop_
_atom_site_label
_atom_site_type_symbol
_atom_site_fract_x
_atom_site_fract_y
_atom_site_fract_z
_atom_type_partial_charge
Tb0 Tb 0.8914 0.37596 0.14215 0.0
C1 C 0.52233 0.62528 0.18493 0.0
N2 N 0.41823 0.5301 0.20178 0.0
C3 C 0.55461 0.43968 0.22005 0.0
C4 C 0.64439 0.6268 0.18371 0.0
C5 C 0.43168 0.4371 0.21921 0.0
C6 C 0.66064 0.53442 0.20182 0.0
C7 C 0.60382 0.80522 0.14634 0.0
C8 C 0.50399 0.71715 0.16754 0.0
C9 C 0.72373 0.80316 0.14406 0.0
C10 C 0.74252 0.71325 0.16261 0.0
Tb11 Tb 0.22824 0.54189 0.20038 0.0
N12 N 0.38292 0.7103 0.16894 0.0
C13 C 0.57591 0.88464 0.12625 0.0
C14 C 0.357 0.79065 0.14973 0.0
C15 C 0.45144 0.87694 0.12819 0.0
H16 H 0.3477 0.3602 0.23228 0.0
H17 H 0.42464 0.93467 0.11299 0.0
H18 H 0.84058 0.58805 0.09901 0.0
H19 H 0.56872 0.94897 0.21492 0.0
H20 H 0.26226 0.78547 0.14893 0.0
H21 H 0.64871 0.94971 0.10893 0.0
H22 H 0.77585 0.09408 0.1856 0.0
H23 H 0.56616 0.3663 0.23377 0.0
H24 H 0.79749 0.86311 0.12639 0.0
H25 H 0.82427 0.69789 0.15758 0.0
H26 H 0.65103 0.62475 0.08775 0.0
H27 H 0.75374 0.53423 0.2009 0.0
H28 H 0.37341 0.98384 0.21027 0.0
N29 N 0.72541 0.41686 0.12837 0.0
C30 C 0.60421 0.33239 0.14117 0.0
C31 C 0.63636 0.541 0.10239 0.0
C32 C 0.49612 0.35505 0.13689 0.0
C33 C 0.74297 0.51926 0.10875 0.0
C34 C 0.5155 0.46363 0.11811 0.0
N35 N 0.69931 0.2118 0.16449 0.0
C36 C 0.6907 0.10851 0.18257 0.0
C37 C 0.4715 0.14702 0.17662 0.0
C38 C 0.5908 0.2274 0.16013 0.0
C39 C 0.46384 0.0468 0.19688 0.0
C40 C 0.57368 0.0266 0.19957 0.0
H41 H 0.44318 0.49629 0.1176 0.0
H42 H 0.29389 0.29384 0.15119 0.0
H43 H 0.28094 0.12095 0.18856 0.0
O44 O 0.85822 0.22321 0.10957 0.0
O45 O 0.82152 0.37334 0.19129 0.0
O46 O 0.02413 0.43126 0.19326 0.0
O47 O 0.89969 0.4159 0.09312 0.0
O48 O 0.97664 0.23993 0.15505 0.0
O49 O 0.12832 0.31459 0.19872 0.0
O50 O 0.27942 0.68888 0.23553 0.0
O51 O 0.26383 0.49676 0.15127 0.0
O52 O 0.09588 0.5266 0.13897 0.0
O53 O 0.24207 0.49218 0.2481 0.0
O54 O 0.13456 0.67488 0.19544 0.0
O55 O 0.97406 0.59881 0.1535 0.0
C56 C 0.92165 0.40746 0.20991 0.0
C57 C 0.74053 0.2311 0.06415 0.0
C58 C 0.6338 0.19922 0.0121 0.0
C59 C 0.51162 0.10305 0.02573 0.0
C60 C 0.61407 0.14911 0.07738 0.0
C61 C 0.50064 0.08487 0.05827 0.0
C62 C 0.75014 0.26027 0.03149 0.0
C63 C 0.04939 0.22018 0.17737 0.0
C64 C 0.85925 0.29315 0.08508 0.0
C65 C 0.37652 0.27492 0.15326 0.0
C66 C 0.36646 0.17401 0.17371 0.0
C67 C 0.18182 0.49362 0.1292 0.0
C68 C 0.41027 0.6772 0.27718 0.0
C69 C 0.5232 0.7538 0.32858 0.0
C70 C 0.6479 0.81547 0.31291 0.0
C71 C 0.53603 0.74383 0.2623 0.0
C72 C 0.40435 0.68081 0.31046 0.0
C73 C 0.65393 0.80962 0.28003 0.0
C74 C 0.04953 0.69006 0.17605 0.0
C75 C 0.28552 0.61428 0.258 0.0
H76 H 0.42239 0.04476 0.01151 0.0
H77 H 0.60387 0.13452 0.1026 0.0
H78 H 0.40322 0.02228 0.06861 0.0
H79 H 0.84642 0.33275 0.02161 0.0
H80 H 0.74092 0.87349 0.32593 0.0
H81 H 0.54356 0.74914 0.23694 0.0
H82 H 0.30733 0.63034 0.32204 0.0
H83 H 0.75013 0.86049 0.26813 0.0
Tb84 Tb 0.74012 0.21523 0.4732 0.0
C85 C 0.32655 0.62647 0.53082 0.0
N86 N 0.36235 0.74736 0.54381 0.0
C87 C 0.14735 0.65834 0.56853 0.0
C88 C 0.19915 0.51589 0.53636 0.0
C89 C 0.27475 0.76576 0.56218 0.0
C90 C 0.10982 0.5333 0.55541 0.0
C91 C 0.3811 0.49288 0.49603 0.0
C92 C 0.41777 0.61394 0.51159 0.0
C93 C 0.25355 0.38387 0.50108 0.0
C94 C 0.16371 0.39333 0.52183 0.0
Tb95 Tb 0.57571 0.90836 0.53409 0.0
N96 N 0.54058 0.72266 0.50714 0.0
C97 C 0.47189 0.48616 0.47507 0.0
C98 C 0.6338 0.71496 0.48852 0.0
C99 C 0.59892 0.59824 0.47122 0.0
H100 H 0.3039 0.86262 0.57252 0.0
H101 H 0.67087 0.59413 0.4555 0.0
H102 H 0.0066 0.26509 0.43204 0.0
H103 H 0.63283 0.53575 0.54592 0.0
H104 H 0.73307 0.79995 0.48581 0.0
H105 H 0.44565 0.39475 0.46213 0.0
H106 H 0.57867 0.32416 0.5196 0.0
H107 H 0.07769 0.67248 0.58302 0.0
H108 H 0.2233 0.29504 0.48776 0.0
H109 H 0.06602 0.3073 0.52574 0.0
H110 H 0.23409 0.45445 0.4221 0.0
H111 H 0.01055 0.45222 0.55915 0.0
H112 H 0.85776 0.73581 0.53958 0.0
N113 N 0.95063 0.37859 0.462 0.0
C114 C 0.98607 0.49945 0.47491 0.0
C115 C 0.16461 0.46841 0.43673 0.0
C116 C 0.11405 0.60997 0.46962 0.0
C117 C 0.03647 0.36142 0.44272 0.0
C118 C 0.2041 0.59214 0.45087 0.0
N119 N 0.77161 0.40222 0.49858 0.0
C120 C 0.67662 0.41017 0.51633 0.0
C121 C 0.92824 0.63435 0.5083 0.0
C122 C 0.89376 0.51186 0.49376 0.0
C123 C 0.83414 0.64285 0.52772 0.0
C124 C 0.70711 0.53038 0.5314 0.0
H125 H 0.30559 0.67117 0.44818 0.0
H126 H 0.24782 0.81839 0.48075 0.0
H127 H 0.08433 0.83402 0.51602 0.0
O128 O 0.6503 0.29064 0.44187 0.0
O129 O 0.8291 0.26973 0.52135 0.0
O130 O 0.63597 0.11471 0.54082 0.0
O131 O 0.76814 0.20772 0.42395 0.0
O132 O 0.51665 0.12798 0.48211 0.0
O133 O 0.45529 0.01421 0.53047 0.0
O134 O 0.68891 0.8548 0.56386 0.0
O135 O 0.49542 0.85791 0.4847 0.0
O136 O 0.69054 0.01253 0.46649 0.0
O137 O 0.53248 0.88259 0.58321 0.0
O138 O 0.79694 0.98567 0.52449 0.0
O139 O 0.87627 0.12898 0.48041 0.0
C140 C 0.75966 0.20283 0.54597 0.0
C141 C 0.78431 0.39355 0.39647 0.0
C142 C 0.88463 0.48591 0.34485 0.0
C143 C 0.94222 0.61596 0.35781 0.0
C144 C 0.84015 0.52448 0.40854 0.0
C145 C 0.91889 0.63479 0.38935 0.0
C146 C 0.80481 0.37496 0.36448 0.0
C147 C 0.42832 0.07005 0.50569 0.0
C148 C 0.70864 0.27542 0.41706 0.0
C149 C 0.14898 0.73272 0.48404 0.0
C150 C 0.05631 0.74346 0.50357 0.0
C151 C 0.56931 0.92213 0.46018 0.0
C152 C 0.57729 0.72555 0.60894 0.0
C153 C 0.57219 0.62479 0.66026 0.0
C154 C 0.50309 0.49691 0.64636 0.0
C155 C 0.50781 0.59676 0.59556 0.0
C156 C 0.60884 0.73929 0.64151 0.0
C157 C 0.47098 0.48317 0.61414 0.0
C158 C 0.89299 0.0577 0.50335 0.0
C159 C 0.62045 0.846 0.58915 0.0
H160 H 0.00506 0.70342 0.34352 0.0
H161 H 0.82387 0.54188 0.43284 0.0
H162 H 0.96222 0.73525 0.399 0.0
H163 H 0.75658 0.27396 0.35493 0.0
H164 H 0.47254 0.40771 0.66058 0.0
H165 H 0.48324 0.58373 0.57074 0.0
H166 H 0.66113 0.83824 0.65224 0.0
H167 H 0.41764 0.3843 0.6035 0.0
Tb168 Tb 0.70973 0.37043 0.81076 0.0
C169 C 0.48904 0.77129 0.86374 0.0
N170 N 0.58453 0.74782 0.87572 0.0
C171 C 0.68902 0.95836 0.90274 0.0
C172 C 0.49712 0.89508 0.86865 0.0
C173 C 0.68555 0.83931 0.89445 0.0
C174 C 0.59433 0.98607 0.88946 0.0
C175 C 0.29414 0.70124 0.83007 0.0
C176 C 0.385 0.67242 0.84581 0.0
C177 C 0.31228 0.83047 0.83196 0.0
C178 C 0.41192 0.92618 0.85179 0.0
Tb179 Tb 0.55052 0.54233 0.86696 0.0
N180 N 0.37794 0.55148 0.84236 0.0
C181 C 0.19171 0.6015 0.81176 0.0
C182 C 0.27959 0.45418 0.82385 0.0
C183 C 0.18447 0.47737 0.8088 0.0
H184 H 0.76337 0.82036 0.90288 0.0
H185 H 0.10918 0.40131 0.7939 0.0
H186 H 0.54365 0.06333 0.78286 0.0
H187 H 0.11336 0.59992 0.89971 0.0
H188 H 0.27446 0.36013 0.81929 0.0
H189 H 0.11995 0.62026 0.79929 0.0
H190 H 0.93014 0.58348 0.86818 0.0
H191 H 0.76676 0.0301 0.91833 0.0
H192 H 0.25146 0.85688 0.81761 0.0
H193 H 0.42876 0.02653 0.85299 0.0
H194 H 0.57554 0.86716 0.78109 0.0
H195 H 0.59655 0.07739 0.89511 0.0
H196 H 0.15506 0.40911 0.9014 0.0
N197 N 0.71552 0.17751 0.81208 0.0
C198 C 0.81744 0.17986 0.829 0.0
C199 C 0.64311 0.95357 0.79489 0.0
C200 C 0.83053 0.06546 0.83094 0.0
C201 C 0.62658 0.06575 0.79567 0.0
C202 C 0.74557 0.95333 0.81265 0.0
N203 N 0.88176 0.40035 0.84511 0.0
C204 C 0.95473 0.50725 0.86493 0.0
C205 C 0.0004 0.29357 0.86679 0.0
C206 C 0.9029 0.29409 0.84622 0.0
C207 C 0.08001 0.40653 0.88531 0.0
C208 C 0.05684 0.51408 0.88437 0.0
H209 H 0.75779 0.86624 0.81235 0.0
H210 H 0.91406 0.97053 0.85852 0.0
H211 H 0.07708 0.17173 0.88691 0.0
O212 O 0.86115 0.44159 0.77629 0.0
O213 O 0.6523 0.26649 0.8566 0.0
O214 O 0.67819 0.45911 0.86908 0.0
O215 O 0.65959 0.29435 0.76384 0.0
O216 O 0.844 0.59554 0.81565 0.0
O217 O 0.76558 0.68905 0.85435 0.0
O218 O 0.42229 0.51766 0.90596 0.0
O219 O 0.58445 0.62773 0.81887 0.0
O220 O 0.56666 0.43763 0.80224 0.0
O221 O 0.62662 0.56304 0.91314 0.0
O222 O 0.40364 0.32116 0.85654 0.0
O223 O 0.48324 0.23808 0.81528 0.0
C224 C 0.63938 0.33781 0.87854 0.0
C225 C 0.83651 0.29472 0.73421 0.0
C226 C 0.89111 0.25593 0.68053 0.0
C227 C 0.97824 0.21541 0.69386 0.0
C228 C 0.91787 0.24688 0.74677 0.0
C229 C 0.98859 0.20779 0.72671 0.0
C230 C 0.81794 0.29215 0.70132 0.0
C231 C 0.85726 0.6991 0.83311 0.0
C232 C 0.78276 0.36238 0.75421 0.0
C233 C 0.9219 0.06363 0.85249 0.0
C234 C 0.00904 0.17724 0.86987 0.0
C235 C 0.59618 0.55987 0.79552 0.0
C236 C 0.52739 0.61638 0.9565 0.0
C237 C 0.43403 0.61912 0.00841 0.0
C238 C 0.55697 0.73109 0.01705 0.0
C239 C 0.652 0.72324 0.96667 0.0
C240 C 0.41809 0.56427 0.97779 0.0
C241 C 0.66513 0.78279 0.99624 0.0
C242 C 0.38665 0.2248 0.83562 0.0
C243 C 0.51659 0.54307 0.92665 0.0
H244 H 0.03894 0.18961 0.67905 0.0
H245 H 0.92877 0.24188 0.77196 0.0
H246 H 0.05386 0.1741 0.73668 0.0
H247 H 0.7464 0.31943 0.69229 0.0
H248 H 0.57077 0.77519 0.04047 0.0
H249 H 0.74138 0.75824 0.95252 0.0
H250 H 0.32269 0.4786 0.97112 0.0
H251 H 0.76117 0.86585 1.00358 0.0
C252 C 0.04278 0.88833 0.20512 0.0
C253 C 0.05522 0.82866 0.17666 0.0
C254 C 0.03639 0.01042 0.20545 0.0
C255 C 0.04419 0.08259 0.17732 0.0
H256 H 0.03654 0.83973 0.22753 0.0
H257 H 0.02783 0.04987 0.22809 0.0
S258 S 0.08065 0.97556 0.09643 0.0
N259 N 0.07688 0.85756 0.11956 0.0
N260 N 0.06535 0.08141 0.12014 0.0
C261 C 0.05604 0.0237 0.14885 0.0
C262 C 0.06317 0.90048 0.14855 0.0
C263 C 0.22647 0.07364 0.53313 0.0
C264 C 0.29434 0.07299 0.50496 0.0
C265 C 0.0965 0.06374 0.5327 0.0
C266 C 0.02573 0.05345 0.5041 0.0
H267 H 0.27299 0.07934 0.5559 0.0
H268 H 0.05224 0.06628 0.55511 0.0
S269 S 0.16294 0.06802 0.4237 0.0
N270 N 0.28237 0.07793 0.44748 0.0
N271 N 0.03987 0.05045 0.44688 0.0
C272 C 0.09259 0.05344 0.47594 0.0
C273 C 0.22617 0.06763 0.47631 0.0
C274 C 0.05025 0.91089 0.80539 0.0
C275 C -0.00547 0.82978 0.83283 0.0
C276 C 0.17374 0.03764 0.80633 0.0
C277 C 0.24869 0.09205 0.83479 0.0
H278 H -0.00277 0.87709 0.78301 0.0
H279 H 0.21076 0.09352 0.78447 0.0
S280 S 0.15043 0.91751 0.91298 0.0
N281 N 0.02837 0.81531 0.8891 0.0
N282 N 0.25413 0.04511 0.89067 0.0
C283 C 0.19244 0.01071 0.86209 0.0
C284 C 0.06943 0.88188 0.86108 0.0
C285 C 0.31397 0.4462 0.05037 0.0
C286 C 0.32893 0.55753 0.03301 0.0
C287 C 0.25197 0.41578 0.08037 0.0
C288 C 0.21257 0.50142 0.09466 0.0
H289 H 0.3588 0.38849 0.04182 0.0
H290 H 0.24584 0.33201 0.09355 0.0
S291 S 0.18222 0.77029 0.05304 0.0
N292 N 0.26289 0.72639 0.02773 0.0
N293 N 0.15478 0.67573 0.08475 0.0
C294 C 0.20899 0.59991 0.07535 0.0
C295 C 0.2672 0.62754 0.0445 0.0
C296 C 0.89538 0.5545 0.28799 0.0
C297 C 0.90261 0.46758 0.31055 0.0
C298 C 0.90622 0.53731 0.25549 0.0
C299 C 0.92188 0.43124 0.24418 0.0
H300 H 0.87863 0.63533 0.29538 0.0
H301 H 0.90262 0.60806 0.23928 0.0
S302 S 0.95688 0.18121 0.29261 0.0
N303 N 0.93817 0.27732 0.31889 0.0
N304 N 0.94976 0.24106 0.25746 0.0
C305 C 0.93217 0.3452 0.26617 0.0
C306 C 0.92407 0.36396 0.29941 0.0
C307 C 0.70207 0.60507 0.74175 0.0
C308 C 0.603 0.60185 0.76188 0.0
C309 C 0.69644 0.61909 0.70871 0.0
C310 C 0.59364 0.63508 0.69492 0.0
H311 H 0.78339 0.59487 0.75155 0.0
H312 H 0.77044 0.61371 0.69383 0.0
S313 S 0.32004 0.65116 0.7369 0.0
N314 N 0.40558 0.6269 0.76523 0.0
N315 N 0.39797 0.65839 0.70354 0.0
C316 C 0.5 0.64192 0.7148 0.0
C317 C 0.50424 0.62477 0.74824 0.0
C318 C 0.74615 0.3007 0.92659 0.0
C319 C 0.63655 0.30475 0.91272 0.0
C320 C 0.74585 0.26754 0.95865 0.0
C321 C 0.6361 0.23907 0.97832 0.0
H322 H 0.8306 0.3178 0.91236 0.0
H323 H 0.83087 0.26118 0.96776 0.0
S324 S 0.32256 0.23483 0.95363 0.0
N325 N 0.41252 0.26954 0.92095 0.0
N326 N 0.41695 0.22428 0.98169 0.0
C327 C 0.52683 0.24572 0.96483 0.0
C328 C 0.52551 0.27366 0.93195 0.0
C329 C 0.61735 0.77809 0.38363 0.0
C330 C 0.51958 0.77759 0.36324 0.0
C331 C 0.63027 0.822 0.41511 0.0
C332 C 0.54232 0.86148 0.42807 0.0
H333 H 0.68794 0.74903 0.37488 0.0
H334 H 0.71284 0.82893 0.42904 0.0
S335 S 0.2734 0.88358 0.38464 0.0
N336 N 0.3371 0.82607 0.35806 0.0
N337 N 0.35824 0.9025 0.41776 0.0
C338 C 0.44376 0.86041 0.40813 0.0
C339 C 0.43186 0.81807 0.37581 0.0
C340 C 0.88427 0.16153 0.62604 0.0
C341 C 0.874 0.25662 0.64527 0.0
C342 C 0.85795 0.15291 0.5934 0.0
C343 C 0.81119 0.23175 0.57892 0.0
H344 H 0.90909 0.08993 0.63617 0.0
H345 H 0.87068 0.08094 0.57973 0.0
S346 S 0.79545 0.51567 0.61604 0.0
N347 N 0.84469 0.45311 0.64496 0.0
N348 N 0.7717 0.41872 0.58504 0.0
C349 C 0.80544 0.33043 0.5973 0.0
C350 C 0.84237 0.34701 0.63005 0.0
loop_
_geom_bond_atom_site_label_1
_geom_bond_atom_site_label_2
_geom_bond_distance
_geom_bond_site_symmetry_2
_ccdc_geom_bond_type
Tb0 N29 2.617 . S
Tb0 N35 2.572 . S
Tb0 O44 2.465 . S
Tb0 O45 2.387 . S
Tb0 O47 2.428 . S
Tb0 O48 2.308 . S
Tb0 O52 2.349 1_655 S
Tb0 O55 2.393 . S
Tb0 C64 2.802 . S
C1 N2 1.379 . S
C1 C4 1.416 . S
C1 C8 1.424 . S
N2 C1 1.379 . S
N2 C5 1.334 . S
N2 Tb11 2.617 . S
C3 C5 1.390 . S
C3 C6 1.339 . S
C3 H23 0.930 . S
C4 C1 1.416 . S
C4 C6 1.416 . S
C4 C10 1.448 . S
C5 N2 1.334 . S
C5 C3 1.390 . S
C5 H16 0.930 . S
C6 C3 1.339 . S
C6 C4 1.416 . S
C6 H27 0.930 . S
C7 C8 1.413 . S
C7 C9 1.427 . S
C7 C13 1.416 . S
C8 C1 1.424 . S
C8 C7 1.413 . S
C8 N12 1.361 . S
C9 C7 1.427 . S
C9 C10 1.328 . S
C9 H24 0.929 . S
C10 C4 1.448 . S
C10 C9 1.328 . S
C10 H25 0.930 . S
Tb11 N2 2.617 . S
Tb11 N12 2.572 . S
Tb11 O46 2.349 1_455 S
Tb11 O49 2.393 . S
Tb11 O50 2.465 . S
Tb11 O51 2.387 . S
Tb11 O53 2.428 . S
Tb11 O54 2.308 . S
Tb11 C75 2.802 . S
N12 C8 1.361 . S
N12 Tb11 2.572 . S
N12 C14 1.340 . S
C13 C7 1.416 . S
C13 C15 1.332 . S
C13 H21 0.931 . S
C14 N12 1.340 . S
C14 C15 1.407 . S
C14 H20 0.930 . S
C15 C13 1.332 . S
C15 C14 1.407 . S
C15 H17 0.929 1_565 S
H16 C5 0.930 . S
H17 C15 0.929 1_545 S
H18 C33 0.930 . S
H19 C40 0.929 . S
H20 C14 0.930 . S
H21 C13 0.931 . S
H22 C36 0.930 . S
H23 C3 0.930 . S
H24 C9 0.929 . S
H25 C10 0.930 . S
H26 C31 0.930 . S
H27 C6 0.930 . S
H28 C39 0.931 . S
N29 Tb0 2.617 . S
N29 C30 1.379 . S
N29 C33 1.334 . S
C30 N29 1.379 . S
C30 C32 1.416 . S
C30 C38 1.424 . S
C31 H26 0.930 . S
C31 C33 1.390 . S
C31 C34 1.339 . S
C32 C30 1.416 . S
C32 C34 1.416 . S
C32 C65 1.448 . S
C33 H18 0.930 . S
C33 N29 1.334 . S
C33 C31 1.390 . S
C34 C31 1.339 . S
C34 C32 1.416 . S
C34 H41 0.930 . S
N35 Tb0 2.572 . S
N35 C36 1.340 . S
N35 C38 1.361 . S
C36 H22 0.930 . S
C36 N35 1.340 . S
C36 C40 1.407 1_545 S
C37 C38 1.413 . S
C37 C39 1.416 1_545 S
C37 C66 1.427 . S
C38 C30 1.424 . S
C38 N35 1.361 . S
C38 C37 1.413 . S
C39 H28 0.931 . S
C39 C37 1.416 1_565 S
C39 C40 1.332 . S
C40 H19 0.929 . S
C40 C36 1.407 1_565 S
C40 C39 1.332 . S
H41 C34 0.930 . S
H42 C65 0.930 . S
H43 C66 0.929 . S
O44 Tb0 2.465 . S
O44 C64 1.264 . S
O45 Tb0 2.387 . S
O45 C56 1.264 . S
O46 Tb11 2.349 1_655 S
O46 C56 1.243 . S
O47 Tb0 2.428 . S
O47 C64 1.256 . S
O48 Tb0 2.308 . S
O48 C63 1.266 . S
O49 Tb11 2.393 . S
O49 C63 1.248 1_455 S
O50 Tb11 2.465 . S
O50 C75 1.264 . S
O51 Tb11 2.387 . S
O51 C67 1.264 . S
O52 Tb0 2.349 1_455 S
O52 C67 1.243 . S
O53 Tb11 2.428 . S
O53 C75 1.256 . S
O54 Tb11 2.308 . S
O54 C74 1.266 . S
O55 Tb0 2.393 . S
O55 C74 1.248 1_655 S
C56 O45 1.264 . S
C56 O46 1.243 . S
C57 C60 1.399 . S
C57 C62 1.383 . S
C57 C64 1.496 . S
C58 C59 1.399 1_554 S
C58 C62 1.389 . S
C59 C58 1.399 1_556 S
C59 C61 1.380 1_556 S
C59 H76 0.929 . S
C60 C57 1.399 . S
C60 C61 1.392 . S
C60 H77 0.929 . S
C61 C59 1.380 1_554 S
C61 C60 1.392 . S
C61 H78 0.929 1_554 S
C62 C57 1.383 . S
C62 C58 1.389 . S
C62 H79 0.931 . S
C63 O48 1.266 . S
C63 O49 1.248 1_655 S
C64 Tb0 2.802 . S
C64 O44 1.264 . S
C64 O47 1.256 . S
C64 C57 1.496 . S
C65 C32 1.448 . S
C65 H42 0.930 . S
C65 C66 1.328 . S
C66 C37 1.427 . S
C66 H43 0.929 . S
C66 C65 1.328 . S
C67 O51 1.264 . S
C67 O52 1.243 . S
C68 C71 1.399 . S
C68 C72 1.383 . S
C68 C75 1.496 . S
C69 C70 1.399 . S
C69 C72 1.389 . S
C70 C69 1.399 . S
C70 C73 1.380 . S
C70 H80 0.929 . S
C71 C68 1.399 . S
C71 C73 1.392 . S
C71 H81 0.929 . S
C72 C68 1.383 . S
C72 C69 1.389 . S
C72 H82 0.931 . S
C73 C70 1.380 . S
C73 C71 1.392 . S
C73 H83 0.929 . S
C74 O54 1.266 . S
C74 O55 1.248 1_455 S
C75 Tb11 2.802 . S
C75 O50 1.264 . S
C75 O53 1.256 . S
C75 C68 1.496 . S
H76 C59 0.929 . S
H77 C60 0.929 . S
H78 C61 0.929 1_556 S
H79 C62 0.931 . S
H80 C70 0.929 . S
H81 C71 0.929 . S
H82 C72 0.931 . S
H83 C73 0.929 . S
Tb84 N113 2.617 1_655 S
Tb84 N119 2.572 . S
Tb84 O128 2.465 . S
Tb84 O129 2.387 . S
Tb84 O131 2.428 . S
Tb84 O132 2.308 . S
Tb84 O136 2.349 . S
Tb84 O139 2.393 . S
Tb84 C148 2.802 . S
C85 N86 1.379 . S
C85 C88 1.416 . S
C85 C92 1.424 . S
N86 C85 1.379 . S
N86 C89 1.334 . S
N86 Tb95 2.617 . S
C87 C89 1.390 . S
C87 C90 1.339 . S
C87 H107 0.930 . S
C88 C85 1.416 . S
C88 C90 1.416 . S
C88 C94 1.448 . S
C89 N86 1.334 . S
C89 C87 1.390 . S
C89 H100 0.930 . S
C90 C87 1.339 . S
C90 C88 1.416 . S
C90 H111 0.930 1_455 S
C91 C92 1.413 . S
C91 C93 1.427 . S
C91 C97 1.416 . S
C92 C85 1.424 . S
C92 C91 1.413 . S
C92 N96 1.361 . S
C93 C91 1.427 . S
C93 C94 1.328 . S
C93 H108 0.929 . S
C94 C88 1.448 . S
C94 C93 1.328 . S
C94 H109 0.930 . S
Tb95 N86 2.617 . S
Tb95 N96 2.572 . S
Tb95 O130 2.349 1_565 S
Tb95 O133 2.393 1_565 S
Tb95 O134 2.465 . S
Tb95 O135 2.387 . S
Tb95 O137 2.428 . S
Tb95 O138 2.308 1_565 S
Tb95 C159 2.802 . S
N96 C92 1.361 . S
N96 Tb95 2.572 . S
N96 C98 1.340 . S
C97 C91 1.416 . S
C97 C99 1.332 . S
C97 H105 0.931 . S
C98 N96 1.340 . S
C98 C99 1.407 . S
C98 H104 0.930 . S
C99 C97 1.332 . S
C99 C98 1.407 . S
C99 H101 0.929 . S
H100 C89 0.930 . S
H101 C99 0.929 . S
H102 C117 0.930 . S
H103 C124 0.929 . S
H104 C98 0.930 . S
H105 C97 0.931 . S
H106 C120 0.930 . S
H107 C87 0.930 . S
H108 C93 0.929 . S
H109 C94 0.930 . S
H110 C115 0.930 . S
H111 C90 0.930 1_655 S
H112 C123 0.931 . S
N113 Tb84 2.617 1_455 S
N113 C114 1.379 . S
N113 C117 1.334 . S
C114 N113 1.379 . S
C114 C116 1.416 . S
C114 C122 1.424 1_455 S
C115 H110 0.930 . S
C115 C117 1.390 . S
C115 C118 1.339 . S
C116 C114 1.416 . S
C116 C118 1.416 . S
C116 C149 1.448 . S
C117 H102 0.930 . S
C117 N113 1.334 . S
C117 C115 1.390 . S
C118 C115 1.339 . S
C118 C116 1.416 . S
C118 H125 0.930 . S
N119 Tb84 2.572 . S
N119 C120 1.340 . S
N119 C122 1.361 . S
C120 H106 0.930 . S
C120 N119 1.340 . S
C120 C124 1.407 . S
C121 C122 1.413 . S
C121 C123 1.416 . S
C121 C150 1.427 1_655 S
C122 C114 1.424 1_655 S
C122 N119 1.361 . S
C122 C121 1.413 . S
C123 H112 0.931 . S
C123 C121 1.416 . S
C123 C124 1.332 . S
C124 H103 0.929 . S
C124 C120 1.407 . S
C124 C123 1.332 . S
H125 C118 0.930 . S
H126 C149 0.930 . S
H127 C150 0.929 . S
O128 Tb84 2.465 . S
O128 C148 1.264 . S
O129 Tb84 2.387 . S
O129 C140 1.264 . S
O130 Tb95 2.349 1_545 S
O130 C140 1.243 . S
O131 Tb84 2.428 . S
O131 C148 1.256 . S
O132 Tb84 2.308 . S
O132 C147 1.266 . S
O133 Tb95 2.393 1_545 S
O133 C147 1.248 . S
O134 Tb95 2.465 . S
O134 C159 1.264 . S
O135 Tb95 2.387 . S
O135 C151 1.264 . S
O136 Tb84 2.349 . S
O136 C151 1.243 1_545 S
O137 Tb95 2.428 . S
O137 C159 1.256 . S
O138 Tb95 2.308 1_545 S
O138 C158 1.266 . S
O139 Tb84 2.393 . S
O139 C158 1.248 . S
C140 O129 1.264 . S
C140 O130 1.243 . S
C141 C144 1.399 . S
C141 C146 1.383 . S
C141 C148 1.496 . S
C142 C143 1.399 . S
C142 C146 1.389 . S
C143 C142 1.399 . S
C143 C145 1.380 . S
C143 H160 0.929 . S
C144 C141 1.399 . S
C144 C145 1.392 . S
C144 H161 0.929 1_655 S
C145 C143 1.380 . S
C145 C144 1.392 . S
C145 H162 0.929 1_655 S
C146 C141 1.383 . S
C146 C142 1.389 . S
C146 H163 0.931 . S
C147 O132 1.266 . S
C147 O133 1.248 . S
C148 Tb84 2.802 . S
C148 O128 1.264 . S
C148 O131 1.256 . S
C148 C141 1.496 . S
C149 C116 1.448 . S
C149 H126 0.930 . S
C149 C150 1.328 . S
C150 C121 1.427 1_455 S
C150 H127 0.929 . S
C150 C149 1.328 . S
C151 O135 1.264 . S
C151 O136 1.243 1_565 S
C152 C155 1.399 . S
C152 C156 1.383 . S
C152 C159 1.496 . S
C153 C154 1.399 . S
C153 C156 1.389 . S
C154 C153 1.399 . S
C154 C157 1.380 . S
C154 H164 0.929 . S
C155 C152 1.399 . S
C155 C157 1.392 . S
C155 H165 0.929 . S
C156 C152 1.383 . S
C156 C153 1.389 . S
C156 H166 0.931 . S
C157 C154 1.380 . S
C157 C155 1.392 . S
C157 H167 0.929 . S
C158 O138 1.266 . S
C158 O139 1.248 . S
C159 Tb95 2.802 . S
C159 O134 1.264 . S
C159 O137 1.256 . S
C159 C152 1.496 . S
H160 C143 0.929 . S
H161 C144 0.929 1_455 S
H162 C145 0.929 1_455 S
H163 C146 0.931 . S
H164 C154 0.929 . S
H165 C155 0.929 . S
H166 C156 0.931 . S
H167 C157 0.929 . S
Tb168 N197 2.617 . S
Tb168 N203 2.572 . S
Tb168 O212 2.465 . S
Tb168 O213 2.387 . S
Tb168 O215 2.428 . S
Tb168 O216 2.308 . S
Tb168 O220 2.349 . S
Tb168 O223 2.393 . S
Tb168 C232 2.802 . S
C169 N170 1.379 . S
C169 C172 1.416 . S
C169 C176 1.424 . S
N170 C169 1.379 . S
N170 C173 1.334 . S
N170 Tb179 2.617 . S
C171 C173 1.390 1_545 S
C171 C174 1.339 . S
C171 H191 0.930 . S
C172 C169 1.416 . S
C172 C174 1.416 1_565 S
C172 C178 1.448 . S
C173 N170 1.334 . S
C173 C171 1.390 1_565 S
C173 H184 0.930 . S
C174 C171 1.339 . S
C174 C172 1.416 1_545 S
C174 H195 0.930 . S
C175 C176 1.413 . S
C175 C177 1.427 . S
C175 C181 1.416 . S
C176 C169 1.424 . S
C176 C175 1.413 . S
C176 N180 1.361 . S
C177 C175 1.427 . S
C177 C178 1.328 . S
C177 H192 0.929 . S
C178 C172 1.448 . S
C178 C177 1.328 . S
C178 H193 0.930 1_565 S
Tb179 N170 2.617 . S
Tb179 N180 2.572 . S
Tb179 O214 2.349 . S
Tb179 O217 2.393 . S
Tb179 O218 2.465 . S
Tb179 O219 2.387 . S
Tb179 O221 2.428 . S
Tb179 O222 2.308 . S
Tb179 C243 2.802 . S
N180 C176 1.361 . S
N180 Tb179 2.572 . S
N180 C182 1.340 . S
C181 C175 1.416 . S
C181 C183 1.332 . S
C181 H189 0.931 . S
C182 N180 1.340 . S
C182 C183 1.407 . S
C182 H188 0.930 . S
C183 C181 1.332 . S
C183 C182 1.407 . S
C183 H185 0.929 . S
H184 C173 0.930 . S
H185 C183 0.929 . S
H186 C201 0.930 . S
H187 C208 0.929 . S
H188 C182 0.930 . S
H189 C181 0.931 . S
H190 C204 0.930 . S
H191 C171 0.930 . S
H192 C177 0.929 . S
H193 C178 0.930 1_545 S
H194 C199 0.930 . S
H195 C174 0.930 . S
H196 C207 0.931 . S
N197 Tb168 2.617 . S
N197 C198 1.379 . S
N197 C201 1.334 1_545 S
C198 N197 1.379 . S
C198 C200 1.416 1_545 S
C198 C206 1.424 . S
C199 H194 0.930 . S
C199 C201 1.390 . S
C199 C202 1.339 . S
C200 C198 1.416 1_565 S
C200 C202 1.416 . S
C200 C233 1.448 . S
C201 H186 0.930 . S
C201 N197 1.334 1_565 S
C201 C199 1.390 . S
C202 C199 1.339 . S
C202 C200 1.416 . S
C202 H209 0.930 . S
N203 Tb168 2.572 . S
N203 C204 1.340 1_655 S
N203 C206 1.361 . S
C204 H190 0.930 . S
C204 N203 1.340 1_455 S
C204 C208 1.407 . S
C205 C206 1.413 1_455 S
C205 C207 1.416 . S
C205 C234 1.427 . S
C206 C198 1.424 . S
C206 N203 1.361 . S
C206 C205 1.413 1_655 S
C207 H196 0.931 . S
C207 C205 1.416 . S
C207 C208 1.332 . S
C208 H187 0.929 . S
C208 C204 1.407 . S
C208 C207 1.332 . S
H209 C202 0.930 . S
H210 C233 0.930 . S
H211 C234 0.935 . S
O212 Tb168 2.465 . S
O212 C232 1.264 . S
O213 Tb168 2.387 . S
O213 C224 1.264 . S
O214 Tb179 2.349 . S
O214 C224 1.243 . S
O215 Tb168 2.428 . S
O215 C232 1.256 . S
O216 Tb168 2.308 . S
O216 C231 1.266 . S
O217 Tb179 2.393 . S
O217 C231 1.248 . S
O218 Tb179 2.465 . S
O218 C243 1.264 . S
O219 Tb179 2.387 . S
O219 C235 1.264 . S
O220 Tb168 2.349 . S
O220 C235 1.243 . S
O221 Tb179 2.428 . S
O221 C243 1.256 . S
O222 Tb179 2.308 . S
O222 C242 1.266 . S
O223 Tb168 2.393 . S
O223 C242 1.248 . S
C224 O213 1.264 . S
C224 O214 1.243 . S
C225 C228 1.399 . S
C225 C230 1.383 1_655 S
C225 C232 1.496 . S
C226 C227 1.399 1_455 S
C226 C230 1.389 . S
C227 C226 1.399 1_655 S
C227 C229 1.380 . S
C227 H244 0.929 1_655 S
C228 C225 1.399 . S
C228 C229 1.392 . S
C228 H245 0.929 . S
C229 C227 1.380 . S
C229 C228 1.392 . S
C229 H246 0.929 . S
C230 C225 1.383 1_455 S
C230 C226 1.389 . S
C230 H247 0.931 . S
C231 O216 1.266 . S
C231 O217 1.248 . S
C232 Tb168 2.802 . S
C232 O212 1.264 . S
C232 O215 1.256 . S
C232 C225 1.496 . S
C233 C200 1.448 . S
C233 H210 0.930 . S
C233 C234 1.328 1_665 S
C234 C205 1.427 . S
C234 H211 0.935 . S
C234 C233 1.328 1_445 S
C235 O219 1.264 . S
C235 O220 1.243 . S
C236 C239 1.399 . S
C236 C240 1.383 . S
C236 C243 1.496 . S
C237 C238 1.399 1_556 S
C237 C240 1.389 . S
C238 C237 1.399 1_554 S
C238 C241 1.380 1_554 S
C238 H248 0.929 . S
C239 C236 1.399 . S
C239 C241 1.392 . S
C239 H249 0.929 . S
C240 C236 1.383 . S
C240 C237 1.389 . S
C240 H250 0.931 . S
C241 C238 1.380 1_556 S
C241 C239 1.392 . S
C241 H251 0.929 1_556 S
C242 O222 1.266 . S
C242 O223 1.248 . S
C243 Tb179 2.802 . S
C243 O218 1.264 . S
C243 O221 1.256 . S
C243 C236 1.496 . S
H244 C227 0.929 1_455 S
H245 C228 0.929 . S
H246 C229 0.929 . S
H247 C230 0.931 . S
H248 C238 0.929 . S
H249 C239 0.929 . S
H250 C240 0.931 . S
H251 C241 0.929 1_554 S
C252 C253 1.372 . S
C252 C254 1.416 1_465 S
C252 H256 0.931 1_455 S
C253 C252 1.372 . S
C253 C262 1.429 . S
C254 C252 1.416 1_645 S
C254 C255 1.363 . S
C254 H257 0.929 . S
C255 C254 1.363 . S
C255 C261 1.428 1_645 S
H256 C252 0.931 1_655 S
H257 C254 0.929 . S
S258 N259 1.613 . S
S258 N260 1.610 1_565 S
N259 S258 1.613 . S
N259 C262 1.350 . S
N260 S258 1.610 1_545 S
N260 C261 1.351 1_545 S
C261 C255 1.428 1_465 S
C261 N260 1.351 1_565 S
C261 C262 1.434 . S
C262 C253 1.429 . S
C262 N259 1.350 . S
C262 C261 1.434 . S
C263 C264 1.369 . S
C263 C265 1.419 . S
C263 H267 0.930 . S
C264 C263 1.369 . S
C264 C273 1.429 . S
C265 C263 1.419 . S
C265 C266 1.363 . S
C265 H268 0.929 . S
C266 C265 1.363 . S
C266 C272 1.428 . S
H267 C263 0.930 . S
H268 C265 0.929 . S
S269 N270 1.613 . S
S269 N271 1.610 1_455 S
N270 S269 1.613 . S
N270 C273 1.350 1_565 S
N271 S269 1.610 1_655 S
N271 C272 1.351 1_665 S
C272 C266 1.428 . S
C272 N271 1.351 1_445 S
C272 C273 1.434 . S
C273 C264 1.429 . S
C273 N270 1.350 1_545 S
C273 C272 1.434 . S
C274 C275 1.369 . S
C274 C276 1.419 1_565 S
C274 H278 0.930 . S
C275 C274 1.369 . S
C275 C284 1.429 . S
C276 C274 1.419 1_545 S
C276 C277 1.363 . S
C276 H279 0.929 . S
C277 C276 1.363 . S
C277 C283 1.428 1_545 S
H278 C274 0.930 . S
H279 C276 0.929 . S
S280 N281 1.613 . S
S280 N282 1.610 . S
N281 S280 1.613 . S
N281 C284 1.350 . S
N282 S280 1.610 . S
N282 C283 1.351 . S
C283 C277 1.428 1_565 S
C283 N282 1.351 . S
C283 C284 1.434 . S
C284 C275 1.429 . S
C284 N281 1.350 . S
C284 C283 1.434 . S
C285 C286 1.369 . S
C285 C287 1.419 . S
C285 H289 0.930 . S
C286 C285 1.369 . S
C286 C295 1.429 . S
C287 C285 1.419 . S
C287 C288 1.363 . S
C287 H290 0.929 . S
C288 C287 1.363 . S
C288 C294 1.428 . S
H289 C285 0.930 . S
H290 C287 0.929 . S
S291 N292 1.613 1_554 S
S291 N293 1.610 . S
N292 S291 1.613 1_556 S
N292 C295 1.350 1_556 S
N293 S291 1.610 . S
N293 C294 1.351 . S
C294 C288 1.428 . S
C294 N293 1.351 . S
C294 C295 1.434 . S
C295 C286 1.429 . S
C295 N292 1.350 1_554 S
C295 C294 1.434 . S
C296 C297 1.369 . S
C296 C298 1.419 . S
C296 H300 0.930 . S
C297 C296 1.369 . S
C297 C306 1.429 . S
C298 C296 1.419 . S
C298 C299 1.363 . S
C298 H301 0.929 . S
C299 C298 1.363 . S
C299 C305 1.428 . S
H300 C296 0.930 . S
H301 C298 0.929 . S
S302 N303 1.613 1_455 S
S302 N304 1.610 . S
N303 S302 1.613 1_655 S
N303 C306 1.350 . S
N304 S302 1.610 . S
N304 C305 1.351 1_455 S
C305 C299 1.428 . S
C305 N304 1.351 1_655 S
C305 C306 1.434 . S
C306 C297 1.429 . S
C306 N303 1.350 . S
C306 C305 1.434 . S
C307 C308 1.369 . S
C307 C309 1.419 . S
C307 H311 0.930 . S
C308 C307 1.369 . S
C308 C317 1.429 . S
C309 C307 1.419 . S
C309 C310 1.363 . S
C309 H312 0.929 . S
C310 C309 1.363 . S
C310 C316 1.428 . S
H311 C307 0.930 . S
H312 C309 0.929 . S
S313 N314 1.613 . S
S313 N315 1.610 . S
N314 S313 1.613 . S
N314 C317 1.350 . S
N315 S313 1.610 . S
N315 C316 1.351 . S
C316 C310 1.428 . S
C316 N315 1.351 . S
C316 C317 1.434 . S
C317 C308 1.429 . S
C317 N314 1.350 . S
C317 C316 1.434 . S
C318 C319 1.369 . S
C318 C320 1.419 . S
C318 H322 0.930 . S
C319 C318 1.369 . S
C319 C328 1.429 . S
C320 C318 1.419 . S
C320 C321 1.363 . S
C320 H323 0.929 . S
C321 C320 1.363 . S
C321 C327 1.428 . S
H322 C318 0.930 . S
H323 C320 0.929 . S
S324 N325 1.613 . S
S324 N326 1.610 . S
N325 S324 1.613 . S
N325 C328 1.350 . S
N326 S324 1.610 . S
N326 C327 1.351 . S
C327 C321 1.428 . S
C327 N326 1.351 . S
C327 C328 1.434 . S
C328 C319 1.429 . S
C328 N325 1.350 . S
C328 C327 1.434 . S
C329 C330 1.369 . S
C329 C331 1.419 . S
C329 H333 0.930 . S
C330 C329 1.369 . S
C330 C339 1.429 1_565 S
C331 C329 1.419 . S
C331 C332 1.363 . S
C331 H334 0.929 . S
C332 C331 1.363 . S
C332 C338 1.428 1_565 S
H333 C329 0.930 . S
H334 C331 0.929 . S
S335 N336 1.613 . S
S335 N337 1.610 . S
N336 S335 1.613 . S
N336 C339 1.350 . S
N337 S335 1.610 . S
N337 C338 1.351 . S
C338 C332 1.428 1_545 S
C338 N337 1.351 . S
C338 C339 1.434 . S
C339 C330 1.429 1_545 S
C339 N336 1.350 . S
C339 C338 1.434 . S
C340 C341 1.369 1_655 S
C340 C342 1.419 . S
C340 H344 0.930 . S
C341 C340 1.369 1_455 S
C341 C350 1.429 . S
C342 C340 1.419 . S
C342 C343 1.363 . S
C342 H345 0.929 . S
C343 C342 1.363 . S
C343 C349 1.428 . S
H344 C340 0.930 . S
H345 C342 0.929 . S
S346 N347 1.613 . S
S346 N348 1.610 1_455 S
N347 S346 1.613 . S
N347 C350 1.350 . S
N348 S346 1.610 1_655 S
N348 C349 1.351 . S
C349 C343 1.428 . S
C349 N348 1.351 . S
C349 C350 1.434 1_655 S
C350 C341 1.429 . S
C350 N347 1.350 . S
C350 C349 1.434 1_455 S
C253 C74 1.653 . S
C255 C63 1.658 . S
C264 C147 1.659 . S
C266 C158 1.653 1_455 S
C275 C231 1.651 1_455 S
C277 C242 1.659 . S
C286 C237 1.331 1_554 S
C288 C67 1.505 . S
C297 C142 1.342 . S
C299 C56 1.836 . S
C308 C235 1.507 . S
C310 C153 1.328 . S
C319 C224 1.836 . S
C321 C58 1.342 1_556 S
C330 C69 1.340 . S
C332 C151 1.501 . S
C341 C226 1.351 . S
C343 C140 1.841 . S
