# Generated by pormake.
# Topology wji, (4)-cn, num edge types: 1
# Building blocks:
#     Node 0, Type 0, BuildingBlock: ICAMEG_clean_sbu_1, # of connection points: 4
#     Node 1, Type 0, BuildingBlock: ICAMEG_clean_sbu_1, # of connection points: 4
#     Node 2, Type 0, BuildingBlock: ICAMEG_clean_sbu_1, # of connection points: 4
#     Node 3, Type 0, BuildingBlock: ICAMEG_clean_sbu_1, # of connection points: 4
#     Node 4, Type 0, BuildingBlock: ICAMEG_clean_sbu_1, # of connection points: 4
#     Node 5, Type 0, BuildingBlock: ICAMEG_clean_sbu_1, # of connection points: 4
#     Node 6, Type 0, BuildingBlock: ICAMEG_clean_sbu_1, # of connection points: 4
#     Node 7, Type 0, BuildingBlock: ICAMEG_clean_sbu_1, # of connection points: 4
#     Node 8, Type 0, BuildingBlock: ICAMEG_clean_sbu_1, # of connection points: 4
#     Node 9, Type 0, BuildingBlock: ICAMEG_clean_sbu_1, # of connection points: 4
#     Node 10, Type 0, BuildingBlock: ICAMEG_clean_sbu_1, # of connection points: 4
#     Node 11, Type 0, BuildingBlock: ICAMEG_clean_sbu_1, # of connection points: 4
#     Edge 12, Type (0, 0), BuildingBlock: AJUNOK_clean_linker_0, # of connection points: 2
#     Edge 13, Type (0, 0), BuildingBlock: AJUNOK_clean_linker_0, # of connection points: 2
#     Edge 14, Type (0, 0), BuildingBlock: AJUNOK_clean_linker_0, # of connection points: 2
#     Edge 15, Type (0, 0), BuildingBlock: AJUNOK_clean_linker_0, # of connection points: 2
#     Edge 16, Type (0, 0), BuildingBlock: AJUNOK_clean_linker_0, # of connection points: 2
#     Edge 17, Type (0, 0), BuildingBlock: AJUNOK_clean_linker_0, # of connection points: 2
#     Edge 18, Type (0, 0), BuildingBlock: AJUNOK_clean_linker_0, # of connection points: 2
#     Edge 19, Type (0, 0), BuildingBlock: AJUNOK_clean_linker_0, # of connection points: 2
#     Edge 20, Type (0, 0), BuildingBlock: AJUNOK_clean_linker_0, # of connection points: 2
#     Edge 21, Type (0, 0), BuildingBlock: AJUNOK_clean_linker_0, # of connection points: 2
#     Edge 22, Type (0, 0), BuildingBlock: AJUNOK_clean_linker_0, # of connection points: 2
#     Edge 23, Type (0, 0), BuildingBlock: AJUNOK_clean_linker_0, # of connection points: 2
#     Edge 24, Type (0, 0), BuildingBlock: AJUNOK_clean_linker_0, # of connection points: 2
#     Edge 25, Type (0, 0), BuildingBlock: AJUNOK_clean_linker_0, # of connection points: 2
#     Edge 26, Type (0, 0), BuildingBlock: AJUNOK_clean_linker_0, # of connection points: 2
#     Edge 27, Type (0, 0), BuildingBlock: AJUNOK_clean_linker_0, # of connection points: 2
#     Edge 28, Type (0, 0), BuildingBlock: AJUNOK_clean_linker_0, # of connection points: 2
#     Edge 29, Type (0, 0), BuildingBlock: AJUNOK_clean_linker_0, # of connection points: 2
#     Edge 30, Type (0, 0), BuildingBlock: AJUNOK_clean_linker_0, # of connection points: 2
#     Edge 31, Type (0, 0), BuildingBlock: AJUNOK_clean_linker_0, # of connection points: 2
#     Edge 32, Type (0, 0), BuildingBlock: AJUNOK_clean_linker_0, # of connection points: 2
#     Edge 33, Type (0, 0), BuildingBlock: AJUNOK_clean_linker_0, # of connection points: 2
#     Edge 34, Type (0, 0), BuildingBlock: AJUNOK_clean_linker_0, # of connection points: 2
#     Edge 35, Type (0, 0), BuildingBlock: AJUNOK_clean_linker_0, # of connection points: 2
# Relax obj value: 0.327
# Max RMSD: 0.211
# Mean RMSD: 0.211
data_MOF--net-wji--node1-ICAMEG_clean_sbu_1--edge1-AJUNOK_clean_linker_0
_symmetry_space_group_name_H-M    P1
_symmetry_Int_Tables_number       1
_symmetry_cell_setting            triclinic
loop_
_symmetry_equiv_pos_as_xyz
'x, y, z'
_cell_length_a     45.005963
_cell_length_b     44.97484
_cell_length_c     17.229225
_cell_angle_alpha  90.030403
_cell_angle_beta   89.866612
_cell_angle_gamma 120.1779
loop_
_atom_site_label
_atom_site_type_symbol
_atom_site_fract_x
_atom_site_fract_y
_atom_site_fract_z
_atom_type_partial_charge
Co0 Co 0.44878 0.38227 0.49218 0.0
Co1 Co 0.46663 0.33156 0.3798 0.0
O2 O 0.44569 0.33813 0.47297 0.0
C3 C 0.3806 0.32907 0.56229 0.0
O4 O 0.38226 0.30325 0.53169 0.0
C5 C 0.49077 0.30593 0.51282 0.0
O6 O 0.49927 0.33515 0.54706 0.0
O7 O 0.51273 0.37283 0.40671 0.0
O8 O 0.49234 0.4074 0.43265 0.0
H9 H 0.53683 0.36866 0.13495 0.0
H10 H 0.43838 0.33747 0.62916 0.0
O11 O 0.40459 0.36002 0.55223 0.0
H12 H 0.55165 0.44082 0.66907 0.0
H13 H 0.45353 0.47494 0.65982 0.0
H14 H 0.46446 0.44281 0.39311 0.0
H15 H 0.51532 0.43755 0.5592 0.0
H16 H 0.43983 0.41613 0.63002 0.0
O17 O 0.4792 0.30085 0.44313 0.0
H18 H 0.50971 0.37656 0.25191 0.0
H19 H 0.46872 0.27157 0.31237 0.0
H20 H 0.47441 0.50107 0.41864 0.0
H21 H 0.47238 0.34103 0.74387 0.0
H22 H 0.46952 0.51784 0.55353 0.0
H23 H 0.5301 0.39242 0.763 0.0
O24 O 0.42299 0.37676 0.39529 0.0
H25 H 0.35935 0.21917 0.43686 0.0
H26 H 0.42368 0.30684 0.23671 0.0
H27 H 0.36769 0.25641 0.20384 0.0
H28 H 0.33515 0.21206 0.30425 0.0
H29 H 0.41527 0.27021 0.4675 0.0
H30 H 0.49564 0.26255 0.19658 0.0
H31 H 0.52983 0.31129 0.10677 0.0
O32 O 0.45229 0.36136 0.31477 0.0
C33 C 0.51749 0.40275 0.42032 0.0
C34 C 0.52191 0.3472 0.17355 0.0
C35 C 0.49884 0.28765 0.20821 0.0
N36 N 0.48755 0.32453 0.2885 0.0
C37 C 0.50645 0.35152 0.23968 0.0
C38 C 0.48376 0.29294 0.27379 0.0
C39 C 0.51801 0.31501 0.15781 0.0
C40 C 0.46261 0.36062 0.63869 0.0
N41 N 0.47479 0.38708 0.58648 0.0
C42 C 0.48211 0.36224 0.70323 0.0
C43 C 0.51458 0.39098 0.7137 0.0
C44 C 0.52673 0.41807 0.66088 0.0
C45 C 0.50611 0.41593 0.5982 0.0
C46 C 0.45457 0.46793 0.60063 0.0
C47 C 0.46095 0.44949 0.4513 0.0
C48 C 0.44742 0.43471 0.58371 0.0
N49 N 0.4519 0.42623 0.51043 0.0
C50 C 0.4669 0.48262 0.4655 0.0
C51 C 0.46408 0.49199 0.54106 0.0
C52 C 0.4317 0.37325 0.32683 0.0
C53 C 0.37328 0.23831 0.3926 0.0
C54 C 0.40956 0.28784 0.28097 0.0
C55 C 0.37792 0.25925 0.26188 0.0
C56 C 0.3597 0.23436 0.31821 0.0
N57 N 0.4227 0.29157 0.35411 0.0
C58 C 0.40501 0.26725 0.40957 0.0
Co59 Co 0.08578 0.44039 0.65884 0.0
Co60 Co 0.15297 0.45115 0.54268 0.0
O61 O 0.12358 0.43238 0.63487 0.0
C62 C 0.06181 0.36763 0.71396 0.0
O63 O 0.08989 0.36849 0.68994 0.0
C64 C 0.20115 0.47384 0.67875 0.0
O65 O 0.18179 0.48512 0.70845 0.0
O66 O 0.16169 0.49876 0.56457 0.0
O67 O 0.11308 0.48903 0.62315 0.0
H68 H 0.19517 0.51987 0.29655 0.0
H69 H 0.11886 0.41796 0.77812 0.0
O70 O 0.0564 0.39229 0.69912 0.0
H71 H 0.12163 0.51952 0.89112 0.0
H72 H 0.98907 0.43502 0.81595 0.0
H73 H 0.05347 0.47269 0.5707 0.0
H74 H 0.09668 0.49889 0.76121 0.0
H75 H 0.03639 0.42401 0.79061 0.0
O76 O 0.19447 0.46094 0.61015 0.0
H77 H 0.1575 0.49561 0.41122 0.0
H78 H 0.21273 0.44668 0.48217 0.0
H79 H 1.00433 0.48138 0.59128 0.0
H80 H 0.1401 0.43526 0.91056 0.0
H81 H 0.97208 0.46336 0.71599 0.0
H82 H 0.14219 0.48692 0.9679 0.0
O83 O 0.06613 0.42393 0.55358 0.0
H84 H 0.14765 0.33971 0.6091 0.0
H85 H 0.13226 0.40642 0.40211 0.0
H86 H 0.12191 0.34827 0.37356 0.0
H87 H 0.12971 0.31452 0.47741 0.0
H88 H 0.15726 0.39777 0.63546 0.0
H89 H 0.25119 0.47063 0.36858 0.0
H90 H 0.24246 0.50749 0.27488 0.0
O91 O 0.11119 0.44042 0.47383 0.0
C92 C 0.1426 0.50916 0.59457 0.0
C93 C 0.19918 0.50379 0.33691 0.0
C94 C 0.23066 0.47619 0.37742 0.0
N95 N 0.18279 0.46959 0.45289 0.0
C96 C 0.17788 0.48991 0.40176 0.0
C97 C 0.20886 0.46278 0.44168 0.0
C98 C 0.22572 0.49683 0.32479 0.0
C99 C 0.11757 0.43906 0.80351 0.0
N100 N 0.10473 0.45611 0.76252 0.0
C101 C 0.13042 0.44928 0.87843 0.0
C102 C 0.1317 0.47829 0.91043 0.0
C103 C 0.12001 0.49649 0.86736 0.0
C104 C 0.10612 0.48476 0.79361 0.0
C105 C 1.00261 0.44289 0.76168 0.0
C106 C 0.03923 0.4642 0.62454 0.0
C107 C 0.02969 0.437 0.7472 0.0
N108 N 0.048 0.44819 0.67977 0.0
C109 C 1.01154 0.46944 0.63609 0.0
C110 C 0.99333 0.45903 0.70565 0.0
C111 C 0.07863 0.42748 0.48549 0.0
C112 C 0.14416 0.35416 0.56336 0.0
C113 C 0.13534 0.39179 0.4479 0.0
C114 C 0.12963 0.35892 0.43123 0.0
C115 C 0.13405 0.34002 0.48949 0.0
N116 N 0.14518 0.40545 0.52056 0.0
C117 C 0.14966 0.38711 0.57788 0.0
Co118 Co 0.66483 0.0782 0.81317 0.0
Co119 Co 0.71997 0.14643 0.70658 0.0
O120 O 0.71026 0.11823 0.79884 0.0
C121 C 0.708 0.04898 0.87076 0.0
O122 O 0.72058 0.05039 0.80118 0.0
C123 C 0.74606 0.19824 0.83768 0.0
O124 O 0.71514 0.18135 0.8678 0.0
O125 O 0.67935 0.15296 0.73025 0.0
O126 O 0.64267 0.09746 0.74646 0.0
H127 H 0.68999 0.18307 0.45767 0.0
H128 H 0.70847 0.11722 0.94656 0.0
O129 O 0.68559 0.05786 0.88263 0.0
H130 H 0.60227 0.12233 0.97779 0.0
H131 H 0.56559 0.99353 0.97302 0.0
H132 H 0.60646 0.03424 0.708 0.0
H133 H 0.60746 0.08794 0.87303 0.0
H134 H 0.62651 0.0351 0.94829 0.0
O135 O 0.75164 0.18904 0.77129 0.0
H136 H 0.67829 0.14753 0.5754 0.0
H137 H 0.78294 0.20691 0.64224 0.0
H138 H 0.54633 0.98857 0.72822 0.0
H139 H 0.70391 0.15082 0.0542 0.0
H140 H 0.52514 0.96835 0.86212 0.0
H141 H 0.65091 0.15448 0.0688 0.0
O142 O 0.67179 0.05699 0.7183 0.0
H143 H 0.8256 0.1415 0.77809 0.0
H144 H 0.7473 0.12949 0.56537 0.0
H145 H 0.79598 0.1204 0.53874 0.0
H146 H 0.83564 0.12652 0.64557 0.0
H147 H 0.77634 0.14999 0.80221 0.0
H148 H 0.79576 0.24335 0.52592 0.0
H149 H 0.74913 0.23139 0.43238 0.0
O150 O 0.68993 0.10301 0.64006 0.0
C151 C 0.64866 0.12804 0.73908 0.0
C152 C 0.71053 0.18854 0.49795 0.0
C153 C 0.76989 0.22242 0.5363 0.0
N154 N 0.72991 0.17512 0.61537 0.0
C155 C 0.70406 0.16848 0.56457 0.0
C156 C 0.76245 0.20181 0.60228 0.0
C157 C 0.74371 0.21566 0.48382 0.0
C158 C 0.68489 0.11763 0.95418 0.0
N159 N 0.65837 0.10064 0.90319 0.0
C160 C 0.68264 0.13716 1.01459 0.0
C161 C 0.65293 0.13926 0.02264 0.0
C162 C 0.62563 0.12122 0.97164 0.0
C163 C 0.62875 0.10179 0.91228 0.0
C164 C 0.57457 1.00087 0.91424 0.0
C165 C 0.59791 0.02441 0.7659 0.0
C166 C 0.60895 0.02506 0.9003 0.0
N167 N 0.6198 0.03785 0.82755 0.0
C168 C 0.5637 0.99875 0.77706 0.0
C169 C 0.55185 0.98734 0.8521 0.0
C170 C 0.677 0.0702 0.65021 0.0
C171 C 0.80852 0.13879 0.73103 0.0
C172 C 0.76423 0.13191 0.61222 0.0
C173 C 0.79186 0.12689 0.59676 0.0
C174 C 0.81412 0.13035 0.65669 0.0
N175 N 0.75891 0.14023 0.68522 0.0
C176 C 0.78061 0.14363 0.74429 0.0
Co177 Co 0.60583 0.65671 0.9883 0.0
Co178 Co 0.58803 0.70772 0.87759 0.0
O179 O 0.60893 0.70092 0.97025 0.0
C180 C 0.67427 0.70972 0.0571 0.0
O181 O 0.67305 0.73555 0.02528 0.0
C182 C 0.56408 0.73368 1.01091 0.0
O183 O 0.5538 0.70365 0.04323 0.0
O184 O 0.54182 0.66655 0.90552 0.0
O185 O 0.56223 0.63185 0.92913 0.0
H186 H 0.51743 0.67102 0.63411 0.0
H187 H 0.61624 0.70091 0.12573 0.0
O188 O 0.65003 0.67883 0.04788 0.0
H189 H 0.50353 0.59708 0.16784 0.0
H190 H 0.60396 0.56441 0.15252 0.0
H191 H 0.58929 0.59616 0.88841 0.0
H192 H 0.53934 0.60107 0.05572 0.0
H193 H 0.61581 0.62278 0.12447 0.0
O194 O 0.57626 0.73895 0.94164 0.0
H195 H 0.54436 0.66284 0.75069 0.0
H196 H 0.58643 0.76802 0.81053 0.0
H197 H 0.58042 0.5382 0.91228 0.0
H198 H 0.58365 0.69599 0.24443 0.0
H199 H 0.58734 0.52166 0.04583 0.0
H200 H 0.5259 0.6446 0.26414 0.0
O201 O 0.63161 0.6626 0.89105 0.0
H202 H 0.69614 0.81955 0.93261 0.0
H203 H 0.63061 0.73214 0.73342 0.0
H204 H 0.68677 0.78219 0.69942 0.0
H205 H 0.71992 0.82641 0.79934 0.0
H206 H 0.64006 0.76887 0.96439 0.0
H207 H 0.55976 0.77733 0.69501 0.0
H208 H 0.52513 0.72865 0.60569 0.0
O209 O 0.60184 0.67766 0.81171 0.0
C210 C 0.53702 0.63656 0.91862 0.0
C211 C 0.53254 0.69246 0.67249 0.0
C212 C 0.55625 0.75212 0.70675 0.0
N213 N 0.56706 0.71495 0.78693 0.0
C214 C 0.54789 0.68798 0.73842 0.0
C215 C 0.57119 0.74667 0.77217 0.0
C216 C 0.53684 0.72479 0.65662 0.0
C217 C 0.59221 0.67763 0.1359 0.0
N218 N 0.57984 0.65146 0.08309 0.0
C219 C 0.57342 0.67528 0.20251 0.0
C220 C 0.54099 0.64649 0.21343 0.0
C221 C 0.52838 0.61991 0.15929 0.0
C222 C 0.54865 0.62249 0.09523 0.0
C223 C 0.60187 0.57131 0.09389 0.0
C224 C 0.59341 0.58952 0.94606 0.0
C225 C 0.60807 0.60429 0.07796 0.0
N226 N 0.60277 0.61271 1.00538 0.0
C227 C 0.58813 0.55657 0.95931 0.0
C228 C 0.59208 0.54733 0.03411 0.0
C229 C 0.6226 0.66594 0.82293 0.0
C230 C 0.68195 0.80046 0.88856 0.0
C231 C 0.64499 0.75106 0.77748 0.0
C232 C 0.67672 0.77946 0.75775 0.0
C233 C 0.69529 0.80428 0.8138 0.0
N234 N 0.63209 0.74746 0.85098 0.0
C235 C 0.65012 0.77173 0.90617 0.0
Co236 Co 0.97906 0.60891 0.14612 0.0
Co237 Co 0.90644 0.58662 0.03708 0.0
O238 O 0.93888 0.6123 0.11963 0.0
C239 C 0.99316 0.67679 0.20682 0.0
O240 O 0.96058 0.66716 0.1998 0.0
C241 C 0.86589 0.58742 0.18065 0.0
O242 O 0.89542 0.6083 0.21311 0.0
O243 O 0.90244 0.54226 0.07351 0.0
O244 O 0.95444 0.55826 0.12298 0.0
H245 H 0.86133 0.50359 0.81416 0.0
H246 H 1.01222 0.63399 0.30124 0.0
O247 O 1.00505 0.65954 0.17308 0.0
H248 H 0.89153 0.54825 0.35838 0.0
H249 H 0.10325 0.64454 0.11568 0.0
H250 H 0.99284 0.55938 0.2319 0.0
H251 H 0.91216 0.56087 0.22413 0.0
H252 H 0.05298 0.65259 0.10928 0.0
O253 O 0.86537 0.57704 0.11029 0.0
H254 H 0.90171 0.53638 0.91959 0.0
H255 H 0.84138 0.58122 0.98037 0.0
H256 H 0.04232 0.55043 0.24129 0.0
H257 H 0.99138 0.62462 0.43675 0.0
H258 H 0.09746 0.5921 0.17822 0.0
H259 H 0.93102 0.5811 0.46617 0.0
O260 O 0.99509 0.61981 0.03627 0.0
H261 H 0.91012 0.70079 0.05952 0.0
H262 H 0.91603 0.61817 0.88156 0.0
H263 H 0.92134 0.67146 0.82917 0.0
H264 H 0.91822 0.71323 0.91825 0.0
H265 H 0.90537 0.64766 0.10934 0.0
H266 H 0.80012 0.54869 0.87608 0.0
H267 H 0.81013 0.50972 0.79184 0.0
O268 O 0.94698 0.59625 0.964 0.0
C269 C 0.92435 0.53519 0.10198 0.0
C270 C 0.85673 0.52055 0.85035 0.0
C271 C 0.82234 0.54582 0.88523 0.0
N272 N 0.87397 0.56079 0.95561 0.0
C273 C 0.87953 0.53922 0.90997 0.0
C274 C 0.84569 0.56406 0.94434 0.0
C275 C 0.82799 0.52397 0.83793 0.0
C276 C 0.98555 0.61564 0.31319 0.0
N277 N 0.96343 0.59842 0.2538 0.0
C278 C 0.97402 0.61028 0.39012 0.0
C279 C 0.9401 0.58581 0.40675 0.0
C280 C 0.91801 0.56741 0.34639 0.0
C281 C 0.93006 0.57442 0.27004 0.0
C282 C 0.0791 0.62576 0.14175 0.0
C283 C 1.01697 0.57816 0.20708 0.0
C284 C 0.05063 0.6303 0.13875 0.0
N285 N 1.01976 0.60609 0.1691 0.0
C286 C 0.04492 0.57291 0.21204 0.0
C287 C 0.0759 0.59643 0.17717 0.0
C288 C 0.98011 0.61172 0.97036 0.0
C289 C 0.91134 0.68271 0.02001 0.0
C290 C 0.91473 0.63613 0.9211 0.0
C291 C 0.9177 0.66631 0.89086 0.0
C292 C 0.91594 0.68972 0.9408 0.0
N293 N 0.90992 0.62915 0.99894 0.0
C294 C 0.90845 0.65223 0.04812 0.0
Co295 Co 0.38798 0.96021 0.31462 0.0
Co296 Co 0.33987 0.89254 0.19795 0.0
O297 O 0.34519 0.91798 0.29364 0.0
C298 C 0.33221 0.96744 0.39748 0.0
O299 O 0.30747 0.93817 0.3703 0.0
C300 C 0.31356 0.84077 0.32736 0.0
O301 O 0.34259 0.86107 0.36276 0.0
O302 O 0.38168 0.88895 0.22429 0.0
O303 O 0.41496 0.94422 0.25354 0.0
H304 H 0.37971 0.86511 0.94965 0.0
H305 H 0.34376 0.9188 0.4483 0.0
O306 O 0.36342 0.97882 0.3777 0.0
H307 H 0.45473 0.92443 0.48775 0.0
H308 H 0.47563 0.05199 0.4847 0.0
H309 H 0.44721 1.00956 0.21697 0.0
H310 H 0.44692 0.9551 0.37867 0.0
H311 H 0.41897 1.00324 0.45353 0.0
O312 O 0.30913 0.84793 0.2578 0.0
H313 H 0.38624 0.89774 0.06991 0.0
H314 H 0.28112 0.83082 0.12563 0.0
H315 H 0.50304 0.06147 0.24356 0.0
H316 H 0.35113 0.88971 0.56079 0.0
H317 H 0.51816 0.08269 0.37899 0.0
H318 H 0.4066 0.89136 0.57989 0.0
O319 O 0.3811 0.98076 0.21948 0.0
H320 H 0.22606 0.88375 0.25482 0.0
H321 H 0.31575 0.91252 0.05667 0.0
H322 H 0.26507 0.91744 0.02445 0.0
H323 H 0.21972 0.90292 0.12385 0.0
H324 H 0.27731 0.87948 0.28482 0.0
H325 H 0.27348 0.79728 1.00644 0.0
H326 H 0.32296 0.8145 0.9173 0.0
O327 O 0.36962 0.93793 0.13642 0.0
C328 C 0.41124 0.91487 0.23796 0.0
C329 C 0.35793 0.8574 0.98793 0.0
C330 C 0.29832 0.81929 0.01987 0.0
N331 N 0.33406 0.86628 0.10435 0.0
C332 C 0.36147 0.87582 0.05596 0.0
C333 C 0.30283 0.8383 0.08739 0.0
C334 C 0.32609 0.82898 0.96986 0.0
C335 C 0.36848 0.9213 0.45796 0.0
N336 N 0.39486 0.93914 0.40685 0.0
C337 C 0.37231 0.90406 0.52113 0.0
C338 C 0.40337 0.90484 0.53158 0.0
C339 C 0.43034 0.92334 0.47986 0.0
C340 C 0.42569 0.94061 0.41795 0.0
C341 C 0.46951 0.0438 0.42539 0.0
C342 C 0.45325 1.01921 0.27555 0.0
C343 C 0.4376 1.01558 0.40783 0.0
N344 N 0.43037 1.00273 0.33435 0.0
C345 C 0.48495 0.04857 0.29032 0.0
C346 C 0.49333 0.06056 0.36619 0.0
C347 C 0.37993 0.97 0.15039 0.0
C348 C 0.24566 0.89017 0.21102 0.0
C349 C 0.2963 0.90644 0.10052 0.0
C350 C 0.26757 0.90913 0.08179 0.0
C351 C 0.24212 0.90095 0.13755 0.0
N352 N 0.29962 0.89588 0.17275 0.0
C353 C 0.27473 0.88776 0.22765 0.0
Co354 Co 0.66449 0.60453 0.38935 0.0
Co355 Co 0.71609 0.58662 0.49716 0.0
O356 O 0.70912 0.60872 0.40721 0.0
C357 C 0.71643 0.67409 0.32181 0.0
O358 O 0.74293 0.67217 0.3467 0.0
C359 C 0.7447 0.56579 0.36165 0.0
O360 O 0.71508 0.55446 0.32665 0.0
O361 O 0.67597 0.54041 0.46601 0.0
O362 O 0.64004 0.55944 0.44362 0.0
H363 H 0.67935 0.51135 0.734 0.0
H364 H 0.71177 0.61832 0.25503 0.0
O365 O 0.68581 0.64994 0.33458 0.0
H366 H 0.60999 0.50568 0.20038 0.0
H367 H 0.57259 0.6049 0.22766 0.0
H368 H 0.6031 0.58497 0.48852 0.0
H369 H 0.61076 0.53978 0.31286 0.0
H370 H 0.63065 0.61559 0.25416 0.0
O371 O 0.74832 0.5771 0.43146 0.0
H372 H 0.67102 0.53964 0.62011 0.0
H373 H 0.77699 0.58613 0.5638 0.0
H374 H 0.54511 0.57601 0.46562 0.0
H375 H 0.71064 0.58705 0.13725 0.0
H376 H 0.52925 0.58563 0.33374 0.0
H377 H 0.65994 0.52966 0.11037 0.0
O378 O 0.66837 0.62791 0.48952 0.0
H379 H 0.82646 0.69724 0.44821 0.0
H380 H 0.73969 0.62667 0.64478 0.0
H381 H 0.78878 0.6828 0.68232 0.0
H382 H 0.83272 0.71848 0.58368 0.0
H383 H 0.77665 0.64117 0.41302 0.0
H384 H 0.78648 0.55806 0.67644 0.0
H385 H 0.73747 0.52053 0.76271 0.0
O386 O 0.68498 0.59813 0.56488 0.0
C387 C 0.64573 0.53475 0.4526 0.0
C388 C 0.70093 0.52768 0.69689 0.0
C389 C 0.76104 0.55385 0.6645 0.0
N390 N 0.7235 0.56453 0.58559 0.0
C391 C 0.69636 0.54379 0.63245 0.0
C392 C 0.7555 0.56954 0.6006 0.0
C393 C 0.73353 0.53281 0.71293 0.0
C394 C 0.68889 0.59434 0.2422 0.0
N395 N 0.66142 0.58099 0.29183 0.0
C396 C 0.68865 0.57635 0.17584 0.0
C397 C 0.66032 0.54407 0.16106 0.0
C398 C 0.6324 0.53053 0.21175 0.0
C399 C 0.63309 0.54983 0.27602 0.0
C400 C 0.57912 0.60122 0.28543 0.0
C401 C 0.59666 0.58997 0.43149 0.0
C402 C 0.61196 0.60694 0.30057 0.0
N403 N 0.62009 0.60043 0.37231 0.0
C404 C 0.56371 0.58469 0.41882 0.0
C405 C 0.55484 0.59012 0.34493 0.0
C406 C 0.67231 0.61821 0.55647 0.0
C407 C 0.80745 0.68197 0.49169 0.0
C408 C 0.75837 0.64222 0.60131 0.0
C409 C 0.78627 0.67391 0.62301 0.0
C410 C 0.81094 0.69389 0.56768 0.0
N411 N 0.75504 0.63073 0.52662 0.0
C412 C 0.77919 0.65016 0.47213 0.0
Co413 Co 0.08451 0.64619 0.52834 0.0
Co414 Co 0.15121 0.7038 0.64231 0.0
O415 O 0.12309 0.69222 0.54863 0.0
C416 C 0.05989 0.69489 0.48452 0.0
O417 O 0.07705 0.71574 0.5416 0.0
C418 C 0.20153 0.72894 0.50902 0.0
O419 O 0.18299 0.69798 0.47982 0.0
O420 O 0.15973 0.66462 0.62399 0.0
O421 O 0.10916 0.62399 0.5757 0.0
H422 H 0.18914 0.67942 0.8965 0.0
H423 H 0.11851 0.69772 0.4042 0.0
O424 O 0.05917 0.66643 0.47536 0.0
H425 H 0.12472 0.59673 0.31726 0.0
H426 H 0.99012 0.55186 0.37037 0.0
H427 H 0.04566 0.5846 0.62636 0.0
H428 H 0.09506 0.59488 0.43922 0.0
H429 H 0.04007 0.60955 0.39128 0.0
O430 O 0.1936 0.73529 0.57619 0.0
H431 H 0.15304 0.66512 0.77935 0.0
H432 H 0.21098 0.76854 0.70181 0.0
H433 H 0.99412 0.52773 0.60957 0.0
H434 H 0.14557 0.69975 0.27849 0.0
H435 H 0.96639 0.51047 0.48019 0.0
H436 H 0.15054 0.64964 0.23622 0.0
O437 O 0.06328 0.64678 0.62992 0.0
H438 H 0.14725 0.80956 0.56527 0.0
H439 H 0.12951 0.72926 0.7788 0.0
H440 H 0.11952 0.77763 0.80198 0.0
H441 H 0.12856 0.8183 0.69485 0.0
H442 H 0.15632 0.76047 0.54418 0.0
H443 H 0.24788 0.78401 0.81789 0.0
H444 H 0.23698 0.73928 0.91629 0.0
O445 O 0.1085 0.67319 0.70985 0.0
C446 C 0.13942 0.63403 0.60055 0.0
C447 C 0.19414 0.69915 0.85407 0.0
C448 C 0.22713 0.75784 0.80987 0.0
N449 N 0.17991 0.71593 0.73392 0.0
C450 C 0.17377 0.69118 0.78769 0.0
C451 C 0.20624 0.7489 0.74414 0.0
C452 C 0.22099 0.73273 0.86511 0.0
C453 C 0.11894 0.67524 0.38432 0.0
N454 N 0.10518 0.64627 0.42911 0.0
C455 C 0.13483 0.6767 0.31368 0.0
C456 C 0.13761 0.6486 0.29006 0.0
C457 C 0.12319 0.61895 0.33553 0.0
C458 C 0.10656 0.6181 0.40471 0.0
C459 C 1.00207 0.55877 0.42673 0.0
C460 C 0.03337 0.57766 0.57022 0.0
C461 C 0.03042 0.59145 0.43889 0.0
N462 N 0.04573 0.60053 0.50996 0.0
C463 C 1.00439 0.5452 0.56084 0.0
C464 C 0.98878 0.53564 0.48837 0.0
C465 C 0.07575 0.65535 0.69812 0.0
C466 C 0.14329 0.79205 0.61245 0.0
C467 C 0.13314 0.7466 0.73161 0.0
C468 C 0.12762 0.77407 0.74522 0.0
C469 C 0.13275 0.79691 0.68513 0.0
N470 N 0.14347 0.74199 0.66015 0.0
C471 C 0.14856 0.76429 0.60097 0.0
Co472 Co 0.44576 0.0778 0.7218 0.0
Co473 Co 0.46955 0.14826 0.83457 0.0
O474 O 0.44542 0.11976 0.74532 0.0
C475 C 0.37249 0.02875 0.68618 0.0
O476 O 0.37251 1.00922 0.74283 0.0
C477 C 0.49294 0.19618 0.69748 0.0
O478 O 0.50096 0.1747 0.66527 0.0
O479 O 0.51392 0.15046 0.80255 0.0
O480 O 0.49277 0.09613 0.76524 0.0
H481 H 0.54507 0.18253 0.07023 0.0
H482 H 0.42691 0.10967 0.59443 0.0
O483 O 0.39869 0.05852 0.67626 0.0
H484 H 0.53625 0.11934 0.51169 0.0
H485 H 0.42517 0.97627 0.55853 0.0
H486 H 0.46622 0.0346 0.8096 0.0
H487 H 0.50737 0.08811 0.63096 0.0
H488 H 0.42533 0.03023 0.58533 0.0
O489 O 0.48208 0.19084 0.76793 0.0
H490 H 0.5145 0.14637 0.95709 0.0
H491 H 0.47665 0.21302 0.89933 0.0
H492 H 0.46726 0.98129 0.78405 0.0
H493 H 0.45215 0.13647 0.4688 0.0
H494 H 0.44664 0.95171 0.65744 0.0
H495 H 0.50794 0.14268 0.42783 0.0
O496 O 0.42573 0.05903 0.82519 0.0
H497 H 0.36253 0.15433 0.78729 0.0
H498 H 0.43153 0.13667 0.98391 0.0
H499 H 0.37731 0.13357 0.02289 0.0
H500 H 0.34244 0.14259 0.92418 0.0
H501 H 0.41669 0.15672 0.75079 0.0
H502 H 0.50699 0.25009 1.01145 0.0
H503 H 0.54132 0.23478 0.09804 0.0
O504 O 0.45516 0.10496 0.90256 0.0
C505 C 0.51813 0.12557 0.7817 0.0
C506 C 0.5301 0.18942 0.03307 0.0
C507 C 0.50879 0.22738 0.99997 0.0
N508 N 0.49365 0.17747 0.92219 0.0
C509 C 0.5127 0.169 0.9691 0.0
C510 C 0.49177 0.20637 0.93646 0.0
C511 C 0.52803 0.21875 0.04858 0.0
C512 C 0.45016 0.11045 0.57538 0.0
N513 N 0.46562 0.09722 0.62086 0.0
C514 C 0.46469 0.12628 0.50462 0.0
C515 C 0.49608 0.12995 0.4819 0.0
C516 C 0.51207 0.11706 0.52913 0.0
C517 C 0.49585 0.09981 0.59754 0.0
C518 C 0.43443 0.98906 0.61334 0.0
C519 C 0.45733 0.02202 0.75413 0.0
C520 C 0.4345 1.01955 0.62896 0.0
N521 N 0.44583 0.03561 0.6988 0.0
C522 C 0.45794 0.99178 0.74011 0.0
C523 C 0.44638 0.97521 0.6691 0.0
C524 C 0.43513 0.07219 0.89254 0.0
C525 C 0.37747 0.15033 0.83082 0.0
C526 C 0.41632 0.14018 0.94055 0.0
C527 C 0.38573 0.13861 0.963 0.0
C528 C 0.3662 0.14371 0.90762 0.0
N529 N 0.42721 0.14666 0.86515 0.0
C530 C 0.4082 0.1517 0.81053 0.0
Co531 Co 0.39007 0.43441 0.8937 0.0
Co532 Co 0.33827 0.4528 1.00128 0.0
O533 O 0.34552 0.43062 0.91135 0.0
C534 C 0.33794 0.36459 0.82726 0.0
O535 O 0.31144 0.36649 0.85257 0.0
C536 C 0.31139 0.47361 0.86443 0.0
O537 O 0.34052 0.48196 0.82986 0.0
O538 O 0.37884 0.49891 0.97087 0.0
O539 O 0.41466 0.4798 0.94673 0.0
H540 H 0.37366 0.52681 0.23995 0.0
H541 H 0.34338 0.42 0.75869 0.0
O542 O 0.36856 0.38871 0.84002 0.0
H543 H 0.44519 0.53233 0.702 0.0
H544 H 0.48119 0.43052 0.73452 0.0
H545 H 0.45143 0.45462 0.9926 0.0
H546 H 0.44398 0.49892 0.81618 0.0
H547 H 0.42367 0.4218 0.7597 0.0
O548 O 0.30681 0.46325 0.93513 0.0
H549 H 0.38267 0.49897 0.12587 0.0
H550 H 0.27735 0.45405 0.06553 0.0
H551 H 0.50902 0.46227 0.97072 0.0
H552 H 0.34522 0.45012 0.63842 0.0
H553 H 0.52445 0.45043 0.84028 0.0
H554 H 0.39588 0.50751 0.61072 0.0
O555 O 0.38595 0.41136 0.99438 0.0
H556 H 0.22787 0.3427 0.94997 0.0
H557 H 0.31359 0.41239 0.14837 0.0
H558 H 0.26412 0.35624 0.1848 0.0
H559 H 0.22073 0.32099 0.08522 0.0
H560 H 0.27802 0.39884 0.91595 0.0
H561 H 0.26721 0.4816 0.1783 0.0
H562 H 0.31553 0.51812 0.26678 0.0
O563 O 0.36876 0.44077 0.06962 0.0
C564 C 0.40902 0.5045 0.9565 0.0
C565 C 0.35238 0.51091 0.20195 0.0
C566 C 0.29264 0.48559 0.16731 0.0
N567 N 0.33054 0.47479 0.08953 0.0
C568 C 0.35732 0.49504 0.13743 0.0
C569 C 0.29856 0.47015 0.10337 0.0
C570 C 0.31977 0.50605 0.21693 0.0
C571 C 0.36635 0.44376 0.74514 0.0
N572 N 0.39349 0.45752 0.79536 0.0
C573 C 0.36695 0.4612 0.67754 0.0
C574 C 0.39524 0.49348 0.66232 0.0
C575 C 0.4228 0.5075 0.71374 0.0
C576 C 0.42183 0.48863 0.77907 0.0
C577 C 0.47487 0.43533 0.79158 0.0
C578 C 0.45776 0.4489 0.9361 0.0
C579 C 0.44232 0.43064 0.80602 0.0
N580 N 0.43436 0.43812 0.87706 0.0
C581 C 0.49047 0.45338 0.92403 0.0
C582 C 0.49909 0.44672 0.85094 0.0
C583 C 0.38169 0.4209 0.06127 0.0
C584 C 0.24662 0.35779 0.99387 0.0
C585 C 0.29511 0.39706 0.10453 0.0
C586 C 0.267 0.36535 0.1256 0.0
C587 C 0.24264 0.34561 0.06973 0.0
N588 N 0.2989 0.4088 0.02996 0.0
C589 C 0.27506 0.38964 0.97497 0.0
Co590 Co 0.9737 0.39699 0.05574 0.0
Co591 Co 0.90619 0.33597 0.15803 0.0
O592 O 0.9349 0.35008 0.06519 0.0
C593 C 0.99901 0.35163 0.99569 0.0
O594 O 0.98695 0.33229 0.0578 0.0
C595 C 0.85681 0.30892 0.02337 0.0
O596 O 0.87455 0.33974 0.99309 0.0
O597 O 0.8961 0.37411 0.13958 0.0
O598 O 0.9503 0.41618 0.12088 0.0
H599 H 0.86401 0.35663 0.41091 0.0
H600 H 0.93881 0.35565 0.91605 0.0
O601 O 0.99728 0.37891 0.988 0.0
H602 H 0.93393 0.462 0.88724 0.0
H603 H 0.06264 0.4998 0.90937 0.0
H604 H 1.01225 0.45444 0.16648 0.0
H605 H 0.96299 0.45392 0.99938 0.0
H606 H 1.01983 0.43846 0.92638 0.0
O607 O 0.86454 0.3034 0.09139 0.0
H608 H 0.90058 0.37302 0.29377 0.0
H609 H 0.84856 0.26928 0.21702 0.0
H610 H 0.0584 0.51496 0.15418 0.0
H611 H 0.91081 0.36324 0.80062 0.0
H612 H 0.08338 0.53834 0.0244 0.0
H613 H 0.90706 0.41617 0.78738 0.0
O614 O 0.99468 0.38982 0.15042 0.0
H615 H 0.91893 0.23594 0.07418 0.0
H616 H 0.9275 0.31 0.29422 0.0
H617 H 0.94083 0.26369 0.3144 0.0
H618 H 0.93646 0.22618 0.20394 0.0
H619 H 0.90627 0.28286 0.05633 0.0
H620 H 0.81111 0.25176 0.33289 0.0
H621 H 0.81884 0.29561 0.43088 0.0
O622 O 0.94817 0.36711 0.2274 0.0
C623 C 0.91847 0.40579 0.13037 0.0
C624 C 0.86043 0.33728 0.3687 0.0
C625 C 0.83073 0.27842 0.32484 0.0
N626 N 0.87688 0.3221 0.2491 0.0
C627 C 0.88112 0.3464 0.30242 0.0
C628 C 0.85193 0.28851 0.25927 0.0
C629 C 0.83509 0.30303 0.37986 0.0
C630 C 0.93839 0.37918 0.90899 0.0
N631 N 0.95269 0.4042 0.96423 0.0
C632 C 0.92187 0.38308 0.84446 0.0
C633 C 0.91983 0.41284 0.83693 0.0
C634 C 0.93498 0.43858 0.8928 0.0
C635 C 0.95144 0.43383 0.95624 0.0
C636 C 0.05278 0.48984 0.96654 0.0
C637 C 1.02394 0.46407 0.11037 0.0
C638 C 1.02806 0.45524 0.97615 0.0
N639 N 1.01293 0.44313 0.0467 0.0
C640 C 0.04985 0.49845 0.10367 0.0
C641 C 0.06397 0.51151 0.03092 0.0
C642 C 0.98114 0.38214 0.218 0.0
C643 C 0.92083 0.25204 0.12282 0.0
C644 C 0.92574 0.29394 0.24573 0.0
C645 C 0.93321 0.26767 0.25759 0.0
C646 C 0.93072 0.24662 0.19561 0.0
N647 N 0.91601 0.29907 0.17418 0.0
C648 C 0.91354 0.27856 0.11314 0.0
Co649 Co 0.61679 0.96761 0.21191 0.0
Co650 Co 0.59144 0.89709 0.32541 0.0
O651 O 0.61634 0.92507 0.23481 0.0
C652 C 0.68581 0.9806 0.14753 0.0
O653 O 0.68128 0.95047 0.1679 0.0
C654 C 0.56863 0.84822 0.19004 0.0
O655 O 0.5626 0.87024 0.15368 0.0
O656 O 0.54736 0.89518 0.29216 0.0
O657 O 0.56996 0.94968 0.25657 0.0
H658 H 0.51428 0.86419 0.55897 0.0
H659 H 0.63061 0.9304 0.08504 0.0
O660 O 0.66379 0.98936 0.16503 0.0
H661 H 0.52643 0.93077 1.00285 0.0
H662 H 0.63631 0.06938 0.05226 0.0
H663 H 0.60022 1.0124 0.3058 0.0
H664 H 0.55755 0.96211 0.11955 0.0
H665 H 0.63581 1.01518 0.07599 0.0
O666 O 0.5784 0.85387 0.26111 0.0
H667 H 0.54588 0.89989 0.44578 0.0
H668 H 0.58403 0.83287 0.39397 0.0
H669 H 0.60158 0.06713 0.28472 0.0
H670 H 0.60369 0.9035 0.96199 0.0
H671 H 0.61925 0.09586 0.15645 0.0
H672 H 0.55025 0.90226 0.92095 0.0
O673 O 0.63779 0.98585 0.31471 0.0
H674 H 0.69682 0.88733 0.28398 0.0
H675 H 0.62987 0.91158 0.47465 0.0
H676 H 0.68354 0.9141 0.51555 0.0
H677 H 0.71737 0.90182 0.41994 0.0
H678 H 0.64318 0.88543 0.24534 0.0
H679 H 0.55266 0.79626 0.50613 0.0
H680 H 0.51762 0.81198 0.58972 0.0
O681 O 0.6059 0.94072 0.39217 0.0
C682 C 0.54396 0.92067 0.27247 0.0
C683 C 0.52954 0.85713 0.52309 0.0
C684 C 0.55103 0.81897 0.49335 0.0
N685 N 0.56687 0.86855 0.41373 0.0
C686 C 0.54752 0.87728 0.4591 0.0
C687 C 0.56864 0.83972 0.42981 0.0
C688 C 0.53139 0.82781 0.54027 0.0
C689 C 0.60904 0.93245 0.06597 0.0
N690 N 0.59621 0.94859 0.11062 0.0
C691 C 0.59324 0.91619 0.99656 0.0
C692 C 0.56318 0.9153 0.97383 0.0
C693 C 0.5498 0.9312 0.01986 0.0
C694 C 0.56728 0.94864 0.08694 0.0
C695 C 0.62856 0.05716 0.1079 0.0
C696 C 0.60848 0.02494 0.25005 0.0
C697 C 0.628 0.02633 0.12162 0.0
N698 N 0.61748 1.01031 0.19176 0.0
C699 C 0.60905 0.05591 0.23847 0.0
C700 C 0.61898 0.072 0.16655 0.0
C701 C 0.62739 0.97316 0.38217 0.0
C702 C 0.68229 0.89271 0.3262 0.0
C703 C 0.64456 0.90645 0.43252 0.0
C704 C 0.67487 0.90779 0.45612 0.0
C705 C 0.69382 0.90087 0.40247 0.0
N706 N 0.63339 0.8984 0.3576 0.0
C707 C 0.65185 0.8916 0.30469 0.0
C708 C 0.41204 0.39116 0.11941 0.0
C709 C 0.39408 0.40927 0.1306 0.0
C710 C 0.42408 0.37979 0.1821 0.0
C711 C 0.41855 0.38546 0.2599 0.0
H712 H 0.41715 0.38574 0.06122 0.0
H713 H 0.43776 0.36628 0.16917 0.0
S714 S 0.37334 0.43195 0.32261 0.0
N715 N 0.3723 0.4329 0.22699 0.0
N716 N 0.39345 0.41084 0.34394 0.0
C717 C 0.4005 0.40348 0.27205 0.0
C718 C 0.38874 0.41551 0.20804 0.0
C719 C 0.06465 0.4193 0.33999 0.0
C720 C 0.05342 0.41569 0.41778 0.0
C721 C 0.04131 0.40837 0.27684 0.0
C722 C 1.00526 0.39302 0.28748 0.0
H723 H 0.09182 0.43078 0.32743 0.0
H724 H 0.05185 0.41209 0.21876 0.0
S725 S 0.96172 0.37748 0.47899 0.0
N726 N 1.00284 0.39531 0.50089 0.0
N727 N 0.95986 0.37517 0.38342 0.0
C728 C 0.99365 0.38922 0.36487 0.0
C729 C 1.01735 0.40039 0.42925 0.0
C730 C 0.63334 0.98654 0.52794 0.0
C731 C 0.64039 0.99808 0.45032 0.0
C732 C 0.64549 1.00978 0.59142 0.0
C733 C 0.66497 0.04595 0.58102 0.0
H734 H 0.61837 0.95924 0.54008 0.0
H735 H 0.63915 0.9991 0.64943 0.0
S736 S 0.69056 0.09026 0.38996 0.0
N737 N 0.6691 0.04902 0.36777 0.0
N738 N 0.69007 0.09181 0.48551 0.0
C739 C 0.67193 0.05782 0.50376 0.0
C740 C 0.66021 0.03426 0.43923 0.0
C741 C 0.64224 0.64825 0.61499 0.0
C742 C 0.65984 0.62978 0.62584 0.0
C743 C 0.63025 0.65963 0.67797 0.0
C744 C 0.63553 0.65363 0.75563 0.0
H745 H 0.63741 0.65397 0.55691 0.0
H746 H 0.61686 0.67344 0.66539 0.0
S747 S 0.67959 0.60596 0.81731 0.0
N748 N 0.68081 0.60528 0.7217 0.0
N749 N 0.65993 0.62749 0.83909 0.0
C750 C 0.65319 0.63522 0.76737 0.0
C751 C 0.66483 0.62313 0.70313 0.0
C752 C 0.06251 0.6517 0.84341 0.0
C753 C 0.05066 0.64355 0.76634 0.0
C754 C 0.03965 0.64115 0.9075 0.0
C755 C 1.00338 0.62175 0.89899 0.0
H756 H 0.08985 0.66651 0.85477 0.0
H757 H 0.05088 0.64863 0.96468 0.0
S758 S 0.95821 0.59274 0.70989 0.0
N759 N 0.9993 0.61416 0.68585 0.0
N760 N 0.95704 0.59452 0.80547 0.0
C761 C 0.99109 0.61321 0.82227 0.0
C762 C 1.01439 0.62399 0.75667 0.0
C763 C 0.40538 1.0112 0.94666 0.0
C764 C 0.42206 0.04718 0.96038 0.0
C765 C 0.39191 0.98671 1.00738 0.0
C766 C 0.39378 0.9966 0.08562 0.0
H767 H 0.40272 1.00157 0.88799 0.0
H768 H 0.3798 0.9597 0.99251 0.0
S769 S 0.43482 0.08745 0.15475 0.0
N770 N 0.44027 0.09107 0.05981 0.0
N771 N 0.41371 0.04578 0.17286 0.0
C772 C 0.4102 0.03255 0.10031 0.0
C773 C 0.42462 0.05749 0.03839 0.0
C774 C 0.5828 0.49716 0.43515 0.0
C775 C 0.61482 0.49933 0.44634 0.0
C776 C 0.553 0.46622 0.421 0.0
C777 C 0.55225 0.43459 0.42212 0.0
H778 H 0.58026 0.51983 0.43579 0.0
H779 H 0.5299 0.46746 0.41125 0.0
S780 S 0.62836 0.42443 0.45173 0.0
N781 N 0.64419 0.46649 0.4564 0.0
N782 N 0.58659 0.40701 0.43655 0.0
C783 C 0.58379 0.43565 0.43419 0.0
C784 C 0.61519 0.46811 0.4456 0.0
C785 C 0.15148 0.56167 0.52595 0.0
C786 C 0.15359 0.54618 0.59462 0.0
C787 C 0.1507 0.59249 0.5282 0.0
C788 C 0.15087 0.60829 0.59898 0.0
H789 H 0.14812 0.5488 0.47076 0.0
H790 H 0.1487 0.60327 0.47413 0.0
S791 S 0.16569 0.58287 0.79266 0.0
N792 N 0.16376 0.55296 0.73362 0.0
N793 N 0.16005 0.60972 0.73776 0.0
C794 C 0.15683 0.59512 0.66702 0.0
C795 C 0.15847 0.56416 0.66477 0.0
C796 C 0.55476 0.10088 0.74333 0.0
C797 C 0.55316 0.12954 0.77109 0.0
C798 C 0.58574 0.10247 0.72647 0.0
C799 C 0.61763 0.13212 0.74102 0.0
H800 H 0.53171 0.07631 0.73417 0.0
H801 H 0.58441 0.07923 0.70472 0.0
S802 S 0.62921 0.21442 0.81762 0.0
N803 N 0.58702 0.18931 0.8119 0.0
N804 N 0.64604 0.19123 0.78675 0.0
C805 C 0.61707 0.16126 0.76943 0.0
C806 C 0.58482 0.16009 0.78375 0.0
C807 C 0.50147 0.57306 0.92037 0.0
C808 C 0.50224 0.60471 0.92185 0.0
C809 C 0.47185 0.54215 0.93626 0.0
C810 C 0.43989 0.53995 0.94917 0.0
H811 H 0.52447 0.5718 0.90916 0.0
H812 H 0.47444 0.51951 0.93675 0.0
S813 S 0.42633 0.61484 0.95623 0.0
N814 N 0.46797 0.63226 0.93879 0.0
N815 N 0.41057 0.5728 0.96129 0.0
C816 C 0.43949 0.57117 0.94875 0.0
C817 C 0.47078 0.60363 0.93587 0.0
C818 C 0.89667 0.44104 0.06619 0.0
C819 C 0.90876 0.43266 0.13335 0.0
C820 C 0.8997 0.47368 0.05751 0.0
C821 C 0.9144 0.49863 0.11644 0.0
H822 H 0.88733 0.42332 1.01778 0.0
H823 H 0.8926 0.48013 1.0027 0.0
S824 S 0.9399 0.48465 0.31188 0.0
N825 N 0.9299 0.44905 0.26413 0.0
N826 N 0.93336 0.50908 0.25088 0.0
C827 C 0.92242 0.48859 0.18726 0.0
C828 C 0.92007 0.45588 0.19507 0.0
C829 C 0.44557 0.88445 0.26217 0.0
C830 C 0.4436 0.91313 0.23555 0.0
C831 C 0.47782 0.88655 0.27442 0.0
C832 C 0.50918 0.91777 0.26371 0.0
H833 H 0.4222 0.86068 0.27575 0.0
H834 H 0.47814 0.86381 0.29375 0.0
S835 S 0.51727 0.99999 0.19285 0.0
N836 N 0.47585 0.97206 0.19011 0.0
N837 N 0.5346 0.97838 0.2288 0.0
C838 C 0.50683 0.94649 0.23851 0.0
C839 C 0.47466 0.94348 0.21998 0.0
C840 C 0.35317 0.32414 0.76729 0.0
C841 C 0.33422 0.34119 0.76354 0.0
C842 C 0.3639 0.31496 0.69948 0.0
C843 C 0.3567 0.32341 0.62615 0.0
H844 H 0.36281 0.32117 0.82261 0.0
H845 H 0.38136 0.30509 0.70474 0.0
S846 S 0.30364 0.36314 0.58506 0.0
N847 N 0.30423 0.36122 0.68076 0.0
N848 N 0.3262 0.34582 0.55327 0.0
C849 C 0.33483 0.33712 0.62163 0.0
C850 C 0.32301 0.34549 0.6906 0.0
C851 C 0.04685 0.35131 0.92464 0.0
C852 C 1.01179 0.34076 0.92926 0.0
C853 C 0.06248 0.35383 0.85241 0.0
C854 C 0.04368 0.3474 0.78307 0.0
H855 H 0.06287 0.36083 0.97585 0.0
H856 H 0.09014 0.36514 0.85056 0.0
S857 S 0.94971 0.31095 0.76679 0.0
N858 N 0.95739 0.31606 0.86099 0.0
N859 N 0.98733 0.32404 0.72476 0.0
C860 C 1.00795 0.33274 0.78816 0.0
C861 C 0.99188 0.32885 0.86164 0.0
C862 C 0.70185 0.98192 1.00934 0.0
C863 C 0.7076 0.99943 0.0805 0.0
C864 C 0.70638 0.99924 0.93842 0.0
C865 C 0.71707 0.03446 0.93717 0.0
H866 H 0.68953 0.95412 1.00853 0.0
H867 H 0.69779 0.9843 0.88545 0.0
S868 S 0.74326 0.09304 0.10632 0.0
N869 N 0.73035 0.05472 0.14427 0.0
N870 N 0.73946 0.08723 1.01141 0.0
C871 C 0.72744 0.05288 1.00709 0.0
C872 C 0.72277 0.03536 0.07882 0.0
C873 C 0.71806 0.69929 0.11671 0.0
C874 C 0.69828 0.71544 0.12061 0.0
C875 C 0.72941 0.69085 0.18448 0.0
C876 C 0.72024 0.69734 0.25792 0.0
H877 H 0.72182 0.69006 0.06151 0.0
H878 H 0.74153 0.67534 0.17929 0.0
S879 S 0.67314 0.74345 0.29873 0.0
N880 N 0.67455 0.74222 0.20302 0.0
N881 N 0.69398 0.72437 0.33063 0.0
C882 C 0.70358 0.71657 0.26227 0.0
C883 C 0.69302 0.72613 0.1933 0.0
C884 C 0.06472 0.71564 0.35012 0.0
C885 C 0.04633 0.70614 0.42042 0.0
C886 C 0.04781 0.71081 0.27915 0.0
C887 C 1.01199 0.69672 0.27647 0.0
H888 H 0.0917 0.72349 0.34908 0.0
H889 H 0.06225 0.71455 0.22606 0.0
S890 S 0.95412 0.67694 0.44668 0.0
N891 N 0.99212 0.68872 0.48472 0.0
N892 N 0.96009 0.68079 0.35175 0.0
C893 C 0.99443 0.69276 0.34723 0.0
C894 C 1.0117 0.69707 0.41943 0.0
C895 C 0.34496 1.01777 0.47804 0.0
C896 C 0.3274 0.98189 0.46992 0.0
C897 C 0.35516 0.03309 0.55114 0.0
C898 C 0.34928 1.013 0.61846 0.0
H899 H 0.35395 0.03409 0.42704 0.0
H900 H 0.37103 0.06082 0.55339 0.0
S901 S 0.29615 0.91782 0.62917 0.0
N902 N 0.29768 0.92669 0.53576 0.0
N903 N 0.31804 0.95531 0.67346 0.0
C904 C 0.32737 0.97716 0.61201 0.0
C905 C 0.31622 0.96161 0.5374 0.0
C906 C 0.4873 0.27591 0.63953 0.0
C907 C 0.4923 0.2782 0.55826 0.0
C908 C 0.48776 0.24972 0.68396 0.0
C909 C 0.49406 0.22493 0.64966 0.0
H910 H 0.48223 0.29415 0.66915 0.0
H911 H 0.48303 0.24892 0.7458 0.0
S912 S 0.51124 0.22101 0.43926 0.0
N913 N 0.50468 0.25388 0.44576 0.0
N914 N 0.50722 0.20596 0.52839 0.0
C915 C 0.50007 0.22762 0.56848 0.0
C916 C 0.49873 0.25379 0.52314 0.0
C917 C 0.28093 0.46868 0.73767 0.0
C918 C 0.28327 0.4742 0.81874 0.0
C919 C 0.2545 0.46848 0.69306 0.0
C920 C 0.22954 0.47463 0.72697 0.0
H921 H 0.2994 0.46385 0.70835 0.0
H922 H 0.25379 0.46361 0.63132 0.0
S923 S 0.22502 0.49206 0.93682 0.0
N924 N 0.25841 0.48634 0.93073 0.0
N925 N 0.20992 0.48745 0.84768 0.0
C926 C 0.23206 0.48083 0.80797 0.0
C927 C 0.25849 0.4802 0.85352 0.0
C928 C 0.79834 0.25481 1.01017 0.0
C929 C 0.82908 0.2804 0.97592 0.0
C930 C 0.77165 0.22887 0.96501 0.0
C931 C 0.77475 0.22671 0.88369 0.0
H932 H 0.79455 0.2552 0.07219 0.0
H933 H 0.74847 0.2101 0.9945 0.0
S934 S 0.85116 0.28608 0.76636 0.0
N935 N 0.86147 0.30099 0.85575 0.0
N936 N 0.8121 0.25225 0.77196 0.0
C937 C 0.80576 0.25169 0.84923 0.0
C938 C 0.83261 0.27844 0.89492 0.0
C939 C 0.57063 0.81996 0.06439 0.0
C940 C 0.56633 0.81823 0.14589 0.0
C941 C 0.56975 0.79275 0.02134 0.0
C942 C 0.56374 0.76204 0.05733 0.0
H943 H 0.57542 0.84289 0.03341 0.0
H944 H 0.57384 0.79589 0.95919 0.0
S945 S 0.54917 0.74365 0.26917 0.0
N946 N 0.55527 0.78287 0.26049 0.0
N947 N 0.55231 0.73156 0.18049 0.0
C948 C 0.55864 0.75976 0.13877 0.0
C949 C 0.5603 0.78778 0.18267 0.0
C950 C 0.77267 0.56127 0.23655 0.0
C951 C 0.77485 0.56827 0.31724 0.0
C952 C 0.80151 0.56616 0.19265 0.0
C953 C 0.83396 0.57846 0.22731 0.0
H954 H 0.74863 0.55268 0.20635 0.0
H955 H 0.79856 0.56128 0.13079 0.0
S956 S 0.8531 0.59814 0.43784 0.0
N957 N 0.8121 0.58622 0.43004 0.0
N958 N 0.8656 0.5955 0.34938 0.0
C959 C 0.83607 0.58444 0.3085 0.0
C960 C 0.80684 0.57937 0.35282 0.0
C961 C 0.25457 0.7883 0.49613 0.0
C962 C 0.23048 0.75681 0.4618 0.0
C963 C 0.28143 0.81485 0.45249 0.0
C964 C 0.28507 0.81164 0.37192 0.0
H965 H 0.25282 0.79252 0.55746 0.0
H966 H 0.29917 0.83845 0.48207 0.0
S967 S 0.22959 0.73471 0.25304 0.0
N968 N 0.21323 0.72401 0.34133 0.0
N969 N 0.2624 0.77433 0.25987 0.0
C970 C 0.26118 0.78054 0.33666 0.0
C971 C 0.23436 0.75311 0.38134 0.0
loop_
_geom_bond_atom_site_label_1
_geom_bond_atom_site_label_2
_geom_bond_distance
_geom_bond_site_symmetry_2
_ccdc_geom_bond_type
Co0 O2 2.143 . S
Co0 O8 2.074 . S
Co0 O11 2.093 . S
Co0 O24 2.097 . S
Co0 N41 2.151 . S
Co0 N49 2.214 . S
Co1 O2 2.160 . S
Co1 O7 2.058 . S
Co1 O17 2.057 . S
Co1 O32 2.037 . S
Co1 N36 2.145 . S
Co1 N57 2.257 . S
O2 Co0 2.143 . S
O2 Co1 2.160 . S
C3 O4 1.278 . S
C3 O11 1.224 . S
O4 C3 1.278 . S
C5 O6 1.245 . S
C5 O17 1.232 . S
O6 C5 1.245 . S
O7 Co1 2.058 . S
O7 C33 1.269 . S
O8 Co0 2.074 . S
O8 C33 1.257 . S
H9 C34 0.930 . S
H10 C40 0.930 . S
O11 Co0 2.093 . S
O11 C3 1.224 . S
H12 C44 0.929 . S
H13 C46 0.930 . S
H14 C47 0.930 . S
H15 C45 0.929 . S
H16 C48 0.928 . S
O17 Co1 2.057 . S
O17 C5 1.232 . S
H18 C37 0.929 . S
H19 C38 0.929 . S
H20 C50 0.931 . S
H21 C42 0.929 . S
H22 C51 0.930 . S
H23 C43 0.931 . S
O24 Co0 2.097 . S
O24 C52 1.214 . S
H25 C53 0.929 . S
H26 C54 0.929 . S
H27 C55 0.930 . S
H28 C56 0.929 . S
H29 C58 0.930 . S
H30 C35 0.930 . S
H31 C39 0.930 . S
O32 Co1 2.037 . S
O32 C52 1.234 . S
C33 O7 1.269 . S
C33 O8 1.257 . S
C34 H9 0.930 . S
C34 C37 1.388 . S
C34 C39 1.418 . S
C35 H30 0.930 . S
C35 C38 1.404 . S
C35 C39 1.353 . S
N36 Co1 2.145 . S
N36 C37 1.397 . S
N36 C38 1.334 . S
C37 H18 0.929 . S
C37 C34 1.388 . S
C37 N36 1.397 . S
C38 H19 0.929 . S
C38 C35 1.404 . S
C38 N36 1.334 . S
C39 H31 0.930 . S
C39 C34 1.418 . S
C39 C35 1.353 . S
C40 H10 0.930 . S
C40 N41 1.330 . S
C40 C42 1.446 . S
N41 Co0 2.151 . S
N41 C40 1.330 . S
N41 C45 1.418 . S
C42 H21 0.929 . S
C42 C40 1.446 . S
C42 C43 1.332 . S
C43 H23 0.931 . S
C43 C42 1.332 . S
C43 C44 1.267 . S
C44 H12 0.929 . S
C44 C43 1.267 . S
C44 C45 1.251 . S
C45 H15 0.929 . S
C45 N41 1.418 . S
C45 C44 1.251 . S
C46 H13 0.930 . S
C46 C48 1.406 . S
C46 C51 1.261 . S
C47 H14 0.930 . S
C47 N49 1.325 . S
C47 C50 1.357 . S
C48 H16 0.928 . S
C48 C46 1.406 . S
C48 N49 1.261 . S
N49 Co0 2.214 . S
N49 C47 1.325 . S
N49 C48 1.261 . S
C50 H20 0.931 . S
C50 C47 1.357 . S
C50 C51 1.312 . S
C51 H22 0.930 . S
C51 C46 1.261 . S
C51 C50 1.312 . S
C52 O24 1.214 . S
C52 O32 1.234 . S
C53 H25 0.929 . S
C53 C56 1.391 . S
C53 C58 1.391 . S
C54 H26 0.929 . S
C54 C55 1.390 . S
C54 N57 1.391 . S
C55 H27 0.930 . S
C55 C54 1.390 . S
C55 C56 1.392 . S
C56 H28 0.929 . S
C56 C53 1.391 . S
C56 C55 1.392 . S
N57 Co1 2.257 . S
N57 C54 1.391 . S
N57 C58 1.388 . S
C58 H29 0.930 . S
C58 C53 1.391 . S
C58 N57 1.388 . S
Co59 O61 2.143 . S
Co59 O67 2.074 . S
Co59 O70 2.093 . S
Co59 O83 2.097 . S
Co59 N100 2.151 . S
Co59 N108 2.214 . S
Co60 O61 2.160 . S
Co60 O66 2.058 . S
Co60 O76 2.057 . S
Co60 O91 2.037 . S
Co60 N95 2.145 . S
Co60 N116 2.257 . S
O61 Co59 2.143 . S
O61 Co60 2.160 . S
C62 O63 1.278 . S
C62 O70 1.224 . S
O63 C62 1.278 . S
C64 O65 1.245 . S
C64 O76 1.232 . S
O65 C64 1.245 . S
O66 Co60 2.058 . S
O66 C92 1.269 . S
O67 Co59 2.074 . S
O67 C92 1.257 . S
H68 C93 0.930 . S
H69 C99 0.930 . S
O70 Co59 2.093 . S
O70 C62 1.224 . S
H71 C103 0.929 . S
H72 C105 0.930 . S
H73 C106 0.930 . S
H74 C104 0.929 . S
H75 C107 0.928 . S
O76 Co60 2.057 . S
O76 C64 1.232 . S
H77 C96 0.929 . S
H78 C97 0.929 . S
H79 C109 0.931 . S
H80 C101 0.929 . S
H81 C110 0.930 . S
H82 C102 0.931 . S
O83 Co59 2.097 . S
O83 C111 1.214 . S
H84 C112 0.929 . S
H85 C113 0.929 . S
H86 C114 0.930 . S
H87 C115 0.929 . S
H88 C117 0.930 . S
H89 C94 0.930 . S
H90 C98 0.930 . S
O91 Co60 2.037 . S
O91 C111 1.234 . S
C92 O66 1.269 . S
C92 O67 1.257 . S
C93 H68 0.930 . S
C93 C96 1.388 . S
C93 C98 1.418 . S
C94 H89 0.930 . S
C94 C97 1.404 . S
C94 C98 1.353 . S
N95 Co60 2.145 . S
N95 C96 1.397 . S
N95 C97 1.334 . S
C96 H77 0.929 . S
C96 C93 1.388 . S
C96 N95 1.397 . S
C97 H78 0.929 . S
C97 C94 1.404 . S
C97 N95 1.334 . S
C98 H90 0.930 . S
C98 C93 1.418 . S
C98 C94 1.353 . S
C99 H69 0.930 . S
C99 N100 1.330 . S
C99 C101 1.446 . S
N100 Co59 2.151 . S
N100 C99 1.330 . S
N100 C104 1.418 . S
C101 H80 0.929 . S
C101 C99 1.446 . S
C101 C102 1.332 . S
C102 H82 0.931 . S
C102 C101 1.332 . S
C102 C103 1.267 . S
C103 H71 0.929 . S
C103 C102 1.267 . S
C103 C104 1.251 . S
C104 H74 0.929 . S
C104 N100 1.418 . S
C104 C103 1.251 . S
C105 H72 0.930 . S
C105 C107 1.406 1_655 S
C105 C110 1.261 . S
C106 H73 0.930 . S
C106 N108 1.325 . S
C106 C109 1.357 1_455 S
C107 H75 0.928 . S
C107 C105 1.406 1_455 S
C107 N108 1.261 . S
N108 Co59 2.214 . S
N108 C106 1.325 . S
N108 C107 1.261 . S
C109 H79 0.931 . S
C109 C106 1.357 1_655 S
C109 C110 1.312 . S
C110 H81 0.930 . S
C110 C105 1.261 . S
C110 C109 1.312 . S
C111 O83 1.214 . S
C111 O91 1.234 . S
C112 H84 0.929 . S
C112 C115 1.391 . S
C112 C117 1.391 . S
C113 H85 0.929 . S
C113 C114 1.390 . S
C113 N116 1.391 . S
C114 H86 0.930 . S
C114 C113 1.390 . S
C114 C115 1.392 . S
C115 H87 0.929 . S
C115 C112 1.391 . S
C115 C114 1.392 . S
N116 Co60 2.257 . S
N116 C113 1.391 . S
N116 C117 1.388 . S
C117 H88 0.930 . S
C117 C112 1.391 . S
C117 N116 1.388 . S
Co118 O120 2.143 . S
Co118 O126 2.074 . S
Co118 O129 2.093 . S
Co118 O142 2.097 . S
Co118 N159 2.151 . S
Co118 N167 2.214 . S
Co119 O120 2.160 . S
Co119 O125 2.058 . S
Co119 O135 2.057 . S
Co119 O150 2.037 . S
Co119 N154 2.145 . S
Co119 N175 2.257 . S
O120 Co118 2.143 . S
O120 Co119 2.160 . S
C121 O122 1.278 . S
C121 O129 1.224 . S
O122 C121 1.278 . S
C123 O124 1.245 . S
C123 O135 1.232 . S
O124 C123 1.245 . S
O125 Co119 2.058 . S
O125 C151 1.269 . S
O126 Co118 2.074 . S
O126 C151 1.257 . S
H127 C152 0.930 . S
H128 C158 0.930 . S
O129 Co118 2.093 . S
O129 C121 1.224 . S
H130 C162 0.929 . S
H131 C164 0.930 . S
H132 C165 0.930 . S
H133 C163 0.929 . S
H134 C166 0.928 . S
O135 Co119 2.057 . S
O135 C123 1.232 . S
H136 C155 0.929 . S
H137 C156 0.929 . S
H138 C168 0.931 . S
H139 C160 0.929 . S
H140 C169 0.930 . S
H141 C161 0.931 . S
O142 Co118 2.097 . S
O142 C170 1.214 . S
H143 C171 0.929 . S
H144 C172 0.929 . S
H145 C173 0.930 . S
H146 C174 0.929 . S
H147 C176 0.930 . S
H148 C153 0.930 . S
H149 C157 0.930 . S
O150 Co119 2.037 . S
O150 C170 1.234 . S
C151 O125 1.269 . S
C151 O126 1.257 . S
C152 H127 0.930 . S
C152 C155 1.388 . S
C152 C157 1.418 . S
C153 H148 0.930 . S
C153 C156 1.404 . S
C153 C157 1.353 . S
N154 Co119 2.145 . S
N154 C155 1.397 . S
N154 C156 1.334 . S
C155 H136 0.929 . S
C155 C152 1.388 . S
C155 N154 1.397 . S
C156 H137 0.929 . S
C156 C153 1.404 . S
C156 N154 1.334 . S
C157 H149 0.930 . S
C157 C152 1.418 . S
C157 C153 1.353 . S
C158 H128 0.930 . S
C158 N159 1.330 . S
C158 C160 1.446 1_556 S
N159 Co118 2.151 . S
N159 C158 1.330 . S
N159 C163 1.418 . S
C160 H139 0.929 . S
C160 C158 1.446 1_554 S
C160 C161 1.332 . S
C161 H141 0.931 . S
C161 C160 1.332 . S
C161 C162 1.267 1_554 S
C162 H130 0.929 . S
C162 C161 1.267 1_556 S
C162 C163 1.251 . S
C163 H133 0.929 . S
C163 N159 1.418 . S
C163 C162 1.251 . S
C164 H131 0.930 . S
C164 C166 1.406 1_565 S
C164 C169 1.261 . S
C165 H132 0.930 . S
C165 N167 1.325 . S
C165 C168 1.357 1_545 S
C166 H134 0.928 . S
C166 C164 1.406 1_545 S
C166 N167 1.261 . S
N167 Co118 2.214 . S
N167 C165 1.325 . S
N167 C166 1.261 . S
C168 H138 0.931 . S
C168 C165 1.357 1_565 S
C168 C169 1.312 . S
C169 H140 0.930 . S
C169 C164 1.261 . S
C169 C168 1.312 . S
C170 O142 1.214 . S
C170 O150 1.234 . S
C171 H143 0.929 . S
C171 C174 1.391 . S
C171 C176 1.391 . S
C172 H144 0.929 . S
C172 C173 1.390 . S
C172 N175 1.391 . S
C173 H145 0.930 . S
C173 C172 1.390 . S
C173 C174 1.392 . S
C174 H146 0.929 . S
C174 C171 1.391 . S
C174 C173 1.392 . S
N175 Co119 2.257 . S
N175 C172 1.391 . S
N175 C176 1.388 . S
C176 H147 0.930 . S
C176 C171 1.391 . S
C176 N175 1.388 . S
Co177 O179 2.143 . S
Co177 O185 2.074 . S
Co177 O188 2.093 1_556 S
Co177 O201 2.097 . S
Co177 N218 2.151 1_556 S
Co177 N226 2.214 . S
Co178 O179 2.160 . S
Co178 O184 2.058 . S
Co178 O194 2.057 . S
Co178 O209 2.037 . S
Co178 N213 2.145 . S
Co178 N234 2.257 . S
O179 Co177 2.143 . S
O179 Co178 2.160 . S
C180 O181 1.278 . S
C180 O188 1.224 . S
O181 C180 1.278 . S
C182 O183 1.245 1_556 S
C182 O194 1.232 . S
O183 C182 1.245 1_554 S
O184 Co178 2.058 . S
O184 C210 1.269 . S
O185 Co177 2.074 . S
O185 C210 1.257 . S
H186 C211 0.930 . S
H187 C217 0.930 . S
O188 Co177 2.093 1_554 S
O188 C180 1.224 . S
H189 C221 0.929 . S
H190 C223 0.930 1_554 S
H191 C224 0.930 . S
H192 C222 0.929 . S
H193 C225 0.928 1_554 S
O194 Co178 2.057 . S
O194 C182 1.232 . S
H195 C214 0.929 . S
H196 C215 0.929 . S
H197 C227 0.931 . S
H198 C219 0.929 . S
H199 C228 0.930 . S
H200 C220 0.931 . S
O201 Co177 2.097 . S
O201 C229 1.214 . S
H202 C230 0.929 . S
H203 C231 0.929 . S
H204 C232 0.930 . S
H205 C233 0.929 . S
H206 C235 0.930 . S
H207 C212 0.930 . S
H208 C216 0.930 . S
O209 Co178 2.037 . S
O209 C229 1.234 . S
C210 O184 1.269 . S
C210 O185 1.257 . S
C211 H186 0.930 . S
C211 C214 1.388 . S
C211 C216 1.418 . S
C212 H207 0.930 . S
C212 C215 1.404 . S
C212 C216 1.353 . S
N213 Co178 2.145 . S
N213 C214 1.397 . S
N213 C215 1.334 . S
C214 H195 0.929 . S
C214 C211 1.388 . S
C214 N213 1.397 . S
C215 H196 0.929 . S
C215 C212 1.404 . S
C215 N213 1.334 . S
C216 H208 0.930 . S
C216 C211 1.418 . S
C216 C212 1.353 . S
C217 H187 0.930 . S
C217 N218 1.330 . S
C217 C219 1.446 . S
N218 Co177 2.151 1_554 S
N218 C217 1.330 . S
N218 C222 1.418 . S
C219 H198 0.929 . S
C219 C217 1.446 . S
C219 C220 1.332 . S
C220 H200 0.931 . S
C220 C219 1.332 . S
C220 C221 1.267 . S
C221 H189 0.929 . S
C221 C220 1.267 . S
C221 C222 1.251 . S
C222 H192 0.929 . S
C222 N218 1.418 . S
C222 C221 1.251 . S
C223 H190 0.930 1_556 S
C223 C225 1.406 . S
C223 C228 1.261 . S
C224 H191 0.930 . S
C224 N226 1.325 . S
C224 C227 1.357 . S
C225 H193 0.928 1_556 S
C225 C223 1.406 . S
C225 N226 1.261 . S
N226 Co177 2.214 . S
N226 C224 1.325 . S
N226 C225 1.261 . S
C227 H197 0.931 . S
C227 C224 1.357 . S
C227 C228 1.312 . S
C228 H199 0.930 . S
C228 C223 1.261 . S
C228 C227 1.312 . S
C229 O201 1.214 . S
C229 O209 1.234 . S
C230 H202 0.929 . S
C230 C233 1.391 . S
C230 C235 1.391 . S
C231 H203 0.929 . S
C231 C232 1.390 . S
C231 N234 1.391 . S
C232 H204 0.930 . S
C232 C231 1.390 . S
C232 C233 1.392 . S
C233 H205 0.929 . S
C233 C230 1.391 . S
C233 C232 1.392 . S
N234 Co178 2.257 . S
N234 C231 1.391 . S
N234 C235 1.388 . S
C235 H206 0.930 . S
C235 C230 1.391 . S
C235 N234 1.388 . S
Co236 O238 2.143 . S
Co236 O244 2.074 . S
Co236 O247 2.093 . S
Co236 O260 2.097 . S
Co236 N277 2.151 . S
Co236 N285 2.214 . S
Co237 O238 2.160 . S
Co237 O243 2.058 . S
Co237 O253 2.057 . S
Co237 O268 2.037 1_554 S
Co237 N272 2.145 1_554 S
Co237 N293 2.257 . S
O238 Co236 2.143 . S
O238 Co237 2.160 . S
C239 O240 1.278 . S
C239 O247 1.224 . S
O240 C239 1.278 . S
C241 O242 1.245 . S
C241 O253 1.232 . S
O242 C241 1.245 . S
O243 Co237 2.058 . S
O243 C269 1.269 . S
O244 Co236 2.074 . S
O244 C269 1.257 . S
H245 C270 0.930 . S
H246 C276 0.930 . S
O247 Co236 2.093 . S
O247 C239 1.224 . S
H248 C280 0.929 . S
H249 C282 0.930 . S
H250 C283 0.930 . S
H251 C281 0.929 . S
H252 C284 0.928 . S
O253 Co237 2.057 . S
O253 C241 1.232 . S
H254 C273 0.929 . S
H255 C274 0.929 . S
H256 C286 0.931 1_556 S
H257 C278 0.929 . S
H258 C287 0.930 . S
H259 C279 0.931 . S
O260 Co236 2.097 . S
O260 C288 1.214 1_554 S
H261 C289 0.929 . S
H262 C290 0.929 . S
H263 C291 0.930 . S
H264 C292 0.929 . S
H265 C294 0.930 . S
H266 C271 0.930 . S
H267 C275 0.930 . S
O268 Co237 2.037 1_556 S
O268 C288 1.234 . S
C269 O243 1.269 . S
C269 O244 1.257 . S
C270 H245 0.930 . S
C270 C273 1.388 . S
C270 C275 1.418 . S
C271 H266 0.930 . S
C271 C274 1.404 . S
C271 C275 1.353 . S
N272 Co237 2.145 1_556 S
N272 C273 1.397 . S
N272 C274 1.334 . S
C273 H254 0.929 . S
C273 C270 1.388 . S
C273 N272 1.397 . S
C274 H255 0.929 . S
C274 C271 1.404 . S
C274 N272 1.334 . S
C275 H267 0.930 . S
C275 C270 1.418 . S
C275 C271 1.353 . S
C276 H246 0.930 . S
C276 N277 1.330 . S
C276 C278 1.446 . S
N277 Co236 2.151 . S
N277 C276 1.330 . S
N277 C281 1.418 . S
C278 H257 0.929 . S
C278 C276 1.446 . S
C278 C279 1.332 . S
C279 H259 0.931 . S
C279 C278 1.332 . S
C279 C280 1.267 . S
C280 H248 0.929 . S
C280 C279 1.267 . S
C280 C281 1.251 . S
C281 H251 0.929 . S
C281 N277 1.418 . S
C281 C280 1.251 . S
C282 H249 0.930 . S
C282 C284 1.406 1_455 S
C282 C287 1.261 . S
C283 H250 0.930 . S
C283 N285 1.325 . S
C283 C286 1.357 1_655 S
C284 H252 0.928 . S
C284 C282 1.406 1_655 S
C284 N285 1.261 . S
N285 Co236 2.214 . S
N285 C283 1.325 . S
N285 C284 1.261 . S
C286 H256 0.931 1_554 S
C286 C283 1.357 1_455 S
C286 C287 1.312 . S
C287 H258 0.930 . S
C287 C282 1.261 . S
C287 C286 1.312 . S
C288 O260 1.214 1_556 S
C288 O268 1.234 . S
C289 H261 0.929 . S
C289 C292 1.391 . S
C289 C294 1.391 . S
C290 H262 0.929 . S
C290 C291 1.390 . S
C290 N293 1.391 1_556 S
C291 H263 0.930 . S
C291 C290 1.390 . S
C291 C292 1.392 1_556 S
C292 H264 0.929 . S
C292 C289 1.391 . S
C292 C291 1.392 1_554 S
N293 Co237 2.257 . S
N293 C290 1.391 1_554 S
N293 C294 1.388 . S
C294 H265 0.930 . S
C294 C289 1.391 . S
C294 N293 1.388 . S
Co295 O297 2.143 . S
Co295 O303 2.074 . S
Co295 O306 2.093 . S
Co295 O319 2.097 . S
Co295 N336 2.151 . S
Co295 N344 2.214 . S
Co296 O297 2.160 . S
Co296 O302 2.058 . S
Co296 O312 2.057 . S
Co296 O327 2.037 . S
Co296 N331 2.145 . S
Co296 N352 2.257 . S
O297 Co295 2.143 . S
O297 Co296 2.160 . S
C298 O299 1.278 . S
C298 O306 1.224 . S
O299 C298 1.278 . S
C300 O301 1.245 . S
C300 O312 1.232 . S
O301 C300 1.245 . S
O302 Co296 2.058 . S
O302 C328 1.269 . S
O303 Co295 2.074 . S
O303 C328 1.257 . S
H304 C329 0.930 . S
H305 C335 0.930 . S
O306 Co295 2.093 . S
O306 C298 1.224 . S
H307 C339 0.929 . S
H308 C341 0.930 . S
H309 C342 0.930 . S
H310 C340 0.929 . S
H311 C343 0.928 . S
O312 Co296 2.057 . S
O312 C300 1.232 . S
H313 C332 0.929 . S
H314 C333 0.929 . S
H315 C345 0.931 . S
H316 C337 0.929 . S
H317 C346 0.930 . S
H318 C338 0.931 . S
O319 Co295 2.097 . S
O319 C347 1.214 . S
H320 C348 0.929 . S
H321 C349 0.929 . S
H322 C350 0.930 . S
H323 C351 0.929 . S
H324 C353 0.930 . S
H325 C330 0.930 . S
H326 C334 0.930 . S
O327 Co296 2.037 . S
O327 C347 1.234 . S
C328 O302 1.269 . S
C328 O303 1.257 . S
C329 H304 0.930 . S
C329 C332 1.388 1_556 S
C329 C334 1.418 . S
C330 H325 0.930 . S
C330 C333 1.404 . S
C330 C334 1.353 1_554 S
N331 Co296 2.145 . S
N331 C332 1.397 . S
N331 C333 1.334 . S
C332 H313 0.929 . S
C332 C329 1.388 1_554 S
C332 N331 1.397 . S
C333 H314 0.929 . S
C333 C330 1.404 . S
C333 N331 1.334 . S
C334 H326 0.930 . S
C334 C329 1.418 . S
C334 C330 1.353 1_556 S
C335 H305 0.930 . S
C335 N336 1.330 . S
C335 C337 1.446 . S
N336 Co295 2.151 . S
N336 C335 1.330 . S
N336 C340 1.418 . S
C337 H316 0.929 . S
C337 C335 1.446 . S
C337 C338 1.332 . S
C338 H318 0.931 . S
C338 C337 1.332 . S
C338 C339 1.267 . S
C339 H307 0.929 . S
C339 C338 1.267 . S
C339 C340 1.251 . S
C340 H310 0.929 . S
C340 N336 1.418 . S
C340 C339 1.251 . S
C341 H308 0.930 . S
C341 C343 1.406 1_545 S
C341 C346 1.261 . S
C342 H309 0.930 . S
C342 N344 1.325 . S
C342 C345 1.357 1_565 S
C343 H311 0.928 . S
C343 C341 1.406 1_565 S
C343 N344 1.261 . S
N344 Co295 2.214 . S
N344 C342 1.325 . S
N344 C343 1.261 . S
C345 H315 0.931 . S
C345 C342 1.357 1_545 S
C345 C346 1.312 . S
C346 H317 0.930 . S
C346 C341 1.261 . S
C346 C345 1.312 . S
C347 O319 1.214 . S
C347 O327 1.234 . S
C348 H320 0.929 . S
C348 C351 1.391 . S
C348 C353 1.391 . S
C349 H321 0.929 . S
C349 C350 1.390 . S
C349 N352 1.391 . S
C350 H322 0.930 . S
C350 C349 1.390 . S
C350 C351 1.392 . S
C351 H323 0.929 . S
C351 C348 1.391 . S
C351 C350 1.392 . S
N352 Co296 2.257 . S
N352 C349 1.391 . S
N352 C353 1.388 . S
C353 H324 0.930 . S
C353 C348 1.391 . S
C353 N352 1.388 . S
Co354 O356 2.143 . S
Co354 O362 2.074 . S
Co354 O365 2.093 . S
Co354 O378 2.097 . S
Co354 N395 2.151 . S
Co354 N403 2.214 . S
Co355 O356 2.160 . S
Co355 O361 2.058 . S
Co355 O371 2.057 . S
Co355 O386 2.037 . S
Co355 N390 2.145 . S
Co355 N411 2.257 . S
O356 Co354 2.143 . S
O356 Co355 2.160 . S
C357 O358 1.278 . S
C357 O365 1.224 . S
O358 C357 1.278 . S
C359 O360 1.245 . S
C359 O371 1.232 . S
O360 C359 1.245 . S
O361 Co355 2.058 . S
O361 C387 1.269 . S
O362 Co354 2.074 . S
O362 C387 1.257 . S
H363 C388 0.930 . S
H364 C394 0.930 . S
O365 Co354 2.093 . S
O365 C357 1.224 . S
H366 C398 0.929 . S
H367 C400 0.930 . S
H368 C401 0.930 . S
H369 C399 0.929 . S
H370 C402 0.928 . S
O371 Co355 2.057 . S
O371 C359 1.232 . S
H372 C391 0.929 . S
H373 C392 0.929 . S
H374 C404 0.931 . S
H375 C396 0.929 . S
H376 C405 0.930 . S
H377 C397 0.931 . S
O378 Co354 2.097 . S
O378 C406 1.214 . S
H379 C407 0.929 . S
H380 C408 0.929 . S
H381 C409 0.930 . S
H382 C410 0.929 . S
H383 C412 0.930 . S
H384 C389 0.930 . S
H385 C393 0.930 . S
O386 Co355 2.037 . S
O386 C406 1.234 . S
C387 O361 1.269 . S
C387 O362 1.257 . S
C388 H363 0.930 . S
C388 C391 1.388 . S
C388 C393 1.418 . S
C389 H384 0.930 . S
C389 C392 1.404 . S
C389 C393 1.353 . S
N390 Co355 2.145 . S
N390 C391 1.397 . S
N390 C392 1.334 . S
C391 H372 0.929 . S
C391 C388 1.388 . S
C391 N390 1.397 . S
C392 H373 0.929 . S
C392 C389 1.404 . S
C392 N390 1.334 . S
C393 H385 0.930 . S
C393 C388 1.418 . S
C393 C389 1.353 . S
C394 H364 0.930 . S
C394 N395 1.330 . S
C394 C396 1.446 . S
N395 Co354 2.151 . S
N395 C394 1.330 . S
N395 C399 1.418 . S
C396 H375 0.929 . S
C396 C394 1.446 . S
C396 C397 1.332 . S
C397 H377 0.931 . S
C397 C396 1.332 . S
C397 C398 1.267 . S
C398 H366 0.929 . S
C398 C397 1.267 . S
C398 C399 1.251 . S
C399 H369 0.929 . S
C399 N395 1.418 . S
C399 C398 1.251 . S
C400 H367 0.930 . S
C400 C402 1.406 . S
C400 C405 1.261 . S
C401 H368 0.930 . S
C401 N403 1.325 . S
C401 C404 1.357 . S
C402 H370 0.928 . S
C402 C400 1.406 . S
C402 N403 1.261 . S
N403 Co354 2.214 . S
N403 C401 1.325 . S
N403 C402 1.261 . S
C404 H374 0.931 . S
C404 C401 1.357 . S
C404 C405 1.312 . S
C405 H376 0.930 . S
C405 C400 1.261 . S
C405 C404 1.312 . S
C406 O378 1.214 . S
C406 O386 1.234 . S
C407 H379 0.929 . S
C407 C410 1.391 . S
C407 C412 1.391 . S
C408 H380 0.929 . S
C408 C409 1.390 . S
C408 N411 1.391 . S
C409 H381 0.930 . S
C409 C408 1.390 . S
C409 C410 1.392 . S
C410 H382 0.929 . S
C410 C407 1.391 . S
C410 C409 1.392 . S
N411 Co355 2.257 . S
N411 C408 1.391 . S
N411 C412 1.388 . S
C412 H383 0.930 . S
C412 C407 1.391 . S
C412 N411 1.388 . S
Co413 O415 2.143 . S
Co413 O421 2.074 . S
Co413 O424 2.093 . S
Co413 O437 2.097 . S
Co413 N454 2.151 . S
Co413 N462 2.214 . S
Co414 O415 2.160 . S
Co414 O420 2.058 . S
Co414 O430 2.057 . S
Co414 O445 2.037 . S
Co414 N449 2.145 . S
Co414 N470 2.257 . S
O415 Co413 2.143 . S
O415 Co414 2.160 . S
C416 O417 1.278 . S
C416 O424 1.224 . S
O417 C416 1.278 . S
C418 O419 1.245 . S
C418 O430 1.232 . S
O419 C418 1.245 . S
O420 Co414 2.058 . S
O420 C446 1.269 . S
O421 Co413 2.074 . S
O421 C446 1.257 . S
H422 C447 0.930 . S
H423 C453 0.930 . S
O424 Co413 2.093 . S
O424 C416 1.224 . S
H425 C457 0.929 . S
H426 C459 0.930 . S
H427 C460 0.930 . S
H428 C458 0.929 . S
H429 C461 0.928 . S
O430 Co414 2.057 . S
O430 C418 1.232 . S
H431 C450 0.929 . S
H432 C451 0.929 . S
H433 C463 0.931 . S
H434 C455 0.929 . S
H435 C464 0.930 . S
H436 C456 0.931 . S
O437 Co413 2.097 . S
O437 C465 1.214 . S
H438 C466 0.929 . S
H439 C467 0.929 . S
H440 C468 0.930 . S
H441 C469 0.929 . S
H442 C471 0.930 . S
H443 C448 0.930 . S
H444 C452 0.930 . S
O445 Co414 2.037 . S
O445 C465 1.234 . S
C446 O420 1.269 . S
C446 O421 1.257 . S
C447 H422 0.930 . S
C447 C450 1.388 . S
C447 C452 1.418 . S
C448 H443 0.930 . S
C448 C451 1.404 . S
C448 C452 1.353 . S
N449 Co414 2.145 . S
N449 C450 1.397 . S
N449 C451 1.334 . S
C450 H431 0.929 . S
C450 C447 1.388 . S
C450 N449 1.397 . S
C451 H432 0.929 . S
C451 C448 1.404 . S
C451 N449 1.334 . S
C452 H444 0.930 . S
C452 C447 1.418 . S
C452 C448 1.353 . S
C453 H423 0.930 . S
C453 N454 1.330 . S
C453 C455 1.446 . S
N454 Co413 2.151 . S
N454 C453 1.330 . S
N454 C458 1.418 . S
C455 H434 0.929 . S
C455 C453 1.446 . S
C455 C456 1.332 . S
C456 H436 0.931 . S
C456 C455 1.332 . S
C456 C457 1.267 . S
C457 H425 0.929 . S
C457 C456 1.267 . S
C457 C458 1.251 . S
C458 H428 0.929 . S
C458 N454 1.418 . S
C458 C457 1.251 . S
C459 H426 0.930 . S
C459 C461 1.406 1_655 S
C459 C464 1.261 . S
C460 H427 0.930 . S
C460 N462 1.325 . S
C460 C463 1.357 1_455 S
C461 H429 0.928 . S
C461 C459 1.406 1_455 S
C461 N462 1.261 . S
N462 Co413 2.214 . S
N462 C460 1.325 . S
N462 C461 1.261 . S
C463 H433 0.931 . S
C463 C460 1.357 1_655 S
C463 C464 1.312 . S
C464 H435 0.930 . S
C464 C459 1.261 . S
C464 C463 1.312 . S
C465 O437 1.214 . S
C465 O445 1.234 . S
C466 H438 0.929 . S
C466 C469 1.391 . S
C466 C471 1.391 . S
C467 H439 0.929 . S
C467 C468 1.390 . S
C467 N470 1.391 . S
C468 H440 0.930 . S
C468 C467 1.390 . S
C468 C469 1.392 . S
C469 H441 0.929 . S
C469 C466 1.391 . S
C469 C468 1.392 . S
N470 Co414 2.257 . S
N470 C467 1.391 . S
N470 C471 1.388 . S
C471 H442 0.930 . S
C471 C466 1.391 . S
C471 N470 1.388 . S
Co472 O474 2.143 . S
Co472 O480 2.074 . S
Co472 O483 2.093 . S
Co472 O496 2.097 . S
Co472 N513 2.151 . S
Co472 N521 2.214 . S
Co473 O474 2.160 . S
Co473 O479 2.058 . S
Co473 O489 2.057 . S
Co473 O504 2.037 . S
Co473 N508 2.145 . S
Co473 N529 2.257 . S
O474 Co472 2.143 . S
O474 Co473 2.160 . S
C475 O476 1.278 . S
C475 O483 1.224 . S
O476 C475 1.278 . S
C477 O478 1.245 . S
C477 O489 1.232 . S
O478 C477 1.245 . S
O479 Co473 2.058 . S
O479 C505 1.269 . S
O480 Co472 2.074 . S
O480 C505 1.257 . S
H481 C506 0.930 . S
H482 C512 0.930 . S
O483 Co472 2.093 . S
O483 C475 1.224 . S
H484 C516 0.929 . S
H485 C518 0.930 . S
H486 C519 0.930 . S
H487 C517 0.929 . S
H488 C520 0.928 . S
O489 Co473 2.057 . S
O489 C477 1.232 . S
H490 C509 0.929 . S
H491 C510 0.929 . S
H492 C522 0.931 . S
H493 C514 0.929 . S
H494 C523 0.930 . S
H495 C515 0.931 . S
O496 Co472 2.097 . S
O496 C524 1.214 . S
H497 C525 0.929 . S
H498 C526 0.929 . S
H499 C527 0.930 . S
H500 C528 0.929 . S
H501 C530 0.930 . S
H502 C507 0.930 . S
H503 C511 0.930 . S
O504 Co473 2.037 . S
O504 C524 1.234 . S
C505 O479 1.269 . S
C505 O480 1.257 . S
C506 H481 0.930 . S
C506 C509 1.388 1_554 S
C506 C511 1.418 . S
C507 H502 0.930 . S
C507 C510 1.404 . S
C507 C511 1.353 1_556 S
N508 Co473 2.145 . S
N508 C509 1.397 . S
N508 C510 1.334 . S
C509 H490 0.929 . S
C509 C506 1.388 1_556 S
C509 N508 1.397 . S
C510 H491 0.929 . S
C510 C507 1.404 . S
C510 N508 1.334 . S
C511 H503 0.930 . S
C511 C506 1.418 . S
C511 C507 1.353 1_554 S
C512 H482 0.930 . S
C512 N513 1.330 . S
C512 C514 1.446 . S
N513 Co472 2.151 . S
N513 C512 1.330 . S
N513 C517 1.418 . S
C514 H493 0.929 . S
C514 C512 1.446 . S
C514 C515 1.332 . S
C515 H495 0.931 . S
C515 C514 1.332 . S
C515 C516 1.267 . S
C516 H484 0.929 . S
C516 C515 1.267 . S
C516 C517 1.251 . S
C517 H487 0.929 . S
C517 N513 1.418 . S
C517 C516 1.251 . S
C518 H485 0.930 . S
C518 C520 1.406 1_565 S
C518 C523 1.261 . S
C519 H486 0.930 . S
C519 N521 1.325 . S
C519 C522 1.357 1_545 S
C520 H488 0.928 . S
C520 C518 1.406 1_545 S
C520 N521 1.261 . S
N521 Co472 2.214 . S
N521 C519 1.325 . S
N521 C520 1.261 . S
C522 H492 0.931 . S
C522 C519 1.357 1_565 S
C522 C523 1.312 . S
C523 H494 0.930 . S
C523 C518 1.261 . S
C523 C522 1.312 . S
C524 O496 1.214 . S
C524 O504 1.234 . S
C525 H497 0.929 . S
C525 C528 1.391 . S
C525 C530 1.391 . S
C526 H498 0.929 . S
C526 C527 1.390 . S
C526 N529 1.391 . S
C527 H499 0.930 . S
C527 C526 1.390 . S
C527 C528 1.392 . S
C528 H500 0.929 . S
C528 C525 1.391 . S
C528 C527 1.392 . S
N529 Co473 2.257 . S
N529 C526 1.391 . S
N529 C530 1.388 . S
C530 H501 0.930 . S
C530 C525 1.391 . S
C530 N529 1.388 . S
Co531 O533 2.143 . S
Co531 O539 2.074 . S
Co531 O542 2.093 . S
Co531 O555 2.097 . S
Co531 N572 2.151 . S
Co531 N580 2.214 . S
Co532 O533 2.160 . S
Co532 O538 2.058 . S
Co532 O548 2.057 . S
Co532 O563 2.037 1_556 S
Co532 N567 2.145 1_556 S
Co532 N588 2.257 . S
O533 Co531 2.143 . S
O533 Co532 2.160 . S
C534 O535 1.278 . S
C534 O542 1.224 . S
O535 C534 1.278 . S
C536 O537 1.245 . S
C536 O548 1.232 . S
O537 C536 1.245 . S
O538 Co532 2.058 . S
O538 C564 1.269 . S
O539 Co531 2.074 . S
O539 C564 1.257 . S
H540 C565 0.930 . S
H541 C571 0.930 . S
O542 Co531 2.093 . S
O542 C534 1.224 . S
H543 C575 0.929 . S
H544 C577 0.930 . S
H545 C578 0.930 . S
H546 C576 0.929 . S
H547 C579 0.928 . S
O548 Co532 2.057 . S
O548 C536 1.232 . S
H549 C568 0.929 . S
H550 C569 0.929 . S
H551 C581 0.931 1_554 S
H552 C573 0.929 . S
H553 C582 0.930 . S
H554 C574 0.931 . S
O555 Co531 2.097 . S
O555 C583 1.214 1_556 S
H556 C584 0.929 . S
H557 C585 0.929 . S
H558 C586 0.930 . S
H559 C587 0.929 . S
H560 C589 0.930 . S
H561 C566 0.930 . S
H562 C570 0.930 . S
O563 Co532 2.037 1_554 S
O563 C583 1.234 . S
C564 O538 1.269 . S
C564 O539 1.257 . S
C565 H540 0.930 . S
C565 C568 1.388 . S
C565 C570 1.418 . S
C566 H561 0.930 . S
C566 C569 1.404 . S
C566 C570 1.353 . S
N567 Co532 2.145 1_554 S
N567 C568 1.397 . S
N567 C569 1.334 . S
C568 H549 0.929 . S
C568 C565 1.388 . S
C568 N567 1.397 . S
C569 H550 0.929 . S
C569 C566 1.404 . S
C569 N567 1.334 . S
C570 H562 0.930 . S
C570 C565 1.418 . S
C570 C566 1.353 . S
C571 H541 0.930 . S
C571 N572 1.330 . S
C571 C573 1.446 . S
N572 Co531 2.151 . S
N572 C571 1.330 . S
N572 C576 1.418 . S
C573 H552 0.929 . S
C573 C571 1.446 . S
C573 C574 1.332 . S
C574 H554 0.931 . S
C574 C573 1.332 . S
C574 C575 1.267 . S
C575 H543 0.929 . S
C575 C574 1.267 . S
C575 C576 1.251 . S
C576 H546 0.929 . S
C576 N572 1.418 . S
C576 C575 1.251 . S
C577 H544 0.930 . S
C577 C579 1.406 . S
C577 C582 1.261 . S
C578 H545 0.930 . S
C578 N580 1.325 . S
C578 C581 1.357 . S
C579 H547 0.928 . S
C579 C577 1.406 . S
C579 N580 1.261 . S
N580 Co531 2.214 . S
N580 C578 1.325 . S
N580 C579 1.261 . S
C581 H551 0.931 1_556 S
C581 C578 1.357 . S
C581 C582 1.312 . S
C582 H553 0.930 . S
C582 C577 1.261 . S
C582 C581 1.312 . S
C583 O555 1.214 1_554 S
C583 O563 1.234 . S
C584 H556 0.929 . S
C584 C587 1.391 . S
C584 C589 1.391 . S
C585 H557 0.929 . S
C585 C586 1.390 . S
C585 N588 1.391 1_554 S
C586 H558 0.930 . S
C586 C585 1.390 . S
C586 C587 1.392 1_554 S
C587 H559 0.929 . S
C587 C584 1.391 . S
C587 C586 1.392 1_556 S
N588 Co532 2.257 . S
N588 C585 1.391 1_556 S
N588 C589 1.388 . S
C589 H560 0.930 . S
C589 C584 1.391 . S
C589 N588 1.388 . S
Co590 O592 2.143 . S
Co590 O598 2.074 . S
Co590 O601 2.093 1_554 S
Co590 O614 2.097 . S
Co590 N631 2.151 1_554 S
Co590 N639 2.214 . S
Co591 O592 2.160 . S
Co591 O597 2.058 . S
Co591 O607 2.057 . S
Co591 O622 2.037 . S
Co591 N626 2.145 . S
Co591 N647 2.257 . S
O592 Co590 2.143 . S
O592 Co591 2.160 . S
C593 O594 1.278 . S
C593 O601 1.224 . S
O594 C593 1.278 . S
C595 O596 1.245 1_554 S
C595 O607 1.232 . S
O596 C595 1.245 1_556 S
O597 Co591 2.058 . S
O597 C623 1.269 . S
O598 Co590 2.074 . S
O598 C623 1.257 . S
H599 C624 0.930 . S
H600 C630 0.930 . S
O601 Co590 2.093 1_556 S
O601 C593 1.224 . S
H602 C634 0.929 . S
H603 C636 0.930 1_556 S
H604 C637 0.930 . S
H605 C635 0.929 . S
H606 C638 0.928 1_556 S
O607 Co591 2.057 . S
O607 C595 1.232 . S
H608 C627 0.929 . S
H609 C628 0.929 . S
H610 C640 0.931 . S
H611 C632 0.929 . S
H612 C641 0.930 . S
H613 C633 0.931 . S
O614 Co590 2.097 . S
O614 C642 1.214 . S
H615 C643 0.929 . S
H616 C644 0.929 . S
H617 C645 0.930 . S
H618 C646 0.929 . S
H619 C648 0.930 . S
H620 C625 0.930 . S
H621 C629 0.930 . S
O622 Co591 2.037 . S
O622 C642 1.234 . S
C623 O597 1.269 . S
C623 O598 1.257 . S
C624 H599 0.930 . S
C624 C627 1.388 . S
C624 C629 1.418 . S
C625 H620 0.930 . S
C625 C628 1.404 . S
C625 C629 1.353 . S
N626 Co591 2.145 . S
N626 C627 1.397 . S
N626 C628 1.334 . S
C627 H608 0.929 . S
C627 C624 1.388 . S
C627 N626 1.397 . S
C628 H609 0.929 . S
C628 C625 1.404 . S
C628 N626 1.334 . S
C629 H621 0.930 . S
C629 C624 1.418 . S
C629 C625 1.353 . S
C630 H600 0.930 . S
C630 N631 1.330 . S
C630 C632 1.446 . S
N631 Co590 2.151 1_556 S
N631 C630 1.330 . S
N631 C635 1.418 . S
C632 H611 0.929 . S
C632 C630 1.446 . S
C632 C633 1.332 . S
C633 H613 0.931 . S
C633 C632 1.332 . S
C633 C634 1.267 . S
C634 H602 0.929 . S
C634 C633 1.267 . S
C634 C635 1.251 . S
C635 H605 0.929 . S
C635 N631 1.418 . S
C635 C634 1.251 . S
C636 H603 0.930 1_554 S
C636 C638 1.406 1_455 S
C636 C641 1.261 . S
C637 H604 0.930 . S
C637 N639 1.325 . S
C637 C640 1.357 1_655 S
C638 H606 0.928 1_554 S
C638 C636 1.406 1_655 S
C638 N639 1.261 . S
N639 Co590 2.214 . S
N639 C637 1.325 . S
N639 C638 1.261 . S
C640 H610 0.931 . S
C640 C637 1.357 1_455 S
C640 C641 1.312 . S
C641 H612 0.930 . S
C641 C636 1.261 . S
C641 C640 1.312 . S
C642 O614 1.214 . S
C642 O622 1.234 . S
C643 H615 0.929 . S
C643 C646 1.391 . S
C643 C648 1.391 . S
C644 H616 0.929 . S
C644 C645 1.390 . S
C644 N647 1.391 . S
C645 H617 0.930 . S
C645 C644 1.390 . S
C645 C646 1.392 . S
C646 H618 0.929 . S
C646 C643 1.391 . S
C646 C645 1.392 . S
N647 Co591 2.257 . S
N647 C644 1.391 . S
N647 C648 1.388 . S
C648 H619 0.930 . S
C648 C643 1.391 . S
C648 N647 1.388 . S
Co649 O651 2.143 . S
Co649 O657 2.074 . S
Co649 O660 2.093 . S
Co649 O673 2.097 . S
Co649 N690 2.151 . S
Co649 N698 2.214 . S
Co650 O651 2.160 . S
Co650 O656 2.058 . S
Co650 O666 2.057 . S
Co650 O681 2.037 . S
Co650 N685 2.145 . S
Co650 N706 2.257 . S
O651 Co649 2.143 . S
O651 Co650 2.160 . S
C652 O653 1.278 . S
C652 O660 1.224 . S
O653 C652 1.278 . S
C654 O655 1.245 . S
C654 O666 1.232 . S
O655 C654 1.245 . S
O656 Co650 2.058 . S
O656 C682 1.269 . S
O657 Co649 2.074 . S
O657 C682 1.257 . S
H658 C683 0.930 . S
H659 C689 0.930 . S
O660 Co649 2.093 . S
O660 C652 1.224 . S
H661 C693 0.929 . S
H662 C695 0.930 . S
H663 C696 0.930 . S
H664 C694 0.929 . S
H665 C697 0.928 . S
O666 Co650 2.057 . S
O666 C654 1.232 . S
H667 C686 0.929 . S
H668 C687 0.929 . S
H669 C699 0.931 . S
H670 C691 0.929 . S
H671 C700 0.930 . S
H672 C692 0.931 . S
O673 Co649 2.097 . S
O673 C701 1.214 . S
H674 C702 0.929 . S
H675 C703 0.929 . S
H676 C704 0.930 . S
H677 C705 0.929 . S
H678 C707 0.930 . S
H679 C684 0.930 . S
H680 C688 0.930 . S
O681 Co650 2.037 . S
O681 C701 1.234 . S
C682 O656 1.269 . S
C682 O657 1.257 . S
C683 H658 0.930 . S
C683 C686 1.388 . S
C683 C688 1.418 . S
C684 H679 0.930 . S
C684 C687 1.404 . S
C684 C688 1.353 . S
N685 Co650 2.145 . S
N685 C686 1.397 . S
N685 C687 1.334 . S
C686 H667 0.929 . S
C686 C683 1.388 . S
C686 N685 1.397 . S
C687 H668 0.929 . S
C687 C684 1.404 . S
C687 N685 1.334 . S
C688 H680 0.930 . S
C688 C683 1.418 . S
C688 C684 1.353 . S
C689 H659 0.930 . S
C689 N690 1.330 . S
C689 C691 1.446 1_554 S
N690 Co649 2.151 . S
N690 C689 1.330 . S
N690 C694 1.418 . S
C691 H670 0.929 . S
C691 C689 1.446 1_556 S
C691 C692 1.332 . S
C692 H672 0.931 . S
C692 C691 1.332 . S
C692 C693 1.267 1_556 S
C693 H661 0.929 . S
C693 C692 1.267 1_554 S
C693 C694 1.251 . S
C694 H664 0.929 . S
C694 N690 1.418 . S
C694 C693 1.251 . S
C695 H662 0.930 . S
C695 C697 1.406 1_545 S
C695 C700 1.261 . S
C696 H663 0.930 . S
C696 N698 1.325 . S
C696 C699 1.357 1_565 S
C697 H665 0.928 . S
C697 C695 1.406 1_565 S
C697 N698 1.261 . S
N698 Co649 2.214 . S
N698 C696 1.325 . S
N698 C697 1.261 . S
C699 H669 0.931 . S
C699 C696 1.357 1_545 S
C699 C700 1.312 . S
C700 H671 0.930 . S
C700 C695 1.261 . S
C700 C699 1.312 . S
C701 O673 1.214 . S
C701 O681 1.234 . S
C702 H674 0.929 . S
C702 C705 1.391 . S
C702 C707 1.391 . S
C703 H675 0.929 . S
C703 C704 1.390 . S
C703 N706 1.391 . S
C704 H676 0.930 . S
C704 C703 1.390 . S
C704 C705 1.392 . S
C705 H677 0.929 . S
C705 C702 1.391 . S
C705 C704 1.392 . S
N706 Co650 2.257 . S
N706 C703 1.391 . S
N706 C707 1.388 . S
C707 H678 0.930 . S
C707 C702 1.391 . S
C707 N706 1.388 . S
C708 C709 1.369 . S
C708 C710 1.419 . S
C708 H712 0.930 . S
C709 C708 1.369 . S
C709 C718 1.429 . S
C710 C708 1.419 . S
C710 C711 1.363 . S
C710 H713 0.929 . S
C711 C710 1.363 . S
C711 C717 1.428 . S
H712 C708 0.930 . S
H713 C710 0.929 . S
S714 N715 1.613 . S
S714 N716 1.610 . S
N715 S714 1.613 . S
N715 C718 1.350 . S
N716 S714 1.610 . S
N716 C717 1.351 . S
C717 C711 1.428 . S
C717 N716 1.351 . S
C717 C718 1.434 . S
C718 C709 1.429 . S
C718 N715 1.350 . S
C718 C717 1.434 . S
C719 C720 1.369 . S
C719 C721 1.419 1_455 S
C719 H723 0.930 . S
C720 C719 1.369 . S
C720 C729 1.429 . S
C721 C719 1.419 1_655 S
C721 C722 1.363 . S
C721 H724 0.929 . S
C722 C721 1.363 . S
C722 C728 1.428 . S
H723 C719 0.930 . S
H724 C721 0.929 . S
S725 N726 1.613 1_655 S
S725 N727 1.610 . S
N726 S725 1.613 1_455 S
N726 C729 1.350 . S
N727 S725 1.610 . S
N727 C728 1.351 . S
C728 C722 1.428 . S
C728 N727 1.351 . S
C728 C729 1.434 1_655 S
C729 C720 1.429 . S
C729 N726 1.350 . S
C729 C728 1.434 1_455 S
C730 C731 1.369 . S
C730 C732 1.419 . S
C730 H734 0.930 . S
C731 C730 1.369 . S
C731 C740 1.429 1_565 S
C732 C730 1.419 . S
C732 C733 1.363 1_565 S
C732 H735 0.929 . S
C733 C732 1.363 1_545 S
C733 C739 1.428 . S
H734 C730 0.930 . S
H735 C732 0.929 . S
S736 N737 1.613 . S
S736 N738 1.610 . S
N737 S736 1.613 . S
N737 C740 1.350 . S
N738 S736 1.610 . S
N738 C739 1.351 . S
C739 C733 1.428 . S
C739 N738 1.351 . S
C739 C740 1.434 . S
C740 C731 1.429 1_545 S
C740 N737 1.350 . S
C740 C739 1.434 . S
C741 C742 1.369 . S
C741 C743 1.419 . S
C741 H745 0.930 . S
C742 C741 1.369 . S
C742 C751 1.429 . S
C743 C741 1.419 . S
C743 C744 1.363 . S
C743 H746 0.929 . S
C744 C743 1.363 . S
C744 C750 1.428 . S
H745 C741 0.930 . S
H746 C743 0.929 . S
S747 N748 1.613 . S
S747 N749 1.610 . S
N748 S747 1.613 . S
N748 C751 1.350 . S
N749 S747 1.610 . S
N749 C750 1.351 . S
C750 C744 1.428 . S
C750 N749 1.351 . S
C750 C751 1.434 . S
C751 C742 1.429 . S
C751 N748 1.350 . S
C751 C750 1.434 . S
C752 C753 1.369 . S
C752 C754 1.419 1_455 S
C752 H756 0.930 . S
C753 C752 1.369 . S
C753 C762 1.429 . S
C754 C752 1.419 1_655 S
C754 C755 1.363 . S
C754 H757 0.929 . S
C755 C754 1.363 . S
C755 C761 1.428 . S
H756 C752 0.930 . S
H757 C754 0.929 . S
S758 N759 1.613 . S
S758 N760 1.610 1_455 S
N759 S758 1.613 . S
N759 C762 1.350 . S
N760 S758 1.610 1_655 S
N760 C761 1.351 . S
C761 C755 1.428 . S
C761 N760 1.351 . S
C761 C762 1.434 1_655 S
C762 C753 1.429 . S
C762 N759 1.350 . S
C762 C761 1.434 1_455 S
C763 C764 1.369 1_565 S
C763 C765 1.419 . S
C763 H767 0.930 . S
C764 C763 1.369 1_545 S
C764 C773 1.429 1_556 S
C765 C763 1.419 . S
C765 C766 1.363 1_556 S
C765 H768 0.929 . S
C766 C765 1.363 1_554 S
C766 C772 1.428 1_565 S
H767 C763 0.930 . S
H768 C765 0.929 . S
S769 N770 1.613 . S
S769 N771 1.610 . S
N770 S769 1.613 . S
N770 C773 1.350 . S
N771 S769 1.610 . S
N771 C772 1.351 . S
C772 C766 1.428 1_545 S
C772 N771 1.351 . S
C772 C773 1.434 . S
C773 C764 1.429 1_554 S
C773 N770 1.350 . S
C773 C772 1.434 . S
C774 C775 1.369 . S
C774 C776 1.419 . S
C774 H778 0.930 . S
C775 C774 1.369 . S
C775 C784 1.429 . S
C776 C774 1.419 . S
C776 C777 1.363 . S
C776 H779 0.929 . S
C777 C776 1.363 . S
C777 C783 1.428 . S
H778 C774 0.930 . S
H779 C776 0.929 . S
S780 N781 1.613 . S
S780 N782 1.610 . S
N781 S780 1.613 . S
N781 C784 1.350 . S
N782 S780 1.610 . S
N782 C783 1.351 . S
C783 C777 1.428 . S
C783 N782 1.351 . S
C783 C784 1.434 . S
C784 C775 1.429 . S
C784 N781 1.350 . S
C784 C783 1.434 . S
C785 C786 1.369 . S
C785 C787 1.419 . S
C785 H789 0.930 . S
C786 C785 1.369 . S
C786 C795 1.429 . S
C787 C785 1.419 . S
C787 C788 1.363 . S
C787 H790 0.929 . S
C788 C787 1.363 . S
C788 C794 1.428 . S
H789 C785 0.930 . S
H790 C787 0.929 . S
S791 N792 1.613 . S
S791 N793 1.610 . S
N792 S791 1.613 . S
N792 C795 1.350 . S
N793 S791 1.610 . S
N793 C794 1.351 . S
C794 C788 1.428 . S
C794 N793 1.351 . S
C794 C795 1.434 . S
C795 C786 1.429 . S
C795 N792 1.350 . S
C795 C794 1.434 . S
C796 C797 1.369 . S
C796 C798 1.419 . S
C796 H800 0.930 . S
C797 C796 1.369 . S
C797 C806 1.429 . S
C798 C796 1.419 . S
C798 C799 1.363 . S
C798 H801 0.929 . S
C799 C798 1.363 . S
C799 C805 1.428 . S
H800 C796 0.930 . S
H801 C798 0.929 . S
S802 N803 1.613 . S
S802 N804 1.610 . S
N803 S802 1.613 . S
N803 C806 1.350 . S
N804 S802 1.610 . S
N804 C805 1.351 . S
C805 C799 1.428 . S
C805 N804 1.351 . S
C805 C806 1.434 . S
C806 C797 1.429 . S
C806 N803 1.350 . S
C806 C805 1.434 . S
C807 C808 1.369 . S
C807 C809 1.419 . S
C807 H811 0.930 . S
C808 C807 1.369 . S
C808 C817 1.429 . S
C809 C807 1.419 . S
C809 C810 1.363 . S
C809 H812 0.929 . S
C810 C809 1.363 . S
C810 C816 1.428 . S
H811 C807 0.930 . S
H812 C809 0.929 . S
S813 N814 1.613 . S
S813 N815 1.610 . S
N814 S813 1.613 . S
N814 C817 1.350 . S
N815 S813 1.610 . S
N815 C816 1.351 . S
C816 C810 1.428 . S
C816 N815 1.351 . S
C816 C817 1.434 . S
C817 C808 1.429 . S
C817 N814 1.350 . S
C817 C816 1.434 . S
C818 C819 1.369 . S
C818 C820 1.419 . S
C818 H822 0.930 . S
C819 C818 1.369 . S
C819 C828 1.429 . S
C820 C818 1.419 . S
C820 C821 1.363 . S
C820 H823 0.929 . S
C821 C820 1.363 . S
C821 C827 1.428 . S
H822 C818 0.930 . S
H823 C820 0.929 . S
S824 N825 1.613 . S
S824 N826 1.610 . S
N825 S824 1.613 . S
N825 C828 1.350 . S
N826 S824 1.610 . S
N826 C827 1.351 . S
C827 C821 1.428 . S
C827 N826 1.351 . S
C827 C828 1.434 . S
C828 C819 1.429 . S
C828 N825 1.350 . S
C828 C827 1.434 . S
C829 C830 1.369 . S
C829 C831 1.419 . S
C829 H833 0.930 . S
C830 C829 1.369 . S
C830 C839 1.429 . S
C831 C829 1.419 . S
C831 C832 1.363 . S
C831 H834 0.929 . S
C832 C831 1.363 . S
C832 C838 1.428 . S
H833 C829 0.930 . S
H834 C831 0.929 . S
S835 N836 1.613 . S
S835 N837 1.610 . S
N836 S835 1.613 . S
N836 C839 1.350 . S
N837 S835 1.610 . S
N837 C838 1.351 . S
C838 C832 1.428 . S
C838 N837 1.351 . S
C838 C839 1.434 . S
C839 C830 1.429 . S
C839 N836 1.350 . S
C839 C838 1.434 . S
C840 C841 1.369 . S
C840 C842 1.419 . S
C840 H844 0.930 . S
C841 C840 1.369 . S
C841 C850 1.429 . S
C842 C840 1.419 . S
C842 C843 1.363 . S
C842 H845 0.929 . S
C843 C842 1.363 . S
C843 C849 1.428 . S
H844 C840 0.930 . S
H845 C842 0.929 . S
S846 N847 1.613 . S
S846 N848 1.610 . S
N847 S846 1.613 . S
N847 C850 1.350 . S
N848 S846 1.610 . S
N848 C849 1.351 . S
C849 C843 1.428 . S
C849 N848 1.351 . S
C849 C850 1.434 . S
C850 C841 1.429 . S
C850 N847 1.350 . S
C850 C849 1.434 . S
C851 C852 1.369 1_455 S
C851 C853 1.419 . S
C851 H855 0.930 . S
C852 C851 1.369 1_655 S
C852 C861 1.429 . S
C853 C851 1.419 . S
C853 C854 1.363 . S
C853 H856 0.929 . S
C854 C853 1.363 . S
C854 C860 1.428 1_455 S
H855 C851 0.930 . S
H856 C853 0.929 . S
S857 N858 1.613 . S
S857 N859 1.610 . S
N858 S857 1.613 . S
N858 C861 1.350 . S
N859 S857 1.610 . S
N859 C860 1.351 . S
C860 C854 1.428 1_655 S
C860 N859 1.351 . S
C860 C861 1.434 . S
C861 C852 1.429 . S
C861 N858 1.350 . S
C861 C860 1.434 . S
C862 C863 1.369 . S
C862 C864 1.419 1_564 S
C862 H866 0.930 . S
C863 C862 1.369 . S
C863 C872 1.429 . S
C864 C862 1.419 1_546 S
C864 C865 1.363 . S
C864 H867 0.929 . S
C865 C864 1.363 . S
C865 C871 1.428 . S
H866 C862 0.930 . S
H867 C864 0.929 . S
S868 N869 1.613 . S
S868 N870 1.610 1_554 S
N869 S868 1.613 . S
N869 C872 1.350 1_545 S
N870 S868 1.610 1_556 S
N870 C871 1.351 . S
C871 C865 1.428 . S
C871 N870 1.351 . S
C871 C872 1.434 1_546 S
C872 C863 1.429 . S
C872 N869 1.350 1_565 S
C872 C871 1.434 1_564 S
C873 C874 1.369 . S
C873 C875 1.419 . S
C873 H877 0.930 . S
C874 C873 1.369 . S
C874 C883 1.429 . S
C875 C873 1.419 . S
C875 C876 1.363 . S
C875 H878 0.929 . S
C876 C875 1.363 . S
C876 C882 1.428 . S
H877 C873 0.930 . S
H878 C875 0.929 . S
S879 N880 1.613 . S
S879 N881 1.610 . S
N880 S879 1.613 . S
N880 C883 1.350 . S
N881 S879 1.610 . S
N881 C882 1.351 . S
C882 C876 1.428 . S
C882 N881 1.351 . S
C882 C883 1.434 . S
C883 C874 1.429 . S
C883 N880 1.350 . S
C883 C882 1.434 . S
C884 C885 1.369 . S
C884 C886 1.419 . S
C884 H888 0.930 . S
C885 C884 1.369 . S
C885 C894 1.429 1_455 S
C886 C884 1.419 . S
C886 C887 1.363 1_455 S
C886 H889 0.929 . S
C887 C886 1.363 1_655 S
C887 C893 1.428 . S
H888 C884 0.930 . S
H889 C886 0.929 . S
S890 N891 1.613 . S
S890 N892 1.610 . S
N891 S890 1.613 . S
N891 C894 1.350 . S
N892 S890 1.610 . S
N892 C893 1.351 . S
C893 C887 1.428 . S
C893 N892 1.351 . S
C893 C894 1.434 . S
C894 C885 1.429 1_655 S
C894 N891 1.350 . S
C894 C893 1.434 . S
C895 C896 1.369 1_545 S
C895 C897 1.419 . S
C895 H899 0.930 . S
C896 C895 1.369 1_565 S
C896 C905 1.429 . S
C897 C895 1.419 . S
C897 C898 1.363 . S
C897 H900 0.929 . S
C898 C897 1.363 . S
C898 C904 1.428 1_545 S
H899 C895 0.930 . S
H900 C897 0.929 . S
S901 N902 1.613 . S
S901 N903 1.610 . S
N902 S901 1.613 . S
N902 C905 1.350 . S
N903 S901 1.610 . S
N903 C904 1.351 . S
C904 C898 1.428 1_565 S
C904 N903 1.351 . S
C904 C905 1.434 . S
C905 C896 1.429 . S
C905 N902 1.350 . S
C905 C904 1.434 . S
C906 C907 1.369 . S
C906 C908 1.419 . S
C906 H910 0.930 . S
C907 C906 1.369 . S
C907 C916 1.429 . S
C908 C906 1.419 . S
C908 C909 1.363 . S
C908 H911 0.929 . S
C909 C908 1.363 . S
C909 C915 1.428 . S
H910 C906 0.930 . S
H911 C908 0.929 . S
S912 N913 1.613 . S
S912 N914 1.610 . S
N913 S912 1.613 . S
N913 C916 1.350 . S
N914 S912 1.610 . S
N914 C915 1.351 . S
C915 C909 1.428 . S
C915 N914 1.351 . S
C915 C916 1.434 . S
C916 C907 1.429 . S
C916 N913 1.350 . S
C916 C915 1.434 . S
C917 C918 1.369 . S
C917 C919 1.419 . S
C917 H921 0.930 . S
C918 C917 1.369 . S
C918 C927 1.429 . S
C919 C917 1.419 . S
C919 C920 1.363 . S
C919 H922 0.929 . S
C920 C919 1.363 . S
C920 C926 1.428 . S
H921 C917 0.930 . S
H922 C919 0.929 . S
S923 N924 1.613 . S
S923 N925 1.610 . S
N924 S923 1.613 . S
N924 C927 1.350 . S
N925 S923 1.610 . S
N925 C926 1.351 . S
C926 C920 1.428 . S
C926 N925 1.351 . S
C926 C927 1.434 . S
C927 C918 1.429 . S
C927 N924 1.350 . S
C927 C926 1.434 . S
C928 C929 1.369 . S
C928 C930 1.419 . S
C928 H932 0.930 1_556 S
C929 C928 1.369 . S
C929 C938 1.429 . S
C930 C928 1.419 . S
C930 C931 1.363 . S
C930 H933 0.929 . S
C931 C930 1.363 . S
C931 C937 1.428 . S
H932 C928 0.930 1_554 S
H933 C930 0.929 . S
S934 N935 1.613 . S
S934 N936 1.610 . S
N935 S934 1.613 . S
N935 C938 1.350 . S
N936 S934 1.610 . S
N936 C937 1.351 . S
C937 C931 1.428 . S
C937 N936 1.351 . S
C937 C938 1.434 . S
C938 C929 1.429 . S
C938 N935 1.350 . S
C938 C937 1.434 . S
C939 C940 1.369 . S
C939 C941 1.419 . S
C939 H943 0.930 . S
C940 C939 1.369 . S
C940 C949 1.429 . S
C941 C939 1.419 . S
C941 C942 1.363 . S
C941 H944 0.929 . S
C942 C941 1.363 . S
C942 C948 1.428 . S
H943 C939 0.930 . S
H944 C941 0.929 . S
S945 N946 1.613 . S
S945 N947 1.610 . S
N946 S945 1.613 . S
N946 C949 1.350 . S
N947 S945 1.610 . S
N947 C948 1.351 . S
C948 C942 1.428 . S
C948 N947 1.351 . S
C948 C949 1.434 . S
C949 C940 1.429 . S
C949 N946 1.350 . S
C949 C948 1.434 . S
C950 C951 1.369 . S
C950 C952 1.419 . S
C950 H954 0.930 . S
C951 C950 1.369 . S
C951 C960 1.429 . S
C952 C950 1.419 . S
C952 C953 1.363 . S
C952 H955 0.929 . S
C953 C952 1.363 . S
C953 C959 1.428 . S
H954 C950 0.930 . S
H955 C952 0.929 . S
S956 N957 1.613 . S
S956 N958 1.610 . S
N957 S956 1.613 . S
N957 C960 1.350 . S
N958 S956 1.610 . S
N958 C959 1.351 . S
C959 C953 1.428 . S
C959 N958 1.351 . S
C959 C960 1.434 . S
C960 C951 1.429 . S
C960 N957 1.350 . S
C960 C959 1.434 . S
C961 C962 1.369 . S
C961 C963 1.419 . S
C961 H965 0.930 . S
C962 C961 1.369 . S
C962 C971 1.429 . S
C963 C961 1.419 . S
C963 C964 1.363 . S
C963 H966 0.929 . S
C964 C963 1.363 . S
C964 C970 1.428 . S
H965 C961 0.930 . S
H966 C963 0.929 . S
S967 N968 1.613 . S
S967 N969 1.610 . S
N968 S967 1.613 . S
N968 C971 1.350 . S
N969 S967 1.610 . S
N969 C970 1.351 . S
C970 C964 1.428 . S
C970 N969 1.351 . S
C970 C971 1.434 . S
C971 C962 1.429 . S
C971 N968 1.350 . S
C971 C970 1.434 . S
C709 C583 1.931 . S
C711 C52 1.928 . S
C720 C111 1.928 . S
C722 C642 1.930 . S
C731 C701 1.927 . S
C733 C170 1.930 . S
C742 C406 1.930 . S
C744 C229 1.928 . S
C753 C465 1.930 . S
C755 C288 1.929 . S
C764 C524 1.931 . S
C766 C347 1.928 . S
C775 C387 1.806 . S
C777 C33 1.807 . S
C786 C92 1.800 . S
C788 C446 1.808 . S
C797 C505 1.804 . S
C799 C151 1.809 . S
C808 C210 1.803 . S
C810 C564 1.808 . S
C819 C623 1.807 . S
C821 C269 1.801 . S
C830 C328 1.807 . S
C832 C682 1.801 . S
C841 C534 1.208 . S
C843 C3 1.207 . S
C852 C593 1.210 . S
C854 C62 1.208 . S
C863 C652 1.211 . S
C865 C121 1.212 . S
C874 C180 1.211 . S
C876 C357 1.208 . S
C885 C416 1.207 . S
C887 C239 1.210 . S
C896 C298 1.209 . S
C898 C475 1.208 . S
C907 C5 1.368 . S
C909 C477 1.367 . S
C918 C536 1.371 . S
C920 C64 1.366 . S
C929 C595 1.365 1_556 S
C931 C123 1.371 . S
C940 C654 1.371 . S
C942 C182 1.367 1_554 S
C951 C359 1.371 . S
C953 C241 1.366 . S
C962 C418 1.365 . S
C964 C300 1.371 . S
