# Generated by pormake.
# Topology vbk, (5)-cn, num edge types: 1
# Building blocks:
#     Node 0, Type 0, BuildingBlock: XOMCOT_clean_sbu_1, # of connection points: 5
#     Node 1, Type 0, BuildingBlock: XOMCOT_clean_sbu_1, # of connection points: 5
#     Node 2, Type 0, BuildingBlock: XOMCOT_clean_sbu_1, # of connection points: 5
#     Node 3, Type 0, BuildingBlock: XOMCOT_clean_sbu_1, # of connection points: 5
#     Node 4, Type 0, BuildingBlock: XOMCOT_clean_sbu_1, # of connection points: 5
#     Node 5, Type 0, BuildingBlock: XOMCOT_clean_sbu_1, # of connection points: 5
#     Node 6, Type 0, BuildingBlock: XOMCOT_clean_sbu_1, # of connection points: 5
#     Node 7, Type 0, BuildingBlock: XOMCOT_clean_sbu_1, # of connection points: 5
#     Node 8, Type 0, BuildingBlock: XOMCOT_clean_sbu_1, # of connection points: 5
#     Node 9, Type 0, BuildingBlock: XOMCOT_clean_sbu_1, # of connection points: 5
#     Node 10, Type 0, BuildingBlock: XOMCOT_clean_sbu_1, # of connection points: 5
#     Node 11, Type 0, BuildingBlock: XOMCOT_clean_sbu_1, # of connection points: 5
#     Node 12, Type 0, BuildingBlock: XOMCOT_clean_sbu_1, # of connection points: 5
#     Node 13, Type 0, BuildingBlock: XOMCOT_clean_sbu_1, # of connection points: 5
#     Node 14, Type 0, BuildingBlock: XOMCOT_clean_sbu_1, # of connection points: 5
#     Node 15, Type 0, BuildingBlock: XOMCOT_clean_sbu_1, # of connection points: 5
#     Edge 16, Type (0, 0), BuildingBlock: KIFKEQ_clean_linker_1, # of connection points: 2
#     Edge 17, Type (0, 0), BuildingBlock: KIFKEQ_clean_linker_1, # of connection points: 2
#     Edge 18, Type (0, 0), BuildingBlock: KIFKEQ_clean_linker_1, # of connection points: 2
#     Edge 19, Type (0, 0), BuildingBlock: KIFKEQ_clean_linker_1, # of connection points: 2
#     Edge 20, Type (0, 0), BuildingBlock: KIFKEQ_clean_linker_1, # of connection points: 2
#     Edge 21, Type (0, 0), BuildingBlock: KIFKEQ_clean_linker_1, # of connection points: 2
#     Edge 22, Type (0, 0), BuildingBlock: KIFKEQ_clean_linker_1, # of connection points: 2
#     Edge 23, Type (0, 0), BuildingBlock: KIFKEQ_clean_linker_1, # of connection points: 2
#     Edge 24, Type (0, 0), BuildingBlock: KIFKEQ_clean_linker_1, # of connection points: 2
#     Edge 25, Type (0, 0), BuildingBlock: KIFKEQ_clean_linker_1, # of connection points: 2
#     Edge 26, Type (0, 0), BuildingBlock: KIFKEQ_clean_linker_1, # of connection points: 2
#     Edge 27, Type (0, 0), BuildingBlock: KIFKEQ_clean_linker_1, # of connection points: 2
#     Edge 28, Type (0, 0), BuildingBlock: KIFKEQ_clean_linker_1, # of connection points: 2
#     Edge 29, Type (0, 0), BuildingBlock: KIFKEQ_clean_linker_1, # of connection points: 2
#     Edge 30, Type (0, 0), BuildingBlock: KIFKEQ_clean_linker_1, # of connection points: 2
#     Edge 31, Type (0, 0), BuildingBlock: KIFKEQ_clean_linker_1, # of connection points: 2
#     Edge 32, Type (0, 0), BuildingBlock: KIFKEQ_clean_linker_1, # of connection points: 2
#     Edge 33, Type (0, 0), BuildingBlock: KIFKEQ_clean_linker_1, # of connection points: 2
#     Edge 34, Type (0, 0), BuildingBlock: KIFKEQ_clean_linker_1, # of connection points: 2
#     Edge 35, Type (0, 0), BuildingBlock: KIFKEQ_clean_linker_1, # of connection points: 2
#     Edge 36, Type (0, 0), BuildingBlock: KIFKEQ_clean_linker_1, # of connection points: 2
#     Edge 37, Type (0, 0), BuildingBlock: KIFKEQ_clean_linker_1, # of connection points: 2
#     Edge 38, Type (0, 0), BuildingBlock: KIFKEQ_clean_linker_1, # of connection points: 2
#     Edge 39, Type (0, 0), BuildingBlock: KIFKEQ_clean_linker_1, # of connection points: 2
#     Edge 40, Type (0, 0), BuildingBlock: KIFKEQ_clean_linker_1, # of connection points: 2
#     Edge 41, Type (0, 0), BuildingBlock: KIFKEQ_clean_linker_1, # of connection points: 2
#     Edge 42, Type (0, 0), BuildingBlock: KIFKEQ_clean_linker_1, # of connection points: 2
#     Edge 43, Type (0, 0), BuildingBlock: KIFKEQ_clean_linker_1, # of connection points: 2
#     Edge 44, Type (0, 0), BuildingBlock: KIFKEQ_clean_linker_1, # of connection points: 2
#     Edge 45, Type (0, 0), BuildingBlock: KIFKEQ_clean_linker_1, # of connection points: 2
#     Edge 46, Type (0, 0), BuildingBlock: KIFKEQ_clean_linker_1, # of connection points: 2
#     Edge 47, Type (0, 0), BuildingBlock: KIFKEQ_clean_linker_1, # of connection points: 2
#     Edge 48, Type (0, 0), BuildingBlock: KIFKEQ_clean_linker_1, # of connection points: 2
#     Edge 49, Type (0, 0), BuildingBlock: KIFKEQ_clean_linker_1, # of connection points: 2
#     Edge 50, Type (0, 0), BuildingBlock: KIFKEQ_clean_linker_1, # of connection points: 2
#     Edge 51, Type (0, 0), BuildingBlock: KIFKEQ_clean_linker_1, # of connection points: 2
#     Edge 52, Type (0, 0), BuildingBlock: KIFKEQ_clean_linker_1, # of connection points: 2
#     Edge 53, Type (0, 0), BuildingBlock: KIFKEQ_clean_linker_1, # of connection points: 2
#     Edge 54, Type (0, 0), BuildingBlock: KIFKEQ_clean_linker_1, # of connection points: 2
#     Edge 55, Type (0, 0), BuildingBlock: KIFKEQ_clean_linker_1, # of connection points: 2
# Relax obj value: 0.083
# Max RMSD: 0.146
# Mean RMSD: 0.146
data_MOF--net-vbk--node1-XOMCOT_clean_sbu_1--edge1-KIFKEQ_clean_linker_1
_symmetry_space_group_name_H-M    P1
_symmetry_Int_Tables_number       1
_symmetry_cell_setting            triclinic
loop_
_symmetry_equiv_pos_as_xyz
'x, y, z'
_cell_length_a     67.306666
_cell_length_b     46.110351
_cell_length_c     27.946675
_cell_angle_alpha  89.881012
_cell_angle_beta   90.082002
_cell_angle_gamma 90.240635
loop_
_atom_site_label
_atom_site_type_symbol
_atom_site_fract_x
_atom_site_fract_y
_atom_site_fract_z
_atom_type_partial_charge
C0 C 0.13311 0.21478 0.09418 0.0
C1 C 0.11277 0.215 0.09101 0.0
N2 N 0.10631 0.18739 0.09095 0.0
N3 N 0.13954 0.1871 0.0953 0.0
C4 C 0.12276 0.17075 0.09375 0.0
H5 H 0.14272 0.23363 0.09443 0.0
Co6 Co 0.16665 0.17775 0.09676 0.0
C7 C 0.16757 0.12674 0.03166 0.0
O8 O 0.17976 0.14079 0.00325 0.0
N9 N 0.19473 0.16859 0.09974 0.0
C10 C 0.22715 0.16437 0.08344 0.0
C11 C 0.2086 0.16951 0.06465 0.0
C12 C 0.20561 0.16243 0.13956 0.0
N13 N 0.22532 0.16012 0.13082 0.0
O14 O 0.16315 0.16363 0.16022 0.0
H15 H 0.20585 0.1751 0.02772 0.0
H16 H 0.19938 0.16002 0.17484 0.0
O17 O 0.16105 0.13903 0.06956 0.0
C18 C 0.16528 0.18697 0.18419 0.0
O19 O 0.16971 0.21105 0.16124 0.0
N20 N 0.16948 0.19613 0.03723 0.0
C21 C 0.16642 0.2393 0.96783 0.0
C22 C 0.15482 0.21403 0.96465 0.0
C23 C 0.15653 0.19262 -8e-05 0.0
C24 C 0.18094 0.22054 0.04031 0.0
C25 C 0.18003 0.24203 0.00536 0.0
H26 H 0.14628 0.17451 -0.00053 0.0
H27 H 0.18992 0.2243 0.07184 0.0
H28 H 0.1226 0.14728 0.09338 0.0
H29 H 0.10338 0.23396 0.0884 0.0
H30 H 0.241 0.16531 0.0639 0.0
H31 H 0.14394 0.21146 0.93638 0.0
H32 H 0.18886 0.26157 0.00954 0.0
C33 C 0.42629 0.83916 0.60647 0.0
C34 C 0.44626 0.83346 0.60797 0.0
N35 N 0.45629 0.85886 0.60785 0.0
N36 N 0.42353 0.86804 0.60484 0.0
C37 C 0.44208 0.87959 0.60586 0.0
H38 H 0.41443 0.82327 0.60677 0.0
Co39 Co 0.39821 0.88463 0.60642 0.0
C40 C 0.40232 0.93249 0.53593 0.0
O41 O 0.38741 0.92074 0.51245 0.0
N42 N 0.37222 0.90121 0.61149 0.0
C43 C 0.34856 0.93377 0.62625 0.0
C44 C 0.36738 0.92964 0.609 0.0
C45 C 0.35598 0.88882 0.63224 0.0
N46 N 0.34139 0.90815 0.64161 0.0
O47 O 0.4042 0.89896 0.66874 0.0
H48 H 0.37735 0.94717 0.60014 0.0
H49 H 0.35554 0.86657 0.64448 0.0
O50 O 0.40839 0.92065 0.57498 0.0
C51 C 0.39886 0.87826 0.69626 0.0
O52 O 0.3904 0.85529 0.67726 0.0
N53 N 0.39246 0.86656 0.54698 0.0
C54 C 0.39067 0.82427 0.47559 0.0
C55 C 0.40575 0.84527 0.47536 0.0
C56 C 0.40642 0.86617 0.51136 0.0
C57 C 0.37722 0.84693 0.54641 0.0
C58 C 0.37586 0.8259 0.51058 0.0
H59 H 0.41913 0.88054 0.51274 0.0
H60 H 0.367 0.84562 0.57586 0.0
H61 H 0.44506 0.90267 0.60642 0.0
H62 H 0.45285 0.8121 0.60874 0.0
H63 H 0.34129 0.95452 0.63007 0.0
H64 H 0.41746 0.84473 0.44884 0.0
H65 H 0.36415 0.80974 0.51237 0.0
C66 C 0.12956 0.82822 0.89463 0.0
C67 C 0.10924 0.82886 0.89795 0.0
N68 N 0.10336 0.8567 0.89619 0.0
N69 N 0.13664 0.85557 0.89149 0.0
C70 C 0.12025 0.87256 0.89176 0.0
H71 H 0.13871 0.809 0.89531 0.0
Co72 Co 0.16402 0.86395 0.88935 0.0
C73 C 0.16545 0.91487 0.95586 0.0
O74 O 0.1767 0.90042 0.98582 0.0
N75 N 0.19211 0.87201 0.886 0.0
C76 C 0.22427 0.87754 0.90405 0.0
C77 C 0.2056 0.8726 0.92202 0.0
C78 C 0.20337 0.87651 0.84624 0.0
N79 N 0.22292 0.87994 0.85624 0.0
O80 O 0.16051 0.87893 0.82622 0.0
H81 H 0.20251 0.86827 0.95921 0.0
H82 H 0.1975 0.87721 0.81035 0.0
O83 O 0.15938 0.90278 0.91724 0.0
C84 C 0.16053 0.85591 0.80101 0.0
O85 O 0.16406 0.83096 0.8221 0.0
N86 N 0.1668 0.84511 0.94857 0.0
C87 C 0.16405 0.80227 0.01867 0.0
C88 C 0.15255 0.82749 0.02181 0.0
C89 C 0.15407 0.84868 0.98616 0.0
C90 C 0.17815 0.82073 0.94543 0.0
C91 C 0.17737 0.79938 0.98067 0.0
H92 H 0.14389 0.86676 0.98673 0.0
H93 H 0.18696 0.81692 0.91374 0.0
H94 H 0.12067 0.89599 0.88973 0.0
H95 H 0.09946 0.81023 0.90095 0.0
H96 H 0.23791 0.87816 0.92459 0.0
H97 H 0.1419 0.83022 0.05047 0.0
H98 H 0.18612 0.77989 0.97648 0.0
C99 C 0.43131 0.23144 0.37796 0.0
C100 C 0.45167 0.23262 0.37923 0.0
N101 N 0.45863 0.2055 0.38514 0.0
N102 N 0.4253 0.20371 0.38315 0.0
C103 C 0.44232 0.18825 0.38701 0.0
H104 H 0.42143 0.24976 0.37457 0.0
Co105 Co 0.3984 0.19375 0.38679 0.0
C106 C 0.39824 0.14101 0.44665 0.0
O107 O 0.38534 0.15404 0.47432 0.0
N108 N 0.37031 0.18382 0.38901 0.0
C109 C 0.33799 0.18071 0.40752 0.0
C110 C 0.35666 0.18787 0.42399 0.0
C111 C 0.35921 0.17338 0.35205 0.0
N112 N 0.33958 0.17191 0.36189 0.0
O113 O 0.39944 0.18228 0.32107 0.0
H114 H 0.35973 0.19612 0.45937 0.0
H115 H 0.36523 0.16718 0.31784 0.0
O116 O 0.40507 0.15429 0.4098 0.0
C117 C 0.39402 0.2057 0.30035 0.0
O118 O 0.38944 0.22814 0.32701 0.0
N119 N 0.39797 0.21013 0.44829 0.0
C120 C 0.40415 0.25106 0.52071 0.0
C121 C 0.41462 0.2247 0.52064 0.0
C122 C 0.41147 0.2046 0.48375 0.0
C123 C 0.38762 0.23546 0.44826 0.0
C124 C 0.39004 0.25574 0.4846 0.0
H125 H 0.421 0.18585 0.48165 0.0
H126 H 0.37805 0.24068 0.41838 0.0
H127 H 0.44275 0.16505 0.39276 0.0
H128 H 0.46066 0.25206 0.37626 0.0
H129 H 0.32424 0.18313 0.42708 0.0
H130 H 0.42601 0.22037 0.54706 0.0
H131 H 0.38138 0.27545 0.48323 0.0
C132 C 0.93178 0.8434 0.83269 0.0
C133 C 0.9521 0.84501 0.83039 0.0
N134 N 0.95828 0.86627 0.85984 0.0
N135 N 0.925 0.86374 0.86302 0.0
C136 C 0.94156 0.87722 0.87968 0.0
H137 H 0.92244 0.82848 0.81298 0.0
Co138 Co 0.89779 0.86898 0.87131 0.0
C139 C 0.89274 0.91936 0.93595 0.0
O140 O 0.87763 0.90595 0.95596 0.0
N141 N 0.86943 0.87353 0.87785 0.0
C142 C 0.83743 0.8637 0.89161 0.0
C143 C 0.85666 0.85802 0.90527 0.0
C144 C 0.85726 0.88919 0.84889 0.0
N145 N 0.83776 0.88296 0.85536 0.0
O146 O 0.89705 0.88669 0.80929 0.0
H147 H 0.86078 0.84231 0.93211 0.0
H148 H 0.86261 0.90387 0.8216 0.0
O149 O 0.90243 0.90682 0.90246 0.0
C150 C 0.89003 0.86781 0.78049 0.0
O151 O 0.88321 0.84325 0.79798 0.0
N152 N 0.89938 0.84761 0.92798 0.0
C153 C 0.90236 0.80439 -0.00217 0.0
C154 C 0.90697 0.8335 0.00865 0.0
C155 C 0.90579 0.85481 0.97279 0.0
C156 C 0.89586 0.81938 0.91646 0.0
C157 C 0.89714 0.79754 0.95063 0.0
H158 H 0.91039 0.87665 0.98107 0.0
H159 H 0.89191 0.81383 0.88009 0.0
H160 H 0.94139 0.895 0.9049 0.0
H161 H 0.96167 0.83137 0.80904 0.0
H162 H 0.82435 0.85268 0.90505 0.0
H163 H 0.9114 0.83983 0.04439 0.0
H164 H 0.89426 0.77539 0.93978 0.0
C165 C 0.6318 0.21576 0.37899 0.0
C166 C 0.61147 0.21664 0.38156 0.0
N167 N 0.60467 0.18928 0.38478 0.0
N168 N 0.63788 0.18794 0.38127 0.0
C169 C 0.62091 0.17212 0.38441 0.0
H170 H 0.64166 0.23429 0.37684 0.0
Co171 Co 0.66493 0.17842 0.38144 0.0
C172 C 0.66511 0.12806 0.44897 0.0
O173 O 0.67698 0.14239 0.47773 0.0
N174 N 0.69296 0.16946 0.37989 0.0
C175 C 0.72521 0.16507 0.39802 0.0
C176 C 0.70646 0.16956 0.41591 0.0
C177 C 0.70427 0.16485 0.34035 0.0
N178 N 0.72386 0.16232 0.35029 0.0
O179 O 0.6616 0.16324 0.31853 0.0
H180 H 0.70338 0.17448 0.45287 0.0
H181 H 0.69849 0.16385 0.30442 0.0
O182 O 0.6591 0.1399 0.41003 0.0
C183 C 0.66322 0.18573 0.29221 0.0
O184 O 0.66836 0.21045 0.3121 0.0
N185 N 0.66733 0.19732 0.44065 0.0
C186 C 0.66394 0.23966 0.51158 0.0
C187 C 0.65209 0.2145 0.51276 0.0
C188 C 0.65393 0.19368 0.47688 0.0
C189 C 0.67904 0.22149 0.4391 0.0
C190 C 0.67798 0.2425 0.47476 0.0
H191 H 0.64348 0.17583 0.47614 0.0
H192 H 0.68856 0.2253 0.40856 0.0
H193 H 0.62046 0.14874 0.38772 0.0
H194 H 0.60232 0.23591 0.38179 0.0
H195 H 0.73891 0.16552 0.41838 0.0
H196 H 0.6406 0.21163 0.53943 0.0
H197 H 0.68762 0.26129 0.47236 0.0
C198 C 0.93162 0.21902 0.09693 0.0
C199 C 0.9519 0.2214 0.09495 0.0
N200 N 0.95963 0.19457 0.09152 0.0
N201 N 0.92637 0.19083 0.09456 0.0
C202 C 0.94381 0.1763 0.09192 0.0
H203 H 0.92124 0.23681 0.09902 0.0
Co204 Co 0.89959 0.17906 0.09487 0.0
C205 C 0.90477 0.12861 0.02634 0.0
O206 O 0.89729 0.14346 0.99059 0.0
N207 N 0.87225 0.16754 0.09744 0.0
C208 C 0.84198 0.15022 0.08126 0.0
C209 C 0.86088 0.15446 0.06388 0.0
C210 C 0.85961 0.17127 0.13473 0.0
N211 N 0.84113 0.16079 0.12608 0.0
O212 O 0.90345 0.16511 0.15876 0.0
H213 H 0.86562 0.14877 0.02844 0.0
H214 H 0.86368 0.18204 0.16751 0.0
O215 O 0.90649 0.14025 0.06789 0.0
C216 C 0.90184 0.18798 0.18406 0.0
O217 O 0.89653 0.21227 0.16306 0.0
N218 N 0.89607 0.19719 0.03431 0.0
C219 C 0.89596 0.23978 0.96249 0.0
C220 C 0.91113 0.21905 0.96491 0.0
C221 C 0.91097 0.19814 0.00104 0.0
C222 C 0.88095 0.21679 0.0318 0.0
C223 C 0.88041 0.23784 -0.00423 0.0
H224 H 0.92354 0.18372 0.00386 0.0
H225 H 0.86988 0.21761 0.0597 0.0
H226 H 0.94487 0.15296 0.08894 0.0
H227 H 0.96033 0.24143 0.09591 0.0
H228 H 0.82987 0.13994 0.06216 0.0
H229 H 0.92373 0.21989 0.94092 0.0
H230 H 0.86825 0.25313 -0.00472 0.0
C231 C 0.63282 0.82785 0.60786 0.0
C232 C 0.61258 0.82498 0.60722 0.0
N233 N 0.60451 0.85136 0.60038 0.0
N234 N 0.63777 0.85592 0.60156 0.0
C235 C 0.62016 0.86994 0.59752 0.0
H236 H 0.64338 0.81041 0.61194 0.0
Co237 Co 0.66463 0.8666 0.59838 0.0
C238 C 0.66445 0.9185 0.53601 0.0
O239 O 0.67702 0.90507 0.50803 0.0
N240 N 0.69269 0.87665 0.59684 0.0
C241 C 0.72482 0.8799 0.57687 0.0
C242 C 0.70595 0.87402 0.56067 0.0
C243 C 0.70429 0.88466 0.63459 0.0
N244 N 0.72385 0.88628 0.62373 0.0
O245 O 0.66281 0.87946 0.66294 0.0
H246 H 0.70252 0.86722 0.52464 0.0
H247 H 0.69875 0.88804 0.67028 0.0
O248 O 0.65784 0.90569 0.57357 0.0
C249 C 0.66705 0.85648 0.68624 0.0
O250 O 0.67306 0.83352 0.66265 0.0
N251 N 0.66555 0.8495 0.53763 0.0
C252 C 0.66002 0.80925 0.46417 0.0
C253 C 0.64904 0.83509 0.46525 0.0
C254 C 0.65187 0.85479 0.50255 0.0
C255 C 0.67633 0.82454 0.53708 0.0
C256 C 0.67418 0.80451 0.50017 0.0
H257 H 0.64197 0.87311 0.50519 0.0
H258 H 0.68601 0.81944 0.56684 0.0
H259 H 0.61883 0.89302 0.5913 0.0
H260 H 0.60442 0.80488 0.61165 0.0
H261 H 0.73824 0.87879 0.55573 0.0
H262 H 0.63748 0.83931 0.43921 0.0
H263 H 0.6831 0.78503 0.50087 0.0
C264 C 0.63087 0.71451 0.05835 0.0
C265 C 0.61065 0.71822 0.05751 0.0
N266 N 0.60225 0.69674 0.08317 0.0
N267 N 0.63534 0.69021 0.08318 0.0
C268 C 0.61752 0.68052 0.09944 0.0
H269 H 0.64159 0.72892 0.04198 0.0
Co270 Co 0.66122 0.6757 0.09542 0.0
C271 C 0.64049 0.6239 0.04773 0.0
O272 O 0.62513 0.63846 0.03174 0.0
N273 N 0.6869 0.6619 0.10856 0.0
C274 C 0.71536 0.63777 0.10385 0.0
C275 C 0.69719 0.64243 0.08263 0.0
C276 C 0.69928 0.66915 0.14493 0.0
N277 N 0.71668 0.6546 0.14309 0.0
O278 O 0.65318 0.66555 0.15861 0.0
H279 H 0.69192 0.63245 0.04998 0.0
H280 H 0.69555 0.6846 0.17252 0.0
O281 O 0.65423 0.63681 0.07135 0.0
C282 C 0.65358 0.6896 0.18091 0.0
O283 O 0.65916 0.71313 0.15789 0.0
N284 N 0.66984 0.68886 0.0355 0.0
C285 C 0.67501 0.72762 0.9599 0.0
C286 C 0.66391 0.70195 0.95377 0.0
C287 C 0.66167 0.68261 -0.00799 0.0
C288 C 0.68233 0.71198 0.04057 0.0
C289 C 0.68535 0.73141 0.00306 0.0
H290 H 0.65177 0.6645 0.98759 0.0
H291 H 0.68857 0.7169 0.0753 0.0
H292 H 0.61573 0.66132 0.12142 0.0
H293 H 0.60271 0.73561 0.03988 0.0
H294 H 0.72686 0.62348 0.09086 0.0
H295 H 0.65562 0.69788 0.92125 0.0
H296 H 0.69469 0.75023 0.00909 0.0
C297 C 0.92874 0.33613 0.61613 0.0
C298 C 0.94905 0.33668 0.62072 0.0
N299 N 0.95558 0.36314 0.60764 0.0
N300 N 0.92241 0.36219 0.60062 0.0
C301 C 0.93917 0.37827 0.59536 0.0
H302 H 0.9191 0.31799 0.62437 0.0
Co303 Co 0.89541 0.37068 0.59554 0.0
C304 C 0.89424 0.42096 0.52925 0.0
O305 O 0.88165 0.40642 0.50255 0.0
N306 N 0.86717 0.37892 0.59227 0.0
C307 C 0.8349 0.37928 0.57245 0.0
C308 C 0.85386 0.37356 0.55685 0.0
C309 C 0.85555 0.38855 0.62866 0.0
N310 N 0.83595 0.38839 0.61801 0.0
O311 O 0.89683 0.38605 0.65885 0.0
H312 H 0.85736 0.36505 0.52191 0.0
H313 H 0.86114 0.39517 0.66313 0.0
O314 O 0.90134 0.40913 0.56711 0.0
C315 C 0.89238 0.36449 0.6855 0.0
O316 O 0.88603 0.34045 0.66536 0.0
N317 N 0.89505 0.35126 0.53669 0.0
C318 C 0.90017 0.30924 0.46561 0.0
C319 C 0.91083 0.33557 0.46423 0.0
C320 C 0.90818 0.35621 0.50033 0.0
C321 C 0.88488 0.32568 0.53901 0.0
C322 C 0.88672 0.30485 0.50328 0.0
H323 H 0.91764 0.37521 0.50075 0.0
H324 H 0.87566 0.32101 0.56977 0.0
H325 H 0.93935 0.40074 0.58411 0.0
H326 H 0.95835 0.31896 0.63257 0.0
H327 H 0.82134 0.37548 0.55252 0.0
H328 H 0.9219 0.33969 0.43697 0.0
H329 H 0.87797 0.28519 0.50606 0.0
C330 C 0.6313 0.32752 0.87337 0.0
C331 C 0.6111 0.32457 0.8762 0.0
N332 N 0.60314 0.35089 0.88415 0.0
N333 N 0.63632 0.35556 0.87956 0.0
C334 C 0.61879 0.3695 0.88559 0.0
H335 H 0.64181 0.3102 0.86769 0.0
Co336 Co 0.6631 0.36664 0.87935 0.0
C337 C 0.6641 0.41659 0.94582 0.0
O338 O 0.67729 0.40274 0.97164 0.0
N339 N 0.691 0.37716 0.87732 0.0
C340 C 0.72351 0.38135 0.89319 0.0
C341 C 0.70515 0.37462 0.91166 0.0
C342 C 0.70155 0.38574 0.83824 0.0
N343 N 0.72127 0.38808 0.84674 0.0
O344 O 0.65919 0.38206 0.81685 0.0
H345 H 0.70272 0.36707 0.94778 0.0
H346 H 0.69514 0.38978 0.8035 0.0
O347 O 0.65676 0.40456 0.90843 0.0
C348 C 0.66232 0.36038 0.78974 0.0
O349 O 0.66896 0.33621 0.80877 0.0
N350 N 0.66599 0.34748 0.93825 0.0
C351 C 0.66349 0.30524 0.00998 0.0
C352 C 0.65183 0.33045 0.01195 0.0
C353 C 0.6532 0.35119 0.97562 0.0
C354 C 0.67733 0.32311 0.93559 0.0
C355 C 0.67674 0.30217 0.97162 0.0
H356 H 0.64289 0.3691 0.9757 0.0
H357 H 0.68629 0.31927 0.90416 0.0
H358 H 0.61755 0.39256 0.89197 0.0
H359 H 0.60286 0.3045 0.87233 0.0
H360 H 0.73755 0.37975 0.91194 0.0
H361 H 0.64085 0.33346 0.03975 0.0
H362 H 0.68618 0.28334 0.96843 0.0
C363 C 0.92782 0.7218 0.36757 0.0
C364 C 0.94811 0.72432 0.36856 0.0
N365 N 0.95592 0.69786 0.37636 0.0
N366 N 0.92264 0.69387 0.37475 0.0
C367 C 0.94013 0.67961 0.37934 0.0
H368 H 0.91739 0.7394 0.3633 0.0
Co369 Co 0.89594 0.68207 0.37867 0.0
C370 C 0.90318 0.63302 0.44935 0.0
O371 O 0.89688 0.64864 0.48539 0.0
N372 N 0.8686 0.67033 0.38046 0.0
C373 C 0.83909 0.65182 0.40102 0.0
C374 C 0.85843 0.65632 0.41531 0.0
C375 C 0.85475 0.67449 0.34572 0.0
N376 N 0.83678 0.66328 0.35711 0.0
O377 O 0.89828 0.66687 0.31529 0.0
H378 H 0.86432 0.65007 0.44954 0.0
H379 H 0.85767 0.68526 0.3122 0.0
O380 O 0.90362 0.6439 0.407 0.0
C381 C 0.8953 0.68901 0.28878 0.0
O382 O 0.8903 0.71362 0.30901 0.0
N383 N 0.89375 0.70144 0.43836 0.0
C384 C 0.89472 0.74594 0.50664 0.0
C385 C 0.91015 0.72563 0.50377 0.0
C386 C 0.9094 0.7037 0.46949 0.0
C387 C 0.87839 0.72061 0.44151 0.0
C388 C 0.87838 0.74252 0.4759 0.0
H389 H 0.92206 0.6895 0.46629 0.0
H390 H 0.86663 0.72043 0.41519 0.0
H391 H 0.94125 0.65664 0.3868 0.0
H392 H 0.95647 0.74427 0.36443 0.0
H393 H 0.82754 0.64132 0.42176 0.0
H394 H 0.92331 0.7275 0.52586 0.0
H395 H 0.86594 0.75731 0.47697 0.0
C396 C 0.42475 0.33958 0.89035 0.0
C397 C 0.44468 0.33356 0.89009 0.0
N398 N 0.45487 0.35879 0.88795 0.0
N399 N 0.42218 0.36851 0.88908 0.0
C400 C 0.4408 0.37975 0.88753 0.0
H401 H 0.41281 0.32382 0.89052 0.0
Co402 Co 0.39713 0.38548 0.8831 0.0
C403 C 0.39886 0.43449 0.95123 0.0
O404 O 0.38268 0.42362 0.97064 0.0
N405 N 0.37148 0.40259 0.87386 0.0
C406 C 0.34922 0.43604 0.8528 0.0
C407 C 0.36796 0.43138 0.87018 0.0
C408 C 0.35457 0.39033 0.85613 0.0
N409 N 0.34078 0.41022 0.84316 0.0
O410 O 0.40477 0.39922 0.82146 0.0
H411 H 0.37884 0.44836 0.87518 0.0
H412 H 0.35311 0.36753 0.848 0.0
O413 O 0.40675 0.42161 0.91522 0.0
C414 C 0.39918 0.37874 0.79389 0.0
O415 O 0.38928 0.35684 0.81239 0.0
N416 N 0.38981 0.36773 0.94162 0.0
C417 C 0.38714 0.32483 0.01264 0.0
C418 C 0.4002 0.34848 0.01769 0.0
C419 C 0.40169 0.36919 0.98134 0.0
C420 C 0.37643 0.34562 0.93719 0.0
C421 C 0.37477 0.3241 0.97222 0.0
H422 H 0.4136 0.3849 0.98345 0.0
H423 H 0.36852 0.34257 0.90411 0.0
H424 H 0.44394 0.4027 0.88419 0.0
H425 H 0.45113 0.31212 0.89117 0.0
H426 H 0.34286 0.45704 0.84499 0.0
H427 H 0.40999 0.3503 0.04831 0.0
H428 H 0.3649 0.30594 0.96566 0.0
C429 C 0.12972 0.71496 0.39808 0.0
C430 C 0.10944 0.71581 0.40189 0.0
N431 N 0.10246 0.68851 0.39921 0.0
N432 N 0.13566 0.68715 0.39393 0.0
C433 C 0.1186 0.67141 0.39397 0.0
H434 H 0.13965 0.73345 0.39912 0.0
Co435 Co 0.16266 0.67715 0.3896 0.0
C436 C 0.16279 0.62598 0.45644 0.0
O437 O 0.17396 0.64004 0.48715 0.0
N438 N 0.1903 0.66756 0.38366 0.0
C439 C 0.22248 0.65969 0.39816 0.0
C440 C 0.20415 0.66413 0.41835 0.0
C441 C 0.20093 0.6652 0.34254 0.0
N442 N 0.2205 0.66042 0.35028 0.0
O443 O 0.15771 0.66263 0.32678 0.0
H444 H 0.20164 0.66664 0.45618 0.0
H445 H 0.1946 0.66743 0.30732 0.0
O446 O 0.15724 0.63837 0.41756 0.0
C447 C 0.1574 0.68568 0.30155 0.0
O448 O 0.16181 0.71053 0.322 0.0
N449 N 0.16699 0.6955 0.4489 0.0
C450 C 0.1662 0.73849 0.51882 0.0
C451 C 0.15359 0.71429 0.52209 0.0
C452 C 0.15415 0.69302 0.48662 0.0
C453 C 0.1796 0.71869 0.44593 0.0
C454 C 0.17978 0.74009 0.48108 0.0
H455 H 0.14313 0.6759 0.4873 0.0
H456 H 0.18859 0.72179 0.41428 0.0
H457 H 0.11802 0.64801 0.39118 0.0
H458 H 0.10043 0.73503 0.40621 0.0
H459 H 0.23635 0.65766 0.41749 0.0
H460 H 0.14277 0.71252 0.55062 0.0
H461 H 0.18943 0.75878 0.47689 0.0
C462 C 0.42849 0.73022 0.12769 0.0
C463 C 0.44878 0.73084 0.13252 0.0
N464 N 0.45587 0.70453 0.12092 0.0
N465 N 0.4227 0.70359 0.11343 0.0
C466 C 0.43977 0.68835 0.10926 0.0
H467 H 0.4185 0.74806 0.13439 0.0
Co468 Co 0.39593 0.69379 0.10652 0.0
C469 C 0.39684 0.64281 0.04199 0.0
O470 O 0.38472 0.65657 0.0131 0.0
N471 N 0.36791 0.68423 0.10121 0.0
C472 C 0.33597 0.6822 0.07884 0.0
C473 C 0.35506 0.6885 0.0645 0.0
C474 C 0.35593 0.67452 0.13703 0.0
N475 N 0.33647 0.67371 0.12487 0.0
O476 O 0.39661 0.67932 0.17058 0.0
H477 H 0.35896 0.69664 0.02948 0.0
H478 H 0.3612 0.66847 0.17206 0.0
O479 O 0.40283 0.65521 0.08043 0.0
C480 C 0.39177 0.70116 0.1959 0.0
O481 O 0.3857 0.72484 0.17423 0.0
N482 N 0.39618 0.71248 0.0468 0.0
C483 C 0.40205 0.75439 0.97547 0.0
C484 C 0.413 0.72845 0.97559 0.0
C485 C 0.41 0.70789 0.01188 0.0
C486 C 0.38561 0.73761 0.04745 0.0
C487 C 0.38786 0.75837 0.01158 0.0
H488 H 0.41972 0.68932 0.0137 0.0
H489 H 0.37581 0.74208 0.07716 0.0
H490 H 0.4404 0.66582 0.09867 0.0
H491 H 0.4577 0.74937 0.14301 0.0
H492 H 0.32269 0.68511 0.05752 0.0
H493 H 0.42456 0.72468 0.94946 0.0
H494 H 0.37885 0.77773 0.01308 0.0
C495 C 0.12583 0.33016 0.59278 0.0
C496 C 0.10558 0.33218 0.58862 0.0
N497 N 0.1006 0.3603 0.59174 0.0
N498 N 0.13372 0.35696 0.59763 0.0
C499 C 0.11787 0.37498 0.59768 0.0
H500 H 0.13433 0.31032 0.59186 0.0
Co501 Co 0.16123 0.36385 0.6017 0.0
C502 C 0.16545 0.41417 0.53415 0.0
O503 O 0.17821 0.3999 0.50787 0.0
N504 N 0.18948 0.37036 0.60649 0.0
C505 C 0.2219 0.3722 0.58962 0.0
C506 C 0.20326 0.36737 0.57156 0.0
C507 C 0.20055 0.37681 0.64588 0.0
N508 N 0.22027 0.37811 0.63648 0.0
O509 O 0.15745 0.38039 0.6635 0.0
H510 H 0.2003 0.36102 0.53508 0.0
H511 H 0.1944 0.38047 0.68097 0.0
O512 O 0.15776 0.4021 0.57107 0.0
C513 C 0.15648 0.35775 0.68966 0.0
O514 O 0.15922 0.33228 0.66976 0.0
N515 N 0.16427 0.34354 0.54454 0.0
C516 C 0.16369 0.29973 0.47584 0.0
C517 C 0.15427 0.32645 0.46714 0.0
C518 C 0.15432 0.34791 0.50255 0.0
C519 C 0.17334 0.31775 0.55352 0.0
C520 C 0.17332 0.2957 0.51981 0.0
H521 H 0.14554 0.36722 0.49728 0.0
H522 H 0.17983 0.31375 0.58834 0.0
H523 H 0.11895 0.39831 0.60122 0.0
H524 H 0.09523 0.31435 0.58421 0.0
H525 H 0.23569 0.37047 0.56995 0.0
H526 H 0.1465 0.33055 0.43389 0.0
H527 H 0.1801 0.27522 0.52925 0.0
H528 H 0.26271 0.14009 0.11497 0.0
H529 H 0.22465 0.17398 0.22552 0.0
H530 H 0.29042 0.13944 0.17114 0.0
H531 H 0.25228 0.17384 0.28129 0.0
H532 H 0.3025 0.15209 0.38295 0.0
H533 H 0.27472 0.1456 0.32777 0.0
H534 H 0.31218 0.17262 0.21031 0.0
H535 H 0.33987 0.17861 0.26517 0.0
C536 C 0.2602 0.14749 0.15116 0.0
C537 C 0.24134 0.15739 0.1653 0.0
C538 C 0.27615 0.14717 0.18347 0.0
C539 C 0.27374 0.15683 0.23087 0.0
C540 C 0.25474 0.16588 0.24538 0.0
C541 C 0.23879 0.16605 0.21314 0.0
C542 C 0.30481 0.15656 0.34534 0.0
C543 C 0.32349 0.16597 0.32875 0.0
C544 C 0.28885 0.15291 0.31361 0.0
C545 C 0.29107 0.15869 0.2644 0.0
C546 C 0.30989 0.16747 0.24772 0.0
C547 C 0.32586 0.17097 0.27938 0.0
H548 H 0.22566 0.8612 0.76403 0.0
H549 H 0.25745 0.90815 0.87373 0.0
H550 H 0.254 0.86739 0.70981 0.0
H551 H 0.2857 0.91378 0.82036 0.0
H552 H 0.32321 0.94749 0.69863 0.0
H553 H 0.29383 0.94048 0.74737 0.0
H554 H 0.28979 0.85151 0.70049 0.0
H555 H 0.31928 0.8588 0.65012 0.0
C556 C 0.23861 0.87295 0.77651 0.0
C557 C 0.23925 0.88418 0.82331 0.0
C558 C 0.25493 0.87621 0.74564 0.0
C559 C 0.27213 0.89111 0.76069 0.0
C560 C 0.27265 0.90244 0.80735 0.0
C561 C 0.25648 0.89899 0.83818 0.0
C562 C 0.316 0.9265 0.6979 0.0
C563 C 0.32365 0.90374 0.67005 0.0
C564 C 0.29921 0.92239 0.72645 0.0
C565 C 0.28948 0.89539 0.72813 0.0
C566 C 0.29687 0.87264 0.6998 0.0
C567 C 0.31385 0.87672 0.67128 0.0
H568 H 0.72353 0.91236 0.71138 0.0
H569 H 0.76202 0.86849 0.61157 0.0
H570 H 0.751 0.91596 0.76819 0.0
H571 H 0.78926 0.87217 0.66796 0.0
H572 H 0.83957 0.90011 0.76196 0.0
H573 H 0.81204 0.90503 0.70632 0.0
H574 H 0.77072 0.88504 0.81986 0.0
H575 H 0.79827 0.88112 0.87609 0.0
C576 C 0.73777 0.90348 0.70138 0.0
C577 C 0.74039 0.89012 0.65654 0.0
C578 C 0.75357 0.90556 0.73406 0.0
C579 C 0.77243 0.89443 0.72277 0.0
C580 C 0.77511 0.88153 0.67768 0.0
C581 C 0.75936 0.87941 0.64513 0.0
C582 C 0.82466 0.89732 0.77554 0.0
C583 C 0.82131 0.88981 0.82374 0.0
C584 C 0.8088 0.89983 0.74331 0.0
C585 C 0.7891 0.89499 0.75826 0.0
C586 C 0.78565 0.88899 0.80694 0.0
C587 C 0.80152 0.88645 0.8392 0.0
H588 H 0.7598 0.13766 0.36541 0.0
H589 H 0.72521 0.18318 0.2593 0.0
H590 H 0.78801 0.13668 0.31084 0.0
H591 H 0.75346 0.18274 0.20494 0.0
H592 H 0.80205 0.15468 0.10205 0.0
H593 H 0.77366 0.15335 0.1555 0.0
H594 H 0.81265 0.1671 0.27632 0.0
H595 H 0.84117 0.16684 0.22319 0.0
C596 C 0.75824 0.14756 0.33047 0.0
C597 C 0.7402 0.16047 0.31685 0.0
C598 C 0.77447 0.14713 0.29915 0.0
C599 C 0.77317 0.15979 0.25336 0.0
C600 C 0.75501 0.17238 0.23953 0.0
C601 C 0.73873 0.17263 0.27077 0.0
C602 C 0.8047 0.1571 0.14 0.0
C603 C 0.82412 0.1608 0.15794 0.0
C604 C 0.78828 0.1567 0.17077 0.0
C605 C 0.79073 0.16012 0.22045 0.0
C606 C 0.81012 0.16397 0.2384 0.0
C607 C 0.82655 0.16424 0.20767 0.0
H608 H 0.74195 0.61145 0.16688 0.0
H609 H 0.72919 0.70161 0.1935 0.0
H610 H 0.77073 0.61436 0.21981 0.0
H611 H 0.75807 0.70453 0.24697 0.0
H612 H 0.82544 0.70313 0.29076 0.0
H613 H 0.79571 0.70166 0.24024 0.0
H614 H 0.77797 0.62113 0.30695 0.0
H615 H 0.80771 0.62246 0.35702 0.0
C616 C 0.74532 0.63193 0.184 0.0
C617 C 0.7333 0.65632 0.17582 0.0
C618 C 0.76173 0.63353 0.21468 0.0
C619 C 0.76671 0.65967 0.23763 0.0
C620 C 0.7547 0.68412 0.22956 0.0
C621 C 0.73807 0.6824 0.1993 0.0
C622 C 0.81522 0.68509 0.29455 0.0
C623 C 0.819 0.66289 0.32794 0.0
C624 C 0.79809 0.68439 0.26592 0.0
C625 C 0.78448 0.66126 0.26953 0.0
C626 C 0.78823 0.63914 0.30303 0.0
C627 C 0.8052 0.64003 0.33202 0.0
H628 H 0.8359 0.38032 0.71417 0.0
H629 H 0.79837 0.40534 0.59595 0.0
H630 H 0.80788 0.38368 0.7683 0.0
H631 H 0.77011 0.40893 0.65039 0.0
H632 H 0.72095 0.37429 0.75229 0.0
H633 H 0.74853 0.37777 0.69625 0.0
H634 H 0.78516 0.41564 0.80698 0.0
H635 H 0.75754 0.41186 0.86308 0.0
C636 C 0.82178 0.38718 0.69981 0.0
C637 C 0.81951 0.39264 0.65058 0.0
C638 C 0.8056 0.38909 0.73098 0.0
C639 C 0.78663 0.3966 0.7139 0.0
C640 C 0.78441 0.40267 0.66478 0.0
C641 C 0.80063 0.40069 0.63353 0.0
C642 C 0.73474 0.38389 0.76445 0.0
C643 C 0.73701 0.39272 0.81231 0.0
C644 C 0.75062 0.38588 0.73225 0.0
C645 C 0.7692 0.39681 0.74702 0.0
C646 C 0.77123 0.40657 0.79449 0.0
C647 C 0.75537 0.40447 0.8267 0.0
H648 H 0.25539 0.40333 0.61496 0.0
H649 H 0.2224 0.36512 0.73162 0.0
H650 H 0.28391 0.41001 0.66709 0.0
H651 H 0.25111 0.37248 0.78475 0.0
H652 H 0.31673 0.36248 0.84418 0.0
H653 H 0.28647 0.35468 0.79654 0.0
H654 H 0.29327 0.44003 0.73482 0.0
H655 H 0.32339 0.44741 0.78053 0.0
C656 C 0.25421 0.39637 0.65186 0.0
C657 C 0.2366 0.3836 0.66898 0.0
C658 C 0.27055 0.40044 0.68195 0.0
C659 C 0.26983 0.39186 0.73021 0.0
C660 C 0.2522 0.37915 0.74766 0.0
C661 C 0.23569 0.37523 0.71741 0.0
C662 C 0.31175 0.37949 0.82033 0.0
C663 C 0.32258 0.40558 0.81646 0.0
C664 C 0.29431 0.37515 0.79341 0.0
C665 C 0.28748 0.3967 0.76168 0.0
C666 C 0.29819 0.42284 0.75844 0.0
C667 C 0.31544 0.42719 0.78528 0.0
H668 H 0.25652 0.63497 0.36118 0.0
H669 H 0.22077 0.6826 0.25963 0.0
H670 H 0.28423 0.63577 0.30538 0.0
H671 H 0.24853 0.68318 0.20363 0.0
H672 H 0.29867 0.65855 0.0995 0.0
H673 H 0.26998 0.65308 0.15226 0.0
H674 H 0.30718 0.67214 0.27426 0.0
H675 H 0.33559 0.67794 0.22196 0.0
C676 C 0.25453 0.64568 0.32703 0.0
C677 C 0.23637 0.659 0.31538 0.0
C678 C 0.27046 0.6461 0.29494 0.0
C679 C 0.26871 0.65977 0.25011 0.0
C680 C 0.25036 0.67223 0.23766 0.0
C681 C 0.2344 0.67189 0.26989 0.0
C682 C 0.30076 0.66162 0.13754 0.0
C683 C 0.31963 0.66862 0.1562 0.0
C684 C 0.28427 0.65848 0.16782 0.0
C685 C 0.28624 0.6621 0.21759 0.0
C686 C 0.30513 0.66868 0.23625 0.0
C687 C 0.32154 0.67194 0.20606 0.0
H688 H 0.98721 0.22722 0.04676 0.0
H689 H 0.97937 0.14694 0.12411 0.0
H690 H 1.02268 0.21924 0.04344 0.0
H691 H 1.01536 0.13825 0.11958 0.0
H692 H 0.08279 0.16211 0.15717 0.0
H693 H 0.04636 0.15849 0.15353 0.0
H694 H 0.04779 0.19025 0.00793 0.0
H695 H 0.08393 0.19479 0.01294 0.0
C696 C 0.99309 0.20769 0.06286 0.0
C697 C 0.98046 0.18789 0.08618 0.0
C698 C 1.01349 0.20286 0.06037 0.0
C699 C 1.02199 0.17798 0.08098 0.0
C700 C 1.00933 0.15771 0.1035 0.0
C701 C 0.98873 0.16254 0.10579 0.0
C702 C 0.0752 0.16744 0.12413 0.0
C703 C 0.08595 0.17866 0.08527 0.0
C704 C 0.05439 0.16541 0.12192 0.0
C705 C 0.04406 0.17456 0.08068 0.0
C706 C 0.05516 0.18365 0.04064 0.0
C707 C 0.07583 0.18598 0.04316 0.0
H708 H 0.5845 0.9002 0.62693 0.0
H709 H 0.57664 0.81555 0.56389 0.0
H710 H 0.5481 0.90618 0.62914 0.0
H711 H 0.54083 0.82124 0.56696 0.0
H712 H 0.48261 0.82148 0.64691 0.0
H713 H 0.51857 0.82365 0.64256 0.0
H714 H 0.51528 0.90643 0.57092 0.0
H715 H 0.47876 0.90401 0.57419 0.0
C716 C 0.57507 0.88312 0.61295 0.0
C717 C 0.58347 0.85712 0.59625 0.0
C718 C 0.55429 0.88652 0.61429 0.0
C719 C 0.54166 0.86391 0.5991 0.0
C720 C 0.55016 0.83876 0.57991 0.0
C721 C 0.57072 0.83547 0.57833 0.0
C722 C 0.4894 0.84014 0.62992 0.0
C723 C 0.47767 0.86223 0.60986 0.0
C724 C 0.51007 0.84144 0.62769 0.0
C725 C 0.51974 0.86498 0.60573 0.0
C726 C 0.5082 0.888 0.58801 0.0
C727 C 0.48731 0.8866 0.58993 0.0
H728 H 0.97602 0.87852 0.94459 0.0
H729 H 0.98679 0.87161 0.7931 0.0
H730 H 1.01194 0.88366 0.9587 0.0
H731 H 1.02244 0.87683 0.80676 0.0
H732 H 0.08615 0.89844 0.84195 0.0
H733 H 0.0504 0.90876 0.83649 0.0
H734 H 0.03909 0.84651 0.94895 0.0
H735 H 0.07459 0.8363 0.95397 0.0
C736 C 0.98604 0.87888 0.91431 0.0
C737 C 0.97871 0.87442 0.86784 0.0
C738 C 1.00657 0.88163 0.92231 0.0
C739 C 1.02006 0.88053 0.88384 0.0
C740 C 1.0125 0.87803 0.83714 0.0
C741 C 0.9921 0.87482 0.8293 0.0
C742 C 0.076 0.88758 0.86616 0.0
C743 C 0.08305 0.86642 0.89808 0.0
C744 C 0.05557 0.89331 0.86292 0.0
C745 C 0.04189 0.87837 0.8922 0.0
C746 C 0.04919 0.8586 0.92619 0.0
C747 C 0.06949 0.85255 0.92883 0.0
H748 H 0.58298 0.1986 0.46311 0.0
H749 H 0.58027 0.16432 0.32025 0.0
H750 H 0.54675 0.19644 0.46882 0.0
H751 H 0.54379 0.16287 0.3247 0.0
H752 H 0.47669 0.15577 0.35629 0.0
H753 H 0.51236 0.14473 0.36121 0.0
H754 H 0.52258 0.22702 0.43086 0.0
H755 H 0.48737 0.23748 0.42689 0.0
C756 C 0.57451 0.18984 0.43346 0.0
C757 C 0.58421 0.18143 0.39146 0.0
C758 C 0.5538 0.18888 0.43637 0.0
C759 C 0.54229 0.17999 0.39687 0.0
C760 C 0.55216 0.16966 0.35588 0.0
C761 C 0.57298 0.17042 0.35323 0.0
C762 C 0.48661 0.17118 0.37326 0.0
C763 C 0.47925 0.19761 0.39081 0.0
C764 C 0.50702 0.16499 0.37578 0.0
C765 C 0.52038 0.18492 0.39659 0.0
C766 C 0.51279 0.21091 0.41526 0.0
C767 C 0.49257 0.21713 0.41241 0.0
H768 H 0.47424 0.67118 0.05495 0.0
H769 H 0.48424 0.72028 0.18393 0.0
H770 H 0.51019 0.6636 0.04717 0.0
H771 H 0.52002 0.71267 0.17651 0.0
H772 H 0.58351 0.67821 0.16346 0.0
H773 H 0.54742 0.67415 0.17553 0.0
H774 H 0.53773 0.70031 0.02895 0.0
H775 H 0.57356 0.7045 0.01726 0.0
C776 C 0.48411 0.67977 0.08213 0.0
C777 C 0.47653 0.69651 0.11979 0.0
C778 C 0.50464 0.67561 0.07758 0.0
C779 C 0.51792 0.68765 0.11115 0.0
C780 C 0.51019 0.70296 0.15028 0.0
C781 C 0.48974 0.70751 0.15433 0.0
C782 C 0.5736 0.68267 0.13381 0.0
C783 C 0.58126 0.69192 0.08959 0.0
C784 C 0.55301 0.68047 0.14069 0.0
C785 C 0.53975 0.68688 0.10313 0.0
C786 C 0.54753 0.69495 0.05841 0.0
C787 C 0.56802 0.69764 0.05185 0.0
H788 H 0.07393 0.35062 0.52235 0.0
H789 H 0.08215 0.39299 0.6581 0.0
H790 H 0.03822 0.36011 0.52593 0.0
H791 H 0.04617 0.40207 0.66262 0.0
H792 H 0.98263 0.35449 0.67693 0.0
H793 H 1.01846 0.36284 0.67167 0.0
H794 H 1.01082 0.39981 0.53083 0.0
H795 H 0.97472 0.39185 0.5368 0.0
C796 C 0.06805 0.36269 0.55232 0.0
C797 C 0.08064 0.3712 0.58985 0.0
C798 C 0.04767 0.36821 0.55437 0.0
C799 C 0.03939 0.38179 0.5946 0.0
C800 C 0.05216 0.39157 0.63118 0.0
C801 C 0.07269 0.38658 0.62855 0.0
C802 C 0.98861 0.36501 0.64537 0.0
C803 C 0.97602 0.37242 0.60718 0.0
C804 C 1.00907 0.36998 0.64245 0.0
C805 C 1.01745 0.38196 0.60082 0.0
C806 C 1.00475 0.39055 0.56335 0.0
C807 C 0.98415 0.38614 0.56677 0.0
H808 H 0.48059 0.31997 0.85096 0.0
H809 H 0.47789 0.40449 0.91685 0.0
H810 H 0.51657 0.32191 0.85284 0.0
H811 H 0.51445 0.40663 0.91779 0.0
H812 H 0.58264 0.39948 0.85839 0.0
H813 H 0.54623 0.40531 0.85929 0.0
H814 H 0.5402 0.32082 0.92446 0.0
H815 H 0.57606 0.31523 0.92415 0.0
C816 C 0.48764 0.33899 0.86604 0.0
C817 C 0.47624 0.36177 0.88483 0.0
C818 C 0.50834 0.34015 0.86688 0.0
C819 C 0.51835 0.36419 0.88624 0.0
C820 C 0.50711 0.38779 0.90276 0.0
C821 C 0.4862 0.38656 0.90218 0.0
C822 C 0.57348 0.38248 0.87367 0.0
C823 C 0.5822 0.35662 0.89023 0.0
C824 C 0.55269 0.38578 0.87413 0.0
C825 C 0.54037 0.36324 0.89104 0.0
C826 C 0.54926 0.33828 0.91015 0.0
C827 C 0.56983 0.33505 0.90985 0.0
H828 H 0.97577 0.64802 0.35545 0.0
H829 H 0.9833 0.73365 0.41498 0.0
H830 H 1.01157 0.63918 0.36572 0.0
H831 H 1.01857 0.72538 0.42381 0.0
H832 H 0.07795 0.7015 0.47101 0.0
H833 H 0.04176 0.69805 0.47034 0.0
H834 H 0.04399 0.65629 0.33218 0.0
H835 H 0.08051 0.65892 0.33429 0.0
C836 C 0.98501 0.66483 0.37095 0.0
C837 C 0.9767 0.69163 0.38402 0.0
C838 C 1.0055 0.65987 0.37651 0.0
C839 C 1.01798 0.68149 0.3959 0.0
C840 C 1.00947 0.708 0.40956 0.0
C841 C 0.9892 0.71294 0.40381 0.0
C842 C 0.07064 0.69084 0.44126 0.0
C843 C 0.08186 0.68054 0.40271 0.0
C844 C 0.04994 0.68908 0.44053 0.0
C845 C 0.0399 0.67752 0.40066 0.0
C846 C 0.05122 0.66526 0.36349 0.0
C847 C 0.07209 0.66671 0.36461 0.0
H848 H 0.17378 0.09908 0.94715 0.0
H849 H 0.14922 0.0856 0.08823 0.0
H850 H 0.16887 0.04816 0.9288 0.0
H851 H 0.144 0.03423 0.06942 0.0
H852 H 0.1704 0.94231 0.04112 0.0
H853 H 0.16652 0.99345 0.05873 0.0
H854 H 0.14551 1.00844 0.91471 0.0
H855 H 0.1497 0.95682 0.89668 0.0
C856 C 0.16706 0.08531 0.97414 0.0
C857 C 0.16215 0.09639 0.01947 0.0
C858 C 0.16405 0.05607 0.96334 0.0
C859 C 0.15612 0.03699 -0.00236 0.0
C860 C 0.15036 0.04829 0.04234 0.0
C861 C 0.15327 0.07773 0.05309 0.0
C862 C 0.16474 0.95637 0.0132 0.0
C863 C 0.16061 0.94548 0.96722 0.0
C864 C 0.16232 0.98575 0.02354 0.0
C865 C 0.15578 1.00516 0.98815 0.0
C866 C 0.1508 0.9941 0.94266 0.0
C867 C 0.15311 0.96453 0.93236 0.0
H868 H 0.42002 0.97514 0.59036 0.0
H869 H 0.39922 0.95645 0.4475 0.0
H870 H 0.42442 1.0262 0.56805 0.0
H871 H 0.40329 1.00714 0.42548 0.0
H872 H 0.41745 0.10045 0.39092 0.0
H873 H 0.42435 0.04973 0.41179 0.0
H874 H 0.39991 0.06377 0.55262 0.0
H875 H 0.39329 0.1139 0.53217 0.0
C876 C 0.41686 0.98176 0.55394 0.0
C877 C 0.40905 0.96182 0.5209 0.0
C878 C 0.41921 1.01106 0.5412 0.0
C879 C 0.41396 1.02092 0.49507 0.0
C880 C 0.4076 1.00043 0.46116 0.0
C881 C 0.40513 0.97132 0.47396 0.0
C882 C 0.41386 0.09274 0.42651 0.0
C883 C 0.40459 0.11116 0.4596 0.0
C884 C 0.41775 0.06367 0.43846 0.0
C885 C 0.41266 0.05257 0.48393 0.0
C886 C 0.40429 0.07151 0.51756 0.0
C887 C 0.40027 0.1003 0.50554 0.0
H888 H 0.92211 0.95585 0.90219 0.0
H889 H 0.87637 0.94935 0.01001 0.0
H890 H 0.92966 1.00522 0.92889 0.0
H891 H 0.88362 0.99847 0.0359 0.0
H892 H 0.90583 0.08374 0.09182 0.0
H893 H 0.90682 0.0317 0.07387 0.0
H894 H 0.91318 0.05141 0.92345 0.0
H895 H 0.91258 0.10283 0.94141 0.0
C896 C 0.91375 0.96483 0.93171 0.0
C897 C 0.89849 0.94867 0.95354 0.0
C898 C 0.91804 0.99317 0.94699 0.0
C899 C 0.90722 1.00596 0.98456 0.0
C900 C 0.89247 0.98932 0.00739 0.0
C901 C 0.88817 0.96113 -0.0079 0.0
C902 C 0.90794 0.07687 0.05514 0.0
C903 C 0.90893 0.09742 0.01804 0.0
C904 C 0.90832 0.04707 0.04473 0.0
C905 C 0.90987 0.03726 -0.00293 0.0
C906 C 0.91213 0.05797 0.96054 0.0
C907 C 0.91163 0.08758 0.97087 0.0
H908 H 0.64707 0.08607 0.39352 0.0
H909 H 0.67003 0.10203 0.53552 0.0
H910 H 0.64138 0.03514 0.41498 0.0
H911 H 0.66474 0.05156 0.55645 0.0
H912 H 0.64721 0.96046 0.59253 0.0
H913 H 0.64201 1.01158 0.57152 0.0
H914 H 0.66365 0.99489 0.42878 0.0
H915 H 0.66844 0.94435 0.4493 0.0
C916 C 0.65066 0.07885 0.42939 0.0
C917 C 0.65928 0.09804 0.46249 0.0
C918 C 0.64748 0.04965 0.44169 0.0
C919 C 0.65273 0.03914 0.48742 0.0
C920 C 0.66031 0.05882 0.52115 0.0
C921 C 0.66356 0.08781 0.50885 0.0
C922 C 0.65047 0.96769 0.55647 0.0
C923 C 0.65851 0.94843 0.52287 0.0
C924 C 0.64759 0.99697 0.54444 0.0
C925 C 0.65254 1.00746 0.49848 0.0
C926 C 0.65946 0.98768 0.46428 0.0
C927 C 0.66243 0.95864 0.47632 0.0
H928 H 0.61487 0.59024 -0.0047 0.0
H929 H 0.67133 0.58744 0.06892 0.0
H930 H 0.61903 0.53988 0.97096 0.0
H931 H 0.67578 0.53754 0.04333 0.0
H932 H 0.67005 0.44098 0.03293 0.0
H933 H 0.66313 0.49016 0.05801 0.0
H934 H 0.63828 0.50893 0.91874 0.0
H935 H 0.64478 0.45889 0.89387 0.0
C936 C 0.6282 0.57894 0.00625 0.0
C937 C 0.64278 0.59297 0.03412 0.0
C938 C 0.63064 0.55009 -0.00807 0.0
C939 C 0.64772 0.53455 0.00512 0.0
C940 C 0.66227 0.54862 0.03308 0.0
C941 C 0.65979 0.57739 0.04754 0.0
C942 C 0.66301 0.45548 0.00756 0.0
C943 C 0.65814 0.44606 0.96117 0.0
C944 C 0.65916 0.48383 0.02193 0.0
C945 C 0.65046 0.50376 0.99023 0.0
C946 C 0.64493 0.49413 0.9442 0.0
C947 C 0.64868 0.4655 0.92986 0.0
H948 H 0.88122 0.45066 0.451 0.0
H949 H 0.9194 0.45962 0.57453 0.0
H950 H 0.88739 0.50079 0.42955 0.0
H951 H 0.92608 0.51009 0.55212 0.0
H952 H 0.9072 0.60625 0.53561 0.0
H953 H 0.90848 0.55476 0.55243 0.0
H954 H 0.90996 0.5368 0.40079 0.0
H955 H 0.90803 0.58885 0.38383 0.0
C956 C 0.89118 0.46322 0.47337 0.0
C957 C 0.89964 0.45108 0.51491 0.0
C958 C 0.89489 0.49206 0.46067 0.0
C959 C 0.90723 0.50971 0.48899 0.0
C960 C 0.91627 0.4973 0.52973 0.0
C961 C 0.91251 0.46832 0.54256 0.0
C962 C 0.90802 0.59143 0.50567 0.0
C963 C 0.90722 0.60177 0.45826 0.0
C964 C 0.90895 0.56174 0.51543 0.0
C965 C 0.90916 0.5414 0.47808 0.0
C966 C 0.90946 0.55179 0.43053 0.0
C967 C 0.90852 0.58165 0.42072 0.0
H968 H 0.39304 0.45861 0.03842 0.0
H969 H 0.41922 0.47639 0.90051 0.0
H970 H 0.39756 0.50904 0.0613 0.0
H971 H 0.42397 0.52725 0.92365 0.0
H972 H 0.39388 0.6168 0.95504 0.0
H973 H 0.39986 0.56641 0.93486 0.0
H974 H 0.41974 0.55001 0.07936 0.0
H975 H 0.41356 0.6009 0.09984 0.0
C976 C 0.4002 0.47322 0.01332 0.0
C977 C 0.40559 0.46355 0.96745 0.0
C978 C 0.40292 0.50217 0.02662 0.0
C979 C 0.41096 0.52236 -0.00577 0.0
C980 C 0.41751 0.51232 0.9493 0.0
C981 C 0.41495 0.48315 0.93613 0.0
C982 C 0.39976 0.60261 0.98251 0.0
C983 C 0.403 0.61286 0.02929 0.0
C984 C 0.40339 0.57368 0.97072 0.0
C985 C 0.41024 0.55403 0.00543 0.0
C986 C 0.4143 0.56452 0.05182 0.0
C987 C 0.41084 0.59369 0.06355 0.0
H988 H 0.15019 0.58341 0.39421 0.0
H989 H 0.16428 0.59899 0.54279 0.0
H990 H 0.14649 0.5315 0.41158 0.0
H991 H 0.16084 0.54759 0.55988 0.0
H992 H 0.14413 0.45438 0.58532 0.0
H993 H 0.13878 0.50543 0.56493 0.0
H994 H 0.1704 0.49333 0.43214 0.0
H995 H 0.17551 0.44261 0.45204 0.0
C996 C 0.15217 0.57586 0.43062 0.0
C997 C 0.15775 0.59528 0.46696 0.0
C998 C 0.15018 0.54613 0.44056 0.0
C999 C 0.1535 0.53532 0.48711 0.0
C1000 C 0.15799 0.55508 0.52378 0.0
C1001 C 0.16014 0.5846 0.51381 0.0
C1002 C 0.14971 0.46256 0.55154 0.0
C1003 C 0.16045 0.44445 0.52064 0.0
C1004 C 0.1467 0.49183 0.53989 0.0
C1005 C 0.15423 0.50354 0.49693 0.0
C1006 C 0.16419 0.48504 0.4652 0.0
C1007 C 0.16729 0.45594 0.47693 0.0
H1008 H 0.1804 0.37787 0.76118 0.0
H1009 H 0.12451 0.33542 0.73256 0.0
H1010 H 0.18106 0.35618 0.84102 0.0
H1011 H 0.12532 0.31283 0.81067 0.0
H1012 H 0.1316 0.26635 0.94739 0.0
H1013 H 0.12627 0.30713 0.89306 0.0
H1014 H 0.18901 0.30782 0.85936 0.0
H1015 H 0.19426 0.26818 0.91557 0.0
C1016 C 0.16776 0.36514 0.77296 0.0
C1017 C 0.15242 0.35817 0.74102 0.0
C1018 C 0.1683 0.35218 0.8183 0.0
C1019 C 0.15361 0.33185 0.83179 0.0
C1020 C 0.13694 0.32824 0.80194 0.0
C1021 C 0.13637 0.34135 0.75702 0.0
C1022 C 0.14419 0.27541 0.92832 0.0
C1023 C 0.16327 0.26388 0.93475 0.0
C1024 C 0.14119 0.29884 0.89738 0.0
C1025 C 0.15717 0.31085 0.87147 0.0
C1026 C 0.17637 0.2997 0.87925 0.0
C1027 C 0.17939 0.27664 0.91087 0.0
H1028 H 0.36063 0.80285 0.42 0.0
H1029 H 0.4222 0.78938 0.45655 0.0
H1030 H 0.36237 0.76364 0.36187 0.0
H1031 H 0.42388 0.7493 0.39992 0.0
H1032 H 0.42484 0.7193 0.24023 0.0
H1033 H 0.42514 0.74412 0.31675 0.0
H1034 H 0.36525 0.71397 0.34395 0.0
H1035 H 0.36492 0.69028 0.26587 0.0
C1036 C 0.37445 0.79113 0.41604 0.0
C1037 C 0.39136 0.79947 0.44201 0.0
C1038 C 0.37544 0.76839 0.38311 0.0
C1039 C 0.39331 0.75315 0.37598 0.0
C1040 C 0.40998 0.76079 0.40371 0.0
C1041 C 0.40905 0.78381 0.43608 0.0
C1042 C 0.41216 0.71674 0.26379 0.0
C1043 C 0.39493 0.70271 0.24761 0.0
C1044 C 0.41222 0.73118 0.30767 0.0
C1045 C 0.395 0.73175 0.33624 0.0
C1046 C 0.37857 0.71471 0.32231 0.0
C1047 C 0.37848 0.70057 0.27807 0.0
H1048 H 0.12918 0.77639 0.0439 0.0
H1049 H 0.19242 0.77297 0.06837 0.0
H1050 H 0.12422 0.73667 0.10058 0.0
H1051 H 0.18759 0.73423 0.12658 0.0
H1052 H 0.17915 0.66466 0.2272 0.0
H1053 H 0.17868 0.686 0.147 0.0
H1054 H 0.1254 0.73308 0.18392 0.0
H1055 H 0.12572 0.71102 0.26257 0.0
C1056 C 0.142 0.76718 0.06175 0.0
C1057 C 0.16114 0.77801 0.05261 0.0
C1058 C 0.1392 0.74435 0.094 0.0
C1059 C 0.15547 0.7322 0.11844 0.0
C1060 C 0.1747 0.74253 0.10788 0.0
C1061 C 0.1775 0.76504 0.07505 0.0
C1062 C 0.16676 0.67823 0.2169 0.0
C1063 C 0.15244 0.68627 0.25065 0.0
C1064 C 0.16666 0.69093 0.17135 0.0
C1065 C 0.15235 0.71199 0.15939 0.0
C1066 C 0.13665 0.71699 0.19146 0.0
C1067 C 0.13674 0.70423 0.23666 0.0
H1068 H 0.43443 0.35561 0.77075 0.0
H1069 H 0.38008 0.38867 0.71051 0.0
H1070 H 0.44012 0.3272 0.6982 0.0
H1071 H 0.38585 0.36082 0.63757 0.0
H1072 H 0.41358 0.24503 0.61604 0.0
H1073 H 0.41807 0.28335 0.6752 0.0
H1074 H 0.40844 0.34812 0.56608 0.0
H1075 H 0.40475 0.31003 0.50637 0.0
C1076 C 0.42438 0.35821 0.7407 0.0
C1077 C 0.40703 0.37471 0.74559 0.0
C1078 C 0.42744 0.34157 0.6996 0.0
C1079 C 0.41328 0.3415 0.66261 0.0
C1080 C 0.39707 0.36058 0.66539 0.0
C1081 C 0.39386 0.37682 0.70685 0.0
C1082 C 0.41287 0.2674 0.60431 0.0
C1083 C 0.40841 0.27428 0.55647 0.0
C1084 C 0.4155 0.28938 0.63823 0.0
C1085 C 0.41358 0.31872 0.62518 0.0
C1086 C 0.40985 0.32569 0.57716 0.0
C1087 C 0.40751 0.30377 0.54313 0.0
H1088 H 0.92941 0.68897 0.23758 0.0
H1089 H 0.86571 0.6932 0.22485 0.0
H1090 H 0.93287 0.7116 0.15867 0.0
H1091 H 0.86888 0.71638 0.14729 0.0
H1092 H 0.87751 0.75741 0.00632 0.0
H1093 H 0.878 0.71937 0.06628 0.0
H1094 H 0.92783 0.76118 0.13572 0.0
H1095 H 0.92828 0.79823 0.07353 0.0
C1096 C 0.91618 0.69329 0.21667 0.0
C1097 C 0.8973 0.68896 0.23667 0.0
C1098 C 0.91811 0.70688 0.17201 0.0
C1099 C 0.90117 0.71646 0.14698 0.0
C1100 C 0.88229 0.70921 0.1651 0.0
C1101 C 0.88041 0.69566 0.20954 0.0
C1102 C 0.88892 0.75822 0.03363 0.0
C1103 C 0.90285 0.78109 0.03494 0.0
C1104 C 0.88906 0.73644 0.06841 0.0
C1105 C 0.90291 0.7371 0.10604 0.0
C1106 C 0.91712 0.75962 0.1069 0.0
C1107 C 0.91713 0.78128 0.07172 0.0
H1108 H 0.65351 0.23482 0.60613 0.0
H1109 H 0.66739 0.29868 0.49732 0.0
H1110 H 0.6484 0.27352 0.6636 0.0
H1111 H 0.66337 0.33726 0.55626 0.0
H1112 H 0.68678 0.37183 0.71539 0.0
H1113 H 0.68395 0.34731 0.63815 0.0
H1114 H 0.62467 0.31916 0.67493 0.0
H1115 H 0.6275 0.34402 0.75182 0.0
C1116 C 0.65527 0.25702 0.59415 0.0
C1117 C 0.66095 0.26342 0.54689 0.0
C1118 C 0.65231 0.27921 0.62717 0.0
C1119 C 0.65526 0.30832 0.61404 0.0
C1120 C 0.66093 0.31495 0.56705 0.0
C1121 C 0.6635 0.29275 0.53361 0.0
C1122 C 0.67271 0.36205 0.7055 0.0
C1123 C 0.65727 0.35999 0.73897 0.0
C1124 C 0.67113 0.34781 0.66154 0.0
C1125 C 0.65422 0.331 0.65119 0.0
C1126 C 0.63789 0.33189 0.68235 0.0
C1127 C 0.63939 0.34642 0.72596 0.0
H1128 H 0.91045 0.23859 0.87077 0.0
H1129 H 0.88414 0.2965 0.9743 0.0
H1130 H 0.91307 0.27845 0.81413 0.0
H1131 H 0.88595 0.33608 0.91615 0.0
H1132 H 0.8655 0.36877 0.75665 0.0
H1133 H 0.8686 0.34342 0.83306 0.0
H1134 H 0.93068 0.32831 0.8042 0.0
H1135 H 0.92749 0.35408 0.72799 0.0
C1136 C 0.90541 0.25981 0.8818 0.0
C1137 C 0.89705 0.26412 0.92732 0.0
C1138 C 0.90697 0.28271 0.84928 0.0
C1139 C 0.89997 0.31044 0.86107 0.0
C1140 C 0.89154 0.31492 0.90632 0.0
C1141 C 0.89028 0.29209 0.93929 0.0
C1142 C 0.88005 0.36167 0.76814 0.0
C1143 C 0.8963 0.36363 0.73696 0.0
C1144 C 0.88181 0.34691 0.81167 0.0
C1145 C 0.89979 0.33346 0.824 0.0
C1146 C 0.91661 0.33829 0.79524 0.0
C1147 C 0.91488 0.35342 0.75205 0.0
H1148 H 0.66036 0.74987 0.47481 0.0
H1149 H 0.6504 0.81739 0.36987 0.0
H1150 H 0.65458 0.71314 0.41341 0.0
H1151 H 0.64388 0.78069 0.30952 0.0
H1152 H 0.67516 0.67412 0.25864 0.0
H1153 H 0.67345 0.69941 0.33549 0.0
H1154 H 0.61891 0.74041 0.29083 0.0
H1155 H 0.62077 0.71523 0.21419 0.0
C1156 C 0.65699 0.75696 0.43876 0.0
C1157 C 0.656 0.78672 0.42728 0.0
C1158 C 0.65347 0.73585 0.40384 0.0
C1159 C 0.64853 0.74407 0.357 0.0
C1160 C 0.64721 0.77372 0.34569 0.0
C1161 C 0.65099 0.79478 0.38031 0.0
C1162 C 0.66222 0.68716 0.26659 0.0
C1163 C 0.64799 0.69266 0.23109 0.0
C1164 C 0.66132 0.70185 0.31031 0.0
C1165 C 0.64626 0.7223 0.31852 0.0
C1166 C 0.63081 0.72506 0.28504 0.0
C1167 C 0.63171 0.71038 0.24155 0.0
H1168 H 0.67193 0.72356 0.86187 0.0
H1169 H 0.67531 0.78645 0.97649 0.0
H1170 H 0.66699 0.76292 0.80472 0.0
H1171 H 0.67165 0.82562 0.91833 0.0
H1172 H 0.6943 0.86628 0.7557 0.0
H1173 H 0.69543 0.83837 0.83045 0.0
H1174 H 0.63602 0.80698 0.80369 0.0
H1175 H 0.63473 0.83539 0.72977 0.0
C1176 C 0.67169 0.74561 0.87504 0.0
C1177 C 0.67403 0.75159 0.92405 0.0
C1178 C 0.66891 0.76811 0.84224 0.0
C1179 C 0.66876 0.79708 0.85754 0.0
C1180 C 0.67169 0.80337 0.90597 0.0
C1181 C 0.67405 0.78084 0.93903 0.0
C1182 C 0.68103 0.85501 0.76759 0.0
C1183 C 0.66428 0.85333 0.73776 0.0
C1184 C 0.68177 0.83877 0.80991 0.0
C1185 C 0.66589 0.82039 0.82208 0.0
C1186 C 0.64841 0.82106 0.79478 0.0
C1187 C 0.64756 0.83762 0.753 0.0
H1188 H 0.87801 0.17629 0.25983 0.0
H1189 H 0.93618 0.20744 0.22035 0.0
H1190 H 0.88067 0.20182 0.33641 0.0
H1191 H 0.93876 0.23334 0.29632 0.0
H1192 H 0.90953 0.31565 0.3704 0.0
H1193 H 0.91433 0.27789 0.31095 0.0
H1194 H 0.9022 0.21224 0.41717 0.0
H1195 H 0.89857 0.2498 0.4779 0.0
C1196 C 0.89185 0.18706 0.26889 0.0
C1197 C 0.90704 0.18956 0.23481 0.0
C1198 C 0.89329 0.20196 0.3124 0.0
C1199 C 0.90979 0.21988 0.32173 0.0
C1200 C 0.92585 0.2198 0.28976 0.0
C1201 C 0.92451 0.20463 0.24668 0.0
C1202 C 0.90834 0.29325 0.38169 0.0
C1203 C 0.90351 0.28604 0.42922 0.0
C1204 C 0.91107 0.27158 0.34749 0.0
C1205 C 0.90874 0.24219 0.35967 0.0
C1206 C 0.90405 0.23477 0.40696 0.0
C1207 C 0.90173 0.25642 0.44152 0.0
H1208 H 0.68807 0.17487 0.2183 0.0
H1209 H 0.62859 0.20166 0.25342 0.0
H1210 H 0.68532 0.19914 0.14059 0.0
H1211 H 0.6259 0.22629 0.1762 0.0
H1212 H 0.65478 0.31074 0.10544 0.0
H1213 H 0.65045 0.27245 0.16442 0.0
H1214 H 0.66354 0.20795 0.05766 0.0
H1215 H 0.66668 0.24607 -0.00278 0.0
C1216 C 0.67398 0.18434 0.20807 0.0
C1217 C 0.65843 0.18615 0.24125 0.0
C1218 C 0.67247 0.19847 0.16386 0.0
C1219 C 0.65551 0.21488 0.153 0.0
C1220 C 0.63914 0.21383 0.18399 0.0
C1221 C 0.64057 0.19944 0.2278 0.0
C1222 C 0.65629 0.28846 0.09392 0.0
C1223 C 0.66111 0.28172 0.04629 0.0
C1224 C 0.65382 0.26651 0.12783 0.0
C1225 C 0.65644 0.23732 0.11527 0.0
C1226 C 0.66137 0.23034 0.06801 0.0
C1227 C 0.66342 0.25229 0.03368 0.0
H1228 H 0.91202 0.74811 0.59571 0.0
H1229 H 0.88087 0.80155 0.49278 0.0
H1230 H 0.91408 0.78915 0.64986 0.0
H1231 H 0.882 0.8421 0.54882 0.0
H1232 H 0.86133 0.86789 0.71332 0.0
H1233 H 0.86505 0.84498 0.63534 0.0
H1234 H 0.92862 0.84304 0.65527 0.0
H1235 H 0.92485 0.86699 0.73276 0.0
C1236 C 0.90585 0.76861 0.58416 0.0
C1237 C 0.89615 0.77123 0.53974 0.0
C1238 C 0.9071 0.79218 0.61525 0.0
C1239 C 0.89841 0.81885 0.60316 0.0
C1240 C 0.88891 0.82178 0.55876 0.0
C1241 C 0.888 0.79834 0.52711 0.0
C1242 C 0.87616 0.86448 0.69947 0.0
C1243 C 0.89281 0.86933 0.72866 0.0
C1244 C 0.8783 0.85109 0.65504 0.0
C1245 C 0.89709 0.84181 0.63988 0.0
C1246 C 0.91397 0.8499 0.66644 0.0
C1247 C 0.91184 0.86393 0.71044 0.0
H1248 H 0.41925 0.30282 0.06137 0.0
H1249 H 0.35612 0.28974 0.04144 0.0
H1250 H 0.4196 0.26509 0.12163 0.0
H1251 H 0.35687 0.25002 0.09853 0.0
H1252 H 0.36086 0.22489 0.25878 0.0
H1253 H 0.35849 0.24719 0.1808 0.0
H1254 H 0.41748 0.21652 0.1467 0.0
H1255 H 0.41992 0.19495 0.22684 0.0
C1256 C 0.40541 0.29187 0.06959 0.0
C1257 C 0.38753 0.30011 0.04726 0.0
C1258 C 0.40573 0.26954 0.10345 0.0
C1259 C 0.38824 0.2544 0.11544 0.0
C1260 C 0.37059 0.26149 0.09104 0.0
C1261 C 0.37019 0.28421 0.05781 0.0
C1262 C 0.373 0.2219 0.23384 0.0
C1263 C 0.39057 0.20834 0.24864 0.0
C1264 C 0.37167 0.23472 0.18884 0.0
C1265 C 0.38796 0.23431 0.15742 0.0
C1266 C 0.40482 0.21791 0.17042 0.0
C1267 C 0.40614 0.20506 0.2159 0.0
H1268 H 0.12857 0.83277 0.75925 0.0
H1269 H 0.18445 0.87469 0.72855 0.0
H1270 H 0.1286 0.81053 0.68089 0.0
H1271 H 0.18438 0.85321 0.6486 0.0
H1272 H 0.1953 0.76566 0.56995 0.0
H1273 H 0.19144 0.80457 0.62803 0.0
H1274 H 0.12842 0.80722 0.59766 0.0
H1275 H 0.13233 0.76731 0.5413 0.0
C1276 C 0.14028 0.83859 0.73436 0.0
C1277 C 0.15645 0.85541 0.74963 0.0
C1278 C 0.1404 0.82571 0.68932 0.0
C1279 C 0.15678 0.82942 0.65865 0.0
C1280 C 0.17179 0.84928 0.67183 0.0
C1281 C 0.17167 0.86209 0.71723 0.0
C1282 C 0.18068 0.77476 0.57566 0.0
C1283 C 0.16405 0.76313 0.55216 0.0
C1284 C 0.17845 0.79735 0.60843 0.0
C1285 C 0.15956 0.80912 0.61781 0.0
C1286 C 0.14311 0.79839 0.59213 0.0
C1287 C 0.14531 0.77547 0.56 0.0
H1288 H 0.37716 0.88787 0.77576 0.0
H1289 H 0.4342 0.85841 0.72632 0.0
H1290 H 0.38192 0.86157 0.85096 0.0
H1291 H 0.43888 0.83152 0.80107 0.0
H1292 H 0.40038 0.81361 0.98781 0.0
H1293 H 0.40377 0.85136 0.92711 0.0
H1294 H 0.41681 0.78633 0.82112 0.0
H1295 H 0.41245 0.74832 0.88086 0.0
C1296 C 0.39123 0.87723 0.78231 0.0
C1297 C 0.4055 0.87561 0.74593 0.0
C1298 C 0.39388 0.86187 0.82506 0.0
C1299 C 0.41064 0.84418 0.83142 0.0
C1300 C 0.42578 0.84487 0.79688 0.0
C1301 C 0.42327 0.86064 0.75452 0.0
C1302 C 0.40378 0.80718 0.95151 0.0
C1303 C 0.40578 0.77767 0.93927 0.0
C1304 C 0.40596 0.82894 0.91695 0.0
C1305 C 0.41068 0.82179 0.8696 0.0
C1306 C 0.41351 0.7925 0.85764 0.0
C1307 C 0.41098 0.77069 0.89195 0.0
H1308 H 0.13503 0.17705 0.24723 0.0
H1309 H 0.19649 0.20252 0.23655 0.0
H1310 H 0.13374 0.19724 0.32847 0.0
H1311 H 0.19551 0.22249 0.31615 0.0
H1312 H 0.19255 0.25948 0.45752 0.0
H1313 H 0.19195 0.22061 0.39949 0.0
H1314 H 0.13361 0.24751 0.35285 0.0
H1315 H 0.1334 0.2849 0.4141 0.0
C1316 C 0.1485 0.18552 0.26333 0.0
C1317 C 0.166 0.18777 0.23643 0.0
C1318 C 0.14773 0.19751 0.30937 0.0
C1319 C 0.16445 0.21181 0.3287 0.0
C1320 C 0.1824 0.21132 0.30309 0.0
C1321 C 0.18308 0.19962 0.25739 0.0
C1322 C 0.17931 0.25672 0.43595 0.0
C1323 C 0.1631 0.2757 0.44034 0.0
C1324 C 0.17906 0.23447 0.40228 0.0
C1325 C 0.16283 0.23103 0.37111 0.0
C1326 C 0.14628 0.24927 0.37658 0.0
C1327 C 0.14637 0.27124 0.41099 0.0
loop_
_geom_bond_atom_site_label_1
_geom_bond_atom_site_label_2
_geom_bond_distance
_geom_bond_site_symmetry_2
_ccdc_geom_bond_type
C0 C1 1.351 . S
C0 N3 1.368 . S
C0 H5 0.931 . S
C1 C0 1.351 . S
C1 N2 1.373 . S
C1 H29 0.930 . S
N2 C1 1.373 . S
N2 C4 1.340 . S
N3 C0 1.368 . S
N3 C4 1.321 . S
N3 Co6 2.135 . S
C4 N2 1.340 . S
C4 N3 1.321 . S
C4 H28 0.930 . S
H5 C0 0.931 . S
Co6 N3 2.135 . S
Co6 N9 2.121 . S
Co6 O14 2.055 . S
Co6 O17 2.039 . S
Co6 N20 2.140 . S
C7 O8 1.227 . S
C7 O17 1.265 . S
O8 C7 1.227 . S
N9 Co6 2.121 . S
N9 C11 1.375 . S
N9 C12 1.313 . S
C10 C11 1.338 . S
C10 N13 1.377 . S
C10 H30 0.930 . S
C11 N9 1.375 . S
C11 C10 1.338 . S
C11 H15 0.931 . S
C12 N9 1.313 . S
C12 N13 1.344 . S
C12 H16 0.930 . S
N13 C10 1.377 . S
N13 C12 1.344 . S
O14 Co6 2.055 . S
O14 C18 1.253 . S
H15 C11 0.931 . S
H16 C12 0.930 . S
O17 Co6 2.039 . S
O17 C7 1.265 . S
C18 O14 1.253 . S
C18 O19 1.227 . S
O19 C18 1.227 . S
N20 Co6 2.140 . S
N20 C23 1.346 . S
N20 C24 1.345 . S
C21 C22 1.387 . S
C21 C25 1.391 1_556 S
C22 C21 1.387 . S
C22 C23 1.369 1_556 S
C22 H31 0.929 . S
C23 N20 1.346 . S
C23 C22 1.369 1_554 S
C23 H26 0.928 . S
C24 N20 1.345 . S
C24 C25 1.371 . S
C24 H27 0.931 . S
C25 C21 1.391 1_554 S
C25 C24 1.371 . S
C25 H32 0.930 . S
H26 C23 0.928 . S
H27 C24 0.931 . S
H28 C4 0.930 . S
H29 C1 0.930 . S
H30 C10 0.930 . S
H31 C22 0.929 . S
H32 C25 0.930 . S
C33 C34 1.351 . S
C33 N36 1.368 . S
C33 H38 0.931 . S
C34 C33 1.351 . S
C34 N35 1.373 . S
C34 H62 0.930 . S
N35 C34 1.373 . S
N35 C37 1.340 . S
N36 C33 1.368 . S
N36 C37 1.321 . S
N36 Co39 2.135 . S
C37 N35 1.340 . S
C37 N36 1.321 . S
C37 H61 0.930 . S
H38 C33 0.931 . S
Co39 N36 2.135 . S
Co39 N42 2.121 . S
Co39 O47 2.055 . S
Co39 O50 2.039 . S
Co39 N53 2.140 . S
C40 O41 1.227 . S
C40 O50 1.265 . S
O41 C40 1.227 . S
N42 Co39 2.121 . S
N42 C44 1.375 . S
N42 C45 1.313 . S
C43 C44 1.338 . S
C43 N46 1.377 . S
C43 H63 0.930 . S
C44 N42 1.375 . S
C44 C43 1.338 . S
C44 H48 0.931 . S
C45 N42 1.313 . S
C45 N46 1.344 . S
C45 H49 0.930 . S
N46 C43 1.377 . S
N46 C45 1.344 . S
O47 Co39 2.055 . S
O47 C51 1.253 . S
H48 C44 0.931 . S
H49 C45 0.930 . S
O50 Co39 2.039 . S
O50 C40 1.265 . S
C51 O47 1.253 . S
C51 O52 1.227 . S
O52 C51 1.227 . S
N53 Co39 2.140 . S
N53 C56 1.346 . S
N53 C57 1.345 . S
C54 C55 1.387 . S
C54 C58 1.391 . S
C55 C54 1.387 . S
C55 C56 1.369 . S
C55 H64 0.929 . S
C56 N53 1.346 . S
C56 C55 1.369 . S
C56 H59 0.928 . S
C57 N53 1.345 . S
C57 C58 1.371 . S
C57 H60 0.931 . S
C58 C54 1.391 . S
C58 C57 1.371 . S
C58 H65 0.930 . S
H59 C56 0.928 . S
H60 C57 0.931 . S
H61 C37 0.930 . S
H62 C34 0.930 . S
H63 C43 0.930 . S
H64 C55 0.929 . S
H65 C58 0.930 . S
C66 C67 1.351 . S
C66 N69 1.368 . S
C66 H71 0.931 . S
C67 C66 1.351 . S
C67 N68 1.373 . S
C67 H95 0.930 . S
N68 C67 1.373 . S
N68 C70 1.340 . S
N69 C66 1.368 . S
N69 C70 1.321 . S
N69 Co72 2.135 . S
C70 N68 1.340 . S
C70 N69 1.321 . S
C70 H94 0.930 . S
H71 C66 0.931 . S
Co72 N69 2.135 . S
Co72 N75 2.121 . S
Co72 O80 2.055 . S
Co72 O83 2.039 . S
Co72 N86 2.140 . S
C73 O74 1.227 . S
C73 O83 1.265 . S
O74 C73 1.227 . S
N75 Co72 2.121 . S
N75 C77 1.375 . S
N75 C78 1.313 . S
C76 C77 1.338 . S
C76 N79 1.377 . S
C76 H96 0.930 . S
C77 N75 1.375 . S
C77 C76 1.338 . S
C77 H81 0.931 . S
C78 N75 1.313 . S
C78 N79 1.344 . S
C78 H82 0.930 . S
N79 C76 1.377 . S
N79 C78 1.344 . S
O80 Co72 2.055 . S
O80 C84 1.253 . S
H81 C77 0.931 . S
H82 C78 0.930 . S
O83 Co72 2.039 . S
O83 C73 1.265 . S
C84 O80 1.253 . S
C84 O85 1.227 . S
O85 C84 1.227 . S
N86 Co72 2.140 . S
N86 C89 1.346 . S
N86 C90 1.345 . S
C87 C88 1.387 . S
C87 C91 1.391 1_554 S
C88 C87 1.387 . S
C88 C89 1.369 1_554 S
C88 H97 0.929 . S
C89 N86 1.346 . S
C89 C88 1.369 1_556 S
C89 H92 0.928 . S
C90 N86 1.345 . S
C90 C91 1.371 . S
C90 H93 0.931 . S
C91 C87 1.391 1_556 S
C91 C90 1.371 . S
C91 H98 0.930 . S
H92 C89 0.928 . S
H93 C90 0.931 . S
H94 C70 0.930 . S
H95 C67 0.930 . S
H96 C76 0.930 . S
H97 C88 0.929 . S
H98 C91 0.930 . S
C99 C100 1.351 . S
C99 N102 1.368 . S
C99 H104 0.931 . S
C100 C99 1.351 . S
C100 N101 1.373 . S
C100 H128 0.930 . S
N101 C100 1.373 . S
N101 C103 1.340 . S
N102 C99 1.368 . S
N102 C103 1.321 . S
N102 Co105 2.135 . S
C103 N101 1.340 . S
C103 N102 1.321 . S
C103 H127 0.930 . S
H104 C99 0.931 . S
Co105 N102 2.135 . S
Co105 N108 2.121 . S
Co105 O113 2.055 . S
Co105 O116 2.039 . S
Co105 N119 2.140 . S
C106 O107 1.227 . S
C106 O116 1.265 . S
O107 C106 1.227 . S
N108 Co105 2.121 . S
N108 C110 1.375 . S
N108 C111 1.313 . S
C109 C110 1.338 . S
C109 N112 1.377 . S
C109 H129 0.930 . S
C110 N108 1.375 . S
C110 C109 1.338 . S
C110 H114 0.931 . S
C111 N108 1.313 . S
C111 N112 1.344 . S
C111 H115 0.930 . S
N112 C109 1.377 . S
N112 C111 1.344 . S
O113 Co105 2.055 . S
O113 C117 1.253 . S
H114 C110 0.931 . S
H115 C111 0.930 . S
O116 Co105 2.039 . S
O116 C106 1.265 . S
C117 O113 1.253 . S
C117 O118 1.227 . S
O118 C117 1.227 . S
N119 Co105 2.140 . S
N119 C122 1.346 . S
N119 C123 1.345 . S
C120 C121 1.387 . S
C120 C124 1.391 . S
C121 C120 1.387 . S
C121 C122 1.369 . S
C121 H130 0.929 . S
C122 N119 1.346 . S
C122 C121 1.369 . S
C122 H125 0.928 . S
C123 N119 1.345 . S
C123 C124 1.371 . S
C123 H126 0.931 . S
C124 C120 1.391 . S
C124 C123 1.371 . S
C124 H131 0.930 . S
H125 C122 0.928 . S
H126 C123 0.931 . S
H127 C103 0.930 . S
H128 C100 0.930 . S
H129 C109 0.930 . S
H130 C121 0.929 . S
H131 C124 0.930 . S
C132 C133 1.351 . S
C132 N135 1.368 . S
C132 H137 0.931 . S
C133 C132 1.351 . S
C133 N134 1.373 . S
C133 H161 0.930 . S
N134 C133 1.373 . S
N134 C136 1.340 . S
N135 C132 1.368 . S
N135 C136 1.321 . S
N135 Co138 2.135 . S
C136 N134 1.340 . S
C136 N135 1.321 . S
C136 H160 0.930 . S
H137 C132 0.931 . S
Co138 N135 2.135 . S
Co138 N141 2.121 . S
Co138 O146 2.055 . S
Co138 O149 2.039 . S
Co138 N152 2.140 . S
C139 O140 1.227 . S
C139 O149 1.265 . S
O140 C139 1.227 . S
N141 Co138 2.121 . S
N141 C143 1.375 . S
N141 C144 1.313 . S
C142 C143 1.338 . S
C142 N145 1.377 . S
C142 H162 0.930 . S
C143 N141 1.375 . S
C143 C142 1.338 . S
C143 H147 0.931 . S
C144 N141 1.313 . S
C144 N145 1.344 . S
C144 H148 0.930 . S
N145 C142 1.377 . S
N145 C144 1.344 . S
O146 Co138 2.055 . S
O146 C150 1.253 . S
H147 C143 0.931 . S
H148 C144 0.930 . S
O149 Co138 2.039 . S
O149 C139 1.265 . S
C150 O146 1.253 . S
C150 O151 1.227 . S
O151 C150 1.227 . S
N152 Co138 2.140 . S
N152 C155 1.346 . S
N152 C156 1.345 . S
C153 C154 1.387 . S
C153 C157 1.391 1_554 S
C154 C153 1.387 . S
C154 C155 1.369 1_554 S
C154 H163 0.929 . S
C155 N152 1.346 . S
C155 C154 1.369 1_556 S
C155 H158 0.928 . S
C156 N152 1.345 . S
C156 C157 1.371 . S
C156 H159 0.931 . S
C157 C153 1.391 1_556 S
C157 C156 1.371 . S
C157 H164 0.930 . S
H158 C155 0.928 . S
H159 C156 0.931 . S
H160 C136 0.930 . S
H161 C133 0.930 . S
H162 C142 0.930 . S
H163 C154 0.929 . S
H164 C157 0.930 . S
C165 C166 1.351 . S
C165 N168 1.368 . S
C165 H170 0.931 . S
C166 C165 1.351 . S
C166 N167 1.373 . S
C166 H194 0.930 . S
N167 C166 1.373 . S
N167 C169 1.340 . S
N168 C165 1.368 . S
N168 C169 1.321 . S
N168 Co171 2.135 . S
C169 N167 1.340 . S
C169 N168 1.321 . S
C169 H193 0.930 . S
H170 C165 0.931 . S
Co171 N168 2.135 . S
Co171 N174 2.121 . S
Co171 O179 2.055 . S
Co171 O182 2.039 . S
Co171 N185 2.140 . S
C172 O173 1.227 . S
C172 O182 1.265 . S
O173 C172 1.227 . S
N174 Co171 2.121 . S
N174 C176 1.375 . S
N174 C177 1.313 . S
C175 C176 1.338 . S
C175 N178 1.377 . S
C175 H195 0.930 . S
C176 N174 1.375 . S
C176 C175 1.338 . S
C176 H180 0.931 . S
C177 N174 1.313 . S
C177 N178 1.344 . S
C177 H181 0.930 . S
N178 C175 1.377 . S
N178 C177 1.344 . S
O179 Co171 2.055 . S
O179 C183 1.253 . S
H180 C176 0.931 . S
H181 C177 0.930 . S
O182 Co171 2.039 . S
O182 C172 1.265 . S
C183 O179 1.253 . S
C183 O184 1.227 . S
O184 C183 1.227 . S
N185 Co171 2.140 . S
N185 C188 1.346 . S
N185 C189 1.345 . S
C186 C187 1.387 . S
C186 C190 1.391 . S
C187 C186 1.387 . S
C187 C188 1.369 . S
C187 H196 0.929 . S
C188 N185 1.346 . S
C188 C187 1.369 . S
C188 H191 0.928 . S
C189 N185 1.345 . S
C189 C190 1.371 . S
C189 H192 0.931 . S
C190 C186 1.391 . S
C190 C189 1.371 . S
C190 H197 0.930 . S
H191 C188 0.928 . S
H192 C189 0.931 . S
H193 C169 0.930 . S
H194 C166 0.930 . S
H195 C175 0.930 . S
H196 C187 0.929 . S
H197 C190 0.930 . S
C198 C199 1.351 . S
C198 N201 1.368 . S
C198 H203 0.931 . S
C199 C198 1.351 . S
C199 N200 1.373 . S
C199 H227 0.930 . S
N200 C199 1.373 . S
N200 C202 1.340 . S
N201 C198 1.368 . S
N201 C202 1.321 . S
N201 Co204 2.135 . S
C202 N200 1.340 . S
C202 N201 1.321 . S
C202 H226 0.930 . S
H203 C198 0.931 . S
Co204 N201 2.135 . S
Co204 N207 2.121 . S
Co204 O212 2.055 . S
Co204 O215 2.039 . S
Co204 N218 2.140 . S
C205 O206 1.227 . S
C205 O215 1.265 . S
O206 C205 1.227 . S
N207 Co204 2.121 . S
N207 C209 1.375 . S
N207 C210 1.313 . S
C208 C209 1.338 . S
C208 N211 1.377 . S
C208 H228 0.930 . S
C209 N207 1.375 . S
C209 C208 1.338 . S
C209 H213 0.931 . S
C210 N207 1.313 . S
C210 N211 1.344 . S
C210 H214 0.930 . S
N211 C208 1.377 . S
N211 C210 1.344 . S
O212 Co204 2.055 . S
O212 C216 1.253 . S
H213 C209 0.931 . S
H214 C210 0.930 . S
O215 Co204 2.039 . S
O215 C205 1.265 . S
C216 O212 1.253 . S
C216 O217 1.227 . S
O217 C216 1.227 . S
N218 Co204 2.140 . S
N218 C221 1.346 . S
N218 C222 1.345 . S
C219 C220 1.387 . S
C219 C223 1.391 1_556 S
C220 C219 1.387 . S
C220 C221 1.369 1_556 S
C220 H229 0.929 . S
C221 N218 1.346 . S
C221 C220 1.369 1_554 S
C221 H224 0.928 . S
C222 N218 1.345 . S
C222 C223 1.371 . S
C222 H225 0.931 . S
C223 C219 1.391 1_554 S
C223 C222 1.371 . S
C223 H230 0.930 . S
H224 C221 0.928 . S
H225 C222 0.931 . S
H226 C202 0.930 . S
H227 C199 0.930 . S
H228 C208 0.930 . S
H229 C220 0.929 . S
H230 C223 0.930 . S
C231 C232 1.351 . S
C231 N234 1.368 . S
C231 H236 0.931 . S
C232 C231 1.351 . S
C232 N233 1.373 . S
C232 H260 0.930 . S
N233 C232 1.373 . S
N233 C235 1.340 . S
N234 C231 1.368 . S
N234 C235 1.321 . S
N234 Co237 2.135 . S
C235 N233 1.340 . S
C235 N234 1.321 . S
C235 H259 0.930 . S
H236 C231 0.931 . S
Co237 N234 2.135 . S
Co237 N240 2.121 . S
Co237 O245 2.055 . S
Co237 O248 2.039 . S
Co237 N251 2.140 . S
C238 O239 1.227 . S
C238 O248 1.265 . S
O239 C238 1.227 . S
N240 Co237 2.121 . S
N240 C242 1.375 . S
N240 C243 1.313 . S
C241 C242 1.338 . S
C241 N244 1.377 . S
C241 H261 0.930 . S
C242 N240 1.375 . S
C242 C241 1.338 . S
C242 H246 0.931 . S
C243 N240 1.313 . S
C243 N244 1.344 . S
C243 H247 0.930 . S
N244 C241 1.377 . S
N244 C243 1.344 . S
O245 Co237 2.055 . S
O245 C249 1.253 . S
H246 C242 0.931 . S
H247 C243 0.930 . S
O248 Co237 2.039 . S
O248 C238 1.265 . S
C249 O245 1.253 . S
C249 O250 1.227 . S
O250 C249 1.227 . S
N251 Co237 2.140 . S
N251 C254 1.346 . S
N251 C255 1.345 . S
C252 C253 1.387 . S
C252 C256 1.391 . S
C253 C252 1.387 . S
C253 C254 1.369 . S
C253 H262 0.929 . S
C254 N251 1.346 . S
C254 C253 1.369 . S
C254 H257 0.928 . S
C255 N251 1.345 . S
C255 C256 1.371 . S
C255 H258 0.931 . S
C256 C252 1.391 . S
C256 C255 1.371 . S
C256 H263 0.930 . S
H257 C254 0.928 . S
H258 C255 0.931 . S
H259 C235 0.930 . S
H260 C232 0.930 . S
H261 C241 0.930 . S
H262 C253 0.929 . S
H263 C256 0.930 . S
C264 C265 1.351 . S
C264 N267 1.368 . S
C264 H269 0.931 . S
C265 C264 1.351 . S
C265 N266 1.373 . S
C265 H293 0.930 . S
N266 C265 1.373 . S
N266 C268 1.340 . S
N267 C264 1.368 . S
N267 C268 1.321 . S
N267 Co270 2.135 . S
C268 N266 1.340 . S
C268 N267 1.321 . S
C268 H292 0.930 . S
H269 C264 0.931 . S
Co270 N267 2.135 . S
Co270 N273 2.121 . S
Co270 O278 2.055 . S
Co270 O281 2.039 . S
Co270 N284 2.140 . S
C271 O272 1.227 . S
C271 O281 1.265 . S
O272 C271 1.227 . S
N273 Co270 2.121 . S
N273 C275 1.375 . S
N273 C276 1.313 . S
C274 C275 1.338 . S
C274 N277 1.377 . S
C274 H294 0.930 . S
C275 N273 1.375 . S
C275 C274 1.338 . S
C275 H279 0.931 . S
C276 N273 1.313 . S
C276 N277 1.344 . S
C276 H280 0.930 . S
N277 C274 1.377 . S
N277 C276 1.344 . S
O278 Co270 2.055 . S
O278 C282 1.253 . S
H279 C275 0.931 . S
H280 C276 0.930 . S
O281 Co270 2.039 . S
O281 C271 1.265 . S
C282 O278 1.253 . S
C282 O283 1.227 . S
O283 C282 1.227 . S
N284 Co270 2.140 . S
N284 C287 1.346 . S
N284 C288 1.345 . S
C285 C286 1.387 . S
C285 C289 1.391 1_556 S
C286 C285 1.387 . S
C286 C287 1.369 1_556 S
C286 H295 0.929 . S
C287 N284 1.346 . S
C287 C286 1.369 1_554 S
C287 H290 0.928 . S
C288 N284 1.345 . S
C288 C289 1.371 . S
C288 H291 0.931 . S
C289 C285 1.391 1_554 S
C289 C288 1.371 . S
C289 H296 0.930 . S
H290 C287 0.928 . S
H291 C288 0.931 . S
H292 C268 0.930 . S
H293 C265 0.930 . S
H294 C274 0.930 . S
H295 C286 0.929 . S
H296 C289 0.930 . S
C297 C298 1.351 . S
C297 N300 1.368 . S
C297 H302 0.931 . S
C298 C297 1.351 . S
C298 N299 1.373 . S
C298 H326 0.930 . S
N299 C298 1.373 . S
N299 C301 1.340 . S
N300 C297 1.368 . S
N300 C301 1.321 . S
N300 Co303 2.135 . S
C301 N299 1.340 . S
C301 N300 1.321 . S
C301 H325 0.930 . S
H302 C297 0.931 . S
Co303 N300 2.135 . S
Co303 N306 2.121 . S
Co303 O311 2.055 . S
Co303 O314 2.039 . S
Co303 N317 2.140 . S
C304 O305 1.227 . S
C304 O314 1.265 . S
O305 C304 1.227 . S
N306 Co303 2.121 . S
N306 C308 1.375 . S
N306 C309 1.313 . S
C307 C308 1.338 . S
C307 N310 1.377 . S
C307 H327 0.930 . S
C308 N306 1.375 . S
C308 C307 1.338 . S
C308 H312 0.931 . S
C309 N306 1.313 . S
C309 N310 1.344 . S
C309 H313 0.930 . S
N310 C307 1.377 . S
N310 C309 1.344 . S
O311 Co303 2.055 . S
O311 C315 1.253 . S
H312 C308 0.931 . S
H313 C309 0.930 . S
O314 Co303 2.039 . S
O314 C304 1.265 . S
C315 O311 1.253 . S
C315 O316 1.227 . S
O316 C315 1.227 . S
N317 Co303 2.140 . S
N317 C320 1.346 . S
N317 C321 1.345 . S
C318 C319 1.387 . S
C318 C322 1.391 . S
C319 C318 1.387 . S
C319 C320 1.369 . S
C319 H328 0.929 . S
C320 N317 1.346 . S
C320 C319 1.369 . S
C320 H323 0.928 . S
C321 N317 1.345 . S
C321 C322 1.371 . S
C321 H324 0.931 . S
C322 C318 1.391 . S
C322 C321 1.371 . S
C322 H329 0.930 . S
H323 C320 0.928 . S
H324 C321 0.931 . S
H325 C301 0.930 . S
H326 C298 0.930 . S
H327 C307 0.930 . S
H328 C319 0.929 . S
H329 C322 0.930 . S
C330 C331 1.351 . S
C330 N333 1.368 . S
C330 H335 0.931 . S
C331 C330 1.351 . S
C331 N332 1.373 . S
C331 H359 0.930 . S
N332 C331 1.373 . S
N332 C334 1.340 . S
N333 C330 1.368 . S
N333 C334 1.321 . S
N333 Co336 2.135 . S
C334 N332 1.340 . S
C334 N333 1.321 . S
C334 H358 0.930 . S
H335 C330 0.931 . S
Co336 N333 2.135 . S
Co336 N339 2.121 . S
Co336 O344 2.055 . S
Co336 O347 2.039 . S
Co336 N350 2.140 . S
C337 O338 1.227 . S
C337 O347 1.265 . S
O338 C337 1.227 . S
N339 Co336 2.121 . S
N339 C341 1.375 . S
N339 C342 1.313 . S
C340 C341 1.338 . S
C340 N343 1.377 . S
C340 H360 0.930 . S
C341 N339 1.375 . S
C341 C340 1.338 . S
C341 H345 0.931 . S
C342 N339 1.313 . S
C342 N343 1.344 . S
C342 H346 0.930 . S
N343 C340 1.377 . S
N343 C342 1.344 . S
O344 Co336 2.055 . S
O344 C348 1.253 . S
H345 C341 0.931 . S
H346 C342 0.930 . S
O347 Co336 2.039 . S
O347 C337 1.265 . S
C348 O344 1.253 . S
C348 O349 1.227 . S
O349 C348 1.227 . S
N350 Co336 2.140 . S
N350 C353 1.346 . S
N350 C354 1.345 . S
C351 C352 1.387 . S
C351 C355 1.391 1_554 S
C352 C351 1.387 . S
C352 C353 1.369 1_554 S
C352 H361 0.929 . S
C353 N350 1.346 . S
C353 C352 1.369 1_556 S
C353 H356 0.928 . S
C354 N350 1.345 . S
C354 C355 1.371 . S
C354 H357 0.931 . S
C355 C351 1.391 1_556 S
C355 C354 1.371 . S
C355 H362 0.930 . S
H356 C353 0.928 . S
H357 C354 0.931 . S
H358 C334 0.930 . S
H359 C331 0.930 . S
H360 C340 0.930 . S
H361 C352 0.929 . S
H362 C355 0.930 . S
C363 C364 1.351 . S
C363 N366 1.368 . S
C363 H368 0.931 . S
C364 C363 1.351 . S
C364 N365 1.373 . S
C364 H392 0.930 . S
N365 C364 1.373 . S
N365 C367 1.340 . S
N366 C363 1.368 . S
N366 C367 1.321 . S
N366 Co369 2.135 . S
C367 N365 1.340 . S
C367 N366 1.321 . S
C367 H391 0.930 . S
H368 C363 0.931 . S
Co369 N366 2.135 . S
Co369 N372 2.121 . S
Co369 O377 2.055 . S
Co369 O380 2.039 . S
Co369 N383 2.140 . S
C370 O371 1.227 . S
C370 O380 1.265 . S
O371 C370 1.227 . S
N372 Co369 2.121 . S
N372 C374 1.375 . S
N372 C375 1.313 . S
C373 C374 1.338 . S
C373 N376 1.377 . S
C373 H393 0.930 . S
C374 N372 1.375 . S
C374 C373 1.338 . S
C374 H378 0.931 . S
C375 N372 1.313 . S
C375 N376 1.344 . S
C375 H379 0.930 . S
N376 C373 1.377 . S
N376 C375 1.344 . S
O377 Co369 2.055 . S
O377 C381 1.253 . S
H378 C374 0.931 . S
H379 C375 0.930 . S
O380 Co369 2.039 . S
O380 C370 1.265 . S
C381 O377 1.253 . S
C381 O382 1.227 . S
O382 C381 1.227 . S
N383 Co369 2.140 . S
N383 C386 1.346 . S
N383 C387 1.345 . S
C384 C385 1.387 . S
C384 C388 1.391 . S
C385 C384 1.387 . S
C385 C386 1.369 . S
C385 H394 0.929 . S
C386 N383 1.346 . S
C386 C385 1.369 . S
C386 H389 0.928 . S
C387 N383 1.345 . S
C387 C388 1.371 . S
C387 H390 0.931 . S
C388 C384 1.391 . S
C388 C387 1.371 . S
C388 H395 0.930 . S
H389 C386 0.928 . S
H390 C387 0.931 . S
H391 C367 0.930 . S
H392 C364 0.930 . S
H393 C373 0.930 . S
H394 C385 0.929 . S
H395 C388 0.930 . S
C396 C397 1.351 . S
C396 N399 1.368 . S
C396 H401 0.931 . S
C397 C396 1.351 . S
C397 N398 1.373 . S
C397 H425 0.930 . S
N398 C397 1.373 . S
N398 C400 1.340 . S
N399 C396 1.368 . S
N399 C400 1.321 . S
N399 Co402 2.135 . S
C400 N398 1.340 . S
C400 N399 1.321 . S
C400 H424 0.930 . S
H401 C396 0.931 . S
Co402 N399 2.135 . S
Co402 N405 2.121 . S
Co402 O410 2.055 . S
Co402 O413 2.039 . S
Co402 N416 2.140 . S
C403 O404 1.227 . S
C403 O413 1.265 . S
O404 C403 1.227 . S
N405 Co402 2.121 . S
N405 C407 1.375 . S
N405 C408 1.313 . S
C406 C407 1.338 . S
C406 N409 1.377 . S
C406 H426 0.930 . S
C407 N405 1.375 . S
C407 C406 1.338 . S
C407 H411 0.931 . S
C408 N405 1.313 . S
C408 N409 1.344 . S
C408 H412 0.930 . S
N409 C406 1.377 . S
N409 C408 1.344 . S
O410 Co402 2.055 . S
O410 C414 1.253 . S
H411 C407 0.931 . S
H412 C408 0.930 . S
O413 Co402 2.039 . S
O413 C403 1.265 . S
C414 O410 1.253 . S
C414 O415 1.227 . S
O415 C414 1.227 . S
N416 Co402 2.140 . S
N416 C419 1.346 . S
N416 C420 1.345 . S
C417 C418 1.387 . S
C417 C421 1.391 1_554 S
C418 C417 1.387 . S
C418 C419 1.369 1_554 S
C418 H427 0.929 . S
C419 N416 1.346 . S
C419 C418 1.369 1_556 S
C419 H422 0.928 . S
C420 N416 1.345 . S
C420 C421 1.371 . S
C420 H423 0.931 . S
C421 C417 1.391 1_556 S
C421 C420 1.371 . S
C421 H428 0.930 . S
H422 C419 0.928 . S
H423 C420 0.931 . S
H424 C400 0.930 . S
H425 C397 0.930 . S
H426 C406 0.930 . S
H427 C418 0.929 . S
H428 C421 0.930 . S
C429 C430 1.351 . S
C429 N432 1.368 . S
C429 H434 0.931 . S
C430 C429 1.351 . S
C430 N431 1.373 . S
C430 H458 0.930 . S
N431 C430 1.373 . S
N431 C433 1.340 . S
N432 C429 1.368 . S
N432 C433 1.321 . S
N432 Co435 2.135 . S
C433 N431 1.340 . S
C433 N432 1.321 . S
C433 H457 0.930 . S
H434 C429 0.931 . S
Co435 N432 2.135 . S
Co435 N438 2.121 . S
Co435 O443 2.055 . S
Co435 O446 2.039 . S
Co435 N449 2.140 . S
C436 O437 1.227 . S
C436 O446 1.265 . S
O437 C436 1.227 . S
N438 Co435 2.121 . S
N438 C440 1.375 . S
N438 C441 1.313 . S
C439 C440 1.338 . S
C439 N442 1.377 . S
C439 H459 0.930 . S
C440 N438 1.375 . S
C440 C439 1.338 . S
C440 H444 0.931 . S
C441 N438 1.313 . S
C441 N442 1.344 . S
C441 H445 0.930 . S
N442 C439 1.377 . S
N442 C441 1.344 . S
O443 Co435 2.055 . S
O443 C447 1.253 . S
H444 C440 0.931 . S
H445 C441 0.930 . S
O446 Co435 2.039 . S
O446 C436 1.265 . S
C447 O443 1.253 . S
C447 O448 1.227 . S
O448 C447 1.227 . S
N449 Co435 2.140 . S
N449 C452 1.346 . S
N449 C453 1.345 . S
C450 C451 1.387 . S
C450 C454 1.391 . S
C451 C450 1.387 . S
C451 C452 1.369 . S
C451 H460 0.929 . S
C452 N449 1.346 . S
C452 C451 1.369 . S
C452 H455 0.928 . S
C453 N449 1.345 . S
C453 C454 1.371 . S
C453 H456 0.931 . S
C454 C450 1.391 . S
C454 C453 1.371 . S
C454 H461 0.930 . S
H455 C452 0.928 . S
H456 C453 0.931 . S
H457 C433 0.930 . S
H458 C430 0.930 . S
H459 C439 0.930 . S
H460 C451 0.929 . S
H461 C454 0.930 . S
C462 C463 1.351 . S
C462 N465 1.368 . S
C462 H467 0.931 . S
C463 C462 1.351 . S
C463 N464 1.373 . S
C463 H491 0.930 . S
N464 C463 1.373 . S
N464 C466 1.340 . S
N465 C462 1.368 . S
N465 C466 1.321 . S
N465 Co468 2.135 . S
C466 N464 1.340 . S
C466 N465 1.321 . S
C466 H490 0.930 . S
H467 C462 0.931 . S
Co468 N465 2.135 . S
Co468 N471 2.121 . S
Co468 O476 2.055 . S
Co468 O479 2.039 . S
Co468 N482 2.140 . S
C469 O470 1.227 . S
C469 O479 1.265 . S
O470 C469 1.227 . S
N471 Co468 2.121 . S
N471 C473 1.375 . S
N471 C474 1.313 . S
C472 C473 1.338 . S
C472 N475 1.377 . S
C472 H492 0.930 . S
C473 N471 1.375 . S
C473 C472 1.338 . S
C473 H477 0.931 . S
C474 N471 1.313 . S
C474 N475 1.344 . S
C474 H478 0.930 . S
N475 C472 1.377 . S
N475 C474 1.344 . S
O476 Co468 2.055 . S
O476 C480 1.253 . S
H477 C473 0.931 . S
H478 C474 0.930 . S
O479 Co468 2.039 . S
O479 C469 1.265 . S
C480 O476 1.253 . S
C480 O481 1.227 . S
O481 C480 1.227 . S
N482 Co468 2.140 . S
N482 C485 1.346 . S
N482 C486 1.345 . S
C483 C484 1.387 . S
C483 C487 1.391 1_556 S
C484 C483 1.387 . S
C484 C485 1.369 1_556 S
C484 H493 0.929 . S
C485 N482 1.346 . S
C485 C484 1.369 1_554 S
C485 H488 0.928 . S
C486 N482 1.345 . S
C486 C487 1.371 . S
C486 H489 0.931 . S
C487 C483 1.391 1_554 S
C487 C486 1.371 . S
C487 H494 0.930 . S
H488 C485 0.928 . S
H489 C486 0.931 . S
H490 C466 0.930 . S
H491 C463 0.930 . S
H492 C472 0.930 . S
H493 C484 0.929 . S
H494 C487 0.930 . S
C495 C496 1.351 . S
C495 N498 1.368 . S
C495 H500 0.931 . S
C496 C495 1.351 . S
C496 N497 1.373 . S
C496 H524 0.930 . S
N497 C496 1.373 . S
N497 C499 1.340 . S
N498 C495 1.368 . S
N498 C499 1.321 . S
N498 Co501 2.135 . S
C499 N497 1.340 . S
C499 N498 1.321 . S
C499 H523 0.930 . S
H500 C495 0.931 . S
Co501 N498 2.135 . S
Co501 N504 2.121 . S
Co501 O509 2.055 . S
Co501 O512 2.039 . S
Co501 N515 2.140 . S
C502 O503 1.227 . S
C502 O512 1.265 . S
O503 C502 1.227 . S
N504 Co501 2.121 . S
N504 C506 1.375 . S
N504 C507 1.313 . S
C505 C506 1.338 . S
C505 N508 1.377 . S
C505 H525 0.930 . S
C506 N504 1.375 . S
C506 C505 1.338 . S
C506 H510 0.931 . S
C507 N504 1.313 . S
C507 N508 1.344 . S
C507 H511 0.930 . S
N508 C505 1.377 . S
N508 C507 1.344 . S
O509 Co501 2.055 . S
O509 C513 1.253 . S
H510 C506 0.931 . S
H511 C507 0.930 . S
O512 Co501 2.039 . S
O512 C502 1.265 . S
C513 O509 1.253 . S
C513 O514 1.227 . S
O514 C513 1.227 . S
N515 Co501 2.140 . S
N515 C518 1.346 . S
N515 C519 1.345 . S
C516 C517 1.387 . S
C516 C520 1.391 . S
C517 C516 1.387 . S
C517 C518 1.369 . S
C517 H526 0.929 . S
C518 N515 1.346 . S
C518 C517 1.369 . S
C518 H521 0.928 . S
C519 N515 1.345 . S
C519 C520 1.371 . S
C519 H522 0.931 . S
C520 C516 1.391 . S
C520 C519 1.371 . S
C520 H527 0.930 . S
H521 C518 0.928 . S
H522 C519 0.931 . S
H523 C499 0.930 . S
H524 C496 0.930 . S
H525 C505 0.930 . S
H526 C517 0.929 . S
H527 C520 0.930 . S
H528 C536 0.950 . S
H529 C541 0.950 . S
H530 C538 0.950 . S
H531 C540 0.950 . S
H532 C542 0.950 . S
H533 C544 0.950 . S
H534 C546 0.950 . S
H535 C547 0.950 . S
C536 H528 0.950 . S
C536 C537 1.386 . S
C536 C538 1.391 . S
C537 C536 1.386 . S
C537 C541 1.393 . S
C538 H530 0.950 . S
C538 C536 1.391 . S
C538 C539 1.400 . S
C539 C538 1.400 . S
C539 C540 1.398 . S
C539 C545 1.491 . S
C540 H531 0.950 . S
C540 C539 1.398 . S
C540 C541 1.391 . S
C541 H529 0.950 . S
C541 C537 1.393 . S
C541 C540 1.391 . S
C542 H532 0.950 . S
C542 C543 1.386 . S
C542 C544 1.391 . S
C543 C542 1.386 . S
C543 C547 1.393 . S
C544 H533 0.950 . S
C544 C542 1.391 . S
C544 C545 1.400 . S
C545 C539 1.491 . S
C545 C544 1.400 . S
C545 C546 1.398 . S
C546 H534 0.950 . S
C546 C545 1.398 . S
C546 C547 1.391 . S
C547 H535 0.950 . S
C547 C543 1.393 . S
C547 C546 1.391 . S
H548 C556 0.950 . S
H549 C561 0.950 . S
H550 C558 0.950 . S
H551 C560 0.950 . S
H552 C562 0.950 . S
H553 C564 0.950 . S
H554 C566 0.950 . S
H555 C567 0.950 . S
C556 H548 0.950 . S
C556 C557 1.386 . S
C556 C558 1.391 . S
C557 C556 1.386 . S
C557 C561 1.393 . S
C558 H550 0.950 . S
C558 C556 1.391 . S
C558 C559 1.400 . S
C559 C558 1.400 . S
C559 C560 1.398 . S
C559 C565 1.491 . S
C560 H551 0.950 . S
C560 C559 1.398 . S
C560 C561 1.391 . S
C561 H549 0.950 . S
C561 C557 1.393 . S
C561 C560 1.391 . S
C562 H552 0.950 . S
C562 C563 1.386 . S
C562 C564 1.391 . S
C563 C562 1.386 . S
C563 C567 1.393 . S
C564 H553 0.950 . S
C564 C562 1.391 . S
C564 C565 1.400 . S
C565 C559 1.491 . S
C565 C564 1.400 . S
C565 C566 1.398 . S
C566 H554 0.950 . S
C566 C565 1.398 . S
C566 C567 1.391 . S
C567 H555 0.950 . S
C567 C563 1.393 . S
C567 C566 1.391 . S
H568 C576 0.950 . S
H569 C581 0.950 . S
H570 C578 0.950 . S
H571 C580 0.950 . S
H572 C582 0.950 . S
H573 C584 0.950 . S
H574 C586 0.950 . S
H575 C587 0.950 . S
C576 H568 0.950 . S
C576 C577 1.386 . S
C576 C578 1.391 . S
C577 C576 1.386 . S
C577 C581 1.393 . S
C578 H570 0.950 . S
C578 C576 1.391 . S
C578 C579 1.400 . S
C579 C578 1.400 . S
C579 C580 1.398 . S
C579 C585 1.491 . S
C580 H571 0.950 . S
C580 C579 1.398 . S
C580 C581 1.391 . S
C581 H569 0.950 . S
C581 C577 1.393 . S
C581 C580 1.391 . S
C582 H572 0.950 . S
C582 C583 1.386 . S
C582 C584 1.391 . S
C583 C582 1.386 . S
C583 C587 1.393 . S
C584 H573 0.950 . S
C584 C582 1.391 . S
C584 C585 1.400 . S
C585 C579 1.491 . S
C585 C584 1.400 . S
C585 C586 1.398 . S
C586 H574 0.950 . S
C586 C585 1.398 . S
C586 C587 1.391 . S
C587 H575 0.950 . S
C587 C583 1.393 . S
C587 C586 1.391 . S
H588 C596 0.950 . S
H589 C601 0.950 . S
H590 C598 0.950 . S
H591 C600 0.950 . S
H592 C602 0.950 . S
H593 C604 0.950 . S
H594 C606 0.950 . S
H595 C607 0.950 . S
C596 H588 0.950 . S
C596 C597 1.386 . S
C596 C598 1.391 . S
C597 C596 1.386 . S
C597 C601 1.393 . S
C598 H590 0.950 . S
C598 C596 1.391 . S
C598 C599 1.400 . S
C599 C598 1.400 . S
C599 C600 1.398 . S
C599 C605 1.491 . S
C600 H591 0.950 . S
C600 C599 1.398 . S
C600 C601 1.391 . S
C601 H589 0.950 . S
C601 C597 1.393 . S
C601 C600 1.391 . S
C602 H592 0.950 . S
C602 C603 1.386 . S
C602 C604 1.391 . S
C603 C602 1.386 . S
C603 C607 1.393 . S
C604 H593 0.950 . S
C604 C602 1.391 . S
C604 C605 1.400 . S
C605 C599 1.491 . S
C605 C604 1.400 . S
C605 C606 1.398 . S
C606 H594 0.950 . S
C606 C605 1.398 . S
C606 C607 1.391 . S
C607 H595 0.950 . S
C607 C603 1.393 . S
C607 C606 1.391 . S
H608 C616 0.950 . S
H609 C621 0.950 . S
H610 C618 0.950 . S
H611 C620 0.950 . S
H612 C622 0.950 . S
H613 C624 0.950 . S
H614 C626 0.950 . S
H615 C627 0.950 . S
C616 H608 0.950 . S
C616 C617 1.386 . S
C616 C618 1.391 . S
C617 C616 1.386 . S
C617 C621 1.393 . S
C618 H610 0.950 . S
C618 C616 1.391 . S
C618 C619 1.400 . S
C619 C618 1.400 . S
C619 C620 1.398 . S
C619 C625 1.491 . S
C620 H611 0.950 . S
C620 C619 1.398 . S
C620 C621 1.391 . S
C621 H609 0.950 . S
C621 C617 1.393 . S
C621 C620 1.391 . S
C622 H612 0.950 . S
C622 C623 1.386 . S
C622 C624 1.391 . S
C623 C622 1.386 . S
C623 C627 1.393 . S
C624 H613 0.950 . S
C624 C622 1.391 . S
C624 C625 1.400 . S
C625 C619 1.491 . S
C625 C624 1.400 . S
C625 C626 1.398 . S
C626 H614 0.950 . S
C626 C625 1.398 . S
C626 C627 1.391 . S
C627 H615 0.950 . S
C627 C623 1.393 . S
C627 C626 1.391 . S
H628 C636 0.950 . S
H629 C641 0.950 . S
H630 C638 0.950 . S
H631 C640 0.950 . S
H632 C642 0.950 . S
H633 C644 0.950 . S
H634 C646 0.950 . S
H635 C647 0.950 . S
C636 H628 0.950 . S
C636 C637 1.386 . S
C636 C638 1.391 . S
C637 C636 1.386 . S
C637 C641 1.393 . S
C638 H630 0.950 . S
C638 C636 1.391 . S
C638 C639 1.400 . S
C639 C638 1.400 . S
C639 C640 1.398 . S
C639 C645 1.491 . S
C640 H631 0.950 . S
C640 C639 1.398 . S
C640 C641 1.391 . S
C641 H629 0.950 . S
C641 C637 1.393 . S
C641 C640 1.391 . S
C642 H632 0.950 . S
C642 C643 1.386 . S
C642 C644 1.391 . S
C643 C642 1.386 . S
C643 C647 1.393 . S
C644 H633 0.950 . S
C644 C642 1.391 . S
C644 C645 1.400 . S
C645 C639 1.491 . S
C645 C644 1.400 . S
C645 C646 1.398 . S
C646 H634 0.950 . S
C646 C645 1.398 . S
C646 C647 1.391 . S
C647 H635 0.950 . S
C647 C643 1.393 . S
C647 C646 1.391 . S
H648 C656 0.950 . S
H649 C661 0.950 . S
H650 C658 0.950 . S
H651 C660 0.950 . S
H652 C662 0.950 . S
H653 C664 0.950 . S
H654 C666 0.950 . S
H655 C667 0.950 . S
C656 H648 0.950 . S
C656 C657 1.386 . S
C656 C658 1.391 . S
C657 C656 1.386 . S
C657 C661 1.393 . S
C658 H650 0.950 . S
C658 C656 1.391 . S
C658 C659 1.400 . S
C659 C658 1.400 . S
C659 C660 1.398 . S
C659 C665 1.491 . S
C660 H651 0.950 . S
C660 C659 1.398 . S
C660 C661 1.391 . S
C661 H649 0.950 . S
C661 C657 1.393 . S
C661 C660 1.391 . S
C662 H652 0.950 . S
C662 C663 1.386 . S
C662 C664 1.391 . S
C663 C662 1.386 . S
C663 C667 1.393 . S
C664 H653 0.950 . S
C664 C662 1.391 . S
C664 C665 1.400 . S
C665 C659 1.491 . S
C665 C664 1.400 . S
C665 C666 1.398 . S
C666 H654 0.950 . S
C666 C665 1.398 . S
C666 C667 1.391 . S
C667 H655 0.950 . S
C667 C663 1.393 . S
C667 C666 1.391 . S
H668 C676 0.950 . S
H669 C681 0.950 . S
H670 C678 0.950 . S
H671 C680 0.950 . S
H672 C682 0.950 . S
H673 C684 0.950 . S
H674 C686 0.950 . S
H675 C687 0.950 . S
C676 H668 0.950 . S
C676 C677 1.386 . S
C676 C678 1.391 . S
C677 C676 1.386 . S
C677 C681 1.393 . S
C678 H670 0.950 . S
C678 C676 1.391 . S
C678 C679 1.400 . S
C679 C678 1.400 . S
C679 C680 1.398 . S
C679 C685 1.491 . S
C680 H671 0.950 . S
C680 C679 1.398 . S
C680 C681 1.391 . S
C681 H669 0.950 . S
C681 C677 1.393 . S
C681 C680 1.391 . S
C682 H672 0.950 . S
C682 C683 1.386 . S
C682 C684 1.391 . S
C683 C682 1.386 . S
C683 C687 1.393 . S
C684 H673 0.950 . S
C684 C682 1.391 . S
C684 C685 1.400 . S
C685 C679 1.491 . S
C685 C684 1.400 . S
C685 C686 1.398 . S
C686 H674 0.950 . S
C686 C685 1.398 . S
C686 C687 1.391 . S
C687 H675 0.950 . S
C687 C683 1.393 . S
C687 C686 1.391 . S
H688 C696 0.950 . S
H689 C701 0.950 . S
H690 C698 0.950 . S
H691 C700 0.950 . S
H692 C702 0.950 . S
H693 C704 0.950 . S
H694 C706 0.950 . S
H695 C707 0.950 . S
C696 H688 0.950 . S
C696 C697 1.386 . S
C696 C698 1.391 . S
C697 C696 1.386 . S
C697 C701 1.393 . S
C698 H690 0.950 . S
C698 C696 1.391 . S
C698 C699 1.400 . S
C699 C698 1.400 . S
C699 C700 1.398 . S
C699 C705 1.491 1_655 S
C700 H691 0.950 . S
C700 C699 1.398 . S
C700 C701 1.391 . S
C701 H689 0.950 . S
C701 C697 1.393 . S
C701 C700 1.391 . S
C702 H692 0.950 . S
C702 C703 1.386 . S
C702 C704 1.391 . S
C703 C702 1.386 . S
C703 C707 1.393 . S
C704 H693 0.950 . S
C704 C702 1.391 . S
C704 C705 1.400 . S
C705 C699 1.491 1_455 S
C705 C704 1.400 . S
C705 C706 1.398 . S
C706 H694 0.950 . S
C706 C705 1.398 . S
C706 C707 1.391 . S
C707 H695 0.950 . S
C707 C703 1.393 . S
C707 C706 1.391 . S
H708 C716 0.950 . S
H709 C721 0.950 . S
H710 C718 0.950 . S
H711 C720 0.950 . S
H712 C722 0.950 . S
H713 C724 0.950 . S
H714 C726 0.950 . S
H715 C727 0.950 . S
C716 H708 0.950 . S
C716 C717 1.386 . S
C716 C718 1.391 . S
C717 C716 1.386 . S
C717 C721 1.393 . S
C718 H710 0.950 . S
C718 C716 1.391 . S
C718 C719 1.400 . S
C719 C718 1.400 . S
C719 C720 1.398 . S
C719 C725 1.491 . S
C720 H711 0.950 . S
C720 C719 1.398 . S
C720 C721 1.391 . S
C721 H709 0.950 . S
C721 C717 1.393 . S
C721 C720 1.391 . S
C722 H712 0.950 . S
C722 C723 1.386 . S
C722 C724 1.391 . S
C723 C722 1.386 . S
C723 C727 1.393 . S
C724 H713 0.950 . S
C724 C722 1.391 . S
C724 C725 1.400 . S
C725 C719 1.491 . S
C725 C724 1.400 . S
C725 C726 1.398 . S
C726 H714 0.950 . S
C726 C725 1.398 . S
C726 C727 1.391 . S
C727 H715 0.950 . S
C727 C723 1.393 . S
C727 C726 1.391 . S
H728 C736 0.950 . S
H729 C741 0.950 . S
H730 C738 0.950 . S
H731 C740 0.950 . S
H732 C742 0.950 . S
H733 C744 0.950 . S
H734 C746 0.950 . S
H735 C747 0.950 . S
C736 H728 0.950 . S
C736 C737 1.386 . S
C736 C738 1.391 . S
C737 C736 1.386 . S
C737 C741 1.393 . S
C738 H730 0.950 . S
C738 C736 1.391 . S
C738 C739 1.400 . S
C739 C738 1.400 . S
C739 C740 1.398 . S
C739 C745 1.491 1_655 S
C740 H731 0.950 . S
C740 C739 1.398 . S
C740 C741 1.391 . S
C741 H729 0.950 . S
C741 C737 1.393 . S
C741 C740 1.391 . S
C742 H732 0.950 . S
C742 C743 1.386 . S
C742 C744 1.391 . S
C743 C742 1.386 . S
C743 C747 1.393 . S
C744 H733 0.950 . S
C744 C742 1.391 . S
C744 C745 1.400 . S
C745 C739 1.491 1_455 S
C745 C744 1.400 . S
C745 C746 1.398 . S
C746 H734 0.950 . S
C746 C745 1.398 . S
C746 C747 1.391 . S
C747 H735 0.950 . S
C747 C743 1.393 . S
C747 C746 1.391 . S
H748 C756 0.950 . S
H749 C761 0.950 . S
H750 C758 0.950 . S
H751 C760 0.950 . S
H752 C762 0.950 . S
H753 C764 0.950 . S
H754 C766 0.950 . S
H755 C767 0.950 . S
C756 H748 0.950 . S
C756 C757 1.386 . S
C756 C758 1.391 . S
C757 C756 1.386 . S
C757 C761 1.393 . S
C758 H750 0.950 . S
C758 C756 1.391 . S
C758 C759 1.400 . S
C759 C758 1.400 . S
C759 C760 1.398 . S
C759 C765 1.491 . S
C760 H751 0.950 . S
C760 C759 1.398 . S
C760 C761 1.391 . S
C761 H749 0.950 . S
C761 C757 1.393 . S
C761 C760 1.391 . S
C762 H752 0.950 . S
C762 C763 1.386 . S
C762 C764 1.391 . S
C763 C762 1.386 . S
C763 C767 1.393 . S
C764 H753 0.950 . S
C764 C762 1.391 . S
C764 C765 1.400 . S
C765 C759 1.491 . S
C765 C764 1.400 . S
C765 C766 1.398 . S
C766 H754 0.950 . S
C766 C765 1.398 . S
C766 C767 1.391 . S
C767 H755 0.950 . S
C767 C763 1.393 . S
C767 C766 1.391 . S
H768 C776 0.950 . S
H769 C781 0.950 . S
H770 C778 0.950 . S
H771 C780 0.950 . S
H772 C782 0.950 . S
H773 C784 0.950 . S
H774 C786 0.950 . S
H775 C787 0.950 . S
C776 H768 0.950 . S
C776 C777 1.386 . S
C776 C778 1.391 . S
C777 C776 1.386 . S
C777 C781 1.393 . S
C778 H770 0.950 . S
C778 C776 1.391 . S
C778 C779 1.400 . S
C779 C778 1.400 . S
C779 C780 1.398 . S
C779 C785 1.491 . S
C780 H771 0.950 . S
C780 C779 1.398 . S
C780 C781 1.391 . S
C781 H769 0.950 . S
C781 C777 1.393 . S
C781 C780 1.391 . S
C782 H772 0.950 . S
C782 C783 1.386 . S
C782 C784 1.391 . S
C783 C782 1.386 . S
C783 C787 1.393 . S
C784 H773 0.950 . S
C784 C782 1.391 . S
C784 C785 1.400 . S
C785 C779 1.491 . S
C785 C784 1.400 . S
C785 C786 1.398 . S
C786 H774 0.950 . S
C786 C785 1.398 . S
C786 C787 1.391 . S
C787 H775 0.950 . S
C787 C783 1.393 . S
C787 C786 1.391 . S
H788 C796 0.950 . S
H789 C801 0.950 . S
H790 C798 0.950 . S
H791 C800 0.950 . S
H792 C802 0.950 . S
H793 C804 0.950 . S
H794 C806 0.950 . S
H795 C807 0.950 . S
C796 H788 0.950 . S
C796 C797 1.386 . S
C796 C798 1.391 . S
C797 C796 1.386 . S
C797 C801 1.393 . S
C798 H790 0.950 . S
C798 C796 1.391 . S
C798 C799 1.400 . S
C799 C798 1.400 . S
C799 C800 1.398 . S
C799 C805 1.491 1_455 S
C800 H791 0.950 . S
C800 C799 1.398 . S
C800 C801 1.391 . S
C801 H789 0.950 . S
C801 C797 1.393 . S
C801 C800 1.391 . S
C802 H792 0.950 . S
C802 C803 1.386 . S
C802 C804 1.391 . S
C803 C802 1.386 . S
C803 C807 1.393 . S
C804 H793 0.950 . S
C804 C802 1.391 . S
C804 C805 1.400 . S
C805 C799 1.491 1_655 S
C805 C804 1.400 . S
C805 C806 1.398 . S
C806 H794 0.950 . S
C806 C805 1.398 . S
C806 C807 1.391 . S
C807 H795 0.950 . S
C807 C803 1.393 . S
C807 C806 1.391 . S
H808 C816 0.950 . S
H809 C821 0.950 . S
H810 C818 0.950 . S
H811 C820 0.950 . S
H812 C822 0.950 . S
H813 C824 0.950 . S
H814 C826 0.950 . S
H815 C827 0.950 . S
C816 H808 0.950 . S
C816 C817 1.386 . S
C816 C818 1.391 . S
C817 C816 1.386 . S
C817 C821 1.393 . S
C818 H810 0.950 . S
C818 C816 1.391 . S
C818 C819 1.400 . S
C819 C818 1.400 . S
C819 C820 1.398 . S
C819 C825 1.491 . S
C820 H811 0.950 . S
C820 C819 1.398 . S
C820 C821 1.391 . S
C821 H809 0.950 . S
C821 C817 1.393 . S
C821 C820 1.391 . S
C822 H812 0.950 . S
C822 C823 1.386 . S
C822 C824 1.391 . S
C823 C822 1.386 . S
C823 C827 1.393 . S
C824 H813 0.950 . S
C824 C822 1.391 . S
C824 C825 1.400 . S
C825 C819 1.491 . S
C825 C824 1.400 . S
C825 C826 1.398 . S
C826 H814 0.950 . S
C826 C825 1.398 . S
C826 C827 1.391 . S
C827 H815 0.950 . S
C827 C823 1.393 . S
C827 C826 1.391 . S
H828 C836 0.950 . S
H829 C841 0.950 . S
H830 C838 0.950 . S
H831 C840 0.950 . S
H832 C842 0.950 . S
H833 C844 0.950 . S
H834 C846 0.950 . S
H835 C847 0.950 . S
C836 H828 0.950 . S
C836 C837 1.386 . S
C836 C838 1.391 . S
C837 C836 1.386 . S
C837 C841 1.393 . S
C838 H830 0.950 . S
C838 C836 1.391 . S
C838 C839 1.400 . S
C839 C838 1.400 . S
C839 C840 1.398 . S
C839 C845 1.491 1_655 S
C840 H831 0.950 . S
C840 C839 1.398 . S
C840 C841 1.391 . S
C841 H829 0.950 . S
C841 C837 1.393 . S
C841 C840 1.391 . S
C842 H832 0.950 . S
C842 C843 1.386 . S
C842 C844 1.391 . S
C843 C842 1.386 . S
C843 C847 1.393 . S
C844 H833 0.950 . S
C844 C842 1.391 . S
C844 C845 1.400 . S
C845 C839 1.491 1_455 S
C845 C844 1.400 . S
C845 C846 1.398 . S
C846 H834 0.950 . S
C846 C845 1.398 . S
C846 C847 1.391 . S
C847 H835 0.950 . S
C847 C843 1.393 . S
C847 C846 1.391 . S
H848 C856 0.950 . S
H849 C861 0.950 . S
H850 C858 0.950 1_556 S
H851 C860 0.950 . S
H852 C862 0.950 . S
H853 C864 0.950 1_554 S
H854 C866 0.950 . S
H855 C867 0.950 . S
C856 H848 0.950 . S
C856 C857 1.386 . S
C856 C858 1.391 . S
C857 C856 1.386 . S
C857 C861 1.393 . S
C858 H850 0.950 1_554 S
C858 C856 1.391 . S
C858 C859 1.400 . S
C859 C858 1.400 . S
C859 C860 1.398 . S
C859 C865 1.491 1_544 S
C860 H851 0.950 . S
C860 C859 1.398 . S
C860 C861 1.391 . S
C861 H849 0.950 . S
C861 C857 1.393 . S
C861 C860 1.391 . S
C862 H852 0.950 . S
C862 C863 1.386 . S
C862 C864 1.391 . S
C863 C862 1.386 . S
C863 C867 1.393 . S
C864 H853 0.950 1_556 S
C864 C862 1.391 . S
C864 C865 1.400 . S
C865 C859 1.491 1_566 S
C865 C864 1.400 . S
C865 C866 1.398 . S
C866 H854 0.950 . S
C866 C865 1.398 . S
C866 C867 1.391 . S
C867 H855 0.950 . S
C867 C863 1.393 . S
C867 C866 1.391 . S
H868 C876 0.950 . S
H869 C881 0.950 . S
H870 C878 0.950 . S
H871 C880 0.950 . S
H872 C882 0.950 . S
H873 C884 0.950 . S
H874 C886 0.950 . S
H875 C887 0.950 . S
C876 H868 0.950 . S
C876 C877 1.386 . S
C876 C878 1.391 . S
C877 C876 1.386 . S
C877 C881 1.393 . S
C878 H870 0.950 . S
C878 C876 1.391 . S
C878 C879 1.400 . S
C879 C878 1.400 . S
C879 C880 1.398 . S
C879 C885 1.491 1_565 S
C880 H871 0.950 . S
C880 C879 1.398 . S
C880 C881 1.391 . S
C881 H869 0.950 . S
C881 C877 1.393 . S
C881 C880 1.391 . S
C882 H872 0.950 . S
C882 C883 1.386 . S
C882 C884 1.391 . S
C883 C882 1.386 . S
C883 C887 1.393 . S
C884 H873 0.950 . S
C884 C882 1.391 . S
C884 C885 1.400 . S
C885 C879 1.491 1_545 S
C885 C884 1.400 . S
C885 C886 1.398 . S
C886 H874 0.950 . S
C886 C885 1.398 . S
C886 C887 1.391 . S
C887 H875 0.950 . S
C887 C883 1.393 . S
C887 C886 1.391 . S
H888 C896 0.950 . S
H889 C901 0.950 . S
H890 C898 0.950 . S
H891 C900 0.950 . S
H892 C902 0.950 . S
H893 C904 0.950 . S
H894 C906 0.950 . S
H895 C907 0.950 . S
C896 H888 0.950 . S
C896 C897 1.386 . S
C896 C898 1.391 . S
C897 C896 1.386 . S
C897 C901 1.393 . S
C898 H890 0.950 . S
C898 C896 1.391 . S
C898 C899 1.400 . S
C899 C898 1.400 . S
C899 C900 1.398 . S
C899 C905 1.491 1_566 S
C900 H891 0.950 . S
C900 C899 1.398 . S
C900 C901 1.391 . S
C901 H889 0.950 . S
C901 C897 1.393 . S
C901 C900 1.391 . S
C902 H892 0.950 . S
C902 C903 1.386 . S
C902 C904 1.391 . S
C903 C902 1.386 . S
C903 C907 1.393 . S
C904 H893 0.950 . S
C904 C902 1.391 . S
C904 C905 1.400 . S
C905 C899 1.491 1_544 S
C905 C904 1.400 . S
C905 C906 1.398 . S
C906 H894 0.950 . S
C906 C905 1.398 . S
C906 C907 1.391 . S
C907 H895 0.950 . S
C907 C903 1.393 . S
C907 C906 1.391 . S
H908 C916 0.950 . S
H909 C921 0.950 . S
H910 C918 0.950 . S
H911 C920 0.950 . S
H912 C922 0.950 . S
H913 C924 0.950 . S
H914 C926 0.950 . S
H915 C927 0.950 . S
C916 H908 0.950 . S
C916 C917 1.386 . S
C916 C918 1.391 . S
C917 C916 1.386 . S
C917 C921 1.393 . S
C918 H910 0.950 . S
C918 C916 1.391 . S
C918 C919 1.400 . S
C919 C918 1.400 . S
C919 C920 1.398 . S
C919 C925 1.491 1_545 S
C920 H911 0.950 . S
C920 C919 1.398 . S
C920 C921 1.391 . S
C921 H909 0.950 . S
C921 C917 1.393 . S
C921 C920 1.391 . S
C922 H912 0.950 . S
C922 C923 1.386 . S
C922 C924 1.391 . S
C923 C922 1.386 . S
C923 C927 1.393 . S
C924 H913 0.950 . S
C924 C922 1.391 . S
C924 C925 1.400 . S
C925 C919 1.491 1_565 S
C925 C924 1.400 . S
C925 C926 1.398 . S
C926 H914 0.950 . S
C926 C925 1.398 . S
C926 C927 1.391 . S
C927 H915 0.950 . S
C927 C923 1.393 . S
C927 C926 1.391 . S
H928 C936 0.950 1_556 S
H929 C941 0.950 . S
H930 C938 0.950 . S
H931 C940 0.950 . S
H932 C942 0.950 1_554 S
H933 C944 0.950 . S
H934 C946 0.950 . S
H935 C947 0.950 . S
C936 H928 0.950 1_554 S
C936 C937 1.386 . S
C936 C938 1.391 1_554 S
C937 C936 1.386 . S
C937 C941 1.393 . S
C938 H930 0.950 . S
C938 C936 1.391 1_556 S
C938 C939 1.400 1_556 S
C939 C938 1.400 1_554 S
C939 C940 1.398 . S
C939 C945 1.491 1_554 S
C940 H931 0.950 . S
C940 C939 1.398 . S
C940 C941 1.391 . S
C941 H929 0.950 . S
C941 C937 1.393 . S
C941 C940 1.391 . S
C942 H932 0.950 1_556 S
C942 C943 1.386 . S
C942 C944 1.391 1_556 S
C943 C942 1.386 . S
C943 C947 1.393 . S
C944 H933 0.950 . S
C944 C942 1.391 1_554 S
C944 C945 1.400 1_554 S
C945 C939 1.491 1_556 S
C945 C944 1.400 1_556 S
C945 C946 1.398 . S
C946 H934 0.950 . S
C946 C945 1.398 . S
C946 C947 1.391 . S
C947 H935 0.950 . S
C947 C943 1.393 . S
C947 C946 1.391 . S
H948 C956 0.950 . S
H949 C961 0.950 . S
H950 C958 0.950 . S
H951 C960 0.950 . S
H952 C962 0.950 . S
H953 C964 0.950 . S
H954 C966 0.950 . S
H955 C967 0.950 . S
C956 H948 0.950 . S
C956 C957 1.386 . S
C956 C958 1.391 . S
C957 C956 1.386 . S
C957 C961 1.393 . S
C958 H950 0.950 . S
C958 C956 1.391 . S
C958 C959 1.400 . S
C959 C958 1.400 . S
C959 C960 1.398 . S
C959 C965 1.491 . S
C960 H951 0.950 . S
C960 C959 1.398 . S
C960 C961 1.391 . S
C961 H949 0.950 . S
C961 C957 1.393 . S
C961 C960 1.391 . S
C962 H952 0.950 . S
C962 C963 1.386 . S
C962 C964 1.391 . S
C963 C962 1.386 . S
C963 C967 1.393 . S
C964 H953 0.950 . S
C964 C962 1.391 . S
C964 C965 1.400 . S
C965 C959 1.491 . S
C965 C964 1.400 . S
C965 C966 1.398 . S
C966 H954 0.950 . S
C966 C965 1.398 . S
C966 C967 1.391 . S
C967 H955 0.950 . S
C967 C963 1.393 . S
C967 C966 1.391 . S
H968 C976 0.950 . S
H969 C981 0.950 . S
H970 C978 0.950 . S
H971 C980 0.950 . S
H972 C982 0.950 . S
H973 C984 0.950 . S
H974 C986 0.950 . S
H975 C987 0.950 . S
C976 H968 0.950 . S
C976 C977 1.386 . S
C976 C978 1.391 . S
C977 C976 1.386 . S
C977 C981 1.393 . S
C978 H970 0.950 . S
C978 C976 1.391 . S
C978 C979 1.400 . S
C979 C978 1.400 . S
C979 C980 1.398 . S
C979 C985 1.491 1_556 S
C980 H971 0.950 . S
C980 C979 1.398 . S
C980 C981 1.391 . S
C981 H969 0.950 . S
C981 C977 1.393 . S
C981 C980 1.391 . S
C982 H972 0.950 . S
C982 C983 1.386 . S
C982 C984 1.391 . S
C983 C982 1.386 . S
C983 C987 1.393 . S
C984 H973 0.950 . S
C984 C982 1.391 . S
C984 C985 1.400 . S
C985 C979 1.491 1_554 S
C985 C984 1.400 . S
C985 C986 1.398 . S
C986 H974 0.950 . S
C986 C985 1.398 . S
C986 C987 1.391 . S
C987 H975 0.950 . S
C987 C983 1.393 . S
C987 C986 1.391 . S
H988 C996 0.950 . S
H989 C1001 0.950 . S
H990 C998 0.950 . S
H991 C1000 0.950 . S
H992 C1002 0.950 . S
H993 C1004 0.950 . S
H994 C1006 0.950 . S
H995 C1007 0.950 . S
C996 H988 0.950 . S
C996 C997 1.386 . S
C996 C998 1.391 . S
C997 C996 1.386 . S
C997 C1001 1.393 . S
C998 H990 0.950 . S
C998 C996 1.391 . S
C998 C999 1.400 . S
C999 C998 1.400 . S
C999 C1000 1.398 . S
C999 C1005 1.491 . S
C1000 H991 0.950 . S
C1000 C999 1.398 . S
C1000 C1001 1.391 . S
C1001 H989 0.950 . S
C1001 C997 1.393 . S
C1001 C1000 1.391 . S
C1002 H992 0.950 . S
C1002 C1003 1.386 . S
C1002 C1004 1.391 . S
C1003 C1002 1.386 . S
C1003 C1007 1.393 . S
C1004 H993 0.950 . S
C1004 C1002 1.391 . S
C1004 C1005 1.400 . S
C1005 C999 1.491 . S
C1005 C1004 1.400 . S
C1005 C1006 1.398 . S
C1006 H994 0.950 . S
C1006 C1005 1.398 . S
C1006 C1007 1.391 . S
C1007 H995 0.950 . S
C1007 C1003 1.393 . S
C1007 C1006 1.391 . S
H1008 C1016 0.950 . S
H1009 C1021 0.950 . S
H1010 C1018 0.950 . S
H1011 C1020 0.950 . S
H1012 C1022 0.950 . S
H1013 C1024 0.950 . S
H1014 C1026 0.950 . S
H1015 C1027 0.950 . S
C1016 H1008 0.950 . S
C1016 C1017 1.386 . S
C1016 C1018 1.391 . S
C1017 C1016 1.386 . S
C1017 C1021 1.393 . S
C1018 H1010 0.950 . S
C1018 C1016 1.391 . S
C1018 C1019 1.400 . S
C1019 C1018 1.400 . S
C1019 C1020 1.398 . S
C1019 C1025 1.491 . S
C1020 H1011 0.950 . S
C1020 C1019 1.398 . S
C1020 C1021 1.391 . S
C1021 H1009 0.950 . S
C1021 C1017 1.393 . S
C1021 C1020 1.391 . S
C1022 H1012 0.950 . S
C1022 C1023 1.386 . S
C1022 C1024 1.391 . S
C1023 C1022 1.386 . S
C1023 C1027 1.393 . S
C1024 H1013 0.950 . S
C1024 C1022 1.391 . S
C1024 C1025 1.400 . S
C1025 C1019 1.491 . S
C1025 C1024 1.400 . S
C1025 C1026 1.398 . S
C1026 H1014 0.950 . S
C1026 C1025 1.398 . S
C1026 C1027 1.391 . S
C1027 H1015 0.950 . S
C1027 C1023 1.393 . S
C1027 C1026 1.391 . S
H1028 C1036 0.950 . S
H1029 C1041 0.950 . S
H1030 C1038 0.950 . S
H1031 C1040 0.950 . S
H1032 C1042 0.950 . S
H1033 C1044 0.950 . S
H1034 C1046 0.950 . S
H1035 C1047 0.950 . S
C1036 H1028 0.950 . S
C1036 C1037 1.386 . S
C1036 C1038 1.391 . S
C1037 C1036 1.386 . S
C1037 C1041 1.393 . S
C1038 H1030 0.950 . S
C1038 C1036 1.391 . S
C1038 C1039 1.400 . S
C1039 C1038 1.400 . S
C1039 C1040 1.398 . S
C1039 C1045 1.491 . S
C1040 H1031 0.950 . S
C1040 C1039 1.398 . S
C1040 C1041 1.391 . S
C1041 H1029 0.950 . S
C1041 C1037 1.393 . S
C1041 C1040 1.391 . S
C1042 H1032 0.950 . S
C1042 C1043 1.386 . S
C1042 C1044 1.391 . S
C1043 C1042 1.386 . S
C1043 C1047 1.393 . S
C1044 H1033 0.950 . S
C1044 C1042 1.391 . S
C1044 C1045 1.400 . S
C1045 C1039 1.491 . S
C1045 C1044 1.400 . S
C1045 C1046 1.398 . S
C1046 H1034 0.950 . S
C1046 C1045 1.398 . S
C1046 C1047 1.391 . S
C1047 H1035 0.950 . S
C1047 C1043 1.393 . S
C1047 C1046 1.391 . S
H1048 C1056 0.950 . S
H1049 C1061 0.950 . S
H1050 C1058 0.950 . S
H1051 C1060 0.950 . S
H1052 C1062 0.950 . S
H1053 C1064 0.950 . S
H1054 C1066 0.950 . S
H1055 C1067 0.950 . S
C1056 H1048 0.950 . S
C1056 C1057 1.386 . S
C1056 C1058 1.391 . S
C1057 C1056 1.386 . S
C1057 C1061 1.393 . S
C1058 H1050 0.950 . S
C1058 C1056 1.391 . S
C1058 C1059 1.400 . S
C1059 C1058 1.400 . S
C1059 C1060 1.398 . S
C1059 C1065 1.491 . S
C1060 H1051 0.950 . S
C1060 C1059 1.398 . S
C1060 C1061 1.391 . S
C1061 H1049 0.950 . S
C1061 C1057 1.393 . S
C1061 C1060 1.391 . S
C1062 H1052 0.950 . S
C1062 C1063 1.386 . S
C1062 C1064 1.391 . S
C1063 C1062 1.386 . S
C1063 C1067 1.393 . S
C1064 H1053 0.950 . S
C1064 C1062 1.391 . S
C1064 C1065 1.400 . S
C1065 C1059 1.491 . S
C1065 C1064 1.400 . S
C1065 C1066 1.398 . S
C1066 H1054 0.950 . S
C1066 C1065 1.398 . S
C1066 C1067 1.391 . S
C1067 H1055 0.950 . S
C1067 C1063 1.393 . S
C1067 C1066 1.391 . S
H1068 C1076 0.950 . S
H1069 C1081 0.950 . S
H1070 C1078 0.950 . S
H1071 C1080 0.950 . S
H1072 C1082 0.950 . S
H1073 C1084 0.950 . S
H1074 C1086 0.950 . S
H1075 C1087 0.950 . S
C1076 H1068 0.950 . S
C1076 C1077 1.386 . S
C1076 C1078 1.391 . S
C1077 C1076 1.386 . S
C1077 C1081 1.393 . S
C1078 H1070 0.950 . S
C1078 C1076 1.391 . S
C1078 C1079 1.400 . S
C1079 C1078 1.400 . S
C1079 C1080 1.398 . S
C1079 C1085 1.491 . S
C1080 H1071 0.950 . S
C1080 C1079 1.398 . S
C1080 C1081 1.391 . S
C1081 H1069 0.950 . S
C1081 C1077 1.393 . S
C1081 C1080 1.391 . S
C1082 H1072 0.950 . S
C1082 C1083 1.386 . S
C1082 C1084 1.391 . S
C1083 C1082 1.386 . S
C1083 C1087 1.393 . S
C1084 H1073 0.950 . S
C1084 C1082 1.391 . S
C1084 C1085 1.400 . S
C1085 C1079 1.491 . S
C1085 C1084 1.400 . S
C1085 C1086 1.398 . S
C1086 H1074 0.950 . S
C1086 C1085 1.398 . S
C1086 C1087 1.391 . S
C1087 H1075 0.950 . S
C1087 C1083 1.393 . S
C1087 C1086 1.391 . S
H1088 C1096 0.950 . S
H1089 C1101 0.950 . S
H1090 C1098 0.950 . S
H1091 C1100 0.950 . S
H1092 C1102 0.950 . S
H1093 C1104 0.950 . S
H1094 C1106 0.950 . S
H1095 C1107 0.950 . S
C1096 H1088 0.950 . S
C1096 C1097 1.386 . S
C1096 C1098 1.391 . S
C1097 C1096 1.386 . S
C1097 C1101 1.393 . S
C1098 H1090 0.950 . S
C1098 C1096 1.391 . S
C1098 C1099 1.400 . S
C1099 C1098 1.400 . S
C1099 C1100 1.398 . S
C1099 C1105 1.491 . S
C1100 H1091 0.950 . S
C1100 C1099 1.398 . S
C1100 C1101 1.391 . S
C1101 H1089 0.950 . S
C1101 C1097 1.393 . S
C1101 C1100 1.391 . S
C1102 H1092 0.950 . S
C1102 C1103 1.386 . S
C1102 C1104 1.391 . S
C1103 C1102 1.386 . S
C1103 C1107 1.393 . S
C1104 H1093 0.950 . S
C1104 C1102 1.391 . S
C1104 C1105 1.400 . S
C1105 C1099 1.491 . S
C1105 C1104 1.400 . S
C1105 C1106 1.398 . S
C1106 H1094 0.950 . S
C1106 C1105 1.398 . S
C1106 C1107 1.391 . S
C1107 H1095 0.950 . S
C1107 C1103 1.393 . S
C1107 C1106 1.391 . S
H1108 C1116 0.950 . S
H1109 C1121 0.950 . S
H1110 C1118 0.950 . S
H1111 C1120 0.950 . S
H1112 C1122 0.950 . S
H1113 C1124 0.950 . S
H1114 C1126 0.950 . S
H1115 C1127 0.950 . S
C1116 H1108 0.950 . S
C1116 C1117 1.386 . S
C1116 C1118 1.391 . S
C1117 C1116 1.386 . S
C1117 C1121 1.393 . S
C1118 H1110 0.950 . S
C1118 C1116 1.391 . S
C1118 C1119 1.400 . S
C1119 C1118 1.400 . S
C1119 C1120 1.398 . S
C1119 C1125 1.491 . S
C1120 H1111 0.950 . S
C1120 C1119 1.398 . S
C1120 C1121 1.391 . S
C1121 H1109 0.950 . S
C1121 C1117 1.393 . S
C1121 C1120 1.391 . S
C1122 H1112 0.950 . S
C1122 C1123 1.386 . S
C1122 C1124 1.391 . S
C1123 C1122 1.386 . S
C1123 C1127 1.393 . S
C1124 H1113 0.950 . S
C1124 C1122 1.391 . S
C1124 C1125 1.400 . S
C1125 C1119 1.491 . S
C1125 C1124 1.400 . S
C1125 C1126 1.398 . S
C1126 H1114 0.950 . S
C1126 C1125 1.398 . S
C1126 C1127 1.391 . S
C1127 H1115 0.950 . S
C1127 C1123 1.393 . S
C1127 C1126 1.391 . S
H1128 C1136 0.950 . S
H1129 C1141 0.950 . S
H1130 C1138 0.950 . S
H1131 C1140 0.950 . S
H1132 C1142 0.950 . S
H1133 C1144 0.950 . S
H1134 C1146 0.950 . S
H1135 C1147 0.950 . S
C1136 H1128 0.950 . S
C1136 C1137 1.386 . S
C1136 C1138 1.391 . S
C1137 C1136 1.386 . S
C1137 C1141 1.393 . S
C1138 H1130 0.950 . S
C1138 C1136 1.391 . S
C1138 C1139 1.400 . S
C1139 C1138 1.400 . S
C1139 C1140 1.398 . S
C1139 C1145 1.491 . S
C1140 H1131 0.950 . S
C1140 C1139 1.398 . S
C1140 C1141 1.391 . S
C1141 H1129 0.950 . S
C1141 C1137 1.393 . S
C1141 C1140 1.391 . S
C1142 H1132 0.950 . S
C1142 C1143 1.386 . S
C1142 C1144 1.391 . S
C1143 C1142 1.386 . S
C1143 C1147 1.393 . S
C1144 H1133 0.950 . S
C1144 C1142 1.391 . S
C1144 C1145 1.400 . S
C1145 C1139 1.491 . S
C1145 C1144 1.400 . S
C1145 C1146 1.398 . S
C1146 H1134 0.950 . S
C1146 C1145 1.398 . S
C1146 C1147 1.391 . S
C1147 H1135 0.950 . S
C1147 C1143 1.393 . S
C1147 C1146 1.391 . S
H1148 C1156 0.950 . S
H1149 C1161 0.950 . S
H1150 C1158 0.950 . S
H1151 C1160 0.950 . S
H1152 C1162 0.950 . S
H1153 C1164 0.950 . S
H1154 C1166 0.950 . S
H1155 C1167 0.950 . S
C1156 H1148 0.950 . S
C1156 C1157 1.386 . S
C1156 C1158 1.391 . S
C1157 C1156 1.386 . S
C1157 C1161 1.393 . S
C1158 H1150 0.950 . S
C1158 C1156 1.391 . S
C1158 C1159 1.400 . S
C1159 C1158 1.400 . S
C1159 C1160 1.398 . S
C1159 C1165 1.491 . S
C1160 H1151 0.950 . S
C1160 C1159 1.398 . S
C1160 C1161 1.391 . S
C1161 H1149 0.950 . S
C1161 C1157 1.393 . S
C1161 C1160 1.391 . S
C1162 H1152 0.950 . S
C1162 C1163 1.386 . S
C1162 C1164 1.391 . S
C1163 C1162 1.386 . S
C1163 C1167 1.393 . S
C1164 H1153 0.950 . S
C1164 C1162 1.391 . S
C1164 C1165 1.400 . S
C1165 C1159 1.491 . S
C1165 C1164 1.400 . S
C1165 C1166 1.398 . S
C1166 H1154 0.950 . S
C1166 C1165 1.398 . S
C1166 C1167 1.391 . S
C1167 H1155 0.950 . S
C1167 C1163 1.393 . S
C1167 C1166 1.391 . S
H1168 C1176 0.950 . S
H1169 C1181 0.950 . S
H1170 C1178 0.950 . S
H1171 C1180 0.950 . S
H1172 C1182 0.950 . S
H1173 C1184 0.950 . S
H1174 C1186 0.950 . S
H1175 C1187 0.950 . S
C1176 H1168 0.950 . S
C1176 C1177 1.386 . S
C1176 C1178 1.391 . S
C1177 C1176 1.386 . S
C1177 C1181 1.393 . S
C1178 H1170 0.950 . S
C1178 C1176 1.391 . S
C1178 C1179 1.400 . S
C1179 C1178 1.400 . S
C1179 C1180 1.398 . S
C1179 C1185 1.491 . S
C1180 H1171 0.950 . S
C1180 C1179 1.398 . S
C1180 C1181 1.391 . S
C1181 H1169 0.950 . S
C1181 C1177 1.393 . S
C1181 C1180 1.391 . S
C1182 H1172 0.950 . S
C1182 C1183 1.386 . S
C1182 C1184 1.391 . S
C1183 C1182 1.386 . S
C1183 C1187 1.393 . S
C1184 H1173 0.950 . S
C1184 C1182 1.391 . S
C1184 C1185 1.400 . S
C1185 C1179 1.491 . S
C1185 C1184 1.400 . S
C1185 C1186 1.398 . S
C1186 H1174 0.950 . S
C1186 C1185 1.398 . S
C1186 C1187 1.391 . S
C1187 H1175 0.950 . S
C1187 C1183 1.393 . S
C1187 C1186 1.391 . S
H1188 C1196 0.950 . S
H1189 C1201 0.950 . S
H1190 C1198 0.950 . S
H1191 C1200 0.950 . S
H1192 C1202 0.950 . S
H1193 C1204 0.950 . S
H1194 C1206 0.950 . S
H1195 C1207 0.950 . S
C1196 H1188 0.950 . S
C1196 C1197 1.386 . S
C1196 C1198 1.391 . S
C1197 C1196 1.386 . S
C1197 C1201 1.393 . S
C1198 H1190 0.950 . S
C1198 C1196 1.391 . S
C1198 C1199 1.400 . S
C1199 C1198 1.400 . S
C1199 C1200 1.398 . S
C1199 C1205 1.491 . S
C1200 H1191 0.950 . S
C1200 C1199 1.398 . S
C1200 C1201 1.391 . S
C1201 H1189 0.950 . S
C1201 C1197 1.393 . S
C1201 C1200 1.391 . S
C1202 H1192 0.950 . S
C1202 C1203 1.386 . S
C1202 C1204 1.391 . S
C1203 C1202 1.386 . S
C1203 C1207 1.393 . S
C1204 H1193 0.950 . S
C1204 C1202 1.391 . S
C1204 C1205 1.400 . S
C1205 C1199 1.491 . S
C1205 C1204 1.400 . S
C1205 C1206 1.398 . S
C1206 H1194 0.950 . S
C1206 C1205 1.398 . S
C1206 C1207 1.391 . S
C1207 H1195 0.950 . S
C1207 C1203 1.393 . S
C1207 C1206 1.391 . S
H1208 C1216 0.950 . S
H1209 C1221 0.950 . S
H1210 C1218 0.950 . S
H1211 C1220 0.950 . S
H1212 C1222 0.950 . S
H1213 C1224 0.950 . S
H1214 C1226 0.950 . S
H1215 C1227 0.950 . S
C1216 H1208 0.950 . S
C1216 C1217 1.386 . S
C1216 C1218 1.391 . S
C1217 C1216 1.386 . S
C1217 C1221 1.393 . S
C1218 H1210 0.950 . S
C1218 C1216 1.391 . S
C1218 C1219 1.400 . S
C1219 C1218 1.400 . S
C1219 C1220 1.398 . S
C1219 C1225 1.491 . S
C1220 H1211 0.950 . S
C1220 C1219 1.398 . S
C1220 C1221 1.391 . S
C1221 H1209 0.950 . S
C1221 C1217 1.393 . S
C1221 C1220 1.391 . S
C1222 H1212 0.950 . S
C1222 C1223 1.386 . S
C1222 C1224 1.391 . S
C1223 C1222 1.386 . S
C1223 C1227 1.393 . S
C1224 H1213 0.950 . S
C1224 C1222 1.391 . S
C1224 C1225 1.400 . S
C1225 C1219 1.491 . S
C1225 C1224 1.400 . S
C1225 C1226 1.398 . S
C1226 H1214 0.950 . S
C1226 C1225 1.398 . S
C1226 C1227 1.391 . S
C1227 H1215 0.950 . S
C1227 C1223 1.393 . S
C1227 C1226 1.391 . S
H1228 C1236 0.950 . S
H1229 C1241 0.950 . S
H1230 C1238 0.950 . S
H1231 C1240 0.950 . S
H1232 C1242 0.950 . S
H1233 C1244 0.950 . S
H1234 C1246 0.950 . S
H1235 C1247 0.950 . S
C1236 H1228 0.950 . S
C1236 C1237 1.386 . S
C1236 C1238 1.391 . S
C1237 C1236 1.386 . S
C1237 C1241 1.393 . S
C1238 H1230 0.950 . S
C1238 C1236 1.391 . S
C1238 C1239 1.400 . S
C1239 C1238 1.400 . S
C1239 C1240 1.398 . S
C1239 C1245 1.491 . S
C1240 H1231 0.950 . S
C1240 C1239 1.398 . S
C1240 C1241 1.391 . S
C1241 H1229 0.950 . S
C1241 C1237 1.393 . S
C1241 C1240 1.391 . S
C1242 H1232 0.950 . S
C1242 C1243 1.386 . S
C1242 C1244 1.391 . S
C1243 C1242 1.386 . S
C1243 C1247 1.393 . S
C1244 H1233 0.950 . S
C1244 C1242 1.391 . S
C1244 C1245 1.400 . S
C1245 C1239 1.491 . S
C1245 C1244 1.400 . S
C1245 C1246 1.398 . S
C1246 H1234 0.950 . S
C1246 C1245 1.398 . S
C1246 C1247 1.391 . S
C1247 H1235 0.950 . S
C1247 C1243 1.393 . S
C1247 C1246 1.391 . S
H1248 C1256 0.950 . S
H1249 C1261 0.950 . S
H1250 C1258 0.950 . S
H1251 C1260 0.950 . S
H1252 C1262 0.950 . S
H1253 C1264 0.950 . S
H1254 C1266 0.950 . S
H1255 C1267 0.950 . S
C1256 H1248 0.950 . S
C1256 C1257 1.386 . S
C1256 C1258 1.391 . S
C1257 C1256 1.386 . S
C1257 C1261 1.393 . S
C1258 H1250 0.950 . S
C1258 C1256 1.391 . S
C1258 C1259 1.400 . S
C1259 C1258 1.400 . S
C1259 C1260 1.398 . S
C1259 C1265 1.491 . S
C1260 H1251 0.950 . S
C1260 C1259 1.398 . S
C1260 C1261 1.391 . S
C1261 H1249 0.950 . S
C1261 C1257 1.393 . S
C1261 C1260 1.391 . S
C1262 H1252 0.950 . S
C1262 C1263 1.386 . S
C1262 C1264 1.391 . S
C1263 C1262 1.386 . S
C1263 C1267 1.393 . S
C1264 H1253 0.950 . S
C1264 C1262 1.391 . S
C1264 C1265 1.400 . S
C1265 C1259 1.491 . S
C1265 C1264 1.400 . S
C1265 C1266 1.398 . S
C1266 H1254 0.950 . S
C1266 C1265 1.398 . S
C1266 C1267 1.391 . S
C1267 H1255 0.950 . S
C1267 C1263 1.393 . S
C1267 C1266 1.391 . S
H1268 C1276 0.950 . S
H1269 C1281 0.950 . S
H1270 C1278 0.950 . S
H1271 C1280 0.950 . S
H1272 C1282 0.950 . S
H1273 C1284 0.950 . S
H1274 C1286 0.950 . S
H1275 C1287 0.950 . S
C1276 H1268 0.950 . S
C1276 C1277 1.386 . S
C1276 C1278 1.391 . S
C1277 C1276 1.386 . S
C1277 C1281 1.393 . S
C1278 H1270 0.950 . S
C1278 C1276 1.391 . S
C1278 C1279 1.400 . S
C1279 C1278 1.400 . S
C1279 C1280 1.398 . S
C1279 C1285 1.491 . S
C1280 H1271 0.950 . S
C1280 C1279 1.398 . S
C1280 C1281 1.391 . S
C1281 H1269 0.950 . S
C1281 C1277 1.393 . S
C1281 C1280 1.391 . S
C1282 H1272 0.950 . S
C1282 C1283 1.386 . S
C1282 C1284 1.391 . S
C1283 C1282 1.386 . S
C1283 C1287 1.393 . S
C1284 H1273 0.950 . S
C1284 C1282 1.391 . S
C1284 C1285 1.400 . S
C1285 C1279 1.491 . S
C1285 C1284 1.400 . S
C1285 C1286 1.398 . S
C1286 H1274 0.950 . S
C1286 C1285 1.398 . S
C1286 C1287 1.391 . S
C1287 H1275 0.950 . S
C1287 C1283 1.393 . S
C1287 C1286 1.391 . S
H1288 C1296 0.950 . S
H1289 C1301 0.950 . S
H1290 C1298 0.950 . S
H1291 C1300 0.950 . S
H1292 C1302 0.950 . S
H1293 C1304 0.950 . S
H1294 C1306 0.950 . S
H1295 C1307 0.950 . S
C1296 H1288 0.950 . S
C1296 C1297 1.386 . S
C1296 C1298 1.391 . S
C1297 C1296 1.386 . S
C1297 C1301 1.393 . S
C1298 H1290 0.950 . S
C1298 C1296 1.391 . S
C1298 C1299 1.400 . S
C1299 C1298 1.400 . S
C1299 C1300 1.398 . S
C1299 C1305 1.491 . S
C1300 H1291 0.950 . S
C1300 C1299 1.398 . S
C1300 C1301 1.391 . S
C1301 H1289 0.950 . S
C1301 C1297 1.393 . S
C1301 C1300 1.391 . S
C1302 H1292 0.950 . S
C1302 C1303 1.386 . S
C1302 C1304 1.391 . S
C1303 C1302 1.386 . S
C1303 C1307 1.393 . S
C1304 H1293 0.950 . S
C1304 C1302 1.391 . S
C1304 C1305 1.400 . S
C1305 C1299 1.491 . S
C1305 C1304 1.400 . S
C1305 C1306 1.398 . S
C1306 H1294 0.950 . S
C1306 C1305 1.398 . S
C1306 C1307 1.391 . S
C1307 H1295 0.950 . S
C1307 C1303 1.393 . S
C1307 C1306 1.391 . S
H1308 C1316 0.950 . S
H1309 C1321 0.950 . S
H1310 C1318 0.950 . S
H1311 C1320 0.950 . S
H1312 C1322 0.950 . S
H1313 C1324 0.950 . S
H1314 C1326 0.950 . S
H1315 C1327 0.950 . S
C1316 H1308 0.950 . S
C1316 C1317 1.386 . S
C1316 C1318 1.391 . S
C1317 C1316 1.386 . S
C1317 C1321 1.393 . S
C1318 H1310 0.950 . S
C1318 C1316 1.391 . S
C1318 C1319 1.400 . S
C1319 C1318 1.400 . S
C1319 C1320 1.398 . S
C1319 C1325 1.491 . S
C1320 H1311 0.950 . S
C1320 C1319 1.398 . S
C1320 C1321 1.391 . S
C1321 H1309 0.950 . S
C1321 C1317 1.393 . S
C1321 C1320 1.391 . S
C1322 H1312 0.950 . S
C1322 C1323 1.386 . S
C1322 C1324 1.391 . S
C1323 C1322 1.386 . S
C1323 C1327 1.393 . S
C1324 H1313 0.950 . S
C1324 C1322 1.391 . S
C1324 C1325 1.400 . S
C1325 C1319 1.491 . S
C1325 C1324 1.400 . S
C1325 C1326 1.398 . S
C1326 H1314 0.950 . S
C1326 C1325 1.398 . S
C1326 C1327 1.391 . S
C1327 H1315 0.950 . S
C1327 C1323 1.393 . S
C1327 C1326 1.391 . S
C537 N13 1.748 . S
C543 N112 1.734 . S
C557 N79 1.736 . S
C563 N46 1.741 . S
C577 N244 1.743 . S
C583 N145 1.735 . S
C597 N178 1.734 . S
C603 N211 1.745 . S
C617 N277 1.743 . S
C623 N376 1.746 . S
C637 N310 1.735 . S
C643 N343 1.749 . S
C657 N508 1.738 . S
C663 N409 1.739 . S
C677 N442 1.734 . S
C683 N475 1.744 . S
C697 N200 1.561 . S
C703 N2 1.588 . S
C717 N233 1.581 . S
C723 N35 1.569 . S
C737 N134 1.570 . S
C743 N68 1.580 . S
C757 N167 1.561 . S
C763 N101 1.588 . S
C777 N464 1.566 . S
C783 N266 1.584 . S
C797 N497 1.564 . S
C803 N299 1.586 . S
C817 N398 1.570 . S
C823 N332 1.580 . S
C837 N365 1.562 . S
C843 N431 1.587 . S
C857 C7 1.540 . S
C863 C73 1.539 . S
C877 C40 1.551 . S
C883 C106 1.555 . S
C897 C139 1.538 . S
C903 C205 1.539 . S
C917 C172 1.543 . S
C923 C238 1.540 . S
C937 C271 1.554 . S
C943 C337 1.550 . S
C957 C304 1.558 . S
C963 C370 1.556 . S
C977 C403 1.558 . S
C983 C469 1.558 . S
C997 C436 1.538 . S
C1003 C502 1.538 . S
C1017 C513 1.121 . S
C1023 C21 1.122 . S
C1037 C54 1.120 . S
C1043 C480 1.120 . S
C1057 C87 1.113 . S
C1063 C447 1.103 . S
C1077 C414 1.111 . S
C1083 C120 1.121 . S
C1097 C381 1.118 . S
C1103 C153 1.118 . S
C1117 C186 1.123 . S
C1123 C348 1.119 . S
C1137 C219 1.123 . S
C1143 C315 1.119 . S
C1157 C252 1.113 . S
C1163 C282 1.111 . S
C1177 C285 1.111 . S
C1183 C249 1.104 . S
C1197 C216 1.114 . S
C1203 C318 1.122 . S
C1217 C183 1.120 . S
C1223 C351 1.123 . S
C1237 C384 1.111 . S
C1243 C150 1.107 . S
C1257 C417 1.118 . S
C1263 C117 1.119 . S
C1277 C84 1.113 . S
C1283 C450 1.114 . S
C1297 C51 1.111 . S
C1303 C483 1.120 . S
C1317 C18 1.115 . S
C1323 C516 1.115 . S
