# Generated by pormake.
# Topology uoz, (4)-cn, num edge types: 1
# Building blocks:
#     Node 0, Type 0, BuildingBlock: GALJAG_clean_sbu_0, # of connection points: 4
#     Node 1, Type 0, BuildingBlock: GALJAG_clean_sbu_0, # of connection points: 4
#     Node 2, Type 0, BuildingBlock: GALJAG_clean_sbu_0, # of connection points: 4
#     Node 3, Type 0, BuildingBlock: GALJAG_clean_sbu_0, # of connection points: 4
#     Node 4, Type 0, BuildingBlock: GALJAG_clean_sbu_0, # of connection points: 4
#     Node 5, Type 0, BuildingBlock: GALJAG_clean_sbu_0, # of connection points: 4
#     Node 6, Type 0, BuildingBlock: GALJAG_clean_sbu_0, # of connection points: 4
#     Node 7, Type 0, BuildingBlock: GALJAG_clean_sbu_0, # of connection points: 4
#     Node 8, Type 0, BuildingBlock: GALJAG_clean_sbu_0, # of connection points: 4
#     Node 9, Type 0, BuildingBlock: GALJAG_clean_sbu_0, # of connection points: 4
#     Node 10, Type 0, BuildingBlock: GALJAG_clean_sbu_0, # of connection points: 4
#     Node 11, Type 0, BuildingBlock: GALJAG_clean_sbu_0, # of connection points: 4
#     Node 12, Type 0, BuildingBlock: GALJAG_clean_sbu_0, # of connection points: 4
#     Node 13, Type 0, BuildingBlock: GALJAG_clean_sbu_0, # of connection points: 4
#     Node 14, Type 0, BuildingBlock: GALJAG_clean_sbu_0, # of connection points: 4
#     Node 15, Type 0, BuildingBlock: GALJAG_clean_sbu_0, # of connection points: 4
#     Edge 16, Type (0, 0), BuildingBlock: XIVTED_clean_linker_0, # of connection points: 2
#     Edge 17, Type (0, 0), BuildingBlock: XIVTED_clean_linker_0, # of connection points: 2
#     Edge 18, Type (0, 0), BuildingBlock: XIVTED_clean_linker_0, # of connection points: 2
#     Edge 19, Type (0, 0), BuildingBlock: XIVTED_clean_linker_0, # of connection points: 2
#     Edge 20, Type (0, 0), BuildingBlock: XIVTED_clean_linker_0, # of connection points: 2
#     Edge 21, Type (0, 0), BuildingBlock: XIVTED_clean_linker_0, # of connection points: 2
#     Edge 22, Type (0, 0), BuildingBlock: XIVTED_clean_linker_0, # of connection points: 2
#     Edge 23, Type (0, 0), BuildingBlock: XIVTED_clean_linker_0, # of connection points: 2
#     Edge 24, Type (0, 0), BuildingBlock: XIVTED_clean_linker_0, # of connection points: 2
#     Edge 25, Type (0, 0), BuildingBlock: XIVTED_clean_linker_0, # of connection points: 2
#     Edge 26, Type (0, 0), BuildingBlock: XIVTED_clean_linker_0, # of connection points: 2
#     Edge 27, Type (0, 0), BuildingBlock: XIVTED_clean_linker_0, # of connection points: 2
#     Edge 28, Type (0, 0), BuildingBlock: XIVTED_clean_linker_0, # of connection points: 2
#     Edge 29, Type (0, 0), BuildingBlock: XIVTED_clean_linker_0, # of connection points: 2
#     Edge 30, Type (0, 0), BuildingBlock: XIVTED_clean_linker_0, # of connection points: 2
#     Edge 31, Type (0, 0), BuildingBlock: XIVTED_clean_linker_0, # of connection points: 2
#     Edge 32, Type (0, 0), BuildingBlock: XIVTED_clean_linker_0, # of connection points: 2
#     Edge 33, Type (0, 0), BuildingBlock: XIVTED_clean_linker_0, # of connection points: 2
#     Edge 34, Type (0, 0), BuildingBlock: XIVTED_clean_linker_0, # of connection points: 2
#     Edge 35, Type (0, 0), BuildingBlock: XIVTED_clean_linker_0, # of connection points: 2
#     Edge 36, Type (0, 0), BuildingBlock: XIVTED_clean_linker_0, # of connection points: 2
#     Edge 37, Type (0, 0), BuildingBlock: XIVTED_clean_linker_0, # of connection points: 2
#     Edge 38, Type (0, 0), BuildingBlock: XIVTED_clean_linker_0, # of connection points: 2
#     Edge 39, Type (0, 0), BuildingBlock: XIVTED_clean_linker_0, # of connection points: 2
#     Edge 40, Type (0, 0), BuildingBlock: XIVTED_clean_linker_0, # of connection points: 2
#     Edge 41, Type (0, 0), BuildingBlock: XIVTED_clean_linker_0, # of connection points: 2
#     Edge 42, Type (0, 0), BuildingBlock: XIVTED_clean_linker_0, # of connection points: 2
#     Edge 43, Type (0, 0), BuildingBlock: XIVTED_clean_linker_0, # of connection points: 2
#     Edge 44, Type (0, 0), BuildingBlock: XIVTED_clean_linker_0, # of connection points: 2
#     Edge 45, Type (0, 0), BuildingBlock: XIVTED_clean_linker_0, # of connection points: 2
#     Edge 46, Type (0, 0), BuildingBlock: XIVTED_clean_linker_0, # of connection points: 2
#     Edge 47, Type (0, 0), BuildingBlock: XIVTED_clean_linker_0, # of connection points: 2
# Relax obj value: 0.135
# Max RMSD: 0.159
# Mean RMSD: 0.159
data_MOF--net-uoz--node1-GALJAG_clean_sbu_0--edge1-XIVTED_clean_linker_0
_symmetry_space_group_name_H-M    P1
_symmetry_Int_Tables_number       1
_symmetry_cell_setting            triclinic
loop_
_symmetry_equiv_pos_as_xyz
'x, y, z'
_cell_length_a     64.314309
_cell_length_b     64.309082
_cell_length_c     19.086917
_cell_angle_alpha  90.017512
_cell_angle_beta   90.017624
_cell_angle_gamma 89.99738
loop_
_atom_site_label
_atom_site_type_symbol
_atom_site_fract_x
_atom_site_fract_y
_atom_site_fract_z
_atom_type_partial_charge
In0 In 0.0083 0.59146 0.30631 0.0
O1 O 0.98855 0.56788 0.24875 0.0
O2 O 0.02138 0.56675 0.23452 0.0
C3 C 0.97913 0.6181 0.25979 0.0
C4 C 0.00657 0.56789 0.42384 0.0
C5 C 0.0415 0.61635 0.28768 0.0
O6 O 0.9906 0.60756 0.2198 0.0
O7 O 0.98232 0.61536 0.32462 0.0
O8 O 0.02884 0.61932 0.33749 0.0
O9 O 0.03793 0.6004 0.25142 0.0
C10 C 0.00385 0.55908 0.2201 0.0
O11 O 0.02324 0.57116 0.3909 0.0
O12 O 0.99129 0.57834 0.40205 0.0
In13 In 0.65524 0.74061 0.56451 0.0
O14 O 0.67569 0.72543 0.48273 0.0
O15 O 0.68134 0.75717 0.50772 0.0
C16 C 0.6289 0.70847 0.54905 0.0
C17 C 0.67844 0.74129 0.68338 0.0
C18 C 0.63032 0.77083 0.51523 0.0
O19 O 0.6478 0.70769 0.53183 0.0
O20 O 0.62346 0.72506 0.5796 0.0
O21 O 0.63207 0.76739 0.58038 0.0
O22 O 0.64107 0.75915 0.4765 0.0
C23 C 0.68643 0.74149 0.47207 0.0
O24 O 0.67195 0.75758 0.65398 0.0
O25 O 0.67126 0.72476 0.65757 0.0
In26 In 0.49282 0.40552 0.78814 0.0
O27 O 0.5102 0.43008 0.72687 0.0
O28 O 0.47712 0.42965 0.72031 0.0
C29 C 0.5229 0.37961 0.74284 0.0
C30 C 0.49369 0.42933 0.9053 0.0
C31 C 0.46028 0.38006 0.76628 0.0
O32 O 0.51213 0.39088 0.70294 0.0
O33 O 0.51867 0.38135 0.80741 0.0
O34 O 0.47251 0.37729 0.8175 0.0
O35 O 0.4641 0.3959 0.72973 0.0
C36 C 0.49393 0.43816 0.70204 0.0
O37 O 0.47704 0.42229 0.8797 0.0
O38 O 0.50993 0.42241 0.87665 0.0
In39 In 0.8396 0.23535 0.02925 0.0
O40 O 0.81649 0.25357 0.9643 0.0
O41 O 0.81743 0.2207 0.95139 0.0
C42 C 0.86551 0.26538 0.98418 0.0
C43 C 0.814 0.23665 0.1422 0.0
C44 C 0.86635 0.20327 0.02045 0.0
O45 O 0.85702 0.25234 0.94405 0.0
O46 O 0.86117 0.26325 0.04851 0.0
O47 O 0.86861 0.21737 0.06615 0.0
O48 O 0.85014 0.20487 0.98386 0.0
C49 C 0.80931 0.23775 0.93372 0.0
O50 O 0.81872 0.21996 0.11145 0.0
O51 O 0.82383 0.25235 0.12059 0.0
In52 In 0.98539 0.40889 0.79835 0.0
O53 O 0.00153 0.42263 0.70172 0.0
O54 O 0.97026 0.43126 0.72037 0.0
C55 C 0.01537 0.38312 0.84451 0.0
C56 C 0.98955 0.43959 0.89163 0.0
C57 C 0.95299 0.38249 0.80677 0.0
O58 O 0.01356 0.3877 0.78028 0.0
O59 O 0.00196 0.39121 0.88413 0.0
O60 O 0.9548 0.39858 0.84384 0.0
O61 O 0.96704 0.38019 0.76099 0.0
C62 C 0.98648 0.43412 0.68461 0.0
O63 O 0.97218 0.43145 0.87795 0.0
O64 O 0.00477 0.43216 0.85845 0.0
In65 In 0.83871 0.74113 0.05511 0.0
O66 O 0.81387 0.72445 0.11714 0.0
O67 O 0.81525 0.7575 0.12395 0.0
C68 C 0.8656 0.70976 0.07742 0.0
C69 C 0.81452 0.74208 0.93895 0.0
C70 C 0.86371 0.77232 0.09663 0.0
O71 O 0.84996 0.71329 0.11517 0.0
O72 O 0.8674 0.72159 0.02471 0.0
O73 O 0.86111 0.76816 0.03232 0.0
O74 O 0.85376 0.76087 0.13834 0.0
C75 C 0.80634 0.74093 0.1424 0.0
O76 O 0.82112 0.75831 0.96855 0.0
O77 O 0.82202 0.72544 0.96315 0.0
In78 In 0.49815 0.589 0.27914 0.0
O79 O 0.51302 0.56753 0.35841 0.0
O80 O 0.48051 0.56449 0.34025 0.0
C81 C 0.53114 0.61412 0.2973 0.0
C82 C 0.49667 0.56537 0.16124 0.0
C83 C 0.46888 0.61563 0.32479 0.0
O84 O 0.53078 0.59544 0.31706 0.0
O85 O 0.51532 0.6199 0.26301 0.0
O86 O 0.4729 0.61364 0.26011 0.0
O87 O 0.47942 0.60417 0.36486 0.0
C88 C 0.49635 0.55818 0.3728 0.0
O89 O 0.48062 0.57173 0.19229 0.0
O90 O 0.51336 0.57284 0.18491 0.0
In91 In 0.65637 0.25046 0.5221 0.0
O92 O 0.67051 0.23332 0.4284 0.0
O93 O 0.67456 0.26596 0.4332 0.0
C94 C 0.62999 0.22006 0.56095 0.0
C95 C 0.68988 0.24837 0.60399 0.0
C96 C 0.63148 0.28275 0.55491 0.0
O97 O 0.62965 0.22759 0.49965 0.0
O98 O 0.64374 0.22756 0.60055 0.0
O99 O 0.64584 0.27619 0.59384 0.0
O100 O 0.62999 0.27353 0.49648 0.0
C101 C 0.67929 0.24916 0.40308 0.0
O102 O 0.68199 0.26548 0.58548 0.0
O103 O 0.68072 0.23235 0.58158 0.0
In104 In 0.3398 0.24149 0.52306 0.0
O105 O 0.32728 0.25887 0.42721 0.0
O106 O 0.32253 0.22638 0.43118 0.0
C107 C 0.36518 0.27077 0.57587 0.0
C108 C 0.30661 0.24488 0.60651 0.0
C109 C 0.36513 0.2087 0.54262 0.0
O110 O 0.36349 0.26777 0.51052 0.0
O111 O 0.35414 0.25907 0.61363 0.0
O112 O 0.34653 0.2091 0.56317 0.0
O113 O 0.37069 0.22432 0.507 0.0
C114 C 0.31851 0.24325 0.40049 0.0
O115 O 0.31603 0.22791 0.59755 0.0
O116 O 0.31418 0.26022 0.57437 0.0
In117 In 0.15852 0.75815 0.04596 0.0
O118 O 0.17526 0.74062 0.95779 0.0
O119 O 0.17714 0.77346 0.9577 0.0
C120 C 0.13281 0.72839 0.09431 0.0
C121 C 0.18962 0.75715 0.13855 0.0
C122 C 0.13201 0.7903 0.05744 0.0
O123 O 0.13614 0.73064 0.02932 0.0
O124 O 0.14227 0.74105 0.13323 0.0
O125 O 0.14843 0.78854 0.09286 0.0
O126 O 0.12931 0.77625 0.0118 0.0
C127 C 0.18335 0.75663 0.93115 0.0
O128 O 0.18128 0.77391 0.11905 0.0
O129 O 0.18227 0.74089 0.11123 0.0
In130 In 0.15782 0.26377 0.03142 0.0
O131 O 0.1734 0.24709 0.12381 0.0
O132 O 0.18056 0.27888 0.10815 0.0
C133 C 0.13163 0.29637 0.02994 0.0
C134 C 0.18693 0.25999 0.93241 0.0
C135 C 0.13122 0.23437 0.98623 0.0
O136 O 0.12924 0.28148 0.07252 0.0
O137 O 0.14777 0.29525 0.99281 0.0
O138 O 0.13917 0.2479 0.94673 0.0
O139 O 0.13638 0.23575 0.05012 0.0
C140 C 0.18448 0.26241 0.14138 0.0
O141 O 0.18081 0.24483 0.96874 0.0
O142 O 0.17833 0.27714 0.94598 0.0
In143 In 0.34203 0.7502 0.554 0.0
O144 O 0.32495 0.73454 0.64502 0.0
O145 O 0.32649 0.76742 0.64496 0.0
C146 C 0.36669 0.71778 0.52123 0.0
C147 C 0.30865 0.75135 0.47141 0.0
C148 C 0.36846 0.78052 0.51456 0.0
O149 O 0.3684 0.72708 0.57948 0.0
O150 O 0.35234 0.72444 0.48244 0.0
O151 O 0.35483 0.7728 0.47504 0.0
O152 O 0.36865 0.77331 0.57632 0.0
C153 C 0.31889 0.75131 0.67252 0.0
O154 O 0.31757 0.76765 0.49266 0.0
O155 O 0.31667 0.73449 0.49167 0.0
In156 In 0.49874 0.0895 0.79388 0.0
O157 O 0.51639 0.07226 0.88088 0.0
O158 O 0.48359 0.07066 0.8821 0.0
C159 C 0.52772 0.11694 0.75167 0.0
C160 C 0.50132 0.06053 0.69371 0.0
C161 C 0.46521 0.11432 0.78341 0.0
O162 O 0.52362 0.11432 0.81604 0.0
O163 O 0.51738 0.10571 0.71027 0.0
O164 O 0.4654 0.09572 0.76262 0.0
O165 O 0.48153 0.12009 0.81485 0.0
C166 C 0.50042 0.06422 0.90783 0.0
O167 O 0.48488 0.0706 0.70542 0.0
O168 O 0.51652 0.06515 0.7324 0.0
In169 In 0.99033 0.91026 0.28124 0.0
O170 O 0.00744 0.92506 0.37415 0.0
O171 O 0.97541 0.9318 0.36223 0.0
C172 C 0.95684 0.88539 0.27151 0.0
C173 C 0.99503 0.94079 0.18776 0.0
C174 C 0.01884 0.8826 0.23699 0.0
O175 O 0.97024 0.88291 0.31945 0.0
O176 O 0.95988 0.90092 0.2327 0.0
O177 O 0.00637 0.89177 0.1966 0.0
O178 O 0.01696 0.88719 0.30121 0.0
C179 C 0.99207 0.93566 0.39447 0.0
O180 O 0.01021 0.93283 0.21975 0.0
O181 O 0.97748 0.93327 0.20279 0.0
In182 In 0.50496 0.90637 0.28655 0.0
O183 O 0.52136 0.92286 0.19579 0.0
O184 O 0.4885 0.92116 0.19272 0.0
C185 C 0.53659 0.88069 0.31896 0.0
C186 C 0.50417 0.94053 0.36557 0.0
C187 C 0.47398 0.88117 0.32909 0.0
O188 O 0.52666 0.87879 0.26197 0.0
O189 O 0.53104 0.89581 0.35644 0.0
O190 O 0.48273 0.89427 0.36823 0.0
O191 O 0.48051 0.8809 0.2665 0.0
C192 C 0.50481 0.92867 0.16623 0.0
O193 O 0.4878 0.93218 0.34239 0.0
O194 O 0.52089 0.93146 0.34952 0.0
In195 In 0.01234 0.0929 0.77375 0.0
O196 O 0.02605 0.06903 0.84785 0.0
O197 O 0.99342 0.0683 0.82899 0.0
C198 C 0.04421 0.11964 0.78832 0.0
C199 C 0.01182 0.06936 0.65603 0.0
C200 C 0.98208 0.11779 0.82331 0.0
O201 O 0.04222 0.10332 0.82409 0.0
O202 O 0.03067 0.12202 0.74085 0.0
O203 O 0.98431 0.1145 0.75831 0.0
O204 O 0.99513 0.10876 0.86202 0.0
C205 C 0.00882 0.06039 0.85989 0.0
O206 O 0.99628 0.07972 0.6762 0.0
O207 O 0.02815 0.0727 0.69078 0.0
H208 H 0.11818 0.72582 0.22773 0.0
H209 H 0.06753 0.61371 0.17585 0.0
H210 H 0.11723 0.6936 0.02943 0.0
H211 H 0.05123 0.65396 0.3483 0.0
H212 H 0.09014 0.64083 0.1295 0.0
H213 H 0.09729 0.69799 0.27908 0.0
C214 C 0.11353 0.71288 0.19492 0.0
C215 C 0.11941 0.712 0.12413 0.0
C216 C 0.08172 0.6437 0.17767 0.0
C217 C 0.09574 0.68001 0.18294 0.0
C218 C 0.06892 0.62817 0.20457 0.0
C219 C 0.05741 0.63162 0.26601 0.0
C220 C 0.08319 0.66281 0.21264 0.0
C221 C 0.05983 0.65067 0.30084 0.0
C222 C 0.1016 0.69703 0.22433 0.0
C223 C 0.11294 0.69491 0.0841 0.0
N224 N 0.07244 0.66562 0.27352 0.0
N225 N 0.10153 0.6795 0.1142 0.0
H226 H 0.55651 0.88096 0.44449 0.0
H227 H 0.62009 0.77633 0.37812 0.0
H228 H 0.55167 0.84579 0.25252 0.0
H229 H 0.60994 0.80237 0.58369 0.0
H230 H 0.59821 0.80353 0.32778 0.0
H231 H 0.57964 0.85448 0.49195 0.0
C232 C 0.56046 0.86773 0.41198 0.0
C233 C 0.55211 0.86555 0.34439 0.0
C234 C 0.60074 0.80328 0.38387 0.0
C235 C 0.57857 0.83509 0.39884 0.0
C236 C 0.61325 0.7878 0.41272 0.0
C237 C 0.61681 0.78711 0.48527 0.0
C238 C 0.59189 0.81836 0.42777 0.0
C239 C 0.60754 0.80232 0.52755 0.0
C240 C 0.57359 0.85256 0.43938 0.0
C241 C 0.55778 0.84807 0.30483 0.0
N242 N 0.59555 0.81739 0.4981 0.0
N243 N 0.57067 0.83346 0.3327 0.0
H244 H 0.43543 0.38241 0.65168 0.0
H245 H 0.37703 0.27473 0.7125 0.0
H246 H 0.44876 0.34334 0.83001 0.0
H247 H 0.38417 0.3033 0.50942 0.0
H248 H 0.39912 0.30185 0.7634 0.0
H249 H 0.41177 0.35599 0.60712 0.0
C250 C 0.43321 0.36834 0.68197 0.0
C251 C 0.44417 0.36501 0.74459 0.0
C252 C 0.39587 0.30213 0.70774 0.0
C253 C 0.41709 0.33463 0.69337 0.0
C254 C 0.38325 0.28672 0.67864 0.0
C255 C 0.37881 0.2868 0.6066 0.0
C256 C 0.4038 0.31789 0.66462 0.0
C257 C 0.38728 0.30264 0.56512 0.0
C258 C 0.41979 0.35321 0.65614 0.0
C259 C 0.44063 0.34649 0.78149 0.0
N260 N 0.39928 0.31764 0.59483 0.0
N261 N 0.42738 0.33191 0.75522 0.0
H262 H 0.90492 0.19791 0.08062 0.0
H263 H 0.94651 0.13105 0.75855 0.0
H264 H 0.86519 0.17462 0.91601 0.0
H265 H 0.97903 0.133 0.95621 0.0
H266 H 0.91774 0.15036 0.81193 0.0
H267 H 0.93342 0.17645 0.03437 0.0
C268 C 0.9021 0.18805 0.0356 0.0
C269 C 0.8827 0.18809 0.002 0.0
C270 C 0.93118 0.14653 0.8436 0.0
C271 C 0.91519 0.16407 0.94801 0.0
C272 C 0.94763 0.13567 0.813 0.0
C273 C 0.96511 0.13043 0.85306 0.0
C274 C 0.93238 0.15245 0.91443 0.0
C275 C 0.96576 0.1367 0.92356 0.0
C276 C 0.91836 0.17591 0.00905 0.0
C277 C 0.87991 0.17513 0.94352 0.0
N278 N 0.94966 0.14747 0.952 0.0
N279 N 0.89603 0.16386 0.91792 0.0
H280 H 0.05163 0.37197 0.77975 0.0
H281 H 0.09298 0.30044 0.09019 0.0
H282 H 0.018 0.36551 0.9741 0.0
H283 H 0.133 0.32712 0.93249 0.0
H284 H 0.06439 0.32233 0.04723 0.0
H285 H 0.08063 0.35257 0.83121 0.0
C286 C 0.05031 0.36633 0.83303 0.0
C287 C 0.03244 0.37031 0.87274 0.0
C288 C 0.07953 0.32353 0.02276 0.0
C289 C 0.06545 0.34822 0.93197 0.0
C290 C 0.09585 0.31116 0.0475 0.0
C291 C 0.11534 0.3119 0.01467 0.0
C292 C 0.08274 0.33643 0.9643 0.0
C293 C 0.1182 0.32597 0.95922 0.0
C294 C 0.06689 0.35542 0.86259 0.0
C295 C 0.03155 0.36278 0.94176 0.0
N296 N 0.10201 0.33746 0.93522 0.0
N297 N 0.0478 0.35199 0.96916 0.0
H298 H 0.94713 0.8492 0.34108 0.0
H299 H 0.88024 0.80493 0.02267 0.0
H300 H 0.93034 0.88604 0.16071 0.0
H301 H 0.87744 0.77827 0.22991 0.0
H302 H 0.90152 0.83339 0.06941 0.0
H303 H 0.92365 0.82169 0.29973 0.0
C304 C 0.9383 0.85162 0.29345 0.0
C305 C 0.9407 0.86989 0.25424 0.0
C306 C 0.89619 0.82131 0.1046 0.0
C307 C 0.91433 0.83845 0.20595 0.0
C308 C 0.88417 0.80504 0.07785 0.0
C309 C 0.87708 0.7893 0.12251 0.0
C310 C 0.90136 0.82161 0.17621 0.0
C311 C 0.88255 0.79018 0.19372 0.0
C312 C 0.92499 0.83591 0.26974 0.0
C313 C 0.92898 0.87219 0.19261 0.0
N314 N 0.89446 0.80601 0.21834 0.0
N315 N 0.91649 0.85657 0.16998 0.0
H316 H 0.39912 0.69933 0.59205 0.0
H317 H 0.4404 0.63905 0.25237 0.0
H318 H 0.36722 0.69947 0.39305 0.0
H319 H 0.46229 0.6258 0.4614 0.0
H320 H 0.41498 0.66336 0.30192 0.0
H321 H 0.42396 0.67397 0.54449 0.0
C322 C 0.39727 0.69392 0.53866 0.0
C323 C 0.38111 0.70148 0.49649 0.0
C324 C 0.42532 0.65508 0.33691 0.0
C325 C 0.40948 0.67284 0.44156 0.0
C326 C 0.43984 0.64127 0.30859 0.0
C327 C 0.4534 0.63039 0.35283 0.0
C328 C 0.42454 0.65816 0.40985 0.0
C329 C 0.45206 0.63383 0.42539 0.0
C330 C 0.41143 0.6795 0.5115 0.0
C331 C 0.37944 0.69404 0.42751 0.0
N332 N 0.43794 0.64747 0.45163 0.0
N333 N 0.39351 0.68025 0.40212 0.0
H334 H 0.59948 0.19955 0.48747 0.0
H335 H 0.5548 0.14129 0.82706 0.0
H336 H 0.62661 0.20497 0.69352 0.0
H337 H 0.53543 0.12711 0.61586 0.0
H338 H 0.57997 0.1663 0.77999 0.0
H339 H 0.57451 0.17427 0.53423 0.0
C340 C 0.60021 0.19537 0.54239 0.0
C341 C 0.61512 0.20432 0.58662 0.0
C342 C 0.57021 0.15767 0.744 0.0
C343 C 0.58663 0.17565 0.64058 0.0
C344 C 0.55585 0.14344 0.77089 0.0
C345 C 0.54306 0.13211 0.72532 0.0
C346 C 0.57165 0.16065 0.67112 0.0
C347 C 0.54504 0.13549 0.65292 0.0
C348 C 0.58599 0.18097 0.5691 0.0
C349 C 0.61538 0.19841 0.65747 0.0
N350 N 0.55901 0.14948 0.62809 0.0
N351 N 0.60132 0.18451 0.68227 0.0
H352 H 0.92383 0.38387 0.90969 0.0
H353 H 0.88269 0.26813 0.85411 0.0
H354 H 0.94746 0.34407 0.74591 0.0
H355 H 0.87784 0.30115 0.05023 0.0
H356 H 0.90269 0.29711 0.80558 0.0
H357 H 0.90226 0.35534 0.95171 0.0
C358 C 0.92426 0.3692 0.88184 0.0
C359 C 0.93755 0.36631 0.82431 0.0
C360 C 0.89731 0.29797 0.85926 0.0
C361 C 0.91297 0.3335 0.8728 0.0
C362 C 0.88591 0.28147 0.88704 0.0
C363 C 0.87865 0.28227 0.95637 0.0
C364 C 0.90119 0.31554 0.90076 0.0
C365 C 0.88325 0.29988 0.9967 0.0
C366 C 0.91205 0.35287 0.90632 0.0
C367 C 0.93744 0.34695 0.79041 0.0
N368 N 0.89412 0.3159 0.96812 0.0
N369 N 0.92537 0.33121 0.81535 0.0
H370 H 0.46788 0.15657 0.77109 0.0
H371 H 0.35623 0.17044 0.59591 0.0
H372 H 0.42613 0.10498 0.73811 0.0
H373 H 0.4073 0.21223 0.55561 0.0
H374 H 0.37989 0.14759 0.66049 0.0
H375 H 0.44342 0.17928 0.7089 0.0
C376 C 0.45334 0.15014 0.75224 0.0
C377 C 0.44896 0.1289 0.75976 0.0
C378 C 0.38596 0.16165 0.63686 0.0
C379 C 0.4212 0.15462 0.6879 0.0
C380 C 0.37251 0.1746 0.59966 0.0
C381 C 0.37989 0.19314 0.56998 0.0
C382 C 0.40681 0.1675 0.64566 0.0
C383 C 0.40106 0.19794 0.57699 0.0
C384 C 0.43956 0.16302 0.71593 0.0
C385 C 0.43007 0.12129 0.73341 0.0
N386 N 0.41377 0.18531 0.61487 0.0
N387 N 0.41687 0.13413 0.69854 0.0
H388 H 0.52842 0.65644 0.30898 0.0
H389 H 0.63701 0.66889 0.50669 0.0
H390 H 0.56918 0.60465 0.35101 0.0
H391 H 0.58721 0.71343 0.52658 0.0
H392 H 0.61375 0.64599 0.44093 0.0
H393 H 0.55192 0.67912 0.37543 0.0
C394 C 0.54254 0.64995 0.33084 0.0
C395 C 0.54693 0.62868 0.32443 0.0
C396 C 0.60783 0.66066 0.46039 0.0
C397 C 0.57358 0.65434 0.40125 0.0
C398 C 0.62104 0.67365 0.49831 0.0
C399 C 0.61395 0.693 0.5224 0.0
C400 C 0.5875 0.66723 0.44528 0.0
C401 C 0.5932 0.69853 0.50956 0.0
C402 C 0.55577 0.66282 0.36955 0.0
C403 C 0.56526 0.62099 0.35469 0.0
N404 N 0.58074 0.6858 0.47106 0.0
N405 N 0.57791 0.6338 0.39187 0.0
H406 H 0.13448 0.81939 0.16023 0.0
H407 H 0.02036 0.86474 0.10774 0.0
H408 H 0.09326 0.79639 -0.00066 0.0
H409 H 0.05398 0.86856 0.30297 0.0
H410 H 0.04818 0.84311 0.05934 0.0
H411 H 0.10675 0.84177 0.20332 0.0
C412 C 0.11965 0.81924 0.1333 0.0
C413 C 0.11614 0.80593 0.07617 0.0
C414 C 0.04941 0.84861 0.11283 0.0
C415 C 0.08425 0.83148 0.12587 0.0
C416 C 0.03357 0.86094 0.14052 0.0
C417 C 0.03491 0.86842 0.20951 0.0
C418 C 0.06685 0.84402 0.15405 0.0
C419 C 0.05232 0.86303 0.24968 0.0
C420 C 0.10378 0.83191 0.15839 0.0
C421 C 0.09661 0.80642 0.04348 0.0
N422 N 0.06771 0.85127 0.22115 0.0
N423 N 0.08132 0.81898 0.06894 0.0
H424 H 0.97461 0.63139 0.12517 0.0
H425 H 0.86533 0.68588 0.19465 0.0
H426 H 0.94661 0.63611 0.32999 0.0
H427 H 0.90226 0.69933 0.01136 0.0
H428 H 0.89307 0.66365 0.23851 0.0
H429 H 0.94669 0.65299 0.07736 0.0
C430 C 0.9626 0.63704 0.16013 0.0
C431 C 0.96288 0.63198 0.2317 0.0
C432 C 0.8951 0.6714 0.1886 0.0
C433 C 0.93084 0.65643 0.17709 0.0
C434 C 0.87922 0.68399 0.16317 0.0
C435 C 0.88152 0.69453 0.09922 0.0
C436 C 0.91343 0.66912 0.14966 0.0
C437 C 0.89986 0.69148 0.06086 0.0
C438 C 0.94671 0.64937 0.13276 0.0
C439 C 0.94699 0.63971 0.2746 0.0
N440 N 0.91518 0.67903 0.08674 0.0
N441 N 0.93152 0.65145 0.24651 0.0
H442 H 0.05028 0.15815 0.72905 0.0
H443 H 0.11898 0.19833 0.0507 0.0
H444 H 0.07179 0.11838 0.89617 0.0
H445 H 0.11361 0.23234 0.85668 0.0
H446 H 0.09896 0.16986 -0.00159 0.0
H447 H 0.07169 0.18643 0.77664 0.0
C448 C 0.05973 0.15528 0.77502 0.0
C449 C 0.05924 0.13592 0.80874 0.0
C450 C 0.10217 0.18357 0.96732 0.0
C451 C 0.08328 0.16819 0.86423 0.0
C452 C 0.11344 0.19986 0.99735 0.0
C453 C 0.11794 0.21766 0.95792 0.0
C454 C 0.09518 0.18523 0.8977 0.0
C455 C 0.11051 0.21882 0.88883 0.0
C456 C 0.07185 0.17142 0.80236 0.0
C457 C 0.07167 0.13307 0.86848 0.0
N458 N 0.09945 0.20285 0.86093 0.0
N459 N 0.08301 0.14907 0.89468 0.0
H460 H 0.63069 0.30131 0.68288 0.0
H461 H 0.52983 0.36988 0.60617 0.0
H462 H 0.59826 0.30002 0.48492 0.0
H463 H 0.55276 0.35763 0.81462 0.0
H464 H 0.55677 0.34723 0.5584 0.0
H465 H 0.60456 0.32516 0.72871 0.0
C466 C 0.61815 0.30619 0.64875 0.0
C467 C 0.61662 0.29863 0.5799 0.0
C468 C 0.55591 0.34945 0.61457 0.0
C469 C 0.58657 0.32592 0.63244 0.0
C470 C 0.54056 0.36241 0.64197 0.0
C471 C 0.53906 0.36562 0.71458 0.0
C472 C 0.57004 0.33977 0.65997 0.0
C473 C 0.55334 0.35553 0.75838 0.0
C474 C 0.60317 0.31973 0.6752 0.0
C475 C 0.60002 0.30547 0.53825 0.0
N476 N 0.56831 0.3431 0.73034 0.0
N477 N 0.5856 0.31875 0.56522 0.0
H478 H 0.37313 0.79357 0.3801 0.0
H479 H 0.46228 0.876 0.46493 0.0
H480 H 0.39793 0.80266 0.588 0.0
H481 H 0.4493 0.8538 0.25605 0.0
H482 H 0.43638 0.85191 0.51121 0.0
H483 H 0.39846 0.81829 0.33449 0.0
C484 C 0.38388 0.80084 0.41631 0.0
C485 C 0.38344 0.79605 0.48807 0.0
C486 C 0.43919 0.85229 0.45529 0.0
C487 C 0.4125 0.82443 0.43591 0.0
C488 C 0.45391 0.86609 0.4287 0.0
C489 C 0.45793 0.86689 0.35643 0.0
C490 C 0.42822 0.83931 0.40927 0.0
C491 C 0.44668 0.85366 0.31207 0.0
C492 C 0.39839 0.8149 0.39007 0.0
C493 C 0.39776 0.80591 0.53237 0.0
N494 N 0.43227 0.84043 0.33921 0.0
N495 N 0.41171 0.81971 0.50556 0.0
H496 H 0.96792 0.53946 0.18336 0.0
H497 H 0.02537 0.45894 0.93027 0.0
H498 H 0.03435 0.53809 0.15101 0.0
H499 H 0.95912 0.45886 0.9669 0.0
H500 H 0.02897 0.4878 0.01221 0.0
H501 H 0.96431 0.50971 0.10485 0.0
C502 C 0.98173 0.53287 0.15967 0.0
C503 C 0.00145 0.54119 0.17333 0.0
C504 C 0.01365 0.48146 0.00247 0.0
C505 C 0.99748 0.50729 0.08388 0.0
C506 C 0.01159 0.465 0.95575 0.0
C507 C 0.99191 0.45662 0.94192 0.0
C508 C 0.99589 0.48955 0.03535 0.0
C509 C 0.97456 0.46496 0.97622 0.0
C510 C 0.97968 0.5159 0.11499 0.0
C511 C 0.01886 0.53211 0.14162 0.0
N512 N 0.97695 0.48105 0.02139 0.0
N513 N 0.01646 0.51562 0.09817 0.0
H514 H 0.78352 0.70751 0.1842 0.0
H515 H 0.71069 0.77456 0.43659 0.0
H516 H 0.78863 0.77409 0.20801 0.0
H517 H 0.70133 0.70924 0.39461 0.0
H518 H 0.73985 0.77461 0.35478 0.0
H519 H 0.7538 0.70768 0.26362 0.0
C520 C 0.77835 0.72216 0.20622 0.0
C521 C 0.78847 0.74082 0.18985 0.0
C522 C 0.73138 0.76028 0.36333 0.0
C523 C 0.75463 0.74114 0.28036 0.0
C524 C 0.71478 0.76025 0.40998 0.0
C525 C 0.7037 0.74186 0.42217 0.0
C526 C 0.73691 0.74177 0.32906 0.0
C527 C 0.70954 0.72374 0.38653 0.0
C528 C 0.7614 0.72225 0.25138 0.0
C529 C 0.78121 0.75937 0.21948 0.0
N530 N 0.72583 0.72414 0.34157 0.0
N531 N 0.76471 0.75906 0.26356 0.0
H532 H 0.46228 0.53621 0.41417 0.0
H533 H 0.52797 0.45981 0.65885 0.0
H534 H 0.52858 0.54131 0.44554 0.0
H535 H 0.46114 0.4573 0.63896 0.0
H536 H 0.52853 0.48967 0.58004 0.0
H537 H 0.46149 0.50714 0.49635 0.0
C538 C 0.47665 0.53121 0.43855 0.0
C539 C 0.49553 0.54106 0.42321 0.0
C540 C 0.51374 0.48262 0.593 0.0
C541 C 0.49478 0.50794 0.51672 0.0
C542 C 0.51342 0.46558 0.63784 0.0
C543 C 0.49448 0.45615 0.6551 0.0
C544 C 0.49498 0.49016 0.56528 0.0
C545 C 0.47607 0.46418 0.62676 0.0
C546 C 0.4762 0.51465 0.48539 0.0
C547 C 0.51371 0.53407 0.45605 0.0
N548 N 0.47678 0.48075 0.583 0.0
N549 N 0.51289 0.51786 0.50126 0.0
H550 H 0.79087 0.20589 0.86304 0.0
H551 H 0.71163 0.28052 0.66121 0.0
H552 H 0.78997 0.27267 0.88637 0.0
H553 H 0.70985 0.2135 0.64878 0.0
H554 H 0.74179 0.27809 0.73844 0.0
H555 H 0.76248 0.20847 0.77862 0.0
C556 C 0.7847 0.22109 0.8502 0.0
C557 C 0.79263 0.23909 0.88171 0.0
C558 C 0.73482 0.26392 0.71872 0.0
C559 C 0.76027 0.24218 0.78563 0.0
C560 C 0.71764 0.2653 0.6747 0.0
C561 C 0.70826 0.24718 0.64908 0.0
C562 C 0.74261 0.24426 0.73703 0.0
C563 C 0.71663 0.22785 0.66778 0.0
C564 C 0.76851 0.22256 0.80211 0.0
C565 C 0.78419 0.25841 0.8633 0.0
N566 N 0.73335 0.22689 0.71088 0.0
N567 N 0.76839 0.25945 0.81645 0.0
H568 H 0.20335 0.29034 0.84938 0.0
H569 H 0.287 0.21392 0.67781 0.0
H570 H 0.20734 0.22469 0.89483 0.0
H571 H 0.2842 0.2798 0.63524 0.0
H572 H 0.25644 0.21726 0.75258 0.0
H573 H 0.23162 0.28649 0.76492 0.0
C574 C 0.21014 0.27511 0.84129 0.0
C575 C 0.20319 0.25782 0.87923 0.0
C576 C 0.26248 0.23098 0.7268 0.0
C577 C 0.2354 0.25331 0.78333 0.0
C578 C 0.27992 0.22908 0.68428 0.0
C579 C 0.28813 0.24664 0.65091 0.0
C580 C 0.25327 0.25059 0.73598 0.0
C581 C 0.27835 0.2659 0.66048 0.0
C582 C 0.22625 0.27292 0.7932 0.0
C583 C 0.21238 0.23843 0.86679 0.0
N584 N 0.26143 0.26739 0.70246 0.0
N585 N 0.22811 0.23671 0.82001 0.0
H586 H 0.28747 0.71845 0.41697 0.0
H587 H 0.20825 0.79003 0.20303 0.0
H588 H 0.2886 0.78557 0.42141 0.0
H589 H 0.20942 0.723 0.18997 0.0
H590 H 0.23676 0.78871 0.28733 0.0
H591 H 0.25772 0.71977 0.33779 0.0
C592 C 0.2814 0.73346 0.40132 0.0
C593 C 0.29046 0.75194 0.42532 0.0
C594 C 0.23077 0.77429 0.26607 0.0
C595 C 0.25658 0.75358 0.33505 0.0
C596 C 0.21453 0.77504 0.21803 0.0
C597 C 0.2066 0.75659 0.1896 0.0
C598 C 0.23906 0.75495 0.28563 0.0
C599 C 0.21518 0.73758 0.21068 0.0
C600 C 0.26445 0.73421 0.35616 0.0
C601 C 0.28204 0.77098 0.40378 0.0
N602 N 0.23101 0.73725 0.2575 0.0
N603 N 0.26555 0.77131 0.35961 0.0
H604 H 0.47049 0.96398 0.40079 0.0
H605 H 0.53529 0.03792 0.65551 0.0
H606 H 0.53701 0.9598 0.42793 0.0
H607 H 0.47005 0.04639 0.61025 0.0
H608 H 0.53645 0.00971 0.57 0.0
H609 H 0.47011 0.99474 0.4757 0.0
C610 C 0.48501 0.96959 0.42247 0.0
C611 C 0.50379 0.95935 0.40876 0.0
C612 C 0.52191 0.01782 0.57847 0.0
C613 C 0.50351 0.99437 0.49419 0.0
C614 C 0.52124 0.03387 0.62726 0.0
C615 C 0.50251 0.04432 0.64002 0.0
C616 C 0.50369 0.01216 0.54273 0.0
C617 C 0.48478 0.03861 0.60201 0.0
C618 C 0.48481 0.98715 0.46501 0.0
C619 C 0.52219 0.96725 0.43761 0.0
N620 N 0.48577 0.02279 0.55524 0.0
N621 N 0.52158 0.98428 0.47939 0.0
H622 H 0.97344 0.03933 0.8922 0.0
H623 H 0.03101 0.95997 0.14913 0.0
H624 H 0.03948 0.04062 0.9327 0.0
H625 H 0.96477 0.96006 0.11211 0.0
H626 H 0.0347 0.98882 0.06693 0.0
H627 H 0.97017 0.00948 0.97008 0.0
C628 C 0.98725 0.0333 0.91757 0.0
C629 C 0.00675 0.0424 0.90639 0.0
C630 C 0.01937 0.9825 0.07671 0.0
C631 C 0.00316 0.00836 0.99528 0.0
C632 C 0.01726 0.96606 0.1235 0.0
C633 C 0.99755 0.95775 0.13732 0.0
C634 C 0.00163 0.99061 0.04373 0.0
C635 C 0.98024 0.9661 0.10289 0.0
C636 C 0.98538 0.01627 0.96195 0.0
C637 C 0.02416 0.03402 0.94021 0.0
N638 N 0.98268 0.98214 0.05765 0.0
N639 N 0.02195 0.01743 0.98336 0.0
H640 H 0.02151 0.44691 0.61529 0.0
H641 H 0.97125 0.55501 0.49126 0.0
H642 H 0.95735 0.46347 0.65053 0.0
H643 H 0.03592 0.53932 0.46289 0.0
H644 H 0.96595 0.52185 0.55149 0.0
H645 H 0.02682 0.48025 0.55618 0.0
C646 C 0.00844 0.45739 0.60949 0.0
C647 C 0.98894 0.45235 0.63778 0.0
C648 C 0.98135 0.52573 0.53269 0.0
C649 C 0.99503 0.4908 0.5715 0.0
C650 C 0.98443 0.54477 0.49887 0.0
C651 C 0.00407 0.54999 0.47208 0.0
C652 C 0.99801 0.51172 0.53952 0.0
C653 C 0.02053 0.53599 0.48292 0.0
C654 C 0.01153 0.47653 0.57634 0.0
C655 C 0.97263 0.46666 0.6293 0.0
N656 N 0.0171 0.51746 0.51529 0.0
N657 N 0.97607 0.48525 0.59731 0.0
H658 H 0.79348 0.77589 0.88822 0.0
H659 H 0.69863 0.70783 0.7402 0.0
H660 H 0.79293 0.70881 0.88666 0.0
H661 H 0.70032 0.77485 0.73223 0.0
H662 H 0.73246 0.70797 0.7987 0.0
H663 H 0.75948 0.7759 0.83069 0.0
C664 C 0.78639 0.76115 0.87458 0.0
C665 C 0.79612 0.74231 0.89214 0.0
C666 C 0.72536 0.72266 0.78475 0.0
C667 C 0.75689 0.7422 0.82779 0.0
C668 C 0.70592 0.7226 0.752 0.0
C669 C 0.69658 0.74136 0.73133 0.0
C670 C 0.73563 0.74162 0.79689 0.0
C671 C 0.70688 0.76002 0.74744 0.0
C672 C 0.76687 0.76117 0.84233 0.0
C673 C 0.78607 0.7237 0.87379 0.0
N674 N 0.72589 0.75967 0.7788 0.0
N675 N 0.76697 0.72412 0.84312 0.0
H676 H 0.52972 0.54521 0.10139 0.0
H677 H 0.46052 0.44988 0.96279 0.0
H678 H 0.46282 0.54331 0.11606 0.0
H679 H 0.5275 0.45128 0.95156 0.0
H680 H 0.46106 0.48382 0.02065 0.0
H681 H 0.52916 0.51135 0.04293 0.0
C682 C 0.51488 0.53787 0.09109 0.0
C683 C 0.49629 0.54716 0.1136 0.0
C684 C 0.47566 0.47663 0.00613 0.0
C685 C 0.49554 0.50809 0.04814 0.0
C686 C 0.47537 0.45713 0.97371 0.0
C687 C 0.494 0.44766 0.95243 0.0
C688 C 0.49472 0.48683 0.01718 0.0
C689 C 0.51277 0.45793 0.96733 0.0
C690 C 0.51457 0.51841 0.05835 0.0
C691 C 0.47752 0.53679 0.09942 0.0
N692 N 0.51264 0.477 -0.00169 0.0
N693 N 0.47764 0.51778 0.06807 0.0
H694 H 0.79784 0.27172 0.20284 0.0
H695 H 0.69507 0.21414 0.34113 0.0
H696 H 0.7875 0.20568 0.18364 0.0
H697 H 0.70496 0.28032 0.35736 0.0
H698 H 0.72841 0.21086 0.28047 0.0
H699 H 0.76418 0.2751 0.26146 0.0
C700 C 0.78865 0.25787 0.21203 0.0
C701 C 0.79555 0.23838 0.18844 0.0
C702 C 0.72321 0.22613 0.29668 0.0
C703 C 0.75672 0.24219 0.2542 0.0
C704 C 0.70406 0.22805 0.33073 0.0
C705 C 0.69716 0.24754 0.35429 0.0
C706 C 0.73566 0.24383 0.2863 0.0
C707 C 0.70959 0.26499 0.33989 0.0
C708 C 0.76933 0.25984 0.24492 0.0
C709 C 0.78286 0.22101 0.2012 0.0
N710 N 0.72828 0.2627 0.30735 0.0
N711 N 0.76405 0.22334 0.23283 0.0
H712 H 0.29305 0.21254 0.35037 0.0
H713 H 0.21206 0.29273 0.17988 0.0
H714 H 0.30349 0.27873 0.33947 0.0
H715 H 0.20021 0.227 0.2011 0.0
H716 H 0.24583 0.28787 0.23638 0.0
H717 H 0.26002 0.21724 0.28887 0.0
C718 C 0.28862 0.22802 0.33371 0.0
C719 C 0.30108 0.24527 0.35017 0.0
C720 C 0.2358 0.27452 0.22919 0.0
C721 C 0.26298 0.25084 0.28117 0.0
C722 C 0.21641 0.27732 0.19748 0.0
C723 C 0.20322 0.26026 0.186 0.0
C724 C 0.24215 0.25449 0.24935 0.0
C725 C 0.2098 0.24062 0.20928 0.0
C726 C 0.26962 0.23072 0.29926 0.0
C727 C 0.29442 0.26498 0.32778 0.0
N728 N 0.22883 0.23826 0.23947 0.0
N729 N 0.27577 0.26724 0.29497 0.0
H730 H 0.29995 0.7858 0.72736 0.0
H731 H 0.20269 0.72196 0.87901 0.0
H732 H 0.29591 0.71884 0.7239 0.0
H733 H 0.20662 0.78892 0.88037 0.0
H734 H 0.23653 0.72047 0.82063 0.0
H735 H 0.26631 0.78718 0.78684 0.0
C736 C 0.29219 0.77136 0.74033 0.0
C737 C 0.30082 0.75217 0.7207 0.0
C738 C 0.22993 0.7355 0.83315 0.0
C739 C 0.26197 0.75365 0.78739 0.0
C740 C 0.21049 0.73637 0.86589 0.0
C741 C 0.20176 0.7556 0.88448 0.0
C742 C 0.24079 0.754 0.81906 0.0
C743 C 0.2127 0.77375 0.86677 0.0
C744 C 0.27285 0.77217 0.77369 0.0
C745 C 0.28991 0.73398 0.73829 0.0
N746 N 0.23167 0.7725 0.8355 0.0
N747 N 0.27101 0.73518 0.77015 0.0
H748 H 0.47069 0.94726 0.10775 0.0
H749 H 0.53508 0.04449 0.95857 0.0
H750 H 0.53759 0.95155 0.11654 0.0
H751 H 0.46809 0.04101 0.95847 0.0
H752 H 0.53644 0.01052 0.01618 0.0
H753 H 0.46961 0.98082 0.04769 0.0
C754 C 0.4852 0.95506 0.09578 0.0
C755 C 0.50426 0.94654 0.11719 0.0
C756 C 0.52143 0.01725 0.00409 0.0
C757 C 0.50312 0.98529 0.04983 0.0
C758 C 0.52064 0.03676 0.9718 0.0
C759 C 0.50143 0.04567 0.95385 0.0
C760 C 0.50289 0.00649 0.01832 0.0
C761 C 0.48324 0.0348 0.97161 0.0
C762 C 0.48456 0.97435 0.06212 0.0
C763 C 0.52254 0.95747 0.10079 0.0
N764 N 0.48442 0.01576 0.00242 0.0
N765 N 0.5215 0.97633 0.06859 0.0
H766 H 0.04225 0.04224 0.61472 0.0
H767 H 0.9619 0.96306 0.43549 0.0
H768 H 0.97679 0.05499 0.59026 0.0
H769 H 0.02755 0.95068 0.45596 0.0
H770 H 0.96696 0.99645 0.4943 0.0
H771 H 0.0374 0.00908 0.55412 0.0
C772 C 0.02692 0.03826 0.5954 0.0
C773 C 0.00991 0.05146 0.60752 0.0
C774 C 0.98025 0.98638 0.48645 0.0
C775 C 0.00413 0.01322 0.5395 0.0
C776 C 0.97733 0.9672 0.45345 0.0
C777 C 0.99432 0.954 0.44092 0.0
C778 C 0.00032 0.9925 0.50703 0.0
C779 C 0.01399 0.9603 0.46481 0.0
C780 C 0.02412 0.0192 0.56138 0.0
C781 C 0.99037 0.04536 0.58185 0.0
N782 N 0.01647 0.97913 0.49633 0.0
N783 N 0.98799 0.02664 0.54956 0.0
loop_
_geom_bond_atom_site_label_1
_geom_bond_atom_site_label_2
_geom_bond_distance
_geom_bond_site_symmetry_2
_ccdc_geom_bond_type
In0 O1 2.294 1_455 S
In0 O2 2.326 . S
In0 O6 2.266 1_455 S
In0 O7 2.326 1_455 S
In0 O8 2.266 . S
In0 O9 2.326 . S
In0 O11 2.294 . S
In0 O12 2.326 1_455 S
O1 In0 2.294 1_655 S
O1 C10 1.240 1_655 S
O2 In0 2.326 . S
O2 C10 1.252 . S
C3 O6 1.252 . S
C3 O7 1.260 . S
C4 O11 1.240 1_655 S
C4 O12 1.252 . S
C5 O8 1.252 . S
C5 O9 1.260 . S
O6 In0 2.266 1_655 S
O6 C3 1.252 . S
O7 In0 2.326 1_655 S
O7 C3 1.260 . S
O8 In0 2.266 . S
O8 C5 1.252 . S
O9 In0 2.326 . S
O9 C5 1.260 . S
C10 O1 1.240 1_455 S
C10 O2 1.252 . S
O11 In0 2.294 . S
O11 C4 1.240 1_455 S
O12 In0 2.326 1_655 S
O12 C4 1.252 . S
In13 O14 2.294 . S
In13 O15 2.326 . S
In13 O19 2.266 . S
In13 O20 2.326 . S
In13 O21 2.266 . S
In13 O22 2.326 . S
In13 O24 2.294 . S
In13 O25 2.326 . S
O14 In13 2.294 . S
O14 C23 1.240 . S
O15 In13 2.326 . S
O15 C23 1.252 . S
C16 O19 1.252 . S
C16 O20 1.260 . S
C17 O24 1.240 . S
C17 O25 1.252 . S
C18 O21 1.252 . S
C18 O22 1.260 . S
O19 In13 2.266 . S
O19 C16 1.252 . S
O20 In13 2.326 . S
O20 C16 1.260 . S
O21 In13 2.266 . S
O21 C18 1.252 . S
O22 In13 2.326 . S
O22 C18 1.260 . S
C23 O14 1.240 . S
C23 O15 1.252 . S
O24 In13 2.294 . S
O24 C17 1.240 . S
O25 In13 2.326 . S
O25 C17 1.252 . S
In26 O27 2.294 . S
In26 O28 2.326 . S
In26 O32 2.266 . S
In26 O33 2.326 . S
In26 O34 2.266 . S
In26 O35 2.326 . S
In26 O37 2.294 . S
In26 O38 2.326 . S
O27 In26 2.294 . S
O27 C36 1.240 . S
O28 In26 2.326 . S
O28 C36 1.252 . S
C29 O32 1.252 . S
C29 O33 1.260 . S
C30 O37 1.240 . S
C30 O38 1.252 . S
C31 O34 1.252 . S
C31 O35 1.260 . S
O32 In26 2.266 . S
O32 C29 1.252 . S
O33 In26 2.326 . S
O33 C29 1.260 . S
O34 In26 2.266 . S
O34 C31 1.252 . S
O35 In26 2.326 . S
O35 C31 1.260 . S
C36 O27 1.240 . S
C36 O28 1.252 . S
O37 In26 2.294 . S
O37 C30 1.240 . S
O38 In26 2.326 . S
O38 C30 1.252 . S
In39 O40 2.293 1_554 S
In39 O41 2.326 1_554 S
In39 O45 2.266 1_554 S
In39 O46 2.326 . S
In39 O47 2.266 . S
In39 O48 2.325 1_554 S
In39 O50 2.295 . S
In39 O51 2.327 . S
O40 In39 2.293 1_556 S
O40 C49 1.240 . S
O41 In39 2.326 1_556 S
O41 C49 1.252 . S
C42 O45 1.252 1_554 S
C42 O46 1.260 . S
C43 O50 1.240 . S
C43 O51 1.252 . S
C44 O47 1.252 1_556 S
C44 O48 1.260 . S
O45 In39 2.266 1_556 S
O45 C42 1.252 1_556 S
O46 In39 2.326 . S
O46 C42 1.260 . S
O47 In39 2.266 . S
O47 C44 1.252 1_554 S
O48 In39 2.325 1_556 S
O48 C44 1.260 . S
C49 O40 1.240 . S
C49 O41 1.252 . S
O50 In39 2.295 . S
O50 C43 1.240 . S
O51 In39 2.327 . S
O51 C43 1.252 . S
In52 O53 2.294 . S
In52 O54 2.326 1_455 S
In52 O58 2.266 . S
In52 O59 2.326 . S
In52 O60 2.266 1_455 S
In52 O61 2.326 1_455 S
In52 O63 2.294 1_455 S
In52 O64 2.326 . S
O53 In52 2.294 . S
O53 C62 1.240 1_455 S
O54 In52 2.326 1_655 S
O54 C62 1.252 . S
C55 O58 1.252 . S
C55 O59 1.260 . S
C56 O63 1.240 1_455 S
C56 O64 1.252 . S
C57 O60 1.252 . S
C57 O61 1.260 . S
O58 In52 2.266 . S
O58 C55 1.252 . S
O59 In52 2.326 . S
O59 C55 1.260 . S
O60 In52 2.266 1_655 S
O60 C57 1.252 . S
O61 In52 2.326 1_655 S
O61 C57 1.260 . S
C62 O53 1.240 1_655 S
C62 O54 1.252 . S
O63 In52 2.294 1_655 S
O63 C56 1.240 1_655 S
O64 In52 2.326 . S
O64 C56 1.252 . S
In65 O66 2.294 . S
In65 O67 2.326 . S
In65 O71 2.266 . S
In65 O72 2.326 . S
In65 O73 2.266 . S
In65 O74 2.326 . S
In65 O76 2.294 1_554 S
In65 O77 2.326 . S
O66 In65 2.294 . S
O66 C75 1.240 . S
O67 In65 2.326 . S
O67 C75 1.252 . S
C68 O71 1.252 . S
C68 O72 1.260 . S
C69 O76 1.240 . S
C69 O77 1.252 1_556 S
C70 O73 1.252 . S
C70 O74 1.260 . S
O71 In65 2.266 . S
O71 C68 1.252 . S
O72 In65 2.326 . S
O72 C68 1.260 . S
O73 In65 2.266 . S
O73 C70 1.252 . S
O74 In65 2.326 . S
O74 C70 1.260 . S
C75 O66 1.240 . S
C75 O67 1.252 . S
O76 In65 2.294 1_556 S
O76 C69 1.240 . S
O77 In65 2.326 . S
O77 C69 1.252 1_554 S
In78 O79 2.294 . S
In78 O80 2.326 . S
In78 O84 2.266 . S
In78 O85 2.326 . S
In78 O86 2.266 . S
In78 O87 2.326 . S
In78 O89 2.294 . S
In78 O90 2.326 . S
O79 In78 2.294 . S
O79 C88 1.240 . S
O80 In78 2.326 . S
O80 C88 1.252 . S
C81 O84 1.252 . S
C81 O85 1.260 . S
C82 O89 1.240 . S
C82 O90 1.252 . S
C83 O86 1.252 . S
C83 O87 1.260 . S
O84 In78 2.266 . S
O84 C81 1.252 . S
O85 In78 2.326 . S
O85 C81 1.260 . S
O86 In78 2.266 . S
O86 C83 1.252 . S
O87 In78 2.326 . S
O87 C83 1.260 . S
C88 O79 1.240 . S
C88 O80 1.252 . S
O89 In78 2.294 . S
O89 C82 1.240 . S
O90 In78 2.326 . S
O90 C82 1.252 . S
In91 O92 2.294 . S
In91 O93 2.326 . S
In91 O97 2.266 . S
In91 O98 2.326 . S
In91 O99 2.266 . S
In91 O100 2.326 . S
In91 O102 2.294 . S
In91 O103 2.326 . S
O92 In91 2.294 . S
O92 C101 1.240 . S
O93 In91 2.326 . S
O93 C101 1.252 . S
C94 O97 1.252 . S
C94 O98 1.260 . S
C95 O102 1.240 . S
C95 O103 1.252 . S
C96 O99 1.252 . S
C96 O100 1.260 . S
O97 In91 2.266 . S
O97 C94 1.252 . S
O98 In91 2.326 . S
O98 C94 1.260 . S
O99 In91 2.266 . S
O99 C96 1.252 . S
O100 In91 2.326 . S
O100 C96 1.260 . S
C101 O92 1.240 . S
C101 O93 1.252 . S
O102 In91 2.294 . S
O102 C95 1.240 . S
O103 In91 2.326 . S
O103 C95 1.252 . S
In104 O105 2.294 . S
In104 O106 2.326 . S
In104 O110 2.266 . S
In104 O111 2.326 . S
In104 O112 2.266 . S
In104 O113 2.326 . S
In104 O115 2.294 . S
In104 O116 2.326 . S
O105 In104 2.294 . S
O105 C114 1.240 . S
O106 In104 2.326 . S
O106 C114 1.252 . S
C107 O110 1.252 . S
C107 O111 1.260 . S
C108 O115 1.240 . S
C108 O116 1.252 . S
C109 O112 1.252 . S
C109 O113 1.260 . S
O110 In104 2.266 . S
O110 C107 1.252 . S
O111 In104 2.326 . S
O111 C107 1.260 . S
O112 In104 2.266 . S
O112 C109 1.252 . S
O113 In104 2.326 . S
O113 C109 1.260 . S
C114 O105 1.240 . S
C114 O106 1.252 . S
O115 In104 2.294 . S
O115 C108 1.240 . S
O116 In104 2.326 . S
O116 C108 1.252 . S
In117 O118 2.294 1_554 S
In117 O119 2.326 . S
In117 O123 2.266 . S
In117 O124 2.326 . S
In117 O125 2.266 . S
In117 O126 2.326 . S
In117 O128 2.294 . S
In117 O129 2.326 . S
O118 In117 2.294 1_556 S
O118 C127 1.240 . S
O119 In117 2.326 . S
O119 C127 1.252 1_554 S
C120 O123 1.252 . S
C120 O124 1.260 . S
C121 O128 1.240 . S
C121 O129 1.252 . S
C122 O125 1.252 . S
C122 O126 1.260 . S
O123 In117 2.266 . S
O123 C120 1.252 . S
O124 In117 2.326 . S
O124 C120 1.260 . S
O125 In117 2.266 . S
O125 C122 1.252 . S
O126 In117 2.326 . S
O126 C122 1.260 . S
C127 O118 1.240 . S
C127 O119 1.252 1_556 S
O128 In117 2.294 . S
O128 C121 1.240 . S
O129 In117 2.326 . S
O129 C121 1.252 . S
In130 O131 2.295 . S
In130 O132 2.327 . S
In130 O136 2.266 . S
In130 O137 2.325 1_554 S
In130 O138 2.266 1_554 S
In130 O139 2.326 . S
In130 O141 2.293 1_554 S
In130 O142 2.326 1_554 S
O131 In130 2.295 . S
O131 C140 1.240 . S
O132 In130 2.327 . S
O132 C140 1.252 . S
C133 O136 1.252 1_556 S
C133 O137 1.260 . S
C134 O141 1.240 . S
C134 O142 1.252 . S
C135 O138 1.252 1_554 S
C135 O139 1.260 . S
O136 In130 2.266 . S
O136 C133 1.252 1_554 S
O137 In130 2.325 1_556 S
O137 C133 1.260 . S
O138 In130 2.266 1_556 S
O138 C135 1.252 1_556 S
O139 In130 2.326 . S
O139 C135 1.260 . S
C140 O131 1.240 . S
C140 O132 1.252 . S
O141 In130 2.293 1_556 S
O141 C134 1.240 . S
O142 In130 2.326 1_556 S
O142 C134 1.252 . S
In143 O144 2.294 . S
In143 O145 2.326 . S
In143 O149 2.266 . S
In143 O150 2.326 . S
In143 O151 2.266 . S
In143 O152 2.326 . S
In143 O154 2.294 . S
In143 O155 2.326 . S
O144 In143 2.294 . S
O144 C153 1.240 . S
O145 In143 2.326 . S
O145 C153 1.252 . S
C146 O149 1.252 . S
C146 O150 1.260 . S
C147 O154 1.240 . S
C147 O155 1.252 . S
C148 O151 1.252 . S
C148 O152 1.260 . S
O149 In143 2.266 . S
O149 C146 1.252 . S
O150 In143 2.326 . S
O150 C146 1.260 . S
O151 In143 2.266 . S
O151 C148 1.252 . S
O152 In143 2.326 . S
O152 C148 1.260 . S
C153 O144 1.240 . S
C153 O145 1.252 . S
O154 In143 2.294 . S
O154 C147 1.240 . S
O155 In143 2.326 . S
O155 C147 1.252 . S
In156 O157 2.294 . S
In156 O158 2.326 . S
In156 O162 2.266 . S
In156 O163 2.326 . S
In156 O164 2.266 . S
In156 O165 2.326 . S
In156 O167 2.294 . S
In156 O168 2.326 . S
O157 In156 2.294 . S
O157 C166 1.240 . S
O158 In156 2.326 . S
O158 C166 1.252 . S
C159 O162 1.252 . S
C159 O163 1.260 . S
C160 O167 1.240 . S
C160 O168 1.252 . S
C161 O164 1.252 . S
C161 O165 1.260 . S
O162 In156 2.266 . S
O162 C159 1.252 . S
O163 In156 2.326 . S
O163 C159 1.260 . S
O164 In156 2.266 . S
O164 C161 1.252 . S
O165 In156 2.326 . S
O165 C161 1.260 . S
C166 O157 1.240 . S
C166 O158 1.252 . S
O167 In156 2.294 . S
O167 C160 1.240 . S
O168 In156 2.326 . S
O168 C160 1.252 . S
In169 O170 2.294 1_455 S
In169 O171 2.326 . S
In169 O175 2.266 1_455 S
In169 O176 2.326 1_455 S
In169 O177 2.266 . S
In169 O178 2.326 . S
In169 O180 2.294 . S
In169 O181 2.326 1_455 S
O170 In169 2.294 1_655 S
O170 C179 1.240 1_655 S
O171 In169 2.326 . S
O171 C179 1.252 . S
C172 O175 1.252 . S
C172 O176 1.260 . S
C173 O180 1.240 1_655 S
C173 O181 1.252 . S
C174 O177 1.252 . S
C174 O178 1.260 . S
O175 In169 2.266 1_655 S
O175 C172 1.252 . S
O176 In169 2.326 1_655 S
O176 C172 1.260 . S
O177 In169 2.266 . S
O177 C174 1.252 . S
O178 In169 2.326 . S
O178 C174 1.260 . S
C179 O170 1.240 1_455 S
C179 O171 1.252 . S
O180 In169 2.294 . S
O180 C173 1.240 1_455 S
O181 In169 2.326 1_655 S
O181 C173 1.252 . S
In182 O183 2.294 . S
In182 O184 2.326 . S
In182 O188 2.266 . S
In182 O189 2.326 . S
In182 O190 2.266 . S
In182 O191 2.326 . S
In182 O193 2.294 . S
In182 O194 2.326 . S
O183 In182 2.294 . S
O183 C192 1.240 . S
O184 In182 2.326 . S
O184 C192 1.252 . S
C185 O188 1.252 . S
C185 O189 1.260 . S
C186 O193 1.240 . S
C186 O194 1.252 . S
C187 O190 1.252 . S
C187 O191 1.260 . S
O188 In182 2.266 . S
O188 C185 1.252 . S
O189 In182 2.326 . S
O189 C185 1.260 . S
O190 In182 2.266 . S
O190 C187 1.252 . S
O191 In182 2.326 . S
O191 C187 1.260 . S
C192 O183 1.240 . S
C192 O184 1.252 . S
O193 In182 2.294 . S
O193 C186 1.240 . S
O194 In182 2.326 . S
O194 C186 1.252 . S
In195 O196 2.294 . S
In195 O197 2.326 1_455 S
In195 O201 2.266 . S
In195 O202 2.326 . S
In195 O203 2.266 1_455 S
In195 O204 2.326 1_455 S
In195 O206 2.294 1_455 S
In195 O207 2.326 . S
O196 In195 2.294 . S
O196 C205 1.240 1_455 S
O197 In195 2.326 1_655 S
O197 C205 1.252 . S
C198 O201 1.252 . S
C198 O202 1.260 . S
C199 O206 1.240 1_455 S
C199 O207 1.252 . S
C200 O203 1.252 . S
C200 O204 1.260 . S
O201 In195 2.266 . S
O201 C198 1.252 . S
O202 In195 2.326 . S
O202 C198 1.260 . S
O203 In195 2.266 1_655 S
O203 C200 1.252 . S
O204 In195 2.326 1_655 S
O204 C200 1.260 . S
C205 O196 1.240 1_655 S
C205 O197 1.252 . S
O206 In195 2.294 1_655 S
O206 C199 1.240 1_655 S
O207 In195 2.326 . S
O207 C199 1.252 . S
H208 C214 0.930 . S
H209 C218 0.930 . S
H210 C223 0.929 . S
H211 C221 0.929 . S
H212 C216 0.929 . S
H213 C222 0.929 . S
C214 H208 0.930 . S
C214 C215 1.367 . S
C214 C222 1.378 . S
C215 C214 1.367 . S
C215 C223 1.433 . S
C216 H212 0.929 . S
C216 C218 1.378 . S
C216 C220 1.350 . S
C217 C220 1.463 . S
C217 C222 1.350 . S
C217 N225 1.427 . S
C218 H209 0.930 . S
C218 C216 1.378 . S
C218 C219 1.367 . S
C219 C218 1.367 . S
C219 C221 1.433 . S
C220 C216 1.350 . S
C220 C217 1.463 . S
C220 N224 1.427 . S
C221 H211 0.929 . S
C221 C219 1.433 . S
C221 N224 1.384 . S
C222 H213 0.929 . S
C222 C214 1.378 . S
C222 C217 1.350 . S
C223 H210 0.929 . S
C223 C215 1.433 . S
C223 N225 1.384 . S
N224 C220 1.427 . S
N224 C221 1.384 . S
N225 C217 1.427 . S
N225 C223 1.384 . S
H226 C232 0.930 . S
H227 C236 0.930 . S
H228 C241 0.929 . S
H229 C239 0.929 . S
H230 C234 0.929 . S
H231 C240 0.929 . S
C232 H226 0.930 . S
C232 C233 1.367 . S
C232 C240 1.378 . S
C233 C232 1.367 . S
C233 C241 1.433 . S
C234 H230 0.929 . S
C234 C236 1.378 . S
C234 C238 1.350 . S
C235 C238 1.463 . S
C235 C240 1.350 . S
C235 N243 1.427 . S
C236 H227 0.930 . S
C236 C234 1.378 . S
C236 C237 1.367 . S
C237 C236 1.367 . S
C237 C239 1.433 . S
C238 C234 1.350 . S
C238 C235 1.463 . S
C238 N242 1.427 . S
C239 H229 0.929 . S
C239 C237 1.433 . S
C239 N242 1.384 . S
C240 H231 0.929 . S
C240 C232 1.378 . S
C240 C235 1.350 . S
C241 H228 0.929 . S
C241 C233 1.433 . S
C241 N243 1.384 . S
N242 C238 1.427 . S
N242 C239 1.384 . S
N243 C235 1.427 . S
N243 C241 1.384 . S
H244 C250 0.930 . S
H245 C254 0.930 . S
H246 C259 0.929 . S
H247 C257 0.929 . S
H248 C252 0.929 . S
H249 C258 0.929 . S
C250 H244 0.930 . S
C250 C251 1.367 . S
C250 C258 1.378 . S
C251 C250 1.367 . S
C251 C259 1.433 . S
C252 H248 0.929 . S
C252 C254 1.378 . S
C252 C256 1.350 . S
C253 C256 1.463 . S
C253 C258 1.350 . S
C253 N261 1.427 . S
C254 H245 0.930 . S
C254 C252 1.378 . S
C254 C255 1.367 . S
C255 C254 1.367 . S
C255 C257 1.433 . S
C256 C252 1.350 . S
C256 C253 1.463 . S
C256 N260 1.427 . S
C257 H247 0.929 . S
C257 C255 1.433 . S
C257 N260 1.384 . S
C258 H249 0.929 . S
C258 C250 1.378 . S
C258 C253 1.350 . S
C259 H246 0.929 . S
C259 C251 1.433 . S
C259 N261 1.384 . S
N260 C256 1.427 . S
N260 C257 1.384 . S
N261 C253 1.427 . S
N261 C259 1.384 . S
H262 C268 0.930 1_554 S
H263 C272 0.930 . S
H264 C277 0.929 . S
H265 C275 0.929 . S
H266 C270 0.929 . S
H267 C276 0.929 . S
C268 H262 0.930 1_556 S
C268 C269 1.367 . S
C268 C276 1.378 . S
C269 C268 1.367 . S
C269 C277 1.433 . S
C270 H266 0.929 . S
C270 C272 1.378 . S
C270 C274 1.350 . S
C271 C274 1.463 . S
C271 C276 1.350 . S
C271 N279 1.427 . S
C272 H263 0.930 . S
C272 C270 1.378 . S
C272 C273 1.367 . S
C273 C272 1.367 . S
C273 C275 1.433 . S
C274 C270 1.350 . S
C274 C271 1.463 . S
C274 N278 1.427 . S
C275 H265 0.929 . S
C275 C273 1.433 . S
C275 N278 1.384 . S
C276 H267 0.929 . S
C276 C268 1.378 . S
C276 C271 1.350 . S
C277 H264 0.929 . S
C277 C269 1.433 . S
C277 N279 1.384 . S
N278 C274 1.427 . S
N278 C275 1.384 . S
N279 C271 1.427 . S
N279 C277 1.384 . S
H280 C286 0.930 . S
H281 C290 0.930 1_554 S
H282 C295 0.929 . S
H283 C293 0.929 . S
H284 C288 0.929 1_554 S
H285 C294 0.929 . S
C286 H280 0.930 . S
C286 C287 1.367 . S
C286 C294 1.378 . S
C287 C286 1.367 . S
C287 C295 1.433 . S
C288 H284 0.929 1_556 S
C288 C290 1.378 . S
C288 C292 1.350 . S
C289 C292 1.463 . S
C289 C294 1.350 . S
C289 N297 1.427 . S
C290 H281 0.930 1_556 S
C290 C288 1.378 . S
C290 C291 1.367 . S
C291 C290 1.367 . S
C291 C293 1.433 . S
C292 C288 1.350 . S
C292 C289 1.463 . S
C292 N296 1.427 . S
C293 H283 0.929 . S
C293 C291 1.433 . S
C293 N296 1.384 . S
C294 H285 0.929 . S
C294 C286 1.378 . S
C294 C289 1.350 . S
C295 H282 0.929 . S
C295 C287 1.433 . S
C295 N297 1.384 . S
N296 C292 1.427 . S
N296 C293 1.384 . S
N297 C289 1.427 . S
N297 C295 1.384 . S
H298 C304 0.930 . S
H299 C308 0.930 . S
H300 C313 0.929 . S
H301 C311 0.929 . S
H302 C306 0.929 . S
H303 C312 0.929 . S
C304 H298 0.930 . S
C304 C305 1.367 . S
C304 C312 1.378 . S
C305 C304 1.367 . S
C305 C313 1.433 . S
C306 H302 0.929 . S
C306 C308 1.378 . S
C306 C310 1.350 . S
C307 C310 1.463 . S
C307 C312 1.350 . S
C307 N315 1.427 . S
C308 H299 0.930 . S
C308 C306 1.378 . S
C308 C309 1.367 . S
C309 C308 1.367 . S
C309 C311 1.433 . S
C310 C306 1.350 . S
C310 C307 1.463 . S
C310 N314 1.427 . S
C311 H301 0.929 . S
C311 C309 1.433 . S
C311 N314 1.384 . S
C312 H303 0.929 . S
C312 C304 1.378 . S
C312 C307 1.350 . S
C313 H300 0.929 . S
C313 C305 1.433 . S
C313 N315 1.384 . S
N314 C310 1.427 . S
N314 C311 1.384 . S
N315 C307 1.427 . S
N315 C313 1.384 . S
H316 C322 0.930 . S
H317 C326 0.930 . S
H318 C331 0.929 . S
H319 C329 0.929 . S
H320 C324 0.929 . S
H321 C330 0.929 . S
C322 H316 0.930 . S
C322 C323 1.367 . S
C322 C330 1.378 . S
C323 C322 1.367 . S
C323 C331 1.433 . S
C324 H320 0.929 . S
C324 C326 1.378 . S
C324 C328 1.350 . S
C325 C328 1.463 . S
C325 C330 1.350 . S
C325 N333 1.427 . S
C326 H317 0.930 . S
C326 C324 1.378 . S
C326 C327 1.367 . S
C327 C326 1.367 . S
C327 C329 1.433 . S
C328 C324 1.350 . S
C328 C325 1.463 . S
C328 N332 1.427 . S
C329 H319 0.929 . S
C329 C327 1.433 . S
C329 N332 1.384 . S
C330 H321 0.929 . S
C330 C322 1.378 . S
C330 C325 1.350 . S
C331 H318 0.929 . S
C331 C323 1.433 . S
C331 N333 1.384 . S
N332 C328 1.427 . S
N332 C329 1.384 . S
N333 C325 1.427 . S
N333 C331 1.384 . S
H334 C340 0.930 . S
H335 C344 0.930 . S
H336 C349 0.929 . S
H337 C347 0.929 . S
H338 C342 0.929 . S
H339 C348 0.929 . S
C340 H334 0.930 . S
C340 C341 1.367 . S
C340 C348 1.378 . S
C341 C340 1.367 . S
C341 C349 1.433 . S
C342 H338 0.929 . S
C342 C344 1.378 . S
C342 C346 1.350 . S
C343 C346 1.463 . S
C343 C348 1.350 . S
C343 N351 1.427 . S
C344 H335 0.930 . S
C344 C342 1.378 . S
C344 C345 1.367 . S
C345 C344 1.367 . S
C345 C347 1.433 . S
C346 C342 1.350 . S
C346 C343 1.463 . S
C346 N350 1.427 . S
C347 H337 0.929 . S
C347 C345 1.433 . S
C347 N350 1.384 . S
C348 H339 0.929 . S
C348 C340 1.378 . S
C348 C343 1.350 . S
C349 H336 0.929 . S
C349 C341 1.433 . S
C349 N351 1.384 . S
N350 C346 1.427 . S
N350 C347 1.384 . S
N351 C343 1.427 . S
N351 C349 1.384 . S
H352 C358 0.930 . S
H353 C362 0.930 . S
H354 C367 0.929 . S
H355 C365 0.929 . S
H356 C360 0.929 . S
H357 C366 0.929 . S
C358 H352 0.930 . S
C358 C359 1.367 . S
C358 C366 1.378 . S
C359 C358 1.367 . S
C359 C367 1.433 . S
C360 H356 0.929 . S
C360 C362 1.378 . S
C360 C364 1.350 . S
C361 C364 1.463 . S
C361 C366 1.350 . S
C361 N369 1.427 . S
C362 H353 0.930 . S
C362 C360 1.378 . S
C362 C363 1.367 . S
C363 C362 1.367 . S
C363 C365 1.433 1_556 S
C364 C360 1.350 . S
C364 C361 1.463 . S
C364 N368 1.427 . S
C365 H355 0.929 . S
C365 C363 1.433 1_554 S
C365 N368 1.384 1_554 S
C366 H357 0.929 . S
C366 C358 1.378 . S
C366 C361 1.350 . S
C367 H354 0.929 . S
C367 C359 1.433 . S
C367 N369 1.384 . S
N368 C364 1.427 . S
N368 C365 1.384 1_556 S
N369 C361 1.427 . S
N369 C367 1.384 . S
H370 C376 0.930 . S
H371 C380 0.930 . S
H372 C385 0.929 . S
H373 C383 0.929 . S
H374 C378 0.929 . S
H375 C384 0.929 . S
C376 H370 0.930 . S
C376 C377 1.367 . S
C376 C384 1.378 . S
C377 C376 1.367 . S
C377 C385 1.433 . S
C378 H374 0.929 . S
C378 C380 1.378 . S
C378 C382 1.350 . S
C379 C382 1.463 . S
C379 C384 1.350 . S
C379 N387 1.427 . S
C380 H371 0.930 . S
C380 C378 1.378 . S
C380 C381 1.367 . S
C381 C380 1.367 . S
C381 C383 1.433 . S
C382 C378 1.350 . S
C382 C379 1.463 . S
C382 N386 1.427 . S
C383 H373 0.929 . S
C383 C381 1.433 . S
C383 N386 1.384 . S
C384 H375 0.929 . S
C384 C376 1.378 . S
C384 C379 1.350 . S
C385 H372 0.929 . S
C385 C377 1.433 . S
C385 N387 1.384 . S
N386 C382 1.427 . S
N386 C383 1.384 . S
N387 C379 1.427 . S
N387 C385 1.384 . S
H388 C394 0.930 . S
H389 C398 0.930 . S
H390 C403 0.929 . S
H391 C401 0.929 . S
H392 C396 0.929 . S
H393 C402 0.929 . S
C394 H388 0.930 . S
C394 C395 1.367 . S
C394 C402 1.378 . S
C395 C394 1.367 . S
C395 C403 1.433 . S
C396 H392 0.929 . S
C396 C398 1.378 . S
C396 C400 1.350 . S
C397 C400 1.463 . S
C397 C402 1.350 . S
C397 N405 1.427 . S
C398 H389 0.930 . S
C398 C396 1.378 . S
C398 C399 1.367 . S
C399 C398 1.367 . S
C399 C401 1.433 . S
C400 C396 1.350 . S
C400 C397 1.463 . S
C400 N404 1.427 . S
C401 H391 0.929 . S
C401 C399 1.433 . S
C401 N404 1.384 . S
C402 H393 0.929 . S
C402 C394 1.378 . S
C402 C397 1.350 . S
C403 H390 0.929 . S
C403 C395 1.433 . S
C403 N405 1.384 . S
N404 C400 1.427 . S
N404 C401 1.384 . S
N405 C397 1.427 . S
N405 C403 1.384 . S
H406 C412 0.930 . S
H407 C416 0.930 . S
H408 C421 0.929 . S
H409 C419 0.929 . S
H410 C414 0.929 . S
H411 C420 0.929 . S
C412 H406 0.930 . S
C412 C413 1.367 . S
C412 C420 1.378 . S
C413 C412 1.367 . S
C413 C421 1.433 . S
C414 H410 0.929 . S
C414 C416 1.378 . S
C414 C418 1.350 . S
C415 C418 1.463 . S
C415 C420 1.350 . S
C415 N423 1.427 . S
C416 H407 0.930 . S
C416 C414 1.378 . S
C416 C417 1.367 . S
C417 C416 1.367 . S
C417 C419 1.433 . S
C418 C414 1.350 . S
C418 C415 1.463 . S
C418 N422 1.427 . S
C419 H409 0.929 . S
C419 C417 1.433 . S
C419 N422 1.384 . S
C420 H411 0.929 . S
C420 C412 1.378 . S
C420 C415 1.350 . S
C421 H408 0.929 . S
C421 C413 1.433 . S
C421 N423 1.384 . S
N422 C418 1.427 . S
N422 C419 1.384 . S
N423 C415 1.427 . S
N423 C421 1.384 . S
H424 C430 0.930 . S
H425 C434 0.930 . S
H426 C439 0.929 . S
H427 C437 0.929 . S
H428 C432 0.929 . S
H429 C438 0.929 . S
C430 H424 0.930 . S
C430 C431 1.367 . S
C430 C438 1.378 . S
C431 C430 1.367 . S
C431 C439 1.433 . S
C432 H428 0.929 . S
C432 C434 1.378 . S
C432 C436 1.350 . S
C433 C436 1.463 . S
C433 C438 1.350 . S
C433 N441 1.427 . S
C434 H425 0.930 . S
C434 C432 1.378 . S
C434 C435 1.367 . S
C435 C434 1.367 . S
C435 C437 1.433 . S
C436 C432 1.350 . S
C436 C433 1.463 . S
C436 N440 1.427 . S
C437 H427 0.929 . S
C437 C435 1.433 . S
C437 N440 1.384 . S
C438 H429 0.929 . S
C438 C430 1.378 . S
C438 C433 1.350 . S
C439 H426 0.929 . S
C439 C431 1.433 . S
C439 N441 1.384 . S
N440 C436 1.427 . S
N440 C437 1.384 . S
N441 C433 1.427 . S
N441 C439 1.384 . S
H442 C448 0.930 . S
H443 C452 0.930 . S
H444 C457 0.929 . S
H445 C455 0.929 . S
H446 C450 0.929 1_554 S
H447 C456 0.929 . S
C448 H442 0.930 . S
C448 C449 1.367 . S
C448 C456 1.378 . S
C449 C448 1.367 . S
C449 C457 1.433 . S
C450 H446 0.929 1_556 S
C450 C452 1.378 1_556 S
C450 C454 1.350 . S
C451 C454 1.463 . S
C451 C456 1.350 . S
C451 N459 1.427 . S
C452 H443 0.930 . S
C452 C450 1.378 1_554 S
C452 C453 1.367 1_554 S
C453 C452 1.367 1_556 S
C453 C455 1.433 . S
C454 C450 1.350 . S
C454 C451 1.463 . S
C454 N458 1.427 . S
C455 H445 0.929 . S
C455 C453 1.433 . S
C455 N458 1.384 . S
C456 H447 0.929 . S
C456 C448 1.378 . S
C456 C451 1.350 . S
C457 H444 0.929 . S
C457 C449 1.433 . S
C457 N459 1.384 . S
N458 C454 1.427 . S
N458 C455 1.384 . S
N459 C451 1.427 . S
N459 C457 1.384 . S
H460 C466 0.930 . S
H461 C470 0.930 . S
H462 C475 0.929 . S
H463 C473 0.929 . S
H464 C468 0.929 . S
H465 C474 0.929 . S
C466 H460 0.930 . S
C466 C467 1.367 . S
C466 C474 1.378 . S
C467 C466 1.367 . S
C467 C475 1.433 . S
C468 H464 0.929 . S
C468 C470 1.378 . S
C468 C472 1.350 . S
C469 C472 1.463 . S
C469 C474 1.350 . S
C469 N477 1.427 . S
C470 H461 0.930 . S
C470 C468 1.378 . S
C470 C471 1.367 . S
C471 C470 1.367 . S
C471 C473 1.433 . S
C472 C468 1.350 . S
C472 C469 1.463 . S
C472 N476 1.427 . S
C473 H463 0.929 . S
C473 C471 1.433 . S
C473 N476 1.384 . S
C474 H465 0.929 . S
C474 C466 1.378 . S
C474 C469 1.350 . S
C475 H462 0.929 . S
C475 C467 1.433 . S
C475 N477 1.384 . S
N476 C472 1.427 . S
N476 C473 1.384 . S
N477 C469 1.427 . S
N477 C475 1.384 . S
H478 C484 0.930 . S
H479 C488 0.930 . S
H480 C493 0.929 . S
H481 C491 0.929 . S
H482 C486 0.929 . S
H483 C492 0.929 . S
C484 H478 0.930 . S
C484 C485 1.367 . S
C484 C492 1.378 . S
C485 C484 1.367 . S
C485 C493 1.433 . S
C486 H482 0.929 . S
C486 C488 1.378 . S
C486 C490 1.350 . S
C487 C490 1.463 . S
C487 C492 1.350 . S
C487 N495 1.427 . S
C488 H479 0.930 . S
C488 C486 1.378 . S
C488 C489 1.367 . S
C489 C488 1.367 . S
C489 C491 1.433 . S
C490 C486 1.350 . S
C490 C487 1.463 . S
C490 N494 1.427 . S
C491 H481 0.929 . S
C491 C489 1.433 . S
C491 N494 1.384 . S
C492 H483 0.929 . S
C492 C484 1.378 . S
C492 C487 1.350 . S
C493 H480 0.929 . S
C493 C485 1.433 . S
C493 N495 1.384 . S
N494 C490 1.427 . S
N494 C491 1.384 . S
N495 C487 1.427 . S
N495 C493 1.384 . S
H496 C502 0.930 . S
H497 C506 0.930 . S
H498 C511 0.929 . S
H499 C509 0.929 . S
H500 C504 0.929 . S
H501 C510 0.929 . S
C502 H496 0.930 . S
C502 C503 1.367 1_655 S
C502 C510 1.378 . S
C503 C502 1.367 1_455 S
C503 C511 1.433 . S
C504 H500 0.929 . S
C504 C506 1.378 . S
C504 C508 1.350 1_556 S
C505 C508 1.463 . S
C505 C510 1.350 1_455 S
C505 N513 1.427 . S
C506 H497 0.930 . S
C506 C504 1.378 . S
C506 C507 1.367 . S
C507 C506 1.367 . S
C507 C509 1.433 1_455 S
C508 C504 1.350 1_554 S
C508 C505 1.463 . S
C508 N512 1.427 1_455 S
C509 H499 0.929 . S
C509 C507 1.433 1_655 S
C509 N512 1.384 1_556 S
C510 H501 0.929 . S
C510 C502 1.378 . S
C510 C505 1.350 1_655 S
C511 H498 0.929 . S
C511 C503 1.433 . S
C511 N513 1.384 . S
N512 C508 1.427 1_655 S
N512 C509 1.384 1_554 S
N513 C505 1.427 . S
N513 C511 1.384 . S
H514 C520 0.930 . S
H515 C524 0.930 . S
H516 C529 0.929 . S
H517 C527 0.929 . S
H518 C522 0.929 . S
H519 C528 0.929 . S
C520 H514 0.930 . S
C520 C521 1.367 . S
C520 C528 1.378 . S
C521 C520 1.367 . S
C521 C529 1.433 . S
C522 H518 0.929 . S
C522 C524 1.378 . S
C522 C526 1.350 . S
C523 C526 1.463 . S
C523 C528 1.350 . S
C523 N531 1.427 . S
C524 H515 0.930 . S
C524 C522 1.378 . S
C524 C525 1.367 . S
C525 C524 1.367 . S
C525 C527 1.433 . S
C526 C522 1.350 . S
C526 C523 1.463 . S
C526 N530 1.427 . S
C527 H517 0.929 . S
C527 C525 1.433 . S
C527 N530 1.384 . S
C528 H519 0.929 . S
C528 C520 1.378 . S
C528 C523 1.350 . S
C529 H516 0.929 . S
C529 C521 1.433 . S
C529 N531 1.384 . S
N530 C526 1.427 . S
N530 C527 1.384 . S
N531 C523 1.427 . S
N531 C529 1.384 . S
H532 C538 0.930 . S
H533 C542 0.930 . S
H534 C547 0.929 . S
H535 C545 0.929 . S
H536 C540 0.929 . S
H537 C546 0.929 . S
C538 H532 0.930 . S
C538 C539 1.367 . S
C538 C546 1.378 . S
C539 C538 1.367 . S
C539 C547 1.433 . S
C540 H536 0.929 . S
C540 C542 1.378 . S
C540 C544 1.350 . S
C541 C544 1.463 . S
C541 C546 1.350 . S
C541 N549 1.427 . S
C542 H533 0.930 . S
C542 C540 1.378 . S
C542 C543 1.367 . S
C543 C542 1.367 . S
C543 C545 1.433 . S
C544 C540 1.350 . S
C544 C541 1.463 . S
C544 N548 1.427 . S
C545 H535 0.929 . S
C545 C543 1.433 . S
C545 N548 1.384 . S
C546 H537 0.929 . S
C546 C538 1.378 . S
C546 C541 1.350 . S
C547 H534 0.929 . S
C547 C539 1.433 . S
C547 N549 1.384 . S
N548 C544 1.427 . S
N548 C545 1.384 . S
N549 C541 1.427 . S
N549 C547 1.384 . S
H550 C556 0.930 . S
H551 C560 0.930 . S
H552 C565 0.929 . S
H553 C563 0.929 . S
H554 C558 0.929 . S
H555 C564 0.929 . S
C556 H550 0.930 . S
C556 C557 1.367 . S
C556 C564 1.378 . S
C557 C556 1.367 . S
C557 C565 1.433 . S
C558 H554 0.929 . S
C558 C560 1.378 . S
C558 C562 1.350 . S
C559 C562 1.463 . S
C559 C564 1.350 . S
C559 N567 1.427 . S
C560 H551 0.930 . S
C560 C558 1.378 . S
C560 C561 1.367 . S
C561 C560 1.367 . S
C561 C563 1.433 . S
C562 C558 1.350 . S
C562 C559 1.463 . S
C562 N566 1.427 . S
C563 H553 0.929 . S
C563 C561 1.433 . S
C563 N566 1.384 . S
C564 H555 0.929 . S
C564 C556 1.378 . S
C564 C559 1.350 . S
C565 H552 0.929 . S
C565 C557 1.433 . S
C565 N567 1.384 . S
N566 C562 1.427 . S
N566 C563 1.384 . S
N567 C559 1.427 . S
N567 C565 1.384 . S
H568 C574 0.930 . S
H569 C578 0.930 . S
H570 C583 0.929 . S
H571 C581 0.929 . S
H572 C576 0.929 . S
H573 C582 0.929 . S
C574 H568 0.930 . S
C574 C575 1.367 . S
C574 C582 1.378 . S
C575 C574 1.367 . S
C575 C583 1.433 . S
C576 H572 0.929 . S
C576 C578 1.378 . S
C576 C580 1.350 . S
C577 C580 1.463 . S
C577 C582 1.350 . S
C577 N585 1.427 . S
C578 H569 0.930 . S
C578 C576 1.378 . S
C578 C579 1.367 . S
C579 C578 1.367 . S
C579 C581 1.433 . S
C580 C576 1.350 . S
C580 C577 1.463 . S
C580 N584 1.427 . S
C581 H571 0.929 . S
C581 C579 1.433 . S
C581 N584 1.384 . S
C582 H573 0.929 . S
C582 C574 1.378 . S
C582 C577 1.350 . S
C583 H570 0.929 . S
C583 C575 1.433 . S
C583 N585 1.384 . S
N584 C580 1.427 . S
N584 C581 1.384 . S
N585 C577 1.427 . S
N585 C583 1.384 . S
H586 C592 0.930 . S
H587 C596 0.930 . S
H588 C601 0.929 . S
H589 C599 0.929 . S
H590 C594 0.929 . S
H591 C600 0.929 . S
C592 H586 0.930 . S
C592 C593 1.367 . S
C592 C600 1.378 . S
C593 C592 1.367 . S
C593 C601 1.433 . S
C594 H590 0.929 . S
C594 C596 1.378 . S
C594 C598 1.350 . S
C595 C598 1.463 . S
C595 C600 1.350 . S
C595 N603 1.427 . S
C596 H587 0.930 . S
C596 C594 1.378 . S
C596 C597 1.367 . S
C597 C596 1.367 . S
C597 C599 1.433 . S
C598 C594 1.350 . S
C598 C595 1.463 . S
C598 N602 1.427 . S
C599 H589 0.929 . S
C599 C597 1.433 . S
C599 N602 1.384 . S
C600 H591 0.929 . S
C600 C592 1.378 . S
C600 C595 1.350 . S
C601 H588 0.929 . S
C601 C593 1.433 . S
C601 N603 1.384 . S
N602 C598 1.427 . S
N602 C599 1.384 . S
N603 C595 1.427 . S
N603 C601 1.384 . S
H604 C610 0.930 . S
H605 C614 0.930 . S
H606 C619 0.929 . S
H607 C617 0.929 . S
H608 C612 0.929 1_565 S
H609 C618 0.929 1_545 S
C610 H604 0.930 . S
C610 C611 1.367 . S
C610 C618 1.378 . S
C611 C610 1.367 . S
C611 C619 1.433 . S
C612 H608 0.929 1_545 S
C612 C614 1.378 . S
C612 C616 1.350 . S
C613 C616 1.463 1_565 S
C613 C618 1.350 . S
C613 N621 1.427 . S
C614 H605 0.930 . S
C614 C612 1.378 . S
C614 C615 1.367 . S
C615 C614 1.367 . S
C615 C617 1.433 . S
C616 C612 1.350 . S
C616 C613 1.463 1_545 S
C616 N620 1.427 . S
C617 H607 0.929 . S
C617 C615 1.433 . S
C617 N620 1.384 . S
C618 H609 0.929 1_565 S
C618 C610 1.378 . S
C618 C613 1.350 . S
C619 H606 0.929 . S
C619 C611 1.433 . S
C619 N621 1.384 . S
N620 C616 1.427 . S
N620 C617 1.384 . S
N621 C613 1.427 . S
N621 C619 1.384 . S
H622 C628 0.930 . S
H623 C632 0.930 . S
H624 C637 0.929 . S
H625 C635 0.929 . S
H626 C630 0.929 . S
H627 C636 0.929 . S
C628 H622 0.930 . S
C628 C629 1.367 . S
C628 C636 1.378 1_556 S
C629 C628 1.367 . S
C629 C637 1.433 1_655 S
C630 H626 0.929 . S
C630 C632 1.378 . S
C630 C634 1.350 1_455 S
C631 C634 1.463 1_545 S
C631 C636 1.350 . S
C631 N639 1.427 1_654 S
C632 H623 0.930 . S
C632 C630 1.378 . S
C632 C633 1.367 1_455 S
C633 C632 1.367 1_655 S
C633 C635 1.433 . S
C634 C630 1.350 1_655 S
C634 C631 1.463 1_565 S
C634 N638 1.427 . S
C635 H625 0.929 . S
C635 C633 1.433 . S
C635 N638 1.384 . S
C636 H627 0.929 . S
C636 C628 1.378 1_554 S
C636 C631 1.350 . S
C637 H624 0.929 . S
C637 C629 1.433 1_455 S
C637 N639 1.384 . S
N638 C634 1.427 . S
N638 C635 1.384 . S
N639 C631 1.427 1_456 S
N639 C637 1.384 . S
H640 C646 0.930 . S
H641 C650 0.930 . S
H642 C655 0.929 . S
H643 C653 0.929 . S
H644 C648 0.929 . S
H645 C654 0.929 . S
C646 H640 0.930 . S
C646 C647 1.367 1_455 S
C646 C654 1.378 . S
C647 C646 1.367 1_655 S
C647 C655 1.433 . S
C648 H644 0.929 . S
C648 C650 1.378 . S
C648 C652 1.350 . S
C649 C652 1.463 . S
C649 C654 1.350 1_655 S
C649 N657 1.427 . S
C650 H641 0.930 . S
C650 C648 1.378 . S
C650 C651 1.367 . S
C651 C650 1.367 . S
C651 C653 1.433 1_655 S
C652 C648 1.350 . S
C652 C649 1.463 . S
C652 N656 1.427 1_655 S
C653 H643 0.929 . S
C653 C651 1.433 1_455 S
C653 N656 1.384 . S
C654 H645 0.929 . S
C654 C646 1.378 . S
C654 C649 1.350 1_455 S
C655 H642 0.929 . S
C655 C647 1.433 . S
C655 N657 1.384 . S
N656 C652 1.427 1_455 S
N656 C653 1.384 . S
N657 C649 1.427 . S
N657 C655 1.384 . S
H658 C664 0.930 . S
H659 C668 0.930 . S
H660 C673 0.929 . S
H661 C671 0.929 . S
H662 C666 0.929 . S
H663 C672 0.929 . S
C664 H658 0.930 . S
C664 C665 1.367 . S
C664 C672 1.378 . S
C665 C664 1.367 . S
C665 C673 1.433 . S
C666 H662 0.929 . S
C666 C668 1.378 . S
C666 C670 1.350 . S
C667 C670 1.463 . S
C667 C672 1.350 . S
C667 N675 1.427 . S
C668 H659 0.930 . S
C668 C666 1.378 . S
C668 C669 1.367 . S
C669 C668 1.367 . S
C669 C671 1.433 . S
C670 C666 1.350 . S
C670 C667 1.463 . S
C670 N674 1.427 . S
C671 H661 0.929 . S
C671 C669 1.433 . S
C671 N674 1.384 . S
C672 H663 0.929 . S
C672 C664 1.378 . S
C672 C667 1.350 . S
C673 H660 0.929 . S
C673 C665 1.433 . S
C673 N675 1.384 . S
N674 C670 1.427 . S
N674 C671 1.384 . S
N675 C667 1.427 . S
N675 C673 1.384 . S
H676 C682 0.930 . S
H677 C686 0.930 1_554 S
H678 C691 0.929 . S
H679 C689 0.929 . S
H680 C684 0.929 . S
H681 C690 0.914 1_556 S
C682 H676 0.930 . S
C682 C683 1.367 . S
C682 C690 1.378 . S
C683 C682 1.367 . S
C683 C691 1.433 . S
C684 H680 0.929 . S
C684 C686 1.378 1_554 S
C684 C688 1.350 . S
C685 C688 1.463 . S
C685 C690 1.350 . S
C685 N693 1.427 . S
C686 H677 0.930 1_556 S
C686 C684 1.378 1_556 S
C686 C687 1.367 . S
C687 C686 1.367 . S
C687 C689 1.433 . S
C688 C684 1.350 . S
C688 C685 1.463 . S
C688 N692 1.427 1_554 S
C689 H679 0.929 . S
C689 C687 1.433 . S
C689 N692 1.384 . S
C690 H681 0.914 1_554 S
C690 C682 1.378 . S
C690 C685 1.350 . S
C691 H678 0.929 . S
C691 C683 1.433 . S
C691 N693 1.384 . S
N692 C688 1.427 1_556 S
N692 C689 1.384 . S
N693 C685 1.427 . S
N693 C691 1.384 . S
H694 C700 0.930 . S
H695 C704 0.930 . S
H696 C709 0.929 . S
H697 C707 0.929 . S
H698 C702 0.929 . S
H699 C708 0.929 . S
C700 H694 0.930 . S
C700 C701 1.367 . S
C700 C708 1.378 . S
C701 C700 1.367 . S
C701 C709 1.433 . S
C702 H698 0.929 . S
C702 C704 1.378 . S
C702 C706 1.350 . S
C703 C706 1.463 . S
C703 C708 1.350 . S
C703 N711 1.427 . S
C704 H695 0.930 . S
C704 C702 1.378 . S
C704 C705 1.367 . S
C705 C704 1.367 . S
C705 C707 1.433 . S
C706 C702 1.350 . S
C706 C703 1.463 . S
C706 N710 1.427 . S
C707 H697 0.929 . S
C707 C705 1.433 . S
C707 N710 1.384 . S
C708 H699 0.929 . S
C708 C700 1.378 . S
C708 C703 1.350 . S
C709 H696 0.929 . S
C709 C701 1.433 . S
C709 N711 1.384 . S
N710 C706 1.427 . S
N710 C707 1.384 . S
N711 C703 1.427 . S
N711 C709 1.384 . S
H712 C718 0.930 . S
H713 C722 0.930 . S
H714 C727 0.929 . S
H715 C725 0.929 . S
H716 C720 0.929 . S
H717 C726 0.929 . S
C718 H712 0.930 . S
C718 C719 1.367 . S
C718 C726 1.378 . S
C719 C718 1.367 . S
C719 C727 1.433 . S
C720 H716 0.929 . S
C720 C722 1.378 . S
C720 C724 1.350 . S
C721 C724 1.463 . S
C721 C726 1.350 . S
C721 N729 1.427 . S
C722 H713 0.930 . S
C722 C720 1.378 . S
C722 C723 1.367 . S
C723 C722 1.367 . S
C723 C725 1.433 . S
C724 C720 1.350 . S
C724 C721 1.463 . S
C724 N728 1.427 . S
C725 H715 0.929 . S
C725 C723 1.433 . S
C725 N728 1.384 . S
C726 H717 0.929 . S
C726 C718 1.378 . S
C726 C721 1.350 . S
C727 H714 0.929 . S
C727 C719 1.433 . S
C727 N729 1.384 . S
N728 C724 1.427 . S
N728 C725 1.384 . S
N729 C721 1.427 . S
N729 C727 1.384 . S
H730 C736 0.930 . S
H731 C740 0.930 . S
H732 C745 0.929 . S
H733 C743 0.929 . S
H734 C738 0.929 . S
H735 C744 0.929 . S
C736 H730 0.930 . S
C736 C737 1.367 . S
C736 C744 1.378 . S
C737 C736 1.367 . S
C737 C745 1.433 . S
C738 H734 0.929 . S
C738 C740 1.378 . S
C738 C742 1.350 . S
C739 C742 1.463 . S
C739 C744 1.350 . S
C739 N747 1.427 . S
C740 H731 0.930 . S
C740 C738 1.378 . S
C740 C741 1.367 . S
C741 C740 1.367 . S
C741 C743 1.433 . S
C742 C738 1.350 . S
C742 C739 1.463 . S
C742 N746 1.427 . S
C743 H733 0.929 . S
C743 C741 1.433 . S
C743 N746 1.384 . S
C744 H735 0.929 . S
C744 C736 1.378 . S
C744 C739 1.350 . S
C745 H732 0.929 . S
C745 C737 1.433 . S
C745 N747 1.384 . S
N746 C742 1.427 . S
N746 C743 1.384 . S
N747 C739 1.427 . S
N747 C745 1.384 . S
H748 C754 0.930 . S
H749 C758 0.930 1_554 S
H750 C763 0.929 . S
H751 C761 0.929 . S
H752 C756 0.929 . S
H753 C762 0.929 . S
C754 H748 0.930 . S
C754 C755 1.367 . S
C754 C762 1.378 . S
C755 C754 1.367 . S
C755 C763 1.433 . S
C756 H752 0.929 . S
C756 C758 1.378 1_554 S
C756 C760 1.350 . S
C757 C760 1.463 1_565 S
C757 C762 1.350 . S
C757 N765 1.427 . S
C758 H749 0.930 1_556 S
C758 C756 1.378 1_556 S
C758 C759 1.367 . S
C759 C758 1.367 . S
C759 C761 1.433 . S
C760 C756 1.350 . S
C760 C757 1.463 1_545 S
C760 N764 1.427 1_554 S
C761 H751 0.929 . S
C761 C759 1.433 . S
C761 N764 1.384 . S
C762 H753 0.929 . S
C762 C754 1.378 . S
C762 C757 1.350 . S
C763 H750 0.929 . S
C763 C755 1.433 . S
C763 N765 1.384 . S
N764 C760 1.427 1_556 S
N764 C761 1.384 . S
N765 C757 1.427 . S
N765 C763 1.384 . S
H766 C772 0.930 . S
H767 C776 0.930 . S
H768 C781 0.929 . S
H769 C779 0.929 . S
H770 C774 0.929 1_545 S
H771 C780 0.929 1_565 S
C772 H766 0.930 . S
C772 C773 1.367 . S
C772 C780 1.378 . S
C773 C772 1.367 . S
C773 C781 1.433 . S
C774 H770 0.929 1_565 S
C774 C776 1.378 . S
C774 C778 1.350 . S
C775 C778 1.463 1_545 S
C775 C780 1.350 . S
C775 N783 1.427 . S
C776 H767 0.930 . S
C776 C774 1.378 . S
C776 C777 1.367 . S
C777 C776 1.367 . S
C777 C779 1.433 . S
C778 C774 1.350 . S
C778 C775 1.463 1_565 S
C778 N782 1.427 . S
C779 H769 0.929 . S
C779 C777 1.433 . S
C779 N782 1.384 . S
C780 H771 0.929 1_545 S
C780 C772 1.378 . S
C780 C775 1.350 . S
C781 H768 0.929 . S
C781 C773 1.433 . S
C781 N783 1.384 . S
N782 C778 1.427 . S
N782 C779 1.384 . S
N783 C775 1.427 . S
N783 C781 1.384 . S
C215 C120 1.493 . S
C219 C5 1.490 . S
C233 C185 1.493 . S
C237 C18 1.493 . S
C251 C31 1.493 . S
C255 C107 1.493 . S
C269 C44 1.492 . S
C273 C200 1.496 . S
C287 C55 1.492 . S
C291 C133 1.489 . S
C305 C172 1.492 . S
C309 C70 1.495 . S
C323 C146 1.492 . S
C327 C83 1.492 . S
C341 C94 1.492 . S
C345 C159 1.492 . S
C359 C57 1.626 . S
C363 C42 1.630 1_556 S
C377 C161 1.629 . S
C381 C109 1.629 . S
C395 C81 1.632 . S
C399 C16 1.632 . S
C413 C122 1.624 . S
C417 C174 1.621 . S
C431 C3 1.624 . S
C435 C68 1.628 . S
C449 C198 1.633 . S
C453 C135 1.631 1_556 S
C467 C96 1.625 . S
C471 C29 1.625 . S
C485 C148 1.626 . S
C489 C187 1.626 . S
C503 C10 0.747 . S
C507 C56 0.755 . S
C521 C75 0.748 . S
C525 C23 0.755 . S
C539 C88 0.754 . S
C543 C36 0.748 . S
C557 C49 0.754 . S
C561 C95 0.748 . S
C575 C134 0.753 . S
C579 C108 0.748 . S
C593 C147 0.754 . S
C597 C121 0.747 . S
C611 C186 0.748 . S
C615 C160 0.753 . S
C629 C205 0.756 . S
C633 C173 0.746 . S
C647 C62 1.790 . S
C651 C4 1.792 . S
C665 C69 1.792 . S
C669 C17 1.796 . S
C683 C82 1.798 . S
C687 C30 1.796 . S
C701 C43 1.793 . S
C705 C101 1.789 . S
C719 C114 1.791 . S
C723 C140 1.789 . S
C737 C153 1.794 . S
C741 C127 1.791 . S
C755 C192 1.797 . S
C759 C166 1.795 . S
C773 C199 1.791 . S
C777 C179 1.790 . S
