# Generated by pormake.
# Topology sxi, (6)-cn, num edge types: 1
# Building blocks:
#     Node 0, Type 0, BuildingBlock: IZENUY_clean_sbu_0, # of connection points: 6
#     Node 1, Type 0, BuildingBlock: IZENUY_clean_sbu_0, # of connection points: 6
#     Node 2, Type 0, BuildingBlock: IZENUY_clean_sbu_0, # of connection points: 6
#     Node 3, Type 0, BuildingBlock: IZENUY_clean_sbu_0, # of connection points: 6
#     Node 4, Type 0, BuildingBlock: IZENUY_clean_sbu_0, # of connection points: 6
#     Node 5, Type 0, BuildingBlock: IZENUY_clean_sbu_0, # of connection points: 6
#     Node 6, Type 0, BuildingBlock: IZENUY_clean_sbu_0, # of connection points: 6
#     Node 7, Type 0, BuildingBlock: IZENUY_clean_sbu_0, # of connection points: 6
#     Node 8, Type 0, BuildingBlock: IZENUY_clean_sbu_0, # of connection points: 6
#     Node 9, Type 0, BuildingBlock: IZENUY_clean_sbu_0, # of connection points: 6
#     Node 10, Type 0, BuildingBlock: IZENUY_clean_sbu_0, # of connection points: 6
#     Node 11, Type 0, BuildingBlock: IZENUY_clean_sbu_0, # of connection points: 6
#     Node 12, Type 0, BuildingBlock: IZENUY_clean_sbu_0, # of connection points: 6
#     Node 13, Type 0, BuildingBlock: IZENUY_clean_sbu_0, # of connection points: 6
#     Node 14, Type 0, BuildingBlock: IZENUY_clean_sbu_0, # of connection points: 6
#     Node 15, Type 0, BuildingBlock: IZENUY_clean_sbu_0, # of connection points: 6
#     Node 16, Type 0, BuildingBlock: IZENUY_clean_sbu_0, # of connection points: 6
#     Node 17, Type 0, BuildingBlock: IZENUY_clean_sbu_0, # of connection points: 6
#     Node 18, Type 0, BuildingBlock: IZENUY_clean_sbu_0, # of connection points: 6
#     Node 19, Type 0, BuildingBlock: IZENUY_clean_sbu_0, # of connection points: 6
#     Node 20, Type 0, BuildingBlock: IZENUY_clean_sbu_0, # of connection points: 6
#     Node 21, Type 0, BuildingBlock: IZENUY_clean_sbu_0, # of connection points: 6
#     Node 22, Type 0, BuildingBlock: IZENUY_clean_sbu_0, # of connection points: 6
#     Node 23, Type 0, BuildingBlock: IZENUY_clean_sbu_0, # of connection points: 6
#     Edge 24, Type (0, 0), BuildingBlock: ZUJKAS_clean_linker_0, # of connection points: 2
#     Edge 25, Type (0, 0), BuildingBlock: ZUJKAS_clean_linker_0, # of connection points: 2
#     Edge 26, Type (0, 0), BuildingBlock: ZUJKAS_clean_linker_0, # of connection points: 2
#     Edge 27, Type (0, 0), BuildingBlock: ZUJKAS_clean_linker_0, # of connection points: 2
#     Edge 28, Type (0, 0), BuildingBlock: ZUJKAS_clean_linker_0, # of connection points: 2
#     Edge 29, Type (0, 0), BuildingBlock: ZUJKAS_clean_linker_0, # of connection points: 2
#     Edge 30, Type (0, 0), BuildingBlock: ZUJKAS_clean_linker_0, # of connection points: 2
#     Edge 31, Type (0, 0), BuildingBlock: ZUJKAS_clean_linker_0, # of connection points: 2
#     Edge 32, Type (0, 0), BuildingBlock: ZUJKAS_clean_linker_0, # of connection points: 2
#     Edge 33, Type (0, 0), BuildingBlock: ZUJKAS_clean_linker_0, # of connection points: 2
#     Edge 34, Type (0, 0), BuildingBlock: ZUJKAS_clean_linker_0, # of connection points: 2
#     Edge 35, Type (0, 0), BuildingBlock: ZUJKAS_clean_linker_0, # of connection points: 2
#     Edge 36, Type (0, 0), BuildingBlock: ZUJKAS_clean_linker_0, # of connection points: 2
#     Edge 37, Type (0, 0), BuildingBlock: ZUJKAS_clean_linker_0, # of connection points: 2
#     Edge 38, Type (0, 0), BuildingBlock: ZUJKAS_clean_linker_0, # of connection points: 2
#     Edge 39, Type (0, 0), BuildingBlock: ZUJKAS_clean_linker_0, # of connection points: 2
#     Edge 40, Type (0, 0), BuildingBlock: ZUJKAS_clean_linker_0, # of connection points: 2
#     Edge 41, Type (0, 0), BuildingBlock: ZUJKAS_clean_linker_0, # of connection points: 2
#     Edge 42, Type (0, 0), BuildingBlock: ZUJKAS_clean_linker_0, # of connection points: 2
#     Edge 43, Type (0, 0), BuildingBlock: ZUJKAS_clean_linker_0, # of connection points: 2
#     Edge 44, Type (0, 0), BuildingBlock: ZUJKAS_clean_linker_0, # of connection points: 2
#     Edge 45, Type (0, 0), BuildingBlock: ZUJKAS_clean_linker_0, # of connection points: 2
#     Edge 46, Type (0, 0), BuildingBlock: ZUJKAS_clean_linker_0, # of connection points: 2
#     Edge 47, Type (0, 0), BuildingBlock: ZUJKAS_clean_linker_0, # of connection points: 2
#     Edge 48, Type (0, 0), BuildingBlock: ZUJKAS_clean_linker_0, # of connection points: 2
#     Edge 49, Type (0, 0), BuildingBlock: ZUJKAS_clean_linker_0, # of connection points: 2
#     Edge 50, Type (0, 0), BuildingBlock: ZUJKAS_clean_linker_0, # of connection points: 2
#     Edge 51, Type (0, 0), BuildingBlock: ZUJKAS_clean_linker_0, # of connection points: 2
#     Edge 52, Type (0, 0), BuildingBlock: ZUJKAS_clean_linker_0, # of connection points: 2
#     Edge 53, Type (0, 0), BuildingBlock: ZUJKAS_clean_linker_0, # of connection points: 2
#     Edge 54, Type (0, 0), BuildingBlock: ZUJKAS_clean_linker_0, # of connection points: 2
#     Edge 55, Type (0, 0), BuildingBlock: ZUJKAS_clean_linker_0, # of connection points: 2
#     Edge 56, Type (0, 0), BuildingBlock: ZUJKAS_clean_linker_0, # of connection points: 2
#     Edge 57, Type (0, 0), BuildingBlock: ZUJKAS_clean_linker_0, # of connection points: 2
#     Edge 58, Type (0, 0), BuildingBlock: ZUJKAS_clean_linker_0, # of connection points: 2
#     Edge 59, Type (0, 0), BuildingBlock: ZUJKAS_clean_linker_0, # of connection points: 2
#     Edge 60, Type (0, 0), BuildingBlock: ZUJKAS_clean_linker_0, # of connection points: 2
#     Edge 61, Type (0, 0), BuildingBlock: ZUJKAS_clean_linker_0, # of connection points: 2
#     Edge 62, Type (0, 0), BuildingBlock: ZUJKAS_clean_linker_0, # of connection points: 2
#     Edge 63, Type (0, 0), BuildingBlock: ZUJKAS_clean_linker_0, # of connection points: 2
#     Edge 64, Type (0, 0), BuildingBlock: ZUJKAS_clean_linker_0, # of connection points: 2
#     Edge 65, Type (0, 0), BuildingBlock: ZUJKAS_clean_linker_0, # of connection points: 2
#     Edge 66, Type (0, 0), BuildingBlock: ZUJKAS_clean_linker_0, # of connection points: 2
#     Edge 67, Type (0, 0), BuildingBlock: ZUJKAS_clean_linker_0, # of connection points: 2
#     Edge 68, Type (0, 0), BuildingBlock: ZUJKAS_clean_linker_0, # of connection points: 2
#     Edge 69, Type (0, 0), BuildingBlock: ZUJKAS_clean_linker_0, # of connection points: 2
#     Edge 70, Type (0, 0), BuildingBlock: ZUJKAS_clean_linker_0, # of connection points: 2
#     Edge 71, Type (0, 0), BuildingBlock: ZUJKAS_clean_linker_0, # of connection points: 2
#     Edge 72, Type (0, 0), BuildingBlock: ZUJKAS_clean_linker_0, # of connection points: 2
#     Edge 73, Type (0, 0), BuildingBlock: ZUJKAS_clean_linker_0, # of connection points: 2
#     Edge 74, Type (0, 0), BuildingBlock: ZUJKAS_clean_linker_0, # of connection points: 2
#     Edge 75, Type (0, 0), BuildingBlock: ZUJKAS_clean_linker_0, # of connection points: 2
#     Edge 76, Type (0, 0), BuildingBlock: ZUJKAS_clean_linker_0, # of connection points: 2
#     Edge 77, Type (0, 0), BuildingBlock: ZUJKAS_clean_linker_0, # of connection points: 2
#     Edge 78, Type (0, 0), BuildingBlock: ZUJKAS_clean_linker_0, # of connection points: 2
#     Edge 79, Type (0, 0), BuildingBlock: ZUJKAS_clean_linker_0, # of connection points: 2
#     Edge 80, Type (0, 0), BuildingBlock: ZUJKAS_clean_linker_0, # of connection points: 2
#     Edge 81, Type (0, 0), BuildingBlock: ZUJKAS_clean_linker_0, # of connection points: 2
#     Edge 82, Type (0, 0), BuildingBlock: ZUJKAS_clean_linker_0, # of connection points: 2
#     Edge 83, Type (0, 0), BuildingBlock: ZUJKAS_clean_linker_0, # of connection points: 2
#     Edge 84, Type (0, 0), BuildingBlock: ZUJKAS_clean_linker_0, # of connection points: 2
#     Edge 85, Type (0, 0), BuildingBlock: ZUJKAS_clean_linker_0, # of connection points: 2
#     Edge 86, Type (0, 0), BuildingBlock: ZUJKAS_clean_linker_0, # of connection points: 2
#     Edge 87, Type (0, 0), BuildingBlock: ZUJKAS_clean_linker_0, # of connection points: 2
#     Edge 88, Type (0, 0), BuildingBlock: ZUJKAS_clean_linker_0, # of connection points: 2
#     Edge 89, Type (0, 0), BuildingBlock: ZUJKAS_clean_linker_0, # of connection points: 2
#     Edge 90, Type (0, 0), BuildingBlock: ZUJKAS_clean_linker_0, # of connection points: 2
#     Edge 91, Type (0, 0), BuildingBlock: ZUJKAS_clean_linker_0, # of connection points: 2
#     Edge 92, Type (0, 0), BuildingBlock: ZUJKAS_clean_linker_0, # of connection points: 2
#     Edge 93, Type (0, 0), BuildingBlock: ZUJKAS_clean_linker_0, # of connection points: 2
#     Edge 94, Type (0, 0), BuildingBlock: ZUJKAS_clean_linker_0, # of connection points: 2
#     Edge 95, Type (0, 0), BuildingBlock: ZUJKAS_clean_linker_0, # of connection points: 2
# Relax obj value: 0.411
# Max RMSD: 0.249
# Mean RMSD: 0.249
data_MOF--net-sxi--node1-IZENUY_clean_sbu_0--edge1-ZUJKAS_clean_linker_0
_symmetry_space_group_name_H-M    P1
_symmetry_Int_Tables_number       1
_symmetry_cell_setting            triclinic
loop_
_symmetry_equiv_pos_as_xyz
'x, y, z'
_cell_length_a     60.151402
_cell_length_b     60.15342
_cell_length_c     60.161262
_cell_angle_alpha  89.999914
_cell_angle_beta   89.972772
_cell_angle_gamma 90.021581
loop_
_atom_site_label
_atom_site_type_symbol
_atom_site_fract_x
_atom_site_fract_y
_atom_site_fract_z
_atom_type_partial_charge
Fe0 Fe 0.01916 0.32855 0.40468 0.0
Fe1 Fe 0.06176 0.34279 0.37997 0.0
O2 O 0.03766 0.34955 0.3957 0.0
Fe3 Fe 0.03225 0.37747 0.40277 0.0
O4 O 0.01809 0.3714 0.42913 0.0
O5 O 0.02266 0.33561 0.43381 0.0
O6 O 0.041 0.30745 0.4088 0.0
C7 C 0.0618 0.3097 0.41151 0.0
C8 C 0.9908 0.36399 0.39152 0.0
O9 O 0.07221 0.32541 0.40225 0.0
C10 C 0.04921 0.381 0.35873 0.0
O11 O 0.01402 0.32005 0.37646 0.0
O12 O 0.04886 0.31833 0.36573 0.0
O13 O 0.00642 0.37739 0.38761 0.0
O14 O 0.99426 0.34606 0.40209 0.0
C15 C 0.07661 0.37587 0.41023 0.0
O16 O 0.05298 0.36035 0.35664 0.0
O17 O 0.04535 0.38915 0.37777 0.0
C18 C 0.02857 0.31272 0.36341 0.0
O19 O 0.07895 0.36565 0.39185 0.0
O20 O 0.05762 0.37876 0.41845 0.0
C21 C 0.01866 0.35457 0.44171 0.0
Fe22 Fe 0.91622 0.81343 0.62994 0.0
Fe23 Fe 0.87926 0.78134 0.64483 0.0
O24 O 0.90776 0.78849 0.64321 0.0
Fe25 Fe 0.92788 0.77071 0.65514 0.0
O26 O 0.93687 0.79231 0.67404 0.0
O27 O 0.94031 0.81812 0.64839 0.0
O28 O 0.89993 0.83005 0.64969 0.0
C29 C 0.87942 0.82718 0.65344 0.0
C30 C 0.94812 0.784 0.61531 0.0
O31 O 0.86948 0.80995 0.64681 0.0
C32 C 0.90045 0.74066 0.63528 0.0
O33 O 0.89325 0.81343 0.60931 0.0
O34 O 0.87646 0.78147 0.61485 0.0
O35 O 0.94961 0.77756 0.63521 0.0
O36 O 0.9333 0.79794 0.60966 0.0
C37 C 0.89298 0.76877 0.6864 0.0
O38 O 0.88407 0.75145 0.64285 0.0
O39 O 0.91998 0.74809 0.63693 0.0
C40 C 0.87991 0.79833 0.60286 0.0
O41 O 0.87986 0.78072 0.6752 0.0
O42 O 0.90998 0.76041 0.67737 0.0
C43 C 0.94412 0.81101 0.66791 0.0
Fe44 Fe 0.48006 0.68078 0.90463 0.0
Fe45 Fe 0.43893 0.66582 0.87868 0.0
O46 O 0.46411 0.65921 0.89246 0.0
Fe47 Fe 0.47335 0.63135 0.89425 0.0
O48 O 0.47421 0.63213 0.9246 0.0
O49 O 0.49185 0.66386 0.92685 0.0
O50 O 0.45751 0.68761 0.92335 0.0
C51 C 0.43846 0.69346 0.91685 0.0
C52 C 0.51235 0.65592 0.88483 0.0
O53 O 0.43225 0.6896 0.89703 0.0
C54 C 0.4564 0.63018 0.85218 0.0
O55 O 0.47151 0.70213 0.88478 0.0
O56 O 0.45384 0.68373 0.85868 0.0
O57 O 0.5027 0.63861 0.89195 0.0
O58 O 0.5035 0.67488 0.88662 0.0
C59 C 0.42707 0.62822 0.90204 0.0
O60 O 0.44063 0.64286 0.85821 0.0
O61 O 0.47335 0.62802 0.86428 0.0
C62 C 0.46568 0.70012 0.86475 0.0
O63 O 0.4229 0.64845 0.89792 0.0
O64 O 0.44547 0.61958 0.89665 0.0
C65 C 0.48533 0.64602 0.93571 0.0
Fe66 Fe 0.58786 0.18609 0.13219 0.0
Fe67 Fe 0.62085 0.22246 0.14622 0.0
O68 O 0.59335 0.21214 0.14474 0.0
Fe69 Fe 0.57111 0.22789 0.15587 0.0
O70 O 0.56432 0.20604 0.17548 0.0
O71 O 0.56401 0.17943 0.15043 0.0
O72 O 0.60542 0.17189 0.15262 0.0
C73 C 0.62544 0.17706 0.15655 0.0
C74 C 0.55312 0.21109 0.11637 0.0
O75 O 0.63362 0.19514 0.14966 0.0
C76 C 0.59524 0.26008 0.13483 0.0
O77 O 0.61105 0.18767 0.11192 0.0
O78 O 0.62432 0.22136 0.11623 0.0
O79 O 0.55047 0.21784 0.13603 0.0
O80 O 0.56983 0.1993 0.11121 0.0
C81 C 0.60538 0.23521 0.18717 0.0
O82 O 0.61268 0.25152 0.14292 0.0
O83 O 0.57664 0.25055 0.13676 0.0
C84 C 0.62291 0.20373 0.10497 0.0
O85 O 0.61976 0.22432 0.17645 0.0
O86 O 0.58745 0.24104 0.17793 0.0
C87 C 0.55902 0.18656 0.1697 0.0
Fe88 Fe 0.52447 0.1802 0.60224 0.0
Fe89 Fe 0.56525 0.16551 0.62885 0.0
O90 O 0.54014 0.1588 0.61496 0.0
Fe91 Fe 0.53075 0.13094 0.61353 0.0
O92 O 0.53036 0.13114 0.58315 0.0
O93 O 0.51296 0.16296 0.58015 0.0
O94 O 0.54721 0.18673 0.5837 0.0
C95 C 0.56624 0.19265 0.5902 0.0
C96 C 0.49154 0.15587 0.62153 0.0
O97 O 0.5724 0.18885 0.61007 0.0
C98 C 0.54701 0.13062 0.65589 0.0
O99 O 0.53288 0.20179 0.6218 0.0
O100 O 0.55046 0.18402 0.64839 0.0
O101 O 0.50135 0.13836 0.61515 0.0
O102 O 0.50074 0.17468 0.61998 0.0
C103 C 0.57696 0.12751 0.6062 0.0
O104 O 0.56307 0.14293 0.64978 0.0
O105 O 0.53024 0.12831 0.64356 0.0
C106 C 0.53888 0.2004 0.64184 0.0
O107 O 0.58119 0.14775 0.61001 0.0
O108 O 0.55863 0.1189 0.61183 0.0
C109 C 0.51954 0.14497 0.57165 0.0
Fe110 Fe 0.0891 0.31594 0.87685 0.0
Fe111 Fe 0.12609 0.28516 0.85959 0.0
O112 O 0.09753 0.29167 0.86239 0.0
Fe113 Fe 0.07738 0.27398 0.85034 0.0
O114 O 0.06756 0.29615 0.83256 0.0
O115 O 0.06453 0.32106 0.85916 0.0
O116 O 0.1047 0.33366 0.85754 0.0
C117 C 0.12516 0.33135 0.85331 0.0
C118 C 0.0573 0.2863 0.89091 0.0
O119 O 0.13546 0.31394 0.85874 0.0
C120 C 0.10597 0.2434 0.86733 0.0
O121 O 0.11251 0.31529 0.89694 0.0
O122 O 0.12973 0.28395 0.88947 0.0
O123 O 0.05594 0.27962 0.87107 0.0
O124 O 0.07258 0.29959 0.89681 0.0
C125 C 0.11146 0.27395 0.81799 0.0
O126 O 0.1218 0.25521 0.86013 0.0
O127 O 0.08628 0.25068 0.86735 0.0
C128 C 0.12626 0.30015 0.90235 0.0
O129 O 0.12459 0.2859 0.82923 0.0
O130 O 0.09484 0.26499 0.82718 0.0
C131 C 0.06035 0.31455 0.83952 0.0
Fe132 Fe 0.97066 0.87799 0.09984 0.0
Fe133 Fe 0.98429 0.82927 0.09738 0.0
O134 O 0.96598 0.84999 0.10719 0.0
Fe135 Fe 0.94277 0.84283 0.12401 0.0
O136 O 0.9246 0.86532 0.11289 0.0
O137 O 0.94452 0.87896 0.08545 0.0
O138 O 0.98363 0.872 0.07278 0.0
C139 C 0.98274 0.85508 0.0603 0.0
C140 C 0.95588 0.88116 0.1447 0.0
O141 O 0.97901 0.83617 0.06849 0.0
C142 C 0.97728 0.81356 0.13914 0.0
O143 O 0.99729 0.87836 0.11363 0.0
O144 O 0.00901 0.8472 0.09848 0.0
O145 O 0.95244 0.86048 0.14685 0.0
O146 O 0.95864 0.88948 0.12552 0.0
C147 C 0.9418 0.80967 0.09263 0.0
O148 O 0.99106 0.82103 0.12534 0.0
O149 O 0.95677 0.81867 0.13767 0.0
C150 C 0.01287 0.8653 0.1086 0.0
O151 O 0.9627 0.80773 0.09456 0.0
O152 O 0.93155 0.82524 0.10225 0.0
C153 C 0.92594 0.87553 0.0944 0.0
Fe154 Fe 0.37994 0.71759 0.35684 0.0
Fe155 Fe 0.42877 0.7258 0.34533 0.0
O156 O 0.40821 0.70972 0.35876 0.0
Fe157 Fe 0.4162 0.68582 0.37398 0.0
O158 O 0.39959 0.66816 0.35552 0.0
O159 O 0.36951 0.68909 0.35666 0.0
O160 O 0.38029 0.71633 0.32648 0.0
C161 C 0.39342 0.7275 0.31451 0.0
C162 C 0.38008 0.70335 0.39988 0.0
O163 O 0.41097 0.7355 0.32276 0.0
C164 C 0.4487 0.7158 0.38584 0.0
O165 O 0.38581 0.74741 0.35691 0.0
O166 O 0.42195 0.74979 0.36225 0.0
O167 O 0.3932 0.68766 0.39453 0.0
O168 O 0.37716 0.71948 0.38683 0.0
C169 C 0.44369 0.68429 0.33557 0.0
O170 O 0.45049 0.71923 0.36525 0.0
O171 O 0.43359 0.70283 0.39299 0.0
C172 C 0.40269 0.758 0.36371 0.0
O173 O 0.43661 0.70251 0.32786 0.0
O174 O 0.44014 0.67917 0.35579 0.0
C175 C 0.37923 0.6713 0.35119 0.0
Fe176 Fe 0.39725 0.02854 0.3764 0.0
Fe177 Fe 0.40007 0.01913 0.3268 0.0
O178 O 0.39146 0.03655 0.3488 0.0
Fe179 Fe 0.3775 0.062 0.34341 0.0
O180 O 0.39036 0.07681 0.36747 0.0
O181 O 0.41467 0.05247 0.37999 0.0
O182 O 0.42265 0.0129 0.36987 0.0
C183 C 0.436 0.01441 0.35369 0.0
C184 C 0.35459 0.04841 0.38034 0.0
O185 O 0.42911 0.02078 0.33498 0.0
C186 C 0.35947 0.03164 0.31123 0.0
O187 O 0.38026 0.00396 0.37394 0.0
O188 O 0.39557 0.99331 0.34246 0.0
O189 O 0.35331 0.05373 0.36001 0.0
O190 O 0.37306 0.0426 0.38857 0.0
C191 C 0.40956 0.06238 0.31073 0.0
O192 O 0.37195 0.01606 0.31729 0.0
O193 O 0.36276 0.05145 0.31807 0.0
C194 C 0.38385 0.98919 0.35953 0.0
O195 O 0.40588 0.04194 0.30722 0.0
O196 O 0.40065 0.07222 0.32697 0.0
C197 C 0.40826 0.07225 0.37785 0.0
Fe198 Fe 0.22597 0.15607 0.57379 0.0
Fe199 Fe 0.1849 0.13013 0.58917 0.0
O200 O 0.21028 0.14372 0.59543 0.0
Fe201 Fe 0.21975 0.14524 0.62324 0.0
O202 O 0.22018 0.17557 0.62277 0.0
O203 O 0.23735 0.17856 0.59077 0.0
O204 O 0.20325 0.17451 0.56668 0.0
C205 C 0.18426 0.16785 0.56076 0.0
C206 C 0.25889 0.13701 0.59842 0.0
O207 O 0.17795 0.14823 0.56535 0.0
C208 C 0.20294 0.10326 0.62426 0.0
O209 O 0.21761 0.13586 0.55271 0.0
O210 O 0.19932 0.11 0.57109 0.0
O211 O 0.2491 0.14355 0.61585 0.0
O212 O 0.24975 0.1385 0.5796 0.0
C213 C 0.17401 0.15373 0.62674 0.0
O214 O 0.18681 0.1097 0.61223 0.0
O215 O 0.22008 0.1152 0.62603 0.0
C216 C 0.21122 0.11595 0.55468 0.0
O217 O 0.16952 0.14984 0.60657 0.0
O218 O 0.19197 0.1471 0.63534 0.0
C219 C 0.23096 0.18704 0.60888 0.0
Fe220 Fe 0.101 0.97819 0.82431 0.0
Fe221 Fe 0.12733 0.93718 0.83901 0.0
O222 O 0.11329 0.9622 0.84574 0.0
Fe223 Fe 0.11152 0.97128 0.87366 0.0
O224 O 0.08122 0.97167 0.87311 0.0
O225 O 0.07845 0.98933 0.84134 0.0
O226 O 0.08263 0.95558 0.81704 0.0
C227 C 0.08925 0.93659 0.81113 0.0
C228 C 0.12014 0.01065 0.8495 0.0
O229 O 0.10901 0.93036 0.81527 0.0
C230 C 0.1538 0.95498 0.87447 0.0
O231 O 0.12105 0.97016 0.80296 0.0
O232 O 0.14717 0.95227 0.82112 0.0
O233 O 0.1131 1.00072 0.86666 0.0
O234 O 0.11876 1.00177 0.83053 0.0
C235 C 0.10424 0.92496 0.87657 0.0
O236 O 0.14782 0.93906 0.86194 0.0
O237 O 0.14152 0.9718 0.87668 0.0
C238 C 0.14106 0.96424 0.80488 0.0
O239 O 0.10826 0.92095 0.8563 0.0
O240 O 0.1097 0.94329 0.88531 0.0
C241 C 0.06984 0.98252 0.85923 0.0
Fe242 Fe 0.31351 0.87469 0.09044 0.0
Fe243 Fe 0.2769 0.8611 0.12338 0.0
O244 O 0.28733 0.86248 0.09593 0.0
Fe245 Fe 0.27157 0.85141 0.07373 0.0
O246 O 0.29317 0.83136 0.06743 0.0
O247 O 0.31995 0.85625 0.06669 0.0
O248 O 0.32739 0.85414 0.10809 0.0
C249 C 0.32212 0.8502 0.12808 0.0
C250 C 0.28903 0.89051 0.05544 0.0
O251 O 0.30416 0.85741 0.13624 0.0
C252 C 0.2397 0.87317 0.09748 0.0
O253 O 0.31206 0.89507 0.1135 0.0
O254 O 0.27832 0.89108 0.12681 0.0
O255 O 0.28213 0.87087 0.05293 0.0
O256 O 0.30061 0.89573 0.07226 0.0
C257 C 0.26392 0.82025 0.10785 0.0
O258 O 0.24787 0.86477 0.11499 0.0
O259 O 0.24931 0.87099 0.07896 0.0
C260 C 0.29603 0.90222 0.12526 0.0
O261 O 0.27486 0.83084 0.12227 0.0
O262 O 0.25787 0.82976 0.09015 0.0
C263 C 0.31272 0.83691 0.06217 0.0
Fe264 Fe 0.8961 0.47061 0.6298 0.0
Fe265 Fe 0.90695 0.48033 0.67855 0.0
O266 O 0.89366 0.46361 0.6583 0.0
Fe267 Fe 0.87825 0.43995 0.66687 0.0
O268 O 0.8961 0.42151 0.6506 0.0
O269 O 0.89667 0.44186 0.62007 0.0
O270 O 0.92645 0.46961 0.63059 0.0
C271 C 0.93824 0.48101 0.64365 0.0
C272 C 0.85282 0.4566 0.62998 0.0
O273 O 0.92973 0.48957 0.66078 0.0
C274 C 0.86669 0.46923 0.69984 0.0
O275 O 0.89563 0.50052 0.63486 0.0
O276 O 0.89019 0.50417 0.67094 0.0
O277 O 0.85755 0.44155 0.64404 0.0
O278 O 0.86624 0.47226 0.62634 0.0
C279 C 0.91674 0.43911 0.69419 0.0
O280 O 0.88696 0.47455 0.7006 0.0
O281 O 0.8595 0.4571 0.68414 0.0
C282 C 0.88869 0.51161 0.65136 0.0
O283 O 0.92433 0.4573 0.68696 0.0
O284 O 0.89657 0.43373 0.69078 0.0
C285 C 0.9006 0.42391 0.63021 0.0
Fe286 Fe 0.77512 0.65673 0.9319 0.0
Fe287 Fe 0.81595 0.63023 0.91674 0.0
O288 O 0.79118 0.6448 0.91029 0.0
Fe289 Fe 0.78251 0.64775 0.88235 0.0
O290 O 0.78308 0.67804 0.8841 0.0
O291 O 0.76457 0.67997 0.91538 0.0
O292 O 0.79799 0.67446 0.94012 0.0
C293 C 0.8168 0.66733 0.94605 0.0
C294 C 0.74278 0.63894 0.90567 0.0
O295 O 0.82289 0.6477 0.94108 0.0
C296 C 0.79778 0.60514 0.88035 0.0
O297 O 0.78254 0.63585 0.95265 0.0
O298 O 0.8006 0.6101 0.93401 0.0
O299 O 0.75296 0.64662 0.88895 0.0
O300 O 0.75127 0.63967 0.92484 0.0
C301 C 0.82866 0.6544 0.88008 0.0
O302 O 0.81377 0.61038 0.89317 0.0
O303 O 0.78131 0.61793 0.87831 0.0
C304 C 0.78859 0.61589 0.95035 0.0
O305 O 0.83252 0.64971 0.90019 0.0
O306 O 0.81055 0.64914 0.87093 0.0
C307 C 0.77204 0.68917 0.89805 0.0
Fe308 Fe 0.60292 0.5168 0.18004 0.0
Fe309 Fe 0.62559 0.55957 0.16346 0.0
O310 O 0.6108 0.5346 0.15808 0.0
Fe311 Fe 0.60353 0.52755 0.1306 0.0
O312 O 0.57784 0.51266 0.13794 0.0
O313 O 0.57359 0.51921 0.17347 0.0
O314 O 0.5986 0.53938 0.20036 0.0
C315 C 0.59481 0.55988 0.19719 0.0
C316 C 0.61577 0.48707 0.14543 0.0
O317 O 0.6032 0.56989 0.18078 0.0
C318 C 0.64677 0.54616 0.12554 0.0
O319 O 0.63147 0.51291 0.18794 0.0
O320 O 0.64082 0.54822 0.18815 0.0
O321 O 0.6197 0.50235 0.13166 0.0
O322 O 0.60574 0.4912 0.16354 0.0
C323 C 0.59414 0.57159 0.13026 0.0
O324 O 0.64894 0.55096 0.14593 0.0
O325 O 0.62782 0.54106 0.11783 0.0
C326 C 0.64419 0.5282 0.19426 0.0
O327 O 0.61254 0.57526 0.14009 0.0
O328 O 0.5868 0.55213 0.12832 0.0
C329 C 0.56555 0.51352 0.15501 0.0
Fe330 Fe 0.72938 0.3593 0.38362 0.0
Fe331 Fe 0.73442 0.34989 0.43345 0.0
O332 O 0.71858 0.36055 0.41097 0.0
Fe333 Fe 0.692 0.37227 0.41613 0.0
O334 O 0.67851 0.3517 0.39811 0.0
O335 O 0.70255 0.3544 0.37058 0.0
O336 O 0.73252 0.32918 0.38487 0.0
C337 C 0.74314 0.31882 0.39964 0.0
C338 C 0.70915 0.39998 0.38128 0.0
O339 O 0.74872 0.32845 0.4174 0.0
C340 C 0.71567 0.38847 0.4517 0.0
O341 O 0.75801 0.36416 0.39226 0.0
O342 O 0.7565 0.36984 0.42843 0.0
O343 O 0.69329 0.39275 0.3932 0.0
O344 O 0.72704 0.38916 0.37982 0.0
C345 C 0.69338 0.33445 0.44453 0.0
O346 O 0.72324 0.36908 0.45404 0.0
O347 O 0.7042 0.3935 0.43472 0.0
C348 C 0.76572 0.37283 0.40981 0.0
O349 O 0.71318 0.32947 0.43965 0.0
O350 O 0.6856 0.35349 0.43963 0.0
C351 C 0.68462 0.34689 0.37853 0.0
Fe352 Fe 0.34444 0.3797 0.06388 0.0
Fe353 Fe 0.37975 0.40323 0.03555 0.0
O354 O 0.35167 0.39617 0.04043 0.0
Fe355 Fe 0.33096 0.40593 0.02207 0.0
O356 O 0.30956 0.4093 0.0437 0.0
O357 O 0.32703 0.40169 0.07489 0.0
O358 O 0.36702 0.39085 0.0818 0.0
C359 C 0.37744 0.40919 0.08024 0.0
C360 C 0.31485 0.36438 0.02975 0.0
O361 O 0.38094 0.41792 0.06155 0.0
C362 C 0.36664 0.39372 0.99357 0.0
O363 O 0.3619 0.3566 0.05451 0.0
O364 O 0.39105 0.37762 0.0478 0.0
O365 O 0.32234 0.37797 0.01576 0.0
O366 O 0.32015 0.36603 0.05018 0.0
C367 C 0.35718 0.44282 0.02291 0.0
O368 O 0.37993 0.38911 0.00908 0.0
O369 O 0.34872 0.40419 0.99734 0.0
C370 C 0.38257 0.35856 0.05089 0.0
O371 O 0.37398 0.43017 0.02225 0.0
O372 O 0.3382 0.43486 0.02683 0.0
C373 C 0.31147 0.41127 0.06459 0.0
Fe374 Fe 0.82544 0.10041 0.98438 0.0
Fe375 Fe 0.84127 0.12487 0.94228 0.0
O376 O 0.84712 0.10928 0.96667 0.0
Fe377 Fe 0.87482 0.10222 0.97319 0.0
O378 O 0.86816 0.07606 0.98752 0.0
O379 O 0.83267 0.07128 0.98128 0.0
O380 O 0.80515 0.09615 0.96182 0.0
C381 C 0.80817 0.09332 0.94114 0.0
C382 C 0.85973 0.11393 0.01391 0.0
O383 O 0.82424 0.10255 0.93128 0.0
C384 C 0.87903 0.14612 0.95608 0.0
O385 O 0.81678 0.1286 0.98913 0.0
O386 O 0.81636 0.13929 0.95423 0.0
O387 O 0.8738 0.11765 0.99885 0.0
O388 O 0.842 0.10323 0.00986 0.0
C389 C 0.8749 0.09444 0.92889 0.0
O390 O 0.85854 0.14821 0.95157 0.0
O391 O 0.88703 0.12709 0.9603 0.0
C392 C 0.81018 0.14176 0.97436 0.0
O393 O 0.86477 0.1128 0.92608 0.0
O394 O 0.8771 0.08628 0.948 0.0
C395 C 0.85132 0.06348 0.98667 0.0
Fe396 Fe 0.13159 0.58811 0.18631 0.0
Fe397 Fe 0.15051 0.62524 0.21594 0.0
O398 O 0.14674 0.5966 0.21016 0.0
Fe399 Fe 0.15851 0.57652 0.2282 0.0
O400 O 0.1754 0.5653 0.206 0.0
O401 O 0.14866 0.56314 0.18115 0.0
O402 O 0.15082 0.60299 0.16785 0.0
C403 C 0.15557 0.62336 0.16969 0.0
C404 C 0.11721 0.55716 0.21685 0.0
O405 O 0.15086 0.63405 0.18704 0.0
C406 C 0.14347 0.60658 0.25846 0.0
O407 O 0.11201 0.61195 0.1871 0.0
O408 O 0.12076 0.62976 0.21781 0.0
O409 O 0.13697 0.55565 0.22368 0.0
O410 O 0.11157 0.57224 0.20323 0.0
C411 C 0.19192 0.6096 0.22651 0.0
O412 O 0.15071 0.62174 0.24589 0.0
O413 O 0.14243 0.58669 0.25177 0.0
C414 C 0.10734 0.62615 0.20209 0.0
O415 O 0.18081 0.62282 0.21454 0.0
O416 O 0.18247 0.59342 0.23602 0.0
C417 C 0.16809 0.55814 0.18771 0.0
Fe418 Fe 0.6755 0.90565 0.4824 0.0
Fe419 Fe 0.66204 0.87887 0.44088 0.0
O420 O 0.65471 0.89536 0.46434 0.0
Fe421 Fe 0.62651 0.90182 0.46956 0.0
O422 O 0.63184 0.92909 0.48221 0.0
O423 O 0.66764 0.93443 0.47784 0.0
O424 O 0.69647 0.90942 0.46043 0.0
C425 C 0.69419 0.91134 0.43957 0.0
C426 C 0.64065 0.89278 0.51146 0.0
O427 O 0.67876 0.90129 0.42949 0.0
C428 C 0.62471 0.85689 0.45507 0.0
O429 O 0.68477 0.8779 0.48868 0.0
O430 O 0.68684 0.86589 0.45429 0.0
O431 O 0.62703 0.88812 0.49627 0.0
O432 O 0.65824 0.90365 0.50739 0.0
C433 C 0.62818 0.90727 0.42472 0.0
O434 O 0.64524 0.85537 0.45057 0.0
O435 O 0.61571 0.8757 0.45805 0.0
C436 C 0.69232 0.86439 0.47468 0.0
O437 O 0.63895 0.88918 0.42323 0.0
O438 O 0.62444 0.91606 0.44331 0.0
C439 C 0.64844 0.94198 0.48146 0.0
Fe440 Fe 0.34944 0.43151 0.73257 0.0
Fe441 Fe 0.3739 0.41488 0.69122 0.0
O442 O 0.36066 0.4093 0.71688 0.0
Fe443 Fe 0.35849 0.38178 0.72702 0.0
O444 O 0.32822 0.38337 0.72803 0.0
O445 O 0.32719 0.41522 0.74552 0.0
O446 O 0.33015 0.43824 0.71052 0.0
C447 C 0.33615 0.44337 0.69106 0.0
C448 C 0.36986 0.40715 0.76477 0.0
O449 O 0.35562 0.43866 0.68424 0.0
C450 C 0.40028 0.37945 0.70944 0.0
O451 O 0.36933 0.45227 0.72278 0.0
O452 O 0.39455 0.43289 0.70496 0.0
O453 O 0.3613 0.38991 0.75621 0.0
O454 O 0.36835 0.4258 0.75529 0.0
C455 C 0.3497 0.37738 0.68121 0.0
O456 O 0.39413 0.39171 0.69335 0.0
O457 O 0.38838 0.37785 0.72663 0.0
C458 C 0.38913 0.44969 0.71645 0.0
O459 O 0.35399 0.39737 0.67629 0.0
O460 O 0.35555 0.36911 0.6996 0.0
C461 C 0.3176 0.39771 0.73904 0.0
Fe462 Fe 0.1349 0.61334 0.52504 0.0
Fe463 Fe 0.18475 0.60371 0.52186 0.0
O464 O 0.16173 0.61434 0.53685 0.0
Fe465 Fe 0.16576 0.62589 0.56365 0.0
O466 O 0.14738 0.6049 0.57623 0.0
O467 O 0.12081 0.60887 0.55142 0.0
O468 O 0.13602 0.58322 0.52209 0.0
C469 C 0.15092 0.57289 0.51156 0.0
C470 C 0.13189 0.65385 0.54517 0.0
O471 O 0.16914 0.58227 0.50701 0.0
C472 C 0.20178 0.64252 0.54084 0.0
O473 O 0.14463 0.61768 0.49673 0.0
O474 O 0.18061 0.62357 0.4995 0.0
O475 O 0.14266 0.64618 0.56164 0.0
O476 O 0.13151 0.64329 0.52706 0.0
C477 C 0.19436 0.58828 0.56323 0.0
O478 O 0.20483 0.62301 0.53384 0.0
O479 O 0.18449 0.64733 0.55199 0.0
C480 C 0.16249 0.62579 0.48915 0.0
O481 O 0.1901 0.5833 0.54331 0.0
O482 O 0.18924 0.60734 0.57082 0.0
C483 C 0.12804 0.60032 0.56917 0.0
Fe484 Fe 0.64708 0.88009 0.78231 0.0
Fe485 Fe 0.65734 0.92921 0.77407 0.0
O486 O 0.64507 0.90826 0.79062 0.0
Fe487 Fe 0.63092 0.9157 0.81538 0.0
O488 O 0.65022 0.89901 0.83201 0.0
O489 O 0.64868 0.86928 0.81061 0.0
O490 O 0.67745 0.88097 0.78228 0.0
C491 C 0.68879 0.8945 0.77092 0.0
C492 C 0.60472 0.87944 0.79852 0.0
O493 O 0.67988 0.9119 0.76331 0.0
C494 C 0.61705 0.94857 0.78671 0.0
O495 O 0.64564 0.88619 0.75253 0.0
O496 O 0.63946 0.9222 0.75087 0.0
O497 O 0.61057 0.8925 0.81408 0.0
O498 O 0.61707 0.87683 0.78177 0.0
C499 C 0.66884 0.94395 0.81526 0.0
O500 O 0.63725 0.95057 0.7815 0.0
O501 O 0.61094 0.93311 0.79976 0.0
C502 C 0.638 0.90303 0.74249 0.0
O503 O 0.67571 0.93736 0.79654 0.0
O504 O 0.64906 0.93976 0.82149 0.0
C505 C 0.65438 0.87869 0.82849 0.0
Fe506 Fe 0.87551 0.08804 0.31734 0.0
Fe507 Fe 0.85936 0.12414 0.28473 0.0
O508 O 0.86094 0.09595 0.29297 0.0
Fe509 Fe 0.84788 0.07536 0.27657 0.0
O510 O 0.82967 0.0678 0.29931 0.0
O511 O 0.85661 0.06462 0.32389 0.0
O512 O 0.85741 0.10542 0.33468 0.0
C513 C 0.85381 0.1259 0.33129 0.0
C514 C 0.88772 0.05485 0.2882 0.0
O515 O 0.85861 0.13497 0.31298 0.0
C516 C 0.86733 0.10108 0.24476 0.0
O517 O 0.89656 0.11051 0.31544 0.0
O518 O 0.88939 0.12681 0.28356 0.0
O519 O 0.86732 0.05338 0.28375 0.0
O520 O 0.89457 0.07005 0.30114 0.0
C521 C 0.81722 0.1107 0.27401 0.0
O522 O 0.86011 0.11801 0.25496 0.0
O523 O 0.86564 0.08192 0.25313 0.0
C524 C 0.90217 0.1237 0.2999 0.0
O525 O 0.82896 0.1239 0.28534 0.0
O526 O 0.82573 0.09325 0.2661 0.0
C527 C 0.83663 0.06099 0.31792 0.0
H528 H 0.95359 0.33838 0.39333 0.0
H529 H 0.91511 0.3508 0.39096 0.0
H530 H 0.93713 0.41783 0.37813 0.0
H531 H 0.97589 0.40557 0.38051 0.0
H532 H 0.90605 0.41313 0.41395 0.0
H533 H 0.87727 0.37109 0.33743 0.0
H534 H 0.89231 0.35267 0.35544 0.0
H535 H 0.90633 0.37612 0.3432 0.0
C536 C 0.9503 0.3557 0.38966 0.0
C537 C 0.96775 0.37101 0.38722 0.0
C538 C 0.92832 0.36274 0.38819 0.0
C539 C 0.92341 0.38517 0.38419 0.0
C540 C 0.94071 0.40043 0.3811 0.0
H541 H 0.78063 0.39788 0.37573 0.0
H542 H 0.81885 0.40991 0.36918 0.0
C543 C 0.96278 0.39337 0.38241 0.0
C544 C 0.90013 0.3926 0.38518 0.0
H545 H 0.84915 0.37919 0.36495 0.0
C546 C 0.89355 0.40624 0.40293 0.0
C547 C 0.88403 0.38392 0.37054 0.0
C548 C 0.89036 0.37032 0.35044 0.0
C549 C 0.87099 0.40984 0.40753 0.0
C550 C 0.85483 0.39921 0.39421 0.0
C551 C 0.86153 0.38718 0.37534 0.0
C552 C 0.83119 0.39783 0.40072 0.0
C553 C 0.86472 0.42432 0.427 0.0
C554 C 0.82529 0.38797 0.42108 0.0
C555 C 0.80338 0.38133 0.42498 0.0
C556 C 0.78732 0.38403 0.40832 0.0
C557 C 0.79289 0.39538 0.38869 0.0
C558 C 0.81464 0.40234 0.38497 0.0
H559 H 0.8774 0.43747 0.42979 0.0
H560 H 0.84828 0.43232 0.4245 0.0
H561 H 0.86397 0.41398 0.44226 0.0
H562 H 0.83787 0.38385 0.43327 0.0
H563 H 0.79943 0.37255 0.4402 0.0
H564 H 0.88985 0.54635 0.68062 0.0
H565 H 0.88427 0.5856 0.67173 0.0
H566 H 0.86619 0.56804 0.60456 0.0
H567 H 0.87232 0.52887 0.61316 0.0
H568 H 0.89894 0.59767 0.60524 0.0
H569 H 0.83185 0.62585 0.66127 0.0
H570 H 0.85323 0.61172 0.67647 0.0
H571 H 0.83722 0.59678 0.65603 0.0
C572 C 0.88418 0.55085 0.66413 0.0
C573 C 0.88179 0.5347 0.64749 0.0
C574 C 0.88085 0.57324 0.6591 0.0
C575 C 0.87465 0.57965 0.63753 0.0
C576 C 0.87097 0.56339 0.62129 0.0
H577 H 0.86174 0.72264 0.62077 0.0
H578 H 0.85371 0.68326 0.61511 0.0
C579 C 0.87454 0.54107 0.62622 0.0
C580 C 0.87485 0.60332 0.63124 0.0
H581 H 0.85724 0.6543 0.6482 0.0
C582 C 0.88946 0.61005 0.61431 0.0
C583 C 0.86221 0.61936 0.64279 0.0
C584 C 0.84507 0.61301 0.65997 0.0
C585 C 0.89284 0.63258 0.6096 0.0
C586 C 0.88168 0.64866 0.62253 0.0
C587 C 0.86599 0.6419 0.63845 0.0
C588 C 0.88742 0.67245 0.62144 0.0
C589 C 0.90864 0.63889 0.59116 0.0
C590 C 0.9092 0.6794 0.62618 0.0
C591 C 0.91389 0.70189 0.62924 0.0
C592 C 0.89672 0.71764 0.62805 0.0
C593 C 0.87521 0.71077 0.62205 0.0
C594 C 0.8706 0.68833 0.61875 0.0
H595 H 0.90926 0.62578 0.57816 0.0
H596 H 0.90382 0.65486 0.58328 0.0
H597 H 0.92564 0.64068 0.59809 0.0
H598 H 0.92231 0.66735 0.62882 0.0
H599 H 0.9306 0.70674 0.63389 0.0
H600 H 0.70924 0.6416 0.93627 0.0
H601 H 0.66938 0.63923 0.92839 0.0
H602 H 0.68374 0.62054 0.86063 0.0
H603 H 0.72349 0.62329 0.86826 0.0
H604 H 0.65752 0.65736 0.8636 0.0
H605 H 0.62452 0.58984 0.91693 0.0
H606 H 0.64106 0.60959 0.93198 0.0
H607 H 0.65377 0.59274 0.91079 0.0
C608 C 0.70386 0.63635 0.91991 0.0
C609 C 0.71932 0.63289 0.90278 0.0
C610 C 0.68113 0.63495 0.91543 0.0
C611 C 0.67372 0.62969 0.89393 0.0
C612 C 0.6892 0.62468 0.87729 0.0
H613 H 0.53263 0.61956 0.86782 0.0
H614 H 0.57259 0.61309 0.86511 0.0
C615 C 0.71184 0.62626 0.88168 0.0
C616 C 0.65009 0.63219 0.88805 0.0
H617 H 0.59793 0.61577 0.90252 0.0
C618 C 0.64446 0.64805 0.87186 0.0
C619 C 0.63323 0.61989 0.89874 0.0
C620 C 0.63843 0.6019 0.91542 0.0
C621 C 0.62224 0.65248 0.8666 0.0
C622 C 0.60535 0.64101 0.87814 0.0
C623 C 0.611 0.62461 0.89377 0.0
C624 C 0.58165 0.64639 0.87524 0.0
C625 C 0.61707 0.66945 0.84888 0.0
C626 C 0.57363 0.66755 0.88096 0.0
C627 C 0.55078 0.67136 0.88234 0.0
C628 C 0.53581 0.65391 0.8784 0.0
C629 C 0.54389 0.63322 0.87117 0.0
C630 C 0.56666 0.62949 0.86961 0.0
H631 H 0.63122 0.67155 0.83719 0.0
H632 H 0.60206 0.66468 0.83925 0.0
H633 H 0.61387 0.68577 0.85687 0.0
H634 H 0.58499 0.68068 0.88572 0.0
H635 H 0.54496 0.68742 0.88805 0.0
H636 H 0.56285 0.28341 0.11265 0.0
H637 H 0.56462 0.32237 0.10072 0.0
H638 H 0.63185 0.32675 0.12544 0.0
H639 H 0.63054 0.28813 0.1365 0.0
H640 H 0.56804 0.35572 0.12709 0.0
H641 H 0.63912 0.36186 0.07046 0.0
H642 H 0.62661 0.3354 0.0772 0.0
H643 H 0.64831 0.34693 0.09447 0.0
C644 C 0.57813 0.29264 0.11511 0.0
C645 C 0.59648 0.28279 0.12571 0.0
C646 C 0.57916 0.31481 0.10817 0.0
C647 C 0.59853 0.32738 0.11176 0.0
C648 C 0.61701 0.31726 0.12171 0.0
H649 H 0.6143 0.4498 0.17098 0.0
H650 H 0.60896 0.4117 0.15808 0.0
C651 C 0.6161 0.29517 0.12837 0.0
C652 C 0.59861 0.35176 0.10871 0.0
H653 H 0.63423 0.39405 0.09616 0.0
C654 C 0.58217 0.36414 0.11969 0.0
C655 C 0.61666 0.36295 0.09855 0.0
C656 C 0.63347 0.351 0.0843 0.0
C657 C 0.58461 0.38703 0.12292 0.0
C658 C 0.60434 0.39754 0.11563 0.0
C659 C 0.61952 0.38573 0.10247 0.0
C660 C 0.6102 0.42014 0.1231 0.0
C661 C 0.56643 0.39954 0.13487 0.0
C662 C 0.61436 0.43709 0.1077 0.0
C663 C 0.6179 0.45882 0.11504 0.0
C664 C 0.6172 0.46382 0.1379 0.0
C665 C 0.61463 0.44648 0.15329 0.0
C666 C 0.61134 0.42478 0.14593 0.0
H667 H 0.54997 0.3916 0.13212 0.0
H668 H 0.56977 0.39929 0.15301 0.0
H669 H 0.56553 0.41712 0.1293 0.0
H670 H 0.61391 0.43371 0.09002 0.0
H671 H 0.61988 0.47184 0.10276 0.0
H672 H 0.46896 0.11993 0.6367 0.0
H673 H 0.42872 0.11445 0.63591 0.0
H674 H 0.41981 0.18242 0.61485 0.0
H675 H 0.46009 0.18819 0.61603 0.0
H676 H 0.38715 0.16748 0.64442 0.0
H677 H 0.39991 0.10874 0.5743 0.0
H678 H 0.4146 0.10146 0.59923 0.0
H679 H 0.4217 0.12657 0.58465 0.0
C680 C 0.45838 0.13384 0.63237 0.0
C681 C 0.46758 0.15437 0.62606 0.0
C682 C 0.43547 0.13065 0.63181 0.0
C683 C 0.4215 0.14783 0.62465 0.0
C684 C 0.43046 0.1689 0.62017 0.0
H685 H 0.29087 0.14285 0.56664 0.0
H686 H 0.3311 0.14314 0.57295 0.0
C687 C 0.45341 0.1722 0.62094 0.0
C688 C 0.39784 0.14339 0.62025 0.0
H689 H 0.36308 0.11253 0.5877 0.0
C690 C 0.38183 0.15544 0.63209 0.0
C691 C 0.39112 0.12798 0.60378 0.0
C692 C 0.4077 0.11558 0.58958 0.0
C693 C 0.35912 0.15231 0.62807 0.0
C694 C 0.35239 0.13634 0.61215 0.0
C695 C 0.3684 0.12448 0.60012 0.0
C696 C 0.32873 0.13245 0.60724 0.0
C697 C 0.34258 0.16653 0.64049 0.0
C698 C 0.31439 0.1251 0.62404 0.0
C699 C 0.29153 0.12505 0.62054 0.0
C700 C 0.28274 0.13206 0.60008 0.0
C701 C 0.29724 0.13738 0.58257 0.0
C702 C 0.32016 0.13765 0.58618 0.0
H703 H 0.35052 0.18152 0.64781 0.0
H704 H 0.32888 0.17197 0.62938 0.0
H705 H 0.33523 0.1567 0.65427 0.0
H706 H 0.32083 0.12046 0.64021 0.0
H707 H 0.28067 0.12055 0.6342 0.0
H708 H 0.14611 0.22278 0.86656 0.0
H709 H 0.15309 0.18312 0.86446 0.0
H710 H 0.08333 0.17002 0.87493 0.0
H711 H 0.07591 0.21006 0.87607 0.0
H712 H 0.14786 0.14804 0.89008 0.0
H713 H 0.09414 0.14065 0.81561 0.0
H714 H 0.10157 0.16712 0.82753 0.0
H715 H 0.07936 0.15092 0.83938 0.0
C716 C 0.13219 0.21153 0.86862 0.0
C717 C 0.11033 0.21956 0.87086 0.0
C718 C 0.13627 0.18884 0.86748 0.0
C719 C 0.11864 0.17374 0.86882 0.0
C720 C 0.09705 0.18155 0.87311 0.0
H721 H 0.12056 0.03531 0.88727 0.0
H722 H 0.12501 0.07514 0.89044 0.0
C723 C 0.09286 0.20437 0.87397 0.0
C724 C 0.12286 0.15 0.86449 0.0
H725 H 0.10701 0.1068 0.83152 0.0
C726 C 0.13904 0.13903 0.87719 0.0
C727 C 0.11197 0.13856 0.84707 0.0
C728 C 0.09599 0.14997 0.83145 0.0
C729 C 0.14391 0.11656 0.87359 0.0
C730 C 0.13172 0.10469 0.85738 0.0
C731 C 0.11625 0.11592 0.84404 0.0
C732 C 0.13272 0.08027 0.85565 0.0
C733 C 0.16206 0.10584 0.88719 0.0
C734 C 0.13546 0.06984 0.83494 0.0
C735 C 0.13238 0.04691 0.83291 0.0
C736 C 0.12648 0.0342 0.85161 0.0
C737 C 0.12499 0.04459 0.87249 0.0
C738 C 0.12783 0.06741 0.87443 0.0
H739 H 0.17511 0.11814 0.89164 0.0
H740 H 0.15487 0.09945 0.90293 0.0
H741 H 0.16997 0.09182 0.87816 0.0
H742 H 0.13913 0.07956 0.82023 0.0
H743 H 0.13381 0.03932 0.81664 0.0
H744 H 0.02756 0.90814 0.11352 0.0
H745 H 0.06589 0.92135 0.10947 0.0
H746 H 0.08851 0.8536 0.10315 0.0
H747 H 0.05038 0.8403 0.10668 0.0
H748 H 0.10491 0.91375 0.13208 0.0
H749 H 0.11132 0.88235 0.04625 0.0
H750 H 0.08503 0.88479 0.06057 0.0
H751 H 0.10227 0.8606 0.0645 0.0
C752 C 0.04076 0.89605 0.11157 0.0
C753 C 0.03599 0.87319 0.11008 0.0
C754 C 0.06258 0.90365 0.10914 0.0
C755 C 0.07982 0.88847 0.10528 0.0
C756 C 0.07527 0.8656 0.10536 0.0
H757 H 0.21012 0.8706 0.13152 0.0
H758 H 0.17181 0.88296 0.13176 0.0
C759 C 0.05353 0.85802 0.10757 0.0
C760 C 0.10269 0.89614 0.10096 0.0
H761 H 0.14623 0.88561 0.06648 0.0
C762 C 0.1139 0.90811 0.11751 0.0
C763 C 0.11415 0.88968 0.08149 0.0
C764 C 0.10246 0.87889 0.06209 0.0
C765 C 0.13692 0.91153 0.11618 0.0
C766 C 0.14888 0.90212 0.09823 0.0
C767 C 0.1372 0.89245 0.08051 0.0
C768 C 0.17317 0.89844 0.09925 0.0
C769 C 0.14824 0.92441 0.13447 0.0
C770 C 0.18674 0.90266 0.08071 0.0
C771 C 0.20866 0.89497 0.08026 0.0
C772 C 0.2173 0.88302 0.09838 0.0
C773 C 0.20399 0.87977 0.11729 0.0
C774 C 0.1821 0.88717 0.1176 0.0
H775 H 0.13743 0.93819 0.14033 0.0
H776 H 0.15118 0.91325 0.14886 0.0
H777 H 0.16439 0.93146 0.12893 0.0
H778 H 0.18012 0.91114 0.06627 0.0
H779 H 0.21864 0.89792 0.06554 0.0
H780 H 0.36637 0.78408 0.35753 0.0
H781 H 0.36263 0.82343 0.36572 0.0
H782 H 0.42817 0.82392 0.3949 0.0
H783 H 0.43244 0.78438 0.38595 0.0
H784 H 0.36425 0.84949 0.40258 0.0
H785 H 0.43435 0.86831 0.34494 0.0
H786 H 0.4225 0.8409 0.34718 0.0
H787 H 0.44107 0.85102 0.3683 0.0
C788 C 0.37998 0.79245 0.36583 0.0
C789 C 0.39991 0.78128 0.37066 0.0
C790 C 0.37774 0.81493 0.37064 0.0
C791 C 0.39525 0.82662 0.38058 0.0
C792 C 0.41466 0.81524 0.38677 0.0
H793 H 0.38086 0.97046 0.40074 0.0
H794 H 0.38201 0.93069 0.40917 0.0
C795 C 0.41707 0.79272 0.38164 0.0
C796 C 0.39367 0.85102 0.38219 0.0
H797 H 0.41464 0.89841 0.35939 0.0
C798 C 0.37539 0.8603 0.39339 0.0
C799 C 0.40818 0.86492 0.36997 0.0
C800 C 0.42753 0.85585 0.35676 0.0
C801 C 0.37062 0.88306 0.39182 0.0
C802 C 0.38481 0.89677 0.37911 0.0
C803 C 0.40372 0.88768 0.36895 0.0
C804 C 0.37994 0.92036 0.37477 0.0
C805 C 0.34993 0.89204 0.40277 0.0
C806 C 0.37788 0.9276 0.3527 0.0
C807 C 0.37761 0.95019 0.34782 0.0
C808 C 0.37918 0.96588 0.36498 0.0
C809 C 0.37947 0.95865 0.38721 0.0
C810 C 0.38008 0.93597 0.39207 0.0
H811 H 0.33842 0.87854 0.40795 0.0
H812 H 0.35468 0.9016 0.41781 0.0
H813 H 0.34094 0.90346 0.39139 0.0
H814 H 0.37766 0.91572 0.33915 0.0
H815 H 0.37724 0.9554 0.33058 0.0
H816 H 0.34031 0.3903 0.95728 0.0
H817 H 0.35183 0.39244 0.91846 0.0
H818 H 0.42063 0.39457 0.93863 0.0
H819 H 0.40921 0.39184 0.97766 0.0
H820 H 0.37561 0.42949 0.90306 0.0
H821 H 0.42046 0.35019 0.88622 0.0
H822 H 0.4018 0.35328 0.90954 0.0
H823 H 0.42867 0.36618 0.91014 0.0
C824 C 0.35791 0.39074 0.95342 0.0
C825 C 0.37386 0.39104 0.9704 0.0
C826 C 0.36446 0.392 0.93129 0.0
C827 C 0.38705 0.39376 0.92578 0.0
C828 C 0.40314 0.39297 0.9426 0.0
H829 H 0.39606 0.43756 0.78637 0.0
H830 H 0.40834 0.43607 0.82522 0.0
C831 C 0.39658 0.39142 0.96483 0.0
C832 C 0.39314 0.39834 0.9025 0.0
H833 H 0.41446 0.37412 0.85599 0.0
C834 C 0.38443 0.41761 0.89274 0.0
C835 C 0.4049 0.38287 0.88937 0.0
C836 C 0.41446 0.36188 0.8992 0.0
C837 C 0.38535 0.42093 0.86975 0.0
C838 C 0.39598 0.40479 0.85634 0.0
C839 C 0.40639 0.38644 0.86638 0.0
C840 C 0.39262 0.4044 0.83204 0.0
C841 C 0.37328 0.44066 0.85998 0.0
C842 C 0.38081 0.38656 0.82279 0.0
C843 C 0.37412 0.3872 0.8007 0.0
C844 C 0.3789 0.40583 0.78747 0.0
C845 C 0.39177 0.4232 0.79636 0.0
C846 C 0.39879 0.42237 0.81849 0.0
H847 H 0.36298 0.44949 0.87253 0.0
H848 H 0.38557 0.45267 0.85328 0.0
H849 H 0.36227 0.43536 0.84615 0.0
H850 H 0.37585 0.37254 0.83296 0.0
H851 H 0.3644 0.37346 0.7943 0.0
H852 H 0.83183 0.11842 0.04899 0.0
H853 H 0.8419 0.11844 0.08828 0.0
H854 H 0.91145 0.11727 0.07071 0.0
H855 H 0.90151 0.11787 0.03127 0.0
H856 H 0.86527 0.08276 0.10565 0.0
H857 H 0.90909 0.16274 0.12164 0.0
H858 H 0.89157 0.15855 0.09763 0.0
H859 H 0.91879 0.1464 0.09855 0.0
C860 C 0.84927 0.11869 0.05351 0.0
C861 C 0.86588 0.11796 0.03717 0.0
C862 C 0.85499 0.1187 0.07589 0.0
C863 C 0.8774 0.11781 0.08229 0.0
C864 C 0.89409 0.11827 0.06605 0.0
H865 H 0.89251 0.0722 0.22022 0.0
H866 H 0.90184 0.07536 0.18069 0.0
C867 C 0.88837 0.11856 0.04357 0.0
C868 C 0.88281 0.11395 0.10583 0.0
H869 H 0.90506 0.1382 0.15189 0.0
C870 C 0.87417 0.09474 0.1158 0.0
C871 C 0.89463 0.12956 0.11874 0.0
C872 C 0.90398 0.15057 0.10872 0.0
C873 C 0.87565 0.09138 0.13872 0.0
C874 C 0.8868 0.10739 0.15186 0.0
C875 C 0.89667 0.12594 0.14167 0.0
C876 C 0.88515 0.10694 0.1763 0.0
C877 C 0.86389 0.07157 0.14875 0.0
C878 C 0.8738 0.12421 0.18704 0.0
C879 C 0.86874 0.1226 0.20953 0.0
C880 C 0.87475 0.10355 0.22161 0.0
C881 C 0.88722 0.0868 0.21114 0.0
C882 C 0.8926 0.08861 0.18864 0.0
H883 H 0.85269 0.06324 0.13666 0.0
H884 H 0.87639 0.05921 0.15431 0.0
H885 H 0.85386 0.07663 0.16341 0.0
H886 H 0.86791 0.1385 0.17779 0.0
H887 H 0.85927 0.13587 0.21718 0.0
H888 H 0.14714 0.64736 0.27722 0.0
H889 H 0.15171 0.65601 0.31618 0.0
H890 H 0.13824 0.5876 0.3332 0.0
H891 H 0.13504 0.57834 0.29362 0.0
H892 H 0.12846 0.65544 0.35124 0.0
H893 H 0.19739 0.59546 0.36197 0.0
H894 H 0.1855 0.60155 0.33516 0.0
H895 H 0.17226 0.58188 0.3535 0.0
C896 C 0.14504 0.63404 0.28916 0.0
C897 C 0.14133 0.61198 0.28227 0.0
C898 C 0.1476 0.6391 0.31151 0.0
C899 C 0.14608 0.62233 0.32754 0.0
C900 C 0.14035 0.60062 0.32096 0.0
H901 H 0.12622 0.63409 0.46393 0.0
H902 H 0.12502 0.63879 0.42413 0.0
C903 C 0.13823 0.5954 0.2984 0.0
C904 C 0.15122 0.62772 0.35093 0.0
H905 H 0.18257 0.61146 0.39514 0.0
C906 C 0.14047 0.64595 0.36077 0.0
C907 C 0.16758 0.61597 0.36307 0.0
C908 C 0.18153 0.59781 0.3528 0.0
C909 C 0.14485 0.65207 0.38277 0.0
C910 C 0.15957 0.63896 0.39555 0.0
C911 C 0.17115 0.62144 0.3854 0.0
C912 C 0.16075 0.64085 0.41999 0.0
C913 C 0.13356 0.67248 0.39202 0.0
C914 C 0.1813 0.64058 0.43112 0.0
C915 C 0.18209 0.6372 0.4541 0.0
C916 C 0.16231 0.63401 0.46611 0.0
C917 C 0.1418 0.63618 0.45513 0.0
C918 C 0.14105 0.63924 0.4323 0.0
H919 H 0.1316 0.68535 0.37892 0.0
H920 H 0.11664 0.66797 0.39785 0.0
H921 H 0.14299 0.67979 0.4061 0.0
H922 H 0.19672 0.64177 0.42187 0.0
H923 H 0.19813 0.6358 0.46217 0.0
H924 H 0.66871 0.88873 0.54632 0.0
H925 H 0.65899 0.88829 0.58566 0.0
H926 H 0.58928 0.88856 0.56879 0.0
H927 H 0.59892 0.88848 0.52916 0.0
H928 H 0.63445 0.92376 0.60356 0.0
H929 H 0.59403 0.8419 0.61939 0.0
H930 H 0.61166 0.84669 0.59555 0.0
H931 H 0.58414 0.85813 0.59628 0.0
C932 C 0.65131 0.88826 0.55098 0.0
C933 C 0.63457 0.88886 0.53478 0.0
C934 C 0.64579 0.88799 0.57341 0.0
C935 C 0.62345 0.88847 0.58003 0.0
C936 C 0.6066 0.88793 0.56394 0.0
H937 H 0.61079 0.93098 0.71918 0.0
H938 H 0.60039 0.92799 0.67993 0.0
C939 C 0.61214 0.88793 0.54137 0.0
C940 C 0.6183 0.89184 0.60372 0.0
H941 H 0.59913 0.86559 0.65011 0.0
C942 C 0.62645 0.91122 0.61378 0.0
C943 C 0.60773 0.87544 0.61674 0.0
C944 C 0.59894 0.85427 0.60658 0.0
C945 C 0.62577 0.91401 0.63683 0.0
C946 C 0.61595 0.89721 0.65006 0.0
C947 C 0.60652 0.87844 0.63984 0.0
C948 C 0.61843 0.89733 0.67445 0.0
C949 C 0.63703 0.93412 0.64682 0.0
C950 C 0.63094 0.88047 0.68454 0.0
C951 C 0.63662 0.88198 0.70691 0.0
C952 C 0.63008 0.90052 0.71949 0.0
C953 C 0.6165 0.9168 0.70969 0.0
C954 C 0.61051 0.91508 0.68734 0.0
H955 H 0.64741 0.94316 0.63448 0.0
H956 H 0.62422 0.94582 0.65308 0.0
H957 H 0.6478 0.92924 0.66098 0.0
H958 H 0.6372 0.86663 0.67486 0.0
H959 H 0.64696 0.86909 0.71406 0.0
H960 H 0.11213 0.54864 0.51293 0.0
H961 H 0.10511 0.51231 0.4958 0.0
H962 H 0.17263 0.51036 0.47182 0.0
H963 H 0.1799 0.54632 0.48897 0.0
H964 H 0.10911 0.50216 0.45032 0.0
H965 H 0.16502 0.44925 0.50123 0.0
H966 H 0.15657 0.47677 0.50976 0.0
H967 H 0.17805 0.47333 0.48928 0.0
C968 C 0.12554 0.54038 0.5042 0.0
C969 C 0.14656 0.55045 0.5023 0.0
C970 C 0.1215 0.51965 0.49441 0.0
C971 C 0.13843 0.50854 0.48276 0.0
C972 C 0.15945 0.51843 0.48106 0.0
H973 H 0.10686 0.40198 0.38845 0.0
H974 H 0.12692 0.43347 0.40509 0.0
C975 C 0.1635 0.53911 0.49078 0.0
C976 C 0.13383 0.48718 0.47135 0.0
H977 H 0.14843 0.4323 0.46973 0.0
C978 C 0.11774 0.48689 0.4545 0.0
C979 C 0.14513 0.46731 0.4769 0.0
C980 C 0.16203 0.46652 0.4954 0.0
C981 C 0.11246 0.46722 0.44314 0.0
C982 C 0.12387 0.44735 0.44854 0.0
C983 C 0.14006 0.44765 0.46533 0.0
C984 C 0.11707 0.42574 0.43884 0.0
C985 C 0.09409 0.46768 0.42604 0.0
C986 C 0.10636 0.41018 0.45247 0.0
C987 C 0.09511 0.39223 0.44306 0.0
C988 C 0.09455 0.38944 0.41987 0.0
C989 C 0.10726 0.40364 0.40638 0.0
C990 C 0.11846 0.42176 0.41584 0.0
H991 H 0.0844 0.48339 0.42667 0.0
H992 H 0.10142 0.46615 0.40918 0.0
H993 H 0.08251 0.45352 0.42854 0.0
H994 H 0.10517 0.41288 0.47024 0.0
H995 H 0.08537 0.38152 0.45378 0.0
H996 H 0.8871 0.84138 0.69575 0.0
H997 H 0.85839 0.85544 0.72131 0.0
H998 H 0.81244 0.86077 0.66658 0.0
H999 H 0.84079 0.84634 0.64128 0.0
H1000 H 0.82795 0.8931 0.72394 0.0
H1001 H 0.78514 0.81309 0.70831 0.0
H1002 H 0.81369 0.818 0.70043 0.0
H1003 H 0.79138 0.82805 0.68325 0.0
C1004 C 0.87119 0.84655 0.68909 0.0
C1005 C 0.86614 0.843 0.66657 0.0
C1006 C 0.85473 0.85432 0.70372 0.0
C1007 C 0.83314 0.85862 0.6959 0.0
C1008 C 0.82886 0.85716 0.67302 0.0
H1009 H 0.71588 0.91924 0.74437 0.0
H1010 H 0.75252 0.90993 0.73035 0.0
C1011 C 0.84514 0.84921 0.65853 0.0
C1012 C 0.8144 0.8624 0.71155 0.0
H1013 H 0.7636 0.84145 0.72589 0.0
C1014 C 0.81398 0.88172 0.72459 0.0
C1015 C 0.79648 0.84718 0.71296 0.0
C1016 C 0.79673 0.8253 0.70068 0.0
C1017 C 0.79544 0.88689 0.73792 0.0
C1018 C 0.77669 0.87257 0.73782 0.0
C1019 C 0.77779 0.85259 0.72583 0.0
C1020 C 0.75511 0.87883 0.74825 0.0
C1021 C 0.79612 0.90772 0.75187 0.0
C1022 C 0.74389 0.86422 0.76269 0.0
C1023 C 0.72252 0.86936 0.77057 0.0
C1024 C 0.71193 0.88915 0.76401 0.0
C1025 C 0.72344 0.90385 0.74987 0.0
C1026 C 0.74463 0.89868 0.74198 0.0
H1027 H 0.81345 0.9119 0.75671 0.0
H1028 H 0.78956 0.92184 0.74199 0.0
H1029 H 0.78594 0.90597 0.76716 0.0
H1030 H 0.75154 0.84868 0.76761 0.0
H1031 H 0.71417 0.85768 0.78145 0.0
H1032 H 0.39629 0.6393 0.93411 0.0
H1033 H 0.37532 0.6131 0.95767 0.0
H1034 H 0.40111 0.55822 0.91941 0.0
H1035 H 0.42167 0.58402 0.89598 0.0
H1036 H 0.35644 0.55276 0.93145 0.0
H1037 H 0.40986 0.57548 0.00362 0.0
H1038 H 0.39437 0.59742 0.99049 0.0
H1039 H 0.41649 0.584 0.97564 0.0
C1040 C 0.39693 0.62168 0.93043 0.0
C1041 C 0.41073 0.61368 0.91334 0.0
C1042 C 0.38516 0.60673 0.94401 0.0
C1043 C 0.38698 0.58366 0.94054 0.0
C1044 C 0.39951 0.5759 0.92249 0.0
H1045 H 0.39531 0.46479 0.01167 0.0
H1046 H 0.39881 0.50126 0.99437 0.0
C1047 C 0.4113 0.5907 0.90911 0.0
C1048 C 0.37763 0.56715 0.95638 0.0
H1049 H 0.38714 0.54413 0.00745 0.0
C1050 C 0.36272 0.55111 0.94826 0.0
C1051 C 0.38612 0.56489 0.97821 0.0
C1052 C 0.4027 0.58122 0.9876 0.0
C1053 C 0.35697 0.53231 0.96091 0.0
C1054 C 0.36609 0.52965 0.98244 0.0
C1055 C 0.38009 0.54626 0.99099 0.0
C1056 C 0.3636 0.50855 0.9951 0.0
C1057 C 0.34237 0.51474 0.95053 0.0
C1058 C 0.34267 0.50072 1.00191 0.0
C1059 C 0.34057 0.47971 0.01181 0.0
C1060 C 0.3594 0.46618 0.01513 0.0
C1061 C 0.38042 0.47462 0.00927 0.0
C1062 C 0.38248 0.49554 0.99939 0.0
H1063 H 0.33989 0.51753 0.93244 0.0
H1064 H 0.34968 0.49796 0.95293 0.0
H1065 H 0.32582 0.51495 0.95868 0.0
H1066 H 0.32792 0.51064 0.99916 0.0
H1067 H 0.32414 0.47382 0.01624 0.0
H1068 H 0.6183 0.16088 0.1983 0.0
H1069 H 0.64743 0.14807 0.22403 0.0
H1070 H 0.69515 0.14944 0.1705 0.0
H1071 H 0.66639 0.16284 0.14513 0.0
H1072 H 0.67851 0.11364 0.22689 0.0
H1073 H 0.72044 0.19445 0.21436 0.0
H1074 H 0.69252 0.18912 0.20478 0.0
H1075 H 0.71605 0.18022 0.18854 0.0
C1076 C 0.63484 0.15762 0.19194 0.0
C1077 C 0.64017 0.16271 0.16979 0.0
C1078 C 0.65151 0.15056 0.20667 0.0
C1079 C 0.6736 0.14847 0.19931 0.0
C1080 C 0.67836 0.15154 0.17668 0.0
H1081 H 0.78974 0.08675 0.24727 0.0
H1082 H 0.75322 0.0967 0.23357 0.0
C1083 C 0.66188 0.15887 0.16212 0.0
C1084 C 0.69208 0.14464 0.21525 0.0
H1085 H 0.74256 0.16554 0.23068 0.0
C1086 C 0.6924 0.1251 0.22796 0.0
C1087 C 0.70986 0.15997 0.2173 0.0
C1088 C 0.70962 0.18223 0.20571 0.0
C1089 C 0.71074 0.11977 0.24145 0.0
C1090 C 0.72947 0.1341 0.24177 0.0
C1091 C 0.72843 0.15435 0.23024 0.0
C1092 C 0.75103 0.12752 0.252 0.0
C1093 C 0.70988 0.09872 0.25505 0.0
C1094 C 0.76248 0.1418 0.26658 0.0
C1095 C 0.78384 0.13632 0.27425 0.0
C1096 C 0.79414 0.11649 0.26734 0.0
C1097 C 0.7824 0.10214 0.25305 0.0
C1098 C 0.76127 0.10767 0.24535 0.0
H1099 H 0.69252 0.09467 0.2599 0.0
H1100 H 0.71622 0.08467 0.24491 0.0
H1101 H 0.72013 0.10008 0.27034 0.0
H1102 H 0.75502 0.15735 0.27178 0.0
H1103 H 0.79238 0.14773 0.28524 0.0
H1104 H 0.61226 0.9685 0.47591 0.0
H1105 H 0.60505 0.00444 0.49343 0.0
H1106 H 0.67014 0.0028 0.52357 0.0
H1107 H 0.67782 0.96745 0.50502 0.0
H1108 H 0.60084 0.01057 0.53488 0.0
H1109 H 0.66834 0.06665 0.50778 0.0
H1110 H 0.66319 0.04026 0.49448 0.0
H1111 H 0.67928 0.04166 0.51971 0.0
C1112 C 0.62525 0.97615 0.48577 0.0
C1113 C 0.64561 0.96521 0.48906 0.0
C1114 C 0.62111 0.99667 0.49585 0.0
C1115 C 0.63707 0.00656 0.50979 0.0
C1116 C 0.65774 0.99598 0.51246 0.0
H1117 H 0.59281 0.08771 0.61983 0.0
H1118 H 0.61079 0.05955 0.59662 0.0
C1119 C 0.66209 0.97565 0.50193 0.0
C1120 C 0.63095 0.02633 0.5235 0.0
H1121 H 0.64828 0.07777 0.54063 0.0
C1122 C 0.61117 0.02532 0.53587 0.0
C1123 C 0.64422 0.04578 0.52478 0.0
C1124 C 0.6648 0.04877 0.51078 0.0
C1125 C 0.60442 0.04289 0.54961 0.0
C1126 C 0.61832 0.06177 0.55195 0.0
C1127 C 0.63787 0.06311 0.53924 0.0
C1128 C 0.61233 0.08029 0.56725 0.0
C1129 C 0.58214 0.04114 0.56108 0.0
C1130 C 0.60906 0.10195 0.55907 0.0
C1131 C 0.5995 0.11834 0.57263 0.0
C1132 C 0.59292 0.11316 0.59442 0.0
C1133 C 0.5978 0.09206 0.60308 0.0
C1134 C 0.6078 0.07591 0.58974 0.0
H1135 H 0.57091 0.02935 0.55236 0.0
H1136 H 0.58459 0.03484 0.57824 0.0
H1137 H 0.57375 0.05756 0.562 0.0
H1138 H 0.61256 0.10578 0.54183 0.0
H1139 H 0.59559 0.13443 0.56553 0.0
H1140 H 0.29078 0.36189 0.72919 0.0
H1141 H 0.25337 0.35428 0.74355 0.0
H1142 H 0.25521 0.41544 0.78091 0.0
H1143 H 0.29209 0.42339 0.76636 0.0
H1144 H 0.24184 0.34759 0.78566 0.0
H1145 H 0.19403 0.4195 0.75464 0.0
H1146 H 0.22122 0.41252 0.74402 0.0
H1147 H 0.21842 0.42836 0.76928 0.0
C1148 C 0.28309 0.37384 0.74025 0.0
C1149 C 0.29452 0.39322 0.74665 0.0
C1150 C 0.26168 0.3695 0.74841 0.0
C1151 C 0.25124 0.38449 0.76301 0.0
C1152 C 0.26255 0.40393 0.76918 0.0
H1153 H 0.16191 0.35251 0.86773 0.0
H1154 H 0.19086 0.36824 0.84388 0.0
C1155 C 0.28383 0.40832 0.76099 0.0
C1156 C 0.22954 0.37895 0.77355 0.0
H1157 H 0.17835 0.40028 0.78638 0.0
C1158 C 0.22788 0.35899 0.78551 0.0
C1159 C 0.21112 0.39366 0.77318 0.0
C1160 C 0.21119 0.41458 0.75938 0.0
C1161 C 0.20882 0.35385 0.79792 0.0
C1162 C 0.19108 0.36929 0.79886 0.0
C1163 C 0.19218 0.38872 0.78603 0.0
C1164 C 0.17169 0.3654 0.81361 0.0
C1165 C 0.20792 0.33196 0.81018 0.0
C1166 C 0.15072 0.36024 0.80471 0.0
C1167 C 0.13392 0.3517 0.81847 0.0
C1168 C 0.13802 0.34823 0.84119 0.0
C1169 C 0.15826 0.35539 0.85032 0.0
C1170 C 0.17488 0.3641 0.83667 0.0
H1171 H 0.21994 0.31976 0.80325 0.0
H1172 H 0.21222 0.33474 0.8279 0.0
H1173 H 0.19099 0.32463 0.80945 0.0
H1174 H 0.14793 0.36116 0.78695 0.0
H1175 H 0.11864 0.34577 0.811 0.0
H1176 H 0.89169 0.89681 0.11598 0.0
H1177 H 0.86689 0.9248 0.09948 0.0
H1178 H 0.89396 0.91032 0.03464 0.0
H1179 H 0.91812 0.88235 0.05086 0.0
H1180 H 0.88324 0.96099 0.08097 0.0
H1181 H 0.83082 0.92079 0.01783 0.0
H1182 H 0.84473 0.90505 0.03928 0.0
H1183 H 0.85905 0.9122 0.0139 0.0
C1184 C 0.89155 0.89896 0.0981 0.0
C1185 C 0.90683 0.88749 0.08468 0.0
C1186 C 0.8775 0.91504 0.08869 0.0
C1187 C 0.87837 0.91961 0.06574 0.0
C1188 C 0.89246 0.90684 0.05224 0.0
H1189 H 0.88892 0.04075 0.99779 0.0
H1190 H 0.89166 0.00568 0.01792 0.0
C1191 C 0.90645 0.89093 0.06158 0.0
C1192 C 0.86795 0.93996 0.05629 0.0
H1193 H 0.84208 0.95928 0.00954 0.0
C1194 C 0.87372 0.96055 0.06566 0.0
C1195 C 0.85527 0.93958 0.03645 0.0
C1196 C 0.84693 0.91816 0.02647 0.0
C1197 C 0.86874 0.9806 0.05486 0.0
C1198 C 0.85815 0.98007 0.03387 0.0
C1199 C 0.85071 0.95966 0.02537 0.0
C1200 C 0.85613 1.00039 0.01999 0.0
C1201 C 0.87548 1.00218 0.06576 0.0
C1202 C 0.83527 0.00848 0.0134 0.0
C1203 C 0.83363 0.02854 1.00162 0.0
C1204 C 0.85286 0.04078 0.99623 0.0
C1205 C 0.87375 0.03194 1.00188 0.0
C1206 C 0.87535 0.01194 0.01354 0.0
H1207 H 0.87662 1.00036 0.0841 0.0
H1208 H 0.89212 0.00718 0.05955 0.0
H1209 H 0.86351 0.01568 0.06187 0.0
H1210 H 0.82024 0.99967 0.01798 0.0
H1211 H 0.81728 0.03482 0.99748 0.0
H1212 H 0.34065 0.65133 0.36247 0.0
H1213 H 0.31286 0.63718 0.33642 0.0
H1214 H 0.35938 0.64546 0.28242 0.0
H1215 H 0.3875 0.65874 0.30875 0.0
H1216 H 0.29685 0.66411 0.30519 0.0
H1217 H 0.32957 0.58806 0.2645 0.0
H1218 H 0.34127 0.59905 0.28985 0.0
H1219 H 0.34808 0.61146 0.26353 0.0
C1220 C 0.34528 0.64895 0.34522 0.0
C1221 C 0.3663 0.65562 0.33764 0.0
C1222 C 0.32933 0.64116 0.33028 0.0
C1223 C 0.33395 0.64028 0.30739 0.0
C1224 C 0.3555 0.64553 0.29999 0.0
H1225 H 0.2167 0.64764 0.21879 0.0
H1226 H 0.25351 0.65636 0.23428 0.0
C1227 C 0.37164 0.65298 0.31507 0.0
C1228 C 0.31539 0.63677 0.29141 0.0
H1229 H 0.29662 0.60351 0.24938 0.0
C1230 C 0.29682 0.65085 0.29296 0.0
C1231 C 0.31542 0.61961 0.27534 0.0
C1232 C 0.33456 0.60354 0.27326 0.0
C1233 C 0.27798 0.6478 0.27955 0.0
C1234 C 0.27791 0.63057 0.26353 0.0
C1235 C 0.29677 0.61688 0.26147 0.0
C1236 C 0.25743 0.62468 0.25097 0.0
C1237 C 0.25792 0.66237 0.28352 0.0
C1238 C 0.24801 0.60361 0.25408 0.0
C1239 C 0.22729 0.59853 0.24508 0.0
C1240 C 0.21531 0.61444 0.23277 0.0
C1241 C 0.22535 0.63511 0.22839 0.0
C1242 C 0.24631 0.64015 0.23737 0.0
H1243 H 0.25909 0.67159 0.29948 0.0
H1244 H 0.2566 0.67474 0.26991 0.0
H1245 H 0.24243 0.65232 0.28372 0.0
H1246 H 0.25626 0.59133 0.26436 0.0
H1247 H 0.22029 0.5823 0.24853 0.0
H1248 H 0.45255 0.07702 0.3815 0.0
H1249 H 0.47239 0.09451 0.41225 0.0
H1250 H 0.41058 0.12097 0.43718 0.0
H1251 H 0.39051 0.10314 0.40629 0.0
H1252 H 0.4773 0.13658 0.43112 0.0
H1253 H 0.43155 0.07831 0.48649 0.0
H1254 H 0.43091 0.07595 0.45661 0.0
H1255 H 0.41446 0.09674 0.47037 0.0
C1256 C 0.4433 0.08725 0.3931 0.0
C1257 C 0.42003 0.08875 0.39159 0.0
C1258 C 0.45464 0.09715 0.41071 0.0
C1259 C 0.44291 0.10858 0.42728 0.0
C1260 C 0.41989 0.11187 0.42474 0.0
H1261 H 0.50157 0.17334 0.5415 0.0
H1262 H 0.48448 0.1645 0.50597 0.0
C1263 C 0.40847 0.10199 0.40694 0.0
C1264 C 0.45462 0.11473 0.44813 0.0
H1265 H 0.45768 0.10204 0.50341 0.0
C1266 C 0.47293 0.12917 0.44697 0.0
C1267 C 0.44928 0.10453 0.46867 0.0
C1268 C 0.43062 0.08786 0.47071 0.0
C1269 C 0.48588 0.13388 0.46584 0.0
C1270 C 0.4802 0.12408 0.48647 0.0
C1271 C 0.46201 0.10952 0.48759 0.0
C1272 C 0.49226 0.12943 0.50733 0.0
C1273 C 0.50581 0.14892 0.4634 0.0
C1274 C 0.50228 0.1126 0.52011 0.0
C1275 C 0.51206 0.11758 0.54069 0.0
C1276 C 0.5117 0.13946 0.54892 0.0
C1277 C 0.50211 0.15628 0.53575 0.0
C1278 C 0.49245 0.15131 0.51528 0.0
H1279 H 0.5117 0.14963 0.4459 0.0
H1280 H 0.50115 0.16602 0.4685 0.0
H1281 H 0.51975 0.1433 0.47411 0.0
H1282 H 0.50221 0.09555 0.51431 0.0
H1283 H 0.51922 0.10425 0.55043 0.0
H1284 H 0.15732 0.14198 0.66664 0.0
H1285 H 0.14368 0.16733 0.69531 0.0
H1286 H 0.1472 0.22181 0.64878 0.0
H1287 H 0.16005 0.19612 0.61978 0.0
H1288 H 0.16965 0.20017 0.71033 0.0
H1289 H 0.08983 0.23602 0.68095 0.0
H1290 H 0.10181 0.21133 0.66881 0.0
H1291 H 0.11248 0.2383 0.66162 0.0
C1292 C 0.15414 0.15917 0.66229 0.0
C1293 C 0.15929 0.16707 0.64097 0.0
C1294 C 0.14661 0.17371 0.67872 0.0
C1295 C 0.14444 0.19653 0.67427 0.0
C1296 C 0.14831 0.20425 0.65254 0.0
H1297 H 0.14865 0.28405 0.79278 0.0
H1298 H 0.15786 0.26946 0.75572 0.0
C1299 C 0.15552 0.18955 0.63593 0.0
C1300 C 0.14071 0.21219 0.69306 0.0
H1301 H 0.1051 0.25122 0.71385 0.0
C1302 C 0.15556 0.2114 0.71107 0.0
C1303 C 0.12244 0.22695 0.69393 0.0
C1304 C 0.1056 0.22815 0.6754 0.0
C1305 C 0.15218 0.22418 0.73029 0.0
C1306 C 0.13376 0.23878 0.73133 0.0
C1307 C 0.11934 0.2402 0.71297 0.0
C1308 C 0.12753 0.25031 0.75231 0.0
C1309 C 0.16772 0.221 0.74974 0.0
C1310 C 0.10704 0.24533 0.7622 0.0
C1311 C 0.10168 0.25379 0.78308 0.0
C1312 C 0.11672 0.26741 0.79476 0.0
C1313 C 0.13682 0.27339 0.78438 0.0
C1314 C 0.14214 0.26496 0.76326 0.0
H1315 H 0.17819 0.2059 0.74785 0.0
H1316 H 0.17896 0.23557 0.75101 0.0
H1317 H 0.15827 0.2196 0.76554 0.0
H1318 H 0.09545 0.23416 0.7541 0.0
H1319 H 0.0859 0.24902 0.79033 0.0
H1320 H 0.07345 0.89315 0.86483 0.0
H1321 H 0.04979 0.87165 0.89048 0.0
H1322 H 0.08542 0.8992 0.94626 0.0
H1323 H 0.10899 0.92026 0.92102 0.0
H1324 H 0.07481 0.85424 0.9517 0.0
H1325 H 1.00152 0.90489 0.92627 0.0
H1326 H 0.01588 0.88957 0.90497 0.0
H1327 H 0.02949 0.91242 0.91848 0.0
C1328 C 0.07654 0.8941 0.88254 0.0
C1329 C 0.09291 0.90853 0.89095 0.0
C1330 C 0.0629 0.88201 0.89717 0.0
C1331 C 0.0656 0.88415 0.9203 0.0
C1332 C 0.08296 0.89735 0.92851 0.0
H1333 H 0.99326 0.89297 0.03763 0.0
H1334 H 0.01052 0.896 1.00108 0.0
C1335 C 0.0964 0.90944 0.91403 0.0
C1336 C 0.0496 0.87442 0.9364 0.0
H1337 H 0.99776 0.88286 0.95809 0.0
C1338 C 0.05777 0.86003 0.95285 0.0
C1339 C 0.02746 0.88227 0.93797 0.0
C1340 C 0.01796 0.89824 0.92111 0.0
C1341 C 0.04488 0.85428 0.97147 0.0
C1342 C 0.02306 0.86287 0.97349 0.0
C1343 C 0.01445 0.87624 0.95642 0.0
C1344 C 0.01019 0.86065 0.99445 0.0
C1345 C 0.05528 0.84037 0.98958 0.0
C1346 C 0.00359 0.8398 0.00261 0.0
C1347 C 0.99372 0.83798 0.02365 0.0
C1348 C 0.99025 0.85701 0.03685 0.0
C1349 C 0.99581 0.87794 0.02804 0.0
C1350 C 0.00565 0.87973 0.00708 0.0
H1351 H 0.07343 0.83806 0.98705 0.0
H1352 H 0.05259 0.84816 0.00609 0.0
H1353 H 0.04736 0.82371 0.9898 0.0
H1354 H 0.00657 0.8249 0.99297 0.0
H1355 H 0.9895 0.8216 0.02983 0.0
H1356 H 0.34024 0.80959 0.11888 0.0
H1357 H 0.35351 0.78255 0.14658 0.0
H1358 H 0.34781 0.83241 0.1978 0.0
H1359 H 0.33392 0.85902 0.17045 0.0
H1360 H 0.38711 0.77921 0.17765 0.0
H1361 H 0.30575 0.78454 0.21981 0.0
H1362 H 0.31063 0.79643 0.19271 0.0
H1363 H 0.31838 0.81143 0.21745 0.0
C1364 C 0.34253 0.81489 0.13594 0.0
C1365 C 0.33611 0.83633 0.14261 0.0
C1366 C 0.34988 0.7994 0.15177 0.0
C1367 C 0.35094 0.80527 0.17438 0.0
C1368 C 0.34644 0.82731 0.18058 0.0
H1369 H 0.41601 0.75571 0.28733 0.0
H1370 H 0.40505 0.76982 0.25129 0.0
C1371 C 0.33881 0.84259 0.16492 0.0
C1372 C 0.35555 0.78839 0.19182 0.0
H1373 H 0.33573 0.76923 0.24144 0.0
C1374 C 0.37576 0.77676 0.19145 0.0
C1375 C 0.34039 0.78449 0.20943 0.0
C1376 C 0.31747 0.79469 0.20976 0.0
C1377 C 0.3819 0.76265 0.20905 0.0
C1378 C 0.36772 0.76064 0.2278 0.0
C1379 C 0.34682 0.77098 0.22733 0.0
C1380 C 0.37509 0.75003 0.24892 0.0
C1381 C 0.40363 0.75025 0.20742 0.0
C1382 C 0.36163 0.73448 0.26013 0.0
C1383 C 0.36767 0.72659 0.28126 0.0
C1384 C 0.38726 0.73419 0.29154 0.0
C1385 C 0.40085 0.74935 0.27998 0.0
C1386 C 0.39474 0.7573 0.25911 0.0
H1387 H 0.4076 0.74621 0.18984 0.0
H1388 H 0.41723 0.76094 0.21383 0.0
H1389 H 0.40329 0.73458 0.21716 0.0
H1390 H 0.34626 0.72876 0.25271 0.0
H1391 H 0.35685 0.71491 0.28966 0.0
H1392 H 0.02027 0.39155 0.46762 0.0
H1393 H 0.00279 0.39722 0.50381 0.0
H1394 H 0.98049 0.32903 0.50386 0.0
H1395 H 0.99878 0.32304 0.46799 0.0
H1396 H 0.96015 0.39545 0.51053 0.0
H1397 H 0.99971 0.33483 0.56737 0.0
H1398 H 0.01118 0.34151 0.54046 0.0
H1399 H 0.98854 0.32209 0.54283 0.0
C1400 C 0.01206 0.37762 0.47558 0.0
C1401 C 0.01084 0.35688 0.46494 0.0
C1402 C 1.00206 0.38087 0.49628 0.0
C1403 C 0.99037 0.36354 0.50672 0.0
C1404 C 0.98981 0.34254 0.49648 0.0
H1405 H 0.88323 0.40019 0.5962 0.0
H1406 H 0.9046 0.38077 0.56745 0.0
C1407 C 1.00018 0.33916 0.47588 0.0
C1408 C 0.97683 0.36833 0.52689 0.0
H1409 H 0.96645 0.35227 0.58047 0.0
C1410 C 0.96165 0.38602 0.52582 0.0
C1411 C 0.9788 0.35615 0.54695 0.0
C1412 C 0.99559 0.33773 0.5496 0.0
C1413 C 0.94852 0.39197 0.54412 0.0
C1414 C 0.94987 0.37932 0.56394 0.0
C1415 C 0.96511 0.36167 0.56515 0.0
C1416 C 0.93635 0.38522 0.58378 0.0
C1417 C 0.93385 0.41226 0.54218 0.0
C1418 C 0.94683 0.39234 0.60341 0.0
C1419 C 0.93448 0.40276 0.62018 0.0
C1420 C 0.91158 0.40625 0.61744 0.0
C1421 C 0.90084 0.39739 0.59874 0.0
C1422 C 0.91309 0.38658 0.58222 0.0
H1423 H 0.93921 0.42331 0.52838 0.0
H1424 H 0.91653 0.40695 0.53873 0.0
H1425 H 0.93392 0.42206 0.55783 0.0
H1426 H 0.96474 0.39141 0.60501 0.0
H1427 H 0.94314 0.4099 0.63427 0.0
H1428 H 0.84846 0.64042 0.84243 0.0
H1429 H 0.86311 0.66443 0.81307 0.0
H1430 H 0.85582 0.7214 0.85604 0.0
H1431 H 0.84184 0.69713 0.88572 0.0
H1432 H 0.83593 0.69591 0.79571 0.0
H1433 H 0.91431 0.73524 0.8247 0.0
H1434 H 0.90292 0.71061 0.83754 0.0
H1435 H 0.89124 0.73742 0.84356 0.0
C1436 C 0.85114 0.65789 0.84596 0.0
C1437 C 0.84453 0.66692 0.86641 0.0
C1438 C 0.85923 0.67165 0.82912 0.0
C1439 C 0.86054 0.69475 0.8323 0.0
C1440 C 0.85538 0.70362 0.8533 0.0
H1441 H 0.8556 0.77849 0.71139 0.0
H1442 H 0.84659 0.76432 0.74866 0.0
C1443 C 0.84754 0.68974 0.87032 0.0
C1444 C 0.86433 0.70943 0.81279 0.0
H1445 H 0.89929 0.74838 0.79077 0.0
C1446 C 0.84976 0.70744 0.79465 0.0
C1447 C 0.88226 0.72457 0.81152 0.0
C1448 C 0.89872 0.72704 0.83027 0.0
C1449 C 0.85304 0.71954 0.77498 0.0
C1450 C 0.8711 0.73454 0.77357 0.0
C1451 C 0.88531 0.73705 0.79197 0.0
C1452 C 0.8771 0.74555 0.75228 0.0
C1453 C 0.83776 0.71529 0.75553 0.0
C1454 C 0.89755 0.74048 0.74237 0.0
C1455 C 0.90277 0.74861 0.72132 0.0
C1456 C 0.88763 0.76203 0.70954 0.0
C1457 C 0.8675 0.76798 0.71987 0.0
C1458 C 0.86231 0.75983 0.74112 0.0
H1459 H 0.82754 0.70008 0.75791 0.0
H1460 H 0.82629 0.7296 0.75356 0.0
H1461 H 0.84741 0.71347 0.7399 0.0
H1462 H 0.90925 0.72956 0.75063 0.0
H1463 H 0.91856 0.74387 0.71409 0.0
H1464 H 0.55003 0.57813 0.12647 0.0
H1465 H 0.53103 0.59622 0.09554 0.0
H1466 H 0.59395 0.62011 0.07075 0.0
H1467 H 0.61316 0.6017 0.10181 0.0
H1468 H 0.528 0.63848 0.07619 0.0
H1469 H 0.57149 0.57768 0.02175 0.0
H1470 H 0.5718 0.57559 0.05166 0.0
H1471 H 0.58924 0.59552 0.03785 0.0
C1472 C 0.55973 0.58794 0.11487 0.0
C1473 C 0.58304 0.58853 0.11647 0.0
C1474 C 0.54887 0.59819 0.09714 0.0
C1475 C 0.56111 0.60905 0.08056 0.0
C1476 C 0.58423 0.61146 0.0832 0.0
H1477 H 0.5052 0.67427 0.96489 0.0
H1478 H 0.52224 0.66551 1.00049 0.0
C1479 C 0.59517 0.60125 0.1011 0.0
C1480 C 0.54978 0.61546 0.05958 0.0
H1481 H 0.54639 0.60218 0.00444 0.0
C1482 C 0.53212 0.6307 0.06046 0.0
C1483 C 0.55477 0.60479 0.03919 0.0
C1484 C 0.57271 0.58733 0.03745 0.0
C1485 C 0.51948 0.63572 0.04145 0.0
C1486 C 0.5248 0.6254 0.02098 0.0
C1487 C 0.54235 0.61007 0.02015 0.0
C1488 C 0.5129 0.6308 1.00003 0.0
C1489 C 0.50021 0.65164 0.04358 0.0
C1490 C 0.50204 0.61413 0.98774 0.0
C1491 C 0.49227 0.61906 0.96715 0.0
C1492 C 0.49347 0.64071 0.9584 0.0
C1493 C 0.50397 0.65739 0.97105 0.0
C1494 C 0.51363 0.65248 0.99155 0.0
H1495 H 0.49445 0.65307 0.06107 0.0
H1496 H 0.50556 0.66838 0.03798 0.0
H1497 H 0.486 0.64631 0.03308 0.0
H1498 H 0.50139 0.59724 0.99396 0.0
H1499 H 0.48438 0.60583 0.95784 0.0
H1500 H 0.63895 0.34381 0.37338 0.0
H1501 H 0.61917 0.3213 0.34523 0.0
H1502 H 0.68172 0.29399 0.32327 0.0
H1503 H 0.70125 0.31622 0.35076 0.0
H1504 H 0.62867 0.32472 0.29789 0.0
H1505 H 0.64126 0.23885 0.32837 0.0
H1506 H 0.64324 0.26287 0.3463 0.0
H1507 H 0.66624 0.25519 0.32879 0.0
C1508 C 0.6483 0.33264 0.36279 0.0
C1509 C 0.6716 0.33183 0.36413 0.0
C1510 C 0.63706 0.31987 0.34673 0.0
C1511 C 0.64899 0.30577 0.33234 0.0
C1512 C 0.67213 0.30441 0.3344 0.0
H1513 H 0.64476 0.23315 0.21043 0.0
H1514 H 0.65282 0.24959 0.24685 0.0
C1515 C 0.68328 0.3173 0.35003 0.0
C1516 C 0.63809 0.29402 0.31359 0.0
H1517 H 0.63418 0.24287 0.28917 0.0
C1518 C 0.62935 0.30678 0.29615 0.0
C1519 C 0.6393 0.27065 0.31127 0.0
C1520 C 0.64783 0.25605 0.32977 0.0
C1521 C 0.62296 0.29693 0.27595 0.0
C1522 C 0.62491 0.2736 0.27333 0.0
C1523 C 0.63281 0.26075 0.29113 0.0
C1524 C 0.61958 0.2624 0.25195 0.0
C1525 C 0.61533 0.31174 0.25719 0.0
C1526 C 0.5981 0.2636 0.24301 0.0
C1527 C 0.59349 0.25437 0.2222 0.0
C1528 C 0.61023 0.24352 0.20991 0.0
C1529 C 0.63153 0.2415 0.21934 0.0
C1530 C 0.63615 0.25086 0.24017 0.0
H1531 H 0.61984 0.32942 0.26008 0.0
H1532 H 0.62266 0.30635 0.24113 0.0
H1533 H 0.59697 0.31074 0.25575 0.0
H1534 H 0.58492 0.27193 0.25202 0.0
H1535 H 0.5768 0.25598 0.21564 0.0
H1536 H 0.53687 0.50456 0.18954 0.0
H1537 H 0.50156 0.48418 0.1876 0.0
H1538 H 0.50794 0.48 0.11634 0.0
H1539 H 0.54309 0.50004 0.11806 0.0
H1540 H 0.46159 0.49257 0.16468 0.0
H1541 H 0.50075 0.41485 0.13534 0.0
H1542 H 0.51656 0.43729 0.14752 0.0
H1543 H 0.50886 0.43818 0.11862 0.0
C1544 C 0.53065 0.49946 0.17344 0.0
C1545 C 0.54296 0.50372 0.15397 0.0
C1546 C 0.51052 0.48776 0.17239 0.0
C1547 C 0.50248 0.48007 0.15189 0.0
C1548 C 0.51418 0.48524 0.13239 0.0
H1549 H 0.38699 0.45252 0.08667 0.0
H1550 H 0.41456 0.46792 0.11178 0.0
C1551 C 0.53422 0.49686 0.1334 0.0
C1552 C 0.48184 0.46668 0.15047 0.0
H1553 H 0.46169 0.41928 0.12685 0.0
C1554 C 0.46159 0.47632 0.15686 0.0
C1555 C 0.48188 0.44517 0.14095 0.0
C1556 C 0.50322 0.43316 0.13545 0.0
C1557 C 0.44125 0.46588 0.15204 0.0
C1558 C 0.44124 0.44555 0.14016 0.0
C1559 C 0.46158 0.43499 0.13571 0.0
C1560 C 0.42103 0.43691 0.12891 0.0
C1561 C 0.41998 0.47714 0.15906 0.0
C1562 C 0.41507 0.41431 0.13027 0.0
C1563 C 0.39924 0.40536 0.11566 0.0
C1564 C 0.38946 0.41887 0.09932 0.0
C1565 C 0.3943 0.44172 0.09909 0.0
C1566 C 0.40995 0.45061 0.11364 0.0
H1567 H 0.42232 0.4862 0.17498 0.0
H1568 H 0.41519 0.48955 0.14629 0.0
H1569 H 0.40618 0.46504 0.16106 0.0
H1570 H 0.42354 0.40338 0.14179 0.0
H1571 H 0.39594 0.38766 0.11607 0.0
H1572 H 0.03563 0.98964 0.83078 0.0
H1573 H 0.99993 0.0073 0.83876 0.0
H1574 H 0.01791 0.01242 0.908 0.0
H1575 H 0.05328 0.99367 0.9002 0.0
H1576 H 0.97591 0.00272 0.90471 0.0
H1577 H 0.99247 0.07236 0.84694 0.0
H1578 H 0.99252 0.04607 0.83294 0.0
H1579 H 0.01328 0.05191 0.85373 0.0
C1580 C 0.03183 0.9943 0.84776 0.0
C1581 C 0.04727 0.99044 0.86486 0.0
C1582 C 0.01152 0.00463 0.85226 0.0
C1583 C 0.00649 0.01196 0.87384 0.0
C1584 C 0.02148 0.00716 0.89116 0.0
H1585 H 0.91279 0.11306 0.91358 0.0
H1586 H 0.94411 0.09259 0.89752 0.0
C1587 C 0.04165 0.99636 0.88673 0.0
C1588 C 0.98576 0.02477 0.87833 0.0
H1589 H 0.95597 0.07036 0.86198 0.0
C1590 C 0.97158 0.01753 0.89538 0.0
C1591 C 0.98025 0.04438 0.86643 0.0
C1592 C 0.99555 0.05428 0.84917 0.0
C1593 C 0.95213 0.02922 0.90088 0.0
C1594 C 0.94609 0.04825 0.88831 0.0
C1595 C 0.9603 0.05555 0.8713 0.0
C1596 C 0.92598 0.06169 0.89373 0.0
C1597 C 0.93881 0.02151 0.92072 0.0
C1598 C 0.90495 0.05165 0.89553 0.0
C1599 C 0.88716 0.06329 0.90497 0.0
C1600 C 0.88989 0.08539 0.91188 0.0
C1601 C 0.91018 0.09618 0.90786 0.0
C1602 C 0.92813 0.08439 0.89891 0.0
H1603 H 0.94892 0.011 0.93206 0.0
H1604 H 0.93227 0.03582 0.93037 0.0
H1605 H 0.92456 0.01134 0.91493 0.0
H1606 H 0.90264 0.0344 0.89094 0.0
H1607 H 0.87173 0.05457 0.90824 0.0
H1608 H 0.19879 0.61919 0.15776 0.0
H1609 H 0.22145 0.64972 0.14279 0.0
H1610 H 0.16192 0.68751 0.13005 0.0
H1611 H 0.13939 0.65726 0.1453 0.0
H1612 H 0.22227 0.67942 0.10262 0.0
H1613 H 0.19653 0.72046 0.18117 0.0
H1614 H 0.19315 0.69102 0.17642 0.0
H1615 H 0.17388 0.71046 0.16446 0.0
C1616 C 0.19054 0.63349 0.15056 0.0
C1617 C 0.16737 0.6358 0.15231 0.0
C1618 C 0.20349 0.65104 0.14228 0.0
C1619 C 0.19335 0.67101 0.13571 0.0
C1620 C 0.17007 0.67231 0.13523 0.0
H1621 H 0.23825 0.79429 0.08096 0.0
H1622 H 0.22427 0.75702 0.08802 0.0
C1623 C 0.15718 0.65491 0.14363 0.0
C1624 C 0.2068 0.69146 0.13253 0.0
H1625 H 0.21545 0.74294 0.15486 0.0
C1626 C 0.22093 0.69328 0.11407 0.0
C1627 C 0.20548 0.70928 0.14784 0.0
C1628 C 0.19162 0.70773 0.16872 0.0
C1629 C 0.23299 0.71293 0.10999 0.0
C1630 C 0.23057 0.73128 0.12459 0.0
C1631 C 0.2172 0.729 0.14356 0.0
C1632 C 0.24054 0.75343 0.11988 0.0
C1633 C 0.24824 0.71381 0.0901 0.0
C1634 C 0.25399 0.76421 0.13569 0.0
C1635 C 0.26187 0.78582 0.13183 0.0
C1636 C 0.25628 0.79713 0.11213 0.0
C1637 C 0.24296 0.78616 0.09631 0.0
C1638 C 0.2351 0.76466 0.1002 0.0
H1639 H 0.25396 0.69693 0.08527 0.0
H1640 H 0.23908 0.72095 0.07576 0.0
H1641 H 0.26302 0.72437 0.0934 0.0
H1642 H 0.25824 0.75594 0.15111 0.0
H1643 H 0.27213 0.79372 0.14433 0.0
H1644 H 0.47012 0.01442 0.32306 0.0
H1645 H 0.50724 0.99802 0.3274 0.0
H1646 H 0.4902 0.97722 0.39388 0.0
H1647 H 0.45362 0.99388 0.38996 0.0
H1648 H 0.53061 0.99641 0.39219 0.0
H1649 H 0.52322 0.93218 0.3261 0.0
H1650 H 0.51898 0.96044 0.31736 0.0
H1651 H 0.4996 0.94769 0.33617 0.0
C1652 C 0.47434 0.00639 0.33861 0.0
C1653 C 0.45884 0.00542 0.35613 0.0
C1654 C 0.49549 0.99687 0.34099 0.0
C1655 C 0.50138 0.98607 0.36084 0.0
C1656 C 0.48603 0.9854 0.37838 0.0
H1657 H 0.59176 0.88882 0.40593 0.0
H1658 H 0.56321 0.90919 0.38521 0.0
C1659 C 0.46506 0.99498 0.3761 0.0
C1660 C 0.52356 0.97567 0.36394 0.0
H1661 H 0.55648 0.93263 0.34677 0.0
C1662 C 0.53641 0.98263 0.3821 0.0
C1663 C 0.53098 0.95757 0.35085 0.0
C1664 C 0.51746 0.94883 0.33162 0.0
C1665 C 0.55594 0.97146 0.38817 0.0
C1666 C 0.56336 0.95325 0.37518 0.0
C1667 C 0.55092 0.94674 0.35653 0.0
C1668 C 0.58256 0.93943 0.3823 0.0
C1669 C 0.56761 0.97851 0.40927 0.0
C1670 C 0.60344 0.94913 0.38623 0.0
C1671 C 0.61957 0.93761 0.39835 0.0
C1672 C 0.61533 0.91597 0.40594 0.0
C1673 C 0.59549 0.90537 0.39984 0.0
C1674 C 0.57916 0.91706 0.38812 0.0
H1675 H 0.55692 0.98922 0.41986 0.0
H1676 H 0.57275 0.96383 0.41921 0.0
H1677 H 0.58272 0.98818 0.40496 0.0
H1678 H 0.60664 0.96618 0.38141 0.0
H1679 H 0.63471 0.94614 0.40313 0.0
H1680 H 0.36331 0.33764 0.66568 0.0
H1681 H 0.33981 0.30863 0.64964 0.0
H1682 H 0.2842 0.35395 0.64922 0.0
H1683 H 0.30812 0.38333 0.66445 0.0
H1684 H 0.30565 0.29214 0.67208 0.0
H1685 H 0.2753 0.32277 0.59054 0.0
H1686 H 0.2985 0.33535 0.60482 0.0
H1687 H 0.27049 0.34155 0.61323 0.0
C1688 C 0.34632 0.34164 0.66122 0.0
C1689 C 0.33755 0.36273 0.66589 0.0
C1690 C 0.33283 0.32502 0.65228 0.0
C1691 C 0.31019 0.32903 0.64821 0.0
C1692 C 0.30168 0.35053 0.65176 0.0
H1693 H 0.22129 0.21215 0.64604 0.0
H1694 H 0.23723 0.24834 0.65616 0.0
C1695 C 0.31535 0.36734 0.66038 0.0
C1696 C 0.29531 0.31001 0.64283 0.0
H1697 H 0.25878 0.28972 0.60438 0.0
C1698 C 0.29539 0.29164 0.65726 0.0
C1699 C 0.28187 0.30937 0.62356 0.0
C1700 C 0.28161 0.32821 0.60702 0.0
C1701 C 0.28299 0.27242 0.65268 0.0
C1702 C 0.26948 0.27175 0.63345 0.0
C1703 C 0.26896 0.29033 0.61925 0.0
C1704 C 0.25765 0.25114 0.62662 0.0
C1705 C 0.28533 0.25265 0.66798 0.0
C1706 C 0.26302 0.24118 0.60626 0.0
C1707 C 0.25378 0.22075 0.60034 0.0
C1708 C 0.23896 0.20967 0.61471 0.0
C1709 C 0.23285 0.22008 0.63474 0.0
C1710 C 0.24202 0.24072 0.64057 0.0
H1711 H 0.30014 0.25411 0.67892 0.0
H1712 H 0.27042 0.2515 0.67877 0.0
H1713 H 0.28672 0.23697 0.65835 0.0
H1714 H 0.27497 0.24888 0.59518 0.0
H1715 H 0.25879 0.21338 0.5847 0.0
H1716 H 0.95784 0.48225 0.6023 0.0
H1717 H 0.99392 0.49894 0.59283 0.0
H1718 H 0.00645 0.51164 0.66222 0.0
H1719 H 0.9706 0.49514 0.67179 0.0
H1720 H 0.0034 0.54501 0.60552 0.0
H1721 H 0.06653 0.48596 0.63836 0.0
H1722 H 0.0385 0.47749 0.63156 0.0
H1723 H 0.0438 0.49285 0.65656 0.0
C1724 C 0.96852 0.48811 0.61555 0.0
C1725 C 0.9613 0.48752 0.63776 0.0
C1726 C 0.98909 0.49769 0.61013 0.0
C1727 C 0.00292 0.5064 0.62685 0.0
C1728 C 0.99621 0.50477 0.64909 0.0
H1729 H 0.12199 0.59283 0.61444 0.0
H1730 H 0.09258 0.5695 0.63137 0.0
C1731 C 0.97563 0.49545 0.65449 0.0
C1732 C 0.02304 0.51943 0.62096 0.0
H1733 H 0.07981 0.52045 0.62468 0.0
C1734 C 0.02009 0.53962 0.60971 0.0
C1735 C 0.04477 0.5126 0.62687 0.0
C1736 C 0.04876 0.49098 0.63889 0.0
C1737 C 0.03826 0.55302 0.60391 0.0
C1738 C 0.06007 0.54586 0.60906 0.0
C1739 C 0.06307 0.52594 0.62084 0.0
C1740 C 0.07968 0.55772 0.5999 0.0
C1741 C 0.03399 0.57473 0.59207 0.0
C1742 C 0.08259 0.5581 0.57684 0.0
C1743 C 0.09895 0.57137 0.56732 0.0
C1744 C 0.11309 0.58444 0.58059 0.0
C1745 C 0.11126 0.58299 0.60384 0.0
C1746 C 0.09451 0.56972 0.61347 0.0
H1747 H 0.01676 0.58075 0.5949 0.0
H1748 H 0.04583 0.58777 0.59763 0.0
H1749 H 0.03625 0.57229 0.57393 0.0
H1750 H 0.07161 0.5487 0.56608 0.0
H1751 H 0.10015 0.57179 0.54935 0.0
H1752 H 0.78363 0.71551 0.86231 0.0
H1753 H 0.76952 0.75277 0.85353 0.0
H1754 H 0.72997 0.75189 0.91335 0.0
H1755 H 0.74431 0.71533 0.92251 0.0
H1756 H 0.72821 0.76381 0.84474 0.0
H1757 H 0.75431 0.81343 0.91719 0.0
H1758 H 0.76568 0.78625 0.9115 0.0
H1759 H 0.73969 0.78909 0.92618 0.0
C1760 C 0.77221 0.72343 0.87376 0.0
C1761 C 0.76509 0.71234 0.89308 0.0
C1762 C 0.76418 0.74475 0.86875 0.0
C1763 C 0.74897 0.75539 0.88299 0.0
C1764 C 0.74218 0.74444 0.90243 0.0
H1765 H 0.64198 0.83907 0.84539 0.0
H1766 H 0.66688 0.81092 0.86084 0.0
C1767 C 0.75027 0.72331 0.90751 0.0
C1768 C 0.73825 0.77675 0.87659 0.0
H1769 H 0.72207 0.82732 0.89706 0.0
C1770 C 0.72724 0.77782 0.85606 0.0
C1771 C 0.73717 0.79528 0.89113 0.0
C1772 C 0.75008 0.79604 0.91261 0.0
C1773 C 0.71421 0.79625 0.85024 0.0
C1774 C 0.71159 0.8139 0.8656 0.0
C1775 C 0.72364 0.81353 0.88555 0.0
C1776 C 0.69578 0.83233 0.86123 0.0
C1777 C 0.70315 0.79653 0.82772 0.0
C1778 C 0.70337 0.85421 0.85808 0.0
C1779 C 0.68893 0.87054 0.84976 0.0
C1780 C 0.66685 0.86505 0.84449 0.0
C1781 C 0.65889 0.84371 0.84953 0.0
C1782 C 0.67317 0.82757 0.85808 0.0
H1783 H 0.71182 0.78544 0.81576 0.0
H1784 H 0.68578 0.79052 0.82941 0.0
H1785 H 0.70273 0.8136 0.8207 0.0
H1786 H 0.72074 0.85825 0.86054 0.0
H1787 H 0.69553 0.88677 0.84556 0.0
H1788 H 0.74986 0.29714 0.35996 0.0
H1789 H 0.76569 0.25998 0.3546 0.0
H1790 H 0.76859 0.2509 0.4257 0.0
H1791 H 0.75376 0.28824 0.43109 0.0
H1792 H 0.80608 0.23958 0.40892 0.0
H1793 H 0.74107 0.19877 0.35867 0.0
H1794 H 0.75019 0.22394 0.34561 0.0
H1795 H 0.73652 0.22512 0.37227 0.0
C1796 C 0.75365 0.28709 0.37441 0.0
C1797 C 0.75075 0.29569 0.39593 0.0
C1798 C 0.76252 0.26575 0.37135 0.0
C1799 C 0.76808 0.25239 0.38975 0.0
C1800 C 0.76449 0.26079 0.41122 0.0
H1801 H 0.81754 0.11795 0.35782 0.0
H1802 H 0.79581 0.14648 0.37762 0.0
C1803 C 0.75603 0.28219 0.41427 0.0
C1804 C 0.77937 0.23053 0.38676 0.0
H1805 H 0.77765 0.1821 0.35716 0.0
C1806 C 0.7996 0.22688 0.39787 0.0
C1807 C 0.77082 0.2136 0.37281 0.0
C1808 C 0.74833 0.21545 0.36188 0.0
C1809 C 0.81206 0.20745 0.39445 0.0
C1810 C 0.80447 0.19145 0.37898 0.0
C1811 C 0.78363 0.19443 0.36887 0.0
C1812 C 0.81905 0.17318 0.37091 0.0
C1813 C 0.83342 0.20447 0.40723 0.0
C1814 C 0.83955 0.17853 0.36117 0.0
C1815 C 0.8519 0.16236 0.35011 0.0
C1816 C 0.844 0.14045 0.34841 0.0
C1817 C 0.82418 0.13462 0.3593 0.0
C1818 C 0.81168 0.15096 0.37036 0.0
H1819 H 0.83247 0.21275 0.42372 0.0
H1820 H 0.8374 0.18663 0.40978 0.0
H1821 H 0.84725 0.21233 0.39787 0.0
H1822 H 0.8454 0.19556 0.36083 0.0
H1823 H 0.86701 0.16733 0.34163 0.0
H1824 H 0.11928 0.51427 0.2039 0.0
H1825 H 0.10289 0.48226 0.22302 0.0
H1826 H 0.06711 0.52668 0.26645 0.0
H1827 H 0.08322 0.55872 0.2469 0.0
H1828 H 0.1112 0.47299 0.26557 0.0
H1829 H 0.02005 0.48011 0.25543 0.0
H1830 H 0.03938 0.49542 0.2383 0.0
H1831 H 0.03254 0.50515 0.26575 0.0
C1832 C 0.10707 0.51716 0.21684 0.0
C1833 C 0.10199 0.53898 0.22347 0.0
C1834 C 0.09791 0.49885 0.22796 0.0
C1835 C 0.08357 0.50188 0.24617 0.0
C1836 C 0.07765 0.52374 0.25216 0.0
H1837 H 0.03749 0.42473 0.35732 0.0
H1838 H 0.04516 0.45204 0.32844 0.0
C1839 C 0.08675 0.54212 0.24089 0.0
C1840 C 0.07707 0.4824 0.26031 0.0
H1841 H 0.03279 0.45576 0.28424 0.0
C1842 C 0.09401 0.46906 0.26938 0.0
C1843 C 0.05467 0.4772 0.26546 0.0
C1844 C 0.0356 0.49009 0.25556 0.0
C1845 C 0.0893 0.45131 0.28392 0.0
C1846 C 0.06693 0.44635 0.28938 0.0
C1847 C 0.04994 0.45943 0.28004 0.0
C1848 C 0.061 0.42882 0.30605 0.0
C1849 C 0.10841 0.43863 0.29408 0.0
C1850 C 0.06682 0.40632 0.30302 0.0
C1851 C 0.06244 0.39046 0.31969 0.0
C1852 C 0.05215 0.39679 0.33974 0.0
C1853 C 0.04563 0.41917 0.34225 0.0
C1854 C 0.04994 0.43489 0.32566 0.0
H1855 H 0.12448 0.44751 0.29201 0.0
H1856 H 0.10554 0.43576 0.31209 0.0
H1857 H 0.10988 0.42221 0.28582 0.0
H1858 H 0.075 0.40107 0.28787 0.0
H1859 H 0.06762 0.37342 0.3171 0.0
H1860 H 0.87642 0.83582 0.57675 0.0
H1861 H 0.84719 0.84449 0.54976 0.0
H1862 H 0.81886 0.77935 0.55923 0.0
H1863 H 0.84819 0.77035 0.58578 0.0
H1864 H 0.81638 0.79298 0.51518 0.0
H1865 H 0.78481 0.85869 0.57184 0.0
H1866 H 0.81318 0.86235 0.56329 0.0
H1867 H 0.80568 0.83892 0.58027 0.0
C1868 C 0.86424 0.82316 0.57281 0.0
C1869 C 0.86461 0.80246 0.58374 0.0
C1870 C 0.84739 0.82822 0.55746 0.0
C1871 C 0.83045 0.81278 0.55281 0.0
C1872 C 0.8316 0.79163 0.56261 0.0
H1873 H 0.69633 0.8437 0.51442 0.0
H1874 H 0.73023 0.82899 0.53116 0.0
C1875 C 0.84844 0.78653 0.57787 0.0
C1876 C 0.8107 0.81903 0.53906 0.0
H1877 H 0.76627 0.85441 0.53769 0.0
C1878 C 0.80546 0.80648 0.52003 0.0
C1879 C 0.7962 0.83642 0.54554 0.0
C1880 C 0.80006 0.84977 0.56644 0.0
C1881 C 0.78617 0.81084 0.50738 0.0
C1882 C 0.77183 0.82839 0.51377 0.0
C1883 C 0.77722 0.84099 0.53269 0.0
C1884 C 0.75062 0.83361 0.50188 0.0
C1885 C 0.78097 0.7962 0.48772 0.0
C1886 C 0.75038 0.8403 0.47944 0.0
C1887 C 0.73073 0.84841 0.46964 0.0
C1888 C 0.7111 0.85025 0.48223 0.0
C1889 C 0.71114 0.84236 0.50424 0.0
C1890 C 0.73059 0.8341 0.51389 0.0
H1891 H 0.79041 0.78033 0.48829 0.0
H1892 H 0.76293 0.79234 0.48695 0.0
H1893 H 0.78561 0.80503 0.4722 0.0
H1894 H 0.76562 0.84049 0.46987 0.0
H1895 H 0.73135 0.85479 0.45282 0.0
H1896 H 0.42359 0.44663 0.74561 0.0
H1897 H 0.44053 0.47797 0.76574 0.0
H1898 H 0.40536 0.52404 0.72367 0.0
H1899 H 0.38828 0.49282 0.7038 0.0
H1900 H 0.45247 0.53673 0.73696 0.0
H1901 H 0.39552 0.51439 0.80646 0.0
H1902 H 0.41284 0.49261 0.79545 0.0
H1903 H 0.39133 0.50435 0.77849 0.0
C1904 C 0.42037 0.46344 0.73999 0.0
C1905 C 0.40505 0.46731 0.7228 0.0
C1906 C 0.42979 0.48134 0.75169 0.0
C1907 C 0.42408 0.50338 0.74632 0.0
C1908 C 0.4101 0.50723 0.72806 0.0
H1909 H 0.41813 0.62167 0.8287 0.0
H1910 H 0.41154 0.59175 0.8019 0.0
C1911 C 0.4005 0.48938 0.71657 0.0
C1912 C 0.43041 0.52227 0.76112 0.0
H1913 H 0.41834 0.54572 0.81152 0.0
C1914 C 0.44517 0.53863 0.75334 0.0
C1915 C 0.42058 0.52495 0.78234 0.0
C1916 C 0.40406 0.50829 0.79127 0.0
C1917 C 0.45045 0.55747 0.76629 0.0
C1918 C 0.44068 0.56008 0.78756 0.0
C1919 C 0.42586 0.54374 0.79525 0.0
C1920 C 0.4454 0.57965 0.80214 0.0
C1921 C 0.46605 0.57472 0.75693 0.0
C1922 C 0.46671 0.5831 0.81102 0.0
C1923 C 0.47054 0.60021 0.82642 0.0
C1924 C 0.45314 0.61432 0.83332 0.0
C1925 C 0.43199 0.61131 0.82373 0.0
C1926 C 0.42815 0.59409 0.80846 0.0
H1927 H 0.46838 0.57277 0.73871 0.0
H1928 H 0.45978 0.59175 0.76035 0.0
H1929 H 0.48254 0.57303 0.76503 0.0
H1930 H 0.48023 0.57204 0.80668 0.0
H1931 H 0.48702 0.6019 0.83346 0.0
H1932 H 0.62941 0.16589 0.08007 0.0
H1933 H 0.65905 0.1586 0.05314 0.0
H1934 H 0.68256 0.22587 0.06044 0.0
H1935 H 0.65284 0.23343 0.08718 0.0
H1936 H 0.68462 0.21022 0.0158 0.0
H1937 H 0.72328 0.15066 0.07475 0.0
H1938 H 0.69492 0.14453 0.06771 0.0
H1939 H 0.70137 0.16942 0.08294 0.0
C1940 C 0.64063 0.17928 0.07573 0.0
C1941 C 0.63874 0.20021 0.08608 0.0
C1942 C 0.6577 0.17503 0.06037 0.0
C1943 C 0.67338 0.19154 0.05502 0.0
C1944 C 0.6708 0.2128 0.06434 0.0
H1945 H 0.80773 0.16704 0.01139 0.0
H1946 H 0.77406 0.18164 0.02875 0.0
C1947 C 0.65374 0.21708 0.07969 0.0
C1948 C 0.69324 0.18628 0.04095 0.0
H1949 H 0.74007 0.15408 0.03953 0.0
C1950 C 0.69673 0.19791 0.02094 0.0
C1951 C 0.70928 0.17044 0.04775 0.0
C1952 C 0.70723 0.15816 0.06954 0.0
C1953 C 0.71565 0.19398 0.00756 0.0
C1954 C 0.7315 0.17791 0.01425 0.0
C1955 C 0.72796 0.16636 0.03427 0.0
C1956 C 0.75232 0.1731 1.00143 0.0
C1957 C 0.71881 0.20745 0.98666 0.0
C1958 C 0.7517 0.16429 0.97972 0.0
C1959 C 0.77119 0.15623 0.96952 0.0
C1960 C 0.79159 0.15663 0.98096 0.0
C1961 C 0.79234 0.16676 1.00202 0.0
C1962 C 0.77302 0.17493 0.01207 0.0
H1963 H 0.70819 0.22256 0.98657 0.0
H1964 H 0.73644 0.21256 0.98472 0.0
H1965 H 0.71422 0.19714 0.97207 0.0
H1966 H 0.73596 0.16231 0.97123 0.0
H1967 H 0.76995 0.14798 0.95356 0.0
H1968 H 0.58262 0.97303 0.80592 0.0
H1969 H 0.56308 0.00489 0.78864 0.0
H1970 H 0.59862 0.99332 0.72749 0.0
H1971 H 0.61792 0.96226 0.74442 0.0
H1972 H 0.58425 0.04376 0.77011 0.0
H1973 H 0.53471 1.00073 0.70591 0.0
H1974 H 0.54592 0.98645 0.72982 0.0
H1975 H 0.56312 0.99168 0.70588 0.0
C1976 C 0.58568 0.97697 0.78863 0.0
C1977 C 0.60159 0.96491 0.77645 0.0
C1978 C 0.5747 0.99527 0.77881 0.0
C1979 C 0.57917 1.0014 0.75661 0.0
C1980 C 0.59447 0.98878 0.74442 0.0
H1981 H 0.58491 0.1209 0.6796 0.0
H1982 H 0.5901 0.09123 0.70687 0.0
C1983 C 0.60551 0.97092 0.75418 0.0
C1984 C 0.56945 0.02173 0.74611 0.0
H1985 H 0.54403 0.03901 0.69833 0.0
C1986 C 0.57503 0.04275 0.75466 0.0
C1987 C 0.55728 0.02057 0.726 0.0
C1988 C 0.54971 0.99863 0.71648 0.0
C1989 C 0.56986 0.06247 0.74303 0.0
C1990 C 0.55918 0.06118 0.72205 0.0
C1991 C 0.55247 0.04019 0.71421 0.0
C1992 C 0.55556 0.08106 0.70744 0.0
C1993 C 0.57611 0.08447 0.7533 0.0
C1994 C 0.53444 0.08544 0.69844 0.0
C1995 C 0.53147 0.10231 0.68262 0.0
C1996 C 0.54955 0.11529 0.67529 0.0
C1997 C 0.57053 0.11149 0.68497 0.0
C1998 C 0.57351 0.09449 0.70071 0.0
H1999 H 0.57686 0.08327 0.77171 0.0
H2000 H 0.59285 0.08941 0.74731 0.0
H2001 H 0.5641 0.09771 0.7487 0.0
H2002 H 0.52029 0.07537 0.70323 0.0
H2003 H 0.51507 0.10468 0.67559 0.0
H2004 H 0.27618 0.35389 0.05185 0.0
H2005 H 0.24189 0.33949 0.03489 0.0
H2006 H 0.27676 0.32952 0.97304 0.0
H2007 H 0.31069 0.34424 0.98971 0.0
H2008 H 0.24026 0.35513 0.96772 0.0
H2009 H 0.21761 0.27924 0.01513 0.0
H2010 H 0.22264 0.30351 0.03181 0.0
H2011 H 0.24506 0.29139 0.01624 0.0
C2012 C 0.2767 0.3478 0.03491 0.0
C2013 C 0.29618 0.3501 0.02215 0.0
C2014 C 0.25704 0.33965 0.02516 0.0
C2015 C 0.25664 0.33338 0.00261 0.0
C2016 C 0.27653 0.33429 0.99041 0.0
H2017 H 0.15883 0.27202 0.91747 0.0
H2018 H 0.18848 0.28034 0.94392 0.0
C2019 C 0.296 0.34257 1.00002 0.0
C2020 C 0.23535 0.32825 0.99083 0.0
H2021 H 0.19127 0.29227 0.98882 0.0
C2022 C 0.22954 0.3414 0.97241 0.0
C2023 C 0.22133 0.31031 0.99683 0.0
C2024 C 0.22699 0.29514 0.01596 0.0
C2025 C 0.21044 0.337 0.95969 0.0
C2026 C 0.19627 0.31919 0.96577 0.0
C2027 C 0.20194 0.30608 0.98429 0.0
C2028 C 0.1764 0.31318 0.95212 0.0
C2029 C 0.20606 0.35103 0.93934 0.0
C2030 C 0.15911 0.3285 0.94848 0.0
C2031 C 0.14207 0.32383 0.93323 0.0
C2032 C 0.14187 0.30366 0.92134 0.0
C2033 C 0.15844 0.28779 0.92614 0.0
C2034 C 0.17545 0.2925 0.94134 0.0
H2035 H 0.22106 0.36045 0.93409 0.0
H2036 H 0.20046 0.34057 0.9252 0.0
H2037 H 0.19275 0.36322 0.94311 0.0
H2038 H 0.15918 0.3444 0.95692 0.0
H2039 H 0.12959 0.33642 0.93012 0.0
H2040 H 0.9233 0.03026 0.30522 0.0
H2041 H 0.9411 0.99791 0.28694 0.0
H2042 H 0.90202 0.00981 0.22809 0.0
H2043 H 0.88428 0.04121 0.24605 0.0
H2044 H 0.89816 0.96593 0.24621 0.0
H2045 H 0.986 0.99207 0.23288 0.0
H2046 H 0.97353 0.99599 0.25987 0.0
H2047 H 0.96403 0.01217 0.23675 0.0
C2048 C 0.91906 0.02625 0.28819 0.0
C2049 C 0.90243 0.03836 0.27707 0.0
C2050 C 0.92913 0.00773 0.27778 0.0
C2051 C 0.9228 1.00132 0.25612 0.0
C2052 C 0.90712 0.01425 0.24479 0.0
H2053 H 0.96202 0.92613 0.14485 0.0
H2054 H 0.95611 0.9523 0.1751 0.0
C2055 C 0.89708 0.03237 0.2551 0.0
C2056 C 0.9308 0.98048 0.24523 0.0
H2057 H 0.97454 0.95862 0.2162 0.0
C2058 C 0.915 0.96406 0.24003 0.0
C2059 C 0.95269 0.97817 0.23698 0.0
C2060 C 0.97016 0.99549 0.24174 0.0
C2061 C 0.92009 0.94609 0.22592 0.0
C2062 C 0.94181 0.94411 0.21702 0.0
C2063 C 0.95793 0.96 0.22307 0.0
C2064 C 0.94728 0.92735 0.19943 0.0
C2065 C 0.9017 0.93024 0.21953 0.0
C2066 C 0.94478 0.90433 0.20296 0.0
C2067 C 0.94801 0.88912 0.18545 0.0
C2068 C 0.95393 0.89663 0.16407 0.0
C2069 C 0.95728 0.91962 0.16095 0.0
C2070 C 0.95401 0.9347 0.17834 0.0
H2071 H 0.88503 0.93667 0.22422 0.0
H2072 H 0.90184 0.92706 0.20135 0.0
H2073 H 0.90423 0.91416 0.22819 0.0
H2074 H 0.94003 0.89811 0.21916 0.0
H2075 H 0.94546 0.87158 0.18857 0.0
H2076 H 0.1983 0.67655 0.51129 0.0
H2077 H 0.22946 0.69255 0.4902 0.0
H2078 H 0.27582 0.65892 0.53318 0.0
H2079 H 0.24476 0.64287 0.5541 0.0
H2080 H 0.29002 0.70355 0.51791 0.0
H2081 H 0.26337 0.64674 0.44996 0.0
H2082 H 0.24263 0.66558 0.46039 0.0
H2083 H 0.2532 0.64401 0.47806 0.0
C2084 C 0.21514 0.67358 0.51696 0.0
C2085 C 0.21909 0.65892 0.53472 0.0
C2086 C 0.23296 0.6824 0.50465 0.0
C2087 C 0.25504 0.67671 0.50989 0.0
C2088 C 0.259 0.66362 0.5288 0.0
H2089 H 0.37113 0.66566 0.42421 0.0
H2090 H 0.34169 0.66027 0.45187 0.0
C2091 C 0.24122 0.65465 0.54094 0.0
C2092 C 0.27377 0.68204 0.49441 0.0
H2093 H 0.29508 0.6687 0.44333 0.0
C2094 C 0.29105 0.69608 0.50154 0.0
C2095 C 0.27537 0.67197 0.47317 0.0
C2096 C 0.25779 0.65609 0.46488 0.0
C2097 C 0.30969 0.70047 0.48793 0.0
C2098 C 0.31118 0.69051 0.46664 0.0
C2099 C 0.29396 0.67638 0.4596 0.0
C2100 C 0.33043 0.69441 0.45135 0.0
C2101 C 0.32791 0.71534 0.49659 0.0
C2102 C 0.3342 0.71546 0.44197 0.0
C2103 C 0.35099 0.71859 0.42605 0.0
C2104 C 0.36454 0.70075 0.41915 0.0
C2105 C 0.36123 0.67985 0.42919 0.0
C2106 C 0.34428 0.6767 0.44495 0.0
H2107 H 0.32653 0.71805 0.51481 0.0
H2108 H 0.3445 0.70814 0.49286 0.0
H2109 H 0.32686 0.73174 0.48822 0.0
H2110 H 0.32362 0.72935 0.44637 0.0
H2111 H 0.35293 0.7349 0.41866 0.0
H2112 H 0.19974 0.1203 0.51156 0.0
H2113 H 0.21887 0.10387 0.47966 0.0
H2114 H 0.25794 0.0634 0.52408 0.0
H2115 H 0.23826 0.0795 0.55602 0.0
H2116 H 0.26203 0.11019 0.4728 0.0
H2117 H 0.2467 0.01948 0.47467 0.0
H2118 H 0.23 0.03891 0.49031 0.0
H2119 H 0.25664 0.03012 0.5007 0.0
C2120 C 0.21164 0.10709 0.51443 0.0
C2121 C 0.21711 0.10076 0.53624 0.0
C2122 C 0.22278 0.09788 0.49618 0.0
C2123 C 0.23987 0.08226 0.49928 0.0
C2124 C 0.24451 0.07499 0.52106 0.0
H2125 H 0.35143 0.03459 0.4234 0.0
H2126 H 0.32213 0.04219 0.45029 0.0
C2127 C 0.23315 0.08409 0.53938 0.0
C2128 C 0.25452 0.07596 0.48013 0.0
H2129 H 0.27705 0.03189 0.45204 0.0
C2130 C 0.26504 0.09305 0.46809 0.0
C2131 C 0.25867 0.05362 0.47395 0.0
C2132 C 0.24725 0.03448 0.48544 0.0
C2133 C 0.27997 0.08848 0.45065 0.0
C2134 C 0.28436 0.06615 0.44467 0.0
C2135 C 0.27365 0.04902 0.45649 0.0
C2136 C 0.30123 0.06027 0.42734 0.0
C2137 C 0.29163 0.10765 0.43939 0.0
C2138 C 0.29914 0.06742 0.40513 0.0
C2139 C 0.31605 0.0631 0.38952 0.0
C2140 C 0.33539 0.05153 0.39583 0.0
C2141 C 0.33693 0.04373 0.41788 0.0
C2142 C 0.32009 0.04799 0.43336 0.0
H2143 H 0.29015 0.1233 0.44908 0.0
H2144 H 0.30954 0.10392 0.43693 0.0
H2145 H 0.28405 0.11047 0.42282 0.0
H2146 H 0.28456 0.07659 0.39992 0.0
H2147 H 0.3142 0.06927 0.37272 0.0
H2148 H 0.17565 0.99347 0.80739 0.0
H2149 H 0.19154 0.01434 0.77597 0.0
H2150 H 0.1546 0.97346 0.73018 0.0
H2151 H 0.13863 0.95283 0.76148 0.0
H2152 H 0.20025 0.98631 0.71555 0.0
H2153 H 0.14683 0.05686 0.74258 0.0
H2154 H 0.16521 0.04527 0.76313 0.0
H2155 H 0.14266 0.02886 0.75255 0.0
C2156 C 0.17178 0.9883 0.79059 0.0
C2157 C 0.15631 0.9712 0.78685 0.0
C2158 C 0.18059 1.00044 0.77264 0.0
C2159 C 0.17409 0.99563 0.75068 0.0
C2160 C 0.15993 0.97746 0.74691 0.0
H2161 H 0.16448 0.08077 0.63453 0.0
H2162 H 0.15867 0.05368 0.66437 0.0
C2163 C 0.15096 0.96554 0.76481 0.0
C2164 C 0.17992 0.01079 0.73187 0.0
H2165 H 0.16836 0.06219 0.71037 0.0
C2166 C 0.19345 0.00297 0.71449 0.0
C2167 C 0.17071 0.0324 0.73026 0.0
C2168 C 0.1554 0.04142 0.74799 0.0
C2169 C 0.19813 0.01624 0.6957 0.0
C2170 C 0.189 0.03789 0.69417 0.0
C2171 C 0.17541 0.04564 0.71152 0.0
C2172 C 0.19309 0.05279 0.67469 0.0
C2173 C 0.21237 0.00683 0.67735 0.0
C2174 C 0.21444 0.06117 0.67027 0.0
C2175 C 0.21783 0.07675 0.65321 0.0
C2176 C 0.19994 0.08432 0.6401 0.0
C2177 C 0.1787 0.07527 0.64409 0.0
C2178 C 0.17531 0.05984 0.66127 0.0
H2179 H 0.2143 0.98852 0.67881 0.0
H2180 H 0.20514 0.01076 0.66083 0.0
H2181 H 0.22914 0.01447 0.67815 0.0
H2182 H 0.2284 0.05626 0.68052 0.0
H2183 H 0.2344 0.08337 0.65075 0.0
H2184 H 0.17353 0.98643 0.90106 0.0
H2185 H 0.20047 0.98036 0.93097 0.0
H2186 H 0.20329 0.91072 0.91447 0.0
H2187 H 0.17643 0.9166 0.88446 0.0
H2188 H 0.19349 0.92127 0.96088 0.0
H2189 H 0.26861 0.96516 0.92953 0.0
H2190 H 0.24268 0.97999 0.92785 0.0
H2191 H 0.24677 0.95553 0.9113 0.0
C2192 C 0.18019 0.96987 0.90347 0.0
C2193 C 0.17275 0.95201 0.89023 0.0
C2194 C 0.19565 0.96645 0.9206 0.0
C2195 C 0.20399 0.9451 0.92496 0.0
C2196 C 0.19714 0.92736 0.91139 0.0
H2197 H 0.30146 0.88849 0.01233 0.0
H2198 H 0.28179 0.90543 0.98097 0.0
C2199 C 0.18184 0.93079 0.89412 0.0
C2200 C 0.21855 0.94092 0.94462 0.0
H2201 H 0.27029 0.95092 0.96616 0.0
C2202 C 0.21024 0.92784 0.96208 0.0
C2203 C 0.24043 0.94946 0.94617 0.0
C2204 C 0.25034 0.96321 0.9277 0.0
C2205 C 0.22318 0.92299 0.98095 0.0
C2206 C 0.24507 0.93155 0.98256 0.0
C2207 C 0.25343 0.94463 0.96509 0.0
C2208 C 0.25996 0.92536 1.00142 0.0
C2209 C 0.21355 0.90819 0.9988 0.0
C2210 C 0.2551 0.93183 0.02337 0.0
C2211 C 0.26668 0.92244 0.04136 0.0
C2212 C 0.28328 0.90644 0.03764 0.0
C2213 C 0.28915 0.90122 0.01563 0.0
C2214 C 0.27776 0.91074 0.9977 0.0
H2215 H 0.19795 0.89995 0.99334 0.0
H2216 H 0.2257 0.89518 0.00368 0.0
H2217 H 0.20979 0.91831 0.01375 0.0
H2218 H 0.24148 0.94314 0.02666 0.0
H2219 H 0.26134 0.92623 0.05814 0.0
H2220 H 0.26672 0.91996 0.15555 0.0
H2221 H 0.27435 0.94752 0.18437 0.0
H2222 H 0.341 0.95556 0.15928 0.0
H2223 H 0.33365 0.92769 0.13059 0.0
H2224 H 0.34102 0.94804 0.20326 0.0
H2225 H 0.27998 0.01451 0.18551 0.0
H2226 H 0.26734 0.98759 0.18786 0.0
H2227 H 0.28663 0.99301 0.16564 0.0
C2228 C 0.2829 0.92787 0.15583 0.0
C2229 C 0.29957 0.92145 0.14064 0.0
C2230 C 0.2872 0.94381 0.17232 0.0
C2231 C 0.3082 0.95393 0.17398 0.0
C2232 C 0.32462 0.94812 0.15837 0.0
H2233 H 0.35507 0.05329 0.27124 0.0
H2234 H 0.34069 0.03652 0.23675 0.0
C2235 C 0.32036 0.93217 0.14188 0.0
C2236 C 0.3137 0.96884 0.19316 0.0
H2237 H 0.29699 0.01533 0.22164 0.0
C2238 C 0.33148 0.96286 0.20707 0.0
C2239 C 0.30144 0.98834 0.19823 0.0
C2240 C 0.28292 0.9964 0.1834 0.0
C2241 C 0.33688 0.97532 0.2261 0.0
C2242 C 0.32402 0.99422 0.23173 0.0
C2243 C 0.30668 1.00071 0.2175 0.0
C2244 C 0.32825 0.00678 0.25273 0.0
C2245 C 0.35634 0.96805 0.24017 0.0
C2246 C 0.32491 0.99629 0.27329 0.0
C2247 C 0.33297 0.00585 0.29289 0.0
C2248 C 0.34437 0.02628 0.29247 0.0
C2249 C 0.34593 0.0378 0.27217 0.0
C2250 C 0.33793 0.02809 0.25242 0.0
H2251 H 0.36757 0.95662 0.23099 0.0
H2252 H 0.36612 0.98263 0.2459 0.0
H2253 H 0.35006 0.95917 0.25508 0.0
H2254 H 0.31732 0.97997 0.27401 0.0
H2255 H 0.33175 0.99646 0.30821 0.0
H2256 H 0.70558 0.38203 0.49481 0.0
H2257 H 0.72447 0.39889 0.52658 0.0
H2258 H 0.75716 0.44514 0.4827 0.0
H2259 H 0.73816 0.42812 0.45066 0.0
H2260 H 0.77406 0.39807 0.52461 0.0
H2261 H 0.73893 0.48206 0.54108 0.0
H2262 H 0.72269 0.46021 0.52833 0.0
H2263 H 0.74397 0.47396 0.51266 0.0
C2264 C 0.71594 0.39651 0.49204 0.0
C2265 C 0.72004 0.40403 0.47028 0.0
C2266 C 0.72692 0.406 0.51021 0.0
C2267 C 0.74226 0.42328 0.5071 0.0
C2268 C 0.74517 0.43201 0.48557 0.0
H2269 H 0.84131 0.4828 0.59446 0.0
H2270 H 0.81381 0.47511 0.56568 0.0
C2271 C 0.73412 0.42246 0.46727 0.0
C2272 C 0.75735 0.42964 0.52576 0.0
H2273 H 0.7696 0.47093 0.5629 0.0
C2274 C 0.77306 0.41399 0.53303 0.0
C2275 C 0.7562 0.45046 0.53656 0.0
C2276 C 0.73952 0.46773 0.52945 0.0
C2277 C 0.78775 0.4186 0.55064 0.0
C2278 C 0.78628 0.43923 0.56195 0.0
C2279 C 0.77064 0.45501 0.55451 0.0
C2280 C 0.80143 0.44496 0.58089 0.0
C2281 C 0.80519 0.4015 0.5564 0.0
C2282 C 0.80323 0.4311 0.59968 0.0
C2283 C 0.8192 0.43534 0.61619 0.0
C2284 C 0.83355 0.45376 0.61451 0.0
C2285 C 0.8307 0.46837 0.59639 0.0
C2286 C 0.8149 0.46401 0.57982 0.0
H2287 H 0.80827 0.3899 0.54236 0.0
H2288 H 0.82118 0.40952 0.56095 0.0
H2289 H 0.79937 0.39149 0.57076 0.0
H2290 H 0.79262 0.41666 0.60134 0.0
H2291 H 0.82072 0.4238 0.62992 0.0
H2292 H 0.82291 0.48377 0.70068 0.0
H2293 H 0.80426 0.50254 0.73205 0.0
H2294 H 0.86149 0.49011 0.77338 0.0
H2295 H 0.87966 0.47115 0.74267 0.0
H2296 H 0.82401 0.48556 0.79714 0.0
H2297 H 0.82145 0.5651 0.75007 0.0
H2298 H 0.80661 0.54237 0.73765 0.0
H2299 H 0.83637 0.5411 0.74007 0.0
C2300 C 0.83115 0.48453 0.71666 0.0
C2301 C 0.8528 0.47607 0.71914 0.0
C2302 C 0.82066 0.49556 0.73451 0.0
C2303 C 0.83168 0.49831 0.75505 0.0
C2304 C 0.85262 0.48845 0.7578 0.0
H2305 H 0.83273 0.57583 0.87574 0.0
H2306 H 0.83848 0.54847 0.84611 0.0
C2307 C 0.86302 0.47757 0.74014 0.0
C2308 C 0.82251 0.51237 0.77345 0.0
H2309 H 0.80943 0.56605 0.78717 0.0
C2310 C 0.82062 0.50312 0.79487 0.0
C2311 C 0.8182 0.53538 0.77068 0.0
C2312 C 0.8209 0.54671 0.74846 0.0
C2313 C 0.81494 0.51619 0.81347 0.0
C2314 C 0.81121 0.53925 0.81076 0.0
C2315 C 0.81233 0.54839 0.78929 0.0
C2316 C 0.80686 0.5544 0.83 0.0
C2317 C 0.81307 0.5052 0.83593 0.0
C2318 C 0.78716 0.56686 0.83099 0.0
C2319 C 0.78378 0.58246 0.84798 0.0
C2320 C 0.80017 0.58626 0.86432 0.0
C2321 C 0.81967 0.57332 0.86361 0.0
C2322 C 0.82297 0.5576 0.84665 0.0
H2323 H 0.81054 0.48696 0.8344 0.0
H2324 H 0.82867 0.50802 0.84536 0.0
H2325 H 0.7991 0.51235 0.84565 0.0
H2326 H 0.7745 0.56478 0.81836 0.0
H2327 H 0.76856 0.59207 0.84784 0.0
H2328 H 0.6879 0.56562 0.13255 0.0
H2329 H 0.71686 0.57314 0.10471 0.0
H2330 H 0.67686 0.54157 0.05437 0.0
H2331 H 0.64813 0.5338 0.08189 0.0
H2332 H 0.72202 0.53018 0.05125 0.0
H2333 H 0.71061 0.62167 0.05714 0.0
H2334 H 0.71692 0.60793 0.08289 0.0
H2335 H 0.69108 0.60224 0.06903 0.0
C2336 C 0.68535 0.5601 0.1156 0.0
C2337 C 0.6655 0.54928 0.10951 0.0
C2338 C 0.70188 0.56453 0.09965 0.0
C2339 C 0.69893 0.55824 0.07729 0.0
C2340 C 0.67955 0.54669 0.07143 0.0
H2341 H 0.76069 0.58011 0.94824 0.0
H2342 H 0.74092 0.56349 0.97988 0.0
C2343 C 0.66305 0.54233 0.08726 0.0
C2344 C 0.71545 0.56432 0.05973 0.0
H2345 H 0.73813 0.60882 0.03258 0.0
C2346 C 0.72565 0.54738 0.04724 0.0
C2347 C 0.72014 0.58675 0.05433 0.0
C2348 C 0.70901 0.60575 0.06638 0.0
C2349 C 0.74048 0.55224 0.0297 0.0
C2350 C 0.74495 0.57469 0.02415 0.0
C2351 C 0.73488 0.59159 0.03681 0.0
C2352 C 0.75952 0.58133 0.00505 0.0
C2353 C 0.75142 0.53327 0.01751 0.0
C2354 C 0.7769 0.59657 0.00845 0.0
C2355 C 0.78808 0.60609 0.99039 0.0
C2356 C 0.78236 0.60044 0.96845 0.0
C2357 C 0.76597 0.58417 0.96497 0.0
C2358 C 0.75458 0.57476 0.98311 0.0
H2359 H 0.75181 0.51795 0.02782 0.0
H2360 H 0.74178 0.52954 1.00224 0.0
H2361 H 0.76868 0.53756 0.01257 0.0
H2362 H 0.78105 0.60202 0.02511 0.0
H2363 H 0.80026 0.61899 0.99352 0.0
H2364 H 0.67078 0.42405 0.37485 0.0
H2365 H 0.663 0.45093 0.34532 0.0
H2366 H 0.73055 0.4454 0.32211 0.0
H2367 H 0.73861 0.41872 0.35173 0.0
H2368 H 0.71354 0.48973 0.3201 0.0
H2369 H 0.65623 0.42877 0.28102 0.0
H2370 H 0.64974 0.43563 0.30934 0.0
H2371 H 0.67514 0.42121 0.30302 0.0
C2372 C 0.68413 0.42879 0.36373 0.0
C2373 C 0.70529 0.41893 0.36564 0.0
C2374 C 0.6796 0.44411 0.34673 0.0
C2375 C 0.69605 0.44992 0.33116 0.0
C2376 C 0.71752 0.44114 0.33381 0.0
H2377 H 0.67113 0.49235 0.19669 0.0
H2378 H 0.68636 0.47569 0.23042 0.0
C2379 C 0.72209 0.42581 0.3508 0.0
C2380 C 0.69052 0.46378 0.31127 0.0
H2381 H 0.65876 0.46401 0.26416 0.0
C2382 C 0.70153 0.48415 0.30788 0.0
C2383 C 0.67507 0.45641 0.29511 0.0
C2384 C 0.66348 0.43424 0.2971 0.0
C2385 C 0.69735 0.49736 0.28891 0.0
C2386 C 0.68167 0.49008 0.27292 0.0
C2387 C 0.67074 0.4697 0.27637 0.0
C2388 C 0.6766 0.50269 0.25207 0.0
C2389 C 0.71013 0.5187 0.28584 0.0
C2390 C 0.66693 0.52402 0.25265 0.0
C2391 C 0.6585 0.53382 0.23313 0.0
C2392 C 0.65941 0.52233 0.21278 0.0
C2393 C 0.67044 0.50174 0.21206 0.0
C2394 C 0.67898 0.49209 0.23141 0.0
H2395 H 0.72511 0.51934 0.29662 0.0
H2396 H 0.71535 0.52077 0.26826 0.0
H2397 H 0.69928 0.53293 0.29029 0.0
H2398 H 0.66452 0.53244 0.26837 0.0
H2399 H 0.64957 0.54941 0.23433 0.0
H2400 H 0.55612 0.24177 0.08335 0.0
H2401 H 0.52466 0.26234 0.06739 0.0
H2402 H 0.47901 0.21709 0.09915 0.0
H2403 H 0.5104 0.19698 0.11554 0.0
H2404 H 0.48633 0.25401 0.04149 0.0
H2405 H 0.46378 0.27633 0.12817 0.0
H2406 H 0.48971 0.26299 0.12124 0.0
H2407 H 0.4645 0.24698 0.1229 0.0
C2408 C 0.53939 0.23562 0.08602 0.0
C2409 C 0.5357 0.21748 0.10028 0.0
C2410 C 0.52138 0.24755 0.07714 0.0
C2411 C 0.49938 0.24161 0.08247 0.0
C2412 C 0.49577 0.22231 0.09513 0.0
H2413 H 0.37425 0.31688 0.06855 0.0
H2414 H 0.40114 0.28665 0.07447 0.0
C2415 C 0.51373 0.21055 0.10416 0.0
C2416 C 0.48047 0.25668 0.07668 0.0
H2417 H 0.44001 0.28933 0.09991 0.0
C2418 C 0.47616 0.26166 0.05427 0.0
C2419 C 0.46716 0.26681 0.09332 0.0
C2420 C 0.47158 0.26322 0.11776 0.0
C2421 C 0.45894 0.27632 0.04809 0.0
C2422 C 0.44581 0.2866 0.06475 0.0
C2423 C 0.44989 0.28135 0.08711 0.0
C2424 C 0.42889 0.30406 0.05955 0.0
C2425 C 0.45487 0.28059 0.02372 0.0
C2426 C 0.43543 0.32393 0.04924 0.0
C2427 C 0.42019 0.34118 0.04594 0.0
C2428 C 0.39791 0.33914 0.05293 0.0
C2429 C 0.3912 0.31903 0.06286 0.0
C2430 C 0.40658 0.30174 0.0663 0.0
H2431 H 0.4613 0.26678 0.01327 0.0
H2432 H 0.43688 0.2828 0.02025 0.0
H2433 H 0.46367 0.29602 0.01873 0.0
H2434 H 0.45258 0.3264 0.0443 0.0
H2435 H 0.42604 0.35637 0.03823 0.0
H2436 H 0.05778 0.25538 0.92406 0.0
H2437 H 0.02502 0.23617 0.93927 0.0
H2438 H 0.98217 0.28201 0.90468 0.0
H2439 H 0.01484 0.30084 0.8892 0.0
H2440 H 0.98613 0.24743 0.96379 0.0
H2441 H 0.9653 0.22212 0.87751 0.0
H2442 H 0.99162 0.23456 0.88469 0.0
H2443 H 0.96728 0.25162 0.8816 0.0
C2444 C 0.04137 0.26189 0.92051 0.0
C2445 C 0.03884 0.27989 0.90585 0.0
C2446 C 0.02263 0.25076 0.92899 0.0
C2447 C 1.00104 0.25731 0.92276 0.0
C2448 C 0.99858 0.27634 0.90943 0.0
H2449 H 0.87265 0.18698 0.9357 0.0
H2450 H 0.90071 0.21604 0.92914 0.0
C2451 C 0.01726 0.28735 0.90088 0.0
C2452 C 0.98133 0.24327 0.9286 0.0
H2453 H 0.94024 0.21125 0.90559 0.0
C2454 C 0.97607 0.23959 0.95106 0.0
C2455 C 0.9681 0.23295 0.91203 0.0
C2456 C 0.97341 0.23529 0.88761 0.0
C2457 C 0.958 0.226 0.95735 0.0
C2458 C 0.945 0.21543 0.94077 0.0
C2459 C 0.95003 0.21943 0.91833 0.0
C2460 C 0.92727 0.19882 0.94625 0.0
C2461 C 0.95293 0.22322 0.98174 0.0
C2462 C 0.93272 0.17944 0.95802 0.0
C2463 C 0.91681 0.16288 0.96172 0.0
C2464 C 0.89491 0.1651 0.95368 0.0
C2465 C 0.88926 0.18473 0.94226 0.0
C2466 C 0.90533 0.20134 0.93844 0.0
H2467 H 0.95933 0.23745 0.99163 0.0
H2468 H 0.93477 0.22164 0.98468 0.0
H2469 H 0.96115 0.20791 0.98792 0.0
H2470 H 0.94956 0.17676 0.96381 0.0
H2471 H 0.92187 0.14804 0.97057 0.0
H2472 H 0.95574 0.77468 0.15021 0.0
H2473 H 0.97331 0.74069 0.16459 0.0
H2474 H 0.03487 0.77634 0.17347 0.0
H2475 H 0.01758 0.80999 0.15883 0.0
H2476 H 0.04004 0.73959 0.14773 0.0
H2477 H 0.99453 0.71717 0.22486 0.0
H2478 H 0.97735 0.72205 0.20091 0.0
H2479 H 0.99307 0.74457 0.21265 0.0
C2480 C 0.97275 0.77545 0.15607 0.0
C2481 C 0.98524 0.79507 0.15349 0.0
C2482 C 0.98284 0.75596 0.1642 0.0
C2483 C 0.0055 0.75586 0.17014 0.0
C2484 C 0.01744 0.77588 0.16896 0.0
H2485 H 0.09331 0.65935 0.23011 0.0
H2486 H 0.06657 0.68888 0.22224 0.0
C2487 C 0.00747 0.79519 0.16072 0.0
C2488 C 0.01762 0.73473 0.17519 0.0
H2489 H 0.02098 0.69109 0.21159 0.0
C2490 C 0.03579 0.72897 0.16167 0.0
C2491 C 0.0122 0.72086 0.19342 0.0
C2492 C 0.99335 0.72648 0.20895 0.0
C2493 C 0.04881 0.71004 0.16596 0.0
C2494 C 0.04332 0.69602 0.18406 0.0
C2495 C 0.02507 0.70166 0.19757 0.0
C2496 C 0.05728 0.67629 0.18989 0.0
C2497 C 0.06883 0.70566 0.15146 0.0
C2498 C 0.06044 0.65879 0.17471 0.0
C2499 C 0.07583 0.64181 0.17913 0.0
C2500 C 0.08837 0.64188 0.1989 0.0
C2501 C 0.08412 0.65873 0.21464 0.0
C2502 C 0.06876 0.67568 0.21019 0.0
H2503 H 0.07368 0.72057 0.14169 0.0
H2504 H 0.0833 0.70036 0.16162 0.0
H2505 H 0.06489 0.69212 0.13957 0.0
H2506 H 0.05149 0.65862 0.1591 0.0
H2507 H 0.07851 0.62912 0.16664 0.0
H2508 H 0.46672 0.75558 0.37714 0.0
H2509 H 0.49655 0.7747 0.39591 0.0
H2510 H 0.49808 0.72363 0.44621 0.0
H2511 H 0.46784 0.70361 0.42667 0.0
H2512 H 0.49949 0.79276 0.43576 0.0
H2513 H 0.56338 0.72645 0.42725 0.0
H2514 H 0.53722 0.72541 0.41262 0.0
H2515 H 0.53827 0.71917 0.44178 0.0
C2516 C 0.47323 0.74824 0.39224 0.0
C2517 C 0.46494 0.72783 0.40022 0.0
C2518 C 0.49039 0.75934 0.40304 0.0
C2519 C 0.5 0.75058 0.42234 0.0
C2520 C 0.4913 0.73057 0.43107 0.0
H2521 H 0.59153 0.84683 0.48379 0.0
H2522 H 0.56264 0.81852 0.4797 0.0
C2523 C 0.47382 0.71926 0.42009 0.0
C2524 C 0.51904 0.763 0.43257 0.0
H2525 H 0.5753 0.76094 0.44132 0.0
C2526 C 0.51601 0.78568 0.43729 0.0
C2527 C 0.54073 0.75396 0.4342 0.0
C2528 C 0.5453 0.72996 0.42857 0.0
C2529 C 0.53396 0.79972 0.44253 0.0
C2530 C 0.55572 0.79075 0.44417 0.0
C2531 C 0.5587 0.76787 0.44021 0.0
C2532 C 0.57553 0.80518 0.44886 0.0
C2533 C 0.52945 0.82432 0.44489 0.0
C2534 C 0.59357 0.80609 0.43392 0.0
C2535 C 0.61064 0.82187 0.43669 0.0
C2536 C 0.60981 0.83719 0.45432 0.0
C2537 C 0.5925 0.83536 0.46994 0.0
C2538 C 0.57583 0.8193 0.46747 0.0
H2539 H 0.51355 0.82917 0.43684 0.0
H2540 H 0.52815 0.82859 0.46278 0.0
H2541 H 0.54301 0.83437 0.43741 0.0
H2542 H 0.59392 0.79532 0.41949 0.0
H2543 H 0.62368 0.82299 0.42432 0.0
H2544 H 0.54392 0.24382 0.6322 0.0
H2545 H 0.52405 0.27498 0.64896 0.0
H2546 H 0.49838 0.23148 0.69977 0.0
H2547 H 0.51842 0.19993 0.68284 0.0
H2548 H 0.4747 0.27006 0.65275 0.0
H2549 H 0.51649 0.29276 0.73215 0.0
H2550 H 0.53147 0.27992 0.70946 0.0
H2551 H 0.51238 0.26377 0.72566 0.0
C2552 C 0.53475 0.24102 0.64746 0.0
C2553 C 0.53293 0.21945 0.65634 0.0
C2554 C 0.52328 0.25886 0.65695 0.0
C2555 C 0.50967 0.25564 0.6756 0.0
C2556 C 0.50898 0.23443 0.68551 0.0
H2557 H 0.41339 0.34571 0.7373 0.0
H2558 H 0.44029 0.31622 0.72979 0.0
C2559 C 0.52059 0.21644 0.67597 0.0
C2560 C 0.49419 0.27376 0.68248 0.0
H2561 H 0.4846 0.31332 0.72221 0.0
C2562 C 0.47684 0.2795 0.66797 0.0
C2563 C 0.49685 0.28594 0.7024 0.0
C2564 C 0.51532 0.28048 0.7184 0.0
C2565 C 0.46213 0.29704 0.67274 0.0
C2566 C 0.46519 0.30982 0.69231 0.0
C2567 C 0.48233 0.30379 0.70708 0.0
C2568 C 0.45045 0.32914 0.6978 0.0
C2569 C 0.44312 0.30131 0.65694 0.0
C2570 C 0.44767 0.34685 0.68277 0.0
C2571 C 0.4321 0.36374 0.68693 0.0
C2572 C 0.41913 0.36352 0.70642 0.0
C2573 C 0.42296 0.34648 0.72207 0.0
C2574 C 0.43839 0.32952 0.7178 0.0
H2575 H 0.43924 0.28639 0.64677 0.0
H2576 H 0.42785 0.30633 0.66602 0.0
H2577 H 0.44777 0.31492 0.64538 0.0
H2578 H 0.4572 0.34737 0.66751 0.0
H2579 H 0.42981 0.37662 0.67457 0.0
H2580 H 0.95758 0.74074 0.61085 0.0
H2581 H 0.98952 0.72392 0.5927 0.0
H2582 H 0.00867 0.78795 0.56667 0.0
H2583 H 0.97641 0.80511 0.58547 0.0
H2584 H 0.00436 0.71995 0.55091 0.0
H2585 H 0.06422 0.76977 0.60073 0.0
H2586 H 0.03482 0.76947 0.60665 0.0
H2587 H 0.04531 0.78531 0.58361 0.0
C2588 C 0.9683 0.75124 0.60086 0.0
C2589 C 0.96443 0.77426 0.59955 0.0
C2590 C 0.98666 0.74157 0.5905 0.0
C2591 C 1.0019 0.75462 0.57862 0.0
C2592 C 0.99744 0.77753 0.57611 0.0
H2593 H 0.10867 0.677 0.51335 0.0
H2594 H 0.07883 0.70405 0.51905 0.0
C2595 C 0.97881 0.7873 0.58653 0.0
C2596 C 0.02271 0.74389 0.5701 0.0
H2597 H 0.07909 0.74186 0.57787 0.0
C2598 C 0.02074 0.72495 0.55655 0.0
C2599 C 0.04413 0.75011 0.57774 0.0
C2600 C 0.04739 0.76965 0.59312 0.0
C2601 C 0.03927 0.71171 0.55107 0.0
C2602 C 0.06069 0.71784 0.5588 0.0
C2603 C 0.06278 0.73717 0.5718 0.0
C2604 C 0.08073 0.70353 0.55497 0.0
C2605 C 0.03543 0.69058 0.53808 0.0
C2606 C 0.09281 0.69511 0.57313 0.0
C2607 C 0.11022 0.67991 0.5699 0.0
C2608 C 0.11596 0.67265 0.5484 0.0
C2609 C 0.10461 0.68199 0.53017 0.0
C2610 C 0.08735 0.69737 0.53341 0.0
H2611 H 0.01768 0.68544 0.53836 0.0
H2612 H 0.04023 0.6933 0.52049 0.0
H2613 H 0.0456 0.67672 0.5448 0.0
H2614 H 0.08821 0.69964 0.58995 0.0
H2615 H 0.11851 0.67313 0.58437 0.0
H2616 H 0.45554 0.74376 0.86812 0.0
H2617 H 0.47574 0.77479 0.85121 0.0
H2618 H 0.5141 0.72854 0.81217 0.0
H2619 H 0.49359 0.69736 0.82902 0.0
H2620 H 0.53976 0.75809 0.83919 0.0
H2621 H 0.47798 0.80494 0.78935 0.0
H2622 H 0.46882 0.79773 0.81686 0.0
H2623 H 0.47415 0.77611 0.79695 0.0
C2624 C 0.46755 0.74028 0.85514 0.0
C2625 C 0.47255 0.71816 0.84943 0.0
C2626 C 0.4792 0.75805 0.84556 0.0
C2627 C 0.49639 0.75412 0.83024 0.0
C2628 C 0.50077 0.73205 0.82377 0.0
H2629 H 0.58474 0.85223 0.76771 0.0
H2630 H 0.55776 0.82242 0.77449 0.0
C2631 C 0.48885 0.71423 0.83316 0.0
C2632 C 0.51132 0.77277 0.82323 0.0
H2633 H 0.51188 0.8238 0.7979 0.0
C2634 C 0.53368 0.77233 0.82997 0.0
C2635 C 0.50347 0.79146 0.81123 0.0
C2636 C 0.47984 0.79261 0.80298 0.0
C2637 C 0.54816 0.79023 0.8256 0.0
C2638 C 0.54016 0.80918 0.81418 0.0
C2639 C 0.51798 0.8094 0.80685 0.0
C2640 C 0.55478 0.82877 0.80972 0.0
C2641 C 0.57198 0.78884 0.83329 0.0
C2642 C 0.56163 0.84275 0.82714 0.0
C2643 C 0.5769 0.86001 0.8233 0.0
C2644 C 0.58585 0.86358 0.80194 0.0
C2645 C 0.57827 0.85003 0.78437 0.0
C2646 C 0.56283 0.83293 0.78821 0.0
H2647 H 0.57656 0.77176 0.83861 0.0
H2648 H 0.58344 0.79417 0.81982 0.0
H2649 H 0.57443 0.80024 0.84759 0.0
H2650 H 0.55557 0.83995 0.84386 0.0
H2651 H 0.58238 0.86994 0.83728 0.0
H2652 H 0.91721 0.15613 0.27147 0.0
H2653 H 0.94417 0.18542 0.27922 0.0
H2654 H 0.95771 0.15622 0.34323 0.0
H2655 H 0.93035 0.12702 0.3358 0.0
H2656 H 0.94855 0.19938 0.34717 0.0
H2657 H 0.01095 0.18996 0.28033 0.0
H2658 H 0.9832 0.1919 0.2696 0.0
H2659 H 0.99086 0.16858 0.28673 0.0
C2660 C 0.92623 0.15558 0.28703 0.0
C2661 C 0.92146 0.1391 0.30301 0.0
C2662 C 0.94183 0.17236 0.2914 0.0
C2663 C 0.95328 0.17304 0.31174 0.0
C2664 C 0.94921 0.1561 0.32736 0.0
H2665 H 0.05141 0.27414 0.35394 0.0
H2666 H 0.03502 0.23935 0.33984 0.0
C2667 C 0.93358 0.13931 0.32303 0.0
C2668 C 0.96759 0.19257 0.31763 0.0
H2669 H 0.01066 0.22519 0.29938 0.0
C2670 C 0.96228 0.2048 0.3368 0.0
C2671 C 0.9857 0.19973 0.3043 0.0
C2672 C 0.99318 0.18672 0.28422 0.0
C2673 C 0.97394 0.22423 0.34257 0.0
C2674 C 0.99126 0.23204 0.32864 0.0
C2675 C 0.9972 0.21943 0.3099 0.0
C2676 C 0.00269 0.25363 0.3332 0.0
C2677 C 0.96753 0.23632 0.36361 0.0
C2678 C 0.99041 0.27346 0.33299 0.0
C2679 C 0.99971 0.29324 0.34094 0.0
C2680 C 0.02164 0.29378 0.34908 0.0
C2681 C 0.0346 0.27436 0.3475 0.0
C2682 C 0.02517 0.25442 0.33963 0.0
H2683 H 0.95827 0.22536 0.37525 0.0
H2684 H 0.98245 0.24289 0.37228 0.0
H2685 H 0.95663 0.25057 0.35934 0.0
H2686 H 0.97318 0.27341 0.32777 0.0
H2687 H 0.98927 0.30788 0.34195 0.0
H2688 H 0.10543 0.31155 0.42428 0.0
H2689 H 0.12524 0.2862 0.44896 0.0
H2690 H 0.0663 0.24586 0.45527 0.0
H2691 H 0.04613 0.27145 0.4309 0.0
H2692 H 0.08552 0.25404 0.49538 0.0
H2693 H 0.14979 0.2251 0.43614 0.0
H2694 H 0.14892 0.25481 0.4385 0.0
H2695 H 0.12538 0.24012 0.4273 0.0
C2696 C 0.0967 0.29716 0.43068 0.0
C2697 C 0.07419 0.29349 0.42544 0.0
C2698 C 0.10812 0.28259 0.44474 0.0
C2699 C 0.09741 0.26387 0.45368 0.0
C2700 C 0.07496 0.26012 0.44847 0.0
H2701 H 0.14229 0.15963 0.54488 0.0
H2702 H 0.12044 0.18256 0.51931 0.0
C2703 C 0.06346 0.27475 0.43448 0.0
C2704 C 0.10939 0.2488 0.4692 0.0
H2705 H 0.15611 0.2169 0.47447 0.0
C2706 C 0.10083 0.24574 0.49073 0.0
C2707 C 0.12938 0.23793 0.46315 0.0
C2708 C 0.1388 0.23945 0.43995 0.0
C2709 C 0.11205 0.23268 0.50653 0.0
C2710 C 0.13226 0.22224 0.50059 0.0
C2711 C 0.14067 0.22504 0.47901 0.0
C2712 C 0.14512 0.20859 0.51661 0.0
C2713 C 0.10256 0.23061 0.52965 0.0
C2714 C 0.16631 0.21553 0.52345 0.0
C2715 C 0.17883 0.20251 0.53808 0.0
C2716 C 0.17052 0.1821 0.546 0.0
C2717 C 0.14921 0.17524 0.53915 0.0
C2718 C 0.13665 0.18836 0.5246 0.0
H2719 H 0.08934 0.2431 0.53286 0.0
H2720 H 0.09522 0.21381 0.53173 0.0
H2721 H 0.11583 0.23261 0.54233 0.0
H2722 H 0.17317 0.23106 0.51743 0.0
H2723 H 0.19516 0.20834 0.54294 0.0
H2724 H 0.0474 0.94653 0.79643 0.0
H2725 H 0.02329 0.92405 0.77286 0.0
H2726 H 0.07297 0.87243 0.77078 0.0
H2727 H 0.09753 0.89504 0.79412 0.0
H2728 H 0.05563 0.88195 0.72946 0.0
H2729 H 0.98773 0.86937 0.79045 0.0
H2730 H 0.99452 0.89812 0.78627 0.0
H2731 H 0.01477 0.87972 0.79832 0.0
C2732 C 0.05324 0.93036 0.79107 0.0
C2733 C 0.07445 0.92259 0.79722 0.0
C2734 C 0.03933 0.91746 0.77769 0.0
C2735 C 0.04617 0.89641 0.77035 0.0
C2736 C 0.06733 0.88859 0.77636 0.0
H2737 H 0.95881 0.79879 0.7092 0.0
H2738 H 0.98413 0.81905 0.7336 0.0
C2739 C 0.08132 0.90153 0.78972 0.0
C2740 C 0.03146 0.88292 0.75585 0.0
H2741 H 0.97967 0.85983 0.75283 0.0
C2742 C 0.03907 0.87698 0.7346 0.0
C2743 C 0.00996 0.87622 0.76269 0.0
C2744 C 1.00131 0.88098 0.78576 0.0
C2745 C 0.02558 0.86496 0.71982 0.0
C2746 C 0.00373 0.85909 0.72632 0.0
C2747 C 0.99632 0.86459 0.74775 0.0
C2748 C 0.9884 0.84693 0.71128 0.0
C2749 C 0.03497 0.85839 0.6975 0.0
C2750 C 0.98211 0.85601 0.69073 0.0
C2751 C 0.96768 0.84442 0.67664 0.0
C2752 C 0.95911 0.82358 0.68293 0.0
C2753 C 0.96515 0.81474 0.70374 0.0
C2754 C 0.97962 0.82631 0.71775 0.0
H2755 H 0.05344 0.85869 0.69751 0.0
H2756 H 0.02933 0.8415 0.69263 0.0
H2757 H 0.02913 0.87033 0.68472 0.0
H2758 H 0.98825 0.87215 0.68563 0.0
H2759 H 0.96323 0.85181 0.66084 0.0
H2760 H 0.40522 0.72238 0.90532 0.0
H2761 H 0.38406 0.7469 0.92999 0.0
H2762 H 0.41846 0.71961 0.98668 0.0
H2763 H 0.44029 0.69581 0.96206 0.0
H2764 H 0.35583 0.7399 0.96247 0.0
H2765 H 0.42848 0.78418 0.99735 0.0
H2766 H 0.43079 0.76561 0.97395 0.0
H2767 H 0.43025 0.75479 1.00188 0.0
C2768 C 0.40828 0.72164 0.92305 0.0
C2769 C 0.42462 0.70737 0.93172 0.0
C2770 C 0.39618 0.73567 0.93714 0.0
C2771 C 0.40003 0.73555 0.96019 0.0
C2772 C 0.41571 0.72062 0.96893 0.0
H2773 H 0.30833 0.79195 0.05752 0.0
H2774 H 0.32951 0.7673 0.03307 0.0
C2775 C 0.42807 0.70689 0.95483 0.0
C2776 C 0.3875 0.75084 0.97507 0.0
H2777 H 0.39393 0.78971 0.01598 0.0
C2778 C 0.36417 0.75089 0.97408 0.0
C2779 C 0.39835 0.76552 0.98996 0.0
C2780 C 0.42334 0.76773 0.9907 0.0
C2781 C 0.35141 0.7649 0.98774 0.0
C2782 C 0.36224 0.77872 0.00345 0.0
C2783 C 0.38557 0.77891 0.0042 0.0
C2784 C 0.34977 0.7935 0.01891 0.0
C2785 C 0.3265 0.7651 0.98473 0.0
C2786 C 0.35477 0.8163 0.01996 0.0
C2787 C 0.34308 0.83032 0.03435 0.0
C2788 C 0.32596 0.82188 0.04785 0.0
C2789 C 0.32122 0.799 0.04709 0.0
C2790 C 0.33319 0.78492 0.03297 0.0
H2791 H 0.32168 0.75931 0.96787 0.0
H2792 H 0.3188 0.75365 0.99697 0.0
H2793 H 0.31955 0.782 0.98733 0.0
H2794 H 0.36757 0.82333 0.0094 0.0
H2795 H 0.34711 0.84787 0.03452 0.0
H2796 H 0.54342 0.14424 0.1628 0.0
H2797 H 0.51791 0.12292 0.18633 0.0
H2798 H 0.51598 0.17689 0.23341 0.0
H2799 H 0.54137 0.19838 0.21005 0.0
H2800 H 0.52268 0.1099 0.23204 0.0
H2801 H 0.44975 0.16498 0.21897 0.0
H2802 H 0.47393 0.16568 0.20118 0.0
H2803 H 0.47462 0.17888 0.22797 0.0
C2804 C 0.5376 0.1516 0.17817 0.0
C2805 C 0.54435 0.17313 0.1844 0.0
C2806 C 0.52303 0.13937 0.1916 0.0
C2807 C 0.51476 0.14846 0.21143 0.0
C2808 C 0.52182 0.16972 0.21796 0.0
H2809 H 0.4235 0.1056 0.31453 0.0
H2810 H 0.44908 0.12579 0.29023 0.0
C2811 C 0.53645 0.18193 0.20461 0.0
C2812 C 0.49883 0.1357 0.22537 0.0
H2813 H 0.44593 0.13666 0.24608 0.0
C2814 C 0.50586 0.11566 0.23504 0.0
C2815 C 0.47691 0.14329 0.22928 0.0
C2816 C 0.46821 0.16428 0.21868 0.0
C2817 C 0.49172 0.10326 0.24895 0.0
C2818 C 0.46977 0.11085 0.25287 0.0
C2819 C 0.46273 0.13085 0.24308 0.0
C2820 C 0.45393 0.09849 0.26734 0.0
C2821 C 0.50065 0.0825 0.25982 0.0
C2822 C 0.44778 0.07652 0.26236 0.0
C2823 C 0.43318 0.06487 0.27627 0.0
C2824 C 0.42422 0.07503 0.29535 0.0
C2825 C 0.43003 0.09723 0.29999 0.0
C2826 C 0.44469 0.10882 0.28611 0.0
H2827 H 0.51912 0.0823 0.26002 0.0
H2828 H 0.49453 0.08092 0.27716 0.0
H2829 H 0.49494 0.06775 0.25033 0.0
H2830 H 0.45426 0.06836 0.24768 0.0
H2831 H 0.429 0.04786 0.27209 0.0
H2832 H 0.60736 0.21078 0.59855 0.0
H2833 H 0.62972 0.23411 0.57373 0.0
H2834 H 0.57919 0.22897 0.52318 0.0
H2835 H 0.55695 0.20542 0.54759 0.0
H2836 H 0.62133 0.22305 0.50645 0.0
H2837 H 0.61725 0.29911 0.55859 0.0
H2838 H 0.62789 0.27504 0.57268 0.0
H2839 H 0.59952 0.27536 0.56329 0.0
C2840 C 0.601 0.2146 0.58215 0.0
C2841 C 0.58025 0.20635 0.57517 0.0
C2842 C 0.61375 0.22805 0.56803 0.0
C2843 C 0.60595 0.2336 0.54674 0.0
C2844 C 0.58549 0.22501 0.53958 0.0
H2845 H 0.65106 0.34018 0.46048 0.0
H2846 H 0.62996 0.31517 0.48466 0.0
C2847 C 0.57277 0.21157 0.55362 0.0
C2848 C 0.61903 0.24826 0.53175 0.0
H2849 H 0.64059 0.30059 0.52689 0.0
C2850 C 0.62556 0.24 0.51091 0.0
C2851 C 0.62425 0.27048 0.53747 0.0
C2852 C 0.61671 0.28066 0.55913 0.0
C2853 C 0.63731 0.25329 0.49571 0.0
C2854 C 0.64302 0.27533 0.50166 0.0
C2855 C 0.63634 0.28364 0.52242 0.0
C2856 C 0.65571 0.29014 0.4865 0.0
C2857 C 0.64307 0.24377 0.47322 0.0
C2858 C 0.67724 0.28442 0.47955 0.0
C2859 C 0.68932 0.29863 0.46566 0.0
C2860 C 0.6802 0.319 0.45858 0.0
C2861 C 0.6586 0.32466 0.46557 0.0
C2862 C 0.64653 0.3104 0.47944 0.0
H2863 H 0.63251 0.22918 0.46908 0.0
H2864 H 0.64111 0.25645 0.45995 0.0
H2865 H 0.66065 0.2382 0.47331 0.0
H2866 H 0.68484 0.26909 0.48513 0.0
H2867 H 0.70593 0.29375 0.4607 0.0
H2868 H 0.90345 0.40717 0.72383 0.0
H2869 H 0.92679 0.38627 0.7498 0.0
H2870 H 0.98514 0.41874 0.72355 0.0
H2871 H 0.96189 0.44019 0.69814 0.0
H2872 H 0.9593 0.35718 0.74383 0.0
H2873 H 0.99329 0.42993 0.78864 0.0
H2874 H 0.97044 0.43221 0.76938 0.0
H2875 H 0.99866 0.43146 0.75937 0.0
C2876 C 0.92126 0.40986 0.72362 0.0
C2877 C 0.9308 0.42552 0.70911 0.0
C2878 C 0.93457 0.39793 0.73848 0.0
C2879 C 0.95768 0.40132 0.73902 0.0
C2880 C 0.9673 0.41636 0.72398 0.0
H2881 H 0.05517 0.31128 0.79461 0.0
H2882 H 0.02977 0.33222 0.77091 0.0
C2883 C 0.95399 0.4285 0.70934 0.0
C2884 C 0.97178 0.38883 0.75499 0.0
H2885 H 0.01176 0.39528 0.79476 0.0
C2886 C 0.97065 0.36552 0.75509 0.0
C2887 C 0.98628 0.3997 0.77002 0.0
C2888 C 0.98709 0.4247 0.77205 0.0
C2889 C 0.98402 0.35277 0.76935 0.0
C2890 C 0.99947 0.36362 0.78342 0.0
C2891 C 1.00016 0.38694 0.78376 0.0
C2892 C 0.01515 0.35111 0.79784 0.0
C2893 C 0.98115 0.32785 0.76939 0.0
C2894 C 0.01612 0.35541 0.82078 0.0
C2895 C 0.03099 0.34376 0.83434 0.0
C2896 C 0.04508 0.3275 0.82522 0.0
C2897 C 0.0443 0.32347 0.8022 0.0
C2898 C 0.02966 0.33532 0.78864 0.0
H2899 H 0.96433 0.32298 0.76352 0.0
H2900 H 0.99348 0.3203 0.75793 0.0
H2901 H 0.98374 0.3208 0.78625 0.0
H2902 H 0.00521 0.36764 0.82823 0.0
H2903 H 0.03119 0.34725 0.852 0.0
H2904 H 0.95726 0.77148 0.07303 0.0
H2905 H 0.93694 0.74625 0.04834 0.0
H2906 H 0.87777 0.78583 0.05631 0.0
H2907 H 0.89783 0.81115 0.08098 0.0
H2908 H 0.89497 0.72178 0.05678 0.0
H2909 H 0.88951 0.78275 0.98758 0.0
H2910 H 0.90931 0.78547 0.00998 0.0
H2911 H 0.88069 0.7927 0.01435 0.0
C2912 C 0.93988 0.77476 0.06966 0.0
C2913 C 0.92921 0.7934 0.07897 0.0
C2914 C 0.92831 0.76031 0.05556 0.0
C2915 C 0.90596 0.76435 0.0503 0.0
C2916 C 0.89511 0.7826 0.05995 0.0
H2917 H 0.80645 0.70777 0.96412 0.0
H2918 H 0.82878 0.73022 0.98945 0.0
C2919 C 0.90659 0.79697 0.07415 0.0
C2920 C 0.894 0.74971 0.03449 0.0
H2921 H 0.86918 0.74933 0.98346 0.0
C2922 C 0.88942 0.7277 0.04068 0.0
C2923 C 0.88681 0.75754 0.01353 0.0
C2924 C 0.89194 0.78085 0.00578 0.0
C2925 C 0.87721 0.71346 0.02672 0.0
C2926 C 0.86989 0.72134 0.00577 0.0
C2927 C 0.87477 0.7433 0.9995 0.0
C2928 C 0.85653 0.70737 0.99035 0.0
C2929 C 0.87164 0.6904 0.03486 0.0
C2930 C 0.8648 0.68713 0.98213 0.0
C2931 C 0.85198 0.67412 0.96769 0.0
C2932 C 0.83071 0.68121 0.961 0.0
C2933 C 0.8227 0.70171 0.96894 0.0
C2934 C 0.83546 0.71462 0.98344 0.0
H2935 H 0.87328 0.68903 0.05321 0.0
H2936 H 0.85444 0.68565 0.03012 0.0
H2937 H 0.88327 0.6783 0.02722 0.0
H2938 H 0.88123 0.68145 0.98677 0.0
H2939 H 0.85876 0.65854 0.96175 0.0
H2940 H 0.46016 0.69341 0.29406 0.0
H2941 H 0.48604 0.67109 0.27204 0.0
H2942 H 0.48735 0.62136 0.3236 0.0
H2943 H 0.46145 0.64356 0.34583 0.0
H2944 H 0.53006 0.65647 0.28634 0.0
H2945 H 0.47371 0.58624 0.26519 0.0
H2946 H 0.46344 0.61297 0.27423 0.0
H2947 H 0.47509 0.59398 0.29404 0.0
C2948 C 0.46581 0.67767 0.30072 0.0
C2949 C 0.4587 0.67032 0.32178 0.0
C2950 C 0.48065 0.66496 0.2881 0.0
C2951 C 0.48848 0.64451 0.2961 0.0
C2952 C 0.4813 0.63698 0.31699 0.0
H2953 H 0.57671 0.54534 0.23655 0.0
H2954 H 0.55204 0.56583 0.26166 0.0
C2955 C 0.46655 0.64975 0.32971 0.0
C2956 C 0.50472 0.63146 0.28286 0.0
H2957 H 0.51106 0.5832 0.2536 0.0
C2958 C 0.52593 0.64045 0.27916 0.0
C2959 C 0.49934 0.61049 0.2737 0.0
C2960 C 0.47663 0.60031 0.27679 0.0
C2961 C 0.54197 0.629 0.2666 0.0
C2962 C 0.53645 0.60823 0.25697 0.0
C2963 C 0.51531 0.59911 0.26095 0.0
C2964 C 0.5521 0.59605 0.24215 0.0
C2965 C 0.56479 0.63914 0.26411 0.0
C2966 C 0.56025 0.60613 0.22274 0.0
C2967 C 0.57446 0.59454 0.20846 0.0
C2968 C 0.58066 0.57246 0.21309 0.0
C2969 C 0.57239 0.56234 0.23251 0.0
C2970 C 0.55824 0.57401 0.24687 0.0
H2971 H 0.56848 0.65095 0.27781 0.0
H2972 H 0.5779 0.62615 0.26382 0.0
H2973 H 0.56556 0.64853 0.24825 0.0
H2974 H 0.5553 0.62288 0.2184 0.0
H2975 H 0.58024 0.6028 0.19353 0.0
H2976 H 0.31292 0.42328 0.10845 0.0
H2977 H 0.28705 0.44738 0.12852 0.0
H2978 H 0.24724 0.45429 0.06937 0.0
H2979 H 0.273 0.43018 0.04908 0.0
H2980 H 0.27593 0.49276 0.11518 0.0
H2981 H 0.20215 0.43712 0.11962 0.0
H2982 H 0.2299 0.42673 0.11474 0.0
H2983 H 0.21495 0.44027 0.09277 0.0
C2984 C 0.29854 0.42969 0.09973 0.0
C2985 C 0.29502 0.42471 0.07715 0.0
C2986 C 0.28381 0.44351 0.11123 0.0
C2987 C 0.26516 0.45243 0.10048 0.0
C2988 C 0.26139 0.44731 0.07805 0.0
H2989 H 0.15968 0.54116 0.14619 0.0
H2990 H 0.18319 0.51604 0.12439 0.0
C2991 C 0.27619 0.43359 0.06647 0.0
C2992 C 0.25028 0.46798 0.11249 0.0
H2993 H 0.1977 0.47372 0.13316 0.0
C2994 C 0.25884 0.48861 0.11916 0.0
C2995 C 0.22794 0.46257 0.11742 0.0
C2996 C 0.21812 0.44042 0.11094 0.0
C2997 C 0.24562 0.50409 0.13058 0.0
C2998 C 0.22339 0.49851 0.136 0.0
C2999 C 0.21475 0.47795 0.12906 0.0
C3000 C 0.20903 0.5136 0.14928 0.0
C3001 C 0.2555 0.52642 0.13636 0.0
C3002 C 0.21556 0.52027 0.17065 0.0
C3003 C 0.20226 0.5347 0.18308 0.0
C3004 C 0.18195 0.54255 0.17453 0.0
C3005 C 0.17521 0.53547 0.15328 0.0
C3006 C 0.18862 0.5211 0.14079 0.0
H3007 H 0.26977 0.53057 0.12539 0.0
H3008 H 0.24292 0.53986 0.135 0.0
H3009 H 0.26169 0.526 0.15372 0.0
H3010 H 0.23094 0.51425 0.17779 0.0
H3011 H 0.20792 0.53963 0.19944 0.0
H3012 H 0.76915 0.07433 0.95536 0.0
H3013 H 0.74459 0.04945 0.93459 0.0
H3014 H 0.78745 0.05469 0.87736 0.0
H3015 H 0.81184 0.07993 0.89779 0.0
H3016 H 0.74376 0.05774 0.86601 0.0
H3017 H 0.75658 0.9847 0.92085 0.0
H3018 H 0.74663 0.00888 0.9352 0.0
H3019 H 0.77371 0.00927 0.9225 0.0
C3020 C 0.77334 0.07026 0.93832 0.0
C3021 C 0.79254 0.07912 0.92829 0.0
C3022 C 0.75935 0.05587 0.92652 0.0
C3023 C 0.7644 0.0498 0.90454 0.0
C3024 C 0.78326 0.05901 0.89433 0.0
H3025 H 0.70965 0.96124 0.80447 0.0
H3026 H 0.73236 0.98697 0.82626 0.0
C3027 C 0.79719 0.07349 0.90606 0.0
C3028 C 0.75 0.034 0.89206 0.0
H3029 H 0.72906 0.98113 0.89283 0.0
C3030 C 0.74061 0.04097 0.87186 0.0
C3031 C 0.74589 0.01208 0.89966 0.0
C3032 C 0.75639 0.00317 0.92063 0.0
C3033 C 0.72706 0.02675 0.8592 0.0
C3034 C 0.72297 0.00488 0.86681 0.0
C3035 C 0.7322 0.99792 0.88707 0.0
C3036 C 0.70934 0.98891 0.85382 0.0
C3037 C 0.71697 0.03532 0.8379 0.0
C3038 C 0.68909 0.98101 0.86231 0.0
C3039 C 0.67601 0.96629 0.84989 0.0
C3040 C 0.68304 0.959 0.82879 0.0
C3041 C 0.70362 0.96657 0.82058 0.0
C3042 C 0.71661 0.98138 0.83296 0.0
H3043 H 0.71753 0.05376 0.83695 0.0
H3044 H 0.72641 0.02855 0.82356 0.0
H3045 H 0.69943 0.0298 0.83629 0.0
H3046 H 0.68325 0.9865 0.87844 0.0
H3047 H 0.66035 0.96072 0.85681 0.0
H3048 H 0.79547 0.04472 0.30716 0.0
H3049 H 0.77236 0.01911 0.32863 0.0
H3050 H 0.82167 0.01779 0.38057 0.0
H3051 H 0.84503 0.04344 0.3592 0.0
H3052 H 0.78576 0.97506 0.34419 0.0
H3053 H 0.76166 0.03223 0.41278 0.0
H3054 H 0.77196 0.04217 0.38637 0.0
H3055 H 0.79084 0.03065 0.40638 0.0
C3056 C 0.80142 0.03912 0.32321 0.0
C3057 C 0.82218 0.04616 0.33143 0.0
C3058 C 0.78817 0.02444 0.33543 0.0
C3059 C 0.79523 0.01668 0.35624 0.0
C3060 C 0.8158 0.02379 0.36464 0.0
H3061 H 0.7329 0.93027 0.45439 0.0
H3062 H 0.75814 0.95468 0.4339 0.0
C3063 C 0.82916 0.03839 0.35236 0.0
C3064 C 0.78129 1.00064 0.36879 0.0
H3065 H 0.7499 0.99492 0.41575 0.0
C3066 C 0.77789 0.97937 0.35983 0.0
C3067 C 0.77117 0.0063 0.38923 0.0
C3068 C 0.77388 0.02911 0.39928 0.0
C3069 C 0.76479 0.96348 0.37089 0.0
C3070 C 0.75432 0.96923 0.39119 0.0
C3071 C 0.75789 0.9905 0.4002 0.0
C3072 C 0.7394 0.95359 0.40323 0.0
C3073 C 0.76269 0.94055 0.36093 0.0
C3074 C 0.72038 0.94485 0.39286 0.0
C3075 C 0.706 0.93071 0.40447 0.0
C3076 C 0.71016 0.92524 0.42683 0.0
C3077 C 0.7292 0.93405 0.43718 0.0
C3078 C 0.74364 0.94807 0.4255 0.0
H3079 H 0.77673 0.93681 0.34952 0.0
H3080 H 0.76212 0.92758 0.37405 0.0
H3081 H 0.74709 0.93959 0.35115 0.0
H3082 H 0.71641 0.94931 0.37588 0.0
H3083 H 0.69135 0.92448 0.39605 0.0
H3084 H 0.29409 0.45754 0.70113 0.0
H3085 H 0.26982 0.4813 0.67896 0.0
H3086 H 0.31955 0.4844 0.62742 0.0
H3087 H 0.34418 0.46082 0.64965 0.0
H3088 H 0.30201 0.52576 0.63824 0.0
H3089 H 0.23457 0.46464 0.62344 0.0
H3090 H 0.24143 0.46818 0.65226 0.0
H3091 H 0.26167 0.45665 0.63351 0.0
C3092 C 0.29989 0.46315 0.68504 0.0
C3093 C 0.32114 0.45723 0.67719 0.0
C3094 C 0.2859 0.47665 0.67231 0.0
C3095 C 0.29273 0.48438 0.6514 0.0
C3096 C 0.31391 0.47853 0.64348 0.0
H3097 H 0.20957 0.54702 0.55149 0.0
H3098 H 0.23347 0.52223 0.57296 0.0
C3099 C 0.32795 0.46502 0.65621 0.0
C3100 C 0.27806 0.49915 0.63813 0.0
H3101 H 0.22682 0.50223 0.61382 0.0
C3102 C 0.2856 0.5206 0.63282 0.0
C3103 C 0.25674 0.49231 0.63088 0.0
C3104 C 0.24816 0.46912 0.63511 0.0
C3105 C 0.27227 0.53551 0.62076 0.0
C3106 C 0.25067 0.52893 0.61415 0.0
C3107 C 0.24328 0.50735 0.61913 0.0
C3108 C 0.23572 0.54397 0.6015 0.0
C3109 C 0.2816 0.55805 0.61487 0.0
C3110 C 0.22866 0.56429 0.61058 0.0
C3111 C 0.21499 0.57859 0.59832 0.0
C3112 C 0.20802 0.57278 0.57676 0.0
C3113 C 0.2147 0.55214 0.56797 0.0
C3114 C 0.22836 0.53789 0.58023 0.0
H3115 H 0.30002 0.55839 0.61615 0.0
H3116 H 0.27677 0.56293 0.59774 0.0
H3117 H 0.27486 0.57064 0.62655 0.0
H3118 H 0.23375 0.56911 0.62716 0.0
H3119 H 0.21005 0.59426 0.60568 0.0
loop_
_geom_bond_atom_site_label_1
_geom_bond_atom_site_label_2
_geom_bond_distance
_geom_bond_site_symmetry_2
_ccdc_geom_bond_type
Fe0 O2 1.918 . S
Fe0 O5 1.997 . S
Fe0 O6 2.002 . S
Fe0 O11 1.976 . S
Fe0 O14 1.996 1_455 S
Fe1 O2 1.918 . S
Fe1 O9 1.997 . S
Fe1 O12 1.996 . S
Fe1 O16 1.976 . S
Fe1 O19 2.002 . S
O2 Fe0 1.918 . S
O2 Fe1 1.918 . S
O2 Fe3 1.918 . S
Fe3 O2 1.918 . S
Fe3 O4 2.002 . S
Fe3 O13 1.976 1_455 S
Fe3 O17 1.996 . S
Fe3 O20 1.997 . S
O4 Fe3 2.002 . S
O4 C21 1.295 . S
O5 Fe0 1.997 . S
O5 C21 1.235 . S
O6 Fe0 2.002 . S
O6 C7 1.295 . S
C7 O6 1.295 . S
C7 O9 1.235 . S
C8 O13 1.287 . S
C8 O14 1.255 . S
O9 Fe1 1.997 . S
O9 C7 1.235 . S
C10 O16 1.287 . S
C10 O17 1.255 . S
O11 Fe0 1.976 . S
O11 C18 1.287 . S
O12 Fe1 1.996 . S
O12 C18 1.255 . S
O13 Fe3 1.976 1_655 S
O13 C8 1.287 . S
O14 Fe0 1.996 1_655 S
O14 C8 1.255 . S
C15 O19 1.295 . S
C15 O20 1.235 . S
O16 Fe1 1.976 . S
O16 C10 1.287 . S
O17 Fe3 1.996 . S
O17 C10 1.255 . S
C18 O11 1.287 . S
C18 O12 1.255 . S
O19 Fe1 2.002 . S
O19 C15 1.295 . S
O20 Fe3 1.997 . S
O20 C15 1.235 . S
C21 O4 1.295 . S
C21 O5 1.235 . S
Fe22 O24 1.918 . S
Fe22 O27 1.997 . S
Fe22 O28 2.002 . S
Fe22 O33 1.976 . S
Fe22 O36 1.996 . S
Fe23 O24 1.918 . S
Fe23 O31 1.997 . S
Fe23 O34 1.996 . S
Fe23 O38 1.976 . S
Fe23 O41 2.002 . S
O24 Fe22 1.918 . S
O24 Fe23 1.918 . S
O24 Fe25 1.918 . S
Fe25 O24 1.918 . S
Fe25 O26 2.002 . S
Fe25 O35 1.976 . S
Fe25 O39 1.996 . S
Fe25 O42 1.997 . S
O26 Fe25 2.002 . S
O26 C43 1.295 . S
O27 Fe22 1.997 . S
O27 C43 1.235 . S
O28 Fe22 2.002 . S
O28 C29 1.295 . S
C29 O28 1.295 . S
C29 O31 1.235 . S
C30 O35 1.287 . S
C30 O36 1.255 . S
O31 Fe23 1.997 . S
O31 C29 1.235 . S
C32 O38 1.287 . S
C32 O39 1.255 . S
O33 Fe22 1.976 . S
O33 C40 1.287 . S
O34 Fe23 1.996 . S
O34 C40 1.255 . S
O35 Fe25 1.976 . S
O35 C30 1.287 . S
O36 Fe22 1.996 . S
O36 C30 1.255 . S
C37 O41 1.295 . S
C37 O42 1.235 . S
O38 Fe23 1.976 . S
O38 C32 1.287 . S
O39 Fe25 1.996 . S
O39 C32 1.255 . S
C40 O33 1.287 . S
C40 O34 1.255 . S
O41 Fe23 2.002 . S
O41 C37 1.295 . S
O42 Fe25 1.997 . S
O42 C37 1.235 . S
C43 O26 1.295 . S
C43 O27 1.235 . S
Fe44 O46 1.918 . S
Fe44 O49 1.997 . S
Fe44 O50 2.002 . S
Fe44 O55 1.976 . S
Fe44 O58 1.996 . S
Fe45 O46 1.918 . S
Fe45 O53 1.997 . S
Fe45 O56 1.996 . S
Fe45 O60 1.976 . S
Fe45 O63 2.002 . S
O46 Fe44 1.918 . S
O46 Fe45 1.918 . S
O46 Fe47 1.918 . S
Fe47 O46 1.918 . S
Fe47 O48 2.002 . S
Fe47 O57 1.976 . S
Fe47 O61 1.996 . S
Fe47 O64 1.997 . S
O48 Fe47 2.002 . S
O48 C65 1.295 . S
O49 Fe44 1.997 . S
O49 C65 1.235 . S
O50 Fe44 2.002 . S
O50 C51 1.295 . S
C51 O50 1.295 . S
C51 O53 1.235 . S
C52 O57 1.287 . S
C52 O58 1.255 . S
O53 Fe45 1.997 . S
O53 C51 1.235 . S
C54 O60 1.287 . S
C54 O61 1.255 . S
O55 Fe44 1.976 . S
O55 C62 1.287 . S
O56 Fe45 1.996 . S
O56 C62 1.255 . S
O57 Fe47 1.976 . S
O57 C52 1.287 . S
O58 Fe44 1.996 . S
O58 C52 1.255 . S
C59 O63 1.295 . S
C59 O64 1.235 . S
O60 Fe45 1.976 . S
O60 C54 1.287 . S
O61 Fe47 1.996 . S
O61 C54 1.255 . S
C62 O55 1.287 . S
C62 O56 1.255 . S
O63 Fe45 2.002 . S
O63 C59 1.295 . S
O64 Fe47 1.997 . S
O64 C59 1.235 . S
C65 O48 1.295 . S
C65 O49 1.235 . S
Fe66 O68 1.918 . S
Fe66 O71 1.997 . S
Fe66 O72 2.002 . S
Fe66 O77 1.976 . S
Fe66 O80 1.996 . S
Fe67 O68 1.918 . S
Fe67 O75 1.997 . S
Fe67 O78 1.996 . S
Fe67 O82 1.976 . S
Fe67 O85 2.002 . S
O68 Fe66 1.918 . S
O68 Fe67 1.918 . S
O68 Fe69 1.918 . S
Fe69 O68 1.918 . S
Fe69 O70 2.002 . S
Fe69 O79 1.976 . S
Fe69 O83 1.996 . S
Fe69 O86 1.997 . S
O70 Fe69 2.002 . S
O70 C87 1.295 . S
O71 Fe66 1.997 . S
O71 C87 1.235 . S
O72 Fe66 2.002 . S
O72 C73 1.295 . S
C73 O72 1.295 . S
C73 O75 1.235 . S
C74 O79 1.287 . S
C74 O80 1.255 . S
O75 Fe67 1.997 . S
O75 C73 1.235 . S
C76 O82 1.287 . S
C76 O83 1.255 . S
O77 Fe66 1.976 . S
O77 C84 1.287 . S
O78 Fe67 1.996 . S
O78 C84 1.255 . S
O79 Fe69 1.976 . S
O79 C74 1.287 . S
O80 Fe66 1.996 . S
O80 C74 1.255 . S
C81 O85 1.295 . S
C81 O86 1.235 . S
O82 Fe67 1.976 . S
O82 C76 1.287 . S
O83 Fe69 1.996 . S
O83 C76 1.255 . S
C84 O77 1.287 . S
C84 O78 1.255 . S
O85 Fe67 2.002 . S
O85 C81 1.295 . S
O86 Fe69 1.997 . S
O86 C81 1.235 . S
C87 O70 1.295 . S
C87 O71 1.235 . S
Fe88 O90 1.918 . S
Fe88 O93 1.997 . S
Fe88 O94 2.002 . S
Fe88 O99 1.976 . S
Fe88 O102 1.996 . S
Fe89 O90 1.918 . S
Fe89 O97 1.997 . S
Fe89 O100 1.996 . S
Fe89 O104 1.976 . S
Fe89 O107 2.002 . S
O90 Fe88 1.918 . S
O90 Fe89 1.918 . S
O90 Fe91 1.918 . S
Fe91 O90 1.918 . S
Fe91 O92 2.002 . S
Fe91 O101 1.976 . S
Fe91 O105 1.996 . S
Fe91 O108 1.997 . S
O92 Fe91 2.002 . S
O92 C109 1.295 . S
O93 Fe88 1.997 . S
O93 C109 1.235 . S
O94 Fe88 2.002 . S
O94 C95 1.295 . S
C95 O94 1.295 . S
C95 O97 1.235 . S
C96 O101 1.287 . S
C96 O102 1.255 . S
O97 Fe89 1.997 . S
O97 C95 1.235 . S
C98 O104 1.287 . S
C98 O105 1.255 . S
O99 Fe88 1.976 . S
O99 C106 1.287 . S
O100 Fe89 1.996 . S
O100 C106 1.255 . S
O101 Fe91 1.976 . S
O101 C96 1.287 . S
O102 Fe88 1.996 . S
O102 C96 1.255 . S
C103 O107 1.295 . S
C103 O108 1.235 . S
O104 Fe89 1.976 . S
O104 C98 1.287 . S
O105 Fe91 1.996 . S
O105 C98 1.255 . S
C106 O99 1.287 . S
C106 O100 1.255 . S
O107 Fe89 2.002 . S
O107 C103 1.295 . S
O108 Fe91 1.997 . S
O108 C103 1.235 . S
C109 O92 1.295 . S
C109 O93 1.235 . S
Fe110 O112 1.918 . S
Fe110 O115 1.997 . S
Fe110 O116 2.002 . S
Fe110 O121 1.976 . S
Fe110 O124 1.996 . S
Fe111 O112 1.918 . S
Fe111 O119 1.997 . S
Fe111 O122 1.996 . S
Fe111 O126 1.976 . S
Fe111 O129 2.002 . S
O112 Fe110 1.918 . S
O112 Fe111 1.918 . S
O112 Fe113 1.918 . S
Fe113 O112 1.918 . S
Fe113 O114 2.002 . S
Fe113 O123 1.976 . S
Fe113 O127 1.996 . S
Fe113 O130 1.997 . S
O114 Fe113 2.002 . S
O114 C131 1.295 . S
O115 Fe110 1.997 . S
O115 C131 1.235 . S
O116 Fe110 2.002 . S
O116 C117 1.295 . S
C117 O116 1.295 . S
C117 O119 1.235 . S
C118 O123 1.287 . S
C118 O124 1.255 . S
O119 Fe111 1.997 . S
O119 C117 1.235 . S
C120 O126 1.287 . S
C120 O127 1.255 . S
O121 Fe110 1.976 . S
O121 C128 1.287 . S
O122 Fe111 1.996 . S
O122 C128 1.255 . S
O123 Fe113 1.976 . S
O123 C118 1.287 . S
O124 Fe110 1.996 . S
O124 C118 1.255 . S
C125 O129 1.295 . S
C125 O130 1.235 . S
O126 Fe111 1.976 . S
O126 C120 1.287 . S
O127 Fe113 1.996 . S
O127 C120 1.255 . S
C128 O121 1.287 . S
C128 O122 1.255 . S
O129 Fe111 2.002 . S
O129 C125 1.295 . S
O130 Fe113 1.997 . S
O130 C125 1.235 . S
C131 O114 1.295 . S
C131 O115 1.235 . S
Fe132 O134 1.918 . S
Fe132 O137 1.997 . S
Fe132 O138 2.002 . S
Fe132 O143 1.976 1_655 S
Fe132 O146 1.996 . S
Fe133 O134 1.918 . S
Fe133 O141 1.997 . S
Fe133 O144 1.996 1_655 S
Fe133 O148 1.976 . S
Fe133 O151 2.002 . S
O134 Fe132 1.918 . S
O134 Fe133 1.918 . S
O134 Fe135 1.918 . S
Fe135 O134 1.918 . S
Fe135 O136 2.002 . S
Fe135 O145 1.976 . S
Fe135 O149 1.996 . S
Fe135 O152 1.997 . S
O136 Fe135 2.002 . S
O136 C153 1.295 . S
O137 Fe132 1.997 . S
O137 C153 1.235 . S
O138 Fe132 2.002 . S
O138 C139 1.295 . S
C139 O138 1.295 . S
C139 O141 1.235 . S
C140 O145 1.287 . S
C140 O146 1.255 . S
O141 Fe133 1.997 . S
O141 C139 1.235 . S
C142 O148 1.287 . S
C142 O149 1.255 . S
O143 Fe132 1.976 1_455 S
O143 C150 1.287 . S
O144 Fe133 1.996 1_455 S
O144 C150 1.255 . S
O145 Fe135 1.976 . S
O145 C140 1.287 . S
O146 Fe132 1.996 . S
O146 C140 1.255 . S
C147 O151 1.295 . S
C147 O152 1.235 . S
O148 Fe133 1.976 . S
O148 C142 1.287 . S
O149 Fe135 1.996 . S
O149 C142 1.255 . S
C150 O143 1.287 . S
C150 O144 1.255 . S
O151 Fe133 2.002 . S
O151 C147 1.295 . S
O152 Fe135 1.997 . S
O152 C147 1.235 . S
C153 O136 1.295 . S
C153 O137 1.235 . S
Fe154 O156 1.918 . S
Fe154 O159 1.997 . S
Fe154 O160 2.002 . S
Fe154 O165 1.976 . S
Fe154 O168 1.996 . S
Fe155 O156 1.918 . S
Fe155 O163 1.997 . S
Fe155 O166 1.996 . S
Fe155 O170 1.976 . S
Fe155 O173 2.002 . S
O156 Fe154 1.918 . S
O156 Fe155 1.918 . S
O156 Fe157 1.918 . S
Fe157 O156 1.918 . S
Fe157 O158 2.002 . S
Fe157 O167 1.976 . S
Fe157 O171 1.996 . S
Fe157 O174 1.997 . S
O158 Fe157 2.002 . S
O158 C175 1.295 . S
O159 Fe154 1.997 . S
O159 C175 1.235 . S
O160 Fe154 2.002 . S
O160 C161 1.295 . S
C161 O160 1.295 . S
C161 O163 1.235 . S
C162 O167 1.287 . S
C162 O168 1.255 . S
O163 Fe155 1.997 . S
O163 C161 1.235 . S
C164 O170 1.287 . S
C164 O171 1.255 . S
O165 Fe154 1.976 . S
O165 C172 1.287 . S
O166 Fe155 1.996 . S
O166 C172 1.255 . S
O167 Fe157 1.976 . S
O167 C162 1.287 . S
O168 Fe154 1.996 . S
O168 C162 1.255 . S
C169 O173 1.295 . S
C169 O174 1.235 . S
O170 Fe155 1.976 . S
O170 C164 1.287 . S
O171 Fe157 1.996 . S
O171 C164 1.255 . S
C172 O165 1.287 . S
C172 O166 1.255 . S
O173 Fe155 2.002 . S
O173 C169 1.295 . S
O174 Fe157 1.997 . S
O174 C169 1.235 . S
C175 O158 1.295 . S
C175 O159 1.235 . S
Fe176 O178 1.918 . S
Fe176 O181 1.997 . S
Fe176 O182 2.002 . S
Fe176 O187 1.976 1_545 S
Fe176 O190 1.996 . S
Fe177 O178 1.918 . S
Fe177 O185 1.997 . S
Fe177 O188 1.996 1_545 S
Fe177 O192 1.976 . S
Fe177 O195 2.002 . S
O178 Fe176 1.918 . S
O178 Fe177 1.918 . S
O178 Fe179 1.918 . S
Fe179 O178 1.918 . S
Fe179 O180 2.002 . S
Fe179 O189 1.976 . S
Fe179 O193 1.996 . S
Fe179 O196 1.997 . S
O180 Fe179 2.002 . S
O180 C197 1.295 . S
O181 Fe176 1.997 . S
O181 C197 1.235 . S
O182 Fe176 2.002 . S
O182 C183 1.295 . S
C183 O182 1.295 . S
C183 O185 1.235 . S
C184 O189 1.287 . S
C184 O190 1.255 . S
O185 Fe177 1.997 . S
O185 C183 1.235 . S
C186 O192 1.287 . S
C186 O193 1.255 . S
O187 Fe176 1.976 1_565 S
O187 C194 1.287 . S
O188 Fe177 1.996 1_565 S
O188 C194 1.255 . S
O189 Fe179 1.976 . S
O189 C184 1.287 . S
O190 Fe176 1.996 . S
O190 C184 1.255 . S
C191 O195 1.295 . S
C191 O196 1.235 . S
O192 Fe177 1.976 . S
O192 C186 1.287 . S
O193 Fe179 1.996 . S
O193 C186 1.255 . S
C194 O187 1.287 . S
C194 O188 1.255 . S
O195 Fe177 2.002 . S
O195 C191 1.295 . S
O196 Fe179 1.997 . S
O196 C191 1.235 . S
C197 O180 1.295 . S
C197 O181 1.235 . S
Fe198 O200 1.918 . S
Fe198 O203 1.997 . S
Fe198 O204 2.002 . S
Fe198 O209 1.976 . S
Fe198 O212 1.996 . S
Fe199 O200 1.918 . S
Fe199 O207 1.997 . S
Fe199 O210 1.996 . S
Fe199 O214 1.976 . S
Fe199 O217 2.002 . S
O200 Fe198 1.918 . S
O200 Fe199 1.918 . S
O200 Fe201 1.918 . S
Fe201 O200 1.918 . S
Fe201 O202 2.002 . S
Fe201 O211 1.976 . S
Fe201 O215 1.996 . S
Fe201 O218 1.997 . S
O202 Fe201 2.002 . S
O202 C219 1.295 . S
O203 Fe198 1.997 . S
O203 C219 1.235 . S
O204 Fe198 2.002 . S
O204 C205 1.295 . S
C205 O204 1.295 . S
C205 O207 1.235 . S
C206 O211 1.287 . S
C206 O212 1.255 . S
O207 Fe199 1.997 . S
O207 C205 1.235 . S
C208 O214 1.287 . S
C208 O215 1.255 . S
O209 Fe198 1.976 . S
O209 C216 1.287 . S
O210 Fe199 1.996 . S
O210 C216 1.255 . S
O211 Fe201 1.976 . S
O211 C206 1.287 . S
O212 Fe198 1.996 . S
O212 C206 1.255 . S
C213 O217 1.295 . S
C213 O218 1.235 . S
O214 Fe199 1.976 . S
O214 C208 1.287 . S
O215 Fe201 1.996 . S
O215 C208 1.255 . S
C216 O209 1.287 . S
C216 O210 1.255 . S
O217 Fe199 2.002 . S
O217 C213 1.295 . S
O218 Fe201 1.997 . S
O218 C213 1.235 . S
C219 O202 1.295 . S
C219 O203 1.235 . S
Fe220 O222 1.918 . S
Fe220 O225 1.997 . S
Fe220 O226 2.002 . S
Fe220 O231 1.976 . S
Fe220 O234 1.996 1_565 S
Fe221 O222 1.918 . S
Fe221 O229 1.997 . S
Fe221 O232 1.996 . S
Fe221 O236 1.976 . S
Fe221 O239 2.002 . S
O222 Fe220 1.918 . S
O222 Fe221 1.918 . S
O222 Fe223 1.918 . S
Fe223 O222 1.918 . S
Fe223 O224 2.002 . S
Fe223 O233 1.976 1_565 S
Fe223 O237 1.996 . S
Fe223 O240 1.997 . S
O224 Fe223 2.002 . S
O224 C241 1.295 . S
O225 Fe220 1.997 . S
O225 C241 1.235 . S
O226 Fe220 2.002 . S
O226 C227 1.295 . S
C227 O226 1.295 . S
C227 O229 1.235 . S
C228 O233 1.287 . S
C228 O234 1.255 . S
O229 Fe221 1.997 . S
O229 C227 1.235 . S
C230 O236 1.287 . S
C230 O237 1.255 . S
O231 Fe220 1.976 . S
O231 C238 1.287 . S
O232 Fe221 1.996 . S
O232 C238 1.255 . S
O233 Fe223 1.976 1_545 S
O233 C228 1.287 . S
O234 Fe220 1.996 1_545 S
O234 C228 1.255 . S
C235 O239 1.295 . S
C235 O240 1.235 . S
O236 Fe221 1.976 . S
O236 C230 1.287 . S
O237 Fe223 1.996 . S
O237 C230 1.255 . S
C238 O231 1.287 . S
C238 O232 1.255 . S
O239 Fe221 2.002 . S
O239 C235 1.295 . S
O240 Fe223 1.997 . S
O240 C235 1.235 . S
C241 O224 1.295 . S
C241 O225 1.235 . S
Fe242 O244 1.918 . S
Fe242 O247 1.997 . S
Fe242 O248 2.002 . S
Fe242 O253 1.976 . S
Fe242 O256 1.996 . S
Fe243 O244 1.918 . S
Fe243 O251 1.997 . S
Fe243 O254 1.996 . S
Fe243 O258 1.976 . S
Fe243 O261 2.002 . S
O244 Fe242 1.918 . S
O244 Fe243 1.918 . S
O244 Fe245 1.918 . S
Fe245 O244 1.918 . S
Fe245 O246 2.002 . S
Fe245 O255 1.976 . S
Fe245 O259 1.996 . S
Fe245 O262 1.997 . S
O246 Fe245 2.002 . S
O246 C263 1.295 . S
O247 Fe242 1.997 . S
O247 C263 1.235 . S
O248 Fe242 2.002 . S
O248 C249 1.295 . S
C249 O248 1.295 . S
C249 O251 1.235 . S
C250 O255 1.287 . S
C250 O256 1.255 . S
O251 Fe243 1.997 . S
O251 C249 1.235 . S
C252 O258 1.287 . S
C252 O259 1.255 . S
O253 Fe242 1.976 . S
O253 C260 1.287 . S
O254 Fe243 1.996 . S
O254 C260 1.255 . S
O255 Fe245 1.976 . S
O255 C250 1.287 . S
O256 Fe242 1.996 . S
O256 C250 1.255 . S
C257 O261 1.295 . S
C257 O262 1.235 . S
O258 Fe243 1.976 . S
O258 C252 1.287 . S
O259 Fe245 1.996 . S
O259 C252 1.255 . S
C260 O253 1.287 . S
C260 O254 1.255 . S
O261 Fe243 2.002 . S
O261 C257 1.295 . S
O262 Fe245 1.997 . S
O262 C257 1.235 . S
C263 O246 1.295 . S
C263 O247 1.235 . S
Fe264 O266 1.918 . S
Fe264 O269 1.997 . S
Fe264 O270 2.002 . S
Fe264 O275 1.976 . S
Fe264 O278 1.996 . S
Fe265 O266 1.918 . S
Fe265 O273 1.997 . S
Fe265 O276 1.996 . S
Fe265 O280 1.976 . S
Fe265 O283 2.002 . S
O266 Fe264 1.918 . S
O266 Fe265 1.918 . S
O266 Fe267 1.918 . S
Fe267 O266 1.918 . S
Fe267 O268 2.002 . S
Fe267 O277 1.976 . S
Fe267 O281 1.996 . S
Fe267 O284 1.997 . S
O268 Fe267 2.002 . S
O268 C285 1.295 . S
O269 Fe264 1.997 . S
O269 C285 1.235 . S
O270 Fe264 2.002 . S
O270 C271 1.295 . S
C271 O270 1.295 . S
C271 O273 1.235 . S
C272 O277 1.287 . S
C272 O278 1.255 . S
O273 Fe265 1.997 . S
O273 C271 1.235 . S
C274 O280 1.287 . S
C274 O281 1.255 . S
O275 Fe264 1.976 . S
O275 C282 1.287 . S
O276 Fe265 1.996 . S
O276 C282 1.255 . S
O277 Fe267 1.976 . S
O277 C272 1.287 . S
O278 Fe264 1.996 . S
O278 C272 1.255 . S
C279 O283 1.295 . S
C279 O284 1.235 . S
O280 Fe265 1.976 . S
O280 C274 1.287 . S
O281 Fe267 1.996 . S
O281 C274 1.255 . S
C282 O275 1.287 . S
C282 O276 1.255 . S
O283 Fe265 2.002 . S
O283 C279 1.295 . S
O284 Fe267 1.997 . S
O284 C279 1.235 . S
C285 O268 1.295 . S
C285 O269 1.235 . S
Fe286 O288 1.918 . S
Fe286 O291 1.997 . S
Fe286 O292 2.002 . S
Fe286 O297 1.976 . S
Fe286 O300 1.996 . S
Fe287 O288 1.918 . S
Fe287 O295 1.997 . S
Fe287 O298 1.996 . S
Fe287 O302 1.976 . S
Fe287 O305 2.002 . S
O288 Fe286 1.918 . S
O288 Fe287 1.918 . S
O288 Fe289 1.918 . S
Fe289 O288 1.918 . S
Fe289 O290 2.002 . S
Fe289 O299 1.976 . S
Fe289 O303 1.996 . S
Fe289 O306 1.997 . S
O290 Fe289 2.002 . S
O290 C307 1.295 . S
O291 Fe286 1.997 . S
O291 C307 1.235 . S
O292 Fe286 2.002 . S
O292 C293 1.295 . S
C293 O292 1.295 . S
C293 O295 1.235 . S
C294 O299 1.287 . S
C294 O300 1.255 . S
O295 Fe287 1.997 . S
O295 C293 1.235 . S
C296 O302 1.287 . S
C296 O303 1.255 . S
O297 Fe286 1.976 . S
O297 C304 1.287 . S
O298 Fe287 1.996 . S
O298 C304 1.255 . S
O299 Fe289 1.976 . S
O299 C294 1.287 . S
O300 Fe286 1.996 . S
O300 C294 1.255 . S
C301 O305 1.295 . S
C301 O306 1.235 . S
O302 Fe287 1.976 . S
O302 C296 1.287 . S
O303 Fe289 1.996 . S
O303 C296 1.255 . S
C304 O297 1.287 . S
C304 O298 1.255 . S
O305 Fe287 2.002 . S
O305 C301 1.295 . S
O306 Fe289 1.997 . S
O306 C301 1.235 . S
C307 O290 1.295 . S
C307 O291 1.235 . S
Fe308 O310 1.918 . S
Fe308 O313 1.997 . S
Fe308 O314 2.002 . S
Fe308 O319 1.976 . S
Fe308 O322 1.996 . S
Fe309 O310 1.918 . S
Fe309 O317 1.997 . S
Fe309 O320 1.996 . S
Fe309 O324 1.976 . S
Fe309 O327 2.002 . S
O310 Fe308 1.918 . S
O310 Fe309 1.918 . S
O310 Fe311 1.918 . S
Fe311 O310 1.918 . S
Fe311 O312 2.002 . S
Fe311 O321 1.976 . S
Fe311 O325 1.996 . S
Fe311 O328 1.997 . S
O312 Fe311 2.002 . S
O312 C329 1.295 . S
O313 Fe308 1.997 . S
O313 C329 1.235 . S
O314 Fe308 2.002 . S
O314 C315 1.295 . S
C315 O314 1.295 . S
C315 O317 1.235 . S
C316 O321 1.287 . S
C316 O322 1.255 . S
O317 Fe309 1.997 . S
O317 C315 1.235 . S
C318 O324 1.287 . S
C318 O325 1.255 . S
O319 Fe308 1.976 . S
O319 C326 1.287 . S
O320 Fe309 1.996 . S
O320 C326 1.255 . S
O321 Fe311 1.976 . S
O321 C316 1.287 . S
O322 Fe308 1.996 . S
O322 C316 1.255 . S
C323 O327 1.295 . S
C323 O328 1.235 . S
O324 Fe309 1.976 . S
O324 C318 1.287 . S
O325 Fe311 1.996 . S
O325 C318 1.255 . S
C326 O319 1.287 . S
C326 O320 1.255 . S
O327 Fe309 2.002 . S
O327 C323 1.295 . S
O328 Fe311 1.997 . S
O328 C323 1.235 . S
C329 O312 1.295 . S
C329 O313 1.235 . S
Fe330 O332 1.918 . S
Fe330 O335 1.997 . S
Fe330 O336 2.002 . S
Fe330 O341 1.976 . S
Fe330 O344 1.996 . S
Fe331 O332 1.918 . S
Fe331 O339 1.997 . S
Fe331 O342 1.996 . S
Fe331 O346 1.976 . S
Fe331 O349 2.002 . S
O332 Fe330 1.918 . S
O332 Fe331 1.918 . S
O332 Fe333 1.918 . S
Fe333 O332 1.918 . S
Fe333 O334 2.002 . S
Fe333 O343 1.976 . S
Fe333 O347 1.996 . S
Fe333 O350 1.997 . S
O334 Fe333 2.002 . S
O334 C351 1.295 . S
O335 Fe330 1.997 . S
O335 C351 1.235 . S
O336 Fe330 2.002 . S
O336 C337 1.295 . S
C337 O336 1.295 . S
C337 O339 1.235 . S
C338 O343 1.287 . S
C338 O344 1.255 . S
O339 Fe331 1.997 . S
O339 C337 1.235 . S
C340 O346 1.287 . S
C340 O347 1.255 . S
O341 Fe330 1.976 . S
O341 C348 1.287 . S
O342 Fe331 1.996 . S
O342 C348 1.255 . S
O343 Fe333 1.976 . S
O343 C338 1.287 . S
O344 Fe330 1.996 . S
O344 C338 1.255 . S
C345 O349 1.295 . S
C345 O350 1.235 . S
O346 Fe331 1.976 . S
O346 C340 1.287 . S
O347 Fe333 1.996 . S
O347 C340 1.255 . S
C348 O341 1.287 . S
C348 O342 1.255 . S
O349 Fe331 2.002 . S
O349 C345 1.295 . S
O350 Fe333 1.997 . S
O350 C345 1.235 . S
C351 O334 1.295 . S
C351 O335 1.235 . S
Fe352 O354 1.918 . S
Fe352 O357 1.997 . S
Fe352 O358 2.002 . S
Fe352 O363 1.976 . S
Fe352 O366 1.996 . S
Fe353 O354 1.918 . S
Fe353 O361 1.997 . S
Fe353 O364 1.996 . S
Fe353 O368 1.976 1_554 S
Fe353 O371 2.002 . S
O354 Fe352 1.918 . S
O354 Fe353 1.918 . S
O354 Fe355 1.918 . S
Fe355 O354 1.918 . S
Fe355 O356 2.002 . S
Fe355 O365 1.976 . S
Fe355 O369 1.996 1_554 S
Fe355 O372 1.997 . S
O356 Fe355 2.002 . S
O356 C373 1.295 . S
O357 Fe352 1.997 . S
O357 C373 1.235 . S
O358 Fe352 2.002 . S
O358 C359 1.295 . S
C359 O358 1.295 . S
C359 O361 1.235 . S
C360 O365 1.287 . S
C360 O366 1.255 . S
O361 Fe353 1.997 . S
O361 C359 1.235 . S
C362 O368 1.287 . S
C362 O369 1.255 . S
O363 Fe352 1.976 . S
O363 C370 1.287 . S
O364 Fe353 1.996 . S
O364 C370 1.255 . S
O365 Fe355 1.976 . S
O365 C360 1.287 . S
O366 Fe352 1.996 . S
O366 C360 1.255 . S
C367 O371 1.295 . S
C367 O372 1.235 . S
O368 Fe353 1.976 1_556 S
O368 C362 1.287 . S
O369 Fe355 1.996 1_556 S
O369 C362 1.255 . S
C370 O363 1.287 . S
C370 O364 1.255 . S
O371 Fe353 2.002 . S
O371 C367 1.295 . S
O372 Fe355 1.997 . S
O372 C367 1.235 . S
C373 O356 1.295 . S
C373 O357 1.235 . S
Fe374 O376 1.918 . S
Fe374 O379 1.997 . S
Fe374 O380 2.002 . S
Fe374 O385 1.976 . S
Fe374 O388 1.996 1_556 S
Fe375 O376 1.918 . S
Fe375 O383 1.997 . S
Fe375 O386 1.996 . S
Fe375 O390 1.976 . S
Fe375 O393 2.002 . S
O376 Fe374 1.918 . S
O376 Fe375 1.918 . S
O376 Fe377 1.918 . S
Fe377 O376 1.918 . S
Fe377 O378 2.002 . S
Fe377 O387 1.976 1_556 S
Fe377 O391 1.996 . S
Fe377 O394 1.997 . S
O378 Fe377 2.002 . S
O378 C395 1.295 . S
O379 Fe374 1.997 . S
O379 C395 1.235 . S
O380 Fe374 2.002 . S
O380 C381 1.295 . S
C381 O380 1.295 . S
C381 O383 1.235 . S
C382 O387 1.287 . S
C382 O388 1.255 . S
O383 Fe375 1.997 . S
O383 C381 1.235 . S
C384 O390 1.287 . S
C384 O391 1.255 . S
O385 Fe374 1.976 . S
O385 C392 1.287 . S
O386 Fe375 1.996 . S
O386 C392 1.255 . S
O387 Fe377 1.976 1_554 S
O387 C382 1.287 . S
O388 Fe374 1.996 1_554 S
O388 C382 1.255 . S
C389 O393 1.295 . S
C389 O394 1.235 . S
O390 Fe375 1.976 . S
O390 C384 1.287 . S
O391 Fe377 1.996 . S
O391 C384 1.255 . S
C392 O385 1.287 . S
C392 O386 1.255 . S
O393 Fe375 2.002 . S
O393 C389 1.295 . S
O394 Fe377 1.997 . S
O394 C389 1.235 . S
C395 O378 1.295 . S
C395 O379 1.235 . S
Fe396 O398 1.918 . S
Fe396 O401 1.997 . S
Fe396 O402 2.002 . S
Fe396 O407 1.976 . S
Fe396 O410 1.996 . S
Fe397 O398 1.918 . S
Fe397 O405 1.997 . S
Fe397 O408 1.996 . S
Fe397 O412 1.976 . S
Fe397 O415 2.002 . S
O398 Fe396 1.918 . S
O398 Fe397 1.918 . S
O398 Fe399 1.918 . S
Fe399 O398 1.918 . S
Fe399 O400 2.002 . S
Fe399 O409 1.976 . S
Fe399 O413 1.996 . S
Fe399 O416 1.997 . S
O400 Fe399 2.002 . S
O400 C417 1.295 . S
O401 Fe396 1.997 . S
O401 C417 1.235 . S
O402 Fe396 2.002 . S
O402 C403 1.295 . S
C403 O402 1.295 . S
C403 O405 1.235 . S
C404 O409 1.287 . S
C404 O410 1.255 . S
O405 Fe397 1.997 . S
O405 C403 1.235 . S
C406 O412 1.287 . S
C406 O413 1.255 . S
O407 Fe396 1.976 . S
O407 C414 1.287 . S
O408 Fe397 1.996 . S
O408 C414 1.255 . S
O409 Fe399 1.976 . S
O409 C404 1.287 . S
O410 Fe396 1.996 . S
O410 C404 1.255 . S
C411 O415 1.295 . S
C411 O416 1.235 . S
O412 Fe397 1.976 . S
O412 C406 1.287 . S
O413 Fe399 1.996 . S
O413 C406 1.255 . S
C414 O407 1.287 . S
C414 O408 1.255 . S
O415 Fe397 2.002 . S
O415 C411 1.295 . S
O416 Fe399 1.997 . S
O416 C411 1.235 . S
C417 O400 1.295 . S
C417 O401 1.235 . S
Fe418 O420 1.918 . S
Fe418 O423 1.997 . S
Fe418 O424 2.002 . S
Fe418 O429 1.976 . S
Fe418 O432 1.996 . S
Fe419 O420 1.918 . S
Fe419 O427 1.997 . S
Fe419 O430 1.996 . S
Fe419 O434 1.976 . S
Fe419 O437 2.002 . S
O420 Fe418 1.918 . S
O420 Fe419 1.918 . S
O420 Fe421 1.918 . S
Fe421 O420 1.918 . S
Fe421 O422 2.002 . S
Fe421 O431 1.976 . S
Fe421 O435 1.996 . S
Fe421 O438 1.997 . S
O422 Fe421 2.002 . S
O422 C439 1.295 . S
O423 Fe418 1.997 . S
O423 C439 1.235 . S
O424 Fe418 2.002 . S
O424 C425 1.295 . S
C425 O424 1.295 . S
C425 O427 1.235 . S
C426 O431 1.287 . S
C426 O432 1.255 . S
O427 Fe419 1.997 . S
O427 C425 1.235 . S
C428 O434 1.287 . S
C428 O435 1.255 . S
O429 Fe418 1.976 . S
O429 C436 1.287 . S
O430 Fe419 1.996 . S
O430 C436 1.255 . S
O431 Fe421 1.976 . S
O431 C426 1.287 . S
O432 Fe418 1.996 . S
O432 C426 1.255 . S
C433 O437 1.295 . S
C433 O438 1.235 . S
O434 Fe419 1.976 . S
O434 C428 1.287 . S
O435 Fe421 1.996 . S
O435 C428 1.255 . S
C436 O429 1.287 . S
C436 O430 1.255 . S
O437 Fe419 2.002 . S
O437 C433 1.295 . S
O438 Fe421 1.997 . S
O438 C433 1.235 . S
C439 O422 1.295 . S
C439 O423 1.235 . S
Fe440 O442 1.918 . S
Fe440 O445 1.997 . S
Fe440 O446 2.002 . S
Fe440 O451 1.976 . S
Fe440 O454 1.996 . S
Fe441 O442 1.918 . S
Fe441 O449 1.997 . S
Fe441 O452 1.996 . S
Fe441 O456 1.976 . S
Fe441 O459 2.002 . S
O442 Fe440 1.918 . S
O442 Fe441 1.918 . S
O442 Fe443 1.918 . S
Fe443 O442 1.918 . S
Fe443 O444 2.002 . S
Fe443 O453 1.976 . S
Fe443 O457 1.996 . S
Fe443 O460 1.997 . S
O444 Fe443 2.002 . S
O444 C461 1.295 . S
O445 Fe440 1.997 . S
O445 C461 1.235 . S
O446 Fe440 2.002 . S
O446 C447 1.295 . S
C447 O446 1.295 . S
C447 O449 1.235 . S
C448 O453 1.287 . S
C448 O454 1.255 . S
O449 Fe441 1.997 . S
O449 C447 1.235 . S
C450 O456 1.287 . S
C450 O457 1.255 . S
O451 Fe440 1.976 . S
O451 C458 1.287 . S
O452 Fe441 1.996 . S
O452 C458 1.255 . S
O453 Fe443 1.976 . S
O453 C448 1.287 . S
O454 Fe440 1.996 . S
O454 C448 1.255 . S
C455 O459 1.295 . S
C455 O460 1.235 . S
O456 Fe441 1.976 . S
O456 C450 1.287 . S
O457 Fe443 1.996 . S
O457 C450 1.255 . S
C458 O451 1.287 . S
C458 O452 1.255 . S
O459 Fe441 2.002 . S
O459 C455 1.295 . S
O460 Fe443 1.997 . S
O460 C455 1.235 . S
C461 O444 1.295 . S
C461 O445 1.235 . S
Fe462 O464 1.918 . S
Fe462 O467 1.997 . S
Fe462 O468 2.002 . S
Fe462 O473 1.976 . S
Fe462 O476 1.996 . S
Fe463 O464 1.918 . S
Fe463 O471 1.997 . S
Fe463 O474 1.996 . S
Fe463 O478 1.976 . S
Fe463 O481 2.002 . S
O464 Fe462 1.918 . S
O464 Fe463 1.918 . S
O464 Fe465 1.918 . S
Fe465 O464 1.918 . S
Fe465 O466 2.002 . S
Fe465 O475 1.976 . S
Fe465 O479 1.996 . S
Fe465 O482 1.997 . S
O466 Fe465 2.002 . S
O466 C483 1.295 . S
O467 Fe462 1.997 . S
O467 C483 1.235 . S
O468 Fe462 2.002 . S
O468 C469 1.295 . S
C469 O468 1.295 . S
C469 O471 1.235 . S
C470 O475 1.287 . S
C470 O476 1.255 . S
O471 Fe463 1.997 . S
O471 C469 1.235 . S
C472 O478 1.287 . S
C472 O479 1.255 . S
O473 Fe462 1.976 . S
O473 C480 1.287 . S
O474 Fe463 1.996 . S
O474 C480 1.255 . S
O475 Fe465 1.976 . S
O475 C470 1.287 . S
O476 Fe462 1.996 . S
O476 C470 1.255 . S
C477 O481 1.295 . S
C477 O482 1.235 . S
O478 Fe463 1.976 . S
O478 C472 1.287 . S
O479 Fe465 1.996 . S
O479 C472 1.255 . S
C480 O473 1.287 . S
C480 O474 1.255 . S
O481 Fe463 2.002 . S
O481 C477 1.295 . S
O482 Fe465 1.997 . S
O482 C477 1.235 . S
C483 O466 1.295 . S
C483 O467 1.235 . S
Fe484 O486 1.918 . S
Fe484 O489 1.997 . S
Fe484 O490 2.002 . S
Fe484 O495 1.976 . S
Fe484 O498 1.996 . S
Fe485 O486 1.918 . S
Fe485 O493 1.997 . S
Fe485 O496 1.996 . S
Fe485 O500 1.976 . S
Fe485 O503 2.002 . S
O486 Fe484 1.918 . S
O486 Fe485 1.918 . S
O486 Fe487 1.918 . S
Fe487 O486 1.918 . S
Fe487 O488 2.002 . S
Fe487 O497 1.976 . S
Fe487 O501 1.996 . S
Fe487 O504 1.997 . S
O488 Fe487 2.002 . S
O488 C505 1.295 . S
O489 Fe484 1.997 . S
O489 C505 1.235 . S
O490 Fe484 2.002 . S
O490 C491 1.295 . S
C491 O490 1.295 . S
C491 O493 1.235 . S
C492 O497 1.287 . S
C492 O498 1.255 . S
O493 Fe485 1.997 . S
O493 C491 1.235 . S
C494 O500 1.287 . S
C494 O501 1.255 . S
O495 Fe484 1.976 . S
O495 C502 1.287 . S
O496 Fe485 1.996 . S
O496 C502 1.255 . S
O497 Fe487 1.976 . S
O497 C492 1.287 . S
O498 Fe484 1.996 . S
O498 C492 1.255 . S
C499 O503 1.295 . S
C499 O504 1.235 . S
O500 Fe485 1.976 . S
O500 C494 1.287 . S
O501 Fe487 1.996 . S
O501 C494 1.255 . S
C502 O495 1.287 . S
C502 O496 1.255 . S
O503 Fe485 2.002 . S
O503 C499 1.295 . S
O504 Fe487 1.997 . S
O504 C499 1.235 . S
C505 O488 1.295 . S
C505 O489 1.235 . S
Fe506 O508 1.918 . S
Fe506 O511 1.997 . S
Fe506 O512 2.002 . S
Fe506 O517 1.976 . S
Fe506 O520 1.996 . S
Fe507 O508 1.918 . S
Fe507 O515 1.997 . S
Fe507 O518 1.996 . S
Fe507 O522 1.976 . S
Fe507 O525 2.002 . S
O508 Fe506 1.918 . S
O508 Fe507 1.918 . S
O508 Fe509 1.918 . S
Fe509 O508 1.918 . S
Fe509 O510 2.002 . S
Fe509 O519 1.976 . S
Fe509 O523 1.996 . S
Fe509 O526 1.997 . S
O510 Fe509 2.002 . S
O510 C527 1.295 . S
O511 Fe506 1.997 . S
O511 C527 1.235 . S
O512 Fe506 2.002 . S
O512 C513 1.295 . S
C513 O512 1.295 . S
C513 O515 1.235 . S
C514 O519 1.287 . S
C514 O520 1.255 . S
O515 Fe507 1.997 . S
O515 C513 1.235 . S
C516 O522 1.287 . S
C516 O523 1.255 . S
O517 Fe506 1.976 . S
O517 C524 1.287 . S
O518 Fe507 1.996 . S
O518 C524 1.255 . S
O519 Fe509 1.976 . S
O519 C514 1.287 . S
O520 Fe506 1.996 . S
O520 C514 1.255 . S
C521 O525 1.295 . S
C521 O526 1.235 . S
O522 Fe507 1.976 . S
O522 C516 1.287 . S
O523 Fe509 1.996 . S
O523 C516 1.255 . S
C524 O517 1.287 . S
C524 O518 1.255 . S
O525 Fe507 2.002 . S
O525 C521 1.295 . S
O526 Fe509 1.997 . S
O526 C521 1.235 . S
C527 O510 1.295 . S
C527 O511 1.235 . S
H528 C536 0.929 . S
H529 C538 0.930 . S
H530 C540 0.930 . S
H531 C543 0.929 . S
H532 C546 0.930 . S
H533 C548 0.960 . S
H534 C548 0.960 . S
H535 C548 0.960 . S
C536 H528 0.929 . S
C536 C537 1.377 . S
C536 C538 1.384 . S
C537 C536 1.377 . S
C537 C543 1.390 . S
C538 H529 0.930 . S
C538 C536 1.384 . S
C538 C539 1.372 . S
C539 C538 1.372 . S
C539 C540 1.400 . S
C539 C544 1.490 . S
C540 H530 0.930 . S
C540 C539 1.400 . S
C540 C543 1.386 . S
H541 C557 0.930 . S
H542 C558 0.931 . S
C543 H531 0.929 . S
C543 C537 1.390 . S
C543 C540 1.386 . S
C544 C539 1.490 . S
C544 C546 1.395 . S
C544 C547 1.403 . S
H545 C551 0.930 . S
C546 H532 0.930 . S
C546 C544 1.395 . S
C546 C549 1.403 . S
C547 C544 1.403 . S
C547 C548 1.524 . S
C547 C551 1.400 . S
C548 H533 0.960 . S
C548 H534 0.960 . S
C548 H535 0.960 . S
C548 C547 1.524 . S
C549 C546 1.403 . S
C549 C550 1.392 . S
C549 C553 1.495 . S
C550 C549 1.392 . S
C550 C551 1.385 . S
C550 C552 1.478 . S
C551 H545 0.930 . S
C551 C547 1.400 . S
C551 C550 1.385 . S
C552 C550 1.478 . S
C552 C554 1.381 . S
C552 C558 1.383 . S
C553 C549 1.495 . S
C553 H559 0.959 . S
C553 H560 0.961 . S
C553 H561 0.960 . S
C554 C552 1.381 . S
C554 C555 1.394 . S
C554 H562 0.930 . S
C555 C554 1.394 . S
C555 C556 1.383 . S
C555 H563 0.929 . S
C556 C555 1.383 . S
C556 C557 1.377 . S
C557 H541 0.930 . S
C557 C556 1.377 . S
C557 C558 1.379 . S
C558 H542 0.931 . S
C558 C552 1.383 . S
C558 C557 1.379 . S
H559 C553 0.959 . S
H560 C553 0.961 . S
H561 C553 0.960 . S
H562 C554 0.930 . S
H563 C555 0.929 . S
H564 C572 0.929 . S
H565 C574 0.930 . S
H566 C576 0.930 . S
H567 C579 0.929 . S
H568 C582 0.930 . S
H569 C584 0.960 . S
H570 C584 0.960 . S
H571 C584 0.960 . S
C572 H564 0.929 . S
C572 C573 1.377 . S
C572 C574 1.384 . S
C573 C572 1.377 . S
C573 C579 1.390 . S
C574 H565 0.930 . S
C574 C572 1.384 . S
C574 C575 1.372 . S
C575 C574 1.372 . S
C575 C576 1.400 . S
C575 C580 1.490 . S
C576 H566 0.930 . S
C576 C575 1.400 . S
C576 C579 1.386 . S
H577 C593 0.930 . S
H578 C594 0.931 . S
C579 H567 0.929 . S
C579 C573 1.390 . S
C579 C576 1.386 . S
C580 C575 1.490 . S
C580 C582 1.395 . S
C580 C583 1.403 . S
H581 C587 0.930 . S
C582 H568 0.930 . S
C582 C580 1.395 . S
C582 C585 1.403 . S
C583 C580 1.403 . S
C583 C584 1.524 . S
C583 C587 1.400 . S
C584 H569 0.960 . S
C584 H570 0.960 . S
C584 H571 0.960 . S
C584 C583 1.524 . S
C585 C582 1.403 . S
C585 C586 1.392 . S
C585 C589 1.495 . S
C586 C585 1.392 . S
C586 C587 1.385 . S
C586 C588 1.478 . S
C587 H581 0.930 . S
C587 C583 1.400 . S
C587 C586 1.385 . S
C588 C586 1.478 . S
C588 C590 1.381 . S
C588 C594 1.383 . S
C589 C585 1.495 . S
C589 H595 0.959 . S
C589 H596 0.961 . S
C589 H597 0.960 . S
C590 C588 1.381 . S
C590 C591 1.394 . S
C590 H598 0.930 . S
C591 C590 1.394 . S
C591 C592 1.383 . S
C591 H599 0.929 . S
C592 C591 1.383 . S
C592 C593 1.377 . S
C593 H577 0.930 . S
C593 C592 1.377 . S
C593 C594 1.379 . S
C594 H578 0.931 . S
C594 C588 1.383 . S
C594 C593 1.379 . S
H595 C589 0.959 . S
H596 C589 0.961 . S
H597 C589 0.960 . S
H598 C590 0.930 . S
H599 C591 0.929 . S
H600 C608 0.929 . S
H601 C610 0.930 . S
H602 C612 0.930 . S
H603 C615 0.929 . S
H604 C618 0.930 . S
H605 C620 0.960 . S
H606 C620 0.960 . S
H607 C620 0.960 . S
C608 H600 0.929 . S
C608 C609 1.377 . S
C608 C610 1.384 . S
C609 C608 1.377 . S
C609 C615 1.390 . S
C610 H601 0.930 . S
C610 C608 1.384 . S
C610 C611 1.372 . S
C611 C610 1.372 . S
C611 C612 1.400 . S
C611 C616 1.490 . S
C612 H602 0.930 . S
C612 C611 1.400 . S
C612 C615 1.386 . S
H613 C629 0.930 . S
H614 C630 0.931 . S
C615 H603 0.929 . S
C615 C609 1.390 . S
C615 C612 1.386 . S
C616 C611 1.490 . S
C616 C618 1.395 . S
C616 C619 1.403 . S
H617 C623 0.930 . S
C618 H604 0.930 . S
C618 C616 1.395 . S
C618 C621 1.403 . S
C619 C616 1.403 . S
C619 C620 1.524 . S
C619 C623 1.400 . S
C620 H605 0.960 . S
C620 H606 0.960 . S
C620 H607 0.960 . S
C620 C619 1.524 . S
C621 C618 1.403 . S
C621 C622 1.392 . S
C621 C625 1.495 . S
C622 C621 1.392 . S
C622 C623 1.385 . S
C622 C624 1.478 . S
C623 H617 0.930 . S
C623 C619 1.400 . S
C623 C622 1.385 . S
C624 C622 1.478 . S
C624 C626 1.381 . S
C624 C630 1.383 . S
C625 C621 1.495 . S
C625 H631 0.959 . S
C625 H632 0.961 . S
C625 H633 0.960 . S
C626 C624 1.381 . S
C626 C627 1.394 . S
C626 H634 0.930 . S
C627 C626 1.394 . S
C627 C628 1.383 . S
C627 H635 0.929 . S
C628 C627 1.383 . S
C628 C629 1.377 . S
C629 H613 0.930 . S
C629 C628 1.377 . S
C629 C630 1.379 . S
C630 H614 0.931 . S
C630 C624 1.383 . S
C630 C629 1.379 . S
H631 C625 0.959 . S
H632 C625 0.961 . S
H633 C625 0.960 . S
H634 C626 0.930 . S
H635 C627 0.929 . S
H636 C644 0.929 . S
H637 C646 0.930 . S
H638 C648 0.930 . S
H639 C651 0.929 . S
H640 C654 0.930 . S
H641 C656 0.960 . S
H642 C656 0.960 . S
H643 C656 0.960 . S
C644 H636 0.929 . S
C644 C645 1.377 . S
C644 C646 1.384 . S
C645 C644 1.377 . S
C645 C651 1.390 . S
C646 H637 0.930 . S
C646 C644 1.384 . S
C646 C647 1.372 . S
C647 C646 1.372 . S
C647 C648 1.400 . S
C647 C652 1.490 . S
C648 H638 0.930 . S
C648 C647 1.400 . S
C648 C651 1.386 . S
H649 C665 0.930 . S
H650 C666 0.931 . S
C651 H639 0.929 . S
C651 C645 1.390 . S
C651 C648 1.386 . S
C652 C647 1.490 . S
C652 C654 1.395 . S
C652 C655 1.403 . S
H653 C659 0.930 . S
C654 H640 0.930 . S
C654 C652 1.395 . S
C654 C657 1.403 . S
C655 C652 1.403 . S
C655 C656 1.524 . S
C655 C659 1.400 . S
C656 H641 0.960 . S
C656 H642 0.960 . S
C656 H643 0.960 . S
C656 C655 1.524 . S
C657 C654 1.403 . S
C657 C658 1.392 . S
C657 C661 1.495 . S
C658 C657 1.392 . S
C658 C659 1.385 . S
C658 C660 1.478 . S
C659 H653 0.930 . S
C659 C655 1.400 . S
C659 C658 1.385 . S
C660 C658 1.478 . S
C660 C662 1.381 . S
C660 C666 1.383 . S
C661 C657 1.495 . S
C661 H667 0.959 . S
C661 H668 0.961 . S
C661 H669 0.960 . S
C662 C660 1.381 . S
C662 C663 1.394 . S
C662 H670 0.930 . S
C663 C662 1.394 . S
C663 C664 1.383 . S
C663 H671 0.929 . S
C664 C663 1.383 . S
C664 C665 1.377 . S
C665 H649 0.930 . S
C665 C664 1.377 . S
C665 C666 1.379 . S
C666 H650 0.931 . S
C666 C660 1.383 . S
C666 C665 1.379 . S
H667 C661 0.959 . S
H668 C661 0.961 . S
H669 C661 0.960 . S
H670 C662 0.930 . S
H671 C663 0.929 . S
H672 C680 0.929 . S
H673 C682 0.930 . S
H674 C684 0.930 . S
H675 C687 0.929 . S
H676 C690 0.930 . S
H677 C692 0.960 . S
H678 C692 0.960 . S
H679 C692 0.960 . S
C680 H672 0.929 . S
C680 C681 1.377 . S
C680 C682 1.384 . S
C681 C680 1.377 . S
C681 C687 1.390 . S
C682 H673 0.930 . S
C682 C680 1.384 . S
C682 C683 1.372 . S
C683 C682 1.372 . S
C683 C684 1.400 . S
C683 C688 1.490 . S
C684 H674 0.930 . S
C684 C683 1.400 . S
C684 C687 1.386 . S
H685 C701 0.930 . S
H686 C702 0.931 . S
C687 H675 0.929 . S
C687 C681 1.390 . S
C687 C684 1.386 . S
C688 C683 1.490 . S
C688 C690 1.395 . S
C688 C691 1.403 . S
H689 C695 0.930 . S
C690 H676 0.930 . S
C690 C688 1.395 . S
C690 C693 1.403 . S
C691 C688 1.403 . S
C691 C692 1.524 . S
C691 C695 1.400 . S
C692 H677 0.960 . S
C692 H678 0.960 . S
C692 H679 0.960 . S
C692 C691 1.524 . S
C693 C690 1.403 . S
C693 C694 1.392 . S
C693 C697 1.495 . S
C694 C693 1.392 . S
C694 C695 1.385 . S
C694 C696 1.478 . S
C695 H689 0.930 . S
C695 C691 1.400 . S
C695 C694 1.385 . S
C696 C694 1.478 . S
C696 C698 1.381 . S
C696 C702 1.383 . S
C697 C693 1.495 . S
C697 H703 0.959 . S
C697 H704 0.961 . S
C697 H705 0.960 . S
C698 C696 1.381 . S
C698 C699 1.394 . S
C698 H706 0.930 . S
C699 C698 1.394 . S
C699 C700 1.383 . S
C699 H707 0.929 . S
C700 C699 1.383 . S
C700 C701 1.377 . S
C701 H685 0.930 . S
C701 C700 1.377 . S
C701 C702 1.379 . S
C702 H686 0.931 . S
C702 C696 1.383 . S
C702 C701 1.379 . S
H703 C697 0.959 . S
H704 C697 0.961 . S
H705 C697 0.960 . S
H706 C698 0.930 . S
H707 C699 0.929 . S
H708 C716 0.929 . S
H709 C718 0.930 . S
H710 C720 0.930 . S
H711 C723 0.929 . S
H712 C726 0.930 . S
H713 C728 0.960 . S
H714 C728 0.960 . S
H715 C728 0.960 . S
C716 H708 0.929 . S
C716 C717 1.377 . S
C716 C718 1.384 . S
C717 C716 1.377 . S
C717 C723 1.390 . S
C718 H709 0.930 . S
C718 C716 1.384 . S
C718 C719 1.372 . S
C719 C718 1.372 . S
C719 C720 1.400 . S
C719 C724 1.490 . S
C720 H710 0.930 . S
C720 C719 1.400 . S
C720 C723 1.386 . S
H721 C737 0.930 . S
H722 C738 0.931 . S
C723 H711 0.929 . S
C723 C717 1.390 . S
C723 C720 1.386 . S
C724 C719 1.490 . S
C724 C726 1.395 . S
C724 C727 1.403 . S
H725 C731 0.930 . S
C726 H712 0.930 . S
C726 C724 1.395 . S
C726 C729 1.403 . S
C727 C724 1.403 . S
C727 C728 1.524 . S
C727 C731 1.400 . S
C728 H713 0.960 . S
C728 H714 0.960 . S
C728 H715 0.960 . S
C728 C727 1.524 . S
C729 C726 1.403 . S
C729 C730 1.392 . S
C729 C733 1.495 . S
C730 C729 1.392 . S
C730 C731 1.385 . S
C730 C732 1.478 . S
C731 H725 0.930 . S
C731 C727 1.400 . S
C731 C730 1.385 . S
C732 C730 1.478 . S
C732 C734 1.381 . S
C732 C738 1.383 . S
C733 C729 1.495 . S
C733 H739 0.959 . S
C733 H740 0.961 . S
C733 H741 0.960 . S
C734 C732 1.381 . S
C734 C735 1.394 . S
C734 H742 0.930 . S
C735 C734 1.394 . S
C735 C736 1.383 . S
C735 H743 0.929 . S
C736 C735 1.383 . S
C736 C737 1.377 . S
C737 H721 0.930 . S
C737 C736 1.377 . S
C737 C738 1.379 . S
C738 H722 0.931 . S
C738 C732 1.383 . S
C738 C737 1.379 . S
H739 C733 0.959 . S
H740 C733 0.961 . S
H741 C733 0.960 . S
H742 C734 0.930 . S
H743 C735 0.929 . S
H744 C752 0.929 . S
H745 C754 0.930 . S
H746 C756 0.930 . S
H747 C759 0.929 . S
H748 C762 0.930 . S
H749 C764 0.960 . S
H750 C764 0.960 . S
H751 C764 0.960 . S
C752 H744 0.929 . S
C752 C753 1.377 . S
C752 C754 1.384 . S
C753 C752 1.377 . S
C753 C759 1.390 . S
C754 H745 0.930 . S
C754 C752 1.384 . S
C754 C755 1.372 . S
C755 C754 1.372 . S
C755 C756 1.400 . S
C755 C760 1.490 . S
C756 H746 0.930 . S
C756 C755 1.400 . S
C756 C759 1.386 . S
H757 C773 0.930 . S
H758 C774 0.931 . S
C759 H747 0.929 . S
C759 C753 1.390 . S
C759 C756 1.386 . S
C760 C755 1.490 . S
C760 C762 1.395 . S
C760 C763 1.403 . S
H761 C767 0.930 . S
C762 H748 0.930 . S
C762 C760 1.395 . S
C762 C765 1.403 . S
C763 C760 1.403 . S
C763 C764 1.524 . S
C763 C767 1.400 . S
C764 H749 0.960 . S
C764 H750 0.960 . S
C764 H751 0.960 . S
C764 C763 1.524 . S
C765 C762 1.403 . S
C765 C766 1.392 . S
C765 C769 1.495 . S
C766 C765 1.392 . S
C766 C767 1.385 . S
C766 C768 1.478 . S
C767 H761 0.930 . S
C767 C763 1.400 . S
C767 C766 1.385 . S
C768 C766 1.478 . S
C768 C770 1.381 . S
C768 C774 1.383 . S
C769 C765 1.495 . S
C769 H775 0.959 . S
C769 H776 0.961 . S
C769 H777 0.960 . S
C770 C768 1.381 . S
C770 C771 1.394 . S
C770 H778 0.930 . S
C771 C770 1.394 . S
C771 C772 1.383 . S
C771 H779 0.929 . S
C772 C771 1.383 . S
C772 C773 1.377 . S
C773 H757 0.930 . S
C773 C772 1.377 . S
C773 C774 1.379 . S
C774 H758 0.931 . S
C774 C768 1.383 . S
C774 C773 1.379 . S
H775 C769 0.959 . S
H776 C769 0.961 . S
H777 C769 0.960 . S
H778 C770 0.930 . S
H779 C771 0.929 . S
H780 C788 0.929 . S
H781 C790 0.930 . S
H782 C792 0.930 . S
H783 C795 0.929 . S
H784 C798 0.930 . S
H785 C800 0.960 . S
H786 C800 0.960 . S
H787 C800 0.960 . S
C788 H780 0.929 . S
C788 C789 1.377 . S
C788 C790 1.384 . S
C789 C788 1.377 . S
C789 C795 1.390 . S
C790 H781 0.930 . S
C790 C788 1.384 . S
C790 C791 1.372 . S
C791 C790 1.372 . S
C791 C792 1.400 . S
C791 C796 1.490 . S
C792 H782 0.930 . S
C792 C791 1.400 . S
C792 C795 1.386 . S
H793 C809 0.930 . S
H794 C810 0.931 . S
C795 H783 0.929 . S
C795 C789 1.390 . S
C795 C792 1.386 . S
C796 C791 1.490 . S
C796 C798 1.395 . S
C796 C799 1.403 . S
H797 C803 0.930 . S
C798 H784 0.930 . S
C798 C796 1.395 . S
C798 C801 1.403 . S
C799 C796 1.403 . S
C799 C800 1.524 . S
C799 C803 1.400 . S
C800 H785 0.960 . S
C800 H786 0.960 . S
C800 H787 0.960 . S
C800 C799 1.524 . S
C801 C798 1.403 . S
C801 C802 1.392 . S
C801 C805 1.495 . S
C802 C801 1.392 . S
C802 C803 1.385 . S
C802 C804 1.478 . S
C803 H797 0.930 . S
C803 C799 1.400 . S
C803 C802 1.385 . S
C804 C802 1.478 . S
C804 C806 1.381 . S
C804 C810 1.383 . S
C805 C801 1.495 . S
C805 H811 0.959 . S
C805 H812 0.961 . S
C805 H813 0.960 . S
C806 C804 1.381 . S
C806 C807 1.394 . S
C806 H814 0.930 . S
C807 C806 1.394 . S
C807 C808 1.383 . S
C807 H815 0.929 . S
C808 C807 1.383 . S
C808 C809 1.377 . S
C809 H793 0.930 . S
C809 C808 1.377 . S
C809 C810 1.379 . S
C810 H794 0.931 . S
C810 C804 1.383 . S
C810 C809 1.379 . S
H811 C805 0.959 . S
H812 C805 0.961 . S
H813 C805 0.960 . S
H814 C806 0.930 . S
H815 C807 0.929 . S
H816 C824 0.929 . S
H817 C826 0.930 . S
H818 C828 0.930 . S
H819 C831 0.929 . S
H820 C834 0.930 . S
H821 C836 0.960 . S
H822 C836 0.960 . S
H823 C836 0.960 . S
C824 H816 0.929 . S
C824 C825 1.377 . S
C824 C826 1.384 . S
C825 C824 1.377 . S
C825 C831 1.390 . S
C826 H817 0.930 . S
C826 C824 1.384 . S
C826 C827 1.372 . S
C827 C826 1.372 . S
C827 C828 1.400 . S
C827 C832 1.490 . S
C828 H818 0.930 . S
C828 C827 1.400 . S
C828 C831 1.386 . S
H829 C845 0.930 . S
H830 C846 0.931 . S
C831 H819 0.929 . S
C831 C825 1.390 . S
C831 C828 1.386 . S
C832 C827 1.490 . S
C832 C834 1.395 . S
C832 C835 1.403 . S
H833 C839 0.930 . S
C834 H820 0.930 . S
C834 C832 1.395 . S
C834 C837 1.403 . S
C835 C832 1.403 . S
C835 C836 1.524 . S
C835 C839 1.400 . S
C836 H821 0.960 . S
C836 H822 0.960 . S
C836 H823 0.960 . S
C836 C835 1.524 . S
C837 C834 1.403 . S
C837 C838 1.392 . S
C837 C841 1.495 . S
C838 C837 1.392 . S
C838 C839 1.385 . S
C838 C840 1.478 . S
C839 H833 0.930 . S
C839 C835 1.400 . S
C839 C838 1.385 . S
C840 C838 1.478 . S
C840 C842 1.381 . S
C840 C846 1.383 . S
C841 C837 1.495 . S
C841 H847 0.959 . S
C841 H848 0.961 . S
C841 H849 0.960 . S
C842 C840 1.381 . S
C842 C843 1.394 . S
C842 H850 0.930 . S
C843 C842 1.394 . S
C843 C844 1.383 . S
C843 H851 0.929 . S
C844 C843 1.383 . S
C844 C845 1.377 . S
C845 H829 0.930 . S
C845 C844 1.377 . S
C845 C846 1.379 . S
C846 H830 0.931 . S
C846 C840 1.383 . S
C846 C845 1.379 . S
H847 C841 0.959 . S
H848 C841 0.961 . S
H849 C841 0.960 . S
H850 C842 0.930 . S
H851 C843 0.929 . S
H852 C860 0.929 . S
H853 C862 0.930 . S
H854 C864 0.930 . S
H855 C867 0.929 . S
H856 C870 0.930 . S
H857 C872 0.960 . S
H858 C872 0.960 . S
H859 C872 0.960 . S
C860 H852 0.929 . S
C860 C861 1.377 . S
C860 C862 1.384 . S
C861 C860 1.377 . S
C861 C867 1.390 . S
C862 H853 0.930 . S
C862 C860 1.384 . S
C862 C863 1.372 . S
C863 C862 1.372 . S
C863 C864 1.400 . S
C863 C868 1.490 . S
C864 H854 0.930 . S
C864 C863 1.400 . S
C864 C867 1.386 . S
H865 C881 0.930 . S
H866 C882 0.931 . S
C867 H855 0.929 . S
C867 C861 1.390 . S
C867 C864 1.386 . S
C868 C863 1.490 . S
C868 C870 1.395 . S
C868 C871 1.403 . S
H869 C875 0.930 . S
C870 H856 0.930 . S
C870 C868 1.395 . S
C870 C873 1.403 . S
C871 C868 1.403 . S
C871 C872 1.524 . S
C871 C875 1.400 . S
C872 H857 0.960 . S
C872 H858 0.960 . S
C872 H859 0.960 . S
C872 C871 1.524 . S
C873 C870 1.403 . S
C873 C874 1.392 . S
C873 C877 1.495 . S
C874 C873 1.392 . S
C874 C875 1.385 . S
C874 C876 1.478 . S
C875 H869 0.930 . S
C875 C871 1.400 . S
C875 C874 1.385 . S
C876 C874 1.478 . S
C876 C878 1.381 . S
C876 C882 1.383 . S
C877 C873 1.495 . S
C877 H883 0.959 . S
C877 H884 0.961 . S
C877 H885 0.960 . S
C878 C876 1.381 . S
C878 C879 1.394 . S
C878 H886 0.930 . S
C879 C878 1.394 . S
C879 C880 1.383 . S
C879 H887 0.929 . S
C880 C879 1.383 . S
C880 C881 1.377 . S
C881 H865 0.930 . S
C881 C880 1.377 . S
C881 C882 1.379 . S
C882 H866 0.931 . S
C882 C876 1.383 . S
C882 C881 1.379 . S
H883 C877 0.959 . S
H884 C877 0.961 . S
H885 C877 0.960 . S
H886 C878 0.930 . S
H887 C879 0.929 . S
H888 C896 0.929 . S
H889 C898 0.930 . S
H890 C900 0.930 . S
H891 C903 0.929 . S
H892 C906 0.930 . S
H893 C908 0.960 . S
H894 C908 0.960 . S
H895 C908 0.960 . S
C896 H888 0.929 . S
C896 C897 1.377 . S
C896 C898 1.384 . S
C897 C896 1.377 . S
C897 C903 1.390 . S
C898 H889 0.930 . S
C898 C896 1.384 . S
C898 C899 1.372 . S
C899 C898 1.372 . S
C899 C900 1.400 . S
C899 C904 1.490 . S
C900 H890 0.930 . S
C900 C899 1.400 . S
C900 C903 1.386 . S
H901 C917 0.930 . S
H902 C918 0.931 . S
C903 H891 0.929 . S
C903 C897 1.390 . S
C903 C900 1.386 . S
C904 C899 1.490 . S
C904 C906 1.395 . S
C904 C907 1.403 . S
H905 C911 0.930 . S
C906 H892 0.930 . S
C906 C904 1.395 . S
C906 C909 1.403 . S
C907 C904 1.403 . S
C907 C908 1.524 . S
C907 C911 1.400 . S
C908 H893 0.960 . S
C908 H894 0.960 . S
C908 H895 0.960 . S
C908 C907 1.524 . S
C909 C906 1.403 . S
C909 C910 1.392 . S
C909 C913 1.495 . S
C910 C909 1.392 . S
C910 C911 1.385 . S
C910 C912 1.478 . S
C911 H905 0.930 . S
C911 C907 1.400 . S
C911 C910 1.385 . S
C912 C910 1.478 . S
C912 C914 1.381 . S
C912 C918 1.383 . S
C913 C909 1.495 . S
C913 H919 0.959 . S
C913 H920 0.961 . S
C913 H921 0.960 . S
C914 C912 1.381 . S
C914 C915 1.394 . S
C914 H922 0.930 . S
C915 C914 1.394 . S
C915 C916 1.383 . S
C915 H923 0.929 . S
C916 C915 1.383 . S
C916 C917 1.377 . S
C917 H901 0.930 . S
C917 C916 1.377 . S
C917 C918 1.379 . S
C918 H902 0.931 . S
C918 C912 1.383 . S
C918 C917 1.379 . S
H919 C913 0.959 . S
H920 C913 0.961 . S
H921 C913 0.960 . S
H922 C914 0.930 . S
H923 C915 0.929 . S
H924 C932 0.929 . S
H925 C934 0.930 . S
H926 C936 0.930 . S
H927 C939 0.929 . S
H928 C942 0.930 . S
H929 C944 0.960 . S
H930 C944 0.960 . S
H931 C944 0.960 . S
C932 H924 0.929 . S
C932 C933 1.377 . S
C932 C934 1.384 . S
C933 C932 1.377 . S
C933 C939 1.390 . S
C934 H925 0.930 . S
C934 C932 1.384 . S
C934 C935 1.372 . S
C935 C934 1.372 . S
C935 C936 1.400 . S
C935 C940 1.490 . S
C936 H926 0.930 . S
C936 C935 1.400 . S
C936 C939 1.386 . S
H937 C953 0.930 . S
H938 C954 0.931 . S
C939 H927 0.929 . S
C939 C933 1.390 . S
C939 C936 1.386 . S
C940 C935 1.490 . S
C940 C942 1.395 . S
C940 C943 1.403 . S
H941 C947 0.930 . S
C942 H928 0.930 . S
C942 C940 1.395 . S
C942 C945 1.403 . S
C943 C940 1.403 . S
C943 C944 1.524 . S
C943 C947 1.400 . S
C944 H929 0.960 . S
C944 H930 0.960 . S
C944 H931 0.960 . S
C944 C943 1.524 . S
C945 C942 1.403 . S
C945 C946 1.392 . S
C945 C949 1.495 . S
C946 C945 1.392 . S
C946 C947 1.385 . S
C946 C948 1.478 . S
C947 H941 0.930 . S
C947 C943 1.400 . S
C947 C946 1.385 . S
C948 C946 1.478 . S
C948 C950 1.381 . S
C948 C954 1.383 . S
C949 C945 1.495 . S
C949 H955 0.959 . S
C949 H956 0.961 . S
C949 H957 0.960 . S
C950 C948 1.381 . S
C950 C951 1.394 . S
C950 H958 0.930 . S
C951 C950 1.394 . S
C951 C952 1.383 . S
C951 H959 0.929 . S
C952 C951 1.383 . S
C952 C953 1.377 . S
C953 H937 0.930 . S
C953 C952 1.377 . S
C953 C954 1.379 . S
C954 H938 0.931 . S
C954 C948 1.383 . S
C954 C953 1.379 . S
H955 C949 0.959 . S
H956 C949 0.961 . S
H957 C949 0.960 . S
H958 C950 0.930 . S
H959 C951 0.929 . S
H960 C968 0.929 . S
H961 C970 0.930 . S
H962 C972 0.930 . S
H963 C975 0.929 . S
H964 C978 0.930 . S
H965 C980 0.960 . S
H966 C980 0.960 . S
H967 C980 0.960 . S
C968 H960 0.929 . S
C968 C969 1.377 . S
C968 C970 1.384 . S
C969 C968 1.377 . S
C969 C975 1.390 . S
C970 H961 0.930 . S
C970 C968 1.384 . S
C970 C971 1.372 . S
C971 C970 1.372 . S
C971 C972 1.400 . S
C971 C976 1.490 . S
C972 H962 0.930 . S
C972 C971 1.400 . S
C972 C975 1.386 . S
H973 C989 0.930 . S
H974 C990 0.931 . S
C975 H963 0.929 . S
C975 C969 1.390 . S
C975 C972 1.386 . S
C976 C971 1.490 . S
C976 C978 1.395 . S
C976 C979 1.403 . S
H977 C983 0.930 . S
C978 H964 0.930 . S
C978 C976 1.395 . S
C978 C981 1.403 . S
C979 C976 1.403 . S
C979 C980 1.524 . S
C979 C983 1.400 . S
C980 H965 0.960 . S
C980 H966 0.960 . S
C980 H967 0.960 . S
C980 C979 1.524 . S
C981 C978 1.403 . S
C981 C982 1.392 . S
C981 C985 1.495 . S
C982 C981 1.392 . S
C982 C983 1.385 . S
C982 C984 1.478 . S
C983 H977 0.930 . S
C983 C979 1.400 . S
C983 C982 1.385 . S
C984 C982 1.478 . S
C984 C986 1.381 . S
C984 C990 1.383 . S
C985 C981 1.495 . S
C985 H991 0.959 . S
C985 H992 0.961 . S
C985 H993 0.960 . S
C986 C984 1.381 . S
C986 C987 1.394 . S
C986 H994 0.930 . S
C987 C986 1.394 . S
C987 C988 1.383 . S
C987 H995 0.929 . S
C988 C987 1.383 . S
C988 C989 1.377 . S
C989 H973 0.930 . S
C989 C988 1.377 . S
C989 C990 1.379 . S
C990 H974 0.931 . S
C990 C984 1.383 . S
C990 C989 1.379 . S
H991 C985 0.959 . S
H992 C985 0.961 . S
H993 C985 0.960 . S
H994 C986 0.930 . S
H995 C987 0.929 . S
H996 C1004 0.929 . S
H997 C1006 0.930 . S
H998 C1008 0.930 . S
H999 C1011 0.929 . S
H1000 C1014 0.930 . S
H1001 C1016 0.960 . S
H1002 C1016 0.960 . S
H1003 C1016 0.960 . S
C1004 H996 0.929 . S
C1004 C1005 1.377 . S
C1004 C1006 1.384 . S
C1005 C1004 1.377 . S
C1005 C1011 1.390 . S
C1006 H997 0.930 . S
C1006 C1004 1.384 . S
C1006 C1007 1.372 . S
C1007 C1006 1.372 . S
C1007 C1008 1.400 . S
C1007 C1012 1.490 . S
C1008 H998 0.930 . S
C1008 C1007 1.400 . S
C1008 C1011 1.386 . S
H1009 C1025 0.930 . S
H1010 C1026 0.931 . S
C1011 H999 0.929 . S
C1011 C1005 1.390 . S
C1011 C1008 1.386 . S
C1012 C1007 1.490 . S
C1012 C1014 1.395 . S
C1012 C1015 1.403 . S
H1013 C1019 0.930 . S
C1014 H1000 0.930 . S
C1014 C1012 1.395 . S
C1014 C1017 1.403 . S
C1015 C1012 1.403 . S
C1015 C1016 1.524 . S
C1015 C1019 1.400 . S
C1016 H1001 0.960 . S
C1016 H1002 0.960 . S
C1016 H1003 0.960 . S
C1016 C1015 1.524 . S
C1017 C1014 1.403 . S
C1017 C1018 1.392 . S
C1017 C1021 1.495 . S
C1018 C1017 1.392 . S
C1018 C1019 1.385 . S
C1018 C1020 1.478 . S
C1019 H1013 0.930 . S
C1019 C1015 1.400 . S
C1019 C1018 1.385 . S
C1020 C1018 1.478 . S
C1020 C1022 1.381 . S
C1020 C1026 1.383 . S
C1021 C1017 1.495 . S
C1021 H1027 0.959 . S
C1021 H1028 0.961 . S
C1021 H1029 0.960 . S
C1022 C1020 1.381 . S
C1022 C1023 1.394 . S
C1022 H1030 0.930 . S
C1023 C1022 1.394 . S
C1023 C1024 1.383 . S
C1023 H1031 0.929 . S
C1024 C1023 1.383 . S
C1024 C1025 1.377 . S
C1025 H1009 0.930 . S
C1025 C1024 1.377 . S
C1025 C1026 1.379 . S
C1026 H1010 0.931 . S
C1026 C1020 1.383 . S
C1026 C1025 1.379 . S
H1027 C1021 0.959 . S
H1028 C1021 0.961 . S
H1029 C1021 0.960 . S
H1030 C1022 0.930 . S
H1031 C1023 0.929 . S
H1032 C1040 0.929 . S
H1033 C1042 0.930 . S
H1034 C1044 0.930 . S
H1035 C1047 0.929 . S
H1036 C1050 0.930 . S
H1037 C1052 0.960 . S
H1038 C1052 0.960 . S
H1039 C1052 0.960 . S
C1040 H1032 0.929 . S
C1040 C1041 1.377 . S
C1040 C1042 1.384 . S
C1041 C1040 1.377 . S
C1041 C1047 1.390 . S
C1042 H1033 0.930 . S
C1042 C1040 1.384 . S
C1042 C1043 1.372 . S
C1043 C1042 1.372 . S
C1043 C1044 1.400 . S
C1043 C1048 1.490 . S
C1044 H1034 0.930 . S
C1044 C1043 1.400 . S
C1044 C1047 1.386 . S
H1045 C1061 0.930 . S
H1046 C1062 0.931 . S
C1047 H1035 0.929 . S
C1047 C1041 1.390 . S
C1047 C1044 1.386 . S
C1048 C1043 1.490 . S
C1048 C1050 1.395 . S
C1048 C1051 1.403 . S
H1049 C1055 0.930 . S
C1050 H1036 0.930 . S
C1050 C1048 1.395 . S
C1050 C1053 1.403 . S
C1051 C1048 1.403 . S
C1051 C1052 1.524 . S
C1051 C1055 1.400 . S
C1052 H1037 0.960 . S
C1052 H1038 0.960 . S
C1052 H1039 0.960 . S
C1052 C1051 1.524 . S
C1053 C1050 1.403 . S
C1053 C1054 1.392 . S
C1053 C1057 1.495 . S
C1054 C1053 1.392 . S
C1054 C1055 1.385 . S
C1054 C1056 1.478 . S
C1055 H1049 0.930 . S
C1055 C1051 1.400 . S
C1055 C1054 1.385 . S
C1056 C1054 1.478 . S
C1056 C1058 1.381 . S
C1056 C1062 1.383 . S
C1057 C1053 1.495 . S
C1057 H1063 0.959 . S
C1057 H1064 0.961 . S
C1057 H1065 0.960 . S
C1058 C1056 1.381 . S
C1058 C1059 1.394 1_556 S
C1058 H1066 0.930 . S
C1059 C1058 1.394 1_554 S
C1059 C1060 1.383 . S
C1059 H1067 0.929 . S
C1060 C1059 1.383 . S
C1060 C1061 1.377 1_554 S
C1061 H1045 0.930 . S
C1061 C1060 1.377 1_556 S
C1061 C1062 1.379 . S
C1062 H1046 0.931 . S
C1062 C1056 1.383 . S
C1062 C1061 1.379 . S
H1063 C1057 0.959 . S
H1064 C1057 0.961 . S
H1065 C1057 0.960 . S
H1066 C1058 0.930 . S
H1067 C1059 0.929 . S
H1068 C1076 0.929 . S
H1069 C1078 0.930 . S
H1070 C1080 0.930 . S
H1071 C1083 0.929 . S
H1072 C1086 0.930 . S
H1073 C1088 0.960 . S
H1074 C1088 0.960 . S
H1075 C1088 0.960 . S
C1076 H1068 0.929 . S
C1076 C1077 1.377 . S
C1076 C1078 1.384 . S
C1077 C1076 1.377 . S
C1077 C1083 1.390 . S
C1078 H1069 0.930 . S
C1078 C1076 1.384 . S
C1078 C1079 1.372 . S
C1079 C1078 1.372 . S
C1079 C1080 1.400 . S
C1079 C1084 1.490 . S
C1080 H1070 0.930 . S
C1080 C1079 1.400 . S
C1080 C1083 1.386 . S
H1081 C1097 0.930 . S
H1082 C1098 0.931 . S
C1083 H1071 0.929 . S
C1083 C1077 1.390 . S
C1083 C1080 1.386 . S
C1084 C1079 1.490 . S
C1084 C1086 1.395 . S
C1084 C1087 1.403 . S
H1085 C1091 0.930 . S
C1086 H1072 0.930 . S
C1086 C1084 1.395 . S
C1086 C1089 1.403 . S
C1087 C1084 1.403 . S
C1087 C1088 1.524 . S
C1087 C1091 1.400 . S
C1088 H1073 0.960 . S
C1088 H1074 0.960 . S
C1088 H1075 0.960 . S
C1088 C1087 1.524 . S
C1089 C1086 1.403 . S
C1089 C1090 1.392 . S
C1089 C1093 1.495 . S
C1090 C1089 1.392 . S
C1090 C1091 1.385 . S
C1090 C1092 1.478 . S
C1091 H1085 0.930 . S
C1091 C1087 1.400 . S
C1091 C1090 1.385 . S
C1092 C1090 1.478 . S
C1092 C1094 1.381 . S
C1092 C1098 1.383 . S
C1093 C1089 1.495 . S
C1093 H1099 0.959 . S
C1093 H1100 0.961 . S
C1093 H1101 0.960 . S
C1094 C1092 1.381 . S
C1094 C1095 1.394 . S
C1094 H1102 0.930 . S
C1095 C1094 1.394 . S
C1095 C1096 1.383 . S
C1095 H1103 0.929 . S
C1096 C1095 1.383 . S
C1096 C1097 1.377 . S
C1097 H1081 0.930 . S
C1097 C1096 1.377 . S
C1097 C1098 1.379 . S
C1098 H1082 0.931 . S
C1098 C1092 1.383 . S
C1098 C1097 1.379 . S
H1099 C1093 0.959 . S
H1100 C1093 0.961 . S
H1101 C1093 0.960 . S
H1102 C1094 0.930 . S
H1103 C1095 0.929 . S
H1104 C1112 0.929 . S
H1105 C1114 0.930 . S
H1106 C1116 0.930 . S
H1107 C1119 0.929 . S
H1108 C1122 0.930 . S
H1109 C1124 0.960 . S
H1110 C1124 0.960 . S
H1111 C1124 0.960 . S
C1112 H1104 0.929 . S
C1112 C1113 1.377 . S
C1112 C1114 1.384 . S
C1113 C1112 1.377 . S
C1113 C1119 1.390 . S
C1114 H1105 0.930 . S
C1114 C1112 1.384 . S
C1114 C1115 1.372 . S
C1115 C1114 1.372 . S
C1115 C1116 1.400 . S
C1115 C1120 1.490 1_565 S
C1116 H1106 0.930 . S
C1116 C1115 1.400 . S
C1116 C1119 1.386 . S
H1117 C1133 0.930 . S
H1118 C1134 0.931 . S
C1119 H1107 0.929 . S
C1119 C1113 1.390 . S
C1119 C1116 1.386 . S
C1120 C1115 1.490 1_545 S
C1120 C1122 1.395 . S
C1120 C1123 1.403 . S
H1121 C1127 0.930 . S
C1122 H1108 0.930 . S
C1122 C1120 1.395 . S
C1122 C1125 1.403 . S
C1123 C1120 1.403 . S
C1123 C1124 1.524 . S
C1123 C1127 1.400 . S
C1124 H1109 0.960 . S
C1124 H1110 0.960 . S
C1124 H1111 0.960 . S
C1124 C1123 1.524 . S
C1125 C1122 1.403 . S
C1125 C1126 1.392 . S
C1125 C1129 1.495 . S
C1126 C1125 1.392 . S
C1126 C1127 1.385 . S
C1126 C1128 1.478 . S
C1127 H1121 0.930 . S
C1127 C1123 1.400 . S
C1127 C1126 1.385 . S
C1128 C1126 1.478 . S
C1128 C1130 1.381 . S
C1128 C1134 1.383 . S
C1129 C1125 1.495 . S
C1129 H1135 0.959 . S
C1129 H1136 0.961 . S
C1129 H1137 0.960 . S
C1130 C1128 1.381 . S
C1130 C1131 1.394 . S
C1130 H1138 0.930 . S
C1131 C1130 1.394 . S
C1131 C1132 1.383 . S
C1131 H1139 0.929 . S
C1132 C1131 1.383 . S
C1132 C1133 1.377 . S
C1133 H1117 0.930 . S
C1133 C1132 1.377 . S
C1133 C1134 1.379 . S
C1134 H1118 0.931 . S
C1134 C1128 1.383 . S
C1134 C1133 1.379 . S
H1135 C1129 0.959 . S
H1136 C1129 0.961 . S
H1137 C1129 0.960 . S
H1138 C1130 0.930 . S
H1139 C1131 0.929 . S
H1140 C1148 0.929 . S
H1141 C1150 0.930 . S
H1142 C1152 0.930 . S
H1143 C1155 0.929 . S
H1144 C1158 0.930 . S
H1145 C1160 0.960 . S
H1146 C1160 0.960 . S
H1147 C1160 0.960 . S
C1148 H1140 0.929 . S
C1148 C1149 1.377 . S
C1148 C1150 1.384 . S
C1149 C1148 1.377 . S
C1149 C1155 1.390 . S
C1150 H1141 0.930 . S
C1150 C1148 1.384 . S
C1150 C1151 1.372 . S
C1151 C1150 1.372 . S
C1151 C1152 1.400 . S
C1151 C1156 1.490 . S
C1152 H1142 0.930 . S
C1152 C1151 1.400 . S
C1152 C1155 1.386 . S
H1153 C1169 0.930 . S
H1154 C1170 0.931 . S
C1155 H1143 0.929 . S
C1155 C1149 1.390 . S
C1155 C1152 1.386 . S
C1156 C1151 1.490 . S
C1156 C1158 1.395 . S
C1156 C1159 1.403 . S
H1157 C1163 0.930 . S
C1158 H1144 0.930 . S
C1158 C1156 1.395 . S
C1158 C1161 1.403 . S
C1159 C1156 1.403 . S
C1159 C1160 1.524 . S
C1159 C1163 1.400 . S
C1160 H1145 0.960 . S
C1160 H1146 0.960 . S
C1160 H1147 0.960 . S
C1160 C1159 1.524 . S
C1161 C1158 1.403 . S
C1161 C1162 1.392 . S
C1161 C1165 1.495 . S
C1162 C1161 1.392 . S
C1162 C1163 1.385 . S
C1162 C1164 1.478 . S
C1163 H1157 0.930 . S
C1163 C1159 1.400 . S
C1163 C1162 1.385 . S
C1164 C1162 1.478 . S
C1164 C1166 1.381 . S
C1164 C1170 1.383 . S
C1165 C1161 1.495 . S
C1165 H1171 0.959 . S
C1165 H1172 0.961 . S
C1165 H1173 0.960 . S
C1166 C1164 1.381 . S
C1166 C1167 1.394 . S
C1166 H1174 0.930 . S
C1167 C1166 1.394 . S
C1167 C1168 1.383 . S
C1167 H1175 0.929 . S
C1168 C1167 1.383 . S
C1168 C1169 1.377 . S
C1169 H1153 0.930 . S
C1169 C1168 1.377 . S
C1169 C1170 1.379 . S
C1170 H1154 0.931 . S
C1170 C1164 1.383 . S
C1170 C1169 1.379 . S
H1171 C1165 0.959 . S
H1172 C1165 0.961 . S
H1173 C1165 0.960 . S
H1174 C1166 0.930 . S
H1175 C1167 0.929 . S
H1176 C1184 0.929 . S
H1177 C1186 0.930 . S
H1178 C1188 0.930 . S
H1179 C1191 0.929 . S
H1180 C1194 0.930 . S
H1181 C1196 0.960 . S
H1182 C1196 0.960 . S
H1183 C1196 0.960 . S
C1184 H1176 0.929 . S
C1184 C1185 1.377 . S
C1184 C1186 1.384 . S
C1185 C1184 1.377 . S
C1185 C1191 1.390 . S
C1186 H1177 0.930 . S
C1186 C1184 1.384 . S
C1186 C1187 1.372 . S
C1187 C1186 1.372 . S
C1187 C1188 1.400 . S
C1187 C1192 1.490 . S
C1188 H1178 0.930 . S
C1188 C1187 1.400 . S
C1188 C1191 1.386 . S
H1189 C1205 0.930 . S
H1190 C1206 0.953 . S
C1191 H1179 0.929 . S
C1191 C1185 1.390 . S
C1191 C1188 1.386 . S
C1192 C1187 1.490 . S
C1192 C1194 1.395 . S
C1192 C1195 1.403 . S
H1193 C1199 0.930 . S
C1194 H1180 0.930 . S
C1194 C1192 1.395 . S
C1194 C1197 1.403 . S
C1195 C1192 1.403 . S
C1195 C1196 1.524 . S
C1195 C1199 1.400 . S
C1196 H1181 0.960 . S
C1196 H1182 0.960 . S
C1196 H1183 0.960 . S
C1196 C1195 1.524 . S
C1197 C1194 1.403 . S
C1197 C1198 1.392 . S
C1197 C1201 1.495 1_565 S
C1198 C1197 1.392 . S
C1198 C1199 1.385 . S
C1198 C1200 1.478 1_565 S
C1199 H1193 0.930 . S
C1199 C1195 1.400 . S
C1199 C1198 1.385 . S
C1200 C1198 1.478 1_545 S
C1200 C1202 1.381 . S
C1200 C1206 1.338 1_554 S
C1201 C1197 1.495 1_545 S
C1201 H1207 0.959 . S
C1201 H1208 0.961 . S
C1201 H1209 0.960 . S
C1202 C1200 1.381 . S
C1202 C1203 1.394 . S
C1202 H1210 0.930 . S
C1203 C1202 1.394 . S
C1203 C1204 1.383 1_554 S
C1203 H1211 0.929 . S
C1204 C1203 1.383 1_556 S
C1204 C1205 1.377 . S
C1205 H1189 0.930 . S
C1205 C1204 1.377 . S
C1205 C1206 1.404 . S
C1206 H1190 0.953 . S
C1206 C1200 1.338 1_556 S
C1206 C1205 1.404 . S
H1207 C1201 0.959 . S
H1208 C1201 0.961 . S
H1209 C1201 0.960 . S
H1210 C1202 0.930 . S
H1211 C1203 0.929 . S
H1212 C1220 0.929 . S
H1213 C1222 0.930 . S
H1214 C1224 0.930 . S
H1215 C1227 0.929 . S
H1216 C1230 0.930 . S
H1217 C1232 0.960 . S
H1218 C1232 0.960 . S
H1219 C1232 0.960 . S
C1220 H1212 0.929 . S
C1220 C1221 1.377 . S
C1220 C1222 1.384 . S
C1221 C1220 1.377 . S
C1221 C1227 1.390 . S
C1222 H1213 0.930 . S
C1222 C1220 1.384 . S
C1222 C1223 1.372 . S
C1223 C1222 1.372 . S
C1223 C1224 1.400 . S
C1223 C1228 1.490 . S
C1224 H1214 0.930 . S
C1224 C1223 1.400 . S
C1224 C1227 1.386 . S
H1225 C1241 0.930 . S
H1226 C1242 0.931 . S
C1227 H1215 0.929 . S
C1227 C1221 1.390 . S
C1227 C1224 1.386 . S
C1228 C1223 1.490 . S
C1228 C1230 1.395 . S
C1228 C1231 1.403 . S
H1229 C1235 0.930 . S
C1230 H1216 0.930 . S
C1230 C1228 1.395 . S
C1230 C1233 1.403 . S
C1231 C1228 1.403 . S
C1231 C1232 1.524 . S
C1231 C1235 1.400 . S
C1232 H1217 0.960 . S
C1232 H1218 0.960 . S
C1232 H1219 0.960 . S
C1232 C1231 1.524 . S
C1233 C1230 1.403 . S
C1233 C1234 1.392 . S
C1233 C1237 1.495 . S
C1234 C1233 1.392 . S
C1234 C1235 1.385 . S
C1234 C1236 1.478 . S
C1235 H1229 0.930 . S
C1235 C1231 1.400 . S
C1235 C1234 1.385 . S
C1236 C1234 1.478 . S
C1236 C1238 1.381 . S
C1236 C1242 1.383 . S
C1237 C1233 1.495 . S
C1237 H1243 0.959 . S
C1237 H1244 0.961 . S
C1237 H1245 0.960 . S
C1238 C1236 1.381 . S
C1238 C1239 1.394 . S
C1238 H1246 0.930 . S
C1239 C1238 1.394 . S
C1239 C1240 1.383 . S
C1239 H1247 0.929 . S
C1240 C1239 1.383 . S
C1240 C1241 1.377 . S
C1241 H1225 0.930 . S
C1241 C1240 1.377 . S
C1241 C1242 1.379 . S
C1242 H1226 0.931 . S
C1242 C1236 1.383 . S
C1242 C1241 1.379 . S
H1243 C1237 0.959 . S
H1244 C1237 0.961 . S
H1245 C1237 0.960 . S
H1246 C1238 0.930 . S
H1247 C1239 0.929 . S
H1248 C1256 0.929 . S
H1249 C1258 0.930 . S
H1250 C1260 0.930 . S
H1251 C1263 0.929 . S
H1252 C1266 0.930 . S
H1253 C1268 0.960 . S
H1254 C1268 0.960 . S
H1255 C1268 0.960 . S
C1256 H1248 0.929 . S
C1256 C1257 1.377 . S
C1256 C1258 1.384 . S
C1257 C1256 1.377 . S
C1257 C1263 1.390 . S
C1258 H1249 0.930 . S
C1258 C1256 1.384 . S
C1258 C1259 1.372 . S
C1259 C1258 1.372 . S
C1259 C1260 1.400 . S
C1259 C1264 1.490 . S
C1260 H1250 0.930 . S
C1260 C1259 1.400 . S
C1260 C1263 1.386 . S
H1261 C1277 0.930 . S
H1262 C1278 0.931 . S
C1263 H1251 0.929 . S
C1263 C1257 1.390 . S
C1263 C1260 1.386 . S
C1264 C1259 1.490 . S
C1264 C1266 1.395 . S
C1264 C1267 1.403 . S
H1265 C1271 0.930 . S
C1266 H1252 0.930 . S
C1266 C1264 1.395 . S
C1266 C1269 1.403 . S
C1267 C1264 1.403 . S
C1267 C1268 1.524 . S
C1267 C1271 1.400 . S
C1268 H1253 0.960 . S
C1268 H1254 0.960 . S
C1268 H1255 0.960 . S
C1268 C1267 1.524 . S
C1269 C1266 1.403 . S
C1269 C1270 1.392 . S
C1269 C1273 1.495 . S
C1270 C1269 1.392 . S
C1270 C1271 1.385 . S
C1270 C1272 1.478 . S
C1271 H1265 0.930 . S
C1271 C1267 1.400 . S
C1271 C1270 1.385 . S
C1272 C1270 1.478 . S
C1272 C1274 1.381 . S
C1272 C1278 1.383 . S
C1273 C1269 1.495 . S
C1273 H1279 0.959 . S
C1273 H1280 0.961 . S
C1273 H1281 0.960 . S
C1274 C1272 1.381 . S
C1274 C1275 1.394 . S
C1274 H1282 0.930 . S
C1275 C1274 1.394 . S
C1275 C1276 1.383 . S
C1275 H1283 0.929 . S
C1276 C1275 1.383 . S
C1276 C1277 1.377 . S
C1277 H1261 0.930 . S
C1277 C1276 1.377 . S
C1277 C1278 1.379 . S
C1278 H1262 0.931 . S
C1278 C1272 1.383 . S
C1278 C1277 1.379 . S
H1279 C1273 0.959 . S
H1280 C1273 0.961 . S
H1281 C1273 0.960 . S
H1282 C1274 0.930 . S
H1283 C1275 0.929 . S
H1284 C1292 0.929 . S
H1285 C1294 0.930 . S
H1286 C1296 0.930 . S
H1287 C1299 0.929 . S
H1288 C1302 0.930 . S
H1289 C1304 0.960 . S
H1290 C1304 0.960 . S
H1291 C1304 0.960 . S
C1292 H1284 0.929 . S
C1292 C1293 1.377 . S
C1292 C1294 1.384 . S
C1293 C1292 1.377 . S
C1293 C1299 1.390 . S
C1294 H1285 0.930 . S
C1294 C1292 1.384 . S
C1294 C1295 1.372 . S
C1295 C1294 1.372 . S
C1295 C1296 1.400 . S
C1295 C1300 1.490 . S
C1296 H1286 0.930 . S
C1296 C1295 1.400 . S
C1296 C1299 1.386 . S
H1297 C1313 0.930 . S
H1298 C1314 0.931 . S
C1299 H1287 0.929 . S
C1299 C1293 1.390 . S
C1299 C1296 1.386 . S
C1300 C1295 1.490 . S
C1300 C1302 1.395 . S
C1300 C1303 1.403 . S
H1301 C1307 0.930 . S
C1302 H1288 0.930 . S
C1302 C1300 1.395 . S
C1302 C1305 1.403 . S
C1303 C1300 1.403 . S
C1303 C1304 1.524 . S
C1303 C1307 1.400 . S
C1304 H1289 0.960 . S
C1304 H1290 0.960 . S
C1304 H1291 0.960 . S
C1304 C1303 1.524 . S
C1305 C1302 1.403 . S
C1305 C1306 1.392 . S
C1305 C1309 1.495 . S
C1306 C1305 1.392 . S
C1306 C1307 1.385 . S
C1306 C1308 1.478 . S
C1307 H1301 0.930 . S
C1307 C1303 1.400 . S
C1307 C1306 1.385 . S
C1308 C1306 1.478 . S
C1308 C1310 1.381 . S
C1308 C1314 1.383 . S
C1309 C1305 1.495 . S
C1309 H1315 0.959 . S
C1309 H1316 0.961 . S
C1309 H1317 0.960 . S
C1310 C1308 1.381 . S
C1310 C1311 1.394 . S
C1310 H1318 0.930 . S
C1311 C1310 1.394 . S
C1311 C1312 1.383 . S
C1311 H1319 0.929 . S
C1312 C1311 1.383 . S
C1312 C1313 1.377 . S
C1313 H1297 0.930 . S
C1313 C1312 1.377 . S
C1313 C1314 1.379 . S
C1314 H1298 0.931 . S
C1314 C1308 1.383 . S
C1314 C1313 1.379 . S
H1315 C1309 0.959 . S
H1316 C1309 0.961 . S
H1317 C1309 0.960 . S
H1318 C1310 0.930 . S
H1319 C1311 0.929 . S
H1320 C1328 0.929 . S
H1321 C1330 0.930 . S
H1322 C1332 0.930 . S
H1323 C1335 0.929 . S
H1324 C1338 0.930 . S
H1325 C1340 0.960 . S
H1326 C1340 0.960 . S
H1327 C1340 0.960 . S
C1328 H1320 0.929 . S
C1328 C1329 1.377 . S
C1328 C1330 1.384 . S
C1329 C1328 1.377 . S
C1329 C1335 1.390 . S
C1330 H1321 0.930 . S
C1330 C1328 1.384 . S
C1330 C1331 1.372 . S
C1331 C1330 1.372 . S
C1331 C1332 1.400 . S
C1331 C1336 1.490 . S
C1332 H1322 0.930 . S
C1332 C1331 1.400 . S
C1332 C1335 1.386 . S
H1333 C1349 0.930 . S
H1334 C1350 0.931 . S
C1335 H1323 0.929 . S
C1335 C1329 1.390 . S
C1335 C1332 1.386 . S
C1336 C1331 1.490 . S
C1336 C1338 1.395 . S
C1336 C1339 1.403 . S
H1337 C1343 0.930 . S
C1338 H1324 0.930 . S
C1338 C1336 1.395 . S
C1338 C1341 1.403 . S
C1339 C1336 1.403 . S
C1339 C1340 1.524 . S
C1339 C1343 1.400 . S
C1340 H1325 0.960 . S
C1340 H1326 0.960 . S
C1340 H1327 0.960 . S
C1340 C1339 1.524 . S
C1341 C1338 1.403 . S
C1341 C1342 1.392 . S
C1341 C1345 1.495 1_556 S
C1342 C1341 1.392 . S
C1342 C1343 1.385 . S
C1342 C1344 1.478 1_556 S
C1343 H1337 0.930 . S
C1343 C1339 1.400 . S
C1343 C1342 1.385 . S
C1344 C1342 1.478 1_554 S
C1344 C1346 1.381 . S
C1344 C1350 1.383 . S
C1345 C1341 1.495 1_554 S
C1345 H1351 0.959 . S
C1345 H1352 0.961 . S
C1345 H1353 0.960 . S
C1346 C1344 1.381 . S
C1346 C1347 1.394 . S
C1346 H1354 0.930 . S
C1347 C1346 1.394 . S
C1347 C1348 1.383 1_455 S
C1347 H1355 0.929 . S
C1348 C1347 1.383 1_655 S
C1348 C1349 1.377 . S
C1349 H1333 0.930 . S
C1349 C1348 1.377 . S
C1349 C1350 1.379 1_655 S
C1350 H1334 0.931 . S
C1350 C1344 1.383 . S
C1350 C1349 1.379 1_455 S
H1351 C1345 0.959 . S
H1352 C1345 0.961 . S
H1353 C1345 0.960 . S
H1354 C1346 0.930 . S
H1355 C1347 0.929 . S
H1356 C1364 0.929 . S
H1357 C1366 0.930 . S
H1358 C1368 0.930 . S
H1359 C1371 0.929 . S
H1360 C1374 0.930 . S
H1361 C1376 0.960 . S
H1362 C1376 0.960 . S
H1363 C1376 0.960 . S
C1364 H1356 0.929 . S
C1364 C1365 1.377 . S
C1364 C1366 1.384 . S
C1365 C1364 1.377 . S
C1365 C1371 1.390 . S
C1366 H1357 0.930 . S
C1366 C1364 1.384 . S
C1366 C1367 1.372 . S
C1367 C1366 1.372 . S
C1367 C1368 1.400 . S
C1367 C1372 1.490 . S
C1368 H1358 0.930 . S
C1368 C1367 1.400 . S
C1368 C1371 1.386 . S
H1369 C1385 0.930 . S
H1370 C1386 0.931 . S
C1371 H1359 0.929 . S
C1371 C1365 1.390 . S
C1371 C1368 1.386 . S
C1372 C1367 1.490 . S
C1372 C1374 1.395 . S
C1372 C1375 1.403 . S
H1373 C1379 0.930 . S
C1374 H1360 0.930 . S
C1374 C1372 1.395 . S
C1374 C1377 1.403 . S
C1375 C1372 1.403 . S
C1375 C1376 1.524 . S
C1375 C1379 1.400 . S
C1376 H1361 0.960 . S
C1376 H1362 0.960 . S
C1376 H1363 0.960 . S
C1376 C1375 1.524 . S
C1377 C1374 1.403 . S
C1377 C1378 1.392 . S
C1377 C1381 1.495 . S
C1378 C1377 1.392 . S
C1378 C1379 1.385 . S
C1378 C1380 1.478 . S
C1379 H1373 0.930 . S
C1379 C1375 1.400 . S
C1379 C1378 1.385 . S
C1380 C1378 1.478 . S
C1380 C1382 1.381 . S
C1380 C1386 1.383 . S
C1381 C1377 1.495 . S
C1381 H1387 0.959 . S
C1381 H1388 0.961 . S
C1381 H1389 0.960 . S
C1382 C1380 1.381 . S
C1382 C1383 1.394 . S
C1382 H1390 0.930 . S
C1383 C1382 1.394 . S
C1383 C1384 1.383 . S
C1383 H1391 0.929 . S
C1384 C1383 1.383 . S
C1384 C1385 1.377 . S
C1385 H1369 0.930 . S
C1385 C1384 1.377 . S
C1385 C1386 1.379 . S
C1386 H1370 0.931 . S
C1386 C1380 1.383 . S
C1386 C1385 1.379 . S
H1387 C1381 0.959 . S
H1388 C1381 0.961 . S
H1389 C1381 0.960 . S
H1390 C1382 0.930 . S
H1391 C1383 0.929 . S
H1392 C1400 0.929 . S
H1393 C1402 0.930 . S
H1394 C1404 0.930 . S
H1395 C1407 0.929 . S
H1396 C1410 0.930 . S
H1397 C1412 0.960 . S
H1398 C1412 0.960 . S
H1399 C1412 0.960 . S
C1400 H1392 0.929 . S
C1400 C1401 1.377 . S
C1400 C1402 1.384 . S
C1401 C1400 1.377 . S
C1401 C1407 1.390 1_455 S
C1402 H1393 0.930 . S
C1402 C1400 1.384 . S
C1402 C1403 1.372 1_455 S
C1403 C1402 1.372 1_655 S
C1403 C1404 1.400 . S
C1403 C1408 1.490 . S
C1404 H1394 0.930 . S
C1404 C1403 1.400 . S
C1404 C1407 1.386 . S
H1405 C1421 0.930 . S
H1406 C1422 0.931 . S
C1407 H1395 0.929 . S
C1407 C1401 1.390 1_655 S
C1407 C1404 1.386 . S
C1408 C1403 1.490 . S
C1408 C1410 1.395 . S
C1408 C1411 1.403 . S
H1409 C1415 0.930 . S
C1410 H1396 0.930 . S
C1410 C1408 1.395 . S
C1410 C1413 1.403 . S
C1411 C1408 1.403 . S
C1411 C1412 1.524 . S
C1411 C1415 1.400 . S
C1412 H1397 0.960 . S
C1412 H1398 0.960 . S
C1412 H1399 0.960 . S
C1412 C1411 1.524 . S
C1413 C1410 1.403 . S
C1413 C1414 1.392 . S
C1413 C1417 1.495 . S
C1414 C1413 1.392 . S
C1414 C1415 1.385 . S
C1414 C1416 1.478 . S
C1415 H1409 0.930 . S
C1415 C1411 1.400 . S
C1415 C1414 1.385 . S
C1416 C1414 1.478 . S
C1416 C1418 1.381 . S
C1416 C1422 1.383 . S
C1417 C1413 1.495 . S
C1417 H1423 0.959 . S
C1417 H1424 0.961 . S
C1417 H1425 0.960 . S
C1418 C1416 1.381 . S
C1418 C1419 1.394 . S
C1418 H1426 0.930 . S
C1419 C1418 1.394 . S
C1419 C1420 1.383 . S
C1419 H1427 0.929 . S
C1420 C1419 1.383 . S
C1420 C1421 1.377 . S
C1421 H1405 0.930 . S
C1421 C1420 1.377 . S
C1421 C1422 1.379 . S
C1422 H1406 0.931 . S
C1422 C1416 1.383 . S
C1422 C1421 1.379 . S
H1423 C1417 0.959 . S
H1424 C1417 0.961 . S
H1425 C1417 0.960 . S
H1426 C1418 0.930 . S
H1427 C1419 0.929 . S
H1428 C1436 0.929 . S
H1429 C1438 0.930 . S
H1430 C1440 0.930 . S
H1431 C1443 0.929 . S
H1432 C1446 0.930 . S
H1433 C1448 0.960 . S
H1434 C1448 0.960 . S
H1435 C1448 0.960 . S
C1436 H1428 0.929 . S
C1436 C1437 1.377 . S
C1436 C1438 1.384 . S
C1437 C1436 1.377 . S
C1437 C1443 1.390 . S
C1438 H1429 0.930 . S
C1438 C1436 1.384 . S
C1438 C1439 1.372 . S
C1439 C1438 1.372 . S
C1439 C1440 1.400 . S
C1439 C1444 1.490 . S
C1440 H1430 0.930 . S
C1440 C1439 1.400 . S
C1440 C1443 1.386 . S
H1441 C1457 0.930 . S
H1442 C1458 0.931 . S
C1443 H1431 0.929 . S
C1443 C1437 1.390 . S
C1443 C1440 1.386 . S
C1444 C1439 1.490 . S
C1444 C1446 1.395 . S
C1444 C1447 1.403 . S
H1445 C1451 0.930 . S
C1446 H1432 0.930 . S
C1446 C1444 1.395 . S
C1446 C1449 1.403 . S
C1447 C1444 1.403 . S
C1447 C1448 1.524 . S
C1447 C1451 1.400 . S
C1448 H1433 0.960 . S
C1448 H1434 0.960 . S
C1448 H1435 0.960 . S
C1448 C1447 1.524 . S
C1449 C1446 1.403 . S
C1449 C1450 1.392 . S
C1449 C1453 1.495 . S
C1450 C1449 1.392 . S
C1450 C1451 1.385 . S
C1450 C1452 1.478 . S
C1451 H1445 0.930 . S
C1451 C1447 1.400 . S
C1451 C1450 1.385 . S
C1452 C1450 1.478 . S
C1452 C1454 1.381 . S
C1452 C1458 1.383 . S
C1453 C1449 1.495 . S
C1453 H1459 0.959 . S
C1453 H1460 0.961 . S
C1453 H1461 0.960 . S
C1454 C1452 1.381 . S
C1454 C1455 1.394 . S
C1454 H1462 0.930 . S
C1455 C1454 1.394 . S
C1455 C1456 1.383 . S
C1455 H1463 0.929 . S
C1456 C1455 1.383 . S
C1456 C1457 1.377 . S
C1457 H1441 0.930 . S
C1457 C1456 1.377 . S
C1457 C1458 1.379 . S
C1458 H1442 0.931 . S
C1458 C1452 1.383 . S
C1458 C1457 1.379 . S
H1459 C1453 0.959 . S
H1460 C1453 0.961 . S
H1461 C1453 0.960 . S
H1462 C1454 0.930 . S
H1463 C1455 0.929 . S
H1464 C1472 0.929 . S
H1465 C1474 0.930 . S
H1466 C1476 0.930 . S
H1467 C1479 0.929 . S
H1468 C1482 0.930 . S
H1469 C1484 0.960 . S
H1470 C1484 0.960 . S
H1471 C1484 0.960 . S
C1472 H1464 0.929 . S
C1472 C1473 1.377 . S
C1472 C1474 1.384 . S
C1473 C1472 1.377 . S
C1473 C1479 1.390 . S
C1474 H1465 0.930 . S
C1474 C1472 1.384 . S
C1474 C1475 1.372 . S
C1475 C1474 1.372 . S
C1475 C1476 1.400 . S
C1475 C1480 1.490 . S
C1476 H1466 0.930 . S
C1476 C1475 1.400 . S
C1476 C1479 1.386 . S
H1477 C1493 0.930 . S
H1478 C1494 0.931 . S
C1479 H1467 0.929 . S
C1479 C1473 1.390 . S
C1479 C1476 1.386 . S
C1480 C1475 1.490 . S
C1480 C1482 1.395 . S
C1480 C1483 1.403 . S
H1481 C1487 0.930 1_556 S
C1482 H1468 0.930 . S
C1482 C1480 1.395 . S
C1482 C1485 1.403 . S
C1483 C1480 1.403 . S
C1483 C1484 1.524 . S
C1483 C1487 1.400 . S
C1484 H1469 0.960 . S
C1484 H1470 0.960 . S
C1484 H1471 0.960 . S
C1484 C1483 1.524 . S
C1485 C1482 1.403 . S
C1485 C1486 1.392 . S
C1485 C1489 1.495 . S
C1486 C1485 1.392 . S
C1486 C1487 1.385 . S
C1486 C1488 1.478 1_554 S
C1487 H1481 0.930 1_554 S
C1487 C1483 1.400 . S
C1487 C1486 1.385 . S
C1488 C1486 1.478 1_556 S
C1488 C1490 1.381 . S
C1488 C1494 1.383 . S
C1489 C1485 1.495 . S
C1489 H1495 0.959 . S
C1489 H1496 0.961 . S
C1489 H1497 0.960 . S
C1490 C1488 1.381 . S
C1490 C1491 1.394 . S
C1490 H1498 0.930 . S
C1491 C1490 1.394 . S
C1491 C1492 1.383 . S
C1491 H1499 0.929 . S
C1492 C1491 1.383 . S
C1492 C1493 1.377 . S
C1493 H1477 0.930 . S
C1493 C1492 1.377 . S
C1493 C1494 1.379 . S
C1494 H1478 0.931 . S
C1494 C1488 1.383 . S
C1494 C1493 1.379 . S
H1495 C1489 0.959 . S
H1496 C1489 0.961 . S
H1497 C1489 0.960 . S
H1498 C1490 0.930 . S
H1499 C1491 0.929 . S
H1500 C1508 0.929 . S
H1501 C1510 0.930 . S
H1502 C1512 0.930 . S
H1503 C1515 0.929 . S
H1504 C1518 0.930 . S
H1505 C1520 0.960 . S
H1506 C1520 0.960 . S
H1507 C1520 0.960 . S
C1508 H1500 0.929 . S
C1508 C1509 1.377 . S
C1508 C1510 1.384 . S
C1509 C1508 1.377 . S
C1509 C1515 1.390 . S
C1510 H1501 0.930 . S
C1510 C1508 1.384 . S
C1510 C1511 1.372 . S
C1511 C1510 1.372 . S
C1511 C1512 1.400 . S
C1511 C1516 1.490 . S
C1512 H1502 0.930 . S
C1512 C1511 1.400 . S
C1512 C1515 1.386 . S
H1513 C1529 0.930 . S
H1514 C1530 0.931 . S
C1515 H1503 0.929 . S
C1515 C1509 1.390 . S
C1515 C1512 1.386 . S
C1516 C1511 1.490 . S
C1516 C1518 1.395 . S
C1516 C1519 1.403 . S
H1517 C1523 0.930 . S
C1518 H1504 0.930 . S
C1518 C1516 1.395 . S
C1518 C1521 1.403 . S
C1519 C1516 1.403 . S
C1519 C1520 1.524 . S
C1519 C1523 1.400 . S
C1520 H1505 0.960 . S
C1520 H1506 0.960 . S
C1520 H1507 0.960 . S
C1520 C1519 1.524 . S
C1521 C1518 1.403 . S
C1521 C1522 1.392 . S
C1521 C1525 1.495 . S
C1522 C1521 1.392 . S
C1522 C1523 1.385 . S
C1522 C1524 1.478 . S
C1523 H1517 0.930 . S
C1523 C1519 1.400 . S
C1523 C1522 1.385 . S
C1524 C1522 1.478 . S
C1524 C1526 1.381 . S
C1524 C1530 1.383 . S
C1525 C1521 1.495 . S
C1525 H1531 0.959 . S
C1525 H1532 0.961 . S
C1525 H1533 0.960 . S
C1526 C1524 1.381 . S
C1526 C1527 1.394 . S
C1526 H1534 0.930 . S
C1527 C1526 1.394 . S
C1527 C1528 1.383 . S
C1527 H1535 0.929 . S
C1528 C1527 1.383 . S
C1528 C1529 1.377 . S
C1529 H1513 0.930 . S
C1529 C1528 1.377 . S
C1529 C1530 1.379 . S
C1530 H1514 0.931 . S
C1530 C1524 1.383 . S
C1530 C1529 1.379 . S
H1531 C1525 0.959 . S
H1532 C1525 0.961 . S
H1533 C1525 0.960 . S
H1534 C1526 0.930 . S
H1535 C1527 0.929 . S
H1536 C1544 0.929 . S
H1537 C1546 0.930 . S
H1538 C1548 0.930 . S
H1539 C1551 0.929 . S
H1540 C1554 0.930 . S
H1541 C1556 0.960 . S
H1542 C1556 0.960 . S
H1543 C1556 0.960 . S
C1544 H1536 0.929 . S
C1544 C1545 1.377 . S
C1544 C1546 1.384 . S
C1545 C1544 1.377 . S
C1545 C1551 1.390 . S
C1546 H1537 0.930 . S
C1546 C1544 1.384 . S
C1546 C1547 1.372 . S
C1547 C1546 1.372 . S
C1547 C1548 1.400 . S
C1547 C1552 1.490 . S
C1548 H1538 0.930 . S
C1548 C1547 1.400 . S
C1548 C1551 1.386 . S
H1549 C1565 0.930 . S
H1550 C1566 0.931 . S
C1551 H1539 0.929 . S
C1551 C1545 1.390 . S
C1551 C1548 1.386 . S
C1552 C1547 1.490 . S
C1552 C1554 1.395 . S
C1552 C1555 1.403 . S
H1553 C1559 0.930 . S
C1554 H1540 0.930 . S
C1554 C1552 1.395 . S
C1554 C1557 1.403 . S
C1555 C1552 1.403 . S
C1555 C1556 1.524 . S
C1555 C1559 1.400 . S
C1556 H1541 0.960 . S
C1556 H1542 0.960 . S
C1556 H1543 0.960 . S
C1556 C1555 1.524 . S
C1557 C1554 1.403 . S
C1557 C1558 1.392 . S
C1557 C1561 1.495 . S
C1558 C1557 1.392 . S
C1558 C1559 1.385 . S
C1558 C1560 1.478 . S
C1559 H1553 0.930 . S
C1559 C1555 1.400 . S
C1559 C1558 1.385 . S
C1560 C1558 1.478 . S
C1560 C1562 1.381 . S
C1560 C1566 1.383 . S
C1561 C1557 1.495 . S
C1561 H1567 0.959 . S
C1561 H1568 0.961 . S
C1561 H1569 0.960 . S
C1562 C1560 1.381 . S
C1562 C1563 1.394 . S
C1562 H1570 0.930 . S
C1563 C1562 1.394 . S
C1563 C1564 1.383 . S
C1563 H1571 0.929 . S
C1564 C1563 1.383 . S
C1564 C1565 1.377 . S
C1565 H1549 0.930 . S
C1565 C1564 1.377 . S
C1565 C1566 1.379 . S
C1566 H1550 0.931 . S
C1566 C1560 1.383 . S
C1566 C1565 1.379 . S
H1567 C1561 0.959 . S
H1568 C1561 0.961 . S
H1569 C1561 0.960 . S
H1570 C1562 0.930 . S
H1571 C1563 0.929 . S
H1572 C1580 0.929 . S
H1573 C1582 0.930 1_655 S
H1574 C1584 0.930 . S
H1575 C1587 0.929 . S
H1576 C1590 0.930 . S
H1577 C1592 0.960 . S
H1578 C1592 0.960 . S
H1579 C1592 0.960 . S
C1580 H1572 0.929 . S
C1580 C1581 1.377 . S
C1580 C1582 1.384 1_565 S
C1581 C1580 1.377 . S
C1581 C1587 1.390 1_565 S
C1582 H1573 0.930 1_455 S
C1582 C1580 1.384 1_545 S
C1582 C1583 1.372 . S
C1583 C1582 1.372 . S
C1583 C1584 1.400 . S
C1583 C1588 1.490 1_455 S
C1584 H1574 0.930 . S
C1584 C1583 1.400 . S
C1584 C1587 1.386 . S
H1585 C1601 0.930 . S
H1586 C1602 0.931 . S
C1587 H1575 0.929 . S
C1587 C1581 1.390 1_545 S
C1587 C1584 1.386 . S
C1588 C1583 1.490 1_655 S
C1588 C1590 1.395 . S
C1588 C1591 1.403 . S
H1589 C1595 0.930 . S
C1590 H1576 0.930 . S
C1590 C1588 1.395 . S
C1590 C1593 1.403 . S
C1591 C1588 1.403 . S
C1591 C1592 1.524 1_655 S
C1591 C1595 1.400 . S
C1592 H1577 0.960 . S
C1592 H1578 0.960 . S
C1592 H1579 0.960 . S
C1592 C1591 1.524 1_455 S
C1593 C1590 1.403 . S
C1593 C1594 1.392 . S
C1593 C1597 1.495 . S
C1594 C1593 1.392 . S
C1594 C1595 1.385 . S
C1594 C1596 1.478 . S
C1595 H1589 0.930 . S
C1595 C1591 1.400 . S
C1595 C1594 1.385 . S
C1596 C1594 1.478 . S
C1596 C1598 1.381 . S
C1596 C1602 1.383 . S
C1597 C1593 1.495 . S
C1597 H1603 0.938 1_545 S
C1597 H1604 0.961 . S
C1597 H1605 0.960 . S
C1598 C1596 1.381 . S
C1598 C1599 1.394 . S
C1598 H1606 0.930 . S
C1599 C1598 1.394 . S
C1599 C1600 1.383 . S
C1599 H1607 0.929 . S
C1600 C1599 1.383 . S
C1600 C1601 1.377 . S
C1601 H1585 0.930 . S
C1601 C1600 1.377 . S
C1601 C1602 1.379 . S
C1602 H1586 0.931 . S
C1602 C1596 1.383 . S
C1602 C1601 1.379 . S
H1603 C1597 0.938 1_565 S
H1604 C1597 0.961 . S
H1605 C1597 0.960 . S
H1606 C1598 0.930 . S
H1607 C1599 0.929 . S
H1608 C1616 0.929 . S
H1609 C1618 0.930 . S
H1610 C1620 0.930 . S
H1611 C1623 0.929 . S
H1612 C1626 0.930 . S
H1613 C1628 0.960 . S
H1614 C1628 0.960 . S
H1615 C1628 0.960 . S
C1616 H1608 0.929 . S
C1616 C1617 1.377 . S
C1616 C1618 1.384 . S
C1617 C1616 1.377 . S
C1617 C1623 1.390 . S
C1618 H1609 0.930 . S
C1618 C1616 1.384 . S
C1618 C1619 1.372 . S
C1619 C1618 1.372 . S
C1619 C1620 1.400 . S
C1619 C1624 1.490 . S
C1620 H1610 0.930 . S
C1620 C1619 1.400 . S
C1620 C1623 1.386 . S
H1621 C1637 0.930 . S
H1622 C1638 0.931 . S
C1623 H1611 0.929 . S
C1623 C1617 1.390 . S
C1623 C1620 1.386 . S
C1624 C1619 1.490 . S
C1624 C1626 1.395 . S
C1624 C1627 1.403 . S
H1625 C1631 0.930 . S
C1626 H1612 0.930 . S
C1626 C1624 1.395 . S
C1626 C1629 1.403 . S
C1627 C1624 1.403 . S
C1627 C1628 1.524 . S
C1627 C1631 1.400 . S
C1628 H1613 0.960 . S
C1628 H1614 0.960 . S
C1628 H1615 0.960 . S
C1628 C1627 1.524 . S
C1629 C1626 1.403 . S
C1629 C1630 1.392 . S
C1629 C1633 1.495 . S
C1630 C1629 1.392 . S
C1630 C1631 1.385 . S
C1630 C1632 1.478 . S
C1631 H1625 0.930 . S
C1631 C1627 1.400 . S
C1631 C1630 1.385 . S
C1632 C1630 1.478 . S
C1632 C1634 1.381 . S
C1632 C1638 1.383 . S
C1633 C1629 1.495 . S
C1633 H1639 0.959 . S
C1633 H1640 0.961 . S
C1633 H1641 0.960 . S
C1634 C1632 1.381 . S
C1634 C1635 1.394 . S
C1634 H1642 0.930 . S
C1635 C1634 1.394 . S
C1635 C1636 1.383 . S
C1635 H1643 0.929 . S
C1636 C1635 1.383 . S
C1636 C1637 1.377 . S
C1637 H1621 0.930 . S
C1637 C1636 1.377 . S
C1637 C1638 1.379 . S
C1638 H1622 0.931 . S
C1638 C1632 1.383 . S
C1638 C1637 1.379 . S
H1639 C1633 0.959 . S
H1640 C1633 0.961 . S
H1641 C1633 0.960 . S
H1642 C1634 0.930 . S
H1643 C1635 0.929 . S
H1644 C1652 0.929 . S
H1645 C1654 0.918 1_545 S
H1646 C1656 0.930 . S
H1647 C1659 0.929 . S
H1648 C1662 0.930 . S
H1649 C1664 0.960 . S
H1650 C1664 0.960 . S
H1651 C1664 0.960 . S
C1652 H1644 0.929 . S
C1652 C1653 1.377 . S
C1652 C1654 1.384 1_545 S
C1653 C1652 1.377 . S
C1653 C1659 1.390 1_545 S
C1654 H1645 0.918 1_565 S
C1654 C1652 1.384 1_565 S
C1654 C1655 1.372 . S
C1655 C1654 1.372 . S
C1655 C1656 1.400 . S
C1655 C1660 1.490 . S
C1656 H1646 0.930 . S
C1656 C1655 1.400 . S
C1656 C1659 1.386 . S
H1657 C1673 0.930 . S
H1658 C1674 0.931 . S
C1659 H1647 0.929 . S
C1659 C1653 1.390 1_565 S
C1659 C1656 1.386 . S
C1660 C1655 1.490 . S
C1660 C1662 1.395 . S
C1660 C1663 1.403 . S
H1661 C1667 0.930 . S
C1662 H1648 0.930 . S
C1662 C1660 1.395 . S
C1662 C1665 1.403 . S
C1663 C1660 1.403 . S
C1663 C1664 1.524 . S
C1663 C1667 1.400 . S
C1664 H1649 0.960 . S
C1664 H1650 0.960 . S
C1664 H1651 0.960 . S
C1664 C1663 1.524 . S
C1665 C1662 1.403 . S
C1665 C1666 1.392 . S
C1665 C1669 1.495 . S
C1666 C1665 1.392 . S
C1666 C1667 1.385 . S
C1666 C1668 1.478 . S
C1667 H1661 0.930 . S
C1667 C1663 1.400 . S
C1667 C1666 1.385 . S
C1668 C1666 1.478 . S
C1668 C1670 1.381 . S
C1668 C1674 1.383 . S
C1669 C1665 1.495 . S
C1669 H1675 0.910 1_565 S
C1669 H1676 0.961 . S
C1669 H1677 0.960 . S
C1670 C1668 1.381 . S
C1670 C1671 1.394 . S
C1670 H1678 0.930 . S
C1671 C1670 1.394 . S
C1671 C1672 1.383 . S
C1671 H1679 0.929 . S
C1672 C1671 1.383 . S
C1672 C1673 1.377 . S
C1673 H1657 0.930 . S
C1673 C1672 1.377 . S
C1673 C1674 1.379 . S
C1674 H1658 0.931 . S
C1674 C1668 1.383 . S
C1674 C1673 1.379 . S
H1675 C1669 0.910 1_545 S
H1676 C1669 0.961 . S
H1677 C1669 0.960 . S
H1678 C1670 0.930 . S
H1679 C1671 0.929 . S
H1680 C1688 0.929 . S
H1681 C1690 0.930 . S
H1682 C1692 0.930 . S
H1683 C1695 0.929 . S
H1684 C1698 0.930 . S
H1685 C1700 0.960 . S
H1686 C1700 0.960 . S
H1687 C1700 0.960 . S
C1688 H1680 0.929 . S
C1688 C1689 1.377 . S
C1688 C1690 1.384 . S
C1689 C1688 1.377 . S
C1689 C1695 1.390 . S
C1690 H1681 0.930 . S
C1690 C1688 1.384 . S
C1690 C1691 1.372 . S
C1691 C1690 1.372 . S
C1691 C1692 1.400 . S
C1691 C1696 1.490 . S
C1692 H1682 0.930 . S
C1692 C1691 1.400 . S
C1692 C1695 1.386 . S
H1693 C1709 0.930 . S
H1694 C1710 0.931 . S
C1695 H1683 0.929 . S
C1695 C1689 1.390 . S
C1695 C1692 1.386 . S
C1696 C1691 1.490 . S
C1696 C1698 1.395 . S
C1696 C1699 1.403 . S
H1697 C1703 0.930 . S
C1698 H1684 0.930 . S
C1698 C1696 1.395 . S
C1698 C1701 1.403 . S
C1699 C1696 1.403 . S
C1699 C1700 1.524 . S
C1699 C1703 1.400 . S
C1700 H1685 0.960 . S
C1700 H1686 0.960 . S
C1700 H1687 0.960 . S
C1700 C1699 1.524 . S
C1701 C1698 1.403 . S
C1701 C1702 1.392 . S
C1701 C1705 1.495 . S
C1702 C1701 1.392 . S
C1702 C1703 1.385 . S
C1702 C1704 1.478 . S
C1703 H1697 0.930 . S
C1703 C1699 1.400 . S
C1703 C1702 1.385 . S
C1704 C1702 1.478 . S
C1704 C1706 1.381 . S
C1704 C1710 1.383 . S
C1705 C1701 1.495 . S
C1705 H1711 0.959 . S
C1705 H1712 0.961 . S
C1705 H1713 0.960 . S
C1706 C1704 1.381 . S
C1706 C1707 1.394 . S
C1706 H1714 0.930 . S
C1707 C1706 1.394 . S
C1707 C1708 1.383 . S
C1707 H1715 0.929 . S
C1708 C1707 1.383 . S
C1708 C1709 1.377 . S
C1709 H1693 0.930 . S
C1709 C1708 1.377 . S
C1709 C1710 1.379 . S
C1710 H1694 0.931 . S
C1710 C1704 1.383 . S
C1710 C1709 1.379 . S
H1711 C1705 0.959 . S
H1712 C1705 0.961 . S
H1713 C1705 0.960 . S
H1714 C1706 0.930 . S
H1715 C1707 0.929 . S
H1716 C1724 0.929 . S
H1717 C1726 0.930 . S
H1718 C1728 0.930 . S
H1719 C1731 0.929 . S
H1720 C1734 0.930 1_655 S
H1721 C1736 0.960 . S
H1722 C1736 0.960 . S
H1723 C1736 0.960 . S
C1724 H1716 0.929 . S
C1724 C1725 1.377 . S
C1724 C1726 1.384 . S
C1725 C1724 1.377 . S
C1725 C1731 1.390 . S
C1726 H1717 0.930 . S
C1726 C1724 1.384 . S
C1726 C1727 1.372 . S
C1727 C1726 1.372 . S
C1727 C1728 1.400 . S
C1727 C1732 1.490 1_655 S
C1728 H1718 0.930 . S
C1728 C1727 1.400 . S
C1728 C1731 1.386 . S
H1729 C1745 0.930 . S
H1730 C1746 0.931 . S
C1731 H1719 0.929 . S
C1731 C1725 1.390 . S
C1731 C1728 1.386 . S
C1732 C1727 1.490 1_455 S
C1732 C1734 1.395 . S
C1732 C1735 1.403 . S
H1733 C1739 0.930 . S
C1734 H1720 0.930 1_455 S
C1734 C1732 1.395 . S
C1734 C1737 1.403 . S
C1735 C1732 1.403 . S
C1735 C1736 1.524 . S
C1735 C1739 1.400 . S
C1736 H1721 0.960 . S
C1736 H1722 0.960 . S
C1736 H1723 0.960 . S
C1736 C1735 1.524 . S
C1737 C1734 1.403 . S
C1737 C1738 1.392 . S
C1737 C1741 1.495 . S
C1738 C1737 1.392 . S
C1738 C1739 1.385 . S
C1738 C1740 1.478 . S
C1739 H1733 0.930 . S
C1739 C1735 1.400 . S
C1739 C1738 1.385 . S
C1740 C1738 1.478 . S
C1740 C1742 1.381 . S
C1740 C1746 1.383 . S
C1741 C1737 1.495 . S
C1741 H1747 0.959 . S
C1741 H1748 0.961 . S
C1741 H1749 0.960 . S
C1742 C1740 1.381 . S
C1742 C1743 1.394 . S
C1742 H1750 0.930 . S
C1743 C1742 1.394 . S
C1743 C1744 1.383 . S
C1743 H1751 0.929 . S
C1744 C1743 1.383 . S
C1744 C1745 1.377 . S
C1745 H1729 0.930 . S
C1745 C1744 1.377 . S
C1745 C1746 1.379 . S
C1746 H1730 0.931 . S
C1746 C1740 1.383 . S
C1746 C1745 1.379 . S
H1747 C1741 0.959 . S
H1748 C1741 0.961 . S
H1749 C1741 0.960 . S
H1750 C1742 0.930 . S
H1751 C1743 0.929 . S
H1752 C1760 0.929 . S
H1753 C1762 0.930 . S
H1754 C1764 0.930 . S
H1755 C1767 0.929 . S
H1756 C1770 0.930 . S
H1757 C1772 0.960 . S
H1758 C1772 0.960 . S
H1759 C1772 0.960 . S
C1760 H1752 0.929 . S
C1760 C1761 1.377 . S
C1760 C1762 1.384 . S
C1761 C1760 1.377 . S
C1761 C1767 1.390 . S
C1762 H1753 0.930 . S
C1762 C1760 1.384 . S
C1762 C1763 1.372 . S
C1763 C1762 1.372 . S
C1763 C1764 1.400 . S
C1763 C1768 1.490 . S
C1764 H1754 0.930 . S
C1764 C1763 1.400 . S
C1764 C1767 1.386 . S
H1765 C1781 0.930 . S
H1766 C1782 0.931 . S
C1767 H1755 0.929 . S
C1767 C1761 1.390 . S
C1767 C1764 1.386 . S
C1768 C1763 1.490 . S
C1768 C1770 1.395 . S
C1768 C1771 1.403 . S
H1769 C1775 0.930 . S
C1770 H1756 0.930 . S
C1770 C1768 1.395 . S
C1770 C1773 1.403 . S
C1771 C1768 1.403 . S
C1771 C1772 1.524 . S
C1771 C1775 1.400 . S
C1772 H1757 0.960 . S
C1772 H1758 0.960 . S
C1772 H1759 0.960 . S
C1772 C1771 1.524 . S
C1773 C1770 1.403 . S
C1773 C1774 1.392 . S
C1773 C1777 1.495 . S
C1774 C1773 1.392 . S
C1774 C1775 1.385 . S
C1774 C1776 1.478 . S
C1775 H1769 0.930 . S
C1775 C1771 1.400 . S
C1775 C1774 1.385 . S
C1776 C1774 1.478 . S
C1776 C1778 1.381 . S
C1776 C1782 1.383 . S
C1777 C1773 1.495 . S
C1777 H1783 0.959 . S
C1777 H1784 0.961 . S
C1777 H1785 0.960 . S
C1778 C1776 1.381 . S
C1778 C1779 1.394 . S
C1778 H1786 0.930 . S
C1779 C1778 1.394 . S
C1779 C1780 1.383 . S
C1779 H1787 0.929 . S
C1780 C1779 1.383 . S
C1780 C1781 1.377 . S
C1781 H1765 0.930 . S
C1781 C1780 1.377 . S
C1781 C1782 1.379 . S
C1782 H1766 0.931 . S
C1782 C1776 1.383 . S
C1782 C1781 1.379 . S
H1783 C1777 0.959 . S
H1784 C1777 0.961 . S
H1785 C1777 0.960 . S
H1786 C1778 0.930 . S
H1787 C1779 0.929 . S
H1788 C1796 0.929 . S
H1789 C1798 0.930 . S
H1790 C1800 0.930 . S
H1791 C1803 0.929 . S
H1792 C1806 0.930 . S
H1793 C1808 0.960 . S
H1794 C1808 0.960 . S
H1795 C1808 0.960 . S
C1796 H1788 0.929 . S
C1796 C1797 1.377 . S
C1796 C1798 1.384 . S
C1797 C1796 1.377 . S
C1797 C1803 1.390 . S
C1798 H1789 0.930 . S
C1798 C1796 1.384 . S
C1798 C1799 1.372 . S
C1799 C1798 1.372 . S
C1799 C1800 1.400 . S
C1799 C1804 1.490 . S
C1800 H1790 0.930 . S
C1800 C1799 1.400 . S
C1800 C1803 1.386 . S
H1801 C1817 0.930 . S
H1802 C1818 0.931 . S
C1803 H1791 0.929 . S
C1803 C1797 1.390 . S
C1803 C1800 1.386 . S
C1804 C1799 1.490 . S
C1804 C1806 1.395 . S
C1804 C1807 1.403 . S
H1805 C1811 0.930 . S
C1806 H1792 0.930 . S
C1806 C1804 1.395 . S
C1806 C1809 1.403 . S
C1807 C1804 1.403 . S
C1807 C1808 1.524 . S
C1807 C1811 1.400 . S
C1808 H1793 0.960 . S
C1808 H1794 0.960 . S
C1808 H1795 0.960 . S
C1808 C1807 1.524 . S
C1809 C1806 1.403 . S
C1809 C1810 1.392 . S
C1809 C1813 1.495 . S
C1810 C1809 1.392 . S
C1810 C1811 1.385 . S
C1810 C1812 1.478 . S
C1811 H1805 0.930 . S
C1811 C1807 1.400 . S
C1811 C1810 1.385 . S
C1812 C1810 1.478 . S
C1812 C1814 1.381 . S
C1812 C1818 1.383 . S
C1813 C1809 1.495 . S
C1813 H1819 0.959 . S
C1813 H1820 0.961 . S
C1813 H1821 0.960 . S
C1814 C1812 1.381 . S
C1814 C1815 1.394 . S
C1814 H1822 0.930 . S
C1815 C1814 1.394 . S
C1815 C1816 1.383 . S
C1815 H1823 0.929 . S
C1816 C1815 1.383 . S
C1816 C1817 1.377 . S
C1817 H1801 0.930 . S
C1817 C1816 1.377 . S
C1817 C1818 1.379 . S
C1818 H1802 0.931 . S
C1818 C1812 1.383 . S
C1818 C1817 1.379 . S
H1819 C1813 0.959 . S
H1820 C1813 0.961 . S
H1821 C1813 0.960 . S
H1822 C1814 0.930 . S
H1823 C1815 0.929 . S
H1824 C1832 0.929 . S
H1825 C1834 0.930 . S
H1826 C1836 0.930 . S
H1827 C1839 0.929 . S
H1828 C1842 0.930 . S
H1829 C1844 0.960 . S
H1830 C1844 0.960 . S
H1831 C1844 0.960 . S
C1832 H1824 0.929 . S
C1832 C1833 1.377 . S
C1832 C1834 1.384 . S
C1833 C1832 1.377 . S
C1833 C1839 1.390 . S
C1834 H1825 0.930 . S
C1834 C1832 1.384 . S
C1834 C1835 1.372 . S
C1835 C1834 1.372 . S
C1835 C1836 1.400 . S
C1835 C1840 1.490 . S
C1836 H1826 0.930 . S
C1836 C1835 1.400 . S
C1836 C1839 1.386 . S
H1837 C1853 0.930 . S
H1838 C1854 0.931 . S
C1839 H1827 0.929 . S
C1839 C1833 1.390 . S
C1839 C1836 1.386 . S
C1840 C1835 1.490 . S
C1840 C1842 1.395 . S
C1840 C1843 1.403 . S
H1841 C1847 0.930 . S
C1842 H1828 0.930 . S
C1842 C1840 1.395 . S
C1842 C1845 1.403 . S
C1843 C1840 1.403 . S
C1843 C1844 1.524 . S
C1843 C1847 1.400 . S
C1844 H1829 0.960 . S
C1844 H1830 0.960 . S
C1844 H1831 0.960 . S
C1844 C1843 1.524 . S
C1845 C1842 1.403 . S
C1845 C1846 1.392 . S
C1845 C1849 1.495 . S
C1846 C1845 1.392 . S
C1846 C1847 1.385 . S
C1846 C1848 1.478 . S
C1847 H1841 0.930 . S
C1847 C1843 1.400 . S
C1847 C1846 1.385 . S
C1848 C1846 1.478 . S
C1848 C1850 1.381 . S
C1848 C1854 1.383 . S
C1849 C1845 1.495 . S
C1849 H1855 0.959 . S
C1849 H1856 0.961 . S
C1849 H1857 0.960 . S
C1850 C1848 1.381 . S
C1850 C1851 1.394 . S
C1850 H1858 0.930 . S
C1851 C1850 1.394 . S
C1851 C1852 1.383 . S
C1851 H1859 0.929 . S
C1852 C1851 1.383 . S
C1852 C1853 1.377 . S
C1853 H1837 0.930 . S
C1853 C1852 1.377 . S
C1853 C1854 1.379 . S
C1854 H1838 0.931 . S
C1854 C1848 1.383 . S
C1854 C1853 1.379 . S
H1855 C1849 0.959 . S
H1856 C1849 0.961 . S
H1857 C1849 0.960 . S
H1858 C1850 0.930 . S
H1859 C1851 0.929 . S
H1860 C1868 0.929 . S
H1861 C1870 0.930 . S
H1862 C1872 0.930 . S
H1863 C1875 0.929 . S
H1864 C1878 0.930 . S
H1865 C1880 0.960 . S
H1866 C1880 0.960 . S
H1867 C1880 0.960 . S
C1868 H1860 0.929 . S
C1868 C1869 1.377 . S
C1868 C1870 1.384 . S
C1869 C1868 1.377 . S
C1869 C1875 1.390 . S
C1870 H1861 0.930 . S
C1870 C1868 1.384 . S
C1870 C1871 1.372 . S
C1871 C1870 1.372 . S
C1871 C1872 1.400 . S
C1871 C1876 1.490 . S
C1872 H1862 0.930 . S
C1872 C1871 1.400 . S
C1872 C1875 1.386 . S
H1873 C1889 0.930 . S
H1874 C1890 0.931 . S
C1875 H1863 0.929 . S
C1875 C1869 1.390 . S
C1875 C1872 1.386 . S
C1876 C1871 1.490 . S
C1876 C1878 1.395 . S
C1876 C1879 1.403 . S
H1877 C1883 0.930 . S
C1878 H1864 0.930 . S
C1878 C1876 1.395 . S
C1878 C1881 1.403 . S
C1879 C1876 1.403 . S
C1879 C1880 1.524 . S
C1879 C1883 1.400 . S
C1880 H1865 0.960 . S
C1880 H1866 0.960 . S
C1880 H1867 0.960 . S
C1880 C1879 1.524 . S
C1881 C1878 1.403 . S
C1881 C1882 1.392 . S
C1881 C1885 1.495 . S
C1882 C1881 1.392 . S
C1882 C1883 1.385 . S
C1882 C1884 1.478 . S
C1883 H1877 0.930 . S
C1883 C1879 1.400 . S
C1883 C1882 1.385 . S
C1884 C1882 1.478 . S
C1884 C1886 1.381 . S
C1884 C1890 1.383 . S
C1885 C1881 1.495 . S
C1885 H1891 0.959 . S
C1885 H1892 0.961 . S
C1885 H1893 0.960 . S
C1886 C1884 1.381 . S
C1886 C1887 1.394 . S
C1886 H1894 0.930 . S
C1887 C1886 1.394 . S
C1887 C1888 1.383 . S
C1887 H1895 0.929 . S
C1888 C1887 1.383 . S
C1888 C1889 1.377 . S
C1889 H1873 0.930 . S
C1889 C1888 1.377 . S
C1889 C1890 1.379 . S
C1890 H1874 0.931 . S
C1890 C1884 1.383 . S
C1890 C1889 1.379 . S
H1891 C1885 0.959 . S
H1892 C1885 0.961 . S
H1893 C1885 0.960 . S
H1894 C1886 0.930 . S
H1895 C1887 0.929 . S
H1896 C1904 0.929 . S
H1897 C1906 0.930 . S
H1898 C1908 0.930 . S
H1899 C1911 0.929 . S
H1900 C1914 0.930 . S
H1901 C1916 0.960 . S
H1902 C1916 0.960 . S
H1903 C1916 0.960 . S
C1904 H1896 0.929 . S
C1904 C1905 1.377 . S
C1904 C1906 1.384 . S
C1905 C1904 1.377 . S
C1905 C1911 1.390 . S
C1906 H1897 0.930 . S
C1906 C1904 1.384 . S
C1906 C1907 1.372 . S
C1907 C1906 1.372 . S
C1907 C1908 1.400 . S
C1907 C1912 1.490 . S
C1908 H1898 0.930 . S
C1908 C1907 1.400 . S
C1908 C1911 1.386 . S
H1909 C1925 0.930 . S
H1910 C1926 0.931 . S
C1911 H1899 0.929 . S
C1911 C1905 1.390 . S
C1911 C1908 1.386 . S
C1912 C1907 1.490 . S
C1912 C1914 1.395 . S
C1912 C1915 1.403 . S
H1913 C1919 0.930 . S
C1914 H1900 0.930 . S
C1914 C1912 1.395 . S
C1914 C1917 1.403 . S
C1915 C1912 1.403 . S
C1915 C1916 1.524 . S
C1915 C1919 1.400 . S
C1916 H1901 0.960 . S
C1916 H1902 0.960 . S
C1916 H1903 0.960 . S
C1916 C1915 1.524 . S
C1917 C1914 1.403 . S
C1917 C1918 1.392 . S
C1917 C1921 1.495 . S
C1918 C1917 1.392 . S
C1918 C1919 1.385 . S
C1918 C1920 1.478 . S
C1919 H1913 0.930 . S
C1919 C1915 1.400 . S
C1919 C1918 1.385 . S
C1920 C1918 1.478 . S
C1920 C1922 1.381 . S
C1920 C1926 1.383 . S
C1921 C1917 1.495 . S
C1921 H1927 0.959 . S
C1921 H1928 0.961 . S
C1921 H1929 0.960 . S
C1922 C1920 1.381 . S
C1922 C1923 1.394 . S
C1922 H1930 0.930 . S
C1923 C1922 1.394 . S
C1923 C1924 1.383 . S
C1923 H1931 0.929 . S
C1924 C1923 1.383 . S
C1924 C1925 1.377 . S
C1925 H1909 0.930 . S
C1925 C1924 1.377 . S
C1925 C1926 1.379 . S
C1926 H1910 0.931 . S
C1926 C1920 1.383 . S
C1926 C1925 1.379 . S
H1927 C1921 0.959 . S
H1928 C1921 0.961 . S
H1929 C1921 0.960 . S
H1930 C1922 0.930 . S
H1931 C1923 0.929 . S
H1932 C1940 0.929 . S
H1933 C1942 0.930 . S
H1934 C1944 0.930 . S
H1935 C1947 0.929 . S
H1936 C1950 0.930 . S
H1937 C1952 0.960 . S
H1938 C1952 0.960 . S
H1939 C1952 0.960 . S
C1940 H1932 0.929 . S
C1940 C1941 1.377 . S
C1940 C1942 1.384 . S
C1941 C1940 1.377 . S
C1941 C1947 1.390 . S
C1942 H1933 0.930 . S
C1942 C1940 1.384 . S
C1942 C1943 1.372 . S
C1943 C1942 1.372 . S
C1943 C1944 1.400 . S
C1943 C1948 1.490 . S
C1944 H1934 0.930 . S
C1944 C1943 1.400 . S
C1944 C1947 1.386 . S
H1945 C1961 0.930 . S
H1946 C1962 0.931 . S
C1947 H1935 0.929 . S
C1947 C1941 1.390 . S
C1947 C1944 1.386 . S
C1948 C1943 1.490 . S
C1948 C1950 1.395 . S
C1948 C1951 1.403 . S
H1949 C1955 0.930 . S
C1950 H1936 0.930 . S
C1950 C1948 1.395 . S
C1950 C1953 1.403 . S
C1951 C1948 1.403 . S
C1951 C1952 1.524 . S
C1951 C1955 1.400 . S
C1952 H1937 0.960 . S
C1952 H1938 0.960 . S
C1952 H1939 0.960 . S
C1952 C1951 1.524 . S
C1953 C1950 1.403 . S
C1953 C1954 1.392 . S
C1953 C1957 1.495 1_554 S
C1954 C1953 1.392 . S
C1954 C1955 1.385 . S
C1954 C1956 1.478 1_554 S
C1955 H1949 0.930 . S
C1955 C1951 1.400 . S
C1955 C1954 1.385 . S
C1956 C1954 1.478 1_556 S
C1956 C1958 1.381 1_556 S
C1956 C1962 1.383 . S
C1957 C1953 1.495 1_556 S
C1957 H1963 0.959 . S
C1957 H1964 0.961 . S
C1957 H1965 0.960 . S
C1958 C1956 1.381 1_554 S
C1958 C1959 1.394 1_554 S
C1958 H1966 0.930 . S
C1959 C1958 1.394 1_556 S
C1959 C1960 1.383 . S
C1959 H1967 0.929 . S
C1960 C1959 1.383 . S
C1960 C1961 1.377 . S
C1961 H1945 0.930 . S
C1961 C1960 1.377 . S
C1961 C1962 1.379 . S
C1962 H1946 0.931 . S
C1962 C1956 1.383 . S
C1962 C1961 1.379 . S
H1963 C1957 0.959 . S
H1964 C1957 0.961 . S
H1965 C1957 0.960 . S
H1966 C1958 0.930 . S
H1967 C1959 0.929 . S
H1968 C1976 0.929 . S
H1969 C1978 0.930 . S
H1970 C1980 0.930 . S
H1971 C1983 0.929 . S
H1972 C1986 0.930 . S
H1973 C1988 0.961 . S
H1974 C1988 0.960 . S
H1975 C1988 0.960 . S
C1976 H1968 0.929 . S
C1976 C1977 1.377 . S
C1976 C1978 1.384 . S
C1977 C1976 1.377 . S
C1977 C1983 1.390 . S
C1978 H1969 0.930 . S
C1978 C1976 1.384 . S
C1978 C1979 1.366 1_565 S
C1979 C1978 1.366 1_545 S
C1979 C1980 1.393 1_545 S
C1979 C1984 1.502 . S
C1980 H1970 0.930 . S
C1980 C1979 1.393 1_565 S
C1980 C1983 1.386 . S
H1981 C1997 0.930 . S
H1982 C1998 0.931 . S
C1983 H1971 0.929 . S
C1983 C1977 1.390 . S
C1983 C1980 1.386 . S
C1984 C1979 1.502 . S
C1984 C1986 1.395 . S
C1984 C1987 1.403 . S
H1985 C1991 0.930 . S
C1986 H1972 0.930 . S
C1986 C1984 1.395 . S
C1986 C1989 1.403 . S
C1987 C1984 1.403 . S
C1987 C1988 1.524 1_545 S
C1987 C1991 1.400 . S
C1988 H1973 0.961 . S
C1988 H1974 0.960 . S
C1988 H1975 0.960 . S
C1988 C1987 1.524 1_565 S
C1989 C1986 1.403 . S
C1989 C1990 1.392 . S
C1989 C1993 1.495 . S
C1990 C1989 1.392 . S
C1990 C1991 1.385 . S
C1990 C1992 1.478 . S
C1991 H1985 0.930 . S
C1991 C1987 1.400 . S
C1991 C1990 1.385 . S
C1992 C1990 1.478 . S
C1992 C1994 1.381 . S
C1992 C1998 1.383 . S
C1993 C1989 1.495 . S
C1993 H1999 0.959 . S
C1993 H2000 0.961 . S
C1993 H2001 0.960 . S
C1994 C1992 1.381 . S
C1994 C1995 1.394 . S
C1994 H2002 0.930 . S
C1995 C1994 1.394 . S
C1995 C1996 1.383 . S
C1995 H2003 0.929 . S
C1996 C1995 1.383 . S
C1996 C1997 1.377 . S
C1997 H1981 0.930 . S
C1997 C1996 1.377 . S
C1997 C1998 1.379 . S
C1998 H1982 0.931 . S
C1998 C1992 1.383 . S
C1998 C1997 1.379 . S
H1999 C1993 0.959 . S
H2000 C1993 0.961 . S
H2001 C1993 0.960 . S
H2002 C1994 0.930 . S
H2003 C1995 0.929 . S
H2004 C2012 0.929 . S
H2005 C2014 0.930 1_556 S
H2006 C2016 0.930 . S
H2007 C2019 0.929 . S
H2008 C2022 0.930 . S
H2009 C2024 0.960 . S
H2010 C2024 0.960 . S
H2011 C2024 0.960 . S
C2012 H2004 0.929 . S
C2012 C2013 1.377 . S
C2012 C2014 1.384 . S
C2013 C2012 1.377 . S
C2013 C2019 1.390 . S
C2014 H2005 0.930 1_554 S
C2014 C2012 1.384 . S
C2014 C2015 1.372 . S
C2015 C2014 1.372 . S
C2015 C2016 1.397 . S
C2015 C2020 1.493 1_554 S
C2016 H2006 0.930 . S
C2016 C2015 1.397 . S
C2016 C2019 1.386 . S
H2017 C2033 0.930 . S
H2018 C2034 0.931 . S
C2019 H2007 0.929 . S
C2019 C2013 1.390 . S
C2019 C2016 1.386 . S
C2020 C2015 1.493 1_556 S
C2020 C2022 1.395 . S
C2020 C2023 1.403 . S
H2021 C2027 0.930 . S
C2022 H2008 0.930 . S
C2022 C2020 1.395 . S
C2022 C2025 1.403 . S
C2023 C2020 1.403 . S
C2023 C2024 1.524 1_556 S
C2023 C2027 1.400 . S
C2024 H2009 0.960 . S
C2024 H2010 0.960 . S
C2024 H2011 0.960 . S
C2024 C2023 1.524 1_554 S
C2025 C2022 1.403 . S
C2025 C2026 1.392 . S
C2025 C2029 1.495 . S
C2026 C2025 1.392 . S
C2026 C2027 1.385 . S
C2026 C2028 1.478 . S
C2027 H2021 0.930 . S
C2027 C2023 1.400 . S
C2027 C2026 1.385 . S
C2028 C2026 1.478 . S
C2028 C2030 1.381 . S
C2028 C2034 1.383 . S
C2029 C2025 1.495 . S
C2029 H2035 0.959 . S
C2029 H2036 0.961 . S
C2029 H2037 0.960 . S
C2030 C2028 1.381 . S
C2030 C2031 1.394 . S
C2030 H2038 0.930 . S
C2031 C2030 1.394 . S
C2031 C2032 1.383 . S
C2031 H2039 0.929 . S
C2032 C2031 1.383 . S
C2032 C2033 1.377 . S
C2033 H2017 0.930 . S
C2033 C2032 1.377 . S
C2033 C2034 1.379 . S
C2034 H2018 0.931 . S
C2034 C2028 1.383 . S
C2034 C2033 1.379 . S
H2035 C2029 0.959 . S
H2036 C2029 0.961 . S
H2037 C2029 0.960 . S
H2038 C2030 0.930 . S
H2039 C2031 0.929 . S
H2040 C2048 0.929 . S
H2041 C2050 0.930 1_565 S
H2042 C2052 0.930 . S
H2043 C2055 0.929 . S
H2044 C2058 0.930 . S
H2045 C2060 0.960 . S
H2046 C2060 0.960 . S
H2047 C2060 0.960 . S
C2048 H2040 0.929 . S
C2048 C2049 1.377 . S
C2048 C2050 1.384 . S
C2049 C2048 1.377 . S
C2049 C2055 1.390 . S
C2050 H2041 0.930 1_545 S
C2050 C2048 1.384 . S
C2050 C2051 1.367 1_545 S
C2051 C2050 1.367 1_565 S
C2051 C2052 1.375 1_565 S
C2051 C2056 1.519 . S
C2052 H2042 0.930 . S
C2052 C2051 1.375 1_545 S
C2052 C2055 1.386 . S
H2053 C2069 0.930 . S
H2054 C2070 0.931 . S
C2055 H2043 0.929 . S
C2055 C2049 1.390 . S
C2055 C2052 1.386 . S
C2056 C2051 1.519 . S
C2056 C2058 1.395 . S
C2056 C2059 1.403 . S
H2057 C2063 0.930 . S
C2058 H2044 0.930 . S
C2058 C2056 1.395 . S
C2058 C2061 1.403 . S
C2059 C2056 1.403 . S
C2059 C2060 1.524 1_565 S
C2059 C2063 1.400 . S
C2060 H2045 0.960 . S
C2060 H2046 0.960 . S
C2060 H2047 0.960 . S
C2060 C2059 1.524 1_545 S
C2061 C2058 1.403 . S
C2061 C2062 1.392 . S
C2061 C2065 1.495 . S
C2062 C2061 1.392 . S
C2062 C2063 1.385 . S
C2062 C2064 1.478 . S
C2063 H2057 0.930 . S
C2063 C2059 1.400 . S
C2063 C2062 1.385 . S
C2064 C2062 1.478 . S
C2064 C2066 1.381 . S
C2064 C2070 1.383 . S
C2065 C2061 1.495 . S
C2065 H2071 0.959 . S
C2065 H2072 0.961 . S
C2065 H2073 0.960 . S
C2066 C2064 1.381 . S
C2066 C2067 1.394 . S
C2066 H2074 0.930 . S
C2067 C2066 1.394 . S
C2067 C2068 1.383 . S
C2067 H2075 0.929 . S
C2068 C2067 1.383 . S
C2068 C2069 1.377 . S
C2069 H2053 0.930 . S
C2069 C2068 1.377 . S
C2069 C2070 1.379 . S
C2070 H2054 0.931 . S
C2070 C2064 1.383 . S
C2070 C2069 1.379 . S
H2071 C2065 0.959 . S
H2072 C2065 0.961 . S
H2073 C2065 0.960 . S
H2074 C2066 0.930 . S
H2075 C2067 0.929 . S
H2076 C2084 0.929 . S
H2077 C2086 0.930 . S
H2078 C2088 0.930 . S
H2079 C2091 0.929 . S
H2080 C2094 0.930 . S
H2081 C2096 0.960 . S
H2082 C2096 0.960 . S
H2083 C2096 0.960 . S
C2084 H2076 0.929 . S
C2084 C2085 1.377 . S
C2084 C2086 1.384 . S
C2085 C2084 1.377 . S
C2085 C2091 1.390 . S
C2086 H2077 0.930 . S
C2086 C2084 1.384 . S
C2086 C2087 1.372 . S
C2087 C2086 1.372 . S
C2087 C2088 1.400 . S
C2087 C2092 1.490 . S
C2088 H2078 0.930 . S
C2088 C2087 1.400 . S
C2088 C2091 1.386 . S
H2089 C2105 0.930 . S
H2090 C2106 0.931 . S
C2091 H2079 0.929 . S
C2091 C2085 1.390 . S
C2091 C2088 1.386 . S
C2092 C2087 1.490 . S
C2092 C2094 1.395 . S
C2092 C2095 1.403 . S
H2093 C2099 0.930 . S
C2094 H2080 0.930 . S
C2094 C2092 1.395 . S
C2094 C2097 1.403 . S
C2095 C2092 1.403 . S
C2095 C2096 1.524 . S
C2095 C2099 1.400 . S
C2096 H2081 0.960 . S
C2096 H2082 0.960 . S
C2096 H2083 0.960 . S
C2096 C2095 1.524 . S
C2097 C2094 1.403 . S
C2097 C2098 1.392 . S
C2097 C2101 1.495 . S
C2098 C2097 1.392 . S
C2098 C2099 1.385 . S
C2098 C2100 1.478 . S
C2099 H2093 0.930 . S
C2099 C2095 1.400 . S
C2099 C2098 1.385 . S
C2100 C2098 1.478 . S
C2100 C2102 1.381 . S
C2100 C2106 1.383 . S
C2101 C2097 1.495 . S
C2101 H2107 0.959 . S
C2101 H2108 0.961 . S
C2101 H2109 0.960 . S
C2102 C2100 1.381 . S
C2102 C2103 1.394 . S
C2102 H2110 0.930 . S
C2103 C2102 1.394 . S
C2103 C2104 1.383 . S
C2103 H2111 0.929 . S
C2104 C2103 1.383 . S
C2104 C2105 1.377 . S
C2105 H2089 0.930 . S
C2105 C2104 1.377 . S
C2105 C2106 1.379 . S
C2106 H2090 0.931 . S
C2106 C2100 1.383 . S
C2106 C2105 1.379 . S
H2107 C2101 0.959 . S
H2108 C2101 0.961 . S
H2109 C2101 0.960 . S
H2110 C2102 0.930 . S
H2111 C2103 0.929 . S
H2112 C2120 0.929 . S
H2113 C2122 0.930 . S
H2114 C2124 0.930 . S
H2115 C2127 0.929 . S
H2116 C2130 0.930 . S
H2117 C2132 0.960 . S
H2118 C2132 0.960 . S
H2119 C2132 0.960 . S
C2120 H2112 0.929 . S
C2120 C2121 1.377 . S
C2120 C2122 1.384 . S
C2121 C2120 1.377 . S
C2121 C2127 1.390 . S
C2122 H2113 0.930 . S
C2122 C2120 1.384 . S
C2122 C2123 1.372 . S
C2123 C2122 1.372 . S
C2123 C2124 1.400 . S
C2123 C2128 1.490 . S
C2124 H2114 0.930 . S
C2124 C2123 1.400 . S
C2124 C2127 1.386 . S
H2125 C2141 0.930 . S
H2126 C2142 0.931 . S
C2127 H2115 0.929 . S
C2127 C2121 1.390 . S
C2127 C2124 1.386 . S
C2128 C2123 1.490 . S
C2128 C2130 1.395 . S
C2128 C2131 1.403 . S
H2129 C2135 0.930 . S
C2130 H2116 0.930 . S
C2130 C2128 1.395 . S
C2130 C2133 1.403 . S
C2131 C2128 1.403 . S
C2131 C2132 1.524 . S
C2131 C2135 1.400 . S
C2132 H2117 0.960 . S
C2132 H2118 0.960 . S
C2132 H2119 0.960 . S
C2132 C2131 1.524 . S
C2133 C2130 1.403 . S
C2133 C2134 1.392 . S
C2133 C2137 1.495 . S
C2134 C2133 1.392 . S
C2134 C2135 1.385 . S
C2134 C2136 1.478 . S
C2135 H2129 0.930 . S
C2135 C2131 1.400 . S
C2135 C2134 1.385 . S
C2136 C2134 1.478 . S
C2136 C2138 1.381 . S
C2136 C2142 1.383 . S
C2137 C2133 1.495 . S
C2137 H2143 0.959 . S
C2137 H2144 0.961 . S
C2137 H2145 0.960 . S
C2138 C2136 1.381 . S
C2138 C2139 1.394 . S
C2138 H2146 0.930 . S
C2139 C2138 1.394 . S
C2139 C2140 1.383 . S
C2139 H2147 0.929 . S
C2140 C2139 1.383 . S
C2140 C2141 1.377 . S
C2141 H2125 0.930 . S
C2141 C2140 1.377 . S
C2141 C2142 1.379 . S
C2142 H2126 0.931 . S
C2142 C2136 1.383 . S
C2142 C2141 1.379 . S
H2143 C2137 0.959 . S
H2144 C2137 0.961 . S
H2145 C2137 0.960 . S
H2146 C2138 0.930 . S
H2147 C2139 0.929 . S
H2148 C2156 0.929 . S
H2149 C2158 0.930 . S
H2150 C2160 0.930 . S
H2151 C2163 0.929 . S
H2152 C2166 0.930 . S
H2153 C2168 0.960 . S
H2154 C2168 0.960 . S
H2155 C2168 0.960 . S
C2156 H2148 0.929 . S
C2156 C2157 1.377 . S
C2156 C2158 1.384 1_565 S
C2157 C2156 1.377 . S
C2157 C2163 1.390 . S
C2158 H2149 0.930 . S
C2158 C2156 1.384 1_545 S
C2158 C2159 1.381 . S
C2159 C2158 1.381 . S
C2159 C2160 1.368 1_545 S
C2159 C2164 1.512 . S
C2160 H2150 0.930 . S
C2160 C2159 1.368 1_565 S
C2160 C2163 1.386 . S
H2161 C2177 0.930 . S
H2162 C2178 0.931 . S
C2163 H2151 0.929 . S
C2163 C2157 1.390 . S
C2163 C2160 1.386 . S
C2164 C2159 1.512 . S
C2164 C2166 1.395 . S
C2164 C2167 1.403 . S
H2165 C2171 0.930 . S
C2166 H2152 0.930 . S
C2166 C2164 1.395 . S
C2166 C2169 1.403 . S
C2167 C2164 1.403 . S
C2167 C2168 1.524 . S
C2167 C2171 1.400 . S
C2168 H2153 0.960 . S
C2168 H2154 0.960 . S
C2168 H2155 0.960 . S
C2168 C2167 1.524 . S
C2169 C2166 1.403 . S
C2169 C2170 1.392 . S
C2169 C2173 1.495 . S
C2170 C2169 1.392 . S
C2170 C2171 1.385 . S
C2170 C2172 1.478 . S
C2171 H2165 0.930 . S
C2171 C2167 1.400 . S
C2171 C2170 1.385 . S
C2172 C2170 1.478 . S
C2172 C2174 1.381 . S
C2172 C2178 1.383 . S
C2173 C2169 1.495 . S
C2173 H2179 0.959 . S
C2173 H2180 0.961 . S
C2173 H2181 0.960 . S
C2174 C2172 1.381 . S
C2174 C2175 1.394 . S
C2174 H2182 0.930 . S
C2175 C2174 1.394 . S
C2175 C2176 1.383 . S
C2175 H2183 0.929 . S
C2176 C2175 1.383 . S
C2176 C2177 1.377 . S
C2177 H2161 0.930 . S
C2177 C2176 1.377 . S
C2177 C2178 1.379 . S
C2178 H2162 0.931 . S
C2178 C2172 1.383 . S
C2178 C2177 1.379 . S
H2179 C2173 0.959 . S
H2180 C2173 0.961 . S
H2181 C2173 0.960 . S
H2182 C2174 0.930 . S
H2183 C2175 0.929 . S
H2184 C2192 0.929 . S
H2185 C2194 0.930 . S
H2186 C2196 0.930 . S
H2187 C2199 0.929 . S
H2188 C2202 0.930 . S
H2189 C2204 0.960 . S
H2190 C2204 0.960 . S
H2191 C2204 0.960 . S
C2192 H2184 0.929 . S
C2192 C2193 1.377 . S
C2192 C2194 1.384 . S
C2193 C2192 1.377 . S
C2193 C2199 1.390 . S
C2194 H2185 0.930 . S
C2194 C2192 1.384 . S
C2194 C2195 1.372 . S
C2195 C2194 1.372 . S
C2195 C2196 1.400 . S
C2195 C2200 1.490 . S
C2196 H2186 0.930 . S
C2196 C2195 1.400 . S
C2196 C2199 1.386 . S
H2197 C2213 0.930 . S
H2198 C2214 0.931 . S
C2199 H2187 0.929 . S
C2199 C2193 1.390 . S
C2199 C2196 1.386 . S
C2200 C2195 1.490 . S
C2200 C2202 1.395 . S
C2200 C2203 1.403 . S
H2201 C2207 0.930 . S
C2202 H2188 0.930 . S
C2202 C2200 1.395 . S
C2202 C2205 1.403 . S
C2203 C2200 1.403 . S
C2203 C2204 1.524 . S
C2203 C2207 1.400 . S
C2204 H2189 0.960 . S
C2204 H2190 0.960 . S
C2204 H2191 0.960 . S
C2204 C2203 1.524 . S
C2205 C2202 1.403 . S
C2205 C2206 1.392 . S
C2205 C2209 1.495 . S
C2206 C2205 1.392 . S
C2206 C2207 1.385 . S
C2206 C2208 1.478 1_556 S
C2207 H2201 0.930 . S
C2207 C2203 1.400 . S
C2207 C2206 1.385 . S
C2208 C2206 1.478 1_554 S
C2208 C2210 1.381 . S
C2208 C2214 1.383 1_554 S
C2209 C2205 1.495 . S
C2209 H2215 0.959 . S
C2209 H2216 0.961 . S
C2209 H2217 0.960 1_556 S
C2210 C2208 1.381 . S
C2210 C2211 1.394 . S
C2210 H2218 0.930 . S
C2211 C2210 1.394 . S
C2211 C2212 1.383 . S
C2211 H2219 0.929 . S
C2212 C2211 1.383 . S
C2212 C2213 1.377 . S
C2213 H2197 0.930 . S
C2213 C2212 1.377 . S
C2213 C2214 1.379 1_554 S
C2214 H2198 0.931 . S
C2214 C2208 1.383 1_556 S
C2214 C2213 1.379 1_556 S
H2215 C2209 0.959 . S
H2216 C2209 0.961 . S
H2217 C2209 0.960 1_554 S
H2218 C2210 0.930 . S
H2219 C2211 0.929 . S
H2220 C2228 0.929 . S
H2221 C2230 0.930 . S
H2222 C2232 0.930 . S
H2223 C2235 0.929 . S
H2224 C2238 0.930 . S
H2225 C2240 0.960 1_545 S
H2226 C2240 0.960 . S
H2227 C2240 0.960 . S
C2228 H2220 0.929 . S
C2228 C2229 1.377 . S
C2228 C2230 1.384 . S
C2229 C2228 1.377 . S
C2229 C2235 1.390 . S
C2230 H2221 0.930 . S
C2230 C2228 1.384 . S
C2230 C2231 1.372 . S
C2231 C2230 1.372 . S
C2231 C2232 1.400 . S
C2231 C2236 1.490 . S
C2232 H2222 0.930 . S
C2232 C2231 1.400 . S
C2232 C2235 1.386 . S
H2233 C2249 0.930 . S
H2234 C2250 0.931 . S
C2235 H2223 0.929 . S
C2235 C2229 1.390 . S
C2235 C2232 1.386 . S
C2236 C2231 1.490 . S
C2236 C2238 1.395 . S
C2236 C2239 1.403 . S
H2237 C2243 0.930 1_545 S
C2238 H2224 0.930 . S
C2238 C2236 1.395 . S
C2238 C2241 1.403 . S
C2239 C2236 1.403 . S
C2239 C2240 1.524 . S
C2239 C2243 1.400 . S
C2240 H2225 0.960 1_565 S
C2240 H2226 0.960 . S
C2240 H2227 0.960 . S
C2240 C2239 1.524 . S
C2241 C2238 1.403 . S
C2241 C2242 1.392 . S
C2241 C2245 1.495 . S
C2242 C2241 1.392 . S
C2242 C2243 1.385 . S
C2242 C2244 1.478 . S
C2243 H2237 0.930 1_565 S
C2243 C2239 1.400 . S
C2243 C2242 1.385 . S
C2244 C2242 1.478 . S
C2244 C2246 1.381 . S
C2244 C2250 1.383 1_565 S
C2245 C2241 1.495 . S
C2245 H2251 0.959 . S
C2245 H2252 0.961 . S
C2245 H2253 0.960 . S
C2246 C2244 1.381 . S
C2246 C2247 1.394 1_565 S
C2246 H2254 0.930 . S
C2247 C2246 1.394 1_545 S
C2247 C2248 1.383 . S
C2247 H2255 0.929 . S
C2248 C2247 1.383 . S
C2248 C2249 1.377 . S
C2249 H2233 0.930 . S
C2249 C2248 1.377 . S
C2249 C2250 1.379 . S
C2250 H2234 0.931 . S
C2250 C2244 1.383 1_545 S
C2250 C2249 1.379 . S
H2251 C2245 0.959 . S
H2252 C2245 0.961 . S
H2253 C2245 0.960 . S
H2254 C2246 0.930 . S
H2255 C2247 0.929 . S
H2256 C2264 0.929 . S
H2257 C2266 0.930 . S
H2258 C2268 0.930 . S
H2259 C2271 0.929 . S
H2260 C2274 0.930 . S
H2261 C2276 0.960 . S
H2262 C2276 0.960 . S
H2263 C2276 0.960 . S
C2264 H2256 0.929 . S
C2264 C2265 1.377 . S
C2264 C2266 1.384 . S
C2265 C2264 1.377 . S
C2265 C2271 1.390 . S
C2266 H2257 0.930 . S
C2266 C2264 1.384 . S
C2266 C2267 1.372 . S
C2267 C2266 1.372 . S
C2267 C2268 1.400 . S
C2267 C2272 1.490 . S
C2268 H2258 0.930 . S
C2268 C2267 1.400 . S
C2268 C2271 1.386 . S
H2269 C2285 0.930 . S
H2270 C2286 0.931 . S
C2271 H2259 0.929 . S
C2271 C2265 1.390 . S
C2271 C2268 1.386 . S
C2272 C2267 1.490 . S
C2272 C2274 1.395 . S
C2272 C2275 1.403 . S
H2273 C2279 0.930 . S
C2274 H2260 0.930 . S
C2274 C2272 1.395 . S
C2274 C2277 1.403 . S
C2275 C2272 1.403 . S
C2275 C2276 1.524 . S
C2275 C2279 1.400 . S
C2276 H2261 0.960 . S
C2276 H2262 0.960 . S
C2276 H2263 0.960 . S
C2276 C2275 1.524 . S
C2277 C2274 1.403 . S
C2277 C2278 1.392 . S
C2277 C2281 1.495 . S
C2278 C2277 1.392 . S
C2278 C2279 1.385 . S
C2278 C2280 1.478 . S
C2279 H2273 0.930 . S
C2279 C2275 1.400 . S
C2279 C2278 1.385 . S
C2280 C2278 1.478 . S
C2280 C2282 1.381 . S
C2280 C2286 1.383 . S
C2281 C2277 1.495 . S
C2281 H2287 0.959 . S
C2281 H2288 0.961 . S
C2281 H2289 0.960 . S
C2282 C2280 1.381 . S
C2282 C2283 1.394 . S
C2282 H2290 0.930 . S
C2283 C2282 1.394 . S
C2283 C2284 1.383 . S
C2283 H2291 0.929 . S
C2284 C2283 1.383 . S
C2284 C2285 1.377 . S
C2285 H2269 0.930 . S
C2285 C2284 1.377 . S
C2285 C2286 1.379 . S
C2286 H2270 0.931 . S
C2286 C2280 1.383 . S
C2286 C2285 1.379 . S
H2287 C2281 0.959 . S
H2288 C2281 0.961 . S
H2289 C2281 0.960 . S
H2290 C2282 0.930 . S
H2291 C2283 0.929 . S
H2292 C2300 0.929 . S
H2293 C2302 0.930 . S
H2294 C2304 0.930 . S
H2295 C2307 0.929 . S
H2296 C2310 0.930 . S
H2297 C2312 0.960 . S
H2298 C2312 0.960 . S
H2299 C2312 0.960 . S
C2300 H2292 0.929 . S
C2300 C2301 1.377 . S
C2300 C2302 1.384 . S
C2301 C2300 1.377 . S
C2301 C2307 1.390 . S
C2302 H2293 0.930 . S
C2302 C2300 1.384 . S
C2302 C2303 1.372 . S
C2303 C2302 1.372 . S
C2303 C2304 1.400 . S
C2303 C2308 1.490 . S
C2304 H2294 0.930 . S
C2304 C2303 1.400 . S
C2304 C2307 1.386 . S
H2305 C2321 0.930 . S
H2306 C2322 0.931 . S
C2307 H2295 0.929 . S
C2307 C2301 1.390 . S
C2307 C2304 1.386 . S
C2308 C2303 1.490 . S
C2308 C2310 1.395 . S
C2308 C2311 1.403 . S
H2309 C2315 0.930 . S
C2310 H2296 0.930 . S
C2310 C2308 1.395 . S
C2310 C2313 1.403 . S
C2311 C2308 1.403 . S
C2311 C2312 1.524 . S
C2311 C2315 1.400 . S
C2312 H2297 0.960 . S
C2312 H2298 0.960 . S
C2312 H2299 0.960 . S
C2312 C2311 1.524 . S
C2313 C2310 1.403 . S
C2313 C2314 1.392 . S
C2313 C2317 1.495 . S
C2314 C2313 1.392 . S
C2314 C2315 1.385 . S
C2314 C2316 1.478 . S
C2315 H2309 0.930 . S
C2315 C2311 1.400 . S
C2315 C2314 1.385 . S
C2316 C2314 1.478 . S
C2316 C2318 1.381 . S
C2316 C2322 1.383 . S
C2317 C2313 1.495 . S
C2317 H2323 0.959 . S
C2317 H2324 0.961 . S
C2317 H2325 0.960 . S
C2318 C2316 1.381 . S
C2318 C2319 1.394 . S
C2318 H2326 0.930 . S
C2319 C2318 1.394 . S
C2319 C2320 1.383 . S
C2319 H2327 0.929 . S
C2320 C2319 1.383 . S
C2320 C2321 1.377 . S
C2321 H2305 0.930 . S
C2321 C2320 1.377 . S
C2321 C2322 1.379 . S
C2322 H2306 0.931 . S
C2322 C2316 1.383 . S
C2322 C2321 1.379 . S
H2323 C2317 0.959 . S
H2324 C2317 0.961 . S
H2325 C2317 0.960 . S
H2326 C2318 0.930 . S
H2327 C2319 0.929 . S
H2328 C2336 0.929 . S
H2329 C2338 0.930 . S
H2330 C2340 0.930 . S
H2331 C2343 0.929 . S
H2332 C2346 0.930 . S
H2333 C2348 0.960 . S
H2334 C2348 0.960 . S
H2335 C2348 0.960 . S
C2336 H2328 0.929 . S
C2336 C2337 1.377 . S
C2336 C2338 1.384 . S
C2337 C2336 1.377 . S
C2337 C2343 1.390 . S
C2338 H2329 0.930 . S
C2338 C2336 1.384 . S
C2338 C2339 1.372 . S
C2339 C2338 1.372 . S
C2339 C2340 1.400 . S
C2339 C2344 1.490 . S
C2340 H2330 0.930 . S
C2340 C2339 1.400 . S
C2340 C2343 1.386 . S
H2341 C2357 0.930 . S
H2342 C2358 0.931 . S
C2343 H2331 0.929 . S
C2343 C2337 1.390 . S
C2343 C2340 1.386 . S
C2344 C2339 1.490 . S
C2344 C2346 1.395 . S
C2344 C2347 1.403 . S
H2345 C2351 0.930 . S
C2346 H2332 0.930 . S
C2346 C2344 1.395 . S
C2346 C2349 1.403 . S
C2347 C2344 1.403 . S
C2347 C2348 1.524 . S
C2347 C2351 1.400 . S
C2348 H2333 0.960 . S
C2348 H2334 0.960 . S
C2348 H2335 0.960 . S
C2348 C2347 1.524 . S
C2349 C2346 1.403 . S
C2349 C2350 1.392 . S
C2349 C2353 1.495 . S
C2350 C2349 1.392 . S
C2350 C2351 1.385 . S
C2350 C2352 1.461 1_554 S
C2351 H2345 0.930 . S
C2351 C2347 1.400 . S
C2351 C2350 1.385 . S
C2352 C2350 1.461 1_556 S
C2352 C2354 1.381 1_556 S
C2352 C2358 1.399 . S
C2353 C2349 1.495 . S
C2353 H2359 0.959 . S
C2353 H2360 0.948 1_554 S
C2353 H2361 0.960 . S
C2354 C2352 1.381 1_554 S
C2354 C2355 1.392 1_554 S
C2354 H2362 0.933 . S
C2355 C2354 1.392 1_556 S
C2355 C2356 1.383 . S
C2355 H2363 0.929 . S
C2356 C2355 1.383 . S
C2356 C2357 1.377 . S
C2357 H2341 0.930 . S
C2357 C2356 1.377 . S
C2357 C2358 1.379 . S
C2358 H2342 0.931 . S
C2358 C2352 1.399 . S
C2358 C2357 1.379 . S
H2359 C2353 0.959 . S
H2360 C2353 0.948 1_556 S
H2361 C2353 0.960 . S
H2362 C2354 0.933 . S
H2363 C2355 0.929 . S
H2364 C2372 0.929 . S
H2365 C2374 0.930 . S
H2366 C2376 0.930 . S
H2367 C2379 0.929 . S
H2368 C2382 0.930 . S
H2369 C2384 0.960 . S
H2370 C2384 0.960 . S
H2371 C2384 0.960 . S
C2372 H2364 0.929 . S
C2372 C2373 1.377 . S
C2372 C2374 1.384 . S
C2373 C2372 1.377 . S
C2373 C2379 1.390 . S
C2374 H2365 0.930 . S
C2374 C2372 1.384 . S
C2374 C2375 1.372 . S
C2375 C2374 1.372 . S
C2375 C2376 1.400 . S
C2375 C2380 1.490 . S
C2376 H2366 0.930 . S
C2376 C2375 1.400 . S
C2376 C2379 1.386 . S
H2377 C2393 0.930 . S
H2378 C2394 0.931 . S
C2379 H2367 0.929 . S
C2379 C2373 1.390 . S
C2379 C2376 1.386 . S
C2380 C2375 1.490 . S
C2380 C2382 1.395 . S
C2380 C2383 1.403 . S
H2381 C2387 0.930 . S
C2382 H2368 0.930 . S
C2382 C2380 1.395 . S
C2382 C2385 1.403 . S
C2383 C2380 1.403 . S
C2383 C2384 1.524 . S
C2383 C2387 1.400 . S
C2384 H2369 0.960 . S
C2384 H2370 0.960 . S
C2384 H2371 0.960 . S
C2384 C2383 1.524 . S
C2385 C2382 1.403 . S
C2385 C2386 1.392 . S
C2385 C2389 1.495 . S
C2386 C2385 1.392 . S
C2386 C2387 1.385 . S
C2386 C2388 1.478 . S
C2387 H2381 0.930 . S
C2387 C2383 1.400 . S
C2387 C2386 1.385 . S
C2388 C2386 1.478 . S
C2388 C2390 1.381 . S
C2388 C2394 1.383 . S
C2389 C2385 1.495 . S
C2389 H2395 0.959 . S
C2389 H2396 0.961 . S
C2389 H2397 0.960 . S
C2390 C2388 1.381 . S
C2390 C2391 1.394 . S
C2390 H2398 0.930 . S
C2391 C2390 1.394 . S
C2391 C2392 1.383 . S
C2391 H2399 0.929 . S
C2392 C2391 1.383 . S
C2392 C2393 1.377 . S
C2393 H2377 0.930 . S
C2393 C2392 1.377 . S
C2393 C2394 1.379 . S
C2394 H2378 0.931 . S
C2394 C2388 1.383 . S
C2394 C2393 1.379 . S
H2395 C2389 0.959 . S
H2396 C2389 0.961 . S
H2397 C2389 0.960 . S
H2398 C2390 0.930 . S
H2399 C2391 0.929 . S
H2400 C2408 0.929 . S
H2401 C2410 0.930 . S
H2402 C2412 0.930 . S
H2403 C2415 0.929 . S
H2404 C2418 0.930 . S
H2405 C2420 0.960 . S
H2406 C2420 0.960 . S
H2407 C2420 0.960 . S
C2408 H2400 0.929 . S
C2408 C2409 1.377 . S
C2408 C2410 1.384 . S
C2409 C2408 1.377 . S
C2409 C2415 1.390 . S
C2410 H2401 0.930 . S
C2410 C2408 1.384 . S
C2410 C2411 1.372 . S
C2411 C2410 1.372 . S
C2411 C2412 1.400 . S
C2411 C2416 1.490 . S
C2412 H2402 0.930 . S
C2412 C2411 1.400 . S
C2412 C2415 1.386 . S
H2413 C2429 0.930 . S
H2414 C2430 0.931 . S
C2415 H2403 0.929 . S
C2415 C2409 1.390 . S
C2415 C2412 1.386 . S
C2416 C2411 1.490 . S
C2416 C2418 1.395 . S
C2416 C2419 1.403 . S
H2417 C2423 0.930 . S
C2418 H2404 0.930 . S
C2418 C2416 1.395 . S
C2418 C2421 1.403 . S
C2419 C2416 1.403 . S
C2419 C2420 1.524 . S
C2419 C2423 1.400 . S
C2420 H2405 0.960 . S
C2420 H2406 0.960 . S
C2420 H2407 0.960 . S
C2420 C2419 1.524 . S
C2421 C2418 1.403 . S
C2421 C2422 1.392 . S
C2421 C2425 1.495 . S
C2422 C2421 1.392 . S
C2422 C2423 1.385 . S
C2422 C2424 1.478 . S
C2423 H2417 0.930 . S
C2423 C2419 1.400 . S
C2423 C2422 1.385 . S
C2424 C2422 1.478 . S
C2424 C2426 1.381 . S
C2424 C2430 1.383 . S
C2425 C2421 1.495 . S
C2425 H2431 0.959 . S
C2425 H2432 0.961 . S
C2425 H2433 0.960 . S
C2426 C2424 1.381 . S
C2426 C2427 1.394 . S
C2426 H2434 0.930 . S
C2427 C2426 1.394 . S
C2427 C2428 1.383 . S
C2427 H2435 0.929 . S
C2428 C2427 1.383 . S
C2428 C2429 1.377 . S
C2429 H2413 0.930 . S
C2429 C2428 1.377 . S
C2429 C2430 1.379 . S
C2430 H2414 0.931 . S
C2430 C2424 1.383 . S
C2430 C2429 1.379 . S
H2431 C2425 0.959 . S
H2432 C2425 0.961 . S
H2433 C2425 0.960 . S
H2434 C2426 0.930 . S
H2435 C2427 0.929 . S
H2436 C2444 0.929 . S
H2437 C2446 0.930 . S
H2438 C2448 0.930 . S
H2439 C2451 0.929 . S
H2440 C2454 0.930 . S
H2441 C2456 0.960 . S
H2442 C2456 0.960 . S
H2443 C2456 0.960 . S
C2444 H2436 0.929 . S
C2444 C2445 1.377 . S
C2444 C2446 1.384 . S
C2445 C2444 1.377 . S
C2445 C2451 1.390 . S
C2446 H2437 0.930 . S
C2446 C2444 1.384 . S
C2446 C2447 1.381 . S
C2447 C2446 1.381 . S
C2447 C2448 1.399 1_455 S
C2447 C2452 1.481 1_455 S
C2448 H2438 0.930 . S
C2448 C2447 1.399 1_655 S
C2448 C2451 1.386 1_655 S
H2449 C2465 0.930 . S
H2450 C2466 0.931 . S
C2451 H2439 0.929 . S
C2451 C2445 1.390 . S
C2451 C2448 1.386 1_455 S
C2452 C2447 1.481 1_655 S
C2452 C2454 1.395 . S
C2452 C2455 1.403 . S
H2453 C2459 0.930 . S
C2454 H2440 0.930 . S
C2454 C2452 1.395 . S
C2454 C2457 1.403 . S
C2455 C2452 1.403 . S
C2455 C2456 1.524 . S
C2455 C2459 1.400 . S
C2456 H2441 0.960 . S
C2456 H2442 0.960 . S
C2456 H2443 0.960 . S
C2456 C2455 1.524 . S
C2457 C2454 1.403 . S
C2457 C2458 1.392 . S
C2457 C2461 1.495 . S
C2458 C2457 1.392 . S
C2458 C2459 1.385 . S
C2458 C2460 1.478 . S
C2459 H2453 0.930 . S
C2459 C2455 1.400 . S
C2459 C2458 1.385 . S
C2460 C2458 1.478 . S
C2460 C2462 1.381 . S
C2460 C2466 1.383 . S
C2461 C2457 1.495 . S
C2461 H2467 0.959 . S
C2461 H2468 0.961 . S
C2461 H2469 0.960 . S
C2462 C2460 1.381 . S
C2462 C2463 1.394 . S
C2462 H2470 0.930 . S
C2463 C2462 1.394 . S
C2463 C2464 1.383 . S
C2463 H2471 0.929 . S
C2464 C2463 1.383 . S
C2464 C2465 1.377 . S
C2465 H2449 0.930 . S
C2465 C2464 1.377 . S
C2465 C2466 1.379 . S
C2466 H2450 0.931 . S
C2466 C2460 1.383 . S
C2466 C2465 1.379 . S
H2467 C2461 0.959 . S
H2468 C2461 0.961 . S
H2469 C2461 0.960 . S
H2470 C2462 0.930 . S
H2471 C2463 0.929 . S
H2472 C2480 0.929 . S
H2473 C2482 0.930 1_455 S
H2474 C2484 0.930 . S
H2475 C2487 0.929 . S
H2476 C2490 0.930 . S
H2477 C2492 0.960 . S
H2478 C2492 0.960 . S
H2479 C2492 0.960 . S
C2480 H2472 0.929 . S
C2480 C2481 1.377 . S
C2480 C2482 1.384 . S
C2481 C2480 1.377 . S
C2481 C2487 1.390 . S
C2482 H2473 0.930 1_655 S
C2482 C2480 1.384 . S
C2482 C2483 1.372 . S
C2483 C2482 1.372 . S
C2483 C2484 1.397 . S
C2483 C2488 1.493 1_655 S
C2484 H2474 0.930 . S
C2484 C2483 1.397 . S
C2484 C2487 1.386 . S
H2485 C2501 0.930 . S
H2486 C2502 0.931 . S
C2487 H2475 0.929 . S
C2487 C2481 1.390 . S
C2487 C2484 1.386 . S
C2488 C2483 1.493 1_455 S
C2488 C2490 1.395 . S
C2488 C2491 1.403 . S
H2489 C2495 0.930 . S
C2490 H2476 0.930 . S
C2490 C2488 1.395 . S
C2490 C2493 1.403 . S
C2491 C2488 1.403 . S
C2491 C2492 1.524 1_455 S
C2491 C2495 1.400 . S
C2492 H2477 0.960 . S
C2492 H2478 0.960 . S
C2492 H2479 0.960 . S
C2492 C2491 1.524 1_655 S
C2493 C2490 1.403 . S
C2493 C2494 1.392 . S
C2493 C2497 1.495 . S
C2494 C2493 1.392 . S
C2494 C2495 1.385 . S
C2494 C2496 1.478 . S
C2495 H2489 0.930 . S
C2495 C2491 1.400 . S
C2495 C2494 1.385 . S
C2496 C2494 1.478 . S
C2496 C2498 1.381 . S
C2496 C2502 1.383 . S
C2497 C2493 1.495 . S
C2497 H2503 0.959 . S
C2497 H2504 0.961 . S
C2497 H2505 0.960 . S
C2498 C2496 1.381 . S
C2498 C2499 1.394 . S
C2498 H2506 0.930 . S
C2499 C2498 1.394 . S
C2499 C2500 1.383 . S
C2499 H2507 0.929 . S
C2500 C2499 1.383 . S
C2500 C2501 1.377 . S
C2501 H2485 0.930 . S
C2501 C2500 1.377 . S
C2501 C2502 1.379 . S
C2502 H2486 0.931 . S
C2502 C2496 1.383 . S
C2502 C2501 1.379 . S
H2503 C2497 0.959 . S
H2504 C2497 0.961 . S
H2505 C2497 0.960 . S
H2506 C2498 0.930 . S
H2507 C2499 0.929 . S
H2508 C2516 0.929 . S
H2509 C2518 0.930 . S
H2510 C2520 0.930 . S
H2511 C2523 0.929 . S
H2512 C2526 0.930 . S
H2513 C2528 0.960 . S
H2514 C2528 0.960 . S
H2515 C2528 0.960 . S
C2516 H2508 0.929 . S
C2516 C2517 1.377 . S
C2516 C2518 1.384 . S
C2517 C2516 1.377 . S
C2517 C2523 1.390 . S
C2518 H2509 0.930 . S
C2518 C2516 1.384 . S
C2518 C2519 1.372 . S
C2519 C2518 1.372 . S
C2519 C2520 1.400 . S
C2519 C2524 1.490 . S
C2520 H2510 0.930 . S
C2520 C2519 1.400 . S
C2520 C2523 1.386 . S
H2521 C2537 0.930 . S
H2522 C2538 0.931 . S
C2523 H2511 0.929 . S
C2523 C2517 1.390 . S
C2523 C2520 1.386 . S
C2524 C2519 1.490 . S
C2524 C2526 1.395 . S
C2524 C2527 1.403 . S
H2525 C2531 0.930 . S
C2526 H2512 0.930 . S
C2526 C2524 1.395 . S
C2526 C2529 1.403 . S
C2527 C2524 1.403 . S
C2527 C2528 1.524 . S
C2527 C2531 1.400 . S
C2528 H2513 0.960 . S
C2528 H2514 0.960 . S
C2528 H2515 0.960 . S
C2528 C2527 1.524 . S
C2529 C2526 1.403 . S
C2529 C2530 1.392 . S
C2529 C2533 1.495 . S
C2530 C2529 1.392 . S
C2530 C2531 1.385 . S
C2530 C2532 1.478 . S
C2531 H2525 0.930 . S
C2531 C2527 1.400 . S
C2531 C2530 1.385 . S
C2532 C2530 1.478 . S
C2532 C2534 1.381 . S
C2532 C2538 1.383 . S
C2533 C2529 1.495 . S
C2533 H2539 0.959 . S
C2533 H2540 0.961 . S
C2533 H2541 0.960 . S
C2534 C2532 1.381 . S
C2534 C2535 1.394 . S
C2534 H2542 0.930 . S
C2535 C2534 1.394 . S
C2535 C2536 1.383 . S
C2535 H2543 0.929 . S
C2536 C2535 1.383 . S
C2536 C2537 1.377 . S
C2537 H2521 0.930 . S
C2537 C2536 1.377 . S
C2537 C2538 1.379 . S
C2538 H2522 0.931 . S
C2538 C2532 1.383 . S
C2538 C2537 1.379 . S
H2539 C2533 0.959 . S
H2540 C2533 0.961 . S
H2541 C2533 0.960 . S
H2542 C2534 0.930 . S
H2543 C2535 0.929 . S
H2544 C2552 0.929 . S
H2545 C2554 0.930 . S
H2546 C2556 0.930 . S
H2547 C2559 0.929 . S
H2548 C2562 0.930 . S
H2549 C2564 0.960 . S
H2550 C2564 0.960 . S
H2551 C2564 0.960 . S
C2552 H2544 0.929 . S
C2552 C2553 1.377 . S
C2552 C2554 1.384 . S
C2553 C2552 1.377 . S
C2553 C2559 1.390 . S
C2554 H2545 0.930 . S
C2554 C2552 1.384 . S
C2554 C2555 1.372 . S
C2555 C2554 1.372 . S
C2555 C2556 1.400 . S
C2555 C2560 1.490 . S
C2556 H2546 0.930 . S
C2556 C2555 1.400 . S
C2556 C2559 1.386 . S
H2557 C2573 0.930 . S
H2558 C2574 0.931 . S
C2559 H2547 0.929 . S
C2559 C2553 1.390 . S
C2559 C2556 1.386 . S
C2560 C2555 1.490 . S
C2560 C2562 1.395 . S
C2560 C2563 1.403 . S
H2561 C2567 0.930 . S
C2562 H2548 0.930 . S
C2562 C2560 1.395 . S
C2562 C2565 1.403 . S
C2563 C2560 1.403 . S
C2563 C2564 1.524 . S
C2563 C2567 1.400 . S
C2564 H2549 0.960 . S
C2564 H2550 0.960 . S
C2564 H2551 0.960 . S
C2564 C2563 1.524 . S
C2565 C2562 1.403 . S
C2565 C2566 1.392 . S
C2565 C2569 1.495 . S
C2566 C2565 1.392 . S
C2566 C2567 1.385 . S
C2566 C2568 1.478 . S
C2567 H2561 0.930 . S
C2567 C2563 1.400 . S
C2567 C2566 1.385 . S
C2568 C2566 1.478 . S
C2568 C2570 1.381 . S
C2568 C2574 1.383 . S
C2569 C2565 1.495 . S
C2569 H2575 0.959 . S
C2569 H2576 0.961 . S
C2569 H2577 0.960 . S
C2570 C2568 1.381 . S
C2570 C2571 1.394 . S
C2570 H2578 0.930 . S
C2571 C2570 1.394 . S
C2571 C2572 1.383 . S
C2571 H2579 0.929 . S
C2572 C2571 1.383 . S
C2572 C2573 1.377 . S
C2573 H2557 0.930 . S
C2573 C2572 1.377 . S
C2573 C2574 1.379 . S
C2574 H2558 0.931 . S
C2574 C2568 1.383 . S
C2574 C2573 1.379 . S
H2575 C2569 0.959 . S
H2576 C2569 0.961 . S
H2577 C2569 0.960 . S
H2578 C2570 0.930 . S
H2579 C2571 0.929 . S
H2580 C2588 0.929 . S
H2581 C2590 0.930 . S
H2582 C2592 0.969 . S
H2583 C2595 0.929 . S
H2584 C2598 0.940 . S
H2585 C2600 0.960 . S
H2586 C2600 0.960 . S
H2587 C2600 0.960 . S
C2588 H2580 0.929 . S
C2588 C2589 1.377 . S
C2588 C2590 1.384 . S
C2589 C2588 1.377 . S
C2589 C2595 1.390 . S
C2590 H2581 0.930 . S
C2590 C2588 1.384 . S
C2590 C2591 1.370 . S
C2591 C2590 1.370 . S
C2591 C2592 1.399 1_655 S
C2591 C2596 1.491 1_655 S
C2592 H2582 0.969 . S
C2592 C2591 1.399 1_455 S
C2592 C2595 1.350 1_455 S
H2593 C2609 0.930 . S
H2594 C2610 0.931 . S
C2595 H2583 0.929 . S
C2595 C2589 1.390 . S
C2595 C2592 1.350 1_655 S
C2596 C2591 1.491 1_455 S
C2596 C2598 1.395 . S
C2596 C2599 1.403 . S
H2597 C2603 0.930 . S
C2598 H2584 0.940 . S
C2598 C2596 1.395 . S
C2598 C2601 1.403 . S
C2599 C2596 1.403 . S
C2599 C2600 1.524 . S
C2599 C2603 1.400 . S
C2600 H2585 0.960 . S
C2600 H2586 0.960 . S
C2600 H2587 0.960 . S
C2600 C2599 1.524 . S
C2601 C2598 1.403 . S
C2601 C2602 1.392 . S
C2601 C2605 1.495 . S
C2602 C2601 1.392 . S
C2602 C2603 1.385 . S
C2602 C2604 1.478 . S
C2603 H2597 0.930 . S
C2603 C2599 1.400 . S
C2603 C2602 1.385 . S
C2604 C2602 1.478 . S
C2604 C2606 1.381 . S
C2604 C2610 1.383 . S
C2605 C2601 1.495 . S
C2605 H2611 0.959 . S
C2605 H2612 0.961 . S
C2605 H2613 0.960 . S
C2606 C2604 1.381 . S
C2606 C2607 1.394 . S
C2606 H2614 0.930 . S
C2607 C2606 1.394 . S
C2607 C2608 1.383 . S
C2607 H2615 0.929 . S
C2608 C2607 1.383 . S
C2608 C2609 1.377 . S
C2609 H2593 0.930 . S
C2609 C2608 1.377 . S
C2609 C2610 1.379 . S
C2610 H2594 0.931 . S
C2610 C2604 1.383 . S
C2610 C2609 1.379 . S
H2611 C2605 0.959 . S
H2612 C2605 0.961 . S
H2613 C2605 0.960 . S
H2614 C2606 0.930 . S
H2615 C2607 0.929 . S
H2616 C2624 0.929 . S
H2617 C2626 0.930 . S
H2618 C2628 0.930 . S
H2619 C2631 0.929 . S
H2620 C2634 0.930 . S
H2621 C2636 0.960 . S
H2622 C2636 0.960 . S
H2623 C2636 0.960 . S
C2624 H2616 0.929 . S
C2624 C2625 1.377 . S
C2624 C2626 1.384 . S
C2625 C2624 1.377 . S
C2625 C2631 1.390 . S
C2626 H2617 0.930 . S
C2626 C2624 1.384 . S
C2626 C2627 1.372 . S
C2627 C2626 1.372 . S
C2627 C2628 1.400 . S
C2627 C2632 1.490 . S
C2628 H2618 0.930 . S
C2628 C2627 1.400 . S
C2628 C2631 1.386 . S
H2629 C2645 0.930 . S
H2630 C2646 0.931 . S
C2631 H2619 0.929 . S
C2631 C2625 1.390 . S
C2631 C2628 1.386 . S
C2632 C2627 1.490 . S
C2632 C2634 1.395 . S
C2632 C2635 1.403 . S
H2633 C2639 0.930 . S
C2634 H2620 0.930 . S
C2634 C2632 1.395 . S
C2634 C2637 1.403 . S
C2635 C2632 1.403 . S
C2635 C2636 1.524 . S
C2635 C2639 1.400 . S
C2636 H2621 0.960 . S
C2636 H2622 0.960 . S
C2636 H2623 0.960 . S
C2636 C2635 1.524 . S
C2637 C2634 1.403 . S
C2637 C2638 1.392 . S
C2637 C2641 1.495 . S
C2638 C2637 1.392 . S
C2638 C2639 1.385 . S
C2638 C2640 1.478 . S
C2639 H2633 0.930 . S
C2639 C2635 1.400 . S
C2639 C2638 1.385 . S
C2640 C2638 1.478 . S
C2640 C2642 1.381 . S
C2640 C2646 1.383 . S
C2641 C2637 1.495 . S
C2641 H2647 0.959 . S
C2641 H2648 0.961 . S
C2641 H2649 0.960 . S
C2642 C2640 1.381 . S
C2642 C2643 1.394 . S
C2642 H2650 0.930 . S
C2643 C2642 1.394 . S
C2643 C2644 1.383 . S
C2643 H2651 0.929 . S
C2644 C2643 1.383 . S
C2644 C2645 1.377 . S
C2645 H2629 0.930 . S
C2645 C2644 1.377 . S
C2645 C2646 1.379 . S
C2646 H2630 0.931 . S
C2646 C2640 1.383 . S
C2646 C2645 1.379 . S
H2647 C2641 0.959 . S
H2648 C2641 0.961 . S
H2649 C2641 0.960 . S
H2650 C2642 0.930 . S
H2651 C2643 0.929 . S
H2652 C2660 0.929 . S
H2653 C2662 0.930 . S
H2654 C2664 0.930 . S
H2655 C2667 0.929 . S
H2656 C2670 0.930 . S
H2657 C2672 0.960 1_455 S
H2658 C2672 0.960 . S
H2659 C2672 0.960 . S
C2660 H2652 0.929 . S
C2660 C2661 1.377 . S
C2660 C2662 1.384 . S
C2661 C2660 1.377 . S
C2661 C2667 1.390 . S
C2662 H2653 0.930 . S
C2662 C2660 1.384 . S
C2662 C2663 1.372 . S
C2663 C2662 1.372 . S
C2663 C2664 1.400 . S
C2663 C2668 1.490 . S
C2664 H2654 0.930 . S
C2664 C2663 1.400 . S
C2664 C2667 1.386 . S
H2665 C2681 0.930 . S
H2666 C2682 0.931 1_655 S
C2667 H2655 0.929 . S
C2667 C2661 1.390 . S
C2667 C2664 1.386 . S
C2668 C2663 1.490 . S
C2668 C2670 1.395 . S
C2668 C2671 1.403 . S
H2669 C2675 0.930 1_455 S
C2670 H2656 0.930 . S
C2670 C2668 1.395 . S
C2670 C2673 1.403 . S
C2671 C2668 1.403 . S
C2671 C2672 1.524 . S
C2671 C2675 1.400 . S
C2672 H2657 0.960 1_655 S
C2672 H2658 0.960 . S
C2672 H2659 0.960 . S
C2672 C2671 1.524 . S
C2673 C2670 1.403 . S
C2673 C2674 1.392 . S
C2673 C2677 1.495 . S
C2674 C2673 1.392 . S
C2674 C2675 1.385 . S
C2674 C2676 1.478 . S
C2675 H2669 0.930 1_655 S
C2675 C2671 1.400 . S
C2675 C2674 1.385 . S
C2676 C2674 1.478 . S
C2676 C2678 1.381 1_655 S
C2676 C2682 1.383 1_655 S
C2677 C2673 1.495 . S
C2677 H2683 0.959 . S
C2677 H2684 0.961 . S
C2677 H2685 0.960 . S
C2678 C2676 1.381 1_455 S
C2678 C2679 1.394 . S
C2678 H2686 0.925 1_455 S
C2679 C2678 1.394 . S
C2679 C2680 1.383 . S
C2679 H2687 0.929 . S
C2680 C2679 1.383 . S
C2680 C2681 1.377 . S
C2681 H2665 0.930 . S
C2681 C2680 1.377 . S
C2681 C2682 1.379 . S
C2682 H2666 0.931 1_455 S
C2682 C2676 1.383 1_455 S
C2682 C2681 1.379 . S
H2683 C2677 0.959 . S
H2684 C2677 0.961 . S
H2685 C2677 0.960 . S
H2686 C2678 0.925 1_655 S
H2687 C2679 0.929 . S
H2688 C2696 0.929 . S
H2689 C2698 0.930 . S
H2690 C2700 0.930 . S
H2691 C2703 0.929 . S
H2692 C2706 0.930 . S
H2693 C2708 0.960 . S
H2694 C2708 0.960 . S
H2695 C2708 0.960 . S
C2696 H2688 0.929 . S
C2696 C2697 1.377 . S
C2696 C2698 1.384 . S
C2697 C2696 1.377 . S
C2697 C2703 1.390 . S
C2698 H2689 0.930 . S
C2698 C2696 1.384 . S
C2698 C2699 1.372 . S
C2699 C2698 1.372 . S
C2699 C2700 1.400 . S
C2699 C2704 1.490 . S
C2700 H2690 0.930 . S
C2700 C2699 1.400 . S
C2700 C2703 1.386 . S
H2701 C2717 0.930 . S
H2702 C2718 0.931 . S
C2703 H2691 0.929 . S
C2703 C2697 1.390 . S
C2703 C2700 1.386 . S
C2704 C2699 1.490 . S
C2704 C2706 1.395 . S
C2704 C2707 1.403 . S
H2705 C2711 0.930 . S
C2706 H2692 0.930 . S
C2706 C2704 1.395 . S
C2706 C2709 1.403 . S
C2707 C2704 1.403 . S
C2707 C2708 1.524 . S
C2707 C2711 1.400 . S
C2708 H2693 0.960 . S
C2708 H2694 0.960 . S
C2708 H2695 0.960 . S
C2708 C2707 1.524 . S
C2709 C2706 1.403 . S
C2709 C2710 1.392 . S
C2709 C2713 1.495 . S
C2710 C2709 1.392 . S
C2710 C2711 1.385 . S
C2710 C2712 1.478 . S
C2711 H2705 0.930 . S
C2711 C2707 1.400 . S
C2711 C2710 1.385 . S
C2712 C2710 1.478 . S
C2712 C2714 1.381 . S
C2712 C2718 1.383 . S
C2713 C2709 1.495 . S
C2713 H2719 0.959 . S
C2713 H2720 0.961 . S
C2713 H2721 0.960 . S
C2714 C2712 1.381 . S
C2714 C2715 1.394 . S
C2714 H2722 0.930 . S
C2715 C2714 1.394 . S
C2715 C2716 1.383 . S
C2715 H2723 0.929 . S
C2716 C2715 1.383 . S
C2716 C2717 1.377 . S
C2717 H2701 0.930 . S
C2717 C2716 1.377 . S
C2717 C2718 1.379 . S
C2718 H2702 0.931 . S
C2718 C2712 1.383 . S
C2718 C2717 1.379 . S
H2719 C2713 0.959 . S
H2720 C2713 0.961 . S
H2721 C2713 0.960 . S
H2722 C2714 0.930 . S
H2723 C2715 0.929 . S
H2724 C2732 0.929 . S
H2725 C2734 0.930 . S
H2726 C2736 0.930 . S
H2727 C2739 0.929 . S
H2728 C2742 0.930 . S
H2729 C2744 0.960 . S
H2730 C2744 0.960 . S
H2731 C2744 0.960 1_455 S
C2732 H2724 0.929 . S
C2732 C2733 1.377 . S
C2732 C2734 1.384 . S
C2733 C2732 1.377 . S
C2733 C2739 1.390 . S
C2734 H2725 0.930 . S
C2734 C2732 1.384 . S
C2734 C2735 1.372 . S
C2735 C2734 1.372 . S
C2735 C2736 1.400 . S
C2735 C2740 1.490 . S
C2736 H2726 0.930 . S
C2736 C2735 1.400 . S
C2736 C2739 1.386 . S
H2737 C2753 0.930 . S
H2738 C2754 0.931 . S
C2739 H2727 0.929 . S
C2739 C2733 1.390 . S
C2739 C2736 1.386 . S
C2740 C2735 1.490 . S
C2740 C2742 1.395 . S
C2740 C2743 1.403 . S
H2741 C2747 0.930 . S
C2742 H2728 0.930 . S
C2742 C2740 1.395 . S
C2742 C2745 1.403 . S
C2743 C2740 1.403 . S
C2743 C2744 1.524 1_455 S
C2743 C2747 1.400 1_455 S
C2744 H2729 0.960 . S
C2744 H2730 0.960 . S
C2744 H2731 0.960 1_655 S
C2744 C2743 1.524 1_655 S
C2745 C2742 1.403 . S
C2745 C2746 1.392 . S
C2745 C2749 1.495 . S
C2746 C2745 1.392 . S
C2746 C2747 1.385 1_455 S
C2746 C2748 1.478 1_455 S
C2747 H2741 0.930 . S
C2747 C2743 1.400 1_655 S
C2747 C2746 1.385 1_655 S
C2748 C2746 1.478 1_655 S
C2748 C2750 1.381 . S
C2748 C2754 1.383 . S
C2749 C2745 1.495 . S
C2749 H2755 0.959 . S
C2749 H2756 0.961 . S
C2749 H2757 0.960 . S
C2750 C2748 1.381 . S
C2750 C2751 1.394 . S
C2750 H2758 0.930 . S
C2751 C2750 1.394 . S
C2751 C2752 1.383 . S
C2751 H2759 0.929 . S
C2752 C2751 1.383 . S
C2752 C2753 1.377 . S
C2753 H2737 0.930 . S
C2753 C2752 1.377 . S
C2753 C2754 1.379 . S
C2754 H2738 0.931 . S
C2754 C2748 1.383 . S
C2754 C2753 1.379 . S
H2755 C2749 0.959 . S
H2756 C2749 0.961 . S
H2757 C2749 0.960 . S
H2758 C2750 0.930 . S
H2759 C2751 0.929 . S
H2760 C2768 0.929 . S
H2761 C2770 0.930 . S
H2762 C2772 0.930 . S
H2763 C2775 0.929 . S
H2764 C2778 0.930 . S
H2765 C2780 0.960 . S
H2766 C2780 0.960 . S
H2767 C2780 0.960 . S
C2768 H2760 0.929 . S
C2768 C2769 1.377 . S
C2768 C2770 1.384 . S
C2769 C2768 1.377 . S
C2769 C2775 1.390 . S
C2770 H2761 0.930 . S
C2770 C2768 1.384 . S
C2770 C2771 1.372 . S
C2771 C2770 1.372 . S
C2771 C2772 1.400 . S
C2771 C2776 1.490 . S
C2772 H2762 0.930 . S
C2772 C2771 1.400 . S
C2772 C2775 1.386 . S
H2773 C2789 0.930 . S
H2774 C2790 0.931 . S
C2775 H2763 0.929 . S
C2775 C2769 1.390 . S
C2775 C2772 1.386 . S
C2776 C2771 1.490 . S
C2776 C2778 1.395 . S
C2776 C2779 1.403 . S
H2777 C2783 0.930 . S
C2778 H2764 0.930 . S
C2778 C2776 1.395 . S
C2778 C2781 1.403 . S
C2779 C2776 1.403 . S
C2779 C2780 1.524 1_556 S
C2779 C2783 1.400 1_556 S
C2780 H2765 0.960 . S
C2780 H2766 0.960 . S
C2780 H2767 0.960 . S
C2780 C2779 1.524 1_554 S
C2781 C2778 1.403 . S
C2781 C2782 1.438 . S
C2781 C2785 1.495 . S
C2782 C2781 1.438 . S
C2782 C2783 1.366 1_556 S
C2782 C2784 1.451 1_556 S
C2783 H2777 0.930 . S
C2783 C2779 1.400 1_554 S
C2783 C2782 1.366 1_554 S
C2784 C2782 1.451 1_554 S
C2784 C2786 1.381 . S
C2784 C2790 1.383 . S
C2785 C2781 1.495 . S
C2785 H2791 0.959 . S
C2785 H2792 0.961 . S
C2785 H2793 0.960 . S
C2786 C2784 1.381 . S
C2786 C2787 1.394 . S
C2786 H2794 0.930 . S
C2787 C2786 1.394 . S
C2787 C2788 1.383 . S
C2787 H2795 0.929 . S
C2788 C2787 1.383 . S
C2788 C2789 1.377 . S
C2789 H2773 0.930 . S
C2789 C2788 1.377 . S
C2789 C2790 1.379 . S
C2790 H2774 0.931 . S
C2790 C2784 1.383 . S
C2790 C2789 1.379 . S
H2791 C2785 0.959 . S
H2792 C2785 0.961 . S
H2793 C2785 0.960 . S
H2794 C2786 0.930 . S
H2795 C2787 0.929 . S
H2796 C2804 0.929 . S
H2797 C2806 0.930 . S
H2798 C2808 0.930 . S
H2799 C2811 0.929 . S
H2800 C2814 0.930 . S
H2801 C2816 0.960 . S
H2802 C2816 0.960 . S
H2803 C2816 0.960 . S
C2804 H2796 0.929 . S
C2804 C2805 1.377 . S
C2804 C2806 1.384 . S
C2805 C2804 1.377 . S
C2805 C2811 1.390 . S
C2806 H2797 0.930 . S
C2806 C2804 1.384 . S
C2806 C2807 1.372 . S
C2807 C2806 1.372 . S
C2807 C2808 1.400 . S
C2807 C2812 1.490 . S
C2808 H2798 0.930 . S
C2808 C2807 1.400 . S
C2808 C2811 1.386 . S
H2809 C2825 0.930 . S
H2810 C2826 0.931 . S
C2811 H2799 0.929 . S
C2811 C2805 1.390 . S
C2811 C2808 1.386 . S
C2812 C2807 1.490 . S
C2812 C2814 1.395 . S
C2812 C2815 1.403 . S
H2813 C2819 0.930 . S
C2814 H2800 0.930 . S
C2814 C2812 1.395 . S
C2814 C2817 1.403 . S
C2815 C2812 1.403 . S
C2815 C2816 1.524 . S
C2815 C2819 1.400 . S
C2816 H2801 0.960 . S
C2816 H2802 0.960 . S
C2816 H2803 0.960 . S
C2816 C2815 1.524 . S
C2817 C2814 1.403 . S
C2817 C2818 1.392 . S
C2817 C2821 1.495 . S
C2818 C2817 1.392 . S
C2818 C2819 1.385 . S
C2818 C2820 1.478 . S
C2819 H2813 0.930 . S
C2819 C2815 1.400 . S
C2819 C2818 1.385 . S
C2820 C2818 1.478 . S
C2820 C2822 1.381 . S
C2820 C2826 1.383 . S
C2821 C2817 1.495 . S
C2821 H2827 0.959 . S
C2821 H2828 0.961 . S
C2821 H2829 0.960 . S
C2822 C2820 1.381 . S
C2822 C2823 1.394 . S
C2822 H2830 0.930 . S
C2823 C2822 1.394 . S
C2823 C2824 1.383 . S
C2823 H2831 0.929 . S
C2824 C2823 1.383 . S
C2824 C2825 1.377 . S
C2825 H2809 0.930 . S
C2825 C2824 1.377 . S
C2825 C2826 1.379 . S
C2826 H2810 0.931 . S
C2826 C2820 1.383 . S
C2826 C2825 1.379 . S
H2827 C2821 0.959 . S
H2828 C2821 0.961 . S
H2829 C2821 0.960 . S
H2830 C2822 0.930 . S
H2831 C2823 0.929 . S
H2832 C2840 0.929 . S
H2833 C2842 0.930 . S
H2834 C2844 0.930 . S
H2835 C2847 0.929 . S
H2836 C2850 0.930 . S
H2837 C2852 0.960 . S
H2838 C2852 0.960 . S
H2839 C2852 0.960 . S
C2840 H2832 0.929 . S
C2840 C2841 1.377 . S
C2840 C2842 1.384 . S
C2841 C2840 1.377 . S
C2841 C2847 1.390 . S
C2842 H2833 0.930 . S
C2842 C2840 1.384 . S
C2842 C2843 1.372 . S
C2843 C2842 1.372 . S
C2843 C2844 1.400 . S
C2843 C2848 1.490 . S
C2844 H2834 0.930 . S
C2844 C2843 1.400 . S
C2844 C2847 1.386 . S
H2845 C2861 0.930 . S
H2846 C2862 0.931 . S
C2847 H2835 0.929 . S
C2847 C2841 1.390 . S
C2847 C2844 1.386 . S
C2848 C2843 1.490 . S
C2848 C2850 1.395 . S
C2848 C2851 1.403 . S
H2849 C2855 0.930 . S
C2850 H2836 0.930 . S
C2850 C2848 1.395 . S
C2850 C2853 1.403 . S
C2851 C2848 1.403 . S
C2851 C2852 1.524 . S
C2851 C2855 1.400 . S
C2852 H2837 0.960 . S
C2852 H2838 0.960 . S
C2852 H2839 0.960 . S
C2852 C2851 1.524 . S
C2853 C2850 1.403 . S
C2853 C2854 1.392 . S
C2853 C2857 1.495 . S
C2854 C2853 1.392 . S
C2854 C2855 1.385 . S
C2854 C2856 1.478 . S
C2855 H2849 0.930 . S
C2855 C2851 1.400 . S
C2855 C2854 1.385 . S
C2856 C2854 1.478 . S
C2856 C2858 1.381 . S
C2856 C2862 1.383 . S
C2857 C2853 1.495 . S
C2857 H2863 0.959 . S
C2857 H2864 0.961 . S
C2857 H2865 0.960 . S
C2858 C2856 1.381 . S
C2858 C2859 1.394 . S
C2858 H2866 0.930 . S
C2859 C2858 1.394 . S
C2859 C2860 1.383 . S
C2859 H2867 0.929 . S
C2860 C2859 1.383 . S
C2860 C2861 1.377 . S
C2861 H2845 0.930 . S
C2861 C2860 1.377 . S
C2861 C2862 1.379 . S
C2862 H2846 0.931 . S
C2862 C2856 1.383 . S
C2862 C2861 1.379 . S
H2863 C2857 0.959 . S
H2864 C2857 0.961 . S
H2865 C2857 0.960 . S
H2866 C2858 0.930 . S
H2867 C2859 0.929 . S
H2868 C2876 0.929 . S
H2869 C2878 0.930 . S
H2870 C2880 0.930 . S
H2871 C2883 0.929 . S
H2872 C2886 0.930 . S
H2873 C2888 0.964 . S
H2874 C2888 0.960 . S
H2875 C2888 0.960 . S
C2876 H2868 0.929 . S
C2876 C2877 1.377 . S
C2876 C2878 1.384 . S
C2877 C2876 1.377 . S
C2877 C2883 1.390 . S
C2878 H2869 0.930 . S
C2878 C2876 1.384 . S
C2878 C2879 1.372 . S
C2879 C2878 1.372 . S
C2879 C2880 1.400 . S
C2879 C2884 1.490 . S
C2880 H2870 0.930 . S
C2880 C2879 1.400 . S
C2880 C2883 1.386 . S
H2881 C2897 0.930 . S
H2882 C2898 0.931 . S
C2883 H2871 0.929 . S
C2883 C2877 1.390 . S
C2883 C2880 1.386 . S
C2884 C2879 1.490 . S
C2884 C2886 1.395 . S
C2884 C2887 1.403 . S
H2885 C2891 0.930 . S
C2886 H2872 0.930 . S
C2886 C2884 1.395 . S
C2886 C2889 1.403 . S
C2887 C2884 1.403 . S
C2887 C2888 1.524 . S
C2887 C2891 1.400 1_655 S
C2888 H2873 0.964 . S
C2888 H2874 0.960 . S
C2888 H2875 0.960 . S
C2888 C2887 1.524 . S
C2889 C2886 1.403 . S
C2889 C2890 1.368 1_655 S
C2889 C2893 1.495 . S
C2890 C2889 1.368 1_455 S
C2890 C2891 1.387 . S
C2890 C2892 1.502 . S
C2891 H2885 0.930 . S
C2891 C2887 1.400 1_455 S
C2891 C2890 1.387 . S
C2892 C2890 1.502 . S
C2892 C2894 1.381 . S
C2892 C2898 1.383 . S
C2893 C2889 1.495 . S
C2893 H2899 0.959 . S
C2893 H2900 0.990 . S
C2893 H2901 0.960 . S
C2894 C2892 1.381 . S
C2894 C2895 1.394 . S
C2894 H2902 0.930 1_455 S
C2895 C2894 1.394 . S
C2895 C2896 1.383 . S
C2895 H2903 0.929 . S
C2896 C2895 1.383 . S
C2896 C2897 1.377 . S
C2897 H2881 0.930 . S
C2897 C2896 1.377 . S
C2897 C2898 1.379 . S
C2898 H2882 0.931 . S
C2898 C2892 1.383 . S
C2898 C2897 1.379 . S
H2899 C2893 0.959 . S
H2900 C2893 0.990 . S
H2901 C2893 0.960 . S
H2902 C2894 0.930 1_655 S
H2903 C2895 0.929 . S
H2904 C2912 0.929 . S
H2905 C2914 0.930 . S
H2906 C2916 0.930 . S
H2907 C2919 0.929 . S
H2908 C2922 0.930 . S
H2909 C2924 0.960 1_556 S
H2910 C2924 0.960 1_556 S
H2911 C2924 0.960 . S
C2912 H2904 0.929 . S
C2912 C2913 1.377 . S
C2912 C2914 1.384 . S
C2913 C2912 1.377 . S
C2913 C2919 1.390 . S
C2914 H2905 0.930 . S
C2914 C2912 1.384 . S
C2914 C2915 1.372 . S
C2915 C2914 1.372 . S
C2915 C2916 1.400 . S
C2915 C2920 1.490 . S
C2916 H2906 0.930 . S
C2916 C2915 1.400 . S
C2916 C2919 1.386 . S
H2917 C2933 0.930 . S
H2918 C2934 0.931 . S
C2919 H2907 0.929 . S
C2919 C2913 1.390 . S
C2919 C2916 1.386 . S
C2920 C2915 1.490 . S
C2920 C2922 1.395 . S
C2920 C2923 1.403 . S
H2921 C2927 0.930 . S
C2922 H2908 0.930 . S
C2922 C2920 1.395 . S
C2922 C2925 1.403 . S
C2923 C2920 1.403 . S
C2923 C2924 1.524 . S
C2923 C2927 1.400 1_554 S
C2924 H2909 0.960 1_554 S
C2924 H2910 0.960 1_554 S
C2924 H2911 0.960 . S
C2924 C2923 1.524 . S
C2925 C2922 1.403 . S
C2925 C2926 1.392 1_554 S
C2925 C2929 1.495 . S
C2926 C2925 1.392 1_556 S
C2926 C2927 1.385 . S
C2926 C2928 1.478 . S
C2927 H2921 0.930 . S
C2927 C2923 1.400 1_556 S
C2927 C2926 1.385 . S
C2928 C2926 1.478 . S
C2928 C2930 1.381 . S
C2928 C2934 1.383 . S
C2929 C2925 1.495 . S
C2929 H2935 0.959 . S
C2929 H2936 0.961 . S
C2929 H2937 0.960 . S
C2930 C2928 1.381 . S
C2930 C2931 1.394 . S
C2930 H2938 0.930 . S
C2931 C2930 1.394 . S
C2931 C2932 1.383 . S
C2931 H2939 0.929 . S
C2932 C2931 1.383 . S
C2932 C2933 1.377 . S
C2933 H2917 0.930 . S
C2933 C2932 1.377 . S
C2933 C2934 1.379 . S
C2934 H2918 0.931 . S
C2934 C2928 1.383 . S
C2934 C2933 1.379 . S
H2935 C2929 0.959 . S
H2936 C2929 0.961 . S
H2937 C2929 0.960 . S
H2938 C2930 0.930 . S
H2939 C2931 0.929 . S
H2940 C2948 0.929 . S
H2941 C2950 0.930 . S
H2942 C2952 0.930 . S
H2943 C2955 0.929 . S
H2944 C2958 0.930 . S
H2945 C2960 0.960 . S
H2946 C2960 0.960 . S
H2947 C2960 0.960 . S
C2948 H2940 0.929 . S
C2948 C2949 1.377 . S
C2948 C2950 1.384 . S
C2949 C2948 1.377 . S
C2949 C2955 1.390 . S
C2950 H2941 0.930 . S
C2950 C2948 1.384 . S
C2950 C2951 1.372 . S
C2951 C2950 1.372 . S
C2951 C2952 1.400 . S
C2951 C2956 1.490 . S
C2952 H2942 0.930 . S
C2952 C2951 1.400 . S
C2952 C2955 1.386 . S
H2953 C2969 0.930 . S
H2954 C2970 0.931 . S
C2955 H2943 0.929 . S
C2955 C2949 1.390 . S
C2955 C2952 1.386 . S
C2956 C2951 1.490 . S
C2956 C2958 1.395 . S
C2956 C2959 1.403 . S
H2957 C2963 0.930 . S
C2958 H2944 0.930 . S
C2958 C2956 1.395 . S
C2958 C2961 1.403 . S
C2959 C2956 1.403 . S
C2959 C2960 1.524 . S
C2959 C2963 1.400 . S
C2960 H2945 0.960 . S
C2960 H2946 0.960 . S
C2960 H2947 0.960 . S
C2960 C2959 1.524 . S
C2961 C2958 1.403 . S
C2961 C2962 1.392 . S
C2961 C2965 1.495 . S
C2962 C2961 1.392 . S
C2962 C2963 1.385 . S
C2962 C2964 1.478 . S
C2963 H2957 0.930 . S
C2963 C2959 1.400 . S
C2963 C2962 1.385 . S
C2964 C2962 1.478 . S
C2964 C2966 1.381 . S
C2964 C2970 1.383 . S
C2965 C2961 1.495 . S
C2965 H2971 0.959 . S
C2965 H2972 0.961 . S
C2965 H2973 0.960 . S
C2966 C2964 1.381 . S
C2966 C2967 1.394 . S
C2966 H2974 0.930 . S
C2967 C2966 1.394 . S
C2967 C2968 1.383 . S
C2967 H2975 0.929 . S
C2968 C2967 1.383 . S
C2968 C2969 1.377 . S
C2969 H2953 0.930 . S
C2969 C2968 1.377 . S
C2969 C2970 1.379 . S
C2970 H2954 0.931 . S
C2970 C2964 1.383 . S
C2970 C2969 1.379 . S
H2971 C2965 0.959 . S
H2972 C2965 0.961 . S
H2973 C2965 0.960 . S
H2974 C2966 0.930 . S
H2975 C2967 0.929 . S
H2976 C2984 0.929 . S
H2977 C2986 0.930 . S
H2978 C2988 0.930 . S
H2979 C2991 0.929 . S
H2980 C2994 0.930 . S
H2981 C2996 0.960 . S
H2982 C2996 0.960 . S
H2983 C2996 0.960 . S
C2984 H2976 0.929 . S
C2984 C2985 1.377 . S
C2984 C2986 1.384 . S
C2985 C2984 1.377 . S
C2985 C2991 1.390 . S
C2986 H2977 0.930 . S
C2986 C2984 1.384 . S
C2986 C2987 1.372 . S
C2987 C2986 1.372 . S
C2987 C2988 1.400 . S
C2987 C2992 1.490 . S
C2988 H2978 0.930 . S
C2988 C2987 1.400 . S
C2988 C2991 1.386 . S
H2989 C3005 0.930 . S
H2990 C3006 0.931 . S
C2991 H2979 0.929 . S
C2991 C2985 1.390 . S
C2991 C2988 1.386 . S
C2992 C2987 1.490 . S
C2992 C2994 1.395 . S
C2992 C2995 1.403 . S
H2993 C2999 0.930 . S
C2994 H2980 0.930 . S
C2994 C2992 1.395 . S
C2994 C2997 1.403 . S
C2995 C2992 1.403 . S
C2995 C2996 1.524 . S
C2995 C2999 1.400 . S
C2996 H2981 0.960 . S
C2996 H2982 0.960 . S
C2996 H2983 0.960 . S
C2996 C2995 1.524 . S
C2997 C2994 1.403 . S
C2997 C2998 1.392 . S
C2997 C3001 1.495 . S
C2998 C2997 1.392 . S
C2998 C2999 1.385 . S
C2998 C3000 1.478 . S
C2999 H2993 0.930 . S
C2999 C2995 1.400 . S
C2999 C2998 1.385 . S
C3000 C2998 1.478 . S
C3000 C3002 1.381 . S
C3000 C3006 1.383 . S
C3001 C2997 1.495 . S
C3001 H3007 0.959 . S
C3001 H3008 0.961 . S
C3001 H3009 0.960 . S
C3002 C3000 1.381 . S
C3002 C3003 1.394 . S
C3002 H3010 0.930 . S
C3003 C3002 1.394 . S
C3003 C3004 1.383 . S
C3003 H3011 0.929 . S
C3004 C3003 1.383 . S
C3004 C3005 1.377 . S
C3005 H2989 0.930 . S
C3005 C3004 1.377 . S
C3005 C3006 1.379 . S
C3006 H2990 0.931 . S
C3006 C3000 1.383 . S
C3006 C3005 1.379 . S
H3007 C3001 0.959 . S
H3008 C3001 0.961 . S
H3009 C3001 0.960 . S
H3010 C3002 0.930 . S
H3011 C3003 0.929 . S
H3012 C3020 0.929 . S
H3013 C3022 0.930 . S
H3014 C3024 0.930 . S
H3015 C3027 0.929 . S
H3016 C3030 0.930 . S
H3017 C3032 0.983 . S
H3018 C3032 0.942 1_545 S
H3019 C3032 0.964 . S
C3020 H3012 0.929 . S
C3020 C3021 1.377 . S
C3020 C3022 1.384 . S
C3021 C3020 1.377 . S
C3021 C3027 1.390 . S
C3022 H3013 0.930 . S
C3022 C3020 1.384 . S
C3022 C3023 1.372 . S
C3023 C3022 1.372 . S
C3023 C3024 1.400 . S
C3023 C3028 1.490 . S
C3024 H3014 0.930 . S
C3024 C3023 1.400 . S
C3024 C3027 1.386 . S
H3025 C3041 0.930 . S
H3026 C3042 0.931 . S
C3027 H3015 0.929 . S
C3027 C3021 1.390 . S
C3027 C3024 1.386 . S
C3028 C3023 1.490 . S
C3028 C3030 1.395 . S
C3028 C3031 1.403 . S
H3029 C3035 0.930 . S
C3030 H3016 0.930 . S
C3030 C3028 1.395 . S
C3030 C3033 1.403 . S
C3031 C3028 1.403 . S
C3031 C3032 1.516 1_545 S
C3031 C3035 1.400 1_545 S
C3032 H3017 0.983 . S
C3032 H3018 0.942 1_565 S
C3032 H3019 0.964 . S
C3032 C3031 1.516 1_565 S
C3033 C3030 1.403 . S
C3033 C3034 1.403 . S
C3033 C3037 1.495 . S
C3034 C3033 1.403 . S
C3034 C3035 1.382 1_545 S
C3034 C3036 1.470 1_545 S
C3035 H3029 0.930 . S
C3035 C3031 1.400 1_565 S
C3035 C3034 1.382 1_565 S
C3036 C3034 1.470 1_565 S
C3036 C3038 1.381 . S
C3036 C3042 1.383 . S
C3037 C3033 1.495 . S
C3037 H3043 0.959 . S
C3037 H3044 0.961 . S
C3037 H3045 0.960 . S
C3038 C3036 1.381 . S
C3038 C3039 1.394 . S
C3038 H3046 0.930 1_565 S
C3039 C3038 1.394 . S
C3039 C3040 1.383 . S
C3039 H3047 0.929 . S
C3040 C3039 1.383 . S
C3040 C3041 1.377 . S
C3041 H3025 0.930 . S
C3041 C3040 1.377 . S
C3041 C3042 1.379 . S
C3042 H3026 0.931 . S
C3042 C3036 1.383 . S
C3042 C3041 1.379 . S
H3043 C3037 0.959 . S
H3044 C3037 0.961 . S
H3045 C3037 0.960 . S
H3046 C3038 0.930 1_545 S
H3047 C3039 0.929 . S
H3048 C3056 0.929 . S
H3049 C3058 0.930 . S
H3050 C3060 0.930 1_565 S
H3051 C3063 0.929 . S
H3052 C3066 0.930 1_545 S
H3053 C3068 0.947 1_565 S
H3054 C3068 0.988 . S
H3055 C3068 0.953 1_565 S
C3056 H3048 0.929 . S
C3056 C3057 1.377 . S
C3056 C3058 1.384 . S
C3057 C3056 1.377 . S
C3057 C3063 1.390 . S
C3058 H3049 0.930 . S
C3058 C3056 1.384 . S
C3058 C3059 1.372 . S
C3059 C3058 1.372 . S
C3059 C3060 1.400 . S
C3059 C3064 1.490 . S
C3060 H3050 0.930 1_545 S
C3060 C3059 1.400 . S
C3060 C3063 1.386 . S
H3061 C3077 0.930 . S
H3062 C3078 0.931 . S
C3063 H3051 0.929 . S
C3063 C3057 1.390 . S
C3063 C3060 1.386 . S
C3064 C3059 1.490 . S
C3064 C3066 1.395 1_545 S
C3064 C3067 1.403 1_545 S
H3065 C3071 0.930 . S
C3066 H3052 0.930 1_565 S
C3066 C3064 1.395 1_565 S
C3066 C3069 1.403 . S
C3067 C3064 1.403 1_565 S
C3067 C3068 1.518 1_565 S
C3067 C3071 1.400 . S
C3068 H3053 0.947 1_545 S
C3068 H3054 0.988 . S
C3068 H3055 0.953 1_545 S
C3068 C3067 1.518 1_545 S
C3069 C3066 1.403 . S
C3069 C3070 1.392 . S
C3069 C3073 1.495 . S
C3070 C3069 1.392 . S
C3070 C3071 1.385 . S
C3070 C3072 1.478 . S
C3071 H3065 0.930 . S
C3071 C3067 1.400 . S
C3071 C3070 1.385 . S
C3072 C3070 1.478 . S
C3072 C3074 1.381 . S
C3072 C3078 1.383 . S
C3073 C3069 1.495 . S
C3073 H3079 0.959 . S
C3073 H3080 0.961 . S
C3073 H3081 0.960 . S
C3074 C3072 1.381 . S
C3074 C3075 1.394 . S
C3074 H3082 0.930 . S
C3075 C3074 1.394 . S
C3075 C3076 1.383 . S
C3075 H3083 0.929 . S
C3076 C3075 1.383 . S
C3076 C3077 1.377 . S
C3077 H3061 0.930 . S
C3077 C3076 1.377 . S
C3077 C3078 1.379 . S
C3078 H3062 0.931 . S
C3078 C3072 1.383 . S
C3078 C3077 1.379 . S
H3079 C3073 0.959 . S
H3080 C3073 0.961 . S
H3081 C3073 0.960 . S
H3082 C3074 0.930 . S
H3083 C3075 0.929 . S
H3084 C3092 0.929 . S
H3085 C3094 0.930 . S
H3086 C3096 0.930 . S
H3087 C3099 0.929 . S
H3088 C3102 0.930 . S
H3089 C3104 0.960 . S
H3090 C3104 0.960 . S
H3091 C3104 0.960 . S
C3092 H3084 0.929 . S
C3092 C3093 1.377 . S
C3092 C3094 1.384 . S
C3093 C3092 1.377 . S
C3093 C3099 1.390 . S
C3094 H3085 0.930 . S
C3094 C3092 1.384 . S
C3094 C3095 1.372 . S
C3095 C3094 1.372 . S
C3095 C3096 1.400 . S
C3095 C3100 1.490 . S
C3096 H3086 0.930 . S
C3096 C3095 1.400 . S
C3096 C3099 1.386 . S
H3097 C3113 0.930 . S
H3098 C3114 0.931 . S
C3099 H3087 0.929 . S
C3099 C3093 1.390 . S
C3099 C3096 1.386 . S
C3100 C3095 1.490 . S
C3100 C3102 1.395 . S
C3100 C3103 1.403 . S
H3101 C3107 0.930 . S
C3102 H3088 0.930 . S
C3102 C3100 1.395 . S
C3102 C3105 1.403 . S
C3103 C3100 1.403 . S
C3103 C3104 1.524 . S
C3103 C3107 1.400 . S
C3104 H3089 0.960 . S
C3104 H3090 0.960 . S
C3104 H3091 0.960 . S
C3104 C3103 1.524 . S
C3105 C3102 1.403 . S
C3105 C3106 1.392 . S
C3105 C3109 1.495 . S
C3106 C3105 1.392 . S
C3106 C3107 1.385 . S
C3106 C3108 1.478 . S
C3107 H3101 0.930 . S
C3107 C3103 1.400 . S
C3107 C3106 1.385 . S
C3108 C3106 1.478 . S
C3108 C3110 1.381 . S
C3108 C3114 1.383 . S
C3109 C3105 1.495 . S
C3109 H3115 0.959 . S
C3109 H3116 0.961 . S
C3109 H3117 0.960 . S
C3110 C3108 1.381 . S
C3110 C3111 1.394 . S
C3110 H3118 0.930 . S
C3111 C3110 1.394 . S
C3111 C3112 1.383 . S
C3111 H3119 0.929 . S
C3112 C3111 1.383 . S
C3112 C3113 1.377 . S
C3113 H3097 0.930 . S
C3113 C3112 1.377 . S
C3113 C3114 1.379 . S
C3114 H3098 0.931 . S
C3114 C3108 1.383 . S
C3114 C3113 1.379 . S
H3115 C3109 0.959 . S
H3116 C3109 0.961 . S
H3117 C3109 0.960 . S
H3118 C3110 0.930 . S
H3119 C3111 0.929 . S
C537 C8 0.748 . S
C556 C348 0.791 . S
C573 C282 0.758 . S
C592 C32 0.751 . S
C609 C294 0.752 . S
C628 C52 0.777 . S
C645 C76 0.762 . S
C664 C316 0.720 . S
C681 C96 0.752 . S
C700 C206 0.750 . S
C717 C120 0.746 . S
C736 C228 0.786 . S
C753 C150 0.747 . S
C772 C252 0.778 . S
C789 C172 0.746 . S
C808 C194 0.792 . S
C825 C362 0.762 . S
C844 C448 0.725 . S
C861 C382 0.762 . S
C880 C516 0.720 . S
C897 C406 0.746 . S
C916 C480 0.791 . S
C933 C426 0.762 . S
C952 C502 0.721 . S
C969 C469 1.109 . S
C988 C15 1.073 . S
C1005 C29 1.091 . S
C1024 C491 1.114 . S
C1041 C59 1.095 . S
C1060 C367 1.100 . S
C1077 C73 1.087 . S
C1096 C521 1.128 . S
C1113 C439 1.111 . S
C1132 C103 1.060 . S
C1149 C461 1.110 . S
C1168 C117 1.065 . S
C1185 C153 1.099 . S
C1204 C395 1.085 . S
C1221 C175 1.100 . S
C1240 C411 1.080 . S
C1257 C197 1.087 . S
C1276 C109 1.127 . S
C1293 C213 1.100 . S
C1312 C125 1.082 . S
C1329 C235 1.100 . S
C1348 C139 1.082 . S
C1365 C249 1.087 . S
C1384 C161 1.127 . S
C1401 C21 1.111 . S
C1420 C285 1.060 . S
C1437 C301 1.100 . S
C1456 C37 1.080 . S
C1473 C323 1.087 . S
C1492 C65 1.127 . S
C1509 C351 1.100 . S
C1528 C81 1.080 . S
C1545 C329 1.105 . S
C1564 C359 1.100 . S
C1581 C241 1.105 . S
C1600 C389 1.097 . S
C1617 C403 1.088 . S
C1636 C257 1.124 . S
C1653 C183 1.107 . S
C1672 C433 1.086 . S
C1689 C455 1.100 . S
C1708 C219 1.080 . S
C1725 C271 1.108 . S
C1744 C483 1.076 . S
C1761 C307 1.111 . S
C1780 C505 1.062 . S
C1797 C337 1.104 . S
C1816 C513 1.105 . S
C1833 C404 1.289 . S
C1852 C10 1.305 . S
C1869 C40 1.292 . S
C1888 C436 1.282 . S
C1905 C458 1.276 . S
C1924 C54 1.299 . S
C1941 C84 1.292 . S
C1960 C392 1.279 . S
C1977 C494 1.285 . S
C1996 C98 1.321 . S
C2013 C360 1.282 . S
C2032 C128 1.267 . S
C2049 C514 1.288 . S
C2068 C140 1.315 . S
C2085 C472 1.280 . S
C2104 C162 1.321 . S
C2121 C216 1.288 . S
C2140 C184 1.311 . S
C2157 C238 1.276 . S
C2176 C208 1.305 . S
C2193 C230 1.297 . S
C2212 C250 1.247 . S
C2229 C260 1.298 . S
C2248 C186 1.248 . S
C2265 C340 1.285 . S
C2284 C272 1.269 . S
C2301 C274 1.285 . S
C2320 C296 1.322 . S
C2337 C318 1.302 . S
C2356 C304 1.305 . S
C2373 C338 1.292 . S
C2392 C326 1.276 . S
C2409 C74 1.276 . S
C2428 C370 1.300 . S
C2445 C118 1.278 . S
C2464 C384 1.316 . S
C2481 C142 1.282 . S
C2500 C414 1.267 . S
C2517 C164 1.280 . S
C2536 C428 1.269 . S
C2553 C106 1.287 . S
C2572 C450 1.274 . S
C2589 C30 1.276 . S
C2608 C470 1.282 . S
C2625 C62 1.282 . S
C2644 C492 1.267 . S
C2661 C524 1.302 . S
C2680 C18 1.261 . S
C2697 C7 1.653 . S
C2716 C205 1.653 . S
C2733 C227 1.652 . S
C2752 C43 1.643 . S
C2769 C51 1.651 . S
C2788 C263 1.643 . S
C2805 C87 1.651 . S
C2824 C191 1.646 . S
C2841 C95 1.652 . S
C2860 C345 1.654 . S
C2877 C279 1.651 . S
C2896 C131 1.647 . S
C2913 C147 1.653 . S
C2932 C293 1.645 . S
C2949 C169 1.653 . S
C2968 C315 1.645 . S
C2985 C373 1.651 . S
C3004 C417 1.649 . S
C3021 C381 1.651 . S
C3040 C499 1.645 . S
C3057 C527 1.653 . S
C3076 C425 1.653 . S
C3093 C447 1.652 . S
C3112 C477 1.643 . S
