# Generated by pormake.
# Topology umc, (4)-cn, num edge types: 1
# Building blocks:
#     Node 0, Type 0, BuildingBlock: CEKHIL_clean_sbu_0, # of connection points: 4
#     Node 1, Type 0, BuildingBlock: CEKHIL_clean_sbu_0, # of connection points: 4
#     Node 2, Type 0, BuildingBlock: CEKHIL_clean_sbu_0, # of connection points: 4
#     Node 3, Type 0, BuildingBlock: CEKHIL_clean_sbu_0, # of connection points: 4
#     Node 4, Type 0, BuildingBlock: CEKHIL_clean_sbu_0, # of connection points: 4
#     Node 5, Type 0, BuildingBlock: CEKHIL_clean_sbu_0, # of connection points: 4
#     Node 6, Type 0, BuildingBlock: CEKHIL_clean_sbu_0, # of connection points: 4
#     Node 7, Type 0, BuildingBlock: CEKHIL_clean_sbu_0, # of connection points: 4
#     Node 8, Type 0, BuildingBlock: CEKHIL_clean_sbu_0, # of connection points: 4
#     Node 9, Type 0, BuildingBlock: CEKHIL_clean_sbu_0, # of connection points: 4
#     Node 10, Type 0, BuildingBlock: CEKHIL_clean_sbu_0, # of connection points: 4
#     Node 11, Type 0, BuildingBlock: CEKHIL_clean_sbu_0, # of connection points: 4
#     Node 12, Type 0, BuildingBlock: CEKHIL_clean_sbu_0, # of connection points: 4
#     Node 13, Type 0, BuildingBlock: CEKHIL_clean_sbu_0, # of connection points: 4
#     Node 14, Type 0, BuildingBlock: CEKHIL_clean_sbu_0, # of connection points: 4
#     Node 15, Type 0, BuildingBlock: CEKHIL_clean_sbu_0, # of connection points: 4
#     Edge 16, Type (0, 0), BuildingBlock: XIVTED_clean_linker_0, # of connection points: 2
#     Edge 17, Type (0, 0), BuildingBlock: XIVTED_clean_linker_0, # of connection points: 2
#     Edge 18, Type (0, 0), BuildingBlock: XIVTED_clean_linker_0, # of connection points: 2
#     Edge 19, Type (0, 0), BuildingBlock: XIVTED_clean_linker_0, # of connection points: 2
#     Edge 20, Type (0, 0), BuildingBlock: XIVTED_clean_linker_0, # of connection points: 2
#     Edge 21, Type (0, 0), BuildingBlock: XIVTED_clean_linker_0, # of connection points: 2
#     Edge 22, Type (0, 0), BuildingBlock: XIVTED_clean_linker_0, # of connection points: 2
#     Edge 23, Type (0, 0), BuildingBlock: XIVTED_clean_linker_0, # of connection points: 2
#     Edge 24, Type (0, 0), BuildingBlock: XIVTED_clean_linker_0, # of connection points: 2
#     Edge 25, Type (0, 0), BuildingBlock: XIVTED_clean_linker_0, # of connection points: 2
#     Edge 26, Type (0, 0), BuildingBlock: XIVTED_clean_linker_0, # of connection points: 2
#     Edge 27, Type (0, 0), BuildingBlock: XIVTED_clean_linker_0, # of connection points: 2
#     Edge 28, Type (0, 0), BuildingBlock: XIVTED_clean_linker_0, # of connection points: 2
#     Edge 29, Type (0, 0), BuildingBlock: XIVTED_clean_linker_0, # of connection points: 2
#     Edge 30, Type (0, 0), BuildingBlock: XIVTED_clean_linker_0, # of connection points: 2
#     Edge 31, Type (0, 0), BuildingBlock: XIVTED_clean_linker_0, # of connection points: 2
#     Edge 32, Type (0, 0), BuildingBlock: XIVTED_clean_linker_0, # of connection points: 2
#     Edge 33, Type (0, 0), BuildingBlock: XIVTED_clean_linker_0, # of connection points: 2
#     Edge 34, Type (0, 0), BuildingBlock: XIVTED_clean_linker_0, # of connection points: 2
#     Edge 35, Type (0, 0), BuildingBlock: XIVTED_clean_linker_0, # of connection points: 2
#     Edge 36, Type (0, 0), BuildingBlock: XIVTED_clean_linker_0, # of connection points: 2
#     Edge 37, Type (0, 0), BuildingBlock: XIVTED_clean_linker_0, # of connection points: 2
#     Edge 38, Type (0, 0), BuildingBlock: XIVTED_clean_linker_0, # of connection points: 2
#     Edge 39, Type (0, 0), BuildingBlock: XIVTED_clean_linker_0, # of connection points: 2
#     Edge 40, Type (0, 0), BuildingBlock: XIVTED_clean_linker_0, # of connection points: 2
#     Edge 41, Type (0, 0), BuildingBlock: XIVTED_clean_linker_0, # of connection points: 2
#     Edge 42, Type (0, 0), BuildingBlock: XIVTED_clean_linker_0, # of connection points: 2
#     Edge 43, Type (0, 0), BuildingBlock: XIVTED_clean_linker_0, # of connection points: 2
#     Edge 44, Type (0, 0), BuildingBlock: XIVTED_clean_linker_0, # of connection points: 2
#     Edge 45, Type (0, 0), BuildingBlock: XIVTED_clean_linker_0, # of connection points: 2
#     Edge 46, Type (0, 0), BuildingBlock: XIVTED_clean_linker_0, # of connection points: 2
#     Edge 47, Type (0, 0), BuildingBlock: XIVTED_clean_linker_0, # of connection points: 2
# Relax obj value: 0.083
# Max RMSD: 0.169
# Mean RMSD: 0.169
data_MOF--net-umc--node1-CEKHIL_clean_sbu_0--edge1-XIVTED_clean_linker_0
_symmetry_space_group_name_H-M    P1
_symmetry_Int_Tables_number       1
_symmetry_cell_setting            triclinic
loop_
_symmetry_equiv_pos_as_xyz
'x, y, z'
_cell_length_a     45.556772
_cell_length_b     33.010929
_cell_length_c     55.669235
_cell_angle_alpha  90.004078
_cell_angle_beta   89.994975
_cell_angle_gamma 89.983089
loop_
_atom_site_label
_atom_site_type_symbol
_atom_site_fract_x
_atom_site_fract_y
_atom_site_fract_z
_atom_type_partial_charge
Co0 Co 0.33618 0.06678 0.36928 0.0
O1 O 0.29924 0.09461 0.36781 0.0
O2 O 0.33916 0.11947 0.38492 0.0
C3 C 0.33713 0.04762 0.33064 0.0
O4 O 0.37846 0.04569 0.37317 0.0
Co5 Co 0.3357 0.97385 0.36115 0.0
O6 O 0.37887 0.98052 0.36106 0.0
C7 C 0.31542 0.00598 0.4072 0.0
C8 C 0.31157 0.12411 0.37932 0.0
C9 C 0.39211 0.01232 0.36823 0.0
O10 O 0.32386 0.04128 0.4004 0.0
O11 O 0.31655 0.97466 0.39369 0.0
O12 O 0.34563 0.08369 0.33681 0.0
O13 O 0.32541 0.02609 0.34754 0.0
Co14 Co 0.66845 0.93647 0.3693 0.0
O15 O 0.70538 0.90858 0.36794 0.0
O16 O 0.66538 0.88379 0.38495 0.0
C17 C 0.66775 0.95547 0.33062 0.0
O18 O 0.62617 0.95759 0.37307 0.0
Co19 Co 0.66894 0.02935 0.36097 0.0
O20 O 0.62576 0.02276 0.36095 0.0
C21 C 0.68918 0.99745 0.40711 0.0
C22 C 0.69298 0.87907 0.37938 0.0
C23 C 0.61252 0.99096 0.36813 0.0
O24 O 0.68065 0.96212 0.40043 0.0
O25 O 0.6882 0.02861 0.39346 0.0
O26 O 0.65914 0.91946 0.33681 0.0
O27 O 0.67936 0.97706 0.34755 0.0
Co28 Co 0.33957 0.93266 0.12179 0.0
O29 O 0.30262 0.9048 0.12287 0.0
O30 O 0.34294 0.87979 0.10644 0.0
C31 C 0.33967 0.95228 0.16035 0.0
O32 O 0.3819 0.95367 0.11837 0.0
Co33 Co 0.33903 0.02563 0.12948 0.0
O34 O 0.38217 0.01885 0.13044 0.0
C35 C 0.31982 0.993 0.08323 0.0
C36 C 0.31525 0.87515 0.11169 0.0
C37 C 0.39552 0.98698 0.12349 0.0
O38 O 0.32793 0.95773 0.09036 0.0
O39 O 0.32075 0.0245 0.0966 0.0
O40 O 0.34833 0.91616 0.15444 0.0
O41 O 0.32831 0.97364 0.1432 0.0
Co42 Co 0.67159 0.06833 0.12144 0.0
O43 O 0.70853 0.09623 0.12274 0.0
O44 O 0.66845 0.12098 0.10582 0.0
C45 C 0.67084 0.04927 0.16009 0.0
O46 O 0.6293 0.04731 0.11778 0.0
Co47 Co 0.672 0.97545 0.12962 0.0
O48 O 0.62885 0.98226 0.1301 0.0
C49 C 0.69178 0.00736 0.08336 0.0
C50 C 0.69604 0.12575 0.11134 0.0
C51 C 0.61561 0.01407 0.12293 0.0
O52 O 0.68367 0.04276 0.09026 0.0
O53 O 0.69063 0.97605 0.09687 0.0
O54 O 0.66236 0.08534 0.15391 0.0
O55 O 0.68249 0.02764 0.14319 0.0
Co56 Co 0.67086 0.93498 0.62101 0.0
O57 O 0.70802 0.90767 0.62249 0.0
O58 O 0.66828 0.88214 0.60546 0.0
C59 C 0.66989 0.9542 0.65963 0.0
O60 O 0.62841 0.95544 0.61711 0.0
Co61 Co 0.67056 0.02789 0.62909 0.0
O62 O 0.62745 0.02059 0.62926 0.0
C63 C 0.69107 0.996 0.58302 0.0
C64 C 0.6959 0.8779 0.61107 0.0
C65 C 0.61447 0.98859 0.62207 0.0
O66 O 0.68295 0.96056 0.58984 0.0
O67 O 0.68968 0.02731 0.59653 0.0
O68 O 0.66159 0.91803 0.6535 0.0
O69 O 0.68139 0.97587 0.6427 0.0
Co70 Co 0.33786 0.06722 0.62086 0.0
O71 O 0.30068 0.09453 0.62229 0.0
O72 O 0.34043 0.11998 0.60523 0.0
C73 C 0.33885 0.0481 0.65951 0.0
O74 O 0.38031 0.04676 0.61701 0.0
Co75 Co 0.33816 0.97427 0.62914 0.0
O76 O 0.38128 0.98162 0.62918 0.0
C77 C 0.31749 0.00596 0.58307 0.0
C78 C 0.31281 0.12426 0.61084 0.0
C79 C 0.39425 0.01362 0.62197 0.0
O80 O 0.3258 0.04141 0.58973 0.0
O81 O 0.31873 0.97483 0.59672 0.0
O82 O 0.34709 0.08429 0.65336 0.0
O83 O 0.32737 0.0264 0.64258 0.0
Co84 Co 0.67157 0.06675 0.86892 0.0
O85 O 0.70855 0.09457 0.86795 0.0
O86 O 0.6683 0.11936 0.88459 0.0
C87 C 0.67126 0.04785 0.83024 0.0
O88 O 0.62923 0.04581 0.87225 0.0
Co89 Co 0.67196 0.97391 0.86059 0.0
O90 O 0.62882 0.98082 0.85982 0.0
C91 C 0.69133 0.00559 0.90704 0.0
C92 C 0.69596 0.12409 0.87927 0.0
C93 C 0.61555 0.01262 0.86696 0.0
O94 O 0.68324 0.04102 0.90016 0.0
O95 O 0.69039 0.97438 0.89342 0.0
O96 O 0.66273 0.08391 0.83641 0.0
O97 O 0.68268 0.02614 0.84721 0.0
Co98 Co 0.33922 0.93273 0.86825 0.0
O99 O 0.30215 0.90512 0.86726 0.0
O100 O 0.34239 0.87991 0.88368 0.0
C101 C 0.33941 0.95215 0.82965 0.0
O102 O 0.38163 0.95342 0.87157 0.0
Co103 Co 0.33905 0.02571 0.86027 0.0
O104 O 0.38217 0.01858 0.85945 0.0
C105 C 0.31985 0.99358 0.90667 0.0
C106 C 0.31469 0.8754 0.87842 0.0
C107 C 0.39538 0.98662 0.86644 0.0
O108 O 0.32778 0.95816 0.89964 0.0
O109 O 0.3208 0.02491 0.89316 0.0
O110 O 0.34787 0.91596 0.83561 0.0
O111 O 0.32814 0.97367 0.84676 0.0
Co112 Co 0.83755 0.5692 0.36915 0.0
O113 O 0.80051 0.59686 0.36765 0.0
O114 O 0.84045 0.6221 0.38452 0.0
C115 C 0.83839 0.54943 0.33064 0.0
O116 O 0.87992 0.54849 0.37303 0.0
Co117 Co 0.8376 0.4761 0.36133 0.0
O118 O 0.88073 0.48324 0.36109 0.0
C119 C 0.81701 0.50865 0.40723 0.0
C120 C 0.81284 0.62658 0.37896 0.0
C121 C 0.89378 0.51526 0.36814 0.0
O122 O 0.82543 0.54396 0.4004 0.0
O123 O 0.81821 0.47729 0.39376 0.0
O124 O 0.84678 0.58568 0.33654 0.0
O125 O 0.82687 0.52811 0.3477 0.0
Co126 Co 0.17024 0.43641 0.36948 0.0
O127 O 0.20735 0.40894 0.36824 0.0
O128 O 0.16749 0.38391 0.38536 0.0
C129 C 0.16935 0.45493 0.33075 0.0
O130 O 0.12784 0.45707 0.37317 0.0
Co131 Co 0.17013 0.5292 0.36079 0.0
O132 O 0.127 0.52199 0.3606 0.0
C133 C 0.19056 0.49807 0.40705 0.0
C134 C 0.19511 0.37944 0.37981 0.0
C135 C 0.11396 0.49015 0.36796 0.0
O136 O 0.18228 0.46257 0.40049 0.0
O137 O 0.18935 0.52909 0.3933 0.0
O138 O 0.16102 0.41888 0.33709 0.0
O139 O 0.18087 0.47687 0.34756 0.0
Co140 Co 0.8386 0.43721 0.12137 0.0
O141 O 0.80174 0.40914 0.1227 0.0
O142 O 0.84197 0.38433 0.10604 0.0
C143 C 0.83904 0.45702 0.15988 0.0
O144 O 0.88084 0.45839 0.11767 0.0
Co145 Co 0.83795 0.53032 0.12915 0.0
O146 O 0.88113 0.52367 0.12958 0.0
C147 C 0.81794 0.49747 0.08316 0.0
C148 C 0.81435 0.37953 0.11149 0.0
C149 C 0.89444 0.49179 0.1226 0.0
O150 O 0.82658 0.46229 0.09004 0.0
O151 O 0.81874 0.52883 0.09666 0.0
O152 O 0.8477 0.42086 0.15402 0.0
O153 O 0.8275 0.4782 0.14276 0.0
Co154 Co 0.171 0.56556 0.1212 0.0
O155 O 0.20802 0.5932 0.12255 0.0
O156 O 0.16814 0.61808 0.10537 0.0
C157 C 0.17001 0.54689 0.1599 0.0
O158 O 0.12867 0.54474 0.11742 0.0
Co159 Co 0.17119 0.47274 0.12974 0.0
O160 O 0.12804 0.4797 0.12979 0.0
C161 C 0.19151 0.50414 0.08352 0.0
C162 C 0.19572 0.62269 0.11099 0.0
C163 C 0.11491 0.51152 0.1225 0.0
O164 O 0.18318 0.53958 0.09016 0.0
O165 O 0.19038 0.47305 0.09721 0.0
O166 O 0.16163 0.58294 0.15358 0.0
O167 O 0.18167 0.52507 0.1431 0.0
Co168 Co 0.17085 0.43659 0.62088 0.0
O169 O 0.20788 0.40893 0.62235 0.0
O170 O 0.168 0.38376 0.60536 0.0
C171 C 0.16997 0.45594 0.65948 0.0
O172 O 0.12851 0.45749 0.61703 0.0
Co173 Co 0.17113 0.5296 0.62896 0.0
O174 O 0.12799 0.52265 0.62919 0.0
C175 C 0.19142 0.49739 0.58291 0.0
C176 C 0.19561 0.37927 0.61094 0.0
C177 C 0.11479 0.49081 0.62202 0.0
O178 O 0.18305 0.46205 0.58971 0.0
O179 O 0.19026 0.52871 0.59642 0.0
O180 O 0.16153 0.4198 0.65341 0.0
O181 O 0.18158 0.47742 0.64252 0.0
Co182 Co 0.83828 0.56587 0.62116 0.0
O183 O 0.80123 0.59344 0.6227 0.0
O184 O 0.84109 0.61884 0.60579 0.0
C185 C 0.83916 0.54615 0.65968 0.0
O186 O 0.88063 0.54505 0.61724 0.0
Co187 Co 0.83797 0.47276 0.62893 0.0
O188 O 0.88112 0.47967 0.62901 0.0
C189 C 0.81754 0.50547 0.58305 0.0
C190 C 0.81347 0.62321 0.61137 0.0
C191 C 0.89432 0.51163 0.62202 0.0
O192 O 0.82615 0.54067 0.5899 0.0
O193 O 0.81851 0.4741 0.59653 0.0
O194 O 0.84756 0.58238 0.65375 0.0
O195 O 0.82757 0.52484 0.64263 0.0
Co196 Co 0.17077 0.56491 0.86941 0.0
O197 O 0.20771 0.59275 0.86776 0.0
O198 O 0.16778 0.61783 0.88476 0.0
C199 C 0.1698 0.5452 0.83088 0.0
O200 O 0.12849 0.54398 0.87342 0.0
Co201 Co 0.17111 0.47187 0.86168 0.0
O202 O 0.12795 0.47867 0.86157 0.0
C203 C 0.19153 0.50454 0.90757 0.0
C204 C 0.19535 0.62245 0.87908 0.0
C205 C 0.11477 0.51061 0.86862 0.0
O206 O 0.18311 0.53981 0.90065 0.0
O207 O 0.19035 0.4731 0.89417 0.0
O208 O 0.1613 0.58136 0.83686 0.0
O209 O 0.18152 0.52389 0.84788 0.0
Co210 Co 0.83858 0.4354 0.86921 0.0
O211 O 0.80177 0.40723 0.86768 0.0
O212 O 0.84188 0.38258 0.88462 0.0
C213 C 0.83932 0.45507 0.83068 0.0
O214 O 0.88076 0.45673 0.87312 0.0
Co215 Co 0.83783 0.52846 0.86138 0.0
O216 O 0.88102 0.52195 0.86109 0.0
C217 C 0.81751 0.49566 0.90727 0.0
C218 C 0.81431 0.37771 0.87903 0.0
C219 C 0.89434 0.49015 0.86819 0.0
O220 O 0.8262 0.46048 0.90043 0.0
O221 O 0.81848 0.52706 0.89382 0.0
O222 O 0.848 0.41897 0.83664 0.0
O223 O 0.82758 0.47628 0.84771 0.0
H224 H 0.29239 0.06447 0.43594 0.0
H225 H 0.31587 0.93657 0.55568 0.0
H226 H 0.31662 0.93806 0.4358 0.0
H227 H 0.29705 0.06469 0.55311 0.0
H228 H 0.30678 0.9325 0.51233 0.0
H229 H 0.28411 0.06076 0.47903 0.0
C230 C 0.29568 0.03576 0.44498 0.0
C231 C 0.30575 0.00171 0.43237 0.0
C232 C 0.30424 0.96134 0.52136 0.0
C233 C 0.29671 0.99735 0.4819 0.0
C234 C 0.30934 0.96367 0.5461 0.0
C235 C 0.30777 0.00118 0.55792 0.0
C236 C 0.29741 0.99675 0.50851 0.0
C237 C 0.29911 0.03528 0.54466 0.0
C238 C 0.29093 0.03363 0.46962 0.0
C239 C 0.30909 0.96511 0.44491 0.0
N240 N 0.29456 0.0323 0.52067 0.0
N241 N 0.30509 0.96404 0.46913 0.0
H242 H 0.71413 0.93776 0.5541 0.0
H243 H 0.69077 0.06664 0.43467 0.0
H244 H 0.68969 0.0641 0.55458 0.0
H245 H 0.70953 0.93849 0.43692 0.0
H246 H 0.69974 0.07035 0.47807 0.0
H247 H 0.72241 0.94184 0.51102 0.0
C248 C 0.71079 0.96654 0.54514 0.0
C249 C 0.70066 1.00046 0.55784 0.0
C250 C 0.7023 0.04159 0.46895 0.0
C251 C 0.70972 0.00524 0.50832 0.0
C252 C 0.69727 0.03947 0.4442 0.0
C253 C 0.69886 0.00205 0.43228 0.0
C254 C 0.70908 0.00607 0.48172 0.0
C255 C 0.70746 0.96783 0.44546 0.0
C256 C 0.71554 0.96887 0.52051 0.0
C257 C 0.69726 0.03714 0.54539 0.0
N258 N 0.71195 0.97062 0.46946 0.0
N259 N 0.70127 0.03841 0.52118 0.0
H260 H 0.29815 0.93385 0.05425 0.0
H261 H 0.31902 0.06266 0.93439 0.0
H262 H 0.3208 0.06082 0.05449 0.0
H263 H 0.30068 0.93441 0.93688 0.0
H264 H 0.3112 0.06623 0.97794 0.0
H265 H 0.29011 0.93738 0.01114 0.0
C266 C 0.30118 0.96264 0.04523 0.0
C267 C 0.31066 0.99694 0.0579 0.0
C268 C 0.3085 0.03747 0.96885 0.0
C269 C 0.30182 0.00111 0.00832 0.0
C270 C 0.31287 0.03543 0.944 0.0
C271 C 0.31099 0.99804 0.93207 0.0
C272 C 0.30212 0.00191 0.9817 0.0
C273 C 0.3029 0.96375 0.94539 0.0
C274 C 0.29655 0.96466 0.02057 0.0
C275 C 0.31369 0.03359 0.04535 0.0
N276 N 0.29904 0.96647 0.96947 0.0
N277 N 0.30976 0.03459 0.02112 0.0
H278 H 0.69187 0.93656 0.9348 0.0
H279 H 0.71429 0.06578 0.0543 0.0
H280 H 0.7114 0.06448 0.93701 0.0
H281 H 0.6904 0.93926 0.05488 0.0
H282 H 0.72246 0.0617 0.01121 0.0
H283 H 0.70002 0.93304 0.97832 0.0
C284 C 0.69837 0.96371 0.94434 0.0
C285 C 0.70045 1.00102 0.93236 0.0
C286 C 0.71573 0.03463 0.02071 0.0
C287 C 0.70971 0.99722 0.98194 0.0
C288 C 0.71103 0.03697 0.04535 0.0
C289 C 0.70115 0.00298 0.0581 0.0
C290 C 0.7101 0.99818 0.00856 0.0
C291 C 0.69782 0.96626 0.04567 0.0
C292 C 0.70292 0.9617 0.96917 0.0
C293 C 0.70899 0.03522 0.94557 0.0
N294 N 0.7018 0.96497 0.02144 0.0
N295 N 0.71302 0.03254 0.96964 0.0
H296 H 0.81562 0.43665 0.5552 0.0
H297 H 0.79488 0.56743 0.43628 0.0
H298 H 0.79751 0.565 0.5535 0.0
H299 H 0.81705 0.4403 0.43544 0.0
H300 H 0.78611 0.56313 0.47929 0.0
H301 H 0.80688 0.43363 0.51176 0.0
C302 C 0.8093 0.46401 0.54579 0.0
C303 C 0.80785 0.50128 0.55787 0.0
C304 C 0.79258 0.53598 0.46973 0.0
C305 C 0.79793 0.49806 0.50839 0.0
C306 C 0.79763 0.53845 0.44515 0.0
C307 C 0.80725 0.50434 0.43237 0.0
C308 C 0.79761 0.49927 0.48179 0.0
C309 C 0.80989 0.4674 0.44468 0.0
C310 C 0.80441 0.46229 0.52101 0.0
C311 C 0.79948 0.53576 0.54483 0.0
N312 N 0.8056 0.46598 0.46885 0.0
N313 N 0.79515 0.53337 0.5208 0.0
H314 H 0.21447 0.439 0.5541 0.0
H315 H 0.19131 0.56739 0.43454 0.0
H316 H 0.19027 0.56543 0.55443 0.0
H317 H 0.21163 0.4397 0.43691 0.0
H318 H 0.20002 0.57135 0.47796 0.0
H319 H 0.22306 0.44302 0.51106 0.0
C320 C 0.21124 0.46778 0.54511 0.0
C321 C 0.20111 0.50175 0.55775 0.0
C322 C 0.20299 0.54265 0.46887 0.0
C323 C 0.21052 0.50648 0.50828 0.0
C324 C 0.19811 0.54039 0.44409 0.0
C325 C 0.2002 0.50299 0.43221 0.0
C326 C 0.2101 0.50729 0.48167 0.0
C327 C 0.20917 0.469 0.44542 0.0
C328 C 0.21618 0.47009 0.5205 0.0
C329 C 0.19785 0.53844 0.54528 0.0
N330 N 0.21348 0.4719 0.46944 0.0
N331 N 0.20203 0.53968 0.52109 0.0
H332 H 0.79548 0.43658 0.93612 0.0
H333 H 0.8156 0.56647 0.05549 0.0
H334 H 0.81735 0.5638 0.93569 0.0
H335 H 0.79861 0.43785 0.05334 0.0
H336 H 0.8069 0.56977 0.01206 0.0
H337 H 0.78676 0.44044 0.97915 0.0
C338 C 0.79817 0.46549 0.94508 0.0
C339 C 0.8077 0.49976 0.93241 0.0
C340 C 0.80467 0.54098 0.02121 0.0
C341 C 0.79812 0.5043 0.98186 0.0
C342 C 0.80955 0.53909 0.04598 0.0
C343 C 0.80838 0.50169 0.05794 0.0
C344 C 0.79849 0.50524 0.00846 0.0
C345 C 0.80035 0.4672 0.04478 0.0
C346 C 0.79315 0.4677 0.96968 0.0
C347 C 0.81026 0.53658 0.94485 0.0
N348 N 0.79601 0.46977 0.02075 0.0
N349 N 0.80601 0.53775 0.96903 0.0
H350 H 0.19263 0.43484 0.05603 0.0
H351 H 0.21407 0.56341 0.93631 0.0
H352 H 0.21194 0.5628 0.05356 0.0
H353 H 0.19102 0.43659 0.93614 0.0
H354 H 0.22281 0.55964 0.97934 0.0
H355 H 0.20108 0.43099 0.01257 0.0
C356 C 0.19916 0.46193 0.04644 0.0
C357 C 0.20104 0.49936 0.05832 0.0
C358 C 0.21615 0.53244 0.96993 0.0
C359 C 0.21063 0.49519 0.0088 0.0
C360 C 0.21112 0.5346 0.94533 0.0
C361 C 0.20128 0.50044 0.93273 0.0
C362 C 0.21088 0.49598 0.98219 0.0
C363 C 0.19837 0.46373 0.94524 0.0
C364 C 0.20388 0.45974 0.02165 0.0
C365 C 0.20965 0.53347 0.04506 0.0
N366 N 0.20265 0.46261 0.96943 0.0
N367 N 0.21382 0.53062 0.02102 0.0
H368 H 0.57909 0.05966 0.36917 0.0
H369 H 0.42556 0.94363 0.36901 0.0
H370 H 0.57167 0.92947 0.37346 0.0
H371 H 0.43295 0.07378 0.37376 0.0
H372 H 0.4787 0.93805 0.3713 0.0
H373 H 0.52595 0.06524 0.37152 0.0
C374 C 0.56632 0.0321 0.37064 0.0
C375 C 0.58007 0.99389 0.37091 0.0
C376 C 0.46879 0.96784 0.37196 0.0
C377 C 0.51866 1.00035 0.37359 0.0
C378 C 0.43832 0.97118 0.37057 0.0
C379 C 0.42456 0.00939 0.37098 0.0
C380 C 0.48598 0.00292 0.3736 0.0
C381 C 0.44248 0.04375 0.37332 0.0
C382 C 0.53586 0.03544 0.37206 0.0
C383 C 0.56215 0.95951 0.37313 0.0
N384 N 0.47225 0.03971 0.37435 0.0
N385 N 0.53238 0.96355 0.3742 0.0
H386 H 0.43604 0.92543 0.11702 0.0
H387 H 0.57504 0.07586 0.11779 0.0
H388 H 0.42932 0.05535 0.12435 0.0
H389 H 0.58194 0.94562 0.12235 0.0
H390 H 0.52141 0.06908 0.11589 0.0
H391 H 0.48964 0.93229 0.11474 0.0
C392 C 0.44573 0.95534 0.11805 0.0
C393 C 0.42801 0.98974 0.12108 0.0
C394 C 0.53475 0.04201 0.11723 0.0
C395 C 0.48933 0.9979 0.11839 0.0
C396 C 0.56537 0.04591 0.11824 0.0
C397 C 0.58314 0.01137 0.12043 0.0
C398 C 0.52179 0.00329 0.11822 0.0
C399 C 0.56925 0.97325 0.12093 0.0
C400 C 0.47634 0.95927 0.11679 0.0
C401 C 0.44195 0.0278 0.12226 0.0
N402 N 0.53954 0.97028 0.11988 0.0
N403 N 0.47164 0.03081 0.12094 0.0
H404 H 0.57428 0.92652 0.61596 0.0
H405 H 0.43445 0.07574 0.61613 0.0
H406 H 0.58037 0.0567 0.62179 0.0
H407 H 0.42833 0.94551 0.62143 0.0
H408 H 0.4881 0.06942 0.6138 0.0
H409 H 0.52064 0.93287 0.61357 0.0
C410 C 0.56444 0.95637 0.6166 0.0
C411 C 0.58199 0.99101 0.61931 0.0
C412 C 0.47493 0.04225 0.6154 0.0
C413 C 0.52062 0.99858 0.61652 0.0
C414 C 0.44429 0.04588 0.61666 0.0
C415 C 0.42673 0.01122 0.6192 0.0
C416 C 0.48811 0.00367 0.61649 0.0
C417 C 0.44085 0.97323 0.61976 0.0
C418 C 0.5338 0.96001 0.6153 0.0
C419 C 0.56787 0.02898 0.62 0.0
N420 N 0.47056 0.97053 0.61847 0.0
N421 N 0.53816 0.0317 0.61867 0.0
H422 H 0.57512 0.0744 0.87286 0.0
H423 H 0.43574 0.92468 0.87215 0.0
H424 H 0.58166 0.94434 0.86647 0.0
H425 H 0.42932 0.05484 0.86635 0.0
H426 H 0.48937 0.9312 0.87434 0.0
H427 H 0.52149 0.06781 0.87477 0.0
C428 C 0.56538 0.04452 0.87198 0.0
C429 C 0.58305 0.00999 0.8693 0.0
C430 C 0.47614 0.9583 0.87264 0.0
C431 C 0.52169 0.00213 0.87154 0.0
C432 C 0.44551 0.95456 0.87146 0.0
C433 C 0.42787 0.98915 0.86886 0.0
C434 C 0.48922 0.99691 0.87144 0.0
C435 C 0.4419 0.02717 0.86808 0.0
C436 C 0.53475 0.04074 0.87301 0.0
C437 C 0.56905 0.97197 0.86829 0.0
N438 N 0.4716 0.02998 0.86933 0.0
N439 N 0.53934 0.96911 0.86937 0.0
H440 H 0.93399 0.5774 0.37365 0.0
H441 H 0.07378 0.42822 0.37445 0.0
H442 H 0.92784 0.44712 0.36881 0.0
H443 H 0.07987 0.55826 0.3677 0.0
H444 H 0.02015 0.43459 0.37679 0.0
H445 H 0.98764 0.5711 0.37588 0.0
C446 C 0.94382 0.54754 0.37319 0.0
C447 C 0.92626 0.51285 0.37082 0.0
C448 C 0.03331 0.46171 0.37487 0.0
C449 C 0.98763 0.50533 0.37342 0.0
C450 C 0.06394 0.45805 0.37359 0.0
C451 C 0.08149 0.49264 0.37066 0.0
C452 C 0.02013 0.50024 0.37339 0.0
C453 C 0.06737 0.53059 0.36969 0.0
C454 C 0.97446 0.54392 0.3744 0.0
C455 C 0.94036 0.47486 0.37035 0.0
N456 N 0.03766 0.53333 0.371 0.0
N457 N 0.97008 0.47216 0.37159 0.0
H458 H 0.08124 0.4431 0.12142 0.0
H459 H 0.92814 0.56028 0.12251 0.0
H460 H 0.07431 0.57338 0.11741 0.0
H461 H 0.9351 0.43018 0.11681 0.0
H462 H 0.9813 0.56551 0.12025 0.0
H463 H 0.02806 0.43798 0.11928 0.0
C464 C 0.06857 0.47078 0.12005 0.0
C465 C 0.08246 0.50887 0.1198 0.0
C466 C 0.97128 0.53581 0.11938 0.0
C467 C 0.02102 0.50295 0.11735 0.0
C468 C 0.9408 0.53267 0.12075 0.0
C469 C 0.92692 0.49458 0.12004 0.0
C470 C 0.98835 0.50064 0.11744 0.0
C471 C 0.94472 0.46013 0.11748 0.0
C472 C 0.03809 0.4677 0.11875 0.0
C473 C 0.06467 0.54342 0.11771 0.0
N474 N 0.9745 0.46397 0.11645 0.0
N475 N 0.03488 0.53964 0.11676 0.0
H476 H 0.92784 0.44303 0.62069 0.0
H477 H 0.08124 0.5594 0.62153 0.0
H478 H 0.93512 0.5733 0.61708 0.0
H479 H 0.07401 0.42927 0.61634 0.0
H480 H 0.0281 0.56488 0.61926 0.0
H481 H 0.98099 0.43759 0.61845 0.0
C482 C 0.94057 0.47064 0.61939 0.0
C483 C 0.92678 0.50883 0.61928 0.0
C484 C 0.03805 0.53511 0.61851 0.0
C485 C 0.98821 0.50252 0.61671 0.0
C486 C 0.06852 0.53182 0.61988 0.0
C487 C 0.08233 0.49366 0.61932 0.0
C488 C 0.0209 0.50001 0.61673 0.0
C489 C 0.06445 0.45927 0.61689 0.0
C490 C 0.97105 0.46738 0.61803 0.0
C491 C 0.94467 0.54327 0.61727 0.0
N492 N 0.03467 0.46326 0.61586 0.0
N493 N 0.97446 0.5393 0.61625 0.0
H494 H 0.08123 0.4421 0.87025 0.0
H495 H 0.92791 0.55876 0.86818 0.0
H496 H 0.07404 0.57243 0.87321 0.0
H497 H 0.93508 0.42873 0.87434 0.0
H498 H 0.98105 0.5642 0.87057 0.0
H499 H 0.02806 0.43683 0.87236 0.0
C500 C 0.06851 0.46976 0.87138 0.0
C501 C 0.08232 0.5079 0.87134 0.0
C502 C 0.97108 0.53447 0.87151 0.0
C503 C 0.02089 0.50181 0.87375 0.0
C504 C 0.94061 0.5312 0.87007 0.0
C505 C 0.9268 0.49307 0.87087 0.0
C506 C 0.98821 0.49938 0.87361 0.0
C507 C 0.94465 0.45871 0.87359 0.0
C508 C 0.03802 0.4666 0.87266 0.0
C509 C 0.06446 0.54243 0.87314 0.0
N510 N 0.97442 0.46267 0.87469 0.0
N511 N 0.03467 0.53856 0.87408 0.0
H512 H 0.2545 0.37189 0.38125 0.0
H513 H 0.25221 0.13179 0.38089 0.0
H514 H 0.17496 0.30291 0.39078 0.0
H515 H 0.33186 0.2006 0.39029 0.0
H516 H 0.22363 0.19374 0.38577 0.0
H517 H 0.28315 0.30992 0.38584 0.0
C518 C 0.24304 0.34367 0.38453 0.0
C519 C 0.21224 0.34249 0.38542 0.0
C520 C 0.24732 0.19535 0.38704 0.0
C521 C 0.24504 0.27117 0.39046 0.0
C522 C 0.26371 0.15998 0.38418 0.0
C523 C 0.29452 0.16111 0.38497 0.0
C524 C 0.26179 0.23243 0.39035 0.0
C525 C 0.30817 0.19839 0.38951 0.0
C526 C 0.25947 0.30829 0.38722 0.0
C527 C 0.19864 0.30516 0.38992 0.0
N528 N 0.29172 0.2327 0.3917 0.0
N529 N 0.21512 0.27086 0.39194 0.0
H530 H 0.67239 0.80285 0.39054 0.0
H531 H 0.83325 0.70266 0.39061 0.0
H532 H 0.75233 0.87075 0.38045 0.0
H533 H 0.75344 0.6349 0.37953 0.0
H534 H 0.80378 0.76456 0.39526 0.0
H535 H 0.7018 0.74081 0.39491 0.0
C536 C 0.69609 0.80478 0.38958 0.0
C537 C 0.70991 0.84188 0.38487 0.0
C538 C 0.79276 0.73602 0.39202 0.0
C539 C 0.74364 0.77135 0.3899 0.0
C540 C 0.80956 0.70072 0.38947 0.0
C541 C 0.79581 0.6637 0.38442 0.0
C542 C 0.762 0.7341 0.38979 0.0
C543 C 0.765 0.66291 0.38311 0.0
C544 C 0.71286 0.76941 0.39196 0.0
C545 C 0.74073 0.84268 0.38377 0.0
N546 N 0.74917 0.69753 0.38569 0.0
N547 N 0.75652 0.808 0.38617 0.0
H548 H 0.17529 0.69871 0.09921 0.0
H549 H 0.33605 0.799 0.10065 0.0
H550 H 0.2551 0.63095 0.11045 0.0
H551 H 0.25591 0.86679 0.11012 0.0
H552 H 0.30676 0.73698 0.09586 0.0
H553 H 0.20474 0.76066 0.09479 0.0
C554 C 0.19898 0.69678 0.10042 0.0
C555 C 0.21274 0.65976 0.10546 0.0
C556 C 0.29563 0.76555 0.09877 0.0
C557 C 0.24651 0.7302 0.10038 0.0
C558 C 0.31234 0.80091 0.1014 0.0
C559 C 0.29842 0.83797 0.10605 0.0
C560 C 0.26483 0.76746 0.10052 0.0
C561 C 0.26758 0.83875 0.10686 0.0
C562 C 0.21577 0.7321 0.098 0.0
C563 C 0.24354 0.65897 0.10686 0.0
N564 N 0.25186 0.80407 0.10422 0.0
N565 N 0.25935 0.69362 0.10444 0.0
H566 H 0.67516 0.20164 0.09983 0.0
H567 H 0.83539 0.30357 0.10028 0.0
H568 H 0.75539 0.13464 0.11066 0.0
H569 H 0.75502 0.37052 0.11054 0.0
H570 H 0.80636 0.24125 0.09574 0.0
H571 H 0.70425 0.2639 0.09538 0.0
C572 C 0.69886 0.19995 0.10095 0.0
C573 C 0.71285 0.16304 0.10587 0.0
C574 C 0.79512 0.26971 0.09877 0.0
C575 C 0.74621 0.23385 0.10076 0.0
C576 C 0.81167 0.30524 0.10126 0.0
C577 C 0.79762 0.34216 0.10605 0.0
C578 C 0.76434 0.2713 0.10081 0.0
C579 C 0.7668 0.34261 0.10716 0.0
C580 C 0.71545 0.23545 0.09852 0.0
C581 C 0.74366 0.16256 0.10716 0.0
N582 N 0.75123 0.30777 0.10465 0.0
N583 N 0.75928 0.19738 0.10472 0.0
H584 H 0.75533 0.87073 0.60986 0.0
H585 H 0.75408 0.63051 0.60995 0.0
H586 H 0.67609 0.8011 0.60027 0.0
H587 H 0.83343 0.70001 0.6007 0.0
H588 H 0.72524 0.69228 0.6053 0.0
H589 H 0.78424 0.80897 0.60538 0.0
C590 C 0.74399 0.84241 0.6066 0.0
C591 C 0.71319 0.841 0.60564 0.0
C592 C 0.74892 0.69407 0.60401 0.0
C593 C 0.74631 0.7699 0.60073 0.0
C594 C 0.76546 0.65881 0.60674 0.0
C595 C 0.79627 0.66017 0.60591 0.0
C596 C 0.76323 0.7313 0.6008 0.0
C597 C 0.80976 0.69761 0.6015 0.0
C598 C 0.76057 0.80715 0.60398 0.0
C599 C 0.69976 0.80354 0.60118 0.0
N600 N 0.79316 0.73181 0.59943 0.0
N601 N 0.71639 0.76936 0.59921 0.0
H602 H 0.25499 0.37183 0.60934 0.0
H603 H 0.25338 0.13162 0.60979 0.0
H604 H 0.17551 0.3025 0.60037 0.0
H605 H 0.33269 0.20093 0.59981 0.0
H606 H 0.22455 0.19344 0.60524 0.0
H607 H 0.28372 0.30995 0.60473 0.0
C608 C 0.24356 0.34355 0.6062 0.0
C609 C 0.21275 0.34227 0.60544 0.0
C610 C 0.24822 0.19517 0.60376 0.0
C611 C 0.24567 0.27101 0.60038 0.0
C612 C 0.26475 0.15988 0.60644 0.0
C613 C 0.29555 0.16118 0.60538 0.0
C614 C 0.26252 0.23235 0.60037 0.0
C615 C 0.30902 0.19857 0.60079 0.0
C616 C 0.26003 0.30822 0.60349 0.0
C617 C 0.19919 0.30484 0.60111 0.0
N618 N 0.29244 0.23279 0.59878 0.0
N619 N 0.21573 0.27058 0.59907 0.0
H620 H 0.67498 0.20006 0.89046 0.0
H621 H 0.83525 0.30187 0.89066 0.0
H622 H 0.7553 0.13289 0.88047 0.0
H623 H 0.75498 0.36873 0.87968 0.0
H624 H 0.80617 0.23962 0.8953 0.0
H625 H 0.70405 0.26233 0.89493 0.0
C626 C 0.69869 0.19833 0.88954 0.0
C627 C 0.71272 0.16137 0.88483 0.0
C628 C 0.79496 0.26805 0.89209 0.0
C629 C 0.74606 0.23219 0.88997 0.0
C630 C 0.81154 0.30353 0.88954 0.0
C631 C 0.79754 0.3404 0.88451 0.0
C632 C 0.76419 0.26963 0.88988 0.0
C633 C 0.76672 0.34085 0.88324 0.0
C634 C 0.71527 0.23384 0.89198 0.0
C635 C 0.74355 0.16084 0.88379 0.0
N636 N 0.75112 0.30605 0.88581 0.0
N637 N 0.75915 0.19567 0.88624 0.0
H638 H 0.17477 0.69858 0.89051 0.0
H639 H 0.33544 0.79924 0.8895 0.0
H640 H 0.25471 0.631 0.87947 0.0
H641 H 0.25533 0.86694 0.87965 0.0
H642 H 0.30616 0.73718 0.8941 0.0
H643 H 0.20412 0.76066 0.89479 0.0
C644 C 0.19847 0.69672 0.8893 0.0
C645 C 0.21229 0.65969 0.88438 0.0
C646 C 0.29503 0.76574 0.89114 0.0
C647 C 0.24595 0.73029 0.88932 0.0
C648 C 0.31172 0.80112 0.88863 0.0
C649 C 0.29782 0.83818 0.88394 0.0
C650 C 0.26424 0.7676 0.88923 0.0
C651 C 0.26699 0.83891 0.88296 0.0
C652 C 0.2152 0.73212 0.89164 0.0
C653 C 0.2431 0.659 0.88297 0.0
N654 N 0.25127 0.8042 0.88549 0.0
N655 N 0.25885 0.69372 0.88534 0.0
H656 H 0.34861 0.09311 0.29101 0.0
H657 H 0.35029 0.90704 0.20022 0.0
H658 H 0.3304 0.97048 0.3134 0.0
H659 H 0.33218 0.02947 0.17738 0.0
H660 H 0.35091 0.93001 0.24194 0.0
H661 H 0.35047 0.07024 0.24928 0.0
C662 C 0.34514 0.06131 0.28714 0.0
C663 C 0.33924 0.03359 0.30562 0.0
C664 C 0.34681 0.95181 0.22779 0.0
C665 C 0.34152 0.00735 0.25804 0.0
C666 C 0.34659 0.93882 0.20399 0.0
C667 C 0.34107 0.96645 0.18538 0.0
C668 C 0.34192 0.99281 0.23297 0.0
C669 C 0.33637 0.00722 0.19125 0.0
C670 C 0.34608 0.04838 0.26334 0.0
C671 C 0.33487 0.99281 0.29963 0.0
N672 N 0.337 0.01926 0.2146 0.0
N673 N 0.3362 0.98083 0.2763 0.0
H674 H 0.65921 0.09494 0.19958 0.0
H675 H 0.65684 0.90972 0.29097 0.0
H676 H 0.67741 0.97213 0.17749 0.0
H677 H 0.67515 0.03237 0.31326 0.0
H678 H 0.65628 0.93219 0.24912 0.0
H679 H 0.65698 0.07231 0.24131 0.0
C680 C 0.66261 0.06314 0.20352 0.0
C681 C 0.66862 0.03531 0.18512 0.0
C682 C 0.66039 0.95414 0.26319 0.0
C683 C 0.66591 0.00934 0.23272 0.0
C684 C 0.66058 0.94144 0.28705 0.0
C685 C 0.66617 0.96928 0.30553 0.0
C686 C 0.66539 0.99505 0.25784 0.0
C687 C 0.67092 0.00995 0.29949 0.0
C688 C 0.66145 0.05035 0.22732 0.0
C689 C 0.67288 0.99454 0.1912 0.0
N690 N 0.67033 0.0217 0.2761 0.0
N691 N 0.67134 0.98269 0.21455 0.0
H692 H 0.66015 0.09366 0.7907 0.0
H693 H 0.65887 0.90846 0.69926 0.0
H694 H 0.67805 0.97079 0.8128 0.0
H695 H 0.67698 0.03119 0.67701 0.0
H696 H 0.65795 0.93096 0.74107 0.0
H697 H 0.65843 0.07114 0.74892 0.0
C698 C 0.66359 0.06188 0.78675 0.0
C699 C 0.66936 0.03399 0.80517 0.0
C700 C 0.6621 0.95293 0.72703 0.0
C701 C 0.66723 0.00814 0.75752 0.0
C702 C 0.66249 0.94021 0.70318 0.0
C703 C 0.66812 0.96806 0.68471 0.0
C704 C 0.66694 0.99386 0.73239 0.0
C705 C 0.67272 0.00877 0.69076 0.0
C706 C 0.66272 0.04914 0.76292 0.0
C707 C 0.67369 0.99324 0.79908 0.0
N708 N 0.67194 0.02053 0.71415 0.0
N709 N 0.67244 0.98145 0.77571 0.0
H710 H 0.35053 0.90701 0.78981 0.0
H711 H 0.35004 0.09354 0.69924 0.0
H712 H 0.33243 0.02945 0.81267 0.0
H713 H 0.33238 0.97089 0.67662 0.0
H714 H 0.35161 0.07053 0.74096 0.0
H715 H 0.35191 0.93018 0.74815 0.0
C716 C 0.34698 0.93884 0.78606 0.0
C717 C 0.34123 0.96641 0.80465 0.0
C718 C 0.34742 0.04869 0.72685 0.0
C719 C 0.34296 0.993 0.75713 0.0
C720 C 0.34665 0.06171 0.70306 0.0
C721 C 0.34095 0.03402 0.68452 0.0
C722 C 0.3429 0.00763 0.73207 0.0
C723 C 0.33668 0.99319 0.69043 0.0
C724 C 0.34765 0.95195 0.76229 0.0
C725 C 0.33677 0.00724 0.7988 0.0
N726 N 0.33782 0.98115 0.71375 0.0
N727 N 0.33782 0.01938 0.77549 0.0
H728 H 0.83205 0.53455 0.17629 0.0
H729 H 0.83201 0.47184 0.31419 0.0
H730 H 0.85009 0.41258 0.20001 0.0
H731 H 0.84933 0.59404 0.29054 0.0
H732 H 0.83386 0.44924 0.27227 0.0
H733 H 0.8336 0.5572 0.21821 0.0
C734 C 0.83639 0.51262 0.19032 0.0
C735 C 0.8409 0.4717 0.18477 0.0
C736 C 0.8374 0.48095 0.27633 0.0
C737 C 0.8424 0.49713 0.23251 0.0
C738 C 0.83626 0.49383 0.30018 0.0
C739 C 0.84048 0.53481 0.30574 0.0
C740 C 0.84232 0.50941 0.258 0.0
C741 C 0.84601 0.56212 0.28698 0.0
C742 C 0.83736 0.52553 0.21417 0.0
C743 C 0.84654 0.44445 0.20356 0.0
N744 N 0.84652 0.54899 0.26389 0.0
N745 N 0.84689 0.4576 0.22664 0.0
H746 H 0.15828 0.40867 0.29136 0.0
H747 H 0.15834 0.59295 0.19925 0.0
H748 H 0.17604 0.53177 0.31307 0.0
H749 H 0.17689 0.47003 0.17757 0.0
H750 H 0.15664 0.5708 0.2411 0.0
H751 H 0.15693 0.43073 0.24947 0.0
C752 C 0.16174 0.44041 0.2873 0.0
C753 C 0.1674 0.46849 0.30564 0.0
C754 C 0.16106 0.54871 0.22717 0.0
C755 C 0.16571 0.4938 0.25788 0.0
C756 C 0.16191 0.56123 0.2033 0.0
C757 C 0.16789 0.53323 0.18499 0.0
C758 C 0.1658 0.50781 0.23271 0.0
C759 C 0.17237 0.49257 0.19121 0.0
C760 C 0.16109 0.45288 0.26341 0.0
C761 C 0.17176 0.50918 0.29942 0.0
N762 N 0.17115 0.48099 0.21462 0.0
N763 N 0.17074 0.52069 0.276 0.0
H764 H 0.17683 0.46791 0.81398 0.0
H765 H 0.17653 0.53322 0.67645 0.0
H766 H 0.15858 0.59025 0.79104 0.0
H767 H 0.15917 0.41061 0.6993 0.0
H768 H 0.17485 0.55499 0.71854 0.0
H769 H 0.17524 0.44602 0.77189 0.0
C770 C 0.17243 0.49008 0.80009 0.0
C771 C 0.16788 0.53089 0.8059 0.0
C772 C 0.17127 0.52336 0.71427 0.0
C773 C 0.16635 0.50633 0.75799 0.0
C774 C 0.17232 0.51096 0.69032 0.0
C775 C 0.16802 0.47012 0.68448 0.0
C776 C 0.16639 0.49455 0.73241 0.0
C777 C 0.16254 0.44244 0.70308 0.0
C778 C 0.17144 0.47761 0.77615 0.0
C779 C 0.16217 0.55845 0.78729 0.0
N780 N 0.16212 0.4551 0.72626 0.0
N781 N 0.16181 0.54573 0.76412 0.0
H782 H 0.83259 0.46867 0.6763 0.0
H783 H 0.83228 0.53246 0.81404 0.0
H784 H 0.85005 0.59098 0.69967 0.0
H785 H 0.85052 0.41033 0.7907 0.0
H786 H 0.8339 0.55474 0.77205 0.0
H787 H 0.83428 0.44638 0.71829 0.0
C788 C 0.83684 0.49075 0.69026 0.0
C789 C 0.84114 0.53167 0.6846 0.0
C790 C 0.83769 0.52312 0.77619 0.0
C791 C 0.8428 0.50664 0.73241 0.0
C792 C 0.83668 0.51042 0.80008 0.0
C793 C 0.84123 0.46955 0.80575 0.0
C794 C 0.84281 0.49457 0.75794 0.0
C795 C 0.84695 0.44216 0.78705 0.0
C796 C 0.83789 0.47805 0.71415 0.0
C797 C 0.84666 0.55911 0.70331 0.0
N798 N 0.84733 0.45511 0.76393 0.0
N799 N 0.84709 0.54616 0.72643 0.0
loop_
_geom_bond_atom_site_label_1
_geom_bond_atom_site_label_2
_geom_bond_distance
_geom_bond_site_symmetry_2
_ccdc_geom_bond_type
Co0 O1 2.216 . S
Co0 O2 2.091 . S
Co0 O4 2.004 . S
Co0 O10 2.021 . S
Co0 O12 2.137 . S
Co0 O13 2.252 . S
O1 Co0 2.216 . S
O1 C8 1.247 . S
O2 Co0 2.091 . S
O2 C8 1.261 . S
C3 O12 1.247 . S
C3 O13 1.275 . S
O4 Co0 2.004 . S
O4 C9 1.259 . S
Co5 O6 2.061 . S
Co5 O11 2.052 . S
Co5 O13 2.129 1_565 S
O6 Co5 2.061 . S
O6 C9 1.235 1_565 S
C7 O10 1.238 . S
C7 O11 1.241 1_545 S
C8 O1 1.247 . S
C8 O2 1.261 . S
C9 O4 1.259 . S
C9 O6 1.235 1_545 S
O10 Co0 2.021 . S
O10 C7 1.238 . S
O11 Co5 2.052 . S
O11 C7 1.241 1_565 S
O12 Co0 2.137 . S
O12 C3 1.247 . S
O13 Co0 2.252 . S
O13 C3 1.275 . S
O13 Co5 2.129 1_545 S
Co14 O15 2.216 . S
Co14 O16 2.091 . S
Co14 O18 2.004 . S
Co14 O24 2.021 . S
Co14 O26 2.137 . S
Co14 O27 2.253 . S
O15 Co14 2.216 . S
O15 C22 1.247 . S
O16 Co14 2.091 . S
O16 C22 1.261 . S
C17 O26 1.247 . S
C17 O27 1.276 . S
O18 Co14 2.004 . S
O18 C23 1.259 . S
Co19 O20 2.061 . S
Co19 O25 2.052 . S
Co19 O27 2.128 1_545 S
O20 Co19 2.061 . S
O20 C23 1.235 1_545 S
C21 O24 1.238 . S
C21 O25 1.241 1_565 S
C22 O15 1.247 . S
C22 O16 1.261 . S
C23 O18 1.259 . S
C23 O20 1.235 1_565 S
O24 Co14 2.021 . S
O24 C21 1.238 . S
O25 Co19 2.052 . S
O25 C21 1.241 1_545 S
O26 Co14 2.137 . S
O26 C17 1.247 . S
O27 Co14 2.253 . S
O27 C17 1.276 . S
O27 Co19 2.128 1_565 S
Co28 O29 2.216 . S
Co28 O30 2.091 . S
Co28 O32 2.004 . S
Co28 O38 2.021 . S
Co28 O40 2.137 . S
Co28 O41 2.252 . S
O29 Co28 2.216 . S
O29 C36 1.247 . S
O30 Co28 2.091 . S
O30 C36 1.261 . S
C31 O40 1.247 . S
C31 O41 1.275 . S
O32 Co28 2.004 . S
O32 C37 1.259 . S
Co33 O34 2.061 . S
Co33 O39 2.052 . S
Co33 O41 2.129 1_545 S
O34 Co33 2.061 . S
O34 C37 1.235 1_545 S
C35 O38 1.238 . S
C35 O39 1.241 1_565 S
C36 O29 1.247 . S
C36 O30 1.261 . S
C37 O32 1.259 . S
C37 O34 1.235 1_565 S
O38 Co28 2.021 . S
O38 C35 1.238 . S
O39 Co33 2.052 . S
O39 C35 1.241 1_545 S
O40 Co28 2.137 . S
O40 C31 1.247 . S
O41 Co28 2.252 . S
O41 C31 1.275 . S
O41 Co33 2.129 1_565 S
Co42 O43 2.216 . S
Co42 O44 2.091 . S
Co42 O46 2.004 . S
Co42 O52 2.021 . S
Co42 O54 2.137 . S
Co42 O55 2.253 . S
O43 Co42 2.216 . S
O43 C50 1.247 . S
O44 Co42 2.091 . S
O44 C50 1.261 . S
C45 O54 1.247 . S
C45 O55 1.276 . S
O46 Co42 2.004 . S
O46 C51 1.259 . S
Co47 O48 2.061 . S
Co47 O53 2.052 . S
Co47 O55 2.128 1_565 S
O48 Co47 2.061 . S
O48 C51 1.235 1_565 S
C49 O52 1.238 . S
C49 O53 1.241 1_545 S
C50 O43 1.247 . S
C50 O44 1.261 . S
C51 O46 1.259 . S
C51 O48 1.235 1_545 S
O52 Co42 2.021 . S
O52 C49 1.238 . S
O53 Co47 2.052 . S
O53 C49 1.241 1_565 S
O54 Co42 2.137 . S
O54 C45 1.247 . S
O55 Co42 2.253 . S
O55 C45 1.276 . S
O55 Co47 2.128 1_545 S
Co56 O57 2.216 . S
Co56 O58 2.091 . S
Co56 O60 2.004 . S
Co56 O66 2.021 . S
Co56 O68 2.137 . S
Co56 O69 2.252 . S
O57 Co56 2.216 . S
O57 C64 1.247 . S
O58 Co56 2.091 . S
O58 C64 1.261 . S
C59 O68 1.247 . S
C59 O69 1.275 . S
O60 Co56 2.004 . S
O60 C65 1.259 . S
Co61 O62 2.061 . S
Co61 O67 2.052 . S
Co61 O69 2.129 1_545 S
O62 Co61 2.061 . S
O62 C65 1.235 1_545 S
C63 O66 1.238 . S
C63 O67 1.241 1_565 S
C64 O57 1.247 . S
C64 O58 1.261 . S
C65 O60 1.259 . S
C65 O62 1.235 1_565 S
O66 Co56 2.021 . S
O66 C63 1.238 . S
O67 Co61 2.052 . S
O67 C63 1.241 1_545 S
O68 Co56 2.137 . S
O68 C59 1.247 . S
O69 Co56 2.252 . S
O69 C59 1.275 . S
O69 Co61 2.129 1_565 S
Co70 O71 2.216 . S
Co70 O72 2.091 . S
Co70 O74 2.004 . S
Co70 O80 2.021 . S
Co70 O82 2.137 . S
Co70 O83 2.253 . S
O71 Co70 2.216 . S
O71 C78 1.247 . S
O72 Co70 2.091 . S
O72 C78 1.261 . S
C73 O82 1.247 . S
C73 O83 1.276 . S
O74 Co70 2.004 . S
O74 C79 1.259 . S
Co75 O76 2.061 . S
Co75 O81 2.052 . S
Co75 O83 2.128 1_565 S
O76 Co75 2.061 . S
O76 C79 1.235 1_565 S
C77 O80 1.238 . S
C77 O81 1.241 1_545 S
C78 O71 1.247 . S
C78 O72 1.261 . S
C79 O74 1.259 . S
C79 O76 1.235 1_545 S
O80 Co70 2.021 . S
O80 C77 1.238 . S
O81 Co75 2.052 . S
O81 C77 1.241 1_565 S
O82 Co70 2.137 . S
O82 C73 1.247 . S
O83 Co70 2.253 . S
O83 C73 1.276 . S
O83 Co75 2.128 1_545 S
Co84 O85 2.216 . S
Co84 O86 2.091 . S
Co84 O88 2.004 . S
Co84 O94 2.021 . S
Co84 O96 2.137 . S
Co84 O97 2.252 . S
O85 Co84 2.216 . S
O85 C92 1.247 . S
O86 Co84 2.091 . S
O86 C92 1.261 . S
C87 O96 1.247 . S
C87 O97 1.275 . S
O88 Co84 2.004 . S
O88 C93 1.259 . S
Co89 O90 2.061 . S
Co89 O95 2.052 . S
Co89 O97 2.129 1_565 S
O90 Co89 2.061 . S
O90 C93 1.235 1_565 S
C91 O94 1.238 . S
C91 O95 1.241 1_545 S
C92 O85 1.247 . S
C92 O86 1.261 . S
C93 O88 1.259 . S
C93 O90 1.235 1_545 S
O94 Co84 2.021 . S
O94 C91 1.238 . S
O95 Co89 2.052 . S
O95 C91 1.241 1_565 S
O96 Co84 2.137 . S
O96 C87 1.247 . S
O97 Co84 2.252 . S
O97 C87 1.275 . S
O97 Co89 2.129 1_545 S
Co98 O99 2.216 . S
Co98 O100 2.091 . S
Co98 O102 2.004 . S
Co98 O108 2.021 . S
Co98 O110 2.137 . S
Co98 O111 2.253 . S
O99 Co98 2.216 . S
O99 C106 1.247 . S
O100 Co98 2.091 . S
O100 C106 1.261 . S
C101 O110 1.247 . S
C101 O111 1.276 . S
O102 Co98 2.004 . S
O102 C107 1.259 . S
Co103 O104 2.061 . S
Co103 O109 2.052 . S
Co103 O111 2.128 1_545 S
O104 Co103 2.061 . S
O104 C107 1.235 1_545 S
C105 O108 1.238 . S
C105 O109 1.241 1_565 S
C106 O99 1.247 . S
C106 O100 1.261 . S
C107 O102 1.259 . S
C107 O104 1.235 1_565 S
O108 Co98 2.021 . S
O108 C105 1.238 . S
O109 Co103 2.052 . S
O109 C105 1.241 1_545 S
O110 Co98 2.137 . S
O110 C101 1.247 . S
O111 Co98 2.253 . S
O111 C101 1.276 . S
O111 Co103 2.128 1_565 S
Co112 O113 2.216 . S
Co112 O114 2.091 . S
Co112 O116 2.004 . S
Co112 O122 2.021 . S
Co112 O124 2.137 . S
Co112 O125 2.244 . S
O113 Co112 2.216 . S
O113 C120 1.247 . S
O114 Co112 2.091 . S
O114 C120 1.261 . S
C115 O124 1.247 . S
C115 O125 1.272 . S
O116 Co112 2.004 . S
O116 C121 1.259 . S
Co117 O118 2.061 . S
Co117 O123 2.052 . S
Co117 O125 2.135 . S
O118 Co117 2.061 . S
O118 C121 1.235 . S
C119 O122 1.238 . S
C119 O123 1.241 . S
C120 O113 1.247 . S
C120 O114 1.261 . S
C121 O116 1.259 . S
C121 O118 1.235 . S
O122 Co112 2.021 . S
O122 C119 1.238 . S
O123 Co117 2.052 . S
O123 C119 1.241 . S
O124 Co112 2.137 . S
O124 C115 1.247 . S
O125 Co112 2.244 . S
O125 C115 1.272 . S
O125 Co117 2.135 . S
Co126 O127 2.216 . S
Co126 O128 2.091 . S
Co126 O130 2.004 . S
Co126 O136 2.021 . S
Co126 O138 2.137 . S
Co126 O139 2.244 . S
O127 Co126 2.216 . S
O127 C134 1.247 . S
O128 Co126 2.091 . S
O128 C134 1.261 . S
C129 O138 1.247 . S
C129 O139 1.272 . S
O130 Co126 2.004 . S
O130 C135 1.259 . S
Co131 O132 2.061 . S
Co131 O137 2.052 . S
Co131 O139 2.135 . S
O132 Co131 2.061 . S
O132 C135 1.235 . S
C133 O136 1.238 . S
C133 O137 1.241 . S
C134 O127 1.247 . S
C134 O128 1.261 . S
C135 O130 1.259 . S
C135 O132 1.235 . S
O136 Co126 2.021 . S
O136 C133 1.238 . S
O137 Co131 2.052 . S
O137 C133 1.241 . S
O138 Co126 2.137 . S
O138 C129 1.247 . S
O139 Co126 2.244 . S
O139 C129 1.272 . S
O139 Co131 2.135 . S
Co140 O141 2.216 . S
Co140 O142 2.091 . S
Co140 O144 2.004 . S
Co140 O150 2.021 . S
Co140 O152 2.137 . S
Co140 O153 2.244 . S
O141 Co140 2.216 . S
O141 C148 1.247 . S
O142 Co140 2.091 . S
O142 C148 1.261 . S
C143 O152 1.247 . S
C143 O153 1.272 . S
O144 Co140 2.004 . S
O144 C149 1.259 . S
Co145 O146 2.061 . S
Co145 O151 2.052 . S
Co145 O153 2.135 . S
O146 Co145 2.061 . S
O146 C149 1.235 . S
C147 O150 1.238 . S
C147 O151 1.241 . S
C148 O141 1.247 . S
C148 O142 1.261 . S
C149 O144 1.259 . S
C149 O146 1.235 . S
O150 Co140 2.021 . S
O150 C147 1.238 . S
O151 Co145 2.052 . S
O151 C147 1.241 . S
O152 Co140 2.137 . S
O152 C143 1.247 . S
O153 Co140 2.244 . S
O153 C143 1.272 . S
O153 Co145 2.135 . S
Co154 O155 2.216 . S
Co154 O156 2.091 . S
Co154 O158 2.004 . S
Co154 O164 2.021 . S
Co154 O166 2.137 . S
Co154 O167 2.244 . S
O155 Co154 2.216 . S
O155 C162 1.247 . S
O156 Co154 2.091 . S
O156 C162 1.261 . S
C157 O166 1.247 . S
C157 O167 1.272 . S
O158 Co154 2.004 . S
O158 C163 1.259 . S
Co159 O160 2.061 . S
Co159 O165 2.052 . S
Co159 O167 2.135 . S
O160 Co159 2.061 . S
O160 C163 1.235 . S
C161 O164 1.238 . S
C161 O165 1.241 . S
C162 O155 1.247 . S
C162 O156 1.261 . S
C163 O158 1.259 . S
C163 O160 1.235 . S
O164 Co154 2.021 . S
O164 C161 1.238 . S
O165 Co159 2.052 . S
O165 C161 1.241 . S
O166 Co154 2.137 . S
O166 C157 1.247 . S
O167 Co154 2.244 . S
O167 C157 1.272 . S
O167 Co159 2.135 . S
Co168 O169 2.216 . S
Co168 O170 2.091 . S
Co168 O172 2.004 . S
Co168 O178 2.021 . S
Co168 O180 2.137 . S
Co168 O181 2.244 . S
O169 Co168 2.216 . S
O169 C176 1.247 . S
O170 Co168 2.091 . S
O170 C176 1.261 . S
C171 O180 1.247 . S
C171 O181 1.272 . S
O172 Co168 2.004 . S
O172 C177 1.259 . S
Co173 O174 2.061 . S
Co173 O179 2.052 . S
Co173 O181 2.135 . S
O174 Co173 2.061 . S
O174 C177 1.235 . S
C175 O178 1.238 . S
C175 O179 1.241 . S
C176 O169 1.247 . S
C176 O170 1.261 . S
C177 O172 1.259 . S
C177 O174 1.235 . S
O178 Co168 2.021 . S
O178 C175 1.238 . S
O179 Co173 2.052 . S
O179 C175 1.241 . S
O180 Co168 2.137 . S
O180 C171 1.247 . S
O181 Co168 2.244 . S
O181 C171 1.272 . S
O181 Co173 2.135 . S
Co182 O183 2.216 . S
Co182 O184 2.091 . S
Co182 O186 2.004 . S
Co182 O192 2.021 . S
Co182 O194 2.137 . S
Co182 O195 2.244 . S
O183 Co182 2.216 . S
O183 C190 1.247 . S
O184 Co182 2.091 . S
O184 C190 1.261 . S
C185 O194 1.247 . S
C185 O195 1.272 . S
O186 Co182 2.004 . S
O186 C191 1.259 . S
Co187 O188 2.061 . S
Co187 O193 2.052 . S
Co187 O195 2.135 . S
O188 Co187 2.061 . S
O188 C191 1.235 . S
C189 O192 1.238 . S
C189 O193 1.241 . S
C190 O183 1.247 . S
C190 O184 1.261 . S
C191 O186 1.259 . S
C191 O188 1.235 . S
O192 Co182 2.021 . S
O192 C189 1.238 . S
O193 Co187 2.052 . S
O193 C189 1.241 . S
O194 Co182 2.137 . S
O194 C185 1.247 . S
O195 Co182 2.244 . S
O195 C185 1.272 . S
O195 Co187 2.135 . S
Co196 O197 2.216 . S
Co196 O198 2.091 . S
Co196 O200 2.004 . S
Co196 O206 2.021 . S
Co196 O208 2.137 . S
Co196 O209 2.244 . S
O197 Co196 2.216 . S
O197 C204 1.247 . S
O198 Co196 2.091 . S
O198 C204 1.261 . S
C199 O208 1.247 . S
C199 O209 1.272 . S
O200 Co196 2.004 . S
O200 C205 1.259 . S
Co201 O202 2.061 . S
Co201 O207 2.052 . S
Co201 O209 2.135 . S
O202 Co201 2.061 . S
O202 C205 1.235 . S
C203 O206 1.238 . S
C203 O207 1.241 . S
C204 O197 1.247 . S
C204 O198 1.261 . S
C205 O200 1.259 . S
C205 O202 1.235 . S
O206 Co196 2.021 . S
O206 C203 1.238 . S
O207 Co201 2.052 . S
O207 C203 1.241 . S
O208 Co196 2.137 . S
O208 C199 1.247 . S
O209 Co196 2.244 . S
O209 C199 1.272 . S
O209 Co201 2.135 . S
Co210 O211 2.216 . S
Co210 O212 2.091 . S
Co210 O214 2.004 . S
Co210 O220 2.021 . S
Co210 O222 2.137 . S
Co210 O223 2.244 . S
O211 Co210 2.216 . S
O211 C218 1.247 . S
O212 Co210 2.091 . S
O212 C218 1.261 . S
C213 O222 1.247 . S
C213 O223 1.272 . S
O214 Co210 2.004 . S
O214 C219 1.259 . S
Co215 O216 2.061 . S
Co215 O221 2.052 . S
Co215 O223 2.135 . S
O216 Co215 2.061 . S
O216 C219 1.235 . S
C217 O220 1.238 . S
C217 O221 1.241 . S
C218 O211 1.247 . S
C218 O212 1.261 . S
C219 O214 1.259 . S
C219 O216 1.235 . S
O220 Co210 2.021 . S
O220 C217 1.238 . S
O221 Co215 2.052 . S
O221 C217 1.241 . S
O222 Co210 2.137 . S
O222 C213 1.247 . S
O223 Co210 2.244 . S
O223 C213 1.272 . S
O223 Co215 2.135 . S
H224 C230 0.930 . S
H225 C234 0.930 . S
H226 C239 0.929 . S
H227 C237 0.929 . S
H228 C232 0.929 . S
H229 C238 0.929 . S
C230 H224 0.930 . S
C230 C231 1.367 . S
C230 C238 1.378 . S
C231 C230 1.367 . S
C231 C239 1.433 1_545 S
C232 H228 0.929 . S
C232 C234 1.378 . S
C232 C236 1.350 1_565 S
C233 C236 1.463 . S
C233 C238 1.350 . S
C233 N241 1.427 1_545 S
C234 H225 0.930 . S
C234 C232 1.378 . S
C234 C235 1.367 1_565 S
C235 C234 1.367 1_545 S
C235 C237 1.433 . S
C236 C232 1.350 1_545 S
C236 C233 1.463 . S
C236 N240 1.427 . S
C237 H227 0.929 . S
C237 C235 1.433 . S
C237 N240 1.384 . S
C238 H229 0.929 . S
C238 C230 1.378 . S
C238 C233 1.350 . S
C239 H226 0.929 . S
C239 C231 1.433 1_565 S
C239 N241 1.384 . S
N240 C236 1.427 . S
N240 C237 1.384 . S
N241 C233 1.427 1_565 S
N241 C239 1.384 . S
H242 C248 0.930 . S
H243 C252 0.930 1_545 S
H244 C257 0.929 1_545 S
H245 C255 0.929 . S
H246 C250 0.929 1_545 S
H247 C256 0.929 . S
C248 H242 0.930 . S
C248 C249 1.367 . S
C248 C256 1.378 . S
C249 C248 1.367 . S
C249 C257 1.433 . S
C250 H246 0.929 1_565 S
C250 C252 1.378 . S
C250 C254 1.350 . S
C251 C254 1.463 . S
C251 C256 1.350 . S
C251 N259 1.427 . S
C252 H243 0.930 1_565 S
C252 C250 1.378 . S
C252 C253 1.367 . S
C253 C252 1.367 . S
C253 C255 1.433 . S
C254 C250 1.350 . S
C254 C251 1.463 . S
C254 N258 1.427 . S
C255 H245 0.929 . S
C255 C253 1.433 . S
C255 N258 1.384 . S
C256 H247 0.929 . S
C256 C248 1.378 . S
C256 C251 1.350 . S
C257 H244 0.929 1_565 S
C257 C249 1.433 . S
C257 N259 1.384 . S
N258 C254 1.427 . S
N258 C255 1.384 . S
N259 C251 1.427 . S
N259 C257 1.384 . S
H260 C266 0.930 . S
H261 C270 0.930 . S
H262 C275 0.929 . S
H263 C273 0.929 . S
H264 C268 0.929 . S
H265 C274 0.929 . S
C266 H260 0.930 . S
C266 C267 1.367 . S
C266 C274 1.378 . S
C267 C266 1.367 . S
C267 C275 1.433 . S
C268 H264 0.929 . S
C268 C270 1.378 . S
C268 C272 1.350 . S
C269 C272 1.463 1_554 S
C269 C274 1.350 . S
C269 N277 1.427 . S
C270 H261 0.930 . S
C270 C268 1.378 . S
C270 C271 1.367 . S
C271 C270 1.367 . S
C271 C273 1.433 . S
C272 C268 1.350 . S
C272 C269 1.463 1_556 S
C272 N276 1.427 . S
C273 H263 0.929 . S
C273 C271 1.433 . S
C273 N276 1.384 . S
C274 H265 0.929 . S
C274 C266 1.378 . S
C274 C269 1.350 . S
C275 H262 0.929 . S
C275 C267 1.433 . S
C275 N277 1.384 . S
N276 C272 1.427 . S
N276 C273 1.384 . S
N277 C269 1.427 . S
N277 C275 1.384 . S
H278 C284 0.930 . S
H279 C288 0.930 . S
H280 C293 0.929 . S
H281 C291 0.929 . S
H282 C286 0.929 . S
H283 C292 0.929 . S
C284 H278 0.930 . S
C284 C285 1.367 1_565 S
C284 C292 1.378 . S
C285 C284 1.367 1_545 S
C285 C293 1.433 . S
C286 H282 0.929 . S
C286 C288 1.378 . S
C286 C290 1.350 . S
C287 C290 1.463 1_556 S
C287 C292 1.350 1_545 S
C287 N295 1.427 . S
C288 H279 0.930 . S
C288 C286 1.378 . S
C288 C289 1.367 . S
C289 C288 1.367 . S
C289 C291 1.433 1_545 S
C290 C286 1.350 . S
C290 C287 1.463 1_554 S
C290 N294 1.427 1_545 S
C291 H281 0.929 . S
C291 C289 1.433 1_565 S
C291 N294 1.384 . S
C292 H283 0.929 . S
C292 C284 1.378 . S
C292 C287 1.350 1_565 S
C293 H280 0.929 . S
C293 C285 1.433 . S
C293 N295 1.384 . S
N294 C290 1.427 1_565 S
N294 C291 1.384 . S
N295 C287 1.427 . S
N295 C293 1.384 . S
H296 C302 0.930 . S
H297 C306 0.930 . S
H298 C311 0.929 . S
H299 C309 0.929 . S
H300 C304 0.929 . S
H301 C310 0.929 . S
C302 H296 0.930 . S
C302 C303 1.367 . S
C302 C310 1.378 . S
C303 C302 1.367 . S
C303 C311 1.433 . S
C304 H300 0.929 . S
C304 C306 1.378 . S
C304 C308 1.350 . S
C305 C308 1.463 . S
C305 C310 1.350 . S
C305 N313 1.427 . S
C306 H297 0.930 . S
C306 C304 1.378 . S
C306 C307 1.367 . S
C307 C306 1.367 . S
C307 C309 1.433 . S
C308 C304 1.350 . S
C308 C305 1.463 . S
C308 N312 1.427 . S
C309 H299 0.929 . S
C309 C307 1.433 . S
C309 N312 1.384 . S
C310 H301 0.929 . S
C310 C302 1.378 . S
C310 C305 1.350 . S
C311 H298 0.929 . S
C311 C303 1.433 . S
C311 N313 1.384 . S
N312 C308 1.427 . S
N312 C309 1.384 . S
N313 C305 1.427 . S
N313 C311 1.384 . S
H314 C320 0.930 . S
H315 C324 0.930 . S
H316 C329 0.929 . S
H317 C327 0.929 . S
H318 C322 0.929 . S
H319 C328 0.929 . S
C320 H314 0.930 . S
C320 C321 1.367 . S
C320 C328 1.378 . S
C321 C320 1.367 . S
C321 C329 1.433 . S
C322 H318 0.929 . S
C322 C324 1.378 . S
C322 C326 1.350 . S
C323 C326 1.463 . S
C323 C328 1.350 . S
C323 N331 1.427 . S
C324 H315 0.930 . S
C324 C322 1.378 . S
C324 C325 1.367 . S
C325 C324 1.367 . S
C325 C327 1.433 . S
C326 C322 1.350 . S
C326 C323 1.463 . S
C326 N330 1.427 . S
C327 H317 0.929 . S
C327 C325 1.433 . S
C327 N330 1.384 . S
C328 H319 0.929 . S
C328 C320 1.378 . S
C328 C323 1.350 . S
C329 H316 0.929 . S
C329 C321 1.433 . S
C329 N331 1.384 . S
N330 C326 1.427 . S
N330 C327 1.384 . S
N331 C323 1.427 . S
N331 C329 1.384 . S
H332 C338 0.930 . S
H333 C342 0.930 . S
H334 C347 0.929 . S
H335 C345 0.929 . S
H336 C340 0.929 . S
H337 C346 0.929 . S
C338 H332 0.930 . S
C338 C339 1.367 . S
C338 C346 1.378 . S
C339 C338 1.367 . S
C339 C347 1.433 . S
C340 H336 0.929 . S
C340 C342 1.378 . S
C340 C344 1.350 . S
C341 C344 1.463 1_556 S
C341 C346 1.350 . S
C341 N349 1.427 . S
C342 H333 0.930 . S
C342 C340 1.378 . S
C342 C343 1.367 . S
C343 C342 1.367 . S
C343 C345 1.433 . S
C344 C340 1.350 . S
C344 C341 1.463 1_554 S
C344 N348 1.427 . S
C345 H335 0.929 . S
C345 C343 1.433 . S
C345 N348 1.384 . S
C346 H337 0.929 . S
C346 C338 1.378 . S
C346 C341 1.350 . S
C347 H334 0.929 . S
C347 C339 1.433 . S
C347 N349 1.384 . S
N348 C344 1.427 . S
N348 C345 1.384 . S
N349 C341 1.427 . S
N349 C347 1.384 . S
H350 C356 0.930 . S
H351 C360 0.930 . S
H352 C365 0.929 . S
H353 C363 0.929 . S
H354 C358 0.929 . S
H355 C364 0.929 . S
C356 H350 0.930 . S
C356 C357 1.367 . S
C356 C364 1.378 . S
C357 C356 1.367 . S
C357 C365 1.433 . S
C358 H354 0.929 . S
C358 C360 1.378 . S
C358 C362 1.350 . S
C359 C362 1.463 1_554 S
C359 C364 1.350 . S
C359 N367 1.427 . S
C360 H351 0.930 . S
C360 C358 1.378 . S
C360 C361 1.367 . S
C361 C360 1.367 . S
C361 C363 1.433 . S
C362 C358 1.350 . S
C362 C359 1.463 1_556 S
C362 N366 1.427 . S
C363 H353 0.929 . S
C363 C361 1.433 . S
C363 N366 1.384 . S
C364 H355 0.929 . S
C364 C356 1.378 . S
C364 C359 1.350 . S
C365 H352 0.929 . S
C365 C357 1.433 . S
C365 N367 1.384 . S
N366 C362 1.427 . S
N366 C363 1.384 . S
N367 C359 1.427 . S
N367 C365 1.384 . S
H368 C374 0.930 . S
H369 C378 0.930 . S
H370 C383 0.929 . S
H371 C381 0.929 . S
H372 C376 0.929 . S
H373 C382 0.929 . S
C374 H368 0.930 . S
C374 C375 1.367 1_545 S
C374 C382 1.378 . S
C375 C374 1.367 1_565 S
C375 C383 1.433 . S
C376 H372 0.929 . S
C376 C378 1.378 . S
C376 C380 1.350 1_565 S
C377 C380 1.463 1_565 S
C377 C382 1.350 1_565 S
C377 N385 1.427 . S
C378 H369 0.930 . S
C378 C376 1.378 . S
C378 C379 1.367 1_565 S
C379 C378 1.367 1_545 S
C379 C381 1.433 . S
C380 C376 1.350 1_545 S
C380 C377 1.463 1_545 S
C380 N384 1.427 . S
C381 H371 0.929 . S
C381 C379 1.433 . S
C381 N384 1.384 . S
C382 H373 0.929 . S
C382 C374 1.378 . S
C382 C377 1.350 1_545 S
C383 H370 0.929 . S
C383 C375 1.433 . S
C383 N385 1.384 . S
N384 C380 1.427 . S
N384 C381 1.384 . S
N385 C377 1.427 . S
N385 C383 1.384 . S
H386 C392 0.930 . S
H387 C396 0.930 . S
H388 C401 0.929 . S
H389 C399 0.929 . S
H390 C394 0.929 . S
H391 C400 0.929 . S
C392 H386 0.930 . S
C392 C393 1.367 . S
C392 C400 1.378 . S
C393 C392 1.367 . S
C393 C401 1.433 . S
C394 H390 0.929 . S
C394 C396 1.378 . S
C394 C398 1.350 . S
C395 C398 1.463 1_565 S
C395 C400 1.350 . S
C395 N403 1.427 . S
C396 H387 0.930 . S
C396 C394 1.378 . S
C396 C397 1.367 . S
C397 C396 1.367 . S
C397 C399 1.433 . S
C398 C394 1.350 . S
C398 C395 1.463 1_545 S
C398 N402 1.427 . S
C399 H389 0.929 . S
C399 C397 1.433 . S
C399 N402 1.384 . S
C400 H391 0.929 . S
C400 C392 1.378 . S
C400 C395 1.350 . S
C401 H388 0.929 . S
C401 C393 1.433 . S
C401 N403 1.384 . S
N402 C398 1.427 . S
N402 C399 1.384 . S
N403 C395 1.427 . S
N403 C401 1.384 . S
H404 C410 0.930 . S
H405 C414 0.930 . S
H406 C419 0.929 . S
H407 C417 0.929 . S
H408 C412 0.929 . S
H409 C418 0.929 . S
C410 H404 0.930 . S
C410 C411 1.367 . S
C410 C418 1.378 . S
C411 C410 1.367 . S
C411 C419 1.433 1_565 S
C412 H408 0.929 . S
C412 C414 1.378 . S
C412 C416 1.350 . S
C413 C416 1.463 1_565 S
C413 C418 1.350 . S
C413 N421 1.427 1_565 S
C414 H405 0.930 . S
C414 C412 1.378 . S
C414 C415 1.367 . S
C415 C414 1.367 . S
C415 C417 1.433 1_545 S
C416 C412 1.350 . S
C416 C413 1.463 1_545 S
C416 N420 1.427 1_545 S
C417 H407 0.929 . S
C417 C415 1.433 1_565 S
C417 N420 1.384 . S
C418 H409 0.929 . S
C418 C410 1.378 . S
C418 C413 1.350 . S
C419 H406 0.929 . S
C419 C411 1.433 1_545 S
C419 N421 1.384 . S
N420 C416 1.427 1_565 S
N420 C417 1.384 . S
N421 C413 1.427 1_545 S
N421 C419 1.384 . S
H422 C428 0.930 . S
H423 C432 0.930 . S
H424 C437 0.929 . S
H425 C435 0.929 . S
H426 C430 0.929 . S
H427 C436 0.929 . S
C428 H422 0.930 . S
C428 C429 1.367 . S
C428 C436 1.378 . S
C429 C428 1.367 . S
C429 C437 1.433 . S
C430 H426 0.929 . S
C430 C432 1.378 . S
C430 C434 1.350 . S
C431 C434 1.463 1_545 S
C431 C436 1.350 . S
C431 N439 1.427 1_545 S
C432 H423 0.930 . S
C432 C430 1.378 . S
C432 C433 1.367 . S
C433 C432 1.367 . S
C433 C435 1.433 . S
C434 C430 1.350 . S
C434 C431 1.463 1_565 S
C434 N438 1.427 1_565 S
C435 H425 0.929 . S
C435 C433 1.433 . S
C435 N438 1.384 1_565 S
C436 H427 0.929 . S
C436 C428 1.378 . S
C436 C431 1.350 . S
C437 H424 0.929 . S
C437 C429 1.433 . S
C437 N439 1.384 1_545 S
N438 C434 1.427 1_545 S
N438 C435 1.384 1_545 S
N439 C431 1.427 1_565 S
N439 C437 1.384 1_565 S
H440 C446 0.930 . S
H441 C450 0.930 . S
H442 C455 0.929 . S
H443 C453 0.929 . S
H444 C448 0.929 . S
H445 C454 0.929 . S
C446 H440 0.930 . S
C446 C447 1.367 . S
C446 C454 1.378 . S
C447 C446 1.367 . S
C447 C455 1.433 . S
C448 H444 0.929 . S
C448 C450 1.378 . S
C448 C452 1.350 . S
C449 C452 1.463 1_655 S
C449 C454 1.350 . S
C449 N457 1.427 . S
C450 H441 0.930 . S
C450 C448 1.378 . S
C450 C451 1.367 . S
C451 C450 1.367 . S
C451 C453 1.433 . S
C452 C448 1.350 . S
C452 C449 1.463 1_455 S
C452 N456 1.427 . S
C453 H443 0.929 . S
C453 C451 1.433 . S
C453 N456 1.384 . S
C454 H445 0.929 . S
C454 C446 1.378 . S
C454 C449 1.350 . S
C455 H442 0.929 . S
C455 C447 1.433 . S
C455 N457 1.384 . S
N456 C452 1.427 . S
N456 C453 1.384 . S
N457 C449 1.427 . S
N457 C455 1.384 . S
H458 C464 0.930 . S
H459 C468 0.930 . S
H460 C473 0.929 . S
H461 C471 0.929 . S
H462 C466 0.929 . S
H463 C472 0.929 . S
C464 H458 0.930 . S
C464 C465 1.367 . S
C464 C472 1.378 . S
C465 C464 1.367 . S
C465 C473 1.433 . S
C466 H462 0.929 . S
C466 C468 1.378 . S
C466 C470 1.350 . S
C467 C470 1.463 1_455 S
C467 C472 1.350 . S
C467 N475 1.427 . S
C468 H459 0.930 . S
C468 C466 1.378 . S
C468 C469 1.367 . S
C469 C468 1.367 . S
C469 C471 1.433 . S
C470 C466 1.350 . S
C470 C467 1.463 1_655 S
C470 N474 1.427 . S
C471 H461 0.929 . S
C471 C469 1.433 . S
C471 N474 1.384 . S
C472 H463 0.929 . S
C472 C464 1.378 . S
C472 C467 1.350 . S
C473 H460 0.929 . S
C473 C465 1.433 . S
C473 N475 1.384 . S
N474 C470 1.427 . S
N474 C471 1.384 . S
N475 C467 1.427 . S
N475 C473 1.384 . S
H476 C482 0.930 . S
H477 C486 0.930 . S
H478 C491 0.929 . S
H479 C489 0.929 . S
H480 C484 0.929 . S
H481 C490 0.929 . S
C482 H476 0.930 . S
C482 C483 1.367 . S
C482 C490 1.378 . S
C483 C482 1.367 . S
C483 C491 1.433 . S
C484 H480 0.929 . S
C484 C486 1.378 . S
C484 C488 1.350 . S
C485 C488 1.463 1_655 S
C485 C490 1.350 . S
C485 N493 1.427 . S
C486 H477 0.930 . S
C486 C484 1.378 . S
C486 C487 1.367 . S
C487 C486 1.367 . S
C487 C489 1.433 . S
C488 C484 1.350 . S
C488 C485 1.463 1_455 S
C488 N492 1.427 . S
C489 H479 0.929 . S
C489 C487 1.433 . S
C489 N492 1.384 . S
C490 H481 0.929 . S
C490 C482 1.378 . S
C490 C485 1.350 . S
C491 H478 0.929 . S
C491 C483 1.433 . S
C491 N493 1.384 . S
N492 C488 1.427 . S
N492 C489 1.384 . S
N493 C485 1.427 . S
N493 C491 1.384 . S
H494 C500 0.930 . S
H495 C504 0.930 . S
H496 C509 0.929 . S
H497 C507 0.929 . S
H498 C502 0.929 . S
H499 C508 0.929 . S
C500 H494 0.930 . S
C500 C501 1.367 . S
C500 C508 1.378 . S
C501 C500 1.367 . S
C501 C509 1.433 . S
C502 H498 0.929 . S
C502 C504 1.378 . S
C502 C506 1.350 . S
C503 C506 1.463 1_455 S
C503 C508 1.350 . S
C503 N511 1.427 . S
C504 H495 0.930 . S
C504 C502 1.378 . S
C504 C505 1.367 . S
C505 C504 1.367 . S
C505 C507 1.433 . S
C506 C502 1.350 . S
C506 C503 1.463 1_655 S
C506 N510 1.427 . S
C507 H497 0.929 . S
C507 C505 1.433 . S
C507 N510 1.384 . S
C508 H499 0.929 . S
C508 C500 1.378 . S
C508 C503 1.350 . S
C509 H496 0.929 . S
C509 C501 1.433 . S
C509 N511 1.384 . S
N510 C506 1.427 . S
N510 C507 1.384 . S
N511 C503 1.427 . S
N511 C509 1.384 . S
H512 C518 0.930 . S
H513 C522 0.930 . S
H514 C527 0.929 . S
H515 C525 0.929 . S
H516 C520 0.929 . S
H517 C526 0.929 . S
C518 H512 0.930 . S
C518 C519 1.367 . S
C518 C526 1.378 . S
C519 C518 1.367 . S
C519 C527 1.433 . S
C520 H516 0.929 . S
C520 C522 1.378 . S
C520 C524 1.350 . S
C521 C524 1.463 . S
C521 C526 1.350 . S
C521 N529 1.427 . S
C522 H513 0.930 . S
C522 C520 1.378 . S
C522 C523 1.367 . S
C523 C522 1.367 . S
C523 C525 1.433 . S
C524 C520 1.350 . S
C524 C521 1.463 . S
C524 N528 1.427 . S
C525 H515 0.929 . S
C525 C523 1.433 . S
C525 N528 1.384 . S
C526 H517 0.929 . S
C526 C518 1.378 . S
C526 C521 1.350 . S
C527 H514 0.929 . S
C527 C519 1.433 . S
C527 N529 1.384 . S
N528 C524 1.427 . S
N528 C525 1.384 . S
N529 C521 1.427 . S
N529 C527 1.384 . S
H530 C536 0.930 . S
H531 C540 0.930 . S
H532 C545 0.929 . S
H533 C543 0.929 . S
H534 C538 0.929 . S
H535 C544 0.929 . S
C536 H530 0.930 . S
C536 C537 1.367 . S
C536 C544 1.378 . S
C537 C536 1.367 . S
C537 C545 1.433 . S
C538 H534 0.929 . S
C538 C540 1.378 . S
C538 C542 1.350 . S
C539 C542 1.463 . S
C539 C544 1.350 . S
C539 N547 1.427 . S
C540 H531 0.930 . S
C540 C538 1.378 . S
C540 C541 1.367 . S
C541 C540 1.367 . S
C541 C543 1.433 . S
C542 C538 1.350 . S
C542 C539 1.463 . S
C542 N546 1.427 . S
C543 H533 0.929 . S
C543 C541 1.433 . S
C543 N546 1.384 . S
C544 H535 0.929 . S
C544 C536 1.378 . S
C544 C539 1.350 . S
C545 H532 0.929 . S
C545 C537 1.433 . S
C545 N547 1.384 . S
N546 C542 1.427 . S
N546 C543 1.384 . S
N547 C539 1.427 . S
N547 C545 1.384 . S
H548 C554 0.930 . S
H549 C558 0.930 . S
H550 C563 0.929 . S
H551 C561 0.929 . S
H552 C556 0.929 . S
H553 C562 0.929 . S
C554 H548 0.930 . S
C554 C555 1.367 . S
C554 C562 1.378 . S
C555 C554 1.367 . S
C555 C563 1.433 . S
C556 H552 0.929 . S
C556 C558 1.378 . S
C556 C560 1.350 . S
C557 C560 1.463 . S
C557 C562 1.350 . S
C557 N565 1.427 . S
C558 H549 0.930 . S
C558 C556 1.378 . S
C558 C559 1.367 . S
C559 C558 1.367 . S
C559 C561 1.433 . S
C560 C556 1.350 . S
C560 C557 1.463 . S
C560 N564 1.427 . S
C561 H551 0.929 . S
C561 C559 1.433 . S
C561 N564 1.384 . S
C562 H553 0.929 . S
C562 C554 1.378 . S
C562 C557 1.350 . S
C563 H550 0.929 . S
C563 C555 1.433 . S
C563 N565 1.384 . S
N564 C560 1.427 . S
N564 C561 1.384 . S
N565 C557 1.427 . S
N565 C563 1.384 . S
H566 C572 0.930 . S
H567 C576 0.930 . S
H568 C581 0.929 . S
H569 C579 0.929 . S
H570 C574 0.929 . S
H571 C580 0.929 . S
C572 H566 0.930 . S
C572 C573 1.367 . S
C572 C580 1.378 . S
C573 C572 1.367 . S
C573 C581 1.433 . S
C574 H570 0.929 . S
C574 C576 1.378 . S
C574 C578 1.350 . S
C575 C578 1.463 . S
C575 C580 1.350 . S
C575 N583 1.427 . S
C576 H567 0.930 . S
C576 C574 1.378 . S
C576 C577 1.367 . S
C577 C576 1.367 . S
C577 C579 1.433 . S
C578 C574 1.350 . S
C578 C575 1.463 . S
C578 N582 1.427 . S
C579 H569 0.929 . S
C579 C577 1.433 . S
C579 N582 1.384 . S
C580 H571 0.929 . S
C580 C572 1.378 . S
C580 C575 1.350 . S
C581 H568 0.929 . S
C581 C573 1.433 . S
C581 N583 1.384 . S
N582 C578 1.427 . S
N582 C579 1.384 . S
N583 C575 1.427 . S
N583 C581 1.384 . S
H584 C590 0.930 . S
H585 C594 0.930 . S
H586 C599 0.929 . S
H587 C597 0.929 . S
H588 C592 0.929 . S
H589 C598 0.929 . S
C590 H584 0.930 . S
C590 C591 1.367 . S
C590 C598 1.378 . S
C591 C590 1.367 . S
C591 C599 1.433 . S
C592 H588 0.929 . S
C592 C594 1.378 . S
C592 C596 1.350 . S
C593 C596 1.463 . S
C593 C598 1.350 . S
C593 N601 1.427 . S
C594 H585 0.930 . S
C594 C592 1.378 . S
C594 C595 1.367 . S
C595 C594 1.367 . S
C595 C597 1.433 . S
C596 C592 1.350 . S
C596 C593 1.463 . S
C596 N600 1.427 . S
C597 H587 0.929 . S
C597 C595 1.433 . S
C597 N600 1.384 . S
C598 H589 0.929 . S
C598 C590 1.378 . S
C598 C593 1.350 . S
C599 H586 0.929 . S
C599 C591 1.433 . S
C599 N601 1.384 . S
N600 C596 1.427 . S
N600 C597 1.384 . S
N601 C593 1.427 . S
N601 C599 1.384 . S
H602 C608 0.930 . S
H603 C612 0.930 . S
H604 C617 0.929 . S
H605 C615 0.929 . S
H606 C610 0.929 . S
H607 C616 0.929 . S
C608 H602 0.930 . S
C608 C609 1.367 . S
C608 C616 1.378 . S
C609 C608 1.367 . S
C609 C617 1.433 . S
C610 H606 0.929 . S
C610 C612 1.378 . S
C610 C614 1.350 . S
C611 C614 1.463 . S
C611 C616 1.350 . S
C611 N619 1.427 . S
C612 H603 0.930 . S
C612 C610 1.378 . S
C612 C613 1.367 . S
C613 C612 1.367 . S
C613 C615 1.433 . S
C614 C610 1.350 . S
C614 C611 1.463 . S
C614 N618 1.427 . S
C615 H605 0.929 . S
C615 C613 1.433 . S
C615 N618 1.384 . S
C616 H607 0.929 . S
C616 C608 1.378 . S
C616 C611 1.350 . S
C617 H604 0.929 . S
C617 C609 1.433 . S
C617 N619 1.384 . S
N618 C614 1.427 . S
N618 C615 1.384 . S
N619 C611 1.427 . S
N619 C617 1.384 . S
H620 C626 0.930 . S
H621 C630 0.930 . S
H622 C635 0.929 . S
H623 C633 0.929 . S
H624 C628 0.929 . S
H625 C634 0.929 . S
C626 H620 0.930 . S
C626 C627 1.367 . S
C626 C634 1.378 . S
C627 C626 1.367 . S
C627 C635 1.433 . S
C628 H624 0.929 . S
C628 C630 1.378 . S
C628 C632 1.350 . S
C629 C632 1.463 . S
C629 C634 1.350 . S
C629 N637 1.427 . S
C630 H621 0.930 . S
C630 C628 1.378 . S
C630 C631 1.367 . S
C631 C630 1.367 . S
C631 C633 1.433 . S
C632 C628 1.350 . S
C632 C629 1.463 . S
C632 N636 1.427 . S
C633 H623 0.929 . S
C633 C631 1.433 . S
C633 N636 1.384 . S
C634 H625 0.929 . S
C634 C626 1.378 . S
C634 C629 1.350 . S
C635 H622 0.929 . S
C635 C627 1.433 . S
C635 N637 1.384 . S
N636 C632 1.427 . S
N636 C633 1.384 . S
N637 C629 1.427 . S
N637 C635 1.384 . S
H638 C644 0.930 . S
H639 C648 0.930 . S
H640 C653 0.929 . S
H641 C651 0.929 . S
H642 C646 0.929 . S
H643 C652 0.929 . S
C644 H638 0.930 . S
C644 C645 1.367 . S
C644 C652 1.378 . S
C645 C644 1.367 . S
C645 C653 1.433 . S
C646 H642 0.929 . S
C646 C648 1.378 . S
C646 C650 1.350 . S
C647 C650 1.463 . S
C647 C652 1.350 . S
C647 N655 1.427 . S
C648 H639 0.930 . S
C648 C646 1.378 . S
C648 C649 1.367 . S
C649 C648 1.367 . S
C649 C651 1.433 . S
C650 C646 1.350 . S
C650 C647 1.463 . S
C650 N654 1.427 . S
C651 H641 0.929 . S
C651 C649 1.433 . S
C651 N654 1.384 . S
C652 H643 0.929 . S
C652 C644 1.378 . S
C652 C647 1.350 . S
C653 H640 0.929 . S
C653 C645 1.433 . S
C653 N655 1.384 . S
N654 C650 1.427 . S
N654 C651 1.384 . S
N655 C647 1.427 . S
N655 C653 1.384 . S
H656 C662 0.930 . S
H657 C666 0.930 . S
H658 C671 0.929 . S
H659 C669 0.929 . S
H660 C664 0.929 . S
H661 C670 0.929 . S
C662 H656 0.930 . S
C662 C663 1.367 . S
C662 C670 1.378 . S
C663 C662 1.367 . S
C663 C671 1.433 1_545 S
C664 H660 0.929 . S
C664 C666 1.378 . S
C664 C668 1.350 . S
C665 C668 1.463 1_545 S
C665 C670 1.350 . S
C665 N673 1.427 1_545 S
C666 H657 0.930 . S
C666 C664 1.378 . S
C666 C667 1.367 . S
C667 C666 1.367 . S
C667 C669 1.433 1_565 S
C668 C664 1.350 . S
C668 C665 1.463 1_565 S
C668 N672 1.427 1_565 S
C669 H659 0.929 . S
C669 C667 1.433 1_545 S
C669 N672 1.384 . S
C670 H661 0.929 . S
C670 C662 1.378 . S
C670 C665 1.350 . S
C671 H658 0.929 . S
C671 C663 1.433 1_565 S
C671 N673 1.384 . S
N672 C668 1.427 1_545 S
N672 C669 1.384 . S
N673 C665 1.427 1_565 S
N673 C671 1.384 . S
H674 C680 0.930 . S
H675 C684 0.930 . S
H676 C689 0.929 . S
H677 C687 0.929 . S
H678 C682 0.929 . S
H679 C688 0.929 . S
C680 H674 0.930 . S
C680 C681 1.367 . S
C680 C688 1.378 . S
C681 C680 1.367 . S
C681 C689 1.433 1_545 S
C682 H678 0.929 . S
C682 C684 1.378 . S
C682 C686 1.350 . S
C683 C686 1.463 1_545 S
C683 C688 1.350 . S
C683 N691 1.427 1_545 S
C684 H675 0.930 . S
C684 C682 1.378 . S
C684 C685 1.367 . S
C685 C684 1.367 . S
C685 C687 1.433 1_565 S
C686 C682 1.350 . S
C686 C683 1.463 1_565 S
C686 N690 1.427 1_565 S
C687 H677 0.929 . S
C687 C685 1.433 1_545 S
C687 N690 1.384 . S
C688 H679 0.929 . S
C688 C680 1.378 . S
C688 C683 1.350 . S
C689 H676 0.929 . S
C689 C681 1.433 1_565 S
C689 N691 1.384 . S
N690 C686 1.427 1_545 S
N690 C687 1.384 . S
N691 C683 1.427 1_565 S
N691 C689 1.384 . S
H692 C698 0.930 . S
H693 C702 0.930 . S
H694 C707 0.929 . S
H695 C705 0.929 . S
H696 C700 0.929 . S
H697 C706 0.929 . S
C698 H692 0.930 . S
C698 C699 1.367 . S
C698 C706 1.378 . S
C699 C698 1.367 . S
C699 C707 1.433 1_545 S
C700 H696 0.929 . S
C700 C702 1.378 . S
C700 C704 1.350 . S
C701 C704 1.463 1_545 S
C701 C706 1.350 . S
C701 N709 1.427 1_545 S
C702 H693 0.930 . S
C702 C700 1.378 . S
C702 C703 1.367 . S
C703 C702 1.367 . S
C703 C705 1.433 1_565 S
C704 C700 1.350 . S
C704 C701 1.463 1_565 S
C704 N708 1.427 1_565 S
C705 H695 0.929 . S
C705 C703 1.433 1_545 S
C705 N708 1.384 . S
C706 H697 0.929 . S
C706 C698 1.378 . S
C706 C701 1.350 . S
C707 H694 0.929 . S
C707 C699 1.433 1_565 S
C707 N709 1.384 . S
N708 C704 1.427 1_545 S
N708 C705 1.384 . S
N709 C701 1.427 1_565 S
N709 C707 1.384 . S
H710 C716 0.930 . S
H711 C720 0.930 . S
H712 C725 0.929 . S
H713 C723 0.929 . S
H714 C718 0.929 . S
H715 C724 0.929 . S
C716 H710 0.930 . S
C716 C717 1.367 . S
C716 C724 1.378 . S
C717 C716 1.367 . S
C717 C725 1.433 1_565 S
C718 H714 0.929 . S
C718 C720 1.378 . S
C718 C722 1.350 . S
C719 C722 1.463 1_565 S
C719 C724 1.350 . S
C719 N727 1.427 1_565 S
C720 H711 0.930 . S
C720 C718 1.378 . S
C720 C721 1.367 . S
C721 C720 1.367 . S
C721 C723 1.433 1_545 S
C722 C718 1.350 . S
C722 C719 1.463 1_545 S
C722 N726 1.427 1_545 S
C723 H713 0.929 . S
C723 C721 1.433 1_565 S
C723 N726 1.384 . S
C724 H715 0.929 . S
C724 C716 1.378 . S
C724 C719 1.350 . S
C725 H712 0.929 . S
C725 C717 1.433 1_545 S
C725 N727 1.384 . S
N726 C722 1.427 1_565 S
N726 C723 1.384 . S
N727 C719 1.427 1_545 S
N727 C725 1.384 . S
H728 C734 0.930 . S
H729 C738 0.930 . S
H730 C743 0.929 . S
H731 C741 0.929 . S
H732 C736 0.929 . S
H733 C742 0.929 . S
C734 H728 0.930 . S
C734 C735 1.367 . S
C734 C742 1.378 . S
C735 C734 1.367 . S
C735 C743 1.433 . S
C736 H732 0.929 . S
C736 C738 1.378 . S
C736 C740 1.350 . S
C737 C740 1.463 . S
C737 C742 1.350 . S
C737 N745 1.427 . S
C738 H729 0.930 . S
C738 C736 1.378 . S
C738 C739 1.367 . S
C739 C738 1.367 . S
C739 C741 1.433 . S
C740 C736 1.350 . S
C740 C737 1.463 . S
C740 N744 1.427 . S
C741 H731 0.929 . S
C741 C739 1.433 . S
C741 N744 1.384 . S
C742 H733 0.929 . S
C742 C734 1.378 . S
C742 C737 1.350 . S
C743 H730 0.929 . S
C743 C735 1.433 . S
C743 N745 1.384 . S
N744 C740 1.427 . S
N744 C741 1.384 . S
N745 C737 1.427 . S
N745 C743 1.384 . S
H746 C752 0.930 . S
H747 C756 0.930 . S
H748 C761 0.929 . S
H749 C759 0.929 . S
H750 C754 0.929 . S
H751 C760 0.929 . S
C752 H746 0.930 . S
C752 C753 1.367 . S
C752 C760 1.378 . S
C753 C752 1.367 . S
C753 C761 1.433 . S
C754 H750 0.929 . S
C754 C756 1.378 . S
C754 C758 1.350 . S
C755 C758 1.463 . S
C755 C760 1.350 . S
C755 N763 1.427 . S
C756 H747 0.930 . S
C756 C754 1.378 . S
C756 C757 1.367 . S
C757 C756 1.367 . S
C757 C759 1.433 . S
C758 C754 1.350 . S
C758 C755 1.463 . S
C758 N762 1.427 . S
C759 H749 0.929 . S
C759 C757 1.433 . S
C759 N762 1.384 . S
C760 H751 0.929 . S
C760 C752 1.378 . S
C760 C755 1.350 . S
C761 H748 0.929 . S
C761 C753 1.433 . S
C761 N763 1.384 . S
N762 C758 1.427 . S
N762 C759 1.384 . S
N763 C755 1.427 . S
N763 C761 1.384 . S
H764 C770 0.930 . S
H765 C774 0.930 . S
H766 C779 0.929 . S
H767 C777 0.929 . S
H768 C772 0.929 . S
H769 C778 0.929 . S
C770 H764 0.930 . S
C770 C771 1.367 . S
C770 C778 1.378 . S
C771 C770 1.367 . S
C771 C779 1.433 . S
C772 H768 0.929 . S
C772 C774 1.378 . S
C772 C776 1.350 . S
C773 C776 1.463 . S
C773 C778 1.350 . S
C773 N781 1.427 . S
C774 H765 0.930 . S
C774 C772 1.378 . S
C774 C775 1.367 . S
C775 C774 1.367 . S
C775 C777 1.433 . S
C776 C772 1.350 . S
C776 C773 1.463 . S
C776 N780 1.427 . S
C777 H767 0.929 . S
C777 C775 1.433 . S
C777 N780 1.384 . S
C778 H769 0.929 . S
C778 C770 1.378 . S
C778 C773 1.350 . S
C779 H766 0.929 . S
C779 C771 1.433 . S
C779 N781 1.384 . S
N780 C776 1.427 . S
N780 C777 1.384 . S
N781 C773 1.427 . S
N781 C779 1.384 . S
H782 C788 0.930 . S
H783 C792 0.930 . S
H784 C797 0.929 . S
H785 C795 0.929 . S
H786 C790 0.929 . S
H787 C796 0.929 . S
C788 H782 0.930 . S
C788 C789 1.367 . S
C788 C796 1.378 . S
C789 C788 1.367 . S
C789 C797 1.433 . S
C790 H786 0.929 . S
C790 C792 1.378 . S
C790 C794 1.350 . S
C791 C794 1.463 . S
C791 C796 1.350 . S
C791 N799 1.427 . S
C792 H783 0.930 . S
C792 C790 1.378 . S
C792 C793 1.367 . S
C793 C792 1.367 . S
C793 C795 1.433 . S
C794 C790 1.350 . S
C794 C791 1.463 . S
C794 N798 1.427 . S
C795 H785 0.929 . S
C795 C793 1.433 . S
C795 N798 1.384 . S
C796 H787 0.929 . S
C796 C788 1.378 . S
C796 C791 1.350 . S
C797 H784 0.929 . S
C797 C789 1.433 . S
C797 N799 1.384 . S
N798 C794 1.427 . S
N798 C795 1.384 . S
N799 C791 1.427 . S
N799 C797 1.384 . S
C231 C7 1.260 . S
C235 C77 1.251 . S
C249 C63 1.262 . S
C253 C21 1.250 . S
C267 C35 1.250 . S
C271 C105 1.261 . S
C285 C91 1.256 . S
C289 C49 1.255 . S
C303 C189 1.255 . S
C307 C119 1.257 . S
C321 C175 1.254 . S
C325 C133 1.258 . S
C339 C217 1.253 . S
C343 C147 1.259 . S
C357 C161 1.257 . S
C361 C203 1.255 . S
C375 C23 1.484 . S
C379 C9 1.484 . S
C393 C37 1.488 . S
C397 C51 1.487 . S
C411 C65 1.491 . S
C415 C79 1.491 . S
C429 C93 1.488 . S
C433 C107 1.488 . S
C447 C121 1.489 . S
C451 C135 1.489 . S
C465 C163 1.484 . S
C469 C149 1.484 . S
C483 C191 1.484 . S
C487 C177 1.484 . S
C501 C205 1.486 . S
C505 C219 1.486 . S
C519 C134 1.518 . S
C523 C8 1.518 . S
C537 C22 1.516 . S
C541 C120 1.516 . S
C555 C162 1.516 . S
C559 C36 1.516 . S
C573 C50 1.516 . S
C577 C148 1.516 . S
C591 C64 1.518 . S
C595 C190 1.518 . S
C609 C176 1.518 . S
C613 C78 1.518 . S
C627 C92 1.516 . S
C631 C218 1.517 . S
C645 C204 1.517 . S
C649 C106 1.517 . S
C663 C3 1.242 . S
C667 C31 1.249 . S
C681 C45 1.249 . S
C685 C17 1.242 . S
C699 C87 1.244 . S
C703 C59 1.242 . S
C717 C101 1.248 . S
C721 C73 1.242 . S
C735 C143 1.261 . S
C739 C115 1.256 . S
C753 C129 1.243 . S
C757 C157 1.243 . S
C771 C199 1.253 . S
C775 C171 1.260 . S
C789 C185 1.255 . S
C793 C213 1.261 . S
