# Generated by pormake.
# Topology uoz, (4)-cn, num edge types: 1
# Building blocks:
#     Node 0, Type 0, BuildingBlock: CEKHIL_clean_sbu_0, # of connection points: 4
#     Node 1, Type 0, BuildingBlock: CEKHIL_clean_sbu_0, # of connection points: 4
#     Node 2, Type 0, BuildingBlock: CEKHIL_clean_sbu_0, # of connection points: 4
#     Node 3, Type 0, BuildingBlock: CEKHIL_clean_sbu_0, # of connection points: 4
#     Node 4, Type 0, BuildingBlock: CEKHIL_clean_sbu_0, # of connection points: 4
#     Node 5, Type 0, BuildingBlock: CEKHIL_clean_sbu_0, # of connection points: 4
#     Node 6, Type 0, BuildingBlock: CEKHIL_clean_sbu_0, # of connection points: 4
#     Node 7, Type 0, BuildingBlock: CEKHIL_clean_sbu_0, # of connection points: 4
#     Node 8, Type 0, BuildingBlock: CEKHIL_clean_sbu_0, # of connection points: 4
#     Node 9, Type 0, BuildingBlock: CEKHIL_clean_sbu_0, # of connection points: 4
#     Node 10, Type 0, BuildingBlock: CEKHIL_clean_sbu_0, # of connection points: 4
#     Node 11, Type 0, BuildingBlock: CEKHIL_clean_sbu_0, # of connection points: 4
#     Node 12, Type 0, BuildingBlock: CEKHIL_clean_sbu_0, # of connection points: 4
#     Node 13, Type 0, BuildingBlock: CEKHIL_clean_sbu_0, # of connection points: 4
#     Node 14, Type 0, BuildingBlock: CEKHIL_clean_sbu_0, # of connection points: 4
#     Node 15, Type 0, BuildingBlock: CEKHIL_clean_sbu_0, # of connection points: 4
#     Edge 16, Type (0, 0), BuildingBlock: OJICUG_clean_linker_0, # of connection points: 2
#     Edge 17, Type (0, 0), BuildingBlock: OJICUG_clean_linker_0, # of connection points: 2
#     Edge 18, Type (0, 0), BuildingBlock: OJICUG_clean_linker_0, # of connection points: 2
#     Edge 19, Type (0, 0), BuildingBlock: OJICUG_clean_linker_0, # of connection points: 2
#     Edge 20, Type (0, 0), BuildingBlock: OJICUG_clean_linker_0, # of connection points: 2
#     Edge 21, Type (0, 0), BuildingBlock: OJICUG_clean_linker_0, # of connection points: 2
#     Edge 22, Type (0, 0), BuildingBlock: OJICUG_clean_linker_0, # of connection points: 2
#     Edge 23, Type (0, 0), BuildingBlock: OJICUG_clean_linker_0, # of connection points: 2
#     Edge 24, Type (0, 0), BuildingBlock: OJICUG_clean_linker_0, # of connection points: 2
#     Edge 25, Type (0, 0), BuildingBlock: OJICUG_clean_linker_0, # of connection points: 2
#     Edge 26, Type (0, 0), BuildingBlock: OJICUG_clean_linker_0, # of connection points: 2
#     Edge 27, Type (0, 0), BuildingBlock: OJICUG_clean_linker_0, # of connection points: 2
#     Edge 28, Type (0, 0), BuildingBlock: OJICUG_clean_linker_0, # of connection points: 2
#     Edge 29, Type (0, 0), BuildingBlock: OJICUG_clean_linker_0, # of connection points: 2
#     Edge 30, Type (0, 0), BuildingBlock: OJICUG_clean_linker_0, # of connection points: 2
#     Edge 31, Type (0, 0), BuildingBlock: OJICUG_clean_linker_0, # of connection points: 2
#     Edge 32, Type (0, 0), BuildingBlock: OJICUG_clean_linker_0, # of connection points: 2
#     Edge 33, Type (0, 0), BuildingBlock: OJICUG_clean_linker_0, # of connection points: 2
#     Edge 34, Type (0, 0), BuildingBlock: OJICUG_clean_linker_0, # of connection points: 2
#     Edge 35, Type (0, 0), BuildingBlock: OJICUG_clean_linker_0, # of connection points: 2
#     Edge 36, Type (0, 0), BuildingBlock: OJICUG_clean_linker_0, # of connection points: 2
#     Edge 37, Type (0, 0), BuildingBlock: OJICUG_clean_linker_0, # of connection points: 2
#     Edge 38, Type (0, 0), BuildingBlock: OJICUG_clean_linker_0, # of connection points: 2
#     Edge 39, Type (0, 0), BuildingBlock: OJICUG_clean_linker_0, # of connection points: 2
#     Edge 40, Type (0, 0), BuildingBlock: OJICUG_clean_linker_0, # of connection points: 2
#     Edge 41, Type (0, 0), BuildingBlock: OJICUG_clean_linker_0, # of connection points: 2
#     Edge 42, Type (0, 0), BuildingBlock: OJICUG_clean_linker_0, # of connection points: 2
#     Edge 43, Type (0, 0), BuildingBlock: OJICUG_clean_linker_0, # of connection points: 2
#     Edge 44, Type (0, 0), BuildingBlock: OJICUG_clean_linker_0, # of connection points: 2
#     Edge 45, Type (0, 0), BuildingBlock: OJICUG_clean_linker_0, # of connection points: 2
#     Edge 46, Type (0, 0), BuildingBlock: OJICUG_clean_linker_0, # of connection points: 2
#     Edge 47, Type (0, 0), BuildingBlock: OJICUG_clean_linker_0, # of connection points: 2
# Relax obj value: 0.180
# Max RMSD: 0.171
# Mean RMSD: 0.171
data_MOF--net-uoz--node1-CEKHIL_clean_sbu_0--edge1-OJICUG_clean_linker_0
_symmetry_space_group_name_H-M    P1
_symmetry_Int_Tables_number       1
_symmetry_cell_setting            triclinic
loop_
_symmetry_equiv_pos_as_xyz
'x, y, z'
_cell_length_a     43.606674
_cell_length_b     43.61341
_cell_length_c     14.998885
_cell_angle_alpha  89.968027
_cell_angle_beta   90.041773
_cell_angle_gamma 89.951853
loop_
_atom_site_label
_atom_site_type_symbol
_atom_site_fract_x
_atom_site_fract_y
_atom_site_fract_z
_atom_type_partial_charge
Co0 Co 0.03373 0.58876 0.30886 0.0
O1 O 0.01396 0.55308 0.36566 0.0
O2 O 0.05404 0.57622 0.42153 0.0
C3 C 0.98978 0.6151 0.27189 0.0
O4 O 0.06012 0.62639 0.27177 0.0
Co5 Co 0.02124 0.60673 0.1078 0.0
O6 O 0.04616 0.64295 0.13476 0.0
C7 C 0.06802 0.55978 0.15375 0.0
C8 C 0.03419 0.55408 0.42912 0.0
C9 C 0.06256 0.64513 0.20463 0.0
O10 O 0.06233 0.56147 0.23814 0.0
O11 O 0.05343 0.57503 0.09456 0.0
O12 O 1.00069 0.61637 0.35276 0.0
O13 O 1.00368 0.59612 0.22084 0.0
Co14 Co 0.71294 0.74388 0.55435 0.0
O15 O 0.74882 0.72437 0.61117 0.0
O16 O 0.72562 0.76457 0.66616 0.0
C17 C 0.68662 0.69979 0.51913 0.0
O18 O 0.67517 0.77009 0.51719 0.0
Co19 Co 0.69454 0.73074 0.35399 0.0
O20 O 0.65841 0.75591 0.38065 0.0
C21 C 0.74127 0.7779 0.39771 0.0
C22 C 0.74786 0.74479 0.67403 0.0
C23 C 0.65634 0.77244 0.45024 0.0
O24 O 0.73992 0.77235 0.48227 0.0
O25 O 0.72595 0.76309 0.33924 0.0
O26 O 0.68553 0.71094 0.5997 0.0
O27 O 0.70547 0.71354 0.46734 0.0
Co28 Co 0.55415 0.42399 0.80643 0.0
O29 O 0.57393 0.45972 0.86294 0.0
O30 O 0.53387 0.43661 0.91895 0.0
C31 C 0.59809 0.3976 0.76975 0.0
O32 O 0.52775 0.38633 0.76969 0.0
Co33 Co 0.56657 0.40586 0.60554 0.0
O34 O 0.54164 0.36967 0.63283 0.0
C35 C 0.5198 0.45284 0.65095 0.0
C36 C 0.55373 0.45876 0.92639 0.0
C37 C 0.52529 0.36754 0.70274 0.0
O38 O 0.52553 0.45122 0.73537 0.0
O39 O 0.53437 0.43754 0.59194 0.0
O40 O 0.5872 0.39641 0.85062 0.0
O41 O 0.58418 0.41656 0.7185 0.0
Co42 Co 0.87511 0.26842 0.05492 0.0
O43 O 0.83929 0.28804 0.11149 0.0
O44 O 0.86229 0.2477 0.16656 0.0
C45 C 0.90161 0.31245 0.02009 0.0
O46 O 0.91279 0.24206 1.01795 0.0
Co47 Co 0.89368 0.28165 0.85476 0.0
O48 O 0.92963 0.25621 0.88151 0.0
C49 C 0.84668 0.23469 0.89793 0.0
C50 C 0.84013 0.26757 0.1743 0.0
C51 C 0.93161 0.23963 0.95108 0.0
O52 O 0.84805 0.24013 0.98253 0.0
O53 O 0.86208 0.2495 0.83964 0.0
O54 O 0.90264 0.30121 0.10061 0.0
O55 O 0.88274 0.2988 0.96808 0.0
Co56 Co 0.03348 0.42669 0.8394 0.0
O57 O 0.0138 0.46261 0.78336 0.0
O58 O 0.05394 0.43957 0.72745 0.0
C59 C 0.9895 0.40025 0.87487 0.0
O60 O 0.05983 0.38888 0.87552 0.0
Co61 Co 0.02081 0.40789 0.03966 0.0
O62 O 0.04593 0.37183 1.01197 0.0
C63 C 0.06758 0.45501 0.99603 0.0
C64 C 0.03409 0.46176 0.72013 0.0
C65 C 0.06231 0.3699 0.94205 0.0
O66 O 0.062 0.45364 0.91149 0.0
O67 O 0.05291 0.43956 0.05449 0.0
O68 O 1.00051 0.39931 0.79412 0.0
O69 O 1.00332 0.41901 0.92679 0.0
Co70 Co 0.87514 0.74584 0.08472 0.0
O71 O 0.83952 0.72573 0.02854 0.0
O72 O 0.86229 0.7659 0.972 0.0
C73 C 0.90188 0.70215 0.12188 0.0
O74 O 0.91263 0.77257 0.12095 0.0
Co75 Co 0.8936 0.73382 0.28565 0.0
O76 O 0.92958 0.75897 0.25786 0.0
C77 C 0.84605 0.78001 0.2399 0.0
C78 C 0.84028 0.74588 0.96485 0.0
C79 C 0.9315 0.77525 0.18771 0.0
O80 O 0.84772 0.77429 0.15551 0.0
O81 O 0.86153 0.76564 0.29902 0.0
O82 O 0.90293 0.71296 0.04087 0.0
O83 O 0.88287 0.71598 0.17303 0.0
Co84 Co 0.55458 0.58597 0.33683 0.0
O85 O 0.57424 0.55011 0.28058 0.0
O86 O 0.53411 0.57323 0.22466 0.0
C87 C 0.5986 0.61232 0.37269 0.0
O88 O 0.52824 0.62374 0.37325 0.0
Co89 Co 0.5673 0.60446 0.5373 0.0
O90 O 0.54218 0.64057 0.5099 0.0
C91 C 0.5204 0.55753 0.49302 0.0
C92 C 0.55395 0.55103 0.21728 0.0
C93 C 0.52577 0.6426 0.44001 0.0
O94 O 0.52603 0.55895 0.40854 0.0
O95 O 0.53507 0.5729 0.55167 0.0
O96 O 0.58758 0.61339 0.29192 0.0
O97 O 0.58475 0.5935 0.42439 0.0
Co98 Co 0.71262 0.26664 0.58383 0.0
O99 O 0.74821 0.28681 0.52775 0.0
O100 O 0.72555 0.24657 0.47133 0.0
C101 C 0.68579 0.3103 0.62063 0.0
O102 O 0.6752 0.23981 0.61995 0.0
Co103 Co 0.69405 0.27864 0.78456 0.0
O104 O 0.6582 0.25329 0.75678 0.0
C105 C 0.74178 0.23261 0.73936 0.0
C106 C 0.74752 0.26663 0.46421 0.0
C107 C 0.65636 0.23701 0.68665 0.0
O108 O 0.74009 0.23828 0.65493 0.0
O109 O 0.72625 0.24696 0.79831 0.0
O110 O 0.68476 0.29947 0.53967 0.0
O111 O 0.7048 0.29649 0.67196 0.0
Co112 Co 0.37509 0.2439 0.58497 0.0
O113 O 0.33931 0.22423 0.5284 0.0
O114 O 0.36217 0.26459 0.47332 0.0
C115 C 0.40171 0.19991 0.61983 0.0
O116 O 0.41271 0.2703 0.62191 0.0
Co117 Co 0.39379 0.23072 0.78513 0.0
O118 O 0.42967 0.25617 0.75835 0.0
C119 C 0.34657 0.27754 0.74196 0.0
C120 C 0.34007 0.24469 0.46556 0.0
C121 C 0.43157 0.27274 0.68875 0.0
O122 O 0.34796 0.27215 0.65735 0.0
O123 O 0.36203 0.26276 0.80026 0.0
O124 O 0.40268 0.21114 0.5393 0.0
O125 O 0.38284 0.21354 0.67184 0.0
Co126 Co 0.21306 0.76824 0.08545 0.0
O127 O 0.24889 0.78777 0.02875 0.0
O128 O 0.2258 0.74755 0.97369 0.0
C129 C 0.18664 0.81233 0.12051 0.0
O130 O 0.17535 0.742 0.12257 0.0
Co131 Co 0.19466 0.78143 0.28574 0.0
O132 O 0.1586 0.7562 0.25907 0.0
C133 C 0.24145 0.73425 0.24223 0.0
C134 C 0.24799 0.76735 0.96588 0.0
C135 C 0.15655 0.73965 0.18952 0.0
O136 O 0.2401 0.7398 0.15767 0.0
O137 O 0.2261 0.74906 0.30062 0.0
O138 O 0.18556 0.80115 0.03996 0.0
O139 O 0.20553 0.7986 0.17238 0.0
Co140 Co 0.21251 0.24542 0.05575 0.0
O141 O 0.24815 0.22527 0.11191 0.0
O142 O 0.2254 0.26551 0.16824 0.0
C143 C 0.18576 0.20176 1.0189 0.0
O144 O 0.17502 0.27223 0.01961 0.0
Co145 Co 0.19387 0.23343 0.85501 0.0
O146 O 0.15797 0.25875 0.88279 0.0
C147 C 0.24159 0.27942 0.90024 0.0
C148 C 0.24742 0.24546 0.17542 0.0
C149 C 0.15613 0.27502 0.95294 0.0
O150 O 0.2399 0.27378 0.98468 0.0
O151 O 0.22606 0.26505 0.84127 0.0
O152 O 0.18473 0.21258 0.09986 0.0
O153 O 0.20472 0.21557 0.9676 0.0
Co154 Co 0.37522 0.7665 0.5555 0.0
O155 O 0.33958 0.78657 0.61171 0.0
O156 O 0.36247 0.74642 0.66823 0.0
C157 C 0.40183 0.81022 0.5183 0.0
O158 O 0.41276 0.7398 0.51918 0.0
Co159 Co 0.39351 0.77855 0.35454 0.0
O160 O 0.42956 0.75341 0.38222 0.0
C161 C 0.34617 0.73225 0.40038 0.0
C162 C 0.34041 0.76642 0.67538 0.0
C163 C 0.43157 0.73712 0.45235 0.0
O164 O 0.34785 0.73802 0.48475 0.0
O165 O 0.36159 0.74664 0.34124 0.0
O166 O 0.40297 0.79942 0.59931 0.0
O167 O 0.38283 0.79637 0.46719 0.0
Co168 Co 0.53373 0.08553 0.80066 0.0
O169 O 0.51398 0.04969 0.85666 0.0
O170 O 0.55417 0.07258 0.91272 0.0
C171 C 0.48978 0.1121 0.76508 0.0
O172 O 0.56013 0.12325 0.76451 0.0
Co173 Co 0.52103 0.1043 0.60032 0.0
O174 O 0.5462 0.14029 0.62798 0.0
C175 C 0.56775 0.05706 0.64417 0.0
C176 C 0.53426 0.05047 0.91999 0.0
C177 C 0.56261 0.1422 0.69791 0.0
O178 O 0.56219 0.05847 0.7287 0.0
O179 O 0.55309 0.07254 0.58565 0.0
O180 O 0.50082 0.11302 0.84584 0.0
O181 O 0.50357 0.09329 0.7132 0.0
Co182 Co 0.05451 0.92629 0.30226 0.0
O183 O 0.07417 0.96215 0.35841 0.0
O184 O 0.03407 0.93909 0.41434 0.0
C185 C 0.09853 0.89987 0.26652 0.0
O186 O 0.02817 0.88854 0.26599 0.0
Co187 Co 0.06714 0.90766 0.10189 0.0
O188 O 0.04204 0.87161 0.12942 0.0
C189 C 0.02027 0.95471 0.1459 0.0
C190 C 0.0539 0.96127 0.42169 0.0
C191 C 0.02567 0.86964 0.19934 0.0
O192 O 0.02592 0.95331 0.23041 0.0
O193 O 0.03492 0.93929 0.08734 0.0
O194 O 0.08754 0.89885 0.34728 0.0
O195 O 0.08465 0.91868 0.21474 0.0
Co196 Co 0.53349 0.92349 0.33128 0.0
O197 O 0.5138 0.95925 0.27443 0.0
O198 O 0.55382 0.93595 0.21871 0.0
C199 C 0.4895 0.89729 0.36818 0.0
O200 O 0.55981 0.88577 0.36838 0.0
Co201 Co 0.52103 0.90552 0.5323 0.0
O202 O 0.54587 0.86922 0.50531 0.0
C203 C 0.56789 0.95231 0.4865 0.0
C204 C 0.53402 0.95818 0.21105 0.0
C205 C 0.56224 0.867 0.43545 0.0
O206 O 0.56216 0.95066 0.4021 0.0
O207 O 0.5533 0.93709 0.54564 0.0
O208 O 0.50039 0.896 0.28733 0.0
O209 O 0.50344 0.91623 0.41926 0.0
Co210 Co 0.05415 0.08824 0.83269 0.0
O211 O 0.07391 0.05251 0.77611 0.0
O212 O 0.03384 0.0757 0.72009 0.0
C213 C 0.09809 0.11455 0.86951 0.0
O214 O 0.02777 0.12594 0.86955 0.0
Co215 Co 0.06665 0.10624 0.03368 0.0
O216 O 0.04172 0.14249 1.00649 0.0
C217 C 0.01982 0.0594 0.98799 0.0
C218 C 0.0537 0.05352 0.71262 0.0
C219 C 0.02534 0.14469 0.93658 0.0
O220 O 0.02554 0.06104 0.90359 0.0
O221 O 0.03441 0.07464 0.04708 0.0
O222 O 0.08718 0.11578 0.78863 0.0
O223 O 0.0842 0.09559 0.92068 0.0
C224 C 0.12076 0.70228 0.11411 0.0
C225 C 0.13272 0.71521 0.1921 0.0
H226 H 0.08913 0.67041 0.05726 0.0
C227 C 0.12179 0.70442 0.27522 0.0
H228 H 0.12869 0.70987 0.04934 0.0
C229 C 0.0994 0.68143 0.28022 0.0
C230 C 0.0869 0.66905 0.2022 0.0
H231 H 0.13078 0.71357 0.33706 0.0
H232 H 0.09159 0.67372 0.34499 0.0
C233 C 0.09795 0.67973 0.11909 0.0
C234 C 0.59906 0.83069 0.35974 0.0
C235 C 0.58656 0.84302 0.43782 0.0
H236 H 0.63048 0.79859 0.30279 0.0
C237 C 0.59763 0.83227 0.52089 0.0
H238 H 0.59123 0.83846 0.29501 0.0
C239 C 0.62048 0.80971 0.52578 0.0
C240 C 0.63244 0.79685 0.44774 0.0
H241 H 0.5888 0.84155 0.58275 0.0
H242 H 0.62843 0.80207 0.59053 0.0
C243 C 0.62148 0.80769 0.36465 0.0
C244 C 0.48985 0.33287 0.61763 0.0
C245 C 0.50098 0.34358 0.70061 0.0
H246 H 0.45911 0.3026 0.54825 0.0
C247 C 0.48862 0.33118 0.77878 0.0
H248 H 0.49856 0.3422 0.5557 0.0
C249 C 0.4663 0.30812 0.77406 0.0
C250 C 0.4553 0.29728 0.69107 0.0
H251 H 0.49651 0.33893 0.84345 0.0
H252 H 0.45742 0.29895 0.83599 0.0
C253 C 0.4671 0.31024 0.61293 0.0
C254 C 0.96633 0.20428 0.86559 0.0
C255 C 0.95536 0.21508 0.94864 0.0
H256 H 0.9965 0.17347 0.79602 0.0
C257 C 0.9672 0.20205 0.0267 0.0
H258 H 0.95743 0.21351 0.8037 0.0
C259 C 0.98994 0.17938 0.02187 0.0
C260 C 1.00103 0.1687 0.93884 0.0
H261 H 0.95924 0.20965 0.09143 0.0
H262 H 0.99868 0.16999 0.08376 0.0
C263 C 0.98864 0.18118 0.86074 0.0
C264 C 0.09765 0.33473 0.02616 0.0
C265 C 0.08663 0.34592 0.94354 0.0
H266 H 0.12836 0.30407 0.09453 0.0
C267 C 0.09915 0.33399 0.86497 0.0
H268 H 0.08881 0.34368 0.08839 0.0
C269 C 0.12152 0.31093 0.86892 0.0
C270 C 0.13242 0.29961 0.95153 0.0
H271 H 0.09136 0.34211 0.80055 0.0
H272 H 0.13052 0.30213 0.80668 0.0
C273 C 0.12046 0.3121 0.03012 0.0
C274 C 0.9886 0.8339 0.27612 0.0
C275 C 1.00128 0.84575 0.19766 0.0
H276 H 0.95701 0.80224 0.33414 0.0
C277 C 0.99032 0.83462 0.11495 0.0
H278 H 0.99634 0.84197 0.3406 0.0
C279 C 0.96741 0.81214 0.1108 0.0
C280 C 0.95529 0.79973 0.18928 0.0
H281 H 0.99928 0.84353 0.05278 0.0
H282 H 0.95957 0.80416 0.04632 0.0
C283 C 0.96613 0.81098 0.27198 0.0
C284 C 0.46757 0.70015 0.52899 0.0
C285 C 0.45538 0.71262 0.45061 0.0
H286 H 0.49949 0.66867 0.58677 0.0
C287 C 0.46616 0.7014 0.36782 0.0
H288 H 0.45978 0.7081 0.59353 0.0
C289 C 0.48863 0.67845 0.36351 0.0
C290 C 0.50138 0.66653 0.44186 0.0
H291 H 0.45699 0.71019 0.30572 0.0
H292 H 0.49632 0.6704 0.29896 0.0
C293 C 0.49048 0.67763 0.52467 0.0
C294 C 0.62185 0.20113 0.77081 0.0
C295 C 0.63269 0.21241 0.68815 0.0
H296 H 0.59174 0.17002 0.83931 0.0
C297 C 0.62073 0.19987 0.60962 0.0
H298 H 0.63086 0.20996 0.83301 0.0
C299 C 0.59794 0.17726 0.61367 0.0
C300 C 0.58696 0.16613 0.69634 0.0
H301 H 0.62858 0.20785 0.54517 0.0
H302 H 0.58909 0.16827 0.55148 0.0
C303 C 0.5995 0.17809 0.77486 0.0
C304 C 0.9627 0.37477 1.00442 0.0
C305 C 0.96649 0.37814 0.91127 0.0
H306 H 0.94013 0.35114 0.11185 0.0
C307 C 0.94817 0.36026 0.85494 0.0
H308 H 0.97582 0.38849 0.05056 0.0
C309 C 0.92675 0.33963 0.89069 0.0
C310 C 0.92373 0.33545 0.98381 0.0
H311 H 0.95012 0.36244 0.78323 0.0
H312 H 0.9127 0.32684 0.84456 0.0
C313 C 0.94202 0.35338 0.04014 0.0
C314 C 0.44841 0.15209 0.78497 0.0
C315 C 0.46676 0.13423 0.72865 0.0
H316 H 0.41288 0.1855 0.79534 0.0
C317 C 0.46295 0.13763 0.6355 0.0
H318 H 0.45037 0.14988 0.85669 0.0
C319 C 0.44222 0.15902 0.59977 0.0
C320 C 0.4239 0.17691 0.6561 0.0
H321 H 0.4761 0.12393 0.58936 0.0
H322 H 0.44031 0.16128 0.52806 0.0
C323 C 0.42694 0.17272 0.74922 0.0
C324 C 0.62541 0.63761 0.50259 0.0
C325 C 0.62165 0.63433 0.40939 0.0
H326 H 0.64797 0.66109 0.61034 0.0
C327 C 0.64007 0.6522 0.35332 0.0
H328 H 0.61222 0.62389 0.54856 0.0
C329 C 0.66154 0.67274 0.38936 0.0
C330 C 0.66449 0.67683 0.48252 0.0
H331 H 0.63816 0.65008 0.28158 0.0
H332 H 0.67566 0.68552 0.34341 0.0
C333 C 0.64612 0.65891 0.5386 0.0
C334 C 0.16155 0.83943 0.25015 0.0
C335 C 0.16448 0.8353 0.157 0.0
H336 H 0.13818 0.86213 0.35782 0.0
C337 C 0.14606 0.85319 0.10084 0.0
H338 H 0.1757 0.82666 0.29616 0.0
C339 C 0.12532 0.87451 0.13675 0.0
C340 C 0.12159 0.87783 0.22993 0.0
H341 H 0.14788 0.85099 0.02911 0.0
H342 H 0.11209 0.88822 0.09071 0.0
C343 C 0.14006 0.85998 0.28609 0.0
C344 C 0.96302 0.6399 0.14101 0.0
C345 C 0.9668 0.63706 0.23433 0.0
H346 H 0.94047 0.66294 0.03229 0.0
C347 C 0.94847 0.6553 0.28966 0.0
H348 H 0.97615 0.62589 0.09561 0.0
C349 C 0.92706 0.67576 0.25278 0.0
C350 C 0.92406 0.67938 0.15944 0.0
H351 H 0.9504 0.65353 0.36148 0.0
H352 H 0.913 0.68884 0.29819 0.0
C353 C 0.94236 0.66112 0.10411 0.0
C354 C 0.1248 0.1394 1.00025 0.0
C355 C 0.12101 0.13653 0.90695 0.0
H356 H 0.1473 0.1625 0.10881 0.0
C357 C 0.13925 0.15481 0.85149 0.0
H358 H 0.11174 0.12536 0.04574 0.0
C359 C 0.1606 0.17532 0.88823 0.0
C360 C 0.16362 0.17896 0.98154 0.0
H361 H 0.13731 0.15302 0.77969 0.0
H362 H 0.17459 0.18842 0.84272 0.0
C363 C 0.1454 0.16067 0.03701 0.0
C364 C 0.66062 0.33674 0.75124 0.0
C365 C 0.66363 0.3331 0.65794 0.0
H366 H 0.63732 0.35906 0.85971 0.0
C367 C 0.6454 0.35142 0.60242 0.0
H368 H 0.67461 0.32361 0.79679 0.0
C369 C 0.62479 0.37271 0.63911 0.0
C370 C 0.62101 0.37558 0.7324 0.0
H371 H 0.6473 0.3496 0.53062 0.0
H372 H 0.61173 0.38677 0.59358 0.0
C373 C 0.63926 0.35727 0.78791 0.0
C374 C 0.42691 0.83659 0.38737 0.0
C375 C 0.42394 0.833 0.4807 0.0
H376 H 0.45019 0.85879 0.27863 0.0
C377 C 0.44219 0.85133 0.53601 0.0
H378 H 0.4129 0.82347 0.34197 0.0
C379 C 0.46279 0.87255 0.49909 0.0
C380 C 0.46655 0.87535 0.40576 0.0
H381 H 0.44032 0.84954 0.60783 0.0
H382 H 0.47587 0.88661 0.54447 0.0
C383 C 0.44827 0.85706 0.35045 0.0
C384 C 0.0931 0.53412 0.02602 0.0
C385 C 0.08784 0.53521 0.11882 0.0
H386 H 0.09023 0.50584 0.91007 0.0
C387 C 0.0919 0.50846 0.16893 0.0
H388 H 0.09216 0.5548 0.98602 0.0
C389 C 0.09233 0.48034 0.12502 0.0
C390 C 0.08743 0.47936 0.03202 0.0
H391 H 0.08961 0.5087 0.24086 0.0
H392 H 0.09082 0.4597 0.16506 0.0
C393 C 0.09223 0.50601 0.98208 0.0
C394 C 0.79441 0.80315 0.22488 0.0
C395 C 0.82123 0.79948 0.27495 0.0
H396 H 0.74568 0.8012 0.22872 0.0
C397 C 0.82005 0.80464 0.3678 0.0
H398 H 0.79468 0.80094 0.15294 0.0
C399 C 0.79197 0.8032 0.41174 0.0
C400 C 0.76539 0.79802 0.36174 0.0
H401 H 0.84075 0.80401 0.4078 0.0
H402 H 0.79183 0.80114 0.48373 0.0
C403 C 0.76629 0.80302 0.26879 0.0
C404 C 0.49545 0.53224 0.62169 0.0
C405 C 0.50045 0.53323 0.52876 0.0
H406 H 0.49807 0.50391 0.73765 0.0
C407 C 0.4957 0.50657 0.47884 0.0
H408 H 0.4969 0.55289 0.66163 0.0
C409 C 0.49478 0.47847 0.52287 0.0
C410 C 0.49997 0.47738 0.61573 0.0
H411 H 0.49777 0.50676 0.40686 0.0
H412 H 0.49577 0.4578 0.4829 0.0
C413 C 0.49583 0.50412 0.6657 0.0
C414 C 0.82161 0.20977 0.76876 0.0
C415 C 0.8225 0.2147 0.86174 0.0
H416 H 0.79325 0.21184 0.65276 0.0
C417 C 0.79591 0.20951 0.91159 0.0
H418 H 0.84224 0.21159 0.72886 0.0
C419 C 0.76783 0.20808 0.8675 0.0
C420 C 0.76666 0.21323 0.77464 0.0
H421 H 0.79605 0.21154 0.98358 0.0
H422 H 0.74713 0.2087 0.90742 0.0
C423 C 0.79349 0.20961 0.72471 0.0
C424 C 0.26759 0.30392 0.77214 0.0
C425 C 0.26644 0.29877 0.865 0.0
H426 H 0.29581 0.30055 0.65617 0.0
C427 C 0.29326 0.30242 0.91504 0.0
H428 H 0.24688 0.30327 0.73218 0.0
C429 C 0.32138 0.30234 0.8711 0.0
C430 C 0.32229 0.29744 0.77812 0.0
H431 H 0.29301 0.30019 0.98699 0.0
H432 H 0.34201 0.30056 0.91113 0.0
C433 C 0.29567 0.30257 0.72817 0.0
C434 C 0.29462 0.70904 0.41532 0.0
C435 C 0.32143 0.71271 0.36534 0.0
H436 H 0.24588 0.71096 0.41127 0.0
C437 C 0.32026 0.7075 0.27252 0.0
H438 H 0.29488 0.71128 0.48726 0.0
C439 C 0.29218 0.70891 0.22845 0.0
C440 C 0.26559 0.71412 0.27833 0.0
H441 H 0.34096 0.70813 0.2326 0.0
H442 H 0.29203 0.71096 0.15645 0.0
C443 C 0.26649 0.70914 0.3713 0.0
C444 C 0.59192 1.00351 0.4714 0.0
C445 C 0.58778 0.97678 0.52152 0.0
H446 H 0.59099 0.05227 0.47523 0.0
C447 C 0.59307 0.97786 0.61433 0.0
H448 H 0.58962 1.00328 0.39947 0.0
C449 C 0.59228 1.00597 0.65825 0.0
C450 C 0.58756 0.03265 0.60827 0.0
H451 H 0.59207 0.95719 0.65435 0.0
H452 H 0.59029 0.00616 0.73025 0.0
C453 C 0.59245 0.03163 0.51529 0.0
C454 C 0.99474 0.03383 0.11589 0.0
C455 C 0.99997 0.03491 0.02307 0.0
H456 H 0.99765 1.00555 0.23192 0.0
C457 C 0.99582 0.00818 0.97306 0.0
H458 H 0.99574 0.05451 0.15582 0.0
C459 C 0.99536 0.98006 1.01707 0.0
C460 C 1.00034 0.97906 0.11004 0.0
H461 H 0.99807 0.0084 0.90112 0.0
H462 H 0.99682 0.95941 0.97709 0.0
C463 C 0.9956 1.00573 0.15992 0.0
C464 C 0.0069 0.49713 0.60976 0.0
C465 C 0.03446 0.48516 0.64491 0.0
H466 H 0.98515 0.52705 0.51409 0.0
C467 C 0.06212 0.49652 0.60867 0.0
H468 H 0.9851 0.48917 0.63544 0.0
C469 C 0.06214 0.51935 0.54106 0.0
C470 C 0.03451 0.53082 0.50472 0.0
H471 H 0.08385 0.48819 0.63392 0.0
H472 H 0.0839 0.52757 0.51581 0.0
C473 C 0.00692 0.519 0.53986 0.0
C474 C 0.80518 0.71823 0.85489 0.0
C475 C 0.81693 0.74594 0.88945 0.0
H476 H 0.7754 0.6961 0.75978 0.0
C477 C 0.80535 0.77344 0.85263 0.0
H478 H 0.81332 0.69655 0.88104 0.0
C479 C 0.7825 0.77318 0.78506 0.0
C480 C 0.77123 0.74541 0.74936 0.0
H481 H 0.81351 0.79528 0.87742 0.0
H482 H 0.77409 0.79483 0.7594 0.0
C483 C 0.78329 0.71797 0.78504 0.0
C484 C 0.58109 0.51574 0.10681 0.0
C485 C 0.55354 0.52769 0.14197 0.0
H486 H 0.6028 0.48585 1.01119 0.0
C487 C 0.52587 0.51632 0.10576 0.0
H488 H 0.60289 0.52371 0.13247 0.0
C489 C 0.52582 0.49351 0.03818 0.0
C490 C 0.55343 0.48205 1.00185 0.0
H491 H 0.50415 0.52464 0.13101 0.0
H492 H 0.50406 0.48528 1.01297 0.0
C493 C 0.58104 0.49389 0.03694 0.0
C494 C 0.80538 0.23924 0.28509 0.0
C495 C 0.81672 0.26699 0.24942 0.0
H496 H 0.77427 0.21719 0.37721 0.0
C497 C 0.80468 0.29445 0.28489 0.0
H498 H 0.81376 0.21758 0.25957 0.0
C499 C 0.78274 0.29423 0.35452 0.0
C500 C 0.77092 0.26654 0.38905 0.0
H501 H 0.81263 0.31631 0.25964 0.0
H502 H 0.77462 0.31592 0.38052 0.0
C503 C 0.78248 0.23902 0.35243 0.0
C504 C 0.30522 0.27295 0.35466 0.0
C505 C 0.31665 0.24522 0.3904 0.0
H506 H 0.27404 0.29494 0.26242 0.0
C507 C 0.30469 0.21774 0.35493 0.0
H508 H 0.31354 0.29463 0.38017 0.0
C509 C 0.28274 0.21792 0.28522 0.0
C510 C 0.27084 0.24559 0.25063 0.0
H511 H 0.31271 0.1959 0.38023 0.0
H512 H 0.27468 0.19621 0.25923 0.0
C513 C 0.28232 0.27313 0.28725 0.0
C514 C 0.30524 0.794 0.78528 0.0
C515 C 0.31707 0.76631 0.75072 0.0
H516 H 0.27539 0.81608 0.8803 0.0
C517 C 0.30556 0.73879 0.78747 0.0
H518 H 0.31332 0.8157 0.7592 0.0
C519 C 0.28271 0.73902 0.85494 0.0
C520 C 0.27135 0.76677 0.89063 0.0
H521 H 0.31378 0.71697 0.76268 0.0
H522 H 0.27436 0.71735 0.88054 0.0
C523 C 0.28335 0.79422 0.85504 0.0
C524 C 0.50689 0.99341 0.10021 0.0
C525 C 0.53443 0.98145 0.13549 0.0
H526 H 0.48518 0.02335 1.00451 0.0
C527 C 0.5621 0.99277 0.09929 0.0
H528 H 0.48508 0.98547 0.12588 0.0
C529 C 0.56217 0.01559 0.03166 0.0
C530 C 0.53455 0.02709 0.99528 0.0
H531 H 0.58383 0.98444 0.12464 0.0
H532 H 0.58393 0.02381 1.00651 0.0
C533 C 0.50694 0.01527 0.0303 0.0
C534 C 0.081 0.01841 0.602 0.0
C535 C 0.0534 0.03026 0.63709 0.0
H536 H 0.10285 0.98858 0.50648 0.0
C537 C 0.02578 0.01882 0.60074 0.0
H538 H 0.10277 0.02643 0.62778 0.0
C539 C 0.02583 0.99601 0.53315 0.0
C540 C 0.0535 0.98463 0.49695 0.0
H541 H 1.00402 0.02706 0.62595 0.0
H542 H 1.0041 0.9877 0.50788 0.0
C543 C 0.08105 0.99656 0.53212 0.0
loop_
_geom_bond_atom_site_label_1
_geom_bond_atom_site_label_2
_geom_bond_distance
_geom_bond_site_symmetry_2
_ccdc_geom_bond_type
Co0 O1 2.216 . S
Co0 O2 2.091 . S
Co0 O4 2.004 . S
Co0 O10 2.021 . S
Co0 O12 2.137 . S
Co0 O13 2.244 . S
O1 Co0 2.216 . S
O1 C8 1.247 . S
O2 Co0 2.091 . S
O2 C8 1.261 . S
C3 O12 1.247 1_655 S
C3 O13 1.272 1_655 S
O4 Co0 2.004 . S
O4 C9 1.259 . S
Co5 O6 2.061 . S
Co5 O11 2.052 . S
Co5 O13 2.134 . S
O6 Co5 2.061 . S
O6 C9 1.235 . S
C7 O10 1.238 . S
C7 O11 1.241 . S
C8 O1 1.247 . S
C8 O2 1.261 . S
C9 O4 1.259 . S
C9 O6 1.235 . S
O10 Co0 2.021 . S
O10 C7 1.238 . S
O11 Co5 2.052 . S
O11 C7 1.241 . S
O12 Co0 2.137 . S
O12 C3 1.247 1_455 S
O13 Co0 2.244 . S
O13 C3 1.272 1_455 S
O13 Co5 2.134 . S
Co14 O15 2.216 . S
Co14 O16 2.091 . S
Co14 O18 2.004 . S
Co14 O24 2.021 . S
Co14 O26 2.137 . S
Co14 O27 2.244 . S
O15 Co14 2.216 . S
O15 C22 1.247 . S
O16 Co14 2.091 . S
O16 C22 1.261 . S
C17 O26 1.247 . S
C17 O27 1.272 . S
O18 Co14 2.004 . S
O18 C23 1.259 . S
Co19 O20 2.061 . S
Co19 O25 2.052 . S
Co19 O27 2.135 . S
O20 Co19 2.061 . S
O20 C23 1.235 . S
C21 O24 1.238 . S
C21 O25 1.241 . S
C22 O15 1.247 . S
C22 O16 1.261 . S
C23 O18 1.259 . S
C23 O20 1.235 . S
O24 Co14 2.021 . S
O24 C21 1.238 . S
O25 Co19 2.052 . S
O25 C21 1.241 . S
O26 Co14 2.137 . S
O26 C17 1.247 . S
O27 Co14 2.244 . S
O27 C17 1.272 . S
O27 Co19 2.135 . S
Co28 O29 2.216 . S
Co28 O30 2.091 . S
Co28 O32 2.004 . S
Co28 O38 2.021 . S
Co28 O40 2.137 . S
Co28 O41 2.244 . S
O29 Co28 2.216 . S
O29 C36 1.247 . S
O30 Co28 2.091 . S
O30 C36 1.261 . S
C31 O40 1.247 . S
C31 O41 1.272 . S
O32 Co28 2.004 . S
O32 C37 1.259 . S
Co33 O34 2.061 . S
Co33 O39 2.052 . S
Co33 O41 2.135 . S
O34 Co33 2.061 . S
O34 C37 1.235 . S
C35 O38 1.238 . S
C35 O39 1.241 . S
C36 O29 1.247 . S
C36 O30 1.261 . S
C37 O32 1.259 . S
C37 O34 1.235 . S
O38 Co28 2.021 . S
O38 C35 1.238 . S
O39 Co33 2.052 . S
O39 C35 1.241 . S
O40 Co28 2.137 . S
O40 C31 1.247 . S
O41 Co28 2.244 . S
O41 C31 1.272 . S
O41 Co33 2.135 . S
Co42 O43 2.216 . S
Co42 O44 2.091 . S
Co42 O46 2.004 . S
Co42 O52 2.021 1_554 S
Co42 O54 2.137 . S
Co42 O55 2.244 1_554 S
O43 Co42 2.216 . S
O43 C50 1.247 . S
O44 Co42 2.091 . S
O44 C50 1.261 . S
C45 O54 1.247 . S
C45 O55 1.272 1_554 S
O46 Co42 2.004 . S
O46 C51 1.259 1_554 S
Co47 O48 2.061 . S
Co47 O53 2.052 . S
Co47 O55 2.135 . S
O48 Co47 2.061 . S
O48 C51 1.235 . S
C49 O52 1.238 . S
C49 O53 1.241 . S
C50 O43 1.247 . S
C50 O44 1.261 . S
C51 O46 1.259 1_556 S
C51 O48 1.235 . S
O52 Co42 2.021 1_556 S
O52 C49 1.238 . S
O53 Co47 2.052 . S
O53 C49 1.241 . S
O54 Co42 2.137 . S
O54 C45 1.247 . S
O55 Co42 2.244 1_556 S
O55 C45 1.272 1_556 S
O55 Co47 2.135 . S
Co56 O57 2.216 . S
Co56 O58 2.091 . S
Co56 O60 2.004 . S
Co56 O66 2.021 . S
Co56 O68 2.137 . S
Co56 O69 2.244 . S
O57 Co56 2.216 . S
O57 C64 1.247 . S
O58 Co56 2.091 . S
O58 C64 1.261 . S
C59 O68 1.247 1_655 S
C59 O69 1.272 1_655 S
O60 Co56 2.004 . S
O60 C65 1.259 . S
Co61 O62 2.061 1_554 S
Co61 O67 2.052 . S
Co61 O69 2.134 1_554 S
O62 Co61 2.061 1_556 S
O62 C65 1.235 . S
C63 O66 1.238 . S
C63 O67 1.241 1_556 S
C64 O57 1.247 . S
C64 O58 1.261 . S
C65 O60 1.259 . S
C65 O62 1.235 . S
O66 Co56 2.021 . S
O66 C63 1.238 . S
O67 Co61 2.052 . S
O67 C63 1.241 1_554 S
O68 Co56 2.137 . S
O68 C59 1.247 1_455 S
O69 Co56 2.244 . S
O69 C59 1.272 1_455 S
O69 Co61 2.134 1_556 S
Co70 O71 2.216 . S
Co70 O72 2.091 1_554 S
Co70 O74 2.004 . S
Co70 O80 2.021 . S
Co70 O82 2.137 . S
Co70 O83 2.244 . S
O71 Co70 2.216 . S
O71 C78 1.247 1_554 S
O72 Co70 2.091 1_556 S
O72 C78 1.261 . S
C73 O82 1.247 . S
C73 O83 1.272 . S
O74 Co70 2.004 . S
O74 C79 1.259 . S
Co75 O76 2.061 . S
Co75 O81 2.052 . S
Co75 O83 2.135 . S
O76 Co75 2.061 . S
O76 C79 1.235 . S
C77 O80 1.238 . S
C77 O81 1.241 . S
C78 O71 1.247 1_556 S
C78 O72 1.261 . S
C79 O74 1.259 . S
C79 O76 1.235 . S
O80 Co70 2.021 . S
O80 C77 1.238 . S
O81 Co75 2.052 . S
O81 C77 1.241 . S
O82 Co70 2.137 . S
O82 C73 1.247 . S
O83 Co70 2.244 . S
O83 C73 1.272 . S
O83 Co75 2.135 . S
Co84 O85 2.216 . S
Co84 O86 2.091 . S
Co84 O88 2.004 . S
Co84 O94 2.021 . S
Co84 O96 2.137 . S
Co84 O97 2.244 . S
O85 Co84 2.216 . S
O85 C92 1.247 . S
O86 Co84 2.091 . S
O86 C92 1.261 . S
C87 O96 1.247 . S
C87 O97 1.272 . S
O88 Co84 2.004 . S
O88 C93 1.259 . S
Co89 O90 2.061 . S
Co89 O95 2.052 . S
Co89 O97 2.135 . S
O90 Co89 2.061 . S
O90 C93 1.235 . S
C91 O94 1.238 . S
C91 O95 1.241 . S
C92 O85 1.247 . S
C92 O86 1.261 . S
C93 O88 1.259 . S
C93 O90 1.235 . S
O94 Co84 2.021 . S
O94 C91 1.238 . S
O95 Co89 2.052 . S
O95 C91 1.241 . S
O96 Co84 2.137 . S
O96 C87 1.247 . S
O97 Co84 2.244 . S
O97 C87 1.272 . S
O97 Co89 2.135 . S
Co98 O99 2.216 . S
Co98 O100 2.091 . S
Co98 O102 2.004 . S
Co98 O108 2.021 . S
Co98 O110 2.137 . S
Co98 O111 2.244 . S
O99 Co98 2.216 . S
O99 C106 1.247 . S
O100 Co98 2.091 . S
O100 C106 1.261 . S
C101 O110 1.247 . S
C101 O111 1.272 . S
O102 Co98 2.004 . S
O102 C107 1.259 . S
Co103 O104 2.061 . S
Co103 O109 2.052 . S
Co103 O111 2.135 . S
O104 Co103 2.061 . S
O104 C107 1.235 . S
C105 O108 1.238 . S
C105 O109 1.241 . S
C106 O99 1.247 . S
C106 O100 1.261 . S
C107 O102 1.259 . S
C107 O104 1.235 . S
O108 Co98 2.021 . S
O108 C105 1.238 . S
O109 Co103 2.052 . S
O109 C105 1.241 . S
O110 Co98 2.137 . S
O110 C101 1.247 . S
O111 Co98 2.244 . S
O111 C101 1.272 . S
O111 Co103 2.135 . S
Co112 O113 2.216 . S
Co112 O114 2.091 . S
Co112 O116 2.004 . S
Co112 O122 2.021 . S
Co112 O124 2.137 . S
Co112 O125 2.244 . S
O113 Co112 2.216 . S
O113 C120 1.247 . S
O114 Co112 2.091 . S
O114 C120 1.261 . S
C115 O124 1.247 . S
C115 O125 1.272 . S
O116 Co112 2.004 . S
O116 C121 1.259 . S
Co117 O118 2.061 . S
Co117 O123 2.052 . S
Co117 O125 2.135 . S
O118 Co117 2.061 . S
O118 C121 1.235 . S
C119 O122 1.238 . S
C119 O123 1.241 . S
C120 O113 1.247 . S
C120 O114 1.261 . S
C121 O116 1.259 . S
C121 O118 1.235 . S
O122 Co112 2.021 . S
O122 C119 1.238 . S
O123 Co117 2.052 . S
O123 C119 1.241 . S
O124 Co112 2.137 . S
O124 C115 1.247 . S
O125 Co112 2.244 . S
O125 C115 1.272 . S
O125 Co117 2.135 . S
Co126 O127 2.216 . S
Co126 O128 2.091 1_554 S
Co126 O130 2.004 . S
Co126 O136 2.021 . S
Co126 O138 2.137 . S
Co126 O139 2.244 . S
O127 Co126 2.216 . S
O127 C134 1.247 1_554 S
O128 Co126 2.091 1_556 S
O128 C134 1.261 . S
C129 O138 1.247 . S
C129 O139 1.272 . S
O130 Co126 2.004 . S
O130 C135 1.259 . S
Co131 O132 2.061 . S
Co131 O137 2.052 . S
Co131 O139 2.135 . S
O132 Co131 2.061 . S
O132 C135 1.235 . S
C133 O136 1.238 . S
C133 O137 1.241 . S
C134 O127 1.247 1_556 S
C134 O128 1.261 . S
C135 O130 1.259 . S
C135 O132 1.235 . S
O136 Co126 2.021 . S
O136 C133 1.238 . S
O137 Co131 2.052 . S
O137 C133 1.241 . S
O138 Co126 2.137 . S
O138 C129 1.247 . S
O139 Co126 2.244 . S
O139 C129 1.272 . S
O139 Co131 2.135 . S
Co140 O141 2.216 . S
Co140 O142 2.091 . S
Co140 O144 2.004 . S
Co140 O150 2.021 1_554 S
Co140 O152 2.137 . S
Co140 O153 2.244 1_554 S
O141 Co140 2.216 . S
O141 C148 1.247 . S
O142 Co140 2.091 . S
O142 C148 1.261 . S
C143 O152 1.247 . S
C143 O153 1.272 1_554 S
O144 Co140 2.004 . S
O144 C149 1.259 1_554 S
Co145 O146 2.061 . S
Co145 O151 2.052 . S
Co145 O153 2.135 . S
O146 Co145 2.061 . S
O146 C149 1.235 . S
C147 O150 1.238 . S
C147 O151 1.241 . S
C148 O141 1.247 . S
C148 O142 1.261 . S
C149 O144 1.259 1_556 S
C149 O146 1.235 . S
O150 Co140 2.021 1_556 S
O150 C147 1.238 . S
O151 Co145 2.052 . S
O151 C147 1.241 . S
O152 Co140 2.137 . S
O152 C143 1.247 . S
O153 Co140 2.244 1_556 S
O153 C143 1.272 1_556 S
O153 Co145 2.135 . S
Co154 O155 2.216 . S
Co154 O156 2.091 . S
Co154 O158 2.004 . S
Co154 O164 2.021 . S
Co154 O166 2.137 . S
Co154 O167 2.244 . S
O155 Co154 2.216 . S
O155 C162 1.247 . S
O156 Co154 2.091 . S
O156 C162 1.261 . S
C157 O166 1.247 . S
C157 O167 1.272 . S
O158 Co154 2.004 . S
O158 C163 1.259 . S
Co159 O160 2.061 . S
Co159 O165 2.052 . S
Co159 O167 2.135 . S
O160 Co159 2.061 . S
O160 C163 1.235 . S
C161 O164 1.238 . S
C161 O165 1.241 . S
C162 O155 1.247 . S
C162 O156 1.261 . S
C163 O158 1.259 . S
C163 O160 1.235 . S
O164 Co154 2.021 . S
O164 C161 1.238 . S
O165 Co159 2.052 . S
O165 C161 1.241 . S
O166 Co154 2.137 . S
O166 C157 1.247 . S
O167 Co154 2.244 . S
O167 C157 1.272 . S
O167 Co159 2.135 . S
Co168 O169 2.216 . S
Co168 O170 2.091 . S
Co168 O172 2.004 . S
Co168 O178 2.021 . S
Co168 O180 2.137 . S
Co168 O181 2.244 . S
O169 Co168 2.216 . S
O169 C176 1.247 . S
O170 Co168 2.091 . S
O170 C176 1.261 . S
C171 O180 1.247 . S
C171 O181 1.272 . S
O172 Co168 2.004 . S
O172 C177 1.259 . S
Co173 O174 2.061 . S
Co173 O179 2.052 . S
Co173 O181 2.135 . S
O174 Co173 2.061 . S
O174 C177 1.235 . S
C175 O178 1.238 . S
C175 O179 1.241 . S
C176 O169 1.247 . S
C176 O170 1.261 . S
C177 O172 1.259 . S
C177 O174 1.235 . S
O178 Co168 2.021 . S
O178 C175 1.238 . S
O179 Co173 2.052 . S
O179 C175 1.241 . S
O180 Co168 2.137 . S
O180 C171 1.247 . S
O181 Co168 2.244 . S
O181 C171 1.272 . S
O181 Co173 2.135 . S
Co182 O183 2.216 . S
Co182 O184 2.091 . S
Co182 O186 2.004 . S
Co182 O192 2.021 . S
Co182 O194 2.137 . S
Co182 O195 2.244 . S
O183 Co182 2.216 . S
O183 C190 1.247 . S
O184 Co182 2.091 . S
O184 C190 1.261 . S
C185 O194 1.247 . S
C185 O195 1.272 . S
O186 Co182 2.004 . S
O186 C191 1.252 1_455 S
Co187 O188 2.061 . S
Co187 O193 2.052 . S
Co187 O195 2.135 . S
O188 Co187 2.061 . S
O188 C191 1.219 1_455 S
C189 O192 1.238 . S
C189 O193 1.241 . S
C190 O183 1.247 . S
C190 O184 1.261 . S
C191 O186 1.252 1_655 S
C191 O188 1.219 1_655 S
O192 Co182 2.021 . S
O192 C189 1.238 . S
O193 Co187 2.052 . S
O193 C189 1.241 . S
O194 Co182 2.137 . S
O194 C185 1.247 . S
O195 Co182 2.244 . S
O195 C185 1.272 . S
O195 Co187 2.135 . S
Co196 O197 2.216 . S
Co196 O198 2.091 . S
Co196 O200 2.004 . S
Co196 O206 2.021 . S
Co196 O208 2.137 . S
Co196 O209 2.244 . S
O197 Co196 2.216 . S
O197 C204 1.247 . S
O198 Co196 2.091 . S
O198 C204 1.261 . S
C199 O208 1.247 . S
C199 O209 1.272 . S
O200 Co196 2.004 . S
O200 C205 1.259 . S
Co201 O202 2.061 . S
Co201 O207 2.052 . S
Co201 O209 2.135 . S
O202 Co201 2.061 . S
O202 C205 1.235 . S
C203 O206 1.238 . S
C203 O207 1.241 . S
C204 O197 1.247 . S
C204 O198 1.261 . S
C205 O200 1.259 . S
C205 O202 1.235 . S
O206 Co196 2.021 . S
O206 C203 1.238 . S
O207 Co201 2.052 . S
O207 C203 1.241 . S
O208 Co196 2.137 . S
O208 C199 1.247 . S
O209 Co196 2.244 . S
O209 C199 1.272 . S
O209 Co201 2.135 . S
Co210 O211 2.216 . S
Co210 O212 2.091 . S
Co210 O214 2.004 . S
Co210 O220 2.021 . S
Co210 O222 2.137 . S
Co210 O223 2.244 . S
O211 Co210 2.216 . S
O211 C218 1.247 . S
O212 Co210 2.091 . S
O212 C218 1.261 . S
C213 O222 1.247 . S
C213 O223 1.272 . S
O214 Co210 2.004 . S
O214 C219 1.252 1_455 S
Co215 O216 2.061 1_554 S
Co215 O221 2.052 . S
Co215 O223 2.135 1_554 S
O216 Co215 2.061 1_556 S
O216 C219 1.219 1_455 S
C217 O220 1.238 . S
C217 O221 1.241 1_556 S
C218 O211 1.247 . S
C218 O212 1.261 . S
C219 O214 1.252 1_655 S
C219 O216 1.219 1_655 S
O220 Co210 2.021 . S
O220 C217 1.238 . S
O221 Co215 2.052 . S
O221 C217 1.241 1_554 S
O222 Co210 2.137 . S
O222 C213 1.247 . S
O223 Co210 2.244 . S
O223 C213 1.272 . S
O223 Co215 2.135 1_556 S
C224 C225 1.387 . S
C224 H228 0.950 . S
C224 C233 1.390 . S
C225 C224 1.387 . S
C225 C227 1.387 . S
H226 C233 0.950 . S
C227 C225 1.387 . S
C227 C229 1.390 . S
C227 H231 0.950 . S
H228 C224 0.950 . S
C229 C227 1.390 . S
C229 C230 1.387 . S
C229 H232 0.950 . S
C230 C229 1.387 . S
C230 C233 1.387 . S
H231 C227 0.950 . S
H232 C229 0.950 . S
C233 C224 1.390 . S
C233 H226 0.950 . S
C233 C230 1.387 . S
C234 C235 1.387 . S
C234 H238 0.950 . S
C234 C243 1.390 . S
C235 C234 1.387 . S
C235 C237 1.387 . S
H236 C243 0.950 . S
C237 C235 1.387 . S
C237 C239 1.390 . S
C237 H241 0.950 . S
H238 C234 0.950 . S
C239 C237 1.390 . S
C239 C240 1.387 . S
C239 H242 0.950 . S
C240 C239 1.387 . S
C240 C243 1.387 . S
H241 C237 0.950 . S
H242 C239 0.950 . S
C243 C234 1.390 . S
C243 H236 0.950 . S
C243 C240 1.387 . S
C244 C245 1.387 . S
C244 H248 0.950 . S
C244 C253 1.390 . S
C245 C244 1.387 . S
C245 C247 1.387 . S
H246 C253 0.950 . S
C247 C245 1.387 . S
C247 C249 1.390 . S
C247 H251 0.950 . S
H248 C244 0.950 . S
C249 C247 1.390 . S
C249 C250 1.387 . S
C249 H252 0.950 . S
C250 C249 1.387 . S
C250 C253 1.387 . S
H251 C247 0.950 . S
H252 C249 0.950 . S
C253 C244 1.390 . S
C253 H246 0.950 . S
C253 C250 1.387 . S
C254 C255 1.387 . S
C254 H258 0.950 . S
C254 C263 1.390 . S
C255 C254 1.387 . S
C255 C257 1.387 . S
H256 C263 0.950 . S
C257 C255 1.387 . S
C257 C259 1.390 . S
C257 H261 0.950 1_556 S
H258 C254 0.950 . S
C259 C257 1.390 . S
C259 C260 1.387 . S
C259 H262 0.950 1_556 S
C260 C259 1.387 . S
C260 C263 1.387 . S
H261 C257 0.950 1_554 S
H262 C259 0.950 1_554 S
C263 C254 1.390 . S
C263 H256 0.950 . S
C263 C260 1.387 . S
C264 C265 1.387 . S
C264 H268 0.950 1_556 S
C264 C273 1.390 1_556 S
C265 C264 1.387 . S
C265 C267 1.387 . S
H266 C273 0.950 . S
C267 C265 1.387 . S
C267 C269 1.390 . S
C267 H271 0.950 . S
H268 C264 0.950 1_554 S
C269 C267 1.390 . S
C269 C270 1.387 . S
C269 H272 0.950 . S
C270 C269 1.387 . S
C270 C273 1.387 1_556 S
H271 C267 0.950 . S
H272 C269 0.950 . S
C273 C264 1.390 1_554 S
C273 H266 0.950 . S
C273 C270 1.387 1_554 S
C274 C275 1.387 . S
C274 H278 0.950 . S
C274 C283 1.390 . S
C275 C274 1.387 . S
C275 C277 1.387 . S
H276 C283 0.950 . S
C277 C275 1.387 . S
C277 C279 1.390 . S
C277 H281 0.950 . S
H278 C274 0.950 . S
C279 C277 1.390 . S
C279 C280 1.387 . S
C279 H282 0.950 . S
C280 C279 1.387 . S
C280 C283 1.387 . S
H281 C277 0.950 . S
H282 C279 0.950 . S
C283 C274 1.390 . S
C283 H276 0.950 . S
C283 C280 1.387 . S
C284 C285 1.387 . S
C284 H288 0.950 . S
C284 C293 1.390 . S
C285 C284 1.387 . S
C285 C287 1.387 . S
H286 C293 0.950 . S
C287 C285 1.387 . S
C287 C289 1.390 . S
C287 H291 0.950 . S
H288 C284 0.950 . S
C289 C287 1.390 . S
C289 C290 1.387 . S
C289 H292 0.950 . S
C290 C289 1.387 . S
C290 C293 1.387 . S
H291 C287 0.950 . S
H292 C289 0.950 . S
C293 C284 1.390 . S
C293 H286 0.950 . S
C293 C290 1.387 . S
C294 C295 1.387 . S
C294 H298 0.950 . S
C294 C303 1.390 . S
C295 C294 1.387 . S
C295 C297 1.387 . S
H296 C303 0.950 . S
C297 C295 1.387 . S
C297 C299 1.390 . S
C297 H301 0.950 . S
H298 C294 0.950 . S
C299 C297 1.390 . S
C299 C300 1.387 . S
C299 H302 0.950 . S
C300 C299 1.387 . S
C300 C303 1.387 . S
H301 C297 0.950 . S
H302 C299 0.950 . S
C303 C294 1.390 . S
C303 H296 0.950 . S
C303 C300 1.387 . S
C304 C305 1.387 . S
C304 H308 0.950 . S
C304 C313 1.390 . S
C305 C304 1.387 . S
C305 C307 1.387 . S
H306 C313 0.950 1_554 S
C307 C305 1.387 . S
C307 C309 1.390 . S
C307 H311 0.950 . S
H308 C304 0.950 . S
C309 C307 1.390 . S
C309 C310 1.387 . S
C309 H312 0.950 . S
C310 C309 1.387 . S
C310 C313 1.387 . S
H311 C307 0.950 . S
H312 C309 0.950 . S
C313 C304 1.390 . S
C313 H306 0.950 1_556 S
C313 C310 1.387 . S
C314 C315 1.387 . S
C314 H318 0.950 . S
C314 C323 1.390 . S
C315 C314 1.387 . S
C315 C317 1.387 . S
H316 C323 0.950 . S
C317 C315 1.387 . S
C317 C319 1.390 . S
C317 H321 0.950 . S
H318 C314 0.950 . S
C319 C317 1.390 . S
C319 C320 1.387 . S
C319 H322 0.950 . S
C320 C319 1.387 . S
C320 C323 1.387 . S
H321 C317 0.950 . S
H322 C319 0.950 . S
C323 C314 1.390 . S
C323 H316 0.950 . S
C323 C320 1.387 . S
C324 C325 1.387 . S
C324 H328 0.950 . S
C324 C333 1.390 . S
C325 C324 1.387 . S
C325 C327 1.387 . S
H326 C333 0.950 . S
C327 C325 1.387 . S
C327 C329 1.390 . S
C327 H331 0.950 . S
H328 C324 0.950 . S
C329 C327 1.390 . S
C329 C330 1.387 . S
C329 H332 0.950 . S
C330 C329 1.387 . S
C330 C333 1.387 . S
H331 C327 0.950 . S
H332 C329 0.950 . S
C333 C324 1.390 . S
C333 H326 0.950 . S
C333 C330 1.387 . S
C334 C335 1.387 . S
C334 H338 0.950 . S
C334 C343 1.390 . S
C335 C334 1.387 . S
C335 C337 1.387 . S
H336 C343 0.950 . S
C337 C335 1.387 . S
C337 C339 1.390 . S
C337 H341 0.950 . S
H338 C334 0.950 . S
C339 C337 1.390 . S
C339 C340 1.387 . S
C339 H342 0.950 . S
C340 C339 1.387 . S
C340 C343 1.387 . S
H341 C337 0.950 . S
H342 C339 0.950 . S
C343 C334 1.390 . S
C343 H336 0.950 . S
C343 C340 1.387 . S
C344 C345 1.387 . S
C344 H348 0.950 . S
C344 C353 1.390 . S
C345 C344 1.387 . S
C345 C347 1.387 . S
H346 C353 0.950 . S
C347 C345 1.387 . S
C347 C349 1.390 . S
C347 H351 0.950 . S
H348 C344 0.950 . S
C349 C347 1.390 . S
C349 C350 1.387 . S
C349 H352 0.950 . S
C350 C349 1.387 . S
C350 C353 1.387 . S
H351 C347 0.950 . S
H352 C349 0.950 . S
C353 C344 1.390 . S
C353 H346 0.950 . S
C353 C350 1.387 . S
C354 C355 1.387 . S
C354 H358 0.950 . S
C354 C363 1.390 1_556 S
C355 C354 1.387 . S
C355 C357 1.387 . S
H356 C363 0.950 . S
C357 C355 1.387 . S
C357 C359 1.390 . S
C357 H361 0.950 . S
H358 C354 0.950 . S
C359 C357 1.390 . S
C359 C360 1.387 . S
C359 H362 0.950 . S
C360 C359 1.387 . S
C360 C363 1.387 1_556 S
H361 C357 0.950 . S
H362 C359 0.950 . S
C363 C354 1.390 1_554 S
C363 H356 0.950 . S
C363 C360 1.387 1_554 S
C364 C365 1.387 . S
C364 H368 0.950 . S
C364 C373 1.390 . S
C365 C364 1.387 . S
C365 C367 1.387 . S
H366 C373 0.950 . S
C367 C365 1.387 . S
C367 C369 1.390 . S
C367 H371 0.950 . S
H368 C364 0.950 . S
C369 C367 1.390 . S
C369 C370 1.387 . S
C369 H372 0.950 . S
C370 C369 1.387 . S
C370 C373 1.387 . S
H371 C367 0.950 . S
H372 C369 0.950 . S
C373 C364 1.390 . S
C373 H366 0.950 . S
C373 C370 1.387 . S
C374 C375 1.387 . S
C374 H378 0.950 . S
C374 C383 1.390 . S
C375 C374 1.387 . S
C375 C377 1.387 . S
H376 C383 0.950 . S
C377 C375 1.387 . S
C377 C379 1.390 . S
C377 H381 0.950 . S
H378 C374 0.950 . S
C379 C377 1.390 . S
C379 C380 1.387 . S
C379 H382 0.950 . S
C380 C379 1.387 . S
C380 C383 1.387 . S
H381 C377 0.950 . S
H382 C379 0.950 . S
C383 C374 1.390 . S
C383 H376 0.950 . S
C383 C380 1.387 . S
C384 C385 1.387 . S
C384 H388 0.950 . S
C384 C393 1.390 . S
C385 C384 1.387 . S
C385 C387 1.387 . S
H386 C393 0.950 1_556 S
C387 C385 1.387 . S
C387 C389 1.390 . S
C387 H391 0.950 1_455 S
H388 C384 0.950 . S
C389 C387 1.390 . S
C389 C390 1.387 1_554 S
C389 H392 0.950 1_454 S
C390 C389 1.387 1_556 S
C390 C393 1.387 1_556 S
H391 C387 0.950 1_655 S
H392 C389 0.950 1_656 S
C393 C384 1.390 . S
C393 H386 0.950 1_554 S
C393 C390 1.387 1_554 S
C394 C395 1.387 . S
C394 H398 0.950 . S
C394 C403 1.390 . S
C395 C394 1.387 . S
C395 C397 1.387 . S
H396 C403 0.950 . S
C397 C395 1.387 . S
C397 C399 1.390 . S
C397 H401 0.950 . S
H398 C394 0.950 . S
C399 C397 1.390 . S
C399 C400 1.387 . S
C399 H402 0.950 . S
C400 C399 1.387 . S
C400 C403 1.387 . S
H401 C397 0.950 . S
H402 C399 0.950 . S
C403 C394 1.390 . S
C403 H396 0.950 . S
C403 C400 1.387 . S
C404 C405 1.387 . S
C404 H408 0.950 . S
C404 C413 1.390 . S
C405 C404 1.387 . S
C405 C407 1.387 . S
H406 C413 0.950 . S
C407 C405 1.387 . S
C407 C409 1.390 . S
C407 H411 0.950 . S
H408 C404 0.950 . S
C409 C407 1.390 . S
C409 C410 1.387 . S
C409 H412 0.950 . S
C410 C409 1.387 . S
C410 C413 1.387 . S
H411 C407 0.950 . S
H412 C409 0.950 . S
C413 C404 1.390 . S
C413 H406 0.950 . S
C413 C410 1.387 . S
C414 C415 1.387 . S
C414 H418 0.950 . S
C414 C423 1.390 . S
C415 C414 1.387 . S
C415 C417 1.387 . S
H416 C423 0.950 . S
C417 C415 1.387 . S
C417 C419 1.390 . S
C417 H421 0.950 . S
H418 C414 0.950 . S
C419 C417 1.390 . S
C419 C420 1.387 . S
C419 H422 0.950 . S
C420 C419 1.387 . S
C420 C423 1.387 . S
H421 C417 0.950 . S
H422 C419 0.950 . S
C423 C414 1.390 . S
C423 H416 0.950 . S
C423 C420 1.387 . S
C424 C425 1.387 . S
C424 H428 0.950 . S
C424 C433 1.390 . S
C425 C424 1.387 . S
C425 C427 1.387 . S
H426 C433 0.950 . S
C427 C425 1.387 . S
C427 C429 1.390 . S
C427 H431 0.950 . S
H428 C424 0.950 . S
C429 C427 1.390 . S
C429 C430 1.387 . S
C429 H432 0.950 . S
C430 C429 1.387 . S
C430 C433 1.387 . S
H431 C427 0.950 . S
H432 C429 0.950 . S
C433 C424 1.390 . S
C433 H426 0.950 . S
C433 C430 1.387 . S
C434 C435 1.387 . S
C434 H438 0.950 . S
C434 C443 1.390 . S
C435 C434 1.387 . S
C435 C437 1.387 . S
H436 C443 0.950 . S
C437 C435 1.387 . S
C437 C439 1.390 . S
C437 H441 0.950 . S
H438 C434 0.950 . S
C439 C437 1.390 . S
C439 C440 1.387 . S
C439 H442 0.950 . S
C440 C439 1.387 . S
C440 C443 1.387 . S
H441 C437 0.950 . S
H442 C439 0.950 . S
C443 C434 1.390 . S
C443 H436 0.950 . S
C443 C440 1.387 . S
C444 C445 1.387 . S
C444 H448 0.950 . S
C444 C453 1.390 1_565 S
C445 C444 1.387 . S
C445 C447 1.387 . S
H446 C453 0.950 . S
C447 C445 1.387 . S
C447 C449 1.390 1_565 S
C447 H451 0.950 . S
H448 C444 0.950 . S
C449 C447 1.390 1_545 S
C449 C450 1.387 . S
C449 H452 0.950 . S
C450 C449 1.387 . S
C450 C453 1.387 . S
H451 C447 0.950 . S
H452 C449 0.950 . S
C453 C444 1.390 1_545 S
C453 H446 0.950 . S
C453 C450 1.387 . S
C454 C455 1.387 1_554 S
C454 H458 0.950 1_454 S
C454 C463 1.390 1_545 S
C455 C454 1.387 1_556 S
C455 C457 1.387 1_556 S
H456 C463 0.950 1_655 S
C457 C455 1.387 1_554 S
C457 C459 1.390 1_545 S
C457 H461 0.950 1_554 S
H458 C454 0.950 1_656 S
C459 C457 1.390 1_565 S
C459 C460 1.387 . S
C459 H462 0.950 . S
C460 C459 1.387 . S
C460 C463 1.387 . S
H461 C457 0.950 1_556 S
H462 C459 0.950 . S
C463 C454 1.390 1_565 S
C463 H456 0.950 1_455 S
C463 C460 1.387 . S
C464 C465 1.387 1_655 S
C464 H468 0.950 . S
C464 C473 1.390 . S
C465 C464 1.387 1_455 S
C465 C467 1.387 . S
H466 C473 0.950 . S
C467 C465 1.387 . S
C467 C469 1.390 . S
C467 H471 0.950 . S
H468 C464 0.950 . S
C469 C467 1.390 . S
C469 C470 1.387 . S
C469 H472 0.950 . S
C470 C469 1.387 . S
C470 C473 1.387 1_455 S
H471 C467 0.950 . S
H472 C469 0.950 . S
C473 C464 1.390 . S
C473 H466 0.950 . S
C473 C470 1.387 1_655 S
C474 C475 1.387 . S
C474 H478 0.950 . S
C474 C483 1.390 . S
C475 C474 1.387 . S
C475 C477 1.387 . S
H476 C483 0.950 . S
C477 C475 1.387 . S
C477 C479 1.390 . S
C477 H481 0.950 . S
H478 C474 0.950 . S
C479 C477 1.390 . S
C479 C480 1.387 . S
C479 H482 0.950 . S
C480 C479 1.387 . S
C480 C483 1.387 . S
H481 C477 0.950 . S
H482 C479 0.950 . S
C483 C474 1.390 . S
C483 H476 0.950 . S
C483 C480 1.387 . S
C484 C485 1.387 . S
C484 H488 0.950 . S
C484 C493 1.390 . S
C485 C484 1.387 . S
C485 C487 1.387 . S
H486 C493 0.950 1_556 S
C487 C485 1.387 . S
C487 C489 1.390 . S
C487 H491 0.950 . S
H488 C484 0.950 . S
C489 C487 1.390 . S
C489 C490 1.387 1_554 S
C489 H492 0.950 1_554 S
C490 C489 1.387 1_556 S
C490 C493 1.387 1_556 S
H491 C487 0.950 . S
H492 C489 0.950 1_556 S
C493 C484 1.390 . S
C493 H486 0.950 1_554 S
C493 C490 1.387 1_554 S
C494 C495 1.387 . S
C494 H498 0.950 . S
C494 C503 1.390 . S
C495 C494 1.387 . S
C495 C497 1.387 . S
H496 C503 0.950 . S
C497 C495 1.387 . S
C497 C499 1.390 . S
C497 H501 0.950 . S
H498 C494 0.950 . S
C499 C497 1.390 . S
C499 C500 1.387 . S
C499 H502 0.950 . S
C500 C499 1.387 . S
C500 C503 1.387 . S
H501 C497 0.950 . S
H502 C499 0.950 . S
C503 C494 1.390 . S
C503 H496 0.950 . S
C503 C500 1.387 . S
C504 C505 1.387 . S
C504 H508 0.950 . S
C504 C513 1.390 . S
C505 C504 1.387 . S
C505 C507 1.387 . S
H506 C513 0.950 . S
C507 C505 1.387 . S
C507 C509 1.390 . S
C507 H511 0.950 . S
H508 C504 0.950 . S
C509 C507 1.390 . S
C509 C510 1.387 . S
C509 H512 0.950 . S
C510 C509 1.387 . S
C510 C513 1.387 . S
H511 C507 0.950 . S
H512 C509 0.950 . S
C513 C504 1.390 . S
C513 H506 0.950 . S
C513 C510 1.387 . S
C514 C515 1.387 . S
C514 H518 0.950 . S
C514 C523 1.390 . S
C515 C514 1.387 . S
C515 C517 1.387 . S
H516 C523 0.950 . S
C517 C515 1.387 . S
C517 C519 1.390 . S
C517 H521 0.950 . S
H518 C514 0.950 . S
C519 C517 1.390 . S
C519 C520 1.387 . S
C519 H522 0.950 . S
C520 C519 1.387 . S
C520 C523 1.387 . S
H521 C517 0.950 . S
H522 C519 0.950 . S
C523 C514 1.390 . S
C523 H516 0.950 . S
C523 C520 1.387 . S
C524 C525 1.387 . S
C524 H528 0.950 . S
C524 C533 1.390 1_565 S
C525 C524 1.387 . S
C525 C527 1.387 . S
H526 C533 0.950 1_556 S
C527 C525 1.387 . S
C527 C529 1.390 1_565 S
C527 H531 0.950 . S
H528 C524 0.950 . S
C529 C527 1.390 1_545 S
C529 C530 1.387 1_554 S
C529 H532 0.950 1_554 S
C530 C529 1.387 1_556 S
C530 C533 1.387 1_556 S
H531 C527 0.950 . S
H532 C529 0.950 1_556 S
C533 C524 1.390 1_545 S
C533 H526 0.950 1_554 S
C533 C530 1.387 1_554 S
C534 C535 1.387 . S
C534 H538 0.950 . S
C534 C543 1.390 1_545 S
C535 C534 1.387 . S
C535 C537 1.387 . S
H536 C543 0.950 . S
C537 C535 1.387 . S
C537 C539 1.390 1_545 S
C537 H541 0.950 . S
H538 C534 0.950 . S
C539 C537 1.390 1_565 S
C539 C540 1.387 . S
C539 H542 0.950 . S
C540 C539 1.387 . S
C540 C543 1.387 . S
H541 C537 0.950 . S
H542 C539 0.950 . S
C543 C534 1.390 1_565 S
C543 H536 0.950 . S
C543 C540 1.387 . S
C225 C135 1.494 . S
C230 C9 1.496 . S
C235 C205 1.494 . S
C240 C23 1.496 . S
C245 C37 1.496 . S
C250 C121 1.494 . S
C255 C51 1.496 . S
C260 C219 1.518 . S
C265 C65 1.496 . S
C270 C149 1.494 . S
C275 C191 1.518 . S
C280 C79 1.496 . S
C285 C163 1.494 . S
C290 C93 1.496 . S
C295 C107 1.496 . S
C300 C177 1.494 . S
C305 C59 1.619 . S
C310 C45 1.619 1_556 S
C315 C171 1.621 . S
C320 C115 1.621 . S
C325 C87 1.621 . S
C330 C17 1.621 . S
C335 C129 1.620 . S
C340 C185 1.621 . S
C345 C3 1.620 . S
C350 C73 1.621 . S
C355 C213 1.620 . S
C360 C143 1.621 1_556 S
C365 C101 1.620 . S
C370 C31 1.620 . S
C375 C157 1.621 . S
C380 C199 1.621 . S
C385 C7 0.860 . S
C390 C63 0.860 . S
C395 C77 0.860 . S
C400 C21 0.860 . S
C405 C91 0.864 . S
C410 C35 0.864 . S
C415 C49 0.864 . S
C420 C105 0.864 . S
C425 C147 0.860 . S
C430 C119 0.860 . S
C435 C161 0.860 . S
C440 C133 0.860 . S
C445 C203 0.864 . S
C450 C175 0.864 . S
C455 C217 0.860 . S
C460 C189 0.860 . S
C465 C64 1.701 . S
C470 C8 1.701 . S
C475 C78 1.701 . S
C480 C22 1.701 . S
C485 C92 1.701 . S
C490 C36 1.701 . S
C495 C50 1.700 . S
C500 C106 1.700 . S
C505 C120 1.701 . S
C510 C148 1.701 . S
C515 C162 1.701 . S
C520 C134 1.701 . S
C525 C204 1.701 . S
C530 C176 1.701 . S
C535 C218 1.701 . S
C540 C190 1.701 . S
