# Generated by pormake.
# Topology pcb, (4)-cn, num edge types: 1
# Building blocks:
#     Node 0, Type 0, BuildingBlock: UXUYUI_clean_sbu_0, # of connection points: 4
#     Node 1, Type 0, BuildingBlock: UXUYUI_clean_sbu_0, # of connection points: 4
#     Node 2, Type 0, BuildingBlock: UXUYUI_clean_sbu_0, # of connection points: 4
#     Node 3, Type 0, BuildingBlock: UXUYUI_clean_sbu_0, # of connection points: 4
#     Node 4, Type 0, BuildingBlock: UXUYUI_clean_sbu_0, # of connection points: 4
#     Node 5, Type 0, BuildingBlock: UXUYUI_clean_sbu_0, # of connection points: 4
#     Node 6, Type 0, BuildingBlock: UXUYUI_clean_sbu_0, # of connection points: 4
#     Node 7, Type 0, BuildingBlock: UXUYUI_clean_sbu_0, # of connection points: 4
#     Node 8, Type 0, BuildingBlock: UXUYUI_clean_sbu_0, # of connection points: 4
#     Node 9, Type 0, BuildingBlock: UXUYUI_clean_sbu_0, # of connection points: 4
#     Node 10, Type 0, BuildingBlock: UXUYUI_clean_sbu_0, # of connection points: 4
#     Node 11, Type 0, BuildingBlock: UXUYUI_clean_sbu_0, # of connection points: 4
#     Node 12, Type 0, BuildingBlock: UXUYUI_clean_sbu_0, # of connection points: 4
#     Node 13, Type 0, BuildingBlock: UXUYUI_clean_sbu_0, # of connection points: 4
#     Node 14, Type 0, BuildingBlock: UXUYUI_clean_sbu_0, # of connection points: 4
#     Node 15, Type 0, BuildingBlock: UXUYUI_clean_sbu_0, # of connection points: 4
#     Edge 16, Type (0, 0), BuildingBlock: CIFDUS_clean_linker_0, # of connection points: 2
#     Edge 17, Type (0, 0), BuildingBlock: CIFDUS_clean_linker_0, # of connection points: 2
#     Edge 18, Type (0, 0), BuildingBlock: CIFDUS_clean_linker_0, # of connection points: 2
#     Edge 19, Type (0, 0), BuildingBlock: CIFDUS_clean_linker_0, # of connection points: 2
#     Edge 20, Type (0, 0), BuildingBlock: CIFDUS_clean_linker_0, # of connection points: 2
#     Edge 21, Type (0, 0), BuildingBlock: CIFDUS_clean_linker_0, # of connection points: 2
#     Edge 22, Type (0, 0), BuildingBlock: CIFDUS_clean_linker_0, # of connection points: 2
#     Edge 23, Type (0, 0), BuildingBlock: CIFDUS_clean_linker_0, # of connection points: 2
#     Edge 24, Type (0, 0), BuildingBlock: CIFDUS_clean_linker_0, # of connection points: 2
#     Edge 25, Type (0, 0), BuildingBlock: CIFDUS_clean_linker_0, # of connection points: 2
#     Edge 26, Type (0, 0), BuildingBlock: CIFDUS_clean_linker_0, # of connection points: 2
#     Edge 27, Type (0, 0), BuildingBlock: CIFDUS_clean_linker_0, # of connection points: 2
#     Edge 28, Type (0, 0), BuildingBlock: CIFDUS_clean_linker_0, # of connection points: 2
#     Edge 29, Type (0, 0), BuildingBlock: CIFDUS_clean_linker_0, # of connection points: 2
#     Edge 30, Type (0, 0), BuildingBlock: CIFDUS_clean_linker_0, # of connection points: 2
#     Edge 31, Type (0, 0), BuildingBlock: CIFDUS_clean_linker_0, # of connection points: 2
#     Edge 32, Type (0, 0), BuildingBlock: CIFDUS_clean_linker_0, # of connection points: 2
#     Edge 33, Type (0, 0), BuildingBlock: CIFDUS_clean_linker_0, # of connection points: 2
#     Edge 34, Type (0, 0), BuildingBlock: CIFDUS_clean_linker_0, # of connection points: 2
#     Edge 35, Type (0, 0), BuildingBlock: CIFDUS_clean_linker_0, # of connection points: 2
#     Edge 36, Type (0, 0), BuildingBlock: CIFDUS_clean_linker_0, # of connection points: 2
#     Edge 37, Type (0, 0), BuildingBlock: CIFDUS_clean_linker_0, # of connection points: 2
#     Edge 38, Type (0, 0), BuildingBlock: CIFDUS_clean_linker_0, # of connection points: 2
#     Edge 39, Type (0, 0), BuildingBlock: CIFDUS_clean_linker_0, # of connection points: 2
#     Edge 40, Type (0, 0), BuildingBlock: CIFDUS_clean_linker_0, # of connection points: 2
#     Edge 41, Type (0, 0), BuildingBlock: CIFDUS_clean_linker_0, # of connection points: 2
#     Edge 42, Type (0, 0), BuildingBlock: CIFDUS_clean_linker_0, # of connection points: 2
#     Edge 43, Type (0, 0), BuildingBlock: CIFDUS_clean_linker_0, # of connection points: 2
#     Edge 44, Type (0, 0), BuildingBlock: CIFDUS_clean_linker_0, # of connection points: 2
#     Edge 45, Type (0, 0), BuildingBlock: CIFDUS_clean_linker_0, # of connection points: 2
#     Edge 46, Type (0, 0), BuildingBlock: CIFDUS_clean_linker_0, # of connection points: 2
#     Edge 47, Type (0, 0), BuildingBlock: CIFDUS_clean_linker_0, # of connection points: 2
# Relax obj value: 0.233
# Max RMSD: 0.082
# Mean RMSD: 0.081
data_MOF--net-pcb--node1-UXUYUI_clean_sbu_0--edge1-CIFDUS_clean_linker_0
_symmetry_space_group_name_H-M    P1
_symmetry_Int_Tables_number       1
_symmetry_cell_setting            triclinic
loop_
_symmetry_equiv_pos_as_xyz
'x, y, z'
_cell_length_a     63.210429
_cell_length_b     62.97275
_cell_length_c     63.117859
_cell_angle_alpha  90.020545
_cell_angle_beta   89.997931
_cell_angle_gamma 90.128018
loop_
_atom_site_label
_atom_site_type_symbol
_atom_site_fract_x
_atom_site_fract_y
_atom_site_fract_z
_atom_type_partial_charge
Li0 Li 0.15681 0.15933 0.13911 0.0
Li1 Li 0.16928 0.16986 0.17399 0.0
Li2 Li 0.15794 0.13224 0.16618 0.0
Li3 Li 0.13168 0.16079 0.16966 0.0
C4 C 0.19681 0.14817 0.13857 0.0
N5 N 0.22558 0.14774 0.10561 0.0
C6 C 0.21211 0.16414 0.13695 0.0
C7 C 0.19633 0.13183 0.12359 0.0
C8 C 0.22649 0.16368 0.12014 0.0
C9 C 0.21094 0.13194 0.10699 0.0
C10 C 0.14548 0.20524 0.16076 0.0
C11 C 0.13362 0.23288 0.18438 0.0
N12 N 0.14051 0.24777 0.17037 0.0
C13 C 0.15221 0.22081 0.14648 0.0
C14 C 0.13591 0.21131 0.17977 0.0
C15 C 0.14966 0.24222 0.15167 0.0
C16 C 0.1486 0.15237 0.09599 0.0
N17 N 0.15981 0.16466 0.10967 0.0
C18 C 0.17598 0.18332 0.08092 0.0
C19 C 0.17311 0.18013 0.10264 0.0
C20 C 0.16505 0.1704 0.06644 0.0
C21 C 0.15106 0.15491 0.07421 0.0
H22 H 0.1378 0.14052 0.10197 0.0
H23 H 0.18175 0.18975 0.1139 0.0
C24 C 0.19513 0.18116 0.20847 0.0
N25 N 0.18873 0.18721 0.18883 0.0
C26 C 0.20905 0.19391 0.22001 0.0
C27 C 0.21016 0.21843 0.19054 0.0
C28 C 0.19614 0.20525 0.17963 0.0
C29 C 0.21662 0.21289 0.21109 0.0
H30 H 0.18937 0.16646 0.21518 0.0
H31 H 0.19125 0.20937 0.16376 0.0
C32 C 0.12406 0.1204 0.14242 0.0
N33 N 0.10412 0.08224 0.13386 0.0
C34 C 0.10418 0.11601 0.15111 0.0
C35 C 0.13368 0.10545 0.12919 0.0
C36 C 0.09438 0.09661 0.14663 0.0
C37 C 0.12338 0.08623 0.12512 0.0
C38 C 0.14429 0.15007 0.21174 0.0
C39 C 0.13746 0.13112 0.22105 0.0
C40 C 0.14381 0.16888 0.22351 0.0
C41 C 0.12981 0.13139 0.24182 0.0
C42 C 0.13606 0.1685 0.24423 0.0
N43 N 0.12925 0.14992 0.25287 0.0
C44 C 0.18344 0.09563 0.16789 0.0
C45 C 0.14756 0.08963 0.17693 0.0
C46 C 0.18769 0.07392 0.16912 0.0
N47 N 0.16353 0.10296 0.1713 0.0
C48 C 0.151 0.06779 0.17799 0.0
C49 C 0.17122 0.05957 0.1737 0.0
H50 H 0.19595 0.1066 0.16378 0.0
H51 H 0.13192 0.09585 0.17984 0.0
C52 C 0.09336 0.18099 0.16321 0.0
N53 N 0.10337 0.16782 0.17697 0.0
C54 C 0.07203 0.18585 0.16598 0.0
C55 C 0.07171 0.16371 0.19726 0.0
C56 C 0.09307 0.15927 0.19386 0.0
C57 C 0.06083 0.17692 0.18303 0.0
H58 H 0.10186 0.18727 0.14972 0.0
H59 H 0.10114 0.14846 0.20431 0.0
O60 O 0.18231 0.1486 0.15466 0.0
O61 O 0.14793 0.1842 0.15591 0.0
O62 O 0.13393 0.13929 0.14673 0.0
O63 O 0.15189 0.15004 0.19143 0.0
H64 H 0.21279 0.17684 0.14846 0.0
H65 H 0.1847 0.11927 0.12469 0.0
H66 H 0.23833 0.17601 0.11862 0.0
H67 H 0.21064 0.11948 0.09519 0.0
H68 H 0.12628 0.23778 0.19907 0.0
H69 H 0.15944 0.21642 0.13158 0.0
H70 H 0.1301 0.19953 0.19074 0.0
H71 H 0.15494 0.25443 0.14083 0.0
H72 H 0.18696 0.19539 0.07552 0.0
H73 H 0.14202 0.14492 0.06355 0.0
H74 H 0.21396 0.18889 0.23566 0.0
H75 H 0.21559 0.23295 0.18312 0.0
H76 H 0.09641 0.1274 0.16127 0.0
H77 H 0.14902 0.10856 0.12229 0.0
H78 H 0.07904 0.09298 0.15333 0.0
H79 H 0.13073 0.07447 0.11504 0.0
H80 H 0.13794 0.11638 0.21232 0.0
H81 H 0.14959 0.18359 0.21684 0.0
H82 H 0.12434 0.11686 0.24915 0.0
H83 H 0.13556 0.18295 0.25347 0.0
H84 H 0.20365 0.06844 0.1662 0.0
H85 H 0.13769 0.05747 0.18133 0.0
H86 H 0.06421 0.19578 0.15439 0.0
H87 H 0.0637 0.15656 0.21065 0.0
Li88 Li 0.82754 0.17187 0.16706 0.0
Li89 Li 0.83651 0.13647 0.15531 0.0
Li90 Li 0.86409 0.16508 0.16047 0.0
Li91 Li 0.83962 0.16692 0.13029 0.0
C92 C 0.83763 0.15174 0.20157 0.0
N93 N 0.81984 0.15452 0.24144 0.0
C94 C 0.82131 0.13793 0.20743 0.0
C95 C 0.84505 0.16682 0.21603 0.0
C96 C 0.81249 0.13961 0.22765 0.0
C97 C 0.8358 0.16802 0.2361 0.0
C98 C 0.80013 0.14426 0.13088 0.0
C99 C 0.79441 0.12252 0.09992 0.0
N100 N 0.77327 0.12254 0.10391 0.0
C101 C 0.77833 0.14418 0.13459 0.0
C102 C 0.80822 0.13342 0.11336 0.0
C103 C 0.76502 0.13306 0.12081 0.0
C104 C 0.81328 0.2058 0.19273 0.0
N105 N 0.80818 0.18647 0.18463 0.0
C106 C 0.7748 0.1869 0.20234 0.0
C107 C 0.78943 0.17689 0.18916 0.0
C108 C 0.7797 0.20682 0.21101 0.0
C109 C 0.79923 0.21628 0.20614 0.0
H110 H 0.82823 0.21307 0.1888 0.0
H111 H 0.78597 0.16137 0.1827 0.0
C112 C 0.84963 0.09588 0.16488 0.0
N113 N 0.83222 0.10687 0.15874 0.0
C114 C 0.84863 0.07393 0.16758 0.0
C115 C 0.81165 0.07501 0.15789 0.0
C116 C 0.81333 0.097 0.15557 0.0
C117 C 0.8295 0.06314 0.16383 0.0
H118 H 0.86436 0.10424 0.16755 0.0
H119 H 0.79956 0.10608 0.15117 0.0
C120 C 0.86111 0.20648 0.15125 0.0
N121 N 0.88965 0.23976 0.15275 0.0
C122 C 0.86723 0.21678 0.13261 0.0
C123 C 0.86937 0.21324 0.17068 0.0
C124 C 0.88171 0.23354 0.1337 0.0
C125 C 0.88382 0.23005 0.17109 0.0
C126 C 0.87181 0.13376 0.12187 0.0
C127 C 0.8913 0.14154 0.11479 0.0
C128 C 0.86429 0.1144 0.11397 0.0
C129 C 0.90269 0.13012 0.09965 0.0
C130 C 0.87615 0.10342 0.09886 0.0
N131 N 0.89494 0.11145 0.09205 0.0
C132 C 0.89908 0.15906 0.18708 0.0
C133 C 0.90656 0.17982 0.15666 0.0
C134 C 0.92034 0.1595 0.19305 0.0
N135 N 0.89269 0.16892 0.16904 0.0
C136 C 0.92794 0.18071 0.16204 0.0
C137 C 0.93513 0.17015 0.18026 0.0
H138 H 0.88774 0.15034 0.19653 0.0
H139 H 0.90117 0.18729 0.14224 0.0
C140 C 0.81746 0.17993 0.0934 0.0
N141 N 0.83692 0.17556 0.10147 0.0
C142 C 0.81504 0.18426 0.07185 0.0
C143 C 0.85293 0.18129 0.06766 0.0
C144 C 0.85457 0.17675 0.08923 0.0
C145 C 0.83291 0.18459 0.05865 0.0
H146 H 0.80372 0.17952 0.10359 0.0
H147 H 0.86991 0.17396 0.09616 0.0
O148 O 0.84602 0.15074 0.18164 0.0
O149 O 0.81336 0.15498 0.14435 0.0
O150 O 0.84696 0.19003 0.15047 0.0
O151 O 0.8606 0.14459 0.13701 0.0
H152 H 0.81533 0.12623 0.19637 0.0
H153 H 0.85768 0.1776 0.21173 0.0
H154 H 0.79975 0.12913 0.23237 0.0
H155 H 0.84127 0.17971 0.24741 0.0
H156 H 0.80049 0.11411 0.08628 0.0
H157 H 0.77173 0.1526 0.14799 0.0
H158 H 0.82493 0.13373 0.10996 0.0
H159 H 0.74812 0.13281 0.12354 0.0
H160 H 0.75996 0.17905 0.2059 0.0
H161 H 0.80344 0.23176 0.21235 0.0
H162 H 0.86269 0.06555 0.17263 0.0
H163 H 0.79661 0.0674 0.15468 0.0
H164 H 0.86084 0.21193 0.11748 0.0
H165 H 0.86497 0.20535 0.18524 0.0
H166 H 0.88663 0.24161 0.11939 0.0
H167 H 0.89047 0.23532 0.18599 0.0
H168 H 0.89748 0.15638 0.12069 0.0
H169 H 0.84949 0.10778 0.11946 0.0
H170 H 0.9177 0.13609 0.09394 0.0
H171 H 0.87044 0.08847 0.0926 0.0
H172 H 0.92521 0.15127 0.2073 0.0
H173 H 0.93884 0.18881 0.15154 0.0
H174 H 0.79936 0.18702 0.06551 0.0
H175 H 0.8671 0.1814 0.058 0.0
Li176 Li 0.8395 0.86344 0.15233 0.0
Li177 Li 0.86294 0.83264 0.15073 0.0
Li178 Li 0.83439 0.83709 0.12488 0.0
Li179 Li 0.82728 0.82813 0.16189 0.0
C180 C 0.86827 0.87401 0.12397 0.0
N181 N 0.88584 0.91312 0.11465 0.0
C182 C 0.88804 0.87961 0.13222 0.0
C183 C 0.85752 0.88824 0.11085 0.0
C184 C 0.89664 0.89946 0.12733 0.0
C185 C 0.86663 0.90796 0.10638 0.0
C186 C 0.84429 0.84366 0.19661 0.0
C187 C 0.84174 0.82305 0.22872 0.0
N188 N 0.83153 0.83946 0.23827 0.0
C189 C 0.83384 0.86034 0.20676 0.0
C190 C 0.84838 0.82489 0.20768 0.0
C191 C 0.8275 0.8579 0.22783 0.0
C192 C 0.82158 0.9046 0.15196 0.0
N193 N 0.83853 0.89294 0.1582 0.0
C194 C 0.85689 0.92419 0.16926 0.0
C195 C 0.85574 0.90216 0.16729 0.0
C196 C 0.84 0.93673 0.16213 0.0
C197 C 0.82196 0.92668 0.15384 0.0
H198 H 0.80802 0.89683 0.14499 0.0
H199 H 0.86887 0.8924 0.17231 0.0
C200 C 0.90281 0.82386 0.13463 0.0
N201 N 0.89154 0.82403 0.15294 0.0
C202 C 0.92428 0.81896 0.13485 0.0
C203 C 0.92202 0.81376 0.17275 0.0
C204 C 0.90058 0.81899 0.1718 0.0
C205 C 0.93427 0.81401 0.15413 0.0
H206 H 0.89516 0.82805 0.11988 0.0
H207 H 0.89122 0.81929 0.18612 0.0
C208 C 0.79484 0.84997 0.1322 0.0
N209 N 0.75886 0.85 0.10732 0.0
C210 C 0.77867 0.83526 0.13598 0.0
C211 C 0.79266 0.86474 0.11582 0.0
C212 C 0.76061 0.83554 0.12322 0.0
C213 C 0.77438 0.86447 0.10339 0.0
C214 C 0.85586 0.79478 0.13639 0.0
C215 C 0.86229 0.79076 0.11559 0.0
C216 C 0.86417 0.78267 0.15297 0.0
C217 C 0.87705 0.77474 0.11172 0.0
C218 C 0.87893 0.76682 0.14845 0.0
N219 N 0.88501 0.76322 0.1281 0.0
C220 C 0.84163 0.83989 0.08156 0.0
C221 C 0.80995 0.82141 0.08984 0.0
C222 C 0.83837 0.83657 0.06001 0.0
N223 N 0.82744 0.83248 0.09595 0.0
C224 C 0.80582 0.81811 0.06832 0.0
C225 C 0.82026 0.82564 0.05321 0.0
H226 H 0.85569 0.8481 0.08684 0.0
H227 H 0.79931 0.81502 0.10162 0.0
C228 C 0.79489 0.82388 0.19224 0.0
N229 N 0.80893 0.81299 0.1801 0.0
C230 C 0.78145 0.81302 0.20604 0.0
C231 C 0.79692 0.77998 0.19419 0.0
C232 C 0.81006 0.79148 0.18067 0.0
C233 C 0.78243 0.79077 0.20717 0.0
H234 H 0.79422 0.84101 0.19123 0.0
H235 H 0.82109 0.78324 0.17053 0.0
O236 O 0.85931 0.85487 0.12901 0.0
O237 O 0.85032 0.84562 0.1759 0.0
O238 O 0.81263 0.84998 0.14454 0.0
O239 O 0.84183 0.81076 0.14056 0.0
H240 H 0.8965 0.86889 0.14257 0.0
H241 H 0.84219 0.88417 0.10437 0.0
H242 H 0.91186 0.90406 0.13371 0.0
H243 H 0.85841 0.91919 0.09638 0.0
H244 H 0.84463 0.80855 0.23742 0.0
H245 H 0.83048 0.87495 0.19841 0.0
H246 H 0.85625 0.81173 0.20001 0.0
H247 H 0.81932 0.87065 0.23586 0.0
H248 H 0.87096 0.93136 0.17599 0.0
H249 H 0.80865 0.93582 0.14808 0.0
H250 H 0.93306 0.81977 0.12015 0.0
H251 H 0.92896 0.80978 0.18792 0.0
H252 H 0.78008 0.82365 0.14851 0.0
H253 H 0.80507 0.87613 0.11257 0.0
H254 H 0.748 0.82421 0.12593 0.0
H255 H 0.77255 0.87573 0.09058 0.0
H256 H 0.85608 0.79999 0.10257 0.0
H257 H 0.85957 0.78572 0.16919 0.0
H258 H 0.88223 0.77152 0.09571 0.0
H259 H 0.88561 0.75744 0.16114 0.0
H260 H 0.84983 0.84259 0.04873 0.0
H261 H 0.79181 0.8094 0.06356 0.0
H262 H 0.77059 0.82195 0.21586 0.0
H263 H 0.79787 0.76281 0.19425 0.0
Li264 Li 0.13187 0.83252 0.15751 0.0
Li265 Li 0.16877 0.82338 0.16641 0.0
Li266 Li 0.15907 0.86043 0.1587 0.0
Li267 Li 0.16035 0.83291 0.13095 0.0
C268 C 0.13784 0.84183 0.20035 0.0
N269 N 0.11424 0.84042 0.23717 0.0
C270 C 0.1406 0.82519 0.21474 0.0
C271 C 0.12322 0.85785 0.20478 0.0
C272 C 0.12849 0.82475 0.23326 0.0
C273 C 0.11139 0.85681 0.22344 0.0
C274 C 0.14775 0.79372 0.13145 0.0
C275 C 0.1644 0.76932 0.10721 0.0
N276 N 0.14534 0.76571 0.09785 0.0
C277 C 0.12831 0.78968 0.12169 0.0
C278 C 0.16593 0.78339 0.12427 0.0
C279 C 0.12743 0.77548 0.1047 0.0
C280 C 0.08951 0.83238 0.14548 0.0
N281 N 0.1026 0.82675 0.1616 0.0
C282 C 0.07327 0.81423 0.18204 0.0
C283 C 0.09501 0.81733 0.17945 0.0
C284 C 0.05942 0.8203 0.16579 0.0
C285 C 0.06775 0.82922 0.14722 0.0
H286 H 0.09599 0.83938 0.13125 0.0
H287 H 0.10574 0.81222 0.1917 0.0
C288 C 0.19879 0.81446 0.19843 0.0
N289 N 0.18527 0.80572 0.18411 0.0
C290 C 0.21103 0.80145 0.21142 0.0
C291 C 0.19419 0.77075 0.1956 0.0
C292 C 0.18264 0.78434 0.18258 0.0
C293 C 0.20869 0.77935 0.21006 0.0
H294 H 0.20005 0.83152 0.19977 0.0
H295 H 0.17144 0.77786 0.17135 0.0
C296 C 0.12853 0.87249 0.12994 0.0
N297 N 0.10993 0.91024 0.11788 0.0
C298 C 0.13351 0.88162 0.11038 0.0
C299 C 0.11396 0.88244 0.14327 0.0
C300 C 0.12397 0.90075 0.10459 0.0
C301 C 0.10477 0.90155 0.13692 0.0
C302 C 0.20438 0.8429 0.15436 0.0
C303 C 0.21345 0.85913 0.16646 0.0
C304 C 0.21636 0.82502 0.14915 0.0
C305 C 0.23434 0.85707 0.17337 0.0
C306 C 0.23719 0.82353 0.1564 0.0
N307 N 0.24567 0.83945 0.16826 0.0
C308 C 0.16255 0.89632 0.18542 0.0
C309 C 0.16724 0.90327 0.14883 0.0
C310 C 0.16434 0.91793 0.19011 0.0
N311 N 0.16359 0.88954 0.16501 0.0
C312 C 0.16879 0.92502 0.15274 0.0
C313 C 0.16709 0.93269 0.17361 0.0
H314 H 0.16016 0.88498 0.19804 0.0
H315 H 0.16851 0.89737 0.13281 0.0
C316 C 0.14911 0.82785 0.08835 0.0
N317 N 0.16589 0.82871 0.10177 0.0
C318 C 0.15235 0.82582 0.0666 0.0
C319 C 0.19009 0.82549 0.0729 0.0
C320 C 0.18611 0.82749 0.09457 0.0
C321 C 0.17307 0.8248 0.05859 0.0
H322 H 0.13322 0.82913 0.09457 0.0
H323 H 0.19914 0.82838 0.1056 0.0
O324 O 0.14957 0.84254 0.18216 0.0
O325 O 0.14905 0.80798 0.14774 0.0
O326 O 0.1379 0.8539 0.13596 0.0
O327 O 0.18391 0.84459 0.14756 0.0
H328 H 0.15185 0.81266 0.2116 0.0
H329 H 0.12103 0.87094 0.19393 0.0
H330 H 0.13039 0.81193 0.24449 0.0
H331 H 0.09996 0.86906 0.22703 0.0
H332 H 0.17836 0.76133 0.10138 0.0
H333 H 0.1141 0.79754 0.12706 0.0
H334 H 0.1811 0.78638 0.13163 0.0
H335 H 0.11251 0.77228 0.09691 0.0
H336 H 0.06736 0.80704 0.19647 0.0
H337 H 0.05751 0.83413 0.13437 0.0
H338 H 0.22192 0.80854 0.22265 0.0
H339 H 0.19201 0.75374 0.19425 0.0
H340 H 0.14478 0.87411 0.09988 0.0
H341 H 0.1098 0.87546 0.15836 0.0
H342 H 0.12776 0.90806 0.08955 0.0
H343 H 0.09351 0.90947 0.14712 0.0
H344 H 0.20442 0.87311 0.17058 0.0
H345 H 0.20957 0.81229 0.13985 0.0
H346 H 0.24154 0.86946 0.18283 0.0
H347 H 0.24659 0.80971 0.15264 0.0
H348 H 0.16345 0.92298 0.20648 0.0
H349 H 0.17068 0.93569 0.13943 0.0
H350 H 0.13878 0.82571 0.05612 0.0
H351 H 0.20629 0.82461 0.0674 0.0
Li352 Li 0.15709 0.86167 0.83422 0.0
Li353 Li 0.15861 0.83338 0.86085 0.0
Li354 Li 0.16509 0.82686 0.82397 0.0
Li355 Li 0.12932 0.83551 0.83569 0.0
C356 C 0.202 0.83808 0.84058 0.0
N357 N 0.2424 0.82267 0.83413 0.0
C358 C 0.2111 0.82425 0.85529 0.0
C359 C 0.21356 0.84428 0.82273 0.0
C360 C 0.23153 0.8166 0.85172 0.0
C361 C 0.23391 0.83624 0.8197 0.0
C362 C 0.12346 0.8554 0.87441 0.0
C363 C 0.10154 0.8355 0.89862 0.0
N364 N 0.09575 0.85393 0.90823 0.0
C365 C 0.11729 0.87413 0.88451 0.0
C366 C 0.11552 0.8359 0.88149 0.0
C367 C 0.10326 0.87306 0.90158 0.0
C368 C 0.14323 0.90307 0.8313 0.0
N369 N 0.16097 0.89106 0.82982 0.0
C370 C 0.18172 0.9215 0.82096 0.0
C371 C 0.18005 0.89973 0.8249 0.0
C372 C 0.16359 0.93434 0.82227 0.0
C373 C 0.14418 0.92484 0.82761 0.0
H374 H 0.12831 0.89564 0.83526 0.0
H375 H 0.19388 0.88973 0.8238 0.0
C376 C 0.1639 0.80688 0.89668 0.0
N377 N 0.1649 0.82717 0.88942 0.0
C378 C 0.16595 0.80274 0.91831 0.0
C379 C 0.17067 0.84039 0.92437 0.0
C380 C 0.16854 0.84379 0.90265 0.0
C381 C 0.16902 0.81968 0.9325 0.0
H382 H 0.16096 0.79402 0.88572 0.0
H383 H 0.16901 0.85976 0.89636 0.0
C384 C 0.14316 0.86158 0.79543 0.0
N385 N 0.14091 0.89456 0.76662 0.0
C386 C 0.12358 0.87029 0.79 0.0
C387 C 0.16155 0.8694 0.78589 0.0
C388 C 0.12278 0.88701 0.77548 0.0
C389 C 0.16011 0.88614 0.77146 0.0
C390 C 0.13885 0.79223 0.83377 0.0
C391 C 0.13443 0.79256 0.81204 0.0
C392 C 0.13537 0.77361 0.84531 0.0
C393 C 0.12663 0.77424 0.80227 0.0
C394 C 0.12751 0.75564 0.83496 0.0
N395 N 0.12335 0.75632 0.81384 0.0
C396 C 0.19302 0.79377 0.81363 0.0
C397 C 0.18103 0.8137 0.78415 0.0
C398 C 0.20599 0.78156 0.80058 0.0
N399 N 0.18128 0.80976 0.8053 0.0
C400 C 0.19356 0.80173 0.77047 0.0
C401 C 0.20648 0.78557 0.77868 0.0
H402 H 0.19255 0.79074 0.83048 0.0
H403 H 0.17106 0.82609 0.77787 0.0
C404 C 0.08943 0.85242 0.8341 0.0
N405 N 0.09931 0.83329 0.83329 0.0
C406 C 0.06745 0.85361 0.83389 0.0
C407 C 0.06599 0.81531 0.83183 0.0
C408 C 0.08809 0.81485 0.83228 0.0
C409 C 0.05545 0.83489 0.83283 0.0
H410 H 0.09873 0.86682 0.83518 0.0
H411 H 0.0961 0.79976 0.83226 0.0
O412 O 0.18192 0.84553 0.84369 0.0
O413 O 0.13723 0.85627 0.8577 0.0
O414 O 0.14432 0.84551 0.81 0.0
O415 O 0.14682 0.80982 0.84375 0.0
H416 H 0.20244 0.81931 0.86922 0.0
H417 H 0.20682 0.85499 0.81121 0.0
H418 H 0.23871 0.80578 0.8629 0.0
H419 H 0.24295 0.84076 0.80586 0.0
H420 H 0.0953 0.82053 0.90427 0.0
H421 H 0.1233 0.88934 0.8792 0.0
H422 H 0.12009 0.82123 0.87387 0.0
H423 H 0.09835 0.88743 0.90956 0.0
H424 H 0.19696 0.92814 0.81672 0.0
H425 H 0.12989 0.93414 0.82923 0.0
H426 H 0.16479 0.78652 0.9239 0.0
H427 H 0.17269 0.85394 0.93475 0.0
H428 H 0.10914 0.86421 0.79685 0.0
H429 H 0.17683 0.86285 0.78987 0.0
H430 H 0.10774 0.89398 0.77124 0.0
H431 H 0.17426 0.8925 0.76417 0.0
H432 H 0.13685 0.80675 0.80277 0.0
H433 H 0.13866 0.77305 0.86212 0.0
H434 H 0.12314 0.77429 0.78549 0.0
H435 H 0.12473 0.74114 0.84373 0.0
H436 H 0.21578 0.76939 0.80766 0.0
H437 H 0.193 0.80502 0.75365 0.0
H438 H 0.05992 0.86903 0.83454 0.0
H439 H 0.05723 0.80051 0.83131 0.0
Li440 Li 0.16331 0.15715 0.86787 0.0
Li441 Li 0.16276 0.13108 0.83925 0.0
Li442 Li 0.17044 0.1687 0.83133 0.0
Li443 Li 0.13474 0.15691 0.83986 0.0
C444 C 0.20632 0.15378 0.85695 0.0
N445 N 0.24576 0.16461 0.87251 0.0
C446 C 0.22119 0.13799 0.86135 0.0
C447 C 0.2116 0.17508 0.86025 0.0
C448 C 0.24102 0.14378 0.86928 0.0
C449 C 0.23159 0.18024 0.86817 0.0
C450 C 0.13656 0.11499 0.86749 0.0
C451 C 0.11988 0.08135 0.85991 0.0
N452 N 0.12795 0.07331 0.8782 0.0
C453 C 0.14451 0.10647 0.88631 0.0
C454 C 0.12397 0.10241 0.85428 0.0
C455 C 0.14003 0.08535 0.89141 0.0
C456 C 0.15647 0.17382 0.90866 0.0
N457 N 0.16894 0.16068 0.89706 0.0
C458 C 0.18659 0.14863 0.92823 0.0
C459 C 0.18395 0.14836 0.90631 0.0
C460 C 0.17352 0.16157 0.94073 0.0
C461 C 0.15858 0.17462 0.93067 0.0
H462 H 0.14435 0.18309 0.90088 0.0
H463 H 0.19321 0.13758 0.89679 0.0
C464 C 0.16504 0.09354 0.8145 0.0
N465 N 0.17017 0.10267 0.8333 0.0
C466 C 0.16899 0.072 0.81113 0.0
C467 C 0.18402 0.06997 0.84631 0.0
C468 C 0.17997 0.09155 0.84889 0.0
C469 C 0.17819 0.05982 0.82735 0.0
H470 H 0.15753 0.10287 0.80228 0.0
H471 H 0.18394 0.09934 0.86365 0.0
C472 C 0.15083 0.20296 0.85407 0.0
N473 N 0.15098 0.24667 0.85819 0.0
C474 C 0.13665 0.21531 0.8424 0.0
C475 C 0.16478 0.21284 0.86817 0.0
C476 C 0.13706 0.23738 0.84461 0.0
C477 C 0.16471 0.23495 0.86994 0.0
C478 C 0.13936 0.15017 0.79816 0.0
C479 C 0.14127 0.16745 0.78439 0.0
C480 C 0.1239 0.13473 0.79437 0.0
C481 C 0.12747 0.16912 0.76718 0.0
C482 C 0.11037 0.137 0.77702 0.0
N483 N 0.11241 0.15401 0.7639 0.0
C484 C 0.20595 0.17666 0.80735 0.0
C485 C 0.18286 0.20626 0.80842 0.0
C486 C 0.22023 0.18781 0.79475 0.0
N487 N 0.18787 0.18608 0.81416 0.0
C488 C 0.19659 0.21794 0.7956 0.0
C489 C 0.21561 0.20872 0.78878 0.0
H490 H 0.20929 0.16041 0.81175 0.0
H491 H 0.16817 0.21323 0.81354 0.0
C492 C 0.09217 0.15075 0.84939 0.0
N493 N 0.10519 0.16119 0.83577 0.0
C494 C 0.0703 0.1526 0.84751 0.0
C495 C 0.07548 0.17642 0.81793 0.0
C496 C 0.09732 0.17405 0.82035 0.0
C497 C 0.06169 0.16546 0.83155 0.0
H498 H 0.09877 0.14101 0.8618 0.0
H499 H 0.10795 0.18241 0.80987 0.0
O500 O 0.18682 0.14832 0.84922 0.0
O501 O 0.1412 0.13549 0.86194 0.0
O502 O 0.15041 0.18129 0.85232 0.0
O503 O 0.15272 0.14827 0.8151 0.0
H504 H 0.21743 0.12142 0.85873 0.0
H505 H 0.2005 0.1875 0.85647 0.0
H506 H 0.25264 0.13172 0.87285 0.0
H507 H 0.23587 0.19668 0.87078 0.0
H508 H 0.11031 0.07138 0.84974 0.0
H509 H 0.15417 0.11599 0.89678 0.0
H510 H 0.11755 0.1088 0.83975 0.0
H511 H 0.14621 0.0785 0.90585 0.0
H512 H 0.19835 0.1384 0.93536 0.0
H513 H 0.14796 0.18457 0.93975 0.0
H514 H 0.16458 0.06492 0.79613 0.0
H515 H 0.19086 0.06122 0.85937 0.0
H516 H 0.1256 0.20797 0.83159 0.0
H517 H 0.17543 0.20356 0.87783 0.0
H518 H 0.1263 0.24713 0.83552 0.0
H519 H 0.17549 0.24279 0.88073 0.0
H520 H 0.15319 0.17948 0.78698 0.0
H521 H 0.12226 0.1212 0.80477 0.0
H522 H 0.1287 0.18246 0.75645 0.0
H523 H 0.09825 0.12523 0.77399 0.0
H524 H 0.2346 0.18008 0.78951 0.0
H525 H 0.19252 0.23407 0.79127 0.0
H526 H 0.06024 0.14423 0.85862 0.0
H527 H 0.06946 0.18644 0.80538 0.0
Li528 Li 0.83449 0.12901 0.83566 0.0
Li529 Li 0.83411 0.15561 0.8633 0.0
Li530 Li 0.82792 0.1654 0.82702 0.0
Li531 Li 0.86248 0.15501 0.83796 0.0
C532 C 0.79571 0.13517 0.85661 0.0
N533 N 0.76678 0.11214 0.88015 0.0
C534 C 0.80231 0.11768 0.8685 0.0
C535 C 0.77436 0.14091 0.85667 0.0
C536 C 0.78747 0.10624 0.88029 0.0
C537 C 0.75999 0.12908 0.86868 0.0
C538 C 0.86983 0.13234 0.87463 0.0
C539 C 0.89166 0.15014 0.90049 0.0
N540 N 0.89969 0.13107 0.90657 0.0
C541 C 0.87827 0.11292 0.88115 0.0
C542 C 0.87655 0.15111 0.88438 0.0
C543 C 0.89336 0.11261 0.89732 0.0
C544 C 0.84831 0.08824 0.83116 0.0
N545 N 0.83032 0.09984 0.82955 0.0
C546 C 0.80967 0.06838 0.82469 0.0
C547 C 0.81125 0.09052 0.82573 0.0
C548 C 0.82789 0.05595 0.82759 0.0
C549 C 0.84747 0.06618 0.8302 0.0
H550 H 0.86325 0.09617 0.83393 0.0
H551 H 0.79719 0.10018 0.82443 0.0
C552 C 0.82328 0.1808 0.89898 0.0
N553 N 0.82731 0.1607 0.89224 0.0
C554 C 0.81954 0.1848 0.92045 0.0
C555 C 0.82358 0.14727 0.92741 0.0
C556 C 0.82761 0.14407 0.90597 0.0
C557 C 0.81965 0.16785 0.93488 0.0
H558 H 0.82329 0.19374 0.88772 0.0
H559 H 0.83147 0.12834 0.90039 0.0
C560 C 0.83854 0.13895 0.79349 0.0
N561 N 0.82102 0.12591 0.75553 0.0
C562 C 0.85135 0.13621 0.77566 0.0
C563 C 0.8168 0.13505 0.79201 0.0
C564 C 0.8422 0.12961 0.75661 0.0
C565 C 0.80825 0.12847 0.77268 0.0
C566 C 0.85429 0.19841 0.83898 0.0
C567 C 0.86414 0.19777 0.81916 0.0
C568 C 0.85248 0.21777 0.84965 0.0
C569 C 0.87197 0.21653 0.81031 0.0
C570 C 0.86051 0.2362 0.84027 0.0
N571 N 0.87 0.23521 0.82096 0.0
C572 C 0.79332 0.19082 0.81597 0.0
C573 C 0.82071 0.19024 0.79028 0.0
C574 C 0.7814 0.20454 0.80341 0.0
N575 N 0.81253 0.18397 0.8092 0.0
C576 C 0.80946 0.20416 0.77735 0.0
C577 C 0.78953 0.21141 0.78387 0.0
H578 H 0.78732 0.18565 0.83116 0.0
H579 H 0.83596 0.18444 0.7852 0.0
C580 C 0.90111 0.14209 0.82218 0.0
N581 N 0.89209 0.15747 0.83424 0.0
C582 C 0.92302 0.14121 0.81995 0.0
C583 C 0.92594 0.17234 0.84225 0.0
C584 C 0.90392 0.17259 0.84407 0.0
C585 C 0.93575 0.15628 0.83032 0.0
H586 H 0.89123 0.13021 0.81469 0.0
H587 H 0.89633 0.18449 0.85379 0.0
O588 O 0.80989 0.14669 0.84489 0.0
O589 O 0.85508 0.13281 0.85877 0.0
O590 O 0.8474 0.14551 0.81216 0.0
O591 O 0.84641 0.18029 0.84804 0.0
H592 H 0.81872 0.11289 0.86859 0.0
H593 H 0.76894 0.15436 0.84751 0.0
H594 H 0.79239 0.09268 0.88955 0.0
H595 H 0.74342 0.13337 0.86887 0.0
H596 H 0.89701 0.16455 0.90816 0.0
H597 H 0.87319 0.09823 0.87381 0.0
H598 H 0.87018 0.16629 0.8796 0.0
H599 H 0.90003 0.09769 0.90252 0.0
H600 H 0.79427 0.06108 0.82268 0.0
H601 H 0.86195 0.0572 0.83204 0.0
H602 H 0.81664 0.2009 0.92574 0.0
H603 H 0.8242 0.13388 0.93816 0.0
H604 H 0.86821 0.1392 0.77655 0.0
H605 H 0.80658 0.13714 0.80556 0.0
H606 H 0.85193 0.12745 0.74268 0.0
H607 H 0.79146 0.12542 0.77132 0.0
H608 H 0.86577 0.18297 0.81065 0.0
H609 H 0.84494 0.21857 0.86502 0.0
H610 H 0.8796 0.21625 0.79497 0.0
H611 H 0.8592 0.25129 0.84835 0.0
H612 H 0.76613 0.20995 0.80901 0.0
H613 H 0.81612 0.20896 0.76228 0.0
H614 H 0.92994 0.12871 0.81043 0.0
H615 H 0.9352 0.18408 0.85071 0.0
Li616 Li 0.82641 0.85785 0.8291 0.0
Li617 Li 0.83032 0.8296 0.85547 0.0
Li618 Li 0.85624 0.83331 0.82773 0.0
Li619 Li 0.82024 0.82113 0.82073 0.0
C620 C 0.86286 0.87091 0.84944 0.0
N621 N 0.88978 0.90551 0.84815 0.0
C622 C 0.8701 0.88011 0.86824 0.0
C623 C 0.86932 0.8793 0.82997 0.0
C624 C 0.88371 0.89759 0.86726 0.0
C625 C 0.88293 0.8968 0.82966 0.0
C626 C 0.78377 0.83646 0.83508 0.0
C627 C 0.75185 0.81541 0.83387 0.0
N628 N 0.74248 0.83062 0.82183 0.0
C629 C 0.77375 0.85197 0.82284 0.0
C630 C 0.77267 0.81811 0.84082 0.0
C631 C 0.7529 0.8487 0.81626 0.0
C632 C 0.81915 0.89569 0.8058 0.0
N633 N 0.81904 0.88662 0.82533 0.0
C634 C 0.81235 0.92005 0.84173 0.0
C635 C 0.81535 0.89818 0.84311 0.0
C636 C 0.81323 0.93008 0.82186 0.0
C637 C 0.81619 0.91756 0.80367 0.0
H638 H 0.82223 0.88605 0.79199 0.0
H639 H 0.81544 0.89045 0.85841 0.0
C640 C 0.84666 0.8257 0.89583 0.0
N641 N 0.82836 0.82368 0.88476 0.0
C642 C 0.84695 0.82202 0.91757 0.0
C643 C 0.80955 0.81391 0.9161 0.0
C644 C 0.80996 0.81792 0.89432 0.0
C645 C 0.82822 0.81606 0.92804 0.0
H646 H 0.86101 0.83036 0.88773 0.0
H647 H 0.79566 0.81643 0.88505 0.0
C648 C 0.8436 0.83373 0.7852 0.0
N649 N 0.85642 0.81622 0.74713 0.0
C650 C 0.84928 0.81229 0.78408 0.0
C651 C 0.84443 0.84622 0.76691 0.0
C652 C 0.8557 0.80375 0.7647 0.0
C653 C 0.85098 0.83709 0.74784 0.0
C654 C 0.84402 0.79101 0.85221 0.0
C655 C 0.86378 0.78523 0.86026 0.0
C656 C 0.82584 0.78078 0.85965 0.0
C657 C 0.86498 0.76963 0.87594 0.0
C658 C 0.82767 0.76526 0.87534 0.0
N659 N 0.84704 0.76008 0.88313 0.0
C660 C 0.89737 0.8299 0.84129 0.0
C661 C 0.89571 0.83239 0.80387 0.0
C662 C 0.91936 0.82867 0.84065 0.0
N663 N 0.886 0.83145 0.8231 0.0
C664 C 0.91774 0.8311 0.80248 0.0
C665 C 0.92982 0.82921 0.82105 0.0
H666 H 0.88927 0.82967 0.85639 0.0
H667 H 0.88657 0.83442 0.78961 0.0
C668 C 0.79055 0.81204 0.78888 0.0
N669 N 0.8038 0.80304 0.80323 0.0
C670 C 0.77827 0.7993 0.77564 0.0
C671 C 0.79446 0.76829 0.79135 0.0
C672 C 0.80614 0.78164 0.80456 0.0
C673 C 0.78021 0.77716 0.77682 0.0
H674 H 0.7896 0.82914 0.78767 0.0
H675 H 0.81728 0.77493 0.81565 0.0
O676 O 0.84943 0.85386 0.85023 0.0
O677 O 0.80426 0.83929 0.84151 0.0
O678 O 0.83685 0.84246 0.80388 0.0
O679 O 0.84245 0.80664 0.83721 0.0
H680 H 0.86522 0.87381 0.88344 0.0
H681 H 0.86389 0.87241 0.81524 0.0
H682 H 0.88943 0.90488 0.88169 0.0
H683 H 0.88804 0.90346 0.81471 0.0
H684 H 0.74314 0.80121 0.83805 0.0
H685 H 0.78202 0.86629 0.81829 0.0
H686 H 0.78006 0.806 0.85038 0.0
H687 H 0.74501 0.86051 0.80666 0.0
H688 H 0.80985 0.9291 0.85611 0.0
H689 H 0.81717 0.9247 0.7881 0.0
H690 H 0.86162 0.82431 0.92613 0.0
H691 H 0.79481 0.80916 0.92346 0.0
H692 H 0.84889 0.80231 0.79798 0.0
H693 H 0.84009 0.86281 0.76743 0.0
H694 H 0.86015 0.7872 0.76363 0.0
H695 H 0.85172 0.8466 0.73359 0.0
H696 H 0.87807 0.79262 0.85445 0.0
H697 H 0.81044 0.78497 0.85355 0.0
H698 H 0.88017 0.76509 0.88238 0.0
H699 H 0.81369 0.75738 0.88137 0.0
H700 H 0.92806 0.82714 0.85535 0.0
H701 H 0.92526 0.832 0.78708 0.0
H702 H 0.76766 0.80665 0.76434 0.0
H703 H 0.79637 0.75125 0.7926 0.0
Li704 Li 0.65806 0.66684 0.66442 0.0
Li705 Li 0.65359 0.65651 0.62768 0.0
Li706 Li 0.62345 0.65655 0.65353 0.0
Li707 Li 0.65068 0.62892 0.65548 0.0
C708 C 0.64576 0.70157 0.64505 0.0
N709 N 0.65807 0.7433 0.65082 0.0
C710 C 0.6601 0.71101 0.63104 0.0
C711 C 0.63751 0.71341 0.66185 0.0
C712 C 0.66615 0.73212 0.63426 0.0
C713 C 0.644 0.73446 0.66455 0.0
C714 C 0.69374 0.63879 0.63851 0.0
C715 C 0.71173 0.61142 0.61874 0.0
N716 N 0.73001 0.62278 0.61994 0.0
C717 C 0.71281 0.65002 0.63981 0.0
C718 C 0.69329 0.6192 0.6281 0.0
C719 C 0.73093 0.64174 0.63022 0.0
C720 C 0.66804 0.68719 0.7031 0.0
N721 N 0.67362 0.68515 0.6824 0.0
C722 C 0.70198 0.70984 0.68679 0.0
C723 C 0.69013 0.6962 0.67406 0.0
C724 C 0.69655 0.71226 0.70819 0.0
C725 C 0.67927 0.7009 0.71634 0.0
H726 H 0.65494 0.67811 0.70934 0.0
H727 H 0.69394 0.69454 0.65747 0.0
C728 C 0.64368 0.66149 0.58542 0.0
N729 N 0.66045 0.66165 0.59888 0.0
C730 C 0.64683 0.66333 0.56367 0.0
C731 C 0.68442 0.66673 0.57003 0.0
C732 C 0.68053 0.66468 0.59173 0.0
C733 C 0.66745 0.66561 0.55571 0.0
H734 H 0.62786 0.6594 0.59162 0.0
H735 H 0.69355 0.66526 0.60276 0.0
C736 C 0.62316 0.64403 0.69345 0.0
N737 N 0.59027 0.63915 0.72188 0.0
C738 C 0.61671 0.62373 0.69968 0.0
C739 C 0.61304 0.66186 0.70187 0.0
C740 C 0.60002 0.62159 0.71404 0.0
C741 C 0.59639 0.65906 0.71616 0.0
C742 C 0.62564 0.61916 0.61798 0.0
C743 C 0.60528 0.61043 0.61808 0.0
C744 C 0.64036 0.61201 0.60307 0.0
C745 C 0.60018 0.59435 0.6037 0.0
C746 C 0.63466 0.59593 0.58891 0.0
N747 N 0.61486 0.58747 0.58954 0.0
C748 C 0.58579 0.6809 0.653 0.0
C749 C 0.58134 0.64448 0.66135 0.0
C750 C 0.56401 0.68426 0.65452 0.0
N751 N 0.59394 0.66124 0.65634 0.0
C752 C 0.55951 0.64706 0.66288 0.0
C753 C 0.55052 0.66715 0.65935 0.0
H754 H 0.59618 0.69394 0.64898 0.0
H755 H 0.58826 0.62902 0.66395 0.0
C756 C 0.67479 0.59431 0.67078 0.0
N757 N 0.65588 0.60001 0.66226 0.0
C758 C 0.67921 0.57296 0.67476 0.0
C759 C 0.6443 0.56392 0.66192 0.0
C760 C 0.64058 0.58539 0.6582 0.0
C761 C 0.66391 0.55741 0.67012 0.0
H762 H 0.68655 0.60634 0.67418 0.0
H763 H 0.62549 0.59038 0.65199 0.0
O764 O 0.63996 0.68081 0.64238 0.0
O765 O 0.67585 0.64674 0.64786 0.0
O766 O 0.63931 0.64642 0.67919 0.0
O767 O 0.63082 0.63504 0.63195 0.0
H768 H 0.66663 0.70209 0.61796 0.0
H769 H 0.62641 0.70635 0.67284 0.0
H770 H 0.67732 0.7396 0.62362 0.0
H771 H 0.63788 0.74375 0.67759 0.0
H772 H 0.71153 0.5963 0.61061 0.0
H773 H 0.71367 0.66501 0.64808 0.0
H774 H 0.67897 0.60987 0.62753 0.0
H775 H 0.74573 0.65036 0.631 0.0
H776 H 0.71511 0.71855 0.67995 0.0
H777 H 0.67479 0.7023 0.73285 0.0
H778 H 0.63329 0.6628 0.55317 0.0
H779 H 0.70054 0.66852 0.56448 0.0
H780 H 0.62445 0.60976 0.69345 0.0
H781 H 0.61778 0.67768 0.69718 0.0
H782 H 0.5948 0.60597 0.71892 0.0
H783 H 0.58829 0.67271 0.72265 0.0
H784 H 0.59351 0.61592 0.62918 0.0
H785 H 0.65591 0.61902 0.60208 0.0
H786 H 0.58453 0.58737 0.60375 0.0
H787 H 0.64594 0.59028 0.57733 0.0
H788 H 0.55782 0.70006 0.6519 0.0
H789 H 0.54977 0.63331 0.66628 0.0
H790 H 0.69442 0.56867 0.68139 0.0
H791 H 0.6321 0.5525 0.65794 0.0
Li792 Li 0.32333 0.62731 0.65411 0.0
Li793 Li 0.31775 0.66325 0.66687 0.0
Li794 Li 0.32425 0.65633 0.62942 0.0
Li795 Li 0.35239 0.65278 0.65587 0.0
C796 C 0.28339 0.63356 0.64903 0.0
N797 N 0.25107 0.60455 0.65488 0.0
C798 C 0.2727 0.63262 0.66839 0.0
C799 C 0.27762 0.61981 0.63262 0.0
C800 C 0.25639 0.61784 0.67103 0.0
C801 C 0.26125 0.60523 0.63591 0.0
C802 C 0.35055 0.63709 0.69431 0.0
C803 C 0.37574 0.64948 0.72025 0.0
N804 N 0.38279 0.62925 0.7228 0.0
C805 C 0.35802 0.61642 0.69722 0.0
C806 C 0.35943 0.65376 0.70596 0.0
C807 C 0.37433 0.61278 0.7117 0.0
C808 C 0.31804 0.58454 0.64202 0.0
N809 N 0.31591 0.59844 0.65833 0.0
C810 C 0.3053 0.57051 0.68165 0.0
C811 C 0.30936 0.59197 0.67781 0.0
C812 C 0.30771 0.55578 0.66514 0.0
C813 C 0.31382 0.56305 0.64504 0.0
H814 H 0.32345 0.59006 0.62679 0.0
H815 H 0.30781 0.60343 0.69048 0.0
C816 C 0.28664 0.69289 0.67763 0.0
N817 N 0.30156 0.67976 0.68583 0.0
C818 C 0.27401 0.70506 0.69104 0.0
C819 C 0.29179 0.68928 0.72109 0.0
C820 C 0.30425 0.6776 0.70708 0.0
C821 C 0.27651 0.70327 0.71306 0.0
H822 H 0.28446 0.69377 0.66067 0.0
H823 H 0.31588 0.66663 0.71315 0.0
C824 C 0.3524 0.62974 0.61258 0.0
N825 N 0.36665 0.62462 0.57148 0.0
C826 C 0.37288 0.63606 0.60704 0.0
C827 C 0.33919 0.62076 0.59719 0.0
C828 C 0.37979 0.63333 0.58619 0.0
C829 C 0.34667 0.61835 0.57651 0.0
C830 C 0.3324 0.6993 0.65127 0.0
C831 C 0.31966 0.7106 0.63712 0.0
C832 C 0.33959 0.70915 0.66977 0.0
C833 C 0.31413 0.73153 0.64187 0.0
C834 C 0.33367 0.73009 0.67397 0.0
N835 N 0.32116 0.74075 0.66005 0.0
C836 C 0.29828 0.66266 0.59341 0.0
C837 C 0.33425 0.67236 0.58914 0.0
C838 C 0.29427 0.66679 0.57205 0.0
N839 N 0.31814 0.66495 0.6013 0.0
C840 C 0.3311 0.67621 0.56763 0.0
C841 C 0.31095 0.67306 0.55865 0.0
H842 H 0.28564 0.6572 0.60359 0.0
H843 H 0.34982 0.67437 0.59597 0.0
C844 C 0.39334 0.63746 0.66293 0.0
N845 N 0.38184 0.65554 0.6608 0.0
C846 C 0.41505 0.63855 0.66662 0.0
C847 C 0.41282 0.67687 0.6652 0.0
C848 C 0.39105 0.67504 0.66181 0.0
C849 C 0.42504 0.65845 0.6677 0.0
H850 H 0.38561 0.62218 0.66159 0.0
H851 H 0.38154 0.68913 0.65982 0.0
O852 O 0.29982 0.64746 0.64636 0.0
O853 O 0.33485 0.64105 0.67992 0.0
O854 O 0.3453 0.63242 0.6329 0.0
O855 O 0.33772 0.67869 0.64706 0.0
H856 H 0.27708 0.64301 0.68132 0.0
H857 H 0.28591 0.62016 0.61763 0.0
H858 H 0.24803 0.61686 0.68595 0.0
H859 H 0.25671 0.59439 0.6234 0.0
H860 H 0.38284 0.66225 0.72927 0.0
H861 H 0.35154 0.60335 0.68817 0.0
H862 H 0.35396 0.66987 0.70381 0.0
H863 H 0.38033 0.59688 0.71403 0.0
H864 H 0.3006 0.56542 0.69736 0.0
H865 H 0.31615 0.55209 0.63201 0.0
H866 H 0.26214 0.71542 0.68428 0.0
H867 H 0.29415 0.6875 0.738 0.0
H868 H 0.38331 0.64315 0.61863 0.0
H869 H 0.32313 0.61622 0.60102 0.0
H870 H 0.39558 0.6382 0.58168 0.0
H871 H 0.33654 0.61162 0.56442 0.0
H872 H 0.31394 0.70323 0.62273 0.0
H873 H 0.34944 0.70064 0.68089 0.0
H874 H 0.30419 0.74043 0.63113 0.0
H875 H 0.33898 0.73786 0.68831 0.0
H876 H 0.27835 0.6647 0.56608 0.0
H877 H 0.34459 0.68071 0.55807 0.0
H878 H 0.42401 0.62399 0.66808 0.0
H879 H 0.42001 0.69248 0.66593 0.0
Li880 Li 0.34031 0.36279 0.67007 0.0
Li881 Li 0.36604 0.33374 0.66995 0.0
Li882 Li 0.34101 0.33863 0.63928 0.0
Li883 Li 0.32926 0.32474 0.67336 0.0
C884 C 0.37231 0.37636 0.64242 0.0
N885 N 0.38959 0.41388 0.62754 0.0
C886 C 0.39176 0.38357 0.65017 0.0
C887 C 0.36188 0.38805 0.62678 0.0
C888 C 0.40017 0.40263 0.64255 0.0
C889 C 0.37081 0.40701 0.61954 0.0
C890 C 0.35856 0.3413 0.71107 0.0
C891 C 0.3777 0.32094 0.7371 0.0
N892 N 0.38328 0.33924 0.74711 0.0
C893 C 0.3643 0.3599 0.72173 0.0
C894 C 0.36513 0.32164 0.71892 0.0
C895 C 0.37687 0.35853 0.73988 0.0
C896 C 0.31434 0.39768 0.67968 0.0
N897 N 0.33478 0.39112 0.67864 0.0
C898 C 0.34715 0.42597 0.68699 0.0
C899 C 0.35107 0.40459 0.68284 0.0
C900 C 0.32625 0.43347 0.68684 0.0
C901 C 0.30968 0.41896 0.6836 0.0
H902 H 0.30164 0.3865 0.67692 0.0
H903 H 0.36714 0.39883 0.68261 0.0
C904 C 0.4024 0.30824 0.66838 0.0
N905 N 0.39428 0.32628 0.67691 0.0
C906 C 0.42369 0.30322 0.67132 0.0
C907 C 0.42764 0.33504 0.69241 0.0
C908 C 0.40634 0.33954 0.68891 0.0
C909 C 0.43665 0.31691 0.68318 0.0
H910 H 0.39251 0.2981 0.65872 0.0
H911 H 0.39963 0.35401 0.69513 0.0
C912 C 0.29994 0.35444 0.64368 0.0
N913 N 0.26723 0.36795 0.61796 0.0
C914 C 0.28174 0.34201 0.64139 0.0
C915 C 0.30132 0.37392 0.63317 0.0
C916 C 0.26542 0.34906 0.62824 0.0
C917 C 0.28467 0.38043 0.62016 0.0
C918 C 0.34441 0.29111 0.65274 0.0
C919 C 0.33292 0.2833 0.63549 0.0
C920 C 0.34998 0.27742 0.66923 0.0
C921 C 0.32686 0.26195 0.63521 0.0
C922 C 0.3436 0.25618 0.66838 0.0
N923 N 0.33225 0.24896 0.65154 0.0
C924 C 0.35639 0.34256 0.5981 0.0
C925 C 0.32038 0.33207 0.5993 0.0
C926 C 0.3558 0.34347 0.57605 0.0
N927 N 0.33871 0.33744 0.60925 0.0
C928 C 0.31909 0.3327 0.57722 0.0
C929 C 0.33688 0.3388 0.56534 0.0
H930 H 0.37091 0.34624 0.60639 0.0
H931 H 0.30673 0.3274 0.60844 0.0
C932 C 0.30958 0.307 0.70858 0.0
N933 N 0.3098 0.30646 0.68708 0.0
C934 C 0.29563 0.29418 0.71987 0.0
C935 C 0.28195 0.28076 0.68667 0.0
C936 C 0.29632 0.29379 0.67599 0.0
C937 C 0.28161 0.28083 0.7089 0.0
H938 H 0.32009 0.31755 0.71701 0.0
H939 H 0.29664 0.29385 0.65888 0.0
O940 O 0.36382 0.35773 0.64978 0.0
O941 O 0.34634 0.34235 0.6932 0.0
O942 O 0.31614 0.34769 0.65641 0.0
O943 O 0.35033 0.312 0.65337 0.0
H944 H 0.40022 0.37465 0.66206 0.0
H945 H 0.34721 0.38242 0.62006 0.0
H946 H 0.41512 0.40846 0.64856 0.0
H947 H 0.36285 0.41623 0.60749 0.0
H948 H 0.38302 0.30583 0.74326 0.0
H949 H 0.35914 0.37522 0.71605 0.0
H950 H 0.36065 0.3071 0.711 0.0
H951 H 0.38152 0.3728 0.74823 0.0
H952 H 0.36038 0.43668 0.68939 0.0
H953 H 0.29333 0.42409 0.68369 0.0
H954 H 0.43008 0.28907 0.66397 0.0
H955 H 0.43719 0.3462 0.70133 0.0
H956 H 0.28022 0.32704 0.6496 0.0
H957 H 0.31495 0.38406 0.63523 0.0
H958 H 0.25131 0.33951 0.62622 0.0
H959 H 0.28558 0.39546 0.6119 0.0
H960 H 0.32859 0.29363 0.62253 0.0
H961 H 0.35911 0.28313 0.68255 0.0
H962 H 0.31784 0.25572 0.62202 0.0
H963 H 0.34769 0.24544 0.6811 0.0
H964 H 0.37001 0.34779 0.56747 0.0
H965 H 0.30421 0.32893 0.56957 0.0
H966 H 0.29556 0.29497 0.73702 0.0
H967 H 0.27139 0.27062 0.67768 0.0
Li968 Li 0.63275 0.33154 0.66028 0.0
Li969 Li 0.66912 0.32195 0.66942 0.0
Li970 Li 0.65957 0.35883 0.66343 0.0
Li971 Li 0.66136 0.33323 0.63423 0.0
C972 C 0.63538 0.33623 0.70206 0.0
N973 N 0.60666 0.32828 0.73411 0.0
C974 C 0.63805 0.31869 0.71536 0.0
C975 C 0.61816 0.34978 0.70513 0.0
C976 C 0.62335 0.31495 0.73147 0.0
C977 C 0.60379 0.34546 0.72139 0.0
C978 C 0.64809 0.29413 0.63269 0.0
C979 C 0.6638 0.27081 0.6068 0.0
N980 N 0.64447 0.26794 0.59775 0.0
C981 C 0.62837 0.29086 0.6232 0.0
C982 C 0.66594 0.28394 0.62452 0.0
C983 C 0.62688 0.27758 0.60553 0.0
C984 C 0.59029 0.33532 0.64952 0.0
N985 N 0.60353 0.32505 0.66299 0.0
C986 C 0.5746 0.30572 0.67801 0.0
C987 C 0.59624 0.31016 0.67682 0.0
C988 C 0.56061 0.31624 0.66433 0.0
C989 C 0.56867 0.33111 0.64989 0.0
H990 H 0.59654 0.34663 0.63828 0.0
H991 H 0.6072 0.30169 0.68685 0.0
C992 C 0.69697 0.31202 0.70275 0.0
N993 N 0.68559 0.30365 0.68649 0.0
C994 C 0.70895 0.29882 0.71579 0.0
C995 C 0.6966 0.26859 0.69557 0.0
C996 C 0.68509 0.28241 0.68274 0.0
C997 C 0.70876 0.27682 0.71229 0.0
H998 H 0.69659 0.32893 0.70568 0.0
H999 H 0.67558 0.27618 0.66994 0.0
C1000 C 0.63415 0.37439 0.63413 0.0
N1001 N 0.62572 0.41597 0.62308 0.0
C1002 C 0.64418 0.38355 0.61662 0.0
C1003 C 0.61971 0.38633 0.64592 0.0
C1004 C 0.6397 0.4046 0.6113 0.0
C1005 C 0.61572 0.40735 0.64013 0.0
C1006 C 0.70487 0.34109 0.65889 0.0
C1007 C 0.71381 0.3557 0.67297 0.0
C1008 C 0.71666 0.32357 0.65221 0.0
C1009 C 0.73439 0.3524 0.68033 0.0
C1010 C 0.73717 0.32081 0.65998 0.0
N1011 N 0.74553 0.33516 0.67376 0.0
C1012 C 0.65525 0.39536 0.68908 0.0
C1013 C 0.67415 0.4006 0.65707 0.0
C1014 C 0.6554 0.41714 0.69314 0.0
N1015 N 0.66399 0.38767 0.67098 0.0
C1016 C 0.67454 0.4225 0.6604 0.0
C1017 C 0.66458 0.43109 0.67837 0.0
H1018 H 0.64756 0.38468 0.70002 0.0
H1019 H 0.68105 0.39398 0.64285 0.0
C1020 C 0.64863 0.33095 0.59248 0.0
N1021 N 0.66623 0.33017 0.60478 0.0
C1022 C 0.65028 0.32946 0.57055 0.0
C1023 C 0.68822 0.32609 0.57427 0.0
C1024 C 0.68582 0.32772 0.59624 0.0
C1025 C 0.67028 0.32721 0.56115 0.0
H1026 H 0.63327 0.33289 0.59979 0.0
H1027 H 0.69954 0.32725 0.60644 0.0
O1028 O 0.64958 0.34015 0.68617 0.0
O1029 O 0.64998 0.30752 0.64964 0.0
O1030 O 0.63871 0.35398 0.63993 0.0
O1031 O 0.68467 0.34392 0.6517 0.0
H1032 H 0.65124 0.308 0.71322 0.0
H1033 H 0.61575 0.36333 0.6949 0.0
H1034 H 0.62519 0.3014 0.74185 0.0
H1035 H 0.59032 0.35573 0.72385 0.0
H1036 H 0.6775 0.26296 0.60021 0.0
H1037 H 0.6144 0.29865 0.62927 0.0
H1038 H 0.68134 0.28639 0.6316 0.0
H1039 H 0.61174 0.275 0.59795 0.0
H1040 H 0.5689 0.29399 0.68919 0.0
H1041 H 0.55831 0.33958 0.63916 0.0
H1042 H 0.7179 0.30569 0.72874 0.0
H1043 H 0.69614 0.2517 0.69237 0.0
H1044 H 0.65553 0.37461 0.60742 0.0
H1045 H 0.61186 0.3795 0.65955 0.0
H1046 H 0.64744 0.41193 0.59787 0.0
H1047 H 0.60473 0.41683 0.64922 0.0
H1048 H 0.70489 0.36934 0.67831 0.0
H1049 H 0.70994 0.31208 0.64138 0.0
H1050 H 0.74148 0.36352 0.69132 0.0
H1051 H 0.74641 0.30723 0.65509 0.0
H1052 H 0.64792 0.42302 0.70741 0.0
H1053 H 0.68163 0.43263 0.64848 0.0
H1054 H 0.63604 0.33008 0.56103 0.0
H1055 H 0.70392 0.32452 0.5676 0.0
Li1056 Li 0.66102 0.3617 0.33124 0.0
Li1057 Li 0.65916 0.33758 0.36165 0.0
Li1058 Li 0.6702 0.32594 0.327 0.0
Li1059 Li 0.63332 0.3352 0.33297 0.0
C1060 C 0.70462 0.33954 0.34635 0.0
N1061 N 0.74525 0.32344 0.34717 0.0
C1062 C 0.71135 0.3272 0.36346 0.0
C1063 C 0.71864 0.3439 0.32977 0.0
C1064 C 0.73194 0.31917 0.36356 0.0
C1065 C 0.73908 0.33554 0.33044 0.0
C1066 C 0.62202 0.36058 0.3667 0.0
C1067 C 0.5974 0.34415 0.39089 0.0
N1068 N 0.58921 0.36358 0.39545 0.0
C1069 C 0.61336 0.38037 0.3716 0.0
C1070 C 0.61398 0.34229 0.37639 0.0
C1071 C 0.59678 0.38156 0.38619 0.0
C1072 C 0.65003 0.40298 0.31851 0.0
N1073 N 0.66645 0.39045 0.32448 0.0
C1074 C 0.68997 0.42014 0.32481 0.0
C1075 C 0.68621 0.39845 0.32738 0.0
C1076 C 0.67319 0.43361 0.31924 0.0
C1077 C 0.6531 0.42473 0.31562 0.0
H1078 H 0.63442 0.39614 0.31665 0.0
H1079 H 0.6989 0.38811 0.33235 0.0
C1080 C 0.66144 0.31795 0.40232 0.0
N1081 N 0.66234 0.3365 0.39136 0.0
C1082 C 0.66238 0.31813 0.42444 0.0
C1083 C 0.66541 0.35642 0.42335 0.0
C1084 C 0.66454 0.35549 0.40132 0.0
C1085 C 0.66407 0.3376 0.43521 0.0
H1086 H 0.65962 0.30311 0.3939 0.0
H1087 H 0.66519 0.36994 0.39208 0.0
C1088 C 0.65215 0.35596 0.29136 0.0
N1089 N 0.65402 0.38409 0.25779 0.0
C1090 C 0.63364 0.36213 0.28098 0.0
C1091 C 0.67166 0.36379 0.28438 0.0
C1092 C 0.6349 0.37644 0.26411 0.0
C1093 C 0.67227 0.37809 0.26748 0.0
C1094 C 0.64413 0.29219 0.33882 0.0
C1095 C 0.64067 0.28955 0.31708 0.0
C1096 C 0.64201 0.27478 0.35239 0.0
C1097 C 0.63506 0.26954 0.30932 0.0
C1098 C 0.63635 0.25503 0.344 0.0
N1099 N 0.63303 0.25284 0.32283 0.0
C1100 C 0.69877 0.29155 0.32382 0.0
C1101 C 0.68981 0.30802 0.29125 0.0
C1102 C 0.71227 0.27747 0.31342 0.0
N1103 N 0.6882 0.30664 0.31266 0.0
C1104 C 0.70289 0.29412 0.2802 0.0
C1105 C 0.71441 0.27872 0.29133 0.0
H1106 H 0.69672 0.29049 0.34079 0.0
H1107 H 0.68088 0.31984 0.28273 0.0
C1108 C 0.59324 0.34878 0.32166 0.0
N1109 N 0.60388 0.33103 0.32757 0.0
C1110 C 0.57139 0.34817 0.31866 0.0
C1111 C 0.57172 0.31099 0.3281 0.0
C1112 C 0.59357 0.31236 0.331 0.0
C1113 C 0.56031 0.3291 0.32197 0.0
H1114 H 0.60172 0.3636 0.31979 0.0
H1115 H 0.60207 0.2986 0.33649 0.0
O1116 O 0.68441 0.34728 0.34582 0.0
O1117 O 0.63818 0.35921 0.35235 0.0
O1118 O 0.65123 0.34215 0.30809 0.0
O1119 O 0.65004 0.31151 0.34685 0.0
H1120 H 0.70076 0.32365 0.37643 0.0
H1121 H 0.71378 0.35352 0.31647 0.0
H1122 H 0.73732 0.30949 0.37664 0.0
H1123 H 0.75004 0.33866 0.31764 0.0
H1124 H 0.59102 0.33014 0.3985 0.0
H1125 H 0.61939 0.39465 0.36418 0.0
H1126 H 0.62043 0.32682 0.37274 0.0
H1127 H 0.58992 0.39678 0.39014 0.0
H1128 H 0.70569 0.42638 0.32764 0.0
H1129 H 0.63969 0.43463 0.31162 0.0
H1130 H 0.66112 0.3033 0.43304 0.0
H1131 H 0.66696 0.37173 0.43104 0.0
H1132 H 0.61846 0.35586 0.28577 0.0
H1133 H 0.68615 0.35906 0.29211 0.0
H1134 H 0.62067 0.38143 0.256 0.0
H1135 H 0.68725 0.38443 0.26208 0.0
H1136 H 0.64221 0.30276 0.30628 0.0
H1137 H 0.6447 0.2765 0.36923 0.0
H1138 H 0.63232 0.26729 0.29255 0.0
H1139 H 0.63462 0.24143 0.35434 0.0
H1140 H 0.72072 0.26561 0.32248 0.0
H1141 H 0.70422 0.2956 0.26315 0.0
H1142 H 0.5632 0.36265 0.31445 0.0
H1143 H 0.56383 0.29596 0.33082 0.0
Li1144 Li 0.66377 0.65743 0.35622 0.0
Li1145 Li 0.65969 0.63169 0.32605 0.0
Li1146 Li 0.67276 0.66905 0.32163 0.0
Li1147 Li 0.63711 0.66311 0.32938 0.0
C1148 C 0.70085 0.63858 0.35181 0.0
N1149 N 0.72993 0.62502 0.38157 0.0
C1150 C 0.70521 0.61694 0.35409 0.0
C1151 C 0.71152 0.65332 0.3645 0.0
C1152 C 0.7199 0.6104 0.36926 0.0
C1153 C 0.72608 0.64615 0.37952 0.0
C1154 C 0.62075 0.63572 0.35788 0.0
C1155 C 0.58745 0.61713 0.36019 0.0
N1156 N 0.58091 0.63111 0.37525 0.0
C1157 C 0.61376 0.64985 0.37345 0.0
C1158 C 0.60756 0.61919 0.35122 0.0
C1159 C 0.59353 0.64727 0.38201 0.0
C1160 C 0.66731 0.67558 0.39738 0.0
N1161 N 0.66813 0.65735 0.3859 0.0
C1162 C 0.67073 0.63656 0.41738 0.0
C1163 C 0.66986 0.63807 0.39538 0.0
C1164 C 0.66951 0.65507 0.42973 0.0
C1165 C 0.66813 0.67482 0.41948 0.0
H1166 H 0.66517 0.69063 0.38946 0.0
H1167 H 0.66999 0.62382 0.38581 0.0
C1168 C 0.66907 0.59575 0.30005 0.0
N1169 N 0.66187 0.60261 0.31916 0.0
C1170 C 0.67084 0.574 0.29599 0.0
C1171 C 0.65836 0.56702 0.33157 0.0
C1172 C 0.65654 0.5888 0.33481 0.0
C1173 C 0.6656 0.5594 0.31198 0.0
H1174 H 0.67342 0.60718 0.28801 0.0
H1175 H 0.65115 0.59478 0.34994 0.0
C1176 C 0.6631 0.70431 0.3389 0.0
N1177 N 0.67951 0.74388 0.32928 0.0
C1178 C 0.65378 0.71674 0.32311 0.0
C1179 C 0.68068 0.71209 0.3499 0.0
C1180 C 0.66234 0.73667 0.31846 0.0
C1181 C 0.68876 0.73212 0.34479 0.0
C1182 C 0.63644 0.65261 0.28883 0.0
C1183 C 0.62856 0.67172 0.28078 0.0
C1184 C 0.62797 0.63337 0.28168 0.0
C1185 C 0.61229 0.67125 0.26581 0.0
C1186 C 0.61174 0.63357 0.26665 0.0
N1187 N 0.60429 0.65234 0.2591 0.0
C1188 C 0.71173 0.68999 0.31395 0.0
C1189 C 0.68637 0.69299 0.28646 0.0
C1190 C 0.72593 0.70273 0.30274 0.0
N1191 N 0.69232 0.68559 0.30577 0.0
C1192 C 0.70004 0.70576 0.27471 0.0
C1193 C 0.72007 0.71087 0.28289 0.0
H1194 H 0.71609 0.68385 0.32929 0.0
H1195 H 0.671 0.68901 0.2802 0.0
C1196 C 0.60265 0.6908 0.33559 0.0
N1197 N 0.60828 0.67193 0.32679 0.0
C1198 C 0.58144 0.69688 0.33624 0.0
C1199 C 0.5722 0.66406 0.31862 0.0
C1200 C 0.59355 0.65858 0.31843 0.0
C1201 C 0.5659 0.68333 0.32783 0.0
H1202 H 0.61453 0.70082 0.34279 0.0
H1203 H 0.59825 0.64327 0.31236 0.0
O1204 O 0.68633 0.64526 0.33716 0.0
O1205 O 0.64025 0.63834 0.34888 0.0
O1206 O 0.65529 0.68448 0.34325 0.0
O1207 O 0.65242 0.65271 0.3035 0.0
H1208 H 0.6974 0.6053 0.34423 0.0
H1209 H 0.70828 0.6701 0.36311 0.0
H1210 H 0.72336 0.5937 0.37123 0.0
H1211 H 0.73426 0.65739 0.38958 0.0
H1212 H 0.57701 0.60449 0.3551 0.0
H1213 H 0.62372 0.66285 0.37863 0.0
H1214 H 0.61269 0.60824 0.33904 0.0
H1215 H 0.58785 0.65816 0.39396 0.0
H1216 H 0.67192 0.62104 0.42467 0.0
H1217 H 0.66673 0.68942 0.42843 0.0
H1218 H 0.6766 0.56864 0.28074 0.0
H1219 H 0.65403 0.55622 0.34421 0.0
H1220 H 0.64019 0.71101 0.31442 0.0
H1221 H 0.68824 0.70267 0.36202 0.0
H1222 H 0.65535 0.74639 0.30619 0.0
H1223 H 0.70245 0.73825 0.35307 0.0
H1224 H 0.63469 0.68678 0.28624 0.0
H1225 H 0.63362 0.61843 0.28783 0.0
H1226 H 0.60598 0.68592 0.25956 0.0
H1227 H 0.605 0.61879 0.26106 0.0
H1228 H 0.74117 0.70641 0.30968 0.0
H1229 H 0.69506 0.71138 0.25929 0.0
H1230 H 0.57721 0.71184 0.34354 0.0
H1231 H 0.56068 0.6529 0.31246 0.0
Li1232 Li 0.33973 0.66922 0.36276 0.0
Li1233 Li 0.34505 0.64076 0.33674 0.0
Li1234 Li 0.36901 0.67113 0.33852 0.0
Li1235 Li 0.33304 0.67486 0.32519 0.0
C1236 C 0.36735 0.64298 0.3805 0.0
N1237 N 0.37262 0.63056 0.42217 0.0
C1238 C 0.3611 0.62268 0.38697 0.0
C1239 C 0.37636 0.65692 0.39522 0.0
C1240 C 0.36391 0.6167 0.4081 0.0
C1241 C 0.37884 0.65037 0.41622 0.0
C1242 C 0.29764 0.65765 0.34032 0.0
C1243 C 0.26784 0.65363 0.31679 0.0
N1244 N 0.25566 0.66485 0.33056 0.0
C1245 C 0.28481 0.66903 0.35431 0.0
C1246 C 0.28908 0.64974 0.32147 0.0
C1247 C 0.26362 0.67253 0.34907 0.0
C1248 C 0.33237 0.69542 0.39844 0.0
N1249 N 0.33057 0.67537 0.39069 0.0
C1250 C 0.31922 0.66243 0.42435 0.0
C1251 C 0.32339 0.65915 0.40291 0.0
C1252 C 0.32182 0.68281 0.43318 0.0
C1253 C 0.32789 0.69955 0.4197 0.0
H1254 H 0.33772 0.7081 0.38822 0.0
H1255 H 0.32179 0.64343 0.39619 0.0
C1256 C 0.36314 0.60066 0.33267 0.0
N1257 N 0.34429 0.61097 0.33269 0.0
C1258 C 0.36377 0.57858 0.3316 0.0
C1259 C 0.32553 0.57809 0.33031 0.0
C1260 C 0.32565 0.60025 0.33134 0.0
C1261 C 0.34479 0.56696 0.33081 0.0
H1262 H 0.37768 0.60963 0.33409 0.0
H1263 H 0.31089 0.60886 0.33171 0.0
C1264 C 0.36061 0.71116 0.34307 0.0
N1265 N 0.38732 0.74551 0.33764 0.0
C1266 C 0.36008 0.72283 0.32425 0.0
C1267 C 0.37464 0.71702 0.35918 0.0
C1268 C 0.37372 0.74014 0.32181 0.0
C1269 C 0.38805 0.73441 0.35611 0.0
C1270 C 0.36174 0.64294 0.29879 0.0
C1271 C 0.38284 0.63655 0.29711 0.0
C1272 C 0.34629 0.63307 0.28636 0.0
C1273 C 0.3881 0.62022 0.28309 0.0
C1274 C 0.35219 0.61678 0.27255 0.0
N1275 N 0.37279 0.61074 0.27122 0.0
C1276 C 0.41202 0.67325 0.34944 0.0
C1277 C 0.40366 0.68914 0.31645 0.0
C1278 C 0.43349 0.67704 0.34623 0.0
N1279 N 0.39766 0.67919 0.3346 0.0
C1280 C 0.42504 0.69319 0.31253 0.0
C1281 C 0.44028 0.68687 0.32744 0.0
H1282 H 0.4069 0.66489 0.36344 0.0
H1283 H 0.39188 0.69337 0.30477 0.0
C1284 C 0.30095 0.70319 0.31356 0.0
N1285 N 0.31603 0.68998 0.30577 0.0
C1286 C 0.28845 0.71507 0.2998 0.0
C1287 C 0.30799 0.70034 0.2703 0.0
C1288 C 0.31983 0.68839 0.28463 0.0
C1289 C 0.29204 0.71378 0.27792 0.0
H1290 H 0.2988 0.70465 0.33049 0.0
H1291 H 0.33226 0.6781 0.27894 0.0
O1292 O 0.36448 0.64924 0.35993 0.0
O1293 O 0.31846 0.65426 0.34507 0.0
O1294 O 0.34772 0.69389 0.3456 0.0
O1295 O 0.3562 0.65863 0.31269 0.0
H1296 H 0.35394 0.61171 0.3759 0.0
H1297 H 0.38104 0.67278 0.39058 0.0
H1298 H 0.35907 0.60108 0.41334 0.0
H1299 H 0.38562 0.66106 0.4278 0.0
H1300 H 0.26105 0.64774 0.30219 0.0
H1301 H 0.29117 0.67524 0.36898 0.0
H1302 H 0.2988 0.64091 0.31048 0.0
H1303 H 0.25353 0.68141 0.35969 0.0
H1304 H 0.3149 0.64889 0.43398 0.0
H1305 H 0.32957 0.71563 0.42554 0.0
H1306 H 0.37897 0.57067 0.33178 0.0
H1307 H 0.31053 0.56975 0.33 0.0
H1308 H 0.34939 0.71847 0.31159 0.0
H1309 H 0.37533 0.70808 0.3738 0.0
H1310 H 0.37355 0.74927 0.30729 0.0
H1311 H 0.39907 0.73904 0.36838 0.0
H1312 H 0.39498 0.64392 0.3067 0.0
H1313 H 0.3299 0.63782 0.28749 0.0
H1314 H 0.40434 0.61503 0.2817 0.0
H1315 H 0.34038 0.60892 0.26292 0.0
H1316 H 0.44472 0.67148 0.35793 0.0
H1317 H 0.42963 0.70084 0.29786 0.0
H1318 H 0.27647 0.72556 0.30619 0.0
H1319 H 0.31118 0.69907 0.25349 0.0
Li1320 Li 0.33659 0.36783 0.33944 0.0
Li1321 Li 0.33395 0.3405 0.36686 0.0
Li1322 Li 0.36256 0.33848 0.3394 0.0
Li1323 Li 0.32575 0.33029 0.33122 0.0
C1324 C 0.37126 0.37629 0.36703 0.0
N1325 N 0.39899 0.40839 0.37834 0.0
C1326 C 0.36955 0.38612 0.38682 0.0
C1327 C 0.38737 0.38254 0.35319 0.0
C1328 C 0.38362 0.40239 0.39219 0.0
C1329 C 0.40116 0.39884 0.35914 0.0
C1330 C 0.29469 0.35418 0.36284 0.0
C1331 C 0.26871 0.33877 0.38625 0.0
N1332 N 0.26254 0.35858 0.39217 0.0
C1333 C 0.28797 0.37439 0.36899 0.0
C1334 C 0.28486 0.33622 0.37137 0.0
C1335 C 0.27173 0.37628 0.3839 0.0
C1336 C 0.33026 0.40515 0.3144 0.0
N1337 N 0.33273 0.39727 0.33431 0.0
C1338 C 0.3319 0.43216 0.34902 0.0
C1339 C 0.33301 0.41023 0.3515 0.0
C1340 C 0.33037 0.44088 0.3286 0.0
C1341 C 0.32911 0.42708 0.31115 0.0
H1342 H 0.32962 0.39444 0.30102 0.0
H1343 H 0.33417 0.4035 0.36719 0.0
C1344 C 0.33128 0.31722 0.40513 0.0
N1345 N 0.3284 0.33659 0.39611 0.0
C1346 C 0.32906 0.31472 0.427 0.0
C1347 C 0.32051 0.35203 0.42972 0.0
C1348 C 0.32288 0.3538 0.40784 0.0
C1349 C 0.324 0.33238 0.43961 0.0
H1350 H 0.33592 0.30387 0.39543 0.0
H1351 H 0.3208 0.36903 0.40024 0.0
C1352 C 0.35688 0.35384 0.29744 0.0
N1353 N 0.3802 0.36286 0.26145 0.0
C1354 C 0.35603 0.34027 0.27992 0.0
C1355 C 0.36931 0.3722 0.29646 0.0
C1356 C 0.36801 0.34504 0.26193 0.0
C1357 C 0.38105 0.37643 0.27819 0.0
C1358 C 0.34243 0.29441 0.34669 0.0
C1359 C 0.35775 0.28395 0.33462 0.0
C1360 C 0.32463 0.28328 0.35374 0.0
C1361 C 0.35481 0.26255 0.32953 0.0
C1362 C 0.32225 0.2619 0.34828 0.0
N1363 N 0.33726 0.25207 0.33638 0.0
C1364 C 0.40294 0.33117 0.35416 0.0
C1365 C 0.40083 0.32735 0.31686 0.0
C1366 C 0.42463 0.32732 0.35374 0.0
N1367 N 0.3916 0.33148 0.33588 0.0
C1368 C 0.42255 0.32341 0.3157 0.0
C1369 C 0.43476 0.32358 0.3343 0.0
H1370 H 0.39513 0.33433 0.36907 0.0
H1371 H 0.39146 0.32711 0.3026 0.0
C1372 C 0.28655 0.31505 0.31635 0.0
N1373 N 0.30785 0.3129 0.31439 0.0
C1374 C 0.27294 0.30188 0.30491 0.0
C1375 C 0.30344 0.28483 0.28931 0.0
C1376 C 0.31644 0.29831 0.30108 0.0
C1377 C 0.28137 0.28647 0.29125 0.0
H1378 H 0.28012 0.32696 0.32682 0.0
H1379 H 0.33342 0.29692 0.29981 0.0
O1380 O 0.35754 0.36033 0.36153 0.0
O1381 O 0.31076 0.35201 0.34847 0.0
O1382 O 0.34524 0.34935 0.3152 0.0
O1383 O 0.34494 0.31541 0.35165 0.0
H1384 H 0.35742 0.38134 0.39791 0.0
H1385 H 0.38945 0.3747 0.33814 0.0
H1386 H 0.38234 0.41024 0.40739 0.0
H1387 H 0.41365 0.40383 0.34852 0.0
H1388 H 0.26108 0.32499 0.3931 0.0
H1389 H 0.2952 0.38846 0.36237 0.0
H1390 H 0.28978 0.32048 0.36668 0.0
H1391 H 0.26645 0.39182 0.38889 0.0
H1392 H 0.33233 0.4422 0.36295 0.0
H1393 H 0.32789 0.43316 0.29515 0.0
H1394 H 0.33212 0.29934 0.43404 0.0
H1395 H 0.31634 0.36598 0.43884 0.0
H1396 H 0.34629 0.32617 0.28019 0.0
H1397 H 0.3697 0.38325 0.30953 0.0
H1398 H 0.36759 0.33459 0.24833 0.0
H1399 H 0.39077 0.39056 0.27729 0.0
H1400 H 0.37165 0.29229 0.32908 0.0
H1401 H 0.31271 0.29107 0.36323 0.0
H1402 H 0.36647 0.25428 0.32009 0.0
H1403 H 0.30847 0.25313 0.35351 0.0
H1404 H 0.43344 0.32784 0.36844 0.0
H1405 H 0.42968 0.32024 0.30042 0.0
H1406 H 0.25601 0.30387 0.3066 0.0
H1407 H 0.31058 0.27302 0.27911 0.0
H1408 H 0.28491 0.27494 0.24993 0.0
H1409 H 0.24609 0.26588 0.30545 0.0
H1410 H 0.22267 0.2423 0.28553 0.0
H1411 H 0.21319 0.22437 0.25235 0.0
H1412 H 0.25222 0.23304 0.19693 0.0
H1413 H 0.27566 0.25666 0.21683 0.0
C1414 C 0.27143 0.26764 0.25771 0.0
C1415 C 0.26724 0.27214 0.27912 0.0
C1416 C 0.25808 0.25408 0.24619 0.0
C1417 C 0.24951 0.26286 0.28891 0.0
C1418 C 0.23619 0.24929 0.27757 0.0
C1419 C 0.22696 0.23126 0.2447 0.0
C1420 C 0.231 0.22695 0.22324 0.0
C1421 C 0.24033 0.2448 0.25622 0.0
C1422 C 0.24867 0.23629 0.2134 0.0
C1423 C 0.26211 0.24971 0.22479 0.0
H1424 H 0.70559 0.25606 0.25597 0.0
H1425 H 0.75527 0.26905 0.301 0.0
H1426 H 0.77979 0.24714 0.28049 0.0
H1427 H 0.78745 0.22577 0.24879 0.0
H1428 H 0.73768 0.21279 0.20384 0.0
H1429 H 0.71273 0.23316 0.22533 0.0
C1430 C 0.72179 0.25405 0.26126 0.0
C1431 C 0.72872 0.26423 0.27981 0.0
C1432 C 0.73573 0.2415 0.24941 0.0
C1433 C 0.74961 0.26125 0.28678 0.0
C1434 C 0.76363 0.24884 0.27502 0.0
C1435 C 0.77113 0.22744 0.24375 0.0
C1436 C 0.76439 0.21799 0.22474 0.0
C1437 C 0.75693 0.23914 0.25616 0.0
C1438 C 0.74315 0.21988 0.2185 0.0
C1439 C 0.72894 0.23159 0.2307 0.0
H1440 H 0.79262 0.7571 0.23198 0.0
H1441 H 0.7404 0.79757 0.21462 0.0
H1442 H 0.71673 0.77696 0.23729 0.0
H1443 H 0.71065 0.74675 0.26105 0.0
H1444 H 0.76257 0.70545 0.27728 0.0
H1445 H 0.78662 0.72714 0.25605 0.0
C1446 C 0.77603 0.76132 0.23306 0.0
C1447 C 0.76826 0.77876 0.22155 0.0
C1448 C 0.76247 0.74927 0.2459 0.0
C1449 C 0.74682 0.78433 0.22346 0.0
C1450 C 0.73325 0.77247 0.2363 0.0
C1451 C 0.7272 0.74242 0.25982 0.0
C1452 C 0.73479 0.72446 0.27062 0.0
C1453 C 0.74087 0.7548 0.24742 0.0
C1454 C 0.75637 0.7193 0.26926 0.0
C1455 C 0.7701 0.73162 0.25703 0.0
H1456 H 0.24946 0.71529 0.27485 0.0
H1457 H 0.30667 0.74138 0.24824 0.0
H1458 H 0.28584 0.76435 0.22493 0.0
H1459 H 0.25125 0.7774 0.21265 0.0
H1460 H 0.19407 0.74989 0.23785 0.0
H1461 H 0.2149 0.72701 0.26128 0.0
C1462 C 0.25727 0.72602 0.2639 0.0
C1463 C 0.27945 0.72683 0.26322 0.0
C1464 C 0.24522 0.73888 0.25041 0.0
C1465 C 0.28956 0.74052 0.24887 0.0
C1466 C 0.27769 0.75367 0.23565 0.0
C1467 C 0.24345 0.76637 0.22332 0.0
C1468 C 0.22129 0.7653 0.22377 0.0
C1469 C 0.25552 0.75306 0.23637 0.0
C1470 C 0.21118 0.75085 0.23735 0.0
C1471 C 0.22305 0.73785 0.25072 0.0
H1472 H 0.26786 0.74527 0.71076 0.0
H1473 H 0.25504 0.68912 0.74774 0.0
H1474 H 0.23211 0.70961 0.77129 0.0
H1475 H 0.21518 0.74326 0.78079 0.0
H1476 H 0.22926 0.79977 0.74464 0.0
H1477 H 0.25181 0.77921 0.721 0.0
C1478 C 0.25995 0.73755 0.72394 0.0
C1479 C 0.26303 0.71577 0.72753 0.0
C1480 C 0.24691 0.74942 0.73742 0.0
C1481 C 0.25299 0.70594 0.7448 0.0
C1482 C 0.23983 0.71761 0.75818 0.0
C1483 C 0.22338 0.75117 0.76792 0.0
C1484 C 0.22041 0.77303 0.76448 0.0
C1485 C 0.23665 0.73935 0.75461 0.0
C1486 C 0.23091 0.7829 0.74746 0.0
C1487 C 0.24396 0.77119 0.73401 0.0
H1488 H 0.20687 0.23161 0.75348 0.0
H1489 H 0.25803 0.21269 0.79452 0.0
H1490 H 0.28312 0.23278 0.7729 0.0
H1491 H 0.29035 0.25618 0.74279 0.0
H1492 H 0.23939 0.27522 0.70158 0.0
H1493 H 0.21433 0.2544 0.72266 0.0
C1494 C 0.2235 0.23202 0.75769 0.0
C1495 C 0.23064 0.22083 0.77555 0.0
C1496 C 0.23782 0.24349 0.74514 0.0
C1497 C 0.25225 0.22113 0.78074 0.0
C1498 C 0.26656 0.23263 0.76844 0.0
C1499 C 0.27374 0.2558 0.73849 0.0
C1500 C 0.26665 0.26728 0.7208 0.0
C1501 C 0.2595 0.24392 0.75068 0.0
C1502 C 0.24519 0.26637 0.71509 0.0
C1503 C 0.23086 0.25461 0.7272 0.0
H1504 H 0.74841 0.20758 0.77249 0.0
H1505 H 0.80326 0.24765 0.76471 0.0
H1506 H 0.78301 0.27164 0.742 0.0
H1507 H 0.74971 0.28106 0.72423 0.0
H1508 H 0.69514 0.24046 0.73128 0.0
H1509 H 0.71525 0.21676 0.7544 0.0
C1510 C 0.75583 0.22166 0.76591 0.0
C1511 C 0.77721 0.22594 0.77027 0.0
C1512 C 0.74418 0.2352 0.75272 0.0
C1513 C 0.78682 0.24402 0.76143 0.0
C1514 C 0.77526 0.25774 0.74853 0.0
C1515 C 0.74224 0.26707 0.73096 0.0
C1516 C 0.72102 0.26248 0.72616 0.0
C1517 C 0.75394 0.25347 0.74405 0.0
C1518 C 0.71153 0.24418 0.73467 0.0
C1519 C 0.72298 0.23071 0.74793 0.0
H1520 H 0.73784 0.77811 0.77117 0.0
H1521 H 0.79432 0.74535 0.75141 0.0
H1522 H 0.77335 0.72255 0.72799 0.0
H1523 H 0.73893 0.71196 0.71329 0.0
H1524 H 0.68225 0.74363 0.73415 0.0
H1525 H 0.70327 0.76693 0.75707 0.0
C1526 C 0.74549 0.76602 0.76163 0.0
C1527 C 0.7675 0.76337 0.76284 0.0
C1528 C 0.73332 0.75284 0.74849 0.0
C1529 C 0.77733 0.74752 0.75072 0.0
C1530 C 0.76539 0.73457 0.73732 0.0
C1531 C 0.73126 0.72406 0.7228 0.0
C1532 C 0.70919 0.72626 0.72204 0.0
C1533 C 0.74339 0.7371 0.7361 0.0
C1534 C 0.69927 0.7417 0.73461 0.0
C1535 C 0.71126 0.75501 0.74764 0.0
H1536 H 0.17186 0.19395 0.96942 0.0
H1537 H 0.17639 0.12572 0.9646 0.0
H1538 H 0.17528 0.12263 0.00305 0.0
H1539 H 0.17135 0.13903 0.03794 0.0
H1540 H 0.16602 0.20708 0.04324 0.0
H1541 H 0.16921 0.21056 0.00472 0.0
C1542 C 0.17261 0.17843 0.97682 0.0
C1543 C 0.17422 0.16011 0.96416 0.0
C1544 C 0.17176 0.17673 -0.001 0.0
C1545 C 0.17545 0.1401 0.97397 0.0
C1546 C 0.17465 0.13829 0.99596 0.0
C1547 C 0.17083 0.15462 0.03063 0.0
C1548 C 0.16824 0.17275 0.04332 0.0
C1549 C 0.17255 0.15646 0.00859 0.0
C1550 C 0.16806 0.1929 0.03376 0.0
C1551 C 0.16978 0.19487 0.01176 0.0
H1552 H 0.84114 0.19553 0.95973 0.0
H1553 H 0.79231 0.14766 0.96134 0.0
H1554 H 0.79069 0.1502 -2e-05 0.0
H1555 H 0.80545 0.16365 0.03331 0.0
H1556 H 0.85572 0.21003 0.03197 0.0
H1557 H 0.8545 0.21058 0.9932 0.0
C1558 C 0.82988 0.186 0.96858 0.0
C1559 C 0.81685 0.17145 0.95784 0.0
C1560 C 0.82947 0.18714 0.99079 0.0
C1561 C 0.80253 0.1589 0.96939 0.0
C1562 C 0.80163 0.16033 0.99143 0.0
C1563 C 0.81583 0.17419 0.02452 0.0
C1564 C 0.83064 0.18678 0.03541 0.0
C1565 C 0.81535 0.17405 0.00231 0.0
C1566 C 0.84429 0.20009 0.02386 0.0
C1567 C 0.84357 0.20042 0.00174 0.0
H1568 H 0.79771 0.82785 0.95629 0.0
H1569 H 0.8588 0.79748 0.95239 0.0
H1570 H 0.86115 0.79682 0.99092 0.0
H1571 H 0.84713 0.80729 0.02561 0.0
H1572 H 0.78566 0.8364 0.02988 0.0
H1573 H 0.78189 0.83462 0.99124 0.0
C1574 C 0.81134 0.82065 0.96383 0.0
C1575 C 0.82822 0.81309 0.9514 0.0
C1576 C 0.81253 0.82014 0.98604 0.0
C1577 C 0.84581 0.80395 0.96153 0.0
C1578 C 0.84714 0.80344 0.98357 0.0
C1579 C 0.83285 0.81304 0.01802 0.0
C1580 C 0.81679 0.82216 0.03036 0.0
C1581 C 0.83084 0.81195 0.99595 0.0
C1582 C 0.79819 0.82931 0.02056 0.0
C1583 C 0.7961 0.82839 -0.00147 0.0
H1584 H 0.15202 0.80123 0.02922 0.0
H1585 H 0.20248 0.84702 0.03589 0.0
H1586 H 0.20684 0.84817 -0.00252 0.0
H1587 H 0.19475 0.83797 0.96194 0.0
H1588 H 0.1432 0.79341 0.95527 0.0
H1589 H 0.14097 0.78985 0.9937 0.0
C1590 C 0.16396 0.81146 0.02225 0.0
C1591 C 0.17681 0.8241 0.03539 0.0
C1592 C 0.16619 0.81228 0.00015 0.0
C1593 C 0.1925 0.83698 0.02616 0.0
C1594 C 0.19491 0.83776 0.00418 0.0
C1595 C 0.18304 0.82747 0.9689 0.0
C1596 C 0.16911 0.81606 0.95574 0.0
C1597 C 0.1816 0.82576 0.99102 0.0
C1598 C 0.15427 0.80222 0.965 0.0
C1599 C 0.15286 0.80029 0.98699 0.0
H1600 H 0.03115 0.14731 0.1929 0.0
H1601 H 0.03839 0.21356 0.17692 0.0
H1602 H -4e-05 0.21769 0.17601 0.0
H1603 H 0.96439 0.20187 0.17757 0.0
H1604 H 0.95749 0.13544 0.19297 0.0
H1605 H 0.99571 0.13219 0.197 0.0
C1606 C 0.02436 0.16278 0.18968 0.0
C1607 C 0.03764 0.18007 0.18487 0.0
C1608 C 0.0023 0.16501 0.18909 0.0
C1609 C 0.02852 0.19992 0.18037 0.0
C1610 C 0.00656 0.2023 0.17992 0.0
C1611 C 0.97127 0.18671 0.18188 0.0
C1612 C 0.95811 0.16891 0.18487 0.0
C1613 C 0.99331 0.18485 0.18383 0.0
C1614 C 0.96722 0.14945 0.19079 0.0
C1615 C 0.9891 0.14752 0.19293 0.0
H1616 H 0.8104 0.96512 0.17525 0.0
H1617 H 0.87324 0.9608 0.14895 0.0
H1618 H 0.87562 -0.00051 0.1474 0.0
H1619 H 0.85937 0.03434 0.15221 0.0
H1620 H 0.79694 0.03896 0.17959 0.0
H1621 H 0.79468 0.00031 0.18152 0.0
C1622 C 0.82459 0.9727 0.16919 0.0
C1623 C 0.84162 0.96018 0.16226 0.0
C1624 C 0.82585 0.99495 0.16833 0.0
C1625 C 0.86002 0.97014 0.15463 0.0
C1626 C 0.86134 0.99223 0.1536 0.0
C1627 C 0.84538 0.02697 0.15893 0.0
C1628 C 0.82834 0.03962 0.16568 0.0
C1629 C 0.84431 0.00477 0.16031 0.0
C1630 C 0.81017 0.02966 0.17394 0.0
C1631 C 0.80892 0.00754 0.1752 0.0
H1632 H 0.96204 0.82696 0.18459 0.0
H1633 H 0.95892 0.79319 0.12509 0.0
H1634 H -0.00257 0.79147 0.12386 0.0
H1635 H 0.03205 0.80162 0.13854 0.0
H1636 H 0.03517 0.83402 0.19862 0.0
H1637 H 0.99652 0.83368 0.20109 0.0
C1638 C 0.9697 0.81877 0.17158 0.0
C1639 C 0.95752 0.8105 0.15481 0.0
C1640 C 0.99186 0.81763 0.17106 0.0
C1641 C 0.96786 0.80017 0.13797 0.0
C1642 C 0.9899 0.79907 0.1373 0.0
C1643 C 0.0242 0.80844 0.15222 0.0
C1644 C 0.03629 0.818 0.16828 0.0
C1645 C 0.00205 0.80815 0.15352 0.0
C1646 C 0.02609 0.82654 0.1861 0.0
C1647 C 0.00404 0.82644 0.18745 0.0
H1648 H 0.15327 0.02882 0.19852 0.0
H1649 H 0.19702 0.03751 0.14662 0.0
H1650 H 0.20107 -0.00077 0.14346 0.0
H1651 H 0.19065 0.96327 0.15387 0.0
H1652 H 0.14395 0.95461 0.20311 0.0
H1653 H 0.14273 0.99283 0.20884 0.0
C1654 C 0.16359 0.0224 0.1864 0.0
C1655 C 0.17476 0.0362 0.17283 0.0
C1656 C 0.16533 0.0003 0.18414 0.0
C1657 C 0.18845 0.02744 0.15757 0.0
C1658 C 0.19063 0.00548 0.15558 0.0
C1659 C 0.18006 0.96969 0.16576 0.0
C1660 C 0.16737 0.95594 0.17795 0.0
C1661 C 0.17889 0.99176 0.16854 0.0
C1662 C 0.15416 0.96466 0.19365 0.0
C1663 C 0.15329 0.98659 0.19683 0.0
H1664 H 0.95782 0.85026 0.8459 0.0
H1665 H 0.95423 0.80574 0.79406 0.0
H1666 H 0.99286 0.80338 0.79319 0.0
H1667 H 0.02767 0.81384 0.80744 0.0
H1668 H 0.03089 0.85834 0.85933 0.0
H1669 H 0.99236 0.86071 0.86003 0.0
C1670 C 0.9655 0.83991 0.83452 0.0
C1671 C 0.95322 0.82812 0.82014 0.0
C1672 C 0.98762 0.83862 0.83415 0.0
C1673 C 0.96337 0.81511 0.80519 0.0
C1674 C 0.98543 0.81366 0.80477 0.0
C1675 C 0.01988 0.82392 0.81897 0.0
C1676 C 0.03206 0.8359 0.8333 0.0
C1677 C -0.00229 0.82529 0.81922 0.0
C1678 C 0.02183 0.84913 0.84801 0.0
C1679 C -0.00018 0.85044 0.84847 0.0
H1680 H 0.19468 0.96149 0.83508 0.0
H1681 H 0.13519 0.95953 0.8015 0.0
H1682 H 0.1351 -0.00183 0.79913 0.0
H1683 H 0.15045 0.03242 0.809 0.0
H1684 H 0.21067 0.03457 0.84122 0.0
H1685 H 0.21197 0.99583 0.84155 0.0
C1686 C 0.18191 0.96946 0.82686 0.0
C1687 C 0.16483 0.95762 0.81876 0.0
C1688 C 0.18198 0.9917 0.82544 0.0
C1689 C 0.1483 0.96828 0.80832 0.0
C1690 C 0.14828 0.99037 0.80685 0.0
C1691 C 0.16413 0.02448 0.81564 0.0
C1692 C 0.18034 0.03643 0.82523 0.0
C1693 C 0.16483 0.00224 0.81572 0.0
C1694 C 0.19776 0.02577 0.83408 0.0
C1695 C 0.19857 0.00362 0.8342 0.0
H1696 H 0.0328 0.13371 0.83318 0.0
H1697 H 0.03846 0.20146 0.82479 0.0
H1698 H -8e-05 0.20459 0.82294 0.0
H1699 H 0.96457 0.18811 0.82503 0.0
H1700 H 0.95934 0.12039 0.8343 0.0
H1701 H -0.00223 0.11722 0.83448 0.0
C1702 C 0.02559 0.14917 0.83105 0.0
C1703 C 0.03843 0.16733 0.8293 0.0
C1704 C 0.00351 0.15086 0.83016 0.0
C1705 C 0.0289 0.18722 0.82606 0.0
C1706 C 0.00688 0.18903 0.82513 0.0
C1707 C 0.97188 0.17269 0.82714 0.0
C1708 C 0.95912 0.15453 0.82963 0.0
C1709 C 0.99403 0.17098 0.82738 0.0
C1710 C 0.96879 0.13459 0.83208 0.0
C1711 C 0.99076 0.13277 0.83232 0.0
H1712 H 0.83384 0.95807 0.8469 0.0
H1713 H 0.79186 0.95473 0.79313 0.0
H1714 H 0.79238 0.99353 0.79019 0.0
H1715 H 0.8054 0.02842 0.80272 0.0
H1716 H 0.8472 0.03096 0.85675 0.0
H1717 H 0.846 0.99244 0.85983 0.0
C1718 C 0.82452 0.96583 0.83473 0.0
C1719 C 0.8127 0.95357 0.82036 0.0
C1720 C 0.82497 0.98799 0.83311 0.0
C1721 C 0.80116 0.96384 0.80434 0.0
C1722 C 0.80141 0.986 0.80269 0.0
C1723 C 0.8141 0.0205 0.81523 0.0
C1724 C 0.82653 0.03251 0.82934 0.0
C1725 C 0.81335 -0.00175 0.81695 0.0
C1726 C 0.83783 0.02206 0.84543 0.0
C1727 C 0.83706 4e-05 0.8473 0.0
H1728 H 0.68941 0.6799 0.45906 0.0
H1729 H 0.6461 0.62716 0.45288 0.0
H1730 H 0.64225 0.62545 0.49125 0.0
H1731 H 0.65027 0.63947 0.52644 0.0
H1732 H 0.69305 0.69249 0.53315 0.0
H1733 H 0.69809 0.69354 0.49468 0.0
C1734 C 0.67912 0.66807 0.46615 0.0
C1735 C 0.6681 0.65366 0.45314 0.0
C1736 C 0.67684 0.66726 0.48827 0.0
C1737 C 0.655 0.63824 0.46254 0.0
C1738 C 0.65265 0.63734 0.48447 0.0
C1739 C 0.66059 0.65135 0.51946 0.0
C1740 C 0.6711 0.66602 0.53254 0.0
C1741 C 0.66335 0.65186 0.49745 0.0
C1742 C 0.68483 0.681 0.52337 0.0
C1743 C 0.68763 0.68166 0.5014 0.0
H1744 H 0.33036 0.70053 0.53119 0.0
H1745 H 0.28452 0.64953 0.53324 0.0
H1746 H 0.28181 0.6502 0.49483 0.0
H1747 H 0.29459 0.66295 0.46055 0.0
H1748 H 0.34435 0.71011 0.45858 0.0
H1749 H 0.34317 0.71326 0.49692 0.0
C1750 C 0.31987 0.68941 0.52332 0.0
C1751 C 0.3078 0.67493 0.53531 0.0
C1752 C 0.31908 0.68913 0.5011 0.0
C1753 C 0.29383 0.66113 0.52465 0.0
C1754 C 0.29241 0.6613 0.50258 0.0
C1755 C 0.30534 0.67383 0.46843 0.0
C1756 C 0.31961 0.68615 0.45647 0.0
C1757 C 0.30533 0.67488 0.49064 0.0
C1758 C 0.33292 0.7006 0.46713 0.0
C1759 C 0.33245 0.70227 0.48918 0.0
H1760 H 0.34128 0.35976 0.46779 0.0
H1761 H 0.3064 0.30093 0.46394 0.0
H1762 H 0.30712 0.29775 0.50258 0.0
H1763 H 0.31822 0.31153 0.53742 0.0
H1764 H 0.35288 0.37056 0.54084 0.0
H1765 H 0.35164 0.37385 0.50236 0.0
C1766 C 0.33357 0.34639 0.47542 0.0
C1767 C 0.32369 0.33067 0.46304 0.0
C1768 C 0.33411 0.34465 0.49754 0.0
C1769 C 0.3142 0.31318 0.47313 0.0
C1770 C 0.31456 0.31139 0.4952 0.0
C1771 C 0.32533 0.32519 0.52973 0.0
C1772 C 0.33571 0.34073 0.54196 0.0
C1773 C 0.32454 0.327 0.50756 0.0
C1774 C 0.34507 0.35822 0.53176 0.0
C1775 C 0.34427 0.36018 0.50978 0.0
H1776 H 0.68545 0.31257 0.46318 0.0
H1777 H 0.64127 0.36462 0.4598 0.0
H1778 H 0.6398 0.36628 0.49837 0.0
H1779 H 0.65065 0.3528 0.53297 0.0
H1780 H 0.69449 0.30057 0.53693 0.0
H1781 H 0.69666 0.29921 0.4982 0.0
C1782 C 0.67544 0.32419 0.47093 0.0
C1783 C 0.66352 0.33847 0.45867 0.0
C1784 C 0.67466 0.32506 0.49317 0.0
C1785 C 0.6508 0.35363 0.46889 0.0
C1786 C 0.64987 0.35452 0.49093 0.0
C1787 C 0.66057 0.34101 0.52535 0.0
C1788 C 0.67226 0.32669 0.53776 0.0
C1789 C 0.66167 0.3403 0.5032 0.0
C1790 C 0.68542 0.31183 0.52769 0.0
C1791 C 0.68657 0.31098 0.50558 0.0
H1792 H 0.52239 0.64887 0.68655 0.0
H1793 H 0.52607 0.69155 0.63313 0.0
H1794 H 0.4876 0.69405 0.63226 0.0
H1795 H 0.45282 0.68197 0.64487 0.0
H1796 H 0.44913 0.63763 0.6968 0.0
H1797 H 0.48771 0.6376 0.69979 0.0
C1798 C 0.5148 0.65865 0.67464 0.0
C1799 C 0.52717 0.6699 0.65986 0.0
C1800 C 0.49265 0.65957 0.67384 0.0
C1801 C 0.51702 0.68289 0.64487 0.0
C1802 C 0.49498 0.6842 0.64423 0.0
C1803 C 0.46049 0.67256 0.65703 0.0
C1804 C 0.44823 0.65979 0.67056 0.0
C1805 C 0.48264 0.67235 0.65842 0.0
C1806 C 0.45831 0.64743 0.68608 0.0
C1807 C 0.48032 0.64744 0.68782 0.0
H1808 H 0.32611 0.53297 0.69635 0.0
H1809 H 0.28504 0.52712 0.64212 0.0
H1810 H 0.28549 0.48842 0.6455 0.0
H1811 H 0.30043 0.45644 0.66166 0.0
H1812 H 0.34296 0.46214 0.7148 0.0
H1813 H 0.33906 0.50079 0.71417 0.0
C1814 C 0.31691 0.52319 0.68559 0.0
C1815 C 0.30557 0.53275 0.66901 0.0
C1816 C 0.31771 0.501 0.68731 0.0
C1817 C 0.29396 0.52 0.65492 0.0
C1818 C 0.29425 0.49793 0.65684 0.0
C1819 C 0.30847 0.46612 0.67339 0.0
C1820 C 0.32197 0.45652 0.68824 0.0
C1821 C 0.30648 0.48827 0.67264 0.0
C1822 C 0.33261 0.46924 0.70311 0.0
C1823 C 0.33037 0.4913 0.70277 0.0
H1824 H 0.53512 0.31704 0.69887 0.0
H1825 H 0.53473 0.30661 0.63135 0.0
H1826 H 0.49617 0.30373 0.63168 0.0
H1827 H 0.46261 0.30745 0.65057 0.0
H1828 H 0.46256 0.31967 0.7178 0.0
H1829 H 0.50129 0.3185 0.71827 0.0
C1830 C 0.52655 0.31377 0.68434 0.0
C1831 C 0.53761 0.31211 0.66511 0.0
C1832 C 0.50436 0.31264 0.68458 0.0
C1833 C 0.52643 0.30811 0.64629 0.0
C1834 C 0.50443 0.30646 0.64648 0.0
C1835 C 0.47106 0.30939 0.66541 0.0
C1836 C 0.45981 0.31361 0.68412 0.0
C1837 C 0.49323 0.30916 0.66545 0.0
C1838 C 0.47096 0.31652 0.70317 0.0
C1839 C 0.49305 0.31585 0.70344 0.0
H1840 H 0.63753 0.52709 0.68577 0.0
H1841 H 0.70056 0.53621 0.66105 0.0
H1842 H 0.707 0.49804 0.66312 0.0
H1843 H 0.69385 0.46186 0.66966 0.0
H1844 H 0.62994 0.45288 0.69218 0.0
H1845 H 0.62483 0.49117 0.69339 0.0
C1846 C 0.65267 0.52073 0.68079 0.0
C1847 C 0.66846 0.53448 0.67311 0.0
C1848 C 0.65612 0.49876 0.68161 0.0
C1849 C 0.68816 0.52602 0.66718 0.0
C1850 C 0.69181 0.50417 0.66821 0.0
C1851 C 0.6788 0.46828 0.67482 0.0
C1852 C 0.66232 0.45445 0.68079 0.0
C1853 C 0.67576 0.49036 0.67503 0.0
C1854 C 0.64304 0.46308 0.68779 0.0
C1855 C 0.64001 0.48501 0.68831 0.0
H1856 H 0.46241 0.34033 0.30579 0.0
H1857 H 0.45941 0.30034 0.36124 0.0
H1858 H 0.49794 0.29797 0.36186 0.0
H1859 H 0.53243 0.30881 0.34783 0.0
H1860 H 0.53555 0.34815 0.29193 0.0
H1861 H 0.49696 0.34917 0.2903 0.0
C1862 C 0.47016 0.33078 0.31778 0.0
C1863 C 0.45804 0.32064 0.33351 0.0
C1864 C 0.49233 0.32951 0.31807 0.0
C1865 C 0.46837 0.30858 0.34913 0.0
C1866 C 0.4904 0.30715 0.34946 0.0
C1867 C 0.5247 0.31729 0.33505 0.0
C1868 C 0.53689 0.32845 0.32007 0.0
C1869 C 0.50254 0.31778 0.33418 0.0
C1870 C 0.52656 0.33967 0.30385 0.0
C1871 C 0.50449 0.34019 0.30284 0.0
H1872 H 0.65902 0.46196 0.28989 0.0
H1873 H 0.69361 0.45758 0.34866 0.0
H1874 H 0.69554 0.4962 0.3508 0.0
H1875 H 0.6852 0.53116 0.3374 0.0
H1876 H 0.65052 0.53601 0.27881 0.0
H1877 H 0.6509 0.49727 0.27505 0.0
C1878 C 0.66706 0.46951 0.30308 0.0
C1879 C 0.67609 0.45696 0.31912 0.0
C1880 C 0.668 0.49176 0.30429 0.0
C1881 C 0.68672 0.46689 0.336 0.0
C1882 C 0.6877 0.48897 0.33733 0.0
C1883 C 0.67781 0.52369 0.32377 0.0
C1884 C 0.66764 0.53628 0.30852 0.0
C1885 C 0.67807 0.50153 0.32178 0.0
C1886 C 0.65846 0.52656 0.29072 0.0
C1887 C 0.65858 0.50445 0.28864 0.0
H1888 H 0.53513 0.67901 0.29804 0.0
H1889 H 0.54559 0.69878 0.36266 0.0
H1890 H 0.50761 0.70373 0.36758 0.0
H1891 H 0.47131 0.69956 0.35446 0.0
H1892 H 0.46073 0.67832 0.29031 0.0
H1893 H 0.49884 0.67712 0.28417 0.0
C1894 C 0.52907 0.68449 0.31315 0.0
C1895 C 0.54312 0.68841 0.32998 0.0
C1896 C 0.5072 0.68701 0.31597 0.0
C1897 C 0.53511 0.69583 0.34939 0.0
C1898 C 0.51339 0.69852 0.35227 0.0
C1899 C 0.47736 0.69477 0.3391 0.0
C1900 C 0.46322 0.68888 0.32293 0.0
C1901 C 0.49928 0.69373 0.33581 0.0
C1902 C 0.47127 0.6831 0.30299 0.0
C1903 C 0.49307 0.68222 0.29952 0.0
H1904 H 0.35592 0.4691 0.34839 0.0
H1905 H 0.30588 0.46507 0.30208 0.0
H1906 H 0.30629 0.50375 0.29814 0.0
H1907 H 0.32044 0.53879 0.30858 0.0
H1908 H 0.36975 0.54226 0.35581 0.0
H1909 H 0.37004 0.50371 0.35863 0.0
C1910 C 0.34496 0.47669 0.33756 0.0
C1911 C 0.33076 0.46426 0.3257 0.0
C1912 C 0.34519 0.49883 0.3355 0.0
C1913 C 0.31703 0.47429 0.31134 0.0
C1914 C 0.31719 0.4964 0.30916 0.0
C1915 C 0.33117 0.53109 0.31954 0.0
C1916 C 0.34511 0.54342 0.33188 0.0
C1917 C 0.33112 0.50884 0.32127 0.0
C1918 C 0.3591 0.53318 0.34585 0.0
C1919 C 0.35918 0.51112 0.34761 0.0
loop_
_geom_bond_atom_site_label_1
_geom_bond_atom_site_label_2
_geom_bond_distance
_geom_bond_site_symmetry_2
_ccdc_geom_bond_type
Li0 N17 1.990 . S
Li0 O60 1.956 . S
Li0 O61 1.970 . S
Li0 O62 1.961 . S
Li1 N25 1.990 . S
Li1 O60 1.970 . S
Li1 O61 1.956 . S
Li1 O63 1.961 . S
Li2 N47 1.990 . S
Li2 O60 1.961 . S
Li2 O62 1.956 . S
Li2 O63 1.970 . S
Li3 N53 1.990 . S
Li3 O61 1.961 . S
Li3 O62 1.970 . S
Li3 O63 1.956 . S
C4 C6 1.348 . S
C4 C7 1.356 . S
C4 O60 1.325 . S
N5 C8 1.314 . S
N5 C9 1.279 . S
C6 C4 1.348 . S
C6 C8 1.353 . S
C6 H64 0.929 . S
C7 C4 1.356 . S
C7 C9 1.358 . S
C7 H65 0.930 . S
C8 N5 1.314 . S
C8 C6 1.353 . S
C8 H66 0.930 . S
C9 N5 1.279 . S
C9 C7 1.358 . S
C9 H67 0.930 . S
C10 C13 1.348 . S
C10 C14 1.356 . S
C10 O61 1.325 . S
C11 N12 1.279 . S
C11 C14 1.358 . S
C11 H68 0.930 . S
N12 C11 1.279 . S
N12 C15 1.314 . S
C13 C10 1.348 . S
C13 C15 1.353 . S
C13 H69 0.929 . S
C14 C10 1.356 . S
C14 C11 1.358 . S
C14 H70 0.930 . S
C15 N12 1.314 . S
C15 C13 1.353 . S
C15 H71 0.930 . S
C16 N17 1.314 . S
C16 C21 1.353 . S
C16 H22 0.930 . S
N17 Li0 1.990 . S
N17 C16 1.314 . S
N17 C19 1.279 . S
C18 C19 1.358 . S
C18 C20 1.356 . S
C18 H72 0.930 . S
C19 N17 1.279 . S
C19 C18 1.358 . S
C19 H23 0.930 . S
C20 C18 1.356 . S
C20 C21 1.348 . S
C21 C16 1.353 . S
C21 C20 1.348 . S
C21 H73 0.929 . S
H22 C16 0.930 . S
H23 C19 0.930 . S
C24 N25 1.314 . S
C24 C26 1.353 . S
C24 H30 0.930 . S
N25 Li1 1.990 . S
N25 C24 1.314 . S
N25 C28 1.279 . S
C26 C24 1.353 . S
C26 C29 1.348 . S
C26 H74 0.929 . S
C27 C28 1.358 . S
C27 C29 1.356 . S
C27 H75 0.930 . S
C28 N25 1.279 . S
C28 C27 1.358 . S
C28 H31 0.930 . S
C29 C26 1.348 . S
C29 C27 1.356 . S
H30 C24 0.930 . S
H31 C28 0.930 . S
C32 C34 1.348 . S
C32 C35 1.356 . S
C32 O62 1.325 . S
N33 C36 1.314 . S
N33 C37 1.279 . S
C34 C32 1.348 . S
C34 C36 1.353 . S
C34 H76 0.929 . S
C35 C32 1.356 . S
C35 C37 1.358 . S
C35 H77 0.930 . S
C36 N33 1.314 . S
C36 C34 1.353 . S
C36 H78 0.930 . S
C37 N33 1.279 . S
C37 C35 1.358 . S
C37 H79 0.930 . S
C38 C39 1.348 . S
C38 C40 1.356 . S
C38 O63 1.325 . S
C39 C38 1.348 . S
C39 C41 1.353 . S
C39 H80 0.929 . S
C40 C38 1.356 . S
C40 C42 1.358 . S
C40 H81 0.930 . S
C41 C39 1.353 . S
C41 N43 1.314 . S
C41 H82 0.930 . S
C42 C40 1.358 . S
C42 N43 1.279 . S
C42 H83 0.930 . S
N43 C41 1.314 . S
N43 C42 1.279 . S
C44 C46 1.353 . S
C44 N47 1.314 . S
C44 H50 0.930 . S
C45 N47 1.279 . S
C45 C48 1.358 . S
C45 H51 0.930 . S
C46 C44 1.353 . S
C46 C49 1.348 . S
C46 H84 0.929 . S
N47 Li2 1.990 . S
N47 C44 1.314 . S
N47 C45 1.279 . S
C48 C45 1.358 . S
C48 C49 1.356 . S
C48 H85 0.930 . S
C49 C46 1.348 . S
C49 C48 1.356 . S
H50 C44 0.930 . S
H51 C45 0.930 . S
C52 N53 1.314 . S
C52 C54 1.353 . S
C52 H58 0.930 . S
N53 Li3 1.990 . S
N53 C52 1.314 . S
N53 C56 1.279 . S
C54 C52 1.353 . S
C54 C57 1.348 . S
C54 H86 0.929 . S
C55 C56 1.358 . S
C55 C57 1.356 . S
C55 H87 0.930 . S
C56 N53 1.279 . S
C56 C55 1.358 . S
C56 H59 0.930 . S
C57 C54 1.348 . S
C57 C55 1.356 . S
H58 C52 0.930 . S
H59 C56 0.930 . S
O60 Li0 1.956 . S
O60 Li1 1.970 . S
O60 Li2 1.961 . S
O60 C4 1.325 . S
O61 Li0 1.970 . S
O61 Li1 1.956 . S
O61 Li3 1.961 . S
O61 C10 1.325 . S
O62 Li0 1.961 . S
O62 Li2 1.956 . S
O62 Li3 1.970 . S
O62 C32 1.325 . S
O63 Li1 1.961 . S
O63 Li2 1.970 . S
O63 Li3 1.956 . S
O63 C38 1.325 . S
H64 C6 0.929 . S
H65 C7 0.930 . S
H66 C8 0.930 . S
H67 C9 0.930 . S
H68 C11 0.930 . S
H69 C13 0.929 . S
H70 C14 0.930 . S
H71 C15 0.930 . S
H72 C18 0.930 . S
H73 C21 0.929 . S
H74 C26 0.929 . S
H75 C27 0.930 . S
H76 C34 0.929 . S
H77 C35 0.930 . S
H78 C36 0.930 . S
H79 C37 0.930 . S
H80 C39 0.929 . S
H81 C40 0.930 . S
H82 C41 0.930 . S
H83 C42 0.930 . S
H84 C46 0.929 . S
H85 C48 0.930 . S
H86 C54 0.929 . S
H87 C55 0.930 . S
Li88 N105 1.990 . S
Li88 O148 1.956 . S
Li88 O149 1.970 . S
Li88 O150 1.961 . S
Li89 N113 1.990 . S
Li89 O148 1.970 . S
Li89 O149 1.956 . S
Li89 O151 1.961 . S
Li90 N135 1.990 . S
Li90 O148 1.961 . S
Li90 O150 1.956 . S
Li90 O151 1.970 . S
Li91 N141 1.990 . S
Li91 O149 1.961 . S
Li91 O150 1.970 . S
Li91 O151 1.956 . S
C92 C94 1.348 . S
C92 C95 1.356 . S
C92 O148 1.325 . S
N93 C96 1.314 . S
N93 C97 1.279 . S
C94 C92 1.348 . S
C94 C96 1.353 . S
C94 H152 0.929 . S
C95 C92 1.356 . S
C95 C97 1.358 . S
C95 H153 0.930 . S
C96 N93 1.314 . S
C96 C94 1.353 . S
C96 H154 0.930 . S
C97 N93 1.279 . S
C97 C95 1.358 . S
C97 H155 0.930 . S
C98 C101 1.348 . S
C98 C102 1.356 . S
C98 O149 1.325 . S
C99 N100 1.279 . S
C99 C102 1.358 . S
C99 H156 0.930 . S
N100 C99 1.279 . S
N100 C103 1.314 . S
C101 C98 1.348 . S
C101 C103 1.353 . S
C101 H157 0.929 . S
C102 C98 1.356 . S
C102 C99 1.358 . S
C102 H158 0.930 . S
C103 N100 1.314 . S
C103 C101 1.353 . S
C103 H159 0.930 . S
C104 N105 1.314 . S
C104 C109 1.353 . S
C104 H110 0.930 . S
N105 Li88 1.990 . S
N105 C104 1.314 . S
N105 C107 1.279 . S
C106 C107 1.358 . S
C106 C108 1.356 . S
C106 H160 0.930 . S
C107 N105 1.279 . S
C107 C106 1.358 . S
C107 H111 0.930 . S
C108 C106 1.356 . S
C108 C109 1.348 . S
C109 C104 1.353 . S
C109 C108 1.348 . S
C109 H161 0.929 . S
H110 C104 0.930 . S
H111 C107 0.930 . S
C112 N113 1.314 . S
C112 C114 1.353 . S
C112 H118 0.930 . S
N113 Li89 1.990 . S
N113 C112 1.314 . S
N113 C116 1.279 . S
C114 C112 1.353 . S
C114 C117 1.348 . S
C114 H162 0.929 . S
C115 C116 1.358 . S
C115 C117 1.356 . S
C115 H163 0.930 . S
C116 N113 1.279 . S
C116 C115 1.358 . S
C116 H119 0.930 . S
C117 C114 1.348 . S
C117 C115 1.356 . S
H118 C112 0.930 . S
H119 C116 0.930 . S
C120 C122 1.348 . S
C120 C123 1.356 . S
C120 O150 1.325 . S
N121 C124 1.314 . S
N121 C125 1.279 . S
C122 C120 1.348 . S
C122 C124 1.353 . S
C122 H164 0.929 . S
C123 C120 1.356 . S
C123 C125 1.358 . S
C123 H165 0.930 . S
C124 N121 1.314 . S
C124 C122 1.353 . S
C124 H166 0.930 . S
C125 N121 1.279 . S
C125 C123 1.358 . S
C125 H167 0.930 . S
C126 C127 1.348 . S
C126 C128 1.356 . S
C126 O151 1.325 . S
C127 C126 1.348 . S
C127 C129 1.353 . S
C127 H168 0.929 . S
C128 C126 1.356 . S
C128 C130 1.358 . S
C128 H169 0.930 . S
C129 C127 1.353 . S
C129 N131 1.314 . S
C129 H170 0.930 . S
C130 C128 1.358 . S
C130 N131 1.279 . S
C130 H171 0.930 . S
N131 C129 1.314 . S
N131 C130 1.279 . S
C132 C134 1.353 . S
C132 N135 1.314 . S
C132 H138 0.930 . S
C133 N135 1.279 . S
C133 C136 1.358 . S
C133 H139 0.930 . S
C134 C132 1.353 . S
C134 C137 1.348 . S
C134 H172 0.929 . S
N135 Li90 1.990 . S
N135 C132 1.314 . S
N135 C133 1.279 . S
C136 C133 1.358 . S
C136 C137 1.356 . S
C136 H173 0.930 . S
C137 C134 1.348 . S
C137 C136 1.356 . S
H138 C132 0.930 . S
H139 C133 0.930 . S
C140 N141 1.314 . S
C140 C142 1.353 . S
C140 H146 0.930 . S
N141 Li91 1.990 . S
N141 C140 1.314 . S
N141 C144 1.279 . S
C142 C140 1.353 . S
C142 C145 1.348 . S
C142 H174 0.929 . S
C143 C144 1.358 . S
C143 C145 1.356 . S
C143 H175 0.930 . S
C144 N141 1.279 . S
C144 C143 1.358 . S
C144 H147 0.930 . S
C145 C142 1.348 . S
C145 C143 1.356 . S
H146 C140 0.930 . S
H147 C144 0.930 . S
O148 Li88 1.956 . S
O148 Li89 1.970 . S
O148 Li90 1.961 . S
O148 C92 1.325 . S
O149 Li88 1.970 . S
O149 Li89 1.956 . S
O149 Li91 1.961 . S
O149 C98 1.325 . S
O150 Li88 1.961 . S
O150 Li90 1.956 . S
O150 Li91 1.970 . S
O150 C120 1.325 . S
O151 Li89 1.961 . S
O151 Li90 1.970 . S
O151 Li91 1.956 . S
O151 C126 1.325 . S
H152 C94 0.929 . S
H153 C95 0.930 . S
H154 C96 0.930 . S
H155 C97 0.930 . S
H156 C99 0.930 . S
H157 C101 0.929 . S
H158 C102 0.930 . S
H159 C103 0.930 . S
H160 C106 0.930 . S
H161 C109 0.929 . S
H162 C114 0.929 . S
H163 C115 0.930 . S
H164 C122 0.929 . S
H165 C123 0.930 . S
H166 C124 0.930 . S
H167 C125 0.930 . S
H168 C127 0.929 . S
H169 C128 0.930 . S
H170 C129 0.930 . S
H171 C130 0.930 . S
H172 C134 0.929 . S
H173 C136 0.930 . S
H174 C142 0.929 . S
H175 C143 0.930 . S
Li176 N193 1.990 . S
Li176 O236 1.956 . S
Li176 O237 1.970 . S
Li176 O238 1.961 . S
Li177 N201 1.990 . S
Li177 O236 1.970 . S
Li177 O237 1.956 . S
Li177 O239 1.961 . S
Li178 N223 1.990 . S
Li178 O236 1.961 . S
Li178 O238 1.956 . S
Li178 O239 1.970 . S
Li179 N229 1.990 . S
Li179 O237 1.961 . S
Li179 O238 1.970 . S
Li179 O239 1.956 . S
C180 C182 1.348 . S
C180 C183 1.356 . S
C180 O236 1.325 . S
N181 C184 1.314 . S
N181 C185 1.279 . S
C182 C180 1.348 . S
C182 C184 1.353 . S
C182 H240 0.929 . S
C183 C180 1.356 . S
C183 C185 1.358 . S
C183 H241 0.930 . S
C184 N181 1.314 . S
C184 C182 1.353 . S
C184 H242 0.930 . S
C185 N181 1.279 . S
C185 C183 1.358 . S
C185 H243 0.930 . S
C186 C189 1.348 . S
C186 C190 1.356 . S
C186 O237 1.325 . S
C187 N188 1.279 . S
C187 C190 1.358 . S
C187 H244 0.930 . S
N188 C187 1.279 . S
N188 C191 1.314 . S
C189 C186 1.348 . S
C189 C191 1.353 . S
C189 H245 0.929 . S
C190 C186 1.356 . S
C190 C187 1.358 . S
C190 H246 0.930 . S
C191 N188 1.314 . S
C191 C189 1.353 . S
C191 H247 0.930 . S
C192 N193 1.314 . S
C192 C197 1.353 . S
C192 H198 0.930 . S
N193 Li176 1.990 . S
N193 C192 1.314 . S
N193 C195 1.279 . S
C194 C195 1.358 . S
C194 C196 1.356 . S
C194 H248 0.930 . S
C195 N193 1.279 . S
C195 C194 1.358 . S
C195 H199 0.930 . S
C196 C194 1.356 . S
C196 C197 1.348 . S
C197 C192 1.353 . S
C197 C196 1.348 . S
C197 H249 0.929 . S
H198 C192 0.930 . S
H199 C195 0.930 . S
C200 N201 1.314 . S
C200 C202 1.353 . S
C200 H206 0.930 . S
N201 Li177 1.990 . S
N201 C200 1.314 . S
N201 C204 1.279 . S
C202 C200 1.353 . S
C202 C205 1.348 . S
C202 H250 0.929 . S
C203 C204 1.358 . S
C203 C205 1.356 . S
C203 H251 0.930 . S
C204 N201 1.279 . S
C204 C203 1.358 . S
C204 H207 0.930 . S
C205 C202 1.348 . S
C205 C203 1.356 . S
H206 C200 0.930 . S
H207 C204 0.930 . S
C208 C210 1.348 . S
C208 C211 1.356 . S
C208 O238 1.325 . S
N209 C212 1.314 . S
N209 C213 1.279 . S
C210 C208 1.348 . S
C210 C212 1.353 . S
C210 H252 0.929 . S
C211 C208 1.356 . S
C211 C213 1.358 . S
C211 H253 0.930 . S
C212 N209 1.314 . S
C212 C210 1.353 . S
C212 H254 0.930 . S
C213 N209 1.279 . S
C213 C211 1.358 . S
C213 H255 0.930 . S
C214 C215 1.348 . S
C214 C216 1.356 . S
C214 O239 1.325 . S
C215 C214 1.348 . S
C215 C217 1.353 . S
C215 H256 0.929 . S
C216 C214 1.356 . S
C216 C218 1.358 . S
C216 H257 0.930 . S
C217 C215 1.353 . S
C217 N219 1.314 . S
C217 H258 0.930 . S
C218 C216 1.358 . S
C218 N219 1.279 . S
C218 H259 0.930 . S
N219 C217 1.314 . S
N219 C218 1.279 . S
C220 C222 1.353 . S
C220 N223 1.314 . S
C220 H226 0.930 . S
C221 N223 1.279 . S
C221 C224 1.358 . S
C221 H227 0.930 . S
C222 C220 1.353 . S
C222 C225 1.348 . S
C222 H260 0.929 . S
N223 Li178 1.990 . S
N223 C220 1.314 . S
N223 C221 1.279 . S
C224 C221 1.358 . S
C224 C225 1.356 . S
C224 H261 0.930 . S
C225 C222 1.348 . S
C225 C224 1.356 . S
H226 C220 0.930 . S
H227 C221 0.930 . S
C228 N229 1.314 . S
C228 C230 1.353 . S
C228 H234 0.930 . S
N229 Li179 1.990 . S
N229 C228 1.314 . S
N229 C232 1.279 . S
C230 C228 1.353 . S
C230 C233 1.348 . S
C230 H262 0.929 . S
C231 C232 1.358 . S
C231 C233 1.356 . S
C231 H263 0.930 . S
C232 N229 1.279 . S
C232 C231 1.358 . S
C232 H235 0.930 . S
C233 C230 1.348 . S
C233 C231 1.356 . S
H234 C228 0.930 . S
H235 C232 0.930 . S
O236 Li176 1.956 . S
O236 Li177 1.970 . S
O236 Li178 1.961 . S
O236 C180 1.325 . S
O237 Li176 1.970 . S
O237 Li177 1.956 . S
O237 Li179 1.961 . S
O237 C186 1.325 . S
O238 Li176 1.961 . S
O238 Li178 1.956 . S
O238 Li179 1.970 . S
O238 C208 1.325 . S
O239 Li177 1.961 . S
O239 Li178 1.970 . S
O239 Li179 1.956 . S
O239 C214 1.325 . S
H240 C182 0.929 . S
H241 C183 0.930 . S
H242 C184 0.930 . S
H243 C185 0.930 . S
H244 C187 0.930 . S
H245 C189 0.929 . S
H246 C190 0.930 . S
H247 C191 0.930 . S
H248 C194 0.930 . S
H249 C197 0.929 . S
H250 C202 0.929 . S
H251 C203 0.930 . S
H252 C210 0.929 . S
H253 C211 0.930 . S
H254 C212 0.930 . S
H255 C213 0.930 . S
H256 C215 0.929 . S
H257 C216 0.930 . S
H258 C217 0.930 . S
H259 C218 0.930 . S
H260 C222 0.929 . S
H261 C224 0.930 . S
H262 C230 0.929 . S
H263 C231 0.930 . S
Li264 N281 1.990 . S
Li264 O324 1.956 . S
Li264 O325 1.970 . S
Li264 O326 1.961 . S
Li265 N289 1.990 . S
Li265 O324 1.970 . S
Li265 O325 1.956 . S
Li265 O327 1.961 . S
Li266 N311 1.990 . S
Li266 O324 1.961 . S
Li266 O326 1.956 . S
Li266 O327 1.970 . S
Li267 N317 1.990 . S
Li267 O325 1.961 . S
Li267 O326 1.970 . S
Li267 O327 1.956 . S
C268 C270 1.348 . S
C268 C271 1.356 . S
C268 O324 1.325 . S
N269 C272 1.314 . S
N269 C273 1.279 . S
C270 C268 1.348 . S
C270 C272 1.353 . S
C270 H328 0.929 . S
C271 C268 1.356 . S
C271 C273 1.358 . S
C271 H329 0.930 . S
C272 N269 1.314 . S
C272 C270 1.353 . S
C272 H330 0.930 . S
C273 N269 1.279 . S
C273 C271 1.358 . S
C273 H331 0.930 . S
C274 C277 1.348 . S
C274 C278 1.356 . S
C274 O325 1.325 . S
C275 N276 1.279 . S
C275 C278 1.358 . S
C275 H332 0.930 . S
N276 C275 1.279 . S
N276 C279 1.314 . S
C277 C274 1.348 . S
C277 C279 1.353 . S
C277 H333 0.929 . S
C278 C274 1.356 . S
C278 C275 1.358 . S
C278 H334 0.930 . S
C279 N276 1.314 . S
C279 C277 1.353 . S
C279 H335 0.930 . S
C280 N281 1.314 . S
C280 C285 1.353 . S
C280 H286 0.930 . S
N281 Li264 1.990 . S
N281 C280 1.314 . S
N281 C283 1.279 . S
C282 C283 1.358 . S
C282 C284 1.356 . S
C282 H336 0.930 . S
C283 N281 1.279 . S
C283 C282 1.358 . S
C283 H287 0.930 . S
C284 C282 1.356 . S
C284 C285 1.348 . S
C285 C280 1.353 . S
C285 C284 1.348 . S
C285 H337 0.929 . S
H286 C280 0.930 . S
H287 C283 0.930 . S
C288 N289 1.314 . S
C288 C290 1.353 . S
C288 H294 0.930 . S
N289 Li265 1.990 . S
N289 C288 1.314 . S
N289 C292 1.279 . S
C290 C288 1.353 . S
C290 C293 1.348 . S
C290 H338 0.929 . S
C291 C292 1.358 . S
C291 C293 1.356 . S
C291 H339 0.930 . S
C292 N289 1.279 . S
C292 C291 1.358 . S
C292 H295 0.930 . S
C293 C290 1.348 . S
C293 C291 1.356 . S
H294 C288 0.930 . S
H295 C292 0.930 . S
C296 C298 1.348 . S
C296 C299 1.356 . S
C296 O326 1.325 . S
N297 C300 1.314 . S
N297 C301 1.279 . S
C298 C296 1.348 . S
C298 C300 1.353 . S
C298 H340 0.929 . S
C299 C296 1.356 . S
C299 C301 1.358 . S
C299 H341 0.930 . S
C300 N297 1.314 . S
C300 C298 1.353 . S
C300 H342 0.930 . S
C301 N297 1.279 . S
C301 C299 1.358 . S
C301 H343 0.930 . S
C302 C303 1.348 . S
C302 C304 1.356 . S
C302 O327 1.325 . S
C303 C302 1.348 . S
C303 C305 1.353 . S
C303 H344 0.929 . S
C304 C302 1.356 . S
C304 C306 1.358 . S
C304 H345 0.930 . S
C305 C303 1.353 . S
C305 N307 1.314 . S
C305 H346 0.930 . S
C306 C304 1.358 . S
C306 N307 1.279 . S
C306 H347 0.930 . S
N307 C305 1.314 . S
N307 C306 1.279 . S
C308 C310 1.353 . S
C308 N311 1.314 . S
C308 H314 0.930 . S
C309 N311 1.279 . S
C309 C312 1.358 . S
C309 H315 0.930 . S
C310 C308 1.353 . S
C310 C313 1.348 . S
C310 H348 0.929 . S
N311 Li266 1.990 . S
N311 C308 1.314 . S
N311 C309 1.279 . S
C312 C309 1.358 . S
C312 C313 1.356 . S
C312 H349 0.930 . S
C313 C310 1.348 . S
C313 C312 1.356 . S
H314 C308 0.930 . S
H315 C309 0.930 . S
C316 N317 1.314 . S
C316 C318 1.353 . S
C316 H322 0.930 . S
N317 Li267 1.990 . S
N317 C316 1.314 . S
N317 C320 1.279 . S
C318 C316 1.353 . S
C318 C321 1.348 . S
C318 H350 0.929 . S
C319 C320 1.358 . S
C319 C321 1.356 . S
C319 H351 0.930 . S
C320 N317 1.279 . S
C320 C319 1.358 . S
C320 H323 0.930 . S
C321 C318 1.348 . S
C321 C319 1.356 . S
H322 C316 0.930 . S
H323 C320 0.930 . S
O324 Li264 1.956 . S
O324 Li265 1.970 . S
O324 Li266 1.961 . S
O324 C268 1.325 . S
O325 Li264 1.970 . S
O325 Li265 1.956 . S
O325 Li267 1.961 . S
O325 C274 1.325 . S
O326 Li264 1.961 . S
O326 Li266 1.956 . S
O326 Li267 1.970 . S
O326 C296 1.325 . S
O327 Li265 1.961 . S
O327 Li266 1.970 . S
O327 Li267 1.956 . S
O327 C302 1.325 . S
H328 C270 0.929 . S
H329 C271 0.930 . S
H330 C272 0.930 . S
H331 C273 0.930 . S
H332 C275 0.930 . S
H333 C277 0.929 . S
H334 C278 0.930 . S
H335 C279 0.930 . S
H336 C282 0.930 . S
H337 C285 0.929 . S
H338 C290 0.929 . S
H339 C291 0.930 . S
H340 C298 0.929 . S
H341 C299 0.930 . S
H342 C300 0.930 . S
H343 C301 0.930 . S
H344 C303 0.929 . S
H345 C304 0.930 . S
H346 C305 0.930 . S
H347 C306 0.930 . S
H348 C310 0.929 . S
H349 C312 0.930 . S
H350 C318 0.929 . S
H351 C319 0.930 . S
Li352 N369 1.990 . S
Li352 O412 1.956 . S
Li352 O413 1.970 . S
Li352 O414 1.961 . S
Li353 N377 1.990 . S
Li353 O412 1.970 . S
Li353 O413 1.956 . S
Li353 O415 1.961 . S
Li354 N399 1.990 . S
Li354 O412 1.961 . S
Li354 O414 1.956 . S
Li354 O415 1.970 . S
Li355 N405 1.990 . S
Li355 O413 1.961 . S
Li355 O414 1.970 . S
Li355 O415 1.956 . S
C356 C358 1.348 . S
C356 C359 1.356 . S
C356 O412 1.325 . S
N357 C360 1.314 . S
N357 C361 1.279 . S
C358 C356 1.348 . S
C358 C360 1.353 . S
C358 H416 0.929 . S
C359 C356 1.356 . S
C359 C361 1.358 . S
C359 H417 0.930 . S
C360 N357 1.314 . S
C360 C358 1.353 . S
C360 H418 0.930 . S
C361 N357 1.279 . S
C361 C359 1.358 . S
C361 H419 0.930 . S
C362 C365 1.348 . S
C362 C366 1.356 . S
C362 O413 1.325 . S
C363 N364 1.279 . S
C363 C366 1.358 . S
C363 H420 0.930 . S
N364 C363 1.279 . S
N364 C367 1.314 . S
C365 C362 1.348 . S
C365 C367 1.353 . S
C365 H421 0.929 . S
C366 C362 1.356 . S
C366 C363 1.358 . S
C366 H422 0.930 . S
C367 N364 1.314 . S
C367 C365 1.353 . S
C367 H423 0.930 . S
C368 N369 1.314 . S
C368 C373 1.353 . S
C368 H374 0.930 . S
N369 Li352 1.990 . S
N369 C368 1.314 . S
N369 C371 1.279 . S
C370 C371 1.358 . S
C370 C372 1.356 . S
C370 H424 0.930 . S
C371 N369 1.279 . S
C371 C370 1.358 . S
C371 H375 0.930 . S
C372 C370 1.356 . S
C372 C373 1.348 . S
C373 C368 1.353 . S
C373 C372 1.348 . S
C373 H425 0.929 . S
H374 C368 0.930 . S
H375 C371 0.930 . S
C376 N377 1.314 . S
C376 C378 1.353 . S
C376 H382 0.930 . S
N377 Li353 1.990 . S
N377 C376 1.314 . S
N377 C380 1.279 . S
C378 C376 1.353 . S
C378 C381 1.348 . S
C378 H426 0.929 . S
C379 C380 1.358 . S
C379 C381 1.356 . S
C379 H427 0.930 . S
C380 N377 1.279 . S
C380 C379 1.358 . S
C380 H383 0.930 . S
C381 C378 1.348 . S
C381 C379 1.356 . S
H382 C376 0.930 . S
H383 C380 0.930 . S
C384 C386 1.348 . S
C384 C387 1.356 . S
C384 O414 1.325 . S
N385 C388 1.314 . S
N385 C389 1.279 . S
C386 C384 1.348 . S
C386 C388 1.353 . S
C386 H428 0.929 . S
C387 C384 1.356 . S
C387 C389 1.358 . S
C387 H429 0.930 . S
C388 N385 1.314 . S
C388 C386 1.353 . S
C388 H430 0.930 . S
C389 N385 1.279 . S
C389 C387 1.358 . S
C389 H431 0.930 . S
C390 C391 1.348 . S
C390 C392 1.356 . S
C390 O415 1.325 . S
C391 C390 1.348 . S
C391 C393 1.353 . S
C391 H432 0.929 . S
C392 C390 1.356 . S
C392 C394 1.358 . S
C392 H433 0.930 . S
C393 C391 1.353 . S
C393 N395 1.314 . S
C393 H434 0.930 . S
C394 C392 1.358 . S
C394 N395 1.279 . S
C394 H435 0.930 . S
N395 C393 1.314 . S
N395 C394 1.279 . S
C396 C398 1.353 . S
C396 N399 1.314 . S
C396 H402 0.930 . S
C397 N399 1.279 . S
C397 C400 1.358 . S
C397 H403 0.930 . S
C398 C396 1.353 . S
C398 C401 1.348 . S
C398 H436 0.929 . S
N399 Li354 1.990 . S
N399 C396 1.314 . S
N399 C397 1.279 . S
C400 C397 1.358 . S
C400 C401 1.356 . S
C400 H437 0.930 . S
C401 C398 1.348 . S
C401 C400 1.356 . S
H402 C396 0.930 . S
H403 C397 0.930 . S
C404 N405 1.314 . S
C404 C406 1.353 . S
C404 H410 0.930 . S
N405 Li355 1.990 . S
N405 C404 1.314 . S
N405 C408 1.279 . S
C406 C404 1.353 . S
C406 C409 1.348 . S
C406 H438 0.929 . S
C407 C408 1.358 . S
C407 C409 1.356 . S
C407 H439 0.930 . S
C408 N405 1.279 . S
C408 C407 1.358 . S
C408 H411 0.930 . S
C409 C406 1.348 . S
C409 C407 1.356 . S
H410 C404 0.930 . S
H411 C408 0.930 . S
O412 Li352 1.956 . S
O412 Li353 1.970 . S
O412 Li354 1.961 . S
O412 C356 1.325 . S
O413 Li352 1.970 . S
O413 Li353 1.956 . S
O413 Li355 1.961 . S
O413 C362 1.325 . S
O414 Li352 1.961 . S
O414 Li354 1.956 . S
O414 Li355 1.970 . S
O414 C384 1.325 . S
O415 Li353 1.961 . S
O415 Li354 1.970 . S
O415 Li355 1.956 . S
O415 C390 1.325 . S
H416 C358 0.929 . S
H417 C359 0.930 . S
H418 C360 0.930 . S
H419 C361 0.930 . S
H420 C363 0.930 . S
H421 C365 0.929 . S
H422 C366 0.930 . S
H423 C367 0.930 . S
H424 C370 0.930 . S
H425 C373 0.929 . S
H426 C378 0.929 . S
H427 C379 0.930 . S
H428 C386 0.929 . S
H429 C387 0.930 . S
H430 C388 0.930 . S
H431 C389 0.930 . S
H432 C391 0.929 . S
H433 C392 0.930 . S
H434 C393 0.930 . S
H435 C394 0.930 . S
H436 C398 0.929 . S
H437 C400 0.930 . S
H438 C406 0.929 . S
H439 C407 0.930 . S
Li440 N457 1.990 . S
Li440 O500 1.956 . S
Li440 O501 1.970 . S
Li440 O502 1.961 . S
Li441 N465 1.990 . S
Li441 O500 1.970 . S
Li441 O501 1.956 . S
Li441 O503 1.961 . S
Li442 N487 1.990 . S
Li442 O500 1.961 . S
Li442 O502 1.956 . S
Li442 O503 1.970 . S
Li443 N493 1.990 . S
Li443 O501 1.961 . S
Li443 O502 1.970 . S
Li443 O503 1.956 . S
C444 C446 1.348 . S
C444 C447 1.356 . S
C444 O500 1.325 . S
N445 C448 1.314 . S
N445 C449 1.279 . S
C446 C444 1.348 . S
C446 C448 1.353 . S
C446 H504 0.929 . S
C447 C444 1.356 . S
C447 C449 1.358 . S
C447 H505 0.930 . S
C448 N445 1.314 . S
C448 C446 1.353 . S
C448 H506 0.930 . S
C449 N445 1.279 . S
C449 C447 1.358 . S
C449 H507 0.930 . S
C450 C453 1.348 . S
C450 C454 1.356 . S
C450 O501 1.325 . S
C451 N452 1.279 . S
C451 C454 1.358 . S
C451 H508 0.930 . S
N452 C451 1.279 . S
N452 C455 1.314 . S
C453 C450 1.348 . S
C453 C455 1.353 . S
C453 H509 0.929 . S
C454 C450 1.356 . S
C454 C451 1.358 . S
C454 H510 0.930 . S
C455 N452 1.314 . S
C455 C453 1.353 . S
C455 H511 0.930 . S
C456 N457 1.314 . S
C456 C461 1.353 . S
C456 H462 0.930 . S
N457 Li440 1.990 . S
N457 C456 1.314 . S
N457 C459 1.279 . S
C458 C459 1.358 . S
C458 C460 1.356 . S
C458 H512 0.930 . S
C459 N457 1.279 . S
C459 C458 1.358 . S
C459 H463 0.930 . S
C460 C458 1.356 . S
C460 C461 1.348 . S
C461 C456 1.353 . S
C461 C460 1.348 . S
C461 H513 0.929 . S
H462 C456 0.930 . S
H463 C459 0.930 . S
C464 N465 1.314 . S
C464 C466 1.353 . S
C464 H470 0.930 . S
N465 Li441 1.990 . S
N465 C464 1.314 . S
N465 C468 1.279 . S
C466 C464 1.353 . S
C466 C469 1.348 . S
C466 H514 0.929 . S
C467 C468 1.358 . S
C467 C469 1.356 . S
C467 H515 0.930 . S
C468 N465 1.279 . S
C468 C467 1.358 . S
C468 H471 0.930 . S
C469 C466 1.348 . S
C469 C467 1.356 . S
H470 C464 0.930 . S
H471 C468 0.930 . S
C472 C474 1.348 . S
C472 C475 1.356 . S
C472 O502 1.325 . S
N473 C476 1.314 . S
N473 C477 1.279 . S
C474 C472 1.348 . S
C474 C476 1.353 . S
C474 H516 0.929 . S
C475 C472 1.356 . S
C475 C477 1.358 . S
C475 H517 0.930 . S
C476 N473 1.314 . S
C476 C474 1.353 . S
C476 H518 0.930 . S
C477 N473 1.279 . S
C477 C475 1.358 . S
C477 H519 0.930 . S
C478 C479 1.348 . S
C478 C480 1.356 . S
C478 O503 1.325 . S
C479 C478 1.348 . S
C479 C481 1.353 . S
C479 H520 0.929 . S
C480 C478 1.356 . S
C480 C482 1.358 . S
C480 H521 0.930 . S
C481 C479 1.353 . S
C481 N483 1.314 . S
C481 H522 0.930 . S
C482 C480 1.358 . S
C482 N483 1.279 . S
C482 H523 0.930 . S
N483 C481 1.314 . S
N483 C482 1.279 . S
C484 C486 1.353 . S
C484 N487 1.314 . S
C484 H490 0.930 . S
C485 N487 1.279 . S
C485 C488 1.358 . S
C485 H491 0.930 . S
C486 C484 1.353 . S
C486 C489 1.348 . S
C486 H524 0.929 . S
N487 Li442 1.990 . S
N487 C484 1.314 . S
N487 C485 1.279 . S
C488 C485 1.358 . S
C488 C489 1.356 . S
C488 H525 0.930 . S
C489 C486 1.348 . S
C489 C488 1.356 . S
H490 C484 0.930 . S
H491 C485 0.930 . S
C492 N493 1.314 . S
C492 C494 1.353 . S
C492 H498 0.930 . S
N493 Li443 1.990 . S
N493 C492 1.314 . S
N493 C496 1.279 . S
C494 C492 1.353 . S
C494 C497 1.348 . S
C494 H526 0.929 . S
C495 C496 1.358 . S
C495 C497 1.356 . S
C495 H527 0.930 . S
C496 N493 1.279 . S
C496 C495 1.358 . S
C496 H499 0.930 . S
C497 C494 1.348 . S
C497 C495 1.356 . S
H498 C492 0.930 . S
H499 C496 0.930 . S
O500 Li440 1.956 . S
O500 Li441 1.970 . S
O500 Li442 1.961 . S
O500 C444 1.325 . S
O501 Li440 1.970 . S
O501 Li441 1.956 . S
O501 Li443 1.961 . S
O501 C450 1.325 . S
O502 Li440 1.961 . S
O502 Li442 1.956 . S
O502 Li443 1.970 . S
O502 C472 1.325 . S
O503 Li441 1.961 . S
O503 Li442 1.970 . S
O503 Li443 1.956 . S
O503 C478 1.325 . S
H504 C446 0.929 . S
H505 C447 0.930 . S
H506 C448 0.930 . S
H507 C449 0.930 . S
H508 C451 0.930 . S
H509 C453 0.929 . S
H510 C454 0.930 . S
H511 C455 0.930 . S
H512 C458 0.930 . S
H513 C461 0.929 . S
H514 C466 0.929 . S
H515 C467 0.930 . S
H516 C474 0.929 . S
H517 C475 0.930 . S
H518 C476 0.930 . S
H519 C477 0.930 . S
H520 C479 0.929 . S
H521 C480 0.930 . S
H522 C481 0.930 . S
H523 C482 0.930 . S
H524 C486 0.929 . S
H525 C488 0.930 . S
H526 C494 0.929 . S
H527 C495 0.930 . S
Li528 N545 1.990 . S
Li528 O588 1.956 . S
Li528 O589 1.970 . S
Li528 O590 1.961 . S
Li529 N553 1.990 . S
Li529 O588 1.970 . S
Li529 O589 1.956 . S
Li529 O591 1.961 . S
Li530 N575 1.990 . S
Li530 O588 1.961 . S
Li530 O590 1.956 . S
Li530 O591 1.970 . S
Li531 N581 1.990 . S
Li531 O589 1.961 . S
Li531 O590 1.970 . S
Li531 O591 1.956 . S
C532 C534 1.348 . S
C532 C535 1.356 . S
C532 O588 1.325 . S
N533 C536 1.314 . S
N533 C537 1.279 . S
C534 C532 1.348 . S
C534 C536 1.353 . S
C534 H592 0.929 . S
C535 C532 1.356 . S
C535 C537 1.358 . S
C535 H593 0.930 . S
C536 N533 1.314 . S
C536 C534 1.353 . S
C536 H594 0.930 . S
C537 N533 1.279 . S
C537 C535 1.358 . S
C537 H595 0.930 . S
C538 C541 1.348 . S
C538 C542 1.356 . S
C538 O589 1.325 . S
C539 N540 1.279 . S
C539 C542 1.358 . S
C539 H596 0.930 . S
N540 C539 1.279 . S
N540 C543 1.314 . S
C541 C538 1.348 . S
C541 C543 1.353 . S
C541 H597 0.929 . S
C542 C538 1.356 . S
C542 C539 1.358 . S
C542 H598 0.930 . S
C543 N540 1.314 . S
C543 C541 1.353 . S
C543 H599 0.930 . S
C544 N545 1.314 . S
C544 C549 1.353 . S
C544 H550 0.930 . S
N545 Li528 1.990 . S
N545 C544 1.314 . S
N545 C547 1.279 . S
C546 C547 1.358 . S
C546 C548 1.356 . S
C546 H600 0.930 . S
C547 N545 1.279 . S
C547 C546 1.358 . S
C547 H551 0.930 . S
C548 C546 1.356 . S
C548 C549 1.348 . S
C549 C544 1.353 . S
C549 C548 1.348 . S
C549 H601 0.929 . S
H550 C544 0.930 . S
H551 C547 0.930 . S
C552 N553 1.314 . S
C552 C554 1.353 . S
C552 H558 0.930 . S
N553 Li529 1.990 . S
N553 C552 1.314 . S
N553 C556 1.279 . S
C554 C552 1.353 . S
C554 C557 1.348 . S
C554 H602 0.929 . S
C555 C556 1.358 . S
C555 C557 1.356 . S
C555 H603 0.930 . S
C556 N553 1.279 . S
C556 C555 1.358 . S
C556 H559 0.930 . S
C557 C554 1.348 . S
C557 C555 1.356 . S
H558 C552 0.930 . S
H559 C556 0.930 . S
C560 C562 1.348 . S
C560 C563 1.356 . S
C560 O590 1.325 . S
N561 C564 1.314 . S
N561 C565 1.279 . S
C562 C560 1.348 . S
C562 C564 1.353 . S
C562 H604 0.929 . S
C563 C560 1.356 . S
C563 C565 1.358 . S
C563 H605 0.930 . S
C564 N561 1.314 . S
C564 C562 1.353 . S
C564 H606 0.930 . S
C565 N561 1.279 . S
C565 C563 1.358 . S
C565 H607 0.930 . S
C566 C567 1.348 . S
C566 C568 1.356 . S
C566 O591 1.325 . S
C567 C566 1.348 . S
C567 C569 1.353 . S
C567 H608 0.929 . S
C568 C566 1.356 . S
C568 C570 1.358 . S
C568 H609 0.930 . S
C569 C567 1.353 . S
C569 N571 1.314 . S
C569 H610 0.930 . S
C570 C568 1.358 . S
C570 N571 1.279 . S
C570 H611 0.930 . S
N571 C569 1.314 . S
N571 C570 1.279 . S
C572 C574 1.353 . S
C572 N575 1.314 . S
C572 H578 0.930 . S
C573 N575 1.279 . S
C573 C576 1.358 . S
C573 H579 0.930 . S
C574 C572 1.353 . S
C574 C577 1.348 . S
C574 H612 0.929 . S
N575 Li530 1.990 . S
N575 C572 1.314 . S
N575 C573 1.279 . S
C576 C573 1.358 . S
C576 C577 1.356 . S
C576 H613 0.930 . S
C577 C574 1.348 . S
C577 C576 1.356 . S
H578 C572 0.930 . S
H579 C573 0.930 . S
C580 N581 1.314 . S
C580 C582 1.353 . S
C580 H586 0.930 . S
N581 Li531 1.990 . S
N581 C580 1.314 . S
N581 C584 1.279 . S
C582 C580 1.353 . S
C582 C585 1.348 . S
C582 H614 0.929 . S
C583 C584 1.358 . S
C583 C585 1.356 . S
C583 H615 0.930 . S
C584 N581 1.279 . S
C584 C583 1.358 . S
C584 H587 0.930 . S
C585 C582 1.348 . S
C585 C583 1.356 . S
H586 C580 0.930 . S
H587 C584 0.930 . S
O588 Li528 1.956 . S
O588 Li529 1.970 . S
O588 Li530 1.961 . S
O588 C532 1.325 . S
O589 Li528 1.970 . S
O589 Li529 1.956 . S
O589 Li531 1.961 . S
O589 C538 1.325 . S
O590 Li528 1.961 . S
O590 Li530 1.956 . S
O590 Li531 1.970 . S
O590 C560 1.325 . S
O591 Li529 1.961 . S
O591 Li530 1.970 . S
O591 Li531 1.956 . S
O591 C566 1.325 . S
H592 C534 0.929 . S
H593 C535 0.930 . S
H594 C536 0.930 . S
H595 C537 0.930 . S
H596 C539 0.930 . S
H597 C541 0.929 . S
H598 C542 0.930 . S
H599 C543 0.930 . S
H600 C546 0.930 . S
H601 C549 0.929 . S
H602 C554 0.929 . S
H603 C555 0.930 . S
H604 C562 0.929 . S
H605 C563 0.930 . S
H606 C564 0.930 . S
H607 C565 0.930 . S
H608 C567 0.929 . S
H609 C568 0.930 . S
H610 C569 0.930 . S
H611 C570 0.930 . S
H612 C574 0.929 . S
H613 C576 0.930 . S
H614 C582 0.929 . S
H615 C583 0.930 . S
Li616 N633 1.990 . S
Li616 O676 1.956 . S
Li616 O677 1.970 . S
Li616 O678 1.961 . S
Li617 N641 1.990 . S
Li617 O676 1.970 . S
Li617 O677 1.956 . S
Li617 O679 1.961 . S
Li618 N663 1.990 . S
Li618 O676 1.961 . S
Li618 O678 1.956 . S
Li618 O679 1.970 . S
Li619 N669 1.990 . S
Li619 O677 1.961 . S
Li619 O678 1.970 . S
Li619 O679 1.956 . S
C620 C622 1.348 . S
C620 C623 1.356 . S
C620 O676 1.325 . S
N621 C624 1.314 . S
N621 C625 1.279 . S
C622 C620 1.348 . S
C622 C624 1.353 . S
C622 H680 0.929 . S
C623 C620 1.356 . S
C623 C625 1.358 . S
C623 H681 0.930 . S
C624 N621 1.314 . S
C624 C622 1.353 . S
C624 H682 0.930 . S
C625 N621 1.279 . S
C625 C623 1.358 . S
C625 H683 0.930 . S
C626 C629 1.348 . S
C626 C630 1.356 . S
C626 O677 1.325 . S
C627 N628 1.279 . S
C627 C630 1.358 . S
C627 H684 0.930 . S
N628 C627 1.279 . S
N628 C631 1.314 . S
C629 C626 1.348 . S
C629 C631 1.353 . S
C629 H685 0.929 . S
C630 C626 1.356 . S
C630 C627 1.358 . S
C630 H686 0.930 . S
C631 N628 1.314 . S
C631 C629 1.353 . S
C631 H687 0.930 . S
C632 N633 1.314 . S
C632 C637 1.353 . S
C632 H638 0.930 . S
N633 Li616 1.990 . S
N633 C632 1.314 . S
N633 C635 1.279 . S
C634 C635 1.358 . S
C634 C636 1.356 . S
C634 H688 0.930 . S
C635 N633 1.279 . S
C635 C634 1.358 . S
C635 H639 0.930 . S
C636 C634 1.356 . S
C636 C637 1.348 . S
C637 C632 1.353 . S
C637 C636 1.348 . S
C637 H689 0.929 . S
H638 C632 0.930 . S
H639 C635 0.930 . S
C640 N641 1.314 . S
C640 C642 1.353 . S
C640 H646 0.930 . S
N641 Li617 1.990 . S
N641 C640 1.314 . S
N641 C644 1.279 . S
C642 C640 1.353 . S
C642 C645 1.348 . S
C642 H690 0.929 . S
C643 C644 1.358 . S
C643 C645 1.356 . S
C643 H691 0.930 . S
C644 N641 1.279 . S
C644 C643 1.358 . S
C644 H647 0.930 . S
C645 C642 1.348 . S
C645 C643 1.356 . S
H646 C640 0.930 . S
H647 C644 0.930 . S
C648 C650 1.348 . S
C648 C651 1.356 . S
C648 O678 1.325 . S
N649 C652 1.314 . S
N649 C653 1.279 . S
C650 C648 1.348 . S
C650 C652 1.353 . S
C650 H692 0.929 . S
C651 C648 1.356 . S
C651 C653 1.358 . S
C651 H693 0.930 . S
C652 N649 1.314 . S
C652 C650 1.353 . S
C652 H694 0.930 . S
C653 N649 1.279 . S
C653 C651 1.358 . S
C653 H695 0.930 . S
C654 C655 1.348 . S
C654 C656 1.356 . S
C654 O679 1.325 . S
C655 C654 1.348 . S
C655 C657 1.353 . S
C655 H696 0.929 . S
C656 C654 1.356 . S
C656 C658 1.358 . S
C656 H697 0.930 . S
C657 C655 1.353 . S
C657 N659 1.314 . S
C657 H698 0.930 . S
C658 C656 1.358 . S
C658 N659 1.279 . S
C658 H699 0.930 . S
N659 C657 1.314 . S
N659 C658 1.279 . S
C660 C662 1.353 . S
C660 N663 1.314 . S
C660 H666 0.930 . S
C661 N663 1.279 . S
C661 C664 1.358 . S
C661 H667 0.930 . S
C662 C660 1.353 . S
C662 C665 1.348 . S
C662 H700 0.929 . S
N663 Li618 1.990 . S
N663 C660 1.314 . S
N663 C661 1.279 . S
C664 C661 1.358 . S
C664 C665 1.356 . S
C664 H701 0.930 . S
C665 C662 1.348 . S
C665 C664 1.356 . S
H666 C660 0.930 . S
H667 C661 0.930 . S
C668 N669 1.314 . S
C668 C670 1.353 . S
C668 H674 0.930 . S
N669 Li619 1.990 . S
N669 C668 1.314 . S
N669 C672 1.279 . S
C670 C668 1.353 . S
C670 C673 1.348 . S
C670 H702 0.929 . S
C671 C672 1.358 . S
C671 C673 1.356 . S
C671 H703 0.930 . S
C672 N669 1.279 . S
C672 C671 1.358 . S
C672 H675 0.930 . S
C673 C670 1.348 . S
C673 C671 1.356 . S
H674 C668 0.930 . S
H675 C672 0.930 . S
O676 Li616 1.956 . S
O676 Li617 1.970 . S
O676 Li618 1.961 . S
O676 C620 1.325 . S
O677 Li616 1.970 . S
O677 Li617 1.956 . S
O677 Li619 1.961 . S
O677 C626 1.325 . S
O678 Li616 1.961 . S
O678 Li618 1.956 . S
O678 Li619 1.970 . S
O678 C648 1.325 . S
O679 Li617 1.961 . S
O679 Li618 1.970 . S
O679 Li619 1.956 . S
O679 C654 1.325 . S
H680 C622 0.929 . S
H681 C623 0.930 . S
H682 C624 0.930 . S
H683 C625 0.930 . S
H684 C627 0.930 . S
H685 C629 0.929 . S
H686 C630 0.930 . S
H687 C631 0.930 . S
H688 C634 0.930 . S
H689 C637 0.929 . S
H690 C642 0.929 . S
H691 C643 0.930 . S
H692 C650 0.929 . S
H693 C651 0.930 . S
H694 C652 0.930 . S
H695 C653 0.930 . S
H696 C655 0.929 . S
H697 C656 0.930 . S
H698 C657 0.930 . S
H699 C658 0.930 . S
H700 C662 0.929 . S
H701 C664 0.930 . S
H702 C670 0.929 . S
H703 C671 0.930 . S
Li704 N721 1.990 . S
Li704 O764 1.956 . S
Li704 O765 1.970 . S
Li704 O766 1.961 . S
Li705 N729 1.990 . S
Li705 O764 1.970 . S
Li705 O765 1.956 . S
Li705 O767 1.961 . S
Li706 N751 1.990 . S
Li706 O764 1.961 . S
Li706 O766 1.956 . S
Li706 O767 1.970 . S
Li707 N757 1.990 . S
Li707 O765 1.961 . S
Li707 O766 1.970 . S
Li707 O767 1.956 . S
C708 C710 1.348 . S
C708 C711 1.356 . S
C708 O764 1.325 . S
N709 C712 1.314 . S
N709 C713 1.279 . S
C710 C708 1.348 . S
C710 C712 1.353 . S
C710 H768 0.929 . S
C711 C708 1.356 . S
C711 C713 1.358 . S
C711 H769 0.930 . S
C712 N709 1.314 . S
C712 C710 1.353 . S
C712 H770 0.930 . S
C713 N709 1.279 . S
C713 C711 1.358 . S
C713 H771 0.930 . S
C714 C717 1.348 . S
C714 C718 1.356 . S
C714 O765 1.325 . S
C715 N716 1.279 . S
C715 C718 1.358 . S
C715 H772 0.930 . S
N716 C715 1.279 . S
N716 C719 1.314 . S
C717 C714 1.348 . S
C717 C719 1.353 . S
C717 H773 0.929 . S
C718 C714 1.356 . S
C718 C715 1.358 . S
C718 H774 0.930 . S
C719 N716 1.314 . S
C719 C717 1.353 . S
C719 H775 0.930 . S
C720 N721 1.314 . S
C720 C725 1.353 . S
C720 H726 0.930 . S
N721 Li704 1.990 . S
N721 C720 1.314 . S
N721 C723 1.279 . S
C722 C723 1.358 . S
C722 C724 1.356 . S
C722 H776 0.930 . S
C723 N721 1.279 . S
C723 C722 1.358 . S
C723 H727 0.930 . S
C724 C722 1.356 . S
C724 C725 1.348 . S
C725 C720 1.353 . S
C725 C724 1.348 . S
C725 H777 0.929 . S
H726 C720 0.930 . S
H727 C723 0.930 . S
C728 N729 1.314 . S
C728 C730 1.353 . S
C728 H734 0.930 . S
N729 Li705 1.990 . S
N729 C728 1.314 . S
N729 C732 1.279 . S
C730 C728 1.353 . S
C730 C733 1.348 . S
C730 H778 0.929 . S
C731 C732 1.358 . S
C731 C733 1.356 . S
C731 H779 0.930 . S
C732 N729 1.279 . S
C732 C731 1.358 . S
C732 H735 0.930 . S
C733 C730 1.348 . S
C733 C731 1.356 . S
H734 C728 0.930 . S
H735 C732 0.930 . S
C736 C738 1.348 . S
C736 C739 1.356 . S
C736 O766 1.325 . S
N737 C740 1.314 . S
N737 C741 1.279 . S
C738 C736 1.348 . S
C738 C740 1.353 . S
C738 H780 0.929 . S
C739 C736 1.356 . S
C739 C741 1.358 . S
C739 H781 0.930 . S
C740 N737 1.314 . S
C740 C738 1.353 . S
C740 H782 0.930 . S
C741 N737 1.279 . S
C741 C739 1.358 . S
C741 H783 0.930 . S
C742 C743 1.348 . S
C742 C744 1.356 . S
C742 O767 1.325 . S
C743 C742 1.348 . S
C743 C745 1.353 . S
C743 H784 0.929 . S
C744 C742 1.356 . S
C744 C746 1.358 . S
C744 H785 0.930 . S
C745 C743 1.353 . S
C745 N747 1.314 . S
C745 H786 0.930 . S
C746 C744 1.358 . S
C746 N747 1.279 . S
C746 H787 0.930 . S
N747 C745 1.314 . S
N747 C746 1.279 . S
C748 C750 1.353 . S
C748 N751 1.314 . S
C748 H754 0.930 . S
C749 N751 1.279 . S
C749 C752 1.358 . S
C749 H755 0.930 . S
C750 C748 1.353 . S
C750 C753 1.348 . S
C750 H788 0.929 . S
N751 Li706 1.990 . S
N751 C748 1.314 . S
N751 C749 1.279 . S
C752 C749 1.358 . S
C752 C753 1.356 . S
C752 H789 0.930 . S
C753 C750 1.348 . S
C753 C752 1.356 . S
H754 C748 0.930 . S
H755 C749 0.930 . S
C756 N757 1.314 . S
C756 C758 1.353 . S
C756 H762 0.930 . S
N757 Li707 1.990 . S
N757 C756 1.314 . S
N757 C760 1.279 . S
C758 C756 1.353 . S
C758 C761 1.348 . S
C758 H790 0.929 . S
C759 C760 1.358 . S
C759 C761 1.356 . S
C759 H791 0.930 . S
C760 N757 1.279 . S
C760 C759 1.358 . S
C760 H763 0.930 . S
C761 C758 1.348 . S
C761 C759 1.356 . S
H762 C756 0.930 . S
H763 C760 0.930 . S
O764 Li704 1.956 . S
O764 Li705 1.970 . S
O764 Li706 1.961 . S
O764 C708 1.325 . S
O765 Li704 1.970 . S
O765 Li705 1.956 . S
O765 Li707 1.961 . S
O765 C714 1.325 . S
O766 Li704 1.961 . S
O766 Li706 1.956 . S
O766 Li707 1.970 . S
O766 C736 1.325 . S
O767 Li705 1.961 . S
O767 Li706 1.970 . S
O767 Li707 1.956 . S
O767 C742 1.325 . S
H768 C710 0.929 . S
H769 C711 0.930 . S
H770 C712 0.930 . S
H771 C713 0.930 . S
H772 C715 0.930 . S
H773 C717 0.929 . S
H774 C718 0.930 . S
H775 C719 0.930 . S
H776 C722 0.930 . S
H777 C725 0.929 . S
H778 C730 0.929 . S
H779 C731 0.930 . S
H780 C738 0.929 . S
H781 C739 0.930 . S
H782 C740 0.930 . S
H783 C741 0.930 . S
H784 C743 0.929 . S
H785 C744 0.930 . S
H786 C745 0.930 . S
H787 C746 0.930 . S
H788 C750 0.929 . S
H789 C752 0.930 . S
H790 C758 0.929 . S
H791 C759 0.930 . S
Li792 N809 1.990 . S
Li792 O852 1.956 . S
Li792 O853 1.970 . S
Li792 O854 1.961 . S
Li793 N817 1.990 . S
Li793 O852 1.970 . S
Li793 O853 1.956 . S
Li793 O855 1.961 . S
Li794 N839 1.990 . S
Li794 O852 1.961 . S
Li794 O854 1.956 . S
Li794 O855 1.970 . S
Li795 N845 1.990 . S
Li795 O853 1.961 . S
Li795 O854 1.970 . S
Li795 O855 1.956 . S
C796 C798 1.348 . S
C796 C799 1.356 . S
C796 O852 1.325 . S
N797 C800 1.314 . S
N797 C801 1.279 . S
C798 C796 1.348 . S
C798 C800 1.353 . S
C798 H856 0.929 . S
C799 C796 1.356 . S
C799 C801 1.358 . S
C799 H857 0.930 . S
C800 N797 1.314 . S
C800 C798 1.353 . S
C800 H858 0.930 . S
C801 N797 1.279 . S
C801 C799 1.358 . S
C801 H859 0.930 . S
C802 C805 1.348 . S
C802 C806 1.356 . S
C802 O853 1.325 . S
C803 N804 1.279 . S
C803 C806 1.358 . S
C803 H860 0.930 . S
N804 C803 1.279 . S
N804 C807 1.314 . S
C805 C802 1.348 . S
C805 C807 1.353 . S
C805 H861 0.929 . S
C806 C802 1.356 . S
C806 C803 1.358 . S
C806 H862 0.930 . S
C807 N804 1.314 . S
C807 C805 1.353 . S
C807 H863 0.930 . S
C808 N809 1.314 . S
C808 C813 1.353 . S
C808 H814 0.930 . S
N809 Li792 1.990 . S
N809 C808 1.314 . S
N809 C811 1.279 . S
C810 C811 1.358 . S
C810 C812 1.356 . S
C810 H864 0.930 . S
C811 N809 1.279 . S
C811 C810 1.358 . S
C811 H815 0.930 . S
C812 C810 1.356 . S
C812 C813 1.348 . S
C813 C808 1.353 . S
C813 C812 1.348 . S
C813 H865 0.929 . S
H814 C808 0.930 . S
H815 C811 0.930 . S
C816 N817 1.314 . S
C816 C818 1.353 . S
C816 H822 0.930 . S
N817 Li793 1.990 . S
N817 C816 1.314 . S
N817 C820 1.279 . S
C818 C816 1.353 . S
C818 C821 1.348 . S
C818 H866 0.929 . S
C819 C820 1.358 . S
C819 C821 1.356 . S
C819 H867 0.930 . S
C820 N817 1.279 . S
C820 C819 1.358 . S
C820 H823 0.930 . S
C821 C818 1.348 . S
C821 C819 1.356 . S
H822 C816 0.930 . S
H823 C820 0.930 . S
C824 C826 1.348 . S
C824 C827 1.356 . S
C824 O854 1.325 . S
N825 C828 1.314 . S
N825 C829 1.279 . S
C826 C824 1.348 . S
C826 C828 1.353 . S
C826 H868 0.929 . S
C827 C824 1.356 . S
C827 C829 1.358 . S
C827 H869 0.930 . S
C828 N825 1.314 . S
C828 C826 1.353 . S
C828 H870 0.930 . S
C829 N825 1.279 . S
C829 C827 1.358 . S
C829 H871 0.930 . S
C830 C831 1.348 . S
C830 C832 1.356 . S
C830 O855 1.325 . S
C831 C830 1.348 . S
C831 C833 1.353 . S
C831 H872 0.929 . S
C832 C830 1.356 . S
C832 C834 1.358 . S
C832 H873 0.930 . S
C833 C831 1.353 . S
C833 N835 1.314 . S
C833 H874 0.930 . S
C834 C832 1.358 . S
C834 N835 1.279 . S
C834 H875 0.930 . S
N835 C833 1.314 . S
N835 C834 1.279 . S
C836 C838 1.353 . S
C836 N839 1.314 . S
C836 H842 0.930 . S
C837 N839 1.279 . S
C837 C840 1.358 . S
C837 H843 0.930 . S
C838 C836 1.353 . S
C838 C841 1.348 . S
C838 H876 0.929 . S
N839 Li794 1.990 . S
N839 C836 1.314 . S
N839 C837 1.279 . S
C840 C837 1.358 . S
C840 C841 1.356 . S
C840 H877 0.930 . S
C841 C838 1.348 . S
C841 C840 1.356 . S
H842 C836 0.930 . S
H843 C837 0.930 . S
C844 N845 1.314 . S
C844 C846 1.353 . S
C844 H850 0.930 . S
N845 Li795 1.990 . S
N845 C844 1.314 . S
N845 C848 1.279 . S
C846 C844 1.353 . S
C846 C849 1.348 . S
C846 H878 0.929 . S
C847 C848 1.358 . S
C847 C849 1.356 . S
C847 H879 0.930 . S
C848 N845 1.279 . S
C848 C847 1.358 . S
C848 H851 0.930 . S
C849 C846 1.348 . S
C849 C847 1.356 . S
H850 C844 0.930 . S
H851 C848 0.930 . S
O852 Li792 1.956 . S
O852 Li793 1.970 . S
O852 Li794 1.961 . S
O852 C796 1.325 . S
O853 Li792 1.970 . S
O853 Li793 1.956 . S
O853 Li795 1.961 . S
O853 C802 1.325 . S
O854 Li792 1.961 . S
O854 Li794 1.956 . S
O854 Li795 1.970 . S
O854 C824 1.325 . S
O855 Li793 1.961 . S
O855 Li794 1.970 . S
O855 Li795 1.956 . S
O855 C830 1.325 . S
H856 C798 0.929 . S
H857 C799 0.930 . S
H858 C800 0.930 . S
H859 C801 0.930 . S
H860 C803 0.930 . S
H861 C805 0.929 . S
H862 C806 0.930 . S
H863 C807 0.930 . S
H864 C810 0.930 . S
H865 C813 0.929 . S
H866 C818 0.929 . S
H867 C819 0.930 . S
H868 C826 0.929 . S
H869 C827 0.930 . S
H870 C828 0.930 . S
H871 C829 0.930 . S
H872 C831 0.929 . S
H873 C832 0.930 . S
H874 C833 0.930 . S
H875 C834 0.930 . S
H876 C838 0.929 . S
H877 C840 0.930 . S
H878 C846 0.929 . S
H879 C847 0.930 . S
Li880 N897 1.990 . S
Li880 O940 1.956 . S
Li880 O941 1.970 . S
Li880 O942 1.961 . S
Li881 N905 1.990 . S
Li881 O940 1.970 . S
Li881 O941 1.956 . S
Li881 O943 1.961 . S
Li882 N927 1.990 . S
Li882 O940 1.961 . S
Li882 O942 1.956 . S
Li882 O943 1.970 . S
Li883 N933 1.990 . S
Li883 O941 1.961 . S
Li883 O942 1.970 . S
Li883 O943 1.956 . S
C884 C886 1.348 . S
C884 C887 1.356 . S
C884 O940 1.325 . S
N885 C888 1.314 . S
N885 C889 1.279 . S
C886 C884 1.348 . S
C886 C888 1.353 . S
C886 H944 0.929 . S
C887 C884 1.356 . S
C887 C889 1.358 . S
C887 H945 0.930 . S
C888 N885 1.314 . S
C888 C886 1.353 . S
C888 H946 0.930 . S
C889 N885 1.279 . S
C889 C887 1.358 . S
C889 H947 0.930 . S
C890 C893 1.348 . S
C890 C894 1.356 . S
C890 O941 1.325 . S
C891 N892 1.279 . S
C891 C894 1.358 . S
C891 H948 0.930 . S
N892 C891 1.279 . S
N892 C895 1.314 . S
C893 C890 1.348 . S
C893 C895 1.353 . S
C893 H949 0.929 . S
C894 C890 1.356 . S
C894 C891 1.358 . S
C894 H950 0.930 . S
C895 N892 1.314 . S
C895 C893 1.353 . S
C895 H951 0.930 . S
C896 N897 1.314 . S
C896 C901 1.353 . S
C896 H902 0.930 . S
N897 Li880 1.990 . S
N897 C896 1.314 . S
N897 C899 1.279 . S
C898 C899 1.358 . S
C898 C900 1.356 . S
C898 H952 0.930 . S
C899 N897 1.279 . S
C899 C898 1.358 . S
C899 H903 0.930 . S
C900 C898 1.356 . S
C900 C901 1.348 . S
C901 C896 1.353 . S
C901 C900 1.348 . S
C901 H953 0.929 . S
H902 C896 0.930 . S
H903 C899 0.930 . S
C904 N905 1.314 . S
C904 C906 1.353 . S
C904 H910 0.930 . S
N905 Li881 1.990 . S
N905 C904 1.314 . S
N905 C908 1.279 . S
C906 C904 1.353 . S
C906 C909 1.348 . S
C906 H954 0.929 . S
C907 C908 1.358 . S
C907 C909 1.356 . S
C907 H955 0.930 . S
C908 N905 1.279 . S
C908 C907 1.358 . S
C908 H911 0.930 . S
C909 C906 1.348 . S
C909 C907 1.356 . S
H910 C904 0.930 . S
H911 C908 0.930 . S
C912 C914 1.348 . S
C912 C915 1.356 . S
C912 O942 1.325 . S
N913 C916 1.314 . S
N913 C917 1.279 . S
C914 C912 1.348 . S
C914 C916 1.353 . S
C914 H956 0.929 . S
C915 C912 1.356 . S
C915 C917 1.358 . S
C915 H957 0.930 . S
C916 N913 1.314 . S
C916 C914 1.353 . S
C916 H958 0.930 . S
C917 N913 1.279 . S
C917 C915 1.358 . S
C917 H959 0.930 . S
C918 C919 1.348 . S
C918 C920 1.356 . S
C918 O943 1.325 . S
C919 C918 1.348 . S
C919 C921 1.353 . S
C919 H960 0.929 . S
C920 C918 1.356 . S
C920 C922 1.358 . S
C920 H961 0.930 . S
C921 C919 1.353 . S
C921 N923 1.314 . S
C921 H962 0.930 . S
C922 C920 1.358 . S
C922 N923 1.279 . S
C922 H963 0.930 . S
N923 C921 1.314 . S
N923 C922 1.279 . S
C924 C926 1.353 . S
C924 N927 1.314 . S
C924 H930 0.930 . S
C925 N927 1.279 . S
C925 C928 1.358 . S
C925 H931 0.930 . S
C926 C924 1.353 . S
C926 C929 1.348 . S
C926 H964 0.929 . S
N927 Li882 1.990 . S
N927 C924 1.314 . S
N927 C925 1.279 . S
C928 C925 1.358 . S
C928 C929 1.356 . S
C928 H965 0.930 . S
C929 C926 1.348 . S
C929 C928 1.356 . S
H930 C924 0.930 . S
H931 C925 0.930 . S
C932 N933 1.314 . S
C932 C934 1.353 . S
C932 H938 0.930 . S
N933 Li883 1.990 . S
N933 C932 1.314 . S
N933 C936 1.279 . S
C934 C932 1.353 . S
C934 C937 1.348 . S
C934 H966 0.929 . S
C935 C936 1.358 . S
C935 C937 1.356 . S
C935 H967 0.930 . S
C936 N933 1.279 . S
C936 C935 1.358 . S
C936 H939 0.930 . S
C937 C934 1.348 . S
C937 C935 1.356 . S
H938 C932 0.930 . S
H939 C936 0.930 . S
O940 Li880 1.956 . S
O940 Li881 1.970 . S
O940 Li882 1.961 . S
O940 C884 1.325 . S
O941 Li880 1.970 . S
O941 Li881 1.956 . S
O941 Li883 1.961 . S
O941 C890 1.325 . S
O942 Li880 1.961 . S
O942 Li882 1.956 . S
O942 Li883 1.970 . S
O942 C912 1.325 . S
O943 Li881 1.961 . S
O943 Li882 1.970 . S
O943 Li883 1.956 . S
O943 C918 1.325 . S
H944 C886 0.929 . S
H945 C887 0.930 . S
H946 C888 0.930 . S
H947 C889 0.930 . S
H948 C891 0.930 . S
H949 C893 0.929 . S
H950 C894 0.930 . S
H951 C895 0.930 . S
H952 C898 0.930 . S
H953 C901 0.929 . S
H954 C906 0.929 . S
H955 C907 0.930 . S
H956 C914 0.929 . S
H957 C915 0.930 . S
H958 C916 0.930 . S
H959 C917 0.930 . S
H960 C919 0.929 . S
H961 C920 0.930 . S
H962 C921 0.930 . S
H963 C922 0.930 . S
H964 C926 0.929 . S
H965 C928 0.930 . S
H966 C934 0.929 . S
H967 C935 0.930 . S
Li968 N985 1.990 . S
Li968 O1028 1.956 . S
Li968 O1029 1.970 . S
Li968 O1030 1.961 . S
Li969 N993 1.990 . S
Li969 O1028 1.970 . S
Li969 O1029 1.956 . S
Li969 O1031 1.961 . S
Li970 N1015 1.990 . S
Li970 O1028 1.961 . S
Li970 O1030 1.956 . S
Li970 O1031 1.970 . S
Li971 N1021 1.990 . S
Li971 O1029 1.961 . S
Li971 O1030 1.970 . S
Li971 O1031 1.956 . S
C972 C974 1.348 . S
C972 C975 1.356 . S
C972 O1028 1.325 . S
N973 C976 1.314 . S
N973 C977 1.279 . S
C974 C972 1.348 . S
C974 C976 1.353 . S
C974 H1032 0.929 . S
C975 C972 1.356 . S
C975 C977 1.358 . S
C975 H1033 0.930 . S
C976 N973 1.314 . S
C976 C974 1.353 . S
C976 H1034 0.930 . S
C977 N973 1.279 . S
C977 C975 1.358 . S
C977 H1035 0.930 . S
C978 C981 1.348 . S
C978 C982 1.356 . S
C978 O1029 1.325 . S
C979 N980 1.279 . S
C979 C982 1.358 . S
C979 H1036 0.930 . S
N980 C979 1.279 . S
N980 C983 1.314 . S
C981 C978 1.348 . S
C981 C983 1.353 . S
C981 H1037 0.929 . S
C982 C978 1.356 . S
C982 C979 1.358 . S
C982 H1038 0.930 . S
C983 N980 1.314 . S
C983 C981 1.353 . S
C983 H1039 0.930 . S
C984 N985 1.314 . S
C984 C989 1.353 . S
C984 H990 0.930 . S
N985 Li968 1.990 . S
N985 C984 1.314 . S
N985 C987 1.279 . S
C986 C987 1.358 . S
C986 C988 1.356 . S
C986 H1040 0.930 . S
C987 N985 1.279 . S
C987 C986 1.358 . S
C987 H991 0.930 . S
C988 C986 1.356 . S
C988 C989 1.348 . S
C989 C984 1.353 . S
C989 C988 1.348 . S
C989 H1041 0.929 . S
H990 C984 0.930 . S
H991 C987 0.930 . S
C992 N993 1.314 . S
C992 C994 1.353 . S
C992 H998 0.930 . S
N993 Li969 1.990 . S
N993 C992 1.314 . S
N993 C996 1.279 . S
C994 C992 1.353 . S
C994 C997 1.348 . S
C994 H1042 0.929 . S
C995 C996 1.358 . S
C995 C997 1.356 . S
C995 H1043 0.930 . S
C996 N993 1.279 . S
C996 C995 1.358 . S
C996 H999 0.930 . S
C997 C994 1.348 . S
C997 C995 1.356 . S
H998 C992 0.930 . S
H999 C996 0.930 . S
C1000 C1002 1.348 . S
C1000 C1003 1.356 . S
C1000 O1030 1.325 . S
N1001 C1004 1.314 . S
N1001 C1005 1.279 . S
C1002 C1000 1.348 . S
C1002 C1004 1.353 . S
C1002 H1044 0.929 . S
C1003 C1000 1.356 . S
C1003 C1005 1.358 . S
C1003 H1045 0.930 . S
C1004 N1001 1.314 . S
C1004 C1002 1.353 . S
C1004 H1046 0.930 . S
C1005 N1001 1.279 . S
C1005 C1003 1.358 . S
C1005 H1047 0.930 . S
C1006 C1007 1.348 . S
C1006 C1008 1.356 . S
C1006 O1031 1.325 . S
C1007 C1006 1.348 . S
C1007 C1009 1.353 . S
C1007 H1048 0.929 . S
C1008 C1006 1.356 . S
C1008 C1010 1.358 . S
C1008 H1049 0.930 . S
C1009 C1007 1.353 . S
C1009 N1011 1.314 . S
C1009 H1050 0.930 . S
C1010 C1008 1.358 . S
C1010 N1011 1.279 . S
C1010 H1051 0.930 . S
N1011 C1009 1.314 . S
N1011 C1010 1.279 . S
C1012 C1014 1.353 . S
C1012 N1015 1.314 . S
C1012 H1018 0.930 . S
C1013 N1015 1.279 . S
C1013 C1016 1.358 . S
C1013 H1019 0.930 . S
C1014 C1012 1.353 . S
C1014 C1017 1.348 . S
C1014 H1052 0.929 . S
N1015 Li970 1.990 . S
N1015 C1012 1.314 . S
N1015 C1013 1.279 . S
C1016 C1013 1.358 . S
C1016 C1017 1.356 . S
C1016 H1053 0.930 . S
C1017 C1014 1.348 . S
C1017 C1016 1.356 . S
H1018 C1012 0.930 . S
H1019 C1013 0.930 . S
C1020 N1021 1.314 . S
C1020 C1022 1.353 . S
C1020 H1026 0.930 . S
N1021 Li971 1.990 . S
N1021 C1020 1.314 . S
N1021 C1024 1.279 . S
C1022 C1020 1.353 . S
C1022 C1025 1.348 . S
C1022 H1054 0.929 . S
C1023 C1024 1.358 . S
C1023 C1025 1.356 . S
C1023 H1055 0.930 . S
C1024 N1021 1.279 . S
C1024 C1023 1.358 . S
C1024 H1027 0.930 . S
C1025 C1022 1.348 . S
C1025 C1023 1.356 . S
H1026 C1020 0.930 . S
H1027 C1024 0.930 . S
O1028 Li968 1.956 . S
O1028 Li969 1.970 . S
O1028 Li970 1.961 . S
O1028 C972 1.325 . S
O1029 Li968 1.970 . S
O1029 Li969 1.956 . S
O1029 Li971 1.961 . S
O1029 C978 1.325 . S
O1030 Li968 1.961 . S
O1030 Li970 1.956 . S
O1030 Li971 1.970 . S
O1030 C1000 1.325 . S
O1031 Li969 1.961 . S
O1031 Li970 1.970 . S
O1031 Li971 1.956 . S
O1031 C1006 1.325 . S
H1032 C974 0.929 . S
H1033 C975 0.930 . S
H1034 C976 0.930 . S
H1035 C977 0.930 . S
H1036 C979 0.930 . S
H1037 C981 0.929 . S
H1038 C982 0.930 . S
H1039 C983 0.930 . S
H1040 C986 0.930 . S
H1041 C989 0.929 . S
H1042 C994 0.929 . S
H1043 C995 0.930 . S
H1044 C1002 0.929 . S
H1045 C1003 0.930 . S
H1046 C1004 0.930 . S
H1047 C1005 0.930 . S
H1048 C1007 0.929 . S
H1049 C1008 0.930 . S
H1050 C1009 0.930 . S
H1051 C1010 0.930 . S
H1052 C1014 0.929 . S
H1053 C1016 0.930 . S
H1054 C1022 0.929 . S
H1055 C1023 0.930 . S
Li1056 N1073 1.990 . S
Li1056 O1116 1.956 . S
Li1056 O1117 1.970 . S
Li1056 O1118 1.961 . S
Li1057 N1081 1.990 . S
Li1057 O1116 1.970 . S
Li1057 O1117 1.956 . S
Li1057 O1119 1.961 . S
Li1058 N1103 1.990 . S
Li1058 O1116 1.961 . S
Li1058 O1118 1.956 . S
Li1058 O1119 1.970 . S
Li1059 N1109 1.990 . S
Li1059 O1117 1.961 . S
Li1059 O1118 1.970 . S
Li1059 O1119 1.956 . S
C1060 C1062 1.348 . S
C1060 C1063 1.356 . S
C1060 O1116 1.325 . S
N1061 C1064 1.314 . S
N1061 C1065 1.279 . S
C1062 C1060 1.348 . S
C1062 C1064 1.353 . S
C1062 H1120 0.929 . S
C1063 C1060 1.356 . S
C1063 C1065 1.358 . S
C1063 H1121 0.930 . S
C1064 N1061 1.314 . S
C1064 C1062 1.353 . S
C1064 H1122 0.930 . S
C1065 N1061 1.279 . S
C1065 C1063 1.358 . S
C1065 H1123 0.930 . S
C1066 C1069 1.348 . S
C1066 C1070 1.356 . S
C1066 O1117 1.325 . S
C1067 N1068 1.279 . S
C1067 C1070 1.358 . S
C1067 H1124 0.930 . S
N1068 C1067 1.279 . S
N1068 C1071 1.314 . S
C1069 C1066 1.348 . S
C1069 C1071 1.353 . S
C1069 H1125 0.929 . S
C1070 C1066 1.356 . S
C1070 C1067 1.358 . S
C1070 H1126 0.930 . S
C1071 N1068 1.314 . S
C1071 C1069 1.353 . S
C1071 H1127 0.930 . S
C1072 N1073 1.314 . S
C1072 C1077 1.353 . S
C1072 H1078 0.930 . S
N1073 Li1056 1.990 . S
N1073 C1072 1.314 . S
N1073 C1075 1.279 . S
C1074 C1075 1.358 . S
C1074 C1076 1.356 . S
C1074 H1128 0.930 . S
C1075 N1073 1.279 . S
C1075 C1074 1.358 . S
C1075 H1079 0.930 . S
C1076 C1074 1.356 . S
C1076 C1077 1.348 . S
C1077 C1072 1.353 . S
C1077 C1076 1.348 . S
C1077 H1129 0.929 . S
H1078 C1072 0.930 . S
H1079 C1075 0.930 . S
C1080 N1081 1.314 . S
C1080 C1082 1.353 . S
C1080 H1086 0.930 . S
N1081 Li1057 1.990 . S
N1081 C1080 1.314 . S
N1081 C1084 1.279 . S
C1082 C1080 1.353 . S
C1082 C1085 1.348 . S
C1082 H1130 0.929 . S
C1083 C1084 1.358 . S
C1083 C1085 1.356 . S
C1083 H1131 0.930 . S
C1084 N1081 1.279 . S
C1084 C1083 1.358 . S
C1084 H1087 0.930 . S
C1085 C1082 1.348 . S
C1085 C1083 1.356 . S
H1086 C1080 0.930 . S
H1087 C1084 0.930 . S
C1088 C1090 1.348 . S
C1088 C1091 1.356 . S
C1088 O1118 1.325 . S
N1089 C1092 1.314 . S
N1089 C1093 1.279 . S
C1090 C1088 1.348 . S
C1090 C1092 1.353 . S
C1090 H1132 0.929 . S
C1091 C1088 1.356 . S
C1091 C1093 1.358 . S
C1091 H1133 0.930 . S
C1092 N1089 1.314 . S
C1092 C1090 1.353 . S
C1092 H1134 0.930 . S
C1093 N1089 1.279 . S
C1093 C1091 1.358 . S
C1093 H1135 0.930 . S
C1094 C1095 1.348 . S
C1094 C1096 1.356 . S
C1094 O1119 1.325 . S
C1095 C1094 1.348 . S
C1095 C1097 1.353 . S
C1095 H1136 0.929 . S
C1096 C1094 1.356 . S
C1096 C1098 1.358 . S
C1096 H1137 0.930 . S
C1097 C1095 1.353 . S
C1097 N1099 1.314 . S
C1097 H1138 0.930 . S
C1098 C1096 1.358 . S
C1098 N1099 1.279 . S
C1098 H1139 0.930 . S
N1099 C1097 1.314 . S
N1099 C1098 1.279 . S
C1100 C1102 1.353 . S
C1100 N1103 1.314 . S
C1100 H1106 0.930 . S
C1101 N1103 1.279 . S
C1101 C1104 1.358 . S
C1101 H1107 0.930 . S
C1102 C1100 1.353 . S
C1102 C1105 1.348 . S
C1102 H1140 0.929 . S
N1103 Li1058 1.990 . S
N1103 C1100 1.314 . S
N1103 C1101 1.279 . S
C1104 C1101 1.358 . S
C1104 C1105 1.356 . S
C1104 H1141 0.930 . S
C1105 C1102 1.348 . S
C1105 C1104 1.356 . S
H1106 C1100 0.930 . S
H1107 C1101 0.930 . S
C1108 N1109 1.314 . S
C1108 C1110 1.353 . S
C1108 H1114 0.930 . S
N1109 Li1059 1.990 . S
N1109 C1108 1.314 . S
N1109 C1112 1.279 . S
C1110 C1108 1.353 . S
C1110 C1113 1.348 . S
C1110 H1142 0.929 . S
C1111 C1112 1.358 . S
C1111 C1113 1.356 . S
C1111 H1143 0.930 . S
C1112 N1109 1.279 . S
C1112 C1111 1.358 . S
C1112 H1115 0.930 . S
C1113 C1110 1.348 . S
C1113 C1111 1.356 . S
H1114 C1108 0.930 . S
H1115 C1112 0.930 . S
O1116 Li1056 1.956 . S
O1116 Li1057 1.970 . S
O1116 Li1058 1.961 . S
O1116 C1060 1.325 . S
O1117 Li1056 1.970 . S
O1117 Li1057 1.956 . S
O1117 Li1059 1.961 . S
O1117 C1066 1.325 . S
O1118 Li1056 1.961 . S
O1118 Li1058 1.956 . S
O1118 Li1059 1.970 . S
O1118 C1088 1.325 . S
O1119 Li1057 1.961 . S
O1119 Li1058 1.970 . S
O1119 Li1059 1.956 . S
O1119 C1094 1.325 . S
H1120 C1062 0.929 . S
H1121 C1063 0.930 . S
H1122 C1064 0.930 . S
H1123 C1065 0.930 . S
H1124 C1067 0.930 . S
H1125 C1069 0.929 . S
H1126 C1070 0.930 . S
H1127 C1071 0.930 . S
H1128 C1074 0.930 . S
H1129 C1077 0.929 . S
H1130 C1082 0.929 . S
H1131 C1083 0.930 . S
H1132 C1090 0.929 . S
H1133 C1091 0.930 . S
H1134 C1092 0.930 . S
H1135 C1093 0.930 . S
H1136 C1095 0.929 . S
H1137 C1096 0.930 . S
H1138 C1097 0.930 . S
H1139 C1098 0.930 . S
H1140 C1102 0.929 . S
H1141 C1104 0.930 . S
H1142 C1110 0.929 . S
H1143 C1111 0.930 . S
Li1144 N1161 1.990 . S
Li1144 O1204 1.956 . S
Li1144 O1205 1.970 . S
Li1144 O1206 1.961 . S
Li1145 N1169 1.990 . S
Li1145 O1204 1.970 . S
Li1145 O1205 1.956 . S
Li1145 O1207 1.961 . S
Li1146 N1191 1.990 . S
Li1146 O1204 1.961 . S
Li1146 O1206 1.956 . S
Li1146 O1207 1.970 . S
Li1147 N1197 1.990 . S
Li1147 O1205 1.961 . S
Li1147 O1206 1.970 . S
Li1147 O1207 1.956 . S
C1148 C1150 1.348 . S
C1148 C1151 1.356 . S
C1148 O1204 1.325 . S
N1149 C1152 1.314 . S
N1149 C1153 1.279 . S
C1150 C1148 1.348 . S
C1150 C1152 1.353 . S
C1150 H1208 0.929 . S
C1151 C1148 1.356 . S
C1151 C1153 1.358 . S
C1151 H1209 0.930 . S
C1152 N1149 1.314 . S
C1152 C1150 1.353 . S
C1152 H1210 0.930 . S
C1153 N1149 1.279 . S
C1153 C1151 1.358 . S
C1153 H1211 0.930 . S
C1154 C1157 1.348 . S
C1154 C1158 1.356 . S
C1154 O1205 1.325 . S
C1155 N1156 1.279 . S
C1155 C1158 1.358 . S
C1155 H1212 0.930 . S
N1156 C1155 1.279 . S
N1156 C1159 1.314 . S
C1157 C1154 1.348 . S
C1157 C1159 1.353 . S
C1157 H1213 0.929 . S
C1158 C1154 1.356 . S
C1158 C1155 1.358 . S
C1158 H1214 0.930 . S
C1159 N1156 1.314 . S
C1159 C1157 1.353 . S
C1159 H1215 0.930 . S
C1160 N1161 1.314 . S
C1160 C1165 1.353 . S
C1160 H1166 0.930 . S
N1161 Li1144 1.990 . S
N1161 C1160 1.314 . S
N1161 C1163 1.279 . S
C1162 C1163 1.358 . S
C1162 C1164 1.356 . S
C1162 H1216 0.930 . S
C1163 N1161 1.279 . S
C1163 C1162 1.358 . S
C1163 H1167 0.930 . S
C1164 C1162 1.356 . S
C1164 C1165 1.348 . S
C1165 C1160 1.353 . S
C1165 C1164 1.348 . S
C1165 H1217 0.929 . S
H1166 C1160 0.930 . S
H1167 C1163 0.930 . S
C1168 N1169 1.314 . S
C1168 C1170 1.353 . S
C1168 H1174 0.930 . S
N1169 Li1145 1.990 . S
N1169 C1168 1.314 . S
N1169 C1172 1.279 . S
C1170 C1168 1.353 . S
C1170 C1173 1.348 . S
C1170 H1218 0.929 . S
C1171 C1172 1.358 . S
C1171 C1173 1.356 . S
C1171 H1219 0.930 . S
C1172 N1169 1.279 . S
C1172 C1171 1.358 . S
C1172 H1175 0.930 . S
C1173 C1170 1.348 . S
C1173 C1171 1.356 . S
H1174 C1168 0.930 . S
H1175 C1172 0.930 . S
C1176 C1178 1.348 . S
C1176 C1179 1.356 . S
C1176 O1206 1.325 . S
N1177 C1180 1.314 . S
N1177 C1181 1.279 . S
C1178 C1176 1.348 . S
C1178 C1180 1.353 . S
C1178 H1220 0.929 . S
C1179 C1176 1.356 . S
C1179 C1181 1.358 . S
C1179 H1221 0.930 . S
C1180 N1177 1.314 . S
C1180 C1178 1.353 . S
C1180 H1222 0.930 . S
C1181 N1177 1.279 . S
C1181 C1179 1.358 . S
C1181 H1223 0.930 . S
C1182 C1183 1.348 . S
C1182 C1184 1.356 . S
C1182 O1207 1.325 . S
C1183 C1182 1.348 . S
C1183 C1185 1.353 . S
C1183 H1224 0.929 . S
C1184 C1182 1.356 . S
C1184 C1186 1.358 . S
C1184 H1225 0.930 . S
C1185 C1183 1.353 . S
C1185 N1187 1.314 . S
C1185 H1226 0.930 . S
C1186 C1184 1.358 . S
C1186 N1187 1.279 . S
C1186 H1227 0.930 . S
N1187 C1185 1.314 . S
N1187 C1186 1.279 . S
C1188 C1190 1.353 . S
C1188 N1191 1.314 . S
C1188 H1194 0.930 . S
C1189 N1191 1.279 . S
C1189 C1192 1.358 . S
C1189 H1195 0.930 . S
C1190 C1188 1.353 . S
C1190 C1193 1.348 . S
C1190 H1228 0.929 . S
N1191 Li1146 1.990 . S
N1191 C1188 1.314 . S
N1191 C1189 1.279 . S
C1192 C1189 1.358 . S
C1192 C1193 1.356 . S
C1192 H1229 0.930 . S
C1193 C1190 1.348 . S
C1193 C1192 1.356 . S
H1194 C1188 0.930 . S
H1195 C1189 0.930 . S
C1196 N1197 1.314 . S
C1196 C1198 1.353 . S
C1196 H1202 0.930 . S
N1197 Li1147 1.990 . S
N1197 C1196 1.314 . S
N1197 C1200 1.279 . S
C1198 C1196 1.353 . S
C1198 C1201 1.348 . S
C1198 H1230 0.929 . S
C1199 C1200 1.358 . S
C1199 C1201 1.356 . S
C1199 H1231 0.930 . S
C1200 N1197 1.279 . S
C1200 C1199 1.358 . S
C1200 H1203 0.930 . S
C1201 C1198 1.348 . S
C1201 C1199 1.356 . S
H1202 C1196 0.930 . S
H1203 C1200 0.930 . S
O1204 Li1144 1.956 . S
O1204 Li1145 1.970 . S
O1204 Li1146 1.961 . S
O1204 C1148 1.325 . S
O1205 Li1144 1.970 . S
O1205 Li1145 1.956 . S
O1205 Li1147 1.961 . S
O1205 C1154 1.325 . S
O1206 Li1144 1.961 . S
O1206 Li1146 1.956 . S
O1206 Li1147 1.970 . S
O1206 C1176 1.325 . S
O1207 Li1145 1.961 . S
O1207 Li1146 1.970 . S
O1207 Li1147 1.956 . S
O1207 C1182 1.325 . S
H1208 C1150 0.929 . S
H1209 C1151 0.930 . S
H1210 C1152 0.930 . S
H1211 C1153 0.930 . S
H1212 C1155 0.930 . S
H1213 C1157 0.929 . S
H1214 C1158 0.930 . S
H1215 C1159 0.930 . S
H1216 C1162 0.930 . S
H1217 C1165 0.929 . S
H1218 C1170 0.929 . S
H1219 C1171 0.930 . S
H1220 C1178 0.929 . S
H1221 C1179 0.930 . S
H1222 C1180 0.930 . S
H1223 C1181 0.930 . S
H1224 C1183 0.929 . S
H1225 C1184 0.930 . S
H1226 C1185 0.930 . S
H1227 C1186 0.930 . S
H1228 C1190 0.929 . S
H1229 C1192 0.930 . S
H1230 C1198 0.929 . S
H1231 C1199 0.930 . S
Li1232 N1249 1.990 . S
Li1232 O1292 1.956 . S
Li1232 O1293 1.970 . S
Li1232 O1294 1.961 . S
Li1233 N1257 1.990 . S
Li1233 O1292 1.970 . S
Li1233 O1293 1.956 . S
Li1233 O1295 1.961 . S
Li1234 N1279 1.990 . S
Li1234 O1292 1.961 . S
Li1234 O1294 1.956 . S
Li1234 O1295 1.970 . S
Li1235 N1285 1.990 . S
Li1235 O1293 1.961 . S
Li1235 O1294 1.970 . S
Li1235 O1295 1.956 . S
C1236 C1238 1.348 . S
C1236 C1239 1.356 . S
C1236 O1292 1.325 . S
N1237 C1240 1.314 . S
N1237 C1241 1.279 . S
C1238 C1236 1.348 . S
C1238 C1240 1.353 . S
C1238 H1296 0.929 . S
C1239 C1236 1.356 . S
C1239 C1241 1.358 . S
C1239 H1297 0.930 . S
C1240 N1237 1.314 . S
C1240 C1238 1.353 . S
C1240 H1298 0.930 . S
C1241 N1237 1.279 . S
C1241 C1239 1.358 . S
C1241 H1299 0.930 . S
C1242 C1245 1.348 . S
C1242 C1246 1.356 . S
C1242 O1293 1.325 . S
C1243 N1244 1.279 . S
C1243 C1246 1.358 . S
C1243 H1300 0.930 . S
N1244 C1243 1.279 . S
N1244 C1247 1.314 . S
C1245 C1242 1.348 . S
C1245 C1247 1.353 . S
C1245 H1301 0.929 . S
C1246 C1242 1.356 . S
C1246 C1243 1.358 . S
C1246 H1302 0.930 . S
C1247 N1244 1.314 . S
C1247 C1245 1.353 . S
C1247 H1303 0.930 . S
C1248 N1249 1.314 . S
C1248 C1253 1.353 . S
C1248 H1254 0.930 . S
N1249 Li1232 1.990 . S
N1249 C1248 1.314 . S
N1249 C1251 1.279 . S
C1250 C1251 1.358 . S
C1250 C1252 1.356 . S
C1250 H1304 0.930 . S
C1251 N1249 1.279 . S
C1251 C1250 1.358 . S
C1251 H1255 0.930 . S
C1252 C1250 1.356 . S
C1252 C1253 1.348 . S
C1253 C1248 1.353 . S
C1253 C1252 1.348 . S
C1253 H1305 0.929 . S
H1254 C1248 0.930 . S
H1255 C1251 0.930 . S
C1256 N1257 1.314 . S
C1256 C1258 1.353 . S
C1256 H1262 0.930 . S
N1257 Li1233 1.990 . S
N1257 C1256 1.314 . S
N1257 C1260 1.279 . S
C1258 C1256 1.353 . S
C1258 C1261 1.348 . S
C1258 H1306 0.929 . S
C1259 C1260 1.358 . S
C1259 C1261 1.356 . S
C1259 H1307 0.930 . S
C1260 N1257 1.279 . S
C1260 C1259 1.358 . S
C1260 H1263 0.930 . S
C1261 C1258 1.348 . S
C1261 C1259 1.356 . S
H1262 C1256 0.930 . S
H1263 C1260 0.930 . S
C1264 C1266 1.348 . S
C1264 C1267 1.356 . S
C1264 O1294 1.325 . S
N1265 C1268 1.314 . S
N1265 C1269 1.279 . S
C1266 C1264 1.348 . S
C1266 C1268 1.353 . S
C1266 H1308 0.929 . S
C1267 C1264 1.356 . S
C1267 C1269 1.358 . S
C1267 H1309 0.930 . S
C1268 N1265 1.314 . S
C1268 C1266 1.353 . S
C1268 H1310 0.930 . S
C1269 N1265 1.279 . S
C1269 C1267 1.358 . S
C1269 H1311 0.930 . S
C1270 C1271 1.348 . S
C1270 C1272 1.356 . S
C1270 O1295 1.325 . S
C1271 C1270 1.348 . S
C1271 C1273 1.353 . S
C1271 H1312 0.929 . S
C1272 C1270 1.356 . S
C1272 C1274 1.358 . S
C1272 H1313 0.930 . S
C1273 C1271 1.353 . S
C1273 N1275 1.314 . S
C1273 H1314 0.930 . S
C1274 C1272 1.358 . S
C1274 N1275 1.279 . S
C1274 H1315 0.930 . S
N1275 C1273 1.314 . S
N1275 C1274 1.279 . S
C1276 C1278 1.353 . S
C1276 N1279 1.314 . S
C1276 H1282 0.930 . S
C1277 N1279 1.279 . S
C1277 C1280 1.358 . S
C1277 H1283 0.930 . S
C1278 C1276 1.353 . S
C1278 C1281 1.348 . S
C1278 H1316 0.929 . S
N1279 Li1234 1.990 . S
N1279 C1276 1.314 . S
N1279 C1277 1.279 . S
C1280 C1277 1.358 . S
C1280 C1281 1.356 . S
C1280 H1317 0.930 . S
C1281 C1278 1.348 . S
C1281 C1280 1.356 . S
H1282 C1276 0.930 . S
H1283 C1277 0.930 . S
C1284 N1285 1.314 . S
C1284 C1286 1.353 . S
C1284 H1290 0.930 . S
N1285 Li1235 1.990 . S
N1285 C1284 1.314 . S
N1285 C1288 1.279 . S
C1286 C1284 1.353 . S
C1286 C1289 1.348 . S
C1286 H1318 0.929 . S
C1287 C1288 1.358 . S
C1287 C1289 1.356 . S
C1287 H1319 0.930 . S
C1288 N1285 1.279 . S
C1288 C1287 1.358 . S
C1288 H1291 0.930 . S
C1289 C1286 1.348 . S
C1289 C1287 1.356 . S
H1290 C1284 0.930 . S
H1291 C1288 0.930 . S
O1292 Li1232 1.956 . S
O1292 Li1233 1.970 . S
O1292 Li1234 1.961 . S
O1292 C1236 1.325 . S
O1293 Li1232 1.970 . S
O1293 Li1233 1.956 . S
O1293 Li1235 1.961 . S
O1293 C1242 1.325 . S
O1294 Li1232 1.961 . S
O1294 Li1234 1.956 . S
O1294 Li1235 1.970 . S
O1294 C1264 1.325 . S
O1295 Li1233 1.961 . S
O1295 Li1234 1.970 . S
O1295 Li1235 1.956 . S
O1295 C1270 1.325 . S
H1296 C1238 0.929 . S
H1297 C1239 0.930 . S
H1298 C1240 0.930 . S
H1299 C1241 0.930 . S
H1300 C1243 0.930 . S
H1301 C1245 0.929 . S
H1302 C1246 0.930 . S
H1303 C1247 0.930 . S
H1304 C1250 0.930 . S
H1305 C1253 0.929 . S
H1306 C1258 0.929 . S
H1307 C1259 0.930 . S
H1308 C1266 0.929 . S
H1309 C1267 0.930 . S
H1310 C1268 0.930 . S
H1311 C1269 0.930 . S
H1312 C1271 0.929 . S
H1313 C1272 0.930 . S
H1314 C1273 0.930 . S
H1315 C1274 0.930 . S
H1316 C1278 0.929 . S
H1317 C1280 0.930 . S
H1318 C1286 0.929 . S
H1319 C1287 0.930 . S
Li1320 N1337 1.990 . S
Li1320 O1380 1.956 . S
Li1320 O1381 1.970 . S
Li1320 O1382 1.961 . S
Li1321 N1345 1.990 . S
Li1321 O1380 1.970 . S
Li1321 O1381 1.956 . S
Li1321 O1383 1.961 . S
Li1322 N1367 1.990 . S
Li1322 O1380 1.961 . S
Li1322 O1382 1.956 . S
Li1322 O1383 1.970 . S
Li1323 N1373 1.990 . S
Li1323 O1381 1.961 . S
Li1323 O1382 1.970 . S
Li1323 O1383 1.956 . S
C1324 C1326 1.348 . S
C1324 C1327 1.356 . S
C1324 O1380 1.325 . S
N1325 C1328 1.314 . S
N1325 C1329 1.279 . S
C1326 C1324 1.348 . S
C1326 C1328 1.353 . S
C1326 H1384 0.929 . S
C1327 C1324 1.356 . S
C1327 C1329 1.358 . S
C1327 H1385 0.930 . S
C1328 N1325 1.314 . S
C1328 C1326 1.353 . S
C1328 H1386 0.930 . S
C1329 N1325 1.279 . S
C1329 C1327 1.358 . S
C1329 H1387 0.930 . S
C1330 C1333 1.348 . S
C1330 C1334 1.356 . S
C1330 O1381 1.325 . S
C1331 N1332 1.279 . S
C1331 C1334 1.358 . S
C1331 H1388 0.930 . S
N1332 C1331 1.279 . S
N1332 C1335 1.314 . S
C1333 C1330 1.348 . S
C1333 C1335 1.353 . S
C1333 H1389 0.929 . S
C1334 C1330 1.356 . S
C1334 C1331 1.358 . S
C1334 H1390 0.930 . S
C1335 N1332 1.314 . S
C1335 C1333 1.353 . S
C1335 H1391 0.930 . S
C1336 N1337 1.314 . S
C1336 C1341 1.353 . S
C1336 H1342 0.930 . S
N1337 Li1320 1.990 . S
N1337 C1336 1.314 . S
N1337 C1339 1.279 . S
C1338 C1339 1.358 . S
C1338 C1340 1.356 . S
C1338 H1392 0.930 . S
C1339 N1337 1.279 . S
C1339 C1338 1.358 . S
C1339 H1343 0.930 . S
C1340 C1338 1.356 . S
C1340 C1341 1.348 . S
C1341 C1336 1.353 . S
C1341 C1340 1.348 . S
C1341 H1393 0.929 . S
H1342 C1336 0.930 . S
H1343 C1339 0.930 . S
C1344 N1345 1.314 . S
C1344 C1346 1.353 . S
C1344 H1350 0.930 . S
N1345 Li1321 1.990 . S
N1345 C1344 1.314 . S
N1345 C1348 1.279 . S
C1346 C1344 1.353 . S
C1346 C1349 1.348 . S
C1346 H1394 0.929 . S
C1347 C1348 1.358 . S
C1347 C1349 1.356 . S
C1347 H1395 0.930 . S
C1348 N1345 1.279 . S
C1348 C1347 1.358 . S
C1348 H1351 0.930 . S
C1349 C1346 1.348 . S
C1349 C1347 1.356 . S
H1350 C1344 0.930 . S
H1351 C1348 0.930 . S
C1352 C1354 1.348 . S
C1352 C1355 1.356 . S
C1352 O1382 1.325 . S
N1353 C1356 1.314 . S
N1353 C1357 1.279 . S
C1354 C1352 1.348 . S
C1354 C1356 1.353 . S
C1354 H1396 0.929 . S
C1355 C1352 1.356 . S
C1355 C1357 1.358 . S
C1355 H1397 0.930 . S
C1356 N1353 1.314 . S
C1356 C1354 1.353 . S
C1356 H1398 0.930 . S
C1357 N1353 1.279 . S
C1357 C1355 1.358 . S
C1357 H1399 0.930 . S
C1358 C1359 1.348 . S
C1358 C1360 1.356 . S
C1358 O1383 1.325 . S
C1359 C1358 1.348 . S
C1359 C1361 1.353 . S
C1359 H1400 0.929 . S
C1360 C1358 1.356 . S
C1360 C1362 1.358 . S
C1360 H1401 0.930 . S
C1361 C1359 1.353 . S
C1361 N1363 1.314 . S
C1361 H1402 0.930 . S
C1362 C1360 1.358 . S
C1362 N1363 1.279 . S
C1362 H1403 0.930 . S
N1363 C1361 1.314 . S
N1363 C1362 1.279 . S
C1364 C1366 1.353 . S
C1364 N1367 1.314 . S
C1364 H1370 0.930 . S
C1365 N1367 1.279 . S
C1365 C1368 1.358 . S
C1365 H1371 0.930 . S
C1366 C1364 1.353 . S
C1366 C1369 1.348 . S
C1366 H1404 0.929 . S
N1367 Li1322 1.990 . S
N1367 C1364 1.314 . S
N1367 C1365 1.279 . S
C1368 C1365 1.358 . S
C1368 C1369 1.356 . S
C1368 H1405 0.930 . S
C1369 C1366 1.348 . S
C1369 C1368 1.356 . S
H1370 C1364 0.930 . S
H1371 C1365 0.930 . S
C1372 N1373 1.314 . S
C1372 C1374 1.353 . S
C1372 H1378 0.930 . S
N1373 Li1323 1.990 . S
N1373 C1372 1.314 . S
N1373 C1376 1.279 . S
C1374 C1372 1.353 . S
C1374 C1377 1.348 . S
C1374 H1406 0.929 . S
C1375 C1376 1.358 . S
C1375 C1377 1.356 . S
C1375 H1407 0.930 . S
C1376 N1373 1.279 . S
C1376 C1375 1.358 . S
C1376 H1379 0.930 . S
C1377 C1374 1.348 . S
C1377 C1375 1.356 . S
H1378 C1372 0.930 . S
H1379 C1376 0.930 . S
O1380 Li1320 1.956 . S
O1380 Li1321 1.970 . S
O1380 Li1322 1.961 . S
O1380 C1324 1.325 . S
O1381 Li1320 1.970 . S
O1381 Li1321 1.956 . S
O1381 Li1323 1.961 . S
O1381 C1330 1.325 . S
O1382 Li1320 1.961 . S
O1382 Li1322 1.956 . S
O1382 Li1323 1.970 . S
O1382 C1352 1.325 . S
O1383 Li1321 1.961 . S
O1383 Li1322 1.970 . S
O1383 Li1323 1.956 . S
O1383 C1358 1.325 . S
H1384 C1326 0.929 . S
H1385 C1327 0.930 . S
H1386 C1328 0.930 . S
H1387 C1329 0.930 . S
H1388 C1331 0.930 . S
H1389 C1333 0.929 . S
H1390 C1334 0.930 . S
H1391 C1335 0.930 . S
H1392 C1338 0.930 . S
H1393 C1341 0.929 . S
H1394 C1346 0.929 . S
H1395 C1347 0.930 . S
H1396 C1354 0.929 . S
H1397 C1355 0.930 . S
H1398 C1356 0.930 . S
H1399 C1357 0.930 . S
H1400 C1359 0.929 . S
H1401 C1360 0.930 . S
H1402 C1361 0.930 . S
H1403 C1362 0.930 . S
H1404 C1366 0.929 . S
H1405 C1368 0.930 . S
H1406 C1374 0.929 . S
H1407 C1375 0.930 . S
H1408 C1414 0.930 . S
H1409 C1417 0.930 . S
H1410 C1418 0.930 . S
H1411 C1419 0.930 . S
H1412 C1422 0.930 . S
H1413 C1423 0.930 . S
C1414 H1408 0.930 . S
C1414 C1415 1.355 . S
C1414 C1416 1.415 . S
C1415 C1414 1.355 . S
C1415 C1417 1.419 . S
C1416 C1414 1.415 . S
C1416 C1421 1.425 . S
C1416 C1423 1.409 . S
C1417 H1409 0.930 . S
C1417 C1415 1.419 . S
C1417 C1418 1.362 . S
C1418 H1410 0.930 . S
C1418 C1417 1.362 . S
C1418 C1421 1.409 . S
C1419 H1411 0.930 . S
C1419 C1420 1.355 . S
C1419 C1421 1.415 . S
C1420 C1419 1.355 . S
C1420 C1422 1.419 . S
C1421 C1416 1.425 . S
C1421 C1418 1.409 . S
C1421 C1419 1.415 . S
C1422 H1412 0.930 . S
C1422 C1420 1.419 . S
C1422 C1423 1.362 . S
C1423 H1413 0.930 . S
C1423 C1416 1.409 . S
C1423 C1422 1.362 . S
H1424 C1430 0.930 . S
H1425 C1433 0.930 . S
H1426 C1434 0.930 . S
H1427 C1435 0.930 . S
H1428 C1438 0.930 . S
H1429 C1439 0.930 . S
C1430 H1424 0.930 . S
C1430 C1431 1.355 . S
C1430 C1432 1.415 . S
C1431 C1430 1.355 . S
C1431 C1433 1.419 . S
C1432 C1430 1.415 . S
C1432 C1437 1.425 . S
C1432 C1439 1.409 . S
C1433 H1425 0.930 . S
C1433 C1431 1.419 . S
C1433 C1434 1.362 . S
C1434 H1426 0.930 . S
C1434 C1433 1.362 . S
C1434 C1437 1.409 . S
C1435 H1427 0.930 . S
C1435 C1436 1.355 . S
C1435 C1437 1.415 . S
C1436 C1435 1.355 . S
C1436 C1438 1.419 . S
C1437 C1432 1.425 . S
C1437 C1434 1.409 . S
C1437 C1435 1.415 . S
C1438 H1428 0.930 . S
C1438 C1436 1.419 . S
C1438 C1439 1.362 . S
C1439 H1429 0.930 . S
C1439 C1432 1.409 . S
C1439 C1438 1.362 . S
H1440 C1446 0.930 . S
H1441 C1449 0.930 . S
H1442 C1450 0.930 . S
H1443 C1451 0.930 . S
H1444 C1454 0.930 . S
H1445 C1455 0.930 . S
C1446 H1440 0.930 . S
C1446 C1447 1.355 . S
C1446 C1448 1.415 . S
C1447 C1446 1.355 . S
C1447 C1449 1.419 . S
C1448 C1446 1.415 . S
C1448 C1453 1.425 . S
C1448 C1455 1.409 . S
C1449 H1441 0.930 . S
C1449 C1447 1.419 . S
C1449 C1450 1.362 . S
C1450 H1442 0.930 . S
C1450 C1449 1.362 . S
C1450 C1453 1.409 . S
C1451 H1443 0.930 . S
C1451 C1452 1.355 . S
C1451 C1453 1.415 . S
C1452 C1451 1.355 . S
C1452 C1454 1.419 . S
C1453 C1448 1.425 . S
C1453 C1450 1.409 . S
C1453 C1451 1.415 . S
C1454 H1444 0.930 . S
C1454 C1452 1.419 . S
C1454 C1455 1.362 . S
C1455 H1445 0.930 . S
C1455 C1448 1.409 . S
C1455 C1454 1.362 . S
H1456 C1462 0.930 . S
H1457 C1465 0.930 . S
H1458 C1466 0.930 . S
H1459 C1467 0.930 . S
H1460 C1470 0.930 . S
H1461 C1471 0.930 . S
C1462 H1456 0.930 . S
C1462 C1463 1.355 . S
C1462 C1464 1.415 . S
C1463 C1462 1.355 . S
C1463 C1465 1.419 . S
C1464 C1462 1.415 . S
C1464 C1469 1.425 . S
C1464 C1471 1.409 . S
C1465 H1457 0.930 . S
C1465 C1463 1.419 . S
C1465 C1466 1.362 . S
C1466 H1458 0.930 . S
C1466 C1465 1.362 . S
C1466 C1469 1.409 . S
C1467 H1459 0.930 . S
C1467 C1468 1.355 . S
C1467 C1469 1.415 . S
C1468 C1467 1.355 . S
C1468 C1470 1.419 . S
C1469 C1464 1.425 . S
C1469 C1466 1.409 . S
C1469 C1467 1.415 . S
C1470 H1460 0.930 . S
C1470 C1468 1.419 . S
C1470 C1471 1.362 . S
C1471 H1461 0.930 . S
C1471 C1464 1.409 . S
C1471 C1470 1.362 . S
H1472 C1478 0.930 . S
H1473 C1481 0.930 . S
H1474 C1482 0.930 . S
H1475 C1483 0.930 . S
H1476 C1486 0.930 . S
H1477 C1487 0.930 . S
C1478 H1472 0.930 . S
C1478 C1479 1.355 . S
C1478 C1480 1.415 . S
C1479 C1478 1.355 . S
C1479 C1481 1.419 . S
C1480 C1478 1.415 . S
C1480 C1485 1.425 . S
C1480 C1487 1.409 . S
C1481 H1473 0.930 . S
C1481 C1479 1.419 . S
C1481 C1482 1.362 . S
C1482 H1474 0.930 . S
C1482 C1481 1.362 . S
C1482 C1485 1.409 . S
C1483 H1475 0.930 . S
C1483 C1484 1.355 . S
C1483 C1485 1.415 . S
C1484 C1483 1.355 . S
C1484 C1486 1.419 . S
C1485 C1480 1.425 . S
C1485 C1482 1.409 . S
C1485 C1483 1.415 . S
C1486 H1476 0.930 . S
C1486 C1484 1.419 . S
C1486 C1487 1.362 . S
C1487 H1477 0.930 . S
C1487 C1480 1.409 . S
C1487 C1486 1.362 . S
H1488 C1494 0.930 . S
H1489 C1497 0.930 . S
H1490 C1498 0.930 . S
H1491 C1499 0.930 . S
H1492 C1502 0.930 . S
H1493 C1503 0.930 . S
C1494 H1488 0.930 . S
C1494 C1495 1.355 . S
C1494 C1496 1.415 . S
C1495 C1494 1.355 . S
C1495 C1497 1.419 . S
C1496 C1494 1.415 . S
C1496 C1501 1.425 . S
C1496 C1503 1.409 . S
C1497 H1489 0.930 . S
C1497 C1495 1.419 . S
C1497 C1498 1.362 . S
C1498 H1490 0.930 . S
C1498 C1497 1.362 . S
C1498 C1501 1.409 . S
C1499 H1491 0.930 . S
C1499 C1500 1.355 . S
C1499 C1501 1.415 . S
C1500 C1499 1.355 . S
C1500 C1502 1.419 . S
C1501 C1496 1.425 . S
C1501 C1498 1.409 . S
C1501 C1499 1.415 . S
C1502 H1492 0.930 . S
C1502 C1500 1.419 . S
C1502 C1503 1.362 . S
C1503 H1493 0.930 . S
C1503 C1496 1.409 . S
C1503 C1502 1.362 . S
H1504 C1510 0.930 . S
H1505 C1513 0.930 . S
H1506 C1514 0.930 . S
H1507 C1515 0.930 . S
H1508 C1518 0.930 . S
H1509 C1519 0.930 . S
C1510 H1504 0.930 . S
C1510 C1511 1.355 . S
C1510 C1512 1.415 . S
C1511 C1510 1.355 . S
C1511 C1513 1.419 . S
C1512 C1510 1.415 . S
C1512 C1517 1.425 . S
C1512 C1519 1.409 . S
C1513 H1505 0.930 . S
C1513 C1511 1.419 . S
C1513 C1514 1.362 . S
C1514 H1506 0.930 . S
C1514 C1513 1.362 . S
C1514 C1517 1.409 . S
C1515 H1507 0.930 . S
C1515 C1516 1.355 . S
C1515 C1517 1.415 . S
C1516 C1515 1.355 . S
C1516 C1518 1.419 . S
C1517 C1512 1.425 . S
C1517 C1514 1.409 . S
C1517 C1515 1.415 . S
C1518 H1508 0.930 . S
C1518 C1516 1.419 . S
C1518 C1519 1.362 . S
C1519 H1509 0.930 . S
C1519 C1512 1.409 . S
C1519 C1518 1.362 . S
H1520 C1526 0.930 . S
H1521 C1529 0.930 . S
H1522 C1530 0.930 . S
H1523 C1531 0.930 . S
H1524 C1534 0.930 . S
H1525 C1535 0.930 . S
C1526 H1520 0.930 . S
C1526 C1527 1.355 . S
C1526 C1528 1.415 . S
C1527 C1526 1.355 . S
C1527 C1529 1.419 . S
C1528 C1526 1.415 . S
C1528 C1533 1.425 . S
C1528 C1535 1.409 . S
C1529 H1521 0.930 . S
C1529 C1527 1.419 . S
C1529 C1530 1.362 . S
C1530 H1522 0.930 . S
C1530 C1529 1.362 . S
C1530 C1533 1.409 . S
C1531 H1523 0.930 . S
C1531 C1532 1.355 . S
C1531 C1533 1.415 . S
C1532 C1531 1.355 . S
C1532 C1534 1.419 . S
C1533 C1528 1.425 . S
C1533 C1530 1.409 . S
C1533 C1531 1.415 . S
C1534 H1524 0.930 . S
C1534 C1532 1.419 . S
C1534 C1535 1.362 . S
C1535 H1525 0.930 . S
C1535 C1528 1.409 . S
C1535 C1534 1.362 . S
H1536 C1542 0.930 . S
H1537 C1545 0.930 . S
H1538 C1546 0.930 . S
H1539 C1547 0.930 . S
H1540 C1550 0.930 . S
H1541 C1551 0.930 . S
C1542 H1536 0.930 . S
C1542 C1543 1.355 . S
C1542 C1544 1.415 . S
C1543 C1542 1.355 . S
C1543 C1545 1.419 . S
C1544 C1542 1.415 . S
C1544 C1549 1.425 1_556 S
C1544 C1551 1.409 1_556 S
C1545 H1537 0.930 . S
C1545 C1543 1.419 . S
C1545 C1546 1.362 . S
C1546 H1538 0.930 . S
C1546 C1545 1.362 . S
C1546 C1549 1.409 1_556 S
C1547 H1539 0.930 . S
C1547 C1548 1.355 . S
C1547 C1549 1.415 . S
C1548 C1547 1.355 . S
C1548 C1550 1.419 . S
C1549 C1544 1.425 1_554 S
C1549 C1546 1.409 1_554 S
C1549 C1547 1.415 . S
C1550 H1540 0.930 . S
C1550 C1548 1.419 . S
C1550 C1551 1.362 . S
C1551 H1541 0.930 . S
C1551 C1544 1.409 1_554 S
C1551 C1550 1.362 . S
H1552 C1558 0.930 . S
H1553 C1561 0.930 . S
H1554 C1562 0.930 . S
H1555 C1563 0.930 . S
H1556 C1566 0.930 . S
H1557 C1567 0.930 . S
C1558 H1552 0.930 . S
C1558 C1559 1.355 . S
C1558 C1560 1.415 . S
C1559 C1558 1.355 . S
C1559 C1561 1.419 . S
C1560 C1558 1.415 . S
C1560 C1565 1.425 1_556 S
C1560 C1567 1.409 1_556 S
C1561 H1553 0.930 . S
C1561 C1559 1.419 . S
C1561 C1562 1.362 . S
C1562 H1554 0.930 . S
C1562 C1561 1.362 . S
C1562 C1565 1.409 1_556 S
C1563 H1555 0.930 . S
C1563 C1564 1.355 . S
C1563 C1565 1.415 . S
C1564 C1563 1.355 . S
C1564 C1566 1.419 . S
C1565 C1560 1.425 1_554 S
C1565 C1562 1.409 1_554 S
C1565 C1563 1.415 . S
C1566 H1556 0.930 . S
C1566 C1564 1.419 . S
C1566 C1567 1.362 . S
C1567 H1557 0.930 . S
C1567 C1560 1.409 1_554 S
C1567 C1566 1.362 . S
H1568 C1574 0.930 . S
H1569 C1577 0.930 . S
H1570 C1578 0.930 . S
H1571 C1579 0.930 . S
H1572 C1582 0.930 . S
H1573 C1583 0.930 . S
C1574 H1568 0.930 . S
C1574 C1575 1.355 . S
C1574 C1576 1.415 . S
C1575 C1574 1.355 . S
C1575 C1577 1.419 . S
C1576 C1574 1.415 . S
C1576 C1581 1.425 1_556 S
C1576 C1583 1.409 1_556 S
C1577 H1569 0.930 . S
C1577 C1575 1.419 . S
C1577 C1578 1.362 . S
C1578 H1570 0.930 . S
C1578 C1577 1.362 . S
C1578 C1581 1.409 1_556 S
C1579 H1571 0.930 . S
C1579 C1580 1.355 . S
C1579 C1581 1.415 . S
C1580 C1579 1.355 . S
C1580 C1582 1.419 . S
C1581 C1576 1.425 1_554 S
C1581 C1578 1.409 1_554 S
C1581 C1579 1.415 . S
C1582 H1572 0.930 . S
C1582 C1580 1.419 . S
C1582 C1583 1.362 . S
C1583 H1573 0.930 . S
C1583 C1576 1.409 1_554 S
C1583 C1582 1.362 . S
H1584 C1590 0.930 . S
H1585 C1593 0.930 . S
H1586 C1594 0.930 . S
H1587 C1595 0.930 . S
H1588 C1598 0.930 . S
H1589 C1599 0.930 . S
C1590 H1584 0.930 . S
C1590 C1591 1.355 . S
C1590 C1592 1.415 . S
C1591 C1590 1.355 . S
C1591 C1593 1.419 . S
C1592 C1590 1.415 . S
C1592 C1597 1.425 1_554 S
C1592 C1599 1.409 1_554 S
C1593 H1585 0.930 . S
C1593 C1591 1.419 . S
C1593 C1594 1.362 . S
C1594 H1586 0.930 . S
C1594 C1593 1.362 . S
C1594 C1597 1.409 1_554 S
C1595 H1587 0.930 . S
C1595 C1596 1.355 . S
C1595 C1597 1.415 . S
C1596 C1595 1.355 . S
C1596 C1598 1.419 . S
C1597 C1592 1.425 1_556 S
C1597 C1594 1.409 1_556 S
C1597 C1595 1.415 . S
C1598 H1588 0.930 . S
C1598 C1596 1.419 . S
C1598 C1599 1.362 . S
C1599 H1589 0.930 . S
C1599 C1592 1.409 1_556 S
C1599 C1598 1.362 . S
H1600 C1606 0.930 . S
H1601 C1609 0.930 . S
H1602 C1610 0.930 . S
H1603 C1611 0.930 . S
H1604 C1614 0.930 . S
H1605 C1615 0.930 . S
C1606 H1600 0.930 . S
C1606 C1607 1.355 . S
C1606 C1608 1.415 . S
C1607 C1606 1.355 . S
C1607 C1609 1.419 . S
C1608 C1606 1.415 . S
C1608 C1613 1.425 1_455 S
C1608 C1615 1.409 1_455 S
C1609 H1601 0.930 . S
C1609 C1607 1.419 . S
C1609 C1610 1.362 . S
C1610 H1602 0.930 . S
C1610 C1609 1.362 . S
C1610 C1613 1.409 1_455 S
C1611 H1603 0.930 . S
C1611 C1612 1.355 . S
C1611 C1613 1.415 . S
C1612 C1611 1.355 . S
C1612 C1614 1.419 . S
C1613 C1608 1.425 1_655 S
C1613 C1610 1.409 1_655 S
C1613 C1611 1.415 . S
C1614 H1604 0.930 . S
C1614 C1612 1.419 . S
C1614 C1615 1.362 . S
C1615 H1605 0.930 . S
C1615 C1608 1.409 1_655 S
C1615 C1614 1.362 . S
H1616 C1622 0.930 . S
H1617 C1625 0.930 . S
H1618 C1626 0.930 . S
H1619 C1627 0.930 . S
H1620 C1630 0.930 . S
H1621 C1631 0.930 . S
C1622 H1616 0.930 . S
C1622 C1623 1.355 . S
C1622 C1624 1.415 . S
C1623 C1622 1.355 . S
C1623 C1625 1.419 . S
C1624 C1622 1.415 . S
C1624 C1629 1.425 1_565 S
C1624 C1631 1.409 1_565 S
C1625 H1617 0.930 . S
C1625 C1623 1.419 . S
C1625 C1626 1.362 . S
C1626 H1618 0.930 . S
C1626 C1625 1.362 . S
C1626 C1629 1.409 1_565 S
C1627 H1619 0.930 . S
C1627 C1628 1.355 . S
C1627 C1629 1.415 . S
C1628 C1627 1.355 . S
C1628 C1630 1.419 . S
C1629 C1624 1.425 1_545 S
C1629 C1626 1.409 1_545 S
C1629 C1627 1.415 . S
C1630 H1620 0.930 . S
C1630 C1628 1.419 . S
C1630 C1631 1.362 . S
C1631 H1621 0.930 . S
C1631 C1624 1.409 1_545 S
C1631 C1630 1.362 . S
H1632 C1638 0.930 . S
H1633 C1641 0.930 . S
H1634 C1642 0.930 . S
H1635 C1643 0.930 . S
H1636 C1646 0.930 . S
H1637 C1647 0.930 . S
C1638 H1632 0.930 . S
C1638 C1639 1.355 . S
C1638 C1640 1.415 . S
C1639 C1638 1.355 . S
C1639 C1641 1.419 . S
C1640 C1638 1.415 . S
C1640 C1645 1.425 1_655 S
C1640 C1647 1.409 1_655 S
C1641 H1633 0.930 . S
C1641 C1639 1.419 . S
C1641 C1642 1.362 . S
C1642 H1634 0.930 . S
C1642 C1641 1.362 . S
C1642 C1645 1.409 1_655 S
C1643 H1635 0.930 . S
C1643 C1644 1.355 . S
C1643 C1645 1.415 . S
C1644 C1643 1.355 . S
C1644 C1646 1.419 . S
C1645 C1640 1.425 1_455 S
C1645 C1642 1.409 1_455 S
C1645 C1643 1.415 . S
C1646 H1636 0.930 . S
C1646 C1644 1.419 . S
C1646 C1647 1.362 . S
C1647 H1637 0.930 . S
C1647 C1640 1.409 1_455 S
C1647 C1646 1.362 . S
H1648 C1654 0.930 . S
H1649 C1657 0.930 . S
H1650 C1658 0.930 . S
H1651 C1659 0.930 . S
H1652 C1662 0.930 . S
H1653 C1663 0.930 . S
C1654 H1648 0.930 . S
C1654 C1655 1.355 . S
C1654 C1656 1.415 . S
C1655 C1654 1.355 . S
C1655 C1657 1.419 . S
C1656 C1654 1.415 . S
C1656 C1661 1.425 1_545 S
C1656 C1663 1.409 1_545 S
C1657 H1649 0.930 . S
C1657 C1655 1.419 . S
C1657 C1658 1.362 . S
C1658 H1650 0.930 . S
C1658 C1657 1.362 . S
C1658 C1661 1.409 1_545 S
C1659 H1651 0.930 . S
C1659 C1660 1.355 . S
C1659 C1661 1.415 . S
C1660 C1659 1.355 . S
C1660 C1662 1.419 . S
C1661 C1656 1.425 1_565 S
C1661 C1658 1.409 1_565 S
C1661 C1659 1.415 . S
C1662 H1652 0.930 . S
C1662 C1660 1.419 . S
C1662 C1663 1.362 . S
C1663 H1653 0.930 . S
C1663 C1656 1.409 1_565 S
C1663 C1662 1.362 . S
H1664 C1670 0.930 . S
H1665 C1673 0.930 . S
H1666 C1674 0.930 . S
H1667 C1675 0.930 . S
H1668 C1678 0.930 . S
H1669 C1679 0.930 . S
C1670 H1664 0.930 . S
C1670 C1671 1.355 . S
C1670 C1672 1.415 . S
C1671 C1670 1.355 . S
C1671 C1673 1.419 . S
C1672 C1670 1.415 . S
C1672 C1677 1.425 1_655 S
C1672 C1679 1.409 1_655 S
C1673 H1665 0.930 . S
C1673 C1671 1.419 . S
C1673 C1674 1.362 . S
C1674 H1666 0.930 . S
C1674 C1673 1.362 . S
C1674 C1677 1.409 1_655 S
C1675 H1667 0.930 . S
C1675 C1676 1.355 . S
C1675 C1677 1.415 . S
C1676 C1675 1.355 . S
C1676 C1678 1.419 . S
C1677 C1672 1.425 1_455 S
C1677 C1674 1.409 1_455 S
C1677 C1675 1.415 . S
C1678 H1668 0.930 . S
C1678 C1676 1.419 . S
C1678 C1679 1.362 . S
C1679 H1669 0.930 . S
C1679 C1672 1.409 1_455 S
C1679 C1678 1.362 . S
H1680 C1686 0.930 . S
H1681 C1689 0.930 . S
H1682 C1690 0.930 . S
H1683 C1691 0.930 . S
H1684 C1694 0.930 . S
H1685 C1695 0.930 . S
C1686 H1680 0.930 . S
C1686 C1687 1.355 . S
C1686 C1688 1.415 . S
C1687 C1686 1.355 . S
C1687 C1689 1.419 . S
C1688 C1686 1.415 . S
C1688 C1693 1.425 1_565 S
C1688 C1695 1.409 1_565 S
C1689 H1681 0.930 . S
C1689 C1687 1.419 . S
C1689 C1690 1.362 . S
C1690 H1682 0.930 . S
C1690 C1689 1.362 . S
C1690 C1693 1.409 1_565 S
C1691 H1683 0.930 . S
C1691 C1692 1.355 . S
C1691 C1693 1.415 . S
C1692 C1691 1.355 . S
C1692 C1694 1.419 . S
C1693 C1688 1.425 1_545 S
C1693 C1690 1.409 1_545 S
C1693 C1691 1.415 . S
C1694 H1684 0.930 . S
C1694 C1692 1.419 . S
C1694 C1695 1.362 . S
C1695 H1685 0.930 . S
C1695 C1688 1.409 1_545 S
C1695 C1694 1.362 . S
H1696 C1702 0.930 . S
H1697 C1705 0.930 . S
H1698 C1706 0.930 . S
H1699 C1707 0.930 . S
H1700 C1710 0.930 . S
H1701 C1711 0.930 . S
C1702 H1696 0.930 . S
C1702 C1703 1.355 . S
C1702 C1704 1.415 . S
C1703 C1702 1.355 . S
C1703 C1705 1.419 . S
C1704 C1702 1.415 . S
C1704 C1709 1.425 1_455 S
C1704 C1711 1.409 1_455 S
C1705 H1697 0.930 . S
C1705 C1703 1.419 . S
C1705 C1706 1.362 . S
C1706 H1698 0.930 . S
C1706 C1705 1.362 . S
C1706 C1709 1.409 1_455 S
C1707 H1699 0.930 . S
C1707 C1708 1.355 . S
C1707 C1709 1.415 . S
C1708 C1707 1.355 . S
C1708 C1710 1.419 . S
C1709 C1704 1.425 1_655 S
C1709 C1706 1.409 1_655 S
C1709 C1707 1.415 . S
C1710 H1700 0.930 . S
C1710 C1708 1.419 . S
C1710 C1711 1.362 . S
C1711 H1701 0.930 . S
C1711 C1704 1.409 1_655 S
C1711 C1710 1.362 . S
H1712 C1718 0.930 . S
H1713 C1721 0.930 . S
H1714 C1722 0.930 . S
H1715 C1723 0.930 . S
H1716 C1726 0.930 . S
H1717 C1727 0.930 . S
C1718 H1712 0.930 . S
C1718 C1719 1.355 . S
C1718 C1720 1.415 . S
C1719 C1718 1.355 . S
C1719 C1721 1.419 . S
C1720 C1718 1.415 . S
C1720 C1725 1.425 1_565 S
C1720 C1727 1.409 1_565 S
C1721 H1713 0.930 . S
C1721 C1719 1.419 . S
C1721 C1722 1.362 . S
C1722 H1714 0.930 . S
C1722 C1721 1.362 . S
C1722 C1725 1.409 1_565 S
C1723 H1715 0.930 . S
C1723 C1724 1.355 . S
C1723 C1725 1.415 . S
C1724 C1723 1.355 . S
C1724 C1726 1.419 . S
C1725 C1720 1.425 1_545 S
C1725 C1722 1.409 1_545 S
C1725 C1723 1.415 . S
C1726 H1716 0.930 . S
C1726 C1724 1.419 . S
C1726 C1727 1.362 . S
C1727 H1717 0.930 . S
C1727 C1720 1.409 1_545 S
C1727 C1726 1.362 . S
H1728 C1734 0.930 . S
H1729 C1737 0.930 . S
H1730 C1738 0.930 . S
H1731 C1739 0.930 . S
H1732 C1742 0.930 . S
H1733 C1743 0.930 . S
C1734 H1728 0.930 . S
C1734 C1735 1.355 . S
C1734 C1736 1.415 . S
C1735 C1734 1.355 . S
C1735 C1737 1.419 . S
C1736 C1734 1.415 . S
C1736 C1741 1.425 . S
C1736 C1743 1.409 . S
C1737 H1729 0.930 . S
C1737 C1735 1.419 . S
C1737 C1738 1.362 . S
C1738 H1730 0.930 . S
C1738 C1737 1.362 . S
C1738 C1741 1.409 . S
C1739 H1731 0.930 . S
C1739 C1740 1.355 . S
C1739 C1741 1.415 . S
C1740 C1739 1.355 . S
C1740 C1742 1.419 . S
C1741 C1736 1.425 . S
C1741 C1738 1.409 . S
C1741 C1739 1.415 . S
C1742 H1732 0.930 . S
C1742 C1740 1.419 . S
C1742 C1743 1.362 . S
C1743 H1733 0.930 . S
C1743 C1736 1.409 . S
C1743 C1742 1.362 . S
H1744 C1750 0.930 . S
H1745 C1753 0.930 . S
H1746 C1754 0.930 . S
H1747 C1755 0.930 . S
H1748 C1758 0.930 . S
H1749 C1759 0.930 . S
C1750 H1744 0.930 . S
C1750 C1751 1.355 . S
C1750 C1752 1.415 . S
C1751 C1750 1.355 . S
C1751 C1753 1.419 . S
C1752 C1750 1.415 . S
C1752 C1757 1.425 . S
C1752 C1759 1.409 . S
C1753 H1745 0.930 . S
C1753 C1751 1.419 . S
C1753 C1754 1.362 . S
C1754 H1746 0.930 . S
C1754 C1753 1.362 . S
C1754 C1757 1.409 . S
C1755 H1747 0.930 . S
C1755 C1756 1.355 . S
C1755 C1757 1.415 . S
C1756 C1755 1.355 . S
C1756 C1758 1.419 . S
C1757 C1752 1.425 . S
C1757 C1754 1.409 . S
C1757 C1755 1.415 . S
C1758 H1748 0.930 . S
C1758 C1756 1.419 . S
C1758 C1759 1.362 . S
C1759 H1749 0.930 . S
C1759 C1752 1.409 . S
C1759 C1758 1.362 . S
H1760 C1766 0.930 . S
H1761 C1769 0.930 . S
H1762 C1770 0.930 . S
H1763 C1771 0.930 . S
H1764 C1774 0.930 . S
H1765 C1775 0.930 . S
C1766 H1760 0.930 . S
C1766 C1767 1.355 . S
C1766 C1768 1.415 . S
C1767 C1766 1.355 . S
C1767 C1769 1.419 . S
C1768 C1766 1.415 . S
C1768 C1773 1.425 . S
C1768 C1775 1.409 . S
C1769 H1761 0.930 . S
C1769 C1767 1.419 . S
C1769 C1770 1.362 . S
C1770 H1762 0.930 . S
C1770 C1769 1.362 . S
C1770 C1773 1.409 . S
C1771 H1763 0.930 . S
C1771 C1772 1.355 . S
C1771 C1773 1.415 . S
C1772 C1771 1.355 . S
C1772 C1774 1.419 . S
C1773 C1768 1.425 . S
C1773 C1770 1.409 . S
C1773 C1771 1.415 . S
C1774 H1764 0.930 . S
C1774 C1772 1.419 . S
C1774 C1775 1.362 . S
C1775 H1765 0.930 . S
C1775 C1768 1.409 . S
C1775 C1774 1.362 . S
H1776 C1782 0.930 . S
H1777 C1785 0.930 . S
H1778 C1786 0.930 . S
H1779 C1787 0.930 . S
H1780 C1790 0.930 . S
H1781 C1791 0.930 . S
C1782 H1776 0.930 . S
C1782 C1783 1.355 . S
C1782 C1784 1.415 . S
C1783 C1782 1.355 . S
C1783 C1785 1.419 . S
C1784 C1782 1.415 . S
C1784 C1789 1.425 . S
C1784 C1791 1.409 . S
C1785 H1777 0.930 . S
C1785 C1783 1.419 . S
C1785 C1786 1.362 . S
C1786 H1778 0.930 . S
C1786 C1785 1.362 . S
C1786 C1789 1.409 . S
C1787 H1779 0.930 . S
C1787 C1788 1.355 . S
C1787 C1789 1.415 . S
C1788 C1787 1.355 . S
C1788 C1790 1.419 . S
C1789 C1784 1.425 . S
C1789 C1786 1.409 . S
C1789 C1787 1.415 . S
C1790 H1780 0.930 . S
C1790 C1788 1.419 . S
C1790 C1791 1.362 . S
C1791 H1781 0.930 . S
C1791 C1784 1.409 . S
C1791 C1790 1.362 . S
H1792 C1798 0.930 . S
H1793 C1801 0.930 . S
H1794 C1802 0.930 . S
H1795 C1803 0.930 . S
H1796 C1806 0.930 . S
H1797 C1807 0.930 . S
C1798 H1792 0.930 . S
C1798 C1799 1.355 . S
C1798 C1800 1.415 . S
C1799 C1798 1.355 . S
C1799 C1801 1.419 . S
C1800 C1798 1.415 . S
C1800 C1805 1.425 . S
C1800 C1807 1.409 . S
C1801 H1793 0.930 . S
C1801 C1799 1.419 . S
C1801 C1802 1.362 . S
C1802 H1794 0.930 . S
C1802 C1801 1.362 . S
C1802 C1805 1.409 . S
C1803 H1795 0.930 . S
C1803 C1804 1.355 . S
C1803 C1805 1.415 . S
C1804 C1803 1.355 . S
C1804 C1806 1.419 . S
C1805 C1800 1.425 . S
C1805 C1802 1.409 . S
C1805 C1803 1.415 . S
C1806 H1796 0.930 . S
C1806 C1804 1.419 . S
C1806 C1807 1.362 . S
C1807 H1797 0.930 . S
C1807 C1800 1.409 . S
C1807 C1806 1.362 . S
H1808 C1814 0.930 . S
H1809 C1817 0.930 . S
H1810 C1818 0.930 . S
H1811 C1819 0.930 . S
H1812 C1822 0.930 . S
H1813 C1823 0.930 . S
C1814 H1808 0.930 . S
C1814 C1815 1.355 . S
C1814 C1816 1.415 . S
C1815 C1814 1.355 . S
C1815 C1817 1.419 . S
C1816 C1814 1.415 . S
C1816 C1821 1.425 . S
C1816 C1823 1.409 . S
C1817 H1809 0.930 . S
C1817 C1815 1.419 . S
C1817 C1818 1.362 . S
C1818 H1810 0.930 . S
C1818 C1817 1.362 . S
C1818 C1821 1.409 . S
C1819 H1811 0.930 . S
C1819 C1820 1.355 . S
C1819 C1821 1.415 . S
C1820 C1819 1.355 . S
C1820 C1822 1.419 . S
C1821 C1816 1.425 . S
C1821 C1818 1.409 . S
C1821 C1819 1.415 . S
C1822 H1812 0.930 . S
C1822 C1820 1.419 . S
C1822 C1823 1.362 . S
C1823 H1813 0.930 . S
C1823 C1816 1.409 . S
C1823 C1822 1.362 . S
H1824 C1830 0.930 . S
H1825 C1833 0.930 . S
H1826 C1834 0.930 . S
H1827 C1835 0.930 . S
H1828 C1838 0.930 . S
H1829 C1839 0.930 . S
C1830 H1824 0.930 . S
C1830 C1831 1.355 . S
C1830 C1832 1.415 . S
C1831 C1830 1.355 . S
C1831 C1833 1.419 . S
C1832 C1830 1.415 . S
C1832 C1837 1.425 . S
C1832 C1839 1.409 . S
C1833 H1825 0.930 . S
C1833 C1831 1.419 . S
C1833 C1834 1.362 . S
C1834 H1826 0.930 . S
C1834 C1833 1.362 . S
C1834 C1837 1.409 . S
C1835 H1827 0.930 . S
C1835 C1836 1.355 . S
C1835 C1837 1.415 . S
C1836 C1835 1.355 . S
C1836 C1838 1.419 . S
C1837 C1832 1.425 . S
C1837 C1834 1.409 . S
C1837 C1835 1.415 . S
C1838 H1828 0.930 . S
C1838 C1836 1.419 . S
C1838 C1839 1.362 . S
C1839 H1829 0.930 . S
C1839 C1832 1.409 . S
C1839 C1838 1.362 . S
H1840 C1846 0.930 . S
H1841 C1849 0.930 . S
H1842 C1850 0.930 . S
H1843 C1851 0.930 . S
H1844 C1854 0.930 . S
H1845 C1855 0.930 . S
C1846 H1840 0.930 . S
C1846 C1847 1.355 . S
C1846 C1848 1.415 . S
C1847 C1846 1.355 . S
C1847 C1849 1.419 . S
C1848 C1846 1.415 . S
C1848 C1853 1.425 . S
C1848 C1855 1.409 . S
C1849 H1841 0.930 . S
C1849 C1847 1.419 . S
C1849 C1850 1.362 . S
C1850 H1842 0.930 . S
C1850 C1849 1.362 . S
C1850 C1853 1.409 . S
C1851 H1843 0.930 . S
C1851 C1852 1.355 . S
C1851 C1853 1.415 . S
C1852 C1851 1.355 . S
C1852 C1854 1.419 . S
C1853 C1848 1.425 . S
C1853 C1850 1.409 . S
C1853 C1851 1.415 . S
C1854 H1844 0.930 . S
C1854 C1852 1.419 . S
C1854 C1855 1.362 . S
C1855 H1845 0.930 . S
C1855 C1848 1.409 . S
C1855 C1854 1.362 . S
H1856 C1862 0.930 . S
H1857 C1865 0.930 . S
H1858 C1866 0.930 . S
H1859 C1867 0.930 . S
H1860 C1870 0.930 . S
H1861 C1871 0.930 . S
C1862 H1856 0.930 . S
C1862 C1863 1.355 . S
C1862 C1864 1.415 . S
C1863 C1862 1.355 . S
C1863 C1865 1.419 . S
C1864 C1862 1.415 . S
C1864 C1869 1.425 . S
C1864 C1871 1.409 . S
C1865 H1857 0.930 . S
C1865 C1863 1.419 . S
C1865 C1866 1.362 . S
C1866 H1858 0.930 . S
C1866 C1865 1.362 . S
C1866 C1869 1.409 . S
C1867 H1859 0.930 . S
C1867 C1868 1.355 . S
C1867 C1869 1.415 . S
C1868 C1867 1.355 . S
C1868 C1870 1.419 . S
C1869 C1864 1.425 . S
C1869 C1866 1.409 . S
C1869 C1867 1.415 . S
C1870 H1860 0.930 . S
C1870 C1868 1.419 . S
C1870 C1871 1.362 . S
C1871 H1861 0.930 . S
C1871 C1864 1.409 . S
C1871 C1870 1.362 . S
H1872 C1878 0.930 . S
H1873 C1881 0.930 . S
H1874 C1882 0.930 . S
H1875 C1883 0.930 . S
H1876 C1886 0.930 . S
H1877 C1887 0.930 . S
C1878 H1872 0.930 . S
C1878 C1879 1.355 . S
C1878 C1880 1.415 . S
C1879 C1878 1.355 . S
C1879 C1881 1.419 . S
C1880 C1878 1.415 . S
C1880 C1885 1.425 . S
C1880 C1887 1.409 . S
C1881 H1873 0.930 . S
C1881 C1879 1.419 . S
C1881 C1882 1.362 . S
C1882 H1874 0.930 . S
C1882 C1881 1.362 . S
C1882 C1885 1.409 . S
C1883 H1875 0.930 . S
C1883 C1884 1.355 . S
C1883 C1885 1.415 . S
C1884 C1883 1.355 . S
C1884 C1886 1.419 . S
C1885 C1880 1.425 . S
C1885 C1882 1.409 . S
C1885 C1883 1.415 . S
C1886 H1876 0.930 . S
C1886 C1884 1.419 . S
C1886 C1887 1.362 . S
C1887 H1877 0.930 . S
C1887 C1880 1.409 . S
C1887 C1886 1.362 . S
H1888 C1894 0.930 . S
H1889 C1897 0.930 . S
H1890 C1898 0.930 . S
H1891 C1899 0.930 . S
H1892 C1902 0.930 . S
H1893 C1903 0.930 . S
C1894 H1888 0.930 . S
C1894 C1895 1.355 . S
C1894 C1896 1.415 . S
C1895 C1894 1.355 . S
C1895 C1897 1.419 . S
C1896 C1894 1.415 . S
C1896 C1901 1.425 . S
C1896 C1903 1.409 . S
C1897 H1889 0.930 . S
C1897 C1895 1.419 . S
C1897 C1898 1.362 . S
C1898 H1890 0.930 . S
C1898 C1897 1.362 . S
C1898 C1901 1.409 . S
C1899 H1891 0.930 . S
C1899 C1900 1.355 . S
C1899 C1901 1.415 . S
C1900 C1899 1.355 . S
C1900 C1902 1.419 . S
C1901 C1896 1.425 . S
C1901 C1898 1.409 . S
C1901 C1899 1.415 . S
C1902 H1892 0.930 . S
C1902 C1900 1.419 . S
C1902 C1903 1.362 . S
C1903 H1893 0.930 . S
C1903 C1896 1.409 . S
C1903 C1902 1.362 . S
H1904 C1910 0.930 . S
H1905 C1913 0.930 . S
H1906 C1914 0.930 . S
H1907 C1915 0.930 . S
H1908 C1918 0.930 . S
H1909 C1919 0.930 . S
C1910 H1904 0.930 . S
C1910 C1911 1.355 . S
C1910 C1912 1.415 . S
C1911 C1910 1.355 . S
C1911 C1913 1.419 . S
C1912 C1910 1.415 . S
C1912 C1917 1.425 . S
C1912 C1919 1.409 . S
C1913 H1905 0.930 . S
C1913 C1911 1.419 . S
C1913 C1914 1.362 . S
C1914 H1906 0.930 . S
C1914 C1913 1.362 . S
C1914 C1917 1.409 . S
C1915 H1907 0.930 . S
C1915 C1916 1.355 . S
C1915 C1917 1.415 . S
C1916 C1915 1.355 . S
C1916 C1918 1.419 . S
C1917 C1912 1.425 . S
C1917 C1914 1.409 . S
C1917 C1915 1.415 . S
C1918 H1908 0.930 . S
C1918 C1916 1.419 . S
C1918 C1919 1.362 . S
C1919 H1909 0.930 . S
C1919 C1912 1.409 . S
C1919 C1918 1.362 . S
C1415 C1377 0.584 . S
C1420 C29 0.593 . S
C1431 C1105 0.589 . S
C1436 C108 0.598 . S
C1447 C233 0.593 . S
C1452 C1193 0.589 . S
C1463 C1289 0.591 . S
C1468 C293 0.594 . S
C1479 C821 0.590 . S
C1484 C401 0.586 . S
C1495 C489 0.584 . S
C1500 C937 0.592 . S
C1511 C577 0.596 . S
C1516 C997 0.592 . S
C1527 C673 0.590 . S
C1532 C724 0.585 . S
C1543 C460 1.479 . S
C1548 C20 1.504 . S
C1559 C557 1.471 . S
C1564 C145 1.510 . S
C1575 C645 1.500 . S
C1580 C225 1.486 . S
C1591 C321 1.498 . S
C1596 C381 1.491 . S
C1607 C57 1.514 . S
C1612 C137 1.489 . S
C1623 C196 1.472 . S
C1628 C117 1.507 . S
C1639 C205 1.489 . S
C1644 C284 1.500 . S
C1655 C49 1.475 . S
C1660 C313 1.482 . S
C1671 C665 1.499 . S
C1676 C409 1.462 . S
C1687 C372 1.511 . S
C1692 C469 1.486 . S
C1703 C497 1.509 . S
C1708 C585 1.473 . S
C1719 C636 1.525 . S
C1724 C548 1.496 . S
C1735 C1164 1.483 . S
C1740 C733 1.499 . S
C1751 C841 1.483 . S
C1756 C1252 1.494 . S
C1767 C1349 1.511 . S
C1772 C929 1.473 . S
C1783 C1085 1.473 . S
C1788 C1025 1.514 . S
C1799 C753 1.488 . S
C1804 C849 1.515 . S
C1815 C812 1.490 . S
C1820 C900 1.489 . S
C1831 C988 1.493 . S
C1836 C909 1.497 . S
C1847 C761 1.495 . S
C1852 C1017 1.462 . S
C1863 C1369 1.497 . S
C1868 C1113 1.468 . S
C1879 C1076 1.508 . S
C1884 C1173 1.486 . S
C1895 C1201 1.475 . S
C1900 C1281 1.508 . S
C1911 C1340 1.524 . S
C1916 C1261 1.497 . S
