# Generated by pormake.
# Topology nfa, (4)-cn, num edge types: 1
# Building blocks:
#     Node 0, Type 0, BuildingBlock: ESEHIV_clean_sbu_0, # of connection points: 4
#     Node 1, Type 0, BuildingBlock: ESEHIV_clean_sbu_0, # of connection points: 4
#     Node 2, Type 0, BuildingBlock: ESEHIV_clean_sbu_0, # of connection points: 4
#     Node 3, Type 0, BuildingBlock: ESEHIV_clean_sbu_0, # of connection points: 4
#     Node 4, Type 0, BuildingBlock: ESEHIV_clean_sbu_0, # of connection points: 4
#     Node 5, Type 0, BuildingBlock: ESEHIV_clean_sbu_0, # of connection points: 4
#     Node 6, Type 0, BuildingBlock: ESEHIV_clean_sbu_0, # of connection points: 4
#     Node 7, Type 0, BuildingBlock: ESEHIV_clean_sbu_0, # of connection points: 4
#     Node 8, Type 0, BuildingBlock: ESEHIV_clean_sbu_0, # of connection points: 4
#     Node 9, Type 0, BuildingBlock: ESEHIV_clean_sbu_0, # of connection points: 4
#     Node 10, Type 0, BuildingBlock: ESEHIV_clean_sbu_0, # of connection points: 4
#     Node 11, Type 0, BuildingBlock: ESEHIV_clean_sbu_0, # of connection points: 4
#     Node 12, Type 0, BuildingBlock: ESEHIV_clean_sbu_0, # of connection points: 4
#     Node 13, Type 0, BuildingBlock: ESEHIV_clean_sbu_0, # of connection points: 4
#     Node 14, Type 0, BuildingBlock: ESEHIV_clean_sbu_0, # of connection points: 4
#     Node 15, Type 0, BuildingBlock: ESEHIV_clean_sbu_0, # of connection points: 4
#     Node 16, Type 0, BuildingBlock: ESEHIV_clean_sbu_0, # of connection points: 4
#     Node 17, Type 0, BuildingBlock: ESEHIV_clean_sbu_0, # of connection points: 4
#     Node 18, Type 0, BuildingBlock: ESEHIV_clean_sbu_0, # of connection points: 4
#     Node 19, Type 0, BuildingBlock: ESEHIV_clean_sbu_0, # of connection points: 4
#     Node 20, Type 0, BuildingBlock: ESEHIV_clean_sbu_0, # of connection points: 4
#     Node 21, Type 0, BuildingBlock: ESEHIV_clean_sbu_0, # of connection points: 4
#     Node 22, Type 0, BuildingBlock: ESEHIV_clean_sbu_0, # of connection points: 4
#     Node 23, Type 0, BuildingBlock: ESEHIV_clean_sbu_0, # of connection points: 4
#     Edge 24, Type (0, 0), BuildingBlock: OJICUG_clean_linker_0, # of connection points: 2
#     Edge 25, Type (0, 0), BuildingBlock: OJICUG_clean_linker_0, # of connection points: 2
#     Edge 26, Type (0, 0), BuildingBlock: OJICUG_clean_linker_0, # of connection points: 2
#     Edge 27, Type (0, 0), BuildingBlock: OJICUG_clean_linker_0, # of connection points: 2
#     Edge 28, Type (0, 0), BuildingBlock: OJICUG_clean_linker_0, # of connection points: 2
#     Edge 29, Type (0, 0), BuildingBlock: OJICUG_clean_linker_0, # of connection points: 2
#     Edge 30, Type (0, 0), BuildingBlock: OJICUG_clean_linker_0, # of connection points: 2
#     Edge 31, Type (0, 0), BuildingBlock: OJICUG_clean_linker_0, # of connection points: 2
#     Edge 32, Type (0, 0), BuildingBlock: OJICUG_clean_linker_0, # of connection points: 2
#     Edge 33, Type (0, 0), BuildingBlock: OJICUG_clean_linker_0, # of connection points: 2
#     Edge 34, Type (0, 0), BuildingBlock: OJICUG_clean_linker_0, # of connection points: 2
#     Edge 35, Type (0, 0), BuildingBlock: OJICUG_clean_linker_0, # of connection points: 2
#     Edge 36, Type (0, 0), BuildingBlock: OJICUG_clean_linker_0, # of connection points: 2
#     Edge 37, Type (0, 0), BuildingBlock: OJICUG_clean_linker_0, # of connection points: 2
#     Edge 38, Type (0, 0), BuildingBlock: OJICUG_clean_linker_0, # of connection points: 2
#     Edge 39, Type (0, 0), BuildingBlock: OJICUG_clean_linker_0, # of connection points: 2
#     Edge 40, Type (0, 0), BuildingBlock: OJICUG_clean_linker_0, # of connection points: 2
#     Edge 41, Type (0, 0), BuildingBlock: OJICUG_clean_linker_0, # of connection points: 2
#     Edge 42, Type (0, 0), BuildingBlock: OJICUG_clean_linker_0, # of connection points: 2
#     Edge 43, Type (0, 0), BuildingBlock: OJICUG_clean_linker_0, # of connection points: 2
#     Edge 44, Type (0, 0), BuildingBlock: OJICUG_clean_linker_0, # of connection points: 2
#     Edge 45, Type (0, 0), BuildingBlock: OJICUG_clean_linker_0, # of connection points: 2
#     Edge 46, Type (0, 0), BuildingBlock: OJICUG_clean_linker_0, # of connection points: 2
#     Edge 47, Type (0, 0), BuildingBlock: OJICUG_clean_linker_0, # of connection points: 2
#     Edge 48, Type (0, 0), BuildingBlock: OJICUG_clean_linker_0, # of connection points: 2
#     Edge 49, Type (0, 0), BuildingBlock: OJICUG_clean_linker_0, # of connection points: 2
#     Edge 50, Type (0, 0), BuildingBlock: OJICUG_clean_linker_0, # of connection points: 2
#     Edge 51, Type (0, 0), BuildingBlock: OJICUG_clean_linker_0, # of connection points: 2
#     Edge 52, Type (0, 0), BuildingBlock: OJICUG_clean_linker_0, # of connection points: 2
#     Edge 53, Type (0, 0), BuildingBlock: OJICUG_clean_linker_0, # of connection points: 2
#     Edge 54, Type (0, 0), BuildingBlock: OJICUG_clean_linker_0, # of connection points: 2
#     Edge 55, Type (0, 0), BuildingBlock: OJICUG_clean_linker_0, # of connection points: 2
#     Edge 56, Type (0, 0), BuildingBlock: OJICUG_clean_linker_0, # of connection points: 2
#     Edge 57, Type (0, 0), BuildingBlock: OJICUG_clean_linker_0, # of connection points: 2
#     Edge 58, Type (0, 0), BuildingBlock: OJICUG_clean_linker_0, # of connection points: 2
#     Edge 59, Type (0, 0), BuildingBlock: OJICUG_clean_linker_0, # of connection points: 2
#     Edge 60, Type (0, 0), BuildingBlock: OJICUG_clean_linker_0, # of connection points: 2
#     Edge 61, Type (0, 0), BuildingBlock: OJICUG_clean_linker_0, # of connection points: 2
#     Edge 62, Type (0, 0), BuildingBlock: OJICUG_clean_linker_0, # of connection points: 2
#     Edge 63, Type (0, 0), BuildingBlock: OJICUG_clean_linker_0, # of connection points: 2
#     Edge 64, Type (0, 0), BuildingBlock: OJICUG_clean_linker_0, # of connection points: 2
#     Edge 65, Type (0, 0), BuildingBlock: OJICUG_clean_linker_0, # of connection points: 2
#     Edge 66, Type (0, 0), BuildingBlock: OJICUG_clean_linker_0, # of connection points: 2
#     Edge 67, Type (0, 0), BuildingBlock: OJICUG_clean_linker_0, # of connection points: 2
#     Edge 68, Type (0, 0), BuildingBlock: OJICUG_clean_linker_0, # of connection points: 2
#     Edge 69, Type (0, 0), BuildingBlock: OJICUG_clean_linker_0, # of connection points: 2
#     Edge 70, Type (0, 0), BuildingBlock: OJICUG_clean_linker_0, # of connection points: 2
#     Edge 71, Type (0, 0), BuildingBlock: OJICUG_clean_linker_0, # of connection points: 2
# Relax obj value: 0.083
# Max RMSD: 0.195
# Mean RMSD: 0.162
data_MOF--net-nfa--node1-ESEHIV_clean_sbu_0--edge1-OJICUG_clean_linker_0
_symmetry_space_group_name_H-M    P1
_symmetry_Int_Tables_number       1
_symmetry_cell_setting            triclinic
loop_
_symmetry_equiv_pos_as_xyz
'x, y, z'
_cell_length_a     30.324752
_cell_length_b     34.831533
_cell_length_c     32.898632
_cell_angle_alpha  88.827628
_cell_angle_beta   88.81766
_cell_angle_gamma 91.489693
loop_
_atom_site_label
_atom_site_type_symbol
_atom_site_fract_x
_atom_site_fract_y
_atom_site_fract_z
_atom_type_partial_charge
Cu0 Cu 0.12419 0.37217 0.38734 0.0
N1 N 0.06495 0.35695 0.38298 0.0
N2 N 1.01094 0.31503 0.36723 0.0
C3 C 0.05476 0.32177 0.36913 0.0
C4 C 0.99255 0.34762 0.38042 0.0
C5 C 0.02606 0.37348 0.39031 0.0
O6 O 0.14809 0.32481 0.41156 0.0
C7 C 0.12619 0.42628 0.32579 0.0
O8 O 0.09878 0.44054 0.35257 0.0
H9 H 0.07946 0.30167 0.35981 0.0
H10 H 0.02229 0.40212 0.40177 0.0
N11 N 0.13855 0.41372 0.42079 0.0
N12 N 0.17614 0.46859 0.43251 0.0
C13 C 0.17583 0.43479 0.41323 0.0
C14 C 0.11445 0.43457 0.44666 0.0
C15 C 0.1378 0.46838 0.45421 0.0
C16 C 0.13203 0.31829 0.44748 0.0
O17 O 0.10835 0.34515 0.46401 0.0
H18 H 0.20081 0.4266 0.39133 0.0
H19 H 0.08103 0.42726 0.45669 0.0
O20 O 0.14192 0.39296 0.33286 0.0
H21 H 0.95748 0.35235 0.38308 0.0
H22 H 0.12592 0.49219 0.47161 0.0
Cu23 Cu 0.9287 0.93851 0.71073 0.0
N24 N 0.91855 0.9416 0.65462 0.0
N25 N 0.87728 0.94391 0.59897 0.0
C26 C 0.87739 0.9405 0.63982 0.0
C27 C 0.92017 0.94716 0.58731 0.0
C28 C 0.94562 0.94613 0.62178 0.0
O29 O 0.87539 0.96592 0.73308 0.0
C30 C 0.98282 0.87224 0.7056 0.0
O31 O 0.9991 0.89368 0.67538 0.0
H32 H 0.8479 0.93706 0.6588 0.0
H33 H 0.98117 0.94884 0.62266 0.0
N34 N 0.97726 0.96671 0.72864 0.0
N35 N 0.03082 0.97494 0.77365 0.0
C36 C 0.98926 0.96211 0.76747 0.0
C37 C 1.01223 0.98377 0.7092 0.0
C38 C 0.04529 0.98928 0.73712 0.0
C39 C 0.87207 1.00079 0.71936 0.0
O40 O 0.90468 1.01476 0.69614 0.0
H41 H 0.96888 0.94656 0.78998 0.0
H42 H 1.01497 0.98892 0.67672 0.0
O43 O 0.94862 0.88446 0.72521 0.0
H44 H 0.93218 0.95077 0.55622 0.0
H45 H 0.07853 0.9999 0.73025 0.0
Cu46 Cu 0.35412 0.68172 0.88643 0.0
N47 N 0.3664 0.67815 0.83052 0.0
N48 N 0.39409 0.64511 0.77834 0.0
C49 C 0.39685 0.65317 0.81815 0.0
C50 C 0.36058 0.66648 0.76478 0.0
C51 C 0.34347 0.68682 0.79711 0.0
O52 O 0.31791 0.63441 0.89736 0.0
C53 C 0.42688 0.72524 0.89646 0.0
O54 O 0.40326 0.74433 0.87028 0.0
H55 H 0.41763 0.63808 0.83917 0.0
H56 H 0.31418 0.70388 0.79692 0.0
N57 N 0.3233 0.72385 0.90716 0.0
N58 N 0.31386 0.76815 0.95522 0.0
C59 C 0.32529 0.73181 0.94708 0.0
C60 C 0.30919 0.75619 0.88913 0.0
C61 C 0.30357 0.78358 0.91867 0.0
C62 C 0.2794 0.63755 0.88252 0.0
O63 O 0.26894 0.67117 0.86726 0.0
H64 H 0.33954 0.71246 0.96903 0.0
H65 H 0.30718 0.76078 0.85662 0.0
O66 O 0.4129 0.69178 0.90871 0.0
H67 H 0.34747 0.66559 0.73445 0.0
H68 H 0.29486 0.81314 0.91319 0.0
Cu69 Cu 0.67392 0.17084 0.12512 0.0
N70 N 0.62541 0.15572 0.09491 0.0
N71 N 0.55548 0.1532 0.07458 0.0
C72 C 0.58296 0.16087 0.10529 0.0
C73 C 0.58197 0.14118 0.04406 0.0
C74 C 0.62506 0.14271 0.05675 0.0
O75 O 0.65053 0.19542 0.17406 0.0
C76 C 0.75646 0.19783 0.09119 0.0
O77 O 0.77292 0.18381 0.12484 0.0
H78 H 0.57278 0.1731 0.1337 0.0
H79 H 0.65425 0.13711 0.03859 0.0
N80 N 0.70358 0.12654 0.13728 0.0
N81 N 0.75172 0.08082 0.12528 0.0
C82 C 0.727 0.10831 0.10889 0.0
C83 C 0.71283 0.10956 0.17305 0.0
C84 C 0.74249 0.08095 0.16562 0.0
C85 C 0.6246 0.2235 0.17035 0.0
O86 O 0.62144 0.24017 0.13436 0.0
H87 H 0.72733 0.11639 0.07694 0.0
H88 H 0.70063 0.11853 0.20239 0.0
O89 O 0.7146 0.20072 0.08882 0.0
H90 H 0.57156 0.13425 0.01377 0.0
H91 H 0.75769 0.06297 0.1882 0.0
Cu92 Cu 0.1314 0.57913 0.12103 0.0
N93 N 0.14686 0.53728 0.08849 0.0
N94 N 0.1659 0.4753 0.08772 0.0
C95 C 0.13305 0.50016 0.09389 0.0
C96 C 0.2012 0.4975 0.07655 0.0
C97 C 0.18941 0.53514 0.07645 0.0
O98 O 0.14268 0.55799 0.17646 0.0
C99 C 0.16997 0.62964 0.06177 0.0
O100 O 0.15169 0.6036 0.03869 0.0
H101 H 0.1016 0.49136 0.10728 0.0
H102 H 0.21266 0.55922 0.07559 0.0
N103 N 0.073 0.59651 0.1179 0.0
N104 N 0.02656 0.64513 0.10824 0.0
C105 C 0.06205 0.62656 0.09382 0.0
C106 C 0.04239 0.59581 0.14827 0.0
C107 C 1.01357 0.62511 0.14207 0.0
C108 C 0.1182 0.52915 0.18846 0.0
O109 O 0.08285 0.52054 0.16794 0.0
H110 H 0.0825 0.63722 0.06867 0.0
H111 H 0.04416 0.57938 0.17629 0.0
O112 O 0.16734 0.6246 0.10053 0.0
H113 H 0.23484 0.48787 0.07556 0.0
H114 H 0.98869 0.63391 0.16378 0.0
Cu115 Cu 0.67815 0.91164 0.3912 0.0
N116 N 0.65675 0.94626 0.35239 0.0
N117 N 0.6208 0.9668 0.2975 0.0
C118 C 0.62867 0.93678 0.32278 0.0
C119 C 0.64518 0.9964 0.31195 0.0
C120 C 0.66742 0.9836 0.34567 0.0
O121 O 0.63496 0.86876 0.39607 0.0
C122 C 0.76047 0.91782 0.3482 0.0
O123 O 0.74017 0.92717 0.31468 0.0
H124 H 0.61414 0.90828 0.32015 0.0
H125 H 0.69039 1.00011 0.36351 0.0
N126 N 0.6859 0.93332 0.44229 0.0
N127 N 0.72624 0.9452 0.49726 0.0
C128 C 0.71522 0.9195 0.46874 0.0
C129 C 0.67675 0.96869 0.45521 0.0
C130 C 0.70138 0.97599 0.4893 0.0
C131 C 0.59543 0.87791 0.40496 0.0
O132 O 0.58769 0.91411 0.41222 0.0
H133 H 0.73149 0.89254 0.46453 0.0
H134 H 0.6569 0.98902 0.43896 0.0
O135 O 0.73878 0.89922 0.37621 0.0
H136 H 0.64745 0.02514 0.29883 0.0
H137 H 0.7039 1.00317 0.50459 0.0
Cu138 Cu 0.44035 0.40218 0.68901 0.0
N139 N 0.43744 0.39515 0.63263 0.0
N140 N 0.43631 0.36718 0.57164 0.0
C141 C 0.43503 0.36158 0.61255 0.0
C142 C 0.4401 0.40576 0.5662 0.0
C143 C 0.44074 0.42276 0.60358 0.0
O144 O 0.47201 0.35454 0.70718 0.0
C145 C 0.37624 0.43869 0.74031 0.0
O146 O 0.408 0.43763 0.76687 0.0
H147 H 0.43253 0.33371 0.62768 0.0
H148 H 0.44433 0.45314 0.60918 0.0
N149 N 0.47294 0.44775 0.69825 0.0
N150 N 0.47399 0.50966 0.71716 0.0
C151 C 0.4546 0.48252 0.69403 0.0
C152 C 0.50642 0.45312 0.72376 0.0
C153 C 0.50737 0.4911 0.7352 0.0
C154 C 0.48729 0.34142 0.74065 0.0
O155 O 0.47971 0.35994 0.77435 0.0
H156 H 0.42416 0.48625 0.67811 0.0
H157 H 0.52538 0.43028 0.7369 0.0
O158 O 0.38031 0.41822 0.70841 0.0
H159 H 0.44336 0.4209 0.53721 0.0
H160 H 0.52845 0.50273 0.75828 0.0
Cu161 Cu 0.89368 0.15243 0.87357 0.0
N162 N 0.84319 0.12266 0.86002 0.0
N163 N 0.79424 0.07293 0.86584 0.0
C164 C 0.83417 0.08742 0.87648 0.0
C165 C 0.77748 0.10053 0.84158 0.0
C166 C 0.80762 0.1311 0.83809 0.0
O167 O 0.88364 0.16244 0.93162 0.0
C168 C 0.94395 0.11787 0.81623 0.0
O169 O 0.90565 0.12084 0.79869 0.0
H170 H 0.85615 0.07335 0.89718 0.0
H171 H 0.80341 0.15788 0.82157 0.0
N172 N 0.90333 0.20097 0.84887 0.0
N173 N 0.94733 0.25326 0.83769 0.0
C174 C 0.93426 0.22474 0.86406 0.0
C175 C 0.8963 0.21466 0.81107 0.0
C176 C 0.92312 0.24717 0.80423 0.0
C177 C 0.85029 0.18374 0.93708 0.0
O178 O 0.83053 0.19702 0.90472 0.0
H179 H 0.94959 0.21889 0.89285 0.0
H180 H 0.87581 0.20054 0.78905 0.0
O181 O 0.94676 0.12688 0.85361 0.0
H182 H 0.74564 0.09899 0.82742 0.0
H183 H 0.92569 0.26399 0.77623 0.0
Cu184 Cu 0.41765 0.20009 0.39207 0.0
N185 N 0.43787 0.22545 0.3436 0.0
N186 N 0.48202 0.2374 0.28869 0.0
C187 C 0.47736 0.21928 0.32542 0.0
C188 C 0.44358 0.25571 0.28385 0.0
C189 C 0.41661 0.24838 0.3176 0.0
O190 O 0.42209 0.14494 0.37959 0.0
C191 C 0.43403 0.26098 0.43822 0.0
O192 O 0.41389 0.27387 0.40592 0.0
H193 H 0.50128 0.20029 0.33831 0.0
H194 H 0.38334 0.25809 0.32222 0.0
N195 N 0.35841 0.20559 0.40781 0.0
N196 N 0.30191 0.19962 0.45256 0.0
C197 C 0.34576 0.19739 0.44656 0.0
C198 C 0.32109 0.21381 0.38831 0.0
C199 C 0.286 0.20968 0.41589 0.0
C200 C 0.39867 0.13704 0.34865 0.0
O201 O 0.37628 0.16494 0.33226 0.0
H202 H 0.36825 0.1876 0.46948 0.0
H203 H 0.31919 0.22067 0.3562 0.0
O204 O 0.44543 0.22576 0.43851 0.0
H205 H 0.43489 0.27271 0.25752 0.0
H206 H 0.25141 0.21247 0.40919 0.0
Cu207 Cu 0.14473 0.11244 0.63405 0.0
N208 N 0.11607 0.12926 0.58682 0.0
N209 N 0.11323 0.17273 0.5352 0.0
C210 C 0.11963 0.16672 0.5754 0.0
C211 C 0.10422 0.13741 0.52075 0.0
C212 C 0.10646 0.11068 0.55246 0.0
O213 O 0.20207 0.13741 0.62185 0.0
C214 C 0.07399 0.10808 0.68644 0.0
O215 O 0.0623 0.08634 0.65611 0.0
H216 H 0.13193 0.18856 0.59549 0.0
H217 H 0.10573 0.07984 0.54954 0.0
N218 N 0.15201 0.05902 0.64115 0.0
N219 N 0.1701 1.00504 0.67471 0.0
C220 C 0.1765 0.04352 0.67081 0.0
C221 C 0.1293 0.02921 0.6256 0.0
C222 C 0.14037 0.99595 0.64621 0.0
C223 C 0.22103 0.12236 0.59122 0.0
O224 O 0.20957 0.08693 0.58239 0.0
H225 H 0.19642 0.06061 0.69094 0.0
H226 H 0.10448 0.03164 0.60266 0.0
O227 O 0.11076 0.12681 0.68296 0.0
H228 H 0.09924 0.13093 0.48912 0.0
H229 H 0.12652 0.96749 0.64141 0.0
Cu230 Cu 0.20356 0.87531 0.91964 0.0
N231 N 0.23103 0.88595 0.86846 0.0
N232 N 0.23467 0.91197 0.80535 0.0
C233 C 0.20831 0.89707 0.83556 0.0
C234 C 0.27608 0.90865 0.81918 0.0
C235 C 0.27377 0.89225 0.85792 0.0
O236 O 0.14584 0.8974 0.91267 0.0
C237 C 0.26234 0.92622 0.96469 0.0
O238 O 0.27649 0.94138 0.92983 0.0
H239 H 0.17271 0.89687 0.83492 0.0
H240 H 0.30113 0.8877 0.87788 0.0
N241 N 0.19848 0.8218 0.92967 0.0
N242 N 0.19803 0.76293 0.95925 0.0
C243 C 0.20124 0.80137 0.96507 0.0
C244 C 0.19295 0.79545 0.90082 0.0
C245 C 0.19265 0.75939 0.91879 0.0
C246 C 0.14494 0.93314 0.90347 0.0
O247 O 0.1806 0.95442 0.90915 0.0
H248 H 0.20644 0.81436 0.99425 0.0
H249 H 0.18979 0.80207 0.86876 0.0
O250 O 0.23301 0.89928 0.96541 0.0
H251 H 0.30584 0.91888 0.80328 0.0
H252 H 0.18838 0.73256 0.90313 0.0
Cu253 Cu 0.4032 0.93385 0.16402 0.0
N254 N 0.38182 0.8849 0.14903 0.0
N255 N 0.35413 0.84169 0.10564 0.0
C256 C 0.37791 0.87476 0.10978 0.0
C257 C 0.34308 0.83034 0.14415 0.0
C258 C 0.35981 0.85713 0.17074 0.0
O259 O 0.381 0.96565 0.12028 0.0
C260 C 0.48628 0.96667 0.1769 0.0
O261 O 0.46485 0.99856 0.17121 0.0
H262 H 0.39101 0.89232 0.08461 0.0
H263 H 0.35421 0.85732 0.20329 0.0
N264 N 0.38382 0.95019 0.21555 0.0
N265 N 0.38367 0.9914 0.26738 0.0
C266 C 0.38198 0.98729 0.22655 0.0
C267 C 0.3864 0.93011 0.25081 0.0
C268 C 0.38608 0.95532 0.28273 0.0
C269 C 0.33905 0.96424 0.11846 0.0
O270 O 0.31652 0.95321 0.15141 0.0
H271 H 0.38389 1.01102 0.20478 0.0
H272 H 0.39241 0.89968 0.25304 0.0
O273 O 0.46704 0.93487 0.16874 0.0
H274 H 0.3225 0.80548 0.15257 0.0
H275 H 0.38963 0.94777 0.31454 0.0
Cu276 Cu 0.34842 0.33924 0.11652 0.0
N277 N 0.37843 0.3038 0.08511 0.0
N278 N 0.41542 0.25274 0.06479 0.0
C279 C 0.38803 0.26695 0.09348 0.0
C280 C 0.4232 0.28187 0.0377 0.0
C281 C 0.40091 0.31323 0.05052 0.0
O282 O 0.38741 0.35591 0.1611 0.0
C283 C 0.30713 0.36719 0.04661 0.0
O284 O 0.31225 0.33112 0.03715 0.0
H285 H 0.37726 0.25176 0.1211 0.0
H286 H 0.4026 0.34168 0.03666 0.0
N287 N 0.29695 0.31846 0.14218 0.0
N288 N 0.2281 0.33862 0.15397 0.0
C289 C 0.2575 0.32622 0.12618 0.0
C290 C 0.29027 0.32094 0.18259 0.0
C291 C 0.24803 0.33327 0.18992 0.0
C292 C 0.42764 0.34618 0.16505 0.0
O293 O 0.44772 0.32918 0.13491 0.0
H294 H 0.25321 0.33069 0.09413 0.0
H295 H 0.31648 0.3216 0.2044 0.0
O296 O 0.32479 0.37927 0.07925 0.0
H297 H 0.44633 0.28161 1.01221 0.0
H298 H 0.23607 0.34392 0.2187 0.0
Cu299 Cu 0.89087 0.88378 0.07072 0.0
N300 N 0.89918 0.92949 0.03976 0.0
N301 N 0.87504 0.98972 0.04081 0.0
C302 C 0.89929 0.96294 0.05946 0.0
C303 C 0.86362 0.97413 1.00532 0.0
C304 C 0.87824 0.93707 1.00479 0.0
O305 O 0.86704 0.90079 0.12347 0.0
C306 C 0.86899 0.84011 1.00653 0.0
O307 O 0.90808 0.85429 0.99542 0.0
H308 H 0.90839 0.96506 0.09085 0.0
H309 H 0.86627 0.91567 0.98418 0.0
N310 N 0.94195 0.85567 0.07733 0.0
N311 N 0.9815 0.80243 0.08266 0.0
C312 C 0.94086 0.81738 0.0837 0.0
C313 C 0.9848 0.86571 0.07196 0.0
C314 C 1.00934 0.83293 0.07545 0.0
C315 C 0.89414 0.91388 0.14935 0.0
O316 O 0.93629 0.90745 0.14366 0.0
H317 H 0.91035 0.80074 0.0871 0.0
H318 H 0.99716 0.89455 0.06494 0.0
O319 O 0.85228 0.84952 0.04068 0.0
H320 H 0.8392 0.98566 0.98517 0.0
H321 H 0.04487 0.83179 0.07248 0.0
Cu322 Cu 0.17278 0.64998 0.71231 0.0
N323 N 0.2185 0.62232 0.73915 0.0
N324 N 0.2666 0.57447 0.75113 0.0
C325 C 0.23247 0.58691 0.72849 0.0
C326 C 0.27427 0.60364 0.77685 0.0
C327 C 0.24494 0.6327 0.76953 0.0
O328 O 0.19502 0.6528 0.65558 0.0
C329 C 0.11213 0.62133 0.76491 0.0
O330 O 0.14184 0.63892 0.78686 0.0
H331 H 0.21779 0.57066 0.70434 0.0
H332 H 0.2436 0.65977 0.7849 0.0
N333 N 0.15541 0.70095 0.72821 0.0
N334 N 0.10979 0.75176 0.73535 0.0
C335 C 0.11947 0.71962 0.71413 0.0
C336 C 0.16896 0.72238 0.75945 0.0
C337 C 0.14132 0.75331 0.76381 0.0
C338 C 0.23527 0.66478 0.65164 0.0
O339 O 0.25563 0.67673 0.68408 0.0
H340 H 0.09947 0.70871 0.68984 0.0
H341 H 0.19594 0.71528 0.77896 0.0
O342 O 0.11916 0.61984 0.7265 0.0
H343 H 0.30011 0.60461 0.79896 0.0
H344 H 0.14422 0.77514 0.78661 0.0
Cu345 Cu 0.66032 0.86005 0.89831 0.0
N346 N 0.66576 0.86046 0.84188 0.0
N347 N 0.656 0.89364 0.78384 0.0
C348 C 0.63852 0.88251 0.82036 0.0
C349 C 0.69572 0.87692 0.78193 0.0
C350 C 0.70177 0.85663 0.8179 0.0
O351 O 0.67751 0.91356 0.91037 0.0
C352 C 0.59361 0.80525 0.90381 0.0
O353 O 0.62603 0.7864 0.88718 0.0
H354 H 0.60956 0.895 0.83396 0.0
H355 H 0.73229 0.84438 0.82768 0.0
N356 N 0.69552 0.82539 0.9264 0.0
N357 N 0.70279 0.7824 0.9772 0.0
C358 C 0.6874 0.81695 0.96604 0.0
C359 C 0.71789 0.79544 0.91205 0.0
C360 C 0.72208 0.76873 0.94331 0.0
C361 C 0.71867 0.92197 0.90559 0.0
O362 O 0.74595 0.89379 0.89991 0.0
H363 H 0.66582 0.83365 0.98497 0.0
H364 H 0.72583 0.79113 0.88031 0.0
O365 O 0.59987 0.841 0.91099 0.0
H366 H 0.72046 0.88203 0.75811 0.0
H367 H 0.73538 0.74036 0.94056 0.0
Cu368 Cu 0.8857 0.10841 0.33748 0.0
N369 N 0.85341 0.13761 0.37444 0.0
N370 N 0.84949 0.18736 0.41655 0.0
C371 C 0.87474 0.15936 0.40164 0.0
C372 C 0.81009 0.18242 0.39869 0.0
C373 C 0.81273 0.15203 0.37241 0.0
O374 O 0.93487 0.14411 0.32437 0.0
C375 C 0.87595 0.04245 0.3873 0.0
O376 O 0.85344 0.0639 0.41222 0.0
H377 H 0.90948 0.15661 0.40761 0.0
H378 H 0.78821 0.14389 0.35068 0.0
N379 N 0.85568 0.09191 0.29138 0.0
N380 N 0.84714 0.04477 0.2459 0.0
C381 C 0.87577 0.06891 0.26456 0.0
C382 C 0.8125 0.08243 0.28925 0.0
C383 C 0.80712 0.05384 0.2612 0.0
C384 C 0.92294 0.17719 0.312 0.0
O385 O 0.88264 0.18034 0.2986 0.0
H386 H 0.9112 0.06623 0.26359 0.0
H387 H 0.78733 0.09144 0.31037 0.0
O388 O 0.9016 0.05903 0.36088 0.0
H389 H 0.78261 0.20146 0.40155 0.0
H390 H 0.77637 0.03861 0.25574 0.0
Cu391 Cu 0.64624 0.14358 0.69511 0.0
N392 N 0.64319 0.15397 0.63908 0.0
N393 N 0.62301 0.18552 0.58256 0.0
C394 C 0.61621 0.18014 0.62299 0.0
C395 C 0.65525 0.1611 0.57263 0.0
C396 C 0.66775 0.14176 0.60761 0.0
O397 O 0.62116 0.19319 0.71571 0.0
C398 C 0.71637 0.09952 0.73459 0.0
O399 O 0.68553 0.09011 0.76188 0.0
H400 H 0.59235 0.19539 0.64086 0.0
H401 H 0.69384 0.1213 0.61012 0.0
N402 N 0.61037 0.0997 0.70568 0.0
N403 N 0.60043 0.03657 0.71888 0.0
C404 C 0.62518 0.06417 0.69919 0.0
C405 C 0.57326 0.09448 0.7284 0.0
C406 C 0.56708 0.05561 0.73663 0.0
C407 C 0.59468 0.20176 0.74495 0.0
O408 O 0.58598 0.17622 0.77409 0.0
H409 H 0.65599 0.05923 0.68326 0.0
H410 H 0.55386 0.11721 0.74073 0.0
O411 O 0.70801 0.12563 0.70751 0.0
H412 H 0.67012 0.1586 0.54264 0.0
H413 H 0.54224 0.04294 0.75723 0.0
Cu414 Cu 0.1048 0.44882 0.86063 0.0
N415 N 0.05101 0.46513 0.83883 0.0
N416 N 0.99684 0.45452 0.79403 0.0
C417 C 0.04073 0.45454 0.80085 0.0
C418 C 0.97873 0.46694 0.82911 0.0
C419 C 1.01208 0.47304 0.8568 0.0
O420 O 0.09934 0.39419 0.84707 0.0
C421 C 0.14786 0.51792 0.84861 0.0
O422 O 0.10691 0.52774 0.85571 0.0
H423 H 0.06507 0.44352 0.77994 0.0
H424 H 1.00763 0.47875 0.8888 0.0
N425 N 0.11395 0.45007 0.91693 0.0
N426 N 0.16212 0.43961 0.9667 0.0
C427 C 0.14282 0.42565 0.93328 0.0
C428 C 0.1146 0.48066 0.9414 0.0
C429 C 0.14422 0.47422 0.9722 0.0
C430 C 0.06839 0.37786 0.86879 0.0
O431 O 0.05071 0.39725 0.89854 0.0
H432 H 0.15367 0.40029 0.91787 0.0
H433 H 0.09871 0.50746 0.9349 0.0
O434 O 0.15492 0.48247 0.84219 0.0
H435 H 0.94368 0.46812 0.83566 0.0
H436 H 0.15385 0.49443 0.99515 0.0
Cu437 Cu 0.39751 0.6646 0.43715 0.0
N438 N 0.35256 0.63814 0.40967 0.0
N439 N 0.29766 0.59496 0.40117 0.0
C440 C 0.32907 0.60806 0.42618 0.0
C441 C 0.30156 0.61756 0.36737 0.0
C442 C 0.33518 0.6445 0.37288 0.0
O443 O 0.37571 0.6635 0.49414 0.0
C444 C 0.46267 0.62957 0.38869 0.0
O445 O 0.4284 0.61956 0.36725 0.0
H446 H 0.33496 0.596 0.45611 0.0
H447 H 0.34607 0.66711 0.35169 0.0
N448 N 0.40703 0.71586 0.4204 0.0
N449 N 0.44728 0.76988 0.40784 0.0
C450 C 0.44711 0.73334 0.42221 0.0
C451 C 0.38052 0.74224 0.40426 0.0
C452 C 0.40527 0.77574 0.39667 0.0
C453 C 0.33574 0.67402 0.49892 0.0
O454 O 0.31523 0.68765 0.46716 0.0
H455 H 0.47561 0.71951 0.43449 0.0
H456 H 0.3459 0.73746 0.39824 0.0
O457 O 0.456 0.64373 0.4238 0.0
H458 H 0.28105 0.61521 0.34095 0.0
H459 H 0.39334 0.80211 0.38344 0.0
Cu460 Cu 0.86271 0.60992 0.87495 0.0
N461 N 0.8352 0.58609 0.83139 0.0
N462 N 0.82789 0.5645 0.76821 0.0
C463 C 0.8511 0.58759 0.79282 0.0
C464 C 0.79532 0.54849 0.79209 0.0
C465 C 0.79998 0.56183 0.83114 0.0
O466 O 0.92616 0.60893 0.86378 0.0
C467 C 0.86769 0.59656 0.95957 0.0
O468 O 0.90754 0.61163 0.95368 0.0
H469 H 0.88035 0.60418 0.78339 0.0
H470 H 0.78029 0.55322 0.85773 0.0
N471 N 0.84572 0.66094 0.87581 0.0
N472 N 0.83112 0.71874 0.90015 0.0
C473 C 0.84606 0.68341 0.90859 0.0
C474 C 0.82975 0.68268 0.8455 0.0
C475 C 0.82098 0.71854 0.86039 0.0
C476 C 0.94478 0.58197 0.84468 0.0
O477 O 0.92212 0.55045 0.8368 0.0
H478 H 0.8583 0.67446 0.93781 0.0
H479 H 0.82508 0.67318 0.81475 0.0
O480 O 0.84455 0.58906 0.9286 0.0
H481 H 0.77144 0.52703 0.7826 0.0
H482 H 0.80844 0.74262 0.84325 0.0
Cu483 Cu 0.67132 0.63756 0.17756 0.0
N484 N 0.73068 0.6312 0.16228 0.0
N485 N 0.78451 0.61972 0.11639 0.0
C486 C 0.74169 0.61348 0.12759 0.0
C487 C 0.80113 0.6421 0.14587 0.0
C488 C 0.76785 0.64935 0.17388 0.0
O489 O 0.65047 0.66858 0.13246 0.0
C490 C 0.66345 0.56716 0.21156 0.0
O491 O 0.70349 0.57838 0.22131 0.0
H492 H 0.71762 0.59826 0.10976 0.0
H493 H 0.76993 0.66884 0.19895 0.0
N494 N 0.65835 0.65886 0.22858 0.0
N495 N 0.61738 0.65836 0.28656 0.0
C496 C 0.61808 0.65243 0.24604 0.0
C497 C 0.68433 0.6698 0.25921 0.0
C498 C 0.65902 0.66999 0.29488 0.0
C499 C 0.66709 0.70256 0.1296 0.0
O500 O 0.68847 0.7162 0.16073 0.0
H501 H 0.59053 0.64069 0.22953 0.0
H502 H 0.71972 0.67401 0.25674 0.0
O503 O 0.64318 0.5873 0.18551 0.0
H504 H 0.83409 0.65476 0.14585 0.0
H505 H 0.67119 0.67526 0.32501 0.0
Cu506 Cu 0.57429 0.36472 0.38018 0.0
N507 N 0.56503 0.41682 0.37181 0.0
N508 N 0.57681 0.46943 0.3327 0.0
C509 C 0.59363 0.43667 0.34734 0.0
C510 C 0.53568 0.47057 0.34915 0.0
C511 C 0.52839 0.43782 0.37328 0.0
O512 O 0.55328 0.34369 0.32856 0.0
C513 C 0.643 0.38011 0.42967 0.0
O514 O 0.61099 0.40061 0.44454 0.0
H515 H 0.62447 0.42493 0.33694 0.0
H516 H 0.49746 0.42851 0.3877 0.0
N517 N 0.54492 0.34143 0.42501 0.0
N518 N 0.55046 0.30248 0.47989 0.0
C519 C 0.55761 0.30695 0.43932 0.0
C520 C 0.52819 0.35932 0.45741 0.0
C521 C 0.53219 0.33574 0.49123 0.0
C522 C 0.5118 0.34737 0.3234 0.0
O523 O 0.4874 0.35694 0.35487 0.0
H524 H 0.57732 0.28799 0.42122 0.0
H525 H 0.51952 0.38924 0.45757 0.0
O526 O 0.6364 0.36201 0.39664 0.0
H527 H 0.51183 0.49229 0.34253 0.0
H528 H 0.52524 0.34403 0.5221 0.0
Cu529 Cu 0.86518 0.40081 0.58107 0.0
N530 N 0.89939 0.36811 0.54934 0.0
N531 N 0.90499 0.31793 0.50802 0.0
C532 C 0.88351 0.33297 0.54007 0.0
C533 C 0.93678 0.34438 0.4974 0.0
C534 C 0.93301 0.37547 0.52271 0.0
O535 O 0.80533 0.39194 0.5605 0.0
C536 C 0.91754 0.3957 0.64877 0.0
O537 O 0.94716 0.3938 0.61923 0.0
H538 H 0.85423 0.32018 0.55466 0.0
H539 H 0.95082 0.40266 0.51936 0.0
N540 N 0.87711 0.45328 0.57558 0.0
N541 N 0.87514 0.50643 0.61292 0.0
C542 C 0.8525 0.47544 0.59964 0.0
C543 C 0.91664 0.47163 0.572 0.0
C544 C 0.91539 0.50458 0.5947 0.0
C545 C 0.80295 0.39503 0.52168 0.0
O546 O 0.83846 0.40628 0.50071 0.0
H547 H 0.82165 0.46489 0.61337 0.0
H548 H 0.94613 0.45922 0.55952 0.0
O549 O 0.87672 0.39395 0.63961 0.0
H550 H 0.95872 0.34291 0.47114 0.0
H551 H 0.94354 0.52306 0.60101 0.0
C552 C 0.13871 0.24541 0.44946 0.0
C553 C 0.13332 0.28035 0.46951 0.0
H554 H 0.13641 0.18366 0.45441 0.0
C555 C 0.12285 0.27887 0.51142 0.0
H556 H 0.14629 0.2454 0.41714 0.0
C557 C 0.11653 0.24386 0.53251 0.0
C558 C 0.12049 0.20878 0.5126 0.0
H559 H 0.11827 0.30507 0.52803 0.0
H560 H 0.10731 0.24442 0.56443 0.0
C561 C 0.13228 0.20999 0.47076 0.0
C562 C 0.04746 0.93375 0.83343 0.0
C563 C 0.05676 0.96683 0.80902 0.0
H564 H 0.06742 0.89748 0.8827 0.0
C565 C 0.09291 0.99063 0.81871 0.0
H566 H 0.02039 0.91429 0.82655 0.0
C567 C 0.11982 0.98103 0.85131 0.0
C568 C 0.11152 0.94709 0.87464 0.0
H569 H 0.10079 1.01632 0.80065 0.0
H570 H 0.14831 0.99937 0.85697 0.0
C571 C 0.07452 0.92398 0.86573 0.0
C572 C 0.34009 0.84505 0.03115 0.0
C573 C 0.34121 0.82369 0.068 0.0
H574 H 0.33026 0.84461 0.96681 0.0
C575 C 0.32984 0.78427 0.06719 0.0
H576 H 0.34763 0.87557 0.03043 0.0
C577 C 0.31938 0.76651 0.03056 0.0
C578 C 0.31994 0.78754 0.9935 0.0
H579 H 0.33011 0.76677 0.09473 0.0
H580 H 0.31137 0.73604 0.03122 0.0
C581 C 0.3295 0.82729 0.99451 0.0
C582 C 0.51384 0.2466 0.21868 0.0
C583 C 0.51878 0.23545 0.25969 0.0
H584 H 0.54318 0.25267 0.15918 0.0
C585 C 0.56015 0.22171 0.27141 0.0
H586 H 0.48264 0.25648 0.20781 0.0
C587 C 0.59498 0.21855 0.24286 0.0
C588 C 0.58977 0.22989 0.20203 0.0
H589 H 0.56576 0.21311 0.3026 0.0
H590 H 0.62593 0.20704 0.2527 0.0
C591 C 0.54887 0.24438 0.19052 0.0
C592 C 0.1824 0.73495 0.02896 0.0
C593 C 0.19901 0.73142 0.98885 0.0
H594 H 0.16081 0.70535 0.08445 0.0
C595 C 0.21312 0.69516 0.97675 0.0
H596 H 0.17127 0.76242 0.03936 0.0
C597 C 0.20712 0.66283 1.00232 0.0
C598 C 0.18733 0.6656 0.04114 0.0
H599 H 0.2272 0.69139 0.94665 0.0
H600 H 0.21589 0.63506 0.99076 0.0
C601 C 0.17664 0.70229 0.05492 0.0
C602 C 0.57364 1.00184 0.24915 0.0
C603 C 0.59115 0.96722 0.2635 0.0
H604 H 0.52761 0.02892 0.21016 0.0
C605 C 0.57746 0.93278 0.24522 0.0
H606 H 0.58311 0.02895 0.26233 0.0
C607 C 0.54532 0.93273 0.21523 0.0
C608 C 0.52611 0.96715 0.20257 0.0
H609 H 0.59087 0.9056 0.25456 0.0
H610 H 0.53434 0.90551 0.20312 0.0
C611 C 0.54164 1.00181 0.21907 0.0
C612 C 0.42177 0.35032 0.50056 0.0
C613 C 0.43437 0.33895 0.53971 0.0
H614 H 0.41337 0.33576 0.43888 0.0
C615 C 0.44682 0.30042 0.54594 0.0
H616 H 0.41094 0.37915 0.49437 0.0
C617 C 0.4478 0.27457 0.51329 0.0
C618 C 0.43631 0.28681 0.47391 0.0
H619 H 0.45697 0.29055 0.57561 0.0
H620 H 0.45763 0.24529 0.51881 0.0
C621 C 0.42301 0.32498 0.46842 0.0
C622 C 0.05257 0.13196 0.75701 0.0
C623 C 0.04451 0.10844 0.72345 0.0
H624 H 0.02715 0.15299 0.81397 0.0
C625 C 1.00643 0.0844 0.7247 0.0
H626 H 0.08167 0.15062 0.75724 0.0
C627 C 0.97618 0.08516 0.75712 0.0
C628 C 0.98264 0.11008 0.78951 0.0
H629 H 0.99889 0.06565 0.69981 0.0
H630 H 0.94629 0.0675 0.75577 0.0
C631 C 0.02175 0.13284 0.78981 0.0
C632 C 0.16095 0.40439 0.09054 0.0
C633 C 0.17015 0.43935 0.10926 0.0
H634 H 0.17164 0.34363 0.09114 0.0
C635 C 0.19046 0.43912 0.14714 0.0
H636 H 0.14515 0.4041 0.06136 0.0
C637 C 0.20441 0.40489 0.16474 0.0
C638 C 0.19957 0.37003 0.14418 0.0
H639 H 0.19817 0.46598 0.16176 0.0
H640 H 0.22302 0.40656 0.19238 0.0
C641 C 0.17568 0.36993 0.10781 0.0
C642 C 0.8004 1.00601 0.89256 0.0
C643 C 0.77417 0.03595 0.87821 0.0
H644 H 0.80346 0.94748 0.91306 0.0
C645 C 0.72824 0.02868 0.87588 0.0
H646 H 0.83577 1.00991 0.89455 0.0
C647 C 0.70945 0.99236 0.88678 0.0
C648 C 0.73614 0.96231 0.90002 0.0
H649 H 0.70672 0.05091 0.86536 0.0
H650 H 0.67431 0.98744 0.88343 0.0
C651 C 0.78174 0.96989 0.90318 0.0
C652 C 0.83299 0.98337 0.40983 0.0
C653 C 0.85764 1.00339 0.37928 0.0
H654 H 0.78444 0.93969 0.42389 0.0
C655 C 0.85668 0.98945 0.33939 0.0
H656 H 0.83318 0.99307 0.44092 0.0
C657 C 0.82724 0.95948 0.32944 0.0
C658 C 0.79951 0.94185 0.3595 0.0
H659 H 0.87594 1.00364 0.31523 0.0
H660 H 0.82444 0.95156 0.29793 0.0
C661 C 0.80483 0.95266 0.40006 0.0
C662 C 0.79278 1.02147 0.11834 0.0
C663 C 0.78393 0.05855 0.1043 0.0
H664 H 0.82766 0.97021 0.108 0.0
C665 C 0.80638 0.07328 0.06912 0.0
H666 H 0.77497 1.00902 0.14444 0.0
C667 C 0.83733 0.05122 0.04859 0.0
C668 C 0.84629 1.01424 0.06305 0.0
H669 H 0.80008 0.10181 0.05749 0.0
H670 H 0.85394 0.06274 0.02137 0.0
C671 C 0.82325 0.99948 0.09774 0.0
C672 C 0.31674 0.52607 0.78128 0.0
C673 C 0.29079 0.53851 0.7487 0.0
H674 H 0.36205 0.48549 0.80464 0.0
C675 C 0.29054 0.51548 0.71373 0.0
H676 H 0.31814 0.54219 0.80892 0.0
C677 C 0.3164 0.48212 0.71119 0.0
C678 C 0.34312 0.47048 0.74366 0.0
H679 H 0.27149 0.52382 0.68771 0.0
H680 H 0.31655 0.46621 0.68326 0.0
C681 C 0.34209 0.49292 0.77887 0.0
C682 C 0.2271 0.50639 0.3863 0.0
C683 C 0.20684 0.50059 0.42495 0.0
H684 H 0.27108 0.54135 0.34833 0.0
C685 C 0.2168 0.52676 0.45563 0.0
H686 H 0.22015 0.48698 0.36188 0.0
C687 C 0.24683 0.55757 0.44796 0.0
C688 C 0.26662 0.56343 0.40915 0.0
H689 H 0.20185 0.52303 0.48566 0.0
H690 H 0.2542 0.57717 0.47218 0.0
C691 C 0.25611 0.53768 0.37837 0.0
C692 C 0.25929 0.56627 0.87448 0.0
C693 C 0.24704 0.60487 0.87792 0.0
H694 H 0.23817 0.5082 0.86096 0.0
C695 C 0.20277 0.61374 0.87141 0.0
H696 H 0.29318 0.55847 0.87902 0.0
C697 C 0.17188 0.58552 0.86096 0.0
C698 C 0.18376 0.54711 0.85622 0.0
H699 H 0.1918 0.64298 0.87386 0.0
H700 H 0.13821 0.59408 0.85674 0.0
C701 C 0.22795 0.53763 0.86343 0.0
C702 C 0.68346 0.72235 0.01627 0.0
C703 C 0.69289 0.76214 0.01516 0.0
H704 H 0.66647 0.67238 0.0532 0.0
C705 C 0.69083 0.78231 0.05166 0.0
H706 H 0.68417 0.70612 0.98857 0.0
C707 C 0.6807 0.76308 0.08856 0.0
C708 C 0.67157 0.72328 0.08981 0.0
H709 H 0.69798 0.81292 0.05172 0.0
H710 H 0.68067 0.77933 0.11629 0.0
C711 C 0.67256 0.70316 0.05318 0.0
C712 C 0.44623 0.35566 0.27871 0.0
C713 C 0.4912 0.34686 0.2824 0.0
H714 H 0.3913 0.36294 0.23949 0.0
C715 C 0.51562 0.33989 0.24665 0.0
H716 H 0.42618 0.36154 0.30537 0.0
C717 C 0.49533 0.3409 0.20851 0.0
C718 C 0.45015 0.34907 0.20503 0.0
H719 H 0.55028 0.33337 0.24812 0.0
H720 H 0.51501 0.33463 0.18173 0.0
C721 C 0.42609 0.35684 0.24071 0.0
C722 C 0.84707 0.27114 0.48687 0.0
C723 C 0.89142 0.28439 0.48561 0.0
H724 H 0.79921 0.22997 0.46633 0.0
C725 C 0.9218 0.26489 0.46125 0.0
H726 H 0.82235 0.28579 0.50441 0.0
C727 C 0.90826 0.23286 0.4391 0.0
C728 C 0.86389 0.21963 0.44046 0.0
H729 H 0.95609 0.27431 0.45939 0.0
H730 H 0.93252 0.21899 0.42031 0.0
C731 C 0.83354 0.23928 0.46459 0.0
C732 C 0.01732 0.61729 0.84126 0.0
C733 C 0.98911 0.58895 0.8258 0.0
H734 H 0.07786 0.64933 0.83422 0.0
C735 C 1.00215 0.56991 0.79023 0.0
H736 H 1.00829 0.63244 0.86852 0.0
C737 C 0.04202 0.58021 0.76977 0.0
C738 C 0.06983 0.60904 0.78516 0.0
H739 H 0.98092 0.54798 0.77746 0.0
H740 H 0.05104 0.5657 0.74213 0.0
C741 C 0.05724 0.62696 0.82144 0.0
C742 C 0.58095 0.23719 0.48979 0.0
C743 C 0.56658 0.27201 0.50607 0.0
H744 H 0.61007 0.18255 0.50113 0.0
C745 C 0.56977 0.27686 0.54832 0.0
H746 H 0.57828 0.23171 0.45769 0.0
C747 C 0.58766 0.24842 0.57318 0.0
C748 C 0.60304 0.21414 0.55675 0.0
H749 H 0.55949 0.30297 0.56247 0.0
H750 H 0.59059 0.25391 0.60524 0.0
C751 C 0.59919 0.2088 0.51473 0.0
C752 C 0.93151 0.44839 0.74879 0.0
C753 C 0.97439 0.43769 0.75964 0.0
H754 H 0.87925 0.4432 0.70549 0.0
C755 C 0.99531 0.40999 0.73592 0.0
H756 H 0.91433 0.46969 0.76611 0.0
C757 C 0.97523 0.39482 0.70166 0.0
C758 C 0.93327 0.4064 0.68985 0.0
H759 H 0.02765 0.40004 0.74341 0.0
H760 H 0.9933 0.37459 0.68358 0.0
C761 C 0.91117 0.43292 0.71425 0.0
C762 C 0.84163 0.78808 0.91154 0.0
C763 C 0.8318 0.75092 0.92698 0.0
H764 H 0.86086 0.84585 0.92531 0.0
C765 C 0.82668 0.7452 0.96937 0.0
H766 H 0.84583 0.79341 0.87915 0.0
C767 C 0.83429 0.77554 0.99583 0.0
C768 C 0.848 0.81173 0.98021 0.0
H769 H 0.81828 0.71696 0.98206 0.0
H770 H 0.83284 0.76995 0.02836 0.0
C771 C 0.85015 0.81809 0.93794 0.0
C772 C 0.51313 0.6121 0.33133 0.0
C773 C 0.50666 0.63248 0.36733 0.0
H774 H 0.55273 0.60395 0.27805 0.0
C775 C 0.53946 0.65957 0.37817 0.0
H776 H 0.48885 0.59083 0.32202 0.0
C777 C 0.57647 0.66746 0.35235 0.0
C778 C 0.58139 0.64852 0.3151 0.0
H779 H 0.53547 0.67607 0.40548 0.0
H780 H 0.60021 0.6895 0.36072 0.0
C781 C 0.54974 0.61998 0.3057 0.0
C782 C 0.79727 1.01693 0.75306 0.0
C783 C 0.83216 0.02582 0.7253 0.0
H784 H 0.73456 0.03307 0.7783 0.0
C785 C 0.82899 0.06019 0.70172 0.0
H786 H 0.79807 0.99111 0.77191 0.0
C787 C 0.79238 0.08423 0.70503 0.0
C788 C 0.75738 0.07537 0.73252 0.0
H789 H 0.85481 0.06852 0.67982 0.0
H790 H 0.79142 0.10971 0.68568 0.0
C791 C 0.76075 0.04137 0.75676 0.0
C792 C 0.11988 0.46255 0.21782 0.0
C793 C 0.13001 0.50209 0.22181 0.0
H794 H 0.11346 0.40686 0.24701 0.0
C795 C 0.14587 0.51487 0.25901 0.0
H796 H 0.10722 0.45183 0.18954 0.0
C797 C 0.14798 0.4891 0.29232 0.0
C798 C 0.13626 0.44984 0.2886 0.0
H799 H 0.15329 0.54509 0.26323 0.0
H800 H 0.1563 0.50032 0.32171 0.0
C801 C 0.12381 0.43659 0.25057 0.0
C802 C 0.83915 0.92444 0.53677 0.0
C803 C 0.83907 0.94407 0.57355 0.0
H804 H 0.8032 0.90815 0.48452 0.0
C805 C 0.80084 0.96334 0.58547 0.0
H806 H 0.86799 0.90907 0.5271 0.0
C807 C 0.76377 0.96359 0.56063 0.0
C808 C 0.7637 0.94375 0.52382 0.0
H809 H 0.79997 0.97878 0.6137 0.0
H810 H 0.73504 0.97909 0.57029 0.0
C811 C 0.80176 0.92378 0.51252 0.0
C812 C 0.45885 0.60381 0.77031 0.0
C813 C 0.4165 0.61425 0.75826 0.0
H814 H 0.51077 0.56388 0.76622 0.0
C815 C 0.39525 0.59181 0.72914 0.0
H816 H 0.47655 0.62087 0.79211 0.0
C817 C 0.41472 0.55854 0.71436 0.0
C818 C 0.45622 0.5467 0.72817 0.0
H819 H 0.3626 0.59888 0.71917 0.0
H820 H 0.39614 0.54168 0.69315 0.0
C821 C 0.47849 0.57079 0.75538 0.0
C822 C 0.79049 0.21135 0.98024 0.0
C823 C 0.83017 0.19114 0.97787 0.0
H824 H 0.73648 0.22957 0.01745 0.0
C825 C 0.84788 0.1769 0.01412 0.0
H826 H 0.77579 0.22306 0.95312 0.0
C827 C 0.82541 0.18145 0.0515 0.0
C828 C 0.78436 0.19969 0.05332 0.0
H829 H 0.87832 0.16131 1.01351 0.0
H830 H 0.83912 0.16883 0.07865 0.0
C831 C 0.76782 0.21532 0.01729 0.0
C832 C 0.29399 0.19203 0.52759 0.0
C833 C 0.27783 0.18554 0.48832 0.0
H834 H 0.28797 0.17789 0.59169 0.0
C835 C 0.24095 0.16103 0.48423 0.0
H836 H 0.3225 0.21086 0.53146 0.0
C837 C 0.22244 0.14148 0.51811 0.0
C838 C 0.23926 0.14685 0.55722 0.0
H839 H 0.22813 0.15511 0.45447 0.0
H840 H 0.19551 0.12117 0.51343 0.0
C841 C 0.27438 0.17326 0.56195 0.0
C842 C 0.2292 0.98799 0.72245 0.0
C843 C 0.18768 0.97998 0.70577 0.0
H844 H 0.27694 0.97258 0.76666 0.0
C845 C 0.16309 0.94781 0.72098 0.0
H846 H 0.24915 1.01233 0.71125 0.0
C847 C 0.17904 0.92496 0.75276 0.0
C848 C 0.22025 0.93336 0.76997 0.0
H849 H 0.13085 0.9409 0.7092 0.0
H850 H 0.15881 0.90087 0.76416 0.0
C851 C 0.24538 0.96489 0.75394 0.0
C852 C 0.34098 0.96822 0.04172 0.0
C853 C 0.31753 0.96069 0.07848 0.0
H854 H 0.34174 0.96354 0.97671 0.0
C855 C 0.27465 0.94434 0.07692 0.0
H856 H 0.37415 0.98053 0.04183 0.0
C857 C 0.25667 0.93377 0.03994 0.0
C858 C 0.28062 0.94002 1.00336 0.0
H859 H 0.25552 0.93793 0.1045 0.0
H860 H 0.22416 0.92012 0.04011 0.0
C861 C 0.32249 0.95833 1.00446 0.0
C862 C 0.37291 0.09539 0.29253 0.0
C863 C 0.3959 0.09864 0.32921 0.0
H864 H 0.35063 0.0594 0.2449 0.0
C865 C 0.41468 0.06544 0.34573 0.0
H866 H 0.35783 0.12008 0.27857 0.0
C867 C 0.4103 0.03001 0.3259 0.0
C868 C 0.38739 0.02719 0.28902 0.0
H869 H 0.43258 0.06681 0.37383 0.0
H870 H 0.42551 1.00504 0.33908 0.0
C871 C 0.36882 0.06043 0.27284 0.0
C872 C 0.48763 0.17745 0.10696 0.0
C873 C 0.51142 0.16764 0.07157 0.0
H874 H 0.43845 0.21297 0.13278 0.0
C875 C 0.49507 0.17893 0.03361 0.0
H876 H 0.49804 0.168 0.1367 0.0
C877 C 0.45996 0.20391 0.03139 0.0
C878 C 0.44077 0.21839 0.06698 0.0
H879 H 0.51163 0.17147 1.00556 0.0
H880 H 0.45017 0.21433 1.00177 0.0
C881 C 0.45291 0.20293 0.10474 0.0
C882 C 0.99531 0.29008 0.88379 0.0
C883 C 0.98192 0.28206 0.84408 0.0
H884 H 0.03438 0.32539 0.92214 0.0
C885 C 1.00277 0.30297 0.81145 0.0
H886 H 0.98014 0.27532 0.90991 0.0
C887 C 0.03459 0.33215 0.81874 0.0
C888 C 0.04599 0.34101 0.85875 0.0
H889 H 0.99392 0.29744 0.7804 0.0
H890 H 0.04823 0.34918 0.79339 0.0
C891 C 0.02678 0.31892 0.89092 0.0
C892 C 0.972 0.69678 0.10968 0.0
C893 C 1.01372 0.6838 0.09778 0.0
H894 H 0.92943 0.74419 0.11534 0.0
C895 C 0.04396 0.71033 0.07899 0.0
H896 H 0.94771 0.67719 0.12382 0.0
C897 C 0.03331 0.74895 0.07361 0.0
C898 C 0.99213 0.76223 0.08688 0.0
H899 H 0.07656 0.70179 0.06962 0.0
H900 H 0.05764 0.76834 0.05929 0.0
C901 C 0.96142 0.7354 0.10449 0.0
C902 C 0.52811 0.78388 0.40207 0.0
C903 C 0.48454 0.7968 0.40596 0.0
H904 H 0.59729 0.79907 0.39843 0.0
C905 C 0.47812 0.83642 0.40895 0.0
H906 H 0.5343 0.7536 0.39913 0.0
C907 C 0.51417 0.86236 0.40875 0.0
C908 C 0.55775 0.84954 0.40516 0.0
H909 H 0.44521 0.84738 0.41232 0.0
H910 H 0.5077 0.89265 0.41143 0.0
C911 C 0.56428 0.80995 0.40149 0.0
C912 C 0.05738 0.80139 0.76159 0.0
C913 C 0.07369 0.77874 0.72947 0.0
H914 H 1.01509 0.84731 0.78013 0.0
C915 C 0.05502 0.78457 0.69102 0.0
H916 H 0.07031 0.79794 0.79182 0.0
C917 C 0.02332 0.81303 0.68445 0.0
C918 C 1.0078 0.83629 0.71616 0.0
H919 H 0.06644 0.76835 0.66533 0.0
H920 H 1.01198 0.81783 0.6538 0.0
C921 C 0.02489 0.82946 0.75511 0.0
C922 C 1.00953 0.24458 0.3565 0.0
C923 C 0.98936 0.28049 0.3528 0.0
H924 H 1.00487 0.18389 0.34635 0.0
C925 C 0.94841 0.28211 0.33383 0.0
H926 H 0.04085 0.24217 0.37139 0.0
C927 C 0.92811 0.2488 0.31901 0.0
C928 C 0.94788 0.21276 0.32319 0.0
H929 H 0.93221 0.30924 0.33007 0.0
H930 H 0.89626 0.2513 0.30505 0.0
C931 C 0.98897 0.21112 0.34203 0.0
C932 C 0.47055 0.78426 0.91216 0.0
C933 C 0.46865 0.74391 0.9091 0.0
H934 H 0.5114 0.8355 0.91346 0.0
C935 C 0.50794 0.72378 0.91036 0.0
H936 H 0.44057 0.80051 0.91137 0.0
C937 C 0.54856 0.74396 0.91105 0.0
C938 C 0.55057 0.78456 0.91089 0.0
H939 H 0.50749 0.69283 0.9077 0.0
H940 H 0.57853 0.72774 0.90976 0.0
C941 C 0.51106 0.8044 0.91333 0.0
C942 C 0.6719 0.95237 0.74174 0.0
C943 C 0.64129 0.92608 0.76007 0.0
H944 H 0.6833 1.00773 0.71441 0.0
C945 C 0.59624 0.93484 0.75961 0.0
H946 H 0.70687 0.94694 0.74183 0.0
C947 C 0.5825 0.97018 0.74401 0.0
C948 C 0.61345 0.9977 0.72837 0.0
H949 H 0.57174 0.91493 0.77292 0.0
H950 H 0.54775 0.97645 0.74551 0.0
C951 C 0.65819 0.98763 0.72606 0.0
C952 C 0.20065 0.38257 0.99117 0.0
C953 C 0.19857 0.42261 0.98761 0.0
H954 H 0.23579 0.33432 1.01235 0.0
C955 C 0.23333 0.44514 1.00331 0.0
H956 H 0.17448 0.3644 0.97957 0.0
C957 C 0.26871 0.42782 0.02327 0.0
C958 C 0.27056 0.38761 0.02653 0.0
H959 H 0.23342 0.47608 0.99962 0.0
H960 H 0.29488 0.44572 0.0353 0.0
C961 C 0.23603 0.36539 1.01007 0.0
C962 C 0.90178 1.00644 0.20785 0.0
C963 C 0.8582 1.01147 0.22192 0.0
H964 H 0.94708 0.9719 0.17542 0.0
C965 C 0.82633 0.98263 0.213 0.0
H966 H 0.92745 0.02775 0.21305 0.0
C967 C 0.83775 0.95027 0.19048 0.0
C968 C 0.88141 0.9456 0.1767 0.0
H969 H 0.79241 0.98482 0.22315 0.0
H970 H 0.81234 0.92917 0.18342 0.0
C971 C 0.91322 0.97398 0.18611 0.0
C972 C 0.30714 0.66538 0.61215 0.0
C973 C 0.26052 0.66459 0.61228 0.0
H974 H 0.36754 0.6683 0.57661 0.0
C975 C 0.23925 0.66502 0.57485 0.0
H976 H 0.32469 0.66469 0.6405 0.0
C977 C 0.26397 0.66768 0.5383 0.0
C978 C 0.31057 0.66924 0.53819 0.0
H979 H 0.20357 0.66437 0.57381 0.0
H980 H 0.2464 0.66866 0.50998 0.0
C981 C 0.33186 0.66729 0.57557 0.0
C982 C 0.85201 0.61287 0.07291 0.0
C983 C 0.80581 0.60983 0.07812 0.0
H984 H 0.9077 0.61054 0.03195 0.0
C985 C 0.78075 0.59862 0.04445 0.0
H986 H 0.87272 0.62071 0.09796 0.0
C987 C 0.80101 0.59221 1.00658 0.0
C988 C 0.84692 0.59698 1.00105 0.0
H989 H 0.7452 0.59614 0.04657 0.0
H990 H 0.78037 0.58509 0.98118 0.0
C991 C 0.87222 0.60666 0.03495 0.0
C992 C 0.57247 0.51456 0.27328 0.0
C993 C 0.59746 0.49389 0.30148 0.0
H994 H 0.57367 0.55336 0.22154 0.0
C995 C 0.64367 0.49566 0.29754 0.0
H996 H 0.5368 0.51344 0.27515 0.0
C997 C 0.66451 0.51754 0.26661 0.0
C998 C 0.63989 0.53886 0.23887 0.0
H999 H 0.66401 0.48055 0.31889 0.0
H1000 H 0.70026 0.51863 0.26527 0.0
C1001 C 0.59355 0.53681 0.24212 0.0
C1002 C 0.72032 0.38706 0.51847 0.0
C1003 C 0.76189 0.38637 0.49921 0.0
H1004 H 0.65033 0.38539 0.51132 0.0
C1005 C 0.76414 0.37944 0.45703 0.0
H1006 H 0.71737 0.39209 0.55078 0.0
C1007 C 0.72569 0.37508 0.43432 0.0
C1008 C 0.68418 0.37819 0.45324 0.0
H1009 H 0.79578 0.37821 0.44128 0.0
H1010 H 0.72848 0.37116 0.4018 0.0
C1011 C 0.68196 0.38332 0.4957 0.0
C1012 C 0.80711 0.54363 0.6996 0.0
C1013 C 0.83971 0.55434 0.72714 0.0
H1014 H 0.79283 0.5217 0.64086 0.0
C1015 C 0.8843 0.55294 0.71466 0.0
H1016 H 0.77252 0.5449 0.70817 0.0
C1017 C 0.89604 0.53931 0.6763 0.0
C1018 C 0.86345 0.52696 0.64928 0.0
H1019 H 0.91026 0.56056 0.73532 0.0
H1020 H 0.93071 0.53658 0.66889 0.0
C1021 C 0.81881 0.53044 0.66104 0.0
C1022 C 0.54726 0.25179 0.77911 0.0
C1023 C 0.56957 0.23895 0.74403 0.0
H1024 H 0.50493 0.29351 0.80581 0.0
C1025 C 0.56455 0.26058 0.7077 0.0
H1026 H 0.54987 0.23617 0.80773 0.0
C1027 C 0.53748 0.29311 0.70631 0.0
C1028 C 0.51525 0.30589 0.74147 0.0
H1029 H 0.58087 0.25195 0.67997 0.0
H1030 H 0.53435 0.30852 0.67763 0.0
C1031 C 0.52116 0.28482 0.77797 0.0
loop_
_geom_bond_atom_site_label_1
_geom_bond_atom_site_label_2
_geom_bond_distance
_geom_bond_site_symmetry_2
_ccdc_geom_bond_type
Cu0 N1 1.999 . S
Cu0 O6 1.974 . S
Cu0 N11 1.985 . S
Cu0 O20 1.959 . S
N1 Cu0 1.999 . S
N1 C3 1.263 . S
N1 C5 1.389 . S
N2 C3 1.347 1_655 S
N2 C4 1.395 1_655 S
C3 N1 1.263 . S
C3 N2 1.347 1_455 S
C3 H9 0.930 . S
C4 N2 1.395 1_455 S
C4 C5 1.351 . S
C4 H21 0.930 . S
C5 N1 1.389 . S
C5 C4 1.351 . S
C5 H10 0.930 . S
O6 Cu0 1.974 . S
O6 C16 1.282 . S
C7 O8 1.261 . S
C7 O20 1.251 . S
O8 C7 1.261 . S
H9 C3 0.930 . S
H10 C5 0.930 . S
N11 Cu0 1.985 . S
N11 C13 1.335 . S
N11 C14 1.390 . S
N12 C13 1.345 . S
N12 C15 1.336 . S
C13 N11 1.335 . S
C13 N12 1.345 . S
C13 H18 0.930 . S
C14 N11 1.390 . S
C14 C15 1.346 . S
C14 H19 0.930 . S
C15 N12 1.336 . S
C15 C14 1.346 . S
C15 H22 0.929 . S
C16 O6 1.282 . S
C16 O17 1.216 . S
O17 C16 1.216 . S
H18 C13 0.930 . S
H19 C14 0.930 . S
O20 Cu0 1.959 . S
O20 C7 1.251 . S
H21 C4 0.930 . S
H22 C15 0.929 . S
Cu23 N24 1.999 . S
Cu23 O29 1.974 . S
Cu23 N34 1.985 . S
Cu23 O43 1.959 . S
N24 Cu23 1.999 . S
N24 C26 1.263 . S
N24 C28 1.389 . S
N25 C26 1.358 . S
N25 C27 1.400 . S
C26 N24 1.263 . S
C26 N25 1.358 . S
C26 H32 0.930 . S
C27 N25 1.400 . S
C27 C28 1.351 . S
C27 H44 0.930 . S
C28 N24 1.389 . S
C28 C27 1.351 . S
C28 H33 0.930 . S
O29 Cu23 1.974 . S
O29 C39 1.282 . S
C30 O31 1.261 . S
C30 O43 1.251 . S
O31 C30 1.261 . S
H32 C26 0.930 . S
H33 C28 0.930 . S
N34 Cu23 1.985 . S
N34 C36 1.335 . S
N34 C37 1.390 . S
N35 C36 1.345 . S
N35 C38 1.336 . S
C36 N34 1.335 . S
C36 N35 1.345 . S
C36 H41 0.930 . S
C37 N34 1.390 . S
C37 C38 1.346 . S
C37 H42 0.930 . S
C38 N35 1.336 . S
C38 C37 1.346 . S
C38 H45 0.929 . S
C39 O29 1.282 . S
C39 O40 1.216 . S
O40 C39 1.216 . S
H41 C36 0.930 . S
H42 C37 0.930 . S
O43 Cu23 1.959 . S
O43 C30 1.251 . S
H44 C27 0.930 . S
H45 C38 0.929 . S
Cu46 N47 1.999 . S
Cu46 O52 1.974 . S
Cu46 N57 1.985 . S
Cu46 O66 1.959 . S
N47 Cu46 1.999 . S
N47 C49 1.263 . S
N47 C51 1.389 . S
N48 C49 1.358 . S
N48 C50 1.400 . S
C49 N47 1.263 . S
C49 N48 1.358 . S
C49 H55 0.930 . S
C50 N48 1.400 . S
C50 C51 1.351 . S
C50 H67 0.930 . S
C51 N47 1.389 . S
C51 C50 1.351 . S
C51 H56 0.930 . S
O52 Cu46 1.974 . S
O52 C62 1.282 . S
C53 O54 1.261 . S
C53 O66 1.251 . S
O54 C53 1.261 . S
H55 C49 0.930 . S
H56 C51 0.930 . S
N57 Cu46 1.985 . S
N57 C59 1.335 . S
N57 C60 1.390 . S
N58 C59 1.345 . S
N58 C61 1.336 . S
C59 N57 1.335 . S
C59 N58 1.345 . S
C59 H64 0.930 . S
C60 N57 1.390 . S
C60 C61 1.346 . S
C60 H65 0.930 . S
C61 N58 1.336 . S
C61 C60 1.346 . S
C61 H68 0.929 . S
C62 O52 1.282 . S
C62 O63 1.216 . S
O63 C62 1.216 . S
H64 C59 0.930 . S
H65 C60 0.930 . S
O66 Cu46 1.959 . S
O66 C53 1.251 . S
H67 C50 0.930 . S
H68 C61 0.929 . S
Cu69 N70 1.999 . S
Cu69 O75 1.974 . S
Cu69 N80 1.985 . S
Cu69 O89 1.959 . S
N70 Cu69 1.999 . S
N70 C72 1.263 . S
N70 C74 1.389 . S
N71 C72 1.358 . S
N71 C73 1.400 . S
C72 N70 1.263 . S
C72 N71 1.358 . S
C72 H78 0.930 . S
C73 N71 1.400 . S
C73 C74 1.351 . S
C73 H90 0.930 . S
C74 N70 1.389 . S
C74 C73 1.351 . S
C74 H79 0.930 . S
O75 Cu69 1.974 . S
O75 C85 1.282 . S
C76 O77 1.261 . S
C76 O89 1.251 . S
O77 C76 1.261 . S
H78 C72 0.930 . S
H79 C74 0.930 . S
N80 Cu69 1.985 . S
N80 C82 1.335 . S
N80 C83 1.390 . S
N81 C82 1.345 . S
N81 C84 1.336 . S
C82 N80 1.335 . S
C82 N81 1.345 . S
C82 H87 0.930 . S
C83 N80 1.390 . S
C83 C84 1.346 . S
C83 H88 0.930 . S
C84 N81 1.336 . S
C84 C83 1.346 . S
C84 H91 0.929 . S
C85 O75 1.282 . S
C85 O86 1.216 . S
O86 C85 1.216 . S
H87 C82 0.930 . S
H88 C83 0.930 . S
O89 Cu69 1.959 . S
O89 C76 1.251 . S
H90 C73 0.930 . S
H91 C84 0.929 . S
Cu92 N93 1.999 . S
Cu92 O98 1.974 . S
Cu92 N103 1.985 . S
Cu92 O112 1.959 . S
N93 Cu92 1.999 . S
N93 C95 1.263 . S
N93 C97 1.389 . S
N94 C95 1.358 . S
N94 C96 1.400 . S
C95 N93 1.263 . S
C95 N94 1.358 . S
C95 H101 0.930 . S
C96 N94 1.400 . S
C96 C97 1.351 . S
C96 H113 0.930 . S
C97 N93 1.389 . S
C97 C96 1.351 . S
C97 H102 0.930 . S
O98 Cu92 1.974 . S
O98 C108 1.282 . S
C99 O100 1.261 . S
C99 O112 1.251 . S
O100 C99 1.261 . S
H101 C95 0.930 . S
H102 C97 0.930 . S
N103 Cu92 1.985 . S
N103 C105 1.335 . S
N103 C106 1.390 . S
N104 C105 1.345 1_655 S
N104 C107 1.336 . S
C105 N103 1.335 . S
C105 N104 1.345 1_455 S
C105 H110 0.930 . S
C106 N103 1.390 . S
C106 C107 1.346 1_455 S
C106 H111 0.930 . S
C107 N104 1.336 . S
C107 C106 1.346 1_655 S
C107 H114 0.929 . S
C108 O98 1.282 . S
C108 O109 1.216 . S
O109 C108 1.216 . S
H110 C105 0.930 . S
H111 C106 0.930 . S
O112 Cu92 1.959 . S
O112 C99 1.251 . S
H113 C96 0.930 . S
H114 C107 0.929 . S
Cu115 N116 1.999 . S
Cu115 O121 1.974 . S
Cu115 N126 1.985 . S
Cu115 O135 1.959 . S
N116 Cu115 1.999 . S
N116 C118 1.263 . S
N116 C120 1.389 . S
N117 C118 1.358 . S
N117 C119 1.400 . S
C118 N116 1.263 . S
C118 N117 1.358 . S
C118 H124 0.930 . S
C119 N117 1.400 . S
C119 C120 1.351 . S
C119 H136 0.930 . S
C120 N116 1.389 . S
C120 C119 1.351 . S
C120 H125 0.930 . S
O121 Cu115 1.974 . S
O121 C131 1.282 . S
C122 O123 1.261 . S
C122 O135 1.251 . S
O123 C122 1.261 . S
H124 C118 0.930 . S
H125 C120 0.930 . S
N126 Cu115 1.985 . S
N126 C128 1.335 . S
N126 C129 1.390 . S
N127 C128 1.345 . S
N127 C130 1.336 . S
C128 N126 1.335 . S
C128 N127 1.345 . S
C128 H133 0.930 . S
C129 N126 1.390 . S
C129 C130 1.346 . S
C129 H134 0.930 . S
C130 N127 1.336 . S
C130 C129 1.346 . S
C130 H137 0.929 . S
C131 O121 1.282 . S
C131 O132 1.216 . S
O132 C131 1.216 . S
H133 C128 0.930 . S
H134 C129 0.930 . S
O135 Cu115 1.959 . S
O135 C122 1.251 . S
H136 C119 0.930 . S
H137 C130 0.929 . S
Cu138 N139 1.999 . S
Cu138 O144 1.974 . S
Cu138 N149 1.985 . S
Cu138 O158 1.959 . S
N139 Cu138 1.999 . S
N139 C141 1.263 . S
N139 C143 1.389 . S
N140 C141 1.358 . S
N140 C142 1.400 . S
C141 N139 1.263 . S
C141 N140 1.358 . S
C141 H147 0.930 . S
C142 N140 1.400 . S
C142 C143 1.351 . S
C142 H159 0.930 . S
C143 N139 1.389 . S
C143 C142 1.351 . S
C143 H148 0.930 . S
O144 Cu138 1.974 . S
O144 C154 1.282 . S
C145 O146 1.261 . S
C145 O158 1.251 . S
O146 C145 1.261 . S
H147 C141 0.930 . S
H148 C143 0.930 . S
N149 Cu138 1.985 . S
N149 C151 1.335 . S
N149 C152 1.390 . S
N150 C151 1.345 . S
N150 C153 1.336 . S
C151 N149 1.335 . S
C151 N150 1.345 . S
C151 H156 0.930 . S
C152 N149 1.390 . S
C152 C153 1.346 . S
C152 H157 0.930 . S
C153 N150 1.336 . S
C153 C152 1.346 . S
C153 H160 0.929 . S
C154 O144 1.282 . S
C154 O155 1.216 . S
O155 C154 1.216 . S
H156 C151 0.930 . S
H157 C152 0.930 . S
O158 Cu138 1.959 . S
O158 C145 1.251 . S
H159 C142 0.930 . S
H160 C153 0.929 . S
Cu161 N162 1.999 . S
Cu161 O167 1.974 . S
Cu161 N172 1.985 . S
Cu161 O181 1.959 . S
N162 Cu161 1.999 . S
N162 C164 1.263 . S
N162 C166 1.389 . S
N163 C164 1.358 . S
N163 C165 1.400 . S
C164 N162 1.263 . S
C164 N163 1.358 . S
C164 H170 0.930 . S
C165 N163 1.400 . S
C165 C166 1.351 . S
C165 H182 0.930 1_545 S
C166 N162 1.389 . S
C166 C165 1.351 . S
C166 H171 0.930 . S
O167 Cu161 1.974 . S
O167 C177 1.282 . S
C168 O169 1.261 . S
C168 O181 1.251 . S
O169 C168 1.261 . S
H170 C164 0.930 . S
H171 C166 0.930 . S
N172 Cu161 1.985 . S
N172 C174 1.335 . S
N172 C175 1.390 . S
N173 C174 1.345 . S
N173 C176 1.336 . S
C174 N172 1.335 . S
C174 N173 1.345 . S
C174 H179 0.930 . S
C175 N172 1.390 . S
C175 C176 1.346 . S
C175 H180 0.930 . S
C176 N173 1.336 . S
C176 C175 1.346 . S
C176 H183 0.929 . S
C177 O167 1.282 . S
C177 O178 1.216 . S
O178 C177 1.216 . S
H179 C174 0.930 . S
H180 C175 0.930 . S
O181 Cu161 1.959 . S
O181 C168 1.251 . S
H182 C165 0.930 1_565 S
H183 C176 0.929 . S
Cu184 N185 1.999 . S
Cu184 O190 1.974 . S
Cu184 N195 1.985 . S
Cu184 O204 1.959 . S
N185 Cu184 1.999 . S
N185 C187 1.263 . S
N185 C189 1.389 . S
N186 C187 1.358 . S
N186 C188 1.400 . S
C187 N185 1.263 . S
C187 N186 1.358 . S
C187 H193 0.930 . S
C188 N186 1.400 . S
C188 C189 1.351 . S
C188 H205 0.930 . S
C189 N185 1.389 . S
C189 C188 1.351 . S
C189 H194 0.930 . S
O190 Cu184 1.974 . S
O190 C200 1.282 . S
C191 O192 1.261 . S
C191 O204 1.251 . S
O192 C191 1.261 . S
H193 C187 0.930 . S
H194 C189 0.930 . S
N195 Cu184 1.985 . S
N195 C197 1.335 . S
N195 C198 1.390 . S
N196 C197 1.345 . S
N196 C199 1.336 . S
C197 N195 1.335 . S
C197 N196 1.345 . S
C197 H202 0.930 . S
C198 N195 1.390 . S
C198 C199 1.346 . S
C198 H203 0.930 . S
C199 N196 1.336 . S
C199 C198 1.346 . S
C199 H206 0.929 . S
C200 O190 1.282 . S
C200 O201 1.216 . S
O201 C200 1.216 . S
H202 C197 0.930 . S
H203 C198 0.930 . S
O204 Cu184 1.959 . S
O204 C191 1.251 . S
H205 C188 0.930 . S
H206 C199 0.929 . S
Cu207 N208 1.999 . S
Cu207 O213 1.974 . S
Cu207 N218 1.985 . S
Cu207 O227 1.959 . S
N208 Cu207 1.999 . S
N208 C210 1.263 . S
N208 C212 1.389 . S
N209 C210 1.358 . S
N209 C211 1.400 . S
C210 N208 1.263 . S
C210 N209 1.358 . S
C210 H216 0.930 . S
C211 N209 1.400 . S
C211 C212 1.351 . S
C211 H228 0.930 . S
C212 N208 1.389 . S
C212 C211 1.351 . S
C212 H217 0.930 . S
O213 Cu207 1.974 . S
O213 C223 1.282 . S
C214 O215 1.261 . S
C214 O227 1.251 . S
O215 C214 1.261 . S
H216 C210 0.930 . S
H217 C212 0.930 . S
N218 Cu207 1.985 . S
N218 C220 1.335 . S
N218 C221 1.390 . S
N219 C220 1.345 . S
N219 C222 1.336 . S
C220 N218 1.335 . S
C220 N219 1.345 . S
C220 H225 0.930 . S
C221 N218 1.390 . S
C221 C222 1.346 . S
C221 H226 0.930 . S
C222 N219 1.336 . S
C222 C221 1.346 . S
C222 H229 0.929 . S
C223 O213 1.282 . S
C223 O224 1.216 . S
O224 C223 1.216 . S
H225 C220 0.930 . S
H226 C221 0.930 . S
O227 Cu207 1.959 . S
O227 C214 1.251 . S
H228 C211 0.930 . S
H229 C222 0.929 . S
Cu230 N231 1.999 . S
Cu230 O236 1.974 . S
Cu230 N241 1.985 . S
Cu230 O250 1.959 . S
N231 Cu230 1.999 . S
N231 C233 1.263 . S
N231 C235 1.389 . S
N232 C233 1.358 . S
N232 C234 1.400 . S
C233 N231 1.263 . S
C233 N232 1.358 . S
C233 H239 0.930 . S
C234 N232 1.400 . S
C234 C235 1.351 . S
C234 H251 0.930 . S
C235 N231 1.389 . S
C235 C234 1.351 . S
C235 H240 0.930 . S
O236 Cu230 1.974 . S
O236 C246 1.282 . S
C237 O238 1.261 . S
C237 O250 1.251 . S
O238 C237 1.261 . S
H239 C233 0.930 . S
H240 C235 0.930 . S
N241 Cu230 1.985 . S
N241 C243 1.335 . S
N241 C244 1.390 . S
N242 C243 1.345 . S
N242 C245 1.336 . S
C243 N241 1.335 . S
C243 N242 1.345 . S
C243 H248 0.930 . S
C244 N241 1.390 . S
C244 C245 1.346 . S
C244 H249 0.930 . S
C245 N242 1.336 . S
C245 C244 1.346 . S
C245 H252 0.929 . S
C246 O236 1.282 . S
C246 O247 1.216 . S
O247 C246 1.216 . S
H248 C243 0.930 . S
H249 C244 0.930 . S
O250 Cu230 1.959 . S
O250 C237 1.251 . S
H251 C234 0.930 . S
H252 C245 0.929 . S
Cu253 N254 1.999 . S
Cu253 O259 1.974 . S
Cu253 N264 1.985 . S
Cu253 O273 1.959 . S
N254 Cu253 1.999 . S
N254 C256 1.263 . S
N254 C258 1.389 . S
N255 C256 1.358 . S
N255 C257 1.400 . S
C256 N254 1.263 . S
C256 N255 1.358 . S
C256 H262 0.930 . S
C257 N255 1.400 . S
C257 C258 1.351 . S
C257 H274 0.930 . S
C258 N254 1.389 . S
C258 C257 1.351 . S
C258 H263 0.930 . S
O259 Cu253 1.974 . S
O259 C269 1.282 . S
C260 O261 1.261 . S
C260 O273 1.251 . S
O261 C260 1.261 . S
H262 C256 0.930 . S
H263 C258 0.930 . S
N264 Cu253 1.985 . S
N264 C266 1.335 . S
N264 C267 1.390 . S
N265 C266 1.345 . S
N265 C268 1.336 . S
C266 N264 1.335 . S
C266 N265 1.345 . S
C266 H271 0.930 . S
C267 N264 1.390 . S
C267 C268 1.346 . S
C267 H272 0.930 . S
C268 N265 1.336 . S
C268 C267 1.346 . S
C268 H275 0.929 . S
C269 O259 1.282 . S
C269 O270 1.216 . S
O270 C269 1.216 . S
H271 C266 0.930 . S
H272 C267 0.930 . S
O273 Cu253 1.959 . S
O273 C260 1.251 . S
H274 C257 0.930 . S
H275 C268 0.929 . S
Cu276 N277 1.999 . S
Cu276 O282 1.974 . S
Cu276 N287 1.985 . S
Cu276 O296 1.959 . S
N277 Cu276 1.999 . S
N277 C279 1.263 . S
N277 C281 1.389 . S
N278 C279 1.358 . S
N278 C280 1.400 . S
C279 N277 1.263 . S
C279 N278 1.358 . S
C279 H285 0.930 . S
C280 N278 1.400 . S
C280 C281 1.351 . S
C280 H297 0.930 . S
C281 N277 1.389 . S
C281 C280 1.351 . S
C281 H286 0.930 . S
O282 Cu276 1.974 . S
O282 C292 1.282 . S
C283 O284 1.261 . S
C283 O296 1.251 . S
O284 C283 1.261 . S
H285 C279 0.930 . S
H286 C281 0.930 . S
N287 Cu276 1.985 . S
N287 C289 1.335 . S
N287 C290 1.390 . S
N288 C289 1.345 . S
N288 C291 1.336 . S
C289 N287 1.335 . S
C289 N288 1.345 . S
C289 H294 0.930 . S
C290 N287 1.390 . S
C290 C291 1.346 . S
C290 H295 0.930 . S
C291 N288 1.336 . S
C291 C290 1.346 . S
C291 H298 0.929 . S
C292 O282 1.282 . S
C292 O293 1.216 . S
O293 C292 1.216 . S
H294 C289 0.930 . S
H295 C290 0.930 . S
O296 Cu276 1.959 . S
O296 C283 1.251 . S
H297 C280 0.930 . S
H298 C291 0.929 . S
Cu299 N300 1.999 . S
Cu299 O305 1.974 . S
Cu299 N310 1.985 . S
Cu299 O319 1.959 . S
N300 Cu299 1.999 . S
N300 C302 1.263 . S
N300 C304 1.389 . S
N301 C302 1.358 . S
N301 C303 1.400 . S
C302 N300 1.263 . S
C302 N301 1.358 . S
C302 H308 0.930 . S
C303 N301 1.400 . S
C303 C304 1.351 . S
C303 H320 0.930 . S
C304 N300 1.389 . S
C304 C303 1.351 . S
C304 H309 0.930 . S
O305 Cu299 1.974 . S
O305 C315 1.282 . S
C306 O307 1.261 . S
C306 O319 1.251 . S
O307 C306 1.261 . S
H308 C302 0.930 . S
H309 C304 0.930 . S
N310 Cu299 1.985 . S
N310 C312 1.335 . S
N310 C313 1.390 . S
N311 C312 1.345 . S
N311 C314 1.336 . S
C312 N310 1.335 . S
C312 N311 1.345 . S
C312 H317 0.930 . S
C313 N310 1.390 . S
C313 C314 1.346 . S
C313 H318 0.930 . S
C314 N311 1.336 . S
C314 C313 1.346 . S
C314 H321 0.929 1_655 S
C315 O305 1.282 . S
C315 O316 1.216 . S
O316 C315 1.216 . S
H317 C312 0.930 . S
H318 C313 0.930 . S
O319 Cu299 1.959 . S
O319 C306 1.251 . S
H320 C303 0.930 . S
H321 C314 0.929 1_455 S
Cu322 N323 1.999 . S
Cu322 O328 1.974 . S
Cu322 N333 1.985 . S
Cu322 O342 1.959 . S
N323 Cu322 1.999 . S
N323 C325 1.263 . S
N323 C327 1.389 . S
N324 C325 1.358 . S
N324 C326 1.400 . S
C325 N323 1.263 . S
C325 N324 1.358 . S
C325 H331 0.930 . S
C326 N324 1.400 . S
C326 C327 1.351 . S
C326 H343 0.930 . S
C327 N323 1.389 . S
C327 C326 1.351 . S
C327 H332 0.930 . S
O328 Cu322 1.974 . S
O328 C338 1.282 . S
C329 O330 1.261 . S
C329 O342 1.251 . S
O330 C329 1.261 . S
H331 C325 0.930 . S
H332 C327 0.930 . S
N333 Cu322 1.985 . S
N333 C335 1.335 . S
N333 C336 1.390 . S
N334 C335 1.345 . S
N334 C337 1.336 . S
C335 N333 1.335 . S
C335 N334 1.345 . S
C335 H340 0.930 . S
C336 N333 1.390 . S
C336 C337 1.346 . S
C336 H341 0.930 . S
C337 N334 1.336 . S
C337 C336 1.346 . S
C337 H344 0.929 . S
C338 O328 1.282 . S
C338 O339 1.216 . S
O339 C338 1.216 . S
H340 C335 0.930 . S
H341 C336 0.930 . S
O342 Cu322 1.959 . S
O342 C329 1.251 . S
H343 C326 0.930 . S
H344 C337 0.929 . S
Cu345 N346 1.999 . S
Cu345 O351 1.974 . S
Cu345 N356 1.985 . S
Cu345 O365 1.959 . S
N346 Cu345 1.999 . S
N346 C348 1.263 . S
N346 C350 1.389 . S
N347 C348 1.358 . S
N347 C349 1.400 . S
C348 N346 1.263 . S
C348 N347 1.358 . S
C348 H354 0.930 . S
C349 N347 1.400 . S
C349 C350 1.351 . S
C349 H366 0.930 . S
C350 N346 1.389 . S
C350 C349 1.351 . S
C350 H355 0.930 . S
O351 Cu345 1.974 . S
O351 C361 1.282 . S
C352 O353 1.261 . S
C352 O365 1.251 . S
O353 C352 1.261 . S
H354 C348 0.930 . S
H355 C350 0.930 . S
N356 Cu345 1.985 . S
N356 C358 1.335 . S
N356 C359 1.390 . S
N357 C358 1.345 . S
N357 C360 1.336 . S
C358 N356 1.335 . S
C358 N357 1.345 . S
C358 H363 0.930 . S
C359 N356 1.390 . S
C359 C360 1.346 . S
C359 H364 0.930 . S
C360 N357 1.336 . S
C360 C359 1.346 . S
C360 H367 0.929 . S
C361 O351 1.282 . S
C361 O362 1.216 . S
O362 C361 1.216 . S
H363 C358 0.930 . S
H364 C359 0.930 . S
O365 Cu345 1.959 . S
O365 C352 1.251 . S
H366 C349 0.930 . S
H367 C360 0.929 . S
Cu368 N369 1.999 . S
Cu368 O374 1.974 . S
Cu368 N379 1.985 . S
Cu368 O388 1.959 . S
N369 Cu368 1.999 . S
N369 C371 1.263 . S
N369 C373 1.389 . S
N370 C371 1.358 . S
N370 C372 1.400 . S
C371 N369 1.263 . S
C371 N370 1.358 . S
C371 H377 0.930 . S
C372 N370 1.400 . S
C372 C373 1.351 . S
C372 H389 0.930 . S
C373 N369 1.389 . S
C373 C372 1.351 . S
C373 H378 0.930 . S
O374 Cu368 1.974 . S
O374 C384 1.282 . S
C375 O376 1.261 . S
C375 O388 1.251 . S
O376 C375 1.261 . S
H377 C371 0.930 . S
H378 C373 0.930 . S
N379 Cu368 1.985 . S
N379 C381 1.335 . S
N379 C382 1.390 . S
N380 C381 1.345 . S
N380 C383 1.336 . S
C381 N379 1.335 . S
C381 N380 1.345 . S
C381 H386 0.930 . S
C382 N379 1.390 . S
C382 C383 1.346 . S
C382 H387 0.930 . S
C383 N380 1.336 . S
C383 C382 1.346 . S
C383 H390 0.929 . S
C384 O374 1.282 . S
C384 O385 1.216 . S
O385 C384 1.216 . S
H386 C381 0.930 . S
H387 C382 0.930 . S
O388 Cu368 1.959 . S
O388 C375 1.251 . S
H389 C372 0.930 . S
H390 C383 0.929 . S
Cu391 N392 1.999 . S
Cu391 O397 1.974 . S
Cu391 N402 1.985 . S
Cu391 O411 1.959 . S
N392 Cu391 1.999 . S
N392 C394 1.263 . S
N392 C396 1.389 . S
N393 C394 1.358 . S
N393 C395 1.400 . S
C394 N392 1.263 . S
C394 N393 1.358 . S
C394 H400 0.930 . S
C395 N393 1.400 . S
C395 C396 1.351 . S
C395 H412 0.930 . S
C396 N392 1.389 . S
C396 C395 1.351 . S
C396 H401 0.930 . S
O397 Cu391 1.974 . S
O397 C407 1.282 . S
C398 O399 1.261 . S
C398 O411 1.251 . S
O399 C398 1.261 . S
H400 C394 0.930 . S
H401 C396 0.930 . S
N402 Cu391 1.985 . S
N402 C404 1.335 . S
N402 C405 1.390 . S
N403 C404 1.345 . S
N403 C406 1.336 . S
C404 N402 1.335 . S
C404 N403 1.345 . S
C404 H409 0.930 . S
C405 N402 1.390 . S
C405 C406 1.346 . S
C405 H410 0.930 . S
C406 N403 1.336 . S
C406 C405 1.346 . S
C406 H413 0.929 . S
C407 O397 1.282 . S
C407 O408 1.216 . S
O408 C407 1.216 . S
H409 C404 0.930 . S
H410 C405 0.930 . S
O411 Cu391 1.959 . S
O411 C398 1.251 . S
H412 C395 0.930 . S
H413 C406 0.929 . S
Cu414 N415 1.999 . S
Cu414 O420 1.974 . S
Cu414 N425 1.985 . S
Cu414 O434 1.959 . S
N415 Cu414 1.999 . S
N415 C417 1.263 . S
N415 C419 1.389 . S
N416 C417 1.358 . S
N416 C418 1.400 . S
C417 N415 1.263 . S
C417 N416 1.358 . S
C417 H423 0.930 . S
C418 N416 1.400 . S
C418 C419 1.351 . S
C418 H435 0.930 . S
C419 N415 1.389 . S
C419 C418 1.351 . S
C419 H424 0.930 . S
O420 Cu414 1.974 . S
O420 C430 1.282 . S
C421 O422 1.261 . S
C421 O434 1.251 . S
O422 C421 1.261 . S
H423 C417 0.930 . S
H424 C419 0.930 . S
N425 Cu414 1.985 . S
N425 C427 1.335 . S
N425 C428 1.390 . S
N426 C427 1.345 . S
N426 C429 1.336 . S
C427 N425 1.335 . S
C427 N426 1.345 . S
C427 H432 0.930 . S
C428 N425 1.390 . S
C428 C429 1.346 . S
C428 H433 0.930 . S
C429 N426 1.336 . S
C429 C428 1.346 . S
C429 H436 0.929 . S
C430 O420 1.282 . S
C430 O431 1.216 . S
O431 C430 1.216 . S
H432 C427 0.930 . S
H433 C428 0.930 . S
O434 Cu414 1.959 . S
O434 C421 1.251 . S
H435 C418 0.930 . S
H436 C429 0.929 . S
Cu437 N438 1.999 . S
Cu437 O443 1.974 . S
Cu437 N448 1.985 . S
Cu437 O457 1.959 . S
N438 Cu437 1.999 . S
N438 C440 1.263 . S
N438 C442 1.389 . S
N439 C440 1.358 . S
N439 C441 1.400 . S
C440 N438 1.263 . S
C440 N439 1.358 . S
C440 H446 0.930 . S
C441 N439 1.400 . S
C441 C442 1.351 . S
C441 H458 0.930 . S
C442 N438 1.389 . S
C442 C441 1.351 . S
C442 H447 0.930 . S
O443 Cu437 1.974 . S
O443 C453 1.282 . S
C444 O445 1.261 . S
C444 O457 1.251 . S
O445 C444 1.261 . S
H446 C440 0.930 . S
H447 C442 0.930 . S
N448 Cu437 1.985 . S
N448 C450 1.335 . S
N448 C451 1.390 . S
N449 C450 1.345 . S
N449 C452 1.336 . S
C450 N448 1.335 . S
C450 N449 1.345 . S
C450 H455 0.930 . S
C451 N448 1.390 . S
C451 C452 1.346 . S
C451 H456 0.930 . S
C452 N449 1.336 . S
C452 C451 1.346 . S
C452 H459 0.929 . S
C453 O443 1.282 . S
C453 O454 1.216 . S
O454 C453 1.216 . S
H455 C450 0.930 . S
H456 C451 0.930 . S
O457 Cu437 1.959 . S
O457 C444 1.251 . S
H458 C441 0.930 . S
H459 C452 0.929 . S
Cu460 N461 1.999 . S
Cu460 O466 1.974 . S
Cu460 N471 1.985 . S
Cu460 O480 1.959 . S
N461 Cu460 1.999 . S
N461 C463 1.263 . S
N461 C465 1.389 . S
N462 C463 1.358 . S
N462 C464 1.400 . S
C463 N461 1.263 . S
C463 N462 1.358 . S
C463 H469 0.930 . S
C464 N462 1.400 . S
C464 C465 1.351 . S
C464 H481 0.930 . S
C465 N461 1.389 . S
C465 C464 1.351 . S
C465 H470 0.930 . S
O466 Cu460 1.974 . S
O466 C476 1.282 . S
C467 O468 1.261 . S
C467 O480 1.251 . S
O468 C467 1.261 . S
H469 C463 0.930 . S
H470 C465 0.930 . S
N471 Cu460 1.985 . S
N471 C473 1.335 . S
N471 C474 1.390 . S
N472 C473 1.345 . S
N472 C475 1.336 . S
C473 N471 1.335 . S
C473 N472 1.345 . S
C473 H478 0.930 . S
C474 N471 1.390 . S
C474 C475 1.346 . S
C474 H479 0.930 . S
C475 N472 1.336 . S
C475 C474 1.346 . S
C475 H482 0.929 . S
C476 O466 1.282 . S
C476 O477 1.216 . S
O477 C476 1.216 . S
H478 C473 0.930 . S
H479 C474 0.930 . S
O480 Cu460 1.959 . S
O480 C467 1.251 . S
H481 C464 0.930 . S
H482 C475 0.929 . S
Cu483 N484 1.999 . S
Cu483 O489 1.974 . S
Cu483 N494 1.985 . S
Cu483 O503 1.959 . S
N484 Cu483 1.999 . S
N484 C486 1.263 . S
N484 C488 1.389 . S
N485 C486 1.358 . S
N485 C487 1.400 . S
C486 N484 1.263 . S
C486 N485 1.358 . S
C486 H492 0.930 . S
C487 N485 1.400 . S
C487 C488 1.351 . S
C487 H504 0.930 . S
C488 N484 1.389 . S
C488 C487 1.351 . S
C488 H493 0.930 . S
O489 Cu483 1.974 . S
O489 C499 1.282 . S
C490 O491 1.261 . S
C490 O503 1.251 . S
O491 C490 1.261 . S
H492 C486 0.930 . S
H493 C488 0.930 . S
N494 Cu483 1.985 . S
N494 C496 1.335 . S
N494 C497 1.390 . S
N495 C496 1.345 . S
N495 C498 1.336 . S
C496 N494 1.335 . S
C496 N495 1.345 . S
C496 H501 0.930 . S
C497 N494 1.390 . S
C497 C498 1.346 . S
C497 H502 0.930 . S
C498 N495 1.336 . S
C498 C497 1.346 . S
C498 H505 0.929 . S
C499 O489 1.282 . S
C499 O500 1.216 . S
O500 C499 1.216 . S
H501 C496 0.930 . S
H502 C497 0.930 . S
O503 Cu483 1.959 . S
O503 C490 1.251 . S
H504 C487 0.930 . S
H505 C498 0.929 . S
Cu506 N507 1.999 . S
Cu506 O512 1.974 . S
Cu506 N517 1.985 . S
Cu506 O526 1.959 . S
N507 Cu506 1.999 . S
N507 C509 1.263 . S
N507 C511 1.389 . S
N508 C509 1.358 . S
N508 C510 1.400 . S
C509 N507 1.263 . S
C509 N508 1.358 . S
C509 H515 0.930 . S
C510 N508 1.400 . S
C510 C511 1.351 . S
C510 H527 0.930 . S
C511 N507 1.389 . S
C511 C510 1.351 . S
C511 H516 0.930 . S
O512 Cu506 1.974 . S
O512 C522 1.282 . S
C513 O514 1.261 . S
C513 O526 1.251 . S
O514 C513 1.261 . S
H515 C509 0.930 . S
H516 C511 0.930 . S
N517 Cu506 1.985 . S
N517 C519 1.335 . S
N517 C520 1.390 . S
N518 C519 1.345 . S
N518 C521 1.336 . S
C519 N517 1.335 . S
C519 N518 1.345 . S
C519 H524 0.930 . S
C520 N517 1.390 . S
C520 C521 1.346 . S
C520 H525 0.930 . S
C521 N518 1.336 . S
C521 C520 1.346 . S
C521 H528 0.929 . S
C522 O512 1.282 . S
C522 O523 1.216 . S
O523 C522 1.216 . S
H524 C519 0.930 . S
H525 C520 0.930 . S
O526 Cu506 1.959 . S
O526 C513 1.251 . S
H527 C510 0.930 . S
H528 C521 0.929 . S
Cu529 N530 1.999 . S
Cu529 O535 1.974 . S
Cu529 N540 1.985 . S
Cu529 O549 1.959 . S
N530 Cu529 1.999 . S
N530 C532 1.263 . S
N530 C534 1.389 . S
N531 C532 1.358 . S
N531 C533 1.400 . S
C532 N530 1.263 . S
C532 N531 1.358 . S
C532 H538 0.930 . S
C533 N531 1.400 . S
C533 C534 1.351 . S
C533 H550 0.930 . S
C534 N530 1.389 . S
C534 C533 1.351 . S
C534 H539 0.930 . S
O535 Cu529 1.974 . S
O535 C545 1.282 . S
C536 O537 1.261 . S
C536 O549 1.251 . S
O537 C536 1.261 . S
H538 C532 0.930 . S
H539 C534 0.930 . S
N540 Cu529 1.985 . S
N540 C542 1.335 . S
N540 C543 1.390 . S
N541 C542 1.345 . S
N541 C544 1.336 . S
C542 N540 1.335 . S
C542 N541 1.345 . S
C542 H547 0.930 . S
C543 N540 1.390 . S
C543 C544 1.346 . S
C543 H548 0.930 . S
C544 N541 1.336 . S
C544 C543 1.346 . S
C544 H551 0.929 . S
C545 O535 1.282 . S
C545 O546 1.216 . S
O546 C545 1.216 . S
H547 C542 0.930 . S
H548 C543 0.930 . S
O549 Cu529 1.959 . S
O549 C536 1.251 . S
H550 C533 0.930 . S
H551 C544 0.929 . S
C552 C553 1.387 . S
C552 H556 0.950 . S
C552 C561 1.390 . S
C553 C552 1.387 . S
C553 C555 1.387 . S
H554 C561 0.950 . S
C555 C553 1.387 . S
C555 C557 1.390 . S
C555 H559 0.950 . S
H556 C552 0.950 . S
C557 C555 1.390 . S
C557 C558 1.387 . S
C557 H560 0.950 . S
C558 C557 1.387 . S
C558 C561 1.387 . S
H559 C555 0.950 . S
H560 C557 0.950 . S
C561 C552 1.390 . S
C561 H554 0.950 . S
C561 C558 1.387 . S
C562 C563 1.387 . S
C562 H566 0.950 . S
C562 C571 1.390 1_655 S
C563 C562 1.387 . S
C563 C565 1.387 1_655 S
H564 C571 0.950 . S
C565 C563 1.387 1_455 S
C565 C567 1.390 . S
C565 H569 0.950 . S
H566 C562 0.950 . S
C567 C565 1.390 . S
C567 C568 1.387 . S
C567 H570 0.950 . S
C568 C567 1.387 . S
C568 C571 1.387 . S
H569 C565 0.950 . S
H570 C567 0.950 . S
C571 C562 1.390 1_455 S
C571 H564 0.950 . S
C571 C568 1.387 . S
C572 C573 1.387 . S
C572 H576 0.950 . S
C572 C581 1.390 1_554 S
C573 C572 1.387 . S
C573 C575 1.387 . S
H574 C581 0.950 . S
C575 C573 1.387 . S
C575 C577 1.390 . S
C575 H579 0.950 . S
H576 C572 0.950 . S
C577 C575 1.390 . S
C577 C578 1.387 1_554 S
C577 H580 0.950 . S
C578 C577 1.387 1_556 S
C578 C581 1.387 . S
H579 C575 0.950 . S
H580 C577 0.950 . S
C581 C572 1.390 1_556 S
C581 H574 0.950 . S
C581 C578 1.387 . S
C582 C583 1.387 . S
C582 H586 0.950 . S
C582 C591 1.390 . S
C583 C582 1.387 . S
C583 C585 1.387 . S
H584 C591 0.950 . S
C585 C583 1.387 . S
C585 C587 1.390 . S
C585 H589 0.950 . S
H586 C582 0.950 . S
C587 C585 1.390 . S
C587 C588 1.387 . S
C587 H590 0.950 . S
C588 C587 1.387 . S
C588 C591 1.387 . S
H589 C585 0.950 . S
H590 C587 0.950 . S
C591 C582 1.390 . S
C591 H584 0.950 . S
C591 C588 1.387 . S
C592 C593 1.387 . S
C592 H596 0.950 . S
C592 C601 1.390 . S
C593 C592 1.387 . S
C593 C595 1.387 1_554 S
H594 C601 0.950 . S
C595 C593 1.387 1_556 S
C595 C597 1.390 1_556 S
C595 H599 0.950 . S
H596 C592 0.950 . S
C597 C595 1.390 1_554 S
C597 C598 1.387 . S
C597 H600 0.950 . S
C598 C597 1.387 . S
C598 C601 1.387 . S
H599 C595 0.950 . S
H600 C597 0.950 . S
C601 C592 1.390 . S
C601 H594 0.950 . S
C601 C598 1.387 . S
C602 C603 1.387 . S
C602 H606 0.950 . S
C602 C611 1.390 . S
C603 C602 1.387 . S
C603 C605 1.387 . S
H604 C611 0.950 . S
C605 C603 1.387 . S
C605 C607 1.390 . S
C605 H609 0.950 . S
H606 C602 0.950 . S
C607 C605 1.390 . S
C607 C608 1.387 . S
C607 H610 0.950 . S
C608 C607 1.387 . S
C608 C611 1.387 . S
H609 C605 0.950 . S
H610 C607 0.950 . S
C611 C602 1.390 . S
C611 H604 0.950 . S
C611 C608 1.387 . S
C612 C613 1.387 . S
C612 H616 0.950 . S
C612 C621 1.390 . S
C613 C612 1.387 . S
C613 C615 1.387 . S
H614 C621 0.950 . S
C615 C613 1.387 . S
C615 C617 1.390 . S
C615 H619 0.950 . S
H616 C612 0.950 . S
C617 C615 1.390 . S
C617 C618 1.387 . S
C617 H620 0.950 . S
C618 C617 1.387 . S
C618 C621 1.387 . S
H619 C615 0.950 . S
H620 C617 0.950 . S
C621 C612 1.390 . S
C621 H614 0.950 . S
C621 C618 1.387 . S
C622 C623 1.387 . S
C622 H626 0.950 . S
C622 C631 1.390 1_455 S
C623 C622 1.387 . S
C623 C625 1.395 . S
H624 C631 0.950 . S
C625 C623 1.395 . S
C625 C627 1.376 1_455 S
C625 H629 0.956 . S
H626 C622 0.950 . S
C627 C625 1.376 1_655 S
C627 C628 1.387 . S
C627 H630 0.950 . S
C628 C627 1.387 . S
C628 C631 1.387 . S
H629 C625 0.956 . S
H630 C627 0.950 . S
C631 C622 1.390 1_655 S
C631 H624 0.950 . S
C631 C628 1.387 . S
C632 C633 1.387 . S
C632 H636 0.950 . S
C632 C641 1.390 . S
C633 C632 1.387 . S
C633 C635 1.387 . S
H634 C641 0.950 . S
C635 C633 1.387 . S
C635 C637 1.390 . S
C635 H639 0.950 . S
H636 C632 0.950 . S
C637 C635 1.390 . S
C637 C638 1.387 . S
C637 H640 0.950 . S
C638 C637 1.387 . S
C638 C641 1.387 . S
H639 C635 0.950 . S
H640 C637 0.950 . S
C641 C632 1.390 . S
C641 H634 0.950 . S
C641 C638 1.387 . S
C642 C643 1.387 . S
C642 H646 0.950 . S
C642 C651 1.390 . S
C643 C642 1.387 . S
C643 C645 1.387 . S
H644 C651 0.950 . S
C645 C643 1.387 . S
C645 C647 1.390 . S
C645 H649 0.950 . S
H646 C642 0.950 . S
C647 C645 1.390 . S
C647 C648 1.387 . S
C647 H650 0.950 . S
C648 C647 1.387 . S
C648 C651 1.387 . S
H649 C645 0.950 . S
H650 C647 0.950 . S
C651 C642 1.390 . S
C651 H644 0.950 . S
C651 C648 1.387 . S
C652 C653 1.387 . S
C652 H656 0.950 . S
C652 C661 1.390 1_545 S
C653 C652 1.387 . S
C653 C655 1.387 . S
H654 C661 0.950 . S
C655 C653 1.387 . S
C655 C657 1.390 . S
C655 H659 0.950 . S
H656 C652 0.950 . S
C657 C655 1.390 . S
C657 C658 1.387 1_545 S
C657 H660 0.950 . S
C658 C657 1.387 1_565 S
C658 C661 1.387 . S
H659 C655 0.950 . S
H660 C657 0.950 . S
C661 C652 1.390 1_565 S
C661 H654 0.950 . S
C661 C658 1.387 . S
C662 C663 1.387 1_565 S
C662 H666 0.946 1_565 S
C662 C671 1.390 . S
C663 C662 1.387 1_545 S
C663 C665 1.383 1_545 S
H664 C671 0.950 . S
C665 C663 1.383 1_565 S
C665 C667 1.401 . S
C665 H669 0.943 1_565 S
H666 C662 0.946 1_545 S
C667 C665 1.401 . S
C667 C668 1.387 . S
C667 H670 0.950 . S
C668 C667 1.387 . S
C668 C671 1.387 . S
H669 C665 0.943 1_545 S
H670 C667 0.950 . S
C671 C662 1.390 . S
C671 H664 0.950 . S
C671 C668 1.387 . S
C672 C673 1.387 . S
C672 H676 0.950 . S
C672 C681 1.390 . S
C673 C672 1.387 . S
C673 C675 1.387 . S
H674 C681 0.950 . S
C675 C673 1.387 . S
C675 C677 1.390 . S
C675 H679 0.950 . S
H676 C672 0.950 . S
C677 C675 1.390 . S
C677 C678 1.387 . S
C677 H680 0.950 . S
C678 C677 1.387 . S
C678 C681 1.387 . S
H679 C675 0.950 . S
H680 C677 0.950 . S
C681 C672 1.390 . S
C681 H674 0.950 . S
C681 C678 1.387 . S
C682 C683 1.387 . S
C682 H686 0.950 . S
C682 C691 1.390 . S
C683 C682 1.387 . S
C683 C685 1.387 . S
H684 C691 0.950 . S
C685 C683 1.387 . S
C685 C687 1.390 . S
C685 H689 0.950 . S
H686 C682 0.950 . S
C687 C685 1.390 . S
C687 C688 1.387 . S
C687 H690 0.950 . S
C688 C687 1.387 . S
C688 C691 1.387 . S
H689 C685 0.950 . S
H690 C687 0.950 . S
C691 C682 1.390 . S
C691 H684 0.950 . S
C691 C688 1.387 . S
C692 C693 1.387 . S
C692 H696 0.950 . S
C692 C701 1.390 . S
C693 C692 1.387 . S
C693 C695 1.387 . S
H694 C701 0.950 . S
C695 C693 1.387 . S
C695 C697 1.390 . S
C695 H699 0.950 . S
H696 C692 0.950 . S
C697 C695 1.390 . S
C697 C698 1.387 . S
C697 H700 0.950 . S
C698 C697 1.387 . S
C698 C701 1.387 . S
H699 C695 0.950 . S
H700 C697 0.950 . S
C701 C692 1.390 . S
C701 H694 0.950 . S
C701 C698 1.387 . S
C702 C703 1.384 1_556 S
C702 H706 0.950 . S
C702 C711 1.390 1_556 S
C703 C702 1.384 1_554 S
C703 C705 1.401 . S
H704 C711 0.950 . S
C705 C703 1.401 . S
C705 C707 1.390 . S
C705 H709 0.950 . S
H706 C702 0.950 . S
C707 C705 1.390 . S
C707 C708 1.387 . S
C707 H710 0.950 . S
C708 C707 1.387 . S
C708 C711 1.387 . S
H709 C705 0.950 . S
H710 C707 0.950 . S
C711 C702 1.390 1_554 S
C711 H704 0.950 . S
C711 C708 1.387 . S
C712 C713 1.387 . S
C712 H716 0.950 . S
C712 C721 1.390 . S
C713 C712 1.387 . S
C713 C715 1.387 . S
H714 C721 0.950 . S
C715 C713 1.387 . S
C715 C717 1.390 . S
C715 H719 0.950 . S
H716 C712 0.950 . S
C717 C715 1.390 . S
C717 C718 1.387 . S
C717 H720 0.950 . S
C718 C717 1.387 . S
C718 C721 1.387 . S
H719 C715 0.950 . S
H720 C717 0.950 . S
C721 C712 1.390 . S
C721 H714 0.950 . S
C721 C718 1.387 . S
C722 C723 1.387 . S
C722 H726 0.950 . S
C722 C731 1.390 . S
C723 C722 1.387 . S
C723 C725 1.387 . S
H724 C731 0.950 . S
C725 C723 1.387 . S
C725 C727 1.390 . S
C725 H729 0.950 . S
H726 C722 0.950 . S
C727 C725 1.390 . S
C727 C728 1.387 . S
C727 H730 0.950 . S
C728 C727 1.387 . S
C728 C731 1.387 . S
H729 C725 0.950 . S
H730 C727 0.950 . S
C731 C722 1.390 . S
C731 H724 0.950 . S
C731 C728 1.387 . S
C732 C733 1.387 . S
C732 H736 0.950 . S
C732 C741 1.390 1_655 S
C733 C732 1.387 . S
C733 C735 1.387 1_655 S
H734 C741 0.950 . S
C735 C733 1.387 1_455 S
C735 C737 1.390 . S
C735 H739 0.950 . S
H736 C732 0.950 . S
C737 C735 1.390 . S
C737 C738 1.387 . S
C737 H740 0.950 . S
C738 C737 1.387 . S
C738 C741 1.387 . S
H739 C735 0.950 . S
H740 C737 0.950 . S
C741 C732 1.390 1_455 S
C741 H734 0.950 . S
C741 C738 1.387 . S
C742 C743 1.387 . S
C742 H746 0.950 . S
C742 C751 1.390 . S
C743 C742 1.387 . S
C743 C745 1.387 . S
H744 C751 0.950 . S
C745 C743 1.387 . S
C745 C747 1.390 . S
C745 H749 0.950 . S
H746 C742 0.950 . S
C747 C745 1.390 . S
C747 C748 1.387 . S
C747 H750 0.950 . S
C748 C747 1.387 . S
C748 C751 1.387 . S
H749 C745 0.950 . S
H750 C747 0.950 . S
C751 C742 1.390 . S
C751 H744 0.950 . S
C751 C748 1.387 . S
C752 C753 1.387 . S
C752 H756 0.950 . S
C752 C761 1.390 1_455 S
C753 C752 1.387 . S
C753 C755 1.387 . S
H754 C761 0.950 . S
C755 C753 1.387 . S
C755 C757 1.390 1_455 S
C755 H759 0.950 . S
H756 C752 0.950 . S
C757 C755 1.390 1_655 S
C757 C758 1.387 . S
C757 H760 0.950 . S
C758 C757 1.387 . S
C758 C761 1.387 . S
H759 C755 0.950 . S
H760 C757 0.950 . S
C761 C752 1.390 1_655 S
C761 H754 0.950 . S
C761 C758 1.387 . S
C762 C763 1.387 . S
C762 H766 0.950 . S
C762 C771 1.390 . S
C763 C762 1.387 . S
C763 C765 1.387 . S
H764 C771 0.950 1_554 S
C765 C763 1.387 . S
C765 C767 1.390 1_556 S
C765 H769 0.950 . S
H766 C762 0.950 . S
C767 C765 1.390 1_554 S
C767 C768 1.387 . S
C767 H770 0.950 . S
C768 C767 1.387 . S
C768 C771 1.387 1_554 S
H769 C765 0.950 . S
H770 C767 0.950 . S
C771 C762 1.390 . S
C771 H764 0.950 1_556 S
C771 C768 1.387 1_556 S
C772 C773 1.387 . S
C772 H776 0.950 . S
C772 C781 1.390 . S
C773 C772 1.387 . S
C773 C775 1.387 . S
H774 C781 0.950 . S
C775 C773 1.387 . S
C775 C777 1.390 . S
C775 H779 0.950 . S
H776 C772 0.950 . S
C777 C775 1.390 . S
C777 C778 1.387 . S
C777 H780 0.950 . S
C778 C777 1.387 . S
C778 C781 1.387 . S
H779 C775 0.950 . S
H780 C777 0.950 . S
C781 C772 1.390 . S
C781 H774 0.950 . S
C781 C778 1.387 . S
C782 C783 1.387 . S
C782 H786 0.950 . S
C782 C791 1.390 . S
C783 C782 1.387 . S
C783 C785 1.387 . S
H784 C791 0.950 . S
C785 C783 1.387 . S
C785 C787 1.390 . S
C785 H789 0.950 . S
H786 C782 0.950 . S
C787 C785 1.390 . S
C787 C788 1.387 . S
C787 H790 0.950 . S
C788 C787 1.387 . S
C788 C791 1.387 . S
H789 C785 0.950 . S
H790 C787 0.950 . S
C791 C782 1.390 . S
C791 H784 0.950 . S
C791 C788 1.387 . S
C792 C793 1.387 . S
C792 H796 0.950 . S
C792 C801 1.390 . S
C793 C792 1.387 . S
C793 C795 1.387 . S
H794 C801 0.950 . S
C795 C793 1.387 . S
C795 C797 1.390 . S
C795 H799 0.950 1_455 S
H796 C792 0.950 . S
C797 C795 1.390 . S
C797 C798 1.387 . S
C797 H800 0.950 1_455 S
C798 C797 1.387 . S
C798 C801 1.387 . S
H799 C795 0.950 1_655 S
H800 C797 0.950 1_655 S
C801 C792 1.390 . S
C801 H794 0.950 . S
C801 C798 1.387 . S
C802 C803 1.387 . S
C802 H806 0.950 . S
C802 C811 1.390 . S
C803 C802 1.387 . S
C803 C805 1.387 . S
H804 C811 0.950 . S
C805 C803 1.387 . S
C805 C807 1.390 . S
C805 H809 0.950 . S
H806 C802 0.950 . S
C807 C805 1.390 . S
C807 C808 1.387 . S
C807 H810 0.950 . S
C808 C807 1.387 . S
C808 C811 1.387 . S
H809 C805 0.950 . S
H810 C807 0.950 . S
C811 C802 1.390 . S
C811 H804 0.950 . S
C811 C808 1.387 . S
C812 C813 1.387 . S
C812 H816 0.950 . S
C812 C821 1.390 . S
C813 C812 1.387 . S
C813 C815 1.387 . S
H814 C821 0.950 . S
C815 C813 1.387 . S
C815 C817 1.390 . S
C815 H819 0.950 . S
H816 C812 0.950 . S
C817 C815 1.390 . S
C817 C818 1.387 . S
C817 H820 0.950 . S
C818 C817 1.387 . S
C818 C821 1.387 . S
H819 C815 0.950 . S
H820 C817 0.950 . S
C821 C812 1.390 . S
C821 H814 0.950 . S
C821 C818 1.387 . S
C822 C823 1.387 . S
C822 H826 0.950 . S
C822 C831 1.390 . S
C823 C822 1.387 . S
C823 C825 1.387 1_556 S
H824 C831 0.950 . S
C825 C823 1.387 1_554 S
C825 C827 1.390 . S
C825 H829 0.950 . S
H826 C822 0.950 . S
C827 C825 1.390 . S
C827 C828 1.387 . S
C827 H830 0.950 . S
C828 C827 1.387 . S
C828 C831 1.387 1_554 S
H829 C825 0.950 . S
H830 C827 0.950 . S
C831 C822 1.390 . S
C831 H824 0.950 . S
C831 C828 1.387 1_556 S
C832 C833 1.387 . S
C832 H836 0.950 . S
C832 C841 1.390 . S
C833 C832 1.387 . S
C833 C835 1.387 . S
H834 C841 0.950 . S
C835 C833 1.387 . S
C835 C837 1.390 . S
C835 H839 0.950 . S
H836 C832 0.950 . S
C837 C835 1.390 . S
C837 C838 1.387 . S
C837 H840 0.950 . S
C838 C837 1.387 . S
C838 C841 1.387 . S
H839 C835 0.950 . S
H840 C837 0.950 . S
C841 C832 1.390 . S
C841 H834 0.950 . S
C841 C838 1.387 . S
C842 C843 1.387 . S
C842 H846 0.950 . S
C842 C851 1.390 . S
C843 C842 1.387 . S
C843 C845 1.387 1_545 S
H844 C851 0.950 . S
C845 C843 1.387 1_565 S
C845 C847 1.390 . S
C845 H849 0.950 . S
H846 C842 0.950 . S
C847 C845 1.390 . S
C847 C848 1.387 . S
C847 H850 0.950 . S
C848 C847 1.387 . S
C848 C851 1.387 1_565 S
H849 C845 0.950 . S
H850 C847 0.950 . S
C851 C842 1.390 . S
C851 H844 0.950 . S
C851 C848 1.387 1_545 S
C852 C853 1.387 . S
C852 H856 0.950 . S
C852 C861 1.390 . S
C853 C852 1.387 . S
C853 C855 1.387 . S
H854 C861 0.950 1_556 S
C855 C853 1.387 . S
C855 C857 1.390 . S
C855 H859 0.950 . S
H856 C852 0.950 . S
C857 C855 1.390 . S
C857 C858 1.387 1_554 S
C857 H860 0.950 . S
C858 C857 1.387 1_556 S
C858 C861 1.387 1_556 S
H859 C855 0.950 . S
H860 C857 0.950 . S
C861 C852 1.390 . S
C861 H854 0.950 1_554 S
C861 C858 1.387 1_554 S
C862 C863 1.387 . S
C862 H866 0.950 . S
C862 C871 1.390 . S
C863 C862 1.387 . S
C863 C865 1.387 . S
H864 C871 0.950 . S
C865 C863 1.387 . S
C865 C867 1.390 1_545 S
C865 H869 0.950 . S
H866 C862 0.950 . S
C867 C865 1.390 1_565 S
C867 C868 1.387 . S
C867 H870 0.950 . S
C868 C867 1.387 . S
C868 C871 1.387 1_565 S
H869 C865 0.950 . S
H870 C867 0.950 . S
C871 C862 1.390 . S
C871 H864 0.950 . S
C871 C868 1.387 1_545 S
C872 C873 1.387 . S
C872 H876 0.950 . S
C872 C881 1.390 . S
C873 C872 1.387 . S
C873 C875 1.387 . S
H874 C881 0.950 . S
C875 C873 1.387 . S
C875 C877 1.390 . S
C875 H879 0.950 . S
H876 C872 0.950 . S
C877 C875 1.390 . S
C877 C878 1.387 . S
C877 H880 0.950 . S
C878 C877 1.387 . S
C878 C881 1.387 . S
H879 C875 0.950 . S
H880 C877 0.950 . S
C881 C872 1.390 . S
C881 H874 0.950 . S
C881 C878 1.387 . S
C882 C883 1.387 1_455 S
C882 H886 0.950 1_455 S
C882 C891 1.390 . S
C883 C882 1.387 1_655 S
C883 C885 1.387 1_655 S
H884 C891 0.950 . S
C885 C883 1.387 1_455 S
C885 C887 1.390 . S
C885 H889 0.945 1_455 S
H886 C882 0.950 1_655 S
C887 C885 1.390 . S
C887 C888 1.387 . S
C887 H890 0.950 . S
C888 C887 1.387 . S
C888 C891 1.387 . S
H889 C885 0.945 1_655 S
H890 C887 0.950 . S
C891 C882 1.390 . S
C891 H884 0.950 . S
C891 C888 1.387 . S
C892 C893 1.387 . S
C892 H896 0.950 . S
C892 C901 1.390 . S
C893 C892 1.387 . S
C893 C895 1.387 1_655 S
H894 C901 0.950 . S
C895 C893 1.387 1_455 S
C895 C897 1.390 . S
C895 H899 0.950 . S
H896 C892 0.950 . S
C897 C895 1.390 . S
C897 C898 1.387 1_455 S
C897 H900 0.950 . S
C898 C897 1.387 1_655 S
C898 C901 1.387 . S
H899 C895 0.950 . S
H900 C897 0.950 . S
C901 C892 1.390 . S
C901 H894 0.950 . S
C901 C898 1.387 . S
C902 C903 1.387 . S
C902 H906 0.950 . S
C902 C911 1.390 . S
C903 C902 1.387 . S
C903 C905 1.387 . S
H904 C911 0.950 . S
C905 C903 1.387 . S
C905 C907 1.390 . S
C905 H909 0.950 . S
H906 C902 0.950 . S
C907 C905 1.390 . S
C907 C908 1.387 . S
C907 H910 0.950 . S
C908 C907 1.387 . S
C908 C911 1.387 . S
H909 C905 0.950 . S
H910 C907 0.950 . S
C911 C902 1.390 . S
C911 H904 0.950 . S
C911 C908 1.387 . S
C912 C913 1.387 . S
C912 H916 0.950 . S
C912 C921 1.390 . S
C913 C912 1.387 . S
C913 C915 1.374 1_455 S
H914 C921 0.950 . S
C915 C913 1.374 1_655 S
C915 C917 1.403 . S
C915 H919 0.951 . S
H916 C912 0.950 . S
C917 C915 1.403 . S
C917 C918 1.387 . S
C917 H920 0.950 . S
C918 C917 1.387 . S
C918 C921 1.387 1_655 S
H919 C915 0.951 . S
H920 C917 0.950 . S
C921 C912 1.390 . S
C921 H914 0.950 . S
C921 C918 1.387 1_455 S
C922 C923 1.387 . S
C922 H926 0.950 . S
C922 C931 1.390 . S
C923 C922 1.387 . S
C923 C925 1.387 . S
H924 C931 0.950 . S
C925 C923 1.387 . S
C925 C927 1.390 . S
C925 H929 0.950 . S
H926 C922 0.950 . S
C927 C925 1.390 . S
C927 C928 1.387 . S
C927 H930 0.950 . S
C928 C927 1.387 . S
C928 C931 1.387 . S
H929 C925 0.950 . S
H930 C927 0.950 . S
C931 C922 1.390 . S
C931 H924 0.950 . S
C931 C928 1.387 . S
C932 C933 1.387 . S
C932 H936 0.950 . S
C932 C941 1.390 . S
C933 C932 1.387 . S
C933 C935 1.387 . S
H934 C941 0.950 . S
C935 C933 1.387 . S
C935 C937 1.390 . S
C935 H939 0.950 . S
H936 C932 0.950 . S
C937 C935 1.390 . S
C937 C938 1.387 . S
C937 H940 0.950 . S
C938 C937 1.387 . S
C938 C941 1.387 . S
H939 C935 0.950 . S
H940 C937 0.950 . S
C941 C932 1.390 . S
C941 H934 0.950 . S
C941 C938 1.387 . S
C942 C943 1.387 . S
C942 H946 0.950 . S
C942 C951 1.390 . S
C943 C942 1.387 . S
C943 C945 1.387 . S
H944 C951 0.950 . S
C945 C943 1.387 . S
C945 C947 1.390 1_565 S
C945 H949 0.950 . S
H946 C942 0.950 . S
C947 C945 1.390 1_545 S
C947 C948 1.387 . S
C947 H950 0.950 . S
C948 C947 1.387 . S
C948 C951 1.387 1_545 S
H949 C945 0.950 . S
H950 C947 0.950 . S
C951 C942 1.390 . S
C951 H944 0.950 . S
C951 C948 1.387 1_565 S
C952 C953 1.387 . S
C952 H956 0.950 . S
C952 C961 1.390 1_556 S
C953 C952 1.387 . S
C953 C955 1.387 . S
H954 C961 0.950 . S
C955 C953 1.387 . S
C955 C957 1.390 1_556 S
C955 H959 0.950 . S
H956 C952 0.950 . S
C957 C955 1.390 1_554 S
C957 C958 1.387 . S
C957 H960 0.950 . S
C958 C957 1.387 . S
C958 C961 1.387 . S
H959 C955 0.950 . S
H960 C957 0.950 . S
C961 C952 1.390 1_554 S
C961 H954 0.950 . S
C961 C958 1.387 . S
C962 C963 1.388 1_545 S
C962 H966 0.964 . S
C962 C971 1.376 1_545 S
C963 C962 1.388 1_565 S
C963 C965 1.387 . S
H964 C971 0.950 . S
C965 C963 1.387 . S
C965 C967 1.390 . S
C965 H969 0.950 . S
H966 C962 0.964 . S
C967 C965 1.390 . S
C967 C968 1.387 . S
C967 H970 0.950 . S
C968 C967 1.387 . S
C968 C971 1.387 . S
H969 C965 0.950 . S
H970 C967 0.950 . S
C971 C962 1.376 1_565 S
C971 H964 0.950 . S
C971 C968 1.387 . S
C972 C973 1.387 . S
C972 H976 0.950 . S
C972 C981 1.390 . S
C973 C972 1.387 . S
C973 C975 1.387 . S
H974 C981 0.950 . S
C975 C973 1.387 . S
C975 C977 1.390 . S
C975 H979 0.950 . S
H976 C972 0.950 . S
C977 C975 1.390 . S
C977 C978 1.387 . S
C977 H980 0.950 . S
C978 C977 1.387 . S
C978 C981 1.387 . S
H979 C975 0.950 . S
H980 C977 0.950 . S
C981 C972 1.390 . S
C981 H974 0.950 . S
C981 C978 1.387 . S
C982 C983 1.387 1_556 S
C982 H986 0.950 . S
C982 C991 1.390 . S
C983 C982 1.387 1_554 S
C983 C985 1.387 1_554 S
H984 C991 0.950 . S
C985 C983 1.387 1_556 S
C985 C987 1.390 . S
C985 H989 0.950 1_556 S
H986 C982 0.950 . S
C987 C985 1.390 . S
C987 C988 1.387 . S
C987 H990 0.950 . S
C988 C987 1.387 . S
C988 C991 1.387 . S
H989 C985 0.950 1_554 S
H990 C987 0.950 . S
C991 C982 1.390 . S
C991 H984 0.950 . S
C991 C988 1.387 . S
C992 C993 1.387 . S
C992 H996 0.950 . S
C992 C1001 1.390 . S
C993 C992 1.387 . S
C993 C995 1.387 . S
H994 C1001 0.950 . S
C995 C993 1.387 . S
C995 C997 1.390 . S
C995 H999 0.950 . S
H996 C992 0.950 . S
C997 C995 1.390 . S
C997 C998 1.387 . S
C997 H1000 0.950 . S
C998 C997 1.387 . S
C998 C1001 1.387 . S
H999 C995 0.950 . S
H1000 C997 0.950 . S
C1001 C992 1.390 . S
C1001 H994 0.950 . S
C1001 C998 1.387 . S
C1002 C1003 1.387 . S
C1002 H1006 0.950 . S
C1002 C1011 1.390 . S
C1003 C1002 1.387 . S
C1003 C1005 1.387 . S
H1004 C1011 0.950 . S
C1005 C1003 1.387 . S
C1005 C1007 1.390 . S
C1005 H1009 0.950 . S
H1006 C1002 0.950 . S
C1007 C1005 1.390 . S
C1007 C1008 1.387 . S
C1007 H1010 0.950 . S
C1008 C1007 1.387 . S
C1008 C1011 1.387 . S
H1009 C1005 0.950 . S
H1010 C1007 0.950 . S
C1011 C1002 1.390 . S
C1011 H1004 0.950 . S
C1011 C1008 1.387 . S
C1012 C1013 1.387 . S
C1012 H1016 0.950 . S
C1012 C1021 1.390 . S
C1013 C1012 1.387 . S
C1013 C1015 1.387 . S
H1014 C1021 0.950 . S
C1015 C1013 1.387 . S
C1015 C1017 1.390 . S
C1015 H1019 0.950 . S
H1016 C1012 0.950 . S
C1017 C1015 1.390 . S
C1017 C1018 1.387 . S
C1017 H1020 0.950 . S
C1018 C1017 1.387 . S
C1018 C1021 1.387 . S
H1019 C1015 0.950 . S
H1020 C1017 0.950 . S
C1021 C1012 1.390 . S
C1021 H1014 0.950 . S
C1021 C1018 1.387 . S
C1022 C1023 1.387 . S
C1022 H1026 0.950 . S
C1022 C1031 1.390 . S
C1023 C1022 1.387 . S
C1023 C1025 1.387 . S
H1024 C1031 0.950 . S
C1025 C1023 1.387 . S
C1025 C1027 1.390 . S
C1025 H1029 0.950 . S
H1026 C1022 0.950 . S
C1027 C1025 1.390 . S
C1027 C1028 1.387 . S
C1027 H1030 0.950 . S
C1028 C1027 1.387 . S
C1028 C1031 1.387 . S
H1029 C1025 0.950 . S
H1030 C1027 0.950 . S
C1031 C1022 1.390 . S
C1031 H1024 0.950 . S
C1031 C1028 1.387 . S
C553 C16 1.641 . S
C558 N209 1.657 . S
C563 N35 1.394 . S
C568 C246 1.358 . S
C573 N255 1.443 . S
C578 N58 1.425 . S
C583 N186 1.546 . S
C588 C85 1.573 . S
C593 N242 1.621 1_554 S
C598 C99 1.645 . S
C603 N117 1.418 . S
C608 C260 1.404 . S
C613 N140 1.446 . S
C618 C191 1.477 . S
C623 C214 1.493 . S
C628 C168 1.494 . S
C633 N94 1.097 . S
C638 N288 1.180 . S
C643 N163 1.604 1_565 S
C648 C361 1.616 . S
C653 C375 1.397 . S
C658 C122 1.390 . S
C663 N81 1.028 . S
C668 N301 0.986 . S
C673 N324 1.945 . S
C678 C145 1.959 . S
C683 N12 1.325 . S
C688 N439 1.361 . S
C693 C62 1.664 . S
C698 C421 1.672 . S
C703 N357 1.214 1_554 S
C708 C499 1.264 . S
C713 C522 1.675 . S
C718 C292 1.701 . S
C723 N531 1.387 . S
C728 N370 1.404 . S
C733 C476 1.563 . S
C738 C329 1.581 . S
C743 N518 1.296 . S
C748 N393 1.267 . S
C753 N416 1.674 . S
C758 C536 1.680 . S
C763 N472 1.482 . S
C768 C306 1.489 . S
C773 C444 1.508 . S
C778 N495 1.470 . S
C783 C39 2.044 1_545 S
C788 C398 2.048 . S
C793 C108 1.462 . S
C798 C7 1.465 . S
C803 N25 0.984 . S
C808 N127 0.998 . S
C813 N48 1.138 . S
C818 N150 1.154 . S
C823 C177 1.161 . S
C828 C76 1.170 . S
C833 N196 1.232 . S
C838 C223 1.217 . S
C843 N219 1.294 . S
C848 N232 1.312 . S
C853 C269 1.051 . S
C858 C237 1.067 . S
C863 C200 1.278 . S
C868 N265 1.254 . S
C873 N71 0.794 . S
C878 N278 0.791 . S
C883 N173 1.343 . S
C888 C430 1.350 . S
C893 N104 0.962 . S
C898 N311 0.956 . S
C903 N449 1.126 . S
C908 C131 1.151 . S
C913 N334 1.625 . S
C918 C30 1.656 . S
C923 N2 1.130 . S
C928 C384 1.125 . S
C933 C53 1.474 . S
C938 C352 1.474 . S
C943 N347 1.064 . S
C948 N403 1.071 . S
C953 N426 1.317 . S
C958 C283 1.342 . S
C963 N380 1.173 1_565 S
C968 C315 1.181 . S
C973 C338 1.153 . S
C978 C453 1.161 . S
C983 N485 1.285 . S
C988 C467 1.292 . S
C993 N508 1.128 . S
C998 C490 1.126 . S
C1003 C545 1.322 . S
C1008 C513 1.339 . S
C1013 N462 1.103 . S
C1018 N541 1.120 . S
C1023 C407 1.733 . S
C1028 C154 1.733 . S
