# Generated by pormake.
# Topology uov, (4)-cn, num edge types: 1
# Building blocks:
#     Node 0, Type 0, BuildingBlock: UXUYUI_clean_sbu_0, # of connection points: 4
#     Node 1, Type 0, BuildingBlock: UXUYUI_clean_sbu_0, # of connection points: 4
#     Node 2, Type 0, BuildingBlock: UXUYUI_clean_sbu_0, # of connection points: 4
#     Node 3, Type 0, BuildingBlock: UXUYUI_clean_sbu_0, # of connection points: 4
#     Node 4, Type 0, BuildingBlock: UXUYUI_clean_sbu_0, # of connection points: 4
#     Node 5, Type 0, BuildingBlock: UXUYUI_clean_sbu_0, # of connection points: 4
#     Node 6, Type 0, BuildingBlock: UXUYUI_clean_sbu_0, # of connection points: 4
#     Node 7, Type 0, BuildingBlock: UXUYUI_clean_sbu_0, # of connection points: 4
#     Edge 8, Type (0, 0), BuildingBlock: ZUJKAS_clean_linker_0, # of connection points: 2
#     Edge 9, Type (0, 0), BuildingBlock: ZUJKAS_clean_linker_0, # of connection points: 2
#     Edge 10, Type (0, 0), BuildingBlock: ZUJKAS_clean_linker_0, # of connection points: 2
#     Edge 11, Type (0, 0), BuildingBlock: ZUJKAS_clean_linker_0, # of connection points: 2
#     Edge 12, Type (0, 0), BuildingBlock: ZUJKAS_clean_linker_0, # of connection points: 2
#     Edge 13, Type (0, 0), BuildingBlock: ZUJKAS_clean_linker_0, # of connection points: 2
#     Edge 14, Type (0, 0), BuildingBlock: ZUJKAS_clean_linker_0, # of connection points: 2
#     Edge 15, Type (0, 0), BuildingBlock: ZUJKAS_clean_linker_0, # of connection points: 2
#     Edge 16, Type (0, 0), BuildingBlock: ZUJKAS_clean_linker_0, # of connection points: 2
#     Edge 17, Type (0, 0), BuildingBlock: ZUJKAS_clean_linker_0, # of connection points: 2
#     Edge 18, Type (0, 0), BuildingBlock: ZUJKAS_clean_linker_0, # of connection points: 2
#     Edge 19, Type (0, 0), BuildingBlock: ZUJKAS_clean_linker_0, # of connection points: 2
#     Edge 20, Type (0, 0), BuildingBlock: ZUJKAS_clean_linker_0, # of connection points: 2
#     Edge 21, Type (0, 0), BuildingBlock: ZUJKAS_clean_linker_0, # of connection points: 2
#     Edge 22, Type (0, 0), BuildingBlock: ZUJKAS_clean_linker_0, # of connection points: 2
#     Edge 23, Type (0, 0), BuildingBlock: ZUJKAS_clean_linker_0, # of connection points: 2
# Relax obj value: 0.339
# Max RMSD: 0.266
# Mean RMSD: 0.265
data_MOF--net-uov--node1-UXUYUI_clean_sbu_0--edge1-ZUJKAS_clean_linker_0
_symmetry_space_group_name_H-M    P1
_symmetry_Int_Tables_number       1
_symmetry_cell_setting            triclinic
loop_
_symmetry_equiv_pos_as_xyz
'x, y, z'
_cell_length_a     52.160267
_cell_length_b     52.165119
_cell_length_c     74.461875
_cell_angle_alpha  89.990507
_cell_angle_beta   89.985125
_cell_angle_gamma 90.239205
loop_
_atom_site_label
_atom_site_type_symbol
_atom_site_fract_x
_atom_site_fract_y
_atom_site_fract_z
_atom_type_partial_charge
Li0 Li 0.03785 0.23349 0.62591 0.0
Li1 Li 0.02642 0.27634 0.61437 0.0
Li2 Li 0.00351 0.23954 0.60523 0.0
Li3 Li 0.04585 0.2461 0.59402 0.0
C4 C 0.98419 0.24376 0.63774 0.0
N5 N 0.93961 0.22443 0.65271 0.0
C6 C 0.96252 0.25927 0.63931 0.0
C7 C 0.98317 0.21842 0.64382 0.0
C8 C 0.94016 0.24913 0.64689 0.0
C9 C 0.96048 0.20901 0.65136 0.0
C10 C 0.07513 0.27049 0.63056 0.0
C11 C 0.11541 0.28191 0.64441 0.0
N12 N 0.10268 0.28908 0.65952 0.0
C13 C 0.06246 0.27798 0.64626 0.0
C14 C 0.10183 0.27246 0.62964 0.0
C15 C 0.07672 0.28732 0.66074 0.0
C16 C 0.06938 0.19706 0.6426 0.0
N17 N 0.05136 0.21526 0.64564 0.0
C18 C 0.05382 0.20851 0.67727 0.0
C19 C 0.04349 0.22123 0.66252 0.0
C20 C 0.07249 0.18957 0.6746 0.0
C21 C 0.08022 0.1838 0.65698 0.0
H22 H 0.07541 0.19298 0.629 0.0
H23 H 0.02925 0.23596 0.66452 0.0
C24 C -0.0012 0.32103 0.61926 0.0
N25 N 0.02308 0.31176 0.61948 0.0
C26 C 0.99429 0.34694 0.62244 0.0
C27 C 0.04001 0.35347 0.62549 0.0
C28 C 0.04362 0.32743 0.62221 0.0
C29 C 0.01506 0.36351 0.62567 0.0
H30 H 0.98299 0.30832 0.61623 0.0
H31 H 0.06284 0.31988 0.62161 0.0
C32 C 0.02092 0.19127 0.59844 0.0
N33 N -0.00095 0.14554 0.5875 0.0
C34 C 0.01176 0.18856 0.5809 0.0
C35 C 0.01915 0.17065 0.61038 0.0
C36 C 0.00069 0.16532 0.57565 0.0
C37 C 0.00799 0.1477 0.6046 0.0
C38 C 0.02304 0.28726 0.57838 0.0
C39 C 0.00677 0.29546 0.56463 0.0
C40 C 0.04705 0.29895 0.58046 0.0
C41 C 0.01469 0.31531 0.55329 0.0
C42 C 0.05426 0.31874 0.56885 0.0
N43 N 0.03807 0.32645 0.55562 0.0
C44 C 0.95607 0.2455 0.58876 0.0
C45 C 0.95963 0.20537 0.60342 0.0
C46 C 0.93184 0.23897 0.58229 0.0
N47 N 0.96972 0.22851 0.5987 0.0
C48 C 0.93547 0.198 0.59719 0.0
C49 C 0.92149 0.21471 0.58616 0.0
H50 H 0.96424 0.26401 0.58559 0.0
H51 H 0.97041 0.1924 0.61175 0.0
C52 C 0.09381 0.24363 0.5762 0.0
N53 N 0.068 0.24192 0.5741 0.0
C54 C 0.11008 0.23914 0.56164 0.0
C55 C 0.0728 0.23163 0.54307 0.0
C56 C 0.0573 0.23671 0.55789 0.0
C57 C 0.09966 0.2324 0.54485 0.0
H58 H 0.10175 0.24807 0.58923 0.0
H59 H 0.03668 0.23597 0.55656 0.0
O60 O 0.00619 0.25321 0.63013 0.0
O61 O 0.06164 0.26088 0.61626 0.0
O62 O 0.03187 0.21383 0.60386 0.0
O63 O 0.01543 0.26775 0.58953 0.0
H64 H 0.96288 0.27891 0.63474 0.0
H65 H -0.00048 0.20593 0.64241 0.0
H66 H 0.92324 0.26092 0.64814 0.0
H67 H 0.95941 0.18939 0.65601 0.0
H68 H 0.13608 0.28353 0.64385 0.0
H69 H 0.04183 0.27676 0.64727 0.0
H70 H 0.112 0.26672 0.61765 0.0
H71 H 0.06714 0.29318 0.67294 0.0
H72 H 0.04713 0.21335 0.69061 0.0
H73 H 0.09481 0.16958 0.65437 0.0
H74 H 0.97481 0.35401 0.62196 0.0
H75 H 0.05657 0.36559 0.62788 0.0
H76 H 0.01276 0.20437 0.57155 0.0
H77 H 0.02617 0.1724 0.62399 0.0
H78 H 0.99332 0.16303 0.56216 0.0
H79 H 0.0064 0.13162 0.61371 0.0
H80 H 0.98822 0.28654 0.56268 0.0
H81 H 0.06008 0.29287 0.59087 0.0
H82 H 0.00226 0.32183 0.54261 0.0
H83 H 0.07276 0.32795 0.57036 0.0
H84 H 0.92182 0.25239 0.57373 0.0
H85 H 0.928 0.17927 0.60073 0.0
H86 H 0.1306 0.24052 0.56365 0.0
H87 H 0.06371 0.22619 0.53057 0.0
Li88 Li 0.23485 0.99243 0.39099 0.0
Li89 Li 0.27417 0.96936 0.38323 0.0
Li90 Li 0.23439 0.9596 0.36911 0.0
Li91 Li 0.2408 0.94842 0.40063 0.0
C92 C 0.25337 0.99674 0.34995 0.0
N93 N 0.25205 0.00349 0.31317 0.0
C94 C 0.27281 0.98666 0.33918 0.0
C95 C 0.23341 0.01052 0.34205 0.0
C96 C 0.27177 0.99022 0.3206 0.0
C97 C 0.23304 0.01365 0.32341 0.0
C98 C 0.27861 0.97219 0.42042 0.0
C99 C 0.31006 0.94313 0.43248 0.0
N100 N 0.31345 0.95905 0.44676 0.0
C101 C 0.28237 0.98824 0.43521 0.0
C102 C 0.29252 0.94942 0.41903 0.0
C103 C 0.30009 0.98126 0.44838 0.0
C104 C 0.20937 0.02305 0.41539 0.0
N105 N 0.22194 0.02401 0.39943 0.0
C106 C 0.21672 0.06946 0.39792 0.0
C107 C 0.22584 0.04653 0.39061 0.0
C108 C 0.20322 0.06884 0.41422 0.0
C109 C 0.19947 0.04529 0.42293 0.0
H110 H 0.20713 0.00493 0.42227 0.0
H111 H 0.23628 0.04669 0.37806 0.0
C112 C 0.32319 0.95415 0.37183 0.0
N113 N 0.30976 0.97275 0.38038 0.0
C114 C 0.34964 0.95665 0.36965 0.0
C115 C 0.34774 0.99735 0.38518 0.0
C116 C 0.32135 0.99407 0.38703 0.0
C117 C 0.36222 0.9785 0.37636 0.0
H118 H 0.31329 0.93752 0.36658 0.0
H119 H 0.31003 0.00846 0.39382 0.0
C120 C 0.18668 0.9739 0.39263 0.0
N121 N 0.13969 0.99581 0.40006 0.0
C122 C 0.17181 0.96479 0.40691 0.0
C123 C 0.17745 0.9939 0.38198 0.0
C124 C 0.14815 0.97617 0.41049 0.0
C125 C 0.15372 0.00481 0.386 0.0
C126 C 0.25239 0.91 0.376 0.0
C127 C 0.22641 0.90318 0.37635 0.0
C128 C 0.27076 0.89137 0.37213 0.0
C129 C 0.2193 0.87784 0.37282 0.0
C130 C 0.26286 0.86622 0.3687 0.0
N131 N 0.23752 0.86003 0.3691 0.0
C132 C 0.23557 0.93426 0.33596 0.0
C133 C 0.19492 0.95158 0.34325 0.0
C134 C 0.22571 0.92329 0.32035 0.0
N135 N 0.22008 0.94783 0.34711 0.0
C136 C 0.18429 0.94113 0.32768 0.0
C137 C 0.19969 0.92646 0.31617 0.0
H138 H 0.25552 0.93155 0.3394 0.0
H139 H 0.18295 0.96213 0.35243 0.0
C140 C 0.22309 0.93857 0.43473 0.0
N141 N 0.23419 0.92657 0.42056 0.0
C142 C 0.2164 0.92481 0.45008 0.0
C143 C 0.2338 0.88668 0.43634 0.0
C144 C 0.2403 0.90127 0.42127 0.0
C145 C 0.22125 0.89837 0.45087 0.0
H146 H 0.21914 0.95889 0.43397 0.0
H147 H 0.24999 0.89224 0.41017 0.0
O148 O 0.25375 0.99291 0.36812 0.0
O149 O 0.26115 0.97874 0.40752 0.0
O150 O 0.21006 0.96319 0.3891 0.0
O151 O 0.25999 0.93476 0.37917 0.0
H152 H 0.28836 0.9759 0.34507 0.0
H153 H 0.21835 0.01867 0.35019 0.0
H154 H 0.28658 0.98235 0.31209 0.0
H155 H 0.21764 0.02415 0.3171 0.0
H156 H 0.32095 0.92558 0.43158 0.0
H157 H 0.27166 0.00588 0.43649 0.0
H158 H 0.2898 0.93669 0.40772 0.0
H159 H 0.3032 0.9935 0.45991 0.0
H160 H 0.22008 0.0874 0.39096 0.0
H161 H 0.18956 0.0442 0.4357 0.0
H162 H 0.36004 0.94183 0.36258 0.0
H163 H 0.35675 0.0143 0.39078 0.0
H164 H 0.17838 0.94902 0.4151 0.0
H165 H 0.18867 0.00117 0.37088 0.0
H166 H 0.1365 0.96937 0.42154 0.0
H167 H 0.14649 0.02046 0.37796 0.0
H168 H 0.21183 0.91718 0.3793 0.0
H169 H 0.29093 0.89627 0.37181 0.0
H170 H 0.19929 0.87232 0.37304 0.0
H171 H 0.2769 0.85162 0.3657 0.0
H172 H 0.23824 0.91229 0.31171 0.0
H173 H 0.16405 0.94374 0.32501 0.0
H174 H 0.20734 0.93476 0.46113 0.0
H175 H 0.23789 0.86634 0.43636 0.0
Li176 Li 0.9587 0.76251 0.62433 0.0
Li177 Li 0.96856 0.72048 0.61423 0.0
Li178 Li 0.99414 0.75629 0.60441 0.0
Li179 Li 0.95102 0.75064 0.59342 0.0
C180 C 0.00657 0.75661 0.64015 0.0
N181 N 0.03898 0.78409 0.66239 0.0
C182 C 0.02168 0.7439 0.6528 0.0
C183 C 0.00795 0.78333 0.63881 0.0
C184 C 0.03793 0.75813 0.66392 0.0
C185 C 0.02445 0.79686 0.65017 0.0
C186 C 0.91963 0.7272 0.62892 0.0
C187 C 0.87836 0.71728 0.64182 0.0
N188 N 0.89015 0.70901 0.65704 0.0
C189 C 0.93135 0.71858 0.64467 0.0
C190 C 0.89294 0.72655 0.62746 0.0
C191 C 0.91611 0.70946 0.65874 0.0
C192 C 0.92913 0.80107 0.64055 0.0
N193 N 0.94549 0.78146 0.64392 0.0
C194 C 0.94058 0.78702 0.67553 0.0
C195 C 0.95147 0.77436 0.66096 0.0
C196 C 0.92325 0.80709 0.67253 0.0
C197 C 0.91774 0.8143 0.65476 0.0
H198 H 0.92455 0.80607 0.62682 0.0
H199 H 0.96435 0.75854 0.66329 0.0
C200 C 0.99396 0.67694 0.62564 0.0
N201 N 0.97065 0.6855 0.62028 0.0
C202 C 0.99749 0.65107 0.62953 0.0
C203 C 0.95282 0.64344 0.62248 0.0
C204 C 0.95016 0.66948 0.61872 0.0
C205 C 0.9768 0.63394 0.6278 0.0
H206 H 0.00987 0.69022 0.62666 0.0
H207 H 0.93188 0.67683 0.61427 0.0
C208 C 0.97081 0.79926 0.58855 0.0
N209 N 0.97813 0.8324 0.56004 0.0
C210 C 0.98281 0.79073 0.57287 0.0
C211 C 0.9625 0.82463 0.58971 0.0
C212 C 0.98635 0.80778 0.55861 0.0
C213 C 0.96638 0.8411 0.57515 0.0
C214 C 0.97504 0.70765 0.57858 0.0
C215 C 0.9941 0.69691 0.5678 0.0
C216 C 0.95018 0.69753 0.57812 0.0
C217 C 0.98798 0.67618 0.5567 0.0
C218 C 0.94483 0.67679 0.56685 0.0
N219 N 0.96367 0.66664 0.55646 0.0
C220 C 0.04453 0.74639 0.59466 0.0
C221 C 0.03531 0.79076 0.59638 0.0
C222 C 0.06898 0.7516 0.58796 0.0
N223 N 0.02809 0.76585 0.59822 0.0
C224 C 0.05937 0.79685 0.58937 0.0
C225 C 0.0764 0.77711 0.58459 0.0
H226 H 0.03832 0.72675 0.59653 0.0
H227 H 0.02201 0.8059 0.59961 0.0
C228 C 0.90535 0.76536 0.57671 0.0
N229 N 0.92917 0.75606 0.57341 0.0
C230 C 0.88945 0.77238 0.56248 0.0
C231 C 0.92263 0.75935 0.54176 0.0
C232 C 0.93788 0.75258 0.55638 0.0
C233 C 0.89826 0.76988 0.54473 0.0
H234 H 0.89905 0.76804 0.59042 0.0
H235 H 0.95703 0.74544 0.55412 0.0
O236 O 0.99062 0.74278 0.6292 0.0
O237 O 0.93404 0.73644 0.61497 0.0
O238 O 0.96675 0.78291 0.60265 0.0
O239 O 0.9809 0.72783 0.58958 0.0
H240 H 0.02081 0.72323 0.65401 0.0
H241 H 0.99639 0.79357 0.62918 0.0
H242 H 0.04972 0.74853 0.67378 0.0
H243 H 0.02569 0.81753 0.64928 0.0
H244 H 0.85767 0.71668 0.64088 0.0
H245 H 0.95197 0.71892 0.64607 0.0
H246 H 0.88358 0.73317 0.61535 0.0
H247 H 0.92492 0.70276 0.67101 0.0
H248 H 0.94562 0.78107 0.689 0.0
H249 H 0.90426 0.82948 0.65186 0.0
H250 H 0.01622 0.64454 0.63376 0.0
H251 H 0.93648 0.63079 0.62074 0.0
H252 H 0.98941 0.77118 0.57172 0.0
H253 H 0.9531 0.8315 0.60174 0.0
H254 H 0.99562 0.80143 0.54642 0.0
H255 H 0.96004 0.86079 0.57587 0.0
H256 H 0.01344 0.70452 0.56802 0.0
H257 H 0.93517 0.70556 0.58637 0.0
H258 H 0.00255 0.66768 0.54828 0.0
H259 H 0.92568 0.66877 0.56637 0.0
H260 H 0.0816 0.73575 0.58495 0.0
H261 H 0.06391 0.8168 0.58689 0.0
H262 H 0.87069 0.78021 0.56535 0.0
H263 H 0.93036 0.75748 0.52832 0.0
Li264 Li 0.76258 0.0452 0.3741 0.0
Li265 Li 0.74968 0.05683 0.40448 0.0
Li266 Li 0.75708 0.01218 0.39604 0.0
Li267 Li 0.71995 0.0354 0.38516 0.0
C268 C 0.80211 0.02967 0.40505 0.0
N269 N 0.84111 0.00488 0.42308 0.0
C270 C 0.80616 0.03432 0.42332 0.0
C271 C 0.81799 0.01251 0.39593 0.0
C272 C 0.82598 0.0216 0.4322 0.0
C273 C 0.83756 0.00012 0.4053 0.0
C274 C 0.73444 0.09515 0.38438 0.0
C275 C 0.71616 0.13169 0.39946 0.0
N276 N 0.73398 0.14711 0.39157 0.0
C277 C 0.75254 0.11137 0.37638 0.0
C278 C 0.71603 0.10538 0.39596 0.0
C279 C 0.75198 0.13758 0.38019 0.0
C280 C 0.76819 0.06439 0.33917 0.0
N281 N 0.78142 0.05624 0.35379 0.0
C282 C 0.82133 0.06484 0.33926 0.0
C283 C 0.80746 0.05642 0.35418 0.0
C284 C 0.80817 0.07309 0.32387 0.0
C285 C 0.78126 0.07276 0.32391 0.0
H286 H 0.74746 0.06452 0.33943 0.0
H287 H 0.81745 0.05018 0.3661 0.0
C288 C 0.74226 0.07819 0.43911 0.0
N289 N 0.75473 0.08091 0.42319 0.0
C290 C 0.74827 0.09423 0.45353 0.0
C291 C 0.77925 0.11594 0.43467 0.0
C292 C 0.77281 0.09937 0.4207 0.0
C293 C 0.76737 0.11309 0.45151 0.0
H294 H 0.72842 0.06293 0.44084 0.0
H295 H 0.78278 0.1007 0.408 0.0
C296 C 0.74683 0.00714 0.35394 0.0
N297 N 0.75519 -0.00157 0.31782 0.0
C298 C 0.72755 0.01234 0.34145 0.0
C299 C 0.7703 0.99736 0.34809 0.0
C300 C 0.73216 0.00781 0.32324 0.0
C301 C 0.77418 0.99316 0.32976 0.0
C302 C 0.70589 0.01792 0.4166 0.0
C303 C 0.70096 0.99157 0.41704 0.0
C304 C 0.68678 0.0351 0.4218 0.0
C305 C 0.67686 0.98284 0.42259 0.0
C306 C 0.66291 0.02561 0.4272 0.0
N307 N 0.65849 -0.0001 0.42748 0.0
C308 C 0.7704 0.97846 0.42326 0.0
C309 C 0.7735 0.96005 0.39423 0.0
C310 C 0.7782 0.95561 0.43117 0.0
N311 N 0.76834 0.98027 0.40513 0.0
C312 C 0.7814 0.93673 0.40159 0.0
C313 C 0.78375 0.93431 0.42031 0.0
H314 H 0.76596 0.99487 0.43157 0.0
H315 H 0.77132 0.96195 0.37987 0.0
C316 C 0.66913 0.05178 0.37831 0.0
N317 N 0.68507 0.03129 0.37911 0.0
C318 C 0.64293 0.04808 0.37556 0.0
C319 C 0.65035 0.00239 0.37383 0.0
C320 C 0.67637 0.00698 0.37661 0.0
C321 C 0.63322 0.02308 0.37355 0.0
H322 H 0.67667 0.0709 0.38018 0.0
H323 H 0.68961 0.9911 0.37732 0.0
O324 O 0.78245 0.04149 0.3962 0.0
O325 O 0.73484 0.06937 0.38099 0.0
O326 O 0.74288 0.0119 0.37179 0.0
O327 O 0.72913 0.02688 0.41075 0.0
H328 H 0.79399 0.0474 0.43064 0.0
H329 H 0.81499 0.0085 0.38183 0.0
H330 H 0.82926 0.02494 0.44635 0.0
H331 H 0.84987 0.98665 0.39844 0.0
H332 H 0.70214 0.13984 0.40849 0.0
H333 H 0.767 0.10381 0.36746 0.0
H334 H 0.70206 0.09309 0.40242 0.0
H335 H 0.76593 0.15034 0.37415 0.0
H336 H 0.84208 0.06476 0.33971 0.0
H337 H 0.77043 0.07939 0.31242 0.0
H338 H 0.73894 0.09107 0.46634 0.0
H339 H 0.79388 0.13039 0.43244 0.0
H340 H 0.70934 0.02008 0.34572 0.0
H341 H 0.78552 0.99346 0.35756 0.0
H342 H 0.71746 0.01186 0.31341 0.0
H343 H 0.79232 0.98579 0.32502 0.0
H344 H 0.71543 0.978 0.41292 0.0
H345 H 0.6902 0.05556 0.42139 0.0
H346 H 0.67273 0.96251 0.4229 0.0
H347 H 0.64787 0.03869 0.43111 0.0
H348 H 0.78018 0.95475 0.44564 0.0
H349 H 0.78528 0.92071 0.39277 0.0
H350 H 0.63039 0.06457 0.37518 0.0
H351 H 0.64363 0.9828 0.37256 0.0
Li352 Li 0.94642 0.24015 0.08786 0.0
Li353 Li 0.95698 0.23025 0.11899 0.0
Li354 Li 0.96488 0.27256 0.10653 0.0
Li355 Li 0.99095 0.23608 0.09775 0.0
C356 C 0.90623 0.25446 0.10616 0.0
N357 N 0.85497 0.2511 0.09709 0.0
C358 C 0.89086 0.2351 0.11349 0.0
C359 C 0.8955 0.2722 0.0943 0.0
C360 C 0.86499 0.23372 0.10873 0.0
C361 C 0.86956 0.27014 0.08985 0.0
C362 C 0.9761 0.18891 0.09047 0.0
C363 C 0.00735 0.15514 0.09294 0.0
N364 N 0.00313 0.14882 0.07546 0.0
C365 C 0.972 0.18203 0.07255 0.0
C366 C 0.99382 0.1753 0.10079 0.0
C367 C 0.98587 0.1617 0.06521 0.0
C368 C 0.92459 0.24586 0.05317 0.0
N369 N 0.92345 0.23259 0.06885 0.0
C370 C 0.89086 0.20508 0.05714 0.0
C371 C 0.90696 0.21263 0.07111 0.0
C372 C 0.89199 0.218 0.04059 0.0
C373 C 0.90886 0.23891 0.03878 0.0
H374 H 0.9382 0.26137 0.05165 0.0
H375 H 0.90675 0.20223 0.08368 0.0
C376 C 0.93564 0.22618 0.15342 0.0
N377 N 0.94576 0.2124 0.13968 0.0
C378 C 0.9266 0.21377 0.16876 0.0
C379 C 0.9381 0.17319 0.15533 0.0
C380 C 0.9471 0.18641 0.1403 0.0
C381 C 0.92766 0.18692 0.16979 0.0
H382 H 0.93435 0.24681 0.15234 0.0
H383 H 0.95486 0.17594 0.12905 0.0
C384 C 0.98376 0.28503 0.07489 0.0
N385 N 0.00032 0.33194 0.06203 0.0
C386 C 0.00998 0.29035 0.07356 0.0
C387 C 0.96596 0.30349 0.06956 0.0
C388 C 0.01796 0.31419 0.06703 0.0
C389 C 0.97472 0.32713 0.06315 0.0
C390 C 0.99277 0.25005 0.13948 0.0
C391 C 0.9854 0.26989 0.15097 0.0
C392 C 0.0039 0.22794 0.1466 0.0
C393 C 0.98912 0.26716 0.16945 0.0
C394 C 0.00724 0.22593 0.16516 0.0
N395 N -0.00017 0.24541 0.1761 0.0
C396 C 0.94422 0.32135 0.11442 0.0
C397 C 0.98955 0.31931 0.11262 0.0
C398 C 0.94533 0.34768 0.11762 0.0
N399 N 0.96613 0.30792 0.11177 0.0
C400 C 0.99157 0.3456 0.11558 0.0
C401 C 0.96925 0.36021 0.11801 0.0
H402 H 0.92589 0.31165 0.11399 0.0
H403 H 0.00664 0.30798 0.11068 0.0
C404 C 0.0268 0.2188 0.0729 0.0
N405 N 0.02402 0.22562 0.09039 0.0
C406 C 0.05026 0.20981 0.06667 0.0
C407 C 0.06806 0.21642 0.09632 0.0
C408 C 0.04404 0.22494 0.10207 0.0
C409 C 0.07116 0.20837 0.07848 0.0
H410 H 0.01064 0.22011 0.06386 0.0
H411 H 0.04133 0.23086 0.11585 0.0
O412 O 0.93172 0.25585 0.11038 0.0
O413 O 0.96307 0.20907 0.09782 0.0
O414 O 0.97556 0.26197 0.08154 0.0
O415 O 0.98884 0.25214 0.12139 0.0
H416 H 0.89886 0.22111 0.12261 0.0
H417 H 0.90716 0.2872 0.0884 0.0
H418 H 0.85289 0.21877 0.11424 0.0
H419 H 0.86105 0.28363 0.08059 0.0
H420 H 0.02127 0.14458 0.10072 0.0
H421 H 0.9585 0.19242 0.06432 0.0
H422 H 0.99738 0.18049 0.11463 0.0
H423 H 0.98299 0.15625 0.05134 0.0
H424 H 0.87794 0.18903 0.05918 0.0
H425 H 0.91062 0.24914 0.02618 0.0
H426 H 0.91828 0.22502 0.1795 0.0
H427 H 0.93932 0.15247 0.15566 0.0
H428 H 0.02402 0.27633 0.07768 0.0
H429 H 0.94561 0.29976 0.07062 0.0
H430 H 0.03819 0.31862 0.06601 0.0
H431 H 0.96116 0.34167 0.05912 0.0
H432 H 0.97667 0.28709 0.14571 0.0
H433 H 0.0096 0.21236 0.1379 0.0
H434 H 0.98339 0.2823 0.17851 0.0
H435 H 0.01565 0.20884 0.17086 0.0
H436 H 0.92767 0.35808 0.11976 0.0
H437 H 0.01039 0.35442 0.11552 0.0
H438 H 0.05209 0.20414 0.05273 0.0
H439 H 0.08383 0.21559 0.10576 0.0
Li440 Li 0.25454 0.05259 0.90647 0.0
Li441 Li 0.251 0.00991 0.8962 0.0
Li442 Li 0.28624 0.03613 0.88613 0.0
Li443 Li 0.24082 0.04447 0.87578 0.0
C444 C 0.27715 0.0166 0.92838 0.0
N445 N 0.27262 0.00015 0.96355 0.0
C446 C 0.25295 0.01383 0.93625 0.0
C447 C 0.29904 0.01097 0.93844 0.0
C448 C 0.25106 0.0055 0.95403 0.0
C449 C 0.29636 0.00269 0.95618 0.0
C450 C 0.19821 0.02738 0.89805 0.0
C451 C 0.16152 0.00973 0.88259 0.0
N452 N 0.14762 0.01137 0.898 0.0
C453 C 0.18351 0.02901 0.91371 0.0
C454 C 0.1871 0.01774 0.88234 0.0
C455 C 0.158 0.02076 0.91343 0.0
C456 C 0.22474 0.08505 0.92722 0.0
N457 N 0.24856 0.07479 0.92618 0.0
C458 C 0.26006 0.09302 0.95451 0.0
C459 C 0.26642 0.07894 0.93918 0.0
C460 C 0.23513 0.10273 0.95634 0.0
C461 C 0.21758 0.09917 0.94225 0.0
H462 H 0.2111 0.08168 0.91654 0.0
H463 H 0.2853 0.07065 0.9379 0.0
C464 C 0.26433 0.96101 0.90841 0.0
N465 N 0.24373 0.97514 0.90326 0.0
C466 C 0.26097 0.93655 0.91565 0.0
C467 C 0.2153 0.94111 0.91154 0.0
C468 C 0.21957 0.9654 0.90431 0.0
C469 C 0.23611 0.92652 0.9177 0.0
H470 H 0.28341 0.96908 0.90736 0.0
H471 H 0.20341 0.97659 0.90013 0.0
C472 C 0.27251 0.09297 0.89073 0.0
N473 N 0.28145 0.14068 0.90556 0.0
C474 C 0.25371 0.11192 0.88979 0.0
C475 C 0.2959 0.09827 0.89912 0.0
C476 C 0.25859 0.13593 0.8974 0.0
C477 C 0.30005 0.12253 0.90655 0.0
C478 C 0.26537 0.98958 0.86563 0.0
C479 C 0.28845 0.97646 0.86794 0.0
C480 C 0.24434 0.97698 0.85799 0.0
C481 C 0.29 0.95078 0.86275 0.0
C482 C 0.24666 0.95129 0.85299 0.0
N483 N 0.26924 0.93882 0.85546 0.0
C484 C 0.33943 0.03068 0.88994 0.0
C485 C 0.3251 0.04216 0.86081 0.0
C486 C 0.36468 0.02937 0.8839 0.0
N487 N 0.32036 0.03676 0.87834 0.0
C488 C 0.35009 0.0411 0.85417 0.0
C489 C 0.37023 0.0344 0.86575 0.0
H490 H 0.33493 0.02632 0.90377 0.0
H491 H 0.30937 0.04685 0.85194 0.0
C492 C 0.20199 0.07313 0.85911 0.0
N493 N 0.22127 0.05619 0.85626 0.0
C494 C 0.18777 0.08237 0.84464 0.0
C495 C 0.21347 0.05634 0.82471 0.0
C496 C 0.22719 0.04763 0.83956 0.0
C497 C 0.19355 0.07406 0.82716 0.0
H498 H 0.19773 0.07944 0.87262 0.0
H499 H 0.24273 0.0342 0.83778 0.0
O500 O 0.27959 0.02471 0.91095 0.0
O501 O 0.22308 0.03585 0.89808 0.0
O502 O 0.26782 0.06911 0.8839 0.0
O503 O 0.26333 0.01455 0.871 0.0
H504 H 0.23578 0.01798 0.92876 0.0
H505 H 0.31794 0.01297 0.9326 0.0
H506 H 0.23244 0.00327 0.96025 0.0
H507 H 0.31316 -0.00172 0.96411 0.0
H508 H 0.15273 0.00213 0.87055 0.0
H509 H 0.19171 0.03657 0.92597 0.0
H510 H 0.19814 0.01614 0.87013 0.0
H511 H 0.14644 0.02186 0.92546 0.0
H512 H 0.2741 0.09533 0.9651 0.0
H513 H 0.19833 0.10679 0.94299 0.0
H514 H 0.27763 0.92587 0.91997 0.0
H515 H 0.19575 0.93441 0.91306 0.0
H516 H 0.23546 0.10803 0.88343 0.0
H517 H 0.31057 0.08371 0.90005 0.0
H518 H 0.24417 0.15076 0.89687 0.0
H519 H 0.318 0.12689 0.91317 0.0
H520 H 0.30488 0.98589 0.87389 0.0
H521 H 0.22641 0.98689 0.856 0.0
H522 H 0.30768 0.94033 0.86456 0.0
H523 H 0.23051 0.94125 0.84714 0.0
H524 H 0.37954 0.02369 0.89322 0.0
H525 H 0.35358 0.04532 0.84014 0.0
H526 H 0.17236 0.09577 0.84713 0.0
H527 H 0.21877 0.04972 0.81144 0.0
Li528 Li 0.01289 0.75601 0.09543 0.0
Li529 Li 0.03431 0.7169 0.10459 0.0
Li530 Li 0.04605 0.75797 0.11749 0.0
Li531 Li 0.05721 0.74744 0.08665 0.0
C532 C 0.00827 0.74199 0.13713 0.0
N533 N 0.00207 0.74722 0.17379 0.0
C534 C 0.01487 0.7219 0.14863 0.0
C535 C -0.0016 0.7647 0.14425 0.0
C536 C 0.01159 0.72492 0.16713 0.0
C537 C 0.99547 0.76699 0.16283 0.0
C538 C 0.01624 0.70677 0.07238 0.0
C539 C 0.02162 0.66421 0.06034 0.0
N540 N 0.99573 0.66184 0.05884 0.0
C541 C 0.98969 0.70396 0.07066 0.0
C542 C 0.03236 0.68681 0.0671 0.0
C543 C 0.9797 0.68108 0.06379 0.0
C544 C 0.98008 0.77537 0.06938 0.0
N545 N 0.98137 0.76935 0.0871 0.0
C546 C 0.93752 0.78094 0.09133 0.0
C547 C 0.96074 0.77181 0.09811 0.0
C548 C 0.93575 0.78762 0.0731 0.0
C549 C 0.95742 0.78475 0.06209 0.0
H550 H 0.99668 0.77263 0.06089 0.0
H551 H 0.96224 0.76646 0.11209 0.0
C552 C 0.04808 0.66539 0.1122 0.0
N553 N 0.02839 0.6819 0.1095 0.0
C554 C 0.0431 0.63943 0.11515 0.0
C555 C -0.00228 0.64821 0.11285 0.0
C556 C 0.00357 0.67398 0.11011 0.0
C557 C 0.01763 0.63049 0.1153 0.0
H558 H 0.0676 0.67237 0.11201 0.0
H559 H 0.98834 0.6877 0.10815 0.0
C560 C 0.03252 0.80113 0.08849 0.0
N561 N 0.01002 0.84314 0.07238 0.0
C562 C 0.03862 0.80755 0.07076 0.0
C563 C 0.01505 0.81615 0.09804 0.0
C564 C 0.02704 0.82887 0.06286 0.0
C565 C 0.00385 0.83727 0.08965 0.0
C566 C 0.09444 0.72792 0.1056 0.0
C567 C 0.11187 0.74532 0.11307 0.0
C568 C 0.10325 0.7088 0.09401 0.0
C569 C 0.13786 0.74336 0.10875 0.0
C570 C 0.12937 0.70751 0.08999 0.0
N571 N 0.14599 0.72467 0.09738 0.0
C572 C 0.06968 0.75937 0.15124 0.0
C573 C 0.05632 0.79998 0.14049 0.0
C574 C 0.08021 0.77059 0.16655 0.0
N575 N 0.0582 0.77417 0.13858 0.0
C576 C 0.0664 0.81199 0.15568 0.0
C577 C 0.07877 0.79726 0.16883 0.0
H578 H 0.071 0.73887 0.14924 0.0
H579 H 0.04743 0.81129 0.1301 0.0
C580 C 0.08129 0.73999 0.05266 0.0
N581 N 0.0822 0.75283 0.06853 0.0
C582 C 0.09918 0.74543 0.03919 0.0
C583 C 0.11868 0.77686 0.05884 0.0
C584 C 0.10036 0.77096 0.07182 0.0
C585 C 0.11808 0.76422 0.04219 0.0
H586 H 0.0664 0.72593 0.05031 0.0
H587 H 0.10023 0.78123 0.08444 0.0
O588 O 0.01197 0.73967 0.11902 0.0
O589 O 0.02638 0.72882 0.07941 0.0
O590 O 0.04331 0.78008 0.09637 0.0
O591 O 0.06884 0.72983 0.10937 0.0
H592 H 0.02271 0.70427 0.14336 0.0
H593 H 0.99343 0.78052 0.13554 0.0
H594 H 0.01673 0.70958 0.1762 0.0
H595 H 0.98803 0.78451 0.16854 0.0
H596 H 0.03386 0.64853 0.05634 0.0
H597 H 0.97689 0.71912 0.07477 0.0
H598 H 0.05293 0.68859 0.06845 0.0
H599 H 0.95919 0.67859 0.06247 0.0
H600 H 0.92121 0.78289 0.10022 0.0
H601 H 0.9567 0.78918 0.04789 0.0
H602 H 0.05902 0.62654 0.11733 0.0
H603 H 0.97783 0.64219 0.11263 0.0
H604 H 0.05192 0.79609 0.0631 0.0
H605 H 0.00981 0.81126 0.11168 0.0
H606 H 0.0315 0.834 0.04913 0.0
H607 H 0.99015 0.84892 0.09684 0.0
H608 H 0.10541 0.76042 0.1219 0.0
H609 H 0.09002 0.69532 0.08798 0.0
H610 H 0.15155 0.75678 0.11436 0.0
H611 H 0.13642 0.69292 0.08095 0.0
H612 H 0.08946 0.75858 0.17647 0.0
H613 H 0.0652 0.83265 0.15686 0.0
H614 H 0.09807 0.73527 0.02653 0.0
H615 H 0.13254 0.79188 0.06156 0.0
Li616 Li 0.74658 0.98428 0.89498 0.0
Li617 Li 0.73953 0.94201 0.90662 0.0
Li618 Li 0.75184 0.94687 0.8749 0.0
Li619 Li 0.70974 0.95842 0.88587 0.0
C620 C 0.79642 0.96413 0.89186 0.0
N621 N 0.84537 0.97817 0.88141 0.0
C622 C 0.81723 0.95982 0.90328 0.0
C623 C 0.80056 0.97544 0.87507 0.0
C624 C 0.84181 0.96715 0.89778 0.0
C625 C 0.82544 0.9824 0.87004 0.0
C626 C 0.71351 0.9705 0.92785 0.0
C627 C 0.69121 0.95224 0.95323 0.0
N628 N 0.7072 0.96511 0.96452 0.0
C629 C 0.72975 0.98353 0.93972 0.0
C630 C 0.69408 0.95471 0.93466 0.0
C631 C 0.72622 0.98058 0.9582 0.0
C632 C 0.73709 0.03334 0.90813 0.0
N633 N 0.75617 0.0189 0.90091 0.0
C634 C 0.7862 0.05313 0.90515 0.0
C635 C 0.78033 0.02849 0.89911 0.0
C636 C 0.76711 0.06798 0.91332 0.0
C637 C 0.74217 0.05799 0.91452 0.0
H638 H 0.71803 0.02537 0.90948 0.0
H639 H 0.79541 0.01701 0.89358 0.0
C640 C 0.73098 0.90066 0.93144 0.0
N641 N 0.74513 0.92186 0.92747 0.0
C642 C 0.73612 0.88661 0.94702 0.0
C643 C 0.77019 0.91658 0.95398 0.0
C644 C 0.76435 0.93001 0.93837 0.0
C645 C 0.75607 0.89448 0.95848 0.0
H646 H 0.7158 0.89461 0.92252 0.0
H647 H 0.77519 0.947 0.93487 0.0
C648 C 0.72639 0.00204 0.86345 0.0
N649 N 0.71351 0.04965 0.85002 0.0
C650 C 0.70577 0.01554 0.87075 0.0
C651 C 0.7405 0.01278 0.84936 0.0
C652 C 0.69955 0.03957 0.86376 0.0
C653 C 0.73367 0.03686 0.84274 0.0
C654 C 0.70609 0.90964 0.87841 0.0
C655 C 0.70725 0.90134 0.86059 0.0
C656 C 0.68449 0.90388 0.8888 0.0
C657 C 0.6866 0.88765 0.85338 0.0
C658 C 0.66423 0.89019 0.88109 0.0
N659 N 0.66569 0.88243 0.86368 0.0
C660 C 0.78881 0.91592 0.85783 0.0
C661 C 0.76336 0.94139 0.83843 0.0
C662 C 0.80259 0.90636 0.84324 0.0
N663 N 0.76976 0.93317 0.85513 0.0
C664 C 0.77662 0.93237 0.82347 0.0
C665 C 0.79659 0.9147 0.82579 0.0
H666 H 0.79345 0.90985 0.87133 0.0
H667 H 0.74793 0.95496 0.83676 0.0
C668 C 0.65639 0.96632 0.88967 0.0
N669 N 0.67541 0.96047 0.87794 0.0
C670 C 0.63132 0.96915 0.88356 0.0
C671 C 0.64597 0.95998 0.85341 0.0
C672 C 0.67077 0.95734 0.86012 0.0
C673 C 0.62589 0.96609 0.86519 0.0
H674 H 0.66079 0.9694 0.90367 0.0
H675 H 0.68645 0.95309 0.8511 0.0
O676 O 0.77244 0.956 0.89679 0.0
O677 O 0.71708 0.97263 0.90969 0.0
O678 O 0.73306 0.97861 0.87022 0.0
O679 O 0.72594 0.92345 0.88562 0.0
H680 H 0.81447 0.95076 0.91621 0.0
H681 H 0.78474 0.97921 0.86612 0.0
H682 H 0.85807 0.96396 0.9065 0.0
H683 H 0.82887 0.99126 0.85712 0.0
H684 H 0.67635 0.93997 0.95867 0.0
H685 H 0.74522 0.99542 0.93474 0.0
H686 H 0.68161 0.94412 0.92572 0.0
H687 H 0.73873 0.99045 0.96753 0.0
H688 H 0.8058 0.05996 0.90424 0.0
H689 H 0.7269 0.06889 0.92071 0.0
H690 H 0.72468 0.86978 0.95001 0.0
H691 H 0.78609 0.92311 0.96215 0.0
H692 H 0.6949 0.00776 0.88185 0.0
H693 H 0.75661 0.00266 0.84362 0.0
H694 H 0.68369 0.05026 0.86932 0.0
H695 H 0.74442 0.04541 0.83184 0.0
H696 H 0.72383 0.90554 0.85236 0.0
H697 H 0.68318 0.91032 0.90257 0.0
H698 H 0.68719 0.8812 0.83958 0.0
H699 H 0.6473 0.88581 0.88893 0.0
H700 H 0.81801 0.89295 0.84561 0.0
H701 H 0.77113 0.93896 0.81023 0.0
H702 H 0.61651 0.97445 0.89303 0.0
H703 H 0.64256 0.95737 0.83918 0.0
H704 H 0.94491 0.60048 0.64537 0.0
H705 H 0.95051 0.55414 0.64903 0.0
H706 H 0.0223 0.55847 0.6204 0.0
H707 H 0.01683 0.60458 0.61662 0.0
H708 H 0.95502 0.51833 0.62165 0.0
H709 H 0.04122 0.51739 0.66509 0.0
H710 H 0.02187 0.54568 0.66198 0.0
H711 H 0.04526 0.53677 0.64537 0.0
C712 C 0.96192 0.59152 0.63991 0.0
C713 C 0.98051 0.60615 0.6308 0.0
C714 C 0.96514 0.56514 0.64209 0.0
C715 C 0.98704 0.55304 0.63528 0.0
C716 C 0.00561 0.56759 0.62619 0.0
H717 H 0.04276 0.40368 0.61216 0.0
H718 H 0.03481 0.44943 0.61636 0.0
C719 C 0.00244 0.59392 0.62403 0.0
C720 C 0.98981 0.52495 0.63653 0.0
H721 H 0.03098 0.47806 0.64995 0.0
C722 C 0.97139 0.50945 0.62808 0.0
C723 C 0.01121 0.51353 0.64494 0.0
C724 C 0.03089 0.52919 0.65501 0.0
C725 C 0.97443 0.4828 0.62708 0.0
C726 C 0.99629 0.47151 0.63495 0.0
C727 C 0.01431 0.48691 0.64388 0.0
C728 C 0.00146 0.44387 0.63321 0.0
C729 C 0.95484 0.46704 0.61699 0.0
C730 C 0.98551 0.42575 0.64155 0.0
C731 C 0.99009 0.39961 0.63927 0.0
C732 C 0.01073 0.39122 0.62865 0.0
C733 C 0.02691 0.40952 0.62059 0.0
C734 C 0.02234 0.43563 0.62291 0.0
H735 H 0.94156 0.47919 0.60905 0.0
H736 H 0.96445 0.45338 0.60778 0.0
H737 H 0.94329 0.45572 0.62671 0.0
H738 H 0.96953 0.43185 0.64977 0.0
H739 H 0.97754 0.38596 0.64588 0.0
H740 H 0.59497 0.04622 0.39249 0.0
H741 H 0.54903 0.03702 0.39118 0.0
H742 H 0.5624 0.97967 0.35057 0.0
H743 H 0.60839 0.9893 0.35138 0.0
H744 H 0.52054 0.01217 0.34328 0.0
H745 H 0.5162 0.97167 0.41215 0.0
H746 H 0.53014 0.00317 0.41106 0.0
H747 H 0.54603 0.97676 0.40034 0.0
C748 C 0.58811 0.03192 0.38308 0.0
C749 C 0.60528 0.01842 0.37206 0.0
C750 C 0.56192 0.02648 0.38252 0.0
C751 C 0.55249 0.00737 0.37102 0.0
C752 C 0.56943 0.99434 0.35964 0.0
H753 H 0.39928 0.94206 0.38055 0.0
H754 H 0.4457 0.94761 0.37763 0.0
C755 C 0.59565 -0.00024 0.36019 0.0
C756 C 0.52491 0.00096 0.37094 0.0
H757 H 0.47626 0.97997 0.39785 0.0
C758 C 0.51083 0.00496 0.35515 0.0
C759 C 0.5125 0.99118 0.38639 0.0
C760 C 0.52701 0.98519 0.4034 0.0
C761 C 0.48437 0.00018 0.35457 0.0
C762 C 0.47176 0.99156 0.37027 0.0
C763 C 0.486 0.98681 0.38589 0.0
C764 C 0.44369 0.98793 0.37098 0.0
C765 C 0.47019 0.00429 0.33716 0.0
C766 C 0.4273 0.00881 0.36827 0.0
C767 C 0.40082 0.00568 0.36981 0.0
C768 C 0.39029 0.98163 0.37423 0.0
C769 C 0.40679 0.96073 0.37689 0.0
C770 C 0.43329 0.96389 0.37533 0.0
H771 H 0.48336 0.00376 0.32543 0.0
H772 H 0.45501 0.98954 0.33525 0.0
H773 H 0.46092 0.02339 0.33741 0.0
H774 H 0.43501 0.02763 0.36524 0.0
H775 H 0.38859 0.02208 0.36752 0.0
H776 H 0.00528 0.38756 0.13686 0.0
H777 H 0.01037 0.434 0.13817 0.0
H778 H 0.94174 0.4433 0.10656 0.0
H779 H 0.93737 0.39683 0.10421 0.0
H780 H 0.97966 0.47127 0.09352 0.0
H781 H 0.97397 0.48784 0.16677 0.0
H782 H -0.00191 0.46477 0.16122 0.0
H783 H 0.9649 0.45773 0.15661 0.0
C784 C 0.99126 0.39945 0.13016 0.0
C785 C 0.97097 0.38842 0.12036 0.0
C786 C 0.99398 0.42603 0.13118 0.0
C787 C 0.97619 0.44212 0.12273 0.0
C788 C 0.95557 0.43121 0.11331 0.0
H789 H 0.97809 0.60843 0.13412 0.0
H790 H 0.96684 0.56297 0.13574 0.0
C791 C 0.95299 0.40463 0.1121 0.0
C792 C 0.9803 0.4702 0.12245 0.0
H793 H 0.99206 0.52206 0.14918 0.0
C794 C 0.98209 0.48242 0.1057 0.0
C795 C 0.98312 0.48479 0.13835 0.0
C796 C 0.97965 0.47314 0.15674 0.0
C797 C 0.98734 0.5087 0.10439 0.0
C798 C 0.99171 0.52297 0.12025 0.0
C799 C 0.98913 0.51096 0.13703 0.0
C800 C -0.00102 0.55038 0.11968 0.0
C801 C 0.98791 0.52093 0.08601 0.0
C802 C 0.02108 0.55827 0.11043 0.0
C803 C 0.02732 0.58424 0.1092 0.0
C804 C 0.01179 0.60279 0.11746 0.0
C805 C 0.99017 0.5947 0.12729 0.0
C806 C 0.98382 0.56872 0.12837 0.0
H807 H 0.97668 0.50957 0.07611 0.0
H808 H 0.98014 0.54071 0.08638 0.0
H809 H 0.00801 0.52186 0.08118 0.0
H810 H 0.03338 0.54435 0.10399 0.0
H811 H 0.04398 0.58978 0.10142 0.0
H812 H 0.41483 0.04919 0.88197 0.0
H813 H 0.4584 0.03911 0.87264 0.0
H814 H 0.42935 0.00327 0.82451 0.0
H815 H 0.38548 0.01232 0.83418 0.0
H816 H 0.46125 0.97243 0.84187 0.0
H817 H 0.50731 0.06726 0.83592 0.0
H818 H 0.49134 0.0647 0.85716 0.0
H819 H 0.47289 0.0634 0.83669 0.0
C820 C 0.41771 0.03935 0.86933 0.0
C821 C 0.39671 0.0314 0.85888 0.0
C822 C 0.44266 0.03396 0.86386 0.0
C823 C 0.44715 0.02083 0.84772 0.0
C824 C 0.42629 0.01367 0.83692 0.0
H825 H 0.61159 0.99203 0.83487 0.0
H826 H 0.56802 0.00276 0.82535 0.0
C827 C 0.40126 0.01897 0.84243 0.0
C828 C 0.47335 0.01196 0.84346 0.0
H829 H 0.53562 0.03188 0.84414 0.0
C830 C 0.4775 0.98548 0.8419 0.0
C831 C 0.49452 0.02896 0.84305 0.0
C832 C 0.49122 0.05767 0.84309 0.0
C833 C 0.50236 0.97544 0.84157 0.0
C834 C 0.5235 0.99231 0.84327 0.0
C835 C 0.51938 0.01889 0.84317 0.0
C836 C 0.54954 0.98291 0.84738 0.0
C837 C 0.50569 0.94682 0.84001 0.0
C838 C 0.55354 0.96803 0.86282 0.0
C839 C 0.57831 0.96172 0.8682 0.0
C840 C 0.5996 0.97046 0.85837 0.0
C841 C 0.59555 0.98476 0.84261 0.0
C842 C 0.5707 0.99101 0.8372 0.0
H843 H 0.48979 0.93808 0.83217 0.0
H844 H 0.52418 0.94186 0.8335 0.0
H845 H 0.50529 0.93819 0.85363 0.0
H846 H 0.53754 0.9621 0.87114 0.0
H847 H 0.58081 0.95047 0.8803 0.0
H848 H 0.23093 0.11145 0.42303 0.0
H849 H 0.21724 0.14637 0.44296 0.0
H850 H 0.14098 0.11415 0.44465 0.0
H851 H 0.15474 0.07899 0.42519 0.0
H852 H 0.17724 0.18393 0.44393 0.0
H853 H 0.16672 0.10971 0.49674 0.0
H854 H 0.18254 0.10356 0.47564 0.0
H855 H 0.1481 0.10293 0.47703 0.0
C856 C 0.21111 0.11227 0.42733 0.0
C857 C 0.19391 0.0925 0.42284 0.0
C858 C 0.20333 0.13214 0.4387 0.0
C859 C 0.17827 0.13246 0.44555 0.0
C860 C 0.16054 0.11391 0.43977 0.0
H861 H 0.09221 0.23921 0.50851 0.0
H862 H 0.11509 0.2181 0.48418 0.0
C863 C 0.16836 0.09393 0.42865 0.0
C864 C 0.17125 0.15027 0.46017 0.0
H865 H 0.14943 0.15067 0.50327 0.0
C866 C 0.17135 0.17679 0.45698 0.0
C867 C 0.16428 0.14089 0.47731 0.0
C868 C 0.16564 0.11274 0.48199 0.0
C869 C 0.16356 0.19415 0.47035 0.0
C870 C 0.15501 0.18457 0.48713 0.0
C871 C 0.15586 0.15809 0.49041 0.0
C872 C 0.14391 0.2011 0.50133 0.0
C873 C 0.16473 0.22248 0.46639 0.0
C874 C 0.15245 0.19872 0.51913 0.0
C875 C 0.13881 0.20994 0.53318 0.0
C876 C 0.11642 0.22409 0.52974 0.0
C877 C 0.10899 0.22798 0.51176 0.0
C878 C 0.1224 0.21632 0.49773 0.0
H879 H 0.17969 0.22688 0.45621 0.0
H880 H 0.14603 0.22871 0.46084 0.0
H881 H 0.16879 0.23379 0.4787 0.0
H882 H 0.16897 0.187 0.52225 0.0
H883 H 0.14507 0.20617 0.54678 0.0
H884 H 0.24544 0.85844 0.46799 0.0
H885 H 0.22815 0.83137 0.49213 0.0
H886 H 0.1593 0.87682 0.49303 0.0
H887 H 0.17582 0.9032 0.46864 0.0
H888 H 0.21015 0.84378 0.52744 0.0
H889 H 0.13352 0.80323 0.48448 0.0
H890 H 0.16086 0.82016 0.47539 0.0
H891 H 0.13391 0.83763 0.48413 0.0
C892 C 0.22656 0.86256 0.47329 0.0
C893 C 0.21195 0.88291 0.46632 0.0
C894 C 0.21683 0.84722 0.48715 0.0
C895 C 0.19233 0.85192 0.49413 0.0
C896 C 0.17811 0.87267 0.48761 0.0
H897 H 0.10823 0.81913 0.58798 0.0
H898 H 0.14122 0.83295 0.56695 0.0
C899 C 0.18773 0.88792 0.47379 0.0
C900 C 0.18097 0.83494 0.5079 0.0
H901 H 0.12724 0.7997 0.51626 0.0
C902 C 0.19224 0.83373 0.52499 0.0
C903 C 0.158 0.82135 0.50451 0.0
C904 C 0.146 0.8204 0.48607 0.0
C905 C 0.18016 0.82055 0.53914 0.0
C906 C 0.156 0.80886 0.53612 0.0
C907 C 0.14565 0.80881 0.5187 0.0
C908 C 0.13987 0.79841 0.55083 0.0
C909 C 0.19329 0.81956 0.55716 0.0
C910 C 0.12812 0.77432 0.54891 0.0
C911 C 0.10848 0.76677 0.56051 0.0
C912 C 0.10032 0.78306 0.57445 0.0
C913 C 0.11355 0.80631 0.57718 0.0
C914 C 0.13287 0.81406 0.56535 0.0
H915 H 0.21447 0.82013 0.5556 0.0
H916 H 0.18766 0.83658 0.56516 0.0
H917 H 0.18794 0.80201 0.56475 0.0
H918 H 0.13313 0.76193 0.53778 0.0
H919 H 0.09868 0.74888 0.55775 0.0
H920 H 0.82219 0.90252 0.40903 0.0
H921 H 0.83932 0.86509 0.42475 0.0
H922 H 0.78277 0.87468 0.46648 0.0
H923 H 0.76499 0.91133 0.45055 0.0
H924 H 0.86076 0.86822 0.45731 0.0
H925 H 0.78145 0.79796 0.46046 0.0
H926 H 0.78141 0.82461 0.44497 0.0
H927 H 0.77106 0.82892 0.46786 0.0
C928 C 0.81294 0.89617 0.42128 0.0
C929 C 0.79236 0.90999 0.42863 0.0
C930 C 0.8228 0.87484 0.43027 0.0
C931 C 0.81212 0.86687 0.44667 0.0
C932 C 0.79095 0.88006 0.45365 0.0
H933 H 0.87207 0.81492 0.54362 0.0
H934 H 0.85096 0.83441 0.51779 0.0
C935 C 0.78107 0.9013 0.44467 0.0
C936 C 0.82506 0.84725 0.45777 0.0
H937 H 0.81341 0.79501 0.48428 0.0
C938 C 0.85058 0.85184 0.46284 0.0
C939 C 0.81185 0.82578 0.46492 0.0
C940 C 0.78501 0.81888 0.4591 0.0
C941 C 0.86263 0.83662 0.47579 0.0
C942 C 0.84874 0.81648 0.48394 0.0
C943 C 0.82384 0.81073 0.47809 0.0
C944 C 0.85911 0.80304 0.49974 0.0
C945 C 0.88979 0.84283 0.48131 0.0
C946 C 0.87011 0.7787 0.49811 0.0
C947 C 0.88216 0.7674 0.5129 0.0
C948 C 0.88322 0.7803 0.5295 0.0
C949 C 0.87129 0.8043 0.53113 0.0
C950 C 0.85936 0.81555 0.51638 0.0
H951 H 0.89942 0.85578 0.47154 0.0
H952 H 0.88958 0.85242 0.49461 0.0
H953 H 0.9012 0.825 0.48262 0.0
H954 H 0.87003 0.76883 0.48531 0.0
H955 H 0.89099 0.74879 0.51128 0.0
H956 H 0.81671 0.12535 0.45996 0.0
H957 H 0.83238 0.14811 0.48629 0.0
H958 H 0.75491 0.15695 0.50547 0.0
H959 H 0.73881 0.13438 0.47877 0.0
H960 H 0.81902 0.19887 0.499 0.0
H961 H 0.7949 0.1204 0.54707 0.0
H962 H 0.79643 0.11489 0.52316 0.0
H963 H 0.7701 0.13238 0.53253 0.0
C964 C 0.80287 0.13253 0.46954 0.0
C965 C 0.77647 0.12816 0.46719 0.0
C966 C 0.8119 0.1454 0.48466 0.0
C967 C 0.79481 0.15405 0.49782 0.0
C968 C 0.76839 0.15015 0.4955 0.0
H969 H 0.8771 0.24195 0.58121 0.0
H970 H 0.84021 0.2296 0.56265 0.0
C971 C 0.75927 0.13725 0.48028 0.0
C972 C 0.80531 0.16645 0.51408 0.0
H973 H 0.82137 0.15361 0.55756 0.0
C974 C 0.81908 0.18939 0.51197 0.0
C975 C 0.80531 0.15383 0.53087 0.0
C976 C 0.79102 0.12895 0.53369 0.0
C977 C 0.83433 0.1992 0.52587 0.0
C978 C 0.83544 0.18585 0.5424 0.0
C979 C 0.82034 0.1638 0.54489 0.0
C980 C 0.85513 0.19214 0.55601 0.0
C981 C 0.85062 0.22265 0.52229 0.0
C982 C 0.87505 0.1747 0.55906 0.0
C983 C 0.896 0.18163 0.56964 0.0
C984 C 0.89742 0.20616 0.57737 0.0
C985 C 0.8767 0.22307 0.57517 0.0
C986 C 0.85564 0.21606 0.56461 0.0
H987 H 0.85026 0.22842 0.50793 0.0
H988 H 0.84337 0.23893 0.53039 0.0
H989 H 0.87082 0.21914 0.52625 0.0
H990 H 0.87503 0.15617 0.55249 0.0
H991 H 0.91173 0.16826 0.57091 0.0
H992 H 0.7537 0.08364 0.94684 0.0
H993 H 0.77127 0.11973 0.96358 0.0
H994 H 0.81413 0.14361 0.91686 0.0
H995 H 0.79691 0.10698 0.90008 0.0
H996 H 0.84456 0.13808 0.94424 0.0
H997 H 0.7626 0.19545 0.96741 0.0
H998 H 0.75722 0.1624 0.97279 0.0
H999 H 0.75959 0.17213 0.9496 0.0
C1000 C 0.76619 0.09705 0.93994 0.0
C1001 C 0.77401 0.09247 0.92218 0.0
C1002 C 0.77614 0.11781 0.94951 0.0
C1003 C 0.79376 0.13465 0.94143 0.0
C1004 C 0.80046 0.13094 0.92335 0.0
H1005 H 0.86614 0.24628 0.01529 0.0
H1006 H 0.84291 0.23013 0.98889 0.0
C1007 C 0.7907 0.11 0.9138 0.0
C1008 C 0.80808 0.15328 0.95269 0.0
H1009 H 0.80048 0.19606 0.98695 0.0
C1010 C 0.8349 0.15123 0.95324 0.0
C1011 C 0.79566 0.17079 0.96428 0.0
C1012 C 0.76719 0.17551 0.96333 0.0
C1013 C 0.84939 0.16466 0.966 0.0
C1014 C 0.83666 0.18005 0.97879 0.0
C1015 C 0.81012 0.18379 0.97735 0.0
C1016 C 0.85028 0.1902 0.9947 0.0
C1017 C 0.87814 0.16152 0.96606 0.0
C1018 C 0.86161 0.17306 0.0068 0.0
C1019 C 0.87489 0.18215 0.02174 0.0
C1020 C 0.87692 0.20862 0.025 0.0
C1021 C 0.86513 0.2258 0.01302 0.0
C1022 C 0.85178 0.21663 -0.00199 0.0
H1023 H 0.8854 0.15647 0.95249 0.0
H1024 H 0.88791 0.1793 0.97064 0.0
H1025 H 0.88334 0.14573 0.97534 0.0
H1026 H 0.86027 0.15256 0.00464 0.0
H1027 H 0.884 0.1684 0.03055 0.0
H1028 H 0.19083 0.09389 0.97442 0.0
H1029 H 0.17537 0.11509 0.00145 0.0
H1030 H 0.24495 0.15989 0.00413 0.0
H1031 H 0.2605 0.13891 0.97661 0.0
H1032 H 0.19899 0.11866 0.03676 0.0
H1033 H 0.18526 0.21325 0.00311 0.0
H1034 H 0.18918 0.18422 0.99023 0.0
H1035 H 0.21605 0.19786 0.00186 0.0
C1036 C 0.20282 0.10836 0.98067 0.0
C1037 C 0.22668 0.11506 0.97325 0.0
C1038 C 0.19407 0.12026 0.99621 0.0
C1039 C 0.20895 0.13914 0.00468 0.0
C1040 C 0.23313 0.14549 0.99766 0.0
H1041 H 0.11888 0.22991 0.08178 0.0
H1042 H 0.159 0.21451 0.06819 0.0
C1043 C 0.242 0.13345 0.98204 0.0
C1044 C 0.19797 0.15262 0.02032 0.0
H1045 H 0.16436 0.20663 0.03053 0.0
C1046 C 0.19202 0.13817 0.03567 0.0
C1047 C 0.18914 0.17813 0.01891 0.0
C1048 C 0.19508 0.19441 0.00266 0.0
C1049 C 0.17563 0.14782 0.04894 0.0
C1050 C 0.16474 0.17234 0.04661 0.0
C1051 C 0.17269 0.18775 0.03219 0.0
C1052 C 0.14185 0.18032 0.05686 0.0
C1053 C 0.16892 0.13113 0.06481 0.0
C1054 C 0.11908 0.16618 0.05494 0.0
C1055 C 0.09632 0.175 0.06244 0.0
C1056 C 0.09588 0.19813 0.07204 0.0
C1057 C 0.11883 0.21192 0.07451 0.0
C1058 C 0.14166 0.20319 0.06678 0.0
H1059 H 0.18473 0.11765 0.06797 0.0
H1060 H 0.16473 0.14286 0.0769 0.0
H1061 H 0.15164 0.11956 0.06155 0.0
H1062 H 0.11871 0.14876 0.04701 0.0
H1063 H 0.07889 0.16398 0.06045 0.0
H1064 H 0.16945 0.77428 0.04485 0.0
H1065 H 0.19699 0.79419 0.02209 0.0
H1066 H 0.13452 0.79238 0.98419 0.0
H1067 H 0.10685 0.77257 0.00685 0.0
H1068 H 0.18556 0.78121 0.96928 0.0
H1069 H 0.18095 0.87047 0.01017 0.0
H1070 H 0.19215 0.84229 0.02158 0.0
H1071 H 0.15957 0.84371 0.01387 0.0
C1072 C 0.1617 0.77783 0.03159 0.0
C1073 C 0.1359 0.77219 0.02769 0.0
C1074 C 0.17746 0.7891 0.01861 0.0
C1075 C 0.16762 0.79503 0.00159 0.0
C1076 C 0.14243 0.78789 0.99727 0.0
H1077 H 0.20026 0.88912 0.91076 0.0
H1078 H 0.18767 0.85388 0.93048 0.0
C1079 C 0.12666 0.77655 0.01022 0.0
C1080 C 0.18249 0.8112 0.98901 0.0
H1081 H 0.20398 0.87243 0.98324 0.0
C1082 C 0.18985 0.8011 0.97233 0.0
C1083 C 0.18793 0.83712 0.99309 0.0
C1084 C 0.17962 0.84921 0.01057 0.0
C1085 C 0.20247 0.8164 0.95952 0.0
C1086 C 0.2073 0.84252 0.96344 0.0
C1087 C 0.20042 0.85236 0.9803 0.0
C1088 C 0.2177 0.86074 0.94999 0.0
C1089 C 0.21049 0.80447 0.94196 0.0
C1090 C 0.23883 0.87627 0.95433 0.0
C1091 C 0.2457 0.89683 0.9433 0.0
C1092 C 0.23155 0.90225 0.92768 0.0
C1093 C 0.21134 0.8857 0.92282 0.0
C1094 C 0.20436 0.86526 0.93394 0.0
H1095 H 0.21339 0.78348 0.94339 0.0
H1096 H 0.19514 0.80746 0.93187 0.0
H1097 H 0.22845 0.81328 0.9368 0.0
H1098 H 0.24927 0.87323 0.96673 0.0
H1099 H 0.26115 0.90931 0.94761 0.0
H1100 H 0.75779 0.84214 0.96149 0.0
H1101 H 0.77738 0.8173 0.98559 0.0
H1102 H 0.79263 0.88707 0.01489 0.0
H1103 H 0.77172 0.91181 0.99143 0.0
H1104 H 0.82594 0.82166 0.99209 0.0
H1105 H 0.7759 0.84077 0.0558 0.0
H1106 H 0.7617 0.84808 0.03429 0.0
H1107 H 0.78337 0.87047 0.04488 0.0
C1108 C 0.76436 0.85212 0.97339 0.0
C1109 C 0.76353 0.87903 0.9744 0.0
C1110 C 0.77568 0.83788 0.98714 0.0
C1111 C 0.7864 0.85025 0.00213 0.0
C1112 C 0.78406 0.87695 0.00369 0.0
H1113 H 0.92933 0.82789 0.05035 0.0
H1114 H 0.89023 0.84029 0.03459 0.0
C1115 C 0.77251 0.89116 0.99006 0.0
C1116 C 0.80386 0.83621 0.01435 0.0
H1117 H 0.82175 0.83092 0.05833 0.0
C1118 C 0.82459 0.82317 0.00659 0.0
C1119 C 0.80211 0.83788 0.03329 0.0
C1120 C 0.77937 0.84983 0.04251 0.0
C1121 C 0.84445 0.81337 0.01714 0.0
C1122 C 0.84387 0.81719 0.03591 0.0
C1123 C 0.82234 0.82853 0.04387 0.0
C1124 C 0.86646 0.81125 0.04709 0.0
C1125 C 0.86638 0.79976 0.00803 0.0
C1126 C 0.86568 0.79152 0.05986 0.0
C1127 C 0.88805 0.78437 0.06892 0.0
C1128 C 0.91141 0.79693 0.06528 0.0
C1129 C 0.91172 0.81756 0.05315 0.0
C1130 C 0.88942 0.82469 0.04418 0.0
H1131 H 0.86062 0.79205 0.99471 0.0
H1132 H 0.88237 0.81353 0.0059 0.0
H1133 H 0.87356 0.78373 0.01643 0.0
H1134 H 0.84804 0.78104 0.0623 0.0
H1135 H 0.88731 0.76836 0.07816 0.0
H1136 H 0.08341 0.13848 0.67784 0.0
H1137 H 0.10227 0.11657 0.70375 0.0
H1138 H 0.10651 0.18842 0.73225 0.0
H1139 H 0.08791 0.21048 0.70644 0.0
H1140 H 0.14996 0.1263 0.72036 0.0
H1141 H 0.06901 0.14075 0.7676 0.0
H1142 H 0.0658 0.14492 0.74363 0.0
H1143 H 0.08018 0.16971 0.7571 0.0
C1144 C 0.08847 0.14961 0.6896 0.0
C1145 C 0.08401 0.17617 0.69016 0.0
C1146 C 0.0991 0.13706 0.70439 0.0
C1147 C 0.10531 0.15084 0.71998 0.0
C1148 C 0.10124 0.17738 0.72049 0.0
H1149 H 0.17888 0.12353 0.82114 0.0
H1150 H 0.15673 0.14065 0.79484 0.0
C1151 C 0.09062 0.18993 0.70574 0.0
C1152 C 0.1168 0.13768 0.73556 0.0
H1153 H 0.10828 0.12616 0.78028 0.0
C1154 C 0.14078 0.126 0.73343 0.0
C1155 C 0.10468 0.13739 0.75255 0.0
C1156 C 0.07838 0.14865 0.75538 0.0
C1157 C 0.15343 0.11476 0.74805 0.0
C1158 C 0.14152 0.11491 0.7651 0.0
C1159 C 0.11733 0.12618 0.76716 0.0
C1160 C 0.15422 0.10417 0.78113 0.0
C1161 C 0.17978 0.1036 0.74526 0.0
C1162 C 0.15969 0.07792 0.7822 0.0
C1163 C 0.17224 0.06806 0.79724 0.0
C1164 C 0.17938 0.08428 0.81148 0.0
C1165 C 0.17338 0.1105 0.81048 0.0
C1166 C 0.16086 0.12033 0.79545 0.0
H1167 H 0.18846 0.10995 0.73237 0.0
H1168 H 0.19281 0.10911 0.75642 0.0
H1169 H 0.17834 0.08237 0.74503 0.0
H1170 H 0.15423 0.06509 0.77141 0.0
H1171 H 0.17621 0.04771 0.79776 0.0
H1172 H 0.12648 0.78851 0.18239 0.0
H1173 H 0.14725 0.81025 0.20771 0.0
H1174 H 0.07968 0.85617 0.21569 0.0
H1175 H 0.05868 0.83446 0.1904 0.0
H1176 H 0.15215 0.86939 0.21049 0.0
H1177 H 0.10006 0.81985 0.26597 0.0
H1178 H 0.10407 0.80551 0.24406 0.0
H1179 H 0.08162 0.83107 0.24709 0.0
C1180 C 0.11595 0.80304 0.18967 0.0
C1181 C 0.09096 0.80978 0.18449 0.0
C1182 C 0.12788 0.8155 0.20402 0.0
C1183 C 0.11488 0.83465 0.2135 0.0
C1184 C 0.08988 0.84132 0.20851 0.0
H1185 H 0.16703 0.94671 0.29127 0.0
H1186 H 0.14702 0.92452 0.26579 0.0
C1187 C 0.07801 0.82902 0.19406 0.0
C1188 C 0.12771 0.84807 0.22843 0.0
H1189 H 0.12867 0.8531 0.27409 0.0
C1190 C 0.14707 0.8659 0.2244 0.0
C1191 C 0.12102 0.84321 0.24648 0.0
C1192 C 0.10066 0.82378 0.25131 0.0
C1193 C 0.15979 0.87931 0.2381 0.0
C1194 C 0.15288 0.87467 0.25615 0.0
C1195 C 0.13374 0.85661 0.26017 0.0
C1196 C 0.1655 0.88826 0.27109 0.0
C1197 C 0.18069 0.89817 0.23328 0.0
C1198 C 0.18237 0.87507 0.2824 0.0
C1199 C 0.19385 0.88766 0.29687 0.0
C1200 C 0.18838 0.91356 0.30034 0.0
C1201 C 0.17146 0.92672 0.28894 0.0
C1202 C 0.16015 0.91415 0.27437 0.0
H1203 H 0.18624 0.89686 0.21891 0.0
H1204 H 0.17391 0.91793 0.23599 0.0
H1205 H 0.19792 0.89484 0.24171 0.0
H1206 H 0.18655 0.85502 0.28007 0.0
H1207 H 0.20654 0.87698 0.30559 0.0
H1208 H 0.90363 0.78458 0.70265 0.0
H1209 H 0.88325 0.80547 0.72827 0.0
H1210 H 0.89327 0.8791 0.70283 0.0
H1211 H 0.914 0.85836 0.67714 0.0
H1212 H 0.90493 0.84446 0.75064 0.0
H1213 H 0.81605 0.87624 0.71598 0.0
H1214 H 0.83688 0.852 0.70677 0.0
H1215 H 0.8458 0.88523 0.70547 0.0
C1216 C 0.90168 0.80525 0.70254 0.0
C1217 C 0.9105 0.81985 0.68789 0.0
C1218 C 0.88992 0.81711 0.71714 0.0
C1219 C 0.88659 0.84374 0.71732 0.0
C1220 C 0.89532 0.85845 0.70276 0.0
H1221 H 0.81398 0.942 0.79687 0.0
H1222 H 0.8371 0.92577 0.77066 0.0
C1223 C 0.90712 0.84659 0.68812 0.0
C1224 C 0.8744 0.85602 0.733 0.0
H1225 H 0.82097 0.88839 0.74631 0.0
C1226 C 0.8866 0.85412 0.74973 0.0
C1227 C 0.85056 0.86866 0.73166 0.0
C1228 C 0.83637 0.87057 0.71405 0.0
C1229 C 0.87554 0.86453 0.76524 0.0
C1230 C 0.85143 0.87668 0.76398 0.0
C1231 C 0.83945 0.879 0.74719 0.0
C1232 C 0.83797 0.88652 0.78001 0.0
C1233 C 0.88985 0.86262 0.7828 0.0
C1234 C 0.83061 0.86973 0.79382 0.0
C1235 C 0.81736 0.87891 0.80877 0.0
C1236 C 0.81104 0.90501 0.81007 0.0
C1237 C 0.81835 0.92175 0.79616 0.0
C1238 C 0.83164 0.91255 0.78123 0.0
H1239 H 0.91067 0.8594 0.78063 0.0
H1240 H 0.88738 0.88026 0.79095 0.0
H1241 H 0.88221 0.84615 0.7906 0.0
H1242 H 0.8348 0.84945 0.79291 0.0
H1243 H 0.81161 0.86548 0.81912 0.0
H1244 H 0.79918 0.06172 0.28864 0.0
H1245 H 0.82159 0.07874 0.2623 0.0
H1246 H 0.87107 0.12321 0.29684 0.0
H1247 H 0.84893 0.10606 0.32322 0.0
H1248 H 0.82512 0.1286 0.25191 0.0
H1249 H 0.92235 0.08937 0.26367 0.0
H1250 H 0.89448 0.07805 0.27571 0.0
H1251 H 0.91019 0.10732 0.28235 0.0
C1252 C 0.81491 0.07505 0.2906 0.0
C1253 C 0.82238 0.08253 0.30796 0.0
C1254 C 0.82774 0.08467 0.27557 0.0
C1255 C 0.84824 0.10191 0.27764 0.0
C1256 C 0.85575 0.1094 0.29496 0.0
H1257 H 0.93445 0.1989 0.2052 0.0
H1258 H 0.91529 0.17748 0.2313 0.0
C1259 C 0.84305 0.09965 0.31001 0.0
C1260 C 0.86077 0.11318 0.26164 0.0
H1261 H 0.91867 0.12145 0.24096 0.0
C1262 C 0.84554 0.12685 0.24943 0.0
C1263 C 0.88742 0.11089 0.25848 0.0
C1264 C 0.90454 0.09541 0.27065 0.0
C1265 C 0.85632 0.13871 0.23431 0.0
C1266 C 0.88296 0.13667 0.2313 0.0
C1267 C 0.89823 0.12297 0.24342 0.0
C1268 C 0.89527 0.14883 0.21562 0.0
C1269 C 0.83928 0.15377 0.22182 0.0
C1270 C 0.89056 0.13946 0.19828 0.0
C1271 C 0.90144 0.1516 0.18339 0.0
C1272 C 0.91715 0.17333 0.18564 0.0
C1273 C 0.92218 0.18237 0.20308 0.0
C1274 C 0.9114 0.17011 0.21797 0.0
H1275 H 0.82005 0.15727 0.22773 0.0
H1276 H 0.84826 0.17251 0.21845 0.0
H1277 H 0.83671 0.14292 0.20913 0.0
H1278 H 0.87826 0.12292 0.19628 0.0
H1279 H 0.89707 0.14435 0.17011 0.0
loop_
_geom_bond_atom_site_label_1
_geom_bond_atom_site_label_2
_geom_bond_distance
_geom_bond_site_symmetry_2
_ccdc_geom_bond_type
Li0 N17 1.990 . S
Li0 O60 1.956 . S
Li0 O61 1.970 . S
Li0 O62 1.961 . S
Li1 N25 1.990 . S
Li1 O60 1.970 . S
Li1 O61 1.956 . S
Li1 O63 1.961 . S
Li2 N47 1.990 1_455 S
Li2 O60 1.961 . S
Li2 O62 1.956 . S
Li2 O63 1.970 . S
Li3 N53 1.990 . S
Li3 O61 1.961 . S
Li3 O62 1.970 . S
Li3 O63 1.956 . S
C4 C6 1.350 . S
C4 C7 1.384 . S
C4 O60 1.296 1_655 S
N5 C8 1.314 . S
N5 C9 1.279 . S
C6 C4 1.350 . S
C6 C8 1.353 . S
C6 H64 0.929 1_655 S
C7 C4 1.384 . S
C7 C9 1.358 . S
C7 H65 0.930 . S
C8 N5 1.314 . S
C8 C6 1.353 . S
C8 H66 0.930 . S
C9 N5 1.279 . S
C9 C7 1.358 . S
C9 H67 0.930 . S
C10 C13 1.348 . S
C10 C14 1.356 . S
C10 O61 1.325 . S
C11 N12 1.279 . S
C11 C14 1.358 . S
C11 H68 0.930 . S
N12 C11 1.279 . S
N12 C15 1.314 . S
C13 C10 1.348 . S
C13 C15 1.353 . S
C13 H69 0.929 . S
C14 C10 1.356 . S
C14 C11 1.358 . S
C14 H70 0.930 . S
C15 N12 1.314 . S
C15 C13 1.353 . S
C15 H71 0.930 . S
C16 N17 1.314 . S
C16 C21 1.353 . S
C16 H22 0.930 . S
N17 Li0 1.990 . S
N17 C16 1.314 . S
N17 C19 1.279 . S
C18 C19 1.358 . S
C18 C20 1.356 . S
C18 H72 0.930 . S
C19 N17 1.279 . S
C19 C18 1.358 . S
C19 H23 0.930 . S
C20 C18 1.356 . S
C20 C21 1.348 . S
C21 C16 1.353 . S
C21 C20 1.348 . S
C21 H73 0.929 . S
H22 C16 0.930 . S
H23 C19 0.930 . S
C24 N25 1.314 . S
C24 C26 1.353 . S
C24 H30 0.930 . S
N25 Li1 1.990 . S
N25 C24 1.314 . S
N25 C28 1.279 . S
C26 C24 1.353 . S
C26 C29 1.348 . S
C26 H74 0.929 . S
C27 C28 1.358 . S
C27 C29 1.356 . S
C27 H75 0.930 . S
C28 N25 1.279 . S
C28 C27 1.358 . S
C28 H31 0.930 . S
C29 C26 1.348 . S
C29 C27 1.356 . S
H30 C24 0.930 . S
H31 C28 0.930 . S
C32 C34 1.348 . S
C32 C35 1.356 . S
C32 O62 1.325 . S
N33 C36 1.314 . S
N33 C37 1.279 . S
C34 C32 1.348 . S
C34 C36 1.353 . S
C34 H76 0.929 . S
C35 C32 1.356 . S
C35 C37 1.358 . S
C35 H77 0.930 . S
C36 N33 1.314 . S
C36 C34 1.353 . S
C36 H78 0.930 . S
C37 N33 1.279 . S
C37 C35 1.358 . S
C37 H79 0.930 . S
C38 C39 1.348 . S
C38 C40 1.356 . S
C38 O63 1.325 . S
C39 C38 1.348 . S
C39 C41 1.353 . S
C39 H80 0.929 . S
C40 C38 1.356 . S
C40 C42 1.358 . S
C40 H81 0.930 . S
C41 C39 1.353 . S
C41 N43 1.314 . S
C41 H82 0.930 1_455 S
C42 C40 1.358 . S
C42 N43 1.279 . S
C42 H83 0.930 . S
N43 C41 1.314 . S
N43 C42 1.279 . S
C44 C46 1.353 . S
C44 N47 1.314 . S
C44 H50 0.930 . S
C45 N47 1.279 . S
C45 C48 1.358 . S
C45 H51 0.930 . S
C46 C44 1.353 . S
C46 C49 1.348 . S
C46 H84 0.929 . S
N47 Li2 1.990 1_655 S
N47 C44 1.314 . S
N47 C45 1.279 . S
C48 C45 1.358 . S
C48 C49 1.356 . S
C48 H85 0.930 . S
C49 C46 1.348 . S
C49 C48 1.356 . S
H50 C44 0.930 . S
H51 C45 0.930 . S
C52 N53 1.314 . S
C52 C54 1.353 . S
C52 H58 0.930 . S
N53 Li3 1.990 . S
N53 C52 1.314 . S
N53 C56 1.279 . S
C54 C52 1.353 . S
C54 C57 1.348 . S
C54 H86 0.929 . S
C55 C56 1.358 . S
C55 C57 1.356 . S
C55 H87 0.930 . S
C56 N53 1.279 . S
C56 C55 1.358 . S
C56 H59 0.930 . S
C57 C54 1.348 . S
C57 C55 1.356 . S
H58 C52 0.930 . S
H59 C56 0.930 . S
O60 Li0 1.956 . S
O60 Li1 1.970 . S
O60 Li2 1.961 . S
O60 C4 1.296 1_455 S
O61 Li0 1.970 . S
O61 Li1 1.956 . S
O61 Li3 1.961 . S
O61 C10 1.325 . S
O62 Li0 1.961 . S
O62 Li2 1.956 . S
O62 Li3 1.970 . S
O62 C32 1.325 . S
O63 Li1 1.961 . S
O63 Li2 1.970 . S
O63 Li3 1.956 . S
O63 C38 1.325 . S
H64 C6 0.929 1_455 S
H65 C7 0.930 . S
H66 C8 0.930 . S
H67 C9 0.930 . S
H68 C11 0.930 . S
H69 C13 0.929 . S
H70 C14 0.930 . S
H71 C15 0.930 . S
H72 C18 0.930 . S
H73 C21 0.929 . S
H74 C26 0.929 . S
H75 C27 0.930 . S
H76 C34 0.929 . S
H77 C35 0.930 . S
H78 C36 0.930 . S
H79 C37 0.930 . S
H80 C39 0.929 . S
H81 C40 0.930 . S
H82 C41 0.930 1_655 S
H83 C42 0.930 . S
H84 C46 0.929 . S
H85 C48 0.930 . S
H86 C54 0.929 . S
H87 C55 0.930 . S
Li88 N105 1.990 1_565 S
Li88 O148 1.956 . S
Li88 O149 1.970 . S
Li88 O150 1.961 . S
Li89 N113 1.990 . S
Li89 O148 1.970 . S
Li89 O149 1.956 . S
Li89 O151 1.961 . S
Li90 N135 1.990 . S
Li90 O148 1.961 . S
Li90 O150 1.956 . S
Li90 O151 1.970 . S
Li91 N141 1.990 . S
Li91 O149 1.961 . S
Li91 O150 1.970 . S
Li91 O151 1.956 . S
C92 C94 1.348 . S
C92 C95 1.356 . S
C92 O148 1.325 1_545 S
N93 C96 1.314 . S
N93 C97 1.279 . S
C94 C92 1.348 . S
C94 C96 1.353 . S
C94 H152 0.929 . S
C95 C92 1.356 . S
C95 C97 1.358 . S
C95 H153 0.930 . S
C96 N93 1.314 . S
C96 C94 1.353 . S
C96 H154 0.930 . S
C97 N93 1.279 . S
C97 C95 1.358 . S
C97 H155 0.930 . S
C98 C101 1.348 . S
C98 C102 1.356 . S
C98 O149 1.325 . S
C99 N100 1.279 . S
C99 C102 1.358 . S
C99 H156 0.930 . S
N100 C99 1.279 . S
N100 C103 1.314 . S
C101 C98 1.348 . S
C101 C103 1.353 . S
C101 H157 0.929 1_565 S
C102 C98 1.356 . S
C102 C99 1.358 . S
C102 H158 0.930 . S
C103 N100 1.314 . S
C103 C101 1.353 . S
C103 H159 0.930 1_565 S
C104 N105 1.314 . S
C104 C109 1.353 . S
C104 H110 0.930 . S
N105 Li88 1.990 1_545 S
N105 C104 1.314 . S
N105 C107 1.279 . S
C106 C107 1.358 . S
C106 C108 1.356 . S
C106 H160 0.930 . S
C107 N105 1.279 . S
C107 C106 1.358 . S
C107 H111 0.930 . S
C108 C106 1.356 . S
C108 C109 1.348 . S
C109 C104 1.353 . S
C109 C108 1.348 . S
C109 H161 0.929 . S
H110 C104 0.930 . S
H111 C107 0.930 . S
C112 N113 1.314 . S
C112 C114 1.353 . S
C112 H118 0.930 . S
N113 Li89 1.990 . S
N113 C112 1.314 . S
N113 C116 1.279 . S
C114 C112 1.353 . S
C114 C117 1.348 . S
C114 H162 0.929 . S
C115 C116 1.358 . S
C115 C117 1.356 . S
C115 H163 0.930 . S
C116 N113 1.279 . S
C116 C115 1.358 . S
C116 H119 0.930 . S
C117 C114 1.348 . S
C117 C115 1.356 . S
H118 C112 0.930 . S
H119 C116 0.930 . S
C120 C122 1.348 . S
C120 C123 1.356 . S
C120 O150 1.325 . S
N121 C124 1.314 . S
N121 C125 1.279 . S
C122 C120 1.348 . S
C122 C124 1.353 . S
C122 H164 0.929 . S
C123 C120 1.356 . S
C123 C125 1.358 . S
C123 H165 0.930 . S
C124 N121 1.314 . S
C124 C122 1.353 . S
C124 H166 0.930 . S
C125 N121 1.279 . S
C125 C123 1.358 . S
C125 H167 0.930 . S
C126 C127 1.348 . S
C126 C128 1.356 . S
C126 O151 1.325 . S
C127 C126 1.348 . S
C127 C129 1.353 . S
C127 H168 0.929 . S
C128 C126 1.356 . S
C128 C130 1.358 . S
C128 H169 0.930 . S
C129 C127 1.353 . S
C129 N131 1.314 . S
C129 H170 0.930 . S
C130 C128 1.358 . S
C130 N131 1.279 . S
C130 H171 0.930 . S
N131 C129 1.314 . S
N131 C130 1.279 . S
C132 C134 1.353 . S
C132 N135 1.314 . S
C132 H138 0.930 . S
C133 N135 1.279 . S
C133 C136 1.358 . S
C133 H139 0.930 . S
C134 C132 1.353 . S
C134 C137 1.348 . S
C134 H172 0.929 . S
N135 Li90 1.990 . S
N135 C132 1.314 . S
N135 C133 1.279 . S
C136 C133 1.358 . S
C136 C137 1.356 . S
C136 H173 0.930 . S
C137 C134 1.348 . S
C137 C136 1.356 . S
H138 C132 0.930 . S
H139 C133 0.930 . S
C140 N141 1.314 . S
C140 C142 1.353 . S
C140 H146 0.930 . S
N141 Li91 1.990 . S
N141 C140 1.314 . S
N141 C144 1.279 . S
C142 C140 1.353 . S
C142 C145 1.348 . S
C142 H174 0.929 . S
C143 C144 1.358 . S
C143 C145 1.356 . S
C143 H175 0.930 . S
C144 N141 1.279 . S
C144 C143 1.358 . S
C144 H147 0.930 . S
C145 C142 1.348 . S
C145 C143 1.356 . S
H146 C140 0.930 . S
H147 C144 0.930 . S
O148 Li88 1.956 . S
O148 Li89 1.970 . S
O148 Li90 1.961 . S
O148 C92 1.325 1_565 S
O149 Li88 1.970 . S
O149 Li89 1.956 . S
O149 Li91 1.961 . S
O149 C98 1.325 . S
O150 Li88 1.961 . S
O150 Li90 1.956 . S
O150 Li91 1.970 . S
O150 C120 1.325 . S
O151 Li89 1.961 . S
O151 Li90 1.970 . S
O151 Li91 1.956 . S
O151 C126 1.325 . S
H152 C94 0.929 . S
H153 C95 0.930 . S
H154 C96 0.930 . S
H155 C97 0.930 . S
H156 C99 0.930 . S
H157 C101 0.929 1_545 S
H158 C102 0.930 . S
H159 C103 0.930 1_545 S
H160 C106 0.930 . S
H161 C109 0.929 . S
H162 C114 0.929 . S
H163 C115 0.930 . S
H164 C122 0.929 . S
H165 C123 0.930 . S
H166 C124 0.930 . S
H167 C125 0.930 . S
H168 C127 0.929 . S
H169 C128 0.930 . S
H170 C129 0.930 . S
H171 C130 0.930 . S
H172 C134 0.929 . S
H173 C136 0.930 . S
H174 C142 0.929 . S
H175 C143 0.930 . S
Li176 N193 1.990 . S
Li176 O236 1.956 . S
Li176 O237 1.970 . S
Li176 O238 1.961 . S
Li177 N201 1.990 . S
Li177 O236 1.970 . S
Li177 O237 1.956 . S
Li177 O239 1.961 . S
Li178 N223 1.990 1_655 S
Li178 O236 1.961 . S
Li178 O238 1.956 . S
Li178 O239 1.970 . S
Li179 N229 1.990 . S
Li179 O237 1.961 . S
Li179 O238 1.970 . S
Li179 O239 1.956 . S
C180 C182 1.350 . S
C180 C183 1.384 . S
C180 O236 1.296 1_455 S
N181 C184 1.314 . S
N181 C185 1.279 . S
C182 C180 1.350 . S
C182 C184 1.353 . S
C182 H240 0.929 1_455 S
C183 C180 1.384 . S
C183 C185 1.358 . S
C183 H241 0.930 . S
C184 N181 1.314 . S
C184 C182 1.353 . S
C184 H242 0.930 . S
C185 N181 1.279 . S
C185 C183 1.358 . S
C185 H243 0.930 . S
C186 C189 1.348 . S
C186 C190 1.356 . S
C186 O237 1.325 . S
C187 N188 1.279 . S
C187 C190 1.358 . S
C187 H244 0.930 . S
N188 C187 1.279 . S
N188 C191 1.314 . S
C189 C186 1.348 . S
C189 C191 1.353 . S
C189 H245 0.929 . S
C190 C186 1.356 . S
C190 C187 1.358 . S
C190 H246 0.930 . S
C191 N188 1.314 . S
C191 C189 1.353 . S
C191 H247 0.930 . S
C192 N193 1.314 . S
C192 C197 1.353 . S
C192 H198 0.930 . S
N193 Li176 1.990 . S
N193 C192 1.314 . S
N193 C195 1.279 . S
C194 C195 1.358 . S
C194 C196 1.356 . S
C194 H248 0.930 . S
C195 N193 1.279 . S
C195 C194 1.358 . S
C195 H199 0.930 . S
C196 C194 1.356 . S
C196 C197 1.348 . S
C197 C192 1.353 . S
C197 C196 1.348 . S
C197 H249 0.929 . S
H198 C192 0.930 . S
H199 C195 0.930 . S
C200 N201 1.314 . S
C200 C202 1.353 . S
C200 H206 0.930 . S
N201 Li177 1.990 . S
N201 C200 1.314 . S
N201 C204 1.279 . S
C202 C200 1.353 . S
C202 C205 1.348 . S
C202 H250 0.929 . S
C203 C204 1.358 . S
C203 C205 1.356 . S
C203 H251 0.930 . S
C204 N201 1.279 . S
C204 C203 1.358 . S
C204 H207 0.930 . S
C205 C202 1.348 . S
C205 C203 1.356 . S
H206 C200 0.930 . S
H207 C204 0.930 . S
C208 C210 1.348 . S
C208 C211 1.356 . S
C208 O238 1.325 . S
N209 C212 1.314 . S
N209 C213 1.279 . S
C210 C208 1.348 . S
C210 C212 1.353 . S
C210 H252 0.929 . S
C211 C208 1.356 . S
C211 C213 1.358 . S
C211 H253 0.930 . S
C212 N209 1.314 . S
C212 C210 1.353 . S
C212 H254 0.930 . S
C213 N209 1.279 . S
C213 C211 1.358 . S
C213 H255 0.930 . S
C214 C215 1.348 . S
C214 C216 1.356 . S
C214 O239 1.325 . S
C215 C214 1.348 . S
C215 C217 1.353 . S
C215 H256 0.929 . S
C216 C214 1.356 . S
C216 C218 1.358 . S
C216 H257 0.930 . S
C217 C215 1.353 . S
C217 N219 1.314 . S
C217 H258 0.930 1_655 S
C218 C216 1.358 . S
C218 N219 1.279 . S
C218 H259 0.930 . S
N219 C217 1.314 . S
N219 C218 1.279 . S
C220 C222 1.353 . S
C220 N223 1.314 . S
C220 H226 0.930 . S
C221 N223 1.279 . S
C221 C224 1.358 . S
C221 H227 0.930 . S
C222 C220 1.353 . S
C222 C225 1.348 . S
C222 H260 0.929 . S
N223 Li178 1.990 1_455 S
N223 C220 1.314 . S
N223 C221 1.279 . S
C224 C221 1.358 . S
C224 C225 1.356 . S
C224 H261 0.930 . S
C225 C222 1.348 . S
C225 C224 1.356 . S
H226 C220 0.930 . S
H227 C221 0.930 . S
C228 N229 1.314 . S
C228 C230 1.353 . S
C228 H234 0.930 . S
N229 Li179 1.990 . S
N229 C228 1.314 . S
N229 C232 1.279 . S
C230 C228 1.353 . S
C230 C233 1.348 . S
C230 H262 0.929 . S
C231 C232 1.358 . S
C231 C233 1.356 . S
C231 H263 0.930 . S
C232 N229 1.279 . S
C232 C231 1.358 . S
C232 H235 0.930 . S
C233 C230 1.348 . S
C233 C231 1.356 . S
H234 C228 0.930 . S
H235 C232 0.930 . S
O236 Li176 1.956 . S
O236 Li177 1.970 . S
O236 Li178 1.961 . S
O236 C180 1.296 1_655 S
O237 Li176 1.970 . S
O237 Li177 1.956 . S
O237 Li179 1.961 . S
O237 C186 1.325 . S
O238 Li176 1.961 . S
O238 Li178 1.956 . S
O238 Li179 1.970 . S
O238 C208 1.325 . S
O239 Li177 1.961 . S
O239 Li178 1.970 . S
O239 Li179 1.956 . S
O239 C214 1.325 . S
H240 C182 0.929 1_655 S
H241 C183 0.930 . S
H242 C184 0.930 . S
H243 C185 0.930 . S
H244 C187 0.930 . S
H245 C189 0.929 . S
H246 C190 0.930 . S
H247 C191 0.930 . S
H248 C194 0.930 . S
H249 C197 0.929 . S
H250 C202 0.929 . S
H251 C203 0.930 . S
H252 C210 0.929 . S
H253 C211 0.930 . S
H254 C212 0.930 . S
H255 C213 0.930 . S
H256 C215 0.929 . S
H257 C216 0.930 . S
H258 C217 0.930 1_455 S
H259 C218 0.930 . S
H260 C222 0.929 . S
H261 C224 0.930 . S
H262 C230 0.929 . S
H263 C231 0.930 . S
Li264 N281 1.990 . S
Li264 O324 1.956 . S
Li264 O325 1.970 . S
Li264 O326 1.961 . S
Li265 N289 1.990 . S
Li265 O324 1.970 . S
Li265 O325 1.956 . S
Li265 O327 1.961 . S
Li266 N311 1.990 1_545 S
Li266 O324 1.961 . S
Li266 O326 1.956 . S
Li266 O327 1.970 . S
Li267 N317 1.990 . S
Li267 O325 1.961 . S
Li267 O326 1.970 . S
Li267 O327 1.956 . S
C268 C270 1.348 . S
C268 C271 1.356 . S
C268 O324 1.325 . S
N269 C272 1.314 . S
N269 C273 1.279 . S
C270 C268 1.348 . S
C270 C272 1.353 . S
C270 H328 0.929 . S
C271 C268 1.356 . S
C271 C273 1.358 . S
C271 H329 0.930 . S
C272 N269 1.314 . S
C272 C270 1.353 . S
C272 H330 0.930 . S
C273 N269 1.279 . S
C273 C271 1.358 . S
C273 H331 0.930 . S
C274 C277 1.348 . S
C274 C278 1.356 . S
C274 O325 1.325 . S
C275 N276 1.279 . S
C275 C278 1.358 . S
C275 H332 0.930 . S
N276 C275 1.279 . S
N276 C279 1.314 . S
C277 C274 1.348 . S
C277 C279 1.353 . S
C277 H333 0.929 . S
C278 C274 1.356 . S
C278 C275 1.358 . S
C278 H334 0.930 . S
C279 N276 1.314 . S
C279 C277 1.353 . S
C279 H335 0.930 . S
C280 N281 1.314 . S
C280 C285 1.353 . S
C280 H286 0.930 . S
N281 Li264 1.990 . S
N281 C280 1.314 . S
N281 C283 1.279 . S
C282 C283 1.358 . S
C282 C284 1.356 . S
C282 H336 0.930 . S
C283 N281 1.279 . S
C283 C282 1.358 . S
C283 H287 0.930 . S
C284 C282 1.356 . S
C284 C285 1.348 . S
C285 C280 1.353 . S
C285 C284 1.348 . S
C285 H337 0.929 . S
H286 C280 0.930 . S
H287 C283 0.930 . S
C288 N289 1.314 . S
C288 C290 1.353 . S
C288 H294 0.930 . S
N289 Li265 1.990 . S
N289 C288 1.314 . S
N289 C292 1.279 . S
C290 C288 1.353 . S
C290 C293 1.348 . S
C290 H338 0.929 . S
C291 C292 1.358 . S
C291 C293 1.356 . S
C291 H339 0.930 . S
C292 N289 1.279 . S
C292 C291 1.358 . S
C292 H295 0.930 . S
C293 C290 1.348 . S
C293 C291 1.356 . S
H294 C288 0.930 . S
H295 C292 0.930 . S
C296 C298 1.348 . S
C296 C299 1.356 . S
C296 O326 1.325 1_565 S
N297 C300 1.314 . S
N297 C301 1.279 . S
C298 C296 1.348 . S
C298 C300 1.353 . S
C298 H340 0.929 . S
C299 C296 1.356 . S
C299 C301 1.358 . S
C299 H341 0.930 . S
C300 N297 1.314 . S
C300 C298 1.353 . S
C300 H342 0.930 . S
C301 N297 1.279 . S
C301 C299 1.358 . S
C301 H343 0.930 . S
C302 C303 1.348 . S
C302 C304 1.356 . S
C302 O327 1.325 . S
C303 C302 1.348 . S
C303 C305 1.353 . S
C303 H344 0.929 1_545 S
C304 C302 1.356 . S
C304 C306 1.358 . S
C304 H345 0.930 . S
C305 C303 1.353 . S
C305 N307 1.314 . S
C305 H346 0.930 1_545 S
C306 C304 1.358 . S
C306 N307 1.279 . S
C306 H347 0.930 . S
N307 C305 1.314 . S
N307 C306 1.279 . S
C308 C310 1.353 . S
C308 N311 1.314 . S
C308 H314 0.930 . S
C309 N311 1.279 . S
C309 C312 1.358 . S
C309 H315 0.930 . S
C310 C308 1.353 . S
C310 C313 1.348 . S
C310 H348 0.929 . S
N311 Li266 1.990 1_565 S
N311 C308 1.314 . S
N311 C309 1.279 . S
C312 C309 1.358 . S
C312 C313 1.356 . S
C312 H349 0.930 . S
C313 C310 1.348 . S
C313 C312 1.356 . S
H314 C308 0.930 . S
H315 C309 0.930 . S
C316 N317 1.314 . S
C316 C318 1.353 . S
C316 H322 0.930 . S
N317 Li267 1.990 . S
N317 C316 1.314 . S
N317 C320 1.279 . S
C318 C316 1.353 . S
C318 C321 1.348 . S
C318 H350 0.929 . S
C319 C320 1.358 . S
C319 C321 1.356 . S
C319 H351 0.930 . S
C320 N317 1.279 . S
C320 C319 1.358 . S
C320 H323 0.930 . S
C321 C318 1.348 . S
C321 C319 1.356 . S
H322 C316 0.930 . S
H323 C320 0.930 . S
O324 Li264 1.956 . S
O324 Li265 1.970 . S
O324 Li266 1.961 . S
O324 C268 1.325 . S
O325 Li264 1.970 . S
O325 Li265 1.956 . S
O325 Li267 1.961 . S
O325 C274 1.325 . S
O326 Li264 1.961 . S
O326 Li266 1.956 . S
O326 Li267 1.970 . S
O326 C296 1.325 1_545 S
O327 Li265 1.961 . S
O327 Li266 1.970 . S
O327 Li267 1.956 . S
O327 C302 1.325 . S
H328 C270 0.929 . S
H329 C271 0.930 . S
H330 C272 0.930 . S
H331 C273 0.930 . S
H332 C275 0.930 . S
H333 C277 0.929 . S
H334 C278 0.930 . S
H335 C279 0.930 . S
H336 C282 0.930 . S
H337 C285 0.929 . S
H338 C290 0.929 . S
H339 C291 0.930 . S
H340 C298 0.929 . S
H341 C299 0.930 . S
H342 C300 0.930 . S
H343 C301 0.930 . S
H344 C303 0.929 1_565 S
H345 C304 0.930 . S
H346 C305 0.930 1_565 S
H347 C306 0.930 . S
H348 C310 0.929 . S
H349 C312 0.930 . S
H350 C318 0.929 . S
H351 C319 0.930 . S
Li352 N369 1.990 . S
Li352 O412 1.956 . S
Li352 O413 1.970 . S
Li352 O414 1.961 . S
Li353 N377 1.990 . S
Li353 O412 1.970 . S
Li353 O413 1.956 . S
Li353 O415 1.961 . S
Li354 N399 1.990 . S
Li354 O412 1.961 . S
Li354 O414 1.956 . S
Li354 O415 1.970 . S
Li355 N405 1.990 1_655 S
Li355 O413 1.961 . S
Li355 O414 1.970 . S
Li355 O415 1.956 . S
C356 C358 1.348 . S
C356 C359 1.356 . S
C356 O412 1.325 . S
N357 C360 1.314 . S
N357 C361 1.279 . S
C358 C356 1.348 . S
C358 C360 1.353 . S
C358 H416 0.929 . S
C359 C356 1.356 . S
C359 C361 1.358 . S
C359 H417 0.930 . S
C360 N357 1.314 . S
C360 C358 1.353 . S
C360 H418 0.930 . S
C361 N357 1.279 . S
C361 C359 1.358 . S
C361 H419 0.930 . S
C362 C365 1.348 . S
C362 C366 1.356 . S
C362 O413 1.325 . S
C363 N364 1.279 . S
C363 C366 1.358 . S
C363 H420 0.930 . S
N364 C363 1.279 . S
N364 C367 1.314 . S
C365 C362 1.348 . S
C365 C367 1.353 . S
C365 H421 0.929 . S
C366 C362 1.356 . S
C366 C363 1.358 . S
C366 H422 0.930 . S
C367 N364 1.314 . S
C367 C365 1.353 . S
C367 H423 0.930 . S
C368 N369 1.314 . S
C368 C373 1.353 . S
C368 H374 0.930 . S
N369 Li352 1.990 . S
N369 C368 1.314 . S
N369 C371 1.279 . S
C370 C371 1.358 . S
C370 C372 1.356 . S
C370 H424 0.930 . S
C371 N369 1.279 . S
C371 C370 1.358 . S
C371 H375 0.930 . S
C372 C370 1.356 . S
C372 C373 1.348 . S
C373 C368 1.353 . S
C373 C372 1.348 . S
C373 H425 0.929 . S
H374 C368 0.930 . S
H375 C371 0.930 . S
C376 N377 1.314 . S
C376 C378 1.353 . S
C376 H382 0.930 . S
N377 Li353 1.990 . S
N377 C376 1.314 . S
N377 C380 1.279 . S
C378 C376 1.353 . S
C378 C381 1.348 . S
C378 H426 0.929 . S
C379 C380 1.358 . S
C379 C381 1.356 . S
C379 H427 0.930 . S
C380 N377 1.279 . S
C380 C379 1.358 . S
C380 H383 0.930 . S
C381 C378 1.348 . S
C381 C379 1.356 . S
H382 C376 0.930 . S
H383 C380 0.930 . S
C384 C386 1.348 . S
C384 C387 1.356 . S
C384 O414 1.325 . S
N385 C388 1.314 . S
N385 C389 1.279 . S
C386 C384 1.348 . S
C386 C388 1.353 . S
C386 H428 0.929 1_655 S
C387 C384 1.356 . S
C387 C389 1.358 . S
C387 H429 0.930 . S
C388 N385 1.314 . S
C388 C386 1.353 . S
C388 H430 0.930 1_655 S
C389 N385 1.279 . S
C389 C387 1.358 . S
C389 H431 0.930 . S
C390 C391 1.348 . S
C390 C392 1.356 . S
C390 O415 1.325 1_455 S
C391 C390 1.348 . S
C391 C393 1.353 . S
C391 H432 0.929 . S
C392 C390 1.356 . S
C392 C394 1.358 . S
C392 H433 0.930 . S
C393 C391 1.353 . S
C393 N395 1.314 . S
C393 H434 0.930 . S
C394 C392 1.358 . S
C394 N395 1.279 . S
C394 H435 0.930 . S
N395 C393 1.314 . S
N395 C394 1.279 . S
C396 C398 1.353 . S
C396 N399 1.314 . S
C396 H402 0.930 . S
C397 N399 1.279 . S
C397 C400 1.358 . S
C397 H403 0.930 . S
C398 C396 1.353 . S
C398 C401 1.348 . S
C398 H436 0.929 . S
N399 Li354 1.990 . S
N399 C396 1.314 . S
N399 C397 1.279 . S
C400 C397 1.358 . S
C400 C401 1.356 . S
C400 H437 0.930 . S
C401 C398 1.348 . S
C401 C400 1.356 . S
H402 C396 0.930 . S
H403 C397 0.930 . S
C404 N405 1.314 . S
C404 C406 1.353 . S
C404 H410 0.930 . S
N405 Li355 1.990 1_455 S
N405 C404 1.314 . S
N405 C408 1.279 . S
C406 C404 1.353 . S
C406 C409 1.348 . S
C406 H438 0.929 . S
C407 C408 1.358 . S
C407 C409 1.356 . S
C407 H439 0.930 . S
C408 N405 1.279 . S
C408 C407 1.358 . S
C408 H411 0.930 . S
C409 C406 1.348 . S
C409 C407 1.356 . S
H410 C404 0.930 . S
H411 C408 0.930 . S
O412 Li352 1.956 . S
O412 Li353 1.970 . S
O412 Li354 1.961 . S
O412 C356 1.325 . S
O413 Li352 1.970 . S
O413 Li353 1.956 . S
O413 Li355 1.961 . S
O413 C362 1.325 . S
O414 Li352 1.961 . S
O414 Li354 1.956 . S
O414 Li355 1.970 . S
O414 C384 1.325 . S
O415 Li353 1.961 . S
O415 Li354 1.970 . S
O415 Li355 1.956 . S
O415 C390 1.325 1_655 S
H416 C358 0.929 . S
H417 C359 0.930 . S
H418 C360 0.930 . S
H419 C361 0.930 . S
H420 C363 0.930 . S
H421 C365 0.929 . S
H422 C366 0.930 . S
H423 C367 0.930 . S
H424 C370 0.930 . S
H425 C373 0.929 . S
H426 C378 0.929 . S
H427 C379 0.930 . S
H428 C386 0.929 1_455 S
H429 C387 0.930 . S
H430 C388 0.930 1_455 S
H431 C389 0.930 . S
H432 C391 0.929 . S
H433 C392 0.930 . S
H434 C393 0.930 . S
H435 C394 0.930 . S
H436 C398 0.929 . S
H437 C400 0.930 . S
H438 C406 0.929 . S
H439 C407 0.930 . S
Li440 N457 1.990 . S
Li440 O500 1.956 . S
Li440 O501 1.970 . S
Li440 O502 1.961 . S
Li441 N465 1.990 1_545 S
Li441 O500 1.970 . S
Li441 O501 1.956 . S
Li441 O503 1.961 . S
Li442 N487 1.990 . S
Li442 O500 1.961 . S
Li442 O502 1.956 . S
Li442 O503 1.970 . S
Li443 N493 1.990 . S
Li443 O501 1.961 . S
Li443 O502 1.970 . S
Li443 O503 1.956 . S
C444 C446 1.348 . S
C444 C447 1.356 . S
C444 O500 1.325 . S
N445 C448 1.314 . S
N445 C449 1.279 . S
C446 C444 1.348 . S
C446 C448 1.353 . S
C446 H504 0.929 . S
C447 C444 1.356 . S
C447 C449 1.358 . S
C447 H505 0.930 . S
C448 N445 1.314 . S
C448 C446 1.353 . S
C448 H506 0.930 1_545 S
C449 N445 1.279 . S
C449 C447 1.358 . S
C449 H507 0.930 . S
C450 C453 1.348 . S
C450 C454 1.356 . S
C450 O501 1.325 . S
C451 N452 1.279 . S
C451 C454 1.358 . S
C451 H508 0.930 . S
N452 C451 1.279 . S
N452 C455 1.314 . S
C453 C450 1.348 . S
C453 C455 1.353 . S
C453 H509 0.929 . S
C454 C450 1.356 . S
C454 C451 1.358 . S
C454 H510 0.930 . S
C455 N452 1.314 . S
C455 C453 1.353 . S
C455 H511 0.930 . S
C456 N457 1.314 . S
C456 C461 1.353 . S
C456 H462 0.930 . S
N457 Li440 1.990 . S
N457 C456 1.314 . S
N457 C459 1.279 . S
C458 C459 1.358 . S
C458 C460 1.356 . S
C458 H512 0.930 . S
C459 N457 1.279 . S
C459 C458 1.358 . S
C459 H463 0.930 . S
C460 C458 1.356 . S
C460 C461 1.348 . S
C461 C456 1.353 . S
C461 C460 1.348 . S
C461 H513 0.929 . S
H462 C456 0.930 . S
H463 C459 0.930 . S
C464 N465 1.314 . S
C464 C466 1.353 . S
C464 H470 0.930 . S
N465 Li441 1.990 1_565 S
N465 C464 1.314 . S
N465 C468 1.279 . S
C466 C464 1.353 . S
C466 C469 1.348 . S
C466 H514 0.929 . S
C467 C468 1.358 . S
C467 C469 1.356 . S
C467 H515 0.930 . S
C468 N465 1.279 . S
C468 C467 1.358 . S
C468 H471 0.930 . S
C469 C466 1.348 . S
C469 C467 1.356 . S
H470 C464 0.930 . S
H471 C468 0.930 . S
C472 C474 1.348 . S
C472 C475 1.356 . S
C472 O502 1.325 . S
N473 C476 1.314 . S
N473 C477 1.279 . S
C474 C472 1.348 . S
C474 C476 1.353 . S
C474 H516 0.929 . S
C475 C472 1.356 . S
C475 C477 1.358 . S
C475 H517 0.930 . S
C476 N473 1.314 . S
C476 C474 1.353 . S
C476 H518 0.930 . S
C477 N473 1.279 . S
C477 C475 1.358 . S
C477 H519 0.930 . S
C478 C479 1.350 . S
C478 C480 1.384 . S
C478 O503 1.296 1_565 S
C479 C478 1.350 . S
C479 C481 1.353 . S
C479 H520 0.929 1_565 S
C480 C478 1.384 . S
C480 C482 1.358 . S
C480 H521 0.930 . S
C481 C479 1.353 . S
C481 N483 1.314 . S
C481 H522 0.930 . S
C482 C480 1.358 . S
C482 N483 1.279 . S
C482 H523 0.930 . S
N483 C481 1.314 . S
N483 C482 1.279 . S
C484 C486 1.353 . S
C484 N487 1.314 . S
C484 H490 0.930 . S
C485 N487 1.279 . S
C485 C488 1.358 . S
C485 H491 0.930 . S
C486 C484 1.353 . S
C486 C489 1.348 . S
C486 H524 0.929 . S
N487 Li442 1.990 . S
N487 C484 1.314 . S
N487 C485 1.279 . S
C488 C485 1.358 . S
C488 C489 1.356 . S
C488 H525 0.930 . S
C489 C486 1.348 . S
C489 C488 1.356 . S
H490 C484 0.930 . S
H491 C485 0.930 . S
C492 N493 1.314 . S
C492 C494 1.353 . S
C492 H498 0.930 . S
N493 Li443 1.990 . S
N493 C492 1.314 . S
N493 C496 1.279 . S
C494 C492 1.353 . S
C494 C497 1.348 . S
C494 H526 0.929 . S
C495 C496 1.358 . S
C495 C497 1.356 . S
C495 H527 0.930 . S
C496 N493 1.279 . S
C496 C495 1.358 . S
C496 H499 0.930 . S
C497 C494 1.348 . S
C497 C495 1.356 . S
H498 C492 0.930 . S
H499 C496 0.930 . S
O500 Li440 1.956 . S
O500 Li441 1.970 . S
O500 Li442 1.961 . S
O500 C444 1.325 . S
O501 Li440 1.970 . S
O501 Li441 1.956 . S
O501 Li443 1.961 . S
O501 C450 1.325 . S
O502 Li440 1.961 . S
O502 Li442 1.956 . S
O502 Li443 1.970 . S
O502 C472 1.325 . S
O503 Li441 1.961 . S
O503 Li442 1.970 . S
O503 Li443 1.956 . S
O503 C478 1.296 1_545 S
H504 C446 0.929 . S
H505 C447 0.930 . S
H506 C448 0.930 1_565 S
H507 C449 0.930 . S
H508 C451 0.930 . S
H509 C453 0.929 . S
H510 C454 0.930 . S
H511 C455 0.930 . S
H512 C458 0.930 . S
H513 C461 0.929 . S
H514 C466 0.929 . S
H515 C467 0.930 . S
H516 C474 0.929 . S
H517 C475 0.930 . S
H518 C476 0.930 . S
H519 C477 0.930 . S
H520 C479 0.929 1_545 S
H521 C480 0.930 . S
H522 C481 0.930 . S
H523 C482 0.930 . S
H524 C486 0.929 . S
H525 C488 0.930 . S
H526 C494 0.929 . S
H527 C495 0.930 . S
Li528 N545 1.990 1_455 S
Li528 O588 1.956 . S
Li528 O589 1.970 . S
Li528 O590 1.961 . S
Li529 N553 1.990 . S
Li529 O588 1.970 . S
Li529 O589 1.956 . S
Li529 O591 1.961 . S
Li530 N575 1.990 . S
Li530 O588 1.961 . S
Li530 O590 1.956 . S
Li530 O591 1.970 . S
Li531 N581 1.990 . S
Li531 O589 1.961 . S
Li531 O590 1.970 . S
Li531 O591 1.956 . S
C532 C534 1.348 . S
C532 C535 1.356 . S
C532 O588 1.325 1_655 S
N533 C536 1.314 . S
N533 C537 1.279 . S
C534 C532 1.348 . S
C534 C536 1.353 . S
C534 H592 0.929 . S
C535 C532 1.356 . S
C535 C537 1.358 . S
C535 H593 0.930 . S
C536 N533 1.314 . S
C536 C534 1.353 . S
C536 H594 0.930 . S
C537 N533 1.279 . S
C537 C535 1.358 . S
C537 H595 0.930 . S
C538 C541 1.348 . S
C538 C542 1.356 . S
C538 O589 1.325 . S
C539 N540 1.279 . S
C539 C542 1.358 . S
C539 H596 0.930 . S
N540 C539 1.279 . S
N540 C543 1.314 . S
C541 C538 1.348 . S
C541 C543 1.353 . S
C541 H597 0.929 1_455 S
C542 C538 1.356 . S
C542 C539 1.358 . S
C542 H598 0.930 . S
C543 N540 1.314 . S
C543 C541 1.353 . S
C543 H599 0.930 1_455 S
C544 N545 1.314 . S
C544 C549 1.353 . S
C544 H550 0.930 . S
N545 Li528 1.990 1_655 S
N545 C544 1.314 . S
N545 C547 1.279 . S
C546 C547 1.358 . S
C546 C548 1.356 . S
C546 H600 0.930 . S
C547 N545 1.279 . S
C547 C546 1.358 . S
C547 H551 0.930 . S
C548 C546 1.356 . S
C548 C549 1.348 . S
C549 C544 1.353 . S
C549 C548 1.348 . S
C549 H601 0.929 . S
H550 C544 0.930 . S
H551 C547 0.930 . S
C552 N553 1.314 . S
C552 C554 1.353 . S
C552 H558 0.930 . S
N553 Li529 1.990 . S
N553 C552 1.314 . S
N553 C556 1.279 . S
C554 C552 1.353 . S
C554 C557 1.348 . S
C554 H602 0.929 . S
C555 C556 1.358 . S
C555 C557 1.356 . S
C555 H603 0.930 . S
C556 N553 1.279 . S
C556 C555 1.358 . S
C556 H559 0.930 . S
C557 C554 1.348 . S
C557 C555 1.356 . S
H558 C552 0.930 . S
H559 C556 0.930 . S
C560 C562 1.348 . S
C560 C563 1.356 . S
C560 O590 1.325 . S
N561 C564 1.314 . S
N561 C565 1.279 . S
C562 C560 1.348 . S
C562 C564 1.353 . S
C562 H604 0.929 . S
C563 C560 1.356 . S
C563 C565 1.358 . S
C563 H605 0.930 . S
C564 N561 1.314 . S
C564 C562 1.353 . S
C564 H606 0.930 . S
C565 N561 1.279 . S
C565 C563 1.358 . S
C565 H607 0.930 . S
C566 C567 1.348 . S
C566 C568 1.356 . S
C566 O591 1.325 . S
C567 C566 1.348 . S
C567 C569 1.353 . S
C567 H608 0.929 . S
C568 C566 1.356 . S
C568 C570 1.358 . S
C568 H609 0.930 . S
C569 C567 1.353 . S
C569 N571 1.314 . S
C569 H610 0.930 . S
C570 C568 1.358 . S
C570 N571 1.279 . S
C570 H611 0.930 . S
N571 C569 1.314 . S
N571 C570 1.279 . S
C572 C574 1.353 . S
C572 N575 1.314 . S
C572 H578 0.930 . S
C573 N575 1.279 . S
C573 C576 1.358 . S
C573 H579 0.930 . S
C574 C572 1.353 . S
C574 C577 1.348 . S
C574 H612 0.929 . S
N575 Li530 1.990 . S
N575 C572 1.314 . S
N575 C573 1.279 . S
C576 C573 1.358 . S
C576 C577 1.356 . S
C576 H613 0.930 . S
C577 C574 1.348 . S
C577 C576 1.356 . S
H578 C572 0.930 . S
H579 C573 0.930 . S
C580 N581 1.314 . S
C580 C582 1.353 . S
C580 H586 0.930 . S
N581 Li531 1.990 . S
N581 C580 1.314 . S
N581 C584 1.279 . S
C582 C580 1.353 . S
C582 C585 1.348 . S
C582 H614 0.929 . S
C583 C584 1.358 . S
C583 C585 1.356 . S
C583 H615 0.930 . S
C584 N581 1.279 . S
C584 C583 1.358 . S
C584 H587 0.930 . S
C585 C582 1.348 . S
C585 C583 1.356 . S
H586 C580 0.930 . S
H587 C584 0.930 . S
O588 Li528 1.956 . S
O588 Li529 1.970 . S
O588 Li530 1.961 . S
O588 C532 1.325 1_455 S
O589 Li528 1.970 . S
O589 Li529 1.956 . S
O589 Li531 1.961 . S
O589 C538 1.325 . S
O590 Li528 1.961 . S
O590 Li530 1.956 . S
O590 Li531 1.970 . S
O590 C560 1.325 . S
O591 Li529 1.961 . S
O591 Li530 1.970 . S
O591 Li531 1.956 . S
O591 C566 1.325 . S
H592 C534 0.929 . S
H593 C535 0.930 . S
H594 C536 0.930 . S
H595 C537 0.930 . S
H596 C539 0.930 . S
H597 C541 0.929 1_655 S
H598 C542 0.930 . S
H599 C543 0.930 1_655 S
H600 C546 0.930 . S
H601 C549 0.929 . S
H602 C554 0.929 . S
H603 C555 0.930 . S
H604 C562 0.929 . S
H605 C563 0.930 . S
H606 C564 0.930 . S
H607 C565 0.930 . S
H608 C567 0.929 . S
H609 C568 0.930 . S
H610 C569 0.930 . S
H611 C570 0.930 . S
H612 C574 0.929 . S
H613 C576 0.930 . S
H614 C582 0.929 . S
H615 C583 0.930 . S
Li616 N633 1.990 1_565 S
Li616 O676 1.956 . S
Li616 O677 1.970 . S
Li616 O678 1.961 . S
Li617 N641 1.990 . S
Li617 O676 1.970 . S
Li617 O677 1.956 . S
Li617 O679 1.961 . S
Li618 N663 1.990 . S
Li618 O676 1.961 . S
Li618 O678 1.956 . S
Li618 O679 1.970 . S
Li619 N669 1.990 . S
Li619 O677 1.961 . S
Li619 O678 1.970 . S
Li619 O679 1.956 . S
C620 C622 1.348 . S
C620 C623 1.356 . S
C620 O676 1.325 . S
N621 C624 1.314 . S
N621 C625 1.279 . S
C622 C620 1.348 . S
C622 C624 1.353 . S
C622 H680 0.929 . S
C623 C620 1.356 . S
C623 C625 1.358 . S
C623 H681 0.930 . S
C624 N621 1.314 . S
C624 C622 1.353 . S
C624 H682 0.930 . S
C625 N621 1.279 . S
C625 C623 1.358 . S
C625 H683 0.930 . S
C626 C629 1.348 . S
C626 C630 1.356 . S
C626 O677 1.325 . S
C627 N628 1.279 . S
C627 C630 1.358 . S
C627 H684 0.930 . S
N628 C627 1.279 . S
N628 C631 1.314 . S
C629 C626 1.348 . S
C629 C631 1.353 . S
C629 H685 0.929 . S
C630 C626 1.356 . S
C630 C627 1.358 . S
C630 H686 0.930 . S
C631 N628 1.314 . S
C631 C629 1.353 . S
C631 H687 0.930 1_565 S
C632 N633 1.314 . S
C632 C637 1.353 . S
C632 H638 0.930 . S
N633 Li616 1.990 1_545 S
N633 C632 1.314 . S
N633 C635 1.279 . S
C634 C635 1.358 . S
C634 C636 1.356 . S
C634 H688 0.930 . S
C635 N633 1.279 . S
C635 C634 1.358 . S
C635 H639 0.930 . S
C636 C634 1.356 . S
C636 C637 1.348 . S
C637 C632 1.353 . S
C637 C636 1.348 . S
C637 H689 0.929 . S
H638 C632 0.930 . S
H639 C635 0.930 . S
C640 N641 1.314 . S
C640 C642 1.353 . S
C640 H646 0.930 . S
N641 Li617 1.990 . S
N641 C640 1.314 . S
N641 C644 1.279 . S
C642 C640 1.353 . S
C642 C645 1.348 . S
C642 H690 0.929 . S
C643 C644 1.358 . S
C643 C645 1.356 . S
C643 H691 0.930 . S
C644 N641 1.279 . S
C644 C643 1.358 . S
C644 H647 0.930 . S
C645 C642 1.348 . S
C645 C643 1.356 . S
H646 C640 0.930 . S
H647 C644 0.930 . S
C648 C650 1.350 . S
C648 C651 1.384 . S
C648 O678 1.296 1_545 S
N649 C652 1.314 . S
N649 C653 1.279 . S
C650 C648 1.350 . S
C650 C652 1.353 . S
C650 H692 0.929 1_545 S
C651 C648 1.384 . S
C651 C653 1.358 . S
C651 H693 0.930 . S
C652 N649 1.314 . S
C652 C650 1.353 . S
C652 H694 0.930 . S
C653 N649 1.279 . S
C653 C651 1.358 . S
C653 H695 0.930 . S
C654 C655 1.348 . S
C654 C656 1.356 . S
C654 O679 1.325 . S
C655 C654 1.348 . S
C655 C657 1.353 . S
C655 H696 0.929 . S
C656 C654 1.356 . S
C656 C658 1.358 . S
C656 H697 0.930 . S
C657 C655 1.353 . S
C657 N659 1.314 . S
C657 H698 0.930 . S
C658 C656 1.358 . S
C658 N659 1.279 . S
C658 H699 0.930 . S
N659 C657 1.314 . S
N659 C658 1.279 . S
C660 C662 1.353 . S
C660 N663 1.314 . S
C660 H666 0.930 . S
C661 N663 1.279 . S
C661 C664 1.358 . S
C661 H667 0.930 . S
C662 C660 1.353 . S
C662 C665 1.348 . S
C662 H700 0.929 . S
N663 Li618 1.990 . S
N663 C660 1.314 . S
N663 C661 1.279 . S
C664 C661 1.358 . S
C664 C665 1.356 . S
C664 H701 0.930 . S
C665 C662 1.348 . S
C665 C664 1.356 . S
H666 C660 0.930 . S
H667 C661 0.930 . S
C668 N669 1.314 . S
C668 C670 1.353 . S
C668 H674 0.930 . S
N669 Li619 1.990 . S
N669 C668 1.314 . S
N669 C672 1.279 . S
C670 C668 1.353 . S
C670 C673 1.348 . S
C670 H702 0.929 . S
C671 C672 1.358 . S
C671 C673 1.356 . S
C671 H703 0.930 . S
C672 N669 1.279 . S
C672 C671 1.358 . S
C672 H675 0.930 . S
C673 C670 1.348 . S
C673 C671 1.356 . S
H674 C668 0.930 . S
H675 C672 0.930 . S
O676 Li616 1.956 . S
O676 Li617 1.970 . S
O676 Li618 1.961 . S
O676 C620 1.325 . S
O677 Li616 1.970 . S
O677 Li617 1.956 . S
O677 Li619 1.961 . S
O677 C626 1.325 . S
O678 Li616 1.961 . S
O678 Li618 1.956 . S
O678 Li619 1.970 . S
O678 C648 1.296 1_565 S
O679 Li617 1.961 . S
O679 Li618 1.970 . S
O679 Li619 1.956 . S
O679 C654 1.325 . S
H680 C622 0.929 . S
H681 C623 0.930 . S
H682 C624 0.930 . S
H683 C625 0.930 . S
H684 C627 0.930 . S
H685 C629 0.929 . S
H686 C630 0.930 . S
H687 C631 0.930 1_545 S
H688 C634 0.930 . S
H689 C637 0.929 . S
H690 C642 0.929 . S
H691 C643 0.930 . S
H692 C650 0.929 1_565 S
H693 C651 0.930 . S
H694 C652 0.930 . S
H695 C653 0.930 . S
H696 C655 0.929 . S
H697 C656 0.930 . S
H698 C657 0.930 . S
H699 C658 0.930 . S
H700 C662 0.929 . S
H701 C664 0.930 . S
H702 C670 0.929 . S
H703 C671 0.930 . S
H704 C712 0.929 . S
H705 C714 0.930 . S
H706 C716 0.930 1_455 S
H707 C719 0.929 . S
H708 C722 0.930 . S
H709 C724 0.960 . S
H710 C724 0.960 . S
H711 C724 0.960 . S
C712 H704 0.929 . S
C712 C713 1.377 . S
C712 C714 1.384 . S
C713 C712 1.377 . S
C713 C719 1.390 . S
C714 H705 0.930 . S
C714 C712 1.384 . S
C714 C715 1.372 . S
C715 C714 1.372 . S
C715 C716 1.400 . S
C715 C720 1.490 . S
C716 H706 0.930 1_655 S
C716 C715 1.400 . S
C716 C719 1.386 . S
H717 C733 0.930 . S
H718 C734 0.931 . S
C719 H707 0.929 . S
C719 C713 1.390 . S
C719 C716 1.386 . S
C720 C715 1.490 . S
C720 C722 1.395 . S
C720 C723 1.403 1_655 S
H721 C727 0.930 . S
C722 H708 0.930 . S
C722 C720 1.395 . S
C722 C725 1.403 . S
C723 C720 1.403 1_455 S
C723 C724 1.524 . S
C723 C727 1.400 . S
C724 H709 0.960 . S
C724 H710 0.960 . S
C724 H711 0.960 . S
C724 C723 1.524 . S
C725 C722 1.403 . S
C725 C726 1.392 1_655 S
C725 C729 1.495 . S
C726 C725 1.392 1_455 S
C726 C727 1.385 . S
C726 C728 1.478 . S
C727 H721 0.930 . S
C727 C723 1.400 . S
C727 C726 1.385 . S
C728 C726 1.478 . S
C728 C730 1.381 . S
C728 C734 1.383 . S
C729 C725 1.495 . S
C729 H735 0.959 . S
C729 H736 0.961 . S
C729 H737 0.960 . S
C730 C728 1.381 . S
C730 C731 1.394 . S
C730 H738 0.930 1_455 S
C731 C730 1.394 . S
C731 C732 1.383 . S
C731 H739 0.929 . S
C732 C731 1.383 . S
C732 C733 1.377 . S
C733 H717 0.930 . S
C733 C732 1.377 . S
C733 C734 1.379 . S
C734 H718 0.931 . S
C734 C728 1.383 . S
C734 C733 1.379 . S
H735 C729 0.959 . S
H736 C729 0.961 . S
H737 C729 0.960 . S
H738 C730 0.930 1_655 S
H739 C731 0.929 . S
H740 C748 0.929 . S
H741 C750 0.930 . S
H742 C752 0.930 1_565 S
H743 C755 0.929 1_565 S
H744 C758 0.930 . S
H745 C760 0.960 . S
H746 C760 0.960 . S
H747 C760 0.960 . S
C748 H740 0.929 . S
C748 C749 1.377 . S
C748 C750 1.384 . S
C749 C748 1.377 . S
C749 C755 1.390 . S
C750 H741 0.930 . S
C750 C748 1.384 . S
C750 C751 1.372 . S
C751 C750 1.372 . S
C751 C752 1.400 . S
C751 C756 1.490 . S
C752 H742 0.930 1_545 S
C752 C751 1.400 . S
C752 C755 1.386 . S
H753 C769 0.930 . S
H754 C770 0.931 . S
C755 H743 0.929 1_545 S
C755 C749 1.390 . S
C755 C752 1.386 . S
C756 C751 1.490 . S
C756 C758 1.395 . S
C756 C759 1.403 1_545 S
H757 C763 0.930 . S
C758 H744 0.930 . S
C758 C756 1.395 . S
C758 C761 1.403 . S
C759 C756 1.403 1_565 S
C759 C760 1.524 . S
C759 C763 1.400 . S
C760 H745 0.960 . S
C760 H746 0.960 . S
C760 H747 0.960 . S
C760 C759 1.524 . S
C761 C758 1.403 . S
C761 C762 1.392 1_545 S
C761 C765 1.495 . S
C762 C761 1.392 1_565 S
C762 C763 1.385 . S
C762 C764 1.478 . S
C763 H757 0.930 . S
C763 C759 1.400 . S
C763 C762 1.385 . S
C764 C762 1.478 . S
C764 C766 1.381 1_565 S
C764 C770 1.383 . S
C765 C761 1.495 . S
C765 H771 0.959 . S
C765 H772 0.961 . S
C765 H773 0.960 . S
C766 C764 1.381 1_545 S
C766 C767 1.394 1_545 S
C766 H774 0.930 . S
C767 C766 1.394 1_565 S
C767 C768 1.383 . S
C767 H775 0.929 1_565 S
C768 C767 1.383 . S
C768 C769 1.377 . S
C769 H753 0.930 . S
C769 C768 1.377 . S
C769 C770 1.379 . S
C770 H754 0.931 . S
C770 C764 1.383 . S
C770 C769 1.379 . S
H771 C765 0.959 . S
H772 C765 0.961 . S
H773 C765 0.960 . S
H774 C766 0.930 . S
H775 C767 0.929 1_545 S
H776 C784 0.929 1_455 S
H777 C786 0.924 1_455 S
H778 C788 0.930 . S
H779 C791 0.929 . S
H780 C794 0.930 . S
H781 C796 0.960 . S
H782 C796 0.960 . S
H783 C796 0.960 . S
C784 H776 0.929 1_655 S
C784 C785 1.377 . S
C784 C786 1.386 . S
C785 C784 1.377 . S
C785 C791 1.390 . S
C786 H777 0.924 1_655 S
C786 C784 1.386 . S
C786 C787 1.376 . S
C787 C786 1.376 . S
C787 C788 1.400 . S
C787 C792 1.490 . S
C788 H778 0.930 . S
C788 C787 1.400 . S
C788 C791 1.386 . S
H789 C805 0.930 1_655 S
H790 C806 0.931 1_655 S
C791 H779 0.929 . S
C791 C785 1.390 . S
C791 C788 1.386 . S
C792 C787 1.490 . S
C792 C794 1.395 1_655 S
C792 C795 1.403 . S
H793 C799 0.929 . S
C794 H780 0.930 . S
C794 C792 1.395 1_455 S
C794 C797 1.403 . S
C795 C792 1.403 . S
C795 C796 1.524 . S
C795 C799 1.387 1_655 S
C796 H781 0.960 . S
C796 H782 0.960 . S
C796 H783 0.960 . S
C796 C795 1.524 . S
C797 C794 1.403 . S
C797 C798 1.392 . S
C797 C801 1.495 . S
C798 C797 1.392 . S
C798 C799 1.401 . S
C798 C800 1.478 . S
C799 H793 0.929 . S
C799 C795 1.387 1_455 S
C799 C798 1.401 . S
C800 C798 1.478 . S
C800 C802 1.381 . S
C800 C806 1.383 . S
C801 C797 1.495 . S
C801 H807 0.959 . S
C801 H808 0.961 . S
C801 H809 0.960 . S
C802 C800 1.381 . S
C802 C803 1.394 . S
C802 H810 0.930 . S
C803 C802 1.394 . S
C803 C804 1.383 . S
C803 H811 0.929 . S
C804 C803 1.383 . S
C804 C805 1.377 . S
C805 H789 0.930 1_455 S
C805 C804 1.377 . S
C805 C806 1.379 . S
C806 H790 0.931 1_455 S
C806 C800 1.383 . S
C806 C805 1.379 . S
H807 C801 0.959 . S
H808 C801 0.961 . S
H809 C801 0.960 . S
H810 C802 0.930 . S
H811 C803 0.929 . S
H812 C820 0.929 . S
H813 C822 0.930 . S
H814 C824 0.930 . S
H815 C827 0.929 . S
H816 C830 0.930 . S
H817 C832 0.960 . S
H818 C832 0.960 . S
H819 C832 0.960 . S
C820 H812 0.929 . S
C820 C821 1.377 . S
C820 C822 1.384 . S
C821 C820 1.377 . S
C821 C827 1.390 . S
C822 H813 0.930 . S
C822 C820 1.384 . S
C822 C823 1.372 . S
C823 C822 1.372 . S
C823 C824 1.400 . S
C823 C828 1.490 . S
C824 H814 0.930 . S
C824 C823 1.400 . S
C824 C827 1.386 . S
H825 C841 0.930 . S
H826 C842 0.931 . S
C827 H815 0.929 . S
C827 C821 1.390 . S
C827 C824 1.386 . S
C828 C823 1.490 . S
C828 C830 1.395 1_545 S
C828 C831 1.403 . S
H829 C835 0.930 . S
C830 H816 0.930 . S
C830 C828 1.395 1_565 S
C830 C833 1.403 . S
C831 C828 1.403 . S
C831 C832 1.524 . S
C831 C835 1.400 . S
C832 H817 0.960 . S
C832 H818 0.960 . S
C832 H819 0.960 . S
C832 C831 1.524 . S
C833 C830 1.403 . S
C833 C834 1.392 . S
C833 C837 1.495 . S
C834 C833 1.392 . S
C834 C835 1.385 1_565 S
C834 C836 1.478 . S
C835 H829 0.930 . S
C835 C831 1.400 . S
C835 C834 1.385 1_545 S
C836 C834 1.478 . S
C836 C838 1.381 . S
C836 C842 1.383 . S
C837 C833 1.495 . S
C837 H843 0.959 . S
C837 H844 0.961 . S
C837 H845 0.960 . S
C838 C836 1.381 . S
C838 C839 1.394 . S
C838 H846 0.930 . S
C839 C838 1.394 . S
C839 C840 1.383 . S
C839 H847 0.929 . S
C840 C839 1.383 . S
C840 C841 1.377 . S
C841 H825 0.930 . S
C841 C840 1.377 . S
C841 C842 1.379 . S
C842 H826 0.931 . S
C842 C836 1.383 . S
C842 C841 1.379 . S
H843 C837 0.959 . S
H844 C837 0.961 . S
H845 C837 0.960 . S
H846 C838 0.930 . S
H847 C839 0.929 . S
H848 C856 0.929 . S
H849 C858 0.930 . S
H850 C860 0.930 . S
H851 C863 0.929 . S
H852 C866 0.930 . S
H853 C868 0.960 . S
H854 C868 0.960 . S
H855 C868 0.960 . S
C856 H848 0.929 . S
C856 C857 1.377 . S
C856 C858 1.384 . S
C857 C856 1.377 . S
C857 C863 1.390 . S
C858 H849 0.930 . S
C858 C856 1.384 . S
C858 C859 1.372 . S
C859 C858 1.372 . S
C859 C860 1.400 . S
C859 C864 1.490 . S
C860 H850 0.930 . S
C860 C859 1.400 . S
C860 C863 1.386 . S
H861 C877 0.930 . S
H862 C878 0.931 . S
C863 H851 0.929 . S
C863 C857 1.390 . S
C863 C860 1.386 . S
C864 C859 1.490 . S
C864 C866 1.395 . S
C864 C867 1.403 . S
H865 C871 0.930 . S
C866 H852 0.930 . S
C866 C864 1.395 . S
C866 C869 1.403 . S
C867 C864 1.403 . S
C867 C868 1.524 . S
C867 C871 1.400 . S
C868 H853 0.960 . S
C868 H854 0.960 . S
C868 H855 0.960 . S
C868 C867 1.524 . S
C869 C866 1.403 . S
C869 C870 1.392 . S
C869 C873 1.495 . S
C870 C869 1.392 . S
C870 C871 1.385 . S
C870 C872 1.478 . S
C871 H865 0.930 . S
C871 C867 1.400 . S
C871 C870 1.385 . S
C872 C870 1.478 . S
C872 C874 1.381 . S
C872 C878 1.383 . S
C873 C869 1.495 . S
C873 H879 0.959 . S
C873 H880 0.961 . S
C873 H881 0.960 . S
C874 C872 1.381 . S
C874 C875 1.394 . S
C874 H882 0.930 . S
C875 C874 1.394 . S
C875 C876 1.383 . S
C875 H883 0.929 . S
C876 C875 1.383 . S
C876 C877 1.377 . S
C877 H861 0.930 . S
C877 C876 1.377 . S
C877 C878 1.379 . S
C878 H862 0.931 . S
C878 C872 1.383 . S
C878 C877 1.379 . S
H879 C873 0.959 . S
H880 C873 0.961 . S
H881 C873 0.960 . S
H882 C874 0.930 . S
H883 C875 0.929 . S
H884 C892 0.929 . S
H885 C894 0.930 . S
H886 C896 0.930 . S
H887 C899 0.929 . S
H888 C902 0.930 . S
H889 C904 0.960 . S
H890 C904 0.960 . S
H891 C904 0.960 . S
C892 H884 0.929 . S
C892 C893 1.377 . S
C892 C894 1.384 . S
C893 C892 1.377 . S
C893 C899 1.390 . S
C894 H885 0.930 . S
C894 C892 1.384 . S
C894 C895 1.372 . S
C895 C894 1.372 . S
C895 C896 1.400 . S
C895 C900 1.490 . S
C896 H886 0.930 . S
C896 C895 1.400 . S
C896 C899 1.386 . S
H897 C913 0.930 . S
H898 C914 0.931 . S
C899 H887 0.929 . S
C899 C893 1.390 . S
C899 C896 1.386 . S
C900 C895 1.490 . S
C900 C902 1.395 . S
C900 C903 1.403 . S
H901 C907 0.930 . S
C902 H888 0.930 . S
C902 C900 1.395 . S
C902 C905 1.403 . S
C903 C900 1.403 . S
C903 C904 1.524 . S
C903 C907 1.400 . S
C904 H889 0.960 . S
C904 H890 0.960 . S
C904 H891 0.960 . S
C904 C903 1.524 . S
C905 C902 1.403 . S
C905 C906 1.392 . S
C905 C909 1.495 . S
C906 C905 1.392 . S
C906 C907 1.385 . S
C906 C908 1.478 . S
C907 H901 0.930 . S
C907 C903 1.400 . S
C907 C906 1.385 . S
C908 C906 1.478 . S
C908 C910 1.381 . S
C908 C914 1.383 . S
C909 C905 1.495 . S
C909 H915 0.959 . S
C909 H916 0.961 . S
C909 H917 0.960 . S
C910 C908 1.381 . S
C910 C911 1.394 . S
C910 H918 0.930 . S
C911 C910 1.394 . S
C911 C912 1.383 . S
C911 H919 0.929 . S
C912 C911 1.383 . S
C912 C913 1.377 . S
C913 H897 0.930 . S
C913 C912 1.377 . S
C913 C914 1.379 . S
C914 H898 0.931 . S
C914 C908 1.383 . S
C914 C913 1.379 . S
H915 C909 0.959 . S
H916 C909 0.961 . S
H917 C909 0.960 . S
H918 C910 0.930 . S
H919 C911 0.929 . S
H920 C928 0.929 . S
H921 C930 0.930 . S
H922 C932 0.930 . S
H923 C935 0.929 . S
H924 C938 0.930 . S
H925 C940 0.960 . S
H926 C940 0.960 . S
H927 C940 0.960 . S
C928 H920 0.929 . S
C928 C929 1.377 . S
C928 C930 1.384 . S
C929 C928 1.377 . S
C929 C935 1.390 . S
C930 H921 0.930 . S
C930 C928 1.384 . S
C930 C931 1.372 . S
C931 C930 1.372 . S
C931 C932 1.400 . S
C931 C936 1.490 . S
C932 H922 0.930 . S
C932 C931 1.400 . S
C932 C935 1.386 . S
H933 C949 0.930 . S
H934 C950 0.931 . S
C935 H923 0.929 . S
C935 C929 1.390 . S
C935 C932 1.386 . S
C936 C931 1.490 . S
C936 C938 1.395 . S
C936 C939 1.403 . S
H937 C943 0.930 . S
C938 H924 0.930 . S
C938 C936 1.395 . S
C938 C941 1.403 . S
C939 C936 1.403 . S
C939 C940 1.524 . S
C939 C943 1.400 . S
C940 H925 0.960 . S
C940 H926 0.960 . S
C940 H927 0.960 . S
C940 C939 1.524 . S
C941 C938 1.403 . S
C941 C942 1.392 . S
C941 C945 1.495 . S
C942 C941 1.392 . S
C942 C943 1.385 . S
C942 C944 1.478 . S
C943 H937 0.930 . S
C943 C939 1.400 . S
C943 C942 1.385 . S
C944 C942 1.478 . S
C944 C946 1.381 . S
C944 C950 1.383 . S
C945 C941 1.495 . S
C945 H951 0.959 . S
C945 H952 0.961 . S
C945 H953 0.960 . S
C946 C944 1.381 . S
C946 C947 1.394 . S
C946 H954 0.930 . S
C947 C946 1.394 . S
C947 C948 1.383 . S
C947 H955 0.929 . S
C948 C947 1.383 . S
C948 C949 1.377 . S
C949 H933 0.930 . S
C949 C948 1.377 . S
C949 C950 1.379 . S
C950 H934 0.931 . S
C950 C944 1.383 . S
C950 C949 1.379 . S
H951 C945 0.959 . S
H952 C945 0.961 . S
H953 C945 0.960 . S
H954 C946 0.930 . S
H955 C947 0.929 . S
H956 C964 0.929 . S
H957 C966 0.930 . S
H958 C968 0.930 . S
H959 C971 0.929 . S
H960 C974 0.930 . S
H961 C976 0.960 . S
H962 C976 0.960 . S
H963 C976 0.960 . S
C964 H956 0.929 . S
C964 C965 1.377 . S
C964 C966 1.384 . S
C965 C964 1.377 . S
C965 C971 1.390 . S
C966 H957 0.930 . S
C966 C964 1.384 . S
C966 C967 1.372 . S
C967 C966 1.372 . S
C967 C968 1.400 . S
C967 C972 1.490 . S
C968 H958 0.930 . S
C968 C967 1.400 . S
C968 C971 1.386 . S
H969 C985 0.930 . S
H970 C986 0.931 . S
C971 H959 0.929 . S
C971 C965 1.390 . S
C971 C968 1.386 . S
C972 C967 1.490 . S
C972 C974 1.395 . S
C972 C975 1.403 . S
H973 C979 0.930 . S
C974 H960 0.930 . S
C974 C972 1.395 . S
C974 C977 1.403 . S
C975 C972 1.403 . S
C975 C976 1.524 . S
C975 C979 1.400 . S
C976 H961 0.960 . S
C976 H962 0.960 . S
C976 H963 0.960 . S
C976 C975 1.524 . S
C977 C974 1.403 . S
C977 C978 1.392 . S
C977 C981 1.495 . S
C978 C977 1.392 . S
C978 C979 1.385 . S
C978 C980 1.478 . S
C979 H973 0.930 . S
C979 C975 1.400 . S
C979 C978 1.385 . S
C980 C978 1.478 . S
C980 C982 1.381 . S
C980 C986 1.383 . S
C981 C977 1.495 . S
C981 H987 0.959 . S
C981 H988 0.961 . S
C981 H989 0.960 . S
C982 C980 1.381 . S
C982 C983 1.394 . S
C982 H990 0.930 . S
C983 C982 1.394 . S
C983 C984 1.383 . S
C983 H991 0.929 . S
C984 C983 1.383 . S
C984 C985 1.377 . S
C985 H969 0.930 . S
C985 C984 1.377 . S
C985 C986 1.379 . S
C986 H970 0.931 . S
C986 C980 1.383 . S
C986 C985 1.379 . S
H987 C981 0.959 . S
H988 C981 0.961 . S
H989 C981 0.960 . S
H990 C982 0.930 . S
H991 C983 0.929 . S
H992 C1000 0.929 . S
H993 C1002 0.930 . S
H994 C1004 0.930 . S
H995 C1007 0.929 . S
H996 C1010 0.930 . S
H997 C1012 0.960 . S
H998 C1012 0.960 . S
H999 C1012 0.960 . S
C1000 H992 0.929 . S
C1000 C1001 1.377 . S
C1000 C1002 1.384 . S
C1001 C1000 1.377 . S
C1001 C1007 1.390 . S
C1002 H993 0.930 . S
C1002 C1000 1.384 . S
C1002 C1003 1.372 . S
C1003 C1002 1.372 . S
C1003 C1004 1.400 . S
C1003 C1008 1.490 . S
C1004 H994 0.930 . S
C1004 C1003 1.400 . S
C1004 C1007 1.386 . S
H1005 C1021 0.930 . S
H1006 C1022 0.931 1_556 S
C1007 H995 0.929 . S
C1007 C1001 1.390 . S
C1007 C1004 1.386 . S
C1008 C1003 1.490 . S
C1008 C1010 1.395 . S
C1008 C1011 1.403 . S
H1009 C1015 0.930 . S
C1010 H996 0.930 . S
C1010 C1008 1.395 . S
C1010 C1013 1.403 . S
C1011 C1008 1.403 . S
C1011 C1012 1.524 . S
C1011 C1015 1.400 . S
C1012 H997 0.960 . S
C1012 H998 0.960 . S
C1012 H999 0.960 . S
C1012 C1011 1.524 . S
C1013 C1010 1.403 . S
C1013 C1014 1.398 . S
C1013 C1017 1.495 1_556 S
C1014 C1013 1.398 . S
C1014 C1015 1.416 . S
C1014 C1016 1.444 1_556 S
C1015 H1009 0.930 . S
C1015 C1011 1.400 . S
C1015 C1014 1.416 . S
C1016 C1014 1.444 1_554 S
C1016 C1018 1.381 . S
C1016 C1022 1.383 . S
C1017 C1013 1.495 1_554 S
C1017 H1023 0.959 . S
C1017 H1024 0.961 . S
C1017 H1025 0.960 . S
C1018 C1016 1.381 . S
C1018 C1019 1.394 . S
C1018 H1026 0.930 . S
C1019 C1018 1.394 . S
C1019 C1020 1.383 . S
C1019 H1027 0.929 . S
C1020 C1019 1.383 . S
C1020 C1021 1.377 . S
C1021 H1005 0.930 . S
C1021 C1020 1.377 . S
C1021 C1022 1.379 . S
C1022 H1006 0.931 1_554 S
C1022 C1016 1.383 . S
C1022 C1021 1.379 . S
H1023 C1017 0.959 . S
H1024 C1017 0.961 . S
H1025 C1017 0.960 . S
H1026 C1018 0.930 . S
H1027 C1019 0.929 . S
H1028 C1036 0.929 . S
H1029 C1038 0.930 . S
H1030 C1040 0.930 . S
H1031 C1043 0.929 . S
H1032 C1046 0.930 . S
H1033 C1048 0.960 . S
H1034 C1048 0.960 . S
H1035 C1048 0.960 . S
C1036 H1028 0.929 . S
C1036 C1037 1.377 . S
C1036 C1038 1.384 . S
C1037 C1036 1.377 . S
C1037 C1043 1.390 . S
C1038 H1029 0.930 . S
C1038 C1036 1.384 . S
C1038 C1039 1.372 . S
C1039 C1038 1.372 . S
C1039 C1040 1.400 . S
C1039 C1044 1.490 1_556 S
C1040 H1030 0.930 . S
C1040 C1039 1.400 . S
C1040 C1043 1.386 . S
H1041 C1057 0.930 . S
H1042 C1058 0.931 . S
C1043 H1031 0.929 . S
C1043 C1037 1.390 . S
C1043 C1040 1.386 . S
C1044 C1039 1.490 1_554 S
C1044 C1046 1.395 . S
C1044 C1047 1.398 1_554 S
H1045 C1051 0.930 . S
C1046 H1032 0.930 . S
C1046 C1044 1.395 . S
C1046 C1049 1.403 . S
C1047 C1044 1.398 1_556 S
C1047 C1048 1.548 . S
C1047 C1051 1.379 1_556 S
C1048 H1033 0.960 . S
C1048 H1034 0.960 . S
C1048 H1035 0.960 . S
C1048 C1047 1.548 . S
C1049 C1046 1.403 . S
C1049 C1050 1.392 . S
C1049 C1053 1.495 . S
C1050 C1049 1.392 . S
C1050 C1051 1.385 . S
C1050 C1052 1.478 . S
C1051 H1045 0.930 . S
C1051 C1047 1.379 1_554 S
C1051 C1050 1.385 . S
C1052 C1050 1.478 . S
C1052 C1054 1.381 . S
C1052 C1058 1.383 . S
C1053 C1049 1.495 . S
C1053 H1059 0.959 . S
C1053 H1060 0.961 . S
C1053 H1061 0.960 . S
C1054 C1052 1.381 . S
C1054 C1055 1.394 . S
C1054 H1062 0.930 . S
C1055 C1054 1.394 . S
C1055 C1056 1.383 . S
C1055 H1063 0.929 . S
C1056 C1055 1.383 . S
C1056 C1057 1.377 . S
C1057 H1041 0.930 . S
C1057 C1056 1.377 . S
C1057 C1058 1.379 . S
C1058 H1042 0.931 . S
C1058 C1052 1.383 . S
C1058 C1057 1.379 . S
H1059 C1053 0.959 . S
H1060 C1053 0.961 . S
H1061 C1053 0.960 . S
H1062 C1054 0.930 . S
H1063 C1055 0.929 . S
H1064 C1072 0.929 . S
H1065 C1074 0.930 . S
H1066 C1076 0.930 . S
H1067 C1079 0.929 . S
H1068 C1082 0.930 . S
H1069 C1084 0.960 . S
H1070 C1084 0.960 . S
H1071 C1084 0.960 . S
C1072 H1064 0.929 . S
C1072 C1073 1.377 . S
C1072 C1074 1.384 . S
C1073 C1072 1.377 . S
C1073 C1079 1.390 . S
C1074 H1065 0.930 . S
C1074 C1072 1.384 . S
C1074 C1075 1.372 . S
C1075 C1074 1.372 . S
C1075 C1076 1.400 . S
C1075 C1080 1.490 1_554 S
C1076 H1066 0.930 . S
C1076 C1075 1.400 . S
C1076 C1079 1.386 . S
H1077 C1093 0.930 . S
H1078 C1094 0.931 . S
C1079 H1067 0.929 . S
C1079 C1073 1.390 . S
C1079 C1076 1.386 . S
C1080 C1075 1.490 1_556 S
C1080 C1082 1.395 . S
C1080 C1083 1.403 . S
H1081 C1087 0.930 . S
C1082 H1068 0.930 . S
C1082 C1080 1.395 . S
C1082 C1085 1.403 . S
C1083 C1080 1.403 . S
C1083 C1084 1.524 1_556 S
C1083 C1087 1.400 . S
C1084 H1069 0.960 . S
C1084 H1070 0.960 . S
C1084 H1071 0.960 . S
C1084 C1083 1.524 1_554 S
C1085 C1082 1.403 . S
C1085 C1086 1.392 . S
C1085 C1089 1.495 . S
C1086 C1085 1.392 . S
C1086 C1087 1.385 . S
C1086 C1088 1.478 . S
C1087 H1081 0.930 . S
C1087 C1083 1.400 . S
C1087 C1086 1.385 . S
C1088 C1086 1.478 . S
C1088 C1090 1.381 . S
C1088 C1094 1.383 . S
C1089 C1085 1.495 . S
C1089 H1095 0.959 . S
C1089 H1096 0.961 . S
C1089 H1097 0.960 . S
C1090 C1088 1.381 . S
C1090 C1091 1.394 . S
C1090 H1098 0.930 . S
C1091 C1090 1.394 . S
C1091 C1092 1.383 . S
C1091 H1099 0.929 . S
C1092 C1091 1.383 . S
C1092 C1093 1.377 . S
C1093 H1077 0.930 . S
C1093 C1092 1.377 . S
C1093 C1094 1.379 . S
C1094 H1078 0.931 . S
C1094 C1088 1.383 . S
C1094 C1093 1.379 . S
H1095 C1089 0.959 . S
H1096 C1089 0.961 . S
H1097 C1089 0.960 . S
H1098 C1090 0.930 . S
H1099 C1091 0.929 . S
H1100 C1108 0.929 . S
H1101 C1110 0.930 . S
H1102 C1112 0.930 1_554 S
H1103 C1115 0.929 . S
H1104 C1118 0.930 . S
H1105 C1120 0.960 . S
H1106 C1120 0.960 . S
H1107 C1120 0.960 . S
C1108 H1100 0.929 . S
C1108 C1109 1.377 . S
C1108 C1110 1.384 . S
C1109 C1108 1.377 . S
C1109 C1115 1.390 . S
C1110 H1101 0.930 . S
C1110 C1108 1.384 . S
C1110 C1111 1.372 . S
C1111 C1110 1.372 . S
C1111 C1112 1.400 . S
C1111 C1116 1.490 1_556 S
C1112 H1102 0.930 1_556 S
C1112 C1111 1.400 . S
C1112 C1115 1.386 . S
H1113 C1129 0.930 . S
H1114 C1130 0.931 . S
C1115 H1103 0.929 . S
C1115 C1109 1.390 . S
C1115 C1112 1.386 . S
C1116 C1111 1.490 1_554 S
C1116 C1118 1.395 1_554 S
C1116 C1119 1.403 . S
H1117 C1123 0.930 . S
C1118 H1104 0.930 . S
C1118 C1116 1.395 1_556 S
C1118 C1121 1.403 1_556 S
C1119 C1116 1.403 . S
C1119 C1120 1.524 . S
C1119 C1123 1.400 . S
C1120 H1105 0.960 . S
C1120 H1106 0.960 . S
C1120 H1107 0.960 . S
C1120 C1119 1.524 . S
C1121 C1118 1.403 1_554 S
C1121 C1122 1.392 . S
C1121 C1125 1.495 . S
C1122 C1121 1.392 . S
C1122 C1123 1.385 . S
C1122 C1124 1.478 . S
C1123 H1117 0.930 . S
C1123 C1119 1.400 . S
C1123 C1122 1.385 . S
C1124 C1122 1.478 . S
C1124 C1126 1.381 . S
C1124 C1130 1.383 . S
C1125 C1121 1.495 . S
C1125 H1131 0.959 1_554 S
C1125 H1132 0.961 . S
C1125 H1133 0.960 . S
C1126 C1124 1.381 . S
C1126 C1127 1.394 . S
C1126 H1134 0.930 . S
C1127 C1126 1.394 . S
C1127 C1128 1.383 . S
C1127 H1135 0.929 . S
C1128 C1127 1.383 . S
C1128 C1129 1.377 . S
C1129 H1113 0.930 . S
C1129 C1128 1.377 . S
C1129 C1130 1.379 . S
C1130 H1114 0.931 . S
C1130 C1124 1.383 . S
C1130 C1129 1.379 . S
H1131 C1125 0.959 1_556 S
H1132 C1125 0.961 . S
H1133 C1125 0.960 . S
H1134 C1126 0.930 . S
H1135 C1127 0.929 . S
H1136 C1144 0.929 . S
H1137 C1146 0.930 . S
H1138 C1148 0.930 . S
H1139 C1151 0.929 . S
H1140 C1154 0.930 . S
H1141 C1156 0.960 . S
H1142 C1156 0.960 . S
H1143 C1156 0.960 . S
C1144 H1136 0.929 . S
C1144 C1145 1.377 . S
C1144 C1146 1.384 . S
C1145 C1144 1.377 . S
C1145 C1151 1.390 . S
C1146 H1137 0.930 . S
C1146 C1144 1.384 . S
C1146 C1147 1.372 . S
C1147 C1146 1.372 . S
C1147 C1148 1.400 . S
C1147 C1152 1.490 . S
C1148 H1138 0.930 . S
C1148 C1147 1.400 . S
C1148 C1151 1.386 . S
H1149 C1165 0.930 . S
H1150 C1166 0.931 . S
C1151 H1139 0.929 . S
C1151 C1145 1.390 . S
C1151 C1148 1.386 . S
C1152 C1147 1.490 . S
C1152 C1154 1.395 . S
C1152 C1155 1.403 . S
H1153 C1159 0.930 . S
C1154 H1140 0.930 . S
C1154 C1152 1.395 . S
C1154 C1157 1.403 . S
C1155 C1152 1.403 . S
C1155 C1156 1.524 . S
C1155 C1159 1.400 . S
C1156 H1141 0.960 . S
C1156 H1142 0.960 . S
C1156 H1143 0.960 . S
C1156 C1155 1.524 . S
C1157 C1154 1.403 . S
C1157 C1158 1.392 . S
C1157 C1161 1.495 . S
C1158 C1157 1.392 . S
C1158 C1159 1.385 . S
C1158 C1160 1.478 . S
C1159 H1153 0.930 . S
C1159 C1155 1.400 . S
C1159 C1158 1.385 . S
C1160 C1158 1.478 . S
C1160 C1162 1.381 . S
C1160 C1166 1.383 . S
C1161 C1157 1.495 . S
C1161 H1167 0.959 . S
C1161 H1168 0.961 . S
C1161 H1169 0.960 . S
C1162 C1160 1.381 . S
C1162 C1163 1.394 . S
C1162 H1170 0.930 . S
C1163 C1162 1.394 . S
C1163 C1164 1.383 . S
C1163 H1171 0.929 . S
C1164 C1163 1.383 . S
C1164 C1165 1.377 . S
C1165 H1149 0.930 . S
C1165 C1164 1.377 . S
C1165 C1166 1.379 . S
C1166 H1150 0.931 . S
C1166 C1160 1.383 . S
C1166 C1165 1.379 . S
H1167 C1161 0.959 . S
H1168 C1161 0.961 . S
H1169 C1161 0.960 . S
H1170 C1162 0.930 . S
H1171 C1163 0.929 . S
H1172 C1180 0.929 . S
H1173 C1182 0.930 . S
H1174 C1184 0.930 . S
H1175 C1187 0.929 . S
H1176 C1190 0.930 . S
H1177 C1192 0.960 . S
H1178 C1192 0.960 . S
H1179 C1192 0.960 . S
C1180 H1172 0.929 . S
C1180 C1181 1.377 . S
C1180 C1182 1.384 . S
C1181 C1180 1.377 . S
C1181 C1187 1.390 . S
C1182 H1173 0.930 . S
C1182 C1180 1.384 . S
C1182 C1183 1.372 . S
C1183 C1182 1.372 . S
C1183 C1184 1.400 . S
C1183 C1188 1.490 . S
C1184 H1174 0.930 . S
C1184 C1183 1.400 . S
C1184 C1187 1.386 . S
H1185 C1201 0.930 . S
H1186 C1202 0.931 . S
C1187 H1175 0.929 . S
C1187 C1181 1.390 . S
C1187 C1184 1.386 . S
C1188 C1183 1.490 . S
C1188 C1190 1.395 . S
C1188 C1191 1.403 . S
H1189 C1195 0.930 . S
C1190 H1176 0.930 . S
C1190 C1188 1.395 . S
C1190 C1193 1.403 . S
C1191 C1188 1.403 . S
C1191 C1192 1.524 . S
C1191 C1195 1.400 . S
C1192 H1177 0.960 . S
C1192 H1178 0.960 . S
C1192 H1179 0.960 . S
C1192 C1191 1.524 . S
C1193 C1190 1.403 . S
C1193 C1194 1.392 . S
C1193 C1197 1.495 . S
C1194 C1193 1.392 . S
C1194 C1195 1.385 . S
C1194 C1196 1.478 . S
C1195 H1189 0.930 . S
C1195 C1191 1.400 . S
C1195 C1194 1.385 . S
C1196 C1194 1.478 . S
C1196 C1198 1.381 . S
C1196 C1202 1.383 . S
C1197 C1193 1.495 . S
C1197 H1203 0.959 . S
C1197 H1204 0.961 . S
C1197 H1205 0.960 . S
C1198 C1196 1.381 . S
C1198 C1199 1.394 . S
C1198 H1206 0.930 . S
C1199 C1198 1.394 . S
C1199 C1200 1.383 . S
C1199 H1207 0.929 . S
C1200 C1199 1.383 . S
C1200 C1201 1.377 . S
C1201 H1185 0.930 . S
C1201 C1200 1.377 . S
C1201 C1202 1.379 . S
C1202 H1186 0.931 . S
C1202 C1196 1.383 . S
C1202 C1201 1.379 . S
H1203 C1197 0.959 . S
H1204 C1197 0.961 . S
H1205 C1197 0.960 . S
H1206 C1198 0.930 . S
H1207 C1199 0.929 . S
H1208 C1216 0.929 . S
H1209 C1218 0.930 . S
H1210 C1220 0.930 . S
H1211 C1223 0.929 . S
H1212 C1226 0.930 . S
H1213 C1228 0.960 . S
H1214 C1228 0.960 . S
H1215 C1228 0.960 . S
C1216 H1208 0.929 . S
C1216 C1217 1.377 . S
C1216 C1218 1.384 . S
C1217 C1216 1.377 . S
C1217 C1223 1.390 . S
C1218 H1209 0.930 . S
C1218 C1216 1.384 . S
C1218 C1219 1.372 . S
C1219 C1218 1.372 . S
C1219 C1220 1.400 . S
C1219 C1224 1.490 . S
C1220 H1210 0.930 . S
C1220 C1219 1.400 . S
C1220 C1223 1.386 . S
H1221 C1237 0.930 . S
H1222 C1238 0.931 . S
C1223 H1211 0.929 . S
C1223 C1217 1.390 . S
C1223 C1220 1.386 . S
C1224 C1219 1.490 . S
C1224 C1226 1.395 . S
C1224 C1227 1.403 . S
H1225 C1231 0.930 . S
C1226 H1212 0.930 . S
C1226 C1224 1.395 . S
C1226 C1229 1.403 . S
C1227 C1224 1.403 . S
C1227 C1228 1.524 . S
C1227 C1231 1.400 . S
C1228 H1213 0.960 . S
C1228 H1214 0.960 . S
C1228 H1215 0.960 . S
C1228 C1227 1.524 . S
C1229 C1226 1.403 . S
C1229 C1230 1.392 . S
C1229 C1233 1.495 . S
C1230 C1229 1.392 . S
C1230 C1231 1.385 . S
C1230 C1232 1.478 . S
C1231 H1225 0.930 . S
C1231 C1227 1.400 . S
C1231 C1230 1.385 . S
C1232 C1230 1.478 . S
C1232 C1234 1.381 . S
C1232 C1238 1.383 . S
C1233 C1229 1.495 . S
C1233 H1239 0.959 . S
C1233 H1240 0.961 . S
C1233 H1241 0.960 . S
C1234 C1232 1.381 . S
C1234 C1235 1.394 . S
C1234 H1242 0.930 . S
C1235 C1234 1.394 . S
C1235 C1236 1.383 . S
C1235 H1243 0.929 . S
C1236 C1235 1.383 . S
C1236 C1237 1.377 . S
C1237 H1221 0.930 . S
C1237 C1236 1.377 . S
C1237 C1238 1.379 . S
C1238 H1222 0.931 . S
C1238 C1232 1.383 . S
C1238 C1237 1.379 . S
H1239 C1233 0.959 . S
H1240 C1233 0.961 . S
H1241 C1233 0.960 . S
H1242 C1234 0.930 . S
H1243 C1235 0.929 . S
H1244 C1252 0.929 . S
H1245 C1254 0.930 . S
H1246 C1256 0.930 . S
H1247 C1259 0.929 . S
H1248 C1262 0.930 . S
H1249 C1264 0.960 . S
H1250 C1264 0.960 . S
H1251 C1264 0.960 . S
C1252 H1244 0.929 . S
C1252 C1253 1.377 . S
C1252 C1254 1.384 . S
C1253 C1252 1.377 . S
C1253 C1259 1.390 . S
C1254 H1245 0.930 . S
C1254 C1252 1.384 . S
C1254 C1255 1.372 . S
C1255 C1254 1.372 . S
C1255 C1256 1.400 . S
C1255 C1260 1.490 . S
C1256 H1246 0.930 . S
C1256 C1255 1.400 . S
C1256 C1259 1.386 . S
H1257 C1273 0.930 . S
H1258 C1274 0.931 . S
C1259 H1247 0.929 . S
C1259 C1253 1.390 . S
C1259 C1256 1.386 . S
C1260 C1255 1.490 . S
C1260 C1262 1.395 . S
C1260 C1263 1.403 . S
H1261 C1267 0.930 . S
C1262 H1248 0.930 . S
C1262 C1260 1.395 . S
C1262 C1265 1.403 . S
C1263 C1260 1.403 . S
C1263 C1264 1.524 . S
C1263 C1267 1.400 . S
C1264 H1249 0.960 . S
C1264 H1250 0.960 . S
C1264 H1251 0.960 . S
C1264 C1263 1.524 . S
C1265 C1262 1.403 . S
C1265 C1266 1.392 . S
C1265 C1269 1.495 . S
C1266 C1265 1.392 . S
C1266 C1267 1.385 . S
C1266 C1268 1.478 . S
C1267 H1261 0.930 . S
C1267 C1263 1.400 . S
C1267 C1266 1.385 . S
C1268 C1266 1.478 . S
C1268 C1270 1.381 . S
C1268 C1274 1.383 . S
C1269 C1265 1.495 . S
C1269 H1275 0.959 . S
C1269 H1276 0.961 . S
C1269 H1277 0.960 . S
C1270 C1268 1.381 . S
C1270 C1271 1.394 . S
C1270 H1278 0.930 . S
C1271 C1270 1.394 . S
C1271 C1272 1.383 . S
C1271 H1279 0.929 . S
C1272 C1271 1.383 . S
C1272 C1273 1.377 . S
C1273 H1257 0.930 . S
C1273 C1272 1.377 . S
C1273 C1274 1.379 . S
C1274 H1258 0.931 . S
C1274 C1268 1.383 . S
C1274 C1273 1.379 . S
H1275 C1269 0.959 . S
H1276 C1269 0.961 . S
H1277 C1269 0.960 . S
H1278 C1270 0.930 . S
H1279 C1271 0.929 . S
C713 C205 1.002 . S
C732 C29 0.983 . S
C749 C321 0.994 . S
C768 C117 0.980 . S
C785 C401 0.989 . S
C804 C557 0.993 . S
C821 C489 1.005 . S
C840 C673 1.019 . S
C857 C108 0.428 . S
C876 C57 0.526 . S
C893 C145 0.452 . S
C912 C225 0.523 . S
C929 C313 0.456 . S
C948 C233 0.379 . S
C965 C293 0.422 . S
C984 C49 0.390 . S
C1001 C636 0.437 . S
C1020 C372 0.371 . S
C1037 C460 0.439 . S
C1056 C409 0.519 . S
C1073 C585 0.443 . S
C1092 C469 0.510 . S
C1109 C645 0.468 . S
C1128 C548 0.379 . S
C1145 C20 2.098 . S
C1164 C497 2.107 . S
C1181 C577 2.100 . S
C1200 C137 2.106 . S
C1217 C196 2.095 . S
C1236 C665 2.079 . S
C1253 C284 2.099 . S
C1272 C381 2.082 . S
