# Generated by pormake.
# Topology lon, (4)-cn, num edge types: 1
# Building blocks:
#     Node 0, Type 0, BuildingBlock: ICAMEG_clean_sbu_1, # of connection points: 4
#     Node 1, Type 0, BuildingBlock: ICAMEG_clean_sbu_1, # of connection points: 4
#     Node 2, Type 0, BuildingBlock: ICAMEG_clean_sbu_1, # of connection points: 4
#     Node 3, Type 0, BuildingBlock: ICAMEG_clean_sbu_1, # of connection points: 4
#     Edge 4, Type (0, 0), BuildingBlock: EZIPEK_clean_linker_0, # of connection points: 2
#     Edge 5, Type (0, 0), BuildingBlock: EZIPEK_clean_linker_0, # of connection points: 2
#     Edge 6, Type (0, 0), BuildingBlock: EZIPEK_clean_linker_0, # of connection points: 2
#     Edge 7, Type (0, 0), BuildingBlock: EZIPEK_clean_linker_0, # of connection points: 2
#     Edge 8, Type (0, 0), BuildingBlock: EZIPEK_clean_linker_0, # of connection points: 2
#     Edge 9, Type (0, 0), BuildingBlock: EZIPEK_clean_linker_0, # of connection points: 2
#     Edge 10, Type (0, 0), BuildingBlock: EZIPEK_clean_linker_0, # of connection points: 2
#     Edge 11, Type (0, 0), BuildingBlock: EZIPEK_clean_linker_0, # of connection points: 2
# Relax obj value: 0.244
# Max RMSD: 0.267
# Mean RMSD: 0.258
data_MOF--net-lon--node1-ICAMEG_clean_sbu_1--edge1-EZIPEK_clean_linker_0
_symmetry_space_group_name_H-M    P1
_symmetry_Int_Tables_number       1
_symmetry_cell_setting            triclinic
loop_
_symmetry_equiv_pos_as_xyz
'x, y, z'
_cell_length_a     16.356515
_cell_length_b     19.421791
_cell_length_c     32.80857
_cell_angle_alpha  94.868231
_cell_angle_beta   89.678012
_cell_angle_gamma 115.35053
loop_
_atom_site_label
_atom_site_type_symbol
_atom_site_fract_x
_atom_site_fract_y
_atom_site_fract_z
_atom_type_partial_charge
Co0 Co 0.3723 0.72668 0.04604 0.0
Co1 Co 0.39363 0.62804 0.12289 0.0
O2 O 0.40454 0.72406 0.10316 0.0
C3 C 0.52261 0.88574 0.07085 0.0
O4 O 0.53111 0.86877 0.10797 0.0
C5 C 0.30448 0.68507 0.1888 0.0
O6 O 0.24831 0.68791 0.16131 0.0
O7 O 0.26238 0.57813 0.1056 0.0
O8 O 0.27683 0.61815 0.04343 0.0
H9 H 0.30352 0.345 0.11116 0.0
H10 H 0.36297 0.83547 0.11411 0.0
O11 O 0.46534 0.83599 0.04486 0.0
H12 H 0.06237 0.72312 0.04443 0.0
H13 H 0.29699 0.83766 0.92562 0.0
H14 H 0.35236 0.62515 0.97021 0.0
H15 H 0.18217 0.68704 1.01946 0.0
H16 H 0.33196 0.83413 0.99799 0.0
O17 O 0.36417 0.66166 0.17858 0.0
H18 H 0.3149 0.46616 0.08794 0.0
H19 H 0.44462 0.58538 0.201 0.0
H20 H 0.31585 0.62516 0.8976 0.0
H21 H 0.24599 0.87402 0.13984 0.0
H22 H 0.28756 0.73199 0.87476 0.0
H23 H 0.09412 0.81781 0.10496 0.0
O24 O 0.46528 0.69096 0.0285 0.0
H25 H 0.67747 0.84019 0.18766 0.0
H26 H 0.54707 0.58392 0.11238 0.0
H27 H 0.70976 0.64599 0.13124 0.0
H28 H 0.77617 0.77518 0.16916 0.0
H29 H 0.51495 0.77586 0.16802 0.0
H30 H 0.43321 0.46521 0.2257 0.0
H31 H 0.36327 0.34407 0.18045 0.0
O32 O 0.42715 0.59394 0.06821 0.0
C33 C 0.23046 0.57263 0.06948 0.0
C34 C 0.33432 0.39744 0.13113 0.0
C35 C 0.40699 0.4649 0.19544 0.0
N36 N 0.38087 0.53288 0.14297 0.0
C37 C 0.34115 0.46628 0.11812 0.0
C38 C 0.41279 0.5327 0.18137 0.0
C39 C 0.36776 0.39695 0.17003 0.0
C40 C 0.29792 0.81143 0.09828 0.0
N41 N 0.28063 0.76027 0.06457 0.0
C42 C 0.23152 0.83326 0.11319 0.0
C43 C 0.1463 0.8016 0.09368 0.0
C44 C 0.12848 0.74855 0.05973 0.0
C45 C 0.19663 0.72825 0.0457 0.0
C46 C 0.30886 0.79062 0.93516 0.0
C47 C 0.33964 0.67151 0.96075 0.0
C48 C 0.32933 0.78865 0.97619 0.0
N49 N 0.34319 0.72903 0.98875 0.0
C50 C 0.31926 0.67138 0.91946 0.0
C51 C 0.30354 0.73134 0.90666 0.0
C52 C 0.46929 0.63029 0.03826 0.0
C53 C 0.64938 0.7839 0.17116 0.0
C54 C 0.57526 0.64016 0.12884 0.0
C55 C 0.66753 0.67496 0.13952 0.0
C56 C 0.70472 0.74741 0.16076 0.0
N57 N 0.52138 0.67641 0.13903 0.0
C58 C 0.55734 0.74723 0.16001 0.0
Co59 Co 0.59054 0.3054 0.53522 0.0
Co60 Co 0.7381 0.30121 0.60889 0.0
O61 O 0.63882 0.3272 0.59223 0.0
C62 C 0.58749 0.45672 0.56474 0.0
O63 O 0.61891 0.45604 0.6012 0.0
C64 C 0.62171 0.27921 0.68484 0.0
O65 O 0.54864 0.26413 0.66268 0.0
O66 O 0.65757 0.19049 0.59238 0.0
O67 O 0.59472 0.20169 0.53355 0.0
H68 H 0.95287 0.17794 0.58974 0.0
H69 H 0.49566 0.32586 0.6101 0.0
O70 O 0.58032 0.4057 0.53604 0.0
H71 H 0.25554 0.12841 0.52006 0.0
H72 H 0.41665 0.31906 0.41134 0.0
H73 H 0.6348 0.23023 0.46208 0.0
H74 H 0.41327 0.17949 0.49972 0.0
H75 H 0.46128 0.34042 0.4844 0.0
O76 O 0.69599 0.29114 0.66749 0.0
H77 H 0.82736 0.20782 0.57036 0.0
H78 H 0.85915 0.3404 0.6838 0.0
H79 H 0.58994 0.20611 0.38883 0.0
H80 H 0.33922 0.27374 0.63227 0.0
H81 H 0.48032 0.25087 0.36297 0.0
H82 H 0.21697 0.17465 0.58699 0.0
O83 O 0.71614 0.35782 0.51572 0.0
H84 H 0.80192 0.5678 0.66657 0.0
H85 H 0.93161 0.40622 0.59468 0.0
H86 H 0.02638 0.54451 0.60916 0.0
H87 H 0.96117 0.62621 0.64571 0.0
H88 H 0.71014 0.42907 0.65185 0.0
H89 H 0.98325 0.31032 0.70492 0.0
H90 H 0.03161 0.22896 0.65765 0.0
O91 O 0.7898 0.31185 0.55296 0.0
C92 C 0.61231 0.1613 0.55844 0.0
C93 C 0.93241 0.21336 0.61068 0.0
C94 C 0.94918 0.28734 0.67533 0.0
N95 N 0.83472 0.27521 0.62588 0.0
C96 C 0.86151 0.23081 0.59975 0.0
C97 C 0.87798 0.30357 0.6633 0.0
C98 C 0.97645 0.24189 0.64878 0.0
C99 C 0.44421 0.28235 0.59021 0.0
N100 N 0.46561 0.25729 0.5533 0.0
C101 C 0.35498 0.2531 0.60297 0.0
C102 C 0.28644 0.19774 0.57755 0.0
C103 C 0.30801 0.1721 0.53997 0.0
C104 C 0.39813 0.20245 0.52836 0.0
C105 C 0.46436 0.29917 0.42226 0.0
C106 C 0.58577 0.24867 0.45129 0.0
C107 C 0.49058 0.31158 0.46368 0.0
N108 N 0.54974 0.28543 0.4779 0.0
C109 C 0.56121 0.23542 0.40966 0.0
C110 C 0.49994 0.26076 0.39515 0.0
C111 C 0.78625 0.34814 0.52307 0.0
C112 C 0.83095 0.5328 0.65072 0.0
C113 C 0.90289 0.44126 0.61062 0.0
C114 C 0.95696 0.51967 0.61867 0.0
C115 C 0.9205 0.56553 0.63898 0.0
N116 N 0.81512 0.40937 0.62262 0.0
C117 C 0.77902 0.45435 0.64199 0.0
Co118 Co 0.28973 0.70423 0.50469 0.0
Co119 Co 0.4362 0.71451 0.42891 0.0
O120 O 0.31215 0.68622 0.44704 0.0
C121 C 0.1512 0.54184 0.48452 0.0
O122 O 0.21476 0.52458 0.46876 0.0
C123 C 0.34665 0.75845 0.36232 0.0
O124 O 0.30873 0.78824 0.38934 0.0
O125 O 0.46881 0.82341 0.45016 0.0
O126 O 0.40581 0.8007 0.51159 0.0
H127 H 0.77566 0.85684 0.43962 0.0
H128 H 0.16409 0.69315 0.43714 0.0
O129 O 0.17006 0.61016 0.49907 0.0
H130 H 0.2052 0.92582 0.52394 0.0
H131 H 0.10169 0.71085 0.62583 0.0
H132 H 0.40614 0.75472 0.5803 0.0
H133 H 0.28812 0.85094 0.5403 0.0
H134 H 0.12707 0.68639 0.55304 0.0
O135 O 0.40002 0.73099 0.37347 0.0
H136 H 0.62011 0.81789 0.46309 0.0
H137 H 0.51428 0.67889 0.35189 0.0
H138 H 0.38291 0.77803 0.6535 0.0
H139 H 0.08049 0.76655 0.41917 0.0
H140 H 0.22958 0.75604 0.67673 0.0
H141 H 0.10068 0.88395 0.46292 0.0
O142 O 0.35393 0.64211 0.51907 0.0
H143 H 0.23466 0.45822 0.35675 0.0
H144 H 0.52029 0.60625 0.43653 0.0
H145 H 0.47637 0.47047 0.41419 0.0
H146 H 0.33275 0.39544 0.37379 0.0
H147 H 0.28044 0.5939 0.38047 0.0
H148 H 0.66857 0.71707 0.32682 0.0
H149 H 0.80075 0.80616 0.37095 0.0
O150 O 0.47718 0.69499 0.48297 0.0
C151 C 0.45895 0.84568 0.48699 0.0
C152 C 0.71872 0.81736 0.42025 0.0
C153 C 0.65862 0.73903 0.35695 0.0
N154 N 0.55819 0.74449 0.40954 0.0
C155 C 0.63045 0.7947 0.43357 0.0
C156 C 0.57135 0.71759 0.37135 0.0
C157 C 0.73273 0.78904 0.3817 0.0
C158 C 0.17184 0.74308 0.4566 0.0
N159 N 0.22834 0.76579 0.49043 0.0
C160 C 0.12507 0.78501 0.44612 0.0
C161 C 0.13661 0.85094 0.4706 0.0
C162 C 0.19526 0.87446 0.50483 0.0
C163 C 0.24163 0.83147 0.51406 0.0
C164 C 0.16833 0.7195 0.61617 0.0
C165 C 0.33915 0.74483 0.59012 0.0
C166 C 0.18324 0.7058 0.57496 0.0
N167 N 0.26816 0.71943 0.56232 0.0
C168 C 0.3264 0.75797 0.63166 0.0
C169 C 0.24036 0.74544 0.64468 0.0
C170 C 0.43603 0.65576 0.5123 0.0
C171 C 0.29751 0.49031 0.37423 0.0
C172 C 0.45735 0.57398 0.41927 0.0
C173 C 0.43301 0.4971 0.40653 0.0
C174 C 0.35249 0.45509 0.38385 0.0
N175 N 0.40307 0.60819 0.40973 0.0
C176 C 0.32398 0.5673 0.38756 0.0
Co177 Co 0.65723 0.33054 1.01602 0.0
Co178 Co 0.76769 0.39466 0.92944 0.0
O179 O 0.68343 0.3108 0.95893 0.0
C180 C 0.69605 0.19427 1.0222 0.0
O181 O 0.77637 0.23119 1.00732 0.0
C182 C 0.6208 0.31038 0.86278 0.0
O183 O 0.55422 0.29773 0.8879 0.0
O184 O 0.68767 0.44819 0.93913 0.0
O185 O 0.66958 0.435 1.00634 0.0
H186 H 0.9402 0.67079 0.9027 0.0
H187 H 0.52949 0.20124 0.95963 0.0
O188 O 0.64121 0.22521 0.02645 0.0
H189 H 0.34901 0.33035 1.01884 0.0
H190 H 0.494 0.25954 0.14759 0.0
H191 H 0.73108 0.46473 0.07816 0.0
H192 H 0.51059 0.37866 0.0379 0.0
H193 H 0.53024 0.23546 0.07627 0.0
O194 O 0.7029 0.34403 0.87579 0.0
H195 H 0.83951 0.56395 0.94073 0.0
H196 H 0.86494 0.40401 0.85117 0.0
H197 H 0.69572 0.49159 0.1492 0.0
H198 H 0.36786 0.15026 0.93979 0.0
H199 H 0.57614 0.38864 0.18435 0.0
H200 H 0.27625 0.21513 0.96948 0.0
O201 O 0.78876 0.3734 0.03132 0.0
H202 H 0.82564 0.16294 0.8947 0.0
H203 H 0.9664 0.43941 0.9375 0.0
H204 H 0.06231 0.37022 0.92988 0.0
H205 H 0.9919 0.23084 0.90815 0.0
H206 H 0.73224 0.23448 0.90344 0.0
H207 H 0.96476 0.50893 0.81174 0.0
H208 H 1.00385 0.64361 0.83766 0.0
O209 O 0.8406 0.44942 0.98124 0.0
C210 C 0.66228 0.46456 0.97409 0.0
C211 C 0.92464 0.61242 0.89132 0.0
C212 C 0.93843 0.52162 0.8403 0.0
N213 N 0.84879 0.47789 0.89914 0.0
C214 C 0.86814 0.55169 0.91296 0.0
C215 C 0.882 0.46242 0.86288 0.0
C216 C 0.96018 0.59713 0.85481 0.0
C217 C 0.48979 0.22833 0.97346 0.0
N218 N 0.52911 0.2909 1.00105 0.0
C219 C 0.39837 0.19987 0.96177 0.0
C220 C 0.3471 0.23641 0.97833 0.0
C221 C 0.38782 0.30096 1.00603 0.0
C222 C 0.47945 0.32782 1.01687 0.0
C223 C 0.54629 0.30484 0.1326 0.0
C224 C 0.67886 0.4196 0.09318 0.0
C225 C 0.56761 0.29139 0.09231 0.0
N226 N 0.63255 0.34869 0.07295 0.0
C227 C 0.65933 0.43512 0.13348 0.0
C228 C 0.59233 0.37732 0.1532 0.0
C229 C 0.85124 0.43039 1.01656 0.0
C230 C 0.85713 0.22364 0.90418 0.0
C231 C 0.93527 0.37876 0.92856 0.0
C232 C 0.98993 0.33989 0.92401 0.0
C233 C 0.95039 0.26175 0.91178 0.0
N234 N 0.84384 0.341 0.92118 0.0
C235 C 0.80462 0.26445 0.90908 0.0
C236 C 0.23835 0.66301 0.25861 0.0
C237 C 0.30211 0.71196 0.23237 0.0
C238 C 0.38587 0.79973 0.29159 0.0
C239 C 0.32324 0.75017 0.31795 0.0
N240 N 0.17902 0.64488 0.32699 0.0
N241 N 0.42012 0.83594 0.22225 0.0
C242 C 0.2455 0.68529 0.3015 0.0
C243 C 0.37075 0.78336 0.24842 0.0
N244 N 0.17379 0.59367 0.24274 0.0
N245 N 0.46129 0.86108 0.30789 0.0
H246 H 0.40832 0.82603 0.1906 0.0
H247 H 0.46623 0.89161 0.23185 0.0
H248 H 0.47194 0.87679 0.33931 0.0
H249 H 0.51521 0.89405 0.29055 0.0
H250 H 0.13198 0.55125 0.26056 0.0
H251 H 0.16516 0.57673 0.21142 0.0
H252 H 0.11697 0.60104 0.31676 0.0
H253 H 0.18287 0.65953 0.35848 0.0
C254 C 0.6724 0.35509 0.7544 0.0
C255 C 0.61861 0.28483 0.73089 0.0
C256 C 0.55721 0.22838 0.79548 0.0
C257 C 0.60509 0.30106 0.8175 0.0
N258 N 0.68207 0.43758 0.81532 0.0
N259 N 0.50187 0.15531 0.72952 0.0
C260 C 0.65354 0.36561 0.79595 0.0
C261 C 0.55756 0.22189 0.75158 0.0
N262 N 0.7455 0.41071 0.73842 0.0
N263 N 0.51542 0.16517 0.81641 0.0
H264 H 0.50582 0.14565 0.69798 0.0
H265 H 0.44902 0.11093 0.74229 0.0
H266 H 0.51299 0.16837 0.84825 0.0
H267 H 0.48811 0.10944 0.80248 0.0
H268 H 0.79006 0.46016 0.75567 0.0
H269 H 0.77047 0.40221 0.71045 0.0
H270 H 0.71114 0.4869 0.79996 0.0
H271 H 0.66717 0.44745 0.84564 0.0
C272 C 0.47749 0.52838 0.98819 0.0
C273 C 0.52256 0.5979 1.01338 0.0
C274 C 0.6666 0.58875 1.00485 0.0
C275 C 0.62157 0.51974 0.9792 0.0
N276 N 0.49038 0.43562 0.93749 0.0
N277 N 0.66234 0.70354 0.03817 0.0
C278 C 0.5292 0.49406 0.96754 0.0
C279 C 0.61816 0.63159 1.01881 0.0
N280 N 0.38504 0.49295 0.98566 0.0
N281 N 0.75434 0.61108 1.01767 0.0
H282 H 0.62878 0.73547 0.05014 0.0
H283 H 0.73253 0.73391 0.03966 0.0
H284 H 0.79256 0.58233 1.0071 0.0
H285 H 0.78746 0.65508 0.0405 0.0
H286 H 0.34817 0.43796 0.97164 0.0
H287 H 0.34477 0.51614 1.0004 0.0
H288 H 0.42532 0.4185 0.92522 0.0
H289 H 0.52655 0.40923 0.92203 0.0
C290 C 0.98485 0.49679 0.46836 0.0
C291 C 0.05539 0.48249 0.48498 0.0
C292 C 0.94046 0.36003 0.50363 0.0
C293 C 0.87163 0.38544 0.49938 0.0
N294 N 0.82868 0.47644 0.46957 0.0
N295 N 0.09819 0.39841 0.52078 0.0
C296 C 0.89344 0.45317 0.47913 0.0
C297 C 0.03287 0.41301 0.50284 0.0
N298 N 1.0046 0.54814 0.43974 0.0
N299 N 0.91723 0.28442 0.50666 0.0
H300 H 0.16659 0.43636 0.52204 0.0
H301 H 0.08277 0.35138 0.53758 0.0
H302 H 0.85002 0.2436 0.50291 0.0
H303 H 0.96477 0.26196 0.50729 0.0
H304 H 0.95577 0.55762 0.424 0.0
H305 H 0.0687 0.57249 0.42759 0.0
H306 H 0.84448 0.53173 0.46207 0.0
H307 H 0.75979 0.44078 0.46766 0.0
C308 C 0.70782 0.08856 0.05947 0.0
C309 C 0.66295 0.11296 0.03093 0.0
C310 C 0.52626 0.99621 0.03525 0.0
C311 C 0.5724 0.96581 0.05935 0.0
N312 N 0.71624 0.9794 0.08682 0.0
N313 N 0.54353 0.07345 0.97958 0.0
C314 C 0.66617 1.01084 0.0694 0.0
C315 C 0.57664 0.06137 1.01491 0.0
N316 N 0.78786 0.13936 0.0781 0.0
N317 N 0.43424 0.96691 0.03401 0.0
H318 H 0.58455 0.11605 0.96153 0.0
H319 H 0.48161 0.03469 0.96587 0.0
H320 H 0.39478 0.92573 0.05297 0.0
H321 H 0.39913 0.99122 1.01846 0.0
H322 H 0.81838 0.12611 0.10214 0.0
H323 H 0.82006 0.19636 0.07167 0.0
H324 H 0.78626 1.00821 0.09135 0.0
H325 H 0.68956 0.92218 0.09286 0.0
C326 C 0.60246 0.57242 0.53096 0.0
C327 C 0.55459 0.51503 0.55706 0.0
C328 C 0.43726 0.56277 0.56389 0.0
C329 C 0.48344 0.61817 0.53576 0.0
N330 N 0.63324 0.69911 0.51429 0.0
N331 N 0.43896 0.46782 0.60696 0.0
C332 C 0.57302 0.62997 0.52553 0.0
C333 C 0.47582 0.51393 0.57618 0.0
N334 N 0.67715 0.57319 0.51175 0.0
N335 N 0.35745 0.557 0.57969 0.0
H336 H 0.46406 0.43094 0.61678 0.0
H337 H 0.38794 0.47024 0.62527 0.0
H338 H 0.33966 0.60247 0.5825 0.0
H339 H 0.3109 0.50813 0.59196 0.0
H340 H 0.70793 0.60877 0.48873 0.0
H341 H 0.70477 0.53508 0.51686 0.0
H342 H 0.70102 0.71246 0.50895 0.0
H343 H 0.61921 0.74657 0.51726 0.0
C344 C 0.10107 0.52684 1.01855 0.0
C345 C 0.13254 0.51989 0.05728 0.0
C346 C 0.97093 0.4497 0.07415 0.0
C347 C 0.94456 0.47127 0.03742 0.0
N348 N 0.99957 0.57086 0.99106 0.0
N349 N 0.09205 0.46358 0.12177 0.0
C350 C 1.01421 0.52278 1.01477 0.0
C351 C 0.06587 0.47787 0.08523 0.0
N352 N 0.15249 0.53559 0.98495 0.0
N353 N 0.90677 0.40411 0.0989 0.0
H354 H 0.15633 0.46707 0.12733 0.0
H355 H 0.04912 0.4458 0.14612 0.0
H356 H 0.83989 0.39643 0.09775 0.0
H357 H 0.92053 0.37574 0.12154 0.0
H358 H 0.12925 0.54008 0.95615 0.0
H359 H 0.211 0.52682 0.98528 0.0
H360 H 0.05067 0.60898 0.9741 0.0
H361 H 0.94166 0.58037 0.99397 0.0
C362 C 0.61995 0.02937 0.55049 0.0
C363 C 0.57297 0.0758 0.5465 0.0
C364 C 0.46364 0.97553 0.49855 0.0
C365 C 0.50736 0.92769 0.50296 0.0
N366 N 0.61325 0.90153 0.54218 0.0
N367 N 0.4231 0.06515 0.53791 0.0
C368 C 0.58212 0.95257 0.53138 0.0
C369 C 0.48723 0.04142 0.52614 0.0
N370 N 0.69796 0.05627 0.57362 0.0
N371 N 0.39703 0.95711 0.46926 0.0
H372 H 0.43456 0.10389 0.56371 0.0
H373 H 0.35644 0.03789 0.52641 0.0
H374 H 0.37735 0.90874 0.44842 0.0
H375 H 0.36726 0.99372 0.46403 0.0
H376 H 0.74299 0.03118 0.5717 0.0
H377 H 0.71535 0.10168 0.59593 0.0
H378 H 0.66107 0.91329 0.56573 0.0
H379 H 0.58498 0.84485 0.52985 0.0
loop_
_geom_bond_atom_site_label_1
_geom_bond_atom_site_label_2
_geom_bond_distance
_geom_bond_site_symmetry_2
_ccdc_geom_bond_type
Co0 O2 2.143 . S
Co0 O8 2.074 . S
Co0 O11 2.093 . S
Co0 O24 2.097 . S
Co0 N41 2.151 . S
Co0 N49 2.214 1_554 S
Co1 O2 2.160 . S
Co1 O7 2.058 . S
Co1 O17 2.057 . S
Co1 O32 2.037 . S
Co1 N36 2.145 . S
Co1 N57 2.257 . S
O2 Co0 2.143 . S
O2 Co1 2.160 . S
C3 O4 1.278 . S
C3 O11 1.224 . S
O4 C3 1.278 . S
C5 O6 1.245 . S
C5 O17 1.232 . S
O6 C5 1.245 . S
O7 Co1 2.058 . S
O7 C33 1.269 . S
O8 Co0 2.074 . S
O8 C33 1.257 . S
H9 C34 0.930 . S
H10 C40 0.930 . S
O11 Co0 2.093 . S
O11 C3 1.224 . S
H12 C44 0.929 1_556 S
H13 C46 0.930 . S
H14 C47 0.930 . S
H15 C45 0.929 1_556 S
H16 C48 0.928 . S
O17 Co1 2.057 . S
O17 C5 1.232 . S
H18 C37 0.929 . S
H19 C38 0.929 . S
H20 C50 0.931 . S
H21 C42 0.929 . S
H22 C51 0.930 . S
H23 C43 0.931 . S
O24 Co0 2.097 . S
O24 C52 1.214 . S
H25 C53 0.929 . S
H26 C54 0.929 . S
H27 C55 0.930 . S
H28 C56 0.929 . S
H29 C58 0.930 . S
H30 C35 0.930 . S
H31 C39 0.930 . S
O32 Co1 2.037 . S
O32 C52 1.234 . S
C33 O7 1.269 . S
C33 O8 1.257 . S
C34 H9 0.930 . S
C34 C37 1.388 . S
C34 C39 1.418 . S
C35 H30 0.930 . S
C35 C38 1.404 . S
C35 C39 1.353 . S
N36 Co1 2.145 . S
N36 C37 1.397 . S
N36 C38 1.334 . S
C37 H18 0.929 . S
C37 C34 1.388 . S
C37 N36 1.397 . S
C38 H19 0.929 . S
C38 C35 1.404 . S
C38 N36 1.334 . S
C39 H31 0.930 . S
C39 C34 1.418 . S
C39 C35 1.353 . S
C40 H10 0.930 . S
C40 N41 1.330 . S
C40 C42 1.446 . S
N41 Co0 2.151 . S
N41 C40 1.330 . S
N41 C45 1.418 . S
C42 H21 0.929 . S
C42 C40 1.446 . S
C42 C43 1.332 . S
C43 H23 0.931 . S
C43 C42 1.332 . S
C43 C44 1.267 . S
C44 H12 0.929 1_554 S
C44 C43 1.267 . S
C44 C45 1.251 . S
C45 H15 0.929 1_554 S
C45 N41 1.418 . S
C45 C44 1.251 . S
C46 H13 0.930 . S
C46 C48 1.406 . S
C46 C51 1.261 . S
C47 H14 0.930 . S
C47 N49 1.325 . S
C47 C50 1.357 . S
C48 H16 0.928 . S
C48 C46 1.406 . S
C48 N49 1.261 . S
N49 Co0 2.214 1_556 S
N49 C47 1.325 . S
N49 C48 1.261 . S
C50 H20 0.931 . S
C50 C47 1.357 . S
C50 C51 1.312 . S
C51 H22 0.930 . S
C51 C46 1.261 . S
C51 C50 1.312 . S
C52 O24 1.214 . S
C52 O32 1.234 . S
C53 H25 0.929 . S
C53 C56 1.391 . S
C53 C58 1.391 . S
C54 H26 0.929 . S
C54 C55 1.390 . S
C54 N57 1.391 . S
C55 H27 0.930 . S
C55 C54 1.390 . S
C55 C56 1.392 . S
C56 H28 0.929 . S
C56 C53 1.391 . S
C56 C55 1.392 . S
N57 Co1 2.257 . S
N57 C54 1.391 . S
N57 C58 1.388 . S
C58 H29 0.930 . S
C58 C53 1.391 . S
C58 N57 1.388 . S
Co59 O61 2.143 . S
Co59 O67 2.074 . S
Co59 O70 2.093 . S
Co59 O83 2.097 . S
Co59 N100 2.151 . S
Co59 N108 2.214 . S
Co60 O61 2.160 . S
Co60 O66 2.058 . S
Co60 O76 2.057 . S
Co60 O91 2.037 . S
Co60 N95 2.145 . S
Co60 N116 2.257 . S
O61 Co59 2.143 . S
O61 Co60 2.160 . S
C62 O63 1.278 . S
C62 O70 1.224 . S
O63 C62 1.278 . S
C64 O65 1.245 . S
C64 O76 1.232 . S
O65 C64 1.245 . S
O66 Co60 2.058 . S
O66 C92 1.269 . S
O67 Co59 2.074 . S
O67 C92 1.257 . S
H68 C93 0.930 . S
H69 C99 0.930 . S
O70 Co59 2.093 . S
O70 C62 1.224 . S
H71 C103 0.929 . S
H72 C105 0.930 . S
H73 C106 0.930 . S
H74 C104 0.929 . S
H75 C107 0.928 . S
O76 Co60 2.057 . S
O76 C64 1.232 . S
H77 C96 0.929 . S
H78 C97 0.929 . S
H79 C109 0.931 . S
H80 C101 0.929 . S
H81 C110 0.930 . S
H82 C102 0.931 . S
O83 Co59 2.097 . S
O83 C111 1.214 . S
H84 C112 0.929 . S
H85 C113 0.929 . S
H86 C114 0.930 . S
H87 C115 0.929 . S
H88 C117 0.930 . S
H89 C94 0.930 . S
H90 C98 0.930 1_455 S
O91 Co60 2.037 . S
O91 C111 1.234 . S
C92 O66 1.269 . S
C92 O67 1.257 . S
C93 H68 0.930 . S
C93 C96 1.388 . S
C93 C98 1.418 . S
C94 H89 0.930 . S
C94 C97 1.404 . S
C94 C98 1.353 . S
N95 Co60 2.145 . S
N95 C96 1.397 . S
N95 C97 1.334 . S
C96 H77 0.929 . S
C96 C93 1.388 . S
C96 N95 1.397 . S
C97 H78 0.929 . S
C97 C94 1.404 . S
C97 N95 1.334 . S
C98 H90 0.930 1_655 S
C98 C93 1.418 . S
C98 C94 1.353 . S
C99 H69 0.930 . S
C99 N100 1.330 . S
C99 C101 1.446 . S
N100 Co59 2.151 . S
N100 C99 1.330 . S
N100 C104 1.418 . S
C101 H80 0.929 . S
C101 C99 1.446 . S
C101 C102 1.332 . S
C102 H82 0.931 . S
C102 C101 1.332 . S
C102 C103 1.267 . S
C103 H71 0.929 . S
C103 C102 1.267 . S
C103 C104 1.251 . S
C104 H74 0.929 . S
C104 N100 1.418 . S
C104 C103 1.251 . S
C105 H72 0.930 . S
C105 C107 1.406 . S
C105 C110 1.261 . S
C106 H73 0.930 . S
C106 N108 1.325 . S
C106 C109 1.357 . S
C107 H75 0.928 . S
C107 C105 1.406 . S
C107 N108 1.261 . S
N108 Co59 2.214 . S
N108 C106 1.325 . S
N108 C107 1.261 . S
C109 H79 0.931 . S
C109 C106 1.357 . S
C109 C110 1.312 . S
C110 H81 0.930 . S
C110 C105 1.261 . S
C110 C109 1.312 . S
C111 O83 1.214 . S
C111 O91 1.234 . S
C112 H84 0.929 . S
C112 C115 1.391 . S
C112 C117 1.391 . S
C113 H85 0.929 . S
C113 C114 1.390 . S
C113 N116 1.391 . S
C114 H86 0.930 . S
C114 C113 1.390 . S
C114 C115 1.392 . S
C115 H87 0.929 . S
C115 C112 1.391 . S
C115 C114 1.392 . S
N116 Co60 2.257 . S
N116 C113 1.391 . S
N116 C117 1.388 . S
C117 H88 0.930 . S
C117 C112 1.391 . S
C117 N116 1.388 . S
Co118 O120 2.143 . S
Co118 O126 2.074 . S
Co118 O129 2.093 . S
Co118 O142 2.097 . S
Co118 N159 2.151 . S
Co118 N167 2.214 . S
Co119 O120 2.160 . S
Co119 O125 2.058 . S
Co119 O135 2.057 . S
Co119 O150 2.037 . S
Co119 N154 2.145 . S
Co119 N175 2.257 . S
O120 Co118 2.143 . S
O120 Co119 2.160 . S
C121 O122 1.278 . S
C121 O129 1.224 . S
O122 C121 1.278 . S
C123 O124 1.245 . S
C123 O135 1.232 . S
O124 C123 1.245 . S
O125 Co119 2.058 . S
O125 C151 1.269 . S
O126 Co118 2.074 . S
O126 C151 1.257 . S
H127 C152 0.930 . S
H128 C158 0.930 . S
O129 Co118 2.093 . S
O129 C121 1.224 . S
H130 C162 0.929 . S
H131 C164 0.930 . S
H132 C165 0.930 . S
H133 C163 0.929 . S
H134 C166 0.928 . S
O135 Co119 2.057 . S
O135 C123 1.232 . S
H136 C155 0.929 . S
H137 C156 0.929 . S
H138 C168 0.931 . S
H139 C160 0.929 . S
H140 C169 0.930 . S
H141 C161 0.931 . S
O142 Co118 2.097 . S
O142 C170 1.214 . S
H143 C171 0.929 . S
H144 C172 0.929 . S
H145 C173 0.930 . S
H146 C174 0.929 . S
H147 C176 0.930 . S
H148 C153 0.930 . S
H149 C157 0.930 . S
O150 Co119 2.037 . S
O150 C170 1.234 . S
C151 O125 1.269 . S
C151 O126 1.257 . S
C152 H127 0.930 . S
C152 C155 1.388 . S
C152 C157 1.418 . S
C153 H148 0.930 . S
C153 C156 1.404 . S
C153 C157 1.353 . S
N154 Co119 2.145 . S
N154 C155 1.397 . S
N154 C156 1.334 . S
C155 H136 0.929 . S
C155 C152 1.388 . S
C155 N154 1.397 . S
C156 H137 0.929 . S
C156 C153 1.404 . S
C156 N154 1.334 . S
C157 H149 0.930 . S
C157 C152 1.418 . S
C157 C153 1.353 . S
C158 H128 0.930 . S
C158 N159 1.330 . S
C158 C160 1.446 . S
N159 Co118 2.151 . S
N159 C158 1.330 . S
N159 C163 1.418 . S
C160 H139 0.929 . S
C160 C158 1.446 . S
C160 C161 1.332 . S
C161 H141 0.931 . S
C161 C160 1.332 . S
C161 C162 1.267 . S
C162 H130 0.929 . S
C162 C161 1.267 . S
C162 C163 1.251 . S
C163 H133 0.929 . S
C163 N159 1.418 . S
C163 C162 1.251 . S
C164 H131 0.930 . S
C164 C166 1.406 . S
C164 C169 1.261 . S
C165 H132 0.930 . S
C165 N167 1.325 . S
C165 C168 1.357 . S
C166 H134 0.928 . S
C166 C164 1.406 . S
C166 N167 1.261 . S
N167 Co118 2.214 . S
N167 C165 1.325 . S
N167 C166 1.261 . S
C168 H138 0.931 . S
C168 C165 1.357 . S
C168 C169 1.312 . S
C169 H140 0.930 . S
C169 C164 1.261 . S
C169 C168 1.312 . S
C170 O142 1.214 . S
C170 O150 1.234 . S
C171 H143 0.929 . S
C171 C174 1.391 . S
C171 C176 1.391 . S
C172 H144 0.929 . S
C172 C173 1.390 . S
C172 N175 1.391 . S
C173 H145 0.930 . S
C173 C172 1.390 . S
C173 C174 1.392 . S
C174 H146 0.929 . S
C174 C171 1.391 . S
C174 C173 1.392 . S
N175 Co119 2.257 . S
N175 C172 1.391 . S
N175 C176 1.388 . S
C176 H147 0.930 . S
C176 C171 1.391 . S
C176 N175 1.388 . S
Co177 O179 2.143 . S
Co177 O185 2.074 . S
Co177 O188 2.093 . S
Co177 O201 2.097 . S
Co177 N218 2.151 . S
Co177 N226 2.214 1_556 S
Co178 O179 2.160 . S
Co178 O184 2.058 . S
Co178 O194 2.057 . S
Co178 O209 2.037 . S
Co178 N213 2.145 . S
Co178 N234 2.257 . S
O179 Co177 2.143 . S
O179 Co178 2.160 . S
C180 O181 1.278 . S
C180 O188 1.224 . S
O181 C180 1.278 . S
C182 O183 1.245 . S
C182 O194 1.232 . S
O183 C182 1.245 . S
O184 Co178 2.058 . S
O184 C210 1.269 . S
O185 Co177 2.074 . S
O185 C210 1.257 . S
H186 C211 0.930 . S
H187 C217 0.930 . S
O188 Co177 2.093 . S
O188 C180 1.224 . S
H189 C221 0.929 1_554 S
H190 C223 0.930 . S
H191 C224 0.930 . S
H192 C222 0.929 1_554 S
H193 C225 0.928 . S
O194 Co178 2.057 . S
O194 C182 1.232 . S
H195 C214 0.929 . S
H196 C215 0.929 . S
H197 C227 0.931 . S
H198 C219 0.929 . S
H199 C228 0.930 . S
H200 C220 0.931 . S
O201 Co177 2.097 . S
O201 C229 1.214 . S
H202 C230 0.929 . S
H203 C231 0.929 . S
H204 C232 0.930 1_455 S
H205 C233 0.929 . S
H206 C235 0.930 . S
H207 C212 0.930 . S
H208 C216 0.930 . S
O209 Co178 2.037 . S
O209 C229 1.234 . S
C210 O184 1.269 . S
C210 O185 1.257 . S
C211 H186 0.930 . S
C211 C214 1.388 . S
C211 C216 1.418 . S
C212 H207 0.930 . S
C212 C215 1.404 . S
C212 C216 1.353 . S
N213 Co178 2.145 . S
N213 C214 1.397 . S
N213 C215 1.334 . S
C214 H195 0.929 . S
C214 C211 1.388 . S
C214 N213 1.397 . S
C215 H196 0.929 . S
C215 C212 1.404 . S
C215 N213 1.334 . S
C216 H208 0.930 . S
C216 C211 1.418 . S
C216 C212 1.353 . S
C217 H187 0.930 . S
C217 N218 1.330 . S
C217 C219 1.446 . S
N218 Co177 2.151 . S
N218 C217 1.330 . S
N218 C222 1.418 . S
C219 H198 0.929 . S
C219 C217 1.446 . S
C219 C220 1.332 . S
C220 H200 0.931 . S
C220 C219 1.332 . S
C220 C221 1.267 . S
C221 H189 0.929 1_556 S
C221 C220 1.267 . S
C221 C222 1.251 . S
C222 H192 0.929 1_556 S
C222 N218 1.418 . S
C222 C221 1.251 . S
C223 H190 0.930 . S
C223 C225 1.406 . S
C223 C228 1.261 . S
C224 H191 0.930 . S
C224 N226 1.325 . S
C224 C227 1.357 . S
C225 H193 0.928 . S
C225 C223 1.406 . S
C225 N226 1.261 . S
N226 Co177 2.214 1_554 S
N226 C224 1.325 . S
N226 C225 1.261 . S
C227 H197 0.931 . S
C227 C224 1.357 . S
C227 C228 1.312 . S
C228 H199 0.930 . S
C228 C223 1.261 . S
C228 C227 1.312 . S
C229 O201 1.214 . S
C229 O209 1.234 . S
C230 H202 0.929 . S
C230 C233 1.391 . S
C230 C235 1.391 . S
C231 H203 0.929 . S
C231 C232 1.390 . S
C231 N234 1.391 . S
C232 H204 0.930 1_655 S
C232 C231 1.390 . S
C232 C233 1.392 . S
C233 H205 0.929 . S
C233 C230 1.391 . S
C233 C232 1.392 . S
N234 Co178 2.257 . S
N234 C231 1.391 . S
N234 C235 1.388 . S
C235 H206 0.930 . S
C235 C230 1.391 . S
C235 N234 1.388 . S
C236 C237 1.363 . S
C236 C242 1.379 . S
C236 N244 1.356 . S
C237 C236 1.363 . S
C237 C243 1.363 . S
C238 C239 1.363 . S
C238 C243 1.379 . S
C238 N245 1.356 . S
C239 C238 1.363 . S
C239 C242 1.363 . S
N240 C242 1.356 . S
N240 H252 0.984 . S
N240 H253 0.985 . S
N241 C243 1.356 . S
N241 H246 0.984 . S
N241 H247 0.985 . S
C242 C236 1.379 . S
C242 C239 1.363 . S
C242 N240 1.356 . S
C243 C237 1.363 . S
C243 C238 1.379 . S
C243 N241 1.356 . S
N244 C236 1.356 . S
N244 H250 0.984 . S
N244 H251 0.984 . S
N245 C238 1.356 . S
N245 H248 0.984 . S
N245 H249 0.985 . S
H246 N241 0.984 . S
H247 N241 0.985 . S
H248 N245 0.984 . S
H249 N245 0.985 . S
H250 N244 0.984 . S
H251 N244 0.984 . S
H252 N240 0.984 . S
H253 N240 0.985 . S
C254 C255 1.363 . S
C254 C260 1.379 . S
C254 N262 1.356 . S
C255 C254 1.363 . S
C255 C261 1.363 . S
C256 C257 1.363 . S
C256 C261 1.379 . S
C256 N263 1.356 . S
C257 C256 1.363 . S
C257 C260 1.363 . S
N258 C260 1.356 . S
N258 H270 0.984 . S
N258 H271 0.985 . S
N259 C261 1.356 . S
N259 H264 0.984 . S
N259 H265 0.985 . S
C260 C254 1.379 . S
C260 C257 1.363 . S
C260 N258 1.356 . S
C261 C255 1.363 . S
C261 C256 1.379 . S
C261 N259 1.356 . S
N262 C254 1.356 . S
N262 H268 0.984 . S
N262 H269 0.984 . S
N263 C256 1.356 . S
N263 H266 0.984 . S
N263 H267 0.985 . S
H264 N259 0.984 . S
H265 N259 0.985 . S
H266 N263 0.984 . S
H267 N263 0.985 . S
H268 N262 0.984 . S
H269 N262 0.984 . S
H270 N258 0.984 . S
H271 N258 0.985 . S
C272 C273 1.363 . S
C272 C278 1.379 . S
C272 N280 1.356 . S
C273 C272 1.363 . S
C273 C279 1.363 1_556 S
C274 C275 1.363 1_554 S
C274 C279 1.379 . S
C274 N281 1.356 . S
C275 C274 1.363 1_556 S
C275 C278 1.363 . S
N276 C278 1.356 . S
N276 H288 0.984 . S
N276 H289 0.985 . S
N277 C279 1.356 . S
N277 H282 0.984 . S
N277 H283 0.985 . S
C278 C272 1.379 . S
C278 C275 1.363 . S
C278 N276 1.356 . S
C279 C273 1.363 1_554 S
C279 C274 1.379 . S
C279 N277 1.356 . S
N280 C272 1.356 . S
N280 H286 0.984 . S
N280 H287 0.984 . S
N281 C274 1.356 . S
N281 H284 0.984 . S
N281 H285 0.985 . S
H282 N277 0.984 . S
H283 N277 0.985 . S
H284 N281 0.984 . S
H285 N281 0.985 . S
H286 N280 0.984 . S
H287 N280 0.984 . S
H288 N276 0.984 . S
H289 N276 0.985 . S
C290 C291 1.363 1_655 S
C290 C296 1.379 . S
C290 N298 1.356 . S
C291 C290 1.363 1_455 S
C291 C297 1.363 . S
C292 C293 1.363 . S
C292 C297 1.379 1_655 S
C292 N299 1.356 . S
C293 C292 1.363 . S
C293 C296 1.363 . S
N294 C296 1.356 . S
N294 H306 0.984 . S
N294 H307 0.985 . S
N295 C297 1.356 . S
N295 H300 0.984 . S
N295 H301 0.985 . S
C296 C290 1.379 . S
C296 C293 1.363 . S
C296 N294 1.356 . S
C297 C291 1.363 . S
C297 C292 1.379 1_455 S
C297 N295 1.356 . S
N298 C290 1.356 . S
N298 H304 0.984 . S
N298 H305 0.984 1_655 S
N299 C292 1.356 . S
N299 H302 0.984 . S
N299 H303 0.985 . S
H300 N295 0.984 . S
H301 N295 0.985 . S
H302 N299 0.984 . S
H303 N299 0.985 . S
H304 N298 0.984 . S
H305 N298 0.984 1_455 S
H306 N294 0.984 . S
H307 N294 0.985 . S
C308 C309 1.363 . S
C308 C314 1.379 1_546 S
C308 N316 1.356 . S
C309 C308 1.363 . S
C309 C315 1.363 . S
C310 C311 1.363 . S
C310 C315 1.379 1_564 S
C310 N317 1.356 . S
C311 C310 1.363 . S
C311 C314 1.363 . S
N312 C314 1.356 . S
N312 H324 0.984 . S
N312 H325 0.985 . S
N313 C315 1.356 . S
N313 H318 0.984 . S
N313 H319 0.985 . S
C314 C308 1.379 1_564 S
C314 C311 1.363 . S
C314 N312 1.356 . S
C315 C309 1.363 . S
C315 C310 1.379 1_546 S
C315 N313 1.356 . S
N316 C308 1.356 . S
N316 H322 0.981 1_556 S
N316 H323 0.984 . S
N317 C310 1.356 . S
N317 H320 0.984 . S
N317 H321 0.981 1_554 S
H318 N313 0.984 . S
H319 N313 0.985 . S
H320 N317 0.984 . S
H321 N317 0.981 1_556 S
H322 N316 0.981 1_554 S
H323 N316 0.984 . S
H324 N312 0.984 . S
H325 N312 0.985 . S
C326 C327 1.363 . S
C326 C332 1.379 . S
C326 N334 1.356 . S
C327 C326 1.363 . S
C327 C333 1.363 . S
C328 C329 1.363 . S
C328 C333 1.379 . S
C328 N335 1.356 . S
C329 C328 1.363 . S
C329 C332 1.363 . S
N330 C332 1.356 . S
N330 H342 0.984 . S
N330 H343 0.985 . S
N331 C333 1.356 . S
N331 H336 0.984 . S
N331 H337 0.985 . S
C332 C326 1.379 . S
C332 C329 1.363 . S
C332 N330 1.356 . S
C333 C327 1.363 . S
C333 C328 1.379 . S
C333 N331 1.356 . S
N334 C326 1.356 . S
N334 H340 0.984 . S
N334 H341 0.984 . S
N335 C328 1.356 . S
N335 H338 0.984 . S
N335 H339 0.985 . S
H336 N331 0.984 . S
H337 N331 0.985 . S
H338 N335 0.984 . S
H339 N335 0.985 . S
H340 N334 0.984 . S
H341 N334 0.984 . S
H342 N330 0.984 . S
H343 N330 0.985 . S
C344 C345 1.363 . S
C344 C350 1.379 1_454 S
C344 N352 1.356 1_554 S
C345 C344 1.363 . S
C345 C351 1.363 . S
C346 C347 1.363 . S
C346 C351 1.379 1_655 S
C346 N353 1.356 . S
C347 C346 1.363 . S
C347 C350 1.363 1_554 S
N348 C350 1.356 . S
N348 H360 0.984 . S
N348 H361 0.985 . S
N349 C351 1.356 . S
N349 H354 0.984 . S
N349 H355 0.985 . S
C350 C344 1.379 1_656 S
C350 C347 1.363 1_556 S
C350 N348 1.356 . S
C351 C345 1.363 . S
C351 C346 1.379 1_455 S
C351 N349 1.356 . S
N352 C344 1.356 1_556 S
N352 H358 0.984 . S
N352 H359 0.984 1_556 S
N353 C346 1.356 . S
N353 H356 0.984 . S
N353 H357 0.985 . S
H354 N349 0.984 . S
H355 N349 0.985 . S
H356 N353 0.984 . S
H357 N353 0.985 . S
H358 N352 0.984 . S
H359 N352 0.984 1_554 S
H360 N348 0.984 . S
H361 N348 0.985 . S
C362 C363 1.363 . S
C362 C368 1.379 1_545 S
C362 N370 1.356 . S
C363 C362 1.363 . S
C363 C369 1.363 . S
C364 C365 1.363 . S
C364 C369 1.379 1_565 S
C364 N371 1.356 . S
C365 C364 1.363 . S
C365 C368 1.363 . S
N366 C368 1.356 . S
N366 H378 0.984 . S
N366 H379 0.985 . S
N367 C369 1.356 . S
N367 H372 0.984 . S
N367 H373 0.985 . S
C368 C362 1.379 1_565 S
C368 C365 1.363 . S
C368 N366 1.356 . S
C369 C363 1.363 . S
C369 C364 1.379 1_545 S
C369 N367 1.356 . S
N370 C362 1.356 . S
N370 H376 0.984 . S
N370 H377 0.984 . S
N371 C364 1.356 . S
N371 H374 0.984 . S
N371 H375 0.985 . S
H372 N367 0.984 . S
H373 N367 0.985 . S
H374 N371 0.984 . S
H375 N371 0.985 . S
H376 N370 0.984 . S
H377 N370 0.984 . S
H378 N366 0.984 . S
H379 N366 0.985 . S
C237 C5 1.613 . S
C239 C123 1.616 . S
C255 C64 1.616 . S
C257 C182 1.613 . S
C273 C52 1.708 1_556 S
C275 C210 1.724 . S
C291 C121 1.535 . S
C293 C111 1.519 . S
C309 C180 1.414 . S
C311 C3 1.414 . S
C327 C62 1.535 . S
C329 C170 1.519 . S
C345 C33 1.724 . S
C347 C229 1.708 1_554 S
C363 C92 1.896 . S
C365 C151 1.896 . S
