# Generated by pormake.
# Topology ukr, (4)-cn, num edge types: 1
# Building blocks:
#     Node 0, Type 0, BuildingBlock: AZAVOO_clean_sbu_0, # of connection points: 4
#     Node 1, Type 0, BuildingBlock: AZAVOO_clean_sbu_0, # of connection points: 4
#     Node 2, Type 0, BuildingBlock: AZAVOO_clean_sbu_0, # of connection points: 4
#     Node 3, Type 0, BuildingBlock: AZAVOO_clean_sbu_0, # of connection points: 4
#     Node 4, Type 0, BuildingBlock: AZAVOO_clean_sbu_0, # of connection points: 4
#     Node 5, Type 0, BuildingBlock: AZAVOO_clean_sbu_0, # of connection points: 4
#     Node 6, Type 0, BuildingBlock: AZAVOO_clean_sbu_0, # of connection points: 4
#     Node 7, Type 0, BuildingBlock: AZAVOO_clean_sbu_0, # of connection points: 4
#     Node 8, Type 0, BuildingBlock: AZAVOO_clean_sbu_0, # of connection points: 4
#     Node 9, Type 0, BuildingBlock: AZAVOO_clean_sbu_0, # of connection points: 4
#     Node 10, Type 0, BuildingBlock: AZAVOO_clean_sbu_0, # of connection points: 4
#     Node 11, Type 0, BuildingBlock: AZAVOO_clean_sbu_0, # of connection points: 4
#     Node 12, Type 0, BuildingBlock: AZAVOO_clean_sbu_0, # of connection points: 4
#     Node 13, Type 0, BuildingBlock: AZAVOO_clean_sbu_0, # of connection points: 4
#     Node 14, Type 0, BuildingBlock: AZAVOO_clean_sbu_0, # of connection points: 4
#     Node 15, Type 0, BuildingBlock: AZAVOO_clean_sbu_0, # of connection points: 4
#     Node 16, Type 0, BuildingBlock: AZAVOO_clean_sbu_0, # of connection points: 4
#     Node 17, Type 0, BuildingBlock: AZAVOO_clean_sbu_0, # of connection points: 4
#     Node 18, Type 0, BuildingBlock: AZAVOO_clean_sbu_0, # of connection points: 4
#     Node 19, Type 0, BuildingBlock: AZAVOO_clean_sbu_0, # of connection points: 4
#     Node 20, Type 0, BuildingBlock: AZAVOO_clean_sbu_0, # of connection points: 4
#     Node 21, Type 0, BuildingBlock: AZAVOO_clean_sbu_0, # of connection points: 4
#     Node 22, Type 0, BuildingBlock: AZAVOO_clean_sbu_0, # of connection points: 4
#     Node 23, Type 0, BuildingBlock: AZAVOO_clean_sbu_0, # of connection points: 4
#     Node 24, Type 0, BuildingBlock: AZAVOO_clean_sbu_0, # of connection points: 4
#     Node 25, Type 0, BuildingBlock: AZAVOO_clean_sbu_0, # of connection points: 4
#     Node 26, Type 0, BuildingBlock: AZAVOO_clean_sbu_0, # of connection points: 4
#     Node 27, Type 0, BuildingBlock: AZAVOO_clean_sbu_0, # of connection points: 4
#     Node 28, Type 0, BuildingBlock: AZAVOO_clean_sbu_0, # of connection points: 4
#     Node 29, Type 0, BuildingBlock: AZAVOO_clean_sbu_0, # of connection points: 4
#     Node 30, Type 0, BuildingBlock: AZAVOO_clean_sbu_0, # of connection points: 4
#     Node 31, Type 0, BuildingBlock: AZAVOO_clean_sbu_0, # of connection points: 4
#     Node 32, Type 0, BuildingBlock: AZAVOO_clean_sbu_0, # of connection points: 4
#     Node 33, Type 0, BuildingBlock: AZAVOO_clean_sbu_0, # of connection points: 4
#     Node 34, Type 0, BuildingBlock: AZAVOO_clean_sbu_0, # of connection points: 4
#     Node 35, Type 0, BuildingBlock: AZAVOO_clean_sbu_0, # of connection points: 4
#     Node 36, Type 0, BuildingBlock: AZAVOO_clean_sbu_0, # of connection points: 4
#     Node 37, Type 0, BuildingBlock: AZAVOO_clean_sbu_0, # of connection points: 4
#     Node 38, Type 0, BuildingBlock: AZAVOO_clean_sbu_0, # of connection points: 4
#     Node 39, Type 0, BuildingBlock: AZAVOO_clean_sbu_0, # of connection points: 4
#     Node 40, Type 0, BuildingBlock: AZAVOO_clean_sbu_0, # of connection points: 4
#     Node 41, Type 0, BuildingBlock: AZAVOO_clean_sbu_0, # of connection points: 4
#     Node 42, Type 0, BuildingBlock: AZAVOO_clean_sbu_0, # of connection points: 4
#     Node 43, Type 0, BuildingBlock: AZAVOO_clean_sbu_0, # of connection points: 4
#     Node 44, Type 0, BuildingBlock: AZAVOO_clean_sbu_0, # of connection points: 4
#     Node 45, Type 0, BuildingBlock: AZAVOO_clean_sbu_0, # of connection points: 4
#     Node 46, Type 0, BuildingBlock: AZAVOO_clean_sbu_0, # of connection points: 4
#     Node 47, Type 0, BuildingBlock: AZAVOO_clean_sbu_0, # of connection points: 4
#     Edge 48, Type (0, 0), BuildingBlock: OJICUG_clean_linker_0, # of connection points: 2
#     Edge 49, Type (0, 0), BuildingBlock: OJICUG_clean_linker_0, # of connection points: 2
#     Edge 50, Type (0, 0), BuildingBlock: OJICUG_clean_linker_0, # of connection points: 2
#     Edge 51, Type (0, 0), BuildingBlock: OJICUG_clean_linker_0, # of connection points: 2
#     Edge 52, Type (0, 0), BuildingBlock: OJICUG_clean_linker_0, # of connection points: 2
#     Edge 53, Type (0, 0), BuildingBlock: OJICUG_clean_linker_0, # of connection points: 2
#     Edge 54, Type (0, 0), BuildingBlock: OJICUG_clean_linker_0, # of connection points: 2
#     Edge 55, Type (0, 0), BuildingBlock: OJICUG_clean_linker_0, # of connection points: 2
#     Edge 56, Type (0, 0), BuildingBlock: OJICUG_clean_linker_0, # of connection points: 2
#     Edge 57, Type (0, 0), BuildingBlock: OJICUG_clean_linker_0, # of connection points: 2
#     Edge 58, Type (0, 0), BuildingBlock: OJICUG_clean_linker_0, # of connection points: 2
#     Edge 59, Type (0, 0), BuildingBlock: OJICUG_clean_linker_0, # of connection points: 2
#     Edge 60, Type (0, 0), BuildingBlock: OJICUG_clean_linker_0, # of connection points: 2
#     Edge 61, Type (0, 0), BuildingBlock: OJICUG_clean_linker_0, # of connection points: 2
#     Edge 62, Type (0, 0), BuildingBlock: OJICUG_clean_linker_0, # of connection points: 2
#     Edge 63, Type (0, 0), BuildingBlock: OJICUG_clean_linker_0, # of connection points: 2
#     Edge 64, Type (0, 0), BuildingBlock: OJICUG_clean_linker_0, # of connection points: 2
#     Edge 65, Type (0, 0), BuildingBlock: OJICUG_clean_linker_0, # of connection points: 2
#     Edge 66, Type (0, 0), BuildingBlock: OJICUG_clean_linker_0, # of connection points: 2
#     Edge 67, Type (0, 0), BuildingBlock: OJICUG_clean_linker_0, # of connection points: 2
#     Edge 68, Type (0, 0), BuildingBlock: OJICUG_clean_linker_0, # of connection points: 2
#     Edge 69, Type (0, 0), BuildingBlock: OJICUG_clean_linker_0, # of connection points: 2
#     Edge 70, Type (0, 0), BuildingBlock: OJICUG_clean_linker_0, # of connection points: 2
#     Edge 71, Type (0, 0), BuildingBlock: OJICUG_clean_linker_0, # of connection points: 2
#     Edge 72, Type (0, 0), BuildingBlock: OJICUG_clean_linker_0, # of connection points: 2
#     Edge 73, Type (0, 0), BuildingBlock: OJICUG_clean_linker_0, # of connection points: 2
#     Edge 74, Type (0, 0), BuildingBlock: OJICUG_clean_linker_0, # of connection points: 2
#     Edge 75, Type (0, 0), BuildingBlock: OJICUG_clean_linker_0, # of connection points: 2
#     Edge 76, Type (0, 0), BuildingBlock: OJICUG_clean_linker_0, # of connection points: 2
#     Edge 77, Type (0, 0), BuildingBlock: OJICUG_clean_linker_0, # of connection points: 2
#     Edge 78, Type (0, 0), BuildingBlock: OJICUG_clean_linker_0, # of connection points: 2
#     Edge 79, Type (0, 0), BuildingBlock: OJICUG_clean_linker_0, # of connection points: 2
#     Edge 80, Type (0, 0), BuildingBlock: OJICUG_clean_linker_0, # of connection points: 2
#     Edge 81, Type (0, 0), BuildingBlock: OJICUG_clean_linker_0, # of connection points: 2
#     Edge 82, Type (0, 0), BuildingBlock: OJICUG_clean_linker_0, # of connection points: 2
#     Edge 83, Type (0, 0), BuildingBlock: OJICUG_clean_linker_0, # of connection points: 2
#     Edge 84, Type (0, 0), BuildingBlock: OJICUG_clean_linker_0, # of connection points: 2
#     Edge 85, Type (0, 0), BuildingBlock: OJICUG_clean_linker_0, # of connection points: 2
#     Edge 86, Type (0, 0), BuildingBlock: OJICUG_clean_linker_0, # of connection points: 2
#     Edge 87, Type (0, 0), BuildingBlock: OJICUG_clean_linker_0, # of connection points: 2
#     Edge 88, Type (0, 0), BuildingBlock: OJICUG_clean_linker_0, # of connection points: 2
#     Edge 89, Type (0, 0), BuildingBlock: OJICUG_clean_linker_0, # of connection points: 2
#     Edge 90, Type (0, 0), BuildingBlock: OJICUG_clean_linker_0, # of connection points: 2
#     Edge 91, Type (0, 0), BuildingBlock: OJICUG_clean_linker_0, # of connection points: 2
#     Edge 92, Type (0, 0), BuildingBlock: OJICUG_clean_linker_0, # of connection points: 2
#     Edge 93, Type (0, 0), BuildingBlock: OJICUG_clean_linker_0, # of connection points: 2
#     Edge 94, Type (0, 0), BuildingBlock: OJICUG_clean_linker_0, # of connection points: 2
#     Edge 95, Type (0, 0), BuildingBlock: OJICUG_clean_linker_0, # of connection points: 2
#     Edge 96, Type (0, 0), BuildingBlock: OJICUG_clean_linker_0, # of connection points: 2
#     Edge 97, Type (0, 0), BuildingBlock: OJICUG_clean_linker_0, # of connection points: 2
#     Edge 98, Type (0, 0), BuildingBlock: OJICUG_clean_linker_0, # of connection points: 2
#     Edge 99, Type (0, 0), BuildingBlock: OJICUG_clean_linker_0, # of connection points: 2
#     Edge 100, Type (0, 0), BuildingBlock: OJICUG_clean_linker_0, # of connection points: 2
#     Edge 101, Type (0, 0), BuildingBlock: OJICUG_clean_linker_0, # of connection points: 2
#     Edge 102, Type (0, 0), BuildingBlock: OJICUG_clean_linker_0, # of connection points: 2
#     Edge 103, Type (0, 0), BuildingBlock: OJICUG_clean_linker_0, # of connection points: 2
#     Edge 104, Type (0, 0), BuildingBlock: OJICUG_clean_linker_0, # of connection points: 2
#     Edge 105, Type (0, 0), BuildingBlock: OJICUG_clean_linker_0, # of connection points: 2
#     Edge 106, Type (0, 0), BuildingBlock: OJICUG_clean_linker_0, # of connection points: 2
#     Edge 107, Type (0, 0), BuildingBlock: OJICUG_clean_linker_0, # of connection points: 2
#     Edge 108, Type (0, 0), BuildingBlock: OJICUG_clean_linker_0, # of connection points: 2
#     Edge 109, Type (0, 0), BuildingBlock: OJICUG_clean_linker_0, # of connection points: 2
#     Edge 110, Type (0, 0), BuildingBlock: OJICUG_clean_linker_0, # of connection points: 2
#     Edge 111, Type (0, 0), BuildingBlock: OJICUG_clean_linker_0, # of connection points: 2
#     Edge 112, Type (0, 0), BuildingBlock: OJICUG_clean_linker_0, # of connection points: 2
#     Edge 113, Type (0, 0), BuildingBlock: OJICUG_clean_linker_0, # of connection points: 2
#     Edge 114, Type (0, 0), BuildingBlock: OJICUG_clean_linker_0, # of connection points: 2
#     Edge 115, Type (0, 0), BuildingBlock: OJICUG_clean_linker_0, # of connection points: 2
#     Edge 116, Type (0, 0), BuildingBlock: OJICUG_clean_linker_0, # of connection points: 2
#     Edge 117, Type (0, 0), BuildingBlock: OJICUG_clean_linker_0, # of connection points: 2
#     Edge 118, Type (0, 0), BuildingBlock: OJICUG_clean_linker_0, # of connection points: 2
#     Edge 119, Type (0, 0), BuildingBlock: OJICUG_clean_linker_0, # of connection points: 2
#     Edge 120, Type (0, 0), BuildingBlock: OJICUG_clean_linker_0, # of connection points: 2
#     Edge 121, Type (0, 0), BuildingBlock: OJICUG_clean_linker_0, # of connection points: 2
#     Edge 122, Type (0, 0), BuildingBlock: OJICUG_clean_linker_0, # of connection points: 2
#     Edge 123, Type (0, 0), BuildingBlock: OJICUG_clean_linker_0, # of connection points: 2
#     Edge 124, Type (0, 0), BuildingBlock: OJICUG_clean_linker_0, # of connection points: 2
#     Edge 125, Type (0, 0), BuildingBlock: OJICUG_clean_linker_0, # of connection points: 2
#     Edge 126, Type (0, 0), BuildingBlock: OJICUG_clean_linker_0, # of connection points: 2
#     Edge 127, Type (0, 0), BuildingBlock: OJICUG_clean_linker_0, # of connection points: 2
#     Edge 128, Type (0, 0), BuildingBlock: OJICUG_clean_linker_0, # of connection points: 2
#     Edge 129, Type (0, 0), BuildingBlock: OJICUG_clean_linker_0, # of connection points: 2
#     Edge 130, Type (0, 0), BuildingBlock: OJICUG_clean_linker_0, # of connection points: 2
#     Edge 131, Type (0, 0), BuildingBlock: OJICUG_clean_linker_0, # of connection points: 2
#     Edge 132, Type (0, 0), BuildingBlock: OJICUG_clean_linker_0, # of connection points: 2
#     Edge 133, Type (0, 0), BuildingBlock: OJICUG_clean_linker_0, # of connection points: 2
#     Edge 134, Type (0, 0), BuildingBlock: OJICUG_clean_linker_0, # of connection points: 2
#     Edge 135, Type (0, 0), BuildingBlock: OJICUG_clean_linker_0, # of connection points: 2
#     Edge 136, Type (0, 0), BuildingBlock: OJICUG_clean_linker_0, # of connection points: 2
#     Edge 137, Type (0, 0), BuildingBlock: OJICUG_clean_linker_0, # of connection points: 2
#     Edge 138, Type (0, 0), BuildingBlock: OJICUG_clean_linker_0, # of connection points: 2
#     Edge 139, Type (0, 0), BuildingBlock: OJICUG_clean_linker_0, # of connection points: 2
#     Edge 140, Type (0, 0), BuildingBlock: OJICUG_clean_linker_0, # of connection points: 2
#     Edge 141, Type (0, 0), BuildingBlock: OJICUG_clean_linker_0, # of connection points: 2
#     Edge 142, Type (0, 0), BuildingBlock: OJICUG_clean_linker_0, # of connection points: 2
#     Edge 143, Type (0, 0), BuildingBlock: OJICUG_clean_linker_0, # of connection points: 2
# Relax obj value: 0.355
# Max RMSD: 0.204
# Mean RMSD: 0.204
data_MOF--net-ukr--node1-AZAVOO_clean_sbu_0--edge1-OJICUG_clean_linker_0
_symmetry_space_group_name_H-M    P1
_symmetry_Int_Tables_number       1
_symmetry_cell_setting            triclinic
loop_
_symmetry_equiv_pos_as_xyz
'x, y, z'
_cell_length_a     52.862679
_cell_length_b     52.543148
_cell_length_c     52.41693
_cell_angle_alpha  90.208476
_cell_angle_beta   89.58142
_cell_angle_gamma 89.654589
loop_
_atom_site_label
_atom_site_type_symbol
_atom_site_fract_x
_atom_site_fract_y
_atom_site_fract_z
_atom_type_partial_charge
Mg0 Mg 0.08419 0.25617 0.14428 0.0
O1 O 0.08866 0.22134 0.1705 0.0
O2 O 0.13024 0.21362 0.17362 0.0
Mg3 Mg 0.1524 0.24546 0.15381 0.0
C4 C 0.10723 0.20784 0.17819 0.0
C5 C 0.02815 0.26677 0.13468 0.0
O6 O 0.04008 0.27638 0.11489 0.0
O7 O 0.09349 0.28375 0.17753 0.0
O8 O 0.13526 0.27623 0.1793 0.0
O9 O 0.08983 0.22892 0.11107 0.0
O10 O 0.12043 0.25096 0.12867 0.0
C11 C 0.11548 0.28837 0.1865 0.0
C12 C 0.11373 0.23374 0.11287 0.0
O13 O 0.04125 0.2566 0.15223 0.0
Mg14 Mg 0.19568 0.58794 0.64157 0.0
O15 O 0.22979 0.59265 0.66821 0.0
O16 O 0.23699 0.63451 0.67124 0.0
Mg17 Mg 0.20519 0.65665 0.65143 0.0
C18 C 0.24296 0.61142 0.67588 0.0
C19 C 0.1968 0.53121 0.62942 0.0
O20 O 0.19791 0.5428 0.60727 0.0
O21 O 0.1675 0.59746 0.67433 0.0
O22 O 0.17431 0.6395 0.67634 0.0
O23 O 0.22345 0.59337 0.60888 0.0
O24 O 0.20075 0.62429 0.62609 0.0
C25 C 0.16237 0.61963 0.68328 0.0
C26 C 0.21832 0.61742 0.61063 0.0
O27 O 0.19556 0.54481 0.64954 0.0
Mg28 Mg 0.86178 0.69196 0.14761 0.0
O29 O 0.85924 0.72845 0.17191 0.0
O30 O 0.81833 0.73475 0.18149 0.0
Mg31 Mg 0.79508 0.70107 0.16702 0.0
C32 C 0.84141 0.74168 0.18185 0.0
C33 C 0.91823 0.69866 0.13099 0.0
O34 O 0.90631 0.70323 0.10957 0.0
O35 O 0.85784 0.66609 0.18319 0.0
O36 O 0.81656 0.67263 0.19119 0.0
O37 O 0.84998 0.7162 0.11338 0.0
O38 O 0.82367 0.69478 0.13762 0.0
C39 C 0.83752 0.66152 0.19579 0.0
C40 C 0.82692 0.7104 0.11932 0.0
O41 O 0.90524 0.69342 0.15079 0.0
Mg42 Mg 0.75173 0.36277 0.64251 0.0
O43 O 0.71738 0.35939 0.66941 0.0
O44 O 0.71127 0.31778 0.67607 0.0
Mg45 Mg 0.74375 0.29483 0.6578 0.0
C46 C 0.70467 0.34105 0.67876 0.0
C47 C 0.761 0.41952 0.63033 0.0
O48 O 0.77118 0.40746 0.61076 0.0
O49 O 0.77968 0.35659 0.6758 0.0
O50 O 0.77376 0.31474 0.68138 0.0
O51 O 0.7247 0.35376 0.6102 0.0
O52 O 0.74774 0.32506 0.62998 0.0
C53 C 0.7851 0.33544 0.68661 0.0
C54 C 0.73039 0.33006 0.61388 0.0
O55 O 0.75088 0.40641 0.64799 0.0
Mg56 Mg 0.08433 0.69453 0.81073 0.0
O57 O 0.0872 0.73047 0.78594 0.0
O58 O 0.12844 0.73876 0.78097 0.0
Mg59 Mg 0.15183 0.70581 0.79734 0.0
C60 C 0.10516 0.74458 0.77806 0.0
C61 C 0.02765 0.69093 0.82431 0.0
O62 O 0.03903 0.68745 0.84624 0.0
O63 O 0.09232 0.66849 0.77591 0.0
O64 O 0.1337 0.67662 0.77113 0.0
O65 O 0.09134 0.7204 0.84466 0.0
O66 O 0.12125 0.69903 0.82429 0.0
C67 C 0.11371 0.66473 0.76487 0.0
C68 C 0.11516 0.71559 0.84119 0.0
O69 O 0.04122 0.69452 0.80452 0.0
Mg70 Mg 0.75115 0.5875 0.31385 0.0
O71 O 0.71927 0.59211 0.28463 0.0
O72 O 0.71557 0.63391 0.27717 0.0
Mg73 Mg 0.74428 0.65604 0.30104 0.0
C74 C 0.70866 0.61093 0.27366 0.0
C75 C 0.75709 0.53064 0.32567 0.0
O76 O 0.76224 0.54215 0.34731 0.0
O77 O 0.78232 0.59524 0.28335 0.0
O78 O 0.77731 0.6375 0.2802 0.0
O79 O 0.72081 0.59456 0.34381 0.0
O80 O 0.74512 0.62446 0.32768 0.0
C81 C 0.78921 0.61697 0.27482 0.0
C82 C 0.72617 0.61846 0.34166 0.0
O83 O 0.75153 0.54427 0.30648 0.0
Mg84 Mg 0.86145 0.25663 0.80953 0.0
O85 O 0.85853 0.22234 0.78233 0.0
O86 O 0.81728 0.21643 0.775 0.0
Mg87 Mg 0.79389 0.24724 0.79564 0.0
C88 C 0.84047 0.21 0.7722 0.0
C89 C 0.91782 0.25215 0.82308 0.0
O90 O 0.90591 0.24772 0.84469 0.0
O91 O 0.85385 0.28517 0.77666 0.0
O92 O 0.81219 0.27866 0.77247 0.0
O93 O 0.85406 0.22863 0.84152 0.0
O94 O 0.82439 0.2513 0.82287 0.0
C95 C 0.83237 0.29059 0.76679 0.0
C96 C 0.83029 0.2337 0.83853 0.0
O97 O 0.9047 0.25681 0.80335 0.0
Mg98 Mg 0.1931 0.3621 0.31316 0.0
O99 O 0.22829 0.35867 0.28722 0.0
O100 O 0.23578 0.31704 0.28144 0.0
Mg101 Mg 0.2032 0.29406 0.2988 0.0
C102 C 0.24183 0.34034 0.2786 0.0
C103 C 0.20325 0.41916 0.32471 0.0
O104 O 0.21282 0.40772 0.34471 0.0
O105 O 0.16642 0.35507 0.27907 0.0
O106 O 0.17369 0.31326 0.27382 0.0
O107 O 0.21945 0.35411 0.34613 0.0
O108 O 0.19759 0.32464 0.32629 0.0
C109 C 0.16203 0.33375 0.26809 0.0
C110 C 0.21451 0.33028 0.34261 0.0
O111 O 0.19341 0.4056 0.30727 0.0
Mg112 Mg 0.13936 0.08777 0.25942 0.0
O113 O 0.16385 0.09108 0.22305 0.0
O114 O 0.16862 0.13269 0.21536 0.0
Mg115 Mg 0.15225 0.15578 0.2489 0.0
C116 C 0.17159 0.10935 0.20912 0.0
C117 C 0.13556 0.03131 0.24137 0.0
O118 O 0.12276 0.04333 0.22367 0.0
O119 O 0.17402 0.09514 0.28497 0.0
O120 O 0.17855 0.13689 0.27751 0.0
O121 O 0.10559 0.09533 0.23408 0.0
O122 O 0.12568 0.12509 0.25538 0.0
C123 C 0.1849 0.11647 0.28896 0.0
C124 C 0.10899 0.11923 0.23888 0.0
O125 O 0.14574 0.0443 0.25903 0.0
Mg126 Mg 0.36223 0.64276 0.7567 0.0
O127 O 0.35853 0.66848 0.72134 0.0
O128 O 0.31708 0.67337 0.7141 0.0
Mg129 Mg 0.2944 0.65534 0.7468 0.0
C130 C 0.34021 0.67674 0.7079 0.0
C131 C 0.41846 0.63233 0.76758 0.0
O132 O 0.40669 0.61314 0.77831 0.0
O133 O 0.35411 0.67672 0.7838 0.0
O134 O 0.3125 0.68083 0.77663 0.0
O135 O 0.35552 0.60946 0.73008 0.0
O136 O 0.3255 0.6288 0.75226 0.0
C137 C 0.33257 0.68712 0.78836 0.0
C138 C 0.33169 0.61243 0.7352 0.0
O139 O 0.40527 0.64932 0.75654 0.0
Mg140 Mg 0.80727 0.86414 0.2571 0.0
O141 O 0.78296 0.85796 0.2214 0.0
O142 O 0.78074 0.81579 0.2154 0.0
Mg143 Mg 0.7981 0.79508 0.24957 0.0
C144 C 0.77641 0.83861 0.20827 0.0
C145 C 0.81488 0.92065 0.26815 0.0
O146 O 0.83298 0.90881 0.28051 0.0
O147 O 0.773 0.85612 0.2835 0.0
O148 O 0.77091 0.81384 0.27788 0.0
O149 O 0.84123 0.85725 0.23124 0.0
O150 O 0.8228 0.82753 0.25418 0.0
C151 C 0.76341 0.83439 0.28862 0.0
C152 C 0.83904 0.83344 0.23706 0.0
O153 O 0.79923 0.9073 0.25561 0.0
Mg154 Mg 0.58429 0.31097 0.76021 0.0
O155 O 0.58815 0.28545 0.72476 0.0
O156 O 0.62958 0.28078 0.71664 0.0
Mg157 Mg 0.65221 0.29799 0.74959 0.0
C158 C 0.60643 0.2775 0.7108 0.0
C159 C 0.52763 0.32268 0.75138 0.0
O160 O 0.53909 0.34337 0.74354 0.0
O161 O 0.59204 0.27671 0.78681 0.0
O162 O 0.63362 0.27231 0.77902 0.0
O163 O 0.59178 0.34414 0.73354 0.0
O164 O 0.62129 0.3247 0.75565 0.0
C165 C 0.61348 0.26604 0.79089 0.0
C166 C 0.61549 0.34096 0.73857 0.0
O167 O 0.54109 0.30443 0.75982 0.0
Mg168 Mg 0.136 0.86329 0.69742 0.0
O169 O 0.16123 0.85904 0.7328 0.0
O170 O 0.16417 0.81734 0.74106 0.0
Mg171 Mg 0.14555 0.79461 0.70886 0.0
C172 C 0.16848 0.84056 0.74673 0.0
C173 C 0.13055 0.92044 0.71156 0.0
O174 O 0.11373 0.90931 0.72624 0.0
O175 O 0.16957 0.85304 0.67042 0.0
O176 O 0.17131 0.81114 0.6783 0.0
O177 O 0.10249 0.85795 0.72432 0.0
O178 O 0.12059 0.82688 0.70261 0.0
C179 C 0.17863 0.83074 0.66609 0.0
C180 C 0.10457 0.83387 0.71962 0.0
O181 O 0.1442 0.90657 0.69692 0.0
Mg182 Mg 0.585 0.64645 0.19485 0.0
O183 O 0.58673 0.67128 0.23105 0.0
O184 O 0.62748 0.68069 0.23727 0.0
Mg185 Mg 0.65132 0.66596 0.20361 0.0
C186 C 0.60431 0.68123 0.24423 0.0
C187 C 0.52884 0.62968 0.20188 0.0
O188 O 0.54116 0.60849 0.20684 0.0
O189 O 0.58876 0.68151 0.16831 0.0
O190 O 0.62983 0.68963 0.17478 0.0
O191 O 0.59694 0.61276 0.21972 0.0
O192 O 0.6232 0.63656 0.19777 0.0
C193 C 0.60896 0.69403 0.16356 0.0
C194 C 0.61999 0.61861 0.21379 0.0
O195 O 0.54148 0.64945 0.19629 0.0
Mg196 Mg 0.80752 0.08729 0.69328 0.0
O197 O 0.78336 0.09089 0.7298 0.0
O198 O 0.77678 0.1325 0.73683 0.0
Mg199 Mg 0.79196 0.15524 0.70282 0.0
C200 C 0.77487 0.10923 0.74344 0.0
C201 C 0.81298 0.03074 0.71194 0.0
O202 O 0.82575 0.04277 0.72964 0.0
O203 O 0.77215 0.09307 0.66821 0.0
O204 O 0.76607 0.13483 0.67523 0.0
O205 O 0.84158 0.09699 0.71784 0.0
O206 O 0.81941 0.12503 0.69625 0.0
C207 C 0.76034 0.11401 0.6642 0.0
C208 C 0.8369 0.12053 0.71231 0.0
O209 O 0.80261 0.04369 0.69436 0.0
Mg210 Mg 0.36175 0.30879 0.19788 0.0
O211 O 0.35851 0.28363 0.23365 0.0
O212 O 0.31717 0.27946 0.24218 0.0
Mg213 Mg 0.29409 0.29682 0.20962 0.0
C214 C 0.34038 0.27595 0.24781 0.0
C215 C 0.41779 0.32084 0.18905 0.0
O216 O 0.40566 0.34131 0.18142 0.0
O217 O 0.35356 0.27447 0.17144 0.0
O218 O 0.31209 0.27058 0.17989 0.0
O219 O 0.355 0.34252 0.22422 0.0
O220 O 0.32499 0.32302 0.20293 0.0
C221 C 0.33207 0.26401 0.16772 0.0
C222 C 0.33117 0.3396 0.21962 0.0
O223 O 0.40489 0.30219 0.1973 0.0
Mg224 Mg 0.25199 0.14163 0.08952 0.0
O225 O 0.21694 0.16751 0.09376 0.0
O226 O 0.20848 0.17033 0.1356 0.0
Mg227 Mg 0.2404 0.15142 0.15829 0.0
C228 C 0.20295 0.17479 0.11236 0.0
C229 C 0.25195 0.12946 0.03261 0.0
O230 O 0.25136 0.10737 0.04426 0.0
O231 O 0.27903 0.17479 0.09936 0.0
O232 O 0.27104 0.17665 0.14141 0.0
O233 O 0.22514 0.10846 0.09494 0.0
O234 O 0.24666 0.12617 0.126 0.0
C235 C 0.28332 0.18376 0.12168 0.0
C236 C 0.2298 0.11032 0.11906 0.0
O237 O 0.25257 0.14955 0.04623 0.0
Mg238 Mg 0.25081 0.81003 0.8653 0.0
O239 O 0.21669 0.78334 0.86101 0.0
O240 O 0.20953 0.7796 0.8191 0.0
Mg241 Mg 0.24123 0.79928 0.79659 0.0
C242 C 0.20356 0.77532 0.84233 0.0
C243 C 0.25453 0.82235 0.92202 0.0
O244 O 0.25766 0.84413 0.9102 0.0
O245 O 0.27897 0.77732 0.8561 0.0
O246 O 0.27218 0.7747 0.81399 0.0
O247 O 0.22309 0.84255 0.85961 0.0
O248 O 0.24565 0.82502 0.82869 0.0
C249 C 0.28411 0.7681 0.83399 0.0
C250 C 0.22811 0.84051 0.83549 0.0
O251 O 0.25108 0.80247 0.90857 0.0
Mg252 Mg 0.63685 0.75889 0.36474 0.0
O253 O 0.66184 0.72331 0.35887 0.0
O254 O 0.66387 0.71608 0.31677 0.0
Mg255 Mg 0.64549 0.74942 0.29546 0.0
C256 C 0.66854 0.70969 0.33975 0.0
C257 C 0.63783 0.73949 0.42097 0.0
O258 O 0.62633 0.72081 0.40913 0.0
O259 O 0.67042 0.78537 0.35504 0.0
O260 O 0.67189 0.77871 0.31277 0.0
O261 O 0.60333 0.73265 0.35914 0.0
O262 O 0.62099 0.75492 0.32841 0.0
C263 C 0.67943 0.79012 0.33282 0.0
C264 C 0.60515 0.73789 0.33511 0.0
O265 O 0.64563 0.75828 0.40788 0.0
Mg266 Mg 0.69391 0.14097 0.86381 0.0
O267 O 0.72803 0.16744 0.85834 0.0
O268 O 0.73461 0.17036 0.81618 0.0
Mg269 Mg 0.70225 0.151 0.79481 0.0
C270 C 0.74098 0.17496 0.83918 0.0
C271 C 0.69098 0.12887 0.92046 0.0
O272 O 0.68763 0.10708 0.90861 0.0
O273 O 0.66592 0.17389 0.85551 0.0
O274 O 0.67203 0.17629 0.81322 0.0
O275 O 0.7215 0.10838 0.85753 0.0
O276 O 0.69855 0.12561 0.82715 0.0
C277 C 0.66055 0.18316 0.83363 0.0
C278 C 0.71627 0.11028 0.83353 0.0
O279 O 0.69431 0.14873 0.90704 0.0
Mg280 Mg 0.30928 0.19322 0.3657 0.0
O281 O 0.28308 0.22802 0.36108 0.0
O282 O 0.28039 0.23586 0.3192 0.0
Mg283 Mg 0.30042 0.20388 0.29682 0.0
C284 C 0.27558 0.24158 0.34243 0.0
C285 C 0.30786 0.21207 0.42196 0.0
O286 O 0.31836 0.23122 0.4099 0.0
O287 O 0.27649 0.16591 0.35574 0.0
O288 O 0.27502 0.17336 0.31367 0.0
O289 O 0.34202 0.22048 0.36054 0.0
O290 O 0.32509 0.19849 0.32928 0.0
C291 C 0.26773 0.16132 0.33346 0.0
C292 C 0.34043 0.2158 0.33637 0.0
O293 O 0.30065 0.19295 0.40897 0.0
Mg294 Mg 0.69492 0.81013 0.08681 0.0
O295 O 0.72711 0.78084 0.09132 0.0
O296 O 0.73058 0.77381 0.13329 0.0
Mg297 Mg 0.7017 0.79804 0.15557 0.0
C298 C 0.73766 0.77001 0.11025 0.0
C299 C 0.68763 0.82191 0.03035 0.0
O300 O 0.68137 0.84299 0.04246 0.0
O301 O 0.664 0.77991 0.09522 0.0
O302 O 0.66885 0.77726 0.13757 0.0
O303 O 0.72488 0.84003 0.09311 0.0
O304 O 0.70083 0.82423 0.12361 0.0
C305 C 0.65708 0.77171 0.11717 0.0
C306 C 0.71957 0.83814 0.11717 0.0
O307 O 0.69449 0.80279 0.04348 0.0
Mg308 Mg 0.63489 0.19289 0.59241 0.0
O309 O 0.66175 0.22748 0.59444 0.0
O310 O 0.66712 0.23569 0.63604 0.0
Mg311 Mg 0.64721 0.20544 0.66028 0.0
C312 C 0.67065 0.24101 0.61254 0.0
C313 C 0.64209 0.20642 0.53296 0.0
O314 O 0.64001 0.2301 0.54087 0.0
O315 O 0.66741 0.16496 0.60168 0.0
O316 O 0.67102 0.17314 0.64349 0.0
O317 O 0.60264 0.22108 0.59784 0.0
O318 O 0.62104 0.20014 0.62904 0.0
C319 C 0.677 0.1604 0.62355 0.0
C320 C 0.60531 0.21727 0.62207 0.0
O321 O 0.64149 0.1885 0.5492 0.0
Mg322 Mg 0.30725 0.75713 0.58816 0.0
O323 O 0.28328 0.72098 0.5922 0.0
O324 O 0.27947 0.71289 0.63398 0.0
Mg325 Mg 0.29576 0.74628 0.65676 0.0
C326 C 0.27612 0.7069 0.61063 0.0
C327 C 0.30951 0.73864 0.53147 0.0
O328 O 0.32213 0.72065 0.54331 0.0
O329 O 0.27236 0.78259 0.59691 0.0
O330 O 0.26864 0.7748 0.63884 0.0
O331 O 0.34144 0.73169 0.59473 0.0
O332 O 0.32164 0.75298 0.62516 0.0
C333 C 0.26177 0.78637 0.61867 0.0
C334 C 0.33839 0.73647 0.61879 0.0
O335 O 0.29998 0.75674 0.54467 0.0
Mg336 Mg 0.86175 0.69459 0.80878 0.0
O337 O 0.8583 0.7294 0.78234 0.0
O338 O 0.81689 0.73683 0.77716 0.0
Mg339 Mg 0.794 0.7051 0.79629 0.0
C340 C 0.84004 0.74272 0.77367 0.0
C341 C 0.91777 0.69084 0.82262 0.0
O342 O 0.90552 0.68775 0.84428 0.0
O343 O 0.85389 0.66686 0.77531 0.0
O344 O 0.81224 0.6743 0.77161 0.0
O345 O 0.85476 0.7219 0.84165 0.0
O346 O 0.82489 0.69984 0.82284 0.0
C347 C 0.83234 0.66218 0.76536 0.0
C348 C 0.83096 0.71708 0.83888 0.0
O349 O 0.90494 0.69417 0.80243 0.0
Mg350 Mg 0.75124 0.36393 0.31107 0.0
O351 O 0.71686 0.35981 0.28462 0.0
O352 O 0.70943 0.31803 0.28106 0.0
Mg353 Mg 0.74128 0.29545 0.30028 0.0
C354 C 0.70352 0.34122 0.27681 0.0
C355 C 0.75716 0.42012 0.3235 0.0
O356 O 0.76226 0.40794 0.34472 0.0
O357 O 0.77913 0.35474 0.278 0.0
O358 O 0.77204 0.31277 0.27535 0.0
O359 O 0.72372 0.3583 0.34385 0.0
O360 O 0.7461 0.32746 0.326 0.0
C361 C 0.78403 0.33268 0.26866 0.0
C362 C 0.72866 0.33424 0.34165 0.0
O363 O 0.7516 0.4071 0.30383 0.0
Mg364 Mg 0.08429 0.25752 0.8104 0.0
O365 O 0.08847 0.22229 0.78444 0.0
O366 O 0.13 0.21497 0.77946 0.0
Mg367 Mg 0.15228 0.24769 0.79748 0.0
C368 C 0.10693 0.20882 0.77612 0.0
C369 C 0.02768 0.25253 0.82356 0.0
O370 O 0.03915 0.24843 0.84532 0.0
O371 O 0.09196 0.28456 0.77646 0.0
O372 O 0.13366 0.27741 0.77221 0.0
O373 O 0.09158 0.23083 0.84349 0.0
O374 O 0.12119 0.25309 0.82427 0.0
C375 C 0.11343 0.28912 0.76601 0.0
C376 C 0.11531 0.23598 0.84048 0.0
O377 O 0.04116 0.2571 0.80391 0.0
Mg378 Mg 0.1929 0.58601 0.30594 0.0
O379 O 0.22537 0.587 0.27618 0.0
O380 O 0.2328 0.62781 0.26593 0.0
Mg381 Mg 0.20361 0.65411 0.28478 0.0
C382 C 0.23797 0.60406 0.2644 0.0
C383 C 0.20389 0.52961 0.32175 0.0
O384 O 0.2146 0.54215 0.34048 0.0
O385 O 0.16068 0.5879 0.2751 0.0
O386 O 0.17517 0.6264 0.27338 0.0
O387 O 0.22256 0.59734 0.33527 0.0
O388 O 0.19963 0.62567 0.31511 0.0
C389 C 0.15877 0.61052 0.26678 0.0
C390 C 0.2175 0.62094 0.33061 0.0
O391 O 0.19322 0.54216 0.30408 0.0
Mg392 Mg 0.86193 0.25514 0.1429 0.0
O393 O 0.85791 0.2196 0.16815 0.0
O394 O 0.81642 0.21221 0.17237 0.0
Mg395 Mg 0.79395 0.24529 0.15496 0.0
C396 C 0.83951 0.20597 0.17586 0.0
C397 C 0.91828 0.26647 0.13351 0.0
O398 O 0.90671 0.27787 0.11457 0.0
O399 O 0.85364 0.28186 0.17714 0.0
O400 O 0.81198 0.27475 0.18094 0.0
O401 O 0.85519 0.2289 0.10918 0.0
O402 O 0.82525 0.25105 0.12862 0.0
C403 C 0.83204 0.28635 0.18748 0.0
C404 C 0.83139 0.23416 0.11208 0.0
O405 O 0.90492 0.25475 0.14993 0.0
Mg406 Mg 0.19441 0.36397 0.64231 0.0
O407 O 0.22844 0.35945 0.66908 0.0
O408 O 0.23548 0.31759 0.67322 0.0
Mg409 Mg 0.20372 0.29539 0.65369 0.0
C410 C 0.24149 0.34074 0.6773 0.0
C411 C 0.19634 0.42066 0.62949 0.0
O412 O 0.19783 0.40883 0.60739 0.0
O413 O 0.16618 0.35576 0.67523 0.0
O414 O 0.17292 0.3137 0.67824 0.0
O415 O 0.22219 0.35717 0.60978 0.0
O416 O 0.19938 0.32708 0.62761 0.0
C417 C 0.16103 0.33394 0.68471 0.0
C418 C 0.21699 0.33324 0.61203 0.0
O419 O 0.19453 0.40729 0.64961 0.0
Mg420 Mg 0.08448 0.6953 0.14497 0.0
O421 O 0.08761 0.73107 0.17052 0.0
O422 O 0.1289 0.73858 0.17601 0.0
Mg423 Mg 0.15176 0.70521 0.15956 0.0
C424 C 0.10567 0.74476 0.17884 0.0
C425 C 0.02809 0.69937 0.13066 0.0
O426 O 0.03996 0.70248 0.1088 0.0
O427 O 0.09081 0.66895 0.17943 0.0
O428 O 0.13179 0.67745 0.18605 0.0
O429 O 0.09277 0.72112 0.11152 0.0
O430 O 0.12182 0.6992 0.13203 0.0
C431 C 0.11143 0.66574 0.19166 0.0
C432 C 0.11641 0.71589 0.11521 0.0
O433 O 0.0412 0.69592 0.15063 0.0
Mg434 Mg 0.7524 0.58707 0.6417 0.0
O435 O 0.71784 0.59148 0.66835 0.0
O436 O 0.71096 0.63334 0.67316 0.0
Mg437 Mg 0.7433 0.65558 0.65436 0.0
C438 C 0.70471 0.61019 0.67678 0.0
C439 C 0.76123 0.53019 0.6303 0.0
O440 O 0.77038 0.54188 0.61015 0.0
O441 O 0.78005 0.59474 0.6749 0.0
O442 O 0.77346 0.63679 0.67881 0.0
O443 O 0.72535 0.59443 0.60912 0.0
O444 O 0.74793 0.62418 0.62768 0.0
C445 C 0.78509 0.61638 0.6849 0.0
C446 C 0.73061 0.61831 0.61188 0.0
O447 O 0.752 0.54366 0.64836 0.0
Mg448 Mg 0.80819 0.86365 0.69347 0.0
O449 O 0.78393 0.86058 0.72996 0.0
O450 O 0.7789 0.81905 0.7379 0.0
Mg451 Mg 0.79466 0.79574 0.70425 0.0
C452 C 0.77618 0.84244 0.74405 0.0
C453 C 0.81255 0.92016 0.71176 0.0
O454 O 0.82519 0.90804 0.72951 0.0
O455 O 0.77318 0.85658 0.66819 0.0
O456 O 0.76824 0.81494 0.67602 0.0
O457 O 0.84211 0.8555 0.71853 0.0
O458 O 0.8214 0.82615 0.6973 0.0
C459 C 0.76198 0.83535 0.66452 0.0
C460 C 0.83837 0.83168 0.71361 0.0
O461 O 0.80234 0.90725 0.69404 0.0
Mg462 Mg 0.58417 0.31081 0.19598 0.0
O463 O 0.58825 0.28456 0.23078 0.0
O464 O 0.62975 0.27985 0.23782 0.0
Mg465 Mg 0.65217 0.29874 0.20543 0.0
C466 C 0.60666 0.27618 0.244 0.0
C467 C 0.52767 0.32206 0.18806 0.0
O468 O 0.53912 0.34265 0.1799 0.0
O469 O 0.59253 0.27744 0.1682 0.0
O470 O 0.63425 0.27389 0.175 0.0
O471 O 0.59072 0.34369 0.22322 0.0
O472 O 0.6208 0.32507 0.20052 0.0
C473 C 0.61422 0.26756 0.16321 0.0
C474 C 0.61455 0.34105 0.21792 0.0
O475 O 0.54119 0.30378 0.19631 0.0
Mg476 Mg 0.13914 0.08757 0.69586 0.0
O477 O 0.16365 0.0913 0.73181 0.0
O478 O 0.16805 0.133 0.73951 0.0
Mg479 Mg 0.15135 0.15587 0.70638 0.0
C480 C 0.17126 0.10972 0.74565 0.0
C481 C 0.13251 0.03099 0.71164 0.0
O482 O 0.11691 0.04311 0.72712 0.0
O483 O 0.17371 0.09526 0.6697 0.0
O484 O 0.17757 0.13714 0.67718 0.0
O485 O 0.10529 0.09522 0.72179 0.0
O486 O 0.12518 0.12486 0.70013 0.0
C487 C 0.18419 0.11679 0.66553 0.0
C488 C 0.1085 0.11907 0.71684 0.0
O489 O 0.14574 0.04397 0.69607 0.0
Mg490 Mg 0.36242 0.64204 0.19409 0.0
O491 O 0.35768 0.66634 0.23048 0.0
O492 O 0.31617 0.67259 0.23674 0.0
Mg493 Mg 0.29438 0.65587 0.20292 0.0
C494 C 0.33913 0.67498 0.24365 0.0
C495 C 0.419 0.62815 0.20127 0.0
O496 O 0.4075 0.60645 0.20548 0.0
O497 O 0.35595 0.67734 0.16843 0.0
O498 O 0.31406 0.68168 0.17454 0.0
O499 O 0.35291 0.60692 0.21798 0.0
O500 O 0.32527 0.62924 0.19624 0.0
C501 C 0.33468 0.68806 0.16361 0.0
C502 C 0.32966 0.61095 0.21153 0.0
O503 O 0.4056 0.64764 0.19606 0.0
Mg504 Mg 0.80661 0.08779 0.25715 0.0
O505 O 0.781 0.09272 0.22221 0.0
O506 O 0.77851 0.13456 0.2145 0.0
Mg507 Mg 0.79783 0.15658 0.24679 0.0
C508 C 0.77383 0.11147 0.20861 0.0
C509 C 0.81478 0.03124 0.26842 0.0
O510 O 0.83398 0.04283 0.27908 0.0
O511 O 0.77357 0.09801 0.28477 0.0
O512 O 0.7722 0.14003 0.27753 0.0
O513 O 0.83969 0.09259 0.22985 0.0
O514 O 0.82247 0.12389 0.2521 0.0
C515 C 0.76483 0.12033 0.28957 0.0
C516 C 0.83809 0.1167 0.23476 0.0
O517 O 0.79817 0.04476 0.25729 0.0
Mg518 Mg 0.36125 0.30924 0.75808 0.0
O519 O 0.35815 0.28396 0.72225 0.0
O520 O 0.31683 0.2791 0.71456 0.0
Mg521 Mg 0.29365 0.2962 0.74765 0.0
C522 C 0.34006 0.27595 0.70844 0.0
C523 C 0.4178 0.3218 0.75042 0.0
O524 O 0.40604 0.34269 0.7434 0.0
O525 O 0.3537 0.27482 0.78448 0.0
O526 O 0.31224 0.27037 0.77688 0.0
O527 O 0.35368 0.34275 0.73194 0.0
O528 O 0.32414 0.32294 0.7538 0.0
C529 C 0.33238 0.26408 0.7886 0.0
C530 C 0.32994 0.33951 0.73701 0.0
O531 O 0.40457 0.303 0.75779 0.0
Mg532 Mg 0.13784 0.8646 0.26019 0.0
O533 O 0.16303 0.8599 0.2245 0.0
O534 O 0.16746 0.81803 0.21748 0.0
Mg535 Mg 0.14986 0.79605 0.25091 0.0
C536 C 0.17088 0.84116 0.21101 0.0
C537 C 0.1351 0.92083 0.24158 0.0
O538 O 0.12243 0.90886 0.22377 0.0
O539 O 0.17183 0.85679 0.28662 0.0
O540 O 0.17554 0.81471 0.28022 0.0
O541 O 0.10457 0.85762 0.23411 0.0
O542 O 0.12364 0.82762 0.25616 0.0
C543 C 0.18202 0.8352 0.29148 0.0
C544 C 0.10747 0.83371 0.23917 0.0
O545 O 0.14486 0.90786 0.2595 0.0
Mg546 Mg 0.58449 0.64353 0.75704 0.0
O547 O 0.58786 0.66814 0.72091 0.0
O548 O 0.62922 0.6724 0.71254 0.0
Mg549 Mg 0.65217 0.65561 0.74549 0.0
C550 C 0.60602 0.67572 0.70675 0.0
C551 C 0.52832 0.63276 0.76776 0.0
O552 O 0.54025 0.61335 0.77798 0.0
O553 O 0.59236 0.67832 0.78292 0.0
O554 O 0.63386 0.68224 0.77465 0.0
O555 O 0.59153 0.60942 0.73132 0.0
O556 O 0.62135 0.62937 0.75246 0.0
C557 C 0.61378 0.68894 0.78658 0.0
C558 C 0.61533 0.6125 0.73601 0.0
O559 O 0.54138 0.6501 0.75719 0.0
Mg560 Mg 0.69437 0.81176 0.86284 0.0
O561 O 0.72872 0.78505 0.858 0.0
O562 O 0.73662 0.78227 0.81604 0.0
Mg563 Mg 0.70495 0.80232 0.79396 0.0
C564 C 0.74226 0.77746 0.83918 0.0
C565 C 0.68729 0.82252 0.91957 0.0
O566 O 0.68144 0.84389 0.908 0.0
O567 O 0.66665 0.77927 0.85307 0.0
O568 O 0.67404 0.77741 0.81092 0.0
O569 O 0.72193 0.84426 0.85781 0.0
O570 O 0.6999 0.82744 0.82657 0.0
C571 C 0.66191 0.77044 0.83081 0.0
C572 C 0.71726 0.84269 0.83366 0.0
O573 O 0.69372 0.80345 0.90592 0.0
Mg574 Mg 0.69391 0.14246 0.08795 0.0
O575 O 0.72868 0.16832 0.09204 0.0
O576 O 0.73535 0.17306 0.13393 0.0
Mg577 Mg 0.70275 0.15493 0.15645 0.0
C578 C 0.74176 0.17651 0.11068 0.0
C579 C 0.69094 0.12919 0.03125 0.0
O580 O 0.68731 0.10753 0.04316 0.0
O581 O 0.66652 0.17608 0.09575 0.0
O582 O 0.67283 0.17992 0.13786 0.0
O583 O 0.72063 0.10939 0.09497 0.0
O584 O 0.69806 0.12839 0.12503 0.0
C585 C 0.66138 0.18618 0.11746 0.0
C586 C 0.71527 0.11224 0.11895 0.0
O587 O 0.6945 0.1491 0.04458 0.0
Mg588 Mg 0.30926 0.19428 0.58925 0.0
O589 O 0.28357 0.22956 0.5937 0.0
O590 O 0.28018 0.23766 0.63557 0.0
Mg591 Mg 0.29884 0.20525 0.65804 0.0
C592 C 0.27604 0.24343 0.61232 0.0
C593 C 0.30873 0.21267 0.53274 0.0
O594 O 0.31954 0.23185 0.54445 0.0
O595 O 0.27601 0.16735 0.59879 0.0
O596 O 0.27348 0.17491 0.64087 0.0
O597 O 0.34227 0.2211 0.59492 0.0
O598 O 0.32427 0.19934 0.62584 0.0
C599 C 0.26663 0.1629 0.62092 0.0
C600 C 0.34006 0.21639 0.61904 0.0
O601 O 0.30129 0.19385 0.54599 0.0
Mg602 Mg 0.25195 0.81021 0.08967 0.0
O603 O 0.21827 0.78309 0.09461 0.0
O604 O 0.21162 0.77919 0.13667 0.0
Mg605 Mg 0.2433 0.7992 0.15855 0.0
C606 C 0.20547 0.77487 0.11356 0.0
C607 C 0.25495 0.82256 0.03286 0.0
O608 O 0.258 0.84441 0.04468 0.0
O609 O 0.28071 0.77789 0.09786 0.0
O610 O 0.27441 0.77516 0.14011 0.0
O611 O 0.22382 0.84233 0.09642 0.0
O612 O 0.247 0.82502 0.12654 0.0
C613 C 0.28625 0.76877 0.11976 0.0
C614 C 0.22917 0.84029 0.12038 0.0
O615 O 0.25183 0.80269 0.04631 0.0
Mg616 Mg 0.63818 0.75707 0.58831 0.0
O617 O 0.66402 0.72188 0.59291 0.0
O618 O 0.66639 0.71405 0.63481 0.0
Mg619 Mg 0.64678 0.74629 0.65721 0.0
C620 C 0.67121 0.70819 0.61161 0.0
C621 C 0.63898 0.73877 0.53178 0.0
O622 O 0.6278 0.71986 0.5436 0.0
O623 O 0.67105 0.78429 0.59839 0.0
O624 O 0.67222 0.77685 0.64047 0.0
O625 O 0.60512 0.73012 0.59347 0.0
O626 O 0.62224 0.75197 0.6247 0.0
C627 C 0.67963 0.78891 0.62073 0.0
C628 C 0.60669 0.73486 0.61763 0.0
O629 O 0.64684 0.75745 0.54501 0.0
Mg630 Mg 0.25174 0.14133 0.86489 0.0
O631 O 0.21742 0.16807 0.86024 0.0
O632 O 0.21035 0.17116 0.81828 0.0
Mg633 Mg 0.24229 0.15108 0.79602 0.0
C634 C 0.20428 0.17582 0.84145 0.0
C635 C 0.25155 0.1293 0.92174 0.0
O636 O 0.25139 0.10716 0.91 0.0
O637 O 0.27962 0.17389 0.85549 0.0
O638 O 0.27291 0.17587 0.81334 0.0
O639 O 0.22427 0.10881 0.85928 0.0
O640 O 0.24682 0.12584 0.82836 0.0
C641 C 0.28472 0.18277 0.83332 0.0
C642 C 0.22939 0.1105 0.83518 0.0
O643 O 0.25176 0.14936 0.90821 0.0
Mg644 Mg 0.30756 0.75734 0.36411 0.0
O645 O 0.28068 0.72418 0.35484 0.0
O646 O 0.27995 0.72129 0.31215 0.0
Mg647 Mg 0.30086 0.75484 0.29411 0.0
C648 C 0.27398 0.71303 0.33428 0.0
C649 C 0.30993 0.73853 0.4206 0.0
O650 O 0.32581 0.72297 0.40897 0.0
O651 O 0.27548 0.78645 0.35636 0.0
O652 O 0.27489 0.78361 0.3137 0.0
O653 O 0.33926 0.72892 0.35725 0.0
O654 O 0.32445 0.75451 0.32771 0.0
C655 C 0.26717 0.79353 0.3346 0.0
C656 C 0.33831 0.73536 0.3335 0.0
O657 O 0.29792 0.75477 0.40728 0.0
Mg658 Mg 0.6373 0.19694 0.36527 0.0
O659 O 0.66203 0.23206 0.35959 0.0
O660 O 0.66642 0.23873 0.31767 0.0
Mg661 Mg 0.64927 0.20469 0.29643 0.0
C662 C 0.66977 0.24533 0.34085 0.0
C663 C 0.64025 0.18384 0.42458 0.0
O664 O 0.63222 0.16156 0.41672 0.0
O665 O 0.67174 0.17033 0.35799 0.0
O666 O 0.67558 0.17638 0.31578 0.0
O667 O 0.60399 0.22288 0.35767 0.0
O668 O 0.62298 0.1996 0.3281 0.0
C669 C 0.68223 0.16546 0.33638 0.0
C670 C 0.60685 0.21698 0.33382 0.0
O671 O 0.64464 0.20112 0.40824 0.0
C672 C 0.96023 0.27977 0.116 0.0
C673 C 0.94637 0.26692 0.13489 0.0
H674 H -0.0035 0.28985 0.10123 0.0
C675 C 0.95966 0.25444 0.15444 0.0
H676 H 0.95073 0.28965 0.10068 0.0
C677 C -0.01374 0.2546 0.15479 0.0
C678 C 3e-05 0.26719 0.13557 0.0
H679 H 0.94956 0.24438 0.16932 0.0
H680 H -0.00399 0.24461 0.16989 0.0
C681 C -0.01338 0.27988 0.11632 0.0
C682 C 0.19439 0.48945 0.65334 0.0
C683 C 0.19692 0.50293 0.6303 0.0
H684 H 0.19217 0.45276 0.67131 0.0
C685 C 0.19947 0.48908 0.60743 0.0
H686 H 0.19239 0.49954 0.67129 0.0
C687 C 0.19935 0.46255 0.60744 0.0
C688 C 0.19668 0.44894 0.63032 0.0
H689 H 0.20154 0.49872 0.58931 0.0
H690 H 0.20133 0.45273 0.58933 0.0
C691 C 0.19426 0.46267 0.65335 0.0
C692 C -0.01361 0.70491 0.10918 0.0
C693 C -2e-05 0.69957 0.13149 0.0
H694 H 0.95031 0.70888 0.09158 0.0
C695 C -0.01358 0.6942 0.15403 0.0
H696 H -0.00386 0.70918 0.09147 0.0
C697 C 0.95984 0.69399 0.15408 0.0
C698 C 0.94634 0.69919 0.13161 0.0
H699 H -0.00369 0.68999 0.17155 0.0
H700 H 0.9499 0.68964 0.17166 0.0
C701 C 0.96 0.70474 0.10924 0.0
C702 C 0.77241 0.46141 0.61104 0.0
C703 C 0.7612 0.44784 0.63118 0.0
H704 H 0.78123 0.4976 0.59505 0.0
C705 C 0.75022 0.46164 0.65156 0.0
H706 H 0.78109 0.45152 0.59503 0.0
C707 C 0.75032 0.48841 0.65158 0.0
C708 C 0.76139 0.50188 0.63122 0.0
H709 H 0.74143 0.4518 0.66739 0.0
H710 H 0.74159 0.49853 0.66742 0.0
C711 C 0.77249 0.48798 0.61105 0.0
C712 C 0.95991 0.69468 0.79974 0.0
C713 C 0.9459 0.69067 0.8223 0.0
H714 H -0.0032 0.69794 0.78255 0.0
C715 C 0.95905 0.68662 0.84515 0.0
H716 H 0.95037 0.69787 0.78181 0.0
C717 C -0.01457 0.68666 0.84557 0.0
C718 C -0.00045 0.69076 0.82316 0.0
H719 H 0.94897 0.68345 0.86291 0.0
H720 H -0.00525 0.68352 0.86364 0.0
C721 C -0.0135 0.69473 0.80017 0.0
C722 C 0.75124 0.48916 0.30178 0.0
C723 C 0.75745 0.50238 0.32428 0.0
H724 H 0.74626 0.45273 0.28373 0.0
C725 C 0.76386 0.48827 0.34604 0.0
H726 H 0.74622 0.49946 0.28467 0.0
C727 C 0.76389 0.46173 0.3455 0.0
C728 C 0.75751 0.44841 0.32319 0.0
H729 H 0.76879 0.49772 0.3637 0.0
H730 H 0.76884 0.45167 0.36278 0.0
C731 C 0.75127 0.46241 0.30124 0.0
C732 C -0.01374 0.25799 0.80016 0.0
C733 C -0.00042 0.25207 0.82256 0.0
H734 H 0.94989 0.26271 0.78261 0.0
C735 C -0.01425 0.24587 0.84464 0.0
H736 H -0.00365 0.26285 0.78281 0.0
C737 C 0.95937 0.24579 0.84453 0.0
C738 C 0.94594 0.25191 0.82233 0.0
H739 H -0.00472 0.24113 0.86224 0.0
H740 H 0.94953 0.24099 0.86204 0.0
C741 C 0.95966 0.25791 0.80005 0.0
C742 C 0.19199 0.46054 0.30304 0.0
C743 C 0.20366 0.44739 0.32317 0.0
H744 H 0.18283 0.49686 0.28673 0.0
C745 C 0.21561 0.46153 0.34239 0.0
H746 H 0.1826 0.45023 0.28793 0.0
C747 C 0.21577 0.48808 0.3417 0.0
C748 C 0.20395 0.50133 0.32178 0.0
H749 H 0.22485 0.4521 0.35816 0.0
H750 H 0.22511 0.49822 0.35696 0.0
C751 C 0.19212 0.48726 0.30237 0.0
C752 C 0.12447 0.96279 0.22184 0.0
C753 C 0.13657 0.94907 0.24128 0.0
H754 H 0.11475 -0.00084 0.20663 0.0
C755 C 0.14918 0.96266 0.26052 0.0
H756 H 0.11457 0.95302 0.20671 0.0
C757 C 0.14929 -0.01061 0.26047 0.0
C758 C 0.13678 0.00304 0.24118 0.0
H759 H 0.1587 0.95269 0.27577 0.0
H760 H 0.15889 -0.00066 0.27569 0.0
C761 C 0.12457 -0.01064 0.2218 0.0
C762 C 0.48658 0.65307 0.75573 0.0
C763 C 0.5002 0.63365 0.7681 0.0
H764 H 0.45002 0.66799 0.74579 0.0
C765 C 0.48665 0.61438 0.78061 0.0
H766 H 0.49644 0.6682 0.7459 0.0
C767 C 0.46026 0.61427 0.78056 0.0
C768 C 0.44655 0.63341 0.76798 0.0
H769 H 0.49643 0.59914 0.7904 0.0
H770 H 0.45061 0.59894 0.7903 0.0
C771 C 0.46 0.65294 0.75566 0.0
C772 C 0.79516 -0.01057 0.25503 0.0
C773 C 0.81352 0.00297 0.2688 0.0
H774 H 0.78109 0.95272 0.24388 0.0
C775 C 0.8316 -0.01085 0.28267 0.0
H776 H 0.78097 -0.00051 0.24411 0.0
C777 C 0.83165 0.96261 0.28257 0.0
C778 C 0.81365 0.94895 0.26854 0.0
H779 H 0.84598 -0.00116 0.29357 0.0
H780 H 0.84608 0.9528 0.29339 0.0
C781 C 0.79524 0.96265 0.25488 0.0
C782 C 0.48578 0.34198 0.74074 0.0
C783 C 0.49956 0.32139 0.75071 0.0
H784 H 0.44963 0.35815 0.73276 0.0
C785 C 0.48618 0.30028 0.76014 0.0
H786 H 0.49535 0.35854 0.7332 0.0
C787 C 0.45957 0.30004 0.75986 0.0
C788 C 0.44591 0.32093 0.75017 0.0
H789 H 0.49621 0.28409 0.76794 0.0
H790 H 0.44974 0.28369 0.76747 0.0
C791 C 0.45942 0.34176 0.74048 0.0
C792 C 0.11733 -0.01063 0.72851 0.0
C793 C 0.13334 0.00268 0.7118 0.0
H794 H 0.104 0.95345 0.74153 0.0
C795 C 0.14922 -0.01136 0.69519 0.0
H796 H 0.10481 -0.00056 0.74158 0.0
C797 C 0.14877 0.96186 0.69518 0.0
C798 C 0.13239 0.94868 0.71174 0.0
H799 H 0.16179 -0.0017 0.68206 0.0
H800 H 0.16099 0.95153 0.68204 0.0
C801 C 0.11685 0.96284 0.72847 0.0
C802 C 0.46024 0.6518 0.19628 0.0
C803 C 0.44707 0.6293 0.202 0.0
H804 H 0.49644 0.66968 0.19173 0.0
C805 C 0.46105 0.60734 0.20811 0.0
H806 H 0.45006 0.66906 0.19151 0.0
C807 C 0.48745 0.60769 0.20825 0.0
C808 C 0.50072 0.63001 0.20226 0.0
H809 H 0.45162 0.58967 0.21268 0.0
H810 H 0.49746 0.59029 0.21291 0.0
C811 C 0.48681 0.65215 0.1964 0.0
C812 C 0.82377 -0.01133 0.7315 0.0
C813 C 0.81173 0.00247 0.71208 0.0
H814 H 0.83336 0.95222 0.74666 0.0
C815 C 0.79922 -0.01108 0.69274 0.0
H816 H 0.83358 -0.0016 0.74672 0.0
C817 C 0.79909 0.96219 0.69269 0.0
C818 C 0.81147 0.94846 0.71199 0.0
H819 H 0.78974 -0.00106 0.67748 0.0
H820 H 0.78954 0.95231 0.6774 0.0
C821 C 0.82363 0.96209 0.73146 0.0
C822 C 0.48557 0.34144 0.17835 0.0
C823 C 0.49958 0.32083 0.18797 0.0
H824 H 0.44919 0.35752 0.1711 0.0
C825 C 0.48642 0.29969 0.19764 0.0
H826 H 0.49498 0.35803 0.1707 0.0
C827 C 0.45982 0.29939 0.19786 0.0
C828 C 0.44592 0.32022 0.18843 0.0
H829 H 0.49663 0.28349 0.2052 0.0
H830 H 0.45019 0.28296 0.2056 0.0
C831 C 0.45918 0.34114 0.17858 0.0
C832 C 0.25291 0.15333 -0.00936 0.0
C833 C 0.25177 0.13029 0.00425 0.0
H834 H 0.25374 0.17126 0.95378 0.0
C835 C 0.25042 0.10738 -0.00956 0.0
H836 H 0.25395 0.17133 0.0007 0.0
C837 C 0.2503 0.10734 0.96385 0.0
C838 C 0.25151 0.13021 0.95011 0.0
H839 H 0.24946 0.08925 0.00016 0.0
H840 H 0.24925 0.08918 0.95408 0.0
C841 C 0.25278 0.15329 0.96379 0.0
C842 C 0.25854 0.8443 -0.00927 0.0
C843 C 0.255 0.82169 0.0045 0.0
H844 H 0.26118 0.86217 0.95437 0.0
C845 C 0.25145 0.79886 -0.00914 0.0
H846 H 0.26135 0.86226 0.00049 0.0
C847 C 0.25135 0.79881 0.96402 0.0
C848 C 0.2548 0.82158 0.95037 0.0
H849 H 0.24868 0.7811 0.00088 0.0
H850 H 0.2485 0.78101 0.954 0.0
C851 C 0.25844 0.84425 0.96413 0.0
C852 C 0.65045 0.75952 0.48978 0.0
C853 C 0.64052 0.73876 0.50341 0.0
H854 H 0.65754 0.77611 0.453 0.0
C855 C 0.63087 0.71804 0.48962 0.0
H856 H 0.65803 0.77581 0.49979 0.0
C857 C 0.63057 0.71821 0.46299 0.0
C858 C 0.63993 0.73911 0.44927 0.0
H859 H 0.62309 0.70169 0.49938 0.0
H860 H 0.62259 0.70199 0.45317 0.0
C861 C 0.65016 0.75969 0.46296 0.0
C862 C 0.68704 0.10721 -0.01083 0.0
C863 C 0.69093 0.12984 0.0029 0.0
H864 H 0.68401 0.08923 0.9528 0.0
C865 C 0.69478 0.15254 -0.01075 0.0
H866 H 0.68401 0.08935 -0.00105 0.0
C867 C 0.69477 0.15248 0.96243 0.0
C868 C 0.69092 0.1297 0.9488 0.0
H869 H 0.69782 0.17032 -0.00074 0.0
H870 H 0.69782 0.1702 0.95241 0.0
C871 C 0.68704 0.10714 0.96256 0.0
C872 C 0.29704 0.1917 0.49097 0.0
C873 C 0.30681 0.21265 0.50444 0.0
H874 H 0.28956 0.175 0.45432 0.0
C875 C 0.31578 0.23358 0.49051 0.0
H876 H 0.28996 0.17526 0.50111 0.0
C877 C 0.31553 0.23345 0.46388 0.0
C878 C 0.30632 0.21236 0.45031 0.0
H879 H 0.32341 0.25008 0.50016 0.0
H880 H 0.32299 0.24984 0.45394 0.0
C881 C 0.29681 0.19156 0.46416 0.0
C882 C 0.6794 0.84288 -0.01147 0.0
C883 C 0.6871 0.82114 0.00201 0.0
H884 H 0.67337 0.86027 0.95237 0.0
C885 C 0.69446 0.79931 -0.01191 0.0
H886 H 0.67355 0.86003 -0.00148 0.0
C887 C 0.69435 0.79945 0.96126 0.0
C888 C 0.68689 0.82141 0.9479 0.0
H889 H 0.70049 0.78223 -0.00211 0.0
H890 H 0.70031 0.78247 0.95103 0.0
C891 C 0.6793 0.84302 0.96193 0.0
C892 C 0.64013 0.17533 0.49651 0.0
C893 C 0.64326 0.20046 0.50524 0.0
H894 H 0.63665 0.1504 0.46432 0.0
C895 C 0.64649 0.21991 0.48719 0.0
H896 H 0.63754 0.15987 0.50987 0.0
C897 C 0.64618 0.21443 0.46103 0.0
C898 C 0.64238 0.1894 0.45229 0.0
H899 H 0.64901 0.23946 0.49324 0.0
H900 H 0.64838 0.22994 0.44765 0.0
C901 C 0.63957 0.16989 0.47036 0.0
C902 C 0.29478 0.75712 0.46271 0.0
C903 C 0.30789 0.73806 0.44894 0.0
H904 H 0.28497 0.7724 0.49962 0.0
C905 C 0.32046 0.71887 0.46262 0.0
H906 H 0.28495 0.77223 0.45279 0.0
C907 C 0.32044 0.71894 0.48926 0.0
C908 C 0.30793 0.73826 0.50312 0.0
H909 H 0.33072 0.70384 0.45275 0.0
H910 H 0.33068 0.70396 0.49896 0.0
C911 C 0.29485 0.75725 0.48955 0.0
C912 C 0.12234 0.3155 0.25174 0.0
C913 C 0.14322 0.33153 0.24775 0.0
H914 H 0.09612 0.28954 0.2347 0.0
C915 C 0.15023 0.33789 0.22279 0.0
H916 H 0.11705 0.30988 0.27091 0.0
C917 C 0.13847 0.32604 0.20215 0.0
C918 C 0.11941 0.30789 0.20624 0.0
H919 H 0.16668 0.34963 0.21929 0.0
H920 H 0.14604 0.32906 0.18314 0.0
C921 C 0.11034 0.30387 0.23106 0.0
C922 C 0.11183 0.65463 0.719 0.0
C923 C 0.11664 0.6464 0.74386 0.0
H924 H 0.12272 0.65179 0.67968 0.0
C925 C 0.13215 0.6249 0.7476 0.0
H926 H 0.10053 0.67157 0.71575 0.0
C927 C 0.14478 0.61342 0.72695 0.0
C928 C 0.14229 0.62366 0.70246 0.0
H929 H 0.1366 0.6187 0.76676 0.0
H930 H 0.15862 0.59859 0.73056 0.0
C931 C 0.12466 0.64339 0.69843 0.0
C932 C 0.80927 0.60906 0.23251 0.0
C933 C 0.81067 0.61968 0.257 0.0
H934 H 0.81816 0.61423 0.19292 0.0
C935 C 0.82796 0.63943 0.26152 0.0
H936 H 0.79574 0.59419 0.22848 0.0
C937 C 0.84094 0.65077 0.24125 0.0
C938 C 0.83669 0.64253 0.21623 0.0
H939 H 0.82911 0.6481 0.28026 0.0
H940 H 0.85149 0.66803 0.24479 0.0
C941 C 0.82217 0.62053 0.21218 0.0
C942 C 0.83753 0.30515 0.72227 0.0
C943 C 0.8296 0.31043 0.74729 0.0
H944 H 0.82935 0.30993 0.6826 0.0
C945 C 0.81151 0.32977 0.75159 0.0
H946 H 0.85094 0.28989 0.71848 0.0
C947 C 0.79927 0.3414 0.73108 0.0
C948 C 0.80486 0.33361 0.70609 0.0
H949 H 0.80475 0.33374 0.77077 0.0
H950 H 0.78336 0.35399 0.73489 0.0
C951 C 0.8251 0.31658 0.70176 0.0
C952 C 0.22388 0.14561 0.33999 0.0
C953 C 0.24803 0.14213 0.32931 0.0
H954 H 0.18414 0.13931 0.33524 0.0
C955 C 0.25134 0.12465 0.30914 0.0
H956 H 0.22083 0.15939 0.35515 0.0
C957 C 0.23048 0.11289 0.29803 0.0
C958 C 0.20604 0.11869 0.30679 0.0
H959 H 0.26981 0.122 0.30038 0.0
H960 H 0.23325 0.10165 0.28085 0.0
C961 C 0.20294 0.13411 0.3286 0.0
C962 C 0.30103 0.72433 0.83992 0.0
C963 C 0.30417 0.74892 0.83024 0.0
H964 H 0.30864 0.68462 0.83395 0.0
C965 C 0.32234 0.75309 0.81099 0.0
H966 H 0.28675 0.72063 0.85435 0.0
C967 C 0.33513 0.73261 0.79959 0.0
C968 C 0.32965 0.70771 0.80714 0.0
H969 H 0.32474 0.77193 0.803 0.0
H970 H 0.34688 0.73603 0.78294 0.0
C971 C 0.31358 0.70378 0.82826 0.0
C972 C 0.69675 0.82719 0.30978 0.0
C973 C 0.69968 0.80881 0.32901 0.0
H974 H 0.71533 0.85087 0.28226 0.0
C975 C 0.72378 0.80413 0.33891 0.0
H976 H 0.6783 0.83077 0.30161 0.0
C977 C 0.74497 0.81541 0.32758 0.0
C978 C 0.74219 0.83183 0.30663 0.0
H979 H 0.72652 0.78966 0.35333 0.0
H980 H 0.76365 0.80938 0.33354 0.0
C981 C 0.71788 0.83879 0.29877 0.0
C982 C 0.62242 0.1995 0.81195 0.0
C983 C 0.64101 0.20295 0.83069 0.0
H984 H 0.59781 0.21752 0.78505 0.0
C985 C 0.64497 0.22735 0.8407 0.0
H986 H 0.61937 0.18082 0.80372 0.0
C987 C 0.63277 0.24835 0.82981 0.0
C988 C 0.61622 0.2451 0.80916 0.0
H989 H 0.65957 0.23051 0.85473 0.0
H990 H 0.63832 0.2673 0.83569 0.0
C991 C 0.60995 0.22044 0.80136 0.0
C992 C 0.24319 0.82587 0.63679 0.0
C993 C 0.24025 0.80392 0.62167 0.0
H994 H 0.22525 0.85253 0.66244 0.0
C995 C 0.2159 0.79479 0.61699 0.0
H996 H 0.26195 0.83277 0.64116 0.0
C997 C 0.19508 0.80579 0.62944 0.0
C998 C 0.19829 0.82622 0.64653 0.0
H999 H 0.21328 0.77748 0.60603 0.0
H1000 H 0.17676 0.79684 0.62754 0.0
C1001 C 0.22225 0.83715 0.64899 0.0
C1002 C 0.61822 0.75911 0.14008 0.0
C1003 C 0.63572 0.75412 0.12031 0.0
H1004 H 0.59456 0.74313 0.16919 0.0
C1005 C 0.63742 0.72947 0.11015 0.0
H1006 H 0.61685 0.77799 0.14841 0.0
C1007 C 0.62457 0.70949 0.1221 0.0
C1008 C 0.6098 0.71406 0.14413 0.0
H1009 H 0.65112 0.72508 0.09528 0.0
H1010 H 0.62878 0.69014 0.11616 0.0
C1011 C 0.6053 0.73919 0.15191 0.0
C1012 C 0.71456 0.11097 0.65747 0.0
C1013 C 0.7386 0.11535 0.64709 0.0
H1014 H 0.67555 0.12207 0.65752 0.0
C1015 C 0.74085 0.12987 0.6247 0.0
H1016 H 0.71249 0.10045 0.6751 0.0
C1017 C 0.71967 0.14218 0.61449 0.0
C1018 C 0.6962 0.14036 0.6269 0.0
H1019 H 0.75938 0.13404 0.61684 0.0
H1020 H 0.72226 0.15539 0.59887 0.0
C1021 C 0.69349 0.12353 0.64752 0.0
C1022 C 0.32047 0.1981 0.14603 0.0
C1023 C 0.30328 0.20263 0.12616 0.0
H1024 H 0.34431 0.21461 0.17446 0.0
C1025 C 0.30121 0.22718 0.11604 0.0
H1026 H 0.32207 0.1793 0.15435 0.0
C1027 C 0.3139 0.24742 0.1277 0.0
C1028 C 0.32904 0.24319 0.14927 0.0
H1029 H 0.28772 0.23119 0.1011 0.0
H1030 H 0.30981 0.26667 0.12155 0.0
C1031 C 0.33335 0.21823 0.15745 0.0
C1032 C 0.82426 0.63669 0.69998 0.0
C1033 C 0.80471 0.61915 0.70441 0.0
H1034 H 0.84955 0.66378 0.7166 0.0
C1035 C 0.79968 0.61123 0.7294 0.0
H1036 H 0.82806 0.64342 0.68082 0.0
C1037 C 0.81183 0.62306 0.74985 0.0
C1038 C 0.82933 0.64268 0.74548 0.0
H1039 H 0.78429 0.59824 0.73329 0.0
H1040 H 0.80553 0.61886 0.76909 0.0
C1041 C 0.83663 0.64829 0.72041 0.0
C1042 C 0.83483 0.29817 0.23299 0.0
C1043 C 0.82897 0.30522 0.20799 0.0
H1044 H 0.82496 0.30221 0.27249 0.0
C1045 C 0.8127 0.32609 0.20392 0.0
H1046 H 0.84677 0.28173 0.23652 0.0
C1047 C 0.80035 0.33799 0.22449 0.0
C1048 C 0.80392 0.32883 0.24927 0.0
H1049 H 0.80749 0.3314 0.1847 0.0
H1050 H 0.78592 0.35219 0.22074 0.0
C1051 C 0.82226 0.30983 0.25351 0.0
C1052 C 0.13243 0.32863 0.74948 0.0
C1053 C 0.11613 0.30793 0.74554 0.0
H1054 H 0.15923 0.35415 0.7325 0.0
C1055 C 0.11012 0.30076 0.72058 0.0
H1056 H 0.13776 0.33403 0.76867 0.0
C1057 C 0.12264 0.31204 0.69997 0.0
C1058 C 0.14108 0.33078 0.70409 0.0
H1059 H 0.09816 0.28444 0.71712 0.0
H1060 H 0.11986 0.30425 0.68103 0.0
C1061 C 0.14473 0.34015 0.72883 0.0
C1062 C 0.1305 0.60827 0.22848 0.0
C1063 C 0.13783 0.62025 0.25118 0.0
H1064 H 0.11506 0.61388 0.19104 0.0
C1065 C 0.12981 0.6454 0.25603 0.0
H1066 H 0.13673 0.58903 0.22424 0.0
C1067 C 0.11765 0.65944 0.23731 0.0
C1068 C 0.11289 0.6485 0.2135 0.0
H1069 H 0.13528 0.65511 0.27342 0.0
H1070 H 0.11442 0.6796 0.2405 0.0
C1071 C 0.11807 0.62246 0.20959 0.0
C1072 C 0.74366 0.81846 0.6247 0.0
C1073 C 0.74057 0.83317 0.64701 0.0
H1074 H 0.72603 0.79313 0.59799 0.0
C1075 C 0.71619 0.83768 0.65661 0.0
H1076 H 0.76246 0.8142 0.61742 0.0
C1077 C 0.69552 0.82534 0.64579 0.0
C1078 C 0.69894 0.8085 0.6251 0.0
H1079 H 0.71346 0.84833 0.67418 0.0
H1080 H 0.67721 0.82707 0.65511 0.0
C1081 C 0.72287 0.80635 0.61362 0.0
C1082 C 0.63519 0.25152 0.12409 0.0
C1083 C 0.61742 0.24759 0.14378 0.0
H1084 H 0.66285 0.23434 0.09919 0.0
C1085 C 0.60978 0.22277 0.14944 0.0
H1086 H 0.64169 0.27057 0.11983 0.0
C1087 C 0.62211 0.20209 0.13784 0.0
C1088 C 0.64192 0.20605 0.12025 0.0
H1089 H 0.59661 0.21929 0.16496 0.0
H1090 H 0.61804 0.18307 0.14461 0.0
C1091 C 0.64728 0.23084 0.11225 0.0
C1092 C 0.25044 0.12539 0.64403 0.0
C1093 C 0.24696 0.14359 0.62473 0.0
H1094 H 0.23258 0.10138 0.67173 0.0
C1095 C 0.22272 0.14749 0.61482 0.0
H1096 H 0.26899 0.12242 0.65222 0.0
C1097 C 0.20188 0.1356 0.62619 0.0
C1098 C 0.20515 0.11939 0.64724 0.0
H1099 H 0.21955 0.16182 0.60036 0.0
H1100 H 0.18303 0.14108 0.62026 0.0
C1101 C 0.22967 0.11323 0.65512 0.0
C1102 C 0.30403 0.72543 0.11262 0.0
C1103 C 0.30664 0.7499 0.12288 0.0
H1104 H 0.31213 0.68577 0.11771 0.0
C1105 C 0.32461 0.75407 0.1421 0.0
H1106 H 0.28994 0.72171 0.09819 0.0
C1107 C 0.33756 0.73361 0.15304 0.0
C1108 C 0.33246 0.70875 0.14502 0.0
H1109 H 0.32665 0.77282 0.1505 0.0
H1110 H 0.34899 0.73696 0.16978 0.0
C1111 C 0.31679 0.70491 0.12377 0.0
C1112 C 0.72785 0.15596 0.33912 0.0
C1113 C 0.7034 0.14737 0.33397 0.0
H1114 H 0.76706 0.15342 0.32888 0.0
C1115 C 0.70028 0.12561 0.3186 0.0
H1116 H 0.73064 0.1731 0.35029 0.0
C1117 C 0.72115 0.11416 0.30646 0.0
C1118 C 0.74525 0.12471 0.30925 0.0
H1119 H 0.68147 0.11911 0.31388 0.0
H1120 H 0.71803 0.09905 0.29274 0.0
C1121 C 0.74863 0.14479 0.32671 0.0
C1122 C 0.30165 0.22637 0.8398 0.0
C1123 C 0.30456 0.20191 0.82945 0.0
H1124 H 0.30925 0.26608 0.8347 0.0
C1125 C 0.32236 0.19786 0.80974 0.0
H1126 H 0.28766 0.23 0.85461 0.0
C1127 C 0.33498 0.21837 0.79863 0.0
C1128 C 0.32974 0.2432 0.80693 0.0
H1129 H 0.32462 0.17914 0.80125 0.0
H1130 H 0.34643 0.21508 0.78168 0.0
C1131 C 0.31404 0.24697 0.82843 0.0
C1132 C 0.222 0.80439 0.34092 0.0
C1133 C 0.24605 0.8117 0.33242 0.0
H1134 H 0.18212 0.8067 0.33421 0.0
C1135 C 0.24819 0.83179 0.31488 0.0
H1136 H 0.2199 0.78856 0.35395 0.0
C1137 C 0.22658 0.84248 0.30386 0.0
C1138 C 0.20267 0.83281 0.30996 0.0
H1139 H 0.26662 0.83739 0.30775 0.0
H1140 H 0.22878 0.85604 0.28849 0.0
C1141 C 0.20042 0.8147 0.32953 0.0
C1142 C 0.63186 0.70648 0.82619 0.0
C1143 C 0.61659 0.71013 0.80461 0.0
H1144 H 0.65799 0.72347 0.85232 0.0
C1145 C 0.61197 0.73488 0.79598 0.0
H1146 H 0.63617 0.6874 0.8327 0.0
C1147 C 0.62474 0.75536 0.8069 0.0
C1148 C 0.64207 0.75137 0.82676 0.0
H1149 H 0.60088 0.73804 0.77896 0.0
H1150 H 0.62292 0.77397 0.79823 0.0
C1151 C 0.64439 0.72706 0.83738 0.0
C1152 C 0.1094 0.16061 0.18132 0.0
C1153 C 0.10218 0.18411 0.19207 0.0
H1154 H 0.11545 0.12072 0.18767 0.0
C1155 C 0.09254 0.18488 0.21702 0.0
H1156 H 0.11703 0.15962 0.16214 0.0
C1157 C 0.09221 0.16274 0.23178 0.0
C1158 C 0.10069 0.13944 0.22148 0.0
H1159 H 0.08704 0.20285 0.22567 0.0
H1160 H 0.08694 0.16413 0.25175 0.0
C1161 C 0.10822 0.13832 0.1958 0.0
C1162 C 0.31219 0.61316 0.69254 0.0
C1163 C 0.31172 0.60428 0.71771 0.0
H1164 H 0.29027 0.62337 0.65991 0.0
C1165 C 0.28897 0.59481 0.72789 0.0
H1166 H 0.32934 0.62113 0.68457 0.0
C1167 C 0.26674 0.59544 0.71357 0.0
C1168 C 0.26683 0.60645 0.68927 0.0
H1169 H 0.28807 0.58852 0.74754 0.0
H1170 H 0.24919 0.58906 0.72215 0.0
C1171 C 0.28979 0.61471 0.6786 0.0
C1172 C 0.84098 0.81218 0.19477 0.0
C1173 C 0.8483 0.81274 0.22045 0.0
H1174 H 0.8326 0.78856 0.1624 0.0
C1175 C 0.8571 0.79023 0.23189 0.0
H1176 H 0.83342 0.82911 0.18579 0.0
C1177 C 0.85682 0.76717 0.21851 0.0
C1178 C 0.84728 0.76629 0.19368 0.0
H1179 H 0.86223 0.79012 0.25187 0.0
H1180 H 0.86218 0.7498 0.2282 0.0
C1181 C 0.84018 0.78899 0.18155 0.0
C1182 C 0.63524 0.3411 0.69552 0.0
C1183 C 0.63581 0.34895 0.72112 0.0
H1184 H 0.65723 0.33177 0.66211 0.0
C1185 C 0.65874 0.35738 0.73151 0.0
H1186 H 0.61794 0.33387 0.68733 0.0
C1187 C 0.68105 0.35655 0.71704 0.0
C1188 C 0.6808 0.34662 0.69222 0.0
H1189 H 0.65969 0.36291 0.75142 0.0
H1190 H 0.69874 0.36193 0.72582 0.0
C1191 C 0.6577 0.33958 0.68126 0.0
C1192 C 0.08686 0.76919 0.74203 0.0
C1193 C 0.09907 0.76889 0.76566 0.0
H1194 H 0.07871 0.79101 0.70856 0.0
C1195 C 0.10779 0.79182 0.77616 0.0
H1196 H 0.08008 0.75167 0.73361 0.0
C1197 C 0.1058 0.81452 0.76243 0.0
C1198 C 0.09605 0.81432 0.73764 0.0
H1199 H 0.11726 0.79196 0.7944 0.0
H1200 H 0.1143 0.8316 0.77007 0.0
C1201 C 0.08576 0.7917 0.7279 0.0
C1202 C 0.66642 0.61281 0.21672 0.0
C1203 C 0.64238 0.60962 0.22799 0.0
H1204 H 0.70634 0.61607 0.22264 0.0
C1205 C 0.6408 0.60261 0.25377 0.0
H1206 H 0.66825 0.61799 0.1968 0.0
C1207 C 0.66287 0.60095 0.26843 0.0
C1208 C 0.68656 0.60654 0.25747 0.0
H1209 H 0.62257 0.60027 0.26299 0.0
H1210 H 0.66125 0.59704 0.28864 0.0
C1211 C 0.68825 0.61169 0.2314 0.0
C1212 C 0.84685 0.16303 0.76909 0.0
C1213 C 0.84617 0.18698 0.75723 0.0
H1214 H 0.84511 0.12249 0.76385 0.0
C1215 C 0.8473 0.18844 0.73063 0.0
H1216 H 0.84583 0.16157 0.78966 0.0
C1217 C 0.84728 0.16623 0.71596 0.0
C1218 C 0.84588 0.1422 0.72766 0.0
H1219 H 0.84662 0.20674 0.72118 0.0
H1220 H 0.84635 0.16789 0.69539 0.0
C1221 C 0.84675 0.14069 0.75436 0.0
C1222 C 0.31141 0.33941 0.26249 0.0
C1223 C 0.31117 0.34822 0.23728 0.0
H1224 H 0.28905 0.32918 0.29513 0.0
C1225 C 0.28849 0.35779 0.22714 0.0
H1226 H 0.32851 0.33134 0.27043 0.0
C1227 C 0.26605 0.35707 0.24141 0.0
C1228 C 0.2659 0.346 0.26567 0.0
H1229 H 0.28778 0.36405 0.20748 0.0
H1230 H 0.24853 0.36331 0.23276 0.0
C1231 C 0.28881 0.33787 0.27644 0.0
C1232 C 0.18724 0.11087 0.13889 0.0
C1233 C 0.21214 0.10152 0.13886 0.0
H1234 H 0.15508 0.12154 0.1618 0.0
C1235 C 0.22204 0.0912 0.16141 0.0
H1236 H 0.17947 0.11941 0.12187 0.0
C1237 C 0.20793 0.09184 0.18408 0.0
C1238 C 0.18408 0.10359 0.18461 0.0
H1239 H 0.24145 0.08446 0.16193 0.0
H1240 H 0.21645 0.08507 0.20155 0.0
C1241 C 0.17347 0.11236 0.16175 0.0
C1242 C 0.33961 0.69352 0.63804 0.0
C1243 C 0.34711 0.71906 0.63884 0.0
H1244 H 0.33076 0.66023 0.65984 0.0
C1245 C 0.35573 0.72936 0.66197 0.0
H1246 H 0.33226 0.6854 0.62059 0.0
C1247 C 0.35538 0.71483 0.6843 0.0
C1248 C 0.34566 0.69009 0.68389 0.0
H1249 H 0.36099 0.74922 0.66314 0.0
H1250 H 0.36085 0.72355 0.70217 0.0
C1251 C 0.33846 0.67926 0.66052 0.0
C1252 C 0.77317 0.82906 0.16188 0.0
C1253 C 0.76431 0.84254 0.18338 0.0
H1254 H 0.76647 0.81869 0.12294 0.0
C1255 C 0.74305 0.85843 0.18114 0.0
H1256 H 0.78963 0.81678 0.16317 0.0
C1257 C 0.72951 0.85903 0.1583 0.0
C1258 C 0.73773 0.84465 0.13714 0.0
H1259 H 0.73592 0.86894 0.19752 0.0
H1260 H 0.71181 0.8695 0.15762 0.0
C1261 C 0.76019 0.83046 0.13879 0.0
C1262 C 0.61024 0.27423 0.66356 0.0
C1263 C 0.60077 0.26455 0.68664 0.0
H1264 H 0.61688 0.26711 0.62373 0.0
C1265 C 0.58774 0.24142 0.68665 0.0
H1266 H 0.62031 0.29211 0.66317 0.0
C1267 C 0.58647 0.22691 0.66429 0.0
C1268 C 0.59732 0.23584 0.64149 0.0
H1269 H 0.58035 0.23367 0.7043 0.0
H1270 H 0.57871 0.20789 0.66522 0.0
C1271 C 0.60803 0.26016 0.64099 0.0
C1272 C 0.17144 0.83752 0.79402 0.0
C1273 C 0.18164 0.84599 0.77075 0.0
H1274 H 0.17794 0.83119 0.83387 0.0
C1275 C 0.20544 0.85755 0.77043 0.0
H1276 H 0.15309 0.82852 0.79467 0.0
C1277 C 0.21986 0.8584 0.79268 0.0
C1278 C 0.21027 0.84856 0.81569 0.0
H1279 H 0.21363 0.86413 0.75265 0.0
H1280 H 0.23919 0.86507 0.79155 0.0
C1281 C 0.18548 0.8393 0.81647 0.0
C1282 C 0.60588 0.68178 0.29162 0.0
C1283 C 0.59804 0.69325 0.26883 0.0
H1284 H 0.61275 0.68688 0.33161 0.0
C1285 C 0.58733 0.71767 0.26955 0.0
H1286 H 0.61433 0.66294 0.29133 0.0
C1287 C 0.58666 0.7314 0.29244 0.0
C1288 C 0.5962 0.72068 0.31498 0.0
H1289 H 0.58136 0.72686 0.2521 0.0
H1290 H 0.58066 0.75115 0.29212 0.0
C1291 C 0.60464 0.6953 0.31467 0.0
C1292 C 0.73814 0.09269 0.76794 0.0
C1293 C 0.76223 0.1036 0.76779 0.0
H1294 H 0.70441 0.08596 0.78977 0.0
C1295 C 0.77289 0.11183 0.79083 0.0
H1296 H 0.7296 0.08639 0.7503 0.0
C1297 C 0.75891 0.1106 0.81358 0.0
C1298 C 0.73387 0.10193 0.81331 0.0
H1299 H 0.7915 0.12036 0.79097 0.0
H1300 H 0.76676 0.11872 0.8308 0.0
C1301 C 0.7239 0.0922 0.79051 0.0
C1302 C 0.33714 0.27304 0.29512 0.0
C1303 C 0.34616 0.26296 0.27189 0.0
H1304 H 0.33024 0.26623 0.33489 0.0
C1305 C 0.35832 0.23919 0.27166 0.0
H1306 H 0.32767 0.29136 0.29567 0.0
C1307 C 0.35916 0.22461 0.29392 0.0
C1308 C 0.34868 0.234 0.31684 0.0
H1309 H 0.3653 0.23108 0.25391 0.0
H1310 H 0.36627 0.20525 0.29281 0.0
C1311 C 0.33888 0.25884 0.31757 0.0
C1312 C 0.17834 0.21119 0.09453 0.0
C1313 C 0.17879 0.18767 0.10702 0.0
H1314 H 0.15643 0.24463 0.08635 0.0
C1315 C 0.15606 0.17737 0.1163 0.0
H1316 H 0.19569 0.21943 0.08726 0.0
C1317 C 0.13342 0.19111 0.11447 0.0
C1318 C 0.13344 0.21576 0.10437 0.0
H1319 H 0.15599 0.15922 0.12597 0.0
H1320 H 0.11647 0.18359 0.12329 0.0
C1321 C 0.15588 0.22538 0.09366 0.0
C1322 C 0.15665 0.77256 0.84022 0.0
C1323 C 0.17984 0.76174 0.84753 0.0
H1324 H 0.11702 0.76654 0.83431 0.0
C1325 C 0.18031 0.73708 0.85755 0.0
H1326 H 0.15591 0.79153 0.83231 0.0
C1327 C 0.15816 0.72262 0.85815 0.0
C1328 C 0.13516 0.73296 0.84956 0.0
H1329 H 0.19805 0.72838 0.86315 0.0
H1330 H 0.15932 0.7028 0.86366 0.0
C1331 C 0.13436 0.75841 0.84167 0.0
C1332 C 0.67225 0.66308 0.33169 0.0
C1333 C 0.68098 0.68497 0.34423 0.0
H1334 H 0.67915 0.62381 0.32273 0.0
C1335 C 0.70227 0.68318 0.35994 0.0
H1336 H 0.65576 0.66401 0.31959 0.0
C1337 C 0.71596 0.66033 0.36121 0.0
C1338 C 0.70786 0.63873 0.34774 0.0
H1339 H 0.70929 0.69985 0.36977 0.0
H1340 H 0.73368 0.65993 0.37147 0.0
C1341 C 0.68536 0.64001 0.3338 0.0
C1342 C 0.78748 0.17813 0.83276 0.0
C1343 C 0.76509 0.18801 0.84357 0.0
H1344 H 0.82669 0.18449 0.82452 0.0
C1345 C 0.76578 0.21111 0.85698 0.0
H1346 H 0.78733 0.16034 0.8223 0.0
C1347 C 0.78816 0.22522 0.85761 0.0
C1348 C 0.8103 0.21584 0.84581 0.0
H1349 H 0.74868 0.21906 0.86538 0.0
H1350 H 0.7878 0.24411 0.86595 0.0
C1351 C 0.81004 0.19174 0.8343 0.0
C1352 C 0.23689 0.26441 0.35762 0.0
C1353 C 0.26154 0.26526 0.34771 0.0
H1354 H 0.20231 0.28512 0.36394 0.0
C1355 C 0.27192 0.28879 0.34071 0.0
H1356 H 0.22855 0.2464 0.36299 0.0
C1357 C 0.25737 0.31106 0.34241 0.0
C1358 C 0.23199 0.30989 0.35021 0.0
H1359 H 0.2909 0.28982 0.33292 0.0
H1360 H 0.26521 0.32873 0.33543 0.0
C1361 C 0.22205 0.28653 0.35844 0.0
C1362 C 0.75852 0.72783 0.11191 0.0
C1363 C 0.75994 0.75367 0.10595 0.0
H1364 H 0.77886 0.69351 0.11927 0.0
C1365 C 0.78356 0.7644 0.09999 0.0
H1366 H 0.74049 0.71926 0.11663 0.0
C1367 C 0.8058 0.74982 0.10208 0.0
C1368 C 0.80446 0.72433 0.10993 0.0
H1369 H 0.78498 0.78445 0.0955 0.0
H1370 H 0.82395 0.75893 0.09943 0.0
C1371 C 0.78052 0.71321 0.11346 0.0
C1372 C 0.72522 0.28502 0.60073 0.0
C1373 C 0.71406 0.30891 0.60582 0.0
H1374 H 0.7199 0.24458 0.59843 0.0
C1375 C 0.68779 0.3105 0.60946 0.0
H1376 H 0.74554 0.28329 0.59833 0.0
C1377 C 0.67329 0.28828 0.61007 0.0
C1378 C 0.68477 0.26431 0.60653 0.0
H1379 H 0.67884 0.32855 0.6141 0.0
H1380 H 0.65338 0.28979 0.61471 0.0
C1381 C 0.71065 0.26289 0.60092 0.0
C1382 C 0.26068 0.63697 0.61194 0.0
C1383 C 0.23602 0.63719 0.60228 0.0
H1384 H 0.29247 0.65952 0.62311 0.0
C1385 C 0.22622 0.65982 0.59198 0.0
H1386 H 0.26837 0.61984 0.62038 0.0
C1387 C 0.24019 0.68231 0.5929 0.0
C1388 C 0.26374 0.68258 0.60496 0.0
H1389 H 0.20699 0.66051 0.58498 0.0
H1390 H 0.23177 0.69982 0.58604 0.0
C1391 C 0.27427 0.65967 0.61377 0.0
C1392 C 0.84089 0.81236 0.75663 0.0
C1393 C 0.84687 0.81113 0.73054 0.0
H1394 H 0.83343 0.79116 0.79069 0.0
C1395 C 0.85394 0.7876 0.7197 0.0
H1396 H 0.83464 0.83012 0.76522 0.0
C1397 C 0.85358 0.76538 0.73432 0.0
C1398 C 0.84556 0.76636 0.75982 0.0
H1399 H 0.85799 0.78613 0.69945 0.0
H1400 H 0.8578 0.74727 0.72525 0.0
C1401 C 0.83989 0.79004 0.77109 0.0
C1402 C 0.65727 0.35861 0.22528 0.0
C1403 C 0.63456 0.34905 0.23545 0.0
H1404 H 0.6971 0.3642 0.23089 0.0
C1405 C 0.63418 0.33994 0.26053 0.0
H1406 H 0.6581 0.36511 0.2057 0.0
C1407 C 0.65664 0.33818 0.27434 0.0
C1408 C 0.67958 0.34648 0.26365 0.0
H1409 H 0.61703 0.33194 0.26849 0.0
H1410 H 0.65623 0.32931 0.29292 0.0
C1411 C 0.67957 0.35778 0.23949 0.0
C1412 C 0.09128 0.16246 0.72381 0.0
C1413 C 0.10003 0.13945 0.73422 0.0
H1414 H 0.08607 0.20269 0.7294 0.0
C1415 C 0.10786 0.13894 0.75972 0.0
H1416 H 0.08578 0.16338 0.70396 0.0
C1417 C 0.10912 0.16155 0.77381 0.0
C1418 C 0.10171 0.18476 0.76286 0.0
H1419 H 0.1153 0.12156 0.76789 0.0
H1420 H 0.117 0.16107 0.7928 0.0
C1421 C 0.09173 0.18493 0.73819 0.0
C1422 C 0.30735 0.59697 0.25125 0.0
C1423 C 0.3077 0.5997 0.22465 0.0
H1424 H 0.28408 0.59561 0.28495 0.0
C1425 C 0.28481 0.59824 0.21117 0.0
H1426 H 0.32465 0.59851 0.26209 0.0
C1427 C 0.26175 0.59716 0.22418 0.0
C1428 C 0.26128 0.59692 0.25083 0.0
H1429 H 0.28462 0.60042 0.19062 0.0
H1430 H 0.2443 0.59852 0.21352 0.0
C1431 C 0.28416 0.59554 0.26429 0.0
C1432 C 0.85724 0.15878 0.22663 0.0
C1433 C 0.84681 0.13626 0.21682 0.0
H1434 H 0.86363 0.1987 0.22084 0.0
C1435 C 0.83737 0.13612 0.1919 0.0
H1436 H 0.86407 0.15943 0.24606 0.0
C1437 C 0.8359 0.1588 0.17807 0.0
C1438 C 0.84485 0.18164 0.18858 0.0
H1439 H 0.82879 0.11911 0.1842 0.0
H1440 H 0.82671 0.15872 0.15968 0.0
C1441 C 0.85668 0.18126 0.21241 0.0
C1442 C 0.26463 0.35598 0.71561 0.0
C1443 C 0.26516 0.34579 0.69089 0.0
H1444 H 0.28558 0.36223 0.74994 0.0
C1445 C 0.28839 0.33822 0.68002 0.0
H1446 H 0.24686 0.36179 0.72433 0.0
C1447 C 0.31067 0.33962 0.69418 0.0
C1448 C 0.3098 0.3477 0.71968 0.0
H1449 H 0.28919 0.33017 0.66101 0.0
H1450 H 0.32806 0.33211 0.68601 0.0
C1451 C 0.28676 0.35653 0.73007 0.0
C1452 C 0.09083 0.79029 0.2323 0.0
C1453 C 0.09902 0.81345 0.22185 0.0
H1454 H 0.08592 0.75017 0.22634 0.0
C1455 C 0.10584 0.8144 0.19596 0.0
H1456 H 0.08608 0.78903 0.2524 0.0
C1457 C 0.10666 0.79204 0.18139 0.0
C1458 C 0.09987 0.76866 0.19232 0.0
H1459 H 0.11287 0.83189 0.18771 0.0
H1460 H 0.11388 0.79279 0.16202 0.0
C1461 C 0.09093 0.76808 0.21752 0.0
C1462 C 0.68055 0.59468 0.71458 0.0
C1463 C 0.68068 0.60518 0.69006 0.0
H1464 H 0.65883 0.58849 0.74869 0.0
C1465 C 0.65778 0.6132 0.67919 0.0
H1466 H 0.69806 0.58853 0.72331 0.0
C1467 C 0.63521 0.61202 0.6932 0.0
C1468 C 0.63543 0.6037 0.71857 0.0
H1469 H 0.65752 0.62148 0.66033 0.0
H1470 H 0.61811 0.61996 0.6851 0.0
C1471 C 0.65812 0.59434 0.72891 0.0
C1472 C 0.72578 0.86163 0.79137 0.0
C1473 C 0.73527 0.85105 0.81398 0.0
H1474 H 0.73184 0.86772 0.7513 0.0
C1475 C 0.75997 0.84118 0.81414 0.0
H1476 H 0.70654 0.86881 0.7907 0.0
C1477 C 0.77391 0.83941 0.79139 0.0
C1478 C 0.76366 0.84845 0.76848 0.0
H1479 H 0.76743 0.83248 0.83124 0.0
H1480 H 0.79214 0.82988 0.79145 0.0
C1481 C 0.74007 0.86073 0.76883 0.0
C1482 C 0.60791 0.27375 0.29138 0.0
C1483 C 0.6013 0.26269 0.26794 0.0
H1484 H 0.61319 0.26803 0.33149 0.0
C1485 C 0.59185 0.23785 0.26747 0.0
H1486 H 0.61538 0.29287 0.29211 0.0
C1487 C 0.59107 0.22351 0.2899 0.0
C1488 C 0.59899 0.2341 0.31317 0.0
H1489 H 0.58679 0.22898 0.24955 0.0
H1490 H 0.58591 0.20362 0.28879 0.0
C1491 C 0.60635 0.25968 0.31393 0.0
C1492 C 0.17325 0.11317 0.79297 0.0
C1493 C 0.18382 0.1042 0.76995 0.0
H1494 H 0.17918 0.12021 0.83283 0.0
C1495 C 0.20762 0.09234 0.77012 0.0
H1496 H 0.15489 0.12243 0.79321 0.0
C1497 C 0.2217 0.09171 0.7926 0.0
C1498 C 0.21178 0.10212 0.81534 0.0
H1499 H 0.2161 0.08541 0.75253 0.0
H1500 H 0.24105 0.08481 0.79182 0.0
C1501 C 0.18696 0.11165 0.81565 0.0
C1502 C 0.33733 0.69235 0.31352 0.0
C1503 C 0.34558 0.7177 0.31277 0.0
H1504 H 0.3284 0.65896 0.29163 0.0
C1505 C 0.35475 0.72763 0.28964 0.0
H1506 H 0.32953 0.68449 0.33094 0.0
C1507 C 0.35435 0.71297 0.26732 0.0
C1508 C 0.34417 0.68843 0.26772 0.0
H1509 H 0.36072 0.74729 0.28853 0.0
H1510 H 0.36036 0.72142 0.24947 0.0
C1511 C 0.33634 0.67791 0.29103 0.0
C1512 C 0.72222 0.09515 0.16232 0.0
C1513 C 0.73249 0.10415 0.13926 0.0
H1514 H 0.72773 0.08986 0.20253 0.0
C1515 C 0.7576 0.11255 0.13868 0.0
H1516 H 0.70265 0.08918 0.16329 0.0
C1517 C 0.77139 0.11419 0.16129 0.0
C1518 C 0.76061 0.10646 0.18455 0.0
H1519 H 0.76566 0.12008 0.12125 0.0
H1520 H 0.79007 0.12248 0.16072 0.0
C1521 C 0.73637 0.09585 0.18476 0.0
C1522 C 0.35728 0.23884 0.68417 0.0
C1523 C 0.34591 0.26298 0.6842 0.0
H1524 H 0.36462 0.20481 0.66259 0.0
C1525 C 0.33762 0.27348 0.66109 0.0
H1526 H 0.36365 0.23039 0.70184 0.0
C1527 C 0.33932 0.25936 0.63844 0.0
C1528 C 0.34839 0.23424 0.63887 0.0
H1529 H 0.32872 0.29208 0.66076 0.0
H1530 H 0.3312 0.2671 0.6212 0.0
C1531 C 0.35813 0.22439 0.66171 0.0
C1532 C 0.17309 0.83767 0.16365 0.0
C1533 C 0.18373 0.8462 0.1866 0.0
H1534 H 0.17893 0.83111 0.12358 0.0
C1535 C 0.20763 0.85755 0.18622 0.0
H1536 H 0.15462 0.82886 0.1636 0.0
C1537 C 0.22169 0.8582 0.16353 0.0
C1538 C 0.21167 0.84834 0.1408 0.0
H1539 H 0.21614 0.86417 0.20375 0.0
H1540 H 0.24107 0.86479 0.16408 0.0
C1541 C 0.1868 0.83922 0.14077 0.0
C1542 C 0.58765 0.72664 0.66004 0.0
C1543 C 0.59808 0.71691 0.63723 0.0
H1544 H 0.58146 0.72069 0.70012 0.0
C1545 C 0.60762 0.69196 0.63678 0.0
H1546 H 0.58075 0.74609 0.66093 0.0
C1547 C 0.6092 0.67799 0.6594 0.0
C1548 C 0.60029 0.68843 0.6825 0.0
H1549 H 0.61621 0.68432 0.61955 0.0
H1550 H 0.6185 0.65958 0.65906 0.0
C1551 C 0.58835 0.7123 0.68246 0.0
C1552 C 0.81148 0.75985 0.83723 0.0
C1553 C 0.81096 0.73499 0.84679 0.0
H1554 H 0.78961 0.7924 0.82627 0.0
C1555 C 0.78818 0.72539 0.85675 0.0
H1556 H 0.8287 0.76735 0.82896 0.0
C1557 C 0.76596 0.73996 0.85592 0.0
C1558 C 0.76609 0.76387 0.84418 0.0
H1559 H 0.78726 0.70599 0.8636 0.0
H1560 H 0.74838 0.73183 0.86273 0.0
C1561 C 0.78909 0.77399 0.83543 0.0
C1562 C 0.78859 0.22775 0.0944 0.0
C1563 C 0.81123 0.21706 0.10353 0.0
H1564 H 0.74866 0.22285 0.08899 0.0
C1565 C 0.81135 0.19174 0.11183 0.0
H1566 H 0.78796 0.24751 0.08855 0.0
C1567 C 0.78872 0.17813 0.11322 0.0
C1568 C 0.76587 0.18936 0.10544 0.0
H1569 H 0.8284 0.18336 0.11958 0.0
H1570 H 0.7889 0.15929 0.12148 0.0
C1571 C 0.76612 0.21383 0.09496 0.0
C1572 C 0.22495 0.29015 0.59434 0.0
C1573 C 0.23469 0.313 0.60413 0.0
H1574 H 0.23091 0.25002 0.58872 0.0
C1575 C 0.25945 0.31334 0.6135 0.0
H1576 H 0.20565 0.28937 0.58758 0.0
C1577 C 0.27329 0.29067 0.61542 0.0
C1578 C 0.26295 0.26758 0.60698 0.0
H1579 H 0.26709 0.33063 0.62157 0.0
H1580 H 0.29162 0.29102 0.62448 0.0
C1581 C 0.2392 0.26765 0.59531 0.0
C1582 C 0.18198 0.7367 0.09856 0.0
C1583 C 0.1817 0.76134 0.10883 0.0
H1584 H 0.16068 0.70262 0.09235 0.0
C1585 C 0.15861 0.7723 0.11667 0.0
H1586 H 0.19964 0.72791 0.09254 0.0
C1587 C 0.13622 0.75836 0.11538 0.0
C1588 C 0.13681 0.73297 0.10714 0.0
H1589 H 0.15801 0.79124 0.1248 0.0
H1590 H 0.11893 0.76662 0.12303 0.0
C1591 C 0.15972 0.72242 0.09815 0.0
C1592 C 0.7234 0.66175 0.59501 0.0
C1593 C 0.71325 0.63878 0.60408 0.0
H1594 H 0.71756 0.70189 0.5897 0.0
C1595 C 0.68808 0.63832 0.61261 0.0
H1596 H 0.743 0.66264 0.58892 0.0
C1597 C 0.67404 0.66094 0.61426 0.0
C1598 C 0.68466 0.68411 0.60643 0.0
H1599 H 0.68009 0.62097 0.62019 0.0
H1600 H 0.65529 0.66046 0.62264 0.0
C1601 C 0.70902 0.6842 0.59574 0.0
C1602 C 0.13499 0.19315 0.84027 0.0
C1603 C 0.13555 0.21854 0.84848 0.0
H1604 H 0.15684 0.15997 0.83066 0.0
C1605 C 0.1584 0.22874 0.85738 0.0
H1606 H 0.11774 0.18513 0.83276 0.0
C1607 C 0.18065 0.21417 0.8568 0.0
C1608 C 0.18044 0.18955 0.84647 0.0
H1609 H 0.15936 0.24852 0.8632 0.0
H1610 H 0.19827 0.22273 0.8627 0.0
C1611 C 0.15739 0.1789 0.8388 0.0
C1612 C 0.26828 0.66854 0.31928 0.0
C1613 C 0.26098 0.68833 0.33588 0.0
H1614 H 0.2614 0.6306 0.30639 0.0
C1615 C 0.24129 0.68421 0.35348 0.0
H1616 H 0.28343 0.67121 0.30557 0.0
C1617 C 0.22801 0.66118 0.3532 0.0
C1618 C 0.23516 0.64159 0.33628 0.0
H1619 H 0.23533 0.69923 0.36645 0.0
H1620 H 0.21157 0.65904 0.36544 0.0
C1621 C 0.25582 0.64524 0.31986 0.0
C1622 C 0.72052 0.29154 0.35937 0.0
C1623 C 0.71081 0.31447 0.34965 0.0
H1624 H 0.71465 0.25149 0.36456 0.0
C1625 C 0.68611 0.31508 0.34011 0.0
H1626 H 0.73977 0.29055 0.36627 0.0
C1627 C 0.67233 0.29254 0.33786 0.0
C1628 C 0.68275 0.26938 0.34612 0.0
H1629 H 0.6785 0.33247 0.33213 0.0
H1630 H 0.65401 0.29303 0.32877 0.0
C1631 C 0.70637 0.2692 0.35802 0.0
loop_
_geom_bond_atom_site_label_1
_geom_bond_atom_site_label_2
_geom_bond_distance
_geom_bond_site_symmetry_2
_ccdc_geom_bond_type
Mg0 O1 2.028 . S
Mg0 O7 1.986 . S
Mg0 O9 2.114 . S
Mg0 O10 2.251 . S
Mg0 O13 2.010 . S
O1 Mg0 2.028 . S
O1 C4 1.250 . S
O2 Mg3 2.028 . S
O2 C4 1.248 . S
Mg3 O2 2.028 . S
Mg3 O8 2.032 . S
Mg3 O10 2.079 . S
C4 O1 1.250 . S
C4 O2 1.248 . S
C5 O6 1.264 . S
C5 O13 1.249 . S
O6 C5 1.264 . S
O7 Mg0 1.986 . S
O7 C11 1.246 . S
O8 Mg3 2.032 . S
O8 C11 1.259 . S
O9 Mg0 2.114 . S
O9 C12 1.252 . S
O10 Mg0 2.251 . S
O10 Mg3 2.079 . S
O10 C12 1.273 . S
C11 O7 1.246 . S
C11 O8 1.259 . S
C12 O9 1.252 . S
C12 O10 1.273 . S
O13 Mg0 2.010 . S
O13 C5 1.249 . S
Mg14 O15 2.028 . S
Mg14 O21 1.986 . S
Mg14 O23 2.114 . S
Mg14 O24 2.251 . S
Mg14 O27 2.010 . S
O15 Mg14 2.028 . S
O15 C18 1.250 . S
O16 Mg17 2.028 . S
O16 C18 1.248 . S
Mg17 O16 2.028 . S
Mg17 O22 2.032 . S
Mg17 O24 2.079 . S
C18 O15 1.250 . S
C18 O16 1.248 . S
C19 O20 1.264 . S
C19 O27 1.249 . S
O20 C19 1.264 . S
O21 Mg14 1.986 . S
O21 C25 1.246 . S
O22 Mg17 2.032 . S
O22 C25 1.259 . S
O23 Mg14 2.114 . S
O23 C26 1.252 . S
O24 Mg14 2.251 . S
O24 Mg17 2.079 . S
O24 C26 1.273 . S
C25 O21 1.246 . S
C25 O22 1.259 . S
C26 O23 1.252 . S
C26 O24 1.273 . S
O27 Mg14 2.010 . S
O27 C19 1.249 . S
Mg28 O29 2.028 . S
Mg28 O35 1.986 . S
Mg28 O37 2.114 . S
Mg28 O38 2.251 . S
Mg28 O41 2.010 . S
O29 Mg28 2.028 . S
O29 C32 1.250 . S
O30 Mg31 2.028 . S
O30 C32 1.248 . S
Mg31 O30 2.028 . S
Mg31 O36 2.032 . S
Mg31 O38 2.079 . S
C32 O29 1.250 . S
C32 O30 1.248 . S
C33 O34 1.264 . S
C33 O41 1.249 . S
O34 C33 1.264 . S
O35 Mg28 1.986 . S
O35 C39 1.246 . S
O36 Mg31 2.032 . S
O36 C39 1.259 . S
O37 Mg28 2.114 . S
O37 C40 1.252 . S
O38 Mg28 2.251 . S
O38 Mg31 2.079 . S
O38 C40 1.273 . S
C39 O35 1.246 . S
C39 O36 1.259 . S
C40 O37 1.252 . S
C40 O38 1.273 . S
O41 Mg28 2.010 . S
O41 C33 1.249 . S
Mg42 O43 2.028 . S
Mg42 O49 1.986 . S
Mg42 O51 2.114 . S
Mg42 O52 2.251 . S
Mg42 O55 2.010 . S
O43 Mg42 2.028 . S
O43 C46 1.250 . S
O44 Mg45 2.028 . S
O44 C46 1.248 . S
Mg45 O44 2.028 . S
Mg45 O50 2.032 . S
Mg45 O52 2.079 . S
C46 O43 1.250 . S
C46 O44 1.248 . S
C47 O48 1.264 . S
C47 O55 1.249 . S
O48 C47 1.264 . S
O49 Mg42 1.986 . S
O49 C53 1.246 . S
O50 Mg45 2.032 . S
O50 C53 1.259 . S
O51 Mg42 2.114 . S
O51 C54 1.252 . S
O52 Mg42 2.251 . S
O52 Mg45 2.079 . S
O52 C54 1.273 . S
C53 O49 1.246 . S
C53 O50 1.259 . S
C54 O51 1.252 . S
C54 O52 1.273 . S
O55 Mg42 2.010 . S
O55 C47 1.249 . S
Mg56 O57 2.028 . S
Mg56 O63 1.986 . S
Mg56 O65 2.114 . S
Mg56 O66 2.251 . S
Mg56 O69 2.010 . S
O57 Mg56 2.028 . S
O57 C60 1.250 . S
O58 Mg59 2.028 . S
O58 C60 1.248 . S
Mg59 O58 2.028 . S
Mg59 O64 2.032 . S
Mg59 O66 2.079 . S
C60 O57 1.250 . S
C60 O58 1.248 . S
C61 O62 1.264 . S
C61 O69 1.249 . S
O62 C61 1.264 . S
O63 Mg56 1.986 . S
O63 C67 1.246 . S
O64 Mg59 2.032 . S
O64 C67 1.259 . S
O65 Mg56 2.114 . S
O65 C68 1.252 . S
O66 Mg56 2.251 . S
O66 Mg59 2.079 . S
O66 C68 1.273 . S
C67 O63 1.246 . S
C67 O64 1.259 . S
C68 O65 1.252 . S
C68 O66 1.273 . S
O69 Mg56 2.010 . S
O69 C61 1.249 . S
Mg70 O71 2.028 . S
Mg70 O77 1.986 . S
Mg70 O79 2.114 . S
Mg70 O80 2.251 . S
Mg70 O83 2.010 . S
O71 Mg70 2.028 . S
O71 C74 1.250 . S
O72 Mg73 2.028 . S
O72 C74 1.248 . S
Mg73 O72 2.028 . S
Mg73 O78 2.032 . S
Mg73 O80 2.079 . S
C74 O71 1.250 . S
C74 O72 1.248 . S
C75 O76 1.264 . S
C75 O83 1.249 . S
O76 C75 1.264 . S
O77 Mg70 1.986 . S
O77 C81 1.246 . S
O78 Mg73 2.032 . S
O78 C81 1.259 . S
O79 Mg70 2.114 . S
O79 C82 1.252 . S
O80 Mg70 2.251 . S
O80 Mg73 2.079 . S
O80 C82 1.273 . S
C81 O77 1.246 . S
C81 O78 1.259 . S
C82 O79 1.252 . S
C82 O80 1.273 . S
O83 Mg70 2.010 . S
O83 C75 1.249 . S
Mg84 O85 2.028 . S
Mg84 O91 1.986 . S
Mg84 O93 2.114 . S
Mg84 O94 2.251 . S
Mg84 O97 2.010 . S
O85 Mg84 2.028 . S
O85 C88 1.250 . S
O86 Mg87 2.028 . S
O86 C88 1.248 . S
Mg87 O86 2.028 . S
Mg87 O92 2.032 . S
Mg87 O94 2.079 . S
C88 O85 1.250 . S
C88 O86 1.248 . S
C89 O90 1.264 . S
C89 O97 1.249 . S
O90 C89 1.264 . S
O91 Mg84 1.986 . S
O91 C95 1.246 . S
O92 Mg87 2.032 . S
O92 C95 1.259 . S
O93 Mg84 2.114 . S
O93 C96 1.252 . S
O94 Mg84 2.251 . S
O94 Mg87 2.079 . S
O94 C96 1.273 . S
C95 O91 1.246 . S
C95 O92 1.259 . S
C96 O93 1.252 . S
C96 O94 1.273 . S
O97 Mg84 2.010 . S
O97 C89 1.249 . S
Mg98 O99 2.028 . S
Mg98 O105 1.986 . S
Mg98 O107 2.114 . S
Mg98 O108 2.251 . S
Mg98 O111 2.010 . S
O99 Mg98 2.028 . S
O99 C102 1.250 . S
O100 Mg101 2.028 . S
O100 C102 1.248 . S
Mg101 O100 2.028 . S
Mg101 O106 2.032 . S
Mg101 O108 2.079 . S
C102 O99 1.250 . S
C102 O100 1.248 . S
C103 O104 1.264 . S
C103 O111 1.249 . S
O104 C103 1.264 . S
O105 Mg98 1.986 . S
O105 C109 1.246 . S
O106 Mg101 2.032 . S
O106 C109 1.259 . S
O107 Mg98 2.114 . S
O107 C110 1.252 . S
O108 Mg98 2.251 . S
O108 Mg101 2.079 . S
O108 C110 1.273 . S
C109 O105 1.246 . S
C109 O106 1.259 . S
C110 O107 1.252 . S
C110 O108 1.273 . S
O111 Mg98 2.010 . S
O111 C103 1.249 . S
Mg112 O113 2.028 . S
Mg112 O119 1.986 . S
Mg112 O121 2.114 . S
Mg112 O122 2.251 . S
Mg112 O125 2.010 . S
O113 Mg112 2.028 . S
O113 C116 1.250 . S
O114 Mg115 2.028 . S
O114 C116 1.248 . S
Mg115 O114 2.028 . S
Mg115 O120 2.032 . S
Mg115 O122 2.079 . S
C116 O113 1.250 . S
C116 O114 1.248 . S
C117 O118 1.264 . S
C117 O125 1.249 . S
O118 C117 1.264 . S
O119 Mg112 1.986 . S
O119 C123 1.246 . S
O120 Mg115 2.032 . S
O120 C123 1.259 . S
O121 Mg112 2.114 . S
O121 C124 1.252 . S
O122 Mg112 2.251 . S
O122 Mg115 2.079 . S
O122 C124 1.273 . S
C123 O119 1.246 . S
C123 O120 1.259 . S
C124 O121 1.252 . S
C124 O122 1.273 . S
O125 Mg112 2.010 . S
O125 C117 1.249 . S
Mg126 O127 2.028 . S
Mg126 O133 1.986 . S
Mg126 O135 2.114 . S
Mg126 O136 2.251 . S
Mg126 O139 2.010 . S
O127 Mg126 2.028 . S
O127 C130 1.250 . S
O128 Mg129 2.028 . S
O128 C130 1.248 . S
Mg129 O128 2.028 . S
Mg129 O134 2.032 . S
Mg129 O136 2.079 . S
C130 O127 1.250 . S
C130 O128 1.248 . S
C131 O132 1.264 . S
C131 O139 1.249 . S
O132 C131 1.264 . S
O133 Mg126 1.986 . S
O133 C137 1.246 . S
O134 Mg129 2.032 . S
O134 C137 1.259 . S
O135 Mg126 2.114 . S
O135 C138 1.252 . S
O136 Mg126 2.251 . S
O136 Mg129 2.079 . S
O136 C138 1.273 . S
C137 O133 1.246 . S
C137 O134 1.259 . S
C138 O135 1.252 . S
C138 O136 1.273 . S
O139 Mg126 2.010 . S
O139 C131 1.249 . S
Mg140 O141 2.028 . S
Mg140 O147 1.986 . S
Mg140 O149 2.114 . S
Mg140 O150 2.251 . S
Mg140 O153 2.010 . S
O141 Mg140 2.028 . S
O141 C144 1.250 . S
O142 Mg143 2.028 . S
O142 C144 1.248 . S
Mg143 O142 2.028 . S
Mg143 O148 2.032 . S
Mg143 O150 2.079 . S
C144 O141 1.250 . S
C144 O142 1.248 . S
C145 O146 1.264 . S
C145 O153 1.249 . S
O146 C145 1.264 . S
O147 Mg140 1.986 . S
O147 C151 1.246 . S
O148 Mg143 2.032 . S
O148 C151 1.259 . S
O149 Mg140 2.114 . S
O149 C152 1.252 . S
O150 Mg140 2.251 . S
O150 Mg143 2.079 . S
O150 C152 1.273 . S
C151 O147 1.246 . S
C151 O148 1.259 . S
C152 O149 1.252 . S
C152 O150 1.273 . S
O153 Mg140 2.010 . S
O153 C145 1.249 . S
Mg154 O155 2.028 . S
Mg154 O161 1.986 . S
Mg154 O163 2.114 . S
Mg154 O164 2.251 . S
Mg154 O167 2.010 . S
O155 Mg154 2.028 . S
O155 C158 1.250 . S
O156 Mg157 2.028 . S
O156 C158 1.248 . S
Mg157 O156 2.028 . S
Mg157 O162 2.032 . S
Mg157 O164 2.079 . S
C158 O155 1.250 . S
C158 O156 1.248 . S
C159 O160 1.264 . S
C159 O167 1.249 . S
O160 C159 1.264 . S
O161 Mg154 1.986 . S
O161 C165 1.246 . S
O162 Mg157 2.032 . S
O162 C165 1.259 . S
O163 Mg154 2.114 . S
O163 C166 1.252 . S
O164 Mg154 2.251 . S
O164 Mg157 2.079 . S
O164 C166 1.273 . S
C165 O161 1.246 . S
C165 O162 1.259 . S
C166 O163 1.252 . S
C166 O164 1.273 . S
O167 Mg154 2.010 . S
O167 C159 1.249 . S
Mg168 O169 2.028 . S
Mg168 O175 1.986 . S
Mg168 O177 2.114 . S
Mg168 O178 2.251 . S
Mg168 O181 2.010 . S
O169 Mg168 2.028 . S
O169 C172 1.250 . S
O170 Mg171 2.028 . S
O170 C172 1.248 . S
Mg171 O170 2.028 . S
Mg171 O176 2.032 . S
Mg171 O178 2.079 . S
C172 O169 1.250 . S
C172 O170 1.248 . S
C173 O174 1.264 . S
C173 O181 1.249 . S
O174 C173 1.264 . S
O175 Mg168 1.986 . S
O175 C179 1.246 . S
O176 Mg171 2.032 . S
O176 C179 1.259 . S
O177 Mg168 2.114 . S
O177 C180 1.252 . S
O178 Mg168 2.251 . S
O178 Mg171 2.079 . S
O178 C180 1.273 . S
C179 O175 1.246 . S
C179 O176 1.259 . S
C180 O177 1.252 . S
C180 O178 1.273 . S
O181 Mg168 2.010 . S
O181 C173 1.249 . S
Mg182 O183 2.028 . S
Mg182 O189 1.986 . S
Mg182 O191 2.114 . S
Mg182 O192 2.251 . S
Mg182 O195 2.010 . S
O183 Mg182 2.028 . S
O183 C186 1.250 . S
O184 Mg185 2.028 . S
O184 C186 1.248 . S
Mg185 O184 2.028 . S
Mg185 O190 2.032 . S
Mg185 O192 2.079 . S
C186 O183 1.250 . S
C186 O184 1.248 . S
C187 O188 1.264 . S
C187 O195 1.249 . S
O188 C187 1.264 . S
O189 Mg182 1.986 . S
O189 C193 1.246 . S
O190 Mg185 2.032 . S
O190 C193 1.259 . S
O191 Mg182 2.114 . S
O191 C194 1.252 . S
O192 Mg182 2.251 . S
O192 Mg185 2.079 . S
O192 C194 1.273 . S
C193 O189 1.246 . S
C193 O190 1.259 . S
C194 O191 1.252 . S
C194 O192 1.273 . S
O195 Mg182 2.010 . S
O195 C187 1.249 . S
Mg196 O197 2.028 . S
Mg196 O203 1.986 . S
Mg196 O205 2.114 . S
Mg196 O206 2.251 . S
Mg196 O209 2.010 . S
O197 Mg196 2.028 . S
O197 C200 1.250 . S
O198 Mg199 2.028 . S
O198 C200 1.248 . S
Mg199 O198 2.028 . S
Mg199 O204 2.032 . S
Mg199 O206 2.079 . S
C200 O197 1.250 . S
C200 O198 1.248 . S
C201 O202 1.264 . S
C201 O209 1.249 . S
O202 C201 1.264 . S
O203 Mg196 1.986 . S
O203 C207 1.246 . S
O204 Mg199 2.032 . S
O204 C207 1.259 . S
O205 Mg196 2.114 . S
O205 C208 1.252 . S
O206 Mg196 2.251 . S
O206 Mg199 2.079 . S
O206 C208 1.273 . S
C207 O203 1.246 . S
C207 O204 1.259 . S
C208 O205 1.252 . S
C208 O206 1.273 . S
O209 Mg196 2.010 . S
O209 C201 1.249 . S
Mg210 O211 2.028 . S
Mg210 O217 1.986 . S
Mg210 O219 2.114 . S
Mg210 O220 2.251 . S
Mg210 O223 2.010 . S
O211 Mg210 2.028 . S
O211 C214 1.250 . S
O212 Mg213 2.028 . S
O212 C214 1.248 . S
Mg213 O212 2.028 . S
Mg213 O218 2.032 . S
Mg213 O220 2.079 . S
C214 O211 1.250 . S
C214 O212 1.248 . S
C215 O216 1.264 . S
C215 O223 1.249 . S
O216 C215 1.264 . S
O217 Mg210 1.986 . S
O217 C221 1.246 . S
O218 Mg213 2.032 . S
O218 C221 1.259 . S
O219 Mg210 2.114 . S
O219 C222 1.252 . S
O220 Mg210 2.251 . S
O220 Mg213 2.079 . S
O220 C222 1.273 . S
C221 O217 1.246 . S
C221 O218 1.259 . S
C222 O219 1.252 . S
C222 O220 1.273 . S
O223 Mg210 2.010 . S
O223 C215 1.249 . S
Mg224 O225 2.028 . S
Mg224 O231 1.986 . S
Mg224 O233 2.114 . S
Mg224 O234 2.251 . S
Mg224 O237 2.010 . S
O225 Mg224 2.028 . S
O225 C228 1.250 . S
O226 Mg227 2.028 . S
O226 C228 1.248 . S
Mg227 O226 2.028 . S
Mg227 O232 2.032 . S
Mg227 O234 2.079 . S
C228 O225 1.250 . S
C228 O226 1.248 . S
C229 O230 1.264 . S
C229 O237 1.249 . S
O230 C229 1.264 . S
O231 Mg224 1.986 . S
O231 C235 1.246 . S
O232 Mg227 2.032 . S
O232 C235 1.259 . S
O233 Mg224 2.114 . S
O233 C236 1.252 . S
O234 Mg224 2.251 . S
O234 Mg227 2.079 . S
O234 C236 1.273 . S
C235 O231 1.246 . S
C235 O232 1.259 . S
C236 O233 1.252 . S
C236 O234 1.273 . S
O237 Mg224 2.010 . S
O237 C229 1.249 . S
Mg238 O239 2.028 . S
Mg238 O245 1.986 . S
Mg238 O247 2.114 . S
Mg238 O248 2.251 . S
Mg238 O251 2.010 . S
O239 Mg238 2.028 . S
O239 C242 1.250 . S
O240 Mg241 2.028 . S
O240 C242 1.248 . S
Mg241 O240 2.028 . S
Mg241 O246 2.032 . S
Mg241 O248 2.079 . S
C242 O239 1.250 . S
C242 O240 1.248 . S
C243 O244 1.264 . S
C243 O251 1.249 . S
O244 C243 1.264 . S
O245 Mg238 1.986 . S
O245 C249 1.246 . S
O246 Mg241 2.032 . S
O246 C249 1.259 . S
O247 Mg238 2.114 . S
O247 C250 1.252 . S
O248 Mg238 2.251 . S
O248 Mg241 2.079 . S
O248 C250 1.273 . S
C249 O245 1.246 . S
C249 O246 1.259 . S
C250 O247 1.252 . S
C250 O248 1.273 . S
O251 Mg238 2.010 . S
O251 C243 1.249 . S
Mg252 O253 2.028 . S
Mg252 O259 1.986 . S
Mg252 O261 2.114 . S
Mg252 O262 2.251 . S
Mg252 O265 2.010 . S
O253 Mg252 2.028 . S
O253 C256 1.250 . S
O254 Mg255 2.028 . S
O254 C256 1.248 . S
Mg255 O254 2.028 . S
Mg255 O260 2.032 . S
Mg255 O262 2.079 . S
C256 O253 1.250 . S
C256 O254 1.248 . S
C257 O258 1.264 . S
C257 O265 1.249 . S
O258 C257 1.264 . S
O259 Mg252 1.986 . S
O259 C263 1.246 . S
O260 Mg255 2.032 . S
O260 C263 1.259 . S
O261 Mg252 2.114 . S
O261 C264 1.252 . S
O262 Mg252 2.251 . S
O262 Mg255 2.079 . S
O262 C264 1.273 . S
C263 O259 1.246 . S
C263 O260 1.259 . S
C264 O261 1.252 . S
C264 O262 1.273 . S
O265 Mg252 2.010 . S
O265 C257 1.249 . S
Mg266 O267 2.028 . S
Mg266 O273 1.986 . S
Mg266 O275 2.114 . S
Mg266 O276 2.251 . S
Mg266 O279 2.010 . S
O267 Mg266 2.028 . S
O267 C270 1.250 . S
O268 Mg269 2.028 . S
O268 C270 1.248 . S
Mg269 O268 2.028 . S
Mg269 O274 2.032 . S
Mg269 O276 2.079 . S
C270 O267 1.250 . S
C270 O268 1.248 . S
C271 O272 1.264 . S
C271 O279 1.249 . S
O272 C271 1.264 . S
O273 Mg266 1.986 . S
O273 C277 1.246 . S
O274 Mg269 2.032 . S
O274 C277 1.259 . S
O275 Mg266 2.114 . S
O275 C278 1.252 . S
O276 Mg266 2.251 . S
O276 Mg269 2.079 . S
O276 C278 1.273 . S
C277 O273 1.246 . S
C277 O274 1.259 . S
C278 O275 1.252 . S
C278 O276 1.273 . S
O279 Mg266 2.010 . S
O279 C271 1.249 . S
Mg280 O281 2.028 . S
Mg280 O287 1.986 . S
Mg280 O289 2.114 . S
Mg280 O290 2.251 . S
Mg280 O293 2.010 . S
O281 Mg280 2.028 . S
O281 C284 1.250 . S
O282 Mg283 2.028 . S
O282 C284 1.248 . S
Mg283 O282 2.028 . S
Mg283 O288 2.032 . S
Mg283 O290 2.079 . S
C284 O281 1.250 . S
C284 O282 1.248 . S
C285 O286 1.264 . S
C285 O293 1.249 . S
O286 C285 1.264 . S
O287 Mg280 1.986 . S
O287 C291 1.246 . S
O288 Mg283 2.032 . S
O288 C291 1.259 . S
O289 Mg280 2.114 . S
O289 C292 1.252 . S
O290 Mg280 2.251 . S
O290 Mg283 2.079 . S
O290 C292 1.273 . S
C291 O287 1.246 . S
C291 O288 1.259 . S
C292 O289 1.252 . S
C292 O290 1.273 . S
O293 Mg280 2.010 . S
O293 C285 1.249 . S
Mg294 O295 2.028 . S
Mg294 O301 1.986 . S
Mg294 O303 2.114 . S
Mg294 O304 2.251 . S
Mg294 O307 2.010 . S
O295 Mg294 2.028 . S
O295 C298 1.250 . S
O296 Mg297 2.028 . S
O296 C298 1.248 . S
Mg297 O296 2.028 . S
Mg297 O302 2.032 . S
Mg297 O304 2.079 . S
C298 O295 1.250 . S
C298 O296 1.248 . S
C299 O300 1.264 . S
C299 O307 1.249 . S
O300 C299 1.264 . S
O301 Mg294 1.986 . S
O301 C305 1.246 . S
O302 Mg297 2.032 . S
O302 C305 1.259 . S
O303 Mg294 2.114 . S
O303 C306 1.252 . S
O304 Mg294 2.251 . S
O304 Mg297 2.079 . S
O304 C306 1.273 . S
C305 O301 1.246 . S
C305 O302 1.259 . S
C306 O303 1.252 . S
C306 O304 1.273 . S
O307 Mg294 2.010 . S
O307 C299 1.249 . S
Mg308 O309 2.028 . S
Mg308 O315 1.986 . S
Mg308 O317 2.114 . S
Mg308 O318 2.251 . S
Mg308 O321 2.010 . S
O309 Mg308 2.028 . S
O309 C312 1.250 . S
O310 Mg311 2.028 . S
O310 C312 1.248 . S
Mg311 O310 2.028 . S
Mg311 O316 2.032 . S
Mg311 O318 2.079 . S
C312 O309 1.250 . S
C312 O310 1.248 . S
C313 O314 1.264 . S
C313 O321 1.249 . S
O314 C313 1.264 . S
O315 Mg308 1.986 . S
O315 C319 1.246 . S
O316 Mg311 2.032 . S
O316 C319 1.259 . S
O317 Mg308 2.114 . S
O317 C320 1.252 . S
O318 Mg308 2.251 . S
O318 Mg311 2.079 . S
O318 C320 1.273 . S
C319 O315 1.246 . S
C319 O316 1.259 . S
C320 O317 1.252 . S
C320 O318 1.273 . S
O321 Mg308 2.010 . S
O321 C313 1.249 . S
Mg322 O323 2.028 . S
Mg322 O329 1.986 . S
Mg322 O331 2.114 . S
Mg322 O332 2.251 . S
Mg322 O335 2.010 . S
O323 Mg322 2.028 . S
O323 C326 1.250 . S
O324 Mg325 2.028 . S
O324 C326 1.248 . S
Mg325 O324 2.028 . S
Mg325 O330 2.032 . S
Mg325 O332 2.079 . S
C326 O323 1.250 . S
C326 O324 1.248 . S
C327 O328 1.264 . S
C327 O335 1.249 . S
O328 C327 1.264 . S
O329 Mg322 1.986 . S
O329 C333 1.246 . S
O330 Mg325 2.032 . S
O330 C333 1.259 . S
O331 Mg322 2.114 . S
O331 C334 1.252 . S
O332 Mg322 2.251 . S
O332 Mg325 2.079 . S
O332 C334 1.273 . S
C333 O329 1.246 . S
C333 O330 1.259 . S
C334 O331 1.252 . S
C334 O332 1.273 . S
O335 Mg322 2.010 . S
O335 C327 1.249 . S
Mg336 O337 2.028 . S
Mg336 O343 1.986 . S
Mg336 O345 2.114 . S
Mg336 O346 2.251 . S
Mg336 O349 2.010 . S
O337 Mg336 2.028 . S
O337 C340 1.250 . S
O338 Mg339 2.028 . S
O338 C340 1.248 . S
Mg339 O338 2.028 . S
Mg339 O344 2.032 . S
Mg339 O346 2.079 . S
C340 O337 1.250 . S
C340 O338 1.248 . S
C341 O342 1.264 . S
C341 O349 1.249 . S
O342 C341 1.264 . S
O343 Mg336 1.986 . S
O343 C347 1.246 . S
O344 Mg339 2.032 . S
O344 C347 1.259 . S
O345 Mg336 2.114 . S
O345 C348 1.252 . S
O346 Mg336 2.251 . S
O346 Mg339 2.079 . S
O346 C348 1.273 . S
C347 O343 1.246 . S
C347 O344 1.259 . S
C348 O345 1.252 . S
C348 O346 1.273 . S
O349 Mg336 2.010 . S
O349 C341 1.249 . S
Mg350 O351 2.028 . S
Mg350 O357 1.986 . S
Mg350 O359 2.114 . S
Mg350 O360 2.251 . S
Mg350 O363 2.010 . S
O351 Mg350 2.028 . S
O351 C354 1.250 . S
O352 Mg353 2.028 . S
O352 C354 1.248 . S
Mg353 O352 2.028 . S
Mg353 O358 2.032 . S
Mg353 O360 2.079 . S
C354 O351 1.250 . S
C354 O352 1.248 . S
C355 O356 1.264 . S
C355 O363 1.249 . S
O356 C355 1.264 . S
O357 Mg350 1.986 . S
O357 C361 1.246 . S
O358 Mg353 2.032 . S
O358 C361 1.259 . S
O359 Mg350 2.114 . S
O359 C362 1.252 . S
O360 Mg350 2.251 . S
O360 Mg353 2.079 . S
O360 C362 1.273 . S
C361 O357 1.246 . S
C361 O358 1.259 . S
C362 O359 1.252 . S
C362 O360 1.273 . S
O363 Mg350 2.010 . S
O363 C355 1.249 . S
Mg364 O365 2.028 . S
Mg364 O371 1.986 . S
Mg364 O373 2.114 . S
Mg364 O374 2.251 . S
Mg364 O377 2.010 . S
O365 Mg364 2.028 . S
O365 C368 1.250 . S
O366 Mg367 2.028 . S
O366 C368 1.248 . S
Mg367 O366 2.028 . S
Mg367 O372 2.032 . S
Mg367 O374 2.079 . S
C368 O365 1.250 . S
C368 O366 1.248 . S
C369 O370 1.264 . S
C369 O377 1.249 . S
O370 C369 1.264 . S
O371 Mg364 1.986 . S
O371 C375 1.246 . S
O372 Mg367 2.032 . S
O372 C375 1.259 . S
O373 Mg364 2.114 . S
O373 C376 1.252 . S
O374 Mg364 2.251 . S
O374 Mg367 2.079 . S
O374 C376 1.273 . S
C375 O371 1.246 . S
C375 O372 1.259 . S
C376 O373 1.252 . S
C376 O374 1.273 . S
O377 Mg364 2.010 . S
O377 C369 1.249 . S
Mg378 O379 2.028 . S
Mg378 O385 1.986 . S
Mg378 O387 2.114 . S
Mg378 O388 2.251 . S
Mg378 O391 2.010 . S
O379 Mg378 2.028 . S
O379 C382 1.250 . S
O380 Mg381 2.028 . S
O380 C382 1.248 . S
Mg381 O380 2.028 . S
Mg381 O386 2.032 . S
Mg381 O388 2.079 . S
C382 O379 1.250 . S
C382 O380 1.248 . S
C383 O384 1.264 . S
C383 O391 1.249 . S
O384 C383 1.264 . S
O385 Mg378 1.986 . S
O385 C389 1.246 . S
O386 Mg381 2.032 . S
O386 C389 1.259 . S
O387 Mg378 2.114 . S
O387 C390 1.252 . S
O388 Mg378 2.251 . S
O388 Mg381 2.079 . S
O388 C390 1.273 . S
C389 O385 1.246 . S
C389 O386 1.259 . S
C390 O387 1.252 . S
C390 O388 1.273 . S
O391 Mg378 2.010 . S
O391 C383 1.249 . S
Mg392 O393 2.028 . S
Mg392 O399 1.986 . S
Mg392 O401 2.114 . S
Mg392 O402 2.251 . S
Mg392 O405 2.010 . S
O393 Mg392 2.028 . S
O393 C396 1.250 . S
O394 Mg395 2.028 . S
O394 C396 1.248 . S
Mg395 O394 2.028 . S
Mg395 O400 2.032 . S
Mg395 O402 2.079 . S
C396 O393 1.250 . S
C396 O394 1.248 . S
C397 O398 1.264 . S
C397 O405 1.249 . S
O398 C397 1.264 . S
O399 Mg392 1.986 . S
O399 C403 1.246 . S
O400 Mg395 2.032 . S
O400 C403 1.259 . S
O401 Mg392 2.114 . S
O401 C404 1.252 . S
O402 Mg392 2.251 . S
O402 Mg395 2.079 . S
O402 C404 1.273 . S
C403 O399 1.246 . S
C403 O400 1.259 . S
C404 O401 1.252 . S
C404 O402 1.273 . S
O405 Mg392 2.010 . S
O405 C397 1.249 . S
Mg406 O407 2.028 . S
Mg406 O413 1.986 . S
Mg406 O415 2.114 . S
Mg406 O416 2.251 . S
Mg406 O419 2.010 . S
O407 Mg406 2.028 . S
O407 C410 1.250 . S
O408 Mg409 2.028 . S
O408 C410 1.248 . S
Mg409 O408 2.028 . S
Mg409 O414 2.032 . S
Mg409 O416 2.079 . S
C410 O407 1.250 . S
C410 O408 1.248 . S
C411 O412 1.264 . S
C411 O419 1.249 . S
O412 C411 1.264 . S
O413 Mg406 1.986 . S
O413 C417 1.246 . S
O414 Mg409 2.032 . S
O414 C417 1.259 . S
O415 Mg406 2.114 . S
O415 C418 1.252 . S
O416 Mg406 2.251 . S
O416 Mg409 2.079 . S
O416 C418 1.273 . S
C417 O413 1.246 . S
C417 O414 1.259 . S
C418 O415 1.252 . S
C418 O416 1.273 . S
O419 Mg406 2.010 . S
O419 C411 1.249 . S
Mg420 O421 2.028 . S
Mg420 O427 1.986 . S
Mg420 O429 2.114 . S
Mg420 O430 2.251 . S
Mg420 O433 2.010 . S
O421 Mg420 2.028 . S
O421 C424 1.250 . S
O422 Mg423 2.028 . S
O422 C424 1.248 . S
Mg423 O422 2.028 . S
Mg423 O428 2.032 . S
Mg423 O430 2.079 . S
C424 O421 1.250 . S
C424 O422 1.248 . S
C425 O426 1.264 . S
C425 O433 1.249 . S
O426 C425 1.264 . S
O427 Mg420 1.986 . S
O427 C431 1.246 . S
O428 Mg423 2.032 . S
O428 C431 1.259 . S
O429 Mg420 2.114 . S
O429 C432 1.252 . S
O430 Mg420 2.251 . S
O430 Mg423 2.079 . S
O430 C432 1.273 . S
C431 O427 1.246 . S
C431 O428 1.259 . S
C432 O429 1.252 . S
C432 O430 1.273 . S
O433 Mg420 2.010 . S
O433 C425 1.249 . S
Mg434 O435 2.028 . S
Mg434 O441 1.986 . S
Mg434 O443 2.114 . S
Mg434 O444 2.251 . S
Mg434 O447 2.010 . S
O435 Mg434 2.028 . S
O435 C438 1.250 . S
O436 Mg437 2.028 . S
O436 C438 1.248 . S
Mg437 O436 2.028 . S
Mg437 O442 2.032 . S
Mg437 O444 2.079 . S
C438 O435 1.250 . S
C438 O436 1.248 . S
C439 O440 1.264 . S
C439 O447 1.249 . S
O440 C439 1.264 . S
O441 Mg434 1.986 . S
O441 C445 1.246 . S
O442 Mg437 2.032 . S
O442 C445 1.259 . S
O443 Mg434 2.114 . S
O443 C446 1.252 . S
O444 Mg434 2.251 . S
O444 Mg437 2.079 . S
O444 C446 1.273 . S
C445 O441 1.246 . S
C445 O442 1.259 . S
C446 O443 1.252 . S
C446 O444 1.273 . S
O447 Mg434 2.010 . S
O447 C439 1.249 . S
Mg448 O449 2.028 . S
Mg448 O455 1.986 . S
Mg448 O457 2.114 . S
Mg448 O458 2.251 . S
Mg448 O461 2.010 . S
O449 Mg448 2.028 . S
O449 C452 1.250 . S
O450 Mg451 2.028 . S
O450 C452 1.248 . S
Mg451 O450 2.028 . S
Mg451 O456 2.032 . S
Mg451 O458 2.079 . S
C452 O449 1.250 . S
C452 O450 1.248 . S
C453 O454 1.264 . S
C453 O461 1.249 . S
O454 C453 1.264 . S
O455 Mg448 1.986 . S
O455 C459 1.246 . S
O456 Mg451 2.032 . S
O456 C459 1.259 . S
O457 Mg448 2.114 . S
O457 C460 1.252 . S
O458 Mg448 2.251 . S
O458 Mg451 2.079 . S
O458 C460 1.273 . S
C459 O455 1.246 . S
C459 O456 1.259 . S
C460 O457 1.252 . S
C460 O458 1.273 . S
O461 Mg448 2.010 . S
O461 C453 1.249 . S
Mg462 O463 2.028 . S
Mg462 O469 1.986 . S
Mg462 O471 2.114 . S
Mg462 O472 2.251 . S
Mg462 O475 2.010 . S
O463 Mg462 2.028 . S
O463 C466 1.250 . S
O464 Mg465 2.028 . S
O464 C466 1.248 . S
Mg465 O464 2.028 . S
Mg465 O470 2.032 . S
Mg465 O472 2.079 . S
C466 O463 1.250 . S
C466 O464 1.248 . S
C467 O468 1.264 . S
C467 O475 1.249 . S
O468 C467 1.264 . S
O469 Mg462 1.986 . S
O469 C473 1.246 . S
O470 Mg465 2.032 . S
O470 C473 1.259 . S
O471 Mg462 2.114 . S
O471 C474 1.252 . S
O472 Mg462 2.251 . S
O472 Mg465 2.079 . S
O472 C474 1.273 . S
C473 O469 1.246 . S
C473 O470 1.259 . S
C474 O471 1.252 . S
C474 O472 1.273 . S
O475 Mg462 2.010 . S
O475 C467 1.249 . S
Mg476 O477 2.028 . S
Mg476 O483 1.986 . S
Mg476 O485 2.114 . S
Mg476 O486 2.251 . S
Mg476 O489 2.010 . S
O477 Mg476 2.028 . S
O477 C480 1.250 . S
O478 Mg479 2.028 . S
O478 C480 1.248 . S
Mg479 O478 2.028 . S
Mg479 O484 2.032 . S
Mg479 O486 2.079 . S
C480 O477 1.250 . S
C480 O478 1.248 . S
C481 O482 1.264 . S
C481 O489 1.249 . S
O482 C481 1.264 . S
O483 Mg476 1.986 . S
O483 C487 1.246 . S
O484 Mg479 2.032 . S
O484 C487 1.259 . S
O485 Mg476 2.114 . S
O485 C488 1.252 . S
O486 Mg476 2.251 . S
O486 Mg479 2.079 . S
O486 C488 1.273 . S
C487 O483 1.246 . S
C487 O484 1.259 . S
C488 O485 1.252 . S
C488 O486 1.273 . S
O489 Mg476 2.010 . S
O489 C481 1.249 . S
Mg490 O491 2.028 . S
Mg490 O497 1.986 . S
Mg490 O499 2.114 . S
Mg490 O500 2.251 . S
Mg490 O503 2.010 . S
O491 Mg490 2.028 . S
O491 C494 1.250 . S
O492 Mg493 2.028 . S
O492 C494 1.248 . S
Mg493 O492 2.028 . S
Mg493 O498 2.032 . S
Mg493 O500 2.079 . S
C494 O491 1.250 . S
C494 O492 1.248 . S
C495 O496 1.264 . S
C495 O503 1.249 . S
O496 C495 1.264 . S
O497 Mg490 1.986 . S
O497 C501 1.246 . S
O498 Mg493 2.032 . S
O498 C501 1.259 . S
O499 Mg490 2.114 . S
O499 C502 1.252 . S
O500 Mg490 2.251 . S
O500 Mg493 2.079 . S
O500 C502 1.273 . S
C501 O497 1.246 . S
C501 O498 1.259 . S
C502 O499 1.252 . S
C502 O500 1.273 . S
O503 Mg490 2.010 . S
O503 C495 1.249 . S
Mg504 O505 2.028 . S
Mg504 O511 1.986 . S
Mg504 O513 2.114 . S
Mg504 O514 2.251 . S
Mg504 O517 2.010 . S
O505 Mg504 2.028 . S
O505 C508 1.250 . S
O506 Mg507 2.028 . S
O506 C508 1.248 . S
Mg507 O506 2.028 . S
Mg507 O512 2.032 . S
Mg507 O514 2.079 . S
C508 O505 1.250 . S
C508 O506 1.248 . S
C509 O510 1.264 . S
C509 O517 1.249 . S
O510 C509 1.264 . S
O511 Mg504 1.986 . S
O511 C515 1.246 . S
O512 Mg507 2.032 . S
O512 C515 1.259 . S
O513 Mg504 2.114 . S
O513 C516 1.252 . S
O514 Mg504 2.251 . S
O514 Mg507 2.079 . S
O514 C516 1.273 . S
C515 O511 1.246 . S
C515 O512 1.259 . S
C516 O513 1.252 . S
C516 O514 1.273 . S
O517 Mg504 2.010 . S
O517 C509 1.249 . S
Mg518 O519 2.028 . S
Mg518 O525 1.986 . S
Mg518 O527 2.114 . S
Mg518 O528 2.251 . S
Mg518 O531 2.010 . S
O519 Mg518 2.028 . S
O519 C522 1.250 . S
O520 Mg521 2.028 . S
O520 C522 1.248 . S
Mg521 O520 2.028 . S
Mg521 O526 2.032 . S
Mg521 O528 2.079 . S
C522 O519 1.250 . S
C522 O520 1.248 . S
C523 O524 1.264 . S
C523 O531 1.249 . S
O524 C523 1.264 . S
O525 Mg518 1.986 . S
O525 C529 1.246 . S
O526 Mg521 2.032 . S
O526 C529 1.259 . S
O527 Mg518 2.114 . S
O527 C530 1.252 . S
O528 Mg518 2.251 . S
O528 Mg521 2.079 . S
O528 C530 1.273 . S
C529 O525 1.246 . S
C529 O526 1.259 . S
C530 O527 1.252 . S
C530 O528 1.273 . S
O531 Mg518 2.010 . S
O531 C523 1.249 . S
Mg532 O533 2.028 . S
Mg532 O539 1.986 . S
Mg532 O541 2.114 . S
Mg532 O542 2.251 . S
Mg532 O545 2.010 . S
O533 Mg532 2.028 . S
O533 C536 1.250 . S
O534 Mg535 2.028 . S
O534 C536 1.248 . S
Mg535 O534 2.028 . S
Mg535 O540 2.032 . S
Mg535 O542 2.079 . S
C536 O533 1.250 . S
C536 O534 1.248 . S
C537 O538 1.264 . S
C537 O545 1.249 . S
O538 C537 1.264 . S
O539 Mg532 1.986 . S
O539 C543 1.246 . S
O540 Mg535 2.032 . S
O540 C543 1.259 . S
O541 Mg532 2.114 . S
O541 C544 1.252 . S
O542 Mg532 2.251 . S
O542 Mg535 2.079 . S
O542 C544 1.273 . S
C543 O539 1.246 . S
C543 O540 1.259 . S
C544 O541 1.252 . S
C544 O542 1.273 . S
O545 Mg532 2.010 . S
O545 C537 1.249 . S
Mg546 O547 2.028 . S
Mg546 O553 1.986 . S
Mg546 O555 2.114 . S
Mg546 O556 2.251 . S
Mg546 O559 2.010 . S
O547 Mg546 2.028 . S
O547 C550 1.250 . S
O548 Mg549 2.028 . S
O548 C550 1.248 . S
Mg549 O548 2.028 . S
Mg549 O554 2.032 . S
Mg549 O556 2.079 . S
C550 O547 1.250 . S
C550 O548 1.248 . S
C551 O552 1.264 . S
C551 O559 1.249 . S
O552 C551 1.264 . S
O553 Mg546 1.986 . S
O553 C557 1.246 . S
O554 Mg549 2.032 . S
O554 C557 1.259 . S
O555 Mg546 2.114 . S
O555 C558 1.252 . S
O556 Mg546 2.251 . S
O556 Mg549 2.079 . S
O556 C558 1.273 . S
C557 O553 1.246 . S
C557 O554 1.259 . S
C558 O555 1.252 . S
C558 O556 1.273 . S
O559 Mg546 2.010 . S
O559 C551 1.249 . S
Mg560 O561 2.028 . S
Mg560 O567 1.986 . S
Mg560 O569 2.114 . S
Mg560 O570 2.251 . S
Mg560 O573 2.010 . S
O561 Mg560 2.028 . S
O561 C564 1.250 . S
O562 Mg563 2.028 . S
O562 C564 1.248 . S
Mg563 O562 2.028 . S
Mg563 O568 2.032 . S
Mg563 O570 2.079 . S
C564 O561 1.250 . S
C564 O562 1.248 . S
C565 O566 1.264 . S
C565 O573 1.249 . S
O566 C565 1.264 . S
O567 Mg560 1.986 . S
O567 C571 1.246 . S
O568 Mg563 2.032 . S
O568 C571 1.259 . S
O569 Mg560 2.114 . S
O569 C572 1.252 . S
O570 Mg560 2.251 . S
O570 Mg563 2.079 . S
O570 C572 1.273 . S
C571 O567 1.246 . S
C571 O568 1.259 . S
C572 O569 1.252 . S
C572 O570 1.273 . S
O573 Mg560 2.010 . S
O573 C565 1.249 . S
Mg574 O575 2.028 . S
Mg574 O581 1.986 . S
Mg574 O583 2.114 . S
Mg574 O584 2.251 . S
Mg574 O587 2.010 . S
O575 Mg574 2.028 . S
O575 C578 1.250 . S
O576 Mg577 2.028 . S
O576 C578 1.248 . S
Mg577 O576 2.028 . S
Mg577 O582 2.032 . S
Mg577 O584 2.079 . S
C578 O575 1.250 . S
C578 O576 1.248 . S
C579 O580 1.264 . S
C579 O587 1.249 . S
O580 C579 1.264 . S
O581 Mg574 1.986 . S
O581 C585 1.246 . S
O582 Mg577 2.032 . S
O582 C585 1.259 . S
O583 Mg574 2.114 . S
O583 C586 1.252 . S
O584 Mg574 2.251 . S
O584 Mg577 2.079 . S
O584 C586 1.273 . S
C585 O581 1.246 . S
C585 O582 1.259 . S
C586 O583 1.252 . S
C586 O584 1.273 . S
O587 Mg574 2.010 . S
O587 C579 1.249 . S
Mg588 O589 2.028 . S
Mg588 O595 1.986 . S
Mg588 O597 2.114 . S
Mg588 O598 2.251 . S
Mg588 O601 2.010 . S
O589 Mg588 2.028 . S
O589 C592 1.250 . S
O590 Mg591 2.028 . S
O590 C592 1.248 . S
Mg591 O590 2.028 . S
Mg591 O596 2.032 . S
Mg591 O598 2.079 . S
C592 O589 1.250 . S
C592 O590 1.248 . S
C593 O594 1.264 . S
C593 O601 1.249 . S
O594 C593 1.264 . S
O595 Mg588 1.986 . S
O595 C599 1.246 . S
O596 Mg591 2.032 . S
O596 C599 1.259 . S
O597 Mg588 2.114 . S
O597 C600 1.252 . S
O598 Mg588 2.251 . S
O598 Mg591 2.079 . S
O598 C600 1.273 . S
C599 O595 1.246 . S
C599 O596 1.259 . S
C600 O597 1.252 . S
C600 O598 1.273 . S
O601 Mg588 2.010 . S
O601 C593 1.249 . S
Mg602 O603 2.028 . S
Mg602 O609 1.986 . S
Mg602 O611 2.114 . S
Mg602 O612 2.251 . S
Mg602 O615 2.010 . S
O603 Mg602 2.028 . S
O603 C606 1.250 . S
O604 Mg605 2.028 . S
O604 C606 1.248 . S
Mg605 O604 2.028 . S
Mg605 O610 2.032 . S
Mg605 O612 2.079 . S
C606 O603 1.250 . S
C606 O604 1.248 . S
C607 O608 1.264 . S
C607 O615 1.249 . S
O608 C607 1.264 . S
O609 Mg602 1.986 . S
O609 C613 1.246 . S
O610 Mg605 2.032 . S
O610 C613 1.259 . S
O611 Mg602 2.114 . S
O611 C614 1.252 . S
O612 Mg602 2.251 . S
O612 Mg605 2.079 . S
O612 C614 1.273 . S
C613 O609 1.246 . S
C613 O610 1.259 . S
C614 O611 1.252 . S
C614 O612 1.273 . S
O615 Mg602 2.010 . S
O615 C607 1.249 . S
Mg616 O617 2.028 . S
Mg616 O623 1.986 . S
Mg616 O625 2.114 . S
Mg616 O626 2.251 . S
Mg616 O629 2.010 . S
O617 Mg616 2.028 . S
O617 C620 1.250 . S
O618 Mg619 2.028 . S
O618 C620 1.248 . S
Mg619 O618 2.028 . S
Mg619 O624 2.032 . S
Mg619 O626 2.079 . S
C620 O617 1.250 . S
C620 O618 1.248 . S
C621 O622 1.264 . S
C621 O629 1.249 . S
O622 C621 1.264 . S
O623 Mg616 1.986 . S
O623 C627 1.246 . S
O624 Mg619 2.032 . S
O624 C627 1.259 . S
O625 Mg616 2.114 . S
O625 C628 1.252 . S
O626 Mg616 2.251 . S
O626 Mg619 2.079 . S
O626 C628 1.273 . S
C627 O623 1.246 . S
C627 O624 1.259 . S
C628 O625 1.252 . S
C628 O626 1.273 . S
O629 Mg616 2.010 . S
O629 C621 1.249 . S
Mg630 O631 2.028 . S
Mg630 O637 1.986 . S
Mg630 O639 2.114 . S
Mg630 O640 2.251 . S
Mg630 O643 2.010 . S
O631 Mg630 2.028 . S
O631 C634 1.250 . S
O632 Mg633 2.028 . S
O632 C634 1.248 . S
Mg633 O632 2.028 . S
Mg633 O638 2.032 . S
Mg633 O640 2.079 . S
C634 O631 1.250 . S
C634 O632 1.248 . S
C635 O636 1.264 . S
C635 O643 1.249 . S
O636 C635 1.264 . S
O637 Mg630 1.986 . S
O637 C641 1.246 . S
O638 Mg633 2.032 . S
O638 C641 1.259 . S
O639 Mg630 2.114 . S
O639 C642 1.252 . S
O640 Mg630 2.251 . S
O640 Mg633 2.079 . S
O640 C642 1.273 . S
C641 O637 1.246 . S
C641 O638 1.259 . S
C642 O639 1.252 . S
C642 O640 1.273 . S
O643 Mg630 2.010 . S
O643 C635 1.249 . S
Mg644 O645 2.028 . S
Mg644 O651 1.986 . S
Mg644 O653 2.114 . S
Mg644 O654 2.251 . S
Mg644 O657 2.010 . S
O645 Mg644 2.028 . S
O645 C648 1.250 . S
O646 Mg647 2.028 . S
O646 C648 1.248 . S
Mg647 O646 2.028 . S
Mg647 O652 2.032 . S
Mg647 O654 2.079 . S
C648 O645 1.250 . S
C648 O646 1.248 . S
C649 O650 1.264 . S
C649 O657 1.249 . S
O650 C649 1.264 . S
O651 Mg644 1.986 . S
O651 C655 1.246 . S
O652 Mg647 2.032 . S
O652 C655 1.259 . S
O653 Mg644 2.114 . S
O653 C656 1.252 . S
O654 Mg644 2.251 . S
O654 Mg647 2.079 . S
O654 C656 1.273 . S
C655 O651 1.246 . S
C655 O652 1.259 . S
C656 O653 1.252 . S
C656 O654 1.273 . S
O657 Mg644 2.010 . S
O657 C649 1.249 . S
Mg658 O659 2.028 . S
Mg658 O665 1.986 . S
Mg658 O667 2.114 . S
Mg658 O668 2.251 . S
Mg658 O671 2.010 . S
O659 Mg658 2.028 . S
O659 C662 1.250 . S
O660 Mg661 2.028 . S
O660 C662 1.248 . S
Mg661 O660 2.028 . S
Mg661 O666 2.032 . S
Mg661 O668 2.079 . S
C662 O659 1.250 . S
C662 O660 1.248 . S
C663 O664 1.264 . S
C663 O671 1.249 . S
O664 C663 1.264 . S
O665 Mg658 1.986 . S
O665 C669 1.246 . S
O666 Mg661 2.032 . S
O666 C669 1.259 . S
O667 Mg658 2.114 . S
O667 C670 1.252 . S
O668 Mg658 2.251 . S
O668 Mg661 2.079 . S
O668 C670 1.273 . S
C669 O665 1.246 . S
C669 O666 1.259 . S
C670 O667 1.252 . S
C670 O668 1.273 . S
O671 Mg658 2.010 . S
O671 C663 1.249 . S
C672 C673 1.387 . S
C672 H676 0.950 . S
C672 C681 1.390 1_655 S
C673 C672 1.387 . S
C673 C675 1.387 . S
H674 C681 0.950 . S
C675 C673 1.387 . S
C675 C677 1.390 1_655 S
C675 H679 0.950 . S
H676 C672 0.950 . S
C677 C675 1.390 1_455 S
C677 C678 1.387 . S
C677 H680 0.950 . S
C678 C677 1.387 . S
C678 C681 1.387 . S
H679 C675 0.950 . S
H680 C677 0.950 . S
C681 C672 1.390 1_455 S
C681 H674 0.950 . S
C681 C678 1.387 . S
C682 C683 1.387 . S
C682 H686 0.950 . S
C682 C691 1.390 . S
C683 C682 1.387 . S
C683 C685 1.387 . S
H684 C691 0.950 . S
C685 C683 1.387 . S
C685 C687 1.390 . S
C685 H689 0.950 . S
H686 C682 0.950 . S
C687 C685 1.390 . S
C687 C688 1.387 . S
C687 H690 0.950 . S
C688 C687 1.387 . S
C688 C691 1.387 . S
H689 C685 0.950 . S
H690 C687 0.950 . S
C691 C682 1.390 . S
C691 H684 0.950 . S
C691 C688 1.387 . S
C692 C693 1.387 . S
C692 H696 0.950 . S
C692 C701 1.390 1_455 S
C693 C692 1.387 . S
C693 C695 1.387 . S
H694 C701 0.950 . S
C695 C693 1.387 . S
C695 C697 1.390 1_455 S
C695 H699 0.950 . S
H696 C692 0.950 . S
C697 C695 1.390 1_655 S
C697 C698 1.387 . S
C697 H700 0.950 . S
C698 C697 1.387 . S
C698 C701 1.387 . S
H699 C695 0.950 . S
H700 C697 0.950 . S
C701 C692 1.390 1_655 S
C701 H694 0.950 . S
C701 C698 1.387 . S
C702 C703 1.387 . S
C702 H706 0.950 . S
C702 C711 1.390 . S
C703 C702 1.387 . S
C703 C705 1.387 . S
H704 C711 0.950 . S
C705 C703 1.387 . S
C705 C707 1.390 . S
C705 H709 0.950 . S
H706 C702 0.950 . S
C707 C705 1.390 . S
C707 C708 1.387 . S
C707 H710 0.950 . S
C708 C707 1.387 . S
C708 C711 1.387 . S
H709 C705 0.950 . S
H710 C707 0.950 . S
C711 C702 1.390 . S
C711 H704 0.950 . S
C711 C708 1.387 . S
C712 C713 1.387 . S
C712 H716 0.950 . S
C712 C721 1.390 1_655 S
C713 C712 1.387 . S
C713 C715 1.387 . S
H714 C721 0.950 . S
C715 C713 1.387 . S
C715 C717 1.390 1_655 S
C715 H719 0.950 . S
H716 C712 0.950 . S
C717 C715 1.390 1_455 S
C717 C718 1.387 . S
C717 H720 0.950 . S
C718 C717 1.387 . S
C718 C721 1.387 . S
H719 C715 0.950 . S
H720 C717 0.950 . S
C721 C712 1.390 1_455 S
C721 H714 0.950 . S
C721 C718 1.387 . S
C722 C723 1.387 . S
C722 H726 0.950 . S
C722 C731 1.390 . S
C723 C722 1.387 . S
C723 C725 1.387 . S
H724 C731 0.950 . S
C725 C723 1.387 . S
C725 C727 1.390 . S
C725 H729 0.950 . S
H726 C722 0.950 . S
C727 C725 1.390 . S
C727 C728 1.387 . S
C727 H730 0.950 . S
C728 C727 1.387 . S
C728 C731 1.387 . S
H729 C725 0.950 . S
H730 C727 0.950 . S
C731 C722 1.390 . S
C731 H724 0.950 . S
C731 C728 1.387 . S
C732 C733 1.387 . S
C732 H736 0.950 . S
C732 C741 1.390 1_455 S
C733 C732 1.387 . S
C733 C735 1.387 . S
H734 C741 0.950 . S
C735 C733 1.387 . S
C735 C737 1.390 1_455 S
C735 H739 0.950 . S
H736 C732 0.950 . S
C737 C735 1.390 1_655 S
C737 C738 1.387 . S
C737 H740 0.950 . S
C738 C737 1.387 . S
C738 C741 1.387 . S
H739 C735 0.950 . S
H740 C737 0.950 . S
C741 C732 1.390 1_655 S
C741 H734 0.950 . S
C741 C738 1.387 . S
C742 C743 1.387 . S
C742 H746 0.950 . S
C742 C751 1.390 . S
C743 C742 1.387 . S
C743 C745 1.387 . S
H744 C751 0.950 . S
C745 C743 1.387 . S
C745 C747 1.390 . S
C745 H749 0.950 . S
H746 C742 0.950 . S
C747 C745 1.390 . S
C747 C748 1.387 . S
C747 H750 0.950 . S
C748 C747 1.387 . S
C748 C751 1.387 . S
H749 C745 0.950 . S
H750 C747 0.950 . S
C751 C742 1.390 . S
C751 H744 0.950 . S
C751 C748 1.387 . S
C752 C753 1.387 . S
C752 H756 0.950 . S
C752 C761 1.390 1_565 S
C753 C752 1.387 . S
C753 C755 1.387 . S
H754 C761 0.950 . S
C755 C753 1.387 . S
C755 C757 1.390 1_565 S
C755 H759 0.950 . S
H756 C752 0.950 . S
C757 C755 1.390 1_545 S
C757 C758 1.387 . S
C757 H760 0.950 . S
C758 C757 1.387 . S
C758 C761 1.387 . S
H759 C755 0.950 . S
H760 C757 0.950 . S
C761 C752 1.390 1_545 S
C761 H754 0.950 . S
C761 C758 1.387 . S
C762 C763 1.387 . S
C762 H766 0.950 . S
C762 C771 1.390 . S
C763 C762 1.387 . S
C763 C765 1.387 . S
H764 C771 0.950 . S
C765 C763 1.387 . S
C765 C767 1.390 . S
C765 H769 0.950 . S
H766 C762 0.950 . S
C767 C765 1.390 . S
C767 C768 1.387 . S
C767 H770 0.950 . S
C768 C767 1.387 . S
C768 C771 1.387 . S
H769 C765 0.950 . S
H770 C767 0.950 . S
C771 C762 1.390 . S
C771 H764 0.950 . S
C771 C768 1.387 . S
C772 C773 1.387 . S
C772 H776 0.950 . S
C772 C781 1.390 1_545 S
C773 C772 1.387 . S
C773 C775 1.387 . S
H774 C781 0.950 . S
C775 C773 1.387 . S
C775 C777 1.390 1_545 S
C775 H779 0.950 . S
H776 C772 0.950 . S
C777 C775 1.390 1_565 S
C777 C778 1.387 . S
C777 H780 0.950 . S
C778 C777 1.387 . S
C778 C781 1.387 . S
H779 C775 0.950 . S
H780 C777 0.950 . S
C781 C772 1.390 1_565 S
C781 H774 0.950 . S
C781 C778 1.387 . S
C782 C783 1.387 . S
C782 H786 0.950 . S
C782 C791 1.390 . S
C783 C782 1.387 . S
C783 C785 1.387 . S
H784 C791 0.950 . S
C785 C783 1.387 . S
C785 C787 1.390 . S
C785 H789 0.950 . S
H786 C782 0.950 . S
C787 C785 1.390 . S
C787 C788 1.387 . S
C787 H790 0.950 . S
C788 C787 1.387 . S
C788 C791 1.387 . S
H789 C785 0.950 . S
H790 C787 0.950 . S
C791 C782 1.390 . S
C791 H784 0.950 . S
C791 C788 1.387 . S
C792 C793 1.387 . S
C792 H796 0.950 . S
C792 C801 1.390 1_545 S
C793 C792 1.387 . S
C793 C795 1.387 . S
H794 C801 0.950 . S
C795 C793 1.387 . S
C795 C797 1.390 1_545 S
C795 H799 0.950 . S
H796 C792 0.950 . S
C797 C795 1.390 1_565 S
C797 C798 1.387 . S
C797 H800 0.950 . S
C798 C797 1.387 . S
C798 C801 1.387 . S
H799 C795 0.950 . S
H800 C797 0.950 . S
C801 C792 1.390 1_565 S
C801 H794 0.950 . S
C801 C798 1.387 . S
C802 C803 1.387 . S
C802 H806 0.950 . S
C802 C811 1.390 . S
C803 C802 1.387 . S
C803 C805 1.387 . S
H804 C811 0.950 . S
C805 C803 1.387 . S
C805 C807 1.390 . S
C805 H809 0.950 . S
H806 C802 0.950 . S
C807 C805 1.390 . S
C807 C808 1.387 . S
C807 H810 0.950 . S
C808 C807 1.387 . S
C808 C811 1.387 . S
H809 C805 0.950 . S
H810 C807 0.950 . S
C811 C802 1.390 . S
C811 H804 0.950 . S
C811 C808 1.387 . S
C812 C813 1.387 . S
C812 H816 0.950 . S
C812 C821 1.390 1_545 S
C813 C812 1.387 . S
C813 C815 1.387 . S
H814 C821 0.950 . S
C815 C813 1.387 . S
C815 C817 1.390 1_545 S
C815 H819 0.950 . S
H816 C812 0.950 . S
C817 C815 1.390 1_565 S
C817 C818 1.387 . S
C817 H820 0.950 . S
C818 C817 1.387 . S
C818 C821 1.387 . S
H819 C815 0.950 . S
H820 C817 0.950 . S
C821 C812 1.390 1_565 S
C821 H814 0.950 . S
C821 C818 1.387 . S
C822 C823 1.387 . S
C822 H826 0.950 . S
C822 C831 1.390 . S
C823 C822 1.387 . S
C823 C825 1.387 . S
H824 C831 0.950 . S
C825 C823 1.387 . S
C825 C827 1.390 . S
C825 H829 0.950 . S
H826 C822 0.950 . S
C827 C825 1.390 . S
C827 C828 1.387 . S
C827 H830 0.950 . S
C828 C827 1.387 . S
C828 C831 1.387 . S
H829 C825 0.950 . S
H830 C827 0.950 . S
C831 C822 1.390 . S
C831 H824 0.950 . S
C831 C828 1.387 . S
C832 C833 1.387 . S
C832 H836 0.950 . S
C832 C841 1.390 1_554 S
C833 C832 1.387 . S
C833 C835 1.387 . S
H834 C841 0.950 . S
C835 C833 1.387 . S
C835 C837 1.390 1_554 S
C835 H839 0.950 . S
H836 C832 0.950 . S
C837 C835 1.390 1_556 S
C837 C838 1.387 . S
C837 H840 0.950 . S
C838 C837 1.387 . S
C838 C841 1.387 . S
H839 C835 0.950 . S
H840 C837 0.950 . S
C841 C832 1.390 1_556 S
C841 H834 0.950 . S
C841 C838 1.387 . S
C842 C843 1.387 . S
C842 H846 0.950 . S
C842 C851 1.390 1_554 S
C843 C842 1.387 . S
C843 C845 1.387 . S
H844 C851 0.950 . S
C845 C843 1.387 . S
C845 C847 1.390 1_554 S
C845 H849 0.950 . S
H846 C842 0.950 . S
C847 C845 1.390 1_556 S
C847 C848 1.387 . S
C847 H850 0.950 . S
C848 C847 1.387 . S
C848 C851 1.387 . S
H849 C845 0.950 . S
H850 C847 0.950 . S
C851 C842 1.390 1_556 S
C851 H844 0.950 . S
C851 C848 1.387 . S
C852 C853 1.387 . S
C852 H856 0.950 . S
C852 C861 1.390 . S
C853 C852 1.387 . S
C853 C855 1.387 . S
H854 C861 0.950 . S
C855 C853 1.387 . S
C855 C857 1.390 . S
C855 H859 0.950 . S
H856 C852 0.950 . S
C857 C855 1.390 . S
C857 C858 1.387 . S
C857 H860 0.950 . S
C858 C857 1.387 . S
C858 C861 1.387 . S
H859 C855 0.950 . S
H860 C857 0.950 . S
C861 C852 1.390 . S
C861 H854 0.950 . S
C861 C858 1.387 . S
C862 C863 1.387 . S
C862 H866 0.950 . S
C862 C871 1.390 1_554 S
C863 C862 1.387 . S
C863 C865 1.387 . S
H864 C871 0.950 . S
C865 C863 1.387 . S
C865 C867 1.390 1_554 S
C865 H869 0.950 . S
H866 C862 0.950 . S
C867 C865 1.390 1_556 S
C867 C868 1.387 . S
C867 H870 0.950 . S
C868 C867 1.387 . S
C868 C871 1.387 . S
H869 C865 0.950 . S
H870 C867 0.950 . S
C871 C862 1.390 1_556 S
C871 H864 0.950 . S
C871 C868 1.387 . S
C872 C873 1.387 . S
C872 H876 0.950 . S
C872 C881 1.390 . S
C873 C872 1.387 . S
C873 C875 1.387 . S
H874 C881 0.950 . S
C875 C873 1.387 . S
C875 C877 1.390 . S
C875 H879 0.950 . S
H876 C872 0.950 . S
C877 C875 1.390 . S
C877 C878 1.387 . S
C877 H880 0.950 . S
C878 C877 1.387 . S
C878 C881 1.387 . S
H879 C875 0.950 . S
H880 C877 0.950 . S
C881 C872 1.390 . S
C881 H874 0.950 . S
C881 C878 1.387 . S
C882 C883 1.387 . S
C882 H886 0.950 . S
C882 C891 1.390 1_554 S
C883 C882 1.387 . S
C883 C885 1.387 . S
H884 C891 0.950 . S
C885 C883 1.387 . S
C885 C887 1.390 1_554 S
C885 H889 0.950 . S
H886 C882 0.950 . S
C887 C885 1.390 1_556 S
C887 C888 1.387 . S
C887 H890 0.950 . S
C888 C887 1.387 . S
C888 C891 1.387 . S
H889 C885 0.950 . S
H890 C887 0.950 . S
C891 C882 1.390 1_556 S
C891 H884 0.950 . S
C891 C888 1.387 . S
C892 C893 1.387 . S
C892 H896 0.950 . S
C892 C901 1.390 . S
C893 C892 1.387 . S
C893 C895 1.387 . S
H894 C901 0.950 . S
C895 C893 1.387 . S
C895 C897 1.390 . S
C895 H899 0.950 . S
H896 C892 0.950 . S
C897 C895 1.390 . S
C897 C898 1.387 . S
C897 H900 0.950 . S
C898 C897 1.387 . S
C898 C901 1.387 . S
H899 C895 0.950 . S
H900 C897 0.950 . S
C901 C892 1.390 . S
C901 H894 0.950 . S
C901 C898 1.387 . S
C902 C903 1.387 . S
C902 H906 0.950 . S
C902 C911 1.390 . S
C903 C902 1.387 . S
C903 C905 1.387 . S
H904 C911 0.950 . S
C905 C903 1.387 . S
C905 C907 1.390 . S
C905 H909 0.950 . S
H906 C902 0.950 . S
C907 C905 1.390 . S
C907 C908 1.387 . S
C907 H910 0.950 . S
C908 C907 1.387 . S
C908 C911 1.387 . S
H909 C905 0.950 . S
H910 C907 0.950 . S
C911 C902 1.390 . S
C911 H904 0.950 . S
C911 C908 1.387 . S
C912 C913 1.387 . S
C912 H916 0.950 . S
C912 C921 1.390 . S
C913 C912 1.387 . S
C913 C915 1.387 . S
H914 C921 0.950 . S
C915 C913 1.387 . S
C915 C917 1.390 . S
C915 H919 0.950 . S
H916 C912 0.950 . S
C917 C915 1.390 . S
C917 C918 1.387 . S
C917 H920 0.950 . S
C918 C917 1.387 . S
C918 C921 1.387 . S
H919 C915 0.950 . S
H920 C917 0.950 . S
C921 C912 1.390 . S
C921 H914 0.950 . S
C921 C918 1.387 . S
C922 C923 1.387 . S
C922 H926 0.950 . S
C922 C931 1.390 . S
C923 C922 1.387 . S
C923 C925 1.387 . S
H924 C931 0.950 . S
C925 C923 1.387 . S
C925 C927 1.390 . S
C925 H929 0.950 . S
H926 C922 0.950 . S
C927 C925 1.390 . S
C927 C928 1.387 . S
C927 H930 0.950 . S
C928 C927 1.387 . S
C928 C931 1.387 . S
H929 C925 0.950 . S
H930 C927 0.950 . S
C931 C922 1.390 . S
C931 H924 0.950 . S
C931 C928 1.387 . S
C932 C933 1.387 . S
C932 H936 0.950 . S
C932 C941 1.390 . S
C933 C932 1.387 . S
C933 C935 1.387 . S
H934 C941 0.950 . S
C935 C933 1.387 . S
C935 C937 1.390 . S
C935 H939 0.950 . S
H936 C932 0.950 . S
C937 C935 1.390 . S
C937 C938 1.387 . S
C937 H940 0.950 . S
C938 C937 1.387 . S
C938 C941 1.387 . S
H939 C935 0.950 . S
H940 C937 0.950 . S
C941 C932 1.390 . S
C941 H934 0.950 . S
C941 C938 1.387 . S
C942 C943 1.387 . S
C942 H946 0.950 . S
C942 C951 1.390 . S
C943 C942 1.387 . S
C943 C945 1.387 . S
H944 C951 0.950 . S
C945 C943 1.387 . S
C945 C947 1.390 . S
C945 H949 0.950 . S
H946 C942 0.950 . S
C947 C945 1.390 . S
C947 C948 1.387 . S
C947 H950 0.950 . S
C948 C947 1.387 . S
C948 C951 1.387 . S
H949 C945 0.950 . S
H950 C947 0.950 . S
C951 C942 1.390 . S
C951 H944 0.950 . S
C951 C948 1.387 . S
C952 C953 1.387 . S
C952 H956 0.950 . S
C952 C961 1.390 . S
C953 C952 1.387 . S
C953 C955 1.387 . S
H954 C961 0.950 . S
C955 C953 1.387 . S
C955 C957 1.390 . S
C955 H959 0.950 . S
H956 C952 0.950 . S
C957 C955 1.390 . S
C957 C958 1.387 . S
C957 H960 0.950 . S
C958 C957 1.387 . S
C958 C961 1.387 . S
H959 C955 0.950 . S
H960 C957 0.950 . S
C961 C952 1.390 . S
C961 H954 0.950 . S
C961 C958 1.387 . S
C962 C963 1.387 . S
C962 H966 0.950 . S
C962 C971 1.390 . S
C963 C962 1.387 . S
C963 C965 1.387 . S
H964 C971 0.950 . S
C965 C963 1.387 . S
C965 C967 1.390 . S
C965 H969 0.950 . S
H966 C962 0.950 . S
C967 C965 1.390 . S
C967 C968 1.387 . S
C967 H970 0.950 . S
C968 C967 1.387 . S
C968 C971 1.387 . S
H969 C965 0.950 . S
H970 C967 0.950 . S
C971 C962 1.390 . S
C971 H964 0.950 . S
C971 C968 1.387 . S
C972 C973 1.387 . S
C972 H976 0.950 . S
C972 C981 1.390 . S
C973 C972 1.387 . S
C973 C975 1.387 . S
H974 C981 0.950 . S
C975 C973 1.387 . S
C975 C977 1.390 . S
C975 H979 0.950 . S
H976 C972 0.950 . S
C977 C975 1.390 . S
C977 C978 1.387 . S
C977 H980 0.950 . S
C978 C977 1.387 . S
C978 C981 1.387 . S
H979 C975 0.950 . S
H980 C977 0.950 . S
C981 C972 1.390 . S
C981 H974 0.950 . S
C981 C978 1.387 . S
C982 C983 1.387 . S
C982 H986 0.950 . S
C982 C991 1.390 . S
C983 C982 1.387 . S
C983 C985 1.387 . S
H984 C991 0.950 . S
C985 C983 1.387 . S
C985 C987 1.390 . S
C985 H989 0.950 . S
H986 C982 0.950 . S
C987 C985 1.390 . S
C987 C988 1.387 . S
C987 H990 0.950 . S
C988 C987 1.387 . S
C988 C991 1.387 . S
H989 C985 0.950 . S
H990 C987 0.950 . S
C991 C982 1.390 . S
C991 H984 0.950 . S
C991 C988 1.387 . S
C992 C993 1.387 . S
C992 H996 0.950 . S
C992 C1001 1.390 . S
C993 C992 1.387 . S
C993 C995 1.387 . S
H994 C1001 0.950 . S
C995 C993 1.387 . S
C995 C997 1.390 . S
C995 H999 0.950 . S
H996 C992 0.950 . S
C997 C995 1.390 . S
C997 C998 1.387 . S
C997 H1000 0.950 . S
C998 C997 1.387 . S
C998 C1001 1.387 . S
H999 C995 0.950 . S
H1000 C997 0.950 . S
C1001 C992 1.390 . S
C1001 H994 0.950 . S
C1001 C998 1.387 . S
C1002 C1003 1.387 . S
C1002 H1006 0.950 . S
C1002 C1011 1.390 . S
C1003 C1002 1.387 . S
C1003 C1005 1.387 . S
H1004 C1011 0.950 . S
C1005 C1003 1.387 . S
C1005 C1007 1.390 . S
C1005 H1009 0.950 . S
H1006 C1002 0.950 . S
C1007 C1005 1.390 . S
C1007 C1008 1.387 . S
C1007 H1010 0.950 . S
C1008 C1007 1.387 . S
C1008 C1011 1.387 . S
H1009 C1005 0.950 . S
H1010 C1007 0.950 . S
C1011 C1002 1.390 . S
C1011 H1004 0.950 . S
C1011 C1008 1.387 . S
C1012 C1013 1.387 . S
C1012 H1016 0.950 . S
C1012 C1021 1.390 . S
C1013 C1012 1.387 . S
C1013 C1015 1.387 . S
H1014 C1021 0.950 . S
C1015 C1013 1.387 . S
C1015 C1017 1.390 . S
C1015 H1019 0.950 . S
H1016 C1012 0.950 . S
C1017 C1015 1.390 . S
C1017 C1018 1.387 . S
C1017 H1020 0.950 . S
C1018 C1017 1.387 . S
C1018 C1021 1.387 . S
H1019 C1015 0.950 . S
H1020 C1017 0.950 . S
C1021 C1012 1.390 . S
C1021 H1014 0.950 . S
C1021 C1018 1.387 . S
C1022 C1023 1.387 . S
C1022 H1026 0.950 . S
C1022 C1031 1.390 . S
C1023 C1022 1.387 . S
C1023 C1025 1.387 . S
H1024 C1031 0.950 . S
C1025 C1023 1.387 . S
C1025 C1027 1.390 . S
C1025 H1029 0.950 . S
H1026 C1022 0.950 . S
C1027 C1025 1.390 . S
C1027 C1028 1.387 . S
C1027 H1030 0.950 . S
C1028 C1027 1.387 . S
C1028 C1031 1.387 . S
H1029 C1025 0.950 . S
H1030 C1027 0.950 . S
C1031 C1022 1.390 . S
C1031 H1024 0.950 . S
C1031 C1028 1.387 . S
C1032 C1033 1.387 . S
C1032 H1036 0.950 . S
C1032 C1041 1.390 . S
C1033 C1032 1.387 . S
C1033 C1035 1.387 . S
H1034 C1041 0.950 . S
C1035 C1033 1.387 . S
C1035 C1037 1.390 . S
C1035 H1039 0.950 . S
H1036 C1032 0.950 . S
C1037 C1035 1.390 . S
C1037 C1038 1.387 . S
C1037 H1040 0.950 . S
C1038 C1037 1.387 . S
C1038 C1041 1.387 . S
H1039 C1035 0.950 . S
H1040 C1037 0.950 . S
C1041 C1032 1.390 . S
C1041 H1034 0.950 . S
C1041 C1038 1.387 . S
C1042 C1043 1.387 . S
C1042 H1046 0.950 . S
C1042 C1051 1.390 . S
C1043 C1042 1.387 . S
C1043 C1045 1.387 . S
H1044 C1051 0.950 . S
C1045 C1043 1.387 . S
C1045 C1047 1.390 . S
C1045 H1049 0.950 . S
H1046 C1042 0.950 . S
C1047 C1045 1.390 . S
C1047 C1048 1.387 . S
C1047 H1050 0.950 . S
C1048 C1047 1.387 . S
C1048 C1051 1.387 . S
H1049 C1045 0.950 . S
H1050 C1047 0.950 . S
C1051 C1042 1.390 . S
C1051 H1044 0.950 . S
C1051 C1048 1.387 . S
C1052 C1053 1.387 . S
C1052 H1056 0.950 . S
C1052 C1061 1.390 . S
C1053 C1052 1.387 . S
C1053 C1055 1.387 . S
H1054 C1061 0.950 . S
C1055 C1053 1.387 . S
C1055 C1057 1.390 . S
C1055 H1059 0.950 . S
H1056 C1052 0.950 . S
C1057 C1055 1.390 . S
C1057 C1058 1.387 . S
C1057 H1060 0.950 . S
C1058 C1057 1.387 . S
C1058 C1061 1.387 . S
H1059 C1055 0.950 . S
H1060 C1057 0.950 . S
C1061 C1052 1.390 . S
C1061 H1054 0.950 . S
C1061 C1058 1.387 . S
C1062 C1063 1.387 . S
C1062 H1066 0.950 . S
C1062 C1071 1.390 . S
C1063 C1062 1.387 . S
C1063 C1065 1.387 . S
H1064 C1071 0.950 . S
C1065 C1063 1.387 . S
C1065 C1067 1.390 . S
C1065 H1069 0.950 . S
H1066 C1062 0.950 . S
C1067 C1065 1.390 . S
C1067 C1068 1.387 . S
C1067 H1070 0.950 . S
C1068 C1067 1.387 . S
C1068 C1071 1.387 . S
H1069 C1065 0.950 . S
H1070 C1067 0.950 . S
C1071 C1062 1.390 . S
C1071 H1064 0.950 . S
C1071 C1068 1.387 . S
C1072 C1073 1.387 . S
C1072 H1076 0.950 . S
C1072 C1081 1.390 . S
C1073 C1072 1.387 . S
C1073 C1075 1.387 . S
H1074 C1081 0.950 . S
C1075 C1073 1.387 . S
C1075 C1077 1.390 . S
C1075 H1079 0.950 . S
H1076 C1072 0.950 . S
C1077 C1075 1.390 . S
C1077 C1078 1.387 . S
C1077 H1080 0.950 . S
C1078 C1077 1.387 . S
C1078 C1081 1.387 . S
H1079 C1075 0.950 . S
H1080 C1077 0.950 . S
C1081 C1072 1.390 . S
C1081 H1074 0.950 . S
C1081 C1078 1.387 . S
C1082 C1083 1.387 . S
C1082 H1086 0.950 . S
C1082 C1091 1.390 . S
C1083 C1082 1.387 . S
C1083 C1085 1.387 . S
H1084 C1091 0.950 . S
C1085 C1083 1.387 . S
C1085 C1087 1.390 . S
C1085 H1089 0.950 . S
H1086 C1082 0.950 . S
C1087 C1085 1.390 . S
C1087 C1088 1.387 . S
C1087 H1090 0.950 . S
C1088 C1087 1.387 . S
C1088 C1091 1.387 . S
H1089 C1085 0.950 . S
H1090 C1087 0.950 . S
C1091 C1082 1.390 . S
C1091 H1084 0.950 . S
C1091 C1088 1.387 . S
C1092 C1093 1.387 . S
C1092 H1096 0.950 . S
C1092 C1101 1.390 . S
C1093 C1092 1.387 . S
C1093 C1095 1.387 . S
H1094 C1101 0.950 . S
C1095 C1093 1.387 . S
C1095 C1097 1.390 . S
C1095 H1099 0.950 . S
H1096 C1092 0.950 . S
C1097 C1095 1.390 . S
C1097 C1098 1.387 . S
C1097 H1100 0.950 . S
C1098 C1097 1.387 . S
C1098 C1101 1.387 . S
H1099 C1095 0.950 . S
H1100 C1097 0.950 . S
C1101 C1092 1.390 . S
C1101 H1094 0.950 . S
C1101 C1098 1.387 . S
C1102 C1103 1.387 . S
C1102 H1106 0.950 . S
C1102 C1111 1.390 . S
C1103 C1102 1.387 . S
C1103 C1105 1.387 . S
H1104 C1111 0.950 . S
C1105 C1103 1.387 . S
C1105 C1107 1.390 . S
C1105 H1109 0.950 . S
H1106 C1102 0.950 . S
C1107 C1105 1.390 . S
C1107 C1108 1.387 . S
C1107 H1110 0.950 . S
C1108 C1107 1.387 . S
C1108 C1111 1.387 . S
H1109 C1105 0.950 . S
H1110 C1107 0.950 . S
C1111 C1102 1.390 . S
C1111 H1104 0.950 . S
C1111 C1108 1.387 . S
C1112 C1113 1.387 . S
C1112 H1116 0.950 . S
C1112 C1121 1.390 . S
C1113 C1112 1.387 . S
C1113 C1115 1.387 . S
H1114 C1121 0.950 . S
C1115 C1113 1.387 . S
C1115 C1117 1.390 . S
C1115 H1119 0.950 . S
H1116 C1112 0.950 . S
C1117 C1115 1.390 . S
C1117 C1118 1.387 . S
C1117 H1120 0.950 . S
C1118 C1117 1.387 . S
C1118 C1121 1.387 . S
H1119 C1115 0.950 . S
H1120 C1117 0.950 . S
C1121 C1112 1.390 . S
C1121 H1114 0.950 . S
C1121 C1118 1.387 . S
C1122 C1123 1.387 . S
C1122 H1126 0.950 . S
C1122 C1131 1.390 . S
C1123 C1122 1.387 . S
C1123 C1125 1.387 . S
H1124 C1131 0.950 . S
C1125 C1123 1.387 . S
C1125 C1127 1.390 . S
C1125 H1129 0.950 . S
H1126 C1122 0.950 . S
C1127 C1125 1.390 . S
C1127 C1128 1.387 . S
C1127 H1130 0.950 . S
C1128 C1127 1.387 . S
C1128 C1131 1.387 . S
H1129 C1125 0.950 . S
H1130 C1127 0.950 . S
C1131 C1122 1.390 . S
C1131 H1124 0.950 . S
C1131 C1128 1.387 . S
C1132 C1133 1.387 . S
C1132 H1136 0.950 . S
C1132 C1141 1.390 . S
C1133 C1132 1.387 . S
C1133 C1135 1.387 . S
H1134 C1141 0.950 . S
C1135 C1133 1.387 . S
C1135 C1137 1.390 . S
C1135 H1139 0.950 . S
H1136 C1132 0.950 . S
C1137 C1135 1.390 . S
C1137 C1138 1.387 . S
C1137 H1140 0.950 . S
C1138 C1137 1.387 . S
C1138 C1141 1.387 . S
H1139 C1135 0.950 . S
H1140 C1137 0.950 . S
C1141 C1132 1.390 . S
C1141 H1134 0.950 . S
C1141 C1138 1.387 . S
C1142 C1143 1.387 . S
C1142 H1146 0.950 . S
C1142 C1151 1.390 . S
C1143 C1142 1.387 . S
C1143 C1145 1.387 . S
H1144 C1151 0.950 . S
C1145 C1143 1.387 . S
C1145 C1147 1.390 . S
C1145 H1149 0.950 . S
H1146 C1142 0.950 . S
C1147 C1145 1.390 . S
C1147 C1148 1.387 . S
C1147 H1150 0.950 . S
C1148 C1147 1.387 . S
C1148 C1151 1.387 . S
H1149 C1145 0.950 . S
H1150 C1147 0.950 . S
C1151 C1142 1.390 . S
C1151 H1144 0.950 . S
C1151 C1148 1.387 . S
C1152 C1153 1.387 . S
C1152 H1156 0.950 . S
C1152 C1161 1.390 . S
C1153 C1152 1.387 . S
C1153 C1155 1.387 . S
H1154 C1161 0.950 . S
C1155 C1153 1.387 . S
C1155 C1157 1.390 . S
C1155 H1159 0.950 . S
H1156 C1152 0.950 . S
C1157 C1155 1.390 . S
C1157 C1158 1.387 . S
C1157 H1160 0.950 . S
C1158 C1157 1.387 . S
C1158 C1161 1.387 . S
H1159 C1155 0.950 . S
H1160 C1157 0.950 . S
C1161 C1152 1.390 . S
C1161 H1154 0.950 . S
C1161 C1158 1.387 . S
C1162 C1163 1.387 . S
C1162 H1166 0.950 . S
C1162 C1171 1.390 . S
C1163 C1162 1.387 . S
C1163 C1165 1.387 . S
H1164 C1171 0.950 . S
C1165 C1163 1.387 . S
C1165 C1167 1.390 . S
C1165 H1169 0.950 . S
H1166 C1162 0.950 . S
C1167 C1165 1.390 . S
C1167 C1168 1.387 . S
C1167 H1170 0.950 . S
C1168 C1167 1.387 . S
C1168 C1171 1.387 . S
H1169 C1165 0.950 . S
H1170 C1167 0.950 . S
C1171 C1162 1.390 . S
C1171 H1164 0.950 . S
C1171 C1168 1.387 . S
C1172 C1173 1.387 . S
C1172 H1176 0.950 . S
C1172 C1181 1.390 . S
C1173 C1172 1.387 . S
C1173 C1175 1.387 . S
H1174 C1181 0.950 . S
C1175 C1173 1.387 . S
C1175 C1177 1.390 . S
C1175 H1179 0.950 . S
H1176 C1172 0.950 . S
C1177 C1175 1.390 . S
C1177 C1178 1.387 . S
C1177 H1180 0.950 . S
C1178 C1177 1.387 . S
C1178 C1181 1.387 . S
H1179 C1175 0.950 . S
H1180 C1177 0.950 . S
C1181 C1172 1.390 . S
C1181 H1174 0.950 . S
C1181 C1178 1.387 . S
C1182 C1183 1.387 . S
C1182 H1186 0.950 . S
C1182 C1191 1.390 . S
C1183 C1182 1.387 . S
C1183 C1185 1.387 . S
H1184 C1191 0.950 . S
C1185 C1183 1.387 . S
C1185 C1187 1.390 . S
C1185 H1189 0.950 . S
H1186 C1182 0.950 . S
C1187 C1185 1.390 . S
C1187 C1188 1.387 . S
C1187 H1190 0.950 . S
C1188 C1187 1.387 . S
C1188 C1191 1.387 . S
H1189 C1185 0.950 . S
H1190 C1187 0.950 . S
C1191 C1182 1.390 . S
C1191 H1184 0.950 . S
C1191 C1188 1.387 . S
C1192 C1193 1.387 . S
C1192 H1196 0.950 . S
C1192 C1201 1.390 . S
C1193 C1192 1.387 . S
C1193 C1195 1.387 . S
H1194 C1201 0.950 . S
C1195 C1193 1.387 . S
C1195 C1197 1.390 . S
C1195 H1199 0.950 . S
H1196 C1192 0.950 . S
C1197 C1195 1.390 . S
C1197 C1198 1.387 . S
C1197 H1200 0.950 . S
C1198 C1197 1.387 . S
C1198 C1201 1.387 . S
H1199 C1195 0.950 . S
H1200 C1197 0.950 . S
C1201 C1192 1.390 . S
C1201 H1194 0.950 . S
C1201 C1198 1.387 . S
C1202 C1203 1.387 . S
C1202 H1206 0.950 . S
C1202 C1211 1.390 . S
C1203 C1202 1.387 . S
C1203 C1205 1.387 . S
H1204 C1211 0.950 . S
C1205 C1203 1.387 . S
C1205 C1207 1.390 . S
C1205 H1209 0.950 . S
H1206 C1202 0.950 . S
C1207 C1205 1.390 . S
C1207 C1208 1.387 . S
C1207 H1210 0.950 . S
C1208 C1207 1.387 . S
C1208 C1211 1.387 . S
H1209 C1205 0.950 . S
H1210 C1207 0.950 . S
C1211 C1202 1.390 . S
C1211 H1204 0.950 . S
C1211 C1208 1.387 . S
C1212 C1213 1.387 . S
C1212 H1216 0.950 . S
C1212 C1221 1.390 . S
C1213 C1212 1.387 . S
C1213 C1215 1.387 . S
H1214 C1221 0.950 . S
C1215 C1213 1.387 . S
C1215 C1217 1.390 . S
C1215 H1219 0.950 . S
H1216 C1212 0.950 . S
C1217 C1215 1.390 . S
C1217 C1218 1.387 . S
C1217 H1220 0.950 . S
C1218 C1217 1.387 . S
C1218 C1221 1.387 . S
H1219 C1215 0.950 . S
H1220 C1217 0.950 . S
C1221 C1212 1.390 . S
C1221 H1214 0.950 . S
C1221 C1218 1.387 . S
C1222 C1223 1.387 . S
C1222 H1226 0.950 . S
C1222 C1231 1.390 . S
C1223 C1222 1.387 . S
C1223 C1225 1.387 . S
H1224 C1231 0.950 . S
C1225 C1223 1.387 . S
C1225 C1227 1.390 . S
C1225 H1229 0.950 . S
H1226 C1222 0.950 . S
C1227 C1225 1.390 . S
C1227 C1228 1.387 . S
C1227 H1230 0.950 . S
C1228 C1227 1.387 . S
C1228 C1231 1.387 . S
H1229 C1225 0.950 . S
H1230 C1227 0.950 . S
C1231 C1222 1.390 . S
C1231 H1224 0.950 . S
C1231 C1228 1.387 . S
C1232 C1233 1.387 . S
C1232 H1236 0.950 . S
C1232 C1241 1.390 . S
C1233 C1232 1.387 . S
C1233 C1235 1.387 . S
H1234 C1241 0.950 . S
C1235 C1233 1.387 . S
C1235 C1237 1.390 . S
C1235 H1239 0.950 . S
H1236 C1232 0.950 . S
C1237 C1235 1.390 . S
C1237 C1238 1.387 . S
C1237 H1240 0.950 . S
C1238 C1237 1.387 . S
C1238 C1241 1.387 . S
H1239 C1235 0.950 . S
H1240 C1237 0.950 . S
C1241 C1232 1.390 . S
C1241 H1234 0.950 . S
C1241 C1238 1.387 . S
C1242 C1243 1.387 . S
C1242 H1246 0.950 . S
C1242 C1251 1.390 . S
C1243 C1242 1.387 . S
C1243 C1245 1.387 . S
H1244 C1251 0.950 . S
C1245 C1243 1.387 . S
C1245 C1247 1.390 . S
C1245 H1249 0.950 . S
H1246 C1242 0.950 . S
C1247 C1245 1.390 . S
C1247 C1248 1.387 . S
C1247 H1250 0.950 . S
C1248 C1247 1.387 . S
C1248 C1251 1.387 . S
H1249 C1245 0.950 . S
H1250 C1247 0.950 . S
C1251 C1242 1.390 . S
C1251 H1244 0.950 . S
C1251 C1248 1.387 . S
C1252 C1253 1.387 . S
C1252 H1256 0.950 . S
C1252 C1261 1.390 . S
C1253 C1252 1.387 . S
C1253 C1255 1.387 . S
H1254 C1261 0.950 . S
C1255 C1253 1.387 . S
C1255 C1257 1.390 . S
C1255 H1259 0.950 . S
H1256 C1252 0.950 . S
C1257 C1255 1.390 . S
C1257 C1258 1.387 . S
C1257 H1260 0.950 . S
C1258 C1257 1.387 . S
C1258 C1261 1.387 . S
H1259 C1255 0.950 . S
H1260 C1257 0.950 . S
C1261 C1252 1.390 . S
C1261 H1254 0.950 . S
C1261 C1258 1.387 . S
C1262 C1263 1.387 . S
C1262 H1266 0.950 . S
C1262 C1271 1.390 . S
C1263 C1262 1.387 . S
C1263 C1265 1.387 . S
H1264 C1271 0.950 . S
C1265 C1263 1.387 . S
C1265 C1267 1.390 . S
C1265 H1269 0.950 . S
H1266 C1262 0.950 . S
C1267 C1265 1.390 . S
C1267 C1268 1.387 . S
C1267 H1270 0.950 . S
C1268 C1267 1.387 . S
C1268 C1271 1.387 . S
H1269 C1265 0.950 . S
H1270 C1267 0.950 . S
C1271 C1262 1.390 . S
C1271 H1264 0.950 . S
C1271 C1268 1.387 . S
C1272 C1273 1.387 . S
C1272 H1276 0.950 . S
C1272 C1281 1.390 . S
C1273 C1272 1.387 . S
C1273 C1275 1.387 . S
H1274 C1281 0.950 . S
C1275 C1273 1.387 . S
C1275 C1277 1.390 . S
C1275 H1279 0.950 . S
H1276 C1272 0.950 . S
C1277 C1275 1.390 . S
C1277 C1278 1.387 . S
C1277 H1280 0.950 . S
C1278 C1277 1.387 . S
C1278 C1281 1.387 . S
H1279 C1275 0.950 . S
H1280 C1277 0.950 . S
C1281 C1272 1.390 . S
C1281 H1274 0.950 . S
C1281 C1278 1.387 . S
C1282 C1283 1.387 . S
C1282 H1286 0.950 . S
C1282 C1291 1.390 . S
C1283 C1282 1.387 . S
C1283 C1285 1.387 . S
H1284 C1291 0.950 . S
C1285 C1283 1.387 . S
C1285 C1287 1.390 . S
C1285 H1289 0.950 . S
H1286 C1282 0.950 . S
C1287 C1285 1.390 . S
C1287 C1288 1.387 . S
C1287 H1290 0.950 . S
C1288 C1287 1.387 . S
C1288 C1291 1.387 . S
H1289 C1285 0.950 . S
H1290 C1287 0.950 . S
C1291 C1282 1.390 . S
C1291 H1284 0.950 . S
C1291 C1288 1.387 . S
C1292 C1293 1.387 . S
C1292 H1296 0.950 . S
C1292 C1301 1.390 . S
C1293 C1292 1.387 . S
C1293 C1295 1.387 . S
H1294 C1301 0.950 . S
C1295 C1293 1.387 . S
C1295 C1297 1.390 . S
C1295 H1299 0.950 . S
H1296 C1292 0.950 . S
C1297 C1295 1.390 . S
C1297 C1298 1.387 . S
C1297 H1300 0.950 . S
C1298 C1297 1.387 . S
C1298 C1301 1.387 . S
H1299 C1295 0.950 . S
H1300 C1297 0.950 . S
C1301 C1292 1.390 . S
C1301 H1294 0.950 . S
C1301 C1298 1.387 . S
C1302 C1303 1.387 . S
C1302 H1306 0.950 . S
C1302 C1311 1.390 . S
C1303 C1302 1.387 . S
C1303 C1305 1.387 . S
H1304 C1311 0.950 . S
C1305 C1303 1.387 . S
C1305 C1307 1.390 . S
C1305 H1309 0.950 . S
H1306 C1302 0.950 . S
C1307 C1305 1.390 . S
C1307 C1308 1.387 . S
C1307 H1310 0.950 . S
C1308 C1307 1.387 . S
C1308 C1311 1.387 . S
H1309 C1305 0.950 . S
H1310 C1307 0.950 . S
C1311 C1302 1.390 . S
C1311 H1304 0.950 . S
C1311 C1308 1.387 . S
C1312 C1313 1.387 . S
C1312 H1316 0.950 . S
C1312 C1321 1.390 . S
C1313 C1312 1.387 . S
C1313 C1315 1.387 . S
H1314 C1321 0.950 . S
C1315 C1313 1.387 . S
C1315 C1317 1.390 . S
C1315 H1319 0.950 . S
H1316 C1312 0.950 . S
C1317 C1315 1.390 . S
C1317 C1318 1.387 . S
C1317 H1320 0.950 . S
C1318 C1317 1.387 . S
C1318 C1321 1.387 . S
H1319 C1315 0.950 . S
H1320 C1317 0.950 . S
C1321 C1312 1.390 . S
C1321 H1314 0.950 . S
C1321 C1318 1.387 . S
C1322 C1323 1.387 . S
C1322 H1326 0.950 . S
C1322 C1331 1.390 . S
C1323 C1322 1.387 . S
C1323 C1325 1.387 . S
H1324 C1331 0.950 . S
C1325 C1323 1.387 . S
C1325 C1327 1.390 . S
C1325 H1329 0.950 . S
H1326 C1322 0.950 . S
C1327 C1325 1.390 . S
C1327 C1328 1.387 . S
C1327 H1330 0.950 . S
C1328 C1327 1.387 . S
C1328 C1331 1.387 . S
H1329 C1325 0.950 . S
H1330 C1327 0.950 . S
C1331 C1322 1.390 . S
C1331 H1324 0.950 . S
C1331 C1328 1.387 . S
C1332 C1333 1.387 . S
C1332 H1336 0.950 . S
C1332 C1341 1.390 . S
C1333 C1332 1.387 . S
C1333 C1335 1.387 . S
H1334 C1341 0.950 . S
C1335 C1333 1.387 . S
C1335 C1337 1.390 . S
C1335 H1339 0.950 . S
H1336 C1332 0.950 . S
C1337 C1335 1.390 . S
C1337 C1338 1.387 . S
C1337 H1340 0.950 . S
C1338 C1337 1.387 . S
C1338 C1341 1.387 . S
H1339 C1335 0.950 . S
H1340 C1337 0.950 . S
C1341 C1332 1.390 . S
C1341 H1334 0.950 . S
C1341 C1338 1.387 . S
C1342 C1343 1.387 . S
C1342 H1346 0.950 . S
C1342 C1351 1.390 . S
C1343 C1342 1.387 . S
C1343 C1345 1.387 . S
H1344 C1351 0.950 . S
C1345 C1343 1.387 . S
C1345 C1347 1.390 . S
C1345 H1349 0.950 . S
H1346 C1342 0.950 . S
C1347 C1345 1.390 . S
C1347 C1348 1.387 . S
C1347 H1350 0.950 . S
C1348 C1347 1.387 . S
C1348 C1351 1.387 . S
H1349 C1345 0.950 . S
H1350 C1347 0.950 . S
C1351 C1342 1.390 . S
C1351 H1344 0.950 . S
C1351 C1348 1.387 . S
C1352 C1353 1.387 . S
C1352 H1356 0.950 . S
C1352 C1361 1.390 . S
C1353 C1352 1.387 . S
C1353 C1355 1.387 . S
H1354 C1361 0.950 . S
C1355 C1353 1.387 . S
C1355 C1357 1.390 . S
C1355 H1359 0.950 . S
H1356 C1352 0.950 . S
C1357 C1355 1.390 . S
C1357 C1358 1.387 . S
C1357 H1360 0.950 . S
C1358 C1357 1.387 . S
C1358 C1361 1.387 . S
H1359 C1355 0.950 . S
H1360 C1357 0.950 . S
C1361 C1352 1.390 . S
C1361 H1354 0.950 . S
C1361 C1358 1.387 . S
C1362 C1363 1.387 . S
C1362 H1366 0.950 . S
C1362 C1371 1.390 . S
C1363 C1362 1.387 . S
C1363 C1365 1.387 . S
H1364 C1371 0.950 . S
C1365 C1363 1.387 . S
C1365 C1367 1.390 . S
C1365 H1369 0.950 . S
H1366 C1362 0.950 . S
C1367 C1365 1.390 . S
C1367 C1368 1.387 . S
C1367 H1370 0.950 . S
C1368 C1367 1.387 . S
C1368 C1371 1.387 . S
H1369 C1365 0.950 . S
H1370 C1367 0.950 . S
C1371 C1362 1.390 . S
C1371 H1364 0.950 . S
C1371 C1368 1.387 . S
C1372 C1373 1.387 . S
C1372 H1376 0.950 . S
C1372 C1381 1.390 . S
C1373 C1372 1.387 . S
C1373 C1375 1.387 . S
H1374 C1381 0.950 . S
C1375 C1373 1.387 . S
C1375 C1377 1.390 . S
C1375 H1379 0.950 . S
H1376 C1372 0.950 . S
C1377 C1375 1.390 . S
C1377 C1378 1.387 . S
C1377 H1380 0.950 . S
C1378 C1377 1.387 . S
C1378 C1381 1.387 . S
H1379 C1375 0.950 . S
H1380 C1377 0.950 . S
C1381 C1372 1.390 . S
C1381 H1374 0.950 . S
C1381 C1378 1.387 . S
C1382 C1383 1.387 . S
C1382 H1386 0.950 . S
C1382 C1391 1.390 . S
C1383 C1382 1.387 . S
C1383 C1385 1.387 . S
H1384 C1391 0.950 . S
C1385 C1383 1.387 . S
C1385 C1387 1.390 . S
C1385 H1389 0.950 . S
H1386 C1382 0.950 . S
C1387 C1385 1.390 . S
C1387 C1388 1.387 . S
C1387 H1390 0.950 . S
C1388 C1387 1.387 . S
C1388 C1391 1.387 . S
H1389 C1385 0.950 . S
H1390 C1387 0.950 . S
C1391 C1382 1.390 . S
C1391 H1384 0.950 . S
C1391 C1388 1.387 . S
C1392 C1393 1.387 . S
C1392 H1396 0.950 . S
C1392 C1401 1.390 . S
C1393 C1392 1.387 . S
C1393 C1395 1.387 . S
H1394 C1401 0.950 . S
C1395 C1393 1.387 . S
C1395 C1397 1.390 . S
C1395 H1399 0.950 . S
H1396 C1392 0.950 . S
C1397 C1395 1.390 . S
C1397 C1398 1.387 . S
C1397 H1400 0.950 . S
C1398 C1397 1.387 . S
C1398 C1401 1.387 . S
H1399 C1395 0.950 . S
H1400 C1397 0.950 . S
C1401 C1392 1.390 . S
C1401 H1394 0.950 . S
C1401 C1398 1.387 . S
C1402 C1403 1.387 . S
C1402 H1406 0.950 . S
C1402 C1411 1.390 . S
C1403 C1402 1.387 . S
C1403 C1405 1.387 . S
H1404 C1411 0.950 . S
C1405 C1403 1.387 . S
C1405 C1407 1.390 . S
C1405 H1409 0.950 . S
H1406 C1402 0.950 . S
C1407 C1405 1.390 . S
C1407 C1408 1.387 . S
C1407 H1410 0.950 . S
C1408 C1407 1.387 . S
C1408 C1411 1.387 . S
H1409 C1405 0.950 . S
H1410 C1407 0.950 . S
C1411 C1402 1.390 . S
C1411 H1404 0.950 . S
C1411 C1408 1.387 . S
C1412 C1413 1.387 . S
C1412 H1416 0.950 . S
C1412 C1421 1.390 . S
C1413 C1412 1.387 . S
C1413 C1415 1.387 . S
H1414 C1421 0.950 . S
C1415 C1413 1.387 . S
C1415 C1417 1.390 . S
C1415 H1419 0.950 . S
H1416 C1412 0.950 . S
C1417 C1415 1.390 . S
C1417 C1418 1.387 . S
C1417 H1420 0.950 . S
C1418 C1417 1.387 . S
C1418 C1421 1.387 . S
H1419 C1415 0.950 . S
H1420 C1417 0.950 . S
C1421 C1412 1.390 . S
C1421 H1414 0.950 . S
C1421 C1418 1.387 . S
C1422 C1423 1.387 . S
C1422 H1426 0.950 . S
C1422 C1431 1.390 . S
C1423 C1422 1.387 . S
C1423 C1425 1.387 . S
H1424 C1431 0.950 . S
C1425 C1423 1.387 . S
C1425 C1427 1.390 . S
C1425 H1429 0.950 . S
H1426 C1422 0.950 . S
C1427 C1425 1.390 . S
C1427 C1428 1.387 . S
C1427 H1430 0.950 . S
C1428 C1427 1.387 . S
C1428 C1431 1.387 . S
H1429 C1425 0.950 . S
H1430 C1427 0.950 . S
C1431 C1422 1.390 . S
C1431 H1424 0.950 . S
C1431 C1428 1.387 . S
C1432 C1433 1.387 . S
C1432 H1436 0.950 . S
C1432 C1441 1.390 . S
C1433 C1432 1.387 . S
C1433 C1435 1.387 . S
H1434 C1441 0.950 . S
C1435 C1433 1.387 . S
C1435 C1437 1.390 . S
C1435 H1439 0.950 . S
H1436 C1432 0.950 . S
C1437 C1435 1.390 . S
C1437 C1438 1.387 . S
C1437 H1440 0.950 . S
C1438 C1437 1.387 . S
C1438 C1441 1.387 . S
H1439 C1435 0.950 . S
H1440 C1437 0.950 . S
C1441 C1432 1.390 . S
C1441 H1434 0.950 . S
C1441 C1438 1.387 . S
C1442 C1443 1.387 . S
C1442 H1446 0.950 . S
C1442 C1451 1.390 . S
C1443 C1442 1.387 . S
C1443 C1445 1.387 . S
H1444 C1451 0.950 . S
C1445 C1443 1.387 . S
C1445 C1447 1.390 . S
C1445 H1449 0.950 . S
H1446 C1442 0.950 . S
C1447 C1445 1.390 . S
C1447 C1448 1.387 . S
C1447 H1450 0.950 . S
C1448 C1447 1.387 . S
C1448 C1451 1.387 . S
H1449 C1445 0.950 . S
H1450 C1447 0.950 . S
C1451 C1442 1.390 . S
C1451 H1444 0.950 . S
C1451 C1448 1.387 . S
C1452 C1453 1.387 . S
C1452 H1456 0.950 . S
C1452 C1461 1.390 . S
C1453 C1452 1.387 . S
C1453 C1455 1.387 . S
H1454 C1461 0.950 . S
C1455 C1453 1.387 . S
C1455 C1457 1.390 . S
C1455 H1459 0.950 . S
H1456 C1452 0.950 . S
C1457 C1455 1.390 . S
C1457 C1458 1.387 . S
C1457 H1460 0.950 . S
C1458 C1457 1.387 . S
C1458 C1461 1.387 . S
H1459 C1455 0.950 . S
H1460 C1457 0.950 . S
C1461 C1452 1.390 . S
C1461 H1454 0.950 . S
C1461 C1458 1.387 . S
C1462 C1463 1.387 . S
C1462 H1466 0.950 . S
C1462 C1471 1.390 . S
C1463 C1462 1.387 . S
C1463 C1465 1.387 . S
H1464 C1471 0.950 . S
C1465 C1463 1.387 . S
C1465 C1467 1.390 . S
C1465 H1469 0.950 . S
H1466 C1462 0.950 . S
C1467 C1465 1.390 . S
C1467 C1468 1.387 . S
C1467 H1470 0.950 . S
C1468 C1467 1.387 . S
C1468 C1471 1.387 . S
H1469 C1465 0.950 . S
H1470 C1467 0.950 . S
C1471 C1462 1.390 . S
C1471 H1464 0.950 . S
C1471 C1468 1.387 . S
C1472 C1473 1.387 . S
C1472 H1476 0.950 . S
C1472 C1481 1.390 . S
C1473 C1472 1.387 . S
C1473 C1475 1.387 . S
H1474 C1481 0.950 . S
C1475 C1473 1.387 . S
C1475 C1477 1.390 . S
C1475 H1479 0.950 . S
H1476 C1472 0.950 . S
C1477 C1475 1.390 . S
C1477 C1478 1.387 . S
C1477 H1480 0.950 . S
C1478 C1477 1.387 . S
C1478 C1481 1.387 . S
H1479 C1475 0.950 . S
H1480 C1477 0.950 . S
C1481 C1472 1.390 . S
C1481 H1474 0.950 . S
C1481 C1478 1.387 . S
C1482 C1483 1.387 . S
C1482 H1486 0.950 . S
C1482 C1491 1.390 . S
C1483 C1482 1.387 . S
C1483 C1485 1.387 . S
H1484 C1491 0.950 . S
C1485 C1483 1.387 . S
C1485 C1487 1.390 . S
C1485 H1489 0.950 . S
H1486 C1482 0.950 . S
C1487 C1485 1.390 . S
C1487 C1488 1.387 . S
C1487 H1490 0.950 . S
C1488 C1487 1.387 . S
C1488 C1491 1.387 . S
H1489 C1485 0.950 . S
H1490 C1487 0.950 . S
C1491 C1482 1.390 . S
C1491 H1484 0.950 . S
C1491 C1488 1.387 . S
C1492 C1493 1.387 . S
C1492 H1496 0.950 . S
C1492 C1501 1.390 . S
C1493 C1492 1.387 . S
C1493 C1495 1.387 . S
H1494 C1501 0.950 . S
C1495 C1493 1.387 . S
C1495 C1497 1.390 . S
C1495 H1499 0.950 . S
H1496 C1492 0.950 . S
C1497 C1495 1.390 . S
C1497 C1498 1.387 . S
C1497 H1500 0.950 . S
C1498 C1497 1.387 . S
C1498 C1501 1.387 . S
H1499 C1495 0.950 . S
H1500 C1497 0.950 . S
C1501 C1492 1.390 . S
C1501 H1494 0.950 . S
C1501 C1498 1.387 . S
C1502 C1503 1.387 . S
C1502 H1506 0.950 . S
C1502 C1511 1.390 . S
C1503 C1502 1.387 . S
C1503 C1505 1.387 . S
H1504 C1511 0.950 . S
C1505 C1503 1.387 . S
C1505 C1507 1.390 . S
C1505 H1509 0.950 . S
H1506 C1502 0.950 . S
C1507 C1505 1.390 . S
C1507 C1508 1.387 . S
C1507 H1510 0.950 . S
C1508 C1507 1.387 . S
C1508 C1511 1.387 . S
H1509 C1505 0.950 . S
H1510 C1507 0.950 . S
C1511 C1502 1.390 . S
C1511 H1504 0.950 . S
C1511 C1508 1.387 . S
C1512 C1513 1.387 . S
C1512 H1516 0.950 . S
C1512 C1521 1.390 . S
C1513 C1512 1.387 . S
C1513 C1515 1.387 . S
H1514 C1521 0.950 . S
C1515 C1513 1.387 . S
C1515 C1517 1.390 . S
C1515 H1519 0.950 . S
H1516 C1512 0.950 . S
C1517 C1515 1.390 . S
C1517 C1518 1.387 . S
C1517 H1520 0.950 . S
C1518 C1517 1.387 . S
C1518 C1521 1.387 . S
H1519 C1515 0.950 . S
H1520 C1517 0.950 . S
C1521 C1512 1.390 . S
C1521 H1514 0.950 . S
C1521 C1518 1.387 . S
C1522 C1523 1.387 . S
C1522 H1526 0.950 . S
C1522 C1531 1.390 . S
C1523 C1522 1.387 . S
C1523 C1525 1.387 . S
H1524 C1531 0.950 . S
C1525 C1523 1.387 . S
C1525 C1527 1.390 . S
C1525 H1529 0.950 . S
H1526 C1522 0.950 . S
C1527 C1525 1.390 . S
C1527 C1528 1.387 . S
C1527 H1530 0.950 . S
C1528 C1527 1.387 . S
C1528 C1531 1.387 . S
H1529 C1525 0.950 . S
H1530 C1527 0.950 . S
C1531 C1522 1.390 . S
C1531 H1524 0.950 . S
C1531 C1528 1.387 . S
C1532 C1533 1.387 . S
C1532 H1536 0.950 . S
C1532 C1541 1.390 . S
C1533 C1532 1.387 . S
C1533 C1535 1.387 . S
H1534 C1541 0.950 . S
C1535 C1533 1.387 . S
C1535 C1537 1.390 . S
C1535 H1539 0.950 . S
H1536 C1532 0.950 . S
C1537 C1535 1.390 . S
C1537 C1538 1.387 . S
C1537 H1540 0.950 . S
C1538 C1537 1.387 . S
C1538 C1541 1.387 . S
H1539 C1535 0.950 . S
H1540 C1537 0.950 . S
C1541 C1532 1.390 . S
C1541 H1534 0.950 . S
C1541 C1538 1.387 . S
C1542 C1543 1.387 . S
C1542 H1546 0.950 . S
C1542 C1551 1.390 . S
C1543 C1542 1.387 . S
C1543 C1545 1.387 . S
H1544 C1551 0.950 . S
C1545 C1543 1.387 . S
C1545 C1547 1.390 . S
C1545 H1549 0.950 . S
H1546 C1542 0.950 . S
C1547 C1545 1.390 . S
C1547 C1548 1.387 . S
C1547 H1550 0.950 . S
C1548 C1547 1.387 . S
C1548 C1551 1.387 . S
H1549 C1545 0.950 . S
H1550 C1547 0.950 . S
C1551 C1542 1.390 . S
C1551 H1544 0.950 . S
C1551 C1548 1.387 . S
C1552 C1553 1.387 . S
C1552 H1556 0.950 . S
C1552 C1561 1.390 . S
C1553 C1552 1.387 . S
C1553 C1555 1.387 . S
H1554 C1561 0.950 . S
C1555 C1553 1.387 . S
C1555 C1557 1.390 . S
C1555 H1559 0.950 . S
H1556 C1552 0.950 . S
C1557 C1555 1.390 . S
C1557 C1558 1.387 . S
C1557 H1560 0.950 . S
C1558 C1557 1.387 . S
C1558 C1561 1.387 . S
H1559 C1555 0.950 . S
H1560 C1557 0.950 . S
C1561 C1552 1.390 . S
C1561 H1554 0.950 . S
C1561 C1558 1.387 . S
C1562 C1563 1.387 . S
C1562 H1566 0.950 . S
C1562 C1571 1.390 . S
C1563 C1562 1.387 . S
C1563 C1565 1.387 . S
H1564 C1571 0.950 . S
C1565 C1563 1.387 . S
C1565 C1567 1.390 . S
C1565 H1569 0.950 . S
H1566 C1562 0.950 . S
C1567 C1565 1.390 . S
C1567 C1568 1.387 . S
C1567 H1570 0.950 . S
C1568 C1567 1.387 . S
C1568 C1571 1.387 . S
H1569 C1565 0.950 . S
H1570 C1567 0.950 . S
C1571 C1562 1.390 . S
C1571 H1564 0.950 . S
C1571 C1568 1.387 . S
C1572 C1573 1.387 . S
C1572 H1576 0.950 . S
C1572 C1581 1.390 . S
C1573 C1572 1.387 . S
C1573 C1575 1.387 . S
H1574 C1581 0.950 . S
C1575 C1573 1.387 . S
C1575 C1577 1.390 . S
C1575 H1579 0.950 . S
H1576 C1572 0.950 . S
C1577 C1575 1.390 . S
C1577 C1578 1.387 . S
C1577 H1580 0.950 . S
C1578 C1577 1.387 . S
C1578 C1581 1.387 . S
H1579 C1575 0.950 . S
H1580 C1577 0.950 . S
C1581 C1572 1.390 . S
C1581 H1574 0.950 . S
C1581 C1578 1.387 . S
C1582 C1583 1.387 . S
C1582 H1586 0.950 . S
C1582 C1591 1.390 . S
C1583 C1582 1.387 . S
C1583 C1585 1.387 . S
H1584 C1591 0.950 . S
C1585 C1583 1.387 . S
C1585 C1587 1.390 . S
C1585 H1589 0.950 . S
H1586 C1582 0.950 . S
C1587 C1585 1.390 . S
C1587 C1588 1.387 . S
C1587 H1590 0.950 . S
C1588 C1587 1.387 . S
C1588 C1591 1.387 . S
H1589 C1585 0.950 . S
H1590 C1587 0.950 . S
C1591 C1582 1.390 . S
C1591 H1584 0.950 . S
C1591 C1588 1.387 . S
C1592 C1593 1.387 . S
C1592 H1596 0.950 . S
C1592 C1601 1.390 . S
C1593 C1592 1.387 . S
C1593 C1595 1.387 . S
H1594 C1601 0.950 . S
C1595 C1593 1.387 . S
C1595 C1597 1.390 . S
C1595 H1599 0.950 . S
H1596 C1592 0.950 . S
C1597 C1595 1.390 . S
C1597 C1598 1.387 . S
C1597 H1600 0.950 . S
C1598 C1597 1.387 . S
C1598 C1601 1.387 . S
H1599 C1595 0.950 . S
H1600 C1597 0.950 . S
C1601 C1592 1.390 . S
C1601 H1594 0.950 . S
C1601 C1598 1.387 . S
C1602 C1603 1.387 . S
C1602 H1606 0.950 . S
C1602 C1611 1.390 . S
C1603 C1602 1.387 . S
C1603 C1605 1.387 . S
H1604 C1611 0.950 . S
C1605 C1603 1.387 . S
C1605 C1607 1.390 . S
C1605 H1609 0.950 . S
H1606 C1602 0.950 . S
C1607 C1605 1.390 . S
C1607 C1608 1.387 . S
C1607 H1610 0.950 . S
C1608 C1607 1.387 . S
C1608 C1611 1.387 . S
H1609 C1605 0.950 . S
H1610 C1607 0.950 . S
C1611 C1602 1.390 . S
C1611 H1604 0.950 . S
C1611 C1608 1.387 . S
C1612 C1613 1.387 . S
C1612 H1616 0.950 . S
C1612 C1621 1.390 . S
C1613 C1612 1.387 . S
C1613 C1615 1.387 . S
H1614 C1621 0.950 . S
C1615 C1613 1.387 . S
C1615 C1617 1.390 . S
C1615 H1619 0.950 . S
H1616 C1612 0.950 . S
C1617 C1615 1.390 . S
C1617 C1618 1.387 . S
C1617 H1620 0.950 . S
C1618 C1617 1.387 . S
C1618 C1621 1.387 . S
H1619 C1615 0.950 . S
H1620 C1617 0.950 . S
C1621 C1612 1.390 . S
C1621 H1614 0.950 . S
C1621 C1618 1.387 . S
C1622 C1623 1.387 . S
C1622 H1626 0.950 . S
C1622 C1631 1.390 . S
C1623 C1622 1.387 . S
C1623 C1625 1.387 . S
H1624 C1631 0.950 . S
C1625 C1623 1.387 . S
C1625 C1627 1.390 . S
C1625 H1629 0.950 . S
H1626 C1622 0.950 . S
C1627 C1625 1.390 . S
C1627 C1628 1.387 . S
C1627 H1630 0.950 . S
C1628 C1627 1.387 . S
C1628 C1631 1.387 . S
H1629 C1625 0.950 . S
H1630 C1627 0.950 . S
C1631 C1622 1.390 . S
C1631 H1624 0.950 . S
C1631 C1628 1.387 . S
C673 C397 1.126 . S
C678 C5 1.127 . S
C683 C19 1.130 . S
C688 C411 1.123 . S
C693 C425 1.130 . S
C698 C33 1.123 . S
C703 C47 1.126 . S
C708 C439 1.127 . S
C713 C341 1.125 . S
C718 C61 1.128 . S
C723 C75 1.128 . S
C728 C355 1.125 . S
C733 C369 1.123 . S
C738 C89 1.130 . S
C743 C103 1.129 . S
C748 C383 1.124 . S
C753 C537 1.128 . S
C758 C117 1.125 . S
C763 C551 1.127 . S
C768 C131 1.126 . S
C773 C509 1.127 . S
C778 C145 1.126 . S
C783 C159 1.123 . S
C788 C523 1.130 . S
C793 C481 1.129 . S
C798 C173 1.124 . S
C803 C495 1.123 . S
C808 C187 1.130 . S
C813 C201 1.125 . S
C818 C453 1.128 . S
C823 C467 1.127 . S
C828 C215 1.126 . S
C833 C229 1.130 . S
C838 C635 1.123 . S
C843 C607 1.129 . S
C848 C243 1.124 . S
C853 C621 1.125 . S
C858 C257 1.128 . S
C863 C579 1.129 . S
C868 C271 1.124 . S
C873 C593 1.125 . S
C878 C285 1.128 . S
C883 C299 1.125 . S
C888 C565 1.128 . S
C893 C313 1.127 . S
C898 C663 1.126 . S
C903 C649 1.125 . S
C908 C327 1.128 . S
C913 C109 1.488 . S
C918 C11 1.491 . S
C923 C67 1.490 . S
C928 C25 1.488 . S
C933 C81 1.491 . S
C938 C39 1.488 . S
C943 C95 1.491 . S
C948 C53 1.488 . S
C953 C291 1.490 . S
C958 C123 1.489 . S
C963 C249 1.491 . S
C968 C137 1.489 . S
C973 C263 1.489 . S
C978 C151 1.489 . S
C983 C277 1.488 . S
C988 C165 1.491 . S
C993 C333 1.490 . S
C998 C179 1.490 . S
C1003 C305 1.488 . S
C1008 C193 1.491 . S
C1013 C207 1.490 . S
C1018 C319 1.488 . S
C1023 C235 1.489 . S
C1028 C221 1.489 . S
C1033 C445 1.491 . S
C1038 C347 1.488 . S
C1043 C403 1.488 . S
C1048 C361 1.491 . S
C1053 C375 1.490 . S
C1058 C417 1.488 . S
C1063 C389 1.488 . S
C1068 C431 1.490 . S
C1073 C459 1.489 . S
C1078 C627 1.489 . S
C1083 C473 1.491 . S
C1088 C585 1.488 . S
C1093 C599 1.491 . S
C1098 C487 1.489 . S
C1103 C613 1.488 . S
C1108 C501 1.491 . S
C1113 C669 1.489 . S
C1118 C515 1.490 . S
C1123 C641 1.489 . S
C1128 C529 1.489 . S
C1133 C655 1.489 . S
C1138 C543 1.490 . S
C1143 C557 1.490 . S
C1148 C571 1.488 . S
C1153 C4 1.248 . S
C1158 C124 1.166 . S
C1163 C138 1.168 . S
C1168 C18 1.247 . S
C1173 C152 1.165 . S
C1178 C32 1.249 . S
C1183 C166 1.167 . S
C1188 C46 1.248 . S
C1193 C60 1.247 . S
C1198 C180 1.166 . S
C1203 C194 1.168 . S
C1208 C74 1.247 . S
C1213 C88 1.248 . S
C1218 C208 1.164 . S
C1223 C222 1.167 . S
C1228 C102 1.248 . S
C1233 C236 1.167 . S
C1238 C116 1.248 . S
C1243 C334 1.167 . S
C1248 C130 1.248 . S
C1253 C144 1.247 . S
C1258 C306 1.167 . S
C1263 C158 1.248 . S
C1268 C320 1.166 . S
C1273 C172 1.248 . S
C1278 C250 1.167 . S
C1283 C186 1.248 . S
C1288 C264 1.167 . S
C1293 C200 1.247 . S
C1298 C278 1.165 . S
C1303 C214 1.248 . S
C1308 C292 1.165 . S
C1313 C228 1.247 . S
C1318 C12 1.166 . S
C1323 C242 1.249 . S
C1328 C68 1.164 . S
C1333 C256 1.248 . S
C1338 C82 1.167 . S
C1343 C270 1.248 . S
C1348 C96 1.167 . S
C1353 C284 1.247 . S
C1358 C110 1.165 . S
C1363 C298 1.247 . S
C1368 C40 1.168 . S
C1373 C54 1.169 . S
C1378 C312 1.246 . S
C1383 C26 1.167 . S
C1388 C326 1.248 . S
C1393 C460 1.169 . S
C1398 C340 1.246 . S
C1403 C474 1.168 . S
C1408 C354 1.247 . S
C1413 C488 1.167 . S
C1418 C368 1.248 . S
C1423 C502 1.166 . S
C1428 C382 1.247 . S
C1433 C516 1.167 . S
C1438 C396 1.248 . S
C1443 C410 1.248 . S
C1448 C530 1.167 . S
C1453 C544 1.163 . S
C1458 C424 1.249 . S
C1463 C438 1.248 . S
C1468 C558 1.167 . S
C1473 C572 1.167 . S
C1478 C452 1.247 . S
C1483 C466 1.246 . S
C1488 C670 1.167 . S
C1493 C480 1.247 . S
C1498 C642 1.166 . S
C1503 C656 1.166 . S
C1508 C494 1.247 . S
C1513 C586 1.167 . S
C1518 C508 1.248 . S
C1523 C522 1.248 . S
C1528 C600 1.167 . S
C1533 C536 1.247 . S
C1538 C614 1.165 . S
C1543 C628 1.167 . S
C1548 C550 1.248 . S
C1553 C348 1.166 . S
C1558 C564 1.247 . S
C1563 C404 1.167 . S
C1568 C578 1.248 . S
C1573 C418 1.167 . S
C1578 C592 1.248 . S
C1583 C606 1.248 . S
C1588 C432 1.166 . S
C1593 C446 1.167 . S
C1598 C620 1.248 . S
C1603 C376 1.168 . S
C1608 C634 1.246 . S
C1613 C648 1.247 . S
C1618 C390 1.165 . S
C1623 C362 1.167 . S
C1628 C662 1.248 . S
