# Generated by pormake.
# Topology snk, (6)-cn, num edge types: 1
# Building blocks:
#     Node 0, Type 0, BuildingBlock: BETDAH_clean_sbu_0, # of connection points: 6
#     Node 1, Type 0, BuildingBlock: BETDAH_clean_sbu_0, # of connection points: 6
#     Node 2, Type 0, BuildingBlock: BETDAH_clean_sbu_0, # of connection points: 6
#     Node 3, Type 0, BuildingBlock: BETDAH_clean_sbu_0, # of connection points: 6
#     Node 4, Type 0, BuildingBlock: BETDAH_clean_sbu_0, # of connection points: 6
#     Node 5, Type 0, BuildingBlock: BETDAH_clean_sbu_0, # of connection points: 6
#     Node 6, Type 0, BuildingBlock: BETDAH_clean_sbu_0, # of connection points: 6
#     Node 7, Type 0, BuildingBlock: BETDAH_clean_sbu_0, # of connection points: 6
#     Edge 8, Type (0, 0), BuildingBlock: KIFKEQ_clean_linker_1, # of connection points: 2
#     Edge 9, Type (0, 0), BuildingBlock: KIFKEQ_clean_linker_1, # of connection points: 2
#     Edge 10, Type (0, 0), BuildingBlock: KIFKEQ_clean_linker_1, # of connection points: 2
#     Edge 11, Type (0, 0), BuildingBlock: KIFKEQ_clean_linker_1, # of connection points: 2
#     Edge 12, Type (0, 0), BuildingBlock: KIFKEQ_clean_linker_1, # of connection points: 2
#     Edge 13, Type (0, 0), BuildingBlock: KIFKEQ_clean_linker_1, # of connection points: 2
#     Edge 14, Type (0, 0), BuildingBlock: KIFKEQ_clean_linker_1, # of connection points: 2
#     Edge 15, Type (0, 0), BuildingBlock: KIFKEQ_clean_linker_1, # of connection points: 2
#     Edge 16, Type (0, 0), BuildingBlock: KIFKEQ_clean_linker_1, # of connection points: 2
#     Edge 17, Type (0, 0), BuildingBlock: KIFKEQ_clean_linker_1, # of connection points: 2
#     Edge 18, Type (0, 0), BuildingBlock: KIFKEQ_clean_linker_1, # of connection points: 2
#     Edge 19, Type (0, 0), BuildingBlock: KIFKEQ_clean_linker_1, # of connection points: 2
#     Edge 20, Type (0, 0), BuildingBlock: KIFKEQ_clean_linker_1, # of connection points: 2
#     Edge 21, Type (0, 0), BuildingBlock: KIFKEQ_clean_linker_1, # of connection points: 2
#     Edge 22, Type (0, 0), BuildingBlock: KIFKEQ_clean_linker_1, # of connection points: 2
#     Edge 23, Type (0, 0), BuildingBlock: KIFKEQ_clean_linker_1, # of connection points: 2
#     Edge 24, Type (0, 0), BuildingBlock: KIFKEQ_clean_linker_1, # of connection points: 2
#     Edge 25, Type (0, 0), BuildingBlock: KIFKEQ_clean_linker_1, # of connection points: 2
#     Edge 26, Type (0, 0), BuildingBlock: KIFKEQ_clean_linker_1, # of connection points: 2
#     Edge 27, Type (0, 0), BuildingBlock: KIFKEQ_clean_linker_1, # of connection points: 2
#     Edge 28, Type (0, 0), BuildingBlock: KIFKEQ_clean_linker_1, # of connection points: 2
#     Edge 29, Type (0, 0), BuildingBlock: KIFKEQ_clean_linker_1, # of connection points: 2
#     Edge 30, Type (0, 0), BuildingBlock: KIFKEQ_clean_linker_1, # of connection points: 2
#     Edge 31, Type (0, 0), BuildingBlock: KIFKEQ_clean_linker_1, # of connection points: 2
# Relax obj value: 0.086
# Max RMSD: 0.149
# Mean RMSD: 0.123
data_MOF--net-snk--node1-BETDAH_clean_sbu_0--edge1-KIFKEQ_clean_linker_1
_symmetry_space_group_name_H-M    P1
_symmetry_Int_Tables_number       1
_symmetry_cell_setting            triclinic
loop_
_symmetry_equiv_pos_as_xyz
'x, y, z'
_cell_length_a     38.251451
_cell_length_b     38.165996
_cell_length_c     25.586
_cell_angle_alpha  83.591192
_cell_angle_beta   96.473461
_cell_angle_gamma 89.206843
loop_
_atom_site_label
_atom_site_type_symbol
_atom_site_fract_x
_atom_site_fract_y
_atom_site_fract_z
_atom_type_partial_charge
Ho0 Ho 0.98836 0.99793 0.46794 0.0
Ho1 Ho 0.02663 0.01724 0.57415 0.0
C2 C 0.05633 0.04924 0.46872 0.0
C3 C 0.9563 0.99889 0.37288 0.0
C4 C 0.96528 1.00333 0.31803 0.0
C5 C 0.93857 1.00203 0.27613 0.0
C6 C 0.94652 1.00469 0.22381 0.0
C7 C 0.98147 0.0087 0.21221 0.0
C8 C 0.0082 0.01036 0.25451 0.0
C9 C 1.00017 0.00772 0.30695 0.0
C10 C 0.0402 0.95272 0.51515 0.0
C11 C 0.95834 0.96588 0.57283 0.0
C12 C 0.05771 0.01702 0.66966 0.0
C13 C 0.04796 0.0144 0.72424 0.0
C14 C 0.071 0.99699 0.76588 0.0
C15 C 0.06323 0.99564 0.81825 0.0
C16 C 0.03226 0.01183 0.83016 0.0
C17 C 0.00891 0.02878 0.78814 0.0
C18 C 0.01661 0.02994 0.73571 0.0
C19 C 0.97522 0.0625 0.52631 0.0
O20 O 0.02662 0.03954 0.44299 0.0
O21 O 0.06539 0.03842 0.51958 0.0
O22 O 0.96864 0.97012 0.40207 0.0
O23 O 0.95897 0.0267 0.3986 0.0
O24 O 0.01232 0.94303 0.48732 0.0
O25 O 0.0404 0.98573 0.51295 0.0
O26 O 0.98778 0.97589 0.59905 0.0
O27 O 0.9497 0.97633 0.52186 0.0
O28 O 0.04738 0.04574 0.63862 0.0
O29 O 0.05422 0.98865 0.64539 0.0
O30 O 1.00354 0.07228 0.55288 0.0
O31 O 0.97469 0.02948 0.52938 0.0
H32 H 0.9115 0.9985 0.28394 0.0
H33 H 0.92532 1.00279 0.19251 0.0
H34 H 0.03532 0.01387 0.2471 0.0
H35 H 0.02118 0.00882 0.33884 0.0
H36 H 0.09533 0.98484 0.75794 0.0
H37 H 0.08195 0.98263 0.84956 0.0
H38 H 0.98459 0.04107 0.79577 0.0
H39 H 0.99823 0.0433 0.70423 0.0
Ho40 Ho 0.2524 0.734 0.80574 0.0
Ho41 Ho 0.2728 0.77219 0.70077 0.0
C42 C 0.30335 0.80233 0.80613 0.0
C43 C 0.25261 0.70254 0.90086 0.0
C44 C 0.25481 0.71236 0.95561 0.0
C45 C 0.28324 0.69969 0.99284 0.0
C46 C 0.28503 0.70737 0.04532 0.0
C47 C 0.25823 0.72766 0.06189 0.0
C48 C 0.2299 0.74055 0.02448 0.0
C49 C 0.22822 0.73306 0.97195 0.0
C50 C 0.20745 0.78593 0.75807 0.0
C51 C 0.22101 0.70463 0.69997 0.0
C52 C 0.27505 0.80288 0.60567 0.0
C53 C 0.2724 0.79337 0.55078 0.0
C54 C 0.24125 0.78053 0.52594 0.0
C55 C 0.23927 0.77297 0.47333 0.0
C56 C 0.26838 0.77803 0.44438 0.0
C57 C 0.29957 0.79052 0.46969 0.0
C58 C 0.30147 0.79823 0.52207 0.0
C59 C 0.31763 0.72064 0.75027 0.0
O60 O 0.29375 0.77247 0.83168 0.0
O61 O 0.29271 0.81138 0.75529 0.0
O62 O 0.2239 0.71203 0.86935 0.0
O63 O 0.28101 0.70633 0.87681 0.0
O64 O 0.19771 0.7581 0.78594 0.0
O65 O 0.24042 0.78621 0.76079 0.0
O66 O 0.23109 0.73429 0.67448 0.0
O67 O 0.23149 0.69547 0.75083 0.0
O68 O 0.30299 0.79091 0.63713 0.0
O69 O 0.24649 0.80154 0.62956 0.0
O70 O 0.32765 0.74937 0.725 0.0
O71 O 0.28465 0.72 0.7456 0.0
H72 H 0.30395 0.68347 0.98146 0.0
H73 H 0.30704 0.69674 0.07322 0.0
H74 H 0.20906 0.75663 0.03575 0.0
H75 H 0.20593 0.74332 0.94434 0.0
H76 H 0.21829 0.77659 0.54688 0.0
H77 H 0.21467 0.7638 0.45508 0.0
H78 H 0.32274 0.79416 0.44917 0.0
H79 H 0.32578 0.80815 0.54017 0.0
Ho80 Ho 0.51899 0.98678 0.07078 0.0
Ho81 Ho 0.49418 0.02668 0.96097 0.0
C82 C 0.45539 0.04619 0.05753 0.0
C83 C 0.54088 0.96846 0.16983 0.0
C84 C 0.5338 0.97648 0.22302 0.0
C85 C 0.53457 0.011 0.23737 0.0
C86 C 0.52928 0.01726 0.28892 0.0
C87 C 0.52289 0.9892 0.32702 0.0
C88 C 0.52172 0.95481 0.31218 0.0
C89 C 0.52722 0.94856 0.26088 0.0
C90 C 0.47364 0.9523 1.00776 0.0
C91 C 0.55741 0.96656 0.97444 0.0
C92 C 0.47228 0.0472 0.86246 0.0
C93 C 0.4782 0.03939 0.80899 0.0
C94 C 0.49657 0.00878 0.80064 0.0
C95 C 0.50245 1.00269 0.74922 0.0
C96 C 0.49014 0.02716 0.70534 0.0
C97 C 0.47154 0.0576 0.71425 0.0
C98 C 0.4657 0.06362 0.76549 0.0
C99 C 0.5396 0.06089 0.02443 0.0
O100 O 0.48122 0.02858 0.08888 0.0
O101 O 0.4519 0.04579 1.00555 0.0
O102 O 0.51625 0.95214 0.14315 0.0
O103 O 0.55565 0.99271 0.13993 0.0
O104 O 0.49792 0.93673 0.0423 0.0
O105 O 0.47225 0.98487 1.01201 0.0
O106 O 0.53226 0.98503 0.94271 0.0
O107 O 0.5605 0.96629 0.0265 0.0
O108 O 0.49833 0.06149 0.8893 0.0
O109 O 0.45681 0.02319 0.89168 0.0
O110 O 0.51383 0.07625 0.99241 0.0
O111 O 0.54115 0.02844 0.01922 0.0
H112 H 0.53946 0.03311 0.20896 0.0
H113 H 0.52997 0.04411 0.29888 0.0
H114 H 0.51733 0.93254 0.3406 0.0
H115 H 0.5267 0.9217 0.25088 0.0
H116 H 0.50651 0.98977 0.83379 0.0
H117 H 0.51714 0.97913 0.74394 0.0
H118 H 0.46112 0.07671 0.6815 0.0
H119 H 0.45142 0.08737 0.77116 0.0
Ho120 Ho 0.23993 0.27135 0.2126 0.0
Ho121 Ho 0.27388 0.23997 0.32282 0.0
C122 C 0.29657 0.20496 0.22477 0.0
C123 C 0.2282 0.29845 0.11459 0.0
C124 C 0.2342 0.28936 0.06147 0.0
C125 C 0.25385 0.31196 0.02965 0.0
C126 C 0.25867 0.30494 0.97839 0.0
C127 C 0.24367 0.27527 0.95761 0.0
C128 C 0.22424 0.25246 0.98968 0.0
C129 C 0.21962 0.25935 0.04112 0.0
C130 C 0.20242 0.22209 0.26392 0.0
C131 C 0.21669 0.30585 0.31054 0.0
C132 C 0.28688 0.21363 0.42109 0.0
C133 C 0.28096 0.22256 0.4744 0.0
C134 C 0.2473 0.2217 0.49163 0.0
C135 C 0.24278 0.22807 0.54336 0.0
C136 C 0.2718 0.23545 0.57908 0.0
C137 C 0.30532 0.23686 0.56134 0.0
C138 C 0.30984 0.23032 0.5098 0.0
C139 C 0.31113 0.28941 0.27119 0.0
O140 O 0.28097 0.23253 0.19458 0.0
O141 O 0.29358 0.19916 0.27603 0.0
O142 O 0.20511 0.28028 0.13948 0.0
O143 O 0.25614 0.30492 0.14608 0.0
O144 O 0.18839 0.24914 0.23311 0.0
O145 O 0.23531 0.22126 0.26318 0.0
O146 O 0.23212 0.27815 0.34067 0.0
O147 O 0.2202 0.31197 0.2595 0.0
O148 O 0.309 0.23299 0.39596 0.0
O149 O 0.25945 0.20566 0.38968 0.0
O150 O 0.32528 0.26213 0.3013 0.0
O151 O 0.27831 0.29013 0.27246 0.0
H152 H 0.26518 0.33537 0.04425 0.0
H153 H 0.27346 0.32324 0.95457 0.0
H154 H 0.21271 0.22915 0.97507 0.0
H155 H 0.20442 0.24132 0.06469 0.0
H156 H 0.22446 0.21556 0.46552 0.0
H157 H 0.21664 0.22633 0.5557 0.0
H158 H 0.3282 0.24306 0.58729 0.0
H159 H 0.33611 0.23101 0.49775 0.0
Ho160 Ho 0.74672 0.23681 0.32686 0.0
Ho161 Ho 0.76603 0.27603 0.22195 0.0
C162 C 0.79623 0.30621 0.3275 0.0
C163 C 0.74678 0.2051 0.42198 0.0
C164 C 0.7514 0.21411 0.4769 0.0
C165 C 0.75534 0.18695 0.5189 0.0
C166 C 0.75749 0.19467 0.57136 0.0
C167 C 0.75566 0.22981 0.58301 0.0
C168 C 0.75254 0.25707 0.54063 0.0
C169 C 0.75042 0.24929 0.48806 0.0
C170 C 0.70031 0.28699 0.27802 0.0
C171 C 0.7167 0.20616 0.22185 0.0
C172 C 0.76569 0.30698 0.12639 0.0
C173 C 0.76275 0.29698 0.07174 0.0
C174 C 0.7407 0.317 0.03145 0.0
C175 C 0.73896 0.30929 0.97895 0.0
C176 C 0.75939 0.28139 0.96541 0.0
C177 C 0.78105 0.26099 1.00616 0.0
C178 C 0.78265 0.26862 0.05868 0.0
C179 C 0.81231 0.22569 0.27042 0.0
O180 O 0.78699 0.27615 0.35285 0.0
O181 O 0.78569 0.31525 0.27661 0.0
O182 O 0.71844 0.21814 0.39251 0.0
O183 O 0.77463 0.20675 0.39649 0.0
O184 O 0.6912 0.25788 0.30338 0.0
O185 O 0.73323 0.28884 0.28218 0.0
O186 O 0.72603 0.23613 0.19618 0.0
O187 O 0.72707 0.19743 0.2728 0.0
O188 O 0.79438 0.29665 0.1574 0.0
O189 O 0.73746 0.30408 0.15096 0.0
O190 O 0.82153 0.25464 0.24478 0.0
O191 O 0.77941 0.22408 0.26639 0.0
H192 H 0.75631 0.15965 0.5111 0.0
H193 H 0.76058 0.17302 0.60283 0.0
H194 H 0.75078 0.2844 0.54796 0.0
H195 H 0.74738 0.27066 0.45612 0.0
H196 H 0.725 0.33891 0.04052 0.0
H197 H 0.72149 0.32519 0.94898 0.0
H198 H 0.79748 0.23957 0.99738 0.0
H199 H 0.79988 0.25263 0.0889 0.0
Ho200 Ho 0.73746 0.77009 0.71071 0.0
Ho201 Ho 0.77325 0.74111 0.82082 0.0
C202 C 0.79539 0.70508 0.72341 0.0
C203 C 0.72174 0.79571 0.6125 0.0
C204 C 0.72893 0.78907 0.55901 0.0
C205 C 0.76103 0.77402 0.54965 0.0
C206 C 0.76701 0.76843 0.49811 0.0
C207 C 0.74106 0.77796 0.45505 0.0
C208 C 0.70892 0.79282 0.46493 0.0
C209 C 0.70296 0.79827 0.51633 0.0
C210 C 0.70106 0.72193 0.76627 0.0
C211 C 0.71565 0.80683 0.80787 0.0
C212 C 0.78738 0.71579 0.9194 0.0
C213 C 0.78173 0.72506 0.9727 0.0
C214 C 0.74883 0.72109 0.99202 0.0
C215 C 0.74461 0.72782 0.04367 0.0
C216 C 0.77316 0.73858 0.07733 0.0
C217 C 0.80592 0.7429 0.05766 0.0
C218 C 0.81016 0.73608 1.00611 0.0
C219 C 0.80995 0.78901 0.76548 0.0
O220 O 0.77943 0.73228 0.69279 0.0
O221 O 0.79266 0.69976 0.77477 0.0
O222 O 0.70288 0.77242 0.63724 0.0
O223 O 0.74781 0.80666 0.64368 0.0
O224 O 0.68659 0.74873 0.73543 0.0
O225 O 0.73379 0.72091 0.76391 0.0
O226 O 0.7332 0.78088 0.83922 0.0
O227 O 0.71643 0.81082 0.75603 0.0
O228 O 0.80901 0.73525 0.89335 0.0
O229 O 0.75985 0.70718 0.88874 0.0
O230 O 0.82426 0.76232 0.7968 0.0
O231 O 0.77717 0.79022 0.76763 0.0
H232 H 0.78149 0.76684 0.58206 0.0
H233 H 0.79216 0.7572 0.49188 0.0
H234 H 0.68813 0.79992 0.43295 0.0
H235 H 0.67796 0.80978 0.52278 0.0
H236 H 0.72641 0.71226 0.96762 0.0
H237 H 0.71912 0.72373 0.05763 0.0
H238 H 0.82837 0.75163 0.08208 0.0
H239 H 0.8359 0.73911 0.99255 0.0
Ho240 Ho 0.48757 0.49486 0.96825 0.0
Ho241 Ho 0.52591 0.51647 0.07191 0.0
C242 C 0.55644 0.54506 0.96621 0.0
C243 C 0.45721 0.49235 0.87299 0.0
C244 C 0.46695 0.49567 0.81814 0.0
C245 C 0.47755 0.52782 0.79297 0.0
C246 C 0.48565 0.53023 0.74058 0.0
C247 C 0.48351 0.50055 0.71237 0.0
C248 C 0.473 0.46848 0.73776 0.0
C249 C 0.46468 0.46613 0.78985 0.0
C250 C 0.53758 0.4492 0.01954 0.0
C251 C 0.45679 0.46644 0.07378 0.0
C252 C 0.55639 0.51826 0.16727 0.0
C253 C 0.5465 0.51516 0.22205 0.0
C254 C 0.56128 0.48775 0.25954 0.0
C255 C 0.55387 0.48548 0.31217 0.0
C256 C 0.53163 0.51076 0.32875 0.0
C257 C 0.51652 0.53797 0.29091 0.0
C258 C 0.52382 0.54013 0.23825 0.0
C259 C 0.4757 0.56203 0.02073 0.0
O260 O 0.52663 0.53515 0.94098 0.0
O261 O 0.56526 0.53537 0.01737 0.0
O262 O 0.46992 0.46454 0.90419 0.0
O263 O 0.45743 0.52079 0.89733 0.0
O264 O 0.50857 0.43957 0.99465 0.0
O265 O 0.53942 0.48221 1.01381 0.0
O266 O 0.48652 0.47646 0.09913 0.0
O267 O 0.44813 0.47592 0.02255 0.0
O268 O 0.54495 0.54637 0.13562 0.0
O269 O 0.555 0.48965 0.14331 0.0
O270 O 0.50457 0.57176 0.04592 0.0
O271 O 0.47414 0.52902 0.02649 0.0
H272 H 0.47955 0.55113 0.81357 0.0
H273 H 0.49392 0.55526 0.72232 0.0
H274 H 0.47056 0.44525 0.71699 0.0
H275 H 0.45623 0.44113 0.808 0.0
H276 H 0.57891 0.46818 0.24822 0.0
H277 H 0.56556 0.46382 0.33985 0.0
H278 H 0.49967 0.5582 0.30216 0.0
H279 H 0.51204 0.56172 0.21051 0.0
Ho280 Ho 0.02305 0.49074 0.57229 0.0
Ho281 Ho 0.98981 0.52167 0.46065 0.0
C282 C 0.95663 0.54735 0.55866 0.0
C283 C 0.05255 0.48173 0.66932 0.0
C284 C 0.04422 0.48708 0.72273 0.0
C285 C 0.07166 0.48613 0.76405 0.0
C286 C 0.06457 0.49019 0.81549 0.0
C287 C 0.02979 0.49523 0.82675 0.0
C288 C 1.00232 0.49674 0.78484 0.0
C289 C 0.00948 0.49271 0.73325 0.0
C290 C 0.97216 0.45241 0.52613 0.0
C291 C 0.05613 0.46471 0.47453 0.0
C292 C 0.96098 0.53027 0.3633 0.0
C293 C 0.96997 0.52545 0.30973 0.0
C294 C 0.94753 0.50614 0.27714 0.0
C295 C 0.95438 0.50238 0.22547 0.0
C296 C 0.98383 0.51802 0.20499 0.0
C297 C 1.00659 0.53698 0.23804 0.0
C298 C 0.99978 0.54062 0.28986 0.0
C299 C 0.0409 0.55984 0.50674 0.0
O300 O 0.98466 0.53271 0.58885 0.0
O301 O 0.95001 0.54256 0.50806 0.0
O302 O 0.03532 0.45725 0.64621 0.0
O303 O 0.05575 0.51024 0.63696 0.0
O304 O 0.99919 0.43864 0.55716 0.0
O305 O 0.97225 0.4855 0.52424 0.0
O306 O 0.02833 0.47972 0.44416 0.0
O307 O 0.06267 0.46936 0.52517 0.0
O308 O 0.97655 0.5554 0.38718 0.0
O309 O 0.95819 0.50154 0.39541 0.0
O310 O 0.01393 0.57372 0.47567 0.0
O311 O 0.04062 0.52677 0.5085 0.0
H312 H 0.09867 0.48209 0.75657 0.0
H313 H 0.08644 0.48958 0.84642 0.0
H314 H 0.97522 0.50033 0.79207 0.0
H315 H 0.98793 0.49364 0.70174 0.0
H316 H 0.92444 0.49411 0.2916 0.0
H317 H 0.93663 0.48706 0.20163 0.0
H318 H 0.02931 0.54968 0.22354 0.0
H319 H 0.01761 0.55566 0.31406 0.0
H320 H 0.12181 0.07253 0.5033 0.0
H321 H 0.04356 0.07953 0.36645 0.0
H322 H 0.15833 0.11363 0.45432 0.0
H323 H 0.07999 0.12011 0.31799 0.0
H324 H 0.13239 0.22416 0.27242 0.0
H325 H 0.09851 0.18157 0.32272 0.0
H326 H 0.19307 0.11838 0.37553 0.0
H327 H 0.22704 0.16112 0.32461 0.0
C328 C 0.11247 0.08262 0.46281 0.0
C329 C 0.07965 0.07279 0.43899 0.0
C330 C 0.13347 0.10603 0.4347 0.0
C331 C 0.12192 0.12031 0.38241 0.0
C332 C 0.0894 0.11001 0.35846 0.0
C333 C 0.06859 0.08652 0.38628 0.0
C334 C 0.14595 0.20115 0.29468 0.0
C335 C 0.18235 0.19599 0.29474 0.0
C336 C 0.12653 0.17669 0.32337 0.0
C337 C 0.14308 0.14653 0.353 0.0
C338 C 0.17963 0.14152 0.35349 0.0
C339 C 0.19905 0.16592 0.32432 0.0
H340 H 0.03876 0.88118 0.53099 0.0
H341 H 0.09956 0.97001 0.57477 0.0
H342 H 0.07997 0.84124 0.58963 0.0
H343 H 0.13998 0.93038 0.63526 0.0
H344 H 0.22455 0.84558 0.69864 0.0
H345 H 0.18488 0.88578 0.63774 0.0
H346 H 0.09623 0.82487 0.68233 0.0
H347 H 0.13618 0.78393 0.74134 0.0
C348 C 0.06094 0.89211 0.5533 0.0
C349 C 0.06591 0.9286 0.54877 0.0
C350 C 0.08436 0.86932 0.58726 0.0
C351 C 0.11312 0.88262 0.61756 0.0
C352 C 0.11833 0.9192 0.61218 0.0
C353 C 0.09504 0.94194 0.57787 0.0
C354 C 0.19658 0.84081 0.69517 0.0
C355 C 0.18338 0.81153 0.72412 0.0
C356 C 0.17382 0.86396 0.66064 0.0
C357 C 0.13737 0.85843 0.65488 0.0
C358 C 0.12421 0.8295 0.68498 0.0
C359 C 0.14701 0.80624 0.71916 0.0
H360 H 0.34224 0.7862 0.90199 0.0
H361 H 0.31734 0.87168 0.77711 0.0
H362 H 0.38205 0.82365 0.94976 0.0
H363 H 0.35624 0.90988 0.82609 0.0
H364 H 0.45876 0.9551 0.90099 0.0
H365 H 0.41623 0.92023 0.85184 0.0
H366 H 0.38512 0.87135 0.99978 0.0
H367 H 0.42864 0.9055 0.04821 0.0
C368 C 0.34488 0.81321 0.88504 0.0
C369 C 0.32653 0.82596 0.83574 0.0
C370 C 0.36763 0.83485 0.91267 0.0
C371 C 0.37236 0.87001 0.89212 0.0
C372 C 0.35372 0.88285 0.84291 0.0
C373 C 0.33122 0.86101 0.81491 0.0
C374 C 0.44223 0.93741 0.92264 0.0
C375 C 0.44637 0.93326 0.9781 0.0
C376 C 0.41789 0.91731 0.89463 0.0
C377 C 0.39709 0.8928 0.92168 0.0
C378 C 0.40103 0.88937 0.97745 0.0
C379 C 0.4257 0.90911 1.00531 0.0
H380 H 0.45944 0.06031 0.16043 0.0
H381 H 0.39477 0.08103 1.00999 0.0
H382 H 0.42013 0.09739 0.20008 0.0
H383 H 0.35468 0.11735 0.05022 0.0
H384 H 0.31463 0.21215 0.12377 0.0
H385 H 0.3516 0.17291 0.0837 0.0
H386 H 0.36332 0.10159 0.22852 0.0
H387 H 0.32717 0.14152 0.26928 0.0
C388 C 0.4366 0.07246 0.13585 0.0
C389 C 0.43036 0.0677 0.08187 0.0
C390 C 0.41386 0.09362 0.15878 0.0
C391 C 0.3841 0.11046 0.12849 0.0
C392 C 0.3776 0.10528 0.07464 0.0
C393 C 0.4005 0.08426 0.05158 0.0
C394 C 0.32497 0.18805 0.14713 0.0
C395 C 0.31799 0.18011 0.19992 0.0
C396 C 0.34605 0.16536 0.12393 0.0
C397 C 0.36056 0.13398 0.15275 0.0
C398 C 0.3531 0.12578 0.20533 0.0
C399 C 0.33217 0.1486 0.22866 0.0
H400 H 0.89323 0.94328 0.53602 0.0
H401 H 0.96977 0.93473 0.675 0.0
H402 H 0.85611 0.90158 0.58234 0.0
H403 H 0.93259 0.89341 0.72107 0.0
H404 H 0.88023 0.78807 0.75965 0.0
H405 H 0.91463 0.83213 0.71328 0.0
H406 H 0.81995 0.89479 0.65883 0.0
H407 H 0.78538 0.85046 0.70575 0.0
C408 C 0.90206 0.93275 0.57651 0.0
C409 C 0.93462 0.94226 0.60164 0.0
C410 C 0.88067 0.90899 0.6031 0.0
C411 C 0.89152 0.89401 0.65523 0.0
C412 C 0.92372 0.90409 0.68066 0.0
C413 C 0.94495 0.92797 0.65427 0.0
C414 C 0.86673 0.81125 0.73783 0.0
C415 C 0.83013 0.81582 0.73622 0.0
C416 C 0.88647 0.83659 0.71147 0.0
C417 C 0.87006 0.86707 0.68262 0.0
C418 C 0.83331 0.87146 0.68043 0.0
C419 C 0.81354 0.84614 0.70725 0.0
H420 H 0.90532 0.05518 0.50004 0.0
H421 H 0.99194 0.12246 0.46892 0.0
H422 H 0.86536 0.0951 0.43946 0.0
H423 H 0.95318 0.16084 0.40458 0.0
H424 H 0.80598 0.1553 0.29422 0.0
H425 H 0.84601 0.1151 0.35419 0.0
H426 H 0.91034 0.20337 0.39248 0.0
H427 H 0.87187 0.24246 0.32873 0.0
C428 C 0.91571 0.07846 0.47958 0.0
C429 C 0.95134 0.08623 0.48933 0.0
C430 C 0.89299 0.1012 0.44434 0.0
C431 C 0.90578 0.13152 0.41672 0.0
C432 C 0.9419 0.13853 0.42598 0.0
C433 C 0.96429 0.11643 0.46257 0.0
C434 C 0.82899 0.16575 0.31526 0.0
C435 C 0.83631 0.20163 0.30672 0.0
C436 C 0.85179 0.14288 0.35016 0.0
C437 C 0.8817 0.15573 0.37864 0.0
C438 C 0.88834 0.19206 0.37043 0.0
C439 C 0.86618 0.21463 0.33418 0.0
H440 H 0.68567 0.21808 0.1198 0.0
H441 H 0.69469 0.1405 0.25768 0.0
H442 H 0.64413 0.18126 0.07343 0.0
H443 H 0.65271 0.10371 0.21098 0.0
H444 H 0.60037 0.03474 0.08436 0.0
H445 H 0.64495 0.06823 0.13292 0.0
H446 H 0.58284 0.16393 0.08292 0.0
H447 H 0.53857 0.13065 0.03492 0.0
C448 C 0.679 0.19307 0.14019 0.0
C449 C 0.69343 0.18237 0.19264 0.0
C450 C 0.65499 0.17206 0.11365 0.0
C451 C 0.64488 0.13974 0.13873 0.0
C452 C 0.66011 0.12842 0.19056 0.0
C453 C 0.68404 0.14959 0.21734 0.0
C454 C 0.5962 0.06286 0.08428 0.0
C455 C 0.56607 0.08013 0.05587 0.0
C456 C 0.62167 0.08202 0.11201 0.0
C457 C 0.61755 0.11877 0.11128 0.0
C458 C 0.58709 0.13577 0.08347 0.0
C459 C 0.56164 0.11666 0.05621 0.0
H460 H 0.65898 0.84718 0.76021 0.0
H461 H 0.7235 0.8229 0.90989 0.0
H462 H 0.62155 0.88587 0.80055 0.0
H463 H 0.68752 0.86326 0.94981 0.0
H464 H 0.59574 0.90831 0.02145 0.0
H465 H 0.63409 0.87052 0.98113 0.0
H466 H 0.61514 0.93898 0.8336 0.0
H467 H 0.57513 0.97539 0.8734 0.0
C468 C 0.6655 0.85061 0.8016 0.0
C469 C 0.69415 0.83194 0.83186 0.0
C470 C 0.64414 0.87304 0.82483 0.0
C471 C 0.65127 0.87797 0.87874 0.0
C472 C 0.68052 0.85973 0.90859 0.0
C473 C 0.70142 0.83673 0.88559 0.0
C474 C 0.5999 0.9153 0.98045 0.0
C475 C 0.58234 0.94478 0.95061 0.0
C476 C 0.62214 0.89373 0.95725 0.0
C477 C 0.62799 0.90146 0.90381 0.0
C478 C 0.61087 0.93152 0.87441 0.0
C479 C 0.58806 0.95266 0.89735 0.0
H480 H 0.62188 0.56814 1.00068 0.0
H481 H 0.5437 0.57529 0.86375 0.0
H482 H 0.658 0.60996 0.95252 0.0
H483 H 0.57986 0.61669 0.81591 0.0
H484 H 0.72653 0.66092 0.82604 0.0
H485 H 0.69297 0.61662 0.87473 0.0
H486 H 0.59742 0.67827 0.82202 0.0
H487 H 0.63088 0.72238 0.77384 0.0
C488 C 0.61251 0.57835 0.96025 0.0
C489 C 0.57979 0.5684 0.93623 0.0
C490 C 0.6333 0.6022 0.9326 0.0
C491 C 0.62167 0.61684 0.88054 0.0
C492 C 0.58933 0.6063 0.85623 0.0
C493 C 0.5687 0.58234 0.88364 0.0
C494 C 0.6984 0.66504 0.82527 0.0
C495 C 0.68131 0.69512 0.79631 0.0
C496 C 0.6792 0.63973 0.85314 0.0
C497 C 0.6425 0.64384 0.85201 0.0
C498 C 0.62556 0.67404 0.82307 0.0
C499 C 0.64475 0.6994 0.79566 0.0
H500 H 0.64012 0.27021 0.22103 0.0
H501 H 0.70707 0.35718 0.25229 0.0
H502 H 0.60164 0.30903 0.15687 0.0
H503 H 0.66713 0.39714 0.19177 0.0
H504 H 0.52052 0.3902 0.07914 0.0
H505 H 0.55919 0.35211 0.14404 0.0
H506 H 0.64752 0.41622 0.10614 0.0
H507 H 0.60774 0.45587 0.04484 0.0
C508 C 0.64606 0.29794 0.2148 0.0
C509 C 0.67625 0.31094 0.2415 0.0
C510 C 0.6239 0.32037 0.17828 0.0
C511 C 0.63087 0.35658 0.16895 0.0
C512 C 0.66108 0.36944 0.19667 0.0
C513 C 0.68384 0.3467 0.23188 0.0
C514 C 0.54826 0.39596 0.08494 0.0
C515 C 0.56139 0.42564 0.05708 0.0
C516 C 0.5706 0.37401 0.12187 0.0
C517 C 0.60684 0.38064 0.13048 0.0
C518 C 0.61981 0.41043 0.10179 0.0
C519 C 0.59716 0.43302 0.06614 0.0
H520 H 0.9718 0.38156 0.52261 0.0
H521 H 0.91166 0.47742 0.46532 0.0
H522 H 0.92791 0.34758 0.47469 0.0
H523 H 0.86764 0.44339 0.41701 0.0
H524 H 0.82045 0.37109 0.29209 0.0
H525 H 0.86199 0.40742 0.34049 0.0
H526 H 0.86617 0.33074 0.47869 0.0
H527 H 0.82508 0.29439 0.43067 0.0
C528 C 0.94912 0.39534 0.49983 0.0
C529 C 0.94519 0.4321 0.49748 0.0
C530 C 0.92392 0.37588 0.47254 0.0
C531 C 0.89425 0.39279 0.44211 0.0
C532 C 0.89037 0.42966 0.43967 0.0
C533 C 0.91551 0.4491 0.46738 0.0
C534 C 0.83004 0.3621 0.33291 0.0
C535 C 0.81951 0.32972 0.35733 0.0
C536 C 0.85374 0.38299 0.36067 0.0
C537 C 0.86757 0.37181 0.41329 0.0
C538 C 0.85643 0.33982 0.43795 0.0
C539 C 0.83267 0.31908 0.41041 0.0
H540 H 0.82953 0.64393 0.77053 0.0
H541 H 0.81117 0.71019 0.62122 0.0
H542 H 0.86676 0.6044 0.73081 0.0
H543 H 0.84904 0.67136 0.58207 0.0
H544 H 0.8937 0.57817 0.51296 0.0
H545 H 0.85332 0.61423 0.55296 0.0
H546 H 0.92326 0.60242 0.69909 0.0
H547 H 0.96308 0.56562 0.65969 0.0
C548 C 0.83343 0.65013 0.72928 0.0
C549 C 0.81731 0.68033 0.69916 0.0
C550 C 0.85498 0.62755 0.70655 0.0
C551 C 0.86105 0.63466 0.65318 0.0
C552 C 0.84461 0.66469 0.62301 0.0
C553 C 0.82299 0.68716 0.64565 0.0
C554 C 0.90043 0.58316 0.55367 0.0
C555 C 0.93172 0.569 0.58298 0.0
C556 C 0.87733 0.60403 0.57657 0.0
C557 C 0.885 0.61139 0.6293 0.0
C558 C 0.91619 0.59695 0.65868 0.0
C559 C 0.9392 0.57599 0.63587 0.0
H560 H 0.28603 0.35091 0.21251 0.0
H561 H 0.38145 0.2891 0.26482 0.0
H562 H 0.31987 0.39539 0.1647 0.0
H563 H 0.4152 0.33341 0.21754 0.0
H564 H 0.46927 0.43624 0.17629 0.0
H565 H 0.43289 0.39497 0.22397 0.0
H566 H 0.35497 0.40194 0.08706 0.0
H567 H 0.39131 0.44361 0.03908 0.0
C568 C 0.31418 0.34677 0.21354 0.0
C569 C 0.33112 0.31651 0.24217 0.0
C570 C 0.33353 0.37219 0.18617 0.0
C571 C 0.37023 0.368 0.18752 0.0
C572 C 0.38705 0.33768 0.21631 0.0
C573 C 0.3677 0.31221 0.24321 0.0
C574 C 0.44427 0.42928 0.15632 0.0
C575 C 0.43331 0.44322 0.10369 0.0
C576 C 0.42351 0.4054 0.18363 0.0
C577 C 0.39117 0.39497 0.15917 0.0
C578 C 0.37967 0.40963 0.10708 0.0
C579 C 0.40058 0.43339 0.07954 0.0
H580 H 0.4936 0.62034 0.96041 0.0
H581 H 0.40573 0.55533 0.99365 0.0
H582 H 0.45582 0.65761 0.89321 0.0
H583 H 0.36676 0.59423 0.92984 0.0
H584 H 0.31013 0.65082 0.77877 0.0
H585 H 0.34875 0.61182 0.84296 0.0
H586 H 0.41327 0.70067 0.87745 0.0
H587 H 0.37625 0.73842 0.80992 0.0
C588 C 0.46589 0.61459 0.9539 0.0
C589 C 0.45233 0.5853 0.98212 0.0
C590 C 0.44405 0.63607 0.91563 0.0
C591 C 0.40789 0.62936 0.90595 0.0
C592 C 0.39445 0.60002 0.93505 0.0
C593 C 0.41662 0.57789 0.97212 0.0
C594 C 0.33288 0.66164 0.79992 0.0
C595 C 0.3407 0.69726 0.78917 0.0
C596 C 0.35486 0.63948 0.83721 0.0
C597 C 0.38446 0.65283 0.86577 0.0
C598 C 0.39153 0.68894 0.85544 0.0
C599 C 0.37019 0.71075 0.81695 0.0
H600 H 0.1909 0.71701 0.59735 0.0
H601 H 0.19638 0.64015 0.73581 0.0
H602 H 0.1488 0.68109 0.55021 0.0
H603 H 0.15386 0.60433 0.68845 0.0
H604 H 0.10179 0.53453 0.56611 0.0
H605 H 0.14686 0.56837 0.61255 0.0
H606 H 0.08712 0.66459 0.55541 0.0
H607 H 0.0422 0.63078 0.50925 0.0
C608 C 0.1833 0.69238 0.61775 0.0
C609 C 0.197 0.68156 0.67052 0.0
C610 C 0.15895 0.67189 0.59074 0.0
C611 C 0.1478 0.63998 0.61569 0.0
C612 C 0.16212 0.62867 0.66801 0.0
C613 C 0.18638 0.64929 0.69521 0.0
C614 C 0.09829 0.56289 0.56376 0.0
C615 C 0.06845 0.58005 0.53435 0.0
C616 C 0.12403 0.58225 0.59038 0.0
C617 C 0.12059 0.61917 0.58759 0.0
C618 C 0.09078 0.63624 0.5578 0.0
C619 C 0.06498 0.61688 0.53155 0.0
H620 H 0.19967 0.29964 0.41221 0.0
H621 H 0.18377 0.36774 0.26431 0.0
H622 H 0.16181 0.33861 0.45145 0.0
H623 H 0.14657 0.40721 0.30408 0.0
H624 H 0.04997 0.44671 0.37336 0.0
H625 H 0.08949 0.40929 0.33441 0.0
H626 H 0.15832 0.39585 0.48158 0.0
H627 H 0.11828 0.43262 0.52109 0.0
C628 C 0.18837 0.32309 0.38812 0.0
C629 C 0.19475 0.33046 0.33497 0.0
C630 C 0.16677 0.34559 0.4108 0.0
C631 C 0.15104 0.3761 0.38099 0.0
C632 C 0.15779 0.38369 0.32801 0.0
C633 C 0.17933 0.36113 0.30527 0.0
C634 C 0.07355 0.43586 0.39749 0.0
C635 C 0.08085 0.44266 0.45049 0.0
C636 C 0.09638 0.41454 0.37497 0.0
C637 C 0.12717 0.3995 0.40477 0.0
C638 C 0.13462 0.40656 0.45765 0.0
C639 C 0.11172 0.42784 0.48025 0.0
H640 H 0.04145 0.9571 0.91011 0.0
H641 H 1.00619 0.06611 0.87736 0.0
H642 H 0.0298 0.957 1.00191 0.0
H643 H 0.99488 0.06618 0.96923 0.0
H644 H 0.94413 0.043 0.12271 0.0
H645 H 0.95606 0.04333 0.03116 0.0
H646 H 0.05052 0.97981 0.0833 0.0
H647 H 0.03774 0.9782 0.17476 0.0
C648 C 0.03147 0.98115 0.92259 0.0
C649 C 0.02471 0.01159 0.88621 0.0
C650 C 0.02486 0.98113 0.97535 0.0
C651 C 0.01142 0.0116 0.99327 0.0
C652 C 1.00467 0.04204 0.95681 0.0
C653 C 0.01117 0.04202 0.90402 0.0
C654 C 0.96732 0.02886 0.11469 0.0
C655 C 0.98986 0.01044 0.15632 0.0
C656 C 0.9744 0.02939 0.0621 0.0
C657 C 1.00426 0.01155 0.04956 0.0
C658 C 0.02703 0.99347 0.09125 0.0
C659 C 0.01995 0.99294 0.14389 0.0
H660 H 0.29722 0.81535 0.36247 0.0
H661 H 0.23465 0.72416 0.39797 0.0
H662 H 0.2949 0.80287 0.27088 0.0
H663 H 0.23185 0.71214 0.30591 0.0
H664 H 0.2044 0.72515 0.12422 0.0
H665 H 0.20643 0.73752 0.21612 0.0
H666 H 0.31727 0.75832 0.21905 0.0
H667 H 0.31508 0.74669 0.12679 0.0
C668 C 0.28319 0.79246 0.35097 0.0
C669 C 0.26627 0.77069 0.38797 0.0
C670 C 0.28182 0.78536 0.29832 0.0
C671 C 0.26328 0.75645 0.28105 0.0
C672 C 0.24603 0.73486 0.31777 0.0
C673 C 0.24759 0.74182 0.37058 0.0
C674 C 0.22914 0.73263 0.14435 0.0
C675 C 0.25956 0.73501 0.11807 0.0
C676 C 0.23038 0.73936 0.1972 0.0
C677 C 0.26201 0.74891 0.22497 0.0
C678 C 0.29241 0.75135 0.19867 0.0
C679 C 0.29123 0.74436 0.14595 0.0
H680 H 0.48708 0.9651 0.66008 0.0
H681 H 0.50761 0.07581 0.62594 0.0
H682 H 0.496 0.95596 0.5696 0.0
H683 H 0.51497 0.06701 0.53503 0.0
H684 H 0.56018 0.03255 0.3901 0.0
H685 H 0.55356 0.04115 0.48158 0.0
H686 H 0.4678 0.96865 0.48049 0.0
H687 H 0.47473 0.95982 0.38929 0.0
C688 C 0.49363 0.98748 0.63339 0.0
C689 C 0.49648 0.02122 0.65042 0.0
C690 C 0.49831 0.98233 0.58123 0.0
C691 C 0.50602 0.01077 0.5447 0.0
C692 C 0.50936 0.0444 0.56201 0.0
C693 C 0.5047 0.04954 0.61411 0.0
C694 C 0.5397 0.01871 0.40924 0.0
C695 C 0.51802 0.99546 0.3823 0.0
C696 C 0.53589 0.02361 0.46177 0.0
C697 C 0.5102 1.00551 0.4887 0.0
C698 C 0.48832 0.98251 0.46151 0.0
C699 C 0.49222 0.97752 0.40908 0.0
H700 H 0.30322 0.2806 0.90735 0.0
H701 H 0.19342 0.25498 0.88279 0.0
H702 H 0.30963 0.27118 0.81603 0.0
H703 H 0.2 0.24485 0.79174 0.0
H704 H 0.21766 0.27026 0.61568 0.0
H705 H 0.21065 0.27906 0.707 0.0
H706 H 0.30896 0.22236 0.76019 0.0
H707 H 0.31575 0.21297 0.66925 0.0
C708 C 0.28045 0.27296 0.88244 0.0
C709 C 0.24781 0.26856 0.90237 0.0
C710 C 0.28419 0.26726 0.83025 0.0
C711 C 0.25532 0.25726 0.79657 0.0
C712 C 0.22267 0.25284 0.81649 0.0
C713 C 0.219 0.25828 0.86883 0.0
C714 C 0.23762 0.25931 0.64685 0.0
C715 C 0.26735 0.24099 0.63484 0.0
C716 C 0.2336 0.26442 0.69923 0.0
C717 C 0.25929 0.2515 0.74089 0.0
C718 C 0.28895 0.23314 0.72896 0.0
C719 C 0.29287 0.22785 0.6767 0.0
H720 H 0.7618 0.21698 0.92702 0.0
H721 H 0.75524 0.32885 0.87562 0.0
H722 H 0.76193 0.20496 0.83556 0.0
H723 H 0.75364 0.31674 0.78392 0.0
H724 H 0.78902 0.28346 0.63054 0.0
H725 H 0.78991 0.29597 0.72216 0.0
H726 H 0.72409 0.20682 0.75397 0.0
H727 H 0.72327 0.19432 0.66265 0.0
C728 C 0.76039 0.23906 0.8963 0.0
C729 C 0.75854 0.27393 0.90906 0.0
C730 C 0.76002 0.23213 0.84361 0.0
C731 C 0.75772 0.25984 0.80205 0.0
C732 C 0.75583 0.2947 0.81477 0.0
C733 C 0.75625 0.30164 0.86748 0.0
C734 C 0.77452 0.26667 0.65696 0.0
C735 C 0.75621 0.23776 0.63904 0.0
C736 C 0.77501 0.27386 0.70961 0.0
C737 C 0.75715 0.25237 0.74578 0.0
C738 C 0.73871 0.22359 0.7277 0.0
C739 C 0.73824 0.2164 0.67516 0.0
H740 H 0.72341 0.82282 0.36439 0.0
H741 H 0.77272 0.72108 0.42081 0.0
H742 H 0.73164 0.81357 0.2739 0.0
H743 H 0.7808 0.71167 0.33008 0.0
H744 H 0.8197 0.7212 0.16658 0.0
H745 H 0.81316 0.73157 0.25724 0.0
H746 H 0.70989 0.77851 0.20542 0.0
H747 H 0.7171 0.76964 0.11439 0.0
C748 C 0.73579 0.79833 0.35745 0.0
C749 C 0.74724 0.77262 0.39994 0.0
C750 C 0.74048 0.793 0.30547 0.0
C751 C 0.75672 0.76178 0.29448 0.0
C752 C 0.76859 0.73623 0.33705 0.0
C753 C 0.76395 0.74161 0.38914 0.0
C754 C 0.79576 0.73415 0.17435 0.0
C755 C 0.76899 0.74469 0.13294 0.0
C756 C 0.79182 0.73968 0.22655 0.0
C757 C 0.76098 0.75586 0.23883 0.0
C758 C 0.73419 0.76636 0.19744 0.0
C759 C 0.73814 0.76087 0.14522 0.0
H760 H 0.52179 0.45355 0.66682 0.0
H761 H 0.4637 0.55276 0.63137 0.0
H762 H 0.53327 0.45604 0.57457 0.0
H763 H 0.47579 0.55561 0.5392 0.0
H764 H 0.46986 0.52609 0.36812 0.0
H765 H 0.45912 0.52462 0.46048 0.0
H766 H 0.56683 0.49004 0.51039 0.0
H767 H 0.57785 0.49207 0.41814 0.0
C768 C 0.51148 0.47592 0.63933 0.0
C769 C 0.49174 0.50291 0.6565 0.0
C770 C 0.51834 0.4775 0.58653 0.0
C771 C 0.50541 0.506 0.5494 0.0
C772 C 0.48584 0.53311 0.56663 0.0
C773 C 0.47922 0.53167 0.61957 0.0
C774 C 0.49141 0.51853 0.39869 0.0
C775 C 0.52476 0.50919 0.38536 0.0
C776 C 0.48521 0.51766 0.45173 0.0
C777 C 0.51211 0.50724 0.49291 0.0
C778 C 0.54538 0.49775 0.47968 0.0
C779 C 0.55166 0.49881 0.42667 0.0
H780 H 0.9821 0.53971 0.86062 0.0
H781 H 0.06067 0.45799 0.91849 0.0
H782 H 0.97097 0.54546 0.95138 0.0
H783 H 0.04959 0.46374 1.009 0.0
H784 H 0.04716 0.50831 0.1668 0.0
H785 H 0.05792 0.50381 0.07567 0.0
H786 H 0.94621 0.51465 0.0259 0.0
H787 H 0.93557 0.52073 0.11658 0.0
C788 C 0.99679 0.52275 0.89261 0.0
C789 C 0.02241 0.49849 0.88209 0.0
C790 C 0.99042 0.52605 0.94472 0.0
C791 C 0.00947 0.50517 0.98768 0.0
C792 C 0.03488 0.48074 0.97708 0.0
C793 C 0.04124 0.47744 0.92505 0.0
C794 C 0.0249 0.51013 0.13638 0.0
C795 C 0.99048 0.51487 0.14926 0.0
C796 C 0.03103 0.50711 0.08412 0.0
C797 C 1.00293 0.50875 0.04329 0.0
C798 C 0.96853 0.51362 0.05614 0.0
C799 C 0.96239 0.51664 0.10838 0.0
loop_
_geom_bond_atom_site_label_1
_geom_bond_atom_site_label_2
_geom_bond_distance
_geom_bond_site_symmetry_2
_ccdc_geom_bond_type
Ho0 C3 2.811 1_655 S
Ho0 O20 2.322 1_665 S
Ho0 O22 2.378 1_655 S
Ho0 O23 2.524 1_565 S
Ho0 O24 2.381 1_655 S
Ho0 O25 2.669 1_655 S
Ho0 O27 2.346 . S
Ho0 O31 2.305 1_565 S
Ho1 C12 2.811 1_455 S
Ho1 O21 2.346 . S
Ho1 O25 2.305 1_545 S
Ho1 O26 2.322 1_445 S
Ho1 O28 2.378 1_455 S
Ho1 O29 2.524 1_545 S
Ho1 O30 2.381 1_455 S
Ho1 O31 2.669 1_455 S
C2 O20 1.259 . S
C2 O21 1.268 . S
C3 Ho0 2.811 1_455 S
C3 C4 1.488 . S
C3 O22 1.215 . S
C3 O23 1.289 1_465 S
C4 C3 1.488 . S
C4 C5 1.348 1_565 S
C4 C9 1.413 . S
C5 C4 1.348 1_545 S
C5 C6 1.442 . S
C5 H32 0.930 1_455 S
C6 C5 1.442 . S
C6 C7 1.381 . S
C6 H33 0.931 . S
C7 C6 1.381 . S
C7 C8 1.321 1_545 S
C8 C7 1.321 1_565 S
C8 C9 1.403 . S
C8 H34 0.934 . S
C9 C4 1.413 . S
C9 C8 1.403 . S
C9 H35 0.930 . S
C10 O24 1.275 . S
C10 O25 1.256 . S
C11 O26 1.259 . S
C11 O27 1.268 . S
C12 Ho1 2.811 1_655 S
C12 C13 1.488 . S
C12 O28 1.215 . S
C12 O29 1.289 1_645 S
C13 C12 1.488 . S
C13 C14 1.348 1_545 S
C13 C18 1.413 . S
C14 C13 1.348 1_565 S
C14 C15 1.442 . S
C14 H36 0.930 1_655 S
C15 C14 1.442 . S
C15 C16 1.406 . S
C15 H37 0.931 . S
C16 C15 1.406 . S
C16 C17 1.297 1_565 S
C17 C16 1.297 1_545 S
C17 C18 1.403 . S
C17 H38 0.934 . S
C18 C13 1.413 . S
C18 C17 1.403 . S
C18 H39 0.930 . S
C19 O30 1.275 . S
C19 O31 1.256 . S
O20 Ho0 2.322 1_445 S
O20 C2 1.259 . S
O21 Ho1 2.346 . S
O21 C2 1.268 . S
O22 Ho0 2.378 1_455 S
O22 C3 1.215 . S
O23 Ho0 2.524 1_545 S
O23 C3 1.289 1_645 S
O24 Ho0 2.381 1_455 S
O24 C10 1.275 . S
O25 Ho0 2.669 1_455 S
O25 Ho1 2.305 1_565 S
O25 C10 1.256 . S
O26 Ho1 2.322 1_665 S
O26 C11 1.259 . S
O27 Ho0 2.346 . S
O27 C11 1.268 . S
O28 Ho1 2.378 1_655 S
O28 C12 1.215 . S
O29 Ho1 2.524 1_565 S
O29 C12 1.289 1_465 S
O30 Ho1 2.381 1_655 S
O30 C19 1.275 . S
O31 Ho0 2.305 1_545 S
O31 Ho1 2.669 1_655 S
O31 C19 1.256 . S
H32 C5 0.930 1_655 S
H33 C6 0.931 . S
H34 C8 0.934 . S
H35 C9 0.930 . S
H36 C14 0.930 1_455 S
H37 C15 0.931 . S
H38 C17 0.934 . S
H39 C18 0.930 . S
Ho40 C43 2.811 . S
Ho40 O60 2.322 . S
Ho40 O62 2.378 . S
Ho40 O63 2.524 . S
Ho40 O64 2.381 . S
Ho40 O65 2.669 . S
Ho40 O67 2.346 . S
Ho40 O71 2.305 . S
Ho41 C52 2.811 . S
Ho41 O61 2.346 . S
Ho41 O65 2.305 . S
Ho41 O66 2.322 . S
Ho41 O68 2.378 . S
Ho41 O69 2.524 . S
Ho41 O70 2.381 . S
Ho41 O71 2.669 . S
C42 O60 1.259 . S
C42 O61 1.268 . S
C43 Ho40 2.811 . S
C43 C44 1.488 . S
C43 O62 1.215 . S
C43 O63 1.289 . S
C44 C43 1.488 . S
C44 C45 1.348 . S
C44 C49 1.413 . S
C45 C44 1.348 . S
C45 C46 1.442 1_556 S
C45 H72 0.930 . S
C46 C45 1.442 1_554 S
C46 C47 1.381 . S
C46 H73 0.931 . S
C47 C46 1.381 . S
C47 C48 1.321 . S
C48 C47 1.321 . S
C48 C49 1.403 1_554 S
C48 H74 0.934 . S
C49 C44 1.413 . S
C49 C48 1.403 1_556 S
C49 H75 0.930 . S
C50 O64 1.275 . S
C50 O65 1.256 . S
C51 O66 1.259 . S
C51 O67 1.268 . S
C52 Ho41 2.811 . S
C52 C53 1.488 . S
C52 O68 1.215 . S
C52 O69 1.289 . S
C53 C52 1.488 . S
C53 C54 1.348 . S
C53 C58 1.413 . S
C54 C53 1.348 . S
C54 C55 1.442 . S
C54 H76 0.930 . S
C55 C54 1.442 . S
C55 C56 1.381 . S
C55 H77 0.931 . S
C56 C55 1.381 . S
C56 C57 1.321 . S
C57 C56 1.321 . S
C57 C58 1.403 . S
C57 H78 0.934 . S
C58 C53 1.413 . S
C58 C57 1.403 . S
C58 H79 0.930 . S
C59 O70 1.275 . S
C59 O71 1.256 . S
O60 Ho40 2.322 . S
O60 C42 1.259 . S
O61 Ho41 2.346 . S
O61 C42 1.268 . S
O62 Ho40 2.378 . S
O62 C43 1.215 . S
O63 Ho40 2.524 . S
O63 C43 1.289 . S
O64 Ho40 2.381 . S
O64 C50 1.275 . S
O65 Ho40 2.669 . S
O65 Ho41 2.305 . S
O65 C50 1.256 . S
O66 Ho41 2.322 . S
O66 C51 1.259 . S
O67 Ho40 2.346 . S
O67 C51 1.268 . S
O68 Ho41 2.378 . S
O68 C52 1.215 . S
O69 Ho41 2.524 . S
O69 C52 1.289 . S
O70 Ho41 2.381 . S
O70 C59 1.275 . S
O71 Ho40 2.305 . S
O71 Ho41 2.669 . S
O71 C59 1.256 . S
H72 C45 0.930 . S
H73 C46 0.931 . S
H74 C48 0.934 . S
H75 C49 0.930 . S
H76 C54 0.930 . S
H77 C55 0.931 . S
H78 C57 0.934 . S
H79 C58 0.930 . S
Ho80 C83 2.811 . S
Ho80 O100 2.322 1_565 S
Ho80 O102 2.378 . S
Ho80 O103 2.524 . S
Ho80 O104 2.381 . S
Ho80 O105 2.669 1_554 S
Ho80 O107 2.346 . S
Ho80 O111 2.305 1_565 S
Ho81 C92 2.811 . S
Ho81 O101 2.346 . S
Ho81 O105 2.305 1_545 S
Ho81 O106 2.322 1_545 S
Ho81 O108 2.378 . S
Ho81 O109 2.524 . S
Ho81 O110 2.381 . S
Ho81 O111 2.669 1_556 S
C82 O100 1.259 . S
C82 O101 1.268 1_554 S
C83 Ho80 2.811 . S
C83 C84 1.488 . S
C83 O102 1.215 . S
C83 O103 1.289 . S
C84 C83 1.488 . S
C84 C85 1.348 1_565 S
C84 C89 1.413 . S
C85 C84 1.348 1_545 S
C85 C86 1.442 . S
C85 H112 0.930 . S
C86 C85 1.442 . S
C86 C87 1.381 1_545 S
C86 H113 0.931 . S
C87 C86 1.381 1_565 S
C87 C88 1.321 . S
C88 C87 1.321 . S
C88 C89 1.403 . S
C88 H114 0.934 . S
C89 C84 1.413 . S
C89 C88 1.403 . S
C89 H115 0.930 . S
C90 O104 1.275 1_556 S
C90 O105 1.256 . S
C91 O106 1.259 . S
C91 O107 1.268 1_556 S
C92 Ho81 2.811 . S
C92 C93 1.488 . S
C92 O108 1.215 . S
C92 O109 1.289 . S
C93 C92 1.488 . S
C93 C94 1.348 1_545 S
C93 C98 1.413 . S
C94 C93 1.348 1_565 S
C94 C95 1.442 . S
C94 H116 0.930 . S
C95 C94 1.442 . S
C95 C96 1.381 1_565 S
C95 H117 0.931 . S
C96 C95 1.381 1_545 S
C96 C97 1.321 . S
C97 C96 1.321 . S
C97 C98 1.403 . S
C97 H118 0.934 . S
C98 C93 1.413 . S
C98 C97 1.403 . S
C98 H119 0.930 . S
C99 O110 1.275 1_554 S
C99 O111 1.256 . S
O100 Ho80 2.322 1_545 S
O100 C82 1.259 . S
O101 Ho81 2.346 . S
O101 C82 1.268 1_556 S
O102 Ho80 2.378 . S
O102 C83 1.215 . S
O103 Ho80 2.524 . S
O103 C83 1.289 . S
O104 Ho80 2.381 . S
O104 C90 1.275 1_554 S
O105 Ho80 2.669 1_556 S
O105 Ho81 2.305 1_565 S
O105 C90 1.256 . S
O106 Ho81 2.322 1_565 S
O106 C91 1.259 . S
O107 Ho80 2.346 . S
O107 C91 1.268 1_554 S
O108 Ho81 2.378 . S
O108 C92 1.215 . S
O109 Ho81 2.524 . S
O109 C92 1.289 . S
O110 Ho81 2.381 . S
O110 C99 1.275 1_556 S
O111 Ho80 2.305 1_545 S
O111 Ho81 2.669 1_554 S
O111 C99 1.256 . S
H112 C85 0.930 . S
H113 C86 0.931 . S
H114 C88 0.934 . S
H115 C89 0.930 . S
H116 C94 0.930 . S
H117 C95 0.931 . S
H118 C97 0.934 . S
H119 C98 0.930 . S
Ho120 C123 2.811 . S
Ho120 O140 2.322 . S
Ho120 O142 2.378 . S
Ho120 O143 2.524 . S
Ho120 O144 2.381 . S
Ho120 O145 2.669 . S
Ho120 O147 2.346 . S
Ho120 O151 2.305 . S
Ho121 C132 2.811 . S
Ho121 O141 2.346 . S
Ho121 O145 2.305 . S
Ho121 O146 2.322 . S
Ho121 O148 2.378 . S
Ho121 O149 2.524 . S
Ho121 O150 2.381 . S
Ho121 O151 2.669 . S
C122 O140 1.259 . S
C122 O141 1.268 . S
C123 Ho120 2.811 . S
C123 C124 1.488 . S
C123 O142 1.215 . S
C123 O143 1.289 . S
C124 C123 1.488 . S
C124 C125 1.348 . S
C124 C129 1.413 . S
C125 C124 1.348 . S
C125 C126 1.442 1_554 S
C125 H152 0.930 . S
C126 C125 1.442 1_556 S
C126 C127 1.381 . S
C126 H153 0.931 . S
C127 C126 1.381 . S
C127 C128 1.321 . S
C128 C127 1.321 . S
C128 C129 1.403 1_556 S
C128 H154 0.934 . S
C129 C124 1.413 . S
C129 C128 1.403 1_554 S
C129 H155 0.930 . S
C130 O144 1.275 . S
C130 O145 1.256 . S
C131 O146 1.259 . S
C131 O147 1.268 . S
C132 Ho121 2.811 . S
C132 C133 1.488 . S
C132 O148 1.215 . S
C132 O149 1.289 . S
C133 C132 1.488 . S
C133 C134 1.348 . S
C133 C138 1.413 . S
C134 C133 1.348 . S
C134 C135 1.442 . S
C134 H156 0.930 . S
C135 C134 1.442 . S
C135 C136 1.381 . S
C135 H157 0.931 . S
C136 C135 1.381 . S
C136 C137 1.321 . S
C137 C136 1.321 . S
C137 C138 1.403 . S
C137 H158 0.934 . S
C138 C133 1.413 . S
C138 C137 1.403 . S
C138 H159 0.930 . S
C139 O150 1.275 . S
C139 O151 1.256 . S
O140 Ho120 2.322 . S
O140 C122 1.259 . S
O141 Ho121 2.346 . S
O141 C122 1.268 . S
O142 Ho120 2.378 . S
O142 C123 1.215 . S
O143 Ho120 2.524 . S
O143 C123 1.289 . S
O144 Ho120 2.381 . S
O144 C130 1.275 . S
O145 Ho120 2.669 . S
O145 Ho121 2.305 . S
O145 C130 1.256 . S
O146 Ho121 2.322 . S
O146 C131 1.259 . S
O147 Ho120 2.346 . S
O147 C131 1.268 . S
O148 Ho121 2.378 . S
O148 C132 1.215 . S
O149 Ho121 2.524 . S
O149 C132 1.289 . S
O150 Ho121 2.381 . S
O150 C139 1.275 . S
O151 Ho120 2.305 . S
O151 Ho121 2.669 . S
O151 C139 1.256 . S
H152 C125 0.930 . S
H153 C126 0.931 . S
H154 C128 0.934 . S
H155 C129 0.930 . S
H156 C134 0.930 . S
H157 C135 0.931 . S
H158 C137 0.934 . S
H159 C138 0.930 . S
Ho160 C163 2.811 . S
Ho160 O180 2.322 . S
Ho160 O182 2.378 . S
Ho160 O183 2.524 . S
Ho160 O184 2.381 . S
Ho160 O185 2.669 . S
Ho160 O187 2.346 . S
Ho160 O191 2.305 . S
Ho161 C172 2.811 . S
Ho161 O181 2.346 . S
Ho161 O185 2.305 . S
Ho161 O186 2.322 . S
Ho161 O188 2.378 . S
Ho161 O189 2.524 . S
Ho161 O190 2.381 . S
Ho161 O191 2.669 . S
C162 O180 1.259 . S
C162 O181 1.268 . S
C163 Ho160 2.811 . S
C163 C164 1.488 . S
C163 O182 1.215 . S
C163 O183 1.289 . S
C164 C163 1.488 . S
C164 C165 1.348 . S
C164 C169 1.413 . S
C165 C164 1.348 . S
C165 C166 1.442 . S
C165 H192 0.930 . S
C166 C165 1.442 . S
C166 C167 1.381 . S
C166 H193 0.931 . S
C167 C166 1.381 . S
C167 C168 1.321 . S
C168 C167 1.321 . S
C168 C169 1.403 . S
C168 H194 0.934 . S
C169 C164 1.413 . S
C169 C168 1.403 . S
C169 H195 0.930 . S
C170 O184 1.275 . S
C170 O185 1.256 . S
C171 O186 1.259 . S
C171 O187 1.268 . S
C172 Ho161 2.811 . S
C172 C173 1.488 . S
C172 O188 1.215 . S
C172 O189 1.289 . S
C173 C172 1.488 . S
C173 C174 1.348 . S
C173 C178 1.413 . S
C174 C173 1.348 . S
C174 C175 1.442 1_554 S
C174 H196 0.930 . S
C175 C174 1.442 1_556 S
C175 C176 1.381 . S
C175 H197 0.931 . S
C176 C175 1.381 . S
C176 C177 1.321 . S
C177 C176 1.321 . S
C177 C178 1.403 1_556 S
C177 H198 0.934 . S
C178 C173 1.413 . S
C178 C177 1.403 1_554 S
C178 H199 0.930 . S
C179 O190 1.275 . S
C179 O191 1.256 . S
O180 Ho160 2.322 . S
O180 C162 1.259 . S
O181 Ho161 2.346 . S
O181 C162 1.268 . S
O182 Ho160 2.378 . S
O182 C163 1.215 . S
O183 Ho160 2.524 . S
O183 C163 1.289 . S
O184 Ho160 2.381 . S
O184 C170 1.275 . S
O185 Ho160 2.669 . S
O185 Ho161 2.305 . S
O185 C170 1.256 . S
O186 Ho161 2.322 . S
O186 C171 1.259 . S
O187 Ho160 2.346 . S
O187 C171 1.268 . S
O188 Ho161 2.378 . S
O188 C172 1.215 . S
O189 Ho161 2.524 . S
O189 C172 1.289 . S
O190 Ho161 2.381 . S
O190 C179 1.275 . S
O191 Ho160 2.305 . S
O191 Ho161 2.669 . S
O191 C179 1.256 . S
H192 C165 0.930 . S
H193 C166 0.931 . S
H194 C168 0.934 . S
H195 C169 0.930 . S
H196 C174 0.930 . S
H197 C175 0.931 . S
H198 C177 0.934 . S
H199 C178 0.930 . S
Ho200 C203 2.811 . S
Ho200 O220 2.322 . S
Ho200 O222 2.378 . S
Ho200 O223 2.524 . S
Ho200 O224 2.381 . S
Ho200 O225 2.669 . S
Ho200 O227 2.346 . S
Ho200 O231 2.305 . S
Ho201 C212 2.811 . S
Ho201 O221 2.346 . S
Ho201 O225 2.305 . S
Ho201 O226 2.322 . S
Ho201 O228 2.378 . S
Ho201 O229 2.524 . S
Ho201 O230 2.381 . S
Ho201 O231 2.669 . S
C202 O220 1.259 . S
C202 O221 1.268 . S
C203 Ho200 2.811 . S
C203 C204 1.488 . S
C203 O222 1.215 . S
C203 O223 1.289 . S
C204 C203 1.488 . S
C204 C205 1.348 . S
C204 C209 1.413 . S
C205 C204 1.348 . S
C205 C206 1.442 . S
C205 H232 0.930 . S
C206 C205 1.442 . S
C206 C207 1.381 . S
C206 H233 0.931 . S
C207 C206 1.381 . S
C207 C208 1.321 . S
C208 C207 1.321 . S
C208 C209 1.403 . S
C208 H234 0.934 . S
C209 C204 1.413 . S
C209 C208 1.403 . S
C209 H235 0.930 . S
C210 O224 1.275 . S
C210 O225 1.256 . S
C211 O226 1.259 . S
C211 O227 1.268 . S
C212 Ho201 2.811 . S
C212 C213 1.488 . S
C212 O228 1.215 . S
C212 O229 1.289 . S
C213 C212 1.488 . S
C213 C214 1.348 . S
C213 C218 1.413 . S
C214 C213 1.348 . S
C214 C215 1.442 1_556 S
C214 H236 0.930 . S
C215 C214 1.442 1_554 S
C215 C216 1.381 . S
C215 H237 0.931 . S
C216 C215 1.381 . S
C216 C217 1.321 . S
C217 C216 1.321 . S
C217 C218 1.403 1_554 S
C217 H238 0.934 . S
C218 C213 1.413 . S
C218 C217 1.403 1_556 S
C218 H239 0.930 . S
C219 O230 1.275 . S
C219 O231 1.256 . S
O220 Ho200 2.322 . S
O220 C202 1.259 . S
O221 Ho201 2.346 . S
O221 C202 1.268 . S
O222 Ho200 2.378 . S
O222 C203 1.215 . S
O223 Ho200 2.524 . S
O223 C203 1.289 . S
O224 Ho200 2.381 . S
O224 C210 1.275 . S
O225 Ho200 2.669 . S
O225 Ho201 2.305 . S
O225 C210 1.256 . S
O226 Ho201 2.322 . S
O226 C211 1.259 . S
O227 Ho200 2.346 . S
O227 C211 1.268 . S
O228 Ho201 2.378 . S
O228 C212 1.215 . S
O229 Ho201 2.524 . S
O229 C212 1.289 . S
O230 Ho201 2.381 . S
O230 C219 1.275 . S
O231 Ho200 2.305 . S
O231 Ho201 2.669 . S
O231 C219 1.256 . S
H232 C205 0.930 . S
H233 C206 0.931 . S
H234 C208 0.934 . S
H235 C209 0.930 . S
H236 C214 0.930 . S
H237 C215 0.931 . S
H238 C217 0.934 . S
H239 C218 0.930 . S
Ho240 C243 2.811 . S
Ho240 O260 2.322 . S
Ho240 O262 2.378 . S
Ho240 O263 2.524 . S
Ho240 O264 2.381 . S
Ho240 O265 2.669 1_556 S
Ho240 O267 2.346 1_556 S
Ho240 O271 2.305 . S
Ho241 C252 2.811 . S
Ho241 O261 2.346 1_554 S
Ho241 O265 2.305 . S
Ho241 O266 2.322 . S
Ho241 O268 2.378 . S
Ho241 O269 2.524 . S
Ho241 O270 2.381 . S
Ho241 O271 2.669 1_554 S
C242 O260 1.259 . S
C242 O261 1.268 . S
C243 Ho240 2.811 . S
C243 C244 1.488 . S
C243 O262 1.215 . S
C243 O263 1.289 . S
C244 C243 1.488 . S
C244 C245 1.348 . S
C244 C249 1.413 . S
C245 C244 1.348 . S
C245 C246 1.442 . S
C245 H272 0.930 . S
C246 C245 1.442 . S
C246 C247 1.381 . S
C246 H273 0.931 . S
C247 C246 1.381 . S
C247 C248 1.321 . S
C248 C247 1.321 . S
C248 C249 1.403 . S
C248 H274 0.934 . S
C249 C244 1.413 . S
C249 C248 1.403 . S
C249 H275 0.930 . S
C250 O264 1.275 1_554 S
C250 O265 1.256 . S
C251 O266 1.259 . S
C251 O267 1.268 . S
C252 Ho241 2.811 . S
C252 C253 1.488 . S
C252 O268 1.215 . S
C252 O269 1.289 . S
C253 C252 1.488 . S
C253 C254 1.348 . S
C253 C258 1.413 . S
C254 C253 1.348 . S
C254 C255 1.442 . S
C254 H276 0.930 . S
C255 C254 1.442 . S
C255 C256 1.381 . S
C255 H277 0.931 . S
C256 C255 1.381 . S
C256 C257 1.321 . S
C257 C256 1.321 . S
C257 C258 1.403 . S
C257 H278 0.934 . S
C258 C253 1.413 . S
C258 C257 1.403 . S
C258 H279 0.930 . S
C259 O270 1.275 1_556 S
C259 O271 1.256 . S
O260 Ho240 2.322 . S
O260 C242 1.259 . S
O261 Ho241 2.346 1_556 S
O261 C242 1.268 . S
O262 Ho240 2.378 . S
O262 C243 1.215 . S
O263 Ho240 2.524 . S
O263 C243 1.289 . S
O264 Ho240 2.381 . S
O264 C250 1.275 1_556 S
O265 Ho240 2.669 1_554 S
O265 Ho241 2.305 . S
O265 C250 1.256 . S
O266 Ho241 2.322 . S
O266 C251 1.259 . S
O267 Ho240 2.346 1_554 S
O267 C251 1.268 . S
O268 Ho241 2.378 . S
O268 C252 1.215 . S
O269 Ho241 2.524 . S
O269 C252 1.289 . S
O270 Ho241 2.381 . S
O270 C259 1.275 1_554 S
O271 Ho240 2.305 . S
O271 Ho241 2.669 1_556 S
O271 C259 1.256 . S
H272 C245 0.930 . S
H273 C246 0.931 . S
H274 C248 0.934 . S
H275 C249 0.930 . S
H276 C254 0.930 . S
H277 C255 0.931 . S
H278 C257 0.934 . S
H279 C258 0.930 . S
Ho280 C283 2.811 1_455 S
Ho280 O300 2.322 1_455 S
Ho280 O302 2.378 1_455 S
Ho280 O303 2.524 . S
Ho280 O304 2.381 1_455 S
Ho280 O305 2.669 1_455 S
Ho280 O307 2.346 . S
Ho280 O311 2.305 . S
Ho281 C292 2.811 1_655 S
Ho281 O301 2.346 . S
Ho281 O305 2.305 . S
Ho281 O306 2.322 1_655 S
Ho281 O308 2.378 1_655 S
Ho281 O309 2.524 . S
Ho281 O310 2.381 1_655 S
Ho281 O311 2.669 1_655 S
C282 O300 1.259 . S
C282 O301 1.268 . S
C283 Ho280 2.811 1_655 S
C283 C284 1.488 . S
C283 O302 1.215 . S
C283 O303 1.289 1_655 S
C284 C283 1.488 . S
C284 C285 1.348 . S
C284 C289 1.413 . S
C285 C284 1.348 . S
C285 C286 1.442 . S
C285 H312 0.930 1_655 S
C286 C285 1.442 . S
C286 C287 1.381 . S
C286 H313 0.931 . S
C287 C286 1.381 . S
C287 C288 1.321 . S
C288 C287 1.321 . S
C288 C289 1.403 . S
C288 H314 0.934 . S
C289 C284 1.413 . S
C289 C288 1.403 . S
C289 H315 0.930 . S
C290 O304 1.275 . S
C290 O305 1.256 . S
C291 O306 1.259 . S
C291 O307 1.268 . S
C292 Ho281 2.811 1_455 S
C292 C293 1.488 . S
C292 O308 1.215 . S
C292 O309 1.289 1_455 S
C293 C292 1.488 . S
C293 C294 1.348 . S
C293 C298 1.413 . S
C294 C293 1.348 . S
C294 C295 1.442 . S
C294 H316 0.930 1_455 S
C295 C294 1.442 . S
C295 C296 1.381 . S
C295 H317 0.931 . S
C296 C295 1.381 . S
C296 C297 1.321 . S
C297 C296 1.321 . S
C297 C298 1.403 . S
C297 H318 0.934 . S
C298 C293 1.413 . S
C298 C297 1.403 . S
C298 H319 0.930 . S
C299 O310 1.275 . S
C299 O311 1.256 . S
O300 Ho280 2.322 1_655 S
O300 C282 1.259 . S
O301 Ho281 2.346 . S
O301 C282 1.268 . S
O302 Ho280 2.378 1_655 S
O302 C283 1.215 . S
O303 Ho280 2.524 . S
O303 C283 1.289 1_455 S
O304 Ho280 2.381 1_655 S
O304 C290 1.275 . S
O305 Ho280 2.669 1_655 S
O305 Ho281 2.305 . S
O305 C290 1.256 . S
O306 Ho281 2.322 1_455 S
O306 C291 1.259 . S
O307 Ho280 2.346 . S
O307 C291 1.268 . S
O308 Ho281 2.378 1_455 S
O308 C292 1.215 . S
O309 Ho281 2.524 . S
O309 C292 1.289 1_655 S
O310 Ho281 2.381 1_455 S
O310 C299 1.275 . S
O311 Ho280 2.305 . S
O311 Ho281 2.669 1_455 S
O311 C299 1.256 . S
H312 C285 0.930 1_455 S
H313 C286 0.931 . S
H314 C288 0.934 . S
H315 C289 0.930 . S
H316 C294 0.930 1_655 S
H317 C295 0.931 . S
H318 C297 0.934 . S
H319 C298 0.930 . S
H320 C328 0.950 . S
H321 C333 0.950 . S
H322 C330 0.950 . S
H323 C332 0.950 . S
H324 C334 0.950 . S
H325 C336 0.950 . S
H326 C338 0.950 . S
H327 C339 0.950 . S
C328 H320 0.950 . S
C328 C329 1.386 . S
C328 C330 1.391 . S
C329 C328 1.386 . S
C329 C333 1.393 . S
C330 H322 0.950 . S
C330 C328 1.391 . S
C330 C331 1.400 . S
C331 C330 1.400 . S
C331 C332 1.398 . S
C331 C337 1.491 . S
C332 H323 0.950 . S
C332 C331 1.398 . S
C332 C333 1.391 . S
C333 H321 0.950 . S
C333 C329 1.393 . S
C333 C332 1.391 . S
C334 H324 0.950 . S
C334 C335 1.386 . S
C334 C336 1.391 . S
C335 C334 1.386 . S
C335 C339 1.393 . S
C336 H325 0.950 . S
C336 C334 1.391 . S
C336 C337 1.400 . S
C337 C331 1.491 . S
C337 C336 1.400 . S
C337 C338 1.398 . S
C338 H326 0.950 . S
C338 C337 1.398 . S
C338 C339 1.391 . S
C339 H327 0.950 . S
C339 C335 1.393 . S
C339 C338 1.391 . S
H340 C348 0.950 . S
H341 C353 0.950 . S
H342 C350 0.950 . S
H343 C352 0.950 . S
H344 C354 0.950 . S
H345 C356 0.950 . S
H346 C358 0.950 . S
H347 C359 0.950 . S
C348 H340 0.950 . S
C348 C349 1.386 . S
C348 C350 1.391 . S
C349 C348 1.386 . S
C349 C353 1.393 . S
C350 H342 0.950 . S
C350 C348 1.391 . S
C350 C351 1.400 . S
C351 C350 1.400 . S
C351 C352 1.398 . S
C351 C357 1.491 . S
C352 H343 0.950 . S
C352 C351 1.398 . S
C352 C353 1.391 . S
C353 H341 0.950 . S
C353 C349 1.393 . S
C353 C352 1.391 . S
C354 H344 0.950 . S
C354 C355 1.386 . S
C354 C356 1.391 . S
C355 C354 1.386 . S
C355 C359 1.393 . S
C356 H345 0.950 . S
C356 C354 1.391 . S
C356 C357 1.400 . S
C357 C351 1.491 . S
C357 C356 1.400 . S
C357 C358 1.398 . S
C358 H346 0.950 . S
C358 C357 1.398 . S
C358 C359 1.391 . S
C359 H347 0.950 . S
C359 C355 1.393 . S
C359 C358 1.391 . S
H360 C368 0.950 . S
H361 C373 0.950 . S
H362 C370 0.950 . S
H363 C372 0.950 . S
H364 C374 0.950 . S
H365 C376 0.950 . S
H366 C378 0.950 . S
H367 C379 0.950 1_554 S
C368 H360 0.950 . S
C368 C369 1.386 . S
C368 C370 1.391 . S
C369 C368 1.386 . S
C369 C373 1.393 . S
C370 H362 0.950 . S
C370 C368 1.391 . S
C370 C371 1.400 . S
C371 C370 1.400 . S
C371 C372 1.398 . S
C371 C377 1.491 . S
C372 H363 0.950 . S
C372 C371 1.398 . S
C372 C373 1.391 . S
C373 H361 0.950 . S
C373 C369 1.393 . S
C373 C372 1.391 . S
C374 H364 0.950 . S
C374 C375 1.386 . S
C374 C376 1.391 . S
C375 C374 1.386 . S
C375 C379 1.393 . S
C376 H365 0.950 . S
C376 C374 1.391 . S
C376 C377 1.400 . S
C377 C371 1.491 . S
C377 C376 1.400 . S
C377 C378 1.398 . S
C378 H366 0.950 . S
C378 C377 1.398 . S
C378 C379 1.391 . S
C379 H367 0.950 1_556 S
C379 C375 1.393 . S
C379 C378 1.391 . S
H380 C388 0.950 . S
H381 C393 0.950 . S
H382 C390 0.950 . S
H383 C392 0.950 . S
H384 C394 0.950 . S
H385 C396 0.950 . S
H386 C398 0.950 . S
H387 C399 0.950 . S
C388 H380 0.950 . S
C388 C389 1.386 . S
C388 C390 1.391 . S
C389 C388 1.386 . S
C389 C393 1.393 . S
C390 H382 0.950 . S
C390 C388 1.391 . S
C390 C391 1.400 . S
C391 C390 1.400 . S
C391 C392 1.398 . S
C391 C397 1.491 . S
C392 H383 0.950 . S
C392 C391 1.398 . S
C392 C393 1.391 . S
C393 H381 0.950 . S
C393 C389 1.393 . S
C393 C392 1.391 . S
C394 H384 0.950 . S
C394 C395 1.386 . S
C394 C396 1.391 . S
C395 C394 1.386 . S
C395 C399 1.393 . S
C396 H385 0.950 . S
C396 C394 1.391 . S
C396 C397 1.400 . S
C397 C391 1.491 . S
C397 C396 1.400 . S
C397 C398 1.398 . S
C398 H386 0.950 . S
C398 C397 1.398 . S
C398 C399 1.391 . S
C399 H387 0.950 . S
C399 C395 1.393 . S
C399 C398 1.391 . S
H400 C408 0.950 . S
H401 C413 0.950 . S
H402 C410 0.950 . S
H403 C412 0.950 . S
H404 C414 0.950 . S
H405 C416 0.950 . S
H406 C418 0.950 . S
H407 C419 0.950 . S
C408 H400 0.950 . S
C408 C409 1.386 . S
C408 C410 1.391 . S
C409 C408 1.386 . S
C409 C413 1.393 . S
C410 H402 0.950 . S
C410 C408 1.391 . S
C410 C411 1.400 . S
C411 C410 1.400 . S
C411 C412 1.398 . S
C411 C417 1.491 . S
C412 H403 0.950 . S
C412 C411 1.398 . S
C412 C413 1.391 . S
C413 H401 0.950 . S
C413 C409 1.393 . S
C413 C412 1.391 . S
C414 H404 0.950 . S
C414 C415 1.386 . S
C414 C416 1.391 . S
C415 C414 1.386 . S
C415 C419 1.393 . S
C416 H405 0.950 . S
C416 C414 1.391 . S
C416 C417 1.400 . S
C417 C411 1.491 . S
C417 C416 1.400 . S
C417 C418 1.398 . S
C418 H406 0.950 . S
C418 C417 1.398 . S
C418 C419 1.391 . S
C419 H407 0.950 . S
C419 C415 1.393 . S
C419 C418 1.391 . S
H420 C428 0.950 . S
H421 C433 0.950 . S
H422 C430 0.950 . S
H423 C432 0.950 . S
H424 C434 0.950 . S
H425 C436 0.950 . S
H426 C438 0.950 . S
H427 C439 0.950 . S
C428 H420 0.950 . S
C428 C429 1.386 . S
C428 C430 1.391 . S
C429 C428 1.386 . S
C429 C433 1.393 . S
C430 H422 0.950 . S
C430 C428 1.391 . S
C430 C431 1.400 . S
C431 C430 1.400 . S
C431 C432 1.398 . S
C431 C437 1.491 . S
C432 H423 0.950 . S
C432 C431 1.398 . S
C432 C433 1.391 . S
C433 H421 0.950 . S
C433 C429 1.393 . S
C433 C432 1.391 . S
C434 H424 0.950 . S
C434 C435 1.386 . S
C434 C436 1.391 . S
C435 C434 1.386 . S
C435 C439 1.393 . S
C436 H425 0.950 . S
C436 C434 1.391 . S
C436 C437 1.400 . S
C437 C431 1.491 . S
C437 C436 1.400 . S
C437 C438 1.398 . S
C438 H426 0.950 . S
C438 C437 1.398 . S
C438 C439 1.391 . S
C439 H427 0.950 . S
C439 C435 1.393 . S
C439 C438 1.391 . S
H440 C448 0.950 . S
H441 C453 0.950 . S
H442 C450 0.950 . S
H443 C452 0.950 . S
H444 C454 0.950 . S
H445 C456 0.950 . S
H446 C458 0.950 . S
H447 C459 0.950 1_556 S
C448 H440 0.950 . S
C448 C449 1.386 . S
C448 C450 1.391 . S
C449 C448 1.386 . S
C449 C453 1.393 . S
C450 H442 0.950 . S
C450 C448 1.391 . S
C450 C451 1.400 . S
C451 C450 1.400 . S
C451 C452 1.398 . S
C451 C457 1.491 . S
C452 H443 0.950 . S
C452 C451 1.398 . S
C452 C453 1.391 . S
C453 H441 0.950 . S
C453 C449 1.393 . S
C453 C452 1.391 . S
C454 H444 0.950 . S
C454 C455 1.386 . S
C454 C456 1.391 . S
C455 C454 1.386 . S
C455 C459 1.393 . S
C456 H445 0.950 . S
C456 C454 1.391 . S
C456 C457 1.400 . S
C457 C451 1.491 . S
C457 C456 1.400 . S
C457 C458 1.398 . S
C458 H446 0.950 . S
C458 C457 1.398 . S
C458 C459 1.391 . S
C459 H447 0.950 1_554 S
C459 C455 1.393 . S
C459 C458 1.391 . S
H460 C468 0.950 . S
H461 C473 0.950 . S
H462 C470 0.950 . S
H463 C472 0.950 . S
H464 C474 0.950 . S
H465 C476 0.950 . S
H466 C478 0.950 . S
H467 C479 0.950 . S
C468 H460 0.950 . S
C468 C469 1.386 . S
C468 C470 1.391 . S
C469 C468 1.386 . S
C469 C473 1.393 . S
C470 H462 0.950 . S
C470 C468 1.391 . S
C470 C471 1.400 . S
C471 C470 1.400 . S
C471 C472 1.398 . S
C471 C477 1.491 . S
C472 H463 0.950 . S
C472 C471 1.398 . S
C472 C473 1.391 . S
C473 H461 0.950 . S
C473 C469 1.393 . S
C473 C472 1.391 . S
C474 H464 0.950 . S
C474 C475 1.386 . S
C474 C476 1.391 . S
C475 C474 1.386 . S
C475 C479 1.393 . S
C476 H465 0.950 . S
C476 C474 1.391 . S
C476 C477 1.400 . S
C477 C471 1.491 . S
C477 C476 1.400 . S
C477 C478 1.398 . S
C478 H466 0.950 . S
C478 C477 1.398 . S
C478 C479 1.391 . S
C479 H467 0.950 . S
C479 C475 1.393 . S
C479 C478 1.391 . S
H480 C488 0.950 . S
H481 C493 0.950 . S
H482 C490 0.950 . S
H483 C492 0.950 . S
H484 C494 0.950 . S
H485 C496 0.950 . S
H486 C498 0.950 . S
H487 C499 0.950 . S
C488 H480 0.950 . S
C488 C489 1.386 . S
C488 C490 1.391 . S
C489 C488 1.386 . S
C489 C493 1.393 . S
C490 H482 0.950 . S
C490 C488 1.391 . S
C490 C491 1.400 . S
C491 C490 1.400 . S
C491 C492 1.398 . S
C491 C497 1.491 . S
C492 H483 0.950 . S
C492 C491 1.398 . S
C492 C493 1.391 . S
C493 H481 0.950 . S
C493 C489 1.393 . S
C493 C492 1.391 . S
C494 H484 0.950 . S
C494 C495 1.386 . S
C494 C496 1.391 . S
C495 C494 1.386 . S
C495 C499 1.393 . S
C496 H485 0.950 . S
C496 C494 1.391 . S
C496 C497 1.400 . S
C497 C491 1.491 . S
C497 C496 1.400 . S
C497 C498 1.398 . S
C498 H486 0.950 . S
C498 C497 1.398 . S
C498 C499 1.391 . S
C499 H487 0.950 . S
C499 C495 1.393 . S
C499 C498 1.391 . S
H500 C508 0.950 . S
H501 C513 0.950 . S
H502 C510 0.950 . S
H503 C512 0.950 . S
H504 C514 0.950 . S
H505 C516 0.950 . S
H506 C518 0.950 . S
H507 C519 0.950 1_556 S
C508 H500 0.950 . S
C508 C509 1.386 . S
C508 C510 1.391 . S
C509 C508 1.386 . S
C509 C513 1.393 . S
C510 H502 0.950 . S
C510 C508 1.391 . S
C510 C511 1.400 . S
C511 C510 1.400 . S
C511 C512 1.398 . S
C511 C517 1.491 . S
C512 H503 0.950 . S
C512 C511 1.398 . S
C512 C513 1.391 . S
C513 H501 0.950 . S
C513 C509 1.393 . S
C513 C512 1.391 . S
C514 H504 0.950 . S
C514 C515 1.386 . S
C514 C516 1.391 . S
C515 C514 1.386 . S
C515 C519 1.393 . S
C516 H505 0.950 . S
C516 C514 1.391 . S
C516 C517 1.400 . S
C517 C511 1.491 . S
C517 C516 1.400 . S
C517 C518 1.398 . S
C518 H506 0.950 . S
C518 C517 1.398 . S
C518 C519 1.391 . S
C519 H507 0.950 1_554 S
C519 C515 1.393 . S
C519 C518 1.391 . S
H520 C528 0.950 . S
H521 C533 0.950 . S
H522 C530 0.950 . S
H523 C532 0.950 . S
H524 C534 0.950 . S
H525 C536 0.950 . S
H526 C538 0.950 . S
H527 C539 0.950 . S
C528 H520 0.950 . S
C528 C529 1.386 . S
C528 C530 1.391 . S
C529 C528 1.386 . S
C529 C533 1.393 . S
C530 H522 0.950 . S
C530 C528 1.391 . S
C530 C531 1.400 . S
C531 C530 1.400 . S
C531 C532 1.398 . S
C531 C537 1.491 . S
C532 H523 0.950 . S
C532 C531 1.398 . S
C532 C533 1.391 . S
C533 H521 0.950 . S
C533 C529 1.393 . S
C533 C532 1.391 . S
C534 H524 0.950 . S
C534 C535 1.386 . S
C534 C536 1.391 . S
C535 C534 1.386 . S
C535 C539 1.393 . S
C536 H525 0.950 . S
C536 C534 1.391 . S
C536 C537 1.400 . S
C537 C531 1.491 . S
C537 C536 1.400 . S
C537 C538 1.398 . S
C538 H526 0.950 . S
C538 C537 1.398 . S
C538 C539 1.391 . S
C539 H527 0.950 . S
C539 C535 1.393 . S
C539 C538 1.391 . S
H540 C548 0.950 . S
H541 C553 0.950 . S
H542 C550 0.950 . S
H543 C552 0.950 . S
H544 C554 0.950 . S
H545 C556 0.950 . S
H546 C558 0.950 . S
H547 C559 0.950 . S
C548 H540 0.950 . S
C548 C549 1.386 . S
C548 C550 1.391 . S
C549 C548 1.386 . S
C549 C553 1.393 . S
C550 H542 0.950 . S
C550 C548 1.391 . S
C550 C551 1.400 . S
C551 C550 1.400 . S
C551 C552 1.398 . S
C551 C557 1.491 . S
C552 H543 0.950 . S
C552 C551 1.398 . S
C552 C553 1.391 . S
C553 H541 0.950 . S
C553 C549 1.393 . S
C553 C552 1.391 . S
C554 H544 0.950 . S
C554 C555 1.386 . S
C554 C556 1.391 . S
C555 C554 1.386 . S
C555 C559 1.393 . S
C556 H545 0.950 . S
C556 C554 1.391 . S
C556 C557 1.400 . S
C557 C551 1.491 . S
C557 C556 1.400 . S
C557 C558 1.398 . S
C558 H546 0.950 . S
C558 C557 1.398 . S
C558 C559 1.391 . S
C559 H547 0.950 . S
C559 C555 1.393 . S
C559 C558 1.391 . S
H560 C568 0.950 . S
H561 C573 0.950 . S
H562 C570 0.950 . S
H563 C572 0.950 . S
H564 C574 0.950 . S
H565 C576 0.950 . S
H566 C578 0.950 . S
H567 C579 0.950 . S
C568 H560 0.950 . S
C568 C569 1.386 . S
C568 C570 1.391 . S
C569 C568 1.386 . S
C569 C573 1.393 . S
C570 H562 0.950 . S
C570 C568 1.391 . S
C570 C571 1.400 . S
C571 C570 1.400 . S
C571 C572 1.398 . S
C571 C577 1.491 . S
C572 H563 0.950 . S
C572 C571 1.398 . S
C572 C573 1.391 . S
C573 H561 0.950 . S
C573 C569 1.393 . S
C573 C572 1.391 . S
C574 H564 0.950 . S
C574 C575 1.386 . S
C574 C576 1.391 . S
C575 C574 1.386 . S
C575 C579 1.393 . S
C576 H565 0.950 . S
C576 C574 1.391 . S
C576 C577 1.400 . S
C577 C571 1.491 . S
C577 C576 1.400 . S
C577 C578 1.398 . S
C578 H566 0.950 . S
C578 C577 1.398 . S
C578 C579 1.391 . S
C579 H567 0.950 . S
C579 C575 1.393 . S
C579 C578 1.391 . S
H580 C588 0.950 . S
H581 C593 0.950 . S
H582 C590 0.950 . S
H583 C592 0.950 . S
H584 C594 0.950 . S
H585 C596 0.950 . S
H586 C598 0.950 . S
H587 C599 0.950 . S
C588 H580 0.950 . S
C588 C589 1.386 . S
C588 C590 1.391 . S
C589 C588 1.386 . S
C589 C593 1.393 . S
C590 H582 0.950 . S
C590 C588 1.391 . S
C590 C591 1.400 . S
C591 C590 1.400 . S
C591 C592 1.398 . S
C591 C597 1.491 . S
C592 H583 0.950 . S
C592 C591 1.398 . S
C592 C593 1.391 . S
C593 H581 0.950 . S
C593 C589 1.393 . S
C593 C592 1.391 . S
C594 H584 0.950 . S
C594 C595 1.386 . S
C594 C596 1.391 . S
C595 C594 1.386 . S
C595 C599 1.393 . S
C596 H585 0.950 . S
C596 C594 1.391 . S
C596 C597 1.400 . S
C597 C591 1.491 . S
C597 C596 1.400 . S
C597 C598 1.398 . S
C598 H586 0.950 . S
C598 C597 1.398 . S
C598 C599 1.391 . S
C599 H587 0.950 . S
C599 C595 1.393 . S
C599 C598 1.391 . S
H600 C608 0.950 . S
H601 C613 0.950 . S
H602 C610 0.950 . S
H603 C612 0.950 . S
H604 C614 0.950 . S
H605 C616 0.950 . S
H606 C618 0.950 . S
H607 C619 0.950 . S
C608 H600 0.950 . S
C608 C609 1.386 . S
C608 C610 1.391 . S
C609 C608 1.386 . S
C609 C613 1.393 . S
C610 H602 0.950 . S
C610 C608 1.391 . S
C610 C611 1.400 . S
C611 C610 1.400 . S
C611 C612 1.398 . S
C611 C617 1.491 . S
C612 H603 0.950 . S
C612 C611 1.398 . S
C612 C613 1.391 . S
C613 H601 0.950 . S
C613 C609 1.393 . S
C613 C612 1.391 . S
C614 H604 0.950 . S
C614 C615 1.386 . S
C614 C616 1.391 . S
C615 C614 1.386 . S
C615 C619 1.393 . S
C616 H605 0.950 . S
C616 C614 1.391 . S
C616 C617 1.400 . S
C617 C611 1.491 . S
C617 C616 1.400 . S
C617 C618 1.398 . S
C618 H606 0.950 . S
C618 C617 1.398 . S
C618 C619 1.391 . S
C619 H607 0.950 . S
C619 C615 1.393 . S
C619 C618 1.391 . S
H620 C628 0.950 . S
H621 C633 0.950 . S
H622 C630 0.950 . S
H623 C632 0.950 . S
H624 C634 0.950 . S
H625 C636 0.950 . S
H626 C638 0.950 . S
H627 C639 0.950 . S
C628 H620 0.950 . S
C628 C629 1.386 . S
C628 C630 1.391 . S
C629 C628 1.386 . S
C629 C633 1.393 . S
C630 H622 0.950 . S
C630 C628 1.391 . S
C630 C631 1.400 . S
C631 C630 1.400 . S
C631 C632 1.398 . S
C631 C637 1.491 . S
C632 H623 0.950 . S
C632 C631 1.398 . S
C632 C633 1.391 . S
C633 H621 0.950 . S
C633 C629 1.393 . S
C633 C632 1.391 . S
C634 H624 0.950 . S
C634 C635 1.386 . S
C634 C636 1.391 . S
C635 C634 1.386 . S
C635 C639 1.393 . S
C636 H625 0.950 . S
C636 C634 1.391 . S
C636 C637 1.400 . S
C637 C631 1.491 . S
C637 C636 1.400 . S
C637 C638 1.398 . S
C638 H626 0.950 . S
C638 C637 1.398 . S
C638 C639 1.391 . S
C639 H627 0.950 . S
C639 C635 1.393 . S
C639 C638 1.391 . S
H640 C648 0.950 . S
H641 C653 0.950 . S
H642 C650 0.950 . S
H643 C652 0.950 1_455 S
H644 C654 0.950 . S
H645 C656 0.950 . S
H646 C658 0.950 1_655 S
H647 C659 0.950 . S
C648 H640 0.950 . S
C648 C649 1.386 . S
C648 C650 1.391 . S
C649 C648 1.386 . S
C649 C653 1.393 1_565 S
C650 H642 0.950 . S
C650 C648 1.391 . S
C650 C651 1.411 . S
C651 C650 1.411 . S
C651 C652 1.390 1_565 S
C651 C657 1.485 1_666 S
C652 H643 0.950 1_655 S
C652 C651 1.390 1_545 S
C652 C653 1.391 . S
C653 H641 0.950 . S
C653 C649 1.393 1_545 S
C653 C652 1.391 . S
C654 H644 0.950 . S
C654 C655 1.386 . S
C654 C656 1.391 . S
C655 C654 1.386 . S
C655 C659 1.393 1_545 S
C656 H645 0.950 . S
C656 C654 1.391 . S
C656 C657 1.418 . S
C657 C651 1.485 1_444 S
C657 C656 1.418 . S
C657 C658 1.385 1_545 S
C658 H646 0.950 1_455 S
C658 C657 1.385 1_565 S
C658 C659 1.391 . S
C659 H647 0.950 . S
C659 C655 1.393 1_565 S
C659 C658 1.391 . S
H660 C668 0.950 . S
H661 C673 0.950 . S
H662 C670 0.950 . S
H663 C672 0.950 . S
H664 C674 0.950 . S
H665 C676 0.950 . S
H666 C678 0.950 . S
H667 C679 0.950 . S
C668 H660 0.950 . S
C668 C669 1.386 . S
C668 C670 1.391 . S
C669 C668 1.386 . S
C669 C673 1.393 . S
C670 H662 0.950 . S
C670 C668 1.391 . S
C670 C671 1.400 . S
C671 C670 1.400 . S
C671 C672 1.398 . S
C671 C677 1.491 . S
C672 H663 0.950 . S
C672 C671 1.398 . S
C672 C673 1.391 . S
C673 H661 0.950 . S
C673 C669 1.393 . S
C673 C672 1.391 . S
C674 H664 0.950 . S
C674 C675 1.386 . S
C674 C676 1.391 . S
C675 C674 1.386 . S
C675 C679 1.393 . S
C676 H665 0.950 . S
C676 C674 1.391 . S
C676 C677 1.400 . S
C677 C671 1.491 . S
C677 C676 1.400 . S
C677 C678 1.398 . S
C678 H666 0.950 . S
C678 C677 1.398 . S
C678 C679 1.391 . S
C679 H667 0.950 . S
C679 C675 1.393 . S
C679 C678 1.391 . S
H680 C688 0.946 1_565 S
H681 C693 0.950 . S
H682 C690 0.950 . S
H683 C692 0.950 . S
H684 C694 0.948 1_545 S
H685 C696 0.950 . S
H686 C698 0.950 . S
H687 C699 0.950 . S
C688 H680 0.946 1_545 S
C688 C689 1.394 . S
C688 C690 1.386 1_545 S
C689 C688 1.394 . S
C689 C693 1.393 . S
C690 H682 0.950 . S
C690 C688 1.386 1_565 S
C690 C691 1.400 1_565 S
C691 C690 1.400 1_545 S
C691 C692 1.398 . S
C691 C697 1.491 1_545 S
C692 H683 0.950 . S
C692 C691 1.398 . S
C692 C693 1.391 . S
C693 H681 0.950 . S
C693 C689 1.393 . S
C693 C692 1.391 . S
C694 H684 0.948 1_565 S
C694 C695 1.389 . S
C694 C696 1.389 1_565 S
C695 C694 1.389 . S
C695 C699 1.393 . S
C696 H685 0.950 . S
C696 C694 1.389 1_545 S
C696 C697 1.400 1_545 S
C697 C691 1.491 1_565 S
C697 C696 1.400 1_565 S
C697 C698 1.398 . S
C698 H686 0.950 . S
C698 C697 1.398 . S
C698 C699 1.391 . S
C699 H687 0.950 . S
C699 C695 1.393 . S
C699 C698 1.391 . S
H700 C708 0.950 . S
H701 C713 0.950 . S
H702 C710 0.950 . S
H703 C712 0.950 . S
H704 C714 0.950 . S
H705 C716 0.950 . S
H706 C718 0.950 . S
H707 C719 0.950 . S
C708 H700 0.950 . S
C708 C709 1.386 . S
C708 C710 1.391 . S
C709 C708 1.386 . S
C709 C713 1.393 . S
C710 H702 0.950 . S
C710 C708 1.391 . S
C710 C711 1.400 . S
C711 C710 1.400 . S
C711 C712 1.398 . S
C711 C717 1.491 . S
C712 H703 0.950 . S
C712 C711 1.398 . S
C712 C713 1.391 . S
C713 H701 0.950 . S
C713 C709 1.393 . S
C713 C712 1.391 . S
C714 H704 0.950 . S
C714 C715 1.386 . S
C714 C716 1.391 . S
C715 C714 1.386 . S
C715 C719 1.393 . S
C716 H705 0.950 . S
C716 C714 1.391 . S
C716 C717 1.400 . S
C717 C711 1.491 . S
C717 C716 1.400 . S
C717 C718 1.398 . S
C718 H706 0.950 . S
C718 C717 1.398 . S
C718 C719 1.391 . S
C719 H707 0.950 . S
C719 C715 1.393 . S
C719 C718 1.391 . S
H720 C728 0.950 . S
H721 C733 0.950 . S
H722 C730 0.950 . S
H723 C732 0.950 . S
H724 C734 0.950 . S
H725 C736 0.950 . S
H726 C738 0.950 . S
H727 C739 0.950 . S
C728 H720 0.950 . S
C728 C729 1.386 . S
C728 C730 1.391 . S
C729 C728 1.386 . S
C729 C733 1.393 . S
C730 H722 0.950 . S
C730 C728 1.391 . S
C730 C731 1.400 . S
C731 C730 1.400 . S
C731 C732 1.398 . S
C731 C737 1.491 . S
C732 H723 0.950 . S
C732 C731 1.398 . S
C732 C733 1.391 . S
C733 H721 0.950 . S
C733 C729 1.393 . S
C733 C732 1.391 . S
C734 H724 0.950 . S
C734 C735 1.386 . S
C734 C736 1.391 . S
C735 C734 1.386 . S
C735 C739 1.393 . S
C736 H725 0.950 . S
C736 C734 1.391 . S
C736 C737 1.400 . S
C737 C731 1.491 . S
C737 C736 1.400 . S
C737 C738 1.398 . S
C738 H726 0.950 . S
C738 C737 1.398 . S
C738 C739 1.391 . S
C739 H727 0.950 . S
C739 C735 1.393 . S
C739 C738 1.391 . S
H740 C748 0.950 . S
H741 C753 0.950 . S
H742 C750 0.950 . S
H743 C752 0.950 . S
H744 C754 0.950 . S
H745 C756 0.950 . S
H746 C758 0.950 . S
H747 C759 0.950 . S
C748 H740 0.950 . S
C748 C749 1.386 . S
C748 C750 1.391 . S
C749 C748 1.386 . S
C749 C753 1.393 . S
C750 H742 0.950 . S
C750 C748 1.391 . S
C750 C751 1.400 . S
C751 C750 1.400 . S
C751 C752 1.398 . S
C751 C757 1.491 . S
C752 H743 0.950 . S
C752 C751 1.398 . S
C752 C753 1.391 . S
C753 H741 0.950 . S
C753 C749 1.393 . S
C753 C752 1.391 . S
C754 H744 0.950 . S
C754 C755 1.386 . S
C754 C756 1.391 . S
C755 C754 1.386 . S
C755 C759 1.393 . S
C756 H745 0.950 . S
C756 C754 1.391 . S
C756 C757 1.400 . S
C757 C751 1.491 . S
C757 C756 1.400 . S
C757 C758 1.398 . S
C758 H746 0.950 . S
C758 C757 1.398 . S
C758 C759 1.391 . S
C759 H747 0.950 . S
C759 C755 1.393 . S
C759 C758 1.391 . S
H760 C768 0.950 . S
H761 C773 0.950 . S
H762 C770 0.950 . S
H763 C772 0.950 . S
H764 C774 0.950 . S
H765 C776 0.950 . S
H766 C778 0.950 . S
H767 C779 0.950 . S
C768 H760 0.950 . S
C768 C769 1.386 . S
C768 C770 1.391 . S
C769 C768 1.386 . S
C769 C773 1.393 . S
C770 H762 0.950 . S
C770 C768 1.391 . S
C770 C771 1.400 . S
C771 C770 1.400 . S
C771 C772 1.398 . S
C771 C777 1.491 . S
C772 H763 0.950 . S
C772 C771 1.398 . S
C772 C773 1.391 . S
C773 H761 0.950 . S
C773 C769 1.393 . S
C773 C772 1.391 . S
C774 H764 0.950 . S
C774 C775 1.386 . S
C774 C776 1.391 . S
C775 C774 1.386 . S
C775 C779 1.393 . S
C776 H765 0.950 . S
C776 C774 1.391 . S
C776 C777 1.400 . S
C777 C771 1.491 . S
C777 C776 1.400 . S
C777 C778 1.398 . S
C778 H766 0.950 . S
C778 C777 1.398 . S
C778 C779 1.391 . S
C779 H767 0.950 . S
C779 C775 1.393 . S
C779 C778 1.391 . S
H780 C788 0.950 . S
H781 C793 0.950 . S
H782 C790 0.950 . S
H783 C792 0.950 . S
H784 C794 0.950 . S
H785 C796 0.950 . S
H786 C798 0.950 . S
H787 C799 0.950 . S
C788 H780 0.950 . S
C788 C789 1.386 . S
C788 C790 1.391 . S
C789 C788 1.386 . S
C789 C793 1.393 1_655 S
C790 H782 0.950 . S
C790 C788 1.391 . S
C790 C791 1.400 . S
C791 C790 1.400 . S
C791 C792 1.398 1_655 S
C791 C797 1.491 1_656 S
C792 H783 0.950 . S
C792 C791 1.398 1_455 S
C792 C793 1.391 . S
C793 H781 0.950 . S
C793 C789 1.393 1_455 S
C793 C792 1.391 . S
C794 H784 0.950 . S
C794 C795 1.386 . S
C794 C796 1.391 . S
C795 C794 1.386 . S
C795 C799 1.393 1_455 S
C796 H785 0.950 . S
C796 C794 1.391 . S
C796 C797 1.400 . S
C797 C791 1.491 1_454 S
C797 C796 1.400 . S
C797 C798 1.398 1_455 S
C798 H786 0.950 . S
C798 C797 1.398 1_655 S
C798 C799 1.391 . S
C799 H787 0.950 . S
C799 C795 1.393 1_655 S
C799 C798 1.391 . S
C329 C2 1.529 . S
C335 C130 1.515 . S
C349 C10 0.870 . S
C355 C50 0.887 . S
C369 C42 1.530 . S
C375 C90 1.526 . S
C389 C82 2.066 . S
C395 C122 2.061 . S
C409 C11 1.524 . S
C415 C219 1.518 . S
C429 C19 0.871 . S
C435 C179 0.887 . S
C449 C171 1.523 . S
C455 C99 1.509 . S
C469 C211 2.063 . S
C475 C91 2.063 . S
C489 C242 1.521 . S
C495 C210 1.511 . S
C509 C170 0.874 . S
C515 C250 0.891 . S
C529 C290 1.520 . S
C535 C162 1.529 . S
C549 C202 2.060 . S
C555 C282 2.066 . S
C569 C139 1.517 . S
C575 C251 1.525 . S
C589 C259 0.895 . S
C595 C59 0.880 . S
C609 C51 1.527 . S
C615 C299 1.515 . S
C629 C131 2.060 . S
C635 C291 2.061 . S
C649 C16 1.433 . S
C655 C7 1.437 . S
C669 C56 1.452 . S
C675 C47 1.452 . S
C689 C96 1.606 . S
C695 C87 1.606 . S
C709 C127 1.614 . S
C715 C136 1.614 . S
C729 C176 1.450 . S
C735 C167 1.450 . S
C749 C207 1.595 . S
C755 C216 1.595 . S
C769 C247 1.437 . S
C775 C256 1.437 . S
C789 C287 1.612 . S
C795 C296 1.612 . S
