# Generated by pormake.
# Topology uov, (4)-cn, num edge types: 1
# Building blocks:
#     Node 0, Type 0, BuildingBlock: CEKHIL_clean_sbu_0, # of connection points: 4
#     Node 1, Type 0, BuildingBlock: CEKHIL_clean_sbu_0, # of connection points: 4
#     Node 2, Type 0, BuildingBlock: CEKHIL_clean_sbu_0, # of connection points: 4
#     Node 3, Type 0, BuildingBlock: CEKHIL_clean_sbu_0, # of connection points: 4
#     Node 4, Type 0, BuildingBlock: CEKHIL_clean_sbu_0, # of connection points: 4
#     Node 5, Type 0, BuildingBlock: CEKHIL_clean_sbu_0, # of connection points: 4
#     Node 6, Type 0, BuildingBlock: CEKHIL_clean_sbu_0, # of connection points: 4
#     Node 7, Type 0, BuildingBlock: CEKHIL_clean_sbu_0, # of connection points: 4
#     Edge 8, Type (0, 0), BuildingBlock: TEMPAE_clean_linker_10, # of connection points: 2
#     Edge 9, Type (0, 0), BuildingBlock: TEMPAE_clean_linker_10, # of connection points: 2
#     Edge 10, Type (0, 0), BuildingBlock: TEMPAE_clean_linker_10, # of connection points: 2
#     Edge 11, Type (0, 0), BuildingBlock: TEMPAE_clean_linker_10, # of connection points: 2
#     Edge 12, Type (0, 0), BuildingBlock: TEMPAE_clean_linker_10, # of connection points: 2
#     Edge 13, Type (0, 0), BuildingBlock: TEMPAE_clean_linker_10, # of connection points: 2
#     Edge 14, Type (0, 0), BuildingBlock: TEMPAE_clean_linker_10, # of connection points: 2
#     Edge 15, Type (0, 0), BuildingBlock: TEMPAE_clean_linker_10, # of connection points: 2
#     Edge 16, Type (0, 0), BuildingBlock: TEMPAE_clean_linker_10, # of connection points: 2
#     Edge 17, Type (0, 0), BuildingBlock: TEMPAE_clean_linker_10, # of connection points: 2
#     Edge 18, Type (0, 0), BuildingBlock: TEMPAE_clean_linker_10, # of connection points: 2
#     Edge 19, Type (0, 0), BuildingBlock: TEMPAE_clean_linker_10, # of connection points: 2
#     Edge 20, Type (0, 0), BuildingBlock: TEMPAE_clean_linker_10, # of connection points: 2
#     Edge 21, Type (0, 0), BuildingBlock: TEMPAE_clean_linker_10, # of connection points: 2
#     Edge 22, Type (0, 0), BuildingBlock: TEMPAE_clean_linker_10, # of connection points: 2
#     Edge 23, Type (0, 0), BuildingBlock: TEMPAE_clean_linker_10, # of connection points: 2
# Relax obj value: 0.153
# Max RMSD: 0.151
# Mean RMSD: 0.151
data_MOF--net-uov--node1-CEKHIL_clean_sbu_0--edge1-TEMPAE_clean_linker_10
_symmetry_space_group_name_H-M    P1
_symmetry_Int_Tables_number       1
_symmetry_cell_setting            triclinic
loop_
_symmetry_equiv_pos_as_xyz
'x, y, z'
_cell_length_a     30.088656
_cell_length_b     30.112422
_cell_length_c     42.208828
_cell_angle_alpha  90.024425
_cell_angle_beta   89.974687
_cell_angle_gamma 90.00615
loop_
_atom_site_label
_atom_site_type_symbol
_atom_site_fract_x
_atom_site_fract_y
_atom_site_fract_z
_atom_type_partial_charge
Co0 Co 0.00897 0.2605 0.61484 0.0
O1 O 0.98391 0.30769 0.64004 0.0
O2 O 0.0454 0.31313 0.61149 0.0
C3 C 0.94603 0.239 0.59026 0.0
O4 O 0.04338 0.22024 0.58473 0.0
Co5 Co 0.9789 0.16242 0.62465 0.0
O6 O 0.01174 0.15254 0.58439 0.0
C7 C 0.04046 0.20386 0.6702 0.0
C8 C 0.01619 0.33233 0.62963 0.0
C9 C 0.03937 0.18071 0.57335 0.0
O10 O 0.04493 0.23801 0.6521 0.0
O11 O 0.01246 0.17269 0.665 0.0
O12 O 0.96772 0.27366 0.58046 0.0
O13 O 0.95967 0.22253 0.61677 0.0
Co14 Co 0.26672 0.99471 0.38111 0.0
O15 O 0.31343 0.02183 0.35651 0.0
O16 O 0.32018 0.95904 0.38326 0.0
C17 C 0.24422 0.05579 0.40762 0.0
O18 O 0.22684 0.95833 0.41032 0.0
Co19 Co 0.1683 0.02438 0.3715 0.0
O20 O 0.15873 0.9893 0.41076 0.0
C21 C 0.21013 0.96462 0.32503 0.0
C22 C 0.33878 0.98952 0.36586 0.0
C23 C 0.18702 0.96149 0.42141 0.0
O24 O 0.2445 0.96017 0.34298 0.0
O25 O 0.17867 0.99212 0.33066 0.0
O26 O 0.27938 0.03425 0.41664 0.0
O27 O 0.22807 0.04356 0.38065 0.0
Co28 Co 0.99637 0.73644 0.61233 0.0
O29 O 0.02332 0.68985 0.63705 0.0
O30 O 0.96056 0.68327 0.61011 0.0
C31 C 0.05781 0.75866 0.58608 0.0
O32 O 0.95991 0.77597 0.58304 0.0
Co33 Co 0.02551 0.83497 0.62136 0.0
O34 O 0.9899 0.84442 0.58232 0.0
C35 C 0.96645 0.79301 0.66831 0.0
C36 C 0.99086 0.66468 0.62763 0.0
C37 C 0.96234 0.81572 0.57188 0.0
O38 O 0.96183 0.75867 0.65039 0.0
O39 O 0.99379 0.82454 0.66245 0.0
O40 O 0.03615 0.72362 0.57695 0.0
O41 O 0.0452 0.77516 0.61286 0.0
Co42 Co 0.74252 0.00606 0.38192 0.0
O43 O 0.69618 0.98311 0.35483 0.0
O44 O 0.69081 0.04399 0.38394 0.0
C45 C 0.75985 0.94169 0.40653 0.0
O46 O 0.78146 0.03864 0.41398 0.0
Co47 Co 0.84041 0.97245 0.37729 0.0
O48 O 0.8472 0.00364 0.41833 0.0
C49 C 0.80762 0.04065 0.33217 0.0
C50 C 0.67174 0.01563 0.36509 0.0
C51 C 0.81934 0.03276 0.42762 0.0
O52 O 0.76926 0.04211 0.34588 0.0
O53 O 0.83813 0.01311 0.33997 0.0
O54 O 0.72536 0.9645 0.41528 0.0
O55 O 0.77893 0.95541 0.38095 0.0
Co56 Co 0.9918 0.26486 0.11059 0.0
O57 O 0.01422 0.31016 0.13875 0.0
O58 O 0.95562 0.31769 0.10758 0.0
C59 C 0.05733 0.24568 0.08823 0.0
O60 O 0.96032 0.22719 0.07717 0.0
Co61 Co 0.02172 0.16595 0.11593 0.0
O62 O 0.99462 0.16107 0.07336 0.0
C63 C 0.94928 0.19994 0.1571 0.0
C64 C 0.98312 0.33565 0.12761 0.0
C65 C 0.96665 0.18954 0.06332 0.0
O66 O 0.95218 0.23921 0.14506 0.0
O67 O 0.97496 0.16776 0.14952 0.0
O68 O 0.03626 0.28094 0.07893 0.0
O69 O 0.04122 0.2268 0.1132 0.0
Co70 Co 0.2646 0.00787 0.88381 0.0
O71 O 0.31094 0.98078 0.8589 0.0
O72 O 0.3181 0.04326 0.88607 0.0
C73 C 0.24203 0.94646 0.90983 0.0
O74 O 0.22525 0.04431 0.91333 0.0
Co75 Co 0.16583 0.97925 0.87466 0.0
O76 O 0.15657 0.0147 0.91382 0.0
C77 C 0.20823 0.03816 0.8279 0.0
C78 C 0.33642 0.01293 0.8684 0.0
C79 C 0.1854 0.04198 0.92444 0.0
O80 O 0.24248 0.04276 0.84593 0.0
O81 O 0.17664 0.01084 0.8336 0.0
O82 O 0.27726 0.9678 0.919 0.0
O83 O 0.22559 0.95934 0.88311 0.0
Co84 Co 0.00584 0.73997 0.11552 0.0
O85 O 0.97914 0.69321 0.14028 0.0
O86 O 0.04143 0.68663 0.11281 0.0
C87 C 0.94433 0.7627 0.08961 0.0
O88 O 0.04178 0.77973 0.08603 0.0
Co89 Co 0.97682 0.83842 0.12553 0.0
O90 O 0.0113 0.848 0.08597 0.0
C91 C 0.03743 0.79636 0.1713 0.0
C92 C 0.01127 0.66795 0.13044 0.0
C93 C 0.03872 0.81954 0.07502 0.0
O94 O 0.04124 0.76196 0.1533 0.0
O95 O 0.01001 0.82798 0.16598 0.0
O96 O 0.96558 0.72746 0.08041 0.0
O97 O 0.95706 0.7788 0.11649 0.0
Co98 Co 0.74086 0.99332 0.87961 0.0
O99 O 0.69366 0.01733 0.85393 0.0
O100 O 0.68818 0.95709 0.88372 0.0
C101 C 0.76218 0.05733 0.90279 0.0
O102 O 0.78106 0.96016 0.91044 0.0
Co103 Co 0.83908 0.02297 0.86949 0.0
O104 O 0.84892 0.99151 0.91027 0.0
C105 C 0.79768 0.95993 0.8249 0.0
C106 C 0.66896 0.98559 0.86505 0.0
C107 C 0.8206 0.96441 0.92178 0.0
O108 O 0.76347 0.95594 0.84306 0.0
O109 O 0.8288 0.98814 0.82968 0.0
O110 O 0.72762 0.03595 0.91311 0.0
O111 O 0.77884 0.04251 0.87665 0.0
C112 C 0.9637 0.58783 0.61623 0.0
C113 C 0.99123 0.61624 0.63375 0.0
C114 C 0.96803 0.5415 0.61853 0.0
C115 C 0.00025 0.52311 0.63919 0.0
C116 C 0.02659 0.55162 0.65813 0.0
C117 C 0.022 0.59785 0.65501 0.0
C118 C 0.93944 0.51227 0.59778 0.0
C119 C 0.06069 0.53333 0.68087 0.0
C120 C 0.98685 0.40002 0.65699 0.0
C121 C 0.01649 0.38091 0.63523 0.0
C122 C 0.98252 0.44636 0.65953 0.0
C123 C 0.00796 0.4742 0.6395 0.0
C124 C 0.03914 0.4551 0.61834 0.0
C125 C 0.04325 0.40869 0.61662 0.0
C126 C 0.94956 0.46543 0.68283 0.0
C127 C 0.06673 0.4836 0.59643 0.0
H128 H 0.93997 0.60178 0.59968 0.0
H129 H 0.04326 0.61962 0.66874 0.0
H130 H 0.96079 0.49368 0.58092 0.0
H131 H 0.92157 0.48744 0.61242 0.0
H132 H 0.91465 0.53163 0.58403 0.0
H133 H 0.07544 0.55964 0.69603 0.0
H134 H 0.04545 0.50773 0.69634 0.0
H135 H 0.08781 0.51699 0.6674 0.0
H136 H 0.96618 0.37874 0.67155 0.0
H137 H 0.06609 0.39417 0.59967 0.0
H138 H 0.92173 0.48123 0.6698 0.0
H139 H 0.96551 0.4916 0.69743 0.0
H140 H 0.93564 0.43965 0.69884 0.0
H141 H 0.0446 0.50156 0.57976 0.0
H142 H 0.09092 0.46377 0.58244 0.0
H143 H 0.08522 0.50896 0.61019 0.0
C144 C 0.59514 0.0407 0.37944 0.0
C145 C 0.62314 0.01643 0.35928 0.0
C146 C 0.54872 0.03624 0.37771 0.0
C147 C 0.52972 0.00745 0.35486 0.0
C148 C 0.55776 0.9847 0.33332 0.0
C149 C 0.60415 0.98911 0.336 0.0
C150 C 0.52011 0.0608 0.40134 0.0
C151 C 0.53882 0.95452 0.30816 0.0
C152 C 0.41577 0.96084 0.37564 0.0
C153 C 0.38737 0.9903 0.35978 0.0
C154 C 0.4622 0.96521 0.37344 0.0
C155 C 0.48072 -0.00037 0.3547 0.0
C156 C 0.4522 0.02811 0.33744 0.0
C157 C 0.40591 0.02324 0.3403 0.0
C158 C 0.4914 0.93419 0.39229 0.0
C159 C 0.47055 0.06479 0.31686 0.0
H160 H 0.60955 0.06161 0.39765 0.0
H161 H 0.6256 0.97033 0.32029 0.0
H162 H 0.49464 0.08082 0.38884 0.0
H163 H 0.50224 0.03658 0.41653 0.0
H164 H 0.53986 0.08318 0.41682 0.0
H165 H 0.56469 0.94262 0.29139 0.0
H166 H 0.52307 0.92524 0.3195 0.0
H167 H 0.5126 0.97202 0.29455 0.0
H168 H 0.40175 0.93537 0.39078 0.0
H169 H 0.38422 0.04607 0.32786 0.0
H170 H 0.50991 0.95334 0.41048 0.0
H171 H 0.51634 0.91828 0.3766 0.0
H172 H 0.472 0.90775 0.40437 0.0
H173 H 0.48691 0.09016 0.33194 0.0
H174 H 0.44424 0.08133 0.30267 0.0
H175 H 0.49617 0.05147 0.3005 0.0
C176 C 0.01191 0.40227 0.15671 0.0
C177 C 0.98287 0.38406 0.13416 0.0
C178 C 0.01671 0.4485 0.15995 0.0
C179 C 0.99232 0.47721 0.13988 0.0
C180 C 0.96165 0.45902 0.11796 0.0
C181 C 0.95709 0.4127 0.11551 0.0
C182 C 0.04913 0.46655 0.18401 0.0
C183 C 0.93511 0.48842 0.09601 0.0
C184 C 0.97906 0.60068 0.15674 0.0
C185 C 0.01052 0.61933 0.13609 0.0
C186 C 0.97398 0.5544 0.15924 0.0
C187 C 0.0006 0.52608 0.14035 0.0
C188 C 0.03356 0.5447 0.12036 0.0
C189 C 0.0383 0.59107 0.11862 0.0
C190 C 0.939 0.5359 0.18124 0.0
C191 C 0.06253 0.51571 0.09971 0.0
H192 H 0.03186 0.38036 0.17129 0.0
H193 H 0.9347 0.39895 0.09795 0.0
H194 H 0.07759 0.48229 0.17162 0.0
H195 H 0.03306 0.49258 0.19868 0.0
H196 H 0.06217 0.4402 0.1999 0.0
H197 H 0.91112 0.46925 0.0814 0.0
H198 H 0.91652 0.51366 0.10982 0.0
H199 H 0.95798 0.5065 0.07991 0.0
H200 H 0.95756 0.62229 0.17043 0.0
H201 H 0.06258 0.60519 0.10254 0.0
H202 H 0.95347 0.5097 0.19656 0.0
H203 H 0.9121 0.52026 0.16715 0.0
H204 H 0.92411 0.56197 0.19655 0.0
H205 H 0.07957 0.49025 0.11429 0.0
H206 H 0.08804 0.53515 0.08667 0.0
H207 H 0.04157 0.49787 0.08222 0.0
C208 C 0.40298 0.9808 0.84118 0.0
C209 C 0.38489 0.01214 0.86217 0.0
C210 C 0.4492 0.9758 0.83799 0.0
C211 C 0.47801 0.00237 0.85652 0.0
C212 C 0.45993 0.03514 0.8769 0.0
C213 C 0.4136 0.03981 0.87933 0.0
C214 C 0.46715 0.94102 0.81561 0.0
C215 C 0.4895 0.06403 0.89718 0.0
C216 C 0.59253 0.95931 0.8789 0.0
C217 C 0.62028 0.98535 0.85974 0.0
C218 C 0.5461 0.96367 0.87746 0.0
C219 C 0.52691 0.9944 0.85604 0.0
C220 C 0.55469 0.0191 0.83548 0.0
C221 C 0.60105 0.0145 0.83773 0.0
C222 C 0.51767 0.93685 0.89989 0.0
C223 C 0.53552 0.05158 0.81193 0.0
H224 H 0.381 0.9594 0.82774 0.0
H225 H 0.39988 0.06398 0.89566 0.0
H226 H 0.49266 0.95572 0.79979 0.0
H227 H 0.48354 0.91424 0.82934 0.0
H228 H 0.44061 0.92596 0.80079 0.0
H229 H 0.47037 0.08925 0.91072 0.0
H230 H 0.50809 0.043 0.91421 0.0
H231 H 0.51435 0.08137 0.88223 0.0
H232 H 0.60713 0.93685 0.89605 0.0
H233 H 0.6223 0.03463 0.82276 0.0
H234 H 0.492 0.9182 0.88653 0.0
H235 H 0.50005 0.95949 0.91641 0.0
H236 H 0.53753 0.9129 0.91404 0.0
H237 H 0.50914 0.0354 0.79764 0.0
H238 H 0.56122 0.06503 0.79565 0.0
H239 H 0.51991 0.07972 0.82474 0.0
C240 C 0.22854 0.08211 0.46258 0.0
C241 C 0.21779 0.0824 0.43027 0.0
C242 C 0.20007 0.10132 0.48507 0.0
C243 C 0.16017 0.12178 0.47494 0.0
C244 C 0.15025 0.12416 0.4422 0.0
C245 C 0.17912 0.10423 0.42024 0.0
C246 C 0.21165 0.09778 0.51979 0.0
C247 C 0.10827 0.14612 0.43047 0.0
C248 C 0.06558 0.12354 0.5344 0.0
C249 C 0.06889 0.16662 0.54697 0.0
C250 C 0.09457 0.10885 0.51057 0.0
C251 C 0.12758 0.13801 0.4988 0.0
C252 C 0.13039 0.18188 0.51068 0.0
C253 C 0.10109 0.19565 0.53467 0.0
C254 C 0.09049 0.06174 0.49851 0.0
C255 C 0.16489 0.21401 0.49845 0.0
H256 H 0.25828 0.06514 0.47053 0.0
H257 H 0.17071 0.10464 0.39527 0.0
H258 H 0.21039 0.13098 0.53114 0.0
H259 H 0.18685 0.07649 0.53196 0.0
H260 H 0.2452 0.08336 0.52363 0.0
H261 H 0.10747 0.14882 0.40422 0.0
H262 H 0.07896 0.12662 0.43826 0.0
H263 H 0.10496 0.17986 0.44077 0.0
H264 H 0.04066 0.10087 0.54348 0.0
H265 H 0.10383 0.22905 0.54403 0.0
H266 H 0.12141 0.0431 0.50384 0.0
H267 H 0.08629 0.06166 0.4724 0.0
H268 H 0.06198 0.04381 0.5093 0.0
H269 H 0.19864 0.20148 0.5041 0.0
H270 H 0.16114 0.24768 0.50888 0.0
H271 H 0.1626 0.21669 0.47229 0.0
C272 C 0.20251 0.90073 0.46076 0.0
C273 C 0.17268 0.93111 0.44718 0.0
C274 C 0.18865 0.87124 0.48462 0.0
C275 C 0.14389 0.87198 0.49496 0.0
C276 C 0.11379 0.90289 0.48167 0.0
C277 C 0.12857 0.93213 0.45809 0.0
C278 C 0.22175 0.83904 0.49855 0.0
C279 C 0.06569 0.90466 0.492 0.0
C280 C 0.08889 0.77128 0.53196 0.0
C281 C 0.08588 0.78418 0.56381 0.0
C282 C 0.1095 0.79872 0.50947 0.0
C283 C 0.12783 0.83985 0.51915 0.0
C284 C 0.12714 0.85185 0.55157 0.0
C285 C 0.10606 0.82389 0.57353 0.0
C286 C 0.10939 0.78482 0.47509 0.0
C287 C 0.14667 0.89527 0.56284 0.0
H288 H 0.23669 0.8998 0.45269 0.0
H289 H 0.1052 0.95552 0.44794 0.0
H290 H 0.22309 0.843 0.52467 0.0
H291 H 0.21104 0.80446 0.49367 0.0
H292 H 0.25571 0.8438 0.48879 0.0
H293 H 0.04673 0.93116 0.47965 0.0
H294 H 0.04938 0.8723 0.48719 0.0
H295 H 0.06359 0.91062 0.51789 0.0
H296 H 0.0734 0.74061 0.52428 0.0
H297 H 0.10407 0.83391 0.59816 0.0
H298 H 0.14326 0.78756 0.46491 0.0
H299 H 0.08748 0.80737 0.46138 0.0
H300 H 0.0974 0.75021 0.47186 0.0
H301 H 0.18082 0.89959 0.55341 0.0
H302 H 0.14781 0.89745 0.5891 0.0
H303 H 0.12634 0.92326 0.55378 0.0
C304 C 0.7703 0.91027 0.4608 0.0
C305 C 0.78365 0.91252 0.42901 0.0
C306 C 0.79739 0.88998 0.48366 0.0
C307 C 0.83862 0.87136 0.47442 0.0
C308 C 0.8508 0.87089 0.44203 0.0
C309 C 0.82312 0.89147 0.4197 0.0
C310 C 0.78319 0.89107 0.51796 0.0
C311 C 0.89435 0.85109 0.43121 0.0
C312 C 0.93152 0.87322 0.53507 0.0
C313 C 0.93126 0.82934 0.54634 0.0
C314 C 0.90163 0.88715 0.51162 0.0
C315 C 0.87082 0.85642 0.4989 0.0
C316 C 0.8707 0.81196 0.50975 0.0
C317 C 0.90085 0.79895 0.5334 0.0
C318 C 0.9028 0.93496 0.50067 0.0
C319 C 0.83856 0.77824 0.49649 0.0
H320 H 0.73979 0.92641 0.46817 0.0
H321 H 0.83346 0.8928 0.39511 0.0
H322 H 0.78663 0.85771 0.52882 0.0
H323 H 0.80512 0.91403 0.53132 0.0
H324 H 0.74827 0.90237 0.52081 0.0
H325 H 0.89654 0.84879 0.40498 0.0
H326 H 0.92224 0.872 0.43979 0.0
H327 H 0.8989 0.81744 0.44138 0.0
H328 H 0.95488 0.89702 0.54476 0.0
H329 H 0.90045 0.76494 0.54179 0.0
H330 H 0.87017 0.95096 0.50516 0.0
H331 H 0.90887 0.93641 0.47476 0.0
H332 H 0.92899 0.95461 0.51283 0.0
H333 H 0.80391 0.78908 0.50107 0.0
H334 H 0.84334 0.74474 0.50696 0.0
H335 H 0.84262 0.77578 0.47042 0.0
C336 C 0.87572 0.06037 0.46649 0.0
C337 C 0.83242 0.06236 0.45413 0.0
C338 C 0.88985 0.09001 0.49001 0.0
C339 C 0.85982 0.12218 0.50183 0.0
C340 C 0.81564 0.12347 0.49036 0.0
C341 C 0.80251 0.09367 0.46651 0.0
C342 C 0.93737 0.08769 0.50156 0.0
C343 C 0.78257 0.15689 0.50281 0.0
C344 C 0.8961 0.17457 0.57932 0.0
C345 C 0.91743 0.21315 0.5686 0.0
C346 C 0.87498 0.14569 0.558 0.0
C347 C 0.8756 0.15554 0.52522 0.0
C348 C 0.89502 0.19564 0.51449 0.0
C349 C 0.91549 0.22412 0.53636 0.0
C350 C 0.85411 0.10352 0.57036 0.0
C351 C 0.89662 0.2072 0.47969 0.0
H352 H 0.89912 0.03623 0.45727 0.0
H353 H 0.7689 0.09527 0.45734 0.0
H354 H 0.95482 0.1192 0.49595 0.0
H355 H 0.93815 0.08361 0.52766 0.0
H356 H 0.95612 0.05982 0.49063 0.0
H357 H 0.74873 0.15162 0.49298 0.0
H358 H 0.78079 0.15502 0.52903 0.0
H359 H 0.7936 0.19096 0.49663 0.0
H360 H 0.8973 0.16607 0.60426 0.0
H361 H 0.93193 0.25388 0.52792 0.0
H362 H 0.8744 0.07457 0.56291 0.0
H363 H 0.82038 0.09901 0.56025 0.0
H364 H 0.85163 0.10336 0.59663 0.0
H365 H 0.91846 0.18327 0.46713 0.0
H366 H 0.9095 0.24127 0.47551 0.0
H367 H 0.86304 0.20452 0.46903 0.0
C368 C 0.77779 0.08962 0.95602 0.0
C369 C 0.78769 0.08738 0.92361 0.0
C370 C 0.8063 0.11153 0.97713 0.0
C371 C 0.84524 0.13225 0.96543 0.0
C372 C 0.85378 0.13271 0.93246 0.0
C373 C 0.82501 0.10995 0.91192 0.0
C374 C 0.79624 0.10993 0.01217 0.0
C375 C 0.89455 0.15508 0.91906 0.0
C376 C 0.90625 0.2063 0.02396 0.0
C377 C 0.9383 0.17693 0.036 0.0
C378 C 0.87676 0.19289 -2e-05 0.0
C379 C 0.87913 0.149 0.98807 0.0
C380 C 0.91244 0.11978 -0.00075 0.0
C381 C 0.94175 0.13419 0.02288 0.0
C382 C 0.84219 0.22517 0.98813 0.0
C383 C 0.91604 0.0726 0.98721 0.0
H384 H 0.74902 0.07219 0.9652 0.0
H385 H 0.83262 0.10853 0.88684 0.0
H386 H 0.82148 0.08914 0.0243 0.0
H387 H 0.7981 0.14367 0.02262 0.0
H388 H 0.76283 0.09585 0.01715 0.0
H389 H 0.89309 0.15792 0.89284 0.0
H390 H 0.89861 0.18877 0.92932 0.0
H391 H 0.92454 0.13561 0.92544 0.0
H392 H 0.90355 0.2395 0.0337 0.0
H393 H 0.96657 0.11126 0.03174 0.0
H394 H 0.80867 0.21389 0.99555 0.0
H395 H 0.84243 0.2263 0.96185 0.0
H396 H 0.84762 0.25928 0.99739 0.0
H397 H 0.88545 0.05392 0.99343 0.0
H398 H 0.9451 0.05478 0.99731 0.0
H399 H 0.91894 0.07233 0.96102 0.0
C400 C 0.2025 0.10211 0.96395 0.0
C401 C 0.17175 0.07288 0.9501 0.0
C402 C 0.18942 0.13213 0.9877 0.0
C403 C 0.14451 0.13312 0.99767 0.0
C404 C 0.11342 0.10345 0.98405 0.0
C405 C 0.12743 0.07363 0.96058 0.0
C406 C 0.22353 0.16299 0.00197 0.0
C407 C 0.06512 0.10355 0.99399 0.0
C408 C 0.10657 0.18111 0.07618 0.0
C409 C 0.0872 0.22123 0.06652 0.0
C410 C 0.12771 0.15311 0.05428 0.0
C411 C 0.12938 0.16556 0.02197 0.0
C412 C 0.11245 0.20736 0.01247 0.0
C413 C 0.09169 0.2348 0.03491 0.0
C414 C 0.14574 0.109 0.06539 0.0
C415 C 0.11356 0.22183 0.97823 0.0
H416 H 0.23684 0.10169 0.9562 0.0
H417 H 0.10334 0.0512 0.95017 0.0
H418 H 0.21412 0.19798 0.99725 0.0
H419 H 0.22449 0.15871 0.02806 0.0
H420 H 0.25739 0.15712 0.99233 0.0
H421 H 0.04522 0.07813 0.98122 0.0
H422 H 0.06237 0.09719 0.0198 0.0
H423 H 0.05025 0.13666 0.98942 0.0
H424 H 0.10348 0.17059 0.10064 0.0
H425 H 0.07686 0.26579 0.02727 0.0
H426 H 0.17969 0.10347 0.05591 0.0
H427 H 0.12437 0.0818 0.0563 0.0
H428 H 0.14686 0.10668 0.09164 0.0
H429 H 0.14736 0.2175 0.96821 0.0
H430 H 0.10342 0.25706 0.97527 0.0
H431 H 0.09064 0.2007 0.96418 0.0
C432 C 0.06836 0.87776 0.03833 0.0
C433 C 0.06885 0.8336 0.04903 0.0
C434 C 0.09755 0.89223 0.0146 0.0
C435 C 0.12783 0.86175 0.00097 0.0
C436 C 0.12794 0.81693 0.01107 0.0
C437 C 0.09854 0.8034 0.03507 0.0
C438 C 0.09647 0.94039 0.00451 0.0
C439 C 0.15944 0.78344 0.99675 0.0
C440 C 0.17609 0.89922 0.92238 0.0
C441 C 0.21623 0.91861 0.93204 0.0
C442 C 0.14784 0.87857 0.94436 0.0
C443 C 0.16005 0.87746 0.97674 0.0
C444 C 0.20161 0.89492 0.98633 0.0
C445 C 0.2293 0.91516 0.96382 0.0
C446 C 0.10395 0.85997 0.9332 0.0
C447 C 0.21576 0.89449 0.02065 0.0
H448 H 0.04549 0.90141 0.04878 0.0
H449 H 0.09903 0.76916 0.04297 0.0
H450 H 0.12915 0.95613 0.00926 0.0
H451 H 0.09035 0.94282 0.97866 0.0
H452 H 0.07035 0.95965 0.01708 0.0
H453 H 0.15411 0.74948 0.00629 0.0
H454 H 0.15527 0.78251 0.97064 0.0
H455 H 0.19428 0.79343 0.00157 0.0
H456 H 0.16594 0.90156 0.8978 0.0
H457 H 0.26032 0.93002 0.97144 0.0
H458 H 0.07639 0.88073 0.94248 0.0
H459 H 0.09905 0.82586 0.94248 0.0
H460 H 0.10154 0.8591 0.90694 0.0
H461 H 0.19365 0.91662 0.03458 0.0
H462 H 0.25061 0.90587 0.0238 0.0
H463 H 0.21253 0.8606 0.03066 0.0
C464 C 0.80455 0.90571 0.96251 0.0
C465 C 0.8345 0.93574 0.94866 0.0
C466 C 0.81801 0.87714 0.98701 0.0
C467 C 0.86253 0.87843 0.99779 0.0
C468 C 0.89268 0.90929 0.98443 0.0
C469 C 0.87828 0.93765 0.96016 0.0
C470 C 0.78482 0.845 0.00095 0.0
C471 C 0.94053 0.91164 0.99523 0.0
C472 C 0.89785 0.82916 0.07671 0.0
C473 C 0.91755 0.78916 0.06708 0.0
C474 C 0.87812 0.85783 0.05456 0.0
C475 C 0.87837 0.84628 0.02204 0.0
C476 C 0.89647 0.80503 0.0124 0.0
C477 C 0.91564 0.77687 0.03506 0.0
C478 C 0.85875 0.90133 0.06579 0.0
C479 C 0.89759 0.79158 0.97794 0.0
H480 H 0.7706 0.90412 0.95403 0.0
H481 H 0.90171 0.96085 0.94984 0.0
H482 H 0.79537 0.81042 0.99588 0.0
H483 H 0.78359 0.84875 0.02709 0.0
H484 H 0.75084 0.84995 0.99129 0.0
H485 H 0.9593 0.93864 0.98328 0.0
H486 H 0.94209 0.91712 0.0212 0.0
H487 H 0.9574 0.87961 0.99026 0.0
H488 H 0.89909 0.83877 0.10144 0.0
H489 H 0.93085 0.74604 0.02742 0.0
H490 H 0.82474 0.90586 0.05617 0.0
H491 H 0.87933 0.92923 0.05688 0.0
H492 H 0.85727 0.90344 0.09205 0.0
H493 H 0.86388 0.79391 0.96745 0.0
H494 H 0.91018 0.75722 0.97458 0.0
H495 H 0.9194 0.81466 0.96457 0.0
C496 C 0.11816 0.19947 0.69042 0.0
C497 C 0.07237 0.19636 0.69616 0.0
C498 C 0.14894 0.18052 0.71155 0.0
C499 C 0.13335 0.15885 0.73919 0.0
C500 C 0.08736 0.1597 0.74648 0.0
C501 C 0.0574 0.17787 0.72464 0.0
C502 C 0.19754 0.18017 0.70278 0.0
C503 C 0.06932 0.13813 0.77611 0.0
C504 C 0.18256 0.05397 0.77322 0.0
C505 C 0.20101 0.06947 0.80156 0.0
C506 C 0.16426 0.08349 0.75113 0.0
C507 C 0.16318 0.12954 0.75806 0.0
C508 C 0.1849 0.14566 0.78553 0.0
C509 C 0.20403 0.11533 0.80689 0.0
C510 C 0.14265 0.0649 0.72168 0.0
C511 C 0.18432 0.19436 0.79392 0.0
H512 H 0.12972 0.21334 0.66818 0.0
H513 H 0.02196 0.17559 0.72907 0.0
H514 H 0.21875 0.18607 0.72385 0.0
H515 H 0.20635 0.14704 0.69311 0.0
H516 H 0.20536 0.20557 0.68453 0.0
H517 H 0.03402 0.1471 0.78047 0.0
H518 H 0.07157 0.10148 0.7738 0.0
H519 H 0.08927 0.14798 0.79707 0.0
H520 H 0.18033 0.01848 0.76912 0.0
H521 H 0.21785 0.1273 0.82903 0.0
H522 H 0.15211 0.08471 0.70058 0.0
H523 H 0.10598 0.06674 0.72414 0.0
H524 H 0.15202 0.02969 0.7175 0.0
H525 H 0.19001 0.21525 0.77267 0.0
H526 H 0.20978 0.20258 0.81205 0.0
H527 H 0.15116 0.20312 0.8036 0.0
C528 C 0.05578 0.82313 0.22537 0.0
C529 C 0.06992 0.80384 0.19693 0.0
C530 C 0.0864 0.84167 0.24663 0.0
C531 C 0.13221 0.84212 0.23876 0.0
C532 C 0.14698 0.81965 0.2112 0.0
C533 C 0.11556 0.80033 0.19069 0.0
C534 C 0.06923 0.86407 0.27622 0.0
C535 C 0.19535 0.81953 0.2018 0.0
C536 C 0.18316 0.94758 0.2708 0.0
C537 C 0.20234 0.93271 0.29907 0.0
C538 C 0.16395 0.91762 0.24938 0.0
C539 C 0.16271 0.87176 0.2569 0.0
C540 C 0.18516 0.85621 0.28423 0.0
C541 C 0.20515 0.88697 0.30492 0.0
C542 C 0.14161 0.9356 0.22003 0.0
C543 C 0.18449 0.80775 0.29325 0.0
H544 H 0.02047 0.82581 0.23019 0.0
H545 H 0.1265 0.7859 0.16847 0.0
H546 H 0.08968 0.85468 0.29702 0.0
H547 H 0.07156 0.90064 0.27342 0.0
H548 H 0.03401 0.85536 0.28114 0.0
H549 H 0.20257 0.79364 0.18375 0.0
H550 H 0.20407 0.85237 0.19162 0.0
H551 H 0.21706 0.81405 0.22266 0.0
H552 H 0.18102 0.98298 0.26629 0.0
H553 H 0.21949 0.87546 0.32701 0.0
H554 H 0.105 0.93403 0.22304 0.0
H555 H 0.15035 0.91522 0.19903 0.0
H556 H 0.15104 0.97065 0.21529 0.0
H557 H 0.15157 0.79948 0.30355 0.0
H558 H 0.21045 0.79982 0.31109 0.0
H559 H 0.18939 0.78627 0.27219 0.0
C560 C 0.95044 0.82063 0.72254 0.0
C561 C 0.93522 0.80031 0.69477 0.0
C562 C 0.92056 0.83858 0.74457 0.0
C563 C 0.87433 0.83726 0.7382 0.0
C564 C 0.85864 0.81366 0.7114 0.0
C565 C 0.88939 0.79504 0.69006 0.0
C566 C 0.93879 0.86229 0.77331 0.0
C567 C 0.80975 0.81158 0.70364 0.0
C568 C 0.80435 0.88182 0.80604 0.0
C569 C 0.80529 0.9274 0.79937 0.0
C570 C 0.82394 0.85106 0.78517 0.0
C571 C 0.84406 0.86644 0.75687 0.0
C572 C 0.84091 0.91198 0.7487 0.0
C573 C 0.82217 0.94199 0.77029 0.0
C574 C 0.82673 0.80293 0.79488 0.0
C575 C 0.86075 0.92973 0.71837 0.0
H576 H 0.9859 0.82455 0.72622 0.0
H577 H 0.87758 0.7797 0.6684 0.0
H578 H 0.93503 0.89868 0.77016 0.0
H579 H 0.91999 0.85274 0.79487 0.0
H580 H 0.97455 0.85489 0.77718 0.0
H581 H 0.80233 0.78496 0.6862 0.0
H582 H 0.78962 0.80589 0.72528 0.0
H583 H 0.7992 0.8438 0.69335 0.0
H584 H 0.79176 0.8706 0.82875 0.0
H585 H 0.82283 0.97728 0.76518 0.0
H586 H 0.86049 0.79603 0.80424 0.0
H587 H 0.82127 0.78065 0.77431 0.0
H588 H 0.80215 0.79474 0.81364 0.0
H589 H 0.89755 0.92932 0.72014 0.0
H590 H 0.84997 0.96433 0.71345 0.0
H591 H 0.85126 0.90847 0.69799 0.0
C592 C 0.86439 0.07975 0.29962 0.0
C593 C 0.81936 0.0735 0.30721 0.0
C594 C 0.8776 0.10861 0.27549 0.0
C595 C 0.84507 0.13224 0.25815 0.0
C596 C 0.79961 0.12801 0.26658 0.0
C597 C 0.78721 0.0986 0.29109 0.0
C598 C 0.92654 0.11204 0.26761 0.0
C599 C 0.76394 0.15299 0.24893 0.0
C600 C 0.9042 0.21588 0.20606 0.0
C601 C 0.9134 0.18913 0.17972 0.0
C602 C 0.87727 0.19976 0.23088 0.0
C603 C 0.85938 0.1562 0.22898 0.0
C604 C 0.86462 0.13148 0.20071 0.0
C605 C 0.89175 0.14815 0.17657 0.0
C606 C 0.87149 0.22759 0.26029 0.0
C607 C 0.84576 0.08524 0.19728 0.0
H608 H 0.88977 0.0615 0.31236 0.0
H609 H 0.7524 0.09446 0.29701 0.0
H610 H 0.93268 0.09827 0.24361 0.0
H611 H 0.93716 0.1473 0.26738 0.0
H612 H 0.94774 0.09374 0.28474 0.0
H613 H 0.73269 0.15503 0.26288 0.0
H614 H 0.77506 0.1871 0.24293 0.0
H615 H 0.75657 0.13552 0.22639 0.0
H616 H 0.92057 0.24779 0.20836 0.0
H617 H 0.89808 0.12786 0.15581 0.0
H618 H 0.8952 0.21619 0.27869 0.0
H619 H 0.83743 0.22395 0.27004 0.0
H620 H 0.87802 0.26328 0.25551 0.0
H621 H 0.86538 0.06187 0.21204 0.0
H622 H 0.84682 0.07344 0.17235 0.0
H623 H 0.81088 0.08407 0.2057 0.0
loop_
_geom_bond_atom_site_label_1
_geom_bond_atom_site_label_2
_geom_bond_distance
_geom_bond_site_symmetry_2
_ccdc_geom_bond_type
Co0 O1 2.216 . S
Co0 O2 2.091 . S
Co0 O4 2.004 . S
Co0 O10 2.021 . S
Co0 O12 2.137 . S
Co0 O13 2.244 . S
O1 Co0 2.216 . S
O1 C8 1.247 . S
O2 Co0 2.091 . S
O2 C8 1.261 . S
C3 O12 1.247 . S
C3 O13 1.272 . S
O4 Co0 2.004 . S
O4 C9 1.259 . S
Co5 O6 2.061 . S
Co5 O11 2.052 . S
Co5 O13 2.135 . S
O6 Co5 2.061 . S
O6 C9 1.235 . S
C7 O10 1.238 . S
C7 O11 1.241 . S
C8 O1 1.247 . S
C8 O2 1.261 . S
C9 O4 1.259 . S
C9 O6 1.235 . S
O10 Co0 2.021 . S
O10 C7 1.238 . S
O11 Co5 2.052 . S
O11 C7 1.241 . S
O12 Co0 2.137 . S
O12 C3 1.247 . S
O13 Co0 2.244 . S
O13 C3 1.272 . S
O13 Co5 2.135 . S
Co14 O15 2.216 . S
Co14 O16 2.091 . S
Co14 O18 2.004 . S
Co14 O24 2.021 . S
Co14 O26 2.137 . S
Co14 O27 2.244 . S
O15 Co14 2.216 . S
O15 C22 1.247 . S
O16 Co14 2.091 . S
O16 C22 1.261 . S
C17 O26 1.247 . S
C17 O27 1.272 . S
O18 Co14 2.004 . S
O18 C23 1.259 . S
Co19 O20 2.061 . S
Co19 O25 2.052 . S
Co19 O27 2.135 . S
O20 Co19 2.061 . S
O20 C23 1.235 . S
C21 O24 1.238 . S
C21 O25 1.241 . S
C22 O15 1.247 . S
C22 O16 1.261 . S
C23 O18 1.259 . S
C23 O20 1.235 . S
O24 Co14 2.021 . S
O24 C21 1.238 . S
O25 Co19 2.052 . S
O25 C21 1.241 . S
O26 Co14 2.137 . S
O26 C17 1.247 . S
O27 Co14 2.244 . S
O27 C17 1.272 . S
O27 Co19 2.135 . S
Co28 O29 2.216 . S
Co28 O30 2.091 . S
Co28 O32 2.004 . S
Co28 O38 2.021 . S
Co28 O40 2.137 . S
Co28 O41 2.244 . S
O29 Co28 2.216 . S
O29 C36 1.247 . S
O30 Co28 2.091 . S
O30 C36 1.261 . S
C31 O40 1.247 . S
C31 O41 1.272 . S
O32 Co28 2.004 . S
O32 C37 1.259 . S
Co33 O34 2.061 . S
Co33 O39 2.052 . S
Co33 O41 2.135 . S
O34 Co33 2.061 . S
O34 C37 1.235 . S
C35 O38 1.238 . S
C35 O39 1.241 . S
C36 O29 1.247 . S
C36 O30 1.261 . S
C37 O32 1.259 . S
C37 O34 1.235 . S
O38 Co28 2.021 . S
O38 C35 1.238 . S
O39 Co33 2.052 . S
O39 C35 1.241 . S
O40 Co28 2.137 . S
O40 C31 1.247 . S
O41 Co28 2.244 . S
O41 C31 1.272 . S
O41 Co33 2.135 . S
Co42 O43 2.216 . S
Co42 O44 2.091 . S
Co42 O46 2.004 . S
Co42 O52 2.021 . S
Co42 O54 2.137 . S
Co42 O55 2.244 . S
O43 Co42 2.216 . S
O43 C50 1.247 . S
O44 Co42 2.091 . S
O44 C50 1.261 . S
C45 O54 1.247 . S
C45 O55 1.272 . S
O46 Co42 2.004 . S
O46 C51 1.259 . S
Co47 O48 2.061 . S
Co47 O53 2.052 . S
Co47 O55 2.135 . S
O48 Co47 2.061 . S
O48 C51 1.235 . S
C49 O52 1.238 . S
C49 O53 1.241 . S
C50 O43 1.247 . S
C50 O44 1.261 . S
C51 O46 1.259 . S
C51 O48 1.235 . S
O52 Co42 2.021 . S
O52 C49 1.238 . S
O53 Co47 2.052 . S
O53 C49 1.241 . S
O54 Co42 2.137 . S
O54 C45 1.247 . S
O55 Co42 2.244 . S
O55 C45 1.272 . S
O55 Co47 2.135 . S
Co56 O57 2.216 . S
Co56 O58 2.091 . S
Co56 O60 2.004 . S
Co56 O66 2.021 . S
Co56 O68 2.137 . S
Co56 O69 2.244 . S
O57 Co56 2.216 . S
O57 C64 1.247 . S
O58 Co56 2.091 . S
O58 C64 1.261 . S
C59 O68 1.247 . S
C59 O69 1.272 . S
O60 Co56 2.004 . S
O60 C65 1.259 . S
Co61 O62 2.061 . S
Co61 O67 2.052 . S
Co61 O69 2.135 . S
O62 Co61 2.061 . S
O62 C65 1.235 . S
C63 O66 1.238 . S
C63 O67 1.241 . S
C64 O57 1.247 . S
C64 O58 1.261 . S
C65 O60 1.259 . S
C65 O62 1.235 . S
O66 Co56 2.021 . S
O66 C63 1.238 . S
O67 Co61 2.052 . S
O67 C63 1.241 . S
O68 Co56 2.137 . S
O68 C59 1.247 . S
O69 Co56 2.244 . S
O69 C59 1.272 . S
O69 Co61 2.135 . S
Co70 O71 2.216 . S
Co70 O72 2.091 . S
Co70 O74 2.004 . S
Co70 O80 2.021 . S
Co70 O82 2.137 . S
Co70 O83 2.244 . S
O71 Co70 2.216 . S
O71 C78 1.247 . S
O72 Co70 2.091 . S
O72 C78 1.261 . S
C73 O82 1.247 . S
C73 O83 1.272 . S
O74 Co70 2.004 . S
O74 C79 1.259 . S
Co75 O76 2.061 . S
Co75 O81 2.052 . S
Co75 O83 2.135 . S
O76 Co75 2.061 . S
O76 C79 1.235 . S
C77 O80 1.238 . S
C77 O81 1.241 . S
C78 O71 1.247 . S
C78 O72 1.261 . S
C79 O74 1.259 . S
C79 O76 1.235 . S
O80 Co70 2.021 . S
O80 C77 1.238 . S
O81 Co75 2.052 . S
O81 C77 1.241 . S
O82 Co70 2.137 . S
O82 C73 1.247 . S
O83 Co70 2.244 . S
O83 C73 1.272 . S
O83 Co75 2.135 . S
Co84 O85 2.216 . S
Co84 O86 2.091 . S
Co84 O88 2.004 . S
Co84 O94 2.021 . S
Co84 O96 2.137 . S
Co84 O97 2.244 . S
O85 Co84 2.216 . S
O85 C92 1.247 . S
O86 Co84 2.091 . S
O86 C92 1.261 . S
C87 O96 1.247 . S
C87 O97 1.272 . S
O88 Co84 2.004 . S
O88 C93 1.259 . S
Co89 O90 2.061 . S
Co89 O95 2.052 . S
Co89 O97 2.135 . S
O90 Co89 2.061 . S
O90 C93 1.235 . S
C91 O94 1.238 . S
C91 O95 1.241 . S
C92 O85 1.247 . S
C92 O86 1.261 . S
C93 O88 1.259 . S
C93 O90 1.235 . S
O94 Co84 2.021 . S
O94 C91 1.238 . S
O95 Co89 2.052 . S
O95 C91 1.241 . S
O96 Co84 2.137 . S
O96 C87 1.247 . S
O97 Co84 2.244 . S
O97 C87 1.272 . S
O97 Co89 2.135 . S
Co98 O99 2.216 . S
Co98 O100 2.091 . S
Co98 O102 2.004 . S
Co98 O108 2.021 . S
Co98 O110 2.137 . S
Co98 O111 2.244 . S
O99 Co98 2.216 . S
O99 C106 1.247 . S
O100 Co98 2.091 . S
O100 C106 1.261 . S
C101 O110 1.247 . S
C101 O111 1.272 . S
O102 Co98 2.004 . S
O102 C107 1.259 . S
Co103 O104 2.061 . S
Co103 O109 2.052 . S
Co103 O111 2.135 . S
O104 Co103 2.061 . S
O104 C107 1.235 . S
C105 O108 1.238 . S
C105 O109 1.241 . S
C106 O99 1.247 . S
C106 O100 1.261 . S
C107 O102 1.259 . S
C107 O104 1.235 . S
O108 Co98 2.021 . S
O108 C105 1.238 . S
O109 Co103 2.052 . S
O109 C105 1.241 . S
O110 Co98 2.137 . S
O110 C101 1.247 . S
O111 Co98 2.244 . S
O111 C101 1.272 . S
O111 Co103 2.135 . S
C112 C113 1.391 . S
C112 C114 1.394 . S
C112 H128 0.931 . S
C113 C112 1.391 . S
C113 C117 1.376 . S
C114 C112 1.394 . S
C114 C115 1.369 . S
C114 C118 1.531 . S
C115 C114 1.369 . S
C115 C116 1.410 . S
C115 C123 1.503 1_655 S
C116 C115 1.410 . S
C116 C117 1.392 . S
C116 C119 1.511 1_655 S
C117 C113 1.376 . S
C117 C116 1.392 . S
C117 H129 0.929 . S
C118 C114 1.531 . S
C118 H130 0.960 . S
C118 H131 0.962 . S
C118 H132 0.960 . S
C119 C116 1.511 1_455 S
C119 H133 0.961 . S
C119 H134 0.961 . S
C119 H135 0.961 . S
C120 C121 1.370 . S
C120 C122 1.363 . S
C120 H136 0.931 . S
C121 C120 1.370 . S
C121 C125 1.408 . S
C122 C120 1.363 . S
C122 C123 1.370 . S
C122 C126 1.524 1_455 S
C123 C115 1.503 1_455 S
C123 C122 1.370 . S
C123 C124 1.403 . S
C124 C123 1.403 . S
C124 C125 1.404 . S
C124 C127 1.539 . S
C125 C121 1.408 . S
C125 C124 1.404 . S
C125 H137 0.930 . S
C126 C122 1.524 1_655 S
C126 H138 0.956 . S
C126 H139 0.961 . S
C126 H140 0.961 . S
C127 C124 1.539 . S
C127 H141 0.958 . S
C127 H142 0.961 . S
C127 H143 0.960 . S
H128 C112 0.931 . S
H129 C117 0.929 . S
H130 C118 0.960 . S
H131 C118 0.962 . S
H132 C118 0.960 . S
H133 C119 0.961 . S
H134 C119 0.961 . S
H135 C119 0.961 . S
H136 C120 0.931 . S
H137 C125 0.930 . S
H138 C126 0.956 . S
H139 C126 0.961 . S
H140 C126 0.961 . S
H141 C127 0.958 . S
H142 C127 0.961 . S
H143 C127 0.960 . S
C144 C145 1.391 . S
C144 C146 1.394 . S
C144 H160 0.931 . S
C145 C144 1.391 . S
C145 C149 1.376 . S
C146 C144 1.394 . S
C146 C147 1.369 . S
C146 C150 1.531 1_545 S
C147 C146 1.369 . S
C147 C148 1.410 . S
C147 C155 1.503 1_545 S
C148 C147 1.410 . S
C148 C149 1.392 . S
C148 C151 1.511 . S
C149 C145 1.376 . S
C149 C148 1.392 . S
C149 H161 0.929 . S
C150 C146 1.531 1_565 S
C150 H162 0.960 . S
C150 H163 0.962 . S
C150 H164 0.960 . S
C151 C148 1.511 . S
C151 H165 0.961 . S
C151 H166 0.961 . S
C151 H167 0.961 . S
C152 C153 1.370 . S
C152 C154 1.363 . S
C152 H168 0.931 . S
C153 C152 1.370 . S
C153 C157 1.408 . S
C154 C152 1.363 . S
C154 C155 1.370 . S
C154 C158 1.524 . S
C155 C147 1.503 1_565 S
C155 C154 1.370 . S
C155 C156 1.403 . S
C156 C155 1.403 . S
C156 C157 1.404 . S
C156 C159 1.539 1_565 S
C157 C153 1.408 . S
C157 C156 1.404 . S
C157 H169 0.930 . S
C158 C154 1.524 . S
C158 H170 0.956 . S
C158 H171 0.961 . S
C158 H172 0.961 . S
C159 C156 1.539 1_545 S
C159 H173 0.958 . S
C159 H174 0.961 . S
C159 H175 0.960 . S
H160 C144 0.931 . S
H161 C149 0.929 . S
H162 C150 0.960 . S
H163 C150 0.962 . S
H164 C150 0.960 . S
H165 C151 0.961 . S
H166 C151 0.961 . S
H167 C151 0.961 . S
H168 C152 0.931 . S
H169 C157 0.930 . S
H170 C158 0.956 . S
H171 C158 0.961 . S
H172 C158 0.961 . S
H173 C159 0.958 . S
H174 C159 0.961 . S
H175 C159 0.960 . S
C176 C177 1.391 . S
C176 C178 1.394 . S
C176 H192 0.931 . S
C177 C176 1.391 . S
C177 C181 1.376 . S
C178 C176 1.394 . S
C178 C179 1.369 . S
C178 C182 1.531 1_655 S
C179 C178 1.369 . S
C179 C180 1.410 . S
C179 C187 1.503 1_655 S
C180 C179 1.410 . S
C180 C181 1.392 . S
C180 C183 1.511 . S
C181 C177 1.376 . S
C181 C180 1.392 . S
C181 H193 0.929 . S
C182 C178 1.531 1_455 S
C182 H194 0.960 . S
C182 H195 0.971 . S
C182 H196 0.960 . S
C183 C180 1.511 . S
C183 H197 0.961 . S
C183 H198 0.961 . S
C183 H199 0.961 . S
C184 C185 1.370 . S
C184 C186 1.364 . S
C184 H200 0.931 . S
C185 C184 1.370 . S
C185 C189 1.408 . S
C186 C184 1.364 . S
C186 C187 1.371 . S
C186 C190 1.523 1_455 S
C187 C179 1.503 1_455 S
C187 C186 1.371 . S
C187 C188 1.403 . S
C188 C187 1.403 . S
C188 C189 1.404 . S
C188 C191 1.539 . S
C189 C185 1.408 . S
C189 C188 1.404 . S
C189 H201 0.930 . S
C190 C186 1.523 1_655 S
C190 H202 0.956 . S
C190 H203 0.961 . S
C190 H204 0.961 . S
C191 C188 1.539 . S
C191 H205 0.958 . S
C191 H206 0.961 . S
C191 H207 0.960 . S
H192 C176 0.931 . S
H193 C181 0.929 . S
H194 C182 0.960 . S
H195 C182 0.971 . S
H196 C182 0.960 . S
H197 C183 0.961 . S
H198 C183 0.961 . S
H199 C183 0.961 . S
H200 C184 0.931 . S
H201 C189 0.930 . S
H202 C190 0.956 . S
H203 C190 0.961 . S
H204 C190 0.961 . S
H205 C191 0.958 . S
H206 C191 0.961 . S
H207 C191 0.960 . S
C208 C209 1.391 . S
C208 C210 1.395 1_545 S
C208 H224 0.931 . S
C209 C208 1.391 . S
C209 C213 1.376 . S
C210 C208 1.395 1_565 S
C210 C211 1.370 1_565 S
C210 C214 1.529 . S
C211 C210 1.370 1_545 S
C211 C212 1.410 . S
C211 C219 1.503 1_545 S
C212 C211 1.410 . S
C212 C213 1.392 . S
C212 C215 1.511 . S
C213 C209 1.376 . S
C213 C212 1.392 . S
C213 H225 0.929 . S
C214 C210 1.529 . S
C214 H226 0.960 . S
C214 H227 0.962 . S
C214 H228 0.960 . S
C215 C212 1.511 . S
C215 H229 0.961 . S
C215 H230 0.961 . S
C215 H231 0.961 . S
C216 C217 1.370 . S
C216 C218 1.363 . S
C216 H232 0.931 . S
C217 C216 1.370 . S
C217 C221 1.408 . S
C218 C216 1.363 . S
C218 C219 1.370 . S
C218 C222 1.524 . S
C219 C211 1.503 1_565 S
C219 C218 1.370 . S
C219 C220 1.403 . S
C220 C219 1.403 . S
C220 C221 1.404 . S
C220 C223 1.539 1_565 S
C221 C217 1.408 . S
C221 C220 1.404 . S
C221 H233 0.930 . S
C222 C218 1.524 . S
C222 H234 0.956 . S
C222 H235 0.961 . S
C222 H236 0.961 . S
C223 C220 1.539 1_545 S
C223 H237 0.958 1_545 S
C223 H238 0.961 . S
C223 H239 0.960 . S
H224 C208 0.931 . S
H225 C213 0.929 . S
H226 C214 0.960 . S
H227 C214 0.962 . S
H228 C214 0.960 . S
H229 C215 0.961 . S
H230 C215 0.961 . S
H231 C215 0.961 . S
H232 C216 0.931 . S
H233 C221 0.930 . S
H234 C222 0.956 . S
H235 C222 0.961 . S
H236 C222 0.961 . S
H237 C223 0.958 1_565 S
H238 C223 0.961 . S
H239 C223 0.960 . S
C240 C241 1.391 1_565 S
C240 C242 1.394 1_565 S
C240 H256 0.931 . S
C241 C240 1.391 1_545 S
C241 C245 1.376 . S
C242 C240 1.394 1_545 S
C242 C243 1.369 . S
C242 C246 1.531 . S
C243 C242 1.369 . S
C243 C244 1.410 . S
C243 C251 1.503 . S
C244 C243 1.410 . S
C244 C245 1.392 . S
C244 C247 1.511 . S
C245 C241 1.376 . S
C245 C244 1.392 . S
C245 H257 0.929 . S
C246 C242 1.531 . S
C246 H258 0.960 . S
C246 H259 0.962 . S
C246 H260 0.960 1_545 S
C247 C244 1.511 . S
C247 H261 0.961 . S
C247 H262 0.961 . S
C247 H263 0.961 . S
C248 C249 1.370 . S
C248 C250 1.363 . S
C248 H264 0.931 . S
C249 C248 1.370 . S
C249 C253 1.408 . S
C250 C248 1.363 . S
C250 C251 1.370 . S
C250 C254 1.524 . S
C251 C243 1.503 . S
C251 C250 1.370 . S
C251 C252 1.403 . S
C252 C251 1.403 . S
C252 C253 1.404 . S
C252 C255 1.539 . S
C253 C249 1.408 . S
C253 C252 1.404 . S
C253 H265 0.930 . S
C254 C250 1.524 . S
C254 H266 0.956 . S
C254 H267 0.961 . S
C254 H268 0.961 . S
C255 C252 1.539 . S
C255 H269 0.958 . S
C255 H270 0.961 . S
C255 H271 0.960 . S
H256 C240 0.931 . S
H257 C245 0.929 . S
H258 C246 0.960 . S
H259 C246 0.962 . S
H260 C246 0.960 1_565 S
H261 C247 0.961 . S
H262 C247 0.961 . S
H263 C247 0.961 . S
H264 C248 0.931 . S
H265 C253 0.930 . S
H266 C254 0.956 . S
H267 C254 0.961 . S
H268 C254 0.961 . S
H269 C255 0.958 . S
H270 C255 0.961 . S
H271 C255 0.960 . S
C272 C273 1.391 . S
C272 C274 1.394 . S
C272 H288 0.931 . S
C273 C272 1.391 . S
C273 C277 1.376 . S
C274 C272 1.394 . S
C274 C275 1.369 . S
C274 C278 1.531 . S
C275 C274 1.369 . S
C275 C276 1.410 . S
C275 C283 1.503 . S
C276 C275 1.410 . S
C276 C277 1.392 . S
C276 C279 1.511 . S
C277 C273 1.376 . S
C277 C276 1.392 . S
C277 H289 0.929 . S
C278 C274 1.531 . S
C278 H290 0.960 . S
C278 H291 0.962 . S
C278 H292 0.960 . S
C279 C276 1.511 . S
C279 H293 0.961 . S
C279 H294 0.961 . S
C279 H295 0.961 . S
C280 C281 1.370 . S
C280 C282 1.363 . S
C280 H296 0.931 . S
C281 C280 1.370 . S
C281 C285 1.408 . S
C282 C280 1.363 . S
C282 C283 1.370 . S
C282 C286 1.524 . S
C283 C275 1.503 . S
C283 C282 1.370 . S
C283 C284 1.403 . S
C284 C283 1.403 . S
C284 C285 1.404 . S
C284 C287 1.539 . S
C285 C281 1.408 . S
C285 C284 1.404 . S
C285 H297 0.930 . S
C286 C282 1.524 . S
C286 H298 0.956 . S
C286 H299 0.961 . S
C286 H300 0.961 . S
C287 C284 1.539 . S
C287 H301 0.958 . S
C287 H302 0.961 . S
C287 H303 0.960 . S
H288 C272 0.931 . S
H289 C277 0.929 . S
H290 C278 0.960 . S
H291 C278 0.962 . S
H292 C278 0.960 . S
H293 C279 0.961 . S
H294 C279 0.961 . S
H295 C279 0.961 . S
H296 C280 0.931 . S
H297 C285 0.930 . S
H298 C286 0.956 . S
H299 C286 0.961 . S
H300 C286 0.961 . S
H301 C287 0.958 . S
H302 C287 0.961 . S
H303 C287 0.960 . S
C304 C305 1.391 . S
C304 C306 1.394 . S
C304 H320 0.931 . S
C305 C304 1.391 . S
C305 C309 1.376 . S
C306 C304 1.394 . S
C306 C307 1.369 . S
C306 C310 1.531 . S
C307 C306 1.369 . S
C307 C308 1.410 . S
C307 C315 1.503 . S
C308 C307 1.410 . S
C308 C309 1.392 . S
C308 C311 1.511 . S
C309 C305 1.376 . S
C309 C308 1.392 . S
C309 H321 0.929 1_565 S
C310 C306 1.531 . S
C310 H322 0.960 . S
C310 H323 0.962 . S
C310 H324 0.960 . S
C311 C308 1.511 . S
C311 H325 0.961 . S
C311 H326 0.961 . S
C311 H327 0.961 . S
C312 C313 1.370 . S
C312 C314 1.363 . S
C312 H328 0.931 . S
C313 C312 1.370 . S
C313 C317 1.408 . S
C314 C312 1.363 . S
C314 C315 1.370 . S
C314 C318 1.524 . S
C315 C307 1.503 . S
C315 C314 1.370 . S
C315 C316 1.403 . S
C316 C315 1.403 . S
C316 C317 1.404 . S
C316 C319 1.539 . S
C317 C313 1.408 . S
C317 C316 1.404 . S
C317 H329 0.930 . S
C318 C314 1.524 . S
C318 H330 0.956 . S
C318 H331 0.961 . S
C318 H332 0.961 . S
C319 C316 1.539 . S
C319 H333 0.958 . S
C319 H334 0.961 . S
C319 H335 0.960 . S
H320 C304 0.931 . S
H321 C309 0.929 1_545 S
H322 C310 0.960 . S
H323 C310 0.962 . S
H324 C310 0.960 . S
H325 C311 0.961 . S
H326 C311 0.961 . S
H327 C311 0.961 . S
H328 C312 0.931 . S
H329 C317 0.930 . S
H330 C318 0.956 . S
H331 C318 0.961 . S
H332 C318 0.961 . S
H333 C319 0.958 . S
H334 C319 0.961 . S
H335 C319 0.960 . S
C336 C337 1.391 . S
C336 C338 1.394 . S
C336 H352 0.931 . S
C337 C336 1.391 . S
C337 C341 1.376 . S
C338 C336 1.394 . S
C338 C339 1.369 . S
C338 C342 1.531 . S
C339 C338 1.369 . S
C339 C340 1.410 . S
C339 C347 1.503 . S
C340 C339 1.410 . S
C340 C341 1.392 . S
C340 C343 1.511 . S
C341 C337 1.376 . S
C341 C340 1.392 . S
C341 H353 0.929 . S
C342 C338 1.531 . S
C342 H354 0.960 . S
C342 H355 0.962 . S
C342 H356 0.960 . S
C343 C340 1.511 . S
C343 H357 0.961 . S
C343 H358 0.961 . S
C343 H359 0.961 . S
C344 C345 1.370 . S
C344 C346 1.363 . S
C344 H360 0.931 . S
C345 C344 1.370 . S
C345 C349 1.408 . S
C346 C344 1.363 . S
C346 C347 1.370 . S
C346 C350 1.524 . S
C347 C339 1.503 . S
C347 C346 1.370 . S
C347 C348 1.403 . S
C348 C347 1.403 . S
C348 C349 1.404 . S
C348 C351 1.539 . S
C349 C345 1.408 . S
C349 C348 1.404 . S
C349 H361 0.930 . S
C350 C346 1.524 . S
C350 H362 0.956 . S
C350 H363 0.961 . S
C350 H364 0.961 . S
C351 C348 1.539 . S
C351 H365 0.958 . S
C351 H366 0.961 . S
C351 H367 0.960 . S
H352 C336 0.931 . S
H353 C341 0.929 . S
H354 C342 0.960 . S
H355 C342 0.962 . S
H356 C342 0.960 . S
H357 C343 0.961 . S
H358 C343 0.961 . S
H359 C343 0.961 . S
H360 C344 0.931 . S
H361 C349 0.930 . S
H362 C350 0.956 . S
H363 C350 0.961 . S
H364 C350 0.961 . S
H365 C351 0.958 . S
H366 C351 0.961 . S
H367 C351 0.960 . S
C368 C369 1.391 . S
C368 C370 1.390 1_556 S
C368 H384 0.931 1_545 S
C369 C368 1.391 . S
C369 C373 1.376 . S
C370 C368 1.390 1_554 S
C370 C371 1.366 1_554 S
C370 C374 1.536 . S
C371 C370 1.366 1_556 S
C371 C372 1.410 . S
C371 C379 1.503 1_556 S
C372 C371 1.410 . S
C372 C373 1.392 . S
C372 C375 1.511 . S
C373 C369 1.376 . S
C373 C372 1.392 . S
C373 H385 0.929 . S
C374 C370 1.536 . S
C374 H386 0.960 . S
C374 H387 0.962 . S
C374 H388 0.960 . S
C375 C372 1.511 . S
C375 H389 0.961 . S
C375 H390 0.961 . S
C375 H391 0.961 . S
C376 C377 1.370 . S
C376 C378 1.363 . S
C376 H392 0.931 . S
C377 C376 1.370 . S
C377 C381 1.408 . S
C378 C376 1.363 . S
C378 C379 1.370 . S
C378 C382 1.524 1_554 S
C379 C371 1.503 1_554 S
C379 C378 1.370 . S
C379 C380 1.403 . S
C380 C379 1.403 . S
C380 C381 1.404 . S
C380 C383 1.539 . S
C381 C377 1.408 . S
C381 C380 1.404 . S
C381 H393 0.930 . S
C382 C378 1.524 1_556 S
C382 H394 0.956 . S
C382 H395 0.961 . S
C382 H396 0.961 . S
C383 C380 1.539 . S
C383 H397 0.958 . S
C383 H398 0.961 . S
C383 H399 0.960 . S
H384 C368 0.931 1_565 S
H385 C373 0.929 . S
H386 C374 0.960 . S
H387 C374 0.962 . S
H388 C374 0.960 . S
H389 C375 0.961 . S
H390 C375 0.961 . S
H391 C375 0.961 . S
H392 C376 0.931 . S
H393 C381 0.930 . S
H394 C382 0.956 . S
H395 C382 0.961 . S
H396 C382 0.961 . S
H397 C383 0.958 . S
H398 C383 0.961 . S
H399 C383 0.960 . S
C400 C401 1.391 . S
C400 C402 1.394 1_556 S
C400 H416 0.931 . S
C401 C400 1.391 . S
C401 C405 1.376 . S
C402 C400 1.394 1_554 S
C402 C403 1.369 1_554 S
C402 C406 1.531 . S
C403 C402 1.369 1_556 S
C403 C404 1.410 . S
C403 C411 1.503 1_556 S
C404 C403 1.410 . S
C404 C405 1.392 . S
C404 C407 1.511 . S
C405 C401 1.376 . S
C405 C404 1.392 . S
C405 H417 0.929 . S
C406 C402 1.531 . S
C406 H418 0.960 . S
C406 H419 0.962 . S
C406 H420 0.960 . S
C407 C404 1.511 . S
C407 H421 0.961 . S
C407 H422 0.961 . S
C407 H423 0.961 . S
C408 C409 1.370 . S
C408 C410 1.363 . S
C408 H424 0.931 . S
C409 C408 1.370 . S
C409 C413 1.408 . S
C410 C408 1.363 . S
C410 C411 1.370 . S
C410 C414 1.524 . S
C411 C403 1.503 1_554 S
C411 C410 1.370 . S
C411 C412 1.403 . S
C412 C411 1.403 . S
C412 C413 1.404 . S
C412 C415 1.539 . S
C413 C409 1.408 . S
C413 C412 1.404 . S
C413 H425 0.930 . S
C414 C410 1.524 . S
C414 H426 0.956 . S
C414 H427 0.987 . S
C414 H428 0.961 . S
C415 C412 1.539 . S
C415 H429 0.958 . S
C415 H430 0.961 1_554 S
C415 H431 0.960 1_554 S
H416 C400 0.931 . S
H417 C405 0.929 . S
H418 C406 0.960 . S
H419 C406 0.962 . S
H420 C406 0.960 . S
H421 C407 0.961 . S
H422 C407 0.961 . S
H423 C407 0.961 . S
H424 C408 0.931 . S
H425 C413 0.930 . S
H426 C414 0.956 . S
H427 C414 0.987 . S
H428 C414 0.961 . S
H429 C415 0.958 . S
H430 C415 0.961 1_556 S
H431 C415 0.960 1_556 S
C432 C433 1.391 . S
C432 C434 1.394 . S
C432 H448 0.931 . S
C433 C432 1.391 . S
C433 C437 1.376 . S
C434 C432 1.394 . S
C434 C435 1.369 . S
C434 C438 1.531 . S
C435 C434 1.369 . S
C435 C436 1.410 1_554 S
C435 C443 1.503 1_554 S
C436 C435 1.410 1_556 S
C436 C437 1.392 1_556 S
C436 C439 1.511 . S
C437 C433 1.376 . S
C437 C436 1.392 1_554 S
C437 H449 0.929 . S
C438 C434 1.531 . S
C438 H450 0.960 . S
C438 H451 0.962 . S
C438 H452 0.960 . S
C439 C436 1.511 . S
C439 H453 0.961 . S
C439 H454 0.961 . S
C439 H455 0.961 . S
C440 C441 1.370 . S
C440 C442 1.363 . S
C440 H456 0.931 . S
C441 C440 1.370 . S
C441 C445 1.408 . S
C442 C440 1.363 . S
C442 C443 1.370 . S
C442 C446 1.524 . S
C443 C435 1.503 1_556 S
C443 C442 1.370 . S
C443 C444 1.403 . S
C444 C443 1.403 . S
C444 C445 1.404 . S
C444 C447 1.539 . S
C445 C441 1.408 . S
C445 C444 1.404 . S
C445 H457 0.930 . S
C446 C442 1.524 . S
C446 H458 0.956 . S
C446 H459 0.961 . S
C446 H460 0.961 . S
C447 C444 1.539 . S
C447 H461 0.958 1_556 S
C447 H462 0.961 . S
C447 H463 0.956 1_556 S
H448 C432 0.931 . S
H449 C437 0.929 . S
H450 C438 0.960 . S
H451 C438 0.962 . S
H452 C438 0.960 . S
H453 C439 0.961 . S
H454 C439 0.961 . S
H455 C439 0.961 . S
H456 C440 0.931 . S
H457 C445 0.930 . S
H458 C446 0.956 . S
H459 C446 0.961 . S
H460 C446 0.961 . S
H461 C447 0.958 1_554 S
H462 C447 0.961 . S
H463 C447 0.956 1_554 S
C464 C465 1.391 . S
C464 C466 1.394 . S
C464 H480 0.931 . S
C465 C464 1.391 . S
C465 C469 1.376 . S
C466 C464 1.394 . S
C466 C467 1.369 . S
C466 C470 1.531 1_556 S
C467 C466 1.369 . S
C467 C468 1.410 . S
C467 C475 1.503 1_556 S
C468 C467 1.410 . S
C468 C469 1.392 . S
C468 C471 1.511 . S
C469 C465 1.376 . S
C469 C468 1.392 . S
C469 H481 0.929 . S
C470 C466 1.531 1_554 S
C470 H482 0.960 . S
C470 H483 0.962 . S
C470 H484 0.960 1_554 S
C471 C468 1.511 . S
C471 H485 0.961 . S
C471 H486 0.961 . S
C471 H487 0.961 . S
C472 C473 1.370 . S
C472 C474 1.363 . S
C472 H488 0.931 . S
C473 C472 1.370 . S
C473 C477 1.408 . S
C474 C472 1.363 . S
C474 C475 1.370 . S
C474 C478 1.524 . S
C475 C467 1.503 1_554 S
C475 C474 1.370 . S
C475 C476 1.403 1_554 S
C476 C475 1.403 1_556 S
C476 C477 1.404 1_556 S
C476 C479 1.539 . S
C477 C473 1.408 . S
C477 C476 1.404 1_554 S
C477 H489 0.930 1_655 S
C478 C474 1.524 . S
C478 H490 0.956 . S
C478 H491 0.961 . S
C478 H492 0.961 . S
C479 C476 1.539 . S
C479 H493 0.958 . S
C479 H494 0.961 . S
C479 H495 0.960 . S
H480 C464 0.931 . S
H481 C469 0.929 . S
H482 C470 0.960 . S
H483 C470 0.962 . S
H484 C470 0.960 1_556 S
H485 C471 0.961 . S
H486 C471 0.961 . S
H487 C471 0.961 . S
H488 C472 0.931 . S
H489 C477 0.930 1_455 S
H490 C478 0.956 . S
H491 C478 0.961 . S
H492 C478 0.961 . S
H493 C479 0.958 . S
H494 C479 0.961 . S
H495 C479 0.960 . S
C496 C497 1.391 . S
C496 C498 1.394 . S
C496 H512 0.931 . S
C497 C496 1.391 . S
C497 C501 1.376 . S
C498 C496 1.394 . S
C498 C499 1.369 . S
C498 C502 1.531 . S
C499 C498 1.369 . S
C499 C500 1.410 . S
C499 C507 1.503 . S
C500 C499 1.410 . S
C500 C501 1.392 . S
C500 C503 1.511 . S
C501 C497 1.376 . S
C501 C500 1.392 . S
C501 H513 0.929 . S
C502 C498 1.531 . S
C502 H514 0.960 . S
C502 H515 0.962 . S
C502 H516 0.960 . S
C503 C500 1.511 . S
C503 H517 0.961 . S
C503 H518 0.961 . S
C503 H519 0.961 . S
C504 C505 1.370 . S
C504 C506 1.363 . S
C504 H520 0.931 . S
C505 C504 1.370 . S
C505 C509 1.408 . S
C506 C504 1.363 . S
C506 C507 1.370 . S
C506 C510 1.524 . S
C507 C499 1.503 . S
C507 C506 1.370 . S
C507 C508 1.403 . S
C508 C507 1.403 . S
C508 C509 1.404 . S
C508 C511 1.539 . S
C509 C505 1.408 . S
C509 C508 1.404 . S
C509 H521 0.930 . S
C510 C506 1.524 . S
C510 H522 0.956 . S
C510 H523 0.961 . S
C510 H524 0.961 . S
C511 C508 1.539 . S
C511 H525 0.958 . S
C511 H526 0.961 . S
C511 H527 0.960 . S
H512 C496 0.931 . S
H513 C501 0.929 . S
H514 C502 0.960 . S
H515 C502 0.962 . S
H516 C502 0.960 . S
H517 C503 0.961 . S
H518 C503 0.961 . S
H519 C503 0.961 . S
H520 C504 0.931 . S
H521 C509 0.930 . S
H522 C510 0.956 . S
H523 C510 0.961 . S
H524 C510 0.961 . S
H525 C511 0.958 . S
H526 C511 0.961 . S
H527 C511 0.960 . S
C528 C529 1.391 . S
C528 C530 1.394 . S
C528 H544 0.931 . S
C529 C528 1.391 . S
C529 C533 1.376 . S
C530 C528 1.394 . S
C530 C531 1.369 . S
C530 C534 1.531 . S
C531 C530 1.369 . S
C531 C532 1.410 . S
C531 C539 1.503 . S
C532 C531 1.410 . S
C532 C533 1.392 . S
C532 C535 1.511 . S
C533 C529 1.376 . S
C533 C532 1.392 . S
C533 H545 0.929 . S
C534 C530 1.531 . S
C534 H546 0.960 . S
C534 H547 0.962 . S
C534 H548 0.960 . S
C535 C532 1.511 . S
C535 H549 0.961 . S
C535 H550 0.961 . S
C535 H551 0.961 . S
C536 C537 1.370 . S
C536 C538 1.363 . S
C536 H552 0.931 . S
C537 C536 1.370 . S
C537 C541 1.408 . S
C538 C536 1.363 . S
C538 C539 1.370 . S
C538 C542 1.524 . S
C539 C531 1.503 . S
C539 C538 1.370 . S
C539 C540 1.403 . S
C540 C539 1.403 . S
C540 C541 1.404 . S
C540 C543 1.539 . S
C541 C537 1.408 . S
C541 C540 1.404 . S
C541 H553 0.930 . S
C542 C538 1.524 . S
C542 H554 0.956 . S
C542 H555 0.961 . S
C542 H556 0.961 . S
C543 C540 1.539 . S
C543 H557 0.958 . S
C543 H558 0.961 . S
C543 H559 0.960 . S
H544 C528 0.931 . S
H545 C533 0.929 . S
H546 C534 0.960 . S
H547 C534 0.962 . S
H548 C534 0.960 . S
H549 C535 0.961 . S
H550 C535 0.961 . S
H551 C535 0.961 . S
H552 C536 0.931 . S
H553 C541 0.930 . S
H554 C542 0.956 . S
H555 C542 0.961 . S
H556 C542 0.961 . S
H557 C543 0.958 . S
H558 C543 0.961 . S
H559 C543 0.960 . S
C560 C561 1.391 . S
C560 C562 1.394 . S
C560 H576 0.931 . S
C561 C560 1.391 . S
C561 C565 1.376 . S
C562 C560 1.394 . S
C562 C563 1.369 . S
C562 C566 1.531 . S
C563 C562 1.369 . S
C563 C564 1.410 . S
C563 C571 1.503 . S
C564 C563 1.410 . S
C564 C565 1.392 . S
C564 C567 1.511 . S
C565 C561 1.376 . S
C565 C564 1.392 . S
C565 H577 0.929 . S
C566 C562 1.531 . S
C566 H578 0.960 . S
C566 H579 0.962 . S
C566 H580 0.960 . S
C567 C564 1.511 . S
C567 H581 0.961 . S
C567 H582 0.961 . S
C567 H583 0.961 . S
C568 C569 1.370 . S
C568 C570 1.363 . S
C568 H584 0.931 . S
C569 C568 1.370 . S
C569 C573 1.408 . S
C570 C568 1.363 . S
C570 C571 1.370 . S
C570 C574 1.524 . S
C571 C563 1.503 . S
C571 C570 1.370 . S
C571 C572 1.403 . S
C572 C571 1.403 . S
C572 C573 1.404 . S
C572 C575 1.539 . S
C573 C569 1.408 . S
C573 C572 1.404 . S
C573 H585 0.930 . S
C574 C570 1.524 . S
C574 H586 0.956 . S
C574 H587 0.961 . S
C574 H588 0.961 . S
C575 C572 1.539 . S
C575 H589 0.958 . S
C575 H590 0.961 . S
C575 H591 0.960 . S
H576 C560 0.931 . S
H577 C565 0.929 . S
H578 C566 0.960 . S
H579 C566 0.962 . S
H580 C566 0.960 . S
H581 C567 0.961 . S
H582 C567 0.961 . S
H583 C567 0.961 . S
H584 C568 0.931 . S
H585 C573 0.930 . S
H586 C574 0.956 . S
H587 C574 0.961 . S
H588 C574 0.961 . S
H589 C575 0.958 . S
H590 C575 0.961 . S
H591 C575 0.960 . S
C592 C593 1.391 . S
C592 C594 1.394 . S
C592 H608 0.931 . S
C593 C592 1.391 . S
C593 C597 1.376 . S
C594 C592 1.394 . S
C594 C595 1.369 . S
C594 C598 1.531 . S
C595 C594 1.369 . S
C595 C596 1.410 . S
C595 C603 1.503 . S
C596 C595 1.410 . S
C596 C597 1.392 . S
C596 C599 1.511 . S
C597 C593 1.376 . S
C597 C596 1.392 . S
C597 H609 0.929 . S
C598 C594 1.531 . S
C598 H610 0.960 . S
C598 H611 0.962 . S
C598 H612 0.960 . S
C599 C596 1.511 . S
C599 H613 0.961 . S
C599 H614 0.961 . S
C599 H615 0.961 . S
C600 C601 1.370 . S
C600 C602 1.363 . S
C600 H616 0.931 . S
C601 C600 1.370 . S
C601 C605 1.408 . S
C602 C600 1.363 . S
C602 C603 1.370 . S
C602 C606 1.524 . S
C603 C595 1.503 . S
C603 C602 1.370 . S
C603 C604 1.403 . S
C604 C603 1.403 . S
C604 C605 1.404 . S
C604 C607 1.539 . S
C605 C601 1.408 . S
C605 C604 1.404 . S
C605 H617 0.930 . S
C606 C602 1.524 . S
C606 H618 0.956 . S
C606 H619 0.961 . S
C606 H620 0.961 . S
C607 C604 1.539 . S
C607 H621 0.958 . S
C607 H622 0.961 . S
C607 H623 0.960 . S
H608 C592 0.931 . S
H609 C597 0.929 . S
H610 C598 0.960 . S
H611 C598 0.962 . S
H612 C598 0.960 . S
H613 C599 0.961 . S
H614 C599 0.961 . S
H615 C599 0.961 . S
H616 C600 0.931 . S
H617 C605 0.930 . S
H618 C606 0.956 . S
H619 C606 0.961 . S
H620 C606 0.961 . S
H621 C607 0.958 . S
H622 C607 0.961 . S
H623 C607 0.960 . S
C113 C36 1.461 . S
C121 C8 1.503 . S
C145 C50 1.504 . S
C153 C22 1.482 . S
C177 C64 1.461 . S
C185 C92 1.501 . S
C209 C78 1.508 . S
C217 C106 1.490 . S
C241 C17 1.094 1_545 S
C249 C9 1.078 . S
C273 C23 1.021 . S
C281 C31 1.119 1_455 S
C305 C45 1.131 1_565 S
C313 C37 1.057 . S
C337 C51 1.099 . S
C345 C3 1.108 1_655 S
C369 C101 1.113 1_545 S
C377 C65 1.039 . S
C401 C79 1.105 . S
C409 C59 1.107 1_455 S
C433 C93 1.104 . S
C441 C73 1.109 1_565 S
C465 C107 1.061 . S
C473 C87 1.105 1_655 S
C497 C7 1.652 . S
C505 C77 1.621 . S
C529 C91 1.649 . S
C537 C21 1.636 . S
C561 C35 1.594 . S
C569 C105 1.634 . S
C593 C49 1.634 . S
C601 C63 1.616 . S
