# Generated by pormake.
# Topology umx, (4)-cn, num edge types: 1
# Building blocks:
#     Node 0, Type 0, BuildingBlock: MUDLON_clean_sbu_0, # of connection points: 4
#     Node 1, Type 0, BuildingBlock: MUDLON_clean_sbu_0, # of connection points: 4
#     Node 2, Type 0, BuildingBlock: MUDLON_clean_sbu_0, # of connection points: 4
#     Node 3, Type 0, BuildingBlock: MUDLON_clean_sbu_0, # of connection points: 4
#     Node 4, Type 0, BuildingBlock: MUDLON_clean_sbu_0, # of connection points: 4
#     Node 5, Type 0, BuildingBlock: MUDLON_clean_sbu_0, # of connection points: 4
#     Node 6, Type 0, BuildingBlock: MUDLON_clean_sbu_0, # of connection points: 4
#     Node 7, Type 0, BuildingBlock: MUDLON_clean_sbu_0, # of connection points: 4
#     Edge 8, Type (0, 0), BuildingBlock: TEMPAE_clean_linker_10, # of connection points: 2
#     Edge 9, Type (0, 0), BuildingBlock: TEMPAE_clean_linker_10, # of connection points: 2
#     Edge 10, Type (0, 0), BuildingBlock: TEMPAE_clean_linker_10, # of connection points: 2
#     Edge 11, Type (0, 0), BuildingBlock: TEMPAE_clean_linker_10, # of connection points: 2
#     Edge 12, Type (0, 0), BuildingBlock: TEMPAE_clean_linker_10, # of connection points: 2
#     Edge 13, Type (0, 0), BuildingBlock: TEMPAE_clean_linker_10, # of connection points: 2
#     Edge 14, Type (0, 0), BuildingBlock: TEMPAE_clean_linker_10, # of connection points: 2
#     Edge 15, Type (0, 0), BuildingBlock: TEMPAE_clean_linker_10, # of connection points: 2
#     Edge 16, Type (0, 0), BuildingBlock: TEMPAE_clean_linker_10, # of connection points: 2
#     Edge 17, Type (0, 0), BuildingBlock: TEMPAE_clean_linker_10, # of connection points: 2
#     Edge 18, Type (0, 0), BuildingBlock: TEMPAE_clean_linker_10, # of connection points: 2
#     Edge 19, Type (0, 0), BuildingBlock: TEMPAE_clean_linker_10, # of connection points: 2
#     Edge 20, Type (0, 0), BuildingBlock: TEMPAE_clean_linker_10, # of connection points: 2
#     Edge 21, Type (0, 0), BuildingBlock: TEMPAE_clean_linker_10, # of connection points: 2
#     Edge 22, Type (0, 0), BuildingBlock: TEMPAE_clean_linker_10, # of connection points: 2
#     Edge 23, Type (0, 0), BuildingBlock: TEMPAE_clean_linker_10, # of connection points: 2
# Relax obj value: 0.023
# Max RMSD: 0.223
# Mean RMSD: 0.222
data_MOF--net-umx--node1-MUDLON_clean_sbu_0--edge1-TEMPAE_clean_linker_10
_symmetry_space_group_name_H-M    P1
_symmetry_Int_Tables_number       1
_symmetry_cell_setting            triclinic
loop_
_symmetry_equiv_pos_as_xyz
'x, y, z'
_cell_length_a     41.008534
_cell_length_b     40.940692
_cell_length_c     30.173486
_cell_angle_alpha  90.381351
_cell_angle_beta   90.570737
_cell_angle_gamma 90.065405
loop_
_atom_site_label
_atom_site_type_symbol
_atom_site_fract_x
_atom_site_fract_y
_atom_site_fract_z
_atom_type_partial_charge
Mg0 Mg 0.18457 0.45445 0.04158 0.0
C1 C 0.11646 0.46398 1.00438 0.0
O2 O 0.13324 0.47063 0.96869 0.0
C3 C 0.23324 0.40374 0.0619 0.0
O4 O 0.24681 0.43065 0.07732 0.0
C5 C 0.18284 0.46533 0.13736 0.0
O6 O 0.16222 0.44128 0.12988 0.0
O7 O 0.19752 0.47773 0.1045 0.0
O8 O 0.13154 0.45471 0.03911 0.0
O9 O 0.20104 0.47944 0.98213 0.0
C10 C 0.21979 0.46559 0.95439 0.0
O11 O 0.23244 0.43704 0.96416 0.0
O12 O 0.20518 0.40558 0.04378 0.0
Mg13 Mg 0.551 0.19273 0.54195 0.0
C14 C 0.50803 0.19698 0.45828 0.0
O15 O 0.49354 0.17172 0.47616 0.0
C16 C 0.51097 0.194 0.62609 0.0
O17 O 0.49949 0.16679 0.60863 0.0
C18 C 0.60359 0.23946 0.55531 0.0
O19 O 0.57664 0.25578 0.56312 0.0
O20 O 0.60128 0.20945 0.54453 0.0
O21 O 0.5308 0.21132 0.47977 0.0
O22 O 0.54592 0.13995 0.54456 0.0
C23 C 0.54869 0.1206 0.5117 0.0
O24 O 0.55729 0.13229 0.47309 0.0
O25 O 0.5304 0.21133 0.60353 0.0
Mg26 Mg 0.81422 0.55346 1.02259 0.0
C27 C 0.87676 0.52005 1.01378 0.0
O28 O 0.85496 0.49651 1.01207 0.0
C29 C 0.79236 0.62134 0.05423 0.0
O30 O 0.80355 0.61121 0.09267 0.0
C31 C 0.82164 0.53807 0.11782 0.0
O32 O 0.84826 0.5545 0.10869 0.0
O33 O 0.80112 0.5326 0.08665 0.0
O34 O 0.86688 0.54935 1.01797 0.0
O35 O 0.79575 0.52802 0.9634 0.0
C36 C 0.77855 0.5435 0.93512 0.0
O37 O 0.76904 0.57331 0.94477 0.0
O38 O 0.79572 0.60321 1.02021 0.0
Mg39 Mg 0.45689 0.81746 0.54011 0.0
C40 C 0.50055 0.80646 0.45882 0.0
O41 O 0.51978 0.82741 0.4794 0.0
C42 C 0.50414 0.79528 0.61841 0.0
O43 O 0.52895 0.80003 0.592 0.0
C44 C 0.3906 0.79353 0.5077 0.0
O45 O 0.40454 0.79658 0.46893 0.0
O46 O 0.40596 0.80306 0.54225 0.0
O47 O 0.47514 0.79634 0.47832 0.0
O48 O 0.46318 0.87038 0.53645 0.0
C49 C 0.4905 0.88238 0.54862 0.0
O50 O 0.51291 0.86269 0.56449 0.0
O51 O 0.47523 0.79962 0.60399 0.0
Mg52 Mg 0.18947 0.5538 0.54747 0.0
C53 C 0.1947 0.54914 0.45175 0.0
O54 O 0.17934 0.57666 0.45989 0.0
C55 C 0.21842 0.54612 0.63935 0.0
O56 O 0.22411 0.57729 0.63291 0.0
C57 C 0.23991 0.60373 0.53912 0.0
O58 O 0.25546 0.57584 0.53489 0.0
O59 O 0.20936 0.60304 0.54596 0.0
O60 O 0.20411 0.53203 0.48456 0.0
O61 O 0.13646 0.55165 0.54676 0.0
C62 C 0.12419 0.52643 0.52816 0.0
O63 O 0.14385 0.50452 0.51102 0.0
O64 O 0.20549 0.52932 0.60811 0.0
Mg65 Mg 0.45643 0.19427 0.04118 0.0
C66 C 0.46665 0.2283 0.13108 0.0
O67 O 0.4421 0.24611 0.11695 0.0
C68 C 0.49689 0.19245 0.95767 0.0
O69 O 0.50465 0.1637 0.97368 0.0
C70 C 0.38528 0.21273 0.06501 0.0
O71 O 0.38937 0.19357 0.09938 0.0
O72 O 0.40814 0.21563 0.03718 0.0
O73 O 0.47908 0.20731 0.10492 0.0
O74 O 0.45591 0.14123 0.03643 0.0
C75 C 0.4669 0.12423 0.06838 0.0
O76 O 0.4758 0.13902 0.10532 0.0
O77 O 0.47972 0.21167 0.98111 0.0
Mg78 Mg 0.81586 0.45752 0.52977 0.0
C79 C 0.88163 0.48433 0.51543 0.0
O80 O 0.86244 0.50688 0.49869 0.0
C81 C 0.79691 0.38766 0.55869 0.0
O82 O 0.81382 0.39442 0.59482 0.0
C83 C 0.8083 0.46102 0.43368 0.0
O84 O 0.82121 0.43225 0.44159 0.0
O85 O 0.80159 0.47936 0.46662 0.0
O86 O 0.86881 0.4587 0.53136 0.0
O87 O 0.80065 0.48227 0.59051 0.0
C88 C 0.77752 0.47177 0.61442 0.0
O89 O 0.75941 0.44749 0.59957 0.0
O90 O 0.7954 0.40861 0.52785 0.0
Mg91 Mg 0.54975 0.82046 0.03735 0.0
C92 C 0.52744 0.82516 0.1312 0.0
O93 O 0.53889 0.85459 0.12407 0.0
C94 C 0.53952 0.78332 0.94934 0.0
O95 O 0.56371 0.7655 0.96455 0.0
C96 C 0.60144 0.77281 0.05447 0.0
O97 O 0.5746 0.75818 0.06715 0.0
O98 O 0.59936 0.80174 0.03959 0.0
O99 O 0.52725 0.80446 0.09945 0.0
O100 O 0.54629 0.87344 0.03619 0.0
C101 C 0.51709 0.88394 0.0353 0.0
O102 O 0.49316 0.86256 0.03442 0.0
O103 O 0.52749 0.80546 0.9741 0.0
C104 C 0.21472 0.49774 0.19422 0.0
C105 C 0.18819 0.47748 0.18328 0.0
C106 C 0.21958 0.50907 0.23796 0.0
C107 C 0.19708 0.50035 0.27123 0.0
C108 C 0.17043 0.47972 0.26032 0.0
C109 C 0.16646 0.46839 0.21665 0.0
C110 C 0.24852 0.53067 0.24848 0.0
C111 C 0.14556 0.47024 0.29456 0.0
C112 C 0.21473 0.50864 0.39502 0.0
C113 C 0.19818 0.53765 0.40528 0.0
C114 C 0.21593 0.49688 0.3511 0.0
C115 C 0.19987 0.51434 0.31686 0.0
C116 C 0.18399 0.5441 0.32691 0.0
C117 C 0.1835 0.55543 0.37083 0.0
C118 C 0.23349 0.46528 0.34156 0.0
C119 C 0.16625 0.56332 0.29156 0.0
H120 H 0.23176 0.50462 0.16868 0.0
H121 H 0.14585 0.4528 0.20852 0.0
H122 H 0.24 0.55527 0.25869 0.0
H123 H 0.26269 0.5205 0.27669 0.0
H124 H 0.26497 0.53337 0.21969 0.0
H125 H 0.12672 0.4533 0.28098 0.0
H126 H 0.15778 0.45837 0.32316 0.0
H127 H 0.1332 0.49245 0.30732 0.0
H128 H 0.2263 0.49485 0.42137 0.0
H129 H 0.1707 0.57793 0.37828 0.0
H130 H 0.25046 0.46842 0.31348 0.0
H131 H 0.21556 0.44621 0.33165 0.0
H132 H 0.24751 0.45642 0.37078 0.0
H133 H 0.18271 0.5684 0.26349 0.0
H134 H 0.15668 0.58691 0.30435 0.0
H135 H 0.14548 0.54873 0.27828 0.0
C136 C 0.52704 0.22282 0.6967 0.0
C137 C 0.50631 0.20094 0.67399 0.0
C138 C 0.52633 0.22567 0.74316 0.0
C139 C 0.50413 0.20646 0.76748 0.0
C140 C 0.48191 0.18573 0.74452 0.0
C141 C 0.48339 0.1831 0.69814 0.0
C142 C 0.55051 0.24794 0.76633 0.0
C143 C 0.45749 0.1652 0.76909 0.0
C144 C 0.52302 0.17927 0.88512 0.0
C145 C 0.50257 0.19953 0.91014 0.0
C146 C 0.52487 0.18233 0.83888 0.0
C147 C 0.50556 0.20603 0.81693 0.0
C148 C 0.48602 0.22758 0.84216 0.0
C149 C 0.48489 0.2242 0.88849 0.0
C150 C 0.54644 0.15918 0.81332 0.0
C151 C 0.46498 0.25308 0.82007 0.0
H152 H 0.54492 0.23666 0.67839 0.0
H153 H 0.46715 0.16629 0.6809 0.0
H154 H 0.53797 0.26389 0.79063 0.0
H155 H 0.56847 0.23304 0.78507 0.0
H156 H 0.56393 0.26356 0.74269 0.0
H157 H 0.44014 0.1525 0.74629 0.0
H158 H 0.4705 0.14655 0.78904 0.0
H159 H 0.4434 0.18064 0.7924 0.0
H160 H 0.5369 0.16027 0.90155 0.0
H161 H 0.46892 0.23993 0.90746 0.0
H162 H 0.56243 0.17299 0.79065 0.0
H163 H 0.53111 0.14262 0.7926 0.0
H164 H 0.56197 0.14406 0.83549 0.0
H165 H 0.47951 0.26759 0.79642 0.0
H166 H 0.45372 0.26999 0.84444 0.0
H167 H 0.44522 0.24088 0.80076 0.0
C168 C 0.79305 0.50363 0.37721 0.0
C169 C 0.80436 0.47216 0.38715 0.0
C170 C 0.79203 0.51481 0.33316 0.0
C171 C 0.80277 0.49413 0.29838 0.0
C172 C 0.81303 0.46197 0.30814 0.0
C173 C 0.81359 0.45138 0.35225 0.0
C174 C 0.78065 0.54918 0.32404 0.0
C175 C 0.82488 0.43914 0.27221 0.0
C176 C 0.78628 0.51296 0.17646 0.0
C177 C 0.81595 0.52715 0.16397 0.0
C178 C 0.78118 0.50288 0.22042 0.0
C179 C 0.80642 0.50686 0.25246 0.0
C180 C 0.83624 0.52143 0.24004 0.0
C181 C 0.84058 0.53143 0.19613 0.0
C182 C 0.74898 0.48762 0.23248 0.0
C183 C 0.86393 0.52589 0.27296 0.0
H184 H 0.78572 0.51979 0.40388 0.0
H185 H 0.8222 0.42695 0.35942 0.0
H186 H 0.80158 0.56423 0.31319 0.0
H187 H 0.76232 0.54921 0.29674 0.0
H188 H 0.76981 0.5609 0.35375 0.0
H189 H 0.82977 0.41416 0.28479 0.0
H190 H 0.80664 0.43746 0.24491 0.0
H191 H 0.84772 0.4489 0.25795 0.0
H192 H 0.76704 0.50974 0.15192 0.0
H193 H 0.8636 0.54237 0.18695 0.0
H194 H 0.73827 0.50074 0.26113 0.0
H195 H 0.75284 0.46192 0.24269 0.0
H196 H 0.73119 0.48794 0.20448 0.0
H197 H 0.85557 0.5402 0.30204 0.0
H198 H 0.8852 0.53857 0.25835 0.0
H199 H 0.87208 0.50172 0.28526 0.0
C200 C 0.51482 0.80771 0.8808 0.0
C201 C 0.53028 0.78129 0.90164 0.0
C202 C 0.50993 0.80807 0.83461 0.0
C203 C 0.52013 0.78107 0.8086 0.0
C204 C 0.53438 0.75369 0.82969 0.0
C205 C 0.53958 0.75427 0.87586 0.0
C206 C 0.495 0.83793 0.81347 0.0
C207 C 0.54489 0.72411 0.80336 0.0
C208 C 0.48416 0.77576 0.69188 0.0
C209 C 0.50946 0.78864 0.66628 0.0
C210 C 0.4877 0.77206 0.73798 0.0
C211 C 0.51699 0.78214 0.75924 0.0
C212 C 0.54287 0.79455 0.73344 0.0
C213 C 0.53891 0.79732 0.68725 0.0
C214 C 0.4598 0.75803 0.76404 0.0
C215 C 0.57433 0.80602 0.75483 0.0
H216 H 0.50776 0.82881 0.90034 0.0
H217 H 0.55142 0.7337 0.89169 0.0
H218 H 0.5128 0.84921 0.79069 0.0
H219 H 0.47328 0.83095 0.79336 0.0
H220 H 0.4876 0.85653 0.83837 0.0
H221 H 0.55314 0.70382 0.825 0.0
H222 H 0.52448 0.71524 0.78205 0.0
H223 H 0.56518 0.73082 0.78115 0.0
H224 H 0.46137 0.76881 0.67589 0.0
H225 H 0.55848 0.80752 0.66778 0.0
H226 H 0.44988 0.77697 0.78663 0.0
H227 H 0.46853 0.73756 0.78494 0.0
H228 H 0.4397 0.749 0.74223 0.0
H229 H 0.56928 0.82656 0.77796 0.0
H230 H 0.59238 0.81432 0.73009 0.0
H231 H 0.58537 0.78608 0.77461 0.0
C232 C 0.7493 0.47113 0.68788 0.0
C233 C 0.77389 0.48371 0.66076 0.0
C234 C 0.74742 0.47992 0.73293 0.0
C235 C 0.77074 0.50173 0.75143 0.0
C236 C 0.79519 0.51505 0.72403 0.0
C237 C 0.79641 0.50597 0.67908 0.0
C238 C 0.72084 0.46538 0.76092 0.0
C239 C 0.82054 0.53839 0.74243 0.0
C240 C 0.75457 0.54797 0.85873 0.0
C241 C 0.7734 0.5304 0.88952 0.0
C242 C 0.75262 0.53831 0.81402 0.0
C243 C 0.76998 0.51041 0.79955 0.0
C244 C 0.788 0.49182 0.83075 0.0
C245 C 0.78944 0.50198 0.87536 0.0
C246 C 0.73294 0.55869 0.78195 0.0
C247 C 0.80681 0.46187 0.81669 0.0
H248 H 0.73177 0.45391 0.67413 0.0
H249 H 0.81556 0.51578 0.65853 0.0
H250 H 0.73183 0.45041 0.78768 0.0
H251 H 0.70662 0.48509 0.77709 0.0
H252 H 0.70385 0.44976 0.7412 0.0
H253 H 0.83756 0.54705 0.7166 0.0
H254 H 0.80849 0.55992 0.75761 0.0
H255 H 0.83492 0.52625 0.76893 0.0
H256 H 0.74196 0.56989 0.8693 0.0
H257 H 0.80408 0.48824 0.89881 0.0
H258 H 0.7156 0.54302 0.76297 0.0
H259 H 0.74945 0.57019 0.75766 0.0
H260 H 0.71899 0.57826 0.79895 0.0
H261 H 0.79057 0.44461 0.79851 0.0
H262 H 0.81797 0.44897 0.84534 0.0
H263 H 0.82649 0.46903 0.79372 0.0
C264 C 0.52421 0.78479 0.19343 0.0
C265 C 0.51829 0.81619 0.17691 0.0
C266 C 0.52065 0.77807 0.2389 0.0
C267 C 0.51037 0.80319 0.26817 0.0
C268 C 0.50257 0.83436 0.25097 0.0
C269 C 0.50696 0.84054 0.20575 0.0
C270 C 0.52956 0.74465 0.25594 0.0
C271 C 0.49084 0.8617 0.28065 0.0
C272 C 0.47876 0.78847 0.38451 0.0
C273 C 0.50496 0.79984 0.41074 0.0
C274 C 0.4807 0.78769 0.33798 0.0
C275 C 0.50969 0.79806 0.31715 0.0
C276 C 0.53697 0.8073 0.3436 0.0
C277 C 0.53419 0.80833 0.38999 0.0
C278 C 0.45096 0.77792 0.31115 0.0
C279 C 0.56856 0.81795 0.32284 0.0
H280 H 0.5333 0.766 0.17131 0.0
H281 H 0.50218 0.8648 0.19305 0.0
H282 H 0.55213 0.74644 0.2764 0.0
H283 H 0.51007 0.73507 0.27755 0.0
H284 H 0.53377 0.7269 0.2286 0.0
H285 H 0.4832 0.88356 0.26157 0.0
H286 H 0.46994 0.85334 0.30073 0.0
H287 H 0.51064 0.869 0.30402 0.0
H288 H 0.45602 0.78188 0.40014 0.0
H289 H 0.55465 0.81687 0.40995 0.0
H290 H 0.45761 0.76056 0.28436 0.0
H291 H 0.4404 0.79988 0.29515 0.0
H292 H 0.43191 0.76652 0.33195 0.0
H293 H 0.57611 0.8002 0.29697 0.0
H294 H 0.5886 0.82043 0.3477 0.0
H295 H 0.56505 0.8419 0.30649 0.0
C296 C 0.24753 0.46668 0.88075 0.0
C297 C 0.22362 0.47911 0.90922 0.0
C298 C 0.24947 0.47708 0.83653 0.0
C299 C 0.22663 0.50005 0.82016 0.0
C300 C 0.20281 0.51311 0.84897 0.0
C301 C 0.20178 0.5027 0.89321 0.0
C302 C 0.2756 0.46304 0.80712 0.0
C303 C 0.1778 0.53741 0.83274 0.0
C304 C 0.24229 0.54906 0.71588 0.0
C305 C 0.22339 0.53216 0.68416 0.0
C306 C 0.24453 0.53821 0.75987 0.0
C307 C 0.22708 0.51003 0.7727 0.0
C308 C 0.20873 0.49229 0.74054 0.0
C309 C 0.20731 0.50343 0.69657 0.0
C310 C 0.26481 0.55749 0.79291 0.0
C311 C 0.18954 0.46228 0.75295 0.0
H312 H 0.26456 0.44852 0.8929 0.0
H313 H 0.18307 0.51227 0.91484 0.0
H314 H 0.26418 0.44879 0.77968 0.0
H315 H 0.28985 0.48303 0.7919 0.0
H316 H 0.29262 0.44683 0.82553 0.0
H317 H 0.16112 0.54551 0.85944 0.0
H318 H 0.19013 0.5592 0.81904 0.0
H319 H 0.163 0.52635 0.80554 0.0
H320 H 0.25497 0.57117 0.7065 0.0
H321 H 0.19254 0.49032 0.67234 0.0
H322 H 0.28203 0.54111 0.81058 0.0
H323 H 0.24872 0.56861 0.81819 0.0
H324 H 0.27895 0.57727 0.77695 0.0
H325 H 0.20572 0.44421 0.7693 0.0
H326 H 0.17764 0.45045 0.72375 0.0
H327 H 0.17041 0.46905 0.77709 0.0
C328 C 0.51938 0.23002 0.39019 0.0
C329 C 0.50089 0.20597 0.41148 0.0
C330 C 0.51495 0.2365 0.3448 0.0
C331 C 0.4914 0.21859 0.32003 0.0
C332 C 0.47201 0.19498 0.34161 0.0
C333 C 0.47699 0.18895 0.38697 0.0
C334 C 0.53607 0.2619 0.32308 0.0
C335 C 0.44649 0.17547 0.3165 0.0
C336 C 0.45925 0.24889 0.20884 0.0
C337 C 0.476 0.22878 0.17885 0.0
C338 C 0.46474 0.24659 0.25479 0.0
C339 C 0.4876 0.22368 0.27127 0.0
C340 C 0.50558 0.20429 0.2411 0.0
C341 C 0.49957 0.20705 0.19532 0.0
C342 C 0.44512 0.26779 0.28577 0.0
C343 C 0.53032 0.17969 0.25725 0.0
H344 H 0.53794 0.2433 0.40873 0.0
H345 H 0.46253 0.17037 0.40302 0.0
H346 H 0.55158 0.2501 0.29769 0.0
H347 H 0.52064 0.28016 0.30581 0.0
H348 H 0.55212 0.27486 0.34733 0.0
H349 H 0.43257 0.15894 0.33843 0.0
H350 H 0.42909 0.19214 0.29968 0.0
H351 H 0.45831 0.16053 0.2904 0.0
H352 H 0.441 0.26579 0.19656 0.0
H353 H 0.51269 0.19142 0.17252 0.0
H354 H 0.46151 0.28086 0.30939 0.0
H355 H 0.42866 0.25224 0.30559 0.0
H356 H 0.43012 0.28605 0.26771 0.0
H357 H 0.54816 0.1916 0.28005 0.0
H358 H 0.54379 0.16805 0.22958 0.0
H359 H 0.51784 0.16029 0.27621 0.0
C360 C 0.92179 0.47971 1.00389 0.0
C361 C 0.91196 0.51204 1.01179 0.0
C362 C 0.95489 0.47126 1.00251 0.0
C363 C 0.97885 0.4957 1.00938 0.0
C364 C 0.96917 0.52841 1.01735 0.0
C365 C 0.9358 0.53623 1.01836 0.0
C366 C 0.96422 0.43615 0.9937 0.0
C367 C 0.99405 0.55512 0.025 0.0
C368 C 0.06374 0.46875 0.04527 0.0
C369 C 0.08089 0.47041 1.00534 0.0
C370 C 0.03055 0.47701 0.0471 0.0
C371 C 0.01405 0.48696 1.00802 0.0
C372 C 0.03109 0.48819 0.96749 0.0
C373 C 0.0643 0.47997 0.96666 0.0
C374 C 0.0132 0.47542 0.09096 0.0
C375 C 0.01428 0.49841 0.92505 0.0
H376 H 0.90356 0.46084 0.9987 0.0
H377 H 0.92842 0.56123 0.02462 0.0
H378 H 0.97956 0.43457 0.96369 0.0
H379 H 0.97895 0.42664 1.02182 0.0
H380 H 0.9426 0.4201 0.98883 0.0
H381 H 0.98255 0.57928 0.03096 0.0
H382 H 0.00973 0.54907 0.05398 0.0
H383 H 0.0102 0.55701 0.99584 0.0
H384 H 0.07638 0.46154 0.07537 0.0
H385 H 0.07733 0.48132 0.93565 0.0
H386 H 0.99222 0.45837 0.08842 0.0
H387 H 0.00332 0.49983 0.09964 0.0
H388 H 0.02952 0.46724 0.11831 0.0
H389 H 0.99327 0.48204 0.9179 0.0
H390 H 0.03091 0.49782 0.89622 0.0
H391 H 0.0045 0.52352 0.92871 0.0
C392 C 0.47446 0.93932 0.52664 0.0
C393 C 0.49797 0.91757 0.54313 0.0
C394 C 0.48189 0.97255 0.52066 0.0
C395 C 0.51358 0.98421 0.53126 0.0
C396 C 0.53737 0.96236 0.54786 0.0
C397 C 0.52927 0.92939 0.55368 0.0
C398 C 0.45583 0.99518 0.5031 0.0
C399 C 0.57146 0.9738 0.55946 0.0
C400 C 0.54383 0.06361 0.48115 0.0
C401 C 0.54004 0.08561 0.51656 0.0
C402 C 0.535 0.03059 0.48528 0.0
C403 C 0.52191 0.01936 0.5257 0.0
C404 C 0.51784 0.04149 0.56144 0.0
C405 C 0.52703 0.07427 0.5565 0.0
C406 C 0.5399 0.00767 0.44652 0.0
C407 C 0.50389 0.03049 0.60503 0.0
H408 H 0.45025 0.9304 0.51836 0.0
H409 H 0.54767 0.91281 0.56633 0.0
H410 H 0.45139 0.01512 0.52738 0.0
H411 H 0.46413 0.00674 0.47203 0.0
H412 H 0.43244 0.9823 0.49633 0.0
H413 H 0.58725 0.95361 0.57147 0.0
H414 H 0.58297 0.98487 0.53001 0.0
H415 H 0.57049 0.99297 0.58557 0.0
H416 H 0.55378 0.07214 0.45016 0.0
H417 H 0.52381 0.09109 0.584 0.0
H418 H 0.51642 0.99593 0.43708 0.0
H419 H 0.55701 0.98789 0.45607 0.0
H420 H 0.54975 0.02035 0.41709 0.0
H421 H 0.47956 0.01922 0.5995 0.0
H422 H 0.50137 0.05096 0.62911 0.0
H423 H 0.51985 0.01158 0.61997 0.0
C424 C 0.06756 0.5379 0.55476 0.0
C425 C 0.08851 0.52103 0.52622 0.0
C426 C 0.03383 0.5317 0.55408 0.0
C427 C 0.02078 0.50854 0.52361 0.0
C428 C 0.0418 0.49182 0.49432 0.0
C429 C 0.07541 0.49808 0.49622 0.0
C430 C 0.01218 0.54975 0.58615 0.0
C431 C 0.02879 0.46739 0.4608 0.0
C432 C 0.93757 0.47058 0.54405 0.0
C433 C 0.91734 0.48971 0.51695 0.0
C434 C 0.97127 0.47667 0.54696 0.0
C435 C 0.98505 0.50216 0.52169 0.0
C436 C 0.96479 0.52123 0.49387 0.0
C437 C 0.93118 0.51491 0.49205 0.0
C438 C 0.99209 0.45598 0.57727 0.0
C439 C 0.97862 0.54828 0.46586 0.0
H440 H 0.07758 0.5555 0.57818 0.0
H441 H 0.09145 0.4851 0.47386 0.0
H442 H 0.99376 0.56423 0.56766 0.0
H443 H 0.99872 0.53203 0.60681 0.0
H444 H 0.0262 0.56648 0.60836 0.0
H445 H 0.04837 0.45673 0.44007 0.0
H446 H 0.01605 0.44727 0.47798 0.0
H447 H 0.01065 0.47931 0.43869 0.0
H448 H 0.927 0.4512 0.56357 0.0
H449 H 0.91574 0.52971 0.47086 0.0
H450 H 0.00497 0.47178 0.60182 0.0
H451 H 0.011 0.44309 0.55781 0.0
H452 H 0.97754 0.43755 0.59536 0.0
H453 H 0.99083 0.56676 0.48736 0.0
H454 H 0.95957 0.56068 0.44567 0.0
H455 H 0.99735 0.53826 0.44325 0.0
C456 C 0.47773 0.92965 0.04647 0.0
C457 C 0.50971 0.91931 0.03808 0.0
C458 C 0.47015 0.96291 0.05065 0.0
C459 C 0.49507 0.9865 0.04582 0.0
C460 C 0.52733 0.9763 0.03665 0.0
C461 C 0.53432 0.94277 0.03315 0.0
C462 C 0.43554 0.97277 0.06093 0.0
C463 C 0.55447 1.00079 0.03085 0.0
C464 C 0.46949 0.0738 1.02095 0.0
C465 C 0.47258 0.0887 0.0628 0.0
C466 C 0.47692 0.04059 1.01485 0.0
C467 C 0.48743 0.0218 0.05153 0.0
C468 C 0.49016 0.0366 0.09394 0.0
C469 C 0.48281 0.06987 0.09903 0.0
C470 C 0.47383 0.02568 0.96909 0.0
C471 C 0.50098 0.0173 0.13396 0.0
H472 H 0.45857 0.9117 0.05053 0.0
H473 H 0.55905 0.93496 0.0265 0.0
H474 H 0.43495 0.98632 0.09289 0.0
H475 H 0.42608 0.98944 0.03499 0.0
H476 H 0.41891 0.95142 0.06312 0.0
H477 H 0.57796 0.98895 1.02228 0.0
H478 H 0.5479 0.0183 1.00431 0.0
H479 H 0.55797 0.01513 0.06186 0.0
H480 H 0.46181 0.08821 0.99271 0.0
H481 H 0.48526 0.08116 0.13148 0.0
H482 H 0.45617 0.00514 0.96945 0.0
H483 H 0.49766 0.01552 0.95874 0.0
H484 H 0.46561 0.04368 0.94397 0.0
H485 H 0.48422 0.99639 0.13903 0.0
H486 H 0.50162 0.03239 0.16469 0.0
H487 H 0.52566 0.00707 0.12845 0.0
C488 C 0.28261 0.37172 0.08317 0.0
C489 C 0.25133 0.37245 0.06397 0.0
C490 C 0.30111 0.34298 0.08358 0.0
C491 C 0.28803 0.31408 0.06446 0.0
C492 C 0.2561 0.31432 0.04614 0.0
C493 C 0.23811 0.34356 0.04601 0.0
C494 C 0.33511 0.34384 0.10335 0.0
C495 C 0.2413 0.28392 0.02572 0.0
C496 C 0.35347 0.25581 0.02545 0.0
C497 C 0.35681 0.23495 0.06195 0.0
C498 C 0.32986 0.28053 0.02477 0.0
C499 C 0.30889 0.28444 0.06138 0.0
C500 C 0.31067 0.26216 0.09703 0.0
C501 C 0.33468 0.23766 0.09694 0.0
C502 C 0.3288 0.30374 0.98607 0.0
C503 C 0.28852 0.26536 0.13646 0.0
H504 H 0.29301 0.39384 0.09732 0.0
H505 H 0.21391 0.34389 0.03126 0.0
H506 H 0.33773 0.32477 0.12908 0.0
H507 H 0.35323 0.33846 0.07723 0.0
H508 H 0.34115 0.36792 0.11854 0.0
H509 H 0.21533 0.28744 1.01613 0.0
H510 H 0.25513 0.27685 0.99574 0.0
H511 H 0.243 0.26327 0.04925 0.0
H512 H 0.37023 0.25373 0.99802 0.0
H513 H 0.33694 0.22156 0.12517 0.0
H514 H 0.33731 0.32825 0.99712 0.0
H515 H 0.30345 0.3065 0.97351 0.0
H516 H 0.34443 0.29544 0.95833 0.0
H517 H 0.2956 0.28725 0.15619 0.0
H518 H 0.28985 0.24367 0.15832 0.0
H519 H 0.26286 0.26879 0.12545 0.0
C520 C 0.75664 0.35245 0.51802 0.0
C521 C 0.7752 0.35868 0.5565 0.0
C522 C 0.73188 0.32881 0.51752 0.0
C523 C 0.72556 0.31081 0.5564 0.0
C524 C 0.7458 0.31521 0.59429 0.0
C525 C 0.7704 0.33916 0.59392 0.0
C526 C 0.71094 0.32487 0.47636 0.0
C527 C 0.74004 0.29626 0.63623 0.0
C528 C 0.63663 0.28921 0.57194 0.0
C529 C 0.63547 0.25649 0.55793 0.0
C530 C 0.66598 0.30673 0.57271 0.0
C531 C 0.69507 0.2912 0.55918 0.0
C532 C 0.69436 0.25789 0.54615 0.0
C533 C 0.6645 0.24088 0.54564 0.0
C534 C 0.66561 0.34221 0.5869 0.0
C535 C 0.72494 0.24052 0.53173 0.0
H536 H 0.7604 0.36712 0.48873 0.0
H537 H 0.78475 0.34361 0.62371 0.0
H538 H 0.70783 0.29866 0.4678 0.0
H539 H 0.68633 0.33504 0.48265 0.0
H540 H 0.72142 0.33765 0.44742 0.0
H541 H 0.76077 0.29863 0.66002 0.0
H542 H 0.71772 0.30552 0.65252 0.0
H543 H 0.73606 0.27 0.62862 0.0
H544 H 0.61441 0.30146 0.58182 0.0
H545 H 0.66381 0.21557 0.5349 0.0
H546 H 0.67307 0.35783 0.55884 0.0
H547 H 0.68338 0.34637 0.61432 0.0
H548 H 0.64116 0.35026 0.59809 0.0
H549 H 0.73387 0.25139 0.50053 0.0
H550 H 0.72082 0.21399 0.52611 0.0
H551 H 0.74451 0.24371 0.55705 0.0
C552 C 0.76517 0.66946 0.08988 0.0
C553 C 0.77095 0.65048 0.05187 0.0
C554 C 0.7408 0.69355 0.09006 0.0
C555 C 0.72163 0.69858 0.05142 0.0
C556 C 0.72886 0.68108 1.01212 0.0
C557 C 0.75352 0.65735 1.01276 0.0
C558 C 0.73414 0.71202 0.13247 0.0
C559 C 0.70895 0.68561 0.97023 0.0
C560 C 0.633 0.72166 0.06688 0.0
C561 C 0.63275 0.75474 0.0551 0.0
C562 C 0.66183 0.70337 0.06617 0.0
C563 C 0.69136 0.71853 0.05372 0.0
C564 C 0.6915 0.75208 0.04256 0.0
C565 C 0.66211 0.76981 0.04318 0.0
C566 C 0.66051 0.66759 0.07807 0.0
C567 C 0.7226 0.7691 0.02955 0.0
H568 H 0.77871 0.66457 0.12014 0.0
H569 H 0.75792 0.643 0.9831 0.0
H570 H 0.73096 0.73844 0.12581 0.0
H571 H 0.71112 0.70299 0.14706 0.0
H572 H 0.75406 0.70893 0.15732 0.0
H573 H 0.72009 0.67318 0.94126 0.0
H574 H 0.68415 0.67543 0.97498 0.0
H575 H 0.70616 0.71193 0.96265 0.0
H576 H 0.61048 0.70975 0.07612 0.0
H577 H 0.66212 0.79539 0.03415 0.0
H578 H 0.67736 0.6626 0.1062 0.0
H579 H 0.66864 0.65251 0.04956 0.0
H580 H 0.63562 0.65959 0.08738 0.0
H581 H 0.74141 0.76607 0.05588 0.0
H582 H 0.71889 0.79561 0.0237 0.0
H583 H 0.73233 0.75782 0.99889 0.0
C584 C 0.34665 0.75825 0.47463 0.0
C585 C 0.3609 0.77311 0.51213 0.0
C586 C 0.3228 0.73386 0.47891 0.0
C587 C 0.31301 0.7241 0.52171 0.0
C588 C 0.32541 0.74079 0.5595 0.0
C589 C 0.34917 0.76515 0.55426 0.0
C590 C 0.30996 0.71687 0.43774 0.0
C591 C 0.31553 0.73123 0.60571 0.0
C592 C 0.24173 0.66497 0.53326 0.0
C593 C 0.25805 0.63492 0.53585 0.0
C594 C 0.25919 0.69437 0.52875 0.0
C595 C 0.29369 0.6936 0.52713 0.0
C596 C 0.31021 0.66335 0.53033 0.0
C597 C 0.29221 0.63446 0.5345 0.0
C598 C 0.24079 0.72616 0.52524 0.0
C599 C 0.34699 0.66142 0.52909 0.0
H600 H 0.3553 0.76442 0.4419 0.0
H601 H 0.3598 0.77666 0.58346 0.0
H602 H 0.32052 0.69197 0.43562 0.0
H603 H 0.28307 0.71416 0.43914 0.0
H604 H 0.3163 0.73025 0.40709 0.0
H605 H 0.32362 0.74946 0.63096 0.0
H606 H 0.28869 0.72838 0.60771 0.0
H607 H 0.32661 0.70731 0.61407 0.0
H608 H 0.21532 0.6655 0.53417 0.0
H609 H 0.30506 0.6114 0.5367 0.0
H610 H 0.24596 0.73782 0.49297 0.0
H611 H 0.24909 0.74334 0.55161 0.0
H612 H 0.21401 0.7227 0.52806 0.0
H613 H 0.35594 0.67126 0.49727 0.0
H614 H 0.35608 0.63601 0.53271 0.0
H615 H 0.35775 0.6766 0.55611 0.0
loop_
_geom_bond_atom_site_label_1
_geom_bond_atom_site_label_2
_geom_bond_distance
_geom_bond_site_symmetry_2
_ccdc_geom_bond_type
Mg0 O7 2.141 . S
Mg0 O8 2.048 . S
Mg0 O9 2.048 1_554 S
Mg0 O12 2.141 . S
C1 O2 1.313 . S
C1 O8 1.195 . S
O2 C1 1.313 . S
C3 O4 1.245 . S
C3 O12 1.289 . S
O4 C3 1.245 . S
C5 O6 1.245 . S
C5 O7 1.289 . S
O6 C5 1.245 . S
O7 Mg0 2.141 . S
O7 C5 1.289 . S
O8 Mg0 2.048 . S
O8 C1 1.195 . S
O9 Mg0 2.048 1_556 S
O9 C10 1.195 . S
C10 O9 1.195 . S
C10 O11 1.313 . S
O11 C10 1.313 . S
O12 Mg0 2.141 . S
O12 C3 1.289 . S
Mg13 O20 2.141 . S
Mg13 O21 2.048 . S
Mg13 O22 2.048 . S
Mg13 O25 2.141 . S
C14 O15 1.313 . S
C14 O21 1.195 . S
O15 C14 1.313 . S
C16 O17 1.245 . S
C16 O25 1.289 . S
O17 C16 1.245 . S
C18 O19 1.245 . S
C18 O20 1.289 . S
O19 C18 1.245 . S
O20 Mg13 2.141 . S
O20 C18 1.289 . S
O21 Mg13 2.048 . S
O21 C14 1.195 . S
O22 Mg13 2.048 . S
O22 C23 1.195 . S
C23 O22 1.195 . S
C23 O24 1.313 . S
O24 C23 1.313 . S
O25 Mg13 2.141 . S
O25 C16 1.289 . S
Mg26 O33 2.141 . S
Mg26 O34 2.048 . S
Mg26 O35 2.048 1_554 S
Mg26 O38 2.141 . S
C27 O28 1.313 . S
C27 O34 1.195 . S
O28 C27 1.313 . S
C29 O30 1.245 . S
C29 O38 1.289 . S
O30 C29 1.245 . S
C31 O32 1.245 . S
C31 O33 1.289 . S
O32 C31 1.245 . S
O33 Mg26 2.141 . S
O33 C31 1.289 . S
O34 Mg26 2.048 . S
O34 C27 1.195 . S
O35 Mg26 2.048 1_556 S
O35 C36 1.195 . S
C36 O35 1.195 . S
C36 O37 1.313 . S
O37 C36 1.313 . S
O38 Mg26 2.141 . S
O38 C29 1.289 . S
Mg39 O46 2.141 . S
Mg39 O47 2.048 . S
Mg39 O48 2.048 . S
Mg39 O51 2.141 . S
C40 O41 1.313 . S
C40 O47 1.195 . S
O41 C40 1.313 . S
C42 O43 1.245 . S
C42 O51 1.289 . S
O43 C42 1.245 . S
C44 O45 1.245 . S
C44 O46 1.289 . S
O45 C44 1.245 . S
O46 Mg39 2.141 . S
O46 C44 1.289 . S
O47 Mg39 2.048 . S
O47 C40 1.195 . S
O48 Mg39 2.048 . S
O48 C49 1.195 . S
C49 O48 1.195 . S
C49 O50 1.313 . S
O50 C49 1.313 . S
O51 Mg39 2.141 . S
O51 C42 1.289 . S
Mg52 O59 2.141 . S
Mg52 O60 2.048 . S
Mg52 O61 2.048 . S
Mg52 O64 2.141 . S
C53 O54 1.313 . S
C53 O60 1.195 . S
O54 C53 1.313 . S
C55 O56 1.245 . S
C55 O64 1.289 . S
O56 C55 1.245 . S
C57 O58 1.245 . S
C57 O59 1.289 . S
O58 C57 1.245 . S
O59 Mg52 2.141 . S
O59 C57 1.289 . S
O60 Mg52 2.048 . S
O60 C53 1.195 . S
O61 Mg52 2.048 . S
O61 C62 1.195 . S
C62 O61 1.195 . S
C62 O63 1.313 . S
O63 C62 1.313 . S
O64 Mg52 2.141 . S
O64 C55 1.289 . S
Mg65 O72 2.141 . S
Mg65 O73 2.048 . S
Mg65 O74 2.048 . S
Mg65 O77 2.141 1_554 S
C66 O67 1.313 . S
C66 O73 1.195 . S
O67 C66 1.313 . S
C68 O69 1.245 . S
C68 O77 1.289 . S
O69 C68 1.245 . S
C70 O71 1.245 . S
C70 O72 1.289 . S
O71 C70 1.245 . S
O72 Mg65 2.141 . S
O72 C70 1.289 . S
O73 Mg65 2.048 . S
O73 C66 1.195 . S
O74 Mg65 2.048 . S
O74 C75 1.195 . S
C75 O74 1.195 . S
C75 O76 1.313 . S
O76 C75 1.313 . S
O77 Mg65 2.141 1_556 S
O77 C68 1.289 . S
Mg78 O85 2.141 . S
Mg78 O86 2.048 . S
Mg78 O87 2.048 . S
Mg78 O90 2.141 . S
C79 O80 1.313 . S
C79 O86 1.195 . S
O80 C79 1.313 . S
C81 O82 1.245 . S
C81 O90 1.289 . S
O82 C81 1.245 . S
C83 O84 1.245 . S
C83 O85 1.289 . S
O84 C83 1.245 . S
O85 Mg78 2.141 . S
O85 C83 1.289 . S
O86 Mg78 2.048 . S
O86 C79 1.195 . S
O87 Mg78 2.048 . S
O87 C88 1.195 . S
C88 O87 1.195 . S
C88 O89 1.313 . S
O89 C88 1.313 . S
O90 Mg78 2.141 . S
O90 C81 1.289 . S
Mg91 O98 2.141 . S
Mg91 O99 2.048 . S
Mg91 O100 2.048 . S
Mg91 O103 2.141 1_554 S
C92 O93 1.313 . S
C92 O99 1.195 . S
O93 C92 1.313 . S
C94 O95 1.245 . S
C94 O103 1.289 . S
O95 C94 1.245 . S
C96 O97 1.245 . S
C96 O98 1.289 . S
O97 C96 1.245 . S
O98 Mg91 2.141 . S
O98 C96 1.289 . S
O99 Mg91 2.048 . S
O99 C92 1.195 . S
O100 Mg91 2.048 . S
O100 C101 1.195 . S
C101 O100 1.195 . S
C101 O102 1.313 . S
O102 C101 1.313 . S
O103 Mg91 2.141 1_556 S
O103 C94 1.289 . S
C104 C105 1.391 . S
C104 C106 1.394 . S
C104 H120 0.931 . S
C105 C104 1.391 . S
C105 C109 1.376 . S
C106 C104 1.394 . S
C106 C107 1.369 . S
C106 C110 1.531 . S
C107 C106 1.369 . S
C107 C108 1.410 . S
C107 C115 1.503 . S
C108 C107 1.410 . S
C108 C109 1.392 . S
C108 C111 1.511 . S
C109 C105 1.376 . S
C109 C108 1.392 . S
C109 H121 0.929 . S
C110 C106 1.531 . S
C110 H122 0.960 . S
C110 H123 0.962 . S
C110 H124 0.960 . S
C111 C108 1.511 . S
C111 H125 0.961 . S
C111 H126 0.961 . S
C111 H127 0.961 . S
C112 C113 1.370 . S
C112 C114 1.363 . S
C112 H128 0.931 . S
C113 C112 1.370 . S
C113 C117 1.408 . S
C114 C112 1.363 . S
C114 C115 1.370 . S
C114 C118 1.524 . S
C115 C107 1.503 . S
C115 C114 1.370 . S
C115 C116 1.403 . S
C116 C115 1.403 . S
C116 C117 1.404 . S
C116 C119 1.539 . S
C117 C113 1.408 . S
C117 C116 1.404 . S
C117 H129 0.930 . S
C118 C114 1.524 . S
C118 H130 0.956 . S
C118 H131 0.961 . S
C118 H132 0.961 . S
C119 C116 1.539 . S
C119 H133 0.958 . S
C119 H134 0.961 . S
C119 H135 0.960 . S
H120 C104 0.931 . S
H121 C109 0.929 . S
H122 C110 0.960 . S
H123 C110 0.962 . S
H124 C110 0.960 . S
H125 C111 0.961 . S
H126 C111 0.961 . S
H127 C111 0.961 . S
H128 C112 0.931 . S
H129 C117 0.930 . S
H130 C118 0.956 . S
H131 C118 0.961 . S
H132 C118 0.961 . S
H133 C119 0.958 . S
H134 C119 0.961 . S
H135 C119 0.960 . S
C136 C137 1.391 . S
C136 C138 1.394 . S
C136 H152 0.931 . S
C137 C136 1.391 . S
C137 C141 1.376 . S
C138 C136 1.394 . S
C138 C139 1.369 . S
C138 C142 1.531 . S
C139 C138 1.369 . S
C139 C140 1.410 . S
C139 C147 1.503 . S
C140 C139 1.410 . S
C140 C141 1.392 . S
C140 C143 1.511 . S
C141 C137 1.376 . S
C141 C140 1.392 . S
C141 H153 0.929 . S
C142 C138 1.531 . S
C142 H154 0.960 . S
C142 H155 0.962 . S
C142 H156 0.960 . S
C143 C140 1.511 . S
C143 H157 0.961 . S
C143 H158 0.961 . S
C143 H159 0.961 . S
C144 C145 1.370 . S
C144 C146 1.363 . S
C144 H160 0.931 . S
C145 C144 1.370 . S
C145 C149 1.408 . S
C146 C144 1.363 . S
C146 C147 1.370 . S
C146 C150 1.524 . S
C147 C139 1.503 . S
C147 C146 1.370 . S
C147 C148 1.403 . S
C148 C147 1.403 . S
C148 C149 1.404 . S
C148 C151 1.539 . S
C149 C145 1.408 . S
C149 C148 1.404 . S
C149 H161 0.930 . S
C150 C146 1.524 . S
C150 H162 0.956 . S
C150 H163 0.961 . S
C150 H164 0.961 . S
C151 C148 1.539 . S
C151 H165 0.958 . S
C151 H166 0.961 . S
C151 H167 0.960 . S
H152 C136 0.931 . S
H153 C141 0.929 . S
H154 C142 0.960 . S
H155 C142 0.962 . S
H156 C142 0.960 . S
H157 C143 0.961 . S
H158 C143 0.961 . S
H159 C143 0.961 . S
H160 C144 0.931 . S
H161 C149 0.930 . S
H162 C150 0.956 . S
H163 C150 0.961 . S
H164 C150 0.961 . S
H165 C151 0.958 . S
H166 C151 0.961 . S
H167 C151 0.960 . S
C168 C169 1.391 . S
C168 C170 1.394 . S
C168 H184 0.931 . S
C169 C168 1.391 . S
C169 C173 1.376 . S
C170 C168 1.394 . S
C170 C171 1.369 . S
C170 C174 1.531 . S
C171 C170 1.369 . S
C171 C172 1.410 . S
C171 C179 1.503 . S
C172 C171 1.410 . S
C172 C173 1.392 . S
C172 C175 1.511 . S
C173 C169 1.376 . S
C173 C172 1.392 . S
C173 H185 0.929 . S
C174 C170 1.531 . S
C174 H186 0.960 . S
C174 H187 0.962 . S
C174 H188 0.960 . S
C175 C172 1.511 . S
C175 H189 0.961 . S
C175 H190 0.961 . S
C175 H191 0.961 . S
C176 C177 1.370 . S
C176 C178 1.363 . S
C176 H192 0.931 . S
C177 C176 1.370 . S
C177 C181 1.408 . S
C178 C176 1.363 . S
C178 C179 1.370 . S
C178 C182 1.524 . S
C179 C171 1.503 . S
C179 C178 1.370 . S
C179 C180 1.403 . S
C180 C179 1.403 . S
C180 C181 1.404 . S
C180 C183 1.539 . S
C181 C177 1.408 . S
C181 C180 1.404 . S
C181 H193 0.930 . S
C182 C178 1.524 . S
C182 H194 0.956 . S
C182 H195 0.961 . S
C182 H196 0.961 . S
C183 C180 1.539 . S
C183 H197 0.958 . S
C183 H198 0.961 . S
C183 H199 0.960 . S
H184 C168 0.931 . S
H185 C173 0.929 . S
H186 C174 0.960 . S
H187 C174 0.962 . S
H188 C174 0.960 . S
H189 C175 0.961 . S
H190 C175 0.961 . S
H191 C175 0.961 . S
H192 C176 0.931 . S
H193 C181 0.930 . S
H194 C182 0.956 . S
H195 C182 0.961 . S
H196 C182 0.961 . S
H197 C183 0.958 . S
H198 C183 0.961 . S
H199 C183 0.960 . S
C200 C201 1.391 . S
C200 C202 1.394 . S
C200 H216 0.931 . S
C201 C200 1.391 . S
C201 C205 1.376 . S
C202 C200 1.394 . S
C202 C203 1.369 . S
C202 C206 1.531 . S
C203 C202 1.369 . S
C203 C204 1.410 . S
C203 C211 1.503 . S
C204 C203 1.410 . S
C204 C205 1.392 . S
C204 C207 1.511 . S
C205 C201 1.376 . S
C205 C204 1.392 . S
C205 H217 0.929 . S
C206 C202 1.531 . S
C206 H218 0.960 . S
C206 H219 0.962 . S
C206 H220 0.960 . S
C207 C204 1.511 . S
C207 H221 0.961 . S
C207 H222 0.961 . S
C207 H223 0.961 . S
C208 C209 1.370 . S
C208 C210 1.363 . S
C208 H224 0.931 . S
C209 C208 1.370 . S
C209 C213 1.408 . S
C210 C208 1.363 . S
C210 C211 1.370 . S
C210 C214 1.524 . S
C211 C203 1.503 . S
C211 C210 1.370 . S
C211 C212 1.403 . S
C212 C211 1.403 . S
C212 C213 1.404 . S
C212 C215 1.539 . S
C213 C209 1.408 . S
C213 C212 1.404 . S
C213 H225 0.930 . S
C214 C210 1.524 . S
C214 H226 0.956 . S
C214 H227 0.961 . S
C214 H228 0.961 . S
C215 C212 1.539 . S
C215 H229 0.958 . S
C215 H230 0.961 . S
C215 H231 0.960 . S
H216 C200 0.931 . S
H217 C205 0.929 . S
H218 C206 0.960 . S
H219 C206 0.962 . S
H220 C206 0.960 . S
H221 C207 0.961 . S
H222 C207 0.961 . S
H223 C207 0.961 . S
H224 C208 0.931 . S
H225 C213 0.930 . S
H226 C214 0.956 . S
H227 C214 0.961 . S
H228 C214 0.961 . S
H229 C215 0.958 . S
H230 C215 0.961 . S
H231 C215 0.960 . S
C232 C233 1.391 . S
C232 C234 1.394 . S
C232 H248 0.931 . S
C233 C232 1.391 . S
C233 C237 1.376 . S
C234 C232 1.394 . S
C234 C235 1.369 . S
C234 C238 1.531 . S
C235 C234 1.369 . S
C235 C236 1.410 . S
C235 C243 1.503 . S
C236 C235 1.410 . S
C236 C237 1.392 . S
C236 C239 1.511 . S
C237 C233 1.376 . S
C237 C236 1.392 . S
C237 H249 0.929 . S
C238 C234 1.531 . S
C238 H250 0.960 . S
C238 H251 0.962 . S
C238 H252 0.960 . S
C239 C236 1.511 . S
C239 H253 0.961 . S
C239 H254 0.961 . S
C239 H255 0.961 . S
C240 C241 1.370 . S
C240 C242 1.363 . S
C240 H256 0.931 . S
C241 C240 1.370 . S
C241 C245 1.408 . S
C242 C240 1.363 . S
C242 C243 1.370 . S
C242 C246 1.524 . S
C243 C235 1.503 . S
C243 C242 1.370 . S
C243 C244 1.403 . S
C244 C243 1.403 . S
C244 C245 1.404 . S
C244 C247 1.539 . S
C245 C241 1.408 . S
C245 C244 1.404 . S
C245 H257 0.930 . S
C246 C242 1.524 . S
C246 H258 0.956 . S
C246 H259 0.961 . S
C246 H260 0.961 . S
C247 C244 1.539 . S
C247 H261 0.958 . S
C247 H262 0.961 . S
C247 H263 0.960 . S
H248 C232 0.931 . S
H249 C237 0.929 . S
H250 C238 0.960 . S
H251 C238 0.962 . S
H252 C238 0.960 . S
H253 C239 0.961 . S
H254 C239 0.961 . S
H255 C239 0.961 . S
H256 C240 0.931 . S
H257 C245 0.930 . S
H258 C246 0.956 . S
H259 C246 0.961 . S
H260 C246 0.961 . S
H261 C247 0.958 . S
H262 C247 0.961 . S
H263 C247 0.960 . S
C264 C265 1.391 . S
C264 C266 1.394 . S
C264 H280 0.931 . S
C265 C264 1.391 . S
C265 C269 1.376 . S
C266 C264 1.394 . S
C266 C267 1.369 . S
C266 C270 1.531 . S
C267 C266 1.369 . S
C267 C268 1.410 . S
C267 C275 1.503 . S
C268 C267 1.410 . S
C268 C269 1.392 . S
C268 C271 1.511 . S
C269 C265 1.376 . S
C269 C268 1.392 . S
C269 H281 0.929 . S
C270 C266 1.531 . S
C270 H282 0.960 . S
C270 H283 0.962 . S
C270 H284 0.960 . S
C271 C268 1.511 . S
C271 H285 0.961 . S
C271 H286 0.961 . S
C271 H287 0.961 . S
C272 C273 1.370 . S
C272 C274 1.363 . S
C272 H288 0.931 . S
C273 C272 1.370 . S
C273 C277 1.408 . S
C274 C272 1.363 . S
C274 C275 1.370 . S
C274 C278 1.524 . S
C275 C267 1.503 . S
C275 C274 1.370 . S
C275 C276 1.403 . S
C276 C275 1.403 . S
C276 C277 1.404 . S
C276 C279 1.539 . S
C277 C273 1.408 . S
C277 C276 1.404 . S
C277 H289 0.930 . S
C278 C274 1.524 . S
C278 H290 0.956 . S
C278 H291 0.961 . S
C278 H292 0.961 . S
C279 C276 1.539 . S
C279 H293 0.958 . S
C279 H294 0.961 . S
C279 H295 0.960 . S
H280 C264 0.931 . S
H281 C269 0.929 . S
H282 C270 0.960 . S
H283 C270 0.962 . S
H284 C270 0.960 . S
H285 C271 0.961 . S
H286 C271 0.961 . S
H287 C271 0.961 . S
H288 C272 0.931 . S
H289 C277 0.930 . S
H290 C278 0.956 . S
H291 C278 0.961 . S
H292 C278 0.961 . S
H293 C279 0.958 . S
H294 C279 0.961 . S
H295 C279 0.960 . S
C296 C297 1.391 . S
C296 C298 1.394 . S
C296 H312 0.931 . S
C297 C296 1.391 . S
C297 C301 1.376 . S
C298 C296 1.394 . S
C298 C299 1.369 . S
C298 C302 1.531 . S
C299 C298 1.369 . S
C299 C300 1.410 . S
C299 C307 1.503 . S
C300 C299 1.410 . S
C300 C301 1.392 . S
C300 C303 1.511 . S
C301 C297 1.376 . S
C301 C300 1.392 . S
C301 H313 0.929 . S
C302 C298 1.531 . S
C302 H314 0.960 . S
C302 H315 0.962 . S
C302 H316 0.960 . S
C303 C300 1.511 . S
C303 H317 0.961 . S
C303 H318 0.961 . S
C303 H319 0.961 . S
C304 C305 1.370 . S
C304 C306 1.363 . S
C304 H320 0.931 . S
C305 C304 1.370 . S
C305 C309 1.408 . S
C306 C304 1.363 . S
C306 C307 1.370 . S
C306 C310 1.524 . S
C307 C299 1.503 . S
C307 C306 1.370 . S
C307 C308 1.403 . S
C308 C307 1.403 . S
C308 C309 1.404 . S
C308 C311 1.539 . S
C309 C305 1.408 . S
C309 C308 1.404 . S
C309 H321 0.930 . S
C310 C306 1.524 . S
C310 H322 0.956 . S
C310 H323 0.961 . S
C310 H324 0.961 . S
C311 C308 1.539 . S
C311 H325 0.958 . S
C311 H326 0.961 . S
C311 H327 0.960 . S
H312 C296 0.931 . S
H313 C301 0.929 . S
H314 C302 0.960 . S
H315 C302 0.962 . S
H316 C302 0.960 . S
H317 C303 0.961 . S
H318 C303 0.961 . S
H319 C303 0.961 . S
H320 C304 0.931 . S
H321 C309 0.930 . S
H322 C310 0.956 . S
H323 C310 0.961 . S
H324 C310 0.961 . S
H325 C311 0.958 . S
H326 C311 0.961 . S
H327 C311 0.960 . S
C328 C329 1.391 . S
C328 C330 1.394 . S
C328 H344 0.931 . S
C329 C328 1.391 . S
C329 C333 1.376 . S
C330 C328 1.394 . S
C330 C331 1.369 . S
C330 C334 1.531 . S
C331 C330 1.369 . S
C331 C332 1.410 . S
C331 C339 1.503 . S
C332 C331 1.410 . S
C332 C333 1.392 . S
C332 C335 1.511 . S
C333 C329 1.376 . S
C333 C332 1.392 . S
C333 H345 0.929 . S
C334 C330 1.531 . S
C334 H346 0.960 . S
C334 H347 0.962 . S
C334 H348 0.960 . S
C335 C332 1.511 . S
C335 H349 0.961 . S
C335 H350 0.961 . S
C335 H351 0.961 . S
C336 C337 1.370 . S
C336 C338 1.363 . S
C336 H352 0.931 . S
C337 C336 1.370 . S
C337 C341 1.408 . S
C338 C336 1.363 . S
C338 C339 1.370 . S
C338 C342 1.524 . S
C339 C331 1.503 . S
C339 C338 1.370 . S
C339 C340 1.403 . S
C340 C339 1.403 . S
C340 C341 1.404 . S
C340 C343 1.539 . S
C341 C337 1.408 . S
C341 C340 1.404 . S
C341 H353 0.930 . S
C342 C338 1.524 . S
C342 H354 0.956 . S
C342 H355 0.961 . S
C342 H356 0.961 . S
C343 C340 1.539 . S
C343 H357 0.958 . S
C343 H358 0.961 . S
C343 H359 0.960 . S
H344 C328 0.931 . S
H345 C333 0.929 . S
H346 C334 0.960 . S
H347 C334 0.962 . S
H348 C334 0.960 . S
H349 C335 0.961 . S
H350 C335 0.961 . S
H351 C335 0.961 . S
H352 C336 0.931 . S
H353 C341 0.930 . S
H354 C342 0.956 . S
H355 C342 0.961 . S
H356 C342 0.961 . S
H357 C343 0.958 . S
H358 C343 0.961 . S
H359 C343 0.960 . S
C360 C361 1.391 . S
C360 C362 1.394 . S
C360 H376 0.931 . S
C361 C360 1.391 . S
C361 C365 1.376 . S
C362 C360 1.394 . S
C362 C363 1.369 . S
C362 C366 1.531 . S
C363 C362 1.369 . S
C363 C364 1.410 . S
C363 C371 1.503 1_655 S
C364 C363 1.410 . S
C364 C365 1.392 . S
C364 C367 1.511 . S
C365 C361 1.376 . S
C365 C364 1.392 . S
C365 H377 0.929 . S
C366 C362 1.531 . S
C366 H378 0.960 1_654 S
C366 H379 0.962 . S
C366 H380 0.960 1_554 S
C367 C364 1.511 . S
C367 H381 0.961 . S
C367 H382 0.961 . S
C367 H383 0.961 1_554 S
C368 C369 1.370 . S
C368 C370 1.363 . S
C368 H384 0.931 . S
C369 C368 1.370 . S
C369 C373 1.408 1_554 S
C370 C368 1.363 . S
C370 C371 1.370 . S
C370 C374 1.524 . S
C371 C363 1.503 1_455 S
C371 C370 1.370 . S
C371 C372 1.403 1_554 S
C372 C371 1.403 1_556 S
C372 C373 1.404 . S
C372 C375 1.539 . S
C373 C369 1.408 1_556 S
C373 C372 1.404 . S
C373 H385 0.930 . S
C374 C370 1.524 . S
C374 H386 0.956 . S
C374 H387 0.961 1_455 S
C374 H388 0.961 . S
C375 C372 1.539 . S
C375 H389 0.958 . S
C375 H390 0.961 . S
C375 H391 0.927 1_455 S
H376 C360 0.931 . S
H377 C365 0.929 . S
H378 C366 0.960 1_456 S
H379 C366 0.962 . S
H380 C366 0.960 1_556 S
H381 C367 0.961 . S
H382 C367 0.961 . S
H383 C367 0.961 1_556 S
H384 C368 0.931 . S
H385 C373 0.930 . S
H386 C374 0.956 . S
H387 C374 0.961 1_655 S
H388 C374 0.961 . S
H389 C375 0.958 . S
H390 C375 0.961 . S
H391 C375 0.927 1_655 S
C392 C393 1.391 . S
C392 C394 1.394 . S
C392 H408 0.931 . S
C393 C392 1.391 . S
C393 C397 1.376 . S
C394 C392 1.394 . S
C394 C395 1.369 . S
C394 C398 1.531 . S
C395 C394 1.369 . S
C395 C396 1.410 . S
C395 C403 1.503 1_565 S
C396 C395 1.410 . S
C396 C397 1.392 . S
C396 C399 1.511 . S
C397 C393 1.376 . S
C397 C396 1.392 . S
C397 H409 0.929 . S
C398 C394 1.531 . S
C398 H410 0.960 . S
C398 H411 0.962 . S
C398 H412 0.960 . S
C399 C396 1.511 . S
C399 H413 0.961 . S
C399 H414 0.961 1_565 S
C399 H415 0.961 . S
C400 C401 1.370 . S
C400 C402 1.363 . S
C400 H416 0.931 . S
C401 C400 1.370 . S
C401 C405 1.408 . S
C402 C400 1.363 . S
C402 C403 1.370 . S
C402 C406 1.524 . S
C403 C395 1.503 1_545 S
C403 C402 1.370 . S
C403 C404 1.403 . S
C404 C403 1.403 . S
C404 C405 1.404 . S
C404 C407 1.539 . S
C405 C401 1.408 . S
C405 C404 1.404 . S
C405 H417 0.930 . S
C406 C402 1.524 . S
C406 H418 0.934 1_545 S
C406 H419 0.973 . S
C406 H420 0.961 . S
C407 C404 1.539 . S
C407 H421 0.958 . S
C407 H422 0.961 . S
C407 H423 0.960 . S
H408 C392 0.931 . S
H409 C397 0.929 . S
H410 C398 0.960 . S
H411 C398 0.962 . S
H412 C398 0.960 . S
H413 C399 0.961 . S
H414 C399 0.961 1_545 S
H415 C399 0.961 . S
H416 C400 0.931 . S
H417 C405 0.930 . S
H418 C406 0.934 1_565 S
H419 C406 0.973 . S
H420 C406 0.961 . S
H421 C407 0.958 . S
H422 C407 0.961 . S
H423 C407 0.960 . S
C424 C425 1.391 . S
C424 C426 1.394 . S
C424 H440 0.931 . S
C425 C424 1.391 . S
C425 C429 1.376 . S
C426 C424 1.394 . S
C426 C427 1.369 . S
C426 C430 1.531 . S
C427 C426 1.369 . S
C427 C428 1.410 . S
C427 C435 1.503 1_455 S
C428 C427 1.410 . S
C428 C429 1.392 . S
C428 C431 1.511 . S
C429 C425 1.376 . S
C429 C428 1.392 . S
C429 H441 0.929 . S
C430 C426 1.531 . S
C430 H442 0.960 1_455 S
C430 H443 0.962 . S
C430 H444 0.960 . S
C431 C428 1.511 . S
C431 H445 0.961 . S
C431 H446 0.994 . S
C431 H447 0.961 . S
C432 C433 1.370 . S
C432 C434 1.363 . S
C432 H448 0.931 . S
C433 C432 1.370 . S
C433 C437 1.408 . S
C434 C432 1.363 . S
C434 C435 1.370 . S
C434 C438 1.524 . S
C435 C427 1.503 1_655 S
C435 C434 1.370 . S
C435 C436 1.403 . S
C436 C435 1.403 . S
C436 C437 1.404 . S
C436 C439 1.539 . S
C437 C433 1.408 . S
C437 C436 1.404 . S
C437 H449 0.930 . S
C438 C434 1.524 . S
C438 H450 0.956 . S
C438 H451 0.961 . S
C438 H452 0.961 . S
C439 C436 1.539 . S
C439 H453 0.958 . S
C439 H454 0.961 . S
C439 H455 0.960 1_655 S
H440 C424 0.931 . S
H441 C429 0.929 . S
H442 C430 0.960 1_655 S
H443 C430 0.962 . S
H444 C430 0.960 . S
H445 C431 0.961 . S
H446 C431 0.994 . S
H447 C431 0.961 . S
H448 C432 0.931 . S
H449 C437 0.930 . S
H450 C438 0.956 . S
H451 C438 0.961 . S
H452 C438 0.961 . S
H453 C439 0.958 . S
H454 C439 0.961 . S
H455 C439 0.960 1_455 S
C456 C457 1.391 . S
C456 C458 1.394 . S
C456 H472 0.931 . S
C457 C456 1.391 . S
C457 C461 1.376 1_554 S
C458 C456 1.394 . S
C458 C459 1.369 . S
C458 C462 1.531 . S
C459 C458 1.369 . S
C459 C460 1.410 1_554 S
C459 C467 1.503 1_565 S
C460 C459 1.410 1_556 S
C460 C461 1.392 . S
C460 C463 1.511 . S
C461 C457 1.376 1_556 S
C461 C460 1.392 . S
C461 H473 0.929 . S
C462 C458 1.531 . S
C462 H474 0.960 1_565 S
C462 H475 0.962 . S
C462 H476 0.960 . S
C463 C460 1.511 . S
C463 H477 0.961 . S
C463 H478 0.961 1_565 S
C463 H479 0.961 . S
C464 C465 1.370 . S
C464 C466 1.363 . S
C464 H480 0.931 1_554 S
C465 C464 1.370 . S
C465 C469 1.408 . S
C466 C464 1.363 . S
C466 C467 1.370 . S
C466 C470 1.524 1_554 S
C467 C459 1.503 1_545 S
C467 C466 1.370 . S
C467 C468 1.403 . S
C468 C467 1.403 . S
C468 C469 1.404 . S
C468 C471 1.539 . S
C469 C465 1.408 . S
C469 C468 1.404 . S
C469 H481 0.930 . S
C470 C466 1.524 1_556 S
C470 H482 0.956 1_556 S
C470 H483 0.961 . S
C470 H484 0.961 . S
C471 C468 1.539 . S
C471 H485 0.958 . S
C471 H486 0.961 . S
C471 H487 0.960 1_545 S
H472 C456 0.931 . S
H473 C461 0.929 . S
H474 C462 0.960 1_545 S
H475 C462 0.962 . S
H476 C462 0.960 . S
H477 C463 0.961 . S
H478 C463 0.961 1_545 S
H479 C463 0.961 . S
H480 C464 0.931 1_556 S
H481 C469 0.930 . S
H482 C470 0.956 1_554 S
H483 C470 0.961 . S
H484 C470 0.961 . S
H485 C471 0.958 . S
H486 C471 0.961 . S
H487 C471 0.960 1_565 S
C488 C489 1.391 . S
C488 C490 1.394 . S
C488 H504 0.931 . S
C489 C488 1.391 . S
C489 C493 1.376 . S
C490 C488 1.394 . S
C490 C491 1.369 . S
C490 C494 1.531 . S
C491 C490 1.369 . S
C491 C492 1.410 . S
C491 C499 1.503 . S
C492 C491 1.410 . S
C492 C493 1.392 . S
C492 C495 1.511 . S
C493 C489 1.376 . S
C493 C492 1.392 . S
C493 H505 0.929 . S
C494 C490 1.531 . S
C494 H506 0.960 . S
C494 H507 0.962 1_554 S
C494 H508 0.960 . S
C495 C492 1.511 . S
C495 H509 0.961 . S
C495 H510 0.961 . S
C495 H511 0.961 . S
C496 C497 1.370 1_556 S
C496 C498 1.363 . S
C496 H512 0.931 . S
C497 C496 1.370 1_554 S
C497 C501 1.408 . S
C498 C496 1.363 . S
C498 C499 1.370 1_556 S
C498 C502 1.524 . S
C499 C491 1.503 . S
C499 C498 1.370 1_554 S
C499 C500 1.403 . S
C500 C499 1.403 . S
C500 C501 1.404 . S
C500 C503 1.539 . S
C501 C497 1.408 . S
C501 C500 1.404 . S
C501 H513 0.930 . S
C502 C498 1.524 . S
C502 H514 0.956 . S
C502 H515 0.961 . S
C502 H516 0.961 . S
C503 C500 1.539 . S
C503 H517 0.958 . S
C503 H518 0.961 . S
C503 H519 0.960 . S
H504 C488 0.931 . S
H505 C493 0.929 . S
H506 C494 0.960 . S
H507 C494 0.962 1_556 S
H508 C494 0.960 . S
H509 C495 0.961 . S
H510 C495 0.961 . S
H511 C495 0.961 . S
H512 C496 0.931 . S
H513 C501 0.930 . S
H514 C502 0.956 . S
H515 C502 0.961 . S
H516 C502 0.961 . S
H517 C503 0.958 . S
H518 C503 0.961 . S
H519 C503 0.960 . S
C520 C521 1.391 . S
C520 C522 1.394 . S
C520 H536 0.931 . S
C521 C520 1.391 . S
C521 C525 1.376 . S
C522 C520 1.394 . S
C522 C523 1.369 . S
C522 C526 1.531 . S
C523 C522 1.369 . S
C523 C524 1.410 . S
C523 C531 1.503 . S
C524 C523 1.410 . S
C524 C525 1.392 . S
C524 C527 1.511 . S
C525 C521 1.376 . S
C525 C524 1.392 . S
C525 H537 0.929 . S
C526 C522 1.531 . S
C526 H538 0.960 . S
C526 H539 0.962 . S
C526 H540 0.960 . S
C527 C524 1.511 . S
C527 H541 0.961 . S
C527 H542 0.961 . S
C527 H543 0.961 . S
C528 C529 1.370 . S
C528 C530 1.363 . S
C528 H544 0.931 . S
C529 C528 1.370 . S
C529 C533 1.408 . S
C530 C528 1.363 . S
C530 C531 1.370 . S
C530 C534 1.524 . S
C531 C523 1.503 . S
C531 C530 1.370 . S
C531 C532 1.403 . S
C532 C531 1.403 . S
C532 C533 1.404 . S
C532 C535 1.539 . S
C533 C529 1.408 . S
C533 C532 1.404 . S
C533 H545 0.930 . S
C534 C530 1.524 . S
C534 H546 0.956 . S
C534 H547 0.961 . S
C534 H548 0.961 . S
C535 C532 1.539 . S
C535 H549 0.958 . S
C535 H550 0.961 . S
C535 H551 0.960 . S
H536 C520 0.931 . S
H537 C525 0.929 . S
H538 C526 0.960 . S
H539 C526 0.962 . S
H540 C526 0.960 . S
H541 C527 0.961 . S
H542 C527 0.961 . S
H543 C527 0.961 . S
H544 C528 0.931 . S
H545 C533 0.930 . S
H546 C534 0.956 . S
H547 C534 0.961 . S
H548 C534 0.961 . S
H549 C535 0.958 . S
H550 C535 0.961 . S
H551 C535 0.960 . S
C552 C553 1.391 . S
C552 C554 1.394 . S
C552 H568 0.931 . S
C553 C552 1.391 . S
C553 C557 1.376 1_554 S
C554 C552 1.394 . S
C554 C555 1.369 . S
C554 C558 1.531 . S
C555 C554 1.369 . S
C555 C556 1.410 1_554 S
C555 C563 1.503 . S
C556 C555 1.410 1_556 S
C556 C557 1.392 . S
C556 C559 1.511 . S
C557 C553 1.376 1_556 S
C557 C556 1.392 . S
C557 H569 0.929 . S
C558 C554 1.531 . S
C558 H570 0.960 . S
C558 H571 0.962 . S
C558 H572 0.960 . S
C559 C556 1.511 . S
C559 H573 0.961 . S
C559 H574 0.961 . S
C559 H575 0.961 . S
C560 C561 1.370 . S
C560 C562 1.363 . S
C560 H576 0.931 . S
C561 C560 1.370 . S
C561 C565 1.408 1_554 S
C562 C560 1.363 . S
C562 C563 1.370 . S
C562 C566 1.524 . S
C563 C555 1.503 . S
C563 C562 1.370 . S
C563 C564 1.403 1_554 S
C564 C563 1.403 1_556 S
C564 C565 1.404 . S
C564 C567 1.539 . S
C565 C561 1.408 1_556 S
C565 C564 1.404 . S
C565 H577 0.930 . S
C566 C562 1.524 . S
C566 H578 0.956 . S
C566 H579 0.961 . S
C566 H580 0.961 . S
C567 C564 1.539 . S
C567 H581 0.958 . S
C567 H582 0.961 . S
C567 H583 0.960 . S
H568 C552 0.931 . S
H569 C557 0.929 . S
H570 C558 0.960 . S
H571 C558 0.962 . S
H572 C558 0.960 . S
H573 C559 0.961 . S
H574 C559 0.961 . S
H575 C559 0.961 . S
H576 C560 0.931 . S
H577 C565 0.930 . S
H578 C566 0.956 . S
H579 C566 0.961 . S
H580 C566 0.961 . S
H581 C567 0.958 . S
H582 C567 0.961 . S
H583 C567 0.960 . S
C584 C585 1.391 . S
C584 C586 1.394 . S
C584 H600 0.931 . S
C585 C584 1.391 . S
C585 C589 1.376 . S
C586 C584 1.394 . S
C586 C587 1.369 . S
C586 C590 1.531 . S
C587 C586 1.369 . S
C587 C588 1.410 . S
C587 C595 1.503 . S
C588 C587 1.410 . S
C588 C589 1.392 . S
C588 C591 1.511 . S
C589 C585 1.376 . S
C589 C588 1.392 . S
C589 H601 0.929 . S
C590 C586 1.531 . S
C590 H602 0.960 . S
C590 H603 0.962 . S
C590 H604 0.960 . S
C591 C588 1.511 . S
C591 H605 0.961 . S
C591 H606 0.961 . S
C591 H607 0.961 . S
C592 C593 1.370 . S
C592 C594 1.363 . S
C592 H608 0.931 . S
C593 C592 1.370 . S
C593 C597 1.408 . S
C594 C592 1.363 . S
C594 C595 1.370 . S
C594 C598 1.524 . S
C595 C587 1.503 . S
C595 C594 1.370 . S
C595 C596 1.403 . S
C596 C595 1.403 . S
C596 C597 1.404 . S
C596 C599 1.539 . S
C597 C593 1.408 . S
C597 C596 1.404 . S
C597 H609 0.930 . S
C598 C594 1.524 . S
C598 H610 0.956 . S
C598 H611 0.961 . S
C598 H612 0.961 . S
C599 C596 1.539 . S
C599 H613 0.958 . S
C599 H614 0.961 . S
C599 H615 0.960 . S
H600 C584 0.931 . S
H601 C589 0.929 . S
H602 C590 0.960 . S
H603 C590 0.962 . S
H604 C590 0.960 . S
H605 C591 0.961 . S
H606 C591 0.961 . S
H607 C591 0.961 . S
H608 C592 0.931 . S
H609 C597 0.930 . S
H610 C598 0.956 . S
H611 C598 0.961 . S
H612 C598 0.961 . S
H613 C599 0.958 . S
H614 C599 0.961 . S
H615 C599 0.960 . S
C105 C5 1.520 . S
C113 C53 1.520 . S
C137 C16 1.456 . S
C145 C68 1.493 . S
C169 C83 1.510 . S
C177 C31 1.513 . S
C201 C94 1.500 . S
C209 C42 1.473 . S
C233 C88 1.631 . S
C241 C36 1.631 . S
C265 C92 1.622 . S
C273 C40 1.596 . S
C297 C10 1.622 . S
C305 C55 1.628 . S
C329 C14 1.593 . S
C337 C66 1.607 . S
C361 C27 1.938 . S
C369 C1 1.947 . S
C393 C49 2.041 . S
C401 C23 2.043 . S
C425 C62 1.919 . S
C433 C79 1.957 . S
C457 C101 2.021 . S
C465 C75 2.050 . S
C489 C3 1.857 . S
C497 C70 1.935 . S
C521 C81 1.846 . S
C529 C18 1.934 . S
C553 C29 1.851 . S
C561 C96 1.932 . S
C585 C44 1.928 . S
C593 C57 1.867 . S
