# Generated by pormake.
# Topology vbk, (5)-cn, num edge types: 1
# Building blocks:
#     Node 0, Type 0, BuildingBlock: XOMCOT_clean_sbu_0, # of connection points: 5
#     Node 1, Type 0, BuildingBlock: XOMCOT_clean_sbu_0, # of connection points: 5
#     Node 2, Type 0, BuildingBlock: XOMCOT_clean_sbu_0, # of connection points: 5
#     Node 3, Type 0, BuildingBlock: XOMCOT_clean_sbu_0, # of connection points: 5
#     Node 4, Type 0, BuildingBlock: XOMCOT_clean_sbu_0, # of connection points: 5
#     Node 5, Type 0, BuildingBlock: XOMCOT_clean_sbu_0, # of connection points: 5
#     Node 6, Type 0, BuildingBlock: XOMCOT_clean_sbu_0, # of connection points: 5
#     Node 7, Type 0, BuildingBlock: XOMCOT_clean_sbu_0, # of connection points: 5
#     Node 8, Type 0, BuildingBlock: XOMCOT_clean_sbu_0, # of connection points: 5
#     Node 9, Type 0, BuildingBlock: XOMCOT_clean_sbu_0, # of connection points: 5
#     Node 10, Type 0, BuildingBlock: XOMCOT_clean_sbu_0, # of connection points: 5
#     Node 11, Type 0, BuildingBlock: XOMCOT_clean_sbu_0, # of connection points: 5
#     Node 12, Type 0, BuildingBlock: XOMCOT_clean_sbu_0, # of connection points: 5
#     Node 13, Type 0, BuildingBlock: XOMCOT_clean_sbu_0, # of connection points: 5
#     Node 14, Type 0, BuildingBlock: XOMCOT_clean_sbu_0, # of connection points: 5
#     Node 15, Type 0, BuildingBlock: XOMCOT_clean_sbu_0, # of connection points: 5
#     Edge 16, Type (0, 0), BuildingBlock: XIVTED_clean_linker_0, # of connection points: 2
#     Edge 17, Type (0, 0), BuildingBlock: XIVTED_clean_linker_0, # of connection points: 2
#     Edge 18, Type (0, 0), BuildingBlock: XIVTED_clean_linker_0, # of connection points: 2
#     Edge 19, Type (0, 0), BuildingBlock: XIVTED_clean_linker_0, # of connection points: 2
#     Edge 20, Type (0, 0), BuildingBlock: XIVTED_clean_linker_0, # of connection points: 2
#     Edge 21, Type (0, 0), BuildingBlock: XIVTED_clean_linker_0, # of connection points: 2
#     Edge 22, Type (0, 0), BuildingBlock: XIVTED_clean_linker_0, # of connection points: 2
#     Edge 23, Type (0, 0), BuildingBlock: XIVTED_clean_linker_0, # of connection points: 2
#     Edge 24, Type (0, 0), BuildingBlock: XIVTED_clean_linker_0, # of connection points: 2
#     Edge 25, Type (0, 0), BuildingBlock: XIVTED_clean_linker_0, # of connection points: 2
#     Edge 26, Type (0, 0), BuildingBlock: XIVTED_clean_linker_0, # of connection points: 2
#     Edge 27, Type (0, 0), BuildingBlock: XIVTED_clean_linker_0, # of connection points: 2
#     Edge 28, Type (0, 0), BuildingBlock: XIVTED_clean_linker_0, # of connection points: 2
#     Edge 29, Type (0, 0), BuildingBlock: XIVTED_clean_linker_0, # of connection points: 2
#     Edge 30, Type (0, 0), BuildingBlock: XIVTED_clean_linker_0, # of connection points: 2
#     Edge 31, Type (0, 0), BuildingBlock: XIVTED_clean_linker_0, # of connection points: 2
#     Edge 32, Type (0, 0), BuildingBlock: XIVTED_clean_linker_0, # of connection points: 2
#     Edge 33, Type (0, 0), BuildingBlock: XIVTED_clean_linker_0, # of connection points: 2
#     Edge 34, Type (0, 0), BuildingBlock: XIVTED_clean_linker_0, # of connection points: 2
#     Edge 35, Type (0, 0), BuildingBlock: XIVTED_clean_linker_0, # of connection points: 2
#     Edge 36, Type (0, 0), BuildingBlock: XIVTED_clean_linker_0, # of connection points: 2
#     Edge 37, Type (0, 0), BuildingBlock: XIVTED_clean_linker_0, # of connection points: 2
#     Edge 38, Type (0, 0), BuildingBlock: XIVTED_clean_linker_0, # of connection points: 2
#     Edge 39, Type (0, 0), BuildingBlock: XIVTED_clean_linker_0, # of connection points: 2
#     Edge 40, Type (0, 0), BuildingBlock: XIVTED_clean_linker_0, # of connection points: 2
#     Edge 41, Type (0, 0), BuildingBlock: XIVTED_clean_linker_0, # of connection points: 2
#     Edge 42, Type (0, 0), BuildingBlock: XIVTED_clean_linker_0, # of connection points: 2
#     Edge 43, Type (0, 0), BuildingBlock: XIVTED_clean_linker_0, # of connection points: 2
#     Edge 44, Type (0, 0), BuildingBlock: XIVTED_clean_linker_0, # of connection points: 2
#     Edge 45, Type (0, 0), BuildingBlock: XIVTED_clean_linker_0, # of connection points: 2
#     Edge 46, Type (0, 0), BuildingBlock: XIVTED_clean_linker_0, # of connection points: 2
#     Edge 47, Type (0, 0), BuildingBlock: XIVTED_clean_linker_0, # of connection points: 2
#     Edge 48, Type (0, 0), BuildingBlock: XIVTED_clean_linker_0, # of connection points: 2
#     Edge 49, Type (0, 0), BuildingBlock: XIVTED_clean_linker_0, # of connection points: 2
#     Edge 50, Type (0, 0), BuildingBlock: XIVTED_clean_linker_0, # of connection points: 2
#     Edge 51, Type (0, 0), BuildingBlock: XIVTED_clean_linker_0, # of connection points: 2
#     Edge 52, Type (0, 0), BuildingBlock: XIVTED_clean_linker_0, # of connection points: 2
#     Edge 53, Type (0, 0), BuildingBlock: XIVTED_clean_linker_0, # of connection points: 2
#     Edge 54, Type (0, 0), BuildingBlock: XIVTED_clean_linker_0, # of connection points: 2
#     Edge 55, Type (0, 0), BuildingBlock: XIVTED_clean_linker_0, # of connection points: 2
# Relax obj value: 0.117
# Max RMSD: 0.184
# Mean RMSD: 0.184
data_MOF--net-vbk--node1-XOMCOT_clean_sbu_0--edge1-XIVTED_clean_linker_0
_symmetry_space_group_name_H-M    P1
_symmetry_Int_Tables_number       1
_symmetry_cell_setting            triclinic
loop_
_symmetry_equiv_pos_as_xyz
'x, y, z'
_cell_length_a     67.856528
_cell_length_b     48.965095
_cell_length_c     25.847262
_cell_angle_alpha  90.146236
_cell_angle_beta   90.063328
_cell_angle_gamma 89.557457
loop_
_atom_site_label
_atom_site_type_symbol
_atom_site_fract_x
_atom_site_fract_y
_atom_site_fract_z
_atom_type_partial_charge
Co0 Co 0.15312 0.1496 0.12296 0.0
C1 C 0.1094 0.14548 0.10028 0.0
C2 C 0.11629 0.1772 0.15445 0.0
C3 C 0.0963 0.17698 0.14742 0.0
N4 N 0.12479 0.15777 0.12451 0.0
N5 N 0.09189 0.15706 0.11355 0.0
H6 H 0.11083 0.12838 0.07397 0.0
H7 H 0.12383 0.19033 0.18138 0.0
C8 C 0.16893 0.18134 0.21374 0.0
O9 O 0.18399 0.18878 0.1853 0.0
N10 N 0.18137 0.141 0.12372 0.0
C11 C 0.1947 0.14238 0.08513 0.0
C12 C 0.21301 0.13532 0.10413 0.0
C13 C 0.19182 0.132 0.16515 0.0
N14 N 0.21129 0.12906 0.1547 0.0
C15 C 0.16152 0.18297 0.03532 0.0
C16 C 0.15363 0.23343 0.07849 0.0
C17 C 0.15805 0.23174 0.02568 0.0
C18 C 0.16237 0.20618 1.00448 0.0
C19 C 0.15355 0.2096 0.10864 0.0
N20 N 0.15742 0.1845 0.08708 0.0
H21 H 0.16347 0.1636 0.01624 0.0
H22 H 0.14959 0.2117 0.14866 0.0
H23 H 0.19173 0.14814 0.04575 0.0
H24 H 0.1853 0.12826 0.20261 0.0
O25 O 0.14989 0.12726 0.06239 0.0
O26 O 0.14803 0.1117 0.14234 0.0
O27 O 0.15548 0.16622 0.19449 0.0
C28 C 0.14754 0.10658 0.09276 0.0
H29 H 0.08569 0.18973 0.16759 0.0
H30 H 0.22665 0.13571 0.0825 0.0
H31 H 0.1499 0.25289 0.09609 0.0
H32 H 0.1653 0.20391 0.96348 0.0
Co33 Co 0.37953 0.86385 0.61755 0.0
C34 C 0.42293 0.85957 0.59282 0.0
C35 C 0.41472 0.83473 0.65732 0.0
C36 C 0.43457 0.83171 0.64952 0.0
N37 N 0.40713 0.8519 0.62144 0.0
N38 N 0.4398 0.84733 0.60919 0.0
H39 H 0.42227 0.87397 0.5612 0.0
H40 H 0.40666 0.82512 0.68817 0.0
C41 C 0.36148 0.83023 0.70139 0.0
O42 O 0.34773 0.82295 0.66836 0.0
N43 N 0.35195 0.8766 0.61608 0.0
C44 C 0.34107 0.88529 0.57543 0.0
C45 C 0.32249 0.89253 0.59233 0.0
C46 C 0.34004 0.8808 0.6575 0.0
N47 N 0.32173 0.88935 0.64408 0.0
C48 C 0.36592 0.83278 0.53147 0.0
C49 C 0.37546 0.78131 0.5674 0.0
C50 C 0.36745 0.78409 0.51773 0.0
C51 C 0.36258 0.81021 0.5001 0.0
C52 C 0.37818 0.80459 0.59825 0.0
N53 N 0.37312 0.83007 0.58053 0.0
H54 H 0.36364 0.85253 0.51469 0.0
H55 H 0.3846 0.80188 0.63597 0.0
H56 H 0.34621 0.8874 0.53621 0.0
H57 H 0.34466 0.87771 0.69698 0.0
O58 O 0.38519 0.8855 0.55782 0.0
O59 O 0.38713 0.90057 0.63852 0.0
O60 O 0.3749 0.84691 0.68771 0.0
C61 C 0.38872 0.9056 0.58907 0.0
H62 H 0.44458 0.81981 0.67326 0.0
H63 H 0.3106 0.9 0.56818 0.0
H64 H 0.37974 0.76142 0.58202 0.0
H65 H 0.35714 0.81337 0.46111 0.0
Co66 Co 0.1424 0.8775 0.8971 0.0
C67 C 0.09961 0.87033 0.92604 0.0
C68 C 0.10433 0.88572 0.84927 0.0
C69 C 0.08443 0.88529 0.85838 0.0
N70 N 0.11391 0.87649 0.89145 0.0
N71 N 0.08141 0.87566 0.90646 0.0
H72 H 0.10241 0.86289 0.96477 0.0
H73 H 0.11143 0.89297 0.81452 0.0
C74 C 0.15461 0.83896 0.8131 0.0
O75 O 0.16687 0.82792 0.84661 0.0
N76 N 0.1713 0.88034 0.8996 0.0
C77 C 0.18283 0.88716 0.94024 0.0
C78 C 0.20186 0.89095 0.92348 0.0
C79 C 0.18354 0.88206 0.85825 0.0
N80 N 0.20239 0.88758 0.87173 0.0
C81 C 0.15166 0.84077 0.97909 0.0
C82 C 0.13186 0.79563 0.94235 0.0
C83 C 0.14221 0.79377 0.98928 0.0
C84 C 0.15207 0.81677 1.00751 0.0
C85 C 0.13227 0.82015 0.91413 0.0
N86 N 0.1426 0.84216 0.93205 0.0
H87 H 0.15798 0.85855 0.99639 0.0
H88 H 0.12403 0.82158 0.8784 0.0
H89 H 0.17778 0.89127 0.97907 0.0
H90 H 0.17861 0.88035 0.81871 0.0
O91 O 0.14013 0.89979 0.95798 0.0
O92 O 0.14154 0.91607 0.87823 0.0
O93 O 0.14392 0.85949 0.82629 0.0
C94 C 0.14026 0.92091 0.92788 0.0
H95 H 0.07298 0.89153 0.83162 0.0
H96 H 0.2141 0.89714 0.94753 0.0
H97 H 0.12357 0.77843 0.92783 0.0
H98 H 0.15942 0.81656 0.04476 0.0
Co99 Co 0.38615 0.13599 0.41653 0.0
C100 C 0.42969 0.13875 0.44102 0.0
C101 C 0.4214 0.16409 0.37694 0.0
C102 C 0.44118 0.16718 0.3856 0.0
N103 N 0.41391 0.14655 0.41197 0.0
N104 N 0.44645 0.15129 0.4257 0.0
H105 H 0.42904 0.12437 0.47266 0.0
H106 H 0.41325 0.1742 0.34658 0.0
C107 C 0.36708 0.17056 0.33522 0.0
O108 O 0.35362 0.17733 0.36957 0.0
N109 N 0.35834 0.12484 0.4188 0.0
C110 C 0.34675 0.11974 0.46005 0.0
C111 C 0.32797 0.11387 0.44316 0.0
C112 C 0.34654 0.11996 0.37739 0.0
N113 N 0.32774 0.11443 0.39102 0.0
C114 C 0.3752 0.16669 0.50597 0.0
C115 C 0.38205 0.21843 0.46831 0.0
C116 C 0.37511 0.21544 0.51896 0.0
C117 C 0.37183 0.18916 0.53769 0.0
C118 C 0.38487 0.19519 0.43723 0.0
N119 N 0.38076 0.1696 0.45556 0.0
H120 H 0.37407 0.14687 0.52327 0.0
H121 H 0.39054 0.19802 0.39875 0.0
H122 H 0.35135 0.11961 0.49991 0.0
H123 H 0.35148 0.12127 0.33777 0.0
O124 O 0.3919 0.1131 0.47469 0.0
O125 O 0.39279 0.09912 0.39322 0.0
O126 O 0.38106 0.15411 0.34745 0.0
C127 C 0.39465 0.09325 0.44227 0.0
H128 H 0.45111 0.17961 0.36308 0.0
H129 H 0.31547 0.1095 0.46765 0.0
H130 H 0.38527 0.23847 0.45296 0.0
H131 H 0.36741 0.18588 0.57746 0.0
Co132 Co 0.88074 0.84085 0.90812 0.0
C133 C 0.92392 0.84508 0.93727 0.0
C134 C 0.9191 0.81949 0.87114 0.0
C135 C 0.93888 0.8197 0.88151 0.0
N136 N 0.90941 0.83499 0.9064 0.0
N137 N 0.94199 0.83576 0.92288 0.0
H138 H 0.92144 0.85891 0.96935 0.0
H139 H 0.9125 0.80871 0.83919 0.0
C140 C 0.86735 0.80751 0.81712 0.0
O141 O 0.85375 0.79652 0.84647 0.0
N142 N 0.85209 0.84742 0.90782 0.0
C143 C 0.83983 0.85127 0.94842 0.0
C144 C 0.82096 0.85579 0.93049 0.0
C145 C 0.84043 0.85149 0.86579 0.0
N146 N 0.82129 0.85558 0.87839 0.0
C147 C 0.87087 0.8048 0.99042 0.0
C148 C 0.88534 0.75691 0.94805 0.0
C149 C 0.87791 0.75668 0.99853 0.0
C150 C 0.87036 0.78091 0.0193 0.0
C151 C 0.88504 0.78129 0.9197 0.0
N152 N 0.87777 0.80502 0.94082 0.0
H153 H 0.86675 0.82338 1.00971 0.0
H154 H 0.89124 0.78093 0.88144 0.0
H155 H 0.84408 0.85178 0.98857 0.0
H156 H 0.84582 0.85198 0.8265 0.0
O157 O 0.8831 0.86199 0.97047 0.0
O158 O 0.88424 0.87919 0.89134 0.0
O159 O 0.87901 0.82542 0.8357 0.0
C160 C 0.88449 0.88336 0.94125 0.0
H161 H 0.95027 0.80954 0.85914 0.0
H162 H 0.80797 0.85869 0.95419 0.0
H163 H 0.89165 0.73859 0.93108 0.0
H164 H 0.86519 0.78179 0.05894 0.0
Co165 Co 0.64917 0.13508 0.39867 0.0
C166 C 0.60613 0.13582 0.4291 0.0
C167 C 0.61199 0.11941 0.3534 0.0
C168 C 0.59223 0.11701 0.36312 0.0
N169 N 0.6208 0.13103 0.39456 0.0
N170 N 0.5885 0.12728 0.4105 0.0
H171 H 0.6083 0.14471 0.46704 0.0
H172 H 0.61959 0.11265 0.31884 0.0
C173 C 0.65553 0.17677 0.3167 0.0
O174 O 0.66654 0.19011 0.34995 0.0
N175 N 0.6781 0.13763 0.39963 0.0
C176 C 0.69039 0.13231 0.43961 0.0
C177 C 0.70954 0.13187 0.42228 0.0
C178 C 0.69023 0.13871 0.35789 0.0
N179 N 0.70952 0.13596 0.37076 0.0
C180 C 0.65489 0.17074 0.48401 0.0
C181 C 0.63276 0.21483 0.45055 0.0
C182 C 0.64344 0.21689 0.49695 0.0
C183 C 0.65416 0.19422 0.51394 0.0
C184 C 0.63414 0.19065 0.42099 0.0
N185 N 0.64604 0.16947 0.43671 0.0
H186 H 0.66228 0.15332 0.50001 0.0
H187 H 0.62578 0.18903 0.38549 0.0
H188 H 0.68601 0.12671 0.47822 0.0
H189 H 0.68504 0.14031 0.31851 0.0
O190 O 0.6498 0.11172 0.45783 0.0
O191 O 0.65219 0.09705 0.37694 0.0
O192 O 0.64806 0.15382 0.32905 0.0
C193 C 0.65187 0.09134 0.42628 0.0
H194 H 0.58133 0.10852 0.33717 0.0
H195 H 0.72237 0.12711 0.44553 0.0
H196 H 0.62375 0.23172 0.43707 0.0
H197 H 0.66176 0.19447 0.55085 0.0
Co198 Co 0.89003 0.11406 0.12595 0.0
C199 C 0.93477 0.11717 0.11022 0.0
C200 C 0.92568 0.08512 0.16068 0.0
C201 C 0.94583 0.0841 0.15656 0.0
N202 N 0.91843 0.10555 0.13103 0.0
N203 N 0.95161 0.10422 0.1248 0.0
H204 H 0.93471 0.13517 0.08634 0.0
H205 H 0.91701 0.07192 0.18498 0.0
C206 C 0.90375 0.15129 0.20838 0.0
O207 O 0.91771 0.15833 0.17609 0.0
N208 N 0.86191 0.1214 0.12338 0.0
C209 C 0.85077 0.12637 0.08127 0.0
C210 C 0.83143 0.12967 0.09667 0.0
C211 C 0.84924 0.12156 0.16369 0.0
N212 N 0.83045 0.12665 0.14857 0.0
C213 C 0.90253 0.14423 0.03927 0.0
C214 C 0.8843 0.1932 0.06407 0.0
C215 C 0.89218 0.18954 0.0143 0.0
C216 C 0.90206 0.16506 1.0031 0.0
C217 C 0.88542 0.17172 0.09996 0.0
N218 N 0.89441 0.1475 0.08714 0.0
H219 H 0.90893 0.12487 0.0279 0.0
H220 H 0.87786 0.17389 0.13654 0.0
H221 H 0.85633 0.12754 0.04213 0.0
H222 H 0.85369 0.11747 0.20313 0.0
O223 O 0.88777 0.09063 0.0669 0.0
O224 O 0.88424 0.07667 0.14762 0.0
O225 O 0.89122 0.13324 0.19513 0.0
C226 C 0.88447 0.07071 0.09832 0.0
H227 H 0.95554 0.07016 0.17693 0.0
H228 H 0.8191 0.13424 0.07148 0.0
H229 H 0.87634 0.21171 0.07407 0.0
H230 H 0.90869 0.16146 0.96556 0.0
Co231 Co 0.64337 0.86427 0.61968 0.0
C232 C 0.5989 0.86506 0.59889 0.0
C233 C 0.60883 0.89688 0.64923 0.0
C234 C 0.58886 0.89977 0.64281 0.0
N235 N 0.61543 0.87536 0.6212 0.0
N236 N 0.58258 0.87979 0.61119 0.0
H237 H 0.59839 0.8468 0.57566 0.0
H238 H 0.61783 0.90951 0.67398 0.0
C239 C 0.62653 0.8346 0.70929 0.0
O240 O 0.61176 0.828 0.67903 0.0
N241 N 0.67113 0.85468 0.62051 0.0
C242 C 0.68233 0.84619 0.58059 0.0
C243 C 0.70156 0.84368 0.59741 0.0
C244 C 0.68365 0.85746 0.66082 0.0
N245 N 0.70245 0.85083 0.64795 0.0
C246 C 0.63065 0.83035 0.53711 0.0
C247 C 0.64525 0.7816 0.57537 0.0
C248 C 0.63775 0.78247 0.52481 0.0
C249 C 0.62997 0.80706 0.5063 0.0
C250 C 0.645 0.80536 0.60586 0.0
N251 N 0.63777 0.82942 0.58651 0.0
H252 H 0.62594 0.84953 0.52046 0.0
H253 H 0.6519 0.80484 0.64355 0.0
H254 H 0.67695 0.84258 0.54178 0.0
H255 H 0.67902 0.86447 0.69864 0.0
O256 O 0.64716 0.885 0.55749 0.0
O257 O 0.65055 0.90165 0.63666 0.0
O258 O 0.64076 0.84873 0.69157 0.0
C259 C 0.65096 0.90579 0.58683 0.0
H260 H 0.57956 0.91485 0.66164 0.0
H261 H 0.71399 0.83779 0.57358 0.0
H262 H 0.65186 0.76304 0.5904 0.0
H263 H 0.6246 0.80873 0.46692 0.0
Co264 Co 0.64936 0.63988 0.11468 0.0
C265 C 0.60619 0.64102 0.08595 0.0
C266 C 0.6125 0.62395 0.16076 0.0
C267 C 0.59268 0.62166 0.15165 0.0
N268 N 0.62104 0.63593 0.11977 0.0
N269 N 0.58868 0.63233 0.10482 0.0
H270 H 0.60815 0.65025 0.04831 0.0
H271 H 0.6203 0.61688 0.19475 0.0
C272 C 0.65781 0.67897 0.2003 0.0
O273 O 0.66916 0.69215 0.16779 0.0
N274 N 0.67824 0.64207 0.1129 0.0
C275 C 0.69057 0.63878 0.07228 0.0
C276 C 0.70971 0.63739 0.08994 0.0
C277 C 0.69026 0.64074 0.15478 0.0
N278 N 0.70955 0.63874 0.14203 0.0
C279 C 0.65432 0.67818 0.03302 0.0
C280 C 0.63085 0.71967 0.07206 0.0
C281 C 0.64037 0.72333 0.02446 0.0
C282 C 0.65214 0.70218 1.00508 0.0
C283 C 0.6339 0.69531 0.09974 0.0
N284 N 0.64602 0.67519 0.08065 0.0
H285 H 0.66199 0.66157 0.01482 0.0
H286 H 0.62619 0.69239 0.13586 0.0
H287 H 0.68622 0.63527 0.03271 0.0
H288 H 0.68491 0.64018 0.19405 0.0
O289 O 0.64951 0.61771 0.05337 0.0
O290 O 0.65233 0.60156 0.13308 0.0
O291 O 0.64892 0.65732 0.1858 0.0
C292 C 0.65159 0.59672 0.08339 0.0
H293 H 0.58192 0.61299 0.17768 0.0
H294 H 0.72261 0.63404 0.06613 0.0
H295 H 0.62112 0.73533 0.08745 0.0
H296 H 0.65895 0.70371 0.96729 0.0
Co297 Co 0.8871 0.35137 0.62803 0.0
C298 C 0.93203 0.35249 0.61189 0.0
C299 C 0.92164 0.36802 0.68458 0.0
C300 C 0.94184 0.36849 0.68511 0.0
N301 N 0.91526 0.35767 0.63913 0.0
N302 N 0.94834 0.35878 0.63953 0.0
H303 H 0.93277 0.34359 0.57385 0.0
H304 H 0.91212 0.37411 0.71615 0.0
C305 C 0.89886 0.31165 0.70787 0.0
O306 O 0.91328 0.30484 0.6764 0.0
N307 N 0.85898 0.3462 0.62139 0.0
C308 C 0.84806 0.34288 0.57834 0.0
C309 C 0.8284 0.34235 0.59241 0.0
C310 C 0.84598 0.34779 0.66069 0.0
N311 N 0.82715 0.34543 0.6443 0.0
C312 C 0.90016 0.32215 0.53947 0.0
C313 C 0.88233 0.27292 0.5607 0.0
C314 C 0.89126 0.27665 0.51224 0.0
C315 C 0.90075 0.30142 0.50281 0.0
C316 C 0.8824 0.2943 0.59714 0.0
N317 N 0.89149 0.31853 0.58648 0.0
H318 H 0.90584 0.34178 0.52848 0.0
H319 H 0.87416 0.2919 0.63257 0.0
H320 H 0.85393 0.3414 0.53953 0.0
H321 H 0.85026 0.35162 0.70037 0.0
O322 O 0.8865 0.37642 0.57162 0.0
O323 O 0.88187 0.38847 0.65331 0.0
O324 O 0.88654 0.33028 0.69496 0.0
C325 C 0.88264 0.39556 0.60468 0.0
H326 H 0.95109 0.37544 0.71659 0.0
H327 H 0.81604 0.33993 0.56638 0.0
H328 H 0.87447 0.25432 0.56932 0.0
H329 H 0.908 0.30532 0.46628 0.0
Co330 Co 0.64852 0.36526 0.90023 0.0
C331 C 0.60558 0.36599 0.92934 0.0
C332 C 0.61174 0.38396 0.85536 0.0
C333 C 0.59194 0.38666 0.86493 0.0
N334 N 0.62034 0.37118 0.89563 0.0
N335 N 0.58805 0.3754 0.91127 0.0
H336 H 0.60759 0.35601 0.9663 0.0
H337 H 0.61944 0.39105 0.8214 0.0
C338 C 0.65618 0.32401 0.81735 0.0
O339 O 0.66767 0.31111 0.85035 0.0
N340 N 0.67723 0.36062 0.90207 0.0
C341 C 0.68947 0.36022 0.94329 0.0
C342 C 0.70865 0.35884 0.92629 0.0
C343 C 0.68946 0.36106 0.86059 0.0
N344 N 0.70871 0.3591 0.87412 0.0
C345 C 0.65006 0.33188 0.98975 0.0
C346 C 0.62969 0.28725 0.953 0.0
C347 C 0.6362 0.28751 1.00453 0.0
C348 C 0.64651 0.31014 0.02247 0.0
C349 C 0.63352 0.3099 0.92108 0.0
N350 N 0.64426 0.33154 0.93918 0.0
H351 H 0.65669 0.34959 1.00663 0.0
H352 H 0.62729 0.31032 0.88263 0.0
H353 H 0.68521 0.36227 0.98319 0.0
H354 H 0.68433 0.36287 0.82115 0.0
O355 O 0.64966 0.38939 0.95854 0.0
O356 O 0.65255 0.40291 0.87741 0.0
O357 O 0.64724 0.34595 0.83093 0.0
C358 C 0.65219 0.40927 0.92651 0.0
H359 H 0.58112 0.39579 0.83932 0.0
H360 H 0.72158 0.35863 0.95083 0.0
H361 H 0.62117 0.27032 0.93827 0.0
H362 H 0.65143 0.31136 0.06233 0.0
Co363 Co 0.88552 0.62158 0.40968 0.0
C364 C 0.92991 0.6277 0.42081 0.0
C365 C 0.92138 0.58687 0.40217 0.0
C366 C 0.94147 0.58728 0.40815 0.0
N367 N 0.91383 0.61215 0.41074 0.0
N368 N 0.94681 0.61293 0.41974 0.0
H369 H 0.92953 0.64939 0.42845 0.0
H370 H 0.91305 0.56895 0.39189 0.0
C371 C 0.8999 0.64969 0.31396 0.0
O372 O 0.91424 0.66049 0.34098 0.0
N373 N 0.85759 0.62992 0.40755 0.0
C374 C 0.84605 0.63886 0.4465 0.0
C375 C 0.82705 0.64182 0.42813 0.0
C376 C 0.84553 0.62735 0.36631 0.0
N377 N 0.82676 0.63463 0.37763 0.0
C378 C 0.89858 0.6592 0.48539 0.0
C379 C 0.88054 0.70501 0.44389 0.0
C380 C 0.8888 0.70643 0.49355 0.0
C381 C 0.89844 0.68343 0.51351 0.0
C382 C 0.88159 0.68044 0.4161 0.0
N383 N 0.89028 0.65781 0.43736 0.0
H384 H 0.9047 0.64107 0.50316 0.0
H385 H 0.87408 0.67905 0.37929 0.0
H386 H 0.85113 0.6431 0.48536 0.0
H387 H 0.85035 0.61981 0.32902 0.0
O388 O 0.88211 0.60318 0.47481 0.0
O389 O 0.87911 0.58362 0.39778 0.0
O390 O 0.88749 0.63397 0.33558 0.0
C391 C 0.87858 0.5813 0.44806 0.0
H392 H 0.95148 0.57016 0.40298 0.0
H393 H 0.8145 0.6491 0.45013 0.0
H394 H 0.87262 0.7223 0.42778 0.0
H395 H 0.90455 0.68355 0.55227 0.0
Co396 Co 0.38654 0.36322 0.91832 0.0
C397 C 0.42983 0.36066 0.94462 0.0
C398 C 0.42206 0.3333 0.88315 0.0
C399 C 0.44186 0.33057 0.89251 0.0
N400 N 0.41426 0.3519 0.91615 0.0
N401 N 0.44679 0.34776 0.93096 0.0
H402 H 0.42894 0.37619 0.97437 0.0
H403 H 0.41417 0.32248 0.85331 0.0
C404 C 0.3684 0.32856 0.83574 0.0
O405 O 0.35454 0.32224 0.86903 0.0
N406 N 0.35881 0.37512 0.91838 0.0
C407 C 0.34693 0.38111 0.95877 0.0
C408 C 0.32827 0.38695 0.94064 0.0
C409 C 0.34733 0.3795 0.87618 0.0
N410 N 0.32839 0.38542 0.88853 0.0
C411 C 0.37453 0.33347 1.00745 0.0
C412 C 0.38126 0.28125 0.97084 0.0
C413 C 0.37394 0.28479 0.02106 0.0
C414 C 0.37072 0.31132 0.03926 0.0
C415 C 0.38458 0.30418 0.93972 0.0
N416 N 0.38055 0.33004 0.95746 0.0
H417 H 0.37334 0.35344 0.02438 0.0
H418 H 0.39053 0.30082 0.90165 0.0
H419 H 0.35125 0.38177 0.99884 0.0
H420 H 0.3526 0.37753 0.83695 0.0
O421 O 0.39168 0.38647 0.97656 0.0
O422 O 0.39361 0.39975 0.89498 0.0
O423 O 0.38225 0.34474 0.84901 0.0
C424 C 0.39492 0.40598 0.94404 0.0
H425 H 0.45205 0.3177 0.87115 0.0
H426 H 0.31559 0.39182 0.96437 0.0
H427 H 0.38441 0.26101 0.95582 0.0
H428 H 0.36602 0.31503 0.07873 0.0
Co429 Co 0.15011 0.64645 0.39201 0.0
C430 C 0.10551 0.64633 0.41295 0.0
C431 C 0.11477 0.62812 0.34138 0.0
C432 C 0.09461 0.62766 0.34309 0.0
N433 N 0.12182 0.6402 0.38456 0.0
N434 N 0.08882 0.63905 0.38793 0.0
H435 H 0.10539 0.65641 0.44998 0.0
H436 H 0.12381 0.62077 0.30977 0.0
C437 C 0.13711 0.68176 0.30535 0.0
O438 O 0.12285 0.69001 0.33615 0.0
N439 N 0.17836 0.65117 0.395 0.0
C440 C 0.18996 0.65707 0.43572 0.0
C441 C 0.20941 0.65552 0.41987 0.0
C442 C 0.19076 0.64597 0.35538 0.0
N443 N 0.20988 0.64849 0.36923 0.0
C444 C 0.13833 0.6802 0.47664 0.0
C445 C 0.1554 0.72809 0.44368 0.0
C446 C 0.14639 0.72741 0.49251 0.0
C447 C 0.13761 0.70315 0.50848 0.0
C448 C 0.15526 0.70468 0.41209 0.0
N449 N 0.14645 0.68116 0.42839 0.0
H450 H 0.1331 0.66118 0.49219 0.0
H451 H 0.16311 0.70509 0.37575 0.0
H452 H 0.18469 0.66162 0.4743 0.0
H453 H 0.18578 0.63937 0.31762 0.0
O454 O 0.15117 0.62365 0.45212 0.0
O455 O 0.15457 0.60837 0.37201 0.0
O456 O 0.14995 0.66456 0.32172 0.0
C457 C 0.15411 0.60308 0.42148 0.0
H458 H 0.08487 0.61956 0.31369 0.0
H459 H 0.22218 0.65914 0.44397 0.0
H460 H 0.16286 0.74629 0.43063 0.0
H461 H 0.13124 0.70141 0.54675 0.0
Co462 Co 0.38689 0.6375 0.11644 0.0
C463 C 0.42984 0.64133 0.08719 0.0
C464 C 0.42261 0.66558 0.1538 0.0
C465 C 0.4422 0.66896 0.14308 0.0
N466 N 0.41458 0.64854 0.1185 0.0
N467 N 0.44681 0.65374 0.1014 0.0
H468 H 0.42869 0.62738 0.05484 0.0
H469 H 0.41496 0.67514 0.18571 0.0
C470 C 0.36896 0.67345 0.19778 0.0
O471 O 0.35543 0.68041 0.1637 0.0
N472 N 0.35917 0.6258 0.11659 0.0
C473 C 0.34771 0.61803 0.07649 0.0
C474 C 0.32887 0.61335 0.09407 0.0
C475 C 0.34729 0.62333 0.15849 0.0
N476 N 0.3285 0.6172 0.14573 0.0
C477 C 0.37332 0.66725 0.0285 0.0
C478 C 0.38163 0.7193 0.06297 0.0
C479 C 0.37285 0.71588 0.01434 0.0
C480 C 0.3689 0.68944 0.99711 0.0
C481 C 0.38554 0.69634 0.09376 0.0
N482 N 0.38064 0.67064 0.07726 0.0
H483 H 0.37152 0.64726 1.01224 0.0
H484 H 0.39246 0.69946 0.13081 0.0
H485 H 0.35249 0.61531 0.03706 0.0
H486 H 0.35213 0.62657 0.19776 0.0
O487 O 0.39213 0.61424 0.0582 0.0
O488 O 0.39424 0.60096 0.13984 0.0
O489 O 0.38249 0.65625 0.18556 0.0
C490 C 0.39556 0.59471 0.09076 0.0
H491 H 0.4525 0.68104 0.16535 0.0
H492 H 0.31642 0.60762 0.07035 0.0
H493 H 0.38539 0.73945 0.07705 0.0
H494 H 0.36308 0.6858 0.95866 0.0
Co495 Co 0.15241 0.37666 0.62157 0.0
C496 C 0.10804 0.36924 0.60825 0.0
C497 C 0.11585 0.40944 0.63317 0.0
C498 C 0.0958 0.40868 0.62666 0.0
N499 N 0.12386 0.38483 0.621 0.0
N500 N 0.0909 0.38345 0.61116 0.0
H501 H 0.10877 0.34789 0.59772 0.0
H502 H 0.12381 0.42712 0.64645 0.0
C503 C 0.1383 0.34561 0.71447 0.0
O504 O 0.12355 0.33631 0.68704 0.0
N505 N 0.18054 0.36982 0.62373 0.0
C506 C 0.19257 0.36183 0.58506 0.0
C507 C 0.2117 0.36146 0.60341 0.0
C508 C 0.19243 0.37437 0.66469 0.0
N509 N 0.21159 0.36936 0.65357 0.0
C510 C 0.14039 0.34072 0.54165 0.0
C511 C 0.15849 0.29405 0.57929 0.0
C512 C 0.15014 0.29364 0.52959 0.0
C513 C 0.1406 0.31716 0.51148 0.0
C514 C 0.15743 0.31801 0.60911 0.0
N515 N 0.14858 0.34103 0.5899 0.0
H516 H 0.1341 0.35916 0.52551 0.0
H517 H 0.16485 0.31857 0.64612 0.0
H518 H 0.18778 0.35692 0.54622 0.0
H519 H 0.18714 0.38207 0.70146 0.0
O520 O 0.15548 0.39699 0.55847 0.0
O521 O 0.15784 0.41475 0.63709 0.0
O522 O 0.15078 0.36178 0.69428 0.0
C523 C 0.15837 0.41838 0.58709 0.0
H524 H 0.0855 0.42521 0.63422 0.0
H525 H 0.22466 0.35575 0.58142 0.0
H526 H 0.16628 0.27635 0.59421 0.0
H527 H 0.13439 0.31788 0.47286 0.0
H528 H 0.2115 0.13656 0.25944 0.0
H529 H 0.32675 0.10182 0.28796 0.0
H530 H 0.24798 0.10916 0.13256 0.0
H531 H 0.28931 0.12418 0.41639 0.0
H532 H 0.29796 0.10305 0.231 0.0
H533 H 0.23946 0.13028 0.31801 0.0
C534 C 0.22526 0.12889 0.24384 0.0
C535 C 0.22726 0.12349 0.19063 0.0
C536 C 0.29603 0.10751 0.27174 0.0
C537 C 0.25964 0.11667 0.25783 0.0
C538 C 0.31253 0.10692 0.30438 0.0
C539 C 0.31063 0.11295 0.35737 0.0
C540 C 0.27739 0.11434 0.29194 0.0
C541 C 0.29162 0.11906 0.37614 0.0
C542 C 0.24132 0.12549 0.27739 0.0
C543 C 0.24571 0.11402 0.17295 0.0
N544 N 0.27585 0.11975 0.34352 0.0
N545 N 0.26113 0.11104 0.2063 0.0
H546 H 0.20301 0.89382 0.76628 0.0
H547 H 0.32094 0.89419 0.74967 0.0
H548 H 0.24125 0.88636 0.89935 0.0
H549 H 0.28293 0.89051 0.61569 0.0
H550 H 0.29189 0.89501 0.80498 0.0
H551 H 0.23198 0.89601 0.7109 0.0
C552 C 0.21739 0.8926 0.78417 0.0
C553 C 0.21944 0.88986 0.83811 0.0
C554 C 0.28992 0.89413 0.76343 0.0
C555 C 0.25295 0.89269 0.77416 0.0
C556 C 0.30658 0.89357 0.73159 0.0
C557 C 0.30462 0.89211 0.67744 0.0
C558 C 0.27101 0.89331 0.74129 0.0
C559 C 0.28538 0.89188 0.65691 0.0
C560 C 0.23401 0.89398 0.75227 0.0
C561 C 0.23871 0.8888 0.85834 0.0
N562 N 0.26941 0.89237 0.68877 0.0
N563 N 0.25463 0.89018 0.82647 0.0
H564 H 0.738 0.82568 0.63187 0.0
H565 H 0.78581 0.88031 0.89605 0.0
H566 H 0.70722 0.8785 0.73924 0.0
H567 H 0.81806 0.83386 0.78166 0.0
H568 H 0.75686 0.8797 0.83957 0.0
H569 H 0.76727 0.82829 0.68635 0.0
C570 C 0.73732 0.83797 0.66664 0.0
C571 C 0.71989 0.85193 0.68051 0.0
C572 C 0.7703 0.86975 0.82668 0.0
C573 C 0.75364 0.85473 0.74391 0.0
C574 C 0.78685 0.87002 0.85905 0.0
C575 C 0.80449 0.8571 0.84379 0.0
C576 C 0.77123 0.8563 0.77862 0.0
C577 C 0.80493 0.84438 0.79495 0.0
C578 C 0.75411 0.83935 0.69797 0.0
C579 C 0.72008 0.86711 0.72686 0.0
N580 N 0.78856 0.84418 0.76436 0.0
N581 N 0.73662 0.86807 0.75675 0.0
H582 H 0.71079 0.12497 0.26683 0.0
H583 H 0.82857 0.13826 0.25169 0.0
H584 H 0.74762 0.14608 0.39697 0.0
H585 H 0.79216 0.11915 0.11967 0.0
H586 H 0.79899 0.14102 0.30526 0.0
H587 H 0.74015 0.12327 0.21197 0.0
C588 C 0.72496 0.12941 0.28398 0.0
C589 C 0.72659 0.13552 0.33701 0.0
C590 C 0.79745 0.13624 0.26454 0.0
C591 C 0.76046 0.13333 0.27411 0.0
C592 C 0.81441 0.13448 0.23388 0.0
C593 C 0.813 0.1284 0.18084 0.0
C594 C 0.77882 0.13183 0.24229 0.0
C595 C 0.79407 0.12419 0.16009 0.0
C596 C 0.74179 0.12828 0.25256 0.0
C597 C 0.74554 0.1408 0.35672 0.0
N598 N 0.77779 0.12593 0.19079 0.0
N599 N 0.76163 0.13954 0.32542 0.0
H600 H 0.70984 0.62701 0.24565 0.0
H601 H 0.82703 0.64047 0.27294 0.0
H602 H 0.74816 0.64768 0.11848 0.0
H603 H 0.78803 0.62945 0.40279 0.0
H604 H 0.7985 0.64091 0.21514 0.0
H605 H 0.73834 0.62601 0.30296 0.0
C606 C 0.72415 0.63144 0.2295 0.0
C607 C 0.72639 0.63745 0.17662 0.0
C608 C 0.79617 0.63839 0.25629 0.0
C609 C 0.75937 0.636 0.24272 0.0
C610 C 0.8125 0.63796 0.28934 0.0
C611 C 0.81 0.63487 0.34297 0.0
C612 C 0.77712 0.63557 0.27679 0.0
C613 C 0.7907 0.63217 0.3619 0.0
C614 C 0.7405 0.63074 0.26247 0.0
C615 C 0.74556 0.64258 0.15853 0.0
N616 N 0.77505 0.63251 0.3289 0.0
N617 N 0.76124 0.64174 0.19141 0.0
H618 H 0.79006 0.36078 0.61472 0.0
H619 H 0.74535 0.34008 0.89879 0.0
H620 H 0.82382 0.33324 0.74645 0.0
H621 H 0.7114 0.373 0.77169 0.0
H622 H 0.77386 0.33661 0.84236 0.0
H623 H 0.76077 0.36393 0.66989 0.0
C624 C 0.79133 0.35523 0.65509 0.0
C625 C 0.80955 0.34683 0.67586 0.0
C626 C 0.76019 0.34465 0.82673 0.0
C627 C 0.77602 0.35059 0.73944 0.0
C628 C 0.74383 0.34684 0.85919 0.0
C629 C 0.72577 0.35709 0.84049 0.0
C630 C 0.75868 0.35265 0.77474 0.0
C631 C 0.72485 0.36483 0.7881 0.0
C632 C 0.7746 0.3572 0.68667 0.0
C633 C 0.81025 0.34022 0.72872 0.0
N634 N 0.74105 0.36247 0.75716 0.0
N635 N 0.79379 0.34224 0.75851 0.0
H636 H 0.21174 0.36769 0.75885 0.0
H637 H 0.32812 0.3924 0.78341 0.0
H638 H 0.24994 0.37818 0.62714 0.0
H639 H 0.28965 0.37898 0.91378 0.0
H640 H 0.2997 0.38902 0.72577 0.0
H641 H 0.24003 0.37354 0.81605 0.0
C642 C 0.22603 0.37139 0.74183 0.0
C643 C 0.22834 0.37249 0.68784 0.0
C644 C 0.2975 0.38695 0.76705 0.0
C645 C 0.26104 0.37901 0.75358 0.0
C646 C 0.31378 0.38882 0.80018 0.0
C647 C 0.3115 0.38592 0.854 0.0
C648 C 0.27868 0.38214 0.78762 0.0
C649 C 0.29232 0.38168 0.87292 0.0
C650 C 0.24225 0.37461 0.77463 0.0
C651 C 0.2474 0.37687 0.66834 0.0
N652 N 0.27676 0.37983 0.83988 0.0
N653 N 0.26297 0.37999 0.70112 0.0
H654 H 0.21181 0.65003 0.26401 0.0
H655 H 0.32709 0.61331 0.25132 0.0
H656 H 0.24738 0.63554 0.39988 0.0
H657 H 0.29025 0.62542 0.1169 0.0
H658 H 0.29827 0.62056 0.30646 0.0
H659 H 0.24044 0.64042 0.21001 0.0
C660 C 0.22557 0.64468 0.28267 0.0
C661 C 0.227 0.64351 0.3369 0.0
C662 C 0.29649 0.62147 0.26486 0.0
C663 C 0.2602 0.63268 0.27468 0.0
C664 C 0.31301 0.61739 0.23319 0.0
C665 C 0.3113 0.61877 0.17897 0.0
C666 C 0.27804 0.62709 0.2424 0.0
C667 C 0.29244 0.6238 0.15819 0.0
C668 C 0.24201 0.63929 0.25165 0.0
C669 C 0.2455 0.63696 0.35844 0.0
N670 N 0.27666 0.62788 0.18982 0.0
N671 N 0.26132 0.63178 0.32734 0.0
H672 H 0.98297 0.06958 0.11944 0.0
H673 H 0.06078 0.19036 0.09603 0.0
H674 H 0.96652 0.15427 0.10149 0.0
H675 H 0.07772 0.10549 0.10244 0.0
H676 H 0.02624 0.17706 0.08947 0.0
H677 H 0.01746 0.08169 0.10612 0.0
C678 C 0.9866 0.09075 0.11258 0.0
C679 C 0.97177 0.11097 0.11224 0.0
C680 C 0.03745 0.16125 0.09163 0.0
C681 C 1.0114 0.12502 0.09657 0.0
C682 C 0.05719 0.16885 0.09531 0.0
C683 C 0.07211 0.149 0.10016 0.0
C684 C 0.03245 0.1335 0.09342 0.0
C685 C 0.06668 0.12142 0.09856 0.0
C686 C 1.00632 0.09762 0.10464 0.0
C687 C 0.97737 0.13797 0.10198 0.0
N688 N 0.04726 0.11448 0.09607 0.0
N689 N 0.99672 0.14422 0.09511 0.0
H690 H 0.5655 0.8306 0.5927 0.0
H691 H 0.4565 0.89518 0.58014 0.0
H692 H 0.55325 0.91709 0.59865 0.0
H693 H 0.46886 0.80961 0.60265 0.0
H694 H 0.49197 0.90319 0.56892 0.0
H695 H 0.53032 0.82224 0.57894 0.0
C696 C 0.55547 0.84784 0.59032 0.0
C697 C 0.56231 0.87456 0.59747 0.0
C698 C 0.48688 0.88259 0.57557 0.0
C699 C 0.52198 0.86518 0.58208 0.0
C700 C 0.46664 0.87802 0.58147 0.0
C701 C 0.45982 0.85175 0.5928 0.0
C702 C 0.50031 0.86068 0.58069 0.0
C703 C 0.4736 0.83023 0.59467 0.0
C704 C 0.53536 0.84307 0.58277 0.0
C705 C 0.54856 0.89613 0.59436 0.0
N706 N 0.49316 0.83518 0.58913 0.0
N707 N 0.52908 0.89098 0.58724 0.0
H708 H 0.95605 0.88635 0.9437 0.0
H709 H 0.06773 0.83067 0.95541 0.0
H710 H 0.97201 0.80112 0.94316 0.0
H711 H 0.05129 0.9118 0.90735 0.0
H712 H 0.03294 0.82164 0.97629 0.0
H713 H 0.99102 0.89795 0.95588 0.0
C714 C 0.96686 0.87011 0.94781 0.0
C715 C 0.96124 0.84278 0.94224 0.0
C716 C 0.03702 0.84162 0.96217 0.0
C717 C 1.00114 0.85572 0.95555 0.0
C718 C 0.05686 0.84679 0.95074 0.0
C719 C 0.06227 0.87192 0.92943 0.0
C720 C 0.0226 0.86187 0.9527 0.0
C721 C 0.04762 0.89208 0.92338 0.0
C722 C 0.98681 0.87668 0.95423 0.0
C723 C 0.97584 0.82244 0.94702 0.0
N724 N 0.02847 0.88659 0.93453 0.0
N725 N 0.9951 0.82929 0.95294 0.0
H726 H 0.56216 0.08674 0.4178 0.0
H727 H 0.47326 0.1907 0.44202 0.0
H728 H 0.57054 0.17187 0.45218 0.0
H729 H 0.46536 0.10364 0.44811 0.0
H730 H 0.50873 0.18416 0.45467 0.0
H731 H 0.52704 0.09175 0.43776 0.0
C732 C 0.55659 0.10637 0.43082 0.0
C733 C 0.56918 0.12893 0.4334 0.0
C734 C 0.49928 0.16645 0.4543 0.0
C735 C 0.52888 0.13513 0.45488 0.0
C736 C 0.47903 0.1702 0.44709 0.0
C737 C 0.46642 0.14766 0.44377 0.0
C738 C 0.50713 0.13988 0.45713 0.0
C739 C 0.47458 0.12153 0.45067 0.0
C740 C 0.53655 0.10927 0.44209 0.0
C741 C 0.56131 0.15397 0.45015 0.0
N742 N 0.49447 0.11831 0.45604 0.0
N743 N 0.54158 0.15654 0.45931 0.0
H744 H 0.46472 0.60639 0.07226 0.0
H745 H 0.57105 0.67718 0.06374 0.0
H746 H 0.47386 0.693 0.0865 0.0
H747 H 0.56182 0.59234 0.09846 0.0
H748 H 0.53551 0.68234 0.04609 0.0
H749 H 0.50021 0.60016 0.05598 0.0
C750 C 0.47413 0.62412 0.07051 0.0
C751 C 0.46646 0.65019 0.08117 0.0
C752 C 0.54135 0.66245 0.05647 0.0
C753 C 0.50693 0.64335 0.06299 0.0
C754 C 0.5616 0.6595 0.06603 0.0
C755 C 0.56923 0.63436 0.08276 0.0
C756 C 0.52876 0.63999 0.06327 0.0
C757 C 0.55639 0.61208 0.08593 0.0
C758 C 0.49437 0.62059 0.06167 0.0
C759 C 0.4793 0.67253 0.07902 0.0
N760 N 0.53679 0.61544 0.07676 0.0
N761 N 0.4989 0.6686 0.07064 0.0
H762 H 0.07469 0.33726 0.64907 0.0
H763 H 0.96574 0.37628 0.55154 0.0
H764 H 0.06193 0.40863 0.55768 0.0
H765 H 0.97731 0.33541 0.69576 0.0
H766 H 1.00152 0.37775 0.53504 0.0
H767 H 0.03937 0.32585 0.64793 0.0
C768 C 0.06449 0.35009 0.62772 0.0
C769 C 0.07108 0.37393 0.60362 0.0
C770 C 0.99616 0.36803 0.56984 0.0
C771 C 0.03095 0.3611 0.60187 0.0
C772 C 0.97583 0.36705 0.579 0.0
C773 C 0.96873 0.35584 0.62511 0.0
C774 C 1.00935 0.35721 0.60664 0.0
C775 C 0.98232 0.34438 0.65994 0.0
C776 C 0.04439 0.34373 0.62736 0.0
C777 C 0.05731 0.39016 0.57696 0.0
N778 N 1.00199 0.34539 0.65009 0.0
N779 N 0.03788 0.38351 0.57686 0.0
H780 H 0.46355 0.39675 0.9515 0.0
H781 H 0.5723 0.33109 0.95802 0.0
H782 H 0.47543 0.31025 0.94742 0.0
H783 H 0.55954 0.41402 0.91337 0.0
H784 H 0.53724 0.32496 0.97921 0.0
H785 H 0.49902 0.40501 0.96268 0.0
C786 C 0.47358 0.37952 0.95437 0.0
C787 C 0.46666 0.35282 0.94802 0.0
C788 C 0.5422 0.34465 0.96567 0.0
C789 C 0.5071 0.36198 0.9604 0.0
C790 C 0.56219 0.34817 0.95402 0.0
C791 C 0.56868 0.37299 0.93348 0.0
C792 C 0.52875 0.36623 0.95724 0.0
C793 C 0.555 0.39447 0.92851 0.0
C794 C 0.4938 0.3842 0.9603 0.0
C795 C 0.48028 0.33115 0.95151 0.0
N796 N 0.53568 0.39057 0.93987 0.0
N797 N 0.49984 0.33619 0.95701 0.0
H798 H 0.96271 0.65931 0.38166 0.0
H799 H 0.07209 0.62072 0.47599 0.0
H800 H 0.97628 0.58758 0.47138 0.0
H801 H 0.05981 0.66388 0.33465 0.0
H802 H 0.03638 0.61883 0.4935 0.0
H803 H 0.99786 0.67141 0.38289 0.0
C804 C 0.97305 0.64647 0.4025 0.0
C805 C 0.96672 0.62233 0.42607 0.0
C806 C 0.04157 0.62919 0.4592 0.0
C807 C 1.00668 0.63601 0.42803 0.0
C808 C 0.06185 0.63044 0.44954 0.0
C809 C 0.06869 0.64243 0.4039 0.0
C810 C 0.0282 0.64043 0.42329 0.0
C811 C 0.05495 0.65443 0.37019 0.0
C812 C 0.99305 0.65325 0.40298 0.0
C813 C 0.98069 0.60619 0.45226 0.0
N814 N 0.03534 0.65306 0.38042 0.0
N815 N 1.00003 0.61326 0.45244 0.0
H816 H 0.14395 0.05714 0.14305 0.0
H817 H 0.14161 0.97063 0.87813 0.0
H818 H 0.14486 0.09324 0.99091 0.0
H819 H 0.13783 0.93445 0.02985 0.0
H820 H 0.14207 0.01598 0.9188 0.0
H821 H 0.1409 0.01191 0.10256 0.0
C822 C 0.14341 0.05558 0.10127 0.0
C823 C 0.14473 0.07899 0.07041 0.0
C824 C 0.14106 0.99809 0.94315 0.0
C825 C 0.14134 0.02745 0.02375 0.0
C826 C 0.14078 0.97223 0.91988 0.0
C827 C 0.13972 0.94873 0.95055 0.0
C828 C 0.14032 0.00042 0.99747 0.0
C829 C 0.1387 0.95199 1.00457 0.0
C830 C 0.14169 0.02978 0.07811 0.0
C831 C 0.14397 0.07576 0.01635 0.0
N832 N 0.1391 0.97728 0.02625 0.0
N833 N 0.14239 0.05056 0.99484 0.0
H834 H 0.39428 0.91869 0.48806 0.0
H835 H 0.40305 0.07879 0.54124 0.0
H836 H 0.39381 0.95438 0.64092 0.0
H837 H 0.39425 0.04426 0.38924 0.0
H838 H 0.40472 0.03296 0.57729 0.0
H839 H 0.3991 0.96381 0.45109 0.0
C840 C 0.39533 0.93603 0.514 0.0
C841 C 0.39346 0.93277 0.56779 0.0
C842 C 0.40258 0.03532 0.53602 0.0
C843 C 0.39898 0.98468 0.52532 0.0
C844 C 0.40166 0.06152 0.51525 0.0
C845 C 0.39831 0.06537 0.46209 0.0
C846 C 0.40012 0.01266 0.50351 0.0
C847 C 0.39681 0.04222 0.4304 0.0
C848 C 0.39807 0.96182 0.49271 0.0
C849 C 0.3951 0.95597 0.59931 0.0
N850 N 0.39756 0.01681 0.45169 0.0
N851 N 0.39765 0.981 0.57755 0.0
H852 H 0.88771 0.89596 0.0436 0.0
H853 H 0.87789 0.0568 0.99844 0.0
H854 H 0.88253 0.93329 0.89307 0.0
H855 H 0.88657 0.02124 0.14943 0.0
H856 H 0.87799 0.01142 0.96039 0.0
H857 H 0.88654 0.94114 0.0835 0.0
C858 C 0.88643 0.9137 0.01884 0.0
C859 C 0.88522 0.91086 0.96481 0.0
C860 C 0.8798 0.0134 1.00185 0.0
C861 C 0.8837 0.96271 1.01051 0.0
C862 C 0.87969 0.03936 0.02377 0.0
C863 C 0.88232 0.04282 0.07728 0.0
C864 C 0.88261 0.99051 0.03351 0.0
C865 C 0.88444 0.01945 0.10805 0.0
C866 C 0.88571 0.9395 0.04176 0.0
C867 C 0.88358 0.93454 0.9348 0.0
N868 N 0.88465 0.99422 0.08564 0.0
N869 N 0.8828 0.95947 0.95809 0.0
H870 H 0.6531 0.04212 0.37378 0.0
H871 H 0.65583 0.9549 0.63645 0.0
H872 H 0.65538 0.07713 0.52712 0.0
H873 H 0.65307 0.91846 0.48441 0.0
H874 H 0.6581 -5e-05 0.59617 0.0
H875 H 0.65523 0.99638 0.41255 0.0
C876 C 0.65413 0.04019 0.41543 0.0
C877 C 0.6539 0.06342 0.44723 0.0
C878 C 0.65712 0.98207 0.57159 0.0
C879 C 0.65637 0.01146 0.49177 0.0
C880 C 0.65589 0.95637 0.59464 0.0
C881 C 0.65416 0.93296 0.56379 0.0
C882 C 0.65656 0.98435 0.5173 0.0
C883 C 0.65428 0.93602 0.50972 0.0
C884 C 0.65534 0.01414 0.43757 0.0
C885 C 0.65533 0.0598 0.50102 0.0
N886 N 0.65533 0.96124 0.48821 0.0
N887 N 0.65643 0.03439 0.5215 0.0
H888 H 0.65546 0.54766 0.13399 0.0
H889 H 0.65223 0.45811 0.873 0.0
H890 H 0.65098 0.58273 0.98135 0.0
H891 H 0.65637 0.42435 0.02678 0.0
H892 H 0.6533 0.5042 0.91097 0.0
H893 H 0.65716 0.50216 0.09459 0.0
C894 C 0.65487 0.54578 0.09226 0.0
C895 C 0.653 0.56897 0.06099 0.0
C896 C 0.65406 0.48664 0.93626 0.0
C897 C 0.65493 0.51708 0.01549 0.0
C898 C 0.6535 0.46039 0.91456 0.0
C899 C 0.65409 0.4374 0.94673 0.0
C900 C 0.65524 0.48976 0.99039 0.0
C901 C 0.65572 0.44147 1.00041 0.0
C902 C 0.65585 0.51983 0.0697 0.0
C903 C 0.65235 0.56538 1.00702 0.0
N904 N 0.65616 0.46706 0.02046 0.0
N905 N 0.65326 0.53995 0.986 0.0
H906 H 0.87246 0.40952 0.50743 0.0
H907 H 0.87968 0.57046 0.5518 0.0
H908 H 0.8837 0.44488 0.6576 0.0
H909 H 0.87134 0.53173 0.40329 0.0
H910 H 0.87793 0.52569 0.5934 0.0
H911 H 0.86856 0.45484 0.4715 0.0
C912 C 0.87409 0.42693 0.53302 0.0
C913 C 0.8787 0.42344 0.58553 0.0
C914 C 0.87633 0.52703 0.55179 0.0
C915 C 0.87429 0.47581 0.54417 0.0
C916 C 0.87729 0.55256 0.52796 0.0
C917 C 0.87577 0.55477 0.4739 0.0
C918 C 0.8738 0.50358 0.5213 0.0
C919 C 0.87267 0.53097 0.445 0.0
C920 C 0.87181 0.45288 0.51236 0.0
C921 C 0.88025 0.44674 0.61686 0.0
N922 N 0.87189 0.50639 0.46905 0.0
N923 N 0.87825 0.47207 0.59553 0.0
H924 H 0.3982 0.45401 0.88916 0.0
H925 H 0.39857 0.5466 0.14564 0.0
H926 H 0.40052 0.42137 0.04402 0.0
H927 H 0.40126 0.57919 0.99085 0.0
H928 H 0.40154 0.50037 0.10934 0.0
H929 H 0.40154 0.50013 0.92546 0.0
C930 C 0.39962 0.45651 0.93064 0.0
C931 C 0.39892 0.43385 0.96355 0.0
C932 C 0.40165 0.51769 0.08339 0.0
C933 C 0.40257 0.48641 1.00547 0.0
C934 C 0.40001 0.54406 0.10418 0.0
C935 C 0.39951 0.56675 0.07128 0.0
C936 C 0.40271 0.51407 0.02935 0.0
C937 C 0.40141 0.56228 0.01774 0.0
C938 C 0.40149 0.48282 0.95143 0.0
C939 C 0.40081 0.43826 0.01711 0.0
N940 N 0.40276 0.53652 0.99848 0.0
N941 N 0.40239 0.46397 0.03636 0.0
H942 H 0.15745 0.5536 0.37043 0.0
H943 H 0.16128 0.46817 0.63533 0.0
H944 H 0.15683 0.58964 0.523 0.0
H945 H 0.16009 0.43053 0.48421 0.0
H946 H 0.1621 0.51305 0.594 0.0
H947 H 0.16062 0.50824 0.4104 0.0
C948 C 0.15806 0.55199 0.41218 0.0
C949 C 0.15675 0.5754 0.44337 0.0
C950 C 0.16177 0.49496 0.56983 0.0
C951 C 0.16039 0.52383 0.48931 0.0
C952 C 0.16137 0.46934 0.59349 0.0
C953 C 0.16054 0.4456 0.56322 0.0
C954 C 0.1613 0.49686 0.5155 0.0
C955 C 0.16065 0.44833 0.50909 0.0
C956 C 0.15986 0.52614 0.43501 0.0
C957 C 0.15765 0.57216 0.49733 0.0
N958 N 0.16091 0.47347 0.48696 0.0
N959 N 0.15936 0.54694 0.51848 0.0
H960 H 0.17308 0.34245 0.76834 0.0
H961 H 0.12602 0.26475 1.01032 0.0
H962 H 0.11119 0.32388 0.78039 0.0
H963 H 0.1859 0.25175 0.96007 0.0
H964 H 0.12134 0.29771 0.93972 0.0
H965 H 0.17869 0.31997 0.85187 0.0
C966 C 0.16063 0.33404 0.78892 0.0
C967 C 0.14165 0.33482 0.76723 0.0
C968 C 0.1356 0.288 0.94481 0.0
C969 C 0.14796 0.3094 0.86278 0.0
C970 C 0.13833 0.26945 0.98529 0.0
C971 C 0.15636 0.2556 0.99082 0.0
C972 C 0.15112 0.29295 0.9102 0.0
C973 C 0.17177 0.26204 0.95691 0.0
C974 C 0.16386 0.32115 0.83641 0.0
C975 C 0.12608 0.32348 0.79549 0.0
N976 N 0.16879 0.28018 0.91787 0.0
N977 N 0.12958 0.31121 0.84177 0.0
H978 H 0.3353 0.76997 0.46101 0.0
H979 H 0.39658 0.66993 0.27548 0.0
H980 H 0.39542 0.74587 0.4915 0.0
H981 H 0.33871 0.70241 0.24116 0.0
H982 H 0.39482 0.69122 0.36133 0.0
H983 H 0.33441 0.73807 0.38838 0.0
C984 C 0.3482 0.75752 0.45286 0.0
C985 C 0.36551 0.76069 0.48181 0.0
C986 C 0.38247 0.69348 0.33509 0.0
C987 C 0.3648 0.72453 0.3981 0.0
C988 C 0.38347 0.68138 0.28607 0.0
C989 C 0.36789 0.68473 0.2508 0.0
C990 C 0.36572 0.70888 0.34891 0.0
C991 C 0.3512 0.6996 0.26673 0.0
C992 C 0.34774 0.73941 0.41128 0.0
C993 C 0.38179 0.74396 0.47004 0.0
N994 N 0.35062 0.71121 0.31443 0.0
N995 N 0.38116 0.72687 0.42847 0.0
H996 H 0.17358 0.76536 0.02733 0.0
H997 H 0.1666 0.67476 0.23341 0.0
H998 H 0.11012 0.76784 0.02927 0.0
H999 H 0.10987 0.71353 0.25547 0.0
H1000 H 0.16836 0.69504 0.14715 0.0
H1001 H 0.17325 0.73286 0.09861 0.0
C1002 C 0.15954 0.75826 0.04181 0.0
C1003 C 0.14185 0.76915 0.0224 0.0
C1004 C 0.15561 0.69935 0.17098 0.0
C1005 C 0.14125 0.73201 0.10445 0.0
C1006 C 0.15454 0.68758 0.22017 0.0
C1007 C 0.13823 0.69284 0.25214 0.0
C1008 C 0.14025 0.71654 0.15371 0.0
C1009 C 0.1229 0.70927 0.2326 0.0
C1010 C 0.15933 0.73961 0.08252 0.0
C1011 C 0.12406 0.75968 0.04286 0.0
N1012 N 0.12433 0.72059 0.18483 0.0
N1013 N 0.12422 0.74204 0.0835 0.0
H1014 H 0.33832 0.30076 0.79021 0.0
H1015 H 0.40125 0.25603 0.54276 0.0
H1016 H 0.39718 0.32975 0.76097 0.0
H1017 H 0.34278 0.22742 0.57681 0.0
H1018 H 0.39847 0.28863 0.61485 0.0
H1019 H 0.33826 0.27883 0.70561 0.0
C1020 C 0.35124 0.30258 0.76591 0.0
C1021 C 0.36789 0.31679 0.78304 0.0
C1022 C 0.38612 0.27554 0.60597 0.0
C1023 C 0.36795 0.29159 0.68577 0.0
C1024 C 0.38766 0.25714 0.56462 0.0
C1025 C 0.37228 0.23893 0.55434 0.0
C1026 C 0.36909 0.27562 0.63695 0.0
C1027 C 0.35504 0.24094 0.58399 0.0
C1028 C 0.35117 0.29011 0.71743 0.0
C1029 C 0.38408 0.3188 0.74948 0.0
N1030 N 0.354 0.25871 0.62423 0.0
N1031 N 0.38379 0.30607 0.70262 0.0
H1032 H 0.86778 0.64029 0.25196 0.0
H1033 H 0.849 0.73177 0.05365 0.0
H1034 H 0.92477 0.6789 0.25222 0.0
H1035 H 0.91135 0.72826 0.02276 0.0
H1036 H 0.85361 0.6994 0.1244 0.0
H1037 H 0.86145 0.65913 0.16609 0.0
C1038 C 0.87901 0.65261 0.2339 0.0
C1039 C 0.8967 0.65846 0.25982 0.0
C1040 C 0.86623 0.70486 0.10115 0.0
C1041 C 0.88939 0.68046 0.16182 0.0
C1042 C 0.86358 0.72344 0.06089 0.0
C1043 C 0.87981 0.73253 0.0324 0.0
C1044 C 0.88533 0.69564 0.11348 0.0
C1045 C 0.89845 0.72148 0.04358 0.0
C1046 C 0.8753 0.66355 0.18499 0.0
C1047 C 0.9108 0.67425 0.2341 0.0
N1048 N 0.90078 0.70404 0.08404 0.0
N1049 N 0.90679 0.68482 0.18665 0.0
H1050 H 0.61232 0.24304 0.54462 0.0
H1051 H 0.68336 0.29522 0.76245 0.0
H1052 H 0.67538 0.24565 0.5265 0.0
H1053 H 0.62449 0.32852 0.75138 0.0
H1054 H 0.67975 0.27574 0.67607 0.0
H1055 H 0.61504 0.27473 0.61855 0.0
C1056 C 0.62662 0.25107 0.55506 0.0
C1057 C 0.64368 0.2417 0.5298 0.0
C1058 C 0.66765 0.28751 0.69219 0.0
C1059 C 0.64696 0.27692 0.61467 0.0
C1060 C 0.66966 0.29845 0.74169 0.0
C1061 C 0.65416 0.31334 0.76411 0.0
C1062 C 0.64982 0.29088 0.66515 0.0
C1063 C 0.63678 0.31714 0.73528 0.0
C1064 C 0.6282 0.26891 0.59742 0.0
C1065 C 0.66191 0.25231 0.54525 0.0
N1066 N 0.63494 0.30559 0.68746 0.0
N1067 N 0.66311 0.2689 0.58721 0.0
H1068 H 0.88169 0.17889 0.91487 0.0
H1069 H 0.88186 0.32815 0.79956 0.0
H1070 H 0.89513 0.24596 0.01741 0.0
H1071 H 0.9092 0.2589 0.72412 0.0
H1072 H 0.87766 0.30015 0.8782 0.0
H1073 H 0.88147 0.21032 0.84213 0.0
C1074 C 0.88456 0.20029 0.92215 0.0
C1075 C 0.8891 0.20968 0.97211 0.0
C1076 C 0.88457 0.2913 0.84425 0.0
C1077 C 0.88832 0.24584 0.88885 0.0
C1078 C 0.8869 0.30711 0.79956 0.0
C1079 C 0.89597 0.29576 0.75555 0.0
C1080 C 0.89081 0.26392 0.84384 0.0
C1081 C 0.90229 0.26849 0.75733 0.0
C1082 C 0.88434 0.21818 0.88061 0.0
C1083 C 0.89183 0.23786 0.9794 0.0
N1084 N 0.89942 0.25344 0.80054 0.0
N1085 N 0.89159 0.25506 0.93794 0.0
H1086 H 0.6093 0.75646 0.46891 0.0
H1087 H 0.68413 0.70888 0.25585 0.0
H1088 H 0.672 0.75776 0.49525 0.0
H1089 H 0.62665 0.6723 0.2664 0.0
H1090 H 0.67965 0.72821 0.34246 0.0
H1091 H 0.61462 0.726 0.39456 0.0
C1092 C 0.62414 0.74971 0.45973 0.0
C1093 C 0.64024 0.75942 0.48822 0.0
C1094 C 0.66811 0.7157 0.32609 0.0
C1095 C 0.64649 0.72554 0.40252 0.0
C1096 C 0.67059 0.70484 0.27655 0.0
C1097 C 0.65568 0.68915 0.25388 0.0
C1098 C 0.65038 0.7114 0.35271 0.0
C1099 C 0.63851 0.68431 0.28257 0.0
C1100 C 0.62717 0.73244 0.41732 0.0
C1101 C 0.6592 0.75044 0.47451 0.0
N1102 N 0.63617 0.69578 0.33025 0.0
N1103 N 0.66185 0.73441 0.43198 0.0
H1104 H 0.66819 0.75738 0.98608 0.0
H1105 H 0.597 0.80985 0.76322 0.0
H1106 H 0.6056 0.74337 0.98621 0.0
H1107 H 0.65762 0.83489 0.77745 0.0
H1108 H 0.59909 0.78897 0.84874 0.0
H1109 H 0.66392 0.79 0.9154 0.0
C1110 C 0.65347 0.76179 0.97197 0.0
C1111 C 0.63721 0.74774 0.99179 0.0
C1112 C 0.61188 0.79928 0.83347 0.0
C1113 C 0.63223 0.78436 0.9099 0.0
C1114 C 0.61073 0.81112 0.78446 0.0
C1115 C 0.62724 0.82387 0.7628 0.0
C1116 C 0.62973 0.7999 0.86095 0.0
C1117 C 0.64456 0.82513 0.79244 0.0
C1118 C 0.65103 0.78028 0.93146 0.0
C1119 C 0.61846 0.75396 0.97211 0.0
N1120 N 0.64542 0.81301 0.8397 0.0
N1121 N 0.61651 0.77148 0.93157 0.0
H1122 H 0.88445 0.13666 0.29803 0.0
H1123 H 0.88462 0.28644 0.40987 0.0
H1124 H 0.9165 0.20265 0.22758 0.0
H1125 H 0.89395 0.22012 0.51718 0.0
H1126 H 0.88673 0.25419 0.33841 0.0
H1127 H 0.87948 0.16546 0.37574 0.0
C1128 C 0.89046 0.15709 0.29897 0.0
C1129 C 0.90098 0.16728 0.25645 0.0
C1130 C 0.88823 0.24669 0.37764 0.0
C1131 C 0.89493 0.20011 0.34374 0.0
C1132 C 0.88716 0.26508 0.41855 0.0
C1133 C 0.88981 0.25616 0.46973 0.0
C1134 C 0.89154 0.21896 0.38758 0.0
C1135 C 0.89207 0.22794 0.47835 0.0
C1136 C 0.88767 0.17336 0.34316 0.0
C1137 C 0.90844 0.19386 0.25952 0.0
N1138 N 0.89303 0.21023 0.43751 0.0
N1139 N 0.90507 0.20942 0.30207 0.0
H1140 H 0.64815 0.15225 0.22279 0.0
H1141 H 0.61504 0.29233 0.09251 0.0
H1142 H 0.65042 0.23079 0.29836 0.0
H1143 H 0.64877 0.23398 1.00356 0.0
H1144 H 0.61695 0.26196 0.16729 0.0
H1145 H 0.63914 0.1754 0.14113 0.0
C1146 C 0.64668 0.17429 0.22217 0.0
C1147 C 0.65021 0.18974 0.26707 0.0
C1148 C 0.62351 0.25549 0.13104 0.0
C1149 C 0.63934 0.21589 0.17522 0.0
C1150 C 0.62226 0.27263 0.08832 0.0
C1151 C 0.63186 0.26564 0.04209 0.0
C1152 C 0.63435 0.23107 0.12753 0.0
C1153 C 0.64113 0.23997 0.0386 0.0
C1154 C 0.64156 0.18738 0.1758 0.0
C1155 C 0.64808 0.21818 0.26447 0.0
N1156 N 0.6424 0.22364 0.08119 0.0
N1157 N 0.64264 0.2303 0.21947 0.0
H1158 H 0.8533 0.72825 0.52063 0.0
H1159 H 0.89835 0.81673 0.75184 0.0
H1160 H 0.91568 0.73644 0.54749 0.0
H1161 H 0.84125 0.77856 0.75806 0.0
H1162 H 0.90286 0.79861 0.66435 0.0
H1163 H 0.84686 0.75877 0.59425 0.0
C1164 C 0.86562 0.73723 0.54101 0.0
C1165 C 0.88504 0.72988 0.52827 0.0
C1166 C 0.88928 0.79445 0.68478 0.0
C1167 C 0.87782 0.76431 0.61242 0.0
C1168 C 0.88669 0.80473 0.73472 0.0
C1169 C 0.86954 0.79869 0.7627 0.0
C1170 C 0.87451 0.77841 0.66235 0.0
C1171 C 0.85484 0.78332 0.73823 0.0
C1172 C 0.86195 0.75434 0.58326 0.0
C1173 C 0.90051 0.74163 0.55635 0.0
N1174 N 0.85769 0.7736 0.68948 0.0
N1175 N 0.89658 0.75814 0.59744 0.0
H1176 H 0.39907 0.24213 0.0426 0.0
H1177 H 0.33735 0.20105 0.29299 0.0
H1178 H 0.34184 0.27518 0.08114 0.0
H1179 H 0.39474 0.16718 0.25783 0.0
H1180 H 0.33704 0.22353 0.20909 0.0
H1181 H 0.39589 0.20934 0.11371 0.0
C1182 C 0.38565 0.24203 0.06528 0.0
C1183 C 0.37079 0.26154 0.05653 0.0
C1184 C 0.34967 0.21104 0.21946 0.0
C1185 C 0.36717 0.22457 0.13811 0.0
C1186 C 0.34988 0.19824 0.26753 0.0
C1187 C 0.36622 0.18253 0.28282 0.0
C1188 C 0.36599 0.20835 0.18641 0.0
C1189 C 0.3819 0.17933 0.24783 0.0
C1190 C 0.38391 0.22349 0.10608 0.0
C1191 C 0.35377 0.26071 0.0872 0.0
N1192 N 0.3815 0.19238 0.20144 0.0
N1193 N 0.35252 0.24277 0.12693 0.0
H1194 H 0.12364 0.84104 0.74469 0.0
H1195 H 0.17947 0.75356 0.52612 0.0
H1196 H 0.18323 0.81092 0.76084 0.0
H1197 H 0.11639 0.75255 0.54523 0.0
H1198 H 0.18189 0.78518 0.59977 0.0
H1199 H 0.12168 0.81857 0.65961 0.0
C1200 C 0.13637 0.83 0.73006 0.0
C1201 C 0.15356 0.8276 0.76001 0.0
C1202 C 0.1675 0.77838 0.58725 0.0
C1203 C 0.15151 0.80229 0.66281 0.0
C1204 C 0.16611 0.76058 0.54498 0.0
C1205 C 0.14771 0.75047 0.52972 0.0
C1206 C 0.15035 0.78636 0.61393 0.0
C1207 C 0.13085 0.75987 0.55598 0.0
C1208 C 0.13522 0.81715 0.68169 0.0
C1209 C 0.16962 0.81301 0.73928 0.0
N1210 N 0.13257 0.77721 0.59693 0.0
N1211 N 0.16821 0.80093 0.69201 0.0
H1212 H 0.38965 0.83611 0.77687 0.0
H1213 H 0.33899 0.72666 0.96156 0.0
H1214 H 0.33364 0.79801 0.74634 0.0
H1215 H 0.39763 0.75732 0.98656 0.0
H1216 H 0.3345 0.75931 0.89129 0.0
H1217 H 0.39072 0.81352 0.86116 0.0
C1218 C 0.3775 0.82318 0.78801 0.0
C1219 C 0.36165 0.81864 0.75415 0.0
C1220 C 0.34828 0.75921 0.91247 0.0
C1221 C 0.36277 0.79287 0.85061 0.0
C1222 C 0.35081 0.74063 0.95265 0.0
C1223 C 0.36879 0.73913 0.97935 0.0
C1224 C 0.36391 0.77629 0.89848 0.0
C1225 C 0.38355 0.75786 0.96682 0.0
C1226 C 0.37813 0.81032 0.83617 0.0
C1227 C 0.34626 0.80185 0.77085 0.0
N1228 N 0.38091 0.77544 0.92667 0.0
N1229 N 0.34728 0.78946 0.8177 0.0
H1230 H 0.13586 0.18124 0.27459 0.0
H1231 H 0.18473 0.26835 0.50313 0.0
H1232 H 0.19654 0.20707 0.27365 0.0
H1233 H 0.12225 0.26687 0.47293 0.0
H1234 H 0.18992 0.23628 0.43116 0.0
H1235 H 0.13147 0.20343 0.35871 0.0
C1236 C 0.14832 0.19136 0.29222 0.0
C1237 C 0.16654 0.19262 0.26663 0.0
C1238 C 0.17505 0.24265 0.44087 0.0
C1239 C 0.16162 0.21781 0.36321 0.0
C1240 C 0.17207 0.26069 0.4822 0.0
C1241 C 0.15304 0.27027 0.49378 0.0
C1242 C 0.15886 0.23395 0.41137 0.0
C1243 C 0.13716 0.26004 0.46499 0.0
C1244 C 0.14578 0.20404 0.34023 0.0
C1245 C 0.18217 0.20589 0.29163 0.0
N1246 N 0.14043 0.24255 0.42494 0.0
N1247 N 0.17934 0.21805 0.33846 0.0
loop_
_geom_bond_atom_site_label_1
_geom_bond_atom_site_label_2
_geom_bond_distance
_geom_bond_site_symmetry_2
_ccdc_geom_bond_type
Co0 N4 2.148 . S
Co0 N10 2.128 . S
Co0 N20 2.194 . S
Co0 O25 2.351 . S
Co0 O26 2.155 . S
Co0 O27 2.096 . S
C1 N4 1.301 . S
C1 N5 1.328 . S
C1 H6 0.930 . S
C2 C3 1.333 . S
C2 N4 1.317 . S
C2 H7 0.930 . S
C3 C2 1.333 . S
C3 N5 1.350 . S
C3 H29 0.931 . S
N4 Co0 2.148 . S
N4 C1 1.301 . S
N4 C2 1.317 . S
N5 C1 1.328 . S
N5 C3 1.350 . S
H6 C1 0.930 . S
H7 C2 0.930 . S
C8 O9 1.224 . S
C8 O27 1.247 . S
O9 C8 1.224 . S
N10 Co0 2.128 . S
N10 C11 1.355 . S
N10 C13 1.311 . S
C11 N10 1.355 . S
C11 C12 1.363 . S
C11 H23 0.929 . S
C12 C11 1.363 . S
C12 N14 1.375 . S
C12 H30 0.931 . S
C13 N10 1.311 . S
C13 N14 1.347 . S
C13 H24 0.929 . S
N14 C12 1.375 . S
N14 C13 1.347 . S
C15 C18 1.365 . S
C15 N20 1.328 1_556 S
C15 H21 0.929 . S
C16 C17 1.362 . S
C16 C19 1.378 1_556 S
C16 H31 0.929 . S
C17 C16 1.362 . S
C17 C18 1.366 . S
C18 C15 1.365 . S
C18 C17 1.366 . S
C18 H32 0.930 . S
C19 C16 1.378 1_554 S
C19 N20 1.315 . S
C19 H22 0.930 . S
N20 Co0 2.194 . S
N20 C15 1.328 1_554 S
N20 C19 1.315 . S
H21 C15 0.929 . S
H22 C19 0.930 . S
H23 C11 0.929 . S
H24 C13 0.929 . S
O25 Co0 2.351 . S
O25 C28 1.244 . S
O26 Co0 2.155 . S
O26 C28 1.240 . S
O27 Co0 2.096 . S
O27 C8 1.247 . S
C28 O25 1.244 . S
C28 O26 1.240 . S
H29 C3 0.931 . S
H30 C12 0.931 . S
H31 C16 0.929 . S
H32 C18 0.930 . S
Co33 N37 2.148 . S
Co33 N43 2.128 . S
Co33 N53 2.194 . S
Co33 O58 2.351 . S
Co33 O59 2.155 . S
Co33 O60 2.096 . S
C34 N37 1.301 . S
C34 N38 1.328 . S
C34 H39 0.930 . S
C35 C36 1.333 . S
C35 N37 1.317 . S
C35 H40 0.930 . S
C36 C35 1.333 . S
C36 N38 1.350 . S
C36 H62 0.931 . S
N37 Co33 2.148 . S
N37 C34 1.301 . S
N37 C35 1.317 . S
N38 C34 1.328 . S
N38 C36 1.350 . S
H39 C34 0.930 . S
H40 C35 0.930 . S
C41 O42 1.224 . S
C41 O60 1.247 . S
O42 C41 1.224 . S
N43 Co33 2.128 . S
N43 C44 1.355 . S
N43 C46 1.311 . S
C44 N43 1.355 . S
C44 C45 1.363 . S
C44 H56 0.929 . S
C45 C44 1.363 . S
C45 N47 1.375 . S
C45 H63 0.931 . S
C46 N43 1.311 . S
C46 N47 1.347 . S
C46 H57 0.929 . S
N47 C45 1.375 . S
N47 C46 1.347 . S
C48 C51 1.365 . S
C48 N53 1.328 . S
C48 H54 0.929 . S
C49 C50 1.362 . S
C49 C52 1.378 . S
C49 H64 0.929 . S
C50 C49 1.362 . S
C50 C51 1.366 . S
C51 C48 1.365 . S
C51 C50 1.366 . S
C51 H65 0.930 . S
C52 C49 1.378 . S
C52 N53 1.315 . S
C52 H55 0.930 . S
N53 Co33 2.194 . S
N53 C48 1.328 . S
N53 C52 1.315 . S
H54 C48 0.929 . S
H55 C52 0.930 . S
H56 C44 0.929 . S
H57 C46 0.929 . S
O58 Co33 2.351 . S
O58 C61 1.244 . S
O59 Co33 2.155 . S
O59 C61 1.240 . S
O60 Co33 2.096 . S
O60 C41 1.247 . S
C61 O58 1.244 . S
C61 O59 1.240 . S
H62 C36 0.931 . S
H63 C45 0.931 . S
H64 C49 0.929 . S
H65 C51 0.930 . S
Co66 N70 2.148 . S
Co66 N76 2.128 . S
Co66 N86 2.194 . S
Co66 O91 2.351 . S
Co66 O92 2.155 . S
Co66 O93 2.096 . S
C67 N70 1.301 . S
C67 N71 1.328 . S
C67 H72 0.930 . S
C68 C69 1.333 . S
C68 N70 1.317 . S
C68 H73 0.930 . S
C69 C68 1.333 . S
C69 N71 1.350 . S
C69 H95 0.931 . S
N70 Co66 2.148 . S
N70 C67 1.301 . S
N70 C68 1.317 . S
N71 C67 1.328 . S
N71 C69 1.350 . S
H72 C67 0.930 . S
H73 C68 0.930 . S
C74 O75 1.224 . S
C74 O93 1.247 . S
O75 C74 1.224 . S
N76 Co66 2.128 . S
N76 C77 1.355 . S
N76 C79 1.311 . S
C77 N76 1.355 . S
C77 C78 1.363 . S
C77 H89 0.929 . S
C78 C77 1.363 . S
C78 N80 1.375 . S
C78 H96 0.931 . S
C79 N76 1.311 . S
C79 N80 1.347 . S
C79 H90 0.929 . S
N80 C78 1.375 . S
N80 C79 1.347 . S
C81 C84 1.365 . S
C81 N86 1.328 1_554 S
C81 H87 0.929 . S
C82 C83 1.362 . S
C82 C85 1.378 1_554 S
C82 H97 0.929 . S
C83 C82 1.362 . S
C83 C84 1.366 . S
C84 C81 1.365 . S
C84 C83 1.366 . S
C84 H98 0.930 . S
C85 C82 1.378 1_556 S
C85 N86 1.315 . S
C85 H88 0.930 . S
N86 Co66 2.194 . S
N86 C81 1.328 1_556 S
N86 C85 1.315 . S
H87 C81 0.929 . S
H88 C85 0.930 . S
H89 C77 0.929 . S
H90 C79 0.929 . S
O91 Co66 2.351 . S
O91 C94 1.244 . S
O92 Co66 2.155 . S
O92 C94 1.240 . S
O93 Co66 2.096 . S
O93 C74 1.247 . S
C94 O91 1.244 . S
C94 O92 1.240 . S
H95 C69 0.931 . S
H96 C78 0.931 . S
H97 C82 0.929 . S
H98 C84 0.930 . S
Co99 N103 2.148 . S
Co99 N109 2.128 . S
Co99 N119 2.194 . S
Co99 O124 2.351 . S
Co99 O125 2.155 . S
Co99 O126 2.096 . S
C100 N103 1.301 . S
C100 N104 1.328 . S
C100 H105 0.930 . S
C101 C102 1.333 . S
C101 N103 1.317 . S
C101 H106 0.930 . S
C102 C101 1.333 . S
C102 N104 1.350 . S
C102 H128 0.931 . S
N103 Co99 2.148 . S
N103 C100 1.301 . S
N103 C101 1.317 . S
N104 C100 1.328 . S
N104 C102 1.350 . S
H105 C100 0.930 . S
H106 C101 0.930 . S
C107 O108 1.224 . S
C107 O126 1.247 . S
O108 C107 1.224 . S
N109 Co99 2.128 . S
N109 C110 1.355 . S
N109 C112 1.311 . S
C110 N109 1.355 . S
C110 C111 1.363 . S
C110 H122 0.929 . S
C111 C110 1.363 . S
C111 N113 1.375 . S
C111 H129 0.931 . S
C112 N109 1.311 . S
C112 N113 1.347 . S
C112 H123 0.929 . S
N113 C111 1.375 . S
N113 C112 1.347 . S
C114 C117 1.365 . S
C114 N119 1.328 . S
C114 H120 0.929 . S
C115 C116 1.362 . S
C115 C118 1.378 . S
C115 H130 0.929 . S
C116 C115 1.362 . S
C116 C117 1.366 . S
C117 C114 1.365 . S
C117 C116 1.366 . S
C117 H131 0.930 . S
C118 C115 1.378 . S
C118 N119 1.315 . S
C118 H121 0.930 . S
N119 Co99 2.194 . S
N119 C114 1.328 . S
N119 C118 1.315 . S
H120 C114 0.929 . S
H121 C118 0.930 . S
H122 C110 0.929 . S
H123 C112 0.929 . S
O124 Co99 2.351 . S
O124 C127 1.244 . S
O125 Co99 2.155 . S
O125 C127 1.240 . S
O126 Co99 2.096 . S
O126 C107 1.247 . S
C127 O124 1.244 . S
C127 O125 1.240 . S
H128 C102 0.931 . S
H129 C111 0.931 . S
H130 C115 0.929 . S
H131 C117 0.930 . S
Co132 N136 2.148 . S
Co132 N142 2.128 . S
Co132 N152 2.194 . S
Co132 O157 2.351 . S
Co132 O158 2.155 . S
Co132 O159 2.096 . S
C133 N136 1.301 . S
C133 N137 1.328 . S
C133 H138 0.930 . S
C134 C135 1.333 . S
C134 N136 1.317 . S
C134 H139 0.930 . S
C135 C134 1.333 . S
C135 N137 1.350 . S
C135 H161 0.931 . S
N136 Co132 2.148 . S
N136 C133 1.301 . S
N136 C134 1.317 . S
N137 C133 1.328 . S
N137 C135 1.350 . S
H138 C133 0.930 . S
H139 C134 0.930 . S
C140 O141 1.224 . S
C140 O159 1.247 . S
O141 C140 1.224 . S
N142 Co132 2.128 . S
N142 C143 1.355 . S
N142 C145 1.311 . S
C143 N142 1.355 . S
C143 C144 1.363 . S
C143 H155 0.929 . S
C144 C143 1.363 . S
C144 N146 1.375 . S
C144 H162 0.931 . S
C145 N142 1.311 . S
C145 N146 1.347 . S
C145 H156 0.929 . S
N146 C144 1.375 . S
N146 C145 1.347 . S
C147 C150 1.365 . S
C147 N152 1.328 1_554 S
C147 H153 0.929 . S
C148 C149 1.362 . S
C148 C151 1.378 1_554 S
C148 H163 0.929 . S
C149 C148 1.362 . S
C149 C150 1.366 . S
C150 C147 1.365 . S
C150 C149 1.366 . S
C150 H164 0.930 . S
C151 C148 1.378 1_556 S
C151 N152 1.315 . S
C151 H154 0.930 . S
N152 Co132 2.194 . S
N152 C147 1.328 1_556 S
N152 C151 1.315 . S
H153 C147 0.929 . S
H154 C151 0.930 . S
H155 C143 0.929 . S
H156 C145 0.929 . S
O157 Co132 2.351 . S
O157 C160 1.244 . S
O158 Co132 2.155 . S
O158 C160 1.240 . S
O159 Co132 2.096 . S
O159 C140 1.247 . S
C160 O157 1.244 . S
C160 O158 1.240 . S
H161 C135 0.931 . S
H162 C144 0.931 . S
H163 C148 0.929 . S
H164 C150 0.930 . S
Co165 N169 2.148 . S
Co165 N175 2.128 . S
Co165 N185 2.194 . S
Co165 O190 2.351 . S
Co165 O191 2.155 . S
Co165 O192 2.096 . S
C166 N169 1.301 . S
C166 N170 1.328 . S
C166 H171 0.930 . S
C167 C168 1.333 . S
C167 N169 1.317 . S
C167 H172 0.930 . S
C168 C167 1.333 . S
C168 N170 1.350 . S
C168 H194 0.931 . S
N169 Co165 2.148 . S
N169 C166 1.301 . S
N169 C167 1.317 . S
N170 C166 1.328 . S
N170 C168 1.350 . S
H171 C166 0.930 . S
H172 C167 0.930 . S
C173 O174 1.224 . S
C173 O192 1.247 . S
O174 C173 1.224 . S
N175 Co165 2.128 . S
N175 C176 1.355 . S
N175 C178 1.311 . S
C176 N175 1.355 . S
C176 C177 1.363 . S
C176 H188 0.929 . S
C177 C176 1.363 . S
C177 N179 1.375 . S
C177 H195 0.931 . S
C178 N175 1.311 . S
C178 N179 1.347 . S
C178 H189 0.929 . S
N179 C177 1.375 . S
N179 C178 1.347 . S
C180 C183 1.365 . S
C180 N185 1.328 . S
C180 H186 0.929 . S
C181 C182 1.362 . S
C181 C184 1.378 . S
C181 H196 0.929 . S
C182 C181 1.362 . S
C182 C183 1.366 . S
C183 C180 1.365 . S
C183 C182 1.366 . S
C183 H197 0.930 . S
C184 C181 1.378 . S
C184 N185 1.315 . S
C184 H187 0.930 . S
N185 Co165 2.194 . S
N185 C180 1.328 . S
N185 C184 1.315 . S
H186 C180 0.929 . S
H187 C184 0.930 . S
H188 C176 0.929 . S
H189 C178 0.929 . S
O190 Co165 2.351 . S
O190 C193 1.244 . S
O191 Co165 2.155 . S
O191 C193 1.240 . S
O192 Co165 2.096 . S
O192 C173 1.247 . S
C193 O190 1.244 . S
C193 O191 1.240 . S
H194 C168 0.931 . S
H195 C177 0.931 . S
H196 C181 0.929 . S
H197 C183 0.930 . S
Co198 N202 2.148 . S
Co198 N208 2.128 . S
Co198 N218 2.194 . S
Co198 O223 2.351 . S
Co198 O224 2.155 . S
Co198 O225 2.096 . S
C199 N202 1.301 . S
C199 N203 1.328 . S
C199 H204 0.930 . S
C200 C201 1.333 . S
C200 N202 1.317 . S
C200 H205 0.930 . S
C201 C200 1.333 . S
C201 N203 1.350 . S
C201 H227 0.931 . S
N202 Co198 2.148 . S
N202 C199 1.301 . S
N202 C200 1.317 . S
N203 C199 1.328 . S
N203 C201 1.350 . S
H204 C199 0.930 . S
H205 C200 0.930 . S
C206 O207 1.224 . S
C206 O225 1.247 . S
O207 C206 1.224 . S
N208 Co198 2.128 . S
N208 C209 1.355 . S
N208 C211 1.311 . S
C209 N208 1.355 . S
C209 C210 1.363 . S
C209 H221 0.929 . S
C210 C209 1.363 . S
C210 N212 1.375 . S
C210 H228 0.931 . S
C211 N208 1.311 . S
C211 N212 1.347 . S
C211 H222 0.929 . S
N212 C210 1.375 . S
N212 C211 1.347 . S
C213 C216 1.365 . S
C213 N218 1.328 1_556 S
C213 H219 0.929 . S
C214 C215 1.362 . S
C214 C217 1.378 1_556 S
C214 H229 0.929 . S
C215 C214 1.362 . S
C215 C216 1.366 . S
C216 C213 1.365 . S
C216 C215 1.366 . S
C216 H230 0.930 . S
C217 C214 1.378 1_554 S
C217 N218 1.315 . S
C217 H220 0.930 . S
N218 Co198 2.194 . S
N218 C213 1.328 1_554 S
N218 C217 1.315 . S
H219 C213 0.929 . S
H220 C217 0.930 . S
H221 C209 0.929 . S
H222 C211 0.929 . S
O223 Co198 2.351 . S
O223 C226 1.244 . S
O224 Co198 2.155 . S
O224 C226 1.240 . S
O225 Co198 2.096 . S
O225 C206 1.247 . S
C226 O223 1.244 . S
C226 O224 1.240 . S
H227 C201 0.931 . S
H228 C210 0.931 . S
H229 C214 0.929 . S
H230 C216 0.930 . S
Co231 N235 2.148 . S
Co231 N241 2.128 . S
Co231 N251 2.194 . S
Co231 O256 2.351 . S
Co231 O257 2.155 . S
Co231 O258 2.096 . S
C232 N235 1.301 . S
C232 N236 1.328 . S
C232 H237 0.930 . S
C233 C234 1.333 . S
C233 N235 1.317 . S
C233 H238 0.930 . S
C234 C233 1.333 . S
C234 N236 1.350 . S
C234 H260 0.931 . S
N235 Co231 2.148 . S
N235 C232 1.301 . S
N235 C233 1.317 . S
N236 C232 1.328 . S
N236 C234 1.350 . S
H237 C232 0.930 . S
H238 C233 0.930 . S
C239 O240 1.224 . S
C239 O258 1.247 . S
O240 C239 1.224 . S
N241 Co231 2.128 . S
N241 C242 1.355 . S
N241 C244 1.311 . S
C242 N241 1.355 . S
C242 C243 1.363 . S
C242 H254 0.929 . S
C243 C242 1.363 . S
C243 N245 1.375 . S
C243 H261 0.931 . S
C244 N241 1.311 . S
C244 N245 1.347 . S
C244 H255 0.929 . S
N245 C243 1.375 . S
N245 C244 1.347 . S
C246 C249 1.365 . S
C246 N251 1.328 . S
C246 H252 0.929 . S
C247 C248 1.362 . S
C247 C250 1.378 . S
C247 H262 0.929 . S
C248 C247 1.362 . S
C248 C249 1.366 . S
C249 C246 1.365 . S
C249 C248 1.366 . S
C249 H263 0.930 . S
C250 C247 1.378 . S
C250 N251 1.315 . S
C250 H253 0.930 . S
N251 Co231 2.194 . S
N251 C246 1.328 . S
N251 C250 1.315 . S
H252 C246 0.929 . S
H253 C250 0.930 . S
H254 C242 0.929 . S
H255 C244 0.929 . S
O256 Co231 2.351 . S
O256 C259 1.244 . S
O257 Co231 2.155 . S
O257 C259 1.240 . S
O258 Co231 2.096 . S
O258 C239 1.247 . S
C259 O256 1.244 . S
C259 O257 1.240 . S
H260 C234 0.931 . S
H261 C243 0.931 . S
H262 C247 0.929 . S
H263 C249 0.930 . S
Co264 N268 2.148 . S
Co264 N274 2.128 . S
Co264 N284 2.194 . S
Co264 O289 2.351 . S
Co264 O290 2.155 . S
Co264 O291 2.096 . S
C265 N268 1.301 . S
C265 N269 1.328 . S
C265 H270 0.930 . S
C266 C267 1.333 . S
C266 N268 1.317 . S
C266 H271 0.930 . S
C267 C266 1.333 . S
C267 N269 1.350 . S
C267 H293 0.931 . S
N268 Co264 2.148 . S
N268 C265 1.301 . S
N268 C266 1.317 . S
N269 C265 1.328 . S
N269 C267 1.350 . S
H270 C265 0.930 . S
H271 C266 0.930 . S
C272 O273 1.224 . S
C272 O291 1.247 . S
O273 C272 1.224 . S
N274 Co264 2.128 . S
N274 C275 1.355 . S
N274 C277 1.311 . S
C275 N274 1.355 . S
C275 C276 1.363 . S
C275 H287 0.929 . S
C276 C275 1.363 . S
C276 N278 1.375 . S
C276 H294 0.931 . S
C277 N274 1.311 . S
C277 N278 1.347 . S
C277 H288 0.929 . S
N278 C276 1.375 . S
N278 C277 1.347 . S
C279 C282 1.365 . S
C279 N284 1.328 1_556 S
C279 H285 0.929 . S
C280 C281 1.362 . S
C280 C283 1.378 1_556 S
C280 H295 0.929 . S
C281 C280 1.362 . S
C281 C282 1.366 . S
C282 C279 1.365 . S
C282 C281 1.366 . S
C282 H296 0.930 . S
C283 C280 1.378 1_554 S
C283 N284 1.315 . S
C283 H286 0.930 . S
N284 Co264 2.194 . S
N284 C279 1.328 1_554 S
N284 C283 1.315 . S
H285 C279 0.929 . S
H286 C283 0.930 . S
H287 C275 0.929 . S
H288 C277 0.929 . S
O289 Co264 2.351 . S
O289 C292 1.244 . S
O290 Co264 2.155 . S
O290 C292 1.240 . S
O291 Co264 2.096 . S
O291 C272 1.247 . S
C292 O289 1.244 . S
C292 O290 1.240 . S
H293 C267 0.931 . S
H294 C276 0.931 . S
H295 C280 0.929 . S
H296 C282 0.930 . S
Co297 N301 2.148 . S
Co297 N307 2.128 . S
Co297 N317 2.194 . S
Co297 O322 2.351 . S
Co297 O323 2.155 . S
Co297 O324 2.096 . S
C298 N301 1.301 . S
C298 N302 1.328 . S
C298 H303 0.930 . S
C299 C300 1.333 . S
C299 N301 1.317 . S
C299 H304 0.930 . S
C300 C299 1.333 . S
C300 N302 1.350 . S
C300 H326 0.931 . S
N301 Co297 2.148 . S
N301 C298 1.301 . S
N301 C299 1.317 . S
N302 C298 1.328 . S
N302 C300 1.350 . S
H303 C298 0.930 . S
H304 C299 0.930 . S
C305 O306 1.224 . S
C305 O324 1.247 . S
O306 C305 1.224 . S
N307 Co297 2.128 . S
N307 C308 1.355 . S
N307 C310 1.311 . S
C308 N307 1.355 . S
C308 C309 1.363 . S
C308 H320 0.929 . S
C309 C308 1.363 . S
C309 N311 1.375 . S
C309 H327 0.931 . S
C310 N307 1.311 . S
C310 N311 1.347 . S
C310 H321 0.929 . S
N311 C309 1.375 . S
N311 C310 1.347 . S
C312 C315 1.365 . S
C312 N317 1.328 . S
C312 H318 0.929 . S
C313 C314 1.362 . S
C313 C316 1.378 . S
C313 H328 0.929 . S
C314 C313 1.362 . S
C314 C315 1.366 . S
C315 C312 1.365 . S
C315 C314 1.366 . S
C315 H329 0.930 . S
C316 C313 1.378 . S
C316 N317 1.315 . S
C316 H319 0.930 . S
N317 Co297 2.194 . S
N317 C312 1.328 . S
N317 C316 1.315 . S
H318 C312 0.929 . S
H319 C316 0.930 . S
H320 C308 0.929 . S
H321 C310 0.929 . S
O322 Co297 2.351 . S
O322 C325 1.244 . S
O323 Co297 2.155 . S
O323 C325 1.240 . S
O324 Co297 2.096 . S
O324 C305 1.247 . S
C325 O322 1.244 . S
C325 O323 1.240 . S
H326 C300 0.931 . S
H327 C309 0.931 . S
H328 C313 0.929 . S
H329 C315 0.930 . S
Co330 N334 2.148 . S
Co330 N340 2.128 . S
Co330 N350 2.194 . S
Co330 O355 2.351 . S
Co330 O356 2.155 . S
Co330 O357 2.096 . S
C331 N334 1.301 . S
C331 N335 1.328 . S
C331 H336 0.930 . S
C332 C333 1.333 . S
C332 N334 1.317 . S
C332 H337 0.930 . S
C333 C332 1.333 . S
C333 N335 1.350 . S
C333 H359 0.931 . S
N334 Co330 2.148 . S
N334 C331 1.301 . S
N334 C332 1.317 . S
N335 C331 1.328 . S
N335 C333 1.350 . S
H336 C331 0.930 . S
H337 C332 0.930 . S
C338 O339 1.224 . S
C338 O357 1.247 . S
O339 C338 1.224 . S
N340 Co330 2.128 . S
N340 C341 1.355 . S
N340 C343 1.311 . S
C341 N340 1.355 . S
C341 C342 1.363 . S
C341 H353 0.929 . S
C342 C341 1.363 . S
C342 N344 1.375 . S
C342 H360 0.931 . S
C343 N340 1.311 . S
C343 N344 1.347 . S
C343 H354 0.929 . S
N344 C342 1.375 . S
N344 C343 1.347 . S
C345 C348 1.365 . S
C345 N350 1.328 1_554 S
C345 H351 0.929 . S
C346 C347 1.362 . S
C346 C349 1.378 1_554 S
C346 H361 0.929 . S
C347 C346 1.362 . S
C347 C348 1.366 . S
C348 C345 1.365 . S
C348 C347 1.366 . S
C348 H362 0.930 . S
C349 C346 1.378 1_556 S
C349 N350 1.315 . S
C349 H352 0.930 . S
N350 Co330 2.194 . S
N350 C345 1.328 1_556 S
N350 C349 1.315 . S
H351 C345 0.929 . S
H352 C349 0.930 . S
H353 C341 0.929 . S
H354 C343 0.929 . S
O355 Co330 2.351 . S
O355 C358 1.244 . S
O356 Co330 2.155 . S
O356 C358 1.240 . S
O357 Co330 2.096 . S
O357 C338 1.247 . S
C358 O355 1.244 . S
C358 O356 1.240 . S
H359 C333 0.931 . S
H360 C342 0.931 . S
H361 C346 0.929 . S
H362 C348 0.930 . S
Co363 N367 2.148 . S
Co363 N373 2.128 . S
Co363 N383 2.194 . S
Co363 O388 2.351 . S
Co363 O389 2.155 . S
Co363 O390 2.096 . S
C364 N367 1.301 . S
C364 N368 1.328 . S
C364 H369 0.930 . S
C365 C366 1.333 . S
C365 N367 1.317 . S
C365 H370 0.930 . S
C366 C365 1.333 . S
C366 N368 1.350 . S
C366 H392 0.931 . S
N367 Co363 2.148 . S
N367 C364 1.301 . S
N367 C365 1.317 . S
N368 C364 1.328 . S
N368 C366 1.350 . S
H369 C364 0.930 . S
H370 C365 0.930 . S
C371 O372 1.224 . S
C371 O390 1.247 . S
O372 C371 1.224 . S
N373 Co363 2.128 . S
N373 C374 1.355 . S
N373 C376 1.311 . S
C374 N373 1.355 . S
C374 C375 1.363 . S
C374 H386 0.929 . S
C375 C374 1.363 . S
C375 N377 1.375 . S
C375 H393 0.931 . S
C376 N373 1.311 . S
C376 N377 1.347 . S
C376 H387 0.929 . S
N377 C375 1.375 . S
N377 C376 1.347 . S
C378 C381 1.365 . S
C378 N383 1.328 . S
C378 H384 0.929 . S
C379 C380 1.362 . S
C379 C382 1.378 . S
C379 H394 0.929 . S
C380 C379 1.362 . S
C380 C381 1.366 . S
C381 C378 1.365 . S
C381 C380 1.366 . S
C381 H395 0.930 . S
C382 C379 1.378 . S
C382 N383 1.315 . S
C382 H385 0.930 . S
N383 Co363 2.194 . S
N383 C378 1.328 . S
N383 C382 1.315 . S
H384 C378 0.929 . S
H385 C382 0.930 . S
H386 C374 0.929 . S
H387 C376 0.929 . S
O388 Co363 2.351 . S
O388 C391 1.244 . S
O389 Co363 2.155 . S
O389 C391 1.240 . S
O390 Co363 2.096 . S
O390 C371 1.247 . S
C391 O388 1.244 . S
C391 O389 1.240 . S
H392 C366 0.931 . S
H393 C375 0.931 . S
H394 C379 0.929 . S
H395 C381 0.930 . S
Co396 N400 2.148 . S
Co396 N406 2.128 . S
Co396 N416 2.194 . S
Co396 O421 2.351 . S
Co396 O422 2.155 . S
Co396 O423 2.096 . S
C397 N400 1.301 . S
C397 N401 1.328 . S
C397 H402 0.930 . S
C398 C399 1.333 . S
C398 N400 1.317 . S
C398 H403 0.930 . S
C399 C398 1.333 . S
C399 N401 1.350 . S
C399 H425 0.931 . S
N400 Co396 2.148 . S
N400 C397 1.301 . S
N400 C398 1.317 . S
N401 C397 1.328 . S
N401 C399 1.350 . S
H402 C397 0.930 . S
H403 C398 0.930 . S
C404 O405 1.224 . S
C404 O423 1.247 . S
O405 C404 1.224 . S
N406 Co396 2.128 . S
N406 C407 1.355 . S
N406 C409 1.311 . S
C407 N406 1.355 . S
C407 C408 1.363 . S
C407 H419 0.929 . S
C408 C407 1.363 . S
C408 N410 1.375 . S
C408 H426 0.931 . S
C409 N406 1.311 . S
C409 N410 1.347 . S
C409 H420 0.929 . S
N410 C408 1.375 . S
N410 C409 1.347 . S
C411 C414 1.365 . S
C411 N416 1.328 1_554 S
C411 H417 0.929 . S
C412 C413 1.362 . S
C412 C415 1.378 1_554 S
C412 H427 0.929 . S
C413 C412 1.362 . S
C413 C414 1.366 . S
C414 C411 1.365 . S
C414 C413 1.366 . S
C414 H428 0.930 . S
C415 C412 1.378 1_556 S
C415 N416 1.315 . S
C415 H418 0.930 . S
N416 Co396 2.194 . S
N416 C411 1.328 1_556 S
N416 C415 1.315 . S
H417 C411 0.929 . S
H418 C415 0.930 . S
H419 C407 0.929 . S
H420 C409 0.929 . S
O421 Co396 2.351 . S
O421 C424 1.244 . S
O422 Co396 2.155 . S
O422 C424 1.240 . S
O423 Co396 2.096 . S
O423 C404 1.247 . S
C424 O421 1.244 . S
C424 O422 1.240 . S
H425 C399 0.931 . S
H426 C408 0.931 . S
H427 C412 0.929 . S
H428 C414 0.930 . S
Co429 N433 2.148 . S
Co429 N439 2.128 . S
Co429 N449 2.194 . S
Co429 O454 2.351 . S
Co429 O455 2.155 . S
Co429 O456 2.096 . S
C430 N433 1.301 . S
C430 N434 1.328 . S
C430 H435 0.930 . S
C431 C432 1.333 . S
C431 N433 1.317 . S
C431 H436 0.930 . S
C432 C431 1.333 . S
C432 N434 1.350 . S
C432 H458 0.931 . S
N433 Co429 2.148 . S
N433 C430 1.301 . S
N433 C431 1.317 . S
N434 C430 1.328 . S
N434 C432 1.350 . S
H435 C430 0.930 . S
H436 C431 0.930 . S
C437 O438 1.224 . S
C437 O456 1.247 . S
O438 C437 1.224 . S
N439 Co429 2.128 . S
N439 C440 1.355 . S
N439 C442 1.311 . S
C440 N439 1.355 . S
C440 C441 1.363 . S
C440 H452 0.929 . S
C441 C440 1.363 . S
C441 N443 1.375 . S
C441 H459 0.931 . S
C442 N439 1.311 . S
C442 N443 1.347 . S
C442 H453 0.929 . S
N443 C441 1.375 . S
N443 C442 1.347 . S
C444 C447 1.365 . S
C444 N449 1.328 . S
C444 H450 0.929 . S
C445 C446 1.362 . S
C445 C448 1.378 . S
C445 H460 0.929 . S
C446 C445 1.362 . S
C446 C447 1.366 . S
C447 C444 1.365 . S
C447 C446 1.366 . S
C447 H461 0.930 . S
C448 C445 1.378 . S
C448 N449 1.315 . S
C448 H451 0.930 . S
N449 Co429 2.194 . S
N449 C444 1.328 . S
N449 C448 1.315 . S
H450 C444 0.929 . S
H451 C448 0.930 . S
H452 C440 0.929 . S
H453 C442 0.929 . S
O454 Co429 2.351 . S
O454 C457 1.244 . S
O455 Co429 2.155 . S
O455 C457 1.240 . S
O456 Co429 2.096 . S
O456 C437 1.247 . S
C457 O454 1.244 . S
C457 O455 1.240 . S
H458 C432 0.931 . S
H459 C441 0.931 . S
H460 C445 0.929 . S
H461 C447 0.930 . S
Co462 N466 2.148 . S
Co462 N472 2.128 . S
Co462 N482 2.194 . S
Co462 O487 2.351 . S
Co462 O488 2.155 . S
Co462 O489 2.096 . S
C463 N466 1.301 . S
C463 N467 1.328 . S
C463 H468 0.930 . S
C464 C465 1.333 . S
C464 N466 1.317 . S
C464 H469 0.930 . S
C465 C464 1.333 . S
C465 N467 1.350 . S
C465 H491 0.931 . S
N466 Co462 2.148 . S
N466 C463 1.301 . S
N466 C464 1.317 . S
N467 C463 1.328 . S
N467 C465 1.350 . S
H468 C463 0.930 . S
H469 C464 0.930 . S
C470 O471 1.224 . S
C470 O489 1.247 . S
O471 C470 1.224 . S
N472 Co462 2.128 . S
N472 C473 1.355 . S
N472 C475 1.311 . S
C473 N472 1.355 . S
C473 C474 1.363 . S
C473 H485 0.929 . S
C474 C473 1.363 . S
C474 N476 1.375 . S
C474 H492 0.931 . S
C475 N472 1.311 . S
C475 N476 1.347 . S
C475 H486 0.929 . S
N476 C474 1.375 . S
N476 C475 1.347 . S
C477 C480 1.365 . S
C477 N482 1.328 1_556 S
C477 H483 0.929 . S
C478 C479 1.362 . S
C478 C481 1.378 1_556 S
C478 H493 0.929 . S
C479 C478 1.362 . S
C479 C480 1.366 . S
C480 C477 1.365 . S
C480 C479 1.366 . S
C480 H494 0.930 . S
C481 C478 1.378 1_554 S
C481 N482 1.315 . S
C481 H484 0.930 . S
N482 Co462 2.194 . S
N482 C477 1.328 1_554 S
N482 C481 1.315 . S
H483 C477 0.929 . S
H484 C481 0.930 . S
H485 C473 0.929 . S
H486 C475 0.929 . S
O487 Co462 2.351 . S
O487 C490 1.244 . S
O488 Co462 2.155 . S
O488 C490 1.240 . S
O489 Co462 2.096 . S
O489 C470 1.247 . S
C490 O487 1.244 . S
C490 O488 1.240 . S
H491 C465 0.931 . S
H492 C474 0.931 . S
H493 C478 0.929 . S
H494 C480 0.930 . S
Co495 N499 2.148 . S
Co495 N505 2.128 . S
Co495 N515 2.194 . S
Co495 O520 2.351 . S
Co495 O521 2.155 . S
Co495 O522 2.096 . S
C496 N499 1.301 . S
C496 N500 1.328 . S
C496 H501 0.930 . S
C497 C498 1.333 . S
C497 N499 1.317 . S
C497 H502 0.930 . S
C498 C497 1.333 . S
C498 N500 1.350 . S
C498 H524 0.931 . S
N499 Co495 2.148 . S
N499 C496 1.301 . S
N499 C497 1.317 . S
N500 C496 1.328 . S
N500 C498 1.350 . S
H501 C496 0.930 . S
H502 C497 0.930 . S
C503 O504 1.224 . S
C503 O522 1.247 . S
O504 C503 1.224 . S
N505 Co495 2.128 . S
N505 C506 1.355 . S
N505 C508 1.311 . S
C506 N505 1.355 . S
C506 C507 1.363 . S
C506 H518 0.929 . S
C507 C506 1.363 . S
C507 N509 1.375 . S
C507 H525 0.931 . S
C508 N505 1.311 . S
C508 N509 1.347 . S
C508 H519 0.929 . S
N509 C507 1.375 . S
N509 C508 1.347 . S
C510 C513 1.365 . S
C510 N515 1.328 . S
C510 H516 0.929 . S
C511 C512 1.362 . S
C511 C514 1.378 . S
C511 H526 0.929 . S
C512 C511 1.362 . S
C512 C513 1.366 . S
C513 C510 1.365 . S
C513 C512 1.366 . S
C513 H527 0.930 . S
C514 C511 1.378 . S
C514 N515 1.315 . S
C514 H517 0.930 . S
N515 Co495 2.194 . S
N515 C510 1.328 . S
N515 C514 1.315 . S
H516 C510 0.929 . S
H517 C514 0.930 . S
H518 C506 0.929 . S
H519 C508 0.929 . S
O520 Co495 2.351 . S
O520 C523 1.244 . S
O521 Co495 2.155 . S
O521 C523 1.240 . S
O522 Co495 2.096 . S
O522 C503 1.247 . S
C523 O520 1.244 . S
C523 O521 1.240 . S
H524 C498 0.931 . S
H525 C507 0.931 . S
H526 C511 0.929 . S
H527 C513 0.930 . S
H528 C534 0.930 . S
H529 C538 0.930 . S
H530 C543 0.929 . S
H531 C541 0.929 . S
H532 C536 0.929 . S
H533 C542 0.929 . S
C534 H528 0.930 . S
C534 C535 1.367 . S
C534 C542 1.378 . S
C535 C534 1.367 . S
C535 C543 1.433 . S
C536 H532 0.929 . S
C536 C538 1.378 . S
C536 C540 1.350 . S
C537 C540 1.463 . S
C537 C542 1.350 . S
C537 N545 1.427 . S
C538 H529 0.930 . S
C538 C536 1.378 . S
C538 C539 1.367 . S
C539 C538 1.367 . S
C539 C541 1.433 . S
C540 C536 1.350 . S
C540 C537 1.463 . S
C540 N544 1.427 . S
C541 H531 0.929 . S
C541 C539 1.433 . S
C541 N544 1.384 . S
C542 H533 0.929 . S
C542 C534 1.378 . S
C542 C537 1.350 . S
C543 H530 0.929 . S
C543 C535 1.433 . S
C543 N545 1.384 . S
N544 C540 1.427 . S
N544 C541 1.384 . S
N545 C537 1.427 . S
N545 C543 1.384 . S
H546 C552 0.930 . S
H547 C556 0.930 . S
H548 C561 0.929 . S
H549 C559 0.929 . S
H550 C554 0.929 . S
H551 C560 0.929 . S
C552 H546 0.930 . S
C552 C553 1.367 . S
C552 C560 1.378 . S
C553 C552 1.367 . S
C553 C561 1.433 . S
C554 H550 0.929 . S
C554 C556 1.378 . S
C554 C558 1.350 . S
C555 C558 1.463 . S
C555 C560 1.350 . S
C555 N563 1.427 . S
C556 H547 0.930 . S
C556 C554 1.378 . S
C556 C557 1.367 . S
C557 C556 1.367 . S
C557 C559 1.433 . S
C558 C554 1.350 . S
C558 C555 1.463 . S
C558 N562 1.427 . S
C559 H549 0.929 . S
C559 C557 1.433 . S
C559 N562 1.384 . S
C560 H551 0.929 . S
C560 C552 1.378 . S
C560 C555 1.350 . S
C561 H548 0.929 . S
C561 C553 1.433 . S
C561 N563 1.384 . S
N562 C558 1.427 . S
N562 C559 1.384 . S
N563 C555 1.427 . S
N563 C561 1.384 . S
H564 C570 0.930 . S
H565 C574 0.930 . S
H566 C579 0.929 . S
H567 C577 0.929 . S
H568 C572 0.929 . S
H569 C578 0.929 . S
C570 H564 0.930 . S
C570 C571 1.367 . S
C570 C578 1.378 . S
C571 C570 1.367 . S
C571 C579 1.433 . S
C572 H568 0.929 . S
C572 C574 1.378 . S
C572 C576 1.350 . S
C573 C576 1.463 . S
C573 C578 1.350 . S
C573 N581 1.427 . S
C574 H565 0.930 . S
C574 C572 1.378 . S
C574 C575 1.367 . S
C575 C574 1.367 . S
C575 C577 1.433 . S
C576 C572 1.350 . S
C576 C573 1.463 . S
C576 N580 1.427 . S
C577 H567 0.929 . S
C577 C575 1.433 . S
C577 N580 1.384 . S
C578 H569 0.929 . S
C578 C570 1.378 . S
C578 C573 1.350 . S
C579 H566 0.929 . S
C579 C571 1.433 . S
C579 N581 1.384 . S
N580 C576 1.427 . S
N580 C577 1.384 . S
N581 C573 1.427 . S
N581 C579 1.384 . S
H582 C588 0.930 . S
H583 C592 0.930 . S
H584 C597 0.929 . S
H585 C595 0.929 . S
H586 C590 0.929 . S
H587 C596 0.929 . S
C588 H582 0.930 . S
C588 C589 1.367 . S
C588 C596 1.378 . S
C589 C588 1.367 . S
C589 C597 1.433 . S
C590 H586 0.929 . S
C590 C592 1.378 . S
C590 C594 1.350 . S
C591 C594 1.463 . S
C591 C596 1.350 . S
C591 N599 1.427 . S
C592 H583 0.930 . S
C592 C590 1.378 . S
C592 C593 1.367 . S
C593 C592 1.367 . S
C593 C595 1.433 . S
C594 C590 1.350 . S
C594 C591 1.463 . S
C594 N598 1.427 . S
C595 H585 0.929 . S
C595 C593 1.433 . S
C595 N598 1.384 . S
C596 H587 0.929 . S
C596 C588 1.378 . S
C596 C591 1.350 . S
C597 H584 0.929 . S
C597 C589 1.433 . S
C597 N599 1.384 . S
N598 C594 1.427 . S
N598 C595 1.384 . S
N599 C591 1.427 . S
N599 C597 1.384 . S
H600 C606 0.930 . S
H601 C610 0.930 . S
H602 C615 0.929 . S
H603 C613 0.929 . S
H604 C608 0.929 . S
H605 C614 0.929 . S
C606 H600 0.930 . S
C606 C607 1.367 . S
C606 C614 1.378 . S
C607 C606 1.367 . S
C607 C615 1.433 . S
C608 H604 0.929 . S
C608 C610 1.378 . S
C608 C612 1.350 . S
C609 C612 1.463 . S
C609 C614 1.350 . S
C609 N617 1.427 . S
C610 H601 0.930 . S
C610 C608 1.378 . S
C610 C611 1.367 . S
C611 C610 1.367 . S
C611 C613 1.433 . S
C612 C608 1.350 . S
C612 C609 1.463 . S
C612 N616 1.427 . S
C613 H603 0.929 . S
C613 C611 1.433 . S
C613 N616 1.384 . S
C614 H605 0.929 . S
C614 C606 1.378 . S
C614 C609 1.350 . S
C615 H602 0.929 . S
C615 C607 1.433 . S
C615 N617 1.384 . S
N616 C612 1.427 . S
N616 C613 1.384 . S
N617 C609 1.427 . S
N617 C615 1.384 . S
H618 C624 0.930 . S
H619 C628 0.930 . S
H620 C633 0.929 . S
H621 C631 0.929 . S
H622 C626 0.929 . S
H623 C632 0.929 . S
C624 H618 0.930 . S
C624 C625 1.367 . S
C624 C632 1.378 . S
C625 C624 1.367 . S
C625 C633 1.433 . S
C626 H622 0.929 . S
C626 C628 1.378 . S
C626 C630 1.350 . S
C627 C630 1.463 . S
C627 C632 1.350 . S
C627 N635 1.427 . S
C628 H619 0.930 . S
C628 C626 1.378 . S
C628 C629 1.367 . S
C629 C628 1.367 . S
C629 C631 1.433 . S
C630 C626 1.350 . S
C630 C627 1.463 . S
C630 N634 1.427 . S
C631 H621 0.929 . S
C631 C629 1.433 . S
C631 N634 1.384 . S
C632 H623 0.929 . S
C632 C624 1.378 . S
C632 C627 1.350 . S
C633 H620 0.929 . S
C633 C625 1.433 . S
C633 N635 1.384 . S
N634 C630 1.427 . S
N634 C631 1.384 . S
N635 C627 1.427 . S
N635 C633 1.384 . S
H636 C642 0.930 . S
H637 C646 0.930 . S
H638 C651 0.929 . S
H639 C649 0.929 . S
H640 C644 0.929 . S
H641 C650 0.929 . S
C642 H636 0.930 . S
C642 C643 1.367 . S
C642 C650 1.378 . S
C643 C642 1.367 . S
C643 C651 1.433 . S
C644 H640 0.929 . S
C644 C646 1.378 . S
C644 C648 1.350 . S
C645 C648 1.463 . S
C645 C650 1.350 . S
C645 N653 1.427 . S
C646 H637 0.930 . S
C646 C644 1.378 . S
C646 C647 1.367 . S
C647 C646 1.367 . S
C647 C649 1.433 . S
C648 C644 1.350 . S
C648 C645 1.463 . S
C648 N652 1.427 . S
C649 H639 0.929 . S
C649 C647 1.433 . S
C649 N652 1.384 . S
C650 H641 0.929 . S
C650 C642 1.378 . S
C650 C645 1.350 . S
C651 H638 0.929 . S
C651 C643 1.433 . S
C651 N653 1.384 . S
N652 C648 1.427 . S
N652 C649 1.384 . S
N653 C645 1.427 . S
N653 C651 1.384 . S
H654 C660 0.930 . S
H655 C664 0.930 . S
H656 C669 0.929 . S
H657 C667 0.929 . S
H658 C662 0.929 . S
H659 C668 0.929 . S
C660 H654 0.930 . S
C660 C661 1.367 . S
C660 C668 1.378 . S
C661 C660 1.367 . S
C661 C669 1.433 . S
C662 H658 0.929 . S
C662 C664 1.378 . S
C662 C666 1.350 . S
C663 C666 1.463 . S
C663 C668 1.350 . S
C663 N671 1.427 . S
C664 H655 0.930 . S
C664 C662 1.378 . S
C664 C665 1.367 . S
C665 C664 1.367 . S
C665 C667 1.433 . S
C666 C662 1.350 . S
C666 C663 1.463 . S
C666 N670 1.427 . S
C667 H657 0.929 . S
C667 C665 1.433 . S
C667 N670 1.384 . S
C668 H659 0.929 . S
C668 C660 1.378 . S
C668 C663 1.350 . S
C669 H656 0.929 . S
C669 C661 1.433 . S
C669 N671 1.384 . S
N670 C666 1.427 . S
N670 C667 1.384 . S
N671 C663 1.427 . S
N671 C669 1.384 . S
H672 C678 0.930 . S
H673 C682 0.930 1_556 S
H674 C687 0.929 1_556 S
H675 C685 0.929 . S
H676 C680 0.929 1_556 S
H677 C686 0.929 . S
C678 H672 0.930 . S
C678 C679 1.367 . S
C678 C686 1.378 . S
C679 C678 1.367 . S
C679 C687 1.433 . S
C680 H676 0.929 1_554 S
C680 C682 1.378 . S
C680 C684 1.350 . S
C681 C684 1.463 1_655 S
C681 C686 1.350 . S
C681 N689 1.427 . S
C682 H673 0.930 1_554 S
C682 C680 1.378 . S
C682 C683 1.367 . S
C683 C682 1.367 . S
C683 C685 1.433 . S
C684 C680 1.350 . S
C684 C681 1.463 1_455 S
C684 N688 1.427 . S
C685 H675 0.929 . S
C685 C683 1.433 . S
C685 N688 1.384 . S
C686 H677 0.929 . S
C686 C678 1.378 . S
C686 C681 1.350 . S
C687 H674 0.929 1_554 S
C687 C679 1.433 . S
C687 N689 1.384 . S
N688 C684 1.427 . S
N688 C685 1.384 . S
N689 C681 1.427 . S
N689 C687 1.384 . S
H690 C696 0.930 . S
H691 C700 0.930 . S
H692 C705 0.929 . S
H693 C703 0.929 . S
H694 C698 0.929 . S
H695 C704 0.929 . S
C696 H690 0.930 . S
C696 C697 1.367 . S
C696 C704 1.378 . S
C697 C696 1.367 . S
C697 C705 1.433 . S
C698 H694 0.929 . S
C698 C700 1.378 . S
C698 C702 1.350 . S
C699 C702 1.463 . S
C699 C704 1.350 . S
C699 N707 1.427 . S
C700 H691 0.930 . S
C700 C698 1.378 . S
C700 C701 1.367 . S
C701 C700 1.367 . S
C701 C703 1.433 . S
C702 C698 1.350 . S
C702 C699 1.463 . S
C702 N706 1.427 . S
C703 H693 0.929 . S
C703 C701 1.433 . S
C703 N706 1.384 . S
C704 H695 0.929 . S
C704 C696 1.378 . S
C704 C699 1.350 . S
C705 H692 0.929 . S
C705 C697 1.433 . S
C705 N707 1.384 . S
N706 C702 1.427 . S
N706 C703 1.384 . S
N707 C699 1.427 . S
N707 C705 1.384 . S
H708 C714 0.930 . S
H709 C718 0.930 . S
H710 C723 0.929 . S
H711 C721 0.929 . S
H712 C716 0.929 . S
H713 C722 0.929 . S
C714 H708 0.930 . S
C714 C715 1.367 . S
C714 C722 1.378 . S
C715 C714 1.367 . S
C715 C723 1.433 . S
C716 H712 0.929 . S
C716 C718 1.378 . S
C716 C720 1.350 . S
C717 C720 1.463 1_655 S
C717 C722 1.350 . S
C717 N725 1.427 . S
C718 H709 0.930 . S
C718 C716 1.378 . S
C718 C719 1.367 . S
C719 C718 1.367 . S
C719 C721 1.433 . S
C720 C716 1.350 . S
C720 C717 1.463 1_455 S
C720 N724 1.427 . S
C721 H711 0.929 . S
C721 C719 1.433 . S
C721 N724 1.384 . S
C722 H713 0.929 . S
C722 C714 1.378 . S
C722 C717 1.350 . S
C723 H710 0.929 . S
C723 C715 1.433 . S
C723 N725 1.384 . S
N724 C720 1.427 . S
N724 C721 1.384 . S
N725 C717 1.427 . S
N725 C723 1.384 . S
H726 C732 0.930 . S
H727 C736 0.930 . S
H728 C741 0.929 . S
H729 C739 0.929 . S
H730 C734 0.929 . S
H731 C740 0.929 . S
C732 H726 0.930 . S
C732 C733 1.367 . S
C732 C740 1.378 . S
C733 C732 1.367 . S
C733 C741 1.433 . S
C734 H730 0.929 . S
C734 C736 1.378 . S
C734 C738 1.350 . S
C735 C738 1.463 . S
C735 C740 1.350 . S
C735 N743 1.427 . S
C736 H727 0.930 . S
C736 C734 1.378 . S
C736 C737 1.367 . S
C737 C736 1.367 . S
C737 C739 1.433 . S
C738 C734 1.350 . S
C738 C735 1.463 . S
C738 N742 1.427 . S
C739 H729 0.929 . S
C739 C737 1.433 . S
C739 N742 1.384 . S
C740 H731 0.929 . S
C740 C732 1.378 . S
C740 C735 1.350 . S
C741 H728 0.929 . S
C741 C733 1.433 . S
C741 N743 1.384 . S
N742 C738 1.427 . S
N742 C739 1.384 . S
N743 C735 1.427 . S
N743 C741 1.384 . S
H744 C750 0.930 . S
H745 C754 0.930 1_556 S
H746 C759 0.929 1_556 S
H747 C757 0.929 . S
H748 C752 0.929 1_556 S
H749 C758 0.929 . S
C750 H744 0.930 . S
C750 C751 1.367 . S
C750 C758 1.378 . S
C751 C750 1.367 . S
C751 C759 1.433 . S
C752 H748 0.929 1_554 S
C752 C754 1.378 . S
C752 C756 1.350 . S
C753 C756 1.463 . S
C753 C758 1.350 . S
C753 N761 1.427 . S
C754 H745 0.930 1_554 S
C754 C752 1.378 . S
C754 C755 1.367 . S
C755 C754 1.367 . S
C755 C757 1.433 . S
C756 C752 1.350 . S
C756 C753 1.463 . S
C756 N760 1.427 . S
C757 H747 0.929 . S
C757 C755 1.433 . S
C757 N760 1.384 . S
C758 H749 0.929 . S
C758 C750 1.378 . S
C758 C753 1.350 . S
C759 H746 0.929 1_554 S
C759 C751 1.433 . S
C759 N761 1.384 . S
N760 C756 1.427 . S
N760 C757 1.384 . S
N761 C753 1.427 . S
N761 C759 1.384 . S
H762 C768 0.930 . S
H763 C772 0.930 . S
H764 C777 0.929 . S
H765 C775 0.929 . S
H766 C770 0.929 . S
H767 C776 0.929 . S
C768 H762 0.930 . S
C768 C769 1.367 . S
C768 C776 1.378 . S
C769 C768 1.367 . S
C769 C777 1.433 . S
C770 H766 0.929 . S
C770 C772 1.378 . S
C770 C774 1.350 . S
C771 C774 1.463 1_455 S
C771 C776 1.350 . S
C771 N779 1.427 . S
C772 H763 0.930 . S
C772 C770 1.378 . S
C772 C773 1.367 . S
C773 C772 1.367 . S
C773 C775 1.433 . S
C774 C770 1.350 . S
C774 C771 1.463 1_655 S
C774 N778 1.427 . S
C775 H765 0.929 . S
C775 C773 1.433 . S
C775 N778 1.384 . S
C776 H767 0.929 . S
C776 C768 1.378 . S
C776 C771 1.350 . S
C777 H764 0.929 . S
C777 C769 1.433 . S
C777 N779 1.384 . S
N778 C774 1.427 . S
N778 C775 1.384 . S
N779 C771 1.427 . S
N779 C777 1.384 . S
H780 C786 0.930 . S
H781 C790 0.930 . S
H782 C795 0.929 . S
H783 C793 0.929 . S
H784 C788 0.929 . S
H785 C794 0.929 . S
C786 H780 0.930 . S
C786 C787 1.367 . S
C786 C794 1.378 . S
C787 C786 1.367 . S
C787 C795 1.433 . S
C788 H784 0.929 . S
C788 C790 1.378 . S
C788 C792 1.350 . S
C789 C792 1.463 . S
C789 C794 1.350 . S
C789 N797 1.427 . S
C790 H781 0.930 . S
C790 C788 1.378 . S
C790 C791 1.367 . S
C791 C790 1.367 . S
C791 C793 1.433 . S
C792 C788 1.350 . S
C792 C789 1.463 . S
C792 N796 1.427 . S
C793 H783 0.929 . S
C793 C791 1.433 . S
C793 N796 1.384 . S
C794 H785 0.929 . S
C794 C786 1.378 . S
C794 C789 1.350 . S
C795 H782 0.929 . S
C795 C787 1.433 . S
C795 N797 1.384 . S
N796 C792 1.427 . S
N796 C793 1.384 . S
N797 C789 1.427 . S
N797 C795 1.384 . S
H798 C804 0.930 . S
H799 C808 0.930 . S
H800 C813 0.929 . S
H801 C811 0.929 . S
H802 C806 0.929 . S
H803 C812 0.929 . S
C804 H798 0.930 . S
C804 C805 1.367 . S
C804 C812 1.378 . S
C805 C804 1.367 . S
C805 C813 1.433 . S
C806 H802 0.929 . S
C806 C808 1.378 . S
C806 C810 1.350 . S
C807 C810 1.463 1_655 S
C807 C812 1.350 . S
C807 N815 1.427 . S
C808 H799 0.930 . S
C808 C806 1.378 . S
C808 C809 1.367 . S
C809 C808 1.367 . S
C809 C811 1.433 . S
C810 C806 1.350 . S
C810 C807 1.463 1_455 S
C810 N814 1.427 . S
C811 H801 0.929 . S
C811 C809 1.433 . S
C811 N814 1.384 . S
C812 H803 0.929 . S
C812 C804 1.378 . S
C812 C807 1.350 . S
C813 H800 0.929 . S
C813 C805 1.433 . S
C813 N815 1.384 . S
N814 C810 1.427 . S
N814 C811 1.384 . S
N815 C807 1.427 . S
N815 C813 1.384 . S
H816 C822 0.930 . S
H817 C826 0.930 . S
H818 C831 0.929 1_556 S
H819 C829 0.929 1_554 S
H820 C824 0.929 . S
H821 C830 0.929 . S
C822 H816 0.930 . S
C822 C823 1.367 . S
C822 C830 1.378 . S
C823 C822 1.367 . S
C823 C831 1.433 . S
C824 H820 0.929 . S
C824 C826 1.378 . S
C824 C828 1.350 . S
C825 C828 1.463 1_544 S
C825 C830 1.350 . S
C825 N833 1.427 1_554 S
C826 H817 0.930 . S
C826 C824 1.378 . S
C826 C827 1.367 . S
C827 C826 1.367 . S
C827 C829 1.433 . S
C828 C824 1.350 . S
C828 C825 1.463 1_566 S
C828 N832 1.427 1_556 S
C829 H819 0.929 1_556 S
C829 C827 1.433 . S
C829 N832 1.384 1_556 S
C830 H821 0.929 . S
C830 C822 1.378 . S
C830 C825 1.350 . S
C831 H818 0.929 1_554 S
C831 C823 1.433 . S
C831 N833 1.384 1_554 S
N832 C828 1.427 1_554 S
N832 C829 1.384 1_554 S
N833 C825 1.427 1_556 S
N833 C831 1.384 1_556 S
H834 C840 0.930 . S
H835 C844 0.930 . S
H836 C849 0.929 . S
H837 C847 0.929 . S
H838 C842 0.929 . S
H839 C848 0.929 . S
C840 H834 0.930 . S
C840 C841 1.367 . S
C840 C848 1.378 . S
C841 C840 1.367 . S
C841 C849 1.433 . S
C842 H838 0.929 . S
C842 C844 1.378 . S
C842 C846 1.350 . S
C843 C846 1.463 1_565 S
C843 C848 1.350 . S
C843 N851 1.427 . S
C844 H835 0.930 . S
C844 C842 1.378 . S
C844 C845 1.367 . S
C845 C844 1.367 . S
C845 C847 1.433 . S
C846 C842 1.350 . S
C846 C843 1.463 1_545 S
C846 N850 1.427 . S
C847 H837 0.929 . S
C847 C845 1.433 . S
C847 N850 1.384 . S
C848 H839 0.929 . S
C848 C840 1.378 . S
C848 C843 1.350 . S
C849 H836 0.929 . S
C849 C841 1.433 . S
C849 N851 1.384 . S
N850 C846 1.427 . S
N850 C847 1.384 . S
N851 C843 1.427 . S
N851 C849 1.384 . S
H852 C858 0.930 1_554 S
H853 C862 0.930 1_556 S
H854 C867 0.929 . S
H855 C865 0.929 . S
H856 C860 0.929 . S
H857 C866 0.929 . S
C858 H852 0.930 1_556 S
C858 C859 1.367 . S
C858 C866 1.378 1_556 S
C859 C858 1.367 . S
C859 C867 1.433 . S
C860 H856 0.929 . S
C860 C862 1.378 1_556 S
C860 C864 1.350 1_556 S
C861 C864 1.463 1_566 S
C861 C866 1.350 1_556 S
C861 N869 1.427 . S
C862 H853 0.930 1_554 S
C862 C860 1.378 1_554 S
C862 C863 1.367 . S
C863 C862 1.367 . S
C863 C865 1.433 . S
C864 C860 1.350 1_554 S
C864 C861 1.463 1_544 S
C864 N868 1.427 . S
C865 H855 0.929 . S
C865 C863 1.433 . S
C865 N868 1.384 . S
C866 H857 0.929 . S
C866 C858 1.378 1_554 S
C866 C861 1.350 1_554 S
C867 H854 0.929 . S
C867 C859 1.433 . S
C867 N869 1.384 . S
N868 C864 1.427 . S
N868 C865 1.384 . S
N869 C861 1.427 . S
N869 C867 1.384 . S
H870 C876 0.930 . S
H871 C880 0.930 . S
H872 C885 0.929 . S
H873 C883 0.929 . S
H874 C878 0.929 . S
H875 C884 0.929 . S
C876 H870 0.930 . S
C876 C877 1.367 . S
C876 C884 1.378 . S
C877 C876 1.367 . S
C877 C885 1.433 . S
C878 H874 0.929 . S
C878 C880 1.378 . S
C878 C882 1.350 . S
C879 C882 1.463 1_545 S
C879 C884 1.350 . S
C879 N887 1.427 . S
C880 H871 0.930 . S
C880 C878 1.378 . S
C880 C881 1.367 . S
C881 C880 1.367 . S
C881 C883 1.433 . S
C882 C878 1.350 . S
C882 C879 1.463 1_565 S
C882 N886 1.427 . S
C883 H873 0.929 . S
C883 C881 1.433 . S
C883 N886 1.384 . S
C884 H875 0.929 . S
C884 C876 1.378 . S
C884 C879 1.350 . S
C885 H872 0.929 . S
C885 C877 1.433 . S
C885 N887 1.384 . S
N886 C882 1.427 . S
N886 C883 1.384 . S
N887 C879 1.427 . S
N887 C885 1.384 . S
H888 C894 0.930 . S
H889 C898 0.930 . S
H890 C903 0.929 1_556 S
H891 C901 0.929 1_554 S
H892 C896 0.929 . S
H893 C902 0.929 . S
C894 H888 0.930 . S
C894 C895 1.367 . S
C894 C902 1.378 . S
C895 C894 1.367 . S
C895 C903 1.433 . S
C896 H892 0.929 . S
C896 C898 1.378 . S
C896 C900 1.350 . S
C897 C900 1.463 1_554 S
C897 C902 1.350 . S
C897 N905 1.427 1_554 S
C898 H889 0.930 . S
C898 C896 1.378 . S
C898 C899 1.367 . S
C899 C898 1.367 . S
C899 C901 1.433 . S
C900 C896 1.350 . S
C900 C897 1.463 1_556 S
C900 N904 1.427 1_556 S
C901 H891 0.929 1_556 S
C901 C899 1.433 . S
C901 N904 1.384 1_556 S
C902 H893 0.929 . S
C902 C894 1.378 . S
C902 C897 1.350 . S
C903 H890 0.929 1_554 S
C903 C895 1.433 . S
C903 N905 1.384 1_554 S
N904 C900 1.427 1_554 S
N904 C901 1.384 1_554 S
N905 C897 1.427 1_556 S
N905 C903 1.384 1_556 S
H906 C912 0.930 . S
H907 C916 0.930 . S
H908 C921 0.929 . S
H909 C919 0.929 . S
H910 C914 0.929 . S
H911 C920 0.929 . S
C912 H906 0.930 . S
C912 C913 1.367 . S
C912 C920 1.378 . S
C913 C912 1.367 . S
C913 C921 1.433 . S
C914 H910 0.929 . S
C914 C916 1.378 . S
C914 C918 1.350 . S
C915 C918 1.463 . S
C915 C920 1.350 . S
C915 N923 1.427 . S
C916 H907 0.930 . S
C916 C914 1.378 . S
C916 C917 1.367 . S
C917 C916 1.367 . S
C917 C919 1.433 . S
C918 C914 1.350 . S
C918 C915 1.463 . S
C918 N922 1.427 . S
C919 H909 0.929 . S
C919 C917 1.433 . S
C919 N922 1.384 . S
C920 H911 0.929 . S
C920 C912 1.378 . S
C920 C915 1.350 . S
C921 H908 0.929 . S
C921 C913 1.433 . S
C921 N923 1.384 . S
N922 C918 1.427 . S
N922 C919 1.384 . S
N923 C915 1.427 . S
N923 C921 1.384 . S
H924 C930 0.930 . S
H925 C934 0.930 . S
H926 C939 0.923 1_554 S
H927 C937 0.923 1_556 S
H928 C932 0.929 . S
H929 C938 0.929 . S
C930 H924 0.930 . S
C930 C931 1.367 . S
C930 C938 1.378 . S
C931 C930 1.367 . S
C931 C939 1.433 . S
C932 H928 0.929 . S
C932 C934 1.378 . S
C932 C936 1.350 . S
C933 C936 1.463 1_556 S
C933 C938 1.350 . S
C933 N941 1.427 1_556 S
C934 H925 0.930 . S
C934 C932 1.378 . S
C934 C935 1.367 . S
C935 C934 1.367 . S
C935 C937 1.433 . S
C936 C932 1.350 . S
C936 C933 1.463 1_554 S
C936 N940 1.427 1_554 S
C937 H927 0.923 1_554 S
C937 C935 1.433 . S
C937 N940 1.384 1_554 S
C938 H929 0.929 . S
C938 C930 1.378 . S
C938 C933 1.350 . S
C939 H926 0.923 1_556 S
C939 C931 1.433 . S
C939 N941 1.384 1_556 S
N940 C936 1.427 1_556 S
N940 C937 1.384 1_556 S
N941 C933 1.427 1_554 S
N941 C939 1.384 1_554 S
H942 C948 0.930 . S
H943 C952 0.930 . S
H944 C957 0.929 . S
H945 C955 0.929 . S
H946 C950 0.929 . S
H947 C956 0.929 . S
C948 H942 0.930 . S
C948 C949 1.367 . S
C948 C956 1.378 . S
C949 C948 1.367 . S
C949 C957 1.433 . S
C950 H946 0.929 . S
C950 C952 1.378 . S
C950 C954 1.350 . S
C951 C954 1.463 . S
C951 C956 1.350 . S
C951 N959 1.427 . S
C952 H943 0.930 . S
C952 C950 1.378 . S
C952 C953 1.367 . S
C953 C952 1.367 . S
C953 C955 1.433 . S
C954 C950 1.350 . S
C954 C951 1.463 . S
C954 N958 1.427 . S
C955 H945 0.929 . S
C955 C953 1.433 . S
C955 N958 1.384 . S
C956 H947 0.929 . S
C956 C948 1.378 . S
C956 C951 1.350 . S
C957 H944 0.929 . S
C957 C949 1.433 . S
C957 N959 1.384 . S
N958 C954 1.427 . S
N958 C955 1.384 . S
N959 C951 1.427 . S
N959 C957 1.384 . S
H960 C966 0.930 . S
H961 C970 0.930 . S
H962 C975 0.929 . S
H963 C973 0.929 . S
H964 C968 0.929 . S
H965 C974 0.929 . S
C966 H960 0.930 . S
C966 C967 1.367 . S
C966 C974 1.378 . S
C967 C966 1.367 . S
C967 C975 1.433 . S
C968 H964 0.929 . S
C968 C970 1.378 . S
C968 C972 1.350 . S
C969 C972 1.463 . S
C969 C974 1.350 . S
C969 N977 1.427 . S
C970 H961 0.930 . S
C970 C968 1.378 . S
C970 C971 1.367 . S
C971 C970 1.367 . S
C971 C973 1.433 . S
C972 C968 1.350 . S
C972 C969 1.463 . S
C972 N976 1.427 . S
C973 H963 0.929 . S
C973 C971 1.433 . S
C973 N976 1.384 . S
C974 H965 0.929 . S
C974 C966 1.378 . S
C974 C969 1.350 . S
C975 H962 0.929 . S
C975 C967 1.433 . S
C975 N977 1.384 . S
N976 C972 1.427 . S
N976 C973 1.384 . S
N977 C969 1.427 . S
N977 C975 1.384 . S
H978 C984 0.930 . S
H979 C988 0.930 . S
H980 C993 0.929 . S
H981 C991 0.929 . S
H982 C986 0.929 . S
H983 C992 0.929 . S
C984 H978 0.930 . S
C984 C985 1.367 . S
C984 C992 1.378 . S
C985 C984 1.367 . S
C985 C993 1.433 . S
C986 H982 0.929 . S
C986 C988 1.378 . S
C986 C990 1.350 . S
C987 C990 1.463 . S
C987 C992 1.350 . S
C987 N995 1.427 . S
C988 H979 0.930 . S
C988 C986 1.378 . S
C988 C989 1.367 . S
C989 C988 1.367 . S
C989 C991 1.433 . S
C990 C986 1.350 . S
C990 C987 1.463 . S
C990 N994 1.427 . S
C991 H981 0.929 . S
C991 C989 1.433 . S
C991 N994 1.384 . S
C992 H983 0.929 . S
C992 C984 1.378 . S
C992 C987 1.350 . S
C993 H980 0.929 . S
C993 C985 1.433 . S
C993 N995 1.384 . S
N994 C990 1.427 . S
N994 C991 1.384 . S
N995 C987 1.427 . S
N995 C993 1.384 . S
H996 C1002 0.930 . S
H997 C1006 0.930 . S
H998 C1011 0.929 . S
H999 C1009 0.929 . S
H1000 C1004 0.929 . S
H1001 C1010 0.929 . S
C1002 H996 0.930 . S
C1002 C1003 1.367 . S
C1002 C1010 1.378 . S
C1003 C1002 1.367 . S
C1003 C1011 1.433 . S
C1004 H1000 0.929 . S
C1004 C1006 1.378 . S
C1004 C1008 1.350 . S
C1005 C1008 1.463 . S
C1005 C1010 1.350 . S
C1005 N1013 1.427 . S
C1006 H997 0.930 . S
C1006 C1004 1.378 . S
C1006 C1007 1.367 . S
C1007 C1006 1.367 . S
C1007 C1009 1.433 . S
C1008 C1004 1.350 . S
C1008 C1005 1.463 . S
C1008 N1012 1.427 . S
C1009 H999 0.929 . S
C1009 C1007 1.433 . S
C1009 N1012 1.384 . S
C1010 H1001 0.929 . S
C1010 C1002 1.378 . S
C1010 C1005 1.350 . S
C1011 H998 0.929 . S
C1011 C1003 1.433 . S
C1011 N1013 1.384 . S
N1012 C1008 1.427 . S
N1012 C1009 1.384 . S
N1013 C1005 1.427 . S
N1013 C1011 1.384 . S
H1014 C1020 0.930 . S
H1015 C1024 0.930 . S
H1016 C1029 0.929 . S
H1017 C1027 0.929 . S
H1018 C1022 0.929 . S
H1019 C1028 0.929 . S
C1020 H1014 0.930 . S
C1020 C1021 1.367 . S
C1020 C1028 1.378 . S
C1021 C1020 1.367 . S
C1021 C1029 1.433 . S
C1022 H1018 0.929 . S
C1022 C1024 1.378 . S
C1022 C1026 1.350 . S
C1023 C1026 1.463 . S
C1023 C1028 1.350 . S
C1023 N1031 1.427 . S
C1024 H1015 0.930 . S
C1024 C1022 1.378 . S
C1024 C1025 1.367 . S
C1025 C1024 1.367 . S
C1025 C1027 1.433 . S
C1026 C1022 1.350 . S
C1026 C1023 1.463 . S
C1026 N1030 1.427 . S
C1027 H1017 0.929 . S
C1027 C1025 1.433 . S
C1027 N1030 1.384 . S
C1028 H1019 0.929 . S
C1028 C1020 1.378 . S
C1028 C1023 1.350 . S
C1029 H1016 0.929 . S
C1029 C1021 1.433 . S
C1029 N1031 1.384 . S
N1030 C1026 1.427 . S
N1030 C1027 1.384 . S
N1031 C1023 1.427 . S
N1031 C1029 1.384 . S
H1032 C1038 0.930 . S
H1033 C1042 0.930 . S
H1034 C1047 0.929 . S
H1035 C1045 0.929 . S
H1036 C1040 0.929 . S
H1037 C1046 0.929 . S
C1038 H1032 0.930 . S
C1038 C1039 1.367 . S
C1038 C1046 1.378 . S
C1039 C1038 1.367 . S
C1039 C1047 1.433 . S
C1040 H1036 0.929 . S
C1040 C1042 1.378 . S
C1040 C1044 1.350 . S
C1041 C1044 1.463 . S
C1041 C1046 1.350 . S
C1041 N1049 1.427 . S
C1042 H1033 0.930 . S
C1042 C1040 1.378 . S
C1042 C1043 1.367 . S
C1043 C1042 1.367 . S
C1043 C1045 1.433 . S
C1044 C1040 1.350 . S
C1044 C1041 1.463 . S
C1044 N1048 1.427 . S
C1045 H1035 0.929 . S
C1045 C1043 1.433 . S
C1045 N1048 1.384 . S
C1046 H1037 0.929 . S
C1046 C1038 1.378 . S
C1046 C1041 1.350 . S
C1047 H1034 0.929 . S
C1047 C1039 1.433 . S
C1047 N1049 1.384 . S
N1048 C1044 1.427 . S
N1048 C1045 1.384 . S
N1049 C1041 1.427 . S
N1049 C1047 1.384 . S
H1050 C1056 0.930 . S
H1051 C1060 0.930 . S
H1052 C1065 0.929 . S
H1053 C1063 0.929 . S
H1054 C1058 0.929 . S
H1055 C1064 0.929 . S
C1056 H1050 0.930 . S
C1056 C1057 1.367 . S
C1056 C1064 1.378 . S
C1057 C1056 1.367 . S
C1057 C1065 1.433 . S
C1058 H1054 0.929 . S
C1058 C1060 1.378 . S
C1058 C1062 1.350 . S
C1059 C1062 1.463 . S
C1059 C1064 1.350 . S
C1059 N1067 1.427 . S
C1060 H1051 0.930 . S
C1060 C1058 1.378 . S
C1060 C1061 1.367 . S
C1061 C1060 1.367 . S
C1061 C1063 1.433 . S
C1062 C1058 1.350 . S
C1062 C1059 1.463 . S
C1062 N1066 1.427 . S
C1063 H1053 0.929 . S
C1063 C1061 1.433 . S
C1063 N1066 1.384 . S
C1064 H1055 0.929 . S
C1064 C1056 1.378 . S
C1064 C1059 1.350 . S
C1065 H1052 0.929 . S
C1065 C1057 1.433 . S
C1065 N1067 1.384 . S
N1066 C1062 1.427 . S
N1066 C1063 1.384 . S
N1067 C1059 1.427 . S
N1067 C1065 1.384 . S
H1068 C1074 0.930 . S
H1069 C1078 0.930 . S
H1070 C1083 0.929 . S
H1071 C1081 0.929 . S
H1072 C1076 0.929 . S
H1073 C1082 0.929 . S
C1074 H1068 0.930 . S
C1074 C1075 1.367 . S
C1074 C1082 1.378 . S
C1075 C1074 1.367 . S
C1075 C1083 1.433 . S
C1076 H1072 0.929 . S
C1076 C1078 1.378 . S
C1076 C1080 1.350 . S
C1077 C1080 1.463 . S
C1077 C1082 1.350 . S
C1077 N1085 1.427 . S
C1078 H1069 0.930 . S
C1078 C1076 1.378 . S
C1078 C1079 1.367 . S
C1079 C1078 1.367 . S
C1079 C1081 1.433 . S
C1080 C1076 1.350 . S
C1080 C1077 1.463 . S
C1080 N1084 1.427 . S
C1081 H1071 0.929 . S
C1081 C1079 1.433 . S
C1081 N1084 1.384 . S
C1082 H1073 0.929 . S
C1082 C1074 1.378 . S
C1082 C1077 1.350 . S
C1083 H1070 0.929 . S
C1083 C1075 1.433 . S
C1083 N1085 1.384 . S
N1084 C1080 1.427 . S
N1084 C1081 1.384 . S
N1085 C1077 1.427 . S
N1085 C1083 1.384 . S
H1086 C1092 0.930 . S
H1087 C1096 0.930 . S
H1088 C1101 0.929 . S
H1089 C1099 0.929 . S
H1090 C1094 0.929 . S
H1091 C1100 0.929 . S
C1092 H1086 0.930 . S
C1092 C1093 1.367 . S
C1092 C1100 1.378 . S
C1093 C1092 1.367 . S
C1093 C1101 1.433 . S
C1094 H1090 0.929 . S
C1094 C1096 1.378 . S
C1094 C1098 1.350 . S
C1095 C1098 1.463 . S
C1095 C1100 1.350 . S
C1095 N1103 1.427 . S
C1096 H1087 0.930 . S
C1096 C1094 1.378 . S
C1096 C1097 1.367 . S
C1097 C1096 1.367 . S
C1097 C1099 1.433 . S
C1098 C1094 1.350 . S
C1098 C1095 1.463 . S
C1098 N1102 1.427 . S
C1099 H1089 0.929 . S
C1099 C1097 1.433 . S
C1099 N1102 1.384 . S
C1100 H1091 0.929 . S
C1100 C1092 1.378 . S
C1100 C1095 1.350 . S
C1101 H1088 0.929 . S
C1101 C1093 1.433 . S
C1101 N1103 1.384 . S
N1102 C1098 1.427 . S
N1102 C1099 1.384 . S
N1103 C1095 1.427 . S
N1103 C1101 1.384 . S
H1104 C1110 0.930 . S
H1105 C1114 0.930 . S
H1106 C1119 0.929 . S
H1107 C1117 0.929 . S
H1108 C1112 0.929 . S
H1109 C1118 0.929 . S
C1110 H1104 0.930 . S
C1110 C1111 1.367 . S
C1110 C1118 1.378 . S
C1111 C1110 1.367 . S
C1111 C1119 1.433 . S
C1112 H1108 0.929 . S
C1112 C1114 1.378 . S
C1112 C1116 1.350 . S
C1113 C1116 1.463 . S
C1113 C1118 1.350 . S
C1113 N1121 1.427 . S
C1114 H1105 0.930 . S
C1114 C1112 1.378 . S
C1114 C1115 1.367 . S
C1115 C1114 1.367 . S
C1115 C1117 1.433 . S
C1116 C1112 1.350 . S
C1116 C1113 1.463 . S
C1116 N1120 1.427 . S
C1117 H1107 0.929 . S
C1117 C1115 1.433 . S
C1117 N1120 1.384 . S
C1118 H1109 0.929 . S
C1118 C1110 1.378 . S
C1118 C1113 1.350 . S
C1119 H1106 0.929 . S
C1119 C1111 1.433 . S
C1119 N1121 1.384 . S
N1120 C1116 1.427 . S
N1120 C1117 1.384 . S
N1121 C1113 1.427 . S
N1121 C1119 1.384 . S
H1122 C1128 0.930 . S
H1123 C1132 0.930 . S
H1124 C1137 0.929 . S
H1125 C1135 0.929 . S
H1126 C1130 0.929 . S
H1127 C1136 0.929 . S
C1128 H1122 0.930 . S
C1128 C1129 1.367 . S
C1128 C1136 1.378 . S
C1129 C1128 1.367 . S
C1129 C1137 1.433 . S
C1130 H1126 0.929 . S
C1130 C1132 1.378 . S
C1130 C1134 1.350 . S
C1131 C1134 1.463 . S
C1131 C1136 1.350 . S
C1131 N1139 1.427 . S
C1132 H1123 0.930 . S
C1132 C1130 1.378 . S
C1132 C1133 1.367 . S
C1133 C1132 1.367 . S
C1133 C1135 1.433 . S
C1134 C1130 1.350 . S
C1134 C1131 1.463 . S
C1134 N1138 1.427 . S
C1135 H1125 0.929 . S
C1135 C1133 1.433 . S
C1135 N1138 1.384 . S
C1136 H1127 0.929 . S
C1136 C1128 1.378 . S
C1136 C1131 1.350 . S
C1137 H1124 0.929 . S
C1137 C1129 1.433 . S
C1137 N1139 1.384 . S
N1138 C1134 1.427 . S
N1138 C1135 1.384 . S
N1139 C1131 1.427 . S
N1139 C1137 1.384 . S
H1140 C1146 0.930 . S
H1141 C1150 0.930 . S
H1142 C1155 0.929 . S
H1143 C1153 0.929 . S
H1144 C1148 0.929 . S
H1145 C1154 0.929 . S
C1146 H1140 0.930 . S
C1146 C1147 1.367 . S
C1146 C1154 1.378 . S
C1147 C1146 1.367 . S
C1147 C1155 1.433 . S
C1148 H1144 0.929 . S
C1148 C1150 1.378 . S
C1148 C1152 1.350 . S
C1149 C1152 1.463 . S
C1149 C1154 1.350 . S
C1149 N1157 1.427 . S
C1150 H1141 0.930 . S
C1150 C1148 1.378 . S
C1150 C1151 1.367 . S
C1151 C1150 1.367 . S
C1151 C1153 1.433 . S
C1152 C1148 1.350 . S
C1152 C1149 1.463 . S
C1152 N1156 1.427 . S
C1153 H1143 0.929 . S
C1153 C1151 1.433 . S
C1153 N1156 1.384 . S
C1154 H1145 0.929 . S
C1154 C1146 1.378 . S
C1154 C1149 1.350 . S
C1155 H1142 0.929 . S
C1155 C1147 1.433 . S
C1155 N1157 1.384 . S
N1156 C1152 1.427 . S
N1156 C1153 1.384 . S
N1157 C1149 1.427 . S
N1157 C1155 1.384 . S
H1158 C1164 0.930 . S
H1159 C1168 0.930 . S
H1160 C1173 0.929 . S
H1161 C1171 0.929 . S
H1162 C1166 0.929 . S
H1163 C1172 0.929 . S
C1164 H1158 0.930 . S
C1164 C1165 1.367 . S
C1164 C1172 1.378 . S
C1165 C1164 1.367 . S
C1165 C1173 1.433 . S
C1166 H1162 0.929 . S
C1166 C1168 1.378 . S
C1166 C1170 1.350 . S
C1167 C1170 1.463 . S
C1167 C1172 1.350 . S
C1167 N1175 1.427 . S
C1168 H1159 0.930 . S
C1168 C1166 1.378 . S
C1168 C1169 1.367 . S
C1169 C1168 1.367 . S
C1169 C1171 1.433 . S
C1170 C1166 1.350 . S
C1170 C1167 1.463 . S
C1170 N1174 1.427 . S
C1171 H1161 0.929 . S
C1171 C1169 1.433 . S
C1171 N1174 1.384 . S
C1172 H1163 0.929 . S
C1172 C1164 1.378 . S
C1172 C1167 1.350 . S
C1173 H1160 0.929 . S
C1173 C1165 1.433 . S
C1173 N1175 1.384 . S
N1174 C1170 1.427 . S
N1174 C1171 1.384 . S
N1175 C1167 1.427 . S
N1175 C1173 1.384 . S
H1176 C1182 0.930 . S
H1177 C1186 0.930 . S
H1178 C1191 0.929 . S
H1179 C1189 0.929 . S
H1180 C1184 0.929 . S
H1181 C1190 0.929 . S
C1182 H1176 0.930 . S
C1182 C1183 1.367 . S
C1182 C1190 1.378 . S
C1183 C1182 1.367 . S
C1183 C1191 1.433 . S
C1184 H1180 0.929 . S
C1184 C1186 1.378 . S
C1184 C1188 1.350 . S
C1185 C1188 1.463 . S
C1185 C1190 1.350 . S
C1185 N1193 1.427 . S
C1186 H1177 0.930 . S
C1186 C1184 1.378 . S
C1186 C1187 1.367 . S
C1187 C1186 1.367 . S
C1187 C1189 1.433 . S
C1188 C1184 1.350 . S
C1188 C1185 1.463 . S
C1188 N1192 1.427 . S
C1189 H1179 0.929 . S
C1189 C1187 1.433 . S
C1189 N1192 1.384 . S
C1190 H1181 0.929 . S
C1190 C1182 1.378 . S
C1190 C1185 1.350 . S
C1191 H1178 0.929 . S
C1191 C1183 1.433 . S
C1191 N1193 1.384 . S
N1192 C1188 1.427 . S
N1192 C1189 1.384 . S
N1193 C1185 1.427 . S
N1193 C1191 1.384 . S
H1194 C1200 0.930 . S
H1195 C1204 0.930 . S
H1196 C1209 0.929 . S
H1197 C1207 0.929 . S
H1198 C1202 0.929 . S
H1199 C1208 0.929 . S
C1200 H1194 0.930 . S
C1200 C1201 1.367 . S
C1200 C1208 1.378 . S
C1201 C1200 1.367 . S
C1201 C1209 1.433 . S
C1202 H1198 0.929 . S
C1202 C1204 1.378 . S
C1202 C1206 1.350 . S
C1203 C1206 1.463 . S
C1203 C1208 1.350 . S
C1203 N1211 1.427 . S
C1204 H1195 0.930 . S
C1204 C1202 1.378 . S
C1204 C1205 1.367 . S
C1205 C1204 1.367 . S
C1205 C1207 1.433 . S
C1206 C1202 1.350 . S
C1206 C1203 1.463 . S
C1206 N1210 1.427 . S
C1207 H1197 0.929 . S
C1207 C1205 1.433 . S
C1207 N1210 1.384 . S
C1208 H1199 0.929 . S
C1208 C1200 1.378 . S
C1208 C1203 1.350 . S
C1209 H1196 0.929 . S
C1209 C1201 1.433 . S
C1209 N1211 1.384 . S
N1210 C1206 1.427 . S
N1210 C1207 1.384 . S
N1211 C1203 1.427 . S
N1211 C1209 1.384 . S
H1212 C1218 0.930 . S
H1213 C1222 0.930 . S
H1214 C1227 0.929 . S
H1215 C1225 0.929 . S
H1216 C1220 0.929 . S
H1217 C1226 0.929 . S
C1218 H1212 0.930 . S
C1218 C1219 1.367 . S
C1218 C1226 1.378 . S
C1219 C1218 1.367 . S
C1219 C1227 1.433 . S
C1220 H1216 0.929 . S
C1220 C1222 1.378 . S
C1220 C1224 1.350 . S
C1221 C1224 1.463 . S
C1221 C1226 1.350 . S
C1221 N1229 1.427 . S
C1222 H1213 0.930 . S
C1222 C1220 1.378 . S
C1222 C1223 1.367 . S
C1223 C1222 1.367 . S
C1223 C1225 1.433 . S
C1224 C1220 1.350 . S
C1224 C1221 1.463 . S
C1224 N1228 1.427 . S
C1225 H1215 0.929 . S
C1225 C1223 1.433 . S
C1225 N1228 1.384 . S
C1226 H1217 0.929 . S
C1226 C1218 1.378 . S
C1226 C1221 1.350 . S
C1227 H1214 0.929 . S
C1227 C1219 1.433 . S
C1227 N1229 1.384 . S
N1228 C1224 1.427 . S
N1228 C1225 1.384 . S
N1229 C1221 1.427 . S
N1229 C1227 1.384 . S
H1230 C1236 0.930 . S
H1231 C1240 0.930 . S
H1232 C1245 0.929 . S
H1233 C1243 0.929 . S
H1234 C1238 0.929 . S
H1235 C1244 0.929 . S
C1236 H1230 0.930 . S
C1236 C1237 1.367 . S
C1236 C1244 1.378 . S
C1237 C1236 1.367 . S
C1237 C1245 1.433 . S
C1238 H1234 0.929 . S
C1238 C1240 1.378 . S
C1238 C1242 1.350 . S
C1239 C1242 1.463 . S
C1239 C1244 1.350 . S
C1239 N1247 1.427 . S
C1240 H1231 0.930 . S
C1240 C1238 1.378 . S
C1240 C1241 1.367 . S
C1241 C1240 1.367 . S
C1241 C1243 1.433 . S
C1242 C1238 1.350 . S
C1242 C1239 1.463 . S
C1242 N1246 1.427 . S
C1243 H1233 0.929 . S
C1243 C1241 1.433 . S
C1243 N1246 1.384 . S
C1244 H1235 0.929 . S
C1244 C1236 1.378 . S
C1244 C1239 1.350 . S
C1245 H1232 0.929 . S
C1245 C1237 1.433 . S
C1245 N1247 1.384 . S
N1246 C1242 1.427 . S
N1246 C1243 1.384 . S
N1247 C1239 1.427 . S
N1247 C1245 1.384 . S
C535 N14 1.893 . S
C539 N113 1.888 . S
C553 N80 1.891 . S
C557 N47 1.887 . S
C571 N245 1.892 . S
C575 N146 1.891 . S
C589 N179 1.888 . S
C593 N212 1.893 . S
C607 N278 1.889 . S
C611 N377 1.889 . S
C625 N311 1.888 . S
C629 N344 1.893 . S
C643 N509 1.892 . S
C647 N410 1.887 . S
C661 N443 1.893 . S
C665 N476 1.888 . S
C679 N203 1.640 . S
C683 N5 1.653 . S
C697 N236 1.645 . S
C701 N38 1.649 . S
C715 N137 1.646 . S
C719 N71 1.648 . S
C733 N170 1.653 . S
C737 N104 1.641 . S
C751 N467 1.639 . S
C755 N269 1.654 . S
C769 N500 1.640 . S
C773 N302 1.654 . S
C787 N401 1.647 . S
C791 N335 1.647 . S
C805 N368 1.639 . S
C809 N434 1.654 . S
C823 C28 1.597 . S
C827 C94 1.595 . S
C841 C61 1.589 . S
C845 C127 1.591 . S
C859 C160 1.590 . S
C863 C226 1.589 . S
C877 C193 1.597 . S
C881 C259 1.594 . S
C895 C292 1.597 . S
C899 C358 1.596 . S
C913 C325 1.590 . S
C917 C391 1.589 . S
C931 C424 1.595 . S
C935 C490 1.597 . S
C949 C457 1.592 . S
C953 C523 1.596 . S
C967 C503 1.043 . S
C971 C17 1.045 . S
C985 C50 1.054 . S
C989 C470 1.047 . S
C1003 C83 1.053 . S
C1007 C437 1.055 . S
C1021 C404 1.043 . S
C1025 C116 1.048 . S
C1039 C371 1.055 . S
C1043 C149 1.053 . S
C1057 C182 1.045 . S
C1061 C338 1.049 . S
C1075 C215 1.054 . S
C1079 C305 1.055 . S
C1093 C248 1.044 . S
C1097 C272 1.047 . S
C1111 C281 1.055 . S
C1115 C239 1.054 . S
C1129 C206 1.055 . S
C1133 C314 1.054 . S
C1147 C173 1.053 . S
C1151 C347 1.048 . S
C1165 C380 1.051 . S
C1169 C140 1.045 . S
C1183 C413 1.046 . S
C1187 C107 1.051 . S
C1201 C74 1.045 . S
C1205 C446 1.052 . S
C1219 C41 1.047 . S
C1223 C479 1.054 . S
C1237 C8 1.054 . S
C1241 C512 1.050 . S
