# Generated by pormake.
# Topology cha, (4)-cn, num edge types: 1
# Building blocks:
#     Node 0, Type 0, BuildingBlock: KUFVIS_clean_sbu_0, # of connection points: 4
#     Node 1, Type 0, BuildingBlock: KUFVIS_clean_sbu_0, # of connection points: 4
#     Node 2, Type 0, BuildingBlock: KUFVIS_clean_sbu_0, # of connection points: 4
#     Node 3, Type 0, BuildingBlock: KUFVIS_clean_sbu_0, # of connection points: 4
#     Node 4, Type 0, BuildingBlock: KUFVIS_clean_sbu_0, # of connection points: 4
#     Node 5, Type 0, BuildingBlock: KUFVIS_clean_sbu_0, # of connection points: 4
#     Node 6, Type 0, BuildingBlock: KUFVIS_clean_sbu_0, # of connection points: 4
#     Node 7, Type 0, BuildingBlock: KUFVIS_clean_sbu_0, # of connection points: 4
#     Node 8, Type 0, BuildingBlock: KUFVIS_clean_sbu_0, # of connection points: 4
#     Node 9, Type 0, BuildingBlock: KUFVIS_clean_sbu_0, # of connection points: 4
#     Node 10, Type 0, BuildingBlock: KUFVIS_clean_sbu_0, # of connection points: 4
#     Node 11, Type 0, BuildingBlock: KUFVIS_clean_sbu_0, # of connection points: 4
#     Node 12, Type 0, BuildingBlock: KUFVIS_clean_sbu_0, # of connection points: 4
#     Node 13, Type 0, BuildingBlock: KUFVIS_clean_sbu_0, # of connection points: 4
#     Node 14, Type 0, BuildingBlock: KUFVIS_clean_sbu_0, # of connection points: 4
#     Node 15, Type 0, BuildingBlock: KUFVIS_clean_sbu_0, # of connection points: 4
#     Node 16, Type 0, BuildingBlock: KUFVIS_clean_sbu_0, # of connection points: 4
#     Node 17, Type 0, BuildingBlock: KUFVIS_clean_sbu_0, # of connection points: 4
#     Node 18, Type 0, BuildingBlock: KUFVIS_clean_sbu_0, # of connection points: 4
#     Node 19, Type 0, BuildingBlock: KUFVIS_clean_sbu_0, # of connection points: 4
#     Node 20, Type 0, BuildingBlock: KUFVIS_clean_sbu_0, # of connection points: 4
#     Node 21, Type 0, BuildingBlock: KUFVIS_clean_sbu_0, # of connection points: 4
#     Node 22, Type 0, BuildingBlock: KUFVIS_clean_sbu_0, # of connection points: 4
#     Node 23, Type 0, BuildingBlock: KUFVIS_clean_sbu_0, # of connection points: 4
#     Node 24, Type 0, BuildingBlock: KUFVIS_clean_sbu_0, # of connection points: 4
#     Node 25, Type 0, BuildingBlock: KUFVIS_clean_sbu_0, # of connection points: 4
#     Node 26, Type 0, BuildingBlock: KUFVIS_clean_sbu_0, # of connection points: 4
#     Node 27, Type 0, BuildingBlock: KUFVIS_clean_sbu_0, # of connection points: 4
#     Node 28, Type 0, BuildingBlock: KUFVIS_clean_sbu_0, # of connection points: 4
#     Node 29, Type 0, BuildingBlock: KUFVIS_clean_sbu_0, # of connection points: 4
#     Node 30, Type 0, BuildingBlock: KUFVIS_clean_sbu_0, # of connection points: 4
#     Node 31, Type 0, BuildingBlock: KUFVIS_clean_sbu_0, # of connection points: 4
#     Node 32, Type 0, BuildingBlock: KUFVIS_clean_sbu_0, # of connection points: 4
#     Node 33, Type 0, BuildingBlock: KUFVIS_clean_sbu_0, # of connection points: 4
#     Node 34, Type 0, BuildingBlock: KUFVIS_clean_sbu_0, # of connection points: 4
#     Node 35, Type 0, BuildingBlock: KUFVIS_clean_sbu_0, # of connection points: 4
#     Edge 36, Type (0, 0), BuildingBlock: KIFKEQ_clean_linker_1, # of connection points: 2
#     Edge 37, Type (0, 0), BuildingBlock: KIFKEQ_clean_linker_1, # of connection points: 2
#     Edge 38, Type (0, 0), BuildingBlock: KIFKEQ_clean_linker_1, # of connection points: 2
#     Edge 39, Type (0, 0), BuildingBlock: KIFKEQ_clean_linker_1, # of connection points: 2
#     Edge 40, Type (0, 0), BuildingBlock: KIFKEQ_clean_linker_1, # of connection points: 2
#     Edge 41, Type (0, 0), BuildingBlock: KIFKEQ_clean_linker_1, # of connection points: 2
#     Edge 42, Type (0, 0), BuildingBlock: KIFKEQ_clean_linker_1, # of connection points: 2
#     Edge 43, Type (0, 0), BuildingBlock: KIFKEQ_clean_linker_1, # of connection points: 2
#     Edge 44, Type (0, 0), BuildingBlock: KIFKEQ_clean_linker_1, # of connection points: 2
#     Edge 45, Type (0, 0), BuildingBlock: KIFKEQ_clean_linker_1, # of connection points: 2
#     Edge 46, Type (0, 0), BuildingBlock: KIFKEQ_clean_linker_1, # of connection points: 2
#     Edge 47, Type (0, 0), BuildingBlock: KIFKEQ_clean_linker_1, # of connection points: 2
#     Edge 48, Type (0, 0), BuildingBlock: KIFKEQ_clean_linker_1, # of connection points: 2
#     Edge 49, Type (0, 0), BuildingBlock: KIFKEQ_clean_linker_1, # of connection points: 2
#     Edge 50, Type (0, 0), BuildingBlock: KIFKEQ_clean_linker_1, # of connection points: 2
#     Edge 51, Type (0, 0), BuildingBlock: KIFKEQ_clean_linker_1, # of connection points: 2
#     Edge 52, Type (0, 0), BuildingBlock: KIFKEQ_clean_linker_1, # of connection points: 2
#     Edge 53, Type (0, 0), BuildingBlock: KIFKEQ_clean_linker_1, # of connection points: 2
#     Edge 54, Type (0, 0), BuildingBlock: KIFKEQ_clean_linker_1, # of connection points: 2
#     Edge 55, Type (0, 0), BuildingBlock: KIFKEQ_clean_linker_1, # of connection points: 2
#     Edge 56, Type (0, 0), BuildingBlock: KIFKEQ_clean_linker_1, # of connection points: 2
#     Edge 57, Type (0, 0), BuildingBlock: KIFKEQ_clean_linker_1, # of connection points: 2
#     Edge 58, Type (0, 0), BuildingBlock: KIFKEQ_clean_linker_1, # of connection points: 2
#     Edge 59, Type (0, 0), BuildingBlock: KIFKEQ_clean_linker_1, # of connection points: 2
#     Edge 60, Type (0, 0), BuildingBlock: KIFKEQ_clean_linker_1, # of connection points: 2
#     Edge 61, Type (0, 0), BuildingBlock: KIFKEQ_clean_linker_1, # of connection points: 2
#     Edge 62, Type (0, 0), BuildingBlock: KIFKEQ_clean_linker_1, # of connection points: 2
#     Edge 63, Type (0, 0), BuildingBlock: KIFKEQ_clean_linker_1, # of connection points: 2
#     Edge 64, Type (0, 0), BuildingBlock: KIFKEQ_clean_linker_1, # of connection points: 2
#     Edge 65, Type (0, 0), BuildingBlock: KIFKEQ_clean_linker_1, # of connection points: 2
#     Edge 66, Type (0, 0), BuildingBlock: KIFKEQ_clean_linker_1, # of connection points: 2
#     Edge 67, Type (0, 0), BuildingBlock: KIFKEQ_clean_linker_1, # of connection points: 2
#     Edge 68, Type (0, 0), BuildingBlock: KIFKEQ_clean_linker_1, # of connection points: 2
#     Edge 69, Type (0, 0), BuildingBlock: KIFKEQ_clean_linker_1, # of connection points: 2
#     Edge 70, Type (0, 0), BuildingBlock: KIFKEQ_clean_linker_1, # of connection points: 2
#     Edge 71, Type (0, 0), BuildingBlock: KIFKEQ_clean_linker_1, # of connection points: 2
#     Edge 72, Type (0, 0), BuildingBlock: KIFKEQ_clean_linker_1, # of connection points: 2
#     Edge 73, Type (0, 0), BuildingBlock: KIFKEQ_clean_linker_1, # of connection points: 2
#     Edge 74, Type (0, 0), BuildingBlock: KIFKEQ_clean_linker_1, # of connection points: 2
#     Edge 75, Type (0, 0), BuildingBlock: KIFKEQ_clean_linker_1, # of connection points: 2
#     Edge 76, Type (0, 0), BuildingBlock: KIFKEQ_clean_linker_1, # of connection points: 2
#     Edge 77, Type (0, 0), BuildingBlock: KIFKEQ_clean_linker_1, # of connection points: 2
#     Edge 78, Type (0, 0), BuildingBlock: KIFKEQ_clean_linker_1, # of connection points: 2
#     Edge 79, Type (0, 0), BuildingBlock: KIFKEQ_clean_linker_1, # of connection points: 2
#     Edge 80, Type (0, 0), BuildingBlock: KIFKEQ_clean_linker_1, # of connection points: 2
#     Edge 81, Type (0, 0), BuildingBlock: KIFKEQ_clean_linker_1, # of connection points: 2
#     Edge 82, Type (0, 0), BuildingBlock: KIFKEQ_clean_linker_1, # of connection points: 2
#     Edge 83, Type (0, 0), BuildingBlock: KIFKEQ_clean_linker_1, # of connection points: 2
#     Edge 84, Type (0, 0), BuildingBlock: KIFKEQ_clean_linker_1, # of connection points: 2
#     Edge 85, Type (0, 0), BuildingBlock: KIFKEQ_clean_linker_1, # of connection points: 2
#     Edge 86, Type (0, 0), BuildingBlock: KIFKEQ_clean_linker_1, # of connection points: 2
#     Edge 87, Type (0, 0), BuildingBlock: KIFKEQ_clean_linker_1, # of connection points: 2
#     Edge 88, Type (0, 0), BuildingBlock: KIFKEQ_clean_linker_1, # of connection points: 2
#     Edge 89, Type (0, 0), BuildingBlock: KIFKEQ_clean_linker_1, # of connection points: 2
#     Edge 90, Type (0, 0), BuildingBlock: KIFKEQ_clean_linker_1, # of connection points: 2
#     Edge 91, Type (0, 0), BuildingBlock: KIFKEQ_clean_linker_1, # of connection points: 2
#     Edge 92, Type (0, 0), BuildingBlock: KIFKEQ_clean_linker_1, # of connection points: 2
#     Edge 93, Type (0, 0), BuildingBlock: KIFKEQ_clean_linker_1, # of connection points: 2
#     Edge 94, Type (0, 0), BuildingBlock: KIFKEQ_clean_linker_1, # of connection points: 2
#     Edge 95, Type (0, 0), BuildingBlock: KIFKEQ_clean_linker_1, # of connection points: 2
#     Edge 96, Type (0, 0), BuildingBlock: KIFKEQ_clean_linker_1, # of connection points: 2
#     Edge 97, Type (0, 0), BuildingBlock: KIFKEQ_clean_linker_1, # of connection points: 2
#     Edge 98, Type (0, 0), BuildingBlock: KIFKEQ_clean_linker_1, # of connection points: 2
#     Edge 99, Type (0, 0), BuildingBlock: KIFKEQ_clean_linker_1, # of connection points: 2
#     Edge 100, Type (0, 0), BuildingBlock: KIFKEQ_clean_linker_1, # of connection points: 2
#     Edge 101, Type (0, 0), BuildingBlock: KIFKEQ_clean_linker_1, # of connection points: 2
#     Edge 102, Type (0, 0), BuildingBlock: KIFKEQ_clean_linker_1, # of connection points: 2
#     Edge 103, Type (0, 0), BuildingBlock: KIFKEQ_clean_linker_1, # of connection points: 2
#     Edge 104, Type (0, 0), BuildingBlock: KIFKEQ_clean_linker_1, # of connection points: 2
#     Edge 105, Type (0, 0), BuildingBlock: KIFKEQ_clean_linker_1, # of connection points: 2
#     Edge 106, Type (0, 0), BuildingBlock: KIFKEQ_clean_linker_1, # of connection points: 2
#     Edge 107, Type (0, 0), BuildingBlock: KIFKEQ_clean_linker_1, # of connection points: 2
# Relax obj value: 0.089
# Max RMSD: 0.120
# Mean RMSD: 0.120
data_MOF--net-cha--node1-KUFVIS_clean_sbu_0--edge1-KIFKEQ_clean_linker_1
_symmetry_space_group_name_H-M    P1
_symmetry_Int_Tables_number       1
_symmetry_cell_setting            triclinic
loop_
_symmetry_equiv_pos_as_xyz
'x, y, z'
_cell_length_a     56.395945
_cell_length_b     56.407288
_cell_length_c     86.069192
_cell_angle_alpha  90.006856
_cell_angle_beta   90.004804
_cell_angle_gamma 120.00801
loop_
_atom_site_label
_atom_site_type_symbol
_atom_site_fract_x
_atom_site_fract_y
_atom_site_fract_z
_atom_type_partial_charge
Mn0 Mn 0.02425 0.29504 0.09384 0.0
Mn1 Mn 0.03309 0.2512 0.07116 0.0
C2 C 0.9871 0.25235 0.08818 0.0
C3 C 0.02501 0.31327 0.11836 0.0
C4 C 0.03183 0.30074 0.05869 0.0
O5 O 0.06575 0.31063 0.09414 0.0
O6 O 0.06846 0.27743 0.08092 0.0
C7 C 0.04586 0.22161 0.0951 0.0
N8 N 0.03007 0.22125 0.08303 0.0
C9 C 0.00247 0.17219 0.08411 0.0
C10 C 0.01852 0.17198 0.0965 0.0
C11 C 0.0403 0.19681 0.10202 0.0
C12 C 0.00917 0.1975 0.07756 0.0
H13 H 0.06251 0.24069 0.09942 0.0
C14 C 0.07916 0.29969 0.08877 0.0
O15 O 0.02765 0.32697 0.10573 0.0
O16 O 0.02259 0.28929 0.11675 0.0
N17 N 0.00028 0.22477 0.06102 0.0
C18 C 0.98541 0.22873 0.04989 0.0
C19 C 0.96217 0.20605 0.0436 0.0
C20 C 0.95456 0.17958 0.04877 0.0
C21 C 0.97036 0.17608 0.06013 0.0
C22 C 0.99345 0.19937 0.06587 0.0
H23 H 0.99108 0.24903 0.04592 0.0
O24 O 0.98343 0.27223 0.0927 0.0
O25 O 0.01244 0.258 0.08724 0.0
O26 O 0.02558 0.30814 0.07132 0.0
O27 O 0.03619 0.28071 0.05768 0.0
C28 C 0.96353 0.15043 0.06637 0.0
C29 C 0.97955 0.1484 0.07833 0.0
H30 H 0.01411 0.15291 0.10197 0.0
H31 H 0.05268 0.19683 0.11163 0.0
H32 H 0.95007 0.20898 0.03487 0.0
H33 H 0.93638 0.16213 0.04407 0.0
H34 H 0.94553 0.13236 0.06227 0.0
H35 H 0.97374 0.12856 0.08325 0.0
Mn36 Mn 0.76053 0.7551 0.09393 0.0
Mn37 Mn 0.80723 0.8091 0.07319 0.0
C38 C 0.80197 0.75821 0.08768 0.0
C39 C 0.74183 0.7368 0.11821 0.0
C40 C 0.75637 0.76162 0.05902 0.0
O41 O 0.74685 0.78245 0.09527 0.0
O42 O 0.78185 0.81885 0.08344 0.0
C43 C 0.83668 0.84627 0.09938 0.0
N44 N 0.83698 0.83248 0.08646 0.0
C45 C 0.88504 0.8485 0.08955 0.0
C46 C 0.88534 0.86307 0.10282 0.0
C47 C 0.86104 0.86196 0.10775 0.0
C48 C 0.86022 0.83344 0.08161 0.0
H49 H 0.81796 0.84516 0.1033 0.0
C50 C 0.75903 0.80733 0.09074 0.0
O51 O 0.72775 0.72688 0.10552 0.0
O52 O 0.76642 0.75741 0.11674 0.0
N53 N 0.83308 0.80257 0.06248 0.0
C54 C 0.82924 0.78716 0.04952 0.0
C55 C 0.85157 0.78621 0.043 0.0
C56 C 0.87755 0.80109 0.04988 0.0
C57 C 0.88103 0.81717 0.06304 0.0
C58 C 0.85821 0.81789 0.06878 0.0
H59 H 0.80928 0.77557 0.04423 0.0
O60 O 0.78124 0.73495 0.0918 0.0
O61 O 0.79793 0.77898 0.08769 0.0
O62 O 0.7478 0.74651 0.07113 0.0
O63 O 0.77753 0.78552 0.05879 0.0
C64 C 0.90607 0.8319 0.07095 0.0
C65 C 0.9082 0.84768 0.08415 0.0
H66 H 0.90402 0.87496 0.1094 0.0
H67 H 0.86106 0.873 0.11804 0.0
H68 H 0.8487 0.7738 0.03282 0.0
H69 H 0.89461 0.79983 0.04504 0.0
H70 H 0.9235 0.83042 0.06723 0.0
H71 H 0.9276 0.85869 0.09019 0.0
Mn72 Mn 0.29619 0.03279 0.0965 0.0
Mn73 Mn 0.23996 0.0205 0.07615 0.0
C74 C 0.29007 0.06916 0.08964 0.0
C75 C 0.31675 0.03521 0.1204 0.0
C76 C 0.28966 0.02167 0.06167 0.0
O77 O 0.27153 0.99139 0.09848 0.0
O78 O 0.23376 0.98668 0.0867 0.0
C79 C 0.20159 0.00871 0.10232 0.0
N80 N 0.21401 0.02307 0.08921 0.0
C81 C 0.18579 0.04386 0.08892 0.0
C82 C 0.17258 0.02924 0.1024 0.0
C83 C 0.1807 0.01176 0.10921 0.0
C84 C 0.20683 0.0404 0.08278 0.0
H85 H 0.20748 0.99491 0.1074 0.0
C86 C 0.24661 0.97715 0.09428 0.0
O87 O 0.32648 0.03126 0.1076 0.0
O88 O 0.2949 0.03722 0.11931 0.0
N89 N 0.24217 0.05103 0.06524 0.0
C90 C 0.25819 0.06492 0.05287 0.0
C91 C 0.2534 0.08395 0.04502 0.0
C92 C 0.23174 0.0879 0.04968 0.0
C93 C 0.21544 0.07324 0.06241 0.0
C94 C 0.22158 0.05503 0.06998 0.0
H95 H 0.27432 0.06132 0.04897 0.0
O96 O 0.31391 0.07303 0.09367 0.0
O97 O 0.26988 0.04395 0.09038 0.0
O98 O 0.30473 0.02864 0.07378 0.0
O99 O 0.26521 0.01748 0.06152 0.0
C100 C 0.19327 0.07585 0.06786 0.0
C101 C 0.17878 0.06156 0.08126 0.0
H102 H 0.15623 0.03129 0.10764 0.0
H103 H 0.17064 0.00043 0.11962 0.0
H104 H 0.26606 0.0952 0.03521 0.0
H105 H 0.22787 0.1023 0.04344 0.0
H106 H 0.18738 0.08906 0.06195 0.0
H107 H 0.16224 0.0643 0.08555 0.0
Mn108 Mn 0.29678 0.02118 0.91596 0.0
Mn109 Mn 0.24932 0.02773 0.93637 0.0
C110 C 0.25487 0.98276 0.92128 0.0
C111 C 0.31663 0.02251 0.89194 0.0
C112 C 0.29947 0.03021 0.95095 0.0
O113 O 0.31069 0.06236 0.91531 0.0
O114 O 0.27494 0.06322 0.92657 0.0
C115 C 0.22052 0.03628 0.91013 0.0
N116 N 0.21992 0.02175 0.92291 0.0
C117 C 0.17197 0.98968 0.9193 0.0
C118 C 0.172 0.0044 0.90616 0.0
C119 C 0.19639 0.02782 0.90157 0.0
C120 C 0.19658 0.99924 0.92745 0.0
H121 H 0.23932 0.05407 0.90646 0.0
C122 C 0.29818 0.07483 0.9197 0.0
O123 O 0.33004 0.026 0.90482 0.0
O124 O 0.29211 0.01885 0.89307 0.0
N125 N 0.22325 0.99487 0.94662 0.0
C126 C 0.22678 0.98282 0.95946 0.0
C127 C 0.20431 0.95928 0.96566 0.0
C128 C 0.1785 0.94841 0.9586 0.0
C129 C 0.17536 0.96146 0.94555 0.0
C130 C 0.19829 0.98525 0.94014 0.0
H131 H 0.24659 0.99101 0.96491 0.0
O132 O 0.27567 0.9802 0.91734 0.0
O133 O 0.25917 0.00764 0.92165 0.0
O134 O 0.30832 0.02389 0.93888 0.0
O135 O 0.27857 0.03339 0.95101 0.0
C136 C 0.15054 0.95135 0.93744 0.0
C137 C 0.14873 0.96544 0.92436 0.0
H138 H 0.1535 0.99778 0.89944 0.0
H139 H 0.19662 0.03919 0.89139 0.0
H140 H 0.20693 0.94938 0.97576 0.0
H141 H 0.1613 0.92992 0.96321 0.0
H142 H 0.13308 0.93225 0.94093 0.0
H143 H 0.12953 0.9572 0.91813 0.0
Mn144 Mn 0.03686 0.30096 0.91352 0.0
Mn145 Mn 0.03036 0.2462 0.93269 0.0
C146 C 0.07586 0.29881 0.91962 0.0
C147 C 0.03602 0.3201 0.88962 0.0
C148 C 0.02333 0.29116 0.9477 0.0
O149 O 0.99594 0.27254 0.91201 0.0
O150 O 0.99688 0.23501 0.92021 0.0
C151 C 0.03014 0.21244 0.90631 0.0
N152 N 0.04125 0.22559 0.91994 0.0
C153 C 0.07578 0.2125 0.91904 0.0
C154 C 0.06456 0.19857 0.90507 0.0
C155 C 0.04164 0.19857 0.89868 0.0
C156 C 0.06329 0.22575 0.9262 0.0
H157 H 0.01275 0.21269 0.90126 0.0
C158 C 0.98479 0.24668 0.91395 0.0
O159 O 0.03136 0.32909 0.90251 0.0
O160 O 0.04073 0.29991 0.89066 0.0
N161 N 0.06168 0.25442 0.94511 0.0
C162 C 0.07067 0.2696 0.95838 0.0
C163 C 0.09364 0.27194 0.96614 0.0
C164 C 0.1071 0.25864 0.96021 0.0
C165 C 0.09725 0.24288 0.94665 0.0
C166 C 0.07394 0.2408 0.9396 0.0
H167 H 0.06048 0.2799 0.96303 0.0
O168 O 0.07787 0.32199 0.9158 0.0
O169 O 0.05131 0.27777 0.91926 0.0
O170 O 0.03224 0.30803 0.93638 0.0
O171 O 0.01946 0.26681 0.94691 0.0
C172 C 0.11017 0.22987 0.93961 0.0
C173 C 0.09942 0.21454 0.92587 0.0
H174 H 0.07356 0.18811 0.89907 0.0
H175 H 0.03297 0.18806 0.88783 0.0
H176 H 0.10107 0.28414 0.97661 0.0
H177 H 0.12512 0.26087 0.96606 0.0
H178 H 0.12893 0.23243 0.94445 0.0
H179 H 0.10984 0.20496 0.92045 0.0
Mn180 Mn 0.75939 0.76569 0.91338 0.0
Mn181 Mn 0.81373 0.80828 0.93551 0.0
C182 C 0.76551 0.80806 0.92036 0.0
C183 C 0.74005 0.74823 0.88909 0.0
C184 C 0.76229 0.76099 0.94881 0.0
O185 O 0.78398 0.74896 0.91156 0.0
O186 O 0.81852 0.77843 0.92685 0.0
C187 C 0.85465 0.83081 0.91018 0.0
N188 N 0.84185 0.83482 0.92247 0.0
C189 C 0.87243 0.88347 0.92166 0.0
C190 C 0.88603 0.87991 0.90901 0.0
C191 C 0.87694 0.85348 0.90317 0.0
C192 C 0.84998 0.86017 0.92794 0.0
H193 H 0.84801 0.81047 0.90585 0.0
C194 C 0.80699 0.75726 0.91816 0.0
O195 O 0.72965 0.73429 0.90174 0.0
O196 O 0.76182 0.7721 0.89056 0.0
N197 N 0.81306 0.83861 0.94493 0.0
C198 C 0.79688 0.83857 0.95669 0.0
C199 C 0.80276 0.86349 0.9636 0.0
C200 C 0.82567 0.88802 0.95868 0.0
C201 C 0.84217 0.8875 0.94665 0.0
C202 C 0.83494 0.86216 0.93998 0.0
H203 H 0.77977 0.81964 0.96082 0.0
O204 O 0.7418 0.78829 0.91598 0.0
O205 O 0.78566 0.8029 0.92007 0.0
O206 O 0.74937 0.75202 0.936 0.0
O207 O 0.78611 0.782 0.94992 0.0
C208 C 0.86562 0.91107 0.94106 0.0
C209 C 0.88043 0.90914 0.92839 0.0
H210 H 0.90346 0.89732 0.90371 0.0
H211 H 0.88731 0.85055 0.89341 0.0
H212 H 0.78997 0.86374 0.9729 0.0
H213 H 0.83043 0.90712 0.96424 0.0
H214 H 0.87232 0.93087 0.94631 0.0
H215 H 0.89802 0.9275 0.92399 0.0
Mn216 Mn 0.03275 0.76909 0.91018 0.0
Mn217 Mn 0.02155 0.81433 0.9298 0.0
C218 C 0.06994 0.81095 0.91726 0.0
C219 C 0.03452 0.75073 0.88615 0.0
C220 C 0.02 0.76465 0.94477 0.0
O221 O 0.99156 0.75343 0.90801 0.0
O222 O 0.98804 0.78816 0.91836 0.0
C223 C 0.01379 0.843 0.9032 0.0
N224 N 0.02658 0.84384 0.91677 0.0
C225 C 0.04899 0.89295 0.91761 0.0
C226 C 0.03592 0.89267 0.9037 0.0
C227 C 0.01844 0.86759 0.89638 0.0
C228 C 0.04397 0.86785 0.92368 0.0
H229 H 5e-05 0.82372 0.89769 0.0
C230 C 0.97803 0.76531 0.91121 0.0
O231 O 0.03014 0.73682 0.89892 0.0
O232 O 0.03756 0.77498 0.88739 0.0
N233 N 0.05185 0.84145 0.94146 0.0
C234 C 0.0644 0.83821 0.95414 0.0
C235 C 0.08343 0.8614 0.96248 0.0
C236 C 0.08873 0.88754 0.95795 0.0
C237 C 0.07543 0.89034 0.9449 0.0
C238 C 0.05718 0.86657 0.93686 0.0
H239 H 0.05975 0.81808 0.95792 0.0
O240 O 0.07304 0.79053 0.91321 0.0
O241 O 0.04505 0.80681 0.91627 0.0
O242 O 0.02776 0.75646 0.933 0.0
O243 O 0.01604 0.78506 0.94445 0.0
C244 C 0.07948 0.91573 0.93954 0.0
C245 C 0.06669 0.9171 0.92576 0.0
H246 H 0.03922 0.91158 0.8985 0.0
H247 H 0.00834 0.86719 0.8856 0.0
H248 H 0.09362 0.85909 0.97253 0.0
H249 H 0.10312 0.90533 0.96455 0.0
H250 H 0.09272 0.93442 0.94581 0.0
H251 H 0.07059 0.93682 0.92154 0.0
Mn252 Mn 0.29145 0.29334 0.91517 0.0
Mn253 Mn 0.24596 0.23764 0.93524 0.0
C254 C 0.24922 0.28853 0.92146 0.0
C255 C 0.31062 0.31266 0.89111 0.0
C256 C 0.29479 0.28672 0.95008 0.0
O257 O 0.30733 0.26787 0.91387 0.0
O258 O 0.27253 0.23001 0.92453 0.0
C259 C 0.21806 0.19978 0.90903 0.0
N260 N 0.21683 0.21244 0.92222 0.0
C261 C 0.1677 0.18555 0.92274 0.0
C262 C 0.16838 0.17207 0.9092 0.0
C263 C 0.19368 0.17942 0.90223 0.0
C264 C 0.19261 0.20607 0.92878 0.0
H265 H 0.2375 0.20509 0.90383 0.0
C266 C 0.29547 0.24261 0.91745 0.0
O267 O 0.32402 0.32273 0.90397 0.0
O268 O 0.28637 0.2914 0.89227 0.0
N269 N 0.21846 0.24119 0.94623 0.0
C270 C 0.22132 0.2575 0.9586 0.0
C271 C 0.1979 0.25352 0.96659 0.0
C272 C 0.17191 0.23236 0.96207 0.0
C273 C 0.1695 0.21579 0.94932 0.0
C274 C 0.19349 0.22113 0.9416 0.0
H275 H 0.24131 0.27322 0.96241 0.0
O276 O 0.26963 0.312 0.91729 0.0
O277 O 0.25363 0.26793 0.92105 0.0
O278 O 0.30324 0.30208 0.93808 0.0
O279 O 0.27471 0.26217 0.94993 0.0
C280 C 0.14429 0.19409 0.944 0.0
C281 C 0.14333 0.1793 0.93057 0.0
H282 H 0.14963 0.15611 0.90404 0.0
H283 H 0.1944 0.16918 0.89176 0.0
H284 H 0.19991 0.2664 0.97641 0.0
H285 H 0.15394 0.22909 0.96843 0.0
H286 H 0.12542 0.18884 0.95002 0.0
H287 H 0.12374 0.16317 0.92637 0.0
Mn288 Mn 0.76077 0.02452 0.91403 0.0
Mn289 Mn 0.81503 0.03051 0.93398 0.0
C290 C 0.76334 0.98568 0.91953 0.0
C291 C 0.74233 0.02611 0.88994 0.0
C292 C 0.76809 0.03363 0.94908 0.0
O293 O 0.78848 0.0655 0.9131 0.0
O294 O 0.82511 0.06602 0.92406 0.0
C295 C 0.85124 0.03817 0.90728 0.0
N296 N 0.83768 0.02394 0.92021 0.0
C297 C 0.8527 0.99127 0.91631 0.0
C298 C 0.86703 0.0057 0.90302 0.0
C299 C 0.8663 0.02926 0.8985 0.0
C300 C 0.83827 0.00128 0.92469 0.0
H301 H 0.85041 0.05607 0.90366 0.0
C302 C 0.81359 0.07773 0.9172 0.0
O303 O 0.73261 0.02988 0.90282 0.0
O304 O 0.76279 0.02185 0.89112 0.0
N305 N 0.80825 0.99772 0.9443 0.0
C306 C 0.79324 0.98611 0.95738 0.0
C307 C 0.792 0.96247 0.96354 0.0
C308 C 0.80621 0.95107 0.9562 0.0
C309 C 0.82195 0.96374 0.94294 0.0
C310 C 0.823 0.98764 0.93757 0.0
H311 H 0.78218 0.99471 0.96304 0.0
O312 O 0.74018 0.98363 0.91562 0.0
O313 O 0.78437 0.01035 0.91966 0.0
O314 O 0.75266 0.02764 0.93711 0.0
O315 O 0.79209 0.03663 0.94888 0.0
C316 C 0.83603 0.95317 0.9346 0.0
C317 C 0.85152 0.96693 0.92135 0.0
H318 H 0.87844 0.99873 0.89613 0.0
H319 H 0.87715 0.0404 0.88819 0.0
H320 H 0.77988 0.9529 0.97381 0.0
H321 H 0.80469 0.93248 0.96076 0.0
H322 H 0.83426 0.93401 0.93805 0.0
H323 H 0.86204 0.95836 0.91497 0.0
Mn324 Mn 0.7713 0.03339 0.09574 0.0
Mn325 Mn 0.81594 0.01911 0.07808 0.0
C326 C 0.81478 0.06879 0.08952 0.0
C327 C 0.75162 0.03576 0.11914 0.0
C328 C 0.76921 0.02062 0.06124 0.0
O329 O 0.75337 0.99186 0.09796 0.0
O330 O 0.78784 0.98627 0.08916 0.0
C331 C 0.84082 0.0105 0.10623 0.0
N332 N 0.84363 0.02362 0.09249 0.0
C333 C 0.89269 0.04718 0.09445 0.0
C334 C 0.89038 0.03378 0.10857 0.0
C335 C 0.86431 0.01556 0.11456 0.0
C336 C 0.86854 0.0419 0.08691 0.0
H337 H 0.82082 0.99624 0.11077 0.0
C338 C 0.76448 0.97732 0.09558 0.0
O339 O 0.73903 0.03258 0.10598 0.0
O340 O 0.77546 0.03764 0.11861 0.0
N341 N 0.84483 0.04882 0.06692 0.0
C342 C 0.84348 0.05995 0.05313 0.0
C343 C 0.86779 0.07857 0.04553 0.0
C344 C 0.89319 0.08487 0.05192 0.0
C345 C 0.89408 0.07291 0.06604 0.0
C346 C 0.8692 0.05497 0.07324 0.0
H347 H 0.82402 0.05449 0.04788 0.0
O348 O 0.79533 0.07383 0.0929 0.0
O349 O 0.80858 0.04337 0.09072 0.0
O350 O 0.76096 0.02924 0.0726 0.0
O351 O 0.78833 0.01473 0.06236 0.0
C352 C 0.9186 0.07738 0.07302 0.0
C353 C 0.91796 0.06505 0.08738 0.0
H354 H 0.90848 0.03728 0.11488 0.0
H355 H 0.86233 0.00519 0.12547 0.0
H356 H 0.86694 0.08759 0.03459 0.0
H357 H 0.91182 0.09865 0.04577 0.0
H358 H 0.93809 0.08987 0.06736 0.0
H359 H 0.93699 0.06901 0.09272 0.0
Mn360 Mn 0.02245 0.76215 0.09142 0.0
Mn361 Mn 0.03165 0.81582 0.06949 0.0
C362 C 0.98505 0.7669 0.08515 0.0
C363 C 0.02248 0.7437 0.11577 0.0
C364 C 0.02826 0.7649 0.05585 0.0
O365 O 0.06373 0.78755 0.09252 0.0
O366 O 0.06709 0.82178 0.07761 0.0
C367 C 0.04987 0.85669 0.09484 0.0
N368 N 0.03279 0.84353 0.08271 0.0
C369 C 0.01332 0.87287 0.08407 0.0
C370 C 0.03074 0.88683 0.09656 0.0
C371 C 0.04894 0.87855 0.10205 0.0
C372 C 0.01476 0.85088 0.07758 0.0
H373 H 0.06422 0.85067 0.0989 0.0
C374 C 0.07767 0.81073 0.08595 0.0
O375 O 0.02562 0.73316 0.10305 0.0
O376 O 0.01963 0.76502 0.11432 0.0
N377 N 0.99979 0.81405 0.06056 0.0
C378 C 0.98358 0.79763 0.04889 0.0
C379 C 0.96386 0.8028 0.04225 0.0
C380 C 0.9616 0.82525 0.04737 0.0
C381 C 0.97866 0.84197 0.05934 0.0
C382 C 0.99753 0.8355 0.06569 0.0
H383 H 0.98588 0.78089 0.0446 0.0
O384 O 0.98205 0.74357 0.08955 0.0
O385 O 0.01013 0.78752 0.08507 0.0
O386 O 0.02516 0.75204 0.06862 0.0
O387 O 0.03057 0.78853 0.05493 0.0
C388 C 0.97783 0.86493 0.06515 0.0
C389 C 0.99478 0.88005 0.07769 0.0
H390 H 0.03033 0.90393 0.10201 0.0
H391 H 0.06245 0.8892 0.11169 0.0
H392 H 0.95078 0.78983 0.03302 0.0
H393 H 0.94672 0.82946 0.04202 0.0
H394 H 0.96405 0.87102 0.06018 0.0
H395 H 0.99349 0.89727 0.08227 0.0
Mn396 Mn 0.29741 0.29158 0.09658 0.0
Mn397 Mn 0.24287 0.24287 0.07747 0.0
C398 C 0.29539 0.25033 0.09108 0.0
C399 C 0.3156 0.31189 0.12065 0.0
C400 C 0.2883 0.29416 0.06217 0.0
O401 O 0.2692 0.30436 0.09728 0.0
O402 O 0.23159 0.26559 0.08948 0.0
C403 C 0.20887 0.21017 0.10401 0.0
N404 N 0.22212 0.21177 0.09048 0.0
C405 C 0.20912 0.1642 0.09203 0.0
C406 C 0.19511 0.16197 0.1059 0.0
C407 C 0.195 0.18507 0.11191 0.0
C408 C 0.22237 0.18969 0.0846 0.0
H409 H 0.20906 0.22797 0.10877 0.0
C410 C 0.24335 0.28971 0.09531 0.0
O411 O 0.32522 0.32537 0.10775 0.0
O412 O 0.2954 0.28703 0.11949 0.0
N413 N 0.25108 0.21932 0.06546 0.0
C414 C 0.26614 0.22502 0.05217 0.0
C415 C 0.26845 0.20412 0.04473 0.0
C416 C 0.25524 0.1776 0.051 0.0
C417 C 0.23955 0.17218 0.06454 0.0
C418 C 0.23747 0.19364 0.07126 0.0
H419 H 0.27634 0.2453 0.04725 0.0
O420 O 0.31843 0.27152 0.09505 0.0
O421 O 0.27434 0.25384 0.09104 0.0
O422 O 0.30508 0.30246 0.07357 0.0
O423 O 0.26378 0.27395 0.06304 0.0
C424 C 0.22657 0.1465 0.07188 0.0
C425 C 0.21123 0.14239 0.08556 0.0
H426 H 0.18463 0.14271 0.11211 0.0
H427 H 0.18441 0.18357 0.12268 0.0
H428 H 0.28056 0.2085 0.03426 0.0
H429 H 0.25746 0.16161 0.0454 0.0
H430 H 0.22914 0.13015 0.06731 0.0
H431 H 0.20165 0.12257 0.0912 0.0
Mn432 Mn 0.68647 0.62453 0.4281 0.0
Mn433 Mn 0.6952 0.57778 0.40864 0.0
C434 C 0.64875 0.58173 0.42326 0.0
C435 C 0.68751 0.64514 0.45184 0.0
C436 C 0.69746 0.62763 0.39359 0.0
O437 O 0.72794 0.63951 0.42865 0.0
O438 O 0.72932 0.60232 0.4201 0.0
C439 C 0.70149 0.54641 0.43427 0.0
N440 N 0.68814 0.54711 0.42125 0.0
C441 C 0.65779 0.4984 0.42214 0.0
C442 C 0.67134 0.4971 0.43549 0.0
C443 C 0.69327 0.52122 0.44159 0.0
C444 C 0.66715 0.52402 0.41521 0.0
H445 H 0.71822 0.56494 0.43905 0.0
C446 C 0.74043 0.62618 0.42625 0.0
O447 O 0.69045 0.65784 0.43876 0.0
O448 O 0.68454 0.62085 0.45109 0.0
N449 N 0.66319 0.55275 0.39728 0.0
C450 C 0.65069 0.55783 0.38522 0.0
C451 C 0.62742 0.53606 0.37834 0.0
C452 C 0.61728 0.50931 0.38389 0.0
C453 C 0.63061 0.5046 0.39624 0.0
C454 C 0.65389 0.52702 0.40254 0.0
H455 H 0.65824 0.57833 0.38094 0.0
O456 O 0.6455 0.60226 0.42685 0.0
O457 O 0.67392 0.58682 0.42296 0.0
O458 O 0.68852 0.63513 0.4051 0.0
O459 O 0.70268 0.60809 0.39427 0.0
C460 C 0.62108 0.47865 0.4029 0.0
C461 C 0.63471 0.47546 0.41579 0.0
H462 H 0.66481 0.47775 0.44129 0.0
H463 H 0.70371 0.52042 0.45196 0.0
H464 H 0.61722 0.53991 0.36884 0.0
H465 H 0.59907 0.49259 0.37871 0.0
H466 H 0.60278 0.46129 0.39843 0.0
H467 H 0.62684 0.45548 0.42104 0.0
Mn468 Mn 0.42471 0.08776 0.42822 0.0
Mn469 Mn 0.47102 0.1416 0.40723 0.0
C470 C 0.46649 0.09141 0.42233 0.0
C471 C 0.40564 0.06999 0.45245 0.0
C472 C 0.42073 0.09323 0.39323 0.0
O473 O 0.41043 0.11462 0.42907 0.0
O474 O 0.44518 0.15108 0.41716 0.0
C475 C 0.49987 0.17964 0.4332 0.0
N476 N 0.50051 0.16563 0.42047 0.0
C477 C 0.54869 0.18246 0.42377 0.0
C478 C 0.54863 0.19725 0.43685 0.0
C479 C 0.5241 0.19584 0.44157 0.0
C480 C 0.52397 0.16687 0.4158 0.0
H481 H 0.48097 0.17831 0.43697 0.0
C482 C 0.42232 0.13941 0.42442 0.0
O483 O 0.3919 0.05957 0.43972 0.0
O484 O 0.4302 0.09069 0.45104 0.0
N485 N 0.4973 0.13531 0.39683 0.0
C486 C 0.4938 0.11965 0.38404 0.0
C487 C 0.51639 0.11893 0.37773 0.0
C488 C 0.54228 0.13431 0.38465 0.0
C489 C 0.5454 0.15065 0.39764 0.0
C490 C 0.52232 0.1511 0.40315 0.0
H491 H 0.47392 0.10769 0.37871 0.0
O492 O 0.44595 0.0681 0.42658 0.0
O493 O 0.46207 0.11194 0.42204 0.0
O494 O 0.41231 0.07842 0.40545 0.0
O495 O 0.44158 0.11733 0.39287 0.0
C496 C 0.57035 0.16592 0.40557 0.0
C497 C 0.57211 0.18193 0.41857 0.0
H498 H 0.56722 0.20955 0.44343 0.0
H499 H 0.52384 0.20706 0.45171 0.0
H500 H 0.5138 0.10632 0.36769 0.0
H501 H 0.55954 0.13322 0.37998 0.0
H502 H 0.58801 0.16473 0.40201 0.0
H503 H 0.59144 0.19337 0.42464 0.0
Mn504 Mn 0.96163 0.37025 0.42764 0.0
Mn505 Mn 0.90491 0.35865 0.40805 0.0
C506 C 0.95565 0.40702 0.4215 0.0
C507 C 0.98242 0.3715 0.45138 0.0
C508 C 0.95421 0.36027 0.39268 0.0
O509 O 0.93693 0.32879 0.42923 0.0
O510 O 0.89879 0.32458 0.41827 0.0
C511 C 0.86748 0.3467 0.43473 0.0
N512 N 0.87941 0.36112 0.42155 0.0
C513 C 0.85109 0.38179 0.4219 0.0
C514 C 0.83836 0.36708 0.43544 0.0
C515 C 0.84678 0.34965 0.44196 0.0
C516 C 0.87197 0.37843 0.4154 0.0
H517 H 0.87361 0.33294 0.43959 0.0
C518 C 0.91182 0.31476 0.42539 0.0
O519 O 0.99199 0.36811 0.43835 0.0
O520 O 0.9607 0.37379 0.45059 0.0
N521 N 0.90685 0.38935 0.39748 0.0
C522 C 0.92247 0.40336 0.38502 0.0
C523 C 0.91731 0.42233 0.37738 0.0
C524 C 0.89569 0.42609 0.38237 0.0
C525 C 0.87984 0.41135 0.39521 0.0
C526 C 0.88631 0.39318 0.40253 0.0
H527 H 0.93854 0.39988 0.38085 0.0
O528 O 0.97945 0.41058 0.42535 0.0
O529 O 0.93534 0.38182 0.4221 0.0
O530 O 0.96968 0.36696 0.40463 0.0
O531 O 0.92968 0.35582 0.39295 0.0
C532 C 0.8578 0.41385 0.40101 0.0
C533 C 0.84377 0.39949 0.41451 0.0
H534 H 0.82216 0.36906 0.44094 0.0
H535 H 0.8371 0.33826 0.45243 0.0
H536 H 0.92964 0.43365 0.3675 0.0
H537 H 0.89152 0.44042 0.37629 0.0
H538 H 0.85164 0.42703 0.39531 0.0
H539 H 0.82735 0.40214 0.41907 0.0
Mn540 Mn 0.95842 0.36118 0.24619 0.0
Mn541 Mn 0.91317 0.37287 0.26547 0.0
C542 C 0.91611 0.32434 0.25295 0.0
C543 C 0.97731 0.35906 0.2224 0.0
C544 C 0.96207 0.3735 0.28083 0.0
O545 O 0.97444 0.40248 0.24395 0.0
O546 O 0.93978 0.40632 0.25418 0.0
C547 C 0.88519 0.38132 0.23874 0.0
N548 N 0.88399 0.36825 0.25226 0.0
C549 C 0.83488 0.3462 0.25283 0.0
C550 C 0.83553 0.35954 0.23895 0.0
C551 C 0.86079 0.37698 0.23179 0.0
C552 C 0.8598 0.35089 0.25901 0.0
H553 H 0.90461 0.39506 0.23338 0.0
C554 C 0.96265 0.41616 0.24707 0.0
O555 O 0.99081 0.3633 0.23532 0.0
O556 O 0.95318 0.35644 0.22335 0.0
N557 N 0.88567 0.34255 0.27694 0.0
C558 C 0.88855 0.32976 0.28962 0.0
C559 C 0.86514 0.31079 0.29781 0.0
C560 C 0.83915 0.30576 0.29314 0.0
C561 C 0.83673 0.31926 0.28007 0.0
C562 C 0.8607 0.33744 0.27217 0.0
H563 H 0.90855 0.3342 0.29353 0.0
O564 O 0.93643 0.32088 0.24917 0.0
O565 O 0.92066 0.34934 0.25194 0.0
O566 O 0.9704 0.36578 0.26911 0.0
O567 O 0.94198 0.37793 0.28034 0.0
C568 C 0.81152 0.31551 0.27459 0.0
C569 C 0.81053 0.32859 0.26083 0.0
H570 H 0.81677 0.35649 0.23366 0.0
H571 H 0.86148 0.3873 0.22106 0.0
H572 H 0.86717 0.30044 0.30788 0.0
H573 H 0.82119 0.29142 0.29964 0.0
H574 H 0.79267 0.3023 0.28073 0.0
H575 H 0.79094 0.32495 0.25652 0.0
Mn576 Mn 0.70036 0.62741 0.24678 0.0
Mn577 Mn 0.69024 0.5713 0.26634 0.0
C578 C 0.7379 0.62274 0.25293 0.0
C579 C 0.70045 0.64708 0.22288 0.0
C580 C 0.68983 0.6198 0.28158 0.0
O581 O 0.65905 0.60191 0.24541 0.0
O582 O 0.65607 0.56377 0.2556 0.0
C583 C 0.68075 0.53425 0.23978 0.0
N584 N 0.69442 0.54652 0.25309 0.0
C585 C 0.71684 0.5198 0.25331 0.0
C586 C 0.70289 0.50671 0.23965 0.0
C587 C 0.68496 0.51416 0.23276 0.0
C588 C 0.71222 0.54003 0.25958 0.0
H589 H 0.66667 0.53967 0.23462 0.0
C590 C 0.64569 0.57654 0.24874 0.0
O591 O 0.69705 0.6569 0.23581 0.0
O592 O 0.7036 0.62589 0.22388 0.0
N593 N 0.72124 0.57469 0.27732 0.0
C594 C 0.73464 0.5908 0.28976 0.0
C595 C 0.75422 0.58683 0.29762 0.0
C596 C 0.75921 0.56588 0.29289 0.0
C597 C 0.74504 0.54947 0.28009 0.0
C598 C 0.72627 0.5548 0.27251 0.0
H599 H 0.73026 0.60637 0.29372 0.0
O600 O 0.74081 0.64621 0.24894 0.0
O601 O 0.71293 0.60202 0.25242 0.0
O602 O 0.69695 0.63553 0.26973 0.0
O603 O 0.68567 0.59536 0.28123 0.0
C604 C 0.74872 0.52799 0.27456 0.0
C605 C 0.73504 0.51352 0.26102 0.0
H606 H 0.70585 0.49099 0.23431 0.0
H607 H 0.67417 0.50423 0.22219 0.0
H608 H 0.76508 0.59958 0.30748 0.0
H609 H 0.77406 0.56265 0.29912 0.0
H610 H 0.76236 0.52267 0.28049 0.0
H611 H 0.73865 0.49759 0.25665 0.0
Mn612 Mn 0.42854 0.09938 0.2489 0.0
Mn613 Mn 0.48091 0.14154 0.27235 0.0
C614 C 0.43338 0.14112 0.25622 0.0
C615 C 0.41078 0.08271 0.22427 0.0
C616 C 0.42978 0.09143 0.28394 0.0
O617 O 0.45442 0.08403 0.24744 0.0
O618 O 0.48912 0.11486 0.26229 0.0
C619 C 0.52401 0.17078 0.24872 0.0
N620 N 0.50887 0.17136 0.26088 0.0
C621 C 0.53544 0.22047 0.26231 0.0
C622 C 0.5514 0.22044 0.24982 0.0
C623 C 0.54553 0.19549 0.24292 0.0
C624 C 0.51405 0.19525 0.26743 0.0
H625 H 0.51979 0.15158 0.24357 0.0
C626 C 0.4781 0.09374 0.25351 0.0
O627 O 0.40009 0.06816 0.23668 0.0
O628 O 0.43212 0.1068 0.22614 0.0
N629 N 0.47611 0.16859 0.28297 0.0
C630 C 0.45756 0.16511 0.29417 0.0
C631 C 0.45976 0.18813 0.30179 0.0
C632 C 0.48134 0.21439 0.29807 0.0
C633 C 0.50027 0.21741 0.28657 0.0
C634 C 0.49677 0.19377 0.2792 0.0
H635 H 0.44128 0.14491 0.29727 0.0
O636 O 0.41005 0.1213 0.25136 0.0
O637 O 0.45367 0.13623 0.25638 0.0
O638 O 0.41696 0.08423 0.27105 0.0
O639 O 0.45368 0.11208 0.28551 0.0
C640 C 0.5225 0.24291 0.28213 0.0
C641 C 0.53991 0.24448 0.2699 0.0
H642 H 0.56815 0.23945 0.2454 0.0
H643 H 0.55773 0.1953 0.23327 0.0
H644 H 0.44506 0.18563 0.31065 0.0
H645 H 0.48314 0.23206 0.30412 0.0
H646 H 0.52624 0.26151 0.28792 0.0
H647 H 0.55659 0.26429 0.26638 0.0
Mn648 Mn 0.70297 0.10038 0.2464 0.0
Mn649 Mn 0.69614 0.14905 0.26477 0.0
C650 C 0.7419 0.1416 0.25242 0.0
C651 C 0.70227 0.08031 0.22254 0.0
C652 C 0.68871 0.09733 0.28041 0.0
O653 O 0.66211 0.08774 0.24475 0.0
O654 O 0.6629 0.12651 0.25213 0.0
C655 C 0.69662 0.18203 0.23791 0.0
N656 N 0.70741 0.18027 0.25172 0.0
C657 C 0.74219 0.2278 0.25058 0.0
C658 C 0.7313 0.23021 0.23642 0.0
C659 C 0.70841 0.20721 0.23005 0.0
C660 C 0.72941 0.20225 0.25795 0.0
H661 H 0.67925 0.16431 0.23289 0.0
C662 C 0.65086 0.10242 0.24626 0.0
O663 O 0.69757 0.06667 0.23544 0.0
O664 O 0.70702 0.10521 0.22358 0.0
N665 N 0.72721 0.17238 0.27731 0.0
C666 C 0.73584 0.16644 0.29079 0.0
C667 C 0.75871 0.18719 0.29857 0.0
C668 C 0.77244 0.21379 0.29242 0.0
C669 C 0.76295 0.21943 0.27863 0.0
C670 C 0.73972 0.19812 0.27158 0.0
H671 H 0.72544 0.14607 0.29561 0.0
O672 O 0.74396 0.12038 0.24881 0.0
O673 O 0.71735 0.13806 0.25187 0.0
O674 O 0.69801 0.08913 0.26937 0.0
O675 O 0.68488 0.11781 0.27922 0.0
C676 C 0.77617 0.24519 0.27138 0.0
C677 C 0.76577 0.24948 0.25741 0.0
H678 H 0.74054 0.24952 0.23024 0.0
H679 H 0.70001 0.20884 0.21906 0.0
H680 H 0.76587 0.18263 0.30921 0.0
H681 H 0.79038 0.22966 0.29828 0.0
H682 H 0.79486 0.26145 0.27624 0.0
H683 H 0.77641 0.26931 0.25182 0.0
Mn684 Mn 0.96431 0.63878 0.2459 0.0
Mn685 Mn 0.91827 0.58556 0.26741 0.0
C686 C 0.92277 0.63549 0.2521 0.0
C687 C 0.98251 0.65633 0.22139 0.0
C688 C 0.96924 0.63386 0.28088 0.0
O689 O 0.9782 0.6115 0.24504 0.0
O690 O 0.94325 0.57534 0.25711 0.0
C691 C 0.88776 0.54722 0.24185 0.0
N692 N 0.888 0.56161 0.2546 0.0
C693 C 0.83983 0.54556 0.25203 0.0
C694 C 0.83899 0.53038 0.23893 0.0
C695 C 0.86306 0.53121 0.23382 0.0
C696 C 0.86497 0.56094 0.25963 0.0
H697 H 0.90631 0.54811 0.23778 0.0
C698 C 0.96601 0.58669 0.24974 0.0
O699 O 0.99677 0.66676 0.23396 0.0
O700 O 0.9581 0.63551 0.22309 0.0
N701 N 0.89287 0.59269 0.27819 0.0
C702 C 0.89723 0.60868 0.29096 0.0
C703 C 0.87516 0.60989 0.29765 0.0
C704 C 0.8489 0.59468 0.29115 0.0
C705 C 0.84492 0.57807 0.27817 0.0
C706 C 0.8675 0.57709 0.27226 0.0
H707 H 0.91738 0.62048 0.29599 0.0
O708 O 0.94327 0.65867 0.24765 0.0
O709 O 0.92711 0.61494 0.25244 0.0
O710 O 0.97732 0.64855 0.2686 0.0
O711 O 0.94845 0.60975 0.28139 0.0
C712 C 0.81957 0.56305 0.27061 0.0
C713 C 0.81691 0.54669 0.25759 0.0
H714 H 0.82004 0.51823 0.23262 0.0
H715 H 0.86262 0.51969 0.22366 0.0
H716 H 0.87843 0.62273 0.30769 0.0
H717 H 0.832 0.59608 0.29613 0.0
H718 H 0.80234 0.56477 0.27449 0.0
H719 H 0.7973 0.53547 0.25179 0.0
Mn720 Mn 0.42612 0.35595 0.24879 0.0
Mn721 Mn 0.48261 0.36495 0.26767 0.0
C722 C 0.43147 0.3186 0.25373 0.0
C723 C 0.40581 0.35645 0.22516 0.0
C724 C 0.43396 0.36214 0.28424 0.0
O725 O 0.45148 0.39728 0.24773 0.0
O726 O 0.48806 0.40048 0.26015 0.0
C727 C 0.51841 0.38144 0.23995 0.0
N728 N 0.50673 0.36436 0.25229 0.0
C729 C 0.52717 0.33745 0.24497 0.0
C730 C 0.53959 0.35486 0.23225 0.0
C731 C 0.53518 0.37695 0.22973 0.0
C732 C 0.51076 0.34301 0.2548 0.0
H733 H 0.51486 0.39829 0.23787 0.0
C734 C 0.4757 0.41107 0.25307 0.0
O735 O 0.3961 0.35926 0.23831 0.0
O736 O 0.42717 0.35359 0.22583 0.0
N737 N 0.48103 0.33263 0.27573 0.0
C738 C 0.46848 0.31851 0.2889 0.0
C739 C 0.47122 0.296 0.29326 0.0
C740 C 0.48704 0.28848 0.28412 0.0
C741 C 0.50063 0.304 0.27096 0.0
C742 C 0.49751 0.32647 0.26735 0.0
H743 H 0.45624 0.3242 0.29593 0.0
O744 O 0.40761 0.31525 0.25032 0.0
O745 O 0.45179 0.34373 0.25358 0.0
O746 O 0.41905 0.35839 0.27221 0.0
O747 O 0.45792 0.36497 0.28385 0.0
C748 C 0.51686 0.2979 0.26115 0.0
C749 C 0.53013 0.31459 0.24818 0.0
H750 H 0.55243 0.35137 0.22431 0.0
H751 H 0.54458 0.39041 0.2199 0.0
H752 H 0.46091 0.28428 0.30352 0.0
H753 H 0.48854 0.27075 0.28731 0.0
H754 H 0.51904 0.28027 0.26332 0.0
H755 H 0.54247 0.30958 0.24072 0.0
Mn756 Mn 0.43208 0.36355 0.43113 0.0
Mn757 Mn 0.47632 0.34856 0.41363 0.0
C758 C 0.47557 0.39865 0.42462 0.0
C759 C 0.41309 0.36674 0.45465 0.0
C760 C 0.42939 0.34966 0.39678 0.0
O761 O 0.41398 0.32205 0.43362 0.0
O762 O 0.44839 0.31614 0.42505 0.0
C763 C 0.50176 0.34069 0.44176 0.0
N764 N 0.50429 0.35347 0.42793 0.0
C765 C 0.55339 0.37683 0.42947 0.0
C766 C 0.55138 0.36383 0.44369 0.0
C767 C 0.52543 0.34588 0.44994 0.0
C768 C 0.52909 0.3715 0.42209 0.0
H769 H 0.48185 0.32657 0.44646 0.0
C770 C 0.42504 0.3074 0.43144 0.0
O771 O 0.40016 0.36329 0.44159 0.0
O772 O 0.43678 0.36833 0.45395 0.0
N773 N 0.50498 0.37788 0.40212 0.0
C774 C 0.50335 0.38857 0.38823 0.0
C775 C 0.5275 0.40688 0.38039 0.0
C776 C 0.55303 0.4133 0.38665 0.0
C777 C 0.55419 0.40173 0.40085 0.0
C778 C 0.52948 0.38414 0.40831 0.0
H779 H 0.48378 0.38299 0.38309 0.0
O780 O 0.45626 0.40391 0.42799 0.0
O781 O 0.46923 0.37323 0.42601 0.0
O782 O 0.4214 0.35886 0.408 0.0
O783 O 0.44842 0.34368 0.39802 0.0
C784 C 0.57884 0.40626 0.40767 0.0
C785 C 0.5785 0.39433 0.42213 0.0
H786 H 0.5696 0.36739 0.44988 0.0
H787 H 0.52368 0.33578 0.46092 0.0
H788 H 0.52643 0.41558 0.36939 0.0
H789 H 0.57155 0.42689 0.38034 0.0
H790 H 0.5982 0.41859 0.40182 0.0
H791 H 0.59764 0.39834 0.42734 0.0
Mn792 Mn 0.68816 0.09787 0.42736 0.0
Mn793 Mn 0.69635 0.15021 0.40452 0.0
C794 C 0.65043 0.10195 0.4209 0.0
C795 C 0.6882 0.08007 0.45192 0.0
C796 C 0.69278 0.09878 0.39172 0.0
O797 O 0.72944 0.12363 0.42821 0.0
O798 O 0.73207 0.15643 0.41231 0.0
C799 C 0.71569 0.19232 0.42922 0.0
N800 N 0.69812 0.17861 0.41737 0.0
C801 C 0.67877 0.20807 0.41853 0.0
C802 C 0.6967 0.2226 0.43073 0.0
C803 C 0.71509 0.21453 0.43619 0.0
C804 C 0.67991 0.18575 0.4123 0.0
H805 H 0.73017 0.18646 0.43325 0.0
C806 C 0.74306 0.14618 0.42096 0.0
O807 O 0.69162 0.06939 0.43934 0.0
O808 O 0.68539 0.10138 0.45022 0.0
N809 N 0.66423 0.14816 0.39579 0.0
C810 C 0.64768 0.13135 0.38434 0.0
C811 C 0.62786 0.13637 0.37772 0.0
C812 C 0.62584 0.15906 0.3826 0.0
C813 C 0.64322 0.17618 0.39435 0.0
C814 C 0.66223 0.16987 0.4007 0.0
H815 H 0.64979 0.1144 0.38022 0.0
O816 O 0.64773 0.07889 0.4256 0.0
O817 O 0.6754 0.12273 0.42059 0.0
O818 O 0.69072 0.08691 0.40472 0.0
O819 O 0.6945 0.1221 0.39036 0.0
C820 C 0.64262 0.19938 0.39993 0.0
C821 C 0.66002 0.21502 0.4122 0.0
H822 H 0.69654 0.23996 0.43599 0.0
H823 H 0.72899 0.22562 0.4456 0.0
H824 H 0.61452 0.12309 0.36865 0.0
H825 H 0.61091 0.16318 0.37723 0.0
H826 H 0.62869 0.2053 0.39497 0.0
H827 H 0.65895 0.23245 0.41659 0.0
Mn828 Mn 0.96501 0.63069 0.42644 0.0
Mn829 Mn 0.91237 0.58343 0.40507 0.0
C830 C 0.96273 0.58944 0.42073 0.0
C831 C 0.98215 0.6499 0.45081 0.0
C832 C 0.9602 0.63447 0.39133 0.0
O833 O 0.93711 0.64377 0.42699 0.0
O834 O 0.90154 0.60838 0.41483 0.0
C835 C 0.87414 0.5536 0.4308 0.0
N836 N 0.88868 0.55355 0.41818 0.0
C837 C 0.87347 0.50571 0.42156 0.0
C838 C 0.85814 0.50517 0.43452 0.0
C839 C 0.85846 0.52922 0.43914 0.0
C840 C 0.88849 0.53054 0.41361 0.0
H841 H 0.87466 0.57215 0.4345 0.0
C842 C 0.91241 0.63119 0.42214 0.0
O843 O 0.9924 0.6638 0.43812 0.0
O844 O 0.96181 0.62515 0.4493 0.0
N845 N 0.92 0.55794 0.39482 0.0
C846 C 0.93604 0.56199 0.38212 0.0
C847 C 0.9377 0.53987 0.37587 0.0
C848 C 0.9229 0.51389 0.38275 0.0
C849 C 0.90622 0.51022 0.39565 0.0
C850 C 0.90476 0.5328 0.4011 0.0
H851 H 0.94756 0.58194 0.37682 0.0
O852 O 0.98567 0.61038 0.42509 0.0
O853 O 0.94179 0.59319 0.42019 0.0
O854 O 0.97463 0.6432 0.40369 0.0
O855 O 0.93636 0.61325 0.39082 0.0
C856 C 0.89158 0.4852 0.40358 0.0
C857 C 0.87511 0.48283 0.41648 0.0
H858 H 0.84626 0.48647 0.44108 0.0
H859 H 0.84683 0.52902 0.44919 0.0
H860 H 0.95059 0.5429 0.36589 0.0
H861 H 0.92467 0.49698 0.37812 0.0
H862 H 0.89367 0.46801 0.40008 0.0
H863 H 0.86418 0.46347 0.42256 0.0
Mn864 Mn 0.36139 0.96305 0.76186 0.0
Mn865 Mn 0.37062 0.92083 0.738 0.0
C866 C 0.3244 0.92056 0.75559 0.0
C867 C 0.36227 0.98019 0.78667 0.0
C868 C 0.36888 0.97081 0.7268 0.0
O869 O 0.40291 0.97892 0.76203 0.0
O870 O 0.40591 0.94677 0.7479 0.0
C871 C 0.38395 0.89038 0.76107 0.0
N872 N 0.36806 0.89044 0.74918 0.0
C873 C 0.34136 0.84129 0.7492 0.0
C874 C 0.35753 0.84064 0.76139 0.0
C875 C 0.37888 0.86531 0.76737 0.0
C876 C 0.3475 0.86686 0.74332 0.0
H877 H 0.40032 0.90933 0.76571 0.0
C878 C 0.41648 0.96853 0.75618 0.0
O879 O 0.3647 0.99435 0.77428 0.0
O880 O 0.35983 0.95627 0.78465 0.0
N881 N 0.33795 0.89467 0.72764 0.0
C882 C 0.32289 0.89896 0.71678 0.0
C883 C 0.3 0.87642 0.71011 0.0
C884 C 0.29298 0.84976 0.71458 0.0
C885 C 0.30898 0.84593 0.72568 0.0
C886 C 0.33162 0.86911 0.73186 0.0
H887 H 0.32817 0.91941 0.71332 0.0
O888 O 0.32059 0.94008 0.76065 0.0
O889 O 0.34979 0.9264 0.75451 0.0
O890 O 0.3626 0.97734 0.7397 0.0
O891 O 0.37333 0.95093 0.72519 0.0
C892 C 0.30286 0.82001 0.73115 0.0
C893 C 0.31897 0.81762 0.74292 0.0
H894 H 0.35355 0.82134 0.76636 0.0
H895 H 0.39136 0.86499 0.77683 0.0
H896 H 0.28774 0.87959 0.70159 0.0
H897 H 0.27512 0.8324 0.70956 0.0
H898 H 0.28546 0.80195 0.72654 0.0
H899 H 0.31372 0.79756 0.74725 0.0
Mn900 Mn 0.09681 0.42835 0.76068 0.0
Mn901 Mn 0.14074 0.4802 0.73762 0.0
C902 C 0.13915 0.43325 0.75479 0.0
C903 C 0.07849 0.41063 0.78512 0.0
C904 C 0.09472 0.42755 0.72493 0.0
O905 O 0.08078 0.45354 0.76118 0.0
O906 O 0.1094 0.48473 0.74406 0.0
C907 C 0.15951 0.52305 0.76193 0.0
N908 N 0.16532 0.50977 0.75065 0.0
C909 C 0.21362 0.54129 0.75304 0.0
C910 C 0.20818 0.55539 0.76464 0.0
C911 C 0.18101 0.54607 0.7692 0.0
C912 C 0.1914 0.5181 0.7465 0.0
H913 H 0.13864 0.51623 0.76531 0.0
C914 C 0.08854 0.47496 0.75301 0.0
O915 O 0.0648 0.39967 0.77246 0.0
O916 O 0.10255 0.4321 0.78356 0.0
N917 N 0.17261 0.4801 0.73015 0.0
C918 C 0.17439 0.46395 0.71898 0.0
C919 C 0.20017 0.4705 0.71309 0.0
C920 C 0.22374 0.49404 0.71838 0.0
C921 C 0.22141 0.51045 0.72984 0.0
C922 C 0.19523 0.50267 0.73543 0.0
H923 H 0.15625 0.4464 0.71449 0.0
O924 O 0.11888 0.40997 0.75931 0.0
O925 O 0.13451 0.45372 0.75422 0.0
O926 O 0.08366 0.41707 0.738 0.0
O927 O 0.11667 0.45056 0.72345 0.0
C928 C 0.244 0.53442 0.73578 0.0
C929 C 0.24016 0.54955 0.74757 0.0
H930 H 0.22469 0.57338 0.77011 0.0
H931 H 0.17662 0.5568 0.77815 0.0
H932 H 0.20183 0.45777 0.70424 0.0
H933 H 0.2435 0.49944 0.71351 0.0
H934 H 0.26446 0.54133 0.73146 0.0
H935 H 0.25774 0.56764 0.75223 0.0
Mn936 Mn 0.62919 0.69764 0.76006 0.0
Mn937 Mn 0.57528 0.6868 0.73785 0.0
C938 C 0.62417 0.73441 0.75273 0.0
C939 C 0.64826 0.69977 0.78447 0.0
C940 C 0.62602 0.68898 0.72475 0.0
O941 O 0.6037 0.65646 0.76215 0.0
O942 O 0.56922 0.65199 0.747 0.0
C943 C 0.53447 0.6706 0.76312 0.0
N944 N 0.54772 0.68682 0.7507 0.0
C945 C 0.51882 0.70685 0.75116 0.0
C946 C 0.50477 0.69032 0.76393 0.0
C947 C 0.51279 0.67228 0.77002 0.0
C948 C 0.54062 0.70468 0.74499 0.0
H949 H 0.54028 0.65637 0.76765 0.0
C950 C 0.5804 0.64208 0.75577 0.0
O951 O 0.65847 0.69551 0.77196 0.0
O952 O 0.62678 0.7023 0.7828 0.0
N953 N 0.5773 0.71812 0.72802 0.0
C954 C 0.59386 0.73355 0.71619 0.0
C955 C 0.58907 0.75315 0.70903 0.0
C956 C 0.56684 0.75607 0.71381 0.0
C957 C 0.54994 0.73978 0.72595 0.0
C958 C 0.55608 0.72105 0.73285 0.0
H959 H 0.61047 0.73077 0.71219 0.0
O960 O 0.64767 0.73786 0.75715 0.0
O961 O 0.60365 0.70932 0.75315 0.0
O962 O 0.63905 0.69323 0.73754 0.0
O963 O 0.60235 0.68656 0.72362 0.0
C964 C 0.52714 0.74125 0.73143 0.0
C965 C 0.51191 0.72518 0.7442 0.0
H966 H 0.48782 0.69132 0.76916 0.0
H967 H 0.50207 0.65947 0.77988 0.0
H968 H 0.60218 0.76563 0.69967 0.0
H969 H 0.56298 0.77092 0.7081 0.0
H970 H 0.5213 0.75492 0.72603 0.0
H971 H 0.49485 0.727 0.74853 0.0
Mn972 Mn 0.62886 0.69867 0.58019 0.0
Mn973 Mn 0.58595 0.70915 0.60281 0.0
C974 C 0.58691 0.66181 0.58733 0.0
C975 C 0.64599 0.69718 0.5557 0.0
C976 C 0.63419 0.70611 0.61561 0.0
O977 O 0.64488 0.73998 0.57857 0.0
O978 O 0.61501 0.7441 0.59401 0.0
C979 C 0.56186 0.7265 0.57782 0.0
N980 N 0.55863 0.70988 0.59007 0.0
C981 C 0.50978 0.69054 0.58967 0.0
C982 C 0.51252 0.70748 0.57706 0.0
C983 C 0.53868 0.72538 0.57102 0.0
C984 C 0.53356 0.69213 0.59571 0.0
H985 H 0.58198 0.74063 0.57335 0.0
C986 C 0.63613 0.75423 0.58527 0.0
O987 O 0.66029 0.701 0.56824 0.0
O988 O 0.62201 0.69472 0.55739 0.0
N989 N 0.55637 0.67774 0.6124 0.0
C990 C 0.55724 0.66198 0.62413 0.0
C991 C 0.53274 0.64259 0.63128 0.0
C992 C 0.50776 0.64023 0.62662 0.0
C993 C 0.50742 0.65684 0.61459 0.0
C994 C 0.53239 0.67536 0.60769 0.0
H995 H 0.57651 0.66438 0.62806 0.0
O996 O 0.60686 0.65836 0.58271 0.0
O997 O 0.59162 0.68696 0.58718 0.0
O998 O 0.643 0.7023 0.60271 0.0
O999 O 0.61301 0.7086 0.61691 0.0
C1000 C 0.48333 0.65591 0.60922 0.0
C1001 C 0.48444 0.67236 0.59659 0.0
H1002 H 0.49471 0.70693 0.57193 0.0
H1003 H 0.54098 0.73852 0.56129 0.0
H1004 H 0.53316 0.62987 0.64056 0.0
H1005 H 0.48898 0.6256 0.63236 0.0
H1006 H 0.46377 0.64242 0.61462 0.0
H1007 H 0.4657 0.67099 0.59235 0.0
Mn1008 Mn 0.36306 0.96873 0.58275 0.0
Mn1009 Mn 0.35696 0.91588 0.6041 0.0
C1010 C 0.40183 0.96647 0.58899 0.0
C1011 C 0.3617 0.98589 0.55833 0.0
C1012 C 0.3528 0.96334 0.61765 0.0
O1013 O 0.32218 0.94072 0.58167 0.0
O1014 O 0.32167 0.90485 0.59363 0.0
C1015 C 0.35038 0.87815 0.57844 0.0
N1016 N 0.3642 0.89261 0.59126 0.0
C1017 C 0.39743 0.87801 0.5886 0.0
C1018 C 0.38344 0.86276 0.57544 0.0
C1019 C 0.35979 0.86283 0.57035 0.0
C1020 C 0.38693 0.89266 0.59628 0.0
H1021 H 0.33242 0.87848 0.57437 0.0
C1022 C 0.31001 0.91583 0.58617 0.0
O1023 O 0.35765 0.99613 0.5709 0.0
O1024 O 0.36622 0.96565 0.55999 0.0
N1025 N 0.38969 0.9238 0.61495 0.0
C1026 C 0.40101 0.93989 0.62772 0.0
C1027 C 0.42467 0.94187 0.63438 0.0
C1028 C 0.43642 0.92733 0.62784 0.0
C1029 C 0.42413 0.91064 0.61483 0.0
C1030 C 0.40019 0.90887 0.60896 0.0
H1031 H 0.39215 0.9512 0.63276 0.0
O1032 O 0.40398 0.98946 0.58461 0.0
O1033 O 0.37715 0.94553 0.58924 0.0
O1034 O 0.35927 0.97807 0.60539 0.0
O1035 O 0.35005 0.93944 0.61812 0.0
C1036 C 0.43515 0.89628 0.60722 0.0
C1037 C 0.42183 0.8799 0.59415 0.0
H1038 H 0.3908 0.85116 0.56908 0.0
H1039 H 0.34898 0.85127 0.56014 0.0
H1040 H 0.43398 0.95478 0.64442 0.0
H1041 H 0.45499 0.92932 0.6328 0.0
H1042 H 0.4543 0.89848 0.61112 0.0
H1043 H 0.43075 0.86924 0.58828 0.0
Mn1044 Mn 0.09491 0.43093 0.5797 0.0
Mn1045 Mn 0.14656 0.4744 0.60304 0.0
C1046 C 0.09924 0.47275 0.58634 0.0
C1047 C 0.07683 0.41352 0.55514 0.0
C1048 C 0.09437 0.42735 0.6154 0.0
O1049 O 0.12076 0.41567 0.5785 0.0
O1050 O 0.15163 0.44372 0.59597 0.0
C1051 C 0.18949 0.49479 0.57872 0.0
N1052 N 0.17599 0.49982 0.59022 0.0
C1053 C 0.20718 0.54829 0.58863 0.0
C1054 C 0.22151 0.54367 0.57681 0.0
C1055 C 0.21246 0.5168 0.57174 0.0
C1056 C 0.18403 0.52561 0.59487 0.0
H1057 H 0.18292 0.47416 0.57497 0.0
C1058 C 0.1422 0.42336 0.58666 0.0
O1059 O 0.06632 0.3992 0.56767 0.0
O1060 O 0.09818 0.43761 0.55688 0.0
N1061 N 0.14589 0.50564 0.61109 0.0
C1062 C 0.12946 0.50664 0.62236 0.0
C1063 C 0.13564 0.53203 0.6287 0.0
C1064 C 0.15913 0.55599 0.62375 0.0
C1065 C 0.17584 0.55446 0.61219 0.0
C1066 C 0.16837 0.52866 0.60612 0.0
H1067 H 0.11196 0.48817 0.62659 0.0
O1068 O 0.07601 0.45242 0.5818 0.0
O1069 O 0.11995 0.46845 0.58656 0.0
O1070 O 0.08397 0.41671 0.60224 0.0
O1071 O 0.11715 0.44949 0.61705 0.0
C1072 C 0.1998 0.57747 0.60659 0.0
C1073 C 0.21516 0.57447 0.59462 0.0
H1074 H 0.23948 0.56057 0.57157 0.0
H1075 H 0.22339 0.51304 0.56262 0.0
H1076 H 0.12268 0.53307 0.63763 0.0
H1077 H 0.16422 0.57545 0.62894 0.0
H1078 H 0.20646 0.59766 0.61129 0.0
H1079 H 0.23322 0.59238 0.5902 0.0
Mn1080 Mn 0.37209 0.43847 0.58195 0.0
Mn1081 Mn 0.36547 0.4875 0.60011 0.0
C1082 C 0.411 0.48032 0.58688 0.0
C1083 C 0.36994 0.41717 0.55826 0.0
C1084 C 0.36088 0.43746 0.61636 0.0
O1085 O 0.33095 0.42489 0.58132 0.0
O1086 O 0.33126 0.46348 0.58853 0.0
C1087 C 0.36257 0.51803 0.5729 0.0
N1088 N 0.3748 0.51762 0.58646 0.0
C1089 C 0.40865 0.56527 0.58389 0.0
C1090 C 0.39624 0.5663 0.56999 0.0
C1091 C 0.3731 0.54256 0.56447 0.0
C1092 C 0.39705 0.54032 0.59188 0.0
H1093 H 0.34502 0.49974 0.56851 0.0
C1094 C 0.31924 0.4391 0.58307 0.0
O1095 O 0.36653 0.40437 0.57137 0.0
O1096 O 0.37424 0.44193 0.559 0.0
N1097 N 0.39734 0.51228 0.61165 0.0
C1098 C 0.40739 0.50771 0.62503 0.0
C1099 C 0.43071 0.52933 0.63199 0.0
C1100 C 0.44342 0.5554 0.62514 0.0
C1101 C 0.43243 0.55966 0.61152 0.0
C1102 C 0.40882 0.53754 0.6053 0.0
H1103 H 0.3978 0.48774 0.63036 0.0
O1104 O 0.41317 0.45915 0.58331 0.0
O1105 O 0.38627 0.47642 0.58686 0.0
O1106 O 0.36932 0.42875 0.60514 0.0
O1107 O 0.35632 0.45746 0.61515 0.0
C1108 C 0.44451 0.58481 0.60361 0.0
C1109 C 0.43259 0.58776 0.58987 0.0
H1110 H 0.40451 0.5851 0.56336 0.0
H1111 H 0.36354 0.54312 0.55368 0.0
H1112 H 0.439 0.52584 0.64252 0.0
H1113 H 0.46173 0.57191 0.63035 0.0
H1114 H 0.4635 0.60163 0.60774 0.0
H1115 H 0.44236 0.60721 0.58383 0.0
Mn1116 Mn 0.62 0.96626 0.58001 0.0
Mn1117 Mn 0.57527 0.90878 0.59905 0.0
C1118 C 0.57725 0.95994 0.58653 0.0
C1119 C 0.63906 0.98728 0.55622 0.0
C1120 C 0.62344 0.95751 0.61464 0.0
O1121 O 0.63693 0.94174 0.57807 0.0
O1122 O 0.60232 0.90262 0.58773 0.0
C1123 C 0.54787 0.87253 0.57217 0.0
N1124 N 0.54635 0.88403 0.58576 0.0
C1125 C 0.49729 0.8563 0.5862 0.0
C1126 C 0.49827 0.84396 0.57226 0.0
C1127 C 0.52367 0.85231 0.56513 0.0
C1128 C 0.52203 0.87667 0.5925 0.0
H1129 H 0.56739 0.87867 0.5668 0.0
C1130 C 0.62544 0.91621 0.58093 0.0
O1131 O 0.65226 0.99685 0.5692 0.0
O1132 O 0.61511 0.96551 0.55712 0.0
N1133 N 0.54738 0.91088 0.61054 0.0
C1134 C 0.54991 0.92631 0.62328 0.0
C1135 C 0.52632 0.92137 0.63146 0.0
C1136 C 0.50051 0.90016 0.62671 0.0
C1137 C 0.49844 0.8845 0.61358 0.0
C1138 C 0.52259 0.89074 0.60572 0.0
H1139 H 0.56977 0.94209 0.62724 0.0
O1140 O 0.5973 0.98385 0.5827 0.0
O1141 O 0.58231 0.9398 0.58562 0.0
O1142 O 0.63149 0.97379 0.60302 0.0
O1143 O 0.60385 0.93274 0.614 0.0
C1144 C 0.47342 0.8629 0.60797 0.0
C1145 C 0.47278 0.84914 0.59415 0.0
H1146 H 0.47966 0.82816 0.56689 0.0
H1147 H 0.52461 0.84297 0.55433 0.0
H1148 H 0.52807 0.93355 0.64157 0.0
H1149 H 0.48243 0.89615 0.63321 0.0
H1150 H 0.45447 0.85686 0.61409 0.0
H1151 H 0.45333 0.83308 0.58975 0.0
Mn1152 Mn 0.09296 0.68863 0.57807 0.0
Mn1153 Mn 0.14926 0.69467 0.59509 0.0
C1154 C 0.09538 0.64942 0.58285 0.0
C1155 C 0.07279 0.69078 0.5548 0.0
C1156 C 0.10524 0.70043 0.61227 0.0
O1157 O 0.12096 0.72961 0.57702 0.0
O1158 O 0.15925 0.72867 0.58342 0.0
C1159 C 0.18091 0.69651 0.56724 0.0
N1160 N 0.16897 0.68468 0.58102 0.0
C1161 C 0.18244 0.65063 0.57822 0.0
C1162 C 0.19515 0.66261 0.56409 0.0
C1163 C 0.19435 0.68564 0.55857 0.0
C1164 C 0.16958 0.66253 0.58643 0.0
H1165 H 0.18003 0.71398 0.56287 0.0
C1166 C 0.14694 0.74092 0.57824 0.0
O1167 O 0.0642 0.69456 0.56809 0.0
O1168 O 0.09299 0.68604 0.55512 0.0
N1169 N 0.14244 0.66297 0.60669 0.0
C1170 C 0.12849 0.65334 0.6203 0.0
C1171 C 0.12693 0.63009 0.62725 0.0
C1172 C 0.13978 0.61706 0.62017 0.0
C1173 C 0.15444 0.62768 0.60633 0.0
C1174 C 0.15574 0.65119 0.6001 0.0
H1175 H 0.11853 0.66318 0.62582 0.0
O1176 O 0.07204 0.64761 0.5797 0.0
O1177 O 0.11651 0.67396 0.58245 0.0
O1178 O 0.08745 0.692 0.60137 0.0
O1179 O 0.12959 0.70457 0.61056 0.0
C1180 C 0.16709 0.61536 0.59822 0.0
C1181 C 0.18125 0.62686 0.58425 0.0
H1182 H 0.20528 0.6541 0.5573 0.0
H1183 H 0.20391 0.69487 0.54761 0.0
H1184 H 0.11564 0.62209 0.63796 0.0
H1185 H 0.138 0.59878 0.62538 0.0
H1186 H 0.16515 0.5965 0.60238 0.0
H1187 H 0.1906 0.61689 0.57807 0.0
Mn1188 Mn 0.1066 0.7035 0.76001 0.0
Mn1189 Mn 0.15108 0.68849 0.74283 0.0
C1190 C 0.15067 0.73846 0.7545 0.0
C1191 C 0.08636 0.70585 0.78322 0.0
C1192 C 0.10571 0.69164 0.72546 0.0
O1193 O 0.08771 0.6618 0.76169 0.0
O1194 O 0.12204 0.65555 0.75337 0.0
C1195 C 0.17425 0.67821 0.77118 0.0
N1196 N 0.17791 0.69199 0.75759 0.0
C1197 C 0.22682 0.71531 0.76047 0.0
C1198 C 0.22364 0.70126 0.77446 0.0
C1199 C 0.19721 0.6828 0.7799 0.0
C1200 C 0.20317 0.7104 0.75249 0.0
H1201 H 0.15397 0.6638 0.7753 0.0
C1202 C 0.09837 0.64683 0.75933 0.0
O1203 O 0.07434 0.70329 0.76993 0.0
O1204 O 0.10984 0.70694 0.78294 0.0
N1205 N 0.18074 0.71826 0.73216 0.0
C1206 C 0.18023 0.72994 0.71839 0.0
C1207 C 0.20499 0.74875 0.71127 0.0
C1208 C 0.22997 0.75477 0.71814 0.0
C1209 C 0.23 0.74229 0.73224 0.0
C1210 C 0.20469 0.72403 0.7389 0.0
H1211 H 0.1611 0.72477 0.71281 0.0
O1212 O 0.13144 0.74393 0.7577 0.0
O1213 O 0.14385 0.71284 0.75547 0.0
O1214 O 0.09735 0.70038 0.73672 0.0
O1215 O 0.12437 0.68514 0.7268 0.0
C1216 C 0.25407 0.74657 0.73972 0.0
C1217 C 0.25252 0.73355 0.75397 0.0
H1218 H 0.24133 0.70445 0.78108 0.0
H1219 H 0.19455 0.67192 0.7907 0.0
H1220 H 0.20482 0.75819 0.70036 0.0
H1221 H 0.24894 0.76871 0.71234 0.0
H1222 H 0.27389 0.7594 0.73451 0.0
H1223 H 0.27121 0.73731 0.75967 0.0
Mn1224 Mn 0.35428 0.42572 0.76391 0.0
Mn1225 Mn 0.36156 0.48229 0.74655 0.0
C1226 C 0.31559 0.42896 0.75889 0.0
C1227 C 0.35561 0.40548 0.78736 0.0
C1228 C 0.36618 0.43739 0.72962 0.0
O1229 O 0.39544 0.45309 0.76504 0.0
O1230 O 0.39549 0.49169 0.75818 0.0
C1231 C 0.36436 0.51454 0.77432 0.0
N1232 N 0.3523 0.50263 0.76058 0.0
C1233 C 0.31892 0.51699 0.76343 0.0
C1234 C 0.33117 0.52967 0.77752 0.0
C1235 C 0.35398 0.52842 0.783 0.0
C1236 C 0.33034 0.50369 0.75521 0.0
H1237 H 0.38166 0.51329 0.77867 0.0
C1238 C 0.40727 0.47906 0.76357 0.0
O1239 O 0.35935 0.39659 0.77416 0.0
O1240 O 0.35148 0.42607 0.78685 0.0
N1241 N 0.33003 0.47611 0.73499 0.0
C1242 C 0.32014 0.46219 0.72139 0.0
C1243 C 0.2971 0.46113 0.71446 0.0
C1244 C 0.28453 0.47443 0.72156 0.0
C1245 C 0.29542 0.48905 0.73538 0.0
C1246 C 0.31872 0.48986 0.74158 0.0
H1247 H 0.32963 0.45187 0.71587 0.0
O1248 O 0.31329 0.40546 0.76216 0.0
O1249 O 0.34032 0.44979 0.75929 0.0
O1250 O 0.35768 0.41982 0.74063 0.0
O1251 O 0.37068 0.46189 0.73115 0.0
C1252 C 0.28357 0.50218 0.74349 0.0
C1253 C 0.29534 0.51628 0.75745 0.0
H1254 H 0.32303 0.54015 0.78432 0.0
H1255 H 0.36341 0.53796 0.79393 0.0
H1256 H 0.28888 0.44986 0.70377 0.0
H1257 H 0.26639 0.47301 0.71636 0.0
H1258 H 0.2649 0.50071 0.73935 0.0
H1259 H 0.28574 0.52599 0.76364 0.0
Mn1260 Mn 0.63302 0.95755 0.76162 0.0
Mn1261 Mn 0.57736 0.90854 0.74343 0.0
C1262 C 0.63058 0.91611 0.75604 0.0
C1263 C 0.65241 0.97841 0.78539 0.0
C1264 C 0.62197 0.95953 0.72742 0.0
O1265 O 0.60496 0.97046 0.76287 0.0
O1266 O 0.56685 0.93162 0.7557 0.0
C1267 C 0.54465 0.87648 0.77049 0.0
N1268 N 0.55718 0.87774 0.75674 0.0
C1269 C 0.54378 0.83007 0.75833 0.0
C1270 C 0.53049 0.82818 0.77242 0.0
C1271 C 0.53095 0.85151 0.77853 0.0
C1272 C 0.55688 0.85544 0.75076 0.0
H1273 H 0.54526 0.89444 0.77532 0.0
C1274 C 0.57901 0.95586 0.76135 0.0
O1275 O 0.66143 0.99157 0.77235 0.0
O1276 O 0.63221 0.9535 0.78454 0.0
N1277 N 0.58478 0.88464 0.73123 0.0
C1278 C 0.59928 0.89004 0.71775 0.0
C1279 C 0.60112 0.86893 0.71023 0.0
C1280 C 0.58801 0.8425 0.71663 0.0
C1281 C 0.57289 0.83739 0.73038 0.0
C1282 C 0.5713 0.85906 0.73718 0.0
H1283 H 0.60942 0.91027 0.71274 0.0
O1284 O 0.65386 0.93736 0.75963 0.0
O1285 O 0.60957 0.91968 0.75642 0.0
O1286 O 0.63942 0.968 0.7385 0.0
O1287 O 0.59754 0.93929 0.7287 0.0
C1288 C 0.56004 0.81182 0.73784 0.0
C1289 C 0.54532 0.80802 0.75174 0.0
H1290 H 0.52015 0.80903 0.77874 0.0
H1291 H 0.52093 0.85028 0.78947 0.0
H1292 H 0.61278 0.87307 0.6996 0.0
H1293 H 0.58987 0.82636 0.71096 0.0
H1294 H 0.56228 0.79532 0.73322 0.0
H1295 H 0.5358 0.78825 0.75743 0.0
H1296 H 0.1205 0.31643 0.06814 0.0
H1297 H 0.10295 0.30819 0.11723 0.0
H1298 H 0.16624 0.32373 0.07337 0.0
H1299 H 0.14867 0.31479 0.12253 0.0
H1300 H 0.19673 0.26512 0.1122 0.0
H1301 H 0.16165 0.27826 0.1137 0.0
H1302 H 0.21358 0.35178 0.08771 0.0
H1303 H 0.24919 0.33883 0.08658 0.0
C1304 C 0.12694 0.31729 0.08009 0.0
C1305 C 0.10846 0.31194 0.0923 0.0
C1306 C 0.1531 0.32152 0.08311 0.0
C1307 C 0.16095 0.31975 0.09836 0.0
C1308 C 0.14312 0.31635 0.11068 0.0
C1309 C 0.1171 0.31273 0.10767 0.0
C1310 C 0.20101 0.28456 0.1073 0.0
C1311 C 0.22553 0.30097 0.09926 0.0
C1312 C 0.18102 0.29217 0.10823 0.0
C1313 C 0.18491 0.31604 0.10081 0.0
C1314 C 0.21016 0.33335 0.09357 0.0
C1315 C 0.23051 0.32601 0.09297 0.0
H1316 H 0.71933 0.93575 0.08206 0.0
H1317 H 0.77891 0.9539 0.1182 0.0
H1318 H 0.70597 0.88721 0.08338 0.0
H1319 H 0.76582 0.90573 0.11958 0.0
H1320 H 0.7427 0.81844 0.11841 0.0
H1321 H 0.73225 0.85529 0.12309 0.0
H1322 H 0.73756 0.87134 0.07375 0.0
H1323 H 0.74825 0.83515 0.06926 0.0
C1324 C 0.72859 0.92909 0.09078 0.0
C1325 C 0.7501 0.94833 0.10002 0.0
C1326 C 0.72113 0.90142 0.09148 0.0
C1327 C 0.73507 0.89271 0.10146 0.0
C1328 C 0.75451 0.91167 0.11187 0.0
C1329 C 0.76213 0.9393 0.11105 0.0
C1330 C 0.74066 0.82933 0.10861 0.0
C1331 C 0.74638 0.82425 0.0935 0.0
C1332 C 0.73478 0.8504 0.11125 0.0
C1333 C 0.73409 0.86623 0.09879 0.0
C1334 C 0.73753 0.85935 0.08359 0.0
C1335 C 0.74387 0.83877 0.081 0.0
H1336 H 0.11631 0.84065 0.06464 0.0
H1337 H 0.1058 0.81821 0.11312 0.0
H1338 H 0.16358 0.87552 0.06953 0.0
H1339 H 0.15348 0.85367 0.11816 0.0
H1340 H 0.20907 0.95262 0.11697 0.0
H1341 H 0.17223 0.90496 0.11687 0.0
H1342 H 0.21076 0.8883 0.07832 0.0
H1343 H 0.2476 0.93621 0.07848 0.0
C1344 C 0.12445 0.84271 0.07629 0.0
C1345 C 0.10746 0.82693 0.08853 0.0
C1346 C 0.15161 0.86256 0.07908 0.0
C1347 C 0.16227 0.8674 0.09425 0.0
C1348 C 0.14578 0.85037 0.10636 0.0
C1349 C 0.1186 0.83005 0.10348 0.0
C1350 C 0.21028 0.93839 0.109 0.0
C1351 C 0.23109 0.94782 0.09781 0.0
C1352 C 0.18922 0.91108 0.10893 0.0
C1353 C 0.18846 0.89294 0.09747 0.0
C1354 C 0.21077 0.90187 0.08722 0.0
C1355 C 0.23194 0.92917 0.08738 0.0
H1356 H 0.31324 0.10332 0.89235 0.0
H1357 H 0.31012 0.11255 0.94191 0.0
H1358 H 0.32325 0.1507 0.88866 0.0
H1359 H 0.3203 0.15951 0.93838 0.0
H1360 H 0.33931 0.24344 0.93107 0.0
H1361 H 0.35121 0.20721 0.92926 0.0
H1362 H 0.29029 0.16771 0.89334 0.0
H1363 H 0.27869 0.20386 0.89519 0.0
C1364 C 0.31575 0.11586 0.90244 0.0
C1365 C 0.31093 0.10452 0.9174 0.0
C1366 C 0.32132 0.14284 0.90035 0.0
C1367 C 0.32252 0.15883 0.91323 0.0
C1368 C 0.31992 0.14797 0.92823 0.0
C1369 C 0.31394 0.12102 0.93027 0.0
C1370 C 0.32938 0.22757 0.92237 0.0
C1371 C 0.30815 0.22625 0.91326 0.0
C1372 C 0.33602 0.20679 0.92138 0.0
C1373 C 0.32153 0.18449 0.91124 0.0
C1374 C 0.30205 0.1847 0.90114 0.0
C1375 C 0.29527 0.2053 0.90224 0.0
H1376 H 0.9399 0.24911 0.92334 0.0
H1377 H 0.96532 0.20273 0.89503 0.0
H1378 H 0.89213 0.21184 0.92142 0.0
H1379 H 0.91793 0.16591 0.89284 0.0
H1380 H 0.83723 0.11791 0.93848 0.0
H1381 H 0.87467 0.16454 0.93412 0.0
H1382 H 0.86826 0.1497 0.88465 0.0
H1383 H 0.8302 0.10296 0.88912 0.0
C1384 C 0.93508 0.23146 0.91618 0.0
C1385 C 0.95611 0.22862 0.90934 0.0
C1386 C 0.90786 0.21012 0.91515 0.0
C1387 C 0.90134 0.18596 0.90701 0.0
C1388 C 0.92223 0.18436 0.89904 0.0
C1389 C 0.94938 0.20536 0.90034 0.0
C1390 C 0.84317 0.12505 0.92666 0.0
C1391 C 0.83093 0.10713 0.91412 0.0
C1392 C 0.86449 0.15174 0.92414 0.0
C1393 C 0.87439 0.16074 0.90904 0.0
C1394 C 0.86096 0.14327 0.8964 0.0
C1395 C 0.83919 0.11667 0.89892 0.0
H1396 H 0.81859 0.74369 0.88991 0.0
H1397 H 0.83249 0.74203 0.93907 0.0
H1398 H 0.85611 0.7347 0.88446 0.0
H1399 H 0.86939 0.7326 0.93374 0.0
H1400 H 0.93632 0.71756 0.92241 0.0
H1401 H 0.88748 0.70346 0.92141 0.0
H1402 H 0.90606 0.77063 0.8903 0.0
H1403 H 0.95452 0.78472 0.89153 0.0
C1404 C 0.82884 0.74013 0.89952 0.0
C1405 C 0.82289 0.74364 0.91489 0.0
C1406 C 0.85034 0.73513 0.89642 0.0
C1407 C 0.86574 0.73309 0.90867 0.0
C1408 C 0.85775 0.73377 0.92405 0.0
C1409 C 0.83672 0.7393 0.92713 0.0
C1410 C 0.92966 0.72851 0.91488 0.0
C1411 C 0.94893 0.75218 0.90705 0.0
C1412 C 0.90183 0.72055 0.91435 0.0
C1413 C 0.893 0.73599 0.90581 0.0
C1414 C 0.91214 0.75811 0.89682 0.0
C1415 C 0.93991 0.7663 0.89758 0.0
H1416 H 0.78356 0.67188 0.41403 0.0
H1417 H 0.76236 0.60674 0.44698 0.0
H1418 H 0.83177 0.68377 0.41539 0.0
H1419 H 0.81026 0.61867 0.44856 0.0
H1420 H 0.89879 0.64491 0.44982 0.0
H1421 H 0.86081 0.65379 0.45415 0.0
H1422 H 0.84811 0.65203 0.40458 0.0
H1423 H 0.88538 0.64266 0.40039 0.0
C1424 C 0.78946 0.66094 0.42206 0.0
C1425 C 0.76948 0.63845 0.43041 0.0
C1426 C 0.81693 0.66761 0.42279 0.0
C1427 C 0.82473 0.65207 0.43204 0.0
C1428 C 0.80497 0.63122 0.44147 0.0
C1429 C 0.77754 0.62429 0.44053 0.0
C1430 C 0.88839 0.64739 0.4399 0.0
C1431 C 0.89479 0.6431 0.42479 0.0
C1432 C 0.86668 0.65236 0.44236 0.0
C1433 C 0.85154 0.65363 0.4297 0.0
C1434 C 0.8596 0.65156 0.41455 0.0
C1435 C 0.88081 0.64604 0.41214 0.0
H1436 H 0.43869 0.28341 0.45411 0.0
H1437 H 0.38029 0.26636 0.41742 0.0
H1438 H 0.42603 0.23529 0.45482 0.0
H1439 H 0.36753 0.21796 0.418 0.0
H1440 H 0.41352 0.16933 0.40333 0.0
H1441 H 0.40169 0.2046 0.40834 0.0
H1442 H 0.39191 0.18388 0.45713 0.0
H1443 H 0.40336 0.14787 0.45193 0.0
C1444 C 0.42216 0.26902 0.44673 0.0
C1445 C 0.41038 0.27837 0.43574 0.0
C1446 C 0.41484 0.24144 0.44715 0.0
C1447 C 0.396 0.22292 0.43634 0.0
C1448 C 0.38218 0.23184 0.42642 0.0
C1449 C 0.3893 0.25943 0.42615 0.0
C1450 C 0.40796 0.17174 0.41503 0.0
C1451 C 0.40945 0.15613 0.42726 0.0
C1452 C 0.40094 0.19177 0.4179 0.0
C1453 C 0.39584 0.197 0.43314 0.0
C1454 C 0.39567 0.18019 0.44528 0.0
C1455 C 0.40214 0.15963 0.44232 0.0
H1456 H 0.91187 0.27313 0.40972 0.0
H1457 H 0.87503 0.29097 0.4485 0.0
H1458 H 0.87541 0.22505 0.41053 0.0
H1459 H 0.83853 0.24322 0.44934 0.0
H1460 H 0.77268 0.15634 0.44782 0.0
H1461 H 0.8204 0.19266 0.45173 0.0
H1462 H 0.82777 0.21 0.40251 0.0
H1463 H 0.78052 0.17419 0.39874 0.0
C1464 C 0.89662 0.26642 0.41885 0.0
C1465 C 0.89616 0.28548 0.4291 0.0
C1466 C 0.87567 0.23902 0.41925 0.0
C1467 C 0.85392 0.23039 0.4299 0.0
C1468 C 0.85507 0.24908 0.44111 0.0
C1469 C 0.87591 0.27645 0.44062 0.0
C1470 C 0.78491 0.16735 0.43782 0.0
C1471 C 0.77298 0.1627 0.423 0.0
C1472 C 0.81211 0.18819 0.44005 0.0
C1473 C 0.82783 0.20429 0.42744 0.0
C1474 C 0.81643 0.19785 0.41246 0.0
C1475 C 0.78927 0.17745 0.41029 0.0
H1476 H 0.00757 0.4593 0.2598 0.0
H1477 H 0.94515 0.43777 0.22498 0.0
H1478 H 0.01953 0.50743 0.25791 0.0
H1479 H 0.95684 0.48552 0.22304 0.0
H1480 H 0.97989 0.57297 0.22208 0.0
H1481 H 0.98973 0.53556 0.21802 0.0
H1482 H 0.98879 0.52415 0.2677 0.0
H1483 H 0.97873 0.56095 0.2716 0.0
C1484 C 0.99728 0.46512 0.25127 0.0
C1485 C 0.97552 0.44506 0.24252 0.0
C1486 C 0.00395 0.49255 0.25025 0.0
C1487 C 0.98897 0.50023 0.24042 0.0
C1488 C 0.96897 0.48039 0.2306 0.0
C1489 C 0.96216 0.45301 0.23175 0.0
C1490 C 0.98279 0.563 0.23207 0.0
C1491 C 0.97856 0.56962 0.24714 0.0
C1492 C 0.98827 0.54158 0.22977 0.0
C1493 C 0.99001 0.52688 0.24254 0.0
C1494 C 0.98799 0.53524 0.25763 0.0
C1495 C 0.98206 0.5562 0.25988 0.0
H1496 H 0.6036 0.58001 0.26167 0.0
H1497 H 0.62252 0.53585 0.22765 0.0
H1498 H 0.55501 0.54468 0.2604 0.0
H1499 H 0.5743 0.5008 0.22622 0.0
H1500 H 0.50119 0.44975 0.27501 0.0
H1501 H 0.53768 0.4967 0.2708 0.0
H1502 H 0.52421 0.48591 0.22127 0.0
H1503 H 0.4871 0.43871 0.22562 0.0
C1504 C 0.59712 0.56334 0.25346 0.0
C1505 C 0.61654 0.56043 0.24477 0.0
C1506 C 0.56943 0.54312 0.25277 0.0
C1507 C 0.56088 0.51993 0.24326 0.0
C1508 C 0.58014 0.51854 0.23351 0.0
C1509 C 0.60778 0.53849 0.23438 0.0
C1510 C 0.5053 0.45784 0.26328 0.0
C1511 C 0.49151 0.44081 0.25063 0.0
C1512 C 0.5261 0.48475 0.26085 0.0
C1513 C 0.53391 0.49494 0.24569 0.0
C1514 C 0.51859 0.47854 0.23307 0.0
C1515 C 0.49733 0.45166 0.23554 0.0
H1516 H 0.50319 0.07687 0.27373 0.0
H1517 H 0.49246 0.08507 0.2248 0.0
H1518 H 0.54095 0.06882 0.26796 0.0
H1519 H 0.53097 0.07776 0.21896 0.0
H1520 H 0.62918 0.12712 0.22916 0.0
H1521 H 0.58099 0.11405 0.22754 0.0
H1522 H 0.55905 0.0401 0.25318 0.0
H1523 H 0.60756 0.05298 0.25442 0.0
C1524 C 0.50834 0.07592 0.2617 0.0
C1525 C 0.49505 0.08151 0.24969 0.0
C1526 C 0.52985 0.07121 0.25838 0.0
C1527 C 0.53889 0.07273 0.24302 0.0
C1528 C 0.52428 0.07637 0.23089 0.0
C1529 C 0.50226 0.08044 0.23421 0.0
C1530 C 0.61395 0.10758 0.23392 0.0
C1531 C 0.62194 0.09106 0.24195 0.0
C1532 C 0.58637 0.1 0.23292 0.0
C1533 C 0.56633 0.07608 0.24026 0.0
C1534 C 0.57414 0.05858 0.24737 0.0
C1535 C 0.60179 0.06588 0.24804 0.0
H1536 H 0.45788 0.98595 0.73554 0.0
H1537 H 0.44019 0.97606 0.7846 0.0
H1538 H 0.50342 0.9926 0.74057 0.0
H1539 H 0.48572 0.98202 0.78969 0.0
H1540 H 0.5323 0.93133 0.7782 0.0
H1541 H 0.49788 0.94526 0.7802 0.0
H1542 H 0.55078 0.01943 0.75497 0.0
H1543 H 0.58575 0.00566 0.75333 0.0
C1544 C 0.46426 0.98634 0.74746 0.0
C1545 C 0.44577 0.98066 0.7597 0.0
C1546 C 0.49031 0.99019 0.75035 0.0
C1547 C 0.49803 0.98772 0.76552 0.0
C1548 C 0.48026 0.9841 0.77791 0.0
C1549 C 0.45434 0.98085 0.77502 0.0
C1550 C 0.53694 0.95105 0.77356 0.0
C1551 C 0.56154 0.96741 0.76558 0.0
C1552 C 0.51733 0.95913 0.77479 0.0
C1553 C 0.52168 0.98343 0.76774 0.0
C1554 C 0.54702 0.00066 0.76057 0.0
C1555 C 0.56699 0.99285 0.75967 0.0
H1556 H 0.06867 0.48447 0.77983 0.0
H1557 H 0.07998 0.50414 0.73096 0.0
H1558 H 0.0591 0.52182 0.78425 0.0
H1559 H 0.07023 0.54103 0.73528 0.0
H1560 H 0.05407 0.60737 0.7441 0.0
H1561 H 0.03921 0.5584 0.74425 0.0
H1562 H 0.095 0.57194 0.78205 0.0
H1563 H 0.10973 0.62059 0.78175 0.0
C1564 C 0.06801 0.49604 0.76996 0.0
C1565 C 0.07531 0.49165 0.75507 0.0
C1566 C 0.06268 0.51748 0.7725 0.0
C1567 C 0.06408 0.53446 0.76014 0.0
C1568 C 0.0687 0.5282 0.74503 0.0
C1569 C 0.07448 0.50716 0.74255 0.0
C1570 C 0.06208 0.59951 0.75289 0.0
C1571 C 0.08289 0.6175 0.76296 0.0
C1572 C 0.05378 0.5716 0.75291 0.0
C1573 C 0.0661 0.56136 0.76307 0.0
C1574 C 0.08488 0.57907 0.77419 0.0
C1575 C 0.0934 0.60695 0.77402 0.0
H1576 H 0.43051 0.52447 0.78149 0.0
H1577 H 0.44963 0.47258 0.75372 0.0
H1578 H 0.47892 0.55898 0.78265 0.0
H1579 H 0.49841 0.5076 0.75455 0.0
H1580 H 0.55488 0.60066 0.73524 0.0
H1581 H 0.51713 0.5548 0.74083 0.0
H1582 H 0.52876 0.57214 0.78998 0.0
H1583 H 0.56718 0.61807 0.78431 0.0
C1584 C 0.44526 0.52013 0.77607 0.0
C1585 C 0.43648 0.49601 0.76749 0.0
C1586 C 0.473 0.5398 0.77681 0.0
C1587 C 0.49242 0.53599 0.76866 0.0
C1588 C 0.48383 0.51097 0.76096 0.0
C1589 C 0.45602 0.49095 0.76053 0.0
C1590 C 0.5501 0.59419 0.74725 0.0
C1591 C 0.56381 0.61273 0.75936 0.0
C1592 C 0.52858 0.56793 0.75046 0.0
C1593 C 0.51994 0.55997 0.76584 0.0
C1594 C 0.53507 0.57779 0.77803 0.0
C1595 C 0.55708 0.60395 0.7748 0.0
H1596 H 0.65112 0.79411 0.60668 0.0
H1597 H 0.64906 0.78047 0.55728 0.0
H1598 H 0.65981 0.84036 0.60212 0.0
H1599 H 0.65745 0.82698 0.55259 0.0
H1600 H 0.60751 0.87478 0.56028 0.0
H1601 H 0.62209 0.84087 0.5585 0.0
H1602 H 0.68767 0.88784 0.59088 0.0
H1603 H 0.67294 0.92203 0.59252 0.0
C1604 C 0.65361 0.80149 0.59483 0.0
C1605 C 0.64937 0.78385 0.58233 0.0
C1606 C 0.65872 0.82803 0.5922 0.0
C1607 C 0.65912 0.83726 0.57698 0.0
C1608 C 0.65718 0.82036 0.56443 0.0
C1609 C 0.65255 0.79386 0.5671 0.0
C1610 C 0.62568 0.87836 0.56653 0.0
C1611 C 0.63913 0.90086 0.57654 0.0
C1612 C 0.63417 0.85904 0.56545 0.0
C1613 C 0.65596 0.86161 0.57462 0.0
C1614 C 0.6708 0.88535 0.5837 0.0
C1615 C 0.6625 0.90494 0.58459 0.0
H1616 H 0.19289 0.76368 0.56074 0.0
H1617 H 0.14077 0.78365 0.5877 0.0
H1618 H 0.22774 0.81199 0.55958 0.0
H1619 H 0.17614 0.83229 0.58689 0.0
H1620 H 0.26885 0.88911 0.6066 0.0
H1621 H 0.2233 0.85067 0.60099 0.0
H1622 H 0.24096 0.86193 0.55186 0.0
H1623 H 0.28653 0.90107 0.55757 0.0
C1624 C 0.1886 0.77859 0.56599 0.0
C1625 C 0.16429 0.77007 0.57435 0.0
C1626 C 0.20846 0.80625 0.56526 0.0
C1627 C 0.20464 0.82585 0.57318 0.0
C1628 C 0.1795 0.81755 0.58065 0.0
C1629 C 0.15929 0.78982 0.58108 0.0
C1630 C 0.2625 0.88402 0.59459 0.0
C1631 C 0.28092 0.89792 0.58249 0.0
C1632 C 0.23644 0.86213 0.59137 0.0
C1633 C 0.22864 0.85333 0.57599 0.0
C1634 C 0.24648 0.86842 0.56381 0.0
C1635 C 0.27242 0.89078 0.56704 0.0
H1636 H 0.27691 0.38977 0.59239 0.0
H1637 H 0.29589 0.46192 0.56577 0.0
H1638 H 0.2279 0.37506 0.59092 0.0
H1639 H 0.24724 0.44697 0.56389 0.0
H1640 H 0.15828 0.41303 0.55891 0.0
H1641 H 0.19845 0.4078 0.55474 0.0
H1642 H 0.20657 0.40264 0.60431 0.0
H1643 H 0.16702 0.40859 0.60844 0.0
C1644 C 0.27048 0.40189 0.58574 0.0
C1645 C 0.29001 0.42698 0.57923 0.0
C1646 C 0.24255 0.39353 0.58493 0.0
C1647 C 0.23383 0.40983 0.57723 0.0
C1648 C 0.25333 0.43381 0.5697 0.0
C1649 C 0.28117 0.44247 0.57085 0.0
C1650 C 0.16795 0.40955 0.56884 0.0
C1651 C 0.15969 0.41123 0.58399 0.0
C1652 C 0.19099 0.40674 0.56647 0.0
C1653 C 0.20562 0.40493 0.57921 0.0
C1654 C 0.19553 0.40372 0.59428 0.0
C1655 C 0.17295 0.40717 0.59665 0.0
H1656 H 0.02469 0.29152 0.14679 0.0
H1657 H 0.0205 0.35828 0.12495 0.0
H1658 H 0.01671 0.30585 0.1721 0.0
H1659 H 0.01254 0.3726 0.15029 0.0
H1660 H 0.95763 0.35953 0.19361 0.0
H1661 H 0.97297 0.35157 0.16871 0.0
H1662 H 0.03673 0.34395 0.1919 0.0
H1663 H 0.02134 0.35201 0.21697 0.0
C1664 C 0.02241 0.30945 0.14741 0.0
C1665 C 0.02304 0.32366 0.13385 0.0
C1666 C 0.01799 0.31775 0.16193 0.0
C1667 C 0.01385 0.34027 0.16318 0.0
C1668 C 0.01538 0.35499 0.14967 0.0
C1669 C 0.02006 0.34686 0.13517 0.0
C1670 C 0.97509 0.35641 0.19341 0.0
C1671 C 0.98821 0.3563 0.20727 0.0
C1672 C 0.98399 0.35203 0.17912 0.0
C1673 C 0.00606 0.34713 0.17833 0.0
C1674 C 0.01954 0.3475 0.19216 0.0
C1675 C 0.01083 0.35224 0.20649 0.0
H1676 H 0.76317 0.75873 0.14647 0.0
H1677 H 0.69677 0.68714 0.12487 0.0
H1678 H 0.74901 0.73697 0.17185 0.0
H1679 H 0.68256 0.66528 0.15039 0.0
H1680 H 0.69837 0.62561 0.19425 0.0
H1681 H 0.70423 0.64759 0.16907 0.0
H1682 H 0.71133 0.71922 0.19165 0.0
H1683 H 0.70543 0.69714 0.21699 0.0
C1684 C 0.74532 0.73846 0.14717 0.0
C1685 C 0.7312 0.72456 0.13366 0.0
C1686 C 0.7371 0.72607 0.16173 0.0
C1687 C 0.71473 0.69938 0.16312 0.0
C1688 C 0.70002 0.6858 0.14966 0.0
C1689 C 0.70807 0.69834 0.13507 0.0
C1690 C 0.70089 0.64594 0.19386 0.0
C1691 C 0.70163 0.65973 0.20762 0.0
C1692 C 0.70404 0.65844 0.17941 0.0
C1693 C 0.70828 0.68514 0.17837 0.0
C1694 C 0.70828 0.69869 0.19211 0.0
C1695 C 0.70481 0.68603 0.20659 0.0
H1696 H 0.29626 0.03451 0.14914 0.0
H1697 H 0.36834 0.04388 0.12587 0.0
H1698 H 0.3198 0.04349 0.17405 0.0
H1699 H 0.39199 0.053 0.15091 0.0
H1700 H 0.36186 0.0372 0.21758 0.0
H1701 H 0.33948 0.02291 0.19229 0.0
H1702 H 0.40892 0.09162 0.17067 0.0
H1703 H 0.43136 0.106 0.19598 0.0
C1704 C 0.31707 0.03825 0.14936 0.0
C1705 C 0.33048 0.03855 0.13555 0.0
C1706 C 0.33049 0.04325 0.16364 0.0
C1707 C 0.35773 0.04897 0.16442 0.0
C1708 C 0.37104 0.04883 0.15064 0.0
C1709 C 0.35746 0.04347 0.13633 0.0
C1710 C 0.37249 0.04911 0.20741 0.0
C1711 C 0.39831 0.07282 0.20878 0.0
C1712 C 0.35961 0.04098 0.19295 0.0
C1713 C 0.37241 0.05621 0.17953 0.0
C1714 C 0.39866 0.07936 0.1808 0.0
C1715 C 0.41143 0.08767 0.1953 0.0
H1716 H 0.2974 0.02532 0.86344 0.0
H1717 H 0.36083 0.0161 0.88588 0.0
H1718 H 0.31252 0.0184 0.8382 0.0
H1719 H 0.37599 0.00908 0.86047 0.0
H1720 H 0.36188 0.9573 0.81473 0.0
H1721 H 0.35488 0.97135 0.84038 0.0
H1722 H 0.35196 0.03956 0.81967 0.0
H1723 H 0.35893 0.02554 0.79402 0.0
C1724 C 0.3148 0.02213 0.86296 0.0
C1725 C 0.32786 0.02115 0.87665 0.0
C1726 C 0.32356 0.01832 0.84848 0.0
C1727 C 0.34541 0.01315 0.84735 0.0
C1728 C 0.35896 0.01284 0.86101 0.0
C1729 C 0.35039 0.01701 0.87552 0.0
C1730 C 0.36007 0.97548 0.81568 0.0
C1731 C 0.36075 0.99019 0.80234 0.0
C1732 C 0.35624 0.98362 0.83038 0.0
C1733 C 0.35275 0.00649 0.83203 0.0
C1734 C 0.35433 0.0217 0.81874 0.0
C1735 C 0.35842 0.01372 0.80406 0.0
H1736 H 0.03387 0.3608 0.79175 0.0
H1737 H 0.09962 0.43274 0.81349 0.0
H1738 H 0.01952 0.33889 0.8172 0.0
H1739 H 0.08525 0.41084 0.83887 0.0
H1740 H 0.0402 0.36986 0.8838 0.0
H1741 H 0.0468 0.39237 0.85853 0.0
H1742 H 0.04152 0.32156 0.83589 0.0
H1743 H 0.03504 0.29921 0.861 0.0
C1744 C 0.04503 0.37207 0.80196 0.0
C1745 C 0.06799 0.39842 0.8006 0.0
C1746 C 0.03688 0.35949 0.81652 0.0
C1747 C 0.05133 0.37311 0.83002 0.0
C1748 C 0.07356 0.39991 0.82871 0.0
C1749 C 0.08188 0.41238 0.81415 0.0
C1750 C 0.0401 0.35901 0.8734 0.0
C1751 C 0.03725 0.33285 0.87439 0.0
C1752 C 0.044 0.37193 0.85896 0.0
C1753 C 0.04471 0.35873 0.84523 0.0
C1754 C 0.04079 0.33215 0.84622 0.0
C1755 C 0.03726 0.31942 0.86063 0.0
H1756 H 0.69865 0.70624 0.79106 0.0
H1757 H 0.62701 0.70077 0.81275 0.0
H1758 H 0.72113 0.7152 0.81643 0.0
H1759 H 0.64942 0.70965 0.83803 0.0
H1760 H 0.68974 0.70399 0.88284 0.0
H1761 H 0.66735 0.68917 0.85752 0.0
H1762 H 0.73886 0.75459 0.83534 0.0
H1763 H 0.76121 0.76944 0.86059 0.0
C1764 C 0.6876 0.70665 0.80125 0.0
C1765 C 0.66111 0.70292 0.7999 0.0
C1766 C 0.70052 0.71191 0.81575 0.0
C1767 C 0.68706 0.71319 0.82921 0.0
C1768 C 0.66023 0.70855 0.8279 0.0
C1769 C 0.64746 0.70362 0.8134 0.0
C1770 C 0.70076 0.71504 0.87254 0.0
C1771 C 0.72718 0.73797 0.87372 0.0
C1772 C 0.6879 0.70663 0.85806 0.0
C1773 C 0.70134 0.72075 0.84446 0.0
C1774 C 0.72809 0.74314 0.8456 0.0
C1775 C 0.74081 0.75174 0.86008 0.0
H1776 H 0.03681 0.77277 0.85765 0.0
H1777 H 0.0384 0.70507 0.88006 0.0
H1778 H 0.04542 0.75828 0.83264 0.0
H1779 H 0.04692 0.69045 0.85492 0.0
H1780 H 0.10335 0.70291 0.81236 0.0
H1781 H 0.08676 0.71016 0.83699 0.0
H1782 H 0.0261 0.72136 0.81265 0.0
H1783 H 0.04286 0.71415 0.78783 0.0
C1784 C 0.03868 0.75459 0.85721 0.0
C1785 C 0.03714 0.74018 0.87086 0.0
C1786 C 0.04342 0.74617 0.84284 0.0
C1787 C 0.04694 0.72327 0.84179 0.0
C1788 C 0.04455 0.70834 0.85538 0.0
C1789 C 0.03956 0.71663 0.86976 0.0
C1790 C 0.0863 0.70667 0.81223 0.0
C1791 C 0.07453 0.70814 0.79813 0.0
C1792 C 0.07665 0.71062 0.82638 0.0
C1793 C 0.05513 0.71635 0.82679 0.0
C1794 C 0.04287 0.71718 0.8127 0.0
C1795 C 0.05238 0.71295 0.7985 0.0
H1796 H 0.34967 0.35473 0.79259 0.0
H1797 H 0.35907 0.42651 0.8162 0.0
H1798 H 0.34293 0.33167 0.81771 0.0
H1799 H 0.35234 0.40362 0.8411 0.0
H1800 H 0.35645 0.36205 0.88499 0.0
H1801 H 0.372 0.38439 0.8597 0.0
H1802 H 0.30524 0.31414 0.83736 0.0
H1803 H 0.28979 0.29184 0.86253 0.0
C1804 C 0.35071 0.36571 0.80313 0.0
C1805 C 0.3547 0.39234 0.80242 0.0
C1806 C 0.34672 0.35248 0.81749 0.0
C1807 C 0.34703 0.3658 0.8314 0.0
C1808 C 0.35226 0.39288 0.83065 0.0
C1809 C 0.35592 0.40592 0.81635 0.0
C1810 C 0.34532 0.35126 0.87465 0.0
C1811 C 0.32176 0.32529 0.87577 0.0
C1812 C 0.35417 0.36408 0.86018 0.0
C1813 C 0.3398 0.35106 0.84653 0.0
C1814 C 0.31693 0.3246 0.84762 0.0
C1815 C 0.30796 0.31192 0.86207 0.0
H1816 H 0.69247 0.02143 0.88359 0.0
H1817 H 0.76435 0.02819 0.86149 0.0
H1818 H 0.67051 0.01446 0.85812 0.0
H1819 H 0.74252 0.02127 0.83618 0.0
H1820 H 0.70208 0.02432 0.79121 0.0
H1821 H 0.72419 0.04078 0.81655 0.0
H1822 H 0.65302 0.97571 0.83919 0.0
H1823 H 0.63107 0.95935 0.81404 0.0
C1824 C 0.70373 0.02186 0.8733 0.0
C1825 C 0.73004 0.02514 0.87456 0.0
C1826 C 0.69113 0.01775 0.85873 0.0
C1827 C 0.70474 0.01722 0.84513 0.0
C1828 C 0.73156 0.02183 0.84639 0.0
C1829 C 0.744 0.0256 0.86092 0.0
C1830 C 0.69105 0.01381 0.80163 0.0
C1831 C 0.66493 0.99042 0.80062 0.0
C1832 C 0.70374 0.02315 0.81612 0.0
C1833 C 0.69037 0.00951 0.82988 0.0
C1834 C 0.66377 0.98686 0.82885 0.0
C1835 C 0.65128 0.97736 0.81441 0.0
H1836 H 0.7698 0.03363 0.14809 0.0
H1837 H 0.70703 0.04206 0.12421 0.0
H1838 H 0.75307 0.03997 0.17292 0.0
H1839 H 0.69018 0.04837 0.14922 0.0
H1840 H 0.70195 0.10079 0.19401 0.0
H1841 H 0.70956 0.0858 0.16893 0.0
H1842 H 0.71352 0.01933 0.19128 0.0
H1843 H 0.70593 0.03446 0.21656 0.0
C1844 C 0.75223 0.03658 0.14815 0.0
C1845 C 0.73987 0.03758 0.13417 0.0
C1846 C 0.7425 0.03997 0.16241 0.0
C1847 C 0.72031 0.04466 0.16305 0.0
C1848 C 0.70744 0.04495 0.14909 0.0
C1849 C 0.71703 0.04128 0.13478 0.0
C1850 C 0.70408 0.08275 0.19358 0.0
C1851 C 0.70359 0.06893 0.20728 0.0
C1852 C 0.70824 0.07404 0.17917 0.0
C1853 C 0.71224 0.05145 0.17812 0.0
C1854 C 0.71072 0.03697 0.19176 0.0
C1855 C 0.70626 0.04553 0.2062 0.0
H1856 H 0.01772 0.69398 0.12235 0.0
H1857 H 0.02389 0.76583 0.14416 0.0
H1858 H 0.01178 0.67265 0.1479 0.0
H1859 H 0.018 0.74456 0.1696 0.0
H1860 H 0.02674 0.70635 0.2143 0.0
H1861 H 0.04014 0.72779 0.18863 0.0
H1862 H 0.97423 0.65497 0.16775 0.0
H1863 H 0.96086 0.63364 0.19328 0.0
C1864 C 0.01811 0.70533 0.1326 0.0
C1865 C 0.02111 0.73152 0.13123 0.0
C1866 C 0.0146 0.69307 0.14721 0.0
C1867 C 0.01438 0.7069 0.16077 0.0
C1868 C 0.01835 0.73348 0.15941 0.0
C1869 C 0.02154 0.74559 0.14481 0.0
C1870 C 0.01538 0.69481 0.2042 0.0
C1871 C 0.99266 0.66837 0.20583 0.0
C1872 C 0.02295 0.70713 0.18952 0.0
C1873 C 0.00818 0.6931 0.17617 0.0
C1874 C 0.98618 0.66624 0.17777 0.0
C1875 C 0.97842 0.65408 0.19243 0.0
H1876 H 0.29403 0.29122 0.14906 0.0
H1877 H 0.36457 0.3582 0.12708 0.0
H1878 H 0.31566 0.30652 0.17437 0.0
H1879 H 0.3863 0.37366 0.15256 0.0
H1880 H 0.42758 0.36046 0.19645 0.0
H1881 H 0.40533 0.35413 0.17135 0.0
H1882 H 0.33249 0.34354 0.1942 0.0
H1883 H 0.35488 0.34984 0.2195 0.0
C1884 C 0.31403 0.30947 0.14966 0.0
C1885 C 0.32769 0.32338 0.13604 0.0
C1886 C 0.32634 0.31836 0.1642 0.0
C1887 C 0.35274 0.34125 0.1655 0.0
C1888 C 0.36602 0.35579 0.15193 0.0
C1889 C 0.35355 0.34703 0.13735 0.0
C1890 C 0.40692 0.3571 0.19615 0.0
C1891 C 0.3929 0.35543 0.20998 0.0
C1892 C 0.39424 0.35369 0.18173 0.0
C1893 C 0.36712 0.34828 0.18076 0.0
C1894 C 0.35335 0.34748 0.19458 0.0
C1895 C 0.36618 0.3512 0.20905 0.0
H1896 H 0.62328 0.69529 0.52739 0.0
H1897 H 0.69075 0.69219 0.54909 0.0
H1898 H 0.63698 0.68637 0.50215 0.0
H1899 H 0.70445 0.68327 0.52379 0.0
H1900 H 0.69003 0.62691 0.48075 0.0
H1901 H 0.68329 0.64324 0.50566 0.0
H1902 H 0.67451 0.70604 0.48215 0.0
H1903 H 0.68131 0.68966 0.4571 0.0
C1904 C 0.64122 0.69301 0.52675 0.0
C1905 C 0.65584 0.69428 0.54025 0.0
C1906 C 0.64916 0.68807 0.51227 0.0
C1907 C 0.67174 0.68403 0.51099 0.0
C1908 C 0.68682 0.68606 0.52444 0.0
C1909 C 0.67904 0.69128 0.53891 0.0
C1910 C 0.68698 0.6444 0.48088 0.0
C1911 C 0.68608 0.65692 0.46695 0.0
C1912 C 0.68328 0.65386 0.49517 0.0
C1913 C 0.67831 0.67589 0.49587 0.0
C1914 C 0.67809 0.68888 0.48196 0.0
C1915 C 0.68213 0.6796 0.46764 0.0
H1916 H 0.42595 0.09309 0.48063 0.0
H1917 H 0.36041 0.02058 0.45922 0.0
H1918 H 0.41062 0.07248 0.50619 0.0
H1919 H 0.34504 0.99987 0.48493 0.0
H1920 H 0.36012 0.96273 0.53034 0.0
H1921 H 0.36634 0.98324 0.50468 0.0
H1922 H 0.37168 0.05554 0.52532 0.0
H1923 H 0.3654 0.03493 0.55113 0.0
C1924 C 0.40806 0.07286 0.4814 0.0
C1925 C 0.3945 0.05835 0.46792 0.0
C1926 C 0.39915 0.06114 0.49606 0.0
C1927 C 0.37667 0.03455 0.49756 0.0
C1928 C 0.36256 0.02035 0.4841 0.0
C1929 C 0.37129 0.03222 0.46941 0.0
C1930 C 0.36227 0.98287 0.52941 0.0
C1931 C 0.36249 0.99733 0.54276 0.0
C1932 C 0.36563 0.99452 0.51469 0.0
C1933 C 0.36957 0.02102 0.513 0.0
C1934 C 0.36887 0.03515 0.5263 0.0
C1935 C 0.36517 0.02332 0.54105 0.0
H1936 H 0.96226 0.37003 0.48034 0.0
H1937 H 0.03343 0.37829 0.45653 0.0
H1938 H 0.9856 0.37704 0.50519 0.0
H1939 H 0.05687 0.38538 0.48151 0.0
H1940 H 0.09776 0.43625 0.52685 0.0
H1941 H 0.07505 0.42285 0.50162 0.0
H1942 H 0.00433 0.35545 0.52318 0.0
H1943 H 0.02705 0.36884 0.54847 0.0
C1944 C 0.98282 0.37311 0.48042 0.0
C1945 C 0.99604 0.37372 0.46646 0.0
C1946 C 0.99612 0.37695 0.49468 0.0
C1947 C 0.02309 0.38178 0.49531 0.0
C1948 C 0.03616 0.38188 0.48137 0.0
C1949 C 0.0227 0.3777 0.46709 0.0
C1950 C 0.07749 0.41837 0.52619 0.0
C1951 C 0.06414 0.40369 0.53967 0.0
C1952 C 0.06455 0.41062 0.51171 0.0
C1953 C 0.03786 0.38817 0.51042 0.0
C1954 C 0.02481 0.373 0.52384 0.0
C1955 C 0.03788 0.38059 0.5383 0.0
H1956 H 0.3683 0.43638 0.52954 0.0
H1957 H 0.37289 0.3708 0.5526 0.0
H1958 H 0.37429 0.42002 0.5045 0.0
H1959 H 0.37878 0.35425 0.52739 0.0
H1960 H 0.43209 0.36516 0.48343 0.0
H1961 H 0.41691 0.37305 0.50836 0.0
H1962 H 0.35393 0.38212 0.48526 0.0
H1963 H 0.36929 0.37428 0.46012 0.0
C1964 C 0.37021 0.41821 0.52924 0.0
C1965 C 0.37037 0.40502 0.54307 0.0
C1966 C 0.37344 0.40871 0.51485 0.0
C1967 C 0.37712 0.3859 0.51394 0.0
C1968 C 0.37624 0.37205 0.52773 0.0
C1969 C 0.37275 0.38143 0.54216 0.0
C1970 C 0.41482 0.36858 0.48364 0.0
C1971 C 0.40203 0.36932 0.46977 0.0
C1972 C 0.40597 0.37286 0.49797 0.0
C1973 C 0.38422 0.37822 0.49881 0.0
C1974 C 0.37088 0.37823 0.48497 0.0
C1975 C 0.3796 0.37366 0.4706 0.0
H1976 H 0.61992 0.9667 0.52741 0.0
H1977 H 0.68294 0.03845 0.55074 0.0
H1978 H 0.63555 0.98969 0.50244 0.0
H1979 H 0.69862 0.06157 0.52561 0.0
H1980 H 0.68724 0.10145 0.48022 0.0
H1981 H 0.67887 0.07926 0.50557 0.0
H1982 H 0.6752 0.00831 0.48411 0.0
H1983 H 0.68357 0.03051 0.4587 0.0
C1984 C 0.63729 0.98732 0.52719 0.0
C1985 C 0.65012 0.0008 0.54107 0.0
C1986 C 0.64636 0.00043 0.51286 0.0
C1987 C 0.66832 0.02746 0.51204 0.0
C1988 C 0.68153 0.0408 0.52589 0.0
C1989 C 0.67263 0.02753 0.54026 0.0
C1990 C 0.68497 0.08125 0.48093 0.0
C1991 C 0.6859 0.06767 0.46743 0.0
C1992 C 0.68033 0.0686 0.49547 0.0
C1993 C 0.67624 0.04198 0.49684 0.0
C1994 C 0.67801 0.02873 0.4834 0.0
C1995 C 0.68293 0.0415 0.46887 0.0
H1996 H 0.96048 0.62807 0.47909 0.0
H1997 H 0.03058 0.69632 0.45758 0.0
H1998 H 0.98211 0.64281 0.50448 0.0
H1999 H 0.05225 0.71112 0.48308 0.0
H2000 H 0.09401 0.69552 0.52592 0.0
H2001 H 0.07137 0.69017 0.50106 0.0
H2002 H 0.99933 0.67991 0.52475 0.0
H2003 H 0.02219 0.68534 0.54984 0.0
C2004 C 0.98035 0.64647 0.47981 0.0
C2005 C 0.99395 0.66089 0.4663 0.0
C2006 C 0.99265 0.65502 0.49439 0.0
C2007 C 0.01894 0.67805 0.49578 0.0
C2008 C 0.03207 0.69314 0.48235 0.0
C2009 C 0.01963 0.68473 0.46776 0.0
C2010 C 0.07347 0.69249 0.52586 0.0
C2011 C 0.05979 0.69065 0.53984 0.0
C2012 C 0.06057 0.68963 0.51158 0.0
C2013 C 0.03354 0.68457 0.51093 0.0
C2014 C 0.02012 0.68363 0.52491 0.0
C2015 C 0.03322 0.68686 0.53925 0.0
H2016 H 0.98829 0.30063 0.04526 0.0
H2017 H 0.07346 0.32632 0.03827 0.0
H2018 H 0.9832 0.30566 0.01734 0.0
H2019 H 0.0687 0.33198 0.01053 0.0
H2020 H 0.05424 0.3419 0.96059 0.0
H2021 H 0.05545 0.3539 0.98808 0.0
H2022 H 0.9867 0.27347 0.99716 0.0
H2023 H 0.98583 0.26137 0.96988 0.0
C2024 C 0.00623 0.3088 0.03787 0.0
C2025 C 0.03133 0.31338 0.04385 0.0
C2026 C 0.00328 0.31141 0.0219 0.0
C2027 C 0.02552 0.31908 0.01176 0.0
C2028 C 0.05127 0.32634 0.01806 0.0
C2029 C 0.05405 0.32317 0.03394 0.0
C2030 C 0.03884 0.32715 0.96838 0.0
C2031 C 0.02001 0.30065 0.96314 0.0
C2032 C 0.03962 0.33398 0.9841 0.0
C2033 C 0.02117 0.31463 0.99475 0.0
C2034 C 0.00096 0.28893 0.98921 0.0
C2035 C 0.00055 0.28193 0.97361 0.0
H2036 H 0.71523 0.75458 0.96153 0.0
H2037 H 0.78171 0.73905 0.96948 0.0
H2038 H 0.70217 0.74506 0.98902 0.0
H2039 H 0.76862 0.72915 0.99672 0.0
H2040 H 0.74123 0.78748 0.03828 0.0
H2041 H 0.73164 0.77658 0.0108 0.0
H2042 H 0.73374 0.70183 0.01779 0.0
H2043 H 0.74298 0.71273 0.04553 0.0
C2044 C 0.7262 0.74789 0.96901 0.0
C2045 C 0.74936 0.74741 0.9635 0.0
C2046 C 0.71887 0.74261 0.98472 0.0
C2047 C 0.73442 0.73643 0.99503 0.0
C2048 C 0.756 0.73348 0.98907 0.0
C2049 C 0.76358 0.73923 0.97349 0.0
C2050 C 0.73851 0.76817 0.03405 0.0
C2051 C 0.74284 0.75094 0.04394 0.0
C2052 C 0.73289 0.76184 0.01832 0.0
C2053 C 0.73208 0.73841 0.01211 0.0
C2054 C 0.73427 0.72003 0.02227 0.0
C2055 C 0.73938 0.72615 0.03813 0.0
H2056 H 0.31699 0.07139 0.97179 0.0
H2057 H 0.30789 0.99159 0.96462 0.0
H2058 H 0.32446 0.06846 0.99949 0.0
H2059 H 0.31473 0.98827 0.99254 0.0
H2060 H 0.33897 0.05863 0.04919 0.0
H2061 H 0.3521 0.06165 0.02174 0.0
H2062 H 0.27858 0.98465 0.01275 0.0
H2063 H 0.26528 0.98204 0.03994 0.0
C2064 C 0.31771 0.0537 0.9761 0.0
C2065 C 0.312 0.03176 0.96617 0.0
C2066 C 0.32204 0.05203 0.99193 0.0
C2067 C 0.32007 0.02808 0.99815 0.0
C2068 C 0.31643 0.00697 0.988 0.0
C2069 C 0.31269 0.00892 0.97206 0.0
C2070 C 0.32621 0.04194 0.04142 0.0
C2071 C 0.30111 0.02015 0.04658 0.0
C2072 C 0.33365 0.04371 0.02575 0.0
C2073 C 0.31637 0.02338 0.01514 0.0
C2074 C 0.29248 0.00043 0.02068 0.0
C2075 C 0.28478 0.99899 0.03621 0.0
H2076 H 0.05369 0.74828 0.95788 0.0
H2077 H 0.98103 0.75343 0.96647 0.0
H2078 H 0.05525 0.73799 0.98546 0.0
H2079 H 0.9823 0.74288 0.99378 0.0
H2080 H 0.07002 0.78203 0.03552 0.0
H2081 H 0.06597 0.77135 0.00783 0.0
H2082 H 0.98095 0.71032 0.01438 0.0
H2083 H 0.9853 0.72098 0.04224 0.0
C2084 C 0.0375 0.74617 0.96553 0.0
C2085 C 0.0173 0.75174 0.9601 0.0
C2086 C 0.03847 0.74046 0.98131 0.0
C2087 C 0.01894 0.73968 0.9918 0.0
C2088 C 0.99747 0.74298 0.98601 0.0
C2089 C 0.99681 0.74919 0.97037 0.0
C2090 C 0.05087 0.76542 0.03113 0.0
C2091 C 0.02806 0.75208 0.04095 0.0
C2092 C 0.04851 0.75928 0.01528 0.0
C2093 C 0.02308 0.7401 0.00889 0.0
C2094 C 0.00078 0.72522 0.01898 0.0
C2095 C 0.0033 0.7311 0.03492 0.0
H2096 H 0.26072 0.30516 0.04009 0.0
H2097 H 0.33701 0.30704 0.04866 0.0
H2098 H 0.27149 0.31245 0.0124 0.0
H2099 H 0.3475 0.31362 0.02079 0.0
H2100 H 0.31191 0.26423 0.97204 0.0
H2101 H 0.31852 0.27581 0.99966 0.0
H2102 H 0.30682 0.34462 0.99098 0.0
H2103 H 0.30099 0.33341 0.96316 0.0
C2104 C 0.28021 0.30804 0.03609 0.0
C2105 C 0.29808 0.30565 0.0465 0.0
C2106 C 0.28641 0.31228 0.02025 0.0
C2107 C 0.3103 0.31354 0.01445 0.0
C2108 C 0.32899 0.3128 0.02498 0.0
C2109 C 0.32308 0.30923 0.04092 0.0
C2110 C 0.31193 0.2825 0.97596 0.0
C2111 C 0.30621 0.29809 0.96551 0.0
C2112 C 0.31572 0.28915 0.99175 0.0
C2113 C 0.31314 0.31109 0.99746 0.0
C2114 C 0.30902 0.32768 0.98686 0.0
C2115 C 0.3059 0.32141 0.97096 0.0
H2116 H 0.79042 0.07465 0.97019 0.0
H2117 H 0.72329 0.99262 0.96318 0.0
H2118 H 0.78166 0.07016 0.99815 0.0
H2119 H 0.71491 0.98774 0.9913 0.0
H2120 H 0.75491 0.05605 0.04846 0.0
H2121 H 0.74607 0.05976 0.02089 0.0
H2122 H 0.75048 0.98706 0.011 0.0
H2123 H 0.75996 0.98375 0.03835 0.0
C2124 C 0.77305 0.0561 0.97461 0.0
C2125 C 0.75729 0.03411 0.96458 0.0
C2126 C 0.76805 0.05348 0.9906 0.0
C2127 C 0.74768 0.02856 0.99688 0.0
C2128 C 0.73069 0.00719 0.98673 0.0
C2129 C 0.73529 0.01006 0.97066 0.0
C2130 C 0.75319 0.04044 0.04045 0.0
C2131 C 0.75818 0.01964 0.04551 0.0
C2132 C 0.74825 0.04264 0.0247 0.0
C2133 C 0.74751 0.02366 0.01384 0.0
C2134 C 0.75058 0.00178 0.01913 0.0
C2135 C 0.75616 -4e-05 0.03477 0.0
H2136 H 0.72716 0.66806 0.295 0.0
H2137 H 0.64995 0.59447 0.30312 0.0
H2138 H 0.73005 0.67955 0.32273 0.0
H2139 H 0.65243 0.60619 0.33061 0.0
H2140 H 0.73851 0.64375 0.37263 0.0
H2141 H 0.73588 0.65071 0.34482 0.0
H2142 H 0.65604 0.6421 0.35125 0.0
H2143 H 0.65905 0.6358 0.37926 0.0
C2144 C 0.71031 0.65498 0.30259 0.0
C2145 C 0.68831 0.63042 0.29699 0.0
C2146 C 0.71203 0.66146 0.31844 0.0
C2147 C 0.69145 0.64378 0.3288 0.0
C2148 C 0.66841 0.62038 0.32288 0.0
C2149 C 0.66703 0.61361 0.30717 0.0
C2150 C 0.72091 0.64449 0.36818 0.0
C2151 C 0.69903 0.63936 0.37805 0.0
C2152 C 0.71942 0.64852 0.35227 0.0
C2153 C 0.69571 0.64685 0.34587 0.0
C2154 C 0.67457 0.64355 0.3559 0.0
C2155 C 0.67636 0.64015 0.37192 0.0
H2156 H 0.40526 0.11778 0.37179 0.0
H2157 H 0.40814 0.04399 0.38059 0.0
H2158 H 0.39595 0.10558 0.34443 0.0
H2159 H 0.39926 0.03185 0.35296 0.0
H2160 H 0.38109 0.08237 0.29557 0.0
H2161 H 0.36685 0.0724 0.32285 0.0
H2162 H 0.43492 0.05961 0.33205 0.0
H2163 H 0.44923 0.07003 0.30501 0.0
C2164 C 0.40285 0.0984 0.36792 0.0
C2165 C 0.40745 0.08182 0.3782 0.0
C2166 C 0.39737 0.09132 0.35228 0.0
C2167 C 0.39699 0.0678 0.34655 0.0
C2168 C 0.39941 0.05006 0.3571 0.0
C2169 C 0.40435 0.05692 0.37287 0.0
C2170 C 0.39217 0.07619 0.30331 0.0
C2171 C 0.4162 0.07692 0.29831 0.0
C2172 C 0.38415 0.07065 0.31891 0.0
C2173 C 0.39985 0.06535 0.32958 0.0
C2174 C 0.42221 0.06329 0.32409 0.0
C2175 C 0.43049 0.06934 0.30863 0.0
H2176 H 0.00188 0.39943 0.37963 0.0
H2177 H 0.93037 0.32094 0.37069 0.0
H2178 H 0.01346 0.40407 0.35186 0.0
H2179 H 0.94221 0.32516 0.34315 0.0
H2180 H 0.97215 0.33567 0.29427 0.0
H2181 H 0.97869 0.33156 0.32214 0.0
H2182 H 0.98345 0.40933 0.33028 0.0
H2183 H 0.97625 0.41303 0.30262 0.0
C2184 C 0.98935 0.38269 0.37183 0.0
C2185 C 0.9653 0.3598 0.37723 0.0
C2186 C 0.99585 0.38541 0.35596 0.0
C2187 C 0.97873 0.36497 0.34536 0.0
C2188 C 0.95597 0.34108 0.35105 0.0
C2189 C 0.94914 0.33868 0.3668 0.0
C2190 C 0.97567 0.35233 0.30196 0.0
C2191 C 0.97376 0.37469 0.29634 0.0
C2192 C 0.97922 0.3499 0.31789 0.0
C2193 C 0.98155 0.37012 0.32836 0.0
C2194 C 0.98205 0.39359 0.32248 0.0
C2195 C 0.97786 0.3957 0.30666 0.0
H2196 H 0.73495 0.11184 0.37217 0.0
H2197 H 0.64826 0.05731 0.37782 0.0
H2198 H 0.73109 0.10092 0.3445 0.0
H2199 H 0.64413 0.04633 0.35003 0.0
H2200 H 0.65014 0.0902 0.30165 0.0
H2201 H 0.64956 0.07981 0.32914 0.0
H2202 H 0.71829 0.06716 0.32226 0.0
H2203 H 0.71867 0.0774 0.29452 0.0
C2204 C 0.71531 0.09646 0.36758 0.0
C2205 C 0.69197 0.08506 0.37707 0.0
C2206 C 0.71304 0.09021 0.35173 0.0
C2207 C 0.68726 0.0729 0.34505 0.0
C2208 C 0.66424 0.0598 0.35484 0.0
C2209 C 0.66661 0.06582 0.37075 0.0
C2210 C 0.66459 0.08438 0.30591 0.0
C2211 C 0.68452 0.08474 0.29598 0.0
C2212 C 0.66416 0.07824 0.32166 0.0
C2213 C 0.68396 0.07275 0.3279 0.0
C2214 C 0.70283 0.07138 0.31777 0.0
C2215 C 0.70293 0.07707 0.3019 0.0
H2216 H 0.93586 0.64976 0.36963 0.0
H2217 H 0.00973 0.64731 0.379 0.0
H2218 H 0.94906 0.66013 0.34241 0.0
H2219 H 0.02279 0.65711 0.35152 0.0
H2220 H 0.97741 0.68113 0.29412 0.0
H2221 H 0.98448 0.69201 0.32195 0.0
H2222 H 0.99573 0.62258 0.32942 0.0
H2223 H 0.98807 0.6115 0.30181 0.0
C2224 C 0.95542 0.65243 0.36592 0.0
C2225 C 0.97184 0.64784 0.37634 0.0
C2226 C 0.96305 0.65847 0.35036 0.0
C2227 C 0.98695 0.6594 0.34484 0.0
C2228 C 0.00432 0.65661 0.3555 0.0
C2229 C 0.99695 0.65116 0.3712 0.0
C2230 C 0.98264 0.66902 0.30164 0.0
C2231 C 0.98232 0.64557 0.29591 0.0
C2232 C 0.98648 0.6751 0.31755 0.0
C2233 C 0.99057 0.65809 0.32784 0.0
C2234 C 0.99295 0.63625 0.32177 0.0
C2235 C 0.98854 0.62986 0.30597 0.0
H2236 H 0.41703 0.38578 0.38299 0.0
H2237 H 0.41853 0.31108 0.37474 0.0
H2238 H 0.40975 0.38903 0.35514 0.0
H2239 H 0.41071 0.31399 0.34709 0.0
H2240 H 0.45623 0.40226 0.30579 0.0
H2241 H 0.44579 0.39781 0.33355 0.0
H2242 H 0.37854 0.31588 0.32595 0.0
H2243 H 0.38871 0.32073 0.29798 0.0
C2244 C 0.41476 0.36954 0.37532 0.0
C2245 C 0.4184 0.34821 0.38099 0.0
C2246 C 0.41076 0.37148 0.3594 0.0
C2247 C 0.40968 0.35177 0.34896 0.0
C2248 C 0.41114 0.32931 0.35486 0.0
C2249 C 0.41574 0.32771 0.37068 0.0
C2250 C 0.43853 0.38376 0.31 0.0
C2251 C 0.42307 0.36194 0.29981 0.0
C2252 C 0.43252 0.3812 0.32586 0.0
C2253 C 0.41137 0.35648 0.33191 0.0
C2254 C 0.3949 0.33518 0.32157 0.0
C2255 C 0.40056 0.338 0.3056 0.0
H2256 H 0.32716 0.97682 0.71554 0.0
H2257 H 0.40887 0.99345 0.70522 0.0
H2258 H 0.32086 0.98473 0.6882 0.0
H2259 H 0.40294 0.00184 0.67811 0.0
H2260 H 0.38795 0.01384 0.62947 0.0
H2261 H 0.39193 0.02706 0.65693 0.0
H2262 H 0.31783 0.95121 0.66705 0.0
H2263 H 0.31423 0.93796 0.63984 0.0
C2264 C 0.34422 0.98357 0.70759 0.0
C2265 C 0.3685 0.98461 0.71239 0.0
C2266 C 0.34058 0.98789 0.69195 0.0
C2267 C 0.36136 0.99377 0.68102 0.0
C2268 C 0.38667 0.99767 0.68626 0.0
C2269 C 0.39008 0.99282 0.70177 0.0
C2270 C 0.37197 0.0006 0.63749 0.0
C2271 C 0.35084 0.97487 0.63263 0.0
C2272 C 0.37431 0.00808 0.65318 0.0
C2273 C 0.35524 0.99013 0.66413 0.0
C2274 C 0.33266 0.96563 0.6589 0.0
C2275 C 0.33065 0.95795 0.64333 0.0
H2276 H 0.11574 0.40509 0.70574 0.0
H2277 H 0.04732 0.41837 0.7112 0.0
H2278 H 0.1046 0.39434 0.67844 0.0
H2279 H 0.0354 0.40686 0.68374 0.0
H2280 H 0.0878 0.38098 0.62918 0.0
H2281 H 0.0768 0.36896 0.65665 0.0
H2282 H 0.05944 0.43505 0.66175 0.0
H2283 H 0.06972 0.44626 0.63442 0.0
C2284 C 0.0976 0.4046 0.70116 0.0
C2285 C 0.08244 0.41264 0.71045 0.0
C2286 C 0.09104 0.39824 0.68551 0.0
C2287 C 0.06926 0.40005 0.67877 0.0
C2288 C 0.05252 0.40562 0.68851 0.0
C2289 C 0.05911 0.41193 0.70424 0.0
C2290 C 0.08038 0.39198 0.63608 0.0
C2291 C 0.07955 0.41448 0.62981 0.0
C2292 C 0.07436 0.38535 0.65183 0.0
C2293 C 0.06762 0.40129 0.66152 0.0
C2294 C 0.06427 0.42211 0.65472 0.0
C2295 C 0.07031 0.42869 0.63904 0.0
H2296 H 0.67537 0.72774 0.7132 0.0
H2297 H 0.60447 0.64958 0.70284 0.0
H2298 H 0.68913 0.73285 0.68579 0.0
H2299 H 0.6182 0.65432 0.67567 0.0
H2300 H 0.64338 0.66635 0.62701 0.0
H2301 H 0.65201 0.66087 0.65437 0.0
H2302 H 0.66237 0.74048 0.66461 0.0
H2303 H 0.6534 0.74559 0.63749 0.0
C2304 C 0.66349 0.71112 0.7052 0.0
C2305 C 0.63891 0.68828 0.71003 0.0
C2306 C 0.67123 0.71409 0.68952 0.0
C2307 C 0.65467 0.69405 0.67856 0.0
C2308 C 0.63159 0.66997 0.68381 0.0
C2309 C 0.62364 0.66727 0.69936 0.0
C2310 C 0.64873 0.68309 0.63502 0.0
C2311 C 0.64779 0.70639 0.63025 0.0
C2312 C 0.65349 0.67992 0.65067 0.0
C2313 C 0.65774 0.70019 0.66165 0.0
C2314 C 0.65951 0.72463 0.65645 0.0
C2315 C 0.65428 0.72756 0.64093 0.0
H2316 H 0.40661 0.46534 0.70857 0.0
H2317 H 0.32907 0.39109 0.71454 0.0
H2318 H 0.40458 0.45681 0.6806 0.0
H2319 H 0.32659 0.383 0.6864 0.0
H2320 H 0.32081 0.42479 0.63768 0.0
H2321 H 0.3228 0.41688 0.66547 0.0
H2322 H 0.40016 0.42005 0.65883 0.0
H2323 H 0.39771 0.42709 0.63084 0.0
C2324 C 0.38956 0.44676 0.70393 0.0
C2325 C 0.3681 0.42877 0.71369 0.0
C2326 C 0.38841 0.44186 0.68795 0.0
C2327 C 0.36542 0.41926 0.68137 0.0
C2328 C 0.34458 0.40049 0.69122 0.0
C2329 C 0.34609 0.40502 0.7073 0.0
C2330 C 0.33772 0.42278 0.64209 0.0
C2331 C 0.35901 0.42636 0.63214 0.0
C2332 C 0.33885 0.41821 0.65796 0.0
C2333 C 0.36164 0.41786 0.66427 0.0
C2334 C 0.38232 0.4201 0.65422 0.0
C2335 C 0.38082 0.42395 0.63823 0.0
H2336 H 0.66977 0.97273 0.71261 0.0
H2337 H 0.59284 0.97068 0.70649 0.0
H2338 H 0.67861 0.98037 0.68461 0.0
H2339 H 0.60197 0.97902 0.67869 0.0
H2340 H 0.62924 0.00295 0.62923 0.0
H2341 H 0.636 0.01241 0.65724 0.0
H2342 H 0.64891 0.94372 0.66316 0.0
H2343 H 0.64139 0.93389 0.63537 0.0
C2344 C 0.65532 0.97504 0.70539 0.0
C2345 C 0.63064 0.97117 0.71168 0.0
C2346 C 0.6603 0.97923 0.68938 0.0
C2347 C 0.64098 0.9803 0.6795 0.0
C2348 C 0.61736 0.97861 0.68604 0.0
C2349 C 0.6121 0.97377 0.70193 0.0
C2350 C 0.63456 0.99058 0.63647 0.0
C2351 C 0.63498 0.96781 0.6302 0.0
C2352 C 0.63822 0.99585 0.65247 0.0
C2353 C 0.64299 0.97881 0.66235 0.0
C2354 C 0.6456 0.9574 0.65582 0.0
C2355 C 0.64128 0.95174 0.63993 0.0
H2356 H 0.09759 0.73044 0.71157 0.0
H2357 H 0.0923 0.65244 0.70348 0.0
H2358 H 0.09061 0.7342 0.6837 0.0
H2359 H 0.0845 0.65578 0.67582 0.0
H2360 H 0.13433 0.7403 0.63341 0.0
H2361 H 0.12633 0.73799 0.66144 0.0
H2362 H 0.05099 0.66139 0.65554 0.0
H2363 H 0.0586 0.66415 0.62735 0.0
C2364 C 0.09391 0.71368 0.70392 0.0
C2365 C 0.09544 0.69113 0.70962 0.0
C2366 C 0.09006 0.71589 0.68801 0.0
C2367 C 0.08693 0.69523 0.67766 0.0
C2368 C 0.08652 0.67183 0.68358 0.0
C2369 C 0.09108 0.66996 0.69937 0.0
C2370 C 0.11555 0.72353 0.63806 0.0
C2371 C 0.097 0.70249 0.62826 0.0
C2372 C 0.11095 0.72222 0.65407 0.0
C2373 C 0.08807 0.69949 0.66062 0.0
C2374 C 0.06872 0.67917 0.65074 0.0
C2375 C 0.07297 0.68085 0.63464 0.0
H2376 H 0.85876 0.0847 0.10823 0.0
H2377 H 0.83274 0.10526 0.06583 0.0
H2378 H 0.90117 0.12833 0.10768 0.0
H2379 H 0.87639 0.14763 0.06398 0.0
H2380 H 0.93885 0.23574 0.07337 0.0
H2381 H 0.89887 0.19021 0.07289 0.0
H2382 H 0.94265 0.16024 0.10055 0.0
H2383 H 0.98123 0.20659 0.1022 0.0
C2384 C 0.86276 0.09828 0.09844 0.0
C2385 C 0.84272 0.09173 0.08704 0.0
C2386 C 0.88724 0.12343 0.09802 0.0
C2387 C 0.89252 0.14241 0.08593 0.0
C2388 C 0.87298 0.13454 0.0739 0.0
C2389 C 0.84807 0.10992 0.07472 0.0
C2390 C 0.93974 0.21924 0.07927 0.0
C2391 C 0.96349 0.22429 0.0872 0.0
C2392 C 0.9169 0.19286 0.07885 0.0
C2393 C 0.91723 0.1707 0.08632 0.0
C2394 C 0.94102 0.17629 0.09467 0.0
C2395 C 0.96357 0.20285 0.09536 0.0
H2396 H 0.93803 0.72952 0.07159 0.0
H2397 H 0.97515 0.80737 0.09502 0.0
H2398 H 0.89411 0.72731 0.07212 0.0
H2399 H 0.93194 0.80726 0.0939 0.0
H2400 H 0.84591 0.7872 0.10629 0.0
H2401 H 0.8904 0.7901 0.10493 0.0
H2402 H 0.86361 0.73851 0.06395 0.0
H2403 H 0.8185 0.73382 0.06651 0.0
C2404 C 0.93693 0.74676 0.07631 0.0
C2405 C 0.96023 0.76905 0.0828 0.0
C2406 C 0.91164 0.74567 0.07652 0.0
C2407 C 0.90891 0.76711 0.08303 0.0
C2408 C 0.93269 0.78997 0.08903 0.0
C2409 C 0.95785 0.79057 0.08926 0.0
C2410 C 0.84978 0.77655 0.09703 0.0
C2411 C 0.82924 0.76096 0.08621 0.0
C2412 C 0.8754 0.77833 0.09612 0.0
C2413 C 0.8813 0.76493 0.08416 0.0
C2414 C 0.8602 0.74887 0.07352 0.0
C2415 C 0.83432 0.74641 0.07478 0.0
H2416 H 0.24985 0.07872 0.10021 0.0
H2417 H 0.32541 0.11526 0.07448 0.0
H2418 H 0.2489 0.12129 0.09865 0.0
H2419 H 0.3268 0.15882 0.07457 0.0
H2420 H 0.31849 0.23355 0.06919 0.0
H2421 H 0.31435 0.18863 0.06675 0.0
H2422 H 0.26664 0.16314 0.10921 0.0
H2423 H 0.26888 0.20729 0.1105 0.0
C2424 C 0.26584 0.0957 0.09382 0.0
C2425 C 0.28704 0.09335 0.08688 0.0
C2426 C 0.26591 0.12056 0.09335 0.0
C2427 C 0.288 0.14414 0.08664 0.0
C2428 C 0.30904 0.14141 0.07956 0.0
C2429 C 0.30842 0.11634 0.07959 0.0
C2430 C 0.30687 0.21804 0.07782 0.0
C2431 C 0.29322 0.22333 0.0897 0.0
C2432 C 0.30475 0.1923 0.07662 0.0
C2433 C 0.2899 0.17162 0.08771 0.0
C2434 C 0.27742 0.17778 0.10007 0.0
C2435 C 0.27886 0.20323 0.10095 0.0
H2436 H 0.21301 0.97001 0.90146 0.0
H2437 H 0.23569 0.94025 0.94156 0.0
H2438 H 0.16807 0.92906 0.90125 0.0
H2439 H 0.18994 0.9005 0.94266 0.0
H2440 H 0.11447 0.8189 0.93308 0.0
H2441 H 0.15887 0.85984 0.93412 0.0
H2442 H 0.12561 0.90453 0.91035 0.0
H2443 H 0.08231 0.86207 0.90741 0.0
C2444 C 0.20798 0.95477 0.91045 0.0
C2445 C 0.22733 0.95846 0.9218 0.0
C2446 C 0.18204 0.93128 0.91048 0.0
C2447 C 0.17456 0.91111 0.92211 0.0
C2448 C 0.19452 0.91491 0.93329 0.0
C2449 C 0.22078 0.93797 0.93288 0.0
C2450 C 0.11668 0.83764 0.92825 0.0
C2451 C 0.09462 0.83752 0.92065 0.0
C2452 C 0.14226 0.86143 0.92895 0.0
C2453 C 0.14649 0.88611 0.92233 0.0
C2454 C 0.12382 0.8861 0.9153 0.0
C2455 C 0.09848 0.86191 0.91408 0.0
H2456 H 0.23976 0.32488 0.93647 0.0
H2457 H 0.199 0.24928 0.91084 0.0
H2458 H 0.19836 0.32776 0.9362 0.0
H2459 H 0.15626 0.24996 0.9121 0.0
H2460 H 0.11598 0.32153 0.94147 0.0
H2461 H 0.15624 0.31645 0.94391 0.0
H2462 H 0.13331 0.26886 0.9014 0.0
H2463 H 0.09194 0.27208 0.90009 0.0
C2464 C 0.22145 0.30821 0.93134 0.0
C2465 C 0.22234 0.28637 0.92413 0.0
C2466 C 0.19746 0.30971 0.93125 0.0
C2467 C 0.17345 0.28914 0.92411 0.0
C2468 C 0.1742 0.26661 0.91747 0.0
C2469 C 0.19853 0.26561 0.91716 0.0
C2470 C 0.11962 0.30977 0.93281 0.0
C2471 C 0.10059 0.2964 0.92092 0.0
C2472 C 0.14294 0.30709 0.93403 0.0
C2473 C 0.14836 0.29192 0.92295 0.0
C2474 C 0.12972 0.27984 0.91055 0.0
C2475 C 0.10603 0.28185 0.90965 0.0
H2476 H 0.72936 0.81905 0.93432 0.0
H2477 H 0.80704 0.85795 0.91068 0.0
H2478 H 0.72893 0.86171 0.9343 0.0
H2479 H 0.80872 0.90188 0.91228 0.0
H2480 H 0.79102 0.96976 0.90051 0.0
H2481 H 0.79245 0.92736 0.90152 0.0
H2482 H 0.74203 0.90371 0.94295 0.0
H2483 H 0.73878 0.945 0.94077 0.0
C2484 C 0.74694 0.83716 0.92966 0.0
C2485 C 0.76867 0.83539 0.92296 0.0
C2486 C 0.74688 0.86188 0.92975 0.0
C2487 C 0.76882 0.88578 0.92332 0.0
C2488 C 0.7911 0.88407 0.9171 0.0
C2489 C 0.79067 0.85902 0.91659 0.0
C2490 C 0.78034 0.95534 0.9098 0.0
C2491 C 0.76548 0.96083 0.92085 0.0
C2492 C 0.78127 0.93103 0.9105 0.0
C2493 C 0.76771 0.9118 0.92247 0.0
C2494 C 0.75244 0.91743 0.93337 0.0
C2495 C 0.75083 0.94134 0.93232 0.0
H2496 H 0.5185 0.41506 0.44411 0.0
H2497 H 0.49474 0.43432 0.40052 0.0
H2498 H 0.56071 0.45867 0.44383 0.0
H2499 H 0.53847 0.47653 0.39887 0.0
H2500 H 0.60193 0.56463 0.40678 0.0
H2501 H 0.5616 0.51937 0.40646 0.0
H2502 H 0.60201 0.49092 0.43805 0.0
H2503 H 0.6407 0.53706 0.43942 0.0
C2504 C 0.52302 0.42834 0.43412 0.0
C2505 C 0.50362 0.42142 0.4223 0.0
C2506 C 0.54744 0.45354 0.43384 0.0
C2507 C 0.55342 0.47217 0.42146 0.0
C2508 C 0.53455 0.46385 0.40903 0.0
C2509 C 0.50961 0.43924 0.40972 0.0
C2510 C 0.60196 0.54849 0.41359 0.0
C2511 C 0.62483 0.55386 0.42253 0.0
C2512 C 0.57892 0.52221 0.41328 0.0
C2513 C 0.5782 0.50048 0.42187 0.0
C2514 C 0.60107 0.50652 0.43126 0.0
C2515 C 0.62375 0.53299 0.43183 0.0
H2516 H 0.64012 0.14248 0.43009 0.0
H2517 H 0.60344 0.06372 0.40769 0.0
H2518 H 0.59671 0.14193 0.42866 0.0
H2519 H 0.55935 0.06117 0.40792 0.0
H2520 H 0.48344 0.06683 0.40155 0.0
H2521 H 0.52877 0.07194 0.39924 0.0
H2522 H 0.5551 0.12477 0.4397 0.0
H2523 H 0.51037 0.1214 0.44082 0.0
C2524 C 0.62286 0.12536 0.4245 0.0
C2525 C 0.62542 0.1037 0.41841 0.0
C2526 C 0.5976 0.12454 0.42409 0.0
C2527 C 0.57392 0.10135 0.41828 0.0
C2528 C 0.57682 0.07976 0.41215 0.0
C2529 C 0.60219 0.08105 0.41213 0.0
C2530 C 0.4992 0.07978 0.40977 0.0
C2531 C 0.49392 0.09451 0.42098 0.0
C2532 C 0.5252 0.08248 0.40864 0.0
C2533 C 0.54622 0.09899 0.41922 0.0
C2534 C 0.54015 0.11264 0.43095 0.0
C2535 C 0.51439 0.11059 0.43172 0.0
H2536 H 0.99169 0.45297 0.40658 0.0
H2537 H 0.91568 0.41737 0.43182 0.0
H2538 H 0.99371 0.49671 0.4064 0.0
H2539 H 0.91507 0.46006 0.4297 0.0
H2540 H 0.93369 0.54621 0.43975 0.0
H2541 H 0.93119 0.50193 0.43928 0.0
H2542 H 0.98328 0.52737 0.39847 0.0
H2543 H 0.98777 0.57241 0.40029 0.0
C2544 C 0.9747 0.4543 0.41151 0.0
C2545 C 0.953 0.43145 0.41871 0.0
C2546 C 0.97566 0.47951 0.4113 0.0
C2547 C 0.95456 0.4826 0.41802 0.0
C2548 C 0.93218 0.45918 0.42468 0.0
C2549 C 0.93187 0.43419 0.42543 0.0
C2550 C 0.94458 0.54209 0.43074 0.0
C2551 C 0.96028 0.56225 0.41977 0.0
C2552 C 0.943 0.51653 0.43032 0.0
C2553 C 0.95663 0.51025 0.41867 0.0
C2554 C 0.97277 0.53101 0.40786 0.0
C2555 C 0.9751 0.55688 0.40868 0.0
H2556 H 0.78153 0.15961 0.27458 0.0
H2557 H 0.75841 0.18374 0.23238 0.0
H2558 H 0.82195 0.20491 0.27674 0.0
H2559 H 0.79994 0.22821 0.23343 0.0
H2560 H 0.86619 0.31341 0.24188 0.0
H2561 H 0.8231 0.27043 0.24361 0.0
H2562 H 0.86428 0.23504 0.26897 0.0
H2563 H 0.90601 0.27906 0.26881 0.0
C2564 C 0.7854 0.17472 0.26569 0.0
C2565 C 0.7666 0.16874 0.25363 0.0
C2566 C 0.8088 0.20068 0.26675 0.0
C2567 C 0.81455 0.22087 0.25534 0.0
C2568 C 0.7961 0.21397 0.24281 0.0
C2569 C 0.77232 0.18833 0.24207 0.0
C2570 C 0.86544 0.29683 0.24859 0.0
C2571 C 0.88909 0.29992 0.25579 0.0
C2572 C 0.84091 0.27172 0.24916 0.0
C2573 C 0.83981 0.24861 0.25627 0.0
C2574 C 0.86366 0.25208 0.26364 0.0
C2575 C 0.88784 0.2774 0.26348 0.0
H2576 H 0.87938 0.60576 0.23333 0.0
H2577 H 0.90527 0.6596 0.2729 0.0
H2578 H 0.83451 0.60186 0.2343 0.0
H2579 H 0.85969 0.65373 0.2752 0.0
H2580 H 0.78357 0.6596 0.26777 0.0
H2581 H 0.82796 0.66299 0.26764 0.0
H2582 H 0.7928 0.58441 0.24436 0.0
H2583 H 0.7494 0.58364 0.24256 0.0
C2584 C 0.87508 0.6163 0.24247 0.0
C2585 C 0.89532 0.63233 0.25332 0.0
C2586 C 0.84919 0.61391 0.24318 0.0
C2587 C 0.84266 0.62703 0.25502 0.0
C2588 C 0.8635 0.64356 0.2657 0.0
C2589 C 0.88968 0.64669 0.26459 0.0
C2590 C 0.78538 0.64291 0.2628 0.0
C2591 C 0.76275 0.62083 0.25567 0.0
C2592 C 0.81096 0.64467 0.26282 0.0
C2593 C 0.81465 0.62403 0.25598 0.0
C2594 C 0.79144 0.60121 0.24945 0.0
C2595 C 0.76606 0.60009 0.24889 0.0
H2596 H 0.45973 0.30264 0.2351 0.0
H2597 H 0.40844 0.27933 0.27575 0.0
H2598 H 0.46146 0.26039 0.2367 0.0
H2599 H 0.4119 0.23821 0.27842 0.0
H2600 H 0.39702 0.15262 0.26961 0.0
H2601 H 0.39744 0.19579 0.2695 0.0
H2602 H 0.47758 0.23488 0.24793 0.0
H2603 H 0.47507 0.19055 0.24638 0.0
C2604 C 0.44939 0.28863 0.24462 0.0
C2605 C 0.43463 0.29442 0.25558 0.0
C2606 C 0.45047 0.26442 0.24565 0.0
C2607 C 0.43704 0.24557 0.25781 0.0
C2608 C 0.42214 0.25164 0.26871 0.0
C2609 C 0.4204 0.27542 0.26735 0.0
C2610 C 0.41483 0.17059 0.26502 0.0
C2611 C 0.43648 0.16847 0.25853 0.0
C2612 C 0.41527 0.19557 0.26506 0.0
C2613 C 0.43761 0.21931 0.25875 0.0
C2614 C 0.45972 0.2172 0.25266 0.0
C2615 C 0.45878 0.19192 0.25218 0.0
H2616 H 0.31841 0.87357 0.76807 0.0
H2617 H 0.27633 0.90519 0.7409 0.0
H2618 H 0.27952 0.82742 0.76558 0.0
H2619 H 0.23616 0.85982 0.73963 0.0
H2620 H 0.16952 0.77568 0.73121 0.0
H2621 H 0.21367 0.81762 0.72974 0.0
H2622 H 0.23744 0.79613 0.77304 0.0
H2623 H 0.19436 0.753 0.77332 0.0
C2624 C 0.30079 0.87044 0.76139 0.0
C2625 C 0.30082 0.89257 0.75398 0.0
C2626 C 0.27811 0.844 0.76023 0.0
C2627 C 0.25431 0.83922 0.75218 0.0
C2628 C 0.25417 0.86195 0.74537 0.0
C2629 C 0.27712 0.88821 0.74625 0.0
C2630 C 0.1847 0.77976 0.74011 0.0
C2631 C 0.17886 0.76111 0.75224 0.0
C2632 C 0.2099 0.80409 0.73949 0.0
C2633 C 0.22931 0.81118 0.75152 0.0
C2634 C 0.22356 0.79177 0.76341 0.0
C2635 C 0.19872 0.76692 0.76367 0.0
H2636 H 0.27667 0.4064 0.73653 0.0
H2637 H 0.29825 0.45515 0.77817 0.0
H2638 H 0.23549 0.40988 0.7338 0.0
H2639 H 0.25608 0.45709 0.77636 0.0
H2640 H 0.18885 0.4745 0.76484 0.0
H2641 H 0.23247 0.47528 0.76441 0.0
H2642 H 0.19255 0.39539 0.7426 0.0
H2643 H 0.14999 0.39619 0.74183 0.0
C2644 C 0.27237 0.41777 0.74514 0.0
C2645 C 0.2909 0.43133 0.75722 0.0
C2646 C 0.24857 0.41953 0.74374 0.0
C2647 C 0.2422 0.43398 0.7548 0.0
C2648 C 0.26045 0.44652 0.76731 0.0
C2649 C 0.28458 0.44531 0.76844 0.0
C2650 C 0.18987 0.45777 0.75935 0.0
C2651 C 0.16634 0.43578 0.75286 0.0
C2652 C 0.21473 0.45779 0.75943 0.0
C2653 C 0.21637 0.4353 0.75353 0.0
C2654 C 0.19263 0.41342 0.74695 0.0
C2655 C 0.16803 0.41373 0.74659 0.0
H2656 H 0.66054 0.78123 0.73848 0.0
H2657 H 0.58368 0.74381 0.76297 0.0
H2658 H 0.66217 0.82496 0.73902 0.0
H2659 H 0.58342 0.78683 0.76214 0.0
H2660 H 0.65323 0.89955 0.73376 0.0
H2661 H 0.64911 0.85464 0.73098 0.0
H2662 H 0.60201 0.82853 0.7736 0.0
H2663 H 0.60443 0.87278 0.77537 0.0
C2664 C 0.64339 0.78221 0.74345 0.0
C2665 C 0.62156 0.75892 0.75025 0.0
C2666 C 0.64418 0.80736 0.74369 0.0
C2667 C 0.62295 0.80991 0.75064 0.0
C2668 C 0.6005 0.78614 0.75692 0.0
C2669 C 0.60013 0.76111 0.75701 0.0
C2670 C 0.64178 0.88394 0.74237 0.0
C2671 C 0.62835 0.88909 0.75445 0.0
C2672 C 0.63965 0.85821 0.74095 0.0
C2673 C 0.62495 0.83739 0.75198 0.0
C2674 C 0.61269 0.84337 0.76453 0.0
C2675 C 0.61421 0.86884 0.76566 0.0
H2676 H 0.53664 0.6524 0.57772 0.0
H2677 H 0.57685 0.61506 0.60149 0.0
H2678 H 0.49319 0.60957 0.57928 0.0
H2679 H 0.53451 0.5715 0.60165 0.0
H2680 H 0.45117 0.49763 0.60859 0.0
H2681 H 0.49218 0.54256 0.61062 0.0
H2682 H 0.46909 0.56742 0.56828 0.0
H2683 H 0.42708 0.52316 0.56727 0.0
C2684 C 0.53596 0.63516 0.58365 0.0
C2685 C 0.55983 0.63733 0.59003 0.0
C2686 C 0.51118 0.61025 0.58417 0.0
C2687 C 0.50997 0.58655 0.59049 0.0
C2688 C 0.53405 0.58907 0.59699 0.0
C2689 C 0.55854 0.61411 0.59682 0.0
C2690 C 0.4549 0.51299 0.59989 0.0
C2691 C 0.43571 0.50748 0.58811 0.0
C2692 C 0.47861 0.53871 0.60087 0.0
C2693 C 0.48426 0.55917 0.58968 0.0
C2694 C 0.46534 0.55286 0.57745 0.0
C2695 C 0.44128 0.52739 0.57676 0.0
H2696 H 0.41587 0.93772 0.56972 0.0
H2697 H 0.44377 0.99079 0.60962 0.0
H2698 H 0.45754 0.93509 0.56996 0.0
H2699 H 0.48424 0.98608 0.61122 0.0
H2700 H 0.52694 0.92016 0.5762 0.0
H2701 H 0.48345 0.91894 0.57904 0.0
H2702 H 0.52535 0.99685 0.60312 0.0
H2703 H 0.56729 0.99523 0.60229 0.0
C2704 C 0.43086 0.94833 0.57878 0.0
C2705 C 0.42646 0.96384 0.58991 0.0
C2706 C 0.45477 0.94666 0.57908 0.0
C2707 C 0.4747 0.95999 0.59077 0.0
C2708 C 0.47009 0.97584 0.60179 0.0
C2709 C 0.44661 0.97829 0.60109 0.0
C2710 C 0.52626 0.93599 0.58293 0.0
C2711 C 0.55016 0.957 0.58969 0.0
C2712 C 0.50147 0.93599 0.58409 0.0
C2713 C 0.50035 0.95805 0.59115 0.0
C2714 C 0.52457 0.97904 0.59791 0.0
C2715 C 0.54895 0.97833 0.59732 0.0
H2716 H 0.12089 0.63174 0.5633 0.0
H2717 H 0.07246 0.61024 0.60505 0.0
H2718 H 0.12244 0.58937 0.5649 0.0
H2719 H 0.07553 0.56879 0.60756 0.0
H2720 H 0.06198 0.48329 0.59938 0.0
H2721 H 0.06099 0.52579 0.59869 0.0
H2722 H 0.14084 0.56596 0.57684 0.0
H2723 H 0.14035 0.52252 0.57644 0.0
C2724 C 0.11101 0.61803 0.573 0.0
C2725 C 0.09728 0.62445 0.58433 0.0
C2726 C 0.11199 0.59377 0.57401 0.0
C2727 C 0.09948 0.5755 0.58651 0.0
C2728 C 0.08517 0.58192 0.59764 0.0
C2729 C 0.08365 0.60585 0.59637 0.0
C2730 C 0.07947 0.50139 0.59465 0.0
C2731 C 0.1016 0.49983 0.58837 0.0
C2732 C 0.07905 0.52593 0.59433 0.0
C2733 C 0.10087 0.54972 0.58774 0.0
C2734 C 0.12342 0.5482 0.58183 0.0
C2735 C 0.12355 0.52343 0.58192 0.0
loop_
_geom_bond_atom_site_label_1
_geom_bond_atom_site_label_2
_geom_bond_distance
_geom_bond_site_symmetry_2
_ccdc_geom_bond_type
Mn0 O5 2.095 . S
Mn0 O15 2.162 . S
Mn0 O16 2.297 . S
Mn0 O24 2.385 1_455 S
Mn0 O25 2.209 . S
Mn0 O26 2.094 . S
Mn1 O6 2.121 . S
Mn1 N8 2.257 . S
Mn1 N17 2.282 1_455 S
Mn1 O25 2.215 . S
Mn1 O27 2.117 . S
C2 O24 1.234 . S
C2 O25 1.283 1_655 S
C3 O15 1.281 . S
C3 O16 1.236 . S
C4 O26 1.240 . S
C4 O27 1.264 . S
O5 Mn0 2.095 . S
O5 C14 1.250 . S
O6 Mn1 2.121 . S
O6 C14 1.258 . S
C7 N8 1.326 . S
C7 C11 1.460 . S
C7 H13 0.929 . S
N8 Mn1 2.257 . S
N8 C7 1.326 . S
N8 C12 1.362 1_455 S
C9 C10 1.258 1_655 S
C9 C12 1.431 . S
C9 C29 1.449 . S
C10 C9 1.258 1_455 S
C10 C11 1.477 . S
C10 H30 0.931 1_455 S
C11 C7 1.460 . S
C11 C10 1.477 . S
C11 H31 0.930 . S
C12 N8 1.362 1_655 S
C12 C9 1.431 . S
C12 C22 1.476 . S
H13 C7 0.929 . S
C14 O5 1.250 . S
C14 O6 1.258 . S
O15 Mn0 2.162 . S
O15 C3 1.281 . S
O16 Mn0 2.297 . S
O16 C3 1.236 . S
N17 Mn1 2.282 1_655 S
N17 C18 1.328 . S
N17 C22 1.318 . S
C18 N17 1.328 . S
C18 C19 1.457 . S
C18 H23 0.929 . S
C19 C18 1.457 . S
C19 C20 1.291 . S
C19 H32 0.931 . S
C20 C19 1.291 . S
C20 C21 1.373 . S
C20 H33 0.929 . S
C21 C20 1.373 . S
C21 C22 1.396 . S
C21 C28 1.403 . S
C22 C12 1.476 . S
C22 N17 1.318 . S
C22 C21 1.396 . S
H23 C18 0.929 . S
O24 Mn0 2.385 1_655 S
O24 C2 1.234 . S
O25 Mn0 2.209 . S
O25 Mn1 2.215 . S
O25 C2 1.283 1_455 S
O26 Mn0 2.094 . S
O26 C4 1.240 . S
O27 Mn1 2.117 . S
O27 C4 1.264 . S
C28 C21 1.403 . S
C28 C29 1.399 . S
C28 H34 0.929 . S
C29 C9 1.449 . S
C29 C28 1.399 . S
C29 H35 0.930 . S
H30 C10 0.931 1_655 S
H31 C11 0.930 . S
H32 C19 0.931 . S
H33 C20 0.929 . S
H34 C28 0.929 . S
H35 C29 0.930 . S
Mn36 O41 2.095 . S
Mn36 O51 2.162 . S
Mn36 O52 2.297 . S
Mn36 O60 2.385 . S
Mn36 O61 2.209 . S
Mn36 O62 2.094 . S
Mn37 O42 2.121 . S
Mn37 N44 2.257 . S
Mn37 N53 2.282 . S
Mn37 O61 2.215 . S
Mn37 O63 2.117 . S
C38 O60 1.234 . S
C38 O61 1.283 . S
C39 O51 1.281 . S
C39 O52 1.236 . S
C40 O62 1.240 . S
C40 O63 1.264 . S
O41 Mn36 2.095 . S
O41 C50 1.250 . S
O42 Mn37 2.121 . S
O42 C50 1.258 . S
C43 N44 1.326 . S
C43 C47 1.460 . S
C43 H49 0.929 . S
N44 Mn37 2.257 . S
N44 C43 1.326 . S
N44 C48 1.362 . S
C45 C46 1.258 . S
C45 C48 1.431 . S
C45 C65 1.449 . S
C46 C45 1.258 . S
C46 C47 1.477 . S
C46 H66 0.931 . S
C47 C43 1.460 . S
C47 C46 1.477 . S
C47 H67 0.930 . S
C48 N44 1.362 . S
C48 C45 1.431 . S
C48 C58 1.476 . S
H49 C43 0.929 . S
C50 O41 1.250 . S
C50 O42 1.258 . S
O51 Mn36 2.162 . S
O51 C39 1.281 . S
O52 Mn36 2.297 . S
O52 C39 1.236 . S
N53 Mn37 2.282 . S
N53 C54 1.328 . S
N53 C58 1.318 . S
C54 N53 1.328 . S
C54 C55 1.457 . S
C54 H59 0.929 . S
C55 C54 1.457 . S
C55 C56 1.291 . S
C55 H68 0.931 . S
C56 C55 1.291 . S
C56 C57 1.373 . S
C56 H69 0.929 . S
C57 C56 1.373 . S
C57 C58 1.396 . S
C57 C64 1.403 . S
C58 C48 1.476 . S
C58 N53 1.318 . S
C58 C57 1.396 . S
H59 C54 0.929 . S
O60 Mn36 2.385 . S
O60 C38 1.234 . S
O61 Mn36 2.209 . S
O61 Mn37 2.215 . S
O61 C38 1.283 . S
O62 Mn36 2.094 . S
O62 C40 1.240 . S
O63 Mn37 2.117 . S
O63 C40 1.264 . S
C64 C57 1.403 . S
C64 C65 1.399 . S
C64 H70 0.929 . S
C65 C45 1.449 . S
C65 C64 1.399 . S
C65 H71 0.930 . S
H66 C46 0.931 . S
H67 C47 0.930 . S
H68 C55 0.931 . S
H69 C56 0.929 . S
H70 C64 0.929 . S
H71 C65 0.930 . S
Mn72 O77 2.095 1_545 S
Mn72 O87 2.162 . S
Mn72 O88 2.297 . S
Mn72 O96 2.385 . S
Mn72 O97 2.209 . S
Mn72 O98 2.094 . S
Mn73 O78 2.121 1_545 S
Mn73 N80 2.257 . S
Mn73 N89 2.282 . S
Mn73 O97 2.215 . S
Mn73 O99 2.117 . S
C74 O96 1.234 . S
C74 O97 1.283 . S
C75 O87 1.281 . S
C75 O88 1.236 . S
C76 O98 1.240 . S
C76 O99 1.264 . S
O77 Mn72 2.095 1_565 S
O77 C86 1.250 . S
O78 Mn73 2.121 1_565 S
O78 C86 1.258 . S
C79 N80 1.326 . S
C79 C83 1.460 . S
C79 H85 0.929 . S
N80 Mn73 2.257 . S
N80 C79 1.326 . S
N80 C84 1.362 . S
C81 C82 1.258 . S
C81 C84 1.431 . S
C81 C101 1.449 . S
C82 C81 1.258 . S
C82 C83 1.477 . S
C82 H102 0.931 . S
C83 C79 1.460 . S
C83 C82 1.477 . S
C83 H103 0.930 . S
C84 N80 1.362 . S
C84 C81 1.431 . S
C84 C94 1.476 . S
H85 C79 0.929 . S
C86 O77 1.250 . S
C86 O78 1.258 . S
O87 Mn72 2.162 . S
O87 C75 1.281 . S
O88 Mn72 2.297 . S
O88 C75 1.236 . S
N89 Mn73 2.282 . S
N89 C90 1.328 . S
N89 C94 1.318 . S
C90 N89 1.328 . S
C90 C91 1.457 . S
C90 H95 0.929 . S
C91 C90 1.457 . S
C91 C92 1.291 . S
C91 H104 0.931 . S
C92 C91 1.291 . S
C92 C93 1.373 . S
C92 H105 0.929 . S
C93 C92 1.373 . S
C93 C94 1.396 . S
C93 C100 1.403 . S
C94 C84 1.476 . S
C94 N89 1.318 . S
C94 C93 1.396 . S
H95 C90 0.929 . S
O96 Mn72 2.385 . S
O96 C74 1.234 . S
O97 Mn72 2.209 . S
O97 Mn73 2.215 . S
O97 C74 1.283 . S
O98 Mn72 2.094 . S
O98 C76 1.240 . S
O99 Mn73 2.117 . S
O99 C76 1.264 . S
C100 C93 1.403 . S
C100 C101 1.399 . S
C100 H106 0.929 . S
C101 C81 1.449 . S
C101 C100 1.399 . S
C101 H107 0.930 . S
H102 C82 0.931 . S
H103 C83 0.930 . S
H104 C91 0.931 . S
H105 C92 0.929 . S
H106 C100 0.929 . S
H107 C101 0.930 . S
Mn108 O113 2.095 . S
Mn108 O123 2.162 . S
Mn108 O124 2.297 . S
Mn108 O132 2.385 1_545 S
Mn108 O133 2.209 . S
Mn108 O134 2.094 . S
Mn109 O114 2.121 . S
Mn109 N116 2.257 . S
Mn109 N125 2.282 1_545 S
Mn109 O133 2.215 . S
Mn109 O135 2.117 . S
C110 O132 1.234 . S
C110 O133 1.283 1_565 S
C111 O123 1.281 . S
C111 O124 1.236 . S
C112 O134 1.240 . S
C112 O135 1.264 . S
O113 Mn108 2.095 . S
O113 C122 1.250 . S
O114 Mn109 2.121 . S
O114 C122 1.258 . S
C115 N116 1.326 . S
C115 C119 1.460 . S
C115 H121 0.929 . S
N116 Mn109 2.257 . S
N116 C115 1.326 . S
N116 C120 1.362 1_545 S
C117 C118 1.258 1_565 S
C117 C120 1.431 . S
C117 C137 1.449 . S
C118 C117 1.258 1_545 S
C118 C119 1.477 . S
C118 H138 0.931 1_545 S
C119 C115 1.460 . S
C119 C118 1.477 . S
C119 H139 0.930 . S
C120 N116 1.362 1_565 S
C120 C117 1.431 . S
C120 C130 1.476 . S
H121 C115 0.929 . S
C122 O113 1.250 . S
C122 O114 1.258 . S
O123 Mn108 2.162 . S
O123 C111 1.281 . S
O124 Mn108 2.297 . S
O124 C111 1.236 . S
N125 Mn109 2.282 1_565 S
N125 C126 1.328 . S
N125 C130 1.318 . S
C126 N125 1.328 . S
C126 C127 1.457 . S
C126 H131 0.929 . S
C127 C126 1.457 . S
C127 C128 1.291 . S
C127 H140 0.931 . S
C128 C127 1.291 . S
C128 C129 1.373 . S
C128 H141 0.929 . S
C129 C128 1.373 . S
C129 C130 1.396 . S
C129 C136 1.403 . S
C130 C120 1.476 . S
C130 N125 1.318 . S
C130 C129 1.396 . S
H131 C126 0.929 . S
O132 Mn108 2.385 1_565 S
O132 C110 1.234 . S
O133 Mn108 2.209 . S
O133 Mn109 2.215 . S
O133 C110 1.283 1_545 S
O134 Mn108 2.094 . S
O134 C112 1.240 . S
O135 Mn109 2.117 . S
O135 C112 1.264 . S
C136 C129 1.403 . S
C136 C137 1.399 . S
C136 H142 0.929 . S
C137 C117 1.449 . S
C137 C136 1.399 . S
C137 H143 0.930 . S
H138 C118 0.931 1_565 S
H139 C119 0.930 . S
H140 C127 0.931 . S
H141 C128 0.929 . S
H142 C136 0.929 . S
H143 C137 0.930 . S
Mn144 O149 2.095 1_455 S
Mn144 O159 2.162 . S
Mn144 O160 2.297 . S
Mn144 O168 2.385 . S
Mn144 O169 2.209 . S
Mn144 O170 2.094 . S
Mn145 O150 2.121 1_455 S
Mn145 N152 2.257 . S
Mn145 N161 2.282 . S
Mn145 O169 2.215 . S
Mn145 O171 2.117 . S
C146 O168 1.234 . S
C146 O169 1.283 . S
C147 O159 1.281 . S
C147 O160 1.236 . S
C148 O170 1.240 . S
C148 O171 1.264 . S
O149 Mn144 2.095 1_655 S
O149 C158 1.250 . S
O150 Mn145 2.121 1_655 S
O150 C158 1.258 . S
C151 N152 1.326 . S
C151 C155 1.460 . S
C151 H157 0.929 . S
N152 Mn145 2.257 . S
N152 C151 1.326 . S
N152 C156 1.362 . S
C153 C154 1.258 . S
C153 C156 1.431 . S
C153 C173 1.449 . S
C154 C153 1.258 . S
C154 C155 1.477 . S
C154 H174 0.931 . S
C155 C151 1.460 . S
C155 C154 1.477 . S
C155 H175 0.930 . S
C156 N152 1.362 . S
C156 C153 1.431 . S
C156 C166 1.476 . S
H157 C151 0.929 . S
C158 O149 1.250 . S
C158 O150 1.258 . S
O159 Mn144 2.162 . S
O159 C147 1.281 . S
O160 Mn144 2.297 . S
O160 C147 1.236 . S
N161 Mn145 2.282 . S
N161 C162 1.328 . S
N161 C166 1.318 . S
C162 N161 1.328 . S
C162 C163 1.457 . S
C162 H167 0.929 . S
C163 C162 1.457 . S
C163 C164 1.291 . S
C163 H176 0.931 . S
C164 C163 1.291 . S
C164 C165 1.373 . S
C164 H177 0.929 . S
C165 C164 1.373 . S
C165 C166 1.396 . S
C165 C172 1.403 . S
C166 C156 1.476 . S
C166 N161 1.318 . S
C166 C165 1.396 . S
H167 C162 0.929 . S
O168 Mn144 2.385 . S
O168 C146 1.234 . S
O169 Mn144 2.209 . S
O169 Mn145 2.215 . S
O169 C146 1.283 . S
O170 Mn144 2.094 . S
O170 C148 1.240 . S
O171 Mn145 2.117 . S
O171 C148 1.264 . S
C172 C165 1.403 . S
C172 C173 1.399 . S
C172 H178 0.929 . S
C173 C153 1.449 . S
C173 C172 1.399 . S
C173 H179 0.930 . S
H174 C154 0.931 . S
H175 C155 0.930 . S
H176 C163 0.931 . S
H177 C164 0.929 . S
H178 C172 0.929 . S
H179 C173 0.930 . S
Mn180 O185 2.095 . S
Mn180 O195 2.162 . S
Mn180 O196 2.297 . S
Mn180 O204 2.385 . S
Mn180 O205 2.209 . S
Mn180 O206 2.094 . S
Mn181 O186 2.121 . S
Mn181 N188 2.257 . S
Mn181 N197 2.282 . S
Mn181 O205 2.215 . S
Mn181 O207 2.117 . S
C182 O204 1.234 . S
C182 O205 1.283 . S
C183 O195 1.281 . S
C183 O196 1.236 . S
C184 O206 1.240 . S
C184 O207 1.264 . S
O185 Mn180 2.095 . S
O185 C194 1.250 . S
O186 Mn181 2.121 . S
O186 C194 1.258 . S
C187 N188 1.326 . S
C187 C191 1.460 . S
C187 H193 0.929 . S
N188 Mn181 2.257 . S
N188 C187 1.326 . S
N188 C192 1.362 . S
C189 C190 1.258 . S
C189 C192 1.431 . S
C189 C209 1.449 . S
C190 C189 1.258 . S
C190 C191 1.477 . S
C190 H210 0.931 . S
C191 C187 1.460 . S
C191 C190 1.477 . S
C191 H211 0.930 . S
C192 N188 1.362 . S
C192 C189 1.431 . S
C192 C202 1.476 . S
H193 C187 0.929 . S
C194 O185 1.250 . S
C194 O186 1.258 . S
O195 Mn180 2.162 . S
O195 C183 1.281 . S
O196 Mn180 2.297 . S
O196 C183 1.236 . S
N197 Mn181 2.282 . S
N197 C198 1.328 . S
N197 C202 1.318 . S
C198 N197 1.328 . S
C198 C199 1.457 . S
C198 H203 0.929 . S
C199 C198 1.457 . S
C199 C200 1.291 . S
C199 H212 0.931 . S
C200 C199 1.291 . S
C200 C201 1.373 . S
C200 H213 0.929 . S
C201 C200 1.373 . S
C201 C202 1.396 . S
C201 C208 1.403 . S
C202 C192 1.476 . S
C202 N197 1.318 . S
C202 C201 1.396 . S
H203 C198 0.929 . S
O204 Mn180 2.385 . S
O204 C182 1.234 . S
O205 Mn180 2.209 . S
O205 Mn181 2.215 . S
O205 C182 1.283 . S
O206 Mn180 2.094 . S
O206 C184 1.240 . S
O207 Mn181 2.117 . S
O207 C184 1.264 . S
C208 C201 1.403 . S
C208 C209 1.399 . S
C208 H214 0.929 . S
C209 C189 1.449 . S
C209 C208 1.399 . S
C209 H215 0.930 . S
H210 C190 0.931 . S
H211 C191 0.930 . S
H212 C199 0.931 . S
H213 C200 0.929 . S
H214 C208 0.929 . S
H215 C209 0.930 . S
Mn216 O221 2.095 1_455 S
Mn216 O231 2.162 . S
Mn216 O232 2.297 . S
Mn216 O240 2.385 . S
Mn216 O241 2.209 . S
Mn216 O242 2.094 . S
Mn217 O222 2.121 1_455 S
Mn217 N224 2.257 . S
Mn217 N233 2.282 . S
Mn217 O241 2.215 . S
Mn217 O243 2.117 . S
C218 O240 1.234 . S
C218 O241 1.283 . S
C219 O231 1.281 . S
C219 O232 1.236 . S
C220 O242 1.240 . S
C220 O243 1.264 . S
O221 Mn216 2.095 1_655 S
O221 C230 1.250 . S
O222 Mn217 2.121 1_655 S
O222 C230 1.258 . S
C223 N224 1.326 . S
C223 C227 1.460 . S
C223 H229 0.929 . S
N224 Mn217 2.257 . S
N224 C223 1.326 . S
N224 C228 1.362 . S
C225 C226 1.258 . S
C225 C228 1.431 . S
C225 C245 1.449 . S
C226 C225 1.258 . S
C226 C227 1.477 . S
C226 H246 0.931 . S
C227 C223 1.460 . S
C227 C226 1.477 . S
C227 H247 0.930 . S
C228 N224 1.362 . S
C228 C225 1.431 . S
C228 C238 1.476 . S
H229 C223 0.929 . S
C230 O221 1.250 . S
C230 O222 1.258 . S
O231 Mn216 2.162 . S
O231 C219 1.281 . S
O232 Mn216 2.297 . S
O232 C219 1.236 . S
N233 Mn217 2.282 . S
N233 C234 1.328 . S
N233 C238 1.318 . S
C234 N233 1.328 . S
C234 C235 1.457 . S
C234 H239 0.929 . S
C235 C234 1.457 . S
C235 C236 1.291 . S
C235 H248 0.931 . S
C236 C235 1.291 . S
C236 C237 1.373 . S
C236 H249 0.929 . S
C237 C236 1.373 . S
C237 C238 1.396 . S
C237 C244 1.403 . S
C238 C228 1.476 . S
C238 N233 1.318 . S
C238 C237 1.396 . S
H239 C234 0.929 . S
O240 Mn216 2.385 . S
O240 C218 1.234 . S
O241 Mn216 2.209 . S
O241 Mn217 2.215 . S
O241 C218 1.283 . S
O242 Mn216 2.094 . S
O242 C220 1.240 . S
O243 Mn217 2.117 . S
O243 C220 1.264 . S
C244 C237 1.403 . S
C244 C245 1.399 . S
C244 H250 0.929 . S
C245 C225 1.449 . S
C245 C244 1.399 . S
C245 H251 0.930 . S
H246 C226 0.931 . S
H247 C227 0.930 . S
H248 C235 0.931 . S
H249 C236 0.929 . S
H250 C244 0.929 . S
H251 C245 0.930 . S
Mn252 O257 2.095 . S
Mn252 O267 2.162 . S
Mn252 O268 2.297 . S
Mn252 O276 2.385 . S
Mn252 O277 2.209 . S
Mn252 O278 2.094 . S
Mn253 O258 2.121 . S
Mn253 N260 2.257 . S
Mn253 N269 2.282 . S
Mn253 O277 2.215 . S
Mn253 O279 2.117 . S
C254 O276 1.234 . S
C254 O277 1.283 . S
C255 O267 1.281 . S
C255 O268 1.236 . S
C256 O278 1.240 . S
C256 O279 1.264 . S
O257 Mn252 2.095 . S
O257 C266 1.250 . S
O258 Mn253 2.121 . S
O258 C266 1.258 . S
C259 N260 1.326 . S
C259 C263 1.460 . S
C259 H265 0.929 . S
N260 Mn253 2.257 . S
N260 C259 1.326 . S
N260 C264 1.362 . S
C261 C262 1.258 . S
C261 C264 1.431 . S
C261 C281 1.449 . S
C262 C261 1.258 . S
C262 C263 1.477 . S
C262 H282 0.931 . S
C263 C259 1.460 . S
C263 C262 1.477 . S
C263 H283 0.930 . S
C264 N260 1.362 . S
C264 C261 1.431 . S
C264 C274 1.476 . S
H265 C259 0.929 . S
C266 O257 1.250 . S
C266 O258 1.258 . S
O267 Mn252 2.162 . S
O267 C255 1.281 . S
O268 Mn252 2.297 . S
O268 C255 1.236 . S
N269 Mn253 2.282 . S
N269 C270 1.328 . S
N269 C274 1.318 . S
C270 N269 1.328 . S
C270 C271 1.457 . S
C270 H275 0.929 . S
C271 C270 1.457 . S
C271 C272 1.291 . S
C271 H284 0.931 . S
C272 C271 1.291 . S
C272 C273 1.373 . S
C272 H285 0.929 . S
C273 C272 1.373 . S
C273 C274 1.396 . S
C273 C280 1.403 . S
C274 C264 1.476 . S
C274 N269 1.318 . S
C274 C273 1.396 . S
H275 C270 0.929 . S
O276 Mn252 2.385 . S
O276 C254 1.234 . S
O277 Mn252 2.209 . S
O277 Mn253 2.215 . S
O277 C254 1.283 . S
O278 Mn252 2.094 . S
O278 C256 1.240 . S
O279 Mn253 2.117 . S
O279 C256 1.264 . S
C280 C273 1.403 . S
C280 C281 1.399 . S
C280 H286 0.929 . S
C281 C261 1.449 . S
C281 C280 1.399 . S
C281 H287 0.930 . S
H282 C262 0.931 . S
H283 C263 0.930 . S
H284 C271 0.931 . S
H285 C272 0.929 . S
H286 C280 0.929 . S
H287 C281 0.930 . S
Mn288 O293 2.095 . S
Mn288 O303 2.162 . S
Mn288 O304 2.297 . S
Mn288 O312 2.385 1_545 S
Mn288 O313 2.209 . S
Mn288 O314 2.094 . S
Mn289 O294 2.121 . S
Mn289 N296 2.257 . S
Mn289 N305 2.282 1_545 S
Mn289 O313 2.215 . S
Mn289 O315 2.117 . S
C290 O312 1.234 . S
C290 O313 1.283 1_565 S
C291 O303 1.281 . S
C291 O304 1.236 . S
C292 O314 1.240 . S
C292 O315 1.264 . S
O293 Mn288 2.095 . S
O293 C302 1.250 . S
O294 Mn289 2.121 . S
O294 C302 1.258 . S
C295 N296 1.326 . S
C295 C299 1.460 . S
C295 H301 0.929 . S
N296 Mn289 2.257 . S
N296 C295 1.326 . S
N296 C300 1.362 1_545 S
C297 C298 1.258 1_565 S
C297 C300 1.431 . S
C297 C317 1.449 . S
C298 C297 1.258 1_545 S
C298 C299 1.477 . S
C298 H318 0.931 1_545 S
C299 C295 1.460 . S
C299 C298 1.477 . S
C299 H319 0.930 . S
C300 N296 1.362 1_565 S
C300 C297 1.431 . S
C300 C310 1.476 . S
H301 C295 0.929 . S
C302 O293 1.250 . S
C302 O294 1.258 . S
O303 Mn288 2.162 . S
O303 C291 1.281 . S
O304 Mn288 2.297 . S
O304 C291 1.236 . S
N305 Mn289 2.282 1_565 S
N305 C306 1.328 . S
N305 C310 1.318 . S
C306 N305 1.328 . S
C306 C307 1.457 . S
C306 H311 0.929 . S
C307 C306 1.457 . S
C307 C308 1.291 . S
C307 H320 0.931 . S
C308 C307 1.291 . S
C308 C309 1.373 . S
C308 H321 0.929 . S
C309 C308 1.373 . S
C309 C310 1.396 . S
C309 C316 1.403 . S
C310 C300 1.476 . S
C310 N305 1.318 . S
C310 C309 1.396 . S
H311 C306 0.929 . S
O312 Mn288 2.385 1_565 S
O312 C290 1.234 . S
O313 Mn288 2.209 . S
O313 Mn289 2.215 . S
O313 C290 1.283 1_545 S
O314 Mn288 2.094 . S
O314 C292 1.240 . S
O315 Mn289 2.117 . S
O315 C292 1.264 . S
C316 C309 1.403 . S
C316 C317 1.399 . S
C316 H322 0.929 . S
C317 C297 1.449 . S
C317 C316 1.399 . S
C317 H323 0.930 . S
H318 C298 0.931 1_565 S
H319 C299 0.930 . S
H320 C307 0.931 . S
H321 C308 0.929 . S
H322 C316 0.929 . S
H323 C317 0.930 . S
Mn324 O329 2.095 1_545 S
Mn324 O339 2.162 . S
Mn324 O340 2.297 . S
Mn324 O348 2.385 . S
Mn324 O349 2.209 . S
Mn324 O350 2.094 . S
Mn325 O330 2.121 1_545 S
Mn325 N332 2.257 . S
Mn325 N341 2.282 . S
Mn325 O349 2.215 . S
Mn325 O351 2.117 . S
C326 O348 1.234 . S
C326 O349 1.283 . S
C327 O339 1.281 . S
C327 O340 1.236 . S
C328 O350 1.240 . S
C328 O351 1.264 . S
O329 Mn324 2.095 1_565 S
O329 C338 1.250 . S
O330 Mn325 2.121 1_565 S
O330 C338 1.258 . S
C331 N332 1.326 . S
C331 C335 1.460 . S
C331 H337 0.929 . S
N332 Mn325 2.257 . S
N332 C331 1.326 . S
N332 C336 1.362 . S
C333 C334 1.258 . S
C333 C336 1.431 . S
C333 C353 1.449 . S
C334 C333 1.258 . S
C334 C335 1.477 . S
C334 H354 0.931 . S
C335 C331 1.460 . S
C335 C334 1.477 . S
C335 H355 0.930 . S
C336 N332 1.362 . S
C336 C333 1.431 . S
C336 C346 1.476 . S
H337 C331 0.929 . S
C338 O329 1.250 . S
C338 O330 1.258 . S
O339 Mn324 2.162 . S
O339 C327 1.281 . S
O340 Mn324 2.297 . S
O340 C327 1.236 . S
N341 Mn325 2.282 . S
N341 C342 1.328 . S
N341 C346 1.318 . S
C342 N341 1.328 . S
C342 C343 1.457 . S
C342 H347 0.929 . S
C343 C342 1.457 . S
C343 C344 1.291 . S
C343 H356 0.931 . S
C344 C343 1.291 . S
C344 C345 1.373 . S
C344 H357 0.929 . S
C345 C344 1.373 . S
C345 C346 1.396 . S
C345 C352 1.403 . S
C346 C336 1.476 . S
C346 N341 1.318 . S
C346 C345 1.396 . S
H347 C342 0.929 . S
O348 Mn324 2.385 . S
O348 C326 1.234 . S
O349 Mn324 2.209 . S
O349 Mn325 2.215 . S
O349 C326 1.283 . S
O350 Mn324 2.094 . S
O350 C328 1.240 . S
O351 Mn325 2.117 . S
O351 C328 1.264 . S
C352 C345 1.403 . S
C352 C353 1.399 . S
C352 H358 0.929 . S
C353 C333 1.449 . S
C353 C352 1.399 . S
C353 H359 0.930 . S
H354 C334 0.931 . S
H355 C335 0.930 . S
H356 C343 0.931 . S
H357 C344 0.929 . S
H358 C352 0.929 . S
H359 C353 0.930 . S
Mn360 O365 2.095 . S
Mn360 O375 2.162 . S
Mn360 O376 2.297 . S
Mn360 O384 2.385 1_455 S
Mn360 O385 2.209 . S
Mn360 O386 2.094 . S
Mn361 O366 2.121 . S
Mn361 N368 2.257 . S
Mn361 N377 2.282 1_455 S
Mn361 O385 2.215 . S
Mn361 O387 2.117 . S
C362 O384 1.234 . S
C362 O385 1.283 1_655 S
C363 O375 1.281 . S
C363 O376 1.236 . S
C364 O386 1.240 . S
C364 O387 1.264 . S
O365 Mn360 2.095 . S
O365 C374 1.250 . S
O366 Mn361 2.121 . S
O366 C374 1.258 . S
C367 N368 1.326 . S
C367 C371 1.460 . S
C367 H373 0.929 . S
N368 Mn361 2.257 . S
N368 C367 1.326 . S
N368 C372 1.362 1_455 S
C369 C370 1.258 1_655 S
C369 C372 1.431 . S
C369 C389 1.449 . S
C370 C369 1.258 1_455 S
C370 C371 1.477 . S
C370 H390 0.931 1_455 S
C371 C367 1.460 . S
C371 C370 1.477 . S
C371 H391 0.930 . S
C372 N368 1.362 1_655 S
C372 C369 1.431 . S
C372 C382 1.476 . S
H373 C367 0.929 . S
C374 O365 1.250 . S
C374 O366 1.258 . S
O375 Mn360 2.162 . S
O375 C363 1.281 . S
O376 Mn360 2.297 . S
O376 C363 1.236 . S
N377 Mn361 2.282 1_655 S
N377 C378 1.328 . S
N377 C382 1.318 . S
C378 N377 1.328 . S
C378 C379 1.457 . S
C378 H383 0.929 . S
C379 C378 1.457 . S
C379 C380 1.291 . S
C379 H392 0.931 . S
C380 C379 1.291 . S
C380 C381 1.373 . S
C380 H393 0.929 . S
C381 C380 1.373 . S
C381 C382 1.396 . S
C381 C388 1.403 . S
C382 C372 1.476 . S
C382 N377 1.318 . S
C382 C381 1.396 . S
H383 C378 0.929 . S
O384 Mn360 2.385 1_655 S
O384 C362 1.234 . S
O385 Mn360 2.209 . S
O385 Mn361 2.215 . S
O385 C362 1.283 1_455 S
O386 Mn360 2.094 . S
O386 C364 1.240 . S
O387 Mn361 2.117 . S
O387 C364 1.264 . S
C388 C381 1.403 . S
C388 C389 1.399 . S
C388 H394 0.929 . S
C389 C369 1.449 . S
C389 C388 1.399 . S
C389 H395 0.930 . S
H390 C370 0.931 1_655 S
H391 C371 0.930 . S
H392 C379 0.931 . S
H393 C380 0.929 . S
H394 C388 0.929 . S
H395 C389 0.930 . S
Mn396 O401 2.095 . S
Mn396 O411 2.162 . S
Mn396 O412 2.297 . S
Mn396 O420 2.385 . S
Mn396 O421 2.209 . S
Mn396 O422 2.094 . S
Mn397 O402 2.121 . S
Mn397 N404 2.257 . S
Mn397 N413 2.282 . S
Mn397 O421 2.215 . S
Mn397 O423 2.117 . S
C398 O420 1.234 . S
C398 O421 1.283 . S
C399 O411 1.281 . S
C399 O412 1.236 . S
C400 O422 1.240 . S
C400 O423 1.264 . S
O401 Mn396 2.095 . S
O401 C410 1.250 . S
O402 Mn397 2.121 . S
O402 C410 1.258 . S
C403 N404 1.326 . S
C403 C407 1.460 . S
C403 H409 0.929 . S
N404 Mn397 2.257 . S
N404 C403 1.326 . S
N404 C408 1.362 . S
C405 C406 1.258 . S
C405 C408 1.431 . S
C405 C425 1.449 . S
C406 C405 1.258 . S
C406 C407 1.477 . S
C406 H426 0.931 . S
C407 C403 1.460 . S
C407 C406 1.477 . S
C407 H427 0.930 . S
C408 N404 1.362 . S
C408 C405 1.431 . S
C408 C418 1.476 . S
H409 C403 0.929 . S
C410 O401 1.250 . S
C410 O402 1.258 . S
O411 Mn396 2.162 . S
O411 C399 1.281 . S
O412 Mn396 2.297 . S
O412 C399 1.236 . S
N413 Mn397 2.282 . S
N413 C414 1.328 . S
N413 C418 1.318 . S
C414 N413 1.328 . S
C414 C415 1.457 . S
C414 H419 0.929 . S
C415 C414 1.457 . S
C415 C416 1.291 . S
C415 H428 0.931 . S
C416 C415 1.291 . S
C416 C417 1.373 . S
C416 H429 0.929 . S
C417 C416 1.373 . S
C417 C418 1.396 . S
C417 C424 1.403 . S
C418 C408 1.476 . S
C418 N413 1.318 . S
C418 C417 1.396 . S
H419 C414 0.929 . S
O420 Mn396 2.385 . S
O420 C398 1.234 . S
O421 Mn396 2.209 . S
O421 Mn397 2.215 . S
O421 C398 1.283 . S
O422 Mn396 2.094 . S
O422 C400 1.240 . S
O423 Mn397 2.117 . S
O423 C400 1.264 . S
C424 C417 1.403 . S
C424 C425 1.399 . S
C424 H430 0.929 . S
C425 C405 1.449 . S
C425 C424 1.399 . S
C425 H431 0.930 . S
H426 C406 0.931 . S
H427 C407 0.930 . S
H428 C415 0.931 . S
H429 C416 0.929 . S
H430 C424 0.929 . S
H431 C425 0.930 . S
Mn432 O437 2.095 . S
Mn432 O447 2.162 . S
Mn432 O448 2.297 . S
Mn432 O456 2.385 . S
Mn432 O457 2.209 . S
Mn432 O458 2.094 . S
Mn433 O438 2.121 . S
Mn433 N440 2.257 . S
Mn433 N449 2.282 . S
Mn433 O457 2.215 . S
Mn433 O459 2.117 . S
C434 O456 1.234 . S
C434 O457 1.283 . S
C435 O447 1.281 . S
C435 O448 1.236 . S
C436 O458 1.240 . S
C436 O459 1.264 . S
O437 Mn432 2.095 . S
O437 C446 1.250 . S
O438 Mn433 2.121 . S
O438 C446 1.258 . S
C439 N440 1.326 . S
C439 C443 1.460 . S
C439 H445 0.929 . S
N440 Mn433 2.257 . S
N440 C439 1.326 . S
N440 C444 1.362 . S
C441 C442 1.258 . S
C441 C444 1.431 . S
C441 C461 1.449 . S
C442 C441 1.258 . S
C442 C443 1.477 . S
C442 H462 0.931 . S
C443 C439 1.460 . S
C443 C442 1.477 . S
C443 H463 0.930 . S
C444 N440 1.362 . S
C444 C441 1.431 . S
C444 C454 1.476 . S
H445 C439 0.929 . S
C446 O437 1.250 . S
C446 O438 1.258 . S
O447 Mn432 2.162 . S
O447 C435 1.281 . S
O448 Mn432 2.297 . S
O448 C435 1.236 . S
N449 Mn433 2.282 . S
N449 C450 1.328 . S
N449 C454 1.318 . S
C450 N449 1.328 . S
C450 C451 1.457 . S
C450 H455 0.929 . S
C451 C450 1.457 . S
C451 C452 1.291 . S
C451 H464 0.931 . S
C452 C451 1.291 . S
C452 C453 1.373 . S
C452 H465 0.929 . S
C453 C452 1.373 . S
C453 C454 1.396 . S
C453 C460 1.403 . S
C454 C444 1.476 . S
C454 N449 1.318 . S
C454 C453 1.396 . S
H455 C450 0.929 . S
O456 Mn432 2.385 . S
O456 C434 1.234 . S
O457 Mn432 2.209 . S
O457 Mn433 2.215 . S
O457 C434 1.283 . S
O458 Mn432 2.094 . S
O458 C436 1.240 . S
O459 Mn433 2.117 . S
O459 C436 1.264 . S
C460 C453 1.403 . S
C460 C461 1.399 . S
C460 H466 0.929 . S
C461 C441 1.449 . S
C461 C460 1.399 . S
C461 H467 0.930 . S
H462 C442 0.931 . S
H463 C443 0.930 . S
H464 C451 0.931 . S
H465 C452 0.929 . S
H466 C460 0.929 . S
H467 C461 0.930 . S
Mn468 O473 2.095 . S
Mn468 O483 2.162 . S
Mn468 O484 2.297 . S
Mn468 O492 2.385 . S
Mn468 O493 2.209 . S
Mn468 O494 2.094 . S
Mn469 O474 2.121 . S
Mn469 N476 2.257 . S
Mn469 N485 2.282 . S
Mn469 O493 2.215 . S
Mn469 O495 2.117 . S
C470 O492 1.234 . S
C470 O493 1.283 . S
C471 O483 1.281 . S
C471 O484 1.236 . S
C472 O494 1.240 . S
C472 O495 1.264 . S
O473 Mn468 2.095 . S
O473 C482 1.250 . S
O474 Mn469 2.121 . S
O474 C482 1.258 . S
C475 N476 1.326 . S
C475 C479 1.460 . S
C475 H481 0.929 . S
N476 Mn469 2.257 . S
N476 C475 1.326 . S
N476 C480 1.362 . S
C477 C478 1.258 . S
C477 C480 1.431 . S
C477 C497 1.449 . S
C478 C477 1.258 . S
C478 C479 1.477 . S
C478 H498 0.931 . S
C479 C475 1.460 . S
C479 C478 1.477 . S
C479 H499 0.930 . S
C480 N476 1.362 . S
C480 C477 1.431 . S
C480 C490 1.476 . S
H481 C475 0.929 . S
C482 O473 1.250 . S
C482 O474 1.258 . S
O483 Mn468 2.162 . S
O483 C471 1.281 . S
O484 Mn468 2.297 . S
O484 C471 1.236 . S
N485 Mn469 2.282 . S
N485 C486 1.328 . S
N485 C490 1.318 . S
C486 N485 1.328 . S
C486 C487 1.457 . S
C486 H491 0.929 . S
C487 C486 1.457 . S
C487 C488 1.291 . S
C487 H500 0.931 . S
C488 C487 1.291 . S
C488 C489 1.373 . S
C488 H501 0.929 . S
C489 C488 1.373 . S
C489 C490 1.396 . S
C489 C496 1.403 . S
C490 C480 1.476 . S
C490 N485 1.318 . S
C490 C489 1.396 . S
H491 C486 0.929 . S
O492 Mn468 2.385 . S
O492 C470 1.234 . S
O493 Mn468 2.209 . S
O493 Mn469 2.215 . S
O493 C470 1.283 . S
O494 Mn468 2.094 . S
O494 C472 1.240 . S
O495 Mn469 2.117 . S
O495 C472 1.264 . S
C496 C489 1.403 . S
C496 C497 1.399 . S
C496 H502 0.929 . S
C497 C477 1.449 . S
C497 C496 1.399 . S
C497 H503 0.930 . S
H498 C478 0.931 . S
H499 C479 0.930 . S
H500 C487 0.931 . S
H501 C488 0.929 . S
H502 C496 0.929 . S
H503 C497 0.930 . S
Mn504 O509 2.095 . S
Mn504 O519 2.162 1_655 S
Mn504 O520 2.297 . S
Mn504 O528 2.385 . S
Mn504 O529 2.209 . S
Mn504 O530 2.094 . S
Mn505 O510 2.121 . S
Mn505 N512 2.257 . S
Mn505 N521 2.282 . S
Mn505 O529 2.215 . S
Mn505 O531 2.117 . S
C506 O528 1.234 . S
C506 O529 1.283 . S
C507 O519 1.281 1_655 S
C507 O520 1.236 . S
C508 O530 1.240 . S
C508 O531 1.264 . S
O509 Mn504 2.095 . S
O509 C518 1.250 . S
O510 Mn505 2.121 . S
O510 C518 1.258 . S
C511 N512 1.326 . S
C511 C515 1.460 . S
C511 H517 0.929 . S
N512 Mn505 2.257 . S
N512 C511 1.326 . S
N512 C516 1.362 . S
C513 C514 1.258 . S
C513 C516 1.431 . S
C513 C533 1.449 . S
C514 C513 1.258 . S
C514 C515 1.477 . S
C514 H534 0.931 . S
C515 C511 1.460 . S
C515 C514 1.477 . S
C515 H535 0.930 . S
C516 N512 1.362 . S
C516 C513 1.431 . S
C516 C526 1.476 . S
H517 C511 0.929 . S
C518 O509 1.250 . S
C518 O510 1.258 . S
O519 Mn504 2.162 1_455 S
O519 C507 1.281 1_455 S
O520 Mn504 2.297 . S
O520 C507 1.236 . S
N521 Mn505 2.282 . S
N521 C522 1.328 . S
N521 C526 1.318 . S
C522 N521 1.328 . S
C522 C523 1.457 . S
C522 H527 0.929 . S
C523 C522 1.457 . S
C523 C524 1.291 . S
C523 H536 0.931 . S
C524 C523 1.291 . S
C524 C525 1.373 . S
C524 H537 0.929 . S
C525 C524 1.373 . S
C525 C526 1.396 . S
C525 C532 1.403 . S
C526 C516 1.476 . S
C526 N521 1.318 . S
C526 C525 1.396 . S
H527 C522 0.929 . S
O528 Mn504 2.385 . S
O528 C506 1.234 . S
O529 Mn504 2.209 . S
O529 Mn505 2.215 . S
O529 C506 1.283 . S
O530 Mn504 2.094 . S
O530 C508 1.240 . S
O531 Mn505 2.117 . S
O531 C508 1.264 . S
C532 C525 1.403 . S
C532 C533 1.399 . S
C532 H538 0.929 . S
C533 C513 1.449 . S
C533 C532 1.399 . S
C533 H539 0.930 . S
H534 C514 0.931 . S
H535 C515 0.930 . S
H536 C523 0.931 . S
H537 C524 0.929 . S
H538 C532 0.929 . S
H539 C533 0.930 . S
Mn540 O545 2.095 . S
Mn540 O555 2.162 1_655 S
Mn540 O556 2.297 . S
Mn540 O564 2.385 . S
Mn540 O565 2.209 . S
Mn540 O566 2.094 . S
Mn541 O546 2.121 . S
Mn541 N548 2.257 . S
Mn541 N557 2.282 . S
Mn541 O565 2.215 . S
Mn541 O567 2.117 . S
C542 O564 1.234 . S
C542 O565 1.283 . S
C543 O555 1.281 1_655 S
C543 O556 1.236 . S
C544 O566 1.240 . S
C544 O567 1.264 . S
O545 Mn540 2.095 . S
O545 C554 1.250 . S
O546 Mn541 2.121 . S
O546 C554 1.258 . S
C547 N548 1.326 . S
C547 C551 1.460 . S
C547 H553 0.929 . S
N548 Mn541 2.257 . S
N548 C547 1.326 . S
N548 C552 1.362 . S
C549 C550 1.258 . S
C549 C552 1.431 . S
C549 C569 1.449 . S
C550 C549 1.258 . S
C550 C551 1.477 . S
C550 H570 0.931 . S
C551 C547 1.460 . S
C551 C550 1.477 . S
C551 H571 0.930 . S
C552 N548 1.362 . S
C552 C549 1.431 . S
C552 C562 1.476 . S
H553 C547 0.929 . S
C554 O545 1.250 . S
C554 O546 1.258 . S
O555 Mn540 2.162 1_455 S
O555 C543 1.281 1_455 S
O556 Mn540 2.297 . S
O556 C543 1.236 . S
N557 Mn541 2.282 . S
N557 C558 1.328 . S
N557 C562 1.318 . S
C558 N557 1.328 . S
C558 C559 1.457 . S
C558 H563 0.929 . S
C559 C558 1.457 . S
C559 C560 1.291 . S
C559 H572 0.931 . S
C560 C559 1.291 . S
C560 C561 1.373 . S
C560 H573 0.929 . S
C561 C560 1.373 . S
C561 C562 1.396 . S
C561 C568 1.403 . S
C562 C552 1.476 . S
C562 N557 1.318 . S
C562 C561 1.396 . S
H563 C558 0.929 . S
O564 Mn540 2.385 . S
O564 C542 1.234 . S
O565 Mn540 2.209 . S
O565 Mn541 2.215 . S
O565 C542 1.283 . S
O566 Mn540 2.094 . S
O566 C544 1.240 . S
O567 Mn541 2.117 . S
O567 C544 1.264 . S
C568 C561 1.403 . S
C568 C569 1.399 . S
C568 H574 0.929 . S
C569 C549 1.449 . S
C569 C568 1.399 . S
C569 H575 0.930 . S
H570 C550 0.931 . S
H571 C551 0.930 . S
H572 C559 0.931 . S
H573 C560 0.929 . S
H574 C568 0.929 . S
H575 C569 0.930 . S
Mn576 O581 2.095 . S
Mn576 O591 2.162 . S
Mn576 O592 2.297 . S
Mn576 O600 2.385 . S
Mn576 O601 2.209 . S
Mn576 O602 2.094 . S
Mn577 O582 2.121 . S
Mn577 N584 2.257 . S
Mn577 N593 2.282 . S
Mn577 O601 2.215 . S
Mn577 O603 2.117 . S
C578 O600 1.234 . S
C578 O601 1.283 . S
C579 O591 1.281 . S
C579 O592 1.236 . S
C580 O602 1.240 . S
C580 O603 1.264 . S
O581 Mn576 2.095 . S
O581 C590 1.250 . S
O582 Mn577 2.121 . S
O582 C590 1.258 . S
C583 N584 1.326 . S
C583 C587 1.460 . S
C583 H589 0.929 . S
N584 Mn577 2.257 . S
N584 C583 1.326 . S
N584 C588 1.362 . S
C585 C586 1.258 . S
C585 C588 1.431 . S
C585 C605 1.449 . S
C586 C585 1.258 . S
C586 C587 1.477 . S
C586 H606 0.931 . S
C587 C583 1.460 . S
C587 C586 1.477 . S
C587 H607 0.930 . S
C588 N584 1.362 . S
C588 C585 1.431 . S
C588 C598 1.476 . S
H589 C583 0.929 . S
C590 O581 1.250 . S
C590 O582 1.258 . S
O591 Mn576 2.162 . S
O591 C579 1.281 . S
O592 Mn576 2.297 . S
O592 C579 1.236 . S
N593 Mn577 2.282 . S
N593 C594 1.328 . S
N593 C598 1.318 . S
C594 N593 1.328 . S
C594 C595 1.457 . S
C594 H599 0.929 . S
C595 C594 1.457 . S
C595 C596 1.291 . S
C595 H608 0.931 . S
C596 C595 1.291 . S
C596 C597 1.373 . S
C596 H609 0.929 . S
C597 C596 1.373 . S
C597 C598 1.396 . S
C597 C604 1.403 . S
C598 C588 1.476 . S
C598 N593 1.318 . S
C598 C597 1.396 . S
H599 C594 0.929 . S
O600 Mn576 2.385 . S
O600 C578 1.234 . S
O601 Mn576 2.209 . S
O601 Mn577 2.215 . S
O601 C578 1.283 . S
O602 Mn576 2.094 . S
O602 C580 1.240 . S
O603 Mn577 2.117 . S
O603 C580 1.264 . S
C604 C597 1.403 . S
C604 C605 1.399 . S
C604 H610 0.929 . S
C605 C585 1.449 . S
C605 C604 1.399 . S
C605 H611 0.930 . S
H606 C586 0.931 . S
H607 C587 0.930 . S
H608 C595 0.931 . S
H609 C596 0.929 . S
H610 C604 0.929 . S
H611 C605 0.930 . S
Mn612 O617 2.095 . S
Mn612 O627 2.162 . S
Mn612 O628 2.297 . S
Mn612 O636 2.385 . S
Mn612 O637 2.209 . S
Mn612 O638 2.094 . S
Mn613 O618 2.121 . S
Mn613 N620 2.257 . S
Mn613 N629 2.282 . S
Mn613 O637 2.215 . S
Mn613 O639 2.117 . S
C614 O636 1.234 . S
C614 O637 1.283 . S
C615 O627 1.281 . S
C615 O628 1.236 . S
C616 O638 1.240 . S
C616 O639 1.264 . S
O617 Mn612 2.095 . S
O617 C626 1.250 . S
O618 Mn613 2.121 . S
O618 C626 1.258 . S
C619 N620 1.326 . S
C619 C623 1.460 . S
C619 H625 0.929 . S
N620 Mn613 2.257 . S
N620 C619 1.326 . S
N620 C624 1.362 . S
C621 C622 1.258 . S
C621 C624 1.431 . S
C621 C641 1.449 . S
C622 C621 1.258 . S
C622 C623 1.477 . S
C622 H642 0.931 . S
C623 C619 1.460 . S
C623 C622 1.477 . S
C623 H643 0.930 . S
C624 N620 1.362 . S
C624 C621 1.431 . S
C624 C634 1.476 . S
H625 C619 0.929 . S
C626 O617 1.250 . S
C626 O618 1.258 . S
O627 Mn612 2.162 . S
O627 C615 1.281 . S
O628 Mn612 2.297 . S
O628 C615 1.236 . S
N629 Mn613 2.282 . S
N629 C630 1.328 . S
N629 C634 1.318 . S
C630 N629 1.328 . S
C630 C631 1.457 . S
C630 H635 0.929 . S
C631 C630 1.457 . S
C631 C632 1.291 . S
C631 H644 0.931 . S
C632 C631 1.291 . S
C632 C633 1.373 . S
C632 H645 0.929 . S
C633 C632 1.373 . S
C633 C634 1.396 . S
C633 C640 1.403 . S
C634 C624 1.476 . S
C634 N629 1.318 . S
C634 C633 1.396 . S
H635 C630 0.929 . S
O636 Mn612 2.385 . S
O636 C614 1.234 . S
O637 Mn612 2.209 . S
O637 Mn613 2.215 . S
O637 C614 1.283 . S
O638 Mn612 2.094 . S
O638 C616 1.240 . S
O639 Mn613 2.117 . S
O639 C616 1.264 . S
C640 C633 1.403 . S
C640 C641 1.399 . S
C640 H646 0.929 . S
C641 C621 1.449 . S
C641 C640 1.399 . S
C641 H647 0.930 . S
H642 C622 0.931 . S
H643 C623 0.930 . S
H644 C631 0.931 . S
H645 C632 0.929 . S
H646 C640 0.929 . S
H647 C641 0.930 . S
Mn648 O653 2.095 . S
Mn648 O663 2.162 . S
Mn648 O664 2.297 . S
Mn648 O672 2.385 . S
Mn648 O673 2.209 . S
Mn648 O674 2.094 . S
Mn649 O654 2.121 . S
Mn649 N656 2.257 . S
Mn649 N665 2.282 . S
Mn649 O673 2.215 . S
Mn649 O675 2.117 . S
C650 O672 1.234 . S
C650 O673 1.283 . S
C651 O663 1.281 . S
C651 O664 1.236 . S
C652 O674 1.240 . S
C652 O675 1.264 . S
O653 Mn648 2.095 . S
O653 C662 1.250 . S
O654 Mn649 2.121 . S
O654 C662 1.258 . S
C655 N656 1.326 . S
C655 C659 1.460 . S
C655 H661 0.929 . S
N656 Mn649 2.257 . S
N656 C655 1.326 . S
N656 C660 1.362 . S
C657 C658 1.258 . S
C657 C660 1.431 . S
C657 C677 1.449 . S
C658 C657 1.258 . S
C658 C659 1.477 . S
C658 H678 0.931 . S
C659 C655 1.460 . S
C659 C658 1.477 . S
C659 H679 0.930 . S
C660 N656 1.362 . S
C660 C657 1.431 . S
C660 C670 1.476 . S
H661 C655 0.929 . S
C662 O653 1.250 . S
C662 O654 1.258 . S
O663 Mn648 2.162 . S
O663 C651 1.281 . S
O664 Mn648 2.297 . S
O664 C651 1.236 . S
N665 Mn649 2.282 . S
N665 C666 1.328 . S
N665 C670 1.318 . S
C666 N665 1.328 . S
C666 C667 1.457 . S
C666 H671 0.929 . S
C667 C666 1.457 . S
C667 C668 1.291 . S
C667 H680 0.931 . S
C668 C667 1.291 . S
C668 C669 1.373 . S
C668 H681 0.929 . S
C669 C668 1.373 . S
C669 C670 1.396 . S
C669 C676 1.403 . S
C670 C660 1.476 . S
C670 N665 1.318 . S
C670 C669 1.396 . S
H671 C666 0.929 . S
O672 Mn648 2.385 . S
O672 C650 1.234 . S
O673 Mn648 2.209 . S
O673 Mn649 2.215 . S
O673 C650 1.283 . S
O674 Mn648 2.094 . S
O674 C652 1.240 . S
O675 Mn649 2.117 . S
O675 C652 1.264 . S
C676 C669 1.403 . S
C676 C677 1.399 . S
C676 H682 0.929 . S
C677 C657 1.449 . S
C677 C676 1.399 . S
C677 H683 0.930 . S
H678 C658 0.931 . S
H679 C659 0.930 . S
H680 C667 0.931 . S
H681 C668 0.929 . S
H682 C676 0.929 . S
H683 C677 0.930 . S
Mn684 O689 2.095 . S
Mn684 O699 2.162 1_655 S
Mn684 O700 2.297 . S
Mn684 O708 2.385 . S
Mn684 O709 2.209 . S
Mn684 O710 2.094 . S
Mn685 O690 2.121 . S
Mn685 N692 2.257 . S
Mn685 N701 2.282 . S
Mn685 O709 2.215 . S
Mn685 O711 2.117 . S
C686 O708 1.234 . S
C686 O709 1.283 . S
C687 O699 1.281 1_655 S
C687 O700 1.236 . S
C688 O710 1.240 . S
C688 O711 1.264 . S
O689 Mn684 2.095 . S
O689 C698 1.250 . S
O690 Mn685 2.121 . S
O690 C698 1.258 . S
C691 N692 1.326 . S
C691 C695 1.460 . S
C691 H697 0.929 . S
N692 Mn685 2.257 . S
N692 C691 1.326 . S
N692 C696 1.362 . S
C693 C694 1.258 . S
C693 C696 1.431 . S
C693 C713 1.449 . S
C694 C693 1.258 . S
C694 C695 1.477 . S
C694 H714 0.931 . S
C695 C691 1.460 . S
C695 C694 1.477 . S
C695 H715 0.930 . S
C696 N692 1.362 . S
C696 C693 1.431 . S
C696 C706 1.476 . S
H697 C691 0.929 . S
C698 O689 1.250 . S
C698 O690 1.258 . S
O699 Mn684 2.162 1_455 S
O699 C687 1.281 1_455 S
O700 Mn684 2.297 . S
O700 C687 1.236 . S
N701 Mn685 2.282 . S
N701 C702 1.328 . S
N701 C706 1.318 . S
C702 N701 1.328 . S
C702 C703 1.457 . S
C702 H707 0.929 . S
C703 C702 1.457 . S
C703 C704 1.291 . S
C703 H716 0.931 . S
C704 C703 1.291 . S
C704 C705 1.373 . S
C704 H717 0.929 . S
C705 C704 1.373 . S
C705 C706 1.396 . S
C705 C712 1.403 . S
C706 C696 1.476 . S
C706 N701 1.318 . S
C706 C705 1.396 . S
H707 C702 0.929 . S
O708 Mn684 2.385 . S
O708 C686 1.234 . S
O709 Mn684 2.209 . S
O709 Mn685 2.215 . S
O709 C686 1.283 . S
O710 Mn684 2.094 . S
O710 C688 1.240 . S
O711 Mn685 2.117 . S
O711 C688 1.264 . S
C712 C705 1.403 . S
C712 C713 1.399 . S
C712 H718 0.929 . S
C713 C693 1.449 . S
C713 C712 1.399 . S
C713 H719 0.930 . S
H714 C694 0.931 . S
H715 C695 0.930 . S
H716 C703 0.931 . S
H717 C704 0.929 . S
H718 C712 0.929 . S
H719 C713 0.930 . S
Mn720 O725 2.095 . S
Mn720 O735 2.162 . S
Mn720 O736 2.297 . S
Mn720 O744 2.385 . S
Mn720 O745 2.209 . S
Mn720 O746 2.094 . S
Mn721 O726 2.121 . S
Mn721 N728 2.257 . S
Mn721 N737 2.282 . S
Mn721 O745 2.215 . S
Mn721 O747 2.117 . S
C722 O744 1.234 . S
C722 O745 1.283 . S
C723 O735 1.281 . S
C723 O736 1.236 . S
C724 O746 1.240 . S
C724 O747 1.264 . S
O725 Mn720 2.095 . S
O725 C734 1.250 . S
O726 Mn721 2.121 . S
O726 C734 1.258 . S
C727 N728 1.326 . S
C727 C731 1.460 . S
C727 H733 0.929 . S
N728 Mn721 2.257 . S
N728 C727 1.326 . S
N728 C732 1.362 . S
C729 C730 1.258 . S
C729 C732 1.431 . S
C729 C749 1.449 . S
C730 C729 1.258 . S
C730 C731 1.477 . S
C730 H750 0.931 . S
C731 C727 1.460 . S
C731 C730 1.477 . S
C731 H751 0.930 . S
C732 N728 1.362 . S
C732 C729 1.431 . S
C732 C742 1.476 . S
H733 C727 0.929 . S
C734 O725 1.250 . S
C734 O726 1.258 . S
O735 Mn720 2.162 . S
O735 C723 1.281 . S
O736 Mn720 2.297 . S
O736 C723 1.236 . S
N737 Mn721 2.282 . S
N737 C738 1.328 . S
N737 C742 1.318 . S
C738 N737 1.328 . S
C738 C739 1.457 . S
C738 H743 0.929 . S
C739 C738 1.457 . S
C739 C740 1.291 . S
C739 H752 0.931 . S
C740 C739 1.291 . S
C740 C741 1.373 . S
C740 H753 0.929 . S
C741 C740 1.373 . S
C741 C742 1.396 . S
C741 C748 1.403 . S
C742 C732 1.476 . S
C742 N737 1.318 . S
C742 C741 1.396 . S
H743 C738 0.929 . S
O744 Mn720 2.385 . S
O744 C722 1.234 . S
O745 Mn720 2.209 . S
O745 Mn721 2.215 . S
O745 C722 1.283 . S
O746 Mn720 2.094 . S
O746 C724 1.240 . S
O747 Mn721 2.117 . S
O747 C724 1.264 . S
C748 C741 1.403 . S
C748 C749 1.399 . S
C748 H754 0.929 . S
C749 C729 1.449 . S
C749 C748 1.399 . S
C749 H755 0.930 . S
H750 C730 0.931 . S
H751 C731 0.930 . S
H752 C739 0.931 . S
H753 C740 0.929 . S
H754 C748 0.929 . S
H755 C749 0.930 . S
Mn756 O761 2.095 . S
Mn756 O771 2.162 . S
Mn756 O772 2.297 . S
Mn756 O780 2.385 . S
Mn756 O781 2.209 . S
Mn756 O782 2.094 . S
Mn757 O762 2.121 . S
Mn757 N764 2.257 . S
Mn757 N773 2.282 . S
Mn757 O781 2.215 . S
Mn757 O783 2.117 . S
C758 O780 1.234 . S
C758 O781 1.283 . S
C759 O771 1.281 . S
C759 O772 1.236 . S
C760 O782 1.240 . S
C760 O783 1.264 . S
O761 Mn756 2.095 . S
O761 C770 1.250 . S
O762 Mn757 2.121 . S
O762 C770 1.258 . S
C763 N764 1.326 . S
C763 C767 1.460 . S
C763 H769 0.929 . S
N764 Mn757 2.257 . S
N764 C763 1.326 . S
N764 C768 1.362 . S
C765 C766 1.258 . S
C765 C768 1.431 . S
C765 C785 1.449 . S
C766 C765 1.258 . S
C766 C767 1.477 . S
C766 H786 0.931 . S
C767 C763 1.460 . S
C767 C766 1.477 . S
C767 H787 0.930 . S
C768 N764 1.362 . S
C768 C765 1.431 . S
C768 C778 1.476 . S
H769 C763 0.929 . S
C770 O761 1.250 . S
C770 O762 1.258 . S
O771 Mn756 2.162 . S
O771 C759 1.281 . S
O772 Mn756 2.297 . S
O772 C759 1.236 . S
N773 Mn757 2.282 . S
N773 C774 1.328 . S
N773 C778 1.318 . S
C774 N773 1.328 . S
C774 C775 1.457 . S
C774 H779 0.929 . S
C775 C774 1.457 . S
C775 C776 1.291 . S
C775 H788 0.931 . S
C776 C775 1.291 . S
C776 C777 1.373 . S
C776 H789 0.929 . S
C777 C776 1.373 . S
C777 C778 1.396 . S
C777 C784 1.403 . S
C778 C768 1.476 . S
C778 N773 1.318 . S
C778 C777 1.396 . S
H779 C774 0.929 . S
O780 Mn756 2.385 . S
O780 C758 1.234 . S
O781 Mn756 2.209 . S
O781 Mn757 2.215 . S
O781 C758 1.283 . S
O782 Mn756 2.094 . S
O782 C760 1.240 . S
O783 Mn757 2.117 . S
O783 C760 1.264 . S
C784 C777 1.403 . S
C784 C785 1.399 . S
C784 H790 0.929 . S
C785 C765 1.449 . S
C785 C784 1.399 . S
C785 H791 0.930 . S
H786 C766 0.931 . S
H787 C767 0.930 . S
H788 C775 0.931 . S
H789 C776 0.929 . S
H790 C784 0.929 . S
H791 C785 0.930 . S
Mn792 O797 2.095 . S
Mn792 O807 2.162 . S
Mn792 O808 2.297 . S
Mn792 O816 2.385 . S
Mn792 O817 2.209 . S
Mn792 O818 2.094 . S
Mn793 O798 2.121 . S
Mn793 N800 2.257 . S
Mn793 N809 2.282 . S
Mn793 O817 2.215 . S
Mn793 O819 2.117 . S
C794 O816 1.234 . S
C794 O817 1.283 . S
C795 O807 1.281 . S
C795 O808 1.236 . S
C796 O818 1.240 . S
C796 O819 1.264 . S
O797 Mn792 2.095 . S
O797 C806 1.250 . S
O798 Mn793 2.121 . S
O798 C806 1.258 . S
C799 N800 1.326 . S
C799 C803 1.460 . S
C799 H805 0.929 . S
N800 Mn793 2.257 . S
N800 C799 1.326 . S
N800 C804 1.362 . S
C801 C802 1.258 . S
C801 C804 1.431 . S
C801 C821 1.449 . S
C802 C801 1.258 . S
C802 C803 1.477 . S
C802 H822 0.931 . S
C803 C799 1.460 . S
C803 C802 1.477 . S
C803 H823 0.930 . S
C804 N800 1.362 . S
C804 C801 1.431 . S
C804 C814 1.476 . S
H805 C799 0.929 . S
C806 O797 1.250 . S
C806 O798 1.258 . S
O807 Mn792 2.162 . S
O807 C795 1.281 . S
O808 Mn792 2.297 . S
O808 C795 1.236 . S
N809 Mn793 2.282 . S
N809 C810 1.328 . S
N809 C814 1.318 . S
C810 N809 1.328 . S
C810 C811 1.457 . S
C810 H815 0.929 . S
C811 C810 1.457 . S
C811 C812 1.291 . S
C811 H824 0.931 . S
C812 C811 1.291 . S
C812 C813 1.373 . S
C812 H825 0.929 . S
C813 C812 1.373 . S
C813 C814 1.396 . S
C813 C820 1.403 . S
C814 C804 1.476 . S
C814 N809 1.318 . S
C814 C813 1.396 . S
H815 C810 0.929 . S
O816 Mn792 2.385 . S
O816 C794 1.234 . S
O817 Mn792 2.209 . S
O817 Mn793 2.215 . S
O817 C794 1.283 . S
O818 Mn792 2.094 . S
O818 C796 1.240 . S
O819 Mn793 2.117 . S
O819 C796 1.264 . S
C820 C813 1.403 . S
C820 C821 1.399 . S
C820 H826 0.929 . S
C821 C801 1.449 . S
C821 C820 1.399 . S
C821 H827 0.930 . S
H822 C802 0.931 . S
H823 C803 0.930 . S
H824 C811 0.931 . S
H825 C812 0.929 . S
H826 C820 0.929 . S
H827 C821 0.930 . S
Mn828 O833 2.095 . S
Mn828 O843 2.162 1_655 S
Mn828 O844 2.297 . S
Mn828 O852 2.385 . S
Mn828 O853 2.209 . S
Mn828 O854 2.094 . S
Mn829 O834 2.121 . S
Mn829 N836 2.257 . S
Mn829 N845 2.282 . S
Mn829 O853 2.215 . S
Mn829 O855 2.117 . S
C830 O852 1.234 . S
C830 O853 1.283 . S
C831 O843 1.281 1_655 S
C831 O844 1.236 . S
C832 O854 1.240 . S
C832 O855 1.264 . S
O833 Mn828 2.095 . S
O833 C842 1.250 . S
O834 Mn829 2.121 . S
O834 C842 1.258 . S
C835 N836 1.326 . S
C835 C839 1.460 . S
C835 H841 0.929 . S
N836 Mn829 2.257 . S
N836 C835 1.326 . S
N836 C840 1.362 . S
C837 C838 1.258 . S
C837 C840 1.431 . S
C837 C857 1.449 . S
C838 C837 1.258 . S
C838 C839 1.477 . S
C838 H858 0.931 . S
C839 C835 1.460 . S
C839 C838 1.477 . S
C839 H859 0.930 . S
C840 N836 1.362 . S
C840 C837 1.431 . S
C840 C850 1.476 . S
H841 C835 0.929 . S
C842 O833 1.250 . S
C842 O834 1.258 . S
O843 Mn828 2.162 1_455 S
O843 C831 1.281 1_455 S
O844 Mn828 2.297 . S
O844 C831 1.236 . S
N845 Mn829 2.282 . S
N845 C846 1.328 . S
N845 C850 1.318 . S
C846 N845 1.328 . S
C846 C847 1.457 . S
C846 H851 0.929 . S
C847 C846 1.457 . S
C847 C848 1.291 . S
C847 H860 0.931 . S
C848 C847 1.291 . S
C848 C849 1.373 . S
C848 H861 0.929 . S
C849 C848 1.373 . S
C849 C850 1.396 . S
C849 C856 1.403 . S
C850 C840 1.476 . S
C850 N845 1.318 . S
C850 C849 1.396 . S
H851 C846 0.929 . S
O852 Mn828 2.385 . S
O852 C830 1.234 . S
O853 Mn828 2.209 . S
O853 Mn829 2.215 . S
O853 C830 1.283 . S
O854 Mn828 2.094 . S
O854 C832 1.240 . S
O855 Mn829 2.117 . S
O855 C832 1.264 . S
C856 C849 1.403 . S
C856 C857 1.399 . S
C856 H862 0.929 . S
C857 C837 1.449 . S
C857 C856 1.399 . S
C857 H863 0.930 . S
H858 C838 0.931 . S
H859 C839 0.930 . S
H860 C847 0.931 . S
H861 C848 0.929 . S
H862 C856 0.929 . S
H863 C857 0.930 . S
Mn864 O869 2.095 . S
Mn864 O879 2.162 1_565 S
Mn864 O880 2.297 . S
Mn864 O888 2.385 . S
Mn864 O889 2.209 . S
Mn864 O890 2.094 . S
Mn865 O870 2.121 . S
Mn865 N872 2.257 . S
Mn865 N881 2.282 . S
Mn865 O889 2.215 . S
Mn865 O891 2.117 . S
C866 O888 1.234 . S
C866 O889 1.283 . S
C867 O879 1.281 1_565 S
C867 O880 1.236 . S
C868 O890 1.240 . S
C868 O891 1.264 . S
O869 Mn864 2.095 . S
O869 C878 1.250 . S
O870 Mn865 2.121 . S
O870 C878 1.258 . S
C871 N872 1.326 . S
C871 C875 1.460 . S
C871 H877 0.929 . S
N872 Mn865 2.257 . S
N872 C871 1.326 . S
N872 C876 1.362 . S
C873 C874 1.258 . S
C873 C876 1.431 . S
C873 C893 1.449 . S
C874 C873 1.258 . S
C874 C875 1.477 . S
C874 H894 0.931 . S
C875 C871 1.460 . S
C875 C874 1.477 . S
C875 H895 0.930 . S
C876 N872 1.362 . S
C876 C873 1.431 . S
C876 C886 1.476 . S
H877 C871 0.929 . S
C878 O869 1.250 . S
C878 O870 1.258 . S
O879 Mn864 2.162 1_545 S
O879 C867 1.281 1_545 S
O880 Mn864 2.297 . S
O880 C867 1.236 . S
N881 Mn865 2.282 . S
N881 C882 1.328 . S
N881 C886 1.318 . S
C882 N881 1.328 . S
C882 C883 1.457 . S
C882 H887 0.929 . S
C883 C882 1.457 . S
C883 C884 1.291 . S
C883 H896 0.931 . S
C884 C883 1.291 . S
C884 C885 1.373 . S
C884 H897 0.929 . S
C885 C884 1.373 . S
C885 C886 1.396 . S
C885 C892 1.403 . S
C886 C876 1.476 . S
C886 N881 1.318 . S
C886 C885 1.396 . S
H887 C882 0.929 . S
O888 Mn864 2.385 . S
O888 C866 1.234 . S
O889 Mn864 2.209 . S
O889 Mn865 2.215 . S
O889 C866 1.283 . S
O890 Mn864 2.094 . S
O890 C868 1.240 . S
O891 Mn865 2.117 . S
O891 C868 1.264 . S
C892 C885 1.403 . S
C892 C893 1.399 . S
C892 H898 0.929 . S
C893 C873 1.449 . S
C893 C892 1.399 . S
C893 H899 0.930 . S
H894 C874 0.931 . S
H895 C875 0.930 . S
H896 C883 0.931 . S
H897 C884 0.929 . S
H898 C892 0.929 . S
H899 C893 0.930 . S
Mn900 O905 2.095 . S
Mn900 O915 2.162 . S
Mn900 O916 2.297 . S
Mn900 O924 2.385 . S
Mn900 O925 2.209 . S
Mn900 O926 2.094 . S
Mn901 O906 2.121 . S
Mn901 N908 2.257 . S
Mn901 N917 2.282 . S
Mn901 O925 2.215 . S
Mn901 O927 2.117 . S
C902 O924 1.234 . S
C902 O925 1.283 . S
C903 O915 1.281 . S
C903 O916 1.236 . S
C904 O926 1.240 . S
C904 O927 1.264 . S
O905 Mn900 2.095 . S
O905 C914 1.250 . S
O906 Mn901 2.121 . S
O906 C914 1.258 . S
C907 N908 1.326 . S
C907 C911 1.460 . S
C907 H913 0.929 . S
N908 Mn901 2.257 . S
N908 C907 1.326 . S
N908 C912 1.362 . S
C909 C910 1.258 . S
C909 C912 1.431 . S
C909 C929 1.449 . S
C910 C909 1.258 . S
C910 C911 1.477 . S
C910 H930 0.931 . S
C911 C907 1.460 . S
C911 C910 1.477 . S
C911 H931 0.930 . S
C912 N908 1.362 . S
C912 C909 1.431 . S
C912 C922 1.476 . S
H913 C907 0.929 . S
C914 O905 1.250 . S
C914 O906 1.258 . S
O915 Mn900 2.162 . S
O915 C903 1.281 . S
O916 Mn900 2.297 . S
O916 C903 1.236 . S
N917 Mn901 2.282 . S
N917 C918 1.328 . S
N917 C922 1.318 . S
C918 N917 1.328 . S
C918 C919 1.457 . S
C918 H923 0.929 . S
C919 C918 1.457 . S
C919 C920 1.291 . S
C919 H932 0.931 . S
C920 C919 1.291 . S
C920 C921 1.373 . S
C920 H933 0.929 . S
C921 C920 1.373 . S
C921 C922 1.396 . S
C921 C928 1.403 . S
C922 C912 1.476 . S
C922 N917 1.318 . S
C922 C921 1.396 . S
H923 C918 0.929 . S
O924 Mn900 2.385 . S
O924 C902 1.234 . S
O925 Mn900 2.209 . S
O925 Mn901 2.215 . S
O925 C902 1.283 . S
O926 Mn900 2.094 . S
O926 C904 1.240 . S
O927 Mn901 2.117 . S
O927 C904 1.264 . S
C928 C921 1.403 . S
C928 C929 1.399 . S
C928 H934 0.929 . S
C929 C909 1.449 . S
C929 C928 1.399 . S
C929 H935 0.930 . S
H930 C910 0.931 . S
H931 C911 0.930 . S
H932 C919 0.931 . S
H933 C920 0.929 . S
H934 C928 0.929 . S
H935 C929 0.930 . S
Mn936 O941 2.095 . S
Mn936 O951 2.162 . S
Mn936 O952 2.297 . S
Mn936 O960 2.385 . S
Mn936 O961 2.209 . S
Mn936 O962 2.094 . S
Mn937 O942 2.121 . S
Mn937 N944 2.257 . S
Mn937 N953 2.282 . S
Mn937 O961 2.215 . S
Mn937 O963 2.117 . S
C938 O960 1.234 . S
C938 O961 1.283 . S
C939 O951 1.281 . S
C939 O952 1.236 . S
C940 O962 1.240 . S
C940 O963 1.264 . S
O941 Mn936 2.095 . S
O941 C950 1.250 . S
O942 Mn937 2.121 . S
O942 C950 1.258 . S
C943 N944 1.326 . S
C943 C947 1.460 . S
C943 H949 0.929 . S
N944 Mn937 2.257 . S
N944 C943 1.326 . S
N944 C948 1.362 . S
C945 C946 1.258 . S
C945 C948 1.431 . S
C945 C965 1.449 . S
C946 C945 1.258 . S
C946 C947 1.477 . S
C946 H966 0.931 . S
C947 C943 1.460 . S
C947 C946 1.477 . S
C947 H967 0.930 . S
C948 N944 1.362 . S
C948 C945 1.431 . S
C948 C958 1.476 . S
H949 C943 0.929 . S
C950 O941 1.250 . S
C950 O942 1.258 . S
O951 Mn936 2.162 . S
O951 C939 1.281 . S
O952 Mn936 2.297 . S
O952 C939 1.236 . S
N953 Mn937 2.282 . S
N953 C954 1.328 . S
N953 C958 1.318 . S
C954 N953 1.328 . S
C954 C955 1.457 . S
C954 H959 0.929 . S
C955 C954 1.457 . S
C955 C956 1.291 . S
C955 H968 0.931 . S
C956 C955 1.291 . S
C956 C957 1.373 . S
C956 H969 0.929 . S
C957 C956 1.373 . S
C957 C958 1.396 . S
C957 C964 1.403 . S
C958 C948 1.476 . S
C958 N953 1.318 . S
C958 C957 1.396 . S
H959 C954 0.929 . S
O960 Mn936 2.385 . S
O960 C938 1.234 . S
O961 Mn936 2.209 . S
O961 Mn937 2.215 . S
O961 C938 1.283 . S
O962 Mn936 2.094 . S
O962 C940 1.240 . S
O963 Mn937 2.117 . S
O963 C940 1.264 . S
C964 C957 1.403 . S
C964 C965 1.399 . S
C964 H970 0.929 . S
C965 C945 1.449 . S
C965 C964 1.399 . S
C965 H971 0.930 . S
H966 C946 0.931 . S
H967 C947 0.930 . S
H968 C955 0.931 . S
H969 C956 0.929 . S
H970 C964 0.929 . S
H971 C965 0.930 . S
Mn972 O977 2.095 . S
Mn972 O987 2.162 . S
Mn972 O988 2.297 . S
Mn972 O996 2.385 . S
Mn972 O997 2.209 . S
Mn972 O998 2.094 . S
Mn973 O978 2.121 . S
Mn973 N980 2.257 . S
Mn973 N989 2.282 . S
Mn973 O997 2.215 . S
Mn973 O999 2.117 . S
C974 O996 1.234 . S
C974 O997 1.283 . S
C975 O987 1.281 . S
C975 O988 1.236 . S
C976 O998 1.240 . S
C976 O999 1.264 . S
O977 Mn972 2.095 . S
O977 C986 1.250 . S
O978 Mn973 2.121 . S
O978 C986 1.258 . S
C979 N980 1.326 . S
C979 C983 1.460 . S
C979 H985 0.929 . S
N980 Mn973 2.257 . S
N980 C979 1.326 . S
N980 C984 1.362 . S
C981 C982 1.258 . S
C981 C984 1.431 . S
C981 C1001 1.449 . S
C982 C981 1.258 . S
C982 C983 1.477 . S
C982 H1002 0.931 . S
C983 C979 1.460 . S
C983 C982 1.477 . S
C983 H1003 0.930 . S
C984 N980 1.362 . S
C984 C981 1.431 . S
C984 C994 1.476 . S
H985 C979 0.929 . S
C986 O977 1.250 . S
C986 O978 1.258 . S
O987 Mn972 2.162 . S
O987 C975 1.281 . S
O988 Mn972 2.297 . S
O988 C975 1.236 . S
N989 Mn973 2.282 . S
N989 C990 1.328 . S
N989 C994 1.318 . S
C990 N989 1.328 . S
C990 C991 1.457 . S
C990 H995 0.929 . S
C991 C990 1.457 . S
C991 C992 1.291 . S
C991 H1004 0.931 . S
C992 C991 1.291 . S
C992 C993 1.373 . S
C992 H1005 0.929 . S
C993 C992 1.373 . S
C993 C994 1.396 . S
C993 C1000 1.403 . S
C994 C984 1.476 . S
C994 N989 1.318 . S
C994 C993 1.396 . S
H995 C990 0.929 . S
O996 Mn972 2.385 . S
O996 C974 1.234 . S
O997 Mn972 2.209 . S
O997 Mn973 2.215 . S
O997 C974 1.283 . S
O998 Mn972 2.094 . S
O998 C976 1.240 . S
O999 Mn973 2.117 . S
O999 C976 1.264 . S
C1000 C993 1.403 . S
C1000 C1001 1.399 . S
C1000 H1006 0.929 . S
C1001 C981 1.449 . S
C1001 C1000 1.399 . S
C1001 H1007 0.930 . S
H1002 C982 0.931 . S
H1003 C983 0.930 . S
H1004 C991 0.931 . S
H1005 C992 0.929 . S
H1006 C1000 0.929 . S
H1007 C1001 0.930 . S
Mn1008 O1013 2.095 . S
Mn1008 O1023 2.162 1_565 S
Mn1008 O1024 2.297 . S
Mn1008 O1032 2.385 . S
Mn1008 O1033 2.209 . S
Mn1008 O1034 2.094 . S
Mn1009 O1014 2.121 . S
Mn1009 N1016 2.257 . S
Mn1009 N1025 2.282 . S
Mn1009 O1033 2.215 . S
Mn1009 O1035 2.117 . S
C1010 O1032 1.234 . S
C1010 O1033 1.283 . S
C1011 O1023 1.281 1_565 S
C1011 O1024 1.236 . S
C1012 O1034 1.240 . S
C1012 O1035 1.264 . S
O1013 Mn1008 2.095 . S
O1013 C1022 1.250 . S
O1014 Mn1009 2.121 . S
O1014 C1022 1.258 . S
C1015 N1016 1.326 . S
C1015 C1019 1.460 . S
C1015 H1021 0.929 . S
N1016 Mn1009 2.257 . S
N1016 C1015 1.326 . S
N1016 C1020 1.362 . S
C1017 C1018 1.258 . S
C1017 C1020 1.431 . S
C1017 C1037 1.449 . S
C1018 C1017 1.258 . S
C1018 C1019 1.477 . S
C1018 H1038 0.931 . S
C1019 C1015 1.460 . S
C1019 C1018 1.477 . S
C1019 H1039 0.930 . S
C1020 N1016 1.362 . S
C1020 C1017 1.431 . S
C1020 C1030 1.476 . S
H1021 C1015 0.929 . S
C1022 O1013 1.250 . S
C1022 O1014 1.258 . S
O1023 Mn1008 2.162 1_545 S
O1023 C1011 1.281 1_545 S
O1024 Mn1008 2.297 . S
O1024 C1011 1.236 . S
N1025 Mn1009 2.282 . S
N1025 C1026 1.328 . S
N1025 C1030 1.318 . S
C1026 N1025 1.328 . S
C1026 C1027 1.457 . S
C1026 H1031 0.929 . S
C1027 C1026 1.457 . S
C1027 C1028 1.291 . S
C1027 H1040 0.931 . S
C1028 C1027 1.291 . S
C1028 C1029 1.373 . S
C1028 H1041 0.929 . S
C1029 C1028 1.373 . S
C1029 C1030 1.396 . S
C1029 C1036 1.403 . S
C1030 C1020 1.476 . S
C1030 N1025 1.318 . S
C1030 C1029 1.396 . S
H1031 C1026 0.929 . S
O1032 Mn1008 2.385 . S
O1032 C1010 1.234 . S
O1033 Mn1008 2.209 . S
O1033 Mn1009 2.215 . S
O1033 C1010 1.283 . S
O1034 Mn1008 2.094 . S
O1034 C1012 1.240 . S
O1035 Mn1009 2.117 . S
O1035 C1012 1.264 . S
C1036 C1029 1.403 . S
C1036 C1037 1.399 . S
C1036 H1042 0.929 . S
C1037 C1017 1.449 . S
C1037 C1036 1.399 . S
C1037 H1043 0.930 . S
H1038 C1018 0.931 . S
H1039 C1019 0.930 . S
H1040 C1027 0.931 . S
H1041 C1028 0.929 . S
H1042 C1036 0.929 . S
H1043 C1037 0.930 . S
Mn1044 O1049 2.095 . S
Mn1044 O1059 2.162 . S
Mn1044 O1060 2.297 . S
Mn1044 O1068 2.385 . S
Mn1044 O1069 2.209 . S
Mn1044 O1070 2.094 . S
Mn1045 O1050 2.121 . S
Mn1045 N1052 2.257 . S
Mn1045 N1061 2.282 . S
Mn1045 O1069 2.215 . S
Mn1045 O1071 2.117 . S
C1046 O1068 1.234 . S
C1046 O1069 1.283 . S
C1047 O1059 1.281 . S
C1047 O1060 1.236 . S
C1048 O1070 1.240 . S
C1048 O1071 1.264 . S
O1049 Mn1044 2.095 . S
O1049 C1058 1.250 . S
O1050 Mn1045 2.121 . S
O1050 C1058 1.258 . S
C1051 N1052 1.326 . S
C1051 C1055 1.460 . S
C1051 H1057 0.929 . S
N1052 Mn1045 2.257 . S
N1052 C1051 1.326 . S
N1052 C1056 1.362 . S
C1053 C1054 1.258 . S
C1053 C1056 1.431 . S
C1053 C1073 1.449 . S
C1054 C1053 1.258 . S
C1054 C1055 1.477 . S
C1054 H1074 0.931 . S
C1055 C1051 1.460 . S
C1055 C1054 1.477 . S
C1055 H1075 0.930 . S
C1056 N1052 1.362 . S
C1056 C1053 1.431 . S
C1056 C1066 1.476 . S
H1057 C1051 0.929 . S
C1058 O1049 1.250 . S
C1058 O1050 1.258 . S
O1059 Mn1044 2.162 . S
O1059 C1047 1.281 . S
O1060 Mn1044 2.297 . S
O1060 C1047 1.236 . S
N1061 Mn1045 2.282 . S
N1061 C1062 1.328 . S
N1061 C1066 1.318 . S
C1062 N1061 1.328 . S
C1062 C1063 1.457 . S
C1062 H1067 0.929 . S
C1063 C1062 1.457 . S
C1063 C1064 1.291 . S
C1063 H1076 0.931 . S
C1064 C1063 1.291 . S
C1064 C1065 1.373 . S
C1064 H1077 0.929 . S
C1065 C1064 1.373 . S
C1065 C1066 1.396 . S
C1065 C1072 1.403 . S
C1066 C1056 1.476 . S
C1066 N1061 1.318 . S
C1066 C1065 1.396 . S
H1067 C1062 0.929 . S
O1068 Mn1044 2.385 . S
O1068 C1046 1.234 . S
O1069 Mn1044 2.209 . S
O1069 Mn1045 2.215 . S
O1069 C1046 1.283 . S
O1070 Mn1044 2.094 . S
O1070 C1048 1.240 . S
O1071 Mn1045 2.117 . S
O1071 C1048 1.264 . S
C1072 C1065 1.403 . S
C1072 C1073 1.399 . S
C1072 H1078 0.929 . S
C1073 C1053 1.449 . S
C1073 C1072 1.399 . S
C1073 H1079 0.930 . S
H1074 C1054 0.931 . S
H1075 C1055 0.930 . S
H1076 C1063 0.931 . S
H1077 C1064 0.929 . S
H1078 C1072 0.929 . S
H1079 C1073 0.930 . S
Mn1080 O1085 2.095 . S
Mn1080 O1095 2.162 . S
Mn1080 O1096 2.297 . S
Mn1080 O1104 2.385 . S
Mn1080 O1105 2.209 . S
Mn1080 O1106 2.094 . S
Mn1081 O1086 2.121 . S
Mn1081 N1088 2.257 . S
Mn1081 N1097 2.282 . S
Mn1081 O1105 2.215 . S
Mn1081 O1107 2.117 . S
C1082 O1104 1.234 . S
C1082 O1105 1.283 . S
C1083 O1095 1.281 . S
C1083 O1096 1.236 . S
C1084 O1106 1.240 . S
C1084 O1107 1.264 . S
O1085 Mn1080 2.095 . S
O1085 C1094 1.250 . S
O1086 Mn1081 2.121 . S
O1086 C1094 1.258 . S
C1087 N1088 1.326 . S
C1087 C1091 1.460 . S
C1087 H1093 0.929 . S
N1088 Mn1081 2.257 . S
N1088 C1087 1.326 . S
N1088 C1092 1.362 . S
C1089 C1090 1.258 . S
C1089 C1092 1.431 . S
C1089 C1109 1.449 . S
C1090 C1089 1.258 . S
C1090 C1091 1.477 . S
C1090 H1110 0.931 . S
C1091 C1087 1.460 . S
C1091 C1090 1.477 . S
C1091 H1111 0.930 . S
C1092 N1088 1.362 . S
C1092 C1089 1.431 . S
C1092 C1102 1.476 . S
H1093 C1087 0.929 . S
C1094 O1085 1.250 . S
C1094 O1086 1.258 . S
O1095 Mn1080 2.162 . S
O1095 C1083 1.281 . S
O1096 Mn1080 2.297 . S
O1096 C1083 1.236 . S
N1097 Mn1081 2.282 . S
N1097 C1098 1.328 . S
N1097 C1102 1.318 . S
C1098 N1097 1.328 . S
C1098 C1099 1.457 . S
C1098 H1103 0.929 . S
C1099 C1098 1.457 . S
C1099 C1100 1.291 . S
C1099 H1112 0.931 . S
C1100 C1099 1.291 . S
C1100 C1101 1.373 . S
C1100 H1113 0.929 . S
C1101 C1100 1.373 . S
C1101 C1102 1.396 . S
C1101 C1108 1.403 . S
C1102 C1092 1.476 . S
C1102 N1097 1.318 . S
C1102 C1101 1.396 . S
H1103 C1098 0.929 . S
O1104 Mn1080 2.385 . S
O1104 C1082 1.234 . S
O1105 Mn1080 2.209 . S
O1105 Mn1081 2.215 . S
O1105 C1082 1.283 . S
O1106 Mn1080 2.094 . S
O1106 C1084 1.240 . S
O1107 Mn1081 2.117 . S
O1107 C1084 1.264 . S
C1108 C1101 1.403 . S
C1108 C1109 1.399 . S
C1108 H1114 0.929 . S
C1109 C1089 1.449 . S
C1109 C1108 1.399 . S
C1109 H1115 0.930 . S
H1110 C1090 0.931 . S
H1111 C1091 0.930 . S
H1112 C1099 0.931 . S
H1113 C1100 0.929 . S
H1114 C1108 0.929 . S
H1115 C1109 0.930 . S
Mn1116 O1121 2.095 . S
Mn1116 O1131 2.162 1_565 S
Mn1116 O1132 2.297 . S
Mn1116 O1140 2.385 . S
Mn1116 O1141 2.209 . S
Mn1116 O1142 2.094 . S
Mn1117 O1122 2.121 . S
Mn1117 N1124 2.257 . S
Mn1117 N1133 2.282 . S
Mn1117 O1141 2.215 . S
Mn1117 O1143 2.117 . S
C1118 O1140 1.234 . S
C1118 O1141 1.283 . S
C1119 O1131 1.281 1_565 S
C1119 O1132 1.236 . S
C1120 O1142 1.240 . S
C1120 O1143 1.264 . S
O1121 Mn1116 2.095 . S
O1121 C1130 1.250 . S
O1122 Mn1117 2.121 . S
O1122 C1130 1.258 . S
C1123 N1124 1.326 . S
C1123 C1127 1.460 . S
C1123 H1129 0.929 . S
N1124 Mn1117 2.257 . S
N1124 C1123 1.326 . S
N1124 C1128 1.362 . S
C1125 C1126 1.258 . S
C1125 C1128 1.431 . S
C1125 C1145 1.449 . S
C1126 C1125 1.258 . S
C1126 C1127 1.477 . S
C1126 H1146 0.931 . S
C1127 C1123 1.460 . S
C1127 C1126 1.477 . S
C1127 H1147 0.930 . S
C1128 N1124 1.362 . S
C1128 C1125 1.431 . S
C1128 C1138 1.476 . S
H1129 C1123 0.929 . S
C1130 O1121 1.250 . S
C1130 O1122 1.258 . S
O1131 Mn1116 2.162 1_545 S
O1131 C1119 1.281 1_545 S
O1132 Mn1116 2.297 . S
O1132 C1119 1.236 . S
N1133 Mn1117 2.282 . S
N1133 C1134 1.328 . S
N1133 C1138 1.318 . S
C1134 N1133 1.328 . S
C1134 C1135 1.457 . S
C1134 H1139 0.929 . S
C1135 C1134 1.457 . S
C1135 C1136 1.291 . S
C1135 H1148 0.931 . S
C1136 C1135 1.291 . S
C1136 C1137 1.373 . S
C1136 H1149 0.929 . S
C1137 C1136 1.373 . S
C1137 C1138 1.396 . S
C1137 C1144 1.403 . S
C1138 C1128 1.476 . S
C1138 N1133 1.318 . S
C1138 C1137 1.396 . S
H1139 C1134 0.929 . S
O1140 Mn1116 2.385 . S
O1140 C1118 1.234 . S
O1141 Mn1116 2.209 . S
O1141 Mn1117 2.215 . S
O1141 C1118 1.283 . S
O1142 Mn1116 2.094 . S
O1142 C1120 1.240 . S
O1143 Mn1117 2.117 . S
O1143 C1120 1.264 . S
C1144 C1137 1.403 . S
C1144 C1145 1.399 . S
C1144 H1150 0.929 . S
C1145 C1125 1.449 . S
C1145 C1144 1.399 . S
C1145 H1151 0.930 . S
H1146 C1126 0.931 . S
H1147 C1127 0.930 . S
H1148 C1135 0.931 . S
H1149 C1136 0.929 . S
H1150 C1144 0.929 . S
H1151 C1145 0.930 . S
Mn1152 O1157 2.095 . S
Mn1152 O1167 2.162 . S
Mn1152 O1168 2.297 . S
Mn1152 O1176 2.385 . S
Mn1152 O1177 2.209 . S
Mn1152 O1178 2.094 . S
Mn1153 O1158 2.121 . S
Mn1153 N1160 2.257 . S
Mn1153 N1169 2.282 . S
Mn1153 O1177 2.215 . S
Mn1153 O1179 2.117 . S
C1154 O1176 1.234 . S
C1154 O1177 1.283 . S
C1155 O1167 1.281 . S
C1155 O1168 1.236 . S
C1156 O1178 1.240 . S
C1156 O1179 1.264 . S
O1157 Mn1152 2.095 . S
O1157 C1166 1.250 . S
O1158 Mn1153 2.121 . S
O1158 C1166 1.258 . S
C1159 N1160 1.326 . S
C1159 C1163 1.460 . S
C1159 H1165 0.929 . S
N1160 Mn1153 2.257 . S
N1160 C1159 1.326 . S
N1160 C1164 1.362 . S
C1161 C1162 1.258 . S
C1161 C1164 1.431 . S
C1161 C1181 1.449 . S
C1162 C1161 1.258 . S
C1162 C1163 1.477 . S
C1162 H1182 0.931 . S
C1163 C1159 1.460 . S
C1163 C1162 1.477 . S
C1163 H1183 0.930 . S
C1164 N1160 1.362 . S
C1164 C1161 1.431 . S
C1164 C1174 1.476 . S
H1165 C1159 0.929 . S
C1166 O1157 1.250 . S
C1166 O1158 1.258 . S
O1167 Mn1152 2.162 . S
O1167 C1155 1.281 . S
O1168 Mn1152 2.297 . S
O1168 C1155 1.236 . S
N1169 Mn1153 2.282 . S
N1169 C1170 1.328 . S
N1169 C1174 1.318 . S
C1170 N1169 1.328 . S
C1170 C1171 1.457 . S
C1170 H1175 0.929 . S
C1171 C1170 1.457 . S
C1171 C1172 1.291 . S
C1171 H1184 0.931 . S
C1172 C1171 1.291 . S
C1172 C1173 1.373 . S
C1172 H1185 0.929 . S
C1173 C1172 1.373 . S
C1173 C1174 1.396 . S
C1173 C1180 1.403 . S
C1174 C1164 1.476 . S
C1174 N1169 1.318 . S
C1174 C1173 1.396 . S
H1175 C1170 0.929 . S
O1176 Mn1152 2.385 . S
O1176 C1154 1.234 . S
O1177 Mn1152 2.209 . S
O1177 Mn1153 2.215 . S
O1177 C1154 1.283 . S
O1178 Mn1152 2.094 . S
O1178 C1156 1.240 . S
O1179 Mn1153 2.117 . S
O1179 C1156 1.264 . S
C1180 C1173 1.403 . S
C1180 C1181 1.399 . S
C1180 H1186 0.929 . S
C1181 C1161 1.449 . S
C1181 C1180 1.399 . S
C1181 H1187 0.930 . S
H1182 C1162 0.931 . S
H1183 C1163 0.930 . S
H1184 C1171 0.931 . S
H1185 C1172 0.929 . S
H1186 C1180 0.929 . S
H1187 C1181 0.930 . S
Mn1188 O1193 2.095 . S
Mn1188 O1203 2.162 . S
Mn1188 O1204 2.297 . S
Mn1188 O1212 2.385 . S
Mn1188 O1213 2.209 . S
Mn1188 O1214 2.094 . S
Mn1189 O1194 2.121 . S
Mn1189 N1196 2.257 . S
Mn1189 N1205 2.282 . S
Mn1189 O1213 2.215 . S
Mn1189 O1215 2.117 . S
C1190 O1212 1.234 . S
C1190 O1213 1.283 . S
C1191 O1203 1.281 . S
C1191 O1204 1.236 . S
C1192 O1214 1.240 . S
C1192 O1215 1.264 . S
O1193 Mn1188 2.095 . S
O1193 C1202 1.250 . S
O1194 Mn1189 2.121 . S
O1194 C1202 1.258 . S
C1195 N1196 1.326 . S
C1195 C1199 1.460 . S
C1195 H1201 0.929 . S
N1196 Mn1189 2.257 . S
N1196 C1195 1.326 . S
N1196 C1200 1.362 . S
C1197 C1198 1.258 . S
C1197 C1200 1.431 . S
C1197 C1217 1.449 . S
C1198 C1197 1.258 . S
C1198 C1199 1.477 . S
C1198 H1218 0.931 . S
C1199 C1195 1.460 . S
C1199 C1198 1.477 . S
C1199 H1219 0.930 . S
C1200 N1196 1.362 . S
C1200 C1197 1.431 . S
C1200 C1210 1.476 . S
H1201 C1195 0.929 . S
C1202 O1193 1.250 . S
C1202 O1194 1.258 . S
O1203 Mn1188 2.162 . S
O1203 C1191 1.281 . S
O1204 Mn1188 2.297 . S
O1204 C1191 1.236 . S
N1205 Mn1189 2.282 . S
N1205 C1206 1.328 . S
N1205 C1210 1.318 . S
C1206 N1205 1.328 . S
C1206 C1207 1.457 . S
C1206 H1211 0.929 . S
C1207 C1206 1.457 . S
C1207 C1208 1.291 . S
C1207 H1220 0.931 . S
C1208 C1207 1.291 . S
C1208 C1209 1.373 . S
C1208 H1221 0.929 . S
C1209 C1208 1.373 . S
C1209 C1210 1.396 . S
C1209 C1216 1.403 . S
C1210 C1200 1.476 . S
C1210 N1205 1.318 . S
C1210 C1209 1.396 . S
H1211 C1206 0.929 . S
O1212 Mn1188 2.385 . S
O1212 C1190 1.234 . S
O1213 Mn1188 2.209 . S
O1213 Mn1189 2.215 . S
O1213 C1190 1.283 . S
O1214 Mn1188 2.094 . S
O1214 C1192 1.240 . S
O1215 Mn1189 2.117 . S
O1215 C1192 1.264 . S
C1216 C1209 1.403 . S
C1216 C1217 1.399 . S
C1216 H1222 0.929 . S
C1217 C1197 1.449 . S
C1217 C1216 1.399 . S
C1217 H1223 0.930 . S
H1218 C1198 0.931 . S
H1219 C1199 0.930 . S
H1220 C1207 0.931 . S
H1221 C1208 0.929 . S
H1222 C1216 0.929 . S
H1223 C1217 0.930 . S
Mn1224 O1229 2.095 . S
Mn1224 O1239 2.162 . S
Mn1224 O1240 2.297 . S
Mn1224 O1248 2.385 . S
Mn1224 O1249 2.209 . S
Mn1224 O1250 2.094 . S
Mn1225 O1230 2.121 . S
Mn1225 N1232 2.257 . S
Mn1225 N1241 2.282 . S
Mn1225 O1249 2.215 . S
Mn1225 O1251 2.117 . S
C1226 O1248 1.234 . S
C1226 O1249 1.283 . S
C1227 O1239 1.281 . S
C1227 O1240 1.236 . S
C1228 O1250 1.240 . S
C1228 O1251 1.264 . S
O1229 Mn1224 2.095 . S
O1229 C1238 1.250 . S
O1230 Mn1225 2.121 . S
O1230 C1238 1.258 . S
C1231 N1232 1.326 . S
C1231 C1235 1.460 . S
C1231 H1237 0.929 . S
N1232 Mn1225 2.257 . S
N1232 C1231 1.326 . S
N1232 C1236 1.362 . S
C1233 C1234 1.258 . S
C1233 C1236 1.431 . S
C1233 C1253 1.449 . S
C1234 C1233 1.258 . S
C1234 C1235 1.477 . S
C1234 H1254 0.931 . S
C1235 C1231 1.460 . S
C1235 C1234 1.477 . S
C1235 H1255 0.930 . S
C1236 N1232 1.362 . S
C1236 C1233 1.431 . S
C1236 C1246 1.476 . S
H1237 C1231 0.929 . S
C1238 O1229 1.250 . S
C1238 O1230 1.258 . S
O1239 Mn1224 2.162 . S
O1239 C1227 1.281 . S
O1240 Mn1224 2.297 . S
O1240 C1227 1.236 . S
N1241 Mn1225 2.282 . S
N1241 C1242 1.328 . S
N1241 C1246 1.318 . S
C1242 N1241 1.328 . S
C1242 C1243 1.457 . S
C1242 H1247 0.929 . S
C1243 C1242 1.457 . S
C1243 C1244 1.291 . S
C1243 H1256 0.931 . S
C1244 C1243 1.291 . S
C1244 C1245 1.373 . S
C1244 H1257 0.929 . S
C1245 C1244 1.373 . S
C1245 C1246 1.396 . S
C1245 C1252 1.403 . S
C1246 C1236 1.476 . S
C1246 N1241 1.318 . S
C1246 C1245 1.396 . S
H1247 C1242 0.929 . S
O1248 Mn1224 2.385 . S
O1248 C1226 1.234 . S
O1249 Mn1224 2.209 . S
O1249 Mn1225 2.215 . S
O1249 C1226 1.283 . S
O1250 Mn1224 2.094 . S
O1250 C1228 1.240 . S
O1251 Mn1225 2.117 . S
O1251 C1228 1.264 . S
C1252 C1245 1.403 . S
C1252 C1253 1.399 . S
C1252 H1258 0.929 . S
C1253 C1233 1.449 . S
C1253 C1252 1.399 . S
C1253 H1259 0.930 . S
H1254 C1234 0.931 . S
H1255 C1235 0.930 . S
H1256 C1243 0.931 . S
H1257 C1244 0.929 . S
H1258 C1252 0.929 . S
H1259 C1253 0.930 . S
Mn1260 O1265 2.095 . S
Mn1260 O1275 2.162 1_565 S
Mn1260 O1276 2.297 . S
Mn1260 O1284 2.385 . S
Mn1260 O1285 2.209 . S
Mn1260 O1286 2.094 . S
Mn1261 O1266 2.121 . S
Mn1261 N1268 2.257 . S
Mn1261 N1277 2.282 . S
Mn1261 O1285 2.215 . S
Mn1261 O1287 2.117 . S
C1262 O1284 1.234 . S
C1262 O1285 1.283 . S
C1263 O1275 1.281 1_565 S
C1263 O1276 1.236 . S
C1264 O1286 1.240 . S
C1264 O1287 1.264 . S
O1265 Mn1260 2.095 . S
O1265 C1274 1.250 . S
O1266 Mn1261 2.121 . S
O1266 C1274 1.258 . S
C1267 N1268 1.326 . S
C1267 C1271 1.460 . S
C1267 H1273 0.929 . S
N1268 Mn1261 2.257 . S
N1268 C1267 1.326 . S
N1268 C1272 1.362 . S
C1269 C1270 1.258 . S
C1269 C1272 1.431 . S
C1269 C1289 1.449 . S
C1270 C1269 1.258 . S
C1270 C1271 1.477 . S
C1270 H1290 0.931 . S
C1271 C1267 1.460 . S
C1271 C1270 1.477 . S
C1271 H1291 0.930 . S
C1272 N1268 1.362 . S
C1272 C1269 1.431 . S
C1272 C1282 1.476 . S
H1273 C1267 0.929 . S
C1274 O1265 1.250 . S
C1274 O1266 1.258 . S
O1275 Mn1260 2.162 1_545 S
O1275 C1263 1.281 1_545 S
O1276 Mn1260 2.297 . S
O1276 C1263 1.236 . S
N1277 Mn1261 2.282 . S
N1277 C1278 1.328 . S
N1277 C1282 1.318 . S
C1278 N1277 1.328 . S
C1278 C1279 1.457 . S
C1278 H1283 0.929 . S
C1279 C1278 1.457 . S
C1279 C1280 1.291 . S
C1279 H1292 0.931 . S
C1280 C1279 1.291 . S
C1280 C1281 1.373 . S
C1280 H1293 0.929 . S
C1281 C1280 1.373 . S
C1281 C1282 1.396 . S
C1281 C1288 1.403 . S
C1282 C1272 1.476 . S
C1282 N1277 1.318 . S
C1282 C1281 1.396 . S
H1283 C1278 0.929 . S
O1284 Mn1260 2.385 . S
O1284 C1262 1.234 . S
O1285 Mn1260 2.209 . S
O1285 Mn1261 2.215 . S
O1285 C1262 1.283 . S
O1286 Mn1260 2.094 . S
O1286 C1264 1.240 . S
O1287 Mn1261 2.117 . S
O1287 C1264 1.264 . S
C1288 C1281 1.403 . S
C1288 C1289 1.399 . S
C1288 H1294 0.929 . S
C1289 C1269 1.449 . S
C1289 C1288 1.399 . S
C1289 H1295 0.930 . S
H1290 C1270 0.931 . S
H1291 C1271 0.930 . S
H1292 C1279 0.931 . S
H1293 C1280 0.929 . S
H1294 C1288 0.929 . S
H1295 C1289 0.930 . S
H1296 C1304 0.950 . S
H1297 C1309 0.950 . S
H1298 C1306 0.950 . S
H1299 C1308 0.950 . S
H1300 C1310 0.950 . S
H1301 C1312 0.950 . S
H1302 C1314 0.950 . S
H1303 C1315 0.950 . S
C1304 H1296 0.950 . S
C1304 C1305 1.386 . S
C1304 C1306 1.391 . S
C1305 C1304 1.386 . S
C1305 C1309 1.393 . S
C1306 H1298 0.950 . S
C1306 C1304 1.391 . S
C1306 C1307 1.400 . S
C1307 C1306 1.400 . S
C1307 C1308 1.398 . S
C1307 C1313 1.491 . S
C1308 H1299 0.950 . S
C1308 C1307 1.398 . S
C1308 C1309 1.391 . S
C1309 H1297 0.950 . S
C1309 C1305 1.393 . S
C1309 C1308 1.391 . S
C1310 H1300 0.950 . S
C1310 C1311 1.386 . S
C1310 C1312 1.391 . S
C1311 C1310 1.386 . S
C1311 C1315 1.393 . S
C1312 H1301 0.950 . S
C1312 C1310 1.391 . S
C1312 C1313 1.400 . S
C1313 C1307 1.491 . S
C1313 C1312 1.400 . S
C1313 C1314 1.398 . S
C1314 H1302 0.950 . S
C1314 C1313 1.398 . S
C1314 C1315 1.391 . S
C1315 H1303 0.950 . S
C1315 C1311 1.393 . S
C1315 C1314 1.391 . S
H1316 C1324 0.950 . S
H1317 C1329 0.950 . S
H1318 C1326 0.950 . S
H1319 C1328 0.950 . S
H1320 C1330 0.950 . S
H1321 C1332 0.950 . S
H1322 C1334 0.950 . S
H1323 C1335 0.950 . S
C1324 H1316 0.950 . S
C1324 C1325 1.386 . S
C1324 C1326 1.391 . S
C1325 C1324 1.386 . S
C1325 C1329 1.393 . S
C1326 H1318 0.950 . S
C1326 C1324 1.391 . S
C1326 C1327 1.400 . S
C1327 C1326 1.400 . S
C1327 C1328 1.398 . S
C1327 C1333 1.491 . S
C1328 H1319 0.950 . S
C1328 C1327 1.398 . S
C1328 C1329 1.391 . S
C1329 H1317 0.950 . S
C1329 C1325 1.393 . S
C1329 C1328 1.391 . S
C1330 H1320 0.950 . S
C1330 C1331 1.386 . S
C1330 C1332 1.391 . S
C1331 C1330 1.386 . S
C1331 C1335 1.393 . S
C1332 H1321 0.950 . S
C1332 C1330 1.391 . S
C1332 C1333 1.400 . S
C1333 C1327 1.491 . S
C1333 C1332 1.400 . S
C1333 C1334 1.398 . S
C1334 H1322 0.950 . S
C1334 C1333 1.398 . S
C1334 C1335 1.391 . S
C1335 H1323 0.950 . S
C1335 C1331 1.393 . S
C1335 C1334 1.391 . S
H1336 C1344 0.950 . S
H1337 C1349 0.950 . S
H1338 C1346 0.950 . S
H1339 C1348 0.950 . S
H1340 C1350 0.950 . S
H1341 C1352 0.950 . S
H1342 C1354 0.950 . S
H1343 C1355 0.950 . S
C1344 H1336 0.950 . S
C1344 C1345 1.386 . S
C1344 C1346 1.391 . S
C1345 C1344 1.386 . S
C1345 C1349 1.393 . S
C1346 H1338 0.950 . S
C1346 C1344 1.391 . S
C1346 C1347 1.400 . S
C1347 C1346 1.400 . S
C1347 C1348 1.398 . S
C1347 C1353 1.491 . S
C1348 H1339 0.950 . S
C1348 C1347 1.398 . S
C1348 C1349 1.391 . S
C1349 H1337 0.950 . S
C1349 C1345 1.393 . S
C1349 C1348 1.391 . S
C1350 H1340 0.950 . S
C1350 C1351 1.386 . S
C1350 C1352 1.391 . S
C1351 C1350 1.386 . S
C1351 C1355 1.393 . S
C1352 H1341 0.950 . S
C1352 C1350 1.391 . S
C1352 C1353 1.400 . S
C1353 C1347 1.491 . S
C1353 C1352 1.400 . S
C1353 C1354 1.398 . S
C1354 H1342 0.950 . S
C1354 C1353 1.398 . S
C1354 C1355 1.391 . S
C1355 H1343 0.950 . S
C1355 C1351 1.393 . S
C1355 C1354 1.391 . S
H1356 C1364 0.950 . S
H1357 C1369 0.950 . S
H1358 C1366 0.950 . S
H1359 C1368 0.950 . S
H1360 C1370 0.950 . S
H1361 C1372 0.950 . S
H1362 C1374 0.950 . S
H1363 C1375 0.950 . S
C1364 H1356 0.950 . S
C1364 C1365 1.386 . S
C1364 C1366 1.391 . S
C1365 C1364 1.386 . S
C1365 C1369 1.393 . S
C1366 H1358 0.950 . S
C1366 C1364 1.391 . S
C1366 C1367 1.400 . S
C1367 C1366 1.400 . S
C1367 C1368 1.398 . S
C1367 C1373 1.491 . S
C1368 H1359 0.950 . S
C1368 C1367 1.398 . S
C1368 C1369 1.391 . S
C1369 H1357 0.950 . S
C1369 C1365 1.393 . S
C1369 C1368 1.391 . S
C1370 H1360 0.950 . S
C1370 C1371 1.386 . S
C1370 C1372 1.391 . S
C1371 C1370 1.386 . S
C1371 C1375 1.393 . S
C1372 H1361 0.950 . S
C1372 C1370 1.391 . S
C1372 C1373 1.400 . S
C1373 C1367 1.491 . S
C1373 C1372 1.400 . S
C1373 C1374 1.398 . S
C1374 H1362 0.950 . S
C1374 C1373 1.398 . S
C1374 C1375 1.391 . S
C1375 H1363 0.950 . S
C1375 C1371 1.393 . S
C1375 C1374 1.391 . S
H1376 C1384 0.950 . S
H1377 C1389 0.950 . S
H1378 C1386 0.950 . S
H1379 C1388 0.950 . S
H1380 C1390 0.950 . S
H1381 C1392 0.950 . S
H1382 C1394 0.950 . S
H1383 C1395 0.950 . S
C1384 H1376 0.950 . S
C1384 C1385 1.386 . S
C1384 C1386 1.391 . S
C1385 C1384 1.386 . S
C1385 C1389 1.393 . S
C1386 H1378 0.950 . S
C1386 C1384 1.391 . S
C1386 C1387 1.400 . S
C1387 C1386 1.400 . S
C1387 C1388 1.398 . S
C1387 C1393 1.491 . S
C1388 H1379 0.950 . S
C1388 C1387 1.398 . S
C1388 C1389 1.391 . S
C1389 H1377 0.950 . S
C1389 C1385 1.393 . S
C1389 C1388 1.391 . S
C1390 H1380 0.950 . S
C1390 C1391 1.386 . S
C1390 C1392 1.391 . S
C1391 C1390 1.386 . S
C1391 C1395 1.393 . S
C1392 H1381 0.950 . S
C1392 C1390 1.391 . S
C1392 C1393 1.400 . S
C1393 C1387 1.491 . S
C1393 C1392 1.400 . S
C1393 C1394 1.398 . S
C1394 H1382 0.950 . S
C1394 C1393 1.398 . S
C1394 C1395 1.391 . S
C1395 H1383 0.950 . S
C1395 C1391 1.393 . S
C1395 C1394 1.391 . S
H1396 C1404 0.950 . S
H1397 C1409 0.950 . S
H1398 C1406 0.950 . S
H1399 C1408 0.950 . S
H1400 C1410 0.950 . S
H1401 C1412 0.950 . S
H1402 C1414 0.950 . S
H1403 C1415 0.950 . S
C1404 H1396 0.950 . S
C1404 C1405 1.386 . S
C1404 C1406 1.391 . S
C1405 C1404 1.386 . S
C1405 C1409 1.393 . S
C1406 H1398 0.950 . S
C1406 C1404 1.391 . S
C1406 C1407 1.400 . S
C1407 C1406 1.400 . S
C1407 C1408 1.398 . S
C1407 C1413 1.491 . S
C1408 H1399 0.950 . S
C1408 C1407 1.398 . S
C1408 C1409 1.391 . S
C1409 H1397 0.950 . S
C1409 C1405 1.393 . S
C1409 C1408 1.391 . S
C1410 H1400 0.950 . S
C1410 C1411 1.386 . S
C1410 C1412 1.391 . S
C1411 C1410 1.386 . S
C1411 C1415 1.393 . S
C1412 H1401 0.950 . S
C1412 C1410 1.391 . S
C1412 C1413 1.400 . S
C1413 C1407 1.491 . S
C1413 C1412 1.400 . S
C1413 C1414 1.398 . S
C1414 H1402 0.950 . S
C1414 C1413 1.398 . S
C1414 C1415 1.391 . S
C1415 H1403 0.950 . S
C1415 C1411 1.393 . S
C1415 C1414 1.391 . S
H1416 C1424 0.950 . S
H1417 C1429 0.950 . S
H1418 C1426 0.950 . S
H1419 C1428 0.950 . S
H1420 C1430 0.950 . S
H1421 C1432 0.950 . S
H1422 C1434 0.950 . S
H1423 C1435 0.950 . S
C1424 H1416 0.950 . S
C1424 C1425 1.386 . S
C1424 C1426 1.391 . S
C1425 C1424 1.386 . S
C1425 C1429 1.393 . S
C1426 H1418 0.950 . S
C1426 C1424 1.391 . S
C1426 C1427 1.400 . S
C1427 C1426 1.400 . S
C1427 C1428 1.398 . S
C1427 C1433 1.491 . S
C1428 H1419 0.950 . S
C1428 C1427 1.398 . S
C1428 C1429 1.391 . S
C1429 H1417 0.950 . S
C1429 C1425 1.393 . S
C1429 C1428 1.391 . S
C1430 H1420 0.950 . S
C1430 C1431 1.386 . S
C1430 C1432 1.391 . S
C1431 C1430 1.386 . S
C1431 C1435 1.393 . S
C1432 H1421 0.950 . S
C1432 C1430 1.391 . S
C1432 C1433 1.400 . S
C1433 C1427 1.491 . S
C1433 C1432 1.400 . S
C1433 C1434 1.398 . S
C1434 H1422 0.950 . S
C1434 C1433 1.398 . S
C1434 C1435 1.391 . S
C1435 H1423 0.950 . S
C1435 C1431 1.393 . S
C1435 C1434 1.391 . S
H1436 C1444 0.950 . S
H1437 C1449 0.950 . S
H1438 C1446 0.950 . S
H1439 C1448 0.950 . S
H1440 C1450 0.950 . S
H1441 C1452 0.950 . S
H1442 C1454 0.950 . S
H1443 C1455 0.950 . S
C1444 H1436 0.950 . S
C1444 C1445 1.386 . S
C1444 C1446 1.391 . S
C1445 C1444 1.386 . S
C1445 C1449 1.393 . S
C1446 H1438 0.950 . S
C1446 C1444 1.391 . S
C1446 C1447 1.400 . S
C1447 C1446 1.400 . S
C1447 C1448 1.398 . S
C1447 C1453 1.491 . S
C1448 H1439 0.950 . S
C1448 C1447 1.398 . S
C1448 C1449 1.391 . S
C1449 H1437 0.950 . S
C1449 C1445 1.393 . S
C1449 C1448 1.391 . S
C1450 H1440 0.950 . S
C1450 C1451 1.386 . S
C1450 C1452 1.391 . S
C1451 C1450 1.386 . S
C1451 C1455 1.393 . S
C1452 H1441 0.950 . S
C1452 C1450 1.391 . S
C1452 C1453 1.400 . S
C1453 C1447 1.491 . S
C1453 C1452 1.400 . S
C1453 C1454 1.398 . S
C1454 H1442 0.950 . S
C1454 C1453 1.398 . S
C1454 C1455 1.391 . S
C1455 H1443 0.950 . S
C1455 C1451 1.393 . S
C1455 C1454 1.391 . S
H1456 C1464 0.950 . S
H1457 C1469 0.950 . S
H1458 C1466 0.950 . S
H1459 C1468 0.950 . S
H1460 C1470 0.950 . S
H1461 C1472 0.950 . S
H1462 C1474 0.950 . S
H1463 C1475 0.950 . S
C1464 H1456 0.950 . S
C1464 C1465 1.386 . S
C1464 C1466 1.391 . S
C1465 C1464 1.386 . S
C1465 C1469 1.393 . S
C1466 H1458 0.950 . S
C1466 C1464 1.391 . S
C1466 C1467 1.400 . S
C1467 C1466 1.400 . S
C1467 C1468 1.398 . S
C1467 C1473 1.491 . S
C1468 H1459 0.950 . S
C1468 C1467 1.398 . S
C1468 C1469 1.391 . S
C1469 H1457 0.950 . S
C1469 C1465 1.393 . S
C1469 C1468 1.391 . S
C1470 H1460 0.950 . S
C1470 C1471 1.386 . S
C1470 C1472 1.391 . S
C1471 C1470 1.386 . S
C1471 C1475 1.393 . S
C1472 H1461 0.950 . S
C1472 C1470 1.391 . S
C1472 C1473 1.400 . S
C1473 C1467 1.491 . S
C1473 C1472 1.400 . S
C1473 C1474 1.398 . S
C1474 H1462 0.950 . S
C1474 C1473 1.398 . S
C1474 C1475 1.391 . S
C1475 H1463 0.950 . S
C1475 C1471 1.393 . S
C1475 C1474 1.391 . S
H1476 C1484 0.950 1_455 S
H1477 C1489 0.950 . S
H1478 C1486 0.950 1_455 S
H1479 C1488 0.950 . S
H1480 C1490 0.950 . S
H1481 C1492 0.950 . S
H1482 C1494 0.950 1_455 S
H1483 C1495 0.950 1_455 S
C1484 H1476 0.950 1_655 S
C1484 C1485 1.386 . S
C1484 C1486 1.391 . S
C1485 C1484 1.386 . S
C1485 C1489 1.393 . S
C1486 H1478 0.950 1_655 S
C1486 C1484 1.391 . S
C1486 C1487 1.400 . S
C1487 C1486 1.400 . S
C1487 C1488 1.398 . S
C1487 C1493 1.491 . S
C1488 H1479 0.950 . S
C1488 C1487 1.398 . S
C1488 C1489 1.391 . S
C1489 H1477 0.950 . S
C1489 C1485 1.393 . S
C1489 C1488 1.391 . S
C1490 H1480 0.950 . S
C1490 C1491 1.386 . S
C1490 C1492 1.391 . S
C1491 C1490 1.386 . S
C1491 C1495 1.393 . S
C1492 H1481 0.950 . S
C1492 C1490 1.391 . S
C1492 C1493 1.400 . S
C1493 C1487 1.491 . S
C1493 C1492 1.400 . S
C1493 C1494 1.398 . S
C1494 H1482 0.950 1_655 S
C1494 C1493 1.398 . S
C1494 C1495 1.391 . S
C1495 H1483 0.950 1_655 S
C1495 C1491 1.393 . S
C1495 C1494 1.391 . S
H1496 C1504 0.950 . S
H1497 C1509 0.950 . S
H1498 C1506 0.950 . S
H1499 C1508 0.950 . S
H1500 C1510 0.950 . S
H1501 C1512 0.950 . S
H1502 C1514 0.950 . S
H1503 C1515 0.950 . S
C1504 H1496 0.950 . S
C1504 C1505 1.386 . S
C1504 C1506 1.391 . S
C1505 C1504 1.386 . S
C1505 C1509 1.393 . S
C1506 H1498 0.950 . S
C1506 C1504 1.391 . S
C1506 C1507 1.400 . S
C1507 C1506 1.400 . S
C1507 C1508 1.398 . S
C1507 C1513 1.491 . S
C1508 H1499 0.950 . S
C1508 C1507 1.398 . S
C1508 C1509 1.391 . S
C1509 H1497 0.950 . S
C1509 C1505 1.393 . S
C1509 C1508 1.391 . S
C1510 H1500 0.950 . S
C1510 C1511 1.386 . S
C1510 C1512 1.391 . S
C1511 C1510 1.386 . S
C1511 C1515 1.393 . S
C1512 H1501 0.950 . S
C1512 C1510 1.391 . S
C1512 C1513 1.400 . S
C1513 C1507 1.491 . S
C1513 C1512 1.400 . S
C1513 C1514 1.398 . S
C1514 H1502 0.950 . S
C1514 C1513 1.398 . S
C1514 C1515 1.391 . S
C1515 H1503 0.950 . S
C1515 C1511 1.393 . S
C1515 C1514 1.391 . S
H1516 C1524 0.950 . S
H1517 C1529 0.950 . S
H1518 C1526 0.950 . S
H1519 C1528 0.950 . S
H1520 C1530 0.950 . S
H1521 C1532 0.950 . S
H1522 C1534 0.950 . S
H1523 C1535 0.950 . S
C1524 H1516 0.950 . S
C1524 C1525 1.386 . S
C1524 C1526 1.391 . S
C1525 C1524 1.386 . S
C1525 C1529 1.393 . S
C1526 H1518 0.950 . S
C1526 C1524 1.391 . S
C1526 C1527 1.400 . S
C1527 C1526 1.400 . S
C1527 C1528 1.398 . S
C1527 C1533 1.491 . S
C1528 H1519 0.950 . S
C1528 C1527 1.398 . S
C1528 C1529 1.391 . S
C1529 H1517 0.950 . S
C1529 C1525 1.393 . S
C1529 C1528 1.391 . S
C1530 H1520 0.950 . S
C1530 C1531 1.386 . S
C1530 C1532 1.391 . S
C1531 C1530 1.386 . S
C1531 C1535 1.393 . S
C1532 H1521 0.950 . S
C1532 C1530 1.391 . S
C1532 C1533 1.400 . S
C1533 C1527 1.491 . S
C1533 C1532 1.400 . S
C1533 C1534 1.398 . S
C1534 H1522 0.950 . S
C1534 C1533 1.398 . S
C1534 C1535 1.391 . S
C1535 H1523 0.950 . S
C1535 C1531 1.393 . S
C1535 C1534 1.391 . S
H1536 C1544 0.950 1_545 S
H1537 C1549 0.950 . S
H1538 C1546 0.950 1_545 S
H1539 C1548 0.950 . S
H1540 C1550 0.950 . S
H1541 C1552 0.950 . S
H1542 C1554 0.950 1_545 S
H1543 C1555 0.950 1_545 S
C1544 H1536 0.950 1_565 S
C1544 C1545 1.386 . S
C1544 C1546 1.391 . S
C1545 C1544 1.386 . S
C1545 C1549 1.393 . S
C1546 H1538 0.950 1_565 S
C1546 C1544 1.391 . S
C1546 C1547 1.400 . S
C1547 C1546 1.400 . S
C1547 C1548 1.398 . S
C1547 C1553 1.491 . S
C1548 H1539 0.950 . S
C1548 C1547 1.398 . S
C1548 C1549 1.391 . S
C1549 H1537 0.950 . S
C1549 C1545 1.393 . S
C1549 C1548 1.391 . S
C1550 H1540 0.950 . S
C1550 C1551 1.386 . S
C1550 C1552 1.391 . S
C1551 C1550 1.386 . S
C1551 C1555 1.393 . S
C1552 H1541 0.950 . S
C1552 C1550 1.391 . S
C1552 C1553 1.400 . S
C1553 C1547 1.491 . S
C1553 C1552 1.400 . S
C1553 C1554 1.398 . S
C1554 H1542 0.950 1_565 S
C1554 C1553 1.398 . S
C1554 C1555 1.391 . S
C1555 H1543 0.950 1_565 S
C1555 C1551 1.393 . S
C1555 C1554 1.391 . S
H1556 C1564 0.950 . S
H1557 C1569 0.950 . S
H1558 C1566 0.950 . S
H1559 C1568 0.950 . S
H1560 C1570 0.950 . S
H1561 C1572 0.950 . S
H1562 C1574 0.950 . S
H1563 C1575 0.950 . S
C1564 H1556 0.950 . S
C1564 C1565 1.386 . S
C1564 C1566 1.391 . S
C1565 C1564 1.386 . S
C1565 C1569 1.393 . S
C1566 H1558 0.950 . S
C1566 C1564 1.391 . S
C1566 C1567 1.400 . S
C1567 C1566 1.400 . S
C1567 C1568 1.398 . S
C1567 C1573 1.491 . S
C1568 H1559 0.950 . S
C1568 C1567 1.398 . S
C1568 C1569 1.391 . S
C1569 H1557 0.950 . S
C1569 C1565 1.393 . S
C1569 C1568 1.391 . S
C1570 H1560 0.950 . S
C1570 C1571 1.386 . S
C1570 C1572 1.391 . S
C1571 C1570 1.386 . S
C1571 C1575 1.393 . S
C1572 H1561 0.950 . S
C1572 C1570 1.391 . S
C1572 C1573 1.400 . S
C1573 C1567 1.491 . S
C1573 C1572 1.400 . S
C1573 C1574 1.398 . S
C1574 H1562 0.950 . S
C1574 C1573 1.398 . S
C1574 C1575 1.391 . S
C1575 H1563 0.950 . S
C1575 C1571 1.393 . S
C1575 C1574 1.391 . S
H1576 C1584 0.950 . S
H1577 C1589 0.950 . S
H1578 C1586 0.950 . S
H1579 C1588 0.950 . S
H1580 C1590 0.950 . S
H1581 C1592 0.950 . S
H1582 C1594 0.950 . S
H1583 C1595 0.950 . S
C1584 H1576 0.950 . S
C1584 C1585 1.386 . S
C1584 C1586 1.391 . S
C1585 C1584 1.386 . S
C1585 C1589 1.393 . S
C1586 H1578 0.950 . S
C1586 C1584 1.391 . S
C1586 C1587 1.400 . S
C1587 C1586 1.400 . S
C1587 C1588 1.398 . S
C1587 C1593 1.491 . S
C1588 H1579 0.950 . S
C1588 C1587 1.398 . S
C1588 C1589 1.391 . S
C1589 H1577 0.950 . S
C1589 C1585 1.393 . S
C1589 C1588 1.391 . S
C1590 H1580 0.950 . S
C1590 C1591 1.386 . S
C1590 C1592 1.391 . S
C1591 C1590 1.386 . S
C1591 C1595 1.393 . S
C1592 H1581 0.950 . S
C1592 C1590 1.391 . S
C1592 C1593 1.400 . S
C1593 C1587 1.491 . S
C1593 C1592 1.400 . S
C1593 C1594 1.398 . S
C1594 H1582 0.950 . S
C1594 C1593 1.398 . S
C1594 C1595 1.391 . S
C1595 H1583 0.950 . S
C1595 C1591 1.393 . S
C1595 C1594 1.391 . S
H1596 C1604 0.950 . S
H1597 C1609 0.950 . S
H1598 C1606 0.950 . S
H1599 C1608 0.950 . S
H1600 C1610 0.950 . S
H1601 C1612 0.950 . S
H1602 C1614 0.950 . S
H1603 C1615 0.950 . S
C1604 H1596 0.950 . S
C1604 C1605 1.386 . S
C1604 C1606 1.391 . S
C1605 C1604 1.386 . S
C1605 C1609 1.393 . S
C1606 H1598 0.950 . S
C1606 C1604 1.391 . S
C1606 C1607 1.400 . S
C1607 C1606 1.400 . S
C1607 C1608 1.398 . S
C1607 C1613 1.491 . S
C1608 H1599 0.950 . S
C1608 C1607 1.398 . S
C1608 C1609 1.391 . S
C1609 H1597 0.950 . S
C1609 C1605 1.393 . S
C1609 C1608 1.391 . S
C1610 H1600 0.950 . S
C1610 C1611 1.386 . S
C1610 C1612 1.391 . S
C1611 C1610 1.386 . S
C1611 C1615 1.393 . S
C1612 H1601 0.950 . S
C1612 C1610 1.391 . S
C1612 C1613 1.400 . S
C1613 C1607 1.491 . S
C1613 C1612 1.400 . S
C1613 C1614 1.398 . S
C1614 H1602 0.950 . S
C1614 C1613 1.398 . S
C1614 C1615 1.391 . S
C1615 H1603 0.950 . S
C1615 C1611 1.393 . S
C1615 C1614 1.391 . S
H1616 C1624 0.950 . S
H1617 C1629 0.950 . S
H1618 C1626 0.950 . S
H1619 C1628 0.950 . S
H1620 C1630 0.950 . S
H1621 C1632 0.950 . S
H1622 C1634 0.950 . S
H1623 C1635 0.950 . S
C1624 H1616 0.950 . S
C1624 C1625 1.386 . S
C1624 C1626 1.391 . S
C1625 C1624 1.386 . S
C1625 C1629 1.393 . S
C1626 H1618 0.950 . S
C1626 C1624 1.391 . S
C1626 C1627 1.400 . S
C1627 C1626 1.400 . S
C1627 C1628 1.398 . S
C1627 C1633 1.491 . S
C1628 H1619 0.950 . S
C1628 C1627 1.398 . S
C1628 C1629 1.391 . S
C1629 H1617 0.950 . S
C1629 C1625 1.393 . S
C1629 C1628 1.391 . S
C1630 H1620 0.950 . S
C1630 C1631 1.386 . S
C1630 C1632 1.391 . S
C1631 C1630 1.386 . S
C1631 C1635 1.393 . S
C1632 H1621 0.950 . S
C1632 C1630 1.391 . S
C1632 C1633 1.400 . S
C1633 C1627 1.491 . S
C1633 C1632 1.400 . S
C1633 C1634 1.398 . S
C1634 H1622 0.950 . S
C1634 C1633 1.398 . S
C1634 C1635 1.391 . S
C1635 H1623 0.950 . S
C1635 C1631 1.393 . S
C1635 C1634 1.391 . S
H1636 C1644 0.950 . S
H1637 C1649 0.950 . S
H1638 C1646 0.950 . S
H1639 C1648 0.950 . S
H1640 C1650 0.950 . S
H1641 C1652 0.950 . S
H1642 C1654 0.950 . S
H1643 C1655 0.950 . S
C1644 H1636 0.950 . S
C1644 C1645 1.386 . S
C1644 C1646 1.391 . S
C1645 C1644 1.386 . S
C1645 C1649 1.393 . S
C1646 H1638 0.950 . S
C1646 C1644 1.391 . S
C1646 C1647 1.400 . S
C1647 C1646 1.400 . S
C1647 C1648 1.398 . S
C1647 C1653 1.491 . S
C1648 H1639 0.950 . S
C1648 C1647 1.398 . S
C1648 C1649 1.391 . S
C1649 H1637 0.950 . S
C1649 C1645 1.393 . S
C1649 C1648 1.391 . S
C1650 H1640 0.950 . S
C1650 C1651 1.386 . S
C1650 C1652 1.391 . S
C1651 C1650 1.386 . S
C1651 C1655 1.393 . S
C1652 H1641 0.950 . S
C1652 C1650 1.391 . S
C1652 C1653 1.400 . S
C1653 C1647 1.491 . S
C1653 C1652 1.400 . S
C1653 C1654 1.398 . S
C1654 H1642 0.950 . S
C1654 C1653 1.398 . S
C1654 C1655 1.391 . S
C1655 H1643 0.950 . S
C1655 C1651 1.393 . S
C1655 C1654 1.391 . S
H1656 C1664 0.950 . S
H1657 C1669 0.950 . S
H1658 C1666 0.950 . S
H1659 C1668 0.950 . S
H1660 C1670 0.950 . S
H1661 C1672 0.950 . S
H1662 C1674 0.950 . S
H1663 C1675 0.950 . S
C1664 H1656 0.950 . S
C1664 C1665 1.386 . S
C1664 C1666 1.391 . S
C1665 C1664 1.386 . S
C1665 C1669 1.393 1_455 S
C1666 H1658 0.950 . S
C1666 C1664 1.391 . S
C1666 C1667 1.400 . S
C1667 C1666 1.400 . S
C1667 C1668 1.398 1_455 S
C1667 C1673 1.491 . S
C1668 H1659 0.950 . S
C1668 C1667 1.398 1_655 S
C1668 C1669 1.391 . S
C1669 H1657 0.950 . S
C1669 C1665 1.393 1_655 S
C1669 C1668 1.391 . S
C1670 H1660 0.950 . S
C1670 C1671 1.386 . S
C1670 C1672 1.391 . S
C1671 C1670 1.386 . S
C1671 C1675 1.393 1_655 S
C1672 H1661 0.950 . S
C1672 C1670 1.391 . S
C1672 C1673 1.400 1_655 S
C1673 C1667 1.491 . S
C1673 C1672 1.400 1_455 S
C1673 C1674 1.398 . S
C1674 H1662 0.950 . S
C1674 C1673 1.398 . S
C1674 C1675 1.391 . S
C1675 H1663 0.950 . S
C1675 C1671 1.393 1_455 S
C1675 C1674 1.391 . S
H1676 C1684 0.950 . S
H1677 C1689 0.950 . S
H1678 C1686 0.950 . S
H1679 C1688 0.950 . S
H1680 C1690 0.950 . S
H1681 C1692 0.950 . S
H1682 C1694 0.950 . S
H1683 C1695 0.950 . S
C1684 H1676 0.950 . S
C1684 C1685 1.386 . S
C1684 C1686 1.391 . S
C1685 C1684 1.386 . S
C1685 C1689 1.393 . S
C1686 H1678 0.950 . S
C1686 C1684 1.391 . S
C1686 C1687 1.400 . S
C1687 C1686 1.400 . S
C1687 C1688 1.398 . S
C1687 C1693 1.491 . S
C1688 H1679 0.950 . S
C1688 C1687 1.398 . S
C1688 C1689 1.391 . S
C1689 H1677 0.950 . S
C1689 C1685 1.393 . S
C1689 C1688 1.391 . S
C1690 H1680 0.950 . S
C1690 C1691 1.386 . S
C1690 C1692 1.391 . S
C1691 C1690 1.386 . S
C1691 C1695 1.393 . S
C1692 H1681 0.950 . S
C1692 C1690 1.391 . S
C1692 C1693 1.400 . S
C1693 C1687 1.491 . S
C1693 C1692 1.400 . S
C1693 C1694 1.398 . S
C1694 H1682 0.950 . S
C1694 C1693 1.398 . S
C1694 C1695 1.391 . S
C1695 H1683 0.950 . S
C1695 C1691 1.393 . S
C1695 C1694 1.391 . S
H1696 C1704 0.950 . S
H1697 C1709 0.944 1_565 S
H1698 C1706 0.950 . S
H1699 C1708 0.950 . S
H1700 C1710 0.950 . S
H1701 C1712 0.950 . S
H1702 C1714 0.950 . S
H1703 C1715 0.950 . S
C1704 H1696 0.950 . S
C1704 C1705 1.386 . S
C1704 C1706 1.391 . S
C1705 C1704 1.386 . S
C1705 C1709 1.393 . S
C1706 H1698 0.950 . S
C1706 C1704 1.391 . S
C1706 C1707 1.400 . S
C1707 C1706 1.400 . S
C1707 C1708 1.398 . S
C1707 C1713 1.491 . S
C1708 H1699 0.950 . S
C1708 C1707 1.398 . S
C1708 C1709 1.391 . S
C1709 H1697 0.944 1_545 S
C1709 C1705 1.393 . S
C1709 C1708 1.391 . S
C1710 H1700 0.950 . S
C1710 C1711 1.386 . S
C1710 C1712 1.391 . S
C1711 C1710 1.386 . S
C1711 C1715 1.393 . S
C1712 H1701 0.950 . S
C1712 C1710 1.391 . S
C1712 C1713 1.400 . S
C1713 C1707 1.491 . S
C1713 C1712 1.400 . S
C1713 C1714 1.398 . S
C1714 H1702 0.950 . S
C1714 C1713 1.398 . S
C1714 C1715 1.391 . S
C1715 H1703 0.950 . S
C1715 C1711 1.393 . S
C1715 C1714 1.391 . S
H1716 C1724 0.950 . S
H1717 C1729 0.950 . S
H1718 C1726 0.950 . S
H1719 C1728 0.950 . S
H1720 C1730 0.950 . S
H1721 C1732 0.950 . S
H1722 C1734 0.950 . S
H1723 C1735 0.950 . S
C1724 H1716 0.950 . S
C1724 C1725 1.386 . S
C1724 C1726 1.391 . S
C1725 C1724 1.386 . S
C1725 C1729 1.393 . S
C1726 H1718 0.950 . S
C1726 C1724 1.391 . S
C1726 C1727 1.400 . S
C1727 C1726 1.400 . S
C1727 C1728 1.398 . S
C1727 C1733 1.491 . S
C1728 H1719 0.950 . S
C1728 C1727 1.398 . S
C1728 C1729 1.391 . S
C1729 H1717 0.950 . S
C1729 C1725 1.393 . S
C1729 C1728 1.391 . S
C1730 H1720 0.950 . S
C1730 C1731 1.386 1_545 S
C1730 C1732 1.391 . S
C1731 C1730 1.386 1_565 S
C1731 C1735 1.393 . S
C1732 H1721 0.950 . S
C1732 C1730 1.391 . S
C1732 C1733 1.400 . S
C1733 C1727 1.491 . S
C1733 C1732 1.400 . S
C1733 C1734 1.398 1_545 S
C1734 H1722 0.950 . S
C1734 C1733 1.398 1_565 S
C1734 C1735 1.391 . S
C1735 H1723 0.950 . S
C1735 C1731 1.393 . S
C1735 C1734 1.391 . S
H1736 C1744 0.950 . S
H1737 C1749 0.950 . S
H1738 C1746 0.950 . S
H1739 C1748 0.950 . S
H1740 C1750 0.950 . S
H1741 C1752 0.950 . S
H1742 C1754 0.950 . S
H1743 C1755 0.950 . S
C1744 H1736 0.950 . S
C1744 C1745 1.386 . S
C1744 C1746 1.391 . S
C1745 C1744 1.386 . S
C1745 C1749 1.393 . S
C1746 H1738 0.950 . S
C1746 C1744 1.391 . S
C1746 C1747 1.400 . S
C1747 C1746 1.400 . S
C1747 C1748 1.398 . S
C1747 C1753 1.491 . S
C1748 H1739 0.950 . S
C1748 C1747 1.398 . S
C1748 C1749 1.391 . S
C1749 H1737 0.950 . S
C1749 C1745 1.393 . S
C1749 C1748 1.391 . S
C1750 H1740 0.950 . S
C1750 C1751 1.386 . S
C1750 C1752 1.391 . S
C1751 C1750 1.386 . S
C1751 C1755 1.393 . S
C1752 H1741 0.950 . S
C1752 C1750 1.391 . S
C1752 C1753 1.400 . S
C1753 C1747 1.491 . S
C1753 C1752 1.400 . S
C1753 C1754 1.398 . S
C1754 H1742 0.950 . S
C1754 C1753 1.398 . S
C1754 C1755 1.391 . S
C1755 H1743 0.950 . S
C1755 C1751 1.393 . S
C1755 C1754 1.391 . S
H1756 C1764 0.950 . S
H1757 C1769 0.950 . S
H1758 C1766 0.950 . S
H1759 C1768 0.950 . S
H1760 C1770 0.950 . S
H1761 C1772 0.950 . S
H1762 C1774 0.950 . S
H1763 C1775 0.950 . S
C1764 H1756 0.950 . S
C1764 C1765 1.386 . S
C1764 C1766 1.391 . S
C1765 C1764 1.386 . S
C1765 C1769 1.393 . S
C1766 H1758 0.950 . S
C1766 C1764 1.391 . S
C1766 C1767 1.400 . S
C1767 C1766 1.400 . S
C1767 C1768 1.398 . S
C1767 C1773 1.491 . S
C1768 H1759 0.950 . S
C1768 C1767 1.398 . S
C1768 C1769 1.391 . S
C1769 H1757 0.950 . S
C1769 C1765 1.393 . S
C1769 C1768 1.391 . S
C1770 H1760 0.950 . S
C1770 C1771 1.386 . S
C1770 C1772 1.391 . S
C1771 C1770 1.386 . S
C1771 C1775 1.393 . S
C1772 H1761 0.950 . S
C1772 C1770 1.391 . S
C1772 C1773 1.400 . S
C1773 C1767 1.491 . S
C1773 C1772 1.400 . S
C1773 C1774 1.398 . S
C1774 H1762 0.950 . S
C1774 C1773 1.398 . S
C1774 C1775 1.391 . S
C1775 H1763 0.950 . S
C1775 C1771 1.393 . S
C1775 C1774 1.391 . S
H1776 C1784 0.950 1_655 S
H1777 C1789 0.950 . S
H1778 C1786 0.950 . S
H1779 C1788 0.950 . S
H1780 C1790 0.950 . S
H1781 C1792 0.950 . S
H1782 C1794 0.950 . S
H1783 C1795 0.950 . S
C1784 H1776 0.950 1_455 S
C1784 C1785 1.386 . S
C1784 C1786 1.391 . S
C1785 C1784 1.386 . S
C1785 C1789 1.393 . S
C1786 H1778 0.950 . S
C1786 C1784 1.391 . S
C1786 C1787 1.400 . S
C1787 C1786 1.400 . S
C1787 C1788 1.398 . S
C1787 C1793 1.491 . S
C1788 H1779 0.950 . S
C1788 C1787 1.398 . S
C1788 C1789 1.391 . S
C1789 H1777 0.950 . S
C1789 C1785 1.393 . S
C1789 C1788 1.391 . S
C1790 H1780 0.950 . S
C1790 C1791 1.386 . S
C1790 C1792 1.391 . S
C1791 C1790 1.386 . S
C1791 C1795 1.393 . S
C1792 H1781 0.950 . S
C1792 C1790 1.391 . S
C1792 C1793 1.400 . S
C1793 C1787 1.491 . S
C1793 C1792 1.400 . S
C1793 C1794 1.398 . S
C1794 H1782 0.950 . S
C1794 C1793 1.398 . S
C1794 C1795 1.391 . S
C1795 H1783 0.950 . S
C1795 C1791 1.393 . S
C1795 C1794 1.391 . S
H1796 C1804 0.950 . S
H1797 C1809 0.950 . S
H1798 C1806 0.950 . S
H1799 C1808 0.950 . S
H1800 C1810 0.950 . S
H1801 C1812 0.950 . S
H1802 C1814 0.950 . S
H1803 C1815 0.950 . S
C1804 H1796 0.950 . S
C1804 C1805 1.386 . S
C1804 C1806 1.391 . S
C1805 C1804 1.386 . S
C1805 C1809 1.393 . S
C1806 H1798 0.950 . S
C1806 C1804 1.391 . S
C1806 C1807 1.400 . S
C1807 C1806 1.400 . S
C1807 C1808 1.398 . S
C1807 C1813 1.491 . S
C1808 H1799 0.950 . S
C1808 C1807 1.398 . S
C1808 C1809 1.391 . S
C1809 H1797 0.950 . S
C1809 C1805 1.393 . S
C1809 C1808 1.391 . S
C1810 H1800 0.950 . S
C1810 C1811 1.386 . S
C1810 C1812 1.391 . S
C1811 C1810 1.386 . S
C1811 C1815 1.393 . S
C1812 H1801 0.950 . S
C1812 C1810 1.391 . S
C1812 C1813 1.400 . S
C1813 C1807 1.491 . S
C1813 C1812 1.400 . S
C1813 C1814 1.398 . S
C1814 H1802 0.950 . S
C1814 C1813 1.398 . S
C1814 C1815 1.391 . S
C1815 H1803 0.950 . S
C1815 C1811 1.393 . S
C1815 C1814 1.391 . S
H1816 C1824 0.950 . S
H1817 C1829 0.950 . S
H1818 C1826 0.950 . S
H1819 C1828 0.950 . S
H1820 C1830 0.950 . S
H1821 C1832 0.950 . S
H1822 C1834 0.950 . S
H1823 C1835 0.950 . S
C1824 H1816 0.950 . S
C1824 C1825 1.386 1_565 S
C1824 C1826 1.391 . S
C1825 C1824 1.386 1_545 S
C1825 C1829 1.393 . S
C1826 H1818 0.950 . S
C1826 C1824 1.391 . S
C1826 C1827 1.400 1_565 S
C1827 C1826 1.400 1_545 S
C1827 C1828 1.398 . S
C1827 C1833 1.491 . S
C1828 H1819 0.950 . S
C1828 C1827 1.398 . S
C1828 C1829 1.391 . S
C1829 H1817 0.950 . S
C1829 C1825 1.393 . S
C1829 C1828 1.391 . S
C1830 H1820 0.950 . S
C1830 C1831 1.386 1_545 S
C1830 C1832 1.391 . S
C1831 C1830 1.386 1_565 S
C1831 C1835 1.393 . S
C1832 H1821 0.950 . S
C1832 C1830 1.391 . S
C1832 C1833 1.400 . S
C1833 C1827 1.491 . S
C1833 C1832 1.400 . S
C1833 C1834 1.398 1_545 S
C1834 H1822 0.950 . S
C1834 C1833 1.398 1_565 S
C1834 C1835 1.391 . S
C1835 H1823 0.950 . S
C1835 C1831 1.393 . S
C1835 C1834 1.391 . S
H1836 C1844 0.950 . S
H1837 C1849 0.950 . S
H1838 C1846 0.950 . S
H1839 C1848 0.950 . S
H1840 C1850 0.950 . S
H1841 C1852 0.950 . S
H1842 C1854 0.950 . S
H1843 C1855 0.950 . S
C1844 H1836 0.950 . S
C1844 C1845 1.386 . S
C1844 C1846 1.391 . S
C1845 C1844 1.386 . S
C1845 C1849 1.393 . S
C1846 H1838 0.950 . S
C1846 C1844 1.391 . S
C1846 C1847 1.400 . S
C1847 C1846 1.400 . S
C1847 C1848 1.398 . S
C1847 C1853 1.491 . S
C1848 H1839 0.950 . S
C1848 C1847 1.398 . S
C1848 C1849 1.391 . S
C1849 H1837 0.950 . S
C1849 C1845 1.393 . S
C1849 C1848 1.391 . S
C1850 H1840 0.950 . S
C1850 C1851 1.386 . S
C1850 C1852 1.391 . S
C1851 C1850 1.386 . S
C1851 C1855 1.393 . S
C1852 H1841 0.950 . S
C1852 C1850 1.391 . S
C1852 C1853 1.400 . S
C1853 C1847 1.491 . S
C1853 C1852 1.400 . S
C1853 C1854 1.398 . S
C1854 H1842 0.950 . S
C1854 C1853 1.398 . S
C1854 C1855 1.391 . S
C1855 H1843 0.950 . S
C1855 C1851 1.393 . S
C1855 C1854 1.391 . S
H1856 C1864 0.950 . S
H1857 C1869 0.950 . S
H1858 C1866 0.947 . S
H1859 C1868 0.950 . S
H1860 C1870 0.950 . S
H1861 C1872 0.950 . S
H1862 C1874 0.950 . S
H1863 C1875 0.950 . S
C1864 H1856 0.950 . S
C1864 C1865 1.386 . S
C1864 C1866 1.391 . S
C1865 C1864 1.386 . S
C1865 C1869 1.393 . S
C1866 H1858 0.947 . S
C1866 C1864 1.391 . S
C1866 C1867 1.400 . S
C1867 C1866 1.400 . S
C1867 C1868 1.398 . S
C1867 C1873 1.491 . S
C1868 H1859 0.950 . S
C1868 C1867 1.398 . S
C1868 C1869 1.391 . S
C1869 H1857 0.950 . S
C1869 C1865 1.393 . S
C1869 C1868 1.391 . S
C1870 H1860 0.950 . S
C1870 C1871 1.386 1_455 S
C1870 C1872 1.391 . S
C1871 C1870 1.386 1_655 S
C1871 C1875 1.393 . S
C1872 H1861 0.950 . S
C1872 C1870 1.391 . S
C1872 C1873 1.400 . S
C1873 C1867 1.491 . S
C1873 C1872 1.400 . S
C1873 C1874 1.398 1_455 S
C1874 H1862 0.950 . S
C1874 C1873 1.398 1_655 S
C1874 C1875 1.391 . S
C1875 H1863 0.950 . S
C1875 C1871 1.393 . S
C1875 C1874 1.391 . S
H1876 C1884 0.950 . S
H1877 C1889 0.950 . S
H1878 C1886 0.950 . S
H1879 C1888 0.950 . S
H1880 C1890 0.950 . S
H1881 C1892 0.950 . S
H1882 C1894 0.950 . S
H1883 C1895 0.950 . S
C1884 H1876 0.950 . S
C1884 C1885 1.386 . S
C1884 C1886 1.391 . S
C1885 C1884 1.386 . S
C1885 C1889 1.393 . S
C1886 H1878 0.950 . S
C1886 C1884 1.391 . S
C1886 C1887 1.400 . S
C1887 C1886 1.400 . S
C1887 C1888 1.398 . S
C1887 C1893 1.491 . S
C1888 H1879 0.950 . S
C1888 C1887 1.398 . S
C1888 C1889 1.391 . S
C1889 H1877 0.950 . S
C1889 C1885 1.393 . S
C1889 C1888 1.391 . S
C1890 H1880 0.950 . S
C1890 C1891 1.386 . S
C1890 C1892 1.391 . S
C1891 C1890 1.386 . S
C1891 C1895 1.393 . S
C1892 H1881 0.950 . S
C1892 C1890 1.391 . S
C1892 C1893 1.400 . S
C1893 C1887 1.491 . S
C1893 C1892 1.400 . S
C1893 C1894 1.398 . S
C1894 H1882 0.950 . S
C1894 C1893 1.398 . S
C1894 C1895 1.391 . S
C1895 H1883 0.950 . S
C1895 C1891 1.393 . S
C1895 C1894 1.391 . S
H1896 C1904 0.950 . S
H1897 C1909 0.950 . S
H1898 C1906 0.950 . S
H1899 C1908 0.950 . S
H1900 C1910 0.950 . S
H1901 C1912 0.950 . S
H1902 C1914 0.950 . S
H1903 C1915 0.950 . S
C1904 H1896 0.950 . S
C1904 C1905 1.386 . S
C1904 C1906 1.391 . S
C1905 C1904 1.386 . S
C1905 C1909 1.393 . S
C1906 H1898 0.950 . S
C1906 C1904 1.391 . S
C1906 C1907 1.400 . S
C1907 C1906 1.400 . S
C1907 C1908 1.398 . S
C1907 C1913 1.491 . S
C1908 H1899 0.950 . S
C1908 C1907 1.398 . S
C1908 C1909 1.391 . S
C1909 H1897 0.950 . S
C1909 C1905 1.393 . S
C1909 C1908 1.391 . S
C1910 H1900 0.950 . S
C1910 C1911 1.386 . S
C1910 C1912 1.391 . S
C1911 C1910 1.386 . S
C1911 C1915 1.393 . S
C1912 H1901 0.950 . S
C1912 C1910 1.391 . S
C1912 C1913 1.400 . S
C1913 C1907 1.491 . S
C1913 C1912 1.400 . S
C1913 C1914 1.398 . S
C1914 H1902 0.950 . S
C1914 C1913 1.398 . S
C1914 C1915 1.391 . S
C1915 H1903 0.950 . S
C1915 C1911 1.393 . S
C1915 C1914 1.391 . S
H1916 C1924 0.950 . S
H1917 C1929 0.950 . S
H1918 C1926 0.950 . S
H1919 C1928 0.950 . S
H1920 C1930 0.950 . S
H1921 C1932 0.950 1_565 S
H1922 C1934 0.950 . S
H1923 C1935 0.950 . S
C1924 H1916 0.950 . S
C1924 C1925 1.386 . S
C1924 C1926 1.391 . S
C1925 C1924 1.386 . S
C1925 C1929 1.393 . S
C1926 H1918 0.950 . S
C1926 C1924 1.391 . S
C1926 C1927 1.400 . S
C1927 C1926 1.400 . S
C1927 C1928 1.398 . S
C1927 C1933 1.491 . S
C1928 H1919 0.950 . S
C1928 C1927 1.398 . S
C1928 C1929 1.391 . S
C1929 H1917 0.950 . S
C1929 C1925 1.393 . S
C1929 C1928 1.391 . S
C1930 H1920 0.950 . S
C1930 C1931 1.386 1_565 S
C1930 C1932 1.391 1_565 S
C1931 C1930 1.386 1_545 S
C1931 C1935 1.393 . S
C1932 H1921 0.950 1_545 S
C1932 C1930 1.391 1_545 S
C1932 C1933 1.400 . S
C1933 C1927 1.491 . S
C1933 C1932 1.400 . S
C1933 C1934 1.398 . S
C1934 H1922 0.950 . S
C1934 C1933 1.398 . S
C1934 C1935 1.391 . S
C1935 H1923 0.950 . S
C1935 C1931 1.393 . S
C1935 C1934 1.391 . S
H1936 C1944 0.950 . S
H1937 C1949 0.950 . S
H1938 C1946 0.950 . S
H1939 C1948 0.950 . S
H1940 C1950 0.950 . S
H1941 C1952 0.950 . S
H1942 C1954 0.950 1_655 S
H1943 C1955 0.950 . S
C1944 H1936 0.950 . S
C1944 C1945 1.386 1_655 S
C1944 C1946 1.391 . S
C1945 C1944 1.386 1_455 S
C1945 C1949 1.393 . S
C1946 H1938 0.950 . S
C1946 C1944 1.391 . S
C1946 C1947 1.400 1_655 S
C1947 C1946 1.400 1_455 S
C1947 C1948 1.398 . S
C1947 C1953 1.491 . S
C1948 H1939 0.950 . S
C1948 C1947 1.398 . S
C1948 C1949 1.391 . S
C1949 H1937 0.950 . S
C1949 C1945 1.393 . S
C1949 C1948 1.391 . S
C1950 H1940 0.950 . S
C1950 C1951 1.386 . S
C1950 C1952 1.391 . S
C1951 C1950 1.386 . S
C1951 C1955 1.393 . S
C1952 H1941 0.950 . S
C1952 C1950 1.391 . S
C1952 C1953 1.400 . S
C1953 C1947 1.491 . S
C1953 C1952 1.400 . S
C1953 C1954 1.398 . S
C1954 H1942 0.950 1_455 S
C1954 C1953 1.398 . S
C1954 C1955 1.391 . S
C1955 H1943 0.950 . S
C1955 C1951 1.393 . S
C1955 C1954 1.391 . S
H1956 C1964 0.950 . S
H1957 C1969 0.950 . S
H1958 C1966 0.950 . S
H1959 C1968 0.950 . S
H1960 C1970 0.950 . S
H1961 C1972 0.950 . S
H1962 C1974 0.950 . S
H1963 C1975 0.950 . S
C1964 H1956 0.950 . S
C1964 C1965 1.386 . S
C1964 C1966 1.391 . S
C1965 C1964 1.386 . S
C1965 C1969 1.393 . S
C1966 H1958 0.950 . S
C1966 C1964 1.391 . S
C1966 C1967 1.400 . S
C1967 C1966 1.400 . S
C1967 C1968 1.398 . S
C1967 C1973 1.491 . S
C1968 H1959 0.950 . S
C1968 C1967 1.398 . S
C1968 C1969 1.391 . S
C1969 H1957 0.950 . S
C1969 C1965 1.393 . S
C1969 C1968 1.391 . S
C1970 H1960 0.950 . S
C1970 C1971 1.386 . S
C1970 C1972 1.391 . S
C1971 C1970 1.386 . S
C1971 C1975 1.393 . S
C1972 H1961 0.950 . S
C1972 C1970 1.391 . S
C1972 C1973 1.400 . S
C1973 C1967 1.491 . S
C1973 C1972 1.400 . S
C1973 C1974 1.398 . S
C1974 H1962 0.950 . S
C1974 C1973 1.398 . S
C1974 C1975 1.391 . S
C1975 H1963 0.950 . S
C1975 C1971 1.393 . S
C1975 C1974 1.391 . S
H1976 C1984 0.950 . S
H1977 C1989 0.950 . S
H1978 C1986 0.950 . S
H1979 C1988 0.950 . S
H1980 C1990 0.950 . S
H1981 C1992 0.950 . S
H1982 C1994 0.993 . S
H1983 C1995 0.950 . S
C1984 H1976 0.950 . S
C1984 C1985 1.386 1_565 S
C1984 C1986 1.391 . S
C1985 C1984 1.386 1_545 S
C1985 C1989 1.393 . S
C1986 H1978 0.950 . S
C1986 C1984 1.391 . S
C1986 C1987 1.400 1_565 S
C1987 C1986 1.400 1_545 S
C1987 C1988 1.398 . S
C1987 C1993 1.491 . S
C1988 H1979 0.950 . S
C1988 C1987 1.398 . S
C1988 C1989 1.391 . S
C1989 H1977 0.950 . S
C1989 C1985 1.393 . S
C1989 C1988 1.391 . S
C1990 H1980 0.950 . S
C1990 C1991 1.386 . S
C1990 C1992 1.391 . S
C1991 C1990 1.386 . S
C1991 C1995 1.393 . S
C1992 H1981 0.950 . S
C1992 C1990 1.391 . S
C1992 C1993 1.400 . S
C1993 C1987 1.491 . S
C1993 C1992 1.400 . S
C1993 C1994 1.398 . S
C1994 H1982 0.993 . S
C1994 C1993 1.398 . S
C1994 C1995 1.391 . S
C1995 H1983 0.950 . S
C1995 C1991 1.393 . S
C1995 C1994 1.391 . S
H1996 C2004 0.950 . S
H1997 C2009 0.950 . S
H1998 C2006 0.950 1_655 S
H1999 C2008 0.950 . S
H2000 C2010 0.950 . S
H2001 C2012 0.950 . S
H2002 C2014 0.950 . S
H2003 C2015 0.950 . S
C2004 H1996 0.950 . S
C2004 C2005 1.386 1_655 S
C2004 C2006 1.391 1_655 S
C2005 C2004 1.386 1_455 S
C2005 C2009 1.393 . S
C2006 H1998 0.950 1_455 S
C2006 C2004 1.391 1_455 S
C2006 C2007 1.400 . S
C2007 C2006 1.400 . S
C2007 C2008 1.398 . S
C2007 C2013 1.491 . S
C2008 H1999 0.950 . S
C2008 C2007 1.398 . S
C2008 C2009 1.391 . S
C2009 H1997 0.950 . S
C2009 C2005 1.393 . S
C2009 C2008 1.391 . S
C2010 H2000 0.950 . S
C2010 C2011 1.386 . S
C2010 C2012 1.391 . S
C2011 C2010 1.386 . S
C2011 C2015 1.393 . S
C2012 H2001 0.950 . S
C2012 C2010 1.391 . S
C2012 C2013 1.400 . S
C2013 C2007 1.491 . S
C2013 C2012 1.400 . S
C2013 C2014 1.398 . S
C2014 H2002 0.950 . S
C2014 C2013 1.398 . S
C2014 C2015 1.391 . S
C2015 H2003 0.950 . S
C2015 C2011 1.393 . S
C2015 C2014 1.391 . S
H2016 C2024 0.950 . S
H2017 C2029 0.950 . S
H2018 C2026 0.950 . S
H2019 C2028 0.950 . S
H2020 C2030 0.950 . S
H2021 C2032 0.950 . S
H2022 C2034 0.950 . S
H2023 C2035 0.950 . S
C2024 H2016 0.950 . S
C2024 C2025 1.386 . S
C2024 C2026 1.391 . S
C2025 C2024 1.386 . S
C2025 C2029 1.393 . S
C2026 H2018 0.950 . S
C2026 C2024 1.391 . S
C2026 C2027 1.400 . S
C2027 C2026 1.400 . S
C2027 C2028 1.398 . S
C2027 C2033 1.491 1_554 S
C2028 H2019 0.950 . S
C2028 C2027 1.398 . S
C2028 C2029 1.391 . S
C2029 H2017 0.950 . S
C2029 C2025 1.393 . S
C2029 C2028 1.391 . S
C2030 H2020 0.950 . S
C2030 C2031 1.386 . S
C2030 C2032 1.391 . S
C2031 C2030 1.386 . S
C2031 C2035 1.393 . S
C2032 H2021 0.950 . S
C2032 C2030 1.391 . S
C2032 C2033 1.400 . S
C2033 C2027 1.491 1_556 S
C2033 C2032 1.400 . S
C2033 C2034 1.398 . S
C2034 H2022 0.950 . S
C2034 C2033 1.398 . S
C2034 C2035 1.391 . S
C2035 H2023 0.950 . S
C2035 C2031 1.393 . S
C2035 C2034 1.391 . S
H2036 C2044 0.950 . S
H2037 C2049 0.950 . S
H2038 C2046 0.950 . S
H2039 C2048 0.950 . S
H2040 C2050 0.950 . S
H2041 C2052 0.950 . S
H2042 C2054 0.950 . S
H2043 C2055 0.950 . S
C2044 H2036 0.950 . S
C2044 C2045 1.386 . S
C2044 C2046 1.391 . S
C2045 C2044 1.386 . S
C2045 C2049 1.393 . S
C2046 H2038 0.950 . S
C2046 C2044 1.391 . S
C2046 C2047 1.400 . S
C2047 C2046 1.400 . S
C2047 C2048 1.398 . S
C2047 C2053 1.491 1_556 S
C2048 H2039 0.950 . S
C2048 C2047 1.398 . S
C2048 C2049 1.391 . S
C2049 H2037 0.950 . S
C2049 C2045 1.393 . S
C2049 C2048 1.391 . S
C2050 H2040 0.950 . S
C2050 C2051 1.386 . S
C2050 C2052 1.391 . S
C2051 C2050 1.386 . S
C2051 C2055 1.393 . S
C2052 H2041 0.950 . S
C2052 C2050 1.391 . S
C2052 C2053 1.400 . S
C2053 C2047 1.491 1_554 S
C2053 C2052 1.400 . S
C2053 C2054 1.398 . S
C2054 H2042 0.950 . S
C2054 C2053 1.398 . S
C2054 C2055 1.391 . S
C2055 H2043 0.950 . S
C2055 C2051 1.393 . S
C2055 C2054 1.391 . S
H2056 C2064 0.950 . S
H2057 C2069 0.950 . S
H2058 C2066 0.950 . S
H2059 C2068 0.950 . S
H2060 C2070 0.950 . S
H2061 C2072 0.950 . S
H2062 C2074 0.950 . S
H2063 C2075 0.950 . S
C2064 H2056 0.950 . S
C2064 C2065 1.386 . S
C2064 C2066 1.391 . S
C2065 C2064 1.386 . S
C2065 C2069 1.393 . S
C2066 H2058 0.950 . S
C2066 C2064 1.391 . S
C2066 C2067 1.400 . S
C2067 C2066 1.400 . S
C2067 C2068 1.398 . S
C2067 C2073 1.491 1_556 S
C2068 H2059 0.950 . S
C2068 C2067 1.398 . S
C2068 C2069 1.391 . S
C2069 H2057 0.950 . S
C2069 C2065 1.393 . S
C2069 C2068 1.391 . S
C2070 H2060 0.950 . S
C2070 C2071 1.386 . S
C2070 C2072 1.391 . S
C2071 C2070 1.386 . S
C2071 C2075 1.393 . S
C2072 H2061 0.950 . S
C2072 C2070 1.391 . S
C2072 C2073 1.400 . S
C2073 C2067 1.491 1_554 S
C2073 C2072 1.400 . S
C2073 C2074 1.398 . S
C2074 H2062 0.950 . S
C2074 C2073 1.398 . S
C2074 C2075 1.391 . S
C2075 H2063 0.950 . S
C2075 C2071 1.393 . S
C2075 C2074 1.391 . S
H2076 C2084 0.950 . S
H2077 C2089 0.950 . S
H2078 C2086 0.950 . S
H2079 C2088 0.950 . S
H2080 C2090 0.950 . S
H2081 C2092 0.950 . S
H2082 C2094 0.950 . S
H2083 C2095 0.950 . S
C2084 H2076 0.950 . S
C2084 C2085 1.386 . S
C2084 C2086 1.391 . S
C2085 C2084 1.386 . S
C2085 C2089 1.393 . S
C2086 H2078 0.950 . S
C2086 C2084 1.391 . S
C2086 C2087 1.400 . S
C2087 C2086 1.400 . S
C2087 C2088 1.398 . S
C2087 C2093 1.491 1_556 S
C2088 H2079 0.950 . S
C2088 C2087 1.398 . S
C2088 C2089 1.391 . S
C2089 H2077 0.950 . S
C2089 C2085 1.393 . S
C2089 C2088 1.391 . S
C2090 H2080 0.950 . S
C2090 C2091 1.386 . S
C2090 C2092 1.391 . S
C2091 C2090 1.386 . S
C2091 C2095 1.393 . S
C2092 H2081 0.950 . S
C2092 C2090 1.391 . S
C2092 C2093 1.400 . S
C2093 C2087 1.491 1_554 S
C2093 C2092 1.400 . S
C2093 C2094 1.398 . S
C2094 H2082 0.950 . S
C2094 C2093 1.398 . S
C2094 C2095 1.391 . S
C2095 H2083 0.950 . S
C2095 C2091 1.393 . S
C2095 C2094 1.391 . S
H2096 C2104 0.950 . S
H2097 C2109 0.950 . S
H2098 C2106 0.950 . S
H2099 C2108 0.950 . S
H2100 C2110 0.950 . S
H2101 C2112 0.950 . S
H2102 C2114 0.950 . S
H2103 C2115 0.950 . S
C2104 H2096 0.950 . S
C2104 C2105 1.386 . S
C2104 C2106 1.391 . S
C2105 C2104 1.386 . S
C2105 C2109 1.393 . S
C2106 H2098 0.950 . S
C2106 C2104 1.391 . S
C2106 C2107 1.400 . S
C2107 C2106 1.400 . S
C2107 C2108 1.398 . S
C2107 C2113 1.491 1_554 S
C2108 H2099 0.950 . S
C2108 C2107 1.398 . S
C2108 C2109 1.391 . S
C2109 H2097 0.950 . S
C2109 C2105 1.393 . S
C2109 C2108 1.391 . S
C2110 H2100 0.950 . S
C2110 C2111 1.386 . S
C2110 C2112 1.391 . S
C2111 C2110 1.386 . S
C2111 C2115 1.393 . S
C2112 H2101 0.950 . S
C2112 C2110 1.391 . S
C2112 C2113 1.400 . S
C2113 C2107 1.491 1_556 S
C2113 C2112 1.400 . S
C2113 C2114 1.398 . S
C2114 H2102 0.950 . S
C2114 C2113 1.398 . S
C2114 C2115 1.391 . S
C2115 H2103 0.950 . S
C2115 C2111 1.393 . S
C2115 C2114 1.391 . S
H2116 C2124 0.950 . S
H2117 C2129 0.950 . S
H2118 C2126 0.950 . S
H2119 C2128 0.950 . S
H2120 C2130 0.950 . S
H2121 C2132 0.950 . S
H2122 C2134 0.950 . S
H2123 C2135 0.950 . S
C2124 H2116 0.950 . S
C2124 C2125 1.386 . S
C2124 C2126 1.391 . S
C2125 C2124 1.386 . S
C2125 C2129 1.393 . S
C2126 H2118 0.950 . S
C2126 C2124 1.391 . S
C2126 C2127 1.400 . S
C2127 C2126 1.400 . S
C2127 C2128 1.398 . S
C2127 C2133 1.491 1_556 S
C2128 H2119 0.950 . S
C2128 C2127 1.398 . S
C2128 C2129 1.391 . S
C2129 H2117 0.950 . S
C2129 C2125 1.393 . S
C2129 C2128 1.391 . S
C2130 H2120 0.950 . S
C2130 C2131 1.386 . S
C2130 C2132 1.391 . S
C2131 C2130 1.386 . S
C2131 C2135 1.393 . S
C2132 H2121 0.950 . S
C2132 C2130 1.391 . S
C2132 C2133 1.400 . S
C2133 C2127 1.491 1_554 S
C2133 C2132 1.400 . S
C2133 C2134 1.398 . S
C2134 H2122 0.950 . S
C2134 C2133 1.398 . S
C2134 C2135 1.391 . S
C2135 H2123 0.950 . S
C2135 C2131 1.393 . S
C2135 C2134 1.391 . S
H2136 C2144 0.950 . S
H2137 C2149 0.950 . S
H2138 C2146 0.950 . S
H2139 C2148 0.950 . S
H2140 C2150 0.950 . S
H2141 C2152 0.950 . S
H2142 C2154 0.950 . S
H2143 C2155 0.950 . S
C2144 H2136 0.950 . S
C2144 C2145 1.386 . S
C2144 C2146 1.391 . S
C2145 C2144 1.386 . S
C2145 C2149 1.393 . S
C2146 H2138 0.950 . S
C2146 C2144 1.391 . S
C2146 C2147 1.400 . S
C2147 C2146 1.400 . S
C2147 C2148 1.398 . S
C2147 C2153 1.491 . S
C2148 H2139 0.950 . S
C2148 C2147 1.398 . S
C2148 C2149 1.391 . S
C2149 H2137 0.950 . S
C2149 C2145 1.393 . S
C2149 C2148 1.391 . S
C2150 H2140 0.950 . S
C2150 C2151 1.386 . S
C2150 C2152 1.391 . S
C2151 C2150 1.386 . S
C2151 C2155 1.393 . S
C2152 H2141 0.950 . S
C2152 C2150 1.391 . S
C2152 C2153 1.400 . S
C2153 C2147 1.491 . S
C2153 C2152 1.400 . S
C2153 C2154 1.398 . S
C2154 H2142 0.950 . S
C2154 C2153 1.398 . S
C2154 C2155 1.391 . S
C2155 H2143 0.950 . S
C2155 C2151 1.393 . S
C2155 C2154 1.391 . S
H2156 C2164 0.950 . S
H2157 C2169 0.950 . S
H2158 C2166 0.950 . S
H2159 C2168 0.950 . S
H2160 C2170 0.950 . S
H2161 C2172 0.950 . S
H2162 C2174 0.950 . S
H2163 C2175 0.950 . S
C2164 H2156 0.950 . S
C2164 C2165 1.386 . S
C2164 C2166 1.391 . S
C2165 C2164 1.386 . S
C2165 C2169 1.393 . S
C2166 H2158 0.950 . S
C2166 C2164 1.391 . S
C2166 C2167 1.400 . S
C2167 C2166 1.400 . S
C2167 C2168 1.398 . S
C2167 C2173 1.491 . S
C2168 H2159 0.950 . S
C2168 C2167 1.398 . S
C2168 C2169 1.391 . S
C2169 H2157 0.950 . S
C2169 C2165 1.393 . S
C2169 C2168 1.391 . S
C2170 H2160 0.950 . S
C2170 C2171 1.386 . S
C2170 C2172 1.391 . S
C2171 C2170 1.386 . S
C2171 C2175 1.393 . S
C2172 H2161 0.950 . S
C2172 C2170 1.391 . S
C2172 C2173 1.400 . S
C2173 C2167 1.491 . S
C2173 C2172 1.400 . S
C2173 C2174 1.398 . S
C2174 H2162 0.950 . S
C2174 C2173 1.398 . S
C2174 C2175 1.391 . S
C2175 H2163 0.950 . S
C2175 C2171 1.393 . S
C2175 C2174 1.391 . S
H2176 C2184 0.950 . S
H2177 C2189 0.950 . S
H2178 C2186 0.950 . S
H2179 C2188 0.950 . S
H2180 C2190 0.950 . S
H2181 C2192 0.950 . S
H2182 C2194 0.950 . S
H2183 C2195 0.950 . S
C2184 H2176 0.950 . S
C2184 C2185 1.386 . S
C2184 C2186 1.391 . S
C2185 C2184 1.386 . S
C2185 C2189 1.393 . S
C2186 H2178 0.950 . S
C2186 C2184 1.391 . S
C2186 C2187 1.400 . S
C2187 C2186 1.400 . S
C2187 C2188 1.398 . S
C2187 C2193 1.491 . S
C2188 H2179 0.950 . S
C2188 C2187 1.398 . S
C2188 C2189 1.391 . S
C2189 H2177 0.950 . S
C2189 C2185 1.393 . S
C2189 C2188 1.391 . S
C2190 H2180 0.950 . S
C2190 C2191 1.386 . S
C2190 C2192 1.391 . S
C2191 C2190 1.386 . S
C2191 C2195 1.393 . S
C2192 H2181 0.950 . S
C2192 C2190 1.391 . S
C2192 C2193 1.400 . S
C2193 C2187 1.491 . S
C2193 C2192 1.400 . S
C2193 C2194 1.398 . S
C2194 H2182 0.950 . S
C2194 C2193 1.398 . S
C2194 C2195 1.391 . S
C2195 H2183 0.950 . S
C2195 C2191 1.393 . S
C2195 C2194 1.391 . S
H2196 C2204 0.950 . S
H2197 C2209 0.950 . S
H2198 C2206 0.950 . S
H2199 C2208 0.950 . S
H2200 C2210 0.950 . S
H2201 C2212 0.950 . S
H2202 C2214 0.950 . S
H2203 C2215 0.950 . S
C2204 H2196 0.950 . S
C2204 C2205 1.386 . S
C2204 C2206 1.391 . S
C2205 C2204 1.386 . S
C2205 C2209 1.393 . S
C2206 H2198 0.950 . S
C2206 C2204 1.391 . S
C2206 C2207 1.400 . S
C2207 C2206 1.400 . S
C2207 C2208 1.398 . S
C2207 C2213 1.491 . S
C2208 H2199 0.950 . S
C2208 C2207 1.398 . S
C2208 C2209 1.391 . S
C2209 H2197 0.950 . S
C2209 C2205 1.393 . S
C2209 C2208 1.391 . S
C2210 H2200 0.950 . S
C2210 C2211 1.386 . S
C2210 C2212 1.391 . S
C2211 C2210 1.386 . S
C2211 C2215 1.393 . S
C2212 H2201 0.950 . S
C2212 C2210 1.391 . S
C2212 C2213 1.400 . S
C2213 C2207 1.491 . S
C2213 C2212 1.400 . S
C2213 C2214 1.398 . S
C2214 H2202 0.950 . S
C2214 C2213 1.398 . S
C2214 C2215 1.391 . S
C2215 H2203 0.950 . S
C2215 C2211 1.393 . S
C2215 C2214 1.391 . S
H2216 C2224 0.950 . S
H2217 C2229 0.950 1_455 S
H2218 C2226 0.950 . S
H2219 C2228 0.950 1_455 S
H2220 C2230 0.950 1_455 S
H2221 C2232 0.950 1_455 S
H2222 C2234 0.950 . S
H2223 C2235 0.950 . S
C2224 H2216 0.950 . S
C2224 C2225 1.386 . S
C2224 C2226 1.391 . S
C2225 C2224 1.386 . S
C2225 C2229 1.393 . S
C2226 H2218 0.950 . S
C2226 C2224 1.391 . S
C2226 C2227 1.400 . S
C2227 C2226 1.400 . S
C2227 C2228 1.398 . S
C2227 C2233 1.491 . S
C2228 H2219 0.950 1_655 S
C2228 C2227 1.398 . S
C2228 C2229 1.391 . S
C2229 H2217 0.950 1_655 S
C2229 C2225 1.393 . S
C2229 C2228 1.391 . S
C2230 H2220 0.950 1_655 S
C2230 C2231 1.386 . S
C2230 C2232 1.391 . S
C2231 C2230 1.386 . S
C2231 C2235 1.393 . S
C2232 H2221 0.950 1_655 S
C2232 C2230 1.391 . S
C2232 C2233 1.400 . S
C2233 C2227 1.491 . S
C2233 C2232 1.400 . S
C2233 C2234 1.398 . S
C2234 H2222 0.950 . S
C2234 C2233 1.398 . S
C2234 C2235 1.391 . S
C2235 H2223 0.950 . S
C2235 C2231 1.393 . S
C2235 C2234 1.391 . S
H2236 C2244 0.950 . S
H2237 C2249 0.950 . S
H2238 C2246 0.950 . S
H2239 C2248 0.950 . S
H2240 C2250 0.950 . S
H2241 C2252 0.950 . S
H2242 C2254 0.950 . S
H2243 C2255 0.950 . S
C2244 H2236 0.950 . S
C2244 C2245 1.386 . S
C2244 C2246 1.391 . S
C2245 C2244 1.386 . S
C2245 C2249 1.393 . S
C2246 H2238 0.950 . S
C2246 C2244 1.391 . S
C2246 C2247 1.400 . S
C2247 C2246 1.400 . S
C2247 C2248 1.398 . S
C2247 C2253 1.491 . S
C2248 H2239 0.950 . S
C2248 C2247 1.398 . S
C2248 C2249 1.391 . S
C2249 H2237 0.950 . S
C2249 C2245 1.393 . S
C2249 C2248 1.391 . S
C2250 H2240 0.950 . S
C2250 C2251 1.386 . S
C2250 C2252 1.391 . S
C2251 C2250 1.386 . S
C2251 C2255 1.393 . S
C2252 H2241 0.950 . S
C2252 C2250 1.391 . S
C2252 C2253 1.400 . S
C2253 C2247 1.491 . S
C2253 C2252 1.400 . S
C2253 C2254 1.398 . S
C2254 H2242 0.950 . S
C2254 C2253 1.398 . S
C2254 C2255 1.391 . S
C2255 H2243 0.950 . S
C2255 C2251 1.393 . S
C2255 C2254 1.391 . S
H2256 C2264 0.950 . S
H2257 C2269 0.950 1_545 S
H2258 C2266 0.950 . S
H2259 C2268 0.950 1_545 S
H2260 C2270 0.949 . S
H2261 C2272 0.950 1_545 S
H2262 C2274 0.950 . S
H2263 C2275 0.950 . S
C2264 H2256 0.950 . S
C2264 C2265 1.386 . S
C2264 C2266 1.391 . S
C2265 C2264 1.386 . S
C2265 C2269 1.393 . S
C2266 H2258 0.950 . S
C2266 C2264 1.391 . S
C2266 C2267 1.400 . S
C2267 C2266 1.400 . S
C2267 C2268 1.398 . S
C2267 C2273 1.491 . S
C2268 H2259 0.950 1_565 S
C2268 C2267 1.398 . S
C2268 C2269 1.391 . S
C2269 H2257 0.950 1_565 S
C2269 C2265 1.393 . S
C2269 C2268 1.391 . S
C2270 H2260 0.949 . S
C2270 C2271 1.386 . S
C2270 C2272 1.391 . S
C2271 C2270 1.386 . S
C2271 C2275 1.393 . S
C2272 H2261 0.950 1_565 S
C2272 C2270 1.391 . S
C2272 C2273 1.400 . S
C2273 C2267 1.491 . S
C2273 C2272 1.400 . S
C2273 C2274 1.398 . S
C2274 H2262 0.950 . S
C2274 C2273 1.398 . S
C2274 C2275 1.391 . S
C2275 H2263 0.950 . S
C2275 C2271 1.393 . S
C2275 C2274 1.391 . S
H2276 C2284 0.950 . S
H2277 C2289 0.950 . S
H2278 C2286 0.950 . S
H2279 C2288 0.950 . S
H2280 C2290 0.950 . S
H2281 C2292 0.950 . S
H2282 C2294 0.950 . S
H2283 C2295 0.950 . S
C2284 H2276 0.950 . S
C2284 C2285 1.386 . S
C2284 C2286 1.391 . S
C2285 C2284 1.386 . S
C2285 C2289 1.393 . S
C2286 H2278 0.950 . S
C2286 C2284 1.391 . S
C2286 C2287 1.400 . S
C2287 C2286 1.400 . S
C2287 C2288 1.398 . S
C2287 C2293 1.491 . S
C2288 H2279 0.950 . S
C2288 C2287 1.398 . S
C2288 C2289 1.391 . S
C2289 H2277 0.950 . S
C2289 C2285 1.393 . S
C2289 C2288 1.391 . S
C2290 H2280 0.950 . S
C2290 C2291 1.386 . S
C2290 C2292 1.391 . S
C2291 C2290 1.386 . S
C2291 C2295 1.393 . S
C2292 H2281 0.950 . S
C2292 C2290 1.391 . S
C2292 C2293 1.400 . S
C2293 C2287 1.491 . S
C2293 C2292 1.400 . S
C2293 C2294 1.398 . S
C2294 H2282 0.950 . S
C2294 C2293 1.398 . S
C2294 C2295 1.391 . S
C2295 H2283 0.950 . S
C2295 C2291 1.393 . S
C2295 C2294 1.391 . S
H2296 C2304 0.950 . S
H2297 C2309 0.950 . S
H2298 C2306 0.950 . S
H2299 C2308 0.950 . S
H2300 C2310 0.950 . S
H2301 C2312 0.950 . S
H2302 C2314 0.950 . S
H2303 C2315 0.950 . S
C2304 H2296 0.950 . S
C2304 C2305 1.386 . S
C2304 C2306 1.391 . S
C2305 C2304 1.386 . S
C2305 C2309 1.393 . S
C2306 H2298 0.950 . S
C2306 C2304 1.391 . S
C2306 C2307 1.400 . S
C2307 C2306 1.400 . S
C2307 C2308 1.398 . S
C2307 C2313 1.491 . S
C2308 H2299 0.950 . S
C2308 C2307 1.398 . S
C2308 C2309 1.391 . S
C2309 H2297 0.950 . S
C2309 C2305 1.393 . S
C2309 C2308 1.391 . S
C2310 H2300 0.950 . S
C2310 C2311 1.386 . S
C2310 C2312 1.391 . S
C2311 C2310 1.386 . S
C2311 C2315 1.393 . S
C2312 H2301 0.950 . S
C2312 C2310 1.391 . S
C2312 C2313 1.400 . S
C2313 C2307 1.491 . S
C2313 C2312 1.400 . S
C2313 C2314 1.398 . S
C2314 H2302 0.950 . S
C2314 C2313 1.398 . S
C2314 C2315 1.391 . S
C2315 H2303 0.950 . S
C2315 C2311 1.393 . S
C2315 C2314 1.391 . S
H2316 C2324 0.950 . S
H2317 C2329 0.950 . S
H2318 C2326 0.950 . S
H2319 C2328 0.950 . S
H2320 C2330 0.950 . S
H2321 C2332 0.950 . S
H2322 C2334 0.950 . S
H2323 C2335 0.950 . S
C2324 H2316 0.950 . S
C2324 C2325 1.386 . S
C2324 C2326 1.391 . S
C2325 C2324 1.386 . S
C2325 C2329 1.393 . S
C2326 H2318 0.950 . S
C2326 C2324 1.391 . S
C2326 C2327 1.400 . S
C2327 C2326 1.400 . S
C2327 C2328 1.398 . S
C2327 C2333 1.491 . S
C2328 H2319 0.950 . S
C2328 C2327 1.398 . S
C2328 C2329 1.391 . S
C2329 H2317 0.950 . S
C2329 C2325 1.393 . S
C2329 C2328 1.391 . S
C2330 H2320 0.950 . S
C2330 C2331 1.386 . S
C2330 C2332 1.391 . S
C2331 C2330 1.386 . S
C2331 C2335 1.393 . S
C2332 H2321 0.950 . S
C2332 C2330 1.391 . S
C2332 C2333 1.400 . S
C2333 C2327 1.491 . S
C2333 C2332 1.400 . S
C2333 C2334 1.398 . S
C2334 H2322 0.950 . S
C2334 C2333 1.398 . S
C2334 C2335 1.391 . S
C2335 H2323 0.950 . S
C2335 C2331 1.393 . S
C2335 C2334 1.391 . S
H2336 C2344 0.950 . S
H2337 C2349 0.950 . S
H2338 C2346 0.950 . S
H2339 C2348 0.950 . S
H2340 C2350 0.950 . S
H2341 C2352 0.950 . S
H2342 C2354 0.950 . S
H2343 C2355 0.950 . S
C2344 H2336 0.950 . S
C2344 C2345 1.386 . S
C2344 C2346 1.391 . S
C2345 C2344 1.386 . S
C2345 C2349 1.393 . S
C2346 H2338 0.950 . S
C2346 C2344 1.391 . S
C2346 C2347 1.400 . S
C2347 C2346 1.400 . S
C2347 C2348 1.398 . S
C2347 C2353 1.491 . S
C2348 H2339 0.950 . S
C2348 C2347 1.398 . S
C2348 C2349 1.391 . S
C2349 H2337 0.950 . S
C2349 C2345 1.393 . S
C2349 C2348 1.391 . S
C2350 H2340 0.950 . S
C2350 C2351 1.386 . S
C2350 C2352 1.391 . S
C2351 C2350 1.386 . S
C2351 C2355 1.393 . S
C2352 H2341 0.950 . S
C2352 C2350 1.391 . S
C2352 C2353 1.400 . S
C2353 C2347 1.491 . S
C2353 C2352 1.400 . S
C2353 C2354 1.398 . S
C2354 H2342 0.950 . S
C2354 C2353 1.398 . S
C2354 C2355 1.391 . S
C2355 H2343 0.950 . S
C2355 C2351 1.393 . S
C2355 C2354 1.391 . S
H2356 C2364 0.950 . S
H2357 C2369 0.950 . S
H2358 C2366 0.950 . S
H2359 C2368 0.950 . S
H2360 C2370 0.950 . S
H2361 C2372 0.950 . S
H2362 C2374 0.950 . S
H2363 C2375 0.950 . S
C2364 H2356 0.950 . S
C2364 C2365 1.386 . S
C2364 C2366 1.391 . S
C2365 C2364 1.386 . S
C2365 C2369 1.393 . S
C2366 H2358 0.950 . S
C2366 C2364 1.391 . S
C2366 C2367 1.400 . S
C2367 C2366 1.400 . S
C2367 C2368 1.398 . S
C2367 C2373 1.491 . S
C2368 H2359 0.950 . S
C2368 C2367 1.398 . S
C2368 C2369 1.391 . S
C2369 H2357 0.950 . S
C2369 C2365 1.393 . S
C2369 C2368 1.391 . S
C2370 H2360 0.950 . S
C2370 C2371 1.386 . S
C2370 C2372 1.391 . S
C2371 C2370 1.386 . S
C2371 C2375 1.393 . S
C2372 H2361 0.950 . S
C2372 C2370 1.391 . S
C2372 C2373 1.400 . S
C2373 C2367 1.491 . S
C2373 C2372 1.400 . S
C2373 C2374 1.398 . S
C2374 H2362 0.950 . S
C2374 C2373 1.398 . S
C2374 C2375 1.391 . S
C2375 H2363 0.950 . S
C2375 C2371 1.393 . S
C2375 C2374 1.391 . S
H2376 C2384 0.950 . S
H2377 C2389 0.950 . S
H2378 C2386 0.950 . S
H2379 C2388 0.950 . S
H2380 C2390 0.950 . S
H2381 C2392 0.950 . S
H2382 C2394 0.950 . S
H2383 C2395 0.950 . S
C2384 H2376 0.950 . S
C2384 C2385 1.386 . S
C2384 C2386 1.391 . S
C2385 C2384 1.386 . S
C2385 C2389 1.393 . S
C2386 H2378 0.950 . S
C2386 C2384 1.391 . S
C2386 C2387 1.400 . S
C2387 C2386 1.400 . S
C2387 C2388 1.398 . S
C2387 C2393 1.491 . S
C2388 H2379 0.950 . S
C2388 C2387 1.398 . S
C2388 C2389 1.391 . S
C2389 H2377 0.950 . S
C2389 C2385 1.393 . S
C2389 C2388 1.391 . S
C2390 H2380 0.950 . S
C2390 C2391 1.386 . S
C2390 C2392 1.391 . S
C2391 C2390 1.386 . S
C2391 C2395 1.393 . S
C2392 H2381 0.950 . S
C2392 C2390 1.391 . S
C2392 C2393 1.400 . S
C2393 C2387 1.491 . S
C2393 C2392 1.400 . S
C2393 C2394 1.398 . S
C2394 H2382 0.950 . S
C2394 C2393 1.398 . S
C2394 C2395 1.391 . S
C2395 H2383 0.950 . S
C2395 C2391 1.393 . S
C2395 C2394 1.391 . S
H2396 C2404 0.950 . S
H2397 C2409 0.950 . S
H2398 C2406 0.950 . S
H2399 C2408 0.950 . S
H2400 C2410 0.950 . S
H2401 C2412 0.950 . S
H2402 C2414 0.950 . S
H2403 C2415 0.950 . S
C2404 H2396 0.950 . S
C2404 C2405 1.386 . S
C2404 C2406 1.391 . S
C2405 C2404 1.386 . S
C2405 C2409 1.393 . S
C2406 H2398 0.950 . S
C2406 C2404 1.391 . S
C2406 C2407 1.400 . S
C2407 C2406 1.400 . S
C2407 C2408 1.398 . S
C2407 C2413 1.491 . S
C2408 H2399 0.950 . S
C2408 C2407 1.398 . S
C2408 C2409 1.391 . S
C2409 H2397 0.950 . S
C2409 C2405 1.393 . S
C2409 C2408 1.391 . S
C2410 H2400 0.950 . S
C2410 C2411 1.386 . S
C2410 C2412 1.391 . S
C2411 C2410 1.386 . S
C2411 C2415 1.393 . S
C2412 H2401 0.950 . S
C2412 C2410 1.391 . S
C2412 C2413 1.400 . S
C2413 C2407 1.491 . S
C2413 C2412 1.400 . S
C2413 C2414 1.398 . S
C2414 H2402 0.950 . S
C2414 C2413 1.398 . S
C2414 C2415 1.391 . S
C2415 H2403 0.950 . S
C2415 C2411 1.393 . S
C2415 C2414 1.391 . S
H2416 C2424 0.950 . S
H2417 C2429 0.950 . S
H2418 C2426 0.950 . S
H2419 C2428 0.950 . S
H2420 C2430 0.950 . S
H2421 C2432 0.950 . S
H2422 C2434 0.950 . S
H2423 C2435 0.950 . S
C2424 H2416 0.950 . S
C2424 C2425 1.386 . S
C2424 C2426 1.391 . S
C2425 C2424 1.386 . S
C2425 C2429 1.393 . S
C2426 H2418 0.950 . S
C2426 C2424 1.391 . S
C2426 C2427 1.400 . S
C2427 C2426 1.400 . S
C2427 C2428 1.398 . S
C2427 C2433 1.491 . S
C2428 H2419 0.950 . S
C2428 C2427 1.398 . S
C2428 C2429 1.391 . S
C2429 H2417 0.950 . S
C2429 C2425 1.393 . S
C2429 C2428 1.391 . S
C2430 H2420 0.950 . S
C2430 C2431 1.386 . S
C2430 C2432 1.391 . S
C2431 C2430 1.386 . S
C2431 C2435 1.393 . S
C2432 H2421 0.950 . S
C2432 C2430 1.391 . S
C2432 C2433 1.400 . S
C2433 C2427 1.491 . S
C2433 C2432 1.400 . S
C2433 C2434 1.398 . S
C2434 H2422 0.950 . S
C2434 C2433 1.398 . S
C2434 C2435 1.391 . S
C2435 H2423 0.950 . S
C2435 C2431 1.393 . S
C2435 C2434 1.391 . S
H2436 C2444 0.950 . S
H2437 C2449 0.950 . S
H2438 C2446 0.950 . S
H2439 C2448 0.950 . S
H2440 C2450 0.950 . S
H2441 C2452 0.950 . S
H2442 C2454 0.950 . S
H2443 C2455 0.950 . S
C2444 H2436 0.950 . S
C2444 C2445 1.386 . S
C2444 C2446 1.391 . S
C2445 C2444 1.386 . S
C2445 C2449 1.393 . S
C2446 H2438 0.950 . S
C2446 C2444 1.391 . S
C2446 C2447 1.400 . S
C2447 C2446 1.400 . S
C2447 C2448 1.398 . S
C2447 C2453 1.491 . S
C2448 H2439 0.950 . S
C2448 C2447 1.398 . S
C2448 C2449 1.391 . S
C2449 H2437 0.950 . S
C2449 C2445 1.393 . S
C2449 C2448 1.391 . S
C2450 H2440 0.950 . S
C2450 C2451 1.386 . S
C2450 C2452 1.391 . S
C2451 C2450 1.386 . S
C2451 C2455 1.393 . S
C2452 H2441 0.950 . S
C2452 C2450 1.391 . S
C2452 C2453 1.400 . S
C2453 C2447 1.491 . S
C2453 C2452 1.400 . S
C2453 C2454 1.398 . S
C2454 H2442 0.950 . S
C2454 C2453 1.398 . S
C2454 C2455 1.391 . S
C2455 H2443 0.950 . S
C2455 C2451 1.393 . S
C2455 C2454 1.391 . S
H2456 C2464 0.950 . S
H2457 C2469 0.950 . S
H2458 C2466 0.950 . S
H2459 C2468 0.950 . S
H2460 C2470 0.950 . S
H2461 C2472 0.950 . S
H2462 C2474 0.950 . S
H2463 C2475 0.950 . S
C2464 H2456 0.950 . S
C2464 C2465 1.386 . S
C2464 C2466 1.391 . S
C2465 C2464 1.386 . S
C2465 C2469 1.393 . S
C2466 H2458 0.950 . S
C2466 C2464 1.391 . S
C2466 C2467 1.400 . S
C2467 C2466 1.400 . S
C2467 C2468 1.398 . S
C2467 C2473 1.491 . S
C2468 H2459 0.950 . S
C2468 C2467 1.398 . S
C2468 C2469 1.391 . S
C2469 H2457 0.950 . S
C2469 C2465 1.393 . S
C2469 C2468 1.391 . S
C2470 H2460 0.950 . S
C2470 C2471 1.386 . S
C2470 C2472 1.391 . S
C2471 C2470 1.386 . S
C2471 C2475 1.393 . S
C2472 H2461 0.950 . S
C2472 C2470 1.391 . S
C2472 C2473 1.400 . S
C2473 C2467 1.491 . S
C2473 C2472 1.400 . S
C2473 C2474 1.398 . S
C2474 H2462 0.950 . S
C2474 C2473 1.398 . S
C2474 C2475 1.391 . S
C2475 H2463 0.950 . S
C2475 C2471 1.393 . S
C2475 C2474 1.391 . S
H2476 C2484 0.950 . S
H2477 C2489 0.950 . S
H2478 C2486 0.950 . S
H2479 C2488 0.950 . S
H2480 C2490 0.950 . S
H2481 C2492 0.950 . S
H2482 C2494 0.950 . S
H2483 C2495 0.950 . S
C2484 H2476 0.950 . S
C2484 C2485 1.386 . S
C2484 C2486 1.391 . S
C2485 C2484 1.386 . S
C2485 C2489 1.393 . S
C2486 H2478 0.950 . S
C2486 C2484 1.391 . S
C2486 C2487 1.400 . S
C2487 C2486 1.400 . S
C2487 C2488 1.398 . S
C2487 C2493 1.491 . S
C2488 H2479 0.950 . S
C2488 C2487 1.398 . S
C2488 C2489 1.391 . S
C2489 H2477 0.950 . S
C2489 C2485 1.393 . S
C2489 C2488 1.391 . S
C2490 H2480 0.950 . S
C2490 C2491 1.386 . S
C2490 C2492 1.391 . S
C2491 C2490 1.386 . S
C2491 C2495 1.393 . S
C2492 H2481 0.950 . S
C2492 C2490 1.391 . S
C2492 C2493 1.400 . S
C2493 C2487 1.491 . S
C2493 C2492 1.400 . S
C2493 C2494 1.398 . S
C2494 H2482 0.950 . S
C2494 C2493 1.398 . S
C2494 C2495 1.391 . S
C2495 H2483 0.950 . S
C2495 C2491 1.393 . S
C2495 C2494 1.391 . S
H2496 C2504 0.950 . S
H2497 C2509 0.950 . S
H2498 C2506 0.950 . S
H2499 C2508 0.950 . S
H2500 C2510 0.950 . S
H2501 C2512 0.950 . S
H2502 C2514 0.950 . S
H2503 C2515 0.950 . S
C2504 H2496 0.950 . S
C2504 C2505 1.386 . S
C2504 C2506 1.391 . S
C2505 C2504 1.386 . S
C2505 C2509 1.393 . S
C2506 H2498 0.950 . S
C2506 C2504 1.391 . S
C2506 C2507 1.400 . S
C2507 C2506 1.400 . S
C2507 C2508 1.398 . S
C2507 C2513 1.491 . S
C2508 H2499 0.950 . S
C2508 C2507 1.398 . S
C2508 C2509 1.391 . S
C2509 H2497 0.950 . S
C2509 C2505 1.393 . S
C2509 C2508 1.391 . S
C2510 H2500 0.950 . S
C2510 C2511 1.386 . S
C2510 C2512 1.391 . S
C2511 C2510 1.386 . S
C2511 C2515 1.393 . S
C2512 H2501 0.950 . S
C2512 C2510 1.391 . S
C2512 C2513 1.400 . S
C2513 C2507 1.491 . S
C2513 C2512 1.400 . S
C2513 C2514 1.398 . S
C2514 H2502 0.950 . S
C2514 C2513 1.398 . S
C2514 C2515 1.391 . S
C2515 H2503 0.950 . S
C2515 C2511 1.393 . S
C2515 C2514 1.391 . S
H2516 C2524 0.950 . S
H2517 C2529 0.950 . S
H2518 C2526 0.950 . S
H2519 C2528 0.950 . S
H2520 C2530 0.950 . S
H2521 C2532 0.950 . S
H2522 C2534 0.950 . S
H2523 C2535 0.950 . S
C2524 H2516 0.950 . S
C2524 C2525 1.386 . S
C2524 C2526 1.391 . S
C2525 C2524 1.386 . S
C2525 C2529 1.393 . S
C2526 H2518 0.950 . S
C2526 C2524 1.391 . S
C2526 C2527 1.400 . S
C2527 C2526 1.400 . S
C2527 C2528 1.398 . S
C2527 C2533 1.491 . S
C2528 H2519 0.950 . S
C2528 C2527 1.398 . S
C2528 C2529 1.391 . S
C2529 H2517 0.950 . S
C2529 C2525 1.393 . S
C2529 C2528 1.391 . S
C2530 H2520 0.950 . S
C2530 C2531 1.386 . S
C2530 C2532 1.391 . S
C2531 C2530 1.386 . S
C2531 C2535 1.393 . S
C2532 H2521 0.950 . S
C2532 C2530 1.391 . S
C2532 C2533 1.400 . S
C2533 C2527 1.491 . S
C2533 C2532 1.400 . S
C2533 C2534 1.398 . S
C2534 H2522 0.950 . S
C2534 C2533 1.398 . S
C2534 C2535 1.391 . S
C2535 H2523 0.950 . S
C2535 C2531 1.393 . S
C2535 C2534 1.391 . S
H2536 C2544 0.950 . S
H2537 C2549 0.950 . S
H2538 C2546 0.950 . S
H2539 C2548 0.950 . S
H2540 C2550 0.950 . S
H2541 C2552 0.950 . S
H2542 C2554 0.950 . S
H2543 C2555 0.950 . S
C2544 H2536 0.950 . S
C2544 C2545 1.386 . S
C2544 C2546 1.391 . S
C2545 C2544 1.386 . S
C2545 C2549 1.393 . S
C2546 H2538 0.950 . S
C2546 C2544 1.391 . S
C2546 C2547 1.400 . S
C2547 C2546 1.400 . S
C2547 C2548 1.398 . S
C2547 C2553 1.491 . S
C2548 H2539 0.950 . S
C2548 C2547 1.398 . S
C2548 C2549 1.391 . S
C2549 H2537 0.950 . S
C2549 C2545 1.393 . S
C2549 C2548 1.391 . S
C2550 H2540 0.950 . S
C2550 C2551 1.386 . S
C2550 C2552 1.391 . S
C2551 C2550 1.386 . S
C2551 C2555 1.393 . S
C2552 H2541 0.950 . S
C2552 C2550 1.391 . S
C2552 C2553 1.400 . S
C2553 C2547 1.491 . S
C2553 C2552 1.400 . S
C2553 C2554 1.398 . S
C2554 H2542 0.950 . S
C2554 C2553 1.398 . S
C2554 C2555 1.391 . S
C2555 H2543 0.950 . S
C2555 C2551 1.393 . S
C2555 C2554 1.391 . S
H2556 C2564 0.950 . S
H2557 C2569 0.950 . S
H2558 C2566 0.950 . S
H2559 C2568 0.950 . S
H2560 C2570 0.950 . S
H2561 C2572 0.950 . S
H2562 C2574 0.950 . S
H2563 C2575 0.950 . S
C2564 H2556 0.950 . S
C2564 C2565 1.386 . S
C2564 C2566 1.391 . S
C2565 C2564 1.386 . S
C2565 C2569 1.393 . S
C2566 H2558 0.950 . S
C2566 C2564 1.391 . S
C2566 C2567 1.400 . S
C2567 C2566 1.400 . S
C2567 C2568 1.398 . S
C2567 C2573 1.491 . S
C2568 H2559 0.950 . S
C2568 C2567 1.398 . S
C2568 C2569 1.391 . S
C2569 H2557 0.950 . S
C2569 C2565 1.393 . S
C2569 C2568 1.391 . S
C2570 H2560 0.950 . S
C2570 C2571 1.386 . S
C2570 C2572 1.391 . S
C2571 C2570 1.386 . S
C2571 C2575 1.393 . S
C2572 H2561 0.950 . S
C2572 C2570 1.391 . S
C2572 C2573 1.400 . S
C2573 C2567 1.491 . S
C2573 C2572 1.400 . S
C2573 C2574 1.398 . S
C2574 H2562 0.950 . S
C2574 C2573 1.398 . S
C2574 C2575 1.391 . S
C2575 H2563 0.950 . S
C2575 C2571 1.393 . S
C2575 C2574 1.391 . S
H2576 C2584 0.950 . S
H2577 C2589 0.950 . S
H2578 C2586 0.950 . S
H2579 C2588 0.950 . S
H2580 C2590 0.950 . S
H2581 C2592 0.950 . S
H2582 C2594 0.950 . S
H2583 C2595 0.950 . S
C2584 H2576 0.950 . S
C2584 C2585 1.386 . S
C2584 C2586 1.391 . S
C2585 C2584 1.386 . S
C2585 C2589 1.393 . S
C2586 H2578 0.950 . S
C2586 C2584 1.391 . S
C2586 C2587 1.400 . S
C2587 C2586 1.400 . S
C2587 C2588 1.398 . S
C2587 C2593 1.491 . S
C2588 H2579 0.950 . S
C2588 C2587 1.398 . S
C2588 C2589 1.391 . S
C2589 H2577 0.950 . S
C2589 C2585 1.393 . S
C2589 C2588 1.391 . S
C2590 H2580 0.950 . S
C2590 C2591 1.386 . S
C2590 C2592 1.391 . S
C2591 C2590 1.386 . S
C2591 C2595 1.393 . S
C2592 H2581 0.950 . S
C2592 C2590 1.391 . S
C2592 C2593 1.400 . S
C2593 C2587 1.491 . S
C2593 C2592 1.400 . S
C2593 C2594 1.398 . S
C2594 H2582 0.950 . S
C2594 C2593 1.398 . S
C2594 C2595 1.391 . S
C2595 H2583 0.950 . S
C2595 C2591 1.393 . S
C2595 C2594 1.391 . S
H2596 C2604 0.950 . S
H2597 C2609 0.950 . S
H2598 C2606 0.950 . S
H2599 C2608 0.950 . S
H2600 C2610 0.950 . S
H2601 C2612 0.950 . S
H2602 C2614 0.950 . S
H2603 C2615 0.950 . S
C2604 H2596 0.950 . S
C2604 C2605 1.386 . S
C2604 C2606 1.391 . S
C2605 C2604 1.386 . S
C2605 C2609 1.393 . S
C2606 H2598 0.950 . S
C2606 C2604 1.391 . S
C2606 C2607 1.400 . S
C2607 C2606 1.400 . S
C2607 C2608 1.398 . S
C2607 C2613 1.491 . S
C2608 H2599 0.950 . S
C2608 C2607 1.398 . S
C2608 C2609 1.391 . S
C2609 H2597 0.950 . S
C2609 C2605 1.393 . S
C2609 C2608 1.391 . S
C2610 H2600 0.950 . S
C2610 C2611 1.386 . S
C2610 C2612 1.391 . S
C2611 C2610 1.386 . S
C2611 C2615 1.393 . S
C2612 H2601 0.950 . S
C2612 C2610 1.391 . S
C2612 C2613 1.400 . S
C2613 C2607 1.491 . S
C2613 C2612 1.400 . S
C2613 C2614 1.398 . S
C2614 H2602 0.950 . S
C2614 C2613 1.398 . S
C2614 C2615 1.391 . S
C2615 H2603 0.950 . S
C2615 C2611 1.393 . S
C2615 C2614 1.391 . S
H2616 C2624 0.950 . S
H2617 C2629 0.950 . S
H2618 C2626 0.950 . S
H2619 C2628 0.950 . S
H2620 C2630 0.950 . S
H2621 C2632 0.950 . S
H2622 C2634 0.950 . S
H2623 C2635 0.950 . S
C2624 H2616 0.950 . S
C2624 C2625 1.386 . S
C2624 C2626 1.391 . S
C2625 C2624 1.386 . S
C2625 C2629 1.393 . S
C2626 H2618 0.950 . S
C2626 C2624 1.391 . S
C2626 C2627 1.400 . S
C2627 C2626 1.400 . S
C2627 C2628 1.398 . S
C2627 C2633 1.491 . S
C2628 H2619 0.950 . S
C2628 C2627 1.398 . S
C2628 C2629 1.391 . S
C2629 H2617 0.950 . S
C2629 C2625 1.393 . S
C2629 C2628 1.391 . S
C2630 H2620 0.950 . S
C2630 C2631 1.386 . S
C2630 C2632 1.391 . S
C2631 C2630 1.386 . S
C2631 C2635 1.393 . S
C2632 H2621 0.950 . S
C2632 C2630 1.391 . S
C2632 C2633 1.400 . S
C2633 C2627 1.491 . S
C2633 C2632 1.400 . S
C2633 C2634 1.398 . S
C2634 H2622 0.950 . S
C2634 C2633 1.398 . S
C2634 C2635 1.391 . S
C2635 H2623 0.950 . S
C2635 C2631 1.393 . S
C2635 C2634 1.391 . S
H2636 C2644 0.950 . S
H2637 C2649 0.950 . S
H2638 C2646 0.950 . S
H2639 C2648 0.950 . S
H2640 C2650 0.950 . S
H2641 C2652 0.950 . S
H2642 C2654 0.950 . S
H2643 C2655 0.950 . S
C2644 H2636 0.950 . S
C2644 C2645 1.386 . S
C2644 C2646 1.391 . S
C2645 C2644 1.386 . S
C2645 C2649 1.393 . S
C2646 H2638 0.950 . S
C2646 C2644 1.391 . S
C2646 C2647 1.400 . S
C2647 C2646 1.400 . S
C2647 C2648 1.398 . S
C2647 C2653 1.491 . S
C2648 H2639 0.950 . S
C2648 C2647 1.398 . S
C2648 C2649 1.391 . S
C2649 H2637 0.950 . S
C2649 C2645 1.393 . S
C2649 C2648 1.391 . S
C2650 H2640 0.950 . S
C2650 C2651 1.386 . S
C2650 C2652 1.391 . S
C2651 C2650 1.386 . S
C2651 C2655 1.393 . S
C2652 H2641 0.950 . S
C2652 C2650 1.391 . S
C2652 C2653 1.400 . S
C2653 C2647 1.491 . S
C2653 C2652 1.400 . S
C2653 C2654 1.398 . S
C2654 H2642 0.950 . S
C2654 C2653 1.398 . S
C2654 C2655 1.391 . S
C2655 H2643 0.950 . S
C2655 C2651 1.393 . S
C2655 C2654 1.391 . S
H2656 C2664 0.950 . S
H2657 C2669 0.950 . S
H2658 C2666 0.950 . S
H2659 C2668 0.950 . S
H2660 C2670 0.950 . S
H2661 C2672 0.950 . S
H2662 C2674 0.950 . S
H2663 C2675 0.950 . S
C2664 H2656 0.950 . S
C2664 C2665 1.386 . S
C2664 C2666 1.391 . S
C2665 C2664 1.386 . S
C2665 C2669 1.393 . S
C2666 H2658 0.950 . S
C2666 C2664 1.391 . S
C2666 C2667 1.400 . S
C2667 C2666 1.400 . S
C2667 C2668 1.398 . S
C2667 C2673 1.491 . S
C2668 H2659 0.950 . S
C2668 C2667 1.398 . S
C2668 C2669 1.391 . S
C2669 H2657 0.950 . S
C2669 C2665 1.393 . S
C2669 C2668 1.391 . S
C2670 H2660 0.950 . S
C2670 C2671 1.386 . S
C2670 C2672 1.391 . S
C2671 C2670 1.386 . S
C2671 C2675 1.393 . S
C2672 H2661 0.950 . S
C2672 C2670 1.391 . S
C2672 C2673 1.400 . S
C2673 C2667 1.491 . S
C2673 C2672 1.400 . S
C2673 C2674 1.398 . S
C2674 H2662 0.950 . S
C2674 C2673 1.398 . S
C2674 C2675 1.391 . S
C2675 H2663 0.950 . S
C2675 C2671 1.393 . S
C2675 C2674 1.391 . S
H2676 C2684 0.950 . S
H2677 C2689 0.950 . S
H2678 C2686 0.950 . S
H2679 C2688 0.950 . S
H2680 C2690 0.950 . S
H2681 C2692 0.950 . S
H2682 C2694 0.950 . S
H2683 C2695 0.950 . S
C2684 H2676 0.950 . S
C2684 C2685 1.386 . S
C2684 C2686 1.391 . S
C2685 C2684 1.386 . S
C2685 C2689 1.393 . S
C2686 H2678 0.950 . S
C2686 C2684 1.391 . S
C2686 C2687 1.400 . S
C2687 C2686 1.400 . S
C2687 C2688 1.398 . S
C2687 C2693 1.491 . S
C2688 H2679 0.950 . S
C2688 C2687 1.398 . S
C2688 C2689 1.391 . S
C2689 H2677 0.950 . S
C2689 C2685 1.393 . S
C2689 C2688 1.391 . S
C2690 H2680 0.950 . S
C2690 C2691 1.386 . S
C2690 C2692 1.391 . S
C2691 C2690 1.386 . S
C2691 C2695 1.393 . S
C2692 H2681 0.950 . S
C2692 C2690 1.391 . S
C2692 C2693 1.400 . S
C2693 C2687 1.491 . S
C2693 C2692 1.400 . S
C2693 C2694 1.398 . S
C2694 H2682 0.950 . S
C2694 C2693 1.398 . S
C2694 C2695 1.391 . S
C2695 H2683 0.950 . S
C2695 C2691 1.393 . S
C2695 C2694 1.391 . S
H2696 C2704 0.950 . S
H2697 C2709 0.950 . S
H2698 C2706 0.950 . S
H2699 C2708 0.950 . S
H2700 C2710 0.950 . S
H2701 C2712 0.950 . S
H2702 C2714 0.950 . S
H2703 C2715 0.950 . S
C2704 H2696 0.950 . S
C2704 C2705 1.386 . S
C2704 C2706 1.391 . S
C2705 C2704 1.386 . S
C2705 C2709 1.393 . S
C2706 H2698 0.950 . S
C2706 C2704 1.391 . S
C2706 C2707 1.400 . S
C2707 C2706 1.400 . S
C2707 C2708 1.398 . S
C2707 C2713 1.491 . S
C2708 H2699 0.950 . S
C2708 C2707 1.398 . S
C2708 C2709 1.391 . S
C2709 H2697 0.950 . S
C2709 C2705 1.393 . S
C2709 C2708 1.391 . S
C2710 H2700 0.950 . S
C2710 C2711 1.386 . S
C2710 C2712 1.391 . S
C2711 C2710 1.386 . S
C2711 C2715 1.393 . S
C2712 H2701 0.950 . S
C2712 C2710 1.391 . S
C2712 C2713 1.400 . S
C2713 C2707 1.491 . S
C2713 C2712 1.400 . S
C2713 C2714 1.398 . S
C2714 H2702 0.950 . S
C2714 C2713 1.398 . S
C2714 C2715 1.391 . S
C2715 H2703 0.950 . S
C2715 C2711 1.393 . S
C2715 C2714 1.391 . S
H2716 C2724 0.950 . S
H2717 C2729 0.950 . S
H2718 C2726 0.950 . S
H2719 C2728 0.950 . S
H2720 C2730 0.950 . S
H2721 C2732 0.950 . S
H2722 C2734 0.950 . S
H2723 C2735 0.950 . S
C2724 H2716 0.950 . S
C2724 C2725 1.386 . S
C2724 C2726 1.391 . S
C2725 C2724 1.386 . S
C2725 C2729 1.393 . S
C2726 H2718 0.950 . S
C2726 C2724 1.391 . S
C2726 C2727 1.400 . S
C2727 C2726 1.400 . S
C2727 C2728 1.398 . S
C2727 C2733 1.491 . S
C2728 H2719 0.950 . S
C2728 C2727 1.398 . S
C2728 C2729 1.391 . S
C2729 H2717 0.950 . S
C2729 C2725 1.393 . S
C2729 C2728 1.391 . S
C2730 H2720 0.950 . S
C2730 C2731 1.386 . S
C2730 C2732 1.391 . S
C2731 C2730 1.386 . S
C2731 C2735 1.393 . S
C2732 H2721 0.950 . S
C2732 C2730 1.391 . S
C2732 C2733 1.400 . S
C2733 C2727 1.491 . S
C2733 C2732 1.400 . S
C2733 C2734 1.398 . S
C2734 H2722 0.950 . S
C2734 C2733 1.398 . S
C2734 C2735 1.391 . S
C2735 H2723 0.950 . S
C2735 C2731 1.393 . S
C2735 C2734 1.391 . S
C1305 C14 1.395 . S
C1311 C410 1.375 . S
C1325 C338 1.372 . S
C1331 C50 1.398 . S
C1345 C374 1.370 . S
C1351 C86 1.400 . S
C1365 C122 1.369 . S
C1371 C266 1.401 . S
C1385 C158 1.386 . S
C1391 C302 1.384 . S
C1405 C194 1.370 . S
C1411 C230 1.400 . S
C1425 C446 1.398 . S
C1431 C842 1.372 . S
C1445 C770 1.387 . S
C1451 C482 1.383 . S
C1465 C518 1.396 . S
C1471 C806 1.373 . S
C1485 C554 1.400 . S
C1491 C698 1.369 . S
C1505 C590 1.391 . S
C1511 C734 1.378 . S
C1525 C626 1.398 . S
C1531 C662 1.372 . S
C1545 C878 1.397 . S
C1551 C1274 1.373 . S
C1565 C914 1.379 . S
C1571 C1202 1.392 . S
C1585 C1238 1.382 . S
C1591 C950 1.387 . S
C1605 C986 1.397 . S
C1611 C1130 1.373 . S
C1625 C1166 1.400 . S
C1631 C1022 1.369 . S
C1645 C1094 1.369 . S
C1651 C1058 1.401 . S
C1665 C3 1.219 . S
C1671 C543 1.218 . S
C1685 C39 1.217 . S
C1691 C579 1.209 . S
C1705 C75 1.204 . S
C1711 C615 1.204 . S
C1725 C111 1.210 . S
C1731 C867 1.203 . S
C1745 C903 1.204 . S
C1751 C147 1.210 . S
C1765 C939 1.203 . S
C1771 C183 1.208 . S
C1785 C219 1.204 . S
C1791 C1191 1.207 . S
C1805 C1227 1.208 . S
C1811 C255 1.203 . S
C1825 C291 1.219 . S
C1831 C1263 1.217 . S
C1845 C327 1.205 . S
C1851 C651 1.213 . S
C1865 C363 1.213 . S
C1871 C687 1.205 . S
C1885 C399 1.214 . S
C1891 C723 1.220 . S
C1905 C975 1.219 . S
C1911 C435 1.212 . S
C1925 C471 1.220 . S
C1931 C1011 1.214 1_545 S
C1945 C507 1.216 1_455 S
C1951 C1047 1.208 . S
C1965 C1083 1.207 . S
C1971 C759 1.215 . S
C1985 C1119 1.205 1_545 S
C1991 C795 1.213 . S
C2005 C831 1.215 1_455 S
C2011 C1155 1.220 . S
C2025 C4 1.272 . S
C2031 C148 1.264 . S
C2045 C184 1.262 . S
C2051 C40 1.283 . S
C2065 C112 1.263 . S
C2071 C76 1.272 . S
C2085 C220 1.274 . S
C2091 C364 1.260 . S
C2105 C400 1.284 . S
C2111 C256 1.261 . S
C2125 C292 1.280 . S
C2131 C328 1.264 . S
C2145 C580 1.267 . S
C2151 C436 1.279 . S
C2165 C472 1.266 . S
C2171 C616 1.269 . S
C2185 C508 1.281 . S
C2191 C544 1.257 . S
C2205 C796 1.267 . S
C2211 C652 1.266 . S
C2225 C832 1.269 . S
C2231 C688 1.279 . S
C2245 C760 1.268 . S
C2251 C724 1.266 . S
C2265 C868 1.284 . S
C2271 C1012 1.258 . S
C2285 C904 1.269 . S
C2291 C1048 1.266 . S
C2305 C940 1.278 . S
C2311 C976 1.258 . S
C2325 C1228 1.283 . S
C2331 C1084 1.257 . S
C2345 C1264 1.258 . S
C2351 C1120 1.282 . S
C2365 C1192 1.271 . S
C2371 C1156 1.263 . S
C2385 C326 1.570 . S
C2391 C2 1.575 . S
C2405 C362 1.576 . S
C2411 C38 1.570 . S
C2425 C74 1.568 . S
C2431 C398 1.578 . S
C2445 C110 1.569 . S
C2451 C218 1.577 . S
C2465 C254 1.579 . S
C2471 C146 1.567 . S
C2485 C182 1.578 . S
C2491 C290 1.568 . S
C2505 C758 1.578 . S
C2511 C434 1.567 . S
C2525 C794 1.575 . S
C2531 C470 1.570 . S
C2545 C506 1.576 . S
C2551 C830 1.570 . S
C2565 C650 1.578 . S
C2571 C542 1.568 . S
C2585 C686 1.575 . S
C2591 C578 1.570 . S
C2605 C722 1.579 . S
C2611 C614 1.568 . S
C2625 C866 1.572 . S
C2631 C1190 1.573 . S
C2645 C1226 1.572 . S
C2651 C902 1.574 . S
C2665 C938 1.567 . S
C2671 C1262 1.578 . S
C2685 C974 1.575 . S
C2691 C1082 1.570 . S
C2705 C1010 1.568 . S
C2711 C1118 1.578 . S
C2725 C1154 1.570 . S
C2731 C1046 1.576 . S
