# Generated by pormake.
# Topology ecc, (8)-cn, num edge types: 1
# Building blocks:
#     Node 0, Type 0, BuildingBlock: TAGTUT_clean_sbu_3, # of connection points: 8
#     Node 1, Type 0, BuildingBlock: TAGTUT_clean_sbu_3, # of connection points: 8
#     Node 2, Type 0, BuildingBlock: TAGTUT_clean_sbu_3, # of connection points: 8
#     Node 3, Type 0, BuildingBlock: TAGTUT_clean_sbu_3, # of connection points: 8
#     Node 4, Type 0, BuildingBlock: TAGTUT_clean_sbu_3, # of connection points: 8
#     Node 5, Type 0, BuildingBlock: TAGTUT_clean_sbu_3, # of connection points: 8
#     Node 6, Type 0, BuildingBlock: TAGTUT_clean_sbu_3, # of connection points: 8
#     Node 7, Type 0, BuildingBlock: TAGTUT_clean_sbu_3, # of connection points: 8
#     Node 8, Type 0, BuildingBlock: TAGTUT_clean_sbu_3, # of connection points: 8
#     Node 9, Type 0, BuildingBlock: TAGTUT_clean_sbu_3, # of connection points: 8
#     Node 10, Type 0, BuildingBlock: TAGTUT_clean_sbu_3, # of connection points: 8
#     Node 11, Type 0, BuildingBlock: TAGTUT_clean_sbu_3, # of connection points: 8
#     Node 12, Type 0, BuildingBlock: TAGTUT_clean_sbu_3, # of connection points: 8
#     Node 13, Type 0, BuildingBlock: TAGTUT_clean_sbu_3, # of connection points: 8
#     Node 14, Type 0, BuildingBlock: TAGTUT_clean_sbu_3, # of connection points: 8
#     Node 15, Type 0, BuildingBlock: TAGTUT_clean_sbu_3, # of connection points: 8
#     Node 16, Type 0, BuildingBlock: TAGTUT_clean_sbu_3, # of connection points: 8
#     Node 17, Type 0, BuildingBlock: TAGTUT_clean_sbu_3, # of connection points: 8
#     Edge 18, Type (0, 0), BuildingBlock: OJICUG_clean_linker_0, # of connection points: 2
#     Edge 19, Type (0, 0), BuildingBlock: OJICUG_clean_linker_0, # of connection points: 2
#     Edge 20, Type (0, 0), BuildingBlock: OJICUG_clean_linker_0, # of connection points: 2
#     Edge 21, Type (0, 0), BuildingBlock: OJICUG_clean_linker_0, # of connection points: 2
#     Edge 22, Type (0, 0), BuildingBlock: OJICUG_clean_linker_0, # of connection points: 2
#     Edge 23, Type (0, 0), BuildingBlock: OJICUG_clean_linker_0, # of connection points: 2
#     Edge 24, Type (0, 0), BuildingBlock: OJICUG_clean_linker_0, # of connection points: 2
#     Edge 25, Type (0, 0), BuildingBlock: OJICUG_clean_linker_0, # of connection points: 2
#     Edge 26, Type (0, 0), BuildingBlock: OJICUG_clean_linker_0, # of connection points: 2
#     Edge 27, Type (0, 0), BuildingBlock: OJICUG_clean_linker_0, # of connection points: 2
#     Edge 28, Type (0, 0), BuildingBlock: OJICUG_clean_linker_0, # of connection points: 2
#     Edge 29, Type (0, 0), BuildingBlock: OJICUG_clean_linker_0, # of connection points: 2
#     Edge 30, Type (0, 0), BuildingBlock: OJICUG_clean_linker_0, # of connection points: 2
#     Edge 31, Type (0, 0), BuildingBlock: OJICUG_clean_linker_0, # of connection points: 2
#     Edge 32, Type (0, 0), BuildingBlock: OJICUG_clean_linker_0, # of connection points: 2
#     Edge 33, Type (0, 0), BuildingBlock: OJICUG_clean_linker_0, # of connection points: 2
#     Edge 34, Type (0, 0), BuildingBlock: OJICUG_clean_linker_0, # of connection points: 2
#     Edge 35, Type (0, 0), BuildingBlock: OJICUG_clean_linker_0, # of connection points: 2
#     Edge 36, Type (0, 0), BuildingBlock: OJICUG_clean_linker_0, # of connection points: 2
#     Edge 37, Type (0, 0), BuildingBlock: OJICUG_clean_linker_0, # of connection points: 2
#     Edge 38, Type (0, 0), BuildingBlock: OJICUG_clean_linker_0, # of connection points: 2
#     Edge 39, Type (0, 0), BuildingBlock: OJICUG_clean_linker_0, # of connection points: 2
#     Edge 40, Type (0, 0), BuildingBlock: OJICUG_clean_linker_0, # of connection points: 2
#     Edge 41, Type (0, 0), BuildingBlock: OJICUG_clean_linker_0, # of connection points: 2
#     Edge 42, Type (0, 0), BuildingBlock: OJICUG_clean_linker_0, # of connection points: 2
#     Edge 43, Type (0, 0), BuildingBlock: OJICUG_clean_linker_0, # of connection points: 2
#     Edge 44, Type (0, 0), BuildingBlock: OJICUG_clean_linker_0, # of connection points: 2
#     Edge 45, Type (0, 0), BuildingBlock: OJICUG_clean_linker_0, # of connection points: 2
#     Edge 46, Type (0, 0), BuildingBlock: OJICUG_clean_linker_0, # of connection points: 2
#     Edge 47, Type (0, 0), BuildingBlock: OJICUG_clean_linker_0, # of connection points: 2
#     Edge 48, Type (0, 0), BuildingBlock: OJICUG_clean_linker_0, # of connection points: 2
#     Edge 49, Type (0, 0), BuildingBlock: OJICUG_clean_linker_0, # of connection points: 2
#     Edge 50, Type (0, 0), BuildingBlock: OJICUG_clean_linker_0, # of connection points: 2
#     Edge 51, Type (0, 0), BuildingBlock: OJICUG_clean_linker_0, # of connection points: 2
#     Edge 52, Type (0, 0), BuildingBlock: OJICUG_clean_linker_0, # of connection points: 2
#     Edge 53, Type (0, 0), BuildingBlock: OJICUG_clean_linker_0, # of connection points: 2
#     Edge 54, Type (0, 0), BuildingBlock: OJICUG_clean_linker_0, # of connection points: 2
#     Edge 55, Type (0, 0), BuildingBlock: OJICUG_clean_linker_0, # of connection points: 2
#     Edge 56, Type (0, 0), BuildingBlock: OJICUG_clean_linker_0, # of connection points: 2
#     Edge 57, Type (0, 0), BuildingBlock: OJICUG_clean_linker_0, # of connection points: 2
#     Edge 58, Type (0, 0), BuildingBlock: OJICUG_clean_linker_0, # of connection points: 2
#     Edge 59, Type (0, 0), BuildingBlock: OJICUG_clean_linker_0, # of connection points: 2
#     Edge 60, Type (0, 0), BuildingBlock: OJICUG_clean_linker_0, # of connection points: 2
#     Edge 61, Type (0, 0), BuildingBlock: OJICUG_clean_linker_0, # of connection points: 2
#     Edge 62, Type (0, 0), BuildingBlock: OJICUG_clean_linker_0, # of connection points: 2
#     Edge 63, Type (0, 0), BuildingBlock: OJICUG_clean_linker_0, # of connection points: 2
#     Edge 64, Type (0, 0), BuildingBlock: OJICUG_clean_linker_0, # of connection points: 2
#     Edge 65, Type (0, 0), BuildingBlock: OJICUG_clean_linker_0, # of connection points: 2
#     Edge 66, Type (0, 0), BuildingBlock: OJICUG_clean_linker_0, # of connection points: 2
#     Edge 67, Type (0, 0), BuildingBlock: OJICUG_clean_linker_0, # of connection points: 2
#     Edge 68, Type (0, 0), BuildingBlock: OJICUG_clean_linker_0, # of connection points: 2
#     Edge 69, Type (0, 0), BuildingBlock: OJICUG_clean_linker_0, # of connection points: 2
#     Edge 70, Type (0, 0), BuildingBlock: OJICUG_clean_linker_0, # of connection points: 2
#     Edge 71, Type (0, 0), BuildingBlock: OJICUG_clean_linker_0, # of connection points: 2
#     Edge 72, Type (0, 0), BuildingBlock: OJICUG_clean_linker_0, # of connection points: 2
#     Edge 73, Type (0, 0), BuildingBlock: OJICUG_clean_linker_0, # of connection points: 2
#     Edge 74, Type (0, 0), BuildingBlock: OJICUG_clean_linker_0, # of connection points: 2
#     Edge 75, Type (0, 0), BuildingBlock: OJICUG_clean_linker_0, # of connection points: 2
#     Edge 76, Type (0, 0), BuildingBlock: OJICUG_clean_linker_0, # of connection points: 2
#     Edge 77, Type (0, 0), BuildingBlock: OJICUG_clean_linker_0, # of connection points: 2
#     Edge 78, Type (0, 0), BuildingBlock: OJICUG_clean_linker_0, # of connection points: 2
#     Edge 79, Type (0, 0), BuildingBlock: OJICUG_clean_linker_0, # of connection points: 2
#     Edge 80, Type (0, 0), BuildingBlock: OJICUG_clean_linker_0, # of connection points: 2
#     Edge 81, Type (0, 0), BuildingBlock: OJICUG_clean_linker_0, # of connection points: 2
#     Edge 82, Type (0, 0), BuildingBlock: OJICUG_clean_linker_0, # of connection points: 2
#     Edge 83, Type (0, 0), BuildingBlock: OJICUG_clean_linker_0, # of connection points: 2
#     Edge 84, Type (0, 0), BuildingBlock: OJICUG_clean_linker_0, # of connection points: 2
#     Edge 85, Type (0, 0), BuildingBlock: OJICUG_clean_linker_0, # of connection points: 2
#     Edge 86, Type (0, 0), BuildingBlock: OJICUG_clean_linker_0, # of connection points: 2
#     Edge 87, Type (0, 0), BuildingBlock: OJICUG_clean_linker_0, # of connection points: 2
#     Edge 88, Type (0, 0), BuildingBlock: OJICUG_clean_linker_0, # of connection points: 2
#     Edge 89, Type (0, 0), BuildingBlock: OJICUG_clean_linker_0, # of connection points: 2
# Relax obj value: 0.278
# Max RMSD: 0.222
# Mean RMSD: 0.204
data_MOF--net-ecc--node1-TAGTUT_clean_sbu_3--edge1-OJICUG_clean_linker_0
_symmetry_space_group_name_H-M    P1
_symmetry_Int_Tables_number       1
_symmetry_cell_setting            triclinic
loop_
_symmetry_equiv_pos_as_xyz
'x, y, z'
_cell_length_a     46.026954
_cell_length_b     43.379103
_cell_length_c     19.868674
_cell_angle_alpha  88.332351
_cell_angle_beta   91.28092
_cell_angle_gamma 126.94382
loop_
_atom_site_label
_atom_site_type_symbol
_atom_site_fract_x
_atom_site_fract_y
_atom_site_fract_z
_atom_type_partial_charge
C0 C 0.27036 0.09617 0.56638 0.0
C1 C 0.2094 0.14647 0.6061 0.0
C2 C 0.19163 0.09508 0.80818 0.0
Mg3 Mg 0.2684 0.02283 0.62355 0.0
Mg4 Mg 0.19614 0.94782 0.70202 0.0
O5 O 0.23263 0.00077 0.69987 0.0
Mg6 Mg 0.2183 0.03502 0.68111 0.0
O7 O 0.21018 0.0733 0.65761 0.0
Mg8 Mg 0.25648 0.12053 0.69569 0.0
Mg9 Mg 0.16609 0.0647 0.66934 0.0
C10 C 0.16219 0.97509 0.79938 0.0
O11 O 0.16531 0.98782 0.62506 0.0
O12 O 0.27913 0.97935 0.65892 0.0
O13 O 0.13002 0.00727 0.63329 0.0
O14 O 0.22738 0.97733 0.54798 0.0
O15 O 0.22951 0.92867 0.71167 0.0
O16 O 0.17597 0.93295 0.60254 0.0
O17 O 0.26742 0.07923 0.74699 0.0
O18 O 0.30419 0.06663 0.70603 0.0
C19 C 0.29617 0.08076 0.75178 0.0
C20 C 0.2613 0.94558 0.68677 0.0
O21 O 0.1826 0.00968 0.77552 0.0
O22 O 0.23939 0.15611 0.63416 0.0
O23 O 0.1621 0.94752 0.77696 0.0
O24 O 0.22396 0.1139 0.78579 0.0
O25 O 0.17927 0.1129 0.61267 0.0
O26 O 0.16356 0.07245 0.77246 0.0
O27 O 0.25142 0.06023 0.58343 0.0
O28 O 0.2887 0.12129 0.61114 0.0
C29 C 0.19429 0.9472 0.5485 0.0
C30 C 0.13464 0.98205 0.61784 0.0
C31 C 0.0788 0.29155 0.65021 0.0
C32 C 0.97416 0.22574 0.84402 0.0
C33 C 0.9869 0.14521 0.852 0.0
Mg34 Mg 0.10773 0.25376 0.57573 0.0
Mg35 Mg 0.05301 0.1643 0.51509 0.0
O36 O 0.06763 0.19573 0.58992 0.0
Mg37 Mg 0.03433 0.19878 0.648 0.0
O38 O 0.00692 0.20924 0.70965 0.0
Mg39 Mg 0.04488 0.23544 0.78394 0.0
Mg40 Mg 0.96178 0.16625 0.73764 0.0
C41 C 0.99237 0.10597 0.62293 0.0
O42 O 0.99003 0.18056 0.57049 0.0
O43 O 0.14403 0.2376 0.53662 0.0
O44 O 0.93999 0.14916 0.63643 0.0
O45 O 0.0836 0.25464 0.47365 0.0
O46 O 0.10549 0.17436 0.51301 0.0
O47 O 0.04467 0.19589 0.44221 0.0
O48 O 0.07424 0.21537 0.73001 0.0
O49 O 0.12805 0.25105 0.67939 0.0
C50 C 0.10845 0.2331 0.73099 0.0
C51 C 0.1378 0.2055 0.52176 0.0
O52 O 0.00117 0.13229 0.66564 0.0
O53 O 0.00875 0.24714 0.83549 0.0
O54 O 0.00683 0.11354 0.56446 0.0
O55 O 0.01386 0.181 0.85342 0.0
O56 O 0.95189 0.19489 0.81076 0.0
O57 O 0.96945 0.13021 0.79743 0.0
O58 O 0.06775 0.26079 0.62118 0.0
O59 O 0.07376 0.29153 0.71342 0.0
C60 C 0.07427 0.22903 0.43098 0.0
C61 C 0.95534 0.15936 0.57838 0.0
C62 C 0.83016 0.76677 0.73531 0.0
C63 C 0.74637 0.80151 0.60352 0.0
C64 C 0.84616 0.89012 0.52733 0.0
Mg65 Mg 0.91559 0.81819 0.74599 0.0
Mg66 Mg 0.9625 0.91104 0.77537 0.0
O67 O 0.92899 0.87089 0.71909 0.0
Mg68 Mg 0.88002 0.85719 0.70003 0.0
O69 O 0.8282 0.83662 0.68089 0.0
Mg70 Mg 0.82143 0.80619 0.60023 0.0
Mg71 Mg 0.81818 0.87178 0.66616 0.0
C72 C 0.93264 0.95086 0.69191 0.0
O73 O 0.87659 0.88329 0.79335 0.0
O74 O 0.97696 0.84638 0.72635 0.0
O75 O 0.84151 0.90135 0.75848 0.0
O76 O 0.92351 0.83071 0.85669 0.0
O77 O 0.00467 0.91023 0.73586 0.0
O78 O 0.95118 0.89239 0.87845 0.0
O79 O 0.88197 0.83243 0.6022 0.0
O80 O 0.90482 0.80248 0.6404 0.0
C81 C 0.89288 0.81193 0.5924 0.0
C82 C 0.00458 0.88193 0.71845 0.0
O83 O 0.90775 0.91996 0.66052 0.0
O84 O 0.76254 0.78609 0.59401 0.0
O85 O 0.95293 0.95153 0.73819 0.0
O86 O 0.83496 0.85503 0.52563 0.0
O87 O 0.76195 0.83411 0.63203 0.0
O88 O 0.84856 0.90576 0.58217 0.0
O89 O 0.85805 0.80044 0.7484 0.0
O90 O 0.80974 0.76026 0.68396 0.0
C91 C 0.93534 0.85762 0.89815 0.0
C92 C 0.86305 0.90163 0.80107 0.0
C93 C 0.76763 0.95392 0.14728 0.0
C94 C 0.77383 0.06899 0.24962 0.0
C95 C 0.86607 0.09198 0.34283 0.0
Mg96 Mg 0.82259 0.93332 0.17168 0.0
Mg97 Mg 0.9133 -0.00144 0.18985 0.0
O98 O 0.8672 0.98464 0.20316 0.0
Mg99 Mg 0.84914 0.01546 0.19635 0.0
O100 O 0.8233 0.03949 0.19493 0.0
Mg101 Mg 0.79443 0.00919 0.27793 0.0
Mg102 Mg 0.84879 0.09293 0.19496 0.0
C103 C 0.93589 0.07836 0.24357 0.0
O104 O 0.87641 0.04829 0.09861 0.0
O105 O 0.8481 0.90462 0.22293 0.0
O106 O 0.88185 0.10359 0.10522 0.0
O107 O 0.85371 0.94674 0.07628 0.0
O108 O 0.90631 0.95312 0.24853 0.0
O109 O 0.91414 0.99078 0.08549 0.0
O110 O 0.82497 0.98424 0.29761 0.0
O111 O 0.79138 0.92434 0.26289 0.0
C112 C 0.8086 0.94819 0.30957 0.0
C113 C 0.87857 0.91774 0.25258 0.0
O114 O 0.90318 0.06799 0.24395 0.0
O115 O 0.76546 0.03575 0.26417 0.0
O116 O 0.94389 0.05644 0.22405 0.0
O117 O 0.83569 0.05836 0.3486 0.0
O118 O 0.80404 0.09572 0.22098 0.0
O119 O 0.87847 0.10929 0.28616 0.0
O120 O 0.80039 0.96637 0.13737 0.0
O121 O 0.75877 0.96387 0.1986 0.0
C122 C 0.88549 0.96793 0.05107 0.0
C123 C 0.88831 0.08199 0.07613 0.0
C124 C 0.99477 0.75907 0.22505 0.0
C125 C 0.0948 0.81882 0.03317 0.0
C126 C 0.08644 0.9098 0.03657 0.0
Mg127 Mg 0.96585 0.79768 0.304 0.0
Mg128 Mg 0.02412 0.88624 0.36712 0.0
O129 O 0.00754 0.85494 0.29151 0.0
Mg130 Mg 0.03917 0.85118 0.23066 0.0
O131 O 0.06573 0.84099 0.16655 0.0
Mg132 Mg 0.02755 0.81724 0.09376 0.0
Mg133 Mg 0.11312 0.88009 0.14052 0.0
C134 C 0.0827 0.94371 0.25741 0.0
O135 O 0.08296 0.86649 0.30598 0.0
O136 O 0.93255 0.81733 0.34424 0.0
O137 O 0.13399 0.89424 0.24368 0.0
O138 O 0.99006 0.79585 0.40537 0.0
O139 O 0.97401 0.88023 0.36813 0.0
O140 O 0.0289 0.85319 0.44305 0.0
O141 O -0.00115 0.83641 0.15135 0.0
O142 O 0.94501 0.80125 0.20121 0.0
C143 C 0.96478 0.81924 0.14987 0.0
C144 C 0.94104 0.85056 0.35848 0.0
O145 O 0.07249 0.91724 0.21422 0.0
O146 O 0.06114 0.80415 0.03844 0.0
O147 O 0.07069 0.93645 0.31794 0.0
O148 O 0.05777 0.87483 0.03248 0.0
O149 O 0.11972 0.84753 0.06839 0.0
O150 O 0.10974 0.92019 0.0836 0.0
O151 O 0.00462 0.78913 0.25535 0.0
O152 O 0.00067 0.7603 0.16185 0.0
C153 C -0.00144 0.82016 0.45028 0.0
C154 C 0.11742 0.8845 0.30055 0.0
C155 C 0.24336 0.27697 0.14035 0.0
C156 C 0.31518 0.23144 0.26281 0.0
C157 C 0.22124 0.14986 0.35553 0.0
Mg158 Mg 0.15741 0.23276 0.13066 0.0
Mg159 Mg 0.10389 0.13903 0.10204 0.0
O160 O 0.13865 0.1783 0.15873 0.0
Mg161 Mg 0.18561 0.18711 0.17721 0.0
O162 O 0.23486 0.20142 0.19727 0.0
Mg163 Mg 0.24584 0.23389 0.27693 0.0
Mg164 Mg 0.23961 0.16217 0.21202 0.0
C165 C 0.12839 0.09463 0.18807 0.0
O166 O 0.18599 0.159 0.0832 0.0
O167 O 0.09687 0.20971 0.14682 0.0
O168 O 0.21531 0.13423 0.11887 0.0
O169 O 0.14904 0.21982 0.02075 0.0
O170 O 0.06339 0.14523 0.13343 0.0
O171 O 0.11885 0.15763 -0.00032 0.0
O172 O 0.18686 0.21323 0.27599 0.0
O173 O 0.169 0.24798 0.23719 0.0
C174 C 0.17884 0.2363 0.28549 0.0
C175 C 0.06645 0.17558 0.14894 0.0
O176 O 0.15433 0.12516 0.21841 0.0
O177 O 0.3018 0.24938 0.27485 0.0
O178 O 0.10876 0.09499 0.14145 0.0
O179 O 0.23325 0.18534 0.35434 0.0
O180 O 0.29657 0.19771 0.23747 0.0
O181 O 0.21281 0.13117 0.30156 0.0
O182 O 0.21307 0.24522 0.12658 0.0
O183 O 0.26092 0.28038 0.19417 0.0
C184 C 0.13658 0.19261 -0.02027 0.0
C185 C 0.19682 0.13809 0.0749 0.0
C186 C 0.93478 0.3781 0.1721 0.0
C187 C 0.91445 0.25944 0.0504 0.0
C188 C 0.82264 0.24716 0.97197 0.0
Mg189 Mg 0.88146 0.40132 0.18379 0.0
Mg190 Mg 0.79096 0.33935 0.19054 0.0
O191 O 0.83396 0.35219 0.15507 0.0
Mg192 Mg 0.84977 0.31982 0.13895 0.0
O193 O 0.87226 0.29335 0.12034 0.0
Mg194 Mg 0.89893 0.32515 0.03782 0.0
Mg195 Mg 0.84423 0.24023 0.11265 0.0
C196 C 0.75959 0.26095 0.11474 0.0
O197 O 0.82717 0.28395 0.23272 0.0
O198 O 0.85614 0.43323 0.16057 0.0
O199 O 0.81591 0.22726 0.20608 0.0
O200 O 0.86066 0.38777 0.29024 0.0
O201 O 0.79666 0.38679 0.14006 0.0
O202 O 0.79997 0.34941 0.29671 0.0
O203 O 0.87182 0.35441 0.04193 0.0
O204 O 0.89992 0.41393 0.07915 0.0
C205 C 0.89057 0.39078 0.03158 0.0
C206 C 0.82511 0.42194 0.13669 0.0
O207 O 0.79104 0.27127 0.09589 0.0
O208 O 0.92295 0.29265 0.03404 0.0
O209 O 0.75537 0.28159 0.15213 0.0
O210 O 0.85348 0.28029 0.9663 0.0
O211 O 0.88546 0.23403 0.08314 0.0
O212 O 0.81164 0.22796 0.02708 0.0
O213 O 0.90297 0.36537 0.19096 0.0
O214 O 0.94011 0.36707 0.11748 0.0
C215 C 0.83135 0.36985 0.32416 0.0
C216 C 0.81337 0.24855 0.24536 0.0
C217 C 0.68148 0.56556 0.12546 0.0
C218 C 0.7924 0.66434 0.96032 0.0
C219 C 0.78746 0.56787 0.91777 0.0
Mg220 Mg 0.64437 0.47749 0.15043 0.0
Mg221 Mg 0.69435 0.44563 0.17688 0.0
O222 O 0.68675 0.47669 0.12687 0.0
Mg223 Mg 0.72379 0.53043 0.09789 0.0
O224 O 0.75503 0.58524 0.06417 0.0
Mg225 Mg 0.723 0.57391 -0.01622 0.0
Mg226 Mg 0.80397 0.61051 0.04572 0.0
C227 C 0.76505 0.49125 0.08563 0.0
O228 O 0.76246 0.55059 0.1881 0.0
O229 O 0.60696 0.40953 0.13256 0.0
O230 O 0.81716 0.59948 0.1449 0.0
O231 O 0.65294 0.46947 0.25888 0.0
O232 O 0.646 0.39423 0.14053 0.0
O233 O 0.6895 0.45276 0.28065 0.0
O234 O 0.68887 0.50989 0.00345 0.0
O235 O 0.63712 0.49131 0.04633 0.0
C236 C 0.6542 0.48739 0.0033 0.0
C237 C 0.61464 0.38556 0.12645 0.0
O238 O 0.75928 0.51413 0.05747 0.0
O239 O 0.7585 0.63675 0.95987 0.0
O240 O 0.74546 0.46702 0.13296 0.0
O241 O 0.75967 0.56805 0.91091 0.0
O242 O 0.81573 0.66167 -0.00888 0.0
O243 O 0.80597 0.57807 0.97185 0.0
O244 O 0.68844 0.54297 0.14836 0.0
O245 O 0.69067 0.58024 0.06542 0.0
C246 C 0.66951 0.46194 0.30002 0.0
C247 C 0.79727 0.57532 0.19252 0.0
C248 C 0.43728 0.04685 0.16806 0.0
C249 C 0.35746 0.08545 0.01264 0.0
C250 C 0.45617 0.1682 0.95343 0.0
Mg251 Mg 0.52355 0.09756 0.16907 0.0
Mg252 Mg 0.57461 0.19359 0.18028 0.0
O253 O 0.53596 0.14951 0.13847 0.0
Mg254 Mg 0.48706 0.13639 0.12501 0.0
O255 O 0.43465 0.11512 0.10834 0.0
Mg256 Mg 0.4286 0.08462 0.02766 0.0
Mg257 Mg 0.42606 0.15115 0.09065 0.0
C258 C 0.54283 0.23085 0.09721 0.0
O259 O 0.4858 0.16512 0.21765 0.0
O260 O 0.58572 0.12546 0.13931 0.0
O261 O 0.44998 0.18217 0.18233 0.0
O262 O 0.54188 0.11958 0.27331 0.0
O263 O 0.61456 0.18994 0.13957 0.0
O264 O 0.57223 0.18278 0.28636 0.0
O265 O 0.48924 0.11102 0.02784 0.0
O266 O 0.49841 0.07035 0.07048 0.0
C267 C 0.50375 0.09356 0.02408 0.0
C268 C 0.61409 0.16074 0.12855 0.0
O269 O 0.51383 0.1982 0.07855 0.0
O270 O 0.36948 0.06522 0.01798 0.0
O271 O 0.56645 0.23392 0.13777 0.0
O272 O 0.44297 0.13258 0.95042 0.0
O273 O 0.3729 0.11753 0.04302 0.0
O274 O 0.45796 0.18375 0.00796 0.0
O275 O 0.46575 0.08048 0.18157 0.0
O276 O 0.41844 0.04058 0.11398 0.0
C277 C 0.55784 0.14899 0.31026 0.0
C278 C 0.47213 0.18338 0.22481 0.0
C279 C 0.58624 0.41249 0.5359 0.0
C280 C 0.67141 0.4328 0.66442 0.0
C281 C 0.59237 0.37249 0.83576 0.0
Mg282 Mg 0.50599 0.3493 0.50702 0.0
Mg283 Mg 0.46086 0.26171 0.56652 0.0
O284 O 0.48474 0.31314 0.5881 0.0
Mg285 Mg 0.53304 0.33712 0.63209 0.0
O286 O 0.58189 0.36587 0.66869 0.0
Mg287 Mg 0.59167 0.41578 0.692 0.0
Mg288 Mg 0.6081 0.35036 0.70694 0.0
C289 C 0.47775 0.25833 0.71886 0.0
O290 O 0.53827 0.2901 0.59626 0.0
O291 O 0.44806 0.31647 0.46834 0.0
O292 O 0.58066 0.29522 0.6646 0.0
O293 O 0.51055 0.31016 0.44092 0.0
O294 O 0.41887 0.25486 0.50476 0.0
O295 O 0.49187 0.2564 0.49817 0.0
O296 O 0.52824 0.38256 0.67651 0.0
O297 O 0.50245 0.38624 0.58202 0.0
C298 C 0.51198 0.39448 0.64422 0.0
C299 C 0.42058 0.28075 0.46819 0.0
O300 O 0.50374 0.29469 0.7191 0.0
O301 O 0.65439 0.44544 0.6866 0.0
O302 O 0.45909 0.24044 0.66606 0.0
O303 O 0.5874 0.39429 0.80056 0.0
O304 O 0.65809 0.39712 0.6663 0.0
O305 O 0.60209 0.35345 0.8103 0.0
O306 O 0.56217 0.37632 0.54343 0.0
O307 O 0.5985 0.43484 0.58544 0.0
C308 C 0.50637 0.27833 0.44668 0.0
C309 C 0.5554 0.27745 0.62058 0.0
C310 C 0.59674 0.10911 0.5513 0.0
C311 C 0.5827 0.17856 0.67818 0.0
C312 C 0.62066 0.15054 0.85547 0.0
Mg313 Mg 0.6508 0.09068 0.52952 0.0
Mg314 Mg 0.73274 0.14675 0.58748 0.0
O315 O 0.68455 0.1104 0.61103 0.0
Mg316 Mg 0.66432 0.13598 0.65234 0.0
O317 O 0.63929 0.15565 0.6877 0.0
Mg318 Mg 0.58951 0.10742 0.70735 0.0
Mg319 Mg 0.65647 0.20105 0.72956 0.0
C320 C 0.73675 0.1668 0.73976 0.0
O321 O 0.71093 0.19862 0.61727 0.0
O322 O 0.68086 0.06734 0.4893 0.0
O323 O 0.71143 0.23655 0.69347 0.0
O324 O 0.68882 0.14128 0.46029 0.0
O325 O 0.73901 0.11376 0.51938 0.0
O326 O 0.73685 0.18703 0.51897 0.0
O327 O 0.61844 0.07764 0.69592 0.0
O328 O 0.61328 0.04223 0.60953 0.0
C329 C 0.60515 0.04488 0.66989 0.0
C330 C 0.71538 0.08562 0.48195 0.0
O331 O 0.70271 0.15182 0.74063 0.0
O332 O 0.56703 0.14367 0.69954 0.0
O333 O 0.75332 0.16888 0.68664 0.0
O334 O 0.60345 0.1209 0.81804 0.0
O335 O 0.61702 0.20475 0.68214 0.0
O336 O 0.64272 0.18486 0.83221 0.0
O337 O 0.62969 0.12266 0.56153 0.0
O338 O 0.5749 0.09744 0.59967 0.0
C339 C 0.7181 0.17537 0.46523 0.0
C340 C 0.72622 0.23119 0.646 0.0
C341 C 0.9785 0.56324 0.62488 0.0
C342 C 0.96419 0.66224 0.45507 0.0
C343 C 0.87002 0.56587 0.42086 0.0
Mg344 Mg 0.91404 0.47578 0.64796 0.0
Mg345 Mg 0.82864 0.44336 0.67601 0.0
O346 O 0.87071 0.47629 0.62828 0.0
Mg347 Mg 0.89432 0.53075 0.60303 0.0
O348 O 0.92546 0.58638 0.57113 0.0
Mg349 Mg 0.94389 0.57709 0.48734 0.0
Mg350 Mg 0.89874 0.60445 0.55101 0.0
C351 C 0.80672 0.49077 0.59607 0.0
O352 O 0.87961 0.54975 0.69781 0.0
O353 O 0.87398 0.40797 0.63465 0.0
O354 O 0.87506 0.59448 0.64898 0.0
O355 O 0.90009 0.46684 0.75733 0.0
O356 O 0.81747 0.39226 0.63737 0.0
O357 O 0.84383 0.44706 0.77874 0.0
O358 O 0.90381 0.51207 0.5053 0.0
O359 O 0.93073 0.48661 0.54094 0.0
C360 C 0.90973 0.48703 0.49971 0.0
C361 C 0.8392 0.38372 0.62739 0.0
O362 O 0.83805 0.51493 0.56874 0.0
O363 O 0.97623 0.64201 0.45926 0.0
O364 O 0.79989 0.46481 0.63942 0.0
O365 O 0.90025 0.57089 0.41524 0.0
O366 O 0.93782 0.65477 0.49134 0.0
O367 O 0.85977 0.56981 0.4766 0.0
O368 O 0.94593 0.54183 0.64671 0.0
O369 O 0.98597 0.581 0.56717 0.0
C370 C 0.87462 0.45621 0.7981 0.0
C371 C 0.87037 0.57262 0.69928 0.0
C372 C 0.58406 0.73359 0.26696 0.0
C373 C 0.50321 0.75254 0.34664 0.0
C374 C 0.50661 0.70035 0.53987 0.0
Mg375 Mg 0.59817 0.67298 0.28748 0.0
Mg376 Mg 0.55001 0.58991 0.37306 0.0
O377 O 0.57356 0.64309 0.37331 0.0
Mg378 Mg 0.54496 0.66408 0.37839 0.0
O379 O 0.52292 0.69108 0.37916 0.0
Mg380 Mg 0.56537 0.74265 0.4119 0.0
Mg381 Mg 0.4762 0.67282 0.4015 0.0
C382 C 0.51217 0.59731 0.49634 0.0
O383 O 0.48992 0.60981 0.33209 0.0
O384 O 0.62666 0.64505 0.28915 0.0
O385 O 0.44714 0.61666 0.36252 0.0
O386 O 0.55315 0.62412 0.22315 0.0
O387 O 0.59415 0.5879 0.34407 0.0
O388 O 0.51622 0.57175 0.28824 0.0
O389 O 0.59502 0.71489 0.43204 0.0
O390 O 0.63619 0.71973 0.3643 0.0
C391 C 0.62817 0.73036 0.41628 0.0
C392 C 0.62132 0.61355 0.30752 0.0
O393 O 0.52151 0.63033 0.47561 0.0
O394 O 0.53427 0.76747 0.37501 0.0
O395 O 0.51952 0.57723 0.46488 0.0
O396 O 0.53772 0.72391 0.51263 0.0
O397 O 0.47731 0.71643 0.34907 0.0
O398 O 0.47753 0.67771 0.50653 0.0
O399 O 0.56742 0.69765 0.28028 0.0
O400 O 0.58913 0.75669 0.31174 0.0
C401 C 0.52388 0.59005 0.23245 0.0
C402 C 0.45653 0.59732 0.33643 0.0
C403 C 0.42407 0.85642 0.4247 0.0
C404 C 0.44642 0.82269 0.2204 0.0
C405 C 0.39554 0.85841 0.12162 0.0
Mg406 Mg 0.36354 0.86164 0.47856 0.0
Mg407 Mg 0.2778 0.80252 0.42898 0.0
O408 O 0.32581 0.84 0.4045 0.0
Mg409 Mg 0.35113 0.82805 0.34079 0.0
O410 O 0.38184 0.82272 0.28082 0.0
Mg411 Mg 0.42547 0.87936 0.27029 0.0
Mg412 Mg 0.36493 0.79159 0.20476 0.0
C413 C 0.27424 0.79781 0.26865 0.0
O414 O 0.31494 0.76132 0.35543 0.0
O415 O 0.33165 0.87746 0.53329 0.0
O416 O 0.31601 0.74251 0.25082 0.0
O417 O 0.33106 0.8037 0.53806 0.0
O418 O 0.27305 0.83657 0.50114 0.0
O419 O 0.27874 0.7607 0.48538 0.0
O420 O 0.38781 0.8905 0.31667 0.0
O421 O 0.39318 0.91892 0.41178 0.0
C422 C 0.39812 0.92049 0.34806 0.0
C423 C 0.29838 0.86456 0.53713 0.0
O424 O 0.30861 0.81505 0.26411 0.0
O425 O 0.45649 0.85669 0.23321 0.0
O426 O 0.25745 0.78875 0.32518 0.0
O427 O 0.40384 0.8826 0.16674 0.0
O428 O 0.41319 0.79425 0.20856 0.0
O429 O 0.36425 0.82619 0.12616 0.0
O430 O 0.39022 0.84023 0.42152 0.0
O431 O 0.44463 0.87462 0.37436 0.0
C432 C 0.30164 0.76938 0.5324 0.0
C433 C 0.30348 0.73507 0.31096 0.0
C434 C 0.14174 0.40062 0.42973 0.0
C435 C 0.06287 0.44333 0.32453 0.0
C436 C 0.15477 0.52258 0.21254 0.0
Mg437 Mg 0.22894 0.4451 0.41884 0.0
Mg438 Mg 0.2845 0.53971 0.43876 0.0
O439 O 0.24533 0.49872 0.39121 0.0
Mg440 Mg 0.19752 0.48961 0.38302 0.0
O441 O 0.14724 0.47476 0.37233 0.0
Mg442 Mg 0.13179 0.44015 0.29405 0.0
Mg443 Mg 0.14156 0.51343 0.35888 0.0
C444 C 0.25412 0.58218 0.36661 0.0
O445 O 0.20177 0.5198 0.47838 0.0
O446 O 0.28912 0.46812 0.39069 0.0
O447 O 0.17134 0.54392 0.44677 0.0
O448 O 0.24518 0.46115 0.52625 0.0
O449 O 0.32253 0.53317 0.39457 0.0
O450 O 0.27956 0.52425 0.54368 0.0
O451 O 0.19087 0.46119 0.28319 0.0
O452 O 0.21083 0.4273 0.31424 0.0
C453 C 0.19893 0.4386 0.26929 0.0
C454 C 0.31903 0.50231 0.38132 0.0
O455 O 0.2267 0.55131 0.33924 0.0
O456 O 0.07561 0.42536 0.30704 0.0
O457 O 0.27643 0.5824 0.40706 0.0
O458 O 0.14187 0.48683 0.21462 0.0
O459 O 0.0831 0.47785 0.34651 0.0
O460 O 0.16422 0.54196 0.26587 0.0
O461 O 0.17322 0.43238 0.43704 0.0
O462 O 0.12135 0.39615 0.37976 0.0
C463 C 0.26243 0.48959 0.56536 0.0
C464 C 0.19158 0.54121 0.48806 0.0
C465 C 0.11408 0.58129 -0.00426 0.0
C466 C 0.16852 0.52416 0.94667 0.0
C467 C 0.19303 0.58278 0.7529 0.0
Mg468 Mg 0.1212 0.65894 0.94542 0.0
Mg469 Mg 0.19482 0.73216 0.86769 0.0
O470 O 0.15608 0.67975 0.86784 0.0
Mg471 Mg 0.16752 0.6429 0.88311 0.0
O472 O 0.17287 0.60227 0.90298 0.0
Mg473 Mg 0.12643 0.55745 0.86162 0.0
Mg474 Mg 0.21563 0.60782 0.89534 0.0
C475 C 0.22516 0.70262 0.7671 0.0
O476 O 0.22235 0.6878 0.93884 0.0
O477 O 0.11372 0.70504 0.91212 0.0
O478 O 0.25391 0.6637 0.93479 0.0
O479 O 0.16417 0.70302 0.02109 0.0
O480 O 0.1643 0.7547 0.85978 0.0
O481 O 0.21601 0.74582 0.9666 0.0
O482 O 0.11637 0.60086 0.81843 0.0
O483 O 0.0823 0.61549 0.86577 0.0
C484 C 0.08664 0.59744 0.82186 0.0
C485 C 0.13262 0.73887 0.88435 0.0
O486 O 0.2028 0.66769 0.78846 0.0
O487 O 0.14021 0.51738 0.91594 0.0
O488 O 0.2274 0.73102 0.79191 0.0
O489 O 0.16003 0.56572 0.77071 0.0
O490 O 0.19921 0.55742 0.94735 0.0
O491 O 0.21995 0.60176 0.79282 0.0
O492 O 0.13459 0.61764 -0.01922 0.0
O493 O 0.09586 0.55681 0.94967 0.0
C494 C 0.19775 0.73206 0.02073 0.0
C495 C 0.25163 0.69077 0.94857 0.0
C496 C 0.29357 0.44206 0.80842 0.0
C497 C 0.24363 0.46742 0.00882 0.0
C498 C 0.30093 0.44564 0.11856 0.0
Mg499 Mg 0.36218 0.43789 0.79458 0.0
Mg500 Mg 0.4397 0.50632 0.86166 0.0
O501 O 0.39127 0.46672 0.87711 0.0
Mg502 Mg 0.35797 0.47722 0.91729 0.0
O503 O 0.31907 0.48022 0.9546 0.0
Mg504 Mg 0.27887 0.42178 0.967 0.0
Mg505 Mg 0.32808 0.51026 0.02935 0.0
C506 C 0.42819 0.51979 0.01191 0.0
O507 O 0.39319 0.54454 0.89776 0.0
O508 O 0.40443 0.4264 0.77435 0.0
O509 O 0.37805 0.56213 -0.01064 0.0
O510 O 0.3963 0.49068 0.72585 0.0
O511 O 0.45702 0.47321 0.82434 0.0
O512 O 0.44231 0.54107 0.78132 0.0
O513 O 0.3223 0.41521 0.9441 0.0
O514 O 0.32879 0.3842 0.86661 0.0
C515 C 0.31553 0.38449 0.92216 0.0
C516 C 0.43815 0.44284 0.78859 0.0
O517 O 0.39327 0.49667 0.01102 0.0
O518 O 0.23947 0.43692 -0.01015 0.0
O519 O 0.44843 0.52791 0.96087 0.0
O520 O 0.29155 0.41897 0.07822 0.0
O521 O 0.27483 0.49846 0.02472 0.0
O522 O 0.33133 0.47818 0.10832 0.0
O523 O 0.32705 0.45824 0.82108 0.0
O524 O 0.26974 0.42569 0.85497 0.0
C525 C 0.42369 0.52612 0.72782 0.0
C526 C 0.39803 0.57047 0.93757 0.0
C527 C 0.56067 0.91573 0.84475 0.0
C528 C 0.65544 0.89419 0.95306 0.0
C529 C 0.56323 0.79619 0.03581 0.0
Mg530 Mg 0.47608 0.85761 0.83037 0.0
Mg531 Mg 0.43327 0.76531 0.79952 0.0
O532 O 0.46667 0.80639 0.854 0.0
Mg533 Mg 0.51693 0.82384 0.87154 0.0
O534 O 0.56959 0.84894 0.88917 0.0
Mg535 Mg 0.57456 0.87629 0.973 0.0
Mg536 Mg 0.58667 0.81988 0.89598 0.0
C537 C 0.46786 0.72868 0.87706 0.0
O538 O 0.52244 0.80086 0.77544 0.0
O539 O 0.41386 0.82523 0.85117 0.0
O540 O 0.56291 0.78948 0.80651 0.0
O541 O 0.46786 0.84607 0.71875 0.0
O542 O 0.38969 0.76216 0.84383 0.0
O543 O 0.44183 0.78464 0.69654 0.0
O544 O 0.51262 0.8443 0.97382 0.0
O545 O 0.48628 0.87105 0.93717 0.0
C546 C 0.4994 0.86255 -0.01545 0.0
C547 C 0.38773 0.7892 0.86048 0.0
O548 O 0.49268 0.76013 0.9077 0.0
O549 O 0.63522 0.90383 0.97029 0.0
O550 O 0.44617 0.72695 0.83286 0.0
O551 O 0.56946 0.82901 0.04203 0.0
O552 O 0.64289 0.86298 0.92194 0.0
O553 O 0.56171 0.78287 -0.02101 0.0
O554 O 0.53577 0.88159 0.82571 0.0
O555 O 0.57947 0.92186 0.89838 0.0
C556 C 0.45608 0.81918 0.67711 0.0
C557 C 0.53858 0.78527 0.76671 0.0
C558 C 0.16523 0.17357 0.48809 0.0
C559 C 0.16803 0.20235 0.5247 0.0
H560 H 0.17792 0.13395 0.48502 0.0
C561 C 0.19463 0.22094 0.57586 0.0
H562 H 0.1451 0.15876 0.44847 0.0
C563 C 0.21387 0.20663 0.59694 0.0
C564 C 0.20677 0.17395 0.56646 0.0
H565 H 0.19729 0.24323 0.60507 0.0
H566 H 0.23039 0.2178 0.64221 0.0
C567 C 0.18455 0.15967 0.50859 0.0
C568 C 0.96624 0.05345 0.71036 0.0
C569 C 0.9681 0.06477 0.6429 0.0
H570 H 0.95301 0.00776 0.77862 0.0
C571 C 0.95175 0.03639 0.59291 0.0
H572 H 0.97841 0.07451 0.74993 0.0
C573 C 0.93732 -0.00185 0.60924 0.0
C574 C 0.93922 0.98789 0.67568 0.0
H575 H 0.95229 0.04424 0.54044 0.0
H576 H 0.92741 0.97749 0.56933 0.0
C577 C 0.95203 0.01531 0.72656 0.0
C578 C 0.03744 0.91495 0.61439 0.0
C579 C 0.03315 0.8922 0.67055 0.0
H580 H 0.0747 0.96024 0.54619 0.0
C581 C 0.06067 0.88848 0.68667 0.0
H582 H 0.01618 0.91767 0.60021 0.0
C583 C 0.09486 0.9138 0.65619 0.0
C584 C 0.10103 0.94255 0.61024 0.0
H585 H 0.05732 0.86987 0.72814 0.0
H586 H 0.1174 0.91483 0.6765 0.0
C587 C 0.07094 0.93914 0.58287 0.0
C588 C 0.88751 0.83923 0.29811 0.0
C589 C 0.91346 0.85743 0.35033 0.0
H590 H 0.85555 0.84459 0.225 0.0
C591 C 0.91961 0.88969 0.38056 0.0
H592 H 0.88225 0.81426 0.27387 0.0
C593 C 0.90469 0.90704 0.35224 0.0
C594 C 0.88311 0.89218 0.29378 0.0
H595 H 0.93905 0.90395 0.42144 0.0
H596 H 0.9126 0.93403 0.3726 0.0
C597 C 0.87236 0.85665 0.26978 0.0
C598 C 0.108 0.02968 0.15352 0.0
C599 C 0.12223 0.05777 0.20344 0.0
H600 H 0.08553 0.97134 0.13089 0.0
C601 C 0.12997 0.05002 0.26754 0.0
H602 H 0.10281 0.03542 0.10296 0.0
C603 C 0.12055 0.01352 0.28323 0.0
C604 C 0.10328 0.98429 0.23499 0.0
H605 H 0.14125 0.0713 0.30664 0.0
H606 H 0.12453 0.00742 0.33446 0.0
C607 C 0.09879 0.99325 0.16904 0.0
C608 C 0.00703 0.16531 0.15801 0.0
C609 C 0.03633 0.16839 0.18875 0.0
H610 H 0.94946 0.1356 0.1593 0.0
C611 C 0.03188 0.15232 0.25344 0.0
H612 H 0.00974 0.17718 0.10783 0.0
C613 C -0.00248 0.12843 0.28252 0.0
C614 C 0.96703 0.11939 0.2459 0.0
H615 H 0.05385 0.15323 0.27654 0.0
H616 H 0.99412 0.11161 0.32716 0.0
C617 C 0.97256 0.14169 0.18785 0.0
C618 C 0.79805 0.43844 0.04732 0.0
C619 C 0.82152 0.44999 0.10302 0.0
H620 H 0.7633 0.44711 -0.00867 0.0
C621 C 0.83716 0.48616 0.13094 0.0
H622 H 0.78673 0.41119 0.02343 0.0
C623 C 0.82408 0.50698 0.11155 0.0
C624 C 0.79514 0.49122 0.06529 0.0
H625 H 0.85598 0.49599 0.17297 0.0
H626 H 0.83202 0.5316 0.14098 0.0
C627 C 0.78543 0.45954 0.02756 0.0
C628 C 0.60169 0.33349 0.05351 0.0
C629 C 0.58828 0.34692 0.09779 0.0
H630 H 0.59576 0.28456 0.01484 0.0
C631 C 0.55303 0.32077 0.12335 0.0
H632 H 0.62882 0.353 0.03307 0.0
C633 C 0.53389 0.28108 0.11223 0.0
C634 C 0.54997 0.26754 0.07605 0.0
H635 H 0.54205 0.33032 0.1576 0.0
H636 H 0.50871 0.26082 0.13853 0.0
C637 C 0.5826 0.29423 0.04235 0.0
C638 C 0.70911 0.19356 0.14581 0.0
C639 C 0.72566 0.22331 0.09654 0.0
H640 H 0.65911 0.14812 0.19361 0.0
C641 C 0.70378 0.22284 0.04584 0.0
H642 H 0.72532 0.19389 0.18638 0.0
C643 C 0.66588 0.19687 0.05023 0.0
C644 C 0.64911 0.17062 0.10499 0.0
H645 H 0.71564 0.24593 0.00833 0.0
H646 H 0.6499 0.20118 0.0162 0.0
C647 C 0.67104 0.16724 0.14995 0.0
C648 C 0.52403 0.21065 0.65673 0.0
C649 C 0.54386 0.23884 0.60576 0.0
H650 H 0.52163 0.16882 0.72197 0.0
C651 C 0.56698 0.23668 0.56517 0.0
H652 H 0.50615 0.212 0.68879 0.0
C653 C 0.57605 0.21229 0.58439 0.0
C654 C 0.56171 0.18974 0.64381 0.0
H655 H 0.58256 0.25814 0.52573 0.0
H656 H 0.59756 0.21458 0.55761 0.0
C657 C 0.53324 0.18629 0.67641 0.0
C658 C 0.795 0.32546 0.56285 0.0
C659 C 0.82157 0.34295 0.61403 0.0
H660 H 0.74324 0.27464 0.53247 0.0
C661 C 0.82092 0.31988 0.66569 0.0
H662 H 0.79464 0.34296 0.52329 0.0
C663 C 0.79115 0.28099 0.67153 0.0
C664 C 0.76235 0.26474 0.62489 0.0
H665 H 0.8406 0.3329 0.70647 0.0
H666 H 0.78874 0.26484 0.71636 0.0
C667 C 0.76552 0.28645 0.56819 0.0
C668 C 0.74694 0.4625 0.54782 0.0
C669 C 0.77663 0.49299 0.58338 0.0
H670 H 0.68944 0.41906 0.54713 0.0
C671 C 0.77039 0.51086 0.63294 0.0
H672 H 0.75101 0.44818 0.50946 0.0
C673 C 0.73516 0.49359 0.65635 0.0
C674 C 0.70611 0.45878 0.62881 0.0
H675 H 0.79297 0.53448 0.66058 0.0
H676 H 0.73132 0.50493 0.70035 0.0
C677 C 0.7118 0.44529 0.5707 0.0
C678 C 0.50971 0.81349 0.32301 0.0
C679 C 0.49733 0.77656 0.30401 0.0
H680 H 0.50362 0.85842 0.30871 0.0
C681 C 0.47617 0.76061 0.2453 0.0
H682 H 0.5266 0.82657 0.36743 0.0
C683 C 0.46363 0.77893 0.21102 0.0
C684 C 0.47172 0.81328 0.23545 0.0
H685 H 0.46739 0.73268 0.22824 0.0
H686 H 0.44474 0.76432 0.16947 0.0
C687 C 0.49692 0.83185 0.28876 0.0
C688 C 0.28502 0.68321 0.39572 0.0
C689 C 0.2807 0.69398 0.33127 0.0
H690 H 0.28023 0.63902 0.45684 0.0
C691 C 0.26179 0.66562 0.28162 0.0
H692 H 0.29938 0.70433 0.43496 0.0
C693 C 0.25106 0.62826 0.29395 0.0
C694 C 0.25936 0.61894 0.35587 0.0
H695 H 0.25782 0.67314 0.23154 0.0
H696 H 0.23877 0.60767 0.25364 0.0
C697 C 0.27467 0.64603 0.40774 0.0
C698 C 0.37572 0.5075 0.39355 0.0
C699 C 0.35116 0.50816 0.35164 0.0
H700 H 0.43186 0.53505 0.41655 0.0
C701 C 0.36344 0.52781 0.28923 0.0
H702 H 0.36708 0.49295 0.44229 0.0
C703 C 0.40057 0.55171 0.27429 0.0
C704 C 0.42587 0.55709 0.32262 0.0
H705 H 0.34514 0.52919 0.25647 0.0
H706 H 0.40968 0.57112 0.23098 0.0
C707 C 0.41295 0.53142 0.37834 0.0
C708 C 0.21015 0.49099 0.05256 0.0
C709 C 0.2122 0.46859 0.00636 0.0
H710 H 0.19058 0.52348 0.07195 0.0
C711 C 0.18827 0.45383 0.95076 0.0
H712 H 0.22836 0.5031 0.09534 0.0
C713 C 0.167 0.46653 0.93619 0.0
C714 C 0.16917 0.49345 -0.02214 0.0
H715 H 0.18932 0.43643 0.9143 0.0
H716 H 0.15312 0.45963 0.88799 0.0
C717 C 0.18799 0.50234 0.03941 0.0
C718 C 0.43916 0.6391 0.97464 0.0
C719 C 0.42551 0.61225 0.92226 0.0
H720 H 0.46448 0.69788 0.00146 0.0
C721 C 0.43375 0.62611 0.85556 0.0
H722 H 0.43378 0.62931 0.02678 0.0
C723 C 0.45128 0.66537 0.84135 0.0
C724 C 0.46135 0.69151 0.89353 0.0
H725 H 0.42388 0.60631 0.81421 0.0
H726 H 0.45453 0.67485 0.78916 0.0
C727 C 0.4571 0.67846 0.96041 0.0
C728 C 0.33105 0.78318 0.88434 0.0
C729 C 0.3569 0.77737 0.90367 0.0
H730 H 0.27481 0.75993 0.88896 0.0
C731 C 0.34969 0.75298 0.95913 0.0
H732 H 0.33661 0.80294 0.84322 0.0
C733 C 0.31506 0.72958 -0.01313 0.0
C734 C 0.28682 0.72898 0.95714 0.0
H735 H 0.36975 0.74896 0.97633 0.0
H736 H 0.30909 0.70743 0.02336 0.0
C737 C 0.29586 0.75895 0.91138 0.0
C738 C 0.22554 0.08201 0.473 0.0
C739 C 0.25648 0.10854 0.51185 0.0
H740 H 0.18937 0.07424 0.3934 0.0
C741 C 0.27342 0.14823 0.50156 0.0
H742 H 0.21167 0.05127 0.47972 0.0
C743 C 0.25982 0.16111 0.45475 0.0
C744 C 0.22948 0.13487 0.41491 0.0
H745 H 0.29746 0.16973 0.52993 0.0
H746 H 0.27437 0.19195 0.44756 0.0
C747 C 0.21239 0.09511 0.42445 0.0
C748 C 0.94696 0.1584 0.45402 0.0
C749 C 0.932 0.14408 0.51827 0.0
H750 H 0.9377 0.15311 0.34796 0.0
C751 C 0.89481 0.11354 0.5245 0.0
H752 H 0.97551 0.18204 0.44768 0.0
C753 C 0.87319 0.09687 0.46738 0.0
C754 C 0.88832 0.11068 0.40317 0.0
H755 H 0.88252 0.1018 0.57339 0.0
H756 H 0.8447 0.07295 0.47359 0.0
C757 C 0.92528 0.14193 0.39692 0.0
C758 C 0.94536 0.8517 0.52279 0.0
C759 C 0.9109 0.8163 0.53021 0.0
H760 H 0.00076 0.88027 0.49626 0.0
C761 C 0.9043 0.78296 0.50396 0.0
H762 H 0.95127 0.87761 0.54438 0.0
C763 C 0.93277 0.78434 0.47697 0.0
C764 C 0.96816 0.81922 0.47534 0.0
H765 H 0.87825 0.75515 0.51158 0.0
H766 H 0.92742 0.75782 0.46014 0.0
C767 C 0.97405 0.85288 0.49814 0.0
C768 C 0.10389 0.18396 0.804 0.0
C769 C 0.1228 0.22309 0.786 0.0
H770 H 0.09454 0.1432 0.87982 0.0
C771 C 0.15219 0.25147 0.82481 0.0
H772 H 0.08161 0.16167 0.77319 0.0
C773 C 0.15959 0.24092 0.88603 0.0
C774 C 0.13763 0.202 0.90808 0.0
H775 H 0.16731 0.28171 0.81067 0.0
H776 H 0.18046 0.26348 0.9184 0.0
C777 C 0.11149 0.17338 0.86454 0.0
C778 C 0.91028 0.95275 0.96102 0.0
C779 C 0.88805 0.96276 -0.01926 0.0
H780 H 0.91919 0.92457 0.88735 0.0
C781 C 0.86148 0.95814 0.93705 0.0
H782 H 0.93082 0.95616 -0.00525 0.0
C783 C 0.85438 0.9396 0.87679 0.0
C784 C 0.87372 0.92541 0.86014 0.0
H785 H 0.84428 0.96604 0.95204 0.0
H786 H 0.83228 0.93436 0.84554 0.0
C787 C 0.90302 0.93394 0.90066 0.0
C788 C 0.15247 0.98723 0.91561 0.0
C789 C 0.13832 0.96626 0.85614 0.0
H790 H 0.14579 0.9859 0.02217 0.0
C791 C 0.10234 0.93293 0.85467 0.0
H792 H 0.18009 0.01346 0.91741 0.0
C793 C 0.08224 0.9177 0.91365 0.0
C794 C 0.09866 0.93483 0.97557 0.0
H795 H 0.09081 0.91699 0.80894 0.0
H796 H 0.05576 0.88995 0.91145 0.0
C797 C 0.1327 0.9715 0.97538 0.0
C798 C 0.82437 0.885 0.41129 0.0
C799 C 0.84519 0.90858 0.46524 0.0
H800 H 0.79479 0.87803 0.32293 0.0
C801 C 0.85685 0.94697 0.46522 0.0
H802 H 0.81483 0.85532 0.40966 0.0
C803 C 0.84564 0.96056 0.41411 0.0
C804 C 0.82226 0.93571 0.36315 0.0
H805 H 0.87282 0.96574 0.50662 0.0
H806 H 0.85409 0.98984 0.41589 0.0
C807 C 0.81242 0.89807 0.36178 0.0
C808 C 0.12112 0.88058 0.42464 0.0
C809 C 0.13878 0.89727 0.36304 0.0
H810 H 0.12479 0.88331 0.53146 0.0
C811 C 0.17583 0.92862 0.36259 0.0
H812 H 0.09266 0.85605 0.42646 0.0
C813 C 0.19438 0.94441 0.4231 0.0
C814 C 0.17609 0.92891 0.48466 0.0
H815 H 0.19004 0.94205 0.31569 0.0
H816 H 0.22264 0.9694 0.4215 0.0
C817 C 0.13957 0.89625 0.48485 0.0
C818 C 0.12673 0.19735 0.35649 0.0
C819 C 0.16088 0.23282 0.34703 0.0
H820 H 0.07196 0.16851 0.38733 0.0
C821 C 0.16765 0.26647 0.37201 0.0
H822 H 0.12062 0.1712 0.33563 0.0
C823 C 0.1395 0.26516 0.40019 0.0
C824 C 0.10439 0.23002 0.40463 0.0
H825 H 0.19346 0.29427 0.36267 0.0
H826 H 0.14486 0.29186 0.41589 0.0
C827 C 0.09846 0.19612 0.38328 0.0
C828 C 0.96971 0.86757 0.07357 0.0
C829 C 0.95066 0.82864 0.09323 0.0
H830 H 0.97882 0.90757 -0.0037 0.0
C831 C 0.92147 0.79984 0.05453 0.0
H832 H 0.99202 0.89019 0.1039 0.0
C833 C 0.91402 0.80976 -0.00744 0.0
C834 C 0.93557 0.84852 0.96967 0.0
H835 H 0.90638 0.76974 0.06962 0.0
H836 H 0.89309 0.78691 0.96068 0.0
C837 C 0.96198 0.87753 0.0124 0.0
C838 C 0.21337 0.11096 -0.00989 0.0
C839 C 0.19039 0.12008 0.01019 0.0
H840 H 0.23146 0.09571 0.90867 0.0
C841 C 0.16369 0.1149 0.96582 0.0
H842 H 0.23388 0.11417 0.02365 0.0
C843 C 0.16213 0.10395 0.89999 0.0
C844 C 0.18758 0.09865 0.87873 0.0
H845 H 0.14506 0.1207 -0.01882 0.0
H846 H 0.14279 0.10209 0.86489 0.0
C847 C 0.21214 0.10059 0.92448 0.0
C848 C 0.93892 0.08802 0.92183 0.0
C849 C 0.96591 0.12799 0.91505 0.0
H850 H 0.89312 0.04208 -0.02174 0.0
C851 C 0.96719 0.15246 0.96221 0.0
H852 H 0.93679 0.06853 0.88564 0.0
C853 C 0.94114 0.13762 0.01264 0.0
C854 C 0.91394 0.09779 0.01906 0.0
H855 H 0.98707 0.1835 0.95798 0.0
H856 H 0.94253 0.15745 0.0469 0.0
C857 C 0.91357 0.07302 0.97406 0.0
C858 C 0.91722 0.4426 0.94561 0.0
C859 C 0.88828 0.4053 0.96675 0.0
H860 H 0.93502 0.48919 0.87588 0.0
C861 C 0.85398 0.3868 0.9364 0.0
H862 H 0.94353 0.45771 0.97033 0.0
C863 C 0.8486 0.40552 0.88555 0.0
C864 C 0.87768 0.44255 0.86344 0.0
H865 H 0.83096 0.3586 0.95401 0.0
H866 H 0.82214 0.39025 0.86139 0.0
C867 C 0.91205 0.461 0.89364 0.0
C868 C 0.57938 0.39051 0.9385 0.0
C869 C 0.6 0.38147 0.90638 0.0
H870 H 0.58152 0.43374 -0.00854 0.0
C871 C 0.63654 0.40021 0.92488 0.0
H872 H 0.55092 0.37563 0.92579 0.0
C873 C 0.65457 0.43435 0.96001 0.0
C874 C 0.63534 0.44819 -0.02052 0.0
H875 H 0.65267 0.39272 0.90207 0.0
H876 H 0.68374 0.45119 0.96702 0.0
C877 C 0.5972 0.42441 0.97408 0.0
C878 C 0.5871 0.10998 0.95368 0.0
C879 C 0.60297 0.14508 0.91906 0.0
H880 H 0.54201 0.06532 0.0111 0.0
C881 C 0.58962 0.16656 0.9283 0.0
H882 H 0.59686 0.09294 0.94673 0.0
C883 C 0.55762 0.15049 0.96393 0.0
C884 C 0.53918 0.11312 -0.00856 0.0
H885 H 0.60137 0.19372 0.9015 0.0
H886 H 0.5465 0.16644 0.96692 0.0
C887 C 0.55521 0.0939 -0.01101 0.0
C888 C 0.7959 0.55176 0.30958 0.0
C889 C 0.8156 0.57258 0.25144 0.0
H890 H 0.79782 0.53274 0.40914 0.0
C891 C 0.85256 0.58814 0.24773 0.0
H892 H 0.76728 0.53903 0.31353 0.0
C893 C 0.86962 0.58347 0.30138 0.0
C894 C 0.85024 0.56379 0.36024 0.0
H895 H 0.86833 0.60372 0.20312 0.0
H896 H 0.8984 0.59679 0.29788 0.0
C897 C 0.8132 0.54774 0.36385 0.0
C898 C 0.49477 0.2667 0.32618 0.0
C899 C 0.50753 0.26095 0.38625 0.0
H900 H 0.47107 0.24486 0.23021 0.0
C901 C 0.51178 0.23151 0.39129 0.0
H902 H 0.49066 0.28879 0.32144 0.0
C903 C 0.50123 0.20659 0.33789 0.0
C904 C 0.48531 0.2103 0.28019 0.0
H905 H 0.52127 0.22649 0.43772 0.0
H906 H 0.50383 0.18341 0.34308 0.0
C907 C 0.48296 0.24105 0.27426 0.0
C908 C 0.76494 0.23544 0.40471 0.0
C909 C 0.73719 0.19568 0.4038 0.0
H910 H 0.81181 0.28359 0.35499 0.0
C911 C 0.73424 0.17367 0.35006 0.0
H912 H 0.76793 0.25262 0.44649 0.0
C913 C 0.76022 0.19074 0.30013 0.0
C914 C 0.78858 0.2303 0.30179 0.0
H915 H 0.71349 0.14272 0.34903 0.0
H916 H 0.75781 0.17293 0.25998 0.0
C917 C 0.79037 0.25281 0.35343 0.0
C918 C 0.49229 0.25339 0.83807 0.0
C919 C 0.47194 0.23533 0.77947 0.0
H920 H 0.50383 0.24581 0.93924 0.0
C921 C 0.44829 0.19482 0.77726 0.0
H922 H 0.51109 0.28453 0.84098 0.0
C923 C 0.44484 0.17276 0.83289 0.0
C924 C 0.46454 0.19091 0.89175 0.0
H925 H 0.43259 0.18004 0.73246 0.0
H926 H 0.4257 0.14161 0.83068 0.0
C927 C 0.4885 0.23131 0.89393 0.0
C928 C 0.76259 0.20114 0.9179 0.0
C929 C 0.80041 0.22848 0.9121 0.0
H930 H 0.71254 0.15982 0.86743 0.0
C931 C 0.81719 0.23494 0.85004 0.0
H932 H 0.74919 0.19572 0.96566 0.0
C933 C 0.79649 0.21372 0.79456 0.0
C934 C 0.75859 0.1864 0.80001 0.0
H935 H 0.84642 0.25553 0.84483 0.0
H936 H 0.81018 0.21932 0.74712 0.0
C937 C 0.74174 0.18046 0.86201 0.0
C938 C 0.81998 0.54477 0.86566 0.0
C939 C 0.80379 0.56381 0.85915 0.0
H940 H 0.85362 0.53221 0.82014 0.0
C941 C 0.81014 0.58595 0.80106 0.0
H942 H 0.8161 0.52824 0.91102 0.0
C943 C 0.83308 0.59001 0.75117 0.0
C944 C 0.8492 0.57078 0.75676 0.0
H945 H 0.79894 0.60188 0.79579 0.0
H946 H 0.83761 0.60786 0.70745 0.0
C947 C 0.84199 0.54765 0.81434 0.0
C948 C 0.53995 0.10938 0.41379 0.0
C949 C 0.56623 0.14334 0.37826 0.0
H950 H 0.52941 0.07117 0.49615 0.0
C951 C 0.60261 0.16565 0.39927 0.0
H952 H 0.51184 0.0914 0.3971 0.0
C953 C 0.61289 0.15321 0.45368 0.0
C954 C 0.58673 0.11873 0.48837 0.0
H955 H 0.62339 0.19134 0.37117 0.0
H956 H 0.6412 0.17086 0.46914 0.0
C957 C 0.55009 0.09734 0.46899 0.0
C958 C 0.88605 0.42035 0.46941 0.0
C959 C 0.88155 0.44973 0.469 0.0
H960 H 0.8699 0.3678 0.42567 0.0
C961 C 0.85063 0.4431 0.43785 0.0
H962 H 0.90896 0.42392 0.49469 0.0
C963 C 0.82751 0.41 0.40005 0.0
C964 C 0.83587 0.38409 0.39174 0.0
H965 H 0.84573 0.46459 0.43853 0.0
H966 H 0.80662 0.40787 0.36936 0.0
C967 C 0.86307 0.38752 0.43156 0.0
C968 C 0.62519 0.46393 0.45136 0.0
C969 C 0.60917 0.42656 0.47673 0.0
H970 H 0.65871 0.50542 0.37422 0.0
C971 C 0.61913 0.40431 0.45118 0.0
H972 H 0.61861 0.48185 0.47215 0.0
C973 C 0.64339 0.41847 0.39811 0.0
C974 C 0.6571 0.45455 0.36908 0.0
H975 H 0.60814 0.37595 0.47216 0.0
H976 H 0.64899 0.39993 0.37637 0.0
C977 C 0.64872 0.4777 0.39698 0.0
C978 C 0.60779 0.78696 0.18551 0.0
C979 C 0.58503 0.74696 0.19819 0.0
H980 H 0.61676 0.83386 0.12672 0.0
C981 C 0.55615 0.72265 0.1538 0.0
H982 H 0.63036 0.80625 0.21888 0.0
C983 C 0.54834 0.73861 0.10101 0.0
C984 C 0.56888 0.77884 0.09337 0.0
H985 H 0.538 0.69174 0.16287 0.0
H986 H 0.52567 0.71971 0.06761 0.0
C987 C 0.59934 0.80281 0.13437 0.0
C988 C 0.27126 0.79927 0.14401 0.0
C989 C 0.25314 0.78429 0.20574 0.0
H990 H 0.26811 0.79431 0.03747 0.0
C991 C 0.21591 0.75341 0.20623 0.0
H992 H 0.2999 0.82328 0.14202 0.0
C993 C 0.19755 0.73659 0.14594 0.0
C994 C 0.21619 0.75054 0.08445 0.0
H995 H 0.20133 0.74116 0.25319 0.0
H996 H 0.16906 0.71217 0.1477 0.0
C997 C 0.25301 0.78254 0.08403 0.0
C998 C 0.2776 0.47963 0.16603 0.0
C999 C 0.27094 0.44561 0.14305 0.0
H1000 H 0.25675 0.50444 0.21899 0.0
C1001 C 0.23528 0.41108 0.14535 0.0
H1002 H 0.30445 0.50687 0.16339 0.0
C1003 C 0.20768 0.40998 0.17577 0.0
C1004 C 0.21551 0.44322 0.20495 0.0
H1005 H 0.22916 0.38438 0.12752 0.0
H1006 H 0.18163 0.38229 0.18423 0.0
C1007 C 0.2499 0.47854 0.19555 0.0
C1008 C 0.41683 0.80834 0.50548 0.0
C1009 C 0.43728 0.84696 0.48308 0.0
H1010 H 0.40774 0.76897 0.58411 0.0
C1011 C 0.46795 0.87557 0.51936 0.0
H1012 H 0.39332 0.78578 0.47721 0.0
C1013 C 0.47599 0.86602 0.58115 0.0
C1014 C 0.45381 0.82768 0.60604 0.0
H1015 H 0.48411 0.90543 0.50225 0.0
H1016 H 0.49831 0.88887 0.61103 0.0
C1017 C 0.42529 0.79867 0.56618 0.0
C1018 C 0.18186 0.57653 0.568 0.0
C1019 C 0.19963 0.56033 0.55229 0.0
H1020 H 0.16511 0.59528 0.64599 0.0
C1021 C 0.22082 0.55822 0.60139 0.0
H1022 H 0.16591 0.57935 0.53096 0.0
C1023 C 0.22114 0.56862 0.66711 0.0
C1024 C 0.19974 0.58034 0.68351 0.0
H1025 H 0.23525 0.54644 0.59013 0.0
H1026 H 0.23567 0.56468 0.70579 0.0
C1027 C 0.18135 0.58575 0.63361 0.0
C1028 C 0.46772 0.586 0.66124 0.0
C1029 C 0.44085 0.5459 0.66393 0.0
H1030 H 0.51192 0.63394 0.60508 0.0
C1031 C 0.43642 0.52345 0.60944 0.0
H1032 H 0.47177 0.60381 0.70291 0.0
C1033 C 0.46032 0.54025 0.5558 0.0
C1034 C 0.48815 0.57996 0.55443 0.0
H1035 H 0.4162 0.49238 0.6103 0.0
H1036 H 0.45711 0.52207 0.51558 0.0
C1037 C 0.49096 0.60304 0.60613 0.0
C1038 C 0.10988 0.52757 0.05712 0.0
C1039 C 0.12591 0.56728 0.05114 0.0
H1040 H 0.10781 0.4828 0.10986 0.0
C1041 C 0.15441 0.59276 0.09535 0.0
H1042 H 0.08791 0.50685 0.0241 0.0
C1043 C 0.16576 0.57861 0.14537 0.0
C1044 C 0.14917 0.53879 0.15156 0.0
H1045 H 0.16763 0.62349 0.09189 0.0
H1046 H 0.18675 0.59869 0.18049 0.0
C1047 C 0.12166 0.51365 0.1059 0.0
C1048 C 0.47741 0.57783 0.06822 0.0
C1049 C 0.44717 0.53905 0.07321 0.0
H1050 H 0.52586 0.62434 0.11478 0.0
C1051 C 0.4398 0.51797 0.13309 0.0
H1052 H 0.48296 0.59451 0.02215 0.0
C1053 C 0.4646 0.53483 0.18605 0.0
C1054 C 0.49664 0.57278 0.17894 0.0
H1055 H 0.41641 0.48793 0.13718 0.0
H1056 H 0.45934 0.51772 0.23133 0.0
C1057 C 0.50207 0.59464 0.12076 0.0
C1058 C 0.48956 0.89131 0.07542 0.0
C1059 C 0.48184 0.85775 0.04771 0.0
H1060 H 0.46785 0.91818 0.11813 0.0
C1061 C 0.44661 0.82312 0.05335 0.0
H1062 H 0.51629 0.91855 0.06958 0.0
C1063 C 0.41835 0.8234 0.07591 0.0
C1064 C 0.42543 0.85757 0.0994 0.0
H1065 H 0.43984 0.79709 0.03067 0.0
H1066 H 0.39097 0.79685 0.0747 0.0
C1067 C 0.46152 0.89132 0.10066 0.0
C1068 C 0.24898 0.43313 0.72246 0.0
C1069 C 0.28481 0.4542 0.7466 0.0
H1070 H 0.21347 0.42882 0.64559 0.0
C1071 C 0.31196 0.48974 0.71559 0.0
H1072 H 0.2275 0.40611 0.74644 0.0
C1073 C 0.30368 0.50339 0.66003 0.0
C1074 C 0.26833 0.48134 0.63378 0.0
H1075 H 0.33969 0.50721 0.73433 0.0
H1076 H 0.32539 0.52995 0.63519 0.0
C1077 C 0.24087 0.44643 0.66584 0.0
C1078 C 0.54348 0.74035 0.70387 0.0
C1079 C 0.52558 0.75702 0.71418 0.0
H1080 H 0.54922 0.70581 0.63991 0.0
C1081 C 0.4941 0.74445 0.67709 0.0
H1082 H 0.56705 0.74832 0.73342 0.0
C1083 C 0.48327 0.71899 0.62493 0.0
C1084 C 0.50436 0.70678 0.60943 0.0
H1085 H 0.47889 0.75555 0.68616 0.0
H1086 H 0.46131 0.71276 0.59202 0.0
C1087 C 0.53274 0.71513 0.65181 0.0
C1088 C 0.28534 0.74281 0.71295 0.0
C1089 C 0.24868 0.71095 0.71027 0.0
H1090 H 0.33269 0.78525 0.65729 0.0
C1091 C 0.23373 0.69149 0.64967 0.0
H1092 H 0.29742 0.7576 0.75962 0.0
C1093 C 0.2537 0.70746 0.59031 0.0
C1094 C 0.28861 0.74309 0.59162 0.0
H1095 H 0.20547 0.66662 0.6469 0.0
H1096 H 0.2402 0.69443 0.54293 0.0
C1097 C 0.30553 0.75839 0.65414 0.0
C1098 C 0.24557 0.88293 0.65058 0.0
C1099 C 0.27252 0.92147 0.66859 0.0
H1100 H 0.23235 0.83507 0.59271 0.0
C1101 C 0.30867 0.93913 0.65018 0.0
H1102 H 0.21734 0.86856 0.66344 0.0
C1103 C 0.31715 0.91995 0.60944 0.0
C1104 C 0.28957 0.88292 0.58565 0.0
H1105 H 0.32993 0.96882 0.66304 0.0
H1106 H 0.34506 0.93509 0.59349 0.0
C1107 C 0.25396 0.86398 0.60877 0.0
C1108 C 0.0729 0.32436 0.55423 0.0
C1109 C 0.09518 0.32564 0.60541 0.0
H1110 H 0.06984 0.34587 0.45813 0.0
C1111 C 0.13302 0.35151 0.59831 0.0
H1112 H 0.0436 0.30347 0.55725 0.0
C1113 C 0.1482 0.37542 0.54064 0.0
C1114 C 0.12582 0.37337 0.48845 0.0
H1115 H 0.15076 0.35171 0.63538 0.0
H1116 H 0.17748 0.39485 0.53616 0.0
C1117 C 0.08796 0.34785 0.4965 0.0
C1118 C 0.69374 0.77793 0.44309 0.0
C1119 C 0.65763 0.75502 0.4652 0.0
H1120 H 0.74981 0.81054 0.47077 0.0
C1121 C 0.6507 0.7514 0.53493 0.0
H1122 H 0.7 0.78156 0.38988 0.0
C1123 C 0.67953 0.768 0.58165 0.0
C1124 C 0.71533 0.78842 0.55872 0.0
H1125 H 0.62305 0.73374 0.55342 0.0
H1126 H 0.67379 0.76328 0.63507 0.0
C1127 C 0.72222 0.79439 0.48934 0.0
C1128 C 0.96853 0.27627 -0.01111 0.0
C1129 C 0.93335 0.2477 0.01303 0.0
H1130 H 0.0086 0.29218 0.91498 0.0
C1131 C 0.91294 0.21094 -0.01516 0.0
H1132 H 0.98475 0.30493 0.00969 0.0
C1133 C 0.92609 0.20402 0.92928 0.0
C1134 C 0.96011 0.23356 0.90173 0.0
H1135 H 0.8856 0.18849 0.00194 0.0
H1136 H 0.90929 0.17567 0.90734 0.0
C1137 C 0.98183 0.26923 0.93379 0.0
C1138 C 0.7775 0.69686 0.87681 0.0
C1139 C 0.80402 0.69478 0.90873 0.0
H1140 H 0.76443 0.71945 0.79409 0.0
C1141 C 0.83873 0.71527 0.88034 0.0
H1142 H 0.75035 0.68131 0.89718 0.0
C1143 C 0.84644 0.73669 0.82078 0.0
C1144 C 0.81952 0.73766 0.78817 0.0
H1145 H 0.85951 0.71369 0.90266 0.0
H1146 H 0.87357 0.75271 0.80028 0.0
C1147 C 0.78507 0.71772 0.81675 0.0
C1148 C 0.31809 0.0556 0.83753 0.0
C1149 C 0.30995 0.08142 0.82078 0.0
H1150 H 0.33693 0.03474 0.91146 0.0
C1151 C 0.31204 0.10445 0.8719 0.0
H1152 H 0.31548 0.03623 0.80045 0.0
C1153 C 0.32469 0.10369 0.93673 0.0
C1154 C 0.33454 0.07907 0.95233 0.0
H1155 H 0.30495 0.12382 0.86121 0.0
H1156 H 0.32818 0.12354 0.97372 0.0
C1157 C 0.32971 0.05411 0.9022 0.0
C1158 C 0.77606 0.11188 0.33155 0.0
C1159 C 0.75477 0.07905 0.29185 0.0
H1160 H 0.78121 0.13862 0.42382 0.0
C1161 C 0.71888 0.04954 0.31235 0.0
H1162 H 0.80391 0.1349 0.31797 0.0
C1163 C 0.70595 0.05112 0.37436 0.0
C1164 C 0.72873 0.08215 0.41733 0.0
H1165 H 0.70193 0.02362 0.28307 0.0
H1166 H 0.67865 0.02746 0.38959 0.0
C1167 C 0.76339 0.11321 0.39377 0.0
C1168 C 0.95316 0.71491 0.31365 0.0
C1169 C 0.98113 0.72531 0.26939 0.0
H1170 H 0.92735 0.68939 0.40753 0.0
C1171 C 0.00382 0.71457 0.28607 0.0
H1172 H 0.93595 0.72379 0.30303 0.0
C1173 C -0.0007 0.695 0.34725 0.0
C1174 C 0.97249 0.68657 0.39341 0.0
H1175 H 0.02656 0.72364 0.25412 0.0
H1176 H 0.01722 0.68717 0.35892 0.0
C1177 C 0.94909 0.69622 0.37482 0.0
C1178 C 0.39527 0.29566 0.3717 0.0
C1179 C 0.39408 0.26817 0.41332 0.0
H1180 H 0.37217 0.30543 0.28703 0.0
C1181 C 0.3711 0.2291 0.39589 0.0
H1182 H 0.41336 0.32611 0.38282 0.0
C1183 C 0.34854 0.21755 0.33968 0.0
C1184 C 0.34812 0.24478 0.30076 0.0
H1185 H 0.37029 0.20732 0.42579 0.0
H1186 H 0.32933 0.18696 0.33021 0.0
C1187 C 0.37251 0.28404 0.31581 0.0
C1188 C 0.14063 0.82001 0.96489 0.0
C1189 C 0.10443 0.80155 -0.01608 0.0
H1190 H 0.17793 0.81497 0.91393 0.0
C1191 C 0.07694 0.76577 0.95569 0.0
H1192 H 0.16226 0.84801 -0.01561 0.0
C1193 C 0.08582 0.74701 0.91498 0.0
C1194 C 0.12229 0.7638 0.90124 0.0
H1195 H 0.04862 0.75106 0.96812 0.0
H1196 H 0.06441 0.71803 0.89881 0.0
C1197 C 0.14947 0.80141 0.92324 0.0
C1198 C 0.25865 0.33212 -0.02194 0.0
C1199 C 0.29591 0.35124 0.96818 0.0
H1200 H 0.21278 0.29398 0.0417 0.0
C1201 C 0.31609 0.34719 0.01662 0.0
H1202 H 0.24302 0.33644 0.94282 0.0
C1203 C 0.29931 0.32449 0.07453 0.0
C1204 C 0.26197 0.30525 0.08459 0.0
H1205 H 0.34522 0.36318 0.01129 0.0
H1206 H 0.31545 0.32159 0.11091 0.0
C1207 C 0.24167 0.30879 0.03534 0.0
C1208 C 0.70532 0.94966 0.01758 0.0
C1209 C 0.69137 0.91475 -0.01407 0.0
H1210 H 0.73967 0.98843 0.09519 0.0
C1211 C 0.70688 0.89551 0.001 0.0
H1212 H 0.69439 0.96549 0.00645 0.0
C1213 C 0.73312 0.90891 0.05207 0.0
C1214 C 0.74349 0.9412 0.08872 0.0
H1215 H 0.6967 0.8685 -0.02255 0.0
H1216 H 0.74354 0.89283 0.06563 0.0
C1217 C 0.73079 0.96248 0.06905 0.0
C1218 C 0.64489 0.55348 0.22719 0.0
C1219 C 0.6664 0.57784 0.17292 0.0
H1220 H 0.61417 0.54583 0.3139 0.0
C1221 C 0.67672 0.61541 0.16898 0.0
H1222 H 0.63721 0.52452 0.23206 0.0
C1223 C 0.66488 0.62813 0.21726 0.0
C1224 C 0.64148 0.60314 0.26952 0.0
H1225 H 0.69427 0.63514 0.129 0.0
H1226 H 0.67277 0.65715 0.2114 0.0
C1227 C 0.63225 0.56589 0.27478 0.0
C1228 C 0.44257 0.02246 0.28071 0.0
C1229 C 0.42691 0.01491 0.21556 0.0
H1230 H 0.4455 -0.00148 0.37499 0.0
C1231 C 0.40132 0.97667 0.19648 0.0
H1232 H 0.46225 0.05182 0.29714 0.0
C1233 C 0.39215 0.94664 0.24058 0.0
C1234 C 0.40807 0.95392 0.30528 0.0
H1235 H 0.38864 0.96984 0.14711 0.0
H1236 H 0.37226 0.9174 0.2237 0.0
C1237 C 0.43296 0.99213 0.32554 0.0
C1238 C 0.00108 0.38612 0.29538 0.0
C1239 C 0.02517 0.42613 0.30434 0.0
H1240 H 0.95341 0.33986 0.24494 0.0
C1241 C 0.016 0.44977 0.27798 0.0
H1242 H 0.00743 0.36727 0.31539 0.0
C1243 C 0.98512 0.43398 0.23717 0.0
C1244 C 0.96336 0.39461 0.22307 0.0
H1245 H 0.0343 0.48077 0.28368 0.0
H1246 H 0.97955 0.45274 0.21338 0.0
C1247 C 0.97047 0.37051 0.25472 0.0
C1248 C 0.50796 0.42625 0.74473 0.0
C1249 C 0.49442 0.40805 0.68238 0.0
H1250 H 0.50091 0.45204 0.82754 0.0
C1251 C 0.46181 0.40027 0.65745 0.0
H1252 H 0.53282 0.43228 0.76548 0.0
C1253 C 0.44314 0.4103 0.69354 0.0
C1254 C 0.45684 0.42917 0.75509 0.0
H1255 H 0.45013 0.38572 0.61018 0.0
H1256 H 0.41831 0.40405 0.67209 0.0
C1257 C 0.48959 0.43729 0.78033 0.0
C1258 C 0.59611 0.01631 0.7856 0.0
C1259 C 0.5885 0.01099 0.71599 0.0
H1260 H 0.59387 0.99047 0.88089 0.0
C1261 C 0.56895 0.97362 0.69059 0.0
H1262 H 0.61126 0.0448 0.80688 0.0
C1263 C 0.55862 0.9425 0.73335 0.0
C1264 C 0.56825 0.94823 0.80209 0.0
H1265 H 0.56267 0.96861 0.63735 0.0
H1266 H 0.54454 0.91418 0.71182 0.0
C1267 C 0.58645 0.9853 0.82808 0.0
C1268 C 0.04414 0.59045 0.65265 0.0
C1269 C 0.00705 0.5671 0.66963 0.0
H1270 H 0.09895 0.61735 0.6878 0.0
C1271 C -0.00308 0.54875 0.73373 0.0
H1272 H 0.05297 0.60491 0.60391 0.0
C1273 C 0.02299 0.55585 0.78119 0.0
C1274 C 0.06001 0.58087 0.76581 0.0
H1275 H 0.96878 0.53041 0.74918 0.0
H1276 H 0.01426 0.5435 0.83149 0.0
C1277 C 0.07041 0.59714 0.70036 0.0
loop_
_geom_bond_atom_site_label_1
_geom_bond_atom_site_label_2
_geom_bond_distance
_geom_bond_site_symmetry_2
_ccdc_geom_bond_type
C0 O27 1.312 . S
C0 O28 1.208 . S
C1 O22 1.331 . S
C1 O25 1.244 . S
C2 O24 1.264 . S
C2 O26 1.273 . S
Mg3 O5 1.936 1_545 S
Mg3 O12 2.081 1_545 S
Mg3 O14 2.023 1_545 S
Mg3 O18 2.031 . S
Mg3 O27 2.291 . S
Mg4 O5 1.963 . S
Mg4 O15 1.942 . S
Mg4 O16 1.955 . S
Mg4 O23 1.986 . S
O5 Mg3 1.936 1_565 S
O5 Mg4 1.963 . S
O5 Mg6 1.915 1_565 S
Mg6 O5 1.915 1_545 S
Mg6 O7 1.915 . S
Mg6 O11 2.013 1_545 S
Mg6 O17 2.114 . S
Mg6 O21 2.013 1_545 S
Mg6 O27 2.114 . S
O7 Mg6 1.915 . S
O7 Mg8 1.936 . S
O7 Mg9 1.963 . S
Mg8 O7 1.936 . S
Mg8 O17 2.291 . S
Mg8 O22 2.081 . S
Mg8 O24 2.023 . S
Mg8 O28 2.031 . S
Mg9 O7 1.963 . S
Mg9 O13 1.986 1_545 S
Mg9 O25 1.942 . S
Mg9 O26 1.955 . S
C10 O21 1.191 . S
C10 O23 1.307 . S
O11 Mg6 2.013 1_565 S
O11 C30 1.191 . S
O12 Mg3 2.081 1_565 S
O12 C20 1.331 . S
O13 Mg9 1.986 1_565 S
O13 C30 1.307 . S
O14 Mg3 2.023 1_565 S
O14 C29 1.264 . S
O15 Mg4 1.942 . S
O15 C20 1.244 . S
O16 Mg4 1.955 . S
O16 C29 1.273 . S
O17 Mg6 2.114 . S
O17 Mg8 2.291 . S
O17 C19 1.312 . S
O18 Mg3 2.031 . S
O18 C19 1.208 . S
C19 O17 1.312 . S
C19 O18 1.208 . S
C20 O12 1.331 . S
C20 O15 1.244 . S
O21 Mg6 2.013 1_565 S
O21 C10 1.191 . S
O22 C1 1.331 . S
O22 Mg8 2.081 . S
O23 Mg4 1.986 . S
O23 C10 1.307 . S
O24 C2 1.264 . S
O24 Mg8 2.023 . S
O25 C1 1.244 . S
O25 Mg9 1.942 . S
O26 C2 1.273 . S
O26 Mg9 1.955 . S
O27 C0 1.312 . S
O27 Mg3 2.291 . S
O27 Mg6 2.114 . S
O28 C0 1.208 . S
O28 Mg8 2.031 . S
C29 O14 1.264 . S
C29 O16 1.273 . S
C30 O11 1.191 . S
C30 O13 1.307 . S
C31 O58 1.312 . S
C31 O59 1.208 . S
C32 O53 1.331 . S
C32 O56 1.244 . S
C33 O55 1.264 . S
C33 O57 1.273 . S
Mg34 O36 1.936 . S
Mg34 O43 2.081 . S
Mg34 O45 2.023 . S
Mg34 O49 2.031 . S
Mg34 O58 2.291 . S
Mg35 O36 1.963 . S
Mg35 O46 1.942 . S
Mg35 O47 1.955 . S
Mg35 O54 1.986 1_455 S
O36 Mg34 1.936 . S
O36 Mg35 1.963 . S
O36 Mg37 1.915 . S
Mg37 O36 1.915 . S
Mg37 O38 1.915 1_455 S
Mg37 O42 2.013 1_455 S
Mg37 O48 2.114 . S
Mg37 O52 2.013 1_455 S
Mg37 O58 2.114 . S
O38 Mg37 1.915 1_655 S
O38 Mg39 1.936 1_655 S
O38 Mg40 1.963 . S
Mg39 O38 1.936 1_455 S
Mg39 O48 2.291 . S
Mg39 O53 2.081 1_455 S
Mg39 O55 2.023 1_455 S
Mg39 O59 2.031 . S
Mg40 O38 1.963 . S
Mg40 O44 1.986 . S
Mg40 O56 1.942 . S
Mg40 O57 1.955 . S
C41 O52 1.191 . S
C41 O54 1.307 . S
O42 Mg37 2.013 1_655 S
O42 C61 1.191 . S
O43 Mg34 2.081 . S
O43 C51 1.331 . S
O44 Mg40 1.986 . S
O44 C61 1.307 . S
O45 Mg34 2.023 . S
O45 C60 1.264 . S
O46 Mg35 1.942 . S
O46 C51 1.244 . S
O47 Mg35 1.955 . S
O47 C60 1.273 . S
O48 Mg37 2.114 . S
O48 Mg39 2.291 . S
O48 C50 1.312 . S
O49 Mg34 2.031 . S
O49 C50 1.208 . S
C50 O48 1.312 . S
C50 O49 1.208 . S
C51 O43 1.331 . S
C51 O46 1.244 . S
O52 Mg37 2.013 1_655 S
O52 C41 1.191 . S
O53 C32 1.331 . S
O53 Mg39 2.081 1_655 S
O54 Mg35 1.986 1_655 S
O54 C41 1.307 . S
O55 C33 1.264 . S
O55 Mg39 2.023 1_655 S
O56 C32 1.244 . S
O56 Mg40 1.942 . S
O57 C33 1.273 . S
O57 Mg40 1.955 . S
O58 C31 1.312 . S
O58 Mg34 2.291 . S
O58 Mg37 2.114 . S
O59 C31 1.208 . S
O59 Mg39 2.031 . S
C60 O45 1.264 . S
C60 O47 1.273 . S
C61 O42 1.191 . S
C61 O44 1.307 . S
C62 O89 1.312 . S
C62 O90 1.208 . S
C63 O84 1.331 . S
C63 O87 1.244 . S
C64 O86 1.264 . S
C64 O88 1.273 . S
Mg65 O67 1.936 . S
Mg65 O74 2.081 . S
Mg65 O76 2.023 . S
Mg65 O80 2.031 . S
Mg65 O89 2.291 . S
Mg66 O67 1.963 . S
Mg66 O77 1.942 . S
Mg66 O78 1.955 . S
Mg66 O85 1.986 . S
O67 Mg65 1.936 . S
O67 Mg66 1.963 . S
O67 Mg68 1.915 . S
Mg68 O67 1.915 . S
Mg68 O69 1.915 . S
Mg68 O73 2.013 . S
Mg68 O79 2.114 . S
Mg68 O83 2.013 . S
Mg68 O89 2.114 . S
O69 Mg68 1.915 . S
O69 Mg70 1.936 . S
O69 Mg71 1.963 . S
Mg70 O69 1.936 . S
Mg70 O79 2.291 . S
Mg70 O84 2.081 . S
Mg70 O86 2.023 . S
Mg70 O90 2.031 . S
Mg71 O69 1.963 . S
Mg71 O75 1.986 . S
Mg71 O87 1.942 . S
Mg71 O88 1.955 . S
C72 O83 1.191 . S
C72 O85 1.307 . S
O73 Mg68 2.013 . S
O73 C92 1.191 . S
O74 Mg65 2.081 . S
O74 C82 1.331 1_655 S
O75 Mg71 1.986 . S
O75 C92 1.307 . S
O76 Mg65 2.023 . S
O76 C91 1.264 . S
O77 Mg66 1.942 . S
O77 C82 1.244 1_655 S
O78 Mg66 1.955 . S
O78 C91 1.273 . S
O79 Mg68 2.114 . S
O79 Mg70 2.291 . S
O79 C81 1.312 . S
O80 Mg65 2.031 . S
O80 C81 1.208 . S
C81 O79 1.312 . S
C81 O80 1.208 . S
C82 O74 1.331 1_455 S
C82 O77 1.244 1_455 S
O83 Mg68 2.013 . S
O83 C72 1.191 . S
O84 C63 1.331 . S
O84 Mg70 2.081 . S
O85 Mg66 1.986 . S
O85 C72 1.307 . S
O86 C64 1.264 . S
O86 Mg70 2.023 . S
O87 C63 1.244 . S
O87 Mg71 1.942 . S
O88 C64 1.273 . S
O88 Mg71 1.955 . S
O89 C62 1.312 . S
O89 Mg65 2.291 . S
O89 Mg68 2.114 . S
O90 C62 1.208 . S
O90 Mg70 2.031 . S
C91 O76 1.264 . S
C91 O78 1.273 . S
C92 O73 1.191 . S
C92 O75 1.307 . S
C93 O120 1.312 . S
C93 O121 1.208 . S
C94 O115 1.331 . S
C94 O118 1.244 . S
C95 O117 1.264 . S
C95 O119 1.273 . S
Mg96 O98 1.936 . S
Mg96 O105 2.081 . S
Mg96 O107 2.023 . S
Mg96 O111 2.031 . S
Mg96 O120 2.291 . S
Mg97 O98 1.963 . S
Mg97 O108 1.942 . S
Mg97 O109 1.955 . S
Mg97 O116 1.986 1_565 S
O98 Mg96 1.936 . S
O98 Mg97 1.963 . S
O98 Mg99 1.915 1_565 S
Mg99 O98 1.915 1_545 S
Mg99 O100 1.915 . S
Mg99 O104 2.013 . S
Mg99 O110 2.114 1_545 S
Mg99 O114 2.013 . S
Mg99 O120 2.114 1_545 S
O100 Mg99 1.915 . S
O100 Mg101 1.936 . S
O100 Mg102 1.963 . S
Mg101 O100 1.936 . S
Mg101 O110 2.291 1_545 S
Mg101 O115 2.081 . S
Mg101 O117 2.023 . S
Mg101 O121 2.031 1_545 S
Mg102 O100 1.963 . S
Mg102 O106 1.986 . S
Mg102 O118 1.942 . S
Mg102 O119 1.955 . S
C103 O114 1.191 . S
C103 O116 1.307 . S
O104 Mg99 2.013 . S
O104 C123 1.191 . S
O105 Mg96 2.081 . S
O105 C113 1.331 . S
O106 Mg102 1.986 . S
O106 C123 1.307 . S
O107 Mg96 2.023 . S
O107 C122 1.264 . S
O108 Mg97 1.942 . S
O108 C113 1.244 . S
O109 Mg97 1.955 . S
O109 C122 1.273 . S
O110 Mg99 2.114 1_565 S
O110 Mg101 2.291 1_565 S
O110 C112 1.312 . S
O111 Mg96 2.031 . S
O111 C112 1.208 . S
C112 O110 1.312 . S
C112 O111 1.208 . S
C113 O105 1.331 . S
C113 O108 1.244 . S
O114 Mg99 2.013 . S
O114 C103 1.191 . S
O115 C94 1.331 . S
O115 Mg101 2.081 . S
O116 Mg97 1.986 1_545 S
O116 C103 1.307 . S
O117 C95 1.264 . S
O117 Mg101 2.023 . S
O118 C94 1.244 . S
O118 Mg102 1.942 . S
O119 C95 1.273 . S
O119 Mg102 1.955 . S
O120 C93 1.312 . S
O120 Mg96 2.291 . S
O120 Mg99 2.114 1_565 S
O121 C93 1.208 . S
O121 Mg101 2.031 1_565 S
C122 O107 1.264 . S
C122 O109 1.273 . S
C123 O104 1.191 . S
C123 O106 1.307 . S
C124 O151 1.313 1_655 S
C124 O152 1.207 1_655 S
C125 O146 1.331 . S
C125 O149 1.244 . S
C126 O148 1.264 . S
C126 O150 1.273 . S
Mg127 O129 1.936 1_655 S
Mg127 O136 2.081 . S
Mg127 O138 2.023 . S
Mg127 O142 2.031 . S
Mg127 O151 2.291 1_655 S
Mg128 O129 1.963 . S
Mg128 O139 1.942 1_455 S
Mg128 O140 1.955 . S
Mg128 O147 1.986 . S
O129 Mg127 1.936 1_455 S
O129 Mg128 1.963 . S
O129 Mg130 1.915 . S
Mg130 O129 1.915 . S
Mg130 O131 1.915 . S
Mg130 O135 2.013 . S
Mg130 O141 2.114 . S
Mg130 O145 2.013 . S
Mg130 O151 2.114 . S
O131 Mg130 1.915 . S
O131 Mg132 1.936 . S
O131 Mg133 1.963 . S
Mg132 O131 1.936 . S
Mg132 O141 2.291 . S
Mg132 O146 2.081 . S
Mg132 O148 2.023 . S
Mg132 O152 2.031 . S
Mg133 O131 1.963 . S
Mg133 O137 1.986 . S
Mg133 O149 1.942 . S
Mg133 O150 1.955 . S
C134 O145 1.191 . S
C134 O147 1.307 . S
O135 Mg130 2.013 . S
O135 C154 1.191 . S
O136 Mg127 2.081 . S
O136 C144 1.331 . S
O137 Mg133 1.986 . S
O137 C154 1.307 . S
O138 Mg127 2.023 . S
O138 C153 1.264 . S
O139 Mg128 1.942 1_655 S
O139 C144 1.244 . S
O140 Mg128 1.955 . S
O140 C153 1.273 1_455 S
O141 Mg130 2.114 . S
O141 Mg132 2.291 . S
O141 C143 1.312 1_455 S
O142 Mg127 2.031 . S
O142 C143 1.208 . S
C143 O141 1.312 1_655 S
C143 O142 1.208 . S
C144 O136 1.331 . S
C144 O139 1.244 . S
O145 Mg130 2.013 . S
O145 C134 1.191 . S
O146 C125 1.331 . S
O146 Mg132 2.081 . S
O147 Mg128 1.986 . S
O147 C134 1.307 . S
O148 C126 1.264 . S
O148 Mg132 2.023 . S
O149 C125 1.244 . S
O149 Mg133 1.942 . S
O150 C126 1.273 . S
O150 Mg133 1.955 . S
O151 C124 1.313 1_455 S
O151 Mg127 2.291 1_455 S
O151 Mg130 2.114 . S
O152 C124 1.207 1_455 S
O152 Mg132 2.031 . S
C153 O138 1.264 . S
C153 O140 1.273 1_655 S
C154 O135 1.191 . S
C154 O137 1.307 . S
C155 O182 1.312 . S
C155 O183 1.208 . S
C156 O177 1.331 . S
C156 O180 1.244 . S
C157 O179 1.264 . S
C157 O181 1.273 . S
Mg158 O160 1.936 . S
Mg158 O167 2.081 . S
Mg158 O169 2.023 . S
Mg158 O173 2.031 . S
Mg158 O182 2.291 . S
Mg159 O160 1.963 . S
Mg159 O170 1.942 . S
Mg159 O171 1.955 . S
Mg159 O178 1.986 . S
O160 Mg158 1.936 . S
O160 Mg159 1.963 . S
O160 Mg161 1.915 . S
Mg161 O160 1.915 . S
Mg161 O162 1.915 . S
Mg161 O166 2.013 . S
Mg161 O172 2.114 . S
Mg161 O176 2.013 . S
Mg161 O182 2.114 . S
O162 Mg161 1.915 . S
O162 Mg163 1.936 . S
O162 Mg164 1.963 . S
Mg163 O162 1.936 . S
Mg163 O172 2.291 . S
Mg163 O177 2.081 . S
Mg163 O179 2.023 . S
Mg163 O183 2.031 . S
Mg164 O162 1.963 . S
Mg164 O168 1.986 . S
Mg164 O180 1.942 . S
Mg164 O181 1.955 . S
C165 O176 1.191 . S
C165 O178 1.307 . S
O166 Mg161 2.013 . S
O166 C185 1.191 . S
O167 Mg158 2.081 . S
O167 C175 1.331 . S
O168 Mg164 1.986 . S
O168 C185 1.307 . S
O169 Mg158 2.023 . S
O169 C184 1.264 . S
O170 Mg159 1.942 . S
O170 C175 1.244 . S
O171 Mg159 1.955 . S
O171 C184 1.273 . S
O172 Mg161 2.114 . S
O172 Mg163 2.291 . S
O172 C174 1.312 . S
O173 Mg158 2.031 . S
O173 C174 1.208 . S
C174 O172 1.312 . S
C174 O173 1.208 . S
C175 O167 1.331 . S
C175 O170 1.244 . S
O176 Mg161 2.013 . S
O176 C165 1.191 . S
O177 C156 1.331 . S
O177 Mg163 2.081 . S
O178 Mg159 1.986 . S
O178 C165 1.307 . S
O179 C157 1.264 . S
O179 Mg163 2.023 . S
O180 C156 1.244 . S
O180 Mg164 1.942 . S
O181 C157 1.273 . S
O181 Mg164 1.955 . S
O182 C155 1.312 . S
O182 Mg158 2.291 . S
O182 Mg161 2.114 . S
O183 C155 1.208 . S
O183 Mg163 2.031 . S
C184 O169 1.264 . S
C184 O171 1.273 . S
C185 O166 1.191 . S
C185 O168 1.307 . S
C186 O213 1.312 . S
C186 O214 1.208 . S
C187 O208 1.331 . S
C187 O211 1.244 . S
C188 O210 1.264 . S
C188 O212 1.273 . S
Mg189 O191 1.936 . S
Mg189 O198 2.081 . S
Mg189 O200 2.023 . S
Mg189 O204 2.031 . S
Mg189 O213 2.291 . S
Mg190 O191 1.963 . S
Mg190 O201 1.942 . S
Mg190 O202 1.955 . S
Mg190 O209 1.986 . S
O191 Mg189 1.936 . S
O191 Mg190 1.963 . S
O191 Mg192 1.915 . S
Mg192 O191 1.915 . S
Mg192 O193 1.915 . S
Mg192 O197 2.013 . S
Mg192 O203 2.114 1_554 S
Mg192 O207 2.013 . S
Mg192 O213 2.114 . S
O193 Mg192 1.915 . S
O193 Mg194 1.936 1_554 S
O193 Mg195 1.963 . S
Mg194 O193 1.936 1_556 S
Mg194 O203 2.291 . S
Mg194 O208 2.081 1_556 S
Mg194 O210 2.023 . S
Mg194 O214 2.031 1_556 S
Mg195 O193 1.963 . S
Mg195 O199 1.986 . S
Mg195 O211 1.942 . S
Mg195 O212 1.955 1_554 S
C196 O207 1.191 . S
C196 O209 1.307 . S
O197 Mg192 2.013 . S
O197 C216 1.191 . S
O198 Mg189 2.081 . S
O198 C206 1.331 . S
O199 Mg195 1.986 . S
O199 C216 1.307 . S
O200 Mg189 2.023 . S
O200 C215 1.264 . S
O201 Mg190 1.942 . S
O201 C206 1.244 . S
O202 Mg190 1.955 . S
O202 C215 1.273 . S
O203 Mg192 2.114 1_556 S
O203 Mg194 2.291 . S
O203 C205 1.312 . S
O204 Mg189 2.031 . S
O204 C205 1.208 1_554 S
C205 O203 1.312 . S
C205 O204 1.208 1_556 S
C206 O198 1.331 . S
C206 O201 1.244 . S
O207 Mg192 2.013 . S
O207 C196 1.191 . S
O208 C187 1.331 . S
O208 Mg194 2.081 1_554 S
O209 Mg190 1.986 . S
O209 C196 1.307 . S
O210 C188 1.264 . S
O210 Mg194 2.023 . S
O211 C187 1.244 . S
O211 Mg195 1.942 . S
O212 C188 1.273 . S
O212 Mg195 1.955 1_556 S
O213 C186 1.312 . S
O213 Mg189 2.291 . S
O213 Mg192 2.114 . S
O214 C186 1.208 . S
O214 Mg194 2.031 1_554 S
C215 O200 1.264 . S
C215 O202 1.273 . S
C216 O197 1.191 . S
C216 O199 1.307 . S
C217 O244 1.312 . S
C217 O245 1.208 . S
C218 O239 1.331 . S
C218 O242 1.244 . S
C219 O241 1.264 . S
C219 O243 1.273 . S
Mg220 O222 1.936 . S
Mg220 O229 2.081 . S
Mg220 O231 2.023 . S
Mg220 O235 2.031 . S
Mg220 O244 2.291 . S
Mg221 O222 1.963 . S
Mg221 O232 1.942 . S
Mg221 O233 1.955 . S
Mg221 O240 1.986 . S
O222 Mg220 1.936 . S
O222 Mg221 1.963 . S
O222 Mg223 1.915 . S
Mg223 O222 1.915 . S
Mg223 O224 1.915 . S
Mg223 O228 2.013 . S
Mg223 O234 2.114 . S
Mg223 O238 2.013 . S
Mg223 O244 2.114 . S
O224 Mg223 1.915 . S
O224 Mg225 1.936 1_554 S
O224 Mg226 1.963 . S
Mg225 O224 1.936 1_556 S
Mg225 O234 2.291 1_556 S
Mg225 O239 2.081 1_556 S
Mg225 O241 2.023 . S
Mg225 O245 2.031 1_556 S
Mg226 O224 1.963 . S
Mg226 O230 1.986 . S
Mg226 O242 1.942 . S
Mg226 O243 1.955 1_554 S
C227 O238 1.191 . S
C227 O240 1.307 . S
O228 Mg223 2.013 . S
O228 C247 1.191 . S
O229 Mg220 2.081 . S
O229 C237 1.331 . S
O230 Mg226 1.986 . S
O230 C247 1.307 . S
O231 Mg220 2.023 . S
O231 C246 1.264 . S
O232 Mg221 1.942 . S
O232 C237 1.244 . S
O233 Mg221 1.955 . S
O233 C246 1.273 . S
O234 Mg223 2.114 . S
O234 Mg225 2.291 1_554 S
O234 C236 1.312 1_554 S
O235 Mg220 2.031 . S
O235 C236 1.208 1_554 S
C236 O234 1.312 1_556 S
C236 O235 1.208 1_556 S
C237 O229 1.331 . S
C237 O232 1.244 . S
O238 Mg223 2.013 . S
O238 C227 1.191 . S
O239 C218 1.331 . S
O239 Mg225 2.081 1_554 S
O240 Mg221 1.986 . S
O240 C227 1.307 . S
O241 C219 1.264 . S
O241 Mg225 2.023 . S
O242 C218 1.244 . S
O242 Mg226 1.942 . S
O243 C219 1.273 . S
O243 Mg226 1.955 1_556 S
O244 C217 1.312 . S
O244 Mg220 2.291 . S
O244 Mg223 2.114 . S
O245 C217 1.208 . S
O245 Mg225 2.031 1_554 S
C246 O231 1.264 . S
C246 O233 1.273 . S
C247 O228 1.191 . S
C247 O230 1.307 . S
C248 O275 1.312 . S
C248 O276 1.208 . S
C249 O270 1.331 . S
C249 O273 1.244 . S
C250 O272 1.264 . S
C250 O274 1.273 . S
Mg251 O253 1.936 . S
Mg251 O260 2.081 . S
Mg251 O262 2.023 . S
Mg251 O266 2.031 . S
Mg251 O275 2.291 . S
Mg252 O253 1.963 . S
Mg252 O263 1.942 . S
Mg252 O264 1.955 . S
Mg252 O271 1.986 . S
O253 Mg251 1.936 . S
O253 Mg252 1.963 . S
O253 Mg254 1.915 . S
Mg254 O253 1.915 . S
Mg254 O255 1.915 . S
Mg254 O259 2.013 . S
Mg254 O265 2.114 1_554 S
Mg254 O269 2.013 . S
Mg254 O275 2.114 . S
O255 Mg254 1.915 . S
O255 Mg256 1.936 1_554 S
O255 Mg257 1.963 . S
Mg256 O255 1.936 1_556 S
Mg256 O265 2.291 . S
Mg256 O270 2.081 1_556 S
Mg256 O272 2.023 . S
Mg256 O276 2.031 1_556 S
Mg257 O255 1.963 . S
Mg257 O261 1.986 . S
Mg257 O273 1.942 . S
Mg257 O274 1.955 1_554 S
C258 O269 1.191 . S
C258 O271 1.307 . S
O259 Mg254 2.013 . S
O259 C278 1.191 . S
O260 Mg251 2.081 . S
O260 C268 1.331 . S
O261 Mg257 1.986 . S
O261 C278 1.307 . S
O262 Mg251 2.023 . S
O262 C277 1.264 . S
O263 Mg252 1.942 . S
O263 C268 1.244 . S
O264 Mg252 1.955 . S
O264 C277 1.273 . S
O265 Mg254 2.114 1_556 S
O265 Mg256 2.291 . S
O265 C267 1.312 . S
O266 Mg251 2.031 . S
O266 C267 1.208 1_554 S
C267 O265 1.312 . S
C267 O266 1.208 1_556 S
C268 O260 1.331 . S
C268 O263 1.244 . S
O269 Mg254 2.013 . S
O269 C258 1.191 . S
O270 C249 1.331 . S
O270 Mg256 2.081 1_554 S
O271 Mg252 1.986 . S
O271 C258 1.307 . S
O272 C250 1.264 . S
O272 Mg256 2.023 . S
O273 C249 1.244 . S
O273 Mg257 1.942 . S
O274 C250 1.273 . S
O274 Mg257 1.955 1_556 S
O275 C248 1.312 . S
O275 Mg251 2.291 . S
O275 Mg254 2.114 . S
O276 C248 1.208 . S
O276 Mg256 2.031 1_554 S
C277 O262 1.264 . S
C277 O264 1.273 . S
C278 O259 1.191 . S
C278 O261 1.307 . S
C279 O306 1.312 . S
C279 O307 1.208 . S
C280 O301 1.331 . S
C280 O304 1.244 . S
C281 O303 1.264 . S
C281 O305 1.273 . S
Mg282 O284 1.936 . S
Mg282 O291 2.081 . S
Mg282 O293 2.023 . S
Mg282 O297 2.031 . S
Mg282 O306 2.291 . S
Mg283 O284 1.963 . S
Mg283 O294 1.942 . S
Mg283 O295 1.955 . S
Mg283 O302 1.986 . S
O284 Mg282 1.936 . S
O284 Mg283 1.963 . S
O284 Mg285 1.915 . S
Mg285 O284 1.915 . S
Mg285 O286 1.915 . S
Mg285 O290 2.013 . S
Mg285 O296 2.114 . S
Mg285 O300 2.013 . S
Mg285 O306 2.114 . S
O286 Mg285 1.915 . S
O286 Mg287 1.936 . S
O286 Mg288 1.963 . S
Mg287 O286 1.936 . S
Mg287 O296 2.291 . S
Mg287 O301 2.081 . S
Mg287 O303 2.023 . S
Mg287 O307 2.031 . S
Mg288 O286 1.963 . S
Mg288 O292 1.986 . S
Mg288 O304 1.942 . S
Mg288 O305 1.955 . S
C289 O300 1.191 . S
C289 O302 1.307 . S
O290 Mg285 2.013 . S
O290 C309 1.191 . S
O291 Mg282 2.081 . S
O291 C299 1.331 . S
O292 Mg288 1.986 . S
O292 C309 1.307 . S
O293 Mg282 2.023 . S
O293 C308 1.264 . S
O294 Mg283 1.942 . S
O294 C299 1.244 . S
O295 Mg283 1.955 . S
O295 C308 1.273 . S
O296 Mg285 2.114 . S
O296 Mg287 2.291 . S
O296 C298 1.312 . S
O297 Mg282 2.031 . S
O297 C298 1.208 . S
C298 O296 1.312 . S
C298 O297 1.208 . S
C299 O291 1.331 . S
C299 O294 1.244 . S
O300 Mg285 2.013 . S
O300 C289 1.191 . S
O301 C280 1.331 . S
O301 Mg287 2.081 . S
O302 Mg283 1.986 . S
O302 C289 1.307 . S
O303 C281 1.264 . S
O303 Mg287 2.023 . S
O304 C280 1.244 . S
O304 Mg288 1.942 . S
O305 C281 1.273 . S
O305 Mg288 1.955 . S
O306 C279 1.312 . S
O306 Mg282 2.291 . S
O306 Mg285 2.114 . S
O307 C279 1.208 . S
O307 Mg287 2.031 . S
C308 O293 1.264 . S
C308 O295 1.273 . S
C309 O290 1.191 . S
C309 O292 1.307 . S
C310 O337 1.312 . S
C310 O338 1.208 . S
C311 O332 1.331 . S
C311 O335 1.244 . S
C312 O334 1.264 . S
C312 O336 1.273 . S
Mg313 O315 1.936 . S
Mg313 O322 2.081 . S
Mg313 O324 2.023 . S
Mg313 O328 2.031 . S
Mg313 O337 2.291 . S
Mg314 O315 1.963 . S
Mg314 O325 1.942 . S
Mg314 O326 1.955 . S
Mg314 O333 1.986 . S
O315 Mg313 1.936 . S
O315 Mg314 1.963 . S
O315 Mg316 1.915 . S
Mg316 O315 1.915 . S
Mg316 O317 1.915 . S
Mg316 O321 2.013 . S
Mg316 O327 2.114 . S
Mg316 O331 2.013 . S
Mg316 O337 2.114 . S
O317 Mg316 1.915 . S
O317 Mg318 1.936 . S
O317 Mg319 1.963 . S
Mg318 O317 1.936 . S
Mg318 O327 2.291 . S
Mg318 O332 2.081 . S
Mg318 O334 2.023 . S
Mg318 O338 2.031 . S
Mg319 O317 1.963 . S
Mg319 O323 1.986 . S
Mg319 O335 1.942 . S
Mg319 O336 1.955 . S
C320 O331 1.191 . S
C320 O333 1.307 . S
O321 Mg316 2.013 . S
O321 C340 1.191 . S
O322 Mg313 2.081 . S
O322 C330 1.331 . S
O323 Mg319 1.986 . S
O323 C340 1.307 . S
O324 Mg313 2.023 . S
O324 C339 1.264 . S
O325 Mg314 1.942 . S
O325 C330 1.244 . S
O326 Mg314 1.955 . S
O326 C339 1.273 . S
O327 Mg316 2.114 . S
O327 Mg318 2.291 . S
O327 C329 1.312 . S
O328 Mg313 2.031 . S
O328 C329 1.208 . S
C329 O327 1.312 . S
C329 O328 1.208 . S
C330 O322 1.331 . S
C330 O325 1.244 . S
O331 Mg316 2.013 . S
O331 C320 1.191 . S
O332 C311 1.331 . S
O332 Mg318 2.081 . S
O333 Mg314 1.986 . S
O333 C320 1.307 . S
O334 C312 1.264 . S
O334 Mg318 2.023 . S
O335 C311 1.244 . S
O335 Mg319 1.942 . S
O336 C312 1.273 . S
O336 Mg319 1.955 . S
O337 C310 1.312 . S
O337 Mg313 2.291 . S
O337 Mg316 2.114 . S
O338 C310 1.208 . S
O338 Mg318 2.031 . S
C339 O324 1.264 . S
C339 O326 1.273 . S
C340 O321 1.191 . S
C340 O323 1.307 . S
C341 O368 1.312 . S
C341 O369 1.208 . S
C342 O363 1.331 . S
C342 O366 1.244 . S
C343 O365 1.264 . S
C343 O367 1.273 . S
Mg344 O346 1.936 . S
Mg344 O353 2.081 . S
Mg344 O355 2.023 . S
Mg344 O359 2.031 . S
Mg344 O368 2.291 . S
Mg345 O346 1.963 . S
Mg345 O356 1.942 . S
Mg345 O357 1.955 . S
Mg345 O364 1.986 . S
O346 Mg344 1.936 . S
O346 Mg345 1.963 . S
O346 Mg347 1.915 . S
Mg347 O346 1.915 . S
Mg347 O348 1.915 . S
Mg347 O352 2.013 . S
Mg347 O358 2.114 . S
Mg347 O362 2.013 . S
Mg347 O368 2.114 . S
O348 Mg347 1.915 . S
O348 Mg349 1.936 . S
O348 Mg350 1.963 . S
Mg349 O348 1.936 . S
Mg349 O358 2.291 . S
Mg349 O363 2.081 . S
Mg349 O365 2.023 . S
Mg349 O369 2.031 . S
Mg350 O348 1.963 . S
Mg350 O354 1.986 . S
Mg350 O366 1.942 . S
Mg350 O367 1.955 . S
C351 O362 1.191 . S
C351 O364 1.307 . S
O352 Mg347 2.013 . S
O352 C371 1.191 . S
O353 Mg344 2.081 . S
O353 C361 1.331 . S
O354 Mg350 1.986 . S
O354 C371 1.307 . S
O355 Mg344 2.023 . S
O355 C370 1.264 . S
O356 Mg345 1.942 . S
O356 C361 1.244 . S
O357 Mg345 1.955 . S
O357 C370 1.273 . S
O358 Mg347 2.114 . S
O358 Mg349 2.291 . S
O358 C360 1.312 . S
O359 Mg344 2.031 . S
O359 C360 1.208 . S
C360 O358 1.312 . S
C360 O359 1.208 . S
C361 O353 1.331 . S
C361 O356 1.244 . S
O362 Mg347 2.013 . S
O362 C351 1.191 . S
O363 C342 1.331 . S
O363 Mg349 2.081 . S
O364 Mg345 1.986 . S
O364 C351 1.307 . S
O365 C343 1.264 . S
O365 Mg349 2.023 . S
O366 C342 1.244 . S
O366 Mg350 1.942 . S
O367 C343 1.273 . S
O367 Mg350 1.955 . S
O368 C341 1.312 . S
O368 Mg344 2.291 . S
O368 Mg347 2.114 . S
O369 C341 1.208 . S
O369 Mg349 2.031 . S
C370 O355 1.264 . S
C370 O357 1.273 . S
C371 O352 1.191 . S
C371 O354 1.307 . S
C372 O399 1.312 . S
C372 O400 1.208 . S
C373 O394 1.331 . S
C373 O397 1.244 . S
C374 O396 1.264 . S
C374 O398 1.273 . S
Mg375 O377 1.936 . S
Mg375 O384 2.081 . S
Mg375 O386 2.023 . S
Mg375 O390 2.031 . S
Mg375 O399 2.291 . S
Mg376 O377 1.963 . S
Mg376 O387 1.942 . S
Mg376 O388 1.955 . S
Mg376 O395 1.986 . S
O377 Mg375 1.936 . S
O377 Mg376 1.963 . S
O377 Mg378 1.915 . S
Mg378 O377 1.915 . S
Mg378 O379 1.915 . S
Mg378 O383 2.013 . S
Mg378 O389 2.114 . S
Mg378 O393 2.013 . S
Mg378 O399 2.114 . S
O379 Mg378 1.915 . S
O379 Mg380 1.936 . S
O379 Mg381 1.963 . S
Mg380 O379 1.936 . S
Mg380 O389 2.291 . S
Mg380 O394 2.081 . S
Mg380 O396 2.023 . S
Mg380 O400 2.031 . S
Mg381 O379 1.963 . S
Mg381 O385 1.986 . S
Mg381 O397 1.942 . S
Mg381 O398 1.955 . S
C382 O393 1.191 . S
C382 O395 1.307 . S
O383 Mg378 2.013 . S
O383 C402 1.191 . S
O384 Mg375 2.081 . S
O384 C392 1.331 . S
O385 Mg381 1.986 . S
O385 C402 1.307 . S
O386 Mg375 2.023 . S
O386 C401 1.264 . S
O387 Mg376 1.942 . S
O387 C392 1.244 . S
O388 Mg376 1.955 . S
O388 C401 1.273 . S
O389 Mg378 2.114 . S
O389 Mg380 2.291 . S
O389 C391 1.312 . S
O390 Mg375 2.031 . S
O390 C391 1.208 . S
C391 O389 1.312 . S
C391 O390 1.208 . S
C392 O384 1.331 . S
C392 O387 1.244 . S
O393 Mg378 2.013 . S
O393 C382 1.191 . S
O394 C373 1.331 . S
O394 Mg380 2.081 . S
O395 Mg376 1.986 . S
O395 C382 1.307 . S
O396 C374 1.264 . S
O396 Mg380 2.023 . S
O397 C373 1.244 . S
O397 Mg381 1.942 . S
O398 C374 1.273 . S
O398 Mg381 1.955 . S
O399 C372 1.312 . S
O399 Mg375 2.291 . S
O399 Mg378 2.114 . S
O400 C372 1.208 . S
O400 Mg380 2.031 . S
C401 O386 1.264 . S
C401 O388 1.273 . S
C402 O383 1.191 . S
C402 O385 1.307 . S
C403 O430 1.312 . S
C403 O431 1.208 . S
C404 O425 1.331 . S
C404 O428 1.244 . S
C405 O427 1.264 . S
C405 O429 1.273 . S
Mg406 O408 1.936 . S
Mg406 O415 2.081 . S
Mg406 O417 2.023 . S
Mg406 O421 2.031 . S
Mg406 O430 2.291 . S
Mg407 O408 1.963 . S
Mg407 O418 1.942 . S
Mg407 O419 1.955 . S
Mg407 O426 1.986 . S
O408 Mg406 1.936 . S
O408 Mg407 1.963 . S
O408 Mg409 1.915 . S
Mg409 O408 1.915 . S
Mg409 O410 1.915 . S
Mg409 O414 2.013 . S
Mg409 O420 2.114 . S
Mg409 O424 2.013 . S
Mg409 O430 2.114 . S
O410 Mg409 1.915 . S
O410 Mg411 1.936 . S
O410 Mg412 1.963 . S
Mg411 O410 1.936 . S
Mg411 O420 2.291 . S
Mg411 O425 2.081 . S
Mg411 O427 2.023 . S
Mg411 O431 2.031 . S
Mg412 O410 1.963 . S
Mg412 O416 1.986 . S
Mg412 O428 1.942 . S
Mg412 O429 1.955 . S
C413 O424 1.191 . S
C413 O426 1.307 . S
O414 Mg409 2.013 . S
O414 C433 1.191 . S
O415 Mg406 2.081 . S
O415 C423 1.331 . S
O416 Mg412 1.986 . S
O416 C433 1.307 . S
O417 Mg406 2.023 . S
O417 C432 1.264 . S
O418 Mg407 1.942 . S
O418 C423 1.244 . S
O419 Mg407 1.955 . S
O419 C432 1.273 . S
O420 Mg409 2.114 . S
O420 Mg411 2.291 . S
O420 C422 1.312 . S
O421 Mg406 2.031 . S
O421 C422 1.208 . S
C422 O420 1.312 . S
C422 O421 1.208 . S
C423 O415 1.331 . S
C423 O418 1.244 . S
O424 Mg409 2.013 . S
O424 C413 1.191 . S
O425 C404 1.331 . S
O425 Mg411 2.081 . S
O426 Mg407 1.986 . S
O426 C413 1.307 . S
O427 C405 1.264 . S
O427 Mg411 2.023 . S
O428 C404 1.244 . S
O428 Mg412 1.942 . S
O429 C405 1.273 . S
O429 Mg412 1.955 . S
O430 C403 1.312 . S
O430 Mg406 2.291 . S
O430 Mg409 2.114 . S
O431 C403 1.208 . S
O431 Mg411 2.031 . S
C432 O417 1.264 . S
C432 O419 1.273 . S
C433 O414 1.191 . S
C433 O416 1.307 . S
C434 O461 1.312 . S
C434 O462 1.208 . S
C435 O456 1.331 . S
C435 O459 1.244 . S
C436 O458 1.264 . S
C436 O460 1.273 . S
Mg437 O439 1.936 . S
Mg437 O446 2.081 . S
Mg437 O448 2.023 . S
Mg437 O452 2.031 . S
Mg437 O461 2.291 . S
Mg438 O439 1.963 . S
Mg438 O449 1.942 . S
Mg438 O450 1.955 . S
Mg438 O457 1.986 . S
O439 Mg437 1.936 . S
O439 Mg438 1.963 . S
O439 Mg440 1.915 . S
Mg440 O439 1.915 . S
Mg440 O441 1.915 . S
Mg440 O445 2.013 . S
Mg440 O451 2.114 . S
Mg440 O455 2.013 . S
Mg440 O461 2.114 . S
O441 Mg440 1.915 . S
O441 Mg442 1.936 . S
O441 Mg443 1.963 . S
Mg442 O441 1.936 . S
Mg442 O451 2.291 . S
Mg442 O456 2.081 . S
Mg442 O458 2.023 . S
Mg442 O462 2.031 . S
Mg443 O441 1.963 . S
Mg443 O447 1.986 . S
Mg443 O459 1.942 . S
Mg443 O460 1.955 . S
C444 O455 1.191 . S
C444 O457 1.307 . S
O445 Mg440 2.013 . S
O445 C464 1.191 . S
O446 Mg437 2.081 . S
O446 C454 1.331 . S
O447 Mg443 1.986 . S
O447 C464 1.307 . S
O448 Mg437 2.023 . S
O448 C463 1.264 . S
O449 Mg438 1.942 . S
O449 C454 1.244 . S
O450 Mg438 1.955 . S
O450 C463 1.273 . S
O451 Mg440 2.114 . S
O451 Mg442 2.291 . S
O451 C453 1.312 . S
O452 Mg437 2.031 . S
O452 C453 1.208 . S
C453 O451 1.312 . S
C453 O452 1.208 . S
C454 O446 1.331 . S
C454 O449 1.244 . S
O455 Mg440 2.013 . S
O455 C444 1.191 . S
O456 C435 1.331 . S
O456 Mg442 2.081 . S
O457 Mg438 1.986 . S
O457 C444 1.307 . S
O458 C436 1.264 . S
O458 Mg442 2.023 . S
O459 C435 1.244 . S
O459 Mg443 1.942 . S
O460 C436 1.273 . S
O460 Mg443 1.955 . S
O461 C434 1.312 . S
O461 Mg437 2.291 . S
O461 Mg440 2.114 . S
O462 C434 1.208 . S
O462 Mg442 2.031 . S
C463 O448 1.264 . S
C463 O450 1.273 . S
C464 O445 1.191 . S
C464 O447 1.307 . S
C465 O492 1.312 . S
C465 O493 1.208 1_554 S
C466 O487 1.331 . S
C466 O490 1.244 . S
C467 O489 1.264 . S
C467 O491 1.273 . S
Mg468 O470 1.936 1_554 S
Mg468 O477 2.081 1_554 S
Mg468 O479 2.023 . S
Mg468 O483 2.031 1_554 S
Mg468 O492 2.291 . S
Mg469 O470 1.963 . S
Mg469 O480 1.942 . S
Mg469 O481 1.955 1_556 S
Mg469 O488 1.986 . S
O470 Mg468 1.936 1_556 S
O470 Mg469 1.963 . S
O470 Mg471 1.915 . S
Mg471 O470 1.915 . S
Mg471 O472 1.915 . S
Mg471 O476 2.013 . S
Mg471 O482 2.114 . S
Mg471 O486 2.013 . S
Mg471 O492 2.114 1_556 S
O472 Mg471 1.915 . S
O472 Mg473 1.936 . S
O472 Mg474 1.963 . S
Mg473 O472 1.936 . S
Mg473 O482 2.291 . S
Mg473 O487 2.081 . S
Mg473 O489 2.023 . S
Mg473 O493 2.031 . S
Mg474 O472 1.963 . S
Mg474 O478 1.986 . S
Mg474 O490 1.942 . S
Mg474 O491 1.955 . S
C475 O486 1.191 . S
C475 O488 1.307 . S
O476 Mg471 2.013 . S
O476 C495 1.191 . S
O477 Mg468 2.081 1_556 S
O477 C485 1.332 . S
O478 Mg474 1.986 . S
O478 C495 1.307 . S
O479 Mg468 2.023 . S
O479 C494 1.264 . S
O480 Mg469 1.942 . S
O480 C485 1.244 . S
O481 Mg469 1.955 1_554 S
O481 C494 1.273 . S
O482 Mg471 2.114 . S
O482 Mg473 2.291 . S
O482 C484 1.312 . S
O483 Mg468 2.031 1_556 S
O483 C484 1.208 . S
C484 O482 1.312 . S
C484 O483 1.208 . S
C485 O477 1.332 . S
C485 O480 1.244 . S
O486 Mg471 2.013 . S
O486 C475 1.191 . S
O487 C466 1.331 . S
O487 Mg473 2.081 . S
O488 Mg469 1.986 . S
O488 C475 1.307 . S
O489 C467 1.264 . S
O489 Mg473 2.023 . S
O490 C466 1.244 . S
O490 Mg474 1.942 . S
O491 C467 1.273 . S
O491 Mg474 1.955 . S
O492 C465 1.312 . S
O492 Mg468 2.291 . S
O492 Mg471 2.114 1_554 S
O493 C465 1.208 1_556 S
O493 Mg473 2.031 . S
C494 O479 1.264 . S
C494 O481 1.273 . S
C495 O476 1.191 . S
C495 O478 1.307 . S
C496 O523 1.312 . S
C496 O524 1.208 . S
C497 O518 1.331 . S
C497 O521 1.244 . S
C498 O520 1.264 . S
C498 O522 1.273 . S
Mg499 O501 1.936 . S
Mg499 O508 2.081 . S
Mg499 O510 2.023 . S
Mg499 O514 2.031 . S
Mg499 O523 2.291 . S
Mg500 O501 1.963 . S
Mg500 O511 1.942 . S
Mg500 O512 1.955 . S
Mg500 O519 1.986 . S
O501 Mg499 1.936 . S
O501 Mg500 1.963 . S
O501 Mg502 1.915 . S
Mg502 O501 1.915 . S
Mg502 O503 1.915 . S
Mg502 O507 2.013 . S
Mg502 O513 2.114 . S
Mg502 O517 2.013 1_556 S
Mg502 O523 2.114 . S
O503 Mg502 1.915 . S
O503 Mg504 1.936 . S
O503 Mg505 1.963 1_556 S
Mg504 O503 1.936 . S
Mg504 O513 2.291 . S
Mg504 O518 2.081 . S
Mg504 O520 2.023 1_556 S
Mg504 O524 2.031 . S
Mg505 O503 1.963 1_554 S
Mg505 O509 1.986 1_554 S
Mg505 O521 1.942 1_554 S
Mg505 O522 1.955 . S
C506 O517 1.191 . S
C506 O519 1.307 1_554 S
O507 Mg502 2.013 . S
O507 C526 1.191 . S
O508 Mg499 2.081 . S
O508 C516 1.331 . S
O509 Mg505 1.986 1_556 S
O509 C526 1.307 . S
O510 Mg499 2.023 . S
O510 C525 1.264 . S
O511 Mg500 1.942 . S
O511 C516 1.244 . S
O512 Mg500 1.955 . S
O512 C525 1.273 . S
O513 Mg502 2.114 . S
O513 Mg504 2.291 . S
O513 C515 1.312 . S
O514 Mg499 2.031 . S
O514 C515 1.208 . S
C515 O513 1.312 . S
C515 O514 1.208 . S
C516 O508 1.331 . S
C516 O511 1.244 . S
O517 Mg502 2.013 1_554 S
O517 C506 1.191 . S
O518 C497 1.331 . S
O518 Mg504 2.081 . S
O519 Mg500 1.986 . S
O519 C506 1.307 1_556 S
O520 C498 1.264 . S
O520 Mg504 2.023 1_554 S
O521 C497 1.244 . S
O521 Mg505 1.942 1_556 S
O522 C498 1.273 . S
O522 Mg505 1.955 . S
O523 C496 1.312 . S
O523 Mg499 2.291 . S
O523 Mg502 2.114 . S
O524 C496 1.208 . S
O524 Mg504 2.031 . S
C525 O510 1.264 . S
C525 O512 1.273 . S
C526 O507 1.191 . S
C526 O509 1.307 . S
C527 O554 1.312 . S
C527 O555 1.208 . S
C528 O549 1.331 . S
C528 O552 1.244 . S
C529 O551 1.264 . S
C529 O553 1.273 . S
Mg530 O532 1.936 . S
Mg530 O539 2.081 . S
Mg530 O541 2.023 . S
Mg530 O545 2.031 . S
Mg530 O554 2.291 . S
Mg531 O532 1.963 . S
Mg531 O542 1.942 . S
Mg531 O543 1.955 . S
Mg531 O550 1.986 . S
O532 Mg530 1.936 . S
O532 Mg531 1.963 . S
O532 Mg533 1.915 . S
Mg533 O532 1.915 . S
Mg533 O534 1.915 . S
Mg533 O538 2.013 . S
Mg533 O544 2.114 1_556 S
Mg533 O548 2.013 . S
Mg533 O554 2.114 . S
O534 Mg533 1.915 . S
O534 Mg535 1.936 1_556 S
O534 Mg536 1.963 . S
Mg535 O534 1.936 1_554 S
Mg535 O544 2.291 . S
Mg535 O549 2.081 1_554 S
Mg535 O551 2.023 . S
Mg535 O555 2.031 1_554 S
Mg536 O534 1.963 . S
Mg536 O540 1.986 . S
Mg536 O552 1.942 . S
Mg536 O553 1.955 1_556 S
C537 O548 1.191 . S
C537 O550 1.307 . S
O538 Mg533 2.013 . S
O538 C557 1.191 . S
O539 Mg530 2.081 . S
O539 C547 1.331 . S
O540 Mg536 1.986 . S
O540 C557 1.307 . S
O541 Mg530 2.023 . S
O541 C556 1.264 . S
O542 Mg531 1.942 . S
O542 C547 1.244 . S
O543 Mg531 1.955 . S
O543 C556 1.273 . S
O544 Mg533 2.114 1_554 S
O544 Mg535 2.291 . S
O544 C546 1.312 . S
O545 Mg530 2.031 . S
O545 C546 1.208 1_556 S
C546 O544 1.312 . S
C546 O545 1.208 1_554 S
C547 O539 1.331 . S
C547 O542 1.244 . S
O548 Mg533 2.013 . S
O548 C537 1.191 . S
O549 C528 1.331 . S
O549 Mg535 2.081 1_556 S
O550 Mg531 1.986 . S
O550 C537 1.307 . S
O551 C529 1.264 . S
O551 Mg535 2.023 . S
O552 C528 1.244 . S
O552 Mg536 1.942 . S
O553 C529 1.273 . S
O553 Mg536 1.955 1_554 S
O554 C527 1.312 . S
O554 Mg530 2.291 . S
O554 Mg533 2.114 . S
O555 C527 1.208 . S
O555 Mg535 2.031 1_556 S
C556 O541 1.264 . S
C556 O543 1.273 . S
C557 O538 1.191 . S
C557 O540 1.307 . S
C558 C559 1.387 . S
C558 H562 0.950 . S
C558 C567 1.390 . S
C559 C558 1.387 . S
C559 C561 1.387 . S
H560 C567 0.950 . S
C561 C559 1.387 . S
C561 C563 1.390 . S
C561 H565 0.950 . S
H562 C558 0.950 . S
C563 C561 1.390 . S
C563 C564 1.387 . S
C563 H566 0.950 . S
C564 C563 1.387 . S
C564 C567 1.387 . S
H565 C561 0.950 . S
H566 C563 0.950 . S
C567 C558 1.390 . S
C567 H560 0.950 . S
C567 C564 1.387 . S
C568 C569 1.387 . S
C568 H572 0.950 . S
C568 C577 1.390 1_545 S
C569 C568 1.387 . S
C569 C571 1.387 . S
H570 C577 0.950 . S
C571 C569 1.387 . S
C571 C573 1.390 . S
C571 H575 0.950 . S
H572 C568 0.950 . S
C573 C571 1.390 . S
C573 C574 1.387 1_545 S
C573 H576 0.950 1_545 S
C574 C573 1.387 1_565 S
C574 C577 1.387 . S
H575 C571 0.950 . S
H576 C573 0.950 1_565 S
C577 C568 1.390 1_565 S
C577 H570 0.950 . S
C577 C574 1.387 . S
C578 C579 1.387 . S
C578 H582 0.950 . S
C578 C587 1.390 . S
C579 C578 1.387 . S
C579 C581 1.387 . S
H580 C587 0.950 . S
C581 C579 1.387 . S
C581 C583 1.390 . S
C581 H585 0.950 . S
H582 C578 0.950 . S
C583 C581 1.390 . S
C583 C584 1.387 . S
C583 H586 0.950 . S
C584 C583 1.387 . S
C584 C587 1.387 . S
H585 C581 0.950 . S
H586 C583 0.950 . S
C587 C578 1.390 . S
C587 H580 0.950 . S
C587 C584 1.387 . S
C588 C589 1.387 . S
C588 H592 0.950 . S
C588 C597 1.390 . S
C589 C588 1.387 . S
C589 C591 1.387 . S
H590 C597 0.950 . S
C591 C589 1.387 . S
C591 C593 1.390 . S
C591 H595 0.950 . S
H592 C588 0.950 . S
C593 C591 1.390 . S
C593 C594 1.387 . S
C593 H596 0.950 . S
C594 C593 1.387 . S
C594 C597 1.387 . S
H595 C591 0.950 . S
H596 C593 0.950 . S
C597 C588 1.390 . S
C597 H590 0.950 . S
C597 C594 1.387 . S
C598 C599 1.387 . S
C598 H602 0.950 . S
C598 C607 1.390 . S
C599 C598 1.387 . S
C599 C601 1.387 . S
H600 C607 0.950 . S
C601 C599 1.387 . S
C601 C603 1.390 1_545 S
C601 H605 0.950 . S
H602 C598 0.950 . S
C603 C601 1.390 1_565 S
C603 C604 1.387 . S
C603 H606 0.950 . S
C604 C603 1.387 . S
C604 C607 1.387 1_565 S
H605 C601 0.950 . S
H606 C603 0.950 . S
C607 C598 1.390 . S
C607 H600 0.950 . S
C607 C604 1.387 1_545 S
C608 C609 1.387 . S
C608 H612 0.950 . S
C608 C617 1.390 1_455 S
C609 C608 1.387 . S
C609 C611 1.387 . S
H610 C617 0.950 . S
C611 C609 1.387 . S
C611 C613 1.390 1_455 S
C611 H615 0.950 . S
H612 C608 0.950 . S
C613 C611 1.390 1_655 S
C613 C614 1.387 . S
C613 H616 0.950 . S
C614 C613 1.387 . S
C614 C617 1.387 . S
H615 C611 0.950 . S
H616 C613 0.950 . S
C617 C608 1.390 1_655 S
C617 H610 0.950 . S
C617 C614 1.387 . S
C618 C619 1.387 . S
C618 H622 0.950 . S
C618 C627 1.390 . S
C619 C618 1.387 . S
C619 C621 1.387 . S
H620 C627 0.950 . S
C621 C619 1.387 . S
C621 C623 1.390 . S
C621 H625 0.950 . S
H622 C618 0.950 . S
C623 C621 1.390 . S
C623 C624 1.387 . S
C623 H626 0.950 . S
C624 C623 1.387 . S
C624 C627 1.387 . S
H625 C621 0.950 . S
H626 C623 0.950 . S
C627 C618 1.390 . S
C627 H620 0.950 . S
C627 C624 1.387 . S
C628 C629 1.387 . S
C628 H632 0.950 . S
C628 C637 1.390 . S
C629 C628 1.387 . S
C629 C631 1.387 . S
H630 C637 0.950 . S
C631 C629 1.387 . S
C631 C633 1.390 . S
C631 H635 0.950 . S
H632 C628 0.950 . S
C633 C631 1.390 . S
C633 C634 1.387 . S
C633 H636 0.950 . S
C634 C633 1.387 . S
C634 C637 1.387 . S
H635 C631 0.950 . S
H636 C633 0.950 . S
C637 C628 1.390 . S
C637 H630 0.950 . S
C637 C634 1.387 . S
C638 C639 1.387 . S
C638 H642 0.950 . S
C638 C647 1.390 . S
C639 C638 1.387 . S
C639 C641 1.387 . S
H640 C647 0.950 . S
C641 C639 1.387 . S
C641 C643 1.390 . S
C641 H645 0.950 1_554 S
H642 C638 0.950 . S
C643 C641 1.390 . S
C643 C644 1.387 . S
C643 H646 0.950 . S
C644 C643 1.387 . S
C644 C647 1.387 . S
H645 C641 0.950 1_556 S
H646 C643 0.950 . S
C647 C638 1.390 . S
C647 H640 0.950 . S
C647 C644 1.387 . S
C648 C649 1.387 . S
C648 H652 0.950 . S
C648 C657 1.390 . S
C649 C648 1.387 . S
C649 C651 1.387 . S
H650 C657 0.950 . S
C651 C649 1.387 . S
C651 C653 1.390 . S
C651 H655 0.950 . S
H652 C648 0.950 . S
C653 C651 1.390 . S
C653 C654 1.387 . S
C653 H656 0.950 . S
C654 C653 1.387 . S
C654 C657 1.387 . S
H655 C651 0.950 . S
H656 C653 0.950 . S
C657 C648 1.390 . S
C657 H650 0.950 . S
C657 C654 1.387 . S
C658 C659 1.387 . S
C658 H662 0.950 . S
C658 C667 1.390 . S
C659 C658 1.387 . S
C659 C661 1.387 . S
H660 C667 0.950 . S
C661 C659 1.387 . S
C661 C663 1.390 . S
C661 H665 0.950 . S
H662 C658 0.950 . S
C663 C661 1.390 . S
C663 C664 1.387 . S
C663 H666 0.950 . S
C664 C663 1.387 . S
C664 C667 1.387 . S
H665 C661 0.950 . S
H666 C663 0.950 . S
C667 C658 1.390 . S
C667 H660 0.950 . S
C667 C664 1.387 . S
C668 C669 1.387 . S
C668 H672 0.950 . S
C668 C677 1.390 . S
C669 C668 1.387 . S
C669 C671 1.387 . S
H670 C677 0.950 . S
C671 C669 1.387 . S
C671 C673 1.390 . S
C671 H675 0.950 . S
H672 C668 0.950 . S
C673 C671 1.390 . S
C673 C674 1.387 . S
C673 H676 0.950 . S
C674 C673 1.387 . S
C674 C677 1.387 . S
H675 C671 0.950 . S
H676 C673 0.950 . S
C677 C668 1.390 . S
C677 H670 0.950 . S
C677 C674 1.387 . S
C678 C679 1.387 . S
C678 H682 0.950 . S
C678 C687 1.390 . S
C679 C678 1.387 . S
C679 C681 1.387 . S
H680 C687 0.950 . S
C681 C679 1.387 . S
C681 C683 1.390 . S
C681 H685 0.950 . S
H682 C678 0.950 . S
C683 C681 1.390 . S
C683 C684 1.387 . S
C683 H686 0.950 . S
C684 C683 1.387 . S
C684 C687 1.387 . S
H685 C681 0.950 . S
H686 C683 0.950 . S
C687 C678 1.390 . S
C687 H680 0.950 . S
C687 C684 1.387 . S
C688 C689 1.387 . S
C688 H692 0.950 . S
C688 C697 1.390 . S
C689 C688 1.387 . S
C689 C691 1.387 . S
H690 C697 0.950 . S
C691 C689 1.387 . S
C691 C693 1.390 . S
C691 H695 0.950 . S
H692 C688 0.950 . S
C693 C691 1.390 . S
C693 C694 1.387 . S
C693 H696 0.950 . S
C694 C693 1.387 . S
C694 C697 1.387 . S
H695 C691 0.950 . S
H696 C693 0.950 . S
C697 C688 1.390 . S
C697 H690 0.950 . S
C697 C694 1.387 . S
C698 C699 1.387 . S
C698 H702 0.950 . S
C698 C707 1.390 . S
C699 C698 1.387 . S
C699 C701 1.387 . S
H700 C707 0.950 . S
C701 C699 1.387 . S
C701 C703 1.390 . S
C701 H705 0.950 . S
H702 C698 0.950 . S
C703 C701 1.390 . S
C703 C704 1.387 . S
C703 H706 0.950 . S
C704 C703 1.387 . S
C704 C707 1.387 . S
H705 C701 0.950 . S
H706 C703 0.950 . S
C707 C698 1.390 . S
C707 H700 0.950 . S
C707 C704 1.387 . S
C708 C709 1.387 . S
C708 H712 0.950 1_556 S
C708 C717 1.390 . S
C709 C708 1.387 . S
C709 C711 1.387 . S
H710 C717 0.950 . S
C711 C709 1.387 . S
C711 C713 1.390 . S
C711 H715 0.950 . S
H712 C708 0.950 1_554 S
C713 C711 1.390 . S
C713 C714 1.387 . S
C713 H716 0.950 . S
C714 C713 1.387 . S
C714 C717 1.387 . S
H715 C711 0.950 . S
H716 C713 0.950 . S
C717 C708 1.390 . S
C717 H710 0.950 . S
C717 C714 1.387 . S
C718 C719 1.387 . S
C718 H722 0.950 . S
C718 C727 1.390 . S
C719 C718 1.387 . S
C719 C721 1.387 . S
H720 C727 0.950 1_554 S
C721 C719 1.387 . S
C721 C723 1.390 . S
C721 H725 0.950 . S
H722 C718 0.950 . S
C723 C721 1.390 . S
C723 C724 1.387 . S
C723 H726 0.950 . S
C724 C723 1.387 . S
C724 C727 1.387 . S
H725 C721 0.950 . S
H726 C723 0.950 . S
C727 C718 1.390 . S
C727 H720 0.950 1_556 S
C727 C724 1.387 . S
C728 C729 1.387 . S
C728 H732 0.950 . S
C728 C737 1.390 . S
C729 C728 1.387 . S
C729 C731 1.387 . S
H730 C737 0.950 . S
C731 C729 1.387 . S
C731 C733 1.390 . S
C731 H735 0.950 . S
H732 C728 0.950 . S
C733 C731 1.390 . S
C733 C734 1.387 . S
C733 H736 0.950 1_556 S
C734 C733 1.387 . S
C734 C737 1.387 . S
H735 C731 0.950 . S
H736 C733 0.950 1_554 S
C737 C728 1.390 . S
C737 H730 0.950 . S
C737 C734 1.387 . S
C738 C739 1.387 . S
C738 H742 0.950 . S
C738 C747 1.390 . S
C739 C738 1.387 . S
C739 C741 1.387 . S
H740 C747 0.950 . S
C741 C739 1.387 . S
C741 C743 1.390 . S
C741 H745 0.950 . S
H742 C738 0.950 . S
C743 C741 1.390 . S
C743 C744 1.387 . S
C743 H746 0.950 . S
C744 C743 1.387 . S
C744 C747 1.387 . S
H745 C741 0.950 . S
H746 C743 0.950 . S
C747 C738 1.390 . S
C747 H740 0.950 . S
C747 C744 1.387 . S
C748 C749 1.387 . S
C748 H752 0.950 . S
C748 C757 1.390 . S
C749 C748 1.387 . S
C749 C751 1.387 . S
H750 C757 0.950 . S
C751 C749 1.387 . S
C751 C753 1.390 . S
C751 H755 0.950 . S
H752 C748 0.950 . S
C753 C751 1.390 . S
C753 C754 1.387 . S
C753 H756 0.950 . S
C754 C753 1.387 . S
C754 C757 1.387 . S
H755 C751 0.950 . S
H756 C753 0.950 . S
C757 C748 1.390 . S
C757 H750 0.950 . S
C757 C754 1.387 . S
C758 C759 1.387 . S
C758 H762 0.950 . S
C758 C767 1.390 . S
C759 C758 1.387 . S
C759 C761 1.387 . S
H760 C767 0.950 1_455 S
C761 C759 1.387 . S
C761 C763 1.390 . S
C761 H765 0.950 . S
H762 C758 0.950 . S
C763 C761 1.390 . S
C763 C764 1.387 . S
C763 H766 0.950 . S
C764 C763 1.387 . S
C764 C767 1.387 . S
H765 C761 0.950 . S
H766 C763 0.950 . S
C767 C758 1.390 . S
C767 H760 0.950 1_655 S
C767 C764 1.387 . S
C768 C769 1.387 . S
C768 H772 0.950 . S
C768 C777 1.390 . S
C769 C768 1.387 . S
C769 C771 1.387 . S
H770 C777 0.950 . S
C771 C769 1.387 . S
C771 C773 1.390 . S
C771 H775 0.950 . S
H772 C768 0.950 . S
C773 C771 1.390 . S
C773 C774 1.387 . S
C773 H776 0.950 . S
C774 C773 1.387 . S
C774 C777 1.387 . S
H775 C771 0.950 . S
H776 C773 0.950 . S
C777 C768 1.390 . S
C777 H770 0.950 . S
C777 C774 1.387 . S
C778 C779 1.387 1_554 S
C778 H782 0.950 . S
C778 C787 1.390 1_554 S
C779 C778 1.387 1_556 S
C779 C781 1.387 . S
H780 C787 0.946 1_554 S
C781 C779 1.387 . S
C781 C783 1.390 . S
C781 H785 0.950 . S
H782 C778 0.950 . S
C783 C781 1.390 . S
C783 C784 1.387 . S
C783 H786 0.950 . S
C784 C783 1.387 . S
C784 C787 1.387 . S
H785 C781 0.950 . S
H786 C783 0.950 . S
C787 C778 1.390 1_556 S
C787 H780 0.946 1_556 S
C787 C784 1.387 . S
C788 C789 1.387 . S
C788 H792 0.950 . S
C788 C797 1.390 1_556 S
C789 C788 1.387 . S
C789 C791 1.387 . S
H790 C797 0.950 . S
C791 C789 1.387 . S
C791 C793 1.390 . S
C791 H795 0.950 . S
H792 C788 0.950 . S
C793 C791 1.390 . S
C793 C794 1.387 1_556 S
C793 H796 0.950 . S
C794 C793 1.387 1_554 S
C794 C797 1.387 . S
H795 C791 0.950 . S
H796 C793 0.950 . S
C797 C788 1.390 1_554 S
C797 H790 0.950 . S
C797 C794 1.387 . S
C798 C799 1.387 . S
C798 H802 0.950 . S
C798 C807 1.390 . S
C799 C798 1.387 . S
C799 C801 1.387 . S
H800 C807 0.950 . S
C801 C799 1.387 . S
C801 C803 1.390 . S
C801 H805 0.950 . S
H802 C798 0.950 . S
C803 C801 1.390 . S
C803 C804 1.387 . S
C803 H806 0.950 . S
C804 C803 1.387 . S
C804 C807 1.387 . S
H805 C801 0.950 . S
H806 C803 0.950 . S
C807 C798 1.390 . S
C807 H800 0.950 . S
C807 C804 1.387 . S
C808 C809 1.387 . S
C808 H812 0.950 . S
C808 C817 1.390 . S
C809 C808 1.387 . S
C809 C811 1.387 . S
H810 C817 0.950 . S
C811 C809 1.387 . S
C811 C813 1.390 . S
C811 H815 0.950 . S
H812 C808 0.950 . S
C813 C811 1.390 . S
C813 C814 1.387 . S
C813 H816 0.950 . S
C814 C813 1.387 . S
C814 C817 1.387 . S
H815 C811 0.950 . S
H816 C813 0.950 . S
C817 C808 1.390 . S
C817 H810 0.950 . S
C817 C814 1.387 . S
C818 C819 1.387 . S
C818 H822 0.950 . S
C818 C827 1.390 . S
C819 C818 1.387 . S
C819 C821 1.387 . S
H820 C827 0.950 . S
C821 C819 1.387 . S
C821 C823 1.390 . S
C821 H825 0.950 . S
H822 C818 0.950 . S
C823 C821 1.390 . S
C823 C824 1.387 . S
C823 H826 0.950 . S
C824 C823 1.387 . S
C824 C827 1.387 . S
H825 C821 0.950 . S
H826 C823 0.950 . S
C827 C818 1.390 . S
C827 H820 0.950 . S
C827 C824 1.387 . S
C828 C829 1.387 . S
C828 H832 0.950 1_655 S
C828 C837 1.390 . S
C829 C828 1.387 . S
C829 C831 1.387 . S
H830 C837 0.950 . S
C831 C829 1.387 . S
C831 C833 1.394 . S
C831 H835 0.950 . S
H832 C828 0.950 1_455 S
C833 C831 1.394 . S
C833 C834 1.387 1_554 S
C833 H836 0.947 1_554 S
C834 C833 1.387 1_556 S
C834 C837 1.387 1_556 S
H835 C831 0.950 . S
H836 C833 0.947 1_556 S
C837 C828 1.390 . S
C837 H830 0.950 . S
C837 C834 1.387 1_554 S
C838 C839 1.387 . S
C838 H842 0.950 . S
C838 C847 1.390 . S
C839 C838 1.387 . S
C839 C841 1.387 . S
H840 C847 0.950 1_556 S
C841 C839 1.387 . S
C841 C843 1.390 . S
C841 H845 0.950 . S
H842 C838 0.950 . S
C843 C841 1.390 . S
C843 C844 1.387 1_554 S
C843 H846 0.950 . S
C844 C843 1.387 1_556 S
C844 C847 1.387 1_556 S
H845 C841 0.950 . S
H846 C843 0.950 . S
C847 C838 1.390 . S
C847 H840 0.950 1_554 S
C847 C844 1.387 1_554 S
C848 C849 1.387 . S
C848 H852 0.950 . S
C848 C857 1.390 . S
C849 C848 1.387 . S
C849 C851 1.387 1_556 S
H850 C857 0.950 . S
C851 C849 1.387 1_554 S
C851 C853 1.390 . S
C851 H855 0.950 . S
H852 C848 0.950 . S
C853 C851 1.390 . S
C853 C854 1.387 . S
C853 H856 0.950 . S
C854 C853 1.387 . S
C854 C857 1.387 1_554 S
H855 C851 0.950 . S
H856 C853 0.950 . S
C857 C848 1.390 . S
C857 H850 0.950 . S
C857 C854 1.387 1_556 S
C858 C859 1.387 . S
C858 H862 0.950 . S
C858 C867 1.390 . S
C859 C858 1.387 . S
C859 C861 1.387 . S
H860 C867 0.950 . S
C861 C859 1.387 . S
C861 C863 1.390 . S
C861 H865 0.950 . S
H862 C858 0.950 . S
C863 C861 1.390 . S
C863 C864 1.387 . S
C863 H866 0.950 . S
C864 C863 1.387 . S
C864 C867 1.387 . S
H865 C861 0.950 . S
H866 C863 0.950 . S
C867 C858 1.390 . S
C867 H860 0.950 . S
C867 C864 1.387 . S
C868 C869 1.387 . S
C868 H872 0.950 . S
C868 C877 1.390 . S
C869 C868 1.387 . S
C869 C871 1.387 . S
H870 C877 0.950 1_554 S
C871 C869 1.387 . S
C871 C873 1.390 . S
C871 H875 0.950 . S
H872 C868 0.950 . S
C873 C871 1.390 . S
C873 C874 1.387 . S
C873 H876 0.950 . S
C874 C873 1.387 . S
C874 C877 1.387 . S
H875 C871 0.950 . S
H876 C873 0.950 . S
C877 C868 1.390 . S
C877 H870 0.950 1_556 S
C877 C874 1.387 . S
C878 C879 1.387 . S
C878 H882 0.950 . S
C878 C887 1.390 . S
C879 C878 1.387 . S
C879 C881 1.387 . S
H880 C887 0.950 . S
C881 C879 1.387 . S
C881 C883 1.390 . S
C881 H885 0.950 . S
H882 C878 0.950 . S
C883 C881 1.390 . S
C883 C884 1.387 . S
C883 H886 0.950 . S
C884 C883 1.387 . S
C884 C887 1.387 . S
H885 C881 0.950 . S
H886 C883 0.950 . S
C887 C878 1.390 . S
C887 H880 0.950 . S
C887 C884 1.387 . S
C888 C889 1.387 . S
C888 H892 0.950 . S
C888 C897 1.390 . S
C889 C888 1.387 . S
C889 C891 1.387 . S
H890 C897 0.950 . S
C891 C889 1.387 . S
C891 C893 1.390 . S
C891 H895 0.950 . S
H892 C888 0.950 . S
C893 C891 1.390 . S
C893 C894 1.387 . S
C893 H896 0.950 . S
C894 C893 1.387 . S
C894 C897 1.387 . S
H895 C891 0.950 . S
H896 C893 0.950 . S
C897 C888 1.390 . S
C897 H890 0.950 . S
C897 C894 1.387 . S
C898 C899 1.387 . S
C898 H902 0.950 . S
C898 C907 1.390 . S
C899 C898 1.387 . S
C899 C901 1.387 . S
H900 C907 0.950 . S
C901 C899 1.387 . S
C901 C903 1.390 . S
C901 H905 0.950 . S
H902 C898 0.950 . S
C903 C901 1.390 . S
C903 C904 1.387 . S
C903 H906 0.950 . S
C904 C903 1.387 . S
C904 C907 1.387 . S
H905 C901 0.950 . S
H906 C903 0.950 . S
C907 C898 1.390 . S
C907 H900 0.950 . S
C907 C904 1.387 . S
C908 C909 1.387 . S
C908 H912 0.950 . S
C908 C917 1.390 . S
C909 C908 1.387 . S
C909 C911 1.387 . S
H910 C917 0.950 . S
C911 C909 1.387 . S
C911 C913 1.390 . S
C911 H915 0.950 . S
H912 C908 0.950 . S
C913 C911 1.390 . S
C913 C914 1.387 . S
C913 H916 0.950 . S
C914 C913 1.387 . S
C914 C917 1.387 . S
H915 C911 0.950 . S
H916 C913 0.950 . S
C917 C908 1.390 . S
C917 H910 0.950 . S
C917 C914 1.387 . S
C918 C919 1.387 . S
C918 H922 0.950 . S
C918 C927 1.390 . S
C919 C918 1.387 . S
C919 C921 1.387 . S
H920 C927 0.950 . S
C921 C919 1.387 . S
C921 C923 1.390 . S
C921 H925 0.950 . S
H922 C918 0.950 . S
C923 C921 1.390 . S
C923 C924 1.387 . S
C923 H926 0.950 . S
C924 C923 1.387 . S
C924 C927 1.387 . S
H925 C921 0.950 . S
H926 C923 0.950 . S
C927 C918 1.390 . S
C927 H920 0.950 . S
C927 C924 1.387 . S
C928 C929 1.387 . S
C928 H932 0.950 . S
C928 C937 1.390 . S
C929 C928 1.387 . S
C929 C931 1.387 . S
H930 C937 0.950 . S
C931 C929 1.387 . S
C931 C933 1.390 . S
C931 H935 0.950 . S
H932 C928 0.950 . S
C933 C931 1.390 . S
C933 C934 1.387 . S
C933 H936 0.950 . S
C934 C933 1.387 . S
C934 C937 1.387 . S
H935 C931 0.950 . S
H936 C933 0.950 . S
C937 C928 1.390 . S
C937 H930 0.950 . S
C937 C934 1.387 . S
C938 C939 1.387 . S
C938 H942 0.950 . S
C938 C947 1.390 . S
C939 C938 1.387 . S
C939 C941 1.387 . S
H940 C947 0.950 . S
C941 C939 1.387 . S
C941 C943 1.390 . S
C941 H945 0.950 . S
H942 C938 0.950 . S
C943 C941 1.390 . S
C943 C944 1.387 . S
C943 H946 0.950 . S
C944 C943 1.387 . S
C944 C947 1.387 . S
H945 C941 0.950 . S
H946 C943 0.950 . S
C947 C938 1.390 . S
C947 H940 0.950 . S
C947 C944 1.387 . S
C948 C949 1.387 . S
C948 H952 0.950 . S
C948 C957 1.390 . S
C949 C948 1.387 . S
C949 C951 1.387 . S
H950 C957 0.950 . S
C951 C949 1.387 . S
C951 C953 1.390 . S
C951 H955 0.950 . S
H952 C948 0.950 . S
C953 C951 1.390 . S
C953 C954 1.387 . S
C953 H956 0.950 . S
C954 C953 1.387 . S
C954 C957 1.387 . S
H955 C951 0.950 . S
H956 C953 0.950 . S
C957 C948 1.390 . S
C957 H950 0.950 . S
C957 C954 1.387 . S
C958 C959 1.387 . S
C958 H962 0.950 . S
C958 C967 1.390 . S
C959 C958 1.387 . S
C959 C961 1.387 . S
H960 C967 0.950 . S
C961 C959 1.387 . S
C961 C963 1.390 . S
C961 H965 0.950 . S
H962 C958 0.950 . S
C963 C961 1.390 . S
C963 C964 1.387 . S
C963 H966 0.950 . S
C964 C963 1.387 . S
C964 C967 1.387 . S
H965 C961 0.950 . S
H966 C963 0.950 . S
C967 C958 1.390 . S
C967 H960 0.950 . S
C967 C964 1.387 . S
C968 C969 1.387 . S
C968 H972 0.950 . S
C968 C977 1.390 . S
C969 C968 1.387 . S
C969 C971 1.387 . S
H970 C977 0.950 . S
C971 C969 1.387 . S
C971 C973 1.390 . S
C971 H975 0.950 . S
H972 C968 0.950 . S
C973 C971 1.390 . S
C973 C974 1.387 . S
C973 H976 0.950 . S
C974 C973 1.387 . S
C974 C977 1.387 . S
H975 C971 0.950 . S
H976 C973 0.950 . S
C977 C968 1.390 . S
C977 H970 0.950 . S
C977 C974 1.387 . S
C978 C979 1.387 . S
C978 H982 0.950 . S
C978 C987 1.390 . S
C979 C978 1.387 . S
C979 C981 1.387 . S
H980 C987 0.950 . S
C981 C979 1.387 . S
C981 C983 1.390 . S
C981 H985 0.950 . S
H982 C978 0.950 . S
C983 C981 1.390 . S
C983 C984 1.387 . S
C983 H986 0.950 . S
C984 C983 1.387 . S
C984 C987 1.387 . S
H985 C981 0.950 . S
H986 C983 0.950 . S
C987 C978 1.390 . S
C987 H980 0.950 . S
C987 C984 1.387 . S
C988 C989 1.387 . S
C988 H992 0.950 . S
C988 C997 1.390 . S
C989 C988 1.387 . S
C989 C991 1.387 . S
H990 C997 0.950 . S
C991 C989 1.387 . S
C991 C993 1.390 . S
C991 H995 0.950 . S
H992 C988 0.950 . S
C993 C991 1.390 . S
C993 C994 1.387 . S
C993 H996 0.950 . S
C994 C993 1.387 . S
C994 C997 1.387 . S
H995 C991 0.950 . S
H996 C993 0.950 . S
C997 C988 1.390 . S
C997 H990 0.950 . S
C997 C994 1.387 . S
C998 C999 1.387 . S
C998 H1002 0.950 . S
C998 C1007 1.390 . S
C999 C998 1.387 . S
C999 C1001 1.387 . S
H1000 C1007 0.950 . S
C1001 C999 1.387 . S
C1001 C1003 1.390 . S
C1001 H1005 0.950 . S
H1002 C998 0.950 . S
C1003 C1001 1.390 . S
C1003 C1004 1.387 . S
C1003 H1006 0.950 . S
C1004 C1003 1.387 . S
C1004 C1007 1.387 . S
H1005 C1001 0.950 . S
H1006 C1003 0.950 . S
C1007 C998 1.390 . S
C1007 H1000 0.950 . S
C1007 C1004 1.387 . S
C1008 C1009 1.387 . S
C1008 H1012 0.950 . S
C1008 C1017 1.390 . S
C1009 C1008 1.387 . S
C1009 C1011 1.387 . S
H1010 C1017 0.950 . S
C1011 C1009 1.387 . S
C1011 C1013 1.390 . S
C1011 H1015 0.950 . S
H1012 C1008 0.950 . S
C1013 C1011 1.390 . S
C1013 C1014 1.387 . S
C1013 H1016 0.950 . S
C1014 C1013 1.387 . S
C1014 C1017 1.387 . S
H1015 C1011 0.950 . S
H1016 C1013 0.950 . S
C1017 C1008 1.390 . S
C1017 H1010 0.950 . S
C1017 C1014 1.387 . S
C1018 C1019 1.387 . S
C1018 H1022 0.950 . S
C1018 C1027 1.390 . S
C1019 C1018 1.387 . S
C1019 C1021 1.387 . S
H1020 C1027 0.950 . S
C1021 C1019 1.387 . S
C1021 C1023 1.390 . S
C1021 H1025 0.950 . S
H1022 C1018 0.950 . S
C1023 C1021 1.390 . S
C1023 C1024 1.387 . S
C1023 H1026 0.950 . S
C1024 C1023 1.387 . S
C1024 C1027 1.387 . S
H1025 C1021 0.950 . S
H1026 C1023 0.950 . S
C1027 C1018 1.390 . S
C1027 H1020 0.950 . S
C1027 C1024 1.387 . S
C1028 C1029 1.387 . S
C1028 H1032 0.950 . S
C1028 C1037 1.390 . S
C1029 C1028 1.387 . S
C1029 C1031 1.387 . S
H1030 C1037 0.950 . S
C1031 C1029 1.387 . S
C1031 C1033 1.390 . S
C1031 H1035 0.950 . S
H1032 C1028 0.950 . S
C1033 C1031 1.390 . S
C1033 C1034 1.387 . S
C1033 H1036 0.950 . S
C1034 C1033 1.387 . S
C1034 C1037 1.387 . S
H1035 C1031 0.950 . S
H1036 C1033 0.950 . S
C1037 C1028 1.390 . S
C1037 H1030 0.950 . S
C1037 C1034 1.387 . S
C1038 C1039 1.387 . S
C1038 H1042 0.950 . S
C1038 C1047 1.390 . S
C1039 C1038 1.387 . S
C1039 C1041 1.387 . S
H1040 C1047 0.950 . S
C1041 C1039 1.387 . S
C1041 C1043 1.390 . S
C1041 H1045 0.950 . S
H1042 C1038 0.950 . S
C1043 C1041 1.390 . S
C1043 C1044 1.387 . S
C1043 H1046 0.950 . S
C1044 C1043 1.387 . S
C1044 C1047 1.387 . S
H1045 C1041 0.950 . S
H1046 C1043 0.950 . S
C1047 C1038 1.390 . S
C1047 H1040 0.950 . S
C1047 C1044 1.387 . S
C1048 C1049 1.387 . S
C1048 H1052 0.950 . S
C1048 C1057 1.390 . S
C1049 C1048 1.387 . S
C1049 C1051 1.387 . S
H1050 C1057 0.950 . S
C1051 C1049 1.387 . S
C1051 C1053 1.390 . S
C1051 H1055 0.950 . S
H1052 C1048 0.950 . S
C1053 C1051 1.390 . S
C1053 C1054 1.387 . S
C1053 H1056 0.950 . S
C1054 C1053 1.387 . S
C1054 C1057 1.387 . S
H1055 C1051 0.950 . S
H1056 C1053 0.950 . S
C1057 C1048 1.390 . S
C1057 H1050 0.950 . S
C1057 C1054 1.387 . S
C1058 C1059 1.387 . S
C1058 H1062 0.950 . S
C1058 C1067 1.390 . S
C1059 C1058 1.387 . S
C1059 C1061 1.387 . S
H1060 C1067 0.950 . S
C1061 C1059 1.387 . S
C1061 C1063 1.390 . S
C1061 H1065 0.950 . S
H1062 C1058 0.950 . S
C1063 C1061 1.390 . S
C1063 C1064 1.387 . S
C1063 H1066 0.950 . S
C1064 C1063 1.387 . S
C1064 C1067 1.387 . S
H1065 C1061 0.950 . S
H1066 C1063 0.950 . S
C1067 C1058 1.390 . S
C1067 H1060 0.950 . S
C1067 C1064 1.387 . S
C1068 C1069 1.387 . S
C1068 H1072 0.950 . S
C1068 C1077 1.390 . S
C1069 C1068 1.387 . S
C1069 C1071 1.387 . S
H1070 C1077 0.950 . S
C1071 C1069 1.387 . S
C1071 C1073 1.390 . S
C1071 H1075 0.950 . S
H1072 C1068 0.950 . S
C1073 C1071 1.390 . S
C1073 C1074 1.387 . S
C1073 H1076 0.950 . S
C1074 C1073 1.387 . S
C1074 C1077 1.387 . S
H1075 C1071 0.950 . S
H1076 C1073 0.950 . S
C1077 C1068 1.390 . S
C1077 H1070 0.950 . S
C1077 C1074 1.387 . S
C1078 C1079 1.387 . S
C1078 H1082 0.950 . S
C1078 C1087 1.390 . S
C1079 C1078 1.387 . S
C1079 C1081 1.387 . S
H1080 C1087 0.950 . S
C1081 C1079 1.387 . S
C1081 C1083 1.390 . S
C1081 H1085 0.950 . S
H1082 C1078 0.950 . S
C1083 C1081 1.390 . S
C1083 C1084 1.387 . S
C1083 H1086 0.950 . S
C1084 C1083 1.387 . S
C1084 C1087 1.387 . S
H1085 C1081 0.950 . S
H1086 C1083 0.950 . S
C1087 C1078 1.390 . S
C1087 H1080 0.950 . S
C1087 C1084 1.387 . S
C1088 C1089 1.387 . S
C1088 H1092 0.950 . S
C1088 C1097 1.390 . S
C1089 C1088 1.387 . S
C1089 C1091 1.387 . S
H1090 C1097 0.950 . S
C1091 C1089 1.387 . S
C1091 C1093 1.390 . S
C1091 H1095 0.950 . S
H1092 C1088 0.950 . S
C1093 C1091 1.390 . S
C1093 C1094 1.387 . S
C1093 H1096 0.950 . S
C1094 C1093 1.387 . S
C1094 C1097 1.387 . S
H1095 C1091 0.950 . S
H1096 C1093 0.950 . S
C1097 C1088 1.390 . S
C1097 H1090 0.950 . S
C1097 C1094 1.387 . S
C1098 C1099 1.387 . S
C1098 H1102 0.950 . S
C1098 C1107 1.390 . S
C1099 C1098 1.387 . S
C1099 C1101 1.387 . S
H1100 C1107 0.950 . S
C1101 C1099 1.387 . S
C1101 C1103 1.390 . S
C1101 H1105 0.950 . S
H1102 C1098 0.950 . S
C1103 C1101 1.390 . S
C1103 C1104 1.387 . S
C1103 H1106 0.950 . S
C1104 C1103 1.387 . S
C1104 C1107 1.387 . S
H1105 C1101 0.950 . S
H1106 C1103 0.950 . S
C1107 C1098 1.390 . S
C1107 H1100 0.950 . S
C1107 C1104 1.387 . S
C1108 C1109 1.387 . S
C1108 H1112 0.950 . S
C1108 C1117 1.390 . S
C1109 C1108 1.387 . S
C1109 C1111 1.387 . S
H1110 C1117 0.950 . S
C1111 C1109 1.387 . S
C1111 C1113 1.390 . S
C1111 H1115 0.950 . S
H1112 C1108 0.950 . S
C1113 C1111 1.390 . S
C1113 C1114 1.387 . S
C1113 H1116 0.950 . S
C1114 C1113 1.387 . S
C1114 C1117 1.387 . S
H1115 C1111 0.950 . S
H1116 C1113 0.950 . S
C1117 C1108 1.390 . S
C1117 H1110 0.950 . S
C1117 C1114 1.387 . S
C1118 C1119 1.387 . S
C1118 H1122 0.950 . S
C1118 C1127 1.390 . S
C1119 C1118 1.387 . S
C1119 C1121 1.387 . S
H1120 C1127 0.950 . S
C1121 C1119 1.387 . S
C1121 C1123 1.390 . S
C1121 H1125 0.950 . S
H1122 C1118 0.950 . S
C1123 C1121 1.390 . S
C1123 C1124 1.387 . S
C1123 H1126 0.950 . S
C1124 C1123 1.387 . S
C1124 C1127 1.387 . S
H1125 C1121 0.950 . S
H1126 C1123 0.950 . S
C1127 C1118 1.390 . S
C1127 H1120 0.950 . S
C1127 C1124 1.387 . S
C1128 C1129 1.387 . S
C1128 H1132 0.950 . S
C1128 C1137 1.390 . S
C1129 C1128 1.387 . S
C1129 C1131 1.387 . S
H1130 C1137 0.950 . S
C1131 C1129 1.387 . S
C1131 C1133 1.390 . S
C1131 H1135 0.950 . S
H1132 C1128 0.950 . S
C1133 C1131 1.390 . S
C1133 C1134 1.387 . S
C1133 H1136 0.950 . S
C1134 C1133 1.387 . S
C1134 C1137 1.387 . S
H1135 C1131 0.950 . S
H1136 C1133 0.950 . S
C1137 C1128 1.390 . S
C1137 H1130 0.950 . S
C1137 C1134 1.387 . S
C1138 C1139 1.387 . S
C1138 H1142 0.950 1_556 S
C1138 C1147 1.390 . S
C1139 C1138 1.387 . S
C1139 C1141 1.387 . S
H1140 C1147 0.950 . S
C1141 C1139 1.387 . S
C1141 C1143 1.390 . S
C1141 H1145 0.950 . S
H1142 C1138 0.950 1_554 S
C1143 C1141 1.390 . S
C1143 C1144 1.387 . S
C1143 H1146 0.950 . S
C1144 C1143 1.387 . S
C1144 C1147 1.387 . S
H1145 C1141 0.950 . S
H1146 C1143 0.950 . S
C1147 C1138 1.390 . S
C1147 H1140 0.950 . S
C1147 C1144 1.387 . S
C1148 C1149 1.387 . S
C1148 H1152 0.950 . S
C1148 C1157 1.390 . S
C1149 C1148 1.387 . S
C1149 C1151 1.387 . S
H1150 C1157 0.950 . S
C1151 C1149 1.387 . S
C1151 C1153 1.390 . S
C1151 H1155 0.950 . S
H1152 C1148 0.950 . S
C1153 C1151 1.390 . S
C1153 C1154 1.387 . S
C1153 H1156 0.950 . S
C1154 C1153 1.387 . S
C1154 C1157 1.387 . S
H1155 C1151 0.950 . S
H1156 C1153 0.950 . S
C1157 C1148 1.390 . S
C1157 H1150 0.950 . S
C1157 C1154 1.387 . S
C1158 C1159 1.387 . S
C1158 H1162 0.950 . S
C1158 C1167 1.390 . S
C1159 C1158 1.387 . S
C1159 C1161 1.387 . S
H1160 C1167 0.950 . S
C1161 C1159 1.387 . S
C1161 C1163 1.390 . S
C1161 H1165 0.950 . S
H1162 C1158 0.950 . S
C1163 C1161 1.390 . S
C1163 C1164 1.387 . S
C1163 H1166 0.950 . S
C1164 C1163 1.387 . S
C1164 C1167 1.387 . S
H1165 C1161 0.950 . S
H1166 C1163 0.950 . S
C1167 C1158 1.390 . S
C1167 H1160 0.950 . S
C1167 C1164 1.387 . S
C1168 C1169 1.387 . S
C1168 H1172 0.950 . S
C1168 C1177 1.390 . S
C1169 C1168 1.387 . S
C1169 C1171 1.387 1_655 S
H1170 C1177 0.950 . S
C1171 C1169 1.387 1_455 S
C1171 C1173 1.390 . S
C1171 H1175 0.950 . S
H1172 C1168 0.950 . S
C1173 C1171 1.390 . S
C1173 C1174 1.387 1_455 S
C1173 H1176 0.950 . S
C1174 C1173 1.387 1_655 S
C1174 C1177 1.387 . S
H1175 C1171 0.950 . S
H1176 C1173 0.950 . S
C1177 C1168 1.390 . S
C1177 H1170 0.950 . S
C1177 C1174 1.387 . S
C1178 C1179 1.387 . S
C1178 H1182 0.950 . S
C1178 C1187 1.390 . S
C1179 C1178 1.387 . S
C1179 C1181 1.387 . S
H1180 C1187 0.950 . S
C1181 C1179 1.387 . S
C1181 C1183 1.390 . S
C1181 H1185 0.950 . S
H1182 C1178 0.950 . S
C1183 C1181 1.390 . S
C1183 C1184 1.387 . S
C1183 H1186 0.950 . S
C1184 C1183 1.387 . S
C1184 C1187 1.387 . S
H1185 C1181 0.950 . S
H1186 C1183 0.950 . S
C1187 C1178 1.390 . S
C1187 H1180 0.950 . S
C1187 C1184 1.387 . S
C1188 C1189 1.387 . S
C1188 H1192 0.950 . S
C1188 C1197 1.390 . S
C1189 C1188 1.387 . S
C1189 C1191 1.387 . S
H1190 C1197 0.950 . S
C1191 C1189 1.387 . S
C1191 C1193 1.390 . S
C1191 H1195 0.950 . S
H1192 C1188 0.950 . S
C1193 C1191 1.390 . S
C1193 C1194 1.387 . S
C1193 H1196 0.950 1_554 S
C1194 C1193 1.387 . S
C1194 C1197 1.387 . S
H1195 C1191 0.950 . S
H1196 C1193 0.950 1_556 S
C1197 C1188 1.390 . S
C1197 H1190 0.950 . S
C1197 C1194 1.387 . S
C1198 C1199 1.387 . S
C1198 H1202 0.950 . S
C1198 C1207 1.390 . S
C1199 C1198 1.387 . S
C1199 C1201 1.387 . S
H1200 C1207 0.950 . S
C1201 C1199 1.387 . S
C1201 C1203 1.390 . S
C1201 H1205 0.950 . S
H1202 C1198 0.950 . S
C1203 C1201 1.390 . S
C1203 C1204 1.387 . S
C1203 H1206 0.950 . S
C1204 C1203 1.387 . S
C1204 C1207 1.387 . S
H1205 C1201 0.950 . S
H1206 C1203 0.950 . S
C1207 C1198 1.390 . S
C1207 H1200 0.950 . S
C1207 C1204 1.387 . S
C1208 C1209 1.387 . S
C1208 H1212 0.950 . S
C1208 C1217 1.390 . S
C1209 C1208 1.387 . S
C1209 C1211 1.387 . S
H1210 C1217 0.950 . S
C1211 C1209 1.387 . S
C1211 C1213 1.390 . S
C1211 H1215 0.950 . S
H1212 C1208 0.950 . S
C1213 C1211 1.390 . S
C1213 C1214 1.387 . S
C1213 H1216 0.950 . S
C1214 C1213 1.387 . S
C1214 C1217 1.387 . S
H1215 C1211 0.950 . S
H1216 C1213 0.950 . S
C1217 C1208 1.390 . S
C1217 H1210 0.950 . S
C1217 C1214 1.387 . S
C1218 C1219 1.387 . S
C1218 H1222 0.950 . S
C1218 C1227 1.390 . S
C1219 C1218 1.387 . S
C1219 C1221 1.387 . S
H1220 C1227 0.950 . S
C1221 C1219 1.387 . S
C1221 C1223 1.390 . S
C1221 H1225 0.950 . S
H1222 C1218 0.950 . S
C1223 C1221 1.390 . S
C1223 C1224 1.387 . S
C1223 H1226 0.950 . S
C1224 C1223 1.387 . S
C1224 C1227 1.387 . S
H1225 C1221 0.950 . S
H1226 C1223 0.950 . S
C1227 C1218 1.390 . S
C1227 H1220 0.950 . S
C1227 C1224 1.387 . S
C1228 C1229 1.387 . S
C1228 H1232 0.950 . S
C1228 C1237 1.390 1_545 S
C1229 C1228 1.387 . S
C1229 C1231 1.387 . S
H1230 C1237 0.950 . S
C1231 C1229 1.387 . S
C1231 C1233 1.390 1_545 S
C1231 H1235 0.950 . S
H1232 C1228 0.950 . S
C1233 C1231 1.390 1_565 S
C1233 C1234 1.387 . S
C1233 H1236 0.950 . S
C1234 C1233 1.387 . S
C1234 C1237 1.387 . S
H1235 C1231 0.950 . S
H1236 C1233 0.950 . S
C1237 C1228 1.390 1_565 S
C1237 H1230 0.950 . S
C1237 C1234 1.387 . S
C1238 C1239 1.387 1_655 S
C1238 H1242 0.950 . S
C1238 C1247 1.390 . S
C1239 C1238 1.387 1_455 S
C1239 C1241 1.387 . S
H1240 C1247 0.950 . S
C1241 C1239 1.387 . S
C1241 C1243 1.390 . S
C1241 H1245 0.950 . S
H1242 C1238 0.950 . S
C1243 C1241 1.390 . S
C1243 C1244 1.387 1_455 S
C1243 H1246 0.950 . S
C1244 C1243 1.387 1_655 S
C1244 C1247 1.387 . S
H1245 C1241 0.950 . S
H1246 C1243 0.950 . S
C1247 C1238 1.390 . S
C1247 H1240 0.950 . S
C1247 C1244 1.387 . S
C1248 C1249 1.387 . S
C1248 H1252 0.950 . S
C1248 C1257 1.390 . S
C1249 C1248 1.387 . S
C1249 C1251 1.387 . S
H1250 C1257 0.950 . S
C1251 C1249 1.387 . S
C1251 C1253 1.390 . S
C1251 H1255 0.950 . S
H1252 C1248 0.950 . S
C1253 C1251 1.390 . S
C1253 C1254 1.387 . S
C1253 H1256 0.950 . S
C1254 C1253 1.387 . S
C1254 C1257 1.387 . S
H1255 C1251 0.950 . S
H1256 C1253 0.950 . S
C1257 C1248 1.390 . S
C1257 H1250 0.950 . S
C1257 C1254 1.387 . S
C1258 C1259 1.387 . S
C1258 H1262 0.950 . S
C1258 C1267 1.390 1_545 S
C1259 C1258 1.387 . S
C1259 C1261 1.387 . S
H1260 C1267 0.950 . S
C1261 C1259 1.387 . S
C1261 C1263 1.390 1_545 S
C1261 H1265 0.950 . S
H1262 C1258 0.950 . S
C1263 C1261 1.390 1_565 S
C1263 C1264 1.387 . S
C1263 H1266 0.950 . S
C1264 C1263 1.387 . S
C1264 C1267 1.387 . S
H1265 C1261 0.950 . S
H1266 C1263 0.950 . S
C1267 C1258 1.390 1_565 S
C1267 H1260 0.950 . S
C1267 C1264 1.387 . S
C1268 C1269 1.387 . S
C1268 H1272 0.950 . S
C1268 C1277 1.390 . S
C1269 C1268 1.387 . S
C1269 C1271 1.387 . S
H1270 C1277 0.950 . S
C1271 C1269 1.387 . S
C1271 C1273 1.390 . S
C1271 H1275 0.950 1_455 S
H1272 C1268 0.950 . S
C1273 C1271 1.390 . S
C1273 C1274 1.387 . S
C1273 H1276 0.950 . S
C1274 C1273 1.387 . S
C1274 C1277 1.387 . S
H1275 C1271 0.950 1_655 S
H1276 C1273 0.950 . S
C1277 C1268 1.390 . S
C1277 H1270 0.950 . S
C1277 C1274 1.387 . S
C559 C51 1.028 . S
C564 C1 1.022 . S
C569 C41 1.410 . S
C574 C72 1.431 . S
C579 C82 1.171 . S
C584 C30 1.050 . S
C589 C144 0.944 . S
C594 C113 0.940 . S
C599 C165 1.364 . S
C604 C134 1.333 . S
C609 C175 1.228 . S
C614 C103 1.108 . S
C619 C206 1.320 . S
C624 C227 1.211 . S
C629 C237 1.389 . S
C634 C258 1.244 . S
C639 C196 1.249 . S
C644 C268 1.370 . S
C649 C309 1.240 . S
C654 C311 1.343 . S
C659 C361 1.407 . S
C664 C340 1.270 . S
C669 C351 1.225 . S
C674 C280 1.347 . S
C679 C373 1.118 . S
C684 C404 1.121 . S
C689 C433 1.599 . S
C694 C444 1.617 . S
C699 C454 1.475 . S
C704 C402 1.338 . S
C709 C497 1.244 . S
C714 C466 1.234 . S
C719 C526 1.680 . S
C724 C537 1.711 . S
C729 C547 1.410 . S
C734 C495 1.274 . S
C739 C0 1.209 . S
C744 C157 1.236 . S
C749 C61 1.216 . S
C754 C95 1.283 . S
C759 C81 1.286 . S
C764 C153 1.211 . S
C769 C50 1.333 . S
C774 C184 1.266 1_556 S
C779 C122 1.159 1_556 S
C784 C92 1.212 . S
C789 C10 1.109 . S
C794 C126 1.158 . S
C799 C64 1.244 . S
C804 C112 1.211 . S
C809 C154 1.122 . S
C814 C29 1.168 . S
C819 C174 1.304 . S
C824 C60 1.215 . S
C829 C143 1.282 . S
C834 C91 1.225 . S
C839 C185 1.251 . S
C844 C2 1.193 . S
C849 C33 1.273 . S
C854 C123 1.203 . S
C859 C205 1.243 . S
C864 C370 1.161 . S
C869 C281 1.183 . S
C874 C236 1.248 . S
C879 C312 1.341 . S
C884 C267 1.432 . S
C889 C247 1.312 . S
C894 C343 1.398 . S
C899 C308 1.371 . S
C904 C278 1.292 . S
C909 C339 1.162 . S
C914 C216 1.110 . S
C919 C289 1.167 . S
C924 C250 1.232 . S
C929 C188 1.207 . S
C934 C320 1.150 . S
C939 C219 1.435 . S
C944 C371 1.342 . S
C949 C277 1.300 . S
C954 C310 1.391 . S
C959 C360 1.396 . S
C964 C215 1.321 . S
C969 C279 1.197 . S
C974 C246 1.131 . S
C979 C372 1.344 . S
C984 C529 1.391 . S
C989 C413 1.241 . S
C994 C494 1.308 . S
C999 C498 1.343 . S
C1004 C453 1.435 . S
C1009 C403 1.337 . S
C1014 C556 1.273 . S
C1019 C464 1.311 . S
C1024 C467 1.244 . S
C1029 C525 1.356 . S
C1034 C382 1.276 . S
C1039 C465 1.275 . S
C1044 C436 1.313 . S
C1049 C506 1.296 . S
C1054 C401 1.372 . S
C1059 C546 1.341 . S
C1064 C405 1.255 . S
C1069 C496 1.468 . S
C1074 C463 1.398 . S
C1079 C557 1.332 . S
C1084 C374 1.291 . S
C1089 C475 1.239 . S
C1094 C432 1.309 . S
C1099 C20 1.660 . S
C1104 C423 1.681 . S
C1109 C31 2.306 . S
C1114 C434 2.304 . S
C1119 C391 2.155 . S
C1124 C63 1.803 . S
C1129 C187 1.693 1_556 S
C1134 C32 1.647 . S
C1139 C218 1.809 1_556 S
C1144 C62 2.175 . S
C1149 C19 2.093 . S
C1154 C249 1.677 1_556 S
C1159 C94 1.577 . S
C1164 C330 1.561 . S
C1169 C124 2.049 . S
C1174 C342 1.643 . S
C1179 C299 1.742 . S
C1184 C156 1.661 . S
C1189 C125 1.696 . S
C1194 C485 1.672 1_554 S
C1199 C515 2.317 1_554 S
C1204 C155 2.311 . S
C1209 C528 1.783 1_554 S
C1214 C93 2.135 . S
C1219 C217 2.309 . S
C1224 C392 2.029 . S
C1229 C248 2.387 . S
C1234 C422 2.382 . S
C1239 C435 2.006 . S
C1244 C186 2.323 . S
C1249 C298 2.361 . S
C1254 C516 2.054 . S
C1259 C329 2.465 . S
C1264 C527 2.471 . S
C1269 C341 2.498 1_455 S
C1274 C484 2.482 . S
