# Generated by pormake.
# Topology wib, (6)-cn, num edge types: 1
# Building blocks:
#     Node 0, Type 0, BuildingBlock: OJICUG_clean_sbu_0, # of connection points: 6
#     Node 1, Type 0, BuildingBlock: OJICUG_clean_sbu_0, # of connection points: 6
#     Node 2, Type 0, BuildingBlock: OJICUG_clean_sbu_0, # of connection points: 6
#     Node 3, Type 0, BuildingBlock: OJICUG_clean_sbu_0, # of connection points: 6
#     Node 4, Type 0, BuildingBlock: OJICUG_clean_sbu_0, # of connection points: 6
#     Node 5, Type 0, BuildingBlock: OJICUG_clean_sbu_0, # of connection points: 6
#     Node 6, Type 0, BuildingBlock: OJICUG_clean_sbu_0, # of connection points: 6
#     Node 7, Type 0, BuildingBlock: OJICUG_clean_sbu_0, # of connection points: 6
#     Node 8, Type 0, BuildingBlock: OJICUG_clean_sbu_0, # of connection points: 6
#     Node 9, Type 0, BuildingBlock: OJICUG_clean_sbu_0, # of connection points: 6
#     Node 10, Type 0, BuildingBlock: OJICUG_clean_sbu_0, # of connection points: 6
#     Node 11, Type 0, BuildingBlock: OJICUG_clean_sbu_0, # of connection points: 6
#     Node 12, Type 0, BuildingBlock: OJICUG_clean_sbu_0, # of connection points: 6
#     Node 13, Type 0, BuildingBlock: OJICUG_clean_sbu_0, # of connection points: 6
#     Node 14, Type 0, BuildingBlock: OJICUG_clean_sbu_0, # of connection points: 6
#     Node 15, Type 0, BuildingBlock: OJICUG_clean_sbu_0, # of connection points: 6
#     Edge 16, Type (0, 0), BuildingBlock: EZIPEK_clean_linker_0, # of connection points: 2
#     Edge 17, Type (0, 0), BuildingBlock: EZIPEK_clean_linker_0, # of connection points: 2
#     Edge 18, Type (0, 0), BuildingBlock: EZIPEK_clean_linker_0, # of connection points: 2
#     Edge 19, Type (0, 0), BuildingBlock: EZIPEK_clean_linker_0, # of connection points: 2
#     Edge 20, Type (0, 0), BuildingBlock: EZIPEK_clean_linker_0, # of connection points: 2
#     Edge 21, Type (0, 0), BuildingBlock: EZIPEK_clean_linker_0, # of connection points: 2
#     Edge 22, Type (0, 0), BuildingBlock: EZIPEK_clean_linker_0, # of connection points: 2
#     Edge 23, Type (0, 0), BuildingBlock: EZIPEK_clean_linker_0, # of connection points: 2
#     Edge 24, Type (0, 0), BuildingBlock: EZIPEK_clean_linker_0, # of connection points: 2
#     Edge 25, Type (0, 0), BuildingBlock: EZIPEK_clean_linker_0, # of connection points: 2
#     Edge 26, Type (0, 0), BuildingBlock: EZIPEK_clean_linker_0, # of connection points: 2
#     Edge 27, Type (0, 0), BuildingBlock: EZIPEK_clean_linker_0, # of connection points: 2
#     Edge 28, Type (0, 0), BuildingBlock: EZIPEK_clean_linker_0, # of connection points: 2
#     Edge 29, Type (0, 0), BuildingBlock: EZIPEK_clean_linker_0, # of connection points: 2
#     Edge 30, Type (0, 0), BuildingBlock: EZIPEK_clean_linker_0, # of connection points: 2
#     Edge 31, Type (0, 0), BuildingBlock: EZIPEK_clean_linker_0, # of connection points: 2
#     Edge 32, Type (0, 0), BuildingBlock: EZIPEK_clean_linker_0, # of connection points: 2
#     Edge 33, Type (0, 0), BuildingBlock: EZIPEK_clean_linker_0, # of connection points: 2
#     Edge 34, Type (0, 0), BuildingBlock: EZIPEK_clean_linker_0, # of connection points: 2
#     Edge 35, Type (0, 0), BuildingBlock: EZIPEK_clean_linker_0, # of connection points: 2
#     Edge 36, Type (0, 0), BuildingBlock: EZIPEK_clean_linker_0, # of connection points: 2
#     Edge 37, Type (0, 0), BuildingBlock: EZIPEK_clean_linker_0, # of connection points: 2
#     Edge 38, Type (0, 0), BuildingBlock: EZIPEK_clean_linker_0, # of connection points: 2
#     Edge 39, Type (0, 0), BuildingBlock: EZIPEK_clean_linker_0, # of connection points: 2
#     Edge 40, Type (0, 0), BuildingBlock: EZIPEK_clean_linker_0, # of connection points: 2
#     Edge 41, Type (0, 0), BuildingBlock: EZIPEK_clean_linker_0, # of connection points: 2
#     Edge 42, Type (0, 0), BuildingBlock: EZIPEK_clean_linker_0, # of connection points: 2
#     Edge 43, Type (0, 0), BuildingBlock: EZIPEK_clean_linker_0, # of connection points: 2
#     Edge 44, Type (0, 0), BuildingBlock: EZIPEK_clean_linker_0, # of connection points: 2
#     Edge 45, Type (0, 0), BuildingBlock: EZIPEK_clean_linker_0, # of connection points: 2
#     Edge 46, Type (0, 0), BuildingBlock: EZIPEK_clean_linker_0, # of connection points: 2
#     Edge 47, Type (0, 0), BuildingBlock: EZIPEK_clean_linker_0, # of connection points: 2
#     Edge 48, Type (0, 0), BuildingBlock: EZIPEK_clean_linker_0, # of connection points: 2
#     Edge 49, Type (0, 0), BuildingBlock: EZIPEK_clean_linker_0, # of connection points: 2
#     Edge 50, Type (0, 0), BuildingBlock: EZIPEK_clean_linker_0, # of connection points: 2
#     Edge 51, Type (0, 0), BuildingBlock: EZIPEK_clean_linker_0, # of connection points: 2
#     Edge 52, Type (0, 0), BuildingBlock: EZIPEK_clean_linker_0, # of connection points: 2
#     Edge 53, Type (0, 0), BuildingBlock: EZIPEK_clean_linker_0, # of connection points: 2
#     Edge 54, Type (0, 0), BuildingBlock: EZIPEK_clean_linker_0, # of connection points: 2
#     Edge 55, Type (0, 0), BuildingBlock: EZIPEK_clean_linker_0, # of connection points: 2
#     Edge 56, Type (0, 0), BuildingBlock: EZIPEK_clean_linker_0, # of connection points: 2
#     Edge 57, Type (0, 0), BuildingBlock: EZIPEK_clean_linker_0, # of connection points: 2
#     Edge 58, Type (0, 0), BuildingBlock: EZIPEK_clean_linker_0, # of connection points: 2
#     Edge 59, Type (0, 0), BuildingBlock: EZIPEK_clean_linker_0, # of connection points: 2
#     Edge 60, Type (0, 0), BuildingBlock: EZIPEK_clean_linker_0, # of connection points: 2
#     Edge 61, Type (0, 0), BuildingBlock: EZIPEK_clean_linker_0, # of connection points: 2
#     Edge 62, Type (0, 0), BuildingBlock: EZIPEK_clean_linker_0, # of connection points: 2
#     Edge 63, Type (0, 0), BuildingBlock: EZIPEK_clean_linker_0, # of connection points: 2
# Relax obj value: 0.382
# Max RMSD: 0.261
# Mean RMSD: 0.261
data_MOF--net-wib--node1-OJICUG_clean_sbu_0--edge1-EZIPEK_clean_linker_0
_symmetry_space_group_name_H-M    P1
_symmetry_Int_Tables_number       1
_symmetry_cell_setting            triclinic
loop_
_symmetry_equiv_pos_as_xyz
'x, y, z'
_cell_length_a     23.752835
_cell_length_b     23.786842
_cell_length_c     44.111632
_cell_angle_alpha  90.130001
_cell_angle_beta   89.927642
_cell_angle_gamma 89.96479
loop_
_atom_site_label
_atom_site_type_symbol
_atom_site_fract_x
_atom_site_fract_y
_atom_site_fract_z
_atom_type_partial_charge
Sc0 Sc 0.11279 0.4686 0.26821 0.0
Sc1 Sc 0.15954 0.56871 0.31886 0.0
Sc2 Sc 0.05913 0.60717 0.26763 0.0
O3 O 0.10888 0.547 0.28513 0.0
C4 C 0.10885 0.55056 0.20849 0.0
C5 C 0.24149 0.48632 0.28094 0.0
C6 C 0.17354 0.66848 0.27817 0.0
C7 C 0.13139 0.4546 0.3428 0.0
C8 C 0.98152 0.49723 0.26279 0.0
C9 C 0.0501 0.64898 0.33172 0.0
O10 O 0.11029 0.50084 0.22023 0.0
O11 O 0.22914 0.51344 0.30498 0.0
O12 O 0.1206 0.67265 0.27506 0.0
O13 O 0.12829 0.4332 0.31569 0.0
O14 O 0.99255 0.54908 0.25931 0.0
O15 O 0.10121 0.63422 0.33625 0.0
O16 O 0.01949 0.46099 0.26993 0.0
O17 O 0.12213 0.50656 0.34715 0.0
O18 O 0.02213 0.62667 0.31041 0.0
O19 O 0.20345 0.46995 0.26274 0.0
O20 O 0.09397 0.59357 0.2236 0.0
O21 O 0.19708 0.62591 0.28936 0.0
Sc22 Sc 0.28254 0.36319 0.51975 0.0
Sc23 Sc 0.1763 0.41099 0.56812 0.0
Sc24 Sc 0.14585 0.30433 0.51595 0.0
O25 O 0.20215 0.35853 0.53497 0.0
C26 C 0.20738 0.3526 0.4576 0.0
C27 C 0.26091 0.4926 0.53105 0.0
C28 C 0.07657 0.41585 0.52355 0.0
C29 C 0.29391 0.38227 0.5937 0.0
C30 C 0.25878 0.23078 0.51757 0.0
C31 C 0.09997 0.29981 0.58181 0.0
O32 O 0.2548 0.35954 0.47129 0.0
O33 O 0.22695 0.48262 0.55281 0.0
O34 O 0.07882 0.36448 0.51607 0.0
O35 O 0.31575 0.37494 0.56711 0.0
O36 O 0.20632 0.23732 0.51335 0.0
O37 O 0.11677 0.34982 0.58719 0.0
O38 O 0.29262 0.27164 0.5224 0.0
O39 O 0.24114 0.385 0.59809 0.0
O40 O 0.11765 0.27247 0.55889 0.0
O41 O 0.28095 0.45364 0.51454 0.0
O42 O 0.16441 0.33351 0.47114 0.0
O43 O 0.11241 0.44083 0.53982 0.0
Sc44 Sc 0.43667 0.38524 0.76813 0.0
Sc45 Sc 0.34387 0.42625 0.82659 0.0
Sc46 Sc 0.38757 0.52546 0.77186 0.0
O47 O 0.39025 0.44611 0.78926 0.0
C48 C 0.51956 0.49063 0.76674 0.0
C49 C 0.4502 0.34592 0.83664 0.0
C50 C 0.37781 0.54948 0.84495 0.0
C51 C 0.32429 0.32234 0.78447 0.0
C52 C 0.38898 0.44833 0.71049 0.0
C53 C 0.25817 0.50464 0.78795 0.0
O54 O 0.51014 0.43797 0.76709 0.0
O55 O 0.41074 0.37621 0.8478 0.0
O56 O 0.38867 0.56629 0.81779 0.0
O57 O 0.36648 0.32852 0.76711 0.0
O58 O 0.37736 0.49422 0.72447 0.0
O59 O 0.26914 0.46887 0.80871 0.0
O60 O 0.4136 0.40802 0.7234 0.0
O61 O 0.31314 0.35301 0.80692 0.0
O62 O 0.29649 0.52902 0.77267 0.0
O63 O 0.4647 0.348 0.80909 0.0
O64 O 0.48043 0.52782 0.76847 0.0
O65 O 0.36732 0.49869 0.85114 0.0
Sc66 Sc 0.22484 0.63523 0.0183 0.0
Sc67 Sc 0.32918 0.5872 0.06782 0.0
Sc68 Sc 0.3581 0.69956 0.02116 0.0
O69 O 0.30252 0.64138 0.03612 0.0
C70 C 0.31178 0.64614 0.9605 0.0
C71 C 0.25008 0.50486 0.02888 0.0
C72 C 0.4362 0.59525 0.03161 0.0
C73 C 0.20724 0.61325 0.09166 0.0
C74 C 0.24424 0.7684 1.01366 0.0
C75 C 0.39073 0.70493 0.08686 0.0
O76 O 0.26192 0.63783 0.97142 0.0
O77 O 0.28452 0.51466 0.05027 0.0
O78 O 0.43057 0.64789 0.02923 0.0
O79 O 0.18726 0.62529 0.06509 0.0
O80 O 0.29693 0.76255 1.01146 0.0
O81 O 0.38292 0.65186 0.08917 0.0
O82 O 0.2113 0.72725 0.01949 0.0
O83 O 0.25959 0.60571 0.09646 0.0
O84 O 0.36694 0.73257 0.06585 0.0
O85 O 0.22704 0.54411 1.01378 0.0
O86 O 0.35191 0.66646 0.97616 0.0
O87 O 0.39669 0.56309 0.03955 0.0
Sc88 Sc 0.94658 0.395 0.76376 0.0
Sc89 Sc 0.85023 0.42976 0.70692 0.0
Sc90 Sc 0.88698 0.53128 0.76101 0.0
O91 O 0.89509 0.45196 0.74393 0.0
C92 C 0.89931 0.45493 0.82247 0.0
C93 C 0.83458 0.32812 0.74987 0.0
C94 C 0.76054 0.5035 0.7475 0.0
C95 C 0.95886 0.35176 0.69649 0.0
C96 C 0.02108 0.50647 0.76348 0.0
C97 C 0.86842 0.54964 0.68724 0.0
O98 O 0.92098 0.41428 0.80837 0.0
O99 O 0.81797 0.35868 0.72832 0.0
O100 O 0.79676 0.52556 0.76502 0.0
O101 O 0.97901 0.36135 0.72252 0.0
O102 O 0.98005 0.54132 0.75976 0.0
O103 O 0.88254 0.49938 0.6821 0.0
O104 O 0.01456 0.45359 0.76565 0.0
O105 O 0.91466 0.37606 0.68676 0.0
O106 O 0.8701 0.56938 0.71457 0.0
O107 O 0.8804 0.33462 0.76424 0.0
O108 O 0.88812 0.50181 0.80934 0.0
O109 O 0.77484 0.47394 0.7245 0.0
Sc110 Sc 0.85423 0.69553 0.51551 0.0
Sc111 Sc 0.82416 0.59325 0.46021 0.0
Sc112 Sc 0.71722 0.63844 0.50934 0.0
O113 O 0.79809 0.64332 0.49463 0.0
C114 C 0.78931 0.6469 0.57257 0.0
C115 C 0.92465 0.58554 0.5049 0.0
C116 C 0.74274 0.50896 0.49675 0.0
C117 C 0.89862 0.70608 0.44879 0.0
C118 C 0.74212 0.7705 0.5134 0.0
C119 C 0.70438 0.62061 0.43542 0.0
O120 O 0.83324 0.66509 0.55965 0.0
O121 O 0.89085 0.56383 0.4863 0.0
O122 O 0.72017 0.54718 0.513 0.0
O123 O 0.88556 0.72924 0.47381 0.0
O124 O 0.70777 0.73027 0.50792 0.0
O125 O 0.75703 0.6157 0.43132 0.0
O126 O 0.79438 0.76307 0.51797 0.0
O127 O 0.87934 0.65802 0.44108 0.0
O128 O 0.68333 0.62982 0.46196 0.0
O129 O 0.92044 0.6346 0.5158 0.0
O130 O 0.74265 0.64099 0.55812 0.0
O131 O 0.77723 0.51992 0.47546 0.0
Sc132 Sc 0.61459 0.4722 0.25989 0.0
Sc133 Sc 0.65077 0.56851 0.20667 0.0
Sc134 Sc 0.55453 0.60714 0.26116 0.0
O135 O 0.60422 0.54856 0.24235 0.0
C136 C 0.48204 0.49337 0.26472 0.0
C137 C 0.62728 0.45562 0.18503 0.0
C138 C 0.54213 0.6501 0.19716 0.0
C139 C 0.73882 0.49422 0.2429 0.0
C140 C 0.60599 0.5516 0.31976 0.0
C141 C 0.66945 0.66796 0.2484 0.0
O142 O 0.52246 0.45959 0.25773 0.0
O143 O 0.61022 0.50539 0.1803 0.0
O144 O 0.51566 0.62786 0.21904 0.0
O145 O 0.70507 0.48523 0.26475 0.0
O146 O 0.59051 0.59421 0.30481 0.0
O147 O 0.69119 0.62647 0.23483 0.0
O148 O 0.60929 0.50234 0.30782 0.0
O149 O 0.71944 0.50924 0.21729 0.0
O150 O 0.61688 0.67241 0.25376 0.0
O151 O 0.63083 0.43673 0.21256 0.0
O152 O 0.48906 0.54591 0.2692 0.0
O153 O 0.59253 0.63489 0.19129 0.0
Sc154 Sc 0.7852 0.36484 1.00972 0.0
Sc155 Sc 0.67996 0.40963 0.95865 0.0
Sc156 Sc 0.64527 0.32165 0.01842 0.0
O157 O 0.70525 0.36306 0.99458 0.0
C158 C 0.744 0.23365 1.01197 0.0
C159 C 0.80489 0.38363 0.93746 0.0
C160 C 0.60006 0.30907 0.94995 0.0
C161 C 0.75871 0.49447 0.99716 0.0
C162 C 0.7192 0.35639 0.07458 0.0
C163 C 0.59976 0.43969 1.0071 0.0
O164 O 0.78272 0.27172 1.01187 0.0
O165 O 0.7544 0.39816 0.93302 0.0
O166 O 0.59627 0.30486 0.97853 0.0
O167 O 0.78881 0.45611 1.00923 0.0
O168 O 0.6783 0.33066 0.06292 0.0
O169 O 0.60203 0.42665 0.97958 0.0
O170 O 0.75973 0.37379 0.05798 0.0
O171 O 0.71794 0.48411 0.97914 0.0
O172 O 0.6056 0.40139 0.02678 0.0
O173 O 0.82245 0.36488 0.96314 0.0
O174 O 0.69119 0.24439 1.01234 0.0
O175 O 0.63806 0.33855 0.93696 0.0
Sc176 Sc 0.61642 0.96285 0.77185 0.0
Sc177 Sc 0.65929 0.05961 0.82666 0.0
Sc178 Sc 0.56219 0.10072 0.77175 0.0
O179 O 0.61242 0.04127 0.78988 0.0
C180 C 0.60575 0.04345 0.71169 0.0
C181 C 0.74352 0.98302 0.78458 0.0
C182 C 0.67884 0.16132 0.78537 0.0
C183 C 0.63671 0.94219 0.84533 0.0
C184 C 0.48428 0.99122 0.77096 0.0
C185 C 0.55276 0.14119 0.83875 0.0
O186 O 0.61286 0.99463 0.7237 0.0
O187 O 0.73135 0.00941 0.80911 0.0
O188 O 0.63007 0.16021 0.77339 0.0
O189 O 0.63496 0.92349 0.81778 0.0
O190 O 0.49264 0.04373 0.76796 0.0
O191 O 0.59936 0.11925 0.84683 0.0
O192 O 0.524 0.95528 0.77507 0.0
O193 O 0.62179 0.99202 0.85095 0.0
O194 O 0.52922 0.12842 0.81399 0.0
O195 O 0.70576 0.96618 0.76642 0.0
O196 O 0.58838 0.0848 0.72693 0.0
O197 O 0.69661 0.127 0.80485 0.0
Sc198 Sc 0.78621 0.86524 0.022 0.0
Sc199 Sc 0.67365 0.90874 0.0685 0.0
Sc200 Sc 0.65262 0.80453 1.01332 0.0
O201 O 0.70498 0.8586 0.0353 0.0
C202 C 0.72491 0.84468 0.95694 0.0
C203 C 0.75118 0.99465 0.03128 0.0
C204 C 0.58047 0.91086 0.01806 0.0
C205 C 0.79694 0.8885 0.09451 0.0
C206 C 0.75956 0.73023 0.0218 0.0
C207 C 0.59937 0.80297 0.08037 0.0
O208 O 0.76151 0.86932 0.9736 0.0
O209 O 0.70918 0.98334 0.04813 0.0
O210 O 0.5981 0.87094 1.00171 0.0
O211 O 0.81845 0.86934 0.06968 0.0
O212 O 0.70642 0.73563 0.02304 0.0
O213 O 0.63136 0.84031 0.09192 0.0
O214 O 0.79385 0.77208 0.02031 0.0
O215 O 0.74545 0.90171 0.09681 0.0
O216 O 0.60278 0.788 0.05284 0.0
O217 O 0.78453 0.95703 0.02103 0.0
O218 O 0.68777 0.81369 0.96881 0.0
O219 O 0.59964 0.9241 0.04377 0.0
Sc220 Sc 0.9415 0.90269 0.27019 0.0
Sc221 Sc 0.83246 0.93291 0.31905 0.0
Sc222 Sc 0.88161 0.03852 0.27169 0.0
O223 O 0.88662 0.95961 0.28755 0.0
C224 C 0.01381 0.01536 0.26771 0.0
C225 C 0.94664 0.86094 0.33442 0.0
C226 C 0.86256 0.05001 0.3459 0.0
C227 C 0.83074 0.83337 0.27672 0.0
C228 C 0.89038 0.95762 0.21123 0.0
C229 C 0.75157 0.01752 0.28294 0.0
O230 O 0.00708 0.96308 0.26364 0.0
O231 O 0.89403 0.87147 0.33758 0.0
O232 O 0.87247 0.07176 0.31947 0.0
O233 O 0.88401 0.83286 0.27501 0.0
O234 O 0.88303 0.00636 0.22366 0.0
O235 O 0.76145 0.98368 0.30456 0.0
O236 O 0.90958 0.91569 0.22565 0.0
O237 O 0.80342 0.87414 0.28748 0.0
O238 O 0.7909 0.03876 0.26719 0.0
O239 O 0.97486 0.88535 0.3139 0.0
O240 O 0.97322 0.04894 0.27353 0.0
O241 O 0.85658 0.99722 0.34984 0.0
Sc242 Sc 0.71411 0.13905 0.52225 0.0
Sc243 Sc 0.81494 0.08836 0.57209 0.0
Sc244 Sc 0.85177 0.1945 0.52331 0.0
O245 O 0.79201 0.14225 0.53977 0.0
C246 C 0.79849 0.14516 0.46338 0.0
C247 C 0.73302 0.00871 0.53369 0.0
C248 C 0.91656 0.08229 0.53166 0.0
C249 C 0.69681 0.11897 0.59601 0.0
C250 C 0.74177 0.27059 0.51847 0.0
C251 C 0.89032 0.19961 0.58803 0.0
O252 O 0.74859 0.1412 0.47483 0.0
O253 O 0.76331 0.01886 0.5568 0.0
O254 O 0.9192 0.13536 0.53019 0.0
O255 O 0.67704 0.1281 0.56908 0.0
O256 O 0.79386 0.26123 0.5149 0.0
O257 O 0.87754 0.1477 0.59134 0.0
O258 O 0.70629 0.23164 0.52465 0.0
O259 O 0.74948 0.11584 0.60137 0.0
O260 O 0.86742 0.2285 0.56726 0.0
O261 O 0.71404 0.04803 0.51707 0.0
O262 O 0.84069 0.1615 0.47868 0.0
O263 O 0.87446 0.05649 0.54185 0.0
Sc264 Sc 0.44191 0.90576 0.25818 0.0
Sc265 Sc 0.33251 0.9396 0.21092 0.0
Sc266 Sc 0.38177 0.0417 0.26018 0.0
O267 O 0.38717 0.96412 0.2425 0.0
C268 C 0.39223 0.95722 0.31871 0.0
C269 C 0.32988 0.83923 0.2517 0.0
C270 C 0.25182 0.02154 0.24861 0.0
C271 C 0.4444 0.86558 0.19393 0.0
C272 C 0.51429 0.01818 0.26297 0.0
C273 C 0.36226 0.05707 0.18625 0.0
O274 O 0.41116 0.91631 0.30324 0.0
O275 O 0.30294 0.88121 0.24229 0.0
O276 O 0.29091 0.04074 0.26529 0.0
O277 O 0.47415 0.89017 0.21379 0.0
O278 O 0.47362 0.05231 0.25823 0.0
O279 O 0.35854 0.00436 0.18118 0.0
O280 O 0.50766 0.96555 0.26544 0.0
O281 O 0.392 0.87723 0.19164 0.0
O282 O 0.37102 0.07763 0.21311 0.0
O283 O 0.3832 0.83731 0.25236 0.0
O284 O 0.38441 0.00668 0.30742 0.0
O285 O 0.26227 0.99077 0.22573 0.0
Sc286 Sc 0.35429 0.18835 1.01071 0.0
Sc287 Sc 0.31587 0.094 0.95344 0.0
Sc288 Sc 0.21606 0.13453 1.00746 0.0
O289 O 0.29559 0.13925 0.99065 0.0
C290 C 0.29264 0.14437 0.06916 0.0
C291 C 0.41712 0.07387 0.99577 0.0
C292 C 0.23833 0.00744 0.99373 0.0
C293 C 0.39781 0.20094 0.94423 0.0
C294 C 0.24492 0.26668 1.00951 0.0
C295 C 0.19789 0.11729 0.93357 0.0
O296 O 0.33493 0.16195 0.05489 0.0
O297 O 0.38376 0.05798 0.97532 0.0
O298 O 0.21935 0.04458 1.0118 0.0
O299 O 0.38606 0.22194 0.96976 0.0
O300 O 0.20893 0.22714 1.00495 0.0
O301 O 0.24855 0.12976 0.92831 0.0
O302 O 0.29727 0.25803 1.0134 0.0
O303 O 0.37462 0.15604 0.93442 0.0
O304 O 0.17847 0.11845 0.96094 0.0
O305 O 0.41413 0.12052 1.00987 0.0
O306 O 0.24479 0.13675 0.05612 0.0
O307 O 0.26669 0.02055 0.97 0.0
Sc308 Sc 0.11763 0.95944 0.75908 0.0
Sc309 Sc 0.16135 0.07097 0.71319 0.0
Sc310 Sc 0.05275 0.08873 0.76611 0.0
O311 O 0.10922 0.03871 0.7446 0.0
C312 C 0.98108 0.98456 0.75831 0.0
C313 C 0.13953 0.94717 0.68695 0.0
C314 C 0.05696 0.14562 0.70026 0.0
C315 C 0.24706 0.99222 0.74933 0.0
C316 C 0.09751 0.02673 0.82098 0.0
C317 C 0.15931 0.16075 0.76584 0.0
O318 O 0.02381 0.95242 0.76348 0.0
O319 O 0.15564 0.99803 0.68513 0.0
O320 O 0.04197 0.14291 0.7278 0.0
O321 O 0.20908 0.95812 0.75795 0.0
O322 O 0.05309 0.04447 0.80879 0.0
O323 O 0.17285 0.14472 0.73939 0.0
O324 O 0.12886 0.99334 0.80569 0.0
O325 O 0.23615 0.03658 0.73438 0.0
O326 O 0.11936 0.14072 0.78149 0.0
O327 O 0.11802 0.92613 0.71143 0.0
O328 O 0.98619 0.03618 0.75153 0.0
O329 O 0.09336 0.11236 0.68879 0.0
Sc330 Sc 0.2849 0.86227 0.50837 0.0
Sc331 Sc 0.18314 0.91771 0.4608 0.0
Sc332 Sc 0.14605 0.81056 0.50887 0.0
O333 O 0.20625 0.86184 0.49204 0.0
C334 C 0.2544 0.73149 0.51104 0.0
C335 C 0.29845 0.88371 0.43435 0.0
C336 C 0.10539 0.8086 0.44426 0.0
C337 C 0.26905 0.99343 0.49866 0.0
C338 C 0.20291 0.85634 0.5685 0.0
C339 C 0.08389 0.92462 0.50258 0.0
O340 O 0.29016 0.76984 0.5044 0.0
O341 O 0.24576 0.89004 0.43011 0.0
O342 O 0.12763 0.77856 0.46478 0.0
O343 O 0.28765 0.95305 0.51464 0.0
O344 O 0.15971 0.84171 0.55355 0.0
O345 O 0.12657 0.94967 0.49259 0.0
O346 O 0.25246 0.85946 0.55641 0.0
O347 O 0.23768 0.98499 0.4758 0.0
O348 O 0.0798 0.87158 0.50334 0.0
O349 O 0.31944 0.87313 0.46089 0.0
O350 O 0.20296 0.74228 0.51617 0.0
O351 O 0.11863 0.86051 0.4416 0.0
C352 C 0.33852 0.45447 0.29779 0.0
C353 C 0.30287 0.47458 0.27422 0.0
C354 C 0.38676 0.48315 0.24121 0.0
C355 C 0.4223 0.47356 0.26642 0.0
N356 N 0.43286 0.45069 0.31912 0.0
N357 N 0.29493 0.51109 0.22307 0.0
C358 C 0.39836 0.4587 0.29476 0.0
C359 C 0.32734 0.48862 0.24557 0.0
N360 N 0.31509 0.4299 0.32278 0.0
N361 N 0.4102 0.4877 0.21301 0.0
H362 H 0.25154 0.51537 0.22447 0.0
H363 H 0.31153 0.52934 0.20358 0.0
H364 H 0.45352 0.48432 0.20937 0.0
H365 H 0.38674 0.48917 0.1931 0.0
H366 H 0.33854 0.41026 0.33964 0.0
H367 H 0.27177 0.42391 0.32508 0.0
H368 H 0.41823 0.44692 0.34129 0.0
H369 H 0.47666 0.45056 0.31718 0.0
C370 C 0.23102 0.63433 0.49405 0.0
C371 C 0.26867 0.67008 0.50994 0.0
C372 C 0.31457 0.58545 0.53013 0.0
C373 C 0.2678 0.55233 0.52097 0.0
N374 N 0.17949 0.54694 0.49426 0.0
N375 N 0.34691 0.67855 0.54453 0.0
C376 C 0.22563 0.5772 0.50275 0.0
C377 C 0.31125 0.64541 0.52816 0.0
N378 N 0.20122 0.65491 0.47009 0.0
N379 N 0.36282 0.55977 0.53934 0.0
H380 H 0.34597 0.7223 0.54351 0.0
H381 H 0.37476 0.66237 0.56054 0.0
H382 H 0.36796 0.51638 0.53747 0.0
H383 H 0.3995 0.58173 0.54458 0.0
H384 H 0.17722 0.62937 0.4559 0.0
H385 H 0.20656 0.69597 0.46232 0.0
H386 H 0.14462 0.56545 0.48408 0.0
H387 H 0.17461 0.50437 0.49915 0.0
C388 C 0.17713 0.50532 0.75033 0.0
C389 C 0.19766 0.51632 0.78016 0.0
C390 C 0.10079 0.53775 0.79689 0.0
C391 C 0.08049 0.52581 0.7673 0.0
N392 N 0.09951 0.5121 0.71447 0.0
N393 N 0.18094 0.55564 0.82976 0.0
C394 C 0.11906 0.51461 0.74356 0.0
C395 C 0.15998 0.53659 0.80279 0.0
N396 N 0.21204 0.48219 0.72899 0.0
N397 N 0.06305 0.54728 0.81974 0.0
H398 H 0.22379 0.55514 0.83484 0.0
H399 H 0.1567 0.57616 0.84606 0.0
H400 H 0.01994 0.55135 0.81579 0.0
H401 H 0.07396 0.54877 0.84258 0.0
H402 H 0.19815 0.46698 0.70816 0.0
H403 H 0.25439 0.47352 0.73285 0.0
H404 H 0.1255 0.50906 0.69552 0.0
H405 H 0.05714 0.51864 0.70925 0.0
C406 C 0.24052 0.36298 0.98713 0.0
C407 C 0.22731 0.32678 1.01159 0.0
C408 C 0.2147 0.40913 0.04483 0.0
C409 C 0.23655 0.44462 0.02167 0.0
N410 N 0.27339 0.45472 0.97089 0.0
N411 N 0.20167 0.31409 0.06382 0.0
C412 C 0.24924 0.42159 0.9926 0.0
C413 C 0.21331 0.34966 0.04034 0.0
N414 N 0.24537 0.34071 0.95866 0.0
N415 N 0.19475 0.43248 0.07106 0.0
H416 H 0.19737 0.27078 0.06081 0.0
H417 H 0.1986 0.32688 0.08634 0.0
H418 H 0.1961 0.47555 0.07531 0.0
H419 H 0.17296 0.41007 0.08756 0.0
H420 H 0.25016 0.36477 0.93915 0.0
H421 H 0.23926 0.29795 0.95435 0.0
H422 H 0.28985 0.43927 0.95064 0.0
H423 H 0.28086 0.49751 0.97387 0.0
C424 C 0.61684 0.49863 0.78843 0.0
C425 C 0.57991 0.50773 0.76372 0.0
C426 C 0.66157 0.52925 0.73124 0.0
C427 C 0.69876 0.51074 0.75443 0.0
N428 N 0.71074 0.47499 0.80544 0.0
N429 N 0.56655 0.52919 0.7109 0.0
C430 C 0.6762 0.49565 0.78334 0.0
C431 C 0.60212 0.52299 0.73499 0.0
N432 N 0.59484 0.49296 0.81692 0.0
N433 N 0.68311 0.55468 0.70602 0.0
H434 H 0.52287 0.52689 0.71301 0.0
H435 H 0.5804 0.53326 0.6886 0.0
H436 H 0.72607 0.56229 0.7033 0.0
H437 H 0.65834 0.57353 0.68945 0.0
H438 H 0.61918 0.49186 0.83652 0.0
H439 H 0.55163 0.49481 0.82121 0.0
H440 H 0.69604 0.45626 0.82524 0.0
H441 H 0.75419 0.47211 0.80323 0.0
C442 C 0.69877 0.3538 0.49115 0.0
C443 C 0.72554 0.33132 0.51722 0.0
C444 C 0.76145 0.42525 0.53018 0.0
C445 C 0.73335 0.44849 0.50475 0.0
N446 N 0.66811 0.43687 0.46352 0.0
N447 N 0.76906 0.34779 0.5656 0.0
C448 C 0.69941 0.41332 0.48611 0.0
C449 C 0.75208 0.36808 0.53814 0.0
N450 N 0.67564 0.31802 0.47036 0.0
N451 N 0.80052 0.45648 0.54545 0.0
H452 H 0.76235 0.30608 0.57199 0.0
H453 H 0.78425 0.37336 0.58296 0.0
H454 H 0.80973 0.4981 0.53996 0.0
H455 H 0.82703 0.43973 0.56191 0.0
H456 H 0.66153 0.33064 0.44911 0.0
H457 H 0.67299 0.27476 0.47395 0.0
H458 H 0.6383 0.41486 0.45093 0.0
H459 H 0.66933 0.47977 0.45879 0.0
C460 C 0.82615 0.44935 0.26822 0.0
C461 C 0.80205 0.48765 0.2468 0.0
C462 C 0.89807 0.50786 0.22924 0.0
C463 C 0.92181 0.48143 0.255 0.0
N464 N 0.90576 0.42994 0.30123 0.0
N465 N 0.82165 0.56582 0.21273 0.0
C466 C 0.88519 0.45259 0.27512 0.0
C467 C 0.83973 0.52001 0.22864 0.0
N468 N 0.79395 0.40821 0.28099 0.0
N469 N 0.93174 0.52318 0.20557 0.0
H470 H 0.78145 0.58265 0.21465 0.0
H471 H 0.8492 0.59234 0.20116 0.0
H472 H 0.97468 0.51407 0.20519 0.0
H473 H 0.91569 0.53891 0.18528 0.0
H474 H 0.81073 0.37709 0.29492 0.0
H475 H 0.75247 0.40058 0.27458 0.0
H476 H 0.87978 0.41387 0.31819 0.0
H477 H 0.94838 0.43081 0.30679 0.0
C478 C 0.78813 0.59216 0.98172 0.0
C479 C 0.77069 0.55449 1.00485 0.0
C480 C 0.77035 0.63274 0.0415 0.0
C481 C 0.77926 0.67128 0.01755 0.0
N482 N 0.79517 0.68873 0.96444 0.0
N483 N 0.74075 0.53926 0.05648 0.0
C484 C 0.78899 0.65117 0.98762 0.0
C485 C 0.7616 0.57467 0.03485 0.0
N486 N 0.80399 0.5714 0.95408 0.0
N487 N 0.76963 0.65226 0.07065 0.0
H488 H 0.73355 0.49663 0.05262 0.0
H489 H 0.72633 0.55285 0.07755 0.0
H490 H 0.77599 0.69467 0.07579 0.0
H491 H 0.76814 0.62625 0.08959 0.0
H492 H 0.82303 0.59556 0.93731 0.0
H493 H 0.80199 0.52876 0.94868 0.0
H494 H 0.79436 0.67753 0.94162 0.0
H495 H 0.79846 0.73196 0.96797 0.0
C496 C 0.82498 0.98335 0.74659 0.0
C497 C 0.80433 0.97238 0.77648 0.0
C498 C 0.90177 0.95463 0.79327 0.0
C499 C 0.92188 0.96527 0.76343 0.0
N500 N 0.90146 0.97244 0.71038 0.0
N501 N 0.82222 0.92951 0.82505 0.0
C502 C 0.88278 0.9734 0.73969 0.0
C503 C 0.84252 0.95238 0.79884 0.0
N504 N 0.79096 0.00723 0.7252 0.0
N505 N 0.93892 0.94969 0.81672 0.0
H506 H 0.77929 0.92441 0.82917 0.0
H507 H 0.84773 0.90987 0.84104 0.0
H508 H 0.9824 0.94896 0.81368 0.0
H509 H 0.92655 0.94954 0.83939 0.0
H510 H 0.80584 0.02215 0.7045 0.0
H511 H 0.74911 0.01785 0.72891 0.0
H512 H 0.87463 0.97274 0.69172 0.0
H513 H 0.94365 0.96519 0.70493 0.0
C514 C 0.75305 0.07692 0.99481 0.0
C515 C 0.76203 0.05523 0.02446 0.0
C516 C 0.77093 0.15143 0.04454 0.0
C517 C 0.75988 0.17326 1.01519 0.0
N518 N 0.75116 0.15869 0.96151 0.0
N519 N 0.79352 0.07033 0.07566 0.0
C520 C 0.75461 0.1364 0.98999 0.0
C521 C 0.77548 0.09218 0.04871 0.0
N522 N 0.74055 0.0408 0.97162 0.0
N523 N 0.77406 0.18729 0.06876 0.0
H524 H 0.7972 0.02719 0.07939 0.0
H525 H 0.80954 0.09453 0.09333 0.0
H526 H 0.77322 0.23093 0.06653 0.0
H527 H 0.77446 0.17406 0.09124 0.0
H528 H 0.72754 0.05353 0.95021 0.0
H529 H 0.74048 0.99724 0.97416 0.0
H530 H 0.75144 0.13496 0.94168 0.0
H531 H 0.75225 0.20194 0.95759 0.0
C532 C 0.6101 0.03109 0.2411 0.0
C533 C 0.57332 0.03829 0.26604 0.0
C534 C 0.65485 0.04927 0.29981 0.0
C535 C 0.69131 0.03168 0.27593 0.0
N536 N 0.70256 0.0035 0.22342 0.0
N537 N 0.55912 0.05571 0.31912 0.0
C538 C 0.66888 0.02319 0.24625 0.0
C539 C 0.59536 0.04881 0.29532 0.0
N540 N 0.58827 0.03103 0.21245 0.0
N541 N 0.67725 0.06721 0.32665 0.0
H542 H 0.51566 0.05897 0.31611 0.0
H543 H 0.57164 0.05595 0.34173 0.0
H544 H 0.72044 0.06816 0.33066 0.0
H545 H 0.65368 0.08567 0.34392 0.0
H546 H 0.6128 0.03121 0.19288 0.0
H547 H 0.5453 0.03644 0.20838 0.0
H548 H 0.68726 0.98949 0.20263 0.0
H549 H 0.74562 0.99721 0.22569 0.0
C550 C 0.72817 0.86644 0.49146 0.0
C551 C 0.72184 0.82955 0.51634 0.0
C552 C 0.70497 0.9106 0.54981 0.0
C553 C 0.72121 0.94797 0.52613 0.0
N554 N 0.75185 0.95986 0.47404 0.0
N555 N 0.70504 0.81531 0.56951 0.0
C556 C 0.73258 0.92563 0.49662 0.0
C557 C 0.70956 0.85133 0.54552 0.0
N558 N 0.73069 0.84449 0.46283 0.0
N559 N 0.68442 0.93186 0.5764 0.0
H560 H 0.70528 0.77168 0.5669 0.0
H561 H 0.70395 0.82843 0.59204 0.0
H562 H 0.68079 0.9748 0.58043 0.0
H563 H 0.66634 0.90729 0.59332 0.0
H564 H 0.72979 0.86886 0.44326 0.0
H565 H 0.72811 0.80134 0.45867 0.0
H566 H 0.76802 0.94492 0.4536 0.0
H567 H 0.75575 0.00315 0.47617 0.0
C568 C 0.09494 0.04863 0.23621 0.0
C569 C 0.07271 0.03604 0.26518 0.0
C570 C 0.16833 0.02304 0.2852 0.0
C571 C 0.19114 0.03407 0.25581 0.0
N572 N 0.17653 0.07134 0.20558 0.0
N573 N 0.08684 0.02639 0.31871 0.0
C574 C 0.15442 0.05146 0.23206 0.0
C575 C 0.1092 0.02872 0.29017 0.0
N576 N 0.05898 0.05527 0.21231 0.0
N577 N 0.20202 0.00288 0.30781 0.0
H578 H 0.04364 0.03 0.3227 0.0
H579 H 0.11101 0.0265 0.33838 0.0
H580 H 0.24529 0.99795 0.30574 0.0
H581 H 0.1866 0.987 0.32816 0.0
H582 H 0.07197 0.05679 0.18978 0.0
H583 H 0.01537 0.05686 0.21509 0.0
H584 H 0.15265 0.09001 0.18858 0.0
H585 H 0.21965 0.07358 0.20166 0.0
C586 C 0.20701 0.90941 0.9779 0.0
C587 C 0.22788 0.94611 1.00082 0.0
C588 C 0.23349 0.86465 0.03549 0.0
C589 C 0.22361 0.82761 1.01092 0.0
N590 N 0.20144 0.81394 0.9583 0.0
N591 N 0.26322 0.95689 0.05214 0.0
C592 C 0.20984 0.84985 0.98206 0.0
C593 C 0.24063 0.92344 0.03005 0.0
N594 N 0.18234 0.93159 0.95267 0.0
N595 N 0.23677 0.84311 0.06413 0.0
H596 H 0.2698 0.99979 0.04969 0.0
H597 H 0.28014 0.94139 0.07221 0.0
H598 H 0.23196 0.80025 0.0685 0.0
H599 H 0.2385 0.86781 0.08363 0.0
H600 H 0.16214 0.90737 0.93628 0.0
H601 H 0.17647 0.97473 0.94995 0.0
H602 H 0.19838 0.82717 0.93587 0.0
H603 H 0.20015 0.7704 0.96109 0.0
C604 C 0.40341 0.96169 0.73818 0.0
C605 C 0.42456 0.97302 0.76765 0.0
C606 C 0.32802 0.98783 0.78647 0.0
C607 C 0.30717 0.97957 0.75656 0.0
N608 N 0.32218 0.94564 0.70575 0.0
N609 N 0.40829 0.9852 0.82093 0.0
C610 C 0.34411 0.96223 0.73299 0.0
C611 C 0.38697 0.98192 0.7922 0.0
N612 N 0.44044 0.95336 0.71485 0.0
N613 N 0.29172 0.00378 0.80901 0.0
H614 H 0.45122 0.98071 0.82537 0.0
H615 H 0.38384 0.98799 0.84044 0.0
H616 H 0.24841 0.00734 0.80572 0.0
H617 H 0.3042 0.01597 0.83063 0.0
H618 H 0.42888 0.95219 0.69211 0.0
H619 H 0.48373 0.94961 0.71829 0.0
H620 H 0.34584 0.9274 0.68846 0.0
H621 H 0.27908 0.94604 0.70123 0.0
C622 C 0.29474 0.14964 0.48665 0.0
C623 C 0.27995 0.17194 0.51538 0.0
C624 C 0.27008 0.07625 0.53576 0.0
C625 C 0.28268 0.05353 0.50651 0.0
N626 N 0.32288 0.06833 0.457 0.0
N627 N 0.26838 0.15839 0.56887 0.0
C628 C 0.30028 0.09033 0.48293 0.0
C629 C 0.27291 0.13565 0.54049 0.0
N630 N 0.30064 0.18511 0.46252 0.0
N631 N 0.25155 0.04195 0.55848 0.0
H632 H 0.26997 0.2017 0.57269 0.0
H633 H 0.26846 0.13469 0.58868 0.0
H634 H 0.25038 0.99841 0.55681 0.0
H635 H 0.23423 0.05676 0.57867 0.0
H636 H 0.30393 0.17142 0.44015 0.0
H637 H 0.29945 0.22878 0.46478 0.0
H638 H 0.34147 0.09249 0.44008 0.0
H639 H 0.32777 0.02523 0.45376 0.0
C640 C 0.25082 0.7301 0.29437 0.0
C641 C 0.21009 0.71593 0.27197 0.0
C642 C 0.25616 0.77491 0.23476 0.0
C643 C 0.29647 0.78941 0.25721 0.0
N644 N 0.33857 0.77686 0.30652 0.0
N645 N 0.16835 0.72927 0.2224 0.0
C646 C 0.2962 0.76529 0.28642 0.0
C647 C 0.2108 0.73982 0.24262 0.0
N648 N 0.24408 0.71161 0.32356 0.0
N649 N 0.26283 0.79387 0.20568 0.0
H650 H 0.13607 0.70065 0.22603 0.0
H651 H 0.16283 0.75074 0.20213 0.0
H652 H 0.29738 0.81755 0.19887 0.0
H653 H 0.23662 0.78419 0.1876 0.0
H654 H 0.27181 0.71912 0.34126 0.0
H655 H 0.20811 0.69061 0.33089 0.0
H656 H 0.3435 0.75742 0.32741 0.0
H657 H 0.37155 0.8043 0.30196 0.0
C658 C 0.04061 0.48867 0.49071 0.0
C659 C 0.02982 0.44982 0.51401 0.0
C660 C 0.95884 0.51004 0.53647 0.0
C661 C 0.97047 0.54965 0.51361 0.0
N662 N 0.02619 0.58338 0.47214 0.0
N663 N 0.97097 0.41422 0.5536 0.0
C664 C 0.01271 0.5409 0.49158 0.0
C665 C 0.98644 0.45774 0.53534 0.0
N666 N 0.07688 0.47449 0.46785 0.0
N667 N 0.92209 0.5233 0.55927 0.0
H668 H 0.98996 0.37476 0.55184 0.0
H669 H 0.93621 0.41548 0.56792 0.0
H670 H 0.90203 0.56231 0.56046 0.0
H671 H 0.91505 0.49801 0.57812 0.0
H672 H 0.08451 0.4993 0.4489 0.0
H673 H 0.09659 0.43526 0.46704 0.0
H674 H 0.0581 0.58096 0.45605 0.0
H675 H 0.0077 0.62307 0.47398 0.0
C676 C 0.22776 0.29925 0.76921 0.0
C677 C 0.28217 0.28042 0.778 0.0
C678 C 0.24526 0.18861 0.79096 0.0
C679 C 0.1935 0.20499 0.77809 0.0
N680 N 0.1337 0.273 0.7538 0.0
N681 N 0.34507 0.2072 0.79486 0.0
C682 C 0.18391 0.25979 0.7672 0.0
C683 C 0.29175 0.22497 0.7882 0.0
N684 N 0.21786 0.35491 0.76353 0.0
N685 N 0.24941 0.13822 0.8056 0.0
H686 H 0.38021 0.23331 0.79321 0.0
H687 H 0.35517 0.16558 0.7997 0.0
H688 H 0.21498 0.11132 0.80802 0.0
H689 H 0.28482 0.12576 0.81775 0.0
H690 H 0.17776 0.37176 0.76059 0.0
H691 H 0.24948 0.38522 0.76362 0.0
H692 H 0.12678 0.30988 0.74168 0.0
H693 H 0.09946 0.24549 0.75373 0.0
C694 C 0.56263 0.53534 0.9929 0.0
C695 C 0.57717 0.4954 0.01552 0.0
C696 C 0.51582 0.53991 0.05188 0.0
C697 C 0.49161 0.57067 0.0276 0.0
N698 N 0.49587 0.60541 0.97611 0.0
N699 N 0.59668 0.48697 0.06886 0.0
C700 C 0.51739 0.57232 0.99865 0.0
C701 C 0.56336 0.50651 0.04598 0.0
N702 N 0.59311 0.53922 0.9667 0.0
N703 N 0.49145 0.53972 0.07993 0.0
H704 H 0.63482 0.46664 0.06458 0.0
H705 H 0.59061 0.49759 0.09157 0.0
H706 H 0.45633 0.56396 0.0853 0.0
H707 H 0.50398 0.51282 0.09727 0.0
H708 H 0.62848 0.51495 0.96241 0.0
H709 H 0.5878 0.57071 0.95064 0.0
H710 H 0.50793 0.60275 0.95348 0.0
H711 H 0.46353 0.63427 0.97943 0.0
C712 C 0.7413 0.30211 0.76959 0.0
C713 C 0.79593 0.2854 0.75995 0.0
C714 C 0.77215 0.18694 0.76505 0.0
C715 C 0.71832 0.20391 0.77597 0.0
N716 N 0.65529 0.27574 0.79482 0.0
N717 N 0.86637 0.21416 0.75035 0.0
C718 C 0.70357 0.26093 0.77975 0.0
C719 C 0.8125 0.22844 0.75846 0.0
N720 N 0.72544 0.35738 0.76914 0.0
N721 N 0.78371 0.13137 0.75971 0.0
H722 H 0.89582 0.2429 0.74224 0.0
H723 H 0.88332 0.17411 0.75294 0.0
H724 H 0.75547 0.09903 0.76412 0.0
H725 H 0.81952 0.11697 0.74854 0.0
H726 H 0.68373 0.37057 0.77085 0.0
H727 H 0.75352 0.3903 0.76583 0.0
H728 H 0.64596 0.3167 0.8015 0.0
H729 H 0.62637 0.24669 0.80312 0.0
C730 C 0.7597 0.76625 0.2938 0.0
C731 C 0.79797 0.78298 0.27079 0.0
C732 C 0.74698 0.72994 0.23276 0.0
C733 C 0.70799 0.71366 0.25566 0.0
N734 N 0.67405 0.71742 0.30742 0.0
N735 N 0.83565 0.77477 0.2202 0.0
C736 C 0.71312 0.73238 0.28607 0.0
C737 C 0.79445 0.7623 0.24085 0.0
N738 N 0.76911 0.78294 0.32311 0.0
N739 N 0.73673 0.71602 0.20311 0.0
H740 H 0.87058 0.79941 0.22527 0.0
H741 H 0.83782 0.7583 0.1984 0.0
H742 H 0.69894 0.69815 0.19598 0.0
H743 H 0.76349 0.72434 0.18506 0.0
H744 H 0.74242 0.77592 0.34134 0.0
H745 H 0.80579 0.80364 0.3296 0.0
H746 H 0.67295 0.73233 0.32954 0.0
H747 H 0.64054 0.69053 0.30332 0.0
C748 C 0.48149 0.93589 1.01482 0.0
C749 C 0.53759 0.94712 1.00668 0.0
C750 C 0.51655 0.04493 0.99613 0.0
C751 C 0.45977 0.03333 1.00351 0.0
N752 N 0.3865 0.96742 0.01847 0.0
N753 N 0.60788 0.00603 0.98369 0.0
C754 C 0.44176 0.97872 1.01227 0.0
C755 C 0.55497 0.99987 0.99547 0.0
N756 N 0.4648 0.88468 0.02538 0.0
N757 N 0.53379 0.09864 0.99019 0.0
H758 H 0.63659 0.97282 0.98266 0.0
H759 H 0.62136 0.04196 0.97239 0.0
H760 H 0.50649 0.13286 0.98929 0.0
H761 H 0.57593 0.1102 0.98845 0.0
H762 H 0.4915 0.85006 0.02769 0.0
H763 H 0.4915 0.85006 0.02769 0.0
H764 H 0.37245 0.92749 0.02471 0.0
H765 H 0.35482 0.99756 0.01737 0.0
C766 C 0.01406 0.96136 0.5389 0.0
C767 C 0.03585 0.96 0.5091 0.0
C768 C 0.98739 0.04678 0.49545 0.0
C769 C 0.96544 0.04796 0.52524 0.0
N770 N 0.96384 0.01507 0.57694 0.0
N771 N 0.03914 0.9939 0.4576 0.0
C772 C 0.98064 0.00762 0.54748 0.0
C773 C 0.02127 1.00075 0.48693 0.0
N774 N 0.02552 0.91878 0.55881 0.0
N775 N 0.9752 0.08899 0.47542 0.0
H776 H 0.05998 0.95787 0.4502 0.0
H777 H 0.03212 0.02193 0.44002 0.0
H778 H 0.94943 0.12303 0.48054 0.0
H779 H 0.99208 0.09253 0.45379 0.0
H780 H 0.00722 0.91472 0.5801 0.0
H781 H 0.05148 0.88484 0.55374 0.0
H782 H 0.97337 0.98831 0.59477 0.0
H783 H 0.94213 0.0507 0.58418 0.0
C784 C 0.14158 0.36746 0.37796 0.0
C785 C 0.15725 0.42316 0.36967 0.0
C786 C 0.20944 0.43098 0.41826 0.0
C787 C 0.19754 0.37421 0.42564 0.0
N788 N 0.16218 0.28473 0.40855 0.0
N789 N 0.22409 0.49888 0.379 0.0
C790 C 0.16674 0.34134 0.40415 0.0
C791 C 0.19674 0.45186 0.38885 0.0
N792 N 0.1006 0.34032 0.36197 0.0
N793 N 0.22937 0.46714 0.43983 0.0
H794 H 0.21822 0.51641 0.35782 0.0
H795 H 0.25767 0.51685 0.39074 0.0
H796 H 0.23764 0.45543 0.46202 0.0
H797 H 0.23181 0.51046 0.43649 0.0
H798 H 0.08307 0.30227 0.36881 0.0
H799 H 0.08058 0.35814 0.34331 0.0
H800 H 0.14485 0.25749 0.39257 0.0
H801 H 0.18114 0.26441 0.42684 0.0
C802 C 0.33092 0.38532 0.67683 0.0
C803 C 0.36493 0.43449 0.67972 0.0
C804 C 0.35816 0.44707 0.62439 0.0
C805 C 0.32902 0.3948 0.62137 0.0
N806 N 0.29855 0.30895 0.64473 0.0
N807 N 0.41842 0.50714 0.65517 0.0
C808 C 0.31928 0.36226 0.64767 0.0
C809 C 0.38088 0.46387 0.65315 0.0
N810 N 0.30695 0.36222 0.70203 0.0
N811 N 0.36112 0.48252 0.60026 0.0
H812 H 0.43466 0.52108 0.67582 0.0
H813 H 0.43637 0.52632 0.63628 0.0
H814 H 0.34485 0.47171 0.57921 0.0
H815 H 0.37553 0.52378 0.60181 0.0
H816 H 0.31159 0.37995 0.72347 0.0
H817 H 0.27746 0.32985 0.70125 0.0
H818 H 0.29524 0.28102 0.6628 0.0
H819 H 0.29024 0.29087 0.62361 0.0
C820 C 0.39729 0.57094 0.89916 0.0
C821 C 0.37127 0.58837 0.87181 0.0
C822 C 0.30776 0.64922 0.90237 0.0
C823 C 0.32827 0.62451 0.92954 0.0
N824 N 0.3861 0.55323 0.95282 0.0
N825 N 0.2981 0.64249 0.84759 0.0
C826 C 0.37154 0.58322 0.92761 0.0
C827 C 0.3259 0.62772 0.87344 0.0
N828 N 0.44666 0.54153 0.89772 0.0
N829 N 0.27179 0.69389 0.90416 0.0
H830 H 0.31112 0.62975 0.82609 0.0
H831 H 0.26043 0.66491 0.84759 0.0
H832 H 0.257 0.70954 0.9248 0.0
H833 H 0.25992 0.71778 0.88547 0.0
H834 H 0.47032 0.53094 0.91674 0.0
H835 H 0.4666 0.53283 0.87711 0.0
H836 H 0.41288 0.51854 0.95221 0.0
H837 H 0.36723 0.55948 0.97393 0.0
C838 C 0.12834 0.56239 0.1211 0.0
C839 C 0.1708 0.60488 0.11959 0.0
C840 C 0.17749 0.60296 0.17544 0.0
C841 C 0.13295 0.56308 0.17739 0.0
N842 N 0.06151 0.50936 0.15192 0.0
N843 N 0.22386 0.67546 0.14605 0.0
C844 C 0.10704 0.54414 0.15012 0.0
C845 C 0.19122 0.62821 0.14711 0.0
N846 N 0.10985 0.53767 0.095 0.0
N847 N 0.20856 0.61529 0.20066 0.0
H848 H 0.23245 0.69648 0.12581 0.0
H849 H 0.23768 0.69671 0.16526 0.0
H850 H 0.20013 0.59822 0.22193 0.0
H851 H 0.2459 0.6382 0.20001 0.0
H852 H 0.08476 0.50182 0.09454 0.0
H853 H 0.12194 0.55126 0.07356 0.0
H854 H 0.03596 0.49939 0.13353 0.0
H855 H 0.04773 0.49243 0.17239 0.0
C856 C 0.82929 0.66078 0.62571 0.0
C857 C 0.79676 0.62751 0.60516 0.0
C858 C 0.79894 0.55109 0.64286 0.0
C859 C 0.84008 0.58027 0.66085 0.0
N860 N 0.89676 0.66328 0.66726 0.0
N861 N 0.75479 0.53711 0.59421 0.0
C862 C 0.85529 0.63563 0.65189 0.0
C863 C 0.782 0.57209 0.61398 0.0
N864 N 0.83441 0.7171 0.62043 0.0
N865 N 0.77445 0.50307 0.6534 0.0
H866 H 0.73976 0.54922 0.57315 0.0
H867 H 0.75054 0.49404 0.59774 0.0
H868 H 0.78682 0.48287 0.67293 0.0
H869 H 0.73802 0.48582 0.64409 0.0
H870 H 0.85303 0.74492 0.63567 0.0
H871 H 0.81444 0.73681 0.60226 0.0
H872 H 0.91436 0.70093 0.65987 0.0
H873 H 0.91681 0.64635 0.68616 0.0
C874 C 0.68009 0.59671 0.3518 0.0
C875 C 0.63014 0.56421 0.35056 0.0
C876 C 0.62126 0.57398 0.40632 0.0
C877 C 0.66924 0.61052 0.40706 0.0
N878 N 0.7317 0.66961 0.3781 0.0
N879 N 0.54749 0.53004 0.37595 0.0
C880 C 0.69436 0.62595 0.37892 0.0
C881 C 0.59899 0.55532 0.37764 0.0
N882 N 0.71459 0.59911 0.32699 0.0
N883 N 0.59798 0.55487 0.43265 0.0
H884 H 0.53135 0.51419 0.35567 0.0
H885 H 0.51947 0.52816 0.3941 0.0
H886 H 0.61007 0.5686 0.45403 0.0
H887 H 0.56839 0.5226 0.43335 0.0
H888 H 0.75445 0.61735 0.32739 0.0
H889 H 0.7057 0.57805 0.30678 0.0
H890 H 0.75078 0.68373 0.35831 0.0
H891 H 0.73919 0.69526 0.39691 0.0
C892 C 0.73159 0.42559 0.11862 0.0
C893 C 0.71167 0.37344 0.10771 0.0
C894 C 0.64514 0.36935 0.15128 0.0
C895 C 0.65817 0.42597 0.15914 0.0
N896 N 0.71366 0.50972 0.14728 0.0
N897 N 0.66875 0.28592 0.12165 0.0
C898 C 0.70148 0.4544 0.14208 0.0
C899 C 0.67406 0.3424 0.12654 0.0
N900 N 0.782 0.44581 0.10845 0.0
N901 N 0.60225 0.3425 0.166 0.0
H902 H 0.69269 0.26492 0.1053 0.0
H903 H 0.64634 0.25899 0.13576 0.0
H904 H 0.57968 0.36077 0.18375 0.0
H905 H 0.58587 0.30393 0.1592 0.0
H906 H 0.80175 0.48108 0.11756 0.0
H907 H 0.80862 0.42255 0.09447 0.0
H908 H 0.73774 0.53393 0.1325 0.0
H909 H 0.6976 0.53346 0.16492 0.0
C910 C 0.89935 0.46105 0.88066 0.0
C911 C 0.87624 0.43947 0.85329 0.0
C912 C 0.82616 0.36693 0.88306 0.0
C913 C 0.84261 0.39295 0.9105 0.0
N914 N 0.89412 0.46644 0.9358 0.0
N915 N 0.81042 0.37622 0.82921 0.0
C916 C 0.87958 0.4402 0.9094 0.0
C917 C 0.83781 0.39343 0.85482 0.0
N918 N 0.94097 0.50049 0.87917 0.0
N919 N 0.79903 0.31631 0.88419 0.0
H920 H 0.81674 0.3949 0.80815 0.0
H921 H 0.77738 0.34747 0.82937 0.0
H922 H 0.79064 0.29601 0.90468 0.0
H923 H 0.79029 0.29199 0.86511 0.0
H924 H 0.96404 0.51389 0.89788 0.0
H925 H 0.95462 0.51751 0.85866 0.0
H926 H 0.91517 0.50477 0.9367 0.0
H927 H 0.88258 0.45088 0.957 0.0
C928 C 0.71246 0.93751 0.88711 0.0
C929 C 0.66729 0.91082 0.87067 0.0
C930 C 0.67788 0.82905 0.90504 0.0
C931 C 0.71688 0.85947 0.92346 0.0
N932 N 0.79282 0.92562 0.92032 0.0
N933 N 0.60617 0.83059 0.8656 0.0
C934 C 0.74059 0.90874 0.91111 0.0
C935 C 0.65066 0.85583 0.87973 0.0
N936 N 0.72832 0.99137 0.88079 0.0
N937 N 0.67031 0.77304 0.91041 0.0
H938 H 0.58516 0.84863 0.84731 0.0
H939 H 0.58724 0.7939 0.87338 0.0
H940 H 0.69431 0.75136 0.92638 0.0
H941 H 0.64644 0.74671 0.89662 0.0
H942 H 0.75386 0.01505 0.89516 0.0
H943 H 0.71383 0.0143 0.86256 0.0
H944 H 0.81496 0.95839 0.91018 0.0
H945 H 0.81796 0.90115 0.93444 0.0
C946 C 0.80689 0.87892 0.15071 0.0
C947 C 0.83055 0.89866 0.1231 0.0
C948 C 0.89511 0.95902 0.15316 0.0
C949 C 0.86686 0.94366 0.18035 0.0
N950 N 0.78981 0.89497 0.2043 0.0
N951 N 0.89323 0.96357 0.09807 0.0
C952 C 0.82096 0.90531 0.17881 0.0
C953 C 0.87401 0.94006 0.12433 0.0
N954 N 0.77081 0.83419 0.1499 0.0
N955 N 0.94287 0.99074 0.15491 0.0
H956 H 0.88018 0.95021 0.0767 0.0
H957 H 0.9194 0.99866 0.09751 0.0
H958 H 0.95797 0.00666 0.1754 0.0
H959 H 0.96924 0.9982 0.13648 0.0
H960 H 0.75326 0.81591 0.16907 0.0
H961 H 0.76201 0.81221 0.12995 0.0
H962 H 0.75202 0.87286 0.20428 0.0
H963 H 0.79898 0.91283 0.22533 0.0
C964 C 0.79606 0.15088 0.40534 0.0
C965 C 0.81216 0.12238 0.43227 0.0
C966 C 0.8758 0.0627 0.40182 0.0
C967 C 0.85392 0.085 0.37438 0.0
N968 N 0.78896 0.14952 0.35039 0.0
N969 N 0.86067 0.04418 0.45517 0.0
C970 C 0.81325 0.12935 0.3762 0.0
C971 C 0.85016 0.07631 0.43013 0.0
N972 N 0.76546 0.19934 0.4076 0.0
N973 N 0.92213 0.02865 0.40074 0.0
H974 H 0.84314 0.05264 0.47638 0.0
H975 H 0.88247 0.0062 0.45436 0.0
H976 H 0.94395 0.02065 0.38062 0.0
H977 H 0.94205 0.01302 0.41993 0.0
H978 H 0.75778 0.22591 0.38934 0.0
H979 H 0.75103 0.21502 0.42832 0.0
H980 H 0.75412 0.17612 0.35047 0.0
H981 H 0.80116 0.13723 0.32873 0.0
C982 C 0.6203 0.06241 0.62445 0.0
C983 C 0.65984 0.10778 0.62341 0.0
C984 C 0.66734 0.10411 0.67895 0.0
C985 C 0.62769 0.05918 0.68057 0.0
N986 N 0.55852 0.00279 0.65506 0.0
N987 N 0.70379 0.18331 0.65056 0.0
C988 C 0.6018 0.04039 0.6533 0.0
C989 C 0.6775 0.13222 0.65106 0.0
N990 N 0.60109 0.03957 0.59802 0.0
N991 N 0.69712 0.11907 0.70415 0.0
H992 H 0.71028 0.20541 0.63042 0.0
H993 H 0.71318 0.20632 0.67004 0.0
H994 H 0.69184 0.09923 0.72496 0.0
H995 H 0.73087 0.147 0.70363 0.0
H996 H 0.57777 0.00261 0.59689 0.0
H997 H 0.6104 0.05637 0.57685 0.0
H998 H 0.5333 0.99159 0.63676 0.0
H999 H 0.54575 0.98506 0.67555 0.0
C1000 C 0.3512 0.08331 0.103 0.0
C1001 C 0.30635 0.12294 0.10053 0.0
C1002 C 0.30728 0.13259 0.15654 0.0
C1003 C 0.35256 0.09306 0.15848 0.0
N1004 N 0.42907 0.04755 0.13275 0.0
N1005 N 0.24894 0.19316 0.12465 0.0
C1006 C 0.3781 0.07412 0.13132 0.0
C1007 C 0.28644 0.14992 0.12729 0.0
N1008 N 0.36739 0.05294 0.07815 0.0
N1009 N 0.28347 0.15287 0.18251 0.0
H1010 H 0.23198 0.20513 0.10383 0.0
H1011 H 0.23702 0.21909 0.14257 0.0
H1012 H 0.29959 0.14445 0.20395 0.0
H1013 H 0.24644 0.17626 0.183 0.0
H1014 H 0.39527 0.01916 0.07916 0.0
H1015 H 0.34874 0.05801 0.05701 0.0
H1016 H 0.45283 0.03707 0.11368 0.0
H1017 H 0.45032 0.04178 0.15323 0.0
C1018 C 0.18494 0.04052 0.89322 0.0
C1019 C 0.16549 0.09122 0.90736 0.0
C1020 C 0.09838 0.10145 0.86493 0.0
C1021 C 0.11447 0.04737 0.85262 0.0
N1022 N 0.15695 0.95815 0.86497 0.0
N1023 N 0.09406 0.16267 0.90929 0.0
C1024 C 0.15257 0.01468 0.86991 0.0
C1025 C 0.11858 0.11874 0.89428 0.0
N1026 N 0.23536 0.01708 0.90088 0.0
N1027 N 0.06737 0.13886 0.84842 0.0
H1028 H 0.10919 0.17793 0.92991 0.0
H1029 H 0.05593 0.18043 0.90259 0.0
H1030 H 0.05125 0.13166 0.82698 0.0
H1031 H 0.06173 0.18055 0.85507 0.0
H1032 H 0.2528 0.9834 0.88893 0.0
H1033 H 0.26262 0.03431 0.91664 0.0
H1034 H 0.18145 0.93202 0.87858 0.0
H1035 H 0.1302 0.93649 0.8503 0.0
C1036 C 0.18842 0.86997 0.65586 0.0
C1037 C 0.14792 0.91418 0.65795 0.0
C1038 C 0.15353 0.92583 0.60238 0.0
C1039 C 0.19054 0.87892 0.59986 0.0
N1040 N 0.23663 0.801 0.62404 0.0
N1041 N 0.0838 0.97601 0.63231 0.0
C1042 C 0.20607 0.84941 0.6266 0.0
C1043 C 0.12793 0.93919 0.63079 0.0
N1044 N 0.2122 0.84941 0.68172 0.0
N1045 N 0.14409 0.95893 0.57758 0.0
H1046 H 0.06275 0.98488 0.65256 0.0
H1047 H 0.06489 0.99381 0.61338 0.0
H1048 H 0.16181 0.95072 0.55638 0.0
H1049 H 0.12308 0.99732 0.5785 0.0
H1050 H 0.24672 0.8224 0.68174 0.0
H1051 H 0.19951 0.86213 0.7033 0.0
H1052 H 0.24418 0.77403 0.64215 0.0
H1053 H 0.25142 0.78607 0.60324 0.0
C1054 C 0.32379 0.90315 0.35069 0.0
C1055 C 0.36974 0.94134 0.3495 0.0
C1056 C 0.37908 0.93345 0.40532 0.0
C1057 C 0.33394 0.8936 0.40618 0.0
N1058 N 0.27655 0.8286 0.37813 0.0
N1059 N 0.44804 0.9845 0.37488 0.0
C1060 C 0.31083 0.87472 0.37823 0.0
C1061 C 0.39947 0.95398 0.37662 0.0
N1062 N 0.29146 0.8948 0.32545 0.0
N1063 N 0.4014 0.95348 0.43171 0.0
H1064 H 0.4626 0.00153 0.35456 0.0
H1065 H 0.47563 0.98983 0.39297 0.0
H1066 H 0.39079 0.93794 0.45295 0.0
H1067 H 0.42861 0.98773 0.4327 0.0
H1068 H 0.25357 0.87279 0.32564 0.0
H1069 H 0.29973 0.91422 0.30476 0.0
H1070 H 0.25993 0.81091 0.35853 0.0
H1071 H 0.26921 0.8048 0.39761 0.0
C1072 C 0.05892 0.75044 0.351 0.0
C1073 C 0.02538 0.70139 0.34624 0.0
C1074 C 0.94097 0.76041 0.35411 0.0
C1075 C 0.97339 0.80944 0.34858 0.0
N1076 N 0.06506 0.85242 0.34924 0.0
N1077 N 0.93296 0.65938 0.34862 0.0
C1078 C 0.03309 0.80471 0.34956 0.0
C1079 C 0.96586 0.7064 0.34957 0.0
N1080 N 0.11455 0.74558 0.35827 0.0
N1081 N 0.88775 0.76514 0.36549 0.0
H1082 H 0.94979 0.61888 0.34948 0.0
H1083 H 0.88927 0.66077 0.34659 0.0
H1084 H 0.8715 0.80339 0.37302 0.0
H1085 H 0.86337 0.73078 0.37192 0.0
H1086 H 0.14033 0.77955 0.36358 0.0
H1087 H 0.13302 0.70751 0.364 0.0
H1088 H 0.10827 0.85272 0.34523 0.0
H1089 H 0.04755 0.89225 0.35252 0.0
C1090 C 0.04593 0.21565 0.60156 0.0
C1091 C 0.05066 0.27501 0.59891 0.0
C1092 C 0.94795 0.28334 0.60525 0.0
C1093 C 0.94279 0.22409 0.6023 0.0
N1094 N 0.98726 0.13648 0.61575 0.0
N1095 N 0.00915 0.36315 0.61496 0.0
C1096 C 0.99192 0.1907 0.60611 0.0
C1097 C 0.00263 0.30848 0.60614 0.0
N1098 N 0.09328 0.18325 0.5997 0.0
N1099 N 0.90025 0.31521 0.60745 0.0
H1100 H 0.04827 0.38102 0.61922 0.0
H1101 H 0.97615 0.38858 0.62228 0.0
H1102 H 0.86053 0.29709 0.61011 0.0
H1103 H 0.89967 0.35889 0.60675 0.0
H1104 H 0.09249 0.13966 0.59743 0.0
H1105 H 0.13359 0.20077 0.59987 0.0
H1106 H 0.02166 0.11092 0.62063 0.0
H1107 H 0.94926 0.12002 0.62347 0.0
C1108 C 0.44133 0.24828 0.85692 0.0
C1109 C 0.47467 0.2975 0.8535 0.0
C1110 C 0.56033 0.2402 0.85921 0.0
C1111 C 0.52759 0.19071 0.85499 0.0
N1112 N 0.43722 0.14587 0.85611 0.0
N1113 N 0.56506 0.34217 0.85476 0.0
C1114 C 0.46795 0.19444 0.85639 0.0
C1115 C 0.53403 0.29391 0.85621 0.0
N1116 N 0.38431 0.25319 0.86012 0.0
N1117 N 0.61617 0.23595 0.86618 0.0
H1118 H 0.54617 0.38183 0.8544 0.0
H1119 H 0.60876 0.34317 0.85318 0.0
H1120 H 0.63569 0.19772 0.87064 0.0
H1121 H 0.64161 0.27025 0.87132 0.0
H1122 H 0.35744 0.21971 0.86453 0.0
H1123 H 0.36389 0.29189 0.86097 0.0
H1124 H 0.39368 0.144 0.85392 0.0
H1125 H 0.45634 0.10646 0.85793 0.0
C1126 C 0.5441 0.72213 0.10106 0.0
C1127 C 0.54972 0.7809 0.09713 0.0
C1128 C 0.447 0.79151 0.10126 0.0
C1129 C 0.44144 0.73194 0.10149 0.0
N1130 N 0.4853 0.64692 0.11963 0.0
N1131 N 0.50878 0.87297 0.10354 0.0
C1132 C 0.49017 0.69905 0.10719 0.0
C1133 C 0.50185 0.81616 0.10096 0.0
N1134 N 0.59007 0.68809 0.09799 0.0
N1135 N 0.39969 0.82413 0.10033 0.0
H1136 H 0.54821 0.89204 0.10349 0.0
H1137 H 0.47628 0.90083 0.10855 0.0
H1138 H 0.35958 0.80727 0.10367 0.0
H1139 H 0.39979 0.86711 0.09601 0.0
H1140 H 0.58726 0.64439 0.09694 0.0
H1141 H 0.6307 0.7041 0.09532 0.0
H1142 H 0.51994 0.62303 0.12626 0.0
H1143 H 0.44692 0.63135 0.12737 0.0
C1144 C 0.06665 0.24112 0.6773 0.0
C1145 C 0.03258 0.1933 0.68286 0.0
C1146 C 0.94801 0.25222 0.67844 0.0
C1147 C 0.98237 0.3011 0.68085 0.0
N1148 N 0.07428 0.34304 0.6792 0.0
N1149 N 0.941 0.15121 0.68586 0.0
C1150 C 0.04178 0.29569 0.67852 0.0
C1151 C 0.97318 0.19824 0.68183 0.0
N1152 N 0.12282 0.23431 0.67183 0.0
N1153 N 0.89145 0.25717 0.67354 0.0
H1154 H 0.95861 0.11097 0.68638 0.0
H1155 H 0.89775 0.15196 0.68967 0.0
H1156 H 0.87147 0.29547 0.67001 0.0
H1157 H 0.86512 0.22309 0.66931 0.0
H1158 H 0.14949 0.26694 0.66548 0.0
H1159 H 0.14167 0.19481 0.67068 0.0
H1160 H 0.11791 0.34272 0.68136 0.0
H1161 H 0.05668 0.38326 0.67846 0.0
C1162 C 0.99442 0.70053 0.42336 0.0
C1163 C 0.9463 0.73289 0.43156 0.0
C1164 C 0.00409 0.81819 0.42632 0.0
C1165 C 0.05351 0.78496 0.42914 0.0
N1166 N 0.0966 0.6944 0.42258 0.0
N1167 N 0.9033 0.82435 0.43489 0.0
C1168 C 0.04879 0.72595 0.4249 0.0
C1169 C 0.95053 0.79247 0.43083 0.0
N1170 N 0.98837 0.64639 0.41354 0.0
N1171 N 0.00799 0.87322 0.41802 0.0
H1172 H 0.86309 0.80662 0.43539 0.0
H1173 H 0.90428 0.86765 0.43848 0.0
H1174 H 0.97311 0.89859 0.41386 0.0
H1175 H 0.04574 0.89081 0.41068 0.0
H1176 H 0.02147 0.62219 0.4052 0.0
H1177 H 0.94939 0.62799 0.4096 0.0
H1178 H 0.09712 0.65069 0.42258 0.0
H1179 H 0.13631 0.71282 0.42059 0.0
C1180 C 0.45727 0.70923 0.18216 0.0
C1181 C 0.51688 0.70252 0.18311 0.0
C1182 C 0.52729 0.80519 0.1773 0.0
C1183 C 0.4681 0.81195 0.18039 0.0
N1184 N 0.37944 0.76879 0.16743 0.0
N1185 N 0.60497 0.74265 0.16565 0.0
C1186 C 0.4336 0.76352 0.17723 0.0
C1187 C 0.55108 0.74999 0.17573 0.0
N1188 N 0.42298 0.66357 0.18547 0.0
N1189 N 0.56066 0.85179 0.17547 0.0
H1190 H 0.62096 0.70362 0.15943 0.0
H1191 H 0.63078 0.77543 0.15855 0.0
H1192 H 0.54394 0.89196 0.17234 0.0
H1193 H 0.60431 0.85075 0.1776 0.0
H1194 H 0.37984 0.66684 0.18947 0.0
H1195 H 0.43799 0.62237 0.18447 0.0
H1196 H 0.35353 0.7346 0.16262 0.0
H1197 H 0.36352 0.80667 0.15936 0.0
C1198 C 0.49914 0.19425 0.92809 0.0
C1199 C 0.44843 0.22618 0.92936 0.0
C1200 C 0.50429 0.31336 0.92726 0.0
C1201 C 0.5537 0.28164 0.93283 0.0
N1202 N 0.60076 0.19271 0.93576 0.0
N1203 N 0.40182 0.31552 0.92588 0.0
C1204 C 0.55189 0.22216 0.93183 0.0
C1205 C 0.45098 0.28572 0.927 0.0
N1206 N 0.49686 0.13745 0.92363 0.0
N1207 N 0.50873 0.37001 0.92287 0.0
H1208 H 0.36279 0.29566 0.92385 0.0
H1209 H 0.39926 0.35909 0.92738 0.0
H1210 H 0.54758 0.39047 0.92277 0.0
H1211 H 0.47529 0.39583 0.91674 0.0
H1212 H 0.53217 0.11225 0.92036 0.0
H1213 H 0.45943 0.11592 0.91987 0.0
H1214 H 0.60288 0.14934 0.93846 0.0
H1215 H 0.63988 0.21262 0.93686 0.0
loop_
_geom_bond_atom_site_label_1
_geom_bond_atom_site_label_2
_geom_bond_distance
_geom_bond_site_symmetry_2
_ccdc_geom_bond_type
Sc0 O3 2.025 . S
Sc0 O10 2.105 . S
Sc0 O13 2.105 . S
Sc0 O16 2.105 . S
Sc0 O19 2.105 . S
Sc1 O3 2.025 . S
Sc1 O11 2.105 . S
Sc1 O15 2.105 . S
Sc1 O17 2.105 . S
Sc1 O21 2.105 . S
Sc2 O3 2.025 . S
Sc2 O12 2.105 . S
Sc2 O14 2.105 . S
Sc2 O18 2.105 . S
Sc2 O20 2.105 . S
O3 Sc0 2.025 . S
O3 Sc1 2.025 . S
O3 Sc2 2.025 . S
C4 O10 1.268 . S
C4 O20 1.268 . S
C5 O11 1.268 . S
C5 O19 1.268 . S
C6 O12 1.268 . S
C6 O21 1.268 . S
C7 O13 1.268 . S
C7 O17 1.268 . S
C8 O14 1.268 . S
C8 O16 1.268 . S
C9 O15 1.268 . S
C9 O18 1.268 . S
O10 Sc0 2.105 . S
O10 C4 1.268 . S
O11 Sc1 2.105 . S
O11 C5 1.268 . S
O12 Sc2 2.105 . S
O12 C6 1.268 . S
O13 Sc0 2.105 . S
O13 C7 1.268 . S
O14 Sc2 2.105 . S
O14 C8 1.268 . S
O15 Sc1 2.105 . S
O15 C9 1.268 . S
O16 Sc0 2.105 . S
O16 C8 1.268 . S
O17 Sc1 2.105 . S
O17 C7 1.268 . S
O18 Sc2 2.105 . S
O18 C9 1.268 . S
O19 Sc0 2.105 . S
O19 C5 1.268 . S
O20 Sc2 2.105 . S
O20 C4 1.268 . S
O21 Sc1 2.105 . S
O21 C6 1.268 . S
Sc22 O25 2.025 . S
Sc22 O32 2.105 . S
Sc22 O35 2.105 . S
Sc22 O38 2.105 . S
Sc22 O41 2.105 . S
Sc23 O25 2.025 . S
Sc23 O33 2.105 . S
Sc23 O37 2.105 . S
Sc23 O39 2.105 . S
Sc23 O43 2.105 . S
Sc24 O25 2.025 . S
Sc24 O34 2.105 . S
Sc24 O36 2.105 . S
Sc24 O40 2.105 . S
Sc24 O42 2.105 . S
O25 Sc22 2.025 . S
O25 Sc23 2.025 . S
O25 Sc24 2.025 . S
C26 O32 1.268 . S
C26 O42 1.268 . S
C27 O33 1.268 . S
C27 O41 1.268 . S
C28 O34 1.268 . S
C28 O43 1.268 . S
C29 O35 1.268 . S
C29 O39 1.268 . S
C30 O36 1.268 . S
C30 O38 1.268 . S
C31 O37 1.268 . S
C31 O40 1.268 . S
O32 Sc22 2.105 . S
O32 C26 1.268 . S
O33 Sc23 2.105 . S
O33 C27 1.268 . S
O34 Sc24 2.105 . S
O34 C28 1.268 . S
O35 Sc22 2.105 . S
O35 C29 1.268 . S
O36 Sc24 2.105 . S
O36 C30 1.268 . S
O37 Sc23 2.105 . S
O37 C31 1.268 . S
O38 Sc22 2.105 . S
O38 C30 1.268 . S
O39 Sc23 2.105 . S
O39 C29 1.268 . S
O40 Sc24 2.105 . S
O40 C31 1.268 . S
O41 Sc22 2.105 . S
O41 C27 1.268 . S
O42 Sc24 2.105 . S
O42 C26 1.268 . S
O43 Sc23 2.105 . S
O43 C28 1.268 . S
Sc44 O47 2.025 . S
Sc44 O54 2.105 . S
Sc44 O57 2.105 . S
Sc44 O60 2.105 . S
Sc44 O63 2.105 . S
Sc45 O47 2.025 . S
Sc45 O55 2.105 . S
Sc45 O59 2.105 . S
Sc45 O61 2.105 . S
Sc45 O65 2.105 . S
Sc46 O47 2.025 . S
Sc46 O56 2.105 . S
Sc46 O58 2.105 . S
Sc46 O62 2.105 . S
Sc46 O64 2.105 . S
O47 Sc44 2.025 . S
O47 Sc45 2.025 . S
O47 Sc46 2.025 . S
C48 O54 1.268 . S
C48 O64 1.268 . S
C49 O55 1.268 . S
C49 O63 1.268 . S
C50 O56 1.268 . S
C50 O65 1.268 . S
C51 O57 1.268 . S
C51 O61 1.268 . S
C52 O58 1.268 . S
C52 O60 1.268 . S
C53 O59 1.268 . S
C53 O62 1.268 . S
O54 Sc44 2.105 . S
O54 C48 1.268 . S
O55 Sc45 2.105 . S
O55 C49 1.268 . S
O56 Sc46 2.105 . S
O56 C50 1.268 . S
O57 Sc44 2.105 . S
O57 C51 1.268 . S
O58 Sc46 2.105 . S
O58 C52 1.268 . S
O59 Sc45 2.105 . S
O59 C53 1.268 . S
O60 Sc44 2.105 . S
O60 C52 1.268 . S
O61 Sc45 2.105 . S
O61 C51 1.268 . S
O62 Sc46 2.105 . S
O62 C53 1.268 . S
O63 Sc44 2.105 . S
O63 C49 1.268 . S
O64 Sc46 2.105 . S
O64 C48 1.268 . S
O65 Sc45 2.105 . S
O65 C50 1.268 . S
Sc66 O69 2.025 . S
Sc66 O76 2.105 1_554 S
Sc66 O79 2.105 . S
Sc66 O82 2.112 . S
Sc66 O85 2.105 . S
Sc67 O69 2.025 . S
Sc67 O77 2.105 . S
Sc67 O81 2.105 . S
Sc67 O83 2.105 . S
Sc67 O87 2.105 . S
Sc68 O69 2.025 1_556 S
Sc68 O78 2.105 . S
Sc68 O80 2.105 . S
Sc68 O84 2.105 1_556 S
Sc68 O86 2.105 . S
O69 Sc66 2.025 . S
O69 Sc67 2.025 . S
O69 Sc68 2.025 1_554 S
C70 O76 1.268 . S
C70 O86 1.268 . S
C71 O77 1.268 . S
C71 O85 1.268 . S
C72 O78 1.268 . S
C72 O87 1.268 1_556 S
C73 O79 1.268 . S
C73 O83 1.268 . S
C74 O80 1.268 . S
C74 O82 1.260 1_556 S
C75 O81 1.268 . S
C75 O84 1.268 . S
O76 Sc66 2.105 1_556 S
O76 C70 1.268 . S
O77 Sc67 2.105 . S
O77 C71 1.268 . S
O78 Sc68 2.105 . S
O78 C72 1.268 . S
O79 Sc66 2.105 . S
O79 C73 1.268 . S
O80 Sc68 2.105 . S
O80 C74 1.268 . S
O81 Sc67 2.105 . S
O81 C75 1.268 . S
O82 Sc66 2.112 . S
O82 C74 1.260 1_554 S
O83 Sc67 2.105 . S
O83 C73 1.268 . S
O84 Sc68 2.105 1_554 S
O84 C75 1.268 . S
O85 Sc66 2.105 . S
O85 C71 1.268 . S
O86 Sc68 2.105 . S
O86 C70 1.268 . S
O87 Sc67 2.105 . S
O87 C72 1.268 1_554 S
Sc88 O91 2.025 . S
Sc88 O98 2.105 . S
Sc88 O101 2.105 . S
Sc88 O104 2.105 . S
Sc88 O107 2.105 . S
Sc89 O91 2.025 . S
Sc89 O99 2.105 . S
Sc89 O103 2.105 . S
Sc89 O105 2.105 . S
Sc89 O109 2.105 . S
Sc90 O91 2.025 . S
Sc90 O100 2.105 . S
Sc90 O102 2.105 . S
Sc90 O106 2.105 . S
Sc90 O108 2.105 . S
O91 Sc88 2.025 . S
O91 Sc89 2.025 . S
O91 Sc90 2.025 . S
C92 O98 1.268 . S
C92 O108 1.268 . S
C93 O99 1.268 . S
C93 O107 1.268 . S
C94 O100 1.268 . S
C94 O109 1.268 . S
C95 O101 1.268 . S
C95 O105 1.268 . S
C96 O102 1.268 . S
C96 O104 1.268 . S
C97 O103 1.268 . S
C97 O106 1.268 . S
O98 Sc88 2.105 . S
O98 C92 1.268 . S
O99 Sc89 2.105 . S
O99 C93 1.268 . S
O100 Sc90 2.105 . S
O100 C94 1.268 . S
O101 Sc88 2.105 . S
O101 C95 1.268 . S
O102 Sc90 2.105 . S
O102 C96 1.268 . S
O103 Sc89 2.105 . S
O103 C97 1.268 . S
O104 Sc88 2.105 . S
O104 C96 1.268 . S
O105 Sc89 2.105 . S
O105 C95 1.268 . S
O106 Sc90 2.105 . S
O106 C97 1.268 . S
O107 Sc88 2.105 . S
O107 C93 1.268 . S
O108 Sc90 2.105 . S
O108 C92 1.268 . S
O109 Sc89 2.105 . S
O109 C94 1.268 . S
Sc110 O113 2.025 . S
Sc110 O120 2.105 . S
Sc110 O123 2.105 . S
Sc110 O126 2.105 . S
Sc110 O129 2.105 . S
Sc111 O113 2.025 . S
Sc111 O121 2.105 . S
Sc111 O125 2.105 . S
Sc111 O127 2.105 . S
Sc111 O131 2.105 . S
Sc112 O113 2.025 . S
Sc112 O122 2.105 . S
Sc112 O124 2.105 . S
Sc112 O128 2.105 . S
Sc112 O130 2.105 . S
O113 Sc110 2.025 . S
O113 Sc111 2.025 . S
O113 Sc112 2.025 . S
C114 O120 1.268 . S
C114 O130 1.268 . S
C115 O121 1.268 . S
C115 O129 1.268 . S
C116 O122 1.268 . S
C116 O131 1.268 . S
C117 O123 1.268 . S
C117 O127 1.268 . S
C118 O124 1.268 . S
C118 O126 1.268 . S
C119 O125 1.268 . S
C119 O128 1.268 . S
O120 Sc110 2.105 . S
O120 C114 1.268 . S
O121 Sc111 2.105 . S
O121 C115 1.268 . S
O122 Sc112 2.105 . S
O122 C116 1.268 . S
O123 Sc110 2.105 . S
O123 C117 1.268 . S
O124 Sc112 2.105 . S
O124 C118 1.268 . S
O125 Sc111 2.105 . S
O125 C119 1.268 . S
O126 Sc110 2.105 . S
O126 C118 1.268 . S
O127 Sc111 2.105 . S
O127 C117 1.268 . S
O128 Sc112 2.105 . S
O128 C119 1.268 . S
O129 Sc110 2.105 . S
O129 C115 1.268 . S
O130 Sc112 2.105 . S
O130 C114 1.268 . S
O131 Sc111 2.105 . S
O131 C116 1.268 . S
Sc132 O135 2.025 . S
Sc132 O142 2.105 . S
Sc132 O145 2.105 . S
Sc132 O148 2.105 . S
Sc132 O151 2.105 . S
Sc133 O135 2.025 . S
Sc133 O143 2.105 . S
Sc133 O147 2.105 . S
Sc133 O149 2.105 . S
Sc133 O153 2.105 . S
Sc134 O135 2.025 . S
Sc134 O144 2.105 . S
Sc134 O146 2.105 . S
Sc134 O150 2.105 . S
Sc134 O152 2.105 . S
O135 Sc132 2.025 . S
O135 Sc133 2.025 . S
O135 Sc134 2.025 . S
C136 O142 1.268 . S
C136 O152 1.268 . S
C137 O143 1.268 . S
C137 O151 1.268 . S
C138 O144 1.268 . S
C138 O153 1.268 . S
C139 O145 1.268 . S
C139 O149 1.268 . S
C140 O146 1.268 . S
C140 O148 1.268 . S
C141 O147 1.268 . S
C141 O150 1.268 . S
O142 Sc132 2.105 . S
O142 C136 1.268 . S
O143 Sc133 2.105 . S
O143 C137 1.268 . S
O144 Sc134 2.105 . S
O144 C138 1.268 . S
O145 Sc132 2.105 . S
O145 C139 1.268 . S
O146 Sc134 2.105 . S
O146 C140 1.268 . S
O147 Sc133 2.105 . S
O147 C141 1.268 . S
O148 Sc132 2.105 . S
O148 C140 1.268 . S
O149 Sc133 2.105 . S
O149 C139 1.268 . S
O150 Sc134 2.105 . S
O150 C141 1.268 . S
O151 Sc132 2.105 . S
O151 C137 1.268 . S
O152 Sc134 2.105 . S
O152 C136 1.268 . S
O153 Sc133 2.105 . S
O153 C138 1.268 . S
Sc154 O157 2.025 . S
Sc154 O164 2.112 . S
Sc154 O167 2.105 . S
Sc154 O170 2.105 1_556 S
Sc154 O173 2.105 . S
Sc155 O157 2.025 . S
Sc155 O165 2.105 . S
Sc155 O169 2.105 . S
Sc155 O171 2.105 . S
Sc155 O175 2.105 . S
Sc156 O157 2.025 1_554 S
Sc156 O166 2.105 1_554 S
Sc156 O168 2.105 . S
Sc156 O172 2.105 . S
Sc156 O174 2.105 . S
O157 Sc154 2.025 . S
O157 Sc155 2.025 . S
O157 Sc156 2.025 1_556 S
C158 O164 1.260 1_554 S
C158 O174 1.268 . S
C159 O165 1.268 . S
C159 O173 1.268 . S
C160 O166 1.268 . S
C160 O175 1.268 . S
C161 O167 1.268 . S
C161 O171 1.268 . S
C162 O168 1.268 . S
C162 O170 1.268 . S
C163 O169 1.268 1_554 S
C163 O172 1.268 . S
O164 Sc154 2.112 . S
O164 C158 1.260 1_556 S
O165 Sc155 2.105 . S
O165 C159 1.268 . S
O166 Sc156 2.105 1_556 S
O166 C160 1.268 . S
O167 Sc154 2.105 . S
O167 C161 1.268 . S
O168 Sc156 2.105 . S
O168 C162 1.268 . S
O169 Sc155 2.105 . S
O169 C163 1.268 1_556 S
O170 Sc154 2.105 1_554 S
O170 C162 1.268 . S
O171 Sc155 2.105 . S
O171 C161 1.268 . S
O172 Sc156 2.105 . S
O172 C163 1.268 . S
O173 Sc154 2.105 . S
O173 C159 1.268 . S
O174 Sc156 2.105 . S
O174 C158 1.268 . S
O175 Sc155 2.105 . S
O175 C160 1.268 . S
Sc176 O179 2.025 1_565 S
Sc176 O186 2.105 . S
Sc176 O189 2.105 . S
Sc176 O192 2.105 . S
Sc176 O195 2.105 . S
Sc177 O179 2.025 . S
Sc177 O187 2.105 . S
Sc177 O191 2.105 . S
Sc177 O193 2.105 . S
Sc177 O197 2.105 . S
Sc178 O179 2.025 . S
Sc178 O188 2.105 . S
Sc178 O190 2.105 . S
Sc178 O194 2.105 . S
Sc178 O196 2.105 . S
O179 Sc176 2.025 1_545 S
O179 Sc177 2.025 . S
O179 Sc178 2.025 . S
C180 O186 1.268 1_545 S
C180 O196 1.268 . S
C181 O187 1.268 . S
C181 O195 1.268 1_545 S
C182 O188 1.268 . S
C182 O197 1.268 . S
C183 O189 1.268 . S
C183 O193 1.268 1_565 S
C184 O190 1.268 . S
C184 O192 1.268 1_545 S
C185 O191 1.268 . S
C185 O194 1.268 . S
O186 Sc176 2.105 . S
O186 C180 1.268 1_565 S
O187 Sc177 2.105 . S
O187 C181 1.268 . S
O188 Sc178 2.105 . S
O188 C182 1.268 . S
O189 Sc176 2.105 . S
O189 C183 1.268 . S
O190 Sc178 2.105 . S
O190 C184 1.268 . S
O191 Sc177 2.105 . S
O191 C185 1.268 . S
O192 Sc176 2.105 . S
O192 C184 1.268 1_565 S
O193 Sc177 2.105 . S
O193 C183 1.268 1_545 S
O194 Sc178 2.105 . S
O194 C185 1.268 . S
O195 Sc176 2.105 . S
O195 C181 1.268 1_565 S
O196 Sc178 2.105 . S
O196 C180 1.268 . S
O197 Sc177 2.105 . S
O197 C182 1.268 . S
Sc198 O201 2.025 . S
Sc198 O208 2.105 1_554 S
Sc198 O211 2.105 . S
Sc198 O214 2.112 . S
Sc198 O217 2.105 1_565 S
Sc199 O201 2.025 . S
Sc199 O209 2.105 1_565 S
Sc199 O213 2.105 . S
Sc199 O215 2.105 . S
Sc199 O219 2.105 . S
Sc200 O201 2.025 1_556 S
Sc200 O210 2.105 . S
Sc200 O212 2.105 . S
Sc200 O216 2.105 1_556 S
Sc200 O218 2.105 . S
O201 Sc198 2.025 . S
O201 Sc199 2.025 . S
O201 Sc200 2.025 1_554 S
C202 O208 1.268 . S
C202 O218 1.268 . S
C203 O209 1.268 . S
C203 O217 1.268 . S
C204 O210 1.268 . S
C204 O219 1.268 1_556 S
C205 O211 1.268 . S
C205 O215 1.268 . S
C206 O212 1.268 . S
C206 O214 1.260 1_556 S
C207 O213 1.268 . S
C207 O216 1.268 . S
O208 Sc198 2.105 1_556 S
O208 C202 1.268 . S
O209 Sc199 2.105 1_545 S
O209 C203 1.268 . S
O210 Sc200 2.105 . S
O210 C204 1.268 . S
O211 Sc198 2.105 . S
O211 C205 1.268 . S
O212 Sc200 2.105 . S
O212 C206 1.268 . S
O213 Sc199 2.105 . S
O213 C207 1.268 . S
O214 Sc198 2.112 . S
O214 C206 1.260 1_554 S
O215 Sc199 2.105 . S
O215 C205 1.268 . S
O216 Sc200 2.105 1_554 S
O216 C207 1.268 . S
O217 Sc198 2.105 1_545 S
O217 C203 1.268 . S
O218 Sc200 2.105 . S
O218 C202 1.268 . S
O219 Sc199 2.105 . S
O219 C204 1.268 1_554 S
Sc220 O223 2.025 . S
Sc220 O230 2.105 . S
Sc220 O233 2.105 . S
Sc220 O236 2.105 . S
Sc220 O239 2.105 . S
Sc221 O223 2.025 . S
Sc221 O231 2.105 . S
Sc221 O235 2.105 . S
Sc221 O237 2.105 . S
Sc221 O241 2.105 . S
Sc222 O223 2.025 1_545 S
Sc222 O232 2.105 . S
Sc222 O234 2.105 . S
Sc222 O238 2.105 . S
Sc222 O240 2.105 . S
O223 Sc220 2.025 . S
O223 Sc221 2.025 . S
O223 Sc222 2.025 1_565 S
C224 O230 1.268 . S
C224 O240 1.268 1_565 S
C225 O231 1.268 . S
C225 O239 1.268 . S
C226 O232 1.268 . S
C226 O241 1.268 1_545 S
C227 O233 1.268 . S
C227 O237 1.268 . S
C228 O234 1.268 1_565 S
C228 O236 1.268 . S
C229 O235 1.268 . S
C229 O238 1.268 1_565 S
O230 Sc220 2.105 . S
O230 C224 1.268 . S
O231 Sc221 2.105 . S
O231 C225 1.268 . S
O232 Sc222 2.105 . S
O232 C226 1.268 . S
O233 Sc220 2.105 . S
O233 C227 1.268 . S
O234 Sc222 2.105 . S
O234 C228 1.268 1_545 S
O235 Sc221 2.105 . S
O235 C229 1.268 . S
O236 Sc220 2.105 . S
O236 C228 1.268 . S
O237 Sc221 2.105 . S
O237 C227 1.268 . S
O238 Sc222 2.105 . S
O238 C229 1.268 1_545 S
O239 Sc220 2.105 . S
O239 C225 1.268 . S
O240 Sc222 2.105 . S
O240 C224 1.268 1_545 S
O241 Sc221 2.105 . S
O241 C226 1.268 1_565 S
Sc242 O245 2.025 . S
Sc242 O252 2.105 . S
Sc242 O255 2.105 . S
Sc242 O258 2.105 . S
Sc242 O261 2.105 1_545 S
Sc243 O245 2.025 . S
Sc243 O253 2.105 1_545 S
Sc243 O257 2.105 . S
Sc243 O259 2.105 . S
Sc243 O263 2.105 . S
Sc244 O245 2.025 . S
Sc244 O254 2.105 . S
Sc244 O256 2.105 . S
Sc244 O260 2.105 . S
Sc244 O262 2.105 . S
O245 Sc242 2.025 . S
O245 Sc243 2.025 . S
O245 Sc244 2.025 . S
C246 O252 1.268 . S
C246 O262 1.268 . S
C247 O253 1.268 . S
C247 O261 1.268 . S
C248 O254 1.268 . S
C248 O263 1.268 . S
C249 O255 1.268 . S
C249 O259 1.268 . S
C250 O256 1.268 . S
C250 O258 1.268 . S
C251 O257 1.268 . S
C251 O260 1.268 . S
O252 Sc242 2.105 . S
O252 C246 1.268 . S
O253 Sc243 2.105 1_565 S
O253 C247 1.268 . S
O254 Sc244 2.105 . S
O254 C248 1.268 . S
O255 Sc242 2.105 . S
O255 C249 1.268 . S
O256 Sc244 2.105 . S
O256 C250 1.268 . S
O257 Sc243 2.105 . S
O257 C251 1.268 . S
O258 Sc242 2.105 . S
O258 C250 1.268 . S
O259 Sc243 2.105 . S
O259 C249 1.268 . S
O260 Sc244 2.105 . S
O260 C251 1.268 . S
O261 Sc242 2.105 1_565 S
O261 C247 1.268 . S
O262 Sc244 2.105 . S
O262 C246 1.268 . S
O263 Sc243 2.105 . S
O263 C248 1.268 . S
Sc264 O267 2.025 . S
Sc264 O274 2.105 . S
Sc264 O277 2.105 . S
Sc264 O280 2.105 . S
Sc264 O283 2.105 . S
Sc265 O267 2.025 . S
Sc265 O275 2.105 . S
Sc265 O279 2.105 . S
Sc265 O281 2.105 . S
Sc265 O285 2.105 . S
Sc266 O267 2.025 1_545 S
Sc266 O276 2.105 . S
Sc266 O278 2.105 . S
Sc266 O282 2.105 . S
Sc266 O284 2.105 . S
O267 Sc264 2.025 . S
O267 Sc265 2.025 . S
O267 Sc266 2.025 1_565 S
C268 O274 1.268 . S
C268 O284 1.268 1_565 S
C269 O275 1.268 . S
C269 O283 1.268 . S
C270 O276 1.268 1_565 S
C270 O285 1.268 . S
C271 O277 1.268 . S
C271 O281 1.268 . S
C272 O278 1.268 1_565 S
C272 O280 1.268 . S
C273 O279 1.268 1_545 S
C273 O282 1.268 . S
O274 Sc264 2.105 . S
O274 C268 1.268 . S
O275 Sc265 2.105 . S
O275 C269 1.268 . S
O276 Sc266 2.105 . S
O276 C270 1.268 1_545 S
O277 Sc264 2.105 . S
O277 C271 1.268 . S
O278 Sc266 2.105 . S
O278 C272 1.268 1_545 S
O279 Sc265 2.105 . S
O279 C273 1.268 1_565 S
O280 Sc264 2.105 . S
O280 C272 1.268 . S
O281 Sc265 2.105 . S
O281 C271 1.268 . S
O282 Sc266 2.105 . S
O282 C273 1.268 . S
O283 Sc264 2.105 . S
O283 C269 1.268 . S
O284 Sc266 2.105 . S
O284 C268 1.268 1_545 S
O285 Sc265 2.105 . S
O285 C270 1.268 . S
Sc286 O289 2.025 1_554 S
Sc286 O296 2.105 . S
Sc286 O299 2.105 1_554 S
Sc286 O302 2.105 . S
Sc286 O305 2.105 . S
Sc287 O289 2.025 . S
Sc287 O297 2.105 . S
Sc287 O301 2.105 . S
Sc287 O303 2.105 . S
Sc287 O307 2.105 1_545 S
Sc288 O289 2.025 . S
Sc288 O298 2.105 1_545 S
Sc288 O300 2.112 . S
Sc288 O304 2.105 . S
Sc288 O306 2.105 1_556 S
O289 Sc286 2.025 1_556 S
O289 Sc287 2.025 . S
O289 Sc288 2.025 . S
C290 O296 1.268 . S
C290 O306 1.268 . S
C291 O297 1.268 1_554 S
C291 O305 1.268 . S
C292 O298 1.268 . S
C292 O307 1.268 . S
C293 O299 1.268 . S
C293 O303 1.268 . S
C294 O300 1.260 1_554 S
C294 O302 1.268 . S
C295 O301 1.268 . S
C295 O304 1.268 . S
O296 Sc286 2.105 . S
O296 C290 1.268 . S
O297 Sc287 2.105 . S
O297 C291 1.268 1_556 S
O298 Sc288 2.105 1_565 S
O298 C292 1.268 . S
O299 Sc286 2.105 1_556 S
O299 C293 1.268 . S
O300 Sc288 2.112 . S
O300 C294 1.260 1_556 S
O301 Sc287 2.105 . S
O301 C295 1.268 . S
O302 Sc286 2.105 . S
O302 C294 1.268 . S
O303 Sc287 2.105 . S
O303 C293 1.268 . S
O304 Sc288 2.105 . S
O304 C295 1.268 . S
O305 Sc286 2.105 . S
O305 C291 1.268 . S
O306 Sc288 2.105 1_554 S
O306 C290 1.268 . S
O307 Sc287 2.105 1_565 S
O307 C292 1.268 . S
Sc308 O311 2.025 1_565 S
Sc308 O318 2.105 . S
Sc308 O321 2.105 . S
Sc308 O324 2.105 . S
Sc308 O327 2.105 . S
Sc309 O311 2.025 . S
Sc309 O319 2.105 . S
Sc309 O323 2.105 . S
Sc309 O325 2.105 . S
Sc309 O329 2.105 . S
Sc310 O311 2.025 . S
Sc310 O320 2.105 . S
Sc310 O322 2.105 . S
Sc310 O326 2.105 . S
Sc310 O328 2.105 . S
O311 Sc308 2.025 1_545 S
O311 Sc309 2.025 . S
O311 Sc310 2.025 . S
C312 O318 1.268 1_545 S
C312 O328 1.268 . S
C313 O319 1.268 1_565 S
C313 O327 1.268 . S
C314 O320 1.268 . S
C314 O329 1.268 . S
C315 O321 1.268 1_545 S
C315 O325 1.268 . S
C316 O322 1.268 . S
C316 O324 1.268 1_545 S
C317 O323 1.268 . S
C317 O326 1.268 . S
O318 Sc308 2.105 . S
O318 C312 1.268 1_565 S
O319 Sc309 2.105 . S
O319 C313 1.268 1_545 S
O320 Sc310 2.105 . S
O320 C314 1.268 . S
O321 Sc308 2.105 . S
O321 C315 1.268 1_565 S
O322 Sc310 2.105 . S
O322 C316 1.268 . S
O323 Sc309 2.105 . S
O323 C317 1.268 . S
O324 Sc308 2.105 . S
O324 C316 1.268 1_565 S
O325 Sc309 2.105 . S
O325 C315 1.268 . S
O326 Sc310 2.105 . S
O326 C317 1.268 . S
O327 Sc308 2.105 . S
O327 C313 1.268 . S
O328 Sc310 2.105 . S
O328 C312 1.268 . S
O329 Sc309 2.105 . S
O329 C314 1.268 . S
Sc330 O333 2.025 . S
Sc330 O340 2.105 . S
Sc330 O343 2.105 1_565 S
Sc330 O346 2.105 . S
Sc330 O349 2.105 . S
Sc331 O333 2.025 . S
Sc331 O341 2.105 . S
Sc331 O345 2.105 . S
Sc331 O347 2.105 1_565 S
Sc331 O351 2.105 . S
Sc332 O333 2.025 . S
Sc332 O342 2.105 . S
Sc332 O344 2.105 . S
Sc332 O348 2.105 . S
Sc332 O350 2.105 . S
O333 Sc330 2.025 . S
O333 Sc331 2.025 . S
O333 Sc332 2.025 . S
C334 O340 1.268 . S
C334 O350 1.268 . S
C335 O341 1.268 . S
C335 O349 1.268 . S
C336 O342 1.268 . S
C336 O351 1.268 . S
C337 O343 1.268 . S
C337 O347 1.268 . S
C338 O344 1.268 . S
C338 O346 1.268 . S
C339 O345 1.268 . S
C339 O348 1.268 . S
O340 Sc330 2.105 . S
O340 C334 1.268 . S
O341 Sc331 2.105 . S
O341 C335 1.268 . S
O342 Sc332 2.105 . S
O342 C336 1.268 . S
O343 Sc330 2.105 1_545 S
O343 C337 1.268 . S
O344 Sc332 2.105 . S
O344 C338 1.268 . S
O345 Sc331 2.105 . S
O345 C339 1.268 . S
O346 Sc330 2.105 . S
O346 C338 1.268 . S
O347 Sc331 2.105 1_545 S
O347 C337 1.268 . S
O348 Sc332 2.105 . S
O348 C339 1.268 . S
O349 Sc330 2.105 . S
O349 C335 1.268 . S
O350 Sc332 2.105 . S
O350 C334 1.268 . S
O351 Sc331 2.105 . S
O351 C336 1.268 . S
C352 C353 1.363 . S
C352 C358 1.379 . S
C352 N360 1.356 . S
C353 C352 1.363 . S
C353 C359 1.363 . S
C354 C355 1.363 . S
C354 C359 1.379 . S
C354 N361 1.356 . S
C355 C354 1.363 . S
C355 C358 1.363 . S
N356 C358 1.356 . S
N356 H368 0.984 . S
N356 H369 0.985 . S
N357 C359 1.356 . S
N357 H362 0.984 . S
N357 H363 0.985 . S
C358 C352 1.379 . S
C358 C355 1.363 . S
C358 N356 1.356 . S
C359 C353 1.363 . S
C359 C354 1.379 . S
C359 N357 1.356 . S
N360 C352 1.356 . S
N360 H366 0.984 . S
N360 H367 0.984 . S
N361 C354 1.356 . S
N361 H364 0.984 . S
N361 H365 0.985 . S
H362 N357 0.984 . S
H363 N357 0.985 . S
H364 N361 0.984 . S
H365 N361 0.985 . S
H366 N360 0.984 . S
H367 N360 0.984 . S
H368 N356 0.984 . S
H369 N356 0.985 . S
C370 C371 1.363 . S
C370 C376 1.379 . S
C370 N378 1.356 . S
C371 C370 1.363 . S
C371 C377 1.363 . S
C372 C373 1.363 . S
C372 C377 1.379 . S
C372 N379 1.356 . S
C373 C372 1.363 . S
C373 C376 1.363 . S
N374 C376 1.356 . S
N374 H386 0.984 . S
N374 H387 0.985 . S
N375 C377 1.356 . S
N375 H380 0.984 . S
N375 H381 0.985 . S
C376 C370 1.379 . S
C376 C373 1.363 . S
C376 N374 1.356 . S
C377 C371 1.363 . S
C377 C372 1.379 . S
C377 N375 1.356 . S
N378 C370 1.356 . S
N378 H384 0.984 . S
N378 H385 0.984 . S
N379 C372 1.356 . S
N379 H382 0.984 . S
N379 H383 0.985 . S
H380 N375 0.984 . S
H381 N375 0.985 . S
H382 N379 0.984 . S
H383 N379 0.985 . S
H384 N378 0.984 . S
H385 N378 0.984 . S
H386 N374 0.984 . S
H387 N374 0.985 . S
C388 C389 1.363 . S
C388 C394 1.379 . S
C388 N396 1.356 . S
C389 C388 1.363 . S
C389 C395 1.363 . S
C390 C391 1.363 . S
C390 C395 1.379 . S
C390 N397 1.356 1_455 S
C391 C390 1.363 . S
C391 C394 1.363 . S
N392 C394 1.356 . S
N392 H404 0.984 . S
N392 H405 0.985 1_455 S
N393 C395 1.356 . S
N393 H398 0.984 . S
N393 H399 0.985 . S
C394 C388 1.379 . S
C394 C391 1.363 . S
C394 N392 1.356 . S
C395 C389 1.363 . S
C395 C390 1.379 . S
C395 N393 1.356 . S
N396 C388 1.356 . S
N396 H402 0.984 . S
N396 H403 0.984 . S
N397 C390 1.356 1_655 S
N397 H400 0.984 . S
N397 H401 0.985 . S
H398 N393 0.984 . S
H399 N393 0.985 . S
H400 N397 0.984 . S
H401 N397 0.985 . S
H402 N396 0.984 . S
H403 N396 0.984 . S
H404 N392 0.984 . S
H405 N392 0.985 1_655 S
C406 C407 1.363 1_556 S
C406 C412 1.386 . S
C406 N414 1.356 . S
C407 C406 1.363 1_554 S
C407 C413 1.363 . S
C408 C409 1.363 . S
C408 C413 1.379 . S
C408 N415 1.356 . S
C409 C408 1.363 . S
C409 C412 1.338 1_554 S
N410 C412 1.368 . S
N410 H422 0.984 . S
N410 H423 0.985 . S
N411 C413 1.356 . S
N411 H416 0.984 . S
N411 H417 0.985 . S
C412 C406 1.386 . S
C412 C409 1.338 1_556 S
C412 N410 1.368 . S
C413 C407 1.363 . S
C413 C408 1.379 . S
C413 N411 1.356 . S
N414 C406 1.356 . S
N414 H420 0.984 . S
N414 H421 0.984 . S
N415 C408 1.356 . S
N415 H418 0.984 . S
N415 H419 0.985 . S
H416 N411 0.984 . S
H417 N411 0.985 . S
H418 N415 0.984 . S
H419 N415 0.985 . S
H420 N414 0.984 . S
H421 N414 0.984 . S
H422 N410 0.984 . S
H423 N410 0.985 . S
C424 C425 1.363 . S
C424 C430 1.379 . S
C424 N432 1.356 . S
C425 C424 1.363 . S
C425 C431 1.363 . S
C426 C427 1.363 . S
C426 C431 1.379 . S
C426 N433 1.356 . S
C427 C426 1.363 . S
C427 C430 1.363 . S
N428 C430 1.356 . S
N428 H440 0.984 . S
N428 H441 0.985 . S
N429 C431 1.356 . S
N429 H434 0.984 . S
N429 H435 0.985 . S
C430 C424 1.379 . S
C430 C427 1.363 . S
C430 N428 1.356 . S
C431 C425 1.363 . S
C431 C426 1.379 . S
C431 N429 1.356 . S
N432 C424 1.356 . S
N432 H438 0.984 . S
N432 H439 0.984 . S
N433 C426 1.356 . S
N433 H436 0.984 . S
N433 H437 0.985 . S
H434 N429 0.984 . S
H435 N429 0.985 . S
H436 N433 0.984 . S
H437 N433 0.985 . S
H438 N432 0.984 . S
H439 N432 0.984 . S
H440 N428 0.984 . S
H441 N428 0.985 . S
C442 C443 1.363 . S
C442 C448 1.379 . S
C442 N450 1.356 . S
C443 C442 1.363 . S
C443 C449 1.363 . S
C444 C445 1.363 . S
C444 C449 1.379 . S
C444 N451 1.356 . S
C445 C444 1.363 . S
C445 C448 1.363 . S
N446 C448 1.356 . S
N446 H458 0.984 . S
N446 H459 0.985 . S
N447 C449 1.356 . S
N447 H452 0.984 . S
N447 H453 0.985 . S
C448 C442 1.379 . S
C448 C445 1.363 . S
C448 N446 1.356 . S
C449 C443 1.363 . S
C449 C444 1.379 . S
C449 N447 1.356 . S
N450 C442 1.356 . S
N450 H456 0.984 . S
N450 H457 0.984 . S
N451 C444 1.356 . S
N451 H454 0.984 . S
N451 H455 0.985 . S
H452 N447 0.984 . S
H453 N447 0.985 . S
H454 N451 0.984 . S
H455 N451 0.985 . S
H456 N450 0.984 . S
H457 N450 0.984 . S
H458 N446 0.984 . S
H459 N446 0.985 . S
C460 C461 1.363 . S
C460 C466 1.379 . S
C460 N468 1.356 . S
C461 C460 1.363 . S
C461 C467 1.363 . S
C462 C463 1.363 . S
C462 C467 1.379 . S
C462 N469 1.356 1_655 S
C463 C462 1.363 . S
C463 C466 1.363 . S
N464 C466 1.356 . S
N464 H476 0.984 . S
N464 H477 0.985 1_655 S
N465 C467 1.356 . S
N465 H470 0.984 . S
N465 H471 0.985 . S
C466 C460 1.379 . S
C466 C463 1.363 . S
C466 N464 1.356 . S
C467 C461 1.363 . S
C467 C462 1.379 . S
C467 N465 1.356 . S
N468 C460 1.356 . S
N468 H474 0.984 . S
N468 H475 0.984 . S
N469 C462 1.356 1_455 S
N469 H472 0.984 . S
N469 H473 0.985 . S
H470 N465 0.984 . S
H471 N465 0.985 . S
H472 N469 0.984 . S
H473 N469 0.985 . S
H474 N468 0.984 . S
H475 N468 0.984 . S
H476 N464 0.984 . S
H477 N464 0.985 1_455 S
C478 C479 1.363 . S
C478 C484 1.379 . S
C478 N486 1.356 . S
C479 C478 1.363 . S
C479 C485 1.363 1_556 S
C480 C481 1.363 1_554 S
C480 C485 1.379 . S
C480 N487 1.356 . S
C481 C480 1.363 1_556 S
C481 C484 1.363 . S
N482 C484 1.356 . S
N482 H494 0.984 . S
N482 H495 0.985 . S
N483 C485 1.356 . S
N483 H488 0.984 . S
N483 H489 0.985 . S
C484 C478 1.379 . S
C484 C481 1.363 . S
C484 N482 1.356 . S
C485 C479 1.363 1_554 S
C485 C480 1.379 . S
C485 N483 1.356 . S
N486 C478 1.356 . S
N486 H492 0.984 . S
N486 H493 0.984 . S
N487 C480 1.356 . S
N487 H490 0.984 . S
N487 H491 0.985 . S
H488 N483 0.984 . S
H489 N483 0.985 . S
H490 N487 0.984 . S
H491 N487 0.985 . S
H492 N486 0.984 . S
H493 N486 0.984 . S
H494 N482 0.984 . S
H495 N482 0.985 . S
C496 C497 1.363 1_565 S
C496 C502 1.379 . S
C496 N504 1.356 . S
C497 C496 1.363 1_545 S
C497 C503 1.363 . S
C498 C499 1.363 1_545 S
C498 C503 1.379 . S
C498 N505 1.356 1_655 S
C499 C498 1.363 1_565 S
C499 C502 1.363 . S
N500 C502 1.356 . S
N500 H512 0.984 . S
N500 H513 0.985 1_655 S
N501 C503 1.356 . S
N501 H506 0.984 . S
N501 H507 0.985 . S
C502 C496 1.379 . S
C502 C499 1.363 . S
C502 N500 1.356 . S
C503 C497 1.363 . S
C503 C498 1.379 . S
C503 N501 1.356 . S
N504 C496 1.356 . S
N504 H510 0.984 . S
N504 H511 0.984 . S
N505 C498 1.356 1_455 S
N505 H508 0.984 . S
N505 H509 0.985 1_455 S
H506 N501 0.984 . S
H507 N501 0.985 . S
H508 N505 0.984 . S
H509 N505 0.985 1_655 S
H510 N504 0.984 . S
H511 N504 0.984 . S
H512 N500 0.984 . S
H513 N500 0.985 1_455 S
C514 C515 1.363 1_556 S
C514 C520 1.379 . S
C514 N522 1.356 . S
C515 C514 1.363 1_554 S
C515 C521 1.363 . S
C516 C517 1.363 . S
C516 C521 1.379 . S
C516 N523 1.356 . S
C517 C516 1.363 . S
C517 C520 1.363 1_554 S
N518 C520 1.356 . S
N518 H530 0.984 . S
N518 H531 0.985 . S
N519 C521 1.356 . S
N519 H524 0.984 . S
N519 H525 0.985 . S
C520 C514 1.379 . S
C520 C517 1.363 1_556 S
C520 N518 1.356 . S
C521 C515 1.363 . S
C521 C516 1.379 . S
C521 N519 1.356 . S
N522 C514 1.356 . S
N522 H528 0.984 . S
N522 H529 0.984 . S
N523 C516 1.356 . S
N523 H526 0.984 . S
N523 H527 0.985 . S
H524 N519 0.984 . S
H525 N519 0.985 . S
H526 N523 0.984 . S
H527 N523 0.985 . S
H528 N522 0.984 . S
H529 N522 0.984 . S
H530 N518 0.984 . S
H531 N518 0.985 . S
C532 C533 1.363 1_565 S
C532 C538 1.379 . S
C532 N540 1.356 . S
C533 C532 1.363 1_545 S
C533 C539 1.363 . S
C534 C535 1.363 1_545 S
C534 C539 1.379 . S
C534 N541 1.356 . S
C535 C534 1.363 1_565 S
C535 C538 1.363 . S
N536 C538 1.356 . S
N536 H548 0.984 . S
N536 H549 0.985 . S
N537 C539 1.356 . S
N537 H542 0.984 . S
N537 H543 0.985 . S
C538 C532 1.379 . S
C538 C535 1.363 . S
C538 N536 1.356 . S
C539 C533 1.363 . S
C539 C534 1.379 . S
C539 N537 1.356 . S
N540 C532 1.356 . S
N540 H546 0.984 . S
N540 H547 0.984 . S
N541 C534 1.356 . S
N541 H544 0.984 . S
N541 H545 0.985 . S
H542 N537 0.984 . S
H543 N537 0.985 . S
H544 N541 0.984 . S
H545 N541 0.985 . S
H546 N540 0.984 . S
H547 N540 0.984 . S
H548 N536 0.984 . S
H549 N536 0.985 . S
C550 C551 1.363 . S
C550 C556 1.379 . S
C550 N558 1.356 . S
C551 C550 1.363 . S
C551 C557 1.363 . S
C552 C553 1.363 . S
C552 C557 1.379 . S
C552 N559 1.356 . S
C553 C552 1.363 . S
C553 C556 1.363 . S
N554 C556 1.356 . S
N554 H566 0.984 . S
N554 H567 0.985 . S
N555 C557 1.356 . S
N555 H560 0.984 . S
N555 H561 0.985 . S
C556 C550 1.379 . S
C556 C553 1.363 . S
C556 N554 1.356 . S
C557 C551 1.363 . S
C557 C552 1.379 . S
C557 N555 1.356 . S
N558 C550 1.356 . S
N558 H564 0.984 . S
N558 H565 0.984 . S
N559 C552 1.356 . S
N559 H562 0.984 . S
N559 H563 0.985 . S
H560 N555 0.984 . S
H561 N555 0.985 . S
H562 N559 0.984 . S
H563 N559 0.985 . S
H564 N558 0.984 . S
H565 N558 0.984 . S
H566 N554 0.984 . S
H567 N554 0.985 . S
C568 C569 1.363 . S
C568 C574 1.379 . S
C568 N576 1.356 . S
C569 C568 1.363 . S
C569 C575 1.363 1_545 S
C570 C571 1.363 . S
C570 C575 1.379 . S
C570 N577 1.356 . S
C571 C570 1.363 . S
C571 C574 1.363 1_565 S
N572 C574 1.356 . S
N572 H584 0.984 . S
N572 H585 0.985 . S
N573 C575 1.356 . S
N573 H578 0.984 1_455 S
N573 H579 0.985 . S
C574 C568 1.379 . S
C574 C571 1.363 1_545 S
C574 N572 1.356 . S
C575 C569 1.363 1_565 S
C575 C570 1.379 . S
C575 N573 1.356 . S
N576 C568 1.356 . S
N576 H582 0.984 . S
N576 H583 0.984 1_455 S
N577 C570 1.356 . S
N577 H580 0.984 . S
N577 H581 0.985 . S
H578 N573 0.984 1_655 S
H579 N573 0.985 . S
H580 N577 0.984 . S
H581 N577 0.985 . S
H582 N576 0.984 . S
H583 N576 0.984 1_655 S
H584 N572 0.984 . S
H585 N572 0.985 . S
C586 C587 1.363 . S
C586 C592 1.379 . S
C586 N594 1.356 . S
C587 C586 1.363 . S
C587 C593 1.363 1_556 S
C588 C589 1.363 1_554 S
C588 C593 1.379 . S
C588 N595 1.356 . S
C589 C588 1.363 1_556 S
C589 C592 1.363 . S
N590 C592 1.356 . S
N590 H602 0.984 . S
N590 H603 0.985 . S
N591 C593 1.356 . S
N591 H596 0.984 . S
N591 H597 0.985 . S
C592 C586 1.379 . S
C592 C589 1.363 . S
C592 N590 1.356 . S
C593 C587 1.363 1_554 S
C593 C588 1.379 . S
C593 N591 1.356 . S
N594 C586 1.356 . S
N594 H600 0.984 . S
N594 H601 0.984 . S
N595 C588 1.356 . S
N595 H598 0.984 . S
N595 H599 0.985 . S
H596 N591 0.984 . S
H597 N591 0.985 . S
H598 N595 0.984 . S
H599 N595 0.985 . S
H600 N594 0.984 . S
H601 N594 0.984 . S
H602 N590 0.984 . S
H603 N590 0.985 . S
C604 C605 1.363 . S
C604 C610 1.379 . S
C604 N612 1.356 . S
C605 C604 1.363 . S
C605 C611 1.363 1_565 S
C606 C607 1.363 . S
C606 C611 1.379 . S
C606 N613 1.356 . S
C607 C606 1.363 . S
C607 C610 1.363 1_545 S
N608 C610 1.356 . S
N608 H620 0.984 . S
N608 H621 0.985 . S
N609 C611 1.356 . S
N609 H614 0.984 . S
N609 H615 0.985 . S
C610 C604 1.379 . S
C610 C607 1.363 1_565 S
C610 N608 1.356 . S
C611 C605 1.363 1_545 S
C611 C606 1.379 . S
C611 N609 1.356 . S
N612 C604 1.356 . S
N612 H618 0.984 . S
N612 H619 0.984 . S
N613 C606 1.356 . S
N613 H616 0.984 . S
N613 H617 0.985 . S
H614 N609 0.984 . S
H615 N609 0.985 . S
H616 N613 0.984 . S
H617 N613 0.985 . S
H618 N612 0.984 . S
H619 N612 0.984 . S
H620 N608 0.984 . S
H621 N608 0.985 . S
C622 C623 1.363 . S
C622 C628 1.379 . S
C622 N630 1.356 . S
C623 C622 1.363 . S
C623 C629 1.363 . S
C624 C625 1.363 . S
C624 C629 1.379 . S
C624 N631 1.356 . S
C625 C624 1.363 . S
C625 C628 1.363 . S
N626 C628 1.356 . S
N626 H638 0.984 . S
N626 H639 0.985 . S
N627 C629 1.356 . S
N627 H632 0.984 . S
N627 H633 0.985 . S
C628 C622 1.379 . S
C628 C625 1.363 . S
C628 N626 1.356 . S
C629 C623 1.363 . S
C629 C624 1.379 . S
C629 N627 1.356 . S
N630 C622 1.356 . S
N630 H636 0.984 . S
N630 H637 0.984 . S
N631 C624 1.356 . S
N631 H634 0.984 . S
N631 H635 0.985 . S
H632 N627 0.984 . S
H633 N627 0.985 . S
H634 N631 0.984 . S
H635 N631 0.985 . S
H636 N630 0.984 . S
H637 N630 0.984 . S
H638 N626 0.984 . S
H639 N626 0.985 . S
C640 C641 1.363 . S
C640 C646 1.379 . S
C640 N648 1.356 . S
C641 C640 1.363 . S
C641 C647 1.363 . S
C642 C643 1.363 . S
C642 C647 1.379 . S
C642 N649 1.356 . S
C643 C642 1.363 . S
C643 C646 1.363 . S
N644 C646 1.356 . S
N644 H656 0.984 . S
N644 H657 0.985 . S
N645 C647 1.356 . S
N645 H650 0.984 . S
N645 H651 0.985 . S
C646 C640 1.379 . S
C646 C643 1.363 . S
C646 N644 1.356 . S
C647 C641 1.363 . S
C647 C642 1.379 . S
C647 N645 1.356 . S
N648 C640 1.356 . S
N648 H654 0.984 . S
N648 H655 0.984 . S
N649 C642 1.356 . S
N649 H652 0.984 . S
N649 H653 0.985 . S
H650 N645 0.984 . S
H651 N645 0.985 . S
H652 N649 0.984 . S
H653 N649 0.985 . S
H654 N648 0.984 . S
H655 N648 0.984 . S
H656 N644 0.984 . S
H657 N644 0.985 . S
C658 C659 1.363 . S
C658 C664 1.379 1_455 S
C658 N666 1.356 . S
C659 C658 1.363 . S
C659 C665 1.363 . S
C660 C661 1.363 . S
C660 C665 1.379 1_655 S
C660 N667 1.356 . S
C661 C660 1.363 . S
C661 C664 1.363 . S
N662 C664 1.356 . S
N662 H674 0.984 . S
N662 H675 0.985 . S
N663 C665 1.356 . S
N663 H668 0.984 . S
N663 H669 0.985 . S
C664 C658 1.379 1_655 S
C664 C661 1.363 . S
C664 N662 1.356 . S
C665 C659 1.363 . S
C665 C660 1.379 1_455 S
C665 N663 1.356 . S
N666 C658 1.356 . S
N666 H672 0.984 . S
N666 H673 0.984 . S
N667 C660 1.356 . S
N667 H670 0.984 . S
N667 H671 0.985 . S
H668 N663 0.984 . S
H669 N663 0.985 . S
H670 N667 0.984 . S
H671 N667 0.985 . S
H672 N666 0.984 . S
H673 N666 0.984 . S
H674 N662 0.984 . S
H675 N662 0.985 . S
C676 C677 1.363 . S
C676 C682 1.379 . S
C676 N684 1.356 . S
C677 C676 1.363 . S
C677 C683 1.363 . S
C678 C679 1.363 . S
C678 C683 1.379 . S
C678 N685 1.356 . S
C679 C678 1.363 . S
C679 C682 1.363 . S
N680 C682 1.356 . S
N680 H692 0.984 . S
N680 H693 0.985 . S
N681 C683 1.356 . S
N681 H686 0.984 . S
N681 H687 0.985 . S
C682 C676 1.379 . S
C682 C679 1.363 . S
C682 N680 1.356 . S
C683 C677 1.363 . S
C683 C678 1.379 . S
C683 N681 1.356 . S
N684 C676 1.356 . S
N684 H690 0.984 . S
N684 H691 0.984 . S
N685 C678 1.356 . S
N685 H688 0.984 . S
N685 H689 0.985 . S
H686 N681 0.984 . S
H687 N681 0.985 . S
H688 N685 0.984 . S
H689 N685 0.985 . S
H690 N684 0.984 . S
H691 N684 0.984 . S
H692 N680 0.984 . S
H693 N680 0.985 . S
C694 C695 1.363 1_556 S
C694 C700 1.379 . S
C694 N702 1.356 . S
C695 C694 1.363 1_554 S
C695 C701 1.363 . S
C696 C697 1.363 1_554 S
C696 C701 1.379 . S
C696 N703 1.356 . S
C697 C696 1.363 1_556 S
C697 C700 1.363 . S
N698 C700 1.356 . S
N698 H710 0.984 . S
N698 H711 0.985 . S
N699 C701 1.356 . S
N699 H704 0.984 . S
N699 H705 0.985 . S
C700 C694 1.379 . S
C700 C697 1.363 . S
C700 N698 1.356 . S
C701 C695 1.363 . S
C701 C696 1.379 . S
C701 N699 1.356 . S
N702 C694 1.356 . S
N702 H708 0.984 . S
N702 H709 0.984 . S
N703 C696 1.356 . S
N703 H706 0.984 . S
N703 H707 0.985 . S
H704 N699 0.984 . S
H705 N699 0.985 . S
H706 N703 0.984 . S
H707 N703 0.985 . S
H708 N702 0.984 . S
H709 N702 0.984 . S
H710 N698 0.984 . S
H711 N698 0.985 . S
C712 C713 1.363 . S
C712 C718 1.379 . S
C712 N720 1.356 . S
C713 C712 1.363 . S
C713 C719 1.363 . S
C714 C715 1.363 . S
C714 C719 1.379 . S
C714 N721 1.356 . S
C715 C714 1.363 . S
C715 C718 1.363 . S
N716 C718 1.356 . S
N716 H728 0.984 . S
N716 H729 0.985 . S
N717 C719 1.356 . S
N717 H722 0.984 . S
N717 H723 0.985 . S
C718 C712 1.379 . S
C718 C715 1.363 . S
C718 N716 1.356 . S
C719 C713 1.363 . S
C719 C714 1.379 . S
C719 N717 1.356 . S
N720 C712 1.356 . S
N720 H726 0.984 . S
N720 H727 0.984 . S
N721 C714 1.356 . S
N721 H724 0.984 . S
N721 H725 0.985 . S
H722 N717 0.984 . S
H723 N717 0.985 . S
H724 N721 0.984 . S
H725 N721 0.985 . S
H726 N720 0.984 . S
H727 N720 0.984 . S
H728 N716 0.984 . S
H729 N716 0.985 . S
C730 C731 1.363 . S
C730 C736 1.379 . S
C730 N738 1.356 . S
C731 C730 1.363 . S
C731 C737 1.363 . S
C732 C733 1.363 . S
C732 C737 1.379 . S
C732 N739 1.356 . S
C733 C732 1.363 . S
C733 C736 1.363 . S
N734 C736 1.356 . S
N734 H746 0.984 . S
N734 H747 0.985 . S
N735 C737 1.356 . S
N735 H740 0.984 . S
N735 H741 0.985 . S
C736 C730 1.379 . S
C736 C733 1.363 . S
C736 N734 1.356 . S
C737 C731 1.363 . S
C737 C732 1.379 . S
C737 N735 1.356 . S
N738 C730 1.356 . S
N738 H744 0.984 . S
N738 H745 0.984 . S
N739 C732 1.356 . S
N739 H742 0.984 . S
N739 H743 0.985 . S
H740 N735 0.984 . S
H741 N735 0.985 . S
H742 N739 0.984 . S
H743 N739 0.985 . S
H744 N738 0.984 . S
H745 N738 0.984 . S
H746 N734 0.984 . S
H747 N734 0.985 . S
C748 C749 1.363 . S
C748 C754 1.379 1_556 S
C748 N756 1.356 . S
C749 C748 1.363 . S
C749 C755 1.363 1_565 S
C750 C751 1.363 . S
C750 C755 1.379 1_554 S
C750 N757 1.356 . S
C751 C750 1.363 . S
C751 C754 1.363 1_545 S
N752 C754 1.356 . S
N752 H764 0.984 . S
N752 H765 0.985 . S
N753 C755 1.356 . S
N753 H758 0.984 . S
N753 H759 0.985 . S
C754 C748 1.379 1_554 S
C754 C751 1.363 1_565 S
C754 N752 1.356 . S
C755 C749 1.363 1_545 S
C755 C750 1.379 1_556 S
C755 N753 1.356 . S
N756 C748 1.356 . S
N756 H762 0.984 . S
N756 H763 0.984 . S
N757 C750 1.356 . S
N757 H760 0.984 . S
N757 H761 0.985 . S
H758 N753 0.984 . S
H759 N753 0.985 . S
H760 N757 0.984 . S
H761 N757 0.985 . S
H762 N756 0.984 . S
H763 N756 0.984 . S
H764 N752 0.984 . S
H765 N752 0.985 . S
C766 C767 1.363 1_545 S
C766 C772 1.379 1_455 S
C766 N774 1.356 . S
C767 C766 1.363 1_565 S
C767 C773 1.363 . S
C768 C769 1.363 1_565 S
C768 C773 1.379 1_655 S
C768 N775 1.356 . S
C769 C768 1.363 1_545 S
C769 C772 1.363 . S
N770 C772 1.356 . S
N770 H782 0.984 . S
N770 H783 0.985 . S
N771 C773 1.356 . S
N771 H776 0.984 . S
N771 H777 0.985 . S
C772 C766 1.379 1_655 S
C772 C769 1.363 . S
C772 N770 1.356 . S
C773 C767 1.363 . S
C773 C768 1.379 1_455 S
C773 N771 1.356 . S
N774 C766 1.356 . S
N774 H780 0.984 . S
N774 H781 0.984 . S
N775 C768 1.356 . S
N775 H778 0.984 . S
N775 H779 0.985 . S
H776 N771 0.984 . S
H777 N771 0.985 . S
H778 N775 0.984 . S
H779 N775 0.985 . S
H780 N774 0.984 . S
H781 N774 0.984 . S
H782 N770 0.984 . S
H783 N770 0.985 . S
C784 C785 1.363 . S
C784 C790 1.379 . S
C784 N792 1.356 . S
C785 C784 1.363 . S
C785 C791 1.363 . S
C786 C787 1.363 . S
C786 C791 1.379 . S
C786 N793 1.356 . S
C787 C786 1.363 . S
C787 C790 1.363 . S
N788 C790 1.356 . S
N788 H800 0.984 . S
N788 H801 0.985 . S
N789 C791 1.356 . S
N789 H794 0.984 . S
N789 H795 0.985 . S
C790 C784 1.379 . S
C790 C787 1.363 . S
C790 N788 1.356 . S
C791 C785 1.363 . S
C791 C786 1.379 . S
C791 N789 1.356 . S
N792 C784 1.356 . S
N792 H798 0.984 . S
N792 H799 0.984 . S
N793 C786 1.356 . S
N793 H796 0.984 . S
N793 H797 0.985 . S
H794 N789 0.984 . S
H795 N789 0.985 . S
H796 N793 0.984 . S
H797 N793 0.985 . S
H798 N792 0.984 . S
H799 N792 0.984 . S
H800 N788 0.984 . S
H801 N788 0.985 . S
C802 C803 1.363 . S
C802 C808 1.379 . S
C802 N810 1.356 . S
C803 C802 1.363 . S
C803 C809 1.363 . S
C804 C805 1.363 . S
C804 C809 1.379 . S
C804 N811 1.356 . S
C805 C804 1.363 . S
C805 C808 1.363 . S
N806 C808 1.356 . S
N806 H818 0.984 . S
N806 H819 0.985 . S
N807 C809 1.356 . S
N807 H812 0.984 . S
N807 H813 0.985 . S
C808 C802 1.379 . S
C808 C805 1.363 . S
C808 N806 1.356 . S
C809 C803 1.363 . S
C809 C804 1.379 . S
C809 N807 1.356 . S
N810 C802 1.356 . S
N810 H816 0.984 . S
N810 H817 0.984 . S
N811 C804 1.356 . S
N811 H814 0.984 . S
N811 H815 0.985 . S
H812 N807 0.984 . S
H813 N807 0.985 . S
H814 N811 0.984 . S
H815 N811 0.985 . S
H816 N810 0.984 . S
H817 N810 0.984 . S
H818 N806 0.984 . S
H819 N806 0.985 . S
C820 C821 1.363 . S
C820 C826 1.379 . S
C820 N828 1.356 . S
C821 C820 1.363 . S
C821 C827 1.363 . S
C822 C823 1.363 . S
C822 C827 1.379 . S
C822 N829 1.356 . S
C823 C822 1.363 . S
C823 C826 1.363 . S
N824 C826 1.356 . S
N824 H836 0.984 . S
N824 H837 0.985 . S
N825 C827 1.356 . S
N825 H830 0.984 . S
N825 H831 0.985 . S
C826 C820 1.379 . S
C826 C823 1.363 . S
C826 N824 1.356 . S
C827 C821 1.363 . S
C827 C822 1.379 . S
C827 N825 1.356 . S
N828 C820 1.356 . S
N828 H834 0.984 . S
N828 H835 0.984 . S
N829 C822 1.356 . S
N829 H832 0.984 . S
N829 H833 0.985 . S
H830 N825 0.984 . S
H831 N825 0.985 . S
H832 N829 0.984 . S
H833 N829 0.985 . S
H834 N828 0.984 . S
H835 N828 0.984 . S
H836 N824 0.984 . S
H837 N824 0.985 . S
C838 C839 1.363 . S
C838 C844 1.379 . S
C838 N846 1.356 . S
C839 C838 1.363 . S
C839 C845 1.363 . S
C840 C841 1.363 . S
C840 C845 1.379 . S
C840 N847 1.356 . S
C841 C840 1.363 . S
C841 C844 1.363 . S
N842 C844 1.356 . S
N842 H854 0.984 . S
N842 H855 0.985 . S
N843 C845 1.356 . S
N843 H848 0.984 . S
N843 H849 0.985 . S
C844 C838 1.379 . S
C844 C841 1.363 . S
C844 N842 1.356 . S
C845 C839 1.363 . S
C845 C840 1.379 . S
C845 N843 1.356 . S
N846 C838 1.356 . S
N846 H852 0.984 . S
N846 H853 0.984 . S
N847 C840 1.356 . S
N847 H850 0.984 . S
N847 H851 0.985 . S
H848 N843 0.984 . S
H849 N843 0.985 . S
H850 N847 0.984 . S
H851 N847 0.985 . S
H852 N846 0.984 . S
H853 N846 0.984 . S
H854 N842 0.984 . S
H855 N842 0.985 . S
C856 C857 1.363 . S
C856 C862 1.379 . S
C856 N864 1.356 . S
C857 C856 1.363 . S
C857 C863 1.363 . S
C858 C859 1.363 . S
C858 C863 1.379 . S
C858 N865 1.356 . S
C859 C858 1.363 . S
C859 C862 1.363 . S
N860 C862 1.356 . S
N860 H872 0.984 . S
N860 H873 0.985 . S
N861 C863 1.356 . S
N861 H866 0.984 . S
N861 H867 0.985 . S
C862 C856 1.379 . S
C862 C859 1.363 . S
C862 N860 1.356 . S
C863 C857 1.363 . S
C863 C858 1.379 . S
C863 N861 1.356 . S
N864 C856 1.356 . S
N864 H870 0.984 . S
N864 H871 0.984 . S
N865 C858 1.356 . S
N865 H868 0.984 . S
N865 H869 0.985 . S
H866 N861 0.984 . S
H867 N861 0.985 . S
H868 N865 0.984 . S
H869 N865 0.985 . S
H870 N864 0.984 . S
H871 N864 0.984 . S
H872 N860 0.984 . S
H873 N860 0.985 . S
C874 C875 1.363 . S
C874 C880 1.379 . S
C874 N882 1.356 . S
C875 C874 1.363 . S
C875 C881 1.363 . S
C876 C877 1.363 . S
C876 C881 1.379 . S
C876 N883 1.356 . S
C877 C876 1.363 . S
C877 C880 1.363 . S
N878 C880 1.356 . S
N878 H890 0.984 . S
N878 H891 0.985 . S
N879 C881 1.356 . S
N879 H884 0.984 . S
N879 H885 0.985 . S
C880 C874 1.379 . S
C880 C877 1.363 . S
C880 N878 1.356 . S
C881 C875 1.363 . S
C881 C876 1.379 . S
C881 N879 1.356 . S
N882 C874 1.356 . S
N882 H888 0.984 . S
N882 H889 0.984 . S
N883 C876 1.356 . S
N883 H886 0.984 . S
N883 H887 0.985 . S
H884 N879 0.984 . S
H885 N879 0.985 . S
H886 N883 0.984 . S
H887 N883 0.985 . S
H888 N882 0.984 . S
H889 N882 0.984 . S
H890 N878 0.984 . S
H891 N878 0.985 . S
C892 C893 1.363 . S
C892 C898 1.379 . S
C892 N900 1.356 . S
C893 C892 1.363 . S
C893 C899 1.363 . S
C894 C895 1.363 . S
C894 C899 1.379 . S
C894 N901 1.356 . S
C895 C894 1.363 . S
C895 C898 1.363 . S
N896 C898 1.356 . S
N896 H908 0.984 . S
N896 H909 0.985 . S
N897 C899 1.356 . S
N897 H902 0.984 . S
N897 H903 0.985 . S
C898 C892 1.379 . S
C898 C895 1.363 . S
C898 N896 1.356 . S
C899 C893 1.363 . S
C899 C894 1.379 . S
C899 N897 1.356 . S
N900 C892 1.356 . S
N900 H906 0.984 . S
N900 H907 0.984 . S
N901 C894 1.356 . S
N901 H904 0.984 . S
N901 H905 0.985 . S
H902 N897 0.984 . S
H903 N897 0.985 . S
H904 N901 0.984 . S
H905 N901 0.985 . S
H906 N900 0.984 . S
H907 N900 0.984 . S
H908 N896 0.984 . S
H909 N896 0.985 . S
C910 C911 1.363 . S
C910 C916 1.379 . S
C910 N918 1.356 . S
C911 C910 1.363 . S
C911 C917 1.363 . S
C912 C913 1.363 . S
C912 C917 1.379 . S
C912 N919 1.356 . S
C913 C912 1.363 . S
C913 C916 1.363 . S
N914 C916 1.356 . S
N914 H926 0.984 . S
N914 H927 0.985 . S
N915 C917 1.356 . S
N915 H920 0.984 . S
N915 H921 0.985 . S
C916 C910 1.379 . S
C916 C913 1.363 . S
C916 N914 1.356 . S
C917 C911 1.363 . S
C917 C912 1.379 . S
C917 N915 1.356 . S
N918 C910 1.356 . S
N918 H924 0.984 . S
N918 H925 0.984 . S
N919 C912 1.356 . S
N919 H922 0.984 . S
N919 H923 0.985 . S
H920 N915 0.984 . S
H921 N915 0.985 . S
H922 N919 0.984 . S
H923 N919 0.985 . S
H924 N918 0.984 . S
H925 N918 0.984 . S
H926 N914 0.984 . S
H927 N914 0.985 . S
C928 C929 1.363 1_545 S
C928 C934 1.379 . S
C928 N936 1.356 . S
C929 C928 1.363 1_565 S
C929 C935 1.363 . S
C930 C931 1.363 . S
C930 C935 1.379 . S
C930 N937 1.356 . S
C931 C930 1.363 . S
C931 C934 1.362 1_565 S
N932 C934 1.357 . S
N932 H944 0.984 . S
N932 H945 0.985 . S
N933 C935 1.356 . S
N933 H938 0.984 . S
N933 H939 0.985 . S
C934 C928 1.379 . S
C934 C931 1.362 1_545 S
C934 N932 1.357 . S
C935 C929 1.363 . S
C935 C930 1.379 . S
C935 N933 1.356 . S
N936 C928 1.356 . S
N936 H942 0.984 . S
N936 H943 0.984 . S
N937 C930 1.356 . S
N937 H940 0.984 . S
N937 H941 0.985 . S
H938 N933 0.984 . S
H939 N933 0.985 . S
H940 N937 0.984 . S
H941 N937 0.985 . S
H942 N936 0.984 . S
H943 N936 0.984 . S
H944 N932 0.984 . S
H945 N932 0.985 . S
C946 C947 1.363 . S
C946 C952 1.379 . S
C946 N954 1.356 . S
C947 C946 1.363 . S
C947 C953 1.363 . S
C948 C949 1.363 . S
C948 C953 1.379 . S
C948 N955 1.356 1_565 S
C949 C948 1.363 . S
C949 C952 1.363 . S
N950 C952 1.356 . S
N950 H962 0.984 . S
N950 H963 0.985 . S
N951 C953 1.356 . S
N951 H956 0.984 . S
N951 H957 0.985 . S
C952 C946 1.379 . S
C952 C949 1.363 . S
C952 N950 1.356 . S
C953 C947 1.363 . S
C953 C948 1.379 . S
C953 N951 1.356 . S
N954 C946 1.356 . S
N954 H960 0.984 . S
N954 H961 0.984 . S
N955 C948 1.356 1_545 S
N955 H958 0.984 . S
N955 H959 0.985 . S
H956 N951 0.984 . S
H957 N951 0.985 . S
H958 N955 0.984 . S
H959 N955 0.985 . S
H960 N954 0.984 . S
H961 N954 0.984 . S
H962 N950 0.984 . S
H963 N950 0.985 . S
C964 C965 1.363 . S
C964 C970 1.379 . S
C964 N972 1.356 . S
C965 C964 1.363 . S
C965 C971 1.363 . S
C966 C967 1.365 . S
C966 C971 1.380 . S
C966 N973 1.354 1_545 S
C967 C966 1.365 . S
C967 C970 1.363 . S
N968 C970 1.356 . S
N968 H980 0.984 . S
N968 H981 0.985 . S
N969 C971 1.356 1_565 S
N969 H974 0.984 1_565 S
N969 H975 0.985 . S
C970 C964 1.379 . S
C970 C967 1.363 . S
C970 N968 1.356 . S
C971 C965 1.363 . S
C971 C966 1.380 . S
C971 N969 1.356 1_545 S
N972 C964 1.356 . S
N972 H978 0.984 . S
N972 H979 0.984 . S
N973 C966 1.354 1_565 S
N973 H976 0.984 . S
N973 H977 0.985 . S
H974 N969 0.984 1_545 S
H975 N969 0.985 . S
H976 N973 0.984 . S
H977 N973 0.985 . S
H978 N972 0.984 . S
H979 N972 0.984 . S
H980 N968 0.984 . S
H981 N968 0.985 . S
C982 C983 1.363 . S
C982 C988 1.379 . S
C982 N990 1.356 . S
C983 C982 1.363 . S
C983 C989 1.363 . S
C984 C985 1.363 . S
C984 C989 1.379 . S
C984 N991 1.356 . S
C985 C984 1.363 . S
C985 C988 1.363 . S
N986 C988 1.356 1_565 S
N986 H998 0.984 . S
N986 H999 0.985 . S
N987 C989 1.356 . S
N987 H992 0.984 . S
N987 H993 0.985 . S
C988 C982 1.379 . S
C988 C985 1.363 . S
C988 N986 1.356 1_545 S
C989 C983 1.363 . S
C989 C984 1.379 . S
C989 N987 1.356 . S
N990 C982 1.356 . S
N990 H996 0.984 . S
N990 H997 0.984 . S
N991 C984 1.356 . S
N991 H994 0.984 . S
N991 H995 0.985 . S
H992 N987 0.984 . S
H993 N987 0.985 . S
H994 N991 0.984 . S
H995 N991 0.985 . S
H996 N990 0.984 . S
H997 N990 0.984 . S
H998 N986 0.984 . S
H999 N986 0.985 . S
C1000 C1001 1.363 . S
C1000 C1006 1.379 . S
C1000 N1008 1.356 . S
C1001 C1000 1.363 . S
C1001 C1007 1.363 . S
C1002 C1003 1.363 . S
C1002 C1007 1.379 . S
C1002 N1009 1.356 . S
C1003 C1002 1.363 . S
C1003 C1006 1.363 . S
N1004 C1006 1.356 1_565 S
N1004 H1016 0.984 . S
N1004 H1017 0.985 . S
N1005 C1007 1.356 . S
N1005 H1010 0.984 . S
N1005 H1011 0.985 . S
C1006 C1000 1.379 . S
C1006 C1003 1.363 . S
C1006 N1004 1.356 1_545 S
C1007 C1001 1.363 . S
C1007 C1002 1.379 . S
C1007 N1005 1.356 . S
N1008 C1000 1.356 . S
N1008 H1014 0.984 1_545 S
N1008 H1015 0.984 . S
N1009 C1002 1.356 . S
N1009 H1012 0.984 . S
N1009 H1013 0.985 . S
H1010 N1005 0.984 . S
H1011 N1005 0.985 . S
H1012 N1009 0.984 . S
H1013 N1009 0.985 . S
H1014 N1008 0.984 1_565 S
H1015 N1008 0.984 . S
H1016 N1004 0.984 . S
H1017 N1004 0.985 . S
C1018 C1019 1.363 . S
C1018 C1024 1.379 . S
C1018 N1026 1.356 . S
C1019 C1018 1.363 . S
C1019 C1025 1.363 . S
C1020 C1021 1.363 . S
C1020 C1025 1.379 . S
C1020 N1027 1.356 . S
C1021 C1020 1.363 . S
C1021 C1024 1.363 . S
N1022 C1024 1.356 1_565 S
N1022 H1034 0.984 . S
N1022 H1035 0.985 . S
N1023 C1025 1.356 . S
N1023 H1028 0.984 . S
N1023 H1029 0.985 . S
C1024 C1018 1.379 . S
C1024 C1021 1.363 . S
C1024 N1022 1.356 1_545 S
C1025 C1019 1.363 . S
C1025 C1020 1.379 . S
C1025 N1023 1.356 . S
N1026 C1018 1.356 . S
N1026 H1032 0.984 1_545 S
N1026 H1033 0.984 . S
N1027 C1020 1.356 . S
N1027 H1030 0.984 . S
N1027 H1031 0.985 . S
H1028 N1023 0.984 . S
H1029 N1023 0.985 . S
H1030 N1027 0.984 . S
H1031 N1027 0.985 . S
H1032 N1026 0.984 1_565 S
H1033 N1026 0.984 . S
H1034 N1022 0.984 . S
H1035 N1022 0.985 . S
C1036 C1037 1.363 . S
C1036 C1042 1.379 . S
C1036 N1044 1.356 . S
C1037 C1036 1.363 . S
C1037 C1043 1.363 1_565 S
C1038 C1039 1.363 . S
C1038 C1043 1.379 1_565 S
C1038 N1045 1.356 1_565 S
C1039 C1038 1.363 . S
C1039 C1042 1.363 . S
N1040 C1042 1.356 . S
N1040 H1052 0.984 . S
N1040 H1053 0.985 . S
N1041 C1043 1.356 . S
N1041 H1046 0.984 . S
N1041 H1047 0.985 . S
C1042 C1036 1.379 . S
C1042 C1039 1.363 . S
C1042 N1040 1.356 . S
C1043 C1037 1.363 1_545 S
C1043 C1038 1.379 1_545 S
C1043 N1041 1.356 . S
N1044 C1036 1.356 . S
N1044 H1050 0.984 . S
N1044 H1051 0.984 . S
N1045 C1038 1.356 1_545 S
N1045 H1048 0.990 . S
N1045 H1049 0.985 . S
H1046 N1041 0.984 . S
H1047 N1041 0.985 . S
H1048 N1045 0.990 . S
H1049 N1045 0.985 . S
H1050 N1044 0.984 . S
H1051 N1044 0.984 . S
H1052 N1040 0.984 . S
H1053 N1040 0.985 . S
C1054 C1055 1.363 . S
C1054 C1060 1.379 . S
C1054 N1062 1.356 . S
C1055 C1054 1.363 . S
C1055 C1061 1.363 . S
C1056 C1057 1.363 . S
C1056 C1061 1.379 . S
C1056 N1063 1.356 . S
C1057 C1056 1.363 . S
C1057 C1060 1.363 . S
N1058 C1060 1.356 . S
N1058 H1070 0.984 . S
N1058 H1071 0.985 . S
N1059 C1061 1.356 1_545 S
N1059 H1064 0.984 . S
N1059 H1065 0.985 . S
C1060 C1054 1.379 . S
C1060 C1057 1.363 . S
C1060 N1058 1.356 . S
C1061 C1055 1.363 . S
C1061 C1056 1.379 . S
C1061 N1059 1.356 1_565 S
N1062 C1054 1.356 . S
N1062 H1068 0.984 . S
N1062 H1069 0.984 . S
N1063 C1056 1.356 . S
N1063 H1066 0.984 . S
N1063 H1067 0.985 . S
H1064 N1059 0.984 . S
H1065 N1059 0.985 . S
H1066 N1063 0.984 . S
H1067 N1063 0.985 . S
H1068 N1062 0.984 . S
H1069 N1062 0.984 . S
H1070 N1058 0.984 . S
H1071 N1058 0.985 . S
C1072 C1073 1.363 . S
C1072 C1078 1.379 . S
C1072 N1080 1.356 . S
C1073 C1072 1.363 . S
C1073 C1079 1.363 1_455 S
C1074 C1075 1.363 . S
C1074 C1079 1.379 . S
C1074 N1081 1.356 . S
C1075 C1074 1.363 . S
C1075 C1078 1.363 1_655 S
N1076 C1078 1.356 1_655 S
N1076 H1088 0.984 1_655 S
N1076 H1089 0.985 . S
N1077 C1079 1.356 1_455 S
N1077 H1082 0.984 . S
N1077 H1083 0.985 1_455 S
C1078 C1072 1.379 . S
C1078 C1075 1.363 1_455 S
C1078 N1076 1.356 1_455 S
C1079 C1073 1.363 1_655 S
C1079 C1074 1.379 . S
C1079 N1077 1.356 1_655 S
N1080 C1072 1.356 . S
N1080 H1086 0.984 . S
N1080 H1087 0.984 . S
N1081 C1074 1.356 . S
N1081 H1084 0.984 . S
N1081 H1085 0.985 . S
H1082 N1077 0.984 . S
H1083 N1077 0.985 1_655 S
H1084 N1081 0.984 . S
H1085 N1081 0.985 . S
H1086 N1080 0.984 . S
H1087 N1080 0.984 . S
H1088 N1076 0.984 1_455 S
H1089 N1076 0.985 . S
C1090 C1091 1.363 . S
C1090 C1096 1.379 1_455 S
C1090 N1098 1.356 . S
C1091 C1090 1.363 . S
C1091 C1097 1.363 . S
C1092 C1093 1.363 . S
C1092 C1097 1.379 1_655 S
C1092 N1099 1.356 . S
C1093 C1092 1.363 . S
C1093 C1096 1.363 . S
N1094 C1096 1.356 . S
N1094 H1106 0.984 . S
N1094 H1107 0.985 . S
N1095 C1097 1.356 . S
N1095 H1100 0.984 . S
N1095 H1101 0.985 . S
C1096 C1090 1.379 1_655 S
C1096 C1093 1.363 . S
C1096 N1094 1.356 . S
C1097 C1091 1.363 . S
C1097 C1092 1.379 1_455 S
C1097 N1095 1.356 . S
N1098 C1090 1.356 . S
N1098 H1104 0.984 . S
N1098 H1105 0.984 . S
N1099 C1092 1.356 . S
N1099 H1102 0.984 . S
N1099 H1103 0.985 . S
H1100 N1095 0.984 . S
H1101 N1095 0.985 . S
H1102 N1099 0.984 . S
H1103 N1099 0.985 . S
H1104 N1098 0.984 . S
H1105 N1098 0.984 . S
H1106 N1094 0.984 . S
H1107 N1094 0.985 . S
C1108 C1109 1.363 . S
C1108 C1114 1.379 . S
C1108 N1116 1.356 . S
C1109 C1108 1.363 . S
C1109 C1115 1.363 . S
C1110 C1111 1.363 . S
C1110 C1115 1.379 . S
C1110 N1117 1.356 . S
C1111 C1110 1.363 . S
C1111 C1114 1.363 . S
N1112 C1114 1.356 . S
N1112 H1124 0.984 . S
N1112 H1125 0.985 . S
N1113 C1115 1.356 . S
N1113 H1118 0.984 . S
N1113 H1119 0.985 . S
C1114 C1108 1.379 . S
C1114 C1111 1.363 . S
C1114 N1112 1.356 . S
C1115 C1109 1.363 . S
C1115 C1110 1.379 . S
C1115 N1113 1.356 . S
N1116 C1108 1.356 . S
N1116 H1122 0.984 . S
N1116 H1123 0.984 . S
N1117 C1110 1.356 . S
N1117 H1120 0.984 . S
N1117 H1121 0.985 . S
H1118 N1113 0.984 . S
H1119 N1113 0.985 . S
H1120 N1117 0.984 . S
H1121 N1117 0.985 . S
H1122 N1116 0.984 . S
H1123 N1116 0.984 . S
H1124 N1112 0.984 . S
H1125 N1112 0.985 . S
C1126 C1127 1.363 . S
C1126 C1132 1.379 . S
C1126 N1134 1.356 . S
C1127 C1126 1.363 . S
C1127 C1133 1.363 . S
C1128 C1129 1.363 . S
C1128 C1133 1.379 . S
C1128 N1135 1.356 . S
C1129 C1128 1.363 . S
C1129 C1132 1.363 . S
N1130 C1132 1.356 . S
N1130 H1142 0.984 . S
N1130 H1143 0.985 . S
N1131 C1133 1.356 . S
N1131 H1136 0.984 . S
N1131 H1137 0.985 1_554 S
C1132 C1126 1.379 . S
C1132 C1129 1.363 . S
C1132 N1130 1.356 . S
C1133 C1127 1.363 . S
C1133 C1128 1.379 . S
C1133 N1131 1.356 . S
N1134 C1126 1.356 . S
N1134 H1140 0.984 . S
N1134 H1141 0.984 . S
N1135 C1128 1.356 . S
N1135 H1138 0.984 . S
N1135 H1139 0.985 1_554 S
H1136 N1131 0.984 . S
H1137 N1131 0.985 1_556 S
H1138 N1135 0.984 . S
H1139 N1135 0.985 1_556 S
H1140 N1134 0.984 . S
H1141 N1134 0.984 . S
H1142 N1130 0.984 . S
H1143 N1130 0.985 . S
C1144 C1145 1.363 . S
C1144 C1150 1.379 . S
C1144 N1152 1.356 . S
C1145 C1144 1.363 . S
C1145 C1151 1.363 1_455 S
C1146 C1147 1.363 . S
C1146 C1151 1.379 . S
C1146 N1153 1.356 . S
C1147 C1146 1.363 . S
C1147 C1150 1.363 1_655 S
N1148 C1150 1.356 1_655 S
N1148 H1160 0.984 1_655 S
N1148 H1161 0.985 . S
N1149 C1151 1.356 1_455 S
N1149 H1154 0.984 . S
N1149 H1155 0.985 1_455 S
C1150 C1144 1.379 . S
C1150 C1147 1.363 1_455 S
C1150 N1148 1.356 1_455 S
C1151 C1145 1.363 1_655 S
C1151 C1146 1.379 . S
C1151 N1149 1.356 1_655 S
N1152 C1144 1.356 . S
N1152 H1158 0.984 . S
N1152 H1159 0.984 . S
N1153 C1146 1.356 . S
N1153 H1156 0.984 . S
N1153 H1157 0.985 . S
H1154 N1149 0.984 . S
H1155 N1149 0.985 1_655 S
H1156 N1153 0.984 . S
H1157 N1153 0.985 . S
H1158 N1152 0.984 . S
H1159 N1152 0.984 . S
H1160 N1148 0.984 1_455 S
H1161 N1148 0.985 . S
C1162 C1163 1.363 . S
C1162 C1168 1.379 1_655 S
C1162 N1170 1.356 . S
C1163 C1162 1.363 . S
C1163 C1169 1.363 . S
C1164 C1165 1.363 . S
C1164 C1169 1.379 1_455 S
C1164 N1171 1.356 . S
C1165 C1164 1.363 . S
C1165 C1168 1.363 . S
N1166 C1168 1.356 . S
N1166 H1178 0.984 . S
N1166 H1179 0.985 . S
N1167 C1169 1.356 . S
N1167 H1172 0.984 . S
N1167 H1173 0.985 . S
C1168 C1162 1.379 1_455 S
C1168 C1165 1.363 . S
C1168 N1166 1.356 . S
C1169 C1163 1.363 . S
C1169 C1164 1.379 1_655 S
C1169 N1167 1.356 . S
N1170 C1162 1.356 . S
N1170 H1176 0.984 . S
N1170 H1177 0.984 . S
N1171 C1164 1.356 . S
N1171 H1174 0.984 . S
N1171 H1175 0.985 . S
H1172 N1167 0.984 . S
H1173 N1167 0.985 . S
H1174 N1171 0.984 . S
H1175 N1171 0.985 . S
H1176 N1170 0.984 . S
H1177 N1170 0.984 . S
H1178 N1166 0.984 . S
H1179 N1166 0.985 . S
C1180 C1181 1.363 . S
C1180 C1186 1.379 . S
C1180 N1188 1.356 . S
C1181 C1180 1.363 . S
C1181 C1187 1.363 . S
C1182 C1183 1.363 . S
C1182 C1187 1.379 . S
C1182 N1189 1.356 . S
C1183 C1182 1.363 . S
C1183 C1186 1.363 . S
N1184 C1186 1.356 . S
N1184 H1196 0.984 . S
N1184 H1197 0.985 . S
N1185 C1187 1.356 . S
N1185 H1190 0.984 . S
N1185 H1191 0.985 . S
C1186 C1180 1.379 . S
C1186 C1183 1.363 . S
C1186 N1184 1.356 . S
C1187 C1181 1.363 . S
C1187 C1182 1.379 . S
C1187 N1185 1.356 . S
N1188 C1180 1.356 . S
N1188 H1194 0.984 . S
N1188 H1195 0.984 . S
N1189 C1182 1.356 . S
N1189 H1192 0.984 . S
N1189 H1193 0.985 . S
H1190 N1185 0.984 . S
H1191 N1185 0.985 . S
H1192 N1189 0.984 . S
H1193 N1189 0.985 . S
H1194 N1188 0.984 . S
H1195 N1188 0.984 . S
H1196 N1184 0.984 . S
H1197 N1184 0.985 . S
C1198 C1199 1.363 . S
C1198 C1204 1.379 . S
C1198 N1206 1.356 . S
C1199 C1198 1.363 . S
C1199 C1205 1.363 . S
C1200 C1201 1.363 . S
C1200 C1205 1.379 . S
C1200 N1207 1.356 . S
C1201 C1200 1.363 . S
C1201 C1204 1.363 . S
N1202 C1204 1.356 . S
N1202 H1214 0.984 . S
N1202 H1215 0.985 . S
N1203 C1205 1.356 . S
N1203 H1208 0.984 . S
N1203 H1209 0.985 1_556 S
C1204 C1198 1.379 . S
C1204 C1201 1.363 . S
C1204 N1202 1.356 . S
C1205 C1199 1.363 . S
C1205 C1200 1.379 . S
C1205 N1203 1.356 . S
N1206 C1198 1.356 . S
N1206 H1212 0.984 . S
N1206 H1213 0.984 . S
N1207 C1200 1.356 . S
N1207 H1210 0.984 . S
N1207 H1211 0.985 1_556 S
H1208 N1203 0.984 . S
H1209 N1203 0.985 1_554 S
H1210 N1207 0.984 . S
H1211 N1207 0.985 1_554 S
H1212 N1206 0.984 . S
H1213 N1206 0.984 . S
H1214 N1202 0.984 . S
H1215 N1202 0.985 . S
C353 C5 1.722 . S
C355 C136 1.651 . S
C371 C334 1.650 . S
C373 C27 1.722 . S
C389 C53 1.722 . S
C391 C96 1.651 1_455 S
C407 C294 1.650 . S
C409 C71 1.722 . S
C425 C48 1.651 . S
C427 C94 1.722 . S
C443 C250 1.650 . S
C445 C116 1.722 . S
C461 C139 1.722 . S
C463 C8 1.651 1_655 S
C479 C161 1.722 . S
C481 C206 1.650 . S
C497 C181 1.722 . S
C499 C312 1.651 1_665 S
C515 C203 1.722 . S
C517 C158 1.650 . S
C533 C272 1.651 1_545 S
C535 C229 1.722 . S
C551 C118 1.650 . S
C553 C247 1.722 . S
C569 C224 1.651 1_445 S
C571 C270 1.722 . S
C587 C292 1.722 . S
C589 C74 1.650 . S
C605 C184 1.651 1_565 S
C607 C315 1.722 . S
C623 C30 1.650 . S
C625 C337 1.722 . S
C641 C6 0.667 . S
C643 C269 0.667 . S
C659 C28 0.667 . S
C661 C115 0.667 . S
C677 C51 0.667 . S
C679 C317 0.667 . S
C695 C163 0.667 . S
C697 C72 0.667 . S
C713 C93 0.667 . S
C715 C182 0.667 . S
C731 C227 0.667 . S
C733 C141 0.667 . S
C749 C204 0.667 . S
C751 C291 0.667 . S
C767 C339 0.667 . S
C769 C248 0.667 . S
C785 C7 1.504 . S
C787 C26 1.604 . S
C803 C52 1.604 . S
C805 C29 1.504 . S
C821 C50 1.504 . S
C823 C70 1.604 . S
C839 C73 1.504 . S
C841 C4 1.604 . S
C857 C114 1.604 . S
C859 C97 1.504 . S
C875 C140 1.604 . S
C877 C119 1.504 . S
C893 C162 1.604 . S
C895 C137 1.504 . S
C911 C92 1.604 . S
C913 C159 1.504 . S
C929 C183 1.504 . S
C931 C202 1.604 . S
C947 C205 1.504 . S
C949 C228 1.604 . S
C965 C246 1.604 . S
C967 C226 1.504 . S
C983 C249 1.504 . S
C985 C180 1.604 . S
C1001 C290 1.604 . S
C1003 C273 1.504 . S
C1019 C295 1.504 . S
C1021 C316 1.604 . S
C1037 C313 1.504 . S
C1039 C338 1.604 . S
C1055 C268 1.604 . S
C1057 C335 1.504 . S
C1073 C9 1.485 . S
C1075 C225 1.485 . S
C1091 C31 1.485 . S
C1093 C251 1.485 . S
C1109 C49 1.485 . S
C1111 C185 1.485 . S
C1127 C207 1.485 . S
C1129 C75 1.485 . S
C1145 C314 1.485 . S
C1147 C95 1.485 . S
C1163 C117 1.485 . S
C1165 C336 1.485 . S
C1181 C138 1.485 . S
C1183 C271 1.485 . S
C1199 C293 1.485 . S
C1201 C160 1.485 . S
