# Generated by pormake.
# Topology pcl, (4)-cn, num edge types: 1
# Building blocks:
#     Node 0, Type 0, BuildingBlock: KUFVIS_clean_sbu_0, # of connection points: 4
#     Node 1, Type 0, BuildingBlock: KUFVIS_clean_sbu_0, # of connection points: 4
#     Node 2, Type 0, BuildingBlock: KUFVIS_clean_sbu_0, # of connection points: 4
#     Node 3, Type 0, BuildingBlock: KUFVIS_clean_sbu_0, # of connection points: 4
#     Node 4, Type 0, BuildingBlock: KUFVIS_clean_sbu_0, # of connection points: 4
#     Node 5, Type 0, BuildingBlock: KUFVIS_clean_sbu_0, # of connection points: 4
#     Node 6, Type 0, BuildingBlock: KUFVIS_clean_sbu_0, # of connection points: 4
#     Node 7, Type 0, BuildingBlock: KUFVIS_clean_sbu_0, # of connection points: 4
#     Node 8, Type 0, BuildingBlock: KUFVIS_clean_sbu_0, # of connection points: 4
#     Node 9, Type 0, BuildingBlock: KUFVIS_clean_sbu_0, # of connection points: 4
#     Node 10, Type 0, BuildingBlock: KUFVIS_clean_sbu_0, # of connection points: 4
#     Node 11, Type 0, BuildingBlock: KUFVIS_clean_sbu_0, # of connection points: 4
#     Node 12, Type 0, BuildingBlock: KUFVIS_clean_sbu_0, # of connection points: 4
#     Node 13, Type 0, BuildingBlock: KUFVIS_clean_sbu_0, # of connection points: 4
#     Node 14, Type 0, BuildingBlock: KUFVIS_clean_sbu_0, # of connection points: 4
#     Node 15, Type 0, BuildingBlock: KUFVIS_clean_sbu_0, # of connection points: 4
#     Edge 16, Type (0, 0), BuildingBlock: OJICUG_clean_linker_0, # of connection points: 2
#     Edge 17, Type (0, 0), BuildingBlock: OJICUG_clean_linker_0, # of connection points: 2
#     Edge 18, Type (0, 0), BuildingBlock: OJICUG_clean_linker_0, # of connection points: 2
#     Edge 19, Type (0, 0), BuildingBlock: OJICUG_clean_linker_0, # of connection points: 2
#     Edge 20, Type (0, 0), BuildingBlock: OJICUG_clean_linker_0, # of connection points: 2
#     Edge 21, Type (0, 0), BuildingBlock: OJICUG_clean_linker_0, # of connection points: 2
#     Edge 22, Type (0, 0), BuildingBlock: OJICUG_clean_linker_0, # of connection points: 2
#     Edge 23, Type (0, 0), BuildingBlock: OJICUG_clean_linker_0, # of connection points: 2
#     Edge 24, Type (0, 0), BuildingBlock: OJICUG_clean_linker_0, # of connection points: 2
#     Edge 25, Type (0, 0), BuildingBlock: OJICUG_clean_linker_0, # of connection points: 2
#     Edge 26, Type (0, 0), BuildingBlock: OJICUG_clean_linker_0, # of connection points: 2
#     Edge 27, Type (0, 0), BuildingBlock: OJICUG_clean_linker_0, # of connection points: 2
#     Edge 28, Type (0, 0), BuildingBlock: OJICUG_clean_linker_0, # of connection points: 2
#     Edge 29, Type (0, 0), BuildingBlock: OJICUG_clean_linker_0, # of connection points: 2
#     Edge 30, Type (0, 0), BuildingBlock: OJICUG_clean_linker_0, # of connection points: 2
#     Edge 31, Type (0, 0), BuildingBlock: OJICUG_clean_linker_0, # of connection points: 2
#     Edge 32, Type (0, 0), BuildingBlock: OJICUG_clean_linker_0, # of connection points: 2
#     Edge 33, Type (0, 0), BuildingBlock: OJICUG_clean_linker_0, # of connection points: 2
#     Edge 34, Type (0, 0), BuildingBlock: OJICUG_clean_linker_0, # of connection points: 2
#     Edge 35, Type (0, 0), BuildingBlock: OJICUG_clean_linker_0, # of connection points: 2
#     Edge 36, Type (0, 0), BuildingBlock: OJICUG_clean_linker_0, # of connection points: 2
#     Edge 37, Type (0, 0), BuildingBlock: OJICUG_clean_linker_0, # of connection points: 2
#     Edge 38, Type (0, 0), BuildingBlock: OJICUG_clean_linker_0, # of connection points: 2
#     Edge 39, Type (0, 0), BuildingBlock: OJICUG_clean_linker_0, # of connection points: 2
#     Edge 40, Type (0, 0), BuildingBlock: OJICUG_clean_linker_0, # of connection points: 2
#     Edge 41, Type (0, 0), BuildingBlock: OJICUG_clean_linker_0, # of connection points: 2
#     Edge 42, Type (0, 0), BuildingBlock: OJICUG_clean_linker_0, # of connection points: 2
#     Edge 43, Type (0, 0), BuildingBlock: OJICUG_clean_linker_0, # of connection points: 2
#     Edge 44, Type (0, 0), BuildingBlock: OJICUG_clean_linker_0, # of connection points: 2
#     Edge 45, Type (0, 0), BuildingBlock: OJICUG_clean_linker_0, # of connection points: 2
#     Edge 46, Type (0, 0), BuildingBlock: OJICUG_clean_linker_0, # of connection points: 2
#     Edge 47, Type (0, 0), BuildingBlock: OJICUG_clean_linker_0, # of connection points: 2
# Relax obj value: 0.078
# Max RMSD: 0.060
# Mean RMSD: 0.059
data_MOF--net-pcl--node1-KUFVIS_clean_sbu_0--edge1-OJICUG_clean_linker_0
_symmetry_space_group_name_H-M    P1
_symmetry_Int_Tables_number       1
_symmetry_cell_setting            triclinic
loop_
_symmetry_equiv_pos_as_xyz
'x, y, z'
_cell_length_a     37.641618
_cell_length_b     30.800032
_cell_length_c     30.704001
_cell_angle_alpha  90.004926
_cell_angle_beta   90.013542
_cell_angle_gamma 90.015145
loop_
_atom_site_label
_atom_site_type_symbol
_atom_site_fract_x
_atom_site_fract_y
_atom_site_fract_z
_atom_type_partial_charge
Mn0 Mn 0.18102 0.35003 0.07547 0.0
Mn1 Mn 0.26061 0.37958 0.11688 0.0
C2 C 0.19553 0.33096 0.14645 0.0
C3 C 0.11987 0.36127 0.06658 0.0
C4 C 0.25156 0.3078 0.04982 0.0
O5 O 0.19475 0.40162 0.03738 0.0
O6 O 0.24729 0.41976 0.06836 0.0
C7 C 0.25246 0.46865 0.15097 0.0
N8 N 0.25893 0.42576 0.15833 0.0
C9 C 0.27833 0.44055 0.23159 0.0
C10 C 0.27196 0.48481 0.22468 0.0
C11 C 0.25934 0.49894 0.18401 0.0
C12 C 0.27271 0.41213 0.19669 0.0
H13 H 0.24302 0.4799 0.11976 0.0
C14 C 0.22186 0.4265 0.04123 0.0
O15 O 0.13719 0.33555 0.04067 0.0
O16 O 0.13825 0.38166 0.09572 0.0
N17 N 0.27482 0.34374 0.16473 0.0
C18 C 0.2798 0.29995 0.16587 0.0
C19 C 0.29098 0.28022 0.20476 0.0
C20 C 0.29708 0.30574 0.24195 0.0
C21 C 0.29164 0.35074 0.24 0.0
C22 C 0.28021 0.36849 0.20045 0.0
H23 H 0.27496 0.28019 0.13743 0.0
O24 O 0.17405 0.30745 0.12327 0.0
O25 O 0.21028 0.36366 0.12619 0.0
O26 O 0.21794 0.31006 0.04533 0.0
O27 O 0.26862 0.33245 0.07551 0.0
C28 C 0.29675 0.37861 0.27586 0.0
C29 C 0.29044 0.42356 0.27153 0.0
H30 H 0.27671 0.50827 0.25031 0.0
H31 H 0.25488 0.53315 0.17815 0.0
H32 H 0.29491 0.24544 0.20607 0.0
H33 H 0.30573 0.29042 0.27189 0.0
H34 H 0.30564 0.36584 0.30688 0.0
H35 H 0.29478 0.44475 0.29919 0.0
Mn36 Mn 0.86516 0.66954 0.57516 0.0
Mn37 Mn 0.78553 0.64009 0.61647 0.0
C38 C 0.85064 0.68858 0.64614 0.0
C39 C 0.9263 0.65823 0.56634 0.0
C40 C 0.79466 0.71191 0.54949 0.0
O41 O 0.85139 0.618 0.53701 0.0
O42 O 0.79881 0.59994 0.5679 0.0
C43 C 0.79364 0.55097 0.65046 0.0
N44 N 0.78718 0.59386 0.65787 0.0
C45 C 0.7678 0.57902 0.7311 0.0
C46 C 0.77416 0.53476 0.72415 0.0
C47 C 0.78677 0.52066 0.68348 0.0
C48 C 0.77342 0.60746 0.69624 0.0
H49 H 0.80307 0.53974 0.61924 0.0
C50 C 0.82425 0.59317 0.54079 0.0
O51 O 0.90902 0.68399 0.54043 0.0
O52 O 0.90789 0.63785 0.59543 0.0
N53 N 0.77135 0.67589 0.66436 0.0
C54 C 0.76643 0.71969 0.66556 0.0
C55 C 0.75527 0.73939 0.70447 0.0
C56 C 0.74916 0.71384 0.74163 0.0
C57 C 0.75455 0.66884 0.73962 0.0
C58 C 0.76595 0.6511 0.70004 0.0
H59 H 0.77128 0.73947 0.63714 0.0
O60 O 0.87216 0.71209 0.62301 0.0
O61 O 0.83587 0.65592 0.62582 0.0
O62 O 0.82828 0.70958 0.54501 0.0
O63 O 0.77758 0.68727 0.57515 0.0
C64 C 0.74944 0.64093 0.77545 0.0
C65 C 0.75572 0.59598 0.77106 0.0
H66 H 0.76942 0.51128 0.74977 0.0
H67 H 0.79122 0.48645 0.67758 0.0
H68 H 0.75138 0.77417 0.70582 0.0
H69 H 0.74054 0.72914 0.77158 0.0
H70 H 0.74058 0.65368 0.80648 0.0
H71 H 0.75138 0.57477 0.7987 0.0
Mn72 Mn 0.18087 0.67033 0.9205 0.0
Mn73 Mn 0.26051 0.64084 0.87926 0.0
C74 C 0.19538 0.68913 0.84945 0.0
C75 C 0.11972 0.65905 0.92935 0.0
C76 C 0.25137 0.71279 0.9461 0.0
O77 O 0.19465 0.61889 0.95877 0.0
O78 O 0.24723 0.60078 0.9279 0.0
C79 C 0.25245 0.55165 0.84542 0.0
N80 N 0.25887 0.59453 0.83794 0.0
C81 C 0.27814 0.57962 0.76468 0.0
C82 C 0.27181 0.53535 0.7717 0.0
C83 C 0.2593 0.5213 0.81243 0.0
C84 C 0.27257 0.6081 0.79952 0.0
H85 H 0.24309 0.54045 0.87669 0.0
C86 C 0.22179 0.59407 0.95503 0.0
O87 O 0.13702 0.68488 0.95519 0.0
O88 O 0.13812 0.63857 0.90031 0.0
N89 N 0.27466 0.67657 0.83131 0.0
C90 C 0.27956 0.72038 0.83004 0.0
C91 C 0.29065 0.74003 0.79108 0.0
C92 C 0.29672 0.71444 0.75394 0.0
C93 C 0.29135 0.66943 0.75602 0.0
C94 C 0.28001 0.65175 0.79564 0.0
H95 H 0.27473 0.7402 0.85843 0.0
O96 O 0.17388 0.71272 0.8725 0.0
O97 O 0.21016 0.65657 0.86989 0.0
O98 O 0.21775 0.71046 0.95056 0.0
O99 O 0.26846 0.68811 0.9205 0.0
C100 C 0.29641 0.64148 0.72021 0.0
C101 C 0.29015 0.59653 0.72467 0.0
H102 H 0.27652 0.51185 0.74611 0.0
H103 H 0.25489 0.48709 0.8184 0.0
H104 H 0.29453 0.77482 0.78967 0.0
H105 H 0.30529 0.72971 0.72395 0.0
H106 H 0.30522 0.6542 0.68914 0.0
H107 H 0.29445 0.57529 0.69705 0.0
Mn108 Mn 0.86497 0.34923 0.42014 0.0
Mn109 Mn 0.78536 0.37881 0.37882 0.0
C110 C 0.85046 0.3304 0.34909 0.0
C111 C 0.92613 0.36044 0.42905 0.0
C112 C 0.79442 0.30691 0.44573 0.0
O113 O 0.85124 0.40072 0.45837 0.0
O114 O 0.79869 0.41891 0.42743 0.0
C115 C 0.79346 0.46796 0.34492 0.0
N116 N 0.78704 0.42507 0.33746 0.0
C117 C 0.76774 0.43994 0.26419 0.0
C118 C 0.77409 0.4842 0.27118 0.0
C119 C 0.78662 0.49829 0.31191 0.0
C120 C 0.77332 0.41148 0.29905 0.0
H121 H 0.80283 0.47918 0.37618 0.0
C122 C 0.82413 0.4256 0.45458 0.0
O123 O 0.90879 0.33466 0.45489 0.0
O124 O 0.90776 0.38091 0.39998 0.0
N125 N 0.77118 0.34304 0.3309 0.0
C126 C 0.76622 0.29924 0.32967 0.0
C127 C 0.7551 0.27956 0.29073 0.0
C128 C 0.74905 0.30513 0.25357 0.0
C129 C 0.75447 0.35012 0.2556 0.0
C130 C 0.76584 0.36784 0.29521 0.0
H131 H 0.77103 0.27945 0.35809 0.0
O132 O 0.87193 0.3068 0.37218 0.0
O133 O 0.8357 0.363 0.36949 0.0
O134 O 0.82805 0.30918 0.45019 0.0
O135 O 0.77736 0.3316 0.42011 0.0
C136 C 0.74941 0.37804 0.21977 0.0
C137 C 0.7557 0.42299 0.22419 0.0
H138 H 0.76937 0.50769 0.24557 0.0
H139 H 0.79103 0.53249 0.31785 0.0
H140 H 0.75118 0.24478 0.28936 0.0
H141 H 0.74045 0.28983 0.22359 0.0
H142 H 0.74057 0.36531 0.18872 0.0
H143 H 0.7514 0.44421 0.19656 0.0
Mn144 Mn 0.89154 0.66978 0.90356 0.0
Mn145 Mn 0.92226 0.58962 0.83834 0.0
C146 C 0.88821 0.67795 0.8284 0.0
C147 C 0.84714 0.70252 0.94605 0.0
C148 C 0.96997 0.64761 0.89291 0.0
O149 O 0.89288 0.61662 0.943 0.0
O150 O 0.90705 0.56433 0.89437 0.0
C151 C 0.8619 0.53055 0.82303 0.0
N152 N 0.88695 0.55817 0.80705 0.0
C153 C 0.87802 0.53197 0.73407 0.0
C154 C 0.85308 0.50216 0.75002 0.0
C155 C 0.84445 0.50204 0.79452 0.0
C156 C 0.89515 0.55882 0.76417 0.0
H157 H 0.85615 0.52928 0.85746 0.0
C158 C 0.89776 0.57687 0.93245 0.0
O159 O 0.88069 0.70834 0.95342 0.0
O160 O 0.83891 0.67724 0.91368 0.0
N161 N 0.93748 0.61049 0.78292 0.0
C162 C 0.96272 0.64072 0.77343 0.0
C163 C 0.97199 0.64813 0.72979 0.0
C164 C 0.95573 0.62373 0.69664 0.0
C165 C 0.93011 0.59241 0.70732 0.0
C166 C 0.92134 0.58733 0.75126 0.0
H167 H 0.97562 0.65893 0.79901 0.0
O168 O 0.88874 0.71168 0.85388 0.0
O169 O 0.89065 0.64027 0.84755 0.0
O170 O 0.94632 0.67398 0.90622 0.0
O171 O 0.96288 0.61597 0.86793 0.0
C172 C 0.91293 0.56598 0.67629 0.0
C173 C 0.88714 0.53549 0.68969 0.0
H174 H 0.84053 0.479 0.72848 0.0
H175 H 0.82499 0.47932 0.80693 0.0
H176 H 0.99187 0.67221 0.72172 0.0
H177 H 0.96309 0.62948 0.6632 0.0
H178 H 0.91961 0.56837 0.64212 0.0
H179 H 0.87436 0.51508 0.66559 0.0
Mn180 Mn 0.15436 0.3495 0.40381 0.0
Mn181 Mn 0.12377 0.42976 0.33862 0.0
C182 C 0.15776 0.34142 0.32865 0.0
C183 C 0.1987 0.31665 0.44634 0.0
C184 C 0.07594 0.37177 0.39301 0.0
O185 O 0.15303 0.40263 0.44332 0.0
O186 O 0.13893 0.45497 0.39472 0.0
C187 C 0.18417 0.48881 0.32353 0.0
N188 N 0.15912 0.46122 0.30745 0.0
C189 C 0.16813 0.48752 0.23453 0.0
C190 C 0.19305 0.5173 0.25058 0.0
C191 C 0.20165 0.51736 0.2951 0.0
C192 C 0.15097 0.46063 0.26455 0.0
H193 H 0.18989 0.49003 0.35797 0.0
C194 C 0.14818 0.44239 0.4328 0.0
O195 O 0.16513 0.31087 0.45364 0.0
O196 O 0.20697 0.34198 0.41403 0.0
N197 N 0.10859 0.40897 0.28314 0.0
C198 C 0.08335 0.37877 0.27356 0.0
C199 C 0.07413 0.37142 0.22988 0.0
C200 C 0.09043 0.39584 0.19681 0.0
C201 C 0.11606 0.42713 0.20759 0.0
C202 C 0.12477 0.43215 0.25154 0.0
H203 H 0.07041 0.36054 0.29908 0.0
O204 O 0.15718 0.30766 0.35408 0.0
O205 O 0.15533 0.37908 0.34784 0.0
O206 O 0.09957 0.34537 0.40636 0.0
O207 O 0.08309 0.40342 0.36808 0.0
C208 C 0.13328 0.45359 0.17662 0.0
C209 C 0.15905 0.48406 0.19013 0.0
H210 H 0.20562 0.5405 0.22911 0.0
H211 H 0.2211 0.54006 0.30758 0.0
H212 H 0.05424 0.34736 0.22174 0.0
H213 H 0.0831 0.39013 0.16334 0.0
H214 H 0.12663 0.45124 0.14244 0.0
H215 H 0.17186 0.50449 0.16609 0.0
Mn216 Mn 0.89164 0.35035 0.09187 0.0
Mn217 Mn 0.92231 0.43035 0.15735 0.0
C218 C 0.88832 0.34192 0.16698 0.0
C219 C 0.84725 0.31769 0.04926 0.0
C220 C 0.97007 0.37259 0.10265 0.0
O221 O 0.89295 0.40363 0.05261 0.0
O222 O 0.90711 0.45581 0.10137 0.0
C223 C 0.86194 0.48933 0.17279 0.0
N224 N 0.88698 0.46166 0.18871 0.0
C225 C 0.87798 0.48755 0.26178 0.0
C226 C 0.85305 0.5174 0.2459 0.0
C227 C 0.84446 0.51772 0.20139 0.0
C228 C 0.89514 0.46085 0.2316 0.0
H229 H 0.85623 0.49075 0.13835 0.0
C230 C 0.89782 0.44336 0.06325 0.0
O231 O 0.8808 0.31194 0.04187 0.0
O232 O 0.83902 0.34286 0.08171 0.0
N233 N 0.93752 0.40931 0.21271 0.0
C234 C 0.96276 0.37908 0.22212 0.0
C235 C 0.97199 0.37149 0.26575 0.0
C236 C 0.95568 0.39572 0.29897 0.0
C237 C 0.93006 0.42705 0.28837 0.0
C238 C 0.92134 0.43232 0.24444 0.0
H239 H 0.97569 0.36099 0.1965 0.0
O240 O 0.88888 0.30828 0.14139 0.0
O241 O 0.89073 0.37968 0.14797 0.0
O242 O 0.94642 0.34624 0.08922 0.0
O243 O 0.96295 0.40414 0.12772 0.0
C244 C 0.91283 0.45332 0.31949 0.0
C245 C 0.88705 0.48385 0.30616 0.0
H246 H 0.84048 0.54047 0.26751 0.0
H247 H 0.82502 0.54047 0.18903 0.0
H248 H 0.99187 0.3474 0.27376 0.0
H249 H 0.96301 0.38983 0.3324 0.0
H250 H 0.91947 0.45078 0.35366 0.0
H251 H 0.87424 0.50412 0.33032 0.0
Mn252 Mn 0.15449 0.66895 0.59216 0.0
Mn253 Mn 0.12369 0.58905 0.65764 0.0
C254 C 0.15773 0.67746 0.66726 0.0
C255 C 0.19895 0.70149 0.54959 0.0
C256 C 0.07604 0.6468 0.60278 0.0
O257 O 0.15318 0.61562 0.55295 0.0
O258 O 0.13893 0.5635 0.60172 0.0
C259 C 0.18401 0.53004 0.67328 0.0
N260 N 0.15896 0.55774 0.68911 0.0
C261 C 0.16789 0.53194 0.76223 0.0
C262 C 0.19283 0.50207 0.74644 0.0
C263 C 0.20146 0.50169 0.70194 0.0
C264 C 0.15076 0.55861 0.73198 0.0
H265 H 0.18976 0.52858 0.63885 0.0
C266 C 0.14826 0.57591 0.56361 0.0
O267 O 0.1654 0.70728 0.54214 0.0
O268 O 0.20712 0.67636 0.58209 0.0
N269 N 0.10843 0.61016 0.71296 0.0
C270 C 0.0832 0.64043 0.72228 0.0
C271 C 0.07393 0.64806 0.76588 0.0
C272 C 0.09018 0.62386 0.79916 0.0
C273 C 0.1158 0.59249 0.78865 0.0
C274 C 0.12456 0.58717 0.74474 0.0
H275 H 0.0703 0.6585 0.69661 0.0
O276 O 0.15724 0.71107 0.64164 0.0
O277 O 0.15531 0.63969 0.64828 0.0
O278 O 0.09972 0.67312 0.5894 0.0
O279 O 0.0831 0.61527 0.62789 0.0
C280 C 0.13298 0.56625 0.81983 0.0
C281 C 0.15877 0.5357 0.80658 0.0
H282 H 0.20538 0.47903 0.76811 0.0
H283 H 0.22091 0.47891 0.68965 0.0
H284 H 0.05405 0.67218 0.77383 0.0
H285 H 0.08282 0.62979 0.83257 0.0
H286 H 0.1263 0.56882 0.85398 0.0
H287 H 0.17155 0.51544 0.8308 0.0
Mn288 Mn 0.68091 0.84986 0.07523 0.0
Mn289 Mn 0.76052 0.87934 0.11662 0.0
C290 C 0.69542 0.83081 0.14621 0.0
C291 C 0.61976 0.86114 0.06638 0.0
C292 C 0.75142 0.80757 0.04955 0.0
O293 O 0.69466 0.90143 0.03713 0.0
O294 O 0.74722 0.91953 0.0681 0.0
C295 C 0.75238 0.9684 0.15074 0.0
N296 N 0.75885 0.92551 0.15808 0.0
C297 C 0.77815 0.94025 0.23139 0.0
C298 C 0.77178 0.98452 0.2245 0.0
C299 C 0.75922 0.99867 0.18382 0.0
C300 C 0.77258 0.91185 0.19646 0.0
H301 H 0.74299 0.97968 0.11951 0.0
C302 C 0.72179 0.92629 0.04096 0.0
O303 O 0.63705 0.83541 0.04046 0.0
O304 O 0.63816 0.88153 0.09549 0.0
N305 N 0.7747 0.84348 0.16447 0.0
C306 C 0.77965 0.79968 0.1656 0.0
C307 C 0.79078 0.77993 0.2045 0.0
C308 C 0.79684 0.80543 0.24171 0.0
C309 C 0.79143 0.85043 0.23977 0.0
C310 C 0.78005 0.86821 0.2002 0.0
H311 H 0.77483 0.77994 0.13714 0.0
O312 O 0.67391 0.80729 0.12306 0.0
O313 O 0.71018 0.86347 0.12592 0.0
O314 O 0.7178 0.80986 0.04508 0.0
O315 O 0.76849 0.83221 0.07523 0.0
C316 C 0.79649 0.87828 0.27566 0.0
C317 C 0.7902 0.92323 0.27134 0.0
H318 H 0.77649 1.00796 0.25016 0.0
H319 H 0.75477 0.03289 0.17796 0.0
H320 H 0.79469 0.74515 0.2058 0.0
H321 H 0.80544 0.79008 0.27165 0.0
H322 H 0.80533 0.86548 0.30669 0.0
H323 H 0.7945 0.9444 0.29903 0.0
Mn324 Mn 0.36494 0.16929 0.57557 0.0
Mn325 Mn 0.28535 0.13974 0.61694 0.0
C326 C 0.35043 0.18836 0.64654 0.0
C327 C 0.4261 0.15807 0.5667 0.0
C328 C 0.29439 0.21147 0.54983 0.0
O329 O 0.35121 0.11768 0.53748 0.0
O330 O 0.29869 0.09951 0.56847 0.0
C331 C 0.29348 0.05072 0.65114 0.0
N332 N 0.28703 0.09362 0.65845 0.0
C333 C 0.26765 0.07894 0.73172 0.0
C334 C 0.27402 0.03466 0.72487 0.0
C335 C 0.2866 0.02048 0.68422 0.0
C336 C 0.27326 0.10731 0.69679 0.0
H337 H 0.30289 0.03941 0.61993 0.0
C338 C 0.32412 0.09278 0.54134 0.0
O339 O 0.40876 0.18377 0.54079 0.0
O340 O 0.40773 0.13769 0.59583 0.0
N341 N 0.27114 0.17565 0.66473 0.0
C342 C 0.26616 0.21944 0.66582 0.0
C343 C 0.25499 0.23923 0.70468 0.0
C344 C 0.24892 0.21377 0.74191 0.0
C345 C 0.25435 0.16877 0.74001 0.0
C346 C 0.26577 0.15095 0.70048 0.0
H347 H 0.27099 0.23915 0.63735 0.0
O348 O 0.37191 0.21188 0.62338 0.0
O349 O 0.33568 0.15567 0.62626 0.0
O350 O 0.32802 0.20925 0.5454 0.0
O351 O 0.27734 0.18681 0.5755 0.0
C352 C 0.24926 0.14095 0.77591 0.0
C353 C 0.25556 0.09599 0.77164 0.0
H354 H 0.26927 0.01125 0.75053 0.0
H355 H 0.29104 0.98626 0.67839 0.0
H356 H 0.25106 0.27401 0.70594 0.0
H357 H 0.24028 0.22914 0.77181 0.0
H358 H 0.24038 0.15377 0.80691 0.0
H359 H 0.25123 0.07485 0.79933 0.0
Mn360 Mn 0.68099 0.17015 0.92022 0.0
Mn361 Mn 0.76061 0.14058 0.87898 0.0
C362 C 0.6955 0.18897 0.84919 0.0
C363 C 0.61984 0.15892 0.92912 0.0
C364 C 0.75152 0.21255 0.9458 0.0
O365 O 0.69473 0.11869 0.95848 0.0
O366 O 0.7473 0.10055 0.92763 0.0
C367 C 0.75251 0.05138 0.84519 0.0
N368 N 0.75895 0.09425 0.83768 0.0
C369 C 0.77833 0.07925 0.76448 0.0
C370 C 0.77198 0.035 0.77153 0.0
C371 C 0.7594 0.02099 0.81225 0.0
C372 C 0.7727 0.10778 0.79927 0.0
H373 H 0.7431 0.04021 0.87644 0.0
C374 C 0.72185 0.09385 0.95475 0.0
O375 O 0.63717 0.18473 0.95495 0.0
O376 O 0.63821 0.13844 0.90006 0.0
N377 N 0.77479 0.17627 0.83101 0.0
C378 C 0.77973 0.22007 0.82972 0.0
C379 C 0.79088 0.23968 0.79076 0.0
C380 C 0.79698 0.21405 0.75366 0.0
C381 C 0.79158 0.16905 0.75576 0.0
C382 C 0.78017 0.15141 0.79538 0.0
H383 H 0.77489 0.23991 0.85809 0.0
O384 O 0.67402 0.21256 0.87226 0.0
O385 O 0.71026 0.15637 0.86959 0.0
O386 O 0.7179 0.21024 0.95028 0.0
O387 O 0.76859 0.18786 0.9202 0.0
C388 C 0.79669 0.14107 0.71999 0.0
C389 C 0.79041 0.09612 0.72448 0.0
H390 H 0.77674 0.01146 0.74597 0.0
H391 H 0.75497 0.98679 0.81823 0.0
H392 H 0.79479 0.27447 0.78934 0.0
H393 H 0.80561 0.22929 0.72367 0.0
H394 H 0.80555 0.15375 0.68893 0.0
H395 H 0.79475 0.07485 0.69689 0.0
Mn396 Mn 0.36519 0.84897 0.42058 0.0
Mn397 Mn 0.28555 0.87844 0.3793 0.0
C398 C 0.35068 0.83017 0.34952 0.0
C399 C 0.42633 0.86028 0.42945 0.0
C400 C 0.2947 0.80647 0.44611 0.0
O401 O 0.35141 0.9004 0.45886 0.0
O402 O 0.29881 0.91848 0.42798 0.0
C403 C 0.29361 0.96765 0.34554 0.0
N404 N 0.28718 0.92477 0.33802 0.0
C405 C 0.26791 0.93973 0.26476 0.0
C406 C 0.27425 0.98399 0.27182 0.0
C407 C 0.28677 0.99802 0.31257 0.0
C408 C 0.27349 0.91123 0.29958 0.0
H409 H 0.30298 0.97883 0.37681 0.0
C410 C 0.32425 0.9252 0.45512 0.0
O411 O 0.40905 0.83444 0.45528 0.0
O412 O 0.40792 0.88075 0.40042 0.0
N413 N 0.27141 0.84273 0.33131 0.0
C414 C 0.26651 0.79892 0.33 0.0
C415 C 0.25541 0.7793 0.29102 0.0
C416 C 0.24934 0.80492 0.2539 0.0
C417 C 0.25471 0.84992 0.25602 0.0
C418 C 0.26605 0.86758 0.29567 0.0
H419 H 0.27134 0.77909 0.35839 0.0
O420 O 0.37219 0.80658 0.37258 0.0
O421 O 0.3359 0.86272 0.36995 0.0
O422 O 0.32832 0.80882 0.45061 0.0
O423 O 0.2776 0.83114 0.42051 0.0
C424 C 0.24964 0.87789 0.22024 0.0
C425 C 0.2559 0.92284 0.22473 0.0
H426 H 0.26953 1.00752 0.24624 0.0
H427 H 0.29118 0.03222 0.31856 0.0
H428 H 0.25154 0.74451 0.28959 0.0
H429 H 0.24077 0.78966 0.2239 0.0
H430 H 0.24083 0.86519 0.18915 0.0
H431 H 0.25159 0.9441 0.19713 0.0
Mn432 Mn 0.39159 0.16972 0.90392 0.0
Mn433 Mn 0.42219 0.08948 0.83871 0.0
C434 C 0.38819 0.17783 0.82876 0.0
C435 C 0.34724 0.20256 0.94643 0.0
C436 C 0.47 0.14748 0.89314 0.0
O437 O 0.39292 0.11659 0.94341 0.0
O438 O 0.40705 0.06426 0.89481 0.0
C439 C 0.3618 0.0304 0.82359 0.0
N440 N 0.38684 0.05801 0.80753 0.0
C441 C 0.37783 0.03171 0.7346 0.0
C442 C 0.35291 1.00191 0.75064 0.0
C443 C 0.34433 1.00184 0.79515 0.0
C444 C 0.39498 0.0586 0.76463 0.0
H445 H 0.35609 0.02918 0.85803 0.0
C446 C 0.39779 0.07683 0.93289 0.0
O447 O 0.38081 0.20834 0.95376 0.0
O448 O 0.33898 0.17724 0.9141 0.0
N449 N 0.43735 0.11028 0.78324 0.0
C450 C 0.46258 0.14049 0.77368 0.0
C451 C 0.47179 0.14785 0.73001 0.0
C452 C 0.45549 0.12343 0.69692 0.0
C453 C 0.42987 0.09212 0.70768 0.0
C454 C 0.42117 0.08709 0.75164 0.0
H455 H 0.47552 0.15873 0.79921 0.0
O456 O 0.38877 0.21158 0.8542 0.0
O457 O 0.39062 0.14016 0.84793 0.0
O458 O 0.44638 0.17387 0.9065 0.0
O459 O 0.46286 0.11584 0.86819 0.0
C460 C 0.41265 0.06566 0.67671 0.0
C461 C 0.38689 0.03518 0.6902 0.0
H462 H 0.34035 0.97871 0.72915 0.0
H463 H 0.32489 0.97913 0.80762 0.0
H464 H 0.49167 0.17192 0.72187 0.0
H465 H 0.46281 0.12914 0.66346 0.0
H466 H 0.41929 0.06802 0.64252 0.0
H467 H 0.37408 0.01474 0.66615 0.0
Mn468 Mn 0.6545 0.8497 0.40358 0.0
Mn469 Mn 0.62369 0.92981 0.33835 0.0
C470 C 0.65778 0.84151 0.32843 0.0
C471 C 0.69894 0.81702 0.44607 0.0
C472 C 0.57604 0.87181 0.39296 0.0
O473 O 0.65316 0.90289 0.44301 0.0
O474 O 0.63891 0.95514 0.39438 0.0
C475 C 0.684 0.98894 0.32301 0.0
N476 N 0.65895 0.96128 0.30704 0.0
C477 C 0.66784 0.98744 0.23405 0.0
C478 C 0.69277 0.01728 0.24999 0.0
C479 C 0.70142 0.01745 0.29449 0.0
C480 C 0.65075 0.9606 0.26417 0.0
H481 H 0.68976 0.99024 0.35744 0.0
C482 C 0.64824 0.94263 0.43246 0.0
O483 O 0.66539 0.81119 0.45346 0.0
O484 O 0.70713 0.84229 0.41369 0.0
N485 N 0.60845 0.9089 0.28294 0.0
C486 C 0.58323 0.87864 0.27347 0.0
C487 C 0.57395 0.87119 0.22983 0.0
C488 C 0.59018 0.89558 0.19668 0.0
C489 C 0.61578 0.92693 0.20734 0.0
C490 C 0.62456 0.93205 0.25127 0.0
H491 H 0.57035 0.86043 0.29906 0.0
O492 O 0.65728 0.80779 0.35392 0.0
O493 O 0.65533 0.87919 0.34757 0.0
O494 O 0.59973 0.84547 0.40627 0.0
O495 O 0.5831 0.90343 0.36797 0.0
C496 C 0.63293 0.95337 0.17629 0.0
C497 C 0.6587 0.98389 0.18968 0.0
H498 H 0.70529 0.04045 0.22844 0.0
H499 H 0.72086 0.0402 0.30689 0.0
H500 H 0.55408 0.84708 0.22177 0.0
H501 H 0.5828 0.8898 0.16323 0.0
H502 H 0.62623 0.95096 0.14213 0.0
H503 H 0.67146 1.00429 0.16557 0.0
Mn504 Mn 0.3916 0.8503 0.09225 0.0
Mn505 Mn 0.42238 0.93023 0.15774 0.0
C506 C 0.38836 0.84181 0.16736 0.0
C507 C 0.34714 0.81774 0.04967 0.0
C508 C 0.47004 0.87247 0.10289 0.0
O509 O 0.3929 0.90362 0.05304 0.0
O510 O 0.40712 0.95576 0.10181 0.0
C511 C 0.36205 0.9892 0.17337 0.0
N512 N 0.38711 0.96152 0.1892 0.0
C513 C 0.37819 0.98731 0.26232 0.0
C514 C 0.35323 0.01716 0.24653 0.0
C515 C 0.34459 0.01754 0.20203 0.0
C516 C 0.39532 0.96065 0.23208 0.0
H517 H 0.35629 0.99066 0.13894 0.0
C518 C 0.3978 0.94333 0.0637 0.0
O519 O 0.38068 0.81196 0.04223 0.0
O520 O 0.33896 0.84288 0.08216 0.0
N521 N 0.43767 0.90912 0.21305 0.0
C522 C 0.46291 0.87886 0.22238 0.0
C523 C 0.47219 0.87123 0.26598 0.0
C524 C 0.45593 0.89542 0.29926 0.0
C525 C 0.43031 0.92678 0.28874 0.0
C526 C 0.42153 0.9321 0.24484 0.0
H527 H 0.47581 0.8608 0.19671 0.0
O528 O 0.38885 0.80819 0.14174 0.0
O529 O 0.39077 0.87958 0.14837 0.0
O530 O 0.44637 0.84613 0.08952 0.0
O531 O 0.46298 0.90402 0.12798 0.0
C532 C 0.41312 0.95302 0.31992 0.0
C533 C 0.38732 0.98355 0.30668 0.0
H534 H 0.34067 0.04019 0.2682 0.0
H535 H 0.32513 0.0403 0.18974 0.0
H536 H 0.49207 0.84712 0.27393 0.0
H537 H 0.4633 0.88949 0.33267 0.0
H538 H 0.41981 0.95044 0.35408 0.0
H539 H 0.37453 1.00379 0.33089 0.0
Mn540 Mn 0.65435 0.16917 0.5919 0.0
Mn541 Mn 0.62377 0.08912 0.65736 0.0
C542 C 0.65772 0.17756 0.66702 0.0
C543 C 0.69871 0.20187 0.54929 0.0
C544 C 0.57594 0.14686 0.60271 0.0
O545 O 0.65304 0.11589 0.55262 0.0
O546 O 0.63894 0.06369 0.60137 0.0
C547 C 0.68418 0.03019 0.67275 0.0
N548 N 0.65913 0.05782 0.68869 0.0
C549 C 0.66817 0.03188 0.76174 0.0
C550 C 0.6931 1.00206 0.74583 0.0
C551 C 0.70168 1.00179 0.70132 0.0
C552 C 0.65099 0.0586 0.73159 0.0
H553 H 0.68988 0.0288 0.63831 0.0
C554 C 0.6482 0.07616 0.56325 0.0
O555 O 0.66514 0.2076 0.54192 0.0
O556 O 0.70696 0.17669 0.58172 0.0
N557 N 0.60858 0.11012 0.71275 0.0
C558 C 0.58332 0.14033 0.72218 0.0
C559 C 0.57411 0.14787 0.76582 0.0
C560 C 0.59043 0.12363 0.79901 0.0
C561 C 0.61607 0.09232 0.78839 0.0
C562 C 0.62478 0.0871 0.74445 0.0
H563 H 0.57037 0.15842 0.69657 0.0
O564 O 0.65713 0.21121 0.64145 0.0
O565 O 0.65531 0.13982 0.64799 0.0
O566 O 0.59956 0.17324 0.58929 0.0
O567 O 0.58309 0.11531 0.62776 0.0
C568 C 0.63332 0.06604 0.81948 0.0
C569 C 0.6591 0.03554 0.80612 0.0
H570 H 0.70569 0.97898 0.76742 0.0
H571 H 0.72113 0.97906 0.68894 0.0
H572 H 0.55421 0.17194 0.77385 0.0
H573 H 0.58311 0.12948 0.83245 0.0
H574 H 0.62669 0.06855 0.85365 0.0
H575 H 0.67193 0.01525 0.83027 0.0
C576 C 0.06525 0.4042 0.07924 0.0
C577 C 0.0807 0.3648 0.06676 0.0
H578 H 1.01874 0.43728 0.10039 0.0
C579 C 0.0588 0.32806 0.06166 0.0
H580 H 0.08142 0.43306 0.08311 0.0
C581 C 1.02236 0.33027 0.07187 0.0
C582 C 1.00753 0.3692 0.08751 0.0
H583 H 0.0702 0.29716 0.05229 0.0
H584 H 1.00626 0.30123 0.06939 0.0
C585 C 0.02928 0.40637 0.08961 0.0
C586 C 0.98738 0.6914 0.56158 0.0
C587 C 0.96547 0.65467 0.56659 0.0
H588 H 0.03992 0.71821 0.56949 0.0
C589 C 0.98089 0.61525 0.57907 0.0
H590 H 0.97601 0.72232 0.55222 0.0
C591 C 1.01684 0.61306 0.58954 0.0
C592 C 0.03861 0.65022 0.58753 0.0
H593 H 0.9647 0.5864 0.58286 0.0
H594 H 0.02736 0.58213 0.60031 0.0
C595 C 0.02381 0.68917 0.57189 0.0
C596 C 1.02225 0.69007 0.92362 0.0
C597 C 1.00741 0.65106 0.90814 0.0
H598 H 0.07008 0.72326 0.94316 0.0
C599 C 0.02914 0.61387 0.90629 0.0
H600 H 1.00617 0.71913 0.9259 0.0
C601 C 0.06509 0.61607 0.91677 0.0
C602 C 0.08055 0.65553 0.92909 0.0
H603 H 1.01859 0.58291 0.89565 0.0
H604 H 0.08125 0.58719 0.9131 0.0
C605 C 0.05868 0.6923 0.93393 0.0
C606 C 0.0236 0.32936 0.42358 0.0
C607 C 0.03848 0.36834 0.40813 0.0
H608 H 0.97573 0.29621 0.44302 0.0
C609 C 1.01676 0.40554 0.4062 0.0
H610 H 0.03967 0.30029 0.42593 0.0
C611 C 0.98079 0.40337 0.41657 0.0
C612 C 0.9653 0.36392 0.42887 0.0
H613 H 0.02734 0.43649 0.39556 0.0
H614 H 0.96466 0.43226 0.41284 0.0
C615 C 0.98716 0.32714 0.4338 0.0
C616 C 0.52227 0.83012 0.07202 0.0
C617 C 0.50746 0.86908 0.08762 0.0
H618 H 0.57008 0.79698 0.05237 0.0
C619 C 0.52921 0.90627 0.08956 0.0
H620 H 0.50618 0.80106 0.06967 0.0
C621 C 0.56515 0.90409 0.07906 0.0
C622 C 0.58059 0.86467 0.06663 0.0
H623 H 0.51867 0.93719 0.1003 0.0
H624 H 0.58132 0.93297 0.08281 0.0
C625 C 0.5587 0.82791 0.06169 0.0
C626 C 0.5236 0.18913 0.57195 0.0
C627 C 0.53846 0.15022 0.5876 0.0
H628 H 0.47574 0.22221 0.55236 0.0
C629 C 0.51672 0.11304 0.58975 0.0
H630 H 0.53969 0.21818 0.56943 0.0
C631 C 0.48074 0.11519 0.5794 0.0
C632 C 0.46527 0.15457 0.56689 0.0
H633 H 0.52728 0.08215 0.60055 0.0
H634 H 0.46458 0.08632 0.5833 0.0
C635 C 0.48715 0.19131 0.56175 0.0
C636 C 0.55879 0.19215 0.93393 0.0
C637 C 0.58067 0.1554 0.92893 0.0
H638 H 0.50625 0.21896 0.92614 0.0
C639 C 0.5652 0.11596 0.91658 0.0
H640 H 0.5702 0.22308 0.9432 0.0
C641 C 0.52922 0.11375 0.90624 0.0
C642 C 0.50748 0.15093 0.90824 0.0
H643 H 0.58135 0.08709 0.91279 0.0
H644 H 0.51865 0.08281 0.89556 0.0
C645 C 0.52234 0.18991 0.92374 0.0
C646 C 0.48094 0.90329 0.41692 0.0
C647 C 0.4655 0.86382 0.42921 0.0
H648 H 0.52742 0.93649 0.3958 0.0
C649 C 0.48739 0.82705 0.434 0.0
H650 H 0.46478 0.93217 0.41329 0.0
C651 C 0.52381 0.82931 0.42367 0.0
C652 C 0.53862 0.86833 0.40822 0.0
H653 H 0.476 0.79608 0.44321 0.0
H654 H 0.5399 0.80025 0.42591 0.0
C655 C 0.51688 0.90552 0.40643 0.0
C656 C 0.19699 0.36831 0.21883 0.0
C657 C 0.19061 0.3307 0.19447 0.0
H658 H 0.19764 0.3978 0.28166 0.0
C659 C 0.1737 0.29551 0.21527 0.0
H660 H 0.20619 0.39752 0.2034 0.0
C661 C 0.16259 0.29885 0.25883 0.0
C662 C 0.16931 0.33688 0.28275 0.0
H663 H 0.16756 0.26618 0.19733 0.0
H664 H 0.14836 0.27204 0.27354 0.0
C665 C 0.18916 0.3699 0.26313 0.0
C666 C 0.84915 0.65115 0.71846 0.0
C667 C 0.85554 0.68879 0.69416 0.0
H668 H 0.84843 0.6216 0.78125 0.0
C669 C 0.87241 0.72397 0.71504 0.0
H670 H 0.83997 0.62195 0.70297 0.0
C671 C 0.88347 0.72058 0.75862 0.0
C672 C 0.87673 0.68253 0.78248 0.0
H673 H 0.87856 0.75332 0.69715 0.0
H674 H 0.89767 0.74739 0.7734 0.0
C675 C 0.85691 0.64952 0.76277 0.0
C676 C 0.17355 0.72411 0.78037 0.0
C677 C 0.19042 0.68905 0.80143 0.0
H678 H 0.14829 0.7472 0.7219 0.0
C679 C 0.19676 0.65126 0.77735 0.0
H680 H 0.16743 0.75357 0.79811 0.0
C681 C 0.18898 0.64937 0.73306 0.0
C682 C 0.16919 0.68228 0.71317 0.0
H683 H 0.20592 0.62215 0.79301 0.0
H684 H 0.19745 0.62134 0.71474 0.0
C685 C 0.16248 0.72047 0.73682 0.0
C686 C 0.88349 0.29897 0.23656 0.0
C687 C 0.8768 0.33714 0.21286 0.0
H688 H 0.87847 0.26592 0.29785 0.0
C689 C 0.85697 0.37005 0.23268 0.0
H690 H 0.8977 0.27224 0.22169 0.0
C691 C 0.84913 0.3682 0.27695 0.0
C692 C 0.85545 0.33043 0.30108 0.0
H693 H 0.84852 0.39806 0.21431 0.0
H694 H 0.83994 0.39732 0.29256 0.0
C695 C 0.87235 0.29536 0.28008 0.0
C696 C 0.66257 0.79884 0.25867 0.0
C697 C 0.66927 0.83692 0.28252 0.0
H698 H 0.66753 0.76606 0.19722 0.0
C699 C 0.68905 0.86994 0.26281 0.0
H700 H 0.64839 0.77202 0.27345 0.0
C701 C 0.69684 0.86829 0.21851 0.0
C702 C 0.6905 0.83062 0.19423 0.0
H703 H 0.69751 0.89789 0.28128 0.0
H704 H 0.70598 0.8975 0.20301 0.0
C705 C 0.67365 0.79544 0.21511 0.0
C706 C 0.38336 0.22043 0.75896 0.0
C707 C 0.37665 0.18238 0.78285 0.0
H708 H 0.37839 0.25314 0.69748 0.0
C709 C 0.35681 0.14937 0.76319 0.0
H710 H 0.39757 0.24724 0.7737 0.0
C711 C 0.349 0.15097 0.71889 0.0
C712 C 0.35536 0.1886 0.69456 0.0
H713 H 0.34835 0.12145 0.7817 0.0
H714 H 0.33982 0.12176 0.70343 0.0
C715 C 0.37225 0.22379 0.7154 0.0
C716 C 0.69693 0.15125 0.777 0.0
C717 C 0.69055 0.18898 0.80117 0.0
H718 H 0.69758 0.12144 0.71432 0.0
C719 C 0.67362 0.22404 0.78018 0.0
H720 H 0.70614 0.12213 0.79259 0.0
C721 C 0.66251 0.22046 0.73664 0.0
C722 C 0.66924 0.18233 0.71292 0.0
H723 H 0.66748 0.25346 0.79798 0.0
H724 H 0.64828 0.24719 0.72179 0.0
C725 C 0.6891 0.14943 0.73271 0.0
C726 C 0.38361 0.79882 0.23692 0.0
C727 C 0.3769 0.83701 0.21326 0.0
H728 H 0.37866 0.76573 0.29819 0.0
C729 C 0.3571 0.86991 0.23313 0.0
H730 H 0.39781 0.77209 0.222 0.0
C731 C 0.3493 0.86802 0.27742 0.0
C732 C 0.35564 0.83024 0.30151 0.0
H733 H 0.34862 0.89793 0.2148 0.0
H734 H 0.34012 0.89713 0.29306 0.0
C735 C 0.37253 0.79518 0.28046 0.0
C736 C 0.28498 0.2312 0.96047 0.0
C737 C 0.3204 0.22485 0.97396 0.0
H738 H 0.2349 0.26262 0.9738 0.0
C739 C 0.33128 0.24241 0.01391 0.0
H740 H 0.27581 0.21791 0.9298 0.0
C741 C 0.30817 0.26736 0.03886 0.0
C742 C 0.2733 0.27602 0.02468 0.0
H743 H 0.35812 0.23765 0.02571 0.0
H744 H 0.31819 0.28086 0.06904 0.0
C745 C 0.26156 0.2567 0.98565 0.0
C746 C 0.73817 0.75259 0.53866 0.0
C747 C 0.77297 0.74373 0.52436 0.0
H748 H 0.68824 0.78241 0.52558 0.0
C749 C 0.78463 0.76285 0.48521 0.0
H750 H 0.72821 0.73925 0.56893 0.0
C751 C 0.7612 0.78832 0.46001 0.0
C752 C 0.72583 0.79484 0.47361 0.0
H753 H 0.81124 0.75677 0.47328 0.0
H754 H 0.7703 0.80143 0.42925 0.0
C755 C 0.71504 0.77751 0.51369 0.0
C756 C 0.33099 0.77843 0.98192 0.0
C757 C 0.32023 0.79564 0.02207 0.0
H758 H 0.31777 0.74029 0.9266 0.0
C759 C 0.28486 0.78907 0.03568 0.0
H760 H 0.35778 0.78339 0.97002 0.0
C761 C 0.26141 0.76364 0.01044 0.0
C762 C 0.27306 0.74463 0.97123 0.0
H763 H 0.27579 0.80208 0.0665 0.0
H764 H 0.23482 0.7575 0.0224 0.0
C765 C 0.30784 0.75356 0.95691 0.0
C766 C 0.71471 0.24151 0.48169 0.0
C767 C 0.72556 0.22407 0.5217 0.0
H768 H 0.72783 0.27983 0.42647 0.0
C769 C 0.76098 0.23047 0.53519 0.0
H770 H 0.68787 0.23671 0.46988 0.0
C771 C 0.78441 0.25591 0.50996 0.0
C772 C 0.77269 0.27513 0.47088 0.0
H773 H 0.77014 0.21727 0.5659 0.0
H774 H 0.81107 0.26188 0.52182 0.0
C775 C 0.73784 0.2664 0.45669 0.0
C776 C 0.80798 0.76703 0.03862 0.0
C777 C 0.77314 0.77579 0.02439 0.0
H778 H 0.85793 0.7373 0.02549 0.0
C779 C 0.76144 0.75661 0.98528 0.0
H780 H 0.81797 0.78043 0.06887 0.0
C781 C 0.78487 0.73115 0.96007 0.0
C782 C 0.82027 0.72472 0.97361 0.0
H783 H 0.7348 0.76261 0.9734 0.0
H784 H 0.77573 0.71798 0.92934 0.0
C785 C 0.8311 0.74213 0.01364 0.0
C786 C 0.28439 0.26257 0.48566 0.0
C787 C 0.27264 0.24322 0.52466 0.0
H788 H 0.27016 0.30138 0.42982 0.0
C789 C 0.23775 0.25183 0.53878 0.0
H790 H 0.31107 0.2567 0.47386 0.0
C791 C 0.21464 0.27676 0.5138 0.0
C792 C 0.22554 0.29437 0.47389 0.0
H793 H 0.22772 0.2383 0.56893 0.0
H794 H 0.18778 0.28148 0.52557 0.0
C795 C 0.26098 0.28806 0.46046 0.0
C796 C 0.83117 0.27814 0.98163 0.0
C797 C 0.82037 0.2955 0.02169 0.0
H798 H 0.81801 0.23984 0.9264 0.0
C799 C 0.78498 0.28901 0.03525 0.0
H800 H 0.85799 0.28301 0.96977 0.0
C801 C 0.76154 0.26354 0.01004 0.0
C802 C 0.77323 0.24439 0.97091 0.0
H803 H 0.77586 0.30215 0.06599 0.0
H804 H 0.73492 0.25749 0.02195 0.0
C805 C 0.80804 0.25322 0.95665 0.0
C806 C 0.21511 0.74077 0.48185 0.0
C807 C 0.22586 0.72359 0.52201 0.0
H808 H 0.22832 0.7789 0.42653 0.0
C809 C 0.26121 0.73019 0.53567 0.0
H810 H 0.18832 0.73579 0.46992 0.0
C811 C 0.28466 0.75562 0.51044 0.0
C812 C 0.27302 0.77461 0.47122 0.0
H813 H 0.27029 0.71719 0.56649 0.0
H814 H 0.31125 0.76179 0.52243 0.0
C815 C 0.23825 0.76565 0.45686 0.0
C816 C 0.18995 0.53109 0.98898 0.0
C817 C 0.22207 0.5523 0.97922 0.0
H818 H 0.16474 0.47423 0.01473 0.0
C819 C 0.25423 0.53098 0.98855 0.0
H820 H 0.1647 0.54623 0.98146 0.0
C821 C 0.25424 0.48974 0.00789 0.0
C822 C 0.22211 0.46832 0.01712 0.0
H823 H 0.27941 0.54624 0.981 0.0
H824 H 0.27944 0.47455 0.0155 0.0
C825 C 0.18997 0.48944 0.00729 0.0
C826 C 0.79179 0.53002 0.50736 0.0
C827 C 0.82395 0.55138 0.51665 0.0
H828 H 0.76656 0.47357 0.48044 0.0
C829 C 0.85607 0.53018 0.50686 0.0
H830 H 0.76661 0.54527 0.51494 0.0
C831 C 0.85604 0.48853 0.48855 0.0
C832 C 0.82389 0.46738 0.47874 0.0
H833 H 0.88132 0.54534 0.51434 0.0
H834 H 0.88127 0.47333 0.48107 0.0
C835 C 0.79176 0.48878 0.48803 0.0
C836 C 0.89291 0.46638 0.98545 0.0
C837 C 0.89396 0.47732 0.02976 0.0
H838 H 0.89318 0.48932 0.91993 0.0
C839 C 0.89325 0.52141 0.04189 0.0
H840 H 0.89324 0.43278 0.97505 0.0
C841 C 0.8931 0.55391 0.01031 0.0
C842 C 0.89391 0.54296 0.966 0.0
H843 H 0.8936 0.53096 0.07584 0.0
H844 H 0.89359 0.58752 0.02069 0.0
C845 C 0.89301 0.49888 0.95388 0.0
C846 C 0.1528 0.46534 0.51068 0.0
C847 C 0.15206 0.47628 0.46637 0.0
H848 H 0.15228 0.48829 0.57621 0.0
C849 C 0.15308 0.52036 0.45426 0.0
H850 H 0.15223 0.43173 0.52106 0.0
C851 C 0.15322 0.55285 0.48583 0.0
C852 C 0.1521 0.54193 0.53013 0.0
H853 H 0.15297 0.52992 0.42031 0.0
H854 H 0.15297 0.58646 0.47543 0.0
C855 C 0.15269 0.49784 0.54226 0.0
C856 C 0.75424 0.03071 0.98826 0.0
C857 C 0.7221 0.05208 0.97893 0.0
H858 H 0.77941 0.97425 0.0152 0.0
C859 C 0.68996 0.03091 0.9887 0.0
H860 H 0.77944 0.04594 0.9807 0.0
C861 C 0.68995 0.98926 0.00702 0.0
C862 C 0.72207 0.96809 0.01685 0.0
H863 H 0.66473 0.04608 0.98119 0.0
H864 H 0.66471 0.97408 0.01447 0.0
C865 C 0.75423 0.98948 0.0076 0.0
C866 C 0.35607 0.9882 0.4891 0.0
C867 C 0.32396 0.96696 0.47933 0.0
H868 H 0.38126 0.04509 0.51485 0.0
C869 C 0.29179 0.98826 0.48867 0.0
H870 H 0.38132 0.97308 0.48157 0.0
C871 C 0.29176 0.02949 0.50801 0.0
C872 C 0.32388 0.05095 0.51725 0.0
H873 H 0.26661 0.97297 0.48112 0.0
H874 H 0.26655 0.04466 0.51562 0.0
C875 C 0.35603 0.02985 0.50741 0.0
C876 C 0.39331 0.0214 0.04234 0.0
C877 C 0.39394 0.97731 0.03022 0.0
H878 H 0.39373 0.0875 0.02114 0.0
C879 C 0.39283 0.96637 0.98591 0.0
H880 H 0.39371 0.03095 0.07629 0.0
C881 C 0.39295 0.99886 0.95434 0.0
C882 C 0.39393 0.04294 0.96645 0.0
H883 H 0.39311 0.93276 0.97551 0.0
H884 H 0.39307 0.98929 0.92039 0.0
C885 C 0.39318 0.05389 0.01077 0.0
C886 C 0.65303 0.05314 0.48544 0.0
C887 C 0.65206 0.0422 0.52975 0.0
H888 H 0.6527 0.03019 0.41992 0.0
C889 C 0.65284 0.99812 0.54188 0.0
H890 H 0.65265 0.08674 0.47504 0.0
C891 C 0.65298 0.96562 0.5103 0.0
C892 C 0.65209 0.97656 0.46599 0.0
H893 H 0.65254 0.98858 0.57583 0.0
H894 H 0.65254 0.93201 0.52069 0.0
C895 C 0.65293 0.02064 0.45387 0.0
loop_
_geom_bond_atom_site_label_1
_geom_bond_atom_site_label_2
_geom_bond_distance
_geom_bond_site_symmetry_2
_ccdc_geom_bond_type
Mn0 O5 2.095 . S
Mn0 O15 2.162 . S
Mn0 O16 2.297 . S
Mn0 O24 2.385 . S
Mn0 O25 2.209 . S
Mn0 O26 2.094 . S
Mn1 O6 2.121 . S
Mn1 N8 2.257 . S
Mn1 N17 2.282 . S
Mn1 O25 2.215 . S
Mn1 O27 2.117 . S
C2 O24 1.234 . S
C2 O25 1.283 . S
C3 O15 1.281 . S
C3 O16 1.236 . S
C4 O26 1.240 . S
C4 O27 1.264 . S
O5 Mn0 2.095 . S
O5 C14 1.250 . S
O6 Mn1 2.121 . S
O6 C14 1.258 . S
C7 N8 1.326 . S
C7 C11 1.460 . S
C7 H13 0.929 . S
N8 Mn1 2.257 . S
N8 C7 1.326 . S
N8 C12 1.362 . S
C9 C10 1.258 . S
C9 C12 1.431 . S
C9 C29 1.449 . S
C10 C9 1.258 . S
C10 C11 1.477 . S
C10 H30 0.931 . S
C11 C7 1.460 . S
C11 C10 1.477 . S
C11 H31 0.930 . S
C12 N8 1.362 . S
C12 C9 1.431 . S
C12 C22 1.476 . S
H13 C7 0.929 . S
C14 O5 1.250 . S
C14 O6 1.258 . S
O15 Mn0 2.162 . S
O15 C3 1.281 . S
O16 Mn0 2.297 . S
O16 C3 1.236 . S
N17 Mn1 2.282 . S
N17 C18 1.328 . S
N17 C22 1.318 . S
C18 N17 1.328 . S
C18 C19 1.457 . S
C18 H23 0.929 . S
C19 C18 1.457 . S
C19 C20 1.291 . S
C19 H32 0.931 . S
C20 C19 1.291 . S
C20 C21 1.373 . S
C20 H33 0.929 . S
C21 C20 1.373 . S
C21 C22 1.396 . S
C21 C28 1.403 . S
C22 C12 1.476 . S
C22 N17 1.318 . S
C22 C21 1.396 . S
H23 C18 0.929 . S
O24 Mn0 2.385 . S
O24 C2 1.234 . S
O25 Mn0 2.209 . S
O25 Mn1 2.215 . S
O25 C2 1.283 . S
O26 Mn0 2.094 . S
O26 C4 1.240 . S
O27 Mn1 2.117 . S
O27 C4 1.264 . S
C28 C21 1.403 . S
C28 C29 1.399 . S
C28 H34 0.929 . S
C29 C9 1.449 . S
C29 C28 1.399 . S
C29 H35 0.930 . S
H30 C10 0.931 . S
H31 C11 0.930 . S
H32 C19 0.931 . S
H33 C20 0.929 . S
H34 C28 0.929 . S
H35 C29 0.930 . S
Mn36 O41 2.095 . S
Mn36 O51 2.162 . S
Mn36 O52 2.297 . S
Mn36 O60 2.385 . S
Mn36 O61 2.209 . S
Mn36 O62 2.094 . S
Mn37 O42 2.121 . S
Mn37 N44 2.257 . S
Mn37 N53 2.282 . S
Mn37 O61 2.215 . S
Mn37 O63 2.117 . S
C38 O60 1.234 . S
C38 O61 1.283 . S
C39 O51 1.281 . S
C39 O52 1.236 . S
C40 O62 1.240 . S
C40 O63 1.264 . S
O41 Mn36 2.095 . S
O41 C50 1.250 . S
O42 Mn37 2.121 . S
O42 C50 1.258 . S
C43 N44 1.326 . S
C43 C47 1.460 . S
C43 H49 0.929 . S
N44 Mn37 2.257 . S
N44 C43 1.326 . S
N44 C48 1.362 . S
C45 C46 1.258 . S
C45 C48 1.431 . S
C45 C65 1.449 . S
C46 C45 1.258 . S
C46 C47 1.477 . S
C46 H66 0.931 . S
C47 C43 1.460 . S
C47 C46 1.477 . S
C47 H67 0.930 . S
C48 N44 1.362 . S
C48 C45 1.431 . S
C48 C58 1.476 . S
H49 C43 0.929 . S
C50 O41 1.250 . S
C50 O42 1.258 . S
O51 Mn36 2.162 . S
O51 C39 1.281 . S
O52 Mn36 2.297 . S
O52 C39 1.236 . S
N53 Mn37 2.282 . S
N53 C54 1.328 . S
N53 C58 1.318 . S
C54 N53 1.328 . S
C54 C55 1.457 . S
C54 H59 0.929 . S
C55 C54 1.457 . S
C55 C56 1.291 . S
C55 H68 0.931 . S
C56 C55 1.291 . S
C56 C57 1.373 . S
C56 H69 0.929 . S
C57 C56 1.373 . S
C57 C58 1.396 . S
C57 C64 1.403 . S
C58 C48 1.476 . S
C58 N53 1.318 . S
C58 C57 1.396 . S
H59 C54 0.929 . S
O60 Mn36 2.385 . S
O60 C38 1.234 . S
O61 Mn36 2.209 . S
O61 Mn37 2.215 . S
O61 C38 1.283 . S
O62 Mn36 2.094 . S
O62 C40 1.240 . S
O63 Mn37 2.117 . S
O63 C40 1.264 . S
C64 C57 1.403 . S
C64 C65 1.399 . S
C64 H70 0.929 . S
C65 C45 1.449 . S
C65 C64 1.399 . S
C65 H71 0.930 . S
H66 C46 0.931 . S
H67 C47 0.930 . S
H68 C55 0.931 . S
H69 C56 0.929 . S
H70 C64 0.929 . S
H71 C65 0.930 . S
Mn72 O77 2.095 . S
Mn72 O87 2.162 . S
Mn72 O88 2.297 . S
Mn72 O96 2.385 . S
Mn72 O97 2.209 . S
Mn72 O98 2.094 . S
Mn73 O78 2.121 . S
Mn73 N80 2.257 . S
Mn73 N89 2.282 . S
Mn73 O97 2.215 . S
Mn73 O99 2.117 . S
C74 O96 1.234 . S
C74 O97 1.283 . S
C75 O87 1.281 . S
C75 O88 1.236 . S
C76 O98 1.240 . S
C76 O99 1.264 . S
O77 Mn72 2.095 . S
O77 C86 1.250 . S
O78 Mn73 2.121 . S
O78 C86 1.258 . S
C79 N80 1.326 . S
C79 C83 1.460 . S
C79 H85 0.929 . S
N80 Mn73 2.257 . S
N80 C79 1.326 . S
N80 C84 1.362 . S
C81 C82 1.258 . S
C81 C84 1.431 . S
C81 C101 1.449 . S
C82 C81 1.258 . S
C82 C83 1.477 . S
C82 H102 0.931 . S
C83 C79 1.460 . S
C83 C82 1.477 . S
C83 H103 0.930 . S
C84 N80 1.362 . S
C84 C81 1.431 . S
C84 C94 1.476 . S
H85 C79 0.929 . S
C86 O77 1.250 . S
C86 O78 1.258 . S
O87 Mn72 2.162 . S
O87 C75 1.281 . S
O88 Mn72 2.297 . S
O88 C75 1.236 . S
N89 Mn73 2.282 . S
N89 C90 1.328 . S
N89 C94 1.318 . S
C90 N89 1.328 . S
C90 C91 1.457 . S
C90 H95 0.929 . S
C91 C90 1.457 . S
C91 C92 1.291 . S
C91 H104 0.931 . S
C92 C91 1.291 . S
C92 C93 1.373 . S
C92 H105 0.929 . S
C93 C92 1.373 . S
C93 C94 1.396 . S
C93 C100 1.403 . S
C94 C84 1.476 . S
C94 N89 1.318 . S
C94 C93 1.396 . S
H95 C90 0.929 . S
O96 Mn72 2.385 . S
O96 C74 1.234 . S
O97 Mn72 2.209 . S
O97 Mn73 2.215 . S
O97 C74 1.283 . S
O98 Mn72 2.094 . S
O98 C76 1.240 . S
O99 Mn73 2.117 . S
O99 C76 1.264 . S
C100 C93 1.403 . S
C100 C101 1.399 . S
C100 H106 0.929 . S
C101 C81 1.449 . S
C101 C100 1.399 . S
C101 H107 0.930 . S
H102 C82 0.931 . S
H103 C83 0.930 . S
H104 C91 0.931 . S
H105 C92 0.929 . S
H106 C100 0.929 . S
H107 C101 0.930 . S
Mn108 O113 2.095 . S
Mn108 O123 2.162 . S
Mn108 O124 2.297 . S
Mn108 O132 2.385 . S
Mn108 O133 2.209 . S
Mn108 O134 2.094 . S
Mn109 O114 2.121 . S
Mn109 N116 2.257 . S
Mn109 N125 2.282 . S
Mn109 O133 2.215 . S
Mn109 O135 2.117 . S
C110 O132 1.234 . S
C110 O133 1.283 . S
C111 O123 1.281 . S
C111 O124 1.236 . S
C112 O134 1.240 . S
C112 O135 1.264 . S
O113 Mn108 2.095 . S
O113 C122 1.250 . S
O114 Mn109 2.121 . S
O114 C122 1.258 . S
C115 N116 1.326 . S
C115 C119 1.460 . S
C115 H121 0.929 . S
N116 Mn109 2.257 . S
N116 C115 1.326 . S
N116 C120 1.362 . S
C117 C118 1.258 . S
C117 C120 1.431 . S
C117 C137 1.449 . S
C118 C117 1.258 . S
C118 C119 1.477 . S
C118 H138 0.931 . S
C119 C115 1.460 . S
C119 C118 1.477 . S
C119 H139 0.930 . S
C120 N116 1.362 . S
C120 C117 1.431 . S
C120 C130 1.476 . S
H121 C115 0.929 . S
C122 O113 1.250 . S
C122 O114 1.258 . S
O123 Mn108 2.162 . S
O123 C111 1.281 . S
O124 Mn108 2.297 . S
O124 C111 1.236 . S
N125 Mn109 2.282 . S
N125 C126 1.328 . S
N125 C130 1.318 . S
C126 N125 1.328 . S
C126 C127 1.457 . S
C126 H131 0.929 . S
C127 C126 1.457 . S
C127 C128 1.291 . S
C127 H140 0.931 . S
C128 C127 1.291 . S
C128 C129 1.373 . S
C128 H141 0.929 . S
C129 C128 1.373 . S
C129 C130 1.396 . S
C129 C136 1.403 . S
C130 C120 1.476 . S
C130 N125 1.318 . S
C130 C129 1.396 . S
H131 C126 0.929 . S
O132 Mn108 2.385 . S
O132 C110 1.234 . S
O133 Mn108 2.209 . S
O133 Mn109 2.215 . S
O133 C110 1.283 . S
O134 Mn108 2.094 . S
O134 C112 1.240 . S
O135 Mn109 2.117 . S
O135 C112 1.264 . S
C136 C129 1.403 . S
C136 C137 1.399 . S
C136 H142 0.929 . S
C137 C117 1.449 . S
C137 C136 1.399 . S
C137 H143 0.930 . S
H138 C118 0.931 . S
H139 C119 0.930 . S
H140 C127 0.931 . S
H141 C128 0.929 . S
H142 C136 0.929 . S
H143 C137 0.930 . S
Mn144 O149 2.095 . S
Mn144 O159 2.162 . S
Mn144 O160 2.297 . S
Mn144 O168 2.385 . S
Mn144 O169 2.209 . S
Mn144 O170 2.094 . S
Mn145 O150 2.121 . S
Mn145 N152 2.257 . S
Mn145 N161 2.282 . S
Mn145 O169 2.215 . S
Mn145 O171 2.117 . S
C146 O168 1.234 . S
C146 O169 1.283 . S
C147 O159 1.281 . S
C147 O160 1.236 . S
C148 O170 1.240 . S
C148 O171 1.264 . S
O149 Mn144 2.095 . S
O149 C158 1.250 . S
O150 Mn145 2.121 . S
O150 C158 1.258 . S
C151 N152 1.326 . S
C151 C155 1.460 . S
C151 H157 0.929 . S
N152 Mn145 2.257 . S
N152 C151 1.326 . S
N152 C156 1.362 . S
C153 C154 1.258 . S
C153 C156 1.431 . S
C153 C173 1.449 . S
C154 C153 1.258 . S
C154 C155 1.477 . S
C154 H174 0.931 . S
C155 C151 1.460 . S
C155 C154 1.477 . S
C155 H175 0.930 . S
C156 N152 1.362 . S
C156 C153 1.431 . S
C156 C166 1.476 . S
H157 C151 0.929 . S
C158 O149 1.250 . S
C158 O150 1.258 . S
O159 Mn144 2.162 . S
O159 C147 1.281 . S
O160 Mn144 2.297 . S
O160 C147 1.236 . S
N161 Mn145 2.282 . S
N161 C162 1.328 . S
N161 C166 1.318 . S
C162 N161 1.328 . S
C162 C163 1.457 . S
C162 H167 0.929 . S
C163 C162 1.457 . S
C163 C164 1.291 . S
C163 H176 0.931 . S
C164 C163 1.291 . S
C164 C165 1.373 . S
C164 H177 0.929 . S
C165 C164 1.373 . S
C165 C166 1.396 . S
C165 C172 1.403 . S
C166 C156 1.476 . S
C166 N161 1.318 . S
C166 C165 1.396 . S
H167 C162 0.929 . S
O168 Mn144 2.385 . S
O168 C146 1.234 . S
O169 Mn144 2.209 . S
O169 Mn145 2.215 . S
O169 C146 1.283 . S
O170 Mn144 2.094 . S
O170 C148 1.240 . S
O171 Mn145 2.117 . S
O171 C148 1.264 . S
C172 C165 1.403 . S
C172 C173 1.399 . S
C172 H178 0.929 . S
C173 C153 1.449 . S
C173 C172 1.399 . S
C173 H179 0.930 . S
H174 C154 0.931 . S
H175 C155 0.930 . S
H176 C163 0.931 . S
H177 C164 0.929 . S
H178 C172 0.929 . S
H179 C173 0.930 . S
Mn180 O185 2.095 . S
Mn180 O195 2.162 . S
Mn180 O196 2.297 . S
Mn180 O204 2.385 . S
Mn180 O205 2.209 . S
Mn180 O206 2.094 . S
Mn181 O186 2.121 . S
Mn181 N188 2.257 . S
Mn181 N197 2.282 . S
Mn181 O205 2.215 . S
Mn181 O207 2.117 . S
C182 O204 1.234 . S
C182 O205 1.283 . S
C183 O195 1.281 . S
C183 O196 1.236 . S
C184 O206 1.240 . S
C184 O207 1.264 . S
O185 Mn180 2.095 . S
O185 C194 1.250 . S
O186 Mn181 2.121 . S
O186 C194 1.258 . S
C187 N188 1.326 . S
C187 C191 1.460 . S
C187 H193 0.929 . S
N188 Mn181 2.257 . S
N188 C187 1.326 . S
N188 C192 1.362 . S
C189 C190 1.258 . S
C189 C192 1.431 . S
C189 C209 1.449 . S
C190 C189 1.258 . S
C190 C191 1.477 . S
C190 H210 0.931 . S
C191 C187 1.460 . S
C191 C190 1.477 . S
C191 H211 0.930 . S
C192 N188 1.362 . S
C192 C189 1.431 . S
C192 C202 1.476 . S
H193 C187 0.929 . S
C194 O185 1.250 . S
C194 O186 1.258 . S
O195 Mn180 2.162 . S
O195 C183 1.281 . S
O196 Mn180 2.297 . S
O196 C183 1.236 . S
N197 Mn181 2.282 . S
N197 C198 1.328 . S
N197 C202 1.318 . S
C198 N197 1.328 . S
C198 C199 1.457 . S
C198 H203 0.929 . S
C199 C198 1.457 . S
C199 C200 1.291 . S
C199 H212 0.931 . S
C200 C199 1.291 . S
C200 C201 1.373 . S
C200 H213 0.929 . S
C201 C200 1.373 . S
C201 C202 1.396 . S
C201 C208 1.403 . S
C202 C192 1.476 . S
C202 N197 1.318 . S
C202 C201 1.396 . S
H203 C198 0.929 . S
O204 Mn180 2.385 . S
O204 C182 1.234 . S
O205 Mn180 2.209 . S
O205 Mn181 2.215 . S
O205 C182 1.283 . S
O206 Mn180 2.094 . S
O206 C184 1.240 . S
O207 Mn181 2.117 . S
O207 C184 1.264 . S
C208 C201 1.403 . S
C208 C209 1.399 . S
C208 H214 0.929 . S
C209 C189 1.449 . S
C209 C208 1.399 . S
C209 H215 0.930 . S
H210 C190 0.931 . S
H211 C191 0.930 . S
H212 C199 0.931 . S
H213 C200 0.929 . S
H214 C208 0.929 . S
H215 C209 0.930 . S
Mn216 O221 2.095 . S
Mn216 O231 2.162 . S
Mn216 O232 2.297 . S
Mn216 O240 2.385 . S
Mn216 O241 2.209 . S
Mn216 O242 2.094 . S
Mn217 O222 2.121 . S
Mn217 N224 2.257 . S
Mn217 N233 2.282 . S
Mn217 O241 2.215 . S
Mn217 O243 2.117 . S
C218 O240 1.234 . S
C218 O241 1.283 . S
C219 O231 1.281 . S
C219 O232 1.236 . S
C220 O242 1.240 . S
C220 O243 1.264 . S
O221 Mn216 2.095 . S
O221 C230 1.250 . S
O222 Mn217 2.121 . S
O222 C230 1.258 . S
C223 N224 1.326 . S
C223 C227 1.460 . S
C223 H229 0.929 . S
N224 Mn217 2.257 . S
N224 C223 1.326 . S
N224 C228 1.362 . S
C225 C226 1.258 . S
C225 C228 1.431 . S
C225 C245 1.449 . S
C226 C225 1.258 . S
C226 C227 1.477 . S
C226 H246 0.931 . S
C227 C223 1.460 . S
C227 C226 1.477 . S
C227 H247 0.930 . S
C228 N224 1.362 . S
C228 C225 1.431 . S
C228 C238 1.476 . S
H229 C223 0.929 . S
C230 O221 1.250 . S
C230 O222 1.258 . S
O231 Mn216 2.162 . S
O231 C219 1.281 . S
O232 Mn216 2.297 . S
O232 C219 1.236 . S
N233 Mn217 2.282 . S
N233 C234 1.328 . S
N233 C238 1.318 . S
C234 N233 1.328 . S
C234 C235 1.457 . S
C234 H239 0.929 . S
C235 C234 1.457 . S
C235 C236 1.291 . S
C235 H248 0.931 . S
C236 C235 1.291 . S
C236 C237 1.373 . S
C236 H249 0.929 . S
C237 C236 1.373 . S
C237 C238 1.396 . S
C237 C244 1.403 . S
C238 C228 1.476 . S
C238 N233 1.318 . S
C238 C237 1.396 . S
H239 C234 0.929 . S
O240 Mn216 2.385 . S
O240 C218 1.234 . S
O241 Mn216 2.209 . S
O241 Mn217 2.215 . S
O241 C218 1.283 . S
O242 Mn216 2.094 . S
O242 C220 1.240 . S
O243 Mn217 2.117 . S
O243 C220 1.264 . S
C244 C237 1.403 . S
C244 C245 1.399 . S
C244 H250 0.929 . S
C245 C225 1.449 . S
C245 C244 1.399 . S
C245 H251 0.930 . S
H246 C226 0.931 . S
H247 C227 0.930 . S
H248 C235 0.931 . S
H249 C236 0.929 . S
H250 C244 0.929 . S
H251 C245 0.930 . S
Mn252 O257 2.095 . S
Mn252 O267 2.162 . S
Mn252 O268 2.297 . S
Mn252 O276 2.385 . S
Mn252 O277 2.209 . S
Mn252 O278 2.094 . S
Mn253 O258 2.121 . S
Mn253 N260 2.257 . S
Mn253 N269 2.282 . S
Mn253 O277 2.215 . S
Mn253 O279 2.117 . S
C254 O276 1.234 . S
C254 O277 1.283 . S
C255 O267 1.281 . S
C255 O268 1.236 . S
C256 O278 1.240 . S
C256 O279 1.264 . S
O257 Mn252 2.095 . S
O257 C266 1.250 . S
O258 Mn253 2.121 . S
O258 C266 1.258 . S
C259 N260 1.326 . S
C259 C263 1.460 . S
C259 H265 0.929 . S
N260 Mn253 2.257 . S
N260 C259 1.326 . S
N260 C264 1.362 . S
C261 C262 1.258 . S
C261 C264 1.431 . S
C261 C281 1.449 . S
C262 C261 1.258 . S
C262 C263 1.477 . S
C262 H282 0.931 . S
C263 C259 1.460 . S
C263 C262 1.477 . S
C263 H283 0.930 . S
C264 N260 1.362 . S
C264 C261 1.431 . S
C264 C274 1.476 . S
H265 C259 0.929 . S
C266 O257 1.250 . S
C266 O258 1.258 . S
O267 Mn252 2.162 . S
O267 C255 1.281 . S
O268 Mn252 2.297 . S
O268 C255 1.236 . S
N269 Mn253 2.282 . S
N269 C270 1.328 . S
N269 C274 1.318 . S
C270 N269 1.328 . S
C270 C271 1.457 . S
C270 H275 0.929 . S
C271 C270 1.457 . S
C271 C272 1.291 . S
C271 H284 0.931 . S
C272 C271 1.291 . S
C272 C273 1.373 . S
C272 H285 0.929 . S
C273 C272 1.373 . S
C273 C274 1.396 . S
C273 C280 1.403 . S
C274 C264 1.476 . S
C274 N269 1.318 . S
C274 C273 1.396 . S
H275 C270 0.929 . S
O276 Mn252 2.385 . S
O276 C254 1.234 . S
O277 Mn252 2.209 . S
O277 Mn253 2.215 . S
O277 C254 1.283 . S
O278 Mn252 2.094 . S
O278 C256 1.240 . S
O279 Mn253 2.117 . S
O279 C256 1.264 . S
C280 C273 1.403 . S
C280 C281 1.399 . S
C280 H286 0.929 . S
C281 C261 1.449 . S
C281 C280 1.399 . S
C281 H287 0.930 . S
H282 C262 0.931 . S
H283 C263 0.930 . S
H284 C271 0.931 . S
H285 C272 0.929 . S
H286 C280 0.929 . S
H287 C281 0.930 . S
Mn288 O293 2.095 . S
Mn288 O303 2.162 . S
Mn288 O304 2.297 . S
Mn288 O312 2.385 . S
Mn288 O313 2.209 . S
Mn288 O314 2.094 . S
Mn289 O294 2.121 . S
Mn289 N296 2.257 . S
Mn289 N305 2.282 . S
Mn289 O313 2.215 . S
Mn289 O315 2.117 . S
C290 O312 1.234 . S
C290 O313 1.283 . S
C291 O303 1.281 . S
C291 O304 1.236 . S
C292 O314 1.240 . S
C292 O315 1.264 . S
O293 Mn288 2.095 . S
O293 C302 1.250 . S
O294 Mn289 2.121 . S
O294 C302 1.258 . S
C295 N296 1.326 . S
C295 C299 1.460 . S
C295 H301 0.929 . S
N296 Mn289 2.257 . S
N296 C295 1.326 . S
N296 C300 1.362 . S
C297 C298 1.258 . S
C297 C300 1.431 . S
C297 C317 1.449 . S
C298 C297 1.258 . S
C298 C299 1.477 . S
C298 H318 0.945 . S
C299 C295 1.460 . S
C299 C298 1.477 . S
C299 H319 0.929 1_565 S
C300 N296 1.362 . S
C300 C297 1.431 . S
C300 C310 1.476 . S
H301 C295 0.929 . S
C302 O293 1.250 . S
C302 O294 1.258 . S
O303 Mn288 2.162 . S
O303 C291 1.281 . S
O304 Mn288 2.297 . S
O304 C291 1.236 . S
N305 Mn289 2.282 . S
N305 C306 1.328 . S
N305 C310 1.318 . S
C306 N305 1.328 . S
C306 C307 1.457 . S
C306 H311 0.929 . S
C307 C306 1.457 . S
C307 C308 1.291 . S
C307 H320 0.931 . S
C308 C307 1.291 . S
C308 C309 1.373 . S
C308 H321 0.929 . S
C309 C308 1.373 . S
C309 C310 1.396 . S
C309 C316 1.403 . S
C310 C300 1.476 . S
C310 N305 1.318 . S
C310 C309 1.396 . S
H311 C306 0.929 . S
O312 Mn288 2.385 . S
O312 C290 1.234 . S
O313 Mn288 2.209 . S
O313 Mn289 2.215 . S
O313 C290 1.283 . S
O314 Mn288 2.094 . S
O314 C292 1.240 . S
O315 Mn289 2.117 . S
O315 C292 1.264 . S
C316 C309 1.403 . S
C316 C317 1.399 . S
C316 H322 0.929 . S
C317 C297 1.449 . S
C317 C316 1.399 . S
C317 H323 0.930 . S
H318 C298 0.945 . S
H319 C299 0.929 1_545 S
H320 C307 0.931 . S
H321 C308 0.929 . S
H322 C316 0.929 . S
H323 C317 0.930 . S
Mn324 O329 2.095 . S
Mn324 O339 2.162 . S
Mn324 O340 2.297 . S
Mn324 O348 2.385 . S
Mn324 O349 2.209 . S
Mn324 O350 2.094 . S
Mn325 O330 2.121 . S
Mn325 N332 2.257 . S
Mn325 N341 2.282 . S
Mn325 O349 2.215 . S
Mn325 O351 2.117 . S
C326 O348 1.234 . S
C326 O349 1.283 . S
C327 O339 1.281 . S
C327 O340 1.236 . S
C328 O350 1.240 . S
C328 O351 1.264 . S
O329 Mn324 2.095 . S
O329 C338 1.250 . S
O330 Mn325 2.121 . S
O330 C338 1.258 . S
C331 N332 1.326 . S
C331 C335 1.460 . S
C331 H337 0.929 . S
N332 Mn325 2.257 . S
N332 C331 1.326 . S
N332 C336 1.362 . S
C333 C334 1.258 . S
C333 C336 1.431 . S
C333 C353 1.449 . S
C334 C333 1.258 . S
C334 C335 1.477 . S
C334 H354 0.945 . S
C335 C331 1.460 . S
C335 C334 1.477 . S
C335 H355 0.929 1_545 S
C336 N332 1.362 . S
C336 C333 1.431 . S
C336 C346 1.476 . S
H337 C331 0.929 . S
C338 O329 1.250 . S
C338 O330 1.258 . S
O339 Mn324 2.162 . S
O339 C327 1.281 . S
O340 Mn324 2.297 . S
O340 C327 1.236 . S
N341 Mn325 2.282 . S
N341 C342 1.328 . S
N341 C346 1.318 . S
C342 N341 1.328 . S
C342 C343 1.457 . S
C342 H347 0.929 . S
C343 C342 1.457 . S
C343 C344 1.291 . S
C343 H356 0.931 . S
C344 C343 1.291 . S
C344 C345 1.373 . S
C344 H357 0.929 . S
C345 C344 1.373 . S
C345 C346 1.396 . S
C345 C352 1.403 . S
C346 C336 1.476 . S
C346 N341 1.318 . S
C346 C345 1.396 . S
H347 C342 0.929 . S
O348 Mn324 2.385 . S
O348 C326 1.234 . S
O349 Mn324 2.209 . S
O349 Mn325 2.215 . S
O349 C326 1.283 . S
O350 Mn324 2.094 . S
O350 C328 1.240 . S
O351 Mn325 2.117 . S
O351 C328 1.264 . S
C352 C345 1.403 . S
C352 C353 1.399 . S
C352 H358 0.929 . S
C353 C333 1.449 . S
C353 C352 1.399 . S
C353 H359 0.930 . S
H354 C334 0.945 . S
H355 C335 0.929 1_565 S
H356 C343 0.931 . S
H357 C344 0.929 . S
H358 C352 0.929 . S
H359 C353 0.930 . S
Mn360 O365 2.095 . S
Mn360 O375 2.162 . S
Mn360 O376 2.297 . S
Mn360 O384 2.385 . S
Mn360 O385 2.209 . S
Mn360 O386 2.094 . S
Mn361 O366 2.121 . S
Mn361 N368 2.257 . S
Mn361 N377 2.282 . S
Mn361 O385 2.215 . S
Mn361 O387 2.117 . S
C362 O384 1.234 . S
C362 O385 1.283 . S
C363 O375 1.281 . S
C363 O376 1.236 . S
C364 O386 1.240 . S
C364 O387 1.264 . S
O365 Mn360 2.095 . S
O365 C374 1.250 . S
O366 Mn361 2.121 . S
O366 C374 1.258 . S
C367 N368 1.326 . S
C367 C371 1.460 . S
C367 H373 0.929 . S
N368 Mn361 2.257 . S
N368 C367 1.326 . S
N368 C372 1.362 . S
C369 C370 1.258 . S
C369 C372 1.431 . S
C369 C389 1.449 . S
C370 C369 1.258 . S
C370 C371 1.477 . S
C370 H390 0.945 . S
C371 C367 1.460 . S
C371 C370 1.477 . S
C371 H391 0.929 1_545 S
C372 N368 1.362 . S
C372 C369 1.431 . S
C372 C382 1.476 . S
H373 C367 0.929 . S
C374 O365 1.250 . S
C374 O366 1.258 . S
O375 Mn360 2.162 . S
O375 C363 1.281 . S
O376 Mn360 2.297 . S
O376 C363 1.236 . S
N377 Mn361 2.282 . S
N377 C378 1.328 . S
N377 C382 1.318 . S
C378 N377 1.328 . S
C378 C379 1.457 . S
C378 H383 0.929 . S
C379 C378 1.457 . S
C379 C380 1.291 . S
C379 H392 0.931 . S
C380 C379 1.291 . S
C380 C381 1.373 . S
C380 H393 0.929 . S
C381 C380 1.373 . S
C381 C382 1.396 . S
C381 C388 1.403 . S
C382 C372 1.476 . S
C382 N377 1.318 . S
C382 C381 1.396 . S
H383 C378 0.929 . S
O384 Mn360 2.385 . S
O384 C362 1.234 . S
O385 Mn360 2.209 . S
O385 Mn361 2.215 . S
O385 C362 1.283 . S
O386 Mn360 2.094 . S
O386 C364 1.240 . S
O387 Mn361 2.117 . S
O387 C364 1.264 . S
C388 C381 1.403 . S
C388 C389 1.399 . S
C388 H394 0.929 . S
C389 C369 1.449 . S
C389 C388 1.399 . S
C389 H395 0.930 . S
H390 C370 0.945 . S
H391 C371 0.929 1_565 S
H392 C379 0.931 . S
H393 C380 0.929 . S
H394 C388 0.929 . S
H395 C389 0.930 . S
Mn396 O401 2.095 . S
Mn396 O411 2.162 . S
Mn396 O412 2.297 . S
Mn396 O420 2.385 . S
Mn396 O421 2.209 . S
Mn396 O422 2.094 . S
Mn397 O402 2.121 . S
Mn397 N404 2.257 . S
Mn397 N413 2.282 . S
Mn397 O421 2.215 . S
Mn397 O423 2.117 . S
C398 O420 1.234 . S
C398 O421 1.283 . S
C399 O411 1.281 . S
C399 O412 1.236 . S
C400 O422 1.240 . S
C400 O423 1.264 . S
O401 Mn396 2.095 . S
O401 C410 1.250 . S
O402 Mn397 2.121 . S
O402 C410 1.258 . S
C403 N404 1.326 . S
C403 C407 1.460 . S
C403 H409 0.929 . S
N404 Mn397 2.257 . S
N404 C403 1.326 . S
N404 C408 1.362 . S
C405 C406 1.258 . S
C405 C408 1.431 . S
C405 C425 1.449 . S
C406 C405 1.258 . S
C406 C407 1.477 . S
C406 H426 0.945 . S
C407 C403 1.460 . S
C407 C406 1.477 . S
C407 H427 0.929 1_565 S
C408 N404 1.362 . S
C408 C405 1.431 . S
C408 C418 1.476 . S
H409 C403 0.929 . S
C410 O401 1.250 . S
C410 O402 1.258 . S
O411 Mn396 2.162 . S
O411 C399 1.281 . S
O412 Mn396 2.297 . S
O412 C399 1.236 . S
N413 Mn397 2.282 . S
N413 C414 1.328 . S
N413 C418 1.318 . S
C414 N413 1.328 . S
C414 C415 1.457 . S
C414 H419 0.929 . S
C415 C414 1.457 . S
C415 C416 1.291 . S
C415 H428 0.931 . S
C416 C415 1.291 . S
C416 C417 1.373 . S
C416 H429 0.929 . S
C417 C416 1.373 . S
C417 C418 1.396 . S
C417 C424 1.403 . S
C418 C408 1.476 . S
C418 N413 1.318 . S
C418 C417 1.396 . S
H419 C414 0.929 . S
O420 Mn396 2.385 . S
O420 C398 1.234 . S
O421 Mn396 2.209 . S
O421 Mn397 2.215 . S
O421 C398 1.283 . S
O422 Mn396 2.094 . S
O422 C400 1.240 . S
O423 Mn397 2.117 . S
O423 C400 1.264 . S
C424 C417 1.403 . S
C424 C425 1.399 . S
C424 H430 0.929 . S
C425 C405 1.449 . S
C425 C424 1.399 . S
C425 H431 0.930 . S
H426 C406 0.945 . S
H427 C407 0.929 1_545 S
H428 C415 0.931 . S
H429 C416 0.929 . S
H430 C424 0.929 . S
H431 C425 0.930 . S
Mn432 O437 2.095 . S
Mn432 O447 2.162 . S
Mn432 O448 2.297 . S
Mn432 O456 2.385 . S
Mn432 O457 2.209 . S
Mn432 O458 2.094 . S
Mn433 O438 2.121 . S
Mn433 N440 2.257 . S
Mn433 N449 2.282 . S
Mn433 O457 2.215 . S
Mn433 O459 2.117 . S
C434 O456 1.234 . S
C434 O457 1.283 . S
C435 O447 1.281 . S
C435 O448 1.236 . S
C436 O458 1.240 . S
C436 O459 1.264 . S
O437 Mn432 2.095 . S
O437 C446 1.250 . S
O438 Mn433 2.121 . S
O438 C446 1.258 . S
C439 N440 1.326 . S
C439 C443 1.460 1_545 S
C439 H445 0.929 . S
N440 Mn433 2.257 . S
N440 C439 1.326 . S
N440 C444 1.362 . S
C441 C442 1.258 1_545 S
C441 C444 1.431 . S
C441 C461 1.449 . S
C442 C441 1.258 1_565 S
C442 C443 1.477 . S
C442 H462 0.931 . S
C443 C439 1.460 1_565 S
C443 C442 1.477 . S
C443 H463 0.930 . S
C444 N440 1.362 . S
C444 C441 1.431 . S
C444 C454 1.476 . S
H445 C439 0.929 . S
C446 O437 1.250 . S
C446 O438 1.258 . S
O447 Mn432 2.162 . S
O447 C435 1.281 . S
O448 Mn432 2.297 . S
O448 C435 1.236 . S
N449 Mn433 2.282 . S
N449 C450 1.328 . S
N449 C454 1.318 . S
C450 N449 1.328 . S
C450 C451 1.457 . S
C450 H455 0.929 . S
C451 C450 1.457 . S
C451 C452 1.291 . S
C451 H464 0.931 . S
C452 C451 1.291 . S
C452 C453 1.373 . S
C452 H465 0.929 . S
C453 C452 1.373 . S
C453 C454 1.396 . S
C453 C460 1.403 . S
C454 C444 1.476 . S
C454 N449 1.318 . S
C454 C453 1.396 . S
H455 C450 0.929 . S
O456 Mn432 2.385 . S
O456 C434 1.234 . S
O457 Mn432 2.209 . S
O457 Mn433 2.215 . S
O457 C434 1.283 . S
O458 Mn432 2.094 . S
O458 C436 1.240 . S
O459 Mn433 2.117 . S
O459 C436 1.264 . S
C460 C453 1.403 . S
C460 C461 1.399 . S
C460 H466 0.929 . S
C461 C441 1.449 . S
C461 C460 1.399 . S
C461 H467 0.930 . S
H462 C442 0.931 . S
H463 C443 0.930 . S
H464 C451 0.931 . S
H465 C452 0.929 . S
H466 C460 0.929 . S
H467 C461 0.930 . S
Mn468 O473 2.095 . S
Mn468 O483 2.162 . S
Mn468 O484 2.297 . S
Mn468 O492 2.385 . S
Mn468 O493 2.209 . S
Mn468 O494 2.094 . S
Mn469 O474 2.121 . S
Mn469 N476 2.257 . S
Mn469 N485 2.282 . S
Mn469 O493 2.215 . S
Mn469 O495 2.117 . S
C470 O492 1.234 . S
C470 O493 1.283 . S
C471 O483 1.281 . S
C471 O484 1.236 . S
C472 O494 1.240 . S
C472 O495 1.264 . S
O473 Mn468 2.095 . S
O473 C482 1.250 . S
O474 Mn469 2.121 . S
O474 C482 1.258 . S
C475 N476 1.326 . S
C475 C479 1.460 1_565 S
C475 H481 0.929 . S
N476 Mn469 2.257 . S
N476 C475 1.326 . S
N476 C480 1.362 . S
C477 C478 1.258 1_565 S
C477 C480 1.431 . S
C477 C497 1.449 . S
C478 C477 1.258 1_545 S
C478 C479 1.477 . S
C478 H498 0.931 . S
C479 C475 1.460 1_545 S
C479 C478 1.477 . S
C479 H499 0.930 . S
C480 N476 1.362 . S
C480 C477 1.431 . S
C480 C490 1.476 . S
H481 C475 0.929 . S
C482 O473 1.250 . S
C482 O474 1.258 . S
O483 Mn468 2.162 . S
O483 C471 1.281 . S
O484 Mn468 2.297 . S
O484 C471 1.236 . S
N485 Mn469 2.282 . S
N485 C486 1.328 . S
N485 C490 1.318 . S
C486 N485 1.328 . S
C486 C487 1.457 . S
C486 H491 0.929 . S
C487 C486 1.457 . S
C487 C488 1.291 . S
C487 H500 0.931 . S
C488 C487 1.291 . S
C488 C489 1.373 . S
C488 H501 0.929 . S
C489 C488 1.373 . S
C489 C490 1.396 . S
C489 C496 1.403 . S
C490 C480 1.476 . S
C490 N485 1.318 . S
C490 C489 1.396 . S
H491 C486 0.929 . S
O492 Mn468 2.385 . S
O492 C470 1.234 . S
O493 Mn468 2.209 . S
O493 Mn469 2.215 . S
O493 C470 1.283 . S
O494 Mn468 2.094 . S
O494 C472 1.240 . S
O495 Mn469 2.117 . S
O495 C472 1.264 . S
C496 C489 1.403 . S
C496 C497 1.399 . S
C496 H502 0.929 . S
C497 C477 1.449 . S
C497 C496 1.399 . S
C497 H503 0.930 . S
H498 C478 0.931 . S
H499 C479 0.930 . S
H500 C487 0.931 . S
H501 C488 0.929 . S
H502 C496 0.929 . S
H503 C497 0.930 . S
Mn504 O509 2.095 . S
Mn504 O519 2.162 . S
Mn504 O520 2.297 . S
Mn504 O528 2.385 . S
Mn504 O529 2.209 . S
Mn504 O530 2.094 . S
Mn505 O510 2.121 . S
Mn505 N512 2.257 . S
Mn505 N521 2.282 . S
Mn505 O529 2.215 . S
Mn505 O531 2.117 . S
C506 O528 1.234 . S
C506 O529 1.283 . S
C507 O519 1.281 . S
C507 O520 1.236 . S
C508 O530 1.240 . S
C508 O531 1.264 . S
O509 Mn504 2.095 . S
O509 C518 1.250 . S
O510 Mn505 2.121 . S
O510 C518 1.258 . S
C511 N512 1.326 . S
C511 C515 1.460 1_565 S
C511 H517 0.929 . S
N512 Mn505 2.257 . S
N512 C511 1.326 . S
N512 C516 1.362 . S
C513 C514 1.258 1_565 S
C513 C516 1.431 . S
C513 C533 1.449 . S
C514 C513 1.258 1_545 S
C514 C515 1.477 . S
C514 H534 0.931 . S
C515 C511 1.460 1_545 S
C515 C514 1.477 . S
C515 H535 0.930 . S
C516 N512 1.362 . S
C516 C513 1.431 . S
C516 C526 1.476 . S
H517 C511 0.929 . S
C518 O509 1.250 . S
C518 O510 1.258 . S
O519 Mn504 2.162 . S
O519 C507 1.281 . S
O520 Mn504 2.297 . S
O520 C507 1.236 . S
N521 Mn505 2.282 . S
N521 C522 1.328 . S
N521 C526 1.318 . S
C522 N521 1.328 . S
C522 C523 1.457 . S
C522 H527 0.929 . S
C523 C522 1.457 . S
C523 C524 1.291 . S
C523 H536 0.931 . S
C524 C523 1.291 . S
C524 C525 1.373 . S
C524 H537 0.929 . S
C525 C524 1.373 . S
C525 C526 1.396 . S
C525 C532 1.403 . S
C526 C516 1.476 . S
C526 N521 1.318 . S
C526 C525 1.396 . S
H527 C522 0.929 . S
O528 Mn504 2.385 . S
O528 C506 1.234 . S
O529 Mn504 2.209 . S
O529 Mn505 2.215 . S
O529 C506 1.283 . S
O530 Mn504 2.094 . S
O530 C508 1.240 . S
O531 Mn505 2.117 . S
O531 C508 1.264 . S
C532 C525 1.403 . S
C532 C533 1.399 . S
C532 H538 0.929 . S
C533 C513 1.449 . S
C533 C532 1.399 . S
C533 H539 0.930 . S
H534 C514 0.931 . S
H535 C515 0.930 . S
H536 C523 0.931 . S
H537 C524 0.929 . S
H538 C532 0.929 . S
H539 C533 0.930 . S
Mn540 O545 2.095 . S
Mn540 O555 2.162 . S
Mn540 O556 2.297 . S
Mn540 O564 2.385 . S
Mn540 O565 2.209 . S
Mn540 O566 2.094 . S
Mn541 O546 2.121 . S
Mn541 N548 2.257 . S
Mn541 N557 2.282 . S
Mn541 O565 2.215 . S
Mn541 O567 2.117 . S
C542 O564 1.234 . S
C542 O565 1.283 . S
C543 O555 1.281 . S
C543 O556 1.236 . S
C544 O566 1.240 . S
C544 O567 1.264 . S
O545 Mn540 2.095 . S
O545 C554 1.250 . S
O546 Mn541 2.121 . S
O546 C554 1.258 . S
C547 N548 1.326 . S
C547 C551 1.460 1_545 S
C547 H553 0.929 . S
N548 Mn541 2.257 . S
N548 C547 1.326 . S
N548 C552 1.362 . S
C549 C550 1.258 1_545 S
C549 C552 1.431 . S
C549 C569 1.449 . S
C550 C549 1.258 1_565 S
C550 C551 1.477 . S
C550 H570 0.931 . S
C551 C547 1.460 1_565 S
C551 C550 1.477 . S
C551 H571 0.930 . S
C552 N548 1.362 . S
C552 C549 1.431 . S
C552 C562 1.476 . S
H553 C547 0.929 . S
C554 O545 1.250 . S
C554 O546 1.258 . S
O555 Mn540 2.162 . S
O555 C543 1.281 . S
O556 Mn540 2.297 . S
O556 C543 1.236 . S
N557 Mn541 2.282 . S
N557 C558 1.328 . S
N557 C562 1.318 . S
C558 N557 1.328 . S
C558 C559 1.457 . S
C558 H563 0.929 . S
C559 C558 1.457 . S
C559 C560 1.291 . S
C559 H572 0.931 . S
C560 C559 1.291 . S
C560 C561 1.373 . S
C560 H573 0.929 . S
C561 C560 1.373 . S
C561 C562 1.396 . S
C561 C568 1.403 . S
C562 C552 1.476 . S
C562 N557 1.318 . S
C562 C561 1.396 . S
H563 C558 0.929 . S
O564 Mn540 2.385 . S
O564 C542 1.234 . S
O565 Mn540 2.209 . S
O565 Mn541 2.215 . S
O565 C542 1.283 . S
O566 Mn540 2.094 . S
O566 C544 1.240 . S
O567 Mn541 2.117 . S
O567 C544 1.264 . S
C568 C561 1.403 . S
C568 C569 1.399 . S
C568 H574 0.929 . S
C569 C549 1.449 . S
C569 C568 1.399 . S
C569 H575 0.930 . S
H570 C550 0.931 . S
H571 C551 0.930 . S
H572 C559 0.931 . S
H573 C560 0.929 . S
H574 C568 0.929 . S
H575 C569 0.930 . S
C576 C577 1.387 . S
C576 H580 0.950 . S
C576 C585 1.390 1_455 S
C577 C576 1.387 . S
C577 C579 1.387 . S
H578 C585 0.950 . S
C579 C577 1.387 . S
C579 C581 1.390 1_455 S
C579 H583 0.950 . S
H580 C576 0.950 . S
C581 C579 1.390 1_655 S
C581 C582 1.387 . S
C581 H584 0.950 . S
C582 C581 1.387 . S
C582 C585 1.387 . S
H583 C579 0.950 . S
H584 C581 0.950 . S
C585 C576 1.390 1_655 S
C585 H578 0.950 . S
C585 C582 1.387 . S
C586 C587 1.387 . S
C586 H590 0.950 . S
C586 C595 1.390 1_655 S
C587 C586 1.387 . S
C587 C589 1.387 . S
H588 C595 0.950 . S
C589 C587 1.387 . S
C589 C591 1.390 1_655 S
C589 H593 0.950 . S
H590 C586 0.950 . S
C591 C589 1.390 1_455 S
C591 C592 1.387 . S
C591 H594 0.950 . S
C592 C591 1.387 . S
C592 C595 1.387 . S
H593 C589 0.950 . S
H594 C591 0.950 . S
C595 C586 1.390 1_455 S
C595 H588 0.950 . S
C595 C592 1.387 . S
C596 C597 1.387 . S
C596 H600 0.950 . S
C596 C605 1.390 1_655 S
C597 C596 1.387 . S
C597 C599 1.387 . S
H598 C605 0.950 . S
C599 C597 1.387 . S
C599 C601 1.390 1_655 S
C599 H603 0.950 . S
H600 C596 0.950 . S
C601 C599 1.390 1_455 S
C601 C602 1.387 . S
C601 H604 0.950 . S
C602 C601 1.387 . S
C602 C605 1.387 . S
H603 C599 0.950 . S
H604 C601 0.950 . S
C605 C596 1.390 1_455 S
C605 H598 0.950 . S
C605 C602 1.387 . S
C606 C607 1.387 . S
C606 H610 0.950 . S
C606 C615 1.390 1_455 S
C607 C606 1.387 . S
C607 C609 1.387 . S
H608 C615 0.950 . S
C609 C607 1.387 . S
C609 C611 1.390 1_455 S
C609 H613 0.950 . S
H610 C606 0.950 . S
C611 C609 1.390 1_655 S
C611 C612 1.387 . S
C611 H614 0.950 . S
C612 C611 1.387 . S
C612 C615 1.387 . S
H613 C609 0.950 . S
H614 C611 0.950 . S
C615 C606 1.390 1_655 S
C615 H608 0.950 . S
C615 C612 1.387 . S
C616 C617 1.387 . S
C616 H620 0.950 . S
C616 C625 1.390 . S
C617 C616 1.387 . S
C617 C619 1.387 . S
H618 C625 0.950 . S
C619 C617 1.387 . S
C619 C621 1.390 . S
C619 H623 0.950 . S
H620 C616 0.950 . S
C621 C619 1.390 . S
C621 C622 1.387 . S
C621 H624 0.950 . S
C622 C621 1.387 . S
C622 C625 1.387 . S
H623 C619 0.950 . S
H624 C621 0.950 . S
C625 C616 1.390 . S
C625 H618 0.950 . S
C625 C622 1.387 . S
C626 C627 1.387 . S
C626 H630 0.950 . S
C626 C635 1.390 . S
C627 C626 1.387 . S
C627 C629 1.387 . S
H628 C635 0.950 . S
C629 C627 1.387 . S
C629 C631 1.390 . S
C629 H633 0.950 . S
H630 C626 0.950 . S
C631 C629 1.390 . S
C631 C632 1.387 . S
C631 H634 0.950 . S
C632 C631 1.387 . S
C632 C635 1.387 . S
H633 C629 0.950 . S
H634 C631 0.950 . S
C635 C626 1.390 . S
C635 H628 0.950 . S
C635 C632 1.387 . S
C636 C637 1.387 . S
C636 H640 0.950 . S
C636 C645 1.390 . S
C637 C636 1.387 . S
C637 C639 1.387 . S
H638 C645 0.950 . S
C639 C637 1.387 . S
C639 C641 1.390 . S
C639 H643 0.950 . S
H640 C636 0.950 . S
C641 C639 1.390 . S
C641 C642 1.387 . S
C641 H644 0.950 . S
C642 C641 1.387 . S
C642 C645 1.387 . S
H643 C639 0.950 . S
H644 C641 0.950 . S
C645 C636 1.390 . S
C645 H638 0.950 . S
C645 C642 1.387 . S
C646 C647 1.387 . S
C646 H650 0.950 . S
C646 C655 1.390 . S
C647 C646 1.387 . S
C647 C649 1.387 . S
H648 C655 0.950 . S
C649 C647 1.387 . S
C649 C651 1.390 . S
C649 H653 0.950 . S
H650 C646 0.950 . S
C651 C649 1.390 . S
C651 C652 1.387 . S
C651 H654 0.950 . S
C652 C651 1.387 . S
C652 C655 1.387 . S
H653 C649 0.950 . S
H654 C651 0.950 . S
C655 C646 1.390 . S
C655 H648 0.950 . S
C655 C652 1.387 . S
C656 C657 1.387 . S
C656 H660 0.950 . S
C656 C665 1.390 . S
C657 C656 1.387 . S
C657 C659 1.387 . S
H658 C665 0.950 . S
C659 C657 1.387 . S
C659 C661 1.390 . S
C659 H663 0.950 . S
H660 C656 0.950 . S
C661 C659 1.390 . S
C661 C662 1.387 . S
C661 H664 0.950 . S
C662 C661 1.387 . S
C662 C665 1.387 . S
H663 C659 0.950 . S
H664 C661 0.950 . S
C665 C656 1.390 . S
C665 H658 0.950 . S
C665 C662 1.387 . S
C666 C667 1.387 . S
C666 H670 0.950 . S
C666 C675 1.390 . S
C667 C666 1.387 . S
C667 C669 1.387 . S
H668 C675 0.950 . S
C669 C667 1.387 . S
C669 C671 1.390 . S
C669 H673 0.950 . S
H670 C666 0.950 . S
C671 C669 1.390 . S
C671 C672 1.387 . S
C671 H674 0.950 . S
C672 C671 1.387 . S
C672 C675 1.387 . S
H673 C669 0.950 . S
H674 C671 0.950 . S
C675 C666 1.390 . S
C675 H668 0.950 . S
C675 C672 1.387 . S
C676 C677 1.387 . S
C676 H680 0.950 . S
C676 C685 1.390 . S
C677 C676 1.387 . S
C677 C679 1.387 . S
H678 C685 0.950 . S
C679 C677 1.387 . S
C679 C681 1.390 . S
C679 H683 0.950 . S
H680 C676 0.950 . S
C681 C679 1.390 . S
C681 C682 1.387 . S
C681 H684 0.950 . S
C682 C681 1.387 . S
C682 C685 1.387 . S
H683 C679 0.950 . S
H684 C681 0.950 . S
C685 C676 1.390 . S
C685 H678 0.950 . S
C685 C682 1.387 . S
C686 C687 1.387 . S
C686 H690 0.950 . S
C686 C695 1.390 . S
C687 C686 1.387 . S
C687 C689 1.387 . S
H688 C695 0.950 . S
C689 C687 1.387 . S
C689 C691 1.390 . S
C689 H693 0.950 . S
H690 C686 0.950 . S
C691 C689 1.390 . S
C691 C692 1.387 . S
C691 H694 0.950 . S
C692 C691 1.387 . S
C692 C695 1.387 . S
H693 C689 0.950 . S
H694 C691 0.950 . S
C695 C686 1.390 . S
C695 H688 0.950 . S
C695 C692 1.387 . S
C696 C697 1.387 . S
C696 H700 0.950 . S
C696 C705 1.390 . S
C697 C696 1.387 . S
C697 C699 1.387 . S
H698 C705 0.950 . S
C699 C697 1.387 . S
C699 C701 1.390 . S
C699 H703 0.950 . S
H700 C696 0.950 . S
C701 C699 1.390 . S
C701 C702 1.387 . S
C701 H704 0.950 . S
C702 C701 1.387 . S
C702 C705 1.387 . S
H703 C699 0.950 . S
H704 C701 0.950 . S
C705 C696 1.390 . S
C705 H698 0.950 . S
C705 C702 1.387 . S
C706 C707 1.387 . S
C706 H710 0.950 . S
C706 C715 1.390 . S
C707 C706 1.387 . S
C707 C709 1.387 . S
H708 C715 0.950 . S
C709 C707 1.387 . S
C709 C711 1.390 . S
C709 H713 0.950 . S
H710 C706 0.950 . S
C711 C709 1.390 . S
C711 C712 1.387 . S
C711 H714 0.950 . S
C712 C711 1.387 . S
C712 C715 1.387 . S
H713 C709 0.950 . S
H714 C711 0.950 . S
C715 C706 1.390 . S
C715 H708 0.950 . S
C715 C712 1.387 . S
C716 C717 1.387 . S
C716 H720 0.950 . S
C716 C725 1.390 . S
C717 C716 1.387 . S
C717 C719 1.387 . S
H718 C725 0.950 . S
C719 C717 1.387 . S
C719 C721 1.390 . S
C719 H723 0.950 . S
H720 C716 0.950 . S
C721 C719 1.390 . S
C721 C722 1.387 . S
C721 H724 0.950 . S
C722 C721 1.387 . S
C722 C725 1.387 . S
H723 C719 0.950 . S
H724 C721 0.950 . S
C725 C716 1.390 . S
C725 H718 0.950 . S
C725 C722 1.387 . S
C726 C727 1.387 . S
C726 H730 0.950 . S
C726 C735 1.390 . S
C727 C726 1.387 . S
C727 C729 1.387 . S
H728 C735 0.950 . S
C729 C727 1.387 . S
C729 C731 1.390 . S
C729 H733 0.950 . S
H730 C726 0.950 . S
C731 C729 1.390 . S
C731 C732 1.387 . S
C731 H734 0.950 . S
C732 C731 1.387 . S
C732 C735 1.387 . S
H733 C729 0.950 . S
H734 C731 0.950 . S
C735 C726 1.390 . S
C735 H728 0.950 . S
C735 C732 1.387 . S
C736 C737 1.387 1_554 S
C736 H740 0.950 . S
C736 C745 1.390 . S
C737 C736 1.387 1_556 S
C737 C739 1.387 . S
H738 C745 0.950 . S
C739 C737 1.387 . S
C739 C741 1.390 . S
C739 H743 0.950 . S
H740 C736 0.950 . S
C741 C739 1.390 . S
C741 C742 1.387 1_556 S
C741 H744 0.950 . S
C742 C741 1.387 1_554 S
C742 C745 1.387 . S
H743 C739 0.950 . S
H744 C741 0.950 . S
C745 C736 1.390 . S
C745 H738 0.950 . S
C745 C742 1.387 . S
C746 C747 1.387 . S
C746 H750 0.950 . S
C746 C755 1.390 . S
C747 C746 1.387 . S
C747 C749 1.387 . S
H748 C755 0.950 . S
C749 C747 1.387 . S
C749 C751 1.390 . S
C749 H753 0.950 . S
H750 C746 0.950 . S
C751 C749 1.390 . S
C751 C752 1.387 . S
C751 H754 0.950 . S
C752 C751 1.387 . S
C752 C755 1.387 . S
H753 C749 0.950 . S
H754 C751 0.950 . S
C755 C746 1.390 . S
C755 H748 0.950 . S
C755 C752 1.387 . S
C756 C757 1.387 1_556 S
C756 H760 0.950 . S
C756 C765 1.390 . S
C757 C756 1.387 1_554 S
C757 C759 1.387 . S
H758 C765 0.950 . S
C759 C757 1.387 . S
C759 C761 1.390 . S
C759 H763 0.950 . S
H760 C756 0.950 . S
C761 C759 1.390 . S
C761 C762 1.387 1_554 S
C761 H764 0.950 . S
C762 C761 1.387 1_556 S
C762 C765 1.387 . S
H763 C759 0.950 . S
H764 C761 0.950 . S
C765 C756 1.390 . S
C765 H758 0.950 . S
C765 C762 1.387 . S
C766 C767 1.387 . S
C766 H770 0.950 . S
C766 C775 1.390 . S
C767 C766 1.387 . S
C767 C769 1.387 . S
H768 C775 0.950 . S
C769 C767 1.387 . S
C769 C771 1.390 . S
C769 H773 0.950 . S
H770 C766 0.950 . S
C771 C769 1.390 . S
C771 C772 1.387 . S
C771 H774 0.950 . S
C772 C771 1.387 . S
C772 C775 1.387 . S
H773 C769 0.950 . S
H774 C771 0.950 . S
C775 C766 1.390 . S
C775 H768 0.950 . S
C775 C772 1.387 . S
C776 C777 1.387 . S
C776 H780 0.950 . S
C776 C785 1.390 1_554 S
C777 C776 1.387 . S
C777 C779 1.387 . S
H778 C785 0.950 . S
C779 C777 1.387 . S
C779 C781 1.390 1_554 S
C779 H783 0.950 . S
H780 C776 0.950 . S
C781 C779 1.390 1_556 S
C781 C782 1.387 . S
C781 H784 0.950 . S
C782 C781 1.387 . S
C782 C785 1.387 . S
H783 C779 0.950 . S
H784 C781 0.950 . S
C785 C776 1.390 1_556 S
C785 H778 0.950 . S
C785 C782 1.387 . S
C786 C787 1.387 . S
C786 H790 0.950 . S
C786 C795 1.390 . S
C787 C786 1.387 . S
C787 C789 1.387 . S
H788 C795 0.950 . S
C789 C787 1.387 . S
C789 C791 1.390 . S
C789 H793 0.950 . S
H790 C786 0.950 . S
C791 C789 1.390 . S
C791 C792 1.387 . S
C791 H794 0.950 . S
C792 C791 1.387 . S
C792 C795 1.387 . S
H793 C789 0.950 . S
H794 C791 0.950 . S
C795 C786 1.390 . S
C795 H788 0.950 . S
C795 C792 1.387 . S
C796 C797 1.387 1_556 S
C796 H800 0.950 . S
C796 C805 1.390 . S
C797 C796 1.387 1_554 S
C797 C799 1.387 . S
H798 C805 0.950 . S
C799 C797 1.387 . S
C799 C801 1.390 . S
C799 H803 0.950 . S
H800 C796 0.950 . S
C801 C799 1.390 . S
C801 C802 1.387 1_554 S
C801 H804 0.950 . S
C802 C801 1.387 1_556 S
C802 C805 1.387 . S
H803 C799 0.950 . S
H804 C801 0.950 . S
C805 C796 1.390 . S
C805 H798 0.950 . S
C805 C802 1.387 . S
C806 C807 1.387 . S
C806 H810 0.950 . S
C806 C815 1.390 . S
C807 C806 1.387 . S
C807 C809 1.387 . S
H808 C815 0.950 . S
C809 C807 1.387 . S
C809 C811 1.390 . S
C809 H813 0.950 . S
H810 C806 0.950 . S
C811 C809 1.390 . S
C811 C812 1.387 . S
C811 H814 0.950 . S
C812 C811 1.387 . S
C812 C815 1.387 . S
H813 C809 0.950 . S
H814 C811 0.950 . S
C815 C806 1.390 . S
C815 H808 0.950 . S
C815 C812 1.387 . S
C816 C817 1.387 . S
C816 H820 0.950 . S
C816 C825 1.390 1_556 S
C817 C816 1.387 . S
C817 C819 1.387 . S
H818 C825 0.950 . S
C819 C817 1.387 . S
C819 C821 1.390 1_556 S
C819 H823 0.950 . S
H820 C816 0.950 . S
C821 C819 1.390 1_554 S
C821 C822 1.387 . S
C821 H824 0.950 . S
C822 C821 1.387 . S
C822 C825 1.387 . S
H823 C819 0.950 . S
H824 C821 0.950 . S
C825 C816 1.390 1_554 S
C825 H818 0.950 . S
C825 C822 1.387 . S
C826 C827 1.387 . S
C826 H830 0.950 . S
C826 C835 1.390 . S
C827 C826 1.387 . S
C827 C829 1.387 . S
H828 C835 0.950 . S
C829 C827 1.387 . S
C829 C831 1.390 . S
C829 H833 0.950 . S
H830 C826 0.950 . S
C831 C829 1.390 . S
C831 C832 1.387 . S
C831 H834 0.950 . S
C832 C831 1.387 . S
C832 C835 1.387 . S
H833 C829 0.950 . S
H834 C831 0.950 . S
C835 C826 1.390 . S
C835 H828 0.950 . S
C835 C832 1.387 . S
C836 C837 1.387 . S
C836 H840 0.950 . S
C836 C845 1.390 1_554 S
C837 C836 1.387 . S
C837 C839 1.387 . S
H838 C845 0.950 . S
C839 C837 1.387 . S
C839 C841 1.390 1_554 S
C839 H843 0.950 . S
H840 C836 0.950 . S
C841 C839 1.390 1_556 S
C841 C842 1.387 . S
C841 H844 0.950 . S
C842 C841 1.387 . S
C842 C845 1.387 . S
H843 C839 0.950 . S
H844 C841 0.950 . S
C845 C836 1.390 1_556 S
C845 H838 0.950 . S
C845 C842 1.387 . S
C846 C847 1.387 . S
C846 H850 0.950 . S
C846 C855 1.390 . S
C847 C846 1.387 . S
C847 C849 1.387 . S
H848 C855 0.950 . S
C849 C847 1.387 . S
C849 C851 1.390 . S
C849 H853 0.950 . S
H850 C846 0.950 . S
C851 C849 1.390 . S
C851 C852 1.387 . S
C851 H854 0.950 . S
C852 C851 1.387 . S
C852 C855 1.387 . S
H853 C849 0.950 . S
H854 C851 0.950 . S
C855 C846 1.390 . S
C855 H848 0.950 . S
C855 C852 1.387 . S
C856 C857 1.387 . S
C856 H860 0.950 . S
C856 C865 1.390 1_546 S
C857 C856 1.387 . S
C857 C859 1.387 . S
H858 C865 0.950 . S
C859 C857 1.387 . S
C859 C861 1.390 1_546 S
C859 H863 0.950 . S
H860 C856 0.950 . S
C861 C859 1.390 1_564 S
C861 C862 1.387 . S
C861 H864 0.950 . S
C862 C861 1.387 . S
C862 C865 1.387 . S
H863 C859 0.950 . S
H864 C861 0.950 . S
C865 C856 1.390 1_564 S
C865 H858 0.950 . S
C865 C862 1.387 . S
C866 C867 1.387 . S
C866 H870 0.950 . S
C866 C875 1.390 1_565 S
C867 C866 1.387 . S
C867 C869 1.387 . S
H868 C875 0.950 . S
C869 C867 1.387 . S
C869 C871 1.390 1_565 S
C869 H873 0.950 . S
H870 C866 0.950 . S
C871 C869 1.390 1_545 S
C871 C872 1.387 . S
C871 H874 0.950 . S
C872 C871 1.387 . S
C872 C875 1.387 . S
H873 C869 0.950 . S
H874 C871 0.950 . S
C875 C866 1.390 1_545 S
C875 H868 0.950 . S
C875 C872 1.387 . S
C876 C877 1.387 . S
C876 H880 0.950 . S
C876 C885 1.390 1_564 S
C877 C876 1.387 . S
C877 C879 1.387 . S
H878 C885 0.950 . S
C879 C877 1.387 . S
C879 C881 1.390 1_564 S
C879 H883 0.950 . S
H880 C876 0.950 . S
C881 C879 1.390 1_546 S
C881 C882 1.387 . S
C881 H884 0.950 . S
C882 C881 1.387 . S
C882 C885 1.387 . S
H883 C879 0.950 . S
H884 C881 0.950 . S
C885 C876 1.390 1_546 S
C885 H878 0.950 . S
C885 C882 1.387 . S
C886 C887 1.387 . S
C886 H890 0.950 . S
C886 C895 1.390 1_545 S
C887 C886 1.387 . S
C887 C889 1.387 . S
H888 C895 0.950 . S
C889 C887 1.387 . S
C889 C891 1.390 1_545 S
C889 H893 0.950 . S
H890 C886 0.950 . S
C891 C889 1.390 1_565 S
C891 C892 1.387 . S
C891 H894 0.950 . S
C892 C891 1.387 . S
C892 C895 1.387 . S
H893 C889 0.950 . S
H894 C891 0.950 . S
C895 C886 1.390 1_565 S
C895 H888 0.950 . S
C895 C892 1.387 . S
C577 C3 1.462 . S
C582 C220 1.447 . S
C587 C39 1.462 . S
C592 C256 1.445 . S
C597 C148 1.445 . S
C602 C75 1.462 . S
C607 C184 1.445 . S
C612 C111 1.462 . S
C617 C508 1.445 . S
C622 C291 1.462 . S
C627 C544 1.445 . S
C632 C327 1.462 . S
C637 C363 1.462 . S
C642 C436 1.445 . S
C647 C399 1.462 . S
C652 C472 1.447 . S
C657 C2 1.465 . S
C662 C182 1.467 . S
C667 C38 1.465 . S
C672 C146 1.467 . S
C677 C74 1.464 . S
C682 C254 1.468 . S
C687 C218 1.468 . S
C692 C110 1.464 . S
C697 C470 1.468 . S
C702 C290 1.464 . S
C707 C434 1.468 . S
C712 C326 1.464 . S
C717 C362 1.466 . S
C722 C542 1.467 . S
C727 C506 1.468 . S
C732 C398 1.464 . S
C737 C435 1.382 . S
C742 C4 1.386 . S
C747 C40 1.385 . S
C752 C471 1.382 . S
C757 C507 1.382 . S
C762 C76 1.386 . S
C767 C543 1.382 . S
C772 C112 1.386 . S
C777 C292 1.386 . S
C782 C147 1.381 . S
C787 C328 1.386 . S
C792 C183 1.382 . S
C797 C219 1.382 . S
C802 C364 1.385 . S
C807 C255 1.382 . S
C812 C400 1.385 . S
C817 C86 1.442 . S
C822 C14 1.442 . S
C827 C50 1.440 . S
C832 C122 1.440 . S
C837 C230 1.412 . S
C842 C158 1.412 . S
C847 C194 1.409 . S
C852 C266 1.409 . S
C857 C374 1.440 . S
C862 C302 1.440 . S
C867 C410 1.442 . S
C872 C338 1.442 . S
C877 C518 1.409 . S
C882 C446 1.409 . S
C887 C554 1.409 . S
C892 C482 1.409 . S
