# Generated by pormake.
# Topology bcu-j, (5)-cn, num edge types: 1
# Building blocks:
#     Node 0, Type 0, BuildingBlock: XOMCOT_clean_sbu_0, # of connection points: 5
#     Node 1, Type 0, BuildingBlock: XOMCOT_clean_sbu_0, # of connection points: 5
#     Node 2, Type 0, BuildingBlock: XOMCOT_clean_sbu_0, # of connection points: 5
#     Node 3, Type 0, BuildingBlock: XOMCOT_clean_sbu_0, # of connection points: 5
#     Node 4, Type 0, BuildingBlock: XOMCOT_clean_sbu_0, # of connection points: 5
#     Node 5, Type 0, BuildingBlock: XOMCOT_clean_sbu_0, # of connection points: 5
#     Node 6, Type 0, BuildingBlock: XOMCOT_clean_sbu_0, # of connection points: 5
#     Node 7, Type 0, BuildingBlock: XOMCOT_clean_sbu_0, # of connection points: 5
#     Node 8, Type 0, BuildingBlock: XOMCOT_clean_sbu_0, # of connection points: 5
#     Node 9, Type 0, BuildingBlock: XOMCOT_clean_sbu_0, # of connection points: 5
#     Node 10, Type 0, BuildingBlock: XOMCOT_clean_sbu_0, # of connection points: 5
#     Node 11, Type 0, BuildingBlock: XOMCOT_clean_sbu_0, # of connection points: 5
#     Node 12, Type 0, BuildingBlock: XOMCOT_clean_sbu_0, # of connection points: 5
#     Node 13, Type 0, BuildingBlock: XOMCOT_clean_sbu_0, # of connection points: 5
#     Node 14, Type 0, BuildingBlock: XOMCOT_clean_sbu_0, # of connection points: 5
#     Node 15, Type 0, BuildingBlock: XOMCOT_clean_sbu_0, # of connection points: 5
#     Edge 16, Type (0, 0), BuildingBlock: XIVTED_clean_linker_0, # of connection points: 2
#     Edge 17, Type (0, 0), BuildingBlock: XIVTED_clean_linker_0, # of connection points: 2
#     Edge 18, Type (0, 0), BuildingBlock: XIVTED_clean_linker_0, # of connection points: 2
#     Edge 19, Type (0, 0), BuildingBlock: XIVTED_clean_linker_0, # of connection points: 2
#     Edge 20, Type (0, 0), BuildingBlock: XIVTED_clean_linker_0, # of connection points: 2
#     Edge 21, Type (0, 0), BuildingBlock: XIVTED_clean_linker_0, # of connection points: 2
#     Edge 22, Type (0, 0), BuildingBlock: XIVTED_clean_linker_0, # of connection points: 2
#     Edge 23, Type (0, 0), BuildingBlock: XIVTED_clean_linker_0, # of connection points: 2
#     Edge 24, Type (0, 0), BuildingBlock: XIVTED_clean_linker_0, # of connection points: 2
#     Edge 25, Type (0, 0), BuildingBlock: XIVTED_clean_linker_0, # of connection points: 2
#     Edge 26, Type (0, 0), BuildingBlock: XIVTED_clean_linker_0, # of connection points: 2
#     Edge 27, Type (0, 0), BuildingBlock: XIVTED_clean_linker_0, # of connection points: 2
#     Edge 28, Type (0, 0), BuildingBlock: XIVTED_clean_linker_0, # of connection points: 2
#     Edge 29, Type (0, 0), BuildingBlock: XIVTED_clean_linker_0, # of connection points: 2
#     Edge 30, Type (0, 0), BuildingBlock: XIVTED_clean_linker_0, # of connection points: 2
#     Edge 31, Type (0, 0), BuildingBlock: XIVTED_clean_linker_0, # of connection points: 2
#     Edge 32, Type (0, 0), BuildingBlock: XIVTED_clean_linker_0, # of connection points: 2
#     Edge 33, Type (0, 0), BuildingBlock: XIVTED_clean_linker_0, # of connection points: 2
#     Edge 34, Type (0, 0), BuildingBlock: XIVTED_clean_linker_0, # of connection points: 2
#     Edge 35, Type (0, 0), BuildingBlock: XIVTED_clean_linker_0, # of connection points: 2
#     Edge 36, Type (0, 0), BuildingBlock: XIVTED_clean_linker_0, # of connection points: 2
#     Edge 37, Type (0, 0), BuildingBlock: XIVTED_clean_linker_0, # of connection points: 2
#     Edge 38, Type (0, 0), BuildingBlock: XIVTED_clean_linker_0, # of connection points: 2
#     Edge 39, Type (0, 0), BuildingBlock: XIVTED_clean_linker_0, # of connection points: 2
#     Edge 40, Type (0, 0), BuildingBlock: XIVTED_clean_linker_0, # of connection points: 2
#     Edge 41, Type (0, 0), BuildingBlock: XIVTED_clean_linker_0, # of connection points: 2
#     Edge 42, Type (0, 0), BuildingBlock: XIVTED_clean_linker_0, # of connection points: 2
#     Edge 43, Type (0, 0), BuildingBlock: XIVTED_clean_linker_0, # of connection points: 2
#     Edge 44, Type (0, 0), BuildingBlock: XIVTED_clean_linker_0, # of connection points: 2
#     Edge 45, Type (0, 0), BuildingBlock: XIVTED_clean_linker_0, # of connection points: 2
#     Edge 46, Type (0, 0), BuildingBlock: XIVTED_clean_linker_0, # of connection points: 2
#     Edge 47, Type (0, 0), BuildingBlock: XIVTED_clean_linker_0, # of connection points: 2
#     Edge 48, Type (0, 0), BuildingBlock: XIVTED_clean_linker_0, # of connection points: 2
#     Edge 49, Type (0, 0), BuildingBlock: XIVTED_clean_linker_0, # of connection points: 2
#     Edge 50, Type (0, 0), BuildingBlock: XIVTED_clean_linker_0, # of connection points: 2
#     Edge 51, Type (0, 0), BuildingBlock: XIVTED_clean_linker_0, # of connection points: 2
#     Edge 52, Type (0, 0), BuildingBlock: XIVTED_clean_linker_0, # of connection points: 2
#     Edge 53, Type (0, 0), BuildingBlock: XIVTED_clean_linker_0, # of connection points: 2
#     Edge 54, Type (0, 0), BuildingBlock: XIVTED_clean_linker_0, # of connection points: 2
#     Edge 55, Type (0, 0), BuildingBlock: XIVTED_clean_linker_0, # of connection points: 2
# Relax obj value: 0.623
# Max RMSD: 0.318
# Mean RMSD: 0.317
data_MOF--net-bcu-j--node1-XOMCOT_clean_sbu_0--edge1-XIVTED_clean_linker_0
_symmetry_space_group_name_H-M    P1
_symmetry_Int_Tables_number       1
_symmetry_cell_setting            triclinic
loop_
_symmetry_equiv_pos_as_xyz
'x, y, z'
_cell_length_a     41.398535
_cell_length_b     41.534173
_cell_length_c     49.636137
_cell_angle_alpha  89.918268
_cell_angle_beta   90.206856
_cell_angle_gamma 89.918325
loop_
_atom_site_label
_atom_site_type_symbol
_atom_site_fract_x
_atom_site_fract_y
_atom_site_fract_z
_atom_type_partial_charge
Co0 Co 0.98838 0.14021 0.64454 0.0
C1 C 0.05118 0.11322 0.62715 0.0
C2 C 0.03153 0.14604 0.59798 0.0
C3 C 0.0611 0.13531 0.5889 0.0
N4 N 0.02549 0.13227 0.62203 0.0
N5 N 0.07341 0.11492 0.60745 0.0
H6 H 0.05385 0.09833 0.64485 0.0
H7 H 0.0158 0.16306 0.58794 0.0
C8 C 0.00458 0.20637 0.64167 0.0
O9 O 0.98432 0.20345 0.62137 0.0
N10 N 0.95105 0.14841 0.66661 0.0
C11 C 0.93423 0.12715 0.68149 0.0
C12 C 0.91113 0.14367 0.69591 0.0
C13 C 0.93782 0.17732 0.6719 0.0
N14 N 0.91354 0.17529 0.68989 0.0
C15 C 0.96687 0.07603 0.63311 0.0
C16 C 0.95577 0.09154 0.57963 0.0
C17 C 0.96244 0.05945 0.58669 0.0
C18 C 0.96509 0.05149 0.61408 0.0
C19 C 0.95717 0.11528 0.59942 0.0
N20 N 0.96554 0.10742 0.62511 0.0
H21 H 0.97265 0.06965 0.65363 0.0
H22 H 0.95626 0.14035 0.59352 0.0
H23 H 0.93911 0.10163 0.68266 0.0
H24 H 0.94693 0.19969 0.66399 0.0
O25 O 0.00598 0.11051 0.67256 0.0
O26 O 0.01762 0.16003 0.67323 0.0
O27 O 0.00969 0.18175 0.65701 0.0
C28 C 0.02185 0.13229 0.68432 0.0
H29 H 0.07307 0.14277 0.57058 0.0
H30 H 0.89467 0.13326 0.71038 0.0
H31 H 0.95344 0.09886 0.55877 0.0
H32 H 0.96914 0.02685 0.62045 0.0
Co33 Co 0.36229 0.01325 0.62254 0.0
C34 C 0.39292 0.07533 0.61081 0.0
C35 C 0.35459 0.06534 0.58284 0.0
C36 C 0.36555 0.09621 0.5783 0.0
N37 N 0.37153 0.05253 0.60346 0.0
N38 N 0.38955 0.10234 0.596 0.0
H39 H 0.40945 0.07296 0.62762 0.0
H40 H 0.33483 0.05365 0.57251 0.0
C41 C 0.29505 0.02009 0.6101 0.0
O42 O 0.30429 0.001 0.59048 0.0
N43 N 0.353 0.97376 0.64224 0.0
C44 C 0.37424 0.95064 0.64972 0.0
C45 C 0.36013 0.93118 0.66884 0.0
C46 C 0.32612 0.9675 0.65673 0.0
N47 N 0.32992 0.94191 0.67316 0.0
C48 C 0.43092 0.00049 0.62176 0.0
C49 C 0.42971 0.97303 0.571 0.0
C50 C 0.45963 0.97956 0.58326 0.0
C51 C 0.45991 0.9925 0.6093 0.0
C52 C 0.40113 0.98129 0.58427 0.0
N53 N 0.4021 0.99544 0.60897 0.0
H54 H 0.43205 0.01154 0.64135 0.0
H55 H 0.37812 0.97793 0.57429 0.0
H56 H 0.39908 0.94902 0.64334 0.0
H57 H 0.30512 0.98292 0.65738 0.0
O58 O 0.38215 0.03102 0.65588 0.0
O59 O 0.33255 0.03866 0.64751 0.0
O60 O 0.31602 0.02879 0.62799 0.0
C61 C 0.35632 0.04386 0.66367 0.0
H62 H 0.3562 0.11304 0.56353 0.0
H63 H 0.3718 0.91186 0.67987 0.0
H64 H 0.42839 0.96338 0.55077 0.0
H65 H 0.48245 0.99745 0.61965 0.0
Co66 Co 0.53834 0.36809 0.6096 0.0
C67 C 0.48085 0.40596 0.59246 0.0
C68 C 0.49488 0.37081 0.56313 0.0
C69 C 0.46686 0.38545 0.55449 0.0
N70 N 0.50348 0.3835 0.58701 0.0
N71 N 0.45787 0.4074 0.57307 0.0
H72 H 0.48065 0.42038 0.61053 0.0
H73 H 0.50741 0.35135 0.55317 0.0
C74 C 0.51199 0.30653 0.606 0.0
O75 O 0.53362 0.30718 0.5867 0.0
N76 N 0.57337 0.35216 0.6321 0.0
C77 C 0.5974 0.36928 0.64359 0.0
C78 C 0.61445 0.34952 0.66093 0.0
C79 C 0.57635 0.3223 0.64256 0.0
N80 N 0.60104 0.31995 0.66026 0.0
C81 C 0.57092 0.42731 0.59849 0.0
C82 C 0.57392 0.41148 0.54446 0.0
C83 C 0.57104 0.44394 0.55196 0.0
C84 C 0.57314 0.45177 0.57938 0.0
C85 C 0.5724 0.38773 0.56434 0.0
N86 N 0.56718 0.39614 0.59044 0.0
H87 H 0.56811 0.43408 0.61932 0.0
H88 H 0.56951 0.36287 0.55834 0.0
H89 H 0.60155 0.39469 0.64064 0.0
H90 H 0.55963 0.30301 0.63884 0.0
O91 O 0.52787 0.40004 0.63785 0.0
O92 O 0.5054 0.35432 0.63799 0.0
O93 O 0.50928 0.33132 0.62145 0.0
C94 C 0.50801 0.38195 0.6496 0.0
H95 H 0.45327 0.37902 0.53664 0.0
H96 H 0.63442 0.35671 0.67368 0.0
H97 H 0.57272 0.40425 0.52353 0.0
H98 H 0.57231 0.47661 0.58599 0.0
Co99 Co 0.17459 0.48984 0.6278 0.0
C100 C 0.14479 0.42478 0.62543 0.0
C101 C 0.19619 0.4224 0.62267 0.0
C102 C 0.18454 0.39159 0.62525 0.0
N103 N 0.17123 0.44345 0.62195 0.0
N104 N 0.15218 0.39322 0.62704 0.0
H105 H 0.12095 0.43398 0.62969 0.0
H106 H 0.22142 0.42879 0.6238 0.0
C107 C 0.23066 0.47816 0.5914 0.0
O108 O 0.2105 0.46489 0.57419 0.0
N109 N 0.17907 0.53509 0.63519 0.0
C110 C 0.15564 0.55761 0.63613 0.0
C111 C 0.16729 0.5839 0.65016 0.0
C112 C 0.20453 0.54795 0.64815 0.0
N113 N 0.19805 0.57764 0.65762 0.0
C114 C 0.12705 0.4866 0.58654 0.0
C115 C 0.15519 0.5285 0.5503 0.0
C116 C 0.12604 0.51332 0.5436 0.0
C117 C 0.1119 0.49247 0.5621 0.0
C118 C 0.17 0.52143 0.57515 0.0
N119 N 0.15636 0.49972 0.59251 0.0
H120 H 0.1144 0.47227 0.60099 0.0
H121 H 0.1923 0.5334 0.5805 0.0
H122 H 0.13105 0.55403 0.62934 0.0
H123 H 0.22599 0.53431 0.65333 0.0
O124 O 0.13481 0.48963 0.64745 0.0
O125 O 0.18309 0.4801 0.66547 0.0
O126 O 0.22022 0.4894 0.61369 0.0
C127 C 0.15186 0.48216 0.66852 0.0
H128 H 0.19889 0.36989 0.62704 0.0
H129 H 0.1535 0.60484 0.65618 0.0
H130 H 0.16619 0.54557 0.53663 0.0
H131 H 0.08868 0.48143 0.55799 0.0
Co132 Co 0.99369 0.36767 0.8508 0.0
C133 C 0.05602 0.39314 0.87013 0.0
C134 C 0.05574 0.34141 0.86951 0.0
C135 C 0.08545 0.35154 0.87849 0.0
N136 N 0.03731 0.36749 0.86445 0.0
N137 N 0.08557 0.38401 0.87878 0.0
H138 H 0.04829 0.41788 0.8677 0.0
H139 H 0.04852 0.31673 0.86625 0.0
C140 C 0.98156 0.29876 0.85286 0.0
O141 O 0.97602 0.30151 0.8269 0.0
N142 N 0.94953 0.36721 0.83738 0.0
C143 C 0.9227 0.36516 0.85266 0.0
C144 C 0.89722 0.35555 0.83674 0.0
C145 C 0.93972 0.35923 0.8123 0.0
N146 N 0.90809 0.35135 0.81142 0.0
C147 C 0.96891 0.4193 0.88133 0.0
C148 C 0.98816 0.39549 0.93091 0.0
C149 C 0.97993 0.4282 0.92856 0.0
C150 C 0.96875 0.43961 0.90359 0.0
C151 C 0.9883 0.37605 0.90802 0.0
N152 N 0.9801 0.38855 0.8835 0.0
H153 H 0.96236 0.42897 0.86184 0.0
H154 H 0.99761 0.35182 0.90968 0.0
H155 H 0.92215 0.36715 0.87436 0.0
H156 H 0.95609 0.35499 0.79576 0.0
O157 O 0.00303 0.40571 0.83009 0.0
O158 O 0.01098 0.35578 0.81588 0.0
O159 O 0.98713 0.32389 0.86679 0.0
C160 C 0.01394 0.38659 0.81158 0.0
H161 H 0.10589 0.33625 0.88326 0.0
H162 H 0.87339 0.34907 0.84381 0.0
H163 H 0.99617 0.38542 0.94993 0.0
H164 H 0.96226 0.46463 0.90063 0.0
Co165 Co 0.13784 0.01637 0.87359 0.0
C166 C 0.09753 0.07234 0.8855 0.0
C167 C 0.13693 0.06905 0.91354 0.0
C168 C 0.11933 0.09649 0.91911 0.0
N169 N 0.12331 0.05426 0.89227 0.0
N170 N 0.09461 0.09859 0.90132 0.0
H171 H 0.08149 0.06642 0.86904 0.0
H172 H 0.15848 0.06099 0.92388 0.0
C173 C 0.20342 0.02786 0.88901 0.0
O174 O 0.19395 0.0089 0.90866 0.0
N175 N 0.15224 0.97808 0.85447 0.0
C176 C 0.13648 0.94981 0.85145 0.0
C177 C 0.15303 0.93091 0.8333 0.0
C178 C 0.17841 0.97556 0.83839 0.0
N179 N 0.17937 0.9472 0.82529 0.0
C180 C 0.07134 0.99621 0.86961 0.0
C181 C 0.06822 0.98019 0.92367 0.0
C182 C 0.03954 0.98476 0.90905 0.0
C183 C 0.04126 0.99144 0.88147 0.0
C184 C 0.0978 0.9858 0.91115 0.0
N185 N 0.09883 0.99523 0.88492 0.0
H186 H 0.07207 0.00288 0.84863 0.0
H187 H 0.1198 0.98553 0.92298 0.0
H188 H 0.11394 0.94342 0.86091 0.0
H189 H 0.19563 0.99465 0.83496 0.0
O190 O 0.11882 0.03296 0.83942 0.0
O191 O 0.16668 0.04515 0.85048 0.0
O192 O 0.18301 0.03548 0.87032 0.0
C193 C 0.14369 0.04857 0.83321 0.0
H194 H 0.12514 0.11404 0.93445 0.0
H195 H 0.14588 0.90738 0.82607 0.0
H196 H 0.0677 0.97526 0.94511 0.0
H197 H 0.0195 0.99485 0.86961 0.0
Co198 Co 0.51711 0.12361 0.85074 0.0
C199 C 0.45381 0.10111 0.87093 0.0
C200 C 0.47308 0.13969 0.89475 0.0
C201 C 0.44275 0.13215 0.90427 0.0
N202 N 0.47985 0.12028 0.87381 0.0
N203 N 0.43065 0.10814 0.88902 0.0
H204 H 0.45135 0.08286 0.85558 0.0
H205 H 0.48862 0.15876 0.90193 0.0
C206 C 0.51228 0.1924 0.84811 0.0
O207 O 0.53506 0.18955 0.86647 0.0
N208 N 0.55485 0.12806 0.82828 0.0
C209 C 0.58553 0.1277 0.83745 0.0
C210 C 0.60541 0.14058 0.81802 0.0
C211 C 0.55652 0.14099 0.80335 0.0
N212 N 0.58704 0.14902 0.79668 0.0
C213 C 0.53981 0.05886 0.85767 0.0
C214 C 0.54129 0.06431 0.91321 0.0
C215 C 0.53965 0.0337 0.90143 0.0
C216 C 0.54129 0.03097 0.87337 0.0
C217 C 0.54008 0.09148 0.8968 0.0
N218 N 0.53662 0.08821 0.86969 0.0
H219 H 0.53827 0.05664 0.83602 0.0
H220 H 0.5381 0.11506 0.90587 0.0
H221 H 0.59264 0.12107 0.8577 0.0
H222 H 0.53568 0.14749 0.79134 0.0
O223 O 0.4959 0.09507 0.82366 0.0
O224 O 0.48816 0.14533 0.82273 0.0
O225 O 0.50078 0.16676 0.83703 0.0
C226 C 0.48084 0.11785 0.81245 0.0
H227 H 0.42994 0.14448 0.92019 0.0
H228 H 0.631 0.1453 0.82013 0.0
H229 H 0.54047 0.06717 0.9349 0.0
H230 H 0.54034 0.00763 0.86368 0.0
Co231 Co 0.35715 0.48712 0.83661 0.0
C232 C 0.38696 0.42164 0.84085 0.0
C233 C 0.33588 0.42045 0.83402 0.0
C234 C 0.34745 0.38957 0.83248 0.0
N235 N 0.36045 0.44064 0.83991 0.0
N236 N 0.37956 0.39041 0.83667 0.0
H237 H 0.41141 0.43032 0.84216 0.0
H238 H 0.3114 0.42789 0.82955 0.0
C239 C 0.30441 0.46859 0.87394 0.0
O240 O 0.3259 0.45115 0.887 0.0
N241 N 0.35253 0.53282 0.83192 0.0
C242 C 0.37609 0.55513 0.8312 0.0
C243 C 0.36415 0.58226 0.81842 0.0
C244 C 0.32671 0.54662 0.82015 0.0
N245 N 0.33309 0.57671 0.81149 0.0
C246 C 0.41015 0.48475 0.87334 0.0
C247 C 0.37724 0.50434 0.91872 0.0
C248 C 0.40745 0.48928 0.92167 0.0
C249 C 0.4248 0.48159 0.89841 0.0
C250 C 0.36358 0.50733 0.89293 0.0
N251 N 0.37867 0.49405 0.87114 0.0
H252 H 0.42393 0.47845 0.85578 0.0
H253 H 0.34005 0.51834 0.89082 0.0
H254 H 0.40095 0.55083 0.83698 0.0
H255 H 0.30507 0.53338 0.81488 0.0
O256 O 0.39474 0.48752 0.81418 0.0
O257 O 0.34476 0.48012 0.79922 0.0
O258 O 0.31294 0.48546 0.8536 0.0
C259 C 0.3756 0.48131 0.79411 0.0
H260 H 0.33346 0.36832 0.82773 0.0
H261 H 0.37798 0.60323 0.8126 0.0
H262 H 0.36358 0.51205 0.93612 0.0
H263 H 0.44914 0.47207 0.89962 0.0
Co264 Co 0.03583 0.86035 0.3731 0.0
C265 C 0.97341 0.89342 0.38271 0.0
C266 C 0.98804 0.86423 0.4163 0.0
C267 C 0.95857 0.87803 0.42212 0.0
N268 N 0.99724 0.87391 0.39159 0.0
N269 N 0.94939 0.89615 0.40085 0.0
H270 H 0.97331 0.90534 0.36335 0.0
H271 H 0.00154 0.84778 0.42896 0.0
C272 C 0.01323 0.797 0.37534 0.0
O273 O 0.03309 0.79872 0.396 0.0
N274 N 0.07469 0.8469 0.35468 0.0
C275 C 0.0977 0.86656 0.34479 0.0
C276 C 0.11712 0.84924 0.32756 0.0
C277 C 0.08079 0.81788 0.34367 0.0
N278 N 0.10633 0.81866 0.32691 0.0
C279 C 0.05954 0.92223 0.38874 0.0
C280 C 0.06726 0.90143 0.44138 0.0
C281 C 0.06116 0.93412 0.43626 0.0
C282 C 0.06032 0.94479 0.40945 0.0
C283 C 0.06682 0.87971 0.41999 0.0
N284 N 0.05997 0.89015 0.39463 0.0
H285 H 0.05491 0.93064 0.36853 0.0
H286 H 0.0668 0.85415 0.42422 0.0
H287 H 0.09876 0.89225 0.34806 0.0
H288 H 0.06515 0.79726 0.34552 0.0
O289 O 0.02743 0.89086 0.34298 0.0
O290 O 0.00835 0.84354 0.34198 0.0
O291 O 0.01092 0.82149 0.35941 0.0
C292 C 0.011 0.87078 0.32973 0.0
H293 H 0.94443 0.87403 0.44011 0.0
H294 H 0.1362 0.85887 0.31507 0.0
H295 H 0.06818 0.89212 0.46176 0.0
H296 H 0.0567 0.97 0.40466 0.0
Co297 Co 0.66266 0.97918 0.355 0.0
C298 C 0.63026 0.91594 0.35972 0.0
C299 C 0.68119 0.911 0.35307 0.0
C300 C 0.66729 0.88105 0.35146 0.0
N301 N 0.65797 0.93291 0.35821 0.0
N302 N 0.63522 0.88423 0.35529 0.0
H303 H 0.6067 0.92686 0.36198 0.0
H304 H 0.70623 0.91643 0.34905 0.0
C305 C 0.72825 0.98806 0.37918 0.0
O306 O 0.7162 0.0104 0.39496 0.0
N307 N 0.66833 0.0254 0.3499 0.0
C308 C 0.64525 0.04803 0.34582 0.0
C309 C 0.65885 0.07459 0.33368 0.0
C310 C 0.69532 0.03855 0.33939 0.0
N311 N 0.69039 0.06848 0.32967 0.0
C312 C 0.63011 0.00416 0.40131 0.0
C313 C 0.65529 0.96036 0.43779 0.0
C314 C 0.63054 0.98112 0.44595 0.0
C315 C 0.61858 0.00378 0.4276 0.0
C316 C 0.6668 0.96212 0.41136 0.0
N317 N 0.65387 0.98355 0.39332 0.0
H318 H 0.61816 0.01955 0.38708 0.0
H319 H 0.685 0.94509 0.40504 0.0
H320 H 0.6196 0.04439 0.3482 0.0
H321 H 0.71707 0.02498 0.33536 0.0
O322 O 0.61893 0.98204 0.34229 0.0
O323 O 0.66169 0.97419 0.3162 0.0
O324 O 0.71038 0.97406 0.36177 0.0
C325 C 0.63036 0.97643 0.31842 0.0
H326 H 0.67975 0.85886 0.3467 0.0
H327 H 0.64593 0.09539 0.32605 0.0
H328 H 0.66486 0.94229 0.45141 0.0
H329 H 0.59877 0.01959 0.43293 0.0
Co330 Co 0.4575 0.64254 0.35107 0.0
C331 C 0.52109 0.61672 0.36874 0.0
C332 C 0.50335 0.65364 0.39506 0.0
C333 C 0.53291 0.64336 0.40455 0.0
N334 N 0.49596 0.63689 0.37267 0.0
N335 N 0.54403 0.62033 0.38785 0.0
H336 H 0.52276 0.59969 0.35236 0.0
H337 H 0.4884 0.67226 0.40375 0.0
C338 C 0.47402 0.70783 0.34684 0.0
O339 O 0.45303 0.70765 0.36665 0.0
N340 N 0.41878 0.64839 0.32947 0.0
C341 C 0.39806 0.62529 0.32131 0.0
C342 C 0.37739 0.63803 0.30226 0.0
C343 C 0.41007 0.67491 0.31548 0.0
N344 N 0.38508 0.66922 0.29865 0.0
C345 C 0.43704 0.58066 0.36958 0.0
C346 C 0.43602 0.60287 0.42206 0.0
C347 C 0.44383 0.57053 0.41704 0.0
C348 C 0.44094 0.55891 0.39067 0.0
C349 C 0.4314 0.62374 0.40027 0.0
N350 N 0.43567 0.61292 0.37466 0.0
H351 H 0.43927 0.57162 0.34931 0.0
H352 H 0.43021 0.64938 0.40397 0.0
H353 H 0.39894 0.60035 0.32731 0.0
H354 H 0.42326 0.69729 0.31573 0.0
O355 O 0.47178 0.60877 0.32564 0.0
O356 O 0.48554 0.65714 0.31937 0.0
O357 O 0.47895 0.68137 0.33387 0.0
C358 C 0.48727 0.62789 0.31086 0.0
H359 H 0.54569 0.65275 0.4219 0.0
H360 H 0.35935 0.62494 0.29088 0.0
H361 H 0.43759 0.61283 0.44216 0.0
H362 H 0.44546 0.53381 0.38608 0.0
Co363 Co 0.83394 0.52008 0.38757 0.0
C364 C 0.86892 0.58114 0.39096 0.0
C365 C 0.82622 0.58221 0.41536 0.0
C366 C 0.83999 0.61243 0.41551 0.0
N367 N 0.84427 0.56283 0.39972 0.0
N368 N 0.86675 0.61158 0.4001 0.0
H369 H 0.88719 0.5728 0.37707 0.0
H370 H 0.80405 0.57528 0.4252 0.0
C371 C 0.7667 0.52877 0.39778 0.0
O372 O 0.77605 0.51377 0.41981 0.0
N373 N 0.82336 0.47697 0.37469 0.0
C374 C 0.8414 0.44981 0.37592 0.0
C375 C 0.82738 0.42653 0.35984 0.0
C376 C 0.7983 0.4693 0.35838 0.0
N377 N 0.80024 0.43897 0.34907 0.0
C378 C 0.90098 0.50054 0.38894 0.0
C379 C 0.90517 0.50683 0.44434 0.0
C380 C 0.93369 0.50444 0.42926 0.0
C381 C 0.9313 0.49981 0.40136 0.0
C382 C 0.87533 0.50705 0.43116 0.0
N383 N 0.8737 0.50533 0.40382 0.0
H384 H 0.89973 0.49871 0.36728 0.0
H385 H 0.85352 0.51129 0.44257 0.0
H386 H 0.86386 0.44708 0.38679 0.0
H387 H 0.77989 0.48602 0.35175 0.0
O388 O 0.85415 0.52936 0.35219 0.0
O389 O 0.8049 0.54056 0.359 0.0
O390 O 0.78783 0.53457 0.37934 0.0
C391 C 0.8287 0.5412 0.34242 0.0
H392 H 0.83081 0.63348 0.42581 0.0
H393 H 0.83683 0.40272 0.35576 0.0
H394 H 0.90599 0.50994 0.46599 0.0
H395 H 0.95273 0.49774 0.38902 0.0
Co396 Co 0.97254 0.64152 0.1525 0.0
C397 C 0.9086 0.61699 0.13412 0.0
C398 C 0.91062 0.66844 0.13501 0.0
C399 C 0.87916 0.65943 0.13056 0.0
N400 N 0.92939 0.64188 0.13677 0.0
N401 N 0.87794 0.62707 0.13019 0.0
H402 H 0.91474 0.59219 0.13807 0.0
H403 H 0.91863 0.69271 0.13909 0.0
C404 C 0.97495 0.69231 0.11024 0.0
O405 O 0.96246 0.67117 0.0935 0.0
N406 N 0.0146 0.64199 0.16892 0.0
C407 C 0.03378 0.61662 0.17456 0.0
C408 C 0.05988 0.62737 0.18937 0.0
C409 C 0.0291 0.66768 0.18007 0.0
N410 N 0.05683 0.65947 0.19269 0.0
C411 C 0.98002 0.58537 0.12037 0.0
C412 C 0.02407 0.61003 0.08411 0.0
C413 C 0.01145 0.57918 0.08011 0.0
C414 C 0.99018 0.56641 0.09903 0.0
C415 C 0.01393 0.62791 0.10643 0.0
N416 N 0.99011 0.61646 0.12291 0.0
H417 H 0.96399 0.57476 0.13484 0.0
H418 H 0.02468 0.65119 0.11003 0.0
H419 H 0.02849 0.59194 0.16921 0.0
H420 H 0.01851 0.69153 0.18036 0.0
O421 O 0.96014 0.60647 0.17537 0.0
O422 O 0.95338 0.65802 0.18536 0.0
O423 O 0.98212 0.68391 0.13433 0.0
C424 C 0.94859 0.62793 0.19169 0.0
H425 H 0.85854 0.67542 0.12939 0.0
H426 H 0.07904 0.61264 0.19773 0.0
H427 H 0.04126 0.6202 0.07009 0.0
H428 H 0.98051 0.54232 0.09679 0.0
Co429 Co 0.86336 0.99513 0.14293 0.0
C430 C 0.89192 0.93593 0.11843 0.0
C431 C 0.84217 0.92992 0.12902 0.0
C432 C 0.85343 0.90122 0.11911 0.0
N433 N 0.86589 0.95215 0.12768 0.0
N434 N 0.88468 0.90508 0.11256 0.0
H435 H 0.91605 0.94555 0.11741 0.0
H436 H 0.81867 0.93379 0.13787 0.0
C437 C 0.80202 0.98854 0.11083 0.0
O438 O 0.81882 0.97753 0.09038 0.0
N439 N 0.86014 0.03712 0.15891 0.0
C440 C 0.88384 0.05869 0.16335 0.0
C441 C 0.87204 0.08243 0.18017 0.0
C442 C 0.83441 0.04798 0.17262 0.0
N443 N 0.84092 0.0756 0.18573 0.0
C444 C 0.90901 0.00855 0.10181 0.0
C445 C 0.86695 0.03823 0.06622 0.0
C446 C 0.89665 0.02665 0.05697 0.0
C447 C 0.91866 0.01379 0.07544 0.0
C448 C 0.85849 0.03289 0.09319 0.0
N449 N 0.87802 0.01463 0.10946 0.0
H450 H 0.92601 0.99769 0.11554 0.0
H451 H 0.83539 0.0414 0.10029 0.0
H452 H 0.90841 0.05625 0.1563 0.0
H453 H 0.81223 0.03449 0.17488 0.0
O454 O 0.90472 0.98872 0.15995 0.0
O455 O 0.85776 0.9753 0.17801 0.0
O456 O 0.81634 0.99782 0.13232 0.0
C457 C 0.88915 0.97561 0.17979 0.0
H458 H 0.84038 0.87866 0.11853 0.0
H459 H 0.88564 0.10221 0.1887 0.0
H460 H 0.84987 0.04944 0.05253 0.0
H461 H 0.94238 0.00582 0.06908 0.0
Co462 Co 0.50248 0.84687 0.13295 0.0
C463 C 0.5652 0.88039 0.12209 0.0
C464 C 0.57037 0.83711 0.14536 0.0
C465 C 0.59974 0.8523 0.14463 0.0
N466 N 0.54864 0.85453 0.13112 0.0
N467 N 0.59634 0.87938 0.13001 0.0
H468 H 0.55471 0.90069 0.11171 0.0
H469 H 0.56474 0.81558 0.15668 0.0
C470 C 0.5315 0.78896 0.10766 0.0
O471 O 0.54982 0.80849 0.09357 0.0
N472 N 0.457 0.83882 0.13612 0.0
C473 C 0.43256 0.86013 0.1339 0.0
C474 C 0.40499 0.84623 0.14433 0.0
C475 C 0.44415 0.81237 0.14738 0.0
N476 N 0.41247 0.81617 0.1526 0.0
C477 C 0.49765 0.89104 0.08925 0.0
C478 C 0.48497 0.84691 0.04892 0.0
C479 C 0.48947 0.87929 0.0423 0.0
C480 C 0.49487 0.90159 0.06282 0.0
C481 C 0.48717 0.83745 0.07596 0.0
N482 N 0.49588 0.8591 0.09546 0.0
H483 H 0.50171 0.90882 0.10466 0.0
H484 H 0.48191 0.81275 0.08099 0.0
H485 H 0.43515 0.88477 0.12715 0.0
H486 H 0.45837 0.79199 0.15415 0.0
O487 O 0.4974 0.88859 0.14928 0.0
O488 O 0.50721 0.84349 0.17173 0.0
O489 O 0.50991 0.80013 0.12348 0.0
C490 C 0.50396 0.87468 0.17207 0.0
H491 H 0.62167 0.84467 0.15475 0.0
H492 H 0.38186 0.85791 0.14718 0.0
H493 H 0.47961 0.82929 0.03348 0.0
H494 H 0.49772 0.92698 0.05836 0.0
Co495 Co 0.61491 0.47175 0.1398 0.0
C496 C 0.59101 0.53691 0.12508 0.0
C497 C 0.60091 0.50798 0.09033 0.0
C498 C 0.58986 0.53762 0.08176 0.0
N499 N 0.60135 0.5075 0.11751 0.0
N500 N 0.5839 0.55561 0.10371 0.0
H501 H 0.58873 0.54492 0.14564 0.0
H502 H 0.60868 0.48839 0.07758 0.0
C503 C 0.6799 0.49054 0.13053 0.0
O504 O 0.67546 0.4695 0.11112 0.0
N505 N 0.62854 0.43564 0.16205 0.0
C506 C 0.60951 0.41162 0.17114 0.0
C507 C 0.6255 0.39533 0.19139 0.0
C508 C 0.65597 0.43328 0.17681 0.0
N509 N 0.65463 0.40911 0.19497 0.0
C510 C 0.54912 0.452 0.13202 0.0
C511 C 0.56217 0.42504 0.0823 0.0
C512 C 0.53038 0.43441 0.08835 0.0
C513 C 0.52373 0.44572 0.11433 0.0
C514 C 0.58689 0.43127 0.10082 0.0
N515 N 0.58031 0.44678 0.12431 0.0
H516 H 0.54357 0.46375 0.15077 0.0
H517 H 0.61176 0.42758 0.09495 0.0
H518 H 0.58478 0.40755 0.16507 0.0
H519 H 0.67539 0.45061 0.17625 0.0
O520 O 0.58904 0.4874 0.17085 0.0
O521 O 0.63733 0.50284 0.16576 0.0
O522 O 0.6568 0.49559 0.14739 0.0
C523 C 0.6118 0.50395 0.18045 0.0
H524 H 0.58758 0.54579 0.06111 0.0
H525 H 0.61568 0.37614 0.20363 0.0
H526 H 0.56847 0.41619 0.06249 0.0
H527 H 0.4994 0.4523 0.12013 0.0
H528 H 0.04982 0.07454 0.69257 0.0
H529 H 0.12655 0.11134 0.83138 0.0
H530 H 0.05158 0.17256 0.72117 0.0
H531 H 0.15674 0.03181 0.78196 0.0
H532 H 0.10358 0.13771 0.79139 0.0
H533 H 0.09121 0.06041 0.72514 0.0
C534 C 0.05893 0.09315 0.70584 0.0
C535 C 0.04695 0.12468 0.70447 0.0
C536 C 0.11644 0.11517 0.78907 0.0
C537 C 0.09456 0.10853 0.74214 0.0
C538 C 0.12989 0.10033 0.8118 0.0
C539 C 0.14386 0.06968 0.80967 0.0
C540 C 0.11638 0.09866 0.76441 0.0
C541 C 0.14654 0.05569 0.7842 0.0
C542 C 0.08291 0.08513 0.72426 0.0
C543 C 0.06002 0.14789 0.72186 0.0
N544 N 0.13231 0.06999 0.76261 0.0
N545 N 0.08281 0.13921 0.74045 0.0
H546 H 0.3728 0.1065 0.6675 0.0
H547 H 0.44675 0.0631 0.80684 0.0
H548 H 0.34257 0.02469 0.71431 0.0
H549 H 0.45398 0.15959 0.77525 0.0
H550 H 0.40368 0.0518 0.77502 0.0
H551 H 0.3955 0.13094 0.70825 0.0
C552 C 0.36945 0.09454 0.68671 0.0
C553 C 0.35563 0.0638 0.68783 0.0
C554 C 0.41431 0.07561 0.77508 0.0
C555 C 0.38283 0.09058 0.73401 0.0
C556 C 0.43921 0.08197 0.79309 0.0
C557 C 0.45429 0.11214 0.79327 0.0
C558 C 0.40486 0.09928 0.75645 0.0
C559 C 0.44314 0.13589 0.77542 0.0
C560 C 0.38275 0.10827 0.70989 0.0
C561 C 0.35272 0.04865 0.71285 0.0
N562 N 0.41943 0.12875 0.75726 0.0
N563 N 0.36687 0.06189 0.73491 0.0
H564 H 0.35276 0.43555 0.7591 0.0
H565 H 0.52179 0.43217 0.68151 0.0
H566 H 0.43131 0.50184 0.77203 0.0
H567 H 0.44823 0.36076 0.66708 0.0
H568 H 0.48678 0.45856 0.71358 0.0
H569 H 0.38404 0.4098 0.72288 0.0
C570 C 0.37614 0.44527 0.75372 0.0
C571 C 0.38955 0.47087 0.76839 0.0
C572 C 0.47811 0.43704 0.70364 0.0
C573 C 0.42553 0.44126 0.72784 0.0
C574 C 0.49825 0.42181 0.68539 0.0
C575 C 0.48791 0.39418 0.67175 0.0
C576 C 0.4471 0.42474 0.70842 0.0
C577 C 0.45715 0.38185 0.67749 0.0
C578 C 0.39413 0.43031 0.73339 0.0
C579 C 0.42014 0.48215 0.76117 0.0
N580 N 0.43763 0.39735 0.69541 0.0
N581 N 0.43711 0.46717 0.74157 0.0
H582 H 0.05936 0.35579 0.78099 0.0
H583 H 0.09762 0.5081 0.68949 0.0
H584 H 0.01229 0.44759 0.79179 0.0
H585 H 0.1671 0.43211 0.70198 0.0
H586 H 0.06355 0.48464 0.7245 0.0
H587 H 0.09573 0.38078 0.74805 0.0
C588 C 0.05633 0.38104 0.77606 0.0
C589 C 0.03272 0.39967 0.78894 0.0
C590 C 0.08647 0.47334 0.71992 0.0
C591 C 0.0743 0.42833 0.75181 0.0
C592 C 0.10597 0.48682 0.70011 0.0
C593 C 0.13527 0.47216 0.69322 0.0
C594 C 0.09598 0.4445 0.73242 0.0
C595 C 0.14489 0.44438 0.70717 0.0
C596 C 0.07734 0.39534 0.7576 0.0
C597 C 0.03013 0.43238 0.78223 0.0
N598 N 0.12502 0.4311 0.72593 0.0
N599 N 0.05062 0.44565 0.76407 0.0
H600 H 0.95226 0.84985 0.31055 0.0
H601 H 0.95338 0.97894 0.19049 0.0
H602 H 0.03114 0.91424 0.29333 0.0
H603 H 0.86545 0.93471 0.21862 0.0
H604 H 0.98356 0.94952 0.2247 0.0
H605 H 0.92154 0.87409 0.27293 0.0
C606 C 0.96331 0.86852 0.29843 0.0
C607 C 0.99417 0.88013 0.30483 0.0
C608 C 0.95765 0.94626 0.22353 0.0
C609 C 0.95947 0.90796 0.26244 0.0
C610 C 0.94037 0.96316 0.20402 0.0
C611 C 0.90682 0.95946 0.20186 0.0
C612 C 0.94139 0.92527 0.24103 0.0
C613 C 0.89128 0.93848 0.21983 0.0
C614 C 0.94572 0.88257 0.27727 0.0
C615 C 0.00735 0.9047 0.28899 0.0
N616 N 0.90873 0.92205 0.2387 0.0
N617 N 0.98993 0.91781 0.26859 0.0
H618 H 0.64148 0.9783 0.26392 0.0
H619 H 0.50566 0.85757 0.22544 0.0
H620 H 0.56962 0.95293 0.32302 0.0
H621 H 0.52957 0.93463 0.17065 0.0
H622 H 0.53354 0.88689 0.26174 0.0
H623 H 0.6057 0.9571 0.22841 0.0
C624 C 0.61809 0.96865 0.26933 0.0
C625 C 0.60836 0.96749 0.29631 0.0
C626 C 0.5321 0.8975 0.24181 0.0
C627 C 0.56815 0.94257 0.25631 0.0
C628 C 0.5162 0.88089 0.22123 0.0
C629 C 0.51509 0.89388 0.19519 0.0
C630 C 0.54782 0.9266 0.23593 0.0
C631 C 0.52951 0.92399 0.19058 0.0
C632 C 0.59776 0.95665 0.24918 0.0
C633 C 0.5779 0.95454 0.3024 0.0
N634 N 0.54586 0.93908 0.21065 0.0
N635 N 0.55907 0.94204 0.28259 0.0
H636 H 0.54091 0.65617 0.28696 0.0
H637 H 0.58915 0.48491 0.22819 0.0
H638 H 0.48182 0.57066 0.28667 0.0
H639 H 0.62069 0.56932 0.18521 0.0
H640 H 0.56309 0.5193 0.26138 0.0
H641 H 0.58002 0.6281 0.25731 0.0
C642 C 0.53591 0.63187 0.28027 0.0
C643 C 0.50825 0.61557 0.2893 0.0
C644 C 0.57625 0.53043 0.245 0.0
C645 C 0.55283 0.58348 0.25685 0.0
C646 C 0.59144 0.51082 0.22631 0.0
C647 C 0.60683 0.52443 0.20408 0.0
C648 C 0.57583 0.56391 0.24111 0.0
C649 C 0.60903 0.55811 0.2023 0.0
C650 C 0.55827 0.61587 0.2637 0.0
C651 C 0.50295 0.58404 0.28041 0.0
N652 N 0.59296 0.57695 0.22037 0.0
N653 N 0.52513 0.569 0.265 0.0
H654 H 0.82942 0.51327 0.29359 0.0
H655 H 0.91843 0.66578 0.22969 0.0
H656 H 0.83342 0.60518 0.33341 0.0
H657 H 0.92747 0.56756 0.20231 0.0
H658 H 0.87851 0.64782 0.2631 0.0
H659 H 0.85335 0.53755 0.25352 0.0
C660 C 0.83401 0.53896 0.29332 0.0
C661 C 0.82913 0.55749 0.31642 0.0
C662 C 0.88926 0.63034 0.24967 0.0
C663 C 0.85835 0.58502 0.2716 0.0
C664 C 0.91221 0.6405 0.23083 0.0
C665 C 0.92664 0.61806 0.21351 0.0
C666 C 0.88054 0.59766 0.25081 0.0
C667 C 0.91736 0.58568 0.21549 0.0
C668 C 0.84821 0.55273 0.27071 0.0
C669 C 0.83635 0.59042 0.31561 0.0
N670 N 0.89496 0.57652 0.23375 0.0
N671 N 0.85127 0.60312 0.29368 0.0
H672 H 0.0096 0.97474 0.43363 0.0
H673 H 0.01324 0.01774 0.59005 0.0
H674 H 0.08245 0.93939 0.48873 0.0
H675 H 0.93855 0.05018 0.53537 0.0
H676 H 0.03763 0.98729 0.55369 0.0
H677 H 0.98382 0.00305 0.47056 0.0
C678 C 0.02068 0.97353 0.45341 0.0
C679 C 0.04857 0.95497 0.45801 0.0
C680 C 0.01572 0.00076 0.54967 0.0
C681 C 0.01831 0.98655 0.5007 0.0
C682 C 0.00141 0.01784 0.57056 0.0
C683 C 0.97359 0.0365 0.56584 0.0
C684 C 0.00232 0.00245 0.52374 0.0
C685 C 0.96008 0.03633 0.53989 0.0
C686 C 0.00558 0.98934 0.4746 0.0
C687 C 0.06104 0.95344 0.48429 0.0
N688 N 0.97471 0.01974 0.51975 0.0
N689 N 0.04578 0.969 0.50468 0.0
H690 H 0.60514 0.92602 0.46694 0.0
H691 H 0.51019 0.02157 0.58168 0.0
H692 H 0.61721 0.02719 0.48343 0.0
H693 H 0.47855 0.9302 0.54982 0.0
H694 H 0.55816 0.01857 0.5535 0.0
H695 H 0.56783 0.92214 0.5051 0.0
C696 C 0.60061 0.94719 0.47909 0.0
C697 C 0.61405 0.97701 0.47207 0.0
C698 C 0.54092 -0.00101 0.55289 0.0
C699 C 0.57132 0.97286 0.51529 0.0
C700 C 0.5136 0.00055 0.56911 0.0
C701 C 0.49022 0.97612 0.56804 0.0
C702 C 0.54501 0.97282 0.5354 0.0
C703 C 0.49576 0.94975 0.551 0.0
C704 C 0.57912 0.94503 0.50065 0.0
C705 C 0.60712 0.00382 0.48816 0.0
N706 N 0.52253 0.94887 0.5352 0.0
N707 N 0.58603 0.00117 0.50891 0.0
H708 H 0.58649 0.45295 0.49846 0.0
H709 H 0.43204 0.56527 0.47151 0.0
H710 H 0.52302 0.48741 0.56103 0.0
H711 H 0.49739 0.5337 0.40926 0.0
H712 H 0.46594 0.53778 0.50497 0.0
H713 H 0.55567 0.48462 0.46558 0.0
C714 C 0.5665 0.4676 0.50535 0.0
C715 C 0.55752 0.46762 0.53257 0.0
C716 C 0.47271 0.53675 0.48394 0.0
C717 C 0.5218 0.50337 0.49511 0.0
C718 C 0.45329 0.55231 0.46487 0.0
C719 C 0.46153 0.55132 0.43752 0.0
C720 C 0.50067 0.52031 0.47557 0.0
C721 C 0.48951 0.53436 0.43002 0.0
C722 C 0.54881 0.48555 0.48659 0.0
C723 C 0.53133 0.48706 0.54038 0.0
N724 N 0.50804 0.51957 0.44892 0.0
N725 N 0.51426 0.50388 0.52173 0.0
H726 H 0.95041 0.55105 0.4653 0.0
H727 H 0.1211 0.4748 0.49977 0.0
H728 H 0.9898 0.47 0.42216 0.0
H729 H 0.08776 0.56473 0.53257 0.0
H730 H 0.07692 0.47622 0.46684 0.0
H731 H 0.00269 0.55911 0.48707 0.0
C732 C 0.97008 0.53482 0.46053 0.0
C733 C 0.96561 0.50945 0.44227 0.0
C734 C 0.07974 0.49616 0.48068 0.0
C735 C 0.0258 0.51881 0.46687 0.0
C736 C 0.10519 0.49553 0.4992 0.0
C737 C 0.10811 0.51989 0.51854 0.0
C738 C 0.05671 0.52099 0.48203 0.0
C739 C 0.08647 0.54579 0.51763 0.0
C740 C 1.00006 0.53968 0.47272 0.0
C741 C 0.99218 0.48974 0.43624 0.0
N742 N 0.06128 0.54539 0.49999 0.0
N743 N 0.02106 0.49459 0.44876 0.0
H744 H 0.94507 0.48198 0.94283 0.0
H745 H 0.0415 0.52122 0.07515 0.0
H746 H 0.03002 0.42721 0.96491 0.0
H747 H 0.99184 0.59477 0.02978 0.0
H748 H 0.03694 0.48487 0.0364 0.0
H749 H 0.95929 0.52183 0.97692 0.0
C750 C 0.9667 0.47827 0.95478 0.0
C751 C 0.9863 0.45106 0.95093 0.0
C752 C 0.02775 0.50922 0.0347 0.0
C753 C 0.00244 0.49647 0.99017 0.0
C754 C 0.03058 0.52993 0.05665 0.0
C755 C 0.01726 0.56091 0.05532 0.0
C756 C 0.01064 0.51942 0.01176 0.0
C757 C 0.00273 0.57111 0.03127 0.0
C758 C 0.97482 0.5011 0.97417 0.0
C759 C 0.01374 0.44736 0.96746 0.0
N760 N 0.99922 0.55015 0.01052 0.0
N761 N 0.02089 0.46973 0.98647 0.0
H762 H 0.01083 0.94123 0.94257 0.0
H763 H 0.91831 0.07238 0.02157 0.0
H764 H 0.99948 0.03646 0.90919 0.0
H765 H 0.89337 0.97206 0.0283 0.0
H766 H 0.94491 0.06094 0.97838 0.0
H767 H 0.96529 0.95169 0.97271 0.0
C768 C 0.9982 0.96405 0.94124 0.0
C769 C 0.00869 0.98801 0.9235 0.0
C770 C 0.93271 0.04163 0.9889 0.0
C771 C 0.95746 0.00057 0.9582 0.0
C772 C 0.91745 0.04824 0.01337 0.0
C773 C 0.9038 0.02307 0.02819 0.0
C774 C 0.93482 0.00959 0.97986 0.0
C775 C 0.90371 0.99201 0.01722 0.0
C776 C 0.97224 0.97005 0.95834 0.0
C777 C 0.99181 0.01733 0.92255 0.0
N778 N 0.91963 0.98597 0.99396 0.0
N779 N 0.9674 0.02309 0.94011 0.0
H780 H 0.4863 0.03029 0.93198 0.0
H781 H 0.53455 0.86717 0.0039 0.0
H782 H 0.56856 0.97418 0.907 0.0
H783 H 0.44632 0.91926 0.01849 0.0
H784 H 0.54381 0.90031 0.96365 0.0
H785 H 0.46826 0.98563 0.95976 0.0
C786 C 0.50067 0.00845 0.93258 0.0
C787 C 0.52935 0.00604 0.91786 0.0
C788 C 0.52195 0.90386 0.97519 0.0
C789 C 0.5088 0.95455 0.9495 0.0
C790 C 0.51653 0.88476 -0.00207 0.0
C791 C 0.48971 0.89077 0.01432 0.0
C792 C 0.50046 0.92913 0.96921 0.0
C793 C 0.46728 0.91407 0.00623 0.0
C794 C 0.49021 0.98281 0.9482 0.0
C795 C 0.54659 0.97698 0.91852 0.0
N796 N 0.4734 0.93275 0.98446 0.0
N797 N 0.53631 0.9524 0.93452 0.0
H798 H 0.40758 0.52366 0.96919 0.0
H799 H 0.51773 0.39372 0.04578 0.0
H800 H 0.43635 0.43257 0.93503 0.0
H801 H 0.48826 0.48426 0.08066 0.0
H802 H 0.48326 0.4051 0.00676 0.0
H803 H 0.43225 0.50736 0.0121 0.0
C804 C 0.41887 0.50019 0.97078 0.0
C805 C 0.42047 0.47972 0.94839 0.0
C806 C 0.48401 0.42227 0.02314 0.0
C807 C 0.44871 0.4609 -0.00277 0.0
C808 C 0.50371 0.41575 0.04541 0.0
C809 C 0.50594 0.438 0.06656 0.0
C810 C 0.46667 0.45139 0.02189 0.0
C811 C 0.48701 0.46611 0.06506 0.0
C812 C 0.433 0.4909 0.99522 0.0
C813 C 0.43533 0.4495 0.95157 0.0
N814 N 0.46846 0.47213 0.04302 0.0
N815 N 0.44904 0.44112 0.97543 0.0
H816 H 0.90634 0.23654 0.67126 0.0
H817 H 0.86851 0.30004 0.81879 0.0
H818 H 0.88622 0.17572 0.73978 0.0
H819 H 0.91606 0.35616 0.75752 0.0
H820 H 0.8568 0.25863 0.78538 0.0
H821 H 0.89241 0.2836 0.69826 0.0
C822 C 0.89864 0.23296 0.69185 0.0
C823 C 0.89855 0.20209 0.70349 0.0
C824 C 0.86911 0.28037 0.77909 0.0
C825 C 0.88201 0.25588 0.7343 0.0
C826 C 0.87554 0.30421 0.79811 0.0
C827 C 0.89374 0.3314 0.79096 0.0
C828 C 0.88092 0.28378 0.75278 0.0
C829 C 0.90245 0.33528 0.76387 0.0
C830 C 0.89051 0.25987 0.70718 0.0
C831 C 0.88711 0.19894 0.72997 0.0
N832 N 0.89643 0.31146 0.74582 0.0
N833 N 0.87983 0.22556 0.74462 0.0
H834 H 0.34728 0.92865 0.72458 0.0
H835 H 0.16555 0.91843 0.77775 0.0
H836 H 0.26486 0.93789 0.67188 0.0
H837 H 0.24374 0.95716 0.8251 0.0
H838 H 0.20319 0.91005 0.74019 0.0
H839 H 0.31065 0.92331 0.7631 0.0
C840 C 0.32145 0.92873 0.72109 0.0
C841 C 0.30893 0.93371 0.69512 0.0
C842 C 0.21212 0.91997 0.75895 0.0
C843 C 0.26712 0.92774 0.73885 0.0
C844 C 0.19078 0.92453 0.78036 0.0
C845 C 0.20169 0.93859 0.80439 0.0
C846 C 0.24461 0.92898 0.76189 0.0
C847 C 0.23449 0.9465 0.80675 0.0
C848 C 0.30063 0.92598 0.74303 0.0
C849 C 0.2753 0.93421 0.69167 0.0
N850 N 0.25485 0.94159 0.78575 0.0
N851 N 0.25549 0.93134 0.71332 0.0
H852 H 0.56323 0.14727 0.74601 0.0
H853 H 0.62958 0.32049 0.70989 0.0
H854 H 0.63068 0.1977 0.79701 0.0
H855 H 0.58718 0.25704 0.65074 0.0
H856 H 0.63263 0.2754 0.74146 0.0
H857 H 0.57314 0.18663 0.71024 0.0
C858 C 0.58045 0.16643 0.74948 0.0
C859 C 0.5961 0.1693 0.77444 0.0
C860 C 0.62303 0.27129 0.72144 0.0
C861 C 0.60729 0.2147 0.73389 0.0
C862 C 0.62141 0.29704 0.70331 0.0
C863 C 0.60751 0.29282 0.6777 0.0
C864 C 0.61041 0.24119 0.714 0.0
C865 C 0.5972 0.26176 0.67049 0.0
C866 C 0.58619 0.18884 0.7291 0.0
C867 C 0.61832 0.19448 0.77797 0.0
N868 N 0.59843 0.2373 0.68864 0.0
N869 N 0.62291 0.21651 0.75805 0.0
H870 H 0.17624 0.60375 0.70411 0.0
H871 H 0.35456 0.60396 0.7653 0.0
H872 H 0.26255 0.58621 0.65819 0.0
H873 H 0.26857 0.58556 0.81141 0.0
H874 H 0.32078 0.61821 0.72641 0.0
H875 H 0.20978 0.61766 0.74323 0.0
C876 C 0.20226 0.60395 0.70202 0.0
C877 C 0.21678 0.59357 0.67806 0.0
C878 C 0.30931 0.61191 0.74527 0.0
C879 C 0.25513 0.60906 0.72257 0.0
C880 C 0.32855 0.60408 0.76752 0.0
C881 C 0.31421 0.59331 0.79145 0.0
C882 C 0.27558 0.6091 0.74711 0.0
C883 C 0.28041 0.59347 0.79316 0.0
C884 C 0.22136 0.61161 0.72436 0.0
C885 C 0.25058 0.59381 0.67646 0.0
N886 N 0.26219 0.60078 0.77116 0.0
N887 N 0.26865 0.60101 0.69853 0.0
H888 H 0.08635 0.64363 0.23972 0.0
H889 H 0.12097 0.828 0.27431 0.0
H890 H 0.07 0.72244 0.18472 0.0
H891 H 0.10633 0.75424 0.33417 0.0
H892 H 0.1198 0.78673 0.23917 0.0
H893 H 0.11057 0.68131 0.27189 0.0
C894 C 0.08856 0.66874 0.23417 0.0
C895 C 0.07578 0.68012 0.20974 0.0
C896 C 0.11756 0.77951 0.26006 0.0
C897 C 0.10326 0.7232 0.24632 0.0
C898 C 0.11853 0.803 0.28012 0.0
C899 C 0.11337 0.79445 0.30711 0.0
C900 C 0.11154 0.74732 0.26712 0.0
C901 C 0.10996 0.76174 0.31351 0.0
C902 C 0.1022 0.69023 0.25257 0.0
C903 C 0.07906 0.71291 0.20359 0.0
N904 N 0.10869 0.73935 0.29362 0.0
N905 N 0.09222 0.73338 0.22187 0.0
H906 H 0.85872 0.09585 0.23543 0.0
H907 H 0.67482 0.09835 0.28274 0.0
H908 H 0.77686 0.08605 0.1823 0.0
H909 H 0.75502 0.0743 0.33461 0.0
H910 H 0.71293 0.11358 0.24737 0.0
H911 H 0.82175 0.10742 0.27279 0.0
C912 C 0.83301 0.09719 0.2315 0.0
C913 C 0.82063 0.08969 0.20595 0.0
C914 C 0.72219 0.10571 0.26673 0.0
C915 C 0.77843 0.1026 0.24831 0.0
C916 C 0.70046 0.09729 0.28699 0.0
C917 C 0.7119 0.08469 0.31147 0.0
C918 C 0.75549 0.10163 0.27109 0.0
C919 C 0.74537 0.08351 0.31582 0.0
C920 C 0.81195 0.10353 0.2528 0.0
C921 C 0.78716 0.09136 0.20187 0.0
N922 N 0.76604 0.09142 0.29568 0.0
N923 N 0.76715 0.09728 0.2229 0.0
H924 H 0.36984 0.6518 0.24758 0.0
H925 H 0.37723 0.83368 0.19594 0.0
H926 H 0.37834 0.73393 0.30011 0.0
H927 H 0.40761 0.75174 0.14937 0.0
H928 H 0.35797 0.79707 0.2313 0.0
H929 H 0.36393 0.68827 0.20908 0.0
C930 C 0.36951 0.67751 0.2511 0.0
C931 C 0.37499 0.68997 0.27697 0.0
C932 C 0.36808 0.78712 0.21301 0.0
C933 C 0.36845 0.73166 0.23313 0.0
C934 C 0.37877 0.80794 0.1928 0.0
C935 C 0.39413 0.79552 0.16994 0.0
C936 C 0.37255 0.75378 0.21005 0.0
C937 C 0.39605 0.76205 0.16688 0.0
C938 C 0.36636 0.69827 0.22912 0.0
C939 C 0.37466 0.72348 0.28038 0.0
N940 N 0.3857 0.74229 0.18686 0.0
N941 N 0.37184 0.74323 0.25865 0.0
H942 H 0.63863 0.39515 0.24653 0.0
H943 H 0.81918 0.41 0.30297 0.0
H944 H 0.71986 0.41396 0.19478 0.0
H945 H 0.7353 0.43887 0.34795 0.0
H946 H 0.78387 0.3956 0.26476 0.0
H947 H 0.67507 0.39509 0.28551 0.0
C948 C 0.66424 0.39853 0.24331 0.0
C949 C 0.6763 0.40466 0.21743 0.0
C950 C 0.77323 0.40457 0.2832 0.0
C951 C 0.718 0.40469 0.26186 0.0
C952 C 0.79326 0.41247 0.30496 0.0
C953 C 0.77993 0.42553 0.32847 0.0
C954 C 0.73972 0.40922 0.28531 0.0
C955 C 0.74631 0.42888 0.33006 0.0
C956 C 0.68495 0.39875 0.26556 0.0
C957 C 0.70967 0.4094 0.21446 0.0
N958 N 0.72731 0.4208 0.30876 0.0
N959 N 0.72941 0.4094 0.23644 0.0
H960 H 0.26444 0.05137 0.65138 0.0
H961 H 0.10763 0.09441 0.5643 0.0
H962 H 0.24991 0.01785 0.56995 0.0
H963 H 0.111 0.10203 0.65091 0.0
H964 H 0.16165 0.07013 0.56509 0.0
H965 H 0.20973 0.07378 0.65092 0.0
C966 C 0.24974 0.04868 0.63344 0.0
C967 C 0.26173 0.03275 0.61067 0.0
C968 C 0.15046 0.07699 0.58392 0.0
C969 C 0.19932 0.05851 0.60992 0.0
C970 C 0.11978 0.09099 0.58344 0.0
C971 C 0.10484 0.10011 0.60755 0.0
C972 C 0.16645 0.07255 0.60868 0.0
C973 C 0.12148 0.09494 0.63188 0.0
C974 C 0.2185 0.06139 0.63321 0.0
C975 C 0.24159 0.02986 0.58799 0.0
N976 N 0.15147 0.08167 0.63182 0.0
N977 N 0.21144 0.0428 0.58812 0.0
H978 H 0.36553 0.16274 0.59004 0.0
H979 H 0.53577 0.24612 0.60428 0.0
H980 H 0.45149 0.10999 0.61193 0.0
H981 H 0.4478 0.29923 0.61782 0.0
H982 H 0.50517 0.19594 0.60537 0.0
H983 H 0.39479 0.21334 0.59753 0.0
C984 C 0.39059 0.16186 0.5963 0.0
C985 C 0.40628 0.13223 0.60015 0.0
C986 C 0.49254 0.21848 0.60847 0.0
C987 C 0.43966 0.1897 0.60887 0.0
C988 C 0.50996 0.24706 0.60781 0.0
C989 C 0.49411 0.27662 0.61088 0.0
C990 C 0.45888 0.21953 0.61149 0.0
C991 C 0.46076 0.27674 0.6155 0.0
C992 C 0.40711 0.19066 0.60088 0.0
C993 C 0.43856 0.13234 0.60878 0.0
N994 N 0.44402 0.24853 0.61519 0.0
N995 N 0.45429 0.16063 0.61258 0.0
H996 H 0.41781 0.42174 0.53107 0.0
H997 H 0.27966 0.49202 0.62679 0.0
H998 H 0.42807 0.43276 0.61721 0.0
H999 H 0.262 0.45764 0.54602 0.0
H1000 H 0.33717 0.48084 0.62097 0.0
H1001 H 0.36369 0.44492 0.53393 0.0
C1002 C 0.40888 0.42912 0.55056 0.0
C1003 C 0.42759 0.42472 0.57396 0.0
C1004 C 0.32073 0.47602 0.60444 0.0
C1005 C 0.36568 0.45176 0.57727 0.0
C1006 C 0.28789 0.48249 0.6077 0.0
C1007 C 0.26588 0.47536 0.58697 0.0
C1008 C 0.33171 0.46251 0.58022 0.0
C1009 C 0.27803 0.46318 0.56265 0.0
C1010 C 0.37798 0.44249 0.55214 0.0
C1011 C 0.41485 0.43563 0.59856 0.0
N1012 N 0.3101 0.45693 0.56001 0.0
N1013 N 0.38464 0.44838 0.59957 0.0
H1014 H 0.16459 0.33734 0.65383 0.0
H1015 H 0.991 0.26499 0.62003 0.0
H1016 H 0.08919 0.3901 0.61281 0.0
H1017 H 0.06093 0.21558 0.66986 0.0
H1018 H 0.02568 0.3123 0.61971 0.0
H1019 H 0.12663 0.29329 0.66168 0.0
C1020 C 0.14009 0.33962 0.6464 0.0
C1021 C 0.13009 0.36732 0.63243 0.0
C1022 C 0.03337 0.29127 0.63096 0.0
C1023 C 0.08647 0.31722 0.64159 0.0
C1024 C 0.01355 0.26424 0.63115 0.0
C1025 C 0.02328 0.23627 0.64477 0.0
C1026 C 0.06337 0.29022 0.6442 0.0
C1027 C 0.05258 0.23669 0.65906 0.0
C1028 C 0.11835 0.3146 0.65112 0.0
C1029 C 0.09786 0.36927 0.62377 0.0
N1030 N 0.07185 0.26315 0.65812 0.0
N1031 N 0.07729 0.34447 0.62833 0.0
H1032 H 0.27828 0.43679 0.91676 0.0
H1033 H 0.10083 0.44013 0.85396 0.0
H1034 H 0.2519 0.49238 0.84644 0.0
H1035 H 0.13318 0.3734 0.91497 0.0
H1036 H 0.15213 0.46909 0.85807 0.0
H1037 H 0.22158 0.42344 0.92341 0.0
C1038 C 0.26051 0.44655 0.9029 0.0
C1039 C 0.2699 0.46515 0.88067 0.0
C1040 C 0.14778 0.44841 0.87085 0.0
C1041 C 0.20494 0.44974 0.88808 0.0
C1042 C 0.11847 0.43202 0.86863 0.0
C1043 C 0.11309 0.4041 0.88389 0.0
C1044 C 0.17168 0.43679 0.88854 0.0
C1045 C 0.13675 0.39446 0.90248 0.0
C1046 C 0.22812 0.43889 0.90671 0.0
C1047 C 0.24576 0.47757 0.86364 0.0
N1048 N 0.16515 0.41058 0.9041 0.0
N1049 N 0.21438 0.46923 0.86746 0.0
H1050 H 0.07959 0.14595 0.93735 0.0
H1051 H 0.97169 0.24027 0.82923 0.0
H1052 H 0.05748 0.11188 0.85713 0.0
H1053 H 0.00731 0.28387 0.90244 0.0
H1054 H 0.99311 0.18858 0.84426 0.0
H1055 H 0.04473 0.19256 0.92918 0.0
C1056 C 0.06741 0.14802 0.91812 0.0
C1057 C 0.07197 0.12482 0.89787 0.0
C1058 C 0.99592 0.20936 0.85721 0.0
C1059 C 0.03156 0.17794 0.88861 0.0
C1060 C 0.98356 0.23889 0.84868 0.0
C1061 C 0.98824 0.26657 0.86435 0.0
C1062 C 0.01324 0.20746 0.88155 0.0
C1063 C 0.00345 0.2632 0.88956 0.0
C1064 C 0.04733 0.17459 0.91355 0.0
C1065 C 0.05484 0.12869 0.87355 0.0
N1066 N 0.01587 0.23425 0.89721 0.0
N1067 N 0.03566 0.15476 0.8696 0.0
H1068 H 0.39296 0.09874 0.93278 0.0
H1069 H 0.23639 0.0538 0.8464 0.0
H1070 H 0.3943 0.08983 0.84625 0.0
H1071 H 0.24657 0.02968 0.93062 0.0
H1072 H 0.29232 0.07312 0.84635 0.0
H1073 H 0.33704 0.0792 0.93288 0.0
C1074 C 0.38145 0.09263 0.91385 0.0
C1075 C 0.39825 0.09569 0.88952 0.0
C1076 C 0.28226 0.06356 0.86481 0.0
C1077 C 0.33446 0.07371 0.88939 0.0
C1078 C 0.25034 0.0527 0.86489 0.0
C1079 C 0.23687 0.04012 0.88855 0.0
C1080 C 0.30061 0.06226 0.88866 0.0
C1081 C 0.25607 0.03907 0.9119 0.0
C1082 C 0.34967 0.08139 0.9139 0.0
C1083 C 0.38235 0.08735 0.86549 0.0
N1084 N 0.28692 0.05015 0.91142 0.0
N1085 N 0.35126 0.07694 0.86601 0.0
H1086 H 0.37337 0.33726 0.80556 0.0
H1087 H 0.52689 0.25054 0.87101 0.0
H1088 H 0.43631 0.38304 0.86334 0.0
H1089 H 0.46374 0.20625 0.81241 0.0
H1090 H 0.49762 0.3012 0.86512 0.0
H1091 H 0.40936 0.29083 0.80478 0.0
C1092 C 0.39477 0.33748 0.81814 0.0
C1093 C 0.40165 0.3638 0.83485 0.0
C1094 C 0.49038 0.28046 0.85337 0.0
C1095 C 0.44318 0.31082 0.83393 0.0
C1096 C 0.50711 0.25154 0.85669 0.0
C1097 C 0.49748 0.22401 0.84243 0.0
C1098 C 0.46382 0.28178 0.83572 0.0
C1099 C 0.47182 0.22675 0.82404 0.0
C1100 C 0.41546 0.31106 0.81755 0.0
C1101 C 0.43017 0.3632 0.85019 0.0
N1102 N 0.4557 0.25504 0.82141 0.0
N1103 N 0.44977 0.33695 0.84956 0.0
H1104 H 0.91699 0.90485 0.3539 0.0
H1105 H 0.76976 -0.00027 0.42125 0.0
H1106 H 0.91219 0.92422 0.43914 0.0
H1107 H 0.76436 0.95347 0.34354 0.0
H1108 H 0.82524 0.97977 0.42636 0.0
H1109 H 0.86432 0.93044 0.34801 0.0
C1110 C 0.905 0.91482 0.37135 0.0
C1111 C 0.91896 0.91239 0.39708 0.0
C1112 C 0.81189 0.97414 0.40817 0.0
C1113 C 0.85851 0.94152 0.3905 0.0
C1114 C 0.78032 0.98563 0.40517 0.0
C1115 C 0.76238 0.97812 0.38198 0.0
C1116 C 0.82567 0.95538 0.38768 0.0
C1117 C 0.77722 0.95966 0.36184 0.0
C1118 C 0.87482 0.92921 0.368 0.0
C1119 C 0.90208 0.92531 0.41903 0.0
N1120 N 0.80798 0.94896 0.36515 0.0
N1121 N 0.8727 0.93938 0.41525 0.0
H1122 H 0.63964 0.83008 0.32474 0.0
H1123 H 0.46446 0.76803 0.3668 0.0
H1124 H 0.5749 0.88274 0.37656 0.0
H1125 H 0.53022 0.71275 0.31787 0.0
H1126 H 0.50233 0.81285 0.36617 0.0
H1127 H 0.59828 0.78903 0.31865 0.0
C1128 C 0.61684 0.83295 0.33503 0.0
C1129 C 0.61093 0.85981 0.3515 0.0
C1130 C 0.5084 0.79107 0.35534 0.0
C1131 C 0.56315 0.81301 0.34415 0.0
C1132 C 0.48673 0.76547 0.35561 0.0
C1133 C 0.49436 0.7365 0.34258 0.0
C1134 C 0.53808 0.78766 0.34208 0.0
C1135 C 0.52342 0.73463 0.32823 0.0
C1136 C 0.59309 0.8096 0.33131 0.0
C1137 C 0.58051 0.86255 0.36365 0.0
N1138 N 0.54444 0.75978 0.32861 0.0
N1139 N 0.55784 0.83937 0.35984 0.0
H1140 H 0.73634 0.55328 0.35289 0.0
H1141 H 0.57713 0.60341 0.43273 0.0
H1142 H 0.72027 0.53005 0.43657 0.0
H1143 H 0.58143 0.60152 0.34598 0.0
H1144 H 0.63095 0.57907 0.43468 0.0
H1145 H 0.6808 0.57358 0.34986 0.0
C1146 C 0.72114 0.55238 0.37058 0.0
C1147 C 0.73298 0.54007 0.39505 0.0
C1148 C 0.62007 0.5838 0.4152 0.0
C1149 C 0.66965 0.56337 0.39176 0.0
C1150 C 0.58946 0.59783 0.41412 0.0
C1151 C 0.57493 0.60452 0.38919 0.0
C1152 C 0.63647 0.57683 0.39117 0.0
C1153 C 0.59173 0.59648 0.3656 0.0
C1154 C 0.68944 0.56387 0.36882 0.0
C1155 C 0.71218 0.53934 0.4173 0.0
N1156 N 0.62177 0.5833 0.36716 0.0
N1157 N 0.68164 0.55104 0.41518 0.0
H1158 H 0.84972 0.67403 0.39274 0.0
H1159 H 0.02979 0.73562 0.38748 0.0
H1160 H 0.93103 0.60911 0.39111 0.0
H1161 H 0.95104 0.79305 0.35666 0.0
H1162 H 0.99391 0.68909 0.38962 0.0
H1163 H 0.8859 0.71864 0.38111 0.0
C1164 C 0.87521 0.66925 0.39001 0.0
C1165 C 0.88754 0.63797 0.39311 0.0
C1166 C 0.98454 0.71169 0.38199 0.0
C1167 C 0.92887 0.68861 0.37972 0.0
C1168 C 0.00498 0.73822 0.38076 0.0
C1169 C 0.99321 0.76808 0.37195 0.0
C1170 C 0.95186 0.71527 0.375 0.0
C1171 C 0.96097 0.77029 0.36344 0.0
C1172 C 0.89574 0.69457 0.38309 0.0
C1173 C 0.92061 0.63288 0.38885 0.0
N1174 N 0.94114 0.74429 0.36564 0.0
N1175 N 0.94021 0.65799 0.38267 0.0
H1176 H 0.81961 0.64233 0.15138 0.0
H1177 H 0.73601 0.47924 0.1034 0.0
H1178 H 0.87135 0.56669 0.11053 0.0
H1179 H 0.69276 0.54416 0.1608 0.0
H1180 H 0.78496 0.512 0.10391 0.0
H1181 H 0.77174 0.60811 0.15269 0.0
C1182 C 0.82079 0.61861 0.14245 0.0
C1183 C 0.8494 0.60738 0.13062 0.0
C1184 C 0.76484 0.51896 0.11651 0.0
C1185 C 0.79482 0.56794 0.13231 0.0
C1186 C 0.73687 0.50031 0.11621 0.0
C1187 C 0.71026 0.50904 0.13204 0.0
C1188 C 0.76608 0.54676 0.13252 0.0
C1189 C 0.71274 0.53651 0.14832 0.0
C1190 C 0.79356 0.59896 0.14345 0.0
C1191 C 0.84978 0.57616 0.1199 0.0
N1192 N 0.74009 0.55455 0.14799 0.0
N1193 N 0.82282 0.55756 0.12086 0.0
H1194 H 0.94936 0.72016 0.065 0.0
H1195 H 0.94464 0.89419 0.13253 0.0
H1196 H 0.99707 0.7434 0.14 0.0
H1197 H 0.87375 0.85802 0.07657 0.0
H1198 H 0.97695 0.8452 0.12566 0.0
H1199 H 0.9356 0.7769 0.05924 0.0
C1200 C 0.95761 0.73725 0.07997 0.0
C1201 C 0.97367 0.7269 0.10338 0.0
C1202 C 0.95466 0.84836 0.11446 0.0
C1203 C 0.95785 0.79177 0.0969 0.0
C1204 C 0.93639 0.87628 0.11826 0.0
C1205 C 0.90646 0.87972 0.10526 0.0
C1206 C 0.94295 0.8241 0.09733 0.0
C1207 C 0.89655 0.85585 0.08716 0.0
C1208 C 0.94963 0.76963 0.07669 0.0
C1209 C 0.98408 0.75025 0.1219 0.0
N1210 N 0.91462 0.82889 0.08387 0.0
N1211 N 0.97552 0.78159 0.11849 0.0
H1212 H 0.76084 -0.00072 0.15282 0.0
H1213 H 0.61234 0.90868 0.08335 0.0
H1214 H 0.76251 0.9673 0.07006 0.0
H1215 H 0.6349 0.90485 0.16804 0.0
H1216 H 0.65853 0.94523 0.07657 0.0
H1217 H 0.70514 0.98074 0.15637 0.0
C1218 C 0.74934 0.98896 0.1352 0.0
C1219 C 0.76663 0.98412 0.11127 0.0
C1220 C 0.65297 0.93674 0.09666 0.0
C1221 C 0.70293 0.96293 0.11531 0.0
C1222 C 0.62675 0.91609 0.1005 0.0
C1223 C 0.62045 0.90361 0.12617 0.0
C1224 C 0.67233 0.94529 0.11882 0.0
C1225 C 0.63954 0.91368 0.14789 0.0
C1226 C 0.71757 0.97831 0.13731 0.0
C1227 C 0.75026 0.97098 0.08904 0.0
N1228 N 0.66474 0.93387 0.14373 0.0
N1229 N 0.71938 0.9604 0.0917 0.0
H1230 H 0.61372 0.60192 0.13206 0.0
H1231 H 0.48739 0.73999 0.11098 0.0
H1232 H 0.53486 0.5848 0.07712 0.0
H1233 H 0.58915 0.75906 0.10165 0.0
H1234 H 0.49906 0.68173 0.10933 0.0
H1235 H 0.59973 0.65947 0.1326 0.0
C1236 C 0.59333 0.61042 0.12029 0.0
C1237 C 0.57541 0.58902 0.10443 0.0
C1238 C 0.51865 0.69885 0.10756 0.0
C1239 C 0.55899 0.65397 0.10542 0.0
C1240 C 0.51209 0.73186 0.10859 0.0
C1241 C 0.53739 0.75411 0.10627 0.0
C1242 C 0.55074 0.68839 0.10516 0.0
C1243 C 0.569 0.74258 0.10324 0.0
C1244 C 0.58548 0.64302 0.12053 0.0
C1245 C 0.54925 0.60088 0.08939 0.0
N1246 N 0.57487 0.71044 0.10314 0.0
N1247 N 0.54152 0.63271 0.09042 0.0
loop_
_geom_bond_atom_site_label_1
_geom_bond_atom_site_label_2
_geom_bond_distance
_geom_bond_site_symmetry_2
_ccdc_geom_bond_type
Co0 N4 2.148 . S
Co0 N10 2.128 1_455 S
Co0 N20 2.194 1_455 S
Co0 O25 2.351 1_455 S
Co0 O26 2.155 . S
Co0 O27 2.096 . S
C1 N4 1.301 . S
C1 N5 1.328 . S
C1 H6 0.930 . S
C2 C3 1.333 . S
C2 N4 1.317 . S
C2 H7 0.930 . S
C3 C2 1.333 . S
C3 N5 1.350 . S
C3 H29 0.931 . S
N4 Co0 2.148 . S
N4 C1 1.301 . S
N4 C2 1.317 . S
N5 C1 1.328 . S
N5 C3 1.350 . S
H6 C1 0.930 . S
H7 C2 0.930 . S
C8 O9 1.224 . S
C8 O27 1.247 . S
O9 C8 1.224 . S
N10 Co0 2.128 1_655 S
N10 C11 1.355 . S
N10 C13 1.311 . S
C11 N10 1.355 . S
C11 C12 1.363 . S
C11 H23 0.929 . S
C12 C11 1.363 . S
C12 N14 1.375 . S
C12 H30 0.931 . S
C13 N10 1.311 . S
C13 N14 1.347 . S
C13 H24 0.929 . S
N14 C12 1.375 . S
N14 C13 1.347 . S
C15 C18 1.365 . S
C15 N20 1.328 . S
C15 H21 0.929 . S
C16 C17 1.362 . S
C16 C19 1.378 . S
C16 H31 0.929 . S
C17 C16 1.362 . S
C17 C18 1.366 . S
C18 C15 1.365 . S
C18 C17 1.366 . S
C18 H32 0.930 . S
C19 C16 1.378 . S
C19 N20 1.315 . S
C19 H22 0.930 . S
N20 Co0 2.194 1_655 S
N20 C15 1.328 . S
N20 C19 1.315 . S
H21 C15 0.929 . S
H22 C19 0.930 . S
H23 C11 0.929 . S
H24 C13 0.929 . S
O25 Co0 2.351 1_655 S
O25 C28 1.245 1_655 S
O26 Co0 2.155 . S
O26 C28 1.240 . S
O27 Co0 2.096 . S
O27 C8 1.247 . S
C28 O25 1.245 1_455 S
C28 O26 1.240 . S
H29 C3 0.931 . S
H30 C12 0.931 . S
H31 C16 0.929 . S
H32 C18 0.930 . S
Co33 N37 2.148 . S
Co33 N43 2.128 1_545 S
Co33 N53 2.194 1_545 S
Co33 O58 2.350 1_545 S
Co33 O59 2.155 . S
Co33 O60 2.096 . S
C34 N37 1.301 . S
C34 N38 1.328 . S
C34 H39 0.930 . S
C35 C36 1.333 . S
C35 N37 1.317 . S
C35 H40 0.930 . S
C36 C35 1.333 . S
C36 N38 1.350 . S
C36 H62 0.931 . S
N37 Co33 2.148 . S
N37 C34 1.301 . S
N37 C35 1.317 . S
N38 C34 1.328 . S
N38 C36 1.350 . S
H39 C34 0.930 . S
H40 C35 0.930 . S
C41 O42 1.224 . S
C41 O60 1.247 . S
O42 C41 1.224 . S
N43 Co33 2.128 1_565 S
N43 C44 1.355 . S
N43 C46 1.311 . S
C44 N43 1.355 . S
C44 C45 1.363 . S
C44 H56 0.929 . S
C45 C44 1.363 . S
C45 N47 1.375 . S
C45 H63 0.931 . S
C46 N43 1.311 . S
C46 N47 1.347 . S
C46 H57 0.929 . S
N47 C45 1.375 . S
N47 C46 1.347 . S
C48 C51 1.365 . S
C48 N53 1.328 . S
C48 H54 0.929 . S
C49 C50 1.362 . S
C49 C52 1.378 . S
C49 H64 0.929 . S
C50 C49 1.362 . S
C50 C51 1.366 . S
C51 C48 1.365 . S
C51 C50 1.366 . S
C51 H65 0.930 . S
C52 C49 1.378 . S
C52 N53 1.315 . S
C52 H55 0.930 . S
N53 Co33 2.194 1_565 S
N53 C48 1.328 . S
N53 C52 1.315 . S
H54 C48 0.929 . S
H55 C52 0.930 . S
H56 C44 0.929 . S
H57 C46 0.929 . S
O58 Co33 2.350 1_565 S
O58 C61 1.241 1_565 S
O59 Co33 2.155 . S
O59 C61 1.240 . S
O60 Co33 2.096 . S
O60 C41 1.247 . S
C61 O58 1.241 1_545 S
C61 O59 1.240 . S
H62 C36 0.931 . S
H63 C45 0.931 . S
H64 C49 0.929 . S
H65 C51 0.930 . S
Co66 N70 2.148 . S
Co66 N76 2.128 . S
Co66 N86 2.194 . S
Co66 O91 2.351 . S
Co66 O92 2.155 . S
Co66 O93 2.096 . S
C67 N70 1.301 . S
C67 N71 1.328 . S
C67 H72 0.930 . S
C68 C69 1.333 . S
C68 N70 1.317 . S
C68 H73 0.930 . S
C69 C68 1.333 . S
C69 N71 1.350 . S
C69 H95 0.931 . S
N70 Co66 2.148 . S
N70 C67 1.301 . S
N70 C68 1.317 . S
N71 C67 1.328 . S
N71 C69 1.350 . S
H72 C67 0.930 . S
H73 C68 0.930 . S
C74 O75 1.224 . S
C74 O93 1.247 . S
O75 C74 1.224 . S
N76 Co66 2.128 . S
N76 C77 1.355 . S
N76 C79 1.311 . S
C77 N76 1.355 . S
C77 C78 1.363 . S
C77 H89 0.929 . S
C78 C77 1.363 . S
C78 N80 1.375 . S
C78 H96 0.931 . S
C79 N76 1.311 . S
C79 N80 1.347 . S
C79 H90 0.929 . S
N80 C78 1.375 . S
N80 C79 1.347 . S
C81 C84 1.365 . S
C81 N86 1.328 . S
C81 H87 0.929 . S
C82 C83 1.362 . S
C82 C85 1.378 . S
C82 H97 0.929 . S
C83 C82 1.362 . S
C83 C84 1.366 . S
C84 C81 1.365 . S
C84 C83 1.366 . S
C84 H98 0.930 . S
C85 C82 1.378 . S
C85 N86 1.315 . S
C85 H88 0.930 . S
N86 Co66 2.194 . S
N86 C81 1.328 . S
N86 C85 1.315 . S
H87 C81 0.929 . S
H88 C85 0.930 . S
H89 C77 0.929 . S
H90 C79 0.929 . S
O91 Co66 2.351 . S
O91 C94 1.244 . S
O92 Co66 2.155 . S
O92 C94 1.240 . S
O93 Co66 2.096 . S
O93 C74 1.247 . S
C94 O91 1.244 . S
C94 O92 1.240 . S
H95 C69 0.931 . S
H96 C78 0.931 . S
H97 C82 0.929 . S
H98 C84 0.930 . S
Co99 N103 2.148 . S
Co99 N109 2.128 . S
Co99 N119 2.194 . S
Co99 O124 2.351 . S
Co99 O125 2.155 . S
Co99 O126 2.096 . S
C100 N103 1.301 . S
C100 N104 1.328 . S
C100 H105 0.930 . S
C101 C102 1.333 . S
C101 N103 1.317 . S
C101 H106 0.930 . S
C102 C101 1.333 . S
C102 N104 1.350 . S
C102 H128 0.931 . S
N103 Co99 2.148 . S
N103 C100 1.301 . S
N103 C101 1.317 . S
N104 C100 1.328 . S
N104 C102 1.350 . S
H105 C100 0.930 . S
H106 C101 0.930 . S
C107 O108 1.224 . S
C107 O126 1.247 . S
O108 C107 1.224 . S
N109 Co99 2.128 . S
N109 C110 1.355 . S
N109 C112 1.311 . S
C110 N109 1.355 . S
C110 C111 1.363 . S
C110 H122 0.929 . S
C111 C110 1.363 . S
C111 N113 1.375 . S
C111 H129 0.931 . S
C112 N109 1.311 . S
C112 N113 1.347 . S
C112 H123 0.929 . S
N113 C111 1.375 . S
N113 C112 1.347 . S
C114 C117 1.365 . S
C114 N119 1.328 . S
C114 H120 0.929 . S
C115 C116 1.362 . S
C115 C118 1.378 . S
C115 H130 0.929 . S
C116 C115 1.362 . S
C116 C117 1.366 . S
C117 C114 1.365 . S
C117 C116 1.366 . S
C117 H131 0.930 . S
C118 C115 1.378 . S
C118 N119 1.315 . S
C118 H121 0.930 . S
N119 Co99 2.194 . S
N119 C114 1.328 . S
N119 C118 1.315 . S
H120 C114 0.929 . S
H121 C118 0.930 . S
H122 C110 0.929 . S
H123 C112 0.929 . S
O124 Co99 2.351 . S
O124 C127 1.244 . S
O125 Co99 2.155 . S
O125 C127 1.240 . S
O126 Co99 2.096 . S
O126 C107 1.247 . S
C127 O124 1.244 . S
C127 O125 1.240 . S
H128 C102 0.931 . S
H129 C111 0.931 . S
H130 C115 0.929 . S
H131 C117 0.930 . S
Co132 N136 2.148 . S
Co132 N142 2.128 1_455 S
Co132 N152 2.194 1_455 S
Co132 O157 2.350 1_455 S
Co132 O158 2.155 . S
Co132 O159 2.096 . S
C133 N136 1.301 . S
C133 N137 1.328 . S
C133 H138 0.930 . S
C134 C135 1.333 . S
C134 N136 1.317 . S
C134 H139 0.930 . S
C135 C134 1.333 . S
C135 N137 1.350 . S
C135 H161 0.931 . S
N136 Co132 2.148 . S
N136 C133 1.301 . S
N136 C134 1.317 . S
N137 C133 1.328 . S
N137 C135 1.350 . S
H138 C133 0.930 . S
H139 C134 0.930 . S
C140 O141 1.224 . S
C140 O159 1.247 . S
O141 C140 1.224 . S
N142 Co132 2.128 1_655 S
N142 C143 1.355 . S
N142 C145 1.311 . S
C143 N142 1.355 . S
C143 C144 1.363 . S
C143 H155 0.929 . S
C144 C143 1.363 . S
C144 N146 1.375 . S
C144 H162 0.931 . S
C145 N142 1.311 . S
C145 N146 1.347 . S
C145 H156 0.929 . S
N146 C144 1.375 . S
N146 C145 1.347 . S
C147 C150 1.365 . S
C147 N152 1.328 . S
C147 H153 0.929 . S
C148 C149 1.362 . S
C148 C151 1.378 . S
C148 H163 0.929 . S
C149 C148 1.362 . S
C149 C150 1.366 . S
C150 C147 1.365 . S
C150 C149 1.366 . S
C150 H164 0.930 . S
C151 C148 1.378 . S
C151 N152 1.315 . S
C151 H154 0.930 . S
N152 Co132 2.194 1_655 S
N152 C147 1.328 . S
N152 C151 1.315 . S
H153 C147 0.929 . S
H154 C151 0.930 . S
H155 C143 0.929 . S
H156 C145 0.929 . S
O157 Co132 2.350 1_655 S
O157 C160 1.241 1_655 S
O158 Co132 2.155 . S
O158 C160 1.240 . S
O159 Co132 2.096 . S
O159 C140 1.247 . S
C160 O157 1.241 1_455 S
C160 O158 1.240 . S
H161 C135 0.931 . S
H162 C144 0.931 . S
H163 C148 0.929 . S
H164 C150 0.930 . S
Co165 N169 2.148 . S
Co165 N175 2.128 1_545 S
Co165 N185 2.194 1_545 S
Co165 O190 2.351 1_545 S
Co165 O191 2.155 . S
Co165 O192 2.096 . S
C166 N169 1.301 . S
C166 N170 1.328 . S
C166 H171 0.930 . S
C167 C168 1.333 . S
C167 N169 1.317 . S
C167 H172 0.930 . S
C168 C167 1.333 . S
C168 N170 1.350 . S
C168 H194 0.931 . S
N169 Co165 2.148 . S
N169 C166 1.301 . S
N169 C167 1.317 . S
N170 C166 1.328 . S
N170 C168 1.350 . S
H171 C166 0.930 . S
H172 C167 0.930 . S
C173 O174 1.224 . S
C173 O192 1.247 . S
O174 C173 1.224 . S
N175 Co165 2.128 1_565 S
N175 C176 1.355 . S
N175 C178 1.311 . S
C176 N175 1.355 . S
C176 C177 1.363 . S
C176 H188 0.929 . S
C177 C176 1.363 . S
C177 N179 1.375 . S
C177 H195 0.931 . S
C178 N175 1.311 . S
C178 N179 1.347 . S
C178 H189 0.929 . S
N179 C177 1.375 . S
N179 C178 1.347 . S
C180 C183 1.365 . S
C180 N185 1.328 . S
C180 H186 0.929 . S
C181 C182 1.362 . S
C181 C184 1.378 . S
C181 H196 0.929 . S
C182 C181 1.362 . S
C182 C183 1.366 . S
C183 C180 1.365 . S
C183 C182 1.366 . S
C183 H197 0.930 . S
C184 C181 1.378 . S
C184 N185 1.315 . S
C184 H187 0.930 . S
N185 Co165 2.194 1_565 S
N185 C180 1.328 . S
N185 C184 1.315 . S
H186 C180 0.929 . S
H187 C184 0.930 . S
H188 C176 0.929 . S
H189 C178 0.929 . S
O190 Co165 2.351 1_565 S
O190 C193 1.245 1_565 S
O191 Co165 2.155 . S
O191 C193 1.240 . S
O192 Co165 2.096 . S
O192 C173 1.247 . S
C193 O190 1.245 1_545 S
C193 O191 1.240 . S
H194 C168 0.931 . S
H195 C177 0.931 . S
H196 C181 0.929 . S
H197 C183 0.930 . S
Co198 N202 2.148 . S
Co198 N208 2.128 . S
Co198 N218 2.194 . S
Co198 O223 2.351 . S
Co198 O224 2.155 . S
Co198 O225 2.096 . S
C199 N202 1.301 . S
C199 N203 1.328 . S
C199 H204 0.930 . S
C200 C201 1.333 . S
C200 N202 1.317 . S
C200 H205 0.930 . S
C201 C200 1.333 . S
C201 N203 1.350 . S
C201 H227 0.931 . S
N202 Co198 2.148 . S
N202 C199 1.301 . S
N202 C200 1.317 . S
N203 C199 1.328 . S
N203 C201 1.350 . S
H204 C199 0.930 . S
H205 C200 0.930 . S
C206 O207 1.224 . S
C206 O225 1.247 . S
O207 C206 1.224 . S
N208 Co198 2.128 . S
N208 C209 1.355 . S
N208 C211 1.311 . S
C209 N208 1.355 . S
C209 C210 1.363 . S
C209 H221 0.929 . S
C210 C209 1.363 . S
C210 N212 1.375 . S
C210 H228 0.931 . S
C211 N208 1.311 . S
C211 N212 1.347 . S
C211 H222 0.929 . S
N212 C210 1.375 . S
N212 C211 1.347 . S
C213 C216 1.365 . S
C213 N218 1.328 . S
C213 H219 0.929 . S
C214 C215 1.362 . S
C214 C217 1.378 . S
C214 H229 0.929 . S
C215 C214 1.362 . S
C215 C216 1.366 . S
C216 C213 1.365 . S
C216 C215 1.366 . S
C216 H230 0.930 . S
C217 C214 1.378 . S
C217 N218 1.315 . S
C217 H220 0.930 . S
N218 Co198 2.194 . S
N218 C213 1.328 . S
N218 C217 1.315 . S
H219 C213 0.929 . S
H220 C217 0.930 . S
H221 C209 0.929 . S
H222 C211 0.929 . S
O223 Co198 2.351 . S
O223 C226 1.244 . S
O224 Co198 2.155 . S
O224 C226 1.240 . S
O225 Co198 2.096 . S
O225 C206 1.247 . S
C226 O223 1.244 . S
C226 O224 1.240 . S
H227 C201 0.931 . S
H228 C210 0.931 . S
H229 C214 0.929 . S
H230 C216 0.930 . S
Co231 N235 2.148 . S
Co231 N241 2.128 . S
Co231 N251 2.194 . S
Co231 O256 2.351 . S
Co231 O257 2.155 . S
Co231 O258 2.096 . S
C232 N235 1.301 . S
C232 N236 1.328 . S
C232 H237 0.930 . S
C233 C234 1.333 . S
C233 N235 1.317 . S
C233 H238 0.930 . S
C234 C233 1.333 . S
C234 N236 1.350 . S
C234 H260 0.931 . S
N235 Co231 2.148 . S
N235 C232 1.301 . S
N235 C233 1.317 . S
N236 C232 1.328 . S
N236 C234 1.350 . S
H237 C232 0.930 . S
H238 C233 0.930 . S
C239 O240 1.224 . S
C239 O258 1.247 . S
O240 C239 1.224 . S
N241 Co231 2.128 . S
N241 C242 1.355 . S
N241 C244 1.311 . S
C242 N241 1.355 . S
C242 C243 1.363 . S
C242 H254 0.929 . S
C243 C242 1.363 . S
C243 N245 1.375 . S
C243 H261 0.931 . S
C244 N241 1.311 . S
C244 N245 1.347 . S
C244 H255 0.929 . S
N245 C243 1.375 . S
N245 C244 1.347 . S
C246 C249 1.365 . S
C246 N251 1.328 . S
C246 H252 0.929 . S
C247 C248 1.362 . S
C247 C250 1.378 . S
C247 H262 0.929 . S
C248 C247 1.362 . S
C248 C249 1.366 . S
C249 C246 1.365 . S
C249 C248 1.366 . S
C249 H263 0.930 . S
C250 C247 1.378 . S
C250 N251 1.315 . S
C250 H253 0.930 . S
N251 Co231 2.194 . S
N251 C246 1.328 . S
N251 C250 1.315 . S
H252 C246 0.929 . S
H253 C250 0.930 . S
H254 C242 0.929 . S
H255 C244 0.929 . S
O256 Co231 2.351 . S
O256 C259 1.244 . S
O257 Co231 2.155 . S
O257 C259 1.240 . S
O258 Co231 2.096 . S
O258 C239 1.247 . S
C259 O256 1.244 . S
C259 O257 1.240 . S
H260 C234 0.931 . S
H261 C243 0.931 . S
H262 C247 0.929 . S
H263 C249 0.930 . S
Co264 N268 2.148 . S
Co264 N274 2.128 1_655 S
Co264 N284 2.194 1_655 S
Co264 O289 2.351 1_655 S
Co264 O290 2.155 . S
Co264 O291 2.096 . S
C265 N268 1.301 . S
C265 N269 1.328 . S
C265 H270 0.930 . S
C266 C267 1.333 . S
C266 N268 1.317 . S
C266 H271 0.930 . S
C267 C266 1.333 . S
C267 N269 1.350 . S
C267 H293 0.931 . S
N268 Co264 2.148 . S
N268 C265 1.301 . S
N268 C266 1.317 . S
N269 C265 1.328 . S
N269 C267 1.350 . S
H270 C265 0.930 . S
H271 C266 0.930 . S
C272 O273 1.224 . S
C272 O291 1.247 . S
O273 C272 1.224 . S
N274 Co264 2.128 1_455 S
N274 C275 1.355 . S
N274 C277 1.311 . S
C275 N274 1.355 . S
C275 C276 1.363 . S
C275 H287 0.929 . S
C276 C275 1.363 . S
C276 N278 1.375 . S
C276 H294 0.931 . S
C277 N274 1.311 . S
C277 N278 1.347 . S
C277 H288 0.929 . S
N278 C276 1.375 . S
N278 C277 1.347 . S
C279 C282 1.365 . S
C279 N284 1.328 . S
C279 H285 0.929 . S
C280 C281 1.362 . S
C280 C283 1.378 . S
C280 H295 0.929 . S
C281 C280 1.362 . S
C281 C282 1.366 . S
C282 C279 1.365 . S
C282 C281 1.366 . S
C282 H296 0.930 . S
C283 C280 1.378 . S
C283 N284 1.315 . S
C283 H286 0.930 . S
N284 Co264 2.194 1_455 S
N284 C279 1.328 . S
N284 C283 1.315 . S
H285 C279 0.929 . S
H286 C283 0.930 . S
H287 C275 0.929 . S
H288 C277 0.929 . S
O289 Co264 2.351 1_455 S
O289 C292 1.245 1_455 S
O290 Co264 2.155 . S
O290 C292 1.240 . S
O291 Co264 2.096 . S
O291 C272 1.247 . S
C292 O289 1.245 1_655 S
C292 O290 1.240 . S
H293 C267 0.931 . S
H294 C276 0.931 . S
H295 C280 0.929 . S
H296 C282 0.930 . S
Co297 N301 2.148 . S
Co297 N307 2.128 1_565 S
Co297 N317 2.194 1_565 S
Co297 O322 2.350 1_565 S
Co297 O323 2.155 . S
Co297 O324 2.096 . S
C298 N301 1.301 . S
C298 N302 1.328 . S
C298 H303 0.930 . S
C299 C300 1.333 . S
C299 N301 1.317 . S
C299 H304 0.930 . S
C300 C299 1.333 . S
C300 N302 1.350 . S
C300 H326 0.931 . S
N301 Co297 2.148 . S
N301 C298 1.301 . S
N301 C299 1.317 . S
N302 C298 1.328 . S
N302 C300 1.350 . S
H303 C298 0.930 . S
H304 C299 0.930 . S
C305 O306 1.224 . S
C305 O324 1.247 . S
O306 C305 1.224 . S
N307 Co297 2.128 1_545 S
N307 C308 1.355 . S
N307 C310 1.311 . S
C308 N307 1.355 . S
C308 C309 1.363 . S
C308 H320 0.929 . S
C309 C308 1.363 . S
C309 N311 1.375 . S
C309 H327 0.931 . S
C310 N307 1.311 . S
C310 N311 1.347 . S
C310 H321 0.929 . S
N311 C309 1.375 . S
N311 C310 1.347 . S
C312 C315 1.365 . S
C312 N317 1.328 . S
C312 H318 0.929 . S
C313 C314 1.362 . S
C313 C316 1.378 . S
C313 H328 0.929 . S
C314 C313 1.362 . S
C314 C315 1.366 . S
C315 C312 1.365 . S
C315 C314 1.366 . S
C315 H329 0.930 . S
C316 C313 1.378 . S
C316 N317 1.315 . S
C316 H319 0.930 . S
N317 Co297 2.194 1_545 S
N317 C312 1.328 . S
N317 C316 1.315 . S
H318 C312 0.929 . S
H319 C316 0.930 . S
H320 C308 0.929 . S
H321 C310 0.929 . S
O322 Co297 2.350 1_545 S
O322 C325 1.241 1_545 S
O323 Co297 2.155 . S
O323 C325 1.240 . S
O324 Co297 2.096 . S
O324 C305 1.247 . S
C325 O322 1.241 1_565 S
C325 O323 1.240 . S
H326 C300 0.931 . S
H327 C309 0.931 . S
H328 C313 0.929 . S
H329 C315 0.930 . S
Co330 N334 2.148 . S
Co330 N340 2.128 . S
Co330 N350 2.194 . S
Co330 O355 2.351 . S
Co330 O356 2.155 . S
Co330 O357 2.096 . S
C331 N334 1.301 . S
C331 N335 1.328 . S
C331 H336 0.930 . S
C332 C333 1.333 . S
C332 N334 1.317 . S
C332 H337 0.930 . S
C333 C332 1.333 . S
C333 N335 1.350 . S
C333 H359 0.931 . S
N334 Co330 2.148 . S
N334 C331 1.301 . S
N334 C332 1.317 . S
N335 C331 1.328 . S
N335 C333 1.350 . S
H336 C331 0.930 . S
H337 C332 0.930 . S
C338 O339 1.224 . S
C338 O357 1.247 . S
O339 C338 1.224 . S
N340 Co330 2.128 . S
N340 C341 1.355 . S
N340 C343 1.311 . S
C341 N340 1.355 . S
C341 C342 1.363 . S
C341 H353 0.929 . S
C342 C341 1.363 . S
C342 N344 1.375 . S
C342 H360 0.931 . S
C343 N340 1.311 . S
C343 N344 1.347 . S
C343 H354 0.929 . S
N344 C342 1.375 . S
N344 C343 1.347 . S
C345 C348 1.365 . S
C345 N350 1.328 . S
C345 H351 0.929 . S
C346 C347 1.362 . S
C346 C349 1.378 . S
C346 H361 0.929 . S
C347 C346 1.362 . S
C347 C348 1.366 . S
C348 C345 1.365 . S
C348 C347 1.366 . S
C348 H362 0.930 . S
C349 C346 1.378 . S
C349 N350 1.315 . S
C349 H352 0.930 . S
N350 Co330 2.194 . S
N350 C345 1.328 . S
N350 C349 1.315 . S
H351 C345 0.929 . S
H352 C349 0.930 . S
H353 C341 0.929 . S
H354 C343 0.929 . S
O355 Co330 2.351 . S
O355 C358 1.244 . S
O356 Co330 2.155 . S
O356 C358 1.240 . S
O357 Co330 2.096 . S
O357 C338 1.247 . S
C358 O355 1.244 . S
C358 O356 1.240 . S
H359 C333 0.931 . S
H360 C342 0.931 . S
H361 C346 0.929 . S
H362 C348 0.930 . S
Co363 N367 2.148 . S
Co363 N373 2.128 . S
Co363 N383 2.194 . S
Co363 O388 2.351 . S
Co363 O389 2.155 . S
Co363 O390 2.096 . S
C364 N367 1.301 . S
C364 N368 1.328 . S
C364 H369 0.930 . S
C365 C366 1.333 . S
C365 N367 1.317 . S
C365 H370 0.930 . S
C366 C365 1.333 . S
C366 N368 1.350 . S
C366 H392 0.931 . S
N367 Co363 2.148 . S
N367 C364 1.301 . S
N367 C365 1.317 . S
N368 C364 1.328 . S
N368 C366 1.350 . S
H369 C364 0.930 . S
H370 C365 0.930 . S
C371 O372 1.224 . S
C371 O390 1.247 . S
O372 C371 1.224 . S
N373 Co363 2.128 . S
N373 C374 1.355 . S
N373 C376 1.311 . S
C374 N373 1.355 . S
C374 C375 1.363 . S
C374 H386 0.929 . S
C375 C374 1.363 . S
C375 N377 1.375 . S
C375 H393 0.931 . S
C376 N373 1.311 . S
C376 N377 1.347 . S
C376 H387 0.929 . S
N377 C375 1.375 . S
N377 C376 1.347 . S
C378 C381 1.365 . S
C378 N383 1.328 . S
C378 H384 0.929 . S
C379 C380 1.362 . S
C379 C382 1.378 . S
C379 H394 0.929 . S
C380 C379 1.362 . S
C380 C381 1.366 . S
C381 C378 1.365 . S
C381 C380 1.366 . S
C381 H395 0.930 . S
C382 C379 1.378 . S
C382 N383 1.315 . S
C382 H385 0.930 . S
N383 Co363 2.194 . S
N383 C378 1.328 . S
N383 C382 1.315 . S
H384 C378 0.929 . S
H385 C382 0.930 . S
H386 C374 0.929 . S
H387 C376 0.929 . S
O388 Co363 2.351 . S
O388 C391 1.244 . S
O389 Co363 2.155 . S
O389 C391 1.240 . S
O390 Co363 2.096 . S
O390 C371 1.247 . S
C391 O388 1.244 . S
C391 O389 1.240 . S
H392 C366 0.931 . S
H393 C375 0.931 . S
H394 C379 0.929 . S
H395 C381 0.930 . S
Co396 N400 2.148 . S
Co396 N406 2.128 1_655 S
Co396 N416 2.194 1_655 S
Co396 O421 2.350 1_655 S
Co396 O422 2.155 . S
Co396 O423 2.096 . S
C397 N400 1.301 . S
C397 N401 1.328 . S
C397 H402 0.930 . S
C398 C399 1.333 . S
C398 N400 1.317 . S
C398 H403 0.930 . S
C399 C398 1.333 . S
C399 N401 1.350 . S
C399 H425 0.931 . S
N400 Co396 2.148 . S
N400 C397 1.301 . S
N400 C398 1.317 . S
N401 C397 1.328 . S
N401 C399 1.350 . S
H402 C397 0.930 . S
H403 C398 0.930 . S
C404 O405 1.224 . S
C404 O423 1.247 . S
O405 C404 1.224 . S
N406 Co396 2.128 1_455 S
N406 C407 1.355 . S
N406 C409 1.311 . S
C407 N406 1.355 . S
C407 C408 1.363 . S
C407 H419 0.929 . S
C408 C407 1.363 . S
C408 N410 1.375 . S
C408 H426 0.931 . S
C409 N406 1.311 . S
C409 N410 1.347 . S
C409 H420 0.929 . S
N410 C408 1.375 . S
N410 C409 1.347 . S
C411 C414 1.365 . S
C411 N416 1.328 . S
C411 H417 0.929 . S
C412 C413 1.362 . S
C412 C415 1.378 . S
C412 H427 0.929 . S
C413 C412 1.362 . S
C413 C414 1.366 . S
C414 C411 1.365 . S
C414 C413 1.366 . S
C414 H428 0.930 . S
C415 C412 1.378 . S
C415 N416 1.315 . S
C415 H418 0.930 . S
N416 Co396 2.194 1_455 S
N416 C411 1.328 . S
N416 C415 1.315 . S
H417 C411 0.929 . S
H418 C415 0.930 . S
H419 C407 0.929 . S
H420 C409 0.929 . S
O421 Co396 2.350 1_455 S
O421 C424 1.241 1_455 S
O422 Co396 2.155 . S
O422 C424 1.240 . S
O423 Co396 2.096 . S
O423 C404 1.247 . S
C424 O421 1.241 1_655 S
C424 O422 1.240 . S
H425 C399 0.931 . S
H426 C408 0.931 . S
H427 C412 0.929 . S
H428 C414 0.930 . S
Co429 N433 2.148 . S
Co429 N439 2.128 1_565 S
Co429 N449 2.194 1_565 S
Co429 O454 2.351 1_565 S
Co429 O455 2.155 . S
Co429 O456 2.096 . S
C430 N433 1.301 . S
C430 N434 1.328 . S
C430 H435 0.930 . S
C431 C432 1.333 . S
C431 N433 1.317 . S
C431 H436 0.930 . S
C432 C431 1.333 . S
C432 N434 1.350 . S
C432 H458 0.931 . S
N433 Co429 2.148 . S
N433 C430 1.301 . S
N433 C431 1.317 . S
N434 C430 1.328 . S
N434 C432 1.350 . S
H435 C430 0.930 . S
H436 C431 0.930 . S
C437 O438 1.224 . S
C437 O456 1.247 . S
O438 C437 1.224 . S
N439 Co429 2.128 1_545 S
N439 C440 1.355 . S
N439 C442 1.311 . S
C440 N439 1.355 . S
C440 C441 1.363 . S
C440 H452 0.929 . S
C441 C440 1.363 . S
C441 N443 1.375 . S
C441 H459 0.931 . S
C442 N439 1.311 . S
C442 N443 1.347 . S
C442 H453 0.929 . S
N443 C441 1.375 . S
N443 C442 1.347 . S
C444 C447 1.365 . S
C444 N449 1.328 . S
C444 H450 0.929 . S
C445 C446 1.362 . S
C445 C448 1.378 . S
C445 H460 0.929 . S
C446 C445 1.362 . S
C446 C447 1.366 . S
C447 C444 1.365 . S
C447 C446 1.366 . S
C447 H461 0.930 . S
C448 C445 1.378 . S
C448 N449 1.315 . S
C448 H451 0.930 . S
N449 Co429 2.194 1_545 S
N449 C444 1.328 . S
N449 C448 1.315 . S
H450 C444 0.929 . S
H451 C448 0.930 . S
H452 C440 0.929 . S
H453 C442 0.929 . S
O454 Co429 2.351 1_545 S
O454 C457 1.245 1_545 S
O455 Co429 2.155 . S
O455 C457 1.240 . S
O456 Co429 2.096 . S
O456 C437 1.247 . S
C457 O454 1.245 1_565 S
C457 O455 1.240 . S
H458 C432 0.931 . S
H459 C441 0.931 . S
H460 C445 0.929 . S
H461 C447 0.930 . S
Co462 N466 2.148 . S
Co462 N472 2.128 . S
Co462 N482 2.194 . S
Co462 O487 2.351 . S
Co462 O488 2.155 . S
Co462 O489 2.096 . S
C463 N466 1.301 . S
C463 N467 1.328 . S
C463 H468 0.930 . S
C464 C465 1.333 . S
C464 N466 1.317 . S
C464 H469 0.930 . S
C465 C464 1.333 . S
C465 N467 1.350 . S
C465 H491 0.931 . S
N466 Co462 2.148 . S
N466 C463 1.301 . S
N466 C464 1.317 . S
N467 C463 1.328 . S
N467 C465 1.350 . S
H468 C463 0.930 . S
H469 C464 0.930 . S
C470 O471 1.224 . S
C470 O489 1.247 . S
O471 C470 1.224 . S
N472 Co462 2.128 . S
N472 C473 1.355 . S
N472 C475 1.311 . S
C473 N472 1.355 . S
C473 C474 1.363 . S
C473 H485 0.929 . S
C474 C473 1.363 . S
C474 N476 1.375 . S
C474 H492 0.931 . S
C475 N472 1.311 . S
C475 N476 1.347 . S
C475 H486 0.929 . S
N476 C474 1.375 . S
N476 C475 1.347 . S
C477 C480 1.365 . S
C477 N482 1.328 . S
C477 H483 0.929 . S
C478 C479 1.362 . S
C478 C481 1.378 . S
C478 H493 0.929 . S
C479 C478 1.362 . S
C479 C480 1.366 . S
C480 C477 1.365 . S
C480 C479 1.366 . S
C480 H494 0.930 . S
C481 C478 1.378 . S
C481 N482 1.315 . S
C481 H484 0.930 . S
N482 Co462 2.194 . S
N482 C477 1.328 . S
N482 C481 1.315 . S
H483 C477 0.929 . S
H484 C481 0.930 . S
H485 C473 0.929 . S
H486 C475 0.929 . S
O487 Co462 2.351 . S
O487 C490 1.244 . S
O488 Co462 2.155 . S
O488 C490 1.240 . S
O489 Co462 2.096 . S
O489 C470 1.247 . S
C490 O487 1.244 . S
C490 O488 1.240 . S
H491 C465 0.931 . S
H492 C474 0.931 . S
H493 C478 0.929 . S
H494 C480 0.930 . S
Co495 N499 2.148 . S
Co495 N505 2.128 . S
Co495 N515 2.194 . S
Co495 O520 2.351 . S
Co495 O521 2.155 . S
Co495 O522 2.096 . S
C496 N499 1.301 . S
C496 N500 1.328 . S
C496 H501 0.930 . S
C497 C498 1.333 . S
C497 N499 1.317 . S
C497 H502 0.930 . S
C498 C497 1.333 . S
C498 N500 1.350 . S
C498 H524 0.931 . S
N499 Co495 2.148 . S
N499 C496 1.301 . S
N499 C497 1.317 . S
N500 C496 1.328 . S
N500 C498 1.350 . S
H501 C496 0.930 . S
H502 C497 0.930 . S
C503 O504 1.224 . S
C503 O522 1.247 . S
O504 C503 1.224 . S
N505 Co495 2.128 . S
N505 C506 1.355 . S
N505 C508 1.311 . S
C506 N505 1.355 . S
C506 C507 1.363 . S
C506 H518 0.929 . S
C507 C506 1.363 . S
C507 N509 1.375 . S
C507 H525 0.931 . S
C508 N505 1.311 . S
C508 N509 1.347 . S
C508 H519 0.929 . S
N509 C507 1.375 . S
N509 C508 1.347 . S
C510 C513 1.365 . S
C510 N515 1.328 . S
C510 H516 0.929 . S
C511 C512 1.362 . S
C511 C514 1.378 . S
C511 H526 0.929 . S
C512 C511 1.362 . S
C512 C513 1.366 . S
C513 C510 1.365 . S
C513 C512 1.366 . S
C513 H527 0.930 . S
C514 C511 1.378 . S
C514 N515 1.315 . S
C514 H517 0.930 . S
N515 Co495 2.194 . S
N515 C510 1.328 . S
N515 C514 1.315 . S
H516 C510 0.929 . S
H517 C514 0.930 . S
H518 C506 0.929 . S
H519 C508 0.929 . S
O520 Co495 2.351 . S
O520 C523 1.244 . S
O521 Co495 2.155 . S
O521 C523 1.240 . S
O522 Co495 2.096 . S
O522 C503 1.247 . S
C523 O520 1.244 . S
C523 O521 1.240 . S
H524 C498 0.931 . S
H525 C507 0.931 . S
H526 C511 0.929 . S
H527 C513 0.930 . S
H528 C534 0.930 . S
H529 C538 0.930 . S
H530 C543 0.929 . S
H531 C541 0.929 . S
H532 C536 0.929 . S
H533 C542 0.929 1_655 S
C534 H528 0.930 . S
C534 C535 1.367 1_655 S
C534 C542 1.378 1_655 S
C535 C534 1.367 1_455 S
C535 C543 1.433 . S
C536 H532 0.929 . S
C536 C538 1.378 . S
C536 C540 1.350 . S
C537 C540 1.463 . S
C537 C542 1.350 . S
C537 N545 1.427 . S
C538 H529 0.930 . S
C538 C536 1.378 . S
C538 C539 1.367 . S
C539 C538 1.367 . S
C539 C541 1.433 . S
C540 C536 1.350 . S
C540 C537 1.463 . S
C540 N544 1.427 . S
C541 H531 0.929 . S
C541 C539 1.433 . S
C541 N544 1.384 . S
C542 H533 0.929 1_455 S
C542 C534 1.378 1_455 S
C542 C537 1.350 . S
C543 H530 0.929 . S
C543 C535 1.433 . S
C543 N545 1.384 . S
N544 C540 1.427 . S
N544 C541 1.384 . S
N545 C537 1.427 . S
N545 C543 1.384 . S
H546 C552 0.930 . S
H547 C556 0.930 . S
H548 C561 0.929 . S
H549 C559 0.929 . S
H550 C554 0.929 . S
H551 C560 0.929 . S
C552 H546 0.930 . S
C552 C553 1.367 . S
C552 C560 1.378 . S
C553 C552 1.367 . S
C553 C561 1.433 1_545 S
C554 H550 0.929 . S
C554 C556 1.378 . S
C554 C558 1.350 . S
C555 C558 1.463 . S
C555 C560 1.350 . S
C555 N563 1.427 . S
C556 H547 0.930 . S
C556 C554 1.378 . S
C556 C557 1.367 . S
C557 C556 1.367 . S
C557 C559 1.433 . S
C558 C554 1.350 . S
C558 C555 1.463 . S
C558 N562 1.427 . S
C559 H549 0.929 . S
C559 C557 1.433 . S
C559 N562 1.384 . S
C560 H551 0.929 . S
C560 C552 1.378 . S
C560 C555 1.350 . S
C561 H548 0.929 . S
C561 C553 1.433 1_565 S
C561 N563 1.384 1_565 S
N562 C558 1.427 . S
N562 C559 1.384 . S
N563 C555 1.427 . S
N563 C561 1.384 1_545 S
H564 C570 0.930 . S
H565 C574 0.930 . S
H566 C579 0.929 . S
H567 C577 0.929 . S
H568 C572 0.929 . S
H569 C578 0.929 . S
C570 H564 0.930 . S
C570 C571 1.367 . S
C570 C578 1.378 . S
C571 C570 1.367 . S
C571 C579 1.433 . S
C572 H568 0.929 . S
C572 C574 1.378 . S
C572 C576 1.350 . S
C573 C576 1.463 . S
C573 C578 1.350 . S
C573 N581 1.427 . S
C574 H565 0.930 . S
C574 C572 1.378 . S
C574 C575 1.367 . S
C575 C574 1.367 . S
C575 C577 1.433 . S
C576 C572 1.350 . S
C576 C573 1.463 . S
C576 N580 1.427 . S
C577 H567 0.929 . S
C577 C575 1.433 . S
C577 N580 1.384 . S
C578 H569 0.929 . S
C578 C570 1.378 . S
C578 C573 1.350 . S
C579 H566 0.929 . S
C579 C571 1.433 . S
C579 N581 1.384 . S
N580 C576 1.427 . S
N580 C577 1.384 . S
N581 C573 1.427 . S
N581 C579 1.384 . S
H582 C588 0.930 . S
H583 C592 0.930 . S
H584 C597 0.929 . S
H585 C595 0.929 . S
H586 C590 0.929 . S
H587 C596 0.929 . S
C588 H582 0.930 . S
C588 C589 1.367 . S
C588 C596 1.378 . S
C589 C588 1.367 . S
C589 C597 1.433 . S
C590 H586 0.929 . S
C590 C592 1.378 . S
C590 C594 1.350 . S
C591 C594 1.463 . S
C591 C596 1.350 . S
C591 N599 1.427 . S
C592 H583 0.930 . S
C592 C590 1.378 . S
C592 C593 1.367 . S
C593 C592 1.367 . S
C593 C595 1.433 . S
C594 C590 1.350 . S
C594 C591 1.463 . S
C594 N598 1.427 . S
C595 H585 0.929 . S
C595 C593 1.433 . S
C595 N598 1.384 . S
C596 H587 0.929 . S
C596 C588 1.378 . S
C596 C591 1.350 . S
C597 H584 0.929 . S
C597 C589 1.433 . S
C597 N599 1.384 . S
N598 C594 1.427 . S
N598 C595 1.384 . S
N599 C591 1.427 . S
N599 C597 1.384 . S
H600 C606 0.930 . S
H601 C610 0.930 . S
H602 C615 0.929 . S
H603 C613 0.929 . S
H604 C608 0.929 1_545 S
H605 C614 0.929 . S
C606 H600 0.930 . S
C606 C607 1.367 . S
C606 C614 1.378 . S
C607 C606 1.367 . S
C607 C615 1.433 . S
C608 H604 0.929 1_565 S
C608 C610 1.378 1_565 S
C608 C612 1.350 . S
C609 C612 1.463 . S
C609 C614 1.350 . S
C609 N617 1.427 . S
C610 H601 0.930 . S
C610 C608 1.378 1_545 S
C610 C611 1.367 1_545 S
C611 C610 1.367 1_565 S
C611 C613 1.433 . S
C612 C608 1.350 . S
C612 C609 1.463 . S
C612 N616 1.427 . S
C613 H603 0.929 . S
C613 C611 1.433 . S
C613 N616 1.384 . S
C614 H605 0.929 . S
C614 C606 1.378 . S
C614 C609 1.350 . S
C615 H602 0.929 . S
C615 C607 1.433 . S
C615 N617 1.384 . S
N616 C612 1.427 . S
N616 C613 1.384 . S
N617 C609 1.427 . S
N617 C615 1.384 . S
H618 C624 0.930 1_545 S
H619 C628 0.930 . S
H620 C633 0.929 . S
H621 C631 0.929 . S
H622 C626 0.929 . S
H623 C632 0.929 . S
C624 H618 0.930 1_565 S
C624 C625 1.367 . S
C624 C632 1.378 . S
C625 C624 1.367 . S
C625 C633 1.433 . S
C626 H622 0.929 . S
C626 C628 1.378 . S
C626 C630 1.350 . S
C627 C630 1.463 . S
C627 C632 1.350 . S
C627 N635 1.427 . S
C628 H619 0.930 . S
C628 C626 1.378 . S
C628 C629 1.367 . S
C629 C628 1.367 . S
C629 C631 1.433 . S
C630 C626 1.350 . S
C630 C627 1.463 . S
C630 N634 1.427 . S
C631 H621 0.929 . S
C631 C629 1.433 . S
C631 N634 1.384 . S
C632 H623 0.929 . S
C632 C624 1.378 . S
C632 C627 1.350 . S
C633 H620 0.929 . S
C633 C625 1.433 . S
C633 N635 1.384 . S
N634 C630 1.427 . S
N634 C631 1.384 . S
N635 C627 1.427 . S
N635 C633 1.384 . S
H636 C642 0.930 . S
H637 C646 0.930 . S
H638 C651 0.929 . S
H639 C649 0.929 . S
H640 C644 0.929 . S
H641 C650 0.929 . S
C642 H636 0.930 . S
C642 C643 1.367 . S
C642 C650 1.378 . S
C643 C642 1.367 . S
C643 C651 1.433 . S
C644 H640 0.929 . S
C644 C646 1.378 . S
C644 C648 1.350 . S
C645 C648 1.463 . S
C645 C650 1.350 . S
C645 N653 1.427 . S
C646 H637 0.930 . S
C646 C644 1.378 . S
C646 C647 1.367 . S
C647 C646 1.367 . S
C647 C649 1.433 . S
C648 C644 1.350 . S
C648 C645 1.463 . S
C648 N652 1.427 . S
C649 H639 0.929 . S
C649 C647 1.433 . S
C649 N652 1.384 . S
C650 H641 0.929 . S
C650 C642 1.378 . S
C650 C645 1.350 . S
C651 H638 0.929 . S
C651 C643 1.433 . S
C651 N653 1.384 . S
N652 C648 1.427 . S
N652 C649 1.384 . S
N653 C645 1.427 . S
N653 C651 1.384 . S
H654 C660 0.930 . S
H655 C664 0.930 . S
H656 C669 0.929 . S
H657 C667 0.929 . S
H658 C662 0.929 . S
H659 C668 0.929 . S
C660 H654 0.930 . S
C660 C661 1.367 . S
C660 C668 1.378 . S
C661 C660 1.367 . S
C661 C669 1.433 . S
C662 H658 0.929 . S
C662 C664 1.378 . S
C662 C666 1.350 . S
C663 C666 1.463 . S
C663 C668 1.350 . S
C663 N671 1.427 . S
C664 H655 0.930 . S
C664 C662 1.378 . S
C664 C665 1.367 . S
C665 C664 1.367 . S
C665 C667 1.433 1_655 S
C666 C662 1.350 . S
C666 C663 1.463 . S
C666 N670 1.427 . S
C667 H657 0.929 . S
C667 C665 1.433 1_455 S
C667 N670 1.384 1_455 S
C668 H659 0.929 . S
C668 C660 1.378 . S
C668 C663 1.350 . S
C669 H656 0.929 . S
C669 C661 1.433 . S
C669 N671 1.384 . S
N670 C666 1.427 . S
N670 C667 1.384 1_655 S
N671 C663 1.427 . S
N671 C669 1.384 . S
H672 C678 0.930 . S
H673 C682 0.930 . S
H674 C687 0.929 . S
H675 C685 0.929 . S
H676 C680 0.919 1_565 S
H677 C686 0.919 1_545 S
C678 H672 0.930 . S
C678 C679 1.367 . S
C678 C686 1.378 1_455 S
C679 C678 1.367 . S
C679 C687 1.433 . S
C680 H676 0.919 1_545 S
C680 C682 1.378 1_455 S
C680 C684 1.350 1_455 S
C681 C684 1.463 1_465 S
C681 C686 1.350 1_455 S
C681 N689 1.427 . S
C682 H673 0.930 . S
C682 C680 1.378 1_655 S
C682 C683 1.367 . S
C683 C682 1.367 . S
C683 C685 1.433 . S
C684 C680 1.350 1_655 S
C684 C681 1.463 1_645 S
C684 N688 1.427 . S
C685 H675 0.929 . S
C685 C683 1.433 . S
C685 N688 1.384 . S
C686 H677 0.919 1_565 S
C686 C678 1.378 1_655 S
C686 C681 1.350 1_655 S
C687 H674 0.929 . S
C687 C679 1.433 . S
C687 N689 1.384 . S
N688 C684 1.427 . S
N688 C685 1.384 . S
N689 C681 1.427 . S
N689 C687 1.384 . S
H690 C696 0.930 . S
H691 C700 0.930 . S
H692 C705 0.929 . S
H693 C703 0.929 . S
H694 C698 0.929 . S
H695 C704 0.929 . S
C696 H690 0.930 . S
C696 C697 1.367 . S
C696 C704 1.378 1_545 S
C697 C696 1.367 . S
C697 C705 1.433 . S
C698 H694 0.929 . S
C698 C700 1.378 1_545 S
C698 C702 1.350 1_545 S
C699 C702 1.463 1_545 S
C699 C704 1.350 1_545 S
C699 N707 1.427 . S
C700 H691 0.930 . S
C700 C698 1.378 1_565 S
C700 C701 1.367 . S
C701 C700 1.367 . S
C701 C703 1.433 . S
C702 C698 1.350 1_565 S
C702 C699 1.463 1_565 S
C702 N706 1.427 . S
C703 H693 0.929 . S
C703 C701 1.433 . S
C703 N706 1.384 . S
C704 H695 0.929 . S
C704 C696 1.378 1_565 S
C704 C699 1.350 1_565 S
C705 H692 0.929 . S
C705 C697 1.433 . S
C705 N707 1.384 . S
N706 C702 1.427 . S
N706 C703 1.384 . S
N707 C699 1.427 . S
N707 C705 1.384 . S
H708 C714 0.930 . S
H709 C718 0.930 . S
H710 C723 0.929 . S
H711 C721 0.929 . S
H712 C716 0.929 . S
H713 C722 0.929 . S
C714 H708 0.930 . S
C714 C715 1.367 . S
C714 C722 1.378 . S
C715 C714 1.367 . S
C715 C723 1.433 . S
C716 H712 0.929 . S
C716 C718 1.378 . S
C716 C720 1.350 . S
C717 C720 1.463 . S
C717 C722 1.350 . S
C717 N725 1.427 . S
C718 H709 0.930 . S
C718 C716 1.378 . S
C718 C719 1.367 . S
C719 C718 1.367 . S
C719 C721 1.433 . S
C720 C716 1.350 . S
C720 C717 1.463 . S
C720 N724 1.427 . S
C721 H711 0.929 . S
C721 C719 1.433 . S
C721 N724 1.384 . S
C722 H713 0.929 . S
C722 C714 1.378 . S
C722 C717 1.350 . S
C723 H710 0.929 . S
C723 C715 1.433 . S
C723 N725 1.384 . S
N724 C720 1.427 . S
N724 C721 1.384 . S
N725 C717 1.427 . S
N725 C723 1.384 . S
H726 C732 0.930 . S
H727 C736 0.930 . S
H728 C741 0.929 . S
H729 C739 0.929 . S
H730 C734 0.929 . S
H731 C740 0.929 . S
C732 H726 0.930 . S
C732 C733 1.367 . S
C732 C740 1.378 . S
C733 C732 1.367 . S
C733 C741 1.433 . S
C734 H730 0.929 . S
C734 C736 1.378 . S
C734 C738 1.350 . S
C735 C738 1.463 1_655 S
C735 C740 1.350 . S
C735 N743 1.427 . S
C736 H727 0.930 . S
C736 C734 1.378 . S
C736 C737 1.367 . S
C737 C736 1.367 . S
C737 C739 1.433 . S
C738 C734 1.350 . S
C738 C735 1.463 1_455 S
C738 N742 1.427 . S
C739 H729 0.929 . S
C739 C737 1.433 . S
C739 N742 1.384 . S
C740 H731 0.929 . S
C740 C732 1.378 . S
C740 C735 1.350 . S
C741 H728 0.929 . S
C741 C733 1.433 . S
C741 N743 1.384 . S
N742 C738 1.427 . S
N742 C739 1.384 . S
N743 C735 1.427 . S
N743 C741 1.384 . S
H744 C750 0.930 . S
H745 C754 0.930 . S
H746 C759 0.929 . S
H747 C757 0.929 . S
H748 C752 0.929 . S
H749 C758 0.929 . S
C750 H744 0.930 . S
C750 C751 1.367 . S
C750 C758 1.378 . S
C751 C750 1.367 . S
C751 C759 1.433 . S
C752 H748 0.929 . S
C752 C754 1.378 . S
C752 C756 1.350 . S
C753 C756 1.463 1_656 S
C753 C758 1.350 . S
C753 N761 1.427 . S
C754 H745 0.930 . S
C754 C752 1.378 . S
C754 C755 1.367 . S
C755 C754 1.367 . S
C755 C757 1.433 . S
C756 C752 1.350 . S
C756 C753 1.463 1_454 S
C756 N760 1.427 . S
C757 H747 0.929 . S
C757 C755 1.433 . S
C757 N760 1.384 . S
C758 H749 0.929 . S
C758 C750 1.378 . S
C758 C753 1.350 . S
C759 H746 0.929 . S
C759 C751 1.433 . S
C759 N761 1.384 . S
N760 C756 1.427 . S
N760 C757 1.384 . S
N761 C753 1.427 . S
N761 C759 1.384 . S
H762 C768 0.930 . S
H763 C772 0.930 . S
H764 C777 0.929 . S
H765 C775 0.929 . S
H766 C770 0.926 . S
H767 C776 0.926 . S
C768 H762 0.930 . S
C768 C769 1.367 . S
C768 C776 1.380 1_556 S
C769 C768 1.367 . S
C769 C777 1.433 . S
C770 H766 0.926 . S
C770 C772 1.380 1_556 S
C770 C774 1.351 1_556 S
C771 C774 1.463 1_466 S
C771 C776 1.351 1_556 S
C771 N779 1.427 1_565 S
C772 H763 0.930 . S
C772 C770 1.380 1_554 S
C772 C773 1.367 . S
C773 C772 1.367 . S
C773 C775 1.433 . S
C774 C770 1.351 1_554 S
C774 C771 1.463 1_644 S
C774 N778 1.427 1_545 S
C775 H765 0.929 . S
C775 C773 1.433 . S
C775 N778 1.384 1_545 S
C776 H767 0.926 . S
C776 C768 1.380 1_554 S
C776 C771 1.351 1_554 S
C777 H764 0.929 . S
C777 C769 1.433 . S
C777 N779 1.384 1_565 S
N778 C774 1.427 1_565 S
N778 C775 1.384 1_565 S
N779 C771 1.427 1_545 S
N779 C777 1.384 1_545 S
H780 C786 0.930 . S
H781 C790 0.930 . S
H782 C795 0.929 . S
H783 C793 0.929 . S
H784 C788 0.929 . S
H785 C794 0.929 . S
C786 H780 0.930 . S
C786 C787 1.367 . S
C786 C794 1.378 . S
C787 C786 1.367 . S
C787 C795 1.433 . S
C788 H784 0.929 . S
C788 C790 1.378 . S
C788 C792 1.350 . S
C789 C792 1.463 1_546 S
C789 C794 1.350 . S
C789 N797 1.427 1_545 S
C790 H781 0.930 . S
C790 C788 1.378 . S
C790 C791 1.367 . S
C791 C790 1.367 . S
C791 C793 1.433 . S
C792 C788 1.350 . S
C792 C789 1.463 1_564 S
C792 N796 1.427 1_565 S
C793 H783 0.929 . S
C793 C791 1.433 . S
C793 N796 1.384 1_565 S
C794 H785 0.929 . S
C794 C786 1.378 . S
C794 C789 1.350 . S
C795 H782 0.929 . S
C795 C787 1.433 . S
C795 N797 1.384 1_545 S
N796 C792 1.427 1_545 S
N796 C793 1.384 1_545 S
N797 C789 1.427 1_565 S
N797 C795 1.384 1_565 S
H798 C804 0.930 . S
H799 C808 0.930 . S
H800 C813 0.929 . S
H801 C811 0.929 . S
H802 C806 0.965 . S
H803 C812 0.965 . S
C804 H798 0.930 . S
C804 C805 1.367 . S
C804 C812 1.354 1_556 S
C805 C804 1.367 . S
C805 C813 1.433 . S
C806 H802 0.965 . S
C806 C808 1.354 1_556 S
C806 C810 1.337 1_556 S
C807 C810 1.463 1_556 S
C807 C812 1.337 1_556 S
C807 N815 1.427 . S
C808 H799 0.930 . S
C808 C806 1.354 1_554 S
C808 C809 1.367 . S
C809 C808 1.367 . S
C809 C811 1.433 . S
C810 C806 1.337 1_554 S
C810 C807 1.463 1_554 S
C810 N814 1.427 . S
C811 H801 0.929 . S
C811 C809 1.433 . S
C811 N814 1.384 . S
C812 H803 0.965 . S
C812 C804 1.354 1_554 S
C812 C807 1.337 1_554 S
C813 H800 0.929 . S
C813 C805 1.433 . S
C813 N815 1.384 . S
N814 C810 1.427 . S
N814 C811 1.384 . S
N815 C807 1.427 . S
N815 C813 1.384 . S
H816 C822 0.930 . S
H817 C826 0.930 . S
H818 C831 0.929 . S
H819 C829 0.929 . S
H820 C824 0.929 . S
H821 C830 0.929 . S
C822 H816 0.930 . S
C822 C823 1.367 . S
C822 C830 1.378 . S
C823 C822 1.367 . S
C823 C831 1.433 . S
C824 H820 0.929 . S
C824 C826 1.378 . S
C824 C828 1.350 . S
C825 C828 1.463 . S
C825 C830 1.350 . S
C825 N833 1.427 . S
C826 H817 0.930 . S
C826 C824 1.378 . S
C826 C827 1.367 . S
C827 C826 1.367 . S
C827 C829 1.433 . S
C828 C824 1.350 . S
C828 C825 1.463 . S
C828 N832 1.427 . S
C829 H819 0.929 . S
C829 C827 1.433 . S
C829 N832 1.384 . S
C830 H821 0.929 . S
C830 C822 1.378 . S
C830 C825 1.350 . S
C831 H818 0.929 . S
C831 C823 1.433 . S
C831 N833 1.384 . S
N832 C828 1.427 . S
N832 C829 1.384 . S
N833 C825 1.427 . S
N833 C831 1.384 . S
H834 C840 0.930 . S
H835 C844 0.930 . S
H836 C849 0.929 . S
H837 C847 0.929 . S
H838 C842 0.929 . S
H839 C848 0.929 . S
C840 H834 0.930 . S
C840 C841 1.367 . S
C840 C848 1.378 . S
C841 C840 1.367 . S
C841 C849 1.433 . S
C842 H838 0.929 . S
C842 C844 1.378 . S
C842 C846 1.350 . S
C843 C846 1.463 . S
C843 C848 1.350 . S
C843 N851 1.427 . S
C844 H835 0.930 . S
C844 C842 1.378 . S
C844 C845 1.367 . S
C845 C844 1.367 . S
C845 C847 1.433 . S
C846 C842 1.350 . S
C846 C843 1.463 . S
C846 N850 1.427 . S
C847 H837 0.929 . S
C847 C845 1.433 . S
C847 N850 1.384 . S
C848 H839 0.929 . S
C848 C840 1.378 . S
C848 C843 1.350 . S
C849 H836 0.929 . S
C849 C841 1.433 . S
C849 N851 1.384 . S
N850 C846 1.427 . S
N850 C847 1.384 . S
N851 C843 1.427 . S
N851 C849 1.384 . S
H852 C858 0.930 . S
H853 C862 0.930 . S
H854 C867 0.929 . S
H855 C865 0.929 . S
H856 C860 0.929 . S
H857 C866 0.929 . S
C858 H852 0.930 . S
C858 C859 1.367 . S
C858 C866 1.378 . S
C859 C858 1.367 . S
C859 C867 1.433 . S
C860 H856 0.929 . S
C860 C862 1.378 . S
C860 C864 1.350 . S
C861 C864 1.463 . S
C861 C866 1.350 . S
C861 N869 1.427 . S
C862 H853 0.930 . S
C862 C860 1.378 . S
C862 C863 1.367 . S
C863 C862 1.367 . S
C863 C865 1.433 . S
C864 C860 1.350 . S
C864 C861 1.463 . S
C864 N868 1.427 . S
C865 H855 0.929 . S
C865 C863 1.433 . S
C865 N868 1.384 . S
C866 H857 0.929 . S
C866 C858 1.378 . S
C866 C861 1.350 . S
C867 H854 0.929 . S
C867 C859 1.433 . S
C867 N869 1.384 . S
N868 C864 1.427 . S
N868 C865 1.384 . S
N869 C861 1.427 . S
N869 C867 1.384 . S
H870 C876 0.930 . S
H871 C880 0.930 . S
H872 C885 0.929 . S
H873 C883 0.929 . S
H874 C878 0.929 . S
H875 C884 0.929 . S
C876 H870 0.930 . S
C876 C877 1.367 . S
C876 C884 1.378 . S
C877 C876 1.367 . S
C877 C885 1.433 . S
C878 H874 0.929 . S
C878 C880 1.378 . S
C878 C882 1.350 . S
C879 C882 1.463 . S
C879 C884 1.350 . S
C879 N887 1.427 . S
C880 H871 0.930 . S
C880 C878 1.378 . S
C880 C881 1.367 . S
C881 C880 1.367 . S
C881 C883 1.433 . S
C882 C878 1.350 . S
C882 C879 1.463 . S
C882 N886 1.427 . S
C883 H873 0.929 . S
C883 C881 1.433 . S
C883 N886 1.384 . S
C884 H875 0.929 . S
C884 C876 1.378 . S
C884 C879 1.350 . S
C885 H872 0.929 . S
C885 C877 1.433 . S
C885 N887 1.384 . S
N886 C882 1.427 . S
N886 C883 1.384 . S
N887 C879 1.427 . S
N887 C885 1.384 . S
H888 C894 0.930 . S
H889 C898 0.930 . S
H890 C903 0.929 . S
H891 C901 0.929 . S
H892 C896 0.929 . S
H893 C902 0.929 . S
C894 H888 0.930 . S
C894 C895 1.367 . S
C894 C902 1.378 . S
C895 C894 1.367 . S
C895 C903 1.433 . S
C896 H892 0.929 . S
C896 C898 1.378 . S
C896 C900 1.350 . S
C897 C900 1.463 . S
C897 C902 1.350 . S
C897 N905 1.427 . S
C898 H889 0.930 . S
C898 C896 1.378 . S
C898 C899 1.367 . S
C899 C898 1.367 . S
C899 C901 1.433 . S
C900 C896 1.350 . S
C900 C897 1.463 . S
C900 N904 1.427 . S
C901 H891 0.929 . S
C901 C899 1.433 . S
C901 N904 1.384 . S
C902 H893 0.929 . S
C902 C894 1.378 . S
C902 C897 1.350 . S
C903 H890 0.929 . S
C903 C895 1.433 . S
C903 N905 1.384 . S
N904 C900 1.427 . S
N904 C901 1.384 . S
N905 C897 1.427 . S
N905 C903 1.384 . S
H906 C912 0.930 . S
H907 C916 0.930 . S
H908 C921 0.929 . S
H909 C919 0.929 . S
H910 C914 0.929 . S
H911 C920 0.929 . S
C912 H906 0.930 . S
C912 C913 1.367 . S
C912 C920 1.378 . S
C913 C912 1.367 . S
C913 C921 1.433 . S
C914 H910 0.929 . S
C914 C916 1.378 . S
C914 C918 1.350 . S
C915 C918 1.463 . S
C915 C920 1.350 . S
C915 N923 1.427 . S
C916 H907 0.930 . S
C916 C914 1.378 . S
C916 C917 1.367 . S
C917 C916 1.367 . S
C917 C919 1.433 . S
C918 C914 1.350 . S
C918 C915 1.463 . S
C918 N922 1.427 . S
C919 H909 0.929 . S
C919 C917 1.433 . S
C919 N922 1.384 . S
C920 H911 0.929 . S
C920 C912 1.378 . S
C920 C915 1.350 . S
C921 H908 0.929 . S
C921 C913 1.433 . S
C921 N923 1.384 . S
N922 C918 1.427 . S
N922 C919 1.384 . S
N923 C915 1.427 . S
N923 C921 1.384 . S
H924 C930 0.930 . S
H925 C934 0.930 . S
H926 C939 0.929 . S
H927 C937 0.929 . S
H928 C932 0.929 . S
H929 C938 0.929 . S
C930 H924 0.930 . S
C930 C931 1.367 . S
C930 C938 1.378 . S
C931 C930 1.367 . S
C931 C939 1.433 . S
C932 H928 0.929 . S
C932 C934 1.378 . S
C932 C936 1.350 . S
C933 C936 1.463 . S
C933 C938 1.350 . S
C933 N941 1.427 . S
C934 H925 0.930 . S
C934 C932 1.378 . S
C934 C935 1.367 . S
C935 C934 1.367 . S
C935 C937 1.433 . S
C936 C932 1.350 . S
C936 C933 1.463 . S
C936 N940 1.427 . S
C937 H927 0.929 . S
C937 C935 1.433 . S
C937 N940 1.384 . S
C938 H929 0.929 . S
C938 C930 1.378 . S
C938 C933 1.350 . S
C939 H926 0.929 . S
C939 C931 1.433 . S
C939 N941 1.384 . S
N940 C936 1.427 . S
N940 C937 1.384 . S
N941 C933 1.427 . S
N941 C939 1.384 . S
H942 C948 0.930 . S
H943 C952 0.930 . S
H944 C957 0.929 . S
H945 C955 0.929 . S
H946 C950 0.929 . S
H947 C956 0.929 . S
C948 H942 0.930 . S
C948 C949 1.367 . S
C948 C956 1.378 . S
C949 C948 1.367 . S
C949 C957 1.433 . S
C950 H946 0.929 . S
C950 C952 1.378 . S
C950 C954 1.350 . S
C951 C954 1.463 . S
C951 C956 1.350 . S
C951 N959 1.427 . S
C952 H943 0.930 . S
C952 C950 1.378 . S
C952 C953 1.367 . S
C953 C952 1.367 . S
C953 C955 1.433 . S
C954 C950 1.350 . S
C954 C951 1.463 . S
C954 N958 1.427 . S
C955 H945 0.929 . S
C955 C953 1.433 . S
C955 N958 1.384 . S
C956 H947 0.929 . S
C956 C948 1.378 . S
C956 C951 1.350 . S
C957 H944 0.929 . S
C957 C949 1.433 . S
C957 N959 1.384 . S
N958 C954 1.427 . S
N958 C955 1.384 . S
N959 C951 1.427 . S
N959 C957 1.384 . S
H960 C966 0.930 . S
H961 C970 0.930 . S
H962 C975 0.929 . S
H963 C973 0.929 . S
H964 C968 0.929 . S
H965 C974 0.929 . S
C966 H960 0.930 . S
C966 C967 1.367 . S
C966 C974 1.378 . S
C967 C966 1.367 . S
C967 C975 1.433 . S
C968 H964 0.929 . S
C968 C970 1.378 . S
C968 C972 1.350 . S
C969 C972 1.463 . S
C969 C974 1.350 . S
C969 N977 1.427 . S
C970 H961 0.930 . S
C970 C968 1.378 . S
C970 C971 1.367 . S
C971 C970 1.367 . S
C971 C973 1.433 . S
C972 C968 1.350 . S
C972 C969 1.463 . S
C972 N976 1.427 . S
C973 H963 0.929 . S
C973 C971 1.433 . S
C973 N976 1.384 . S
C974 H965 0.929 . S
C974 C966 1.378 . S
C974 C969 1.350 . S
C975 H962 0.929 . S
C975 C967 1.433 . S
C975 N977 1.384 . S
N976 C972 1.427 . S
N976 C973 1.384 . S
N977 C969 1.427 . S
N977 C975 1.384 . S
H978 C984 0.930 . S
H979 C988 0.930 . S
H980 C993 0.929 . S
H981 C991 0.929 . S
H982 C986 0.929 . S
H983 C992 0.929 . S
C984 H978 0.930 . S
C984 C985 1.367 . S
C984 C992 1.378 . S
C985 C984 1.367 . S
C985 C993 1.433 . S
C986 H982 0.929 . S
C986 C988 1.378 . S
C986 C990 1.350 . S
C987 C990 1.463 . S
C987 C992 1.350 . S
C987 N995 1.427 . S
C988 H979 0.930 . S
C988 C986 1.378 . S
C988 C989 1.367 . S
C989 C988 1.367 . S
C989 C991 1.433 . S
C990 C986 1.350 . S
C990 C987 1.463 . S
C990 N994 1.427 . S
C991 H981 0.929 . S
C991 C989 1.433 . S
C991 N994 1.384 . S
C992 H983 0.929 . S
C992 C984 1.378 . S
C992 C987 1.350 . S
C993 H980 0.929 . S
C993 C985 1.433 . S
C993 N995 1.384 . S
N994 C990 1.427 . S
N994 C991 1.384 . S
N995 C987 1.427 . S
N995 C993 1.384 . S
H996 C1002 0.930 . S
H997 C1006 0.930 . S
H998 C1011 0.929 . S
H999 C1009 0.929 . S
H1000 C1004 0.929 . S
H1001 C1010 0.929 . S
C1002 H996 0.930 . S
C1002 C1003 1.367 . S
C1002 C1010 1.378 . S
C1003 C1002 1.367 . S
C1003 C1011 1.433 . S
C1004 H1000 0.929 . S
C1004 C1006 1.378 . S
C1004 C1008 1.350 . S
C1005 C1008 1.463 . S
C1005 C1010 1.350 . S
C1005 N1013 1.427 . S
C1006 H997 0.930 . S
C1006 C1004 1.378 . S
C1006 C1007 1.367 . S
C1007 C1006 1.367 . S
C1007 C1009 1.433 . S
C1008 C1004 1.350 . S
C1008 C1005 1.463 . S
C1008 N1012 1.427 . S
C1009 H999 0.929 . S
C1009 C1007 1.433 . S
C1009 N1012 1.384 . S
C1010 H1001 0.929 . S
C1010 C1002 1.378 . S
C1010 C1005 1.350 . S
C1011 H998 0.929 . S
C1011 C1003 1.433 . S
C1011 N1013 1.384 . S
N1012 C1008 1.427 . S
N1012 C1009 1.384 . S
N1013 C1005 1.427 . S
N1013 C1011 1.384 . S
H1014 C1020 0.930 . S
H1015 C1024 0.930 . S
H1016 C1029 0.929 . S
H1017 C1027 0.929 . S
H1018 C1022 0.929 . S
H1019 C1028 0.929 . S
C1020 H1014 0.930 . S
C1020 C1021 1.367 . S
C1020 C1028 1.378 . S
C1021 C1020 1.367 . S
C1021 C1029 1.433 . S
C1022 H1018 0.929 . S
C1022 C1024 1.378 . S
C1022 C1026 1.350 . S
C1023 C1026 1.463 . S
C1023 C1028 1.350 . S
C1023 N1031 1.427 . S
C1024 H1015 0.930 . S
C1024 C1022 1.378 . S
C1024 C1025 1.367 . S
C1025 C1024 1.367 . S
C1025 C1027 1.433 . S
C1026 C1022 1.350 . S
C1026 C1023 1.463 . S
C1026 N1030 1.427 . S
C1027 H1017 0.929 . S
C1027 C1025 1.433 . S
C1027 N1030 1.384 . S
C1028 H1019 0.929 . S
C1028 C1020 1.378 . S
C1028 C1023 1.350 . S
C1029 H1016 0.929 . S
C1029 C1021 1.433 . S
C1029 N1031 1.384 . S
N1030 C1026 1.427 . S
N1030 C1027 1.384 . S
N1031 C1023 1.427 . S
N1031 C1029 1.384 . S
H1032 C1038 0.930 . S
H1033 C1042 0.930 . S
H1034 C1047 0.929 . S
H1035 C1045 0.929 . S
H1036 C1040 0.929 . S
H1037 C1046 0.929 . S
C1038 H1032 0.930 . S
C1038 C1039 1.367 . S
C1038 C1046 1.378 . S
C1039 C1038 1.367 . S
C1039 C1047 1.433 . S
C1040 H1036 0.929 . S
C1040 C1042 1.378 . S
C1040 C1044 1.350 . S
C1041 C1044 1.463 . S
C1041 C1046 1.350 . S
C1041 N1049 1.427 . S
C1042 H1033 0.930 . S
C1042 C1040 1.378 . S
C1042 C1043 1.367 . S
C1043 C1042 1.367 . S
C1043 C1045 1.433 . S
C1044 C1040 1.350 . S
C1044 C1041 1.463 . S
C1044 N1048 1.427 . S
C1045 H1035 0.929 . S
C1045 C1043 1.433 . S
C1045 N1048 1.384 . S
C1046 H1037 0.929 . S
C1046 C1038 1.378 . S
C1046 C1041 1.350 . S
C1047 H1034 0.929 . S
C1047 C1039 1.433 . S
C1047 N1049 1.384 . S
N1048 C1044 1.427 . S
N1048 C1045 1.384 . S
N1049 C1041 1.427 . S
N1049 C1047 1.384 . S
H1050 C1056 0.930 . S
H1051 C1060 0.930 . S
H1052 C1065 0.929 . S
H1053 C1063 0.929 . S
H1054 C1058 0.929 . S
H1055 C1064 0.929 . S
C1056 H1050 0.930 . S
C1056 C1057 1.367 . S
C1056 C1064 1.378 . S
C1057 C1056 1.367 . S
C1057 C1065 1.433 . S
C1058 H1054 0.929 . S
C1058 C1060 1.378 . S
C1058 C1062 1.350 . S
C1059 C1062 1.463 . S
C1059 C1064 1.350 . S
C1059 N1067 1.427 . S
C1060 H1051 0.930 . S
C1060 C1058 1.378 . S
C1060 C1061 1.367 . S
C1061 C1060 1.367 . S
C1061 C1063 1.433 . S
C1062 C1058 1.350 . S
C1062 C1059 1.463 . S
C1062 N1066 1.427 . S
C1063 H1053 0.929 . S
C1063 C1061 1.433 . S
C1063 N1066 1.384 . S
C1064 H1055 0.929 . S
C1064 C1056 1.378 . S
C1064 C1059 1.350 . S
C1065 H1052 0.929 . S
C1065 C1057 1.433 . S
C1065 N1067 1.384 . S
N1066 C1062 1.427 . S
N1066 C1063 1.384 . S
N1067 C1059 1.427 . S
N1067 C1065 1.384 . S
H1068 C1074 0.930 . S
H1069 C1078 0.930 . S
H1070 C1083 0.929 . S
H1071 C1081 0.929 . S
H1072 C1076 0.929 . S
H1073 C1082 0.929 . S
C1074 H1068 0.930 . S
C1074 C1075 1.367 . S
C1074 C1082 1.378 . S
C1075 C1074 1.367 . S
C1075 C1083 1.433 . S
C1076 H1072 0.929 . S
C1076 C1078 1.378 . S
C1076 C1080 1.350 . S
C1077 C1080 1.463 . S
C1077 C1082 1.350 . S
C1077 N1085 1.427 . S
C1078 H1069 0.930 . S
C1078 C1076 1.378 . S
C1078 C1079 1.367 . S
C1079 C1078 1.367 . S
C1079 C1081 1.433 . S
C1080 C1076 1.350 . S
C1080 C1077 1.463 . S
C1080 N1084 1.427 . S
C1081 H1071 0.929 . S
C1081 C1079 1.433 . S
C1081 N1084 1.384 . S
C1082 H1073 0.929 . S
C1082 C1074 1.378 . S
C1082 C1077 1.350 . S
C1083 H1070 0.929 . S
C1083 C1075 1.433 . S
C1083 N1085 1.384 . S
N1084 C1080 1.427 . S
N1084 C1081 1.384 . S
N1085 C1077 1.427 . S
N1085 C1083 1.384 . S
H1086 C1092 0.930 . S
H1087 C1096 0.930 . S
H1088 C1101 0.929 . S
H1089 C1099 0.929 . S
H1090 C1094 0.929 . S
H1091 C1100 0.929 . S
C1092 H1086 0.930 . S
C1092 C1093 1.367 . S
C1092 C1100 1.378 . S
C1093 C1092 1.367 . S
C1093 C1101 1.433 . S
C1094 H1090 0.929 . S
C1094 C1096 1.378 . S
C1094 C1098 1.350 . S
C1095 C1098 1.463 . S
C1095 C1100 1.350 . S
C1095 N1103 1.427 . S
C1096 H1087 0.930 . S
C1096 C1094 1.378 . S
C1096 C1097 1.367 . S
C1097 C1096 1.367 . S
C1097 C1099 1.433 . S
C1098 C1094 1.350 . S
C1098 C1095 1.463 . S
C1098 N1102 1.427 . S
C1099 H1089 0.929 . S
C1099 C1097 1.433 . S
C1099 N1102 1.384 . S
C1100 H1091 0.929 . S
C1100 C1092 1.378 . S
C1100 C1095 1.350 . S
C1101 H1088 0.929 . S
C1101 C1093 1.433 . S
C1101 N1103 1.384 . S
N1102 C1098 1.427 . S
N1102 C1099 1.384 . S
N1103 C1095 1.427 . S
N1103 C1101 1.384 . S
H1104 C1110 0.930 . S
H1105 C1114 0.930 . S
H1106 C1119 0.929 . S
H1107 C1117 0.929 . S
H1108 C1112 0.929 . S
H1109 C1118 0.929 . S
C1110 H1104 0.930 . S
C1110 C1111 1.367 . S
C1110 C1118 1.378 . S
C1111 C1110 1.367 . S
C1111 C1119 1.433 . S
C1112 H1108 0.929 . S
C1112 C1114 1.378 . S
C1112 C1116 1.350 . S
C1113 C1116 1.463 . S
C1113 C1118 1.350 . S
C1113 N1121 1.427 . S
C1114 H1105 0.930 . S
C1114 C1112 1.378 . S
C1114 C1115 1.367 . S
C1115 C1114 1.367 . S
C1115 C1117 1.433 . S
C1116 C1112 1.350 . S
C1116 C1113 1.463 . S
C1116 N1120 1.427 . S
C1117 H1107 0.929 . S
C1117 C1115 1.433 . S
C1117 N1120 1.384 . S
C1118 H1109 0.929 . S
C1118 C1110 1.378 . S
C1118 C1113 1.350 . S
C1119 H1106 0.929 . S
C1119 C1111 1.433 . S
C1119 N1121 1.384 . S
N1120 C1116 1.427 . S
N1120 C1117 1.384 . S
N1121 C1113 1.427 . S
N1121 C1119 1.384 . S
H1122 C1128 0.930 . S
H1123 C1132 0.930 . S
H1124 C1137 0.929 . S
H1125 C1135 0.929 . S
H1126 C1130 0.929 . S
H1127 C1136 0.929 . S
C1128 H1122 0.930 . S
C1128 C1129 1.367 . S
C1128 C1136 1.378 . S
C1129 C1128 1.367 . S
C1129 C1137 1.433 . S
C1130 H1126 0.929 . S
C1130 C1132 1.378 . S
C1130 C1134 1.350 . S
C1131 C1134 1.463 . S
C1131 C1136 1.350 . S
C1131 N1139 1.427 . S
C1132 H1123 0.930 . S
C1132 C1130 1.378 . S
C1132 C1133 1.367 . S
C1133 C1132 1.367 . S
C1133 C1135 1.433 . S
C1134 C1130 1.350 . S
C1134 C1131 1.463 . S
C1134 N1138 1.427 . S
C1135 H1125 0.929 . S
C1135 C1133 1.433 . S
C1135 N1138 1.384 . S
C1136 H1127 0.929 . S
C1136 C1128 1.378 . S
C1136 C1131 1.350 . S
C1137 H1124 0.929 . S
C1137 C1129 1.433 . S
C1137 N1139 1.384 . S
N1138 C1134 1.427 . S
N1138 C1135 1.384 . S
N1139 C1131 1.427 . S
N1139 C1137 1.384 . S
H1140 C1146 0.930 . S
H1141 C1150 0.930 . S
H1142 C1155 0.929 . S
H1143 C1153 0.929 . S
H1144 C1148 0.929 . S
H1145 C1154 0.929 . S
C1146 H1140 0.930 . S
C1146 C1147 1.367 . S
C1146 C1154 1.378 . S
C1147 C1146 1.367 . S
C1147 C1155 1.433 . S
C1148 H1144 0.929 . S
C1148 C1150 1.378 . S
C1148 C1152 1.350 . S
C1149 C1152 1.463 . S
C1149 C1154 1.350 . S
C1149 N1157 1.427 . S
C1150 H1141 0.930 . S
C1150 C1148 1.378 . S
C1150 C1151 1.367 . S
C1151 C1150 1.367 . S
C1151 C1153 1.433 . S
C1152 C1148 1.350 . S
C1152 C1149 1.463 . S
C1152 N1156 1.427 . S
C1153 H1143 0.929 . S
C1153 C1151 1.433 . S
C1153 N1156 1.384 . S
C1154 H1145 0.929 . S
C1154 C1146 1.378 . S
C1154 C1149 1.350 . S
C1155 H1142 0.929 . S
C1155 C1147 1.433 . S
C1155 N1157 1.384 . S
N1156 C1152 1.427 . S
N1156 C1153 1.384 . S
N1157 C1149 1.427 . S
N1157 C1155 1.384 . S
H1158 C1164 0.930 . S
H1159 C1168 0.930 1_455 S
H1160 C1173 0.929 . S
H1161 C1171 0.929 . S
H1162 C1166 0.929 1_455 S
H1163 C1172 0.929 . S
C1164 H1158 0.930 . S
C1164 C1165 1.367 . S
C1164 C1172 1.378 . S
C1165 C1164 1.367 . S
C1165 C1173 1.433 . S
C1166 H1162 0.929 1_655 S
C1166 C1168 1.378 . S
C1166 C1170 1.350 . S
C1167 C1170 1.463 . S
C1167 C1172 1.350 . S
C1167 N1175 1.427 . S
C1168 H1159 0.930 1_655 S
C1168 C1166 1.378 . S
C1168 C1169 1.367 . S
C1169 C1168 1.367 . S
C1169 C1171 1.433 . S
C1170 C1166 1.350 . S
C1170 C1167 1.463 . S
C1170 N1174 1.427 . S
C1171 H1161 0.929 . S
C1171 C1169 1.433 . S
C1171 N1174 1.384 . S
C1172 H1163 0.929 . S
C1172 C1164 1.378 . S
C1172 C1167 1.350 . S
C1173 H1160 0.929 . S
C1173 C1165 1.433 . S
C1173 N1175 1.384 . S
N1174 C1170 1.427 . S
N1174 C1171 1.384 . S
N1175 C1167 1.427 . S
N1175 C1173 1.384 . S
H1176 C1182 0.930 . S
H1177 C1186 0.930 . S
H1178 C1191 0.929 . S
H1179 C1189 0.929 . S
H1180 C1184 0.929 . S
H1181 C1190 0.929 . S
C1182 H1176 0.930 . S
C1182 C1183 1.367 . S
C1182 C1190 1.378 . S
C1183 C1182 1.367 . S
C1183 C1191 1.433 . S
C1184 H1180 0.929 . S
C1184 C1186 1.378 . S
C1184 C1188 1.350 . S
C1185 C1188 1.463 . S
C1185 C1190 1.350 . S
C1185 N1193 1.427 . S
C1186 H1177 0.930 . S
C1186 C1184 1.378 . S
C1186 C1187 1.367 . S
C1187 C1186 1.367 . S
C1187 C1189 1.433 . S
C1188 C1184 1.350 . S
C1188 C1185 1.463 . S
C1188 N1192 1.427 . S
C1189 H1179 0.929 . S
C1189 C1187 1.433 . S
C1189 N1192 1.384 . S
C1190 H1181 0.929 . S
C1190 C1182 1.378 . S
C1190 C1185 1.350 . S
C1191 H1178 0.929 . S
C1191 C1183 1.433 . S
C1191 N1193 1.384 . S
N1192 C1188 1.427 . S
N1192 C1189 1.384 . S
N1193 C1185 1.427 . S
N1193 C1191 1.384 . S
H1194 C1200 0.930 . S
H1195 C1204 0.930 . S
H1196 C1209 0.929 1_455 S
H1197 C1207 0.929 . S
H1198 C1202 0.929 . S
H1199 C1208 0.929 . S
C1200 H1194 0.930 . S
C1200 C1201 1.367 . S
C1200 C1208 1.378 . S
C1201 C1200 1.367 . S
C1201 C1209 1.433 . S
C1202 H1198 0.929 . S
C1202 C1204 1.378 . S
C1202 C1206 1.350 . S
C1203 C1206 1.463 . S
C1203 C1208 1.350 . S
C1203 N1211 1.427 . S
C1204 H1195 0.930 . S
C1204 C1202 1.378 . S
C1204 C1205 1.367 . S
C1205 C1204 1.367 . S
C1205 C1207 1.433 . S
C1206 C1202 1.350 . S
C1206 C1203 1.463 . S
C1206 N1210 1.427 . S
C1207 H1197 0.929 . S
C1207 C1205 1.433 . S
C1207 N1210 1.384 . S
C1208 H1199 0.929 . S
C1208 C1200 1.378 . S
C1208 C1203 1.350 . S
C1209 H1196 0.929 1_655 S
C1209 C1201 1.433 . S
C1209 N1211 1.384 . S
N1210 C1206 1.427 . S
N1210 C1207 1.384 . S
N1211 C1203 1.427 . S
N1211 C1209 1.384 . S
H1212 C1218 0.930 . S
H1213 C1222 0.930 . S
H1214 C1227 0.929 . S
H1215 C1225 0.929 . S
H1216 C1220 0.929 . S
H1217 C1226 0.929 . S
C1218 H1212 0.930 . S
C1218 C1219 1.367 . S
C1218 C1226 1.378 . S
C1219 C1218 1.367 . S
C1219 C1227 1.433 . S
C1220 H1216 0.929 . S
C1220 C1222 1.378 . S
C1220 C1224 1.350 . S
C1221 C1224 1.463 . S
C1221 C1226 1.350 . S
C1221 N1229 1.427 . S
C1222 H1213 0.930 . S
C1222 C1220 1.378 . S
C1222 C1223 1.367 . S
C1223 C1222 1.367 . S
C1223 C1225 1.433 . S
C1224 C1220 1.350 . S
C1224 C1221 1.463 . S
C1224 N1228 1.427 . S
C1225 H1215 0.929 . S
C1225 C1223 1.433 . S
C1225 N1228 1.384 . S
C1226 H1217 0.929 . S
C1226 C1218 1.378 . S
C1226 C1221 1.350 . S
C1227 H1214 0.929 . S
C1227 C1219 1.433 . S
C1227 N1229 1.384 . S
N1228 C1224 1.427 . S
N1228 C1225 1.384 . S
N1229 C1221 1.427 . S
N1229 C1227 1.384 . S
H1230 C1236 0.930 . S
H1231 C1240 0.930 . S
H1232 C1245 0.929 . S
H1233 C1243 0.929 . S
H1234 C1238 0.929 . S
H1235 C1244 0.929 . S
C1236 H1230 0.930 . S
C1236 C1237 1.367 . S
C1236 C1244 1.378 . S
C1237 C1236 1.367 . S
C1237 C1245 1.433 . S
C1238 H1234 0.929 . S
C1238 C1240 1.378 . S
C1238 C1242 1.350 . S
C1239 C1242 1.463 . S
C1239 C1244 1.350 . S
C1239 N1247 1.427 . S
C1240 H1231 0.930 . S
C1240 C1238 1.378 . S
C1240 C1241 1.367 . S
C1241 C1240 1.367 . S
C1241 C1243 1.433 . S
C1242 C1238 1.350 . S
C1242 C1239 1.463 . S
C1242 N1246 1.427 . S
C1243 H1233 0.929 . S
C1243 C1241 1.433 . S
C1243 N1246 1.384 . S
C1244 H1235 0.929 . S
C1244 C1236 1.378 . S
C1244 C1239 1.350 . S
C1245 H1232 0.929 . S
C1245 C1237 1.433 . S
C1245 N1247 1.384 . S
N1246 C1242 1.427 . S
N1246 C1243 1.384 . S
N1247 C1239 1.427 . S
N1247 C1245 1.384 . S
C535 C28 0.246 . S
C539 C193 0.212 . S
C553 C61 0.196 . S
C557 C226 0.251 . S
C571 C259 0.204 . S
C575 C94 0.254 . S
C589 C160 0.218 . S
C593 C127 0.245 . S
C607 C292 0.214 . S
C611 C457 0.246 . S
C625 C325 0.229 . S
C629 C490 0.236 . S
C643 C358 0.204 . S
C647 C523 0.259 . S
C661 C391 0.239 . S
C665 C424 0.207 . S
C679 C281 1.736 . S
C683 C17 1.734 . S
C697 C314 1.685 . S
C701 C50 1.683 . S
C715 C83 1.749 . S
C719 C347 1.749 . S
C733 C380 1.781 . S
C737 C116 1.781 . S
C751 C149 1.692 . S
C755 C413 1.691 . S
C769 C182 1.755 . S
C773 C446 1.754 . S
C787 C215 1.785 . S
C791 C479 1.785 . S
C805 C248 1.753 . S
C809 C512 1.753 . S
C823 N14 1.750 . S
C827 N146 1.757 . S
C841 N47 1.745 . S
C845 N179 1.738 . S
C859 N212 1.787 . S
C863 N80 1.796 . S
C877 N113 1.788 . S
C881 N245 1.802 . S
C895 N410 1.746 . S
C899 N278 1.737 . S
C913 N443 1.738 . S
C917 N311 1.753 . S
C931 N344 1.796 . S
C935 N476 1.787 . S
C949 N509 1.792 . S
C953 N377 1.788 . S
C967 C41 1.483 . S
C971 N5 1.373 . S
C985 N38 1.368 . S
C989 C74 1.483 . S
C1003 N71 1.401 . S
C1007 C107 1.516 . S
C1021 N104 1.386 . S
C1025 C8 1.499 . S
C1039 C239 1.492 . S
C1043 N137 1.386 . S
C1057 N170 1.370 . S
C1061 C140 1.476 . S
C1075 N203 1.401 . S
C1079 C173 1.503 . S
C1093 N236 1.399 . S
C1097 C206 1.516 . S
C1111 N269 1.366 . S
C1115 C305 1.475 . S
C1129 N302 1.372 . S
C1133 C338 1.484 . S
C1147 C371 1.520 . S
C1151 N335 1.418 . S
C1165 N368 1.382 . S
C1169 C272 1.498 . S
C1183 N401 1.373 . S
C1187 C503 1.484 . S
C1201 C404 1.483 . S
C1205 N434 1.374 . S
C1219 C437 1.501 . S
C1223 N467 1.389 . S
C1237 N500 1.397 . S
C1241 C470 1.515 . S
