# Generated by pormake.
# Topology ums, (4)-cn, num edge types: 1
# Building blocks:
#     Node 0, Type 0, BuildingBlock: QUQFOY_clean_sbu_1, # of connection points: 4
#     Node 1, Type 0, BuildingBlock: QUQFOY_clean_sbu_1, # of connection points: 4
#     Node 2, Type 0, BuildingBlock: QUQFOY_clean_sbu_1, # of connection points: 4
#     Node 3, Type 0, BuildingBlock: QUQFOY_clean_sbu_1, # of connection points: 4
#     Node 4, Type 0, BuildingBlock: QUQFOY_clean_sbu_1, # of connection points: 4
#     Node 5, Type 0, BuildingBlock: QUQFOY_clean_sbu_1, # of connection points: 4
#     Node 6, Type 0, BuildingBlock: QUQFOY_clean_sbu_1, # of connection points: 4
#     Node 7, Type 0, BuildingBlock: QUQFOY_clean_sbu_1, # of connection points: 4
#     Node 8, Type 0, BuildingBlock: QUQFOY_clean_sbu_1, # of connection points: 4
#     Node 9, Type 0, BuildingBlock: QUQFOY_clean_sbu_1, # of connection points: 4
#     Node 10, Type 0, BuildingBlock: QUQFOY_clean_sbu_1, # of connection points: 4
#     Node 11, Type 0, BuildingBlock: QUQFOY_clean_sbu_1, # of connection points: 4
#     Node 12, Type 0, BuildingBlock: QUQFOY_clean_sbu_1, # of connection points: 4
#     Node 13, Type 0, BuildingBlock: QUQFOY_clean_sbu_1, # of connection points: 4
#     Node 14, Type 0, BuildingBlock: QUQFOY_clean_sbu_1, # of connection points: 4
#     Node 15, Type 0, BuildingBlock: QUQFOY_clean_sbu_1, # of connection points: 4
#     Node 16, Type 0, BuildingBlock: QUQFOY_clean_sbu_1, # of connection points: 4
#     Node 17, Type 0, BuildingBlock: QUQFOY_clean_sbu_1, # of connection points: 4
#     Node 18, Type 0, BuildingBlock: QUQFOY_clean_sbu_1, # of connection points: 4
#     Node 19, Type 0, BuildingBlock: QUQFOY_clean_sbu_1, # of connection points: 4
#     Node 20, Type 0, BuildingBlock: QUQFOY_clean_sbu_1, # of connection points: 4
#     Node 21, Type 0, BuildingBlock: QUQFOY_clean_sbu_1, # of connection points: 4
#     Node 22, Type 0, BuildingBlock: QUQFOY_clean_sbu_1, # of connection points: 4
#     Node 23, Type 0, BuildingBlock: QUQFOY_clean_sbu_1, # of connection points: 4
#     Node 24, Type 0, BuildingBlock: QUQFOY_clean_sbu_1, # of connection points: 4
#     Node 25, Type 0, BuildingBlock: QUQFOY_clean_sbu_1, # of connection points: 4
#     Node 26, Type 0, BuildingBlock: QUQFOY_clean_sbu_1, # of connection points: 4
#     Node 27, Type 0, BuildingBlock: QUQFOY_clean_sbu_1, # of connection points: 4
#     Node 28, Type 0, BuildingBlock: QUQFOY_clean_sbu_1, # of connection points: 4
#     Node 29, Type 0, BuildingBlock: QUQFOY_clean_sbu_1, # of connection points: 4
#     Node 30, Type 0, BuildingBlock: QUQFOY_clean_sbu_1, # of connection points: 4
#     Node 31, Type 0, BuildingBlock: QUQFOY_clean_sbu_1, # of connection points: 4
#     Node 32, Type 0, BuildingBlock: QUQFOY_clean_sbu_1, # of connection points: 4
#     Node 33, Type 0, BuildingBlock: QUQFOY_clean_sbu_1, # of connection points: 4
#     Node 34, Type 0, BuildingBlock: QUQFOY_clean_sbu_1, # of connection points: 4
#     Node 35, Type 0, BuildingBlock: QUQFOY_clean_sbu_1, # of connection points: 4
#     Edge 36, Type (0, 0), BuildingBlock: CIFDUS_clean_linker_0, # of connection points: 2
#     Edge 37, Type (0, 0), BuildingBlock: CIFDUS_clean_linker_0, # of connection points: 2
#     Edge 38, Type (0, 0), BuildingBlock: CIFDUS_clean_linker_0, # of connection points: 2
#     Edge 39, Type (0, 0), BuildingBlock: CIFDUS_clean_linker_0, # of connection points: 2
#     Edge 40, Type (0, 0), BuildingBlock: CIFDUS_clean_linker_0, # of connection points: 2
#     Edge 41, Type (0, 0), BuildingBlock: CIFDUS_clean_linker_0, # of connection points: 2
#     Edge 42, Type (0, 0), BuildingBlock: CIFDUS_clean_linker_0, # of connection points: 2
#     Edge 43, Type (0, 0), BuildingBlock: CIFDUS_clean_linker_0, # of connection points: 2
#     Edge 44, Type (0, 0), BuildingBlock: CIFDUS_clean_linker_0, # of connection points: 2
#     Edge 45, Type (0, 0), BuildingBlock: CIFDUS_clean_linker_0, # of connection points: 2
#     Edge 46, Type (0, 0), BuildingBlock: CIFDUS_clean_linker_0, # of connection points: 2
#     Edge 47, Type (0, 0), BuildingBlock: CIFDUS_clean_linker_0, # of connection points: 2
#     Edge 48, Type (0, 0), BuildingBlock: CIFDUS_clean_linker_0, # of connection points: 2
#     Edge 49, Type (0, 0), BuildingBlock: CIFDUS_clean_linker_0, # of connection points: 2
#     Edge 50, Type (0, 0), BuildingBlock: CIFDUS_clean_linker_0, # of connection points: 2
#     Edge 51, Type (0, 0), BuildingBlock: CIFDUS_clean_linker_0, # of connection points: 2
#     Edge 52, Type (0, 0), BuildingBlock: CIFDUS_clean_linker_0, # of connection points: 2
#     Edge 53, Type (0, 0), BuildingBlock: CIFDUS_clean_linker_0, # of connection points: 2
#     Edge 54, Type (0, 0), BuildingBlock: CIFDUS_clean_linker_0, # of connection points: 2
#     Edge 55, Type (0, 0), BuildingBlock: CIFDUS_clean_linker_0, # of connection points: 2
#     Edge 56, Type (0, 0), BuildingBlock: CIFDUS_clean_linker_0, # of connection points: 2
#     Edge 57, Type (0, 0), BuildingBlock: CIFDUS_clean_linker_0, # of connection points: 2
#     Edge 58, Type (0, 0), BuildingBlock: CIFDUS_clean_linker_0, # of connection points: 2
#     Edge 59, Type (0, 0), BuildingBlock: CIFDUS_clean_linker_0, # of connection points: 2
#     Edge 60, Type (0, 0), BuildingBlock: CIFDUS_clean_linker_0, # of connection points: 2
#     Edge 61, Type (0, 0), BuildingBlock: CIFDUS_clean_linker_0, # of connection points: 2
#     Edge 62, Type (0, 0), BuildingBlock: CIFDUS_clean_linker_0, # of connection points: 2
#     Edge 63, Type (0, 0), BuildingBlock: CIFDUS_clean_linker_0, # of connection points: 2
#     Edge 64, Type (0, 0), BuildingBlock: CIFDUS_clean_linker_0, # of connection points: 2
#     Edge 65, Type (0, 0), BuildingBlock: CIFDUS_clean_linker_0, # of connection points: 2
#     Edge 66, Type (0, 0), BuildingBlock: CIFDUS_clean_linker_0, # of connection points: 2
#     Edge 67, Type (0, 0), BuildingBlock: CIFDUS_clean_linker_0, # of connection points: 2
#     Edge 68, Type (0, 0), BuildingBlock: CIFDUS_clean_linker_0, # of connection points: 2
#     Edge 69, Type (0, 0), BuildingBlock: CIFDUS_clean_linker_0, # of connection points: 2
#     Edge 70, Type (0, 0), BuildingBlock: CIFDUS_clean_linker_0, # of connection points: 2
#     Edge 71, Type (0, 0), BuildingBlock: CIFDUS_clean_linker_0, # of connection points: 2
#     Edge 72, Type (0, 0), BuildingBlock: CIFDUS_clean_linker_0, # of connection points: 2
#     Edge 73, Type (0, 0), BuildingBlock: CIFDUS_clean_linker_0, # of connection points: 2
#     Edge 74, Type (0, 0), BuildingBlock: CIFDUS_clean_linker_0, # of connection points: 2
#     Edge 75, Type (0, 0), BuildingBlock: CIFDUS_clean_linker_0, # of connection points: 2
#     Edge 76, Type (0, 0), BuildingBlock: CIFDUS_clean_linker_0, # of connection points: 2
#     Edge 77, Type (0, 0), BuildingBlock: CIFDUS_clean_linker_0, # of connection points: 2
#     Edge 78, Type (0, 0), BuildingBlock: CIFDUS_clean_linker_0, # of connection points: 2
#     Edge 79, Type (0, 0), BuildingBlock: CIFDUS_clean_linker_0, # of connection points: 2
#     Edge 80, Type (0, 0), BuildingBlock: CIFDUS_clean_linker_0, # of connection points: 2
#     Edge 81, Type (0, 0), BuildingBlock: CIFDUS_clean_linker_0, # of connection points: 2
#     Edge 82, Type (0, 0), BuildingBlock: CIFDUS_clean_linker_0, # of connection points: 2
#     Edge 83, Type (0, 0), BuildingBlock: CIFDUS_clean_linker_0, # of connection points: 2
#     Edge 84, Type (0, 0), BuildingBlock: CIFDUS_clean_linker_0, # of connection points: 2
#     Edge 85, Type (0, 0), BuildingBlock: CIFDUS_clean_linker_0, # of connection points: 2
#     Edge 86, Type (0, 0), BuildingBlock: CIFDUS_clean_linker_0, # of connection points: 2
#     Edge 87, Type (0, 0), BuildingBlock: CIFDUS_clean_linker_0, # of connection points: 2
#     Edge 88, Type (0, 0), BuildingBlock: CIFDUS_clean_linker_0, # of connection points: 2
#     Edge 89, Type (0, 0), BuildingBlock: CIFDUS_clean_linker_0, # of connection points: 2
#     Edge 90, Type (0, 0), BuildingBlock: CIFDUS_clean_linker_0, # of connection points: 2
#     Edge 91, Type (0, 0), BuildingBlock: CIFDUS_clean_linker_0, # of connection points: 2
#     Edge 92, Type (0, 0), BuildingBlock: CIFDUS_clean_linker_0, # of connection points: 2
#     Edge 93, Type (0, 0), BuildingBlock: CIFDUS_clean_linker_0, # of connection points: 2
#     Edge 94, Type (0, 0), BuildingBlock: CIFDUS_clean_linker_0, # of connection points: 2
#     Edge 95, Type (0, 0), BuildingBlock: CIFDUS_clean_linker_0, # of connection points: 2
#     Edge 96, Type (0, 0), BuildingBlock: CIFDUS_clean_linker_0, # of connection points: 2
#     Edge 97, Type (0, 0), BuildingBlock: CIFDUS_clean_linker_0, # of connection points: 2
#     Edge 98, Type (0, 0), BuildingBlock: CIFDUS_clean_linker_0, # of connection points: 2
#     Edge 99, Type (0, 0), BuildingBlock: CIFDUS_clean_linker_0, # of connection points: 2
#     Edge 100, Type (0, 0), BuildingBlock: CIFDUS_clean_linker_0, # of connection points: 2
#     Edge 101, Type (0, 0), BuildingBlock: CIFDUS_clean_linker_0, # of connection points: 2
#     Edge 102, Type (0, 0), BuildingBlock: CIFDUS_clean_linker_0, # of connection points: 2
#     Edge 103, Type (0, 0), BuildingBlock: CIFDUS_clean_linker_0, # of connection points: 2
#     Edge 104, Type (0, 0), BuildingBlock: CIFDUS_clean_linker_0, # of connection points: 2
#     Edge 105, Type (0, 0), BuildingBlock: CIFDUS_clean_linker_0, # of connection points: 2
#     Edge 106, Type (0, 0), BuildingBlock: CIFDUS_clean_linker_0, # of connection points: 2
#     Edge 107, Type (0, 0), BuildingBlock: CIFDUS_clean_linker_0, # of connection points: 2
# Relax obj value: 0.175
# Max RMSD: 0.145
# Mean RMSD: 0.144
data_MOF--net-ums--node1-QUQFOY_clean_sbu_1--edge1-CIFDUS_clean_linker_0
_symmetry_space_group_name_H-M    P1
_symmetry_Int_Tables_number       1
_symmetry_cell_setting            triclinic
loop_
_symmetry_equiv_pos_as_xyz
'x, y, z'
_cell_length_a     94.73878
_cell_length_b     94.92883
_cell_length_c     20.888228
_cell_angle_alpha  89.936619
_cell_angle_beta   89.977608
_cell_angle_gamma 120.13721
loop_
_atom_site_label
_atom_site_type_symbol
_atom_site_fract_x
_atom_site_fract_y
_atom_site_fract_z
_atom_type_partial_charge
O0 O 0.20279 0.27617 0.08333 0.0
Cd1 Cd 0.18525 0.2529 0.11149 0.0
Cd2 Cd 0.17658 0.26892 0.18901 0.0
O3 O 0.1998 0.28794 0.16894 0.0
O4 O 0.19375 0.23739 0.10604 0.0
O5 O 0.18757 0.2449 0.19735 0.0
C6 C 0.19311 0.23669 0.16789 0.0
C7 C 0.16585 0.26589 0.29239 0.0
C8 C 0.20732 0.28883 0.1173 0.0
C9 C 0.15534 0.25244 0.0739 0.0
O10 O 0.15978 0.2634 0.11658 0.0
O11 O 0.16279 0.24449 0.06795 0.0
O12 O 0.16918 0.27837 0.25757 0.0
O13 O 0.16895 0.25511 0.26954 0.0
O14 O 0.7287 0.92733 0.11479 0.0
Cd15 Cd 0.75354 0.93637 0.12079 0.0
Cd16 Cd 0.74409 0.90777 0.18596 0.0
O17 O 0.7219 0.90725 0.18387 0.0
O18 O 0.76558 0.96068 0.12175 0.0
O19 O 0.76479 0.94562 0.20441 0.0
C20 C 0.76966 0.95989 0.18011 0.0
C21 C 0.74866 0.89371 0.26831 0.0
C22 C 0.71797 0.91554 0.14775 0.0
C23 C 0.76022 0.91319 0.05397 0.0
O24 O 0.75276 0.904 0.10111 0.0
O25 O 0.76294 0.92773 0.0524 0.0
O26 O 0.7378 0.88628 0.22496 0.0
O27 O 0.75646 0.90943 0.26774 0.0
O28 O 0.08176 0.80207 0.11065 0.0
Cd29 Cd 0.07874 0.82176 0.13082 0.0
Cd30 Cd 0.10128 0.82784 0.2159 0.0
O31 O 0.09358 0.80345 0.20291 0.0
O32 O 0.05526 0.8157 0.12217 0.0
O33 O 0.06834 0.8212 0.21486 0.0
C34 C 0.0549 0.81658 0.18391 0.0
C35 C 0.10937 0.83972 0.31728 0.0
C36 C 0.08748 0.79608 0.1505 0.0
C37 C 0.11084 0.84864 0.09649 0.0
O38 O 0.11524 0.84291 0.1424 0.0
O39 O 0.09574 0.84341 0.08683 0.0
O40 O 0.11718 0.83385 0.28765 0.0
O41 O 0.0965 0.83842 0.29059 0.0
O42 O 0.27717 0.19903 0.38497 0.0
Cd43 Cd 0.25307 0.18191 0.36566 0.0
Cd44 Cd 0.26644 0.17136 0.2829 0.0
O45 O 0.28619 0.19463 0.2943 0.0
O46 O 0.23848 0.1915 0.37272 0.0
O47 O 0.244 0.18347 0.28121 0.0
C48 C 0.23682 0.19005 0.3112 0.0
C49 C 0.26089 0.15878 0.18247 0.0
C50 C 0.28871 0.20287 0.34526 0.0
C51 C 0.2519 0.15176 0.40373 0.0
O52 O 0.26196 0.15543 0.35778 0.0
O53 O 0.24465 0.15984 0.41226 0.0
O54 O 0.27408 0.16248 0.21312 0.0
O55 O 0.2509 0.16269 0.20757 0.0
O56 O 0.80562 0.07921 0.41167 0.0
Cd57 Cd 0.82252 0.07193 0.39813 0.0
Cd58 Cd 0.83756 0.0989 0.32512 0.0
O59 O 0.81604 0.09929 0.34106 0.0
O60 O 0.81177 0.04762 0.39965 0.0
O61 O 0.82312 0.06262 0.31298 0.0
C62 C 0.81506 0.04837 0.33924 0.0
C63 C 0.85156 0.10765 0.22794 0.0
C64 C 0.80507 0.09062 0.3819 0.0
C65 C 0.85371 0.09778 0.4497 0.0
O66 O 0.85358 0.10567 0.40087 0.0
O67 O 0.84244 0.08313 0.45839 0.0
O68 O 0.85108 0.11772 0.2678 0.0
O69 O 0.84321 0.0923 0.24097 0.0
O70 O 0.93236 0.73263 0.3896 0.0
Cd71 Cd 0.939 0.75668 0.37211 0.0
Cd72 Cd 0.9156 0.74337 0.28811 0.0
O73 O 0.91977 0.72404 0.29711 0.0
O74 O 0.96317 0.77166 0.38133 0.0
O75 O 0.95007 0.76633 0.28876 0.0
C76 C 0.96369 0.77359 0.31987 0.0
C77 C 0.90923 0.7501 0.18866 0.0
C78 C 0.92516 0.72132 0.34863 0.0
C79 C 0.90914 0.75623 0.4096 0.0
O80 O 0.90318 0.74627 0.36328 0.0
O81 O 0.92452 0.7642 0.41822 0.0
O82 O 0.89975 0.73636 0.21595 0.0
O83 O 0.92279 0.76001 0.21651 0.0
O84 O 0.81054 0.72958 0.89854 0.0
Cd85 Cd 0.8284 0.75227 0.86723 0.0
Cd86 Cd 0.83318 0.73466 0.78329 0.0
O87 O 0.80968 0.71702 0.80875 0.0
O88 O 0.82115 0.76882 0.87315 0.0
O89 O 0.82486 0.75931 0.78168 0.0
C90 C 0.82035 0.76835 0.81127 0.0
C91 C 0.84334 0.73795 0.6788 0.0
C92 C 0.80404 0.71677 0.86434 0.0
C93 C 0.857 0.74946 0.89293 0.0
O94 O 0.85046 0.73836 0.85081 0.0
O95 O 0.85142 0.75901 0.90267 0.0
O96 O 0.83865 0.72466 0.71023 0.0
O97 O 0.84147 0.74919 0.70506 0.0
O98 O 0.28143 0.08019 0.88306 0.0
Cd99 Cd 0.25788 0.07488 0.86265 0.0
Cd100 Cd 0.27295 0.09612 0.77273 0.0
O101 O 0.29071 0.08987 0.78691 0.0
O102 O 0.24218 0.05189 0.88793 0.0
O103 O 0.24653 0.06051 0.78731 0.0
C104 C 0.23932 0.04861 0.82766 0.0
C105 C 0.26774 0.10231 0.67017 0.0
C106 C 0.29283 0.08545 0.84181 0.0
C107 C 0.26147 0.10644 0.88874 0.0
O108 O 0.2717 0.11069 0.84312 0.0
O109 O 0.25196 0.0914 0.90055 0.0
O110 O 0.28163 0.11103 0.6976 0.0
O111 O 0.25675 0.08955 0.69977 0.0
O112 O 0.9325 0.20701 0.90345 0.0
Cd113 Cd 0.93942 0.18973 0.89144 0.0
Cd114 Cd 0.91033 0.17357 0.83025 0.0
O115 O 0.91121 0.19583 0.83868 0.0
O116 O 0.96376 0.20064 0.89093 0.0
O117 O 0.94843 0.18787 0.80676 0.0
C118 C 0.96281 0.19631 0.83174 0.0
C119 C 0.89684 0.15607 0.7443 0.0
C120 C 0.92073 0.20736 0.87574 0.0
C121 C 0.9145 0.16058 0.95839 0.0
O122 O 0.90538 0.16017 0.91314 0.0
O123 O 0.9296 0.17122 0.95848 0.0
O124 O 0.88914 0.1594 0.78684 0.0
O125 O 0.91257 0.16366 0.74738 0.0
O126 O 0.73019 0.80239 0.61349 0.0
Cd127 Cd 0.75511 0.81795 0.61663 0.0
Cd128 Cd 0.74761 0.83623 0.69355 0.0
O129 O 0.72448 0.8158 0.68582 0.0
O130 O 0.76735 0.80589 0.6121 0.0
O131 O 0.76717 0.81958 0.69773 0.0
C132 C 0.77199 0.81049 0.67034 0.0
C133 C 0.754 0.85168 0.78729 0.0
C134 C 0.71988 0.80381 0.64779 0.0
C135 C 0.7626 0.84952 0.56217 0.0
O136 O 0.75675 0.85113 0.61445 0.0
O137 O 0.76369 0.83691 0.55193 0.0
O138 O 0.74369 0.85132 0.74647 0.0
O139 O 0.7603 0.84259 0.77697 0.0
O140 O 0.20716 0.92912 0.60831 0.0
Cd141 Cd 0.1891 0.93502 0.6233 0.0
Cd142 Cd 0.17854 0.9106 0.70645 0.0
O143 O 0.20206 0.91469 0.6967 0.0
O144 O 0.19811 0.95828 0.59801 0.0
O145 O 0.1912 0.94946 0.69757 0.0
C146 C 0.19722 0.96148 0.65746 0.0
C147 C 0.1652 0.90289 0.80572 0.0
C148 C 0.21088 0.92123 0.64747 0.0
C149 C 0.15949 0.90507 0.58424 0.0
O150 O 0.16311 0.89882 0.63073 0.0
O151 O 0.16733 0.92042 0.57577 0.0
O152 O 0.16947 0.89382 0.77547 0.0
O153 O 0.16908 0.91685 0.78108 0.0
O154 O 0.081 0.27595 0.58177 0.0
Cd155 Cd 0.07507 0.25276 0.61081 0.0
Cd156 Cd 0.09996 0.26887 0.6883 0.0
O157 O 0.09563 0.28772 0.66783 0.0
O158 O 0.05087 0.23741 0.60948 0.0
O159 O 0.06559 0.24578 0.69833 0.0
C160 C 0.05146 0.23747 0.67136 0.0
C161 C 0.10804 0.26626 0.79154 0.0
C162 C 0.08906 0.28858 0.61601 0.0
C163 C 0.1044 0.25205 0.57356 0.0
O164 O 0.11102 0.26312 0.61582 0.0
O165 O 0.08893 0.2441 0.56786 0.0
O166 O 0.11709 0.27864 0.75598 0.0
O167 O 0.09406 0.25535 0.76955 0.0
O168 O 0.87789 0.6201 0.44193 0.0
Cd169 Cd 0.86183 0.59535 0.44512 0.0
Cd170 Cd 0.84387 0.60345 0.52123 0.0
O171 O 0.86469 0.62637 0.51335 0.0
O172 O 0.87333 0.58245 0.44479 0.0
O173 O 0.85985 0.58412 0.52852 0.0
C174 C 0.8688 0.57878 0.50379 0.0
C175 C 0.82873 0.59591 0.61621 0.0
C176 C 0.87677 0.63065 0.47566 0.0
C177 C 0.83037 0.58872 0.39024 0.0
O178 O 0.82891 0.59478 0.44219 0.0
O179 O 0.84275 0.58713 0.3805 0.0
O180 O 0.82883 0.60661 0.57817 0.0
O181 O 0.83796 0.58995 0.60253 0.0
O182 O 0.38989 0.25738 0.44367 0.0
Cd183 Cd 0.41477 0.26638 0.44586 0.0
Cd184 Cd 0.40647 0.23868 0.51117 0.0
O185 O 0.38345 0.23628 0.50669 0.0
O186 O 0.42663 0.29069 0.4411 0.0
O187 O 0.42729 0.27702 0.52598 0.0
C188 C 0.43167 0.29086 0.49871 0.0
C189 C 0.41394 0.23026 0.60427 0.0
C190 C 0.37925 0.24486 0.47364 0.0
C191 C 0.42153 0.24291 0.37883 0.0
O192 O 0.41519 0.23401 0.4279 0.0
O193 O 0.42333 0.2571 0.37639 0.0
O194 O 0.40358 0.21996 0.56431 0.0
O195 O 0.41983 0.24557 0.59283 0.0
O196 O 0.74874 0.14135 0.41946 0.0
Cd197 Cd 0.74239 0.15829 0.44842 0.0
Cd198 Cd 0.76744 0.16767 0.5258 0.0
O199 O 0.76367 0.14472 0.5051 0.0
O200 O 0.7181 0.14901 0.44835 0.0
O201 O 0.7331 0.15568 0.53645 0.0
C202 C 0.71886 0.14959 0.51021 0.0
C203 C 0.77538 0.1782 0.62932 0.0
C204 C 0.75712 0.13713 0.45353 0.0
C205 C 0.77143 0.18876 0.41068 0.0
O206 O 0.77823 0.18464 0.4534 0.0
O207 O 0.75596 0.18086 0.40479 0.0
O208 O 0.78462 0.17525 0.59336 0.0
O209 O 0.76132 0.17488 0.60747 0.0
O210 O 0.95196 0.53994 0.72515 0.0
Cd211 Cd 0.92682 0.52505 0.72649 0.0
Cd212 Cd 0.93291 0.50275 0.6725 0.0
O213 O 0.95682 0.52135 0.68391 0.0
O214 O 0.91612 0.53865 0.72397 0.0
O215 O 0.91456 0.52243 0.64476 0.0
C216 C 0.91103 0.53299 0.6672 0.0
C217 C 0.92539 0.48637 0.58094 0.0
C218 C 0.96196 0.53553 0.70684 0.0
C219 C 0.9169 0.49466 0.80216 0.0
O220 O 0.92179 0.49016 0.75406 0.0
O221 O 0.91758 0.5084 0.80182 0.0
O222 O 0.93452 0.48549 0.62443 0.0
O223 O 0.92093 0.49709 0.58788 0.0
O224 O 0.46793 0.4109 0.71323 0.0
Cd225 Cd 0.48614 0.40566 0.69205 0.0
Cd226 Cd 0.49645 0.43086 0.61383 0.0
O227 O 0.47286 0.42621 0.62753 0.0
O228 O 0.47749 0.38166 0.69857 0.0
O229 O 0.48481 0.39538 0.60706 0.0
C230 C 0.47868 0.38159 0.63692 0.0
C231 C 0.50828 0.43956 0.51248 0.0
C232 C 0.46406 0.41905 0.67615 0.0
C233 C 0.51595 0.43498 0.73404 0.0
O234 O 0.51238 0.44176 0.68935 0.0
O235 O 0.50797 0.41956 0.74021 0.0
O236 O 0.50455 0.44835 0.54753 0.0
O237 O 0.50507 0.42552 0.53404 0.0
O238 O 0.59936 0.0609 0.74452 0.0
Cd239 Cd 0.60701 0.08534 0.73422 0.0
Cd240 Cd 0.5787 0.07403 0.67151 0.0
O241 O 0.57763 0.05175 0.6824 0.0
O242 O 0.63147 0.09851 0.73356 0.0
O243 O 0.61617 0.09641 0.64997 0.0
C244 C 0.63054 0.10207 0.67455 0.0
C245 C 0.5702 0.08026 0.57573 0.0
C246 C 0.58698 0.04911 0.71799 0.0
C247 C 0.5823 0.09052 0.79995 0.0
O248 O 0.5733 0.08286 0.7526 0.0
O249 O 0.5971 0.0939 0.80149 0.0
O250 O 0.5599 0.06995 0.61597 0.0
O251 O 0.58555 0.08674 0.58834 0.0
O252 O 0.47157 0.05969 0.24547 0.0
Cd253 Cd 0.48823 0.08415 0.23497 0.0
Cd254 Cd 0.50503 0.07249 0.17085 0.0
O255 O 0.48347 0.05028 0.18118 0.0
O256 O 0.47625 0.09622 0.24899 0.0
O257 O 0.48758 0.09617 0.15641 0.0
C258 C 0.47914 0.10078 0.18991 0.0
C259 C 0.52003 0.07926 0.07545 0.0
C260 C 0.47172 0.04782 0.218 0.0
C261 C 0.51838 0.08925 0.29851 0.0
O262 O 0.51931 0.08115 0.25201 0.0
O263 O 0.5072 0.09293 0.29979 0.0
O264 O 0.51975 0.06863 0.11449 0.0
O265 O 0.51118 0.08569 0.08882 0.0
O266 O 0.94976 0.41445 0.22066 0.0
Cd267 Cd 0.9247 0.40413 0.22904 0.0
Cd268 Cd 0.9302 0.4325 0.17142 0.0
O269 O 0.95418 0.4379 0.18061 0.0
O270 O 0.91529 0.38021 0.24249 0.0
O271 O 0.90986 0.39048 0.15723 0.0
C272 C 0.90789 0.37783 0.18833 0.0
C273 C 0.9226 0.44154 0.08032 0.0
C274 C 0.95956 0.4289 0.20176 0.0
C275 C 0.91597 0.4257 0.30408 0.0
O276 O 0.91976 0.43443 0.25405 0.0
O277 O 0.91702 0.41285 0.3049 0.0
O278 O 0.93186 0.45148 0.12373 0.0
O279 O 0.91795 0.42631 0.08723 0.0
O280 O 0.59374 0.53731 0.21266 0.0
Cd281 Cd 0.59928 0.5193 0.19168 0.0
Cd282 Cd 0.57389 0.50877 0.1135 0.0
O283 O 0.57812 0.53216 0.12775 0.0
O284 O 0.62333 0.52801 0.19904 0.0
O285 O 0.60982 0.5205 0.10723 0.0
C286 C 0.62356 0.52659 0.13755 0.0
C287 C 0.56527 0.49696 0.01216 0.0
C288 C 0.58531 0.54096 0.17619 0.0
C289 C 0.57006 0.48933 0.23376 0.0
O290 O 0.56317 0.49273 0.18895 0.0
O291 O 0.58549 0.49752 0.24011 0.0
O292 O 0.55634 0.50047 0.04742 0.0
O293 O 0.57943 0.50041 0.03344 0.0
O294 O 0.39343 0.13185 0.94341 0.0
Cd295 Cd 0.41823 0.14807 0.94395 0.0
Cd296 Cd 0.40947 0.16715 0.01135 0.0
O297 O 0.38674 0.14614 0.0072 0.0
O298 O 0.42976 0.13558 0.93003 0.0
O299 O 0.43172 0.14883 0.01976 0.0
C300 C 0.43555 0.13964 0.98723 0.0
C301 C 0.41621 0.18304 0.10431 0.0
C302 C 0.3827 0.13342 0.97405 0.0
C303 C 0.4239 0.17826 0.87827 0.0
O304 O 0.41764 0.18061 0.92798 0.0
O305 O 0.42607 0.16611 0.87522 0.0
O306 O 0.40575 0.18251 0.06378 0.0
O307 O 0.42269 0.17413 0.09344 0.0
O308 O 0.86883 0.26227 0.91829 0.0
Cd309 Cd 0.85177 0.26845 0.9479 0.0
Cd310 Cd 0.84364 0.24418 0.02675 0.0
O311 O 0.8668 0.24837 0.00565 0.0
O312 O 0.8603 0.29217 0.9321 0.0
O313 O 0.85595 0.28129 0.02909 0.0
C314 C 0.861 0.2941 0.99349 0.0
C315 C 0.8331 0.23707 0.13063 0.0
C316 C 0.87376 0.25451 0.95254 0.0
C317 C 0.82173 0.23879 0.9137 0.0
O318 O 0.82662 0.23245 0.95542 0.0
O319 O 0.8289 0.2542 0.9078 0.0
O320 O 0.8364 0.22774 0.09698 0.0
O321 O 0.83622 0.25085 0.10643 0.0
O322 O 0.74607 0.61107 0.92971 0.0
Cd323 Cd 0.73918 0.58703 0.94563 0.0
Cd324 Cd 0.76902 0.6013 0.00807 0.0
O325 O 0.76733 0.62213 0.99479 0.0
O326 O 0.71486 0.57387 0.93991 0.0
O327 O 0.72855 0.57633 0.02902 0.0
C328 C 0.71468 0.5706 3e-05 0.0
C329 C 0.78411 0.59967 0.09422 0.0
C330 C 0.75769 0.62356 0.95628 0.0
C331 C 0.76453 0.58268 0.8829 0.0
O332 O 0.77363 0.59193 0.9271 0.0
O333 O 0.74937 0.57795 0.88233 0.0
O334 O 0.79089 0.60998 0.04845 0.0
O335 O 0.7684 0.59084 0.09394 0.0
O336 O 0.53351 0.94184 0.75362 0.0
Cd337 Cd 0.51678 0.91833 0.78207 0.0
Cd338 Cd 0.50767 0.93367 0.86092 0.0
O339 O 0.53061 0.9532 0.84071 0.0
O340 O 0.52601 0.90376 0.7666 0.0
O341 O 0.52098 0.90973 0.86338 0.0
C342 C 0.52652 0.90239 0.82801 0.0
C343 C 0.49705 0.92969 0.96477 0.0
C344 C 0.53795 0.95438 0.78827 0.0
C345 C 0.48617 0.91677 0.74718 0.0
O346 O 0.49056 0.92784 0.78936 0.0
O347 O 0.49395 0.90914 0.74099 0.0
O348 O 0.49985 0.94223 0.93133 0.0
O349 O 0.50068 0.91943 0.94032 0.0
O350 O 0.06526 0.5934 0.76154 0.0
Cd351 Cd 0.09046 0.60665 0.75252 0.0
Cd352 Cd 0.08972 0.5807 0.81375 0.0
O353 O 0.06498 0.57229 0.80724 0.0
O354 O 0.09749 0.63011 0.73937 0.0
O355 O 0.10471 0.62114 0.82393 0.0
C356 C 0.10533 0.63323 0.79282 0.0
C357 C 0.09834 0.57197 0.90304 0.0
C358 C 0.05739 0.57901 0.78404 0.0
C359 C 0.10291 0.58799 0.67917 0.0
O360 O 0.10061 0.57992 0.73032 0.0
O361 O 0.0997 0.59949 0.6772 0.0
O362 O 0.08981 0.56217 0.85807 0.0
O363 O 0.10185 0.58694 0.89845 0.0
O364 O 0.4151 0.46754 0.79795 0.0
Cd365 Cd 0.41161 0.48693 0.81808 0.0
Cd366 Cd 0.43394 0.49304 0.90457 0.0
O367 O 0.42665 0.46877 0.89071 0.0
O368 O 0.38805 0.48052 0.80867 0.0
O369 O 0.40098 0.48601 0.90173 0.0
C370 C 0.38756 0.48124 0.87043 0.0
C371 C 0.44168 0.5047 0.00645 0.0
C372 C 0.42082 0.46157 0.8378 0.0
C373 C 0.44365 0.51414 0.78585 0.0
O374 O 0.44799 0.5084 0.83192 0.0
O375 O 0.42856 0.50877 0.77533 0.0
O376 O 0.4497 0.49906 0.97681 0.0
O377 O 0.4288 0.50329 0.97948 0.0
O378 O 0.61529 0.8725 0.07128 0.0
Cd379 Cd 0.59029 0.8571 0.07005 0.0
Cd380 Cd 0.59913 0.83728 0.00042 0.0
O381 O 0.62145 0.85879 0.00191 0.0
O382 O 0.5796 0.8704 0.08404 0.0
O383 O 0.57692 0.85685 0.99448 0.0
C384 C 0.57358 0.86639 0.02713 0.0
C385 C 0.59482 0.81866 0.91832 0.0
C386 C 0.62573 0.87114 0.03762 0.0
C387 C 0.58407 0.82684 0.13462 0.0
O388 O 0.59078 0.82486 0.08558 0.0
O389 O 0.58171 0.83887 0.13804 0.0
O390 O 0.60551 0.8221 0.96233 0.0
O391 O 0.58695 0.82648 0.91821 0.0
O392 O 0.13596 0.7475 0.03452 0.0
Cd393 Cd 0.15542 0.74375 0.01898 0.0
Cd394 Cd 0.1618 0.76502 0.93004 0.0
O395 O 0.13735 0.75783 0.93886 0.0
O396 O 0.149 0.72067 0.03924 0.0
O397 O 0.15387 0.73085 0.94086 0.0
C398 C 0.14923 0.71842 0.97827 0.0
C399 C 0.17569 0.77182 0.83209 0.0
C400 C 0.13001 0.75268 0.99219 0.0
C401 C 0.1821 0.77608 0.04938 0.0
O402 O 0.17613 0.77989 0.00256 0.0
O403 O 0.17722 0.76115 0.06089 0.0
O404 O 0.16928 0.77993 0.85473 0.0
O405 O 0.1734 0.75907 0.86309 0.0
O406 O 0.26489 0.39533 0.07251 0.0
Cd407 Cd 0.27185 0.41949 0.05946 0.0
Cd408 Cd 0.24326 0.40605 0.98919 0.0
O409 O 0.24467 0.38504 0.00251 0.0
O410 O 0.29613 0.43303 0.06579 0.0
O411 O 0.28243 0.43053 0.97656 0.0
C412 C 0.2963 0.43645 0.0058 0.0
C413 C 0.22882 0.40825 0.90227 0.0
C414 C 0.25369 0.38316 0.04278 0.0
C415 C 0.24581 0.4238 0.11495 0.0
O416 O 0.23754 0.41514 0.06807 0.0
O417 O 0.26074 0.42794 0.12127 0.0
O418 O 0.22178 0.39745 0.94619 0.0
O419 O 0.24453 0.41709 0.90415 0.0
O420 O 0.13635 0.395 0.57459 0.0
Cd421 Cd 0.15321 0.41931 0.56174 0.0
Cd422 Cd 0.16882 0.40641 0.48975 0.0
O423 O 0.14645 0.38522 0.50322 0.0
O424 O 0.14212 0.43234 0.57307 0.0
O425 O 0.15245 0.43037 0.48058 0.0
C426 C 0.14462 0.43591 0.51292 0.0
C427 C 0.18551 0.40858 0.40291 0.0
C428 C 0.13553 0.38302 0.54408 0.0
C429 C 0.18401 0.42412 0.61562 0.0
O430 O 0.18369 0.41559 0.56847 0.0
O431 O 0.17307 0.42801 0.62241 0.0
O432 O 0.18179 0.39789 0.4472 0.0
O433 O 0.1786 0.41732 0.40441 0.0
O434 O 0.61694 0.74717 0.57446 0.0
Cd435 Cd 0.59197 0.73741 0.57324 0.0
Cd436 Cd 0.59948 0.76321 0.49215 0.0
O437 O 0.62255 0.76577 0.49967 0.0
O438 O 0.58111 0.71365 0.5929 0.0
O439 O 0.5787 0.72333 0.49957 0.0
C440 C 0.57522 0.7109 0.53558 0.0
C441 C 0.59291 0.77216 0.39829 0.0
C442 C 0.62719 0.75861 0.53878 0.0
C443 C 0.58459 0.76204 0.62341 0.0
O444 O 0.59051 0.7693 0.57077 0.0
O445 O 0.58343 0.74837 0.63504 0.0
O446 O 0.60345 0.78215 0.43839 0.0
O447 O 0.58655 0.75676 0.4092 0.0
O448 O 0.26155 0.87323 0.53521 0.0
Cd449 Cd 0.26578 0.8541 0.51933 0.0
Cd450 Cd 0.24393 0.84722 0.43016 0.0
O451 O 0.25028 0.87136 0.44108 0.0
O452 O 0.28947 0.86098 0.5307 0.0
O453 O 0.27681 0.85459 0.43707 0.0
C454 C 0.29016 0.85972 0.46923 0.0
C455 C 0.23687 0.83384 0.33113 0.0
C456 C 0.25566 0.87876 0.49407 0.0
C457 C 0.23372 0.8268 0.55054 0.0
O458 O 0.22965 0.83229 0.50287 0.0
O459 O 0.24877 0.83234 0.56298 0.0
O460 O 0.22849 0.83966 0.35635 0.0
O461 O 0.24997 0.83642 0.36016 0.0
O462 O 0.06293 0.47452 0.25797 0.0
Cd463 Cd 0.0882 0.48633 0.25298 0.0
Cd464 Cd 0.08725 0.51139 0.3128 0.0
O465 O 0.0625 0.49522 0.30401 0.0
O466 O 0.09564 0.47008 0.24601 0.0
O467 O 0.10137 0.48654 0.3291 0.0
C468 C 0.10261 0.47507 0.30102 0.0
C469 C 0.09587 0.52849 0.40266 0.0
C470 C 0.05499 0.48102 0.2797 0.0
C471 C 0.10168 0.51762 0.18016 0.0
O472 O 0.09881 0.52323 0.23044 0.0
O473 O 0.09844 0.5029 0.17836 0.0
O474 O 0.08753 0.53003 0.35755 0.0
O475 O 0.09908 0.51683 0.39805 0.0
O476 O 0.53899 0.59312 0.29492 0.0
Cd477 Cd 0.52132 0.59938 0.31261 0.0
Cd478 Cd 0.51104 0.57527 0.39509 0.0
O479 O 0.53446 0.57918 0.3843 0.0
O480 O 0.53042 0.62293 0.29184 0.0
O481 O 0.52394 0.61296 0.39024 0.0
C482 C 0.52991 0.62544 0.35237 0.0
C483 C 0.49794 0.56798 0.49477 0.0
C484 C 0.54291 0.58537 0.33395 0.0
C485 C 0.49152 0.56972 0.27444 0.0
O486 O 0.49538 0.56344 0.32005 0.0
O487 O 0.49926 0.58508 0.26645 0.0
O488 O 0.50204 0.55873 0.46491 0.0
O489 O 0.50186 0.58189 0.46951 0.0
O490 O 0.41331 0.94051 0.25263 0.0
Cd491 Cd 0.40636 0.91697 0.28083 0.0
Cd492 Cd 0.43105 0.93208 0.35981 0.0
O493 O 0.42804 0.95172 0.33899 0.0
O494 O 0.38212 0.90231 0.27367 0.0
O495 O 0.39538 0.90911 0.36604 0.0
C496 C 0.38167 0.9015 0.33552 0.0
C497 C 0.43843 0.92915 0.46384 0.0
C498 C 0.42182 0.95302 0.287 0.0
C499 C 0.43522 0.91516 0.24467 0.0
O500 O 0.44196 0.92587 0.28816 0.0
O501 O 0.41979 0.90782 0.23765 0.0
O502 O 0.448 0.94128 0.42815 0.0
O503 O 0.42434 0.91863 0.44141 0.0
H504 H 0.22108 0.20514 0.35988 0.0
H505 H 0.23213 0.18962 0.18201 0.0
H506 H 0.21898 0.20199 0.12226 0.0
H507 H 0.20553 0.21841 0.11994 0.0
H508 H 0.19462 0.2341 0.29773 0.0
H509 H 0.20642 0.22043 0.35776 0.0
C510 C 0.22051 0.20435 0.30807 0.0
C511 C 0.22767 0.1965 0.27561 0.0
C512 C 0.21299 0.2116 0.27382 0.0
C513 C 0.22677 0.19559 0.20839 0.0
C514 C 0.21926 0.2027 0.17407 0.0
C515 C 0.20562 0.21876 0.17184 0.0
C516 C 0.19924 0.22736 0.20413 0.0
C517 C 0.21252 0.21092 0.2062 0.0
C518 C 0.19945 0.22761 0.27147 0.0
C519 C 0.20624 0.21981 0.30594 0.0
H520 H 0.8016 0.01706 0.38196 0.0
H521 H 0.81458 0.04585 0.20902 0.0
H522 H 0.80221 0.02107 0.14457 0.0
H523 H 0.78637 0.99119 0.13729 0.0
H524 H 0.77396 0.96233 0.30984 0.0
H525 H 0.7875 0.98714 0.37428 0.0
C526 C 0.80183 0.01792 0.33015 0.0
C527 C 0.80891 0.03332 0.30046 0.0
C528 C 0.79473 1.00359 0.29324 0.0
C529 C 0.80922 0.03419 0.23323 0.0
C530 C 0.80209 0.02 0.19626 0.0
C531 C 0.78671 0.99032 0.18898 0.0
C532 C 0.77903 0.97491 0.21867 0.0
C533 C 0.7946 0.00464 0.22575 0.0
C534 C 0.77974 0.97402 0.28569 0.0
C535 C 0.78745 0.98821 0.32263 0.0
H536 H 0.99436 0.78982 0.371 0.0
H537 H 0.96861 0.77844 0.19095 0.0
H538 H 0.99451 0.7917 0.13315 0.0
H539 H 0.02447 0.80493 0.1332 0.0
H540 H 0.05022 0.81608 0.31319 0.0
H541 H 0.0244 0.80467 0.37117 0.0
C542 C 0.9944 0.79037 0.31913 0.0
C543 C 0.9795 0.78302 0.2855 0.0
C544 C 0.00938 0.79794 0.286 0.0
C545 C 0.97985 0.78392 0.21823 0.0
C546 C 0.99468 0.79149 0.18502 0.0
C547 C 0.02447 0.80504 0.18511 0.0
C548 C 0.03932 0.81129 0.21864 0.0
C549 C 0.00952 0.7983 0.21833 0.0
C550 C 0.03902 0.81133 0.28598 0.0
C551 C 0.02423 0.80475 0.31929 0.0
H552 H 0.80895 0.78764 0.85876 0.0
H553 H 0.81588 0.76825 0.68226 0.0
H554 H 0.8021 0.78001 0.62309 0.0
H555 H 0.78676 0.79453 0.62179 0.0
H556 H 0.77987 0.81415 0.79762 0.0
H557 H 0.79497 0.80365 0.85638 0.0
C558 C 0.80759 0.78612 0.80727 0.0
C559 C 0.8134 0.77697 0.77521 0.0
C560 C 0.79955 0.79288 0.77332 0.0
C561 C 0.81153 0.77518 0.70838 0.0
C562 C 0.8036 0.78188 0.67439 0.0
C563 C 0.78862 0.79659 0.67292 0.0
C564 C 0.78207 0.80503 0.70522 0.0
C565 C 0.79734 0.79053 0.70645 0.0
C566 C 0.78474 0.80768 0.77146 0.0
C567 C 0.79336 0.80165 0.80518 0.0
H568 H 0.23294 0.03744 0.70474 0.0
H569 H 0.22253 0.02127 0.90117 0.0
H570 H 0.20775 0.99294 0.86594 0.0
H571 H 0.19927 0.97262 0.77967 0.0
H572 H 0.21012 0.98887 0.58342 0.0
H573 H 0.2231 0.01717 0.61828 0.0
C574 C 0.2273 0.02774 0.73986 0.0
C575 C 0.22894 0.03154 0.80556 0.0
C576 C 0.21894 0.01142 0.71931 0.0
C577 C 0.22152 0.01876 0.8503 0.0
C578 C 0.21308 1.00251 0.8302 0.0
C579 C 0.20433 0.98234 0.74446 0.0
C580 C 0.20377 0.97857 0.679 0.0
C581 C 0.21194 0.99867 0.76488 0.0
C582 C 0.21041 0.99137 0.63413 0.0
C583 C 0.21787 0.0076 0.65402 0.0
H584 H 0.01999 0.21892 0.6297 0.0
H585 H 0.04889 0.23732 0.80149 0.0
H586 H 0.0241 0.22565 0.86615 0.0
H587 H 0.99423 0.21149 0.87383 0.0
H588 H 0.96516 0.19292 0.70265 0.0
H589 H 0.98997 0.2033 0.63815 0.0
C590 C 0.02088 0.22027 0.68133 0.0
C591 C 0.03633 0.22909 0.71052 0.0
C592 C 0.00652 0.21355 0.71845 0.0
C593 C 0.0372 0.23064 0.77757 0.0
C594 C 0.02301 0.224 0.81469 0.0
C595 C 0.99329 0.20962 0.82245 0.0
C596 C 0.97782 0.20152 0.79318 0.0
C597 C 0.00761 0.21563 0.78561 0.0
C598 C 0.97688 0.19912 0.72654 0.0
C599 C 0.99108 0.20509 0.68954 0.0
H600 H 0.88158 0.56023 0.46237 0.0
H601 H 0.86885 0.57665 0.63392 0.0
H602 H 0.88032 0.56356 0.69963 0.0
H603 H 0.89527 0.54864 0.7085 0.0
H604 H 0.90695 0.53114 0.53746 0.0
H605 H 0.89452 0.54332 0.47165 0.0
C606 C 0.88122 0.56085 0.51414 0.0
C607 C 0.87448 0.56954 0.54309 0.0
C608 C 0.8877 0.55313 0.55182 0.0
C609 C 0.87396 0.57006 0.61029 0.0
C610 C 0.88057 0.56261 0.64798 0.0
C611 C 0.895 0.5474 0.65684 0.0
C612 C 0.90216 0.5391 0.62796 0.0
C613 C 0.88768 0.5543 0.61928 0.0
C614 C 0.90153 0.53745 0.56098 0.0
C615 C 0.89447 0.54448 0.52326 0.0
H616 H 0.44674 0.32149 0.44872 0.0
H617 H 0.43893 0.29533 0.62639 0.0
H618 H 0.45353 0.32108 0.68452 0.0
H619 H 0.46719 0.35105 0.68568 0.0
H620 H 0.47533 0.37713 0.50752 0.0
H621 H 0.46207 0.35143 0.44895 0.0
C622 C 0.44831 0.32141 0.50012 0.0
C623 C 0.44162 0.30648 0.53316 0.0
C624 C 0.45677 0.33627 0.53326 0.0
C625 C 0.44392 0.30663 0.59971 0.0
C626 C 0.45224 0.32136 0.63305 0.0
C627 C 0.4662 0.35113 0.63398 0.0
C628 C 0.47217 0.36603 0.60119 0.0
C629 C 0.45853 0.33626 0.60045 0.0
C630 C 0.47085 0.36587 0.5341 0.0
C631 C 0.46321 0.35116 0.5005 0.0
H632 H 0.68726 0.13674 0.47031 0.0
H633 H 0.71665 0.1467 0.64035 0.0
H634 H 0.69206 0.13344 0.70614 0.0
H635 H 0.66215 0.11786 0.71529 0.0
H636 H 0.63265 0.10807 0.54575 0.0
H637 H 0.65728 0.12245 0.48027 0.0
C638 C 0.6883 0.13613 0.52181 0.0
C639 C 0.70384 0.14267 0.55014 0.0
C640 C 0.67405 0.12843 0.5596 0.0
C641 C 0.7049 0.14178 0.61706 0.0
C642 C 0.69081 0.13415 0.65484 0.0
C643 C 0.66109 0.11894 0.66406 0.0
C644 C 0.64553 0.11179 0.63557 0.0
C645 C 0.67532 0.12725 0.62659 0.0
C646 C 0.64444 0.11342 0.56909 0.0
C647 C 0.65853 0.12163 0.5315 0.0
H648 H 0.47568 0.10538 0.06328 0.0
H649 H 0.46689 0.11751 0.25252 0.0
H650 H 0.45366 0.13159 0.20658 0.0
H651 H 0.44316 0.13917 0.11283 0.0
H652 H 0.45063 0.12573 0.92392 0.0
H653 H 0.46581 0.11358 0.96938 0.0
C654 C 0.47103 0.11125 0.09442 0.0
C655 C 0.47228 0.11037 0.16125 0.0
C656 C 0.46309 0.11905 0.0677 0.0
C657 C 0.46605 0.11794 0.20092 0.0
C658 C 0.45846 0.126 0.17468 0.0
C659 C 0.44825 0.13373 0.08158 0.0
C660 C 0.44573 0.13335 0.01507 0.0
C661 C 0.4567 0.12644 0.10817 0.0
C662 C 0.45232 0.12613 0.97531 0.0
C663 C 0.46101 0.11917 0.00127 0.0
H664 H 0.86986 0.30294 0.11763 0.0
H665 H 0.86853 0.32253 0.93269 0.0
H666 H 0.88208 0.35004 0.97709 0.0
H667 H 0.89555 0.36877 0.06743 0.0
H668 H 0.89781 0.34914 0.25111 0.0
H669 H 0.88268 0.32155 0.20835 0.0
C670 C 0.87239 0.31321 0.08714 0.0
C671 C 0.86817 0.31063 0.02188 0.0
C672 C 0.88046 0.32906 0.11274 0.0
C673 C 0.87166 0.32412 0.98306 0.0
C674 C 0.87944 0.33989 0.00841 0.0
C675 C 0.89262 0.35845 0.09822 0.0
C676 C 0.89787 0.36108 0.1624 0.0
C677 C 0.88409 0.34255 0.07302 0.0
C678 C 0.89401 0.34753 0.20148 0.0
C679 C 0.88533 0.33171 0.17707 0.0
H680 H 0.65409 0.53869 0.18778 0.0
H681 H 0.62824 0.52815 0.00814 0.0
H682 H 0.65405 0.54012 0.94991 0.0
H683 H 0.68403 0.55492 0.94987 0.0
H684 H 0.70999 0.5654 0.12916 0.0
H685 H 0.6841 0.55203 0.18742 0.0
C686 C 0.65408 0.53889 0.13587 0.0
C687 C 0.6392 0.5326 0.1025 0.0
C688 C 0.66902 0.54584 0.10253 0.0
C689 C 0.63946 0.53291 0.03518 0.0
C690 C 0.65425 0.5398 0.00176 0.0
C691 C 0.68405 0.55419 0.00168 0.0
C692 C 0.69897 0.56126 0.03503 0.0
C693 C 0.66911 0.54651 0.03493 0.0
C694 C 0.69872 0.56009 0.10218 0.0
C695 C 0.6839 0.55247 0.1356 0.0
H696 H 0.53419 0.90162 0.95329 0.0
H697 H 0.53591 0.88298 0.7669 0.0
H698 H 0.5499 0.86958 0.81222 0.0
H699 H 0.56279 0.86411 0.90406 0.0
H700 H 0.56181 0.88357 0.08959 0.0
H701 H 0.54642 0.89558 0.04542 0.0
C702 C 0.53749 0.89451 0.92264 0.0
C703 C 0.53399 0.89334 0.85673 0.0
C704 C 0.54578 0.88702 0.94885 0.0
C705 C 0.53846 0.88413 0.81776 0.0
C706 C 0.5465 0.87646 0.84364 0.0
C707 C 0.55912 0.87088 0.93492 0.0
C708 C 0.56351 0.87293 8e-05 0.0
C709 C 0.5504 0.87797 0.909 0.0
C710 C 0.55867 0.88182 0.03924 0.0
C711 C 0.54985 0.88871 0.01402 0.0
H712 H 0.11801 0.64353 0.9127 0.0
H713 H 0.11345 0.66114 0.7277 0.0
H714 H 0.12774 0.68906 0.76729 0.0
H715 H 0.14042 0.70846 0.85546 0.0
H716 H 0.14382 0.69097 0.04226 0.0
H717 H 0.1313 0.66316 0.00092 0.0
C718 C 0.12024 0.65349 0.88098 0.0
C719 C 0.11461 0.65019 0.81732 0.0
C720 C 0.12829 0.66959 0.90439 0.0
C721 C 0.11755 0.66327 0.77699 0.0
C722 C 0.12576 0.67928 0.79955 0.0
C723 C 0.13862 0.6986 0.887 0.0
C724 C 0.14311 0.70183 0.95185 0.0
C725 C 0.13104 0.68258 0.86329 0.0
C726 C 0.14049 0.68885 0.99213 0.0
C727 C 0.13329 0.67292 0.96854 0.0
H728 H 0.32686 0.45267 0.05656 0.0
H729 H 0.30109 0.44196 0.87679 0.0
H730 H 0.32704 0.45582 0.81904 0.0
H731 H 0.35711 0.46943 0.81925 0.0
H732 H 0.3827 0.48003 -0.00046 0.0
H733 H 0.35682 0.46792 0.05715 0.0
C734 C 0.3269 0.45347 0.00476 0.0
C735 C 0.31201 0.44615 0.97113 0.0
C736 C 0.34187 0.46142 0.97181 0.0
C737 C 0.31233 0.44743 0.90399 0.0
C738 C 0.32719 0.45534 0.87086 0.0
C739 C 0.35704 0.46927 0.87115 0.0
C740 C 0.37188 0.47557 0.90487 0.0
C741 C 0.34205 0.46215 0.90421 0.0
C742 C 0.37151 0.47525 0.9722 0.0
C743 C 0.35669 0.46827 0.0053 0.0
H744 H 0.11186 0.47675 0.42589 0.0
H745 H 0.11348 0.45662 0.2428 0.0
H746 H 0.12758 0.44367 0.29108 0.0
H747 H 0.1386 0.43715 0.38612 0.0
H748 H 0.13547 0.45586 0.57041 0.0
H749 H 0.12297 0.4703 0.52101 0.0
C750 C 0.11539 0.46961 0.39652 0.0
C751 C 0.11161 0.46768 0.33079 0.0
C752 C 0.12324 0.46191 0.42489 0.0
C753 C 0.11617 0.45827 0.29355 0.0
C754 C 0.12426 0.45086 0.32111 0.0
C755 C 0.13533 0.44453 0.41534 0.0
C756 C 0.13803 0.44547 0.48184 0.0
C757 C 0.12776 0.45248 0.38682 0.0
C758 C 0.13352 0.45491 0.51913 0.0
C759 C 0.12635 0.46317 0.49091 0.0
H760 H 0.53629 0.63538 0.47667 0.0
H761 H 0.53944 0.65339 0.28436 0.0
H762 H 0.55292 0.68133 0.32419 0.0
H763 H 0.56515 0.70083 0.41305 0.0
H764 H 0.56286 0.68277 0.60471 0.0
H765 H 0.54773 0.6548 0.56579 0.0
C766 C 0.53976 0.6454 0.44352 0.0
C767 C 0.53685 0.64225 0.37759 0.0
C768 C 0.54779 0.6615 0.46663 0.0
C769 C 0.54155 0.65543 0.33534 0.0
C770 C 0.54929 0.67144 0.35807 0.0
C771 C 0.56123 0.69078 0.44638 0.0
C772 C 0.5652 0.69395 0.51172 0.0
C773 C 0.55269 0.67465 0.42352 0.0
C774 C 0.56006 0.68073 0.55414 0.0
C775 C 0.55138 0.6647 0.53193 0.0
H776 H 0.35105 0.88435 0.28496 0.0
H777 H 0.3767 0.8992 0.46506 0.0
H778 H 0.35073 0.8868 0.52259 0.0
H779 H 0.32067 0.87305 0.52163 0.0
H780 H 0.29514 0.85845 0.34116 0.0
H781 H 0.32105 0.8693 0.28434 0.0
C782 C 0.35098 0.88477 0.33683 0.0
C783 C 0.36586 0.8928 0.37047 0.0
C784 C 0.33598 0.87768 0.36972 0.0
C785 C 0.36547 0.89316 0.43776 0.0
C786 C 0.3506 0.88608 0.47079 0.0
C787 C 0.32075 0.87209 0.46992 0.0
C788 C 0.30592 0.86498 0.43586 0.0
C789 C 0.33576 0.8785 0.43726 0.0
C790 C 0.30632 0.86387 0.36878 0.0
C791 C 0.32116 0.87012 0.3361 0.0
H792 H 0.10928 0.24008 0.83633 0.0
H793 H 0.12113 0.28894 0.88455 0.0
H794 H 0.13495 0.28793 0.98186 0.0
H795 H 0.14609 0.27442 0.04635 0.0
H796 H 0.1374 0.22686 0.99224 0.0
H797 H 0.11982 0.22597 0.90436 0.0
C798 C 0.11461 0.25032 0.86909 0.0
C799 C 0.11411 0.26451 0.85413 0.0
C800 C 0.12324 0.24993 0.92331 0.0
C801 C 0.12134 0.27789 0.89567 0.0
C802 C 0.12928 0.27733 0.95103 0.0
C803 C 0.14013 0.2637 0.01613 0.0
C804 C 0.14304 0.2507 0.02594 0.0
C805 C 0.13066 0.26359 0.9644 0.0
C806 C 0.13538 0.23703 0.98565 0.0
C807 C 0.12537 0.23655 0.93534 0.0
H808 H 0.76427 0.88687 0.05184 0.0
H809 H 0.76309 0.92293 0.92942 0.0
H810 H 0.76215 0.90731 0.83501 0.0
H811 H 0.75816 0.8818 0.7886 0.0
H812 H 0.76021 0.84608 0.90963 0.0
H813 H 0.76434 0.86319 0.00376 0.0
C814 C 0.76413 0.89146 0.0044 0.0
C815 C 0.76352 0.90591 0.99757 0.0
C816 C 0.76349 0.88237 0.95042 0.0
C817 C 0.76357 0.91185 0.93593 0.0
C818 C 0.76288 0.90285 0.88197 0.0
C819 C 0.75968 0.87787 0.83561 0.0
C820 C 0.75858 0.86263 0.84283 0.0
C821 C 0.76225 0.88784 0.88887 0.0
C822 C 0.76092 0.85775 0.90336 0.0
C823 C 0.76324 0.8675 0.957 0.0
H824 H 0.11013 0.87131 0.01622 0.0
H825 H 0.1399 0.85081 0.07287 0.0
H826 H 0.15986 0.86665 0.99103 0.0
H827 H 0.16797 0.88464 0.89786 0.0
H828 H 0.13977 0.90687 0.84333 0.0
H829 H 0.12028 0.89233 0.9301 0.0
C830 C 0.12107 0.87047 0.01089 0.0
C831 C 0.1234 0.85975 0.05027 0.0
C832 C 0.1328 0.87993 0.9641 0.0
C833 C 0.13775 0.85894 0.04336 0.0
C834 C 0.1492 0.86797 0.99636 0.0
C835 C 0.15769 0.88649 0.90573 0.0
C836 C 0.1552 0.89668 0.8643 0.0
C837 C 0.14672 0.87826 0.95579 0.0
C838 C 0.14195 0.89913 0.87506 0.0
C839 C 0.13075 0.89071 0.92428 0.0
H840 H 0.24226 0.1066 0.64164 0.0
H841 H 0.28653 0.11122 0.56402 0.0
H842 H 0.28415 0.12514 0.46959 0.0
H843 H 0.27143 0.13874 0.41605 0.0
H844 H 0.22887 0.13711 0.49861 0.0
H845 H 0.22851 0.11921 0.58399 0.0
C846 C 0.25109 0.11031 0.60307 0.0
C847 C 0.26444 0.10777 0.60894 0.0
C848 C 0.25008 0.11905 0.55048 0.0
C849 C 0.27611 0.11296 0.55989 0.0
C850 C 0.27479 0.12099 0.50622 0.0
C851 C 0.26189 0.13429 0.45205 0.0
C852 C 0.25022 0.13933 0.45099 0.0
C853 C 0.26212 0.12453 0.502 0.0
C854 C 0.23804 0.13349 0.49843 0.0
C855 C 0.23785 0.12327 0.5473 0.0
H856 H 0.84676 0.0974 0.5744 0.0
H857 H 0.8862 0.11968 0.4385 0.0
H858 H 0.90381 0.13926 0.51979 0.0
H859 H 0.90694 0.15173 0.6268 0.0
H860 H 0.86597 0.13098 0.75679 0.0
H861 H 0.85001 0.10929 0.68089 0.0
C862 C 0.85937 0.10624 0.56332 0.0
C863 C 0.86532 0.10696 0.50125 0.0
C864 C 0.86902 0.11801 0.60894 0.0
C865 C 0.88149 0.1188 0.48651 0.0
C866 C 0.89148 0.13008 0.53272 0.0
C867 C 0.89455 0.1424 0.6384 0.0
C868 C 0.8876 0.14305 0.69702 0.0
C869 C 0.88521 0.13011 0.59361 0.0
C870 C 0.87152 0.1309 0.71155 0.0
C871 C 0.8624 0.11841 0.66837 0.0
H872 H 0.87157 0.76462 0.64313 0.0
H873 H 0.83501 0.71679 0.58007 0.0
H874 H 0.85157 0.71926 0.4862 0.0
H875 H 0.87747 0.73371 0.42881 0.0
H876 H 0.91565 0.78015 0.49806 0.0
H877 H 0.89748 0.77963 0.5828 0.0
C878 C 0.86713 0.75495 0.60787 0.0
C879 C 0.85206 0.74063 0.61766 0.0
C880 C 0.87711 0.75613 0.55584 0.0
C881 C 0.84654 0.72795 0.57293 0.0
C882 C 0.85603 0.72934 0.51958 0.0
C883 C 0.88177 0.74387 0.46177 0.0
C884 C 0.8979 0.75697 0.45706 0.0
C885 C 0.8715 0.74318 0.51151 0.0
C886 C 0.90331 0.7699 0.50077 0.0
C887 C 0.89293 0.7696 0.5492 0.0
H888 H 0.87677 0.77258 0.98095 0.0
H889 H 0.86496 0.72582 0.90235 0.0
H890 H 0.88135 0.7226 0.98377 0.0
H891 H 0.89629 0.73135 0.08482 0.0
H892 H 0.90987 0.77851 0.16189 0.0
H893 H 0.89576 0.78339 0.07348 0.0
C894 C 0.87802 0.76183 0.98107 0.0
C895 C 0.86937 0.74936 0.93613 0.0
C896 C 0.8877 0.76005 0.02805 0.0
C897 C 0.87133 0.7356 0.93646 0.0
C898 C 0.88068 0.73367 0.98325 0.0
C899 C 0.89644 0.74283 0.08131 0.0
C900 C 0.90392 0.7545 0.12955 0.0
C901 C 0.88849 0.74556 0.03034 0.0
C902 C 0.9042 0.7694 0.12477 0.0
C903 C 0.89603 0.77211 0.07459 0.0
H904 H 0.2379 0.10496 0.9695 0.0
H905 H 0.28769 0.13636 0.90808 0.0
H906 H 0.29151 0.156 0.99059 0.0
H907 H 0.28171 0.16304 0.08704 0.0
H908 H 0.23164 0.13307 0.14596 0.0
H909 H 0.22682 0.11422 0.05733 0.0
C910 C 0.24949 0.11621 0.97375 0.0
C911 C 0.26254 0.11907 0.93319 0.0
C912 C 0.25158 0.12768 0.02099 0.0
C913 C 0.27743 0.13381 0.93864 0.0
C914 C 0.27968 0.14506 0.98605 0.0
C915 C 0.26967 0.15253 0.07959 0.0
C916 C 0.25708 0.1493 0.12285 0.0
C917 C 0.26699 0.14194 0.02841 0.0
C918 C 0.24149 0.13578 0.1128 0.0
C919 C 0.23878 0.12496 0.06251 0.0
H920 H 0.88235 0.13266 0.22497 0.0
H921 H 0.84472 0.09625 0.10524 0.0
H922 H 0.86189 0.10855 0.01022 0.0
H923 H 0.88655 0.13127 0.96125 0.0
H924 H 0.92467 0.16679 0.08246 0.0
H925 H 0.90856 0.15293 0.17745 0.0
C926 C 0.878 0.12738 0.17799 0.0
C927 C 0.86224 0.11384 0.1714 0.0
C928 C 0.88805 0.13428 0.12428 0.0
C929 C 0.85679 0.10678 0.11095 0.0
C930 C 0.86659 0.11381 0.05685 0.0
C931 C 0.89146 0.13577 0.00856 0.0
C932 C 0.9067 0.15014 0.01489 0.0
C933 C 0.8821 0.12777 0.06288 0.0
C934 C 0.91301 0.15574 0.07634 0.0
C935 C 0.90373 0.14792 0.13063 0.0
H936 H 0.76392 0.90353 0.38434 0.0
H937 H 0.74182 0.86254 0.25537 0.0
H938 H 0.74687 0.84607 0.3311 0.0
H939 H 0.75528 0.84242 0.43755 0.0
H940 H 0.7748 0.88224 0.57167 0.0
H941 H 0.77347 0.90014 0.4903 0.0
C942 C 0.76033 0.89103 0.37282 0.0
C943 C 0.75236 0.88423 0.31467 0.0
C944 C 0.76293 0.88144 0.41742 0.0
C945 C 0.74776 0.86801 0.30026 0.0
C946 C 0.75072 0.85858 0.34337 0.0
C947 C 0.75967 0.85515 0.44828 0.0
C948 C 0.7653 0.86109 0.51004 0.0
C949 C 0.75804 0.86506 0.4025 0.0
C950 C 0.77055 0.87747 0.52407 0.0
C951 C 0.76965 0.88765 0.47778 0.0
H952 H 0.11296 0.86895 0.35023 0.0
H953 H 0.12107 0.83065 0.41737 0.0
H954 H 0.13573 0.84699 0.51068 0.0
H955 H 0.14853 0.87302 0.56672 0.0
H956 H 0.1433 0.91273 0.49409 0.0
H957 H 0.12519 0.89504 0.40943 0.0
C958 C 0.11765 0.86411 0.38621 0.0
C959 C 0.11586 0.84861 0.3777 0.0
C960 C 0.12675 0.87392 0.43809 0.0
C961 C 0.12228 0.84254 0.42344 0.0
C962 C 0.1307 0.8519 0.47651 0.0
C963 C 0.14325 0.87778 0.53301 0.0
C964 C 0.14727 0.89418 0.53673 0.0
C965 C 0.13337 0.86775 0.48339 0.0
C966 C 0.14045 0.90017 0.49214 0.0
C967 C 0.1301 0.89006 0.44373 0.0
H968 H 0.13607 0.27352 0.54819 0.0
H969 H 0.09628 0.22671 0.49015 0.0
H970 H 0.11297 0.22579 0.40232 0.0
H971 H 0.13791 0.23981 0.33522 0.0
H972 H 0.17593 0.28799 0.38763 0.0
H973 H 0.16104 0.28683 0.48502 0.0
C974 C 0.13109 0.26295 0.51712 0.0
C975 C 0.11493 0.25019 0.52577 0.0
C976 C 0.14048 0.26283 0.46546 0.0
C977 C 0.10867 0.2367 0.48446 0.0
C978 C 0.1182 0.2362 0.43417 0.0
C979 C 0.14302 0.24985 0.36894 0.0
C980 C 0.15801 0.2639 0.35512 0.0
C981 C 0.13398 0.24939 0.42322 0.0
C982 C 0.16444 0.27704 0.39788 0.0
C983 C 0.1559 0.2764 0.45328 0.0
H984 H 0.83765 0.59749 0.26664 0.0
H985 H 0.79741 0.57526 0.39913 0.0
H986 H 0.77904 0.5758 0.31784 0.0
H987 H 0.77501 0.58474 0.21146 0.0
H988 H 0.81627 0.60952 0.08416 0.0
H989 H 0.83361 0.606 0.16078 0.0
C990 C 0.82477 0.59238 0.27699 0.0
C991 C 0.81879 0.58608 0.33815 0.0
C992 C 0.81452 0.59354 0.23129 0.0
C993 C 0.80219 0.57997 0.3519 0.0
C994 C 0.79174 0.58042 0.30567 0.0
C995 C 0.78778 0.58932 0.20059 0.0
C996 C 0.79433 0.59748 0.14237 0.0
C997 C 0.79785 0.58755 0.24564 0.0
C998 C 0.81093 0.60337 0.12894 0.0
C999 C 0.82087 0.60128 0.17257 0.0
H1000 H 0.41929 0.21277 0.10943 0.0
H1001 H 0.4227 0.17707 0.22565 0.0
H1002 H 0.4263 0.19341 0.32171 0.0
H1003 H 0.42571 0.21655 0.37303 0.0
H1004 H 0.42352 0.25275 0.25491 0.0
H1005 H 0.4226 0.23771 0.1589 0.0
C1006 C 0.421 0.20868 0.15579 0.0
C1007 C 0.42047 0.19366 0.16097 0.0
C1008 C 0.4233 0.21823 0.21025 0.0
C1009 C 0.423 0.18858 0.22081 0.0
C1010 C 0.42501 0.19789 0.27561 0.0
C1011 C 0.42533 0.22129 0.3262 0.0
C1012 C 0.42448 0.23565 0.32123 0.0
C1013 C 0.42479 0.21256 0.27103 0.0
C1014 C 0.42419 0.24175 0.26019 0.0
C1015 C 0.42352 0.23308 0.20522 0.0
H1016 H 0.80445 0.23405 0.17012 0.0
H1017 H 0.84377 0.2266 0.22945 0.0
H1018 H 0.82882 0.21292 0.32693 0.0
H1019 H 0.80353 0.20042 0.3883 0.0
H1020 H 0.76262 0.20476 0.32369 0.0
H1021 H 0.77919 0.22241 0.23558 0.0
C1022 C 0.80983 0.22975 0.20538 0.0
C1023 C 0.82522 0.23145 0.19351 0.0
C1024 C 0.80078 0.22117 0.25977 0.0
C1025 C 0.83198 0.2255 0.23824 0.0
C1026 C 0.82341 0.21763 0.29367 0.0
C1027 C 0.79826 0.20544 0.35573 0.0
C1028 C 0.78182 0.20124 0.36266 0.0
C1029 C 0.80763 0.21499 0.30398 0.0
C1030 C 0.77522 0.20775 0.31942 0.0
C1031 C 0.78468 0.21781 0.26894 0.0
H1032 H 0.90919 0.4631 0.81328 0.0
H1033 H 0.91707 0.50463 0.92517 0.0
H1034 H 0.91834 0.4911 0.02275 0.0
H1035 H 0.92099 0.46916 0.07366 0.0
H1036 H 0.91313 0.42763 0.96207 0.0
H1037 H 0.90813 0.43951 0.86669 0.0
C1038 C 0.91084 0.46906 0.85919 0.0
C1039 C 0.91327 0.48497 0.86178 0.0
C1040 C 0.91189 0.46135 0.91486 0.0
C1041 C 0.91517 0.49242 0.92171 0.0
C1042 C 0.91608 0.48475 0.97748 0.0
C1043 C 0.91805 0.46265 0.02853 0.0
C1044 C 0.91775 0.4477 0.02445 0.0
C1045 C 0.91511 0.46951 0.97419 0.0
C1046 C 0.91356 0.43921 0.96618 0.0
C1047 C 0.91072 0.44601 0.91171 0.0
H1048 H 0.56184 0.46818 0.97293 0.0
H1049 H 0.55378 0.50718 0.91547 0.0
H1050 H 0.53946 0.49206 0.81936 0.0
H1051 H 0.52692 0.46681 0.758 0.0
H1052 H 0.53203 0.42628 0.82082 0.0
H1053 H 0.54985 0.44287 0.9083 0.0
C1054 C 0.55723 0.47343 0.93842 0.0
C1055 C 0.55897 0.4888 0.95034 0.0
C1056 C 0.54832 0.4643 0.88484 0.0
C1057 C 0.55264 0.4954 0.9066 0.0
C1058 C 0.54441 0.48674 0.85195 0.0
C1059 C 0.53213 0.46164 0.79014 0.0
C1060 C 0.52815 0.44532 0.78281 0.0
C1061 C 0.54182 0.47102 0.84145 0.0
C1062 C 0.53486 0.4388 0.82549 0.0
C1063 C 0.54504 0.44827 0.87555 0.0
H1064 H 0.55421 0.0918 0.80604 0.0
H1065 H 0.59266 0.09384 0.92361 0.0
H1066 H 0.57688 0.09116 0.01985 0.0
H1067 H 0.55088 0.08507 0.06969 0.0
H1068 H 0.51296 0.08451 0.95404 0.0
H1069 H 0.52977 0.08973 0.85772 0.0
C1070 C 0.55928 0.092 0.85282 0.0
C1071 C 0.57453 0.09284 0.85753 0.0
C1072 C 0.55011 0.09043 0.90811 0.0
C1073 C 0.58099 0.09325 0.9185 0.0
C1074 C 0.5719 0.09155 0.97361 0.0
C1075 C 0.54639 0.08625 0.02336 0.0
C1076 C 0.53065 0.08413 0.01839 0.0
C1077 C 0.55624 0.08959 0.9688 0.0
C1078 C 0.52503 0.08601 0.95865 0.0
C1079 C 0.53462 0.08896 0.90373 0.0
H1080 H 0.54752 0.09006 0.30443 0.0
H1081 H 0.51203 0.09391 0.4214 0.0
H1082 H 0.52551 0.09215 0.51805 0.0
H1083 H 0.54546 0.08639 0.56897 0.0
H1084 H 0.58198 0.08409 0.4538 0.0
H1085 H 0.57003 0.08835 0.35654 0.0
C1086 C 0.54294 0.09084 0.35111 0.0
C1087 C 0.52867 0.09192 0.35566 0.0
C1088 C 0.55077 0.08983 0.40664 0.0
C1089 C 0.52298 0.0931 0.41644 0.0
C1090 C 0.5306 0.09194 0.47181 0.0
C1091 C 0.55086 0.08699 0.52251 0.0
C1092 C 0.56434 0.08465 0.51797 0.0
C1093 C 0.54416 0.08978 0.46739 0.0
C1094 C 0.57152 0.08577 0.45804 0.0
C1095 C 0.56468 0.08817 0.40261 0.0
H1096 H 0.90936 0.45031 0.31572 0.0
H1097 H 0.91716 0.4165 0.42726 0.0
H1098 H 0.91978 0.43198 0.52421 0.0
H1099 H 0.92339 0.45698 0.5744 0.0
H1100 H 0.91559 0.4908 0.46327 0.0
H1101 H 0.90953 0.47347 0.36871 0.0
C1102 C 0.91131 0.44612 0.36142 0.0
C1103 C 0.9133 0.43238 0.364 0.0
C1104 C 0.91314 0.45527 0.41673 0.0
C1105 C 0.9156 0.42702 0.42377 0.0
C1106 C 0.91728 0.43598 0.47917 0.0
C1107 C 0.92026 0.4605 0.52953 0.0
C1108 C 0.92025 0.4753 0.52531 0.0
C1109 C 0.91669 0.45044 0.47571 0.0
C1110 C 0.91582 0.47954 0.46744 0.0
C1111 C 0.91236 0.46964 0.41344 0.0
H1112 H 0.53727 0.44338 0.47306 0.0
H1113 H 0.49775 0.45073 0.41572 0.0
H1114 H 0.51278 0.4651 0.31933 0.0
H1115 H 0.53808 0.47791 0.25776 0.0
H1116 H 0.5791 0.47353 0.32048 0.0
H1117 H 0.56263 0.45562 0.40817 0.0
C1118 C 0.53189 0.44785 0.43851 0.0
C1119 C 0.51641 0.4459 0.45055 0.0
C1120 C 0.54096 0.45679 0.38477 0.0
C1121 C 0.50962 0.45204 0.40676 0.0
C1122 C 0.51823 0.4603 0.35195 0.0
C1123 C 0.54338 0.47285 0.28991 0.0
C1124 C 0.55981 0.47705 0.28252 0.0
C1125 C 0.53406 0.4631 0.34135 0.0
C1126 C 0.5665 0.47052 0.32521 0.0
C1127 C 0.55709 0.4603 0.37539 0.0
H1128 H 0.41866 0.20461 0.60921 0.0
H1129 H 0.4203 0.2429 0.72522 0.0
H1130 H 0.42527 0.23101 0.82098 0.0
H1131 H 0.42642 0.20814 0.87227 0.0
H1132 H 0.42598 0.17062 0.7542 0.0
H1133 H 0.42368 0.18402 0.65836 0.0
C1134 C 0.42027 0.21041 0.65546 0.0
C1135 C 0.41885 0.2244 0.66071 0.0
C1136 C 0.42338 0.20367 0.70971 0.0
C1137 C 0.42128 0.23206 0.72036 0.0
C1138 C 0.42407 0.22524 0.77498 0.0
C1139 C 0.42613 0.20307 0.82547 0.0
C1140 C 0.42616 0.18827 0.82054 0.0
C1141 C 0.42477 0.21083 0.77038 0.0
C1142 C 0.42597 0.18196 0.7595 0.0
C1143 C 0.42451 0.18955 0.70461 0.0
H1144 H 0.77569 0.20496 0.67645 0.0
H1145 H 0.78902 0.16882 0.72091 0.0
H1146 H 0.80258 0.18343 0.81886 0.0
H1147 H 0.81317 0.20781 0.88474 0.0
H1148 H 0.80303 0.24593 0.83427 0.0
H1149 H 0.78559 0.22924 0.74611 0.0
C1150 C 0.78128 0.20017 0.70854 0.0
C1151 C 0.7813 0.18581 0.69229 0.0
C1152 C 0.78976 0.20909 0.76314 0.0
C1153 C 0.78886 0.17984 0.73299 0.0
C1154 C 0.79664 0.18821 0.78873 0.0
C1155 C 0.80691 0.21238 0.8553 0.0
C1156 C 0.80938 0.22809 0.86615 0.0
C1157 C 0.79754 0.20305 0.80332 0.0
C1158 C 0.80135 0.23389 0.82686 0.0
C1159 C 0.79141 0.22436 0.77637 0.0
H1160 H 0.79296 0.58227 0.88139 0.0
H1161 H 0.75412 0.57755 0.75905 0.0
H1162 H 0.77052 0.58032 0.6645 0.0
H1163 H 0.79723 0.58781 0.61772 0.0
H1164 H 0.83571 0.59137 0.73865 0.0
H1165 H 0.81814 0.58536 0.83313 0.0
C1166 C 0.78795 0.58146 0.83395 0.0
C1167 C 0.77244 0.57991 0.82716 0.0
C1168 C 0.79749 0.58317 0.77986 0.0
C1169 C 0.766 0.5787 0.76554 0.0
C1170 C 0.77544 0.58046 0.71148 0.0
C1171 C 0.80165 0.58707 0.6648 0.0
C1172 C 0.81776 0.59032 0.67194 0.0
C1173 C 0.79141 0.58333 0.71825 0.0
C1174 C 0.82336 0.58901 0.73253 0.0
C1175 C 0.81333 0.58561 0.78634 0.0
H1176 H 0.44032 0.90333 0.50833 0.0
H1177 H 0.44993 0.95134 0.55881 0.0
H1178 H 0.46356 0.95057 0.65709 0.0
H1179 H 0.47548 0.93773 0.72128 0.0
H1180 H 0.46902 0.89113 0.66499 0.0
H1181 H 0.45131 0.88972 0.57675 0.0
C1182 C 0.44508 0.91341 0.54187 0.0
C1183 C 0.44404 0.92731 0.52726 0.0
C1184 C 0.45363 0.91319 0.59665 0.0
C1185 C 0.45055 0.94051 0.56974 0.0
C1186 C 0.45839 0.94008 0.62563 0.0
C1187 C 0.46997 0.92709 0.69054 0.0
C1188 C 0.47358 0.91455 0.69972 0.0
C1189 C 0.46041 0.9267 0.63857 0.0
C1190 C 0.46646 0.90097 0.65886 0.0
C1191 C 0.45637 0.90018 0.60832 0.0
H1192 H 0.11064 0.56412 0.6681 0.0
H1193 H 0.10233 0.59752 0.55585 0.0
H1194 H 0.10087 0.58258 0.4587 0.0
H1195 H 0.09807 0.55797 0.40848 0.0
H1196 H 0.10569 0.52417 0.52066 0.0
H1197 H 0.11127 0.54137 0.61531 0.0
C1198 C 0.10884 0.56836 0.62226 0.0
C1199 C 0.10631 0.58178 0.61953 0.0
C1200 C 0.10757 0.55946 0.56684 0.0
C1201 C 0.10422 0.5872 0.55954 0.0
C1202 C 0.10323 0.57857 0.50397 0.0
C1203 C 0.10109 0.55443 0.45354 0.0
C1204 C 0.10116 0.53966 0.458 0.0
C1205 C 0.10422 0.56432 0.50754 0.0
C1206 C 0.10543 0.5354 0.51623 0.0
C1207 C 0.1086 0.54522 0.5703 0.0
H1208 H 0.44274 0.53649 0.70436 0.0
H1209 H 0.4731 0.51697 0.76481 0.0
H1210 H 0.49315 0.53287 0.68331 0.0
H1211 H 0.50109 0.55046 0.58895 0.0
H1212 H 0.47227 0.57171 0.5306 0.0
H1213 H 0.45277 0.55728 0.61745 0.0
C1214 C 0.45383 0.53589 0.69999 0.0
C1215 C 0.4563 0.52541 0.74025 0.0
C1216 C 0.4656 0.54537 0.65335 0.0
C1217 C 0.47085 0.52491 0.73457 0.0
C1218 C 0.48234 0.53397 0.68776 0.0
C1219 C 0.49068 0.55214 0.59606 0.0
C1220 C 0.48801 0.56199 0.55352 0.0
C1221 C 0.4797 0.54397 0.64616 0.0
C1222 C 0.47459 0.56423 0.56323 0.0
C1223 C 0.46338 0.55587 0.61248 0.0
H1224 H 0.5804 0.79655 0.13602 0.0
H1225 H 0.5822 0.83378 0.25996 0.0
H1226 H 0.58416 0.81939 0.35341 0.0
H1227 H 0.58873 0.79809 0.39829 0.0
H1228 H 0.58602 0.76027 0.27606 0.0
H1229 H 0.58106 0.77304 0.18307 0.0
C1230 C 0.58091 0.80135 0.18361 0.0
C1231 C 0.58138 0.81634 0.19101 0.0
C1232 C 0.58214 0.79306 0.23709 0.0
C1233 C 0.58181 0.82229 0.25293 0.0
C1234 C 0.58309 0.81414 0.30635 0.0
C1235 C 0.5869 0.79258 0.35128 0.0
C1236 C 0.58804 0.77849 0.34338 0.0
C1237 C 0.58383 0.79984 0.29871 0.0
C1238 C 0.58529 0.7712 0.28286 0.0
C1239 C 0.5825 0.77851 0.22987 0.0
H1240 H 0.21857 0.83558 0.23627 0.0
H1241 H 0.24072 0.808 0.30023 0.0
H1242 H 0.22601 0.78752 0.21723 0.0
H1243 H 0.20486 0.77634 0.13193 0.0
H1244 H 0.18418 0.80527 0.06631 0.0
H1245 H 0.20027 0.82625 0.14413 0.0
C1246 C 0.22037 0.82521 0.23131 0.0
C1247 C 0.23058 0.82321 0.27437 0.0
C1248 C 0.21198 0.81361 0.18355 0.0
C1249 C 0.23296 0.80982 0.26726 0.0
C1250 C 0.22444 0.79804 0.2202 0.0
C1251 C 0.20402 0.78731 0.13448 0.0
C1252 C 0.1932 0.78912 0.09376 0.0
C1253 C 0.21359 0.79961 0.17899 0.0
C1254 C 0.19239 0.80351 0.09699 0.0
C1255 C 0.20156 0.81555 0.14165 0.0
H1256 H 0.24351 0.41393 0.23639 0.0
H1257 H 0.22692 0.4378 0.10661 0.0
H1258 H 0.20702 0.43603 0.18617 0.0
H1259 H 0.19266 0.42529 0.28932 0.0
H1260 H 0.20766 0.39864 0.41251 0.0
H1261 H 0.22961 0.40365 0.339 0.0
C1262 C 0.23586 0.41918 0.22657 0.0
C1263 C 0.23688 0.42636 0.16684 0.0
C1264 C 0.22384 0.4172 0.27078 0.0
C1265 C 0.22651 0.43255 0.15315 0.0
C1266 C 0.21503 0.43135 0.19824 0.0
C1267 C 0.20076 0.42062 0.29993 0.0
C1268 C 0.19841 0.41149 0.35602 0.0
C1269 C 0.21326 0.42327 0.2566 0.0
C1270 C 0.20902 0.40551 0.36923 0.0
C1271 C 0.22169 0.40847 0.32746 0.0
H1272 H 0.23859 0.4254 0.78958 0.0
H1273 H 0.19659 0.398 0.91127 0.0
H1274 H 0.17972 0.40317 0.83826 0.0
H1275 H 0.17625 0.41381 0.73648 0.0
H1276 H 0.21704 0.43842 0.60789 0.0
H1277 H 0.23511 0.43648 0.68716 0.0
C1278 C 0.22576 0.42059 0.79996 0.0
C1279 C 0.21886 0.41121 0.85551 0.0
C1280 C 0.21594 0.42334 0.75691 0.0
C1281 C 0.2022 0.40506 0.86842 0.0
C1282 C 0.19252 0.40811 0.82694 0.0
C1283 C 0.18921 0.41919 0.72688 0.0
C1284 C 0.19548 0.42663 0.66758 0.0
C1285 C 0.19921 0.4171 0.77084 0.0
C1286 C 0.21212 0.43298 0.65413 0.0
C1287 C 0.22237 0.43167 0.69904 0.0
H1288 H 0.58155 0.81427 0.79862 0.0
H1289 H 0.60055 0.79371 0.9345 0.0
H1290 H 0.59647 0.77263 0.85818 0.0
H1291 H 0.58989 0.76146 0.74991 0.0
H1292 H 0.57352 0.7834 0.60957 0.0
H1293 H 0.57382 0.80221 0.69042 0.0
C1294 C 0.58464 0.80508 0.81149 0.0
C1295 C 0.59147 0.80564 0.8718 0.0
C1296 C 0.58267 0.79317 0.76658 0.0
C1297 C 0.59548 0.79368 0.88797 0.0
C1298 C 0.59308 0.78156 0.8445 0.0
C1299 C 0.58598 0.77008 0.73753 0.0
C1300 C 0.58156 0.77098 0.67423 0.0
C1301 C 0.58697 0.78135 0.7833 0.0
C1302 C 0.57689 0.78246 0.65828 0.0
C1303 C 0.57717 0.79328 0.70433 0.0
H1304 H 0.17328 0.78855 0.73279 0.0
H1305 H 0.20285 0.7696 0.80712 0.0
H1306 H 0.22365 0.78465 0.72512 0.0
H1307 H 0.23442 0.80531 0.63765 0.0
H1308 H 0.20352 0.82275 0.56223 0.0
H1309 H 0.18235 0.80623 0.6389 0.0
C1310 C 0.18416 0.7875 0.7303 0.0
C1311 C 0.18661 0.77811 0.77594 0.0
C1312 C 0.19595 0.7961 0.68317 0.0
C1313 C 0.20067 0.77671 0.77207 0.0
C1314 C 0.21263 0.78544 0.72559 0.0
C1315 C 0.223 0.80535 0.63781 0.0
C1316 C 0.22068 0.81541 0.59459 0.0
C1317 C 0.21058 0.79552 0.68178 0.0
C1318 C 0.2057 0.81517 0.59483 0.0
C1319 C 0.19354 0.80573 0.63883 0.0
H1320 H 0.09992 0.54436 0.90885 0.0
H1321 H 0.10801 0.58583 0.02148 0.0
H1322 H 0.11253 0.57357 0.11675 0.0
H1323 H 0.1106 0.54958 0.16974 0.0
H1324 H 0.10179 0.50782 0.05701 0.0
H1325 H 0.10164 0.52194 0.95952 0.0
C1326 C 0.10285 0.5508 0.95413 0.0
C1327 C 0.10331 0.56582 0.95854 0.0
C1328 C 0.10533 0.54365 0.00851 0.0
C1329 C 0.10745 0.57419 0.01707 0.0
C1330 C 0.11 0.56717 0.07151 0.0
C1331 C 0.10898 0.54366 0.12375 0.0
C1332 C 0.10591 0.52752 0.12089 0.0
C1333 C 0.10847 0.55168 0.0681 0.0
C1334 C 0.10408 0.52017 0.06077 0.0
C1335 C 0.10385 0.5282 0.005 0.0
H1336 H 0.44512 0.53384 0.03986 0.0
H1337 H 0.4531 0.49544 0.10687 0.0
H1338 H 0.46758 0.51166 0.20067 0.0
H1339 H 0.48037 0.53763 0.25696 0.0
H1340 H 0.47531 0.57746 0.18454 0.0
H1341 H 0.45725 0.55986 0.0996 0.0
C1342 C 0.44974 0.52895 0.07593 0.0
C1343 C 0.44797 0.51346 0.06723 0.0
C1344 C 0.45875 0.53869 0.12811 0.0
C1345 C 0.45429 0.50732 0.1131 0.0
C1346 C 0.46261 0.51661 0.16645 0.0
C1347 C 0.47513 0.54244 0.22326 0.0
C1348 C 0.4792 0.55886 0.22709 0.0
C1349 C 0.46529 0.53246 0.17348 0.0
C1350 C 0.47242 0.56489 0.18252 0.0
C1351 C 0.46211 0.55483 0.13394 0.0
H1352 H 0.46832 0.90389 0.00271 0.0
H1353 H 0.50782 0.95022 0.0654 0.0
H1354 H 0.49285 0.94846 0.16336 0.0
H1355 H 0.46745 0.93545 0.22414 0.0
H1356 H 0.42638 0.8907 0.15617 0.0
H1357 H 0.443 0.88998 0.06769 0.0
C1358 C 0.47373 0.91335 0.0388 0.0
C1359 C 0.48918 0.92707 0.02778 0.0
C1360 C 0.46467 0.91261 0.09349 0.0
C1361 C 0.49599 0.93951 0.07358 0.0
C1362 C 0.4874 0.93853 0.12927 0.0
C1363 C 0.46217 0.92534 0.19077 0.0
C1364 C 0.44566 0.91315 0.19681 0.0
C1365 C 0.47156 0.92538 0.13878 0.0
C1366 C 0.43903 0.90026 0.15258 0.0
C1367 C 0.44852 0.89987 0.10187 0.0
H1368 H 0.24019 0.35547 0.97038 0.0
H1369 H 0.25744 0.37348 0.16066 0.0
H1370 H 0.246 0.34567 0.20029 0.0
H1371 H 0.22807 0.31619 0.18349 0.0
H1372 H 0.2123 0.29803 0.99227 0.0
H1373 H 0.2264 0.32582 0.9503 0.0
C1374 C 0.2417 0.35328 0.02021 0.0
C1375 C 0.24946 0.3665 0.06262 0.0
C1376 C 0.23528 0.33721 0.04265 0.0
C1377 C 0.25152 0.36352 0.12695 0.0
C1378 C 0.24489 0.3476 0.14982 0.0
C1379 C 0.22807 0.31833 0.13245 0.0
C1380 C 0.21903 0.3051 0.09119 0.0
C1381 C 0.23632 0.33435 0.10851 0.0
C1382 C 0.21923 0.308 0.02507 0.0
C1383 C 0.22717 0.32392 0.00105 0.0
H1384 H 0.70249 0.9121 0.03553 0.0
H1385 H 0.69443 0.90602 0.23921 0.0
H1386 H 0.66497 0.89384 0.22271 0.0
H1387 H 0.64141 0.88246 0.14976 0.0
H1388 H 0.64932 0.88487 0.94595 0.0
H1389 H 0.6789 0.90107 0.96252 0.0
C1390 C 0.69426 0.90839 0.07623 0.0
C1391 C 0.70054 0.91009 0.13852 0.0
C1392 C 0.67732 0.90065 0.06609 0.0
C1393 C 0.68981 0.90488 0.19092 0.0
C1394 C 0.673 0.89789 0.18144 0.0
C1395 C 0.64964 0.88686 0.10906 0.0
C1396 C 0.64329 0.88273 0.04671 0.0
C1397 C 0.66659 0.89538 0.11919 0.0
C1398 C 0.65401 0.88805 0.99428 0.0
C1399 C 0.67088 0.89724 0.00381 0.0
H1400 H 0.11745 0.75134 0.11066 0.0
H1401 H 0.11288 0.76171 0.91295 0.0
H1402 H 0.09626 0.77353 0.94494 0.0
H1403 H 0.08739 0.78525 0.02987 0.0
H1404 H 0.09408 0.77687 0.22777 0.0
H1405 H 0.10521 0.75972 0.19487 0.0
C1406 C 0.11248 0.75578 0.07431 0.0
C1407 C 0.11665 0.75584 0.00951 0.0
C1408 C 0.10345 0.76314 0.09324 0.0
C1409 C 0.11002 0.76164 0.96321 0.0
C1410 C 0.10057 0.76849 0.98151 0.0
C1411 C 0.09083 0.7793 0.06588 0.0
C1412 C 0.09008 0.78252 0.13123 0.0
C1413 C 0.09785 0.76997 0.04657 0.0
C1414 C 0.09466 0.77473 0.17716 0.0
C1415 C 0.10111 0.76497 0.15836 0.0
H1416 H 0.30249 0.20776 0.46227 0.0
H1417 H 0.31304 0.2243 0.2666 0.0
H1418 H 0.34212 0.24082 0.29215 0.0
H1419 H 0.36476 0.2479 0.36698 0.0
H1420 H 0.35439 0.22839 0.55871 0.0
H1421 H 0.32506 0.21578 0.53836 0.0
C1422 C 0.31113 0.21532 0.4257 0.0
C1423 C 0.30566 0.21498 0.36281 0.0
C1424 C 0.32789 0.22407 0.44001 0.0
C1425 C 0.317 0.22447 0.31539 0.0
C1426 C 0.33361 0.23383 0.32995 0.0
C1427 C 0.35607 0.24117 0.40468 0.0
C1428 C 0.3617 0.23912 0.46437 0.0
C1429 C 0.33925 0.23335 0.39163 0.0
C1430 C 0.35032 0.2301 0.51241 0.0
C1431 C 0.33357 0.22288 0.50073 0.0
H1432 H 0.76397 0.11677 0.52077 0.0
H1433 H 0.76159 0.13217 0.3288 0.0
H1434 H 0.77544 0.11817 0.28783 0.0
H1435 H 0.79123 0.10436 0.30886 0.0
H1436 H 0.79196 0.08751 0.50002 0.0
H1437 H 0.77568 0.09908 0.53881 0.0
C1438 C 0.76616 0.11673 0.46981 0.0
C1439 C 0.76191 0.1256 0.428 0.0
C1440 C 0.77402 0.10855 0.44649 0.0
C1441 C 0.76468 0.12536 0.36197 0.0
C1442 C 0.77275 0.11748 0.33855 0.0
C1443 C 0.78757 0.10301 0.35873 0.0
C1444 C 0.79296 0.09528 0.40162 0.0
C1445 C 0.77794 0.10948 0.38066 0.0
C1446 C 0.78797 0.0934 0.46599 0.0
C1447 C 0.77872 0.10009 0.48835 0.0
H1448 H 0.91687 0.70729 0.46565 0.0
H1449 H 0.92172 0.69716 0.26828 0.0
H1450 H 0.90902 0.66807 0.29283 0.0
H1451 H 0.89367 0.64533 0.36757 0.0
H1452 H 0.88592 0.65535 0.56174 0.0
H1453 H 0.90268 0.68463 0.54166 0.0
C1454 C 0.91552 0.69874 0.4284 0.0
C1455 C 0.92035 0.70435 0.36534 0.0
C1456 C 0.90747 0.68198 0.44226 0.0
C1457 C 0.91816 0.69312 0.3172 0.0
C1458 C 0.91083 0.67649 0.33119 0.0
C1459 C 0.89593 0.65393 0.40584 0.0
C1460 C 0.8886 0.64819 0.46613 0.0
C1461 C 0.905 0.67074 0.39313 0.0
C1462 C 0.8914 0.65947 0.51492 0.0
C1463 C 0.90096 0.67621 0.50341 0.0
H1464 H 0.7817 0.6888 0.80479 0.0
H1465 H 0.80079 0.70905 0.99091 0.0
H1466 H 0.78692 0.68186 0.03801 0.0
H1467 H 0.77247 0.65204 0.0234 0.0
H1468 H 0.75202 0.63186 0.83871 0.0
H1469 H 0.7631 0.6592 0.79438 0.0
C1470 C 0.78249 0.68727 0.85589 0.0
C1471 C 0.79244 0.70091 0.89401 0.0
C1472 C 0.77438 0.67157 0.88292 0.0
C1473 C 0.79321 0.69877 0.96034 0.0
C1474 C 0.78539 0.68319 0.98734 0.0
C1475 C 0.77018 0.65366 0.97382 0.0
C1476 C 0.76163 0.63996 0.93425 0.0
C1477 C 0.77643 0.66945 0.94868 0.0
C1478 C 0.75856 0.64221 0.87025 0.0
C1479 C 0.76499 0.65785 0.84467 0.0
H1480 H 0.36843 0.11482 0.86931 0.0
H1481 H 0.3577 0.12554 0.05774 0.0
H1482 H 0.32844 0.10892 0.03644 0.0
H1483 H 0.30615 0.09443 0.9596 0.0
H1484 H 0.31704 0.08664 0.76684 0.0
H1485 H 0.34594 0.09875 0.79456 0.0
C1486 C 0.35967 0.11321 0.90619 0.0
C1487 C 0.3652 0.12138 0.96506 0.0
C1488 C 0.34289 0.10424 0.89252 0.0
C1489 C 0.35373 0.1194 0.01203 0.0
C1490 C 0.33701 0.10993 -0.0002 0.0
C1491 C 0.31479 0.09498 0.92414 0.0
C1492 C 0.30948 0.08958 0.86132 0.0
C1493 C 0.33146 0.10271 0.93955 0.0
C1494 C 0.32085 0.09069 0.81551 0.0
C1495 C 0.33737 0.09769 0.83129 0.0
H1496 H 0.90587 0.2203 0.80421 0.0
H1497 H 0.92572 0.22195 0.99164 0.0
H1498 H 0.91418 0.23816 0.0316 0.0
H1499 H 0.89553 0.24893 0.0165 0.0
H1500 H 0.87724 0.24899 0.82757 0.0
H1501 H 0.89127 0.23536 0.78485 0.0
C1502 C 0.90793 0.22451 0.85341 0.0
C1503 C 0.91647 0.21977 0.89504 0.0
C1504 C 0.90145 0.23406 0.87598 0.0
C1505 C 0.91921 0.22545 0.95854 0.0
C1506 C 0.91252 0.23464 0.98162 0.0
C1507 C 0.89495 0.24629 0.96574 0.0
C1508 C 0.88524 0.24981 0.92543 0.0
C1509 C 0.9032 0.23859 0.94128 0.0
C1510 C 0.88468 0.24646 0.85962 0.0
C1511 C 0.89259 0.23853 0.83519 0.0
H1512 H 0.70404 0.79332 0.5352 0.0
H1513 H 0.69631 0.78991 0.73926 0.0
H1514 H 0.66673 0.7737 0.723 0.0
H1515 H 0.64307 0.76253 0.65053 0.0
H1516 H 0.65079 0.76929 0.44682 0.0
H1517 H 0.68034 0.78207 0.46265 0.0
C1518 C 0.69584 0.78874 0.57599 0.0
C1519 C 0.70226 0.79256 0.63834 0.0
C1520 C 0.67887 0.78016 0.56612 0.0
C1521 C 0.69158 0.78699 0.69091 0.0
C1522 C 0.6747 0.77779 0.68157 0.0
C1523 C 0.65124 0.76656 0.60963 0.0
C1524 C 0.64482 0.76485 0.54755 0.0
C1525 C 0.6682 0.77457 0.61939 0.0
C1526 C 0.6555 0.77046 0.49497 0.0
C1527 C 0.67237 0.77777 0.50406 0.0
H1528 H 0.22357 0.92209 0.52968 0.0
H1529 H 0.22675 0.91107 0.72779 0.0
H1530 H 0.24366 0.8994 0.69778 0.0
H1531 H 0.25389 0.88866 0.61429 0.0
H1532 H 0.24846 0.89739 0.41548 0.0
H1533 H 0.23639 0.91386 0.44672 0.0
C1534 C 0.2283 0.91751 0.5665 0.0
C1535 C 0.2238 0.91736 0.6309 0.0
C1536 C 0.2375 0.91024 0.5486 0.0
C1537 C 0.22994 0.91124 0.67786 0.0
C1538 C 0.23957 0.90452 0.66068 0.0
C1539 C 0.25048 0.89452 0.57773 0.0
C1540 C 0.252 0.8917 0.51256 0.0
C1541 C 0.24291 0.9034 0.59601 0.0
C1542 C 0.24736 0.89929 0.46594 0.0
C1543 C 0.24037 0.90864 0.4838 0.0
H1544 H 0.12186 0.35549 0.47094 0.0
H1545 H 0.12206 0.3729 0.6618 0.0
H1546 H 0.10613 0.34495 0.70067 0.0
H1547 H 0.09515 0.31561 0.683 0.0
H1548 H 0.09337 0.29802 0.49127 0.0
H1549 H 0.1066 0.32587 0.45007 0.0
C1550 C 0.11812 0.35313 0.52074 0.0
C1551 C 0.1233 0.36623 0.56353 0.0
C1552 C 0.10875 0.33698 0.54275 0.0
C1553 C 0.11822 0.36303 0.62781 0.0
C1554 C 0.10919 0.34703 0.65024 0.0
C1555 C 0.09733 0.31788 0.63204 0.0
C1556 C 0.09345 0.30482 0.59038 0.0
C1557 C 0.10482 0.33392 0.60855 0.0
C1558 C 0.09619 0.30787 0.52434 0.0
C1559 C 0.10389 0.32382 0.50077 0.0
H1560 H 0.0359 0.58934 0.75197 0.0
H1561 H 0.03831 0.54625 0.79871 0.0
H1562 H 0.00939 0.52922 0.77614 0.0
H1563 H 0.98348 0.52623 0.7405 0.0
H1564 H 0.97987 0.56888 0.70111 0.0
H1565 H 0.00914 0.58637 0.72284 0.0
C1566 C 0.03006 0.57624 0.75772 0.0
C1567 C 0.03937 0.56915 0.77681 0.0
C1568 C 0.01322 0.56639 0.74523 0.0
C1569 C 0.03153 0.55213 0.78435 0.0
C1570 C 0.01496 0.54231 0.77105 0.0
C1571 C 0.98913 0.53936 0.73618 0.0
C1572 C 0.97964 0.54626 0.71812 0.0
C1573 C 1.00574 0.54927 0.75076 0.0
C1574 C 0.987 0.5633 0.71441 0.0
C1575 C 1.00371 0.57328 0.72698 0.0
H1576 H 0.42131 0.45142 0.71675 0.0
H1577 H 0.4277 0.44235 0.9141 0.0
H1578 H 0.4392 0.42557 0.88013 0.0
H1579 H 0.45167 0.41754 0.79505 0.0
H1580 H 0.44755 0.42893 0.59837 0.0
H1581 H 0.43075 0.4405 0.63123 0.0
C1582 C 0.42479 0.44541 0.7524 0.0
C1583 C 0.42379 0.44828 0.81791 0.0
C1584 C 0.43204 0.43636 0.73253 0.0
C1585 C 0.42844 0.44044 0.86337 0.0
C1586 C 0.4351 0.43091 0.84396 0.0
C1587 C 0.44673 0.42215 0.7592 0.0
C1588 C 0.45099 0.42251 0.6944 0.0
C1589 C 0.43762 0.42939 0.77873 0.0
C1590 C 0.44457 0.42863 0.64861 0.0
C1591 C 0.435 0.4353 0.66741 0.0
H1592 H 0.55958 0.98134 0.8546 0.0
H1593 H 0.54173 0.96414 0.66421 0.0
H1594 H 0.55627 0.99206 0.62359 0.0
H1595 H 0.57148 0.02166 0.64497 0.0
H1596 H 0.59103 0.03868 0.83368 0.0
H1597 H 0.57863 0.01063 0.87194 0.0
C1598 C 0.55919 0.98371 0.80401 0.0
C1599 C 0.5495 0.97074 0.76261 0.0
C1600 C 0.56777 0.99979 0.78075 0.0
C1601 C 0.54917 0.97393 0.69703 0.0
C1602 C 0.55738 0.98991 0.67382 0.0
C1603 C 0.57326 0.01918 0.6941 0.0
C1604 C 0.582 0.0322 0.73657 0.0
C1605 C 0.56632 1.00298 0.71561 0.0
C1606 C 0.58438 0.02886 0.79998 0.0
C1607 C 0.57721 0.01282 0.82206 0.0
H1608 H 0.45856 0.02031 0.14445 0.0
H1609 H 0.45746 0.03764 0.33412 0.0
H1610 H 0.44051 0.0097 0.3718 0.0
H1611 H 0.42853 0.98026 0.35364 0.0
H1612 H 0.4278 0.96273 0.16268 0.0
H1613 H 0.44258 0.9907 0.1225 0.0
C1614 C 0.45437 0.01793 0.1937 0.0
C1615 C 0.45941 0.03099 0.23658 0.0
C1616 C 0.44431 1.00178 0.21491 0.0
C1617 C 0.45374 0.02779 0.30013 0.0
C1618 C 0.4441 0.0118 0.32186 0.0
C1619 C 0.43129 0.98258 0.303 0.0
C1620 C 0.4272 0.96949 0.26132 0.0
C1621 C 0.43966 0.99869 0.28009 0.0
C1622 C 0.43073 0.97262 0.19571 0.0
C1623 C 0.43934 0.98863 0.17277 0.0
H1624 H 0.03354 0.44923 0.24659 0.0
H1625 H 0.03601 0.49483 0.29156 0.0
H1626 H 0.00715 0.48296 0.2677 0.0
H1627 H 0.98121 0.45993 0.23276 0.0
H1628 H 0.97754 0.41357 0.19535 0.0
H1629 H 0.00682 0.42544 0.21684 0.0
C1630 C 0.02773 0.45652 0.25157 0.0
C1631 C 0.03703 0.47294 0.27076 0.0
C1632 C 0.01093 0.44954 0.23839 0.0
C1633 C 0.02923 0.48216 0.27724 0.0
C1634 C 0.01269 0.47542 0.2632 0.0
C1635 C 0.98686 0.45246 0.22864 0.0
C1636 C 0.97733 0.43599 0.21139 0.0
C1637 C 1.00347 0.4592 0.24323 0.0
C1638 C 0.98469 0.42634 0.20799 0.0
C1639 C 1.0014 0.43311 0.22049 0.0
H1640 H 0.58484 0.55169 0.29622 0.0
H1641 H 0.5768 0.55854 0.09822 0.0
H1642 H 0.56534 0.57549 0.1303 0.0
H1643 H 0.55398 0.58488 0.21456 0.0
H1644 H 0.55947 0.57562 0.41262 0.0
H1645 H 0.57573 0.56335 0.38078 0.0
C1646 C 0.58097 0.55725 0.26006 0.0
C1647 C 0.58163 0.55383 0.19491 0.0
C1648 C 0.57374 0.5664 0.279 0.0
C1649 C 0.57636 0.56094 0.14866 0.0
C1650 C 0.56975 0.57058 0.16701 0.0
C1651 C 0.55908 0.58055 0.2509 0.0
C1652 C 0.55545 0.58111 0.3159 0.0
C1653 C 0.56783 0.57289 0.23208 0.0
C1654 C 0.56201 0.57528 0.36226 0.0
C1655 C 0.57127 0.56819 0.34405 0.0
loop_
_geom_bond_atom_site_label_1
_geom_bond_atom_site_label_2
_geom_bond_distance
_geom_bond_site_symmetry_2
_ccdc_geom_bond_type
O0 Cd1 2.223 . S
O0 C8 1.315 . S
Cd1 O0 2.223 . S
Cd1 O4 2.297 . S
Cd1 O5 2.439 . S
Cd1 O11 2.240 . S
Cd2 O3 2.240 . S
Cd2 O10 2.223 . S
Cd2 O12 2.297 . S
Cd2 O13 2.439 . S
O3 Cd2 2.240 . S
O3 C8 1.279 . S
O4 Cd1 2.297 . S
O4 C6 1.247 . S
O5 Cd1 2.439 . S
O5 C6 1.208 . S
C6 O4 1.247 . S
C6 O5 1.208 . S
C7 O12 1.247 . S
C7 O13 1.208 . S
C8 O0 1.315 . S
C8 O3 1.279 . S
C9 O10 1.315 . S
C9 O11 1.279 . S
O10 Cd2 2.223 . S
O10 C9 1.315 . S
O11 Cd1 2.240 . S
O11 C9 1.279 . S
O12 Cd2 2.297 . S
O12 C7 1.247 . S
O13 Cd2 2.439 . S
O13 C7 1.208 . S
O14 Cd15 2.223 . S
O14 C22 1.315 . S
Cd15 O14 2.223 . S
Cd15 O18 2.297 . S
Cd15 O19 2.439 . S
Cd15 O25 2.240 . S
Cd16 O17 2.240 . S
Cd16 O24 2.223 . S
Cd16 O26 2.297 . S
Cd16 O27 2.439 . S
O17 Cd16 2.240 . S
O17 C22 1.279 . S
O18 Cd15 2.297 . S
O18 C20 1.247 . S
O19 Cd15 2.439 . S
O19 C20 1.208 . S
C20 O18 1.247 . S
C20 O19 1.208 . S
C21 O26 1.247 . S
C21 O27 1.208 . S
C22 O14 1.315 . S
C22 O17 1.279 . S
C23 O24 1.315 . S
C23 O25 1.279 . S
O24 Cd16 2.223 . S
O24 C23 1.315 . S
O25 Cd15 2.240 . S
O25 C23 1.279 . S
O26 Cd16 2.297 . S
O26 C21 1.247 . S
O27 Cd16 2.439 . S
O27 C21 1.208 . S
O28 Cd29 2.223 . S
O28 C36 1.315 . S
Cd29 O28 2.223 . S
Cd29 O32 2.297 . S
Cd29 O33 2.439 . S
Cd29 O39 2.240 . S
Cd30 O31 2.240 . S
Cd30 O38 2.223 . S
Cd30 O40 2.297 . S
Cd30 O41 2.439 . S
O31 Cd30 2.240 . S
O31 C36 1.279 . S
O32 Cd29 2.297 . S
O32 C34 1.247 . S
O33 Cd29 2.439 . S
O33 C34 1.208 . S
C34 O32 1.247 . S
C34 O33 1.208 . S
C35 O40 1.247 . S
C35 O41 1.208 . S
C36 O28 1.315 . S
C36 O31 1.279 . S
C37 O38 1.315 . S
C37 O39 1.279 . S
O38 Cd30 2.223 . S
O38 C37 1.315 . S
O39 Cd29 2.240 . S
O39 C37 1.279 . S
O40 Cd30 2.297 . S
O40 C35 1.247 . S
O41 Cd30 2.439 . S
O41 C35 1.208 . S
O42 Cd43 2.223 . S
O42 C50 1.315 . S
Cd43 O42 2.223 . S
Cd43 O46 2.297 . S
Cd43 O47 2.439 . S
Cd43 O53 2.240 . S
Cd44 O45 2.240 . S
Cd44 O52 2.223 . S
Cd44 O54 2.297 . S
Cd44 O55 2.439 . S
O45 Cd44 2.240 . S
O45 C50 1.279 . S
O46 Cd43 2.297 . S
O46 C48 1.247 . S
O47 Cd43 2.439 . S
O47 C48 1.208 . S
C48 O46 1.247 . S
C48 O47 1.208 . S
C49 O54 1.247 . S
C49 O55 1.208 . S
C50 O42 1.315 . S
C50 O45 1.279 . S
C51 O52 1.315 . S
C51 O53 1.279 . S
O52 Cd44 2.223 . S
O52 C51 1.315 . S
O53 Cd43 2.240 . S
O53 C51 1.279 . S
O54 Cd44 2.297 . S
O54 C49 1.247 . S
O55 Cd44 2.439 . S
O55 C49 1.208 . S
O56 Cd57 2.223 . S
O56 C64 1.315 . S
Cd57 O56 2.223 . S
Cd57 O60 2.297 . S
Cd57 O61 2.439 . S
Cd57 O67 2.240 . S
Cd58 O59 2.240 . S
Cd58 O66 2.223 . S
Cd58 O68 2.297 . S
Cd58 O69 2.439 . S
O59 Cd58 2.240 . S
O59 C64 1.279 . S
O60 Cd57 2.297 . S
O60 C62 1.247 . S
O61 Cd57 2.439 . S
O61 C62 1.208 . S
C62 O60 1.247 . S
C62 O61 1.208 . S
C63 O68 1.247 . S
C63 O69 1.208 . S
C64 O56 1.315 . S
C64 O59 1.279 . S
C65 O66 1.315 . S
C65 O67 1.279 . S
O66 Cd58 2.223 . S
O66 C65 1.315 . S
O67 Cd57 2.240 . S
O67 C65 1.279 . S
O68 Cd58 2.297 . S
O68 C63 1.247 . S
O69 Cd58 2.439 . S
O69 C63 1.208 . S
O70 Cd71 2.223 . S
O70 C78 1.315 . S
Cd71 O70 2.223 . S
Cd71 O74 2.297 . S
Cd71 O75 2.439 . S
Cd71 O81 2.240 . S
Cd72 O73 2.240 . S
Cd72 O80 2.223 . S
Cd72 O82 2.297 . S
Cd72 O83 2.439 . S
O73 Cd72 2.240 . S
O73 C78 1.279 . S
O74 Cd71 2.297 . S
O74 C76 1.247 . S
O75 Cd71 2.439 . S
O75 C76 1.208 . S
C76 O74 1.247 . S
C76 O75 1.208 . S
C77 O82 1.247 . S
C77 O83 1.208 . S
C78 O70 1.315 . S
C78 O73 1.279 . S
C79 O80 1.315 . S
C79 O81 1.279 . S
O80 Cd72 2.223 . S
O80 C79 1.315 . S
O81 Cd71 2.240 . S
O81 C79 1.279 . S
O82 Cd72 2.297 . S
O82 C77 1.247 . S
O83 Cd72 2.439 . S
O83 C77 1.208 . S
O84 Cd85 2.223 . S
O84 C92 1.315 . S
Cd85 O84 2.223 . S
Cd85 O88 2.297 . S
Cd85 O89 2.439 . S
Cd85 O95 2.240 . S
Cd86 O87 2.240 . S
Cd86 O94 2.223 . S
Cd86 O96 2.297 . S
Cd86 O97 2.439 . S
O87 Cd86 2.240 . S
O87 C92 1.279 . S
O88 Cd85 2.297 . S
O88 C90 1.247 . S
O89 Cd85 2.439 . S
O89 C90 1.208 . S
C90 O88 1.247 . S
C90 O89 1.208 . S
C91 O96 1.247 . S
C91 O97 1.208 . S
C92 O84 1.315 . S
C92 O87 1.279 . S
C93 O94 1.315 . S
C93 O95 1.279 . S
O94 Cd86 2.223 . S
O94 C93 1.315 . S
O95 Cd85 2.240 . S
O95 C93 1.279 . S
O96 Cd86 2.297 . S
O96 C91 1.247 . S
O97 Cd86 2.439 . S
O97 C91 1.208 . S
O98 Cd99 2.223 . S
O98 C106 1.315 . S
Cd99 O98 2.223 . S
Cd99 O102 2.297 . S
Cd99 O103 2.439 . S
Cd99 O109 2.240 . S
Cd100 O101 2.240 . S
Cd100 O108 2.223 . S
Cd100 O110 2.297 . S
Cd100 O111 2.439 . S
O101 Cd100 2.240 . S
O101 C106 1.279 . S
O102 Cd99 2.297 . S
O102 C104 1.247 . S
O103 Cd99 2.439 . S
O103 C104 1.208 . S
C104 O102 1.247 . S
C104 O103 1.208 . S
C105 O110 1.247 . S
C105 O111 1.208 . S
C106 O98 1.315 . S
C106 O101 1.279 . S
C107 O108 1.315 . S
C107 O109 1.279 . S
O108 Cd100 2.223 . S
O108 C107 1.315 . S
O109 Cd99 2.240 . S
O109 C107 1.279 . S
O110 Cd100 2.297 . S
O110 C105 1.247 . S
O111 Cd100 2.439 . S
O111 C105 1.208 . S
O112 Cd113 2.223 . S
O112 C120 1.315 . S
Cd113 O112 2.223 . S
Cd113 O116 2.297 . S
Cd113 O117 2.439 . S
Cd113 O123 2.240 . S
Cd114 O115 2.240 . S
Cd114 O122 2.223 . S
Cd114 O124 2.297 . S
Cd114 O125 2.439 . S
O115 Cd114 2.240 . S
O115 C120 1.279 . S
O116 Cd113 2.297 . S
O116 C118 1.247 . S
O117 Cd113 2.439 . S
O117 C118 1.208 . S
C118 O116 1.247 . S
C118 O117 1.208 . S
C119 O124 1.247 . S
C119 O125 1.208 . S
C120 O112 1.315 . S
C120 O115 1.279 . S
C121 O122 1.315 . S
C121 O123 1.279 . S
O122 Cd114 2.223 . S
O122 C121 1.315 . S
O123 Cd113 2.240 . S
O123 C121 1.279 . S
O124 Cd114 2.297 . S
O124 C119 1.247 . S
O125 Cd114 2.439 . S
O125 C119 1.208 . S
O126 Cd127 2.223 . S
O126 C134 1.315 . S
Cd127 O126 2.223 . S
Cd127 O130 2.297 . S
Cd127 O131 2.439 . S
Cd127 O137 2.240 . S
Cd128 O129 2.240 . S
Cd128 O136 2.223 . S
Cd128 O138 2.297 . S
Cd128 O139 2.439 . S
O129 Cd128 2.240 . S
O129 C134 1.279 . S
O130 Cd127 2.297 . S
O130 C132 1.247 . S
O131 Cd127 2.439 . S
O131 C132 1.208 . S
C132 O130 1.247 . S
C132 O131 1.208 . S
C133 O138 1.247 . S
C133 O139 1.208 . S
C134 O126 1.315 . S
C134 O129 1.279 . S
C135 O136 1.315 . S
C135 O137 1.279 . S
O136 Cd128 2.223 . S
O136 C135 1.315 . S
O137 Cd127 2.240 . S
O137 C135 1.279 . S
O138 Cd128 2.297 . S
O138 C133 1.247 . S
O139 Cd128 2.439 . S
O139 C133 1.208 . S
O140 Cd141 2.223 . S
O140 C148 1.315 . S
Cd141 O140 2.223 . S
Cd141 O144 2.297 . S
Cd141 O145 2.439 . S
Cd141 O151 2.240 . S
Cd142 O143 2.240 . S
Cd142 O150 2.223 . S
Cd142 O152 2.297 . S
Cd142 O153 2.439 . S
O143 Cd142 2.240 . S
O143 C148 1.279 . S
O144 Cd141 2.297 . S
O144 C146 1.247 . S
O145 Cd141 2.439 . S
O145 C146 1.208 . S
C146 O144 1.247 . S
C146 O145 1.208 . S
C147 O152 1.247 . S
C147 O153 1.208 . S
C148 O140 1.315 . S
C148 O143 1.279 . S
C149 O150 1.315 . S
C149 O151 1.279 . S
O150 Cd142 2.223 . S
O150 C149 1.315 . S
O151 Cd141 2.240 . S
O151 C149 1.279 . S
O152 Cd142 2.297 . S
O152 C147 1.247 . S
O153 Cd142 2.439 . S
O153 C147 1.208 . S
O154 Cd155 2.223 . S
O154 C162 1.315 . S
Cd155 O154 2.223 . S
Cd155 O158 2.297 . S
Cd155 O159 2.439 . S
Cd155 O165 2.240 . S
Cd156 O157 2.240 . S
Cd156 O164 2.223 . S
Cd156 O166 2.297 . S
Cd156 O167 2.439 . S
O157 Cd156 2.240 . S
O157 C162 1.279 . S
O158 Cd155 2.297 . S
O158 C160 1.247 . S
O159 Cd155 2.439 . S
O159 C160 1.208 . S
C160 O158 1.247 . S
C160 O159 1.208 . S
C161 O166 1.247 . S
C161 O167 1.208 . S
C162 O154 1.315 . S
C162 O157 1.279 . S
C163 O164 1.315 . S
C163 O165 1.279 . S
O164 Cd156 2.223 . S
O164 C163 1.315 . S
O165 Cd155 2.240 . S
O165 C163 1.279 . S
O166 Cd156 2.297 . S
O166 C161 1.247 . S
O167 Cd156 2.439 . S
O167 C161 1.208 . S
O168 Cd169 2.223 . S
O168 C176 1.315 . S
Cd169 O168 2.223 . S
Cd169 O172 2.297 . S
Cd169 O173 2.439 . S
Cd169 O179 2.240 . S
Cd170 O171 2.240 . S
Cd170 O178 2.223 . S
Cd170 O180 2.297 . S
Cd170 O181 2.439 . S
O171 Cd170 2.240 . S
O171 C176 1.279 . S
O172 Cd169 2.297 . S
O172 C174 1.247 . S
O173 Cd169 2.439 . S
O173 C174 1.208 . S
C174 O172 1.247 . S
C174 O173 1.208 . S
C175 O180 1.247 . S
C175 O181 1.208 . S
C176 O168 1.315 . S
C176 O171 1.279 . S
C177 O178 1.315 . S
C177 O179 1.279 . S
O178 Cd170 2.223 . S
O178 C177 1.315 . S
O179 Cd169 2.240 . S
O179 C177 1.279 . S
O180 Cd170 2.297 . S
O180 C175 1.247 . S
O181 Cd170 2.439 . S
O181 C175 1.208 . S
O182 Cd183 2.223 . S
O182 C190 1.315 . S
Cd183 O182 2.223 . S
Cd183 O186 2.297 . S
Cd183 O187 2.439 . S
Cd183 O193 2.240 . S
Cd184 O185 2.240 . S
Cd184 O192 2.223 . S
Cd184 O194 2.297 . S
Cd184 O195 2.439 . S
O185 Cd184 2.240 . S
O185 C190 1.279 . S
O186 Cd183 2.297 . S
O186 C188 1.247 . S
O187 Cd183 2.439 . S
O187 C188 1.208 . S
C188 O186 1.247 . S
C188 O187 1.208 . S
C189 O194 1.247 . S
C189 O195 1.208 . S
C190 O182 1.315 . S
C190 O185 1.279 . S
C191 O192 1.315 . S
C191 O193 1.279 . S
O192 Cd184 2.223 . S
O192 C191 1.315 . S
O193 Cd183 2.240 . S
O193 C191 1.279 . S
O194 Cd184 2.297 . S
O194 C189 1.247 . S
O195 Cd184 2.439 . S
O195 C189 1.208 . S
O196 Cd197 2.223 . S
O196 C204 1.315 . S
Cd197 O196 2.223 . S
Cd197 O200 2.297 . S
Cd197 O201 2.439 . S
Cd197 O207 2.240 . S
Cd198 O199 2.240 . S
Cd198 O206 2.223 . S
Cd198 O208 2.297 . S
Cd198 O209 2.439 . S
O199 Cd198 2.240 . S
O199 C204 1.279 . S
O200 Cd197 2.297 . S
O200 C202 1.247 . S
O201 Cd197 2.439 . S
O201 C202 1.208 . S
C202 O200 1.247 . S
C202 O201 1.208 . S
C203 O208 1.247 . S
C203 O209 1.208 . S
C204 O196 1.315 . S
C204 O199 1.279 . S
C205 O206 1.315 . S
C205 O207 1.279 . S
O206 Cd198 2.223 . S
O206 C205 1.315 . S
O207 Cd197 2.240 . S
O207 C205 1.279 . S
O208 Cd198 2.297 . S
O208 C203 1.247 . S
O209 Cd198 2.439 . S
O209 C203 1.208 . S
O210 Cd211 2.223 . S
O210 C218 1.315 . S
Cd211 O210 2.223 . S
Cd211 O214 2.297 . S
Cd211 O215 2.439 . S
Cd211 O221 2.240 . S
Cd212 O213 2.240 . S
Cd212 O220 2.223 . S
Cd212 O222 2.297 . S
Cd212 O223 2.439 . S
O213 Cd212 2.240 . S
O213 C218 1.279 . S
O214 Cd211 2.297 . S
O214 C216 1.247 . S
O215 Cd211 2.439 . S
O215 C216 1.208 . S
C216 O214 1.247 . S
C216 O215 1.208 . S
C217 O222 1.247 . S
C217 O223 1.208 . S
C218 O210 1.315 . S
C218 O213 1.279 . S
C219 O220 1.315 . S
C219 O221 1.279 . S
O220 Cd212 2.223 . S
O220 C219 1.315 . S
O221 Cd211 2.240 . S
O221 C219 1.279 . S
O222 Cd212 2.297 . S
O222 C217 1.247 . S
O223 Cd212 2.439 . S
O223 C217 1.208 . S
O224 Cd225 2.223 . S
O224 C232 1.315 . S
Cd225 O224 2.223 . S
Cd225 O228 2.297 . S
Cd225 O229 2.439 . S
Cd225 O235 2.240 . S
Cd226 O227 2.240 . S
Cd226 O234 2.223 . S
Cd226 O236 2.297 . S
Cd226 O237 2.439 . S
O227 Cd226 2.240 . S
O227 C232 1.279 . S
O228 Cd225 2.297 . S
O228 C230 1.247 . S
O229 Cd225 2.439 . S
O229 C230 1.208 . S
C230 O228 1.247 . S
C230 O229 1.208 . S
C231 O236 1.247 . S
C231 O237 1.208 . S
C232 O224 1.315 . S
C232 O227 1.279 . S
C233 O234 1.315 . S
C233 O235 1.279 . S
O234 Cd226 2.223 . S
O234 C233 1.315 . S
O235 Cd225 2.240 . S
O235 C233 1.279 . S
O236 Cd226 2.297 . S
O236 C231 1.247 . S
O237 Cd226 2.439 . S
O237 C231 1.208 . S
O238 Cd239 2.223 . S
O238 C246 1.315 . S
Cd239 O238 2.223 . S
Cd239 O242 2.297 . S
Cd239 O243 2.439 . S
Cd239 O249 2.240 . S
Cd240 O241 2.240 . S
Cd240 O248 2.223 . S
Cd240 O250 2.297 . S
Cd240 O251 2.439 . S
O241 Cd240 2.240 . S
O241 C246 1.279 . S
O242 Cd239 2.297 . S
O242 C244 1.247 . S
O243 Cd239 2.439 . S
O243 C244 1.208 . S
C244 O242 1.247 . S
C244 O243 1.208 . S
C245 O250 1.247 . S
C245 O251 1.208 . S
C246 O238 1.315 . S
C246 O241 1.279 . S
C247 O248 1.315 . S
C247 O249 1.279 . S
O248 Cd240 2.223 . S
O248 C247 1.315 . S
O249 Cd239 2.240 . S
O249 C247 1.279 . S
O250 Cd240 2.297 . S
O250 C245 1.247 . S
O251 Cd240 2.439 . S
O251 C245 1.208 . S
O252 Cd253 2.223 . S
O252 C260 1.315 . S
Cd253 O252 2.223 . S
Cd253 O256 2.297 . S
Cd253 O257 2.439 . S
Cd253 O263 2.240 . S
Cd254 O255 2.240 . S
Cd254 O262 2.223 . S
Cd254 O264 2.297 1_554 S
Cd254 O265 2.439 1_554 S
O255 Cd254 2.240 . S
O255 C260 1.279 . S
O256 Cd253 2.297 . S
O256 C258 1.247 . S
O257 Cd253 2.439 . S
O257 C258 1.208 . S
C258 O256 1.247 . S
C258 O257 1.208 . S
C259 O264 1.247 . S
C259 O265 1.208 . S
C260 O252 1.315 . S
C260 O255 1.279 . S
C261 O262 1.315 . S
C261 O263 1.279 . S
O262 Cd254 2.223 . S
O262 C261 1.315 . S
O263 Cd253 2.240 . S
O263 C261 1.279 . S
O264 Cd254 2.297 1_556 S
O264 C259 1.247 . S
O265 Cd254 2.439 1_556 S
O265 C259 1.208 . S
O266 Cd267 2.223 . S
O266 C274 1.315 . S
Cd267 O266 2.223 . S
Cd267 O270 2.297 . S
Cd267 O271 2.439 . S
Cd267 O277 2.240 . S
Cd268 O269 2.240 . S
Cd268 O276 2.223 . S
Cd268 O278 2.297 1_554 S
Cd268 O279 2.439 1_554 S
O269 Cd268 2.240 . S
O269 C274 1.279 . S
O270 Cd267 2.297 . S
O270 C272 1.247 . S
O271 Cd267 2.439 . S
O271 C272 1.208 . S
C272 O270 1.247 . S
C272 O271 1.208 . S
C273 O278 1.247 . S
C273 O279 1.208 . S
C274 O266 1.315 . S
C274 O269 1.279 . S
C275 O276 1.315 . S
C275 O277 1.279 . S
O276 Cd268 2.223 . S
O276 C275 1.315 . S
O277 Cd267 2.240 . S
O277 C275 1.279 . S
O278 Cd268 2.297 1_556 S
O278 C273 1.247 . S
O279 Cd268 2.439 1_556 S
O279 C273 1.208 . S
O280 Cd281 2.223 . S
O280 C288 1.315 . S
Cd281 O280 2.223 . S
Cd281 O284 2.297 . S
Cd281 O285 2.439 . S
Cd281 O291 2.240 . S
Cd282 O283 2.240 . S
Cd282 O290 2.223 . S
Cd282 O292 2.297 1_554 S
Cd282 O293 2.439 1_554 S
O283 Cd282 2.240 . S
O283 C288 1.279 . S
O284 Cd281 2.297 . S
O284 C286 1.247 . S
O285 Cd281 2.439 . S
O285 C286 1.208 . S
C286 O284 1.247 . S
C286 O285 1.208 . S
C287 O292 1.247 . S
C287 O293 1.208 . S
C288 O280 1.315 . S
C288 O283 1.279 . S
C289 O290 1.315 . S
C289 O291 1.279 . S
O290 Cd282 2.223 . S
O290 C289 1.315 . S
O291 Cd281 2.240 . S
O291 C289 1.279 . S
O292 Cd282 2.297 1_556 S
O292 C287 1.247 . S
O293 Cd282 2.439 1_556 S
O293 C287 1.208 . S
O294 Cd295 2.223 1_556 S
O294 C302 1.315 1_556 S
Cd295 O294 2.223 1_554 S
Cd295 O298 2.297 . S
Cd295 O299 2.439 . S
Cd295 O305 2.240 . S
Cd296 O297 2.240 . S
Cd296 O304 2.223 . S
Cd296 O306 2.297 . S
Cd296 O307 2.439 . S
O297 Cd296 2.240 . S
O297 C302 1.279 . S
O298 Cd295 2.297 . S
O298 C300 1.247 . S
O299 Cd295 2.439 . S
O299 C300 1.208 . S
C300 O298 1.247 . S
C300 O299 1.208 . S
C301 O306 1.247 . S
C301 O307 1.208 . S
C302 O294 1.315 1_554 S
C302 O297 1.279 . S
C303 O304 1.315 . S
C303 O305 1.279 . S
O304 Cd296 2.223 . S
O304 C303 1.315 . S
O305 Cd295 2.240 . S
O305 C303 1.279 . S
O306 Cd296 2.297 . S
O306 C301 1.247 . S
O307 Cd296 2.439 . S
O307 C301 1.208 . S
O308 Cd309 2.223 1_556 S
O308 C316 1.315 1_556 S
Cd309 O308 2.223 1_554 S
Cd309 O312 2.297 . S
Cd309 O313 2.439 . S
Cd309 O319 2.240 . S
Cd310 O311 2.240 . S
Cd310 O318 2.223 . S
Cd310 O320 2.297 . S
Cd310 O321 2.439 . S
O311 Cd310 2.240 . S
O311 C316 1.279 . S
O312 Cd309 2.297 . S
O312 C314 1.247 . S
O313 Cd309 2.439 . S
O313 C314 1.208 . S
C314 O312 1.247 . S
C314 O313 1.208 . S
C315 O320 1.247 . S
C315 O321 1.208 . S
C316 O308 1.315 1_554 S
C316 O311 1.279 . S
C317 O318 1.315 . S
C317 O319 1.279 . S
O318 Cd310 2.223 . S
O318 C317 1.315 . S
O319 Cd309 2.240 . S
O319 C317 1.279 . S
O320 Cd310 2.297 . S
O320 C315 1.247 . S
O321 Cd310 2.439 . S
O321 C315 1.208 . S
O322 Cd323 2.223 1_556 S
O322 C330 1.315 1_556 S
Cd323 O322 2.223 1_554 S
Cd323 O326 2.297 . S
Cd323 O327 2.439 . S
Cd323 O333 2.240 . S
Cd324 O325 2.240 . S
Cd324 O332 2.223 . S
Cd324 O334 2.297 . S
Cd324 O335 2.439 . S
O325 Cd324 2.240 . S
O325 C330 1.279 . S
O326 Cd323 2.297 . S
O326 C328 1.247 . S
O327 Cd323 2.439 . S
O327 C328 1.208 . S
C328 O326 1.247 . S
C328 O327 1.208 . S
C329 O334 1.247 . S
C329 O335 1.208 . S
C330 O322 1.315 1_554 S
C330 O325 1.279 . S
C331 O332 1.315 . S
C331 O333 1.279 . S
O332 Cd324 2.223 . S
O332 C331 1.315 . S
O333 Cd323 2.240 . S
O333 C331 1.279 . S
O334 Cd324 2.297 . S
O334 C329 1.247 . S
O335 Cd324 2.439 . S
O335 C329 1.208 . S
O336 Cd337 2.223 . S
O336 C344 1.315 . S
Cd337 O336 2.223 . S
Cd337 O340 2.297 . S
Cd337 O341 2.439 . S
Cd337 O347 2.240 . S
Cd338 O339 2.240 . S
Cd338 O346 2.223 . S
Cd338 O348 2.297 1_556 S
Cd338 O349 2.439 1_556 S
O339 Cd338 2.240 . S
O339 C344 1.279 . S
O340 Cd337 2.297 . S
O340 C342 1.247 . S
O341 Cd337 2.439 . S
O341 C342 1.208 . S
C342 O340 1.247 . S
C342 O341 1.208 . S
C343 O348 1.247 . S
C343 O349 1.208 . S
C344 O336 1.315 . S
C344 O339 1.279 . S
C345 O346 1.315 . S
C345 O347 1.279 . S
O346 Cd338 2.223 . S
O346 C345 1.315 . S
O347 Cd337 2.240 . S
O347 C345 1.279 . S
O348 Cd338 2.297 1_554 S
O348 C343 1.247 . S
O349 Cd338 2.439 1_554 S
O349 C343 1.208 . S
O350 Cd351 2.223 . S
O350 C358 1.315 . S
Cd351 O350 2.223 . S
Cd351 O354 2.297 . S
Cd351 O355 2.439 . S
Cd351 O361 2.240 . S
Cd352 O353 2.240 . S
Cd352 O360 2.223 . S
Cd352 O362 2.297 1_556 S
Cd352 O363 2.439 1_556 S
O353 Cd352 2.240 . S
O353 C358 1.279 . S
O354 Cd351 2.297 . S
O354 C356 1.247 . S
O355 Cd351 2.439 . S
O355 C356 1.208 . S
C356 O354 1.247 . S
C356 O355 1.208 . S
C357 O362 1.247 . S
C357 O363 1.208 . S
C358 O350 1.315 . S
C358 O353 1.279 . S
C359 O360 1.315 . S
C359 O361 1.279 . S
O360 Cd352 2.223 . S
O360 C359 1.315 . S
O361 Cd351 2.240 . S
O361 C359 1.279 . S
O362 Cd352 2.297 1_554 S
O362 C357 1.247 . S
O363 Cd352 2.439 1_554 S
O363 C357 1.208 . S
O364 Cd365 2.223 . S
O364 C372 1.315 . S
Cd365 O364 2.223 . S
Cd365 O368 2.297 . S
Cd365 O369 2.439 . S
Cd365 O375 2.240 . S
Cd366 O367 2.240 . S
Cd366 O374 2.223 . S
Cd366 O376 2.297 1_556 S
Cd366 O377 2.439 1_556 S
O367 Cd366 2.240 . S
O367 C372 1.279 . S
O368 Cd365 2.297 . S
O368 C370 1.247 . S
O369 Cd365 2.439 . S
O369 C370 1.208 . S
C370 O368 1.247 . S
C370 O369 1.208 . S
C371 O376 1.247 . S
C371 O377 1.208 . S
C372 O364 1.315 . S
C372 O367 1.279 . S
C373 O374 1.315 . S
C373 O375 1.279 . S
O374 Cd366 2.223 . S
O374 C373 1.315 . S
O375 Cd365 2.240 . S
O375 C373 1.279 . S
O376 Cd366 2.297 1_554 S
O376 C371 1.247 . S
O377 Cd366 2.439 1_554 S
O377 C371 1.208 . S
O378 Cd379 2.223 1_554 S
O378 C386 1.315 1_554 S
Cd379 O378 2.223 1_556 S
Cd379 O382 2.297 . S
Cd379 O383 2.439 . S
Cd379 O389 2.240 . S
Cd380 O381 2.240 . S
Cd380 O388 2.223 . S
Cd380 O390 2.297 . S
Cd380 O391 2.439 . S
O381 Cd380 2.240 . S
O381 C386 1.279 . S
O382 Cd379 2.297 . S
O382 C384 1.247 . S
O383 Cd379 2.439 . S
O383 C384 1.208 . S
C384 O382 1.247 . S
C384 O383 1.208 . S
C385 O390 1.247 . S
C385 O391 1.208 . S
C386 O378 1.315 1_556 S
C386 O381 1.279 . S
C387 O388 1.315 . S
C387 O389 1.279 . S
O388 Cd380 2.223 . S
O388 C387 1.315 . S
O389 Cd379 2.240 . S
O389 C387 1.279 . S
O390 Cd380 2.297 . S
O390 C385 1.247 . S
O391 Cd380 2.439 . S
O391 C385 1.208 . S
O392 Cd393 2.223 1_554 S
O392 C400 1.315 1_554 S
Cd393 O392 2.223 1_556 S
Cd393 O396 2.297 . S
Cd393 O397 2.439 . S
Cd393 O403 2.240 . S
Cd394 O395 2.240 . S
Cd394 O402 2.223 . S
Cd394 O404 2.297 . S
Cd394 O405 2.439 . S
O395 Cd394 2.240 . S
O395 C400 1.279 . S
O396 Cd393 2.297 . S
O396 C398 1.247 . S
O397 Cd393 2.439 . S
O397 C398 1.208 . S
C398 O396 1.247 . S
C398 O397 1.208 . S
C399 O404 1.247 . S
C399 O405 1.208 . S
C400 O392 1.315 1_556 S
C400 O395 1.279 . S
C401 O402 1.315 . S
C401 O403 1.279 . S
O402 Cd394 2.223 . S
O402 C401 1.315 . S
O403 Cd393 2.240 . S
O403 C401 1.279 . S
O404 Cd394 2.297 . S
O404 C399 1.247 . S
O405 Cd394 2.439 . S
O405 C399 1.208 . S
O406 Cd407 2.223 1_554 S
O406 C414 1.315 1_554 S
Cd407 O406 2.223 1_556 S
Cd407 O410 2.297 . S
Cd407 O411 2.439 . S
Cd407 O417 2.240 . S
Cd408 O409 2.240 . S
Cd408 O416 2.223 . S
Cd408 O418 2.297 . S
Cd408 O419 2.439 . S
O409 Cd408 2.240 . S
O409 C414 1.279 . S
O410 Cd407 2.297 . S
O410 C412 1.247 . S
O411 Cd407 2.439 . S
O411 C412 1.208 . S
C412 O410 1.247 . S
C412 O411 1.208 . S
C413 O418 1.247 . S
C413 O419 1.208 . S
C414 O406 1.315 1_556 S
C414 O409 1.279 . S
C415 O416 1.315 . S
C415 O417 1.279 . S
O416 Cd408 2.223 . S
O416 C415 1.315 . S
O417 Cd407 2.240 . S
O417 C415 1.279 . S
O418 Cd408 2.297 . S
O418 C413 1.247 . S
O419 Cd408 2.439 . S
O419 C413 1.208 . S
O420 Cd421 2.223 . S
O420 C428 1.315 . S
Cd421 O420 2.223 . S
Cd421 O424 2.297 . S
Cd421 O425 2.439 . S
Cd421 O431 2.240 . S
Cd422 O423 2.240 . S
Cd422 O430 2.223 . S
Cd422 O432 2.297 . S
Cd422 O433 2.439 . S
O423 Cd422 2.240 . S
O423 C428 1.279 . S
O424 Cd421 2.297 . S
O424 C426 1.247 . S
O425 Cd421 2.439 . S
O425 C426 1.208 . S
C426 O424 1.247 . S
C426 O425 1.208 . S
C427 O432 1.247 . S
C427 O433 1.208 . S
C428 O420 1.315 . S
C428 O423 1.279 . S
C429 O430 1.315 . S
C429 O431 1.279 . S
O430 Cd422 2.223 . S
O430 C429 1.315 . S
O431 Cd421 2.240 . S
O431 C429 1.279 . S
O432 Cd422 2.297 . S
O432 C427 1.247 . S
O433 Cd422 2.439 . S
O433 C427 1.208 . S
O434 Cd435 2.223 . S
O434 C442 1.315 . S
Cd435 O434 2.223 . S
Cd435 O438 2.297 . S
Cd435 O439 2.439 . S
Cd435 O445 2.240 . S
Cd436 O437 2.240 . S
Cd436 O444 2.223 . S
Cd436 O446 2.297 . S
Cd436 O447 2.439 . S
O437 Cd436 2.240 . S
O437 C442 1.279 . S
O438 Cd435 2.297 . S
O438 C440 1.247 . S
O439 Cd435 2.439 . S
O439 C440 1.208 . S
C440 O438 1.247 . S
C440 O439 1.208 . S
C441 O446 1.247 . S
C441 O447 1.208 . S
C442 O434 1.315 . S
C442 O437 1.279 . S
C443 O444 1.315 . S
C443 O445 1.279 . S
O444 Cd436 2.223 . S
O444 C443 1.315 . S
O445 Cd435 2.240 . S
O445 C443 1.279 . S
O446 Cd436 2.297 . S
O446 C441 1.247 . S
O447 Cd436 2.439 . S
O447 C441 1.208 . S
O448 Cd449 2.223 . S
O448 C456 1.315 . S
Cd449 O448 2.223 . S
Cd449 O452 2.297 . S
Cd449 O453 2.439 . S
Cd449 O459 2.240 . S
Cd450 O451 2.240 . S
Cd450 O458 2.223 . S
Cd450 O460 2.297 . S
Cd450 O461 2.439 . S
O451 Cd450 2.240 . S
O451 C456 1.279 . S
O452 Cd449 2.297 . S
O452 C454 1.247 . S
O453 Cd449 2.439 . S
O453 C454 1.208 . S
C454 O452 1.247 . S
C454 O453 1.208 . S
C455 O460 1.247 . S
C455 O461 1.208 . S
C456 O448 1.315 . S
C456 O451 1.279 . S
C457 O458 1.315 . S
C457 O459 1.279 . S
O458 Cd450 2.223 . S
O458 C457 1.315 . S
O459 Cd449 2.240 . S
O459 C457 1.279 . S
O460 Cd450 2.297 . S
O460 C455 1.247 . S
O461 Cd450 2.439 . S
O461 C455 1.208 . S
O462 Cd463 2.223 . S
O462 C470 1.315 . S
Cd463 O462 2.223 . S
Cd463 O466 2.297 . S
Cd463 O467 2.439 . S
Cd463 O473 2.240 . S
Cd464 O465 2.240 . S
Cd464 O472 2.223 . S
Cd464 O474 2.297 . S
Cd464 O475 2.439 . S
O465 Cd464 2.240 . S
O465 C470 1.279 . S
O466 Cd463 2.297 . S
O466 C468 1.247 . S
O467 Cd463 2.439 . S
O467 C468 1.208 . S
C468 O466 1.247 . S
C468 O467 1.208 . S
C469 O474 1.247 . S
C469 O475 1.208 . S
C470 O462 1.315 . S
C470 O465 1.279 . S
C471 O472 1.315 . S
C471 O473 1.279 . S
O472 Cd464 2.223 . S
O472 C471 1.315 . S
O473 Cd463 2.240 . S
O473 C471 1.279 . S
O474 Cd464 2.297 . S
O474 C469 1.247 . S
O475 Cd464 2.439 . S
O475 C469 1.208 . S
O476 Cd477 2.223 . S
O476 C484 1.315 . S
Cd477 O476 2.223 . S
Cd477 O480 2.297 . S
Cd477 O481 2.439 . S
Cd477 O487 2.240 . S
Cd478 O479 2.240 . S
Cd478 O486 2.223 . S
Cd478 O488 2.297 . S
Cd478 O489 2.439 . S
O479 Cd478 2.240 . S
O479 C484 1.279 . S
O480 Cd477 2.297 . S
O480 C482 1.247 . S
O481 Cd477 2.439 . S
O481 C482 1.208 . S
C482 O480 1.247 . S
C482 O481 1.208 . S
C483 O488 1.247 . S
C483 O489 1.208 . S
C484 O476 1.315 . S
C484 O479 1.279 . S
C485 O486 1.315 . S
C485 O487 1.279 . S
O486 Cd478 2.223 . S
O486 C485 1.315 . S
O487 Cd477 2.240 . S
O487 C485 1.279 . S
O488 Cd478 2.297 . S
O488 C483 1.247 . S
O489 Cd478 2.439 . S
O489 C483 1.208 . S
O490 Cd491 2.223 . S
O490 C498 1.315 . S
Cd491 O490 2.223 . S
Cd491 O494 2.297 . S
Cd491 O495 2.439 . S
Cd491 O501 2.240 . S
Cd492 O493 2.240 . S
Cd492 O500 2.223 . S
Cd492 O502 2.297 . S
Cd492 O503 2.439 . S
O493 Cd492 2.240 . S
O493 C498 1.279 . S
O494 Cd491 2.297 . S
O494 C496 1.247 . S
O495 Cd491 2.439 . S
O495 C496 1.208 . S
C496 O494 1.247 . S
C496 O495 1.208 . S
C497 O502 1.247 . S
C497 O503 1.208 . S
C498 O490 1.315 . S
C498 O493 1.279 . S
C499 O500 1.315 . S
C499 O501 1.279 . S
O500 Cd492 2.223 . S
O500 C499 1.315 . S
O501 Cd491 2.240 . S
O501 C499 1.279 . S
O502 Cd492 2.297 . S
O502 C497 1.247 . S
O503 Cd492 2.439 . S
O503 C497 1.208 . S
H504 C510 0.930 . S
H505 C513 0.930 . S
H506 C514 0.930 . S
H507 C515 0.930 . S
H508 C518 0.930 . S
H509 C519 0.930 . S
C510 H504 0.930 . S
C510 C511 1.355 . S
C510 C512 1.415 . S
C511 C510 1.355 . S
C511 C513 1.419 . S
C512 C510 1.415 . S
C512 C517 1.425 . S
C512 C519 1.409 . S
C513 H505 0.930 . S
C513 C511 1.419 . S
C513 C514 1.362 . S
C514 H506 0.930 . S
C514 C513 1.362 . S
C514 C517 1.409 . S
C515 H507 0.930 . S
C515 C516 1.355 . S
C515 C517 1.415 . S
C516 C515 1.355 . S
C516 C518 1.419 . S
C517 C512 1.425 . S
C517 C514 1.409 . S
C517 C515 1.415 . S
C518 H508 0.930 . S
C518 C516 1.419 . S
C518 C519 1.362 . S
C519 H509 0.930 . S
C519 C512 1.409 . S
C519 C518 1.362 . S
H520 C526 0.930 . S
H521 C529 0.930 . S
H522 C530 0.930 . S
H523 C531 0.930 . S
H524 C534 0.930 . S
H525 C535 0.930 . S
C526 H520 0.930 . S
C526 C527 1.355 . S
C526 C528 1.415 . S
C527 C526 1.355 . S
C527 C529 1.419 . S
C528 C526 1.415 . S
C528 C533 1.425 1_545 S
C528 C535 1.409 1_545 S
C529 H521 0.930 . S
C529 C527 1.419 . S
C529 C530 1.362 . S
C530 H522 0.930 . S
C530 C529 1.362 . S
C530 C533 1.409 1_545 S
C531 H523 0.930 . S
C531 C532 1.355 . S
C531 C533 1.415 . S
C532 C531 1.355 . S
C532 C534 1.419 . S
C533 C528 1.425 1_565 S
C533 C530 1.409 1_565 S
C533 C531 1.415 . S
C534 H524 0.930 . S
C534 C532 1.419 . S
C534 C535 1.362 . S
C535 H525 0.930 . S
C535 C528 1.409 1_565 S
C535 C534 1.362 . S
H536 C542 0.930 . S
H537 C545 0.930 . S
H538 C546 0.930 . S
H539 C547 0.930 . S
H540 C550 0.930 . S
H541 C551 0.930 . S
C542 H536 0.930 . S
C542 C543 1.355 . S
C542 C544 1.415 . S
C543 C542 1.355 . S
C543 C545 1.419 . S
C544 C542 1.415 . S
C544 C549 1.425 1_655 S
C544 C551 1.409 1_655 S
C545 H537 0.930 . S
C545 C543 1.419 . S
C545 C546 1.362 . S
C546 H538 0.930 . S
C546 C545 1.362 . S
C546 C549 1.409 1_655 S
C547 H539 0.930 . S
C547 C548 1.355 . S
C547 C549 1.415 . S
C548 C547 1.355 . S
C548 C550 1.419 . S
C549 C544 1.425 1_455 S
C549 C546 1.409 1_455 S
C549 C547 1.415 . S
C550 H540 0.930 . S
C550 C548 1.419 . S
C550 C551 1.362 . S
C551 H541 0.930 . S
C551 C544 1.409 1_455 S
C551 C550 1.362 . S
H552 C558 0.930 . S
H553 C561 0.930 . S
H554 C562 0.930 . S
H555 C563 0.930 . S
H556 C566 0.930 . S
H557 C567 0.930 . S
C558 H552 0.930 . S
C558 C559 1.355 . S
C558 C560 1.415 . S
C559 C558 1.355 . S
C559 C561 1.419 . S
C560 C558 1.415 . S
C560 C565 1.425 . S
C560 C567 1.409 . S
C561 H553 0.930 . S
C561 C559 1.419 . S
C561 C562 1.362 . S
C562 H554 0.930 . S
C562 C561 1.362 . S
C562 C565 1.409 . S
C563 H555 0.930 . S
C563 C564 1.355 . S
C563 C565 1.415 . S
C564 C563 1.355 . S
C564 C566 1.419 . S
C565 C560 1.425 . S
C565 C562 1.409 . S
C565 C563 1.415 . S
C566 H556 0.930 . S
C566 C564 1.419 . S
C566 C567 1.362 . S
C567 H557 0.930 . S
C567 C560 1.409 . S
C567 C566 1.362 . S
H568 C574 0.930 . S
H569 C577 0.930 . S
H570 C578 0.930 . S
H571 C579 0.930 . S
H572 C582 0.930 . S
H573 C583 0.930 . S
C574 H568 0.930 . S
C574 C575 1.355 . S
C574 C576 1.415 . S
C575 C574 1.355 . S
C575 C577 1.419 . S
C576 C574 1.415 . S
C576 C581 1.425 1_545 S
C576 C583 1.409 1_545 S
C577 H569 0.930 . S
C577 C575 1.419 . S
C577 C578 1.362 . S
C578 H570 0.930 . S
C578 C577 1.362 . S
C578 C581 1.409 1_545 S
C579 H571 0.930 . S
C579 C580 1.355 . S
C579 C581 1.415 . S
C580 C579 1.355 . S
C580 C582 1.419 . S
C581 C576 1.425 1_565 S
C581 C578 1.409 1_565 S
C581 C579 1.415 . S
C582 H572 0.930 . S
C582 C580 1.419 . S
C582 C583 1.362 . S
C583 H573 0.930 . S
C583 C576 1.409 1_565 S
C583 C582 1.362 . S
H584 C590 0.930 . S
H585 C593 0.930 . S
H586 C594 0.930 . S
H587 C595 0.930 . S
H588 C598 0.930 . S
H589 C599 0.930 . S
C590 H584 0.930 . S
C590 C591 1.355 . S
C590 C592 1.415 . S
C591 C590 1.355 . S
C591 C593 1.419 . S
C592 C590 1.415 . S
C592 C597 1.425 1_455 S
C592 C599 1.409 1_455 S
C593 H585 0.930 . S
C593 C591 1.419 . S
C593 C594 1.362 . S
C594 H586 0.930 . S
C594 C593 1.362 . S
C594 C597 1.409 1_455 S
C595 H587 0.930 . S
C595 C596 1.355 . S
C595 C597 1.415 . S
C596 C595 1.355 . S
C596 C598 1.419 . S
C597 C592 1.425 1_655 S
C597 C594 1.409 1_655 S
C597 C595 1.415 . S
C598 H588 0.930 . S
C598 C596 1.419 . S
C598 C599 1.362 . S
C599 H589 0.930 . S
C599 C592 1.409 1_655 S
C599 C598 1.362 . S
H600 C606 0.930 . S
H601 C609 0.930 . S
H602 C610 0.930 . S
H603 C611 0.930 . S
H604 C614 0.930 . S
H605 C615 0.930 . S
C606 H600 0.930 . S
C606 C607 1.355 . S
C606 C608 1.415 . S
C607 C606 1.355 . S
C607 C609 1.419 . S
C608 C606 1.415 . S
C608 C613 1.425 . S
C608 C615 1.409 . S
C609 H601 0.930 . S
C609 C607 1.419 . S
C609 C610 1.362 . S
C610 H602 0.930 . S
C610 C609 1.362 . S
C610 C613 1.409 . S
C611 H603 0.930 . S
C611 C612 1.355 . S
C611 C613 1.415 . S
C612 C611 1.355 . S
C612 C614 1.419 . S
C613 C608 1.425 . S
C613 C610 1.409 . S
C613 C611 1.415 . S
C614 H604 0.930 . S
C614 C612 1.419 . S
C614 C615 1.362 . S
C615 H605 0.930 . S
C615 C608 1.409 . S
C615 C614 1.362 . S
H616 C622 0.930 . S
H617 C625 0.930 . S
H618 C626 0.930 . S
H619 C627 0.930 . S
H620 C630 0.930 . S
H621 C631 0.930 . S
C622 H616 0.930 . S
C622 C623 1.355 . S
C622 C624 1.415 . S
C623 C622 1.355 . S
C623 C625 1.419 . S
C624 C622 1.415 . S
C624 C629 1.425 . S
C624 C631 1.409 . S
C625 H617 0.930 . S
C625 C623 1.419 . S
C625 C626 1.362 . S
C626 H618 0.930 . S
C626 C625 1.362 . S
C626 C629 1.409 . S
C627 H619 0.930 . S
C627 C628 1.355 . S
C627 C629 1.415 . S
C628 C627 1.355 . S
C628 C630 1.419 . S
C629 C624 1.425 . S
C629 C626 1.409 . S
C629 C627 1.415 . S
C630 H620 0.930 . S
C630 C628 1.419 . S
C630 C631 1.362 . S
C631 H621 0.930 . S
C631 C624 1.409 . S
C631 C630 1.362 . S
H632 C638 0.930 . S
H633 C641 0.930 . S
H634 C642 0.930 . S
H635 C643 0.930 . S
H636 C646 0.930 . S
H637 C647 0.930 . S
C638 H632 0.930 . S
C638 C639 1.355 . S
C638 C640 1.415 . S
C639 C638 1.355 . S
C639 C641 1.419 . S
C640 C638 1.415 . S
C640 C645 1.425 . S
C640 C647 1.409 . S
C641 H633 0.930 . S
C641 C639 1.419 . S
C641 C642 1.362 . S
C642 H634 0.930 . S
C642 C641 1.362 . S
C642 C645 1.409 . S
C643 H635 0.930 . S
C643 C644 1.355 . S
C643 C645 1.415 . S
C644 C643 1.355 . S
C644 C646 1.419 . S
C645 C640 1.425 . S
C645 C642 1.409 . S
C645 C643 1.415 . S
C646 H636 0.930 . S
C646 C644 1.419 . S
C646 C647 1.362 . S
C647 H637 0.930 . S
C647 C640 1.409 . S
C647 C646 1.362 . S
H648 C654 0.930 . S
H649 C657 0.930 . S
H650 C658 0.930 . S
H651 C659 0.930 . S
H652 C662 0.930 . S
H653 C663 0.930 1_556 S
C654 H648 0.930 . S
C654 C655 1.355 . S
C654 C656 1.415 . S
C655 C654 1.355 . S
C655 C657 1.419 . S
C656 C654 1.415 . S
C656 C661 1.425 . S
C656 C663 1.409 . S
C657 H649 0.930 . S
C657 C655 1.419 . S
C657 C658 1.362 . S
C658 H650 0.930 . S
C658 C657 1.362 . S
C658 C661 1.409 . S
C659 H651 0.930 . S
C659 C660 1.355 . S
C659 C661 1.415 . S
C660 C659 1.355 . S
C660 C662 1.419 . S
C661 C656 1.425 . S
C661 C658 1.409 . S
C661 C659 1.415 . S
C662 H652 0.930 . S
C662 C660 1.419 . S
C662 C663 1.362 . S
C663 H653 0.930 1_554 S
C663 C656 1.409 . S
C663 C662 1.362 . S
H664 C670 0.930 . S
H665 C673 0.930 . S
H666 C674 0.930 . S
H667 C675 0.930 . S
H668 C678 0.930 . S
H669 C679 0.930 . S
C670 H664 0.930 . S
C670 C671 1.355 . S
C670 C672 1.415 . S
C671 C670 1.355 . S
C671 C673 1.419 . S
C672 C670 1.415 . S
C672 C677 1.425 . S
C672 C679 1.409 . S
C673 H665 0.930 . S
C673 C671 1.419 . S
C673 C674 1.362 . S
C674 H666 0.930 . S
C674 C673 1.362 . S
C674 C677 1.409 . S
C675 H667 0.930 . S
C675 C676 1.355 . S
C675 C677 1.415 . S
C676 C675 1.355 . S
C676 C678 1.419 . S
C677 C672 1.425 . S
C677 C674 1.409 . S
C677 C675 1.415 . S
C678 H668 0.930 . S
C678 C676 1.419 . S
C678 C679 1.362 . S
C679 H669 0.930 . S
C679 C672 1.409 . S
C679 C678 1.362 . S
H680 C686 0.930 . S
H681 C689 0.930 . S
H682 C690 0.930 . S
H683 C691 0.930 . S
H684 C694 0.930 . S
H685 C695 0.930 . S
C686 H680 0.930 . S
C686 C687 1.355 . S
C686 C688 1.415 . S
C687 C686 1.355 . S
C687 C689 1.419 . S
C688 C686 1.415 . S
C688 C693 1.425 . S
C688 C695 1.409 . S
C689 H681 0.930 . S
C689 C687 1.419 . S
C689 C690 1.362 . S
C690 H682 0.930 . S
C690 C689 1.362 . S
C690 C693 1.409 . S
C691 H683 0.930 . S
C691 C692 1.355 . S
C691 C693 1.415 . S
C692 C691 1.355 . S
C692 C694 1.419 . S
C693 C688 1.425 . S
C693 C690 1.409 . S
C693 C691 1.415 . S
C694 H684 0.930 . S
C694 C692 1.419 . S
C694 C695 1.362 . S
C695 H685 0.930 . S
C695 C688 1.409 . S
C695 C694 1.362 . S
H696 C702 0.930 . S
H697 C705 0.930 . S
H698 C706 0.930 . S
H699 C707 0.930 . S
H700 C710 0.930 . S
H701 C711 0.930 . S
C702 H696 0.930 . S
C702 C703 1.355 . S
C702 C704 1.415 . S
C703 C702 1.355 . S
C703 C705 1.419 . S
C704 C702 1.415 . S
C704 C709 1.425 . S
C704 C711 1.409 . S
C705 H697 0.930 . S
C705 C703 1.419 . S
C705 C706 1.362 . S
C706 H698 0.930 . S
C706 C705 1.362 . S
C706 C709 1.409 . S
C707 H699 0.930 . S
C707 C708 1.355 . S
C707 C709 1.415 . S
C708 C707 1.355 . S
C708 C710 1.419 . S
C709 C704 1.425 . S
C709 C706 1.409 . S
C709 C707 1.415 . S
C710 H700 0.930 . S
C710 C708 1.419 . S
C710 C711 1.362 . S
C711 H701 0.930 . S
C711 C704 1.409 . S
C711 C710 1.362 . S
H712 C718 0.930 . S
H713 C721 0.930 . S
H714 C722 0.930 . S
H715 C723 0.930 . S
H716 C726 0.930 . S
H717 C727 0.930 1_554 S
C718 H712 0.930 . S
C718 C719 1.355 . S
C718 C720 1.415 . S
C719 C718 1.355 . S
C719 C721 1.419 . S
C720 C718 1.415 . S
C720 C725 1.425 . S
C720 C727 1.409 . S
C721 H713 0.930 . S
C721 C719 1.419 . S
C721 C722 1.362 . S
C722 H714 0.930 . S
C722 C721 1.362 . S
C722 C725 1.409 . S
C723 H715 0.930 . S
C723 C724 1.355 . S
C723 C725 1.415 . S
C724 C723 1.355 . S
C724 C726 1.419 . S
C725 C720 1.425 . S
C725 C722 1.409 . S
C725 C723 1.415 . S
C726 H716 0.930 . S
C726 C724 1.419 . S
C726 C727 1.362 . S
C727 H717 0.930 1_556 S
C727 C720 1.409 . S
C727 C726 1.362 . S
H728 C734 0.930 . S
H729 C737 0.930 . S
H730 C738 0.930 . S
H731 C739 0.930 . S
H732 C742 0.930 1_554 S
H733 C743 0.930 . S
C734 H728 0.930 . S
C734 C735 1.355 . S
C734 C736 1.415 . S
C735 C734 1.355 . S
C735 C737 1.419 . S
C736 C734 1.415 . S
C736 C741 1.425 . S
C736 C743 1.409 1_556 S
C737 H729 0.930 . S
C737 C735 1.419 . S
C737 C738 1.362 . S
C738 H730 0.930 . S
C738 C737 1.362 . S
C738 C741 1.409 . S
C739 H731 0.930 . S
C739 C740 1.355 . S
C739 C741 1.415 . S
C740 C739 1.355 . S
C740 C742 1.419 . S
C741 C736 1.425 . S
C741 C738 1.409 . S
C741 C739 1.415 . S
C742 H732 0.930 1_556 S
C742 C740 1.419 . S
C742 C743 1.362 1_556 S
C743 H733 0.930 . S
C743 C736 1.409 1_554 S
C743 C742 1.362 1_554 S
H744 C750 0.930 . S
H745 C753 0.930 . S
H746 C754 0.930 . S
H747 C755 0.930 . S
H748 C758 0.930 . S
H749 C759 0.930 . S
C750 H744 0.930 . S
C750 C751 1.355 . S
C750 C752 1.415 . S
C751 C750 1.355 . S
C751 C753 1.419 . S
C752 C750 1.415 . S
C752 C757 1.425 . S
C752 C759 1.409 . S
C753 H745 0.930 . S
C753 C751 1.419 . S
C753 C754 1.362 . S
C754 H746 0.930 . S
C754 C753 1.362 . S
C754 C757 1.409 . S
C755 H747 0.930 . S
C755 C756 1.355 . S
C755 C757 1.415 . S
C756 C755 1.355 . S
C756 C758 1.419 . S
C757 C752 1.425 . S
C757 C754 1.409 . S
C757 C755 1.415 . S
C758 H748 0.930 . S
C758 C756 1.419 . S
C758 C759 1.362 . S
C759 H749 0.930 . S
C759 C752 1.409 . S
C759 C758 1.362 . S
H760 C766 0.930 . S
H761 C769 0.930 . S
H762 C770 0.930 . S
H763 C771 0.930 . S
H764 C774 0.930 . S
H765 C775 0.930 . S
C766 H760 0.930 . S
C766 C767 1.355 . S
C766 C768 1.415 . S
C767 C766 1.355 . S
C767 C769 1.419 . S
C768 C766 1.415 . S
C768 C773 1.425 . S
C768 C775 1.409 . S
C769 H761 0.930 . S
C769 C767 1.419 . S
C769 C770 1.362 . S
C770 H762 0.930 . S
C770 C769 1.362 . S
C770 C773 1.409 . S
C771 H763 0.930 . S
C771 C772 1.355 . S
C771 C773 1.415 . S
C772 C771 1.355 . S
C772 C774 1.419 . S
C773 C768 1.425 . S
C773 C770 1.409 . S
C773 C771 1.415 . S
C774 H764 0.930 . S
C774 C772 1.419 . S
C774 C775 1.362 . S
C775 H765 0.930 . S
C775 C768 1.409 . S
C775 C774 1.362 . S
H776 C782 0.930 . S
H777 C785 0.930 . S
H778 C786 0.930 . S
H779 C787 0.930 . S
H780 C790 0.930 . S
H781 C791 0.930 . S
C782 H776 0.930 . S
C782 C783 1.355 . S
C782 C784 1.415 . S
C783 C782 1.355 . S
C783 C785 1.419 . S
C784 C782 1.415 . S
C784 C789 1.425 . S
C784 C791 1.409 . S
C785 H777 0.930 . S
C785 C783 1.419 . S
C785 C786 1.362 . S
C786 H778 0.930 . S
C786 C785 1.362 . S
C786 C789 1.409 . S
C787 H779 0.930 . S
C787 C788 1.355 . S
C787 C789 1.415 . S
C788 C787 1.355 . S
C788 C790 1.419 . S
C789 C784 1.425 . S
C789 C786 1.409 . S
C789 C787 1.415 . S
C790 H780 0.930 . S
C790 C788 1.419 . S
C790 C791 1.362 . S
C791 H781 0.930 . S
C791 C784 1.409 . S
C791 C790 1.362 . S
H792 C798 0.930 1_554 S
H793 C801 0.930 . S
H794 C802 0.930 . S
H795 C803 0.930 . S
H796 C806 0.930 . S
H797 C807 0.930 . S
C798 H792 0.930 1_556 S
C798 C799 1.355 . S
C798 C800 1.415 1_556 S
C799 C798 1.355 . S
C799 C801 1.419 . S
C800 C798 1.415 1_554 S
C800 C805 1.425 . S
C800 C807 1.409 . S
C801 H793 0.930 . S
C801 C799 1.419 . S
C801 C802 1.362 . S
C802 H794 0.930 . S
C802 C801 1.362 . S
C802 C805 1.409 1_556 S
C803 H795 0.930 . S
C803 C804 1.355 . S
C803 C805 1.415 . S
C804 C803 1.355 . S
C804 C806 1.419 . S
C805 C800 1.425 . S
C805 C802 1.409 1_554 S
C805 C803 1.415 . S
C806 H796 0.930 . S
C806 C804 1.419 . S
C806 C807 1.362 . S
C807 H797 0.930 . S
C807 C800 1.409 . S
C807 C806 1.362 . S
H808 C814 0.930 . S
H809 C817 0.930 . S
H810 C818 0.930 . S
H811 C819 0.930 . S
H812 C822 0.930 . S
H813 C823 0.930 . S
C814 H808 0.930 . S
C814 C815 1.355 . S
C814 C816 1.415 . S
C815 C814 1.355 . S
C815 C817 1.419 . S
C816 C814 1.415 . S
C816 C821 1.425 . S
C816 C823 1.409 1_554 S
C817 H809 0.930 . S
C817 C815 1.419 . S
C817 C818 1.362 . S
C818 H810 0.930 . S
C818 C817 1.362 . S
C818 C821 1.409 . S
C819 H811 0.930 . S
C819 C820 1.355 . S
C819 C821 1.415 1_556 S
C820 C819 1.355 . S
C820 C822 1.419 . S
C821 C816 1.425 . S
C821 C818 1.409 . S
C821 C819 1.415 1_554 S
C822 H812 0.930 . S
C822 C820 1.419 . S
C822 C823 1.362 . S
C823 H813 0.930 . S
C823 C816 1.409 1_556 S
C823 C822 1.362 . S
H824 C830 0.930 . S
H825 C833 0.930 . S
H826 C834 0.930 . S
H827 C835 0.930 . S
H828 C838 0.930 . S
H829 C839 0.930 . S
C830 H824 0.930 . S
C830 C831 1.355 . S
C830 C832 1.415 . S
C831 C830 1.355 . S
C831 C833 1.419 . S
C832 C830 1.415 . S
C832 C837 1.425 . S
C832 C839 1.409 . S
C833 H825 0.930 . S
C833 C831 1.419 . S
C833 C834 1.362 . S
C834 H826 0.930 . S
C834 C833 1.362 . S
C834 C837 1.409 . S
C835 H827 0.930 . S
C835 C836 1.355 . S
C835 C837 1.415 1_556 S
C836 C835 1.355 . S
C836 C838 1.419 . S
C837 C832 1.425 . S
C837 C834 1.409 . S
C837 C835 1.415 1_554 S
C838 H828 0.930 . S
C838 C836 1.419 . S
C838 C839 1.362 1_556 S
C839 H829 0.930 . S
C839 C832 1.409 . S
C839 C838 1.362 1_554 S
H840 C846 0.930 . S
H841 C849 0.930 . S
H842 C850 0.930 . S
H843 C851 0.930 . S
H844 C854 0.930 . S
H845 C855 0.930 . S
C846 H840 0.930 . S
C846 C847 1.355 . S
C846 C848 1.415 . S
C847 C846 1.355 . S
C847 C849 1.419 . S
C848 C846 1.415 . S
C848 C853 1.425 . S
C848 C855 1.409 . S
C849 H841 0.930 . S
C849 C847 1.419 . S
C849 C850 1.362 . S
C850 H842 0.930 . S
C850 C849 1.362 . S
C850 C853 1.409 . S
C851 H843 0.930 . S
C851 C852 1.355 . S
C851 C853 1.415 . S
C852 C851 1.355 . S
C852 C854 1.419 . S
C853 C848 1.425 . S
C853 C850 1.409 . S
C853 C851 1.415 . S
C854 H844 0.930 . S
C854 C852 1.419 . S
C854 C855 1.362 . S
C855 H845 0.930 . S
C855 C848 1.409 . S
C855 C854 1.362 . S
H856 C862 0.930 . S
H857 C865 0.930 . S
H858 C866 0.930 . S
H859 C867 0.930 . S
H860 C870 0.930 . S
H861 C871 0.930 . S
C862 H856 0.930 . S
C862 C863 1.355 . S
C862 C864 1.415 . S
C863 C862 1.355 . S
C863 C865 1.419 . S
C864 C862 1.415 . S
C864 C869 1.425 . S
C864 C871 1.409 . S
C865 H857 0.930 . S
C865 C863 1.419 . S
C865 C866 1.362 . S
C866 H858 0.930 . S
C866 C865 1.362 . S
C866 C869 1.409 . S
C867 H859 0.930 . S
C867 C868 1.355 . S
C867 C869 1.415 . S
C868 C867 1.355 . S
C868 C870 1.419 . S
C869 C864 1.425 . S
C869 C866 1.409 . S
C869 C867 1.415 . S
C870 H860 0.930 . S
C870 C868 1.419 . S
C870 C871 1.362 . S
C871 H861 0.930 . S
C871 C864 1.409 . S
C871 C870 1.362 . S
H872 C878 0.930 . S
H873 C881 0.930 . S
H874 C882 0.930 . S
H875 C883 0.930 . S
H876 C886 0.930 . S
H877 C887 0.930 . S
C878 H872 0.930 . S
C878 C879 1.355 . S
C878 C880 1.415 . S
C879 C878 1.355 . S
C879 C881 1.419 . S
C880 C878 1.415 . S
C880 C885 1.425 . S
C880 C887 1.409 . S
C881 H873 0.930 . S
C881 C879 1.419 . S
C881 C882 1.362 . S
C882 H874 0.930 . S
C882 C881 1.362 . S
C882 C885 1.409 . S
C883 H875 0.930 . S
C883 C884 1.355 . S
C883 C885 1.415 . S
C884 C883 1.355 . S
C884 C886 1.419 . S
C885 C880 1.425 . S
C885 C882 1.409 . S
C885 C883 1.415 . S
C886 H876 0.930 . S
C886 C884 1.419 . S
C886 C887 1.362 . S
C887 H877 0.930 . S
C887 C880 1.409 . S
C887 C886 1.362 . S
H888 C894 0.930 . S
H889 C897 0.930 . S
H890 C898 0.930 . S
H891 C899 0.930 . S
H892 C902 0.930 . S
H893 C903 0.930 . S
C894 H888 0.930 . S
C894 C895 1.355 . S
C894 C896 1.415 . S
C895 C894 1.355 . S
C895 C897 1.419 . S
C896 C894 1.415 . S
C896 C901 1.425 . S
C896 C903 1.409 1_556 S
C897 H889 0.930 . S
C897 C895 1.419 . S
C897 C898 1.362 . S
C898 H890 0.930 . S
C898 C897 1.362 . S
C898 C901 1.409 . S
C899 H891 0.930 . S
C899 C900 1.355 . S
C899 C901 1.415 1_554 S
C900 C899 1.355 . S
C900 C902 1.419 . S
C901 C896 1.425 . S
C901 C898 1.409 . S
C901 C899 1.415 1_556 S
C902 H892 0.930 . S
C902 C900 1.419 . S
C902 C903 1.362 . S
C903 H893 0.930 . S
C903 C896 1.409 1_554 S
C903 C902 1.362 . S
H904 C910 0.930 . S
H905 C913 0.930 . S
H906 C914 0.930 . S
H907 C915 0.930 . S
H908 C918 0.930 . S
H909 C919 0.930 . S
C910 H904 0.930 . S
C910 C911 1.355 . S
C910 C912 1.415 . S
C911 C910 1.355 . S
C911 C913 1.419 . S
C912 C910 1.415 . S
C912 C917 1.425 . S
C912 C919 1.409 . S
C913 H905 0.930 . S
C913 C911 1.419 . S
C913 C914 1.362 . S
C914 H906 0.930 . S
C914 C913 1.362 . S
C914 C917 1.409 . S
C915 H907 0.930 . S
C915 C916 1.355 . S
C915 C917 1.415 1_554 S
C916 C915 1.355 . S
C916 C918 1.419 . S
C917 C912 1.425 . S
C917 C914 1.409 . S
C917 C915 1.415 1_556 S
C918 H908 0.930 . S
C918 C916 1.419 . S
C918 C919 1.362 1_554 S
C919 H909 0.930 . S
C919 C912 1.409 . S
C919 C918 1.362 1_556 S
H920 C926 0.930 . S
H921 C929 0.930 . S
H922 C930 0.930 . S
H923 C931 0.930 . S
H924 C934 0.930 . S
H925 C935 0.930 1_554 S
C926 H920 0.930 . S
C926 C927 1.355 . S
C926 C928 1.415 1_554 S
C927 C926 1.355 . S
C927 C929 1.419 . S
C928 C926 1.415 1_556 S
C928 C933 1.425 . S
C928 C935 1.409 . S
C929 H921 0.930 . S
C929 C927 1.419 . S
C929 C930 1.362 1_554 S
C930 H922 0.930 . S
C930 C929 1.362 1_556 S
C930 C933 1.409 . S
C931 H923 0.930 . S
C931 C932 1.355 . S
C931 C933 1.415 . S
C932 C931 1.355 . S
C932 C934 1.419 . S
C933 C928 1.425 . S
C933 C930 1.409 . S
C933 C931 1.415 . S
C934 H924 0.930 . S
C934 C932 1.419 . S
C934 C935 1.362 . S
C935 H925 0.930 1_556 S
C935 C928 1.409 . S
C935 C934 1.362 . S
H936 C942 0.930 . S
H937 C945 0.930 . S
H938 C946 0.930 . S
H939 C947 0.930 . S
H940 C950 0.930 . S
H941 C951 0.930 . S
C942 H936 0.930 . S
C942 C943 1.355 . S
C942 C944 1.415 . S
C943 C942 1.355 . S
C943 C945 1.419 . S
C944 C942 1.415 . S
C944 C949 1.425 . S
C944 C951 1.409 . S
C945 H937 0.930 . S
C945 C943 1.419 . S
C945 C946 1.362 . S
C946 H938 0.930 . S
C946 C945 1.362 . S
C946 C949 1.409 . S
C947 H939 0.930 . S
C947 C948 1.355 . S
C947 C949 1.415 . S
C948 C947 1.355 . S
C948 C950 1.419 . S
C949 C944 1.425 . S
C949 C946 1.409 . S
C949 C947 1.415 . S
C950 H940 0.930 . S
C950 C948 1.419 . S
C950 C951 1.362 . S
C951 H941 0.930 . S
C951 C944 1.409 . S
C951 C950 1.362 . S
H952 C958 0.930 . S
H953 C961 0.930 . S
H954 C962 0.930 . S
H955 C963 0.930 . S
H956 C966 0.930 . S
H957 C967 0.930 . S
C958 H952 0.930 . S
C958 C959 1.355 . S
C958 C960 1.415 . S
C959 C958 1.355 . S
C959 C961 1.419 . S
C960 C958 1.415 . S
C960 C965 1.425 . S
C960 C967 1.409 . S
C961 H953 0.930 . S
C961 C959 1.419 . S
C961 C962 1.362 . S
C962 H954 0.930 . S
C962 C961 1.362 . S
C962 C965 1.409 . S
C963 H955 0.930 . S
C963 C964 1.355 . S
C963 C965 1.415 . S
C964 C963 1.355 . S
C964 C966 1.419 . S
C965 C960 1.425 . S
C965 C962 1.409 . S
C965 C963 1.415 . S
C966 H956 0.930 . S
C966 C964 1.419 . S
C966 C967 1.362 . S
C967 H957 0.930 . S
C967 C960 1.409 . S
C967 C966 1.362 . S
H968 C974 0.930 . S
H969 C977 0.930 . S
H970 C978 0.930 . S
H971 C979 0.930 . S
H972 C982 0.930 . S
H973 C983 0.930 . S
C974 H968 0.930 . S
C974 C975 1.355 . S
C974 C976 1.415 . S
C975 C974 1.355 . S
C975 C977 1.419 . S
C976 C974 1.415 . S
C976 C981 1.425 . S
C976 C983 1.409 . S
C977 H969 0.930 . S
C977 C975 1.419 . S
C977 C978 1.362 . S
C978 H970 0.930 . S
C978 C977 1.362 . S
C978 C981 1.409 . S
C979 H971 0.930 . S
C979 C980 1.355 . S
C979 C981 1.415 . S
C980 C979 1.355 . S
C980 C982 1.419 . S
C981 C976 1.425 . S
C981 C978 1.409 . S
C981 C979 1.415 . S
C982 H972 0.930 . S
C982 C980 1.419 . S
C982 C983 1.362 . S
C983 H973 0.930 . S
C983 C976 1.409 . S
C983 C982 1.362 . S
H984 C990 0.930 . S
H985 C993 0.930 . S
H986 C994 0.930 . S
H987 C995 0.930 . S
H988 C998 0.930 . S
H989 C999 0.930 . S
C990 H984 0.930 . S
C990 C991 1.355 . S
C990 C992 1.415 . S
C991 C990 1.355 . S
C991 C993 1.419 . S
C992 C990 1.415 . S
C992 C997 1.425 . S
C992 C999 1.409 . S
C993 H985 0.930 . S
C993 C991 1.419 . S
C993 C994 1.362 . S
C994 H986 0.930 . S
C994 C993 1.362 . S
C994 C997 1.409 . S
C995 H987 0.930 . S
C995 C996 1.355 . S
C995 C997 1.415 . S
C996 C995 1.355 . S
C996 C998 1.419 . S
C997 C992 1.425 . S
C997 C994 1.409 . S
C997 C995 1.415 . S
C998 H988 0.930 . S
C998 C996 1.419 . S
C998 C999 1.362 . S
C999 H989 0.930 . S
C999 C992 1.409 . S
C999 C998 1.362 . S
H1000 C1006 0.930 . S
H1001 C1009 0.930 . S
H1002 C1010 0.930 . S
H1003 C1011 0.930 . S
H1004 C1014 0.930 . S
H1005 C1015 0.930 . S
C1006 H1000 0.930 . S
C1006 C1007 1.355 . S
C1006 C1008 1.415 . S
C1007 C1006 1.355 . S
C1007 C1009 1.419 . S
C1008 C1006 1.415 . S
C1008 C1013 1.425 . S
C1008 C1015 1.409 . S
C1009 H1001 0.930 . S
C1009 C1007 1.419 . S
C1009 C1010 1.362 . S
C1010 H1002 0.930 . S
C1010 C1009 1.362 . S
C1010 C1013 1.409 . S
C1011 H1003 0.930 . S
C1011 C1012 1.355 . S
C1011 C1013 1.415 . S
C1012 C1011 1.355 . S
C1012 C1014 1.419 . S
C1013 C1008 1.425 . S
C1013 C1010 1.409 . S
C1013 C1011 1.415 . S
C1014 H1004 0.930 . S
C1014 C1012 1.419 . S
C1014 C1015 1.362 . S
C1015 H1005 0.930 . S
C1015 C1008 1.409 . S
C1015 C1014 1.362 . S
H1016 C1022 0.930 . S
H1017 C1025 0.930 . S
H1018 C1026 0.930 . S
H1019 C1027 0.930 . S
H1020 C1030 0.930 . S
H1021 C1031 0.930 . S
C1022 H1016 0.930 . S
C1022 C1023 1.355 . S
C1022 C1024 1.415 . S
C1023 C1022 1.355 . S
C1023 C1025 1.419 . S
C1024 C1022 1.415 . S
C1024 C1029 1.425 . S
C1024 C1031 1.409 . S
C1025 H1017 0.930 . S
C1025 C1023 1.419 . S
C1025 C1026 1.362 . S
C1026 H1018 0.930 . S
C1026 C1025 1.362 . S
C1026 C1029 1.409 . S
C1027 H1019 0.930 . S
C1027 C1028 1.355 . S
C1027 C1029 1.415 . S
C1028 C1027 1.355 . S
C1028 C1030 1.419 . S
C1029 C1024 1.425 . S
C1029 C1026 1.409 . S
C1029 C1027 1.415 . S
C1030 H1020 0.930 . S
C1030 C1028 1.419 . S
C1030 C1031 1.362 . S
C1031 H1021 0.930 . S
C1031 C1024 1.409 . S
C1031 C1030 1.362 . S
H1032 C1038 0.930 . S
H1033 C1041 0.930 . S
H1034 C1042 0.930 . S
H1035 C1043 0.930 . S
H1036 C1046 0.930 . S
H1037 C1047 0.930 . S
C1038 H1032 0.930 . S
C1038 C1039 1.355 . S
C1038 C1040 1.415 . S
C1039 C1038 1.355 . S
C1039 C1041 1.419 . S
C1040 C1038 1.415 . S
C1040 C1045 1.425 . S
C1040 C1047 1.409 . S
C1041 H1033 0.930 . S
C1041 C1039 1.419 . S
C1041 C1042 1.362 . S
C1042 H1034 0.930 . S
C1042 C1041 1.362 . S
C1042 C1045 1.409 . S
C1043 H1035 0.930 . S
C1043 C1044 1.355 . S
C1043 C1045 1.415 . S
C1044 C1043 1.355 . S
C1044 C1046 1.419 . S
C1045 C1040 1.425 . S
C1045 C1042 1.409 . S
C1045 C1043 1.415 . S
C1046 H1036 0.930 . S
C1046 C1044 1.419 . S
C1046 C1047 1.362 . S
C1047 H1037 0.930 . S
C1047 C1040 1.409 . S
C1047 C1046 1.362 . S
H1048 C1054 0.930 . S
H1049 C1057 0.930 . S
H1050 C1058 0.930 . S
H1051 C1059 0.930 . S
H1052 C1062 0.930 . S
H1053 C1063 0.930 . S
C1054 H1048 0.930 . S
C1054 C1055 1.355 . S
C1054 C1056 1.415 . S
C1055 C1054 1.355 . S
C1055 C1057 1.419 . S
C1056 C1054 1.415 . S
C1056 C1061 1.425 . S
C1056 C1063 1.409 . S
C1057 H1049 0.930 . S
C1057 C1055 1.419 . S
C1057 C1058 1.362 . S
C1058 H1050 0.930 . S
C1058 C1057 1.362 . S
C1058 C1061 1.409 . S
C1059 H1051 0.930 . S
C1059 C1060 1.355 . S
C1059 C1061 1.415 . S
C1060 C1059 1.355 . S
C1060 C1062 1.419 . S
C1061 C1056 1.425 . S
C1061 C1058 1.409 . S
C1061 C1059 1.415 . S
C1062 H1052 0.930 . S
C1062 C1060 1.419 . S
C1062 C1063 1.362 . S
C1063 H1053 0.930 . S
C1063 C1056 1.409 . S
C1063 C1062 1.362 . S
H1064 C1070 0.930 . S
H1065 C1073 0.930 . S
H1066 C1074 0.930 . S
H1067 C1075 0.930 . S
H1068 C1078 0.930 . S
H1069 C1079 0.930 . S
C1070 H1064 0.930 . S
C1070 C1071 1.355 . S
C1070 C1072 1.415 . S
C1071 C1070 1.355 . S
C1071 C1073 1.419 . S
C1072 C1070 1.415 . S
C1072 C1077 1.425 . S
C1072 C1079 1.409 . S
C1073 H1065 0.930 . S
C1073 C1071 1.419 . S
C1073 C1074 1.362 . S
C1074 H1066 0.930 . S
C1074 C1073 1.362 . S
C1074 C1077 1.409 . S
C1075 H1067 0.930 . S
C1075 C1076 1.355 . S
C1075 C1077 1.415 . S
C1076 C1075 1.355 . S
C1076 C1078 1.419 . S
C1077 C1072 1.425 . S
C1077 C1074 1.409 . S
C1077 C1075 1.415 . S
C1078 H1068 0.930 . S
C1078 C1076 1.419 . S
C1078 C1079 1.362 . S
C1079 H1069 0.930 . S
C1079 C1072 1.409 . S
C1079 C1078 1.362 . S
H1080 C1086 0.930 . S
H1081 C1089 0.930 . S
H1082 C1090 0.930 . S
H1083 C1091 0.930 . S
H1084 C1094 0.930 . S
H1085 C1095 0.930 . S
C1086 H1080 0.930 . S
C1086 C1087 1.355 . S
C1086 C1088 1.415 . S
C1087 C1086 1.355 . S
C1087 C1089 1.419 . S
C1088 C1086 1.415 . S
C1088 C1093 1.425 . S
C1088 C1095 1.409 . S
C1089 H1081 0.930 . S
C1089 C1087 1.419 . S
C1089 C1090 1.362 . S
C1090 H1082 0.930 . S
C1090 C1089 1.362 . S
C1090 C1093 1.409 . S
C1091 H1083 0.930 . S
C1091 C1092 1.355 . S
C1091 C1093 1.415 . S
C1092 C1091 1.355 . S
C1092 C1094 1.419 . S
C1093 C1088 1.425 . S
C1093 C1090 1.409 . S
C1093 C1091 1.415 . S
C1094 H1084 0.930 . S
C1094 C1092 1.419 . S
C1094 C1095 1.362 . S
C1095 H1085 0.930 . S
C1095 C1088 1.409 . S
C1095 C1094 1.362 . S
H1096 C1102 0.930 . S
H1097 C1105 0.930 . S
H1098 C1106 0.930 . S
H1099 C1107 0.930 . S
H1100 C1110 0.930 . S
H1101 C1111 0.930 . S
C1102 H1096 0.930 . S
C1102 C1103 1.355 . S
C1102 C1104 1.415 . S
C1103 C1102 1.355 . S
C1103 C1105 1.419 . S
C1104 C1102 1.415 . S
C1104 C1109 1.425 . S
C1104 C1111 1.409 . S
C1105 H1097 0.930 . S
C1105 C1103 1.419 . S
C1105 C1106 1.362 . S
C1106 H1098 0.930 . S
C1106 C1105 1.362 . S
C1106 C1109 1.409 . S
C1107 H1099 0.930 . S
C1107 C1108 1.355 . S
C1107 C1109 1.415 . S
C1108 C1107 1.355 . S
C1108 C1110 1.419 . S
C1109 C1104 1.425 . S
C1109 C1106 1.409 . S
C1109 C1107 1.415 . S
C1110 H1100 0.930 . S
C1110 C1108 1.419 . S
C1110 C1111 1.362 . S
C1111 H1101 0.930 . S
C1111 C1104 1.409 . S
C1111 C1110 1.362 . S
H1112 C1118 0.930 . S
H1113 C1121 0.930 . S
H1114 C1122 0.930 . S
H1115 C1123 0.930 . S
H1116 C1126 0.930 . S
H1117 C1127 0.930 . S
C1118 H1112 0.930 . S
C1118 C1119 1.355 . S
C1118 C1120 1.415 . S
C1119 C1118 1.355 . S
C1119 C1121 1.419 . S
C1120 C1118 1.415 . S
C1120 C1125 1.425 . S
C1120 C1127 1.409 . S
C1121 H1113 0.930 . S
C1121 C1119 1.419 . S
C1121 C1122 1.362 . S
C1122 H1114 0.930 . S
C1122 C1121 1.362 . S
C1122 C1125 1.409 . S
C1123 H1115 0.930 . S
C1123 C1124 1.355 . S
C1123 C1125 1.415 . S
C1124 C1123 1.355 . S
C1124 C1126 1.419 . S
C1125 C1120 1.425 . S
C1125 C1122 1.409 . S
C1125 C1123 1.415 . S
C1126 H1116 0.930 . S
C1126 C1124 1.419 . S
C1126 C1127 1.362 . S
C1127 H1117 0.930 . S
C1127 C1120 1.409 . S
C1127 C1126 1.362 . S
H1128 C1134 0.930 . S
H1129 C1137 0.930 . S
H1130 C1138 0.930 . S
H1131 C1139 0.930 . S
H1132 C1142 0.930 1_554 S
H1133 C1143 0.930 . S
C1134 H1128 0.930 . S
C1134 C1135 1.355 . S
C1134 C1136 1.415 . S
C1135 C1134 1.355 . S
C1135 C1137 1.419 . S
C1136 C1134 1.415 . S
C1136 C1141 1.425 . S
C1136 C1143 1.409 . S
C1137 H1129 0.930 . S
C1137 C1135 1.419 . S
C1137 C1138 1.362 . S
C1138 H1130 0.930 . S
C1138 C1137 1.362 . S
C1138 C1141 1.409 . S
C1139 H1131 0.930 . S
C1139 C1140 1.355 . S
C1139 C1141 1.415 . S
C1140 C1139 1.355 . S
C1140 C1142 1.419 . S
C1141 C1136 1.425 . S
C1141 C1138 1.409 . S
C1141 C1139 1.415 . S
C1142 H1132 0.930 1_556 S
C1142 C1140 1.419 . S
C1142 C1143 1.362 . S
C1143 H1133 0.930 . S
C1143 C1136 1.409 . S
C1143 C1142 1.362 . S
H1144 C1150 0.930 . S
H1145 C1153 0.930 . S
H1146 C1154 0.930 . S
H1147 C1155 0.930 . S
H1148 C1158 0.930 1_554 S
H1149 C1159 0.930 . S
C1150 H1144 0.930 . S
C1150 C1151 1.355 . S
C1150 C1152 1.415 . S
C1151 C1150 1.355 . S
C1151 C1153 1.419 . S
C1152 C1150 1.415 . S
C1152 C1157 1.425 . S
C1152 C1159 1.409 . S
C1153 H1145 0.930 . S
C1153 C1151 1.419 . S
C1153 C1154 1.362 . S
C1154 H1146 0.930 . S
C1154 C1153 1.362 . S
C1154 C1157 1.409 . S
C1155 H1147 0.930 . S
C1155 C1156 1.355 . S
C1155 C1157 1.415 . S
C1156 C1155 1.355 . S
C1156 C1158 1.419 . S
C1157 C1152 1.425 . S
C1157 C1154 1.409 . S
C1157 C1155 1.415 . S
C1158 H1148 0.930 1_556 S
C1158 C1156 1.419 . S
C1158 C1159 1.362 . S
C1159 H1149 0.930 . S
C1159 C1152 1.409 . S
C1159 C1158 1.362 . S
H1160 C1166 0.930 . S
H1161 C1169 0.930 . S
H1162 C1170 0.930 . S
H1163 C1171 0.930 . S
H1164 C1174 0.930 . S
H1165 C1175 0.930 . S
C1166 H1160 0.930 . S
C1166 C1167 1.355 . S
C1166 C1168 1.415 . S
C1167 C1166 1.355 . S
C1167 C1169 1.419 . S
C1168 C1166 1.415 . S
C1168 C1173 1.425 . S
C1168 C1175 1.409 . S
C1169 H1161 0.930 . S
C1169 C1167 1.419 . S
C1169 C1170 1.362 . S
C1170 H1162 0.930 . S
C1170 C1169 1.362 . S
C1170 C1173 1.409 . S
C1171 H1163 0.930 . S
C1171 C1172 1.355 . S
C1171 C1173 1.415 . S
C1172 C1171 1.355 . S
C1172 C1174 1.419 . S
C1173 C1168 1.425 . S
C1173 C1170 1.409 . S
C1173 C1171 1.415 . S
C1174 H1164 0.930 . S
C1174 C1172 1.419 . S
C1174 C1175 1.362 . S
C1175 H1165 0.930 . S
C1175 C1168 1.409 . S
C1175 C1174 1.362 . S
H1176 C1182 0.930 . S
H1177 C1185 0.930 . S
H1178 C1186 0.930 . S
H1179 C1187 0.930 . S
H1180 C1190 0.930 . S
H1181 C1191 0.930 . S
C1182 H1176 0.930 . S
C1182 C1183 1.355 . S
C1182 C1184 1.415 . S
C1183 C1182 1.355 . S
C1183 C1185 1.419 . S
C1184 C1182 1.415 . S
C1184 C1189 1.425 . S
C1184 C1191 1.409 . S
C1185 H1177 0.930 . S
C1185 C1183 1.419 . S
C1185 C1186 1.362 . S
C1186 H1178 0.930 . S
C1186 C1185 1.362 . S
C1186 C1189 1.409 . S
C1187 H1179 0.930 . S
C1187 C1188 1.355 . S
C1187 C1189 1.415 . S
C1188 C1187 1.355 . S
C1188 C1190 1.419 . S
C1189 C1184 1.425 . S
C1189 C1186 1.409 . S
C1189 C1187 1.415 . S
C1190 H1180 0.930 . S
C1190 C1188 1.419 . S
C1190 C1191 1.362 . S
C1191 H1181 0.930 . S
C1191 C1184 1.409 . S
C1191 C1190 1.362 . S
H1192 C1198 0.930 . S
H1193 C1201 0.930 . S
H1194 C1202 0.930 . S
H1195 C1203 0.930 . S
H1196 C1206 0.930 . S
H1197 C1207 0.930 . S
C1198 H1192 0.930 . S
C1198 C1199 1.355 . S
C1198 C1200 1.415 . S
C1199 C1198 1.355 . S
C1199 C1201 1.419 . S
C1200 C1198 1.415 . S
C1200 C1205 1.425 . S
C1200 C1207 1.409 . S
C1201 H1193 0.930 . S
C1201 C1199 1.419 . S
C1201 C1202 1.362 . S
C1202 H1194 0.930 . S
C1202 C1201 1.362 . S
C1202 C1205 1.409 . S
C1203 H1195 0.930 . S
C1203 C1204 1.355 . S
C1203 C1205 1.415 . S
C1204 C1203 1.355 . S
C1204 C1206 1.419 . S
C1205 C1200 1.425 . S
C1205 C1202 1.409 . S
C1205 C1203 1.415 . S
C1206 H1196 0.930 . S
C1206 C1204 1.419 . S
C1206 C1207 1.362 . S
C1207 H1197 0.930 . S
C1207 C1200 1.409 . S
C1207 C1206 1.362 . S
H1208 C1214 0.930 . S
H1209 C1217 0.930 . S
H1210 C1218 0.930 . S
H1211 C1219 0.930 . S
H1212 C1222 0.930 . S
H1213 C1223 0.930 . S
C1214 H1208 0.930 . S
C1214 C1215 1.355 . S
C1214 C1216 1.415 . S
C1215 C1214 1.355 . S
C1215 C1217 1.419 . S
C1216 C1214 1.415 . S
C1216 C1221 1.425 . S
C1216 C1223 1.409 . S
C1217 H1209 0.930 . S
C1217 C1215 1.419 . S
C1217 C1218 1.362 . S
C1218 H1210 0.930 . S
C1218 C1217 1.362 . S
C1218 C1221 1.409 . S
C1219 H1211 0.930 . S
C1219 C1220 1.355 . S
C1219 C1221 1.415 . S
C1220 C1219 1.355 . S
C1220 C1222 1.419 . S
C1221 C1216 1.425 . S
C1221 C1218 1.409 . S
C1221 C1219 1.415 . S
C1222 H1212 0.930 . S
C1222 C1220 1.419 . S
C1222 C1223 1.362 . S
C1223 H1213 0.930 . S
C1223 C1216 1.409 . S
C1223 C1222 1.362 . S
H1224 C1230 0.930 . S
H1225 C1233 0.930 . S
H1226 C1234 0.930 . S
H1227 C1235 0.930 . S
H1228 C1238 0.930 . S
H1229 C1239 0.930 . S
C1230 H1224 0.930 . S
C1230 C1231 1.355 . S
C1230 C1232 1.415 . S
C1231 C1230 1.355 . S
C1231 C1233 1.419 . S
C1232 C1230 1.415 . S
C1232 C1237 1.425 . S
C1232 C1239 1.409 . S
C1233 H1225 0.930 . S
C1233 C1231 1.419 . S
C1233 C1234 1.362 . S
C1234 H1226 0.930 . S
C1234 C1233 1.362 . S
C1234 C1237 1.409 . S
C1235 H1227 0.930 . S
C1235 C1236 1.355 . S
C1235 C1237 1.415 . S
C1236 C1235 1.355 . S
C1236 C1238 1.419 . S
C1237 C1232 1.425 . S
C1237 C1234 1.409 . S
C1237 C1235 1.415 . S
C1238 H1228 0.930 . S
C1238 C1236 1.419 . S
C1238 C1239 1.362 . S
C1239 H1229 0.930 . S
C1239 C1232 1.409 . S
C1239 C1238 1.362 . S
H1240 C1246 0.930 . S
H1241 C1249 0.930 . S
H1242 C1250 0.930 . S
H1243 C1251 0.930 . S
H1244 C1254 0.930 . S
H1245 C1255 0.930 . S
C1246 H1240 0.930 . S
C1246 C1247 1.355 . S
C1246 C1248 1.415 . S
C1247 C1246 1.355 . S
C1247 C1249 1.419 . S
C1248 C1246 1.415 . S
C1248 C1253 1.425 . S
C1248 C1255 1.409 . S
C1249 H1241 0.930 . S
C1249 C1247 1.419 . S
C1249 C1250 1.362 . S
C1250 H1242 0.930 . S
C1250 C1249 1.362 . S
C1250 C1253 1.409 . S
C1251 H1243 0.930 . S
C1251 C1252 1.355 . S
C1251 C1253 1.415 . S
C1252 C1251 1.355 . S
C1252 C1254 1.419 . S
C1253 C1248 1.425 . S
C1253 C1250 1.409 . S
C1253 C1251 1.415 . S
C1254 H1244 0.930 . S
C1254 C1252 1.419 . S
C1254 C1255 1.362 . S
C1255 H1245 0.930 . S
C1255 C1248 1.409 . S
C1255 C1254 1.362 . S
H1256 C1262 0.930 . S
H1257 C1265 0.930 1_556 S
H1258 C1266 0.930 . S
H1259 C1267 0.930 . S
H1260 C1270 0.930 . S
H1261 C1271 0.930 . S
C1262 H1256 0.930 . S
C1262 C1263 1.355 . S
C1262 C1264 1.415 . S
C1263 C1262 1.355 . S
C1263 C1265 1.419 . S
C1264 C1262 1.415 . S
C1264 C1269 1.425 . S
C1264 C1271 1.409 . S
C1265 H1257 0.930 1_554 S
C1265 C1263 1.419 . S
C1265 C1266 1.362 . S
C1266 H1258 0.930 . S
C1266 C1265 1.362 . S
C1266 C1269 1.409 . S
C1267 H1259 0.930 . S
C1267 C1268 1.355 . S
C1267 C1269 1.415 . S
C1268 C1267 1.355 . S
C1268 C1270 1.419 . S
C1269 C1264 1.425 . S
C1269 C1266 1.409 . S
C1269 C1267 1.415 . S
C1270 H1260 0.930 . S
C1270 C1268 1.419 . S
C1270 C1271 1.362 . S
C1271 H1261 0.930 . S
C1271 C1264 1.409 . S
C1271 C1270 1.362 . S
H1272 C1278 0.930 . S
H1273 C1281 0.930 . S
H1274 C1282 0.930 . S
H1275 C1283 0.930 . S
H1276 C1286 0.930 . S
H1277 C1287 0.930 . S
C1278 H1272 0.930 . S
C1278 C1279 1.355 . S
C1278 C1280 1.415 . S
C1279 C1278 1.355 . S
C1279 C1281 1.419 . S
C1280 C1278 1.415 . S
C1280 C1285 1.425 . S
C1280 C1287 1.409 . S
C1281 H1273 0.930 . S
C1281 C1279 1.419 . S
C1281 C1282 1.362 . S
C1282 H1274 0.930 . S
C1282 C1281 1.362 . S
C1282 C1285 1.409 . S
C1283 H1275 0.930 . S
C1283 C1284 1.355 . S
C1283 C1285 1.415 . S
C1284 C1283 1.355 . S
C1284 C1286 1.419 . S
C1285 C1280 1.425 . S
C1285 C1282 1.409 . S
C1285 C1283 1.415 . S
C1286 H1276 0.930 . S
C1286 C1284 1.419 . S
C1286 C1287 1.362 . S
C1287 H1277 0.930 . S
C1287 C1280 1.409 . S
C1287 C1286 1.362 . S
H1288 C1294 0.930 . S
H1289 C1297 0.930 . S
H1290 C1298 0.930 . S
H1291 C1299 0.930 . S
H1292 C1302 0.930 . S
H1293 C1303 0.930 . S
C1294 H1288 0.930 . S
C1294 C1295 1.355 . S
C1294 C1296 1.415 . S
C1295 C1294 1.355 . S
C1295 C1297 1.419 . S
C1296 C1294 1.415 . S
C1296 C1301 1.425 . S
C1296 C1303 1.409 . S
C1297 H1289 0.930 . S
C1297 C1295 1.419 . S
C1297 C1298 1.362 . S
C1298 H1290 0.930 . S
C1298 C1297 1.362 . S
C1298 C1301 1.409 . S
C1299 H1291 0.930 . S
C1299 C1300 1.355 . S
C1299 C1301 1.415 . S
C1300 C1299 1.355 . S
C1300 C1302 1.419 . S
C1301 C1296 1.425 . S
C1301 C1298 1.409 . S
C1301 C1299 1.415 . S
C1302 H1292 0.930 . S
C1302 C1300 1.419 . S
C1302 C1303 1.362 . S
C1303 H1293 0.930 . S
C1303 C1296 1.409 . S
C1303 C1302 1.362 . S
H1304 C1310 0.930 . S
H1305 C1313 0.930 . S
H1306 C1314 0.930 . S
H1307 C1315 0.930 . S
H1308 C1318 0.930 . S
H1309 C1319 0.930 . S
C1310 H1304 0.930 . S
C1310 C1311 1.355 . S
C1310 C1312 1.415 . S
C1311 C1310 1.355 . S
C1311 C1313 1.419 . S
C1312 C1310 1.415 . S
C1312 C1317 1.425 . S
C1312 C1319 1.409 . S
C1313 H1305 0.930 . S
C1313 C1311 1.419 . S
C1313 C1314 1.362 . S
C1314 H1306 0.930 . S
C1314 C1313 1.362 . S
C1314 C1317 1.409 . S
C1315 H1307 0.930 . S
C1315 C1316 1.355 . S
C1315 C1317 1.415 . S
C1316 C1315 1.355 . S
C1316 C1318 1.419 . S
C1317 C1312 1.425 . S
C1317 C1314 1.409 . S
C1317 C1315 1.415 . S
C1318 H1308 0.930 . S
C1318 C1316 1.419 . S
C1318 C1319 1.362 . S
C1319 H1309 0.930 . S
C1319 C1312 1.409 . S
C1319 C1318 1.362 . S
H1320 C1326 0.930 . S
H1321 C1329 0.930 . S
H1322 C1330 0.930 . S
H1323 C1331 0.930 . S
H1324 C1334 0.930 . S
H1325 C1335 0.930 . S
C1326 H1320 0.930 . S
C1326 C1327 1.355 . S
C1326 C1328 1.415 . S
C1327 C1326 1.355 . S
C1327 C1329 1.419 . S
C1328 C1326 1.415 . S
C1328 C1333 1.425 . S
C1328 C1335 1.409 . S
C1329 H1321 0.930 . S
C1329 C1327 1.419 . S
C1329 C1330 1.362 . S
C1330 H1322 0.930 . S
C1330 C1329 1.362 . S
C1330 C1333 1.409 . S
C1331 H1323 0.930 . S
C1331 C1332 1.355 . S
C1331 C1333 1.415 . S
C1332 C1331 1.355 . S
C1332 C1334 1.419 . S
C1333 C1328 1.425 . S
C1333 C1330 1.409 . S
C1333 C1331 1.415 . S
C1334 H1324 0.930 . S
C1334 C1332 1.419 . S
C1334 C1335 1.362 . S
C1335 H1325 0.930 . S
C1335 C1328 1.409 . S
C1335 C1334 1.362 . S
H1336 C1342 0.930 . S
H1337 C1345 0.930 . S
H1338 C1346 0.930 . S
H1339 C1347 0.930 . S
H1340 C1350 0.930 . S
H1341 C1351 0.930 . S
C1342 H1336 0.930 . S
C1342 C1343 1.355 . S
C1342 C1344 1.415 . S
C1343 C1342 1.355 . S
C1343 C1345 1.419 . S
C1344 C1342 1.415 . S
C1344 C1349 1.425 . S
C1344 C1351 1.409 . S
C1345 H1337 0.930 . S
C1345 C1343 1.419 . S
C1345 C1346 1.362 . S
C1346 H1338 0.930 . S
C1346 C1345 1.362 . S
C1346 C1349 1.409 . S
C1347 H1339 0.930 . S
C1347 C1348 1.355 . S
C1347 C1349 1.415 . S
C1348 C1347 1.355 . S
C1348 C1350 1.419 . S
C1349 C1344 1.425 . S
C1349 C1346 1.409 . S
C1349 C1347 1.415 . S
C1350 H1340 0.930 . S
C1350 C1348 1.419 . S
C1350 C1351 1.362 . S
C1351 H1341 0.930 . S
C1351 C1344 1.409 . S
C1351 C1350 1.362 . S
H1352 C1358 0.930 . S
H1353 C1361 0.930 . S
H1354 C1362 0.930 . S
H1355 C1363 0.930 . S
H1356 C1366 0.930 . S
H1357 C1367 0.930 . S
C1358 H1352 0.930 . S
C1358 C1359 1.355 . S
C1358 C1360 1.415 . S
C1359 C1358 1.355 . S
C1359 C1361 1.419 . S
C1360 C1358 1.415 . S
C1360 C1365 1.425 . S
C1360 C1367 1.409 . S
C1361 H1353 0.930 . S
C1361 C1359 1.419 . S
C1361 C1362 1.362 . S
C1362 H1354 0.930 . S
C1362 C1361 1.362 . S
C1362 C1365 1.409 . S
C1363 H1355 0.930 . S
C1363 C1364 1.355 . S
C1363 C1365 1.415 . S
C1364 C1363 1.355 . S
C1364 C1366 1.419 . S
C1365 C1360 1.425 . S
C1365 C1362 1.409 . S
C1365 C1363 1.415 . S
C1366 H1356 0.930 . S
C1366 C1364 1.419 . S
C1366 C1367 1.362 . S
C1367 H1357 0.930 . S
C1367 C1360 1.409 . S
C1367 C1366 1.362 . S
H1368 C1374 0.930 1_556 S
H1369 C1377 0.930 . S
H1370 C1378 0.930 . S
H1371 C1379 0.930 . S
H1372 C1382 0.930 . S
H1373 C1383 0.930 1_556 S
C1374 H1368 0.930 1_554 S
C1374 C1375 1.355 . S
C1374 C1376 1.415 . S
C1375 C1374 1.355 . S
C1375 C1377 1.419 . S
C1376 C1374 1.415 . S
C1376 C1381 1.425 . S
C1376 C1383 1.409 . S
C1377 H1369 0.930 . S
C1377 C1375 1.419 . S
C1377 C1378 1.362 . S
C1378 H1370 0.930 . S
C1378 C1377 1.362 . S
C1378 C1381 1.409 . S
C1379 H1371 0.930 . S
C1379 C1380 1.355 . S
C1379 C1381 1.415 . S
C1380 C1379 1.355 . S
C1380 C1382 1.419 . S
C1381 C1376 1.425 . S
C1381 C1378 1.409 . S
C1381 C1379 1.415 . S
C1382 H1372 0.930 . S
C1382 C1380 1.419 . S
C1382 C1383 1.362 . S
C1383 H1373 0.930 1_554 S
C1383 C1376 1.409 . S
C1383 C1382 1.362 . S
H1384 C1390 0.930 . S
H1385 C1393 0.930 . S
H1386 C1394 0.930 . S
H1387 C1395 0.930 . S
H1388 C1398 0.930 . S
H1389 C1399 0.930 . S
C1390 H1384 0.930 . S
C1390 C1391 1.355 . S
C1390 C1392 1.415 . S
C1391 C1390 1.355 . S
C1391 C1393 1.419 . S
C1392 C1390 1.415 . S
C1392 C1397 1.425 . S
C1392 C1399 1.409 1_554 S
C1393 H1385 0.930 . S
C1393 C1391 1.419 . S
C1393 C1394 1.362 . S
C1394 H1386 0.930 . S
C1394 C1393 1.362 . S
C1394 C1397 1.409 . S
C1395 H1387 0.930 . S
C1395 C1396 1.355 . S
C1395 C1397 1.415 . S
C1396 C1395 1.355 . S
C1396 C1398 1.419 1_554 S
C1397 C1392 1.425 . S
C1397 C1394 1.409 . S
C1397 C1395 1.415 . S
C1398 H1388 0.930 . S
C1398 C1396 1.419 1_556 S
C1398 C1399 1.362 . S
C1399 H1389 0.930 . S
C1399 C1392 1.409 1_556 S
C1399 C1398 1.362 . S
H1400 C1406 0.930 . S
H1401 C1409 0.930 . S
H1402 C1410 0.930 . S
H1403 C1411 0.930 . S
H1404 C1414 0.930 . S
H1405 C1415 0.930 . S
C1406 H1400 0.930 . S
C1406 C1407 1.355 . S
C1406 C1408 1.415 . S
C1407 C1406 1.355 . S
C1407 C1409 1.419 1_554 S
C1408 C1406 1.415 . S
C1408 C1413 1.425 . S
C1408 C1415 1.409 . S
C1409 H1401 0.930 . S
C1409 C1407 1.419 1_556 S
C1409 C1410 1.362 1_556 S
C1410 H1402 0.930 . S
C1410 C1409 1.362 1_554 S
C1410 C1413 1.409 . S
C1411 H1403 0.930 . S
C1411 C1412 1.355 . S
C1411 C1413 1.415 . S
C1412 C1411 1.355 . S
C1412 C1414 1.419 . S
C1413 C1408 1.425 . S
C1413 C1410 1.409 . S
C1413 C1411 1.415 . S
C1414 H1404 0.930 . S
C1414 C1412 1.419 . S
C1414 C1415 1.362 . S
C1415 H1405 0.930 . S
C1415 C1408 1.409 . S
C1415 C1414 1.362 . S
H1416 C1422 0.930 . S
H1417 C1425 0.930 . S
H1418 C1426 0.930 . S
H1419 C1427 0.930 . S
H1420 C1430 0.930 . S
H1421 C1431 0.930 . S
C1422 H1416 0.930 . S
C1422 C1423 1.355 . S
C1422 C1424 1.415 . S
C1423 C1422 1.355 . S
C1423 C1425 1.419 . S
C1424 C1422 1.415 . S
C1424 C1429 1.425 . S
C1424 C1431 1.409 . S
C1425 H1417 0.930 . S
C1425 C1423 1.419 . S
C1425 C1426 1.362 . S
C1426 H1418 0.930 . S
C1426 C1425 1.362 . S
C1426 C1429 1.409 . S
C1427 H1419 0.930 . S
C1427 C1428 1.355 . S
C1427 C1429 1.415 . S
C1428 C1427 1.355 . S
C1428 C1430 1.419 . S
C1429 C1424 1.425 . S
C1429 C1426 1.409 . S
C1429 C1427 1.415 . S
C1430 H1420 0.930 . S
C1430 C1428 1.419 . S
C1430 C1431 1.362 . S
C1431 H1421 0.930 . S
C1431 C1424 1.409 . S
C1431 C1430 1.362 . S
H1432 C1438 0.930 . S
H1433 C1441 0.930 . S
H1434 C1442 0.930 . S
H1435 C1443 0.930 . S
H1436 C1446 0.930 . S
H1437 C1447 0.930 . S
C1438 H1432 0.930 . S
C1438 C1439 1.355 . S
C1438 C1440 1.415 . S
C1439 C1438 1.355 . S
C1439 C1441 1.419 . S
C1440 C1438 1.415 . S
C1440 C1445 1.425 . S
C1440 C1447 1.409 . S
C1441 H1433 0.930 . S
C1441 C1439 1.419 . S
C1441 C1442 1.362 . S
C1442 H1434 0.930 . S
C1442 C1441 1.362 . S
C1442 C1445 1.409 . S
C1443 H1435 0.930 . S
C1443 C1444 1.355 . S
C1443 C1445 1.415 . S
C1444 C1443 1.355 . S
C1444 C1446 1.419 . S
C1445 C1440 1.425 . S
C1445 C1442 1.409 . S
C1445 C1443 1.415 . S
C1446 H1436 0.930 . S
C1446 C1444 1.419 . S
C1446 C1447 1.362 . S
C1447 H1437 0.930 . S
C1447 C1440 1.409 . S
C1447 C1446 1.362 . S
H1448 C1454 0.930 . S
H1449 C1457 0.930 . S
H1450 C1458 0.930 . S
H1451 C1459 0.930 . S
H1452 C1462 0.930 . S
H1453 C1463 0.930 . S
C1454 H1448 0.930 . S
C1454 C1455 1.355 . S
C1454 C1456 1.415 . S
C1455 C1454 1.355 . S
C1455 C1457 1.419 . S
C1456 C1454 1.415 . S
C1456 C1461 1.425 . S
C1456 C1463 1.409 . S
C1457 H1449 0.930 . S
C1457 C1455 1.419 . S
C1457 C1458 1.362 . S
C1458 H1450 0.930 . S
C1458 C1457 1.362 . S
C1458 C1461 1.409 . S
C1459 H1451 0.930 . S
C1459 C1460 1.355 . S
C1459 C1461 1.415 . S
C1460 C1459 1.355 . S
C1460 C1462 1.419 . S
C1461 C1456 1.425 . S
C1461 C1458 1.409 . S
C1461 C1459 1.415 . S
C1462 H1452 0.930 . S
C1462 C1460 1.419 . S
C1462 C1463 1.362 . S
C1463 H1453 0.930 . S
C1463 C1456 1.409 . S
C1463 C1462 1.362 . S
H1464 C1470 0.930 . S
H1465 C1473 0.930 . S
H1466 C1474 0.943 . S
H1467 C1475 0.930 1_554 S
H1468 C1478 0.930 . S
H1469 C1479 0.930 . S
C1470 H1464 0.930 . S
C1470 C1471 1.355 . S
C1470 C1472 1.415 . S
C1471 C1470 1.355 . S
C1471 C1473 1.419 . S
C1472 C1470 1.415 . S
C1472 C1477 1.425 . S
C1472 C1479 1.409 . S
C1473 H1465 0.930 . S
C1473 C1471 1.419 . S
C1473 C1474 1.362 . S
C1474 H1466 0.943 . S
C1474 C1473 1.362 . S
C1474 C1477 1.409 . S
C1475 H1467 0.930 1_556 S
C1475 C1476 1.355 . S
C1475 C1477 1.415 . S
C1476 C1475 1.355 . S
C1476 C1478 1.419 . S
C1477 C1472 1.425 . S
C1477 C1474 1.409 . S
C1477 C1475 1.415 . S
C1478 H1468 0.930 . S
C1478 C1476 1.419 . S
C1478 C1479 1.362 . S
C1479 H1469 0.930 . S
C1479 C1472 1.409 . S
C1479 C1478 1.362 . S
H1480 C1486 0.930 . S
H1481 C1489 0.930 . S
H1482 C1490 0.930 . S
H1483 C1491 0.930 . S
H1484 C1494 0.930 . S
H1485 C1495 0.930 . S
C1486 H1480 0.930 . S
C1486 C1487 1.355 . S
C1486 C1488 1.415 . S
C1487 C1486 1.355 . S
C1487 C1489 1.419 1_556 S
C1488 C1486 1.415 . S
C1488 C1493 1.425 . S
C1488 C1495 1.409 . S
C1489 H1481 0.930 . S
C1489 C1487 1.419 1_554 S
C1489 C1490 1.362 1_554 S
C1490 H1482 0.930 . S
C1490 C1489 1.362 1_556 S
C1490 C1493 1.409 . S
C1491 H1483 0.930 . S
C1491 C1492 1.355 . S
C1491 C1493 1.415 . S
C1492 C1491 1.355 . S
C1492 C1494 1.419 . S
C1493 C1488 1.425 . S
C1493 C1490 1.409 . S
C1493 C1491 1.415 . S
C1494 H1484 0.930 . S
C1494 C1492 1.419 . S
C1494 C1495 1.362 . S
C1495 H1485 0.930 . S
C1495 C1488 1.409 . S
C1495 C1494 1.362 . S
H1496 C1502 0.930 . S
H1497 C1505 0.930 . S
H1498 C1506 0.930 1_554 S
H1499 C1507 0.930 1_554 S
H1500 C1510 0.930 . S
H1501 C1511 0.930 . S
C1502 H1496 0.930 . S
C1502 C1503 1.355 . S
C1502 C1504 1.415 . S
C1503 C1502 1.355 . S
C1503 C1505 1.419 . S
C1504 C1502 1.415 . S
C1504 C1509 1.425 . S
C1504 C1511 1.409 . S
C1505 H1497 0.930 . S
C1505 C1503 1.419 . S
C1505 C1506 1.362 . S
C1506 H1498 0.930 1_556 S
C1506 C1505 1.362 . S
C1506 C1509 1.409 . S
C1507 H1499 0.930 1_556 S
C1507 C1508 1.355 . S
C1507 C1509 1.415 . S
C1508 C1507 1.355 . S
C1508 C1510 1.419 . S
C1509 C1504 1.425 . S
C1509 C1506 1.409 . S
C1509 C1507 1.415 . S
C1510 H1500 0.930 . S
C1510 C1508 1.419 . S
C1510 C1511 1.362 . S
C1511 H1501 0.930 . S
C1511 C1504 1.409 . S
C1511 C1510 1.362 . S
H1512 C1518 0.930 . S
H1513 C1521 0.930 . S
H1514 C1522 0.930 . S
H1515 C1523 0.930 . S
H1516 C1526 0.930 . S
H1517 C1527 0.930 . S
C1518 H1512 0.930 . S
C1518 C1519 1.355 . S
C1518 C1520 1.415 . S
C1519 C1518 1.355 . S
C1519 C1521 1.419 . S
C1520 C1518 1.415 . S
C1520 C1525 1.425 . S
C1520 C1527 1.409 . S
C1521 H1513 0.930 . S
C1521 C1519 1.419 . S
C1521 C1522 1.362 . S
C1522 H1514 0.930 . S
C1522 C1521 1.362 . S
C1522 C1525 1.409 . S
C1523 H1515 0.930 . S
C1523 C1524 1.355 . S
C1523 C1525 1.415 . S
C1524 C1523 1.355 . S
C1524 C1526 1.419 . S
C1525 C1520 1.425 . S
C1525 C1522 1.409 . S
C1525 C1523 1.415 . S
C1526 H1516 0.930 . S
C1526 C1524 1.419 . S
C1526 C1527 1.362 . S
C1527 H1517 0.930 . S
C1527 C1520 1.409 . S
C1527 C1526 1.362 . S
H1528 C1534 0.930 . S
H1529 C1537 0.930 . S
H1530 C1538 0.930 . S
H1531 C1539 0.930 . S
H1532 C1542 0.930 . S
H1533 C1543 0.930 . S
C1534 H1528 0.930 . S
C1534 C1535 1.355 . S
C1534 C1536 1.415 . S
C1535 C1534 1.355 . S
C1535 C1537 1.419 . S
C1536 C1534 1.415 . S
C1536 C1541 1.425 . S
C1536 C1543 1.409 . S
C1537 H1529 0.930 . S
C1537 C1535 1.419 . S
C1537 C1538 1.362 . S
C1538 H1530 0.930 . S
C1538 C1537 1.362 . S
C1538 C1541 1.409 . S
C1539 H1531 0.930 . S
C1539 C1540 1.355 . S
C1539 C1541 1.415 . S
C1540 C1539 1.355 . S
C1540 C1542 1.419 . S
C1541 C1536 1.425 . S
C1541 C1538 1.409 . S
C1541 C1539 1.415 . S
C1542 H1532 0.930 . S
C1542 C1540 1.419 . S
C1542 C1543 1.362 . S
C1543 H1533 0.930 . S
C1543 C1536 1.409 . S
C1543 C1542 1.362 . S
H1544 C1550 0.930 . S
H1545 C1553 0.930 . S
H1546 C1554 0.930 . S
H1547 C1555 0.930 . S
H1548 C1558 0.930 . S
H1549 C1559 0.930 . S
C1550 H1544 0.930 . S
C1550 C1551 1.355 . S
C1550 C1552 1.415 . S
C1551 C1550 1.355 . S
C1551 C1553 1.419 . S
C1552 C1550 1.415 . S
C1552 C1557 1.425 . S
C1552 C1559 1.409 . S
C1553 H1545 0.930 . S
C1553 C1551 1.419 . S
C1553 C1554 1.362 . S
C1554 H1546 0.930 . S
C1554 C1553 1.362 . S
C1554 C1557 1.409 . S
C1555 H1547 0.930 . S
C1555 C1556 1.355 . S
C1555 C1557 1.415 . S
C1556 C1555 1.355 . S
C1556 C1558 1.419 . S
C1557 C1552 1.425 . S
C1557 C1554 1.409 . S
C1557 C1555 1.415 . S
C1558 H1548 0.930 . S
C1558 C1556 1.419 . S
C1558 C1559 1.362 . S
C1559 H1549 0.930 . S
C1559 C1552 1.409 . S
C1559 C1558 1.362 . S
H1560 C1566 0.930 . S
H1561 C1569 0.930 . S
H1562 C1570 0.930 . S
H1563 C1571 0.930 . S
H1564 C1574 0.930 . S
H1565 C1575 0.930 . S
C1566 H1560 0.930 . S
C1566 C1567 1.355 . S
C1566 C1568 1.415 . S
C1567 C1566 1.355 . S
C1567 C1569 1.419 . S
C1568 C1566 1.415 . S
C1568 C1573 1.425 1_455 S
C1568 C1575 1.409 1_455 S
C1569 H1561 0.930 . S
C1569 C1567 1.419 . S
C1569 C1570 1.362 . S
C1570 H1562 0.930 . S
C1570 C1569 1.362 . S
C1570 C1573 1.409 1_455 S
C1571 H1563 0.930 . S
C1571 C1572 1.355 . S
C1571 C1573 1.415 . S
C1572 C1571 1.355 . S
C1572 C1574 1.419 . S
C1573 C1568 1.425 1_655 S
C1573 C1570 1.409 1_655 S
C1573 C1571 1.415 . S
C1574 H1564 0.930 . S
C1574 C1572 1.419 . S
C1574 C1575 1.362 . S
C1575 H1565 0.930 . S
C1575 C1568 1.409 1_655 S
C1575 C1574 1.362 . S
H1576 C1582 0.930 . S
H1577 C1585 0.930 . S
H1578 C1586 0.930 . S
H1579 C1587 0.930 . S
H1580 C1590 0.930 . S
H1581 C1591 0.930 . S
C1582 H1576 0.930 . S
C1582 C1583 1.355 . S
C1582 C1584 1.415 . S
C1583 C1582 1.355 . S
C1583 C1585 1.419 . S
C1584 C1582 1.415 . S
C1584 C1589 1.425 . S
C1584 C1591 1.409 . S
C1585 H1577 0.930 . S
C1585 C1583 1.419 . S
C1585 C1586 1.362 . S
C1586 H1578 0.930 . S
C1586 C1585 1.362 . S
C1586 C1589 1.409 . S
C1587 H1579 0.930 . S
C1587 C1588 1.355 . S
C1587 C1589 1.415 . S
C1588 C1587 1.355 . S
C1588 C1590 1.419 . S
C1589 C1584 1.425 . S
C1589 C1586 1.409 . S
C1589 C1587 1.415 . S
C1590 H1580 0.930 . S
C1590 C1588 1.419 . S
C1590 C1591 1.362 . S
C1591 H1581 0.930 . S
C1591 C1584 1.409 . S
C1591 C1590 1.362 . S
H1592 C1598 0.930 . S
H1593 C1601 0.930 . S
H1594 C1602 0.930 . S
H1595 C1603 0.930 . S
H1596 C1606 0.930 . S
H1597 C1607 0.930 . S
C1598 H1592 0.930 . S
C1598 C1599 1.355 . S
C1598 C1600 1.415 1_565 S
C1599 C1598 1.355 . S
C1599 C1601 1.419 . S
C1600 C1598 1.415 1_545 S
C1600 C1605 1.425 1_545 S
C1600 C1607 1.409 . S
C1601 H1593 0.930 . S
C1601 C1599 1.419 . S
C1601 C1602 1.362 . S
C1602 H1594 0.930 . S
C1602 C1601 1.362 . S
C1602 C1605 1.409 . S
C1603 H1595 0.930 . S
C1603 C1604 1.355 . S
C1603 C1605 1.415 1_545 S
C1604 C1603 1.355 . S
C1604 C1606 1.419 . S
C1605 C1600 1.425 1_565 S
C1605 C1602 1.409 . S
C1605 C1603 1.415 1_565 S
C1606 H1596 0.930 . S
C1606 C1604 1.419 . S
C1606 C1607 1.362 . S
C1607 H1597 0.930 . S
C1607 C1600 1.409 . S
C1607 C1606 1.362 . S
H1608 C1614 0.930 . S
H1609 C1617 0.930 . S
H1610 C1618 0.930 . S
H1611 C1619 0.930 . S
H1612 C1622 0.930 . S
H1613 C1623 0.930 . S
C1614 H1608 0.930 . S
C1614 C1615 1.355 . S
C1614 C1616 1.415 1_545 S
C1615 C1614 1.355 . S
C1615 C1617 1.419 . S
C1616 C1614 1.415 1_565 S
C1616 C1621 1.425 1_565 S
C1616 C1623 1.409 . S
C1617 H1609 0.930 . S
C1617 C1615 1.419 . S
C1617 C1618 1.362 . S
C1618 H1610 0.930 . S
C1618 C1617 1.362 . S
C1618 C1621 1.409 . S
C1619 H1611 0.930 . S
C1619 C1620 1.355 . S
C1619 C1621 1.415 1_565 S
C1620 C1619 1.355 . S
C1620 C1622 1.419 . S
C1621 C1616 1.425 1_545 S
C1621 C1618 1.409 . S
C1621 C1619 1.415 1_545 S
C1622 H1612 0.930 . S
C1622 C1620 1.419 . S
C1622 C1623 1.362 . S
C1623 H1613 0.930 . S
C1623 C1616 1.409 . S
C1623 C1622 1.362 . S
H1624 C1630 0.930 . S
H1625 C1633 0.930 . S
H1626 C1634 0.930 1_655 S
H1627 C1635 0.930 . S
H1628 C1638 0.930 . S
H1629 C1639 0.930 1_455 S
C1630 H1624 0.930 . S
C1630 C1631 1.355 . S
C1630 C1632 1.415 . S
C1631 C1630 1.355 . S
C1631 C1633 1.419 . S
C1632 C1630 1.415 . S
C1632 C1637 1.425 1_455 S
C1632 C1639 1.409 1_455 S
C1633 H1625 0.930 . S
C1633 C1631 1.419 . S
C1633 C1634 1.362 . S
C1634 H1626 0.930 1_455 S
C1634 C1633 1.362 . S
C1634 C1637 1.409 1_455 S
C1635 H1627 0.930 . S
C1635 C1636 1.355 . S
C1635 C1637 1.415 . S
C1636 C1635 1.355 . S
C1636 C1638 1.419 . S
C1637 C1632 1.425 1_655 S
C1637 C1634 1.409 1_655 S
C1637 C1635 1.415 . S
C1638 H1628 0.930 . S
C1638 C1636 1.419 . S
C1638 C1639 1.362 . S
C1639 H1629 0.930 1_655 S
C1639 C1632 1.409 1_655 S
C1639 C1638 1.362 . S
H1640 C1646 0.930 . S
H1641 C1649 0.930 . S
H1642 C1650 0.930 . S
H1643 C1651 0.930 . S
H1644 C1654 0.930 . S
H1645 C1655 0.930 . S
C1646 H1640 0.930 . S
C1646 C1647 1.355 . S
C1646 C1648 1.415 . S
C1647 C1646 1.355 . S
C1647 C1649 1.419 . S
C1648 C1646 1.415 . S
C1648 C1653 1.425 . S
C1648 C1655 1.409 . S
C1649 H1641 0.930 . S
C1649 C1647 1.419 . S
C1649 C1650 1.362 . S
C1650 H1642 0.930 . S
C1650 C1649 1.362 . S
C1650 C1653 1.409 . S
C1651 H1643 0.930 . S
C1651 C1652 1.355 . S
C1651 C1653 1.415 . S
C1652 C1651 1.355 . S
C1652 C1654 1.419 . S
C1653 C1648 1.425 . S
C1653 C1650 1.409 . S
C1653 C1651 1.415 . S
C1654 H1644 0.930 . S
C1654 C1652 1.419 . S
C1654 C1655 1.362 . S
C1655 H1645 0.930 . S
C1655 C1648 1.409 . S
C1655 C1654 1.362 . S
C511 C48 1.285 . S
C516 C6 1.314 . S
C527 C62 1.331 . S
C532 C20 1.303 . S
C543 C76 1.293 . S
C548 C34 1.322 . S
C559 C90 1.334 . S
C564 C132 1.307 . S
C575 C104 1.294 . S
C580 C146 1.323 . S
C591 C160 1.336 . S
C596 C118 1.351 . S
C607 C174 1.351 . S
C612 C216 1.342 . S
C623 C188 1.273 . S
C628 C230 1.299 . S
C639 C202 1.326 . S
C644 C244 1.297 . S
C655 C258 1.268 . S
C660 C300 1.262 . S
C671 C314 1.303 . S
C676 C272 1.331 . S
C687 C286 1.318 . S
C692 C328 1.342 . S
C703 C342 1.269 . S
C708 C384 1.293 . S
C719 C356 1.298 . S
C724 C398 1.273 . S
C735 C412 1.345 . S
C740 C370 1.352 . S
C751 C468 1.275 . S
C756 C426 1.261 . S
C767 C482 1.289 . S
C772 C440 1.318 . S
C783 C496 1.347 . S
C788 C454 1.351 . S
C799 C161 1.480 . S
C804 C9 1.579 . S
C815 C23 1.577 . S
C820 C133 1.481 . S
C831 C37 1.575 . S
C836 C147 1.554 . S
C847 C105 1.494 . S
C852 C51 1.597 . S
C863 C65 1.565 . S
C868 C119 1.516 . S
C879 C91 1.483 . S
C884 C79 1.595 . S
C895 C93 1.563 . S
C900 C77 1.539 . S
C911 C107 1.567 . S
C916 C49 1.550 . S
C927 C63 1.551 . S
C932 C121 1.580 . S
C943 C21 1.520 . S
C948 C135 1.564 . S
C959 C35 1.483 . S
C964 C149 1.596 . S
C975 C163 1.597 . S
C980 C7 1.510 . S
C991 C177 1.563 . S
C996 C329 1.525 . S
C1007 C301 1.551 . S
C1012 C191 1.580 . S
C1023 C315 1.475 . S
C1028 C205 1.590 . S
C1039 C219 1.597 . S
C1044 C273 1.497 . S
C1055 C287 1.506 . S
C1060 C233 1.597 . S
C1071 C247 1.583 . S
C1076 C259 1.548 . S
C1087 C261 1.589 . S
C1092 C245 1.539 . S
C1103 C275 1.582 . S
C1108 C217 1.549 . S
C1119 C231 1.484 . S
C1124 C289 1.596 . S
C1135 C189 1.484 . S
C1140 C303 1.575 1_556 S
C1151 C203 1.487 . S
C1156 C317 1.574 1_556 S
C1167 C331 1.592 1_556 S
C1172 C175 1.529 . S
C1183 C497 1.512 . S
C1188 C345 1.596 . S
C1199 C359 1.597 . S
C1204 C469 1.501 . S
C1215 C373 1.563 . S
C1220 C483 1.527 . S
C1231 C387 1.588 1_554 S
C1236 C441 1.540 . S
C1247 C455 1.524 . S
C1252 C401 1.563 1_554 S
C1263 C415 1.563 1_554 S
C1268 C427 1.520 . S
C1279 C413 1.508 . S
C1284 C429 1.566 . S
C1295 C385 1.483 . S
C1300 C443 1.576 . S
C1311 C399 1.526 . S
C1316 C457 1.563 . S
C1327 C357 1.542 . S
C1332 C471 1.587 . S
C1343 C371 1.474 . S
C1348 C485 1.587 . S
C1359 C343 1.518 . S
C1364 C499 1.595 . S
C1375 C414 1.191 1_554 S
C1380 C8 1.192 . S
C1391 C22 1.240 . S
C1396 C386 1.236 1_554 S
C1407 C400 1.230 1_554 S
C1412 C36 1.216 . S
C1423 C50 1.236 . S
C1428 C190 1.240 . S
C1439 C204 1.191 . S
C1444 C64 1.197 . S
C1455 C78 1.239 . S
C1460 C176 1.230 . S
C1471 C92 1.203 . S
C1476 C330 1.193 1_556 S
C1487 C302 1.216 1_556 S
C1492 C106 1.230 . S
C1503 C120 1.199 . S
C1508 C316 1.191 1_556 S
C1519 C134 1.233 . S
C1524 C442 1.220 . S
C1535 C148 1.205 . S
C1540 C456 1.219 . S
C1551 C428 1.203 . S
C1556 C162 1.193 . S
C1567 C358 1.210 . S
C1572 C218 1.225 . S
C1583 C372 1.233 . S
C1588 C232 1.240 . S
C1599 C344 1.197 . S
C1604 C246 1.209 . S
C1615 C260 1.196 . S
C1620 C498 1.190 . S
C1631 C470 1.208 . S
C1636 C274 1.222 . S
C1647 C288 1.219 . S
C1652 C484 1.232 . S
