# Generated by pormake.
# Topology sma, (6)-cn, num edge types: 1
# Building blocks:
#     Node 0, Type 0, BuildingBlock: BETDIP_clean_sbu_0, # of connection points: 6
#     Node 1, Type 0, BuildingBlock: BETDIP_clean_sbu_0, # of connection points: 6
#     Node 2, Type 0, BuildingBlock: BETDIP_clean_sbu_0, # of connection points: 6
#     Edge 3, Type (0, 0), BuildingBlock: XUDNAN_clean_linker_2, # of connection points: 2
#     Edge 4, Type (0, 0), BuildingBlock: XUDNAN_clean_linker_2, # of connection points: 2
#     Edge 5, Type (0, 0), BuildingBlock: XUDNAN_clean_linker_2, # of connection points: 2
#     Edge 6, Type (0, 0), BuildingBlock: XUDNAN_clean_linker_2, # of connection points: 2
#     Edge 7, Type (0, 0), BuildingBlock: XUDNAN_clean_linker_2, # of connection points: 2
#     Edge 8, Type (0, 0), BuildingBlock: XUDNAN_clean_linker_2, # of connection points: 2
#     Edge 9, Type (0, 0), BuildingBlock: XUDNAN_clean_linker_2, # of connection points: 2
#     Edge 10, Type (0, 0), BuildingBlock: XUDNAN_clean_linker_2, # of connection points: 2
#     Edge 11, Type (0, 0), BuildingBlock: XUDNAN_clean_linker_2, # of connection points: 2
# Relax obj value: 0.073
# Max RMSD: 0.173
# Mean RMSD: 0.173
data_MOF--net-sma--node1-BETDIP_clean_sbu_0--edge1-XUDNAN_clean_linker_2
_symmetry_space_group_name_H-M    P1
_symmetry_Int_Tables_number       1
_symmetry_cell_setting            triclinic
loop_
_symmetry_equiv_pos_as_xyz
'x, y, z'
_cell_length_a     39.141775
_cell_length_b     39.088147
_cell_length_c     13.871451
_cell_angle_alpha  89.625417
_cell_angle_beta   89.955249
_cell_angle_gamma 120.17061
loop_
_atom_site_label
_atom_site_type_symbol
_atom_site_fract_x
_atom_site_fract_y
_atom_site_fract_z
_atom_type_partial_charge
Tb0 Tb 0.08308 0.58432 0.12455 0.0
Tb1 Tb 1.04488 0.49658 0.08156 0.0
C2 C 0.12111 0.65156 0.20176 0.0
C3 C 0.16152 0.68126 0.23129 0.0
C4 C 0.19015 0.67094 0.25364 0.0
C5 C 0.22826 0.70009 0.28144 0.0
C6 C 0.23839 0.74012 0.28765 0.0
C7 C 0.2094 0.75009 0.26501 0.0
C8 C 0.17149 0.721 0.23703 0.0
C9 C 0.07296 0.56609 0.94079 0.0
C10 C 0.13642 0.54361 0.09259 0.0
C11 C 1.00014 0.42611 0.03088 0.0
C12 C 0.96065 0.39743 0.06992 0.0
C13 C 0.93856 0.359 0.0331 0.0
C14 C 0.90177 0.33183 0.07419 0.0
C15 C 0.88644 0.34267 0.15284 0.0
C16 C 0.90902 0.38127 0.18935 0.0
C17 C 0.94553 0.40824 0.14836 0.0
C18 C 1.05671 0.51566 0.2633 0.0
C19 C 0.99255 0.53919 0.08757 0.0
O20 O 0.10332 0.61821 0.25052 0.0
O21 O 0.11499 0.64616 0.10907 0.0
O22 O 0.08242 0.54985 0.0053 0.0
O23 O 0.07156 0.59583 -0.02284 0.0
O24 O 0.13248 0.57191 0.13529 0.0
O25 O 0.10596 0.51357 0.04917 0.0
O26 O 1.00273 0.45657 -0.01599 0.0
O27 O 1.02907 0.43686 0.09213 0.0
O28 O 1.0456 0.53115 0.20061 0.0
O29 O 1.05841 0.48636 0.22674 0.0
O30 O 0.99606 0.50832 0.06415 0.0
O31 O 1.02224 0.5719 0.12359 0.0
H32 H 0.18304 0.64042 0.24974 0.0
H33 H 0.24984 0.69128 0.29721 0.0
H34 H 0.21571 0.78034 0.2705 0.0
H35 H 0.14976 0.72957 0.22036 0.0
H36 H 0.94977 0.34998 -0.02709 0.0
H37 H 0.88513 0.30254 0.04357 0.0
H38 H 0.89879 0.39062 0.25084 0.0
H39 H 0.96228 0.43759 0.17882 0.0
Tb40 Tb 0.58774 1.03277 0.45616 0.0
Tb41 Tb 0.54094 0.07267 0.40152 0.0
C42 C 0.61128 0.99249 0.54717 0.0
C43 C 0.60026 0.95045 0.5575 0.0
C44 C 0.60215 0.93546 0.64846 0.0
C45 C 0.59678 0.89729 0.65778 0.0
C46 C 0.58981 0.87368 0.57599 0.0
C47 C 0.58572 0.88794 0.48587 0.0
C48 C 0.59068 0.92584 0.47673 0.0
C49 C 0.57935 1.03871 0.26936 0.0
C50 C 0.49349 0.98077 0.42282 0.0
C51 C 0.51487 0.11564 0.33852 0.0
C52 C 0.52224 0.15514 0.3689 0.0
C53 C 0.56082 0.18751 0.37662 0.0
C54 C 0.56766 0.2227 0.41961 0.0
C55 C 0.5361 0.22644 0.45611 0.0
C56 C 0.49735 0.19474 0.44376 0.0
C57 C 0.49054 0.15949 0.40075 0.0
C58 C 0.54799 0.06436 0.58693 0.0
C59 C 0.63598 0.12293 0.40959 0.0
O60 O 0.58686 1.00268 0.5836 0.0
O61 O 0.62534 1.00926 0.46322 0.0
O62 O 0.55454 1.03239 0.33411 0.0
O63 O 0.60891 1.03734 0.30718 0.0
O64 O 0.52546 0.98393 0.46503 0.0
O65 O 0.49504 1.01136 0.37652 0.0
O66 O 0.54409 0.11369 0.2976 0.0
O67 O 0.49632 0.08743 0.40229 0.0
O68 O 0.57425 0.07301 0.5242 0.0
O69 O 0.51785 0.06359 0.54757 0.0
O70 O 0.60243 0.11994 0.37964 0.0
O71 O 0.63704 0.09354 0.45487 0.0
H72 H 0.60934 0.95388 0.7118 0.0
H73 H 0.60033 0.88716 0.72792 0.0
H74 H 0.58007 0.87024 0.42174 0.0
H75 H 0.58852 0.9364 0.40588 0.0
H76 H 0.58588 0.18529 0.35215 0.0
H77 H 0.59785 0.24677 0.42591 0.0
H78 H 0.47234 0.19643 0.47128 0.0
H79 H 0.46049 0.13498 0.39592 0.0
Tb80 Tb 0.53155 0.52949 0.7473 0.0
Tb81 Tb 0.61971 0.56505 0.71071 0.0
C82 C 0.46553 0.51049 0.82263 0.0
C83 C 0.43947 0.52562 0.85597 0.0
C84 C 0.43821 0.53399 0.95395 0.0
C85 C 0.40959 0.54246 -0.01169 0.0
C86 C 0.38124 0.54241 0.92576 0.0
C87 C 0.38316 0.53499 0.82737 0.0
C88 C 0.41181 0.52662 0.79298 0.0
C89 C 0.5513 0.53123 0.56529 0.0
C90 C 0.58639 0.62253 0.70014 0.0
C91 C 0.68889 0.58251 0.66491 0.0
C92 C 0.71623 0.57163 0.71029 0.0
C93 C 0.75557 0.58891 0.67895 0.0
C94 C 0.78222 0.58077 0.72728 0.0
C95 C 0.76998 0.55523 0.80811 0.0
C96 C 0.73034 0.53792 0.83874 0.0
C97 C 0.70381 0.54601 0.79039 0.0
C98 C 0.5984 0.56361 0.88933 0.0
C99 C 0.56347 0.47083 0.72333 0.0
O100 O 0.49739 0.51961 0.87252 0.0
O101 O 0.47138 0.51027 0.72974 0.0
O102 O 0.57043 0.55674 0.62804 0.0
O103 O 0.51822 0.50421 0.60303 0.0
O104 O 0.55406 0.59468 0.74525 0.0
O105 O 0.61282 0.61421 0.6645 0.0
O106 O 0.65723 0.55377 0.62469 0.0
O107 O 0.68058 0.60491 0.7179 0.0
O108 O 0.58052 0.53702 0.82864 0.0
O109 O 0.63129 0.59099 0.85357 0.0
O110 O 0.59849 0.50174 0.70295 0.0
O111 O 0.53293 0.47427 0.75101 0.0
H112 H 0.4585 0.53268 0.00491 0.0
H113 H 0.40878 0.54754 0.0647 0.0
H114 H 0.36218 0.53521 0.77687 0.0
H115 H 0.41147 0.51976 0.71734 0.0
H116 H 0.7658 0.60903 0.61775 0.0
H117 H 0.81232 0.59427 0.70089 0.0
H118 H 0.7199 0.51867 0.90148 0.0
H119 H 0.67369 0.53282 0.81667 0.0
H120 H 0.16007 0.50292 -0.02561 0.0
H121 H 0.20355 0.59505 0.19044 0.0
H122 H 0.27062 0.60488 0.17152 0.0
H123 H 0.22112 0.46145 0.0427 0.0
H124 H 0.22891 0.45175 0.92017 0.0
H125 H 0.18421 0.45151 0.95245 0.0
H126 H 0.19834 0.50399 0.81967 0.0
H127 H 0.24318 0.50452 0.78726 0.0
H128 H 0.24482 0.54992 0.8195 0.0
H129 H 0.33349 0.60511 0.12759 0.0
H130 H 0.38693 0.5957 0.06234 0.0
H131 H 0.30248 0.5033 0.87523 0.0
C132 C 0.18359 0.52495 0.01839 0.0
C133 C 0.1764 0.54822 0.08406 0.0
C134 C 0.20822 0.57698 0.13939 0.0
C135 C 0.24648 0.58273 0.12925 0.0
C136 C 0.2526 0.55957 0.06327 0.0
C137 C 0.22202 0.53122 0.00884 0.0
C138 C 0.2366 0.51066 0.94197 0.0
C139 C 0.21651 0.46621 -0.03422 0.0
C140 C 0.23036 0.5177 0.83582 0.0
C141 C 0.28015 0.53186 -0.03272 0.0
C142 C 0.28878 0.55991 0.03752 0.0
C143 C 0.32702 0.58314 0.07274 0.0
C144 C 0.35719 0.57744 0.03551 0.0
C145 C 0.34911 0.54879 -0.03651 0.0
C146 C 0.30991 0.52584 0.92917 0.0
H147 H 0.70762 0.13371 0.34628 0.0
H148 H 0.64709 0.19702 0.42288 0.0
H149 H 0.70476 0.25971 0.3681 0.0
H150 H 0.80818 0.21218 0.41178 0.0
H151 H 0.83095 0.20245 0.3107 0.0
H152 H 0.78617 0.16296 0.36312 0.0
H153 H 0.75266 0.14864 0.1958 0.0
H154 H 0.79714 0.18839 0.14306 0.0
H155 H 0.75105 0.18788 0.13077 0.0
H156 H 0.76667 0.31466 0.29629 0.0
H157 H 0.83036 0.35943 0.21767 0.0
H158 H 0.85255 0.26176 0.18639 0.0
C159 C 0.70705 0.16099 0.35366 0.0
C160 C 0.67298 0.16064 0.38942 0.0
C161 C 0.67281 0.19667 0.39545 0.0
C162 C 0.70547 0.23243 0.36465 0.0
C163 C 0.73817 0.23174 0.3273 0.0
C164 C 0.73943 0.19708 0.32203 0.0
C165 C 0.77762 0.20456 0.27434 0.0
C166 C 0.80219 0.19497 0.34417 0.0
C167 C 0.76909 0.18096 0.18043 0.0
C168 C 0.79751 0.24876 0.25381 0.0
C169 C 0.77412 0.2637 0.2851 0.0
C170 C 0.78548 0.3034 0.27259 0.0
C171 C 0.82193 0.3287 0.22812 0.0
C172 C 0.84701 0.31449 0.19659 0.0
C173 C 0.83421 0.27372 0.20916 0.0
H174 H 0.54976 0.80877 0.6991 0.0
H175 H 0.636 0.85614 0.46665 0.0
H176 H 0.64363 0.79745 0.47564 0.0
H177 H 0.59564 0.76431 0.83689 0.0
H178 H 0.55009 0.72046 0.8704 0.0
H179 H 0.55067 0.76615 0.84706 0.0
H180 H 0.49597 0.73133 0.71896 0.0
H181 H 0.49514 0.68549 0.74219 0.0
H182 H 0.50341 0.70547 0.62143 0.0
H183 H 0.64497 0.73701 0.51223 0.0
H184 H 0.63671 0.6737 0.56573 0.0
H185 H 0.54653 0.66002 0.77107 0.0
C186 C 0.57009 0.80653 0.65012 0.0
C187 C 0.59218 0.83692 0.58163 0.0
C188 C 0.61844 0.83303 0.51858 0.0
C189 C 0.62314 0.79991 0.52353 0.0
C190 C 0.60108 0.77055 0.59135 0.0
C191 C 0.57471 0.77304 0.65296 0.0
C192 C 0.55429 0.73637 0.71749 0.0
C193 C 0.56322 0.7475 0.8243 0.0
C194 C 0.50954 0.7133 0.69889 0.0
C195 C 0.57386 0.71337 0.68308 0.0
C196 C 0.60087 0.73411 0.61069 0.0
C197 C 0.62369 0.72028 0.56829 0.0
C198 C 0.61875 0.6841 0.59984 0.0
C199 C 0.59079 0.66145 0.67273 0.0
C200 C 0.56795 0.6764 0.71493 0.0
H201 H 0.84902 0.60605 0.84981 0.0
H202 H 0.75492 0.48393 0.88354 0.0
H203 H 0.80036 0.46864 -0.02879 0.0
H204 H 0.92614 0.58395 0.80585 0.0
H205 H 0.96328 0.6262 0.87029 0.0
H206 H 0.92279 0.62818 0.81448 0.0
H207 H 0.90504 0.64668 -0.02138 0.0
H208 H 0.94529 0.64437 0.0351 0.0
H209 H 0.89577 0.61487 0.08186 0.0
H210 H 0.85635 0.46516 0.0467 0.0
H211 H 0.91997 0.47352 0.10207 0.0
H212 H 0.97861 0.59784 0.0226 0.0
C213 C 0.83795 0.57606 0.87536 0.0
C214 C 0.79808 0.54629 0.86017 0.0
C215 C 0.78495 0.5075 0.8956 0.0
C216 C 0.81063 0.49844 0.94529 0.0
C217 C 0.84952 0.52844 -0.0406 0.0
C218 C 0.86326 0.56645 0.92535 0.0
C219 C 0.90691 0.59278 0.9475 0.0
C220 C 0.93121 0.6087 0.85397 0.0
C221 C 0.91363 0.62668 0.01479 0.0
C222 C 0.91561 0.56348 -0.00163 0.0
C223 C 0.88196 0.52656 0.00453 0.0
C224 C 0.88278 0.49402 0.04329 0.0
C225 C 0.91905 0.49906 0.07468 0.0
C226 C 0.95406 0.53643 0.06804 0.0
C227 C 0.95212 0.56921 0.03097 0.0
H228 H 0.42956 0.95736 0.30316 0.0
H229 H 0.47546 0.9145 0.52936 0.0
H230 H 0.41587 0.84824 0.51829 0.0
H231 H 0.3273 0.90206 0.37325 0.0
H232 H 0.3093 0.89215 0.25119 0.0
H233 H 0.35541 0.93622 0.27763 0.0
H234 H 0.39106 0.91629 0.15163 0.0
H235 H 0.34505 0.87214 0.12484 0.0
H236 H 0.38733 0.86851 0.16112 0.0
H237 H 0.35059 0.78653 0.48348 0.0
H238 H 0.28506 0.73445 0.42788 0.0
H239 H 0.28299 0.81695 0.22004 0.0
C240 C 0.42701 0.93414 0.35087 0.0
C241 C 0.45718 0.94125 0.41754 0.0
C242 C 0.4528 0.90983 0.47772 0.0
C243 C 0.41903 0.87206 0.47198 0.0
C244 C 0.38994 0.86601 0.40518 0.0
C245 C 0.39366 0.89616 0.34549 0.0
C246 C 0.35842 0.88173 0.27892 0.0
C247 C 0.3363 0.90439 0.29634 0.0
C248 C 0.37124 0.88485 0.17285 0.0
C249 C 0.33403 0.8389 0.31138 0.0
C250 C 0.35277 0.83038 0.38409 0.0
C251 C 0.33577 0.79284 0.42616 0.0
C252 C 0.29859 0.76331 0.39352 0.0
C253 C 0.27863 0.77133 0.31927 0.0
C254 C 0.29701 0.80976 0.27764 0.0
H255 H 0.50763 0.40773 0.62015 0.0
H256 H 0.61274 0.44716 0.7935 0.0
H257 H 0.61439 0.38665 0.75187 0.0
H258 H 0.46312 0.29929 0.66476 0.0
H259 H 0.44658 0.28713 0.54196 0.0
H260 H 0.45015 0.33052 0.59657 0.0
H261 H 0.49561 0.37362 0.45671 0.0
H262 H 0.4926 0.33051 0.40228 0.0
H263 H 0.54015 0.37249 0.43048 0.0
H264 H 0.60835 0.32544 0.68127 0.0
H265 H 0.59456 0.26647 0.58815 0.0
H266 H 0.49506 0.26727 0.45218 0.0
C267 C 0.53 0.40271 0.65205 0.0
C268 C 0.55948 0.43144 0.71215 0.0
C269 C 0.5895 0.42502 0.74896 0.0
C270 C 0.59072 0.39083 0.72545 0.0
C271 C 0.56196 0.36351 0.66389 0.0
C272 C 0.53206 0.3689 0.62774 0.0
C273 C 0.50706 0.33668 0.55608 0.0
C274 C 0.46418 0.31193 0.59202 0.0
C275 C 0.50899 0.35439 0.45545 0.0
C276 C 0.52782 0.31265 0.55712 0.0
C277 C 0.55925 0.32861 0.6203 0.0
C278 C 0.58371 0.31256 0.63184 0.0
C279 C 0.57586 0.27923 0.57773 0.0
C280 C 0.54389 0.2622 0.51203 0.0
C281 C 0.51949 0.27923 0.50229 0.0
H282 H 1.04379 0.58613 0.78536 0.0
H283 H 0.12085 0.54111 0.86861 0.0
H284 H 0.13443 0.53575 0.6986 0.0
H285 H 0.99824 0.521 0.60156 0.0
H286 H 0.99406 0.55478 0.5199 0.0
H287 H 0.99648 0.56314 0.64756 0.0
H288 H 1.05682 0.63347 0.62181 0.0
H289 H 1.05465 0.62519 0.49362 0.0
H290 H 0.09972 0.63946 0.55829 0.0
H291 H 0.13279 0.52607 0.52689 0.0
H292 H 0.11221 0.50799 0.35874 0.0
H293 H 1.03555 0.558 0.37991 0.0
C294 C 1.06413 0.57599 0.76706 0.0
C295 C 0.08128 0.56402 0.83918 0.0
C296 C 0.10717 0.55011 0.814 0.0
C297 C 0.11555 0.54752 0.7177 0.0
C298 C 0.09779 0.55893 0.6478 0.0
C299 C 0.07247 0.57274 0.6707 0.0
C300 C 1.05319 0.57772 0.58123 0.0
C301 C 1.00782 0.55265 0.58801 0.0
C302 C 0.06693 0.62158 0.56267 0.0
C303 C 0.0697 0.56205 0.50585 0.0
C304 C 0.09635 0.55266 0.54586 0.0
C305 C 0.11267 0.53403 0.49391 0.0
C306 C 0.10059 0.52361 0.39898 0.0
C307 C 0.07249 0.53182 0.35771 0.0
C308 C 1.05767 0.55224 0.41033 0.0
H309 H 0.62901 0.06606 0.11264 0.0
H310 H 0.50559 0.99679 0.19695 0.0
H311 H 0.48593 0.98812 0.02715 0.0
H312 H 0.6156 0.1193 0.93244 0.0
H313 H 0.65142 0.12051 0.84864 0.0
H314 H 0.65712 0.11571 -0.02422 0.0
H315 H 0.65931 0.05145 0.94572 0.0
H316 H 0.65366 0.05612 0.81809 0.0
H317 H 0.61954 1.0113 0.88125 0.0
H318 H 0.47828 0.99342 0.85584 0.0
H319 H 0.48269 1.01448 0.68691 0.0
H320 H 0.61065 0.08097 0.70561 0.0
C321 C 0.59801 0.04836 0.09455 0.0
C322 C 0.56877 1.03208 0.16725 0.0
C323 C 0.52839 1.00976 0.14215 0.0
C324 C 0.51694 1.00426 0.04586 0.0
C325 C 0.54623 1.02129 -0.0244 0.0
C326 C 0.58596 1.0429 -0.00194 0.0
C327 C 0.61078 0.06161 0.90825 0.0
C328 C 0.63515 0.10696 0.91683 0.0
C329 C 0.6374 1.04406 0.88711 0.0
C330 C 0.57853 0.04884 0.8333 0.0
C331 C 0.54168 1.02478 0.87397 0.0
C332 C 0.50691 1.01162 0.82242 0.0
C333 C 0.50973 1.02397 0.72688 0.0
C334 C 0.54699 0.0492 0.68412 0.0
C335 C 0.58192 0.06116 0.73697 0.0
H336 H 0.52304 0.48233 0.40978 0.0
H337 H 0.58518 0.6058 0.49333 0.0
H338 H 0.59031 0.62619 0.3249 0.0
H339 H 0.5817 0.49317 0.21879 0.0
H340 H 0.54376 0.45866 0.13924 0.0
H341 H 0.53647 0.45285 0.26743 0.0
H342 H 0.47137 0.4546 0.24995 0.0
H343 H 0.47875 0.46073 0.12119 0.0
H344 H 0.47209 0.49597 0.18971 0.0
H345 H 0.59941 0.63449 0.15402 0.0
H346 H 0.61607 0.62997 -0.01465 0.0
H347 H 0.54845 0.5019 0.00401 0.0
C348 C 0.53697 0.51353 0.39194 0.0
C349 C 0.55395 0.54249 0.46392 0.0
C350 C 0.57249 0.58311 0.43914 0.0
C351 C 0.5749 0.59504 0.34363 0.0
C352 C 0.55853 0.56598 0.27377 0.0
C353 C 0.53999 0.52602 0.29608 0.0
C354 C 0.53037 0.50139 0.2058 0.0
C355 C 0.54923 0.47501 0.20798 0.0
C356 C 0.48547 0.47671 0.19081 0.0
C357 C 0.54947 0.534 0.13075 0.0
C358 C 0.56411 0.57093 0.17157 0.0
C359 C 0.58725 0.60585 0.12023 0.0
C360 C 0.59685 0.60304 0.02512 0.0
C361 C 0.58326 0.56563 -0.01672 0.0
C362 C 0.55828 0.53073 0.03504 0.0
loop_
_geom_bond_atom_site_label_1
_geom_bond_atom_site_label_2
_geom_bond_distance
_geom_bond_site_symmetry_2
_ccdc_geom_bond_type
Tb0 C2 2.809 . S
Tb0 O20 2.484 . S
Tb0 O21 2.440 . S
Tb0 O22 2.658 1_455 S
Tb0 O23 2.409 1_554 S
Tb0 O24 2.378 . S
Tb0 O28 2.325 . S
Tb0 O31 2.341 1_455 S
Tb1 C11 2.809 . S
Tb1 O22 2.325 . S
Tb1 O25 2.341 1_655 S
Tb1 O26 2.484 . S
Tb1 O27 2.440 . S
Tb1 O28 2.658 1_655 S
Tb1 O29 2.409 . S
Tb1 O30 2.378 . S
C2 Tb0 2.809 . S
C2 C3 1.514 . S
C2 O20 1.248 . S
C2 O21 1.266 . S
C3 C2 1.514 . S
C3 C4 1.359 . S
C3 C8 1.348 . S
C4 C3 1.359 . S
C4 C5 1.380 . S
C4 H32 0.929 . S
C5 C4 1.380 . S
C5 C6 1.347 . S
C5 H33 0.931 . S
C6 C5 1.347 . S
C6 C7 1.369 . S
C7 C6 1.369 . S
C7 C8 1.408 . S
C7 H34 0.930 . S
C8 C3 1.348 . S
C8 C7 1.408 . S
C8 H35 0.930 . S
C9 O22 1.281 1_456 S
C9 O23 1.254 . S
C10 O24 1.236 . S
C10 O25 1.266 . S
C11 Tb1 2.809 . S
C11 C12 1.514 . S
C11 O26 1.248 . S
C11 O27 1.266 . S
C12 C11 1.514 . S
C12 C13 1.359 . S
C12 C17 1.348 . S
C13 C12 1.359 . S
C13 C14 1.380 . S
C13 H36 0.923 1_554 S
C14 C13 1.380 . S
C14 C15 1.347 . S
C14 H37 0.931 1_554 S
C15 C14 1.347 . S
C15 C16 1.369 . S
C16 C15 1.369 . S
C16 C17 1.408 . S
C16 H38 0.930 . S
C17 C12 1.348 . S
C17 C16 1.408 . S
C17 H39 0.930 . S
C18 O28 1.277 1_655 S
C18 O29 1.256 . S
C19 O30 1.236 . S
C19 O31 1.266 . S
O20 Tb0 2.484 . S
O20 C2 1.248 . S
O21 Tb0 2.440 . S
O21 C2 1.266 . S
O22 Tb0 2.658 1_655 S
O22 Tb1 2.325 . S
O22 C9 1.281 1_654 S
O23 Tb0 2.409 1_556 S
O23 C9 1.254 . S
O24 Tb0 2.378 . S
O24 C10 1.236 . S
O25 Tb1 2.341 1_455 S
O25 C10 1.266 . S
O26 Tb1 2.484 . S
O26 C11 1.248 . S
O27 Tb1 2.440 . S
O27 C11 1.266 . S
O28 Tb0 2.325 . S
O28 Tb1 2.658 1_455 S
O28 C18 1.277 1_455 S
O29 Tb1 2.409 . S
O29 C18 1.256 . S
O30 Tb1 2.378 . S
O30 C19 1.236 . S
O31 Tb0 2.341 1_655 S
O31 C19 1.266 . S
H32 C4 0.929 . S
H33 C5 0.931 . S
H34 C7 0.930 . S
H35 C8 0.930 . S
H36 C13 0.923 1_556 S
H37 C14 0.931 1_556 S
H38 C16 0.930 . S
H39 C17 0.930 . S
Tb40 C42 2.809 . S
Tb40 O60 2.484 . S
Tb40 O61 2.440 . S
Tb40 O62 2.658 1_565 S
Tb40 O63 2.409 . S
Tb40 O64 2.378 . S
Tb40 O68 2.325 . S
Tb40 O71 2.341 1_565 S
Tb41 C51 2.809 . S
Tb41 O62 2.325 . S
Tb41 O65 2.341 1_545 S
Tb41 O66 2.484 . S
Tb41 O67 2.440 . S
Tb41 O68 2.658 1_545 S
Tb41 O69 2.409 . S
Tb41 O70 2.378 . S
C42 Tb40 2.809 . S
C42 C43 1.514 . S
C42 O60 1.248 . S
C42 O61 1.266 . S
C43 C42 1.514 . S
C43 C44 1.359 . S
C43 C48 1.348 . S
C44 C43 1.359 . S
C44 C45 1.380 . S
C44 H72 0.929 . S
C45 C44 1.380 . S
C45 C46 1.347 . S
C45 H73 0.931 . S
C46 C45 1.347 . S
C46 C47 1.369 . S
C47 C46 1.369 . S
C47 C48 1.408 . S
C47 H74 0.930 . S
C48 C43 1.348 . S
C48 C47 1.408 . S
C48 H75 0.930 . S
C49 O62 1.276 1_565 S
C49 O63 1.263 . S
C50 O64 1.236 . S
C50 O65 1.266 . S
C51 Tb41 2.809 . S
C51 C52 1.514 . S
C51 O66 1.248 . S
C51 O67 1.266 . S
C52 C51 1.514 . S
C52 C53 1.359 . S
C52 C57 1.348 . S
C53 C52 1.359 . S
C53 C54 1.380 . S
C53 H76 0.929 . S
C54 C53 1.380 . S
C54 C55 1.347 . S
C54 H77 0.931 . S
C55 C54 1.347 . S
C55 C56 1.369 . S
C56 C55 1.369 . S
C56 C57 1.408 . S
C56 H78 0.930 . S
C57 C52 1.348 . S
C57 C56 1.408 . S
C57 H79 0.930 . S
C58 O68 1.281 1_545 S
C58 O69 1.254 . S
C59 O70 1.236 . S
C59 O71 1.266 . S
O60 Tb40 2.484 . S
O60 C42 1.248 . S
O61 Tb40 2.440 . S
O61 C42 1.266 . S
O62 Tb40 2.658 1_545 S
O62 Tb41 2.325 . S
O62 C49 1.276 1_545 S
O63 Tb40 2.409 . S
O63 C49 1.263 . S
O64 Tb40 2.378 . S
O64 C50 1.236 . S
O65 Tb41 2.341 1_565 S
O65 C50 1.266 . S
O66 Tb41 2.484 . S
O66 C51 1.248 . S
O67 Tb41 2.440 . S
O67 C51 1.266 . S
O68 Tb40 2.325 . S
O68 Tb41 2.658 1_565 S
O68 C58 1.281 1_565 S
O69 Tb41 2.409 . S
O69 C58 1.254 . S
O70 Tb41 2.378 . S
O70 C59 1.236 . S
O71 Tb40 2.341 1_545 S
O71 C59 1.266 . S
H72 C44 0.929 . S
H73 C45 0.931 . S
H74 C47 0.930 . S
H75 C48 0.930 . S
H76 C53 0.929 . S
H77 C54 0.931 . S
H78 C56 0.930 . S
H79 C57 0.930 . S
Tb80 C82 2.809 . S
Tb80 O100 2.484 . S
Tb80 O101 2.440 . S
Tb80 O102 2.658 . S
Tb80 O103 2.409 . S
Tb80 O104 2.378 . S
Tb80 O108 2.325 . S
Tb80 O111 2.341 . S
Tb81 C91 2.809 . S
Tb81 O102 2.325 . S
Tb81 O105 2.341 . S
Tb81 O106 2.484 . S
Tb81 O107 2.440 . S
Tb81 O108 2.658 . S
Tb81 O109 2.409 1_556 S
Tb81 O110 2.378 . S
C82 Tb80 2.809 . S
C82 C83 1.514 . S
C82 O100 1.248 . S
C82 O101 1.266 . S
C83 C82 1.514 . S
C83 C84 1.359 . S
C83 C88 1.348 . S
C84 C83 1.359 . S
C84 C85 1.380 . S
C84 H112 0.923 1_556 S
C85 C84 1.380 . S
C85 C86 1.347 . S
C85 H113 0.931 1_556 S
C86 C85 1.347 . S
C86 C87 1.369 . S
C87 C86 1.369 . S
C87 C88 1.408 . S
C87 H114 0.930 . S
C88 C83 1.348 . S
C88 C87 1.408 . S
C88 H115 0.930 . S
C89 O102 1.281 . S
C89 O103 1.254 . S
C90 O104 1.236 . S
C90 O105 1.266 . S
C91 Tb81 2.809 . S
C91 C92 1.514 . S
C91 O106 1.248 . S
C91 O107 1.266 . S
C92 C91 1.514 . S
C92 C93 1.359 . S
C92 C97 1.348 . S
C93 C92 1.359 . S
C93 C94 1.380 . S
C93 H116 0.929 . S
C94 C93 1.380 . S
C94 C95 1.347 . S
C94 H117 0.931 . S
C95 C94 1.347 . S
C95 C96 1.369 . S
C96 C95 1.369 . S
C96 C97 1.408 . S
C96 H118 0.930 . S
C97 C92 1.348 . S
C97 C96 1.408 . S
C97 H119 0.930 . S
C98 O108 1.281 1_554 S
C98 O109 1.254 . S
C99 O110 1.236 . S
C99 O111 1.266 . S
O100 Tb80 2.484 . S
O100 C82 1.248 . S
O101 Tb80 2.440 . S
O101 C82 1.266 . S
O102 Tb80 2.658 . S
O102 Tb81 2.325 . S
O102 C89 1.281 . S
O103 Tb80 2.409 . S
O103 C89 1.254 . S
O104 Tb80 2.378 . S
O104 C90 1.236 . S
O105 Tb81 2.341 . S
O105 C90 1.266 . S
O106 Tb81 2.484 . S
O106 C91 1.248 . S
O107 Tb81 2.440 . S
O107 C91 1.266 . S
O108 Tb80 2.325 . S
O108 Tb81 2.658 . S
O108 C98 1.281 1_556 S
O109 Tb81 2.409 1_554 S
O109 C98 1.254 . S
O110 Tb81 2.378 . S
O110 C99 1.236 . S
O111 Tb80 2.341 . S
O111 C99 1.266 . S
H112 C84 0.923 1_554 S
H113 C85 0.931 1_554 S
H114 C87 0.930 . S
H115 C88 0.930 . S
H116 C93 0.929 . S
H117 C94 0.931 . S
H118 C96 0.930 . S
H119 C97 0.930 . S
H120 C132 0.930 . S
H121 C134 0.930 . S
H122 C135 0.930 . S
H123 C139 0.959 . S
H124 C139 0.959 . S
H125 C139 0.961 . S
H126 C140 0.960 . S
H127 C140 0.961 . S
H128 C140 0.959 . S
H129 C143 0.929 . S
H130 C144 0.931 . S
H131 C146 0.930 . S
C132 H120 0.930 . S
C132 C133 1.399 . S
C132 C137 1.399 . S
C133 C132 1.399 . S
C133 C134 1.376 . S
C134 H121 0.930 . S
C134 C133 1.376 . S
C134 C135 1.388 . S
C135 H122 0.930 . S
C135 C134 1.388 . S
C135 C136 1.390 . S
C136 C135 1.390 . S
C136 C137 1.394 . S
C136 C142 1.465 1_554 S
C137 C132 1.399 . S
C137 C136 1.394 . S
C137 C138 1.516 . S
C138 C137 1.516 . S
C138 C139 1.502 . S
C138 C140 1.561 1_554 S
C138 C141 1.526 1_554 S
C139 H123 0.959 . S
C139 H124 0.959 . S
C139 H125 0.961 . S
C139 C138 1.502 . S
C140 H126 0.960 . S
C140 H127 0.961 . S
C140 H128 0.959 . S
C140 C138 1.561 1_556 S
C141 C138 1.526 1_556 S
C141 C142 1.396 . S
C141 C146 1.390 . S
C142 C136 1.465 1_556 S
C142 C141 1.396 . S
C142 C143 1.399 . S
C143 H129 0.929 . S
C143 C142 1.399 . S
C143 C144 1.385 . S
C144 H130 0.931 . S
C144 C143 1.385 . S
C144 C145 1.389 . S
C145 C144 1.389 . S
C145 C146 1.387 . S
C146 H131 0.930 . S
C146 C141 1.390 . S
C146 C145 1.387 . S
H147 C159 0.930 . S
H148 C161 0.930 . S
H149 C162 0.930 . S
H150 C166 0.959 . S
H151 C166 0.959 . S
H152 C166 0.961 . S
H153 C167 0.960 . S
H154 C167 0.961 . S
H155 C167 0.959 . S
H156 C170 0.929 . S
H157 C171 0.931 . S
H158 C173 0.930 . S
C159 H147 0.930 . S
C159 C160 1.399 . S
C159 C164 1.399 . S
C160 C159 1.399 . S
C160 C161 1.376 . S
C161 H148 0.930 . S
C161 C160 1.376 . S
C161 C162 1.388 . S
C162 H149 0.930 . S
C162 C161 1.388 . S
C162 C163 1.390 . S
C163 C162 1.390 . S
C163 C164 1.394 . S
C163 C169 1.465 . S
C164 C159 1.399 . S
C164 C163 1.394 . S
C164 C165 1.516 . S
C165 C164 1.516 . S
C165 C166 1.502 . S
C165 C167 1.561 . S
C165 C168 1.526 . S
C166 H150 0.959 . S
C166 H151 0.959 . S
C166 H152 0.961 . S
C166 C165 1.502 . S
C167 H153 0.960 . S
C167 H154 0.961 . S
C167 H155 0.959 . S
C167 C165 1.561 . S
C168 C165 1.526 . S
C168 C169 1.396 . S
C168 C173 1.390 . S
C169 C163 1.465 . S
C169 C168 1.396 . S
C169 C170 1.399 . S
C170 H156 0.929 . S
C170 C169 1.399 . S
C170 C171 1.385 . S
C171 H157 0.931 . S
C171 C170 1.385 . S
C171 C172 1.389 . S
C172 C171 1.389 . S
C172 C173 1.387 . S
C173 H158 0.930 . S
C173 C168 1.390 . S
C173 C172 1.387 . S
H174 C186 0.930 . S
H175 C188 0.930 . S
H176 C189 0.930 . S
H177 C193 0.959 . S
H178 C193 0.959 . S
H179 C193 0.961 . S
H180 C194 0.960 . S
H181 C194 0.961 . S
H182 C194 0.959 . S
H183 C197 0.929 . S
H184 C198 0.931 . S
H185 C200 0.930 . S
C186 H174 0.930 . S
C186 C187 1.399 . S
C186 C191 1.399 . S
C187 C186 1.399 . S
C187 C188 1.376 . S
C188 H175 0.930 . S
C188 C187 1.376 . S
C188 C189 1.388 . S
C189 H176 0.930 . S
C189 C188 1.388 . S
C189 C190 1.390 . S
C190 C189 1.390 . S
C190 C191 1.394 . S
C190 C196 1.465 . S
C191 C186 1.399 . S
C191 C190 1.394 . S
C191 C192 1.516 . S
C192 C191 1.516 . S
C192 C193 1.502 . S
C192 C194 1.561 . S
C192 C195 1.526 . S
C193 H177 0.959 . S
C193 H178 0.959 . S
C193 H179 0.961 . S
C193 C192 1.502 . S
C194 H180 0.960 . S
C194 H181 0.961 . S
C194 H182 0.959 . S
C194 C192 1.561 . S
C195 C192 1.526 . S
C195 C196 1.396 . S
C195 C200 1.390 . S
C196 C190 1.465 . S
C196 C195 1.396 . S
C196 C197 1.399 . S
C197 H183 0.929 . S
C197 C196 1.399 . S
C197 C198 1.385 . S
C198 H184 0.931 . S
C198 C197 1.385 . S
C198 C199 1.389 . S
C199 C198 1.389 . S
C199 C200 1.387 . S
C200 H185 0.930 . S
C200 C195 1.390 . S
C200 C199 1.387 . S
H201 C213 0.930 . S
H202 C215 0.930 . S
H203 C216 0.930 . S
H204 C220 0.959 . S
H205 C220 0.959 . S
H206 C220 0.961 . S
H207 C221 0.960 . S
H208 C221 0.961 . S
H209 C221 0.959 . S
H210 C224 0.929 . S
H211 C225 0.931 . S
H212 C227 0.930 1_556 S
C213 H201 0.930 . S
C213 C214 1.399 . S
C213 C218 1.399 . S
C214 C213 1.399 . S
C214 C215 1.376 . S
C215 H202 0.930 . S
C215 C214 1.376 . S
C215 C216 1.388 1_556 S
C216 H203 0.930 . S
C216 C215 1.388 1_554 S
C216 C217 1.387 1_554 S
C217 C216 1.387 1_556 S
C217 C218 1.402 . S
C217 C223 1.461 1_556 S
C218 C213 1.399 . S
C218 C217 1.402 . S
C218 C219 1.516 . S
C219 C218 1.516 . S
C219 C220 1.502 . S
C219 C221 1.561 . S
C219 C222 1.526 . S
C220 H204 0.959 . S
C220 H205 0.959 . S
C220 H206 0.961 . S
C220 C219 1.502 . S
C221 H207 0.960 . S
C221 H208 0.961 . S
C221 H209 0.959 . S
C221 C219 1.561 . S
C222 C219 1.526 . S
C222 C223 1.396 1_556 S
C222 C227 1.390 1_556 S
C223 C217 1.461 1_554 S
C223 C222 1.396 1_554 S
C223 C224 1.399 . S
C224 H210 0.929 . S
C224 C223 1.399 . S
C224 C225 1.385 . S
C225 H211 0.931 . S
C225 C224 1.385 . S
C225 C226 1.389 . S
C226 C225 1.389 . S
C226 C227 1.387 . S
C227 H212 0.930 1_554 S
C227 C222 1.390 1_554 S
C227 C226 1.387 . S
H228 C240 0.930 . S
H229 C242 0.930 . S
H230 C243 0.930 . S
H231 C247 0.959 . S
H232 C247 0.959 . S
H233 C247 0.961 . S
H234 C248 0.960 . S
H235 C248 0.961 . S
H236 C248 0.959 . S
H237 C251 0.929 . S
H238 C252 0.931 . S
H239 C254 0.930 . S
C240 H228 0.930 . S
C240 C241 1.399 . S
C240 C245 1.399 . S
C241 C240 1.399 . S
C241 C242 1.376 . S
C242 H229 0.930 . S
C242 C241 1.376 . S
C242 C243 1.388 . S
C243 H230 0.930 . S
C243 C242 1.388 . S
C243 C244 1.390 . S
C244 C243 1.390 . S
C244 C245 1.394 . S
C244 C250 1.465 . S
C245 C240 1.399 . S
C245 C244 1.394 . S
C245 C246 1.516 . S
C246 C245 1.516 . S
C246 C247 1.502 . S
C246 C248 1.561 . S
C246 C249 1.526 . S
C247 H231 0.959 . S
C247 H232 0.959 . S
C247 H233 0.961 . S
C247 C246 1.502 . S
C248 H234 0.960 . S
C248 H235 0.961 . S
C248 H236 0.959 . S
C248 C246 1.561 . S
C249 C246 1.526 . S
C249 C250 1.396 . S
C249 C254 1.390 . S
C250 C244 1.465 . S
C250 C249 1.396 . S
C250 C251 1.399 . S
C251 H237 0.929 . S
C251 C250 1.399 . S
C251 C252 1.385 . S
C252 H238 0.931 . S
C252 C251 1.385 . S
C252 C253 1.389 . S
C253 C252 1.389 . S
C253 C254 1.387 . S
C254 H239 0.930 . S
C254 C249 1.390 . S
C254 C253 1.387 . S
H255 C267 0.930 . S
H256 C269 0.930 . S
H257 C270 0.930 . S
H258 C274 0.959 . S
H259 C274 0.959 . S
H260 C274 0.961 . S
H261 C275 0.960 . S
H262 C275 0.961 . S
H263 C275 0.959 . S
H264 C278 0.929 . S
H265 C279 0.931 . S
H266 C281 0.930 . S
C267 H255 0.930 . S
C267 C268 1.399 . S
C267 C272 1.399 . S
C268 C267 1.399 . S
C268 C269 1.376 . S
C269 H256 0.930 . S
C269 C268 1.376 . S
C269 C270 1.388 . S
C270 H257 0.930 . S
C270 C269 1.388 . S
C270 C271 1.390 . S
C271 C270 1.390 . S
C271 C272 1.394 . S
C271 C277 1.465 . S
C272 C267 1.399 . S
C272 C271 1.394 . S
C272 C273 1.516 . S
C273 C272 1.516 . S
C273 C274 1.502 . S
C273 C275 1.561 . S
C273 C276 1.526 . S
C274 H258 0.959 . S
C274 H259 0.959 . S
C274 H260 0.961 . S
C274 C273 1.502 . S
C275 H261 0.960 . S
C275 H262 0.961 . S
C275 H263 0.959 . S
C275 C273 1.561 . S
C276 C273 1.526 . S
C276 C277 1.396 . S
C276 C281 1.390 . S
C277 C271 1.465 . S
C277 C276 1.396 . S
C277 C278 1.399 . S
C278 H264 0.929 . S
C278 C277 1.399 . S
C278 C279 1.385 . S
C279 H265 0.931 . S
C279 C278 1.385 . S
C279 C280 1.389 . S
C280 C279 1.389 . S
C280 C281 1.387 . S
C281 H266 0.930 . S
C281 C276 1.390 . S
C281 C280 1.387 . S
H282 C294 0.930 . S
H283 C296 0.930 . S
H284 C297 0.930 . S
H285 C301 0.959 . S
H286 C301 0.959 . S
H287 C301 0.961 . S
H288 C302 0.960 . S
H289 C302 0.961 . S
H290 C302 0.959 1_455 S
H291 C305 0.929 . S
H292 C306 0.931 . S
H293 C308 0.930 . S
C294 H282 0.930 . S
C294 C295 1.383 1_655 S
C294 C299 1.399 . S
C295 C294 1.383 1_455 S
C295 C296 1.398 . S
C296 H283 0.930 . S
C296 C295 1.398 . S
C296 C297 1.388 . S
C297 H284 0.930 . S
C297 C296 1.388 . S
C297 C298 1.390 . S
C298 C297 1.390 . S
C298 C299 1.394 1_455 S
C298 C304 1.465 . S
C299 C294 1.399 . S
C299 C298 1.394 1_655 S
C299 C300 1.516 . S
C300 C299 1.516 . S
C300 C301 1.502 . S
C300 C302 1.561 . S
C300 C303 1.526 . S
C301 H285 0.959 . S
C301 H286 0.959 . S
C301 H287 0.961 . S
C301 C300 1.502 . S
C302 H288 0.960 . S
C302 H289 0.961 . S
C302 H290 0.959 1_655 S
C302 C300 1.561 . S
C303 C300 1.526 . S
C303 C304 1.396 1_655 S
C303 C308 1.390 . S
C304 C298 1.465 . S
C304 C303 1.396 1_455 S
C304 C305 1.399 . S
C305 H291 0.929 . S
C305 C304 1.399 . S
C305 C306 1.385 . S
C306 H292 0.931 . S
C306 C305 1.385 . S
C306 C307 1.389 . S
C307 C306 1.389 . S
C307 C308 1.387 1_455 S
C308 H293 0.930 . S
C308 C303 1.390 . S
C308 C307 1.387 1_655 S
H309 C321 0.930 . S
H310 C323 0.930 . S
H311 C324 0.930 . S
H312 C328 0.959 . S
H313 C328 0.959 . S
H314 C328 0.961 1_554 S
H315 C329 0.960 1_554 S
H316 C329 0.961 . S
H317 C329 0.959 . S
H318 C332 0.929 . S
H319 C333 0.931 . S
H320 C335 0.930 . S
C321 H309 0.930 . S
C321 C322 1.425 . S
C321 C326 1.399 . S
C322 C321 1.425 . S
C322 C323 1.342 1_545 S
C323 H310 0.930 . S
C323 C322 1.342 1_565 S
C323 C324 1.388 . S
C324 H311 0.930 . S
C324 C323 1.388 . S
C324 C325 1.390 . S
C325 C324 1.390 . S
C325 C326 1.394 1_565 S
C325 C331 1.465 1_554 S
C326 C321 1.399 . S
C326 C325 1.394 1_545 S
C326 C327 1.516 1_554 S
C327 C326 1.516 1_556 S
C327 C328 1.502 . S
C327 C329 1.561 . S
C327 C330 1.526 . S
C328 H312 0.959 . S
C328 H313 0.959 . S
C328 H314 0.961 1_556 S
C328 C327 1.502 . S
C329 H315 0.960 1_556 S
C329 H316 0.961 . S
C329 H317 0.959 . S
C329 C327 1.561 . S
C330 C327 1.526 . S
C330 C331 1.396 1_545 S
C330 C335 1.390 . S
C331 C325 1.465 1_556 S
C331 C330 1.396 1_565 S
C331 C332 1.399 . S
C332 H318 0.929 . S
C332 C331 1.399 . S
C332 C333 1.385 . S
C333 H319 0.931 . S
C333 C332 1.385 . S
C333 C334 1.389 . S
C334 C333 1.389 . S
C334 C335 1.387 1_565 S
C335 H320 0.930 . S
C335 C330 1.390 . S
C335 C334 1.387 1_545 S
H336 C348 0.930 . S
H337 C350 0.930 . S
H338 C351 0.930 . S
H339 C355 0.959 . S
H340 C355 0.959 . S
H341 C355 0.961 . S
H342 C356 0.960 . S
H343 C356 0.961 . S
H344 C356 0.959 . S
H345 C359 0.929 . S
H346 C360 0.931 . S
H347 C362 0.930 . S
C348 H336 0.930 . S
C348 C349 1.399 . S
C348 C353 1.399 . S
C349 C348 1.399 . S
C349 C350 1.376 . S
C350 H337 0.930 . S
C350 C349 1.376 . S
C350 C351 1.388 . S
C351 H338 0.930 . S
C351 C350 1.388 . S
C351 C352 1.390 . S
C352 C351 1.390 . S
C352 C353 1.394 . S
C352 C358 1.465 . S
C353 C348 1.399 . S
C353 C352 1.394 . S
C353 C354 1.516 . S
C354 C353 1.516 . S
C354 C355 1.502 . S
C354 C356 1.561 . S
C354 C357 1.526 . S
C355 H339 0.959 . S
C355 H340 0.959 . S
C355 H341 0.961 . S
C355 C354 1.502 . S
C356 H342 0.960 . S
C356 H343 0.961 . S
C356 H344 0.959 . S
C356 C354 1.561 . S
C357 C354 1.526 . S
C357 C358 1.396 . S
C357 C362 1.390 . S
C358 C352 1.465 . S
C358 C357 1.396 . S
C358 C359 1.399 . S
C359 H345 0.929 . S
C359 C358 1.399 . S
C359 C360 1.385 . S
C360 H346 0.931 . S
C360 C359 1.385 . S
C360 C361 1.389 . S
C361 C360 1.389 . S
C361 C362 1.387 . S
C362 H347 0.930 . S
C362 C357 1.390 . S
C362 C361 1.387 . S
C133 C10 1.865 . S
C145 C86 1.948 . S
C160 C59 2.222 . S
C172 C15 2.122 . S
C187 C46 1.955 . S
C199 C90 1.849 . S
C214 C95 2.115 . S
C226 C19 2.224 . S
C241 C50 1.908 . S
C253 C6 1.922 . S
C268 C99 2.201 . S
C280 C55 2.164 . S
C295 C9 0.558 . S
C307 C18 0.547 1_455 S
C322 C49 0.452 1_545 S
C334 C58 0.646 1_565 S
C349 C89 0.548 . S
C361 C98 0.568 . S
