# Generated by pormake.
# Topology wkj, (6)-cn, num edge types: 1
# Building blocks:
#     Node 0, Type 0, BuildingBlock: BETGAK_clean_sbu_0, # of connection points: 6
#     Node 1, Type 0, BuildingBlock: BETGAK_clean_sbu_0, # of connection points: 6
#     Node 2, Type 0, BuildingBlock: BETGAK_clean_sbu_0, # of connection points: 6
#     Node 3, Type 0, BuildingBlock: BETGAK_clean_sbu_0, # of connection points: 6
#     Node 4, Type 0, BuildingBlock: BETGAK_clean_sbu_0, # of connection points: 6
#     Node 5, Type 0, BuildingBlock: BETGAK_clean_sbu_0, # of connection points: 6
#     Node 6, Type 0, BuildingBlock: BETGAK_clean_sbu_0, # of connection points: 6
#     Node 7, Type 0, BuildingBlock: BETGAK_clean_sbu_0, # of connection points: 6
#     Node 8, Type 0, BuildingBlock: BETGAK_clean_sbu_0, # of connection points: 6
#     Node 9, Type 0, BuildingBlock: BETGAK_clean_sbu_0, # of connection points: 6
#     Node 10, Type 0, BuildingBlock: BETGAK_clean_sbu_0, # of connection points: 6
#     Node 11, Type 0, BuildingBlock: BETGAK_clean_sbu_0, # of connection points: 6
#     Edge 12, Type (0, 0), BuildingBlock: UVAHIK_clean_linker_0, # of connection points: 2
#     Edge 13, Type (0, 0), BuildingBlock: UVAHIK_clean_linker_0, # of connection points: 2
#     Edge 14, Type (0, 0), BuildingBlock: UVAHIK_clean_linker_0, # of connection points: 2
#     Edge 15, Type (0, 0), BuildingBlock: UVAHIK_clean_linker_0, # of connection points: 2
#     Edge 16, Type (0, 0), BuildingBlock: UVAHIK_clean_linker_0, # of connection points: 2
#     Edge 17, Type (0, 0), BuildingBlock: UVAHIK_clean_linker_0, # of connection points: 2
#     Edge 18, Type (0, 0), BuildingBlock: UVAHIK_clean_linker_0, # of connection points: 2
#     Edge 19, Type (0, 0), BuildingBlock: UVAHIK_clean_linker_0, # of connection points: 2
#     Edge 20, Type (0, 0), BuildingBlock: UVAHIK_clean_linker_0, # of connection points: 2
#     Edge 21, Type (0, 0), BuildingBlock: UVAHIK_clean_linker_0, # of connection points: 2
#     Edge 22, Type (0, 0), BuildingBlock: UVAHIK_clean_linker_0, # of connection points: 2
#     Edge 23, Type (0, 0), BuildingBlock: UVAHIK_clean_linker_0, # of connection points: 2
#     Edge 24, Type (0, 0), BuildingBlock: UVAHIK_clean_linker_0, # of connection points: 2
#     Edge 25, Type (0, 0), BuildingBlock: UVAHIK_clean_linker_0, # of connection points: 2
#     Edge 26, Type (0, 0), BuildingBlock: UVAHIK_clean_linker_0, # of connection points: 2
#     Edge 27, Type (0, 0), BuildingBlock: UVAHIK_clean_linker_0, # of connection points: 2
#     Edge 28, Type (0, 0), BuildingBlock: UVAHIK_clean_linker_0, # of connection points: 2
#     Edge 29, Type (0, 0), BuildingBlock: UVAHIK_clean_linker_0, # of connection points: 2
#     Edge 30, Type (0, 0), BuildingBlock: UVAHIK_clean_linker_0, # of connection points: 2
#     Edge 31, Type (0, 0), BuildingBlock: UVAHIK_clean_linker_0, # of connection points: 2
#     Edge 32, Type (0, 0), BuildingBlock: UVAHIK_clean_linker_0, # of connection points: 2
#     Edge 33, Type (0, 0), BuildingBlock: UVAHIK_clean_linker_0, # of connection points: 2
#     Edge 34, Type (0, 0), BuildingBlock: UVAHIK_clean_linker_0, # of connection points: 2
#     Edge 35, Type (0, 0), BuildingBlock: UVAHIK_clean_linker_0, # of connection points: 2
#     Edge 36, Type (0, 0), BuildingBlock: UVAHIK_clean_linker_0, # of connection points: 2
#     Edge 37, Type (0, 0), BuildingBlock: UVAHIK_clean_linker_0, # of connection points: 2
#     Edge 38, Type (0, 0), BuildingBlock: UVAHIK_clean_linker_0, # of connection points: 2
#     Edge 39, Type (0, 0), BuildingBlock: UVAHIK_clean_linker_0, # of connection points: 2
#     Edge 40, Type (0, 0), BuildingBlock: UVAHIK_clean_linker_0, # of connection points: 2
#     Edge 41, Type (0, 0), BuildingBlock: UVAHIK_clean_linker_0, # of connection points: 2
#     Edge 42, Type (0, 0), BuildingBlock: UVAHIK_clean_linker_0, # of connection points: 2
#     Edge 43, Type (0, 0), BuildingBlock: UVAHIK_clean_linker_0, # of connection points: 2
#     Edge 44, Type (0, 0), BuildingBlock: UVAHIK_clean_linker_0, # of connection points: 2
#     Edge 45, Type (0, 0), BuildingBlock: UVAHIK_clean_linker_0, # of connection points: 2
#     Edge 46, Type (0, 0), BuildingBlock: UVAHIK_clean_linker_0, # of connection points: 2
#     Edge 47, Type (0, 0), BuildingBlock: UVAHIK_clean_linker_0, # of connection points: 2
# Relax obj value: 0.594
# Max RMSD: 0.176
# Mean RMSD: 0.176
data_MOF--net-wkj--node1-BETGAK_clean_sbu_0--edge1-UVAHIK_clean_linker_0
_symmetry_space_group_name_H-M    P1
_symmetry_Int_Tables_number       1
_symmetry_cell_setting            triclinic
loop_
_symmetry_equiv_pos_as_xyz
'x, y, z'
_cell_length_a     61.784453
_cell_length_b     61.880847
_cell_length_c     38.248139
_cell_angle_alpha  90.290805
_cell_angle_beta   90.107178
_cell_angle_gamma 120.18454
loop_
_atom_site_label
_atom_site_type_symbol
_atom_site_fract_x
_atom_site_fract_y
_atom_site_fract_z
_atom_type_partial_charge
La0 La 0.47895 0.09654 0.34501 0.0
La1 La 0.52888 0.10726 0.33132 0.0
C2 C 0.43502 0.08338 0.36454 0.0
C3 C 0.42056 0.07911 0.39654 0.0
C4 C 0.39439 0.06594 0.39434 0.0
C5 C 0.38003 0.06154 0.42436 0.0
C6 C 0.39169 0.07038 0.45703 0.0
C7 C 0.418 0.08385 0.45907 0.0
C8 C 0.43237 0.08814 0.429 0.0
C9 C 0.50576 0.13975 0.31133 0.0
C10 C 0.5186 0.10912 0.41168 0.0
C11 C 0.57349 0.13079 0.31039 0.0
C12 C 0.58627 0.15102 0.28493 0.0
C13 C 0.57533 0.14997 0.25236 0.0
C14 C 0.58489 0.17124 0.23156 0.0
C15 C 0.60525 0.19414 0.24319 0.0
C16 C 0.61685 0.19481 0.27513 0.0
C17 C 0.60746 0.1734 0.29574 0.0
C18 C 0.50038 0.06259 0.35939 0.0
C19 C 0.4882 0.07873 0.2695 0.0
O20 O 0.45222 0.10647 0.35843 0.0
O21 O 0.44283 0.06771 0.35798 0.0
O22 O 0.48325 0.12247 0.30361 0.0
O23 O 0.51324 0.13185 0.33675 0.0
O24 O 0.49574 0.10373 0.40047 0.0
O25 O 0.53564 0.11268 0.38806 0.0
O26 O 0.55697 0.10852 0.29867 0.0
O27 O 0.56523 0.13734 0.33745 0.0
O28 O 0.52454 0.07555 0.36294 0.0
O29 O 0.49402 0.07347 0.33778 0.0
O30 O 0.5124 0.09307 0.27781 0.0
O31 O 0.4712 0.07586 0.2935 0.0
H32 H 0.38505 0.05896 0.36937 0.0
H33 H 0.35981 0.05121 0.42206 0.0
H34 H 0.42745 0.09052 0.48402 0.0
H35 H 0.4526 0.09833 0.43109 0.0
H36 H 0.55882 0.13303 0.24352 0.0
H37 H 0.57596 0.16981 0.20659 0.0
H38 H 0.63248 0.21207 0.28494 0.0
H39 H 0.61596 0.17466 0.32105 0.0
La40 La 0.38833 0.47217 0.67867 0.0
La41 La 0.42626 0.5224 0.66583 0.0
C42 C 0.36052 0.42538 0.684 0.0
C43 C 0.34332 0.40842 0.71028 0.0
C44 C 0.33413 0.3827 0.70712 0.0
C45 C 0.32104 0.36678 0.73471 0.0
C46 C 0.31711 0.37648 0.76584 0.0
C47 C 0.32493 0.40211 0.76782 0.0
C48 C 0.33799 0.41797 0.74025 0.0
C49 C 0.36835 0.50045 0.66423 0.0
C50 C 0.40842 0.50846 0.74764 0.0
C51 C 0.44595 0.56917 0.66074 0.0
C52 C 0.44283 0.58655 0.63802 0.0
C53 C 0.46374 0.60935 0.62859 0.0
C54 C 0.46079 0.62641 0.6082 0.0
C55 C 0.43682 0.62099 0.59712 0.0
C56 C 0.4159 0.59821 0.60712 0.0
C57 C 0.41889 0.58109 0.62708 0.0
C58 C 0.44322 0.49302 0.68978 0.0
C59 C 0.42067 0.48636 0.60445 0.0
O60 O 0.35376 0.43979 0.66841 0.0
O61 O 0.38403 0.43768 0.69356 0.0
O62 O 0.36202 0.48455 0.68938 0.0
O63 O 0.38705 0.50132 0.64817 0.0
O64 O 0.39368 0.48489 0.73584 0.0
O65 O 0.42208 0.52588 0.72401 0.0
O66 O 0.45564 0.5566 0.64676 0.0
O67 O 0.42678 0.55514 0.68055 0.0
O68 O 0.45633 0.51238 0.67014 0.0
O69 O 0.42414 0.49376 0.6973 0.0
O70 O 0.42792 0.50998 0.61201 0.0
O71 O 0.40645 0.46898 0.62805 0.0
H72 H 0.33809 0.37511 0.68401 0.0
H73 H 0.31512 0.34712 0.7324 0.0
H74 H 0.32259 0.41026 0.79161 0.0
H75 H 0.34508 0.43786 0.74305 0.0
H76 H 0.48234 0.61392 0.63694 0.0
H77 H 0.47734 0.64358 0.60049 0.0
H78 H 0.39714 0.59353 0.59952 0.0
H79 H 0.4024 0.56366 0.63416 0.0
La80 La 0.91216 0.40587 1.00997 0.0
La81 La 0.88492 0.43115 0.99103 0.0
C82 C 0.9357 0.38515 1.03209 0.0
C83 C 0.94521 0.37982 1.06398 0.0
C84 C 0.96375 0.37326 1.06092 0.0
C85 C 0.97075 0.36454 1.08987 0.0
C86 C 0.95922 0.3622 0.12235 0.0
C87 C 0.94125 0.36969 0.12563 0.0
C88 C 0.93429 0.37848 1.0966 0.0
C89 C 0.86785 0.37685 0.9775 0.0
C90 C 0.89137 0.42536 1.07427 0.0
C91 C 0.84861 0.43411 0.96687 0.0
C92 C 0.82757 0.41653 0.94475 0.0
C93 C 0.8311 0.40229 0.91922 0.0
C94 C 0.81063 0.38333 0.90134 0.0
C95 C 0.78607 0.37784 0.90898 0.0
C96 C 0.78262 0.39206 0.93485 0.0
C97 C 0.80322 0.41125 0.95256 0.0
C98 C 0.92756 0.46284 1.02009 0.0
C99 C 0.92367 0.42854 0.9332 0.0
O100 O 0.91136 0.37393 1.02902 0.0
O101 O 0.94671 0.40831 1.02147 0.0
O102 O 0.8885 0.37727 0.97074 0.0
O103 O 0.8727 0.39285 1.00142 0.0
O104 O 0.90519 0.41541 1.06414 0.0
O105 O 0.87991 0.43145 1.04967 0.0
O106 O 0.87094 0.44541 0.9528 0.0
O107 O 0.84873 0.42519 0.99762 0.0
O108 O 0.90886 0.46674 1.01664 0.0
O109 O 0.92311 0.44403 1.0014 0.0
O110 O 0.90405 0.43198 0.93902 0.0
O111 O 0.93149 0.42004 0.95933 0.0
H112 H 0.97218 0.37401 1.03579 0.0
H113 H 0.98452 0.35877 1.0865 0.0
H114 H 0.93238 0.36849 0.15051 0.0
H115 H 0.91988 0.38344 1.09936 0.0
H116 H 0.84966 0.40554 0.9134 0.0
H117 H 0.81422 0.37327 0.88108 0.0
H118 H 0.76403 0.38825 0.94167 0.0
H119 H 0.80011 0.4216 0.97294 0.0
La120 La 0.53167 0.91287 0.34291 0.0
La121 La 0.4816 0.90187 0.32818 0.0
C122 C 0.57549 0.92528 0.36271 0.0
C123 C 0.59043 0.92925 0.39432 0.0
C124 C 0.61371 0.93071 0.3913 0.0
C125 C 0.62907 0.93589 0.42061 0.0
C126 C 0.62143 0.93992 0.45342 0.0
C127 C 0.59763 0.93765 0.45641 0.0
C128 C 0.58218 0.93215 0.42712 0.0
C129 C 0.50477 0.86953 0.30861 0.0
C130 C 0.49173 0.90019 0.40861 0.0
C131 C 0.43765 0.87721 0.30472 0.0
C132 C 0.42724 0.85739 0.27783 0.0
C133 C 0.43908 0.86097 0.24539 0.0
C134 C 0.43315 0.84057 0.22364 0.0
C135 C 0.41557 0.81611 0.23405 0.0
C136 C 0.40264 0.81273 0.26557 0.0
C137 C 0.4084 0.83323 0.28721 0.0
C138 C 0.50941 0.94648 0.35727 0.0
C139 C 0.52278 0.93103 0.2678 0.0
O140 O 0.55804 0.90231 0.35616 0.0
O141 O 0.56786 0.9412 0.35695 0.0
O142 O 0.52721 0.88681 0.30101 0.0
O143 O 0.49745 0.87762 0.33402 0.0
O144 O 0.51471 0.90578 0.39792 0.0
O145 O 0.47468 0.89644 0.38471 0.0
O146 O 0.45355 0.90007 0.29474 0.0
O147 O 0.44556 0.87101 0.33246 0.0
O148 O 0.48518 0.9334 0.35983 0.0
O149 O 0.51629 0.93577 0.33587 0.0
O150 O 0.49855 0.9165 0.27539 0.0
O151 O 0.53968 0.93387 0.29209 0.0
H152 H 0.62018 0.92821 0.3661 0.0
H153 H 0.64704 0.93707 0.41747 0.0
H154 H 0.59122 0.94096 0.4811 0.0
H155 H 0.56409 0.93067 0.43001 0.0
H156 H 0.45378 0.87931 0.23748 0.0
H157 H 0.44287 0.84396 0.19896 0.0
H158 H 0.38898 0.79419 0.27432 0.0
H159 H 0.39922 0.83001 0.31232 0.0
La160 La 0.62595 0.53212 0.67437 0.0
La161 La 0.58616 0.48238 0.66615 0.0
C162 C 0.6588 0.57664 0.68932 0.0
C163 C 0.66918 0.59341 0.71947 0.0
C164 C 0.68459 0.61908 0.71382 0.0
C165 C 0.69356 0.63571 0.74208 0.0
C166 C 0.68718 0.62681 0.7764 0.0
C167 C 0.67222 0.6009 0.78191 0.0
C168 C 0.66331 0.58431 0.75363 0.0
C169 C 0.64085 0.50456 0.63884 0.0
C170 C 0.60374 0.4954 0.74453 0.0
C171 C 0.56134 0.43696 0.6475 0.0
C172 C 0.56733 0.42138 0.62516 0.0
C173 C 0.54858 0.39736 0.61512 0.0
C174 C 0.55466 0.382 0.59556 0.0
C175 C 0.57964 0.39044 0.58596 0.0
C176 C 0.59837 0.41453 0.59648 0.0
C177 C 0.59224 0.42988 0.61571 0.0
C178 C 0.57213 0.51235 0.69586 0.0
C179 C 0.59332 0.5201 0.60288 0.0
O180 O 0.66317 0.55811 0.68776 0.0
O181 O 0.63565 0.56962 0.68117 0.0
O182 O 0.64455 0.52629 0.63033 0.0
O183 O 0.62681 0.49763 0.66582 0.0
O184 O 0.61897 0.51827 0.73133 0.0
O185 O 0.59002 0.47712 0.72233 0.0
O186 O 0.55948 0.45477 0.6322 0.0
O187 O 0.57479 0.44495 0.67591 0.0
O188 O 0.56125 0.48852 0.70139 0.0
O189 O 0.58756 0.5174 0.67202 0.0
O190 O 0.58378 0.49638 0.6128 0.0
O191 O 0.60971 0.53799 0.62453 0.0
H192 H 0.68932 0.62632 0.68748 0.0
H193 H 0.70514 0.65553 0.73707 0.0
H194 H 0.66659 0.59349 0.80801 0.0
H195 H 0.65146 0.5645 0.75841 0.0
H196 H 0.52928 0.39048 0.62247 0.0
H197 H 0.53974 0.36373 0.5874 0.0
H198 H 0.61782 0.42152 0.58995 0.0
H199 H 0.60701 0.44831 0.62362 0.0
La200 La 0.10332 0.6054 1.01162 0.0
La201 La 0.13165 0.58157 0.99126 0.0
C202 C 0.07818 0.62456 1.03305 0.0
C203 C 0.06218 0.62541 1.06041 0.0
C204 C 0.04574 0.63382 1.05125 0.0
C205 C 0.0319 0.63751 1.07682 0.0
C206 C 0.03434 0.63285 0.11205 0.0
C207 C 0.05028 0.62359 0.12108 0.0
C208 C 0.06413 0.61984 1.09534 0.0
C209 C 0.14743 0.63639 0.98035 0.0
C210 C 0.12458 0.586 1.07468 0.0
C211 C 0.16681 0.57721 0.96551 0.0
C212 C 0.18572 0.59199 0.93934 0.0
C213 C 0.20368 0.58576 0.92926 0.0
C214 C 0.22252 0.60094 0.90573 0.0
C215 C 0.2239 0.62284 0.89253 0.0
C216 C 0.20606 0.62916 0.90362 0.0
C217 C 0.1869 0.6136 0.92616 0.0
C218 C 0.08925 0.54902 1.02012 0.0
C219 C 0.09219 0.58309 0.93447 0.0
O220 O 0.10183 0.63342 1.04063 0.0
O221 O 0.06888 0.60445 1.01356 0.0
O222 O 0.12646 0.63554 0.97478 0.0
O223 O 0.14314 0.61981 1.00284 0.0
O224 O 0.10958 0.59466 1.06503 0.0
O225 O 0.13711 0.5814 1.04988 0.0
O226 O 0.14363 0.56449 0.95434 0.0
O227 O 0.16873 0.58952 0.99427 0.0
O228 O 0.10857 0.54611 1.01731 0.0
O229 O 0.09326 0.56762 1.0017 0.0
O230 O 0.11312 0.58181 0.93933 0.0
O231 O 0.08336 0.58976 0.96149 0.0
H232 H 0.04415 0.63827 1.02433 0.0
H233 H 0.01999 0.64487 1.06913 0.0
H234 H 0.0522 0.6195 0.14803 0.0
H235 H 0.07669 0.61319 0.10273 0.0
H236 H 0.20307 0.56915 0.93941 0.0
H237 H 0.23557 0.59516 0.89733 0.0
H238 H 0.2067 0.64606 0.89474 0.0
H239 H 0.17304 0.61854 0.93361 0.0
La240 La 0.91718 0.53353 0.5297 0.0
La241 La 0.90656 0.48365 0.53806 0.0
C242 C 0.93017 0.57816 0.51451 0.0
C243 C 0.93118 0.59244 0.48364 0.0
C244 C 0.94551 0.61858 0.48478 0.0
C245 C 0.94782 0.63251 0.455 0.0
C246 C 0.93573 0.62041 0.42373 0.0
C247 C 0.92069 0.59419 0.4231 0.0
C248 C 0.91848 0.5803 0.45285 0.0
C249 C 0.87438 0.50624 0.56416 0.0
C250 C 0.90217 0.49632 0.45947 0.0
C251 C 0.88488 0.43797 0.55392 0.0
C252 C 0.86582 0.42157 0.57908 0.0
C253 C 0.86534 0.42958 0.61326 0.0
C254 C 0.84481 0.41518 0.63473 0.0
C255 C 0.82419 0.39278 0.62218 0.0
C256 C 0.82522 0.38452 0.58826 0.0
C257 C 0.84588 0.39875 0.56701 0.0
C258 C 0.95087 0.51344 0.50888 0.0
C259 C 0.93701 0.52144 0.60155 0.0
O260 O 0.90785 0.56162 0.52506 0.0
O261 O 0.94545 0.56938 0.51476 0.0
O262 O 0.89257 0.52794 0.57335 0.0
O263 O 0.88155 0.4992 0.53725 0.0
O264 O 0.90744 0.51857 0.4731 0.0
O265 O 0.89988 0.47881 0.48124 0.0
O266 O 0.90712 0.4545 0.5657 0.0
O267 O 0.87653 0.44746 0.5308 0.0
O268 O 0.93736 0.48967 0.50261 0.0
O269 O 0.94053 0.51861 0.53281 0.0
O270 O 0.92136 0.49769 0.59235 0.0
O271 O 0.94005 0.53922 0.57889 0.0
H272 H 0.95534 0.62818 0.5085 0.0
H273 H 0.95949 0.65267 0.45616 0.0
H274 H 0.91157 0.58432 0.39919 0.0
H275 H 0.90732 0.5601 0.45159 0.0
H276 H 0.88042 0.44727 0.62301 0.0
H277 H 0.84496 0.42184 0.66102 0.0
H278 H 0.80965 0.36757 0.57757 0.0
H279 H 0.84581 0.39247 0.54048 0.0
La280 La 0.38647 0.91187 0.85138 0.0
La281 La 0.42842 0.90649 0.86722 0.0
C282 C 0.35534 0.92673 0.84471 0.0
C283 C 0.34656 0.93704 0.81753 0.0
C284 C 0.33341 0.9491 0.82721 0.0
C285 C 0.32605 0.96031 0.8019 0.0
C286 C 0.33165 0.95945 0.76654 0.0
C287 C 0.34445 0.94689 0.75689 0.0
C288 C 0.35195 0.93584 0.78226 0.0
C289 C 0.37221 0.86543 0.87162 0.0
C290 C 0.41297 0.90153 0.78441 0.0
C291 C 0.45135 0.88282 0.87505 0.0
C292 C 0.44895 0.86416 0.9006 0.0
C293 C 0.44172 0.86518 0.93499 0.0
C294 C 0.43371 0.84461 0.95682 0.0
C295 C 0.43234 0.82247 0.9445 0.0
C296 C 0.44097 0.82201 0.91072 0.0
C297 C 0.44918 0.84274 0.8889 0.0
C298 C 0.44025 0.95171 0.84399 0.0
C299 C 0.41554 0.9314 0.92848 0.0
O300 O 0.34974 0.90354 0.84054 0.0
O301 O 0.37853 0.94103 0.85475 0.0
O302 O 0.36336 0.87158 0.84539 0.0
O303 O 0.38958 0.8856 0.88549 0.0
O304 O 0.3968 0.90885 0.79481 0.0
O305 O 0.42627 0.89837 0.80932 0.0
O306 O 0.46014 0.90587 0.88616 0.0
O307 O 0.43139 0.87511 0.85551 0.0
O308 O 0.45464 0.94766 0.86456 0.0
O309 O 0.423 0.9308 0.83478 0.0
O310 O 0.4276 0.91944 0.92053 0.0
O311 O 0.39927 0.93122 0.9049 0.0
H312 H 0.3292 0.95019 0.85444 0.0
H313 H 0.31618 0.96983 0.80997 0.0
H314 H 0.34941 0.94635 0.72988 0.0
H315 H 0.3623 0.92677 0.77445 0.0
H316 H 0.44106 0.88138 0.94445 0.0
H317 H 0.4278 0.84578 0.98306 0.0
H318 H 0.44014 0.80525 0.90052 0.0
H319 H 0.45433 0.84151 0.86221 0.0
La320 La 0.50042 0.4048 0.19044 0.0
La321 La 0.55296 0.4264 0.20974 0.0
C322 C 0.45597 0.38685 0.16932 0.0
C323 C 0.43991 0.38498 0.14004 0.0
C324 C 0.4143 0.37461 0.14636 0.0
C325 C 0.39774 0.36988 0.11877 0.0
C326 C 0.40658 0.37549 1.08432 0.0
C327 C 0.43249 0.38667 1.07816 0.0
C328 C 0.4491 0.39142 0.10593 0.0
C329 C 0.51268 0.37318 0.22152 0.0
C330 C 0.54045 0.42274 0.12635 0.0
C331 C 0.59029 0.42545 0.2339 0.0
C332 C 0.59135 0.40711 0.2571 0.0
C333 C 0.57626 0.39857 0.28692 0.0
C334 C 0.57463 0.37871 0.30604 0.0
C335 C 0.58769 0.36657 0.2955 0.0
C336 C 0.60283 0.37519 0.26559 0.0
C337 C 0.60466 0.39531 0.24662 0.0
C338 C 0.5454 0.46057 0.18244 0.0
C339 C 0.513 0.42652 0.26783 0.0
O340 O 0.46906 0.37572 0.16545 0.0
O341 O 0.46854 0.40847 0.18521 0.0
O342 O 0.4931 0.37479 0.22822 0.0
O343 O 0.52457 0.38911 0.19819 0.0
O344 O 0.51707 0.41523 0.13663 0.0
O345 O 0.55761 0.42632 0.15079 0.0
O346 O 0.58202 0.43955 0.2471 0.0
O347 O 0.58025 0.41618 0.20348 0.0
O348 O 0.56732 0.46256 0.18519 0.0
O349 O 0.53 0.44203 0.20046 0.0
O350 O 0.53494 0.42719 0.26224 0.0
O351 O 0.49719 0.42036 0.24111 0.0
H352 H 0.40697 0.36942 0.17261 0.0
H353 H 0.37791 0.36101 0.12431 0.0
H354 H 0.43985 0.3915 1.0519 0.0
H355 H 0.46891 0.3995 1.10075 0.0
H356 H 0.56533 0.40692 0.29523 0.0
H357 H 0.5633 0.37314 0.32943 0.0
H358 H 0.61301 0.36622 0.25657 0.0
H359 H 0.61593 0.40122 0.22315 0.0
La360 La 0.09355 0.47168 0.52307 0.0
La361 La 0.10729 0.52218 0.5362 0.0
C362 C 0.07258 0.42469 0.51715 0.0
C363 C 0.06839 0.40682 0.48914 0.0
C364 C 0.05608 0.38121 0.49638 0.0
C365 C 0.04948 0.36383 0.46916 0.0
C366 C 0.05507 0.37192 0.43434 0.0
C367 C 0.06852 0.39777 0.42756 0.0
C368 C 0.07514 0.41507 0.45476 0.0
C369 C 0.14201 0.49908 0.53847 0.0
C370 C 0.10975 0.5076 0.45419 0.0
C371 C 0.13721 0.56859 0.54078 0.0
C372 C 0.15913 0.58423 0.56277 0.0
C373 C 0.16096 0.57666 0.59655 0.0
C374 C 0.18359 0.58912 0.61482 0.0
C375 C 0.20498 0.60907 0.59941 0.0
C376 C 0.20282 0.61699 0.56585 0.0
C377 C 0.18006 0.60465 0.54772 0.0
C378 C 0.06054 0.49371 0.51245 0.0
C379 C 0.07648 0.487 0.59782 0.0
O380 O 0.09575 0.43897 0.52722 0.0
O381 O 0.06101 0.43732 0.51335 0.0
O382 O 0.13215 0.48311 0.51313 0.0
O383 O 0.12437 0.50046 0.55422 0.0
O384 O 0.10043 0.48405 0.46585 0.0
O385 O 0.11403 0.52522 0.47797 0.0
O386 O 0.11515 0.55736 0.55564 0.0
O387 O 0.14042 0.55354 0.52025 0.0
O388 O 0.06761 0.5135 0.53189 0.0
O389 O 0.07997 0.49365 0.50464 0.0
O390 O 0.09184 0.51067 0.58936 0.0
O391 O 0.0742 0.46921 0.57529 0.0
H392 H 0.05085 0.37462 0.52292 0.0
H393 H 0.03931 0.34408 0.47522 0.0
H394 H 0.07273 0.40469 0.40105 0.0
H395 H 0.08464 0.43483 0.44879 0.0
H396 H 0.14515 0.56064 0.60838 0.0
H397 H 0.18434 0.5829 0.64098 0.0
H398 H 0.21888 0.63214 0.55311 0.0
H399 H 0.17907 0.61038 0.52131 0.0
La400 La 0.62473 0.0986 0.85669 0.0
La401 La 0.58441 0.10774 0.87061 0.0
C402 C 0.65744 0.08781 0.83813 0.0
C403 C 0.66769 0.08226 0.80719 0.0
C404 C 0.68824 0.07876 0.81125 0.0
C405 C 0.69764 0.07208 0.78263 0.0
C406 C 0.68641 0.06852 0.74949 0.0
C407 C 0.66617 0.07278 0.74546 0.0
C408 C 0.65703 0.07981 0.77405 0.0
C409 C 0.64007 0.14168 0.89106 0.0
C410 C 0.59615 0.10897 0.79013 0.0
C411 C 0.56287 0.13063 0.892 0.0
C412 C 0.57084 0.15127 0.91728 0.0
C413 C 0.58144 0.15078 0.9495 0.0
C414 C 0.59377 0.1724 0.96993 0.0
C415 C 0.59621 0.19509 0.95831 0.0
C416 C 0.58458 0.19523 0.92678 0.0
C417 C 0.57195 0.17347 0.90651 0.0
C418 C 0.56896 0.06286 0.84309 0.0
C419 C 0.59751 0.08023 0.9319 0.0
O420 O 0.6616 0.11061 0.84103 0.0
O421 O 0.63451 0.07123 0.84659 0.0
O422 O 0.64583 0.1249 0.89861 0.0
O423 O 0.62465 0.13326 0.8655 0.0
O424 O 0.6139 0.104 0.80116 0.0
O425 O 0.58271 0.11253 0.81387 0.0
O426 O 0.55771 0.10871 0.90386 0.0
O427 O 0.57699 0.1369 0.86431 0.0
O428 O 0.55698 0.07499 0.8398 0.0
O429 O 0.58663 0.07471 0.86404 0.0
O430 O 0.58719 0.09406 0.92386 0.0
O431 O 0.61198 0.07785 0.90788 0.0
H432 H 0.69684 0.08088 0.83672 0.0
H433 H 0.71351 0.06942 0.78657 0.0
H434 H 0.6568 0.06991 0.72048 0.0
H435 H 0.64144 0.08289 0.77035 0.0
H436 H 0.58111 0.13401 0.95832 0.0
H437 H 0.60181 0.17139 0.99462 0.0
H438 H 0.58609 0.21233 0.91703 0.0
H439 H 0.56418 0.1743 0.88146 0.0
La440 La 0.51176 0.60501 0.19402 0.0
La441 La 0.45901 0.58037 0.21282 0.0
C442 C 0.55619 0.62533 0.17244 0.0
C443 C 0.57149 0.63035 0.14115 0.0
C444 C 0.59627 0.63588 0.14528 0.0
C445 C 0.6126 0.64429 0.117 0.0
C446 C 0.60435 0.64736 1.08414 0.0
C447 C 0.57918 0.64093 1.07978 0.0
C448 C 0.56281 0.63242 0.10814 0.0
C449 C 0.49714 0.63444 0.22608 0.0
C450 C 0.47109 0.58564 0.1298 0.0
C451 C 0.42146 0.57977 0.2387 0.0
C452 C 0.42118 0.59789 0.26362 0.0
C453 C 0.43433 0.60319 0.29538 0.0
C454 C 0.43844 0.62372 0.31553 0.0
C455 C 0.42982 0.63973 0.30428 0.0
C456 C 0.41591 0.63395 0.27308 0.0
C457 C 0.4116 0.61319 0.25297 0.0
C458 C 0.46921 0.54835 0.18401 0.0
C459 C 0.50019 0.5822 0.2705 0.0
O460 O 0.54317 0.63662 0.17449 0.0
O461 O 0.54378 0.60229 0.1835 0.0
O462 O 0.51725 0.63384 0.23309 0.0
O463 O 0.48583 0.61843 0.20221 0.0
O464 O 0.49494 0.59536 0.13995 0.0
O465 O 0.45351 0.57982 0.15426 0.0
O466 O 0.43001 0.56545 0.24997 0.0
O467 O 0.43075 0.58943 0.2083 0.0
O468 O 0.44666 0.54487 0.18666 0.0
O469 O 0.48383 0.56705 0.20288 0.0
O470 O 0.47726 0.57918 0.26471 0.0
O471 O 0.51655 0.59052 0.24446 0.0
H472 H 0.60325 0.63454 0.17072 0.0
H473 H 0.6319 0.64923 0.12114 0.0
H474 H 0.57225 0.64271 1.05456 0.0
H475 H 0.54368 0.62822 0.10457 0.0
H476 H 0.44222 0.59199 0.30422 0.0
H477 H 0.44851 0.62707 0.34001 0.0
H478 H 0.409 0.64585 0.26367 0.0
H479 H 0.40177 0.60973 0.22825 0.0
C480 C 0.50731 0.17201 0.26978 0.0
C481 C 0.51402 0.16663 0.3025 0.0
C482 C 0.51088 0.19586 0.26209 0.0
C483 C 0.51709 0.2535 0.30466 0.0
H484 H 0.53355 0.28054 0.21104 0.0
C485 C 0.50048 0.33451 0.25801 0.0
C486 C 0.51656 0.35196 0.23318 0.0
C487 C 0.50283 0.3138 0.26794 0.0
C488 C 0.5291 0.27355 0.23748 0.0
H489 H 0.53009 0.18297 0.35284 0.0
H490 H 0.53619 0.22463 0.33968 0.0
H491 H 0.5337 0.24215 0.22501 0.0
H492 H 0.54844 0.36116 0.20022 0.0
H493 H 0.55262 0.32522 0.21736 0.0
H494 H 0.51208 0.28465 0.317 0.0
C495 C 0.52819 0.21023 0.31968 0.0
C496 C 0.52894 0.25116 0.24549 0.0
C497 C 0.52499 0.18632 0.32718 0.0
C498 C 0.53552 0.34817 0.21918 0.0
C499 C 0.53779 0.3273 0.22895 0.0
C500 C 0.51688 0.2757 0.29651 0.0
C501 C 0.52091 0.21542 0.28705 0.0
C502 C 0.52273 0.24048 0.27918 0.0
C503 C 0.52131 0.30947 0.25331 0.0
C504 C 0.52273 0.28619 0.26265 0.0
H505 H 0.49855 0.15738 0.25017 0.0
H506 H 0.50472 0.19861 0.23684 0.0
H507 H 0.51204 0.24613 0.33086 0.0
H508 H 0.48568 0.33666 0.26957 0.0
H509 H 0.48954 0.30073 0.28647 0.0
C510 C 0.32787 0.50056 0.67139 0.0
C511 C 0.349 0.50669 0.65048 0.0
C512 C 0.30783 0.50332 0.6595 0.0
C513 C 0.27913 0.51359 0.57742 0.0
H514 H 0.23401 0.51653 0.64501 0.0
C515 C 0.18125 0.49642 0.53324 0.0
C516 C 0.16754 0.50504 0.55251 0.0
C517 C 0.20416 0.49947 0.54519 0.0
C518 C 0.24633 0.51599 0.62541 0.0
H519 H 0.3653 0.52158 0.60005 0.0
H520 H 0.33081 0.52744 0.57948 0.0
H521 H 0.27205 0.51801 0.66472 0.0
H522 H 0.16862 0.52467 0.60003 0.0
H523 H 0.20926 0.53094 0.62063 0.0
H524 H 0.25417 0.51298 0.53802 0.0
C525 C 0.32937 0.51967 0.6052 0.0
C526 C 0.26836 0.51638 0.6369 0.0
C527 C 0.34954 0.51659 0.61714 0.0
C528 C 0.17831 0.51761 0.58429 0.0
C529 C 0.20173 0.52099 0.59624 0.0
C530 C 0.25731 0.51356 0.56591 0.0
C531 C 0.30781 0.51282 0.62605 0.0
C532 C 0.28511 0.51461 0.61328 0.0
C533 C 0.21518 0.5118 0.57697 0.0
C534 C 0.23996 0.51415 0.5896 0.0
H535 H 0.32637 0.49284 0.69722 0.0
H536 H 0.29193 0.49713 0.67664 0.0
H537 H 0.29097 0.51218 0.55784 0.0
H538 H 0.17397 0.48659 0.50866 0.0
H539 H 0.21281 0.49135 0.52945 0.0
C540 C 0.81986 0.35191 0.98172 0.0
C541 C 0.84226 0.35579 0.96632 0.0
C542 C 0.79637 0.33092 0.97251 0.0
C543 C 0.76374 0.27944 0.90427 0.0
H544 H 0.71575 0.24474 0.97775 0.0
C545 C 0.66631 0.18831 0.8756 0.0
C546 C 0.65847 0.16876 0.89996 0.0
C547 C 0.68692 0.21251 0.88296 0.0
C548 C 0.72885 0.25404 0.95672 0.0
H549 H 0.85684 0.3406 0.928 0.0
H550 H 0.81649 0.30458 0.91199 0.0
H551 H 0.75455 0.28354 0.99106 0.0
H552 H 0.66608 0.16006 0.95163 0.0
H553 H 0.70103 0.2017 0.96468 0.0
H554 H 0.73818 0.24973 0.87004 0.0
C555 C 0.81679 0.31761 0.93124 0.0
C556 C 0.75121 0.27667 0.96437 0.0
C557 C 0.84018 0.33839 0.94064 0.0
C558 C 0.67128 0.17456 0.93227 0.0
C559 C 0.6915 0.19867 0.93981 0.0
C560 C 0.74124 0.25695 0.89653 0.0
C561 C 0.79435 0.31313 0.94729 0.0
C562 C 0.76938 0.28971 0.93846 0.0
C563 C 0.70019 0.21812 0.91512 0.0
C564 C 0.72345 0.24349 0.9227 0.0
H565 H 0.8205 0.36487 1.00138 0.0
H566 H 0.77974 0.32866 0.98524 0.0
H567 H 0.7768 0.28879 0.88322 0.0
H568 H 0.65726 0.18465 0.85025 0.0
H569 H 0.69262 0.2268 0.8632 0.0
C570 C 0.47448 0.65951 0.2211 0.0
C571 C 0.49287 0.65561 0.23692 0.0
C572 C 0.47218 0.68056 0.22991 0.0
C573 C 0.49181 0.73268 0.29735 0.0
H574 H 0.47727 0.76607 0.22339 0.0
C575 C 0.48481 0.8231 0.32448 0.0
C576 C 0.49645 0.84255 0.29996 0.0
C577 C 0.48134 0.79899 0.31745 0.0
C578 C 0.4814 0.75712 0.24454 0.0
H579 H 0.52263 0.67085 0.27553 0.0
H580 H 0.51868 0.70704 0.2908 0.0
H581 H 0.47722 0.72731 0.21083 0.0
H582 H 0.51268 0.85116 0.24827 0.0
H583 H 0.50609 0.80957 0.23571 0.0
H584 H 0.49635 0.76271 0.33094 0.0
C585 C 0.50588 0.69395 0.27155 0.0
C586 C 0.48111 0.73451 0.23734 0.0
C587 C 0.50827 0.67308 0.26259 0.0
C588 C 0.50348 0.83673 0.26777 0.0
C589 C 0.49965 0.81267 0.26052 0.0
C590 C 0.49179 0.75512 0.30466 0.0
C591 C 0.48803 0.69843 0.2551 0.0
C592 C 0.48665 0.72192 0.26345 0.0
C593 C 0.489 0.79336 0.28544 0.0
C594 C 0.48698 0.76808 0.27829 0.0
H595 H 0.46211 0.64651 0.20141 0.0
H596 H 0.45784 0.68276 0.21689 0.0
H597 H 0.49602 0.72381 0.31851 0.0
H598 H 0.47937 0.82678 0.34972 0.0
H599 H 0.47282 0.78479 0.33735 0.0
C600 C 0.67806 0.51181 0.60285 0.0
C601 C 0.66085 0.49809 0.62952 0.0
C602 C 0.6991 0.50938 0.5959 0.0
C603 C 0.72863 0.46982 0.60495 0.0
H604 H 0.79058 0.53294 0.59553 0.0
C605 C 0.82623 0.48193 0.55467 0.0
C606 C 0.84778 0.49961 0.57321 0.0
C607 C 0.80223 0.47887 0.56202 0.0
C608 C 0.77355 0.51504 0.59804 0.0
H609 H 0.65236 0.46979 0.66863 0.0
H610 H 0.68895 0.46494 0.65574 0.0
H611 H 0.75166 0.53258 0.60745 0.0
H612 H 0.86004 0.52707 0.61513 0.0
H613 H 0.81922 0.52212 0.62711 0.0
H614 H 0.75085 0.45238 0.59487 0.0
C615 C 0.68608 0.47798 0.64048 0.0
C616 C 0.75101 0.51483 0.60478 0.0
C617 C 0.66498 0.48072 0.6479 0.0
C618 C 0.84422 0.51339 0.59988 0.0
C619 C 0.82059 0.51064 0.60676 0.0
C620 C 0.75127 0.47002 0.59745 0.0
C621 C 0.70391 0.49279 0.61486 0.0
C622 C 0.72803 0.49228 0.6085 0.0
C623 C 0.79911 0.49367 0.58771 0.0
C624 C 0.77426 0.4927 0.5941 0.0
H625 H 0.67571 0.52524 0.5877 0.0
H626 H 0.71186 0.52084 0.5756 0.0
H627 H 0.71147 0.45202 0.60736 0.0
H628 H 0.82798 0.47096 0.5339 0.0
H629 H 0.78627 0.46556 0.54666 0.0
C630 C 0.345 0.84017 0.923 0.0
C631 C 0.35515 0.84106 0.8897 0.0
C632 C 0.32441 0.81774 0.9357 0.0
C633 C 0.28708 0.74765 0.92265 0.0
H634 H 0.23226 0.75259 0.96304 0.0
C635 C 0.19563 0.66092 0.98075 0.0
C636 C 0.17258 0.65902 0.97168 0.0
C637 C 0.21877 0.68245 0.97222 0.0
C638 C 0.24734 0.75072 0.95186 0.0
H639 H 0.35153 0.81856 0.84422 0.0
H640 H 0.31681 0.77958 0.86674 0.0
H641 H 0.27099 0.79059 0.94706 0.0
H642 H 0.15641 0.67898 0.94657 0.0
H643 H 0.19618 0.71633 0.93296 0.0
H644 H 0.26333 0.7077 0.92755 0.0
C645 C 0.32455 0.79611 0.88321 0.0
C646 C 0.26979 0.7727 0.94291 0.0
C647 C 0.34468 0.81857 0.87028 0.0
C648 C 0.17358 0.67952 0.95415 0.0
C649 C 0.19656 0.70116 0.9464 0.0
C650 C 0.26477 0.72565 0.93227 0.0
C651 C 0.31351 0.79532 0.91579 0.0
C652 C 0.29006 0.77166 0.92772 0.0
C653 C 0.21967 0.70314 0.9552 0.0
C654 C 0.24429 0.72672 0.94664 0.0
H655 H 0.35202 0.85714 0.93842 0.0
H656 H 0.31671 0.81809 0.96097 0.0
H657 H 0.3021 0.74581 0.91123 0.0
H658 H 0.19581 0.64568 0.99427 0.0
H659 H 0.236 0.68308 0.9796 0.0
C660 C 0.60307 0.23582 0.98351 0.0
C661 C 0.61102 0.21833 0.97924 0.0
C662 C 0.61468 0.25514 1.00823 0.0
C663 C 0.66073 0.2739 1.08428 0.0
H664 H 0.60541 0.27387 0.13105 0.0
C665 C 0.59644 0.22072 0.20336 0.0
C666 C 0.61391 0.21708 0.22198 0.0
C667 C 0.60432 0.23949 0.17851 0.0
C668 C 0.62098 0.27362 0.11857 0.0
H669 H 0.63999 0.2099 0.9932 0.0
H670 H 0.65863 0.24142 1.03759 0.0
H671 H 0.60565 0.27223 1.06845 0.0
H672 H 0.65351 0.23284 0.23297 0.0
H673 H 0.66735 0.26662 0.19124 0.0
H674 H 0.67405 0.27134 0.13433 0.0
C675 C 0.64372 0.24107 1.02234 0.0
C676 C 0.62147 0.27325 1.08209 0.0
C677 C 0.63255 0.22228 0.99715 0.0
C678 C 0.63949 0.23473 0.21845 0.0
C679 C 0.64744 0.25401 0.19405 0.0
C680 C 0.65947 0.27274 0.12072 0.0
C681 C 0.63397 0.25686 1.03 0.0
C682 C 0.63987 0.27027 1.06457 0.0
C683 C 0.63003 0.25563 0.17191 0.0
C684 C 0.63795 0.26953 0.13803 0.0
H685 H 0.58689 0.23374 0.96946 0.0
H686 H 0.60731 0.26757 1.01166 0.0
H687 H 0.67669 0.27439 1.07185 0.0
H688 H 0.57652 0.20819 0.20663 0.0
H689 H 0.58989 0.23969 0.16274 0.0
C690 C 0.457 0.67448 0.3454 0.0
C691 C 0.43456 0.66151 0.32638 0.0
C692 C 0.45876 0.68932 0.37397 0.0
C693 C 0.45671 0.70913 0.44348 0.0
H694 H 0.39151 0.66596 0.48364 0.0
C695 C 0.44866 0.66429 0.57651 0.0
C696 C 0.43368 0.63813 0.57328 0.0
C697 C 0.44703 0.68002 0.5517 0.0
C698 C 0.40989 0.67839 0.47297 0.0
H699 H 0.39834 0.65825 0.3176 0.0
H700 H 0.40197 0.68546 0.36599 0.0
H701 H 0.39468 0.67503 0.42228 0.0
H702 H 0.40486 0.60814 0.54181 0.0
H703 H 0.40206 0.63507 0.49916 0.0
H704 H 0.47195 0.70928 0.49375 0.0
C705 C 0.41764 0.68275 0.36064 0.0
C706 C 0.4118 0.68398 0.43745 0.0
C707 C 0.41563 0.66732 0.33247 0.0
C708 C 0.41634 0.62815 0.54566 0.0
C709 C 0.41465 0.64375 0.52113 0.0
C710 C 0.45484 0.7028 0.47885 0.0
C711 C 0.43815 0.69183 0.38393 0.0
C712 C 0.4355 0.69714 0.42147 0.0
C713 C 0.43031 0.66987 0.52331 0.0
C714 C 0.43154 0.68533 0.49291 0.0
H715 H 0.47252 0.67148 0.3401 0.0
H716 H 0.47536 0.69634 0.39011 0.0
H717 H 0.47519 0.72094 0.43277 0.0
H718 H 0.46196 0.6726 0.59783 0.0
H719 H 0.45932 0.70004 0.5542 0.0
C720 C 0.74559 0.36313 0.87639 0.0
C721 C 0.76476 0.35886 0.88759 0.0
C722 C 0.73034 0.34973 0.84802 0.0
C723 C 0.7239 0.3448 0.7713 0.0
H724 H 0.75202 0.30918 0.72423 0.0
C725 C 0.79347 0.39145 0.66596 0.0
C726 C 0.80149 0.3786 0.64407 0.0
C727 C 0.7736 0.37847 0.68884 0.0
C728 C 0.74352 0.31891 0.73637 0.0
H729 H 0.7789 0.33325 0.88342 0.0
H730 H 0.75416 0.31129 0.83349 0.0
H731 H 0.73752 0.29844 0.78318 0.0
H732 H 0.79343 0.34173 0.62714 0.0
H733 H 0.75801 0.31899 0.66608 0.0
H734 H 0.72853 0.36413 0.72336 0.0
C735 C 0.75071 0.32523 0.84496 0.0
C736 C 0.7357 0.31316 0.77104 0.0
C737 C 0.7654 0.33812 0.87388 0.0
C738 C 0.78788 0.35229 0.64381 0.0
C739 C 0.76764 0.33921 0.66641 0.0
C740 C 0.73076 0.34982 0.73626 0.0
C741 C 0.73485 0.33272 0.8291 0.0
C742 C 0.72917 0.32849 0.79047 0.0
C743 C 0.76076 0.35215 0.69015 0.0
C744 C 0.74345 0.33911 0.71981 0.0
H745 H 0.74374 0.37832 0.88723 0.0
H746 H 0.71677 0.35467 0.83932 0.0
H747 H 0.71714 0.356 0.78356 0.0
H748 H 0.80295 0.41168 0.66611 0.0
H749 H 0.76937 0.38937 0.70684 0.0
C750 C 0.43136 0.78441 0.96977 0.0
C751 C 0.42078 0.7998 0.96662 0.0
C752 C 0.42228 0.76537 0.99475 0.0
C753 C 0.3758 0.74001 1.0695 0.0
H754 H 0.43448 0.74898 0.11855 0.0
C755 C 0.43156 0.79504 0.1946 0.0
C756 C 0.41134 0.79447 0.21205 0.0
C757 C 0.42747 0.77757 0.16859 0.0
C758 C 0.41788 0.74662 0.10546 0.0
H759 H 0.39032 0.8051 0.98354 0.0
H760 H 0.37569 0.77376 1.02795 0.0
H761 H 0.43556 0.75282 1.05597 0.0
H762 H 0.37124 0.77258 0.22009 0.0
H763 H 0.3641 0.7411 0.17629 0.0
H764 H 0.3595 0.73782 0.11899 0.0
C765 C 0.3907 0.77558 1.01146 0.0
C766 C 0.41827 0.74821 1.06903 0.0
C767 C 0.39951 0.79421 0.98632 0.0
C768 C 0.38721 0.77397 0.2064 0.0
C769 C 0.38312 0.75602 0.18081 0.0
C770 C 0.37593 0.73984 0.10599 0.0
C771 C 0.4027 0.76164 1.01739 0.0
C772 C 0.39816 0.74777 1.051 0.0
C773 C 0.40296 0.75863 0.15961 0.0
C774 C 0.39812 0.74613 0.12445 0.0
H775 H 0.4475 0.78796 0.95439 0.0
H776 H 0.43156 0.7546 0.99753 0.0
H777 H 0.35909 0.73728 1.05627 0.0
H778 H 0.45058 0.80991 0.1996 0.0
H779 H 0.44363 0.78061 0.15381 0.0
C780 C 0.56495 0.33055 0.33624 0.0
C781 C 0.58675 0.34639 0.31757 0.0
C782 C 0.56605 0.31764 0.36529 0.0
C783 C 0.57258 0.30323 0.4363 0.0
H784 H 0.63553 0.35472 0.47524 0.0
C785 C 0.57411 0.34882 0.56698 0.0
C786 C 0.58598 0.37493 0.56314 0.0
C787 C 0.57848 0.33427 0.54296 0.0
C788 C 0.61782 0.34004 0.46492 0.0
H789 H 0.62553 0.35656 0.30985 0.0
H790 H 0.62702 0.3326 0.35873 0.0
H791 H 0.63322 0.3441 0.41442 0.0
H792 H 0.61227 0.40622 0.53167 0.0
H793 H 0.61964 0.38129 0.49016 0.0
H794 H 0.55661 0.30198 0.48626 0.0
C795 C 0.60943 0.33169 0.35295 0.0
C796 C 0.61644 0.33355 0.4297 0.0
C797 C 0.6085 0.34522 0.32438 0.0
C798 C 0.60312 0.38624 0.53585 0.0
C799 C 0.60748 0.37181 0.51203 0.0
C800 C 0.57377 0.31039 0.47132 0.0
C801 C 0.58902 0.32002 0.37608 0.0
C802 C 0.59312 0.31702 0.41399 0.0
C803 C 0.59481 0.34558 0.5147 0.0
C804 C 0.5959 0.33064 0.48486 0.0
H805 H 0.54747 0.32992 0.33043 0.0
H806 H 0.54939 0.3083 0.38111 0.0
H807 H 0.55469 0.28893 0.42601 0.0
H808 H 0.56109 0.33959 0.58812 0.0
H809 H 0.56852 0.31415 0.54593 0.0
C810 C 0.23511 0.6481 0.83787 0.0
C811 C 0.24231 0.63776 0.86496 0.0
C812 C 0.2506 0.65916 0.80934 0.0
C813 C 0.29264 0.6485 0.75757 0.0
H814 H 0.27747 0.68946 0.69783 0.0
C815 C 0.24504 0.64763 0.61784 0.0
C816 C 0.22919 0.62155 0.61877 0.0
C817 C 0.26523 0.65954 0.64114 0.0
C818 C 0.28283 0.67841 0.71353 0.0
H819 H 0.27264 0.63294 0.88446 0.0
H820 H 0.29948 0.65156 0.83349 0.0
H821 H 0.28063 0.69645 0.76001 0.0
H822 H 0.22455 0.58728 0.64087 0.0
H823 H 0.25784 0.60763 0.68292 0.0
H824 H 0.29469 0.6303 0.71118 0.0
C825 C 0.28174 0.6511 0.83468 0.0
C826 C 0.28442 0.68238 0.74959 0.0
C827 C 0.26623 0.64019 0.86367 0.0
C828 C 0.23567 0.60751 0.6406 0.0
C829 C 0.2554 0.61936 0.66434 0.0
C830 C 0.29197 0.64512 0.72134 0.0
C831 C 0.27372 0.66001 0.80666 0.0
C832 C 0.28611 0.66537 0.77199 0.0
C833 C 0.26954 0.64567 0.66653 0.0
C834 C 0.28376 0.65782 0.69938 0.0
H835 H 0.21673 0.64624 0.83731 0.0
H836 H 0.24334 0.66517 0.78803 0.0
H837 H 0.29496 0.6356 0.77401 0.0
H838 H 0.24092 0.65906 0.60084 0.0
H839 H 0.27625 0.67974 0.64084 0.0
C840 C 0.41049 0.96033 0.97445 0.0
C841 C 0.42155 0.94606 0.96389 0.0
C842 C 0.41716 0.9744 1.0066 0.0
C843 C 0.46675 0.99935 1.082 0.0
H844 H 0.42091 0.016 0.12683 0.0
C845 C 0.49806 0.06557 0.20926 0.0
C846 C 0.48027 0.06431 0.23386 0.0
C847 C 0.49096 0.05166 0.17711 0.0
C848 C 0.4342 0.0116 0.11529 0.0
H849 H 0.44895 0.93637 0.98139 0.0
H850 H 0.46014 0.96001 1.03606 0.0
H851 H 0.4088 0.99174 1.07259 0.0
H852 H 0.44022 0.04621 0.24156 0.0
H853 H 0.42797 0.02238 0.18662 0.0
H854 H 0.49201 0.01885 0.12487 0.0
C855 C 0.44636 0.96083 1.01952 0.0
C856 C 0.42719 0.99759 1.08316 0.0
C857 C 0.43964 0.94677 0.98758 0.0
C858 C 0.45488 0.04828 0.22403 0.0
C859 C 0.44775 0.03442 0.19178 0.0
C860 C 0.47379 0.01345 0.114 0.0
C861 C 0.43546 0.97527 1.03026 0.0
C862 C 0.44317 0.99086 1.06533 0.0
C863 C 0.46553 0.0355 0.16714 0.0
C864 C 0.45778 0.02009 0.13192 0.0
H865 H 0.39665 0.96087 0.95763 0.0
H866 H 0.40808 0.98505 1.01245 0.0
H867 H 0.48028 0.99541 1.07015 0.0
H868 H 0.51782 0.07739 0.21491 0.0
H869 H 0.50578 0.05394 0.1598 0.0
C870 C 0.51669 0.43438 0.33655 0.0
C871 C 0.50531 0.43324 0.3037 0.0
C872 C 0.50828 0.4399 0.36883 0.0
C873 C 0.46833 0.46731 0.40618 0.0
H874 H 0.47142 0.43818 0.49397 0.0
C875 C 0.44124 0.49716 0.54228 0.0
C876 C 0.42985 0.4797 0.56986 0.0
C877 C 0.45043 0.49165 0.51098 0.0
C878 C 0.47017 0.44662 0.46992 0.0
H879 H 0.47555 0.43783 0.28162 0.0
H880 H 0.46175 0.44771 0.336 0.0
H881 H 0.48721 0.4291 0.44025 0.0
H882 H 0.42034 0.44209 0.58385 0.0
H883 H 0.43649 0.43276 0.53055 0.0
H884 H 0.4516 0.48506 0.43575 0.0
C885 C 0.47724 0.44426 0.33737 0.0
C886 C 0.47962 0.44147 0.43847 0.0
C887 C 0.48528 0.43832 0.30544 0.0
C888 C 0.42857 0.45636 0.56399 0.0
C889 C 0.4382 0.45099 0.5329 0.0
C890 C 0.45932 0.47281 0.43766 0.0
C891 C 0.48828 0.44517 0.37038 0.0
C892 C 0.47885 0.45143 0.40531 0.0
C893 C 0.4494 0.46841 0.50512 0.0
C894 C 0.45969 0.46254 0.47072 0.0
H895 H 0.53204 0.43068 0.33754 0.0
H896 H 0.51786 0.44033 0.39276 0.0
H897 H 0.46727 0.476 0.38226 0.0
H898 H 0.44312 0.51546 0.54479 0.0
H899 H 0.45891 0.50612 0.49144 0.0
C900 C 0.05983 0.49938 0.65299 0.0
C901 C 0.06073 0.48063 0.63238 0.0
C902 C 0.04487 0.49389 0.68396 0.0
C903 C 0.0073 0.44207 0.75257 0.0
H904 H 0.98261 0.48553 0.78252 0.0
C905 C 0.9561 0.42706 0.89109 0.0
C906 C 0.93803 0.43442 0.89744 0.0
C907 C 0.97007 0.43246 0.85928 0.0
C908 C 0.98911 0.4729 0.775 0.0
H909 H 0.04513 0.44053 0.63086 0.0
H910 H 0.01987 0.43107 0.68414 0.0
H911 H 0.00754 0.49486 0.72916 0.0
H912 H 0.92172 0.45419 0.87228 0.0
H913 H 0.9459 0.46378 0.81767 0.0
H914 H 0.98895 0.42015 0.79831 0.0
C915 C 0.03091 0.45044 0.67646 0.0
C916 C 1.00394 0.47847 0.74379 0.0
C917 C 0.04564 0.45592 0.64516 0.0
C918 C 0.93504 0.44781 0.8695 0.0
C919 C 0.94934 0.45353 0.83764 0.0
C920 C 0.99279 0.43672 0.78397 0.0
C921 C 0.02986 0.4692 0.69702 0.0
C922 C 0.01358 0.46322 0.7313 0.0
C923 C 0.96736 0.44596 0.83127 0.0
C924 C 0.9831 0.4519 0.79647 0.0
H925 H 0.0707 0.51871 0.64499 0.0
H926 H 0.04546 0.50939 0.69801 0.0
H927 H 0.01395 0.42951 0.74533 0.0
H928 H 0.95964 0.41688 0.91108 0.0
H929 H 0.98355 0.42626 0.85713 0.0
C930 C 0.51308 0.94481 0.2082 0.0
C931 C 0.53081 0.94573 0.23273 0.0
C932 C 0.52026 0.95903 0.1766 0.0
C933 C 0.57692 0.99875 0.11588 0.0
H934 H 0.53196 0.01719 1.07248 0.0
C935 C 0.60075 0.05011 0.9767 0.0
C936 C 0.59089 0.06558 0.96701 0.0
C937 C 0.59379 0.03597 1.00842 0.0
C938 C 0.54515 0.01257 1.08389 0.0
H939 H 0.57083 0.96349 0.24099 0.0
H940 H 0.58324 0.98779 0.18692 0.0
H941 H 0.51992 0.99321 0.12642 0.0
H942 H 0.56527 0.07733 0.98549 0.0
H943 H 0.55346 0.05335 1.03968 0.0
H944 H 0.60227 0.01838 1.07357 0.0
C945 C 0.56344 0.97582 0.19173 0.0
C946 C 0.53794 0.99821 0.11537 0.0
C947 C 0.55623 0.96169 0.22346 0.0
C948 C 0.57364 0.06599 0.99111 0.0
C949 C 0.56658 0.05177 1.0227 0.0
C950 C 0.58406 0.01298 1.08427 0.0
C951 C 0.54572 0.9751 0.16719 0.0
C952 C 0.55358 0.99079 0.13259 0.0
C953 C 0.57635 0.03618 1.03253 0.0
C954 C 0.56847 0.02047 1.06712 0.0
H955 H 0.49329 0.93306 0.21349 0.0
H956 H 0.50551 0.95705 0.15927 0.0
H957 H 0.5899 0.99373 0.12695 0.0
H958 H 0.61388 0.0487 0.9595 0.0
H959 H 0.60194 0.02438 1.01356 0.0
C960 C 0.59426 0.55118 0.55552 0.0
C961 C 0.58387 0.52648 0.56853 0.0
C962 C 0.58502 0.55692 0.52451 0.0
C963 C 0.5291 0.53012 0.45846 0.0
H964 H 0.57365 0.58791 0.40366 0.0
C965 C 0.49196 0.5629 0.33404 0.0
C966 C 0.50842 0.57586 0.306 0.0
C967 C 0.50034 0.55671 0.36566 0.0
C968 C 0.56059 0.5715 0.41808 0.0
H969 H 0.55447 0.48866 0.55676 0.0
H970 H 0.53857 0.49841 0.50398 0.0
H971 H 0.58913 0.57778 0.45608 0.0
H972 H 0.54746 0.59211 0.29174 0.0
H973 H 0.56166 0.58188 0.34524 0.0
H974 H 0.50058 0.52396 0.42025 0.0
C975 C 0.55407 0.51371 0.5177 0.0
C976 C 0.56964 0.56571 0.44916 0.0
C977 C 0.5635 0.50796 0.54848 0.0
C978 C 0.53371 0.58231 0.31189 0.0
C979 C 0.54209 0.57642 0.34342 0.0
C980 C 0.51996 0.53611 0.42753 0.0
C981 C 0.5645 0.53842 0.50447 0.0
C982 C 0.55431 0.54476 0.4705 0.0
C983 C 0.52579 0.56335 0.37155 0.0
C984 C 0.53542 0.55694 0.40602 0.0
H985 H 0.60973 0.56638 0.56947 0.0
H986 H 0.59393 0.57628 0.51667 0.0
H987 H 0.516 0.51393 0.47324 0.0
H988 H 0.47236 0.55724 0.33152 0.0
H989 H 0.48664 0.54685 0.38581 0.0
C990 C 0.0523 0.57174 0.89791 0.0
C991 C 0.07724 0.57624 0.89915 0.0
C992 C 0.03787 0.56546 0.86634 0.0
C993 C 0.04185 0.5668 0.76562 0.0
H994 H 0.96997 0.52303 0.7696 0.0
C995 C 0.97454 0.55154 0.64218 0.0
C996 C 0.95282 0.52788 0.63602 0.0
C997 C 0.98973 0.557 0.67305 0.0
C998 C 0.99 0.53532 0.76742 0.0
H999 H 0.10576 0.57739 0.86515 0.0
H1000 H 0.08114 0.5672 0.81048 0.0
H1001 H 0.99535 0.53265 0.82279 0.0
H1002 H 0.93102 0.49159 0.6601 0.0
H1003 H 0.95657 0.50114 0.71341 0.0
H1004 H 0.03637 0.56962 0.71021 0.0
C1005 C 0.07251 0.56837 0.83446 0.0
C1006 C 1.00486 0.54112 0.79864 0.0
C1007 C 0.08687 0.5742 0.86636 0.0
C1008 C 0.9472 0.51013 0.66299 0.0
C1009 C 0.9621 0.51574 0.69417 0.0
C1010 C 0.0269 0.56136 0.73448 0.0
C1011 C 0.04741 0.56365 0.8334 0.0
C1012 C 0.03133 0.55706 0.79892 0.0
C1013 C 0.984 0.53933 0.70023 0.0
C1014 C 1.00044 0.54538 0.73425 0.0
H1015 H 0.04358 0.57292 0.92181 0.0
H1016 H 0.01906 0.56245 0.86789 0.0
H1017 H 0.06186 0.5792 0.76354 0.0
H1018 H 0.98015 0.566 0.6227 0.0
H1019 H 1.006 0.57548 0.67573 0.0
C1020 C 0.48378 0.01965 0.38156 0.0
C1021 C 0.4836 0.04211 0.38289 0.0
C1022 C 0.47721 1.00451 0.41112 0.0
C1023 C 0.48041 0.98525 0.48109 0.0
H1024 H 0.54825 0.04083 0.47594 0.0
C1025 C 0.53687 0.9629 0.41035 0.0
C1026 C 0.5257 0.9672 0.38118 0.0
C1027 C 0.54104 0.97682 0.44107 0.0
C1028 C 0.52961 0.02507 0.47993 0.0
H1029 H 0.46948 0.06233 0.41269 0.0
H1030 H 0.4644 0.03973 0.4666 0.0
H1031 H 0.51375 0.04867 0.47902 0.0
H1032 H 0.51729 0.99369 0.35738 0.0
H1033 H 0.52862 0.02059 0.40888 0.0
H1034 H 0.4962 0.9616 0.47843 0.0
C1035 C 0.46837 0.03304 0.4426 0.0
C1036 C 0.50954 0.0295 0.48154 0.0
C1037 C 0.47256 0.04677 0.41194 0.0
C1038 C 0.525 0.98939 0.37999 0.0
C1039 C 0.5315 1.00472 0.40964 0.0
C1040 C 0.5005 0.98081 0.48116 0.0
C1041 C 0.47324 0.01326 0.44323 0.0
C1042 C 0.48518 0.00955 0.47448 0.0
C1043 C 0.53596 0.99645 0.44171 0.0
C1044 C 0.52463 1.00066 0.47321 0.0
H1045 H 0.49127 0.01502 0.35899 0.0
H1046 H 0.47987 0.9885 0.41029 0.0
H1047 H 0.46164 0.96944 0.47792 0.0
H1048 H 0.53994 0.94739 0.41108 0.0
H1049 H 0.54525 0.9704 0.46506 0.0
C1050 C 0.47738 0.48569 0.71193 0.0
C1051 C 0.45332 0.48225 0.71504 0.0
C1052 C 0.48884 0.482 0.74112 0.0
C1053 C 0.49539 0.51211 0.81547 0.0
H1054 H 0.5538 0.50501 0.81283 0.0
C1055 C 0.58721 0.54324 0.74544 0.0
C1056 C 0.56991 0.5306 0.7183 0.0
C1057 C 0.57935 0.54944 0.77622 0.0
C1058 C 0.53767 0.50739 0.81549 0.0
H1059 H 0.42056 0.46693 0.74866 0.0
H1060 H 0.44221 0.46532 0.80054 0.0
H1061 H 0.51296 0.46854 0.80438 0.0
H1062 H 0.5345 0.52281 0.69646 0.0
H1063 H 0.52166 0.53619 0.74827 0.0
H1064 H 0.5206 0.55155 0.8177 0.0
C1065 C 0.45183 0.46967 0.77568 0.0
C1066 C 0.51408 0.48618 0.81061 0.0
C1067 C 0.43975 0.47143 0.74596 0.0
C1068 C 0.54759 0.53111 0.718 0.0
C1069 C 0.54046 0.53908 0.74779 0.0
C1070 C 0.51918 0.53338 0.81848 0.0
C1071 C 0.4772 0.47709 0.77415 0.0
C1072 C 0.49338 0.48929 0.80497 0.0
C1073 C 0.55452 0.54403 0.77897 0.0
C1074 C 0.54016 0.53113 0.81072 0.0
H1075 H 0.4879 0.49294 0.68803 0.0
H1076 H 0.5081 0.48649 0.73896 0.0
H1077 H 0.47945 0.51487 0.81324 0.0
H1078 H 0.60577 0.54601 0.74484 0.0
H1079 H 0.59123 0.55461 0.79923 0.0
C1080 C 0.95997 0.46305 1.05936 0.0
C1081 C 0.94255 0.47056 1.05252 0.0
C1082 C 0.97158 0.46773 1.09202 0.0
C1083 C 0.99289 0.51612 0.15733 0.0
H1084 H 0.03516 0.4869 0.15464 0.0
C1085 C 0.05699 0.54899 1.05927 0.0
C1086 C 0.07383 0.5408 1.05192 0.0
C1087 C 0.04544 0.5443 1.09184 0.0
C1088 C 0.02396 0.49577 0.15702 0.0
H1089 H 0.92328 0.4887 1.07453 0.0
H1090 H 0.94335 0.49672 0.13142 0.0
H1091 H 0.99041 0.46019 0.15705 0.0
H1092 H 0.0922 0.52154 1.07292 0.0
H1093 H 0.07239 0.51364 0.12968 0.0
H1094 H 0.02642 0.55171 0.15621 0.0
C1095 C 0.94825 0.48729 0.11175 0.0
C1096 C 0.998 0.48023 0.15837 0.0
C1097 C 0.937 0.48298 1.07887 0.0
C1098 C 0.07886 0.5277 1.07763 0.0
C1099 C 0.06772 0.52343 0.11045 0.0
C1100 C 0.01887 0.5317 0.15776 0.0
C1101 C 0.96608 0.48016 0.11874 0.0
C1102 C 0.98296 0.49052 0.14977 0.0
C1103 C 0.05046 0.53124 0.11798 0.0
C1104 C 0.03375 0.52122 0.14899 0.0
H1105 H 0.96479 0.4538 1.03938 0.0
H1106 H 0.98579 0.46258 1.09544 0.0
H1107 H 0.98159 0.52489 0.15507 0.0
H1108 H 0.05291 0.55919 1.03998 0.0
H1109 H 0.03178 0.55014 1.09566 0.0
C1110 C 0.04076 0.47117 0.45693 0.0
C1111 C 0.03908 0.48281 0.48785 0.0
C1112 C 0.02592 0.46854 0.42794 0.0
C1113 C 0.97824 0.48269 0.39502 0.0
H1114 H 0.03633 0.54804 0.3812 0.0
C1115 C 0.99348 0.53242 0.48425 0.0
C1116 C 0.97043 0.53145 0.48522 0.0
C1117 C 0.00716 0.53888 0.45322 0.0
C1118 C 0.01968 0.52972 0.3823 0.0
H1119 H 0.01638 0.49464 0.51571 0.0
H1120 H 0.98814 0.48694 0.46617 0.0
H1121 H 0.0416 0.51213 0.38757 0.0
H1122 H 0.94833 0.54478 0.45865 0.0
H1123 H 0.96881 0.55051 0.40281 0.0
H1124 H 0.95675 0.50077 0.39266 0.0
C1125 C 1.00268 0.48221 0.46341 0.0
C1126 C 0.02268 0.50892 0.38641 0.0
C1127 C 0.01877 0.48663 0.49179 0.0
C1128 C 0.96426 0.54231 0.45755 0.0
C1129 C 0.97684 0.54695 0.42572 0.0
C1130 C 0.9753 0.50334 0.389 0.0
C1131 C 0.00805 0.47598 0.43024 0.0
C1132 C 1.00248 0.48652 0.3992 0.0
C1133 C 0.99641 0.54187 0.4223 0.0
C1134 C 0.99662 0.52745 0.39134 0.0
H1135 H 0.05527 0.46649 0.45362 0.0
H1136 H 0.03021 0.46331 0.40294 0.0
H1137 H 0.96212 0.46527 0.40306 0.0
H1138 H 0.99941 0.52534 0.50588 0.0
H1139 H 0.02319 0.53622 0.45207 0.0
C1140 C 0.43439 0.97029 0.78981 0.0
C1141 C 0.44852 0.97327 0.82035 0.0
C1142 C 0.44571 0.9851 0.76061 0.0
C1143 C 0.5076 0.03326 0.72718 0.0
H1144 H 0.51494 0.97513 0.71616 0.0
C1145 C 0.54248 0.02035 0.81875 0.0
C1146 C 0.56563 0.04241 0.81965 0.0
C1147 C 0.5345 0.00615 0.78803 0.0
C1148 C 0.5133 0.99176 0.71653 0.0
H1149 H 0.48284 0.99822 0.84779 0.0
H1150 H 0.5017 0.02605 0.798 0.0
H1151 H 0.47358 0.96988 0.72054 0.0
H1152 H 0.60136 0.06227 0.79358 0.0
H1153 H 0.58533 0.04162 0.7373 0.0
H1154 H 0.54736 0.0547 0.7264 0.0
C1155 C 0.48263 0.01076 0.7955 0.0
C1156 C 0.48938 0.98878 0.71947 0.0
C1157 C 0.47195 0.99485 0.82409 0.0
C1158 C 0.58244 0.04711 0.79215 0.0
C1159 C 0.57365 0.03445 0.76027 0.0
C1160 C 0.53137 0.03616 0.72245 0.0
C1161 C 0.47082 1.00402 0.7624 0.0
C1162 C 0.48703 0.0091 0.73146 0.0
C1163 C 0.54849 0.01568 0.75708 0.0
C1164 C 0.53409 0.01495 0.7256 0.0
H1165 H 0.41553 0.95474 0.78687 0.0
H1166 H 0.43591 0.9798 0.73573 0.0
H1167 H 0.50624 0.04946 0.7345 0.0
H1168 H 0.52955 0.01557 0.84031 0.0
H1169 H 0.51537 0.99077 0.787 0.0
C1170 C 0.50178 0.54791 0.14626 0.0
C1171 C 0.47672 0.54043 0.15212 0.0
C1172 C 0.5093 0.54383 0.11377 0.0
C1173 C 0.48372 0.49719 1.04617 0.0
H1174 H 0.55546 0.52742 1.05265 0.0
C1175 C 0.51419 0.46357 0.14455 0.0
C1176 C 0.53895 0.4701 0.15132 0.0
C1177 C 0.50773 0.4695 0.11257 0.0
C1178 C 0.53539 0.51835 1.04899 0.0
H1179 H 0.43954 0.52244 0.12882 0.0
H1180 H 0.45257 0.51526 1.07218 0.0
H1181 H 0.53696 0.55358 1.04961 0.0
H1182 H 0.5766 0.48802 0.13009 0.0
H1183 H 0.56539 0.49853 1.07438 0.0
H1184 H 0.48206 0.46189 1.04688 0.0
C1185 C 0.46661 0.52442 1.09243 0.0
C1186 C 0.52469 0.53353 1.04735 0.0
C1187 C 0.45909 0.52822 0.12515 0.0
C1188 C 0.5573 0.48303 0.12574 0.0
C1189 C 0.55084 0.48878 1.09357 0.0
C1190 C 0.49442 0.48197 1.04591 0.0
C1191 C 0.49181 0.53194 1.08624 0.0
C1192 C 0.49905 0.52266 1.05489 0.0
C1193 C 0.52597 0.48219 1.08648 0.0
C1194 C 0.51971 0.49269 1.05571 0.0
H1195 H 0.51556 0.55687 0.16681 0.0
H1196 H 0.52878 0.54912 0.11106 0.0
H1197 H 0.46353 0.48808 1.04759 0.0
H1198 H 0.49979 0.45374 0.16387 0.0
H1199 H 0.48846 0.46482 0.10905 0.0
C1200 C 0.31626 0.96213 0.70715 0.0
C1201 C 0.3259 0.9731 0.73992 0.0
C1202 C 0.31479 0.97636 0.68008 0.0
C1203 C 0.31014 0.01003 0.62693 0.0
H1204 H 0.37705 0.06665 0.61515 0.0
C1205 C 0.3822 0.08225 0.51536 0.0
C1206 C 0.3765 0.06417 0.48916 0.0
C1207 C 0.36956 0.07553 0.54724 0.0
C1208 C 0.35799 0.05145 0.61817 0.0
H1209 H 0.33987 0.00699 0.77096 0.0
H1210 H 0.33739 0.03194 0.72349 0.0
H1211 H 0.36489 0.04606 0.67118 0.0
H1212 H 0.3525 0.02518 0.47505 0.0
H1213 H 0.33101 0.01327 0.5307 0.0
H1214 H 0.3037 0.01476 0.57325 0.0
C1215 C 0.331 0.01235 0.71878 0.0
C1216 C 0.35101 0.03959 0.65044 0.0
C1217 C 0.33232 0.99806 0.74593 0.0
C1218 C 0.35712 0.03956 0.49469 0.0
C1219 C 0.34467 0.03278 0.52659 0.0
C1220 C 0.31704 0.02205 0.59465 0.0
C1221 C 0.32309 1.00187 0.68527 0.0
C1222 C 0.32748 0.01802 0.65461 0.0
C1223 C 0.35121 0.05052 0.55363 0.0
C1224 C 0.34151 0.04208 0.58944 0.0
H1225 H 0.31087 0.94283 0.70201 0.0
H1226 H 0.30883 0.96781 0.65446 0.0
H1227 H 0.29174 0.99365 0.62965 0.0
H1228 H 0.39681 0.10146 0.51147 0.0
H1229 H 0.37476 0.08973 0.56731 0.0
C1230 C 0.36806 0.37248 1.05763 0.0
C1231 C 0.38858 0.36863 1.05498 0.0
C1232 C 0.35075 0.36542 1.03032 0.0
C1233 C 0.33064 0.367 0.95862 0.0
H1234 H 0.31206 0.30851 0.9008 0.0
C1235 C 0.29413 0.3643 0.82288 0.0
C1236 C 0.30925 0.36135 0.79813 0.0
C1237 C 0.29293 0.35607 0.85714 0.0
C1238 C 0.31686 0.32479 0.91685 0.0
H1239 H 0.40667 0.3538 1.02207 0.0
H1240 H 0.37686 0.34216 0.97394 0.0
H1241 H 0.33281 0.31303 0.95704 0.0
H1242 H 0.33262 0.34498 0.78879 0.0
H1243 H 0.33077 0.33097 0.84811 0.0
H1244 H 0.31635 0.37969 0.91783 0.0
C1245 C 0.37393 0.35026 0.99736 0.0
C1246 C 0.32881 0.32742 0.94895 0.0
C1247 C 0.39127 0.35734 1.02464 0.0
C1248 C 0.32071 0.34747 0.80716 0.0
C1249 C 0.31961 0.33936 0.84136 0.0
C1250 C 0.31882 0.36445 0.92655 0.0
C1251 C 0.35357 0.35435 0.99983 0.0
C1252 C 0.33672 0.34906 0.96943 0.0
C1253 C 0.30696 0.34493 0.86721 0.0
C1254 C 0.31279 0.34385 0.90459 0.0
H1255 H 0.36556 0.38124 1.08065 0.0
H1256 H 0.33522 0.36877 1.03297 0.0
H1257 H 0.33664 0.38397 0.97369 0.0
H1258 H 0.28468 0.37451 0.81639 0.0
H1259 H 0.28252 0.36008 0.87631 0.0
C1260 C 0.94662 0.33389 0.17419 0.0
C1261 C 0.96556 0.35144 0.15246 0.0
C1262 C 0.95267 0.32425 0.20312 0.0
C1263 C 1.00488 0.32053 0.24606 0.0
H1264 H 0.97515 0.32798 0.33102 0.0
C1265 C 0.01897 0.33483 0.40572 0.0
C1266 C 0.0442 0.35396 0.40477 0.0
C1267 C 0.0066 0.32243 0.37503 0.0
C1268 C 0.9832 0.32494 0.3077 0.0
H1269 H 1.00559 0.37221 0.14343 0.0
H1270 H 0.01622 0.35579 0.19419 0.0
H1271 H 0.95783 0.32959 0.27508 0.0
H1272 H 0.07713 0.37248 0.37208 0.0
H1273 H 0.05545 0.35169 0.31843 0.0
H1274 H 0.03124 0.3174 0.27898 0.0
C1275 C 0.99664 0.34901 0.18852 0.0
C1276 C 0.97325 0.32596 0.27546 0.0
C1277 C 0.99059 0.35858 0.15958 0.0
C1278 C 0.05752 0.35828 0.37341 0.0
C1279 C 0.0451 0.34606 0.34269 0.0
C1280 C 0.01484 0.31946 0.27841 0.0
C1281 C 0.97779 0.33203 0.21092 0.0
C1282 C 0.98471 0.32498 0.24431 0.0
C1283 C 0.01916 0.32913 0.34284 0.0
C1284 C 1.00484 0.32289 0.30953 0.0
H1285 H 0.92711 0.32765 0.16888 0.0
H1286 H 0.93773 0.31103 0.21972 0.0
H1287 H 0.01375 0.31917 0.22241 0.0
H1288 H 0.00814 0.33092 0.42946 0.0
H1289 H 0.98673 0.30903 0.3761 0.0
C1290 C 0.701 0.04026 0.72512 0.0
C1291 C 0.69454 0.0588 0.71976 0.0
C1292 C 0.70494 0.02841 0.69672 0.0
C1293 C 0.70751 0.02835 0.59865 0.0
H1294 H 0.66936 0.95652 0.61074 0.0
C1295 C 0.6644 0.96563 0.47959 0.0
C1296 C 0.63877 0.94827 0.48388 0.0
C1297 C 0.6799 0.97664 0.50866 0.0
C1298 C 0.68015 0.97654 0.60686 0.0
H1299 H 0.68957 0.08106 0.68039 0.0
H1300 H 0.69484 0.05953 0.63109 0.0
H1301 H 0.68195 0.98365 0.66163 0.0
H1302 H 0.60999 0.92701 0.52207 0.0
H1303 H 0.63639 0.94714 0.57247 0.0
H1304 H 0.70328 0.02132 0.5438 0.0
C1305 C 0.6974 0.05432 0.65709 0.0
C1306 C 0.68777 0.99219 0.63618 0.0
C1307 C 0.69386 0.06641 0.68545 0.0
C1308 C 0.62948 0.9408 0.51782 0.0
C1309 C 0.64485 0.95207 0.54684 0.0
C1310 C 0.69943 0.01271 0.56931 0.0
C1311 C 0.70212 0.03455 0.66232 0.0
C1312 C 0.70034 0.01833 0.63234 0.0
C1313 C 0.67004 0.97084 0.54264 0.0
C1314 C 0.68443 0.98665 0.57307 0.0
H1315 H 0.70167 0.03386 0.75118 0.0
H1316 H 0.70905 0.01364 0.70176 0.0
H1317 H 0.71791 0.04838 0.59475 0.0
H1318 H 0.67225 0.97187 0.45384 0.0
H1319 H 0.69932 0.99062 0.50443 0.0
C1320 C 0.62233 0.67588 1.03284 0.0
C1321 C 0.6221 0.65759 1.05471 0.0
C1322 C 0.63851 0.68484 1.00433 0.0
C1323 C 0.69254 0.68396 0.96244 0.0
H1324 H 0.65604 0.67784 0.87699 0.0
C1325 C 0.69068 0.66523 0.80383 0.0
C1326 C 0.69398 0.6444 0.80625 0.0
C1327 C 0.69173 0.67867 0.83381 0.0
C1328 C 0.66698 0.68047 0.90044 0.0
H1329 H 0.63902 0.63484 1.06456 0.0
H1330 H 0.66682 0.65002 1.01451 0.0
H1331 H 0.63825 0.67927 0.93257 0.0
H1332 H 0.70393 0.62319 0.841 0.0
H1333 H 0.70499 0.64605 0.89342 0.0
H1334 H 0.72047 0.68334 0.93005 0.0
C1335 C 0.65501 0.65794 1.01974 0.0
C1336 C 0.65669 0.68124 0.93246 0.0
C1337 C 0.63892 0.64906 1.04827 0.0
C1338 C 0.70079 0.63883 0.83854 0.0
C1339 C 0.70177 0.65222 0.8685 0.0
C1340 C 0.70285 0.68317 0.93033 0.0
C1341 C 0.65468 0.67561 0.99709 0.0
C1342 C 0.66872 0.68163 0.96383 0.0
C1343 C 0.69598 0.67144 0.8667 0.0
C1344 C 0.6895 0.68005 0.89915 0.0
H1345 H 0.6099 0.68314 1.03767 0.0
H1346 H 0.638 0.69861 0.98751 0.0
H1347 H 0.70251 0.68487 0.98623 0.0
H1348 H 0.68543 0.67001 0.77928 0.0
H1349 H 0.68753 0.69363 0.83159 0.0
C1350 C 0.03352 0.65128 0.16998 0.0
C1351 C 0.021 0.63864 0.13926 0.0
C1352 C 0.02108 0.657 0.19551 0.0
C1353 C 0.99313 0.67514 0.24069 0.0
H1354 H 0.93159 0.61689 0.27032 0.0
C1355 C 0.96616 0.65129 0.38175 0.0
C1356 C 0.94121 0.6345 0.39072 0.0
C1357 C 0.97227 0.65993 0.3476 0.0
C1358 C 0.94827 0.63371 0.262 0.0
H1359 H 0.9858 0.62244 0.11082 0.0
H1360 H 0.96399 0.63239 0.15564 0.0
H1361 H 0.94984 0.61598 0.21486 0.0
H1362 H 0.90276 0.6161 0.37246 0.0
H1363 H 0.91339 0.63148 0.31264 0.0
H1364 H 0.99218 0.69235 0.2889 0.0
C1365 C 0.98344 0.6379 0.15986 0.0
C1366 C 0.95882 0.63311 0.23013 0.0
C1367 C 0.99592 0.63224 0.13425 0.0
C1368 C 0.9222 0.62865 0.36595 0.0
C1369 C 0.9283 0.63745 0.33178 0.0
C1370 C 0.98248 0.67581 0.27255 0.0
C1371 C 0.99584 0.65013 0.19088 0.0
C1372 C 0.98198 0.65332 0.22003 0.0
C1373 C 0.9535 0.65199 0.32178 0.0
C1374 C 0.96064 0.65458 0.28439 0.0
H1375 H 0.05297 0.65679 0.17426 0.0
H1376 H 0.03101 0.66606 0.21942 0.0
H1377 H 0.01076 0.69118 0.2331 0.0
H1378 H 0.98122 0.65604 0.40025 0.0
H1379 H 0.9919 0.67091 0.3409 0.0
C1380 C 0.50819 0.10144 0.47904 0.0
C1381 C 0.52563 0.1096 0.45115 0.0
C1382 C 0.51535 0.10085 0.51474 0.0
C1383 C 0.57133 0.1083 0.57289 0.0
H1384 H 0.52956 0.10603 0.64938 0.0
C1385 C 0.59956 0.10225 0.72247 0.0
C1386 C 0.58943 0.10926 0.7507 0.0
C1387 C 0.59187 0.10173 0.68674 0.0
C1388 C 0.54199 0.10694 0.62888 0.0
H1389 H 0.56501 0.12351 0.44168 0.0
H1390 H 0.57726 0.12313 0.50188 0.0
H1391 H 0.51679 0.10675 0.58952 0.0
H1392 H 0.56245 0.12112 0.76074 0.0
H1393 H 0.54984 0.12078 0.70055 0.0
H1394 H 0.59678 0.109 0.61227 0.0
C1395 C 0.55772 0.11663 0.49684 0.0
C1396 C 0.53425 0.10703 0.59349 0.0
C1397 C 0.55056 0.11711 0.46139 0.0
C1398 C 0.57118 0.11564 0.74077 0.0
C1399 C 0.56357 0.11518 0.70531 0.0
C1400 C 0.57909 0.10827 0.60829 0.0
C1401 C 0.54045 0.10839 0.52501 0.0
C1402 C 0.54866 0.10784 0.56402 0.0
C1403 C 0.57349 0.10815 0.67679 0.0
C1404 C 0.56481 0.10771 0.63776 0.0
H1405 H 0.48871 0.09504 0.47329 0.0
H1406 H 0.50077 0.09396 0.53423 0.0
H1407 H 0.58342 0.10849 0.55237 0.0
H1408 H 0.61333 0.09677 0.72794 0.0
H1409 H 0.60027 0.0958 0.66693 0.0
C1410 C 0.40135 0.49821 0.81503 0.0
C1411 C 0.41315 0.51548 0.78743 0.0
C1412 C 0.40693 0.50525 0.85131 0.0
C1413 C 0.45487 0.55863 0.91289 0.0
H1414 H 0.40678 0.5224 0.98545 0.0
C1415 C 0.48232 0.58374 1.06439 0.0
C1416 C 0.46396 0.57858 1.09038 0.0
C1417 C 0.47604 0.57598 1.02862 0.0
C1418 C 0.4207 0.53314 0.96596 0.0
H1419 H 0.44077 0.55441 0.77915 0.0
H1420 H 0.45016 0.5664 0.84046 0.0
H1421 H 0.39636 0.50961 0.92427 0.0
H1422 H 0.42375 0.56013 1.0964 0.0
H1423 H 0.4129 0.54708 1.03515 0.0
H1424 H 0.47912 0.58229 0.95431 0.0
C1425 C 0.43656 0.54711 0.83461 0.0
C1426 C 0.41466 0.52544 0.93002 0.0
C1427 C 0.43089 0.54013 0.79858 0.0
C1428 C 0.43884 0.56504 1.07809 0.0
C1429 C 0.43252 0.55717 1.04227 0.0
C1430 C 0.46095 0.56621 0.94876 0.0
C1431 C 0.42488 0.52999 0.86246 0.0
C1432 C 0.43148 0.53798 0.90205 0.0
C1433 C 0.45089 0.56236 1.01612 0.0
C1434 C 0.4441 0.55383 0.97673 0.0
H1435 H 0.38777 0.47898 0.80866 0.0
H1436 H 0.3973 0.4909 0.8707 0.0
H1437 H 0.46902 0.56913 0.89355 0.0
H1438 H 0.50191 0.59359 1.07177 0.0
H1439 H 0.49128 0.58038 1.01085 0.0
C1440 C 0.90456 0.42724 0.13985 0.0
C1441 C 0.89118 0.43218 0.11384 0.0
C1442 C 0.9058 0.43462 0.17578 0.0
C1443 C 0.89111 0.47527 0.23971 0.0
H1444 H 0.90638 0.44078 0.31091 0.0
C1445 C 0.90435 0.50778 0.39223 0.0
C1446 C 0.90033 0.49044 0.41921 0.0
C1447 C 0.9034 0.50155 0.35561 0.0
C1448 C 0.90184 0.45083 0.29197 0.0
H1449 H 0.86883 0.4499 0.1081 0.0
H1450 H 0.87055 0.46224 0.16957 0.0
H1451 H 0.90382 0.42848 0.24997 0.0
H1452 H 0.89231 0.45234 0.42577 0.0
H1453 H 0.89047 0.44176 0.36424 0.0
H1454 H 0.88885 0.49744 0.28209 0.0
C1455 C 0.88045 0.45262 0.16237 0.0
C1456 C 0.90066 0.44378 0.2559 0.0
C1457 C 0.87918 0.44517 0.12636 0.0
C1458 C 0.89547 0.46665 0.40698 0.0
C1459 C 0.89464 0.4605 0.3707 0.0
C1460 C 0.89241 0.48243 0.27588 0.0
C1461 C 0.89379 0.44761 0.18856 0.0
C1462 C 0.89518 0.45563 0.22825 0.0
C1463 C 0.8986 0.47763 0.34345 0.0
C1464 C 0.89769 0.47038 0.30351 0.0
H1465 H 0.91464 0.41783 0.13238 0.0
H1466 H 0.91682 0.43039 0.19345 0.0
H1467 H 0.88708 0.4856 0.22058 0.0
H1468 H 0.9085 0.52644 0.39935 0.0
H1469 H 0.90691 0.51591 0.33677 0.0
C1470 C 0.502 0.90786 0.47603 0.0
C1471 C 0.48461 0.89973 0.44787 0.0
C1472 C 0.49477 0.90845 0.51161 0.0
C1473 C 0.43923 0.9022 0.56849 0.0
H1474 H 0.47919 0.9015 0.64581 0.0
C1475 C 0.41128 0.90941 0.71718 0.0
C1476 C 0.4199 0.90084 0.74535 0.0
C1477 C 0.41915 0.90972 0.68174 0.0
C1478 C 0.4673 0.90146 0.62501 0.0
H1479 H 0.44527 0.8859 0.43763 0.0
H1480 H 0.4329 0.88635 0.49771 0.0
H1481 H 0.49222 0.90077 0.58605 0.0
H1482 H 0.44426 0.88587 0.75583 0.0
H1483 H 0.45721 0.88587 0.6958 0.0
H1484 H 0.41406 0.9024 0.60737 0.0
C1485 C 0.45244 0.8928 0.49293 0.0
C1486 C 0.47518 0.90137 0.58978 0.0
C1487 C 0.45966 0.89227 0.45762 0.0
C1488 C 0.4368 0.89262 0.73577 0.0
C1489 C 0.44458 0.89287 0.70052 0.0
C1490 C 0.43135 0.90228 0.60369 0.0
C1491 C 0.46967 0.90099 0.52136 0.0
C1492 C 0.46139 0.9016 0.56012 0.0
C1493 C 0.43617 0.9015 0.67208 0.0
C1494 C 0.445 0.9018 0.63336 0.0
H1495 H 0.52148 0.91421 0.47061 0.0
H1496 H 0.50926 0.91529 0.53143 0.0
H1497 H 0.42769 0.90285 0.54772 0.0
H1498 H 0.39862 0.91631 0.72251 0.0
H1499 H 0.412 0.91695 0.66194 0.0
C1500 C 0.60404 0.50758 0.81102 0.0
C1501 C 0.6001 0.48961 0.78471 0.0
C1502 C 0.59802 0.50102 0.84726 0.0
C1503 C 0.5875 0.45163 0.91636 0.0
H1504 H 0.55333 0.47809 0.97111 0.0
C1505 C 0.57116 0.43524 1.07261 0.0
C1506 C 0.54771 0.42968 1.08695 0.0
C1507 C 0.57768 0.44237 1.03668 0.0
C1508 C 0.56293 0.47036 0.95661 0.0
H1509 H 0.58667 0.45002 0.77895 0.0
H1510 H 0.57785 0.43915 0.84087 0.0
H1511 H 0.56461 0.49097 0.9099 0.0
H1512 H 0.51315 0.42813 1.0717 0.0
H1513 H 0.52477 0.44147 1.01099 0.0
H1514 H 0.58652 0.43162 0.96331 0.0
C1515 C 0.58518 0.45847 0.83357 0.0
C1516 C 0.56964 0.47799 0.92091 0.0
C1517 C 0.59038 0.46485 0.79735 0.0
C1518 C 0.53137 0.43195 1.06286 0.0
C1519 C 0.5382 0.43988 1.02737 0.0
C1520 C 0.5815 0.44461 0.95235 0.0
C1521 C 0.58848 0.4762 0.85983 0.0
C1522 C 0.58195 0.4687 0.89936 0.0
C1523 C 0.56154 0.44523 1.01287 0.0
C1524 C 0.56876 0.45351 0.97372 0.0
H1525 H 0.61126 0.52684 0.80353 0.0
H1526 H 0.60116 0.51568 0.86565 0.0
H1527 H 0.59694 0.44375 0.90182 0.0
H1528 H 0.58471 0.43404 1.08926 0.0
H1529 H 0.59588 0.4462 1.02773 0.0
C1530 C 0.10597 0.49716 0.38661 0.0
C1531 C 0.11195 0.51451 0.41454 0.0
C1532 C 0.10748 0.50424 0.35049 0.0
C1533 C 0.11365 0.55784 0.29039 0.0
H1534 H 0.1254 0.52197 0.21673 0.0
C1535 C 0.11113 0.58324 0.1399 0.0
C1536 C 0.12467 0.57865 0.11375 0.0
C1537 C 0.10961 0.57527 0.17536 0.0
C1538 C 0.12224 0.53258 0.23657 0.0
H1539 H 0.12428 0.55362 0.42364 0.0
H1540 H 0.12693 0.56564 0.36263 0.0
H1541 H 0.12285 0.50889 0.27759 0.0
H1542 H 0.14697 0.56094 0.10705 0.0
H1543 H 0.14466 0.54748 0.1679 0.0
H1544 H 0.11323 0.58165 0.24968 0.0
C1545 C 0.12078 0.54627 0.36808 0.0
C1546 C 0.12048 0.52474 0.27227 0.0
C1547 C 0.11944 0.53926 0.40393 0.0
C1548 C 0.13654 0.56542 0.12554 0.0
C1549 C 0.13493 0.55732 0.16108 0.0
C1550 C 0.11521 0.56555 0.25476 0.0
C1551 C 0.11482 0.52909 0.33992 0.0
C1552 C 0.11626 0.53717 0.30058 0.0
C1553 C 0.12143 0.56199 0.18737 0.0
C1554 C 0.11964 0.5533 0.22645 0.0
H1555 H 0.09988 0.47785 0.39259 0.0
H1556 H 0.10237 0.48986 0.33077 0.0
H1557 H 0.11005 0.56824 0.31006 0.0
H1558 H 0.10118 0.59284 0.13287 0.0
H1559 H 0.09852 0.57924 0.19327 0.0
loop_
_geom_bond_atom_site_label_1
_geom_bond_atom_site_label_2
_geom_bond_distance
_geom_bond_site_symmetry_2
_ccdc_geom_bond_type
La0 C2 2.928 . S
La0 O20 2.521 . S
La0 O21 2.628 . S
La0 O22 2.554 . S
La0 O23 2.757 . S
La0 O24 2.470 . S
La0 O29 2.482 . S
La0 O31 2.503 . S
La1 C11 2.928 . S
La1 O23 2.482 . S
La1 O25 2.503 . S
La1 O26 2.521 . S
La1 O27 2.628 . S
La1 O28 2.554 . S
La1 O29 2.757 . S
La1 O30 2.470 . S
C2 La0 2.928 . S
C2 C3 1.503 . S
C2 O20 1.261 . S
C2 O21 1.243 . S
C3 C2 1.503 . S
C3 C4 1.394 . S
C3 C8 1.373 . S
C4 C3 1.394 . S
C4 C5 1.380 . S
C4 H32 0.930 . S
C5 C4 1.380 . S
C5 C6 1.376 . S
C5 H33 0.930 . S
C6 C5 1.376 . S
C6 C7 1.370 . S
C7 C6 1.370 . S
C7 C8 1.396 . S
C7 H34 0.929 . S
C8 C3 1.373 . S
C8 C7 1.396 . S
C8 H35 0.929 . S
C9 O22 1.240 . S
C9 O23 1.289 . S
C10 O24 1.258 . S
C10 O25 1.256 . S
C11 La1 2.928 . S
C11 C12 1.503 . S
C11 O26 1.261 . S
C11 O27 1.243 . S
C12 C11 1.503 . S
C12 C13 1.394 . S
C12 C17 1.373 . S
C13 C12 1.394 . S
C13 C14 1.380 . S
C13 H36 0.930 . S
C14 C13 1.380 . S
C14 C15 1.376 . S
C14 H37 0.930 . S
C15 C14 1.376 . S
C15 C16 1.370 . S
C16 C15 1.370 . S
C16 C17 1.396 . S
C16 H38 0.929 . S
C17 C12 1.373 . S
C17 C16 1.396 . S
C17 H39 0.929 . S
C18 O28 1.240 . S
C18 O29 1.289 . S
C19 O30 1.258 . S
C19 O31 1.256 . S
O20 La0 2.521 . S
O20 C2 1.261 . S
O21 La0 2.628 . S
O21 C2 1.243 . S
O22 La0 2.554 . S
O22 C9 1.240 . S
O23 La0 2.757 . S
O23 La1 2.482 . S
O23 C9 1.289 . S
O24 La0 2.470 . S
O24 C10 1.258 . S
O25 La1 2.503 . S
O25 C10 1.256 . S
O26 La1 2.521 . S
O26 C11 1.261 . S
O27 La1 2.628 . S
O27 C11 1.243 . S
O28 La1 2.554 . S
O28 C18 1.240 . S
O29 La0 2.482 . S
O29 La1 2.757 . S
O29 C18 1.289 . S
O30 La1 2.470 . S
O30 C19 1.258 . S
O31 La0 2.503 . S
O31 C19 1.256 . S
H32 C4 0.930 . S
H33 C5 0.930 . S
H34 C7 0.929 . S
H35 C8 0.929 . S
H36 C13 0.930 . S
H37 C14 0.930 . S
H38 C16 0.929 . S
H39 C17 0.929 . S
La40 C42 2.928 . S
La40 O60 2.521 . S
La40 O61 2.628 . S
La40 O62 2.554 . S
La40 O63 2.757 . S
La40 O64 2.470 . S
La40 O69 2.482 . S
La40 O71 2.503 . S
La41 C51 2.928 . S
La41 O63 2.482 . S
La41 O65 2.503 . S
La41 O66 2.521 . S
La41 O67 2.628 . S
La41 O68 2.554 . S
La41 O69 2.757 . S
La41 O70 2.470 . S
C42 La40 2.928 . S
C42 C43 1.503 . S
C42 O60 1.261 . S
C42 O61 1.243 . S
C43 C42 1.503 . S
C43 C44 1.394 . S
C43 C48 1.373 . S
C44 C43 1.394 . S
C44 C45 1.380 . S
C44 H72 0.930 . S
C45 C44 1.380 . S
C45 C46 1.376 . S
C45 H73 0.930 . S
C46 C45 1.376 . S
C46 C47 1.370 . S
C47 C46 1.370 . S
C47 C48 1.396 . S
C47 H74 0.929 . S
C48 C43 1.373 . S
C48 C47 1.396 . S
C48 H75 0.929 . S
C49 O62 1.240 . S
C49 O63 1.289 . S
C50 O64 1.258 . S
C50 O65 1.256 . S
C51 La41 2.928 . S
C51 C52 1.503 . S
C51 O66 1.261 . S
C51 O67 1.243 . S
C52 C51 1.503 . S
C52 C53 1.394 . S
C52 C57 1.373 . S
C53 C52 1.394 . S
C53 C54 1.380 . S
C53 H76 0.930 . S
C54 C53 1.380 . S
C54 C55 1.376 . S
C54 H77 0.930 . S
C55 C54 1.376 . S
C55 C56 1.370 . S
C56 C55 1.370 . S
C56 C57 1.396 . S
C56 H78 0.929 . S
C57 C52 1.373 . S
C57 C56 1.396 . S
C57 H79 0.929 . S
C58 O68 1.240 . S
C58 O69 1.289 . S
C59 O70 1.258 . S
C59 O71 1.256 . S
O60 La40 2.521 . S
O60 C42 1.261 . S
O61 La40 2.628 . S
O61 C42 1.243 . S
O62 La40 2.554 . S
O62 C49 1.240 . S
O63 La40 2.757 . S
O63 La41 2.482 . S
O63 C49 1.289 . S
O64 La40 2.470 . S
O64 C50 1.258 . S
O65 La41 2.503 . S
O65 C50 1.256 . S
O66 La41 2.521 . S
O66 C51 1.261 . S
O67 La41 2.628 . S
O67 C51 1.243 . S
O68 La41 2.554 . S
O68 C58 1.240 . S
O69 La40 2.482 . S
O69 La41 2.757 . S
O69 C58 1.289 . S
O70 La41 2.470 . S
O70 C59 1.258 . S
O71 La40 2.503 . S
O71 C59 1.256 . S
H72 C44 0.930 . S
H73 C45 0.930 . S
H74 C47 0.929 . S
H75 C48 0.929 . S
H76 C53 0.930 . S
H77 C54 0.930 . S
H78 C56 0.929 . S
H79 C57 0.929 . S
La80 C82 2.928 . S
La80 O100 2.521 . S
La80 O101 2.628 . S
La80 O102 2.554 . S
La80 O103 2.757 . S
La80 O104 2.470 . S
La80 O109 2.482 . S
La80 O111 2.503 . S
La81 C91 2.928 . S
La81 O103 2.482 . S
La81 O105 2.503 . S
La81 O106 2.521 . S
La81 O107 2.628 . S
La81 O108 2.554 . S
La81 O109 2.757 . S
La81 O110 2.470 . S
C82 La80 2.928 . S
C82 C83 1.503 1_556 S
C82 O100 1.261 . S
C82 O101 1.243 . S
C83 C82 1.503 1_554 S
C83 C84 1.394 . S
C83 C88 1.373 . S
C84 C83 1.394 . S
C84 C85 1.380 . S
C84 H112 0.930 . S
C85 C84 1.380 . S
C85 C86 1.376 . S
C85 H113 0.930 . S
C86 C85 1.376 . S
C86 C87 1.370 . S
C87 C86 1.370 . S
C87 C88 1.396 . S
C87 H114 0.929 . S
C88 C83 1.373 . S
C88 C87 1.396 . S
C88 H115 0.929 . S
C89 O102 1.240 . S
C89 O103 1.289 . S
C90 O104 1.258 . S
C90 O105 1.256 . S
C91 La81 2.928 . S
C91 C92 1.503 . S
C91 O106 1.261 . S
C91 O107 1.243 . S
C92 C91 1.503 . S
C92 C93 1.394 . S
C92 C97 1.373 . S
C93 C92 1.394 . S
C93 C94 1.380 . S
C93 H116 0.930 . S
C94 C93 1.380 . S
C94 C95 1.376 . S
C94 H117 0.930 . S
C95 C94 1.376 . S
C95 C96 1.370 . S
C96 C95 1.370 . S
C96 C97 1.396 . S
C96 H118 0.929 . S
C97 C92 1.373 . S
C97 C96 1.396 . S
C97 H119 0.929 . S
C98 O108 1.240 . S
C98 O109 1.289 . S
C99 O110 1.258 . S
C99 O111 1.256 . S
O100 La80 2.521 . S
O100 C82 1.261 . S
O101 La80 2.628 . S
O101 C82 1.243 . S
O102 La80 2.554 . S
O102 C89 1.240 . S
O103 La80 2.757 . S
O103 La81 2.482 . S
O103 C89 1.289 . S
O104 La80 2.470 . S
O104 C90 1.258 . S
O105 La81 2.503 . S
O105 C90 1.256 . S
O106 La81 2.521 . S
O106 C91 1.261 . S
O107 La81 2.628 . S
O107 C91 1.243 . S
O108 La81 2.554 . S
O108 C98 1.240 . S
O109 La80 2.482 . S
O109 La81 2.757 . S
O109 C98 1.289 . S
O110 La81 2.470 . S
O110 C99 1.258 . S
O111 La80 2.503 . S
O111 C99 1.256 . S
H112 C84 0.930 . S
H113 C85 0.930 . S
H114 C87 0.929 . S
H115 C88 0.929 . S
H116 C93 0.930 . S
H117 C94 0.930 . S
H118 C96 0.929 . S
H119 C97 0.929 . S
La120 C122 2.928 . S
La120 O140 2.521 . S
La120 O141 2.628 . S
La120 O142 2.554 . S
La120 O143 2.757 . S
La120 O144 2.470 . S
La120 O149 2.482 . S
La120 O151 2.503 . S
La121 C131 2.928 . S
La121 O143 2.482 . S
La121 O145 2.503 . S
La121 O146 2.521 . S
La121 O147 2.628 . S
La121 O148 2.554 . S
La121 O149 2.757 . S
La121 O150 2.470 . S
C122 La120 2.928 . S
C122 C123 1.503 . S
C122 O140 1.261 . S
C122 O141 1.243 . S
C123 C122 1.503 . S
C123 C124 1.394 . S
C123 C128 1.373 . S
C124 C123 1.394 . S
C124 C125 1.380 . S
C124 H152 0.930 . S
C125 C124 1.380 . S
C125 C126 1.376 . S
C125 H153 0.930 . S
C126 C125 1.376 . S
C126 C127 1.370 . S
C127 C126 1.370 . S
C127 C128 1.396 . S
C127 H154 0.929 . S
C128 C123 1.373 . S
C128 C127 1.396 . S
C128 H155 0.929 . S
C129 O142 1.240 . S
C129 O143 1.289 . S
C130 O144 1.258 . S
C130 O145 1.256 . S
C131 La121 2.928 . S
C131 C132 1.503 . S
C131 O146 1.261 . S
C131 O147 1.243 . S
C132 C131 1.503 . S
C132 C133 1.394 . S
C132 C137 1.373 . S
C133 C132 1.394 . S
C133 C134 1.380 . S
C133 H156 0.930 . S
C134 C133 1.380 . S
C134 C135 1.376 . S
C134 H157 0.930 . S
C135 C134 1.376 . S
C135 C136 1.370 . S
C136 C135 1.370 . S
C136 C137 1.396 . S
C136 H158 0.929 . S
C137 C132 1.373 . S
C137 C136 1.396 . S
C137 H159 0.929 . S
C138 O148 1.240 . S
C138 O149 1.289 . S
C139 O150 1.258 . S
C139 O151 1.256 . S
O140 La120 2.521 . S
O140 C122 1.261 . S
O141 La120 2.628 . S
O141 C122 1.243 . S
O142 La120 2.554 . S
O142 C129 1.240 . S
O143 La120 2.757 . S
O143 La121 2.482 . S
O143 C129 1.289 . S
O144 La120 2.470 . S
O144 C130 1.258 . S
O145 La121 2.503 . S
O145 C130 1.256 . S
O146 La121 2.521 . S
O146 C131 1.261 . S
O147 La121 2.628 . S
O147 C131 1.243 . S
O148 La121 2.554 . S
O148 C138 1.240 . S
O149 La120 2.482 . S
O149 La121 2.757 . S
O149 C138 1.289 . S
O150 La121 2.470 . S
O150 C139 1.258 . S
O151 La120 2.503 . S
O151 C139 1.256 . S
H152 C124 0.930 . S
H153 C125 0.930 . S
H154 C127 0.929 . S
H155 C128 0.929 . S
H156 C133 0.930 . S
H157 C134 0.930 . S
H158 C136 0.929 . S
H159 C137 0.929 . S
La160 C162 2.928 . S
La160 O180 2.521 . S
La160 O181 2.628 . S
La160 O182 2.554 . S
La160 O183 2.757 . S
La160 O184 2.470 . S
La160 O189 2.482 . S
La160 O191 2.503 . S
La161 C171 2.928 . S
La161 O183 2.482 . S
La161 O185 2.503 . S
La161 O186 2.521 . S
La161 O187 2.628 . S
La161 O188 2.554 . S
La161 O189 2.757 . S
La161 O190 2.470 . S
C162 La160 2.928 . S
C162 C163 1.503 . S
C162 O180 1.261 . S
C162 O181 1.243 . S
C163 C162 1.503 . S
C163 C164 1.394 . S
C163 C168 1.373 . S
C164 C163 1.394 . S
C164 C165 1.380 . S
C164 H192 0.930 . S
C165 C164 1.380 . S
C165 C166 1.376 . S
C165 H193 0.930 . S
C166 C165 1.376 . S
C166 C167 1.370 . S
C167 C166 1.370 . S
C167 C168 1.396 . S
C167 H194 0.929 . S
C168 C163 1.373 . S
C168 C167 1.396 . S
C168 H195 0.929 . S
C169 O182 1.240 . S
C169 O183 1.289 . S
C170 O184 1.258 . S
C170 O185 1.256 . S
C171 La161 2.928 . S
C171 C172 1.503 . S
C171 O186 1.261 . S
C171 O187 1.243 . S
C172 C171 1.503 . S
C172 C173 1.394 . S
C172 C177 1.373 . S
C173 C172 1.394 . S
C173 C174 1.380 . S
C173 H196 0.930 . S
C174 C173 1.380 . S
C174 C175 1.376 . S
C174 H197 0.930 . S
C175 C174 1.376 . S
C175 C176 1.370 . S
C176 C175 1.370 . S
C176 C177 1.396 . S
C176 H198 0.929 . S
C177 C172 1.373 . S
C177 C176 1.396 . S
C177 H199 0.929 . S
C178 O188 1.240 . S
C178 O189 1.289 . S
C179 O190 1.258 . S
C179 O191 1.256 . S
O180 La160 2.521 . S
O180 C162 1.261 . S
O181 La160 2.628 . S
O181 C162 1.243 . S
O182 La160 2.554 . S
O182 C169 1.240 . S
O183 La160 2.757 . S
O183 La161 2.482 . S
O183 C169 1.289 . S
O184 La160 2.470 . S
O184 C170 1.258 . S
O185 La161 2.503 . S
O185 C170 1.256 . S
O186 La161 2.521 . S
O186 C171 1.261 . S
O187 La161 2.628 . S
O187 C171 1.243 . S
O188 La161 2.554 . S
O188 C178 1.240 . S
O189 La160 2.482 . S
O189 La161 2.757 . S
O189 C178 1.289 . S
O190 La161 2.470 . S
O190 C179 1.258 . S
O191 La160 2.503 . S
O191 C179 1.256 . S
H192 C164 0.930 . S
H193 C165 0.930 . S
H194 C167 0.929 . S
H195 C168 0.929 . S
H196 C173 0.930 . S
H197 C174 0.930 . S
H198 C176 0.929 . S
H199 C177 0.929 . S
La200 C202 2.928 . S
La200 O220 2.521 . S
La200 O221 2.628 . S
La200 O222 2.554 . S
La200 O223 2.757 . S
La200 O224 2.470 . S
La200 O229 2.482 . S
La200 O231 2.503 . S
La201 C211 2.928 . S
La201 O223 2.482 . S
La201 O225 2.503 . S
La201 O226 2.521 . S
La201 O227 2.628 . S
La201 O228 2.554 . S
La201 O229 2.757 . S
La201 O230 2.470 . S
C202 La200 2.928 . S
C202 C203 1.503 1_556 S
C202 O220 1.261 . S
C202 O221 1.243 . S
C203 C202 1.503 1_554 S
C203 C204 1.394 . S
C203 C208 1.373 . S
C204 C203 1.394 . S
C204 C205 1.380 . S
C204 H232 0.930 . S
C205 C204 1.380 . S
C205 C206 1.376 . S
C205 H233 0.930 . S
C206 C205 1.376 . S
C206 C207 1.370 . S
C207 C206 1.370 . S
C207 C208 1.396 . S
C207 H234 0.929 . S
C208 C203 1.373 . S
C208 C207 1.396 . S
C208 H235 0.929 . S
C209 O222 1.240 . S
C209 O223 1.289 . S
C210 O224 1.258 . S
C210 O225 1.256 . S
C211 La201 2.928 . S
C211 C212 1.503 . S
C211 O226 1.261 . S
C211 O227 1.243 . S
C212 C211 1.503 . S
C212 C213 1.394 . S
C212 C217 1.373 . S
C213 C212 1.394 . S
C213 C214 1.380 . S
C213 H236 0.930 . S
C214 C213 1.380 . S
C214 C215 1.376 . S
C214 H237 0.930 . S
C215 C214 1.376 . S
C215 C216 1.370 . S
C216 C215 1.370 . S
C216 C217 1.396 . S
C216 H238 0.929 . S
C217 C212 1.373 . S
C217 C216 1.396 . S
C217 H239 0.929 . S
C218 O228 1.240 . S
C218 O229 1.289 . S
C219 O230 1.258 . S
C219 O231 1.256 . S
O220 La200 2.521 . S
O220 C202 1.261 . S
O221 La200 2.628 . S
O221 C202 1.243 . S
O222 La200 2.554 . S
O222 C209 1.240 . S
O223 La200 2.757 . S
O223 La201 2.482 . S
O223 C209 1.289 . S
O224 La200 2.470 . S
O224 C210 1.258 . S
O225 La201 2.503 . S
O225 C210 1.256 . S
O226 La201 2.521 . S
O226 C211 1.261 . S
O227 La201 2.628 . S
O227 C211 1.243 . S
O228 La201 2.554 . S
O228 C218 1.240 . S
O229 La200 2.482 . S
O229 La201 2.757 . S
O229 C218 1.289 . S
O230 La201 2.470 . S
O230 C219 1.258 . S
O231 La200 2.503 . S
O231 C219 1.256 . S
H232 C204 0.930 . S
H233 C205 0.930 . S
H234 C207 0.929 . S
H235 C208 0.929 . S
H236 C213 0.930 . S
H237 C214 0.930 . S
H238 C216 0.929 . S
H239 C217 0.929 . S
La240 C242 2.928 . S
La240 O260 2.521 . S
La240 O261 2.628 . S
La240 O262 2.554 . S
La240 O263 2.757 . S
La240 O264 2.470 . S
La240 O269 2.482 . S
La240 O271 2.503 . S
La241 C251 2.928 . S
La241 O263 2.482 . S
La241 O265 2.503 . S
La241 O266 2.521 . S
La241 O267 2.628 . S
La241 O268 2.554 . S
La241 O269 2.757 . S
La241 O270 2.470 . S
C242 La240 2.928 . S
C242 C243 1.503 . S
C242 O260 1.261 . S
C242 O261 1.243 . S
C243 C242 1.503 . S
C243 C244 1.394 . S
C243 C248 1.373 . S
C244 C243 1.394 . S
C244 C245 1.380 . S
C244 H272 0.930 . S
C245 C244 1.380 . S
C245 C246 1.376 . S
C245 H273 0.930 . S
C246 C245 1.376 . S
C246 C247 1.370 . S
C247 C246 1.370 . S
C247 C248 1.396 . S
C247 H274 0.929 . S
C248 C243 1.373 . S
C248 C247 1.396 . S
C248 H275 0.929 . S
C249 O262 1.240 . S
C249 O263 1.289 . S
C250 O264 1.258 . S
C250 O265 1.256 . S
C251 La241 2.928 . S
C251 C252 1.503 . S
C251 O266 1.261 . S
C251 O267 1.243 . S
C252 C251 1.503 . S
C252 C253 1.394 . S
C252 C257 1.373 . S
C253 C252 1.394 . S
C253 C254 1.380 . S
C253 H276 0.930 . S
C254 C253 1.380 . S
C254 C255 1.376 . S
C254 H277 0.930 . S
C255 C254 1.376 . S
C255 C256 1.370 . S
C256 C255 1.370 . S
C256 C257 1.396 . S
C256 H278 0.929 . S
C257 C252 1.373 . S
C257 C256 1.396 . S
C257 H279 0.929 . S
C258 O268 1.240 . S
C258 O269 1.289 . S
C259 O270 1.258 . S
C259 O271 1.256 . S
O260 La240 2.521 . S
O260 C242 1.261 . S
O261 La240 2.628 . S
O261 C242 1.243 . S
O262 La240 2.554 . S
O262 C249 1.240 . S
O263 La240 2.757 . S
O263 La241 2.482 . S
O263 C249 1.289 . S
O264 La240 2.470 . S
O264 C250 1.258 . S
O265 La241 2.503 . S
O265 C250 1.256 . S
O266 La241 2.521 . S
O266 C251 1.261 . S
O267 La241 2.628 . S
O267 C251 1.243 . S
O268 La241 2.554 . S
O268 C258 1.240 . S
O269 La240 2.482 . S
O269 La241 2.757 . S
O269 C258 1.289 . S
O270 La241 2.470 . S
O270 C259 1.258 . S
O271 La240 2.503 . S
O271 C259 1.256 . S
H272 C244 0.930 . S
H273 C245 0.930 . S
H274 C247 0.929 . S
H275 C248 0.929 . S
H276 C253 0.930 . S
H277 C254 0.930 . S
H278 C256 0.929 . S
H279 C257 0.929 . S
La280 C282 2.928 . S
La280 O300 2.521 . S
La280 O301 2.628 . S
La280 O302 2.554 . S
La280 O303 2.757 . S
La280 O304 2.470 . S
La280 O309 2.482 . S
La280 O311 2.503 . S
La281 C291 2.928 . S
La281 O303 2.482 . S
La281 O305 2.503 . S
La281 O306 2.521 . S
La281 O307 2.628 . S
La281 O308 2.554 . S
La281 O309 2.757 . S
La281 O310 2.470 . S
C282 La280 2.928 . S
C282 C283 1.503 . S
C282 O300 1.261 . S
C282 O301 1.243 . S
C283 C282 1.503 . S
C283 C284 1.394 . S
C283 C288 1.373 . S
C284 C283 1.394 . S
C284 C285 1.380 . S
C284 H312 0.930 . S
C285 C284 1.380 . S
C285 C286 1.376 . S
C285 H313 0.930 . S
C286 C285 1.376 . S
C286 C287 1.370 . S
C287 C286 1.370 . S
C287 C288 1.396 . S
C287 H314 0.929 . S
C288 C283 1.373 . S
C288 C287 1.396 . S
C288 H315 0.929 . S
C289 O302 1.240 . S
C289 O303 1.289 . S
C290 O304 1.258 . S
C290 O305 1.256 . S
C291 La281 2.928 . S
C291 C292 1.503 . S
C291 O306 1.261 . S
C291 O307 1.243 . S
C292 C291 1.503 . S
C292 C293 1.394 . S
C292 C297 1.373 . S
C293 C292 1.394 . S
C293 C294 1.380 . S
C293 H316 0.930 . S
C294 C293 1.380 . S
C294 C295 1.376 . S
C294 H317 0.930 . S
C295 C294 1.376 . S
C295 C296 1.370 . S
C296 C295 1.370 . S
C296 C297 1.396 . S
C296 H318 0.929 . S
C297 C292 1.373 . S
C297 C296 1.396 . S
C297 H319 0.929 . S
C298 O308 1.240 . S
C298 O309 1.289 . S
C299 O310 1.258 . S
C299 O311 1.256 . S
O300 La280 2.521 . S
O300 C282 1.261 . S
O301 La280 2.628 . S
O301 C282 1.243 . S
O302 La280 2.554 . S
O302 C289 1.240 . S
O303 La280 2.757 . S
O303 La281 2.482 . S
O303 C289 1.289 . S
O304 La280 2.470 . S
O304 C290 1.258 . S
O305 La281 2.503 . S
O305 C290 1.256 . S
O306 La281 2.521 . S
O306 C291 1.261 . S
O307 La281 2.628 . S
O307 C291 1.243 . S
O308 La281 2.554 . S
O308 C298 1.240 . S
O309 La280 2.482 . S
O309 La281 2.757 . S
O309 C298 1.289 . S
O310 La281 2.470 . S
O310 C299 1.258 . S
O311 La280 2.503 . S
O311 C299 1.256 . S
H312 C284 0.930 . S
H313 C285 0.930 . S
H314 C287 0.929 . S
H315 C288 0.929 . S
H316 C293 0.930 . S
H317 C294 0.930 . S
H318 C296 0.929 . S
H319 C297 0.929 . S
La320 C322 2.928 . S
La320 O340 2.521 . S
La320 O341 2.628 . S
La320 O342 2.554 . S
La320 O343 2.757 . S
La320 O344 2.470 . S
La320 O349 2.482 . S
La320 O351 2.503 . S
La321 C331 2.928 . S
La321 O343 2.482 . S
La321 O345 2.503 . S
La321 O346 2.521 . S
La321 O347 2.628 . S
La321 O348 2.554 . S
La321 O349 2.757 . S
La321 O350 2.470 . S
C322 La320 2.928 . S
C322 C323 1.503 1_554 S
C322 O340 1.261 . S
C322 O341 1.243 . S
C323 C322 1.503 1_556 S
C323 C324 1.394 . S
C323 C328 1.373 . S
C324 C323 1.394 . S
C324 C325 1.380 . S
C324 H352 0.930 . S
C325 C324 1.380 . S
C325 C326 1.376 . S
C325 H353 0.930 . S
C326 C325 1.376 . S
C326 C327 1.370 . S
C327 C326 1.370 . S
C327 C328 1.396 . S
C327 H354 0.929 . S
C328 C323 1.373 . S
C328 C327 1.396 . S
C328 H355 0.929 . S
C329 O342 1.240 . S
C329 O343 1.289 . S
C330 O344 1.258 . S
C330 O345 1.256 . S
C331 La321 2.928 . S
C331 C332 1.503 . S
C331 O346 1.261 . S
C331 O347 1.243 . S
C332 C331 1.503 . S
C332 C333 1.394 . S
C332 C337 1.373 . S
C333 C332 1.394 . S
C333 C334 1.380 . S
C333 H356 0.930 . S
C334 C333 1.380 . S
C334 C335 1.376 . S
C334 H357 0.930 . S
C335 C334 1.376 . S
C335 C336 1.370 . S
C336 C335 1.370 . S
C336 C337 1.396 . S
C336 H358 0.929 . S
C337 C332 1.373 . S
C337 C336 1.396 . S
C337 H359 0.929 . S
C338 O348 1.240 . S
C338 O349 1.289 . S
C339 O350 1.258 . S
C339 O351 1.256 . S
O340 La320 2.521 . S
O340 C322 1.261 . S
O341 La320 2.628 . S
O341 C322 1.243 . S
O342 La320 2.554 . S
O342 C329 1.240 . S
O343 La320 2.757 . S
O343 La321 2.482 . S
O343 C329 1.289 . S
O344 La320 2.470 . S
O344 C330 1.258 . S
O345 La321 2.503 . S
O345 C330 1.256 . S
O346 La321 2.521 . S
O346 C331 1.261 . S
O347 La321 2.628 . S
O347 C331 1.243 . S
O348 La321 2.554 . S
O348 C338 1.240 . S
O349 La320 2.482 . S
O349 La321 2.757 . S
O349 C338 1.289 . S
O350 La321 2.470 . S
O350 C339 1.258 . S
O351 La320 2.503 . S
O351 C339 1.256 . S
H352 C324 0.930 . S
H353 C325 0.930 . S
H354 C327 0.929 . S
H355 C328 0.929 . S
H356 C333 0.930 . S
H357 C334 0.930 . S
H358 C336 0.929 . S
H359 C337 0.929 . S
La360 C362 2.928 . S
La360 O380 2.521 . S
La360 O381 2.628 . S
La360 O382 2.554 . S
La360 O383 2.757 . S
La360 O384 2.470 . S
La360 O389 2.482 . S
La360 O391 2.503 . S
La361 C371 2.928 . S
La361 O383 2.482 . S
La361 O385 2.503 . S
La361 O386 2.521 . S
La361 O387 2.628 . S
La361 O388 2.554 . S
La361 O389 2.757 . S
La361 O390 2.470 . S
C362 La360 2.928 . S
C362 C363 1.503 . S
C362 O380 1.261 . S
C362 O381 1.243 . S
C363 C362 1.503 . S
C363 C364 1.394 . S
C363 C368 1.373 . S
C364 C363 1.394 . S
C364 C365 1.380 . S
C364 H392 0.930 . S
C365 C364 1.380 . S
C365 C366 1.376 . S
C365 H393 0.930 . S
C366 C365 1.376 . S
C366 C367 1.370 . S
C367 C366 1.370 . S
C367 C368 1.396 . S
C367 H394 0.929 . S
C368 C363 1.373 . S
C368 C367 1.396 . S
C368 H395 0.929 . S
C369 O382 1.240 . S
C369 O383 1.289 . S
C370 O384 1.258 . S
C370 O385 1.256 . S
C371 La361 2.928 . S
C371 C372 1.503 . S
C371 O386 1.261 . S
C371 O387 1.243 . S
C372 C371 1.503 . S
C372 C373 1.394 . S
C372 C377 1.373 . S
C373 C372 1.394 . S
C373 C374 1.380 . S
C373 H396 0.930 . S
C374 C373 1.380 . S
C374 C375 1.376 . S
C374 H397 0.930 . S
C375 C374 1.376 . S
C375 C376 1.370 . S
C376 C375 1.370 . S
C376 C377 1.396 . S
C376 H398 0.929 . S
C377 C372 1.373 . S
C377 C376 1.396 . S
C377 H399 0.929 . S
C378 O388 1.240 . S
C378 O389 1.289 . S
C379 O390 1.258 . S
C379 O391 1.256 . S
O380 La360 2.521 . S
O380 C362 1.261 . S
O381 La360 2.628 . S
O381 C362 1.243 . S
O382 La360 2.554 . S
O382 C369 1.240 . S
O383 La360 2.757 . S
O383 La361 2.482 . S
O383 C369 1.289 . S
O384 La360 2.470 . S
O384 C370 1.258 . S
O385 La361 2.503 . S
O385 C370 1.256 . S
O386 La361 2.521 . S
O386 C371 1.261 . S
O387 La361 2.628 . S
O387 C371 1.243 . S
O388 La361 2.554 . S
O388 C378 1.240 . S
O389 La360 2.482 . S
O389 La361 2.757 . S
O389 C378 1.289 . S
O390 La361 2.470 . S
O390 C379 1.258 . S
O391 La360 2.503 . S
O391 C379 1.256 . S
H392 C364 0.930 . S
H393 C365 0.930 . S
H394 C367 0.929 . S
H395 C368 0.929 . S
H396 C373 0.930 . S
H397 C374 0.930 . S
H398 C376 0.929 . S
H399 C377 0.929 . S
La400 C402 2.928 . S
La400 O420 2.521 . S
La400 O421 2.628 . S
La400 O422 2.554 . S
La400 O423 2.757 . S
La400 O424 2.470 . S
La400 O429 2.482 . S
La400 O431 2.503 . S
La401 C411 2.928 . S
La401 O423 2.482 . S
La401 O425 2.503 . S
La401 O426 2.521 . S
La401 O427 2.628 . S
La401 O428 2.554 . S
La401 O429 2.757 . S
La401 O430 2.470 . S
C402 La400 2.928 . S
C402 C403 1.503 . S
C402 O420 1.261 . S
C402 O421 1.243 . S
C403 C402 1.503 . S
C403 C404 1.394 . S
C403 C408 1.373 . S
C404 C403 1.394 . S
C404 C405 1.380 . S
C404 H432 0.930 . S
C405 C404 1.380 . S
C405 C406 1.376 . S
C405 H433 0.930 . S
C406 C405 1.376 . S
C406 C407 1.370 . S
C407 C406 1.370 . S
C407 C408 1.396 . S
C407 H434 0.929 . S
C408 C403 1.373 . S
C408 C407 1.396 . S
C408 H435 0.929 . S
C409 O422 1.240 . S
C409 O423 1.289 . S
C410 O424 1.258 . S
C410 O425 1.256 . S
C411 La401 2.928 . S
C411 C412 1.503 . S
C411 O426 1.261 . S
C411 O427 1.243 . S
C412 C411 1.503 . S
C412 C413 1.394 . S
C412 C417 1.373 . S
C413 C412 1.394 . S
C413 C414 1.380 . S
C413 H436 0.930 . S
C414 C413 1.380 . S
C414 C415 1.376 . S
C414 H437 0.930 . S
C415 C414 1.376 . S
C415 C416 1.370 . S
C416 C415 1.370 . S
C416 C417 1.396 . S
C416 H438 0.929 . S
C417 C412 1.373 . S
C417 C416 1.396 . S
C417 H439 0.929 . S
C418 O428 1.240 . S
C418 O429 1.289 . S
C419 O430 1.258 . S
C419 O431 1.256 . S
O420 La400 2.521 . S
O420 C402 1.261 . S
O421 La400 2.628 . S
O421 C402 1.243 . S
O422 La400 2.554 . S
O422 C409 1.240 . S
O423 La400 2.757 . S
O423 La401 2.482 . S
O423 C409 1.289 . S
O424 La400 2.470 . S
O424 C410 1.258 . S
O425 La401 2.503 . S
O425 C410 1.256 . S
O426 La401 2.521 . S
O426 C411 1.261 . S
O427 La401 2.628 . S
O427 C411 1.243 . S
O428 La401 2.554 . S
O428 C418 1.240 . S
O429 La400 2.482 . S
O429 La401 2.757 . S
O429 C418 1.289 . S
O430 La401 2.470 . S
O430 C419 1.258 . S
O431 La400 2.503 . S
O431 C419 1.256 . S
H432 C404 0.930 . S
H433 C405 0.930 . S
H434 C407 0.929 . S
H435 C408 0.929 . S
H436 C413 0.930 . S
H437 C414 0.930 . S
H438 C416 0.929 . S
H439 C417 0.929 . S
La440 C442 2.928 . S
La440 O460 2.521 . S
La440 O461 2.628 . S
La440 O462 2.554 . S
La440 O463 2.757 . S
La440 O464 2.470 . S
La440 O469 2.482 . S
La440 O471 2.503 . S
La441 C451 2.928 . S
La441 O463 2.482 . S
La441 O465 2.503 . S
La441 O466 2.521 . S
La441 O467 2.628 . S
La441 O468 2.554 . S
La441 O469 2.757 . S
La441 O470 2.470 . S
C442 La440 2.928 . S
C442 C443 1.503 1_554 S
C442 O460 1.261 . S
C442 O461 1.243 . S
C443 C442 1.503 1_556 S
C443 C444 1.394 . S
C443 C448 1.373 . S
C444 C443 1.394 . S
C444 C445 1.380 . S
C444 H472 0.930 . S
C445 C444 1.380 . S
C445 C446 1.376 . S
C445 H473 0.930 . S
C446 C445 1.376 . S
C446 C447 1.370 . S
C447 C446 1.370 . S
C447 C448 1.396 . S
C447 H474 0.929 . S
C448 C443 1.373 . S
C448 C447 1.396 . S
C448 H475 0.929 . S
C449 O462 1.240 . S
C449 O463 1.289 . S
C450 O464 1.258 . S
C450 O465 1.256 . S
C451 La441 2.928 . S
C451 C452 1.503 . S
C451 O466 1.261 . S
C451 O467 1.243 . S
C452 C451 1.503 . S
C452 C453 1.394 . S
C452 C457 1.373 . S
C453 C452 1.394 . S
C453 C454 1.380 . S
C453 H476 0.930 . S
C454 C453 1.380 . S
C454 C455 1.376 . S
C454 H477 0.930 . S
C455 C454 1.376 . S
C455 C456 1.370 . S
C456 C455 1.370 . S
C456 C457 1.396 . S
C456 H478 0.929 . S
C457 C452 1.373 . S
C457 C456 1.396 . S
C457 H479 0.929 . S
C458 O468 1.240 . S
C458 O469 1.289 . S
C459 O470 1.258 . S
C459 O471 1.256 . S
O460 La440 2.521 . S
O460 C442 1.261 . S
O461 La440 2.628 . S
O461 C442 1.243 . S
O462 La440 2.554 . S
O462 C449 1.240 . S
O463 La440 2.757 . S
O463 La441 2.482 . S
O463 C449 1.289 . S
O464 La440 2.470 . S
O464 C450 1.258 . S
O465 La441 2.503 . S
O465 C450 1.256 . S
O466 La441 2.521 . S
O466 C451 1.261 . S
O467 La441 2.628 . S
O467 C451 1.243 . S
O468 La441 2.554 . S
O468 C458 1.240 . S
O469 La440 2.482 . S
O469 La441 2.757 . S
O469 C458 1.289 . S
O470 La441 2.470 . S
O470 C459 1.258 . S
O471 La440 2.503 . S
O471 C459 1.256 . S
H472 C444 0.930 . S
H473 C445 0.930 . S
H474 C447 0.929 . S
H475 C448 0.929 . S
H476 C453 0.930 . S
H477 C454 0.930 . S
H478 C456 0.929 . S
H479 C457 0.929 . S
C480 C481 1.349 . S
C480 C482 1.327 . S
C480 H505 0.950 . S
C481 C480 1.349 . S
C481 C497 1.349 . S
C482 C480 1.327 . S
C482 C501 1.429 . S
C482 H506 0.950 . S
C483 C500 1.574 . S
C483 C502 1.368 . S
C483 H507 0.949 . S
H484 C488 0.949 . S
C485 C486 1.349 . S
C485 C487 1.327 . S
C485 H508 0.950 . S
C486 C485 1.349 . S
C486 C498 1.349 . S
C487 C485 1.327 . S
C487 C503 1.429 . S
C487 H509 0.950 . S
C488 H484 0.949 . S
C488 C496 1.574 . S
C488 C504 1.368 . S
H489 C497 0.950 . S
H490 C495 0.950 . S
H491 C496 0.949 . S
H492 C498 0.950 . S
H493 C499 0.950 . S
H494 C500 0.949 . S
C495 H490 0.950 . S
C495 C497 1.327 . S
C495 C501 1.429 . S
C496 C488 1.574 . S
C496 H491 0.949 . S
C496 C502 1.368 . S
C497 C481 1.349 . S
C497 H489 0.950 . S
C497 C495 1.327 . S
C498 C486 1.349 . S
C498 H492 0.950 . S
C498 C499 1.327 . S
C499 H493 0.950 . S
C499 C498 1.327 . S
C499 C503 1.429 . S
C500 C483 1.574 . S
C500 H494 0.949 . S
C500 C504 1.368 . S
C501 C482 1.429 . S
C501 C495 1.429 . S
C501 C502 1.523 . S
C502 C483 1.368 . S
C502 C496 1.368 . S
C502 C501 1.523 . S
C503 C487 1.429 . S
C503 C499 1.429 . S
C503 C504 1.523 . S
C504 C488 1.368 . S
C504 C500 1.368 . S
C504 C503 1.523 . S
H505 C480 0.950 . S
H506 C482 0.950 . S
H507 C483 0.949 . S
H508 C485 0.950 . S
H509 C487 0.950 . S
C510 C511 1.349 . S
C510 C512 1.327 . S
C510 H535 0.950 . S
C511 C510 1.349 . S
C511 C527 1.349 . S
C512 C510 1.327 . S
C512 C531 1.429 . S
C512 H536 0.950 . S
C513 C530 1.574 . S
C513 C532 1.368 . S
C513 H537 0.949 . S
H514 C518 0.949 . S
C515 C516 1.349 . S
C515 C517 1.327 . S
C515 H538 0.950 . S
C516 C515 1.349 . S
C516 C528 1.349 . S
C517 C515 1.327 . S
C517 C533 1.429 . S
C517 H539 0.950 . S
C518 H514 0.949 . S
C518 C526 1.574 . S
C518 C534 1.368 . S
H519 C527 0.950 . S
H520 C525 0.950 . S
H521 C526 0.949 . S
H522 C528 0.950 . S
H523 C529 0.950 . S
H524 C530 0.949 . S
C525 H520 0.950 . S
C525 C527 1.327 . S
C525 C531 1.429 . S
C526 C518 1.574 . S
C526 H521 0.949 . S
C526 C532 1.368 . S
C527 C511 1.349 . S
C527 H519 0.950 . S
C527 C525 1.327 . S
C528 C516 1.349 . S
C528 H522 0.950 . S
C528 C529 1.327 . S
C529 H523 0.950 . S
C529 C528 1.327 . S
C529 C533 1.429 . S
C530 C513 1.574 . S
C530 H524 0.949 . S
C530 C534 1.368 . S
C531 C512 1.429 . S
C531 C525 1.429 . S
C531 C532 1.523 . S
C532 C513 1.368 . S
C532 C526 1.368 . S
C532 C531 1.523 . S
C533 C517 1.429 . S
C533 C529 1.429 . S
C533 C534 1.523 . S
C534 C518 1.368 . S
C534 C530 1.368 . S
C534 C533 1.523 . S
H535 C510 0.950 . S
H536 C512 0.950 . S
H537 C513 0.949 . S
H538 C515 0.950 . S
H539 C517 0.950 . S
C540 C541 1.349 . S
C540 C542 1.327 . S
C540 H565 0.950 . S
C541 C540 1.349 . S
C541 C557 1.349 . S
C542 C540 1.327 . S
C542 C561 1.429 . S
C542 H566 0.950 . S
C543 C560 1.574 . S
C543 C562 1.368 . S
C543 H567 0.949 . S
H544 C548 0.949 . S
C545 C546 1.349 . S
C545 C547 1.327 . S
C545 H568 0.950 . S
C546 C545 1.349 . S
C546 C558 1.349 . S
C547 C545 1.327 . S
C547 C563 1.429 . S
C547 H569 0.950 . S
C548 H544 0.949 . S
C548 C556 1.574 . S
C548 C564 1.368 . S
H549 C557 0.950 . S
H550 C555 0.950 . S
H551 C556 0.949 . S
H552 C558 0.950 . S
H553 C559 0.950 . S
H554 C560 0.949 . S
C555 H550 0.950 . S
C555 C557 1.327 . S
C555 C561 1.429 . S
C556 C548 1.574 . S
C556 H551 0.949 . S
C556 C562 1.368 . S
C557 C541 1.349 . S
C557 H549 0.950 . S
C557 C555 1.327 . S
C558 C546 1.349 . S
C558 H552 0.950 . S
C558 C559 1.327 . S
C559 H553 0.950 . S
C559 C558 1.327 . S
C559 C563 1.429 . S
C560 C543 1.574 . S
C560 H554 0.949 . S
C560 C564 1.368 . S
C561 C542 1.429 . S
C561 C555 1.429 . S
C561 C562 1.523 . S
C562 C543 1.368 . S
C562 C556 1.368 . S
C562 C561 1.523 . S
C563 C547 1.429 . S
C563 C559 1.429 . S
C563 C564 1.523 . S
C564 C548 1.368 . S
C564 C560 1.368 . S
C564 C563 1.523 . S
H565 C540 0.950 . S
H566 C542 0.950 . S
H567 C543 0.949 . S
H568 C545 0.950 . S
H569 C547 0.950 . S
C570 C571 1.349 . S
C570 C572 1.327 . S
C570 H595 0.950 . S
C571 C570 1.349 . S
C571 C587 1.349 . S
C572 C570 1.327 . S
C572 C591 1.429 . S
C572 H596 0.950 . S
C573 C590 1.574 . S
C573 C592 1.368 . S
C573 H597 0.949 . S
H574 C578 0.949 . S
C575 C576 1.349 . S
C575 C577 1.327 . S
C575 H598 0.950 . S
C576 C575 1.349 . S
C576 C588 1.349 . S
C577 C575 1.327 . S
C577 C593 1.429 . S
C577 H599 0.950 . S
C578 H574 0.949 . S
C578 C586 1.574 . S
C578 C594 1.368 . S
H579 C587 0.950 . S
H580 C585 0.950 . S
H581 C586 0.949 . S
H582 C588 0.950 . S
H583 C589 0.950 . S
H584 C590 0.949 . S
C585 H580 0.950 . S
C585 C587 1.327 . S
C585 C591 1.429 . S
C586 C578 1.574 . S
C586 H581 0.949 . S
C586 C592 1.368 . S
C587 C571 1.349 . S
C587 H579 0.950 . S
C587 C585 1.327 . S
C588 C576 1.349 . S
C588 H582 0.950 . S
C588 C589 1.327 . S
C589 H583 0.950 . S
C589 C588 1.327 . S
C589 C593 1.429 . S
C590 C573 1.574 . S
C590 H584 0.949 . S
C590 C594 1.368 . S
C591 C572 1.429 . S
C591 C585 1.429 . S
C591 C592 1.523 . S
C592 C573 1.368 . S
C592 C586 1.368 . S
C592 C591 1.523 . S
C593 C577 1.429 . S
C593 C589 1.429 . S
C593 C594 1.523 . S
C594 C578 1.368 . S
C594 C590 1.368 . S
C594 C593 1.523 . S
H595 C570 0.950 . S
H596 C572 0.950 . S
H597 C573 0.949 . S
H598 C575 0.950 . S
H599 C577 0.950 . S
C600 C601 1.349 . S
C600 C602 1.327 . S
C600 H625 0.950 . S
C601 C600 1.349 . S
C601 C617 1.349 . S
C602 C600 1.327 . S
C602 C621 1.429 . S
C602 H626 0.950 . S
C603 C620 1.574 . S
C603 C622 1.368 . S
C603 H627 0.949 . S
H604 C608 0.949 . S
C605 C606 1.349 . S
C605 C607 1.327 . S
C605 H628 0.950 . S
C606 C605 1.349 . S
C606 C618 1.349 . S
C607 C605 1.327 . S
C607 C623 1.429 . S
C607 H629 0.950 . S
C608 H604 0.949 . S
C608 C616 1.574 . S
C608 C624 1.368 . S
H609 C617 0.950 . S
H610 C615 0.950 . S
H611 C616 0.949 . S
H612 C618 0.950 . S
H613 C619 0.950 . S
H614 C620 0.949 . S
C615 H610 0.950 . S
C615 C617 1.327 . S
C615 C621 1.429 . S
C616 C608 1.574 . S
C616 H611 0.949 . S
C616 C622 1.368 . S
C617 C601 1.349 . S
C617 H609 0.950 . S
C617 C615 1.327 . S
C618 C606 1.349 . S
C618 H612 0.950 . S
C618 C619 1.327 . S
C619 H613 0.950 . S
C619 C618 1.327 . S
C619 C623 1.429 . S
C620 C603 1.574 . S
C620 H614 0.949 . S
C620 C624 1.368 . S
C621 C602 1.429 . S
C621 C615 1.429 . S
C621 C622 1.523 . S
C622 C603 1.368 . S
C622 C616 1.368 . S
C622 C621 1.523 . S
C623 C607 1.429 . S
C623 C619 1.429 . S
C623 C624 1.523 . S
C624 C608 1.368 . S
C624 C620 1.368 . S
C624 C623 1.523 . S
H625 C600 0.950 . S
H626 C602 0.950 . S
H627 C603 0.949 . S
H628 C605 0.950 . S
H629 C607 0.950 . S
C630 C631 1.349 . S
C630 C632 1.327 . S
C630 H655 0.950 . S
C631 C630 1.349 . S
C631 C647 1.349 . S
C632 C630 1.327 . S
C632 C651 1.429 . S
C632 H656 0.950 . S
C633 C650 1.574 . S
C633 C652 1.368 . S
C633 H657 0.949 . S
H634 C638 0.949 . S
C635 C636 1.349 . S
C635 C637 1.327 . S
C635 H658 0.950 . S
C636 C635 1.349 . S
C636 C648 1.349 . S
C637 C635 1.327 . S
C637 C653 1.429 . S
C637 H659 0.950 . S
C638 H634 0.949 . S
C638 C646 1.574 . S
C638 C654 1.368 . S
H639 C647 0.950 . S
H640 C645 0.950 . S
H641 C646 0.949 . S
H642 C648 0.950 . S
H643 C649 0.950 . S
H644 C650 0.949 . S
C645 H640 0.950 . S
C645 C647 1.327 . S
C645 C651 1.429 . S
C646 C638 1.574 . S
C646 H641 0.949 . S
C646 C652 1.368 . S
C647 C631 1.349 . S
C647 H639 0.950 . S
C647 C645 1.327 . S
C648 C636 1.349 . S
C648 H642 0.950 . S
C648 C649 1.327 . S
C649 H643 0.950 . S
C649 C648 1.327 . S
C649 C653 1.429 . S
C650 C633 1.574 . S
C650 H644 0.949 . S
C650 C654 1.368 . S
C651 C632 1.429 . S
C651 C645 1.429 . S
C651 C652 1.523 . S
C652 C633 1.368 . S
C652 C646 1.368 . S
C652 C651 1.523 . S
C653 C637 1.429 . S
C653 C649 1.429 . S
C653 C654 1.523 . S
C654 C638 1.368 . S
C654 C650 1.368 . S
C654 C653 1.523 . S
H655 C630 0.950 . S
H656 C632 0.950 . S
H657 C633 0.949 . S
H658 C635 0.950 . S
H659 C637 0.950 . S
C660 C661 1.349 . S
C660 C662 1.327 . S
C660 H685 0.950 . S
C661 C660 1.349 . S
C661 C677 1.349 . S
C662 C660 1.327 . S
C662 C681 1.429 . S
C662 H686 0.950 . S
C663 C680 1.574 1_556 S
C663 C682 1.368 . S
C663 H687 0.949 . S
H664 C668 0.949 . S
C665 C666 1.349 . S
C665 C667 1.327 . S
C665 H688 0.950 . S
C666 C665 1.349 . S
C666 C678 1.349 . S
C667 C665 1.327 . S
C667 C683 1.429 . S
C667 H689 0.950 . S
C668 H664 0.949 . S
C668 C676 1.574 1_554 S
C668 C684 1.368 . S
H669 C677 0.950 . S
H670 C675 0.950 . S
H671 C676 0.949 . S
H672 C678 0.950 . S
H673 C679 0.950 . S
H674 C680 0.949 . S
C675 H670 0.950 . S
C675 C677 1.327 . S
C675 C681 1.429 . S
C676 C668 1.574 1_556 S
C676 H671 0.949 . S
C676 C682 1.368 . S
C677 C661 1.349 . S
C677 H669 0.950 . S
C677 C675 1.327 . S
C678 C666 1.349 . S
C678 H672 0.950 . S
C678 C679 1.327 . S
C679 H673 0.950 . S
C679 C678 1.327 . S
C679 C683 1.429 . S
C680 C663 1.574 1_554 S
C680 H674 0.949 . S
C680 C684 1.368 . S
C681 C662 1.429 . S
C681 C675 1.429 . S
C681 C682 1.523 . S
C682 C663 1.368 . S
C682 C676 1.368 . S
C682 C681 1.523 . S
C683 C667 1.429 . S
C683 C679 1.429 . S
C683 C684 1.523 . S
C684 C668 1.368 . S
C684 C680 1.368 . S
C684 C683 1.523 . S
H685 C660 0.950 . S
H686 C662 0.950 . S
H687 C663 0.949 . S
H688 C665 0.950 . S
H689 C667 0.950 . S
C690 C691 1.349 . S
C690 C692 1.327 . S
C690 H715 0.950 . S
C691 C690 1.349 . S
C691 C707 1.349 . S
C692 C690 1.327 . S
C692 C711 1.429 . S
C692 H716 0.950 . S
C693 C710 1.574 . S
C693 C712 1.368 . S
C693 H717 0.949 . S
H694 C698 0.949 . S
C695 C696 1.349 . S
C695 C697 1.327 . S
C695 H718 0.950 . S
C696 C695 1.349 . S
C696 C708 1.349 . S
C697 C695 1.327 . S
C697 C713 1.429 . S
C697 H719 0.950 . S
C698 H694 0.949 . S
C698 C706 1.574 . S
C698 C714 1.368 . S
H699 C707 0.950 . S
H700 C705 0.950 . S
H701 C706 0.949 . S
H702 C708 0.950 . S
H703 C709 0.950 . S
H704 C710 0.949 . S
C705 H700 0.950 . S
C705 C707 1.327 . S
C705 C711 1.429 . S
C706 C698 1.574 . S
C706 H701 0.949 . S
C706 C712 1.368 . S
C707 C691 1.349 . S
C707 H699 0.950 . S
C707 C705 1.327 . S
C708 C696 1.349 . S
C708 H702 0.950 . S
C708 C709 1.327 . S
C709 H703 0.950 . S
C709 C708 1.327 . S
C709 C713 1.429 . S
C710 C693 1.574 . S
C710 H704 0.949 . S
C710 C714 1.368 . S
C711 C692 1.429 . S
C711 C705 1.429 . S
C711 C712 1.523 . S
C712 C693 1.368 . S
C712 C706 1.368 . S
C712 C711 1.523 . S
C713 C697 1.429 . S
C713 C709 1.429 . S
C713 C714 1.523 . S
C714 C698 1.368 . S
C714 C710 1.368 . S
C714 C713 1.523 . S
H715 C690 0.950 . S
H716 C692 0.950 . S
H717 C693 0.949 . S
H718 C695 0.950 . S
H719 C697 0.950 . S
C720 C721 1.349 . S
C720 C722 1.327 . S
C720 H745 0.950 . S
C721 C720 1.349 . S
C721 C737 1.349 . S
C722 C720 1.327 . S
C722 C741 1.429 . S
C722 H746 0.950 . S
C723 C740 1.574 . S
C723 C742 1.368 . S
C723 H747 0.949 . S
H724 C728 0.949 . S
C725 C726 1.349 . S
C725 C727 1.327 . S
C725 H748 0.950 . S
C726 C725 1.349 . S
C726 C738 1.349 . S
C727 C725 1.327 . S
C727 C743 1.429 . S
C727 H749 0.950 . S
C728 H724 0.949 . S
C728 C736 1.574 . S
C728 C744 1.368 . S
H729 C737 0.950 . S
H730 C735 0.950 . S
H731 C736 0.949 . S
H732 C738 0.950 . S
H733 C739 0.950 . S
H734 C740 0.949 . S
C735 H730 0.950 . S
C735 C737 1.327 . S
C735 C741 1.429 . S
C736 C728 1.574 . S
C736 H731 0.949 . S
C736 C742 1.368 . S
C737 C721 1.349 . S
C737 H729 0.950 . S
C737 C735 1.327 . S
C738 C726 1.349 . S
C738 H732 0.950 . S
C738 C739 1.327 . S
C739 H733 0.950 . S
C739 C738 1.327 . S
C739 C743 1.429 . S
C740 C723 1.574 . S
C740 H734 0.949 . S
C740 C744 1.368 . S
C741 C722 1.429 . S
C741 C735 1.429 . S
C741 C742 1.523 . S
C742 C723 1.368 . S
C742 C736 1.368 . S
C742 C741 1.523 . S
C743 C727 1.429 . S
C743 C739 1.429 . S
C743 C744 1.523 . S
C744 C728 1.368 . S
C744 C740 1.368 . S
C744 C743 1.523 . S
H745 C720 0.950 . S
H746 C722 0.950 . S
H747 C723 0.949 . S
H748 C725 0.950 . S
H749 C727 0.950 . S
C750 C751 1.349 . S
C750 C752 1.327 . S
C750 H775 0.950 . S
C751 C750 1.349 . S
C751 C767 1.349 . S
C752 C750 1.327 . S
C752 C771 1.429 . S
C752 H776 0.950 . S
C753 C770 1.574 1_556 S
C753 C772 1.368 . S
C753 H777 0.949 . S
H754 C758 0.949 . S
C755 C756 1.349 . S
C755 C757 1.327 . S
C755 H778 0.950 . S
C756 C755 1.349 . S
C756 C768 1.349 . S
C757 C755 1.327 . S
C757 C773 1.429 . S
C757 H779 0.950 . S
C758 H754 0.949 . S
C758 C766 1.574 1_554 S
C758 C774 1.368 . S
H759 C767 0.950 . S
H760 C765 0.950 . S
H761 C766 0.949 . S
H762 C768 0.950 . S
H763 C769 0.950 . S
H764 C770 0.949 . S
C765 H760 0.950 . S
C765 C767 1.327 . S
C765 C771 1.429 . S
C766 C758 1.574 1_556 S
C766 H761 0.949 . S
C766 C772 1.368 . S
C767 C751 1.349 . S
C767 H759 0.950 . S
C767 C765 1.327 . S
C768 C756 1.349 . S
C768 H762 0.950 . S
C768 C769 1.327 . S
C769 H763 0.950 . S
C769 C768 1.327 . S
C769 C773 1.429 . S
C770 C753 1.574 1_554 S
C770 H764 0.949 . S
C770 C774 1.368 . S
C771 C752 1.429 . S
C771 C765 1.429 . S
C771 C772 1.523 . S
C772 C753 1.368 . S
C772 C766 1.368 . S
C772 C771 1.523 . S
C773 C757 1.429 . S
C773 C769 1.429 . S
C773 C774 1.523 . S
C774 C758 1.368 . S
C774 C770 1.368 . S
C774 C773 1.523 . S
H775 C750 0.950 . S
H776 C752 0.950 . S
H777 C753 0.949 . S
H778 C755 0.950 . S
H779 C757 0.950 . S
C780 C781 1.349 . S
C780 C782 1.327 . S
C780 H805 0.950 . S
C781 C780 1.349 . S
C781 C797 1.349 . S
C782 C780 1.327 . S
C782 C801 1.429 . S
C782 H806 0.950 . S
C783 C800 1.574 . S
C783 C802 1.368 . S
C783 H807 0.949 . S
H784 C788 0.949 . S
C785 C786 1.349 . S
C785 C787 1.327 . S
C785 H808 0.950 . S
C786 C785 1.349 . S
C786 C798 1.349 . S
C787 C785 1.327 . S
C787 C803 1.429 . S
C787 H809 0.950 . S
C788 H784 0.949 . S
C788 C796 1.574 . S
C788 C804 1.368 . S
H789 C797 0.950 . S
H790 C795 0.950 . S
H791 C796 0.949 . S
H792 C798 0.950 . S
H793 C799 0.950 . S
H794 C800 0.949 . S
C795 H790 0.950 . S
C795 C797 1.327 . S
C795 C801 1.429 . S
C796 C788 1.574 . S
C796 H791 0.949 . S
C796 C802 1.368 . S
C797 C781 1.349 . S
C797 H789 0.950 . S
C797 C795 1.327 . S
C798 C786 1.349 . S
C798 H792 0.950 . S
C798 C799 1.327 . S
C799 H793 0.950 . S
C799 C798 1.327 . S
C799 C803 1.429 . S
C800 C783 1.574 . S
C800 H794 0.949 . S
C800 C804 1.368 . S
C801 C782 1.429 . S
C801 C795 1.429 . S
C801 C802 1.523 . S
C802 C783 1.368 . S
C802 C796 1.368 . S
C802 C801 1.523 . S
C803 C787 1.429 . S
C803 C799 1.429 . S
C803 C804 1.523 . S
C804 C788 1.368 . S
C804 C800 1.368 . S
C804 C803 1.523 . S
H805 C780 0.950 . S
H806 C782 0.950 . S
H807 C783 0.949 . S
H808 C785 0.950 . S
H809 C787 0.950 . S
C810 C811 1.349 . S
C810 C812 1.327 . S
C810 H835 0.950 . S
C811 C810 1.349 . S
C811 C827 1.349 . S
C812 C810 1.327 . S
C812 C831 1.429 . S
C812 H836 0.950 . S
C813 C830 1.574 . S
C813 C832 1.368 . S
C813 H837 0.949 . S
H814 C818 0.949 . S
C815 C816 1.349 . S
C815 C817 1.327 . S
C815 H838 0.950 . S
C816 C815 1.349 . S
C816 C828 1.349 . S
C817 C815 1.327 . S
C817 C833 1.429 . S
C817 H839 0.950 . S
C818 H814 0.949 . S
C818 C826 1.574 . S
C818 C834 1.368 . S
H819 C827 0.950 . S
H820 C825 0.950 . S
H821 C826 0.949 . S
H822 C828 0.950 . S
H823 C829 0.950 . S
H824 C830 0.949 . S
C825 H820 0.950 . S
C825 C827 1.327 . S
C825 C831 1.429 . S
C826 C818 1.574 . S
C826 H821 0.949 . S
C826 C832 1.368 . S
C827 C811 1.349 . S
C827 H819 0.950 . S
C827 C825 1.327 . S
C828 C816 1.349 . S
C828 H822 0.950 . S
C828 C829 1.327 . S
C829 H823 0.950 . S
C829 C828 1.327 . S
C829 C833 1.429 . S
C830 C813 1.574 . S
C830 H824 0.949 . S
C830 C834 1.368 . S
C831 C812 1.429 . S
C831 C825 1.429 . S
C831 C832 1.523 . S
C832 C813 1.368 . S
C832 C826 1.368 . S
C832 C831 1.523 . S
C833 C817 1.429 . S
C833 C829 1.429 . S
C833 C834 1.523 . S
C834 C818 1.368 . S
C834 C830 1.368 . S
C834 C833 1.523 . S
H835 C810 0.950 . S
H836 C812 0.950 . S
H837 C813 0.949 . S
H838 C815 0.950 . S
H839 C817 0.950 . S
C840 C841 1.349 . S
C840 C842 1.327 . S
C840 H865 0.950 . S
C841 C840 1.349 . S
C841 C857 1.349 . S
C842 C840 1.327 . S
C842 C861 1.429 . S
C842 H866 0.950 . S
C843 C860 1.574 1_556 S
C843 C862 1.368 . S
C843 H867 0.949 . S
H844 C848 0.949 . S
C845 C846 1.349 . S
C845 C847 1.327 . S
C845 H868 0.950 . S
C846 C845 1.349 . S
C846 C858 1.349 . S
C847 C845 1.327 . S
C847 C863 1.429 . S
C847 H869 0.950 . S
C848 H844 0.949 . S
C848 C856 1.574 1_554 S
C848 C864 1.368 . S
H849 C857 0.950 . S
H850 C855 0.950 . S
H851 C856 0.949 . S
H852 C858 0.950 . S
H853 C859 0.950 . S
H854 C860 0.949 . S
C855 H850 0.950 . S
C855 C857 1.327 . S
C855 C861 1.429 . S
C856 C848 1.574 1_556 S
C856 H851 0.949 . S
C856 C862 1.368 1_545 S
C857 C841 1.349 . S
C857 H849 0.950 . S
C857 C855 1.327 . S
C858 C846 1.349 . S
C858 H852 0.950 . S
C858 C859 1.327 . S
C859 H853 0.950 . S
C859 C858 1.327 . S
C859 C863 1.429 . S
C860 C843 1.574 1_554 S
C860 H854 0.949 . S
C860 C864 1.368 1_565 S
C861 C842 1.429 . S
C861 C855 1.429 . S
C861 C862 1.523 . S
C862 C843 1.368 . S
C862 C856 1.368 1_565 S
C862 C861 1.523 . S
C863 C847 1.429 . S
C863 C859 1.429 . S
C863 C864 1.523 . S
C864 C848 1.368 . S
C864 C860 1.368 1_545 S
C864 C863 1.523 . S
H865 C840 0.950 . S
H866 C842 0.950 . S
H867 C843 0.949 . S
H868 C845 0.950 . S
H869 C847 0.950 . S
C870 C871 1.349 . S
C870 C872 1.327 . S
C870 H895 0.950 . S
C871 C870 1.349 . S
C871 C887 1.349 . S
C872 C870 1.327 . S
C872 C891 1.429 . S
C872 H896 0.950 . S
C873 C890 1.574 . S
C873 C892 1.368 . S
C873 H897 0.949 . S
H874 C878 0.949 . S
C875 C876 1.349 . S
C875 C877 1.327 . S
C875 H898 0.950 . S
C876 C875 1.349 . S
C876 C888 1.349 . S
C877 C875 1.327 . S
C877 C893 1.429 . S
C877 H899 0.950 . S
C878 H874 0.949 . S
C878 C886 1.574 . S
C878 C894 1.368 . S
H879 C887 0.950 . S
H880 C885 0.950 . S
H881 C886 0.949 . S
H882 C888 0.950 . S
H883 C889 0.950 . S
H884 C890 0.949 . S
C885 H880 0.950 . S
C885 C887 1.327 . S
C885 C891 1.429 . S
C886 C878 1.574 . S
C886 H881 0.949 . S
C886 C892 1.368 . S
C887 C871 1.349 . S
C887 H879 0.950 . S
C887 C885 1.327 . S
C888 C876 1.349 . S
C888 H882 0.950 . S
C888 C889 1.327 . S
C889 H883 0.950 . S
C889 C888 1.327 . S
C889 C893 1.429 . S
C890 C873 1.574 . S
C890 H884 0.949 . S
C890 C894 1.368 . S
C891 C872 1.429 . S
C891 C885 1.429 . S
C891 C892 1.523 . S
C892 C873 1.368 . S
C892 C886 1.368 . S
C892 C891 1.523 . S
C893 C877 1.429 . S
C893 C889 1.429 . S
C893 C894 1.523 . S
C894 C878 1.368 . S
C894 C890 1.368 . S
C894 C893 1.523 . S
H895 C870 0.950 . S
H896 C872 0.950 . S
H897 C873 0.949 . S
H898 C875 0.950 . S
H899 C877 0.950 . S
C900 C901 1.349 . S
C900 C902 1.327 . S
C900 H925 0.950 . S
C901 C900 1.349 . S
C901 C917 1.349 . S
C902 C900 1.327 . S
C902 C921 1.429 . S
C902 H926 0.950 . S
C903 C920 1.574 1_455 S
C903 C922 1.368 . S
C903 H927 0.949 . S
H904 C908 0.949 . S
C905 C906 1.349 . S
C905 C907 1.327 . S
C905 H928 0.950 . S
C906 C905 1.349 . S
C906 C918 1.349 . S
C907 C905 1.327 . S
C907 C923 1.429 . S
C907 H929 0.950 . S
C908 H904 0.949 . S
C908 C916 1.574 1_655 S
C908 C924 1.368 . S
H909 C917 0.950 . S
H910 C915 0.950 . S
H911 C916 0.949 . S
H912 C918 0.950 . S
H913 C919 0.950 . S
H914 C920 0.949 . S
C915 H910 0.950 . S
C915 C917 1.327 . S
C915 C921 1.429 . S
C916 C908 1.574 1_455 S
C916 H911 0.949 . S
C916 C922 1.368 . S
C917 C901 1.349 . S
C917 H909 0.950 . S
C917 C915 1.327 . S
C918 C906 1.349 . S
C918 H912 0.950 . S
C918 C919 1.327 . S
C919 H913 0.950 . S
C919 C918 1.327 . S
C919 C923 1.429 . S
C920 C903 1.574 1_655 S
C920 H914 0.949 . S
C920 C924 1.368 . S
C921 C902 1.429 . S
C921 C915 1.429 . S
C921 C922 1.523 . S
C922 C903 1.368 . S
C922 C916 1.368 . S
C922 C921 1.523 . S
C923 C907 1.429 . S
C923 C919 1.429 . S
C923 C924 1.523 . S
C924 C908 1.368 . S
C924 C920 1.368 . S
C924 C923 1.523 . S
H925 C900 0.950 . S
H926 C902 0.950 . S
H927 C903 0.949 . S
H928 C905 0.950 . S
H929 C907 0.950 . S
C930 C931 1.349 . S
C930 C932 1.327 . S
C930 H955 0.950 . S
C931 C930 1.349 . S
C931 C947 1.349 . S
C932 C930 1.327 . S
C932 C951 1.429 . S
C932 H956 0.950 . S
C933 C950 1.574 1_554 S
C933 C952 1.368 1_545 S
C933 H957 0.949 . S
H934 C938 0.949 . S
C935 C936 1.349 . S
C935 C937 1.327 . S
C935 H958 0.950 . S
C936 C935 1.349 . S
C936 C948 1.349 . S
C937 C935 1.327 . S
C937 C953 1.429 . S
C937 H959 0.950 . S
C938 H934 0.949 . S
C938 C946 1.574 1_556 S
C938 C954 1.368 1_565 S
H939 C947 0.950 . S
H940 C945 0.950 . S
H941 C946 0.949 . S
H942 C948 0.950 . S
H943 C949 0.950 . S
H944 C950 0.949 . S
C945 H940 0.950 . S
C945 C947 1.327 . S
C945 C951 1.429 . S
C946 C938 1.574 1_554 S
C946 H941 0.949 . S
C946 C952 1.368 . S
C947 C931 1.349 . S
C947 H939 0.950 . S
C947 C945 1.327 . S
C948 C936 1.349 . S
C948 H942 0.950 . S
C948 C949 1.327 . S
C949 H943 0.950 . S
C949 C948 1.327 . S
C949 C953 1.429 . S
C950 C933 1.574 1_556 S
C950 H944 0.949 . S
C950 C954 1.368 . S
C951 C932 1.429 . S
C951 C945 1.429 . S
C951 C952 1.523 . S
C952 C933 1.368 1_565 S
C952 C946 1.368 . S
C952 C951 1.523 . S
C953 C937 1.429 . S
C953 C949 1.429 . S
C953 C954 1.523 . S
C954 C938 1.368 1_545 S
C954 C950 1.368 . S
C954 C953 1.523 . S
H955 C930 0.950 . S
H956 C932 0.950 . S
H957 C933 0.949 . S
H958 C935 0.950 . S
H959 C937 0.950 . S
C960 C961 1.349 . S
C960 C962 1.327 . S
C960 H985 0.950 . S
C961 C960 1.349 . S
C961 C977 1.349 . S
C962 C960 1.327 . S
C962 C981 1.429 . S
C962 H986 0.950 . S
C963 C980 1.574 . S
C963 C982 1.368 . S
C963 H987 0.949 . S
H964 C968 0.949 . S
C965 C966 1.349 . S
C965 C967 1.327 . S
C965 H988 0.950 . S
C966 C965 1.349 . S
C966 C978 1.349 . S
C967 C965 1.327 . S
C967 C983 1.429 . S
C967 H989 0.950 . S
C968 H964 0.949 . S
C968 C976 1.574 . S
C968 C984 1.368 . S
H969 C977 0.950 . S
H970 C975 0.950 . S
H971 C976 0.949 . S
H972 C978 0.950 . S
H973 C979 0.950 . S
H974 C980 0.949 . S
C975 H970 0.950 . S
C975 C977 1.327 . S
C975 C981 1.429 . S
C976 C968 1.574 . S
C976 H971 0.949 . S
C976 C982 1.368 . S
C977 C961 1.349 . S
C977 H969 0.950 . S
C977 C975 1.327 . S
C978 C966 1.349 . S
C978 H972 0.950 . S
C978 C979 1.327 . S
C979 H973 0.950 . S
C979 C978 1.327 . S
C979 C983 1.429 . S
C980 C963 1.574 . S
C980 H974 0.949 . S
C980 C984 1.368 . S
C981 C962 1.429 . S
C981 C975 1.429 . S
C981 C982 1.523 . S
C982 C963 1.368 . S
C982 C976 1.368 . S
C982 C981 1.523 . S
C983 C967 1.429 . S
C983 C979 1.429 . S
C983 C984 1.523 . S
C984 C968 1.368 . S
C984 C980 1.368 . S
C984 C983 1.523 . S
H985 C960 0.950 . S
H986 C962 0.950 . S
H987 C963 0.949 . S
H988 C965 0.950 . S
H989 C967 0.950 . S
C990 C991 1.349 . S
C990 C992 1.327 . S
C990 H1015 0.950 . S
C991 C990 1.349 . S
C991 C1007 1.349 . S
C992 C990 1.327 . S
C992 C1011 1.429 . S
C992 H1016 0.950 1_455 S
C993 C1010 1.574 . S
C993 C1012 1.368 . S
C993 H1017 0.949 . S
H994 C998 0.949 . S
C995 C996 1.349 . S
C995 C997 1.327 . S
C995 H1018 0.950 . S
C996 C995 1.349 . S
C996 C1008 1.349 . S
C997 C995 1.327 . S
C997 C1013 1.429 . S
C997 H1019 0.950 1_655 S
C998 H994 0.949 . S
C998 C1006 1.574 . S
C998 C1014 1.368 . S
H999 C1007 0.950 . S
H1000 C1005 0.950 . S
H1001 C1006 0.949 . S
H1002 C1008 0.950 . S
H1003 C1009 0.950 . S
H1004 C1010 0.949 . S
C1005 H1000 0.950 . S
C1005 C1007 1.327 . S
C1005 C1011 1.429 . S
C1006 C998 1.574 . S
C1006 H1001 0.949 . S
C1006 C1012 1.368 1_655 S
C1007 C991 1.349 . S
C1007 H999 0.950 . S
C1007 C1005 1.327 . S
C1008 C996 1.349 . S
C1008 H1002 0.950 . S
C1008 C1009 1.327 . S
C1009 H1003 0.950 . S
C1009 C1008 1.327 . S
C1009 C1013 1.429 . S
C1010 C993 1.574 . S
C1010 H1004 0.949 . S
C1010 C1014 1.368 1_455 S
C1011 C992 1.429 . S
C1011 C1005 1.429 . S
C1011 C1012 1.523 . S
C1012 C993 1.368 . S
C1012 C1006 1.368 1_455 S
C1012 C1011 1.523 . S
C1013 C997 1.429 . S
C1013 C1009 1.429 . S
C1013 C1014 1.523 . S
C1014 C998 1.368 . S
C1014 C1010 1.368 1_655 S
C1014 C1013 1.523 . S
H1015 C990 0.950 . S
H1016 C992 0.950 1_655 S
H1017 C993 0.949 . S
H1018 C995 0.950 . S
H1019 C997 0.950 1_455 S
C1020 C1021 1.349 . S
C1020 C1022 1.327 . S
C1020 H1045 0.950 . S
C1021 C1020 1.349 . S
C1021 C1037 1.349 . S
C1022 C1020 1.327 . S
C1022 C1041 1.429 . S
C1022 H1046 0.950 . S
C1023 C1040 1.606 . S
C1023 C1042 1.350 1_565 S
C1023 H1047 0.950 . S
H1024 C1028 0.950 . S
C1025 C1026 1.349 . S
C1025 C1027 1.327 . S
C1025 H1048 0.950 . S
C1026 C1025 1.349 . S
C1026 C1038 1.349 . S
C1027 C1025 1.327 . S
C1027 C1043 1.429 . S
C1027 H1049 0.950 . S
C1028 H1024 0.950 . S
C1028 C1036 1.606 . S
C1028 C1044 1.350 1_545 S
H1029 C1037 0.950 . S
H1030 C1035 0.950 . S
H1031 C1036 0.949 . S
H1032 C1038 0.950 . S
H1033 C1039 0.950 . S
H1034 C1040 0.949 . S
C1035 H1030 0.950 . S
C1035 C1037 1.327 . S
C1035 C1041 1.429 . S
C1036 C1028 1.606 . S
C1036 H1031 0.949 . S
C1036 C1042 1.368 . S
C1037 C1021 1.349 . S
C1037 H1029 0.950 . S
C1037 C1035 1.327 . S
C1038 C1026 1.349 . S
C1038 H1032 0.950 . S
C1038 C1039 1.327 . S
C1039 H1033 0.950 . S
C1039 C1038 1.327 . S
C1039 C1043 1.429 . S
C1040 C1023 1.606 . S
C1040 H1034 0.949 . S
C1040 C1044 1.368 . S
C1041 C1022 1.429 . S
C1041 C1035 1.429 . S
C1041 C1042 1.523 . S
C1042 C1023 1.350 1_545 S
C1042 C1036 1.368 . S
C1042 C1041 1.523 . S
C1043 C1027 1.429 . S
C1043 C1039 1.429 . S
C1043 C1044 1.523 . S
C1044 C1028 1.350 1_565 S
C1044 C1040 1.368 . S
C1044 C1043 1.523 . S
H1045 C1020 0.950 . S
H1046 C1022 0.950 . S
H1047 C1023 0.950 . S
H1048 C1025 0.950 . S
H1049 C1027 0.950 . S
C1050 C1051 1.349 . S
C1050 C1052 1.327 . S
C1050 H1075 0.950 . S
C1051 C1050 1.349 . S
C1051 C1067 1.349 . S
C1052 C1050 1.327 . S
C1052 C1071 1.429 . S
C1052 H1076 0.950 . S
C1053 C1070 1.574 . S
C1053 C1072 1.368 . S
C1053 H1077 0.949 . S
H1054 C1058 0.949 . S
C1055 C1056 1.349 . S
C1055 C1057 1.327 . S
C1055 H1078 0.950 . S
C1056 C1055 1.349 . S
C1056 C1068 1.349 . S
C1057 C1055 1.327 . S
C1057 C1073 1.429 . S
C1057 H1079 0.950 . S
C1058 H1054 0.949 . S
C1058 C1066 1.574 . S
C1058 C1074 1.368 . S
H1059 C1067 0.950 . S
H1060 C1065 0.950 . S
H1061 C1066 0.949 . S
H1062 C1068 0.950 . S
H1063 C1069 0.950 . S
H1064 C1070 0.949 . S
C1065 H1060 0.950 . S
C1065 C1067 1.327 . S
C1065 C1071 1.429 . S
C1066 C1058 1.574 . S
C1066 H1061 0.949 . S
C1066 C1072 1.368 . S
C1067 C1051 1.349 . S
C1067 H1059 0.950 . S
C1067 C1065 1.327 . S
C1068 C1056 1.349 . S
C1068 H1062 0.950 . S
C1068 C1069 1.327 . S
C1069 H1063 0.950 . S
C1069 C1068 1.327 . S
C1069 C1073 1.429 . S
C1070 C1053 1.574 . S
C1070 H1064 0.949 . S
C1070 C1074 1.368 . S
C1071 C1052 1.429 . S
C1071 C1065 1.429 . S
C1071 C1072 1.523 . S
C1072 C1053 1.368 . S
C1072 C1066 1.368 . S
C1072 C1071 1.523 . S
C1073 C1057 1.429 . S
C1073 C1069 1.429 . S
C1073 C1074 1.523 . S
C1074 C1058 1.368 . S
C1074 C1070 1.368 . S
C1074 C1073 1.523 . S
H1075 C1050 0.950 . S
H1076 C1052 0.950 . S
H1077 C1053 0.949 . S
H1078 C1055 0.950 . S
H1079 C1057 0.950 . S
C1080 C1081 1.349 . S
C1080 C1082 1.327 . S
C1080 H1105 0.950 . S
C1081 C1080 1.349 . S
C1081 C1097 1.349 . S
C1082 C1080 1.327 . S
C1082 C1101 1.429 . S
C1082 H1106 0.950 . S
C1083 C1100 1.581 . S
C1083 C1102 1.368 . S
C1083 H1107 0.949 . S
H1084 C1088 0.949 . S
C1085 C1086 1.349 . S
C1085 C1087 1.327 . S
C1085 H1108 0.950 . S
C1086 C1085 1.349 . S
C1086 C1098 1.349 . S
C1087 C1085 1.327 . S
C1087 C1103 1.429 . S
C1087 H1109 0.950 . S
C1088 H1084 0.949 . S
C1088 C1096 1.581 . S
C1088 C1104 1.368 . S
H1089 C1097 0.950 . S
H1090 C1095 0.950 . S
H1091 C1096 0.948 . S
H1092 C1098 0.950 . S
H1093 C1099 0.950 . S
H1094 C1100 0.948 . S
C1095 H1090 0.950 . S
C1095 C1097 1.327 . S
C1095 C1101 1.429 . S
C1096 C1088 1.581 . S
C1096 H1091 0.948 . S
C1096 C1102 1.348 1_455 S
C1097 C1081 1.349 . S
C1097 H1089 0.950 . S
C1097 C1095 1.327 . S
C1098 C1086 1.349 . S
C1098 H1092 0.950 . S
C1098 C1099 1.327 . S
C1099 H1093 0.950 . S
C1099 C1098 1.327 . S
C1099 C1103 1.429 . S
C1100 C1083 1.581 . S
C1100 H1094 0.948 . S
C1100 C1104 1.348 1_655 S
C1101 C1082 1.429 . S
C1101 C1095 1.429 . S
C1101 C1102 1.523 . S
C1102 C1083 1.368 . S
C1102 C1096 1.348 1_655 S
C1102 C1101 1.523 . S
C1103 C1087 1.429 . S
C1103 C1099 1.429 . S
C1103 C1104 1.523 . S
C1104 C1088 1.368 . S
C1104 C1100 1.348 1_455 S
C1104 C1103 1.523 . S
H1105 C1080 0.950 . S
H1106 C1082 0.950 . S
H1107 C1083 0.949 . S
H1108 C1085 0.950 . S
H1109 C1087 0.950 . S
C1110 C1111 1.349 . S
C1110 C1112 1.327 . S
C1110 H1135 0.950 . S
C1111 C1110 1.349 . S
C1111 C1127 1.349 . S
C1112 C1110 1.327 . S
C1112 C1131 1.429 . S
C1112 H1136 0.950 . S
C1113 C1130 1.606 . S
C1113 C1132 1.368 . S
C1113 H1137 0.949 . S
H1114 C1118 0.949 . S
C1115 C1116 1.349 . S
C1115 C1117 1.327 . S
C1115 H1138 0.950 . S
C1116 C1115 1.349 . S
C1116 C1128 1.349 . S
C1117 C1115 1.327 . S
C1117 C1133 1.429 . S
C1117 H1139 0.950 . S
C1118 H1114 0.949 . S
C1118 C1126 1.606 . S
C1118 C1134 1.368 . S
H1119 C1127 0.950 . S
H1120 C1125 0.950 . S
H1121 C1126 0.950 . S
H1122 C1128 0.950 . S
H1123 C1129 0.950 . S
H1124 C1130 0.950 . S
C1125 H1120 0.950 . S
C1125 C1127 1.327 . S
C1125 C1131 1.429 . S
C1126 C1118 1.606 . S
C1126 H1121 0.950 . S
C1126 C1132 1.350 1_655 S
C1127 C1111 1.349 . S
C1127 H1119 0.950 . S
C1127 C1125 1.327 . S
C1128 C1116 1.349 . S
C1128 H1122 0.950 . S
C1128 C1129 1.327 . S
C1129 H1123 0.950 . S
C1129 C1128 1.327 . S
C1129 C1133 1.429 . S
C1130 C1113 1.606 . S
C1130 H1124 0.950 . S
C1130 C1134 1.350 1_455 S
C1131 C1112 1.429 . S
C1131 C1125 1.429 . S
C1131 C1132 1.523 . S
C1132 C1113 1.368 . S
C1132 C1126 1.350 1_455 S
C1132 C1131 1.523 . S
C1133 C1117 1.429 . S
C1133 C1129 1.429 . S
C1133 C1134 1.523 . S
C1134 C1118 1.368 . S
C1134 C1130 1.350 1_655 S
C1134 C1133 1.523 . S
H1135 C1110 0.950 . S
H1136 C1112 0.950 . S
H1137 C1113 0.949 . S
H1138 C1115 0.950 . S
H1139 C1117 0.950 . S
C1140 C1141 1.349 . S
C1140 C1142 1.327 . S
C1140 H1165 0.950 . S
C1141 C1140 1.349 . S
C1141 C1157 1.349 . S
C1142 C1140 1.327 . S
C1142 C1161 1.429 . S
C1142 H1166 0.950 . S
C1143 C1160 1.581 . S
C1143 C1162 1.368 . S
C1143 H1167 0.949 . S
H1144 C1148 0.949 . S
C1145 C1146 1.349 . S
C1145 C1147 1.327 . S
C1145 H1168 0.950 . S
C1146 C1145 1.349 . S
C1146 C1158 1.349 . S
C1147 C1145 1.327 . S
C1147 C1163 1.429 . S
C1147 H1169 0.950 . S
C1148 H1144 0.949 . S
C1148 C1156 1.581 . S
C1148 C1164 1.368 . S
H1149 C1157 0.950 . S
H1150 C1155 0.950 . S
H1151 C1156 0.948 . S
H1152 C1158 0.950 . S
H1153 C1159 0.950 . S
H1154 C1160 0.948 . S
C1155 H1150 0.950 . S
C1155 C1157 1.327 . S
C1155 C1161 1.429 . S
C1156 C1148 1.581 . S
C1156 H1151 0.948 . S
C1156 C1162 1.348 1_545 S
C1157 C1141 1.349 . S
C1157 H1149 0.950 . S
C1157 C1155 1.327 . S
C1158 C1146 1.349 . S
C1158 H1152 0.950 . S
C1158 C1159 1.327 . S
C1159 H1153 0.950 . S
C1159 C1158 1.327 . S
C1159 C1163 1.429 . S
C1160 C1143 1.581 . S
C1160 H1154 0.948 . S
C1160 C1164 1.348 1_565 S
C1161 C1142 1.429 . S
C1161 C1155 1.429 . S
C1161 C1162 1.523 . S
C1162 C1143 1.368 . S
C1162 C1156 1.348 1_565 S
C1162 C1161 1.523 . S
C1163 C1147 1.429 . S
C1163 C1159 1.429 . S
C1163 C1164 1.523 . S
C1164 C1148 1.368 . S
C1164 C1160 1.348 1_545 S
C1164 C1163 1.523 . S
H1165 C1140 0.950 . S
H1166 C1142 0.950 . S
H1167 C1143 0.949 . S
H1168 C1145 0.950 . S
H1169 C1147 0.950 . S
C1170 C1171 1.349 . S
C1170 C1172 1.327 . S
C1170 H1195 0.950 . S
C1171 C1170 1.349 . S
C1171 C1187 1.349 . S
C1172 C1170 1.327 . S
C1172 C1191 1.429 . S
C1172 H1196 0.950 . S
C1173 C1190 1.574 . S
C1173 C1192 1.368 . S
C1173 H1197 0.949 . S
H1174 C1178 0.949 . S
C1175 C1176 1.349 . S
C1175 C1177 1.327 . S
C1175 H1198 0.950 . S
C1176 C1175 1.349 . S
C1176 C1188 1.349 . S
C1177 C1175 1.327 . S
C1177 C1193 1.429 . S
C1177 H1199 0.950 . S
C1178 H1174 0.949 . S
C1178 C1186 1.574 . S
C1178 C1194 1.368 . S
H1179 C1187 0.950 . S
H1180 C1185 0.950 . S
H1181 C1186 0.949 . S
H1182 C1188 0.950 . S
H1183 C1189 0.950 . S
H1184 C1190 0.949 . S
C1185 H1180 0.950 . S
C1185 C1187 1.327 . S
C1185 C1191 1.429 . S
C1186 C1178 1.574 . S
C1186 H1181 0.949 . S
C1186 C1192 1.368 . S
C1187 C1171 1.349 . S
C1187 H1179 0.950 . S
C1187 C1185 1.327 . S
C1188 C1176 1.349 . S
C1188 H1182 0.950 . S
C1188 C1189 1.327 . S
C1189 H1183 0.950 . S
C1189 C1188 1.327 . S
C1189 C1193 1.429 . S
C1190 C1173 1.574 . S
C1190 H1184 0.949 . S
C1190 C1194 1.368 . S
C1191 C1172 1.429 . S
C1191 C1185 1.429 . S
C1191 C1192 1.523 . S
C1192 C1173 1.368 . S
C1192 C1186 1.368 . S
C1192 C1191 1.523 . S
C1193 C1177 1.429 . S
C1193 C1189 1.429 . S
C1193 C1194 1.523 . S
C1194 C1178 1.368 . S
C1194 C1190 1.368 . S
C1194 C1193 1.523 . S
H1195 C1170 0.950 . S
H1196 C1172 0.950 . S
H1197 C1173 0.949 . S
H1198 C1175 0.950 . S
H1199 C1177 0.950 . S
C1200 C1201 1.349 . S
C1200 C1202 1.327 . S
C1200 H1225 0.950 . S
C1201 C1200 1.349 . S
C1201 C1217 1.349 . S
C1202 C1200 1.327 . S
C1202 C1221 1.429 . S
C1202 H1226 0.950 . S
C1203 C1220 1.585 . S
C1203 C1222 1.350 1_545 S
C1203 H1227 0.952 . S
H1204 C1208 0.952 . S
C1205 C1206 1.349 . S
C1205 C1207 1.327 . S
C1205 H1228 0.950 . S
C1206 C1205 1.349 . S
C1206 C1218 1.349 . S
C1207 C1205 1.327 . S
C1207 C1223 1.429 . S
C1207 H1229 0.950 . S
C1208 H1204 0.952 . S
C1208 C1216 1.583 . S
C1208 C1224 1.352 1_565 S
H1209 C1217 0.950 . S
H1210 C1215 0.950 . S
H1211 C1216 0.949 . S
H1212 C1218 0.950 . S
H1213 C1219 0.950 . S
H1214 C1220 0.949 . S
C1215 H1210 0.950 . S
C1215 C1217 1.327 . S
C1215 C1221 1.429 . S
C1216 C1208 1.583 . S
C1216 H1211 0.949 . S
C1216 C1222 1.368 . S
C1217 C1201 1.349 . S
C1217 H1209 0.950 . S
C1217 C1215 1.327 . S
C1218 C1206 1.349 . S
C1218 H1212 0.950 . S
C1218 C1219 1.327 . S
C1219 H1213 0.950 . S
C1219 C1218 1.327 . S
C1219 C1223 1.429 . S
C1220 C1203 1.585 . S
C1220 H1214 0.949 . S
C1220 C1224 1.368 . S
C1221 C1202 1.429 . S
C1221 C1215 1.429 . S
C1221 C1222 1.523 . S
C1222 C1203 1.350 1_565 S
C1222 C1216 1.368 . S
C1222 C1221 1.523 . S
C1223 C1207 1.429 . S
C1223 C1219 1.429 . S
C1223 C1224 1.523 . S
C1224 C1208 1.352 1_545 S
C1224 C1220 1.368 . S
C1224 C1223 1.523 . S
H1225 C1200 0.950 . S
H1226 C1202 0.950 . S
H1227 C1203 0.952 . S
H1228 C1205 0.950 . S
H1229 C1207 0.950 . S
C1230 C1231 1.349 . S
C1230 C1232 1.327 . S
C1230 H1255 0.950 . S
C1231 C1230 1.349 . S
C1231 C1247 1.349 . S
C1232 C1230 1.327 . S
C1232 C1251 1.429 . S
C1232 H1256 0.950 . S
C1233 C1250 1.574 . S
C1233 C1252 1.368 . S
C1233 H1257 0.949 . S
H1234 C1238 0.949 . S
C1235 C1236 1.349 . S
C1235 C1237 1.327 . S
C1235 H1258 0.950 . S
C1236 C1235 1.349 . S
C1236 C1248 1.349 . S
C1237 C1235 1.327 . S
C1237 C1253 1.429 . S
C1237 H1259 0.950 . S
C1238 H1234 0.949 . S
C1238 C1246 1.574 . S
C1238 C1254 1.368 . S
H1239 C1247 0.950 . S
H1240 C1245 0.950 . S
H1241 C1246 0.949 . S
H1242 C1248 0.950 . S
H1243 C1249 0.950 . S
H1244 C1250 0.949 . S
C1245 H1240 0.950 . S
C1245 C1247 1.327 . S
C1245 C1251 1.429 . S
C1246 C1238 1.574 . S
C1246 H1241 0.949 . S
C1246 C1252 1.368 . S
C1247 C1231 1.349 . S
C1247 H1239 0.950 . S
C1247 C1245 1.327 . S
C1248 C1236 1.349 . S
C1248 H1242 0.950 . S
C1248 C1249 1.327 . S
C1249 H1243 0.950 . S
C1249 C1248 1.327 . S
C1249 C1253 1.429 . S
C1250 C1233 1.574 . S
C1250 H1244 0.949 . S
C1250 C1254 1.368 . S
C1251 C1232 1.429 . S
C1251 C1245 1.429 . S
C1251 C1252 1.523 . S
C1252 C1233 1.368 . S
C1252 C1246 1.368 . S
C1252 C1251 1.523 . S
C1253 C1237 1.429 . S
C1253 C1249 1.429 . S
C1253 C1254 1.523 . S
C1254 C1238 1.368 . S
C1254 C1250 1.368 . S
C1254 C1253 1.523 . S
H1255 C1230 0.950 . S
H1256 C1232 0.950 . S
H1257 C1233 0.949 . S
H1258 C1235 0.950 . S
H1259 C1237 0.950 . S
C1260 C1261 1.349 . S
C1260 C1262 1.327 . S
C1260 H1285 0.950 . S
C1261 C1260 1.349 . S
C1261 C1277 1.349 . S
C1262 C1260 1.327 . S
C1262 C1281 1.429 . S
C1262 H1286 0.950 . S
C1263 C1280 1.574 1_655 S
C1263 C1282 1.368 . S
C1263 H1287 0.949 . S
H1264 C1268 0.949 . S
C1265 C1266 1.349 . S
C1265 C1267 1.327 . S
C1265 H1288 0.950 . S
C1266 C1265 1.349 . S
C1266 C1278 1.349 . S
C1267 C1265 1.327 . S
C1267 C1283 1.429 . S
C1267 H1289 0.950 . S
C1268 H1264 0.949 . S
C1268 C1276 1.574 1_455 S
C1268 C1284 1.368 . S
H1269 C1277 0.950 . S
H1270 C1275 0.950 . S
H1271 C1276 0.949 . S
H1272 C1278 0.950 . S
H1273 C1279 0.950 . S
H1274 C1280 0.949 . S
C1275 H1270 0.950 . S
C1275 C1277 1.327 . S
C1275 C1281 1.429 . S
C1276 C1268 1.574 1_655 S
C1276 H1271 0.949 . S
C1276 C1282 1.368 . S
C1277 C1261 1.349 . S
C1277 H1269 0.950 . S
C1277 C1275 1.327 . S
C1278 C1266 1.349 . S
C1278 H1272 0.950 . S
C1278 C1279 1.327 . S
C1279 H1273 0.950 . S
C1279 C1278 1.327 . S
C1279 C1283 1.429 . S
C1280 C1263 1.574 1_455 S
C1280 H1274 0.949 . S
C1280 C1284 1.368 . S
C1281 C1262 1.429 . S
C1281 C1275 1.429 . S
C1281 C1282 1.523 . S
C1282 C1263 1.368 . S
C1282 C1276 1.368 . S
C1282 C1281 1.523 . S
C1283 C1267 1.429 . S
C1283 C1279 1.429 . S
C1283 C1284 1.523 . S
C1284 C1268 1.368 . S
C1284 C1280 1.368 . S
C1284 C1283 1.523 . S
H1285 C1260 0.950 . S
H1286 C1262 0.950 . S
H1287 C1263 0.949 . S
H1288 C1265 0.950 . S
H1289 C1267 0.950 . S
C1290 C1291 1.349 . S
C1290 C1292 1.327 . S
C1290 H1315 0.950 . S
C1291 C1290 1.349 . S
C1291 C1307 1.349 . S
C1292 C1290 1.327 . S
C1292 C1311 1.429 . S
C1292 H1316 0.950 . S
C1293 C1310 1.574 . S
C1293 C1312 1.368 . S
C1293 H1317 0.949 . S
H1294 C1298 0.949 . S
C1295 C1296 1.349 . S
C1295 C1297 1.327 . S
C1295 H1318 0.950 . S
C1296 C1295 1.349 . S
C1296 C1308 1.349 . S
C1297 C1295 1.327 . S
C1297 C1313 1.429 . S
C1297 H1319 0.950 . S
C1298 H1294 0.949 . S
C1298 C1306 1.574 . S
C1298 C1314 1.368 . S
H1299 C1307 0.950 . S
H1300 C1305 0.950 . S
H1301 C1306 0.949 . S
H1302 C1308 0.950 . S
H1303 C1309 0.950 . S
H1304 C1310 0.949 . S
C1305 H1300 0.950 . S
C1305 C1307 1.327 . S
C1305 C1311 1.429 . S
C1306 C1298 1.574 . S
C1306 H1301 0.949 . S
C1306 C1312 1.368 1_565 S
C1307 C1291 1.349 . S
C1307 H1299 0.950 . S
C1307 C1305 1.327 . S
C1308 C1296 1.349 . S
C1308 H1302 0.950 . S
C1308 C1309 1.327 . S
C1309 H1303 0.950 . S
C1309 C1308 1.327 . S
C1309 C1313 1.429 . S
C1310 C1293 1.574 . S
C1310 H1304 0.949 . S
C1310 C1314 1.368 1_545 S
C1311 C1292 1.429 . S
C1311 C1305 1.429 . S
C1311 C1312 1.523 . S
C1312 C1293 1.368 . S
C1312 C1306 1.368 1_545 S
C1312 C1311 1.523 . S
C1313 C1297 1.429 . S
C1313 C1309 1.429 . S
C1313 C1314 1.523 . S
C1314 C1298 1.368 . S
C1314 C1310 1.368 1_565 S
C1314 C1313 1.523 . S
H1315 C1290 0.950 . S
H1316 C1292 0.950 . S
H1317 C1293 0.949 . S
H1318 C1295 0.950 . S
H1319 C1297 0.950 . S
C1320 C1321 1.349 . S
C1320 C1322 1.327 . S
C1320 H1345 0.950 . S
C1321 C1320 1.349 . S
C1321 C1337 1.349 . S
C1322 C1320 1.327 . S
C1322 C1341 1.429 . S
C1322 H1346 0.950 . S
C1323 C1340 1.574 . S
C1323 C1342 1.368 . S
C1323 H1347 0.949 . S
H1324 C1328 0.949 . S
C1325 C1326 1.349 . S
C1325 C1327 1.327 . S
C1325 H1348 0.950 . S
C1326 C1325 1.349 . S
C1326 C1338 1.349 . S
C1327 C1325 1.327 . S
C1327 C1343 1.429 . S
C1327 H1349 0.950 . S
C1328 H1324 0.949 . S
C1328 C1336 1.574 . S
C1328 C1344 1.368 . S
H1329 C1337 0.950 . S
H1330 C1335 0.950 . S
H1331 C1336 0.949 . S
H1332 C1338 0.950 . S
H1333 C1339 0.950 . S
H1334 C1340 0.949 . S
C1335 H1330 0.950 . S
C1335 C1337 1.327 . S
C1335 C1341 1.429 . S
C1336 C1328 1.574 . S
C1336 H1331 0.949 . S
C1336 C1342 1.368 . S
C1337 C1321 1.349 . S
C1337 H1329 0.950 . S
C1337 C1335 1.327 . S
C1338 C1326 1.349 . S
C1338 H1332 0.950 . S
C1338 C1339 1.327 . S
C1339 H1333 0.950 . S
C1339 C1338 1.327 . S
C1339 C1343 1.429 . S
C1340 C1323 1.574 . S
C1340 H1334 0.949 . S
C1340 C1344 1.368 . S
C1341 C1322 1.429 . S
C1341 C1335 1.429 . S
C1341 C1342 1.523 . S
C1342 C1323 1.368 . S
C1342 C1336 1.368 . S
C1342 C1341 1.523 . S
C1343 C1327 1.429 . S
C1343 C1339 1.429 . S
C1343 C1344 1.523 . S
C1344 C1328 1.368 . S
C1344 C1340 1.368 . S
C1344 C1343 1.523 . S
H1345 C1320 0.950 . S
H1346 C1322 0.950 . S
H1347 C1323 0.949 . S
H1348 C1325 0.950 . S
H1349 C1327 0.950 . S
C1350 C1351 1.349 . S
C1350 C1352 1.327 . S
C1350 H1375 0.950 . S
C1351 C1350 1.349 . S
C1351 C1367 1.349 . S
C1352 C1350 1.327 . S
C1352 C1371 1.429 . S
C1352 H1376 0.950 . S
C1353 C1370 1.574 1_455 S
C1353 C1372 1.368 . S
C1353 H1377 0.949 . S
H1354 C1358 0.949 . S
C1355 C1356 1.349 . S
C1355 C1357 1.327 . S
C1355 H1378 0.950 . S
C1356 C1355 1.349 . S
C1356 C1368 1.349 . S
C1357 C1355 1.327 . S
C1357 C1373 1.429 . S
C1357 H1379 0.950 . S
C1358 H1354 0.949 . S
C1358 C1366 1.574 1_655 S
C1358 C1374 1.368 . S
H1359 C1367 0.950 . S
H1360 C1365 0.950 . S
H1361 C1366 0.949 . S
H1362 C1368 0.950 . S
H1363 C1369 0.950 . S
H1364 C1370 0.949 . S
C1365 H1360 0.950 . S
C1365 C1367 1.327 . S
C1365 C1371 1.429 . S
C1366 C1358 1.574 1_455 S
C1366 H1361 0.949 . S
C1366 C1372 1.368 . S
C1367 C1351 1.349 . S
C1367 H1359 0.950 . S
C1367 C1365 1.327 . S
C1368 C1356 1.349 . S
C1368 H1362 0.950 . S
C1368 C1369 1.327 . S
C1369 H1363 0.950 . S
C1369 C1368 1.327 . S
C1369 C1373 1.429 . S
C1370 C1353 1.574 1_655 S
C1370 H1364 0.949 . S
C1370 C1374 1.368 . S
C1371 C1352 1.429 . S
C1371 C1365 1.429 . S
C1371 C1372 1.523 . S
C1372 C1353 1.368 . S
C1372 C1366 1.368 . S
C1372 C1371 1.523 . S
C1373 C1357 1.429 . S
C1373 C1369 1.429 . S
C1373 C1374 1.523 . S
C1374 C1358 1.368 . S
C1374 C1370 1.368 . S
C1374 C1373 1.523 . S
H1375 C1350 0.950 . S
H1376 C1352 0.950 . S
H1377 C1353 0.949 . S
H1378 C1355 0.950 . S
H1379 C1357 0.950 . S
C1380 C1381 1.349 . S
C1380 C1382 1.327 . S
C1380 H1405 0.950 . S
C1381 C1380 1.349 . S
C1381 C1397 1.349 . S
C1382 C1380 1.327 . S
C1382 C1401 1.429 . S
C1382 H1406 0.950 . S
C1383 C1400 1.574 . S
C1383 C1402 1.368 . S
C1383 H1407 0.949 . S
H1384 C1388 0.949 . S
C1385 C1386 1.349 . S
C1385 C1387 1.327 . S
C1385 H1408 0.950 . S
C1386 C1385 1.349 . S
C1386 C1398 1.349 . S
C1387 C1385 1.327 . S
C1387 C1403 1.429 . S
C1387 H1409 0.950 . S
C1388 H1384 0.949 . S
C1388 C1396 1.574 . S
C1388 C1404 1.368 . S
H1389 C1397 0.950 . S
H1390 C1395 0.950 . S
H1391 C1396 0.949 . S
H1392 C1398 0.950 . S
H1393 C1399 0.950 . S
H1394 C1400 0.949 . S
C1395 H1390 0.950 . S
C1395 C1397 1.327 . S
C1395 C1401 1.429 . S
C1396 C1388 1.574 . S
C1396 H1391 0.949 . S
C1396 C1402 1.368 . S
C1397 C1381 1.349 . S
C1397 H1389 0.950 . S
C1397 C1395 1.327 . S
C1398 C1386 1.349 . S
C1398 H1392 0.950 . S
C1398 C1399 1.327 . S
C1399 H1393 0.950 . S
C1399 C1398 1.327 . S
C1399 C1403 1.429 . S
C1400 C1383 1.574 . S
C1400 H1394 0.949 . S
C1400 C1404 1.368 . S
C1401 C1382 1.429 . S
C1401 C1395 1.429 . S
C1401 C1402 1.523 . S
C1402 C1383 1.368 . S
C1402 C1396 1.368 . S
C1402 C1401 1.523 . S
C1403 C1387 1.429 . S
C1403 C1399 1.429 . S
C1403 C1404 1.523 . S
C1404 C1388 1.368 . S
C1404 C1400 1.368 . S
C1404 C1403 1.523 . S
H1405 C1380 0.950 . S
H1406 C1382 0.950 . S
H1407 C1383 0.949 . S
H1408 C1385 0.950 . S
H1409 C1387 0.950 . S
C1410 C1411 1.349 . S
C1410 C1412 1.327 . S
C1410 H1435 0.950 . S
C1411 C1410 1.349 . S
C1411 C1427 1.349 . S
C1412 C1410 1.327 . S
C1412 C1431 1.429 . S
C1412 H1436 0.950 . S
C1413 C1430 1.574 . S
C1413 C1432 1.368 . S
C1413 H1437 0.949 . S
H1414 C1418 0.949 . S
C1415 C1416 1.349 . S
C1415 C1417 1.327 . S
C1415 H1438 0.950 . S
C1416 C1415 1.349 . S
C1416 C1428 1.349 . S
C1417 C1415 1.327 . S
C1417 C1433 1.429 . S
C1417 H1439 0.950 . S
C1418 H1414 0.949 . S
C1418 C1426 1.574 . S
C1418 C1434 1.368 . S
H1419 C1427 0.950 . S
H1420 C1425 0.950 . S
H1421 C1426 0.949 . S
H1422 C1428 0.950 . S
H1423 C1429 0.950 . S
H1424 C1430 0.949 . S
C1425 H1420 0.950 . S
C1425 C1427 1.327 . S
C1425 C1431 1.429 . S
C1426 C1418 1.574 . S
C1426 H1421 0.949 . S
C1426 C1432 1.368 . S
C1427 C1411 1.349 . S
C1427 H1419 0.950 . S
C1427 C1425 1.327 . S
C1428 C1416 1.349 . S
C1428 H1422 0.950 . S
C1428 C1429 1.327 . S
C1429 H1423 0.950 . S
C1429 C1428 1.327 . S
C1429 C1433 1.429 . S
C1430 C1413 1.574 . S
C1430 H1424 0.949 . S
C1430 C1434 1.368 . S
C1431 C1412 1.429 . S
C1431 C1425 1.429 . S
C1431 C1432 1.523 . S
C1432 C1413 1.368 . S
C1432 C1426 1.368 . S
C1432 C1431 1.523 . S
C1433 C1417 1.429 . S
C1433 C1429 1.429 . S
C1433 C1434 1.523 . S
C1434 C1418 1.368 . S
C1434 C1430 1.368 . S
C1434 C1433 1.523 . S
H1435 C1410 0.950 . S
H1436 C1412 0.950 . S
H1437 C1413 0.949 . S
H1438 C1415 0.950 . S
H1439 C1417 0.950 . S
C1440 C1441 1.349 . S
C1440 C1442 1.327 . S
C1440 H1465 0.950 . S
C1441 C1440 1.349 . S
C1441 C1457 1.349 . S
C1442 C1440 1.327 . S
C1442 C1461 1.429 . S
C1442 H1466 0.950 . S
C1443 C1460 1.574 . S
C1443 C1462 1.368 . S
C1443 H1467 0.949 . S
H1444 C1448 0.949 . S
C1445 C1446 1.349 . S
C1445 C1447 1.327 . S
C1445 H1468 0.950 . S
C1446 C1445 1.349 . S
C1446 C1458 1.349 . S
C1447 C1445 1.327 . S
C1447 C1463 1.429 . S
C1447 H1469 0.950 . S
C1448 H1444 0.949 . S
C1448 C1456 1.574 . S
C1448 C1464 1.368 . S
H1449 C1457 0.950 . S
H1450 C1455 0.950 . S
H1451 C1456 0.949 . S
H1452 C1458 0.950 . S
H1453 C1459 0.950 . S
H1454 C1460 0.949 . S
C1455 H1450 0.950 . S
C1455 C1457 1.327 . S
C1455 C1461 1.429 . S
C1456 C1448 1.574 . S
C1456 H1451 0.949 . S
C1456 C1462 1.368 . S
C1457 C1441 1.349 . S
C1457 H1449 0.950 . S
C1457 C1455 1.327 . S
C1458 C1446 1.349 . S
C1458 H1452 0.950 . S
C1458 C1459 1.327 . S
C1459 H1453 0.950 . S
C1459 C1458 1.327 . S
C1459 C1463 1.429 . S
C1460 C1443 1.574 . S
C1460 H1454 0.949 . S
C1460 C1464 1.368 . S
C1461 C1442 1.429 . S
C1461 C1455 1.429 . S
C1461 C1462 1.523 . S
C1462 C1443 1.368 . S
C1462 C1456 1.368 . S
C1462 C1461 1.523 . S
C1463 C1447 1.429 . S
C1463 C1459 1.429 . S
C1463 C1464 1.523 . S
C1464 C1448 1.368 . S
C1464 C1460 1.368 . S
C1464 C1463 1.523 . S
H1465 C1440 0.950 . S
H1466 C1442 0.950 . S
H1467 C1443 0.949 . S
H1468 C1445 0.950 . S
H1469 C1447 0.950 . S
C1470 C1471 1.349 . S
C1470 C1472 1.327 . S
C1470 H1495 0.950 . S
C1471 C1470 1.349 . S
C1471 C1487 1.349 . S
C1472 C1470 1.327 . S
C1472 C1491 1.429 . S
C1472 H1496 0.950 . S
C1473 C1490 1.574 . S
C1473 C1492 1.368 . S
C1473 H1497 0.949 . S
H1474 C1478 0.949 . S
C1475 C1476 1.349 . S
C1475 C1477 1.327 . S
C1475 H1498 0.950 . S
C1476 C1475 1.349 . S
C1476 C1488 1.349 . S
C1477 C1475 1.327 . S
C1477 C1493 1.429 . S
C1477 H1499 0.950 . S
C1478 H1474 0.949 . S
C1478 C1486 1.574 . S
C1478 C1494 1.368 . S
H1479 C1487 0.950 . S
H1480 C1485 0.950 . S
H1481 C1486 0.949 . S
H1482 C1488 0.950 . S
H1483 C1489 0.950 . S
H1484 C1490 0.949 . S
C1485 H1480 0.950 . S
C1485 C1487 1.327 . S
C1485 C1491 1.429 . S
C1486 C1478 1.574 . S
C1486 H1481 0.949 . S
C1486 C1492 1.368 . S
C1487 C1471 1.349 . S
C1487 H1479 0.950 . S
C1487 C1485 1.327 . S
C1488 C1476 1.349 . S
C1488 H1482 0.950 . S
C1488 C1489 1.327 . S
C1489 H1483 0.950 . S
C1489 C1488 1.327 . S
C1489 C1493 1.429 . S
C1490 C1473 1.574 . S
C1490 H1484 0.949 . S
C1490 C1494 1.368 . S
C1491 C1472 1.429 . S
C1491 C1485 1.429 . S
C1491 C1492 1.523 . S
C1492 C1473 1.368 . S
C1492 C1486 1.368 . S
C1492 C1491 1.523 . S
C1493 C1477 1.429 . S
C1493 C1489 1.429 . S
C1493 C1494 1.523 . S
C1494 C1478 1.368 . S
C1494 C1490 1.368 . S
C1494 C1493 1.523 . S
H1495 C1470 0.950 . S
H1496 C1472 0.950 . S
H1497 C1473 0.949 . S
H1498 C1475 0.950 . S
H1499 C1477 0.950 . S
C1500 C1501 1.349 . S
C1500 C1502 1.327 . S
C1500 H1525 0.950 . S
C1501 C1500 1.349 . S
C1501 C1517 1.349 . S
C1502 C1500 1.327 . S
C1502 C1521 1.429 . S
C1502 H1526 0.950 . S
C1503 C1520 1.574 . S
C1503 C1522 1.368 . S
C1503 H1527 0.949 . S
H1504 C1508 0.949 . S
C1505 C1506 1.349 . S
C1505 C1507 1.327 . S
C1505 H1528 0.950 . S
C1506 C1505 1.349 . S
C1506 C1518 1.349 . S
C1507 C1505 1.327 . S
C1507 C1523 1.429 . S
C1507 H1529 0.950 . S
C1508 H1504 0.949 . S
C1508 C1516 1.574 . S
C1508 C1524 1.368 . S
H1509 C1517 0.950 . S
H1510 C1515 0.950 . S
H1511 C1516 0.949 . S
H1512 C1518 0.950 . S
H1513 C1519 0.950 . S
H1514 C1520 0.949 . S
C1515 H1510 0.950 . S
C1515 C1517 1.327 . S
C1515 C1521 1.429 . S
C1516 C1508 1.574 . S
C1516 H1511 0.949 . S
C1516 C1522 1.368 . S
C1517 C1501 1.349 . S
C1517 H1509 0.950 . S
C1517 C1515 1.327 . S
C1518 C1506 1.349 . S
C1518 H1512 0.950 . S
C1518 C1519 1.327 . S
C1519 H1513 0.950 . S
C1519 C1518 1.327 . S
C1519 C1523 1.429 . S
C1520 C1503 1.574 . S
C1520 H1514 0.949 . S
C1520 C1524 1.368 . S
C1521 C1502 1.429 . S
C1521 C1515 1.429 . S
C1521 C1522 1.523 . S
C1522 C1503 1.368 . S
C1522 C1516 1.368 . S
C1522 C1521 1.523 . S
C1523 C1507 1.429 . S
C1523 C1519 1.429 . S
C1523 C1524 1.523 . S
C1524 C1508 1.368 . S
C1524 C1520 1.368 . S
C1524 C1523 1.523 . S
H1525 C1500 0.950 . S
H1526 C1502 0.950 . S
H1527 C1503 0.949 . S
H1528 C1505 0.950 . S
H1529 C1507 0.950 . S
C1530 C1531 1.349 . S
C1530 C1532 1.327 . S
C1530 H1555 0.950 . S
C1531 C1530 1.349 . S
C1531 C1547 1.349 . S
C1532 C1530 1.327 . S
C1532 C1551 1.429 . S
C1532 H1556 0.950 . S
C1533 C1550 1.574 . S
C1533 C1552 1.368 . S
C1533 H1557 0.949 . S
H1534 C1538 0.949 . S
C1535 C1536 1.349 . S
C1535 C1537 1.327 . S
C1535 H1558 0.950 . S
C1536 C1535 1.349 . S
C1536 C1548 1.349 . S
C1537 C1535 1.327 . S
C1537 C1553 1.429 . S
C1537 H1559 0.950 . S
C1538 H1534 0.949 . S
C1538 C1546 1.574 . S
C1538 C1554 1.368 . S
H1539 C1547 0.950 . S
H1540 C1545 0.950 . S
H1541 C1546 0.949 . S
H1542 C1548 0.950 . S
H1543 C1549 0.950 . S
H1544 C1550 0.949 . S
C1545 H1540 0.950 . S
C1545 C1547 1.327 . S
C1545 C1551 1.429 . S
C1546 C1538 1.574 . S
C1546 H1541 0.949 . S
C1546 C1552 1.368 . S
C1547 C1531 1.349 . S
C1547 H1539 0.950 . S
C1547 C1545 1.327 . S
C1548 C1536 1.349 . S
C1548 H1542 0.950 . S
C1548 C1549 1.327 . S
C1549 H1543 0.950 . S
C1549 C1548 1.327 . S
C1549 C1553 1.429 . S
C1550 C1533 1.574 . S
C1550 H1544 0.949 . S
C1550 C1554 1.368 . S
C1551 C1532 1.429 . S
C1551 C1545 1.429 . S
C1551 C1552 1.523 . S
C1552 C1533 1.368 . S
C1552 C1546 1.368 . S
C1552 C1551 1.523 . S
C1553 C1537 1.429 . S
C1553 C1549 1.429 . S
C1553 C1554 1.523 . S
C1554 C1538 1.368 . S
C1554 C1550 1.368 . S
C1554 C1553 1.523 . S
H1555 C1530 0.950 . S
H1556 C1532 0.950 . S
H1557 C1533 0.949 . S
H1558 C1535 0.950 . S
H1559 C1537 0.950 . S
C481 C9 0.967 . S
C486 C329 0.967 . S
C511 C49 0.967 . S
C516 C369 0.967 . S
C541 C89 0.968 . S
C546 C409 0.968 . S
C571 C449 0.967 . S
C576 C129 0.967 . S
C601 C169 0.967 . S
C606 C249 0.967 . S
C631 C289 0.968 . S
C636 C209 0.968 . S
C661 C415 1.609 . S
C666 C15 1.609 . S
C691 C455 1.609 . S
C696 C55 1.609 . S
C721 C95 1.609 . S
C726 C255 1.609 . S
C751 C295 1.609 . S
C756 C135 1.609 . S
C781 C335 1.609 . S
C786 C175 1.609 . S
C811 C215 1.609 . S
C816 C375 1.609 . S
C841 C299 4.180 . S
C846 C19 4.180 . S
C871 C339 4.180 . S
C876 C59 4.180 . S
C901 C379 4.180 . S
C906 C99 4.180 . S
C931 C139 4.180 . S
C936 C419 4.180 . S
C961 C179 4.180 . S
C966 C459 4.180 . S
C991 C219 4.180 . S
C996 C259 4.180 . S
C1021 C18 0.819 . S
C1026 C138 0.819 . S
C1051 C58 0.819 . S
C1056 C178 0.819 . S
C1081 C98 0.819 . S
C1086 C218 0.819 . S
C1111 C378 0.819 . S
C1116 C258 0.819 . S
C1141 C298 0.819 . S
C1146 C418 0.819 . S
C1171 C458 0.819 . S
C1176 C338 0.819 . S
C1201 C286 0.772 . S
C1206 C6 0.772 . S
C1231 C326 0.772 . S
C1236 C46 0.772 . S
C1261 C86 0.772 . S
C1266 C366 0.772 . S
C1291 C406 0.772 . S
C1296 C126 0.772 . S
C1321 C446 0.772 . S
C1326 C166 0.772 . S
C1351 C206 0.772 . S
C1356 C246 0.772 . S
C1381 C10 4.761 . S
C1386 C410 4.761 . S
C1411 C50 4.761 . S
C1416 C450 4.761 1_556 S
C1441 C90 4.761 1_554 S
C1446 C250 4.761 . S
C1471 C130 4.761 . S
C1476 C290 4.761 . S
C1501 C170 4.761 . S
C1506 C330 4.761 1_556 S
C1531 C370 4.761 . S
C1536 C210 4.761 1_554 S
