# Generated by pormake.
# Topology umc, (4)-cn, num edge types: 1
# Building blocks:
#     Node 0, Type 0, BuildingBlock: CEKHIL_clean_sbu_0, # of connection points: 4
#     Node 1, Type 0, BuildingBlock: CEKHIL_clean_sbu_0, # of connection points: 4
#     Node 2, Type 0, BuildingBlock: CEKHIL_clean_sbu_0, # of connection points: 4
#     Node 3, Type 0, BuildingBlock: CEKHIL_clean_sbu_0, # of connection points: 4
#     Node 4, Type 0, BuildingBlock: CEKHIL_clean_sbu_0, # of connection points: 4
#     Node 5, Type 0, BuildingBlock: CEKHIL_clean_sbu_0, # of connection points: 4
#     Node 6, Type 0, BuildingBlock: CEKHIL_clean_sbu_0, # of connection points: 4
#     Node 7, Type 0, BuildingBlock: CEKHIL_clean_sbu_0, # of connection points: 4
#     Node 8, Type 0, BuildingBlock: CEKHIL_clean_sbu_0, # of connection points: 4
#     Node 9, Type 0, BuildingBlock: CEKHIL_clean_sbu_0, # of connection points: 4
#     Node 10, Type 0, BuildingBlock: CEKHIL_clean_sbu_0, # of connection points: 4
#     Node 11, Type 0, BuildingBlock: CEKHIL_clean_sbu_0, # of connection points: 4
#     Node 12, Type 0, BuildingBlock: CEKHIL_clean_sbu_0, # of connection points: 4
#     Node 13, Type 0, BuildingBlock: CEKHIL_clean_sbu_0, # of connection points: 4
#     Node 14, Type 0, BuildingBlock: CEKHIL_clean_sbu_0, # of connection points: 4
#     Node 15, Type 0, BuildingBlock: CEKHIL_clean_sbu_0, # of connection points: 4
#     Edge 16, Type (0, 0), BuildingBlock: AJUNOK_clean_linker_0, # of connection points: 2
#     Edge 17, Type (0, 0), BuildingBlock: AJUNOK_clean_linker_0, # of connection points: 2
#     Edge 18, Type (0, 0), BuildingBlock: AJUNOK_clean_linker_0, # of connection points: 2
#     Edge 19, Type (0, 0), BuildingBlock: AJUNOK_clean_linker_0, # of connection points: 2
#     Edge 20, Type (0, 0), BuildingBlock: AJUNOK_clean_linker_0, # of connection points: 2
#     Edge 21, Type (0, 0), BuildingBlock: AJUNOK_clean_linker_0, # of connection points: 2
#     Edge 22, Type (0, 0), BuildingBlock: AJUNOK_clean_linker_0, # of connection points: 2
#     Edge 23, Type (0, 0), BuildingBlock: AJUNOK_clean_linker_0, # of connection points: 2
#     Edge 24, Type (0, 0), BuildingBlock: AJUNOK_clean_linker_0, # of connection points: 2
#     Edge 25, Type (0, 0), BuildingBlock: AJUNOK_clean_linker_0, # of connection points: 2
#     Edge 26, Type (0, 0), BuildingBlock: AJUNOK_clean_linker_0, # of connection points: 2
#     Edge 27, Type (0, 0), BuildingBlock: AJUNOK_clean_linker_0, # of connection points: 2
#     Edge 28, Type (0, 0), BuildingBlock: AJUNOK_clean_linker_0, # of connection points: 2
#     Edge 29, Type (0, 0), BuildingBlock: AJUNOK_clean_linker_0, # of connection points: 2
#     Edge 30, Type (0, 0), BuildingBlock: AJUNOK_clean_linker_0, # of connection points: 2
#     Edge 31, Type (0, 0), BuildingBlock: AJUNOK_clean_linker_0, # of connection points: 2
#     Edge 32, Type (0, 0), BuildingBlock: AJUNOK_clean_linker_0, # of connection points: 2
#     Edge 33, Type (0, 0), BuildingBlock: AJUNOK_clean_linker_0, # of connection points: 2
#     Edge 34, Type (0, 0), BuildingBlock: AJUNOK_clean_linker_0, # of connection points: 2
#     Edge 35, Type (0, 0), BuildingBlock: AJUNOK_clean_linker_0, # of connection points: 2
#     Edge 36, Type (0, 0), BuildingBlock: AJUNOK_clean_linker_0, # of connection points: 2
#     Edge 37, Type (0, 0), BuildingBlock: AJUNOK_clean_linker_0, # of connection points: 2
#     Edge 38, Type (0, 0), BuildingBlock: AJUNOK_clean_linker_0, # of connection points: 2
#     Edge 39, Type (0, 0), BuildingBlock: AJUNOK_clean_linker_0, # of connection points: 2
#     Edge 40, Type (0, 0), BuildingBlock: AJUNOK_clean_linker_0, # of connection points: 2
#     Edge 41, Type (0, 0), BuildingBlock: AJUNOK_clean_linker_0, # of connection points: 2
#     Edge 42, Type (0, 0), BuildingBlock: AJUNOK_clean_linker_0, # of connection points: 2
#     Edge 43, Type (0, 0), BuildingBlock: AJUNOK_clean_linker_0, # of connection points: 2
#     Edge 44, Type (0, 0), BuildingBlock: AJUNOK_clean_linker_0, # of connection points: 2
#     Edge 45, Type (0, 0), BuildingBlock: AJUNOK_clean_linker_0, # of connection points: 2
#     Edge 46, Type (0, 0), BuildingBlock: AJUNOK_clean_linker_0, # of connection points: 2
#     Edge 47, Type (0, 0), BuildingBlock: AJUNOK_clean_linker_0, # of connection points: 2
# Relax obj value: 0.081
# Max RMSD: 0.168
# Mean RMSD: 0.168
data_MOF--net-umc--node1-CEKHIL_clean_sbu_0--edge1-AJUNOK_clean_linker_0
_symmetry_space_group_name_H-M    P1
_symmetry_Int_Tables_number       1
_symmetry_cell_setting            triclinic
loop_
_symmetry_equiv_pos_as_xyz
'x, y, z'
_cell_length_a     33.57328
_cell_length_b     24.45877
_cell_length_c     40.299712
_cell_angle_alpha  90.009625
_cell_angle_beta   90.022552
_cell_angle_gamma 90.007459
loop_
_atom_site_label
_atom_site_type_symbol
_atom_site_fract_x
_atom_site_fract_y
_atom_site_fract_z
_atom_type_partial_charge
Co0 Co 0.34068 0.07595 0.36893 0.0
O1 O 0.28934 0.111 0.36874 0.0
O2 O 0.34436 0.15052 0.38649 0.0
C3 C 0.33709 0.04338 0.31671 0.0
O4 O 0.39931 0.04955 0.37139 0.0
Co5 Co 0.34107 0.94995 0.36405 0.0
O6 O 0.39914 0.96001 0.35837 0.0
C7 C 0.32065 1.00052 0.42755 0.0
C8 C 0.30607 0.15389 0.38122 0.0
C9 C 0.41777 0.004 0.3651 0.0
O10 O 0.32969 0.04702 0.41478 0.0
O11 O 0.32076 0.95603 0.41084 0.0
O12 O 0.34822 0.09333 0.3223 0.0
O13 O 0.32424 0.01694 0.34243 0.0
Co14 Co 0.67274 0.92897 0.3706 0.0
O15 O 0.72512 0.89668 0.37045 0.0
O16 O 0.671 0.85369 0.38703 0.0
C17 C 0.67586 0.96365 0.31889 0.0
O18 O 0.61331 0.9515 0.37273 0.0
Co19 Co 0.6676 0.05483 0.36748 0.0
O20 O 0.60979 0.04189 0.36214 0.0
C21 C 0.68917 0.00335 0.43049 0.0
C22 C 0.70938 0.85238 0.38202 0.0
C23 C 0.59309 0.99595 0.36749 0.0
O24 O 0.68217 0.95676 0.41697 0.0
O25 O 0.68749 0.0484 0.4144 0.0
O26 O 0.66633 0.91289 0.32375 0.0
O27 O 0.68755 0.99006 0.34505 0.0
Co28 Co 0.34149 0.92961 0.12899 0.0
O29 O 0.28972 0.89556 0.12895 0.0
O30 O 0.34419 0.85587 0.11033 0.0
C31 C 0.33838 0.95947 0.18177 0.0
O32 O 0.40045 0.95424 0.12672 0.0
Co33 Co 0.34486 0.05497 0.13617 0.0
O34 O 0.40282 0.04303 0.14137 0.0
C35 C 0.32395 0.00832 0.07145 0.0
C36 C 0.30602 0.8526 0.11615 0.0
C37 C 0.42017 0.99843 0.13376 0.0
O38 O 0.33079 0.96075 0.0837 0.0
O39 O 0.32538 0.05201 0.0889 0.0
O40 O 0.34912 0.90978 0.17508 0.0
O41 O 0.32597 0.98791 0.15665 0.0
Co42 Co 0.67306 0.07952 0.13154 0.0
O43 O 0.72486 0.11324 0.13157 0.0
O44 O 0.67068 0.15322 0.11253 0.0
C45 C 0.67581 0.05007 0.1845 0.0
O46 O 0.61421 0.05432 0.12891 0.0
Co47 Co 0.67135 0.95372 0.13934 0.0
O48 O 0.61308 0.96472 0.14222 0.0
C49 C 0.69173 1.00024 0.07448 0.0
C50 C 0.70891 0.15592 0.1182 0.0
C51 C 0.59524 0.00896 0.1346 0.0
O52 O 0.68404 0.04781 0.08641 0.0
O53 O 0.69119 0.95686 0.09224 0.0
O54 O 0.66512 0.09974 0.17768 0.0
O55 O 0.68849 0.02176 0.15946 0.0
Co56 Co 0.67071 0.92247 0.6321 0.0
O57 O 0.72279 0.88954 0.63238 0.0
O58 O 0.66877 0.84828 0.61391 0.0
C59 C 0.6734 0.95345 0.68468 0.0
O60 O 0.6116 0.94613 0.62937 0.0
Co61 Co 0.66649 0.04795 0.63829 0.0
O62 O 0.60857 0.0353 0.64308 0.0
C63 C 0.68859 1.00012 0.57422 0.0
C64 C 0.70703 0.84625 0.61953 0.0
C65 C 0.59156 0.9903 0.63577 0.0
O66 O 0.68142 0.95283 0.58666 0.0
O67 O 0.68662 0.04424 0.59124 0.0
O68 O 0.66306 0.90347 0.67832 0.0
O69 O 0.68566 0.98155 0.65938 0.0
Co70 Co 0.33944 0.07247 0.63053 0.0
O71 O 0.28818 0.10783 0.63118 0.0
O72 O 0.34323 0.14705 0.61332 0.0
C73 C 0.33632 0.03913 0.68254 0.0
O74 O 0.39799 0.04615 0.62768 0.0
Co75 Co 0.33983 0.9465 0.63439 0.0
O76 O 0.39808 0.95591 0.63907 0.0
C77 C 0.31951 0.99831 0.57125 0.0
C78 C 0.30505 0.15085 0.61896 0.0
C79 C 0.41648 1.00028 0.63284 0.0
O80 O 0.32822 0.0445 0.58454 0.0
O81 O 0.31981 0.95338 0.58751 0.0
O82 O 0.34738 0.08915 0.67715 0.0
O83 O 0.32314 0.01298 0.65678 0.0
Co84 Co 0.67364 0.07287 0.87129 0.0
O85 O 0.72583 0.10572 0.87119 0.0
O86 O 0.67161 0.1477 0.88848 0.0
C87 C 0.67664 0.03953 0.81919 0.0
O88 O 0.61438 0.04954 0.87358 0.0
Co89 Co 0.66918 0.94701 0.86666 0.0
O90 O 0.61136 0.95986 0.86106 0.0
C91 C 0.69059 0.99677 0.9303 0.0
C92 C 0.70995 0.14954 0.88328 0.0
C93 C 0.59434 0.00521 0.86749 0.0
O94 O 0.68349 0.04381 0.91734 0.0
O95 O 0.68942 0.95241 0.91351 0.0
O96 O 0.66683 0.09006 0.82453 0.0
O97 O 0.68859 0.01272 0.84508 0.0
Co98 Co 0.34118 0.92629 0.87049 0.0
O99 O 0.28942 0.89235 0.87068 0.0
O100 O 0.34378 0.85263 0.88954 0.0
C101 C 0.338 0.95528 0.81747 0.0
O102 O 0.40007 0.95149 0.87283 0.0
Co103 Co 0.34319 0.05194 0.86227 0.0
O104 O 0.4014 0.04083 0.85899 0.0
C105 C 0.32305 0.00616 0.92739 0.0
C106 C 0.30556 0.84964 0.88386 0.0
C107 C 0.41916 0.99662 0.86678 0.0
O108 O 0.33035 0.95837 0.9156 0.0
O109 O 0.32381 0.04941 0.90952 0.0
O110 O 0.34889 0.90575 0.82442 0.0
O111 O 0.32551 0.98387 0.84246 0.0
Co112 Co 0.84268 0.57765 0.36904 0.0
O113 O 0.79103 0.61208 0.36862 0.0
O114 O 0.84563 0.65219 0.38662 0.0
C115 C 0.83952 0.54507 0.31674 0.0
O116 O 0.90155 0.55244 0.37173 0.0
Co117 Co 0.84455 0.45154 0.36358 0.0
O118 O 0.90277 0.46235 0.35981 0.0
C119 C 0.82394 0.50111 0.42746 0.0
C120 C 0.80744 0.65541 0.38088 0.0
C121 C 0.92059 0.50699 0.36653 0.0
O122 O 0.83196 0.54818 0.41489 0.0
O123 O 0.82418 0.4571 0.4103 0.0
O124 O 0.85021 0.59519 0.32234 0.0
O125 O 0.82693 0.51844 0.34245 0.0
Co126 Co 0.17487 0.43031 0.37065 0.0
O127 O 0.22673 0.39629 0.37055 0.0
O128 O 0.172 0.35569 0.38787 0.0
C129 C 0.17841 0.4634 0.31853 0.0
O130 O 0.11577 0.45435 0.37287 0.0
Co131 Co 0.17078 0.55603 0.36578 0.0
O132 O 0.11293 0.5438 0.35991 0.0
C133 C 0.19159 0.50649 0.42969 0.0
C134 C 0.21024 0.35267 0.38239 0.0
C135 C 0.09581 0.49861 0.36654 0.0
O136 O 0.18483 0.45934 0.41672 0.0
O137 O 0.19036 0.55079 0.41283 0.0
O138 O 0.16802 0.41311 0.32393 0.0
O139 O 0.19042 0.49021 0.34441 0.0
Co140 Co 0.84296 0.42908 0.12949 0.0
O141 O 0.79096 0.39561 0.1296 0.0
O142 O 0.84521 0.35509 0.11118 0.0
C143 C 0.84021 0.45972 0.18209 0.0
O144 O 0.90207 0.45287 0.12711 0.0
Co145 Co 0.84716 0.55452 0.13599 0.0
O146 O 0.90512 0.54208 0.14078 0.0
C147 C 0.82587 0.5072 0.07156 0.0
C148 C 0.80703 0.35231 0.117 0.0
C149 C 0.9221 0.497 0.13363 0.0
O150 O 0.83248 0.45974 0.08404 0.0
O151 O 0.82752 0.5511 0.08879 0.0
O152 O 0.85052 0.40978 0.17564 0.0
O153 O 0.8279 0.48799 0.15686 0.0
Co154 Co 0.1745 0.57795 0.13094 0.0
O155 O 0.22589 0.61279 0.13103 0.0
O156 O 0.17117 0.65165 0.11211 0.0
C157 C 0.1776 0.54806 0.18373 0.0
O158 O 0.11591 0.55161 0.1283 0.0
Co159 Co 0.17393 0.45226 0.13785 0.0
O160 O 0.11571 0.46239 0.14222 0.0
C161 C 0.19481 0.50017 0.07362 0.0
C162 C 0.2094 0.65509 0.11764 0.0
C163 C 0.09733 0.50618 0.1346 0.0
O164 O 0.18601 0.54714 0.08577 0.0
O165 O 0.1942 0.45621 0.09084 0.0
O166 O 0.16632 0.59755 0.17706 0.0
O167 O 0.19062 0.52013 0.15863 0.0
Co168 Co 0.17334 0.42569 0.6314 0.0
O169 O 0.22505 0.39177 0.63139 0.0
O170 O 0.17067 0.35186 0.61266 0.0
C171 C 0.17639 0.4554 0.68428 0.0
O172 O 0.11451 0.45091 0.62895 0.0
Co173 Co 0.17164 0.55137 0.63879 0.0
O174 O 0.11343 0.54042 0.64239 0.0
C175 C 0.19176 0.50438 0.57399 0.0
C176 C 0.2089 0.34898 0.6183 0.0
C177 C 0.09555 0.49617 0.63487 0.0
O178 O 0.18418 0.45693 0.58612 0.0
O179 O 0.19121 0.54794 0.59159 0.0
O180 O 0.16553 0.40578 0.67753 0.0
O181 O 0.18904 0.48364 0.65919 0.0
Co182 Co 0.84138 0.57299 0.63119 0.0
O183 O 0.7894 0.60644 0.63159 0.0
O184 O 0.84385 0.64779 0.61424 0.0
C185 C 0.83839 0.53915 0.68311 0.0
O186 O 0.90048 0.54926 0.62867 0.0
Co187 Co 0.84543 0.44717 0.63518 0.0
O188 O 0.90331 0.45946 0.64081 0.0
C189 C 0.82421 0.49796 0.57178 0.0
C190 C 0.80558 0.65024 0.61972 0.0
C191 C 0.92042 0.50481 0.63455 0.0
O192 O 0.83133 0.54472 0.58505 0.0
O193 O 0.82532 0.45333 0.58831 0.0
O194 O 0.84844 0.58964 0.67794 0.0
O195 O 0.82619 0.51263 0.65717 0.0
Co196 Co 0.1747 0.57306 0.87124 0.0
O197 O 0.22609 0.60828 0.87058 0.0
O198 O 0.1712 0.64757 0.88866 0.0
C199 C 0.17763 0.53995 0.81913 0.0
O200 O 0.11601 0.54718 0.87416 0.0
Co201 Co 0.17356 0.44705 0.86688 0.0
O202 O 0.11531 0.45698 0.86264 0.0
C203 C 0.19469 0.49802 0.9301 0.0
C204 C 0.20936 0.65132 0.88293 0.0
C205 C 0.09722 0.50151 0.86904 0.0
O206 O 0.18606 0.54451 0.91712 0.0
O207 O 0.19402 0.4533 0.91364 0.0
O208 O 0.16672 0.59002 0.82461 0.0
O209 O 0.19068 0.51363 0.84484 0.0
Co210 Co 0.843 0.42393 0.87051 0.0
O211 O 0.79114 0.38997 0.8705 0.0
O212 O 0.84551 0.35031 0.88936 0.0
C213 C 0.84005 0.45347 0.81763 0.0
O214 O 0.90203 0.44819 0.87299 0.0
Co215 Co 0.84711 0.54937 0.8625 0.0
O216 O 0.90511 0.53682 0.85808 0.0
C217 C 0.82573 0.50383 0.92748 0.0
C218 C 0.80739 0.347 0.88338 0.0
C219 C 0.92209 0.49213 0.86606 0.0
O220 O 0.83226 0.45583 0.91566 0.0
O221 O 0.82744 0.54709 0.90967 0.0
O222 O 0.85066 0.40375 0.8244 0.0
O223 O 0.82779 0.48208 0.8427 0.0
C224 C 0.32092 0.94988 0.4817 0.0
C225 C 0.31331 0.99828 0.46386 0.0
C226 C 0.32057 0.9493 0.51654 0.0
C227 C 0.3126 0.99711 0.53484 0.0
H228 H 0.32927 0.91278 0.46878 0.0
H229 H 0.32871 0.9118 0.52913 0.0
S230 S 0.28328 0.13183 0.49993 0.0
N231 N 0.29213 0.0933 0.46713 0.0
N232 N 0.29148 0.09226 0.5324 0.0
C233 C 0.30197 0.04469 0.51726 0.0
C234 C 0.30234 0.04527 0.48185 0.0
C235 C 0.68608 0.05109 0.52019 0.0
C236 C 0.69583 0.00331 0.5379 0.0
C237 C 0.68614 0.05181 0.48535 0.0
C238 C 0.69595 0.00477 0.46691 0.0
H239 H 0.67626 0.08739 0.53323 0.0
H240 H 0.67641 0.08867 0.47286 0.0
S241 S 0.73111 0.87246 0.50142 0.0
N242 N 0.72094 0.9101 0.53434 0.0
N243 N 0.721 0.91144 0.46907 0.0
C244 C 0.70865 0.95803 0.48435 0.0
C245 C 0.70862 0.95731 0.51976 0.0
C246 C 0.30919 0.96362 0.01706 0.0
C247 C 0.31717 0.01182 0.03499 0.0
C248 C 0.30896 0.96308 0.98236 0.0
C249 C 0.31668 0.01072 0.96385 0.0
H250 H 0.3044 0.92523 0.02987 0.0
H251 H 0.30402 0.92432 0.96999 0.0
S252 S 0.33484 0.14923 0.99859 0.0
N253 N 0.32952 0.10973 0.03151 0.0
N254 N 0.32909 0.10874 0.96616 0.0
C255 C 0.3221 0.06008 0.98136 0.0
C256 C 0.32235 0.06062 0.0169 0.0
C257 C 0.70281 0.04341 0.9846 0.0
C258 C 0.69729 0.99441 0.96683 0.0
C259 C 0.70319 0.04421 0.0193 0.0
C260 C 0.69806 0.99606 0.03799 0.0
H261 H 0.70554 0.08207 0.97168 0.0
H262 H 0.70618 0.08347 0.03151 0.0
S263 S 0.68747 0.85578 0.00369 0.0
N264 N 0.69039 0.89548 0.97066 0.0
N265 N 0.69106 0.89703 0.03597 0.0
C266 C 0.69518 0.94618 0.02062 0.0
C267 C 0.6948 0.94535 0.98509 0.0
C268 C 0.81524 0.54566 0.51735 0.0
C269 C 0.81779 0.49625 0.53519 0.0
C270 C 0.81517 0.54645 0.48265 0.0
C271 C 0.8176 0.49787 0.46401 0.0
H272 H 0.81467 0.58456 0.53021 0.0
H273 H 0.81456 0.58588 0.47042 0.0
S274 S 0.81958 0.35689 0.49846 0.0
N275 N 0.81887 0.39689 0.53143 0.0
N276 N 0.8187 0.39833 0.46615 0.0
C277 C 0.81751 0.44785 0.48144 0.0
C278 C 0.81762 0.44705 0.51696 0.0
C279 C 0.20315 0.45977 0.51895 0.0
C280 C 0.19812 0.50814 0.53747 0.0
C281 C 0.20303 0.46024 0.48424 0.0
C282 C 0.1979 0.5091 0.46627 0.0
H283 H 0.2059 0.42061 0.5313 0.0
H284 H 0.20569 0.42143 0.47147 0.0
S285 S 0.18828 0.64815 0.50266 0.0
N286 N 0.19148 0.60718 0.53509 0.0
N287 N 0.19131 0.60812 0.46977 0.0
C288 C 0.19542 0.55835 0.48438 0.0
C289 C 0.19553 0.55785 0.51992 0.0
C290 C 0.81182 0.46095 0.98256 0.0
C291 C 0.81917 0.50857 0.96392 0.0
C292 C 0.81183 0.46179 0.01725 0.0
C293 C 0.81923 0.51029 0.03507 0.0
H294 H 0.80734 0.42198 0.97032 0.0
H295 H 0.80736 0.42341 0.03015 0.0
S296 S 0.8354 0.64779 0.99832 0.0
N297 N 0.83036 0.6069 0.96599 0.0
N298 N 0.83042 0.60844 0.03133 0.0
C299 C 0.82396 0.55904 0.01685 0.0
C300 C 0.82393 0.55819 0.98131 0.0
C301 C 0.19319 0.44918 0.01957 0.0
C302 C 0.20232 0.4971 0.03736 0.0
C303 C 0.19309 0.44873 0.98471 0.0
C304 C 0.2021 0.49621 0.96641 0.0
H305 H 0.18385 0.41258 0.03255 0.0
H306 H 0.18372 0.41177 0.97213 0.0
S307 S 0.23567 0.6291 0.00119 0.0
N308 N 0.22622 0.59092 0.03403 0.0
N309 N 0.22591 0.59012 0.96875 0.0
C310 C 0.21432 0.54309 0.98394 0.0
C311 C 0.21448 0.54352 0.01933 0.0
C312 C 0.52748 0.04556 0.37199 0.0
C313 C 0.54845 0.9958 0.36794 0.0
C314 C 0.48561 0.04796 0.37125 0.0
C315 C 0.46249 1.00077 0.36619 0.0
H316 H 0.54355 0.08344 0.37582 0.0
H317 H 0.47135 0.08732 0.37447 0.0
S318 S 0.50262 0.8598 0.35415 0.0
N319 N 0.54266 0.89816 0.35877 0.0
N320 N 0.4644 0.90191 0.35722 0.0
C321 C 0.48315 0.95048 0.36227 0.0
C322 C 0.52585 0.94817 0.36324 0.0
C323 C 0.48538 0.0496 0.13792 0.0
C324 C 0.46489 0.99967 0.1326 0.0
C325 C 0.52723 0.05283 0.13762 0.0
C326 C 0.55075 0.00622 0.13227 0.0
H327 H 0.46902 0.08695 0.14262 0.0
H328 H 0.54122 0.09196 0.14241 0.0
S329 S 0.51265 0.8661 0.11467 0.0
N330 N 0.47205 0.90301 0.12016 0.0
N331 N 0.55031 0.90873 0.11956 0.0
C332 C 0.53077 0.9562 0.12613 0.0
C333 C 0.48811 0.95301 0.1263 0.0
C334 C 0.52616 0.04109 0.63848 0.0
C335 C 0.54688 0.99115 0.63399 0.0
C336 C 0.48434 0.04414 0.63726 0.0
C337 C 0.46105 0.99735 0.63177 0.0
H338 H 0.5423 0.07864 0.64315 0.0
H339 H 0.4702 0.08337 0.64137 0.0
S340 S 0.49991 0.85687 0.6165 0.0
N341 N 0.54027 0.89412 0.62243 0.0
N342 N 0.46204 0.89947 0.62013 0.0
C343 C 0.48128 0.94722 0.6266 0.0
C344 C 0.52394 0.94421 0.62771 0.0
C345 C 0.5288 0.9548 0.86366 0.0
C346 C 0.5496 0.00465 0.86844 0.0
C347 C 0.48693 0.95205 0.86401 0.0
C348 C 0.46369 0.99906 0.86886 0.0
H349 H 0.54492 0.91712 0.85939 0.0
H350 H 0.47273 0.91292 0.8597 0.0
S351 S 0.50264 0.13929 0.8848 0.0
N352 N 0.54302 0.10175 0.87974 0.0
N353 N 0.46473 0.09694 0.88041 0.0
C354 C 0.48397 0.04906 0.87438 0.0
C355 C 0.52666 0.05176 0.87416 0.0
C356 C 0.98834 0.55147 0.3625 0.0
C357 C 0.96514 0.50471 0.36835 0.0
C358 C 0.03021 0.54875 0.36195 0.0
C359 C 0.05107 0.4992 0.36753 0.0
H360 H 0.97408 0.59036 0.35755 0.0
H361 H 0.0463 0.58621 0.35691 0.0
S362 S 1.0043 0.36536 0.38659 0.0
N363 N 0.96633 0.40744 0.38165 0.0
N364 N 0.04461 0.40268 0.38062 0.0
C365 C 0.02818 0.45235 0.37421 0.0
C366 C 0.9855 0.45502 0.37463 0.0
C367 C 0.02936 0.55063 0.13314 0.0
C368 C 0.05271 0.50298 0.13288 0.0
C369 C 0.98749 0.54796 0.1331 0.0
C370 C 0.96677 0.49751 0.13252 0.0
H371 H 0.04345 0.59044 0.13396 0.0
H372 H 0.97125 0.58621 0.13363 0.0
S373 S 0.01365 0.36028 0.12989 0.0
N374 N 0.05157 0.40319 0.13067 0.0
N375 N 0.9733 0.39875 0.13066 0.0
C376 C 0.98971 0.44954 0.1315 0.0
C377 C 0.03241 0.45213 0.1317 0.0
C378 C 0.98592 0.45433 0.6381 0.0
C379 C 0.96513 0.50421 0.63355 0.0
C380 C 0.02779 0.4516 0.63767 0.0
C381 C 0.05102 0.49866 0.63296 0.0
H382 H 0.9698 0.4166 0.64225 0.0
H383 H 0.04199 0.41242 0.64181 0.0
S384 S 0.01205 0.63906 0.61767 0.0
N385 N 0.97169 0.60145 0.62264 0.0
N386 N 0.04997 0.59668 0.62181 0.0
C387 C 0.03074 0.54872 0.62768 0.0
C388 C 0.98806 0.5514 0.62798 0.0
C389 C 0.02947 0.5456 0.86402 0.0
C390 C 0.05265 0.49899 0.87031 0.0
C391 C 0.98763 0.54265 0.86275 0.0
C392 C 0.96678 0.49299 0.86799 0.0
H393 H 0.04373 0.58456 0.85925 0.0
H394 H 0.97157 0.58001 0.85739 0.0
S395 S 0.01346 0.35947 0.88797 0.0
N396 N 0.05142 0.40175 0.88367 0.0
N397 N 0.97319 0.39654 0.88128 0.0
C398 C 0.98963 0.44631 0.87516 0.0
C399 C 0.03229 0.44921 0.87631 0.0
C400 C 0.2762 0.30399 0.38383 0.0
C401 C 0.23429 0.30184 0.38705 0.0
C402 C 0.29967 0.2563 0.38397 0.0
C403 C 0.28218 0.20438 0.38693 0.0
H404 H 0.29105 0.34283 0.38018 0.0
H405 H 0.33148 0.26006 0.3801 0.0
S406 S 0.17455 0.17607 0.40002 0.0
N407 N 0.17696 0.24323 0.39639 0.0
N408 N 0.22078 0.15384 0.39632 0.0
C409 C 0.24061 0.20174 0.39192 0.0
C410 C 0.21677 0.25033 0.3921 0.0
C411 C 0.71727 0.75019 0.38433 0.0
C412 C 0.73428 0.8025 0.38682 0.0
C413 C 0.74121 0.70299 0.38369 0.0
C414 C 0.78318 0.70594 0.38595 0.0
H415 H 0.68537 0.74572 0.3813 0.0
H416 H 0.72662 0.66385 0.3805 0.0
S417 S 0.84207 0.8329 0.3971 0.0
N418 N 0.79551 0.85425 0.39454 0.0
N419 N 0.84022 0.76567 0.39368 0.0
C420 C 0.80035 0.75781 0.39044 0.0
C421 C 0.776 0.80597 0.39075 0.0
C422 C 0.21619 0.75725 0.11389 0.0
C423 C 0.23348 0.70516 0.11135 0.0
C424 C 0.2399 0.80469 0.11392 0.0
C425 C 0.28182 0.80209 0.111 0.0
H426 H 0.18438 0.76133 0.11764 0.0
H427 H 0.22521 0.84371 0.11737 0.0
S428 S 0.34103 0.67568 0.09889 0.0
N429 N 0.29466 0.65391 0.10245 0.0
N430 N 0.33894 0.74292 0.10218 0.0
C431 C 0.29913 0.75042 0.10619 0.0
C432 C 0.27505 0.70206 0.10649 0.0
C433 C 0.71657 0.25801 0.11403 0.0
C434 C 0.73355 0.20563 0.11219 0.0
C435 C 0.7406 0.30518 0.11415 0.0
C436 C 0.78256 0.30199 0.11198 0.0
H437 H 0.6847 0.26259 0.11712 0.0
H438 H 0.72611 0.34446 0.11699 0.0
S439 S 0.84129 0.17459 0.10231 0.0
N440 N 0.79469 0.15348 0.10507 0.0
N441 N 0.83952 0.24192 0.10491 0.0
C442 C 0.79965 0.25 0.10799 0.0
C443 C 0.77525 0.20194 0.10824 0.0
C444 C 0.71497 0.74419 0.61661 0.0
C445 C 0.73181 0.79656 0.61407 0.0
C446 C 0.7391 0.69716 0.61714 0.0
C447 C 0.78103 0.70047 0.61473 0.0
H448 H 0.68313 0.73955 0.61989 0.0
H449 H 0.72469 0.65792 0.62044 0.0
S450 S 0.83934 0.82782 0.60311 0.0
N451 N 0.79272 0.84881 0.60594 0.0
N452 N 0.83778 0.76059 0.60658 0.0
C453 C 0.79798 0.75242 0.61007 0.0
C454 C 0.77346 0.80036 0.60987 0.0
C455 C 0.21569 0.2468 0.61456 0.0
C456 C 0.23321 0.29884 0.61278 0.0
C457 C 0.23924 0.19923 0.6152 0.0
C458 C 0.28126 0.20165 0.61366 0.0
H459 H 0.18371 0.2428 0.61719 0.0
H460 H 0.22429 0.16024 0.61791 0.0
S461 S 0.34143 0.32782 0.6043 0.0
N462 N 0.295 0.34982 0.60632 0.0
N463 N 0.33895 0.26056 0.60715 0.0
C464 C 0.29895 0.25326 0.60972 0.0
C465 C 0.27502 0.30175 0.60942 0.0
C466 C 0.71746 0.25177 0.88667 0.0
C467 C 0.73467 0.19951 0.88851 0.0
C468 C 0.74125 0.29916 0.88641 0.0
C469 C 0.78322 0.2964 0.88844 0.0
H470 H 0.68553 0.2561 0.88383 0.0
H471 H 0.72654 0.33831 0.88364 0.0
S472 S 0.84266 0.16954 0.89777 0.0
N473 N 0.79615 0.14796 0.89527 0.0
N474 N 0.84053 0.23685 0.89516 0.0
C475 C 0.8006 0.24453 0.89229 0.0
C476 C 0.77643 0.19622 0.89218 0.0
C477 C 0.27523 0.69975 0.88657 0.0
C478 C 0.23321 0.70211 0.88825 0.0
C479 C 0.29879 0.74735 0.88731 0.0
C480 C 0.28128 0.79939 0.88933 0.0
H481 H 0.29016 0.66079 0.88368 0.0
H482 H 0.33075 0.7434 0.88457 0.0
S483 S 0.17309 0.82823 0.89816 0.0
N484 N 0.17556 0.76099 0.8951 0.0
N485 N 0.21952 0.85026 0.89608 0.0
C486 C 0.23948 0.80223 0.89279 0.0
C487 C 0.21555 0.75372 0.8924 0.0
C488 C 0.33856 0.05627 0.25529 0.0
C489 C 0.33714 0.02056 0.28272 0.0
C490 C 0.33847 0.03636 0.22266 0.0
C491 C 0.33777 0.97996 0.21628 0.0
H492 H 0.33937 0.10013 0.25899 0.0
H493 H 0.33948 0.06532 0.20234 0.0
S494 S 0.33405 0.86915 0.2793 0.0
N495 N 0.33465 0.92613 0.30124 0.0
N496 N 0.3354 0.88846 0.24007 0.0
C497 C 0.33655 0.94375 0.24347 0.0
C498 C 0.33596 0.9641 0.27666 0.0
C499 C 0.67608 0.97263 0.22493 0.0
C500 C 0.6757 0.02914 0.21893 0.0
C501 C 0.67575 0.95209 0.25739 0.0
C502 C 0.6758 0.98728 0.28509 0.0
H503 H 0.67622 0.94399 0.20442 0.0
H504 H 0.6759 0.90814 0.26074 0.0
S505 S 0.67535 0.13879 0.28279 0.0
N506 N 0.67534 0.12022 0.2434 0.0
N507 N 0.6756 0.08139 0.30432 0.0
C508 C 0.67574 0.04388 0.27946 0.0
C509 C 0.67542 0.06486 0.24639 0.0
C510 C 0.67421 0.05144 0.75768 0.0
C511 C 0.67585 0.01617 0.78531 0.0
C512 C 0.67377 0.031 0.72516 0.0
C513 C 0.6742 0.97449 0.71909 0.0
H514 H 0.67365 0.09536 0.76112 0.0
H515 H 0.67266 0.05965 0.70468 0.0
S516 S 0.67833 0.86467 0.78273 0.0
N517 N 0.67821 0.92199 0.80433 0.0
N518 N 0.67652 0.88338 0.74341 0.0
C519 C 0.67559 0.93872 0.74649 0.0
C520 C 0.67668 0.95959 0.77956 0.0
C521 C 0.33777 0.03199 0.77654 0.0
C522 C 0.33745 0.97559 0.78292 0.0
C523 C 0.3377 0.05189 0.74393 0.0
C524 C 0.33649 0.01617 0.71649 0.0
H525 H 0.33858 0.06099 0.79685 0.0
H526 H 0.3382 0.09576 0.74025 0.0
S527 S 0.3345 0.86476 0.71988 0.0
N528 N 0.33574 0.88406 0.75913 0.0
N529 N 0.33467 0.92174 0.69794 0.0
C530 C 0.33571 0.9597 0.72253 0.0
C531 C 0.33648 0.93935 0.75573 0.0
C532 C 0.84083 0.53717 0.22267 0.0
C533 C 0.83996 0.48069 0.21651 0.0
C534 C 0.84113 0.55745 0.25523 0.0
C535 C 0.83977 0.52202 0.28279 0.0
H536 H 0.84175 0.5659 0.20223 0.0
H537 H 0.84197 0.60134 0.25878 0.0
S538 S 0.83653 0.37055 0.27996 0.0
N539 N 0.83766 0.38946 0.24066 0.0
N540 N 0.83733 0.42776 0.30166 0.0
C541 C 0.83854 0.46548 0.27694 0.0
C542 C 0.8389 0.44478 0.24384 0.0
C543 C 0.17677 0.45085 0.25704 0.0
C544 C 0.17842 0.4864 0.28455 0.0
C545 C 0.17703 0.47093 0.22444 0.0
C546 C 0.17814 0.52735 0.21819 0.0
H547 H 0.17563 0.40699 0.26064 0.0
H548 H 0.17579 0.4421 0.20406 0.0
S549 S 0.18293 0.63778 0.28139 0.0
N550 N 0.18177 0.58073 0.30323 0.0
N551 N 0.18136 0.61867 0.24213 0.0
C552 C 0.17966 0.5634 0.24544 0.0
C553 C 0.18007 0.54288 0.27859 0.0
C554 C 0.17648 0.55256 0.75766 0.0
C555 C 0.17742 0.51696 0.78516 0.0
C556 C 0.17658 0.53248 0.72507 0.0
C557 C 0.17681 0.47604 0.71878 0.0
H558 H 0.17609 0.59644 0.76129 0.0
H559 H 0.17599 0.56136 0.7047 0.0
S560 S 0.17895 0.36551 0.78203 0.0
N561 N 0.1788 0.4226 0.80386 0.0
N562 N 0.17807 0.38463 0.74276 0.0
C563 C 0.17747 0.43995 0.74605 0.0
C564 C 0.17805 0.46046 0.77921 0.0
C565 C 0.83979 0.55109 0.74457 0.0
C566 C 0.83883 0.51575 0.71696 0.0
C567 C 0.83986 0.53072 0.77708 0.0
C568 C 0.83976 0.47423 0.78318 0.0
H569 H 0.84005 0.59501 0.74112 0.0
H570 H 0.84042 0.55946 0.79753 0.0
S571 S 0.83763 0.36424 0.71958 0.0
N572 N 0.83759 0.42152 0.69793 0.0
N573 N 0.83863 0.38302 0.75892 0.0
C574 C 0.83911 0.43836 0.7558 0.0
C575 C 0.83837 0.45917 0.72271 0.0
loop_
_geom_bond_atom_site_label_1
_geom_bond_atom_site_label_2
_geom_bond_distance
_geom_bond_site_symmetry_2
_ccdc_geom_bond_type
Co0 O1 2.216 . S
Co0 O2 2.091 . S
Co0 O4 2.004 . S
Co0 O10 2.021 . S
Co0 O12 2.137 . S
Co0 O13 2.244 1_545 S
O1 Co0 2.216 . S
O1 C8 1.247 . S
O2 Co0 2.091 . S
O2 C8 1.261 . S
C3 O12 1.247 . S
C3 O13 1.272 1_545 S
O4 Co0 2.004 . S
O4 C9 1.259 . S
Co5 O6 2.061 . S
Co5 O11 2.052 . S
Co5 O13 2.135 . S
O6 Co5 2.061 . S
O6 C9 1.235 1_565 S
C7 O10 1.238 . S
C7 O11 1.241 1_545 S
C8 O1 1.247 . S
C8 O2 1.261 . S
C9 O4 1.259 . S
C9 O6 1.235 1_545 S
O10 Co0 2.021 . S
O10 C7 1.238 . S
O11 Co5 2.052 . S
O11 C7 1.241 1_565 S
O12 Co0 2.137 . S
O12 C3 1.247 . S
O13 Co0 2.244 1_565 S
O13 C3 1.272 1_565 S
O13 Co5 2.135 . S
Co14 O15 2.216 . S
Co14 O16 2.091 . S
Co14 O18 2.004 . S
Co14 O24 2.021 . S
Co14 O26 2.137 . S
Co14 O27 2.244 1_565 S
O15 Co14 2.216 . S
O15 C22 1.247 . S
O16 Co14 2.091 . S
O16 C22 1.261 . S
C17 O26 1.247 . S
C17 O27 1.272 1_565 S
O18 Co14 2.004 . S
O18 C23 1.259 . S
Co19 O20 2.061 . S
Co19 O25 2.052 . S
Co19 O27 2.135 . S
O20 Co19 2.061 . S
O20 C23 1.235 1_545 S
C21 O24 1.238 . S
C21 O25 1.241 1_565 S
C22 O15 1.247 . S
C22 O16 1.261 . S
C23 O18 1.259 . S
C23 O20 1.235 1_565 S
O24 Co14 2.021 . S
O24 C21 1.238 . S
O25 Co19 2.052 . S
O25 C21 1.241 1_545 S
O26 Co14 2.137 . S
O26 C17 1.247 . S
O27 Co14 2.244 1_545 S
O27 C17 1.272 1_545 S
O27 Co19 2.135 . S
Co28 O29 2.216 . S
Co28 O30 2.091 . S
Co28 O32 2.004 . S
Co28 O38 2.021 . S
Co28 O40 2.137 . S
Co28 O41 2.244 1_565 S
O29 Co28 2.216 . S
O29 C36 1.247 . S
O30 Co28 2.091 . S
O30 C36 1.261 . S
C31 O40 1.247 . S
C31 O41 1.272 1_565 S
O32 Co28 2.004 . S
O32 C37 1.259 . S
Co33 O34 2.061 . S
Co33 O39 2.052 . S
Co33 O41 2.135 . S
O34 Co33 2.061 . S
O34 C37 1.235 1_545 S
C35 O38 1.238 . S
C35 O39 1.241 1_565 S
C36 O29 1.247 . S
C36 O30 1.261 . S
C37 O32 1.259 . S
C37 O34 1.235 1_565 S
O38 Co28 2.021 . S
O38 C35 1.238 . S
O39 Co33 2.052 . S
O39 C35 1.241 1_545 S
O40 Co28 2.137 . S
O40 C31 1.247 . S
O41 Co28 2.244 1_545 S
O41 C31 1.272 1_545 S
O41 Co33 2.135 . S
Co42 O43 2.216 . S
Co42 O44 2.091 . S
Co42 O46 2.004 . S
Co42 O52 2.021 . S
Co42 O54 2.137 . S
Co42 O55 2.244 1_545 S
O43 Co42 2.216 . S
O43 C50 1.247 . S
O44 Co42 2.091 . S
O44 C50 1.261 . S
C45 O54 1.247 . S
C45 O55 1.272 1_545 S
O46 Co42 2.004 . S
O46 C51 1.259 . S
Co47 O48 2.061 . S
Co47 O53 2.052 . S
Co47 O55 2.135 . S
O48 Co47 2.061 . S
O48 C51 1.235 1_565 S
C49 O52 1.238 . S
C49 O53 1.241 1_545 S
C50 O43 1.247 . S
C50 O44 1.261 . S
C51 O46 1.259 . S
C51 O48 1.235 1_545 S
O52 Co42 2.021 . S
O52 C49 1.238 . S
O53 Co47 2.052 . S
O53 C49 1.241 1_565 S
O54 Co42 2.137 . S
O54 C45 1.247 . S
O55 Co42 2.244 1_565 S
O55 C45 1.272 1_565 S
O55 Co47 2.135 . S
Co56 O57 2.216 . S
Co56 O58 2.091 . S
Co56 O60 2.004 . S
Co56 O66 2.021 . S
Co56 O68 2.137 . S
Co56 O69 2.244 1_565 S
O57 Co56 2.216 . S
O57 C64 1.247 . S
O58 Co56 2.091 . S
O58 C64 1.261 . S
C59 O68 1.247 . S
C59 O69 1.272 1_565 S
O60 Co56 2.004 . S
O60 C65 1.259 . S
Co61 O62 2.061 . S
Co61 O67 2.052 . S
Co61 O69 2.135 . S
O62 Co61 2.061 . S
O62 C65 1.235 1_545 S
C63 O66 1.238 . S
C63 O67 1.241 1_565 S
C64 O57 1.247 . S
C64 O58 1.261 . S
C65 O60 1.259 . S
C65 O62 1.235 1_565 S
O66 Co56 2.021 . S
O66 C63 1.238 . S
O67 Co61 2.052 . S
O67 C63 1.241 1_545 S
O68 Co56 2.137 . S
O68 C59 1.247 . S
O69 Co56 2.244 1_545 S
O69 C59 1.272 1_545 S
O69 Co61 2.135 . S
Co70 O71 2.216 . S
Co70 O72 2.091 . S
Co70 O74 2.004 . S
Co70 O80 2.021 . S
Co70 O82 2.137 . S
Co70 O83 2.244 1_545 S
O71 Co70 2.216 . S
O71 C78 1.247 . S
O72 Co70 2.091 . S
O72 C78 1.261 . S
C73 O82 1.247 . S
C73 O83 1.272 1_545 S
O74 Co70 2.004 . S
O74 C79 1.259 . S
Co75 O76 2.061 . S
Co75 O81 2.052 . S
Co75 O83 2.135 . S
O76 Co75 2.061 . S
O76 C79 1.235 1_565 S
C77 O80 1.238 . S
C77 O81 1.241 1_545 S
C78 O71 1.247 . S
C78 O72 1.261 . S
C79 O74 1.259 . S
C79 O76 1.235 1_545 S
O80 Co70 2.021 . S
O80 C77 1.238 . S
O81 Co75 2.052 . S
O81 C77 1.241 1_565 S
O82 Co70 2.137 . S
O82 C73 1.247 . S
O83 Co70 2.244 1_565 S
O83 C73 1.272 1_565 S
O83 Co75 2.135 . S
Co84 O85 2.216 . S
Co84 O86 2.091 . S
Co84 O88 2.004 . S
Co84 O94 2.021 . S
Co84 O96 2.137 . S
Co84 O97 2.244 1_545 S
O85 Co84 2.216 . S
O85 C92 1.247 . S
O86 Co84 2.091 . S
O86 C92 1.261 . S
C87 O96 1.247 . S
C87 O97 1.272 1_545 S
O88 Co84 2.004 . S
O88 C93 1.259 . S
Co89 O90 2.061 . S
Co89 O95 2.052 . S
Co89 O97 2.135 . S
O90 Co89 2.061 . S
O90 C93 1.235 1_565 S
C91 O94 1.238 . S
C91 O95 1.241 1_545 S
C92 O85 1.247 . S
C92 O86 1.261 . S
C93 O88 1.259 . S
C93 O90 1.235 1_545 S
O94 Co84 2.021 . S
O94 C91 1.238 . S
O95 Co89 2.052 . S
O95 C91 1.241 1_565 S
O96 Co84 2.137 . S
O96 C87 1.247 . S
O97 Co84 2.244 1_565 S
O97 C87 1.272 1_565 S
O97 Co89 2.135 . S
Co98 O99 2.216 . S
Co98 O100 2.091 . S
Co98 O102 2.004 . S
Co98 O108 2.021 . S
Co98 O110 2.137 . S
Co98 O111 2.244 1_565 S
O99 Co98 2.216 . S
O99 C106 1.247 . S
O100 Co98 2.091 . S
O100 C106 1.261 . S
C101 O110 1.247 . S
C101 O111 1.272 1_565 S
O102 Co98 2.004 . S
O102 C107 1.259 . S
Co103 O104 2.061 . S
Co103 O109 2.052 . S
Co103 O111 2.135 . S
O104 Co103 2.061 . S
O104 C107 1.235 1_545 S
C105 O108 1.238 . S
C105 O109 1.241 1_565 S
C106 O99 1.247 . S
C106 O100 1.261 . S
C107 O102 1.259 . S
C107 O104 1.235 1_565 S
O108 Co98 2.021 . S
O108 C105 1.238 . S
O109 Co103 2.052 . S
O109 C105 1.241 1_545 S
O110 Co98 2.137 . S
O110 C101 1.247 . S
O111 Co98 2.244 1_545 S
O111 C101 1.272 1_545 S
O111 Co103 2.135 . S
Co112 O113 2.216 . S
Co112 O114 2.091 . S
Co112 O116 2.004 . S
Co112 O122 2.021 . S
Co112 O124 2.137 . S
Co112 O125 2.244 . S
O113 Co112 2.216 . S
O113 C120 1.247 . S
O114 Co112 2.091 . S
O114 C120 1.261 . S
C115 O124 1.247 . S
C115 O125 1.272 . S
O116 Co112 2.004 . S
O116 C121 1.259 . S
Co117 O118 2.061 . S
Co117 O123 2.052 . S
Co117 O125 2.135 . S
O118 Co117 2.061 . S
O118 C121 1.235 . S
C119 O122 1.238 . S
C119 O123 1.241 . S
C120 O113 1.247 . S
C120 O114 1.261 . S
C121 O116 1.259 . S
C121 O118 1.235 . S
O122 Co112 2.021 . S
O122 C119 1.238 . S
O123 Co117 2.052 . S
O123 C119 1.241 . S
O124 Co112 2.137 . S
O124 C115 1.247 . S
O125 Co112 2.244 . S
O125 C115 1.272 . S
O125 Co117 2.135 . S
Co126 O127 2.216 . S
Co126 O128 2.091 . S
Co126 O130 2.004 . S
Co126 O136 2.021 . S
Co126 O138 2.137 . S
Co126 O139 2.244 . S
O127 Co126 2.216 . S
O127 C134 1.247 . S
O128 Co126 2.091 . S
O128 C134 1.261 . S
C129 O138 1.247 . S
C129 O139 1.272 . S
O130 Co126 2.004 . S
O130 C135 1.259 . S
Co131 O132 2.061 . S
Co131 O137 2.052 . S
Co131 O139 2.135 . S
O132 Co131 2.061 . S
O132 C135 1.235 . S
C133 O136 1.238 . S
C133 O137 1.241 . S
C134 O127 1.247 . S
C134 O128 1.261 . S
C135 O130 1.259 . S
C135 O132 1.235 . S
O136 Co126 2.021 . S
O136 C133 1.238 . S
O137 Co131 2.052 . S
O137 C133 1.241 . S
O138 Co126 2.137 . S
O138 C129 1.247 . S
O139 Co126 2.244 . S
O139 C129 1.272 . S
O139 Co131 2.135 . S
Co140 O141 2.216 . S
Co140 O142 2.091 . S
Co140 O144 2.004 . S
Co140 O150 2.021 . S
Co140 O152 2.137 . S
Co140 O153 2.244 . S
O141 Co140 2.216 . S
O141 C148 1.247 . S
O142 Co140 2.091 . S
O142 C148 1.261 . S
C143 O152 1.247 . S
C143 O153 1.272 . S
O144 Co140 2.004 . S
O144 C149 1.259 . S
Co145 O146 2.061 . S
Co145 O151 2.052 . S
Co145 O153 2.135 . S
O146 Co145 2.061 . S
O146 C149 1.235 . S
C147 O150 1.238 . S
C147 O151 1.241 . S
C148 O141 1.247 . S
C148 O142 1.261 . S
C149 O144 1.259 . S
C149 O146 1.235 . S
O150 Co140 2.021 . S
O150 C147 1.238 . S
O151 Co145 2.052 . S
O151 C147 1.241 . S
O152 Co140 2.137 . S
O152 C143 1.247 . S
O153 Co140 2.244 . S
O153 C143 1.272 . S
O153 Co145 2.135 . S
Co154 O155 2.216 . S
Co154 O156 2.091 . S
Co154 O158 2.004 . S
Co154 O164 2.021 . S
Co154 O166 2.137 . S
Co154 O167 2.244 . S
O155 Co154 2.216 . S
O155 C162 1.247 . S
O156 Co154 2.091 . S
O156 C162 1.261 . S
C157 O166 1.247 . S
C157 O167 1.272 . S
O158 Co154 2.004 . S
O158 C163 1.259 . S
Co159 O160 2.061 . S
Co159 O165 2.052 . S
Co159 O167 2.135 . S
O160 Co159 2.061 . S
O160 C163 1.235 . S
C161 O164 1.238 . S
C161 O165 1.241 . S
C162 O155 1.247 . S
C162 O156 1.261 . S
C163 O158 1.259 . S
C163 O160 1.235 . S
O164 Co154 2.021 . S
O164 C161 1.238 . S
O165 Co159 2.052 . S
O165 C161 1.241 . S
O166 Co154 2.137 . S
O166 C157 1.247 . S
O167 Co154 2.244 . S
O167 C157 1.272 . S
O167 Co159 2.135 . S
Co168 O169 2.216 . S
Co168 O170 2.091 . S
Co168 O172 2.004 . S
Co168 O178 2.021 . S
Co168 O180 2.137 . S
Co168 O181 2.244 . S
O169 Co168 2.216 . S
O169 C176 1.247 . S
O170 Co168 2.091 . S
O170 C176 1.261 . S
C171 O180 1.247 . S
C171 O181 1.272 . S
O172 Co168 2.004 . S
O172 C177 1.259 . S
Co173 O174 2.061 . S
Co173 O179 2.052 . S
Co173 O181 2.135 . S
O174 Co173 2.061 . S
O174 C177 1.235 . S
C175 O178 1.238 . S
C175 O179 1.241 . S
C176 O169 1.247 . S
C176 O170 1.261 . S
C177 O172 1.259 . S
C177 O174 1.235 . S
O178 Co168 2.021 . S
O178 C175 1.238 . S
O179 Co173 2.052 . S
O179 C175 1.241 . S
O180 Co168 2.137 . S
O180 C171 1.247 . S
O181 Co168 2.244 . S
O181 C171 1.272 . S
O181 Co173 2.135 . S
Co182 O183 2.216 . S
Co182 O184 2.091 . S
Co182 O186 2.004 . S
Co182 O192 2.021 . S
Co182 O194 2.137 . S
Co182 O195 2.244 . S
O183 Co182 2.216 . S
O183 C190 1.247 . S
O184 Co182 2.091 . S
O184 C190 1.261 . S
C185 O194 1.247 . S
C185 O195 1.272 . S
O186 Co182 2.004 . S
O186 C191 1.259 . S
Co187 O188 2.061 . S
Co187 O193 2.052 . S
Co187 O195 2.135 . S
O188 Co187 2.061 . S
O188 C191 1.235 . S
C189 O192 1.238 . S
C189 O193 1.241 . S
C190 O183 1.247 . S
C190 O184 1.261 . S
C191 O186 1.259 . S
C191 O188 1.235 . S
O192 Co182 2.021 . S
O192 C189 1.238 . S
O193 Co187 2.052 . S
O193 C189 1.241 . S
O194 Co182 2.137 . S
O194 C185 1.247 . S
O195 Co182 2.244 . S
O195 C185 1.272 . S
O195 Co187 2.135 . S
Co196 O197 2.216 . S
Co196 O198 2.091 . S
Co196 O200 2.004 . S
Co196 O206 2.021 . S
Co196 O208 2.137 . S
Co196 O209 2.244 . S
O197 Co196 2.216 . S
O197 C204 1.247 . S
O198 Co196 2.091 . S
O198 C204 1.261 . S
C199 O208 1.247 . S
C199 O209 1.272 . S
O200 Co196 2.004 . S
O200 C205 1.259 . S
Co201 O202 2.061 . S
Co201 O207 2.052 . S
Co201 O209 2.135 . S
O202 Co201 2.061 . S
O202 C205 1.235 . S
C203 O206 1.238 . S
C203 O207 1.241 . S
C204 O197 1.247 . S
C204 O198 1.261 . S
C205 O200 1.259 . S
C205 O202 1.235 . S
O206 Co196 2.021 . S
O206 C203 1.238 . S
O207 Co201 2.052 . S
O207 C203 1.241 . S
O208 Co196 2.137 . S
O208 C199 1.247 . S
O209 Co196 2.244 . S
O209 C199 1.272 . S
O209 Co201 2.135 . S
Co210 O211 2.216 . S
Co210 O212 2.091 . S
Co210 O214 2.004 . S
Co210 O220 2.021 . S
Co210 O222 2.137 . S
Co210 O223 2.244 . S
O211 Co210 2.216 . S
O211 C218 1.247 . S
O212 Co210 2.091 . S
O212 C218 1.261 . S
C213 O222 1.247 . S
C213 O223 1.272 . S
O214 Co210 2.004 . S
O214 C219 1.259 . S
Co215 O216 2.061 . S
Co215 O221 2.052 . S
Co215 O223 2.135 . S
O216 Co215 2.061 . S
O216 C219 1.235 . S
C217 O220 1.238 . S
C217 O221 1.241 . S
C218 O211 1.247 . S
C218 O212 1.261 . S
C219 O214 1.259 . S
C219 O216 1.235 . S
O220 Co210 2.021 . S
O220 C217 1.238 . S
O221 Co215 2.052 . S
O221 C217 1.241 . S
O222 Co210 2.137 . S
O222 C213 1.247 . S
O223 Co210 2.244 . S
O223 C213 1.272 . S
O223 Co215 2.135 . S
C224 C225 1.369 1_565 S
C224 C226 1.419 . S
C224 H228 0.930 . S
C225 C224 1.369 1_545 S
C225 C234 1.429 . S
C226 C224 1.419 . S
C226 C227 1.363 1_565 S
C226 H229 0.929 . S
C227 C226 1.363 1_545 S
C227 C233 1.428 . S
H228 C224 0.930 . S
H229 C226 0.929 . S
S230 N231 1.613 . S
S230 N232 1.610 . S
N231 S230 1.613 . S
N231 C234 1.350 . S
N232 S230 1.610 . S
N232 C233 1.351 . S
C233 C227 1.428 . S
C233 N232 1.351 . S
C233 C234 1.434 . S
C234 C225 1.429 . S
C234 N231 1.350 . S
C234 C233 1.434 . S
C235 C236 1.369 1_545 S
C235 C237 1.419 . S
C235 H239 0.930 . S
C236 C235 1.369 1_565 S
C236 C245 1.429 . S
C237 C235 1.419 . S
C237 C238 1.363 1_545 S
C237 H240 0.929 . S
C238 C237 1.363 1_565 S
C238 C244 1.428 . S
H239 C235 0.930 . S
H240 C237 0.929 . S
S241 N242 1.613 . S
S241 N243 1.610 . S
N242 S241 1.613 . S
N242 C245 1.350 . S
N243 S241 1.610 . S
N243 C244 1.351 . S
C244 C238 1.428 . S
C244 N243 1.351 . S
C244 C245 1.434 . S
C245 C236 1.429 . S
C245 N242 1.350 . S
C245 C244 1.434 . S
C246 C247 1.369 . S
C246 C248 1.419 1_554 S
C246 H250 0.930 . S
C247 C246 1.369 . S
C247 C256 1.429 1_565 S
C248 C246 1.419 1_556 S
C248 C249 1.363 . S
C248 H251 0.929 . S
C249 C248 1.363 . S
C249 C255 1.428 1_565 S
H250 C246 0.930 . S
H251 C248 0.929 . S
S252 N253 1.611 . S
S252 N254 1.612 1_554 S
N253 S252 1.611 . S
N253 C256 1.350 . S
N254 S252 1.612 1_556 S
N254 C255 1.351 . S
C255 C249 1.428 1_545 S
C255 N254 1.351 . S
C255 C256 1.434 1_556 S
C256 C247 1.429 1_545 S
C256 N253 1.350 . S
C256 C255 1.434 1_554 S
C257 C258 1.369 . S
C257 C259 1.419 1_556 S
C257 H261 0.930 . S
C258 C257 1.369 . S
C258 C267 1.429 1_545 S
C259 C257 1.419 1_554 S
C259 C260 1.363 . S
C259 H262 0.929 . S
C260 C259 1.363 . S
C260 C266 1.428 1_545 S
H261 C257 0.930 . S
H262 C259 0.929 . S
S263 N264 1.613 . S
S263 N265 1.611 1_556 S
N264 S263 1.613 . S
N264 C267 1.350 . S
N265 S263 1.611 1_554 S
N265 C266 1.351 . S
C266 C260 1.428 1_565 S
C266 N265 1.351 . S
C266 C267 1.434 1_554 S
C267 C258 1.429 1_565 S
C267 N264 1.350 . S
C267 C266 1.434 1_556 S
C268 C269 1.369 . S
C268 C270 1.419 . S
C268 H272 0.930 . S
C269 C268 1.369 . S
C269 C278 1.429 . S
C270 C268 1.419 . S
C270 C271 1.363 . S
C270 H273 0.929 . S
C271 C270 1.363 . S
C271 C277 1.428 . S
H272 C268 0.930 . S
H273 C270 0.929 . S
S274 N275 1.613 . S
S274 N276 1.610 . S
N275 S274 1.613 . S
N275 C278 1.350 . S
N276 S274 1.610 . S
N276 C277 1.351 . S
C277 C271 1.428 . S
C277 N276 1.351 . S
C277 C278 1.434 . S
C278 C269 1.429 . S
C278 N275 1.350 . S
C278 C277 1.434 . S
C279 C280 1.369 . S
C279 C281 1.419 . S
C279 H283 0.930 . S
C280 C279 1.369 . S
C280 C289 1.429 . S
C281 C279 1.419 . S
C281 C282 1.363 . S
C281 H284 0.929 . S
C282 C281 1.363 . S
C282 C288 1.428 . S
H283 C279 0.930 . S
H284 C281 0.929 . S
S285 N286 1.613 . S
S285 N287 1.610 . S
N286 S285 1.613 . S
N286 C289 1.350 . S
N287 S285 1.610 . S
N287 C288 1.351 . S
C288 C282 1.428 . S
C288 N287 1.351 . S
C288 C289 1.434 . S
C289 C280 1.429 . S
C289 N286 1.350 . S
C289 C288 1.434 . S
C290 C291 1.369 . S
C290 C292 1.419 1_556 S
C290 H294 0.930 . S
C291 C290 1.369 . S
C291 C300 1.429 . S
C292 C290 1.419 1_554 S
C292 C293 1.363 . S
C292 H295 0.929 . S
C293 C292 1.363 . S
C293 C299 1.428 . S
H294 C290 0.930 . S
H295 C292 0.929 . S
S296 N297 1.612 1_554 S
S296 N298 1.611 . S
N297 S296 1.612 1_556 S
N297 C300 1.350 . S
N298 S296 1.611 . S
N298 C299 1.351 . S
C299 C293 1.428 . S
C299 N298 1.351 . S
C299 C300 1.434 1_554 S
C300 C291 1.429 . S
C300 N297 1.350 . S
C300 C299 1.434 1_556 S
C301 C302 1.369 . S
C301 C303 1.419 1_554 S
C301 H305 0.930 . S
C302 C301 1.369 . S
C302 C311 1.429 . S
C303 C301 1.419 1_556 S
C303 C304 1.363 . S
C303 H306 0.929 . S
C304 C303 1.363 . S
C304 C310 1.428 . S
H305 C301 0.930 . S
H306 C303 0.929 . S
S307 N308 1.612 . S
S307 N309 1.612 1_554 S
N308 S307 1.612 . S
N308 C311 1.350 . S
N309 S307 1.612 1_556 S
N309 C310 1.351 . S
C310 C304 1.428 . S
C310 N309 1.351 . S
C310 C311 1.434 1_556 S
C311 C302 1.429 . S
C311 N308 1.350 . S
C311 C310 1.434 1_554 S
C312 C313 1.369 1_545 S
C312 C314 1.419 . S
C312 H316 0.930 . S
C313 C312 1.369 1_565 S
C313 C322 1.429 . S
C314 C312 1.419 . S
C314 C315 1.363 . S
C314 H317 0.929 . S
C315 C314 1.363 . S
C315 C321 1.428 1_545 S
H316 C312 0.930 . S
H317 C314 0.929 . S
S318 N319 1.613 . S
S318 N320 1.610 . S
N319 S318 1.613 . S
N319 C322 1.350 . S
N320 S318 1.610 . S
N320 C321 1.351 . S
C321 C315 1.428 1_565 S
C321 N320 1.351 . S
C321 C322 1.434 . S
C322 C313 1.429 . S
C322 N319 1.350 . S
C322 C321 1.434 . S
C323 C324 1.369 1_545 S
C323 C325 1.419 . S
C323 H327 0.930 . S
C324 C323 1.369 1_565 S
C324 C333 1.429 . S
C325 C323 1.419 . S
C325 C326 1.363 . S
C325 H328 0.929 . S
C326 C325 1.363 . S
C326 C332 1.428 1_545 S
H327 C323 0.930 . S
H328 C325 0.929 . S
S329 N330 1.613 . S
S329 N331 1.610 . S
N330 S329 1.613 . S
N330 C333 1.350 . S
N331 S329 1.610 . S
N331 C332 1.351 . S
C332 C326 1.428 1_565 S
C332 N331 1.351 . S
C332 C333 1.434 . S
C333 C324 1.429 . S
C333 N330 1.350 . S
C333 C332 1.434 . S
C334 C335 1.369 1_545 S
C334 C336 1.419 . S
C334 H338 0.930 . S
C335 C334 1.369 1_565 S
C335 C344 1.429 . S
C336 C334 1.419 . S
C336 C337 1.363 . S
C336 H339 0.929 . S
C337 C336 1.363 . S
C337 C343 1.428 1_545 S
H338 C334 0.930 . S
H339 C336 0.929 . S
S340 N341 1.613 . S
S340 N342 1.610 . S
N341 S340 1.613 . S
N341 C344 1.350 . S
N342 S340 1.610 . S
N342 C343 1.351 . S
C343 C337 1.428 1_565 S
C343 N342 1.351 . S
C343 C344 1.434 . S
C344 C335 1.429 . S
C344 N341 1.350 . S
C344 C343 1.434 . S
C345 C346 1.369 1_565 S
C345 C347 1.419 . S
C345 H349 0.930 . S
C346 C345 1.369 1_545 S
C346 C355 1.429 . S
C347 C345 1.419 . S
C347 C348 1.363 . S
C347 H350 0.929 . S
C348 C347 1.363 . S
C348 C354 1.428 1_565 S
H349 C345 0.930 . S
H350 C347 0.929 . S
S351 N352 1.613 . S
S351 N353 1.610 . S
N352 S351 1.613 . S
N352 C355 1.350 . S
N353 S351 1.610 . S
N353 C354 1.351 . S
C354 C348 1.428 1_545 S
C354 N353 1.351 . S
C354 C355 1.434 . S
C355 C346 1.429 . S
C355 N352 1.350 . S
C355 C354 1.434 . S
C356 C357 1.369 . S
C356 C358 1.419 1_655 S
C356 H360 0.930 . S
C357 C356 1.369 . S
C357 C366 1.429 . S
C358 C356 1.419 1_455 S
C358 C359 1.363 . S
C358 H361 0.929 . S
C359 C358 1.363 . S
C359 C365 1.428 . S
H360 C356 0.930 . S
H361 C358 0.929 . S
S362 N363 1.613 . S
S362 N364 1.610 1_655 S
N363 S362 1.613 . S
N363 C366 1.350 . S
N364 S362 1.610 1_455 S
N364 C365 1.351 . S
C365 C359 1.428 . S
C365 N364 1.351 . S
C365 C366 1.434 1_455 S
C366 C357 1.429 . S
C366 N363 1.350 . S
C366 C365 1.434 1_655 S
C367 C368 1.369 . S
C367 C369 1.419 1_455 S
C367 H371 0.930 . S
C368 C367 1.369 . S
C368 C377 1.429 . S
C369 C367 1.419 1_655 S
C369 C370 1.363 . S
C369 H372 0.929 . S
C370 C369 1.363 . S
C370 C376 1.428 . S
H371 C367 0.930 . S
H372 C369 0.929 . S
S373 N374 1.613 . S
S373 N375 1.610 1_455 S
N374 S373 1.613 . S
N374 C377 1.350 . S
N375 S373 1.610 1_655 S
N375 C376 1.351 . S
C376 C370 1.428 . S
C376 N375 1.351 . S
C376 C377 1.434 1_655 S
C377 C368 1.429 . S
C377 N374 1.350 . S
C377 C376 1.434 1_455 S
C378 C379 1.369 . S
C378 C380 1.419 1_655 S
C378 H382 0.930 . S
C379 C378 1.369 . S
C379 C388 1.429 . S
C380 C378 1.419 1_455 S
C380 C381 1.363 . S
C380 H383 0.929 . S
C381 C380 1.363 . S
C381 C387 1.428 . S
H382 C378 0.930 . S
H383 C380 0.929 . S
S384 N385 1.613 1_455 S
S384 N386 1.610 . S
N385 S384 1.613 1_655 S
N385 C388 1.350 . S
N386 S384 1.610 . S
N386 C387 1.351 . S
C387 C381 1.428 . S
C387 N386 1.351 . S
C387 C388 1.434 1_455 S
C388 C379 1.429 . S
C388 N385 1.350 . S
C388 C387 1.434 1_655 S
C389 C390 1.369 . S
C389 C391 1.419 1_455 S
C389 H393 0.930 . S
C390 C389 1.369 . S
C390 C399 1.429 . S
C391 C389 1.419 1_655 S
C391 C392 1.363 . S
C391 H394 0.929 . S
C392 C391 1.363 . S
C392 C398 1.428 . S
H393 C389 0.930 . S
H394 C391 0.929 . S
S395 N396 1.613 . S
S395 N397 1.610 1_455 S
N396 S395 1.613 . S
N396 C399 1.350 . S
N397 S395 1.610 1_655 S
N397 C398 1.351 . S
C398 C392 1.428 . S
C398 N397 1.351 . S
C398 C399 1.434 1_655 S
C399 C390 1.429 . S
C399 N396 1.350 . S
C399 C398 1.434 1_455 S
C400 C401 1.369 . S
C400 C402 1.419 . S
C400 H404 0.930 . S
C401 C400 1.369 . S
C401 C410 1.429 . S
C402 C400 1.419 . S
C402 C403 1.363 . S
C402 H405 0.929 . S
C403 C402 1.363 . S
C403 C409 1.428 . S
H404 C400 0.930 . S
H405 C402 0.929 . S
S406 N407 1.613 . S
S406 N408 1.610 . S
N407 S406 1.613 . S
N407 C410 1.350 . S
N408 S406 1.610 . S
N408 C409 1.351 . S
C409 C403 1.428 . S
C409 N408 1.351 . S
C409 C410 1.434 . S
C410 C401 1.429 . S
C410 N407 1.350 . S
C410 C409 1.434 . S
C411 C412 1.369 . S
C411 C413 1.419 . S
C411 H415 0.930 . S
C412 C411 1.369 . S
C412 C421 1.429 . S
C413 C411 1.419 . S
C413 C414 1.363 . S
C413 H416 0.929 . S
C414 C413 1.363 . S
C414 C420 1.428 . S
H415 C411 0.930 . S
H416 C413 0.929 . S
S417 N418 1.613 . S
S417 N419 1.610 . S
N418 S417 1.613 . S
N418 C421 1.350 . S
N419 S417 1.610 . S
N419 C420 1.351 . S
C420 C414 1.428 . S
C420 N419 1.351 . S
C420 C421 1.434 . S
C421 C412 1.429 . S
C421 N418 1.350 . S
C421 C420 1.434 . S
C422 C423 1.369 . S
C422 C424 1.419 . S
C422 H426 0.930 . S
C423 C422 1.369 . S
C423 C432 1.429 . S
C424 C422 1.419 . S
C424 C425 1.363 . S
C424 H427 0.929 . S
C425 C424 1.363 . S
C425 C431 1.428 . S
H426 C422 0.930 . S
H427 C424 0.929 . S
S428 N429 1.613 . S
S428 N430 1.610 . S
N429 S428 1.613 . S
N429 C432 1.350 . S
N430 S428 1.610 . S
N430 C431 1.351 . S
C431 C425 1.428 . S
C431 N430 1.351 . S
C431 C432 1.434 . S
C432 C423 1.429 . S
C432 N429 1.350 . S
C432 C431 1.434 . S
C433 C434 1.369 . S
C433 C435 1.419 . S
C433 H437 0.930 . S
C434 C433 1.369 . S
C434 C443 1.429 . S
C435 C433 1.419 . S
C435 C436 1.363 . S
C435 H438 0.929 . S
C436 C435 1.363 . S
C436 C442 1.428 . S
H437 C433 0.930 . S
H438 C435 0.929 . S
S439 N440 1.613 . S
S439 N441 1.610 . S
N440 S439 1.613 . S
N440 C443 1.350 . S
N441 S439 1.610 . S
N441 C442 1.351 . S
C442 C436 1.428 . S
C442 N441 1.351 . S
C442 C443 1.434 . S
C443 C434 1.429 . S
C443 N440 1.350 . S
C443 C442 1.434 . S
C444 C445 1.369 . S
C444 C446 1.419 . S
C444 H448 0.930 . S
C445 C444 1.369 . S
C445 C454 1.429 . S
C446 C444 1.419 . S
C446 C447 1.363 . S
C446 H449 0.929 . S
C447 C446 1.363 . S
C447 C453 1.428 . S
H448 C444 0.930 . S
H449 C446 0.929 . S
S450 N451 1.613 . S
S450 N452 1.610 . S
N451 S450 1.613 . S
N451 C454 1.350 . S
N452 S450 1.610 . S
N452 C453 1.351 . S
C453 C447 1.428 . S
C453 N452 1.351 . S
C453 C454 1.434 . S
C454 C445 1.429 . S
C454 N451 1.350 . S
C454 C453 1.434 . S
C455 C456 1.369 . S
C455 C457 1.419 . S
C455 H459 0.930 . S
C456 C455 1.369 . S
C456 C465 1.429 . S
C457 C455 1.419 . S
C457 C458 1.363 . S
C457 H460 0.929 . S
C458 C457 1.363 . S
C458 C464 1.428 . S
H459 C455 0.930 . S
H460 C457 0.929 . S
S461 N462 1.613 . S
S461 N463 1.610 . S
N462 S461 1.613 . S
N462 C465 1.350 . S
N463 S461 1.610 . S
N463 C464 1.351 . S
C464 C458 1.428 . S
C464 N463 1.351 . S
C464 C465 1.434 . S
C465 C456 1.429 . S
C465 N462 1.350 . S
C465 C464 1.434 . S
C466 C467 1.369 . S
C466 C468 1.419 . S
C466 H470 0.930 . S
C467 C466 1.369 . S
C467 C476 1.429 . S
C468 C466 1.419 . S
C468 C469 1.363 . S
C468 H471 0.929 . S
C469 C468 1.363 . S
C469 C475 1.428 . S
H470 C466 0.930 . S
H471 C468 0.929 . S
S472 N473 1.613 . S
S472 N474 1.610 . S
N473 S472 1.613 . S
N473 C476 1.350 . S
N474 S472 1.610 . S
N474 C475 1.351 . S
C475 C469 1.428 . S
C475 N474 1.351 . S
C475 C476 1.434 . S
C476 C467 1.429 . S
C476 N473 1.350 . S
C476 C475 1.434 . S
C477 C478 1.369 . S
C477 C479 1.419 . S
C477 H481 0.930 . S
C478 C477 1.369 . S
C478 C487 1.429 . S
C479 C477 1.419 . S
C479 C480 1.363 . S
C479 H482 0.929 . S
C480 C479 1.363 . S
C480 C486 1.428 . S
H481 C477 0.930 . S
H482 C479 0.929 . S
S483 N484 1.613 . S
S483 N485 1.610 . S
N484 S483 1.613 . S
N484 C487 1.350 . S
N485 S483 1.610 . S
N485 C486 1.351 . S
C486 C480 1.428 . S
C486 N485 1.351 . S
C486 C487 1.434 . S
C487 C478 1.429 . S
C487 N484 1.350 . S
C487 C486 1.434 . S
C488 C489 1.369 1_545 S
C488 C490 1.419 . S
C488 H492 0.930 . S
C489 C488 1.369 1_565 S
C489 C498 1.429 . S
C490 C488 1.419 . S
C490 C491 1.363 . S
C490 H493 0.929 . S
C491 C490 1.363 . S
C491 C497 1.428 1_545 S
H492 C488 0.930 . S
H493 C490 0.929 . S
S494 N495 1.613 . S
S494 N496 1.610 . S
N495 S494 1.613 . S
N495 C498 1.350 . S
N496 S494 1.610 . S
N496 C497 1.351 . S
C497 C491 1.428 1_565 S
C497 N496 1.351 . S
C497 C498 1.434 . S
C498 C489 1.429 . S
C498 N495 1.350 . S
C498 C497 1.434 . S
C499 C500 1.369 . S
C499 C501 1.419 . S
C499 H503 0.930 . S
C500 C499 1.369 . S
C500 C509 1.429 1_565 S
C501 C499 1.419 . S
C501 C502 1.363 1_565 S
C501 H504 0.929 . S
C502 C501 1.363 1_545 S
C502 C508 1.428 . S
H503 C499 0.930 . S
H504 C501 0.929 . S
S505 N506 1.613 . S
S505 N507 1.610 . S
N506 S505 1.613 . S
N506 C509 1.350 . S
N507 S505 1.610 . S
N507 C508 1.351 . S
C508 C502 1.428 . S
C508 N507 1.351 . S
C508 C509 1.434 . S
C509 C500 1.429 1_545 S
C509 N506 1.350 . S
C509 C508 1.434 . S
C510 C511 1.369 1_545 S
C510 C512 1.419 . S
C510 H514 0.930 . S
C511 C510 1.369 1_565 S
C511 C520 1.429 . S
C512 C510 1.419 . S
C512 C513 1.363 . S
C512 H515 0.929 . S
C513 C512 1.363 . S
C513 C519 1.428 1_545 S
H514 C510 0.930 . S
H515 C512 0.929 . S
S516 N517 1.613 . S
S516 N518 1.610 . S
N517 S516 1.613 . S
N517 C520 1.350 . S
N518 S516 1.610 . S
N518 C519 1.351 . S
C519 C513 1.428 1_565 S
C519 N518 1.351 . S
C519 C520 1.434 . S
C520 C511 1.429 . S
C520 N517 1.350 . S
C520 C519 1.434 . S
C521 C522 1.369 . S
C521 C523 1.419 . S
C521 H525 0.930 . S
C522 C521 1.369 . S
C522 C531 1.429 1_545 S
C523 C521 1.419 . S
C523 C524 1.363 1_545 S
C523 H526 0.929 . S
C524 C523 1.363 1_565 S
C524 C530 1.428 . S
H525 C521 0.930 . S
H526 C523 0.929 . S
S527 N528 1.613 . S
S527 N529 1.610 . S
N528 S527 1.613 . S
N528 C531 1.350 . S
N529 S527 1.610 . S
N529 C530 1.351 . S
C530 C524 1.428 . S
C530 N529 1.351 . S
C530 C531 1.434 . S
C531 C522 1.429 1_565 S
C531 N528 1.350 . S
C531 C530 1.434 . S
C532 C533 1.369 . S
C532 C534 1.419 . S
C532 H536 0.930 . S
C533 C532 1.369 . S
C533 C542 1.429 . S
C534 C532 1.419 . S
C534 C535 1.363 . S
C534 H537 0.929 . S
C535 C534 1.363 . S
C535 C541 1.428 . S
H536 C532 0.930 . S
H537 C534 0.929 . S
S538 N539 1.613 . S
S538 N540 1.610 . S
N539 S538 1.613 . S
N539 C542 1.350 . S
N540 S538 1.610 . S
N540 C541 1.351 . S
C541 C535 1.428 . S
C541 N540 1.351 . S
C541 C542 1.434 . S
C542 C533 1.429 . S
C542 N539 1.350 . S
C542 C541 1.434 . S
C543 C544 1.369 . S
C543 C545 1.419 . S
C543 H547 0.930 . S
C544 C543 1.369 . S
C544 C553 1.429 . S
C545 C543 1.419 . S
C545 C546 1.363 . S
C545 H548 0.929 . S
C546 C545 1.363 . S
C546 C552 1.428 . S
H547 C543 0.930 . S
H548 C545 0.929 . S
S549 N550 1.613 . S
S549 N551 1.610 . S
N550 S549 1.613 . S
N550 C553 1.350 . S
N551 S549 1.610 . S
N551 C552 1.351 . S
C552 C546 1.428 . S
C552 N551 1.351 . S
C552 C553 1.434 . S
C553 C544 1.429 . S
C553 N550 1.350 . S
C553 C552 1.434 . S
C554 C555 1.369 . S
C554 C556 1.419 . S
C554 H558 0.930 . S
C555 C554 1.369 . S
C555 C564 1.429 . S
C556 C554 1.419 . S
C556 C557 1.363 . S
C556 H559 0.929 . S
C557 C556 1.363 . S
C557 C563 1.428 . S
H558 C554 0.930 . S
H559 C556 0.929 . S
S560 N561 1.613 . S
S560 N562 1.610 . S
N561 S560 1.613 . S
N561 C564 1.350 . S
N562 S560 1.610 . S
N562 C563 1.351 . S
C563 C557 1.428 . S
C563 N562 1.351 . S
C563 C564 1.434 . S
C564 C555 1.429 . S
C564 N561 1.350 . S
C564 C563 1.434 . S
C565 C566 1.369 . S
C565 C567 1.419 . S
C565 H569 0.930 . S
C566 C565 1.369 . S
C566 C575 1.429 . S
C567 C565 1.419 . S
C567 C568 1.363 . S
C567 H570 0.929 . S
C568 C567 1.363 . S
C568 C574 1.428 . S
H569 C565 0.930 . S
H570 C567 0.929 . S
S571 N572 1.613 . S
S571 N573 1.610 . S
N572 S571 1.613 . S
N572 C575 1.350 . S
N573 S571 1.610 . S
N573 C574 1.351 . S
C574 C568 1.428 . S
C574 N573 1.351 . S
C574 C575 1.434 . S
C575 C566 1.429 . S
C575 N572 1.350 . S
C575 C574 1.434 . S
C225 C7 1.373 . S
C227 C77 1.372 . S
C236 C63 1.368 . S
C238 C21 1.368 . S
C247 C35 1.369 . S
C249 C105 1.369 . S
C258 C91 1.371 . S
C260 C49 1.371 . S
C269 C189 1.369 . S
C271 C119 1.370 . S
C280 C175 1.369 . S
C282 C133 1.369 . S
C291 C217 1.371 . S
C293 C147 1.371 . S
C302 C161 1.367 . S
C304 C203 1.368 . S
C313 C23 1.486 . S
C315 C9 1.485 . S
C324 C37 1.488 . S
C326 C51 1.483 . S
C335 C65 1.487 . S
C337 C79 1.484 . S
C346 C93 1.487 . S
C348 C107 1.484 . S
C357 C121 1.485 . S
C359 C135 1.486 . S
C368 C163 1.483 . S
C370 C149 1.487 . S
C379 C191 1.487 . S
C381 C177 1.484 . S
C390 C205 1.483 . S
C392 C219 1.487 . S
C401 C134 1.513 . S
C403 C8 1.514 . S
C412 C22 1.514 . S
C414 C120 1.513 . S
C423 C162 1.514 . S
C425 C36 1.513 . S
C434 C50 1.514 . S
C436 C148 1.513 . S
C445 C64 1.514 . S
C447 C190 1.513 . S
C456 C176 1.514 . S
C458 C78 1.513 . S
C467 C92 1.515 . S
C469 C218 1.513 . S
C478 C204 1.513 . S
C480 C106 1.514 . S
C489 C3 1.397 1_565 S
C491 C31 1.387 1_545 S
C500 C45 1.387 1_565 S
C502 C17 1.397 1_545 S
C511 C87 1.398 1_565 S
C513 C59 1.387 1_545 S
C522 C101 1.386 1_545 S
C524 C73 1.397 1_565 S
C533 C143 1.385 . S
C535 C115 1.395 . S
C544 C129 1.397 . S
C546 C157 1.393 . S
C555 C199 1.394 . S
C557 C171 1.387 . S
C566 C185 1.399 . S
C568 C213 1.388 . S
