# Generated by pormake.
# Topology swf, (7)-cn, num edge types: 1
# Building blocks:
#     Node 0, Type 0, BuildingBlock: HICVOG_clean_sbu_0, # of connection points: 7
#     Node 1, Type 0, BuildingBlock: HICVOG_clean_sbu_0, # of connection points: 7
#     Node 2, Type 0, BuildingBlock: HICVOG_clean_sbu_0, # of connection points: 7
#     Node 3, Type 0, BuildingBlock: HICVOG_clean_sbu_0, # of connection points: 7
#     Node 4, Type 0, BuildingBlock: HICVOG_clean_sbu_0, # of connection points: 7
#     Node 5, Type 0, BuildingBlock: HICVOG_clean_sbu_0, # of connection points: 7
#     Node 6, Type 0, BuildingBlock: HICVOG_clean_sbu_0, # of connection points: 7
#     Node 7, Type 0, BuildingBlock: HICVOG_clean_sbu_0, # of connection points: 7
#     Node 8, Type 0, BuildingBlock: HICVOG_clean_sbu_0, # of connection points: 7
#     Node 9, Type 0, BuildingBlock: HICVOG_clean_sbu_0, # of connection points: 7
#     Node 10, Type 0, BuildingBlock: HICVOG_clean_sbu_0, # of connection points: 7
#     Node 11, Type 0, BuildingBlock: HICVOG_clean_sbu_0, # of connection points: 7
#     Edge 12, Type (0, 0), BuildingBlock: EZIPEK_clean_linker_0, # of connection points: 2
#     Edge 13, Type (0, 0), BuildingBlock: EZIPEK_clean_linker_0, # of connection points: 2
#     Edge 14, Type (0, 0), BuildingBlock: EZIPEK_clean_linker_0, # of connection points: 2
#     Edge 15, Type (0, 0), BuildingBlock: EZIPEK_clean_linker_0, # of connection points: 2
#     Edge 16, Type (0, 0), BuildingBlock: EZIPEK_clean_linker_0, # of connection points: 2
#     Edge 17, Type (0, 0), BuildingBlock: EZIPEK_clean_linker_0, # of connection points: 2
#     Edge 18, Type (0, 0), BuildingBlock: EZIPEK_clean_linker_0, # of connection points: 2
#     Edge 19, Type (0, 0), BuildingBlock: EZIPEK_clean_linker_0, # of connection points: 2
#     Edge 20, Type (0, 0), BuildingBlock: EZIPEK_clean_linker_0, # of connection points: 2
#     Edge 21, Type (0, 0), BuildingBlock: EZIPEK_clean_linker_0, # of connection points: 2
#     Edge 22, Type (0, 0), BuildingBlock: EZIPEK_clean_linker_0, # of connection points: 2
#     Edge 23, Type (0, 0), BuildingBlock: EZIPEK_clean_linker_0, # of connection points: 2
#     Edge 24, Type (0, 0), BuildingBlock: EZIPEK_clean_linker_0, # of connection points: 2
#     Edge 25, Type (0, 0), BuildingBlock: EZIPEK_clean_linker_0, # of connection points: 2
#     Edge 26, Type (0, 0), BuildingBlock: EZIPEK_clean_linker_0, # of connection points: 2
#     Edge 27, Type (0, 0), BuildingBlock: EZIPEK_clean_linker_0, # of connection points: 2
#     Edge 28, Type (0, 0), BuildingBlock: EZIPEK_clean_linker_0, # of connection points: 2
#     Edge 29, Type (0, 0), BuildingBlock: EZIPEK_clean_linker_0, # of connection points: 2
#     Edge 30, Type (0, 0), BuildingBlock: EZIPEK_clean_linker_0, # of connection points: 2
#     Edge 31, Type (0, 0), BuildingBlock: EZIPEK_clean_linker_0, # of connection points: 2
#     Edge 32, Type (0, 0), BuildingBlock: EZIPEK_clean_linker_0, # of connection points: 2
#     Edge 33, Type (0, 0), BuildingBlock: EZIPEK_clean_linker_0, # of connection points: 2
#     Edge 34, Type (0, 0), BuildingBlock: EZIPEK_clean_linker_0, # of connection points: 2
#     Edge 35, Type (0, 0), BuildingBlock: EZIPEK_clean_linker_0, # of connection points: 2
#     Edge 36, Type (0, 0), BuildingBlock: EZIPEK_clean_linker_0, # of connection points: 2
#     Edge 37, Type (0, 0), BuildingBlock: EZIPEK_clean_linker_0, # of connection points: 2
#     Edge 38, Type (0, 0), BuildingBlock: EZIPEK_clean_linker_0, # of connection points: 2
#     Edge 39, Type (0, 0), BuildingBlock: EZIPEK_clean_linker_0, # of connection points: 2
#     Edge 40, Type (0, 0), BuildingBlock: EZIPEK_clean_linker_0, # of connection points: 2
#     Edge 41, Type (0, 0), BuildingBlock: EZIPEK_clean_linker_0, # of connection points: 2
#     Edge 42, Type (0, 0), BuildingBlock: EZIPEK_clean_linker_0, # of connection points: 2
#     Edge 43, Type (0, 0), BuildingBlock: EZIPEK_clean_linker_0, # of connection points: 2
#     Edge 44, Type (0, 0), BuildingBlock: EZIPEK_clean_linker_0, # of connection points: 2
#     Edge 45, Type (0, 0), BuildingBlock: EZIPEK_clean_linker_0, # of connection points: 2
#     Edge 46, Type (0, 0), BuildingBlock: EZIPEK_clean_linker_0, # of connection points: 2
#     Edge 47, Type (0, 0), BuildingBlock: EZIPEK_clean_linker_0, # of connection points: 2
#     Edge 48, Type (0, 0), BuildingBlock: EZIPEK_clean_linker_0, # of connection points: 2
#     Edge 49, Type (0, 0), BuildingBlock: EZIPEK_clean_linker_0, # of connection points: 2
#     Edge 50, Type (0, 0), BuildingBlock: EZIPEK_clean_linker_0, # of connection points: 2
#     Edge 51, Type (0, 0), BuildingBlock: EZIPEK_clean_linker_0, # of connection points: 2
#     Edge 52, Type (0, 0), BuildingBlock: EZIPEK_clean_linker_0, # of connection points: 2
#     Edge 53, Type (0, 0), BuildingBlock: EZIPEK_clean_linker_0, # of connection points: 2
# Relax obj value: 0.425
# Max RMSD: 0.203
# Mean RMSD: 0.203
data_MOF--net-swf--node1-HICVOG_clean_sbu_0--edge1-EZIPEK_clean_linker_0
_symmetry_space_group_name_H-M    P1
_symmetry_Int_Tables_number       1
_symmetry_cell_setting            triclinic
loop_
_symmetry_equiv_pos_as_xyz
'x, y, z'
_cell_length_a     35.884707
_cell_length_b     36.081905
_cell_length_c     17.530647
_cell_angle_alpha  90.541482
_cell_angle_beta   88.860475
_cell_angle_gamma 120.07952
loop_
_atom_site_label
_atom_site_type_symbol
_atom_site_fract_x
_atom_site_fract_y
_atom_site_fract_z
_atom_type_partial_charge
Zn0 Zn 0.42729 0.12212 1.03183 0.0
C1 C 0.42631 0.20174 0.19396 0.0
N2 N 0.42043 0.22142 0.12892 0.0
C3 C 0.42739 0.20286 1.06225 0.0
N4 N 0.43715 0.17299 1.0884 0.0
N5 N 0.43617 0.17193 0.16493 0.0
C6 C 0.39515 0.06592 0.26114 0.0
O7 O 0.38696 0.0714 0.19085 0.0
O8 O 0.46846 0.13618 0.93923 0.0
Zn9 Zn 0.46394 0.14371 0.21676 0.0
N10 N 0.36537 0.09507 1.02176 0.0
C11 C 0.29712 0.07953 1.0755 0.0
C12 C 0.34199 0.10355 1.07439 0.0
C13 C 0.34528 0.06372 0.97026 0.0
N14 N 0.277 0.04668 1.02581 0.0
C15 C 0.30017 0.03827 0.97356 0.0
O16 O 0.48298 0.10364 0.16562 0.0
C17 C 0.46575 0.07358 0.11691 0.0
O18 O 0.43869 0.07394 1.07132 0.0
H19 H 0.35744 0.1275 0.11761 0.0
H20 H 0.36453 0.05703 0.93019 0.0
C21 C 0.53756 0.20338 0.30827 0.0
C22 C 0.5733 0.24445 0.31954 0.0
C23 C 0.56946 0.26323 0.19258 0.0
C24 C 0.53402 0.22272 0.18159 0.0
N25 N 0.5179 0.19396 0.24018 0.0
N26 N 0.5879 0.27352 0.26184 0.0
H27 H 0.52438 0.18006 0.35398 0.0
C28 C 0.50535 0.14593 0.96561 0.0
O29 O 0.5123 0.15607 1.03798 0.0
O30 O 0.42475 0.09833 0.29646 0.0
H31 H 0.51865 0.21493 0.12705 0.0
H32 H 0.27855 0.08594 0.11744 0.0
H33 H 0.58175 0.28655 0.1469 0.0
Zn34 Zn 0.29862 0.42476 1.02597 0.0
C35 C 0.20738 0.39528 0.2049 0.0
N36 N 0.17991 0.3846 0.14098 0.0
C37 C 0.20486 0.39298 1.07247 0.0
N38 N 0.24635 0.40766 1.09534 0.0
N39 N 0.24814 0.40983 0.17211 0.0
C40 C 0.31422 0.39488 0.29295 0.0
O41 O 0.30846 0.38354 0.22073 0.0
O42 O 0.31248 0.47611 0.95838 0.0
Zn43 Zn 0.30548 0.45068 0.21219 0.0
N44 N 0.28395 0.37655 0.96414 0.0
C45 C 0.28885 0.31404 0.94397 0.0
C46 C 0.29312 0.34697 0.99143 0.0
C47 C 0.26963 0.37432 0.8925 0.0
N48 N 0.27602 0.31257 0.87126 0.0
C49 C 0.26642 0.34202 0.84402 0.0
O50 O 0.36656 0.46077 0.17638 0.0
C51 C 0.38471 0.45527 0.11783 0.0
O52 O 0.36164 0.43956 1.05889 0.0
H53 H 0.30481 0.3498 1.04882 0.0
H54 H 0.26225 0.39825 0.87321 0.0
C55 C 0.34726 0.54297 0.19595 0.0
C56 C 0.35371 0.58072 0.16036 0.0
C57 C 0.2849 0.5421 1.10624 0.0
C58 C 0.27819 0.50534 0.14349 0.0
N59 N 0.30994 0.50593 0.18612 0.0
N60 N 0.32237 0.5791 0.11594 0.0
H61 H 0.37076 0.5433 0.23398 0.0
C62 C 0.34204 0.50985 0.98929 0.0
O63 O 0.35366 0.50714 1.05796 0.0
O64 O 0.30874 0.426 0.3137 0.0
H65 H 0.24782 0.47659 0.13727 0.0
H66 H 0.2964 0.29034 0.96408 0.0
H67 H 0.26002 0.54156 1.07164 0.0
Zn68 Zn 0.86466 0.29867 1.00117 0.0
C69 C 0.78534 0.21575 0.17027 0.0
N70 N 0.76599 0.18936 1.10542 0.0
C71 C 0.78526 0.2139 1.03812 0.0
N72 N 0.81584 0.25372 1.06352 0.0
N73 N 0.81499 0.25552 0.14013 0.0
C74 C 0.89262 0.31745 0.27793 0.0
O75 O 0.90404 0.31345 0.20807 0.0
O76 O 0.84283 0.31858 0.91611 0.0
Zn77 Zn 0.83303 0.31355 0.18297 0.0
N78 N 0.89286 0.26904 0.96693 0.0
C79 C 0.90121 0.21966 0.88902 0.0
C80 C 0.88352 0.2459 0.90161 0.0
C81 C 0.91893 0.26746 1.02004 0.0
N82 N 0.92815 0.21876 0.94148 0.0
C83 C 0.9379 0.24218 1.00727 0.0
O84 O 0.88556 0.37273 0.14222 0.0
C85 C 0.91563 0.38637 1.09153 0.0
O86 O 0.91448 0.35989 1.04118 0.0
H87 H 0.86167 0.2469 0.86118 0.0
H88 H 0.92434 0.28594 1.07147 0.0
C89 C 0.78624 0.35796 0.15045 0.0
C90 C 0.75211 0.36098 0.11696 0.0
C91 C 0.7115 0.2853 1.11053 0.0
C92 C 0.74507 0.28286 0.1434 0.0
N93 N 0.78176 0.3189 0.16416 0.0
N94 N 0.71559 0.32409 1.09874 0.0
H95 H 0.81631 0.38604 0.16486 0.0
C96 C 0.83055 0.34193 0.95014 0.0
O97 O 0.82587 0.33926 1.02426 0.0
O98 O 0.85624 0.31544 0.28899 0.0
H99 H 0.74267 0.25242 0.14629 0.0
H100 H 0.89394 0.20045 0.83784 0.0
H101 H 0.6825 0.25656 1.09372 0.0
Zn102 Zn 0.53205 0.87838 0.20923 0.0
C103 C 0.53451 0.7921 1.05737 0.0
N104 N 0.54142 0.77374 0.12314 0.0
C105 C 0.53982 0.79648 0.18875 0.0
N106 N 0.53303 0.82835 0.1605 0.0
N107 N 0.52762 0.824 1.08473 0.0
C108 C 0.4255 0.81093 0.97746 0.0
O109 O 0.4172 0.81605 1.04885 0.0
O110 O 0.58266 0.90923 0.27582 0.0
Zn111 Zn 0.51128 0.86 1.02611 0.0
N112 N 0.47996 0.85681 0.26677 0.0
C113 C 0.40863 0.84302 0.29009 0.0
C114 C 0.44653 0.86233 0.24694 0.0
C115 C 0.47722 0.83323 0.32801 0.0
N116 N 0.4057 0.81872 0.35069 0.0
C117 C 0.4393 0.81361 0.37098 0.0
O118 O 0.4876 0.89845 1.0712 0.0
C119 C 0.50922 0.93216 1.11034 0.0
O120 O 0.53731 0.93214 0.15306 0.0
H121 H 0.44837 0.88071 0.19795 0.0
H122 H 0.50425 0.82948 0.3417 0.0
C123 C 0.56467 0.88255 0.89651 0.0
C124 C 0.59913 0.90915 0.84875 0.0
C125 C 0.6243 0.96392 0.94221 0.0
C126 C 0.58953 0.93747 0.98934 0.0
N127 N 0.56037 0.89741 0.96536 0.0
N128 N 0.62824 0.94922 0.87292 0.0
H129 H 0.54112 0.85064 0.87902 0.0
C130 C 0.61588 0.93494 0.2368 0.0
O131 O 0.615 0.92898 0.16286 0.0
O132 O 0.46394 0.82271 0.95655 0.0
H133 H 0.58608 0.94909 1.04407 0.0
H134 H 0.38151 0.84655 0.27483 0.0
H135 H 0.64783 -0.00411 0.96024 0.0
Zn136 Zn 0.66137 0.53625 1.03579 0.0
C137 C 0.73339 0.51776 0.1902 0.0
N138 N 0.75658 0.51796 0.12319 0.0
C139 C 0.73285 0.5166 1.05816 0.0
N140 N 0.69673 0.51639 1.08785 0.0
N141 N 0.69646 0.51611 0.1644 0.0
C142 C 0.65634 0.59522 0.25607 0.0
O143 O 0.64724 0.59282 0.18346 0.0
O144 O 0.63037 0.49309 0.95563 0.0
Zn145 Zn 0.64626 0.51387 0.22121 0.0
N146 N 0.70292 0.59686 1.0188 0.0
C147 C 0.76771 0.65753 1.0629 0.0
C148 C 0.74111 0.61352 1.05609 0.0
C149 C 0.69059 0.62334 0.98833 0.0
N150 N 0.75465 0.68378 1.03478 0.0
C151 C 0.71694 0.66792 0.99732 0.0
O152 O 0.58678 0.50009 0.17648 0.0
C153 C 0.57439 0.51219 0.11936 0.0
O154 O 0.60221 0.53289 1.0672 0.0
H155 H 0.75035 0.59358 1.08541 0.0
H156 H 0.65947 0.60981 0.96175 0.0
C157 C 0.6323 0.46883 0.3582 0.0
C158 C 0.61068 0.43272 0.40464 0.0
C159 C 0.57016 0.39195 0.29933 0.0
C160 C 0.59326 0.42744 0.25261 0.0
N161 N 0.62304 0.46522 0.28356 0.0
N162 N 0.57916 0.39543 0.37459 0.0
H163 H 0.6572 0.49922 0.38018 0.0
C164 C 0.6073 0.45595 0.98593 0.0
O165 O 0.61748 0.44901 1.05363 0.0
O166 O 0.66417 0.56743 0.28416 0.0
H167 H 0.58707 0.42521 0.19258 0.0
H168 H 0.79765 0.67069 1.09329 0.0
H169 H 0.54608 0.36178 0.27576 0.0
Zn170 Zn 0.12417 0.65983 0.14812 0.0
C171 C 0.16691 0.74998 0.98086 0.0
N172 N 0.18837 0.77615 1.04488 0.0
C173 C 0.17055 0.75227 1.11296 0.0
N174 N 0.14002 0.71227 1.08926 0.0
N175 N 0.13648 0.71076 1.0131 0.0
C176 C 0.11498 0.62118 0.90596 0.0
O177 O 0.1332 0.63233 0.97289 0.0
O178 O 0.10144 0.66494 0.25223 0.0
Zn179 Zn 0.07975 0.66045 0.98082 0.0
N180 N 0.17942 0.66487 0.15311 0.0
C181 C 0.25304 0.69548 0.11424 0.0
C182 C 0.21243 0.69068 1.10465 0.0
C183 C 0.18469 0.64164 0.20677 0.0
N184 N 0.25836 0.67188 0.16787 0.0
C185 C 0.22466 0.64464 0.213 0.0
O186 O 0.04341 0.5991 1.0293 0.0
C187 C 0.04851 0.57554 1.07664 0.0
O188 O 0.08096 0.59363 0.12034 0.0
H189 H 0.20794 0.70797 1.05947 0.0
H190 H 0.15778 0.62081 0.24375 0.0
C191 C 0.01976 0.69155 0.94172 0.0
C192 C 0.00384 0.71939 0.95834 0.0
C193 C 0.0276 0.72648 1.08474 0.0
C194 C 0.04444 0.69993 1.06765 0.0
N195 N 0.04141 0.6839 0.996 0.0
N196 N 0.00847 0.73642 1.0292 0.0
H197 H 0.01777 0.67881 0.88482 0.0
C198 C 0.06052 0.64675 0.25472 0.0
O199 O 0.03902 0.63068 0.19196 0.0
O200 O 0.09033 0.63512 0.88548 0.0
H201 H 0.06199 0.69408 1.11026 0.0
H202 H 0.28009 0.71806 1.08011 0.0
H203 H 0.03117 0.74051 0.14076 0.0
Zn204 Zn 0.8491 0.50241 0.52735 0.0
C205 C 0.77168 0.51979 0.68704 0.0
N206 N 0.74866 0.51943 0.6217 0.0
C207 C 0.77089 0.51744 0.55498 0.0
N208 N 0.80524 0.51431 0.58119 0.0
N209 N 0.80715 0.51873 0.65746 0.0
C210 C 0.83601 0.48225 0.79711 0.0
O211 O 0.82831 0.46771 0.72687 0.0
O212 O 0.89105 0.55039 0.45752 0.0
Zn213 Zn 0.86491 0.54406 0.70344 0.0
N214 N 0.81932 0.45307 0.46498 0.0
C215 C 0.80068 0.38094 0.44059 0.0
C216 C 0.8152 0.41562 0.49012 0.0
C217 C 0.80857 0.45704 0.39325 0.0
N218 N 0.78904 0.38458 0.36916 0.0
C219 C 0.7919 0.42162 0.34469 0.0
O220 O 0.91194 0.52465 0.68533 0.0
C221 C 0.91418 0.49777 0.64038 0.0
O222 O 0.88886 0.48407 0.58405 0.0
H223 H 0.82445 0.41311 0.54727 0.0
H224 H 0.81308 0.48752 0.37446 0.0
C225 C 0.90989 0.63749 0.72878 0.0
C226 C 0.92121 0.67939 0.7069 0.0
C227 C 0.892 0.65453 0.58569 0.0
C228 C 0.88077 0.61307 0.60719 0.0
N229 N 0.88941 0.60494 0.67859 0.0
N230 N 0.91194 0.68693 0.63614 0.0
H231 H 0.91634 0.63078 0.78557 0.0
C232 C 0.92811 0.57659 0.48308 0.0
O233 O 0.93529 0.57678 0.55603 0.0
O234 O 0.85098 0.52217 0.80996 0.0
H235 H 0.86501 0.58765 0.56659 0.0
H236 H 0.79841 0.35131 0.45882 0.0
H237 H 0.8847 0.66088 0.52942 0.0
Zn238 Zn 0.31215 0.83454 0.47242 0.0
C239 C 0.20957 0.78855 0.61239 0.0
N240 N 0.18494 0.77222 0.54506 0.0
C241 C 0.21239 0.78994 0.47957 0.0
N242 N 0.25288 0.81669 0.50997 0.0
N243 N 0.25109 0.81529 0.58674 0.0
C244 C 0.29693 0.79248 0.76709 0.0
O245 O 0.27574 0.76141 0.71852 0.0
O246 O 0.32109 0.85995 0.36349 0.0
Zn247 Zn 0.30583 0.85151 0.64469 0.0
N248 N 0.31407 0.78295 0.51315 0.0
C249 C 0.27508 0.71645 0.58219 0.0
C250 C 0.27591 0.74856 0.53781 0.0
C251 C 0.3514 0.78433 0.53049 0.0
N252 N 0.3122 0.71716 0.5962 0.0
C253 C 0.3504 0.74964 0.57033 0.0
O254 O 0.37037 0.87118 0.62003 0.0
C255 C 0.39202 0.89501 0.5648 0.0
O256 O 0.37123 0.89023 0.50429 0.0
H257 H 0.2454 0.74524 0.52478 0.0
H258 H 0.38138 0.81121 0.51063 0.0
C259 C 0.30999 0.92242 0.71175 0.0
C260 C 0.31075 0.96121 0.71646 0.0
C261 C 0.323 0.97037 0.58313 0.0
C262 C 0.31876 0.92983 0.57843 0.0
N263 N 0.31182 0.90666 0.64319 0.0
N264 N 0.31804 0.98492 0.6521 0.0
H265 H 0.3055 0.90331 0.76178 0.0
C266 C 0.3097 0.8884 0.36165 0.0
O267 O 0.27945 0.8845 0.4097 0.0
O268 O 0.30355 0.82981 0.75205 0.0
H269 H 0.3212 0.91722 0.5241 0.0
H270 H 0.24484 0.69035 0.60351 0.0
H271 H 0.32881 -0.01056 0.53234 0.0
Zn272 Zn 0.4001 0.30986 0.71414 0.0
C273 C 0.42175 0.23608 0.56378 0.0
N274 N 0.41649 0.21046 0.62899 0.0
C275 C 0.4158 0.2326 0.6963 0.0
N276 N 0.4196 0.27041 0.66999 0.0
N277 N 0.42584 0.27353 0.59423 0.0
C278 C 0.40182 0.32027 0.45019 0.0
O279 O 0.37842 0.28669 0.49323 0.0
O280 O 0.41924 0.32065 0.82615 0.0
Zn281 Zn 0.46533 0.33361 0.56223 0.0
N282 N 0.34026 0.28205 0.67526 0.0
C283 C 0.28768 0.22753 0.59491 0.0
C284 C 0.32418 0.2433 0.63958 0.0
C285 C 0.32092 0.30583 0.6654 0.0
N286 N 0.26807 0.2509 0.58665 0.0
C287 C 0.28361 0.28991 0.61995 0.0
O288 O 0.47247 0.39098 0.60177 0.0
C289 C 0.45349 0.40435 0.646 0.0
O290 O 0.42316 0.37634 0.68816 0.0
H291 H 0.34021 0.22493 0.64226 0.0
H292 H 0.33481 0.3369 0.69235 0.0
C293 C 0.55422 0.38292 0.61272 0.0
C294 C 0.59012 0.38993 0.6564 0.0
C295 C 0.55281 0.31697 0.69141 0.0
C296 C 0.52069 0.30946 0.64008 0.0
N297 N 0.52081 0.34262 0.60311 0.0
N298 N 0.5873 0.35671 0.69694 0.0
H299 H 0.55308 0.40873 0.58448 0.0
C300 C 0.45625 0.32432 0.83583 0.0
O301 O 0.47106 0.3083 0.78447 0.0
O302 O 0.44264 0.34214 0.45986 0.0
H303 H 0.49516 0.27733 0.63313 0.0
H304 H 0.27514 0.19691 0.56656 0.0
H305 H 0.5514 0.29102 0.724 0.0
Zn306 Zn 0.11041 0.42776 0.55691 0.0
C307 C 0.16597 0.38823 0.70868 0.0
N308 N 0.18653 0.38423 0.64156 0.0
C309 C 0.16527 0.38798 0.57694 0.0
N310 N 0.13306 0.39457 0.60696 0.0
N311 N 0.13347 0.39443 0.6836 0.0
C312 C 0.13014 0.47989 0.78952 0.0
O313 O 0.13463 0.48028 0.71514 0.0
O314 O 0.0733 0.39749 0.46521 0.0
Zn315 Zn 0.08932 0.39719 0.74938 0.0
N316 N 0.16372 0.47812 0.53365 0.0
C317 C 0.23769 0.52295 0.56446 0.0
C318 C 0.19683 0.4893 0.58245 0.0
C319 C 0.1693 0.50066 0.46943 0.0
N320 N 0.24355 0.54516 0.49941 0.0
C321 C 0.21023 0.53486 0.45196 0.0
O322 O 0.04021 0.40935 0.7094 0.0
C323 C 0.04135 0.43558 0.65926 0.0
O324 O 0.07057 0.44892 0.60717 0.0
H325 H 0.19197 0.47188 0.63446 0.0
H326 H 0.14226 0.49197 0.4326 0.0
C327 C 0.06625 0.33601 0.87244 0.0
C328 C 0.05209 0.29412 0.89916 0.0
C329 C 0.02983 0.26775 0.7731 0.0
C330 C 0.04401 0.30903 0.74754 0.0
N331 N 0.06203 0.34217 0.7974 0.0
N332 N 0.03414 0.2614 0.84764 0.0
H333 H 0.08142 0.36369 0.90888 0.0
C334 C 0.03477 0.36985 0.4849 0.0
O335 O 0.02605 0.35861 0.55689 0.0
O336 O 0.11819 0.44506 0.82495 0.0
H337 H 0.04222 0.31505 0.68777 0.0
H338 H 0.26438 0.53161 0.60204 0.0
H339 H 0.01575 0.24093 0.73412 0.0
Zn340 Zn 0.6644 0.08656 0.69082 0.0
C341 C 0.74776 0.17964 0.54002 0.0
N342 N 0.77241 0.19829 0.60639 0.0
C343 C 0.7474 0.17598 0.67188 0.0
N344 N 0.70844 0.14402 0.64371 0.0
N345 N 0.70828 0.14718 0.56711 0.0
C346 C 0.68494 0.09402 0.394 0.0
O347 O 0.71429 0.10246 0.44516 0.0
O348 O 0.6431 0.0925 0.79938 0.0
Zn349 Zn 0.65078 0.11816 0.51543 0.0
N350 N 0.69134 0.05169 0.67044 0.0
C351 C 0.74158 0.0419 0.59352 0.0
C352 C 0.72884 0.06868 0.62888 0.0
C353 C 0.66543 0.00858 0.67486 0.0
N354 N 0.7153 -0.00114 0.59717 0.0
C355 C 0.67694 0.98133 0.63543 0.0
O356 O 0.59685 0.05703 0.5325 0.0
C357 C 0.58013 0.03149 0.58855 0.0
O358 O 0.60203 0.04169 0.64927 0.0
H359 H 0.74768 0.10253 0.61835 0.0
H360 H 0.63503 -0.00423 0.70566 0.0
C361 C 0.62849 0.18695 0.5238 0.0
C362 C 0.62163 0.2153 0.57016 0.0
C363 C 0.60218 0.16727 0.6732 0.0
C364 C 0.6123 0.14117 0.62903 0.0
N365 N 0.62634 0.15191 0.5556 0.0
N366 N 0.60816 0.20422 0.64346 0.0
H367 H 0.63549 0.19264 0.46361 0.0
C368 C 0.63976 0.12562 0.81291 0.0
O369 O 0.66333 0.16013 0.77206 0.0
O370 O 0.6596 0.10905 0.40349 0.0
H371 H 0.61092 0.11357 0.65443 0.0
H372 H 0.77138 0.05533 0.56072 0.0
H373 H 0.59068 0.15903 0.73124 0.0
Zn374 Zn 0.52691 0.66551 0.54134 0.0
C375 C 0.53501 0.75904 0.68889 0.0
N376 N 0.54138 0.78382 0.62216 0.0
C377 C 0.53961 0.75915 0.55681 0.0
N378 N 0.53351 0.72079 0.58622 0.0
N379 N 0.52852 0.72046 0.66251 0.0
C380 C 0.45401 0.65938 0.82343 0.0
O381 O 0.43701 0.65938 0.75798 0.0
O382 O 0.56085 0.67326 0.44314 0.0
Zn383 Zn 0.52322 0.67334 0.72512 0.0
N384 N 0.46767 0.63382 0.52253 0.0
C385 C 0.40097 0.62738 0.55811 0.0
C386 C 0.44157 0.63558 0.57741 0.0
C387 C 0.45357 0.61915 0.45182 0.0
N388 N 0.39043 0.62133 0.48358 0.0
C389 C 0.41605 0.6179 0.42854 0.0
O390 O 0.49142 0.60801 0.69337 0.0
C391 C 0.50756 0.59251 0.64647 0.0
O392 O 0.5347 0.61819 0.59735 0.0
H393 H 0.45386 0.64679 0.63318 0.0
H394 H 0.47423 0.61408 0.4128 0.0
C395 C 0.59902 0.70199 0.81118 0.0
C396 C 0.64402 0.72686 0.81863 0.0
C397 C 0.65169 0.72741 0.68313 0.0
C398 C 0.60736 0.70398 0.67668 0.0
N399 N 0.58212 0.69209 0.74057 0.0
N400 N 0.66877 0.73829 0.75345 0.0
H401 H 0.57701 0.69132 0.85922 0.0
C402 C 0.60171 0.69483 0.43629 0.0
O403 O 0.62404 0.72401 0.48749 0.0
O404 O 0.49372 0.67073 0.82365 0.0
H405 H 0.59294 0.69705 0.62132 0.0
H406 H 0.37985 0.62995 0.60005 0.0
H407 H 0.67242 0.73756 0.63288 0.0
C408 C 0.32937 -0.00633 0.28313 0.0
C409 C 0.37464 0.02068 0.29012 0.0
C410 C 0.37994 0.95761 0.32806 0.0
C411 C 0.33455 0.93061 0.3201 0.0
N412 N 0.2693 0.92143 0.26699 0.0
N413 N 0.44414 0.02584 0.30187 0.0
C414 C 0.31043 0.94836 0.29025 0.0
C415 C 0.40024 0.00199 0.30793 0.0
N416 N 0.30406 0.01147 0.27221 0.0
N417 N 0.40402 0.94162 0.35685 0.0
H418 H 0.4609 0.05849 0.29042 0.0
H419 H 0.46414 0.01264 0.30255 0.0
H420 H 0.393 0.90913 0.36199 0.0
H421 H 0.43509 0.96097 0.37686 0.0
H422 H 0.27053 -0.00603 0.27426 0.0
H423 H 0.31647 0.04445 0.26853 0.0
H424 H 0.25109 0.93174 0.23795 0.0
H425 H 0.25525 0.88814 0.26928 0.0
C426 C 0.32389 0.33227 0.32286 0.0
C427 C 0.33215 0.37425 0.34266 0.0
C428 C 0.37719 0.37414 0.44468 0.0
C429 C 0.37875 0.33911 0.41108 0.0
N430 N 0.35273 0.2842 0.31485 0.0
N431 N 0.37518 0.43827 0.41929 0.0
C432 C 0.35192 0.318 0.34878 0.0
C433 C 0.36134 0.39637 0.40251 0.0
N434 N 0.28792 0.30508 0.28319 0.0
N435 N 0.38655 0.38347 0.51956 0.0
H436 H 0.36752 0.45784 0.3883 0.0
H437 H 0.39841 0.45485 0.46041 0.0
H438 H 0.39103 0.36291 0.55435 0.0
H439 H 0.38337 0.40725 0.54813 0.0
H440 H 0.27901 0.27329 0.27218 0.0
H441 H 0.26413 0.31254 0.27057 0.0
H442 H 0.3365 0.27018 0.26463 0.0
H443 H 0.37241 0.27263 0.33363 0.0
C444 C 0.97479 0.31327 0.4073 0.0
C445 C -0.00176 0.35641 0.432 0.0
C446 C 0.94712 0.37189 0.367 0.0
C447 C 0.92508 0.32918 0.33881 0.0
N448 N 0.92275 0.2617 0.32046 0.0
N449 N 0.0026 0.42494 0.44833 0.0
C450 C 0.94015 0.30053 0.35616 0.0
C451 C -0.01668 0.38528 0.41518 0.0
N452 N -0.01531 0.28394 0.4348 0.0
N453 N 0.93545 0.4006 0.34305 0.0
H454 H 0.03022 0.43674 0.48085 0.0
H455 H -0.01002 0.44536 0.44798 0.0
H456 H 0.90888 0.39218 0.30905 0.0
H457 H 0.95339 0.43343 0.35262 0.0
H458 H 0.96558 0.25105 0.42663 0.0
H459 H 0.01011 0.29198 0.47155 0.0
H460 H 0.93574 0.24161 0.32259 0.0
H461 H 0.89724 0.25101 0.28315 0.0
C462 C 0.66282 0.01592 0.22988 0.0
C463 C 0.64682 0.977 0.27151 0.0
C464 C 0.65963 0.01589 0.39147 0.0
C465 C 0.67049 0.05392 0.35035 0.0
N466 N 0.68032 0.09033 0.23103 0.0
N467 N 0.64851 0.94384 0.38801 0.0
C468 C 0.67163 0.05406 0.26957 0.0
C469 C 0.65122 0.97838 0.35131 0.0
N470 N 0.67289 0.01722 0.15404 0.0
N471 N 0.65415 0.01457 0.46892 0.0
H472 H 0.64417 0.91684 0.35821 0.0
H473 H 0.65553 0.94376 0.44534 0.0
H474 H 0.65735 0.04015 0.50175 0.0
H475 H 0.64178 0.98654 0.50014 0.0
H476 H 0.68673 0.04502 0.12131 0.0
H477 H 0.6739 -0.00793 0.12638 0.0
H478 H 0.67702 0.09145 0.17238 0.0
H479 H 0.6877 0.11877 0.25885 0.0
C480 C 0.62382 0.60768 0.37573 0.0
C481 C 0.64776 0.62373 0.30642 0.0
C482 C 0.64289 0.68915 0.32199 0.0
C483 C 0.62263 0.67412 0.3941 0.0
N484 N 0.60931 0.62679 0.5002 0.0
N485 N 0.68833 0.68437 0.22253 0.0
C486 C 0.61834 0.63598 0.42446 0.0
C487 C 0.65985 0.66599 0.2821 0.0
N488 N 0.60286 0.56496 0.39281 0.0
N489 N 0.64517 0.72484 0.29113 0.0
H490 H 0.70295 0.66922 0.19449 0.0
H491 H 0.70072 0.71614 0.20606 0.0
H492 H 0.63414 0.74295 0.32033 0.0
H493 H 0.65536 0.7347 0.23514 0.0
H494 H 0.58188 0.55223 0.43967 0.0
H495 H 0.60124 0.54151 0.35579 0.0
H496 H 0.60869 0.6005 0.52579 0.0
H497 H 0.60818 0.64848 0.53849 0.0
C498 C 0.96957 0.63337 0.38481 0.0
C499 C 0.96525 0.59913 0.43008 0.0
C500 C 0.03445 0.61009 0.38036 0.0
C501 C 0.03539 0.63956 0.32654 0.0
N502 N 0.00554 0.68106 0.27789 0.0
N503 N -0.01032 0.54993 0.46248 0.0
C504 C 0.00363 0.6521 0.32966 0.0
C505 C -0.00306 0.5865 0.4265 0.0
N506 N 0.94128 0.64799 0.39494 0.0
N507 N 0.06884 0.60389 0.38647 0.0
H508 H 0.9616 0.53032 0.49364 0.0
H509 H 0.00934 0.53653 0.4552 0.0
H510 H 0.09684 0.62029 0.35341 0.0
H511 H 0.07149 0.58589 0.42992 0.0
H512 H 0.94505 0.67565 0.36957 0.0
H513 H 0.91502 0.63368 0.4327 0.0
H514 H 0.98095 0.68787 0.26977 0.0
H515 H 0.03185 0.69744 0.24095 0.0
C516 C 0.60458 0.91833 0.64313 0.0
C517 C 0.64922 0.93426 0.64085 0.0
C518 C 0.64585 0.89869 0.75767 0.0
C519 C 0.60547 0.89573 0.77263 0.0
N520 N 0.53943 0.88731 0.72292 0.0
N521 N 0.70247 0.91464 0.66325 0.0
C522 C 0.58158 0.89867 0.71171 0.0
C523 C 0.66579 0.91426 0.68588 0.0
N524 N 0.58748 0.92802 0.58334 0.0
N525 N 0.66714 0.89238 0.81505 0.0
H526 H 0.71699 0.92732 0.61032 0.0
H527 H 0.71545 0.89903 0.69307 0.0
H528 H 0.65322 0.88277 0.86926 0.0
H529 H 0.69863 0.89833 0.80964 0.0
H530 H 0.55542 0.92016 0.57958 0.0
H531 H 0.55542 0.92016 0.57958 0.0
H532 H 0.52077 0.89152 0.68319 0.0
H533 H 0.52235 0.872 0.77241 0.0
C534 C 0.66226 0.6909 0.99665 0.0
C535 C 0.70285 0.69745 0.97119 0.0
C536 C 0.71118 0.7552 0.88974 0.0
C537 C 0.66619 0.73695 0.89353 0.0
N538 N 0.60928 0.71402 0.98684 0.0
N539 N 0.76878 0.7394 0.89681 0.0
C540 C 0.64444 0.71295 0.95913 0.0
C541 C 0.72911 0.73182 0.92086 0.0
N542 N 0.64135 0.66234 1.05415 0.0
N543 N 0.73551 0.79304 0.85236 0.0
H544 H 0.78231 0.72129 0.91422 0.0
H545 H 0.78682 0.76162 0.85444 0.0
H546 H 0.72129 0.80953 0.82939 0.0
H547 H 0.76908 0.80937 0.85105 0.0
H548 H 0.61041 0.65327 1.07424 0.0
H549 H 0.61041 0.65327 1.07424 0.0
H550 H 0.59316 0.69971 1.03761 0.0
H551 H 0.59894 0.73312 0.96107 0.0
C552 C 0.01054 0.74856 0.82935 0.0
C553 C -0.01443 0.73248 0.89716 0.0
C554 C 0.92083 0.71359 0.8273 0.0
C555 C 0.94371 0.71468 0.76054 0.0
N556 N 0.01086 0.74231 0.69149 0.0
N557 N 0.91765 0.70726 0.96474 0.0
C558 C -0.0109 0.73672 0.75902 0.0
C559 C 0.94103 0.71888 0.89808 0.0
N560 N 0.05434 0.77246 0.83324 0.0
N561 N 0.87936 0.70485 0.82199 0.0
H562 H 0.93167 0.71144 1.01788 0.0
H563 H 0.88418 0.69245 0.96717 0.0
H564 H 0.86477 0.70004 0.769 0.0
H565 H 0.86122 0.70582 0.86828 0.0
H566 H 0.07452 0.7867 0.78605 0.0
H567 H 0.06994 0.78074 0.88557 0.0
H568 H 0.04383 0.7537 0.68726 0.0
H569 H -0.00486 0.73453 0.63937 0.0
C570 C 0.26053 0.00385 0.85692 0.0
C571 C 0.27964 0.00084 0.92421 0.0
C572 C 0.31539 0.96879 0.85827 0.0
C573 C 0.29825 0.97306 0.78869 0.0
N574 N 0.2399 0.97708 0.72884 0.0
N575 N 0.30485 0.96158 0.99504 0.0
C576 C 0.26588 0.98487 0.78988 0.0
C577 C 0.29807 0.97459 0.92663 0.0
N578 N 0.23993 0.02693 0.85615 0.0
N579 N 0.35085 0.96406 0.85945 0.0
H580 H 0.29422 0.9687 1.0461 0.0
H581 H 0.31691 0.94073 0.9992 0.0
H582 H 0.36839 0.96549 0.81032 0.0
H583 H 0.36569 0.96397 0.90992 0.0
H584 H 0.22997 0.0345 0.80612 0.0
H585 H 0.23428 0.03957 0.90593 0.0
H586 H 0.21413 0.98275 0.73003 0.0
H587 H 0.24087 0.96039 0.68067 0.0
C588 C 0.27771 0.35448 0.63234 0.0
C589 C 0.25642 0.31022 0.62032 0.0
C590 C 0.21875 0.29746 0.73996 0.0
C591 C 0.25268 0.33811 0.76431 0.0
N592 N 0.31053 0.40954 0.72804 0.0
N593 N 0.18523 0.25058 0.63117 0.0
C594 C 0.27978 0.36904 0.70835 0.0
C595 C 0.21838 0.28618 0.66253 0.0
N596 N 0.29777 0.3811 0.57232 0.0
N597 N 0.19061 0.26839 0.79156 0.0
H598 H 0.18721 0.24226 0.57457 0.0
H599 H 0.15557 0.2322 0.65887 0.0
H600 H 0.19106 0.27572 0.84925 0.0
H601 H 0.16821 0.23691 0.77742 0.0
H602 H 0.31241 0.41433 0.57596 0.0
H603 H 0.29592 0.36853 0.5177 0.0
H604 H 0.33371 0.43081 0.68948 0.0
H605 H 0.31433 0.42155 0.78314 0.0
C606 C 0.04405 0.30788 1.03723 0.0
C607 C 0.05056 0.28286 0.98174 0.0
C608 C -0.01022 0.21902 1.03518 0.0
C609 C 0.97336 0.24598 1.05602 0.0
N610 N -0.00455 0.30671 0.13817 0.0
N611 N 0.04855 0.21559 0.96919 0.0
C612 C 0.00426 0.28788 1.07838 0.0
C613 C 0.03072 0.23846 0.99774 0.0
N614 N 0.07552 0.34889 1.05046 0.0
N615 N 0.96379 0.17587 1.04151 0.0
H616 H 0.07778 0.23084 0.93893 0.0
H617 H 0.03554 0.18287 0.97795 0.0
H618 H 0.93311 0.16303 1.06659 0.0
H619 H 0.97249 0.15373 1.02293 0.0
H620 H 0.07187 0.3696 1.08753 0.0
H621 H 0.10578 0.36122 1.02426 0.0
H622 H 0.01699 0.33714 0.15854 0.0
H623 H 0.96679 0.28972 0.16974 0.0
C624 C 0.46621 0.96846 1.0643 0.0
C625 C 0.4993 0.96953 1.11075 0.0
C626 C 0.51664 0.04362 0.14474 0.0
C627 C 0.47759 0.0379 0.11353 0.0
N628 N 0.4082 0.98401 1.06514 0.0
N629 N 0.54674 0.0088 0.21686 0.0
C630 C 0.45017 -0.00291 1.07994 0.0
C631 C 0.52178 0.00715 0.15765 0.0
N632 N 0.45112 0.94232 1.00221 0.0
N633 N 0.55006 0.08367 0.15956 0.0
H634 H 0.54788 0.98264 0.23796 0.0
H635 H 0.56117 0.03517 0.2533 0.0
H636 H 0.55052 0.1115 0.14277 0.0
H637 H 0.57981 0.08887 0.17786 0.0
H638 H 0.42843 0.9426 0.96623 0.0
H639 H 0.46622 0.92661 0.97882 0.0
H640 H 0.38712 0.95321 1.0453 0.0
H641 H 0.39299 0.00079 1.083 0.0
C642 C 0.45332 0.45539 1.0627 0.0
C643 C 0.43399 0.47119 0.11639 0.0
C644 C 0.50718 0.51384 0.17333 0.0
C645 C 0.52686 0.50142 0.11465 0.0
N646 N 0.51719 0.47271 0.98687 0.0
N647 N 0.45095 0.53038 0.20252 0.0
C648 C 0.49955 0.47624 1.05408 0.0
C649 C 0.46323 0.50443 0.16654 0.0
N650 N 0.42825 0.41911 1.02189 0.0
N651 N 0.5307 0.53652 0.23454 0.0
H652 H 0.42278 0.53018 0.18938 0.0
H653 H 0.47177 0.5568 0.23515 0.0
H654 H 0.5635 0.54758 0.23874 0.0
H655 H 0.5168 0.54217 0.2828 0.0
H656 H 0.44127 0.40494 0.9864 0.0
H657 H 0.39521 0.39997 1.03115 0.0
H658 H 0.49871 0.4575 0.93922 0.0
H659 H 0.55019 0.4891 0.97604 0.0
C660 C 0.96974 0.51196 1.0838 0.0
C661 C 0.01494 0.52674 1.08183 0.0
C662 C -0.0045 0.44951 1.09052 0.0
C663 C 0.95038 0.43481 1.08757 0.0
N664 N 0.89642 0.45407 1.06425 0.0
N665 N 0.06948 0.50682 1.06649 0.0
C666 C 0.93825 0.46674 1.07953 0.0
C667 C 0.02734 0.49463 1.08091 0.0
N668 N 0.95635 0.54117 1.09306 0.0
N669 N 0.00827 0.42045 1.10501 0.0
H670 H 0.09321 0.53861 1.05711 0.0
H671 H 0.08017 0.48518 1.05618 0.0
H672 H -0.01354 0.38785 1.11214 0.0
H673 H 0.03997 0.42904 0.11641 0.0
H674 H 0.9243 0.53298 1.09976 0.0
H675 H 0.97736 0.57376 1.10108 0.0
H676 H 0.88683 0.47508 1.04477 0.0
H677 H 0.87221 0.42211 1.06205 0.0
C678 C 0.93267 0.43768 0.65926 0.0
C679 C 0.94692 0.48229 0.65226 0.0
C680 C 0.02248 0.49627 0.66194 0.0
C681 C 0.00837 0.45145 0.66042 0.0
N682 N 0.9486 0.37967 0.64724 0.0
N683 N 0.00728 0.55412 0.64201 0.0
C684 C 0.96302 0.42232 0.65684 0.0
C685 C -0.00764 0.51149 0.65299 0.0
N686 N 0.88982 0.40971 0.67179 0.0
N687 N 0.06493 0.52475 0.67471 0.0
H688 H -0.0129 0.56696 0.63859 0.0
H689 H 0.03945 0.57649 0.63075 0.0
H690 H 0.08795 0.51552 0.68029 0.0
H691 H 0.07686 0.55704 0.68667 0.0
H692 H 0.8775 0.37769 0.68634 0.0
H693 H 0.86699 0.41949 0.67547 0.0
H694 H 0.91685 0.35733 0.63441 0.0
H695 H 0.96905 0.36698 0.64564 0.0
C696 C 0.47073 0.93634 0.50924 0.0
C697 C 0.44112 0.92785 0.57138 0.0
C698 C 0.50572 0.97416 0.64942 0.0
C699 C 0.53359 -0.0085 0.58371 0.0
N700 N 0.53961 0.9831 0.44728 0.0
N701 N 0.43361 0.94819 0.70035 0.0
C702 C 0.51493 0.97119 0.51244 0.0
C703 C 0.4596 0.94953 0.64126 0.0
N704 N 0.45804 0.90873 0.44908 0.0
N705 N 0.52251 0.97778 0.72001 0.0
H706 H 0.40028 0.93356 0.69647 0.0
H707 H 0.44583 0.96625 0.74988 0.0
H708 H 0.55492 -0.01138 0.72876 0.0
H709 H 0.50327 0.96338 0.76826 0.0
H710 H 0.47896 0.91011 0.40572 0.0
H711 H 0.42774 0.88144 0.44727 0.0
H712 H 0.52643 0.97483 0.39305 0.0
H713 H 0.57303 0.00112 0.44698 0.0
C714 C 0.48831 0.52152 0.71662 0.0
C715 C 0.49377 0.54431 0.64712 0.0
C716 C 0.47792 0.47734 0.57736 0.0
C717 C 0.46714 0.45274 0.64681 0.0
N718 N 0.45975 0.45395 0.78444 0.0
N719 N 0.48317 0.53853 0.51115 0.0
C720 C 0.47117 0.47556 0.71667 0.0
C721 C 0.48594 0.52071 0.57774 0.0
N722 N 0.50246 0.54413 0.78304 0.0
N723 N 0.48074 0.46 0.50931 0.0
H724 H 0.48651 0.56878 0.50804 0.0
H725 H 0.47261 0.52155 0.46026 0.0
H726 H 0.47062 0.42792 0.50038 0.0
H727 H 0.49564 0.47859 0.46097 0.0
H728 H 0.5041 0.53065 0.83424 0.0
H729 H 0.51719 0.57739 0.78561 0.0
H730 H 0.45508 0.46688 0.83468 0.0
H731 H 0.45293 0.42254 0.79066 0.0
C732 C 0.56645 0.25121 0.4596 0.0
C733 C 0.59314 0.25682 0.3947 0.0
C734 C 0.65264 0.27387 0.47824 0.0
C735 C 0.62203 0.25271 0.53651 0.0
N736 N 0.55688 0.24097 0.59717 0.0
N737 N 0.66351 0.27617 0.34144 0.0
C738 C 0.58155 0.24948 0.53245 0.0
C739 C 0.6375 0.27076 0.40335 0.0
N740 N 0.52658 0.24603 0.45043 0.0
N741 N 0.69509 0.29144 0.49427 0.0
H742 H 0.65251 0.26957 0.28571 0.0
H743 H 0.69619 0.28652 0.34496 0.0
H744 H 0.7049 0.29091 0.54981 0.0
H745 H 0.7196 0.30854 0.4545 0.0
H746 H 0.50476 0.24009 0.49484 0.0
H747 H 0.51606 0.24908 0.39718 0.0
H748 H 0.52451 0.23207 0.59846 0.0
H749 H 0.56997 0.24392 0.65099 0.0
C750 C 0.36122 0.62801 0.25685 0.0
C751 C 0.38314 0.62118 0.19709 0.0
C752 C 0.43943 0.6355 0.28635 0.0
C753 C 0.4072 0.62089 0.34676 0.0
N754 N 0.32992 0.58846 0.37121 0.0
N755 N 0.44894 0.6273 0.15094 0.0
C756 C 0.36581 0.61402 0.32829 0.0
C757 C 0.42497 0.62916 0.21022 0.0
N758 N 0.32887 0.63592 0.24255 0.0
N759 N 0.48257 0.65841 0.2993 0.0
H760 H 0.43734 0.62255 1.09551 0.0
H761 H 0.4782 0.62826 0.15811 0.0
H762 H 0.49521 0.67259 0.35145 0.0
H763 H 0.50545 0.67 0.25503 0.0
H764 H 0.31033 0.63791 0.28684 0.0
H765 H 0.3239 0.64362 0.18781 0.0
H766 H 0.29938 0.58123 0.35415 0.0
H767 H 0.32979 0.56941 0.41569 0.0
C768 C 0.71758 0.39262 0.17761 0.0
C769 C 0.74915 0.40061 0.12256 0.0
C770 C 0.8033 0.44929 0.20931 0.0
C771 C 0.77521 0.42281 0.26941 0.0
N772 N 0.70246 0.36748 0.30702 0.0
N773 N 0.8082 0.46459 1.0724 0.0
C774 C 0.73073 0.39463 0.25357 0.0
C775 C 0.78766 0.43919 0.13354 0.0
N776 N 0.67568 0.37469 0.15727 0.0
N777 N 0.84498 0.4796 0.22255 0.0
H778 H 0.79576 0.45517 1.01772 0.0
H779 H 0.83457 0.4954 1.07728 0.0
H780 H 0.8586 0.48597 0.27634 0.0
H781 H 0.86662 0.49695 0.17892 0.0
H782 H 0.65084 0.36761 0.1967 0.0
H783 H 0.66734 0.37025 1.09975 0.0
H784 H 0.67006 0.34703 0.29545 0.0
H785 H 0.71166 0.36385 0.36107 0.0
C786 C 0.42699 0.7751 0.56911 0.0
C787 C 0.38549 0.74049 0.5578 0.0
C788 C 0.39634 0.74102 0.42349 0.0
C789 C 0.43219 0.78297 0.43121 0.0
N790 N 0.49096 0.83358 0.50988 0.0
N791 N 0.34615 0.6752 0.48926 0.0
C792 C 0.45169 0.79752 0.50361 0.0
C793 C 0.37763 0.71708 0.49037 0.0
N794 N 0.43861 0.78952 0.64147 0.0
N795 N 0.37789 0.72621 0.35437 0.0
H796 H 0.33088 0.65908 0.53972 0.0
H797 H 0.33769 0.65667 0.43999 0.0
H798 H 0.39192 0.74239 0.3034 0.0
H799 H 0.34763 0.69927 0.34904 0.0
H800 H 0.46758 0.81636 0.65593 0.0
H801 H 0.4177 0.77336 0.68722 0.0
H802 H 0.50717 0.84368 0.56108 0.0
H803 H 0.50863 0.85195 0.46316 0.0
C804 C 0.63803 0.46337 0.61125 0.0
C805 C 0.63401 0.42455 0.63505 0.0
C806 C 0.63665 0.40345 0.50706 0.0
C807 C 0.62478 0.43393 0.4828 0.0
N808 N 0.615 0.49458 0.51591 0.0
N809 N 0.66895 0.38422 0.60883 0.0
C810 C 0.6278 0.46611 0.53494 0.0
C811 C 0.64988 0.40608 0.58316 0.0
N812 N 0.65218 0.49686 0.66047 0.0
N813 N 0.63236 0.3706 0.46167 0.0
H814 H 0.67383 0.3827 0.66698 0.0
H815 H 0.68189 0.37043 0.57225 0.0
H816 H 0.62337 0.36654 0.40495 0.0
H817 H 0.63654 0.34596 0.4822 0.0
H818 H 0.6585 0.52718 0.64389 0.0
H819 H 0.66167 0.49474 0.71535 0.0
H820 H 0.61355 0.51566 0.55535 0.0
H821 H 0.60104 0.49379 0.46403 0.0
C822 C 0.23893 0.63479 0.34439 0.0
C823 C 0.22951 0.61862 0.26957 0.0
C824 C 0.21146 0.5476 0.31232 0.0
C825 C 0.2164 0.56299 0.38837 0.0
N826 N 0.22506 0.61809 0.47782 0.0
N827 N 0.206 0.56097 0.17884 0.0
C828 C 0.22788 0.60583 0.40492 0.0
C829 C 0.2159 0.57539 0.25223 0.0
N830 N 0.25895 0.6779 0.35716 0.0
N831 N 0.20285 0.5068 0.29797 0.0
H832 H 0.21148 0.58142 0.13295 0.0
H833 H 0.19098 0.52883 0.16337 0.0
H834 H 0.19755 0.48499 0.3411 0.0
H835 H 0.20292 0.49495 0.24368 0.0
H836 H 0.27066 0.69168 0.4102 0.0
H837 H 0.26818 0.69996 0.31278 0.0
H838 H 0.22684 0.64719 0.49004 0.0
H839 H 0.21581 0.59761 0.52473 0.0
C840 C 0.3168 0.76361 0.88175 0.0
C841 C 0.32865 0.78993 0.8164 0.0
C842 C 0.40346 0.82781 0.85396 0.0
C843 C 0.39268 0.80126 0.91927 0.0
N844 N 0.34193 0.73408 0.97861 0.0
N845 N 0.38502 0.82633 0.72336 0.0
C846 C 0.35005 0.76605 0.92856 0.0
C847 C 0.37259 0.81593 0.79726 0.0
N848 N 0.27437 0.73715 0.89963 0.0
N849 N 0.44199 0.86502 0.84609 0.0
H850 H 0.36302 0.81048 0.68031 0.0
H851 H 0.41715 0.84456 0.70566 0.0
H852 H 0.46537 0.87756 0.8878 0.0
H853 H 0.44853 0.886 0.80065 0.0
H854 H 0.26391 0.71905 0.94947 0.0
H855 H 0.24979 0.73516 0.86591 0.0
H856 H 0.3131 0.70492 0.97874 0.0
H857 H 0.36575 0.73484 1.01292 0.0
C858 C 0.49368 0.359 0.958 0.0
C859 C 0.49001 0.36087 0.87855 0.0
C860 C 0.56365 0.42156 0.86968 0.0
C861 C 0.56679 0.42239 0.94978 0.0
N862 N 0.52687 0.39991 1.07053 0.0
N863 N 0.5176 0.40055 0.76154 0.0
C864 C 0.52978 0.39308 0.99458 0.0
C865 C 0.52356 0.39476 0.83585 0.0
N866 N 0.4629 0.32492 0.99861 0.0
N867 N 0.59945 0.44397 0.82467 0.0
H868 H 0.49104 0.37808 0.73201 0.0
H869 H 0.53736 0.42883 0.7317 0.0
H870 H 0.63069 0.45912 0.8449 0.0
H871 H 0.5984 0.44318 0.76577 0.0
H872 H 0.46662 0.31937 1.05546 0.0
H873 H 0.43487 0.30093 0.97375 0.0
H874 H 0.49937 0.38122 1.10378 0.0
H875 H 0.54862 0.42803 1.09734 0.0
C876 C 0.163 0.55808 0.81725 0.0
C877 C 0.1274 0.51582 0.82526 0.0
C878 C 0.08113 0.54478 0.86589 0.0
C879 C 0.11753 0.58664 0.86468 0.0
N880 N 0.19336 0.63407 0.84258 0.0
N881 N 0.05333 0.46852 0.86682 0.0
C882 C 0.15856 0.59351 0.8411 0.0
C883 C 0.08679 0.50902 0.85275 0.0
N884 N 0.20097 0.56428 0.78605 0.0
N885 N 0.04075 0.53898 0.87762 0.0
H886 H 0.05368 0.44062 0.85342 0.0
H887 H 0.02569 0.4623 0.89771 0.0
H888 H 0.03459 0.56379 0.88863 0.0
H889 H 0.01267 0.50992 0.86876 0.0
H890 H 0.22645 0.59408 0.76985 0.0
H891 H 0.20651 0.53915 0.77324 0.0
H892 H 0.22512 0.64111 0.83576 0.0
H893 H 0.19039 0.66097 0.8534 0.0
C894 C 0.6143 0.15811 0.91308 0.0
C895 C 0.60387 0.12424 0.86116 0.0
C896 C 0.52699 0.10102 0.88275 0.0
C897 C 0.5384 0.13975 0.92256 0.0
N898 N 0.59531 0.20907 0.96376 0.0
N899 N 0.54854 0.06689 0.78693 0.0
C900 C 0.58281 0.16942 0.93429 0.0
C901 C 0.55969 0.09637 0.84371 0.0
N902 N 0.6541 0.17855 0.94445 0.0
N903 N 0.48559 0.06753 0.88501 0.0
H904 H 0.57094 0.06197 0.75728 0.0
H905 H 0.51748 0.05007 0.7654 0.0
H906 H 0.46066 0.06816 0.91522 0.0
H907 H 0.47705 0.03731 0.86344 0.0
H908 H 0.66243 0.20098 0.98816 0.0
H909 H 0.67641 0.1686 0.93335 0.0
H910 H 0.62753 0.23298 0.96747 0.0
H911 H 0.57361 0.21958 0.97654 0.0
C912 C 0.44129 0.61217 0.93409 0.0
C913 C 0.42518 0.63186 0.8863 0.0
C914 C 0.35155 0.57414 0.91615 0.0
C915 C 0.36919 0.55018 0.94725 0.0
N916 N 0.43229 0.54428 0.97137 0.0
N917 N 0.36448 0.63763 0.84645 0.0
C918 C 0.41453 0.56867 0.9524 0.0
C919 C 0.37992 0.61479 0.88233 0.0
N920 N 0.48178 0.63508 0.96273 0.0
N921 N 0.30819 0.55856 0.92066 0.0
H922 H 0.38458 0.66947 0.83029 0.0
H923 H 0.33232 0.62545 0.83282 0.0
H924 H 0.28694 0.52859 0.9435 0.0
H925 H 0.29336 0.57583 0.9056 0.0
H926 H 0.49414 0.62213 1.00089 0.0
H927 H 0.50009 0.66833 0.95705 0.0
H928 H 0.46544 0.55611 0.97038 0.0
H929 H 0.41395 0.51119 0.97856 0.0
C930 C 0.87162 0.4152 0.89364 0.0
C931 C 0.83139 0.3785 0.91245 0.0
C932 C 0.79375 0.41412 0.86732 0.0
C933 C 0.83377 0.45204 0.85455 0.0
N934 N 0.91055 0.49183 0.87252 0.0
N935 N 0.75509 0.34811 0.93699 0.0
C936 C 0.87265 0.45371 0.87393 0.0
C937 C 0.79278 0.37971 0.90623 0.0
N938 N 0.90875 0.41335 0.89341 0.0
N939 N 0.75686 0.40985 0.83811 0.0
H940 H 0.75324 0.32264 0.96715 0.0
H941 H 0.72691 0.34977 0.93969 0.0
H942 H 0.75678 0.43399 0.80667 0.0
H943 H 0.72756 0.38115 0.83855 0.0
H944 H 0.93809 0.43791 0.8724 0.0
H945 H 0.90975 0.38595 0.90765 0.0
H946 H 0.93909 0.49552 0.89385 0.0
H947 H 0.9125 0.52068 0.85802 0.0
C948 C 0.39855 0.17707 0.34513 0.0
C949 C 0.42322 0.21061 0.2885 0.0
C950 C 0.44768 0.25863 0.41017 0.0
C951 C 0.42263 0.22591 0.46804 0.0
N952 N 0.37701 0.14967 0.4777 0.0
N953 N 0.46228 0.28711 0.27899 0.0
C954 C 0.39902 0.18414 0.43072 0.0
C955 C 0.44445 0.2521 0.3253 0.0
N956 N 0.3704 0.13779 0.31622 0.0
N957 N 0.48104 0.29581 0.43593 0.0
H958 H 0.46345 0.28483 0.21978 0.0
H959 H 0.47157 0.31771 0.29944 0.0
H960 H 0.4899 0.29867 0.49228 0.0
H961 H 0.50388 0.3197 0.40046 0.0
H962 H 0.34707 0.11242 0.34842 0.0
H963 H 0.36763 0.13179 0.25774 0.0
H964 H 0.36445 0.11805 0.46028 0.0
H965 H 0.37371 0.15286 0.53612 0.0
C966 C 0.1457 0.36059 0.4244 0.0
C967 C 0.17656 0.38822 0.48192 0.0
C968 C 0.22382 0.42311 0.35943 0.0
C969 C 0.19537 0.39304 0.30139 0.0
N970 N 0.12768 0.32742 0.29549 0.0
N971 N 0.25103 0.44201 0.49075 0.0
C972 C 0.15592 0.36057 0.33974 0.0
C973 C 0.21724 0.41758 0.44461 0.0
N974 N 0.10509 0.33295 0.45059 0.0
N975 N 0.25575 0.46126 0.33332 0.0
H976 H 0.24791 0.4407 0.55008 0.0
H977 H 0.28257 0.4604 0.47014 0.0
H978 H 0.25548 0.46898 0.27705 0.0
H979 H 0.2758 0.48692 0.36813 0.0
H980 H 0.07914 0.31575 0.41485 0.0
H981 H 0.09691 0.32957 0.50855 0.0
H982 H 0.10126 0.29979 0.31718 0.0
H983 H 0.13305 0.32591 0.23721 0.0
C984 C 0.79335 0.18736 0.40158 0.0
C985 C 0.76084 0.1919 0.44575 0.0
C986 C 0.74079 0.20574 0.30979 0.0
C987 C 0.77498 0.2046 0.26544 0.0
N988 N 0.82664 0.18187 0.27895 0.0
N989 N 0.71374 0.21946 0.43047 0.0
C990 C 0.79941 0.1925 0.31537 0.0
C991 C 0.73771 0.20475 0.39551 0.0
N992 N 0.81994 0.17879 0.44284 0.0
N993 N 0.70736 0.2031 0.27005 0.0
H994 H 0.71305 0.22239 0.48969 0.0
H995 H 0.69942 0.23341 0.4003 0.0
H996 H 0.70427 0.19604 0.21196 0.0
H997 H 0.67958 0.20004 0.29608 0.0
H998 H 0.84744 0.17962 0.42066 0.0
H999 H 0.81584 0.17378 0.50169 0.0
H1000 H 0.84211 0.16776 0.30545 0.0
H1001 H 0.83157 0.18476 0.2199 0.0
C1002 C 0.50383 0.75529 0.32724 0.0
C1003 C 0.54121 0.78618 0.28308 0.0
C1004 C 0.57772 0.80247 0.4182 0.0
C1005 C 0.54059 0.77031 0.46193 0.0
N1006 N 0.46686 0.71801 0.44792 0.0
N1007 N 0.61634 0.83614 0.29615 0.0
C1008 C 0.50378 0.74744 0.41221 0.0
C1009 C 0.57848 0.80882 0.33242 0.0
N1010 N 0.46683 0.7334 0.28696 0.0
N1011 N 0.61322 0.82853 0.45964 0.0
H1012 H 0.61795 0.84206 0.23765 0.0
H1013 H 0.64624 0.85034 0.32188 0.0
H1014 H 0.61417 0.82451 0.51833 0.0
H1015 H 0.6403 0.85547 0.43785 0.0
H1016 H 0.43739 0.71037 0.30918 0.0
H1017 H 0.46551 0.73811 0.22869 0.0
H1018 H 0.4383 0.69865 0.42063 0.0
H1019 H 0.46437 0.71397 0.50692 0.0
C1020 C 0.77844 0.55731 0.41383 0.0
C1021 C 0.76041 0.51895 0.46155 0.0
C1022 C 0.72526 0.48147 0.33302 0.0
C1023 C 0.74533 0.51875 0.28366 0.0
N1024 N 0.79596 0.59394 0.28741 0.0
N1025 N 0.7241 0.44341 0.45029 0.0
C1026 C 0.77326 0.55694 0.328 0.0
C1027 C 0.73571 0.48119 0.41567 0.0
N1028 N 0.8003 0.59536 0.45132 0.0
N1029 N 0.69371 0.44504 0.30131 0.0
H1030 H 0.73186 0.44138 0.50651 0.0
H1031 H 0.71059 0.41473 0.42132 0.0
H1032 H 0.68526 0.44332 0.24431 0.0
H1033 H 0.67329 0.41813 0.33314 0.0
H1034 H 0.81138 0.6251 0.426 0.0
H1035 H 0.80431 0.5967 0.51026 0.0
H1036 H 0.82022 0.62243 0.31005 0.0
H1037 H 0.7923 0.59502 0.22867 0.0
C1038 C 0.15241 0.76498 0.26354 0.0
C1039 C 0.18253 0.76518 0.20586 0.0
C1040 C 0.2301 0.77887 0.32491 0.0
C1041 C 0.20094 0.77999 0.38411 0.0
N1042 N 0.12853 0.76685 0.39673 0.0
N1043 N 0.25654 0.78503 0.19152 0.0
C1044 C 0.16068 0.77102 0.34852 0.0
C1045 C 0.223 0.77605 0.24032 0.0
N1046 N 0.11601 0.76255 0.23594 0.0
N1047 N 0.26384 0.77557 0.34943 0.0
H1048 H 0.25303 0.783 0.13245 0.0
H1049 H 0.28834 0.79877 0.20889 0.0
H1050 H 0.26773 0.77292 0.40654 0.0
H1051 H 0.28475 0.7709 0.31402 0.0
H1052 H 0.09464 0.76795 0.26843 0.0
H1053 H 0.1096 0.75952 0.17779 0.0
H1054 H 0.09661 0.75401 0.38085 0.0
H1055 H 0.13327 0.77375 0.45468 0.0
C1056 C 0.49812 0.76056 0.82987 0.0
C1057 C 0.53611 0.77054 0.78332 0.0
C1058 C 0.5738 0.79297 0.91693 0.0
C1059 C 0.53515 0.78121 0.96319 0.0
N1060 N 0.45842 0.74256 0.95356 0.0
N1061 N 0.61125 0.79514 0.79404 0.0
C1062 C 0.49715 0.76222 0.91576 0.0
C1063 C 0.57394 0.78618 0.8313 0.0
N1064 N 0.46148 0.74962 0.79137 0.0
N1065 N 0.61148 0.8112 0.95578 0.0
H1066 H 0.61281 0.7923 0.73492 0.0
H1067 H 0.64024 0.80423 0.82036 0.0
H1068 H 0.61238 0.81624 1.01459 0.0
H1069 H 0.64167 0.8212 0.93155 0.0
H1070 H 0.43428 0.74812 0.81683 0.0
H1071 H 0.45983 0.74496 0.73248 0.0
H1072 H 0.42915 0.72374 0.9268 0.0
H1073 H 0.45611 0.74245 1.01303 0.0
C1074 C 0.78586 0.55496 0.83531 0.0
C1075 C 0.76031 0.52009 0.78249 0.0
C1076 C 0.71836 0.48262 0.91014 0.0
C1077 C 0.74425 0.51751 0.96285 0.0
N1078 N 0.81 0.58489 0.96506 0.0
N1079 N 0.69749 0.45081 0.78047 0.0
C1080 C 0.77987 0.5528 0.92139 0.0
C1081 C 0.72516 0.48447 0.82422 0.0
N1082 N 0.81495 0.59274 0.80221 0.0
N1083 N 0.68838 0.44512 0.94351 0.0
H1084 H 0.70311 0.4502 0.72216 0.0
H1085 H 0.66912 0.42448 0.8 0.0
H1086 H 0.68413 0.44185 1.0026 0.0
H1087 H 0.67021 0.41644 0.91465 0.0
H1088 H 0.83208 0.62119 0.83214 0.0
H1089 H 0.81804 0.59631 0.74307 0.0
H1090 H 0.83947 0.60905 0.94388 0.0
H1091 H 0.80706 0.58483 1.02438 0.0
C1092 C 0.21217 0.81112 0.76586 0.0
C1093 C 0.19535 0.77875 0.70601 0.0
C1094 C 0.15013 0.73418 0.82292 0.0
C1095 C 0.17651 0.76175 0.88515 0.0
N1096 N 0.23833 0.83318 0.8962 0.0
N1097 N 0.14418 0.70346 0.69483 0.0
C1098 C 0.20943 0.80182 0.85008 0.0
C1099 C 0.16385 0.73849 0.74055 0.0
N1100 N 0.22525 0.8518 0.74405 0.0
N1101 N 0.10773 0.70907 0.83827 0.0
H1102 H 0.1519 0.7047 0.63688 0.0
H1103 H 0.12258 0.67317 0.71682 0.0
H1104 H 0.09562 0.71116 0.89107 0.0
H1105 H 0.08525 0.69206 0.79618 0.0
H1106 H 0.23056 0.87559 0.78385 0.0
H1107 H 0.22465 0.85964 0.68706 0.0
H1108 H 0.26389 0.86156 0.87433 0.0
H1109 H 0.2385 0.82951 0.95489 0.0
C1110 C 0.38498 0.21827 0.849 0.0
C1111 C 0.41587 0.22063 0.79025 0.0
C1112 C 0.45633 0.21773 0.91107 0.0
C1113 C 0.42357 0.21117 0.96857 0.0
N1114 N 0.35191 0.19952 0.97877 0.0
N1115 N 0.4793 0.21448 0.77842 0.0
C1116 C 0.38689 0.21011 0.93275 0.0
C1117 C 0.45058 0.21763 0.82609 0.0
N1118 N 0.35268 0.22437 0.82521 0.0
N1119 N 0.49566 0.22757 0.93766 0.0
H1120 H 0.47723 0.21497 0.71926 0.0
H1121 H 0.50236 0.20735 0.79727 0.0
H1122 H 0.50187 0.22935 0.99584 0.0
H1123 H 0.52292 0.23816 0.9027 0.0
H1124 H 0.3327 0.22975 0.8619 0.0
H1125 H 0.34811 0.22686 0.76787 0.0
H1126 H 0.32195 0.19231 0.95842 0.0
H1127 H 0.35204 0.19439 1.0372 0.0
C1128 C 0.19717 0.42695 0.84871 0.0
C1129 C 0.17734 0.38848 0.80191 0.0
C1130 C 0.17247 0.35148 0.93327 0.0
C1131 C 0.19119 0.39014 0.97991 0.0
N1132 N 0.20766 0.46301 0.97317 0.0
N1133 N 0.14013 0.31219 0.8129 0.0
C1134 C 0.1998 0.4271 0.93414 0.0
C1135 C 0.16359 0.35048 0.8489 0.0
N1136 N 0.21555 0.46506 0.81099 0.0
N1137 N 0.16311 0.31466 0.97015 0.0
H1138 H 0.13443 0.31019 0.75444 0.0
H1139 H 0.12425 0.28285 0.84082 0.0
H1140 H 0.16775 0.31405 1.02861 0.0
H1141 H 0.15245 0.28533 0.9435 0.0
H1142 H 0.23458 0.49444 0.83744 0.0
H1143 H 0.21518 0.46672 0.75176 0.0
H1144 H 0.20845 0.48934 0.94759 0.0
H1145 H 0.20742 0.46381 1.03255 0.0
C1146 C 0.75616 0.2192 0.80892 0.0
C1147 C 0.75924 0.18613 0.766 0.0
C1148 C 0.77801 0.16905 0.90159 0.0
C1149 C 0.77421 0.20188 0.94432 0.0
N1150 N 0.74787 0.2504 0.9291 0.0
N1151 N 0.78439 0.13643 0.78026 0.0
C1152 C 0.76087 0.22495 0.89406 0.0
C1153 C 0.77267 0.16278 0.81599 0.0
N1154 N 0.74979 0.24726 0.76738 0.0
N1155 N 0.78663 0.1427 0.94354 0.0
H1156 H 0.78519 0.13465 0.72108 0.0
H1157 H 0.79809 0.12071 0.80722 0.0
H1158 H 0.79221 0.14717 1.002 0.0
H1159 H 0.78524 0.115 0.92246 0.0
H1160 H 0.75305 0.27559 0.78963 0.0
H1161 H 0.74494 0.24393 0.70864 0.0
H1162 H 0.72986 0.26141 0.90151 0.0
H1163 H 0.7498 0.25526 0.98792 0.0
loop_
_geom_bond_atom_site_label_1
_geom_bond_atom_site_label_2
_geom_bond_distance
_geom_bond_site_symmetry_2
_ccdc_geom_bond_type
Zn0 N4 2.020 . S
Zn0 O8 2.019 . S
Zn0 N10 2.119 . S
Zn0 O18 1.975 . S
C1 N2 1.334 . S
C1 N5 1.336 . S
N2 C1 1.334 . S
N2 C3 1.333 1_554 S
C3 N2 1.333 1_556 S
C3 N4 1.336 . S
N4 Zn0 2.020 . S
N4 C3 1.336 . S
N4 N5 1.354 1_556 S
N5 C1 1.336 . S
N5 N4 1.354 1_554 S
N5 Zn9 2.020 . S
C6 O7 1.244 . S
C6 O30 1.257 . S
O7 C6 1.244 . S
O8 Zn0 2.019 . S
O8 C28 1.257 . S
Zn9 N5 2.020 . S
Zn9 O16 1.975 . S
Zn9 N25 2.119 . S
Zn9 O30 2.019 . S
N10 Zn0 2.119 . S
N10 C12 1.334 . S
N10 C13 1.328 . S
C11 C12 1.391 . S
C11 N14 1.329 . S
C11 H32 0.930 1_545 S
C12 N10 1.334 . S
C12 C11 1.391 . S
C12 H19 0.930 . S
C13 N10 1.328 . S
C13 C15 1.392 . S
C13 H20 0.930 . S
N14 C11 1.329 . S
N14 C15 1.331 . S
C15 C13 1.392 . S
C15 N14 1.331 . S
O16 Zn9 1.975 . S
O16 C17 1.252 . S
C17 O16 1.252 . S
C17 O18 1.252 1_554 S
O18 Zn0 1.975 . S
O18 C17 1.252 1_556 S
H19 C12 0.930 . S
H20 C13 0.930 . S
C21 C22 1.392 . S
C21 N25 1.328 . S
C21 H27 0.930 . S
C22 C21 1.392 . S
C22 N26 1.331 . S
C23 C24 1.391 . S
C23 N26 1.329 . S
C23 H33 0.930 . S
C24 C23 1.391 . S
C24 N25 1.334 . S
C24 H31 0.930 . S
N25 Zn9 2.119 . S
N25 C21 1.328 . S
N25 C24 1.334 . S
N26 C22 1.331 . S
N26 C23 1.329 . S
H27 C21 0.930 . S
C28 O8 1.257 . S
C28 O29 1.244 . S
O29 C28 1.244 . S
O30 C6 1.257 . S
O30 Zn9 2.019 . S
H31 C24 0.930 . S
H32 C11 0.930 1_565 S
H33 C23 0.930 . S
Zn34 N38 2.020 . S
Zn34 O42 2.019 . S
Zn34 N44 2.119 . S
Zn34 O52 1.975 . S
C35 N36 1.334 . S
C35 N39 1.336 . S
N36 C35 1.334 . S
N36 C37 1.333 1_554 S
C37 N36 1.333 1_556 S
C37 N38 1.336 . S
N38 Zn34 2.020 . S
N38 C37 1.336 . S
N38 N39 1.354 1_556 S
N39 C35 1.336 . S
N39 N38 1.354 1_554 S
N39 Zn43 2.020 . S
C40 O41 1.244 . S
C40 O64 1.257 . S
O41 C40 1.244 . S
O42 Zn34 2.019 . S
O42 C62 1.257 . S
Zn43 N39 2.020 . S
Zn43 O50 1.975 . S
Zn43 N59 2.119 . S
Zn43 O64 2.019 . S
N44 Zn34 2.119 . S
N44 C46 1.334 . S
N44 C47 1.328 . S
C45 C46 1.391 . S
C45 N48 1.329 . S
C45 H66 0.930 . S
C46 N44 1.334 . S
C46 C45 1.391 . S
C46 H53 0.930 . S
C47 N44 1.328 . S
C47 C49 1.392 . S
C47 H54 0.930 . S
N48 C45 1.329 . S
N48 C49 1.331 . S
C49 C47 1.392 . S
C49 N48 1.331 . S
O50 Zn43 1.975 . S
O50 C51 1.252 . S
C51 O50 1.252 . S
C51 O52 1.252 1_554 S
O52 Zn34 1.975 . S
O52 C51 1.252 1_556 S
H53 C46 0.930 . S
H54 C47 0.930 . S
C55 C56 1.392 . S
C55 N59 1.328 . S
C55 H61 0.930 . S
C56 C55 1.392 . S
C56 N60 1.331 . S
C57 C58 1.391 . S
C57 N60 1.329 . S
C57 H67 0.930 . S
C58 C57 1.391 . S
C58 N59 1.334 . S
C58 H65 0.930 . S
N59 Zn43 2.119 . S
N59 C55 1.328 . S
N59 C58 1.334 . S
N60 C56 1.331 . S
N60 C57 1.329 . S
H61 C55 0.930 . S
C62 O42 1.257 . S
C62 O63 1.244 . S
O63 C62 1.244 . S
O64 C40 1.257 . S
O64 Zn43 2.019 . S
H65 C58 0.930 . S
H66 C45 0.930 . S
H67 C57 0.930 . S
Zn68 N72 2.020 . S
Zn68 O76 2.019 . S
Zn68 N78 2.119 . S
Zn68 O86 1.975 . S
C69 N70 1.334 . S
C69 N73 1.336 . S
N70 C69 1.334 . S
N70 C71 1.333 1_554 S
C71 N70 1.333 1_556 S
C71 N72 1.336 . S
N72 Zn68 2.020 . S
N72 C71 1.336 . S
N72 N73 1.354 1_556 S
N73 C69 1.336 . S
N73 N72 1.354 1_554 S
N73 Zn77 2.020 . S
C74 O75 1.244 . S
C74 O98 1.257 . S
O75 C74 1.244 . S
O76 Zn68 2.019 . S
O76 C96 1.257 . S
Zn77 N73 2.020 . S
Zn77 O84 1.975 . S
Zn77 N93 2.119 . S
Zn77 O98 2.019 . S
N78 Zn68 2.119 . S
N78 C80 1.334 . S
N78 C81 1.328 . S
C79 C80 1.391 . S
C79 N82 1.329 . S
C79 H100 0.930 1_655 S
C80 N78 1.334 . S
C80 C79 1.391 . S
C80 H87 0.930 . S
C81 N78 1.328 . S
C81 C83 1.392 . S
C81 H88 0.930 . S
N82 C79 1.329 . S
N82 C83 1.331 . S
C83 C81 1.392 . S
C83 N82 1.331 . S
O84 Zn77 1.975 . S
O84 C85 1.252 . S
C85 O84 1.252 . S
C85 O86 1.252 1_554 S
O86 Zn68 1.975 . S
O86 C85 1.252 1_556 S
H87 C80 0.930 . S
H88 C81 0.930 . S
C89 C90 1.392 . S
C89 N93 1.328 . S
C89 H95 0.930 . S
C90 C89 1.392 . S
C90 N94 1.331 . S
C91 C92 1.391 . S
C91 N94 1.329 . S
C91 H101 0.930 . S
C92 C91 1.391 . S
C92 N93 1.334 . S
C92 H99 0.930 . S
N93 Zn77 2.119 . S
N93 C89 1.328 . S
N93 C92 1.334 . S
N94 C90 1.331 . S
N94 C91 1.329 . S
H95 C89 0.930 . S
C96 O76 1.257 . S
C96 O97 1.244 . S
O97 C96 1.244 . S
O98 C74 1.257 . S
O98 Zn77 2.019 . S
H99 C92 0.930 . S
H100 C79 0.930 1_455 S
H101 C91 0.930 . S
Zn102 N106 2.020 . S
Zn102 O110 2.019 . S
Zn102 N112 2.119 . S
Zn102 O120 1.975 . S
C103 N104 1.333 1_556 S
C103 N107 1.336 . S
N104 C103 1.333 1_554 S
N104 C105 1.334 . S
C105 N104 1.334 . S
C105 N106 1.336 . S
N106 Zn102 2.020 . S
N106 C105 1.336 . S
N106 N107 1.354 1_554 S
N107 C103 1.336 . S
N107 N106 1.354 1_556 S
N107 Zn111 2.020 . S
C108 O109 1.244 . S
C108 O132 1.257 . S
O109 C108 1.244 . S
O110 Zn102 2.019 . S
O110 C130 1.257 . S
Zn111 N107 2.020 . S
Zn111 O118 1.975 . S
Zn111 N127 2.119 . S
Zn111 O132 2.019 . S
N112 Zn102 2.119 . S
N112 C114 1.334 . S
N112 C115 1.328 . S
C113 C114 1.391 . S
C113 N116 1.329 . S
C113 H134 0.930 . S
C114 N112 1.334 . S
C114 C113 1.391 . S
C114 H121 0.930 . S
C115 N112 1.328 . S
C115 C117 1.392 . S
C115 H122 0.930 . S
N116 C113 1.329 . S
N116 C117 1.331 . S
C117 C115 1.392 . S
C117 N116 1.331 . S
O118 Zn111 1.975 . S
O118 C119 1.252 1_556 S
C119 O118 1.252 1_554 S
C119 O120 1.252 . S
O120 Zn102 1.975 . S
O120 C119 1.252 . S
H121 C114 0.930 . S
H122 C115 0.930 . S
C123 C124 1.392 . S
C123 N127 1.328 . S
C123 H129 0.930 . S
C124 C123 1.392 . S
C124 N128 1.331 . S
C125 C126 1.391 . S
C125 N128 1.329 . S
C125 H135 0.930 1_565 S
C126 C125 1.391 . S
C126 N127 1.334 . S
C126 H133 0.930 . S
N127 Zn111 2.119 . S
N127 C123 1.328 . S
N127 C126 1.334 . S
N128 C124 1.331 . S
N128 C125 1.329 . S
H129 C123 0.930 . S
C130 O110 1.257 . S
C130 O131 1.244 . S
O131 C130 1.244 . S
O132 C108 1.257 . S
O132 Zn111 2.019 . S
H133 C126 0.930 . S
H134 C113 0.930 . S
H135 C125 0.930 1_545 S
Zn136 N140 2.020 . S
Zn136 O144 2.019 . S
Zn136 N146 2.119 . S
Zn136 O154 1.975 . S
C137 N138 1.334 . S
C137 N141 1.336 . S
N138 C137 1.334 . S
N138 C139 1.333 1_554 S
C139 N138 1.333 1_556 S
C139 N140 1.336 . S
N140 Zn136 2.020 . S
N140 C139 1.336 . S
N140 N141 1.354 1_556 S
N141 C137 1.336 . S
N141 N140 1.354 1_554 S
N141 Zn145 2.020 . S
C142 O143 1.244 . S
C142 O166 1.257 . S
O143 C142 1.244 . S
O144 Zn136 2.019 . S
O144 C164 1.257 . S
Zn145 N141 2.020 . S
Zn145 O152 1.975 . S
Zn145 N161 2.119 . S
Zn145 O166 2.019 . S
N146 Zn136 2.119 . S
N146 C148 1.334 . S
N146 C149 1.328 . S
C147 C148 1.391 . S
C147 N150 1.329 . S
C147 H168 0.930 . S
C148 N146 1.334 . S
C148 C147 1.391 . S
C148 H155 0.930 . S
C149 N146 1.328 . S
C149 C151 1.392 . S
C149 H156 0.930 . S
N150 C147 1.329 . S
N150 C151 1.331 . S
C151 C149 1.392 . S
C151 N150 1.331 . S
O152 Zn145 1.975 . S
O152 C153 1.252 . S
C153 O152 1.252 . S
C153 O154 1.252 1_554 S
O154 Zn136 1.975 . S
O154 C153 1.252 1_556 S
H155 C148 0.930 . S
H156 C149 0.930 . S
C157 C158 1.392 . S
C157 N161 1.328 . S
C157 H163 0.930 . S
C158 C157 1.392 . S
C158 N162 1.331 . S
C159 C160 1.391 . S
C159 N162 1.329 . S
C159 H169 0.930 . S
C160 C159 1.391 . S
C160 N161 1.334 . S
C160 H167 0.930 . S
N161 Zn145 2.119 . S
N161 C157 1.328 . S
N161 C160 1.334 . S
N162 C158 1.331 . S
N162 C159 1.329 . S
H163 C157 0.930 . S
C164 O144 1.257 . S
C164 O165 1.244 . S
O165 C164 1.244 . S
O166 C142 1.257 . S
O166 Zn145 2.019 . S
H167 C160 0.930 . S
H168 C147 0.930 . S
H169 C159 0.930 . S
Zn170 N174 2.020 . S
Zn170 O178 2.019 . S
Zn170 N180 2.119 . S
Zn170 O188 1.975 . S
C171 N172 1.333 1_556 S
C171 N175 1.336 . S
N172 C171 1.333 1_554 S
N172 C173 1.334 . S
C173 N172 1.334 . S
C173 N174 1.336 . S
N174 Zn170 2.020 . S
N174 C173 1.336 . S
N174 N175 1.354 1_554 S
N175 C171 1.336 . S
N175 N174 1.354 1_556 S
N175 Zn179 2.020 . S
C176 O177 1.244 . S
C176 O200 1.257 . S
O177 C176 1.244 . S
O178 Zn170 2.019 . S
O178 C198 1.257 . S
Zn179 N175 2.020 . S
Zn179 O186 1.975 . S
Zn179 N195 2.119 . S
Zn179 O200 2.019 . S
N180 Zn170 2.119 . S
N180 C182 1.334 . S
N180 C183 1.328 . S
C181 C182 1.391 . S
C181 N184 1.329 . S
C181 H202 0.930 . S
C182 N180 1.334 . S
C182 C181 1.391 . S
C182 H189 0.930 . S
C183 N180 1.328 . S
C183 C185 1.392 . S
C183 H190 0.930 . S
N184 C181 1.329 . S
N184 C185 1.331 . S
C185 C183 1.392 . S
C185 N184 1.331 . S
O186 Zn179 1.975 . S
O186 C187 1.252 1_556 S
C187 O186 1.252 1_554 S
C187 O188 1.252 . S
O188 Zn170 1.975 . S
O188 C187 1.252 . S
H189 C182 0.930 . S
H190 C183 0.930 . S
C191 C192 1.392 . S
C191 N195 1.328 . S
C191 H197 0.930 . S
C192 C191 1.392 . S
C192 N196 1.331 . S
C193 C194 1.391 . S
C193 N196 1.329 . S
C193 H203 0.930 1_455 S
C194 C193 1.391 . S
C194 N195 1.334 . S
C194 H201 0.930 . S
N195 Zn179 2.119 . S
N195 C191 1.328 . S
N195 C194 1.334 . S
N196 C192 1.331 . S
N196 C193 1.329 . S
H197 C191 0.930 . S
C198 O178 1.257 . S
C198 O199 1.244 . S
O199 C198 1.244 . S
O200 C176 1.257 . S
O200 Zn179 2.019 . S
H201 C194 0.930 . S
H202 C181 0.930 . S
H203 C193 0.930 1_655 S
Zn204 N208 2.020 . S
Zn204 O212 2.019 . S
Zn204 N214 2.119 . S
Zn204 O222 1.975 . S
C205 N206 1.334 . S
C205 N209 1.336 . S
N206 C205 1.334 . S
N206 C207 1.334 . S
C207 N206 1.334 . S
C207 N208 1.336 . S
N208 Zn204 2.020 . S
N208 C207 1.336 . S
N208 N209 1.354 . S
N209 C205 1.336 . S
N209 N208 1.354 . S
N209 Zn213 2.020 . S
C210 O211 1.244 . S
C210 O234 1.257 . S
O211 C210 1.244 . S
O212 Zn204 2.019 . S
O212 C232 1.257 . S
Zn213 N209 2.020 . S
Zn213 O220 1.975 . S
Zn213 N229 2.119 . S
Zn213 O234 2.019 . S
N214 Zn204 2.119 . S
N214 C216 1.334 . S
N214 C217 1.328 . S
C215 C216 1.391 . S
C215 N218 1.329 . S
C215 H236 0.930 . S
C216 N214 1.334 . S
C216 C215 1.391 . S
C216 H223 0.930 . S
C217 N214 1.328 . S
C217 C219 1.392 . S
C217 H224 0.930 . S
N218 C215 1.329 . S
N218 C219 1.331 . S
C219 C217 1.392 . S
C219 N218 1.331 . S
O220 Zn213 1.975 . S
O220 C221 1.252 . S
C221 O220 1.252 . S
C221 O222 1.252 . S
O222 Zn204 1.975 . S
O222 C221 1.252 . S
H223 C216 0.930 . S
H224 C217 0.930 . S
C225 C226 1.392 . S
C225 N229 1.328 . S
C225 H231 0.930 . S
C226 C225 1.392 . S
C226 N230 1.331 . S
C227 C228 1.391 . S
C227 N230 1.329 . S
C227 H237 0.930 1_655 S
C228 C227 1.391 . S
C228 N229 1.334 . S
C228 H235 0.930 . S
N229 Zn213 2.119 . S
N229 C225 1.328 . S
N229 C228 1.334 . S
N230 C226 1.331 . S
N230 C227 1.329 . S
H231 C225 0.930 . S
C232 O212 1.257 . S
C232 O233 1.244 . S
O233 C232 1.244 . S
O234 C210 1.257 . S
O234 Zn213 2.019 . S
H235 C228 0.930 . S
H236 C215 0.930 . S
H237 C227 0.930 1_455 S
Zn238 N242 2.020 . S
Zn238 O246 2.019 . S
Zn238 N248 2.119 . S
Zn238 O256 1.975 . S
C239 N240 1.334 . S
C239 N243 1.336 . S
N240 C239 1.334 . S
N240 C241 1.334 . S
C241 N240 1.334 . S
C241 N242 1.336 . S
N242 Zn238 2.020 . S
N242 C241 1.336 . S
N242 N243 1.354 . S
N243 C239 1.336 . S
N243 N242 1.354 . S
N243 Zn247 2.020 . S
C244 O245 1.244 . S
C244 O268 1.257 . S
O245 C244 1.244 . S
O246 Zn238 2.019 . S
O246 C266 1.257 . S
Zn247 N243 2.020 . S
Zn247 O254 1.975 . S
Zn247 N263 2.119 . S
Zn247 O268 2.019 . S
N248 Zn238 2.119 . S
N248 C250 1.334 . S
N248 C251 1.328 . S
C249 C250 1.391 . S
C249 N252 1.329 . S
C249 H270 0.930 . S
C250 N248 1.334 . S
C250 C249 1.391 . S
C250 H257 0.930 . S
C251 N248 1.328 . S
C251 C253 1.392 . S
C251 H258 0.930 . S
N252 C249 1.329 . S
N252 C253 1.331 . S
C253 C251 1.392 . S
C253 N252 1.331 . S
O254 Zn247 1.975 . S
O254 C255 1.252 . S
C255 O254 1.252 . S
C255 O256 1.252 . S
O256 Zn238 1.975 . S
O256 C255 1.252 . S
H257 C250 0.930 . S
H258 C251 0.930 . S
C259 C260 1.392 . S
C259 N263 1.328 . S
C259 H265 0.930 . S
C260 C259 1.392 . S
C260 N264 1.331 . S
C261 C262 1.391 . S
C261 N264 1.329 . S
C261 H271 0.930 1_565 S
C262 C261 1.391 . S
C262 N263 1.334 . S
C262 H269 0.930 . S
N263 Zn247 2.119 . S
N263 C259 1.328 . S
N263 C262 1.334 . S
N264 C260 1.331 . S
N264 C261 1.329 . S
H265 C259 0.930 . S
C266 O246 1.257 . S
C266 O267 1.244 . S
O267 C266 1.244 . S
O268 C244 1.257 . S
O268 Zn247 2.019 . S
H269 C262 0.930 . S
H270 C249 0.930 . S
H271 C261 0.930 1_545 S
Zn272 N276 2.020 . S
Zn272 O280 2.019 . S
Zn272 N282 2.119 . S
Zn272 O290 1.975 . S
C273 N274 1.334 . S
C273 N277 1.336 . S
N274 C273 1.334 . S
N274 C275 1.334 . S
C275 N274 1.334 . S
C275 N276 1.336 . S
N276 Zn272 2.020 . S
N276 C275 1.336 . S
N276 N277 1.354 . S
N277 C273 1.336 . S
N277 N276 1.354 . S
N277 Zn281 2.020 . S
C278 O279 1.244 . S
C278 O302 1.257 . S
O279 C278 1.244 . S
O280 Zn272 2.019 . S
O280 C300 1.257 . S
Zn281 N277 2.020 . S
Zn281 O288 1.975 . S
Zn281 N297 2.119 . S
Zn281 O302 2.019 . S
N282 Zn272 2.119 . S
N282 C284 1.334 . S
N282 C285 1.328 . S
C283 C284 1.391 . S
C283 N286 1.329 . S
C283 H304 0.930 . S
C284 N282 1.334 . S
C284 C283 1.391 . S
C284 H291 0.930 . S
C285 N282 1.328 . S
C285 C287 1.392 . S
C285 H292 0.930 . S
N286 C283 1.329 . S
N286 C287 1.331 . S
C287 C285 1.392 . S
C287 N286 1.331 . S
O288 Zn281 1.975 . S
O288 C289 1.252 . S
C289 O288 1.252 . S
C289 O290 1.252 . S
O290 Zn272 1.975 . S
O290 C289 1.252 . S
H291 C284 0.930 . S
H292 C285 0.930 . S
C293 C294 1.392 . S
C293 N297 1.328 . S
C293 H299 0.930 . S
C294 C293 1.392 . S
C294 N298 1.331 . S
C295 C296 1.391 . S
C295 N298 1.329 . S
C295 H305 0.930 . S
C296 C295 1.391 . S
C296 N297 1.334 . S
C296 H303 0.930 . S
N297 Zn281 2.119 . S
N297 C293 1.328 . S
N297 C296 1.334 . S
N298 C294 1.331 . S
N298 C295 1.329 . S
H299 C293 0.930 . S
C300 O280 1.257 . S
C300 O301 1.244 . S
O301 C300 1.244 . S
O302 C278 1.257 . S
O302 Zn281 2.019 . S
H303 C296 0.930 . S
H304 C283 0.930 . S
H305 C295 0.930 . S
Zn306 N310 2.020 . S
Zn306 O314 2.019 . S
Zn306 N316 2.119 . S
Zn306 O324 1.975 . S
C307 N308 1.334 . S
C307 N311 1.336 . S
N308 C307 1.334 . S
N308 C309 1.334 . S
C309 N308 1.334 . S
C309 N310 1.336 . S
N310 Zn306 2.020 . S
N310 C309 1.336 . S
N310 N311 1.354 . S
N311 C307 1.336 . S
N311 N310 1.354 . S
N311 Zn315 2.020 . S
C312 O313 1.244 . S
C312 O336 1.257 . S
O313 C312 1.244 . S
O314 Zn306 2.019 . S
O314 C334 1.257 . S
Zn315 N311 2.020 . S
Zn315 O322 1.975 . S
Zn315 N331 2.119 . S
Zn315 O336 2.019 . S
N316 Zn306 2.119 . S
N316 C318 1.334 . S
N316 C319 1.328 . S
C317 C318 1.391 . S
C317 N320 1.329 . S
C317 H338 0.930 . S
C318 N316 1.334 . S
C318 C317 1.391 . S
C318 H325 0.930 . S
C319 N316 1.328 . S
C319 C321 1.392 . S
C319 H326 0.930 . S
N320 C317 1.329 . S
N320 C321 1.331 . S
C321 C319 1.392 . S
C321 N320 1.331 . S
O322 Zn315 1.975 . S
O322 C323 1.252 . S
C323 O322 1.252 . S
C323 O324 1.252 . S
O324 Zn306 1.975 . S
O324 C323 1.252 . S
H325 C318 0.930 . S
H326 C319 0.930 . S
C327 C328 1.392 . S
C327 N331 1.328 . S
C327 H333 0.930 . S
C328 C327 1.392 . S
C328 N332 1.331 . S
C329 C330 1.391 . S
C329 N332 1.329 . S
C329 H339 0.930 1_455 S
C330 C329 1.391 . S
C330 N331 1.334 . S
C330 H337 0.930 . S
N331 Zn315 2.119 . S
N331 C327 1.328 . S
N331 C330 1.334 . S
N332 C328 1.331 . S
N332 C329 1.329 . S
H333 C327 0.930 . S
C334 O314 1.257 . S
C334 O335 1.244 . S
O335 C334 1.244 . S
O336 C312 1.257 . S
O336 Zn315 2.019 . S
H337 C330 0.930 . S
H338 C317 0.930 . S
H339 C329 0.930 1_655 S
Zn340 N344 2.020 . S
Zn340 O348 2.019 . S
Zn340 N350 2.119 . S
Zn340 O358 1.975 . S
C341 N342 1.334 . S
C341 N345 1.336 . S
N342 C341 1.334 . S
N342 C343 1.334 . S
C343 N342 1.334 . S
C343 N344 1.336 . S
N344 Zn340 2.020 . S
N344 C343 1.336 . S
N344 N345 1.354 . S
N345 C341 1.336 . S
N345 N344 1.354 . S
N345 Zn349 2.020 . S
C346 O347 1.244 . S
C346 O370 1.257 . S
O347 C346 1.244 . S
O348 Zn340 2.019 . S
O348 C368 1.257 . S
Zn349 N345 2.020 . S
Zn349 O356 1.975 . S
Zn349 N365 2.119 . S
Zn349 O370 2.019 . S
N350 Zn340 2.119 . S
N350 C352 1.334 . S
N350 C353 1.328 . S
C351 C352 1.391 . S
C351 N354 1.329 . S
C351 H372 0.930 1_545 S
C352 N350 1.334 . S
C352 C351 1.391 . S
C352 H359 0.930 . S
C353 N350 1.328 . S
C353 C355 1.392 . S
C353 H360 0.930 . S
N354 C351 1.329 . S
N354 C355 1.331 . S
C355 C353 1.392 . S
C355 N354 1.331 . S
O356 Zn349 1.975 . S
O356 C357 1.252 . S
C357 O356 1.252 . S
C357 O358 1.252 . S
O358 Zn340 1.975 . S
O358 C357 1.252 . S
H359 C352 0.930 . S
H360 C353 0.930 . S
C361 C362 1.392 . S
C361 N365 1.328 . S
C361 H367 0.930 . S
C362 C361 1.392 . S
C362 N366 1.331 . S
C363 C364 1.391 . S
C363 N366 1.329 . S
C363 H373 0.930 . S
C364 C363 1.391 . S
C364 N365 1.334 . S
C364 H371 0.930 . S
N365 Zn349 2.119 . S
N365 C361 1.328 . S
N365 C364 1.334 . S
N366 C362 1.331 . S
N366 C363 1.329 . S
H367 C361 0.930 . S
C368 O348 1.257 . S
C368 O369 1.244 . S
O369 C368 1.244 . S
O370 C346 1.257 . S
O370 Zn349 2.019 . S
H371 C364 0.930 . S
H372 C351 0.930 1_565 S
H373 C363 0.930 . S
Zn374 N378 2.020 . S
Zn374 O382 2.019 . S
Zn374 N384 2.119 . S
Zn374 O392 1.975 . S
C375 N376 1.334 . S
C375 N379 1.336 . S
N376 C375 1.334 . S
N376 C377 1.334 . S
C377 N376 1.334 . S
C377 N378 1.336 . S
N378 Zn374 2.020 . S
N378 C377 1.336 . S
N378 N379 1.354 . S
N379 C375 1.336 . S
N379 N378 1.354 . S
N379 Zn383 2.020 . S
C380 O381 1.244 . S
C380 O404 1.257 . S
O381 C380 1.244 . S
O382 Zn374 2.019 . S
O382 C402 1.257 . S
Zn383 N379 2.020 . S
Zn383 O390 1.975 . S
Zn383 N399 2.119 . S
Zn383 O404 2.019 . S
N384 Zn374 2.119 . S
N384 C386 1.334 . S
N384 C387 1.328 . S
C385 C386 1.391 . S
C385 N388 1.329 . S
C385 H406 0.930 . S
C386 N384 1.334 . S
C386 C385 1.391 . S
C386 H393 0.930 . S
C387 N384 1.328 . S
C387 C389 1.392 . S
C387 H394 0.930 . S
N388 C385 1.329 . S
N388 C389 1.331 . S
C389 C387 1.392 . S
C389 N388 1.331 . S
O390 Zn383 1.975 . S
O390 C391 1.252 . S
C391 O390 1.252 . S
C391 O392 1.252 . S
O392 Zn374 1.975 . S
O392 C391 1.252 . S
H393 C386 0.930 . S
H394 C387 0.930 . S
C395 C396 1.392 . S
C395 N399 1.328 . S
C395 H401 0.930 . S
C396 C395 1.392 . S
C396 N400 1.331 . S
C397 C398 1.391 . S
C397 N400 1.329 . S
C397 H407 0.930 . S
C398 C397 1.391 . S
C398 N399 1.334 . S
C398 H405 0.930 . S
N399 Zn383 2.119 . S
N399 C395 1.328 . S
N399 C398 1.334 . S
N400 C396 1.331 . S
N400 C397 1.329 . S
H401 C395 0.930 . S
C402 O382 1.257 . S
C402 O403 1.244 . S
O403 C402 1.244 . S
O404 C380 1.257 . S
O404 Zn383 2.019 . S
H405 C398 0.930 . S
H406 C385 0.930 . S
H407 C397 0.930 . S
C408 C409 1.363 . S
C408 C414 1.379 1_545 S
C408 N416 1.356 . S
C409 C408 1.363 . S
C409 C415 1.363 . S
C410 C411 1.363 . S
C410 C415 1.379 1_565 S
C410 N417 1.356 . S
C411 C410 1.363 . S
C411 C414 1.363 . S
N412 C414 1.356 . S
N412 H424 0.984 . S
N412 H425 0.985 . S
N413 C415 1.356 . S
N413 H418 0.984 . S
N413 H419 0.985 . S
C414 C408 1.379 1_565 S
C414 C411 1.363 . S
C414 N412 1.356 . S
C415 C409 1.363 . S
C415 C410 1.379 1_545 S
C415 N413 1.356 . S
N416 C408 1.356 . S
N416 H422 0.984 . S
N416 H423 0.984 . S
N417 C410 1.356 . S
N417 H420 0.984 . S
N417 H421 0.985 . S
H418 N413 0.984 . S
H419 N413 0.985 . S
H420 N417 0.984 . S
H421 N417 0.985 . S
H422 N416 0.984 . S
H423 N416 0.984 . S
H424 N412 0.984 . S
H425 N412 0.985 . S
C426 C427 1.363 . S
C426 C432 1.379 . S
C426 N434 1.356 . S
C427 C426 1.363 . S
C427 C433 1.363 . S
C428 C429 1.363 . S
C428 C433 1.379 . S
C428 N435 1.356 . S
C429 C428 1.363 . S
C429 C432 1.363 . S
N430 C432 1.356 . S
N430 H442 0.984 . S
N430 H443 0.985 . S
N431 C433 1.356 . S
N431 H436 0.984 . S
N431 H437 0.985 . S
C432 C426 1.379 . S
C432 C429 1.363 . S
C432 N430 1.356 . S
C433 C427 1.363 . S
C433 C428 1.379 . S
C433 N431 1.356 . S
N434 C426 1.356 . S
N434 H440 0.984 . S
N434 H441 0.984 . S
N435 C428 1.356 . S
N435 H438 0.984 . S
N435 H439 0.985 . S
H436 N431 0.984 . S
H437 N431 0.985 . S
H438 N435 0.984 . S
H439 N435 0.985 . S
H440 N434 0.984 . S
H441 N434 0.984 . S
H442 N430 0.984 . S
H443 N430 0.985 . S
C444 C445 1.363 . S
C444 C450 1.379 1_455 S
C444 N452 1.356 . S
C445 C444 1.363 . S
C445 C451 1.363 . S
C446 C447 1.363 . S
C446 C451 1.379 1_655 S
C446 N453 1.356 . S
C447 C446 1.363 . S
C447 C450 1.363 . S
N448 C450 1.356 . S
N448 H460 0.984 . S
N448 H461 0.985 . S
N449 C451 1.356 . S
N449 H454 0.984 . S
N449 H455 0.985 . S
C450 C444 1.379 1_655 S
C450 C447 1.363 . S
C450 N448 1.356 . S
C451 C445 1.363 . S
C451 C446 1.379 1_455 S
C451 N449 1.356 . S
N452 C444 1.356 . S
N452 H458 0.984 . S
N452 H459 0.984 . S
N453 C446 1.356 . S
N453 H456 0.984 . S
N453 H457 0.985 . S
H454 N449 0.984 . S
H455 N449 0.985 . S
H456 N453 0.984 . S
H457 N453 0.985 . S
H458 N452 0.984 . S
H459 N452 0.984 . S
H460 N448 0.984 . S
H461 N448 0.985 . S
C462 C463 1.363 . S
C462 C468 1.379 1_565 S
C462 N470 1.356 . S
C463 C462 1.363 . S
C463 C469 1.363 . S
C464 C465 1.363 . S
C464 C469 1.379 1_545 S
C464 N471 1.356 . S
C465 C464 1.363 . S
C465 C468 1.363 . S
N466 C468 1.356 . S
N466 H478 0.984 . S
N466 H479 0.985 . S
N467 C469 1.356 . S
N467 H472 0.984 . S
N467 H473 0.985 . S
C468 C462 1.379 1_545 S
C468 C465 1.363 . S
C468 N466 1.356 . S
C469 C463 1.363 . S
C469 C464 1.379 1_565 S
C469 N467 1.356 . S
N470 C462 1.356 . S
N470 H476 0.984 1_565 S
N470 H477 0.984 . S
N471 C464 1.356 . S
N471 H474 0.984 . S
N471 H475 0.985 1_545 S
H472 N467 0.984 . S
H473 N467 0.985 . S
H474 N471 0.984 . S
H475 N471 0.985 1_565 S
H476 N470 0.984 1_545 S
H477 N470 0.984 . S
H478 N466 0.984 . S
H479 N466 0.985 . S
C480 C481 1.363 . S
C480 C486 1.379 . S
C480 N488 1.356 . S
C481 C480 1.363 . S
C481 C487 1.363 . S
C482 C483 1.363 . S
C482 C487 1.379 . S
C482 N489 1.356 . S
C483 C482 1.363 . S
C483 C486 1.363 . S
N484 C486 1.356 . S
N484 H496 0.984 . S
N484 H497 0.985 . S
N485 C487 1.356 . S
N485 H490 0.984 . S
N485 H491 0.985 . S
C486 C480 1.379 . S
C486 C483 1.363 . S
C486 N484 1.356 . S
C487 C481 1.363 . S
C487 C482 1.379 . S
C487 N485 1.356 . S
N488 C480 1.356 . S
N488 H494 0.984 . S
N488 H495 0.984 . S
N489 C482 1.356 . S
N489 H492 0.984 . S
N489 H493 0.985 . S
H490 N485 0.984 . S
H491 N485 0.985 . S
H492 N489 0.984 . S
H493 N489 0.985 . S
H494 N488 0.984 . S
H495 N488 0.984 . S
H496 N484 0.984 . S
H497 N484 0.985 . S
C498 C499 1.363 . S
C498 C504 1.379 1_655 S
C498 N506 1.356 . S
C499 C498 1.363 . S
C499 C505 1.363 . S
C500 C501 1.363 . S
C500 C505 1.379 1_455 S
C500 N507 1.356 . S
C501 C500 1.363 . S
C501 C504 1.363 . S
N502 C504 1.356 . S
N502 H514 0.984 . S
N502 H515 0.985 . S
N503 C505 1.356 . S
N503 H508 0.984 . S
N503 H509 0.985 . S
C504 C498 1.379 1_455 S
C504 C501 1.363 . S
C504 N502 1.356 . S
C505 C499 1.363 . S
C505 C500 1.379 1_655 S
C505 N503 1.356 . S
N506 C498 1.356 . S
N506 H512 0.984 . S
N506 H513 0.984 . S
N507 C500 1.356 . S
N507 H510 0.984 . S
N507 H511 0.985 . S
H508 N503 0.984 . S
H509 N503 0.985 . S
H510 N507 0.984 . S
H511 N507 0.985 . S
H512 N506 0.984 . S
H513 N506 0.984 . S
H514 N502 0.984 . S
H515 N502 0.985 . S
C516 C517 1.363 . S
C516 C522 1.379 1_545 S
C516 N524 1.356 . S
C517 C516 1.363 . S
C517 C523 1.363 . S
C518 C519 1.363 . S
C518 C523 1.379 1_565 S
C518 N525 1.356 . S
C519 C518 1.363 . S
C519 C522 1.363 . S
N520 C522 1.356 . S
N520 H532 0.984 . S
N520 H533 0.985 . S
N521 C523 1.356 . S
N521 H526 0.984 . S
N521 H527 0.985 . S
C522 C516 1.379 1_565 S
C522 C519 1.363 . S
C522 N520 1.356 . S
C523 C517 1.363 . S
C523 C518 1.379 1_545 S
C523 N521 1.356 . S
N524 C516 1.356 . S
N524 H530 0.984 . S
N524 H531 0.984 . S
N525 C518 1.356 . S
N525 H528 0.984 . S
N525 H529 0.985 . S
H526 N521 0.984 . S
H527 N521 0.985 . S
H528 N525 0.984 . S
H529 N525 0.985 . S
H530 N524 0.984 . S
H531 N524 0.984 . S
H532 N520 0.984 . S
H533 N520 0.985 . S
C534 C535 1.363 . S
C534 C540 1.379 . S
C534 N542 1.356 . S
C535 C534 1.363 . S
C535 C541 1.363 . S
C536 C537 1.363 . S
C536 C541 1.379 . S
C536 N543 1.356 . S
C537 C536 1.363 . S
C537 C540 1.363 . S
N538 C540 1.356 . S
N538 H550 0.984 . S
N538 H551 0.985 . S
N539 C541 1.356 . S
N539 H544 0.984 . S
N539 H545 0.985 . S
C540 C534 1.379 . S
C540 C537 1.363 . S
C540 N538 1.356 . S
C541 C535 1.363 . S
C541 C536 1.379 . S
C541 N539 1.356 . S
N542 C534 1.356 . S
N542 H548 0.984 . S
N542 H549 0.984 . S
N543 C536 1.356 . S
N543 H546 0.984 . S
N543 H547 0.985 . S
H544 N539 0.984 . S
H545 N539 0.985 . S
H546 N543 0.984 . S
H547 N543 0.985 . S
H548 N542 0.984 . S
H549 N542 0.984 . S
H550 N538 0.984 . S
H551 N538 0.985 . S
C552 C553 1.363 . S
C552 C558 1.379 1_455 S
C552 N560 1.356 . S
C553 C552 1.363 . S
C553 C559 1.363 . S
C554 C555 1.363 . S
C554 C559 1.379 1_655 S
C554 N561 1.356 . S
C555 C554 1.363 . S
C555 C558 1.363 . S
N556 C558 1.356 . S
N556 H568 0.984 . S
N556 H569 0.985 . S
N557 C559 1.356 . S
N557 H562 0.984 . S
N557 H563 0.985 . S
C558 C552 1.379 1_655 S
C558 C555 1.363 . S
C558 N556 1.356 . S
C559 C553 1.363 . S
C559 C554 1.379 1_455 S
C559 N557 1.356 . S
N560 C552 1.356 . S
N560 H566 0.984 . S
N560 H567 0.984 . S
N561 C554 1.356 . S
N561 H564 0.984 . S
N561 H565 0.985 . S
H562 N557 0.984 . S
H563 N557 0.985 . S
H564 N561 0.984 . S
H565 N561 0.985 . S
H566 N560 0.984 . S
H567 N560 0.984 . S
H568 N556 0.984 . S
H569 N556 0.985 . S
C570 C571 1.363 . S
C570 C576 1.379 1_545 S
C570 N578 1.356 . S
C571 C570 1.363 . S
C571 C577 1.363 . S
C572 C573 1.363 . S
C572 C577 1.379 1_565 S
C572 N579 1.356 . S
C573 C572 1.363 . S
C573 C576 1.363 . S
N574 C576 1.356 . S
N574 H586 0.984 . S
N574 H587 0.985 . S
N575 C577 1.356 . S
N575 H580 0.984 . S
N575 H581 0.985 . S
C576 C570 1.379 1_565 S
C576 C573 1.363 . S
C576 N574 1.356 . S
C577 C571 1.363 . S
C577 C572 1.379 1_545 S
C577 N575 1.356 . S
N578 C570 1.356 . S
N578 H584 0.984 . S
N578 H585 0.984 . S
N579 C572 1.356 . S
N579 H582 0.984 . S
N579 H583 0.985 . S
H580 N575 0.984 . S
H581 N575 0.985 . S
H582 N579 0.984 . S
H583 N579 0.985 . S
H584 N578 0.984 . S
H585 N578 0.984 . S
H586 N574 0.984 . S
H587 N574 0.985 . S
C588 C589 1.363 . S
C588 C594 1.379 . S
C588 N596 1.356 . S
C589 C588 1.363 . S
C589 C595 1.363 . S
C590 C591 1.363 . S
C590 C595 1.379 . S
C590 N597 1.356 . S
C591 C590 1.363 . S
C591 C594 1.363 . S
N592 C594 1.356 . S
N592 H604 0.984 . S
N592 H605 0.985 . S
N593 C595 1.356 . S
N593 H598 0.984 . S
N593 H599 0.985 . S
C594 C588 1.379 . S
C594 C591 1.363 . S
C594 N592 1.356 . S
C595 C589 1.363 . S
C595 C590 1.379 . S
C595 N593 1.356 . S
N596 C588 1.356 . S
N596 H602 0.984 . S
N596 H603 0.984 . S
N597 C590 1.356 . S
N597 H600 0.984 . S
N597 H601 0.985 . S
H598 N593 0.984 . S
H599 N593 0.985 . S
H600 N597 0.984 . S
H601 N597 0.985 . S
H602 N596 0.984 . S
H603 N596 0.984 . S
H604 N592 0.984 . S
H605 N592 0.985 . S
C606 C607 1.363 . S
C606 C612 1.379 1_455 S
C606 N614 1.356 . S
C607 C606 1.363 . S
C607 C613 1.363 . S
C608 C609 1.363 . S
C608 C613 1.379 1_655 S
C608 N615 1.356 . S
C609 C608 1.363 . S
C609 C612 1.363 . S
N610 C612 1.356 . S
N610 H622 0.984 . S
N610 H623 0.985 . S
N611 C613 1.356 . S
N611 H616 0.984 . S
N611 H617 0.985 . S
C612 C606 1.379 1_655 S
C612 C609 1.363 . S
C612 N610 1.356 . S
C613 C607 1.363 . S
C613 C608 1.379 1_455 S
C613 N611 1.356 . S
N614 C606 1.356 . S
N614 H620 0.984 . S
N614 H621 0.984 . S
N615 C608 1.356 . S
N615 H618 0.984 . S
N615 H619 0.985 . S
H616 N611 0.984 . S
H617 N611 0.985 . S
H618 N615 0.984 . S
H619 N615 0.985 . S
H620 N614 0.984 . S
H621 N614 0.984 . S
H622 N610 0.984 . S
H623 N610 0.985 . S
C624 C625 1.363 1_546 S
C624 C630 1.379 . S
C624 N632 1.346 1_545 S
C625 C624 1.363 1_564 S
C625 C631 1.363 . S
C626 C627 1.363 1_565 S
C626 C631 1.379 . S
C626 N633 1.346 1_565 S
C627 C626 1.363 1_545 S
C627 C630 1.363 1_554 S
N628 C630 1.356 . S
N628 H640 0.984 . S
N628 H641 0.985 . S
N629 C631 1.356 . S
N629 H634 0.984 . S
N629 H635 0.985 . S
C630 C624 1.379 . S
C630 C627 1.363 1_556 S
C630 N628 1.356 . S
C631 C625 1.363 . S
C631 C626 1.379 . S
C631 N629 1.356 . S
N632 C624 1.346 1_565 S
N632 H638 0.976 1_565 S
N632 H639 1.003 . S
N633 C626 1.346 1_545 S
N633 H636 1.003 . S
N633 H637 0.976 1_545 S
H634 N629 0.984 . S
H635 N629 0.985 . S
H636 N633 1.003 . S
H637 N633 0.976 1_565 S
H638 N632 0.976 1_545 S
H639 N632 1.003 . S
H640 N628 0.984 . S
H641 N628 0.985 . S
C642 C643 1.363 1_556 S
C642 C648 1.379 . S
C642 N650 1.356 . S
C643 C642 1.363 1_554 S
C643 C649 1.363 . S
C644 C645 1.363 . S
C644 C649 1.379 . S
C644 N651 1.356 . S
C645 C644 1.363 . S
C645 C648 1.363 1_554 S
N646 C648 1.356 . S
N646 H658 0.984 . S
N646 H659 0.985 . S
N647 C649 1.356 . S
N647 H652 0.984 . S
N647 H653 0.985 . S
C648 C642 1.379 . S
C648 C645 1.363 1_556 S
C648 N646 1.356 . S
C649 C643 1.363 . S
C649 C644 1.379 . S
C649 N647 1.356 . S
N650 C642 1.356 . S
N650 H656 0.984 . S
N650 H657 0.984 . S
N651 C644 1.356 . S
N651 H654 0.984 . S
N651 H655 0.985 . S
H652 N647 0.984 . S
H653 N647 0.985 . S
H654 N651 0.984 . S
H655 N651 0.985 . S
H656 N650 0.984 . S
H657 N650 0.984 . S
H658 N646 0.984 . S
H659 N646 0.985 . S
C660 C661 1.363 1_656 S
C660 C666 1.379 . S
C660 N668 1.363 1_655 S
C661 C660 1.363 1_454 S
C661 C667 1.363 . S
C662 C663 1.363 1_455 S
C662 C667 1.379 . S
C662 N669 1.363 1_455 S
C663 C662 1.363 1_655 S
C663 C666 1.363 1_554 S
N664 C666 1.356 . S
N664 H676 0.984 . S
N664 H677 0.985 . S
N665 C667 1.356 . S
N665 H670 0.984 . S
N665 H671 0.985 . S
C666 C660 1.379 . S
C666 C663 1.363 1_556 S
C666 N664 1.356 . S
C667 C661 1.363 . S
C667 C662 1.379 . S
C667 N665 1.356 . S
N668 C660 1.363 1_455 S
N668 H674 0.973 1_455 S
N668 H675 0.990 . S
N669 C662 1.363 1_655 S
N669 H672 0.990 . S
N669 H673 0.973 1_655 S
H670 N665 0.984 . S
H671 N665 0.985 . S
H672 N669 0.990 . S
H673 N669 0.973 1_455 S
H674 N668 0.973 1_655 S
H675 N668 0.990 . S
H676 N664 0.984 . S
H677 N664 0.985 . S
C678 C679 1.363 . S
C678 C684 1.379 . S
C678 N686 1.356 . S
C679 C678 1.363 . S
C679 C685 1.363 1_655 S
C680 C681 1.363 . S
C680 C685 1.379 . S
C680 N687 1.356 . S
C681 C680 1.363 . S
C681 C684 1.363 1_455 S
N682 C684 1.346 1_455 S
N682 H694 0.976 1_455 S
N682 H695 1.003 . S
N683 C685 1.346 1_655 S
N683 H688 1.003 . S
N683 H689 0.976 1_655 S
C684 C678 1.379 . S
C684 C681 1.363 1_655 S
C684 N682 1.346 1_655 S
C685 C679 1.363 1_455 S
C685 C680 1.379 . S
C685 N683 1.346 1_455 S
N686 C678 1.356 . S
N686 H692 0.984 . S
N686 H693 0.984 . S
N687 C680 1.356 . S
N687 H690 0.984 . S
N687 H691 0.985 . S
H688 N683 1.003 . S
H689 N683 0.976 1_455 S
H690 N687 0.984 . S
H691 N687 0.985 . S
H692 N686 0.984 . S
H693 N686 0.984 . S
H694 N682 0.976 1_655 S
H695 N682 1.003 . S
C696 C697 1.363 . S
C696 C702 1.379 . S
C696 N704 1.356 . S
C697 C696 1.363 . S
C697 C703 1.363 1_565 S
C698 C699 1.363 . S
C698 C703 1.379 . S
C698 N705 1.356 . S
C699 C698 1.363 . S
C699 C702 1.363 1_545 S
N700 C702 1.363 1_545 S
N700 H712 0.973 1_545 S
N700 H713 0.990 . S
N701 C703 1.363 1_565 S
N701 H706 0.990 . S
N701 H707 0.973 1_565 S
C702 C696 1.379 . S
C702 C699 1.363 1_565 S
C702 N700 1.363 1_565 S
C703 C697 1.363 1_545 S
C703 C698 1.379 . S
C703 N701 1.363 1_545 S
N704 C696 1.356 . S
N704 H710 0.984 . S
N704 H711 0.984 . S
N705 C698 1.356 . S
N705 H708 0.984 . S
N705 H709 0.985 . S
H706 N701 0.990 . S
H707 N701 0.973 1_545 S
H708 N705 0.984 . S
H709 N705 0.985 . S
H710 N704 0.984 . S
H711 N704 0.984 . S
H712 N700 0.973 1_565 S
H713 N700 0.990 . S
C714 C715 1.363 . S
C714 C720 1.379 . S
C714 N722 1.356 . S
C715 C714 1.363 . S
C715 C721 1.363 . S
C716 C717 1.363 . S
C716 C721 1.379 . S
C716 N723 1.356 . S
C717 C716 1.363 . S
C717 C720 1.363 . S
N718 C720 1.356 . S
N718 H730 0.984 . S
N718 H731 0.985 . S
N719 C721 1.356 . S
N719 H724 0.984 . S
N719 H725 0.985 . S
C720 C714 1.379 . S
C720 C717 1.363 . S
C720 N718 1.356 . S
C721 C715 1.363 . S
C721 C716 1.379 . S
C721 N719 1.356 . S
N722 C714 1.356 . S
N722 H728 0.984 . S
N722 H729 0.984 . S
N723 C716 1.356 . S
N723 H726 0.984 . S
N723 H727 0.985 . S
H724 N719 0.984 . S
H725 N719 0.985 . S
H726 N723 0.984 . S
H727 N723 0.985 . S
H728 N722 0.984 . S
H729 N722 0.984 . S
H730 N718 0.984 . S
H731 N718 0.985 . S
C732 C733 1.363 . S
C732 C738 1.379 . S
C732 N740 1.356 . S
C733 C732 1.363 . S
C733 C739 1.363 . S
C734 C735 1.363 . S
C734 C739 1.379 . S
C734 N741 1.356 . S
C735 C734 1.363 . S
C735 C738 1.363 . S
N736 C738 1.356 . S
N736 H748 0.984 . S
N736 H749 0.985 . S
N737 C739 1.356 . S
N737 H742 0.984 . S
N737 H743 0.985 . S
C738 C732 1.379 . S
C738 C735 1.363 . S
C738 N736 1.356 . S
C739 C733 1.363 . S
C739 C734 1.379 . S
C739 N737 1.356 . S
N740 C732 1.356 . S
N740 H746 0.984 . S
N740 H747 0.984 . S
N741 C734 1.356 . S
N741 H744 0.984 . S
N741 H745 0.985 . S
H742 N737 0.984 . S
H743 N737 0.985 . S
H744 N741 0.984 . S
H745 N741 0.985 . S
H746 N740 0.984 . S
H747 N740 0.984 . S
H748 N736 0.984 . S
H749 N736 0.985 . S
C750 C751 1.363 . S
C750 C756 1.379 . S
C750 N758 1.356 . S
C751 C750 1.363 . S
C751 C757 1.363 . S
C752 C753 1.363 . S
C752 C757 1.379 . S
C752 N759 1.356 . S
C753 C752 1.363 . S
C753 C756 1.363 . S
N754 C756 1.356 . S
N754 H766 0.984 . S
N754 H767 0.985 . S
N755 C757 1.356 . S
N755 H760 0.984 . S
N755 H761 0.985 . S
C756 C750 1.379 . S
C756 C753 1.363 . S
C756 N754 1.356 . S
C757 C751 1.363 . S
C757 C752 1.379 . S
C757 N755 1.356 . S
N758 C750 1.356 . S
N758 H764 0.984 . S
N758 H765 0.984 . S
N759 C752 1.356 . S
N759 H762 0.984 . S
N759 H763 0.985 . S
H760 N755 0.984 . S
H761 N755 0.985 . S
H762 N759 0.984 . S
H763 N759 0.985 . S
H764 N758 0.984 . S
H765 N758 0.984 . S
H766 N754 0.984 . S
H767 N754 0.985 . S
C768 C769 1.363 . S
C768 C774 1.379 . S
C768 N776 1.356 . S
C769 C768 1.363 . S
C769 C775 1.363 . S
C770 C771 1.363 . S
C770 C775 1.379 . S
C770 N777 1.356 . S
C771 C770 1.363 . S
C771 C774 1.363 . S
N772 C774 1.356 . S
N772 H784 0.984 . S
N772 H785 0.985 . S
N773 C775 1.356 . S
N773 H778 0.984 . S
N773 H779 0.985 . S
C774 C768 1.379 . S
C774 C771 1.363 . S
C774 N772 1.356 . S
C775 C769 1.363 . S
C775 C770 1.379 . S
C775 N773 1.356 . S
N776 C768 1.356 . S
N776 H782 0.984 . S
N776 H783 0.984 . S
N777 C770 1.356 . S
N777 H780 0.984 . S
N777 H781 0.985 . S
H778 N773 0.984 . S
H779 N773 0.985 . S
H780 N777 0.984 . S
H781 N777 0.985 . S
H782 N776 0.984 . S
H783 N776 0.984 . S
H784 N772 0.984 . S
H785 N772 0.985 . S
C786 C787 1.363 . S
C786 C792 1.379 . S
C786 N794 1.356 . S
C787 C786 1.363 . S
C787 C793 1.363 . S
C788 C789 1.363 . S
C788 C793 1.379 . S
C788 N795 1.356 . S
C789 C788 1.363 . S
C789 C792 1.363 . S
N790 C792 1.356 . S
N790 H802 0.984 . S
N790 H803 0.985 . S
N791 C793 1.356 . S
N791 H796 0.984 . S
N791 H797 0.985 . S
C792 C786 1.379 . S
C792 C789 1.363 . S
C792 N790 1.356 . S
C793 C787 1.363 . S
C793 C788 1.379 . S
C793 N791 1.356 . S
N794 C786 1.356 . S
N794 H800 0.984 . S
N794 H801 0.984 . S
N795 C788 1.356 . S
N795 H798 0.984 . S
N795 H799 0.985 . S
H796 N791 0.984 . S
H797 N791 0.985 . S
H798 N795 0.984 . S
H799 N795 0.985 . S
H800 N794 0.984 . S
H801 N794 0.984 . S
H802 N790 0.984 . S
H803 N790 0.985 . S
C804 C805 1.363 . S
C804 C810 1.379 . S
C804 N812 1.356 . S
C805 C804 1.363 . S
C805 C811 1.363 . S
C806 C807 1.363 . S
C806 C811 1.379 . S
C806 N813 1.356 . S
C807 C806 1.363 . S
C807 C810 1.363 . S
N808 C810 1.356 . S
N808 H820 0.984 . S
N808 H821 0.985 . S
N809 C811 1.356 . S
N809 H814 0.984 . S
N809 H815 0.985 . S
C810 C804 1.379 . S
C810 C807 1.363 . S
C810 N808 1.356 . S
C811 C805 1.363 . S
C811 C806 1.379 . S
C811 N809 1.356 . S
N812 C804 1.356 . S
N812 H818 0.984 . S
N812 H819 0.984 . S
N813 C806 1.356 . S
N813 H816 0.984 . S
N813 H817 0.985 . S
H814 N809 0.984 . S
H815 N809 0.985 . S
H816 N813 0.984 . S
H817 N813 0.985 . S
H818 N812 0.984 . S
H819 N812 0.984 . S
H820 N808 0.984 . S
H821 N808 0.985 . S
C822 C823 1.363 . S
C822 C828 1.379 . S
C822 N830 1.356 . S
C823 C822 1.363 . S
C823 C829 1.363 . S
C824 C825 1.363 . S
C824 C829 1.379 . S
C824 N831 1.356 . S
C825 C824 1.363 . S
C825 C828 1.363 . S
N826 C828 1.356 . S
N826 H838 0.984 . S
N826 H839 0.985 . S
N827 C829 1.356 . S
N827 H832 0.984 . S
N827 H833 0.985 . S
C828 C822 1.379 . S
C828 C825 1.363 . S
C828 N826 1.356 . S
C829 C823 1.363 . S
C829 C824 1.379 . S
C829 N827 1.356 . S
N830 C822 1.356 . S
N830 H836 0.984 . S
N830 H837 0.984 . S
N831 C824 1.356 . S
N831 H834 0.984 . S
N831 H835 0.985 . S
H832 N827 0.984 . S
H833 N827 0.985 . S
H834 N831 0.984 . S
H835 N831 0.985 . S
H836 N830 0.984 . S
H837 N830 0.984 . S
H838 N826 0.984 . S
H839 N826 0.985 . S
C840 C841 1.363 . S
C840 C846 1.379 . S
C840 N848 1.356 . S
C841 C840 1.363 . S
C841 C847 1.363 . S
C842 C843 1.363 . S
C842 C847 1.379 . S
C842 N849 1.356 . S
C843 C842 1.363 . S
C843 C846 1.363 . S
N844 C846 1.356 . S
N844 H856 0.984 . S
N844 H857 0.985 . S
N845 C847 1.356 . S
N845 H850 0.984 . S
N845 H851 0.985 . S
C846 C840 1.379 . S
C846 C843 1.363 . S
C846 N844 1.356 . S
C847 C841 1.363 . S
C847 C842 1.379 . S
C847 N845 1.356 . S
N848 C840 1.356 . S
N848 H854 0.984 . S
N848 H855 0.984 . S
N849 C842 1.356 . S
N849 H852 0.984 . S
N849 H853 0.985 . S
H850 N845 0.984 . S
H851 N845 0.985 . S
H852 N849 0.984 . S
H853 N849 0.985 . S
H854 N848 0.984 . S
H855 N848 0.984 . S
H856 N844 0.984 . S
H857 N844 0.985 . S
C858 C859 1.363 . S
C858 C864 1.379 . S
C858 N866 1.356 . S
C859 C858 1.363 . S
C859 C865 1.363 . S
C860 C861 1.363 . S
C860 C865 1.379 . S
C860 N867 1.356 . S
C861 C860 1.363 . S
C861 C864 1.363 . S
N862 C864 1.356 . S
N862 H874 0.984 . S
N862 H875 0.985 . S
N863 C865 1.356 . S
N863 H868 0.984 . S
N863 H869 0.985 . S
C864 C858 1.379 . S
C864 C861 1.363 . S
C864 N862 1.356 . S
C865 C859 1.363 . S
C865 C860 1.379 . S
C865 N863 1.356 . S
N866 C858 1.356 . S
N866 H872 0.984 . S
N866 H873 0.984 . S
N867 C860 1.356 . S
N867 H870 0.984 . S
N867 H871 0.985 . S
H868 N863 0.984 . S
H869 N863 0.985 . S
H870 N867 0.984 . S
H871 N867 0.985 . S
H872 N866 0.984 . S
H873 N866 0.984 . S
H874 N862 0.984 . S
H875 N862 0.985 . S
C876 C877 1.363 . S
C876 C882 1.379 . S
C876 N884 1.356 . S
C877 C876 1.363 . S
C877 C883 1.363 . S
C878 C879 1.363 . S
C878 C883 1.379 . S
C878 N885 1.356 . S
C879 C878 1.363 . S
C879 C882 1.363 . S
N880 C882 1.356 . S
N880 H892 0.984 . S
N880 H893 0.985 . S
N881 C883 1.356 . S
N881 H886 0.984 . S
N881 H887 0.985 . S
C882 C876 1.379 . S
C882 C879 1.363 . S
C882 N880 1.356 . S
C883 C877 1.363 . S
C883 C878 1.379 . S
C883 N881 1.356 . S
N884 C876 1.356 . S
N884 H890 0.984 . S
N884 H891 0.984 . S
N885 C878 1.356 . S
N885 H888 0.984 . S
N885 H889 0.985 . S
H886 N881 0.984 . S
H887 N881 0.985 . S
H888 N885 0.984 . S
H889 N885 0.985 . S
H890 N884 0.984 . S
H891 N884 0.984 . S
H892 N880 0.984 . S
H893 N880 0.985 . S
C894 C895 1.363 . S
C894 C900 1.379 . S
C894 N902 1.356 . S
C895 C894 1.363 . S
C895 C901 1.363 . S
C896 C897 1.363 . S
C896 C901 1.379 . S
C896 N903 1.356 . S
C897 C896 1.363 . S
C897 C900 1.363 . S
N898 C900 1.356 . S
N898 H910 0.984 . S
N898 H911 0.985 . S
N899 C901 1.356 . S
N899 H904 0.984 . S
N899 H905 0.985 . S
C900 C894 1.379 . S
C900 C897 1.363 . S
C900 N898 1.356 . S
C901 C895 1.363 . S
C901 C896 1.379 . S
C901 N899 1.356 . S
N902 C894 1.356 . S
N902 H908 0.984 . S
N902 H909 0.984 . S
N903 C896 1.356 . S
N903 H906 0.984 . S
N903 H907 0.985 . S
H904 N899 0.984 . S
H905 N899 0.985 . S
H906 N903 0.984 . S
H907 N903 0.985 . S
H908 N902 0.984 . S
H909 N902 0.984 . S
H910 N898 0.984 . S
H911 N898 0.985 . S
C912 C913 1.363 . S
C912 C918 1.379 . S
C912 N920 1.356 . S
C913 C912 1.363 . S
C913 C919 1.363 . S
C914 C915 1.363 . S
C914 C919 1.379 . S
C914 N921 1.356 . S
C915 C914 1.363 . S
C915 C918 1.363 . S
N916 C918 1.356 . S
N916 H928 0.984 . S
N916 H929 0.985 . S
N917 C919 1.356 . S
N917 H922 0.984 . S
N917 H923 0.985 . S
C918 C912 1.379 . S
C918 C915 1.363 . S
C918 N916 1.356 . S
C919 C913 1.363 . S
C919 C914 1.379 . S
C919 N917 1.356 . S
N920 C912 1.356 . S
N920 H926 0.984 . S
N920 H927 0.984 . S
N921 C914 1.356 . S
N921 H924 0.984 . S
N921 H925 0.985 . S
H922 N917 0.984 . S
H923 N917 0.985 . S
H924 N921 0.984 . S
H925 N921 0.985 . S
H926 N920 0.984 . S
H927 N920 0.984 . S
H928 N916 0.984 . S
H929 N916 0.985 . S
C930 C931 1.363 . S
C930 C936 1.379 . S
C930 N938 1.356 . S
C931 C930 1.363 . S
C931 C937 1.363 . S
C932 C933 1.363 . S
C932 C937 1.379 . S
C932 N939 1.356 . S
C933 C932 1.363 . S
C933 C936 1.363 . S
N934 C936 1.356 . S
N934 H946 0.984 . S
N934 H947 0.985 . S
N935 C937 1.356 . S
N935 H940 0.984 . S
N935 H941 0.985 . S
C936 C930 1.379 . S
C936 C933 1.363 . S
C936 N934 1.356 . S
C937 C931 1.363 . S
C937 C932 1.379 . S
C937 N935 1.356 . S
N938 C930 1.356 . S
N938 H944 0.984 . S
N938 H945 0.984 . S
N939 C932 1.356 . S
N939 H942 0.984 . S
N939 H943 0.985 . S
H940 N935 0.984 . S
H941 N935 0.985 . S
H942 N939 0.984 . S
H943 N939 0.985 . S
H944 N938 0.984 . S
H945 N938 0.984 . S
H946 N934 0.984 . S
H947 N934 0.985 . S
C948 C949 1.363 . S
C948 C954 1.379 . S
C948 N956 1.356 . S
C949 C948 1.363 . S
C949 C955 1.363 . S
C950 C951 1.363 . S
C950 C955 1.379 . S
C950 N957 1.356 . S
C951 C950 1.363 . S
C951 C954 1.363 . S
N952 C954 1.356 . S
N952 H964 0.984 . S
N952 H965 0.985 . S
N953 C955 1.356 . S
N953 H958 0.984 . S
N953 H959 0.985 . S
C954 C948 1.379 . S
C954 C951 1.363 . S
C954 N952 1.356 . S
C955 C949 1.363 . S
C955 C950 1.379 . S
C955 N953 1.356 . S
N956 C948 1.356 . S
N956 H962 0.984 . S
N956 H963 0.984 . S
N957 C950 1.356 . S
N957 H960 0.984 . S
N957 H961 0.985 . S
H958 N953 0.984 . S
H959 N953 0.985 . S
H960 N957 0.984 . S
H961 N957 0.985 . S
H962 N956 0.984 . S
H963 N956 0.984 . S
H964 N952 0.984 . S
H965 N952 0.985 . S
C966 C967 1.363 . S
C966 C972 1.379 . S
C966 N974 1.356 . S
C967 C966 1.363 . S
C967 C973 1.363 . S
C968 C969 1.363 . S
C968 C973 1.379 . S
C968 N975 1.356 . S
C969 C968 1.363 . S
C969 C972 1.363 . S
N970 C972 1.356 . S
N970 H982 0.984 . S
N970 H983 0.985 . S
N971 C973 1.356 . S
N971 H976 0.984 . S
N971 H977 0.985 . S
C972 C966 1.379 . S
C972 C969 1.363 . S
C972 N970 1.356 . S
C973 C967 1.363 . S
C973 C968 1.379 . S
C973 N971 1.356 . S
N974 C966 1.356 . S
N974 H980 0.984 . S
N974 H981 0.984 . S
N975 C968 1.356 . S
N975 H978 0.984 . S
N975 H979 0.985 . S
H976 N971 0.984 . S
H977 N971 0.985 . S
H978 N975 0.984 . S
H979 N975 0.985 . S
H980 N974 0.984 . S
H981 N974 0.984 . S
H982 N970 0.984 . S
H983 N970 0.985 . S
C984 C985 1.363 . S
C984 C990 1.379 . S
C984 N992 1.356 . S
C985 C984 1.363 . S
C985 C991 1.363 . S
C986 C987 1.363 . S
C986 C991 1.379 . S
C986 N993 1.356 . S
C987 C986 1.363 . S
C987 C990 1.363 . S
N988 C990 1.356 . S
N988 H1000 0.984 . S
N988 H1001 0.985 . S
N989 C991 1.356 . S
N989 H994 0.984 . S
N989 H995 0.985 . S
C990 C984 1.379 . S
C990 C987 1.363 . S
C990 N988 1.356 . S
C991 C985 1.363 . S
C991 C986 1.379 . S
C991 N989 1.356 . S
N992 C984 1.356 . S
N992 H998 0.984 . S
N992 H999 0.984 . S
N993 C986 1.356 . S
N993 H996 0.984 . S
N993 H997 0.985 . S
H994 N989 0.984 . S
H995 N989 0.985 . S
H996 N993 0.984 . S
H997 N993 0.985 . S
H998 N992 0.984 . S
H999 N992 0.984 . S
H1000 N988 0.984 . S
H1001 N988 0.985 . S
C1002 C1003 1.363 . S
C1002 C1008 1.379 . S
C1002 N1010 1.356 . S
C1003 C1002 1.363 . S
C1003 C1009 1.363 . S
C1004 C1005 1.363 . S
C1004 C1009 1.379 . S
C1004 N1011 1.356 . S
C1005 C1004 1.363 . S
C1005 C1008 1.363 . S
N1006 C1008 1.356 . S
N1006 H1018 0.984 . S
N1006 H1019 0.985 . S
N1007 C1009 1.356 . S
N1007 H1012 0.984 . S
N1007 H1013 0.985 . S
C1008 C1002 1.379 . S
C1008 C1005 1.363 . S
C1008 N1006 1.356 . S
C1009 C1003 1.363 . S
C1009 C1004 1.379 . S
C1009 N1007 1.356 . S
N1010 C1002 1.356 . S
N1010 H1016 0.984 . S
N1010 H1017 0.984 . S
N1011 C1004 1.356 . S
N1011 H1014 0.984 . S
N1011 H1015 0.985 . S
H1012 N1007 0.984 . S
H1013 N1007 0.985 . S
H1014 N1011 0.984 . S
H1015 N1011 0.985 . S
H1016 N1010 0.984 . S
H1017 N1010 0.984 . S
H1018 N1006 0.984 . S
H1019 N1006 0.985 . S
C1020 C1021 1.363 . S
C1020 C1026 1.379 . S
C1020 N1028 1.356 . S
C1021 C1020 1.363 . S
C1021 C1027 1.363 . S
C1022 C1023 1.363 . S
C1022 C1027 1.379 . S
C1022 N1029 1.356 . S
C1023 C1022 1.363 . S
C1023 C1026 1.363 . S
N1024 C1026 1.356 . S
N1024 H1036 0.984 . S
N1024 H1037 0.985 . S
N1025 C1027 1.356 . S
N1025 H1030 0.984 . S
N1025 H1031 0.985 . S
C1026 C1020 1.379 . S
C1026 C1023 1.363 . S
C1026 N1024 1.356 . S
C1027 C1021 1.363 . S
C1027 C1022 1.379 . S
C1027 N1025 1.356 . S
N1028 C1020 1.356 . S
N1028 H1034 0.984 . S
N1028 H1035 0.984 . S
N1029 C1022 1.356 . S
N1029 H1032 0.984 . S
N1029 H1033 0.985 . S
H1030 N1025 0.984 . S
H1031 N1025 0.985 . S
H1032 N1029 0.984 . S
H1033 N1029 0.985 . S
H1034 N1028 0.984 . S
H1035 N1028 0.984 . S
H1036 N1024 0.984 . S
H1037 N1024 0.985 . S
C1038 C1039 1.363 . S
C1038 C1044 1.379 . S
C1038 N1046 1.356 . S
C1039 C1038 1.363 . S
C1039 C1045 1.363 . S
C1040 C1041 1.363 . S
C1040 C1045 1.379 . S
C1040 N1047 1.356 . S
C1041 C1040 1.363 . S
C1041 C1044 1.363 . S
N1042 C1044 1.356 . S
N1042 H1054 0.984 . S
N1042 H1055 0.985 . S
N1043 C1045 1.356 . S
N1043 H1048 0.984 . S
N1043 H1049 0.985 . S
C1044 C1038 1.379 . S
C1044 C1041 1.363 . S
C1044 N1042 1.356 . S
C1045 C1039 1.363 . S
C1045 C1040 1.379 . S
C1045 N1043 1.356 . S
N1046 C1038 1.356 . S
N1046 H1052 0.984 . S
N1046 H1053 0.984 . S
N1047 C1040 1.356 . S
N1047 H1050 0.984 . S
N1047 H1051 0.985 . S
H1048 N1043 0.984 . S
H1049 N1043 0.985 . S
H1050 N1047 0.984 . S
H1051 N1047 0.985 . S
H1052 N1046 0.984 . S
H1053 N1046 0.984 . S
H1054 N1042 0.984 . S
H1055 N1042 0.985 . S
C1056 C1057 1.363 . S
C1056 C1062 1.379 . S
C1056 N1064 1.356 . S
C1057 C1056 1.363 . S
C1057 C1063 1.363 . S
C1058 C1059 1.363 . S
C1058 C1063 1.379 . S
C1058 N1065 1.356 . S
C1059 C1058 1.363 . S
C1059 C1062 1.363 . S
N1060 C1062 1.356 . S
N1060 H1072 0.984 . S
N1060 H1073 0.985 . S
N1061 C1063 1.356 . S
N1061 H1066 0.984 . S
N1061 H1067 0.985 . S
C1062 C1056 1.379 . S
C1062 C1059 1.363 . S
C1062 N1060 1.356 . S
C1063 C1057 1.363 . S
C1063 C1058 1.379 . S
C1063 N1061 1.356 . S
N1064 C1056 1.356 . S
N1064 H1070 0.984 . S
N1064 H1071 0.984 . S
N1065 C1058 1.356 . S
N1065 H1068 0.984 . S
N1065 H1069 0.985 . S
H1066 N1061 0.984 . S
H1067 N1061 0.985 . S
H1068 N1065 0.984 . S
H1069 N1065 0.985 . S
H1070 N1064 0.984 . S
H1071 N1064 0.984 . S
H1072 N1060 0.984 . S
H1073 N1060 0.985 . S
C1074 C1075 1.363 . S
C1074 C1080 1.379 . S
C1074 N1082 1.356 . S
C1075 C1074 1.363 . S
C1075 C1081 1.363 . S
C1076 C1077 1.363 . S
C1076 C1081 1.379 . S
C1076 N1083 1.356 . S
C1077 C1076 1.363 . S
C1077 C1080 1.363 . S
N1078 C1080 1.356 . S
N1078 H1090 0.984 . S
N1078 H1091 0.985 . S
N1079 C1081 1.356 . S
N1079 H1084 0.984 . S
N1079 H1085 0.985 . S
C1080 C1074 1.379 . S
C1080 C1077 1.363 . S
C1080 N1078 1.356 . S
C1081 C1075 1.363 . S
C1081 C1076 1.379 . S
C1081 N1079 1.356 . S
N1082 C1074 1.356 . S
N1082 H1088 0.984 . S
N1082 H1089 0.984 . S
N1083 C1076 1.356 . S
N1083 H1086 0.984 . S
N1083 H1087 0.985 . S
H1084 N1079 0.984 . S
H1085 N1079 0.985 . S
H1086 N1083 0.984 . S
H1087 N1083 0.985 . S
H1088 N1082 0.984 . S
H1089 N1082 0.984 . S
H1090 N1078 0.984 . S
H1091 N1078 0.985 . S
C1092 C1093 1.363 . S
C1092 C1098 1.379 . S
C1092 N1100 1.356 . S
C1093 C1092 1.363 . S
C1093 C1099 1.363 . S
C1094 C1095 1.363 . S
C1094 C1099 1.379 . S
C1094 N1101 1.356 . S
C1095 C1094 1.363 . S
C1095 C1098 1.363 . S
N1096 C1098 1.356 . S
N1096 H1108 0.984 . S
N1096 H1109 0.985 . S
N1097 C1099 1.356 . S
N1097 H1102 0.984 . S
N1097 H1103 0.985 . S
C1098 C1092 1.379 . S
C1098 C1095 1.363 . S
C1098 N1096 1.356 . S
C1099 C1093 1.363 . S
C1099 C1094 1.379 . S
C1099 N1097 1.356 . S
N1100 C1092 1.356 . S
N1100 H1106 0.984 . S
N1100 H1107 0.984 . S
N1101 C1094 1.356 . S
N1101 H1104 0.984 . S
N1101 H1105 0.985 . S
H1102 N1097 0.984 . S
H1103 N1097 0.985 . S
H1104 N1101 0.984 . S
H1105 N1101 0.985 . S
H1106 N1100 0.984 . S
H1107 N1100 0.984 . S
H1108 N1096 0.984 . S
H1109 N1096 0.985 . S
C1110 C1111 1.363 . S
C1110 C1116 1.379 . S
C1110 N1118 1.356 . S
C1111 C1110 1.363 . S
C1111 C1117 1.363 . S
C1112 C1113 1.363 . S
C1112 C1117 1.379 . S
C1112 N1119 1.356 . S
C1113 C1112 1.363 . S
C1113 C1116 1.363 . S
N1114 C1116 1.356 . S
N1114 H1126 0.984 . S
N1114 H1127 0.985 . S
N1115 C1117 1.356 . S
N1115 H1120 0.984 . S
N1115 H1121 0.985 . S
C1116 C1110 1.379 . S
C1116 C1113 1.363 . S
C1116 N1114 1.356 . S
C1117 C1111 1.363 . S
C1117 C1112 1.379 . S
C1117 N1115 1.356 . S
N1118 C1110 1.356 . S
N1118 H1124 0.984 . S
N1118 H1125 0.984 . S
N1119 C1112 1.356 . S
N1119 H1122 0.984 . S
N1119 H1123 0.985 . S
H1120 N1115 0.984 . S
H1121 N1115 0.985 . S
H1122 N1119 0.984 . S
H1123 N1119 0.985 . S
H1124 N1118 0.984 . S
H1125 N1118 0.984 . S
H1126 N1114 0.984 . S
H1127 N1114 0.985 . S
C1128 C1129 1.363 . S
C1128 C1134 1.379 . S
C1128 N1136 1.356 . S
C1129 C1128 1.363 . S
C1129 C1135 1.363 . S
C1130 C1131 1.363 . S
C1130 C1135 1.379 . S
C1130 N1137 1.356 . S
C1131 C1130 1.363 . S
C1131 C1134 1.363 . S
N1132 C1134 1.356 . S
N1132 H1144 0.984 . S
N1132 H1145 0.985 . S
N1133 C1135 1.356 . S
N1133 H1138 0.984 . S
N1133 H1139 0.985 . S
C1134 C1128 1.379 . S
C1134 C1131 1.363 . S
C1134 N1132 1.356 . S
C1135 C1129 1.363 . S
C1135 C1130 1.379 . S
C1135 N1133 1.356 . S
N1136 C1128 1.356 . S
N1136 H1142 0.984 . S
N1136 H1143 0.984 . S
N1137 C1130 1.356 . S
N1137 H1140 0.984 . S
N1137 H1141 0.985 . S
H1138 N1133 0.984 . S
H1139 N1133 0.985 . S
H1140 N1137 0.984 . S
H1141 N1137 0.985 . S
H1142 N1136 0.984 . S
H1143 N1136 0.984 . S
H1144 N1132 0.984 . S
H1145 N1132 0.985 . S
C1146 C1147 1.363 . S
C1146 C1152 1.379 . S
C1146 N1154 1.356 . S
C1147 C1146 1.363 . S
C1147 C1153 1.363 . S
C1148 C1149 1.363 . S
C1148 C1153 1.379 . S
C1148 N1155 1.356 . S
C1149 C1148 1.363 . S
C1149 C1152 1.363 . S
N1150 C1152 1.356 . S
N1150 H1162 0.984 . S
N1150 H1163 0.985 . S
N1151 C1153 1.356 . S
N1151 H1156 0.984 . S
N1151 H1157 0.985 . S
C1152 C1146 1.379 . S
C1152 C1149 1.363 . S
C1152 N1150 1.356 . S
C1153 C1147 1.363 . S
C1153 C1148 1.379 . S
C1153 N1151 1.356 . S
N1154 C1146 1.356 . S
N1154 H1160 0.984 . S
N1154 H1161 0.984 . S
N1155 C1148 1.356 . S
N1155 H1158 0.984 . S
N1155 H1159 0.985 . S
H1156 N1151 0.984 . S
H1157 N1151 0.985 . S
H1158 N1155 0.984 . S
H1159 N1155 0.985 . S
H1160 N1154 0.984 . S
H1161 N1154 0.984 . S
H1162 N1150 0.984 . S
H1163 N1150 0.985 . S
C409 C6 1.258 . S
C411 C266 1.257 . S
C427 C40 1.258 . S
C429 C278 1.257 . S
C445 C334 1.258 . S
C447 C74 1.257 . S
C463 C130 1.258 . S
C465 C346 1.257 . S
C481 C142 1.258 . S
C483 C402 1.257 . S
C499 C232 1.258 . S
C501 C198 1.257 . S
C517 C355 0.671 . S
C519 C124 0.673 . S
C535 C151 0.671 . S
C537 C396 0.673 . S
C553 C192 0.671 . S
C555 C226 0.673 . S
C571 C15 0.671 . S
C573 C260 0.673 . S
C589 C287 0.671 . S
C591 C49 0.673 . S
C607 C328 0.671 . S
C609 C83 0.673 . S
C625 C119 1.647 . S
C627 C17 1.647 . S
C643 C51 1.647 . S
C645 C153 1.647 . S
C661 C187 1.647 . S
C663 C85 1.647 . S
C679 C221 1.647 . S
C681 C323 1.647 . S
C697 C255 1.647 . S
C699 C357 1.647 . S
C715 C391 1.647 . S
C717 C289 1.647 . S
C733 C22 0.662 . S
C735 C362 0.660 . S
C751 C56 0.662 . S
C753 C389 0.660 . S
C769 C90 0.662 . S
C771 C219 0.660 . S
C787 C253 0.662 . S
C789 C117 0.660 . S
C805 C294 0.662 . S
C807 C158 0.660 . S
C823 C185 0.662 . S
C825 C321 0.660 . S
C841 C244 1.258 . S
C843 C108 1.259 . S
C859 C300 1.258 . S
C861 C164 1.259 . S
C877 C312 1.258 . S
C879 C176 1.259 . S
C895 C368 1.258 . S
C897 C28 1.259 . S
C913 C380 1.258 . S
C915 C62 1.259 . S
C931 C96 1.258 . S
C933 C210 1.259 . S
C949 C1 3.063 . S
C951 C273 3.061 . S
C967 C309 3.063 . S
C969 C35 3.061 . S
C985 C341 3.063 . S
C987 C69 3.061 . S
C1003 C105 3.063 . S
C1005 C377 3.061 . S
C1021 C207 3.063 . S
C1023 C137 3.061 . S
C1039 C173 3.063 . S
C1041 C241 3.061 . S
C1057 C375 3.048 . S
C1059 C103 3.051 . S
C1075 C205 3.048 . S
C1077 C139 3.051 . S
C1093 C239 3.049 . S
C1095 C171 3.051 . S
C1111 C275 3.048 . S
C1113 C3 3.051 . S
C1129 C307 3.048 . S
C1131 C37 3.051 . S
C1147 C343 3.049 . S
C1149 C71 3.051 . S
