# Generated by pormake.
# Topology wiu, (6)-cn, num edge types: 1
# Building blocks:
#     Node 0, Type 0, BuildingBlock: BETFAJ_clean_sbu_0, # of connection points: 6
#     Node 1, Type 0, BuildingBlock: BETFAJ_clean_sbu_0, # of connection points: 6
#     Node 2, Type 0, BuildingBlock: BETFAJ_clean_sbu_0, # of connection points: 6
#     Node 3, Type 0, BuildingBlock: BETFAJ_clean_sbu_0, # of connection points: 6
#     Node 4, Type 0, BuildingBlock: BETFAJ_clean_sbu_0, # of connection points: 6
#     Node 5, Type 0, BuildingBlock: BETFAJ_clean_sbu_0, # of connection points: 6
#     Node 6, Type 0, BuildingBlock: BETFAJ_clean_sbu_0, # of connection points: 6
#     Node 7, Type 0, BuildingBlock: BETFAJ_clean_sbu_0, # of connection points: 6
#     Node 8, Type 0, BuildingBlock: BETFAJ_clean_sbu_0, # of connection points: 6
#     Node 9, Type 0, BuildingBlock: BETFAJ_clean_sbu_0, # of connection points: 6
#     Node 10, Type 0, BuildingBlock: BETFAJ_clean_sbu_0, # of connection points: 6
#     Node 11, Type 0, BuildingBlock: BETFAJ_clean_sbu_0, # of connection points: 6
#     Node 12, Type 0, BuildingBlock: BETFAJ_clean_sbu_0, # of connection points: 6
#     Node 13, Type 0, BuildingBlock: BETFAJ_clean_sbu_0, # of connection points: 6
#     Node 14, Type 0, BuildingBlock: BETFAJ_clean_sbu_0, # of connection points: 6
#     Node 15, Type 0, BuildingBlock: BETFAJ_clean_sbu_0, # of connection points: 6
#     Edge 16, Type (0, 0), BuildingBlock: XIVTED_clean_linker_0, # of connection points: 2
#     Edge 17, Type (0, 0), BuildingBlock: XIVTED_clean_linker_0, # of connection points: 2
#     Edge 18, Type (0, 0), BuildingBlock: XIVTED_clean_linker_0, # of connection points: 2
#     Edge 19, Type (0, 0), BuildingBlock: XIVTED_clean_linker_0, # of connection points: 2
#     Edge 20, Type (0, 0), BuildingBlock: XIVTED_clean_linker_0, # of connection points: 2
#     Edge 21, Type (0, 0), BuildingBlock: XIVTED_clean_linker_0, # of connection points: 2
#     Edge 22, Type (0, 0), BuildingBlock: XIVTED_clean_linker_0, # of connection points: 2
#     Edge 23, Type (0, 0), BuildingBlock: XIVTED_clean_linker_0, # of connection points: 2
#     Edge 24, Type (0, 0), BuildingBlock: XIVTED_clean_linker_0, # of connection points: 2
#     Edge 25, Type (0, 0), BuildingBlock: XIVTED_clean_linker_0, # of connection points: 2
#     Edge 26, Type (0, 0), BuildingBlock: XIVTED_clean_linker_0, # of connection points: 2
#     Edge 27, Type (0, 0), BuildingBlock: XIVTED_clean_linker_0, # of connection points: 2
#     Edge 28, Type (0, 0), BuildingBlock: XIVTED_clean_linker_0, # of connection points: 2
#     Edge 29, Type (0, 0), BuildingBlock: XIVTED_clean_linker_0, # of connection points: 2
#     Edge 30, Type (0, 0), BuildingBlock: XIVTED_clean_linker_0, # of connection points: 2
#     Edge 31, Type (0, 0), BuildingBlock: XIVTED_clean_linker_0, # of connection points: 2
#     Edge 32, Type (0, 0), BuildingBlock: XIVTED_clean_linker_0, # of connection points: 2
#     Edge 33, Type (0, 0), BuildingBlock: XIVTED_clean_linker_0, # of connection points: 2
#     Edge 34, Type (0, 0), BuildingBlock: XIVTED_clean_linker_0, # of connection points: 2
#     Edge 35, Type (0, 0), BuildingBlock: XIVTED_clean_linker_0, # of connection points: 2
#     Edge 36, Type (0, 0), BuildingBlock: XIVTED_clean_linker_0, # of connection points: 2
#     Edge 37, Type (0, 0), BuildingBlock: XIVTED_clean_linker_0, # of connection points: 2
#     Edge 38, Type (0, 0), BuildingBlock: XIVTED_clean_linker_0, # of connection points: 2
#     Edge 39, Type (0, 0), BuildingBlock: XIVTED_clean_linker_0, # of connection points: 2
#     Edge 40, Type (0, 0), BuildingBlock: XIVTED_clean_linker_0, # of connection points: 2
#     Edge 41, Type (0, 0), BuildingBlock: XIVTED_clean_linker_0, # of connection points: 2
#     Edge 42, Type (0, 0), BuildingBlock: XIVTED_clean_linker_0, # of connection points: 2
#     Edge 43, Type (0, 0), BuildingBlock: XIVTED_clean_linker_0, # of connection points: 2
#     Edge 44, Type (0, 0), BuildingBlock: XIVTED_clean_linker_0, # of connection points: 2
#     Edge 45, Type (0, 0), BuildingBlock: XIVTED_clean_linker_0, # of connection points: 2
#     Edge 46, Type (0, 0), BuildingBlock: XIVTED_clean_linker_0, # of connection points: 2
#     Edge 47, Type (0, 0), BuildingBlock: XIVTED_clean_linker_0, # of connection points: 2
#     Edge 48, Type (0, 0), BuildingBlock: XIVTED_clean_linker_0, # of connection points: 2
#     Edge 49, Type (0, 0), BuildingBlock: XIVTED_clean_linker_0, # of connection points: 2
#     Edge 50, Type (0, 0), BuildingBlock: XIVTED_clean_linker_0, # of connection points: 2
#     Edge 51, Type (0, 0), BuildingBlock: XIVTED_clean_linker_0, # of connection points: 2
#     Edge 52, Type (0, 0), BuildingBlock: XIVTED_clean_linker_0, # of connection points: 2
#     Edge 53, Type (0, 0), BuildingBlock: XIVTED_clean_linker_0, # of connection points: 2
#     Edge 54, Type (0, 0), BuildingBlock: XIVTED_clean_linker_0, # of connection points: 2
#     Edge 55, Type (0, 0), BuildingBlock: XIVTED_clean_linker_0, # of connection points: 2
#     Edge 56, Type (0, 0), BuildingBlock: XIVTED_clean_linker_0, # of connection points: 2
#     Edge 57, Type (0, 0), BuildingBlock: XIVTED_clean_linker_0, # of connection points: 2
#     Edge 58, Type (0, 0), BuildingBlock: XIVTED_clean_linker_0, # of connection points: 2
#     Edge 59, Type (0, 0), BuildingBlock: XIVTED_clean_linker_0, # of connection points: 2
#     Edge 60, Type (0, 0), BuildingBlock: XIVTED_clean_linker_0, # of connection points: 2
#     Edge 61, Type (0, 0), BuildingBlock: XIVTED_clean_linker_0, # of connection points: 2
#     Edge 62, Type (0, 0), BuildingBlock: XIVTED_clean_linker_0, # of connection points: 2
#     Edge 63, Type (0, 0), BuildingBlock: XIVTED_clean_linker_0, # of connection points: 2
# Relax obj value: 0.564
# Max RMSD: 0.323
# Mean RMSD: 0.323
data_MOF--net-wiu--node1-BETFAJ_clean_sbu_0--edge1-XIVTED_clean_linker_0
_symmetry_space_group_name_H-M    P1
_symmetry_Int_Tables_number       1
_symmetry_cell_setting            triclinic
loop_
_symmetry_equiv_pos_as_xyz
'x, y, z'
_cell_length_a     38.066185
_cell_length_b     37.843649
_cell_length_c     53.879882
_cell_angle_alpha  89.677658
_cell_angle_beta   90.321987
_cell_angle_gamma 90.169778
loop_
_atom_site_label
_atom_site_type_symbol
_atom_site_fract_x
_atom_site_fract_y
_atom_site_fract_z
_atom_type_partial_charge
Sm0 Sm 0.34571 0.17444 0.32405 0.0
Sm1 Sm 0.38175 0.11714 0.30115 0.0
C2 C 0.31151 0.22524 0.34735 0.0
C3 C 0.29903 0.26022 0.33889 0.0
C4 C 0.28381 0.26455 0.31524 0.0
C5 C 0.27421 0.2981 0.30667 0.0
C6 C 0.27997 0.32812 0.32142 0.0
C7 C 0.2953 0.32374 0.34506 0.0
C8 C 0.30466 0.29008 0.35372 0.0
C9 C 0.40962 0.19617 0.30464 0.0
C10 C 0.38465 0.11407 0.35982 0.0
C11 C 0.41745 0.07673 0.27076 0.0
C12 C 0.40694 0.06046 0.24694 0.0
C13 C 0.41717 0.07621 0.22448 0.0
C14 C 0.40547 0.06257 0.2019 0.0
C15 C 0.38345 0.03267 0.20123 0.0
C16 C 0.37326 1.01679 0.22368 0.0
C17 C 0.38481 0.03057 0.24632 0.0
C18 C 0.31498 0.09757 0.31632 0.0
C19 C 0.32691 0.16241 0.26537 0.0
O20 O 0.34553 0.22159 0.34859 0.0
O21 O 0.29592 0.19761 0.33783 0.0
O22 O 0.40502 0.16797 0.31717 0.0
O23 O 0.37972 0.21124 0.30027 0.0
O24 O 0.35811 0.13666 0.35795 0.0
O25 O 0.40356 0.10694 0.34011 0.0
O26 O 0.42035 0.11122 0.27073 0.0
O27 O 0.40215 0.0645 0.29071 0.0
O28 O 0.32366 0.12622 0.30631 0.0
O29 O 0.34194 0.07682 0.31768 0.0
O30 O 0.35515 0.14221 0.26604 0.0
O31 O 0.31531 0.17638 0.28624 0.0
H32 H 0.27976 0.24207 0.30318 0.0
H33 H 0.26287 0.30062 0.28826 0.0
H34 H 0.29978 0.34631 0.35695 0.0
H35 H 0.31669 0.28739 0.37191 0.0
H36 H 0.4342 0.09921 0.22434 0.0
H37 H 0.41461 0.07487 0.18491 0.0
H38 H 0.35645 0.99364 0.22374 0.0
H39 H 0.37624 1.01784 0.2633 0.0
Sm40 Sm 0.61877 0.59495 0.57034 0.0
Sm41 Sm 0.67766 0.63326 0.55159 0.0
C42 C 0.56838 0.55874 0.59301 0.0
C43 C 0.53164 0.55048 0.58667 0.0
C44 C 0.5157 0.52016 0.59653 0.0
C45 C 0.48163 0.51075 0.58926 0.0
C46 C 0.46291 0.53153 0.57194 0.0
C47 C 0.47881 0.56232 0.56247 0.0
C48 C 0.51292 0.57163 0.5697 0.0
C49 C 0.59825 0.66068 0.5523 0.0
C50 C 0.67515 0.63197 0.60957 0.0
C51 C 0.72038 0.6712 0.524 0.0
C52 C 0.73943 0.66085 0.50132 0.0
C53 C 0.72408 0.66645 0.47788 0.0
C54 C 0.74005 0.65354 0.45657 0.0
C55 C 0.77189 0.63488 0.45812 0.0
C56 C 0.78755 0.62964 0.4815 0.0
C57 C 0.77149 0.64247 0.50289 0.0
C58 C 0.69633 0.56572 0.56653 0.0
C59 C 0.63667 0.57907 0.51224 0.0
O60 O 0.57551 0.59179 0.59778 0.0
O61 O 0.59198 0.54407 0.57898 0.0
O62 O 0.62538 0.6551 0.5656 0.0
O63 O 0.58329 0.63097 0.54681 0.0
O64 O 0.65565 0.60352 0.60515 0.0
O65 O 0.68168 0.65406 0.59127 0.0
O66 O 0.68611 0.67329 0.52197 0.0
O67 O 0.73049 0.65597 0.54469 0.0
O68 O 0.6689 0.57446 0.5551 0.0
O69 O 0.71647 0.59308 0.56957 0.0
O70 O 0.65889 0.60571 0.51509 0.0
O71 O 0.61787 0.56815 0.53142 0.0
H72 H 0.52979 0.50348 0.60959 0.0
H73 H 0.46995 0.48714 0.59716 0.0
H74 H 0.4653 0.57867 0.54892 0.0
H75 H 0.52488 0.59502 0.5617 0.0
H76 H 0.69949 0.68056 0.47597 0.0
H77 H 0.72781 0.659 0.43876 0.0
H78 H 0.81219 0.61558 0.48327 0.0
H79 H 0.78401 0.63758 0.52068 0.0
Sm80 Sm 0.19945 0.86572 0.82271 0.0
Sm81 Sm 0.15963 0.92295 0.80245 0.0
C82 C 0.2362 0.81646 0.84639 0.0
C83 C 0.24426 0.77943 0.84055 0.0
C84 C 0.27568 0.76432 0.84899 0.0
C85 C 0.28491 0.73016 0.84174 0.0
C86 C 0.26286 0.71057 0.82583 0.0
C87 C 0.23098 0.7256 0.81786 0.0
C88 C 0.22182 0.75974 0.82509 0.0
C89 C 0.13504 0.84236 0.80459 0.0
C90 C 0.16186 0.92323 0.86063 0.0
C91 C 0.12018 0.9616 0.77293 0.0
C92 C 0.12992 0.97802 0.74908 0.0
C93 C 0.11087 0.96938 0.72764 0.0
C94 C 0.12257 0.98058 0.70441 0.0
C95 C 0.15342 1.00088 0.70219 0.0
C96 C 0.17212 1.01024 0.72367 0.0
C97 C 0.16068 0.99859 0.74693 0.0
C98 C 0.2261 0.94475 0.81677 0.0
C99 C 0.2152 0.88231 0.76428 0.0
O100 O 0.20344 0.82352 0.85142 0.0
O101 O 0.25044 0.83998 0.83175 0.0
O102 O 0.13953 0.87002 0.81753 0.0
O103 O 0.16508 0.82828 0.79963 0.0
O104 O 0.19023 0.90377 0.85663 0.0
O105 O 0.13972 0.92896 0.84223 0.0
O106 O 0.11912 0.92701 0.77282 0.0
O107 O 0.13527 0.97444 0.79282 0.0
O108 O 0.21827 0.9163 0.80623 0.0
O109 O 0.19838 0.96435 0.81895 0.0
O110 O 0.18833 0.90412 0.76662 0.0
O111 O 0.22638 0.86427 0.7839 0.0
H112 H 0.29337 0.77916 0.86085 0.0
H113 H 0.30942 0.71916 0.84849 0.0
H114 H 0.2136 0.71143 0.8054 0.0
H115 H 0.19753 0.77099 0.81819 0.0
H116 H 0.08738 0.95323 0.72882 0.0
H117 H 0.10722 0.97367 0.68814 0.0
H118 H 0.19585 0.02601 0.72241 0.0
H119 H 0.17637 1.00508 0.76311 0.0
Sm120 Sm 0.92564 0.44719 1.07383 0.0
Sm121 Sm 0.86981 0.40722 1.05174 0.0
C122 C 0.97435 0.48412 1.09781 0.0
C123 C 1.01084 0.4931 1.09142 0.0
C124 C 0.0274 0.52239 1.10219 0.0
C125 C 0.06109 0.53251 1.09459 0.0
C126 C 0.07871 0.51352 1.07602 0.0
C127 C 0.06213 0.48381 1.06561 0.0
C128 C 0.02854 0.47377 1.07322 0.0
C129 C 0.9492 0.38272 1.05595 0.0
C130 C 0.86626 0.40935 1.1101 0.0
C131 C 0.8322 0.36786 1.02156 0.0
C132 C 0.81686 0.3776 0.99733 0.0
C133 C 0.82587 0.35822 0.97625 0.0
C134 C 0.8152 0.36963 0.95273 0.0
C135 C 0.7951 0.40053 0.94987 0.0
C136 C 0.78555 0.41966 0.97099 0.0
C137 C 0.79663 0.4085 0.99452 0.0
C138 C 0.84783 0.47417 1.06499 0.0
C139 C 0.91275 0.46352 1.01504 0.0
O140 O 0.96794 0.45079 1.10235 0.0
O141 O 0.95038 0.49859 1.08369 0.0
O142 O 0.92128 0.38695 1.06838 0.0
O143 O 0.96345 0.41304 1.05123 0.0
O144 O 0.88621 0.43776 1.10668 0.0
O145 O 0.86147 0.38723 1.0916 0.0
O146 O 0.86655 0.36668 1.02218 0.0
O147 O 0.81879 0.38311 1.04105 0.0
O148 O 0.87666 0.46612 1.05551 0.0
O149 O 0.82792 0.44639 1.06658 0.0
O150 O 0.89308 0.43467 1.01623 0.0
O151 O 0.92697 0.47615 1.03562 0.0
H152 H 1.01408 0.53773 1.11619 0.0
H153 H 0.07331 0.55527 1.1032 0.0
H154 H 0.07466 0.46888 1.05105 0.0
H155 H 1.01616 0.45126 1.06449 0.0
H156 H 0.84177 0.33461 0.97794 0.0
H157 H 0.82229 0.35395 0.93677 0.0
H158 H 0.76997 0.44346 0.96925 0.0
H159 H 0.78984 0.42443 1.01041 0.0
Sm160 Sm 0.65579 0.92315 1.04355 0.0
Sm161 Sm 0.69869 0.8693 1.02033 0.0
C162 C 0.60559 0.95414 1.069 0.0
C163 C 0.56723 0.95759 1.06701 0.0
C164 C 0.54598 0.92868 1.06039 0.0
C165 C 0.50941 0.93128 1.06133 0.0
C166 C 0.4935 0.96284 1.06899 0.0
C167 C 0.51499 0.99238 1.07401 0.0
C168 C 0.55149 0.98973 1.07303 0.0
C169 C 0.72118 0.94949 1.03087 0.0
C170 C 0.71392 0.88162 1.07959 0.0
C171 C 0.73777 0.82221 0.99695 0.0
C172 C 0.74726 0.78578 1.0038 0.0
C173 C 0.77107 0.76653 0.98952 0.0
C174 C 0.78052 0.73217 0.99667 0.0
C175 C 0.7661 0.71656 1.01814 0.0
C176 C 0.74205 0.73598 1.03223 0.0
C177 C 0.7329 0.77029 1.02519 0.0
C178 C 0.63481 0.8431 1.03719 0.0
C179 C 0.66024 0.92947 0.98466 0.0
O180 O 0.6242 0.97083 1.05231 0.0
O181 O 0.61753 0.92255 1.07422 0.0
O182 O 0.71449 0.91925 1.03924 0.0
O183 O 0.69298 0.9687 1.03111 0.0
O184 O 0.68494 0.90094 1.07883 0.0
O185 O 0.72647 0.86805 1.05887 0.0
O186 O 0.7046 0.82743 0.99187 0.0
O187 O 0.7509 0.84677 1.0112 0.0
O188 O 0.63887 0.87174 1.02519 0.0
O189 O 0.66505 0.82916 1.04199 0.0
O190 O 0.68797 0.9086 0.98726 0.0
O191 O 0.63867 0.93394 1.0034 0.0
H192 H 0.55764 0.90367 1.05555 0.0
H193 H 0.49367 0.90814 1.0572 0.0
H194 H 0.50381 1.01696 1.08041 0.0
H195 H 0.56746 1.01236 1.07807 0.0
H196 H 0.78248 0.77811 0.97298 0.0
H197 H 0.79897 0.71776 0.98536 0.0
H198 H 0.73094 0.72497 1.04906 0.0
H199 H 0.71488 0.78487 1.03667 0.0
Sm200 Sm 0.37052 0.40268 0.79419 0.0
Sm201 Sm 0.42309 0.44824 0.77035 0.0
C202 C 0.34245 0.35036 0.81999 0.0
C203 C 0.34088 0.31159 0.81832 0.0
C204 C 0.37122 0.29155 0.81397 0.0
C205 C 0.37003 0.2547 0.81518 0.0
C206 C 0.33853 0.23721 0.82116 0.0
C207 C 0.30775 0.25742 0.82394 0.0
C208 C 0.30896 0.29423 0.8225 0.0
C209 C 0.34289 0.46782 0.78182 0.0
C210 C 0.41126 0.46194 0.8299 0.0
C211 C 0.46848 0.48968 0.74703 0.0
C212 C 0.50473 0.50123 0.75334 0.0
C213 C 0.51054 0.53464 0.76386 0.0
C214 C 0.54408 0.54465 0.77189 0.0
C215 C 0.57283 0.52165 0.76938 0.0
C216 C 0.56717 0.48855 0.75826 0.0
C217 C 0.53355 0.47845 0.75035 0.0
C218 C 0.45027 0.38386 0.78613 0.0
C219 C 0.3634 0.40848 0.73516 0.0
O220 O 0.32477 0.36826 0.80328 0.0
O221 O 0.37324 0.36413 0.82505 0.0
O222 O 0.3733 0.46169 0.78979 0.0
O223 O 0.32412 0.4391 0.78264 0.0
O224 O 0.39239 0.43243 0.82921 0.0
O225 O 0.42453 0.47514 0.80913 0.0
O226 O 0.46397 0.45637 0.74154 0.0
O227 O 0.44344 0.50181 0.76108 0.0
O228 O 0.42127 0.38805 0.77486 0.0
O229 O 0.4646 0.41426 0.79055 0.0
O230 O 0.38383 0.43675 0.73757 0.0
O231 O 0.35927 0.38647 0.75398 0.0
H232 H 0.3962 0.30437 0.81077 0.0
H233 H 0.39414 0.24004 0.81269 0.0
H234 H 0.28308 0.24512 0.829 0.0
H235 H 0.28524 0.3092 0.82583 0.0
H236 H 0.48894 0.55282 0.76641 0.0
H237 H 0.54725 0.57018 0.7806 0.0
H238 H 0.58874 0.47041 0.75557 0.0
H239 H 0.53013 0.45257 0.74219 0.0
Sm240 Sm 0.88965 0.11463 0.54355 0.0
Sm241 Sm 0.84722 0.17097 0.52192 0.0
C242 C 0.94021 0.08217 0.56829 0.0
C243 C 0.97848 0.07834 0.5659 0.0
C244 C 1.00012 0.10764 0.56091 0.0
C245 C 0.03664 0.10427 0.56145 0.0
C246 C 0.05216 0.07156 0.56721 0.0
C247 C 0.03027 0.04181 0.57053 0.0
C248 C 0.99379 0.04522 0.56987 0.0
C249 C 0.82361 0.09054 0.53054 0.0
C250 C 0.83343 0.15526 0.58113 0.0
C251 C 0.80778 0.21944 0.49966 0.0
C252 C 0.79792 0.25524 0.50745 0.0
C253 C 0.7744 0.27543 0.49325 0.0
C254 C 0.76464 0.3092 0.50114 0.0
C255 C 0.7784 0.32332 0.52331 0.0
C256 C 0.80219 0.30297 0.53735 0.0
C257 C 0.81171 0.26921 0.52954 0.0
C258 C 0.91239 0.19475 0.53814 0.0
C259 C 0.88405 0.11191 0.48474 0.0
O260 O 0.92082 0.06622 0.55163 0.0
O261 O 0.92877 0.1137 0.57397 0.0
O262 O 0.83099 0.12011 0.53968 0.0
O263 O 0.85144 0.07073 0.5301 0.0
O264 O 0.85991 0.1328 0.57913 0.0
O265 O 0.82249 0.17323 0.56139 0.0
O266 O 0.84101 0.21492 0.49472 0.0
O267 O 0.79482 0.19371 0.51304 0.0
O268 O 0.90702 0.16666 0.52593 0.0
O269 O 0.88276 0.20947 0.5434 0.0
O270 O 0.8569 0.13341 0.48784 0.0
O271 O 0.90574 0.10567 0.50333 0.0
H272 H 0.98886 0.13346 0.5577 0.0
H273 H 0.05269 0.12762 0.55863 0.0
H274 H 0.04113 1.01629 0.57544 0.0
H275 H 0.97754 0.02227 0.57364 0.0
H276 H 0.76348 0.26505 0.47616 0.0
H277 H 0.74649 0.32436 0.4898 0.0
H278 H 0.81286 0.31282 0.55466 0.0
H279 H 0.82961 0.25386 0.54091 0.0
Sm280 Sm 0.17125 0.63712 0.29078 0.0
Sm281 Sm 0.1182 0.59142 0.2687 0.0
C282 C 0.20126 0.6893 0.31543 0.0
C283 C 0.2037 0.72807 0.3137 0.0
C284 C 0.17351 0.74915 0.31135 0.0
C285 C 0.17601 0.7859 0.31296 0.0
C286 C 0.2087 0.80219 0.3173 0.0
C287 C 0.2391 0.78102 0.31788 0.0
C288 C 0.23658 0.74435 0.31609 0.0
C289 C 0.19897 0.57197 0.27896 0.0
C290 C 0.13219 0.57816 0.32794 0.0
C291 C 0.07166 0.5506 0.24596 0.0
C292 C 0.03497 0.54062 0.2521 0.0
C293 C 0.02795 0.50758 0.26301 0.0
C294 C 0.9941 0.49894 0.27095 0.0
C295 C 0.96619 0.52294 0.2679 0.0
C296 C 0.97306 0.55573 0.25644 0.0
C297 C 1.00704 0.56448 0.24865 0.0
C298 C 0.09109 0.65561 0.28438 0.0
C299 C 0.17571 0.6304 0.23213 0.0
O300 O 0.21778 0.67115 0.29855 0.0
O301 O 0.17051 0.67607 0.32113 0.0
O302 O 0.16893 0.57781 0.28746 0.0
O303 O 0.21729 0.60098 0.27868 0.0
O304 O 0.15078 0.60784 0.32663 0.0
O305 O 0.11829 0.56464 0.30752 0.0
O306 O 0.07747 0.58343 0.23946 0.0
O307 O 0.09602 0.53827 0.2608 0.0
O308 O 0.11941 0.65177 0.27247 0.0
O309 O 0.07753 0.62504 0.28942 0.0
O310 O 0.15762 0.60094 0.23608 0.0
O311 O 0.17843 0.65395 0.24996 0.0
H312 H 0.1478 0.73722 0.30948 0.0
H313 H 0.15213 0.80137 0.31219 0.0
H314 H 0.26471 0.7924 0.32162 0.0
H315 H 0.26019 0.72858 0.31787 0.0
H316 H 0.04885 0.48861 0.26595 0.0
H317 H 0.99006 0.47365 0.28 0.0
H318 H 0.95217 0.57464 0.25338 0.0
H319 H 1.01144 0.59016 0.24024 0.0
Sm320 Sm 0.84738 0.67323 0.82164 0.0
Sm321 Sm 0.88375 0.61476 0.80069 0.0
C322 C 0.81294 0.72381 0.84509 0.0
C323 C 0.80419 0.7605 0.83834 0.0
C324 C 0.77515 0.77704 0.84904 0.0
C325 C 0.76552 0.81115 0.84156 0.0
C326 C 0.78478 0.82929 0.8232 0.0
C327 C 0.81421 0.81273 0.81281 0.0
C328 C 0.82375 0.77863 0.82026 0.0
C329 C 0.9117 0.69438 0.80261 0.0
C330 C 0.88475 0.61339 0.85902 0.0
C331 C 0.92052 0.57459 0.77094 0.0
C332 C 0.90996 0.55785 0.74739 0.0
C333 C 0.92746 0.56711 0.7255 0.0
C334 C 0.91566 0.55437 0.70269 0.0
C335 C 0.88625 0.53186 0.70133 0.0
C336 C 0.86891 0.52219 0.72325 0.0
C337 C 0.88045 0.53533 0.74609 0.0
C338 C 0.81695 0.59559 0.81592 0.0
C339 C 0.8287 0.65794 0.76326 0.0
O340 O 0.84618 0.71712 0.84883 0.0
O341 O 0.79732 0.69943 0.83198 0.0
O342 O 0.9068 0.66661 0.81557 0.0
O343 O 0.88193 0.70933 0.79778 0.0
O344 O 0.85819 0.63579 0.85614 0.0
O345 O 0.90454 0.6057 0.8399 0.0
O346 O 0.9225 0.60913 0.77034 0.0
O347 O 0.90572 0.56242 0.79111 0.0
O348 O 0.82563 0.62386 0.80534 0.0
O349 O 0.84394 0.57486 0.81777 0.0
O350 O 0.85476 0.63511 0.76522 0.0
O351 O 0.81904 0.67608 0.78303 0.0
H352 H 0.7597 0.76342 0.86297 0.0
H353 H 0.74297 0.82332 0.85016 0.0
H354 H 0.82935 0.82573 0.79843 0.0
H355 H 0.84611 0.76625 0.8116 0.0
H356 H 0.95003 0.58462 0.72601 0.0
H357 H 0.93003 0.5616 0.68611 0.0
H358 H 0.84632 0.50474 0.72269 0.0
H359 H 0.86599 0.52816 0.76263 0.0
Sm360 Sm 0.11947 0.09565 1.07186 0.0
Sm361 Sm 0.17775 0.13262 1.05121 0.0
C362 C 0.06902 0.06043 1.09524 0.0
C363 C 0.03253 0.0514 1.08857 0.0
C364 C 1.01652 0.02146 1.09895 0.0
C365 C 0.98261 1.01155 1.09156 0.0
C366 C 0.96412 0.03144 1.07361 0.0
C367 C 0.98013 0.06178 1.06354 0.0
C368 C 1.01406 0.07159 1.07089 0.0
C369 C 0.09864 0.16056 1.05264 0.0
C370 C 0.17789 0.13404 1.10951 0.0
C371 C 0.21881 0.16946 1.02169 0.0
C372 C 0.23656 0.15843 0.99867 0.0
C373 C 0.22277 0.16874 0.97555 0.0
C374 C 0.23715 0.15585 0.95366 0.0
C375 C 0.26587 0.13255 0.95436 0.0
C376 C 0.27996 0.12247 0.97745 0.0
C377 C 0.26538 0.13516 0.9994 0.0
C378 C 0.19699 0.06584 1.06736 0.0
C379 C 0.13562 0.07706 1.01372 0.0
O380 O 0.07567 0.09386 1.09892 0.0
O381 O 0.09327 0.04503 1.08219 0.0
O382 O 0.12614 0.15551 1.06566 0.0
O383 O 0.08365 0.13063 1.04785 0.0
O384 O 0.15602 0.10688 1.10664 0.0
O385 O 0.18557 0.15403 1.09027 0.0
O386 O 0.18447 0.17132 1.02049 0.0
O387 O 0.23007 0.15508 1.04237 0.0
O388 O 0.16902 0.07395 1.05631 0.0
O389 O 0.21709 0.09341 1.06938 0.0
O390 O 0.15835 0.10334 1.01572 0.0
O391 O 0.11711 0.06734 1.03336 0.0
H392 H 0.0304 1.0055 1.11256 0.0
H393 H 0.97086 0.98829 1.09991 0.0
H394 H 0.96684 0.07744 1.04949 0.0
H395 H 0.02603 0.09467 1.06248 0.0
H396 H 0.20061 0.18658 0.97439 0.0
H397 H 0.22631 0.1649 0.93612 0.0
H398 H 0.30222 0.10475 0.97852 0.0
H399 H 0.27654 0.12642 1.01692 0.0
Sm400 Sm 0.6988 0.3668 0.32153 0.0
Sm401 Sm 0.65659 0.42346 0.30156 0.0
C402 C 0.73763 0.31826 0.34428 0.0
C403 C 0.74589 0.28128 0.33839 0.0
C404 C 0.77717 0.26611 0.34708 0.0
C405 C 0.78637 0.23185 0.34001 0.0
C406 C 0.76445 0.21219 0.32405 0.0
C407 C 0.73278 0.22735 0.31576 0.0
C408 C 0.72365 0.26158 0.32282 0.0
C409 C 0.6338 0.3426 0.30504 0.0
C410 C 0.66223 0.42358 0.35988 0.0
C411 C 0.60705 0.45943 0.27818 0.0
C412 C 0.56905 0.4644 0.28084 0.0
C413 C 0.54753 0.43711 0.28993 0.0
C414 C 0.51099 0.44053 0.28934 0.0
C415 C 0.49548 0.4714 0.27973 0.0
C416 C 0.51739 0.49963 0.27237 0.0
C417 C 0.55384 0.49609 0.27289 0.0
C418 C 0.72343 0.44652 0.31426 0.0
C419 C 0.71161 0.38343 0.26258 0.0
O420 O 0.70508 0.32486 0.35023 0.0
O421 O 0.75063 0.34186 0.32911 0.0
O422 O 0.63874 0.37039 0.31771 0.0
O423 O 0.66366 0.32859 0.29953 0.0
O424 O 0.69111 0.40521 0.35539 0.0
O425 O 0.63896 0.42777 0.34202 0.0
O426 O 0.62696 0.47334 0.29541 0.0
O427 O 0.61714 0.42786 0.27147 0.0
O428 O 0.71527 0.41779 0.30432 0.0
O429 O 0.69574 0.4663 0.31615 0.0
O430 O 0.68486 0.40551 0.26515 0.0
O431 O 0.72332 0.3654 0.28205 0.0
H432 H 0.79472 0.28095 0.35904 0.0
H433 H 0.81072 0.22079 0.34701 0.0
H434 H 0.7155 0.21317 0.30324 0.0
H435 H 0.69948 0.27286 0.31574 0.0
H436 H 0.55895 0.4126 0.29642 0.0
H437 H 0.49489 0.41841 0.29526 0.0
H438 H 0.50647 0.52359 0.26446 0.0
H439 H 0.57009 0.5175 0.26597 0.0
Sm440 Sm 0.42743 0.9483 0.57513 0.0
Sm441 Sm 0.3714 0.90893 0.55278 0.0
C442 C 0.47658 0.985 0.59864 0.0
C443 C 0.51165 0.99755 0.59078 0.0
C444 C 0.51585 1.01688 0.56862 0.0
C445 C 0.54932 0.02639 0.5604 0.0
C446 C 0.5794 1.01653 0.57399 0.0
C447 C 0.57517 0.99733 0.59621 0.0
C448 C 0.5416 0.98804 0.60456 0.0
C449 C 0.45071 0.88408 0.55675 0.0
C450 C 0.36893 0.90899 0.61131 0.0
C451 C 0.3327 0.87014 0.52284 0.0
C452 C 0.31555 0.87985 0.49919 0.0
C453 C 0.32467 0.86195 0.47749 0.0
C454 C 0.31143 0.87304 0.45455 0.0
C455 C 0.2886 0.90213 0.45289 0.0
C456 C 0.27909 0.91983 0.47464 0.0
C457 C 0.29268 0.90899 0.49758 0.0
C458 C 0.34981 0.97583 0.56655 0.0
C459 C 0.41461 0.9654 0.51636 0.0
O460 O 0.47309 0.95084 0.60111 0.0
O461 O 0.4494 0.99959 0.58784 0.0
O462 O 0.42277 0.88822 0.56921 0.0
O463 O 0.46518 0.91444 0.55228 0.0
O464 O 0.38885 0.9375 0.6083 0.0
O465 O 0.36381 0.88764 0.59242 0.0
O466 O 0.36707 0.86965 0.52244 0.0
O467 O 0.32016 0.88466 0.54289 0.0
O468 O 0.37853 0.96778 0.55688 0.0
O469 O 0.32996 0.94803 0.56826 0.0
O470 O 0.39469 0.93669 0.51736 0.0
O471 O 0.42898 0.97759 0.53703 0.0
H472 H 0.49334 0.02418 0.55735 0.0
H473 H 0.55169 0.04081 0.54306 0.0
H474 H 0.59781 0.98967 0.60724 0.0
H475 H 0.53905 0.97294 0.6216 0.0
H476 H 0.34244 0.83965 0.47824 0.0
H477 H 0.31859 0.8584 0.43812 0.0
H478 H 0.26144 0.94222 0.47385 0.0
H479 H 0.2856 0.92375 0.51397 0.0
Sm480 Sm 0.15462 0.42292 0.54362 0.0
Sm481 Sm 0.19883 0.36959 0.52014 0.0
C482 C 0.10315 0.45156 0.56914 0.0
C483 C 0.06458 0.45315 0.56726 0.0
C484 C 0.04426 0.42233 0.56452 0.0
C485 C 1.00764 0.42391 0.56539 0.0
C486 C 0.99066 0.4563 0.56939 0.0
C487 C 1.01112 0.48737 0.57057 0.0
C488 C 0.0477 0.48576 0.56949 0.0
C489 C 0.21949 0.45026 0.53108 0.0
C490 C 0.21358 0.38206 0.57957 0.0
C491 C 0.23913 0.32337 0.497 0.0
C492 C 0.24961 0.28737 0.50425 0.0
C493 C 0.27211 0.26757 0.48932 0.0
C494 C 0.28227 0.23352 0.49671 0.0
C495 C 0.26986 0.21875 0.51908 0.0
C496 C 0.24711 0.23872 0.53385 0.0
C497 C 0.23724 0.27275 0.52656 0.0
C498 C 0.13489 0.34278 0.53633 0.0
C499 C 0.15964 0.42952 0.48457 0.0
O500 O 0.12097 0.46916 0.55243 0.0
O501 O 0.11672 0.42068 0.57447 0.0
O502 O 0.21322 0.4198 0.53926 0.0
O503 O 0.19114 0.46928 0.53176 0.0
O504 O 0.18451 0.40128 0.57881 0.0
O505 O 0.22616 0.3684 0.55887 0.0
O506 O 0.2058 0.32753 0.49195 0.0
O507 O 0.25165 0.3486 0.51094 0.0
O508 O 0.13904 0.37167 0.5247 0.0
O509 O 0.16509 0.32859 0.54098 0.0
O510 O 0.18746 0.40871 0.4871 0.0
O511 O 0.13809 0.43404 0.50335 0.0
H512 H 0.05664 0.3968 0.56281 0.0
H513 H 0.99274 0.39954 0.56421 0.0
H514 H 0.99917 0.51276 0.5741 0.0
H515 H 0.06287 0.50985 0.57156 0.0
H516 H 0.28192 0.27846 0.47205 0.0
H517 H 0.29964 0.21866 0.48485 0.0
H518 H 0.23755 0.22837 0.55135 0.0
H519 H 0.22019 0.2878 0.5385 0.0
Sm520 Sm 0.86819 0.90199 0.29456 0.0
Sm521 Sm 0.92201 0.94598 0.27136 0.0
C522 C 0.83806 0.85057 0.32009 0.0
C523 C 0.83724 0.8118 0.31879 0.0
C524 C 0.86766 0.79258 0.31319 0.0
C525 C 0.86773 0.75575 0.31495 0.0
C526 C 0.83741 0.73754 0.32261 0.0
C527 C 0.80633 0.75688 0.32652 0.0
C528 C 0.8063 0.79367 0.32461 0.0
C529 C 0.84203 0.96769 0.28177 0.0
C530 C 0.90924 0.96041 0.33062 0.0
C531 C 0.96891 0.98625 0.24836 0.0
C532 C 1.00475 0.99638 0.25581 0.0
C533 C 0.02486 0.01923 0.24105 0.0
C534 C 0.05876 0.02905 0.24863 0.0
C535 C 0.07308 1.01595 0.27103 0.0
C536 C 0.05278 0.99289 0.28563 0.0
C537 C 0.01891 0.98336 0.27815 0.0
C538 C 0.94763 0.88111 0.28769 0.0
C539 C 0.86271 0.90718 0.23554 0.0
O540 O 0.82178 0.86779 0.30236 0.0
O541 O 0.86828 0.86471 0.32622 0.0
O542 O 0.87212 0.961 0.29011 0.0
O543 O 0.82278 0.93929 0.28234 0.0
O544 O 0.8901 0.9311 0.32982 0.0
O545 O 0.92297 0.97335 0.30994 0.0
O546 O 0.96431 0.95281 0.24342 0.0
O547 O 0.94385 0.99896 0.26209 0.0
O548 O 0.91908 0.88573 0.27593 0.0
O549 O 0.96189 0.91134 0.29262 0.0
O550 O 0.88337 0.93523 0.23812 0.0
O551 O 0.858 0.88533 0.25435 0.0
H552 H 0.89182 0.80612 0.30863 0.0
H553 H 0.892 0.74173 0.31161 0.0
H554 H 0.78258 0.74395 0.33286 0.0
H555 H 0.78253 0.80806 0.32889 0.0
H556 H 1.01432 0.02956 0.22377 0.0
H557 H 0.07388 0.04669 0.2369 0.0
H558 H 0.06279 0.9828 0.30314 0.0
H559 H 1.00362 0.96605 0.28996 0.0
Sm560 Sm 0.38637 0.61292 1.04354 0.0
Sm561 Sm 0.3491 0.67127 1.02193 0.0
C562 C 0.42373 0.57325 1.07388 0.0
C563 C 0.41368 0.55764 1.09805 0.0
C564 C 0.42482 0.5738 1.12012 0.0
C565 C 0.41261 0.56171 1.143 0.0
C566 C 0.38921 0.53295 1.14438 0.0
C567 C 0.37843 0.51636 1.12237 0.0
C568 C 0.39044 0.52866 1.09941 0.0
C569 C 0.31965 0.59322 1.02841 0.0
C570 C 0.33173 0.65627 1.0805 0.0
C571 C 0.31333 0.72177 0.99872 0.0
C572 C 0.30282 0.75739 1.00653 0.0
C573 C 0.27676 0.77585 0.99343 0.0
C574 C 0.26579 0.8091 1.00156 0.0
C575 C 0.28077 0.82443 1.02293 0.0
C576 C 0.30716 0.80588 1.03583 0.0
C577 C 0.31796 0.77263 1.02776 0.0
C578 C 0.41387 0.69223 1.0406 0.0
C579 C 0.38641 0.61159 0.98505 0.0
O580 O 0.42657 0.60776 1.07331 0.0
O581 O 0.40791 0.56057 1.05422 0.0
O582 O 0.3281 0.62167 1.03873 0.0
O583 O 0.34684 0.5728 1.02671 0.0
O584 O 0.35784 0.6335 1.07879 0.0
O585 O 0.32164 0.67422 1.06055 0.0
O586 O 0.347 0.71689 0.99581 0.0
O587 O 0.29833 0.69567 1.01057 0.0
O588 O 0.40856 0.66457 1.02782 0.0
O589 O 0.38427 0.70738 1.04536 0.0
O590 O 0.36002 0.63422 0.98762 0.0
O591 O 0.40628 0.60365 1.00432 0.0
H592 H 0.4427 0.59612 1.11969 0.0
H593 H 0.4222 0.57442 1.15969 0.0
H594 H 0.36064 0.49398 1.12292 0.0
H595 H 0.38113 0.51567 1.08276 0.0
H596 H 0.26472 0.76445 0.97705 0.0
H597 H 0.24567 0.82288 0.99106 0.0
H598 H 0.31889 0.81667 1.05252 0.0
H599 H 0.33786 0.75863 1.03829 0.0
Sm600 Sm 0.67472 0.1377 0.79133 0.0
Sm601 Sm 0.61939 0.0942 0.76995 0.0
C602 C 0.70809 0.1885 0.81524 0.0
C603 C 0.71283 0.22693 0.81267 0.0
C604 C 0.68417 0.24938 0.80803 0.0
C605 C 0.68852 0.28604 0.80863 0.0
C606 C 0.72155 0.30085 0.81413 0.0
C607 C 0.7506 0.27815 0.81703 0.0
C608 C 0.74622 0.24156 0.8163 0.0
C609 C 0.69935 0.07141 0.77914 0.0
C610 C 0.6343 0.08038 0.82899 0.0
C611 C 0.5709 0.05511 0.74749 0.0
C612 C 0.53435 0.04677 0.75419 0.0
C613 C 0.5164 0.01893 0.74266 0.0
C614 C 0.48244 1.0097 0.75029 0.0
C615 C 0.46592 0.02821 0.7696 0.0
C616 C 0.4839 0.05647 0.78079 0.0
C617 C 0.51778 0.06556 0.7732 0.0
C618 C 0.59542 0.15956 0.78589 0.0
C619 C 0.67727 0.13123 0.73271 0.0
O620 O 0.72335 0.16878 0.79864 0.0
O621 O 0.6766 0.17745 0.82118 0.0
O622 O 0.66991 0.07856 0.78812 0.0
O623 O 0.71873 0.09968 0.7783 0.0
O624 O 0.6539 0.10939 0.82747 0.0
O625 O 0.61947 0.06739 0.80874 0.0
O626 O 0.57731 0.08798 0.74149 0.0
O627 O 0.59481 0.04197 0.7623 0.0
O628 O 0.62313 0.15451 0.77351 0.0
O629 O 0.5812 0.12956 0.79157 0.0
O630 O 0.65838 0.10232 0.73685 0.0
O631 O 0.68108 0.15463 0.75053 0.0
H632 H 0.65814 0.23866 0.80509 0.0
H633 H 0.66567 0.3027 0.8061 0.0
H634 H 0.77635 0.28842 0.82173 0.0
H635 H 0.76868 0.22468 0.8198 0.0
H636 H 0.52879 1.00405 0.72801 0.0
H637 H 0.46915 0.98804 0.74109 0.0
H638 H 0.47223 0.07094 0.79592 0.0
H639 H 0.53125 0.08689 0.78254 0.0
H640 H 0.41668 0.26778 0.30043 0.0
H641 H 0.62495 0.27468 0.28897 0.0
H642 H 0.47893 0.17328 0.30785 0.0
H643 H 0.56668 0.36101 0.3202 0.0
H644 H 0.57145 0.23851 0.28921 0.0
H645 H 0.47046 0.30328 0.30088 0.0
C646 C 0.44168 0.25435 0.302 0.0
C647 C 0.44307 0.21725 0.3041 0.0
C648 C 0.5703 0.26541 0.29591 0.0
C649 C 0.50528 0.25829 0.30431 0.0
C650 C 0.60084 0.28627 0.29567 0.0
C651 C 0.60044 0.32136 0.30429 0.0
C652 C 0.5386 0.27971 0.30434 0.0
C653 C 0.56826 0.33451 0.31292 0.0
C654 C 0.47243 0.27481 0.3024 0.0
C655 C 0.47647 0.20169 0.30621 0.0
N656 N 0.53866 0.31387 0.31251 0.0
N657 N 0.50619 0.22221 0.30603 0.0
H658 H 0.62101 0.72918 0.56136 0.0
H659 H 0.42795 0.81472 0.56209 0.0
H660 H 0.52799 0.66932 0.54302 0.0
H661 H 0.52118 0.87665 0.54856 0.0
H662 H 0.46399 0.76068 0.5605 0.0
H663 H 0.58503 0.78331 0.56204 0.0
C664 C 0.59313 0.72738 0.55743 0.0
C665 C 0.57771 0.69451 0.55201 0.0
C666 C 0.4765 0.78614 0.55784 0.0
C667 C 0.53607 0.75636 0.55329 0.0
C668 C 0.4559 0.817 0.55878 0.0
C669 C 0.47137 0.85042 0.55537 0.0
C670 C 0.51306 0.78862 0.55401 0.0
C671 C 0.5079 0.85158 0.55118 0.0
C672 C 0.57256 0.75829 0.55781 0.0
C673 C 0.54126 0.69395 0.54715 0.0
N674 N 0.5274 0.82137 0.55083 0.0
N675 N 0.52178 0.72414 0.54811 0.0
H676 H 0.12856 0.77147 0.79607 0.0
H677 H 0.91898 0.7651 0.79348 0.0
H678 H 0.06583 0.86344 0.81123 0.0
H679 H 0.98073 0.67275 0.81073 0.0
H680 H 0.97239 0.80109 0.79423 0.0
H681 H 0.07525 0.73519 0.79578 0.0
C682 C 0.10354 0.7842 0.79921 0.0
C683 C 0.10189 0.82082 0.80367 0.0
C684 C 0.97435 0.77298 0.79784 0.0
C685 C 0.0402 0.77891 0.8031 0.0
C686 C 0.94381 0.7522 0.79728 0.0
C687 C 0.94512 0.71557 0.80204 0.0
C688 C 1.007 0.7572 0.8027 0.0
C689 C 0.9783 0.70076 0.80695 0.0
C690 C 0.07307 0.76327 0.79917 0.0
C691 C 0.06852 0.83544 0.80773 0.0
N692 N 1.00786 0.72152 0.80697 0.0
N693 N 0.03907 0.81456 0.80715 0.0
H694 H 0.12098 0.22945 1.06089 0.0
H695 H 0.92705 0.31321 1.06182 0.0
H696 H 0.02824 0.16847 1.04367 0.0
H697 H 0.01971 0.37582 1.04783 0.0
H698 H 0.96359 0.25948 1.0605 0.0
H699 H 0.08453 0.28327 1.06135 0.0
C700 C 0.09307 0.22733 1.05714 0.0
C701 C 0.07786 0.19424 1.05212 0.0
C702 C 0.97587 0.28503 1.05769 0.0
C703 C 0.03569 0.25573 1.05316 0.0
C704 C 0.95498 0.3157 1.05847 0.0
C705 C 0.97014 0.34922 1.05484 0.0
C706 C 1.01239 0.28779 1.05377 0.0
C707 C 1.00666 0.35067 1.05061 0.0
C708 C 0.07223 0.25807 1.05741 0.0
C709 C 0.04135 0.19328 1.0475 0.0
N710 N 0.02643 0.32063 1.0504 0.0
N711 N 0.02162 0.22331 1.04834 0.0
H712 H 0.56723 0.86232 1.02346 0.0
H713 H 0.48268 0.66903 1.036 0.0
H714 H 0.62675 0.77437 1.05232 0.0
H715 H 0.42147 0.76369 1.04521 0.0
H716 H 0.53648 0.70574 1.03554 0.0
H717 H 0.51379 0.8255 1.025 0.0
C718 C 0.56905 0.83548 1.03037 0.0
C719 C 0.60155 0.82181 1.03824 0.0
C720 C 0.5112 0.71836 1.03769 0.0
C721 C 0.54065 0.77885 1.039 0.0
C722 C 0.48051 0.69741 1.03793 0.0
C723 C 0.44739 0.71313 1.04078 0.0
C724 C 0.50875 0.75542 1.03966 0.0
C725 C 0.44631 0.75021 1.04314 0.0
C726 C 0.53857 0.81435 1.03109 0.0
C727 C 0.60232 0.7863 1.0463 0.0
N728 N 0.4763 0.76997 1.04229 0.0
N729 N 0.57255 0.76608 1.04628 0.0
H730 H 0.61715 0.22711 0.77323 0.0
H731 H 0.42848 0.31626 0.77436 0.0
H732 H 0.52665 0.16904 0.79882 0.0
H733 H 0.51987 0.37489 0.79793 0.0
H734 H 0.46376 0.26175 0.77524 0.0
H735 H 0.58215 0.28185 0.7742 0.0
C736 C 0.59012 0.22589 0.7793 0.0
C737 C 0.57518 0.19343 0.78647 0.0
C738 C 0.47598 0.28658 0.78031 0.0
C739 C 0.53442 0.25569 0.78641 0.0
C740 C 0.4558 0.31765 0.77998 0.0
C741 C 0.47089 0.35019 0.78666 0.0
C742 C 0.51195 0.28815 0.78641 0.0
C743 C 0.50688 0.35043 0.79294 0.0
C744 C 0.57009 0.25708 0.7797 0.0
C745 C 0.53953 0.1934 0.79341 0.0
N746 N 0.52618 0.32009 0.79243 0.0
N747 N 0.52037 0.22383 0.79295 0.0
H748 H 0.06707 0.36439 0.52571 0.0
H749 H 0.9792 0.17347 0.52467 0.0
H750 H 0.12666 0.27258 0.54757 0.0
H751 H 0.92221 0.26383 0.55123 0.0
H752 H 0.03349 0.20925 0.52502 0.0
H753 H 1.01305 0.32831 0.52697 0.0
C754 C 0.0688 0.33681 0.53098 0.0
C755 C 0.10147 0.32181 0.53705 0.0
C756 C 1.00905 0.22109 0.53086 0.0
C757 C 0.03996 0.27989 0.53732 0.0
C758 C 0.97812 0.20061 0.53084 0.0
C759 C 0.94611 0.21529 0.53845 0.0
C760 C 1.0078 0.25695 0.53765 0.0
C761 C 0.94624 0.25112 0.54546 0.0
C762 C 0.038 0.31617 0.53156 0.0
C763 C 0.1021 0.2855 0.54303 0.0
N764 N 0.97637 0.27072 0.54466 0.0
N765 N 0.07201 0.2658 0.54278 0.0
H766 H 0.02155 0.663 0.29597 0.0
H767 H 1.01634 0.87202 0.30159 0.0
H768 H 0.11198 0.72434 0.27425 0.0
H769 H 0.92737 0.81378 0.27334 0.0
H770 H 0.05156 0.81786 0.30031 0.0
H771 H 0.98637 0.71723 0.29638 0.0
C772 C 0.03419 0.68791 0.29152 0.0
C773 C 0.07008 0.68901 0.28536 0.0
C774 C 0.02427 0.81691 0.29456 0.0
C775 C 0.02972 0.75151 0.28622 0.0
C776 C 1.00399 0.84779 0.29539 0.0
C777 C 0.96847 0.84753 0.28794 0.0
C778 C 1.00888 0.78506 0.2868 0.0
C779 C 0.95428 0.8152 0.27982 0.0
C780 C 1.01396 0.71883 0.29165 0.0
C781 C 0.08468 0.7222 0.27954 0.0
N782 N 0.97434 0.78525 0.27976 0.0
N783 N 0.06463 0.75212 0.28041 0.0
H784 H 0.36296 0.06513 1.15781 0.0
H785 H 0.45603 0.9109 1.09271 0.0
H786 H 0.38453 0.96247 0.18948 0.0
H787 H 0.44521 1.01633 1.06275 0.0
H788 H 0.40514 0.92089 1.11865 0.0
H789 H 0.36786 0.03986 1.11634 0.0
C790 C 0.36787 0.03708 1.15602 0.0
C791 C 0.37489 1.01616 0.17706 0.0
C792 C 0.41317 0.94154 1.10587 0.0
C793 C 0.38079 0.98721 1.12983 0.0
C794 C 0.44222 0.93575 1.09081 0.0
C795 C 0.45601 0.96351 1.07642 0.0
C796 C 0.3985 0.97551 1.1069 0.0
C797 C 0.43647 0.99482 1.07454 0.0
C798 C 0.37047 0.02261 1.13236 0.0
C799 C 0.37975 0.97977 0.17377 0.0
N800 N 0.40938 1.00046 1.09029 0.0
N801 N 0.38361 0.96663 1.15057 0.0
H802 H 0.74372 0.60549 0.41593 0.0
H803 H 0.89142 0.70552 0.34789 0.0
H804 H 0.84188 0.64116 0.44755 0.0
H805 H 0.78816 0.68432 0.31789 0.0
H806 H 0.88475 0.65566 0.37595 0.0
H807 H 0.77013 0.60787 0.37471 0.0
C808 C 0.7711 0.61297 0.41426 0.0
C809 C 0.79017 0.62476 0.43502 0.0
C810 C 0.86393 0.66116 0.36271 0.0
C811 C 0.82041 0.62761 0.38807 0.0
C812 C 0.86781 0.68962 0.34643 0.0
C813 C 0.83947 0.70031 0.33137 0.0
C814 C 0.83126 0.64399 0.36429 0.0
C815 C 0.80992 0.6781 0.33016 0.0
C816 C 0.78623 0.6141 0.39075 0.0
C817 C 0.8259 0.63271 0.43199 0.0
N818 N 0.80602 0.65168 0.34708 0.0
N819 N 0.8396 0.63497 0.40884 0.0
H820 H 0.17021 0.06855 0.68878 0.0
H821 H 0.09971 1.0182 0.55859 0.0
H822 H 0.16072 0.96318 0.65949 0.0
H823 H 0.09041 0.11993 0.59372 0.0
H824 H 0.14944 1.00474 0.58584 0.0
H825 H 0.1693 0.09208 0.64642 0.0
C826 C 0.16916 0.0503 0.67337 0.0
C827 C 0.16409 1.01405 0.6775 0.0
C828 C 0.13728 0.03051 0.58697 0.0
C829 C 0.16241 0.04067 0.62925 0.0
C830 C 0.10881 0.03818 0.57146 0.0
C831 C 0.08965 0.06942 0.57482 0.0
C832 C 0.14612 0.0541 0.60607 0.0
C833 C 0.10358 0.09498 0.59095 0.0
C834 C 0.16859 0.06372 0.64919 0.0
C835 C 0.16333 0.99147 0.65697 0.0
N836 N 0.13029 0.08629 0.60657 0.0
N837 N 0.16153 1.00521 0.6337 0.0
H838 H 0.72824 0.41838 0.93609 0.0
H839 H 0.77587 0.34775 0.8056 0.0
H840 H 0.8327 0.40602 0.90695 0.0
H841 H 0.67479 0.33965 0.84111 0.0
H842 H 0.79091 0.39661 0.83315 0.0
H843 H 0.70486 0.41779 0.89375 0.0
C844 C 0.74637 0.41672 0.92072 0.0
C845 C 0.78225 0.41082 0.92493 0.0
C846 C 0.76496 0.38492 0.8343 0.0
C847 C 0.75575 0.40955 0.87667 0.0
C848 C 0.75638 0.35695 0.81861 0.0
C849 C 0.7248 0.33829 0.82198 0.0
C850 C 0.74189 0.39384 0.85352 0.0
C851 C 0.69994 0.35241 0.83831 0.0
C852 C 0.73302 0.41634 0.89655 0.0
C853 C 0.80466 0.40926 0.90441 0.0
N854 N 0.70945 0.37862 0.85405 0.0
N855 N 0.79096 0.40771 0.88115 0.0
H856 H 0.38982 0.2021 0.84738 0.0
H857 H 0.23483 0.11025 0.9111 0.0
H858 H 0.28763 0.18603 0.81411 0.0
H859 H 0.33609 0.1317 0.9441 0.0
H860 H 0.26165 0.11266 0.87004 0.0
H861 H 0.37975 0.15154 0.87419 0.0
C862 C 0.3657 0.18726 0.84497 0.0
C863 C 0.33867 0.19962 0.82935 0.0
C864 C 0.27826 0.11578 0.88628 0.0
C865 C 0.32645 0.1425 0.86095 0.0
C866 C 0.2629 0.11457 0.90971 0.0
C867 C 0.28303 0.12234 0.93089 0.0
C868 C 0.31374 0.12561 0.88412 0.0
C869 C 0.31942 0.12644 0.92819 0.0
C870 C 0.35985 0.15835 0.86055 0.0
C871 C 0.3084 0.17861 0.82689 0.0
N872 N 0.33346 0.12907 0.90516 0.0
N873 N 0.30252 0.1518 0.84321 0.0
H874 H 0.21955 0.91517 0.44217 0.0
H875 H 0.25966 0.85254 0.30804 0.0
H876 H 0.32188 0.91087 0.40842 0.0
H877 H 0.16265 0.83648 0.34771 0.0
H878 H 0.27445 0.90061 0.33634 0.0
H879 H 0.19264 0.91381 0.40091 0.0
C880 C 0.23639 0.9151 0.42603 0.0
C881 C 0.2729 0.91175 0.42862 0.0
C882 C 0.24936 0.88732 0.33829 0.0
C883 C 0.24238 0.90961 0.38155 0.0
C884 C 0.24094 0.85979 0.32218 0.0
C885 C 0.21078 0.83917 0.32633 0.0
C886 C 0.22757 0.89387 0.35869 0.0
C887 C 0.18675 0.85083 0.34418 0.0
C888 C 0.22102 0.91427 0.40247 0.0
C889 C 0.29351 0.91214 0.40714 0.0
N890 N 0.19618 0.8767 0.36023 0.0
N891 N 0.27794 0.91013 0.38448 0.0
H892 H 0.94028 0.50648 0.5586 0.0
H893 H 0.87306 0.46252 0.6908 0.0
H894 H 0.95557 0.40857 0.59866 0.0
H895 H 0.87673 0.56594 0.65694 0.0
H896 H 0.87533 0.43602 0.6496 0.0
H897 H 0.89032 0.51952 0.58525 0.0
C898 C 0.93251 0.4872 0.57247 0.0
C899 C 0.95334 0.45734 0.57728 0.0
C900 C 0.87447 0.46453 0.6511 0.0
C901 C 0.8965 0.47214 0.60779 0.0
C902 C 0.87309 0.47966 0.67463 0.0
C903 C 0.87615 0.51639 0.67719 0.0
C904 C 0.87946 0.48637 0.63021 0.0
C905 C 0.87571 0.53741 0.65568 0.0
C906 C 0.90389 0.4946 0.58762 0.0
C907 C 0.94106 0.43251 0.59469 0.0
N908 N 0.87836 0.52209 0.63307 0.0
N909 N 0.9141 0.44099 0.60986 0.0
H910 H 0.45643 0.41816 0.25912 0.0
H911 H 0.36833 0.56908 0.18572 0.0
H912 H 0.4484 0.52622 0.28349 0.0
H913 H 0.38794 0.46372 1.15915 0.0
H914 H 0.37134 0.54685 0.22834 0.0
H915 H 0.40561 0.42708 0.23239 0.0
C916 C 0.44318 0.44342 0.25967 0.0
C917 C 0.45777 0.47208 0.27262 0.0
C918 C 0.37392 0.52836 0.21319 0.0
C919 C 0.40041 0.48276 0.24126 0.0
C920 C 0.37238 0.54108 0.18887 0.0
C921 C 0.37944 0.51845 0.16898 0.0
C922 C 0.38332 0.49298 0.21753 0.0
C923 C 0.38321 0.48226 0.17398 0.0
C924 C 0.41419 0.44858 0.24417 0.0
C925 C 0.43897 0.50391 0.27283 0.0
N926 N 0.38613 0.47079 0.19781 0.0
N927 N 0.41194 0.50882 0.25666 0.0
H928 H 0.21932 0.34683 0.29735 0.0
H929 H 0.2683 0.55239 0.28461 0.0
H930 H 0.31701 0.39051 0.32443 0.0
H931 H 0.16363 0.51007 0.27618 0.0
H932 H 0.29013 0.49217 0.29243 0.0
H933 H 0.20199 0.40556 0.28296 0.0
C934 C 0.23727 0.36875 0.3001 0.0
C935 C 0.2696 0.36374 0.31222 0.0
C936 C 0.26246 0.49612 0.28861 0.0
C937 C 0.24984 0.43126 0.29583 0.0
C938 C 0.25007 0.53038 0.28396 0.0
C939 C 0.21411 0.53612 0.27986 0.0
C940 C 0.23868 0.46758 0.28888 0.0
C941 C 0.19154 0.50677 0.27937 0.0
C942 C 0.22729 0.40233 0.29197 0.0
C943 C 0.29163 0.39326 0.31548 0.0
N944 N 0.20415 0.47386 0.28393 0.0
N945 N 0.28134 0.42578 0.30735 0.0
H946 H 0.44068 0.46501 0.55998 0.0
H947 H 0.24074 0.51993 0.53346 0.0
H948 H 0.40447 0.5728 0.56371 0.0
H949 H 0.28011 0.41327 0.5309 0.0
H950 H 0.30097 0.54122 0.54092 0.0
H951 H 0.38229 0.44669 0.54649 0.0
C952 C 0.42036 0.48483 0.55809 0.0
C953 C 0.42744 0.52045 0.56325 0.0
C954 C 0.2964 0.5132 0.53845 0.0
C955 C 0.36029 0.49968 0.54743 0.0
C956 C 0.26211 0.50111 0.53405 0.0
C957 C 0.25549 0.4648 0.53172 0.0
C958 C 0.32405 0.48873 0.54048 0.0
C959 C 0.28403 0.44148 0.53274 0.0
C960 C 0.38702 0.4744 0.55018 0.0
C961 C 0.40021 0.54507 0.55985 0.0
N962 N 0.31693 0.4538 0.53721 0.0
N963 N 0.36776 0.5342 0.5523 0.0
H964 H 0.3281 0.6898 0.81085 0.0
H965 H 0.2737 0.48824 0.78604 0.0
H966 H 0.22227 0.65079 0.81995 0.0
H967 H 0.37923 0.52925 0.78065 0.0
H968 H 0.25261 0.54834 0.79439 0.0
H969 H 0.34592 0.63166 0.79654 0.0
C970 C 0.30862 0.66892 0.80999 0.0
C971 C 0.27371 0.67516 0.81687 0.0
C972 C 0.28032 0.54417 0.7911 0.0
C973 C 0.29385 0.60833 0.80008 0.0
C974 C 0.29229 0.50996 0.78617 0.0
C975 C 0.32826 0.50384 0.78281 0.0
C976 C 0.30457 0.57224 0.79258 0.0
C977 C 0.3513 0.53281 0.78328 0.0
C978 C 0.31874 0.63573 0.80161 0.0
C979 C 0.24944 0.64723 0.81474 0.0
N980 N 0.33911 0.56562 0.78827 0.0
N981 N 0.26 0.61497 0.80666 0.0
H982 H 0.10151 0.58111 1.06711 0.0
H983 H 0.29575 0.5245 1.02706 0.0
H984 H 0.13557 0.47255 1.06376 0.0
H985 H 0.26074 0.63237 1.03333 0.0
H986 H 0.23588 0.50432 1.03644 0.0
H987 H 0.15881 0.5999 1.05188 0.0
C988 C 0.12112 0.56121 1.06334 0.0
C989 C 0.11372 0.5252 1.06692 0.0
C990 C 0.24126 0.5324 1.03548 0.0
C991 C 0.17945 0.54653 1.049 0.0
C992 C 0.27533 0.54389 1.02995 0.0
C993 C 0.28316 0.58012 1.02958 0.0
C994 C 0.21501 0.55738 1.04064 0.0
C995 C 0.25583 0.60417 1.03358 0.0
C996 C 0.15379 0.57194 1.05441 0.0
C997 C 0.13999 0.50058 1.06113 0.0
N998 N 0.2231 0.59238 1.03913 0.0
N999 N 0.17172 0.51171 1.05256 0.0
H1000 H 0.88697 0.53344 1.06042 0.0
H1001 H 0.72439 0.66271 1.03576 0.0
H1002 H 0.77933 0.49809 1.06483 0.0
H1003 H 0.83232 0.68877 1.01961 0.0
H1004 H 0.74327 0.60434 1.05054 0.0
H1005 H 0.86665 0.59279 1.05056 0.0
C1006 C 0.85895 0.53833 1.05964 0.0
C1007 C 0.83477 0.51078 1.06329 0.0
C1008 C 0.76277 0.62285 1.04375 0.0
C1009 C 0.81123 0.57882 1.05167 0.0
C1010 C 0.75206 0.65617 1.03537 0.0
C1011 C 0.77683 0.68062 1.02636 0.0
C1012 C 0.79856 0.61404 1.04333 0.0
C1013 C 0.81227 0.67063 1.02607 0.0
C1014 C 0.84736 0.57222 1.05385 0.0
C1015 C 0.79881 0.51864 1.06215 0.0
N1016 N 0.82204 0.6382 1.03448 0.0
N1017 N 0.78806 0.55199 1.05623 0.0
H1018 H 0.60366 0.58719 0.76711 0.0
H1019 H 0.79118 0.52734 0.81907 0.0
H1020 H 0.62362 0.48039 0.79196 0.0
H1021 H 0.75908 0.63582 0.80949 0.0
H1022 H 0.73058 0.50846 0.80981 0.0
H1023 H 0.66144 0.60451 0.78223 0.0
C1024 C 0.62001 0.56737 0.77595 0.0
C1025 C 0.60847 0.53226 0.77831 0.0
C1026 C 0.73681 0.53639 0.81005 0.0
C1027 C 0.67541 0.55194 0.79543 0.0
C1028 C 0.77128 0.54715 0.81547 0.0
C1029 C 0.78015 0.58317 0.81486 0.0
C1030 C 0.71133 0.56189 0.80385 0.0
C1031 C 0.75345 0.60776 0.80998 0.0
C1032 C 0.65319 0.57729 0.78453 0.0
C1033 C 0.63147 0.50767 0.78942 0.0
N1034 N 0.72044 0.59667 0.80443 0.0
N1035 N 0.66387 0.51794 0.7975 0.0
H1036 H 0.81934 0.37601 0.54349 0.0
H1037 H 0.65668 0.50714 0.56026 0.0
H1038 H 0.71218 0.35114 0.52355 0.0
H1039 H 0.76415 0.54052 0.57075 0.0
H1040 H 0.67685 0.44735 0.55225 0.0
H1041 H 0.8 0.43403 0.55808 0.0
C1042 C 0.79173 0.38268 0.54228 0.0
C1043 C 0.76735 0.35873 0.53213 0.0
C1044 C 0.69612 0.46756 0.5565 0.0
C1045 C 0.7451 0.42497 0.54883 0.0
C1046 C 0.68459 0.50171 0.56122 0.0
C1047 C 0.70881 0.52884 0.566 0.0
C1048 C 0.73225 0.46031 0.55644 0.0
C1049 C 0.74464 0.52031 0.56711 0.0
C1050 C 0.78076 0.41582 0.55054 0.0
C1051 C 0.73198 0.36891 0.53085 0.0
N1052 N 0.75536 0.48676 0.56211 0.0
N1053 N 0.72197 0.40117 0.53909 0.0
H1054 H 0.78176 0.40677 0.31137 0.0
H1055 H 0.91637 0.56616 0.28923 0.0
H1056 H 0.74828 0.51546 0.31398 0.0
H1057 H 0.9335 0.4583 0.26654 0.0
H1058 H 0.8577 0.54923 0.30382 0.0
H1059 H 0.84117 0.42633 0.30222 0.0
C1060 C 0.78708 0.43488 0.31035 0.0
C1061 C 0.76001 0.45953 0.31321 0.0
C1062 C 0.87445 0.52937 0.29569 0.0
C1063 C 0.8282 0.48224 0.30233 0.0
C1064 C 0.90786 0.539 0.28718 0.0
C1065 C 0.9302 0.51361 0.27666 0.0
C1066 C 0.86341 0.49406 0.29388 0.0
C1067 C 0.91776 0.47873 0.27493 0.0
C1068 C 0.82101 0.44604 0.30495 0.0
C1069 C 0.76845 0.49563 0.31185 0.0
N1070 N 0.88539 0.47007 0.28347 0.0
N1071 N 0.80188 0.50598 0.30627 0.0
H1072 H 0.82611 0.88706 0.81218 0.0
H1073 H 0.66146 1.01099 0.78126 0.0
H1074 H 0.71797 0.85257 0.81384 0.0
H1075 H 0.76832 0.04916 0.78046 0.0
H1076 H 0.68283 0.95156 0.78963 0.0
H1077 H 0.80663 0.94532 0.79767 0.0
C1078 C 0.7983 0.89165 0.80938 0.0
C1079 C 0.77361 0.86489 0.81441 0.0
C1080 C 0.70176 0.97275 0.78742 0.0
C1081 C 0.75119 0.93152 0.79786 0.0
C1082 C 0.68955 1.00672 0.78253 0.0
C1083 C 0.71317 0.03504 0.78031 0.0
C1084 C 0.73796 0.9669 0.79028 0.0
C1085 C 0.74926 0.028 0.78205 0.0
C1086 C 0.78721 0.92495 0.80116 0.0
C1087 C 0.73792 0.8725 0.81065 0.0
N1088 N 0.7606 0.9946 0.78719 0.0
N1089 N 0.72783 0.90503 0.80266 0.0
H1090 H 0.74278 0.01911 1.03257 0.0
H1091 H 0.94165 0.96432 1.06336 0.0
H1092 H 0.78165 0.91217 1.03237 0.0
H1093 H 0.90598 0.07246 1.06373 0.0
H1094 H 0.88345 0.94561 1.04966 0.0
H1095 H 0.80285 0.04032 1.04074 0.0
C1096 C 0.76402 1.00019 1.03384 0.0
C1097 C 0.75727 0.96384 1.03195 0.0
C1098 C 0.88827 0.97348 1.05266 0.0
C1099 C 0.82567 0.98771 1.04155 0.0
C1100 C 0.9215 0.98415 1.0607 0.0
C1101 C 0.9287 0.02 1.06494 0.0
C1102 C 0.86178 0.99875 1.04885 0.0
C1103 C 0.90167 0.04456 1.06058 0.0
C1104 C 0.79822 1.01225 1.03865 0.0
C1105 C 0.78566 0.94041 1.03385 0.0
N1106 N 0.86935 0.03347 1.05291 0.0
N1107 N 0.81847 0.95271 1.03871 0.0
H1108 H 0.77308 0.98933 0.28508 0.0
H1109 H 0.82985 0.19029 0.31008 0.0
H1110 H 0.87944 0.02851 0.2813 0.0
H1111 H 0.72328 0.15281 0.31805 0.0
H1112 H 0.84725 0.1317 0.29637 0.0
H1113 H 0.75277 0.04979 0.29315 0.0
C1114 C 0.79203 1.01072 0.28552 0.0
C1115 C 0.82799 1.00397 0.28267 0.0
C1116 C 0.82001 0.13622 0.30106 0.0
C1117 C 0.80516 0.0728 0.29212 0.0
C1118 C 0.81011 0.16967 0.3091 0.0
C1119 C 0.7751 0.17649 0.31547 0.0
C1120 C 0.79479 0.10913 0.29936 0.0
C1121 C 0.75054 0.14884 0.31322 0.0
C1122 C 0.7805 0.04514 0.29028 0.0
C1123 C 0.85149 0.03255 0.28353 0.0
N1124 N 0.76087 0.11633 0.30546 0.0
N1125 N 0.83972 0.06559 0.28834 0.0
H1126 H 0.80098 0.02151 0.53476 0.0
H1127 H 0.6007 0.07986 0.55443 0.0
H1128 H 0.76379 0.1288 0.52914 0.0
H1129 H 0.63902 0.97573 0.57288 0.0
H1130 H 0.65915 0.09597 0.53979 0.0
H1131 H 0.7405 1.00183 0.543 0.0
C1132 C 0.78 0.04079 0.53479 0.0
C1133 C 0.7873 0.07683 0.53137 0.0
C1134 C 0.65482 0.06953 0.54697 0.0
C1135 C 0.71847 0.05472 0.54097 0.0
C1136 C 0.62138 0.06028 0.55524 0.0
C1137 C 0.61495 0.02643 0.56497 0.0
C1138 C 0.6822 0.04476 0.5483 0.0
C1139 C 0.64293 1.00228 0.56583 0.0
C1140 C 0.74559 0.02962 0.53968 0.0
C1141 C 0.75927 0.10078 0.53177 0.0
N1142 N 0.67535 1.01191 0.55762 0.0
N1143 N 0.72619 0.08934 0.53662 0.0
H1144 H 0.33602 0.19094 0.5179 0.0
H1145 H 0.28133 0.99953 0.56854 0.0
H1146 H 0.22991 0.16552 0.53954 0.0
H1147 H 0.38832 0.03518 0.55971 0.0
H1148 H 0.261 0.05964 0.55854 0.0
H1149 H 0.35484 0.13279 0.53239 0.0
C1150 C 0.31663 0.17301 0.52556 0.0
C1151 C 0.28133 0.18308 0.52742 0.0
C1152 C 0.28892 0.0543 0.55907 0.0
C1153 C 0.30275 0.1164 0.54438 0.0
C1154 C 0.3005 0.0201 0.56491 0.0
C1155 C 0.33652 1.01238 0.56477 0.0
C1156 C 0.31361 0.08066 0.55293 0.0
C1157 C 0.36028 0.03992 0.55984 0.0
C1158 C 0.32742 0.13989 0.53406 0.0
C1159 C 0.25744 0.15891 0.53792 0.0
N1160 N 0.34841 0.07265 0.5539 0.0
N1161 N 0.26854 0.12661 0.5459 0.0
H1162 H 0.12513 0.97469 0.29147 0.0
H1163 H 0.25687 0.1377 0.31014 0.0
H1164 H 0.10189 0.08225 0.27024 0.0
H1165 H 0.28957 0.02927 0.31889 0.0
H1166 H 0.19741 0.1176 0.30099 0.0
H1167 H 0.18316 0.99391 0.30615 0.0
C1168 C 0.13219 1.00236 0.28997 0.0
C1169 C 0.10866 0.02691 0.27952 0.0
C1170 C 0.21743 0.09812 0.3051 0.0
C1171 C 0.17489 0.04903 0.29634 0.0
C1172 C 0.25138 0.10959 0.31047 0.0
C1173 C 0.27824 0.08508 0.31508 0.0
C1174 C 0.21008 0.06178 0.30434 0.0
C1175 C 0.2696 0.04901 0.31539 0.0
C1176 C 0.16533 1.01326 0.29829 0.0
C1177 C 0.11932 0.06235 0.27784 0.0
N1178 N 0.23624 0.03838 0.30986 0.0
N1179 N 0.15157 0.07231 0.28619 0.0
H1180 H 0.26517 0.04226 1.07228 0.0
H1181 H 0.21314 0.8483 1.02575 0.0
H1182 H 0.15884 1.00621 1.06028 0.0
H1183 H 0.32008 0.87971 1.04123 0.0
H1184 H 0.19307 0.90562 1.04034 0.0
H1185 H 0.28617 0.98214 1.06404 0.0
C1186 C 0.24624 0.02158 1.06835 0.0
C1187 C 0.21025 0.02922 1.06676 0.0
C1188 C 0.22095 0.90002 1.04065 0.0
C1189 C 0.23398 0.96077 1.05698 0.0
C1190 C 0.23244 0.86734 1.03211 0.0
C1191 C 0.26838 0.85924 1.03206 0.0
C1192 C 0.24551 0.92505 1.04915 0.0
C1193 C 0.29211 0.88475 1.04105 0.0
C1194 C 0.25822 0.98735 1.06349 0.0
C1195 C 0.18684 1.00152 1.06152 0.0
N1196 N 0.28028 0.91659 1.04908 0.0
N1197 N 0.19912 0.96869 1.0566 0.0
H1198 H 0.41063 0.07049 0.78332 0.0
H1199 H 0.28541 0.90611 0.81449 0.0
H1200 H 0.44097 0.96111 0.7771 0.0
H1201 H 0.24929 1.01397 0.81605 0.0
H1202 H 0.3445 0.92703 0.80545 0.0
H1203 H 0.35325 0.05152 0.79902 0.0
C1204 C 0.4053 0.0425 0.78533 0.0
C1205 C 0.43065 1.01734 0.77871 0.0
C1206 C 0.32385 0.94627 0.80799 0.0
C1207 C 0.36504 0.9955 0.79666 0.0
C1208 C 0.29011 0.93432 0.8133 0.0
C1209 C 0.26243 0.95835 0.81588 0.0
C1210 C 0.33011 0.98262 0.80504 0.0
C1211 C 0.26996 0.9946 0.81421 0.0
C1212 C 0.3725 0.03171 0.79424 0.0
C1213 C 0.42212 0.98145 0.78152 0.0
N1214 N 0.30311 1.00568 0.80861 0.0
N1215 N 0.39012 0.97167 0.79025 0.0
H1216 H 0.34813 0.15649 0.21685 0.0
H1217 H 0.16004 0.11518 1.15792 0.0
H1218 H 0.25476 0.16685 0.26105 0.0
H1219 H 0.24206 0.16563 1.11562 0.0
H1220 H 0.19524 0.12461 0.19605 0.0
H1221 H 0.31106 0.15079 0.17958 0.0
C1222 C 0.31985 0.15801 0.21872 0.0
C1223 C 0.30472 0.16285 0.2422 0.0
C1224 C 0.20535 0.13372 0.17838 0.0
C1225 C 0.26182 0.15486 0.19945 0.0
C1226 C 0.18531 0.12825 1.15659 0.0
C1227 C 0.1978 0.13985 1.13338 0.0
C1228 C 0.23869 0.14991 0.17695 0.0
C1229 C 0.23097 0.15653 1.13298 0.0
C1230 C 0.29867 0.15463 0.1974 0.0
C1231 C 0.26773 0.16391 0.24336 0.0
N1232 N 0.25026 0.16064 1.15421 0.0
N1233 N 0.24762 0.15952 0.22243 0.0
H1234 H 0.60064 0.44339 0.38236 0.0
H1235 H 0.6889 0.57849 0.47725 0.0
H1236 H 0.71296 0.45077 0.39136 0.0
H1237 H 0.58961 0.52896 0.4941 0.0
H1238 H 0.69511 0.53927 0.44154 0.0
H1239 H 0.59331 0.48067 0.41924 0.0
C1240 C 0.62381 0.45258 0.39219 0.0
C1241 C 0.65752 0.44347 0.38373 0.0
C1242 C 0.67188 0.53705 0.45296 0.0
C1243 C 0.64918 0.48741 0.42574 0.0
C1244 C 0.66806 0.55974 0.47332 0.0
C1245 C 0.63849 0.55739 0.48889 0.0
C1246 C 0.64564 0.51204 0.44749 0.0
C1247 C 0.61278 0.53199 0.48273 0.0
C1248 C 0.61954 0.47392 0.41326 0.0
C1249 C 0.68647 0.45657 0.39726 0.0
N1250 N 0.6168 0.51061 0.46249 0.0
N1251 N 0.68165 0.47814 0.41727 0.0
H1252 H 0.21644 0.93495 0.7291 0.0
H1253 H 0.34503 0.84631 0.63177 0.0
H1254 H 0.26397 0.83432 0.74612 0.0
H1255 H 0.34515 0.95864 0.64434 0.0
H1256 H 0.30816 0.83826 0.66888 0.0
H1257 H 0.25491 0.94081 0.69303 0.0
C1258 C 0.2346 0.91375 0.72514 0.0
C1259 C 0.23663 0.88393 0.74086 0.0
C1260 C 0.31646 0.86462 0.66358 0.0
C1261 C 0.28103 0.89061 0.699 0.0
C1262 C 0.33753 0.86928 0.64237 0.0
C1263 C 0.34865 0.90323 0.6349 0.0
C1264 C 0.30526 0.89419 0.67709 0.0
C1265 C 0.33772 0.93195 0.64943 0.0
C1266 C 0.25683 0.91734 0.70456 0.0
C1267 C 0.26125 0.85772 0.73463 0.0
N1268 N 0.31637 0.92684 0.66949 0.0
N1269 N 0.28218 0.8615 0.71414 0.0
H1270 H 0.86734 0.6316 0.90739 0.0
H1271 H 0.9039 0.44157 0.96668 0.0
H1272 H 0.91384 0.54784 0.86489 0.0
H1273 H 0.91852 0.53579 1.01015 0.0
H1274 H 0.89798 0.4786 0.92921 0.0
H1275 H 0.87616 0.59582 0.94543 0.0
C1276 C 0.8794 0.6058 0.90601 0.0
C1277 C 0.89012 0.59301 0.88279 0.0
C1278 C 0.90276 0.49115 0.94693 0.0
C1279 C 0.89943 0.55146 0.92624 0.0
C1280 C 0.90626 0.46999 0.96835 0.0
C1281 C 0.91242 0.48539 0.99167 0.0
C1282 C 0.90423 0.52822 0.94877 0.0
C1283 C 0.91454 0.52258 0.99258 0.0
C1284 C 0.88451 0.58542 0.92774 0.0
C1285 C 0.90549 0.55916 0.88229 0.0
N1286 N 0.91007 0.54264 0.9716 0.0
N1287 N 0.90928 0.53957 0.90349 0.0
H1288 H 0.79931 0.87355 0.23068 0.0
H1289 H 0.78582 0.87937 1.08309 0.0
H1290 H 0.87722 0.92846 0.18722 0.0
H1291 H 0.69336 0.88563 1.12865 0.0
H1292 H 0.82257 0.88551 1.12049 0.0
H1293 H 0.76328 0.86619 0.19318 0.0
C1294 C 0.80909 0.8838 0.21322 0.0
C1295 C 0.84158 0.90162 0.21225 0.0
C1296 C 0.79426 0.88526 1.12231 0.0
C1297 C 0.80027 0.89269 0.1689 0.0
C1298 C 0.77317 0.88139 1.10099 0.0
C1299 C 0.73626 0.88162 1.10263 0.0
C1300 C 0.77853 0.88851 1.14571 0.0
C1301 C 0.72159 0.8851 1.12641 0.0
C1302 C 0.7883 0.87973 0.19182 0.0
C1303 C 0.85244 0.91459 0.18897 0.0
N1304 N 0.74268 0.88804 1.14695 0.0
N1305 N 0.83207 0.90956 0.16824 0.0
H1306 H 0.36685 0.62928 0.9367 0.0
H1307 H 0.40715 0.43995 0.87875 0.0
H1308 H 0.41716 0.54683 0.97932 0.0
H1309 H 0.41354 0.53438 0.83391 0.0
H1310 H 0.40227 0.47699 0.91599 0.0
H1311 H 0.37493 0.59364 0.89889 0.0
C1312 C 0.37962 0.60382 0.93816 0.0
C1313 C 0.39157 0.59136 0.96137 0.0
C1314 C 0.40498 0.4896 0.89801 0.0
C1315 C 0.4001 0.54992 0.91814 0.0
C1316 C 0.40783 0.46843 0.87672 0.0
C1317 C 0.41132 0.4839 0.85307 0.0
C1318 C 0.40442 0.52669 0.89575 0.0
C1319 C 0.41155 0.52114 0.85172 0.0
C1320 C 0.3843 0.5835 0.91655 0.0
C1321 C 0.40781 0.55791 0.96194 0.0
N1322 N 0.40775 0.54115 0.8726 0.0
N1323 N 0.41122 0.53836 0.94087 0.0
H1324 H 0.70039 0.07963 0.701 0.0
H1325 H 0.78732 0.2058 0.59877 0.0
H1326 H 0.70235 0.19255 0.71098 0.0
H1327 H 0.82844 0.10248 0.61605 0.0
H1328 H 0.74851 0.20101 0.63519 0.0
H1329 H 0.73875 0.08663 0.66476 0.0
C1330 C 0.70841 0.10597 0.6954 0.0
C1331 C 0.69788 0.13553 0.70917 0.0
C1332 C 0.76623 0.17953 0.63104 0.0
C1333 C 0.74192 0.14376 0.66733 0.0
C1334 C 0.78845 0.18226 0.61027 0.0
C1335 C 0.81167 0.15471 0.60434 0.0
C1336 C 0.76626 0.14855 0.64565 0.0
C1337 C 0.8115 0.12467 0.61993 0.0
C1338 C 0.7306 0.10991 0.67479 0.0
C1339 C 0.7097 0.16896 0.70102 0.0
N1340 N 0.78902 0.12225 0.63953 0.0
N1341 N 0.73078 0.17219 0.68062 0.0
H1342 H 0.12698 0.49365 0.47972 0.0
H1343 H 0.12984 0.50598 0.33213 0.0
H1344 H 0.17983 0.41488 0.43628 0.0
H1345 H 0.13812 0.59969 0.37691 0.0
H1346 H 0.13654 0.46959 0.36972 0.0
H1347 H 0.11956 0.52997 0.44217 0.0
C1348 C 0.13676 0.48375 0.46226 0.0
C1349 C 0.15401 0.4509 0.4613 0.0
C1350 C 0.13666 0.4981 0.37134 0.0
C1351 C 0.14502 0.49254 0.41791 0.0
C1352 C 0.13248 0.519 0.3499 0.0
C1353 C 0.13307 0.55616 0.35124 0.0
C1354 C 0.1406 0.51423 0.39462 0.0
C1355 C 0.13731 0.57126 0.37489 0.0
C1356 C 0.13268 0.5047 0.44084 0.0
C1357 C 0.16641 0.43991 0.43803 0.0
N1358 N 0.14053 0.55032 0.39559 0.0
N1359 N 0.16135 0.46042 0.41729 0.0
H1360 H 0.69619 0.58082 0.64296 0.0
H1361 H 0.78111 0.70783 0.74539 0.0
H1362 H 0.69896 0.69352 0.63121 0.0
H1363 H 0.82374 0.60523 0.72879 0.0
H1364 H 0.74217 0.70257 0.70872 0.0
H1365 H 0.73323 0.58834 0.68012 0.0
C1366 C 0.70402 0.60722 0.6484 0.0
C1367 C 0.69422 0.63656 0.63384 0.0
C1368 C 0.76021 0.68134 0.71313 0.0
C1369 C 0.73668 0.64541 0.67669 0.0
C1370 C 0.7825 0.68435 0.73404 0.0
C1371 C 0.80621 0.65717 0.74021 0.0
C1372 C 0.76071 0.65044 0.69867 0.0
C1373 C 0.80638 0.62717 0.72478 0.0
C1374 C 0.72546 0.61146 0.66952 0.0
C1375 C 0.70579 0.6701 0.64178 0.0
N1376 N 0.78387 0.62449 0.70507 0.0
N1377 N 0.72612 0.67364 0.66266 0.0
H1378 H 0.21262 0.94522 0.8938 0.0
H1379 H 0.08604 0.02918 0.99572 0.0
H1380 H 0.1006 0.94729 0.88192 0.0
H1381 H 0.18824 0.07261 0.97936 0.0
H1382 H 0.09133 0.99055 0.9591 0.0
H1383 H 0.20506 0.98245 0.93064 0.0
C1384 C 0.18636 0.95297 0.89912 0.0
C1385 C 0.15722 0.94286 0.88461 0.0
C1386 C 0.11247 1.00868 0.96355 0.0
C1387 C 0.14833 0.98553 0.92719 0.0
C1388 C 0.10945 0.0308 0.98445 0.0
C1389 C 0.13651 0.05465 0.99069 0.0
C1390 C 0.14326 1.00947 0.94914 0.0
C1391 C 0.1664 0.05512 0.97532 0.0
C1392 C 0.1821 0.97451 0.92008 0.0
C1393 C 0.12387 0.95434 0.89244 0.0
N1394 N 0.16909 0.03276 0.95561 0.0
N1395 N 0.12031 0.97474 0.91319 0.0
H1396 H 0.84462 0.46025 1.14289 0.0
H1397 H 0.75653 0.33283 0.24368 0.0
H1398 H 0.83932 0.34791 1.13065 0.0
H1399 H 0.71653 0.43715 0.22826 0.0
H1400 H 0.79461 0.33804 0.20691 0.0
H1401 H 0.80634 0.4529 0.17916 0.0
C1402 C 0.83586 0.43394 1.14798 0.0
C1403 C 0.84547 0.40466 1.13357 0.0
C1404 C 0.7773 0.35965 0.21152 0.0
C1405 C 0.80154 0.39603 0.17549 0.0
C1406 C 0.75547 0.35669 0.2325 0.0
C1407 C 0.73278 0.38439 0.23907 0.0
C1408 C 0.77744 0.39102 0.19734 0.0
C1409 C 0.73306 0.41483 0.22387 0.0
C1410 C 0.81372 0.42982 0.16862 0.0
C1411 C 0.83271 0.37129 1.14111 0.0
N1412 N 0.7552 0.41747 0.20406 0.0
N1413 N 0.81175 0.36785 1.16156 0.0
H1414 H 0.4213 0.03763 0.51225 0.0
H1415 H 0.41407 0.04842 0.36437 0.0
H1416 H 0.40534 0.94472 0.46763 0.0
H1417 H 0.36954 0.13117 0.40883 0.0
H1418 H 0.4226 1.01265 0.40197 0.0
H1419 H 0.41417 0.07453 0.47482 0.0
C1420 C 0.41697 0.02486 0.49454 0.0
C1421 C 0.41435 0.98777 0.4932 0.0
C1422 C 0.41111 0.03868 0.40354 0.0
C1423 C 0.40625 0.03023 0.45005 0.0
C1424 C 0.40638 0.05934 0.38206 0.0
C1425 C 0.39111 0.09314 0.38325 0.0
C1426 C 0.40141 0.052 0.42679 0.0
C1427 C 0.38139 0.10538 0.40688 0.0
C1428 C 0.41252 0.04606 0.47321 0.0
C1429 C 0.40789 0.97305 0.46966 0.0
N1430 N 0.38701 0.08504 0.42766 0.0
N1431 N 0.40443 0.99419 0.4491 0.0
H1432 H 0.30004 0.37452 0.73059 0.0
H1433 H 0.28551 0.38002 0.58299 0.0
H1434 H 0.37729 0.42975 0.68676 0.0
H1435 H 0.19322 0.38621 0.62871 0.0
H1436 H 0.3224 0.38632 0.62031 0.0
H1437 H 0.26369 0.36697 0.69322 0.0
C1438 C 0.30961 0.3848 0.71308 0.0
C1439 C 0.34202 0.40277 0.71197 0.0
C1440 C 0.29409 0.38602 0.62218 0.0
C1441 C 0.30034 0.39361 0.66877 0.0
C1442 C 0.27292 0.38205 0.60091 0.0
C1443 C 0.23601 0.38222 0.60261 0.0
C1444 C 0.27847 0.3893 0.64563 0.0
C1445 C 0.22145 0.38573 0.62642 0.0
C1446 C 0.28864 0.38062 0.69176 0.0
C1447 C 0.35259 0.41577 0.68863 0.0
N1448 N 0.24262 0.38876 0.64693 0.0
N1449 N 0.33207 0.41062 0.66798 0.0
H1450 H 0.8623 0.12805 0.43658 0.0
H1451 H 0.90509 0.93885 0.37956 0.0
H1452 H 0.91582 0.04772 0.47925 0.0
H1453 H 0.9108 0.03283 0.33422 0.0
H1454 H 0.89977 0.97628 0.4166 0.0
H1455 H 0.87026 0.09187 0.39898 0.0
C1456 C 0.8757 0.10291 0.4381 0.0
C1457 C 0.88864 0.09122 0.46122 0.0
C1458 C 0.90241 0.98869 0.39854 0.0
C1459 C 0.89704 0.04919 0.4183 0.0
C1460 C 0.90552 0.96731 0.37738 0.0
C1461 C 0.90899 0.98256 0.35367 0.0
C1462 C 0.90152 0.02575 0.39606 0.0
C1463 C 0.90886 0.01978 0.3521 0.0
C1464 C 0.88032 0.08231 0.41661 0.0
C1465 C 0.9057 0.05819 0.4619 0.0
N1466 N 0.90479 0.03999 0.37286 0.0
N1467 N 0.90903 0.03833 0.44097 0.0
H1468 H 0.20112 0.57928 0.20101 0.0
H1469 H 0.28307 0.70551 1.09694 0.0
H1470 H 0.19891 0.69235 0.21002 0.0
H1471 H 0.32895 0.60505 1.11663 0.0
H1472 H 0.24441 0.70052 1.13348 0.0
H1473 H 0.23933 0.58704 1.1648 0.0
C1474 C 0.20821 0.6058 0.19521 0.0
C1475 C 0.19653 0.63518 0.20871 0.0
C1476 C 0.26313 0.67974 1.1298 0.0
C1477 C 0.24035 0.64428 0.16682 0.0
C1478 C 0.28526 0.68258 1.10895 0.0
C1479 C 0.30972 0.65587 1.10363 0.0
C1480 C 0.26457 0.64944 1.14509 0.0
C1481 C 0.31093 0.62659 1.11993 0.0
C1482 C 0.2303 0.61018 0.1746 0.0
C1483 C 0.20718 0.66888 0.20028 0.0
N1484 N 0.28855 0.62401 1.13957 0.0
N1485 N 0.22816 0.67253 0.17985 0.0
H1486 H 0.62827 0.99397 0.98019 0.0
H1487 H 0.63092 1.00826 0.8328 0.0
H1488 H 0.68047 0.91527 0.9363 0.0
H1489 H 0.6412 0.1013 0.87807 0.0
H1490 H 0.63738 0.97132 0.87015 0.0
H1491 H 0.62139 0.0309 0.94289 0.0
C1492 C 0.63802 0.98421 0.96267 0.0
C1493 C 0.65491 0.9512 0.96151 0.0
C1494 C 0.63798 0.99981 0.87193 0.0
C1495 C 0.64655 0.99356 0.91842 0.0
C1496 C 0.63395 0.02103 0.85063 0.0
C1497 C 0.63515 0.05816 0.85218 0.0
C1498 C 0.64238 1.0156 0.89527 0.0
C1499 C 0.6399 0.07291 0.87589 0.0
C1500 C 0.63425 1.00552 0.9414 0.0
C1501 C 0.6673 0.94041 0.93819 0.0
N1502 N 0.64294 0.05168 0.89646 0.0
N1503 N 0.66253 0.96127 0.91759 0.0
loop_
_geom_bond_atom_site_label_1
_geom_bond_atom_site_label_2
_geom_bond_distance
_geom_bond_site_symmetry_2
_ccdc_geom_bond_type
Sm0 C2 2.846 . S
Sm0 O20 2.543 . S
Sm0 O21 2.450 . S
Sm0 O22 2.681 . S
Sm0 O23 2.464 . S
Sm0 O24 2.396 . S
Sm0 O28 2.386 . S
Sm0 O31 2.408 . S
Sm1 C11 2.846 . S
Sm1 O22 2.386 . S
Sm1 O25 2.408 . S
Sm1 O26 2.543 . S
Sm1 O27 2.450 . S
Sm1 O28 2.681 . S
Sm1 O29 2.464 . S
Sm1 O30 2.396 . S
C2 Sm0 2.846 . S
C2 C3 1.506 . S
C2 O20 1.261 . S
C2 O21 1.242 . S
C3 C2 1.506 . S
C3 C4 1.358 . S
C3 C8 1.382 . S
C4 C3 1.358 . S
C4 C5 1.385 . S
C4 H32 0.930 . S
C5 C4 1.385 . S
C5 C6 1.395 . S
C5 H33 0.929 . S
C6 C5 1.395 . S
C6 C7 1.335 . S
C7 C6 1.335 . S
C7 C8 1.398 . S
C7 H34 0.930 . S
C8 C3 1.382 . S
C8 C7 1.398 . S
C8 H35 0.929 . S
C9 O22 1.271 . S
C9 O23 1.251 . S
C10 O24 1.252 . S
C10 O25 1.272 . S
C11 Sm1 2.846 . S
C11 C12 1.506 . S
C11 O26 1.261 . S
C11 O27 1.242 . S
C12 C11 1.506 . S
C12 C13 1.358 . S
C12 C17 1.382 . S
C13 C12 1.358 . S
C13 C14 1.385 . S
C13 H36 0.930 . S
C14 C13 1.385 . S
C14 C15 1.395 1_545 S
C14 H37 0.929 . S
C15 C14 1.395 1_565 S
C15 C16 1.335 . S
C16 C15 1.335 . S
C16 C17 1.398 1_565 S
C16 H38 0.930 . S
C17 C12 1.382 . S
C17 C16 1.398 1_545 S
C17 H39 0.929 1_545 S
C18 O28 1.271 . S
C18 O29 1.251 . S
C19 O30 1.252 . S
C19 O31 1.272 . S
O20 Sm0 2.543 . S
O20 C2 1.261 . S
O21 Sm0 2.450 . S
O21 C2 1.242 . S
O22 Sm0 2.681 . S
O22 Sm1 2.386 . S
O22 C9 1.271 . S
O23 Sm0 2.464 . S
O23 C9 1.251 . S
O24 Sm0 2.396 . S
O24 C10 1.252 . S
O25 Sm1 2.408 . S
O25 C10 1.272 . S
O26 Sm1 2.543 . S
O26 C11 1.261 . S
O27 Sm1 2.450 . S
O27 C11 1.242 . S
O28 Sm0 2.386 . S
O28 Sm1 2.681 . S
O28 C18 1.271 . S
O29 Sm1 2.464 . S
O29 C18 1.251 . S
O30 Sm1 2.396 . S
O30 C19 1.252 . S
O31 Sm0 2.408 . S
O31 C19 1.272 . S
H32 C4 0.930 . S
H33 C5 0.929 . S
H34 C7 0.930 . S
H35 C8 0.929 . S
H36 C13 0.930 . S
H37 C14 0.929 . S
H38 C16 0.930 . S
H39 C17 0.929 1_565 S
Sm40 C42 2.846 . S
Sm40 O60 2.543 . S
Sm40 O61 2.450 . S
Sm40 O62 2.681 . S
Sm40 O63 2.464 . S
Sm40 O64 2.396 . S
Sm40 O68 2.386 . S
Sm40 O71 2.408 . S
Sm41 C51 2.846 . S
Sm41 O62 2.386 . S
Sm41 O65 2.408 . S
Sm41 O66 2.543 . S
Sm41 O67 2.450 . S
Sm41 O68 2.681 . S
Sm41 O69 2.464 . S
Sm41 O70 2.396 . S
C42 Sm40 2.846 . S
C42 C43 1.506 . S
C42 O60 1.261 . S
C42 O61 1.242 . S
C43 C42 1.506 . S
C43 C44 1.358 . S
C43 C48 1.382 . S
C44 C43 1.358 . S
C44 C45 1.385 . S
C44 H72 0.930 . S
C45 C44 1.385 . S
C45 C46 1.395 . S
C45 H73 0.929 . S
C46 C45 1.395 . S
C46 C47 1.335 . S
C47 C46 1.335 . S
C47 C48 1.398 . S
C47 H74 0.930 . S
C48 C43 1.382 . S
C48 C47 1.398 . S
C48 H75 0.929 . S
C49 O62 1.271 . S
C49 O63 1.251 . S
C50 O64 1.252 . S
C50 O65 1.272 . S
C51 Sm41 2.846 . S
C51 C52 1.506 . S
C51 O66 1.261 . S
C51 O67 1.242 . S
C52 C51 1.506 . S
C52 C53 1.358 . S
C52 C57 1.382 . S
C53 C52 1.358 . S
C53 C54 1.385 . S
C53 H76 0.930 . S
C54 C53 1.385 . S
C54 C55 1.395 . S
C54 H77 0.929 . S
C55 C54 1.395 . S
C55 C56 1.335 . S
C56 C55 1.335 . S
C56 C57 1.398 . S
C56 H78 0.930 . S
C57 C52 1.382 . S
C57 C56 1.398 . S
C57 H79 0.929 . S
C58 O68 1.271 . S
C58 O69 1.251 . S
C59 O70 1.252 . S
C59 O71 1.272 . S
O60 Sm40 2.543 . S
O60 C42 1.261 . S
O61 Sm40 2.450 . S
O61 C42 1.242 . S
O62 Sm40 2.681 . S
O62 Sm41 2.386 . S
O62 C49 1.271 . S
O63 Sm40 2.464 . S
O63 C49 1.251 . S
O64 Sm40 2.396 . S
O64 C50 1.252 . S
O65 Sm41 2.408 . S
O65 C50 1.272 . S
O66 Sm41 2.543 . S
O66 C51 1.261 . S
O67 Sm41 2.450 . S
O67 C51 1.242 . S
O68 Sm40 2.386 . S
O68 Sm41 2.681 . S
O68 C58 1.271 . S
O69 Sm41 2.464 . S
O69 C58 1.251 . S
O70 Sm41 2.396 . S
O70 C59 1.252 . S
O71 Sm40 2.408 . S
O71 C59 1.272 . S
H72 C44 0.930 . S
H73 C45 0.929 . S
H74 C47 0.930 . S
H75 C48 0.929 . S
H76 C53 0.930 . S
H77 C54 0.929 . S
H78 C56 0.930 . S
H79 C57 0.929 . S
Sm80 C82 2.846 . S
Sm80 O100 2.543 . S
Sm80 O101 2.450 . S
Sm80 O102 2.681 . S
Sm80 O103 2.464 . S
Sm80 O104 2.396 . S
Sm80 O108 2.386 . S
Sm80 O111 2.408 . S
Sm81 C91 2.846 . S
Sm81 O102 2.386 . S
Sm81 O105 2.408 . S
Sm81 O106 2.543 . S
Sm81 O107 2.450 . S
Sm81 O108 2.681 . S
Sm81 O109 2.464 . S
Sm81 O110 2.396 . S
C82 Sm80 2.846 . S
C82 C83 1.506 . S
C82 O100 1.261 . S
C82 O101 1.242 . S
C83 C82 1.506 . S
C83 C84 1.358 . S
C83 C88 1.382 . S
C84 C83 1.358 . S
C84 C85 1.385 . S
C84 H112 0.930 . S
C85 C84 1.385 . S
C85 C86 1.395 . S
C85 H113 0.929 . S
C86 C85 1.395 . S
C86 C87 1.335 . S
C87 C86 1.335 . S
C87 C88 1.398 . S
C87 H114 0.930 . S
C88 C83 1.382 . S
C88 C87 1.398 . S
C88 H115 0.929 . S
C89 O102 1.271 . S
C89 O103 1.251 . S
C90 O104 1.252 . S
C90 O105 1.272 . S
C91 Sm81 2.846 . S
C91 C92 1.506 . S
C91 O106 1.261 . S
C91 O107 1.242 . S
C92 C91 1.506 . S
C92 C93 1.358 . S
C92 C97 1.382 . S
C93 C92 1.358 . S
C93 C94 1.385 . S
C93 H116 0.930 . S
C94 C93 1.385 . S
C94 C95 1.395 1_565 S
C94 H117 0.929 . S
C95 C94 1.395 1_545 S
C95 C96 1.335 . S
C96 C95 1.335 . S
C96 C97 1.398 1_545 S
C96 H118 0.930 . S
C97 C92 1.382 . S
C97 C96 1.398 1_565 S
C97 H119 0.929 1_565 S
C98 O108 1.271 . S
C98 O109 1.251 . S
C99 O110 1.252 . S
C99 O111 1.272 . S
O100 Sm80 2.543 . S
O100 C82 1.261 . S
O101 Sm80 2.450 . S
O101 C82 1.242 . S
O102 Sm80 2.681 . S
O102 Sm81 2.386 . S
O102 C89 1.271 . S
O103 Sm80 2.464 . S
O103 C89 1.251 . S
O104 Sm80 2.396 . S
O104 C90 1.252 . S
O105 Sm81 2.408 . S
O105 C90 1.272 . S
O106 Sm81 2.543 . S
O106 C91 1.261 . S
O107 Sm81 2.450 . S
O107 C91 1.242 . S
O108 Sm80 2.386 . S
O108 Sm81 2.681 . S
O108 C98 1.271 . S
O109 Sm81 2.464 . S
O109 C98 1.251 . S
O110 Sm81 2.396 . S
O110 C99 1.252 . S
O111 Sm80 2.408 . S
O111 C99 1.272 . S
H112 C84 0.930 . S
H113 C85 0.929 . S
H114 C87 0.930 . S
H115 C88 0.929 . S
H116 C93 0.930 . S
H117 C94 0.929 . S
H118 C96 0.930 . S
H119 C97 0.929 1_545 S
Sm120 C122 2.846 . S
Sm120 O140 2.543 . S
Sm120 O141 2.450 . S
Sm120 O142 2.681 . S
Sm120 O143 2.464 . S
Sm120 O144 2.396 . S
Sm120 O148 2.386 . S
Sm120 O151 2.408 . S
Sm121 C131 2.846 . S
Sm121 O142 2.386 . S
Sm121 O145 2.408 . S
Sm121 O146 2.543 . S
Sm121 O147 2.450 . S
Sm121 O148 2.681 . S
Sm121 O149 2.464 . S
Sm121 O150 2.396 . S
C122 Sm120 2.846 . S
C122 C123 1.506 1_655 S
C122 O140 1.261 . S
C122 O141 1.242 . S
C123 C122 1.506 1_455 S
C123 C124 1.358 1_455 S
C123 C128 1.382 . S
C124 C123 1.358 1_655 S
C124 C125 1.385 1_655 S
C124 H152 0.930 . S
C125 C124 1.385 1_455 S
C125 C126 1.395 . S
C125 H153 0.929 . S
C126 C125 1.395 . S
C126 C127 1.335 . S
C127 C126 1.335 . S
C127 C128 1.398 . S
C127 H154 0.930 . S
C128 C123 1.382 . S
C128 C127 1.398 . S
C128 H155 0.929 . S
C129 O142 1.271 . S
C129 O143 1.251 . S
C130 O144 1.252 . S
C130 O145 1.272 . S
C131 Sm121 2.846 . S
C131 C132 1.506 . S
C131 O146 1.261 . S
C131 O147 1.242 . S
C132 C131 1.506 . S
C132 C133 1.358 . S
C132 C137 1.382 . S
C133 C132 1.358 . S
C133 C134 1.385 . S
C133 H156 0.930 . S
C134 C133 1.385 . S
C134 C135 1.395 . S
C134 H157 0.929 . S
C135 C134 1.395 . S
C135 C136 1.335 . S
C136 C135 1.335 . S
C136 C137 1.398 . S
C136 H158 0.930 . S
C137 C132 1.382 . S
C137 C136 1.398 . S
C137 H159 0.929 . S
C138 O148 1.271 . S
C138 O149 1.251 . S
C139 O150 1.252 . S
C139 O151 1.272 . S
O140 Sm120 2.543 . S
O140 C122 1.261 . S
O141 Sm120 2.450 . S
O141 C122 1.242 . S
O142 Sm120 2.681 . S
O142 Sm121 2.386 . S
O142 C129 1.271 . S
O143 Sm120 2.464 . S
O143 C129 1.251 . S
O144 Sm120 2.396 . S
O144 C130 1.252 . S
O145 Sm121 2.408 . S
O145 C130 1.272 . S
O146 Sm121 2.543 . S
O146 C131 1.261 . S
O147 Sm121 2.450 . S
O147 C131 1.242 . S
O148 Sm120 2.386 . S
O148 Sm121 2.681 . S
O148 C138 1.271 . S
O149 Sm121 2.464 . S
O149 C138 1.251 . S
O150 Sm121 2.396 . S
O150 C139 1.252 . S
O151 Sm120 2.408 . S
O151 C139 1.272 . S
H152 C124 0.930 . S
H153 C125 0.929 . S
H154 C127 0.930 . S
H155 C128 0.929 . S
H156 C133 0.930 . S
H157 C134 0.929 . S
H158 C136 0.930 . S
H159 C137 0.929 . S
Sm160 C162 2.846 . S
Sm160 O180 2.543 . S
Sm160 O181 2.450 . S
Sm160 O182 2.681 . S
Sm160 O183 2.464 . S
Sm160 O184 2.396 . S
Sm160 O188 2.386 . S
Sm160 O191 2.408 . S
Sm161 C171 2.846 . S
Sm161 O182 2.386 . S
Sm161 O185 2.408 . S
Sm161 O186 2.543 . S
Sm161 O187 2.450 . S
Sm161 O188 2.681 . S
Sm161 O189 2.464 . S
Sm161 O190 2.396 . S
C162 Sm160 2.846 . S
C162 C163 1.506 . S
C162 O180 1.261 . S
C162 O181 1.242 . S
C163 C162 1.506 . S
C163 C164 1.358 . S
C163 C168 1.382 . S
C164 C163 1.358 . S
C164 C165 1.385 . S
C164 H192 0.930 . S
C165 C164 1.385 . S
C165 C166 1.395 1_565 S
C165 H193 0.929 . S
C166 C165 1.395 1_545 S
C166 C167 1.335 . S
C167 C166 1.335 . S
C167 C168 1.398 1_545 S
C167 H194 0.930 . S
C168 C163 1.382 . S
C168 C167 1.398 1_565 S
C168 H195 0.929 1_565 S
C169 O182 1.271 . S
C169 O183 1.251 . S
C170 O184 1.252 . S
C170 O185 1.272 . S
C171 Sm161 2.846 . S
C171 C172 1.506 . S
C171 O186 1.261 . S
C171 O187 1.242 . S
C172 C171 1.506 . S
C172 C173 1.358 . S
C172 C177 1.382 . S
C173 C172 1.358 . S
C173 C174 1.385 . S
C173 H196 0.930 . S
C174 C173 1.385 . S
C174 C175 1.395 . S
C174 H197 0.929 . S
C175 C174 1.395 . S
C175 C176 1.335 . S
C176 C175 1.335 . S
C176 C177 1.398 . S
C176 H198 0.930 . S
C177 C172 1.382 . S
C177 C176 1.398 . S
C177 H199 0.929 . S
C178 O188 1.271 . S
C178 O189 1.251 . S
C179 O190 1.252 . S
C179 O191 1.272 . S
O180 Sm160 2.543 . S
O180 C162 1.261 . S
O181 Sm160 2.450 . S
O181 C162 1.242 . S
O182 Sm160 2.681 . S
O182 Sm161 2.386 . S
O182 C169 1.271 . S
O183 Sm160 2.464 . S
O183 C169 1.251 . S
O184 Sm160 2.396 . S
O184 C170 1.252 . S
O185 Sm161 2.408 . S
O185 C170 1.272 . S
O186 Sm161 2.543 . S
O186 C171 1.261 . S
O187 Sm161 2.450 . S
O187 C171 1.242 . S
O188 Sm160 2.386 . S
O188 Sm161 2.681 . S
O188 C178 1.271 . S
O189 Sm161 2.464 . S
O189 C178 1.251 . S
O190 Sm161 2.396 . S
O190 C179 1.252 . S
O191 Sm160 2.408 . S
O191 C179 1.272 . S
H192 C164 0.930 . S
H193 C165 0.929 . S
H194 C167 0.930 . S
H195 C168 0.929 1_545 S
H196 C173 0.930 . S
H197 C174 0.929 . S
H198 C176 0.930 . S
H199 C177 0.929 . S
Sm200 C202 2.846 . S
Sm200 O220 2.543 . S
Sm200 O221 2.450 . S
Sm200 O222 2.681 . S
Sm200 O223 2.464 . S
Sm200 O224 2.396 . S
Sm200 O228 2.386 . S
Sm200 O231 2.408 . S
Sm201 C211 2.846 . S
Sm201 O222 2.386 . S
Sm201 O225 2.408 . S
Sm201 O226 2.543 . S
Sm201 O227 2.450 . S
Sm201 O228 2.681 . S
Sm201 O229 2.464 . S
Sm201 O230 2.396 . S
C202 Sm200 2.846 . S
C202 C203 1.506 . S
C202 O220 1.261 . S
C202 O221 1.242 . S
C203 C202 1.506 . S
C203 C204 1.358 . S
C203 C208 1.382 . S
C204 C203 1.358 . S
C204 C205 1.385 . S
C204 H232 0.930 . S
C205 C204 1.385 . S
C205 C206 1.395 . S
C205 H233 0.929 . S
C206 C205 1.395 . S
C206 C207 1.335 . S
C207 C206 1.335 . S
C207 C208 1.398 . S
C207 H234 0.930 . S
C208 C203 1.382 . S
C208 C207 1.398 . S
C208 H235 0.929 . S
C209 O222 1.271 . S
C209 O223 1.251 . S
C210 O224 1.252 . S
C210 O225 1.272 . S
C211 Sm201 2.846 . S
C211 C212 1.506 . S
C211 O226 1.261 . S
C211 O227 1.242 . S
C212 C211 1.506 . S
C212 C213 1.358 . S
C212 C217 1.382 . S
C213 C212 1.358 . S
C213 C214 1.385 . S
C213 H236 0.930 . S
C214 C213 1.385 . S
C214 C215 1.395 . S
C214 H237 0.929 . S
C215 C214 1.395 . S
C215 C216 1.335 . S
C216 C215 1.335 . S
C216 C217 1.398 . S
C216 H238 0.930 . S
C217 C212 1.382 . S
C217 C216 1.398 . S
C217 H239 0.929 . S
C218 O228 1.271 . S
C218 O229 1.251 . S
C219 O230 1.252 . S
C219 O231 1.272 . S
O220 Sm200 2.543 . S
O220 C202 1.261 . S
O221 Sm200 2.450 . S
O221 C202 1.242 . S
O222 Sm200 2.681 . S
O222 Sm201 2.386 . S
O222 C209 1.271 . S
O223 Sm200 2.464 . S
O223 C209 1.251 . S
O224 Sm200 2.396 . S
O224 C210 1.252 . S
O225 Sm201 2.408 . S
O225 C210 1.272 . S
O226 Sm201 2.543 . S
O226 C211 1.261 . S
O227 Sm201 2.450 . S
O227 C211 1.242 . S
O228 Sm200 2.386 . S
O228 Sm201 2.681 . S
O228 C218 1.271 . S
O229 Sm201 2.464 . S
O229 C218 1.251 . S
O230 Sm201 2.396 . S
O230 C219 1.252 . S
O231 Sm200 2.408 . S
O231 C219 1.272 . S
H232 C204 0.930 . S
H233 C205 0.929 . S
H234 C207 0.930 . S
H235 C208 0.929 . S
H236 C213 0.930 . S
H237 C214 0.929 . S
H238 C216 0.930 . S
H239 C217 0.929 . S
Sm240 C242 2.846 . S
Sm240 O260 2.543 . S
Sm240 O261 2.450 . S
Sm240 O262 2.681 . S
Sm240 O263 2.464 . S
Sm240 O264 2.396 . S
Sm240 O268 2.386 . S
Sm240 O271 2.408 . S
Sm241 C251 2.846 . S
Sm241 O262 2.386 . S
Sm241 O265 2.408 . S
Sm241 O266 2.543 . S
Sm241 O267 2.450 . S
Sm241 O268 2.681 . S
Sm241 O269 2.464 . S
Sm241 O270 2.396 . S
C242 Sm240 2.846 . S
C242 C243 1.506 . S
C242 O260 1.261 . S
C242 O261 1.242 . S
C243 C242 1.506 . S
C243 C244 1.358 . S
C243 C248 1.382 . S
C244 C243 1.358 . S
C244 C245 1.385 . S
C244 H272 0.930 . S
C245 C244 1.385 . S
C245 C246 1.395 1_545 S
C245 H273 0.929 . S
C246 C245 1.395 1_565 S
C246 C247 1.335 . S
C247 C246 1.335 . S
C247 C248 1.398 1_565 S
C247 H274 0.930 . S
C248 C243 1.382 . S
C248 C247 1.398 1_545 S
C248 H275 0.929 1_545 S
C249 O262 1.271 . S
C249 O263 1.251 . S
C250 O264 1.252 . S
C250 O265 1.272 . S
C251 Sm241 2.846 . S
C251 C252 1.506 . S
C251 O266 1.261 . S
C251 O267 1.242 . S
C252 C251 1.506 . S
C252 C253 1.358 . S
C252 C257 1.382 . S
C253 C252 1.358 . S
C253 C254 1.385 . S
C253 H276 0.930 . S
C254 C253 1.385 . S
C254 C255 1.395 . S
C254 H277 0.929 . S
C255 C254 1.395 . S
C255 C256 1.335 . S
C256 C255 1.335 . S
C256 C257 1.398 . S
C256 H278 0.930 . S
C257 C252 1.382 . S
C257 C256 1.398 . S
C257 H279 0.929 . S
C258 O268 1.271 . S
C258 O269 1.251 . S
C259 O270 1.252 . S
C259 O271 1.272 . S
O260 Sm240 2.543 . S
O260 C242 1.261 . S
O261 Sm240 2.450 . S
O261 C242 1.242 . S
O262 Sm240 2.681 . S
O262 Sm241 2.386 . S
O262 C249 1.271 . S
O263 Sm240 2.464 . S
O263 C249 1.251 . S
O264 Sm240 2.396 . S
O264 C250 1.252 . S
O265 Sm241 2.408 . S
O265 C250 1.272 . S
O266 Sm241 2.543 . S
O266 C251 1.261 . S
O267 Sm241 2.450 . S
O267 C251 1.242 . S
O268 Sm240 2.386 . S
O268 Sm241 2.681 . S
O268 C258 1.271 . S
O269 Sm241 2.464 . S
O269 C258 1.251 . S
O270 Sm241 2.396 . S
O270 C259 1.252 . S
O271 Sm240 2.408 . S
O271 C259 1.272 . S
H272 C244 0.930 . S
H273 C245 0.929 . S
H274 C247 0.930 . S
H275 C248 0.929 1_565 S
H276 C253 0.930 . S
H277 C254 0.929 . S
H278 C256 0.930 . S
H279 C257 0.929 . S
Sm280 C282 2.846 . S
Sm280 O300 2.543 . S
Sm280 O301 2.450 . S
Sm280 O302 2.681 . S
Sm280 O303 2.464 . S
Sm280 O304 2.396 . S
Sm280 O308 2.386 . S
Sm280 O311 2.408 . S
Sm281 C291 2.846 . S
Sm281 O302 2.386 . S
Sm281 O305 2.408 . S
Sm281 O306 2.543 . S
Sm281 O307 2.450 . S
Sm281 O308 2.681 . S
Sm281 O309 2.464 . S
Sm281 O310 2.396 . S
C282 Sm280 2.846 . S
C282 C283 1.506 . S
C282 O300 1.261 . S
C282 O301 1.242 . S
C283 C282 1.506 . S
C283 C284 1.358 . S
C283 C288 1.382 . S
C284 C283 1.358 . S
C284 C285 1.385 . S
C284 H312 0.930 . S
C285 C284 1.385 . S
C285 C286 1.395 . S
C285 H313 0.929 . S
C286 C285 1.395 . S
C286 C287 1.335 . S
C287 C286 1.335 . S
C287 C288 1.398 . S
C287 H314 0.930 . S
C288 C283 1.382 . S
C288 C287 1.398 . S
C288 H315 0.929 . S
C289 O302 1.271 . S
C289 O303 1.251 . S
C290 O304 1.252 . S
C290 O305 1.272 . S
C291 Sm281 2.846 . S
C291 C292 1.506 1_455 S
C291 O306 1.261 . S
C291 O307 1.242 . S
C292 C291 1.506 1_655 S
C292 C293 1.358 1_655 S
C292 C297 1.382 . S
C293 C292 1.358 1_455 S
C293 C294 1.385 1_455 S
C293 H316 0.930 . S
C294 C293 1.385 1_655 S
C294 C295 1.395 . S
C294 H317 0.929 . S
C295 C294 1.395 . S
C295 C296 1.335 . S
C296 C295 1.335 . S
C296 C297 1.398 . S
C296 H318 0.930 . S
C297 C292 1.382 . S
C297 C296 1.398 . S
C297 H319 0.929 . S
C298 O308 1.271 . S
C298 O309 1.251 . S
C299 O310 1.252 . S
C299 O311 1.272 . S
O300 Sm280 2.543 . S
O300 C282 1.261 . S
O301 Sm280 2.450 . S
O301 C282 1.242 . S
O302 Sm280 2.681 . S
O302 Sm281 2.386 . S
O302 C289 1.271 . S
O303 Sm280 2.464 . S
O303 C289 1.251 . S
O304 Sm280 2.396 . S
O304 C290 1.252 . S
O305 Sm281 2.408 . S
O305 C290 1.272 . S
O306 Sm281 2.543 . S
O306 C291 1.261 . S
O307 Sm281 2.450 . S
O307 C291 1.242 . S
O308 Sm280 2.386 . S
O308 Sm281 2.681 . S
O308 C298 1.271 . S
O309 Sm281 2.464 . S
O309 C298 1.251 . S
O310 Sm281 2.396 . S
O310 C299 1.252 . S
O311 Sm280 2.408 . S
O311 C299 1.272 . S
H312 C284 0.930 . S
H313 C285 0.929 . S
H314 C287 0.930 . S
H315 C288 0.929 . S
H316 C293 0.930 . S
H317 C294 0.929 . S
H318 C296 0.930 . S
H319 C297 0.929 . S
Sm320 C322 2.846 . S
Sm320 O340 2.543 . S
Sm320 O341 2.450 . S
Sm320 O342 2.681 . S
Sm320 O343 2.464 . S
Sm320 O344 2.396 . S
Sm320 O348 2.386 . S
Sm320 O351 2.408 . S
Sm321 C331 2.846 . S
Sm321 O342 2.386 . S
Sm321 O345 2.408 . S
Sm321 O346 2.543 . S
Sm321 O347 2.450 . S
Sm321 O348 2.681 . S
Sm321 O349 2.464 . S
Sm321 O350 2.396 . S
C322 Sm320 2.846 . S
C322 C323 1.506 . S
C322 O340 1.261 . S
C322 O341 1.242 . S
C323 C322 1.506 . S
C323 C324 1.358 . S
C323 C328 1.382 . S
C324 C323 1.358 . S
C324 C325 1.385 . S
C324 H352 0.930 . S
C325 C324 1.385 . S
C325 C326 1.395 . S
C325 H353 0.929 . S
C326 C325 1.395 . S
C326 C327 1.335 . S
C327 C326 1.335 . S
C327 C328 1.398 . S
C327 H354 0.930 . S
C328 C323 1.382 . S
C328 C327 1.398 . S
C328 H355 0.929 . S
C329 O342 1.271 . S
C329 O343 1.251 . S
C330 O344 1.252 . S
C330 O345 1.272 . S
C331 Sm321 2.846 . S
C331 C332 1.506 . S
C331 O346 1.261 . S
C331 O347 1.242 . S
C332 C331 1.506 . S
C332 C333 1.358 . S
C332 C337 1.382 . S
C333 C332 1.358 . S
C333 C334 1.385 . S
C333 H356 0.930 . S
C334 C333 1.385 . S
C334 C335 1.395 . S
C334 H357 0.929 . S
C335 C334 1.395 . S
C335 C336 1.335 . S
C336 C335 1.335 . S
C336 C337 1.398 . S
C336 H358 0.930 . S
C337 C332 1.382 . S
C337 C336 1.398 . S
C337 H359 0.929 . S
C338 O348 1.271 . S
C338 O349 1.251 . S
C339 O350 1.252 . S
C339 O351 1.272 . S
O340 Sm320 2.543 . S
O340 C322 1.261 . S
O341 Sm320 2.450 . S
O341 C322 1.242 . S
O342 Sm320 2.681 . S
O342 Sm321 2.386 . S
O342 C329 1.271 . S
O343 Sm320 2.464 . S
O343 C329 1.251 . S
O344 Sm320 2.396 . S
O344 C330 1.252 . S
O345 Sm321 2.408 . S
O345 C330 1.272 . S
O346 Sm321 2.543 . S
O346 C331 1.261 . S
O347 Sm321 2.450 . S
O347 C331 1.242 . S
O348 Sm320 2.386 . S
O348 Sm321 2.681 . S
O348 C338 1.271 . S
O349 Sm321 2.464 . S
O349 C338 1.251 . S
O350 Sm321 2.396 . S
O350 C339 1.252 . S
O351 Sm320 2.408 . S
O351 C339 1.272 . S
H352 C324 0.930 . S
H353 C325 0.929 . S
H354 C327 0.930 . S
H355 C328 0.929 . S
H356 C333 0.930 . S
H357 C334 0.929 . S
H358 C336 0.930 . S
H359 C337 0.929 . S
Sm360 C362 2.846 . S
Sm360 O380 2.543 1_545 S
Sm360 O381 2.450 . S
Sm360 O382 2.681 . S
Sm360 O383 2.464 . S
Sm360 O384 2.396 . S
Sm360 O388 2.386 . S
Sm360 O391 2.408 . S
Sm361 C371 2.846 . S
Sm361 O382 2.386 . S
Sm361 O385 2.408 . S
Sm361 O386 2.543 . S
Sm361 O387 2.450 . S
Sm361 O388 2.681 . S
Sm361 O389 2.464 . S
Sm361 O390 2.396 . S
C362 Sm360 2.846 . S
C362 C363 1.506 1_445 S
C362 O380 1.261 1_545 S
C362 O381 1.242 . S
C363 C362 1.506 1_665 S
C363 C364 1.358 1_655 S
C363 C368 1.382 1_565 S
C364 C363 1.358 1_455 S
C364 C365 1.385 1_455 S
C364 H392 0.930 . S
C365 C364 1.385 1_655 S
C365 C366 1.395 . S
C365 H393 0.929 . S
C366 C365 1.395 . S
C366 C367 1.335 . S
C367 C366 1.335 . S
C367 C368 1.398 1_565 S
C367 H394 0.930 . S
C368 C363 1.382 1_545 S
C368 C367 1.398 1_545 S
C368 H395 0.929 . S
C369 O382 1.271 . S
C369 O383 1.251 . S
C370 O384 1.252 . S
C370 O385 1.272 . S
C371 Sm361 2.846 . S
C371 C372 1.506 . S
C371 O386 1.261 . S
C371 O387 1.242 . S
C372 C371 1.506 . S
C372 C373 1.358 . S
C372 C377 1.382 . S
C373 C372 1.358 . S
C373 C374 1.385 . S
C373 H396 0.930 . S
C374 C373 1.385 . S
C374 C375 1.395 . S
C374 H397 0.929 . S
C375 C374 1.395 . S
C375 C376 1.335 . S
C376 C375 1.335 . S
C376 C377 1.398 . S
C376 H398 0.930 . S
C377 C372 1.382 . S
C377 C376 1.398 . S
C377 H399 0.929 . S
C378 O388 1.271 . S
C378 O389 1.251 . S
C379 O390 1.252 . S
C379 O391 1.272 . S
O380 Sm360 2.543 1_565 S
O380 C362 1.261 1_565 S
O381 Sm360 2.450 . S
O381 C362 1.242 . S
O382 Sm360 2.681 . S
O382 Sm361 2.386 . S
O382 C369 1.271 . S
O383 Sm360 2.464 . S
O383 C369 1.251 . S
O384 Sm360 2.396 . S
O384 C370 1.252 . S
O385 Sm361 2.408 . S
O385 C370 1.272 . S
O386 Sm361 2.543 . S
O386 C371 1.261 . S
O387 Sm361 2.450 . S
O387 C371 1.242 . S
O388 Sm360 2.386 . S
O388 Sm361 2.681 . S
O388 C378 1.271 . S
O389 Sm361 2.464 . S
O389 C378 1.251 . S
O390 Sm361 2.396 . S
O390 C379 1.252 . S
O391 Sm360 2.408 . S
O391 C379 1.272 . S
H392 C364 0.930 . S
H393 C365 0.929 . S
H394 C367 0.930 . S
H395 C368 0.929 . S
H396 C373 0.930 . S
H397 C374 0.929 . S
H398 C376 0.930 . S
H399 C377 0.929 . S
Sm400 C402 2.846 . S
Sm400 O420 2.543 . S
Sm400 O421 2.450 . S
Sm400 O422 2.681 . S
Sm400 O423 2.464 . S
Sm400 O424 2.396 . S
Sm400 O428 2.386 . S
Sm400 O431 2.408 . S
Sm401 C411 2.846 . S
Sm401 O422 2.386 . S
Sm401 O425 2.408 . S
Sm401 O426 2.543 . S
Sm401 O427 2.450 . S
Sm401 O428 2.681 . S
Sm401 O429 2.464 . S
Sm401 O430 2.396 . S
C402 Sm400 2.846 . S
C402 C403 1.506 . S
C402 O420 1.261 . S
C402 O421 1.242 . S
C403 C402 1.506 . S
C403 C404 1.358 . S
C403 C408 1.382 . S
C404 C403 1.358 . S
C404 C405 1.385 . S
C404 H432 0.930 . S
C405 C404 1.385 . S
C405 C406 1.395 . S
C405 H433 0.929 . S
C406 C405 1.395 . S
C406 C407 1.335 . S
C407 C406 1.335 . S
C407 C408 1.398 . S
C407 H434 0.930 . S
C408 C403 1.382 . S
C408 C407 1.398 . S
C408 H435 0.929 . S
C409 O422 1.271 . S
C409 O423 1.251 . S
C410 O424 1.252 . S
C410 O425 1.272 . S
C411 Sm401 2.846 . S
C411 C412 1.506 . S
C411 O426 1.261 . S
C411 O427 1.242 . S
C412 C411 1.506 . S
C412 C413 1.358 . S
C412 C417 1.382 . S
C413 C412 1.358 . S
C413 C414 1.385 . S
C413 H436 0.930 . S
C414 C413 1.385 . S
C414 C415 1.395 . S
C414 H437 0.929 . S
C415 C414 1.395 . S
C415 C416 1.335 . S
C416 C415 1.335 . S
C416 C417 1.398 . S
C416 H438 0.930 . S
C417 C412 1.382 . S
C417 C416 1.398 . S
C417 H439 0.929 . S
C418 O428 1.271 . S
C418 O429 1.251 . S
C419 O430 1.252 . S
C419 O431 1.272 . S
O420 Sm400 2.543 . S
O420 C402 1.261 . S
O421 Sm400 2.450 . S
O421 C402 1.242 . S
O422 Sm400 2.681 . S
O422 Sm401 2.386 . S
O422 C409 1.271 . S
O423 Sm400 2.464 . S
O423 C409 1.251 . S
O424 Sm400 2.396 . S
O424 C410 1.252 . S
O425 Sm401 2.408 . S
O425 C410 1.272 . S
O426 Sm401 2.543 . S
O426 C411 1.261 . S
O427 Sm401 2.450 . S
O427 C411 1.242 . S
O428 Sm400 2.386 . S
O428 Sm401 2.681 . S
O428 C418 1.271 . S
O429 Sm401 2.464 . S
O429 C418 1.251 . S
O430 Sm401 2.396 . S
O430 C419 1.252 . S
O431 Sm400 2.408 . S
O431 C419 1.272 . S
H432 C404 0.930 . S
H433 C405 0.929 . S
H434 C407 0.930 . S
H435 C408 0.929 . S
H436 C413 0.930 . S
H437 C414 0.929 . S
H438 C416 0.930 . S
H439 C417 0.929 . S
Sm440 C442 2.846 . S
Sm440 O460 2.543 1_565 S
Sm440 O461 2.450 . S
Sm440 O462 2.681 . S
Sm440 O463 2.464 . S
Sm440 O464 2.396 . S
Sm440 O468 2.386 . S
Sm440 O471 2.408 . S
Sm441 C451 2.846 . S
Sm441 O462 2.386 . S
Sm441 O465 2.408 . S
Sm441 O466 2.543 . S
Sm441 O467 2.450 . S
Sm441 O468 2.681 . S
Sm441 O469 2.464 . S
Sm441 O470 2.396 . S
C442 Sm440 2.846 . S
C442 C443 1.506 1_565 S
C442 O460 1.261 1_565 S
C442 O461 1.242 . S
C443 C442 1.506 1_545 S
C443 C444 1.358 . S
C443 C448 1.382 1_545 S
C444 C443 1.358 . S
C444 C445 1.385 . S
C444 H472 0.930 . S
C445 C444 1.385 . S
C445 C446 1.395 . S
C445 H473 0.929 . S
C446 C445 1.395 . S
C446 C447 1.335 . S
C447 C446 1.335 . S
C447 C448 1.398 1_545 S
C447 H474 0.930 . S
C448 C443 1.382 1_565 S
C448 C447 1.398 1_565 S
C448 H475 0.929 . S
C449 O462 1.271 . S
C449 O463 1.251 . S
C450 O464 1.252 . S
C450 O465 1.272 . S
C451 Sm441 2.846 . S
C451 C452 1.506 . S
C451 O466 1.261 . S
C451 O467 1.242 . S
C452 C451 1.506 . S
C452 C453 1.358 . S
C452 C457 1.382 . S
C453 C452 1.358 . S
C453 C454 1.385 . S
C453 H476 0.930 . S
C454 C453 1.385 . S
C454 C455 1.395 . S
C454 H477 0.929 . S
C455 C454 1.395 . S
C455 C456 1.335 . S
C456 C455 1.335 . S
C456 C457 1.398 . S
C456 H478 0.930 . S
C457 C452 1.382 . S
C457 C456 1.398 . S
C457 H479 0.929 . S
C458 O468 1.271 . S
C458 O469 1.251 . S
C459 O470 1.252 . S
C459 O471 1.272 . S
O460 Sm440 2.543 1_545 S
O460 C442 1.261 1_545 S
O461 Sm440 2.450 . S
O461 C442 1.242 . S
O462 Sm440 2.681 . S
O462 Sm441 2.386 . S
O462 C449 1.271 . S
O463 Sm440 2.464 . S
O463 C449 1.251 . S
O464 Sm440 2.396 . S
O464 C450 1.252 . S
O465 Sm441 2.408 . S
O465 C450 1.272 . S
O466 Sm441 2.543 . S
O466 C451 1.261 . S
O467 Sm441 2.450 . S
O467 C451 1.242 . S
O468 Sm440 2.386 . S
O468 Sm441 2.681 . S
O468 C458 1.271 . S
O469 Sm441 2.464 . S
O469 C458 1.251 . S
O470 Sm441 2.396 . S
O470 C459 1.252 . S
O471 Sm440 2.408 . S
O471 C459 1.272 . S
H472 C444 0.930 . S
H473 C445 0.929 . S
H474 C447 0.930 . S
H475 C448 0.929 . S
H476 C453 0.930 . S
H477 C454 0.929 . S
H478 C456 0.930 . S
H479 C457 0.929 . S
Sm480 C482 2.846 . S
Sm480 O500 2.543 . S
Sm480 O501 2.450 . S
Sm480 O502 2.681 . S
Sm480 O503 2.464 . S
Sm480 O504 2.396 . S
Sm480 O508 2.386 . S
Sm480 O511 2.408 . S
Sm481 C491 2.846 . S
Sm481 O502 2.386 . S
Sm481 O505 2.408 . S
Sm481 O506 2.543 . S
Sm481 O507 2.450 . S
Sm481 O508 2.681 . S
Sm481 O509 2.464 . S
Sm481 O510 2.396 . S
C482 Sm480 2.846 . S
C482 C483 1.506 . S
C482 O500 1.261 . S
C482 O501 1.242 . S
C483 C482 1.506 . S
C483 C484 1.358 . S
C483 C488 1.382 . S
C484 C483 1.358 . S
C484 C485 1.385 . S
C484 H512 0.930 . S
C485 C484 1.385 . S
C485 C486 1.395 . S
C485 H513 0.929 . S
C486 C485 1.395 . S
C486 C487 1.335 . S
C487 C486 1.335 . S
C487 C488 1.398 . S
C487 H514 0.930 . S
C488 C483 1.382 . S
C488 C487 1.398 . S
C488 H515 0.929 . S
C489 O502 1.271 . S
C489 O503 1.251 . S
C490 O504 1.252 . S
C490 O505 1.272 . S
C491 Sm481 2.846 . S
C491 C492 1.506 . S
C491 O506 1.261 . S
C491 O507 1.242 . S
C492 C491 1.506 . S
C492 C493 1.358 . S
C492 C497 1.382 . S
C493 C492 1.358 . S
C493 C494 1.385 . S
C493 H516 0.930 . S
C494 C493 1.385 . S
C494 C495 1.395 . S
C494 H517 0.929 . S
C495 C494 1.395 . S
C495 C496 1.335 . S
C496 C495 1.335 . S
C496 C497 1.398 . S
C496 H518 0.930 . S
C497 C492 1.382 . S
C497 C496 1.398 . S
C497 H519 0.929 . S
C498 O508 1.271 . S
C498 O509 1.251 . S
C499 O510 1.252 . S
C499 O511 1.272 . S
O500 Sm480 2.543 . S
O500 C482 1.261 . S
O501 Sm480 2.450 . S
O501 C482 1.242 . S
O502 Sm480 2.681 . S
O502 Sm481 2.386 . S
O502 C489 1.271 . S
O503 Sm480 2.464 . S
O503 C489 1.251 . S
O504 Sm480 2.396 . S
O504 C490 1.252 . S
O505 Sm481 2.408 . S
O505 C490 1.272 . S
O506 Sm481 2.543 . S
O506 C491 1.261 . S
O507 Sm481 2.450 . S
O507 C491 1.242 . S
O508 Sm480 2.386 . S
O508 Sm481 2.681 . S
O508 C498 1.271 . S
O509 Sm481 2.464 . S
O509 C498 1.251 . S
O510 Sm481 2.396 . S
O510 C499 1.252 . S
O511 Sm480 2.408 . S
O511 C499 1.272 . S
H512 C484 0.930 . S
H513 C485 0.929 . S
H514 C487 0.930 . S
H515 C488 0.929 . S
H516 C493 0.930 . S
H517 C494 0.929 . S
H518 C496 0.930 . S
H519 C497 0.929 . S
Sm520 C522 2.846 . S
Sm520 O540 2.543 . S
Sm520 O541 2.450 . S
Sm520 O542 2.681 . S
Sm520 O543 2.464 . S
Sm520 O544 2.396 . S
Sm520 O548 2.386 . S
Sm520 O551 2.408 . S
Sm521 C531 2.846 . S
Sm521 O542 2.386 . S
Sm521 O545 2.408 . S
Sm521 O546 2.543 1_565 S
Sm521 O547 2.450 . S
Sm521 O548 2.681 . S
Sm521 O549 2.464 . S
Sm521 O550 2.396 . S
C522 Sm520 2.846 . S
C522 C523 1.506 . S
C522 O540 1.261 . S
C522 O541 1.242 . S
C523 C522 1.506 . S
C523 C524 1.358 . S
C523 C528 1.382 . S
C524 C523 1.358 . S
C524 C525 1.385 . S
C524 H552 0.930 . S
C525 C524 1.385 . S
C525 C526 1.395 . S
C525 H553 0.929 . S
C526 C525 1.395 . S
C526 C527 1.335 . S
C527 C526 1.335 . S
C527 C528 1.398 . S
C527 H554 0.930 . S
C528 C523 1.382 . S
C528 C527 1.398 . S
C528 H555 0.929 . S
C529 O542 1.271 . S
C529 O543 1.251 . S
C530 O544 1.252 . S
C530 O545 1.272 . S
C531 Sm521 2.846 . S
C531 C532 1.506 1_665 S
C531 O546 1.261 1_565 S
C531 O547 1.242 . S
C532 C531 1.506 1_445 S
C532 C533 1.358 1_455 S
C532 C537 1.382 1_545 S
C533 C532 1.358 1_655 S
C533 C534 1.385 1_655 S
C533 H556 0.930 . S
C534 C533 1.385 1_455 S
C534 C535 1.395 . S
C534 H557 0.929 . S
C535 C534 1.395 . S
C535 C536 1.335 . S
C536 C535 1.335 . S
C536 C537 1.398 1_545 S
C536 H558 0.930 . S
C537 C532 1.382 1_565 S
C537 C536 1.398 1_565 S
C537 H559 0.929 . S
C538 O548 1.271 . S
C538 O549 1.251 . S
C539 O550 1.252 . S
C539 O551 1.272 . S
O540 Sm520 2.543 . S
O540 C522 1.261 . S
O541 Sm520 2.450 . S
O541 C522 1.242 . S
O542 Sm520 2.681 . S
O542 Sm521 2.386 . S
O542 C529 1.271 . S
O543 Sm520 2.464 . S
O543 C529 1.251 . S
O544 Sm520 2.396 . S
O544 C530 1.252 . S
O545 Sm521 2.408 . S
O545 C530 1.272 . S
O546 Sm521 2.543 1_545 S
O546 C531 1.261 1_545 S
O547 Sm521 2.450 . S
O547 C531 1.242 . S
O548 Sm520 2.386 . S
O548 Sm521 2.681 . S
O548 C538 1.271 . S
O549 Sm521 2.464 . S
O549 C538 1.251 . S
O550 Sm521 2.396 . S
O550 C539 1.252 . S
O551 Sm520 2.408 . S
O551 C539 1.272 . S
H552 C524 0.930 . S
H553 C525 0.929 . S
H554 C527 0.930 . S
H555 C528 0.929 . S
H556 C533 0.930 . S
H557 C534 0.929 . S
H558 C536 0.930 . S
H559 C537 0.929 . S
Sm560 C562 2.846 . S
Sm560 O580 2.543 . S
Sm560 O581 2.450 . S
Sm560 O582 2.681 . S
Sm560 O583 2.464 . S
Sm560 O584 2.396 . S
Sm560 O588 2.386 . S
Sm560 O591 2.408 . S
Sm561 C571 2.846 . S
Sm561 O582 2.386 . S
Sm561 O585 2.408 . S
Sm561 O586 2.543 . S
Sm561 O587 2.450 . S
Sm561 O588 2.681 . S
Sm561 O589 2.464 . S
Sm561 O590 2.396 . S
C562 Sm560 2.846 . S
C562 C563 1.506 . S
C562 O580 1.261 . S
C562 O581 1.242 . S
C563 C562 1.506 . S
C563 C564 1.358 . S
C563 C568 1.382 . S
C564 C563 1.358 . S
C564 C565 1.385 . S
C564 H592 0.930 . S
C565 C564 1.385 . S
C565 C566 1.395 . S
C565 H593 0.929 . S
C566 C565 1.395 . S
C566 C567 1.335 . S
C567 C566 1.335 . S
C567 C568 1.398 . S
C567 H594 0.930 . S
C568 C563 1.382 . S
C568 C567 1.398 . S
C568 H595 0.929 . S
C569 O582 1.271 . S
C569 O583 1.251 . S
C570 O584 1.252 . S
C570 O585 1.272 . S
C571 Sm561 2.846 . S
C571 C572 1.506 . S
C571 O586 1.261 . S
C571 O587 1.242 . S
C572 C571 1.506 . S
C572 C573 1.358 . S
C572 C577 1.382 . S
C573 C572 1.358 . S
C573 C574 1.385 . S
C573 H596 0.930 . S
C574 C573 1.385 . S
C574 C575 1.395 . S
C574 H597 0.929 . S
C575 C574 1.395 . S
C575 C576 1.335 . S
C576 C575 1.335 . S
C576 C577 1.398 . S
C576 H598 0.930 . S
C577 C572 1.382 . S
C577 C576 1.398 . S
C577 H599 0.929 . S
C578 O588 1.271 . S
C578 O589 1.251 . S
C579 O590 1.252 . S
C579 O591 1.272 . S
O580 Sm560 2.543 . S
O580 C562 1.261 . S
O581 Sm560 2.450 . S
O581 C562 1.242 . S
O582 Sm560 2.681 . S
O582 Sm561 2.386 . S
O582 C569 1.271 . S
O583 Sm560 2.464 . S
O583 C569 1.251 . S
O584 Sm560 2.396 . S
O584 C570 1.252 . S
O585 Sm561 2.408 . S
O585 C570 1.272 . S
O586 Sm561 2.543 . S
O586 C571 1.261 . S
O587 Sm561 2.450 . S
O587 C571 1.242 . S
O588 Sm560 2.386 . S
O588 Sm561 2.681 . S
O588 C578 1.271 . S
O589 Sm561 2.464 . S
O589 C578 1.251 . S
O590 Sm561 2.396 . S
O590 C579 1.252 . S
O591 Sm560 2.408 . S
O591 C579 1.272 . S
H592 C564 0.930 . S
H593 C565 0.929 . S
H594 C567 0.930 . S
H595 C568 0.929 . S
H596 C573 0.930 . S
H597 C574 0.929 . S
H598 C576 0.930 . S
H599 C577 0.929 . S
Sm600 C602 2.846 . S
Sm600 O620 2.543 . S
Sm600 O621 2.450 . S
Sm600 O622 2.681 . S
Sm600 O623 2.464 . S
Sm600 O624 2.396 . S
Sm600 O628 2.386 . S
Sm600 O631 2.408 . S
Sm601 C611 2.846 . S
Sm601 O622 2.386 . S
Sm601 O625 2.408 . S
Sm601 O626 2.543 1_545 S
Sm601 O627 2.450 . S
Sm601 O628 2.681 . S
Sm601 O629 2.464 . S
Sm601 O630 2.396 . S
C602 Sm600 2.846 . S
C602 C603 1.506 . S
C602 O620 1.261 . S
C602 O621 1.242 . S
C603 C602 1.506 . S
C603 C604 1.358 . S
C603 C608 1.382 . S
C604 C603 1.358 . S
C604 C605 1.385 . S
C604 H632 0.930 . S
C605 C604 1.385 . S
C605 C606 1.395 . S
C605 H633 0.929 . S
C606 C605 1.395 . S
C606 C607 1.335 . S
C607 C606 1.335 . S
C607 C608 1.398 . S
C607 H634 0.930 . S
C608 C603 1.382 . S
C608 C607 1.398 . S
C608 H635 0.929 . S
C609 O622 1.271 . S
C609 O623 1.251 . S
C610 O624 1.252 . S
C610 O625 1.272 . S
C611 Sm601 2.846 . S
C611 C612 1.506 1_545 S
C611 O626 1.261 1_545 S
C611 O627 1.242 . S
C612 C611 1.506 1_565 S
C612 C613 1.358 . S
C612 C617 1.382 1_565 S
C613 C612 1.358 . S
C613 C614 1.385 . S
C613 H636 0.930 . S
C614 C613 1.385 . S
C614 C615 1.395 . S
C614 H637 0.929 . S
C615 C614 1.395 . S
C615 C616 1.335 . S
C616 C615 1.335 . S
C616 C617 1.398 1_565 S
C616 H638 0.930 . S
C617 C612 1.382 1_545 S
C617 C616 1.398 1_545 S
C617 H639 0.929 . S
C618 O628 1.271 . S
C618 O629 1.251 . S
C619 O630 1.252 . S
C619 O631 1.272 . S
O620 Sm600 2.543 . S
O620 C602 1.261 . S
O621 Sm600 2.450 . S
O621 C602 1.242 . S
O622 Sm600 2.681 . S
O622 Sm601 2.386 . S
O622 C609 1.271 . S
O623 Sm600 2.464 . S
O623 C609 1.251 . S
O624 Sm600 2.396 . S
O624 C610 1.252 . S
O625 Sm601 2.408 . S
O625 C610 1.272 . S
O626 Sm601 2.543 1_565 S
O626 C611 1.261 1_565 S
O627 Sm601 2.450 . S
O627 C611 1.242 . S
O628 Sm600 2.386 . S
O628 Sm601 2.681 . S
O628 C618 1.271 . S
O629 Sm601 2.464 . S
O629 C618 1.251 . S
O630 Sm601 2.396 . S
O630 C619 1.252 . S
O631 Sm600 2.408 . S
O631 C619 1.272 . S
H632 C604 0.930 . S
H633 C605 0.929 . S
H634 C607 0.930 . S
H635 C608 0.929 . S
H636 C613 0.930 . S
H637 C614 0.929 . S
H638 C616 0.930 . S
H639 C617 0.929 . S
H640 C646 0.930 . S
H641 C650 0.930 . S
H642 C655 0.929 . S
H643 C653 0.929 . S
H644 C648 0.929 . S
H645 C654 0.929 . S
C646 H640 0.930 . S
C646 C647 1.367 . S
C646 C654 1.378 . S
C647 C646 1.367 . S
C647 C655 1.433 . S
C648 H644 0.929 . S
C648 C650 1.378 . S
C648 C652 1.350 . S
C649 C652 1.463 . S
C649 C654 1.350 . S
C649 N657 1.427 . S
C650 H641 0.930 . S
C650 C648 1.378 . S
C650 C651 1.367 . S
C651 C650 1.367 . S
C651 C653 1.433 . S
C652 C648 1.350 . S
C652 C649 1.463 . S
C652 N656 1.427 . S
C653 H643 0.929 . S
C653 C651 1.433 . S
C653 N656 1.384 . S
C654 H645 0.929 . S
C654 C646 1.378 . S
C654 C649 1.350 . S
C655 H642 0.929 . S
C655 C647 1.433 . S
C655 N657 1.384 . S
N656 C652 1.427 . S
N656 C653 1.384 . S
N657 C649 1.427 . S
N657 C655 1.384 . S
H658 C664 0.930 . S
H659 C668 0.930 . S
H660 C673 0.929 . S
H661 C671 0.929 . S
H662 C666 0.929 . S
H663 C672 0.929 . S
C664 H658 0.930 . S
C664 C665 1.367 . S
C664 C672 1.378 . S
C665 C664 1.367 . S
C665 C673 1.433 . S
C666 H662 0.929 . S
C666 C668 1.378 . S
C666 C670 1.350 . S
C667 C670 1.463 . S
C667 C672 1.350 . S
C667 N675 1.427 . S
C668 H659 0.930 . S
C668 C666 1.378 . S
C668 C669 1.367 . S
C669 C668 1.367 . S
C669 C671 1.433 . S
C670 C666 1.350 . S
C670 C667 1.463 . S
C670 N674 1.427 . S
C671 H661 0.929 . S
C671 C669 1.433 . S
C671 N674 1.384 . S
C672 H663 0.929 . S
C672 C664 1.378 . S
C672 C667 1.350 . S
C673 H660 0.929 . S
C673 C665 1.433 . S
C673 N675 1.384 . S
N674 C670 1.427 . S
N674 C671 1.384 . S
N675 C667 1.427 . S
N675 C673 1.384 . S
H676 C682 0.930 . S
H677 C686 0.930 . S
H678 C691 0.929 . S
H679 C689 0.929 . S
H680 C684 0.929 . S
H681 C690 0.929 . S
C682 H676 0.930 . S
C682 C683 1.367 . S
C682 C690 1.378 . S
C683 C682 1.367 . S
C683 C691 1.433 . S
C684 H680 0.929 . S
C684 C686 1.378 . S
C684 C688 1.350 . S
C685 C688 1.463 1_455 S
C685 C690 1.350 . S
C685 N693 1.427 . S
C686 H677 0.930 . S
C686 C684 1.378 . S
C686 C687 1.367 . S
C687 C686 1.367 . S
C687 C689 1.433 . S
C688 C684 1.350 . S
C688 C685 1.463 1_655 S
C688 N692 1.427 . S
C689 H679 0.929 . S
C689 C687 1.433 . S
C689 N692 1.384 . S
C690 H681 0.929 . S
C690 C682 1.378 . S
C690 C685 1.350 . S
C691 H678 0.929 . S
C691 C683 1.433 . S
C691 N693 1.384 . S
N692 C688 1.427 . S
N692 C689 1.384 . S
N693 C685 1.427 . S
N693 C691 1.384 . S
H694 C700 0.930 . S
H695 C704 0.930 . S
H696 C709 0.929 . S
H697 C707 0.929 . S
H698 C702 0.929 . S
H699 C708 0.929 . S
C700 H694 0.930 . S
C700 C701 1.367 . S
C700 C708 1.378 . S
C701 C700 1.367 . S
C701 C709 1.433 . S
C702 H698 0.929 . S
C702 C704 1.378 . S
C702 C706 1.350 . S
C703 C706 1.463 1_455 S
C703 C708 1.350 . S
C703 N711 1.427 . S
C704 H695 0.930 . S
C704 C702 1.378 . S
C704 C705 1.367 . S
C705 C704 1.367 . S
C705 C707 1.433 . S
C706 C702 1.350 . S
C706 C703 1.463 1_655 S
C706 N710 1.427 . S
C707 H697 0.929 . S
C707 C705 1.433 . S
C707 N710 1.384 . S
C708 H699 0.929 . S
C708 C700 1.378 . S
C708 C703 1.350 . S
C709 H696 0.929 . S
C709 C701 1.433 . S
C709 N711 1.384 . S
N710 C706 1.427 . S
N710 C707 1.384 . S
N711 C703 1.427 . S
N711 C709 1.384 . S
H712 C718 0.930 . S
H713 C722 0.930 . S
H714 C727 0.929 . S
H715 C725 0.929 . S
H716 C720 0.929 . S
H717 C726 0.929 . S
C718 H712 0.930 . S
C718 C719 1.367 . S
C718 C726 1.378 . S
C719 C718 1.367 . S
C719 C727 1.433 . S
C720 H716 0.929 . S
C720 C722 1.378 . S
C720 C724 1.350 . S
C721 C724 1.463 . S
C721 C726 1.350 . S
C721 N729 1.427 . S
C722 H713 0.930 . S
C722 C720 1.378 . S
C722 C723 1.367 . S
C723 C722 1.367 . S
C723 C725 1.433 . S
C724 C720 1.350 . S
C724 C721 1.463 . S
C724 N728 1.427 . S
C725 H715 0.929 . S
C725 C723 1.433 . S
C725 N728 1.384 . S
C726 H717 0.929 . S
C726 C718 1.378 . S
C726 C721 1.350 . S
C727 H714 0.929 . S
C727 C719 1.433 . S
C727 N729 1.384 . S
N728 C724 1.427 . S
N728 C725 1.384 . S
N729 C721 1.427 . S
N729 C727 1.384 . S
H730 C736 0.930 . S
H731 C740 0.930 . S
H732 C745 0.929 . S
H733 C743 0.929 . S
H734 C738 0.929 . S
H735 C744 0.929 . S
C736 H730 0.930 . S
C736 C737 1.367 . S
C736 C744 1.378 . S
C737 C736 1.367 . S
C737 C745 1.433 . S
C738 H734 0.929 . S
C738 C740 1.378 . S
C738 C742 1.350 . S
C739 C742 1.463 . S
C739 C744 1.350 . S
C739 N747 1.427 . S
C740 H731 0.930 . S
C740 C738 1.378 . S
C740 C741 1.367 . S
C741 C740 1.367 . S
C741 C743 1.433 . S
C742 C738 1.350 . S
C742 C739 1.463 . S
C742 N746 1.427 . S
C743 H733 0.929 . S
C743 C741 1.433 . S
C743 N746 1.384 . S
C744 H735 0.929 . S
C744 C736 1.378 . S
C744 C739 1.350 . S
C745 H732 0.929 . S
C745 C737 1.433 . S
C745 N747 1.384 . S
N746 C742 1.427 . S
N746 C743 1.384 . S
N747 C739 1.427 . S
N747 C745 1.384 . S
H748 C754 0.930 . S
H749 C758 0.930 . S
H750 C763 0.929 . S
H751 C761 0.929 . S
H752 C756 0.929 . S
H753 C762 0.929 . S
C754 H748 0.930 . S
C754 C755 1.367 . S
C754 C762 1.378 . S
C755 C754 1.367 . S
C755 C763 1.433 . S
C756 H752 0.929 . S
C756 C758 1.378 . S
C756 C760 1.350 . S
C757 C760 1.463 1_455 S
C757 C762 1.350 . S
C757 N765 1.427 . S
C758 H749 0.930 . S
C758 C756 1.378 . S
C758 C759 1.367 . S
C759 C758 1.367 . S
C759 C761 1.433 . S
C760 C756 1.350 . S
C760 C757 1.463 1_655 S
C760 N764 1.427 . S
C761 H751 0.929 . S
C761 C759 1.433 . S
C761 N764 1.384 . S
C762 H753 0.929 . S
C762 C754 1.378 . S
C762 C757 1.350 . S
C763 H750 0.929 . S
C763 C755 1.433 . S
C763 N765 1.384 . S
N764 C760 1.427 . S
N764 C761 1.384 . S
N765 C757 1.427 . S
N765 C763 1.384 . S
H766 C772 0.930 1_655 S
H767 C776 0.930 1_455 S
H768 C781 0.929 . S
H769 C779 0.929 . S
H770 C774 0.929 . S
H771 C780 0.929 . S
C772 H766 0.930 1_455 S
C772 C773 1.367 . S
C772 C780 1.378 1_455 S
C773 C772 1.367 . S
C773 C781 1.433 . S
C774 H770 0.929 . S
C774 C776 1.378 1_455 S
C774 C778 1.350 1_455 S
C775 C778 1.463 1_455 S
C775 C780 1.350 1_455 S
C775 N783 1.427 . S
C776 H767 0.930 1_655 S
C776 C774 1.378 1_655 S
C776 C777 1.367 . S
C777 C776 1.367 . S
C777 C779 1.433 . S
C778 C774 1.350 1_655 S
C778 C775 1.463 1_655 S
C778 N782 1.427 . S
C779 H769 0.929 . S
C779 C777 1.433 . S
C779 N782 1.384 . S
C780 H771 0.929 . S
C780 C772 1.378 1_655 S
C780 C775 1.350 1_655 S
C781 H768 0.929 . S
C781 C773 1.433 . S
C781 N783 1.384 . S
N782 C778 1.427 . S
N782 C779 1.384 . S
N783 C775 1.427 . S
N783 C781 1.384 . S
H784 C790 0.930 . S
H785 C794 0.930 . S
H786 C799 0.929 . S
H787 C797 0.929 . S
H788 C792 0.929 . S
H789 C798 0.929 . S
C790 H784 0.930 . S
C790 C791 1.367 1_556 S
C790 C798 1.378 . S
C791 C790 1.367 1_554 S
C791 C799 1.433 . S
C792 H788 0.929 . S
C792 C794 1.378 . S
C792 C796 1.350 1_554 S
C793 C796 1.463 1_564 S
C793 C798 1.350 1_554 S
C793 N801 1.427 . S
C794 H785 0.930 . S
C794 C792 1.378 . S
C794 C795 1.367 1_554 S
C795 C794 1.367 1_556 S
C795 C797 1.433 . S
C796 C792 1.350 1_556 S
C796 C793 1.463 1_546 S
C796 N800 1.427 . S
C797 H787 0.929 . S
C797 C795 1.433 . S
C797 N800 1.384 . S
C798 H789 0.929 . S
C798 C790 1.378 . S
C798 C793 1.350 1_556 S
C799 H786 0.929 . S
C799 C791 1.433 . S
C799 N801 1.384 . S
N800 C796 1.427 . S
N800 C797 1.384 . S
N801 C793 1.427 . S
N801 C799 1.384 . S
H802 C808 0.930 . S
H803 C812 0.930 . S
H804 C817 0.929 . S
H805 C815 0.929 . S
H806 C810 0.929 . S
H807 C816 0.929 . S
C808 H802 0.930 . S
C808 C809 1.367 . S
C808 C816 1.378 . S
C809 C808 1.367 . S
C809 C817 1.433 . S
C810 H806 0.929 . S
C810 C812 1.378 . S
C810 C814 1.350 . S
C811 C814 1.463 . S
C811 C816 1.350 . S
C811 N819 1.427 . S
C812 H803 0.930 . S
C812 C810 1.378 . S
C812 C813 1.367 . S
C813 C812 1.367 . S
C813 C815 1.433 . S
C814 C810 1.350 . S
C814 C811 1.463 . S
C814 N818 1.427 . S
C815 H805 0.929 . S
C815 C813 1.433 . S
C815 N818 1.384 . S
C816 H807 0.929 . S
C816 C808 1.378 . S
C816 C811 1.350 . S
C817 H804 0.929 . S
C817 C809 1.433 . S
C817 N819 1.384 . S
N818 C814 1.427 . S
N818 C815 1.384 . S
N819 C811 1.427 . S
N819 C817 1.384 . S
H820 C826 0.930 . S
H821 C830 0.930 . S
H822 C835 0.929 . S
H823 C833 0.929 . S
H824 C828 0.929 . S
H825 C834 0.929 . S
C826 H820 0.930 . S
C826 C827 1.367 . S
C826 C834 1.377 1_545 S
C827 C826 1.367 . S
C827 C835 1.433 . S
C828 H824 0.929 . S
C828 C830 1.377 1_545 S
C828 C832 1.350 1_545 S
C829 C832 1.463 1_445 S
C829 C834 1.350 1_545 S
C829 N837 1.427 . S
C830 H821 0.930 . S
C830 C828 1.377 1_565 S
C830 C831 1.367 . S
C831 C830 1.367 . S
C831 C833 1.433 . S
C832 C828 1.350 1_565 S
C832 C829 1.463 1_665 S
C832 N836 1.427 . S
C833 H823 0.929 . S
C833 C831 1.433 . S
C833 N836 1.384 . S
C834 H825 0.929 . S
C834 C826 1.377 1_565 S
C834 C829 1.350 1_565 S
C835 H822 0.929 . S
C835 C827 1.433 . S
C835 N837 1.384 . S
N836 C832 1.427 . S
N836 C833 1.384 . S
N837 C829 1.427 . S
N837 C835 1.384 . S
H838 C844 0.930 . S
H839 C848 0.930 . S
H840 C853 0.929 . S
H841 C851 0.929 . S
H842 C846 0.929 . S
H843 C852 0.929 . S
C844 H838 0.930 . S
C844 C845 1.367 . S
C844 C852 1.378 . S
C845 C844 1.367 . S
C845 C853 1.433 . S
C846 H842 0.929 . S
C846 C848 1.378 . S
C846 C850 1.350 . S
C847 C850 1.463 . S
C847 C852 1.350 . S
C847 N855 1.427 . S
C848 H839 0.930 . S
C848 C846 1.378 . S
C848 C849 1.367 . S
C849 C848 1.367 . S
C849 C851 1.433 . S
C850 C846 1.350 . S
C850 C847 1.463 . S
C850 N854 1.427 . S
C851 H841 0.929 . S
C851 C849 1.433 . S
C851 N854 1.384 . S
C852 H843 0.929 . S
C852 C844 1.378 . S
C852 C847 1.350 . S
C853 H840 0.929 . S
C853 C845 1.433 . S
C853 N855 1.384 . S
N854 C850 1.427 . S
N854 C851 1.384 . S
N855 C847 1.427 . S
N855 C853 1.384 . S
H856 C862 0.930 . S
H857 C866 0.930 . S
H858 C871 0.929 . S
H859 C869 0.929 . S
H860 C864 0.929 . S
H861 C870 0.929 . S
C862 H856 0.930 . S
C862 C863 1.367 . S
C862 C870 1.378 . S
C863 C862 1.367 . S
C863 C871 1.433 . S
C864 H860 0.929 . S
C864 C866 1.378 . S
C864 C868 1.350 . S
C865 C868 1.463 . S
C865 C870 1.350 . S
C865 N873 1.427 . S
C866 H857 0.930 . S
C866 C864 1.378 . S
C866 C867 1.367 . S
C867 C866 1.367 . S
C867 C869 1.433 . S
C868 C864 1.350 . S
C868 C865 1.463 . S
C868 N872 1.427 . S
C869 H859 0.929 . S
C869 C867 1.433 . S
C869 N872 1.384 . S
C870 H861 0.929 . S
C870 C862 1.378 . S
C870 C865 1.350 . S
C871 H858 0.929 . S
C871 C863 1.433 . S
C871 N873 1.384 . S
N872 C868 1.427 . S
N872 C869 1.384 . S
N873 C865 1.427 . S
N873 C871 1.384 . S
H874 C880 0.930 . S
H875 C884 0.930 . S
H876 C889 0.929 . S
H877 C887 0.929 . S
H878 C882 0.929 . S
H879 C888 0.929 . S
C880 H874 0.930 . S
C880 C881 1.367 . S
C880 C888 1.378 . S
C881 C880 1.367 . S
C881 C889 1.433 . S
C882 H878 0.929 . S
C882 C884 1.378 . S
C882 C886 1.350 . S
C883 C886 1.463 . S
C883 C888 1.350 . S
C883 N891 1.427 . S
C884 H875 0.930 . S
C884 C882 1.378 . S
C884 C885 1.367 . S
C885 C884 1.367 . S
C885 C887 1.433 . S
C886 C882 1.350 . S
C886 C883 1.463 . S
C886 N890 1.427 . S
C887 H877 0.929 . S
C887 C885 1.433 . S
C887 N890 1.384 . S
C888 H879 0.929 . S
C888 C880 1.378 . S
C888 C883 1.350 . S
C889 H876 0.929 . S
C889 C881 1.433 . S
C889 N891 1.384 . S
N890 C886 1.427 . S
N890 C887 1.384 . S
N891 C883 1.427 . S
N891 C889 1.384 . S
H892 C898 0.930 . S
H893 C902 0.930 . S
H894 C907 0.929 . S
H895 C905 0.929 . S
H896 C900 0.929 . S
H897 C906 0.929 . S
C898 H892 0.930 . S
C898 C899 1.367 . S
C898 C906 1.378 . S
C899 C898 1.367 . S
C899 C907 1.433 . S
C900 H896 0.929 . S
C900 C902 1.378 . S
C900 C904 1.350 . S
C901 C904 1.463 1_455 S
C901 C906 1.350 . S
C901 N909 1.427 . S
C902 H893 0.930 . S
C902 C900 1.378 . S
C902 C903 1.367 . S
C903 C902 1.367 . S
C903 C905 1.433 . S
C904 C900 1.350 . S
C904 C901 1.463 1_655 S
C904 N908 1.427 . S
C905 H895 0.929 . S
C905 C903 1.433 . S
C905 N908 1.384 . S
C906 H897 0.929 . S
C906 C898 1.378 . S
C906 C901 1.350 . S
C907 H894 0.929 . S
C907 C899 1.433 . S
C907 N909 1.384 . S
N908 C904 1.427 . S
N908 C905 1.384 . S
N909 C901 1.427 . S
N909 C907 1.384 . S
H910 C916 0.930 . S
H911 C920 0.930 . S
H912 C925 0.929 . S
H913 C923 0.929 . S
H914 C918 0.929 . S
H915 C924 0.929 . S
C916 H910 0.930 . S
C916 C917 1.367 . S
C916 C924 1.378 . S
C917 C916 1.367 . S
C917 C925 1.433 . S
C918 H914 0.929 . S
C918 C920 1.378 . S
C918 C922 1.350 . S
C919 C922 1.463 1_554 S
C919 C924 1.350 . S
C919 N927 1.427 . S
C920 H911 0.930 . S
C920 C918 1.378 . S
C920 C921 1.367 . S
C921 C920 1.367 . S
C921 C923 1.433 . S
C922 C918 1.350 . S
C922 C919 1.463 1_556 S
C922 N926 1.427 . S
C923 H913 0.929 . S
C923 C921 1.433 . S
C923 N926 1.384 . S
C924 H915 0.929 . S
C924 C916 1.378 . S
C924 C919 1.350 . S
C925 H912 0.929 . S
C925 C917 1.433 . S
C925 N927 1.384 . S
N926 C922 1.427 . S
N926 C923 1.384 . S
N927 C919 1.427 . S
N927 C925 1.384 . S
H928 C934 0.930 . S
H929 C938 0.930 . S
H930 C943 0.929 . S
H931 C941 0.929 . S
H932 C936 0.929 . S
H933 C942 0.929 . S
C934 H928 0.930 . S
C934 C935 1.367 . S
C934 C942 1.378 . S
C935 C934 1.367 . S
C935 C943 1.433 . S
C936 H932 0.929 . S
C936 C938 1.378 . S
C936 C940 1.350 . S
C937 C940 1.463 . S
C937 C942 1.350 . S
C937 N945 1.427 . S
C938 H929 0.930 . S
C938 C936 1.378 . S
C938 C939 1.367 . S
C939 C938 1.367 . S
C939 C941 1.433 . S
C940 C936 1.350 . S
C940 C937 1.463 . S
C940 N944 1.427 . S
C941 H931 0.929 . S
C941 C939 1.433 . S
C941 N944 1.384 . S
C942 H933 0.929 . S
C942 C934 1.378 . S
C942 C937 1.350 . S
C943 H930 0.929 . S
C943 C935 1.433 . S
C943 N945 1.384 . S
N944 C940 1.427 . S
N944 C941 1.384 . S
N945 C937 1.427 . S
N945 C943 1.384 . S
H946 C952 0.930 . S
H947 C956 0.930 . S
H948 C961 0.929 . S
H949 C959 0.929 . S
H950 C954 0.929 . S
H951 C960 0.929 . S
C952 H946 0.930 . S
C952 C953 1.367 . S
C952 C960 1.378 . S
C953 C952 1.367 . S
C953 C961 1.433 . S
C954 H950 0.929 . S
C954 C956 1.378 . S
C954 C958 1.350 . S
C955 C958 1.463 . S
C955 C960 1.350 . S
C955 N963 1.427 . S
C956 H947 0.930 . S
C956 C954 1.378 . S
C956 C957 1.367 . S
C957 C956 1.367 . S
C957 C959 1.433 . S
C958 C954 1.350 . S
C958 C955 1.463 . S
C958 N962 1.427 . S
C959 H949 0.929 . S
C959 C957 1.433 . S
C959 N962 1.384 . S
C960 H951 0.929 . S
C960 C952 1.378 . S
C960 C955 1.350 . S
C961 H948 0.929 . S
C961 C953 1.433 . S
C961 N963 1.384 . S
N962 C958 1.427 . S
N962 C959 1.384 . S
N963 C955 1.427 . S
N963 C961 1.384 . S
H964 C970 0.930 . S
H965 C974 0.930 . S
H966 C979 0.929 . S
H967 C977 0.929 . S
H968 C972 0.929 . S
H969 C978 0.929 . S
C970 H964 0.930 . S
C970 C971 1.367 . S
C970 C978 1.378 . S
C971 C970 1.367 . S
C971 C979 1.433 . S
C972 H968 0.929 . S
C972 C974 1.378 . S
C972 C976 1.350 . S
C973 C976 1.463 . S
C973 C978 1.350 . S
C973 N981 1.427 . S
C974 H965 0.930 . S
C974 C972 1.378 . S
C974 C975 1.367 . S
C975 C974 1.367 . S
C975 C977 1.433 . S
C976 C972 1.350 . S
C976 C973 1.463 . S
C976 N980 1.427 . S
C977 H967 0.929 . S
C977 C975 1.433 . S
C977 N980 1.384 . S
C978 H969 0.929 . S
C978 C970 1.378 . S
C978 C973 1.350 . S
C979 H966 0.929 . S
C979 C971 1.433 . S
C979 N981 1.384 . S
N980 C976 1.427 . S
N980 C977 1.384 . S
N981 C973 1.427 . S
N981 C979 1.384 . S
H982 C988 0.930 . S
H983 C992 0.930 . S
H984 C997 0.929 . S
H985 C995 0.929 . S
H986 C990 0.929 . S
H987 C996 0.929 . S
C988 H982 0.930 . S
C988 C989 1.367 . S
C988 C996 1.378 . S
C989 C988 1.367 . S
C989 C997 1.433 . S
C990 H986 0.929 . S
C990 C992 1.378 . S
C990 C994 1.350 . S
C991 C994 1.463 . S
C991 C996 1.350 . S
C991 N999 1.427 . S
C992 H983 0.930 . S
C992 C990 1.378 . S
C992 C993 1.367 . S
C993 C992 1.367 . S
C993 C995 1.433 . S
C994 C990 1.350 . S
C994 C991 1.463 . S
C994 N998 1.427 . S
C995 H985 0.929 . S
C995 C993 1.433 . S
C995 N998 1.384 . S
C996 H987 0.929 . S
C996 C988 1.378 . S
C996 C991 1.350 . S
C997 H984 0.929 . S
C997 C989 1.433 . S
C997 N999 1.384 . S
N998 C994 1.427 . S
N998 C995 1.384 . S
N999 C991 1.427 . S
N999 C997 1.384 . S
H1000 C1006 0.930 . S
H1001 C1010 0.930 . S
H1002 C1015 0.929 . S
H1003 C1013 0.929 . S
H1004 C1008 0.929 . S
H1005 C1014 0.929 . S
C1006 H1000 0.930 . S
C1006 C1007 1.367 . S
C1006 C1014 1.378 . S
C1007 C1006 1.367 . S
C1007 C1015 1.433 . S
C1008 H1004 0.929 . S
C1008 C1010 1.378 . S
C1008 C1012 1.350 . S
C1009 C1012 1.463 . S
C1009 C1014 1.350 . S
C1009 N1017 1.427 . S
C1010 H1001 0.930 . S
C1010 C1008 1.378 . S
C1010 C1011 1.367 . S
C1011 C1010 1.367 . S
C1011 C1013 1.433 . S
C1012 C1008 1.350 . S
C1012 C1009 1.463 . S
C1012 N1016 1.427 . S
C1013 H1003 0.929 . S
C1013 C1011 1.433 . S
C1013 N1016 1.384 . S
C1014 H1005 0.929 . S
C1014 C1006 1.378 . S
C1014 C1009 1.350 . S
C1015 H1002 0.929 . S
C1015 C1007 1.433 . S
C1015 N1017 1.384 . S
N1016 C1012 1.427 . S
N1016 C1013 1.384 . S
N1017 C1009 1.427 . S
N1017 C1015 1.384 . S
H1018 C1024 0.930 . S
H1019 C1028 0.930 . S
H1020 C1033 0.929 . S
H1021 C1031 0.929 . S
H1022 C1026 0.929 . S
H1023 C1032 0.929 . S
C1024 H1018 0.930 . S
C1024 C1025 1.367 . S
C1024 C1032 1.378 . S
C1025 C1024 1.367 . S
C1025 C1033 1.433 . S
C1026 H1022 0.929 . S
C1026 C1028 1.378 . S
C1026 C1030 1.350 . S
C1027 C1030 1.463 . S
C1027 C1032 1.350 . S
C1027 N1035 1.427 . S
C1028 H1019 0.930 . S
C1028 C1026 1.378 . S
C1028 C1029 1.367 . S
C1029 C1028 1.367 . S
C1029 C1031 1.433 . S
C1030 C1026 1.350 . S
C1030 C1027 1.463 . S
C1030 N1034 1.427 . S
C1031 H1021 0.929 . S
C1031 C1029 1.433 . S
C1031 N1034 1.384 . S
C1032 H1023 0.929 . S
C1032 C1024 1.378 . S
C1032 C1027 1.350 . S
C1033 H1020 0.929 . S
C1033 C1025 1.433 . S
C1033 N1035 1.384 . S
N1034 C1030 1.427 . S
N1034 C1031 1.384 . S
N1035 C1027 1.427 . S
N1035 C1033 1.384 . S
H1036 C1042 0.930 . S
H1037 C1046 0.930 . S
H1038 C1051 0.929 . S
H1039 C1049 0.929 . S
H1040 C1044 0.929 . S
H1041 C1050 0.929 . S
C1042 H1036 0.930 . S
C1042 C1043 1.367 . S
C1042 C1050 1.378 . S
C1043 C1042 1.367 . S
C1043 C1051 1.433 . S
C1044 H1040 0.929 . S
C1044 C1046 1.378 . S
C1044 C1048 1.350 . S
C1045 C1048 1.463 . S
C1045 C1050 1.350 . S
C1045 N1053 1.427 . S
C1046 H1037 0.930 . S
C1046 C1044 1.378 . S
C1046 C1047 1.367 . S
C1047 C1046 1.367 . S
C1047 C1049 1.433 . S
C1048 C1044 1.350 . S
C1048 C1045 1.463 . S
C1048 N1052 1.427 . S
C1049 H1039 0.929 . S
C1049 C1047 1.433 . S
C1049 N1052 1.384 . S
C1050 H1041 0.929 . S
C1050 C1042 1.378 . S
C1050 C1045 1.350 . S
C1051 H1038 0.929 . S
C1051 C1043 1.433 . S
C1051 N1053 1.384 . S
N1052 C1048 1.427 . S
N1052 C1049 1.384 . S
N1053 C1045 1.427 . S
N1053 C1051 1.384 . S
H1054 C1060 0.930 . S
H1055 C1064 0.930 . S
H1056 C1069 0.929 . S
H1057 C1067 0.929 . S
H1058 C1062 0.929 . S
H1059 C1068 0.929 . S
C1060 H1054 0.930 . S
C1060 C1061 1.367 . S
C1060 C1068 1.378 . S
C1061 C1060 1.367 . S
C1061 C1069 1.433 . S
C1062 H1058 0.929 . S
C1062 C1064 1.378 . S
C1062 C1066 1.350 . S
C1063 C1066 1.463 . S
C1063 C1068 1.350 . S
C1063 N1071 1.427 . S
C1064 H1055 0.930 . S
C1064 C1062 1.378 . S
C1064 C1065 1.367 . S
C1065 C1064 1.367 . S
C1065 C1067 1.433 . S
C1066 C1062 1.350 . S
C1066 C1063 1.463 . S
C1066 N1070 1.427 . S
C1067 H1057 0.929 . S
C1067 C1065 1.433 . S
C1067 N1070 1.384 . S
C1068 H1059 0.929 . S
C1068 C1060 1.378 . S
C1068 C1063 1.350 . S
C1069 H1056 0.929 . S
C1069 C1061 1.433 . S
C1069 N1071 1.384 . S
N1070 C1066 1.427 . S
N1070 C1067 1.384 . S
N1071 C1063 1.427 . S
N1071 C1069 1.384 . S
H1072 C1078 0.930 . S
H1073 C1082 0.930 . S
H1074 C1087 0.929 . S
H1075 C1085 0.929 . S
H1076 C1080 0.929 . S
H1077 C1086 0.929 . S
C1078 H1072 0.930 . S
C1078 C1079 1.367 . S
C1078 C1086 1.378 . S
C1079 C1078 1.367 . S
C1079 C1087 1.433 . S
C1080 H1076 0.929 . S
C1080 C1082 1.378 . S
C1080 C1084 1.350 . S
C1081 C1084 1.463 . S
C1081 C1086 1.350 . S
C1081 N1089 1.427 . S
C1082 H1073 0.930 . S
C1082 C1080 1.378 . S
C1082 C1083 1.367 . S
C1083 C1082 1.367 . S
C1083 C1085 1.433 . S
C1084 C1080 1.350 . S
C1084 C1081 1.463 . S
C1084 N1088 1.427 . S
C1085 H1075 0.929 . S
C1085 C1083 1.433 . S
C1085 N1088 1.384 . S
C1086 H1077 0.929 . S
C1086 C1078 1.378 . S
C1086 C1081 1.350 . S
C1087 H1074 0.929 . S
C1087 C1079 1.433 . S
C1087 N1089 1.384 . S
N1088 C1084 1.427 . S
N1088 C1085 1.384 . S
N1089 C1081 1.427 . S
N1089 C1087 1.384 . S
H1090 C1096 0.930 . S
H1091 C1100 0.930 . S
H1092 C1105 0.929 . S
H1093 C1103 0.929 1_545 S
H1094 C1098 0.929 . S
H1095 C1104 0.929 . S
C1096 H1090 0.930 . S
C1096 C1097 1.367 . S
C1096 C1104 1.378 . S
C1097 C1096 1.367 . S
C1097 C1105 1.433 . S
C1098 H1094 0.929 . S
C1098 C1100 1.378 . S
C1098 C1102 1.350 . S
C1099 C1102 1.463 . S
C1099 C1104 1.350 . S
C1099 N1107 1.427 . S
C1100 H1091 0.930 . S
C1100 C1098 1.378 . S
C1100 C1101 1.367 . S
C1101 C1100 1.367 . S
C1101 C1103 1.433 . S
C1102 C1098 1.350 . S
C1102 C1099 1.463 . S
C1102 N1106 1.427 . S
C1103 H1093 0.929 1_565 S
C1103 C1101 1.433 . S
C1103 N1106 1.384 . S
C1104 H1095 0.929 . S
C1104 C1096 1.378 . S
C1104 C1099 1.350 . S
C1105 H1092 0.929 . S
C1105 C1097 1.433 . S
C1105 N1107 1.384 . S
N1106 C1102 1.427 . S
N1106 C1103 1.384 . S
N1107 C1099 1.427 . S
N1107 C1105 1.384 . S
H1108 C1114 0.930 . S
H1109 C1118 0.930 . S
H1110 C1123 0.929 . S
H1111 C1121 0.929 . S
H1112 C1116 0.929 . S
H1113 C1122 0.929 . S
C1114 H1108 0.930 . S
C1114 C1115 1.367 . S
C1114 C1122 1.378 . S
C1115 C1114 1.367 . S
C1115 C1123 1.433 . S
C1116 H1112 0.929 . S
C1116 C1118 1.378 . S
C1116 C1120 1.350 . S
C1117 C1120 1.463 . S
C1117 C1122 1.350 . S
C1117 N1125 1.427 . S
C1118 H1109 0.930 . S
C1118 C1116 1.378 . S
C1118 C1119 1.367 . S
C1119 C1118 1.367 . S
C1119 C1121 1.433 . S
C1120 C1116 1.350 . S
C1120 C1117 1.463 . S
C1120 N1124 1.427 . S
C1121 H1111 0.929 . S
C1121 C1119 1.433 . S
C1121 N1124 1.384 . S
C1122 H1113 0.929 . S
C1122 C1114 1.378 . S
C1122 C1117 1.350 . S
C1123 H1110 0.929 . S
C1123 C1115 1.433 . S
C1123 N1125 1.384 . S
N1124 C1120 1.427 . S
N1124 C1121 1.384 . S
N1125 C1117 1.427 . S
N1125 C1123 1.384 . S
H1126 C1132 0.930 . S
H1127 C1136 0.930 . S
H1128 C1141 0.929 . S
H1129 C1139 0.929 . S
H1130 C1134 0.929 . S
H1131 C1140 0.929 . S
C1132 H1126 0.930 . S
C1132 C1133 1.367 . S
C1132 C1140 1.378 . S
C1133 C1132 1.367 . S
C1133 C1141 1.433 . S
C1134 H1130 0.929 . S
C1134 C1136 1.378 . S
C1134 C1138 1.350 . S
C1135 C1138 1.463 . S
C1135 C1140 1.350 . S
C1135 N1143 1.427 . S
C1136 H1127 0.930 . S
C1136 C1134 1.378 . S
C1136 C1137 1.367 . S
C1137 C1136 1.367 . S
C1137 C1139 1.433 . S
C1138 C1134 1.350 . S
C1138 C1135 1.463 . S
C1138 N1142 1.427 . S
C1139 H1129 0.929 . S
C1139 C1137 1.433 . S
C1139 N1142 1.384 . S
C1140 H1131 0.929 . S
C1140 C1132 1.378 . S
C1140 C1135 1.350 . S
C1141 H1128 0.929 . S
C1141 C1133 1.433 . S
C1141 N1143 1.384 . S
N1142 C1138 1.427 . S
N1142 C1139 1.384 . S
N1143 C1135 1.427 . S
N1143 C1141 1.384 . S
H1144 C1150 0.930 . S
H1145 C1154 0.930 . S
H1146 C1159 0.929 . S
H1147 C1157 0.929 . S
H1148 C1152 0.929 . S
H1149 C1158 0.929 . S
C1150 H1144 0.930 . S
C1150 C1151 1.367 . S
C1150 C1158 1.378 . S
C1151 C1150 1.367 . S
C1151 C1159 1.433 . S
C1152 H1148 0.929 . S
C1152 C1154 1.378 . S
C1152 C1156 1.350 . S
C1153 C1156 1.463 . S
C1153 C1158 1.350 . S
C1153 N1161 1.427 . S
C1154 H1145 0.930 . S
C1154 C1152 1.378 . S
C1154 C1155 1.367 . S
C1155 C1154 1.367 . S
C1155 C1157 1.433 . S
C1156 C1152 1.350 . S
C1156 C1153 1.463 . S
C1156 N1160 1.427 . S
C1157 H1147 0.929 . S
C1157 C1155 1.433 . S
C1157 N1160 1.384 . S
C1158 H1149 0.929 . S
C1158 C1150 1.378 . S
C1158 C1153 1.350 . S
C1159 H1146 0.929 . S
C1159 C1151 1.433 . S
C1159 N1161 1.384 . S
N1160 C1156 1.427 . S
N1160 C1157 1.384 . S
N1161 C1153 1.427 . S
N1161 C1159 1.384 . S
H1162 C1168 0.930 . S
H1163 C1172 0.930 . S
H1164 C1177 0.929 . S
H1165 C1175 0.929 . S
H1166 C1170 0.929 . S
H1167 C1176 0.929 . S
C1168 H1162 0.930 . S
C1168 C1169 1.367 . S
C1168 C1176 1.378 . S
C1169 C1168 1.367 . S
C1169 C1177 1.433 . S
C1170 H1166 0.929 . S
C1170 C1172 1.378 . S
C1170 C1174 1.350 . S
C1171 C1174 1.463 . S
C1171 C1176 1.350 . S
C1171 N1179 1.427 . S
C1172 H1163 0.930 . S
C1172 C1170 1.378 . S
C1172 C1173 1.367 . S
C1173 C1172 1.367 . S
C1173 C1175 1.433 . S
C1174 C1170 1.350 . S
C1174 C1171 1.463 . S
C1174 N1178 1.427 . S
C1175 H1165 0.929 . S
C1175 C1173 1.433 . S
C1175 N1178 1.384 . S
C1176 H1167 0.929 . S
C1176 C1168 1.378 . S
C1176 C1171 1.350 . S
C1177 H1164 0.929 . S
C1177 C1169 1.433 . S
C1177 N1179 1.384 . S
N1178 C1174 1.427 . S
N1178 C1175 1.384 . S
N1179 C1171 1.427 . S
N1179 C1177 1.384 . S
H1180 C1186 0.930 . S
H1181 C1190 0.930 . S
H1182 C1195 0.929 . S
H1183 C1193 0.929 . S
H1184 C1188 0.929 . S
H1185 C1194 0.929 . S
C1186 H1180 0.930 . S
C1186 C1187 1.367 . S
C1186 C1194 1.378 . S
C1187 C1186 1.367 . S
C1187 C1195 1.433 . S
C1188 H1184 0.929 . S
C1188 C1190 1.378 . S
C1188 C1192 1.350 . S
C1189 C1192 1.463 . S
C1189 C1194 1.350 . S
C1189 N1197 1.427 . S
C1190 H1181 0.930 . S
C1190 C1188 1.378 . S
C1190 C1191 1.367 . S
C1191 C1190 1.367 . S
C1191 C1193 1.433 . S
C1192 C1188 1.350 . S
C1192 C1189 1.463 . S
C1192 N1196 1.427 . S
C1193 H1183 0.929 . S
C1193 C1191 1.433 . S
C1193 N1196 1.384 . S
C1194 H1185 0.929 . S
C1194 C1186 1.378 . S
C1194 C1189 1.350 . S
C1195 H1182 0.929 . S
C1195 C1187 1.433 . S
C1195 N1197 1.384 . S
N1196 C1192 1.427 . S
N1196 C1193 1.384 . S
N1197 C1189 1.427 . S
N1197 C1195 1.384 . S
H1198 C1204 0.930 . S
H1199 C1208 0.930 . S
H1200 C1213 0.929 . S
H1201 C1211 0.929 . S
H1202 C1206 0.929 . S
H1203 C1212 0.929 . S
C1204 H1198 0.930 . S
C1204 C1205 1.367 . S
C1204 C1212 1.378 . S
C1205 C1204 1.367 . S
C1205 C1213 1.433 . S
C1206 H1202 0.929 . S
C1206 C1208 1.378 . S
C1206 C1210 1.350 . S
C1207 C1210 1.463 . S
C1207 C1212 1.350 . S
C1207 N1215 1.427 . S
C1208 H1199 0.930 . S
C1208 C1206 1.378 . S
C1208 C1209 1.367 . S
C1209 C1208 1.367 . S
C1209 C1211 1.433 . S
C1210 C1206 1.350 . S
C1210 C1207 1.463 . S
C1210 N1214 1.427 . S
C1211 H1201 0.929 . S
C1211 C1209 1.433 . S
C1211 N1214 1.384 . S
C1212 H1203 0.929 . S
C1212 C1204 1.378 . S
C1212 C1207 1.350 . S
C1213 H1200 0.929 . S
C1213 C1205 1.433 . S
C1213 N1215 1.384 . S
N1214 C1210 1.427 . S
N1214 C1211 1.384 . S
N1215 C1207 1.427 . S
N1215 C1213 1.384 . S
H1216 C1222 0.930 . S
H1217 C1226 0.930 . S
H1218 C1231 0.929 . S
H1219 C1229 0.929 . S
H1220 C1224 0.929 . S
H1221 C1230 0.929 . S
C1222 H1216 0.930 . S
C1222 C1223 1.367 1_556 S
C1222 C1230 1.378 . S
C1223 C1222 1.367 1_554 S
C1223 C1231 1.433 . S
C1224 H1220 0.929 . S
C1224 C1226 1.378 . S
C1224 C1228 1.350 . S
C1225 C1228 1.463 . S
C1225 C1230 1.350 . S
C1225 N1233 1.427 . S
C1226 H1217 0.930 . S
C1226 C1224 1.378 . S
C1226 C1227 1.367 . S
C1227 C1226 1.367 . S
C1227 C1229 1.433 . S
C1228 C1224 1.350 . S
C1228 C1225 1.463 . S
C1228 N1232 1.427 . S
C1229 H1219 0.929 . S
C1229 C1227 1.433 . S
C1229 N1232 1.384 . S
C1230 H1221 0.929 . S
C1230 C1222 1.378 . S
C1230 C1225 1.350 . S
C1231 H1218 0.929 . S
C1231 C1223 1.433 . S
C1231 N1233 1.384 1_554 S
N1232 C1228 1.427 . S
N1232 C1229 1.384 . S
N1233 C1225 1.427 . S
N1233 C1231 1.384 1_556 S
H1234 C1240 0.930 . S
H1235 C1244 0.930 . S
H1236 C1249 0.929 . S
H1237 C1247 0.929 . S
H1238 C1242 0.929 . S
H1239 C1248 0.929 . S
C1240 H1234 0.930 . S
C1240 C1241 1.367 . S
C1240 C1248 1.378 . S
C1241 C1240 1.367 . S
C1241 C1249 1.433 . S
C1242 H1238 0.929 . S
C1242 C1244 1.378 . S
C1242 C1246 1.350 . S
C1243 C1246 1.463 . S
C1243 C1248 1.350 . S
C1243 N1251 1.427 . S
C1244 H1235 0.930 . S
C1244 C1242 1.378 . S
C1244 C1245 1.367 . S
C1245 C1244 1.367 . S
C1245 C1247 1.433 . S
C1246 C1242 1.350 . S
C1246 C1243 1.463 . S
C1246 N1250 1.427 . S
C1247 H1237 0.929 . S
C1247 C1245 1.433 . S
C1247 N1250 1.384 . S
C1248 H1239 0.929 . S
C1248 C1240 1.378 . S
C1248 C1243 1.350 . S
C1249 H1236 0.929 . S
C1249 C1241 1.433 . S
C1249 N1251 1.384 . S
N1250 C1246 1.427 . S
N1250 C1247 1.384 . S
N1251 C1243 1.427 . S
N1251 C1249 1.384 . S
H1252 C1258 0.930 . S
H1253 C1262 0.930 . S
H1254 C1267 0.929 . S
H1255 C1265 0.929 . S
H1256 C1260 0.929 . S
H1257 C1266 0.929 . S
C1258 H1252 0.930 . S
C1258 C1259 1.367 . S
C1258 C1266 1.378 . S
C1259 C1258 1.367 . S
C1259 C1267 1.433 . S
C1260 H1256 0.929 . S
C1260 C1262 1.378 . S
C1260 C1264 1.350 . S
C1261 C1264 1.463 . S
C1261 C1266 1.350 . S
C1261 N1269 1.427 . S
C1262 H1253 0.930 . S
C1262 C1260 1.378 . S
C1262 C1263 1.367 . S
C1263 C1262 1.367 . S
C1263 C1265 1.433 . S
C1264 C1260 1.350 . S
C1264 C1261 1.463 . S
C1264 N1268 1.427 . S
C1265 H1255 0.929 . S
C1265 C1263 1.433 . S
C1265 N1268 1.384 . S
C1266 H1257 0.929 . S
C1266 C1258 1.378 . S
C1266 C1261 1.350 . S
C1267 H1254 0.929 . S
C1267 C1259 1.433 . S
C1267 N1269 1.384 . S
N1268 C1264 1.427 . S
N1268 C1265 1.384 . S
N1269 C1261 1.427 . S
N1269 C1267 1.384 . S
H1270 C1276 0.930 . S
H1271 C1280 0.930 . S
H1272 C1285 0.929 . S
H1273 C1283 0.929 . S
H1274 C1278 0.929 . S
H1275 C1284 0.929 . S
C1276 H1270 0.930 . S
C1276 C1277 1.367 . S
C1276 C1284 1.378 . S
C1277 C1276 1.367 . S
C1277 C1285 1.433 . S
C1278 H1274 0.929 . S
C1278 C1280 1.378 . S
C1278 C1282 1.350 . S
C1279 C1282 1.463 . S
C1279 C1284 1.350 . S
C1279 N1287 1.427 . S
C1280 H1271 0.930 . S
C1280 C1278 1.378 . S
C1280 C1281 1.367 . S
C1281 C1280 1.367 . S
C1281 C1283 1.433 . S
C1282 C1278 1.350 . S
C1282 C1279 1.463 . S
C1282 N1286 1.427 . S
C1283 H1273 0.929 . S
C1283 C1281 1.433 . S
C1283 N1286 1.384 . S
C1284 H1275 0.929 . S
C1284 C1276 1.378 . S
C1284 C1279 1.350 . S
C1285 H1272 0.929 . S
C1285 C1277 1.433 . S
C1285 N1287 1.384 . S
N1286 C1282 1.427 . S
N1286 C1283 1.384 . S
N1287 C1279 1.427 . S
N1287 C1285 1.384 . S
H1288 C1294 0.930 . S
H1289 C1298 0.930 . S
H1290 C1303 0.929 . S
H1291 C1301 0.929 . S
H1292 C1296 0.929 . S
H1293 C1302 0.929 . S
C1294 H1288 0.930 . S
C1294 C1295 1.367 . S
C1294 C1302 1.378 . S
C1295 C1294 1.367 . S
C1295 C1303 1.433 . S
C1296 H1292 0.929 . S
C1296 C1298 1.378 1_554 S
C1296 C1300 1.350 . S
C1297 C1300 1.463 . S
C1297 C1302 1.350 . S
C1297 N1305 1.427 . S
C1298 H1289 0.930 . S
C1298 C1296 1.378 1_556 S
C1298 C1299 1.367 . S
C1299 C1298 1.367 . S
C1299 C1301 1.433 1_556 S
C1300 C1296 1.350 . S
C1300 C1297 1.463 . S
C1300 N1304 1.427 . S
C1301 H1291 0.929 . S
C1301 C1299 1.433 1_554 S
C1301 N1304 1.384 . S
C1302 H1293 0.929 . S
C1302 C1294 1.378 . S
C1302 C1297 1.350 . S
C1303 H1290 0.929 . S
C1303 C1295 1.433 . S
C1303 N1305 1.384 . S
N1304 C1300 1.427 . S
N1304 C1301 1.384 . S
N1305 C1297 1.427 . S
N1305 C1303 1.384 . S
H1306 C1312 0.930 . S
H1307 C1316 0.930 . S
H1308 C1321 0.929 . S
H1309 C1319 0.929 . S
H1310 C1314 0.929 . S
H1311 C1320 0.929 . S
C1312 H1306 0.930 . S
C1312 C1313 1.367 . S
C1312 C1320 1.378 . S
C1313 C1312 1.367 . S
C1313 C1321 1.433 . S
C1314 H1310 0.929 . S
C1314 C1316 1.378 . S
C1314 C1318 1.350 . S
C1315 C1318 1.463 . S
C1315 C1320 1.350 . S
C1315 N1323 1.427 . S
C1316 H1307 0.930 . S
C1316 C1314 1.378 . S
C1316 C1317 1.367 . S
C1317 C1316 1.367 . S
C1317 C1319 1.433 . S
C1318 C1314 1.350 . S
C1318 C1315 1.463 . S
C1318 N1322 1.427 . S
C1319 H1309 0.929 . S
C1319 C1317 1.433 . S
C1319 N1322 1.384 . S
C1320 H1311 0.929 . S
C1320 C1312 1.378 . S
C1320 C1315 1.350 . S
C1321 H1308 0.929 . S
C1321 C1313 1.433 . S
C1321 N1323 1.384 . S
N1322 C1318 1.427 . S
N1322 C1319 1.384 . S
N1323 C1315 1.427 . S
N1323 C1321 1.384 . S
H1324 C1330 0.930 . S
H1325 C1334 0.930 . S
H1326 C1339 0.929 . S
H1327 C1337 0.929 . S
H1328 C1332 0.929 . S
H1329 C1338 0.929 . S
C1330 H1324 0.930 . S
C1330 C1331 1.367 . S
C1330 C1338 1.378 . S
C1331 C1330 1.367 . S
C1331 C1339 1.433 . S
C1332 H1328 0.929 . S
C1332 C1334 1.378 . S
C1332 C1336 1.350 . S
C1333 C1336 1.463 . S
C1333 C1338 1.350 . S
C1333 N1341 1.427 . S
C1334 H1325 0.930 . S
C1334 C1332 1.378 . S
C1334 C1335 1.367 . S
C1335 C1334 1.367 . S
C1335 C1337 1.433 . S
C1336 C1332 1.350 . S
C1336 C1333 1.463 . S
C1336 N1340 1.427 . S
C1337 H1327 0.929 . S
C1337 C1335 1.433 . S
C1337 N1340 1.384 . S
C1338 H1329 0.929 . S
C1338 C1330 1.378 . S
C1338 C1333 1.350 . S
C1339 H1326 0.929 . S
C1339 C1331 1.433 . S
C1339 N1341 1.384 . S
N1340 C1336 1.427 . S
N1340 C1337 1.384 . S
N1341 C1333 1.427 . S
N1341 C1339 1.384 . S
H1342 C1348 0.930 . S
H1343 C1352 0.930 . S
H1344 C1357 0.929 . S
H1345 C1355 0.929 . S
H1346 C1350 0.929 . S
H1347 C1356 0.929 . S
C1348 H1342 0.930 . S
C1348 C1349 1.367 . S
C1348 C1356 1.378 . S
C1349 C1348 1.367 . S
C1349 C1357 1.433 . S
C1350 H1346 0.929 . S
C1350 C1352 1.378 . S
C1350 C1354 1.350 . S
C1351 C1354 1.463 . S
C1351 C1356 1.350 . S
C1351 N1359 1.427 . S
C1352 H1343 0.930 . S
C1352 C1350 1.378 . S
C1352 C1353 1.367 . S
C1353 C1352 1.367 . S
C1353 C1355 1.433 . S
C1354 C1350 1.350 . S
C1354 C1351 1.463 . S
C1354 N1358 1.427 . S
C1355 H1345 0.929 . S
C1355 C1353 1.433 . S
C1355 N1358 1.384 . S
C1356 H1347 0.929 . S
C1356 C1348 1.378 . S
C1356 C1351 1.350 . S
C1357 H1344 0.929 . S
C1357 C1349 1.433 . S
C1357 N1359 1.384 . S
N1358 C1354 1.427 . S
N1358 C1355 1.384 . S
N1359 C1351 1.427 . S
N1359 C1357 1.384 . S
H1360 C1366 0.930 . S
H1361 C1370 0.930 . S
H1362 C1375 0.929 . S
H1363 C1373 0.929 . S
H1364 C1368 0.929 . S
H1365 C1374 0.929 . S
C1366 H1360 0.930 . S
C1366 C1367 1.367 . S
C1366 C1374 1.378 . S
C1367 C1366 1.367 . S
C1367 C1375 1.433 . S
C1368 H1364 0.929 . S
C1368 C1370 1.378 . S
C1368 C1372 1.350 . S
C1369 C1372 1.463 . S
C1369 C1374 1.350 . S
C1369 N1377 1.427 . S
C1370 H1361 0.930 . S
C1370 C1368 1.378 . S
C1370 C1371 1.367 . S
C1371 C1370 1.367 . S
C1371 C1373 1.433 . S
C1372 C1368 1.350 . S
C1372 C1369 1.463 . S
C1372 N1376 1.427 . S
C1373 H1363 0.929 . S
C1373 C1371 1.433 . S
C1373 N1376 1.384 . S
C1374 H1365 0.929 . S
C1374 C1366 1.378 . S
C1374 C1369 1.350 . S
C1375 H1362 0.929 . S
C1375 C1367 1.433 . S
C1375 N1377 1.384 . S
N1376 C1372 1.427 . S
N1376 C1373 1.384 . S
N1377 C1369 1.427 . S
N1377 C1375 1.384 . S
H1378 C1384 0.930 . S
H1379 C1388 0.930 . S
H1380 C1393 0.929 . S
H1381 C1391 0.929 . S
H1382 C1386 0.929 . S
H1383 C1392 0.929 . S
C1384 H1378 0.930 . S
C1384 C1385 1.367 . S
C1384 C1392 1.378 . S
C1385 C1384 1.367 . S
C1385 C1393 1.433 . S
C1386 H1382 0.929 . S
C1386 C1388 1.378 1_565 S
C1386 C1390 1.350 . S
C1387 C1390 1.463 . S
C1387 C1392 1.350 . S
C1387 N1395 1.427 . S
C1388 H1379 0.930 . S
C1388 C1386 1.378 1_545 S
C1388 C1389 1.368 . S
C1389 C1388 1.368 . S
C1389 C1391 1.428 1_545 S
C1390 C1386 1.350 . S
C1390 C1387 1.463 . S
C1390 N1394 1.427 . S
C1391 H1381 0.929 . S
C1391 C1389 1.428 1_565 S
C1391 N1394 1.384 . S
C1392 H1383 0.929 . S
C1392 C1384 1.378 . S
C1392 C1387 1.350 . S
C1393 H1380 0.929 . S
C1393 C1385 1.433 . S
C1393 N1395 1.384 . S
N1394 C1390 1.427 . S
N1394 C1391 1.384 . S
N1395 C1387 1.427 . S
N1395 C1393 1.384 . S
H1396 C1402 0.930 . S
H1397 C1406 0.930 1_554 S
H1398 C1411 0.929 . S
H1399 C1409 0.937 . S
H1400 C1404 0.929 . S
H1401 C1410 0.929 . S
C1402 H1396 0.930 . S
C1402 C1403 1.367 . S
C1402 C1410 1.378 . S
C1403 C1402 1.367 . S
C1403 C1411 1.433 . S
C1404 H1400 0.929 . S
C1404 C1406 1.378 . S
C1404 C1408 1.350 . S
C1405 C1408 1.463 . S
C1405 C1410 1.350 . S
C1405 N1413 1.427 . S
C1406 H1397 0.930 1_556 S
C1406 C1404 1.378 . S
C1406 C1407 1.367 1_556 S
C1407 C1406 1.367 1_554 S
C1407 C1409 1.439 . S
C1408 C1404 1.350 . S
C1408 C1405 1.463 . S
C1408 N1412 1.427 . S
C1409 H1399 0.937 . S
C1409 C1407 1.439 . S
C1409 N1412 1.370 1_554 S
C1410 H1401 0.929 . S
C1410 C1402 1.378 . S
C1410 C1405 1.350 . S
C1411 H1398 0.929 . S
C1411 C1403 1.433 . S
C1411 N1413 1.384 . S
N1412 C1408 1.427 . S
N1412 C1409 1.370 1_556 S
N1413 C1405 1.427 . S
N1413 C1411 1.384 . S
H1414 C1420 0.930 . S
H1415 C1424 0.930 . S
H1416 C1429 0.929 . S
H1417 C1427 0.929 . S
H1418 C1422 0.929 . S
H1419 C1428 0.929 . S
C1420 H1414 0.930 . S
C1420 C1421 1.381 . S
C1420 C1428 1.378 . S
C1421 C1420 1.381 . S
C1421 C1429 1.428 1_545 S
C1422 H1418 0.929 . S
C1422 C1424 1.378 . S
C1422 C1426 1.350 . S
C1423 C1426 1.463 . S
C1423 C1428 1.350 . S
C1423 N1431 1.427 . S
C1424 H1415 0.930 . S
C1424 C1422 1.378 . S
C1424 C1425 1.367 . S
C1425 C1424 1.367 . S
C1425 C1427 1.433 . S
C1426 C1422 1.350 . S
C1426 C1423 1.463 . S
C1426 N1430 1.427 . S
C1427 H1417 0.929 . S
C1427 C1425 1.433 . S
C1427 N1430 1.384 . S
C1428 H1419 0.929 . S
C1428 C1420 1.378 . S
C1428 C1423 1.350 . S
C1429 H1416 0.929 . S
C1429 C1421 1.428 1_565 S
C1429 N1431 1.384 1_565 S
N1430 C1426 1.427 . S
N1430 C1427 1.384 . S
N1431 C1423 1.427 . S
N1431 C1429 1.384 1_545 S
H1432 C1438 0.930 . S
H1433 C1442 0.930 . S
H1434 C1447 0.929 . S
H1435 C1445 0.929 . S
H1436 C1440 0.929 . S
H1437 C1446 0.929 . S
C1438 H1432 0.930 . S
C1438 C1439 1.367 . S
C1438 C1446 1.378 . S
C1439 C1438 1.367 . S
C1439 C1447 1.433 . S
C1440 H1436 0.929 . S
C1440 C1442 1.378 . S
C1440 C1444 1.350 . S
C1441 C1444 1.463 . S
C1441 C1446 1.350 . S
C1441 N1449 1.427 . S
C1442 H1433 0.930 . S
C1442 C1440 1.378 . S
C1442 C1443 1.367 . S
C1443 C1442 1.367 . S
C1443 C1445 1.433 . S
C1444 C1440 1.350 . S
C1444 C1441 1.463 . S
C1444 N1448 1.427 . S
C1445 H1435 0.929 . S
C1445 C1443 1.433 . S
C1445 N1448 1.384 . S
C1446 H1437 0.929 . S
C1446 C1438 1.378 . S
C1446 C1441 1.350 . S
C1447 H1434 0.929 . S
C1447 C1439 1.433 . S
C1447 N1449 1.384 . S
N1448 C1444 1.427 . S
N1448 C1445 1.384 . S
N1449 C1441 1.427 . S
N1449 C1447 1.384 . S
H1450 C1456 0.930 . S
H1451 C1460 0.930 . S
H1452 C1465 0.929 . S
H1453 C1463 0.929 . S
H1454 C1458 0.929 1_565 S
H1455 C1464 0.929 . S
C1456 H1450 0.930 . S
C1456 C1457 1.367 . S
C1456 C1464 1.378 . S
C1457 C1456 1.367 . S
C1457 C1465 1.433 . S
C1458 H1454 0.929 1_545 S
C1458 C1460 1.378 1_545 S
C1458 C1462 1.350 . S
C1459 C1462 1.463 . S
C1459 C1464 1.350 . S
C1459 N1467 1.427 . S
C1460 H1451 0.930 . S
C1460 C1458 1.378 1_565 S
C1460 C1461 1.373 . S
C1461 C1460 1.373 . S
C1461 C1463 1.418 1_565 S
C1462 C1458 1.350 . S
C1462 C1459 1.463 . S
C1462 N1466 1.427 . S
C1463 H1453 0.929 . S
C1463 C1461 1.418 1_545 S
C1463 N1466 1.384 . S
C1464 H1455 0.929 . S
C1464 C1456 1.378 . S
C1464 C1459 1.350 . S
C1465 H1452 0.929 . S
C1465 C1457 1.433 . S
C1465 N1467 1.384 . S
N1466 C1462 1.427 . S
N1466 C1463 1.384 . S
N1467 C1459 1.427 . S
N1467 C1465 1.384 . S
H1468 C1474 0.930 . S
H1469 C1478 0.930 . S
H1470 C1483 0.929 . S
H1471 C1481 0.929 . S
H1472 C1476 0.929 . S
H1473 C1482 0.929 . S
C1474 H1468 0.930 . S
C1474 C1475 1.367 . S
C1474 C1482 1.378 . S
C1475 C1474 1.367 . S
C1475 C1483 1.433 . S
C1476 H1472 0.929 . S
C1476 C1478 1.378 . S
C1476 C1480 1.350 . S
C1477 C1480 1.463 . S
C1477 C1482 1.350 . S
C1477 N1485 1.427 . S
C1478 H1469 0.930 . S
C1478 C1476 1.378 . S
C1478 C1479 1.367 1_554 S
C1479 C1478 1.367 1_556 S
C1479 C1481 1.433 . S
C1480 C1476 1.350 . S
C1480 C1477 1.463 . S
C1480 N1484 1.427 . S
C1481 H1471 0.929 . S
C1481 C1479 1.433 . S
C1481 N1484 1.384 1_556 S
C1482 H1473 0.929 . S
C1482 C1474 1.378 . S
C1482 C1477 1.350 . S
C1483 H1470 0.929 . S
C1483 C1475 1.433 . S
C1483 N1485 1.384 . S
N1484 C1480 1.427 . S
N1484 C1481 1.384 1_554 S
N1485 C1477 1.427 . S
N1485 C1483 1.384 . S
H1486 C1492 0.930 . S
H1487 C1496 0.930 . S
H1488 C1501 0.929 . S
H1489 C1499 0.929 . S
H1490 C1494 0.929 . S
H1491 C1500 0.929 . S
C1492 H1486 0.930 . S
C1492 C1493 1.367 . S
C1492 C1500 1.378 . S
C1493 C1492 1.367 . S
C1493 C1501 1.433 . S
C1494 H1490 0.929 . S
C1494 C1496 1.378 . S
C1494 C1498 1.350 . S
C1495 C1498 1.463 . S
C1495 C1500 1.350 . S
C1495 N1503 1.427 . S
C1496 H1487 0.930 . S
C1496 C1494 1.378 . S
C1496 C1497 1.380 . S
C1497 C1496 1.380 . S
C1497 C1499 1.428 1_565 S
C1498 C1494 1.350 . S
C1498 C1495 1.463 . S
C1498 N1502 1.427 . S
C1499 H1489 0.929 . S
C1499 C1497 1.428 1_545 S
C1499 N1502 1.384 1_545 S
C1500 H1491 0.929 . S
C1500 C1492 1.378 . S
C1500 C1495 1.350 . S
C1501 H1488 0.929 . S
C1501 C1493 1.433 . S
C1501 N1503 1.384 . S
N1502 C1498 1.427 . S
N1502 C1499 1.384 1_565 S
N1503 C1495 1.427 . S
N1503 C1501 1.384 . S
C647 C9 2.626 . S
C651 C409 2.624 . S
C665 C49 2.631 . S
C669 C449 2.631 . S
C683 C89 2.626 . S
C687 C329 2.624 . S
C701 C369 2.630 . S
C705 C129 2.627 . S
C719 C178 2.630 . S
C723 C578 2.628 . S
C737 C618 2.631 . S
C741 C218 2.628 . S
C755 C498 2.630 . S
C759 C258 2.628 . S
C773 C298 2.624 . S
C777 C538 2.625 . S
C791 C15 0.996 . S
C795 C166 0.996 . S
C809 C55 1.003 . S
C813 C526 1.003 . S
C827 C95 0.969 . S
C831 C246 0.969 . S
C845 C135 0.998 . S
C849 C606 0.998 . S
C863 C206 1.003 . S
C867 C375 1.003 . S
C881 C455 0.978 . S
C885 C286 0.978 . S
C899 C486 0.996 . S
C903 C335 0.996 . S
C917 C415 0.968 . S
C921 C566 0.968 . S
C935 C6 1.108 . S
C939 C289 1.203 . S
C953 C46 1.095 . S
C957 C489 1.193 . S
C971 C86 1.086 . S
C975 C209 1.190 . S
C989 C126 1.101 . S
C993 C569 1.195 . S
C1007 C138 1.206 . S
C1011 C175 1.102 . S
C1025 C215 1.108 . S
C1029 C338 1.202 . S
C1043 C255 1.104 . S
C1047 C58 1.206 . S
C1061 C418 1.192 . S
C1065 C295 1.075 . S
C1079 C326 1.102 . S
C1083 C609 1.206 1_565 S
C1097 C169 1.193 . S
C1101 C366 1.096 . S
C1115 C529 1.190 1_545 S
C1119 C406 1.084 . S
C1133 C249 1.200 . S
C1137 C446 1.107 . S
C1151 C495 1.077 . S
C1155 C458 1.191 1_545 S
C1169 C535 1.107 . S
C1173 C18 1.204 . S
C1187 C378 1.193 1_565 S
C1191 C575 1.096 . S
C1205 C615 1.080 . S
C1209 C98 1.198 . S
C1223 C19 4.049 . S
C1227 C370 4.089 . S
C1241 C410 4.083 . S
C1245 C59 4.043 . S
C1259 C99 4.043 . S
C1263 C450 4.083 . S
C1277 C330 4.089 . S
C1281 C139 4.050 . S
C1295 C539 4.083 . S
C1299 C170 4.042 . S
C1313 C579 4.087 . S
C1317 C210 4.048 . S
C1331 C619 4.089 . S
C1335 C250 4.049 . S
C1349 C499 4.085 . S
C1353 C290 4.044 . S
C1367 C50 4.089 . S
C1371 C339 4.048 . S
C1385 C90 4.089 . S
C1389 C379 4.052 . S
C1403 C130 4.087 . S
C1407 C419 4.046 . S
C1421 C459 4.035 1_545 S
C1425 C10 4.083 . S
C1439 C219 4.083 . S
C1443 C490 4.042 . S
C1457 C259 4.088 . S
C1461 C530 4.056 . S
C1475 C299 4.089 . S
C1479 C570 4.049 . S
C1493 C179 4.085 . S
C1497 C610 4.037 1_565 S
