# Generated by pormake.
# Topology wka, (5)-cn, num edge types: 1
# Building blocks:
#     Node 0, Type 0, BuildingBlock: BEQFEK_clean_sbu_0, # of connection points: 5
#     Node 1, Type 0, BuildingBlock: BEQFEK_clean_sbu_0, # of connection points: 5
#     Node 2, Type 0, BuildingBlock: BEQFEK_clean_sbu_0, # of connection points: 5
#     Node 3, Type 0, BuildingBlock: BEQFEK_clean_sbu_0, # of connection points: 5
#     Node 4, Type 0, BuildingBlock: BEQFEK_clean_sbu_0, # of connection points: 5
#     Node 5, Type 0, BuildingBlock: BEQFEK_clean_sbu_0, # of connection points: 5
#     Node 6, Type 0, BuildingBlock: BEQFEK_clean_sbu_0, # of connection points: 5
#     Node 7, Type 0, BuildingBlock: BEQFEK_clean_sbu_0, # of connection points: 5
#     Node 8, Type 0, BuildingBlock: BEQFEK_clean_sbu_0, # of connection points: 5
#     Node 9, Type 0, BuildingBlock: BEQFEK_clean_sbu_0, # of connection points: 5
#     Node 10, Type 0, BuildingBlock: BEQFEK_clean_sbu_0, # of connection points: 5
#     Node 11, Type 0, BuildingBlock: BEQFEK_clean_sbu_0, # of connection points: 5
#     Edge 12, Type (0, 0), BuildingBlock: XIVTED_clean_linker_0, # of connection points: 2
#     Edge 13, Type (0, 0), BuildingBlock: XIVTED_clean_linker_0, # of connection points: 2
#     Edge 14, Type (0, 0), BuildingBlock: XIVTED_clean_linker_0, # of connection points: 2
#     Edge 15, Type (0, 0), BuildingBlock: XIVTED_clean_linker_0, # of connection points: 2
#     Edge 16, Type (0, 0), BuildingBlock: XIVTED_clean_linker_0, # of connection points: 2
#     Edge 17, Type (0, 0), BuildingBlock: XIVTED_clean_linker_0, # of connection points: 2
#     Edge 18, Type (0, 0), BuildingBlock: XIVTED_clean_linker_0, # of connection points: 2
#     Edge 19, Type (0, 0), BuildingBlock: XIVTED_clean_linker_0, # of connection points: 2
#     Edge 20, Type (0, 0), BuildingBlock: XIVTED_clean_linker_0, # of connection points: 2
#     Edge 21, Type (0, 0), BuildingBlock: XIVTED_clean_linker_0, # of connection points: 2
#     Edge 22, Type (0, 0), BuildingBlock: XIVTED_clean_linker_0, # of connection points: 2
#     Edge 23, Type (0, 0), BuildingBlock: XIVTED_clean_linker_0, # of connection points: 2
#     Edge 24, Type (0, 0), BuildingBlock: XIVTED_clean_linker_0, # of connection points: 2
#     Edge 25, Type (0, 0), BuildingBlock: XIVTED_clean_linker_0, # of connection points: 2
#     Edge 26, Type (0, 0), BuildingBlock: XIVTED_clean_linker_0, # of connection points: 2
#     Edge 27, Type (0, 0), BuildingBlock: XIVTED_clean_linker_0, # of connection points: 2
#     Edge 28, Type (0, 0), BuildingBlock: XIVTED_clean_linker_0, # of connection points: 2
#     Edge 29, Type (0, 0), BuildingBlock: XIVTED_clean_linker_0, # of connection points: 2
#     Edge 30, Type (0, 0), BuildingBlock: XIVTED_clean_linker_0, # of connection points: 2
#     Edge 31, Type (0, 0), BuildingBlock: XIVTED_clean_linker_0, # of connection points: 2
#     Edge 32, Type (0, 0), BuildingBlock: XIVTED_clean_linker_0, # of connection points: 2
#     Edge 33, Type (0, 0), BuildingBlock: XIVTED_clean_linker_0, # of connection points: 2
#     Edge 34, Type (0, 0), BuildingBlock: XIVTED_clean_linker_0, # of connection points: 2
#     Edge 35, Type (0, 0), BuildingBlock: XIVTED_clean_linker_0, # of connection points: 2
#     Edge 36, Type (0, 0), BuildingBlock: XIVTED_clean_linker_0, # of connection points: 2
#     Edge 37, Type (0, 0), BuildingBlock: XIVTED_clean_linker_0, # of connection points: 2
#     Edge 38, Type (0, 0), BuildingBlock: XIVTED_clean_linker_0, # of connection points: 2
#     Edge 39, Type (0, 0), BuildingBlock: XIVTED_clean_linker_0, # of connection points: 2
#     Edge 40, Type (0, 0), BuildingBlock: XIVTED_clean_linker_0, # of connection points: 2
#     Edge 41, Type (0, 0), BuildingBlock: XIVTED_clean_linker_0, # of connection points: 2
# Relax obj value: 0.390
# Max RMSD: 0.234
# Mean RMSD: 0.234
data_MOF--net-wka--node1-BEQFEK_clean_sbu_0--edge1-XIVTED_clean_linker_0
_symmetry_space_group_name_H-M    P1
_symmetry_Int_Tables_number       1
_symmetry_cell_setting            triclinic
loop_
_symmetry_equiv_pos_as_xyz
'x, y, z'
_cell_length_a     68.621996
_cell_length_b     68.604321
_cell_length_c     17.879329
_cell_angle_alpha  90.059268
_cell_angle_beta   89.904079
_cell_angle_gamma 120.01317
loop_
_atom_site_label
_atom_site_type_symbol
_atom_site_fract_x
_atom_site_fract_y
_atom_site_fract_z
_atom_type_partial_charge
Co0 Co 0.11461 0.44798 0.9733 0.0
Co1 Co 0.08791 0.43402 0.12228 0.0
C2 C 0.06636 0.40957 0.98579 0.0
O3 O 0.08397 0.42367 0.95126 0.0
O4 O 0.06514 0.41024 0.05659 0.0
C5 C 0.12457 0.43158 0.84781 0.0
O6 O 0.11661 0.41368 0.89083 0.0
C7 C 0.07147 0.41196 0.26818 0.0
C8 C 0.06986 0.43907 0.32942 0.0
C9 C 0.06786 0.41809 0.3388 0.0
N10 N 0.07626 0.42898 0.22078 0.0
N11 N 0.07456 0.4448 0.25726 0.0
C12 C 0.06938 0.39004 0.24453 0.0
H13 H 0.05719 0.383 0.1977 0.0
H14 H 0.08565 0.39277 0.22255 0.0
H15 H 0.06345 0.37769 0.29104 0.0
C16 C 0.14749 0.44225 0.06158 0.0
N17 N 0.12724 0.44062 0.05389 0.0
N18 N 0.11686 0.43595 0.11905 0.0
C19 C 0.13075 0.4352 0.17108 0.0
C20 C 0.15029 0.43868 0.13606 0.0
C21 C 0.16377 0.44752 -0.00151 0.0
H22 H 0.16668 0.46309 0.96983 0.0
H23 H 0.15637 0.43363 0.95722 0.0
H24 H 0.18002 0.44949 0.01732 0.0
O25 O 0.11434 0.47619 -0.00462 0.0
O26 O 0.09156 0.46353 0.09387 0.0
H27 H 0.11701 0.4427 0.26815 0.0
H28 H 0.144 0.445 0.28261 0.0
C29 C 0.12754 0.4352 0.25397 0.0
H30 H 0.1196 0.41774 0.27532 0.0
H31 H 0.07784 0.46008 0.23391 0.0
O32 O 0.12961 0.45039 0.87747 0.0
C33 C 0.10285 0.47886 0.04618 0.0
Co34 Co 0.66539 0.11896 0.13152 0.0
Co35 Co 0.65347 0.09346 0.28318 0.0
C36 C 0.65236 0.06996 0.14458 0.0
O37 O 0.6572 0.08785 0.10948 0.0
O38 O 0.65083 0.06919 0.21553 0.0
C39 C 0.69145 0.12796 0.00611 0.0
O40 O 0.70212 0.12128 0.05089 0.0
C41 C 0.65949 0.07602 0.42692 0.0
C42 C 0.63222 0.07598 0.49268 0.0
C43 C 0.65029 0.07236 0.49837 0.0
N44 N 0.64773 0.08216 0.38232 0.0
N45 N 0.63109 0.08148 0.42155 0.0
C46 C 0.67793 0.07216 0.39955 0.0
H47 H 0.68648 0.083 0.35041 0.0
H48 H 0.69021 0.07487 0.44415 0.0
H49 H 0.6703 0.0544 0.38102 0.0
C50 C 0.70589 0.15103 0.21476 0.0
N51 N 0.68668 0.13115 0.20936 0.0
N52 N 0.6817 0.12099 0.2749 0.0
C53 C 0.69745 0.1346 0.32475 0.0
C54 C 0.7134 0.15379 0.28778 0.0
C55 C 0.71537 0.16816 0.15349 0.0
H56 H 0.70154 0.1679 0.12071 0.0
H57 H 0.7255 0.16393 0.11541 0.0
H58 H 0.72641 0.18533 0.17611 0.0
O59 O 0.63792 0.12025 0.15698 0.0
O60 O 0.62935 0.10051 0.26228 0.0
H61 H 0.67906 0.1228 0.42773 0.0
H62 H 0.70741 0.14578 0.43912 0.0
C63 C 0.69657 0.13024 0.40705 0.0
H64 H 0.70281 0.11843 0.41762 0.0
H65 H 0.61954 0.08575 0.4007 0.0
O66 O 0.67749 0.13298 0.03432 0.0
C67 C 0.62512 0.11135 0.21341 0.0
Co68 Co 0.54648 0.66686 0.30772 0.0
Co69 Co 0.55887 0.65291 0.45816 0.0
C70 C 0.58192 0.65308 0.3194 0.0
O71 O 0.5692 0.65853 0.28534 0.0
O72 O 0.5808 0.65069 0.39012 0.0
C73 C 0.56405 0.69329 0.18268 0.0
O74 O 0.58156 0.70367 0.22705 0.0
C75 C 0.58113 0.65737 0.60368 0.0
C76 C 0.553 0.63002 0.66633 0.0
C77 C 0.57476 0.64782 0.6745 0.0
N78 N 0.56359 0.6461 0.55715 0.0
N79 N 0.54711 0.6294 0.59457 0.0
C80 C 0.60379 0.67571 0.57867 0.0
H81 H 0.61317 0.66782 0.55519 0.0
H82 H 0.60201 0.68569 0.53313 0.0
H83 H 0.61382 0.68672 0.62553 0.0
C84 C 0.5552 0.70672 0.3958 0.0
N85 N 0.55547 0.68735 0.38802 0.0
N86 N 0.55994 0.68141 0.45304 0.0
C87 C 0.56188 0.69662 0.50492 0.0
C88 C 0.55936 0.71326 0.46991 0.0
C89 C 0.54855 0.7173 0.33533 0.0
H90 H 0.5348 0.70406 0.30125 0.0
H91 H 0.56322 0.72718 0.29817 0.0
H92 H 0.54305 0.72876 0.35881 0.0
O93 O 0.5174 0.6394 0.33026 0.0
O94 O 0.5277 0.6293 0.43417 0.0
H95 H 0.55389 0.67675 0.60497 0.0
H96 H 0.55924 0.70495 0.62026 0.0
C97 C 0.56429 0.69453 0.58726 0.0
H98 H 0.58218 0.70056 0.60001 0.0
H99 H 0.53139 0.61821 0.57208 0.0
O100 O 0.54502 0.67972 0.21136 0.0
C101 C 0.51298 0.6259 0.38488 0.0
Co102 Co 0.879 0.54727 0.46335 0.0
Co103 Co 0.90183 0.56017 0.62022 0.0
C104 C 0.92712 0.58474 0.48738 0.0
O105 O 0.9101 0.57131 0.44936 0.0
O106 O 0.92684 0.58345 0.55827 0.0
C107 C 0.87145 0.5679 0.34831 0.0
O108 O 0.87923 0.5833 0.40109 0.0
C109 C 0.91553 0.5836 0.76459 0.0
C110 C 0.91777 0.55832 0.83431 0.0
C111 C 0.91917 0.57916 0.83726 0.0
N112 N 0.91169 0.56601 0.72127 0.0
N113 N 0.91373 0.55125 0.76292 0.0
C114 C 0.91569 0.60424 0.73672 0.0
H115 H 0.90723 0.60103 0.68156 0.0
H116 H 0.90766 0.6102 0.77769 0.0
H117 H 0.93342 0.61787 0.72993 0.0
C118 C 0.84407 0.55237 0.5411 0.0
N119 N 0.86448 0.55404 0.53966 0.0
N120 N 0.87361 0.55937 0.60674 0.0
C121 C 0.85883 0.56085 0.65315 0.0
C122 C 0.84011 0.55703 0.61267 0.0
C123 C 0.82816 0.54516 0.4764 0.0
H124 H 0.82939 0.53215 0.44318 0.0
H125 H 0.83276 0.5599 0.43988 0.0
H126 H 0.81055 0.53846 0.49555 0.0
O127 O 0.87896 0.519 0.48667 0.0
O128 O 0.89674 0.52966 0.59611 0.0
H129 H 0.87046 0.55514 0.75779 0.0
H130 H 0.84381 0.5542 0.76281 0.0
C131 C 0.86071 0.56277 0.73623 0.0
H132 H 0.86889 0.5808 0.75148 0.0
H133 H 0.91122 0.53582 0.74344 0.0
O134 O 0.86658 0.5479 0.3648 0.0
C135 C 0.88739 0.51507 0.54435 0.0
Co136 Co 0.32719 0.87852 0.62951 0.0
Co137 Co 0.33844 0.90193 0.78545 0.0
C138 C 0.34125 0.92764 0.6514 0.0
O139 O 0.33675 0.91022 0.61409 0.0
O140 O 0.3417 0.92735 0.72237 0.0
C141 C 0.29999 0.87321 0.51444 0.0
O142 O 0.29351 0.88209 0.5672 0.0
C143 C 0.32957 0.91647 0.92973 0.0
C144 C 0.35756 0.91928 -0.00196 0.0
C145 C 0.33809 0.92059 0.00187 0.0
N146 N 0.34309 0.91244 0.88591 0.0
N147 N 0.36019 0.91483 0.92666 0.0
C148 C 0.30883 0.91628 0.90291 0.0
H149 H 0.30354 0.90792 0.84758 0.0
H150 H 0.29495 0.90797 0.94411 0.0
H151 H 0.31261 0.93394 0.897 0.0
C152 C 0.28635 0.84526 0.70838 0.0
N153 N 0.30556 0.8653 0.70596 0.0
N154 N 0.31023 0.87445 0.77307 0.0
C155 C 0.29429 0.85995 0.82076 0.0
C156 C 0.27845 0.8414 0.78121 0.0
C157 C 0.2764 0.82995 0.64242 0.0
H158 H 0.28979 0.82864 0.61187 0.0
H159 H 0.26908 0.8372 0.60384 0.0
H160 H 0.26281 0.81295 0.65866 0.0
O161 O 0.35427 0.8763 0.65378 0.0
O162 O 0.36253 0.8949 0.76202 0.0
H163 H 0.28851 0.84447 0.92943 0.0
H164 H 0.28582 0.86903 0.92384 0.0
C165 C 0.29584 0.86146 0.90398 0.0
H166 H 0.31354 0.87155 0.9223 0.0
H167 H 0.37302 0.91227 0.90665 0.0
O168 O 0.31372 0.8665 0.53111 0.0
C169 C 0.36685 0.88453 0.71122 0.0
Co170 Co 0.44893 0.33035 0.79537 0.0
Co171 Co 0.43572 0.34262 0.94739 0.0
C172 C 0.41303 0.3435 0.80966 0.0
O173 O 0.42604 0.33859 0.77455 0.0
O174 O 0.41385 0.34515 0.88058 0.0
C175 C 0.43145 0.30401 0.67052 0.0
O176 O 0.41426 0.29328 0.71607 0.0
C177 C 0.4128 0.3372 0.09232 0.0
C178 C 0.44051 0.36432 0.1569 0.0
C179 C 0.41868 0.34654 0.16345 0.0
N180 N 0.43063 0.34863 0.04693 0.0
N181 N 0.44688 0.36518 0.08551 0.0
C182 C 0.39028 0.31892 0.06611 0.0
H183 H 0.39212 0.31084 0.01484 0.0
H184 H 0.38125 0.30622 0.11025 0.0
H185 H 0.37986 0.32658 0.05172 0.0
C186 C 0.44046 0.28991 0.87911 0.0
N187 N 0.43996 0.30921 0.87363 0.0
N188 N 0.43486 0.31428 0.93919 0.0
C189 C 0.43256 0.29848 0.98911 0.0
C190 C 0.43567 0.28244 0.9522 0.0
C191 C 0.44793 0.28027 0.81775 0.0
H192 H 0.46126 0.294 0.7838 0.0
H193 H 0.4334 0.26983 0.78081 0.0
H194 H 0.45433 0.26948 0.84047 0.0
O195 O 0.4778 0.35776 0.81965 0.0
O196 O 0.46691 0.36666 0.92499 0.0
H197 H 0.43924 0.31676 0.09229 0.0
H198 H 0.43302 0.28811 0.10351 0.0
C199 C 0.42887 0.29933 0.0713 0.0
H200 H 0.41088 0.29354 0.08133 0.0
H201 H 0.46272 0.37649 0.06401 0.0
O202 O 0.45047 0.31813 0.69785 0.0
C203 C 0.48187 0.37071 0.8757 0.0
Co204 Co 0.5458 0.88025 0.86711 0.0
Co205 Co 0.55773 0.90355 0.71092 0.0
C206 C 0.58063 0.92947 0.84451 0.0
O207 O 0.56782 0.91202 0.88181 0.0
O208 O 0.57984 0.92919 0.77355 0.0
C209 C 0.56822 0.87545 0.98139 0.0
O210 O 0.58329 0.88401 0.92765 0.0
C211 C 0.58102 0.91825 0.56657 0.0
C212 C 0.55525 0.9198 0.49752 0.0
C213 C 0.57635 0.92182 0.49408 0.0
N214 N 0.5633 0.9138 0.61016 0.0
N215 N 0.54823 0.91544 0.56895 0.0
C216 C 0.60199 0.91903 0.59412 0.0
H217 H 0.59903 0.91054 0.64917 0.0
H218 H 0.60832 0.91139 0.55305 0.0
H219 H 0.61525 0.93691 0.60102 0.0
C220 C 0.55371 0.84718 0.78857 0.0
N221 N 0.55427 0.86708 0.79071 0.0
N222 N 0.55882 0.87625 0.72364 0.0
C223 C 0.56068 0.86192 0.67628 0.0
C224 C 0.55809 0.84345 0.71601 0.0
C225 C 0.5484 0.8319 0.85459 0.0
H226 H 0.53389 0.8308 0.88575 0.0
H227 H 0.56311 0.83905 0.89261 0.0
H228 H 0.54472 0.81482 0.83828 0.0
O229 O 0.51637 0.87773 0.84318 0.0
O230 O 0.5265 0.89621 0.73471 0.0
H231 H 0.55225 0.84665 0.56699 0.0
H232 H 0.579 0.87178 0.57486 0.0
C233 C 0.56121 0.8636 0.59306 0.0
H234 H 0.5532 0.87323 0.57383 0.0
H235 H 0.53265 0.91242 0.58873 0.0
O236 O 0.54769 0.8686 0.96574 0.0
C237 C 0.51187 0.88579 0.78564 0.0
Co238 Co 0.66632 0.55098 0.01777 0.0
Co239 Co 0.65125 0.56185 0.86678 0.0
C240 C 0.65199 0.5859 0.00399 0.0
O241 O 0.6576 0.57348 0.03925 0.0
O242 O 0.64949 0.5843 0.93339 0.0
C243 C 0.69484 0.57077 0.13569 0.0
O244 O 0.70119 0.58792 0.09006 0.0
C245 C 0.65725 0.58138 0.71651 0.0
C246 C 0.62764 0.55403 0.66036 0.0
C247 C 0.64781 0.57364 0.64654 0.0
N248 N 0.64396 0.56636 0.76817 0.0
N249 N 0.62571 0.55065 0.73454 0.0
C250 C 0.67951 0.60176 0.73326 0.0
H251 H 0.68596 0.60015 0.78839 0.0
H252 H 0.69193 0.60491 0.68837 0.0
H253 H 0.67718 0.61663 0.73551 0.0
C254 C 0.70515 0.55817 0.9275 0.0
N255 N 0.68619 0.55922 0.9358 0.0
N256 N 0.67949 0.56232 0.87009 0.0
C257 C 0.69356 0.56217 0.81732 0.0
C258 C 0.71056 0.56036 0.85232 0.0
C259 C 0.71673 0.55343 0.98981 0.0
H260 H 0.70428 0.53838 0.02135 0.0
H261 H 0.72409 0.56793 0.02883 0.0
H262 H 0.73044 0.55074 0.96916 0.0
O263 O 0.63874 0.52144 -0.00184 0.0
O264 O 0.62794 0.53101 0.89388 0.0
H265 H 0.69396 0.54659 0.71303 0.0
H266 H 0.6973 0.57396 0.70447 0.0
C267 C 0.6882 0.55793 0.73573 0.0
H268 H 0.66985 0.54991 0.72648 0.0
H269 H 0.61293 0.5365 0.76127 0.0
O270 O 0.68109 0.55108 0.11196 0.0
C271 C 0.62493 0.51663 0.94414 0.0
Co272 Co 0.11372 0.6653 0.19484 0.0
Co273 Co 0.08674 0.65231 0.0461 0.0
C274 C 0.06538 0.65538 0.183 0.0
O275 O 0.08307 0.659 0.21711 0.0
O276 O 0.06404 0.65339 0.11217 0.0
C277 C 0.12405 0.69193 0.32022 0.0
O278 O 0.11753 0.70298 0.27654 0.0
C279 C 0.06979 0.65695 0.89936 0.0
C280 C 0.06992 0.629 0.83843 0.0
C281 C 0.06669 0.64722 0.82884 0.0
N282 N 0.07535 0.64537 0.94706 0.0
N283 N 0.07474 0.62833 0.91068 0.0
C284 C 0.06627 0.67592 0.92287 0.0
H285 H 0.04951 0.66867 0.95001 0.0
H286 H 0.0789 0.68651 0.96547 0.0
H287 H 0.0665 0.6862 0.87477 0.0
C288 C 0.14635 0.70397 0.10517 0.0
N289 N 0.12623 0.68521 0.11376 0.0
N290 N 0.11568 0.67937 0.04898 0.0
C291 C 0.12933 0.69401 -0.00359 0.0
C292 C 0.14892 0.71018 0.03071 0.0
C293 C 0.16356 0.71449 0.16574 0.0
H294 H 0.16357 0.70121 0.20105 0.0
H295 H 0.15913 0.72489 0.20171 0.0
H296 H 0.18063 0.72543 0.14224 0.0
O297 O 0.1134 0.6368 0.17318 0.0
O298 O 0.09034 0.6265 0.07564 0.0
H299 H 0.11605 0.67424 0.89676 0.0
H300 H 0.13989 0.70176 0.8806 0.0
C301 C 0.12442 0.69209 0.91436 0.0
H302 H 0.11332 0.69909 0.90247 0.0
H303 H 0.07882 0.61691 0.93418 0.0
O304 O 0.12862 0.6778 0.29079 0.0
C305 C 0.10169 0.62251 0.12309 0.0
Co306 Co 0.44527 0.1158 0.35551 0.0
Co307 Co 0.43332 0.08982 0.20507 0.0
C308 C 0.41023 0.06661 0.3436 0.0
O309 O 0.42281 0.08462 0.37887 0.0
O310 O 0.41149 0.0658 0.27286 0.0
C311 C 0.42761 0.12435 0.48041 0.0
O312 O 0.40974 0.11519 0.43717 0.0
C313 C 0.41072 0.07291 0.06045 0.0
C314 C 0.43749 0.07087 -0.00154 0.0
C315 C 0.41654 0.06899 0.98975 0.0
N316 N 0.42789 0.07778 0.10716 0.0
N317 N 0.44349 0.0758 0.07031 0.0
C318 C 0.38894 0.07103 0.0847 0.0
H319 H 0.38376 0.06213 0.13921 0.0
H320 H 0.39107 0.08795 0.0935 0.0
H321 H 0.37554 0.06179 0.04261 0.0
C322 C 0.43698 0.1472 0.26726 0.0
N323 N 0.43624 0.12734 0.27509 0.0
N324 N 0.43251 0.1173 0.20953 0.0
C325 C 0.43182 0.13112 0.15711 0.0
C326 C 0.43403 0.15016 0.19226 0.0
C327 C 0.44172 0.16343 0.3301 0.0
H328 H 0.45838 0.16834 0.35474 0.0
H329 H 0.42888 0.15511 0.37438 0.0
H330 H 0.4413 0.17864 0.31191 0.0
O331 O 0.47458 0.11763 0.33247 0.0
O332 O 0.46436 0.09734 0.2281 0.0
H333 H 0.44203 0.11852 0.06312 0.0
H334 H 0.44534 0.14595 0.04955 0.0
C335 C 0.4344 0.1291 0.07463 0.0
H336 H 0.41779 0.12189 0.04704 0.0
H337 H 0.45879 0.07901 0.09316 0.0
O338 O 0.44674 0.13047 0.45123 0.0
C339 C 0.47907 0.10868 0.27744 0.0
Co340 Co 0.32797 0.44524 0.51666 0.0
Co341 Co 0.34276 0.43567 0.36315 0.0
C342 C 0.34265 0.41081 0.4974 0.0
O343 O 0.33702 0.42287 0.53489 0.0
O344 O 0.3449 0.41291 0.42678 0.0
C345 C 0.29919 0.42449 0.63334 0.0
O346 O 0.29314 0.40766 0.58647 0.0
C347 C 0.33657 0.41615 0.21321 0.0
C348 C 0.36508 0.44407 0.15446 0.0
C349 C 0.3454 0.42381 0.1425 0.0
N350 N 0.34975 0.4317 0.26361 0.0
N351 N 0.36736 0.44782 0.22843 0.0
C352 C 0.31486 0.39533 0.23191 0.0
H353 H 0.30844 0.39702 0.2871 0.0
H354 H 0.3021 0.39135 0.18761 0.0
H355 H 0.31799 0.38097 0.23508 0.0
C356 C 0.2885 0.43778 0.43044 0.0
N357 N 0.30777 0.43723 0.43607 0.0
N358 N 0.31439 0.43492 0.36908 0.0
C359 C 0.30001 0.4353 0.31814 0.0
C360 C 0.28288 0.43635 0.35577 0.0
C361 C 0.27748 0.44282 0.494 0.0
H362 H 0.29043 0.45676 0.52826 0.0
H363 H 0.26861 0.4277 0.52997 0.0
H364 H 0.26509 0.44753 0.47389 0.0
O365 O 0.35531 0.47506 0.4979 0.0
O366 O 0.36602 0.46639 0.39143 0.0
H367 H 0.32246 0.44662 0.22401 0.0
H368 H 0.29758 0.44852 0.21096 0.0
C369 C 0.30421 0.4382 0.23566 0.0
H370 H 0.29533 0.42157 0.20791 0.0
H371 H 0.3799 0.46238 0.25406 0.0
O372 O 0.3132 0.44434 0.61161 0.0
C373 C 0.36902 0.48037 0.44319 0.0
Co374 Co 0.8829 0.33029 0.6819 0.0
Co375 Co 0.90855 0.34402 0.5306 0.0
C376 C 0.93142 0.34208 0.66674 0.0
O377 O 0.91365 0.33723 0.70268 0.0
O378 O 0.93234 0.3448 0.59627 0.0
C379 C 0.87384 0.30376 0.80653 0.0
O380 O 0.8818 0.29405 0.7624 0.0
C381 C 0.92524 0.33834 0.38531 0.0
C382 C 0.92733 0.36721 0.32372 0.0
C383 C 0.92939 0.34824 0.31495 0.0
N384 N 0.92021 0.35054 0.43213 0.0
N385 N 0.92214 0.36811 0.39547 0.0
C386 C 0.92719 0.31848 0.40936 0.0
H387 H 0.91085 0.30497 0.43097 0.0
H388 H 0.93318 0.312 0.36315 0.0
H389 H 0.93927 0.32362 0.45653 0.0
C390 C 0.85032 0.29125 0.59318 0.0
N391 N 0.87039 0.31017 0.60077 0.0
N392 N 0.88046 0.31622 0.53517 0.0
C393 C 0.86654 0.30167 0.48302 0.0
C394 C 0.84732 0.28516 0.51831 0.0
C395 C 0.83426 0.27989 0.65652 0.0
H396 H 0.83043 0.29209 0.68413 0.0
H397 H 0.84227 0.27432 0.69853 0.0
H398 H 0.81845 0.26491 0.63818 0.0
O399 O 0.88258 0.35865 0.66171 0.0
O400 O 0.90249 0.36847 0.55653 0.0
H401 H 0.87937 0.32378 0.38765 0.0
H402 H 0.85247 0.29895 0.37312 0.0
C403 C 0.86915 0.3056 0.40026 0.0
H404 H 0.87718 0.29652 0.37582 0.0
H405 H 0.91886 0.38015 0.41847 0.0
O406 O 0.86837 0.31733 0.77802 0.0
C407 C 0.89181 0.37226 0.60735 0.0
H408 H 0.06666 0.58198 0.08256 0.0
H409 H 0.13722 0.52145 0.01467 0.0
H410 H 0.13653 0.61454 0.14705 0.0
H411 H 0.06874 0.4849 0.09477 0.0
H412 H 0.1374 0.55698 0.03714 0.0
H413 H 0.0671 0.5469 0.06239 0.0
C414 C 0.08205 0.58167 0.09282 0.0
C415 C 0.10155 0.60105 0.11697 0.0
C416 C 0.12238 0.54111 0.04947 0.0
C417 C 0.10232 0.56132 0.09192 0.0
C418 C 0.12218 0.52092 0.03603 0.0
C419 C 0.10292 0.5003 0.05282 0.0
C420 C 0.103 0.54049 0.0779 0.0
C421 C 0.08393 0.50047 0.08124 0.0
C422 C 0.08228 0.56171 0.08131 0.0
C423 C 0.1211 0.59983 0.12922 0.0
N424 N 0.08438 0.52026 0.09232 0.0
N425 N 0.1211 0.5803 0.11563 0.0
H426 H 0.49851 0.10591 0.14827 0.0
H427 H 0.6027 0.1075 0.34355 0.0
H428 H 0.51143 0.11847 0.38466 0.0
H429 H 0.60178 0.1205 0.1078 0.0
H430 H 0.56837 0.10939 0.36019 0.0
H431 H 0.53528 0.10909 0.1326 0.0
C432 C 0.50911 0.10935 0.19699 0.0
C433 C 0.50182 0.11174 0.2681 0.0
C434 C 0.57577 0.11199 0.30495 0.0
C435 C 0.54396 0.11533 0.25033 0.0
C436 C 0.59528 0.11077 0.29522 0.0
C437 C 0.605 0.11365 0.22396 0.0
C438 C 0.56567 0.11577 0.24282 0.0
C439 C 0.59482 0.11815 0.16363 0.0
C440 C 0.53016 0.11131 0.18782 0.0
C441 C 0.5164 0.11649 0.32894 0.0
N442 N 0.57553 0.11882 0.17428 0.0
N443 N 0.53672 0.11787 0.31882 0.0
H444 H 0.39096 0.51133 0.55498 0.0
H445 H 0.48077 0.60456 0.27674 0.0
H446 H 0.39155 0.50166 0.31654 0.0
H447 H 0.49346 0.60206 0.51193 0.0
H448 H 0.44402 0.57036 0.29193 0.0
H449 H 0.42491 0.54848 0.54136 0.0
C450 C 0.39812 0.51708 0.49987 0.0
C451 C 0.38862 0.50331 0.43698 0.0
C452 C 0.45487 0.5774 0.34016 0.0
C453 C 0.42708 0.54563 0.42093 0.0
C454 C 0.47578 0.59691 0.33156 0.0
C455 C 0.49029 0.60598 0.39293 0.0
C456 C 0.44836 0.56715 0.41082 0.0
C457 C 0.48295 0.59543 0.46284 0.0
C458 C 0.41748 0.53819 0.49214 0.0
C459 C 0.39853 0.51158 0.36673 0.0
N460 N 0.4625 0.57657 0.4699 0.0
N461 N 0.4172 0.53218 0.36061 0.0
H462 H 0.88207 0.39426 0.7171 0.0
H463 H 0.88016 0.48386 0.4357 0.0
H464 H 0.89631 0.3963 0.48104 0.0
H465 H 0.89197 0.49618 0.67268 0.0
H466 H 0.87969 0.44815 0.45181 0.0
H467 H 0.87942 0.42846 0.70216 0.0
C468 C 0.88455 0.40184 0.66223 0.0
C469 C 0.88961 0.39255 0.60039 0.0
C470 C 0.88234 0.4587 0.50021 0.0
C471 C 0.88634 0.43131 0.58281 0.0
C472 C 0.88253 0.47901 0.49109 0.0
C473 C 0.88628 0.49309 0.5528 0.0
C474 C 0.88557 0.45228 0.57168 0.0
C475 C 0.88926 0.48596 0.62339 0.0
C476 C 0.88311 0.42134 0.65378 0.0
C477 C 0.89265 0.40303 0.53046 0.0
N478 N 0.8888 0.46603 0.63094 0.0
N479 N 0.89091 0.42179 0.52354 0.0
H480 H 0.39 0.87544 0.60411 0.0
H481 H 0.47954 0.8763 0.89272 0.0
H482 H 0.38922 0.88778 0.84064 0.0
H483 H 0.49256 0.88875 0.65621 0.0
H484 H 0.44281 0.87354 0.87441 0.0
H485 H 0.42434 0.87334 0.62238 0.0
C486 C 0.39694 0.87755 0.65984 0.0
C487 C 0.38687 0.882 0.72078 0.0
C488 C 0.45373 0.8768 0.82661 0.0
C489 C 0.42588 0.87944 0.74212 0.0
C490 C 0.47462 0.8783 0.83699 0.0
C491 C 0.48921 0.88297 0.77606 0.0
C492 C 0.44729 0.87965 0.75468 0.0
C493 C 0.48197 0.8854 0.70496 0.0
C494 C 0.41655 0.87643 0.6702 0.0
C495 C 0.39658 0.88459 0.79188 0.0
N496 N 0.46153 0.8837 0.69622 0.0
N497 N 0.41552 0.88326 0.80059 0.0
H498 H 0.6029 0.48481 0.05366 0.0
H499 H 0.51432 0.39327 0.76905 0.0
H500 H 0.60242 0.49637 0.81654 0.0
H501 H 0.50074 0.39371 0.0047 0.0
H502 H 0.55072 0.42767 0.78675 0.0
H503 H 0.56907 0.44767 0.03757 0.0
C504 C 0.59578 0.47948 -0.00167 0.0
C505 C 0.60529 0.49376 0.93654 0.0
C506 C 0.53975 0.42014 0.83453 0.0
C507 C 0.56701 0.45146 0.91766 0.0
C508 C 0.51904 0.40051 0.8245 0.0
C509 C 0.50437 0.39079 0.88528 0.0
C510 C 0.54593 0.42987 0.90601 0.0
C511 C 0.51137 0.40084 0.95604 0.0
C512 C 0.5765 0.45838 0.9892 0.0
C513 C 0.59544 0.48604 0.86594 0.0
N514 N 0.53165 0.41984 0.96449 0.0
N515 N 0.57687 0.46542 0.85843 0.0
H516 H 0.02304 0.38084 0.03322 0.0
H517 H 0.97506 0.35947 0.61757 0.0
H518 H 0.06495 0.40187 0.83555 0.0
H519 H 0.9334 0.33375 0.81488 0.0
H520 H 0.00832 0.37074 0.69549 0.0
H521 H 0.99011 0.35905 0.95381 0.0
C522 C 0.02537 0.38062 0.97334 0.0
C523 C 0.04672 0.39354 0.94099 0.0
C524 C 0.99186 0.36237 0.72152 0.0
C525 C 0.00916 0.36885 0.84972 0.0
C526 C 0.97287 0.35591 0.67697 0.0
C527 C 0.95146 0.34605 0.70984 0.0
C528 C 0.98936 0.35902 0.79939 0.0
C529 C 0.94961 0.34169 0.78715 0.0
C530 C 0.00657 0.36821 0.92794 0.0
C531 C 0.04875 0.39249 0.86299 0.0
N532 N 0.96832 0.34846 0.82933 0.0
N533 N 0.03019 0.38064 0.82003 0.0
H534 H 0.5894 0.93314 0.99371 0.0
H535 H 0.65708 0.06718 0.99376 0.0
H536 H 0.60645 0.97299 0.79208 0.0
H537 H 0.63533 0.02643 0.19381 0.0
H538 H 0.64376 0.03318 0.9189 0.0
H539 H 0.61123 0.96718 0.06621 0.0
C540 C 0.59793 0.94906 0.96438 0.0
C541 C 0.59588 0.95018 0.8865 0.0
C542 C 0.64208 0.03167 0.97917 0.0
C543 C 0.62081 0.9895 0.97011 0.0
C544 C 0.64969 0.05109 0.02217 0.0
C545 C 0.647 0.04964 0.10038 0.0
C546 C 0.63167 0.0106 0.01441 0.0
C547 C 0.63758 0.02835 0.1338 0.0
C548 C 0.6104 0.96855 0.00609 0.0
C549 C 0.60745 0.97135 0.85195 0.0
N550 N 0.63004 0.00965 0.09052 0.0
N551 N 0.61924 0.99024 0.89417 0.0
H552 H 0.58999 0.65982 0.16947 0.0
H553 H 0.66079 0.59661 0.15172 0.0
H554 H 0.60838 0.63545 0.36439 0.0
H555 H 0.63166 0.60977 0.95783 0.0
H556 H 0.64788 0.61717 0.22889 0.0
H557 H 0.61118 0.6479 0.09136 0.0
C558 C 0.59864 0.65212 0.19614 0.0
C559 C 0.59709 0.64831 0.2738 0.0
C560 C 0.64446 0.61574 0.16941 0.0
C561 C 0.62148 0.63464 0.18394 0.0
C562 C 0.65184 0.60401 0.12508 0.0
C563 C 0.64697 0.60112 0.04813 0.0
C564 C 0.6321 0.62471 0.13684 0.0
C565 C 0.63564 0.61141 0.01688 0.0
C566 C 0.61075 0.64532 0.15124 0.0
C567 C 0.60895 0.63855 0.30486 0.0
N568 N 0.62837 0.62257 0.06156 0.0
N569 N 0.62049 0.63186 0.25968 0.0
H570 H 0.93001 0.59631 0.34079 0.0
H571 H 0.06385 0.66105 0.33388 0.0
H572 H 0.97067 0.61033 0.53921 0.0
H573 H 0.02209 0.64086 0.13628 0.0
H574 H 0.03043 0.64909 0.41089 0.0
H575 H 0.9638 0.61905 0.26779 0.0
C576 C 0.94606 0.60441 0.36933 0.0
C577 C 0.94751 0.60113 0.44623 0.0
C578 C 0.0286 0.64752 0.35068 0.0
C579 C 0.98649 0.62709 0.36216 0.0
C580 C 0.04768 0.65435 0.30646 0.0
C581 C 0.04572 0.65156 0.22834 0.0
C582 C 0.00737 0.6378 0.31671 0.0
C583 C 0.02438 0.6431 0.1962 0.0
C584 C 0.9654 0.6174 0.32738 0.0
C585 C 0.96879 0.61226 0.48003 0.0
N586 N 0.006 0.63626 0.24063 0.0
N587 N 0.98752 0.62452 0.43749 0.0
H588 H 0.38333 0.02333 0.29295 0.0
H589 H 0.35807 0.97091 0.70493 0.0
H590 H 0.40293 0.06344 0.49456 0.0
H591 H 0.3373 0.93166 0.50161 0.0
H592 H 0.37082 0.00511 0.62987 0.0
H593 H 0.36236 0.98953 0.36932 0.0
C594 C 0.38304 0.02506 0.35311 0.0
C595 C 0.39519 0.04621 0.38732 0.0
C596 C 0.36323 0.98894 0.60193 0.0
C597 C 0.3714 0.00762 0.47525 0.0
C598 C 0.35593 0.96944 0.6448 0.0
C599 C 0.34684 0.94841 0.60956 0.0
C600 C 0.36141 0.98732 0.52347 0.0
C601 C 0.3444 0.9475 0.53135 0.0
C602 C 0.37109 0.00576 0.3968 0.0
C603 C 0.39407 0.04745 0.46566 0.0
N604 N 0.35181 0.96664 0.49105 0.0
N605 N 0.38262 0.02841 0.50696 0.0
H606 H 0.38517 0.35904 0.85874 0.0
H607 H 0.36309 0.38754 0.44579 0.0
H608 H 0.40635 0.33934 0.65869 0.0
H609 H 0.33451 0.3992 0.64461 0.0
H610 H 0.37628 0.36674 0.52179 0.0
H611 H 0.36375 0.37099 0.78075 0.0
C612 C 0.38514 0.35701 0.79864 0.0
C613 C 0.39785 0.34849 0.76532 0.0
C614 C 0.36689 0.37365 0.54854 0.0
C615 C 0.37354 0.36225 0.67568 0.0
C616 C 0.35932 0.38547 0.50508 0.0
C617 C 0.34801 0.39545 0.53896 0.0
C618 C 0.36319 0.37192 0.62634 0.0
C619 C 0.34351 0.39214 0.61613 0.0
C620 C 0.37292 0.36383 0.75406 0.0
C621 C 0.39707 0.34611 0.687 0.0
N622 N 0.35133 0.38091 0.65723 0.0
N623 N 0.38536 0.35318 0.64491 0.0
H624 H 0.14988 0.40619 0.22312 0.0
H625 H 0.28379 0.47047 0.27453 0.0
H626 H 0.19451 0.47184 0.13115 0.0
H627 H 0.23878 0.40526 0.36844 0.0
H628 H 0.25135 0.47171 0.22277 0.0
H629 H 0.18222 0.40598 0.27972 0.0
C630 C 0.16656 0.42056 0.21504 0.0
C631 C 0.16974 0.43887 0.17155 0.0
C632 C 0.24853 0.45709 0.25446 0.0
C633 C 0.20672 0.43885 0.23575 0.0
C634 C 0.26701 0.45634 0.28339 0.0
C635 C 0.26375 0.43751 0.324 0.0
C636 C 0.22672 0.43891 0.2669 0.0
C637 C 0.24181 0.4199 0.3364 0.0
C638 C 0.18499 0.42044 0.2471 0.0
C639 C 0.19155 0.45718 0.1629 0.0
N640 N 0.22408 0.42097 0.30763 0.0
N641 N 0.20928 0.45667 0.19448 0.0
H642 H 0.71303 0.18273 0.39127 0.0
H643 H 0.8472 0.25443 0.42258 0.0
H644 H 0.75751 0.17024 0.25522 0.0
H645 H 0.80305 0.27366 0.52984 0.0
H646 H 0.81456 0.22291 0.36277 0.0
H647 H 0.74577 0.21554 0.44589 0.0
C648 C 0.72979 0.18695 0.37336 0.0
C649 C 0.73283 0.17377 0.31999 0.0
C650 C 0.81197 0.23399 0.39946 0.0
C651 C 0.77015 0.21114 0.38102 0.0
C652 C 0.83056 0.25192 0.43348 0.0
C653 C 0.82763 0.26626 0.48213 0.0
C654 C 0.79032 0.23044 0.41429 0.0
C655 C 0.80586 0.26253 0.49423 0.0
C656 C 0.74841 0.20566 0.40408 0.0
C657 C 0.75467 0.18 0.29697 0.0
N658 N 0.78797 0.24487 0.46083 0.0
N659 N 0.77258 0.19821 0.32804 0.0
H660 H 0.52491 0.79926 0.72326 0.0
H661 H 0.58877 0.75759 0.44759 0.0
H662 H 0.59113 0.84315 0.63385 0.0
H663 H 0.52886 0.71219 0.56978 0.0
H664 H 0.58868 0.78954 0.50911 0.0
H665 H 0.52498 0.76715 0.66328 0.0
C666 C 0.53962 0.802 0.69212 0.0
C667 C 0.55825 0.82366 0.68458 0.0
C668 C 0.57558 0.7726 0.52271 0.0
C669 C 0.55821 0.78738 0.61393 0.0
C670 C 0.57562 0.75448 0.4875 0.0
C671 C 0.559 0.73247 0.50486 0.0
C672 C 0.55861 0.76856 0.57488 0.0
C673 C 0.54214 0.72905 0.55613 0.0
C674 C 0.53959 0.78377 0.65733 0.0
C675 C 0.57655 0.82658 0.64131 0.0
N676 N 0.54237 0.74694 0.58957 0.0
N677 N 0.57608 0.80864 0.60747 0.0
H678 H 0.71856 0.52515 0.85164 0.0
H679 H 0.83679 0.59362 0.64625 0.0
H680 H 0.74375 0.59241 0.76777 0.0
H681 H 0.79906 0.52115 0.64618 0.0
H682 H 0.80441 0.5942 0.70223 0.0
H683 H 0.74966 0.52374 0.78813 0.0
C684 C 0.73079 0.53963 0.82017 0.0
C685 C 0.72904 0.55905 0.81546 0.0
C686 C 0.80312 0.57816 0.68933 0.0
C687 C 0.76424 0.55761 0.74305 0.0
C688 C 0.82151 0.57786 0.65754 0.0
C689 C 0.82023 0.55733 0.64131 0.0
C690 C 0.78358 0.55774 0.70624 0.0
C691 C 0.80038 0.53727 0.65753 0.0
C692 C 0.74835 0.53879 0.78362 0.0
C693 C 0.74484 0.57726 0.773 0.0
N694 N 0.78277 0.53794 0.68978 0.0
N695 N 0.76197 0.5762 0.73888 0.0
H696 H 0.26794 0.79734 0.77219 0.0
H697 H 0.16422 0.75441 0.05616 0.0
H698 H 0.24531 0.84048 0.86613 0.0
H699 H 0.1777 0.70941 0.92711 0.0
H700 H 0.19581 0.78655 0.9939 0.0
H701 H 0.23631 0.76493 0.83314 0.0
C702 C 0.25602 0.79986 0.80453 0.0
C703 C 0.25881 0.8214 0.8131 0.0
C704 C 0.19186 0.76966 0.97898 0.0
C705 C 0.22323 0.78478 0.88485 0.0
C706 C 0.17395 0.75142 0.01466 0.0
C707 C 0.16839 0.72947 -0.00439 0.0
C708 C 0.20436 0.7658 0.92458 0.0
C709 C 0.18143 0.72622 0.94215 0.0
C710 C 0.23814 0.78145 0.83986 0.0
C711 C 0.24351 0.82402 0.85788 0.0
N712 N 0.19885 0.74423 0.90827 0.0
N713 N 0.22637 0.80592 0.89223 0.0
H714 H 0.46691 0.19434 0.20552 0.0
H715 H 0.4082 0.23845 0.9176 0.0
H716 H 0.40438 0.15065 0.09329 0.0
H717 H 0.46426 0.28236 0.05749 0.0
H718 H 0.40837 0.20585 0.97324 0.0
H719 H 0.46801 0.22682 0.14454 0.0
C720 C 0.4533 0.19168 0.1686 0.0
C721 C 0.43525 0.16998 0.15553 0.0
C722 C 0.42061 0.2226 0.99196 0.0
C723 C 0.43662 0.20678 0.08425 0.0
C724 C 0.4205 0.24111 0.96021 0.0
C725 C 0.43595 0.26287 0.98438 0.0
C726 C 0.43647 0.22603 0.04758 0.0
C727 C 0.4518 0.2657 0.0388 0.0
C728 C 0.45399 0.21015 0.13342 0.0
C729 C 0.41846 0.16723 0.10514 0.0
N730 N 0.45162 0.24744 0.06885 0.0
N731 N 0.41949 0.18545 0.07144 0.0
H732 H 0.09316 0.3986 0.37819 0.0
H733 H 0.11938 0.45985 0.75375 0.0
H734 H 0.04959 0.4213 0.46909 0.0
H735 H 0.11639 0.39544 0.75992 0.0
H736 H 0.10174 0.4504 0.6309 0.0
H737 H 0.10697 0.39876 0.50429 0.0
C738 C 0.08569 0.40261 0.42463 0.0
C739 C 0.07017 0.41002 0.41294 0.0
C740 C 0.10517 0.43847 0.6591 0.0
C741 C 0.08685 0.41136 0.55572 0.0
C742 C 0.11555 0.44395 0.72861 0.0
C743 C 0.11926 0.42833 0.76734 0.0
C744 C 0.09893 0.4175 0.62724 0.0
C745 C 0.11373 0.4079 0.73186 0.0
C746 C 0.09386 0.40298 0.49646 0.0
C747 C 0.06168 0.41566 0.47557 0.0
N748 N 0.1038 0.403 0.66329 0.0
N749 N 0.0706 0.41684 0.54409 0.0
H750 H 0.65465 0.11521 0.91887 0.0
H751 H 0.69449 0.09923 0.53915 0.0
H752 H 0.72116 0.12308 0.91603 0.0
H753 H 0.62938 0.04982 0.62436 0.0
H754 H 0.70736 0.11106 0.66707 0.0
H755 H 0.64707 0.0965 0.79798 0.0
C756 C 0.66788 0.11347 0.89209 0.0
C757 C 0.68866 0.12086 0.92727 0.0
C758 C 0.69056 0.09703 0.65765 0.0
C759 C 0.67987 0.09916 0.78945 0.0
C760 C 0.68326 0.08995 0.58461 0.0
C761 C 0.66082 0.07333 0.57104 0.0
C762 C 0.67507 0.08786 0.71643 0.0
C763 C 0.64679 0.0627 0.63253 0.0
C764 C 0.66336 0.10241 0.82381 0.0
C765 C 0.70498 0.11772 0.89032 0.0
N766 N 0.65393 0.07059 0.70258 0.0
N767 N 0.70033 0.10723 0.82262 0.0
H768 H 0.57405 0.62575 0.80053 0.0
H769 H 0.59818 0.72265 0.09048 0.0
H770 H 0.59358 0.6921 0.71772 0.0
H771 H 0.53994 0.65592 0.09778 0.0
H772 H 0.60771 0.7138 0.96653 0.0
H773 H 0.57505 0.63922 0.928 0.0
C774 C 0.57952 0.64338 0.80934 0.0
C775 C 0.58381 0.65781 0.74838 0.0
C776 C 0.59284 0.70128 -0.00432 0.0
C777 C 0.5846 0.67312 0.89322 0.0
C778 C 0.58727 0.70633 0.06559 0.0
C779 C 0.56807 0.69011 0.10381 0.0
C780 C 0.57954 0.67965 0.96584 0.0
C781 C 0.55467 0.66908 0.06988 0.0
C782 C 0.57984 0.65095 0.8818 0.0
C783 C 0.59059 0.68048 0.76284 0.0
N784 N 0.56082 0.66437 0.0033 0.0
N785 N 0.59045 0.68741 0.83402 0.0
H786 H 0.94564 0.59522 0.96134 0.0
H787 H 0.84918 0.54338 0.22484 0.0
H788 H 0.88142 0.58031 0.87174 0.0
H789 H 0.90302 0.60855 0.29376 0.0
H790 H 0.86126 0.55356 0.09435 0.0
H791 H 0.93257 0.59862 0.08653 0.0
C792 C 0.92916 0.59354 0.96763 0.0
C793 C 0.91466 0.58783 0.90629 0.0
C794 C 0.87005 0.56573 0.13828 0.0
C795 C 0.89943 0.59056 0.04782 0.0
C796 C 0.8632 0.55995 0.21229 0.0
C797 C 0.87519 0.5751 0.26974 0.0
C798 C 0.88941 0.58639 0.12259 0.0
C799 C 0.89335 0.59638 0.25088 0.0
C800 C 0.92172 0.59539 0.03862 0.0
C801 C 0.89321 0.58515 0.91724 0.0
N802 N 0.90038 0.6012 0.17883 0.0
N803 N 0.88595 0.5859 0.98712 0.0
H804 H 0.29952 0.84953 0.39078 0.0
H805 H 0.34905 0.94753 0.12529 0.0
H806 H 0.29534 0.90761 0.46043 0.0
H807 H 0.29945 0.88296 0.03866 0.0
H808 H 0.33274 0.93509 0.25099 0.0
H809 H 0.30239 0.86191 0.26037 0.0
C810 C 0.29875 0.86459 0.37839 0.0
C811 C 0.29726 0.8776 0.43596 0.0
C812 C 0.32501 0.92401 0.20359 0.0
C813 C 0.30129 0.89211 0.28886 0.0
C814 C 0.33423 0.9311 0.1323 0.0
C815 C 0.32524 0.91634 0.07158 0.0
C816 C 0.30742 0.9018 0.21369 0.0
C817 C 0.30646 0.89497 0.08349 0.0
C818 C 0.30036 0.87161 0.30441 0.0
C819 C 0.29643 0.89708 0.41737 0.0
N820 N 0.29848 0.88809 0.15355 0.0
N821 N 0.2991 0.90414 0.34531 0.0
H822 H 0.39791 0.27324 0.57981 0.0
H823 H 0.41681 0.36798 0.28773 0.0
H824 H 0.45343 0.34159 0.58526 0.0
H825 H 0.40141 0.30257 0.20654 0.0
H826 H 0.4157 0.35491 0.41578 0.0
H827 H 0.38718 0.28089 0.45615 0.0
C828 C 0.40797 0.28968 0.55458 0.0
C829 C 0.42679 0.30669 0.59203 0.0
C830 C 0.41176 0.34323 0.36977 0.0
C831 C 0.4139 0.31576 0.45464 0.0
C832 C 0.41213 0.35056 0.297 0.0
C833 C 0.40908 0.33633 0.23649 0.0
C834 C 0.40826 0.32153 0.38183 0.0
C835 C 0.40337 0.31397 0.2514 0.0
C836 C 0.4017 0.29405 0.48489 0.0
C837 C 0.43907 0.32784 0.55782 0.0
N838 N 0.40351 0.30731 0.32288 0.0
N839 N 0.43224 0.33184 0.49148 0.0
H840 H 0.60785 0.90996 0.0319 0.0
H841 H 0.58044 0.88563 0.45985 0.0
H842 H 0.54557 0.85304 0.10768 0.0
H843 H 0.59019 0.94793 0.36836 0.0
H844 H 0.58424 0.87364 0.33518 0.0
H845 H 0.61681 0.9232 0.16138 0.0
C846 C 0.59639 0.89987 0.07597 0.0
C847 C 0.5758 0.88046 0.05937 0.0
C848 C 0.58638 0.89026 0.34307 0.0
C849 C 0.58636 0.89521 0.20623 0.0
C850 C 0.58449 0.89726 0.41425 0.0
C851 C 0.58535 0.91793 0.42459 0.0
C852 C 0.58946 0.9042 0.28212 0.0
C853 C 0.5897 0.93197 0.36254 0.0
C854 C 0.60152 0.90755 0.14937 0.0
C855 C 0.56151 0.86814 0.11837 0.0
N856 N 0.59146 0.92477 0.29329 0.0
N857 N 0.56706 0.87576 0.18962 0.0
H858 H 0.70768 0.61019 0.21015 0.0
H859 H 0.65797 0.54352 0.59017 0.0
H860 H 0.68778 0.54044 0.24602 0.0
H861 H 0.66776 0.60979 0.55022 0.0
H862 H 0.67756 0.54592 0.47426 0.0
H863 H 0.7023 0.61395 0.34337 0.0
C864 C 0.70281 0.59582 0.24636 0.0
C865 C 0.69774 0.57481 0.21686 0.0
C866 C 0.6756 0.56005 0.49063 0.0
C867 C 0.69139 0.57902 0.36874 0.0
C868 C 0.66433 0.55865 0.55661 0.0
C869 C 0.66088 0.57631 0.57837 0.0
C870 C 0.68321 0.57914 0.4452 0.0
C871 C 0.66984 0.59572 0.53419 0.0
C872 C 0.69959 0.59798 0.3223 0.0
C873 C 0.69153 0.55683 0.2663 0.0
N874 N 0.68036 0.59651 0.46865 0.0
N875 N 0.68823 0.55928 0.33969 0.0
H876 H 0.11999 0.72166 0.41278 0.0
H877 H 0.04591 0.62521 0.702 0.0
H878 H 0.11058 0.65457 0.40554 0.0
H879 H 0.09301 0.69141 0.78545 0.0
H880 H 0.05903 0.63852 0.57489 0.0
H881 H 0.10173 0.71308 0.53686 0.0
C882 C 0.11442 0.70532 0.4377 0.0
C883 C 0.11705 0.68891 0.39934 0.0
C884 C 0.06592 0.65025 0.62112 0.0
C885 C 0.09529 0.67877 0.53759 0.0
C886 C 0.0583 0.64278 0.69336 0.0
C887 C 0.06829 0.65721 0.75445 0.0
C888 C 0.08355 0.67233 0.60999 0.0
C889 C 0.08449 0.67979 0.74019 0.0
C890 C 0.10386 0.70042 0.50772 0.0
C891 C 0.10924 0.66787 0.43342 0.0
N892 N 0.0919 0.68663 0.66922 0.0
N893 N 0.09846 0.66332 0.50012 0.0
H894 H 0.4572 0.12238 0.57704 0.0
H895 H 0.39541 0.09291 0.9512 0.0
H896 H 0.3906 0.11419 0.5666 0.0
H897 H 0.42044 0.05141 0.85892 0.0
H898 H 0.39499 0.10663 0.82543 0.0
H899 H 0.44841 0.10515 0.70069 0.0
C900 C 0.44093 0.11752 0.60141 0.0
C901 C 0.42452 0.11956 0.56122 0.0
C902 C 0.39987 0.09399 0.83296 0.0
C903 C 0.41447 0.09975 0.70214 0.0
C904 C 0.39987 0.08588 0.9046 0.0
C905 C 0.40816 0.07104 0.91584 0.0
C906 C 0.40872 0.08759 0.77343 0.0
C907 C 0.4142 0.06303 0.85288 0.0
C908 C 0.43586 0.1074 0.67139 0.0
C909 C 0.40366 0.11279 0.59578 0.0
N910 N 0.415 0.07191 0.78456 0.0
N911 N 0.39914 0.1031 0.66474 0.0
H912 H 0.28742 0.38512 0.70606 0.0
H913 H 0.33171 0.45147 0.08871 0.0
H914 H 0.30321 0.45364 0.74397 0.0
H915 H 0.32772 0.38773 0.0458 0.0
H916 H 0.31136 0.4476 0.97357 0.0
H917 H 0.29181 0.38113 0.83984 0.0
C918 C 0.29112 0.39911 0.74283 0.0
C919 C 0.29542 0.41993 0.71394 0.0
C920 C 0.31472 0.43432 0.98922 0.0
C921 C 0.30062 0.41548 0.86624 0.0
C922 C 0.32638 0.43655 0.05481 0.0
C923 C 0.33171 0.42007 0.07539 0.0
C924 C 0.30867 0.41566 0.94293 0.0
C925 C 0.32417 0.40091 0.03063 0.0
C926 C 0.29379 0.39684 0.81906 0.0
C927 C 0.30014 0.43745 0.76392 0.0
N928 N 0.31328 0.39936 0.96536 0.0
N929 N 0.30293 0.43492 0.83758 0.0
H930 H 0.94999 0.37005 0.18751 0.0
H931 H 0.87945 0.27434 0.89529 0.0
H932 H 0.90392 0.30376 0.27308 0.0
H933 H 0.88336 0.33915 0.89748 0.0
H934 H 0.89709 0.28262 0.02019 0.0
H935 H 0.93681 0.35629 0.06097 0.0
C936 C 0.93778 0.3524 0.17946 0.0
C937 C 0.92794 0.3381 0.24095 0.0
C938 C 0.89383 0.29481 0.99297 0.0
C939 C 0.91273 0.32246 0.09721 0.0
C940 C 0.88363 0.29007 0.92252 0.0
C941 C 0.87978 0.30601 0.88638 0.0
C942 C 0.90082 0.31587 0.02544 0.0
C943 C 0.88575 0.32626 0.92346 0.0
C944 C 0.93015 0.34466 0.10756 0.0
C945 C 0.91212 0.31534 0.22743 0.0
N946 N 0.89631 0.33075 0.99044 0.0
N947 N 0.90467 0.30824 0.15671 0.0
loop_
_geom_bond_atom_site_label_1
_geom_bond_atom_site_label_2
_geom_bond_distance
_geom_bond_site_symmetry_2
_ccdc_geom_bond_type
Co0 O3 1.970 . S
Co0 N17 1.989 1_556 S
Co0 O25 1.967 1_556 S
Co0 O32 1.920 . S
Co1 O4 1.966 . S
Co1 N10 2.022 . S
Co1 N18 1.993 . S
Co1 O26 1.941 . S
C2 O3 1.258 1_554 S
C2 O4 1.263 . S
O3 Co0 1.970 . S
O3 C2 1.258 1_556 S
O4 Co1 1.966 . S
O4 C2 1.263 . S
C5 O6 1.235 . S
C5 O32 1.289 . S
O6 C5 1.235 . S
C7 C9 1.400 . S
C7 N10 1.351 . S
C7 C12 1.501 . S
C8 C9 1.387 . S
C8 N11 1.341 . S
C9 C7 1.400 . S
C9 C8 1.387 . S
N10 Co1 2.022 . S
N10 C7 1.351 . S
N10 N11 1.365 . S
N11 C8 1.341 . S
N11 N10 1.365 . S
N11 H31 0.862 . S
C12 C7 1.501 . S
C12 H13 0.961 . S
C12 H14 0.961 . S
C12 H15 0.960 . S
H13 C12 0.961 . S
H14 C12 0.961 . S
H15 C12 0.960 . S
C16 N17 1.342 . S
C16 C20 1.401 . S
C16 C21 1.499 1_554 S
N17 Co0 1.989 1_554 S
N17 C16 1.342 . S
N17 N18 1.388 . S
N18 Co1 1.993 . S
N18 N17 1.388 . S
N18 C19 1.346 . S
C19 N18 1.346 . S
C19 C20 1.396 . S
C19 C29 1.510 . S
C20 C16 1.401 . S
C20 C19 1.396 . S
C21 C16 1.499 1_556 S
C21 H22 0.959 . S
C21 H23 0.960 . S
C21 H24 0.961 . S
H22 C21 0.959 . S
H23 C21 0.960 . S
H24 C21 0.961 . S
O25 Co0 1.967 1_554 S
O25 C33 1.258 . S
O26 Co1 1.941 . S
O26 C33 1.266 . S
H27 C29 0.959 . S
H28 C29 0.961 . S
C29 C19 1.510 . S
C29 H27 0.959 . S
C29 H28 0.961 . S
C29 H30 0.960 . S
H30 C29 0.960 . S
H31 N11 0.862 . S
O32 Co0 1.920 . S
O32 C5 1.289 . S
C33 O25 1.258 . S
C33 O26 1.266 . S
Co34 O37 1.970 . S
Co34 N51 1.989 . S
Co34 O59 1.967 . S
Co34 O66 1.920 . S
Co35 O38 1.966 . S
Co35 N44 2.022 . S
Co35 N52 1.993 . S
Co35 O60 1.941 . S
C36 O37 1.258 . S
C36 O38 1.263 . S
O37 Co34 1.970 . S
O37 C36 1.258 . S
O38 Co35 1.966 . S
O38 C36 1.263 . S
C39 O40 1.235 . S
C39 O66 1.289 . S
O40 C39 1.235 . S
C41 C43 1.400 . S
C41 N44 1.351 . S
C41 C46 1.501 . S
C42 C43 1.387 . S
C42 N45 1.341 . S
C43 C41 1.400 . S
C43 C42 1.387 . S
N44 Co35 2.022 . S
N44 C41 1.351 . S
N44 N45 1.365 . S
N45 C42 1.341 . S
N45 N44 1.365 . S
N45 H65 0.862 . S
C46 C41 1.501 . S
C46 H47 0.961 . S
C46 H48 0.961 . S
C46 H49 0.960 . S
H47 C46 0.961 . S
H48 C46 0.961 . S
H49 C46 0.960 . S
C50 N51 1.342 . S
C50 C54 1.401 . S
C50 C55 1.499 . S
N51 Co34 1.989 . S
N51 C50 1.342 . S
N51 N52 1.388 . S
N52 Co35 1.993 . S
N52 N51 1.388 . S
N52 C53 1.346 . S
C53 N52 1.346 . S
C53 C54 1.396 . S
C53 C63 1.510 . S
C54 C50 1.401 . S
C54 C53 1.396 . S
C55 C50 1.499 . S
C55 H56 0.959 . S
C55 H57 0.960 . S
C55 H58 0.961 . S
H56 C55 0.959 . S
H57 C55 0.960 . S
H58 C55 0.961 . S
O59 Co34 1.967 . S
O59 C67 1.258 . S
O60 Co35 1.941 . S
O60 C67 1.266 . S
H61 C63 0.959 . S
H62 C63 0.961 . S
C63 C53 1.510 . S
C63 H61 0.959 . S
C63 H62 0.961 . S
C63 H64 0.960 . S
H64 C63 0.960 . S
H65 N45 0.862 . S
O66 Co34 1.920 . S
O66 C39 1.289 . S
C67 O59 1.258 . S
C67 O60 1.266 . S
Co68 O71 1.970 . S
Co68 N85 1.989 . S
Co68 O93 1.967 . S
Co68 O100 1.920 . S
Co69 O72 1.966 . S
Co69 N78 2.022 . S
Co69 N86 1.993 . S
Co69 O94 1.941 . S
C70 O71 1.258 . S
C70 O72 1.263 . S
O71 Co68 1.970 . S
O71 C70 1.258 . S
O72 Co69 1.966 . S
O72 C70 1.263 . S
C73 O74 1.235 . S
C73 O100 1.289 . S
O74 C73 1.235 . S
C75 C77 1.400 . S
C75 N78 1.351 . S
C75 C80 1.501 . S
C76 C77 1.387 . S
C76 N79 1.341 . S
C77 C75 1.400 . S
C77 C76 1.387 . S
N78 Co69 2.022 . S
N78 C75 1.351 . S
N78 N79 1.365 . S
N79 C76 1.341 . S
N79 N78 1.365 . S
N79 H99 0.862 . S
C80 C75 1.501 . S
C80 H81 0.961 . S
C80 H82 0.961 . S
C80 H83 0.960 . S
H81 C80 0.961 . S
H82 C80 0.961 . S
H83 C80 0.960 . S
C84 N85 1.342 . S
C84 C88 1.401 . S
C84 C89 1.499 . S
N85 Co68 1.989 . S
N85 C84 1.342 . S
N85 N86 1.388 . S
N86 Co69 1.993 . S
N86 N85 1.388 . S
N86 C87 1.346 . S
C87 N86 1.346 . S
C87 C88 1.396 . S
C87 C97 1.510 . S
C88 C84 1.401 . S
C88 C87 1.396 . S
C89 C84 1.499 . S
C89 H90 0.959 . S
C89 H91 0.960 . S
C89 H92 0.961 . S
H90 C89 0.959 . S
H91 C89 0.960 . S
H92 C89 0.961 . S
O93 Co68 1.967 . S
O93 C101 1.258 . S
O94 Co69 1.941 . S
O94 C101 1.266 . S
H95 C97 0.959 . S
H96 C97 0.961 . S
C97 C87 1.510 . S
C97 H95 0.959 . S
C97 H96 0.961 . S
C97 H98 0.960 . S
H98 C97 0.960 . S
H99 N79 0.862 . S
O100 Co68 1.920 . S
O100 C73 1.289 . S
C101 O93 1.258 . S
C101 O94 1.266 . S
Co102 O105 1.970 . S
Co102 N119 1.989 . S
Co102 O127 1.967 . S
Co102 O134 1.920 . S
Co103 O106 1.966 . S
Co103 N112 2.022 . S
Co103 N120 1.993 . S
Co103 O128 1.941 . S
C104 O105 1.258 . S
C104 O106 1.263 . S
O105 Co102 1.970 . S
O105 C104 1.258 . S
O106 Co103 1.966 . S
O106 C104 1.263 . S
C107 O108 1.235 . S
C107 O134 1.289 . S
O108 C107 1.235 . S
C109 C111 1.400 . S
C109 N112 1.351 . S
C109 C114 1.501 . S
C110 C111 1.387 . S
C110 N113 1.341 . S
C111 C109 1.400 . S
C111 C110 1.387 . S
N112 Co103 2.022 . S
N112 C109 1.351 . S
N112 N113 1.365 . S
N113 C110 1.341 . S
N113 N112 1.365 . S
N113 H133 0.862 . S
C114 C109 1.501 . S
C114 H115 0.961 . S
C114 H116 0.961 . S
C114 H117 0.960 . S
H115 C114 0.961 . S
H116 C114 0.961 . S
H117 C114 0.960 . S
C118 N119 1.342 . S
C118 C122 1.401 . S
C118 C123 1.499 . S
N119 Co102 1.989 . S
N119 C118 1.342 . S
N119 N120 1.388 . S
N120 Co103 1.993 . S
N120 N119 1.388 . S
N120 C121 1.346 . S
C121 N120 1.346 . S
C121 C122 1.396 . S
C121 C131 1.510 . S
C122 C118 1.401 . S
C122 C121 1.396 . S
C123 C118 1.499 . S
C123 H124 0.959 . S
C123 H125 0.960 . S
C123 H126 0.961 . S
H124 C123 0.959 . S
H125 C123 0.960 . S
H126 C123 0.961 . S
O127 Co102 1.967 . S
O127 C135 1.258 . S
O128 Co103 1.941 . S
O128 C135 1.266 . S
H129 C131 0.959 . S
H130 C131 0.961 . S
C131 C121 1.510 . S
C131 H129 0.959 . S
C131 H130 0.961 . S
C131 H132 0.960 . S
H132 C131 0.960 . S
H133 N113 0.862 . S
O134 Co102 1.920 . S
O134 C107 1.289 . S
C135 O127 1.258 . S
C135 O128 1.266 . S
Co136 O139 1.970 . S
Co136 N153 1.989 . S
Co136 O161 1.967 . S
Co136 O168 1.920 . S
Co137 O140 1.966 . S
Co137 N146 2.022 . S
Co137 N154 1.993 . S
Co137 O162 1.941 . S
C138 O139 1.258 . S
C138 O140 1.263 . S
O139 Co136 1.970 . S
O139 C138 1.258 . S
O140 Co137 1.966 . S
O140 C138 1.263 . S
C141 O142 1.235 . S
C141 O168 1.289 . S
O142 C141 1.235 . S
C143 C145 1.400 1_556 S
C143 N146 1.351 . S
C143 C148 1.501 . S
C144 C145 1.387 . S
C144 N147 1.341 1_554 S
C145 C143 1.400 1_554 S
C145 C144 1.387 . S
N146 Co137 2.022 . S
N146 C143 1.351 . S
N146 N147 1.365 . S
N147 C144 1.341 1_556 S
N147 N146 1.365 . S
N147 H167 0.862 . S
C148 C143 1.501 . S
C148 H149 0.961 . S
C148 H150 0.961 . S
C148 H151 0.960 . S
H149 C148 0.961 . S
H150 C148 0.961 . S
H151 C148 0.960 . S
C152 N153 1.342 . S
C152 C156 1.401 . S
C152 C157 1.499 . S
N153 Co136 1.989 . S
N153 C152 1.342 . S
N153 N154 1.388 . S
N154 Co137 1.993 . S
N154 N153 1.388 . S
N154 C155 1.346 . S
C155 N154 1.346 . S
C155 C156 1.396 . S
C155 C165 1.510 . S
C156 C152 1.401 . S
C156 C155 1.396 . S
C157 C152 1.499 . S
C157 H158 0.959 . S
C157 H159 0.960 . S
C157 H160 0.961 . S
H158 C157 0.959 . S
H159 C157 0.960 . S
H160 C157 0.961 . S
O161 Co136 1.967 . S
O161 C169 1.258 . S
O162 Co137 1.941 . S
O162 C169 1.266 . S
H163 C165 0.959 . S
H164 C165 0.961 . S
C165 C155 1.510 . S
C165 H163 0.959 . S
C165 H164 0.961 . S
C165 H166 0.960 . S
H166 C165 0.960 . S
H167 N147 0.862 . S
O168 Co136 1.920 . S
O168 C141 1.289 . S
C169 O161 1.258 . S
C169 O162 1.266 . S
Co170 O173 1.970 . S
Co170 N187 1.989 . S
Co170 O195 1.967 . S
Co170 O202 1.920 . S
Co171 O174 1.966 . S
Co171 N180 2.022 1_556 S
Co171 N188 1.993 . S
Co171 O196 1.941 . S
C172 O173 1.258 . S
C172 O174 1.263 . S
O173 Co170 1.970 . S
O173 C172 1.258 . S
O174 Co171 1.966 . S
O174 C172 1.263 . S
C175 O176 1.235 . S
C175 O202 1.289 . S
O176 C175 1.235 . S
C177 C179 1.400 . S
C177 N180 1.351 . S
C177 C182 1.501 . S
C178 C179 1.387 . S
C178 N181 1.341 . S
C179 C177 1.400 . S
C179 C178 1.387 . S
N180 Co171 2.022 1_554 S
N180 C177 1.351 . S
N180 N181 1.365 . S
N181 C178 1.341 . S
N181 N180 1.365 . S
N181 H201 0.862 . S
C182 C177 1.501 . S
C182 H183 0.961 . S
C182 H184 0.961 . S
C182 H185 0.960 . S
H183 C182 0.961 . S
H184 C182 0.961 . S
H185 C182 0.960 . S
C186 N187 1.342 . S
C186 C190 1.401 . S
C186 C191 1.499 . S
N187 Co170 1.989 . S
N187 C186 1.342 . S
N187 N188 1.388 . S
N188 Co171 1.993 . S
N188 N187 1.388 . S
N188 C189 1.346 1_556 S
C189 N188 1.346 1_554 S
C189 C190 1.396 1_554 S
C189 C199 1.510 . S
C190 C186 1.401 . S
C190 C189 1.396 1_556 S
C191 C186 1.499 . S
C191 H192 0.959 . S
C191 H193 0.960 . S
C191 H194 0.961 . S
H192 C191 0.959 . S
H193 C191 0.960 . S
H194 C191 0.961 . S
O195 Co170 1.967 . S
O195 C203 1.258 . S
O196 Co171 1.941 . S
O196 C203 1.266 . S
H197 C199 0.959 . S
H198 C199 0.961 . S
C199 C189 1.510 . S
C199 H197 0.959 . S
C199 H198 0.961 . S
C199 H200 0.960 . S
H200 C199 0.960 . S
H201 N181 0.862 . S
O202 Co170 1.920 . S
O202 C175 1.289 . S
C203 O195 1.258 . S
C203 O196 1.266 . S
Co204 O207 1.970 . S
Co204 N221 1.989 . S
Co204 O229 1.967 . S
Co204 O236 1.920 . S
Co205 O208 1.966 . S
Co205 N214 2.022 . S
Co205 N222 1.993 . S
Co205 O230 1.941 . S
C206 O207 1.258 . S
C206 O208 1.263 . S
O207 Co204 1.970 . S
O207 C206 1.258 . S
O208 Co205 1.966 . S
O208 C206 1.263 . S
C209 O210 1.235 . S
C209 O236 1.289 . S
O210 C209 1.235 . S
C211 C213 1.400 . S
C211 N214 1.351 . S
C211 C216 1.501 . S
C212 C213 1.387 . S
C212 N215 1.341 . S
C213 C211 1.400 . S
C213 C212 1.387 . S
N214 Co205 2.022 . S
N214 C211 1.351 . S
N214 N215 1.365 . S
N215 C212 1.341 . S
N215 N214 1.365 . S
N215 H235 0.862 . S
C216 C211 1.501 . S
C216 H217 0.961 . S
C216 H218 0.961 . S
C216 H219 0.960 . S
H217 C216 0.961 . S
H218 C216 0.961 . S
H219 C216 0.960 . S
C220 N221 1.342 . S
C220 C224 1.401 . S
C220 C225 1.499 . S
N221 Co204 1.989 . S
N221 C220 1.342 . S
N221 N222 1.388 . S
N222 Co205 1.993 . S
N222 N221 1.388 . S
N222 C223 1.346 . S
C223 N222 1.346 . S
C223 C224 1.396 . S
C223 C233 1.510 . S
C224 C220 1.401 . S
C224 C223 1.396 . S
C225 C220 1.499 . S
C225 H226 0.959 . S
C225 H227 0.960 . S
C225 H228 0.961 . S
H226 C225 0.959 . S
H227 C225 0.960 . S
H228 C225 0.961 . S
O229 Co204 1.967 . S
O229 C237 1.258 . S
O230 Co205 1.941 . S
O230 C237 1.266 . S
H231 C233 0.959 . S
H232 C233 0.961 . S
C233 C223 1.510 . S
C233 H231 0.959 . S
C233 H232 0.961 . S
C233 H234 0.960 . S
H234 C233 0.960 . S
H235 N215 0.862 . S
O236 Co204 1.920 . S
O236 C209 1.289 . S
C237 O229 1.258 . S
C237 O230 1.266 . S
Co238 O241 1.970 . S
Co238 N255 1.989 1_554 S
Co238 O263 1.967 1_554 S
Co238 O270 1.920 . S
Co239 O242 1.966 . S
Co239 N248 2.022 . S
Co239 N256 1.993 . S
Co239 O264 1.941 . S
C240 O241 1.258 1_556 S
C240 O242 1.263 . S
O241 Co238 1.970 . S
O241 C240 1.258 1_554 S
O242 Co239 1.966 . S
O242 C240 1.263 . S
C243 O244 1.235 . S
C243 O270 1.289 . S
O244 C243 1.235 . S
C245 C247 1.400 . S
C245 N248 1.351 . S
C245 C250 1.501 . S
C246 C247 1.387 . S
C246 N249 1.341 . S
C247 C245 1.400 . S
C247 C246 1.387 . S
N248 Co239 2.022 . S
N248 C245 1.351 . S
N248 N249 1.365 . S
N249 C246 1.341 . S
N249 N248 1.365 . S
N249 H269 0.862 . S
C250 C245 1.501 . S
C250 H251 0.961 . S
C250 H252 0.961 . S
C250 H253 0.960 . S
H251 C250 0.961 . S
H252 C250 0.961 . S
H253 C250 0.960 . S
C254 N255 1.342 . S
C254 C258 1.401 . S
C254 C259 1.499 1_556 S
N255 Co238 1.989 1_556 S
N255 C254 1.342 . S
N255 N256 1.388 . S
N256 Co239 1.993 . S
N256 N255 1.388 . S
N256 C257 1.346 . S
C257 N256 1.346 . S
C257 C258 1.396 . S
C257 C267 1.510 . S
C258 C254 1.401 . S
C258 C257 1.396 . S
C259 C254 1.499 1_554 S
C259 H260 0.959 . S
C259 H261 0.960 . S
C259 H262 0.961 . S
H260 C259 0.959 . S
H261 C259 0.960 . S
H262 C259 0.961 . S
O263 Co238 1.967 1_556 S
O263 C271 1.258 . S
O264 Co239 1.941 . S
O264 C271 1.266 . S
H265 C267 0.959 . S
H266 C267 0.961 . S
C267 C257 1.510 . S
C267 H265 0.959 . S
C267 H266 0.961 . S
C267 H268 0.960 . S
H268 C267 0.960 . S
H269 N249 0.862 . S
O270 Co238 1.920 . S
O270 C243 1.289 . S
C271 O263 1.258 . S
C271 O264 1.266 . S
Co272 O275 1.970 . S
Co272 N289 1.989 . S
Co272 O297 1.967 . S
Co272 O304 1.920 . S
Co273 O276 1.966 . S
Co273 N282 2.022 1_554 S
Co273 N290 1.993 . S
Co273 O298 1.941 . S
C274 O275 1.258 . S
C274 O276 1.263 . S
O275 Co272 1.970 . S
O275 C274 1.258 . S
O276 Co273 1.966 . S
O276 C274 1.263 . S
C277 O278 1.235 . S
C277 O304 1.289 . S
O278 C277 1.235 . S
C279 C281 1.400 . S
C279 N282 1.351 . S
C279 C284 1.501 . S
C280 C281 1.387 . S
C280 N283 1.341 . S
C281 C279 1.400 . S
C281 C280 1.387 . S
N282 Co273 2.022 1_556 S
N282 C279 1.351 . S
N282 N283 1.365 . S
N283 C280 1.341 . S
N283 N282 1.365 . S
N283 H303 0.862 . S
C284 C279 1.501 . S
C284 H285 0.961 . S
C284 H286 0.961 . S
C284 H287 0.960 . S
H285 C284 0.961 . S
H286 C284 0.961 . S
H287 C284 0.960 . S
C288 N289 1.342 . S
C288 C292 1.401 . S
C288 C293 1.499 . S
N289 Co272 1.989 . S
N289 C288 1.342 . S
N289 N290 1.388 . S
N290 Co273 1.993 . S
N290 N289 1.388 . S
N290 C291 1.346 1_554 S
C291 N290 1.346 1_556 S
C291 C292 1.396 1_556 S
C291 C301 1.510 . S
C292 C288 1.401 . S
C292 C291 1.396 1_554 S
C293 C288 1.499 . S
C293 H294 0.959 . S
C293 H295 0.960 . S
C293 H296 0.961 . S
H294 C293 0.959 . S
H295 C293 0.960 . S
H296 C293 0.961 . S
O297 Co272 1.967 . S
O297 C305 1.258 . S
O298 Co273 1.941 . S
O298 C305 1.266 . S
H299 C301 0.959 . S
H300 C301 0.961 . S
C301 C291 1.510 . S
C301 H299 0.959 . S
C301 H300 0.961 . S
C301 H302 0.960 . S
H302 C301 0.960 . S
H303 N283 0.862 . S
O304 Co272 1.920 . S
O304 C277 1.289 . S
C305 O297 1.258 . S
C305 O298 1.266 . S
Co306 O309 1.970 . S
Co306 N323 1.989 . S
Co306 O331 1.967 . S
Co306 O338 1.920 . S
Co307 O310 1.966 . S
Co307 N316 2.022 . S
Co307 N324 1.993 . S
Co307 O332 1.941 . S
C308 O309 1.258 . S
C308 O310 1.263 . S
O309 Co306 1.970 . S
O309 C308 1.258 . S
O310 Co307 1.966 . S
O310 C308 1.263 . S
C311 O312 1.235 . S
C311 O338 1.289 . S
O312 C311 1.235 . S
C313 C315 1.400 1_554 S
C313 N316 1.351 . S
C313 C318 1.501 . S
C314 C315 1.387 . S
C314 N317 1.341 1_556 S
C315 C313 1.400 1_556 S
C315 C314 1.387 . S
N316 Co307 2.022 . S
N316 C313 1.351 . S
N316 N317 1.365 . S
N317 C314 1.341 1_554 S
N317 N316 1.365 . S
N317 H337 0.862 . S
C318 C313 1.501 . S
C318 H319 0.961 . S
C318 H320 0.961 . S
C318 H321 0.960 . S
H319 C318 0.961 . S
H320 C318 0.961 . S
H321 C318 0.960 . S
C322 N323 1.342 . S
C322 C326 1.401 . S
C322 C327 1.499 . S
N323 Co306 1.989 . S
N323 C322 1.342 . S
N323 N324 1.388 . S
N324 Co307 1.993 . S
N324 N323 1.388 . S
N324 C325 1.346 . S
C325 N324 1.346 . S
C325 C326 1.396 . S
C325 C335 1.510 . S
C326 C322 1.401 . S
C326 C325 1.396 . S
C327 C322 1.499 . S
C327 H328 0.959 . S
C327 H329 0.960 . S
C327 H330 0.961 . S
H328 C327 0.959 . S
H329 C327 0.960 . S
H330 C327 0.961 . S
O331 Co306 1.967 . S
O331 C339 1.258 . S
O332 Co307 1.941 . S
O332 C339 1.266 . S
H333 C335 0.959 . S
H334 C335 0.961 . S
C335 C325 1.510 . S
C335 H333 0.959 . S
C335 H334 0.961 . S
C335 H336 0.960 . S
H336 C335 0.960 . S
H337 N317 0.862 . S
O338 Co306 1.920 . S
O338 C311 1.289 . S
C339 O331 1.258 . S
C339 O332 1.266 . S
Co340 O343 1.970 . S
Co340 N357 1.989 . S
Co340 O365 1.967 . S
Co340 O372 1.920 . S
Co341 O344 1.966 . S
Co341 N350 2.022 . S
Co341 N358 1.993 . S
Co341 O366 1.941 . S
C342 O343 1.258 . S
C342 O344 1.263 . S
O343 Co340 1.970 . S
O343 C342 1.258 . S
O344 Co341 1.966 . S
O344 C342 1.263 . S
C345 O346 1.235 . S
C345 O372 1.289 . S
O346 C345 1.235 . S
C347 C349 1.400 . S
C347 N350 1.351 . S
C347 C352 1.501 . S
C348 C349 1.387 . S
C348 N351 1.341 . S
C349 C347 1.400 . S
C349 C348 1.387 . S
N350 Co341 2.022 . S
N350 C347 1.351 . S
N350 N351 1.365 . S
N351 C348 1.341 . S
N351 N350 1.365 . S
N351 H371 0.862 . S
C352 C347 1.501 . S
C352 H353 0.961 . S
C352 H354 0.961 . S
C352 H355 0.960 . S
H353 C352 0.961 . S
H354 C352 0.961 . S
H355 C352 0.960 . S
C356 N357 1.342 . S
C356 C360 1.401 . S
C356 C361 1.499 . S
N357 Co340 1.989 . S
N357 C356 1.342 . S
N357 N358 1.388 . S
N358 Co341 1.993 . S
N358 N357 1.388 . S
N358 C359 1.346 . S
C359 N358 1.346 . S
C359 C360 1.396 . S
C359 C369 1.510 . S
C360 C356 1.401 . S
C360 C359 1.396 . S
C361 C356 1.499 . S
C361 H362 0.959 . S
C361 H363 0.960 . S
C361 H364 0.961 . S
H362 C361 0.959 . S
H363 C361 0.960 . S
H364 C361 0.961 . S
O365 Co340 1.967 . S
O365 C373 1.258 . S
O366 Co341 1.941 . S
O366 C373 1.266 . S
H367 C369 0.959 . S
H368 C369 0.961 . S
C369 C359 1.510 . S
C369 H367 0.959 . S
C369 H368 0.961 . S
C369 H370 0.960 . S
H370 C369 0.960 . S
H371 N351 0.862 . S
O372 Co340 1.920 . S
O372 C345 1.289 . S
C373 O365 1.258 . S
C373 O366 1.266 . S
Co374 O377 1.970 . S
Co374 N391 1.989 . S
Co374 O399 1.967 . S
Co374 O406 1.920 . S
Co375 O378 1.966 . S
Co375 N384 2.022 . S
Co375 N392 1.993 . S
Co375 O400 1.941 . S
C376 O377 1.258 . S
C376 O378 1.263 . S
O377 Co374 1.970 . S
O377 C376 1.258 . S
O378 Co375 1.966 . S
O378 C376 1.263 . S
C379 O380 1.235 . S
C379 O406 1.289 . S
O380 C379 1.235 . S
C381 C383 1.400 . S
C381 N384 1.351 . S
C381 C386 1.501 . S
C382 C383 1.387 . S
C382 N385 1.341 . S
C383 C381 1.400 . S
C383 C382 1.387 . S
N384 Co375 2.022 . S
N384 C381 1.351 . S
N384 N385 1.365 . S
N385 C382 1.341 . S
N385 N384 1.365 . S
N385 H405 0.862 . S
C386 C381 1.501 . S
C386 H387 0.961 . S
C386 H388 0.961 . S
C386 H389 0.960 . S
H387 C386 0.961 . S
H388 C386 0.961 . S
H389 C386 0.960 . S
C390 N391 1.342 . S
C390 C394 1.401 . S
C390 C395 1.499 . S
N391 Co374 1.989 . S
N391 C390 1.342 . S
N391 N392 1.388 . S
N392 Co375 1.993 . S
N392 N391 1.388 . S
N392 C393 1.346 . S
C393 N392 1.346 . S
C393 C394 1.396 . S
C393 C403 1.510 . S
C394 C390 1.401 . S
C394 C393 1.396 . S
C395 C390 1.499 . S
C395 H396 0.959 . S
C395 H397 0.960 . S
C395 H398 0.961 . S
H396 C395 0.959 . S
H397 C395 0.960 . S
H398 C395 0.961 . S
O399 Co374 1.967 . S
O399 C407 1.258 . S
O400 Co375 1.941 . S
O400 C407 1.266 . S
H401 C403 0.959 . S
H402 C403 0.961 . S
C403 C393 1.510 . S
C403 H401 0.959 . S
C403 H402 0.961 . S
C403 H404 0.960 . S
H404 C403 0.960 . S
H405 N385 0.862 . S
O406 Co374 1.920 . S
O406 C379 1.289 . S
C407 O399 1.258 . S
C407 O400 1.266 . S
H408 C414 0.930 . S
H409 C418 0.930 . S
H410 C423 0.929 . S
H411 C421 0.929 . S
H412 C416 0.929 . S
H413 C422 0.929 . S
C414 H408 0.930 . S
C414 C415 1.367 . S
C414 C422 1.378 . S
C415 C414 1.367 . S
C415 C423 1.433 . S
C416 H412 0.929 . S
C416 C418 1.378 . S
C416 C420 1.350 . S
C417 C420 1.463 . S
C417 C422 1.350 . S
C417 N425 1.427 . S
C418 H409 0.930 . S
C418 C416 1.378 . S
C418 C419 1.367 . S
C419 C418 1.367 . S
C419 C421 1.433 . S
C420 C416 1.350 . S
C420 C417 1.463 . S
C420 N424 1.427 . S
C421 H411 0.929 . S
C421 C419 1.433 . S
C421 N424 1.384 . S
C422 H413 0.929 . S
C422 C414 1.378 . S
C422 C417 1.350 . S
C423 H410 0.929 . S
C423 C415 1.433 . S
C423 N425 1.384 . S
N424 C420 1.427 . S
N424 C421 1.384 . S
N425 C417 1.427 . S
N425 C423 1.384 . S
H426 C432 0.930 . S
H427 C436 0.930 . S
H428 C441 0.929 . S
H429 C439 0.929 . S
H430 C434 0.929 . S
H431 C440 0.929 . S
C432 H426 0.930 . S
C432 C433 1.367 . S
C432 C440 1.378 . S
C433 C432 1.367 . S
C433 C441 1.433 . S
C434 H430 0.929 . S
C434 C436 1.378 . S
C434 C438 1.350 . S
C435 C438 1.463 . S
C435 C440 1.350 . S
C435 N443 1.427 . S
C436 H427 0.930 . S
C436 C434 1.378 . S
C436 C437 1.367 . S
C437 C436 1.367 . S
C437 C439 1.433 . S
C438 C434 1.350 . S
C438 C435 1.463 . S
C438 N442 1.427 . S
C439 H429 0.929 . S
C439 C437 1.433 . S
C439 N442 1.384 . S
C440 H431 0.929 . S
C440 C432 1.378 . S
C440 C435 1.350 . S
C441 H428 0.929 . S
C441 C433 1.433 . S
C441 N443 1.384 . S
N442 C438 1.427 . S
N442 C439 1.384 . S
N443 C435 1.427 . S
N443 C441 1.384 . S
H444 C450 0.930 . S
H445 C454 0.930 . S
H446 C459 0.929 . S
H447 C457 0.929 . S
H448 C452 0.929 . S
H449 C458 0.929 . S
C450 H444 0.930 . S
C450 C451 1.367 . S
C450 C458 1.378 . S
C451 C450 1.367 . S
C451 C459 1.433 . S
C452 H448 0.929 . S
C452 C454 1.378 . S
C452 C456 1.350 . S
C453 C456 1.463 . S
C453 C458 1.350 . S
C453 N461 1.427 . S
C454 H445 0.930 . S
C454 C452 1.378 . S
C454 C455 1.367 . S
C455 C454 1.367 . S
C455 C457 1.433 . S
C456 C452 1.350 . S
C456 C453 1.463 . S
C456 N460 1.427 . S
C457 H447 0.929 . S
C457 C455 1.433 . S
C457 N460 1.384 . S
C458 H449 0.929 . S
C458 C450 1.378 . S
C458 C453 1.350 . S
C459 H446 0.929 . S
C459 C451 1.433 . S
C459 N461 1.384 . S
N460 C456 1.427 . S
N460 C457 1.384 . S
N461 C453 1.427 . S
N461 C459 1.384 . S
H462 C468 0.930 . S
H463 C472 0.930 . S
H464 C477 0.929 . S
H465 C475 0.929 . S
H466 C470 0.929 . S
H467 C476 0.929 . S
C468 H462 0.930 . S
C468 C469 1.367 . S
C468 C476 1.378 . S
C469 C468 1.367 . S
C469 C477 1.433 . S
C470 H466 0.929 . S
C470 C472 1.378 . S
C470 C474 1.350 . S
C471 C474 1.463 . S
C471 C476 1.350 . S
C471 N479 1.427 . S
C472 H463 0.930 . S
C472 C470 1.378 . S
C472 C473 1.367 . S
C473 C472 1.367 . S
C473 C475 1.433 . S
C474 C470 1.350 . S
C474 C471 1.463 . S
C474 N478 1.427 . S
C475 H465 0.929 . S
C475 C473 1.433 . S
C475 N478 1.384 . S
C476 H467 0.929 . S
C476 C468 1.378 . S
C476 C471 1.350 . S
C477 H464 0.929 . S
C477 C469 1.433 . S
C477 N479 1.384 . S
N478 C474 1.427 . S
N478 C475 1.384 . S
N479 C471 1.427 . S
N479 C477 1.384 . S
H480 C486 0.930 . S
H481 C490 0.930 . S
H482 C495 0.929 . S
H483 C493 0.929 . S
H484 C488 0.929 . S
H485 C494 0.929 . S
C486 H480 0.930 . S
C486 C487 1.367 . S
C486 C494 1.378 . S
C487 C486 1.367 . S
C487 C495 1.433 . S
C488 H484 0.929 . S
C488 C490 1.378 . S
C488 C492 1.350 . S
C489 C492 1.463 . S
C489 C494 1.350 . S
C489 N497 1.427 . S
C490 H481 0.930 . S
C490 C488 1.378 . S
C490 C491 1.367 . S
C491 C490 1.367 . S
C491 C493 1.433 . S
C492 C488 1.350 . S
C492 C489 1.463 . S
C492 N496 1.427 . S
C493 H483 0.929 . S
C493 C491 1.433 . S
C493 N496 1.384 . S
C494 H485 0.929 . S
C494 C486 1.378 . S
C494 C489 1.350 . S
C495 H482 0.929 . S
C495 C487 1.433 . S
C495 N497 1.384 . S
N496 C492 1.427 . S
N496 C493 1.384 . S
N497 C489 1.427 . S
N497 C495 1.384 . S
H498 C504 0.930 . S
H499 C508 0.930 . S
H500 C513 0.929 . S
H501 C511 0.929 . S
H502 C506 0.929 . S
H503 C512 0.929 . S
C504 H498 0.930 . S
C504 C505 1.367 . S
C504 C512 1.378 . S
C505 C504 1.367 . S
C505 C513 1.433 . S
C506 H502 0.929 . S
C506 C508 1.378 . S
C506 C510 1.350 . S
C507 C510 1.463 . S
C507 C512 1.350 . S
C507 N515 1.427 . S
C508 H499 0.930 . S
C508 C506 1.378 . S
C508 C509 1.367 . S
C509 C508 1.367 . S
C509 C511 1.433 . S
C510 C506 1.350 . S
C510 C507 1.463 . S
C510 N514 1.427 . S
C511 H501 0.929 . S
C511 C509 1.433 . S
C511 N514 1.384 . S
C512 H503 0.929 . S
C512 C504 1.378 . S
C512 C507 1.350 . S
C513 H500 0.929 . S
C513 C505 1.433 . S
C513 N515 1.384 . S
N514 C510 1.427 . S
N514 C511 1.384 . S
N515 C507 1.427 . S
N515 C513 1.384 . S
H516 C522 0.930 1_554 S
H517 C526 0.930 . S
H518 C531 0.929 . S
H519 C529 0.929 . S
H520 C524 0.929 1_455 S
H521 C530 0.929 1_655 S
C522 H516 0.930 1_556 S
C522 C523 1.367 . S
C522 C530 1.378 . S
C523 C522 1.367 . S
C523 C531 1.433 . S
C524 H520 0.929 1_655 S
C524 C526 1.378 . S
C524 C528 1.350 . S
C525 C528 1.463 1_455 S
C525 C530 1.350 . S
C525 N533 1.427 . S
C526 H517 0.930 . S
C526 C524 1.378 . S
C526 C527 1.367 . S
C527 C526 1.367 . S
C527 C529 1.433 . S
C528 C524 1.350 . S
C528 C525 1.463 1_655 S
C528 N532 1.427 . S
C529 H519 0.929 . S
C529 C527 1.433 . S
C529 N532 1.384 . S
C530 H521 0.929 1_455 S
C530 C522 1.378 . S
C530 C525 1.350 . S
C531 H518 0.929 . S
C531 C523 1.433 . S
C531 N533 1.384 . S
N532 C528 1.427 . S
N532 C529 1.384 . S
N533 C525 1.427 . S
N533 C531 1.384 . S
H534 C540 0.930 . S
H535 C544 0.930 . S
H536 C549 0.929 . S
H537 C547 0.929 . S
H538 C542 0.922 1_556 S
H539 C548 0.921 1_554 S
C540 H534 0.930 . S
C540 C541 1.367 . S
C540 C548 1.378 . S
C541 C540 1.367 . S
C541 C549 1.433 . S
C542 H538 0.922 1_554 S
C542 C544 1.378 . S
C542 C546 1.350 . S
C543 C546 1.463 1_566 S
C543 C548 1.350 . S
C543 N551 1.427 . S
C544 H535 0.930 . S
C544 C542 1.378 . S
C544 C545 1.367 . S
C545 C544 1.367 . S
C545 C547 1.433 . S
C546 C542 1.350 . S
C546 C543 1.463 1_544 S
C546 N550 1.427 . S
C547 H537 0.929 . S
C547 C545 1.433 . S
C547 N550 1.384 . S
C548 H539 0.921 1_556 S
C548 C540 1.378 . S
C548 C543 1.350 . S
C549 H536 0.929 . S
C549 C541 1.433 . S
C549 N551 1.384 . S
N550 C546 1.427 . S
N550 C547 1.384 . S
N551 C543 1.427 . S
N551 C549 1.384 . S
H552 C558 0.930 . S
H553 C562 0.930 . S
H554 C567 0.929 . S
H555 C565 0.929 1_556 S
H556 C560 0.929 . S
H557 C566 0.929 . S
C558 H552 0.930 . S
C558 C559 1.367 . S
C558 C566 1.378 . S
C559 C558 1.367 . S
C559 C567 1.433 . S
C560 H556 0.929 . S
C560 C562 1.378 . S
C560 C564 1.350 . S
C561 C564 1.463 . S
C561 C566 1.350 . S
C561 N569 1.427 . S
C562 H553 0.930 . S
C562 C560 1.378 . S
C562 C563 1.367 . S
C563 C562 1.367 . S
C563 C565 1.433 . S
C564 C560 1.350 . S
C564 C561 1.463 . S
C564 N568 1.427 . S
C565 H555 0.929 1_554 S
C565 C563 1.433 . S
C565 N568 1.384 . S
C566 H557 0.929 . S
C566 C558 1.378 . S
C566 C561 1.350 . S
C567 H554 0.929 . S
C567 C559 1.433 . S
C567 N569 1.384 . S
N568 C564 1.427 . S
N568 C565 1.384 . S
N569 C561 1.427 . S
N569 C567 1.384 . S
H570 C576 0.930 . S
H571 C580 0.930 . S
H572 C585 0.929 . S
H573 C583 0.929 . S
H574 C578 0.929 . S
H575 C584 0.929 . S
C576 H570 0.930 . S
C576 C577 1.367 . S
C576 C584 1.378 . S
C577 C576 1.367 . S
C577 C585 1.433 . S
C578 H574 0.929 . S
C578 C580 1.378 . S
C578 C582 1.350 . S
C579 C582 1.463 1_655 S
C579 C584 1.350 . S
C579 N587 1.430 . S
C580 H571 0.930 . S
C580 C578 1.378 . S
C580 C581 1.367 . S
C581 C580 1.367 . S
C581 C583 1.433 . S
C582 C578 1.350 . S
C582 C579 1.463 1_455 S
C582 N586 1.430 . S
C583 H573 0.929 . S
C583 C581 1.433 . S
C583 N586 1.412 . S
C584 H575 0.929 . S
C584 C576 1.378 . S
C584 C579 1.350 . S
C585 H572 0.929 . S
C585 C577 1.433 . S
C585 N587 1.412 . S
N586 C582 1.430 . S
N586 C583 1.412 . S
N587 C579 1.430 . S
N587 C585 1.412 . S
H588 C594 0.930 . S
H589 C598 0.930 . S
H590 C603 0.929 . S
H591 C601 0.929 . S
H592 C596 0.929 1_545 S
H593 C602 0.929 1_565 S
C594 H588 0.930 . S
C594 C595 1.367 . S
C594 C602 1.378 . S
C595 C594 1.367 . S
C595 C603 1.433 . S
C596 H592 0.929 1_565 S
C596 C598 1.378 . S
C596 C600 1.350 . S
C597 C600 1.463 1_545 S
C597 C602 1.350 . S
C597 N605 1.427 . S
C598 H589 0.930 . S
C598 C596 1.378 . S
C598 C599 1.367 . S
C599 C598 1.367 . S
C599 C601 1.433 . S
C600 C596 1.350 . S
C600 C597 1.463 1_565 S
C600 N604 1.427 . S
C601 H591 0.929 . S
C601 C599 1.433 . S
C601 N604 1.384 . S
C602 H593 0.929 1_545 S
C602 C594 1.378 . S
C602 C597 1.350 . S
C603 H590 0.929 . S
C603 C595 1.433 . S
C603 N605 1.384 . S
N604 C600 1.427 . S
N604 C601 1.384 . S
N605 C597 1.427 . S
N605 C603 1.384 . S
H606 C612 0.930 . S
H607 C616 0.930 . S
H608 C621 0.929 . S
H609 C619 0.929 . S
H610 C614 0.929 . S
H611 C620 0.929 . S
C612 H606 0.930 . S
C612 C613 1.367 . S
C612 C620 1.378 . S
C613 C612 1.367 . S
C613 C621 1.433 . S
C614 H610 0.929 . S
C614 C616 1.378 . S
C614 C618 1.350 . S
C615 C618 1.463 . S
C615 C620 1.350 . S
C615 N623 1.427 . S
C616 H607 0.930 . S
C616 C614 1.378 . S
C616 C617 1.367 . S
C617 C616 1.367 . S
C617 C619 1.433 . S
C618 C614 1.350 . S
C618 C615 1.463 . S
C618 N622 1.427 . S
C619 H609 0.929 . S
C619 C617 1.433 . S
C619 N622 1.384 . S
C620 H611 0.929 . S
C620 C612 1.378 . S
C620 C615 1.350 . S
C621 H608 0.929 . S
C621 C613 1.433 . S
C621 N623 1.384 . S
N622 C618 1.427 . S
N622 C619 1.384 . S
N623 C615 1.427 . S
N623 C621 1.384 . S
H624 C630 0.930 . S
H625 C634 0.930 . S
H626 C639 0.929 . S
H627 C637 0.929 . S
H628 C632 0.929 . S
H629 C638 0.929 . S
C630 H624 0.930 . S
C630 C631 1.367 . S
C630 C638 1.378 . S
C631 C630 1.367 . S
C631 C639 1.433 . S
C632 H628 0.929 . S
C632 C634 1.378 . S
C632 C636 1.350 . S
C633 C636 1.463 . S
C633 C638 1.350 . S
C633 N641 1.427 . S
C634 H625 0.930 . S
C634 C632 1.378 . S
C634 C635 1.367 . S
C635 C634 1.367 . S
C635 C637 1.433 . S
C636 C632 1.350 . S
C636 C633 1.463 . S
C636 N640 1.427 . S
C637 H627 0.929 . S
C637 C635 1.433 . S
C637 N640 1.384 . S
C638 H629 0.929 . S
C638 C630 1.378 . S
C638 C633 1.350 . S
C639 H626 0.929 . S
C639 C631 1.433 . S
C639 N641 1.384 . S
N640 C636 1.427 . S
N640 C637 1.384 . S
N641 C633 1.427 . S
N641 C639 1.384 . S
H642 C648 0.930 . S
H643 C652 0.930 . S
H644 C657 0.929 . S
H645 C655 0.929 . S
H646 C650 0.929 . S
H647 C656 0.929 . S
C648 H642 0.930 . S
C648 C649 1.367 . S
C648 C656 1.378 . S
C649 C648 1.367 . S
C649 C657 1.433 . S
C650 H646 0.929 . S
C650 C652 1.378 . S
C650 C654 1.350 . S
C651 C654 1.463 . S
C651 C656 1.350 . S
C651 N659 1.427 . S
C652 H643 0.930 . S
C652 C650 1.378 . S
C652 C653 1.367 . S
C653 C652 1.367 . S
C653 C655 1.433 . S
C654 C650 1.350 . S
C654 C651 1.463 . S
C654 N658 1.427 . S
C655 H645 0.929 . S
C655 C653 1.433 . S
C655 N658 1.384 . S
C656 H647 0.929 . S
C656 C648 1.378 . S
C656 C651 1.350 . S
C657 H644 0.929 . S
C657 C649 1.433 . S
C657 N659 1.384 . S
N658 C654 1.427 . S
N658 C655 1.384 . S
N659 C651 1.427 . S
N659 C657 1.384 . S
H660 C666 0.930 . S
H661 C670 0.930 . S
H662 C675 0.929 . S
H663 C673 0.929 . S
H664 C668 0.929 . S
H665 C674 0.929 . S
C666 H660 0.930 . S
C666 C667 1.367 . S
C666 C674 1.378 . S
C667 C666 1.367 . S
C667 C675 1.433 . S
C668 H664 0.929 . S
C668 C670 1.378 . S
C668 C672 1.350 . S
C669 C672 1.463 . S
C669 C674 1.350 . S
C669 N677 1.427 . S
C670 H661 0.930 . S
C670 C668 1.378 . S
C670 C671 1.367 . S
C671 C670 1.367 . S
C671 C673 1.433 . S
C672 C668 1.350 . S
C672 C669 1.463 . S
C672 N676 1.427 . S
C673 H663 0.929 . S
C673 C671 1.433 . S
C673 N676 1.384 . S
C674 H665 0.929 . S
C674 C666 1.378 . S
C674 C669 1.350 . S
C675 H662 0.929 . S
C675 C667 1.433 . S
C675 N677 1.384 . S
N676 C672 1.427 . S
N676 C673 1.384 . S
N677 C669 1.427 . S
N677 C675 1.384 . S
H678 C684 0.930 . S
H679 C688 0.930 . S
H680 C693 0.929 . S
H681 C691 0.929 . S
H682 C686 0.929 . S
H683 C692 0.929 . S
C684 H678 0.930 . S
C684 C685 1.367 . S
C684 C692 1.378 . S
C685 C684 1.367 . S
C685 C693 1.433 . S
C686 H682 0.929 . S
C686 C688 1.378 . S
C686 C690 1.350 . S
C687 C690 1.463 . S
C687 C692 1.350 . S
C687 N695 1.427 . S
C688 H679 0.930 . S
C688 C686 1.378 . S
C688 C689 1.367 . S
C689 C688 1.367 . S
C689 C691 1.433 . S
C690 C686 1.350 . S
C690 C687 1.463 . S
C690 N694 1.427 . S
C691 H681 0.929 . S
C691 C689 1.433 . S
C691 N694 1.384 . S
C692 H683 0.929 . S
C692 C684 1.378 . S
C692 C687 1.350 . S
C693 H680 0.929 . S
C693 C685 1.433 . S
C693 N695 1.384 . S
N694 C690 1.427 . S
N694 C691 1.384 . S
N695 C687 1.427 . S
N695 C693 1.384 . S
H696 C702 0.930 . S
H697 C706 0.930 . S
H698 C711 0.929 . S
H699 C709 0.929 . S
H700 C704 0.929 . S
H701 C710 0.929 . S
C702 H696 0.930 . S
C702 C703 1.367 . S
C702 C710 1.378 . S
C703 C702 1.367 . S
C703 C711 1.433 . S
C704 H700 0.929 . S
C704 C706 1.378 1_556 S
C704 C708 1.350 . S
C705 C708 1.463 . S
C705 C710 1.350 . S
C705 N713 1.427 . S
C706 H697 0.930 . S
C706 C704 1.378 1_554 S
C706 C707 1.367 . S
C707 C706 1.367 . S
C707 C709 1.433 1_554 S
C708 C704 1.350 . S
C708 C705 1.463 . S
C708 N712 1.427 . S
C709 H699 0.929 . S
C709 C707 1.433 1_556 S
C709 N712 1.384 . S
C710 H701 0.929 . S
C710 C702 1.378 . S
C710 C705 1.350 . S
C711 H698 0.929 . S
C711 C703 1.433 . S
C711 N713 1.384 . S
N712 C708 1.427 . S
N712 C709 1.384 . S
N713 C705 1.427 . S
N713 C711 1.384 . S
H714 C720 0.930 . S
H715 C724 0.930 . S
H716 C729 0.929 . S
H717 C727 0.929 . S
H718 C722 0.929 . S
H719 C728 0.929 . S
C720 H714 0.930 . S
C720 C721 1.367 . S
C720 C728 1.378 . S
C721 C720 1.367 . S
C721 C729 1.433 . S
C722 H718 0.929 . S
C722 C724 1.378 1_554 S
C722 C726 1.350 . S
C723 C726 1.463 . S
C723 C728 1.350 . S
C723 N731 1.427 . S
C724 H715 0.930 . S
C724 C722 1.378 1_556 S
C724 C725 1.367 . S
C725 C724 1.367 . S
C725 C727 1.433 1_556 S
C726 C722 1.350 . S
C726 C723 1.463 . S
C726 N730 1.427 . S
C727 H717 0.929 . S
C727 C725 1.433 1_554 S
C727 N730 1.384 . S
C728 H719 0.929 . S
C728 C720 1.378 . S
C728 C723 1.350 . S
C729 H716 0.929 . S
C729 C721 1.433 . S
C729 N731 1.384 . S
N730 C726 1.427 . S
N730 C727 1.384 . S
N731 C723 1.427 . S
N731 C729 1.384 . S
H732 C738 0.930 . S
H733 C742 0.930 . S
H734 C747 0.929 . S
H735 C745 0.929 . S
H736 C740 0.929 . S
H737 C746 0.929 . S
C738 H732 0.930 . S
C738 C739 1.367 . S
C738 C746 1.378 . S
C739 C738 1.367 . S
C739 C747 1.433 . S
C740 H736 0.929 . S
C740 C742 1.378 . S
C740 C744 1.350 . S
C741 C744 1.463 . S
C741 C746 1.350 . S
C741 N749 1.427 . S
C742 H733 0.930 . S
C742 C740 1.378 . S
C742 C743 1.367 . S
C743 C742 1.367 . S
C743 C745 1.433 . S
C744 C740 1.350 . S
C744 C741 1.463 . S
C744 N748 1.427 . S
C745 H735 0.929 . S
C745 C743 1.433 . S
C745 N748 1.384 . S
C746 H737 0.929 . S
C746 C738 1.378 . S
C746 C741 1.350 . S
C747 H734 0.929 . S
C747 C739 1.433 . S
C747 N749 1.384 . S
N748 C744 1.427 . S
N748 C745 1.384 . S
N749 C741 1.427 . S
N749 C747 1.384 . S
H750 C756 0.930 . S
H751 C760 0.930 . S
H752 C765 0.929 . S
H753 C763 0.929 . S
H754 C758 0.929 . S
H755 C764 0.929 . S
C756 H750 0.930 . S
C756 C757 1.367 . S
C756 C764 1.378 . S
C757 C756 1.367 . S
C757 C765 1.433 . S
C758 H754 0.929 . S
C758 C760 1.378 . S
C758 C762 1.350 . S
C759 C762 1.463 . S
C759 C764 1.350 . S
C759 N767 1.427 . S
C760 H751 0.930 . S
C760 C758 1.378 . S
C760 C761 1.367 . S
C761 C760 1.367 . S
C761 C763 1.433 . S
C762 C758 1.350 . S
C762 C759 1.463 . S
C762 N766 1.427 . S
C763 H753 0.929 . S
C763 C761 1.433 . S
C763 N766 1.384 . S
C764 H755 0.929 . S
C764 C756 1.378 . S
C764 C759 1.350 . S
C765 H752 0.929 . S
C765 C757 1.433 . S
C765 N767 1.384 . S
N766 C762 1.427 . S
N766 C763 1.384 . S
N767 C759 1.427 . S
N767 C765 1.384 . S
H768 C774 0.930 . S
H769 C778 0.930 . S
H770 C783 0.929 . S
H771 C781 0.929 . S
H772 C776 0.929 . S
H773 C782 0.929 . S
C774 H768 0.930 . S
C774 C775 1.367 . S
C774 C782 1.378 . S
C775 C774 1.367 . S
C775 C783 1.433 . S
C776 H772 0.929 . S
C776 C778 1.378 . S
C776 C780 1.350 1_554 S
C777 C780 1.463 . S
C777 C782 1.350 . S
C777 N785 1.427 . S
C778 H769 0.930 . S
C778 C776 1.378 . S
C778 C779 1.367 . S
C779 C778 1.367 . S
C779 C781 1.433 . S
C780 C776 1.350 1_556 S
C780 C777 1.463 . S
C780 N784 1.427 . S
C781 H771 0.929 . S
C781 C779 1.433 . S
C781 N784 1.384 1_554 S
C782 H773 0.929 . S
C782 C774 1.378 . S
C782 C777 1.350 . S
C783 H770 0.929 . S
C783 C775 1.433 . S
C783 N785 1.384 . S
N784 C780 1.427 . S
N784 C781 1.384 1_556 S
N785 C777 1.427 . S
N785 C783 1.384 . S
H786 C792 0.930 . S
H787 C796 0.930 . S
H788 C801 0.929 . S
H789 C799 0.929 . S
H790 C794 0.929 . S
H791 C800 0.929 . S
C792 H786 0.930 . S
C792 C793 1.367 . S
C792 C800 1.378 1_556 S
C793 C792 1.367 . S
C793 C801 1.433 . S
C794 H790 0.929 . S
C794 C796 1.378 . S
C794 C798 1.350 . S
C795 C798 1.463 . S
C795 C800 1.350 . S
C795 N803 1.427 . S
C796 H787 0.930 . S
C796 C794 1.378 . S
C796 C797 1.367 . S
C797 C796 1.367 . S
C797 C799 1.433 . S
C798 C794 1.350 . S
C798 C795 1.463 . S
C798 N802 1.427 . S
C799 H789 0.929 . S
C799 C797 1.433 . S
C799 N802 1.384 . S
C800 H791 0.929 . S
C800 C792 1.378 1_554 S
C800 C795 1.350 . S
C801 H788 0.929 . S
C801 C793 1.433 . S
C801 N803 1.384 1_556 S
N802 C798 1.427 . S
N802 C799 1.384 . S
N803 C795 1.427 . S
N803 C801 1.384 1_554 S
H804 C810 0.930 . S
H805 C814 0.930 . S
H806 C819 0.929 . S
H807 C817 0.929 . S
H808 C812 0.929 . S
H809 C818 0.929 . S
C810 H804 0.930 . S
C810 C811 1.367 . S
C810 C818 1.378 . S
C811 C810 1.367 . S
C811 C819 1.433 . S
C812 H808 0.929 . S
C812 C814 1.378 . S
C812 C816 1.350 . S
C813 C816 1.463 . S
C813 C818 1.350 . S
C813 N821 1.427 . S
C814 H805 0.930 . S
C814 C812 1.378 . S
C814 C815 1.367 . S
C815 C814 1.367 . S
C815 C817 1.433 . S
C816 C812 1.350 . S
C816 C813 1.463 . S
C816 N820 1.427 . S
C817 H807 0.929 . S
C817 C815 1.433 . S
C817 N820 1.384 . S
C818 H809 0.929 . S
C818 C810 1.378 . S
C818 C813 1.350 . S
C819 H806 0.929 . S
C819 C811 1.433 . S
C819 N821 1.384 . S
N820 C816 1.427 . S
N820 C817 1.384 . S
N821 C813 1.427 . S
N821 C819 1.384 . S
H822 C828 0.930 . S
H823 C832 0.930 . S
H824 C837 0.929 . S
H825 C835 0.929 . S
H826 C830 0.929 . S
H827 C836 0.929 . S
C828 H822 0.930 . S
C828 C829 1.367 . S
C828 C836 1.378 . S
C829 C828 1.367 . S
C829 C837 1.433 . S
C830 H826 0.929 . S
C830 C832 1.378 . S
C830 C834 1.350 . S
C831 C834 1.463 . S
C831 C836 1.350 . S
C831 N839 1.427 . S
C832 H823 0.930 . S
C832 C830 1.378 . S
C832 C833 1.367 . S
C833 C832 1.367 . S
C833 C835 1.433 . S
C834 C830 1.350 . S
C834 C831 1.463 . S
C834 N838 1.427 . S
C835 H825 0.929 . S
C835 C833 1.433 . S
C835 N838 1.384 . S
C836 H827 0.929 . S
C836 C828 1.378 . S
C836 C831 1.350 . S
C837 H824 0.929 . S
C837 C829 1.433 . S
C837 N839 1.384 . S
N838 C834 1.427 . S
N838 C835 1.384 . S
N839 C831 1.427 . S
N839 C837 1.384 . S
H840 C846 0.930 . S
H841 C850 0.930 . S
H842 C855 0.929 . S
H843 C853 0.929 . S
H844 C848 0.929 . S
H845 C854 0.929 . S
C846 H840 0.930 . S
C846 C847 1.367 . S
C846 C854 1.378 . S
C847 C846 1.367 . S
C847 C855 1.433 . S
C848 H844 0.929 . S
C848 C850 1.378 . S
C848 C852 1.350 . S
C849 C852 1.463 . S
C849 C854 1.350 . S
C849 N857 1.427 . S
C850 H841 0.930 . S
C850 C848 1.378 . S
C850 C851 1.367 . S
C851 C850 1.367 . S
C851 C853 1.433 . S
C852 C848 1.350 . S
C852 C849 1.463 . S
C852 N856 1.427 . S
C853 H843 0.929 . S
C853 C851 1.433 . S
C853 N856 1.384 . S
C854 H845 0.929 . S
C854 C846 1.378 . S
C854 C849 1.350 . S
C855 H842 0.929 . S
C855 C847 1.433 . S
C855 N857 1.384 . S
N856 C852 1.427 . S
N856 C853 1.384 . S
N857 C849 1.427 . S
N857 C855 1.384 . S
H858 C864 0.930 . S
H859 C868 0.930 . S
H860 C873 0.929 . S
H861 C871 0.929 . S
H862 C866 0.929 . S
H863 C872 0.929 . S
C864 H858 0.930 . S
C864 C865 1.367 . S
C864 C872 1.378 . S
C865 C864 1.367 . S
C865 C873 1.433 . S
C866 H862 0.929 . S
C866 C868 1.378 . S
C866 C870 1.350 . S
C867 C870 1.463 . S
C867 C872 1.350 . S
C867 N875 1.427 . S
C868 H859 0.930 . S
C868 C866 1.378 . S
C868 C869 1.367 . S
C869 C868 1.367 . S
C869 C871 1.433 . S
C870 C866 1.350 . S
C870 C867 1.463 . S
C870 N874 1.427 . S
C871 H861 0.929 . S
C871 C869 1.433 . S
C871 N874 1.384 . S
C872 H863 0.929 . S
C872 C864 1.378 . S
C872 C867 1.350 . S
C873 H860 0.929 . S
C873 C865 1.433 . S
C873 N875 1.384 . S
N874 C870 1.427 . S
N874 C871 1.384 . S
N875 C867 1.427 . S
N875 C873 1.384 . S
H876 C882 0.930 . S
H877 C886 0.930 . S
H878 C891 0.929 . S
H879 C889 0.929 . S
H880 C884 0.929 . S
H881 C890 0.929 . S
C882 H876 0.930 . S
C882 C883 1.367 . S
C882 C890 1.378 . S
C883 C882 1.367 . S
C883 C891 1.433 . S
C884 H880 0.929 . S
C884 C886 1.378 . S
C884 C888 1.350 . S
C885 C888 1.463 . S
C885 C890 1.350 . S
C885 N893 1.427 . S
C886 H877 0.930 . S
C886 C884 1.378 . S
C886 C887 1.367 . S
C887 C886 1.367 . S
C887 C889 1.433 . S
C888 C884 1.350 . S
C888 C885 1.463 . S
C888 N892 1.427 . S
C889 H879 0.929 . S
C889 C887 1.433 . S
C889 N892 1.384 . S
C890 H881 0.929 . S
C890 C882 1.378 . S
C890 C885 1.350 . S
C891 H878 0.929 . S
C891 C883 1.433 . S
C891 N893 1.384 . S
N892 C888 1.427 . S
N892 C889 1.384 . S
N893 C885 1.427 . S
N893 C891 1.384 . S
H894 C900 0.930 . S
H895 C904 0.930 . S
H896 C909 0.929 . S
H897 C907 0.929 . S
H898 C902 0.929 . S
H899 C908 0.929 . S
C900 H894 0.930 . S
C900 C901 1.367 . S
C900 C908 1.378 . S
C901 C900 1.367 . S
C901 C909 1.433 . S
C902 H898 0.929 . S
C902 C904 1.378 . S
C902 C906 1.350 . S
C903 C906 1.463 . S
C903 C908 1.350 . S
C903 N911 1.427 . S
C904 H895 0.930 . S
C904 C902 1.378 . S
C904 C905 1.367 . S
C905 C904 1.367 . S
C905 C907 1.433 . S
C906 C902 1.350 . S
C906 C903 1.463 . S
C906 N910 1.427 . S
C907 H897 0.929 . S
C907 C905 1.433 . S
C907 N910 1.384 . S
C908 H899 0.929 . S
C908 C900 1.378 . S
C908 C903 1.350 . S
C909 H896 0.929 . S
C909 C901 1.433 . S
C909 N911 1.384 . S
N910 C906 1.427 . S
N910 C907 1.384 . S
N911 C903 1.427 . S
N911 C909 1.384 . S
H912 C918 0.930 . S
H913 C922 0.930 . S
H914 C927 0.929 . S
H915 C925 0.929 . S
H916 C920 0.929 . S
H917 C926 0.929 . S
C918 H912 0.930 . S
C918 C919 1.367 . S
C918 C926 1.378 . S
C919 C918 1.367 . S
C919 C927 1.433 . S
C920 H916 0.929 . S
C920 C922 1.378 1_556 S
C920 C924 1.350 . S
C921 C924 1.463 . S
C921 C926 1.350 . S
C921 N929 1.427 . S
C922 H913 0.930 . S
C922 C920 1.378 1_554 S
C922 C923 1.367 . S
C923 C922 1.367 . S
C923 C925 1.433 . S
C924 C920 1.350 . S
C924 C921 1.463 . S
C924 N928 1.427 . S
C925 H915 0.929 . S
C925 C923 1.433 . S
C925 N928 1.384 1_554 S
C926 H917 0.929 . S
C926 C918 1.378 . S
C926 C921 1.350 . S
C927 H914 0.929 . S
C927 C919 1.433 . S
C927 N929 1.384 . S
N928 C924 1.427 . S
N928 C925 1.384 1_556 S
N929 C921 1.427 . S
N929 C927 1.384 . S
H930 C936 0.930 . S
H931 C940 0.930 . S
H932 C945 0.929 . S
H933 C943 0.929 . S
H934 C938 0.929 . S
H935 C944 0.929 . S
C936 H930 0.930 . S
C936 C937 1.367 . S
C936 C944 1.378 . S
C937 C936 1.367 . S
C937 C945 1.433 . S
C938 H934 0.929 . S
C938 C940 1.378 1_554 S
C938 C942 1.350 . S
C939 C942 1.463 . S
C939 C944 1.350 . S
C939 N947 1.427 . S
C940 H931 0.930 . S
C940 C938 1.378 1_556 S
C940 C941 1.367 . S
C941 C940 1.367 . S
C941 C943 1.433 . S
C942 C938 1.350 . S
C942 C939 1.463 . S
C942 N946 1.427 1_554 S
C943 H933 0.929 . S
C943 C941 1.433 . S
C943 N946 1.384 . S
C944 H935 0.929 . S
C944 C936 1.378 . S
C944 C939 1.350 . S
C945 H932 0.929 . S
C945 C937 1.433 . S
C945 N947 1.384 . S
N946 C942 1.427 1_556 S
N946 C943 1.384 . S
N947 C939 1.427 . S
N947 C945 1.384 . S
C415 C305 1.535 . S
C419 C33 1.537 . S
C433 C339 1.532 . S
C437 C67 1.534 . S
C451 C373 1.537 . S
C455 C101 1.537 . S
C469 C407 1.536 . S
C473 C135 1.537 . S
C487 C169 1.537 . S
C491 C237 1.537 . S
C505 C271 1.535 . S
C509 C203 1.537 . S
C523 C2 1.722 1_556 S
C527 C376 1.720 . S
C541 C206 1.710 . S
C545 C36 1.713 . S
C559 C70 1.712 . S
C563 C240 1.710 1_554 S
C577 C104 1.709 . S
C581 C274 1.710 . S
C595 C308 1.719 . S
C599 C138 1.722 . S
C613 C172 1.716 . S
C617 C342 1.718 . S
C631 C20 1.596 . S
C635 C360 1.597 . S
C649 C54 1.597 . S
C653 C394 1.596 . S
C667 C224 1.600 . S
C671 C88 1.599 . S
C685 C258 1.599 . S
C689 C122 1.597 . S
C703 C156 1.600 . S
C707 C292 1.598 . S
C721 C326 1.599 . S
C725 C190 1.598 . S
C739 C9 0.881 . S
C743 C5 0.928 . S
C757 C39 0.905 1_556 S
C761 C43 0.847 . S
C775 C77 0.840 . S
C779 C73 0.907 . S
C793 C111 0.875 . S
C797 C107 0.932 . S
C811 C141 0.931 . S
C815 C145 0.873 . S
C829 C175 0.921 . S
C833 C179 0.855 . S
C847 C209 0.903 1_554 S
C851 C213 0.843 . S
C865 C243 0.904 . S
C869 C247 0.840 . S
C883 C277 0.905 . S
C887 C281 0.840 . S
C901 C311 0.924 . S
C905 C315 0.878 . S
C919 C345 0.904 . S
C923 C349 0.840 . S
C937 C383 0.863 . S
C941 C379 0.925 . S
