# Generated by pormake.
# Topology uoq, (4)-cn, num edge types: 1
# Building blocks:
#     Node 0, Type 0, BuildingBlock: ICAMEG_clean_sbu_1, # of connection points: 4
#     Node 1, Type 0, BuildingBlock: ICAMEG_clean_sbu_1, # of connection points: 4
#     Node 2, Type 0, BuildingBlock: ICAMEG_clean_sbu_1, # of connection points: 4
#     Node 3, Type 0, BuildingBlock: ICAMEG_clean_sbu_1, # of connection points: 4
#     Node 4, Type 0, BuildingBlock: ICAMEG_clean_sbu_1, # of connection points: 4
#     Node 5, Type 0, BuildingBlock: ICAMEG_clean_sbu_1, # of connection points: 4
#     Node 6, Type 0, BuildingBlock: ICAMEG_clean_sbu_1, # of connection points: 4
#     Node 7, Type 0, BuildingBlock: ICAMEG_clean_sbu_1, # of connection points: 4
#     Node 8, Type 0, BuildingBlock: ICAMEG_clean_sbu_1, # of connection points: 4
#     Node 9, Type 0, BuildingBlock: ICAMEG_clean_sbu_1, # of connection points: 4
#     Node 10, Type 0, BuildingBlock: ICAMEG_clean_sbu_1, # of connection points: 4
#     Node 11, Type 0, BuildingBlock: ICAMEG_clean_sbu_1, # of connection points: 4
#     Edge 12, Type (0, 0), BuildingBlock: EZIPEK_clean_linker_0, # of connection points: 2
#     Edge 13, Type (0, 0), BuildingBlock: EZIPEK_clean_linker_0, # of connection points: 2
#     Edge 14, Type (0, 0), BuildingBlock: EZIPEK_clean_linker_0, # of connection points: 2
#     Edge 15, Type (0, 0), BuildingBlock: EZIPEK_clean_linker_0, # of connection points: 2
#     Edge 16, Type (0, 0), BuildingBlock: EZIPEK_clean_linker_0, # of connection points: 2
#     Edge 17, Type (0, 0), BuildingBlock: EZIPEK_clean_linker_0, # of connection points: 2
#     Edge 18, Type (0, 0), BuildingBlock: EZIPEK_clean_linker_0, # of connection points: 2
#     Edge 19, Type (0, 0), BuildingBlock: EZIPEK_clean_linker_0, # of connection points: 2
#     Edge 20, Type (0, 0), BuildingBlock: EZIPEK_clean_linker_0, # of connection points: 2
#     Edge 21, Type (0, 0), BuildingBlock: EZIPEK_clean_linker_0, # of connection points: 2
#     Edge 22, Type (0, 0), BuildingBlock: EZIPEK_clean_linker_0, # of connection points: 2
#     Edge 23, Type (0, 0), BuildingBlock: EZIPEK_clean_linker_0, # of connection points: 2
#     Edge 24, Type (0, 0), BuildingBlock: EZIPEK_clean_linker_0, # of connection points: 2
#     Edge 25, Type (0, 0), BuildingBlock: EZIPEK_clean_linker_0, # of connection points: 2
#     Edge 26, Type (0, 0), BuildingBlock: EZIPEK_clean_linker_0, # of connection points: 2
#     Edge 27, Type (0, 0), BuildingBlock: EZIPEK_clean_linker_0, # of connection points: 2
#     Edge 28, Type (0, 0), BuildingBlock: EZIPEK_clean_linker_0, # of connection points: 2
#     Edge 29, Type (0, 0), BuildingBlock: EZIPEK_clean_linker_0, # of connection points: 2
#     Edge 30, Type (0, 0), BuildingBlock: EZIPEK_clean_linker_0, # of connection points: 2
#     Edge 31, Type (0, 0), BuildingBlock: EZIPEK_clean_linker_0, # of connection points: 2
#     Edge 32, Type (0, 0), BuildingBlock: EZIPEK_clean_linker_0, # of connection points: 2
#     Edge 33, Type (0, 0), BuildingBlock: EZIPEK_clean_linker_0, # of connection points: 2
#     Edge 34, Type (0, 0), BuildingBlock: EZIPEK_clean_linker_0, # of connection points: 2
#     Edge 35, Type (0, 0), BuildingBlock: EZIPEK_clean_linker_0, # of connection points: 2
# Relax obj value: 0.259
# Max RMSD: 0.232
# Mean RMSD: 0.232
data_MOF--net-uoq--node1-ICAMEG_clean_sbu_1--edge1-EZIPEK_clean_linker_0
_symmetry_space_group_name_H-M    P1
_symmetry_Int_Tables_number       1
_symmetry_cell_setting            triclinic
loop_
_symmetry_equiv_pos_as_xyz
'x, y, z'
_cell_length_a     45.353752
_cell_length_b     45.302871
_cell_length_c     18.506302
_cell_angle_alpha  89.844591
_cell_angle_beta   89.905762
_cell_angle_gamma 119.99203
loop_
_atom_site_label
_atom_site_type_symbol
_atom_site_fract_x
_atom_site_fract_y
_atom_site_fract_z
_atom_type_partial_charge
Co0 Co 0.31396 0.444 0.37819 0.0
Co1 Co 0.3272 0.45638 0.1937 0.0
O2 O 0.29846 0.44863 0.28075 0.0
C3 C 0.27485 0.48114 0.40466 0.0
O4 O 0.26734 0.48078 0.3363 0.0
C5 C 0.25184 0.42314 0.136 0.0
O6 O 0.2398 0.42224 0.20102 0.0
O7 O 0.32935 0.41306 0.2181 0.0
O8 O 0.33772 0.42083 0.33768 0.0
H9 H 0.43809 0.48956 0.06117 0.0
H10 H 0.24037 0.41594 0.34686 0.0
O11 O 0.29165 0.46723 0.42635 0.0
H12 H 0.24854 0.31988 0.44944 0.0
H13 H 0.30578 0.41917 0.64642 0.0
H14 H 0.38089 0.45771 0.43265 0.0
H15 H 0.29999 0.37605 0.43319 0.0
H16 H 0.28361 0.42212 0.52701 0.0
O17 O 0.28333 0.43058 0.12906 0.0
H18 H 0.40302 0.48257 0.16522 0.0
H19 H 0.3156 0.44473 0.02913 0.0
H20 H 0.4041 0.45433 0.55059 0.0
H21 H 0.18839 0.36023 0.36149 0.0
H22 H 0.36649 0.43511 0.65877 0.0
H23 H 0.19218 0.31166 0.41357 0.0
O24 O 0.35468 0.4894 0.36623 0.0
H25 H 0.27888 0.53595 0.18448 0.0
H26 H 0.38057 0.52576 0.14396 0.0
H27 H 0.3835 0.58029 0.121 0.0
H28 H 0.33244 0.58596 0.14114 0.0
H29 H 0.27693 0.48183 0.20559 0.0
H30 H 0.35061 0.45238 0.92503 0.0
H31 H 0.41253 0.47483 0.93904 0.0
O32 O 0.37005 0.48478 0.25377 0.0
C33 C 0.33792 0.406 0.27974 0.0
C34 C 0.41106 0.47968 0.05424 0.0
C35 C 0.36211 0.45895 0.97807 0.0
N36 N 0.35598 0.46293 0.10707 0.0
C37 C 0.39037 0.47523 0.11403 0.0
C38 C 0.34212 0.45475 0.03902 0.0
C39 C 0.39679 0.47148 0.98583 0.0
C40 C 0.24237 0.3951 0.3695 0.0
N41 N 0.27325 0.39959 0.39006 0.0
C42 C 0.21277 0.36351 0.37766 0.0
C43 C 0.21491 0.33627 0.40684 0.0
C44 C 0.24651 0.34088 0.42703 0.0
C45 C 0.27558 0.3728 0.41772 0.0
C46 C 0.3225 0.42783 0.59982 0.0
C47 C 0.3643 0.4493 0.47928 0.0
C48 C 0.31009 0.42994 0.53212 0.0
N49 N 0.33087 0.44056 0.47279 0.0
C50 C 0.37763 0.44746 0.54604 0.0
C51 C 0.35653 0.43669 0.60669 0.0
C52 C 0.37584 0.50039 0.31436 0.0
C53 C 0.30119 0.53372 0.17434 0.0
C54 C 0.35773 0.52712 0.1508 0.0
C55 C 0.35977 0.55853 0.13855 0.0
C56 C 0.33121 0.56176 0.15013 0.0
N57 N 0.32796 0.49927 0.17314 0.0
C58 C 0.30016 0.50275 0.18607 0.0
Co59 Co 0.86214 0.30711 0.71 0.0
Co60 Co 0.87261 0.32618 0.52525 0.0
O61 O 0.84814 0.29735 0.6085 0.0
C62 C 0.7945 0.30246 0.72257 0.0
O63 O 0.80301 0.3266 0.67424 0.0
C64 C 0.83685 0.25154 0.46604 0.0
O65 O 0.82866 0.23823 0.53107 0.0
O66 O 0.91811 0.33111 0.56266 0.0
O67 O 0.91038 0.32399 0.68353 0.0
H68 H 0.96832 0.42807 0.39806 0.0
H69 H 0.80442 0.2385 0.67481 0.0
O70 O 0.81418 0.29108 0.73862 0.0
H71 H 0.89162 0.21811 0.78494 0.0
H72 H 0.84138 0.28496 0.97758 0.0
H73 H 0.92546 0.3557 0.79264 0.0
H74 H 0.90247 0.27669 0.76732 0.0
H75 H 0.82758 0.27372 0.849 0.0
O76 O 0.85918 0.28362 0.45988 0.0
H77 H 0.93662 0.39331 0.50255 0.0
H78 H 0.86081 0.32014 0.36487 0.0
H79 H 0.94029 0.36737 0.92048 0.0
H80 H 0.79231 0.1795 0.69262 0.0
H81 H 0.89808 0.33206 0.01453 0.0
H82 H 0.83609 0.16901 0.74805 0.0
O83 O 0.87063 0.3549 0.70109 0.0
H84 H 0.7454 0.27041 0.49035 0.0
H85 H 0.85561 0.37542 0.45458 0.0
H86 H 0.80334 0.37291 0.41058 0.0
H87 H 0.74762 0.32006 0.42789 0.0
H88 H 0.79815 0.27401 0.53342 0.0
H89 H 0.89199 0.3538 0.25862 0.0
H90 H 0.94614 0.40836 0.27444 0.0
O91 O 0.88278 0.36855 0.58296 0.0
C92 C 0.92943 0.33252 0.62795 0.0
C93 C 0.94484 0.40424 0.39036 0.0
C94 C 0.9021 0.36256 0.31217 0.0
N95 N 0.89709 0.35422 0.44122 0.0
C96 C 0.92674 0.38433 0.44988 0.0
C97 C 0.88473 0.34336 0.37299 0.0
C98 C 0.93241 0.39318 0.32105 0.0
C99 C 0.82361 0.23416 0.69904 0.0
N100 N 0.85415 0.26104 0.71985 0.0
C101 C 0.81661 0.20069 0.70885 0.0
C102 C 0.8412 0.19482 0.73989 0.0
C103 C 0.87238 0.22236 0.76054 0.0
C104 C 0.87845 0.25549 0.75005 0.0
C105 C 0.85981 0.30091 0.93716 0.0
C106 C 0.90644 0.34068 0.83226 0.0
C107 C 0.85198 0.29503 0.86378 0.0
N108 N 0.87483 0.31537 0.81201 0.0
C109 C 0.91524 0.34717 0.90513 0.0
C110 C 0.89161 0.3273 0.95786 0.0
C111 C 0.87961 0.37615 0.64854 0.0
C112 C 0.76957 0.29338 0.48115 0.0
C113 C 0.83173 0.35189 0.46065 0.0
C114 C 0.80207 0.35082 0.43631 0.0
C115 C 0.77082 0.32124 0.44628 0.0
N116 N 0.83055 0.32411 0.49307 0.0
C117 C 0.79977 0.29541 0.50477 0.0
Co118 Co 0.58569 0.8889 0.02951 0.0
Co119 Co 0.56081 0.88218 0.84844 0.0
O120 O 0.57482 0.86545 0.93422 0.0
C121 C 0.54505 0.81418 0.06927 0.0
O122 O 0.53963 0.80456 1.00177 0.0
C123 C 0.59592 0.8429 0.78184 0.0
O124 O 0.60326 0.83555 0.84554 0.0
O125 O 0.60292 0.93049 0.86081 0.0
O126 O 0.60782 0.93388 0.98177 0.0
H127 H 0.5151 0.95103 0.72279 0.0
H128 H 0.60718 0.8383 0.99685 0.0
O129 O 0.56348 0.8454 0.08557 0.0
H130 H 0.7128 0.94381 0.0591 0.0
H131 H 0.62687 0.91264 0.28779 0.0
H132 H 0.57952 0.94668 0.08568 0.0
H133 H 0.65761 0.94206 0.0607 0.0
H134 H 0.61469 0.88289 0.1711 0.0
O135 O 0.58531 0.86471 0.77741 0.0
H136 H 0.53029 0.92825 0.82528 0.0
H137 H 0.5594 0.87324 0.6827 0.0
H138 H 0.59198 0.9777 0.20081 0.0
H139 H 0.66173 0.8388 0.99495 0.0
H140 H 0.61574 0.96068 0.30313 0.0
H141 H 0.71511 0.89187 0.02629 0.0
O142 O 0.5412 0.88695 0.03043 0.0
H143 H 0.49035 0.75351 0.86364 0.0
H144 H 0.48802 0.85899 0.81332 0.0
H145 H 0.43536 0.80408 0.80436 0.0
H146 H 0.436 0.7506 0.82998 0.0
H147 H 0.54266 0.80885 0.86946 0.0
H148 H 0.54376 0.89535 0.58027 0.0
H149 H 0.52148 0.93483 0.59838 0.0
O150 O 0.53315 0.89534 0.91424 0.0
C151 C 0.61542 0.94767 0.9199 0.0
C152 C 0.52521 0.93415 0.71402 0.0
C153 C 0.54117 0.90292 0.63429 0.0
N154 N 0.54732 0.89961 0.76342 0.0
C155 C 0.53453 0.92117 0.77272 0.0
C156 C 0.55029 0.89042 0.69421 0.0
C157 C 0.52868 0.92502 0.64435 0.0
C158 C 0.63019 0.86142 1.01082 0.0
N159 N 0.62907 0.89 0.0293 0.0
C160 C 0.66106 0.86158 1.00954 0.0
C161 C 0.691 0.89136 0.02707 0.0
C162 C 0.68972 0.9205 0.04549 0.0
C163 C 0.65838 0.91937 0.04613 0.0
C164 C 0.61635 0.92021 0.24377 0.0
C165 C 0.58985 0.93906 0.12978 0.0
C166 C 0.60909 0.90316 0.17772 0.0
N167 N 0.59602 0.91264 0.12162 0.0
C168 C 0.59685 0.95675 0.19496 0.0
C169 C 0.61016 0.94718 0.25232 0.0
C170 C 0.52487 0.89218 0.98122 0.0
C171 C 0.48974 0.77659 0.85164 0.0
C172 C 0.48925 0.83614 0.82219 0.0
C173 C 0.45897 0.80492 0.81797 0.0
C174 C 0.45929 0.77496 0.83269 0.0
N175 N 0.51937 0.83771 0.83949 0.0
C176 C 0.51953 0.80828 0.85505 0.0
Co177 Co 0.69868 0.56131 0.37602 0.0
Co178 Co 0.68812 0.54958 0.19174 0.0
O179 O 0.7155 0.55828 0.27985 0.0
C180 C 0.72111 0.51096 0.40619 0.0
O181 O 0.70438 0.49231 0.35075 0.0
C182 C 0.76469 0.5881 0.13991 0.0
O183 O 0.77615 0.59586 0.20618 0.0
O184 O 0.6833 0.59176 0.21497 0.0
O185 O 0.67515 0.58475 0.33559 0.0
H186 H 0.58351 0.52561 0.04921 0.0
H187 H 0.77218 0.58889 0.35006 0.0
O188 O 0.72223 0.53895 0.41984 0.0
H189 H 0.76331 0.6843 0.45304 0.0
H190 H 0.7064 0.57828 0.64591 0.0
H191 H 0.63259 0.55017 0.43193 0.0
H192 H 0.71186 0.62852 0.43292 0.0
H193 H 0.72815 0.57624 0.52492 0.0
O194 O 0.73251 0.57631 0.12829 0.0
H195 H 0.61691 0.53402 0.15877 0.0
H196 H 0.69923 0.54236 0.0333 0.0
H197 H 0.61002 0.55247 0.55177 0.0
H198 H 0.82441 0.64415 0.36926 0.0
H199 H 0.64701 0.56656 0.65986 0.0
H200 H 0.82013 0.6924 0.4212 0.0
O201 O 0.65765 0.51602 0.36293 0.0
H202 H 0.74409 0.47742 0.19034 0.0
H203 H 0.63861 0.47951 0.13918 0.0
H204 H 0.64071 0.42718 0.1163 0.0
H205 H 0.69384 0.42588 0.14118 0.0
H206 H 0.74039 0.52885 0.21368 0.0
H207 H 0.66665 0.53404 0.92259 0.0
H208 H 0.60833 0.52574 0.92947 0.0
O209 O 0.6441 0.51967 0.24821 0.0
C210 C 0.67469 0.59906 0.27665 0.0
C211 C 0.60927 0.53015 0.04522 0.0
C212 C 0.65589 0.53489 0.97426 0.0
N213 N 0.66134 0.5416 0.10349 0.0
C214 C 0.6287 0.53564 0.10747 0.0
C215 C 0.67456 0.54031 0.03768 0.0
C216 C 0.62313 0.53009 0.97814 0.0
C217 C 0.7702 0.60974 0.37253 0.0
N218 N 0.73907 0.60548 0.39008 0.0
C219 C 0.79982 0.64099 0.38331 0.0
C220 C 0.7974 0.66803 0.41247 0.0
C221 C 0.76554 0.66351 0.43036 0.0
C222 C 0.73648 0.63188 0.41865 0.0
C223 C 0.69006 0.57217 0.59921 0.0
C224 C 0.64896 0.5566 0.47859 0.0
C225 C 0.70219 0.57086 0.53056 0.0
N226 N 0.68176 0.56338 0.47125 0.0
C227 C 0.63598 0.55773 0.54637 0.0
C228 C 0.65674 0.56561 0.60699 0.0
C229 C 0.63696 0.50511 0.31044 0.0
C230 C 0.72102 0.47786 0.17761 0.0
C231 C 0.66215 0.47962 0.14872 0.0
C232 C 0.66304 0.44968 0.13621 0.0
C233 C 0.6928 0.44893 0.15035 0.0
N234 N 0.69026 0.50829 0.17364 0.0
C235 C 0.7191 0.50728 0.18952 0.0
Co236 Co 0.15531 0.70919 0.73896 0.0
Co237 Co 0.15541 0.69255 0.55383 0.0
O238 O 0.1758 0.72057 0.64094 0.0
C239 C 0.20513 0.6999 0.82442 0.0
O240 O 0.18208 0.66759 0.83106 0.0
C241 C 0.19196 0.7677 0.48955 0.0
O242 O 0.20566 0.78031 0.55251 0.0
O243 O 0.10831 0.68721 0.57945 0.0
O244 O 0.1103 0.69755 0.69924 0.0
H245 H 0.07002 0.58729 0.42063 0.0
H246 H 0.21827 0.77506 0.71383 0.0
O247 O 0.20013 0.7198 0.78325 0.0
H248 H 0.13391 0.8052 0.80088 0.0
H249 H 0.14932 0.72982 1.00498 0.0
H250 H 0.09089 0.65334 0.80013 0.0
H251 H 0.11845 0.74499 0.78724 0.0
H252 H 0.17595 0.74234 0.88416 0.0
O253 O 0.1701 0.73533 0.48645 0.0
H254 H 0.096 0.62308 0.52745 0.0
H255 H 0.1749 0.69856 0.39769 0.0
H256 H 0.06352 0.63973 0.92016 0.0
H257 H 0.23518 0.83563 0.72831 0.0
H258 H 0.09271 0.67817 0.02361 0.0
H259 H 0.19278 0.85102 0.77189 0.0
O260 O 0.14302 0.66061 0.72933 0.0
H261 H 0.28396 0.74757 0.54758 0.0
H262 H 0.1752 0.64232 0.5042 0.0
H263 H 0.22885 0.64295 0.48196 0.0
H264 H 0.2839 0.69594 0.50283 0.0
H265 H 0.23 0.7457 0.57035 0.0
H266 H 0.14964 0.66392 0.28906 0.0
H267 H 0.09666 0.60776 0.29991 0.0
O268 O 0.14262 0.65002 0.61119 0.0
C269 C 0.0941 0.6882 0.63993 0.0
C270 C 0.09259 0.6121 0.41478 0.0
C271 C 0.1372 0.6551 0.34096 0.0
N272 N 0.13544 0.66428 0.46848 0.0
C273 C 0.10716 0.63277 0.47515 0.0
C274 C 0.151 0.67503 0.4026 0.0
C275 C 0.10759 0.62355 0.34714 0.0
C276 C 0.1997 0.78159 0.73281 0.0
N277 N 0.16728 0.75654 0.74891 0.0
C278 C 0.20941 0.81591 0.74082 0.0
C279 C 0.18561 0.82453 0.76524 0.0
C280 C 0.15256 0.79884 0.7814 0.0
C281 C 0.14381 0.7648 0.77285 0.0
C282 C 0.13631 0.71291 0.96031 0.0
C283 C 0.10385 0.67016 0.84487 0.0
C284 C 0.15127 0.71985 0.89175 0.0
N285 N 0.13495 0.69868 0.83495 0.0
C286 C 0.08819 0.66232 0.91274 0.0
C287 C 0.10457 0.68391 0.97074 0.0
C288 C 0.13911 0.64086 0.67721 0.0
C289 C 0.26016 0.72458 0.53629 0.0
C290 C 0.19885 0.66589 0.51172 0.0
C291 C 0.22927 0.66591 0.49968 0.0
C292 C 0.26012 0.69558 0.51157 0.0
N293 N 0.1989 0.69479 0.53364 0.0
C294 C 0.22922 0.72358 0.54777 0.0
Co295 Co 0.44747 0.13358 0.04239 0.0
Co296 Co 0.46164 0.13839 0.8565 0.0
O297 O 0.45168 0.15548 0.94692 0.0
C298 C 0.48725 0.2091 0.0728 0.0
O299 O 0.48679 0.2169 1.00481 0.0
C300 C 0.41974 0.17318 0.80485 0.0
O301 O 0.40967 0.17462 0.87061 0.0
O302 O 0.42007 0.09031 0.87623 0.0
O303 O 0.42244 0.08787 0.99767 0.0
H304 H 0.48929 0.06184 0.70796 0.0
H305 H 0.42186 0.18182 0.01767 0.0
O306 O 0.47258 0.17816 0.09352 0.0
H307 H 0.3252 0.07939 0.12456 0.0
H308 H 0.42588 0.11232 0.31119 0.0
H309 H 0.45869 0.07747 0.087 0.0
H310 H 0.37966 0.08135 0.10116 0.0
H311 H 0.42827 0.14028 0.19545 0.0
O312 O 0.43472 0.15564 0.79384 0.0
H313 H 0.47781 0.08347 0.81927 0.0
H314 H 0.472 0.16075 0.70054 0.0
H315 H 0.45613 0.04838 0.20107 0.0
H316 H 0.36798 0.18095 0.03984 0.0
H317 H 0.4396 0.06566 0.31456 0.0
H318 H 0.3191 0.12949 0.09405 0.0
O319 O 0.49196 0.13649 0.02786 0.0
H320 H 0.52964 0.26691 0.85052 0.0
H321 H 0.53358 0.16122 0.81492 0.0
H322 H 0.58573 0.21657 0.79822 0.0
H323 H 0.58406 0.27006 0.81566 0.0
H324 H 0.4784 0.21093 0.86807 0.0
H325 H 0.48324 0.13976 0.58808 0.0
H326 H 0.49188 0.08981 0.59072 0.0
O327 O 0.49166 0.12439 0.91082 0.0
C328 C 0.41084 0.07364 0.93718 0.0
C329 C 0.48468 0.08307 0.70574 0.0
C330 C 0.48127 0.12674 0.63854 0.0
N331 N 0.47145 0.12182 0.7671 0.0
C332 C 0.47755 0.09516 0.7689 0.0
C333 C 0.4742 0.13813 0.70282 0.0
C334 C 0.48625 0.09883 0.64006 0.0
C335 C 0.40087 0.15931 0.04107 0.0
N336 N 0.4042 0.13182 0.0586 0.0
C337 C 0.37031 0.15896 0.05355 0.0
C338 C 0.34291 0.1301 0.08394 0.0
C339 C 0.34633 0.10201 0.10108 0.0
C340 C 0.37725 0.10327 0.08761 0.0
C341 C 0.43328 0.10462 0.26227 0.0
C342 C 0.4515 0.08527 0.13595 0.0
C343 C 0.43507 0.12075 0.19662 0.0
N344 N 0.44406 0.11104 0.1344 0.0
C345 C 0.45006 0.06862 0.20054 0.0
C346 C 0.44088 0.0784 0.26412 0.0
C347 C 0.50484 0.12991 0.97381 0.0
C348 C 0.53067 0.24382 0.84195 0.0
C349 C 0.53237 0.18424 0.82232 0.0
C350 C 0.56213 0.21559 0.81283 0.0
C351 C 0.56119 0.24557 0.82263 0.0
N352 N 0.50237 0.18263 0.84094 0.0
C353 C 0.50148 0.21198 0.85106 0.0
Co354 Co 0.56141 0.68934 0.30542 0.0
Co355 Co 0.55318 0.67301 0.48685 0.0
O356 O 0.55991 0.70276 0.40489 0.0
C357 C 0.51262 0.71498 0.27976 0.0
O358 O 0.48792 0.69023 0.31658 0.0
C359 C 0.58754 0.74714 0.55049 0.0
O360 O 0.58644 0.75959 0.48719 0.0
O361 O 0.59534 0.67021 0.45255 0.0
O362 O 0.58192 0.66117 0.3346 0.0
H363 H 0.54573 0.56915 0.60419 0.0
H364 H 0.59331 0.76251 0.3432 0.0
O365 O 0.54178 0.71763 0.27388 0.0
H366 H 0.68518 0.74955 0.23321 0.0
H367 H 0.57696 0.71193 0.03752 0.0
H368 H 0.54939 0.62634 0.22883 0.0
H369 H 0.62728 0.70018 0.24523 0.0
H370 H 0.57639 0.72673 0.16514 0.0
O371 O 0.58071 0.71564 0.55503 0.0
H372 H 0.55023 0.60662 0.50332 0.0
H373 H 0.54641 0.67653 0.649 0.0
H374 H 0.54992 0.61038 0.10218 0.0
H375 H 0.6507 0.81276 0.33129 0.0
H376 H 0.56372 0.65339 1.00514 0.0
H377 H 0.69719 0.80642 0.2761 0.0
O378 O 0.51509 0.64892 0.31768 0.0
H379 H 0.47363 0.72119 0.49663 0.0
H380 H 0.48705 0.6227 0.55678 0.0
H381 H 0.43471 0.62217 0.5918 0.0
H382 H 0.42755 0.67166 0.56206 0.0
H383 H 0.52603 0.72156 0.46514 0.0
H384 H 0.54222 0.64028 0.75158 0.0
H385 H 0.54166 0.58593 0.72986 0.0
O386 O 0.52186 0.6305 0.42622 0.0
C387 C 0.59915 0.6608 0.38851 0.0
C388 C 0.54588 0.59274 0.61448 0.0
C389 C 0.544 0.63266 0.6971 0.0
N390 N 0.54857 0.64383 0.56914 0.0
C391 C 0.54839 0.61403 0.55721 0.0
C392 C 0.54662 0.65331 0.63839 0.0
C393 C 0.54365 0.60217 0.68491 0.0
C394 C 0.61331 0.75963 0.31876 0.0
N395 N 0.60685 0.72848 0.29488 0.0
C396 C 0.6458 0.78814 0.3123 0.0
C397 C 0.67187 0.78456 0.28136 0.0
C398 C 0.66515 0.75267 0.25727 0.0
C399 C 0.6323 0.72477 0.26445 0.0
C400 C 0.57068 0.69288 0.07922 0.0
C401 C 0.55512 0.64501 0.18738 0.0
C402 C 0.57007 0.70102 0.15174 0.0
N403 N 0.56223 0.67714 0.20492 0.0
C404 C 0.55552 0.63593 0.11548 0.0
C405 C 0.56329 0.66006 0.0611 0.0
C406 C 0.50485 0.62631 0.36747 0.0
C407 C 0.47678 0.69983 0.51165 0.0
C408 C 0.4853 0.64523 0.54658 0.0
C409 C 0.45505 0.64441 0.56541 0.0
C410 C 0.45094 0.67205 0.54828 0.0
N411 N 0.51152 0.67336 0.514 0.0
C412 C 0.5068 0.6999 0.49421 0.0
Co413 Co 0.89167 0.57012 0.64834 0.0
Co414 Co 0.89509 0.55548 0.82785 0.0
O415 O 0.87191 0.56342 0.7462 0.0
C416 C 0.81553 0.53498 0.62186 0.0
O417 O 0.80742 0.53201 0.69053 0.0
C418 C 0.85164 0.58514 0.89666 0.0
O419 O 0.8404 0.58679 0.83234 0.0
O420 O 0.93906 0.60073 0.80323 0.0
O421 O 0.93828 0.59018 0.68572 0.0
H422 H 0.99671 0.55745 0.94088 0.0
H423 H 0.84807 0.59931 0.68812 0.0
O424 O 0.84639 0.54974 0.6014 0.0
H425 H 0.95577 0.69687 0.60221 0.0
H426 H 0.90758 0.60321 0.38423 0.0
H427 H 0.94351 0.55621 0.5837 0.0
H428 H 0.94781 0.63899 0.6027 0.0
H429 H 0.88326 0.59686 0.50605 0.0
O430 O 0.876 0.57784 0.90148 0.0
H431 H 0.96374 0.56386 0.84295 0.0
H432 H 0.88045 0.53538 0.9852 0.0
H433 H 0.96961 0.56331 0.46359 0.0
H434 H 0.85486 0.65675 0.68826 0.0
H435 H 0.95141 0.58663 0.36239 0.0
H436 H 0.90903 0.70608 0.64485 0.0
O437 O 0.88577 0.52403 0.65537 0.0
H438 H 0.76877 0.46997 0.83746 0.0
H439 H 0.88402 0.48723 0.8704 0.0
H440 H 0.8345 0.43023 0.88865 0.0
H441 H 0.77621 0.42115 0.87248 0.0
H442 H 0.81883 0.52644 0.82055 0.0
H443 H 0.91245 0.52906 0.08508 0.0
H444 H 0.97108 0.53987 0.06326 0.0
O445 O 0.9104 0.52892 0.76175 0.0
C446 C 0.95429 0.60616 0.74135 0.0
C447 C 0.9711 0.55244 0.95108 0.0
C448 C 0.92388 0.5366 0.03195 0.0
N449 N 0.91976 0.5495 0.90755 0.0
C450 C 0.95219 0.5559 0.89559 0.0
C451 C 0.90578 0.54035 0.97506 0.0
C452 C 0.95675 0.54265 0.0197 0.0
C453 C 0.87159 0.62052 0.66876 0.0
N454 N 0.89718 0.61553 0.64427 0.0
C455 C 0.87534 0.65305 0.66906 0.0
C456 C 0.90574 0.68071 0.64478 0.0
C457 C 0.93194 0.67556 0.62076 0.0
C458 C 0.92724 0.64266 0.62112 0.0
C459 C 0.91555 0.59276 0.42769 0.0
C460 C 0.93568 0.56674 0.54041 0.0
C461 C 0.90145 0.58868 0.49666 0.0
N462 N 0.91137 0.57566 0.55207 0.0
C463 C 0.95045 0.57052 0.47226 0.0
C464 C 0.94021 0.58356 0.41552 0.0
C465 C 0.89942 0.51346 0.7008 0.0
C466 C 0.79401 0.47365 0.84572 0.0
C467 C 0.85888 0.48399 0.86482 0.0
C468 C 0.83085 0.45139 0.87461 0.0
C469 C 0.79819 0.44628 0.86527 0.0
N470 N 0.85473 0.5111 0.84725 0.0
C471 C 0.82268 0.50587 0.83627 0.0
Co472 Co 0.33047 0.8661 0.98875 0.0
Co473 Co 0.34625 0.88614 0.16797 0.0
O474 O 0.31728 0.85584 0.0908 0.0
C475 C 0.30972 0.79231 0.9947 0.0
O476 O 0.32807 0.79665 0.05239 0.0
C477 C 0.27171 0.84889 0.23039 0.0
O478 O 0.25835 0.84165 0.1655 0.0
O479 O 0.34404 0.9263 0.11962 0.0
O480 O 0.35275 0.91604 1.00515 0.0
H481 H 0.44059 0.99638 0.26633 0.0
H482 H 0.25807 0.81789 0.02343 0.0
O483 O 0.30799 0.81685 0.96623 0.0
H484 H 0.25743 0.91035 0.88347 0.0
H485 H 0.31223 0.84775 0.72034 0.0
H486 H 0.39426 0.91383 0.9115 0.0
H487 H 0.31149 0.91219 0.91082 0.0
H488 H 0.29536 0.83697 0.84855 0.0
O489 O 0.30396 0.87041 0.23617 0.0
H490 H 0.40451 0.95691 0.17112 0.0
H491 H 0.34732 0.8815 0.32944 0.0
H492 H 0.41213 0.92577 0.78393 0.0
H493 H 0.20336 0.81472 0.99599 0.0
H494 H 0.37096 0.89256 0.68721 0.0
H495 H 0.20283 0.86121 0.92558 0.0
O496 O 0.37407 0.86708 1.01048 0.0
H497 H 0.30452 0.76408 0.2402 0.0
H498 H 0.4038 0.88018 0.23016 0.0
H499 H 0.41035 0.83346 0.28058 0.0
H500 H 0.36043 0.77489 0.28637 0.0
H501 H 0.29934 0.81142 0.1892 0.0
H502 H 0.38208 0.92055 0.42621 0.0
H503 H 0.42932 0.97841 0.39489 0.0
O504 O 0.38969 0.89918 0.11029 0.0
C505 C 0.35295 0.93619 0.05318 0.0
C506 C 0.42011 0.97125 0.28054 0.0
C507 C 0.38728 0.9287 0.37032 0.0
N508 N 0.37412 0.91672 0.24433 0.0
C509 C 0.39976 0.94867 0.22682 0.0
C510 C 0.36756 0.90674 0.31517 0.0
C511 C 0.41377 0.96114 0.35272 0.0
C512 C 0.25805 0.8382 0.99264 0.0
N513 N 0.28797 0.86519 0.96885 0.0
C514 C 0.22699 0.83629 0.97739 0.0
C515 C 0.22671 0.86238 0.93792 0.0
C516 C 0.25734 0.88998 0.91433 0.0
C517 C 0.28791 0.89098 0.93041 0.0
C518 C 0.33036 0.86254 0.76193 0.0
C519 C 0.37609 0.89965 0.86983 0.0
C520 C 0.32096 0.85657 0.83472 0.0
N521 N 0.34365 0.87526 0.88764 0.0
C522 C 0.3864 0.90635 0.79762 0.0
C523 C 0.3633 0.88767 0.74339 0.0
C524 C 0.3965 0.88519 0.05742 0.0
C525 C 0.32636 0.78958 0.23906 0.0
C526 C 0.38179 0.8549 0.23318 0.0
C527 C 0.38573 0.82848 0.26158 0.0
C528 C 0.35774 0.79563 0.26472 0.0
N529 N 0.35075 0.84894 0.20923 0.0
C530 C 0.32341 0.81664 0.211 0.0
Co531 Co 0.45594 0.31638 0.31858 0.0
Co532 Co 0.45938 0.33636 0.49954 0.0
O533 O 0.45772 0.307 0.42099 0.0
C534 C 0.51448 0.31072 0.26493 0.0
O535 O 0.52739 0.34187 0.23958 0.0
C536 C 0.42224 0.26174 0.56162 0.0
O537 O 0.42658 0.25103 0.49895 0.0
O538 O 0.41734 0.33676 0.4571 0.0
O539 O 0.4264 0.33648 0.33722 0.0
H540 H 0.44967 0.43257 0.61118 0.0
H541 H 0.43871 0.24624 0.36058 0.0
O542 O 0.48625 0.29725 0.29949 0.0
H543 H 0.33576 0.23366 0.2424 0.0
H544 H 0.44885 0.28774 0.05414 0.0
H545 H 0.45944 0.37337 0.23165 0.0
H546 H 0.38694 0.29029 0.25455 0.0
H547 H 0.44945 0.27716 0.18469 0.0
O548 O 0.43061 0.2936 0.56669 0.0
H549 H 0.45054 0.39714 0.51175 0.0
H550 H 0.46902 0.33656 0.6591 0.0
H551 H 0.4588 0.38504 0.10167 0.0
H552 H 0.3882 0.18907 0.34906 0.0
H553 H 0.45354 0.34203 0.0118 0.0
H554 H 0.33621 0.18248 0.28951 0.0
O555 O 0.49658 0.36173 0.32927 0.0
H556 H 0.53876 0.29074 0.55478 0.0
H557 H 0.52435 0.39148 0.56003 0.0
H558 H 0.57738 0.39608 0.60527 0.0
H559 H 0.58484 0.34541 0.60357 0.0
H560 H 0.48659 0.28732 0.50936 0.0
H561 H 0.46782 0.37088 0.7608 0.0
H562 H 0.4583 0.41948 0.73718 0.0
O563 O 0.49097 0.37922 0.43969 0.0
C564 C 0.41125 0.34095 0.39043 0.0
C565 C 0.45395 0.41154 0.62223 0.0
C566 C 0.46402 0.37688 0.70617 0.0
N567 N 0.45988 0.36481 0.57893 0.0
C568 C 0.45458 0.39144 0.56577 0.0
C569 C 0.46443 0.35736 0.64829 0.0
C570 C 0.45873 0.40415 0.69289 0.0
C571 C 0.41625 0.2436 0.33456 0.0
N572 N 0.4158 0.27163 0.30867 0.0
C573 C 0.38767 0.21115 0.32826 0.0
C574 C 0.35851 0.20748 0.29492 0.0
C575 C 0.35823 0.23618 0.26853 0.0
C576 C 0.38726 0.26823 0.27593 0.0
C577 C 0.45124 0.30673 0.09271 0.0
C578 C 0.45727 0.35466 0.193 0.0
C579 C 0.45167 0.30093 0.16673 0.0
N580 N 0.45481 0.32483 0.21587 0.0
C581 C 0.45684 0.36134 0.1194 0.0
C582 C 0.45387 0.33719 0.06901 0.0
C583 C 0.50605 0.38436 0.37787 0.0
C584 C 0.5355 0.31281 0.55746 0.0
C585 C 0.52684 0.36897 0.56046 0.0
C586 C 0.55719 0.37188 0.58569 0.0
C587 C 0.5614 0.3435 0.58454 0.0
N588 N 0.5009 0.33845 0.53604 0.0
C589 C 0.50548 0.31085 0.53275 0.0
Co590 Co 0.1373 0.45589 0.66343 0.0
Co591 Co 0.12384 0.45747 0.84592 0.0
O592 O 0.1502 0.45576 0.76401 0.0
C593 C 0.20214 0.51133 0.60338 0.0
O594 O 0.18523 0.52615 0.58106 0.0
C595 C 0.15973 0.41753 0.8973 0.0
O596 O 0.16204 0.40848 0.83126 0.0
O597 O 0.08109 0.4151 0.80537 0.0
O598 O 0.08777 0.42823 0.68652 0.0
H599 H 0.02078 0.44867 0.97089 0.0
H600 H 0.18693 0.43323 0.69588 0.0
O601 O 0.18653 0.4836 0.63949 0.0
H602 H 0.09145 0.33586 0.57392 0.0
H603 H 0.15 0.44955 0.39419 0.0
H604 H 0.08576 0.46681 0.5886 0.0
H605 H 0.0901 0.38884 0.59514 0.0
H606 H 0.16404 0.44735 0.52202 0.0
O607 O 0.14032 0.43029 0.90968 0.0
H608 H 0.05481 0.44917 0.86702 0.0
H609 H 0.13585 0.46538 1.00537 0.0
H610 H 0.07068 0.46904 0.4615 0.0
H611 H 0.18964 0.38093 0.67463 0.0
H612 H 0.10297 0.46043 0.36322 0.0
H613 H 0.1416 0.33172 0.61332 0.0
O614 O 0.13648 0.49832 0.68106 0.0
H615 H 0.24897 0.53469 0.89422 0.0
H616 H 0.13509 0.52297 0.90907 0.0
H617 H 0.18488 0.57553 0.95264 0.0
H618 H 0.24236 0.58162 0.9459 0.0
H619 H 0.19849 0.48286 0.85067 0.0
H620 H 0.10262 0.46455 0.11126 0.0
H621 H 0.04468 0.45639 0.09456 0.0
O622 O 0.11109 0.48887 0.78987 0.0
C623 C 0.06949 0.41063 0.73969 0.0
C624 C 0.04607 0.45244 0.97893 0.0
C625 C 0.09192 0.46123 0.05766 0.0
N626 N 0.09744 0.45766 0.92909 0.0
C627 C 0.06552 0.4529 0.91986 0.0
C628 C 0.11057 0.46151 0.99725 0.0
C629 C 0.05945 0.45669 0.04827 0.0
C630 C 0.16608 0.41205 0.66868 0.0
N631 N 0.13844 0.41416 0.64688 0.0
C632 C 0.16767 0.38243 0.65706 0.0
C633 C 0.14069 0.35482 0.62275 0.0
C634 C 0.11255 0.35712 0.60069 0.0
C635 C 0.11185 0.38715 0.61324 0.0
C636 C 0.13572 0.45332 0.4365 0.0
C637 C 0.09983 0.46296 0.54618 0.0
C638 C 0.14355 0.45212 0.50899 0.0
N639 N 0.12569 0.45695 0.56278 0.0
C640 C 0.09121 0.46427 0.47429 0.0
C641 C 0.10934 0.45943 0.41917 0.0
C642 C 0.12309 0.50664 0.73149 0.0
C643 C 0.22401 0.53216 0.89859 0.0
C644 C 0.1599 0.52508 0.9069 0.0
C645 C 0.18805 0.55506 0.93136 0.0
C646 C 0.2203 0.55849 0.92741 0.0
N647 N 0.16358 0.49894 0.88022 0.0
C648 C 0.19524 0.50257 0.87472 0.0
Co649 Co 0.70487 0.15727 0.95945 0.0
Co650 Co 0.68419 0.13737 0.14134 0.0
O651 O 0.71323 0.16713 0.0632 0.0
C652 C 0.70539 0.22266 0.93051 0.0
O653 O 0.67398 0.21006 0.95315 0.0
C654 C 0.75819 0.17449 0.20531 0.0
O655 O 0.76915 0.19197 0.14508 0.0
O656 O 0.68394 0.09578 0.0944 0.0
O657 O 0.68756 0.10776 0.9754 0.0
H658 H 0.58725 0.02901 0.24465 0.0
H659 H 0.77308 0.21291 1.00396 0.0
O660 O 0.72176 0.2068 0.93949 0.0
H661 H 0.79422 0.12997 0.87569 0.0
H662 H 0.73388 0.18621 0.69639 0.0
H663 H 0.65301 0.10073 0.86812 0.0
H664 H 0.73572 0.11928 0.8918 0.0
H665 H 0.74288 0.19508 0.82728 0.0
O666 O 0.72671 0.14995 0.20736 0.0
H667 H 0.62287 0.06791 0.148 0.0
H668 H 0.68392 0.1423 0.30246 0.0
H669 H 0.64295 0.09079 0.73762 0.0
H670 H 0.83203 0.22457 0.98898 0.0
H671 H 0.68353 0.13381 0.65049 0.0
H672 H 0.8429 0.18307 0.92399 0.0
O673 O 0.65731 0.1482 0.97019 0.0
H674 H 0.72863 0.26113 0.20744 0.0
H675 H 0.62949 0.14509 0.21312 0.0
H676 H 0.62537 0.19185 0.26966 0.0
H677 H 0.67525 0.25045 0.26776 0.0
H678 H 0.73174 0.21396 0.15179 0.0
H679 H 0.64969 0.1039 0.40136 0.0
H680 H 0.60073 0.04679 0.37276 0.0
O681 O 0.64164 0.12725 0.08345 0.0
C682 C 0.68155 0.08694 0.02712 0.0
C683 C 0.60859 0.05376 0.25788 0.0
C684 C 0.64365 0.09572 0.34579 0.0
N685 N 0.65574 0.10731 0.21896 0.0
C686 C 0.62881 0.07598 0.20306 0.0
C687 C 0.66323 0.11723 0.28948 0.0
C688 C 0.61616 0.06374 0.32972 0.0
C689 C 0.77759 0.19462 0.97595 0.0
N690 N 0.75094 0.16537 0.94914 0.0
C691 C 0.81103 0.20141 0.96754 0.0
C692 C 0.81711 0.17806 0.93122 0.0
C693 C 0.7898 0.14824 0.90418 0.0
C694 C 0.7567 0.14225 0.91381 0.0
C695 C 0.71578 0.16743 0.73374 0.0
C696 C 0.67038 0.11982 0.831 0.0
C697 C 0.72057 0.17241 0.80818 0.0
N698 N 0.69775 0.14896 0.85598 0.0
C699 C 0.66476 0.11394 0.7569 0.0
C700 C 0.68756 0.13803 0.70805 0.0
C701 C 0.63521 0.13522 0.02077 0.0
C702 C 0.707 0.23554 0.21044 0.0
C703 C 0.65183 0.17017 0.21392 0.0
C704 C 0.64911 0.19672 0.24535 0.0
C705 C 0.67703 0.22958 0.24401 0.0
N706 N 0.68181 0.1758 0.1836 0.0
C707 C 0.70881 0.20834 0.17983 0.0
C708 C 0.33585 0.35073 0.31985 0.0
C709 C 0.35415 0.38396 0.28856 0.0
C710 C 0.40643 0.3902 0.34206 0.0
C711 C 0.38943 0.35632 0.36917 0.0
N712 N 0.33769 0.30208 0.37271 0.0
N713 N 0.40845 0.42767 0.24711 0.0
C714 C 0.35392 0.3358 0.35462 0.0
C715 C 0.38991 0.40124 0.29292 0.0
N716 N 0.30122 0.3335 0.31604 0.0
N717 N 0.43852 0.41256 0.36434 0.0
H718 H 0.39646 0.43384 0.20696 0.0
H719 H 0.43494 0.43987 0.2435 0.0
H720 H 0.45226 0.40532 0.3975 0.0
H721 H 0.45026 0.43862 0.3533 0.0
H722 H 0.2858 0.31071 0.34333 0.0
H723 H 0.28808 0.34309 0.28697 0.0
H724 H 0.31282 0.28481 0.35746 0.0
H725 H 0.35001 0.29117 0.40017 0.0
C726 C 0.98448 0.33437 0.67031 0.0
C727 C 0.96721 0.35176 0.64677 0.0
C728 C 0.01315 0.40431 0.70309 0.0
C729 C 0.03206 0.38809 0.72082 0.0
N730 N 0.03718 0.33792 0.71294 0.0
N731 N 0.96846 0.40528 0.63516 0.0
C732 C 0.01805 0.35309 0.70206 0.0
C733 C 0.98276 0.38726 0.66139 0.0
N734 N 0.96845 0.29977 0.66376 0.0
N735 N 0.02361 0.43618 0.72876 0.0
H736 H 0.94413 0.39346 0.61428 0.0
H737 H 0.98109 0.4318 0.63235 0.0
H738 H 0.04666 0.45041 0.75504 0.0
H739 H 1.00859 0.44762 0.72822 0.0
H740 H 0.97753 0.28486 0.68677 0.0
H741 H 0.94495 0.28586 0.63813 0.0
H742 H 0.03054 0.31388 0.6933 0.0
H743 H 0.06077 0.35041 0.73867 0.0
C744 C 0.6186 1.004 0.93462 0.0
C745 C 0.63656 0.9863 0.92421 0.0
C746 C 0.68623 0.0353 0.98404 0.0
C747 C 0.66584 0.04995 1.00335 0.0
N748 N 0.61006 0.0443 1.00108 0.0
N749 N 0.6886 0.98553 0.94069 0.0
C750 C 0.63136 0.03286 0.9803 0.0
C751 C 0.67087 1.00229 0.94932 0.0
N752 N 0.58878 0.99401 0.90009 0.0
N753 N 0.72033 0.05319 0.99762 0.0
H754 H 0.67861 0.96279 0.91172 0.0
H755 H 0.71221 0.99334 0.96411 0.0
H756 H 0.73169 0.07637 0.02511 0.0
H757 H 0.73745 0.04601 0.97864 0.0
H758 H 0.57902 0.9746 0.86196 0.0
H759 H 0.57902 0.9746 0.86196 0.0
H760 H 0.58413 0.03123 0.98885 0.0
H761 H 0.61816 0.06615 0.03171 0.0
C762 C 0.67625 0.65326 0.3225 0.0
C763 C 0.65883 0.62148 0.28524 0.0
C764 C 0.60575 0.61305 0.33855 0.0
C765 C 0.62175 0.64577 0.37083 0.0
N766 N 0.67426 0.69861 0.38805 0.0
N767 N 0.60551 0.582 0.23307 0.0
C768 C 0.65761 0.66642 0.36087 0.0
C769 C 0.6231 0.60465 0.28603 0.0
N770 N 0.71072 0.6723 0.31948 0.0
N771 N 0.57394 0.58919 0.35952 0.0
H772 H 0.61846 0.58028 0.18834 0.0
H773 H 0.57907 0.57002 0.22857 0.0
H774 H 0.56086 0.59411 0.39934 0.0
H775 H 0.56231 0.56408 0.34156 0.0
H776 H 0.72567 0.66498 0.28998 0.0
H777 H 0.72567 0.66498 0.28998 0.0
H778 H 0.70043 0.7147 0.38126 0.0
H779 H 0.66164 0.70876 0.41701 0.0
C780 C 1.0089 0.66506 0.73312 0.0
C781 C 0.99228 0.62889 0.7271 0.0
C782 C 0.0354 0.6366 0.63531 0.0
C783 C 0.0556 0.6716 0.65036 0.0
N784 N 0.05997 0.72025 0.71177 0.0
N785 N 0.99624 0.58114 0.67828 0.0
C786 C 0.04176 0.68609 0.69914 0.0
C787 C 1.00791 0.61519 0.68131 0.0
N788 N 0.99272 0.67944 0.76811 0.0
N789 N 0.04163 0.62341 0.57524 0.0
H790 H 0.97701 0.56334 0.71173 0.0
H791 H 0.97701 0.56334 0.71173 0.0
H792 H 0.05668 0.63942 0.53368 0.0
H793 H 0.02788 0.59747 0.56291 0.0
H794 H 1.00136 0.70549 0.76768 0.0
H795 H 0.96948 0.66491 0.79459 0.0
H796 H 0.05403 0.73231 0.75235 0.0
H797 H 0.08176 0.73628 0.68176 0.0
C798 C 0.39632 0.9874 0.98046 0.0
C799 C 0.36661 0.97269 0.02571 0.0
C800 C 0.35854 0.0211 0.98832 0.0
C801 C 0.38844 0.03512 0.94422 0.0
N802 N 0.4268 0.02331 0.87945 0.0
N803 N 0.31552 0.97308 0.05941 0.0
C804 C 0.40413 0.01541 0.93434 0.0
C805 C 0.34654 0.98894 0.02596 0.0
N806 N 0.41828 0.97524 0.9798 0.0
N807 N 0.34145 0.03865 0.993 0.0
H808 H 0.30639 0.95014 0.08739 0.0
H809 H 0.29801 0.9815 0.05638 0.0
H810 H 0.34844 0.06036 0.9615 0.0
H811 H 0.32133 0.03244 0.0284 0.0
H812 H 0.41601 0.95586 0.01371 0.0
H813 H 0.41601 0.95586 0.01371 0.0
H814 H 0.44005 0.01029 0.87041 0.0
H815 H 0.42815 0.03971 0.8385 0.0
C816 C 0.17025 0.39709 0.02075 0.0
C817 C 0.1833 0.41677 0.95626 0.0
C818 C 0.24127 0.44136 1.00927 0.0
C819 C 0.22889 0.41912 0.07058 0.0
N820 N 0.18074 0.36962 0.12295 0.0
N821 N 0.23397 0.45033 0.88334 0.0
C822 C 0.19305 0.39529 0.07291 0.0
C823 C 0.21954 0.43627 0.94854 0.0
N824 N 0.13591 0.37959 0.0323 0.0
N825 N 0.27303 0.4694 1.01018 0.0
H826 H 0.22018 0.44799 0.83684 0.0
H827 H 0.26006 0.46154 0.87375 0.0
H828 H 0.28927 0.47591 0.054 0.0
H829 H 0.28168 0.48841 0.97072 0.0
H830 H 0.12495 0.36807 0.08151 0.0
H831 H 0.1185 0.37853 0.99419 0.0
H832 H 0.15562 0.3497 0.12365 0.0
H833 H 0.1965 0.36599 0.15844 0.0
C834 C 0.78294 0.20314 0.40326 0.0
C835 C 0.81821 0.22916 0.39956 0.0
C836 C 0.81654 0.21391 0.26906 0.0
C837 C 0.7811 0.18834 0.27376 0.0
N838 N 0.74016 0.14816 0.358 0.0
N839 N 0.87013 0.25124 0.33057 0.0
C840 C 0.76714 0.17979 0.34456 0.0
C841 C 0.83538 0.23241 0.3326 0.0
N842 N 0.7633 0.2011 0.46114 0.0
N843 N 0.83303 0.2195 0.20439 0.0
H844 H 0.88485 0.26298 0.376 0.0
H845 H 0.88477 0.2524 0.28615 0.0
H846 H 0.82379 0.20174 0.16266 0.0
H847 H 0.85615 0.24132 0.19283 0.0
H848 H 0.73702 0.18465 0.4622 0.0
H849 H 0.77191 0.21811 0.50393 0.0
H850 H 0.73048 0.13976 0.40986 0.0
H851 H 0.7313 0.12876 0.31977 0.0
C852 C 0.56375 0.79506 0.68876 0.0
C853 C 0.59533 0.82114 0.71693 0.0
C854 C 0.62351 0.79787 0.63683 0.0
C855 C 0.5915 0.76937 0.61695 0.0
N856 N 0.53195 0.73701 0.64642 0.0
N857 N 0.65603 0.84436 0.72144 0.0
C858 C 0.56197 0.76692 0.64978 0.0
C859 C 0.62543 0.82144 0.69223 0.0
N860 N 0.53511 0.79734 0.69652 0.0
N861 N 0.6522 0.80274 0.60227 0.0
H862 H 0.65859 0.86298 0.75806 0.0
H863 H 0.67838 0.84375 0.7122 0.0
H864 H 0.65177 0.78536 0.56475 0.0
H865 H 0.67584 0.8247 0.60789 0.0
H866 H 0.51203 0.78046 0.67212 0.0
H867 H 0.53564 0.81861 0.71845 0.0
H868 H 0.51008 0.73269 0.67407 0.0
H869 H 0.53059 0.71525 0.62497 0.0
C870 C 0.80516 0.56925 0.08397 0.0
C871 C 0.78899 0.58945 0.07951 0.0
C872 C 0.82102 0.61275 0.96378 0.0
C873 C 0.8324 0.58835 0.96299 0.0
N874 N 0.82284 0.53551 0.01572 0.0
N875 N 0.78017 0.62879 1.00791 0.0
C876 C 0.82124 0.56462 0.02154 0.0
C877 C 0.79635 0.61048 0.01684 0.0
N878 N 0.80563 0.55415 0.14751 0.0
N879 N 0.83488 0.63923 0.91571 0.0
H880 H 0.76378 0.62938 0.04673 0.0
H881 H 0.78129 0.64149 0.96007 0.0
H882 H 0.85407 0.64294 0.87944 0.0
H883 H 0.83018 0.6595 0.91725 0.0
H884 H 0.81957 0.5417 0.154 0.0
H885 H 0.79593 0.55736 0.19575 0.0
H886 H 0.81214 0.51586 0.05377 0.0
H887 H 0.83017 0.52891 0.96823 0.0
C888 C 0.23023 0.82649 0.42535 0.0
C889 C 0.20702 0.79047 0.42061 0.0
C890 C 0.22411 0.79379 0.29174 0.0
C891 C 0.2492 0.82934 0.29669 0.0
N892 N 0.27508 0.87942 0.37176 0.0
N893 N 0.16987 0.74838 0.33519 0.0
C894 C 0.25192 0.84554 0.36472 0.0
C895 C 0.20048 0.77652 0.34981 0.0
N896 N 0.2284 0.84341 0.48472 0.0
N897 N 0.22368 0.77517 0.23337 0.0
H898 H 0.14991 0.73825 0.37239 0.0
H899 H 0.1625 0.73869 0.2832 0.0
H900 H 0.24108 0.78495 0.19103 0.0
H901 H 0.2084 0.74872 0.23137 0.0
H902 H 0.24249 0.86967 0.4914 0.0
H903 H 0.20908 0.83178 0.52316 0.0
H904 H 0.28289 0.89175 0.42125 0.0
H905 H 0.28749 0.89534 0.32796 0.0
C906 C 0.42506 0.22965 0.75586 0.0
C907 C 0.41631 0.19482 0.74393 0.0
C908 C 0.40151 0.20177 0.6172 0.0
C909 C 0.41367 0.23736 0.62764 0.0
N910 N 0.41813 0.27723 0.71838 0.0
N911 N 0.39572 0.14814 0.65987 0.0
C912 C 0.42013 0.24911 0.70022 0.0
C913 C 0.40445 0.18114 0.67352 0.0
N914 N 0.4401 0.24547 0.8191 0.0
N915 N 0.38331 0.18662 0.55615 0.0
H916 H 0.393 0.1309 0.70027 0.0
H917 H 0.39244 0.13811 0.60806 0.0
H918 H 0.37603 0.19941 0.5198 0.0
H919 H 0.37118 0.16056 0.5463 0.0
H920 H 0.45124 0.2717 0.82629 0.0
H921 H 0.44458 0.23354 0.86217 0.0
H922 H 0.41963 0.28556 0.77137 0.0
H923 H 0.40916 0.28871 0.68264 0.0
C924 C 0.24614 0.49581 0.58499 0.0
C925 C 0.23456 0.51847 0.56759 0.0
C926 C 0.26199 0.52669 0.44908 0.0
C927 C 0.26165 0.49533 0.45987 0.0
N928 N 0.24276 0.44555 0.53651 0.0
N929 N 0.24052 0.56366 0.48915 0.0
C930 C 0.25148 0.47882 0.52798 0.0
C931 C 0.2455 0.53679 0.50138 0.0
N932 N 0.24834 0.48799 0.65515 0.0
N933 N 0.27894 0.54716 0.39151 0.0
H934 H 0.23346 0.57447 0.5306 0.0
H935 H 0.24376 0.57522 0.43879 0.0
H936 H 0.29285 0.54143 0.35493 0.0
H937 H 0.28201 0.57132 0.38397 0.0
H938 H 0.25741 0.47167 0.66953 0.0
H939 H 0.24403 0.50053 0.69766 0.0
H940 H 0.23372 0.43257 0.58542 0.0
H941 H 0.23988 0.42999 0.49263 0.0
C942 C 0.77121 0.30337 0.84215 0.0
C943 C 0.76482 0.29181 0.76984 0.0
C944 C 0.70963 0.24404 0.80501 0.0
C945 C 0.71989 0.25113 0.87842 0.0
N946 N 0.75785 0.2887 0.96899 0.0
N947 N 0.7276 0.25385 0.67911 0.0
C948 C 0.74957 0.2817 0.89771 0.0
C949 C 0.73338 0.26347 0.74994 0.0
N950 N 0.79873 0.33452 0.85701 0.0
N951 N 0.6779 0.21794 0.78826 0.0
H952 H 0.74431 0.26865 0.63802 0.0
H953 H 0.70719 0.231 0.66124 0.0
H954 H 0.66015 0.20285 0.82736 0.0
H955 H 0.66806 0.21291 0.73613 0.0
H956 H 0.80408 0.34562 0.90797 0.0
H957 H 0.81475 0.3505 0.81622 0.0
H958 H 0.78105 0.30847 0.98715 0.0
H959 H 0.7414 0.27374 1.01034 0.0
C960 C 0.55143 0.79491 0.192 0.0
C961 C 0.5315 0.78882 0.12884 0.0
C962 C 0.48863 0.73403 0.18021 0.0
C963 C 0.5087 0.74168 0.24337 0.0
N964 N 0.54977 0.78516 0.32049 0.0
N965 N 0.47551 0.75705 0.07465 0.0
C966 C 0.53614 0.77478 0.25348 0.0
C967 C 0.49816 0.75978 0.12638 0.0
N968 N 0.58574 0.81668 0.19112 0.0
N969 N 0.46176 0.70202 0.16993 0.0
H970 H 0.48087 0.77618 0.03682 0.0
H971 H 0.45021 0.73749 0.07446 0.0
H972 H 0.45335 0.68322 0.20983 0.0
H973 H 0.44887 0.694 0.12095 0.0
H974 H 0.6012 0.81991 0.23553 0.0
H975 H 0.59917 0.82735 0.14343 0.0
H976 H 0.56949 0.80988 0.33061 0.0
H977 H 0.53897 0.76963 0.36592 0.0
C978 C 0.73459 0.48467 0.50966 0.0
C979 C 0.74528 0.50472 0.44596 0.0
C980 C 0.7979 0.54475 0.50144 0.0
C981 C 0.78949 0.52414 0.56443 0.0
N982 N 0.75246 0.46909 0.61986 0.0
N983 N 0.79189 0.54427 0.37215 0.0
C984 C 0.75859 0.49222 0.56626 0.0
C985 C 0.77914 0.53071 0.43845 0.0
N986 N 0.70145 0.4596 0.51693 0.0
N987 N 0.82097 0.57873 0.50362 0.0
H988 H 0.77745 0.53428 0.32534 0.0
H989 H 0.81728 0.56303 0.36438 0.0
H990 H 0.83161 0.59126 0.5519 0.0
H991 H 0.82587 0.59484 0.45931 0.0
H992 H 0.69125 0.44656 0.56529 0.0
H993 H 0.68408 0.4531 0.47463 0.0
H994 H 0.73135 0.4446 0.61983 0.0
H995 H 0.76996 0.47317 0.66049 0.0
C996 C 0.23106 0.71348 0.94889 0.0
C997 C 0.2352 0.71467 0.87225 0.0
C998 C 0.29533 0.75744 0.88417 0.0
C999 C 0.29002 0.75899 0.95921 0.0
N1000 N 0.25823 0.73115 0.06627 0.0
N1001 N 0.27255 0.72916 0.76951 0.0
C1002 C 0.25975 0.73413 0.9927 0.0
C1003 C 0.26795 0.73374 0.84076 0.0
N1004 N 0.19951 0.695 0.97969 0.0
N1005 N 0.32613 0.78015 0.85455 0.0
H1006 H 0.25276 0.71152 0.73716 0.0
H1007 H 0.29618 0.74055 0.74395 0.0
H1008 H 0.34694 0.79636 0.88652 0.0
H1009 H 0.33087 0.78364 0.79926 0.0
H1010 H 0.19443 0.69719 0.03366 0.0
H1011 H 0.17762 0.67876 0.95119 0.0
H1012 H 0.23783 0.71163 0.09421 0.0
H1013 H 0.27905 0.7462 0.09909 0.0
C1014 C 0.53289 0.26753 0.11602 0.0
C1015 C 0.50217 0.23611 0.1285 0.0
C1016 C 0.5039 0.25262 0.25349 0.0
C1017 C 0.52471 0.28688 0.23386 0.0
N1018 N 0.5685 0.32657 0.15374 0.0
N1019 N 0.4537 0.20475 0.2084 0.0
C1020 C 0.54265 0.29433 0.16735 0.0
C1021 C 0.48664 0.22961 0.19781 0.0
N1022 N 0.55291 0.27132 0.05757 0.0
N1023 N 0.4969 0.24345 0.32428 0.0
H1024 H 0.43742 0.1923 0.16541 0.0
H1025 H 0.44149 0.20057 0.2583 0.0
H1026 H 0.509 0.26122 0.36546 0.0
H1027 H 0.48164 0.2181 0.34041 0.0
H1028 H 0.57656 0.2929 0.0486 0.0
H1029 H 0.54746 0.25153 0.02176 0.0
H1030 H 0.57984 0.33481 0.10316 0.0
H1031 H 0.57855 0.34492 0.19437 0.0
C1032 C 0.44 0.53228 0.32641 0.0
C1033 C 0.40892 0.53253 0.32658 0.0
C1034 C 0.44013 0.59302 0.36227 0.0
C1035 C 0.47168 0.59359 0.35523 0.0
N1036 N 0.50083 0.56521 0.31098 0.0
N1037 N 0.37995 0.56489 0.33267 0.0
C1038 C 0.47133 0.56356 0.33192 0.0
C1039 C 0.40914 0.56343 0.34127 0.0
N1040 N 0.4397 0.50204 0.32397 0.0
N1041 N 0.43962 0.62053 0.39051 0.0
H1042 H 0.35688 0.54395 0.317 0.0
H1043 H 0.37922 0.58748 0.33461 0.0
H1044 H 0.46169 0.64254 0.40565 0.0
H1045 H 0.41735 0.62047 0.40467 0.0
H1046 H 0.46147 0.50009 0.33072 0.0
H1047 H 0.41715 0.4787 0.32297 0.0
H1048 H 0.50196 0.54512 0.28639 0.0
H1049 H 0.52353 0.58814 0.31082 0.0
C1050 C 0.91555 0.46684 0.72895 0.0
C1051 C 0.90008 0.48071 0.68283 0.0
C1052 C 0.86898 0.42483 0.62279 0.0
C1053 C 0.886 0.41166 0.66396 0.0
N1054 N 0.93011 0.42277 0.7499 0.0
N1055 N 0.87615 0.47454 0.56192 0.0
C1056 C 0.91034 0.43332 0.71587 0.0
C1057 C 0.88096 0.46031 0.62264 0.0
N1058 N 0.93656 0.48587 0.78349 0.0
N1059 N 0.84037 0.40341 0.58524 0.0
H1060 H 0.88971 0.5005 0.55115 0.0
H1061 H 0.8637 0.46021 0.51638 0.0
H1062 H 0.82931 0.37705 0.58859 0.0
H1063 H 0.82553 0.41178 0.55893 0.0
H1064 H 0.9424 0.47533 0.82748 0.0
H1065 H 0.94932 0.51227 0.78323 0.0
H1066 H 0.95087 0.4383 0.78234 0.0
H1067 H 0.92767 0.39916 0.74011 0.0
C1068 C 0.46258 0.85908 0.01275 0.0
C1069 C 0.49261 0.89114 1.00334 0.0
C1070 C 0.4623 0.91978 0.04977 0.0
C1071 C 0.43117 0.88799 0.05072 0.0
N1072 N 0.40598 0.82748 0.06458 0.0
N1073 N 0.5214 0.95221 1.0105 0.0
C1074 C 0.4325 0.8576 0.0404 0.0
C1075 C 0.49254 0.92153 0.0214 0.0
N1076 N 0.46268 0.82991 0.99438 0.0
N1077 N 0.46394 0.94768 0.08161 0.0
H1078 H 0.52221 0.97556 0.01308 0.0
H1079 H 0.54426 0.95413 0.99402 0.0
H1080 H 0.44376 0.94668 0.11006 0.0
H1081 H 0.48637 0.9708 0.08825 0.0
H1082 H 0.44075 0.80614 0.99072 0.0
H1083 H 0.48458 0.82969 0.97804 0.0
H1084 H 0.40578 0.80441 0.06468 0.0
H1085 H 0.38611 0.82669 0.09432 0.0
C1086 C 0.5726 0.47575 0.32184 0.0
C1087 C 0.60293 0.47405 0.32383 0.0
C1088 C 0.57003 0.4152 0.36995 0.0
C1089 C 0.53933 0.41624 0.36343 0.0
N1090 N 0.51191 0.44335 0.30381 0.0
N1091 N 0.62795 0.43816 0.32733 0.0
C1092 C 0.54066 0.4454 0.3313 0.0
C1093 C 0.601 0.44267 0.34212 0.0
N1094 N 0.57409 0.50627 0.31189 0.0
N1095 N 0.56958 0.38753 0.40075 0.0
H1096 H 0.64915 0.45636 0.29904 0.0
H1097 H 0.62734 0.41501 0.33365 0.0
H1098 H 0.54721 0.36584 0.41701 0.0
H1099 H 0.59163 0.38708 0.41444 0.0
H1100 H 0.55268 0.50905 0.31578 0.0
H1101 H 0.59708 0.52904 0.30661 0.0
H1102 H 0.51179 0.46305 0.27481 0.0
H1103 H 0.48942 0.42018 0.30077 0.0
C1104 C 0.16328 0.60318 0.70866 0.0
C1105 C 0.13434 0.60659 0.69477 0.0
C1106 C 0.09787 0.54439 0.70113 0.0
C1107 C 0.12601 0.54101 0.72353 0.0
N1108 N 0.18587 0.56789 0.75205 0.0
N1109 N 0.07343 0.58115 0.68944 0.0
C1110 C 0.15881 0.57071 0.72859 0.0
C1111 C 0.1014 0.5774 0.69513 0.0
N1112 N 0.1952 0.63076 0.69979 0.0
N1113 N 0.06867 0.51636 0.67915 0.0
H1114 H 0.07526 0.60493 0.68406 0.0
H1115 H 0.04865 0.56103 0.69643 0.0
H1116 H 0.06706 0.49278 0.67436 0.0
H1117 H 0.04818 0.5174 0.65656 0.0
H1118 H 0.21737 0.62929 0.70052 0.0
H1119 H 0.19954 0.65497 0.6861 0.0
H1120 H 0.20932 0.5887 0.7657 0.0
H1121 H 0.18435 0.54457 0.76259 0.0
C1122 C 0.59662 0.16049 0.03261 0.0
C1123 C 0.60153 0.13347 1.00828 0.0
C1124 C 0.5423 0.1032 0.96454 0.0
C1125 C 0.53813 0.13107 0.98449 0.0
N1126 N 0.56464 0.19003 0.02058 0.0
N1127 N 0.5821 0.08539 0.92842 0.0
C1128 C 0.56618 0.16075 0.01425 0.0
C1129 C 0.57525 0.10661 0.96766 0.0
N1130 N 0.62144 0.18651 0.07179 0.0
N1131 N 0.51468 0.07298 0.9449 0.0
H1132 H 0.60641 0.08872 0.9257 0.0
H1133 H 0.56484 0.06735 0.89255 0.0
H1134 H 0.49002 0.06916 0.9444 0.0
H1135 H 0.51587 0.05085 0.93644 0.0
H1136 H 0.6177 0.20444 0.09915 0.0
H1137 H 0.64539 0.18924 0.07978 0.0
H1138 H 0.58541 0.21346 0.03466 0.0
H1139 H 0.54365 0.19195 1.00431 0.0
loop_
_geom_bond_atom_site_label_1
_geom_bond_atom_site_label_2
_geom_bond_distance
_geom_bond_site_symmetry_2
_ccdc_geom_bond_type
Co0 O2 2.143 . S
Co0 O8 2.074 . S
Co0 O11 2.093 . S
Co0 O24 2.097 . S
Co0 N41 2.151 . S
Co0 N49 2.214 . S
Co1 O2 2.160 . S
Co1 O7 2.058 . S
Co1 O17 2.057 . S
Co1 O32 2.037 . S
Co1 N36 2.145 . S
Co1 N57 2.257 . S
O2 Co0 2.143 . S
O2 Co1 2.160 . S
C3 O4 1.278 . S
C3 O11 1.224 . S
O4 C3 1.278 . S
C5 O6 1.245 . S
C5 O17 1.232 . S
O6 C5 1.245 . S
O7 Co1 2.058 . S
O7 C33 1.269 . S
O8 Co0 2.074 . S
O8 C33 1.257 . S
H9 C34 0.930 . S
H10 C40 0.930 . S
O11 Co0 2.093 . S
O11 C3 1.224 . S
H12 C44 0.929 . S
H13 C46 0.930 . S
H14 C47 0.930 . S
H15 C45 0.929 . S
H16 C48 0.928 . S
O17 Co1 2.057 . S
O17 C5 1.232 . S
H18 C37 0.929 . S
H19 C38 0.929 . S
H20 C50 0.931 . S
H21 C42 0.929 . S
H22 C51 0.930 . S
H23 C43 0.931 . S
O24 Co0 2.097 . S
O24 C52 1.214 . S
H25 C53 0.929 . S
H26 C54 0.929 . S
H27 C55 0.930 . S
H28 C56 0.929 . S
H29 C58 0.930 . S
H30 C35 0.930 . S
H31 C39 0.930 . S
O32 Co1 2.037 . S
O32 C52 1.234 . S
C33 O7 1.269 . S
C33 O8 1.257 . S
C34 H9 0.930 . S
C34 C37 1.388 . S
C34 C39 1.418 1_554 S
C35 H30 0.930 . S
C35 C38 1.404 1_556 S
C35 C39 1.353 . S
N36 Co1 2.145 . S
N36 C37 1.397 . S
N36 C38 1.334 . S
C37 H18 0.929 . S
C37 C34 1.388 . S
C37 N36 1.397 . S
C38 H19 0.929 . S
C38 C35 1.404 1_554 S
C38 N36 1.334 . S
C39 H31 0.930 . S
C39 C34 1.418 1_556 S
C39 C35 1.353 . S
C40 H10 0.930 . S
C40 N41 1.330 . S
C40 C42 1.446 . S
N41 Co0 2.151 . S
N41 C40 1.330 . S
N41 C45 1.418 . S
C42 H21 0.929 . S
C42 C40 1.446 . S
C42 C43 1.332 . S
C43 H23 0.931 . S
C43 C42 1.332 . S
C43 C44 1.267 . S
C44 H12 0.929 . S
C44 C43 1.267 . S
C44 C45 1.251 . S
C45 H15 0.929 . S
C45 N41 1.418 . S
C45 C44 1.251 . S
C46 H13 0.930 . S
C46 C48 1.406 . S
C46 C51 1.261 . S
C47 H14 0.930 . S
C47 N49 1.325 . S
C47 C50 1.357 . S
C48 H16 0.928 . S
C48 C46 1.406 . S
C48 N49 1.261 . S
N49 Co0 2.214 . S
N49 C47 1.325 . S
N49 C48 1.261 . S
C50 H20 0.931 . S
C50 C47 1.357 . S
C50 C51 1.312 . S
C51 H22 0.930 . S
C51 C46 1.261 . S
C51 C50 1.312 . S
C52 O24 1.214 . S
C52 O32 1.234 . S
C53 H25 0.929 . S
C53 C56 1.391 . S
C53 C58 1.391 . S
C54 H26 0.929 . S
C54 C55 1.390 . S
C54 N57 1.391 . S
C55 H27 0.930 . S
C55 C54 1.390 . S
C55 C56 1.392 . S
C56 H28 0.929 . S
C56 C53 1.391 . S
C56 C55 1.392 . S
N57 Co1 2.257 . S
N57 C54 1.391 . S
N57 C58 1.388 . S
C58 H29 0.930 . S
C58 C53 1.391 . S
C58 N57 1.388 . S
Co59 O61 2.143 . S
Co59 O67 2.074 . S
Co59 O70 2.093 . S
Co59 O83 2.097 . S
Co59 N100 2.151 . S
Co59 N108 2.214 . S
Co60 O61 2.160 . S
Co60 O66 2.058 . S
Co60 O76 2.057 . S
Co60 O91 2.037 . S
Co60 N95 2.145 . S
Co60 N116 2.257 . S
O61 Co59 2.143 . S
O61 Co60 2.160 . S
C62 O63 1.278 . S
C62 O70 1.224 . S
O63 C62 1.278 . S
C64 O65 1.245 . S
C64 O76 1.232 . S
O65 C64 1.245 . S
O66 Co60 2.058 . S
O66 C92 1.269 . S
O67 Co59 2.074 . S
O67 C92 1.257 . S
H68 C93 0.930 . S
H69 C99 0.930 . S
O70 Co59 2.093 . S
O70 C62 1.224 . S
H71 C103 0.929 . S
H72 C105 0.930 . S
H73 C106 0.930 . S
H74 C104 0.929 . S
H75 C107 0.928 . S
O76 Co60 2.057 . S
O76 C64 1.232 . S
H77 C96 0.929 . S
H78 C97 0.929 . S
H79 C109 0.931 . S
H80 C101 0.929 . S
H81 C110 0.930 . S
H82 C102 0.931 . S
O83 Co59 2.097 . S
O83 C111 1.214 . S
H84 C112 0.929 . S
H85 C113 0.929 . S
H86 C114 0.930 . S
H87 C115 0.929 . S
H88 C117 0.930 . S
H89 C94 0.930 . S
H90 C98 0.930 . S
O91 Co60 2.037 . S
O91 C111 1.234 . S
C92 O66 1.269 . S
C92 O67 1.257 . S
C93 H68 0.930 . S
C93 C96 1.388 . S
C93 C98 1.418 . S
C94 H89 0.930 . S
C94 C97 1.404 . S
C94 C98 1.353 . S
N95 Co60 2.145 . S
N95 C96 1.397 . S
N95 C97 1.334 . S
C96 H77 0.929 . S
C96 C93 1.388 . S
C96 N95 1.397 . S
C97 H78 0.929 . S
C97 C94 1.404 . S
C97 N95 1.334 . S
C98 H90 0.930 . S
C98 C93 1.418 . S
C98 C94 1.353 . S
C99 H69 0.930 . S
C99 N100 1.330 . S
C99 C101 1.446 . S
N100 Co59 2.151 . S
N100 C99 1.330 . S
N100 C104 1.418 . S
C101 H80 0.929 . S
C101 C99 1.446 . S
C101 C102 1.332 . S
C102 H82 0.931 . S
C102 C101 1.332 . S
C102 C103 1.267 . S
C103 H71 0.929 . S
C103 C102 1.267 . S
C103 C104 1.251 . S
C104 H74 0.929 . S
C104 N100 1.418 . S
C104 C103 1.251 . S
C105 H72 0.930 . S
C105 C107 1.406 . S
C105 C110 1.261 . S
C106 H73 0.930 . S
C106 N108 1.325 . S
C106 C109 1.357 . S
C107 H75 0.928 . S
C107 C105 1.406 . S
C107 N108 1.261 . S
N108 Co59 2.214 . S
N108 C106 1.325 . S
N108 C107 1.261 . S
C109 H79 0.931 . S
C109 C106 1.357 . S
C109 C110 1.312 . S
C110 H81 0.930 . S
C110 C105 1.261 . S
C110 C109 1.312 . S
C111 O83 1.214 . S
C111 O91 1.234 . S
C112 H84 0.929 . S
C112 C115 1.391 . S
C112 C117 1.391 . S
C113 H85 0.929 . S
C113 C114 1.390 . S
C113 N116 1.391 . S
C114 H86 0.930 . S
C114 C113 1.390 . S
C114 C115 1.392 . S
C115 H87 0.929 . S
C115 C112 1.391 . S
C115 C114 1.392 . S
N116 Co60 2.257 . S
N116 C113 1.391 . S
N116 C117 1.388 . S
C117 H88 0.930 . S
C117 C112 1.391 . S
C117 N116 1.388 . S
Co118 O120 2.143 1_554 S
Co118 O126 2.074 1_554 S
Co118 O129 2.093 . S
Co118 O142 2.097 . S
Co118 N159 2.151 . S
Co118 N167 2.214 . S
Co119 O120 2.160 . S
Co119 O125 2.058 . S
Co119 O135 2.057 . S
Co119 O150 2.037 . S
Co119 N154 2.145 . S
Co119 N175 2.257 . S
O120 Co118 2.143 1_556 S
O120 Co119 2.160 . S
C121 O122 1.278 . S
C121 O129 1.224 . S
O122 C121 1.278 . S
C123 O124 1.245 . S
C123 O135 1.232 . S
O124 C123 1.245 . S
O125 Co119 2.058 . S
O125 C151 1.269 . S
O126 Co118 2.074 1_556 S
O126 C151 1.257 . S
H127 C152 0.930 . S
H128 C158 0.930 . S
O129 Co118 2.093 . S
O129 C121 1.224 . S
H130 C162 0.929 . S
H131 C164 0.930 . S
H132 C165 0.930 . S
H133 C163 0.929 . S
H134 C166 0.928 . S
O135 Co119 2.057 . S
O135 C123 1.232 . S
H136 C155 0.929 . S
H137 C156 0.929 . S
H138 C168 0.931 . S
H139 C160 0.929 . S
H140 C169 0.930 . S
H141 C161 0.931 . S
O142 Co118 2.097 . S
O142 C170 1.214 1_554 S
H143 C171 0.929 . S
H144 C172 0.929 . S
H145 C173 0.930 . S
H146 C174 0.929 . S
H147 C176 0.930 . S
H148 C153 0.930 . S
H149 C157 0.930 . S
O150 Co119 2.037 . S
O150 C170 1.234 . S
C151 O125 1.269 . S
C151 O126 1.257 . S
C152 H127 0.930 . S
C152 C155 1.388 . S
C152 C157 1.418 . S
C153 H148 0.930 . S
C153 C156 1.404 . S
C153 C157 1.353 . S
N154 Co119 2.145 . S
N154 C155 1.397 . S
N154 C156 1.334 . S
C155 H136 0.929 . S
C155 C152 1.388 . S
C155 N154 1.397 . S
C156 H137 0.929 . S
C156 C153 1.404 . S
C156 N154 1.334 . S
C157 H149 0.930 . S
C157 C152 1.418 . S
C157 C153 1.353 . S
C158 H128 0.930 . S
C158 N159 1.330 . S
C158 C160 1.446 . S
N159 Co118 2.151 . S
N159 C158 1.330 . S
N159 C163 1.418 . S
C160 H139 0.929 . S
C160 C158 1.446 . S
C160 C161 1.332 . S
C161 H141 0.931 . S
C161 C160 1.332 . S
C161 C162 1.267 . S
C162 H130 0.929 . S
C162 C161 1.267 . S
C162 C163 1.251 . S
C163 H133 0.929 . S
C163 N159 1.418 . S
C163 C162 1.251 . S
C164 H131 0.930 . S
C164 C166 1.406 . S
C164 C169 1.261 . S
C165 H132 0.930 . S
C165 N167 1.325 . S
C165 C168 1.357 . S
C166 H134 0.928 . S
C166 C164 1.406 . S
C166 N167 1.261 . S
N167 Co118 2.214 . S
N167 C165 1.325 . S
N167 C166 1.261 . S
C168 H138 0.931 . S
C168 C165 1.357 . S
C168 C169 1.312 . S
C169 H140 0.930 . S
C169 C164 1.261 . S
C169 C168 1.312 . S
C170 O142 1.214 1_556 S
C170 O150 1.234 . S
C171 H143 0.929 . S
C171 C174 1.391 . S
C171 C176 1.391 . S
C172 H144 0.929 . S
C172 C173 1.390 . S
C172 N175 1.391 . S
C173 H145 0.930 . S
C173 C172 1.390 . S
C173 C174 1.392 . S
C174 H146 0.929 . S
C174 C171 1.391 . S
C174 C173 1.392 . S
N175 Co119 2.257 . S
N175 C172 1.391 . S
N175 C176 1.388 . S
C176 H147 0.930 . S
C176 C171 1.391 . S
C176 N175 1.388 . S
Co177 O179 2.143 . S
Co177 O185 2.074 . S
Co177 O188 2.093 . S
Co177 O201 2.097 . S
Co177 N218 2.151 . S
Co177 N226 2.214 . S
Co178 O179 2.160 . S
Co178 O184 2.058 . S
Co178 O194 2.057 . S
Co178 O209 2.037 . S
Co178 N213 2.145 . S
Co178 N234 2.257 . S
O179 Co177 2.143 . S
O179 Co178 2.160 . S
C180 O181 1.278 . S
C180 O188 1.224 . S
O181 C180 1.278 . S
C182 O183 1.245 . S
C182 O194 1.232 . S
O183 C182 1.245 . S
O184 Co178 2.058 . S
O184 C210 1.269 . S
O185 Co177 2.074 . S
O185 C210 1.257 . S
H186 C211 0.930 . S
H187 C217 0.930 . S
O188 Co177 2.093 . S
O188 C180 1.224 . S
H189 C221 0.929 . S
H190 C223 0.930 . S
H191 C224 0.930 . S
H192 C222 0.929 . S
H193 C225 0.928 . S
O194 Co178 2.057 . S
O194 C182 1.232 . S
H195 C214 0.929 . S
H196 C215 0.929 . S
H197 C227 0.931 . S
H198 C219 0.929 . S
H199 C228 0.930 . S
H200 C220 0.931 . S
O201 Co177 2.097 . S
O201 C229 1.214 . S
H202 C230 0.929 . S
H203 C231 0.929 . S
H204 C232 0.930 . S
H205 C233 0.929 . S
H206 C235 0.930 . S
H207 C212 0.930 . S
H208 C216 0.930 . S
O209 Co178 2.037 . S
O209 C229 1.234 . S
C210 O184 1.269 . S
C210 O185 1.257 . S
C211 H186 0.930 . S
C211 C214 1.388 . S
C211 C216 1.418 1_554 S
C212 H207 0.930 . S
C212 C215 1.404 1_556 S
C212 C216 1.353 . S
N213 Co178 2.145 . S
N213 C214 1.397 . S
N213 C215 1.334 . S
C214 H195 0.929 . S
C214 C211 1.388 . S
C214 N213 1.397 . S
C215 H196 0.929 . S
C215 C212 1.404 1_554 S
C215 N213 1.334 . S
C216 H208 0.930 . S
C216 C211 1.418 1_556 S
C216 C212 1.353 . S
C217 H187 0.930 . S
C217 N218 1.330 . S
C217 C219 1.446 . S
N218 Co177 2.151 . S
N218 C217 1.330 . S
N218 C222 1.418 . S
C219 H198 0.929 . S
C219 C217 1.446 . S
C219 C220 1.332 . S
C220 H200 0.931 . S
C220 C219 1.332 . S
C220 C221 1.267 . S
C221 H189 0.929 . S
C221 C220 1.267 . S
C221 C222 1.251 . S
C222 H192 0.929 . S
C222 N218 1.418 . S
C222 C221 1.251 . S
C223 H190 0.930 . S
C223 C225 1.406 . S
C223 C228 1.261 . S
C224 H191 0.930 . S
C224 N226 1.325 . S
C224 C227 1.357 . S
C225 H193 0.928 . S
C225 C223 1.406 . S
C225 N226 1.261 . S
N226 Co177 2.214 . S
N226 C224 1.325 . S
N226 C225 1.261 . S
C227 H197 0.931 . S
C227 C224 1.357 . S
C227 C228 1.312 . S
C228 H199 0.930 . S
C228 C223 1.261 . S
C228 C227 1.312 . S
C229 O201 1.214 . S
C229 O209 1.234 . S
C230 H202 0.929 . S
C230 C233 1.391 . S
C230 C235 1.391 . S
C231 H203 0.929 . S
C231 C232 1.390 . S
C231 N234 1.391 . S
C232 H204 0.930 . S
C232 C231 1.390 . S
C232 C233 1.392 . S
C233 H205 0.929 . S
C233 C230 1.391 . S
C233 C232 1.392 . S
N234 Co178 2.257 . S
N234 C231 1.391 . S
N234 C235 1.388 . S
C235 H206 0.930 . S
C235 C230 1.391 . S
C235 N234 1.388 . S
Co236 O238 2.143 . S
Co236 O244 2.074 . S
Co236 O247 2.093 . S
Co236 O260 2.097 . S
Co236 N277 2.151 . S
Co236 N285 2.214 . S
Co237 O238 2.160 . S
Co237 O243 2.058 . S
Co237 O253 2.057 . S
Co237 O268 2.037 . S
Co237 N272 2.145 . S
Co237 N293 2.257 . S
O238 Co236 2.143 . S
O238 Co237 2.160 . S
C239 O240 1.278 . S
C239 O247 1.224 . S
O240 C239 1.278 . S
C241 O242 1.245 . S
C241 O253 1.232 . S
O242 C241 1.245 . S
O243 Co237 2.058 . S
O243 C269 1.269 . S
O244 Co236 2.074 . S
O244 C269 1.257 . S
H245 C270 0.930 . S
H246 C276 0.930 . S
O247 Co236 2.093 . S
O247 C239 1.224 . S
H248 C280 0.929 . S
H249 C282 0.930 . S
H250 C283 0.930 . S
H251 C281 0.929 . S
H252 C284 0.928 . S
O253 Co237 2.057 . S
O253 C241 1.232 . S
H254 C273 0.929 . S
H255 C274 0.929 . S
H256 C286 0.931 . S
H257 C278 0.929 . S
H258 C287 0.930 . S
H259 C279 0.931 . S
O260 Co236 2.097 . S
O260 C288 1.214 . S
H261 C289 0.929 . S
H262 C290 0.929 . S
H263 C291 0.930 . S
H264 C292 0.929 . S
H265 C294 0.930 . S
H266 C271 0.930 . S
H267 C275 0.930 . S
O268 Co237 2.037 . S
O268 C288 1.234 . S
C269 O243 1.269 . S
C269 O244 1.257 . S
C270 H245 0.930 . S
C270 C273 1.388 . S
C270 C275 1.418 . S
C271 H266 0.930 . S
C271 C274 1.404 . S
C271 C275 1.353 . S
N272 Co237 2.145 . S
N272 C273 1.397 . S
N272 C274 1.334 . S
C273 H254 0.929 . S
C273 C270 1.388 . S
C273 N272 1.397 . S
C274 H255 0.929 . S
C274 C271 1.404 . S
C274 N272 1.334 . S
C275 H267 0.930 . S
C275 C270 1.418 . S
C275 C271 1.353 . S
C276 H246 0.930 . S
C276 N277 1.330 . S
C276 C278 1.446 . S
N277 Co236 2.151 . S
N277 C276 1.330 . S
N277 C281 1.418 . S
C278 H257 0.929 . S
C278 C276 1.446 . S
C278 C279 1.332 . S
C279 H259 0.931 . S
C279 C278 1.332 . S
C279 C280 1.267 . S
C280 H248 0.929 . S
C280 C279 1.267 . S
C280 C281 1.251 . S
C281 H251 0.929 . S
C281 N277 1.418 . S
C281 C280 1.251 . S
C282 H249 0.930 . S
C282 C284 1.406 . S
C282 C287 1.261 . S
C283 H250 0.930 . S
C283 N285 1.325 . S
C283 C286 1.357 . S
C284 H252 0.928 . S
C284 C282 1.406 . S
C284 N285 1.261 . S
N285 Co236 2.214 . S
N285 C283 1.325 . S
N285 C284 1.261 . S
C286 H256 0.931 . S
C286 C283 1.357 . S
C286 C287 1.312 . S
C287 H258 0.930 . S
C287 C282 1.261 . S
C287 C286 1.312 . S
C288 O260 1.214 . S
C288 O268 1.234 . S
C289 H261 0.929 . S
C289 C292 1.391 . S
C289 C294 1.391 . S
C290 H262 0.929 . S
C290 C291 1.390 . S
C290 N293 1.391 . S
C291 H263 0.930 . S
C291 C290 1.390 . S
C291 C292 1.392 . S
C292 H264 0.929 . S
C292 C289 1.391 . S
C292 C291 1.392 . S
N293 Co237 2.257 . S
N293 C290 1.391 . S
N293 C294 1.388 . S
C294 H265 0.930 . S
C294 C289 1.391 . S
C294 N293 1.388 . S
Co295 O297 2.143 1_554 S
Co295 O303 2.074 1_554 S
Co295 O306 2.093 . S
Co295 O319 2.097 . S
Co295 N336 2.151 . S
Co295 N344 2.214 . S
Co296 O297 2.160 . S
Co296 O302 2.058 . S
Co296 O312 2.057 . S
Co296 O327 2.037 . S
Co296 N331 2.145 . S
Co296 N352 2.257 . S
O297 Co295 2.143 1_556 S
O297 Co296 2.160 . S
C298 O299 1.278 . S
C298 O306 1.224 . S
O299 C298 1.278 . S
C300 O301 1.245 . S
C300 O312 1.232 . S
O301 C300 1.245 . S
O302 Co296 2.058 . S
O302 C328 1.269 . S
O303 Co295 2.074 1_556 S
O303 C328 1.257 . S
H304 C329 0.930 . S
H305 C335 0.930 . S
O306 Co295 2.093 . S
O306 C298 1.224 . S
H307 C339 0.929 . S
H308 C341 0.930 . S
H309 C342 0.930 . S
H310 C340 0.929 . S
H311 C343 0.928 . S
O312 Co296 2.057 . S
O312 C300 1.232 . S
H313 C332 0.929 . S
H314 C333 0.929 . S
H315 C345 0.931 . S
H316 C337 0.929 . S
H317 C346 0.930 . S
H318 C338 0.931 . S
O319 Co295 2.097 . S
O319 C347 1.214 1_554 S
H320 C348 0.929 . S
H321 C349 0.929 . S
H322 C350 0.930 . S
H323 C351 0.929 . S
H324 C353 0.930 . S
H325 C330 0.930 . S
H326 C334 0.930 . S
O327 Co296 2.037 . S
O327 C347 1.234 . S
C328 O302 1.269 . S
C328 O303 1.257 . S
C329 H304 0.930 . S
C329 C332 1.388 . S
C329 C334 1.418 . S
C330 H325 0.930 . S
C330 C333 1.404 . S
C330 C334 1.353 . S
N331 Co296 2.145 . S
N331 C332 1.397 . S
N331 C333 1.334 . S
C332 H313 0.929 . S
C332 C329 1.388 . S
C332 N331 1.397 . S
C333 H314 0.929 . S
C333 C330 1.404 . S
C333 N331 1.334 . S
C334 H326 0.930 . S
C334 C329 1.418 . S
C334 C330 1.353 . S
C335 H305 0.930 . S
C335 N336 1.330 . S
C335 C337 1.446 . S
N336 Co295 2.151 . S
N336 C335 1.330 . S
N336 C340 1.418 . S
C337 H316 0.929 . S
C337 C335 1.446 . S
C337 C338 1.332 . S
C338 H318 0.931 . S
C338 C337 1.332 . S
C338 C339 1.267 . S
C339 H307 0.929 . S
C339 C338 1.267 . S
C339 C340 1.251 . S
C340 H310 0.929 . S
C340 N336 1.418 . S
C340 C339 1.251 . S
C341 H308 0.930 . S
C341 C343 1.406 . S
C341 C346 1.261 . S
C342 H309 0.930 . S
C342 N344 1.325 . S
C342 C345 1.357 . S
C343 H311 0.928 . S
C343 C341 1.406 . S
C343 N344 1.261 . S
N344 Co295 2.214 . S
N344 C342 1.325 . S
N344 C343 1.261 . S
C345 H315 0.931 . S
C345 C342 1.357 . S
C345 C346 1.312 . S
C346 H317 0.930 . S
C346 C341 1.261 . S
C346 C345 1.312 . S
C347 O319 1.214 1_556 S
C347 O327 1.234 . S
C348 H320 0.929 . S
C348 C351 1.391 . S
C348 C353 1.391 . S
C349 H321 0.929 . S
C349 C350 1.390 . S
C349 N352 1.391 . S
C350 H322 0.930 . S
C350 C349 1.390 . S
C350 C351 1.392 . S
C351 H323 0.929 . S
C351 C348 1.391 . S
C351 C350 1.392 . S
N352 Co296 2.257 . S
N352 C349 1.391 . S
N352 C353 1.388 . S
C353 H324 0.930 . S
C353 C348 1.391 . S
C353 N352 1.388 . S
Co354 O356 2.143 . S
Co354 O362 2.074 . S
Co354 O365 2.093 . S
Co354 O378 2.097 . S
Co354 N395 2.151 . S
Co354 N403 2.214 . S
Co355 O356 2.160 . S
Co355 O361 2.058 . S
Co355 O371 2.057 . S
Co355 O386 2.037 . S
Co355 N390 2.145 . S
Co355 N411 2.257 . S
O356 Co354 2.143 . S
O356 Co355 2.160 . S
C357 O358 1.278 . S
C357 O365 1.224 . S
O358 C357 1.278 . S
C359 O360 1.245 . S
C359 O371 1.232 . S
O360 C359 1.245 . S
O361 Co355 2.058 . S
O361 C387 1.269 . S
O362 Co354 2.074 . S
O362 C387 1.257 . S
H363 C388 0.930 . S
H364 C394 0.930 . S
O365 Co354 2.093 . S
O365 C357 1.224 . S
H366 C398 0.929 . S
H367 C400 0.930 . S
H368 C401 0.930 . S
H369 C399 0.929 . S
H370 C402 0.928 . S
O371 Co355 2.057 . S
O371 C359 1.232 . S
H372 C391 0.929 . S
H373 C392 0.929 . S
H374 C404 0.931 . S
H375 C396 0.929 . S
H376 C405 0.930 . S
H377 C397 0.931 . S
O378 Co354 2.097 . S
O378 C406 1.214 . S
H379 C407 0.929 . S
H380 C408 0.929 . S
H381 C409 0.930 . S
H382 C410 0.929 . S
H383 C412 0.930 . S
H384 C389 0.930 . S
H385 C393 0.930 . S
O386 Co355 2.037 . S
O386 C406 1.234 . S
C387 O361 1.269 . S
C387 O362 1.257 . S
C388 H363 0.930 . S
C388 C391 1.388 . S
C388 C393 1.418 . S
C389 H384 0.930 . S
C389 C392 1.404 . S
C389 C393 1.353 . S
N390 Co355 2.145 . S
N390 C391 1.397 . S
N390 C392 1.334 . S
C391 H372 0.929 . S
C391 C388 1.388 . S
C391 N390 1.397 . S
C392 H373 0.929 . S
C392 C389 1.404 . S
C392 N390 1.334 . S
C393 H385 0.930 . S
C393 C388 1.418 . S
C393 C389 1.353 . S
C394 H364 0.930 . S
C394 N395 1.330 . S
C394 C396 1.446 . S
N395 Co354 2.151 . S
N395 C394 1.330 . S
N395 C399 1.418 . S
C396 H375 0.929 . S
C396 C394 1.446 . S
C396 C397 1.332 . S
C397 H377 0.931 . S
C397 C396 1.332 . S
C397 C398 1.267 . S
C398 H366 0.929 . S
C398 C397 1.267 . S
C398 C399 1.251 . S
C399 H369 0.929 . S
C399 N395 1.418 . S
C399 C398 1.251 . S
C400 H367 0.930 . S
C400 C402 1.406 . S
C400 C405 1.261 . S
C401 H368 0.930 . S
C401 N403 1.325 . S
C401 C404 1.357 . S
C402 H370 0.928 . S
C402 C400 1.406 . S
C402 N403 1.261 . S
N403 Co354 2.214 . S
N403 C401 1.325 . S
N403 C402 1.261 . S
C404 H374 0.931 . S
C404 C401 1.357 . S
C404 C405 1.312 . S
C405 H376 0.930 . S
C405 C400 1.261 . S
C405 C404 1.312 . S
C406 O378 1.214 . S
C406 O386 1.234 . S
C407 H379 0.929 . S
C407 C410 1.391 . S
C407 C412 1.391 . S
C408 H380 0.929 . S
C408 C409 1.390 . S
C408 N411 1.391 . S
C409 H381 0.930 . S
C409 C408 1.390 . S
C409 C410 1.392 . S
C410 H382 0.929 . S
C410 C407 1.391 . S
C410 C409 1.392 . S
N411 Co355 2.257 . S
N411 C408 1.391 . S
N411 C412 1.388 . S
C412 H383 0.930 . S
C412 C407 1.391 . S
C412 N411 1.388 . S
Co413 O415 2.143 . S
Co413 O421 2.074 . S
Co413 O424 2.093 . S
Co413 O437 2.097 . S
Co413 N454 2.151 . S
Co413 N462 2.214 . S
Co414 O415 2.160 . S
Co414 O420 2.058 . S
Co414 O430 2.057 . S
Co414 O445 2.037 . S
Co414 N449 2.145 . S
Co414 N470 2.257 . S
O415 Co413 2.143 . S
O415 Co414 2.160 . S
C416 O417 1.278 . S
C416 O424 1.224 . S
O417 C416 1.278 . S
C418 O419 1.245 . S
C418 O430 1.232 . S
O419 C418 1.245 . S
O420 Co414 2.058 . S
O420 C446 1.269 . S
O421 Co413 2.074 . S
O421 C446 1.257 . S
H422 C447 0.930 . S
H423 C453 0.930 . S
O424 Co413 2.093 . S
O424 C416 1.224 . S
H425 C457 0.929 . S
H426 C459 0.930 . S
H427 C460 0.930 . S
H428 C458 0.929 . S
H429 C461 0.928 . S
O430 Co414 2.057 . S
O430 C418 1.232 . S
H431 C450 0.929 . S
H432 C451 0.929 . S
H433 C463 0.931 . S
H434 C455 0.929 . S
H435 C464 0.930 . S
H436 C456 0.931 . S
O437 Co413 2.097 . S
O437 C465 1.214 . S
H438 C466 0.929 . S
H439 C467 0.929 . S
H440 C468 0.930 . S
H441 C469 0.929 . S
H442 C471 0.930 . S
H443 C448 0.930 . S
H444 C452 0.930 . S
O445 Co414 2.037 . S
O445 C465 1.234 . S
C446 O420 1.269 . S
C446 O421 1.257 . S
C447 H422 0.930 . S
C447 C450 1.388 . S
C447 C452 1.418 1_556 S
C448 H443 0.930 . S
C448 C451 1.404 1_554 S
C448 C452 1.353 . S
N449 Co414 2.145 . S
N449 C450 1.397 . S
N449 C451 1.334 . S
C450 H431 0.929 . S
C450 C447 1.388 . S
C450 N449 1.397 . S
C451 H432 0.929 . S
C451 C448 1.404 1_556 S
C451 N449 1.334 . S
C452 H444 0.930 . S
C452 C447 1.418 1_554 S
C452 C448 1.353 . S
C453 H423 0.930 . S
C453 N454 1.330 . S
C453 C455 1.446 . S
N454 Co413 2.151 . S
N454 C453 1.330 . S
N454 C458 1.418 . S
C455 H434 0.929 . S
C455 C453 1.446 . S
C455 C456 1.332 . S
C456 H436 0.931 . S
C456 C455 1.332 . S
C456 C457 1.267 . S
C457 H425 0.929 . S
C457 C456 1.267 . S
C457 C458 1.251 . S
C458 H428 0.929 . S
C458 N454 1.418 . S
C458 C457 1.251 . S
C459 H426 0.930 . S
C459 C461 1.406 . S
C459 C464 1.261 . S
C460 H427 0.930 . S
C460 N462 1.325 . S
C460 C463 1.357 . S
C461 H429 0.928 . S
C461 C459 1.406 . S
C461 N462 1.261 . S
N462 Co413 2.214 . S
N462 C460 1.325 . S
N462 C461 1.261 . S
C463 H433 0.931 . S
C463 C460 1.357 . S
C463 C464 1.312 . S
C464 H435 0.930 . S
C464 C459 1.261 . S
C464 C463 1.312 . S
C465 O437 1.214 . S
C465 O445 1.234 . S
C466 H438 0.929 . S
C466 C469 1.391 . S
C466 C471 1.391 . S
C467 H439 0.929 . S
C467 C468 1.390 . S
C467 N470 1.391 . S
C468 H440 0.930 . S
C468 C467 1.390 . S
C468 C469 1.392 . S
C469 H441 0.929 . S
C469 C466 1.391 . S
C469 C468 1.392 . S
N470 Co414 2.257 . S
N470 C467 1.391 . S
N470 C471 1.388 . S
C471 H442 0.930 . S
C471 C466 1.391 . S
C471 N470 1.388 . S
Co472 O474 2.143 1_556 S
Co472 O480 2.074 1_556 S
Co472 O483 2.093 . S
Co472 O496 2.097 . S
Co472 N513 2.151 . S
Co472 N521 2.214 . S
Co473 O474 2.160 . S
Co473 O479 2.058 . S
Co473 O489 2.057 . S
Co473 O504 2.037 . S
Co473 N508 2.145 . S
Co473 N529 2.257 . S
O474 Co472 2.143 1_554 S
O474 Co473 2.160 . S
C475 O476 1.278 . S
C475 O483 1.224 . S
O476 C475 1.278 . S
C477 O478 1.245 . S
C477 O489 1.232 . S
O478 C477 1.245 . S
O479 Co473 2.058 . S
O479 C505 1.269 . S
O480 Co472 2.074 1_554 S
O480 C505 1.257 . S
H481 C506 0.930 . S
H482 C512 0.930 . S
O483 Co472 2.093 . S
O483 C475 1.224 . S
H484 C516 0.929 . S
H485 C518 0.930 . S
H486 C519 0.930 . S
H487 C517 0.929 . S
H488 C520 0.928 . S
O489 Co473 2.057 . S
O489 C477 1.232 . S
H490 C509 0.929 . S
H491 C510 0.929 . S
H492 C522 0.931 . S
H493 C514 0.929 . S
H494 C523 0.930 . S
H495 C515 0.931 . S
O496 Co472 2.097 . S
O496 C524 1.214 1_556 S
H497 C525 0.929 . S
H498 C526 0.929 . S
H499 C527 0.930 . S
H500 C528 0.929 . S
H501 C530 0.930 . S
H502 C507 0.930 . S
H503 C511 0.930 . S
O504 Co473 2.037 . S
O504 C524 1.234 . S
C505 O479 1.269 . S
C505 O480 1.257 . S
C506 H481 0.930 . S
C506 C509 1.388 . S
C506 C511 1.418 . S
C507 H502 0.930 . S
C507 C510 1.404 . S
C507 C511 1.353 . S
N508 Co473 2.145 . S
N508 C509 1.397 . S
N508 C510 1.334 . S
C509 H490 0.929 . S
C509 C506 1.388 . S
C509 N508 1.397 . S
C510 H491 0.929 . S
C510 C507 1.404 . S
C510 N508 1.334 . S
C511 H503 0.930 . S
C511 C506 1.418 . S
C511 C507 1.353 . S
C512 H482 0.930 . S
C512 N513 1.330 . S
C512 C514 1.446 . S
N513 Co472 2.151 . S
N513 C512 1.330 . S
N513 C517 1.418 . S
C514 H493 0.929 . S
C514 C512 1.446 . S
C514 C515 1.332 . S
C515 H495 0.931 . S
C515 C514 1.332 . S
C515 C516 1.267 . S
C516 H484 0.929 . S
C516 C515 1.267 . S
C516 C517 1.251 . S
C517 H487 0.929 . S
C517 N513 1.418 . S
C517 C516 1.251 . S
C518 H485 0.930 . S
C518 C520 1.406 . S
C518 C523 1.261 . S
C519 H486 0.930 . S
C519 N521 1.325 . S
C519 C522 1.357 . S
C520 H488 0.928 . S
C520 C518 1.406 . S
C520 N521 1.261 . S
N521 Co472 2.214 . S
N521 C519 1.325 . S
N521 C520 1.261 . S
C522 H492 0.931 . S
C522 C519 1.357 . S
C522 C523 1.312 . S
C523 H494 0.930 . S
C523 C518 1.261 . S
C523 C522 1.312 . S
C524 O496 1.214 1_554 S
C524 O504 1.234 . S
C525 H497 0.929 . S
C525 C528 1.391 . S
C525 C530 1.391 . S
C526 H498 0.929 . S
C526 C527 1.390 . S
C526 N529 1.391 . S
C527 H499 0.930 . S
C527 C526 1.390 . S
C527 C528 1.392 . S
C528 H500 0.929 . S
C528 C525 1.391 . S
C528 C527 1.392 . S
N529 Co473 2.257 . S
N529 C526 1.391 . S
N529 C530 1.388 . S
C530 H501 0.930 . S
C530 C525 1.391 . S
C530 N529 1.388 . S
Co531 O533 2.143 . S
Co531 O539 2.074 . S
Co531 O542 2.093 . S
Co531 O555 2.097 . S
Co531 N572 2.151 . S
Co531 N580 2.214 . S
Co532 O533 2.160 . S
Co532 O538 2.058 . S
Co532 O548 2.057 . S
Co532 O563 2.037 . S
Co532 N567 2.145 . S
Co532 N588 2.257 . S
O533 Co531 2.143 . S
O533 Co532 2.160 . S
C534 O535 1.278 . S
C534 O542 1.224 . S
O535 C534 1.278 . S
C536 O537 1.245 . S
C536 O548 1.232 . S
O537 C536 1.245 . S
O538 Co532 2.058 . S
O538 C564 1.269 . S
O539 Co531 2.074 . S
O539 C564 1.257 . S
H540 C565 0.930 . S
H541 C571 0.930 . S
O542 Co531 2.093 . S
O542 C534 1.224 . S
H543 C575 0.929 . S
H544 C577 0.930 . S
H545 C578 0.930 . S
H546 C576 0.929 . S
H547 C579 0.928 . S
O548 Co532 2.057 . S
O548 C536 1.232 . S
H549 C568 0.929 . S
H550 C569 0.929 . S
H551 C581 0.931 . S
H552 C573 0.929 . S
H553 C582 0.930 . S
H554 C574 0.931 . S
O555 Co531 2.097 . S
O555 C583 1.214 . S
H556 C584 0.929 . S
H557 C585 0.929 . S
H558 C586 0.930 . S
H559 C587 0.929 . S
H560 C589 0.930 . S
H561 C566 0.930 . S
H562 C570 0.930 . S
O563 Co532 2.037 . S
O563 C583 1.234 . S
C564 O538 1.269 . S
C564 O539 1.257 . S
C565 H540 0.930 . S
C565 C568 1.388 . S
C565 C570 1.418 . S
C566 H561 0.930 . S
C566 C569 1.404 . S
C566 C570 1.353 . S
N567 Co532 2.145 . S
N567 C568 1.397 . S
N567 C569 1.334 . S
C568 H549 0.929 . S
C568 C565 1.388 . S
C568 N567 1.397 . S
C569 H550 0.929 . S
C569 C566 1.404 . S
C569 N567 1.334 . S
C570 H562 0.930 . S
C570 C565 1.418 . S
C570 C566 1.353 . S
C571 H541 0.930 . S
C571 N572 1.330 . S
C571 C573 1.446 . S
N572 Co531 2.151 . S
N572 C571 1.330 . S
N572 C576 1.418 . S
C573 H552 0.929 . S
C573 C571 1.446 . S
C573 C574 1.332 . S
C574 H554 0.931 . S
C574 C573 1.332 . S
C574 C575 1.267 . S
C575 H543 0.929 . S
C575 C574 1.267 . S
C575 C576 1.251 . S
C576 H546 0.929 . S
C576 N572 1.418 . S
C576 C575 1.251 . S
C577 H544 0.930 . S
C577 C579 1.406 . S
C577 C582 1.261 . S
C578 H545 0.930 . S
C578 N580 1.325 . S
C578 C581 1.357 . S
C579 H547 0.928 . S
C579 C577 1.406 . S
C579 N580 1.261 . S
N580 Co531 2.214 . S
N580 C578 1.325 . S
N580 C579 1.261 . S
C581 H551 0.931 . S
C581 C578 1.357 . S
C581 C582 1.312 . S
C582 H553 0.930 . S
C582 C577 1.261 . S
C582 C581 1.312 . S
C583 O555 1.214 . S
C583 O563 1.234 . S
C584 H556 0.929 . S
C584 C587 1.391 . S
C584 C589 1.391 . S
C585 H557 0.929 . S
C585 C586 1.390 . S
C585 N588 1.391 . S
C586 H558 0.930 . S
C586 C585 1.390 . S
C586 C587 1.392 . S
C587 H559 0.929 . S
C587 C584 1.391 . S
C587 C586 1.392 . S
N588 Co532 2.257 . S
N588 C585 1.391 . S
N588 C589 1.388 . S
C589 H560 0.930 . S
C589 C584 1.391 . S
C589 N588 1.388 . S
Co590 O592 2.143 . S
Co590 O598 2.074 . S
Co590 O601 2.093 . S
Co590 O614 2.097 . S
Co590 N631 2.151 . S
Co590 N639 2.214 . S
Co591 O592 2.160 . S
Co591 O597 2.058 . S
Co591 O607 2.057 . S
Co591 O622 2.037 . S
Co591 N626 2.145 . S
Co591 N647 2.257 . S
O592 Co590 2.143 . S
O592 Co591 2.160 . S
C593 O594 1.278 . S
C593 O601 1.224 . S
O594 C593 1.278 . S
C595 O596 1.245 . S
C595 O607 1.232 . S
O596 C595 1.245 . S
O597 Co591 2.058 . S
O597 C623 1.269 . S
O598 Co590 2.074 . S
O598 C623 1.257 . S
H599 C624 0.930 . S
H600 C630 0.930 . S
O601 Co590 2.093 . S
O601 C593 1.224 . S
H602 C634 0.929 . S
H603 C636 0.930 . S
H604 C637 0.930 . S
H605 C635 0.929 . S
H606 C638 0.928 . S
O607 Co591 2.057 . S
O607 C595 1.232 . S
H608 C627 0.929 . S
H609 C628 0.929 . S
H610 C640 0.931 . S
H611 C632 0.929 . S
H612 C641 0.930 . S
H613 C633 0.931 . S
O614 Co590 2.097 . S
O614 C642 1.214 . S
H615 C643 0.929 . S
H616 C644 0.929 . S
H617 C645 0.930 . S
H618 C646 0.929 . S
H619 C648 0.930 . S
H620 C625 0.930 . S
H621 C629 0.930 . S
O622 Co591 2.037 . S
O622 C642 1.234 . S
C623 O597 1.269 . S
C623 O598 1.257 . S
C624 H599 0.930 . S
C624 C627 1.388 . S
C624 C629 1.418 1_556 S
C625 H620 0.930 . S
C625 C628 1.404 1_554 S
C625 C629 1.353 . S
N626 Co591 2.145 . S
N626 C627 1.397 . S
N626 C628 1.334 . S
C627 H608 0.929 . S
C627 C624 1.388 . S
C627 N626 1.397 . S
C628 H609 0.929 . S
C628 C625 1.404 1_556 S
C628 N626 1.334 . S
C629 H621 0.930 . S
C629 C624 1.418 1_554 S
C629 C625 1.353 . S
C630 H600 0.930 . S
C630 N631 1.330 . S
C630 C632 1.446 . S
N631 Co590 2.151 . S
N631 C630 1.330 . S
N631 C635 1.418 . S
C632 H611 0.929 . S
C632 C630 1.446 . S
C632 C633 1.332 . S
C633 H613 0.931 . S
C633 C632 1.332 . S
C633 C634 1.267 . S
C634 H602 0.929 . S
C634 C633 1.267 . S
C634 C635 1.251 . S
C635 H605 0.929 . S
C635 N631 1.418 . S
C635 C634 1.251 . S
C636 H603 0.930 . S
C636 C638 1.406 . S
C636 C641 1.261 . S
C637 H604 0.930 . S
C637 N639 1.325 . S
C637 C640 1.357 . S
C638 H606 0.928 . S
C638 C636 1.406 . S
C638 N639 1.261 . S
N639 Co590 2.214 . S
N639 C637 1.325 . S
N639 C638 1.261 . S
C640 H610 0.931 . S
C640 C637 1.357 . S
C640 C641 1.312 . S
C641 H612 0.930 . S
C641 C636 1.261 . S
C641 C640 1.312 . S
C642 O614 1.214 . S
C642 O622 1.234 . S
C643 H615 0.929 . S
C643 C646 1.391 . S
C643 C648 1.391 . S
C644 H616 0.929 . S
C644 C645 1.390 . S
C644 N647 1.391 . S
C645 H617 0.930 . S
C645 C644 1.390 . S
C645 C646 1.392 . S
C646 H618 0.929 . S
C646 C643 1.391 . S
C646 C645 1.392 . S
N647 Co591 2.257 . S
N647 C644 1.391 . S
N647 C648 1.388 . S
C648 H619 0.930 . S
C648 C643 1.391 . S
C648 N647 1.388 . S
Co649 O651 2.143 1_556 S
Co649 O657 2.074 1_556 S
Co649 O660 2.093 . S
Co649 O673 2.097 . S
Co649 N690 2.151 . S
Co649 N698 2.214 . S
Co650 O651 2.160 . S
Co650 O656 2.058 . S
Co650 O666 2.057 . S
Co650 O681 2.037 . S
Co650 N685 2.145 . S
Co650 N706 2.257 . S
O651 Co649 2.143 1_554 S
O651 Co650 2.160 . S
C652 O653 1.278 . S
C652 O660 1.224 . S
O653 C652 1.278 . S
C654 O655 1.245 . S
C654 O666 1.232 . S
O655 C654 1.245 . S
O656 Co650 2.058 . S
O656 C682 1.269 . S
O657 Co649 2.074 1_554 S
O657 C682 1.257 . S
H658 C683 0.930 . S
H659 C689 0.930 . S
O660 Co649 2.093 . S
O660 C652 1.224 . S
H661 C693 0.929 . S
H662 C695 0.930 . S
H663 C696 0.930 . S
H664 C694 0.929 . S
H665 C697 0.928 . S
O666 Co650 2.057 . S
O666 C654 1.232 . S
H667 C686 0.929 . S
H668 C687 0.929 . S
H669 C699 0.931 . S
H670 C691 0.929 . S
H671 C700 0.930 . S
H672 C692 0.931 . S
O673 Co649 2.097 . S
O673 C701 1.214 1_556 S
H674 C702 0.929 . S
H675 C703 0.929 . S
H676 C704 0.930 . S
H677 C705 0.929 . S
H678 C707 0.930 . S
H679 C684 0.930 . S
H680 C688 0.930 . S
O681 Co650 2.037 . S
O681 C701 1.234 . S
C682 O656 1.269 . S
C682 O657 1.257 . S
C683 H658 0.930 . S
C683 C686 1.388 . S
C683 C688 1.418 . S
C684 H679 0.930 . S
C684 C687 1.404 . S
C684 C688 1.353 . S
N685 Co650 2.145 . S
N685 C686 1.397 . S
N685 C687 1.334 . S
C686 H667 0.929 . S
C686 C683 1.388 . S
C686 N685 1.397 . S
C687 H668 0.929 . S
C687 C684 1.404 . S
C687 N685 1.334 . S
C688 H680 0.930 . S
C688 C683 1.418 . S
C688 C684 1.353 . S
C689 H659 0.930 . S
C689 N690 1.330 . S
C689 C691 1.446 . S
N690 Co649 2.151 . S
N690 C689 1.330 . S
N690 C694 1.418 . S
C691 H670 0.929 . S
C691 C689 1.446 . S
C691 C692 1.332 . S
C692 H672 0.931 . S
C692 C691 1.332 . S
C692 C693 1.267 . S
C693 H661 0.929 . S
C693 C692 1.267 . S
C693 C694 1.251 . S
C694 H664 0.929 . S
C694 N690 1.418 . S
C694 C693 1.251 . S
C695 H662 0.930 . S
C695 C697 1.406 . S
C695 C700 1.261 . S
C696 H663 0.930 . S
C696 N698 1.325 . S
C696 C699 1.357 . S
C697 H665 0.928 . S
C697 C695 1.406 . S
C697 N698 1.261 . S
N698 Co649 2.214 . S
N698 C696 1.325 . S
N698 C697 1.261 . S
C699 H669 0.931 . S
C699 C696 1.357 . S
C699 C700 1.312 . S
C700 H671 0.930 . S
C700 C695 1.261 . S
C700 C699 1.312 . S
C701 O673 1.214 1_554 S
C701 O681 1.234 . S
C702 H674 0.929 . S
C702 C705 1.391 . S
C702 C707 1.391 . S
C703 H675 0.929 . S
C703 C704 1.390 . S
C703 N706 1.391 . S
C704 H676 0.930 . S
C704 C703 1.390 . S
C704 C705 1.392 . S
C705 H677 0.929 . S
C705 C702 1.391 . S
C705 C704 1.392 . S
N706 Co650 2.257 . S
N706 C703 1.391 . S
N706 C707 1.388 . S
C707 H678 0.930 . S
C707 C702 1.391 . S
C707 N706 1.388 . S
C708 C709 1.363 . S
C708 C714 1.379 . S
C708 N716 1.356 . S
C709 C708 1.363 . S
C709 C715 1.363 . S
C710 C711 1.363 . S
C710 C715 1.379 . S
C710 N717 1.356 . S
C711 C710 1.363 . S
C711 C714 1.363 . S
N712 C714 1.356 . S
N712 H724 0.984 . S
N712 H725 0.985 . S
N713 C715 1.356 . S
N713 H718 0.984 . S
N713 H719 0.985 . S
C714 C708 1.379 . S
C714 C711 1.363 . S
C714 N712 1.356 . S
C715 C709 1.363 . S
C715 C710 1.379 . S
C715 N713 1.356 . S
N716 C708 1.356 . S
N716 H722 0.984 . S
N716 H723 0.984 . S
N717 C710 1.356 . S
N717 H720 0.984 . S
N717 H721 0.985 . S
H718 N713 0.984 . S
H719 N713 0.985 . S
H720 N717 0.984 . S
H721 N717 0.985 . S
H722 N716 0.984 . S
H723 N716 0.984 . S
H724 N712 0.984 . S
H725 N712 0.985 . S
C726 C727 1.363 . S
C726 C732 1.379 1_655 S
C726 N734 1.356 . S
C727 C726 1.363 . S
C727 C733 1.363 . S
C728 C729 1.363 . S
C728 C733 1.379 1_455 S
C728 N735 1.356 . S
C729 C728 1.363 . S
C729 C732 1.363 . S
N730 C732 1.356 . S
N730 H742 0.984 1_455 S
N730 H743 0.985 . S
N731 C733 1.356 . S
N731 H736 0.984 . S
N731 H737 0.985 1_655 S
C732 C726 1.379 1_455 S
C732 C729 1.363 . S
C732 N730 1.356 . S
C733 C727 1.363 . S
C733 C728 1.379 1_655 S
C733 N731 1.356 . S
N734 C726 1.356 . S
N734 H740 0.984 . S
N734 H741 0.984 . S
N735 C728 1.356 . S
N735 H738 0.984 . S
N735 H739 0.985 . S
H736 N731 0.984 . S
H737 N731 0.985 1_455 S
H738 N735 0.984 . S
H739 N735 0.985 . S
H740 N734 0.984 . S
H741 N734 0.984 . S
H742 N730 0.984 1_655 S
H743 N730 0.985 . S
C744 C745 1.363 1_554 S
C744 C750 1.379 . S
C744 N752 1.356 . S
C745 C744 1.363 1_556 S
C745 C751 1.363 1_565 S
C746 C747 1.363 1_556 S
C746 C751 1.379 . S
C746 N753 1.356 . S
C747 C746 1.363 1_554 S
C747 C750 1.363 1_545 S
N748 C750 1.356 1_545 S
N748 H760 0.984 1_545 S
N748 H761 0.985 . S
N749 C751 1.356 1_565 S
N749 H754 0.984 . S
N749 H755 0.985 1_565 S
C750 C744 1.379 . S
C750 C747 1.363 1_565 S
C750 N748 1.356 1_565 S
C751 C745 1.363 1_545 S
C751 C746 1.379 . S
C751 N749 1.356 1_545 S
N752 C744 1.356 . S
N752 H758 0.984 . S
N752 H759 0.984 1_554 S
N753 C746 1.356 . S
N753 H756 0.984 1_556 S
N753 H757 0.985 . S
H754 N749 0.984 . S
H755 N749 0.985 1_545 S
H756 N753 0.984 1_554 S
H757 N753 0.985 . S
H758 N752 0.984 . S
H759 N752 0.984 1_556 S
H760 N748 0.984 1_565 S
H761 N748 0.985 . S
C762 C763 1.363 . S
C762 C768 1.379 . S
C762 N770 1.356 . S
C763 C762 1.363 . S
C763 C769 1.363 . S
C764 C765 1.363 . S
C764 C769 1.379 . S
C764 N771 1.356 . S
C765 C764 1.363 . S
C765 C768 1.363 . S
N766 C768 1.356 . S
N766 H778 0.984 . S
N766 H779 0.985 . S
N767 C769 1.356 . S
N767 H772 0.984 . S
N767 H773 0.985 . S
C768 C762 1.379 . S
C768 C765 1.363 . S
C768 N766 1.356 . S
C769 C763 1.363 . S
C769 C764 1.379 . S
C769 N767 1.356 . S
N770 C762 1.356 . S
N770 H776 0.984 . S
N770 H777 0.984 . S
N771 C764 1.356 . S
N771 H774 0.984 . S
N771 H775 0.985 . S
H772 N767 0.984 . S
H773 N767 0.985 . S
H774 N771 0.984 . S
H775 N771 0.985 . S
H776 N770 0.984 . S
H777 N770 0.984 . S
H778 N766 0.984 . S
H779 N766 0.985 . S
C780 C781 1.363 1_455 S
C780 C786 1.379 . S
C780 N788 1.356 1_455 S
C781 C780 1.363 1_655 S
C781 C787 1.363 . S
C782 C783 1.363 1_655 S
C782 C787 1.379 . S
C782 N789 1.356 1_655 S
C783 C782 1.363 1_455 S
C783 C786 1.363 . S
N784 C786 1.356 . S
N784 H796 0.984 . S
N784 H797 0.985 . S
N785 C787 1.356 . S
N785 H790 0.984 . S
N785 H791 0.985 . S
C786 C780 1.379 . S
C786 C783 1.363 . S
C786 N784 1.356 . S
C787 C781 1.363 . S
C787 C782 1.379 . S
C787 N785 1.356 . S
N788 C780 1.356 1_655 S
N788 H794 0.984 1_655 S
N788 H795 0.984 . S
N789 C782 1.356 1_455 S
N789 H792 0.984 . S
N789 H793 0.985 1_455 S
H790 N785 0.984 . S
H791 N785 0.985 . S
H792 N789 0.984 . S
H793 N789 0.985 1_655 S
H794 N788 0.984 1_455 S
H795 N788 0.984 . S
H796 N784 0.984 . S
H797 N784 0.985 . S
C798 C799 1.363 1_556 S
C798 C804 1.379 . S
C798 N806 1.356 . S
C799 C798 1.363 1_554 S
C799 C805 1.363 1_565 S
C800 C801 1.363 1_554 S
C800 C805 1.379 . S
C800 N807 1.356 . S
C801 C800 1.363 1_556 S
C801 C804 1.363 1_545 S
N802 C804 1.356 1_545 S
N802 H814 0.984 1_545 S
N802 H815 0.985 . S
N803 C805 1.356 1_565 S
N803 H808 0.984 . S
N803 H809 0.985 1_565 S
C804 C798 1.379 . S
C804 C801 1.363 1_565 S
C804 N802 1.356 1_565 S
C805 C799 1.363 1_545 S
C805 C800 1.379 . S
C805 N803 1.356 1_545 S
N806 C798 1.356 . S
N806 H812 0.984 . S
N806 H813 0.984 1_556 S
N807 C800 1.356 . S
N807 H810 0.984 1_554 S
N807 H811 0.985 . S
H808 N803 0.984 . S
H809 N803 0.985 1_545 S
H810 N807 0.984 1_556 S
H811 N807 0.985 . S
H812 N806 0.984 . S
H813 N806 0.984 1_554 S
H814 N802 0.984 1_565 S
H815 N802 0.985 . S
C816 C817 1.363 1_554 S
C816 C822 1.379 . S
C816 N824 1.356 1_554 S
C817 C816 1.363 1_556 S
C817 C823 1.363 . S
C818 C819 1.363 1_556 S
C818 C823 1.379 . S
C818 N825 1.356 1_556 S
C819 C818 1.363 1_554 S
C819 C822 1.363 . S
N820 C822 1.356 . S
N820 H832 0.984 . S
N820 H833 0.985 . S
N821 C823 1.356 . S
N821 H826 0.984 . S
N821 H827 0.985 . S
C822 C816 1.379 . S
C822 C819 1.363 . S
C822 N820 1.356 . S
C823 C817 1.363 . S
C823 C818 1.379 . S
C823 N821 1.356 . S
N824 C816 1.356 1_556 S
N824 H830 0.984 1_556 S
N824 H831 0.984 . S
N825 C818 1.356 1_554 S
N825 H828 0.984 . S
N825 H829 0.985 1_554 S
H826 N821 0.984 . S
H827 N821 0.985 . S
H828 N825 0.984 . S
H829 N825 0.985 1_556 S
H830 N824 0.984 1_554 S
H831 N824 0.984 . S
H832 N820 0.984 . S
H833 N820 0.985 . S
C834 C835 1.363 . S
C834 C840 1.379 . S
C834 N842 1.356 . S
C835 C834 1.363 . S
C835 C841 1.363 . S
C836 C837 1.363 . S
C836 C841 1.379 . S
C836 N843 1.356 . S
C837 C836 1.363 . S
C837 C840 1.363 . S
N838 C840 1.356 . S
N838 H850 0.984 . S
N838 H851 0.985 . S
N839 C841 1.356 . S
N839 H844 0.984 . S
N839 H845 0.985 . S
C840 C834 1.379 . S
C840 C837 1.363 . S
C840 N838 1.356 . S
C841 C835 1.363 . S
C841 C836 1.379 . S
C841 N839 1.356 . S
N842 C834 1.356 . S
N842 H848 0.984 . S
N842 H849 0.984 . S
N843 C836 1.356 . S
N843 H846 0.984 . S
N843 H847 0.985 . S
H844 N839 0.984 . S
H845 N839 0.985 . S
H846 N843 0.984 . S
H847 N843 0.985 . S
H848 N842 0.984 . S
H849 N842 0.984 . S
H850 N838 0.984 . S
H851 N838 0.985 . S
C852 C853 1.363 . S
C852 C858 1.379 . S
C852 N860 1.356 . S
C853 C852 1.363 . S
C853 C859 1.363 . S
C854 C855 1.363 . S
C854 C859 1.379 . S
C854 N861 1.356 . S
C855 C854 1.363 . S
C855 C858 1.363 . S
N856 C858 1.356 . S
N856 H868 0.984 . S
N856 H869 0.985 . S
N857 C859 1.356 . S
N857 H862 0.984 . S
N857 H863 0.985 . S
C858 C852 1.379 . S
C858 C855 1.363 . S
C858 N856 1.356 . S
C859 C853 1.363 . S
C859 C854 1.379 . S
C859 N857 1.356 . S
N860 C852 1.356 . S
N860 H866 0.984 . S
N860 H867 0.984 . S
N861 C854 1.356 . S
N861 H864 0.984 . S
N861 H865 0.985 . S
H862 N857 0.984 . S
H863 N857 0.985 . S
H864 N861 0.984 . S
H865 N861 0.985 . S
H866 N860 0.984 . S
H867 N860 0.984 . S
H868 N856 0.984 . S
H869 N856 0.985 . S
C870 C871 1.363 . S
C870 C876 1.379 . S
C870 N878 1.356 . S
C871 C870 1.363 . S
C871 C877 1.363 1_554 S
C872 C873 1.363 . S
C872 C877 1.379 . S
C872 N879 1.356 . S
C873 C872 1.363 . S
C873 C876 1.363 1_556 S
N874 C876 1.356 1_556 S
N874 H886 0.984 1_556 S
N874 H887 0.985 . S
N875 C877 1.356 1_554 S
N875 H880 0.984 . S
N875 H881 0.985 1_554 S
C876 C870 1.379 . S
C876 C873 1.363 1_554 S
C876 N874 1.356 1_554 S
C877 C871 1.363 1_556 S
C877 C872 1.379 . S
C877 N875 1.356 1_556 S
N878 C870 1.356 . S
N878 H884 0.984 . S
N878 H885 0.984 . S
N879 C872 1.356 . S
N879 H882 0.984 . S
N879 H883 0.985 . S
H880 N875 0.984 . S
H881 N875 0.985 1_556 S
H882 N879 0.984 . S
H883 N879 0.985 . S
H884 N878 0.984 . S
H885 N878 0.984 . S
H886 N874 0.984 1_554 S
H887 N874 0.985 . S
C888 C889 1.363 . S
C888 C894 1.379 . S
C888 N896 1.356 . S
C889 C888 1.363 . S
C889 C895 1.363 . S
C890 C891 1.363 . S
C890 C895 1.379 . S
C890 N897 1.356 . S
C891 C890 1.363 . S
C891 C894 1.363 . S
N892 C894 1.356 . S
N892 H904 0.984 . S
N892 H905 0.985 . S
N893 C895 1.356 . S
N893 H898 0.984 . S
N893 H899 0.985 . S
C894 C888 1.379 . S
C894 C891 1.363 . S
C894 N892 1.356 . S
C895 C889 1.363 . S
C895 C890 1.379 . S
C895 N893 1.356 . S
N896 C888 1.356 . S
N896 H902 0.984 . S
N896 H903 0.984 . S
N897 C890 1.356 . S
N897 H900 0.984 . S
N897 H901 0.985 . S
H898 N893 0.984 . S
H899 N893 0.985 . S
H900 N897 0.984 . S
H901 N897 0.985 . S
H902 N896 0.984 . S
H903 N896 0.984 . S
H904 N892 0.984 . S
H905 N892 0.985 . S
C906 C907 1.363 . S
C906 C912 1.379 . S
C906 N914 1.356 . S
C907 C906 1.363 . S
C907 C913 1.363 . S
C908 C909 1.363 . S
C908 C913 1.379 . S
C908 N915 1.356 . S
C909 C908 1.363 . S
C909 C912 1.363 . S
N910 C912 1.356 . S
N910 H922 0.984 . S
N910 H923 0.985 . S
N911 C913 1.356 . S
N911 H916 0.984 . S
N911 H917 0.985 . S
C912 C906 1.379 . S
C912 C909 1.363 . S
C912 N910 1.356 . S
C913 C907 1.363 . S
C913 C908 1.379 . S
C913 N911 1.356 . S
N914 C906 1.356 . S
N914 H920 0.984 . S
N914 H921 0.984 . S
N915 C908 1.356 . S
N915 H918 0.984 . S
N915 H919 0.985 . S
H916 N911 0.984 . S
H917 N911 0.985 . S
H918 N915 0.984 . S
H919 N915 0.985 . S
H920 N914 0.984 . S
H921 N914 0.984 . S
H922 N910 0.984 . S
H923 N910 0.985 . S
C924 C925 1.363 . S
C924 C930 1.379 . S
C924 N932 1.356 . S
C925 C924 1.363 . S
C925 C931 1.363 . S
C926 C927 1.363 . S
C926 C931 1.379 . S
C926 N933 1.356 . S
C927 C926 1.363 . S
C927 C930 1.363 . S
N928 C930 1.356 . S
N928 H940 0.984 . S
N928 H941 0.985 . S
N929 C931 1.356 . S
N929 H934 0.984 . S
N929 H935 0.985 . S
C930 C924 1.379 . S
C930 C927 1.363 . S
C930 N928 1.356 . S
C931 C925 1.363 . S
C931 C926 1.379 . S
C931 N929 1.356 . S
N932 C924 1.356 . S
N932 H938 0.984 . S
N932 H939 0.984 . S
N933 C926 1.356 . S
N933 H936 0.984 . S
N933 H937 0.985 . S
H934 N929 0.984 . S
H935 N929 0.985 . S
H936 N933 0.984 . S
H937 N933 0.985 . S
H938 N932 0.984 . S
H939 N932 0.984 . S
H940 N928 0.984 . S
H941 N928 0.985 . S
C942 C943 1.363 . S
C942 C948 1.379 . S
C942 N950 1.356 . S
C943 C942 1.363 . S
C943 C949 1.363 . S
C944 C945 1.363 . S
C944 C949 1.379 . S
C944 N951 1.356 . S
C945 C944 1.363 . S
C945 C948 1.363 . S
N946 C948 1.356 . S
N946 H958 0.984 . S
N946 H959 0.995 . S
N947 C949 1.356 . S
N947 H952 0.984 . S
N947 H953 0.985 . S
C948 C942 1.379 . S
C948 C945 1.363 . S
C948 N946 1.356 . S
C949 C943 1.363 . S
C949 C944 1.379 . S
C949 N947 1.356 . S
N950 C942 1.356 . S
N950 H956 0.984 . S
N950 H957 0.984 . S
N951 C944 1.356 . S
N951 H954 0.984 . S
N951 H955 0.985 . S
H952 N947 0.984 . S
H953 N947 0.985 . S
H954 N951 0.984 . S
H955 N951 0.985 . S
H956 N950 0.984 . S
H957 N950 0.984 . S
H958 N946 0.984 . S
H959 N946 0.995 . S
C960 C961 1.363 . S
C960 C966 1.379 . S
C960 N968 1.356 . S
C961 C960 1.363 . S
C961 C967 1.363 . S
C962 C963 1.363 . S
C962 C967 1.379 . S
C962 N969 1.356 . S
C963 C962 1.363 . S
C963 C966 1.363 . S
N964 C966 1.356 . S
N964 H976 0.984 . S
N964 H977 0.985 . S
N965 C967 1.356 . S
N965 H970 0.984 . S
N965 H971 0.985 . S
C966 C960 1.379 . S
C966 C963 1.363 . S
C966 N964 1.356 . S
C967 C961 1.363 . S
C967 C962 1.379 . S
C967 N965 1.356 . S
N968 C960 1.356 . S
N968 H974 0.984 . S
N968 H975 0.984 . S
N969 C962 1.356 . S
N969 H972 0.984 . S
N969 H973 0.985 . S
H970 N965 0.984 . S
H971 N965 0.985 . S
H972 N969 0.984 . S
H973 N969 0.985 . S
H974 N968 0.984 . S
H975 N968 0.984 . S
H976 N964 0.984 . S
H977 N964 0.985 . S
C978 C979 1.363 . S
C978 C984 1.379 . S
C978 N986 1.356 . S
C979 C978 1.363 . S
C979 C985 1.363 . S
C980 C981 1.363 . S
C980 C985 1.379 . S
C980 N987 1.356 . S
C981 C980 1.363 . S
C981 C984 1.363 . S
N982 C984 1.356 . S
N982 H994 0.984 . S
N982 H995 0.985 . S
N983 C985 1.356 . S
N983 H988 0.984 . S
N983 H989 0.985 . S
C984 C978 1.379 . S
C984 C981 1.363 . S
C984 N982 1.356 . S
C985 C979 1.363 . S
C985 C980 1.379 . S
C985 N983 1.356 . S
N986 C978 1.356 . S
N986 H992 0.984 . S
N986 H993 0.984 . S
N987 C980 1.356 . S
N987 H990 0.984 . S
N987 H991 0.985 . S
H988 N983 0.984 . S
H989 N983 0.985 . S
H990 N987 0.984 . S
H991 N987 0.985 . S
H992 N986 0.984 . S
H993 N986 0.984 . S
H994 N982 0.984 . S
H995 N982 0.985 . S
C996 C997 1.363 . S
C996 C1002 1.379 . S
C996 N1004 1.356 . S
C997 C996 1.363 . S
C997 C1003 1.363 . S
C998 C999 1.363 . S
C998 C1003 1.379 . S
C998 N1005 1.356 . S
C999 C998 1.363 . S
C999 C1002 1.363 . S
N1000 C1002 1.356 . S
N1000 H1012 0.984 . S
N1000 H1013 0.985 . S
N1001 C1003 1.356 . S
N1001 H1006 0.984 . S
N1001 H1007 0.985 . S
C1002 C996 1.379 . S
C1002 C999 1.363 . S
C1002 N1000 1.356 . S
C1003 C997 1.363 . S
C1003 C998 1.379 . S
C1003 N1001 1.356 . S
N1004 C996 1.356 . S
N1004 H1010 0.984 . S
N1004 H1011 0.984 . S
N1005 C998 1.356 . S
N1005 H1008 0.984 . S
N1005 H1009 0.985 . S
H1006 N1001 0.984 . S
H1007 N1001 0.985 . S
H1008 N1005 0.984 . S
H1009 N1005 0.985 . S
H1010 N1004 0.984 . S
H1011 N1004 0.984 . S
H1012 N1000 0.984 . S
H1013 N1000 0.985 . S
C1014 C1015 1.363 . S
C1014 C1020 1.379 . S
C1014 N1022 1.356 . S
C1015 C1014 1.363 . S
C1015 C1021 1.363 . S
C1016 C1017 1.363 . S
C1016 C1021 1.379 . S
C1016 N1023 1.356 . S
C1017 C1016 1.363 . S
C1017 C1020 1.363 . S
N1018 C1020 1.356 . S
N1018 H1030 0.984 . S
N1018 H1031 0.985 . S
N1019 C1021 1.356 . S
N1019 H1024 0.984 . S
N1019 H1025 0.985 . S
C1020 C1014 1.379 . S
C1020 C1017 1.363 . S
C1020 N1018 1.356 . S
C1021 C1015 1.363 . S
C1021 C1016 1.379 . S
C1021 N1019 1.356 . S
N1022 C1014 1.356 . S
N1022 H1028 0.984 . S
N1022 H1029 0.984 . S
N1023 C1016 1.356 . S
N1023 H1026 0.984 . S
N1023 H1027 0.985 . S
H1024 N1019 0.984 . S
H1025 N1019 0.985 . S
H1026 N1023 0.984 . S
H1027 N1023 0.985 . S
H1028 N1022 0.984 . S
H1029 N1022 0.984 . S
H1030 N1018 0.984 . S
H1031 N1018 0.985 . S
C1032 C1033 1.363 . S
C1032 C1038 1.379 . S
C1032 N1040 1.356 . S
C1033 C1032 1.363 . S
C1033 C1039 1.363 . S
C1034 C1035 1.363 . S
C1034 C1039 1.379 . S
C1034 N1041 1.356 . S
C1035 C1034 1.363 . S
C1035 C1038 1.363 . S
N1036 C1038 1.356 . S
N1036 H1048 0.984 . S
N1036 H1049 0.985 . S
N1037 C1039 1.356 . S
N1037 H1042 0.984 . S
N1037 H1043 0.985 . S
C1038 C1032 1.379 . S
C1038 C1035 1.363 . S
C1038 N1036 1.356 . S
C1039 C1033 1.363 . S
C1039 C1034 1.379 . S
C1039 N1037 1.356 . S
N1040 C1032 1.356 . S
N1040 H1046 0.984 . S
N1040 H1047 0.984 . S
N1041 C1034 1.356 . S
N1041 H1044 0.984 . S
N1041 H1045 0.985 . S
H1042 N1037 0.984 . S
H1043 N1037 0.985 . S
H1044 N1041 0.984 . S
H1045 N1041 0.985 . S
H1046 N1040 0.984 . S
H1047 N1040 0.984 . S
H1048 N1036 0.984 . S
H1049 N1036 0.985 . S
C1050 C1051 1.363 . S
C1050 C1056 1.379 . S
C1050 N1058 1.356 . S
C1051 C1050 1.363 . S
C1051 C1057 1.363 . S
C1052 C1053 1.363 . S
C1052 C1057 1.379 . S
C1052 N1059 1.356 . S
C1053 C1052 1.363 . S
C1053 C1056 1.363 . S
N1054 C1056 1.356 . S
N1054 H1066 0.984 . S
N1054 H1067 0.985 . S
N1055 C1057 1.356 . S
N1055 H1060 0.984 . S
N1055 H1061 0.985 . S
C1056 C1050 1.379 . S
C1056 C1053 1.363 . S
C1056 N1054 1.356 . S
C1057 C1051 1.363 . S
C1057 C1052 1.379 . S
C1057 N1055 1.356 . S
N1058 C1050 1.356 . S
N1058 H1064 0.984 . S
N1058 H1065 0.984 . S
N1059 C1052 1.356 . S
N1059 H1062 0.984 . S
N1059 H1063 0.985 . S
H1060 N1055 0.984 . S
H1061 N1055 0.985 . S
H1062 N1059 0.984 . S
H1063 N1059 0.985 . S
H1064 N1058 0.984 . S
H1065 N1058 0.984 . S
H1066 N1054 0.984 . S
H1067 N1054 0.985 . S
C1068 C1069 1.363 1_556 S
C1068 C1074 1.379 . S
C1068 N1076 1.356 . S
C1069 C1068 1.363 1_554 S
C1069 C1075 1.363 . S
C1070 C1071 1.363 1_554 S
C1070 C1075 1.379 . S
C1070 N1077 1.356 . S
C1071 C1070 1.363 1_556 S
C1071 C1074 1.363 . S
N1072 C1074 1.356 . S
N1072 H1084 0.984 . S
N1072 H1085 0.985 . S
N1073 C1075 1.356 . S
N1073 H1078 0.984 . S
N1073 H1079 0.985 . S
C1074 C1068 1.379 . S
C1074 C1071 1.363 . S
C1074 N1072 1.356 . S
C1075 C1069 1.363 . S
C1075 C1070 1.379 . S
C1075 N1073 1.356 . S
N1076 C1068 1.356 . S
N1076 H1082 0.984 . S
N1076 H1083 0.984 . S
N1077 C1070 1.356 . S
N1077 H1080 0.984 . S
N1077 H1081 0.985 . S
H1078 N1073 0.984 . S
H1079 N1073 0.985 . S
H1080 N1077 0.984 . S
H1081 N1077 0.985 . S
H1082 N1076 0.984 . S
H1083 N1076 0.984 . S
H1084 N1072 0.984 . S
H1085 N1072 0.985 . S
C1086 C1087 1.363 . S
C1086 C1092 1.379 . S
C1086 N1094 1.356 . S
C1087 C1086 1.363 . S
C1087 C1093 1.363 . S
C1088 C1089 1.363 . S
C1088 C1093 1.379 . S
C1088 N1095 1.356 . S
C1089 C1088 1.363 . S
C1089 C1092 1.363 . S
N1090 C1092 1.356 . S
N1090 H1102 0.984 . S
N1090 H1103 0.985 . S
N1091 C1093 1.356 . S
N1091 H1096 0.984 . S
N1091 H1097 0.985 . S
C1092 C1086 1.379 . S
C1092 C1089 1.363 . S
C1092 N1090 1.356 . S
C1093 C1087 1.363 . S
C1093 C1088 1.379 . S
C1093 N1091 1.356 . S
N1094 C1086 1.356 . S
N1094 H1100 0.984 . S
N1094 H1101 0.984 . S
N1095 C1088 1.356 . S
N1095 H1098 0.984 . S
N1095 H1099 0.985 . S
H1096 N1091 0.984 . S
H1097 N1091 0.985 . S
H1098 N1095 0.984 . S
H1099 N1095 0.985 . S
H1100 N1094 0.984 . S
H1101 N1094 0.984 . S
H1102 N1090 0.984 . S
H1103 N1090 0.985 . S
C1104 C1105 1.363 . S
C1104 C1110 1.379 . S
C1104 N1112 1.356 . S
C1105 C1104 1.363 . S
C1105 C1111 1.363 . S
C1106 C1107 1.363 . S
C1106 C1111 1.379 . S
C1106 N1113 1.356 . S
C1107 C1106 1.363 . S
C1107 C1110 1.363 . S
N1108 C1110 1.356 . S
N1108 H1120 0.984 . S
N1108 H1121 0.985 . S
N1109 C1111 1.356 . S
N1109 H1114 0.984 . S
N1109 H1115 0.985 . S
C1110 C1104 1.379 . S
C1110 C1107 1.363 . S
C1110 N1108 1.356 . S
C1111 C1105 1.363 . S
C1111 C1106 1.379 . S
C1111 N1109 1.356 . S
N1112 C1104 1.356 . S
N1112 H1118 0.984 . S
N1112 H1119 0.984 . S
N1113 C1106 1.356 . S
N1113 H1116 0.984 . S
N1113 H1117 0.985 . S
H1114 N1109 0.984 . S
H1115 N1109 0.985 . S
H1116 N1113 0.984 . S
H1117 N1113 0.985 . S
H1118 N1112 0.984 . S
H1119 N1112 0.984 . S
H1120 N1108 0.984 . S
H1121 N1108 0.985 . S
C1122 C1123 1.363 1_554 S
C1122 C1128 1.379 . S
C1122 N1130 1.356 . S
C1123 C1122 1.363 1_556 S
C1123 C1129 1.363 . S
C1124 C1125 1.363 1_556 S
C1124 C1129 1.379 . S
C1124 N1131 1.356 . S
C1125 C1124 1.363 1_554 S
C1125 C1128 1.363 . S
N1126 C1128 1.356 . S
N1126 H1138 0.984 . S
N1126 H1139 0.985 . S
N1127 C1129 1.356 . S
N1127 H1132 0.984 . S
N1127 H1133 0.985 . S
C1128 C1122 1.379 . S
C1128 C1125 1.363 . S
C1128 N1126 1.356 . S
C1129 C1123 1.363 . S
C1129 C1124 1.379 . S
C1129 N1127 1.356 . S
N1130 C1122 1.356 . S
N1130 H1136 0.984 . S
N1130 H1137 0.984 . S
N1131 C1124 1.356 . S
N1131 H1134 0.984 . S
N1131 H1135 0.985 . S
H1132 N1127 0.984 . S
H1133 N1127 0.985 . S
H1134 N1131 0.984 . S
H1135 N1131 0.985 . S
H1136 N1130 0.984 . S
H1137 N1130 0.984 . S
H1138 N1126 0.984 . S
H1139 N1126 0.985 . S
C709 C33 1.680 . S
C711 C564 1.680 . S
C727 C92 1.680 . S
C729 C623 1.680 . S
C745 C151 1.680 . S
C747 C682 1.680 . S
C763 C210 1.680 . S
C765 C387 1.680 . S
C781 C446 1.680 . S
C783 C269 1.680 . S
C799 C505 1.680 . S
C801 C328 1.680 . S
C817 C595 1.989 . S
C819 C5 1.989 . S
C835 C64 1.989 . S
C837 C654 1.989 . S
C853 C123 1.989 . S
C855 C359 1.989 . S
C871 C182 1.989 . S
C873 C418 1.989 . S
C889 C241 1.989 . S
C891 C477 1.989 . S
C907 C300 1.989 . S
C909 C536 1.989 . S
C925 C593 1.004 . S
C927 C3 1.004 . S
C943 C62 1.004 . S
C945 C652 1.004 . S
C961 C121 1.004 . S
C963 C357 1.004 . S
C979 C180 1.004 . S
C981 C416 1.004 . S
C997 C239 1.004 . S
C999 C475 1.004 . S
C1015 C298 1.004 . S
C1017 C534 1.004 . S
C1033 C52 1.736 . S
C1035 C406 1.736 . S
C1051 C465 1.736 . S
C1053 C111 1.736 . S
C1069 C170 1.736 1_554 S
C1071 C524 1.736 1_556 S
C1087 C229 1.736 . S
C1089 C583 1.736 . S
C1105 C288 1.736 . S
C1107 C642 1.736 . S
C1123 C701 1.736 1_556 S
C1125 C347 1.736 1_554 S
