# Generated by pormake.
# Topology uot, (4)-cn, num edge types: 1
# Building blocks:
#     Node 0, Type 0, BuildingBlock: ICAMEG_clean_sbu_1, # of connection points: 4
#     Node 1, Type 0, BuildingBlock: ICAMEG_clean_sbu_1, # of connection points: 4
#     Node 2, Type 0, BuildingBlock: ICAMEG_clean_sbu_1, # of connection points: 4
#     Node 3, Type 0, BuildingBlock: ICAMEG_clean_sbu_1, # of connection points: 4
#     Node 4, Type 0, BuildingBlock: ICAMEG_clean_sbu_1, # of connection points: 4
#     Node 5, Type 0, BuildingBlock: ICAMEG_clean_sbu_1, # of connection points: 4
#     Node 6, Type 0, BuildingBlock: ICAMEG_clean_sbu_1, # of connection points: 4
#     Node 7, Type 0, BuildingBlock: ICAMEG_clean_sbu_1, # of connection points: 4
#     Node 8, Type 0, BuildingBlock: ICAMEG_clean_sbu_1, # of connection points: 4
#     Node 9, Type 0, BuildingBlock: ICAMEG_clean_sbu_1, # of connection points: 4
#     Node 10, Type 0, BuildingBlock: ICAMEG_clean_sbu_1, # of connection points: 4
#     Node 11, Type 0, BuildingBlock: ICAMEG_clean_sbu_1, # of connection points: 4
#     Node 12, Type 0, BuildingBlock: ICAMEG_clean_sbu_1, # of connection points: 4
#     Node 13, Type 0, BuildingBlock: ICAMEG_clean_sbu_1, # of connection points: 4
#     Node 14, Type 0, BuildingBlock: ICAMEG_clean_sbu_1, # of connection points: 4
#     Node 15, Type 0, BuildingBlock: ICAMEG_clean_sbu_1, # of connection points: 4
#     Edge 16, Type (0, 0), BuildingBlock: EZIPEK_clean_linker_0, # of connection points: 2
#     Edge 17, Type (0, 0), BuildingBlock: EZIPEK_clean_linker_0, # of connection points: 2
#     Edge 18, Type (0, 0), BuildingBlock: EZIPEK_clean_linker_0, # of connection points: 2
#     Edge 19, Type (0, 0), BuildingBlock: EZIPEK_clean_linker_0, # of connection points: 2
#     Edge 20, Type (0, 0), BuildingBlock: EZIPEK_clean_linker_0, # of connection points: 2
#     Edge 21, Type (0, 0), BuildingBlock: EZIPEK_clean_linker_0, # of connection points: 2
#     Edge 22, Type (0, 0), BuildingBlock: EZIPEK_clean_linker_0, # of connection points: 2
#     Edge 23, Type (0, 0), BuildingBlock: EZIPEK_clean_linker_0, # of connection points: 2
#     Edge 24, Type (0, 0), BuildingBlock: EZIPEK_clean_linker_0, # of connection points: 2
#     Edge 25, Type (0, 0), BuildingBlock: EZIPEK_clean_linker_0, # of connection points: 2
#     Edge 26, Type (0, 0), BuildingBlock: EZIPEK_clean_linker_0, # of connection points: 2
#     Edge 27, Type (0, 0), BuildingBlock: EZIPEK_clean_linker_0, # of connection points: 2
#     Edge 28, Type (0, 0), BuildingBlock: EZIPEK_clean_linker_0, # of connection points: 2
#     Edge 29, Type (0, 0), BuildingBlock: EZIPEK_clean_linker_0, # of connection points: 2
#     Edge 30, Type (0, 0), BuildingBlock: EZIPEK_clean_linker_0, # of connection points: 2
#     Edge 31, Type (0, 0), BuildingBlock: EZIPEK_clean_linker_0, # of connection points: 2
#     Edge 32, Type (0, 0), BuildingBlock: EZIPEK_clean_linker_0, # of connection points: 2
#     Edge 33, Type (0, 0), BuildingBlock: EZIPEK_clean_linker_0, # of connection points: 2
#     Edge 34, Type (0, 0), BuildingBlock: EZIPEK_clean_linker_0, # of connection points: 2
#     Edge 35, Type (0, 0), BuildingBlock: EZIPEK_clean_linker_0, # of connection points: 2
#     Edge 36, Type (0, 0), BuildingBlock: EZIPEK_clean_linker_0, # of connection points: 2
#     Edge 37, Type (0, 0), BuildingBlock: EZIPEK_clean_linker_0, # of connection points: 2
#     Edge 38, Type (0, 0), BuildingBlock: EZIPEK_clean_linker_0, # of connection points: 2
#     Edge 39, Type (0, 0), BuildingBlock: EZIPEK_clean_linker_0, # of connection points: 2
#     Edge 40, Type (0, 0), BuildingBlock: EZIPEK_clean_linker_0, # of connection points: 2
#     Edge 41, Type (0, 0), BuildingBlock: EZIPEK_clean_linker_0, # of connection points: 2
#     Edge 42, Type (0, 0), BuildingBlock: EZIPEK_clean_linker_0, # of connection points: 2
#     Edge 43, Type (0, 0), BuildingBlock: EZIPEK_clean_linker_0, # of connection points: 2
#     Edge 44, Type (0, 0), BuildingBlock: EZIPEK_clean_linker_0, # of connection points: 2
#     Edge 45, Type (0, 0), BuildingBlock: EZIPEK_clean_linker_0, # of connection points: 2
#     Edge 46, Type (0, 0), BuildingBlock: EZIPEK_clean_linker_0, # of connection points: 2
#     Edge 47, Type (0, 0), BuildingBlock: EZIPEK_clean_linker_0, # of connection points: 2
# Relax obj value: 0.031
# Max RMSD: 0.054
# Mean RMSD: 0.054
data_MOF--net-uot--node1-ICAMEG_clean_sbu_1--edge1-EZIPEK_clean_linker_0
_symmetry_space_group_name_H-M    P1
_symmetry_Int_Tables_number       1
_symmetry_cell_setting            triclinic
loop_
_symmetry_equiv_pos_as_xyz
'x, y, z'
_cell_length_a     34.917246
_cell_length_b     35.022189
_cell_length_c     34.414286
_cell_angle_alpha  90.163848
_cell_angle_beta   90.051938
_cell_angle_gamma 90.069088
loop_
_atom_site_label
_atom_site_type_symbol
_atom_site_fract_x
_atom_site_fract_y
_atom_site_fract_z
_atom_type_partial_charge
Co0 Co 0.15272 0.44539 0.36804 0.0
Co1 Co 0.21974 0.41999 0.29919 0.0
O2 O 0.20036 0.41986 0.35293 0.0
C3 C 0.20856 0.46159 0.43532 0.0
O4 O 0.23678 0.44288 0.41898 0.0
C5 C 0.22864 0.33861 0.32478 0.0
O6 O 0.19539 0.33982 0.34248 0.0
O7 O 0.17018 0.39814 0.27998 0.0
O8 O 0.12702 0.42696 0.31884 0.0
H9 H 0.21055 0.44006 0.15498 0.0
H10 H 0.18946 0.38721 0.4193 0.0
O11 O 0.1762 0.46495 0.41831 0.0
H12 H 0.05656 0.34351 0.40088 0.0
H13 H 0.06261 0.50454 0.46389 0.0
H14 H 0.09612 0.49216 0.32538 0.0
H15 H 0.07923 0.40273 0.36988 0.0
H16 H 0.11004 0.45686 0.44251 0.0
O17 O 0.24118 0.36734 0.30621 0.0
H18 H 0.18758 0.44184 0.22269 0.0
H19 H 0.29268 0.39455 0.26187 0.0
H20 H 0.0472 0.53882 0.34527 0.0
H21 H 0.16797 0.3283 0.45134 0.0
H22 H 0.03297 0.54777 0.4153 0.0
H23 H 0.10101 0.30594 0.44217 0.0
O24 O 0.16929 0.49314 0.34203 0.0
H25 H 0.33212 0.4245 0.39029 0.0
H26 H 0.27306 0.48387 0.27571 0.0
H27 H 0.33305 0.51028 0.30154 0.0
H28 H 0.36326 0.48046 0.35931 0.0
H29 H 0.27148 0.39969 0.36386 0.0
H30 H 0.31669 0.39207 0.19456 0.0
H31 H 0.27559 0.41512 0.14057 0.0
O32 O 0.19967 0.4733 0.28922 0.0
C33 C 0.13572 0.40656 0.28916 0.0
C34 C 0.22881 0.43011 0.17827 0.0
C35 C 0.28838 0.4032 0.20049 0.0
N36 N 0.23899 0.41895 0.2463 0.0
C37 C 0.21599 0.43111 0.21669 0.0
C38 C 0.27462 0.4047 0.23856 0.0
C39 C 0.2653 0.4161 0.17021 0.0
C40 C 0.16015 0.37832 0.41587 0.0
N41 N 0.13546 0.39907 0.39355 0.0
C42 C 0.14818 0.34463 0.43378 0.0
C43 C 0.11066 0.33204 0.42853 0.0
C44 C 0.08571 0.35311 0.40539 0.0
C45 C 0.09872 0.38667 0.38795 0.0
C46 C 0.06945 0.50163 0.43335 0.0
C47 C 0.08804 0.4939 0.35559 0.0
C48 C 0.09613 0.47455 0.42103 0.0
N49 N 0.10629 0.4721 0.38275 0.0
C50 C 0.06086 0.52093 0.36678 0.0
C51 C 0.05263 0.52569 0.40607 0.0
C52 C 0.18361 0.49983 0.30878 0.0
C53 C 0.31916 0.43793 0.36524 0.0
C54 C 0.28517 0.47135 0.30124 0.0
C55 C 0.31959 0.48613 0.31557 0.0
C56 C 0.33658 0.46933 0.34789 0.0
N57 N 0.26793 0.44083 0.31859 0.0
C58 C 0.28476 0.42397 0.35005 0.0
Co59 Co 0.44418 0.86034 0.63498 0.0
Co60 Co 0.43409 0.80661 0.71811 0.0
O61 O 0.43143 0.81299 0.66201 0.0
C62 C 0.48631 0.80256 0.5872 0.0
O63 O 0.4993 0.78627 0.61889 0.0
C64 C 0.35611 0.7794 0.69659 0.0
O65 O 0.35295 0.8097 0.6746 0.0
O66 O 0.40222 0.8531 0.72576 0.0
O67 O 0.42501 0.89301 0.67988 0.0
H68 H 0.45476 0.85085 0.85563 0.0
H69 H 0.3989 0.80325 0.5904 0.0
O70 O 0.46353 0.83072 0.58927 0.0
H71 H 0.31135 0.91189 0.60993 0.0
H72 H 0.43694 0.94463 0.51603 0.0
H73 H 0.51039 0.91778 0.63423 0.0
H74 H 0.37765 0.91499 0.63386 0.0
H75 H 0.41494 0.8961 0.56035 0.0
O76 O 0.3864 0.7739 0.71649 0.0
H77 H 0.45221 0.85781 0.78444 0.0
H78 H 0.41921 0.7417 0.77218 0.0
H79 H 0.53492 0.96324 0.58822 0.0
H80 H 0.33325 0.79974 0.56459 0.0
H81 H 0.4981 0.97829 0.5286 0.0
H82 H 0.28879 0.85416 0.57461 0.0
O83 O 0.49625 0.85985 0.66028 0.0
H84 H 0.46801 0.68163 0.65506 0.0
H85 H 0.50543 0.77635 0.75441 0.0
H86 H 0.54503 0.71879 0.74489 0.0
H87 H 0.52641 0.67097 0.69484 0.0
H88 H 0.42922 0.73955 0.66565 0.0
H89 H 0.42084 0.73356 0.8433 0.0
H90 H 0.43895 0.78832 0.88554 0.0
O91 O 0.48237 0.83858 0.72054 0.0
C92 C 0.40541 0.88621 0.71074 0.0
C93 C 0.44692 0.82674 0.83754 0.0
C94 C 0.42783 0.76094 0.83062 0.0
N95 N 0.43586 0.8002 0.77411 0.0
C96 C 0.44556 0.83051 0.79717 0.0
C97 C 0.42681 0.76577 0.79036 0.0
C98 C 0.43802 0.79166 0.8543 0.0
C99 C 0.38018 0.82749 0.59408 0.0
N100 N 0.3925 0.85936 0.61348 0.0
C101 C 0.34282 0.82517 0.57971 0.0
C102 C 0.31785 0.85563 0.58548 0.0
C103 C 0.33046 0.88799 0.60538 0.0
C104 C 0.36802 0.88936 0.6193 0.0
C105 C 0.45248 0.93961 0.54276 0.0
C106 C 0.49243 0.92412 0.61002 0.0
C107 C 0.43922 0.91272 0.56947 0.0
N108 N 0.45823 0.90571 0.60379 0.0
C109 C 0.50738 0.94992 0.58309 0.0
C110 C 0.48689 0.95824 0.54961 0.0
C111 C 0.50471 0.85513 0.69626 0.0
C112 C 0.47642 0.70224 0.67697 0.0
C113 C 0.49711 0.75561 0.73265 0.0
C114 C 0.51964 0.72308 0.72739 0.0
C115 C 0.50918 0.69628 0.6993 0.0
N116 N 0.46508 0.76128 0.71059 0.0
C117 C 0.45456 0.73507 0.68311 0.0
Co118 Co 0.85997 0.56783 0.37825 0.0
Co119 Co 0.79634 0.57971 0.30152 0.0
O120 O 0.81154 0.58496 0.35599 0.0
C121 C 0.80322 0.52584 0.42853 0.0
O122 O 0.7851 0.513 0.39769 0.0
C123 C 0.78391 0.66188 0.32063 0.0
O124 O 0.81697 0.66268 0.33872 0.0
O125 O 0.84626 0.6026 0.28418 0.0
O126 O 0.88892 0.58881 0.33193 0.0
H127 H 0.80745 0.53684 0.16171 0.0
H128 H 0.80744 0.61907 0.42127 0.0
O129 O 0.83192 0.54801 0.4251 0.0
H130 H 0.93284 0.68352 0.42444 0.0
H131 H 0.94334 0.53555 0.4921 0.0
H132 H 0.93024 0.52808 0.35018 0.0
H133 H 0.92492 0.62178 0.39067 0.0
H134 H 0.89111 0.56912 0.45887 0.0
O135 O 0.77221 0.6316 0.30394 0.0
H136 H 0.82697 0.54086 0.23004 0.0
H137 H 0.72822 0.60649 0.25667 0.0
H138 H 0.98079 0.49092 0.38227 0.0
H139 H 0.81383 0.6807 0.45561 0.0
H140 H 0.98724 0.49404 0.45426 0.0
H141 H 0.87699 0.71343 0.45721 0.0
O142 O 0.85537 0.51715 0.35144 0.0
H143 H 0.67907 0.57058 0.38552 0.0
H144 H 0.75076 0.5115 0.27763 0.0
H145 H 0.69068 0.48181 0.30004 0.0
H146 H 0.65438 0.51139 0.35437 0.0
H147 H 0.73936 0.59922 0.36229 0.0
H148 H 0.70758 0.60309 0.1885 0.0
H149 H 0.74731 0.5682 0.1403 0.0
O150 O 0.81958 0.5277 0.29812 0.0
C151 C 0.88035 0.60233 0.29827 0.0
C152 C 0.7902 0.5527 0.18228 0.0
C153 C 0.73418 0.58984 0.19731 0.0
N154 N 0.78 0.57548 0.24743 0.0
C155 C 0.80145 0.55549 0.22114 0.0
C156 C 0.74635 0.59202 0.23593 0.0
C157 C 0.75642 0.5702 0.17031 0.0
C158 C 0.8349 0.63303 0.42215 0.0
N159 N 0.86564 0.61685 0.40409 0.0
C160 C 0.83841 0.66797 0.4415 0.0
C161 C 0.87384 0.68631 0.44237 0.0
C162 C 0.90518 0.66955 0.42402 0.0
C163 C 0.90052 0.63459 0.40496 0.0
C164 C 0.94046 0.5333 0.46092 0.0
C165 C 0.93273 0.52935 0.38109 0.0
C166 C 0.91115 0.55265 0.44177 0.0
N167 N 0.90695 0.54975 0.40232 0.0
C168 C 0.96159 0.50847 0.39931 0.0
C169 C 0.96517 0.51021 0.43961 0.0
C170 C 0.84064 0.50648 0.31916 0.0
C171 C 0.69457 0.55747 0.36176 0.0
C172 C 0.7351 0.52458 0.30123 0.0
C173 C 0.70109 0.50764 0.3138 0.0
C174 C 0.68075 0.52424 0.34429 0.0
N175 N 0.74849 0.55715 0.31853 0.0
C176 C 0.72868 0.57361 0.34841 0.0
Co177 Co 0.56712 0.138 0.65619 0.0
Co178 Co 0.5886 0.21224 0.71906 0.0
O179 O 0.58751 0.18907 0.66679 0.0
C180 C 0.52454 0.18798 0.60038 0.0
O181 O 0.51964 0.21369 0.6277 0.0
C182 C 0.66749 0.2256 0.68828 0.0
O183 O 0.66884 0.19028 0.6757 0.0
O184 O 0.61748 0.16702 0.7397 0.0
O185 O 0.59434 0.11782 0.70386 0.0
H186 H 0.56587 0.22145 0.86384 0.0
H187 H 0.61409 0.18075 0.59939 0.0
O188 O 0.54185 0.15685 0.60754 0.0
H189 H 0.6722 0.05268 0.60617 0.0
H190 H 0.50617 0.03707 0.57322 0.0
H191 H 0.53494 0.07862 0.7069 0.0
H192 H 0.61628 0.06889 0.64668 0.0
H193 H 0.55013 0.0908 0.58507 0.0
O194 O 0.63797 0.23823 0.70562 0.0
H195 H 0.56168 0.19162 0.79949 0.0
H196 H 0.61659 0.28752 0.74866 0.0
H197 H 0.49186 0.02406 0.69636 0.0
H198 H 0.67066 0.16611 0.55919 0.0
H199 H 0.47516 0.00451 0.62936 0.0
H200 H 0.70001 0.10161 0.56231 0.0
O201 O 0.51979 0.14933 0.68583 0.0
H202 H 0.56164 0.31652 0.62291 0.0
H203 H 0.51921 0.25533 0.74439 0.0
H204 H 0.48248 0.30945 0.71802 0.0
H205 H 0.50369 0.3405 0.65689 0.0
H206 H 0.59724 0.26196 0.64999 0.0
H207 H 0.62133 0.31836 0.81261 0.0
H208 H 0.59603 0.28533 0.87096 0.0
O209 O 0.53916 0.1872 0.73434 0.0
C210 C 0.61469 0.13127 0.73188 0.0
C211 C 0.57767 0.23585 0.83876 0.0
C212 C 0.60874 0.2902 0.81003 0.0
N213 N 0.59072 0.23654 0.77016 0.0
C214 C 0.57583 0.21876 0.80208 0.0
C215 C 0.60637 0.27225 0.77382 0.0
C216 C 0.59448 0.27171 0.84273 0.0
C217 C 0.62699 0.15277 0.60127 0.0
N218 N 0.61213 0.12584 0.62565 0.0
C219 C 0.65889 0.14458 0.57827 0.0
C220 C 0.6753 0.10837 0.57999 0.0
C221 C 0.65967 0.08088 0.60453 0.0
C222 C 0.62789 0.09018 0.62728 0.0
C223 C 0.513 0.04544 0.60269 0.0
C224 C 0.52991 0.06875 0.67757 0.0
C225 C 0.53795 0.07588 0.60958 0.0
N226 N 0.54499 0.08804 0.64666 0.0
C227 C 0.50506 0.03808 0.6718 0.0
C228 C 0.49587 0.02701 0.63409 0.0
C229 C 0.51436 0.16575 0.71818 0.0
C230 C 0.55219 0.30333 0.64965 0.0
C231 C 0.52858 0.26856 0.71771 0.0
C232 C 0.5077 0.29928 0.70296 0.0
C233 C 0.51964 0.31672 0.66868 0.0
N234 N 0.56043 0.25554 0.69882 0.0
C235 C 0.57235 0.27254 0.66524 0.0
Co236 Co 0.15157 0.56608 0.64766 0.0
Co237 Co 0.21595 0.58385 0.72205 0.0
O238 O 0.20156 0.58328 0.66689 0.0
C239 C 0.20858 0.53542 0.58688 0.0
O240 O 0.23875 0.54574 0.60703 0.0
C241 C 0.23754 0.66289 0.69746 0.0
O242 O 0.20355 0.66716 0.68177 0.0
O243 O 0.1689 0.61412 0.7353 0.0
O244 O 0.1254 0.59002 0.69352 0.0
H245 H 0.1939 0.58356 0.86691 0.0
H246 H 0.20404 0.61687 0.60313 0.0
O247 O 0.17488 0.54149 0.5997 0.0
H248 H 0.07963 0.68312 0.60505 0.0
H249 H 0.06078 0.53071 0.54073 0.0
H250 H 0.08601 0.52235 0.68119 0.0
H251 H 0.08724 0.62063 0.6369 0.0
H252 H 0.11356 0.56725 0.57022 0.0
O253 O 0.24666 0.63177 0.71402 0.0
H254 H 0.17472 0.58157 0.79828 0.0
H255 H 0.29032 0.59495 0.76313 0.0
H256 H 0.03288 0.48554 0.65297 0.0
H257 H 0.19772 0.67923 0.57078 0.0
H258 H 0.02176 0.4875 0.58171 0.0
H259 H 0.13509 0.71276 0.57146 0.0
O260 O 0.15692 0.51725 0.67721 0.0
H261 H 0.3344 0.55261 0.64537 0.0
H262 H 0.25009 0.51152 0.75228 0.0
H263 H 0.30583 0.47206 0.7346 0.0
H264 H 0.34855 0.49261 0.68089 0.0
H265 H 0.27792 0.59087 0.66349 0.0
H266 H 0.31082 0.59793 0.83151 0.0
H267 H 0.26253 0.59177 0.88406 0.0
O268 O 0.18649 0.53554 0.73218 0.0
C269 C 0.13431 0.60979 0.7236 0.0
C270 C 0.21535 0.58543 0.8443 0.0
C271 C 0.28091 0.59359 0.82445 0.0
N272 N 0.23143 0.58571 0.77642 0.0
C273 C 0.20463 0.58362 0.80523 0.0
C274 C 0.2691 0.5916 0.78571 0.0
C275 C 0.25382 0.5902 0.85391 0.0
C276 C 0.17656 0.63095 0.60308 0.0
N277 N 0.14572 0.61434 0.62057 0.0
C278 C 0.1732 0.6664 0.58488 0.0
C279 C 0.13809 0.68523 0.58533 0.0
C280 C 0.10695 0.66858 0.6041 0.0
C281 C 0.1114 0.63308 0.62191 0.0
C282 C 0.06575 0.52924 0.57174 0.0
C283 C 0.07987 0.52546 0.65076 0.0
C284 C 0.09531 0.55029 0.58878 0.0
N285 N 0.10275 0.54753 0.62775 0.0
C286 C 0.0501 0.50391 0.63472 0.0
C287 C 0.04375 0.50513 0.59478 0.0
C288 C 0.16695 0.51135 0.71248 0.0
C289 C 0.31604 0.54338 0.66888 0.0
C290 C 0.26825 0.52048 0.72857 0.0
C291 C 0.29993 0.49811 0.71886 0.0
C292 C 0.32392 0.50969 0.68876 0.0
N293 N 0.26066 0.55349 0.70889 0.0
C294 C 0.28411 0.56504 0.6794 0.0
Co295 Co 0.56199 0.85741 0.36299 0.0
Co296 Co 0.58576 0.78979 0.29335 0.0
O297 O 0.5848 0.80872 0.34726 0.0
C298 C 0.5459 0.80296 0.43053 0.0
O299 O 0.56885 0.77681 0.41644 0.0
C300 C 0.66739 0.77807 0.31724 0.0
O301 O 0.67032 0.81439 0.32599 0.0
O302 O 0.6127 0.83755 0.27674 0.0
O303 O 0.58657 0.88279 0.31603 0.0
H304 H 0.56179 0.7908 0.14833 0.0
H305 H 0.62639 0.81419 0.4018 0.0
O306 O 0.53884 0.8335 0.41153 0.0
H307 H 0.65695 0.95005 0.42137 0.0
H308 H 0.4926 0.94245 0.45672 0.0
H309 H 0.52445 0.91963 0.31946 0.0
H310 H 0.60043 0.93138 0.38373 0.0
H311 H 0.54354 0.89739 0.43878 0.0
O312 O 0.63603 0.76419 0.30468 0.0
H313 H 0.55687 0.81528 0.21483 0.0
H314 H 0.61605 0.71819 0.25759 0.0
H315 H 0.47273 0.96452 0.33579 0.0
H316 H 0.68414 0.83189 0.43793 0.0
H317 H 0.45493 0.97444 0.40496 0.0
H318 H 0.69959 0.90024 0.44872 0.0
O319 O 0.51441 0.84479 0.3334 0.0
H320 H 0.56192 0.67723 0.38028 0.0
H321 H 0.51732 0.74711 0.26461 0.0
H322 H 0.48186 0.69022 0.2865 0.0
H323 H 0.5041 0.65486 0.34477 0.0
H324 H 0.59644 0.73439 0.35746 0.0
H325 H 0.62145 0.69263 0.19139 0.0
H326 H 0.59443 0.72902 0.13598 0.0
O327 O 0.53573 0.81479 0.2803 0.0
C328 C 0.60794 0.87244 0.28727 0.0
C329 C 0.57442 0.77504 0.17212 0.0
C330 C 0.60783 0.71998 0.19626 0.0
N331 N 0.58819 0.76967 0.24038 0.0
C332 C 0.57224 0.78916 0.21005 0.0
C333 C 0.60508 0.73498 0.2338 0.0
C334 C 0.59261 0.74034 0.16521 0.0
C335 C 0.63247 0.84399 0.40588 0.0
N336 N 0.60818 0.87143 0.39205 0.0
C337 C 0.66547 0.85387 0.42661 0.0
C338 C 0.67411 0.8922 0.43274 0.0
C339 C 0.65006 0.92012 0.41766 0.0
C340 C 0.61744 0.9092 0.39687 0.0
C341 C 0.4993 0.93749 0.42643 0.0
C342 C 0.51786 0.92481 0.34944 0.0
C343 C 0.52844 0.91218 0.41604 0.0
N344 N 0.53609 0.90458 0.37778 0.0
C345 C 0.4882 0.94993 0.35861 0.0
C346 C 0.47819 0.95541 0.39739 0.0
C347 C 0.50992 0.8328 0.29879 0.0
C348 C 0.55193 0.6924 0.35487 0.0
C349 C 0.52714 0.73198 0.29006 0.0
C350 C 0.50698 0.69971 0.30226 0.0
C351 C 0.51948 0.67988 0.33494 0.0
N352 N 0.55882 0.74421 0.30989 0.0
C353 C 0.57138 0.72477 0.3418 0.0
Co354 Co 0.85525 0.45247 0.64718 0.0
Co355 Co 0.78857 0.42601 0.71473 0.0
O356 O 0.80765 0.42695 0.66117 0.0
C357 C 0.79988 0.48647 0.5898 0.0
O358 O 0.77641 0.49508 0.61827 0.0
C359 C 0.7787 0.3462 0.68591 0.0
O360 O 0.81217 0.34818 0.66876 0.0
O361 O 0.83728 0.40211 0.73224 0.0
O362 O 0.88056 0.43391 0.69627 0.0
H363 H 0.79915 0.43825 0.85988 0.0
H364 H 0.81969 0.39514 0.59482 0.0
O365 O 0.83147 0.46956 0.59668 0.0
H366 H 0.95197 0.35076 0.615 0.0
H367 H 0.95023 0.50711 0.55312 0.0
H368 H 0.90922 0.50246 0.68976 0.0
H369 H 0.929 0.40979 0.64644 0.0
H370 H 0.89973 0.46229 0.57368 0.0
O371 O 0.76562 0.37436 0.70516 0.0
H372 H 0.82194 0.4427 0.79225 0.0
H373 H 0.7148 0.40182 0.75088 0.0
H374 H 0.95967 0.54765 0.6705 0.0
H375 H 0.84144 0.3363 0.56212 0.0
H376 H 0.97861 0.55201 0.60119 0.0
H377 H 0.90812 0.31367 0.57229 0.0
O378 O 0.8379 0.50007 0.67355 0.0
H379 H 0.67771 0.44082 0.62303 0.0
H380 H 0.73852 0.49055 0.74199 0.0
H381 H 0.67987 0.52105 0.71753 0.0
H382 H 0.6489 0.4961 0.65761 0.0
H383 H 0.7368 0.41161 0.6483 0.0
H384 H 0.6909 0.39674 0.81808 0.0
H385 H 0.73314 0.41523 0.87315 0.0
O386 O 0.81074 0.47797 0.72716 0.0
C387 C 0.87183 0.4108 0.72377 0.0
C388 C 0.78038 0.43034 0.83613 0.0
C389 C 0.71963 0.40708 0.81267 0.0
N390 N 0.76947 0.42333 0.76759 0.0
C391 C 0.7931 0.43288 0.79776 0.0
C392 C 0.73331 0.41008 0.77467 0.0
C393 C 0.74335 0.41741 0.84355 0.0
C394 C 0.84883 0.38592 0.59858 0.0
N395 N 0.87313 0.40629 0.62178 0.0
C396 C 0.86096 0.35238 0.58036 0.0
C397 C 0.89832 0.33964 0.58617 0.0
C398 C 0.92293 0.36043 0.61014 0.0
C399 C 0.90975 0.39383 0.62787 0.0
C400 C 0.9414 0.50621 0.58318 0.0
C401 C 0.91874 0.50267 0.65999 0.0
C402 C 0.91319 0.48053 0.5951 0.0
N403 N 0.90155 0.47967 0.63298 0.0
C404 C 0.94694 0.52877 0.64912 0.0
C405 C 0.95759 0.53113 0.61025 0.0
C406 C 0.82573 0.50531 0.70804 0.0
C407 C 0.69092 0.45197 0.64918 0.0
C408 C 0.72566 0.47983 0.71577 0.0
C409 C 0.69221 0.49706 0.70212 0.0
C410 C 0.67481 0.48301 0.66855 0.0
N411 N 0.74138 0.44946 0.69662 0.0
C412 C 0.72436 0.43547 0.66373 0.0
Co413 Co 0.44361 0.13613 0.37611 0.0
Co414 Co 0.4261 0.20437 0.30569 0.0
O415 O 0.42507 0.18639 0.35968 0.0
C416 C 0.46327 0.18984 0.44366 0.0
O417 O 0.44287 0.21784 0.42928 0.0
C418 C 0.34486 0.22133 0.32783 0.0
O419 O 0.34026 0.18545 0.33768 0.0
O420 O 0.39636 0.15846 0.28909 0.0
O421 O 0.41863 0.1119 0.32814 0.0
H422 H 0.4498 0.19443 0.16161 0.0
H423 H 0.3817 0.1854 0.41138 0.0
O424 O 0.46759 0.1586 0.42491 0.0
H425 H 0.34201 0.05349 0.43891 0.0
H426 H 0.5024 0.04664 0.47283 0.0
H427 H 0.47854 0.07132 0.33425 0.0
H428 H 0.40003 0.06568 0.40142 0.0
H429 H 0.4563 0.09577 0.4527 0.0
O430 O 0.37701 0.23328 0.31518 0.0
H431 H 0.4487 0.17117 0.229 0.0
H432 H 0.40448 0.27771 0.26769 0.0
H433 H 0.52689 0.0237 0.35282 0.0
H434 H 0.3223 0.17397 0.44689 0.0
H435 H 0.54019 0.01213 0.42276 0.0
H436 H 0.30215 0.10769 0.46169 0.0
O437 O 0.49264 0.14465 0.34756 0.0
H438 H 0.45497 0.31669 0.39201 0.0
H439 H 0.49707 0.24301 0.27749 0.0
H440 H 0.53516 0.29837 0.29932 0.0
H441 H 0.5142 0.33562 0.35703 0.0
H442 H 0.41778 0.26103 0.36919 0.0
H443 H 0.40421 0.30167 0.20052 0.0
H444 H 0.42713 0.26001 0.14688 0.0
O445 O 0.47517 0.17645 0.29416 0.0
C446 C 0.39872 0.12332 0.29863 0.0
C447 C 0.43971 0.21286 0.18472 0.0
C448 C 0.41398 0.27297 0.20654 0.0
N449 N 0.42619 0.22285 0.25243 0.0
C450 C 0.43924 0.19994 0.22307 0.0
C451 C 0.41392 0.25909 0.24454 0.0
C452 C 0.42693 0.24962 0.17647 0.0
C453 C 0.37338 0.15635 0.41658 0.0
N454 N 0.39587 0.12653 0.40466 0.0
C455 C 0.33953 0.15009 0.43724 0.0
C456 C 0.32829 0.11294 0.44569 0.0
C457 C 0.35076 0.08258 0.43316 0.0
C458 C 0.38435 0.0899 0.41245 0.0
C459 C 0.49747 0.05199 0.44226 0.0
C460 C 0.48348 0.06583 0.36449 0.0
C461 C 0.47106 0.07958 0.4306 0.0
N462 N 0.46547 0.08737 0.39201 0.0
C463 C 0.5111 0.039 0.37497 0.0
C464 C 0.51862 0.03262 0.41419 0.0
C465 C 0.49922 0.15684 0.31343 0.0
C466 C 0.46443 0.30067 0.36686 0.0
C467 C 0.48779 0.25899 0.30268 0.0
C468 C 0.50944 0.29038 0.31485 0.0
C469 C 0.49766 0.31127 0.34722 0.0
N470 N 0.45536 0.24864 0.32223 0.0
C471 C 0.44349 0.26914 0.35381 0.0
Co472 Co 0.64729 0.94803 0.86437 0.0
Co473 Co 0.71802 0.92207 0.80098 0.0
O474 O 0.69555 0.92211 0.85322 0.0
C475 C 0.69779 0.98134 0.92653 0.0
O476 O 0.72389 0.98907 0.90028 0.0
C477 C 0.72784 0.84143 0.8286 0.0
O478 O 0.69405 0.8422 0.84521 0.0
O479 O 0.67027 0.89848 0.77985 0.0
O480 O 0.62529 0.93178 0.81235 0.0
H481 H 0.71596 0.93711 0.65583 0.0
H482 H 0.67741 0.89171 0.92063 0.0
O483 O 0.66696 0.96419 0.91702 0.0
H484 H 0.54952 0.84406 0.8833 0.0
H485 H 0.54749 1.00074 0.95422 0.0
H486 H 0.59774 1.00108 0.82037 0.0
H487 H 0.57447 0.90424 0.85612 0.0
H488 H 0.59704 0.95462 0.93423 0.0
O489 O 0.74055 0.87026 0.81028 0.0
H490 H 0.6893 0.94026 0.72207 0.0
H491 H 0.7939 0.8988 0.76871 0.0
H492 H 0.54942 0.04861 0.83956 0.0
H493 H 0.65343 0.83154 0.94889 0.0
H494 H 0.52468 0.04938 0.90722 0.0
H495 H 0.58911 0.8073 0.9301 0.0
O496 O 0.66745 0.99597 0.84136 0.0
H497 H 0.82291 0.93521 0.89999 0.0
H498 H 0.7697 0.98711 0.77859 0.0
H499 H 0.82676 0.01713 0.80754 0.0
H500 H 0.85389 0.9911 0.86871 0.0
H501 H 0.76554 0.9064 0.8702 0.0
H502 H 0.82166 0.89507 0.70296 0.0
H503 H 0.78266 0.9145 0.64595 0.0
O504 O 0.69722 0.97454 0.78876 0.0
C505 C 0.63556 0.90887 0.78512 0.0
C506 C 0.73333 0.92878 0.68044 0.0
C507 C 0.79265 0.90522 0.7069 0.0
N508 N 0.74024 0.92047 0.74932 0.0
C509 C 0.7184 0.93055 0.71804 0.0
C510 C 0.77679 0.90746 0.74408 0.0
C511 C 0.77074 0.91607 0.67492 0.0
C512 C 0.64926 0.88146 0.91262 0.0
N513 N 0.62736 0.9014 0.88682 0.0
C514 C 0.63589 0.84733 0.92859 0.0
C515 C 0.59981 0.83372 0.91799 0.0
C516 C 0.5776 0.85431 0.89171 0.0
C517 C 0.59192 0.8883 0.87633 0.0
C518 C 0.55829 1.00094 0.92475 0.0
C519 C 0.58645 1.00055 0.84959 0.0
C520 C 0.58595 0.97453 0.91309 0.0
N521 N 0.60043 0.97528 0.87619 0.0
C522 C 0.55938 0.02784 0.86042 0.0
C523 C 0.5456 0.02829 0.89841 0.0
C524 C 0.68253 1.00186 0.80825 0.0
C525 C 0.81142 0.94679 0.8733 0.0
C526 C 0.78097 0.97583 0.80528 0.0
C527 C 0.8135 0.99283 0.8215 0.0
C528 C 0.82873 0.97818 0.85578 0.0
N529 N 0.76408 0.94508 0.8226 0.0
C530 C 0.77897 0.93052 0.85619 0.0
Co531 Co 0.92946 0.37166 0.15257 0.0
Co532 Co 0.93282 0.29949 0.2215 0.0
O533 O 0.92437 0.31854 0.16884 0.0
C534 C 0.97908 0.32798 0.09749 0.0
O535 O 0.99179 0.3074 0.12655 0.0
C536 C 0.85281 0.27751 0.20196 0.0
O537 O 0.84876 0.31146 0.18655 0.0
O538 O 0.90268 0.34195 0.24538 0.0
O539 O 0.90422 0.38933 0.20151 0.0
H540 H 0.97104 0.30947 0.36205 0.0
H541 H 0.89393 0.31593 0.09827 0.0
O542 O 0.95487 0.35454 0.10315 0.0
H543 H 0.79446 0.41277 0.12307 0.0
H544 H 0.93316 0.47581 0.05164 0.0
H545 H 0.93443 0.44891 0.19183 0.0
H546 H 0.85805 0.41832 0.15373 0.0
H547 H 0.92827 0.40992 0.07489 0.0
O548 O 0.88448 0.26786 0.21767 0.0
H549 H 0.96034 0.33334 0.29562 0.0
H550 H 0.92275 0.22355 0.25929 0.0
H551 H 0.93998 0.51471 0.16965 0.0
H552 H 0.83086 0.30954 0.06664 0.0
H553 H 0.93888 0.52908 0.09907 0.0
H554 H 0.78053 0.3581 0.07912 0.0
O555 O 0.98119 0.37607 0.17862 0.0
H556 H 0.95729 0.19389 0.12556 0.0
H557 H 0.0073 0.26234 0.24031 0.0
H558 H 0.04496 0.20977 0.21169 0.0
H559 H 0.01999 0.17519 0.15383 0.0
H560 H 0.92066 0.24664 0.15512 0.0
H561 H 0.93251 0.19858 0.32548 0.0
H562 H 0.95702 0.24161 0.37736 0.0
O563 O 0.98138 0.33102 0.22563 0.0
C564 C 0.89478 0.37574 0.23447 0.0
C565 C 0.96041 0.29041 0.33968 0.0
C566 C 0.93873 0.2282 0.31917 0.0
N567 N 0.94111 0.27988 0.27353 0.0
C568 C 0.95441 0.30377 0.30196 0.0
C569 C 0.9331 0.24255 0.28177 0.0
C570 C 0.95251 0.25235 0.34826 0.0
C571 C 0.87237 0.33746 0.10345 0.0
N572 N 0.87978 0.36757 0.12766 0.0
C573 C 0.83663 0.33358 0.08561 0.0
C574 C 0.80838 0.36079 0.09268 0.0
C575 C 0.81616 0.39145 0.11737 0.0
C576 C 0.85223 0.3944 0.1347 0.0
C577 C 0.93416 0.46998 0.08249 0.0
C578 C 0.9355 0.45403 0.1611 0.0
C579 C 0.93208 0.43245 0.096 0.0
N580 N 0.93353 0.42459 0.13496 0.0
C581 C 0.93768 0.49185 0.14864 0.0
C582 C 0.93712 0.49985 0.10907 0.0
C583 C 0.99696 0.35918 0.20766 0.0
C584 C 0.96849 0.20873 0.15076 0.0
C585 C 0.99629 0.24743 0.21513 0.0
C586 C 0.0177 0.21765 0.19908 0.0
C587 C 1.00367 0.19827 0.16662 0.0
N588 N 0.96195 0.25769 0.19926 0.0
C589 C 0.94786 0.23861 0.16764 0.0
Co590 Co 0.35967 0.05795 0.86724 0.0
Co591 Co 0.29732 0.09009 0.79695 0.0
O592 O 0.311 0.08156 0.85185 0.0
C593 C 0.3068 0.04575 0.93381 0.0
O594 O 0.291 0.07875 0.92566 0.0
C595 C 0.26238 0.15622 0.84258 0.0
O596 O 0.27762 0.14482 0.87536 0.0
O597 O 0.34447 0.12121 0.79059 0.0
O598 O 0.38685 0.08694 0.82428 0.0
H599 H 0.32528 0.0983 0.65395 0.0
H600 H 0.34838 0.14226 0.86406 0.0
O601 O 0.3317 0.03123 0.91086 0.0
H602 H 0.41207 0.12 0.98946 0.0
H603 H 0.43821 0.95808 0.93801 0.0
H604 H 0.43885 0.04986 0.83052 0.0
H605 H 0.39513 0.06632 0.94743 0.0
H606 H 0.38606 1.00287 0.93177 0.0
O607 O 0.26787 0.13784 0.81098 0.0
H608 H 0.34015 0.08527 0.72265 0.0
H609 H 0.22711 0.11666 0.7552 0.0
H610 H 0.4886 1.00271 0.83437 0.0
H611 H 0.36331 0.19676 0.90619 0.0
H612 H 0.48974 0.95626 0.88858 0.0
H613 H 0.39596 0.18605 0.96934 0.0
O614 O 0.34924 0.01418 0.83204 0.0
H615 H 0.18064 0.0432 0.86822 0.0
H616 H 0.2585 0.02997 0.74955 0.0
H617 H 0.20078 0.99025 0.75748 0.0
H618 H 0.16131 0.99675 0.81715 0.0
H619 H 0.23853 0.08224 0.85906 0.0
H620 H 0.21119 0.13044 0.68687 0.0
H621 H 0.2604 0.12111 0.63565 0.0
O622 O 0.32588 0.04306 0.7793 0.0
C623 C 0.37888 0.11377 0.80021 0.0
C624 C 0.30353 0.10231 0.67597 0.0
C625 C 0.23954 0.12045 0.69446 0.0
N626 N 0.28447 0.09988 0.74294 0.0
C627 C 0.31172 0.09481 0.71493 0.0
C628 C 0.24878 0.11272 0.73314 0.0
C629 C 0.26715 0.11518 0.66574 0.0
C630 C 0.36202 0.1369 0.8915 0.0
N631 N 0.37128 0.10052 0.90234 0.0
C632 C 0.37067 0.16813 0.91527 0.0
C633 C 0.38903 0.16213 0.95062 0.0
C634 C 0.39822 0.12512 0.96181 0.0
C635 C 0.38887 0.09457 0.93736 0.0
C636 C 0.43824 0.97833 0.9143 0.0
C637 C 0.43752 0.03065 0.8546 0.0
C638 C 0.40843 0.00461 0.91042 0.0
N639 N 0.40769 0.03073 0.88059 0.0
C640 C 0.4667 0.00355 0.85656 0.0
C641 C 0.46712 0.97729 0.88668 0.0
C642 C 0.34124 0.01451 0.79603 0.0
C643 C 0.19739 0.04032 0.84193 0.0
C644 C 0.24129 0.03334 0.77542 0.0
C645 C 0.20868 0.01062 0.7798 0.0
C646 C 0.18659 0.01424 0.8133 0.0
N647 N 0.2515 0.05919 0.80343 0.0
C648 C 0.23015 0.06259 0.83649 0.0
Co649 Co 0.06932 0.63222 0.15116 0.0
Co650 Co 0.0876 0.70784 0.2138 0.0
O651 O 0.0862 0.68441 0.16205 0.0
C652 C 0.02142 0.6795 0.09725 0.0
O653 O 0.01454 0.70402 0.12531 0.0
C654 C 0.16622 0.72098 0.18159 0.0
O655 O 0.16504 0.688 0.16359 0.0
O656 O 0.11471 0.66216 0.23606 0.0
O657 O 0.09781 0.61285 0.19738 0.0
H658 H 0.07658 0.71178 0.35958 0.0
H659 H 0.1082 0.67796 0.0904 0.0
O660 O 0.04157 0.64991 0.10346 0.0
H661 H 0.18652 0.56178 0.10487 0.0
H662 H 0.04215 0.51938 0.06423 0.0
H663 H 0.04035 0.56803 0.19888 0.0
H664 H 0.12837 0.57094 0.1444 0.0
H665 H 0.06133 0.58567 0.07868 0.0
O666 O 0.13829 0.73233 0.20227 0.0
H667 H 0.07204 0.68244 0.29458 0.0
H668 H 0.10888 0.78555 0.2423 0.0
H669 H 0.02095 0.50162 0.18552 0.0
H670 H 0.16608 0.66993 0.05022 0.0
H671 H 0.02278 0.47647 0.1181 0.0
H672 H 0.20575 0.61153 0.05739 0.0
O673 O 0.02213 0.63935 0.18379 0.0
H674 H 0.06737 0.81039 0.11411 0.0
H675 H 0.01994 0.7557 0.23667 0.0
H676 H 0.98653 0.81065 0.20799 0.0
H677 H 0.01032 0.83855 0.14628 0.0
H678 H 0.09942 0.75489 0.14349 0.0
H679 H 0.11371 0.81628 0.30662 0.0
H680 H 0.09741 0.77937 0.36589 0.0
O681 O 0.03654 0.68467 0.22725 0.0
C682 C 0.1147 0.62663 0.22714 0.0
C683 C 0.08371 0.72821 0.334 0.0
C684 C 0.10446 0.78685 0.30427 0.0
N685 N 0.08978 0.73214 0.26463 0.0
C686 C 0.0813 0.71161 0.29713 0.0
C687 C 0.10163 0.76927 0.2679 0.0
C688 C 0.09537 0.76612 0.33751 0.0
C689 C 0.12518 0.65236 0.09353 0.0
N690 N 0.11494 0.62498 0.11978 0.0
C691 C 0.15798 0.64801 0.07076 0.0
C692 C 0.18024 0.61526 0.07482 0.0
C693 C 0.16947 0.58734 0.10145 0.0
C694 C 0.13653 0.59271 0.12379 0.0
C695 C 0.04178 0.52979 0.09387 0.0
C696 C 0.04098 0.55744 0.16935 0.0
C697 C 0.05239 0.56739 0.10224 0.0
N698 N 0.05249 0.58057 0.13971 0.0
C699 C 0.03011 0.51974 0.16201 0.0
C700 C 0.03095 0.50574 0.12409 0.0
C701 C 0.01334 0.65999 0.21329 0.0
C702 C 0.05674 0.79854 0.14105 0.0
C703 C 0.03023 0.76725 0.20969 0.0
C704 C 0.01132 0.7986 0.19364 0.0
C705 C 0.02471 0.81428 0.15906 0.0
N706 N 0.06163 0.75191 0.19189 0.0
C707 C 0.07488 0.76717 0.15793 0.0
Co708 Co 0.64861 0.05829 0.15527 0.0
Co709 Co 0.7171 0.08198 0.22242 0.0
O710 O 0.69745 0.08259 0.1687 0.0
C711 C 0.69964 0.0439 0.0838 0.0
O712 O 0.72833 0.06355 0.09825 0.0
C713 C 0.73258 0.16322 0.19876 0.0
O714 O 0.6977 0.16667 0.18498 0.0
O715 O 0.66959 0.10841 0.24071 0.0
O716 O 0.62552 0.07657 0.20568 0.0
H717 H 0.70634 0.07055 0.36757 0.0
H718 H 0.68513 0.12078 0.10891 0.0
O719 O 0.66874 0.03953 0.10316 0.0
H720 H 0.55125 0.16063 0.12824 0.0
H721 H 0.55021 0.00402 0.06404 0.0
H722 H 0.59558 0.00895 0.19944 0.0
H723 H 0.5743 0.09965 0.15482 0.0
H724 H 0.6002 0.04987 0.08366 0.0
O725 O 0.74374 0.13203 0.21375 0.0
H726 H 0.68302 0.06757 0.29999 0.0
H727 H 0.79276 0.10033 0.25852 0.0
H728 H 0.54445 0.96388 0.18159 0.0
H729 H 0.6634 0.18203 0.0822 0.0
H730 H 0.52304 0.95953 0.11298 0.0
H731 H 0.59588 0.2023 0.09147 0.0
O732 O 0.66639 0.01002 0.17946 0.0
H733 H 0.82714 0.0622 0.13074 0.0
H734 H 0.76261 0.01338 0.24764 0.0
H735 H 0.81898 0.97958 0.22223 0.0
H736 H 0.85178 0.00397 0.16328 0.0
H737 H 0.77033 0.09488 0.15704 0.0
H738 H 0.81724 0.10365 0.32564 0.0
H739 H 0.77395 0.08855 0.38075 0.0
O740 O 0.69232 0.03118 0.23416 0.0
C741 C 0.63478 0.09959 0.23321 0.0
C742 C 0.72555 0.07699 0.3438 0.0
C743 C 0.78779 0.0955 0.32027 0.0
N744 N 0.73666 0.08301 0.27524 0.0
C745 C 0.71251 0.07535 0.30545 0.0
C746 C 0.77378 0.09347 0.28229 0.0
C747 C 0.76348 0.08709 0.35117 0.0
C748 C 0.65566 0.12897 0.11282 0.0
N749 N 0.63074 0.10567 0.13212 0.0
C750 C 0.64352 0.16389 0.09768 0.0
C751 C 0.60566 0.17527 0.10295 0.0
C752 C 0.58059 0.15186 0.12347 0.0
C753 C 0.59377 0.11715 0.13818 0.0
C754 C 0.55969 0.00528 0.09398 0.0
C755 C 0.5849 0.00894 0.17006 0.0
C756 C 0.58789 0.03134 0.10528 0.0
N757 N 0.60106 0.03209 0.14268 0.0
C758 C 0.55634 0.98283 0.15995 0.0
C759 C 0.54438 0.98041 0.12144 0.0
C760 C 0.67845 0.00403 0.21382 0.0
C761 C 0.81307 0.05122 0.1564 0.0
C762 C 0.77625 0.02397 0.22185 0.0
C763 C 0.80843 0.00482 0.20766 0.0
C764 C 0.82685 0.01854 0.17464 0.0
N765 N 0.76272 0.05589 0.20373 0.0
C766 C 0.78087 0.06963 0.17149 0.0
Co767 Co 0.05534 0.36994 0.86913 0.0
Co768 Co 0.07535 0.299 0.8025 0.0
O769 O 0.07497 0.31947 0.85571 0.0
C770 C 0.03831 0.32072 0.94003 0.0
O771 O 0.06219 0.29413 0.9286 0.0
C772 C 0.1553 0.28101 0.82779 0.0
O773 O 0.16222 0.31758 0.83236 0.0
O774 O 0.10705 0.34352 0.78531 0.0
O775 O 0.08127 0.39162 0.8207 0.0
H776 H 0.0531 0.29786 0.65732 0.0
H777 H 0.12123 0.32475 0.90378 0.0
O778 O 0.03097 0.34949 0.91848 0.0
H779 H 0.15075 0.4589 0.93384 0.0
H780 H 0.98479 0.46052 0.9563 0.0
H781 H 0.02343 0.43249 0.82188 0.0
H782 H 0.09458 0.44312 0.89495 0.0
H783 H 0.03552 0.41382 0.94278 0.0
O784 O 0.12255 0.26921 0.81665 0.0
H785 H 0.05204 0.32582 0.7227 0.0
H786 H 0.09961 0.22404 0.76945 0.0
H787 H 0.97151 0.47841 0.83375 0.0
H788 H 0.17873 0.34003 0.94052 0.0
H789 H 0.95042 0.49125 0.90143 0.0
H790 H 0.19383 0.40742 0.95683 0.0
O791 O 0.00735 0.35845 0.84015 0.0
H792 H 0.03669 0.19314 0.89279 0.0
H793 H 1.00486 0.2612 0.7718 0.0
H794 H 0.96345 0.20854 0.7938 0.0
H795 H 0.97922 0.1741 0.85475 0.0
H796 H 0.07727 0.24599 0.86962 0.0
H797 H 0.10189 0.1955 0.70424 0.0
H798 H 0.0785 0.23236 0.64747 0.0
O799 O 0.02824 0.32811 0.78719 0.0
C800 C 0.1031 0.37913 0.79305 0.0
C801 C 0.06373 0.28162 0.68177 0.0
C802 C 0.09125 0.22428 0.70806 0.0
N803 N 0.07701 0.27731 0.75021 0.0
C804 C 0.06321 0.29731 0.71912 0.0
C805 C 0.09034 0.24091 0.74498 0.0
C806 C 0.07799 0.2449 0.67625 0.0
C807 C 0.12678 0.35428 0.90999 0.0
N808 N 0.10224 0.38254 0.89823 0.0
C809 C 0.15986 0.36273 0.9312 0.0
C810 C 0.1683 0.40049 0.94039 0.0
C811 C 0.144 0.42931 0.92774 0.0
C812 C 0.11134 0.41987 0.90628 0.0
C813 C 0.99292 0.45433 0.9266 0.0
C814 C 0.01535 0.43873 0.85126 0.0
C815 C 0.02199 0.42807 0.9187 0.0
N816 N 0.03154 0.419 0.8812 0.0
C817 C 0.98551 0.46441 0.85789 0.0
C818 C 0.97362 0.4715 0.89584 0.0
C819 C 1.0031 0.34739 0.80526 0.0
C820 C 0.02952 0.20788 0.86615 0.0
C821 C 0.01201 0.24636 0.79832 0.0
C822 C 0.98843 0.21652 0.81062 0.0
C823 C 0.99728 0.19722 0.84482 0.0
N824 N 0.04355 0.25671 0.81945 0.0
C825 C 0.05246 0.23782 0.8529 0.0
Co826 Co 0.35963 0.94251 0.14268 0.0
Co827 Co 0.29579 0.91626 0.21443 0.0
O828 O 0.31096 0.92081 0.15979 0.0
C829 C 0.30075 0.96845 0.08199 0.0
O830 O 0.27232 0.95028 0.0986 0.0
C831 C 0.2808 0.83881 0.18207 0.0
O832 O 0.31475 0.83949 0.16578 0.0
O833 O 0.34418 0.88834 0.22645 0.0
O834 O 0.38707 0.91671 0.18692 0.0
H835 H 0.31523 0.91006 0.35948 0.0
H836 H 0.31191 0.8914 0.09207 0.0
O837 O 0.33419 0.96883 0.09706 0.0
H838 H 0.44131 0.83596 0.09038 0.0
H839 H 0.4479 0.99321 0.04041 0.0
H840 H 0.42204 0.98726 0.18086 0.0
H841 H 0.42776 0.89376 0.12895 0.0
H842 H 0.39758 0.95084 0.06574 0.0
O843 O 0.26901 0.86699 0.20217 0.0
H844 H 0.33529 0.9179 0.29154 0.0
H845 H 0.22191 0.89675 0.25279 0.0
H846 H 0.47233 0.0302 0.15682 0.0
H847 H 0.32424 0.83434 0.05229 0.0
H848 H 0.48398 0.03505 0.08583 0.0
H849 H 0.38943 0.80605 0.05131 0.0
O850 O 0.3509 0.98862 0.17574 0.0
H851 H 0.17629 0.94417 0.13802 0.0
H852 H 0.25664 0.98423 0.24879 0.0
H853 H 0.19856 0.02092 0.23289 0.0
H854 H 0.15784 1.00087 0.17723 0.0
H855 H 0.23497 0.90864 0.15452 0.0
H856 H 0.2006 0.88787 0.32033 0.0
H857 H 0.24731 0.89493 0.37436 0.0
O858 O 0.32203 0.96554 0.22892 0.0
C859 C 0.37859 0.89461 0.21538 0.0
C860 C 0.29442 0.90768 0.33627 0.0
C861 C 0.23014 0.89514 0.31431 0.0
N862 N 0.27957 0.90998 0.26814 0.0
C863 C 0.30559 0.91273 0.29766 0.0
C864 C 0.24238 0.90045 0.27607 0.0
C865 C 0.25636 0.89904 0.34459 0.0
C866 C 0.34053 0.88029 0.09073 0.0
N867 N 0.36934 0.89715 0.11142 0.0
C868 C 0.34728 0.84749 0.06862 0.0
C869 C 0.3838 0.83153 0.06821 0.0
C870 C 0.41291 0.8483 0.09011 0.0
C871 C 0.40505 0.88111 0.11183 0.0
C872 C 0.44276 0.99164 0.07138 0.0
C873 C 0.42834 0.98741 0.15029 0.0
C874 C 0.41464 0.96726 0.08601 0.0
N875 N 0.40706 0.96598 0.12501 0.0
C876 C 0.45645 0.01239 0.13669 0.0
C877 C 0.46306 0.01504 0.09688 0.0
C878 C 0.34052 0.99178 0.21119 0.0
C879 C 0.1938 0.95319 0.16235 0.0
C880 C 0.23937 0.97556 0.22422 0.0
C881 C 0.20636 0.99633 0.21551 0.0
C882 C 0.18349 0.98503 0.18432 0.0
N883 N 0.24936 0.94439 0.20247 0.0
C884 C 0.22701 0.9331 0.17192 0.0
Co885 Co 0.94667 0.63935 0.86711 0.0
Co886 Co 0.92496 0.71169 0.80229 0.0
O887 O 0.92479 0.68938 0.85477 0.0
C888 C 0.96281 0.6885 0.93918 0.0
O889 O 0.94104 0.71646 0.92691 0.0
C890 C 0.84339 0.72423 0.82678 0.0
O891 O 0.83988 0.68779 0.83448 0.0
O892 O 0.89725 0.66558 0.78198 0.0
O893 O 0.92267 0.61744 0.81774 0.0
H894 H 0.94973 0.71794 0.65775 0.0
H895 H 0.8824 0.68086 0.90803 0.0
O896 O 0.9691 0.65924 0.91785 0.0
H897 H 0.84905 0.54455 0.91592 0.0
H898 H 0.01337 0.54783 0.95578 0.0
H899 H 0.98533 0.5804 0.81982 0.0
H900 H 0.90677 0.56477 0.88122 0.0
H901 H 0.96232 0.59353 0.93983 0.0
O902 O 0.87495 0.73775 0.81443 0.0
H903 H 0.95313 0.68957 0.72267 0.0
H904 H 0.89745 0.78628 0.77113 0.0
H905 H 0.0374 0.53525 0.83413 0.0
H906 H 0.82345 0.66176 0.94098 0.0
H907 H 0.05305 0.52017 0.90283 0.0
H908 H 0.80658 0.5931 0.94599 0.0
O909 O 0.99502 0.65357 0.83978 0.0
H910 H 0.94979 0.81784 0.89759 0.0
H911 H 0.99435 0.75505 0.77746 0.0
H912 H 0.03048 0.8098 0.80386 0.0
H913 H 0.00826 0.84159 0.86438 0.0
H914 H 0.9146 0.76287 0.87023 0.0
H915 H 0.89353 0.81575 0.70662 0.0
H916 H 0.91961 0.78155 0.64917 0.0
O917 O 0.97496 0.68672 0.78831 0.0
C918 C 0.90149 0.62998 0.78976 0.0
C919 C 0.9376 0.73284 0.68243 0.0
C920 C 0.90612 0.7877 0.70984 0.0
N921 N 0.92367 0.73497 0.75081 0.0
C922 C 0.93897 0.71655 0.7194 0.0
C923 C 0.90805 0.77054 0.74637 0.0
C924 C 0.92081 0.76856 0.67764 0.0
C925 C 0.8757 0.65095 0.9095 0.0
N926 N 0.89978 0.62408 0.89405 0.0
C927 C 0.84202 0.64027 0.9285 0.0
C928 C 0.83259 0.60176 0.93136 0.0
C929 C 0.85653 0.57452 0.91474 0.0
C930 C 0.88979 0.58626 0.89565 0.0
C931 C 0.00757 0.55499 0.92577 0.0
C932 C 0.99114 0.5731 0.84947 0.0
C933 C 0.97833 0.5806 0.91649 0.0
N934 N 0.97178 0.59097 0.87874 0.0
C935 C 0.02102 0.54789 0.85756 0.0
C936 C 0.02987 0.53956 0.89608 0.0
C937 C 1.00048 0.66779 0.8063 0.0
C938 C 0.95978 0.80423 0.87121 0.0
C939 C 0.98453 0.76863 0.80386 0.0
C940 C 0.00507 0.7997 0.81863 0.0
C941 C 0.99259 0.81752 0.85258 0.0
N942 N 0.95249 0.75563 0.82242 0.0
C943 C 0.93995 0.77311 0.85557 0.0
C944 C 0.2707 0.29373 0.36275 0.0
C945 C 0.25347 0.30423 0.32695 0.0
C946 C 0.29481 0.25891 0.29204 0.0
C947 C 0.31158 0.24785 0.32791 0.0
N948 N 0.31165 0.24977 0.39788 0.0
N949 N 0.24313 0.29198 0.2589 0.0
C950 C 0.29804 0.26352 0.36344 0.0
C951 C 0.2638 0.28532 0.29198 0.0
N952 N 0.26283 0.31424 0.39567 0.0
N953 N 0.30902 0.24463 0.25794 0.0
H954 H 0.21991 0.31071 0.25811 0.0
H955 H 0.24659 0.27665 0.2332 0.0
H956 H 0.32996 0.22343 0.25681 0.0
H957 H 0.30163 0.25511 0.23068 0.0
H958 H 0.27785 0.31128 0.42162 0.0
H959 H 0.24286 0.33633 0.39656 0.0
H960 H 0.2999 0.25657 0.42481 0.0
H961 H 0.33323 0.22937 0.39939 0.0
C962 C 0.30424 0.74302 0.73136 0.0
C963 C 0.32498 0.75032 0.6967 0.0
C964 C 0.28475 0.704 0.66143 0.0
C965 C 0.26603 0.69453 0.69673 0.0
N966 N 0.25983 0.70209 0.76614 0.0
N967 N 0.3395 0.73373 0.6303 0.0
C968 C 0.27641 0.71316 0.73197 0.0
C969 C 0.31623 0.72996 0.66203 0.0
N970 N 0.31007 0.7657 0.76325 0.0
N971 N 0.2727 0.68785 0.62733 0.0
H972 H 0.36342 0.75154 0.62995 0.0
H973 H 0.33731 0.71684 0.60547 0.0
H974 H 0.25161 0.66682 0.62603 0.0
H975 H 0.28179 0.69693 0.60008 0.0
H976 H 0.29314 0.76473 0.7881 0.0
H977 H 0.33009 0.78783 0.76387 0.0
H978 H 0.26953 0.71081 0.79336 0.0
H979 H 0.23746 0.68237 0.76755 0.0
C980 C 0.71844 0.74018 0.28356 0.0
C981 C 0.70146 0.7529 0.31878 0.0
C982 C 0.74077 0.70782 0.3558 0.0
C983 C 0.75844 0.69571 0.32072 0.0
N984 N 0.76983 0.70485 0.25239 0.0
N985 N 0.70119 0.75459 0.38875 0.0
C986 C 0.74895 0.71329 0.28491 0.0
C987 C 0.71443 0.73876 0.35503 0.0
N988 N 0.70487 0.75335 0.2488 0.0
N989 N 0.74707 0.68804 0.38938 0.0
H990 H 0.68073 0.77616 0.38919 0.0
H991 H 0.7126 0.74858 0.41601 0.0
H992 H 0.76544 0.66473 0.39096 0.0
H993 H 0.73178 0.69255 0.41493 0.0
H994 H 0.71233 0.74164 0.22203 0.0
H995 H 0.68447 0.775 0.24671 0.0
H996 H 0.76694 0.71919 0.2261 0.0
H997 H 0.79254 0.68551 0.25253 0.0
C998 C 0.71321 0.26623 0.65003 0.0
C999 C 0.70162 0.25071 0.68621 0.0
C1000 C 0.74817 0.29139 0.72027 0.0
C1001 C 0.75591 0.31049 0.68483 0.0
N1002 N 0.74511 0.31804 0.61608 0.0
N1003 N 0.70775 0.24732 0.75591 0.0
C1004 C 0.73882 0.29799 0.64954 0.0
C1005 C 0.71929 0.26276 0.72136 0.0
N1006 N 0.69921 0.25102 0.61624 0.0
N1007 N 0.76912 0.30019 0.75272 0.0
H1008 H 0.68917 0.22404 0.75766 0.0
H1009 H 0.71526 0.25838 0.78297 0.0
H1010 H 0.79039 0.3211 0.75296 0.0
H1011 H 0.76778 0.28492 0.77857 0.0
H1012 H 0.70934 0.25826 0.58881 0.0
H1013 H 0.6792 0.22891 0.61562 0.0
H1014 H 0.73016 0.31341 0.59034 0.0
H1015 H 0.76381 0.34122 0.61452 0.0
C1016 C 0.762 0.78889 0.79381 0.0
C1017 C 0.75196 0.80655 0.82953 0.0
C1018 C 0.79569 0.76354 0.8643 0.0
C1019 C 0.80943 0.74969 0.8281 0.0
N1020 N 0.80692 0.7494 0.75806 0.0
N1021 N 0.76059 0.81299 0.89875 0.0
C1022 C 0.79277 0.76231 0.79274 0.0
C1023 C 0.76869 0.79409 0.86492 0.0
N1024 N 0.74129 0.79694 0.76108 0.0
N1025 N 0.80878 0.74774 0.89805 0.0
H1026 H 0.74079 0.83519 0.90046 0.0
H1027 H 0.77519 0.80848 0.92471 0.0
H1028 H 0.8296 0.72646 0.89861 0.0
H1029 H 0.79711 0.75358 0.92524 0.0
H1030 H 0.7446 0.78256 0.7348 0.0
H1031 H 0.71813 0.81576 0.7611 0.0
H1032 H 0.79972 0.76118 0.7313 0.0
H1033 H 0.82757 0.72797 0.75603 0.0
C1034 C 0.77601 0.20905 0.16365 0.0
C1035 C 0.75969 0.19608 0.19901 0.0
C1036 C 0.80136 0.24 0.23582 0.0
C1037 C 0.82025 0.25006 0.20083 0.0
N1038 N 0.82882 0.24165 0.13187 0.0
N1039 N 0.75728 0.19756 0.26906 0.0
C1040 C 0.80817 0.23424 0.16476 0.0
C1041 C 0.77251 0.21116 0.23519 0.0
N1042 N 0.76104 0.19697 0.12899 0.0
N1043 N 0.81008 0.25909 0.26944 0.0
H1044 H 0.73385 0.17906 0.26986 0.0
H1045 H 0.76878 0.20319 0.29639 0.0
H1046 H 0.83105 0.28029 0.271 0.0
H1047 H 0.7947 0.25621 0.29515 0.0
H1048 H 0.76863 0.20851 0.10225 0.0
H1049 H 0.73888 0.17709 0.12695 0.0
H1050 H 0.82433 0.22797 0.10538 0.0
H1051 H 0.85272 0.25951 0.13164 0.0
C1052 C 0.21714 0.24924 0.8088 0.0
C1053 C 0.18586 0.25249 0.83486 0.0
C1054 C 0.2048 0.19285 0.86659 0.0
C1055 C 0.23733 0.19052 0.84189 0.0
N1056 N 0.27941 0.22136 0.79601 0.0
N1057 N 0.15583 0.23335 0.89465 0.0
C1058 C 0.245 0.22022 0.81492 0.0
C1059 C 0.18157 0.22612 0.86569 0.0
N1060 N 0.21944 0.27279 0.77728 0.0
N1061 N 0.19462 0.16253 0.88929 0.0
H1062 H 0.13926 0.25809 0.89536 0.0
H1063 H 0.15391 0.21706 0.91985 0.0
H1064 H 0.21007 0.13715 0.89036 0.0
H1065 H 0.1688 0.16117 0.90437 0.0
H1066 H 0.23901 0.26881 0.75482 0.0
H1067 H 0.19989 0.29468 0.77204 0.0
H1068 H 0.28808 0.24423 0.77885 0.0
H1069 H 0.30098 0.20128 0.8006 0.0
C1070 C 0.23837 0.79395 0.14431 0.0
C1071 C 0.25649 0.80408 0.17986 0.0
C1072 C 0.22228 0.75244 0.21331 0.0
C1073 C 0.20059 0.74573 0.17913 0.0
N1074 N 0.18638 0.76 0.11222 0.0
N1075 N 0.26641 0.79359 0.24838 0.0
C1076 C 0.20866 0.76596 0.1444 0.0
C1077 C 0.24881 0.78329 0.21438 0.0
N1078 N 0.24914 0.81157 0.11063 0.0
N1079 N 0.21799 0.72857 0.24442 0.0
H1080 H 0.28818 0.81398 0.24982 0.0
H1081 H 0.25848 0.78322 0.27552 0.0
H1082 H 0.1991 0.70545 0.24424 0.0
H1083 H 0.23525 0.72943 0.26907 0.0
H1084 H 0.24024 0.80283 0.08315 0.0
H1085 H 0.2691 0.83368 0.10982 0.0
H1086 H 0.18742 0.77688 0.08742 0.0
H1087 H 0.16505 0.73917 0.11094 0.0
C1088 C 0.18525 0.54775 0.25091 0.0
C1089 C 0.17554 0.53863 0.29036 0.0
C1090 C 0.12789 0.59034 0.28925 0.0
C1091 C 0.1378 0.59937 0.25061 0.0
N1092 N 0.18589 0.59619 0.20087 0.0
N1093 N 0.15311 0.56807 0.35017 0.0
C1094 C 0.1695 0.58095 0.23332 0.0
C1095 C 0.15174 0.56522 0.31067 0.0
N1096 N 0.20927 0.52549 0.22953 0.0
N1097 N 0.09501 0.60422 0.3052 0.0
H1098 H 0.17429 0.55467 0.36647 0.0
H1099 H 0.13741 0.58834 0.36566 0.0
H1100 H 0.07511 0.61957 0.28898 0.0
H1101 H 0.08574 0.59668 0.33293 0.0
H1102 H 0.2107 0.52694 0.19929 0.0
H1103 H 0.22836 0.50641 0.24146 0.0
H1104 H 0.21152 0.58633 0.18904 0.0
H1105 H 0.17604 0.62136 0.18837 0.0
C1106 C 0.54829 0.90951 0.71828 0.0
C1107 C 0.54217 0.8698 0.71175 0.0
C1108 C 0.59898 0.85544 0.7513 0.0
C1109 C 0.6055 0.89513 0.7573 0.0
N1110 N 0.59307 0.95959 0.73644 0.0
N1111 N 0.56946 0.80693 0.71063 0.0
C1112 C 0.58224 0.92207 0.73757 0.0
C1113 C 0.57003 0.84338 0.72471 0.0
N1114 N 0.52102 0.93529 0.70774 0.0
N1115 N 0.61884 0.8291 0.77242 0.0
H1116 H 0.54978 0.79816 0.68956 0.0
H1117 H 0.59088 0.78705 0.71641 0.0
H1118 H 0.6395 0.83653 0.79292 0.0
H1119 H 0.61229 0.80006 0.77212 0.0
H1120 H 0.52198 0.96397 0.7157 0.0
H1121 H 0.49554 0.92736 0.69427 0.0
H1122 H 0.57943 0.97995 0.71932 0.0
H1123 H 0.61821 0.96961 0.74935 0.0
C1124 C 0.90626 0.43089 0.27761 0.0
C1125 C 0.8802 0.40345 0.26352 0.0
C1126 C 0.82801 0.43914 0.29476 0.0
C1127 C 0.85377 0.46988 0.30179 0.0
N1128 N 0.91515 0.49798 0.28645 0.0
N1129 N 0.81526 0.38108 0.25774 0.0
C1130 C 0.89241 0.46655 0.2899 0.0
C1131 C 0.84062 0.40725 0.27201 0.0
N1132 N 0.94439 0.42301 0.27934 0.0
N1133 N 0.79203 0.44025 0.31013 0.0
H1134 H 0.82416 0.35685 0.24258 0.0
H1135 H 0.78567 0.38434 0.25942 0.0
H1136 H 0.7827 0.46288 0.32746 0.0
H1137 H 0.77285 0.41751 0.30852 0.0
H1138 H 0.96386 0.44139 0.29285 0.0
H1139 H 0.95546 0.39657 0.27111 0.0
H1140 H 0.9426 0.49684 0.27451 0.0
H1141 H 0.90494 0.52546 0.29134 0.0
C1142 C 0.4817 0.13657 0.77547 0.0
C1143 C 0.47886 0.15636 0.73991 0.0
C1144 C 0.40858 0.1558 0.74576 0.0
C1145 C 0.41179 0.13572 0.78198 0.0
N1146 N 0.45295 0.12725 0.83799 0.0
N1147 N 0.4405 0.19227 0.69503 0.0
C1148 C 0.44883 0.13226 0.79891 0.0
C1149 C 0.44252 0.16799 0.72602 0.0
N1150 N 0.5155 0.12028 0.7864 0.0
N1151 N 0.37368 0.16398 0.72999 0.0
H1152 H 0.46471 0.20191 0.6803 0.0
H1153 H 0.41534 0.2054 0.68586 0.0
H1154 H 0.3488 0.16705 0.74621 0.0
H1155 H 0.36985 0.16998 0.70061 0.0
H1156 H 0.51791 0.10274 0.81069 0.0
H1157 H 0.53979 0.12076 0.76886 0.0
H1158 H 0.47953 0.12733 0.85183 0.0
H1159 H 0.4299 0.12865 0.85701 0.0
C1160 C 0.15056 0.44011 0.71164 0.0
C1161 C 0.15415 0.47522 0.73237 0.0
C1162 C 0.1407 0.43986 0.79195 0.0
C1163 C 0.12634 0.40841 0.7709 0.0
N1164 N 0.1201 0.37835 0.70757 0.0
N1165 N 0.14159 0.50787 0.79358 0.0
C1166 C 0.13197 0.4083 0.72974 0.0
C1167 C 0.14635 0.47498 0.77298 0.0
N1168 N 0.16698 0.43601 0.67585 0.0
N1169 N 0.15111 0.43568 0.82975 0.0
H1170 H 0.13922 0.53425 0.78025 0.0
H1171 H 0.13402 0.50792 0.82292 0.0
H1172 H 0.15226 0.40867 0.84239 0.0
H1173 H 0.16392 0.45768 0.84568 0.0
H1174 H 0.16797 0.41003 0.66105 0.0
H1175 H 0.18399 0.45702 0.66317 0.0
H1176 H 0.11829 0.37959 0.67736 0.0
H1177 H 0.11171 0.3526 0.71932 0.0
C1178 C 0.44446 0.89993 0.2445 0.0
C1179 C 0.41107 0.87761 0.23809 0.0
C1180 C 0.44122 0.82573 0.27576 0.0
C1181 C 0.47599 0.84659 0.27673 0.0
N1182 N 0.51279 0.89886 0.25044 0.0
N1183 N 0.38139 0.81505 0.24174 0.0
C1184 C 0.47828 0.88209 0.25734 0.0
C1185 C 0.41025 0.83928 0.25228 0.0
N1186 N 0.44362 0.93871 0.24092 0.0
N1187 N 0.43777 0.79306 0.29701 0.0
H1188 H 0.35957 0.82273 0.22277 0.0
H1189 H 0.38137 0.78606 0.24844 0.0
H1190 H 0.46027 0.78206 0.3135 0.0
H1191 H 0.41187 0.77868 0.30055 0.0
H1192 H 0.46671 0.95614 0.24853 0.0
H1193 H 0.41852 0.9537 0.23563 0.0
H1194 H 0.51589 0.923 0.23303 0.0
H1195 H 0.53834 0.88678 0.25951 0.0
C1196 C 0.83066 0.54882 0.7691 0.0
C1197 C 0.83528 0.54298 0.72818 0.0
C1198 C 0.88045 0.59697 0.72681 0.0
C1199 C 0.87748 0.6015 0.76771 0.0
N1200 N 0.83692 0.59243 0.82331 0.0
N1201 N 0.84757 0.57695 0.66846 0.0
C1202 C 0.849 0.58036 0.78765 0.0
C1203 C 0.85498 0.57182 0.70704 0.0
N1204 N 0.80797 0.5254 0.79065 0.0
N1205 N 0.90804 0.61584 0.70661 0.0
H1206 H 0.82518 0.5628 0.65443 0.0
H1207 H 0.85936 0.59917 0.6523 0.0
H1208 H 0.92726 0.63409 0.72011 0.0
H1209 H 0.91381 0.61053 0.67737 0.0
H1210 H 0.81018 0.5234 0.8208 0.0
H1211 H 0.78572 0.50967 0.77879 0.0
H1212 H 0.81329 0.58102 0.83766 0.0
H1213 H 0.84773 0.61691 0.83647 0.0
C1214 C 0.57062 0.09083 0.26496 0.0
C1215 C 0.60267 0.11485 0.25802 0.0
C1216 C 0.56863 0.16601 0.29348 0.0
C1217 C 0.53476 0.14362 0.2935 0.0
N1218 N 0.50178 0.08874 0.26713 0.0
N1219 N 0.62857 0.17924 0.26091 0.0
C1220 C 0.53516 0.10726 0.27554 0.0
C1221 C 0.60095 0.15359 0.2712 0.0
N1222 N 0.57433 0.05207 0.26347 0.0
N1223 N 0.57006 0.19899 0.31466 0.0
H1224 H 0.65182 0.17238 0.24348 0.0
H1225 H 0.62633 0.20839 0.26659 0.0
H1226 H 0.54687 0.20877 0.33097 0.0
H1227 H 0.59517 0.21462 0.31868 0.0
H1228 H 0.55197 0.0336 0.27065 0.0
H1229 H 0.60093 0.03884 0.26045 0.0
H1230 H 0.50104 0.06327 0.25134 0.0
H1231 H 0.47502 0.10083 0.2725 0.0
C1232 C 0.6826 0.04814 0.74956 0.0
C1233 C 0.67695 0.0409 0.78999 0.0
C1234 C 0.63649 0.09807 0.79425 0.0
C1235 C 0.63937 0.10342 0.75352 0.0
N1236 N 0.67977 0.0946 0.69779 0.0
N1237 N 0.66824 0.07334 0.85123 0.0
C1238 C 0.66665 0.0816 0.73265 0.0
C1239 C 0.65998 0.07036 0.8126 0.0
N1240 N 0.70374 0.02413 0.727 0.0
N1241 N 0.61083 0.11845 0.81555 0.0
H1242 H 0.68936 0.05657 0.8642 0.0
H1243 H 0.65854 0.09578 0.86857 0.0
H1244 H 0.59368 0.13921 0.80318 0.0
H1245 H 0.60483 0.11251 0.84459 0.0
H1246 H 0.702 0.02388 0.69674 0.0
H1247 H 0.72441 0.0061 0.73826 0.0
H1248 H 0.70268 0.08238 0.68291 0.0
H1249 H 0.67051 0.1203 0.686 0.0
C1250 C 0.09688 0.35567 0.25328 0.0
C1251 C 0.10368 0.39463 0.26276 0.0
C1252 C 0.0423 0.41167 0.23261 0.0
C1253 C 0.03559 0.37281 0.22217 0.0
N1254 N 0.06419 0.31145 0.21021 0.0
N1255 N 0.08895 0.46038 0.249 0.0
C1256 C 0.06527 0.34585 0.22883 0.0
C1257 C 0.07827 0.42281 0.2485 0.0
N1258 N 0.11947 0.32777 0.26871 0.0
N1259 N 0.01386 0.43794 0.22954 0.0
H1260 H 0.11578 0.46943 0.25874 0.0
H1261 H 0.07302 0.48188 0.23577 0.0
H1262 H 0.98746 0.43148 0.21768 0.0
H1263 H 0.01535 0.46488 0.24242 0.0
H1264 H 0.1132 0.29878 0.26601 0.0
H1265 H 0.1426 0.33358 0.28691 0.0
H1266 H 0.08644 0.29168 0.21143 0.0
H1267 H 0.04315 0.30499 0.18968 0.0
C1268 C 0.39511 0.9818 0.76174 0.0
C1269 C 0.35582 0.98247 0.77173 0.0
C1270 C 0.34737 0.92156 0.73714 0.0
C1271 C 0.38772 0.91889 0.73208 0.0
N1272 N 0.44947 0.94055 0.75421 0.0
N1273 N 0.29552 0.94916 0.77494 0.0
C1274 C 0.41154 0.94739 0.74839 0.0
C1275 C 0.33207 0.95122 0.76113 0.0
N1276 N 0.41674 0.01413 0.764 0.0
N1277 N 0.32368 0.89644 0.71859 0.0
H1278 H 0.28414 0.96984 0.79344 0.0
H1279 H 0.27796 0.92539 0.771 0.0
H1280 H 0.33398 0.87484 0.70059 0.0
H1281 H 0.29398 0.8992 0.71834 0.0
H1282 H 0.44514 0.01518 0.75467 0.0
H1283 H 0.40487 0.04057 0.77075 0.0
H1284 H 0.46726 0.95952 0.76916 0.0
H1285 H 0.4615 0.91388 0.74872 0.0
C1286 C 0.91973 0.60926 0.23637 0.0
C1287 C 0.91178 0.62068 0.27507 0.0
C1288 C 0.96654 0.66485 0.27237 0.0
C1289 C 0.97494 0.65292 0.2333 0.0
N1290 N 0.94473 0.6299 0.17451 0.0
N1291 N 0.91816 0.67086 0.32232 0.0
C1292 C 0.94698 0.62999 0.21409 0.0
C1293 C 0.93261 0.65163 0.29104 0.0
N1294 N 0.90231 0.57789 0.22099 0.0
N1295 N 0.98972 0.68945 0.29211 0.0
H1296 H 0.8915 0.66438 0.33412 0.0
H1297 H 0.93002 0.69601 0.33326 0.0
H1298 H 0.00674 0.70961 0.27869 0.0
H1299 H 0.98943 0.69163 0.32235 0.0
H1300 H 0.90838 0.56747 0.19333 0.0
H1301 H 0.8851 0.56016 0.23764 0.0
H1302 H 0.9233 0.61554 0.15922 0.0
H1303 H 0.96039 0.64902 0.15762 0.0
C1304 C 0.67394 0.95826 0.27292 0.0
C1305 C 0.67029 0.96539 0.23213 0.0
C1306 C 0.62876 0.90894 0.22659 0.0
C1307 C 0.63103 0.90277 0.26727 0.0
N1308 N 0.66984 0.91154 0.32429 0.0
N1309 N 0.66218 0.93309 0.17045 0.0
C1310 C 0.65756 0.92465 0.28913 0.0
C1311 C 0.65323 0.93627 0.20894 0.0
N1312 N 0.69372 0.98241 0.29666 0.0
N1313 N 0.60267 0.88971 0.20462 0.0
H1314 H 0.68403 0.9491 0.15775 0.0
H1315 H 0.65225 0.9108 0.15298 0.0
H1316 H 0.58402 0.87003 0.2166 0.0
H1317 H 0.59736 0.89616 0.17555 0.0
H1318 H 0.69015 0.9827 0.32676 0.0
H1319 H 0.71516 1.00034 0.28683 0.0
H1320 H 0.69224 0.92394 0.3399 0.0
H1321 H 0.66084 0.8855 0.33551 0.0
C1322 C 0.90323 0.3553 0.76057 0.0
C1323 C 0.90403 0.39383 0.7469 0.0
C1324 C 0.97193 0.39677 0.76353 0.0
C1325 C 0.96938 0.36156 0.78339 0.0
N1326 N 0.93002 0.3097 0.80611 0.0
N1327 N 0.93726 0.45444 0.75016 0.0
C1328 C 0.93408 0.34167 0.7839 0.0
C1329 C 0.93788 0.41558 0.75264 0.0
N1330 N 0.87494 0.33075 0.7493 0.0
N1331 N 0.00662 0.41207 0.75414 0.0
H1332 H 0.91171 0.46967 0.74786 0.0
H1333 H 0.96124 0.47126 0.7562 0.0
H1334 H 0.03231 0.39818 0.76009 0.0
H1335 H 0.00926 0.4366 0.7372 0.0
H1336 H 0.87517 0.30178 0.75614 0.0
H1337 H 0.85402 0.33788 0.72916 0.0
H1338 H 0.90372 0.29618 0.8102 0.0
H1339 H 0.95229 0.29873 0.82292 0.0
C1340 C 0.36865 0.09585 0.23446 0.0
C1341 C 0.37665 0.09359 0.27528 0.0
C1342 C 0.36114 0.02565 0.27342 0.0
C1343 C 0.35155 0.02734 0.23332 0.0
N1344 N 0.33326 0.0686 0.18036 0.0
N1345 N 0.35543 0.06126 0.33266 0.0
C1346 C 0.35176 0.06375 0.21499 0.0
C1347 C 0.36539 0.0599 0.29455 0.0
N1348 N 0.37597 0.12817 0.21384 0.0
N1349 N 0.36827 0.99189 0.29151 0.0
H1350 H 0.35125 0.08758 0.34621 0.0
H1351 H 0.34512 0.03751 0.34764 0.0
H1352 H 0.3708 0.96639 0.27637 0.0
H1353 H 0.37713 0.99052 0.32046 0.0
H1354 H 0.37742 0.12835 0.18357 0.0
H1355 H 0.37938 0.15483 0.22634 0.0
H1356 H 0.32955 0.09516 0.16731 0.0
H1357 H 0.31718 0.04704 0.1673 0.0
C1358 C 0.10238 0.66298 0.76416 0.0
C1359 C 0.10167 0.62571 0.74713 0.0
C1360 C 0.03344 0.62118 0.76261 0.0
C1361 C 0.03518 0.65537 0.78446 0.0
N1362 N 0.07312 0.70684 0.81049 0.0
N1363 N 0.06819 0.5651 0.74444 0.0
C1364 C 0.07032 0.67563 0.78681 0.0
C1365 C 0.06767 0.60362 0.75042 0.0
N1366 N 0.13228 0.68714 0.7572 0.0
N1367 N 0.9991 0.60528 0.75291 0.0
H1368 H 0.09332 0.55009 0.73929 0.0
H1369 H 0.04457 0.54763 0.74979 0.0
H1370 H 0.97324 0.61693 0.76181 0.0
H1371 H 0.99658 0.58235 0.73364 0.0
H1372 H 0.13238 0.71565 0.76591 0.0
H1373 H 0.15528 0.68005 0.73944 0.0
H1374 H 0.09898 0.72053 0.81644 0.0
H1375 H 0.04991 0.71719 0.82643 0.0
C1376 C 0.20446 0.53815 0.51351 0.0
C1377 C 0.21308 0.51715 0.54775 0.0
C1378 C 0.22126 0.45908 0.50797 0.0
C1379 C 0.21407 0.48068 0.47378 0.0
N1380 N 0.20936 0.54221 0.44339 0.0
N1381 N 0.23589 0.45908 0.57712 0.0
C1382 C 0.20873 0.52065 0.47644 0.0
C1383 C 0.22372 0.47809 0.54475 0.0
N1384 N 0.19146 0.57476 0.51623 0.0
N1385 N 0.2237 0.42019 0.50563 0.0
H1386 H 0.23659 0.47157 0.60466 0.0
H1387 H 0.24794 0.43191 0.57632 0.0
H1388 H 0.22248 0.40532 0.4794 0.0
H1389 H 0.2243 0.40239 0.52978 0.0
H1390 H 0.17982 0.58971 0.49293 0.0
H1391 H 0.18994 0.58932 0.54243 0.0
H1392 H 0.20931 0.57194 0.44345 0.0
H1393 H 0.21426 0.5304 0.41599 0.0
C1394 C 0.50197 0.77426 0.48115 0.0
C1395 C 0.5323 0.79964 0.47158 0.0
C1396 C 0.53844 0.81758 0.54058 0.0
C1397 C 0.50522 0.79606 0.54918 0.0
N1398 N 0.45378 0.75513 0.5284 0.0
N1399 N 0.57731 0.84824 0.49192 0.0
C1400 C 0.48667 0.77447 0.51969 0.0
C1401 C 0.55008 0.82188 0.5013 0.0
N1402 N 0.48783 0.75006 0.45339 0.0
N1403 N 0.55897 0.83402 0.57014 0.0
H1404 H 0.58749 0.85163 0.46393 0.0
H1405 H 0.58762 0.86889 0.51108 0.0
H1406 H 0.55086 0.83242 0.59923 0.0
H1407 H 0.58585 0.84638 0.56644 0.0
H1408 H 0.46842 0.72824 0.45921 0.0
H1409 H 0.49742 0.75018 0.42468 0.0
H1410 H 0.43616 0.74246 0.50763 0.0
H1411 H 0.44317 0.75323 0.55667 0.0
C1412 C 0.7836 0.54302 0.4963 0.0
C1413 C 0.79177 0.51419 0.46851 0.0
C1414 C 0.78911 0.46668 0.52055 0.0
C1415 C 0.79043 0.49628 0.54872 0.0
N1416 N 0.78991 0.56381 0.56314 0.0
N1417 N 0.80423 0.44767 0.45467 0.0
C1418 C 0.7874 0.53486 0.53661 0.0
C1419 C 0.79454 0.4756 0.48062 0.0
N1420 N 0.77114 0.57785 0.48401 0.0
N1421 N 0.7813 0.43025 0.53197 0.0
H1422 H 0.80843 0.45284 0.42517 0.0
H1423 H 0.81079 0.41986 0.46304 0.0
H1424 H 0.77367 0.42401 0.56056 0.0
H1425 H 0.77736 0.40771 0.51254 0.0
H1426 H 0.76213 0.59937 0.50286 0.0
H1427 H 0.7652 0.58313 0.45481 0.0
H1428 H 0.79237 0.59242 0.55529 0.0
H1429 H 0.79212 0.55912 0.59292 0.0
C1430 C 0.46009 0.16852 0.51346 0.0
C1431 C 0.47719 0.19214 0.48468 0.0
C1432 C 0.5204 0.21901 0.53441 0.0
C1433 C 0.50599 0.19229 0.56179 0.0
N1434 N 0.46339 0.14037 0.57759 0.0
N1435 N 0.52484 0.23854 0.46668 0.0
C1436 C 0.47619 0.16675 0.55132 0.0
C1437 C 0.50743 0.2174 0.49498 0.0
N1438 N 0.42716 0.14911 0.50519 0.0
N1439 N 0.54668 0.24564 0.54611 0.0
H1440 H 0.51584 0.23827 0.43777 0.0
H1441 H 0.5496 0.25454 0.47106 0.0
H1442 H 0.55789 0.24653 0.5742 0.0
H1443 H 0.55562 0.26839 0.52898 0.0
H1444 H 0.41058 0.13512 0.52586 0.0
H1445 H 0.41446 0.14969 0.47801 0.0
H1446 H 0.44628 0.11711 0.5701 0.0
H1447 H 0.47137 0.1405 0.60681 0.0
C1448 C 0.72844 1.00092 0.03194 0.0
C1449 C 0.70133 0.0294 0.04274 0.0
C1450 C 0.67527 0.02894 0.97601 0.0
C1451 C 0.70043 0.99863 0.96611 0.0
N1452 N 0.74925 0.95371 0.9842 0.0
N1453 N 0.64871 0.07058 0.02524 0.0
C1454 C 0.72688 0.98434 0.99385 0.0
C1455 C 0.67471 0.04334 0.01476 0.0
N1456 N 0.75549 0.98956 0.05823 0.0
N1457 N 0.65292 0.04507 0.94777 0.0
H1458 H 0.65024 0.08535 0.05136 0.0
H1459 H 0.6247 0.07773 1.00889 0.0
H1460 H 0.65173 0.03491 0.91933 0.0
H1461 H 0.63733 0.07011 0.95135 0.0
H1462 H 0.77869 0.97222 0.05137 0.0
H1463 H 0.75597 0.999 0.08698 0.0
H1464 H 0.76638 0.93896 1.00379 0.0
H1465 H 0.74911 0.94137 0.95656 0.0
C1466 C 0.99747 0.29308 0.99385 0.0
C1467 C 0.02439 0.32075 0.98105 0.0
C1468 C 0.02181 0.35242 0.04489 0.0
C1469 C 0.9962 0.32395 0.05824 0.0
N1470 N 0.96328 0.26429 0.04804 0.0
N1471 N 0.06951 0.37045 0.99774 0.0
C1472 C 0.98529 0.29322 0.03353 0.0
C1473 C 0.03851 0.34873 1.00749 0.0
N1474 N 0.98251 0.26765 0.9677 0.0
N1475 N 0.03006 0.38334 0.06785 0.0
H1476 H 0.08318 0.36795 0.97113 0.0
H1477 H 0.08394 0.38819 0.01719 0.0
H1478 H 0.02081 0.38599 0.09654 0.0
H1479 H 0.04413 0.40757 0.05766 0.0
H1480 H 0.95991 0.24927 0.97389 0.0
H1481 H 0.9911 0.26659 0.93868 0.0
H1482 H 0.95742 0.23914 0.03299 0.0
H1483 H 0.95286 0.26427 0.07645 0.0
C1484 C 0.30522 0.04766 1.00746 0.0
C1485 C 0.29921 0.02717 0.97208 0.0
C1486 C 0.28911 0.96817 0.00936 0.0
C1487 C 0.29484 0.98882 0.04451 0.0
N1488 N 0.29742 0.04927 0.0775 0.0
N1489 N 0.27613 0.97042 0.94003 0.0
C1490 C 0.29947 0.02893 0.04362 0.0
C1491 C 0.28836 0.98811 0.97327 0.0
N1492 N 0.31853 0.08438 1.00693 0.0
N1493 N 0.2858 0.92932 0.01022 0.0
H1494 H 0.27439 0.98442 0.91336 0.0
H1495 H 0.26423 0.94315 0.93948 0.0
H1496 H 0.2839 0.91392 0.03595 0.0
H1497 H 0.28689 0.91216 0.98549 0.0
H1498 H 0.32845 0.09857 0.0316 0.0
H1499 H 0.32256 0.10007 0.98169 0.0
H1500 H 0.29667 0.07898 0.07867 0.0
H1501 H 0.29224 0.0363 0.10423 0.0
C1502 C 0.96177 0.6603 1.00652 0.0
C1503 C 0.97632 0.68824 0.98046 0.0
C1504 C 0.01586 0.71479 0.03345 0.0
C1505 C 1.00408 0.68433 0.05802 0.0
N1506 N 0.96894 0.62547 0.06662 0.0
N1507 N 0.0193 0.74052 0.96784 0.0
C1508 C 0.97803 0.65634 0.0441 0.0
C1509 C 1.00366 0.71538 0.99372 0.0
N1510 N 0.93081 0.63873 0.9962 0.0
N1511 N 0.03921 0.74278 0.04792 0.0
H1512 H 0.01093 0.74178 0.93876 0.0
H1513 H 0.04226 0.75842 0.97423 0.0
H1514 H 0.05086 0.74187 0.07579 0.0
H1515 H 0.04546 0.76798 0.03327 0.0
H1516 H 0.91575 0.62138 0.0154 0.0
H1517 H 0.91787 0.64085 0.96923 0.0
H1518 H 0.95494 0.60135 0.05591 0.0
H1519 H 0.97736 0.62263 0.0955 0.0
loop_
_geom_bond_atom_site_label_1
_geom_bond_atom_site_label_2
_geom_bond_distance
_geom_bond_site_symmetry_2
_ccdc_geom_bond_type
Co0 O2 2.143 . S
Co0 O8 2.074 . S
Co0 O11 2.093 . S
Co0 O24 2.097 . S
Co0 N41 2.151 . S
Co0 N49 2.214 . S
Co1 O2 2.160 . S
Co1 O7 2.058 . S
Co1 O17 2.057 . S
Co1 O32 2.037 . S
Co1 N36 2.145 . S
Co1 N57 2.257 . S
O2 Co0 2.143 . S
O2 Co1 2.160 . S
C3 O4 1.278 . S
C3 O11 1.224 . S
O4 C3 1.278 . S
C5 O6 1.245 . S
C5 O17 1.232 . S
O6 C5 1.245 . S
O7 Co1 2.058 . S
O7 C33 1.269 . S
O8 Co0 2.074 . S
O8 C33 1.257 . S
H9 C34 0.930 . S
H10 C40 0.930 . S
O11 Co0 2.093 . S
O11 C3 1.224 . S
H12 C44 0.929 . S
H13 C46 0.930 . S
H14 C47 0.930 . S
H15 C45 0.929 . S
H16 C48 0.928 . S
O17 Co1 2.057 . S
O17 C5 1.232 . S
H18 C37 0.929 . S
H19 C38 0.929 . S
H20 C50 0.931 . S
H21 C42 0.929 . S
H22 C51 0.930 1_655 S
H23 C43 0.931 . S
O24 Co0 2.097 . S
O24 C52 1.214 . S
H25 C53 0.929 . S
H26 C54 0.929 . S
H27 C55 0.930 . S
H28 C56 0.929 . S
H29 C58 0.930 . S
H30 C35 0.930 . S
H31 C39 0.930 . S
O32 Co1 2.037 . S
O32 C52 1.234 . S
C33 O7 1.269 . S
C33 O8 1.257 . S
C34 H9 0.930 . S
C34 C37 1.388 . S
C34 C39 1.418 . S
C35 H30 0.930 . S
C35 C38 1.404 . S
C35 C39 1.353 . S
N36 Co1 2.145 . S
N36 C37 1.397 . S
N36 C38 1.334 . S
C37 H18 0.929 . S
C37 C34 1.388 . S
C37 N36 1.397 . S
C38 H19 0.929 . S
C38 C35 1.404 . S
C38 N36 1.334 . S
C39 H31 0.930 . S
C39 C34 1.418 . S
C39 C35 1.353 . S
C40 H10 0.930 . S
C40 N41 1.330 . S
C40 C42 1.446 . S
N41 Co0 2.151 . S
N41 C40 1.330 . S
N41 C45 1.418 . S
C42 H21 0.929 . S
C42 C40 1.446 . S
C42 C43 1.332 . S
C43 H23 0.931 . S
C43 C42 1.332 . S
C43 C44 1.267 . S
C44 H12 0.929 . S
C44 C43 1.267 . S
C44 C45 1.251 . S
C45 H15 0.929 . S
C45 N41 1.418 . S
C45 C44 1.251 . S
C46 H13 0.930 . S
C46 C48 1.406 . S
C46 C51 1.261 . S
C47 H14 0.930 . S
C47 N49 1.325 . S
C47 C50 1.357 . S
C48 H16 0.928 . S
C48 C46 1.406 . S
C48 N49 1.261 . S
N49 Co0 2.214 . S
N49 C47 1.325 . S
N49 C48 1.261 . S
C50 H20 0.931 . S
C50 C47 1.357 . S
C50 C51 1.312 . S
C51 H22 0.930 1_455 S
C51 C46 1.261 . S
C51 C50 1.312 . S
C52 O24 1.214 . S
C52 O32 1.234 . S
C53 H25 0.929 . S
C53 C56 1.391 . S
C53 C58 1.391 . S
C54 H26 0.929 . S
C54 C55 1.390 . S
C54 N57 1.391 . S
C55 H27 0.930 . S
C55 C54 1.390 . S
C55 C56 1.392 . S
C56 H28 0.929 . S
C56 C53 1.391 . S
C56 C55 1.392 . S
N57 Co1 2.257 . S
N57 C54 1.391 . S
N57 C58 1.388 . S
C58 H29 0.930 . S
C58 C53 1.391 . S
C58 N57 1.388 . S
Co59 O61 2.143 . S
Co59 O67 2.074 . S
Co59 O70 2.093 . S
Co59 O83 2.097 . S
Co59 N100 2.151 . S
Co59 N108 2.214 . S
Co60 O61 2.160 . S
Co60 O66 2.058 . S
Co60 O76 2.057 . S
Co60 O91 2.037 . S
Co60 N95 2.145 . S
Co60 N116 2.257 . S
O61 Co59 2.143 . S
O61 Co60 2.160 . S
C62 O63 1.278 . S
C62 O70 1.224 . S
O63 C62 1.278 . S
C64 O65 1.245 . S
C64 O76 1.232 . S
O65 C64 1.245 . S
O66 Co60 2.058 . S
O66 C92 1.269 . S
O67 Co59 2.074 . S
O67 C92 1.257 . S
H68 C93 0.930 . S
H69 C99 0.930 . S
O70 Co59 2.093 . S
O70 C62 1.224 . S
H71 C103 0.929 . S
H72 C105 0.930 . S
H73 C106 0.930 . S
H74 C104 0.929 . S
H75 C107 0.928 . S
O76 Co60 2.057 . S
O76 C64 1.232 . S
H77 C96 0.929 . S
H78 C97 0.929 . S
H79 C109 0.931 . S
H80 C101 0.929 . S
H81 C110 0.930 1_545 S
H82 C102 0.931 . S
O83 Co59 2.097 . S
O83 C111 1.214 . S
H84 C112 0.929 . S
H85 C113 0.929 . S
H86 C114 0.930 . S
H87 C115 0.929 . S
H88 C117 0.930 . S
H89 C94 0.930 . S
H90 C98 0.930 . S
O91 Co60 2.037 . S
O91 C111 1.234 . S
C92 O66 1.269 . S
C92 O67 1.257 . S
C93 H68 0.930 . S
C93 C96 1.388 . S
C93 C98 1.418 . S
C94 H89 0.930 . S
C94 C97 1.404 . S
C94 C98 1.353 . S
N95 Co60 2.145 . S
N95 C96 1.397 . S
N95 C97 1.334 . S
C96 H77 0.929 . S
C96 C93 1.388 . S
C96 N95 1.397 . S
C97 H78 0.929 . S
C97 C94 1.404 . S
C97 N95 1.334 . S
C98 H90 0.930 . S
C98 C93 1.418 . S
C98 C94 1.353 . S
C99 H69 0.930 . S
C99 N100 1.330 . S
C99 C101 1.446 . S
N100 Co59 2.151 . S
N100 C99 1.330 . S
N100 C104 1.418 . S
C101 H80 0.929 . S
C101 C99 1.446 . S
C101 C102 1.332 . S
C102 H82 0.931 . S
C102 C101 1.332 . S
C102 C103 1.267 . S
C103 H71 0.929 . S
C103 C102 1.267 . S
C103 C104 1.251 . S
C104 H74 0.929 . S
C104 N100 1.418 . S
C104 C103 1.251 . S
C105 H72 0.930 . S
C105 C107 1.406 . S
C105 C110 1.261 . S
C106 H73 0.930 . S
C106 N108 1.325 . S
C106 C109 1.357 . S
C107 H75 0.928 . S
C107 C105 1.406 . S
C107 N108 1.261 . S
N108 Co59 2.214 . S
N108 C106 1.325 . S
N108 C107 1.261 . S
C109 H79 0.931 . S
C109 C106 1.357 . S
C109 C110 1.312 . S
C110 H81 0.930 1_565 S
C110 C105 1.261 . S
C110 C109 1.312 . S
C111 O83 1.214 . S
C111 O91 1.234 . S
C112 H84 0.929 . S
C112 C115 1.391 . S
C112 C117 1.391 . S
C113 H85 0.929 . S
C113 C114 1.390 . S
C113 N116 1.391 . S
C114 H86 0.930 . S
C114 C113 1.390 . S
C114 C115 1.392 . S
C115 H87 0.929 . S
C115 C112 1.391 . S
C115 C114 1.392 . S
N116 Co60 2.257 . S
N116 C113 1.391 . S
N116 C117 1.388 . S
C117 H88 0.930 . S
C117 C112 1.391 . S
C117 N116 1.388 . S
Co118 O120 2.143 . S
Co118 O126 2.074 . S
Co118 O129 2.093 . S
Co118 O142 2.097 . S
Co118 N159 2.151 . S
Co118 N167 2.214 . S
Co119 O120 2.160 . S
Co119 O125 2.058 . S
Co119 O135 2.057 . S
Co119 O150 2.037 . S
Co119 N154 2.145 . S
Co119 N175 2.257 . S
O120 Co118 2.143 . S
O120 Co119 2.160 . S
C121 O122 1.278 . S
C121 O129 1.224 . S
O122 C121 1.278 . S
C123 O124 1.245 . S
C123 O135 1.232 . S
O124 C123 1.245 . S
O125 Co119 2.058 . S
O125 C151 1.269 . S
O126 Co118 2.074 . S
O126 C151 1.257 . S
H127 C152 0.930 . S
H128 C158 0.930 . S
O129 Co118 2.093 . S
O129 C121 1.224 . S
H130 C162 0.929 . S
H131 C164 0.930 . S
H132 C165 0.930 . S
H133 C163 0.929 . S
H134 C166 0.928 . S
O135 Co119 2.057 . S
O135 C123 1.232 . S
H136 C155 0.929 . S
H137 C156 0.929 . S
H138 C168 0.931 . S
H139 C160 0.929 . S
H140 C169 0.930 1_455 S
H141 C161 0.931 . S
O142 Co118 2.097 . S
O142 C170 1.214 . S
H143 C171 0.929 . S
H144 C172 0.929 . S
H145 C173 0.930 . S
H146 C174 0.929 . S
H147 C176 0.930 . S
H148 C153 0.930 . S
H149 C157 0.930 . S
O150 Co119 2.037 . S
O150 C170 1.234 . S
C151 O125 1.269 . S
C151 O126 1.257 . S
C152 H127 0.930 . S
C152 C155 1.388 . S
C152 C157 1.418 . S
C153 H148 0.930 . S
C153 C156 1.404 . S
C153 C157 1.353 . S
N154 Co119 2.145 . S
N154 C155 1.397 . S
N154 C156 1.334 . S
C155 H136 0.929 . S
C155 C152 1.388 . S
C155 N154 1.397 . S
C156 H137 0.929 . S
C156 C153 1.404 . S
C156 N154 1.334 . S
C157 H149 0.930 . S
C157 C152 1.418 . S
C157 C153 1.353 . S
C158 H128 0.930 . S
C158 N159 1.330 . S
C158 C160 1.446 . S
N159 Co118 2.151 . S
N159 C158 1.330 . S
N159 C163 1.418 . S
C160 H139 0.929 . S
C160 C158 1.446 . S
C160 C161 1.332 . S
C161 H141 0.931 . S
C161 C160 1.332 . S
C161 C162 1.267 . S
C162 H130 0.929 . S
C162 C161 1.267 . S
C162 C163 1.251 . S
C163 H133 0.929 . S
C163 N159 1.418 . S
C163 C162 1.251 . S
C164 H131 0.930 . S
C164 C166 1.406 . S
C164 C169 1.261 . S
C165 H132 0.930 . S
C165 N167 1.325 . S
C165 C168 1.357 . S
C166 H134 0.928 . S
C166 C164 1.406 . S
C166 N167 1.261 . S
N167 Co118 2.214 . S
N167 C165 1.325 . S
N167 C166 1.261 . S
C168 H138 0.931 . S
C168 C165 1.357 . S
C168 C169 1.312 . S
C169 H140 0.930 1_655 S
C169 C164 1.261 . S
C169 C168 1.312 . S
C170 O142 1.214 . S
C170 O150 1.234 . S
C171 H143 0.929 . S
C171 C174 1.391 . S
C171 C176 1.391 . S
C172 H144 0.929 . S
C172 C173 1.390 . S
C172 N175 1.391 . S
C173 H145 0.930 . S
C173 C172 1.390 . S
C173 C174 1.392 . S
C174 H146 0.929 . S
C174 C171 1.391 . S
C174 C173 1.392 . S
N175 Co119 2.257 . S
N175 C172 1.391 . S
N175 C176 1.388 . S
C176 H147 0.930 . S
C176 C171 1.391 . S
C176 N175 1.388 . S
Co177 O179 2.143 . S
Co177 O185 2.074 . S
Co177 O188 2.093 . S
Co177 O201 2.097 . S
Co177 N218 2.151 . S
Co177 N226 2.214 . S
Co178 O179 2.160 . S
Co178 O184 2.058 . S
Co178 O194 2.057 . S
Co178 O209 2.037 . S
Co178 N213 2.145 . S
Co178 N234 2.257 . S
O179 Co177 2.143 . S
O179 Co178 2.160 . S
C180 O181 1.278 . S
C180 O188 1.224 . S
O181 C180 1.278 . S
C182 O183 1.245 . S
C182 O194 1.232 . S
O183 C182 1.245 . S
O184 Co178 2.058 . S
O184 C210 1.269 . S
O185 Co177 2.074 . S
O185 C210 1.257 . S
H186 C211 0.930 . S
H187 C217 0.930 . S
O188 Co177 2.093 . S
O188 C180 1.224 . S
H189 C221 0.929 . S
H190 C223 0.930 . S
H191 C224 0.930 . S
H192 C222 0.929 . S
H193 C225 0.928 . S
O194 Co178 2.057 . S
O194 C182 1.232 . S
H195 C214 0.929 . S
H196 C215 0.929 . S
H197 C227 0.931 . S
H198 C219 0.929 . S
H199 C228 0.930 1_565 S
H200 C220 0.931 . S
O201 Co177 2.097 . S
O201 C229 1.214 . S
H202 C230 0.929 . S
H203 C231 0.929 . S
H204 C232 0.930 . S
H205 C233 0.929 . S
H206 C235 0.930 . S
H207 C212 0.930 . S
H208 C216 0.930 . S
O209 Co178 2.037 . S
O209 C229 1.234 . S
C210 O184 1.269 . S
C210 O185 1.257 . S
C211 H186 0.930 . S
C211 C214 1.388 . S
C211 C216 1.418 . S
C212 H207 0.930 . S
C212 C215 1.404 . S
C212 C216 1.353 . S
N213 Co178 2.145 . S
N213 C214 1.397 . S
N213 C215 1.334 . S
C214 H195 0.929 . S
C214 C211 1.388 . S
C214 N213 1.397 . S
C215 H196 0.929 . S
C215 C212 1.404 . S
C215 N213 1.334 . S
C216 H208 0.930 . S
C216 C211 1.418 . S
C216 C212 1.353 . S
C217 H187 0.930 . S
C217 N218 1.330 . S
C217 C219 1.446 . S
N218 Co177 2.151 . S
N218 C217 1.330 . S
N218 C222 1.418 . S
C219 H198 0.929 . S
C219 C217 1.446 . S
C219 C220 1.332 . S
C220 H200 0.931 . S
C220 C219 1.332 . S
C220 C221 1.267 . S
C221 H189 0.929 . S
C221 C220 1.267 . S
C221 C222 1.251 . S
C222 H192 0.929 . S
C222 N218 1.418 . S
C222 C221 1.251 . S
C223 H190 0.930 . S
C223 C225 1.406 . S
C223 C228 1.261 . S
C224 H191 0.930 . S
C224 N226 1.325 . S
C224 C227 1.357 . S
C225 H193 0.928 . S
C225 C223 1.406 . S
C225 N226 1.261 . S
N226 Co177 2.214 . S
N226 C224 1.325 . S
N226 C225 1.261 . S
C227 H197 0.931 . S
C227 C224 1.357 . S
C227 C228 1.312 . S
C228 H199 0.930 1_545 S
C228 C223 1.261 . S
C228 C227 1.312 . S
C229 O201 1.214 . S
C229 O209 1.234 . S
C230 H202 0.929 . S
C230 C233 1.391 . S
C230 C235 1.391 . S
C231 H203 0.929 . S
C231 C232 1.390 . S
C231 N234 1.391 . S
C232 H204 0.930 . S
C232 C231 1.390 . S
C232 C233 1.392 . S
C233 H205 0.929 . S
C233 C230 1.391 . S
C233 C232 1.392 . S
N234 Co178 2.257 . S
N234 C231 1.391 . S
N234 C235 1.388 . S
C235 H206 0.930 . S
C235 C230 1.391 . S
C235 N234 1.388 . S
Co236 O238 2.143 . S
Co236 O244 2.074 . S
Co236 O247 2.093 . S
Co236 O260 2.097 . S
Co236 N277 2.151 . S
Co236 N285 2.214 . S
Co237 O238 2.160 . S
Co237 O243 2.058 . S
Co237 O253 2.057 . S
Co237 O268 2.037 . S
Co237 N272 2.145 . S
Co237 N293 2.257 . S
O238 Co236 2.143 . S
O238 Co237 2.160 . S
C239 O240 1.278 . S
C239 O247 1.224 . S
O240 C239 1.278 . S
C241 O242 1.245 . S
C241 O253 1.232 . S
O242 C241 1.245 . S
O243 Co237 2.058 . S
O243 C269 1.269 . S
O244 Co236 2.074 . S
O244 C269 1.257 . S
H245 C270 0.930 . S
H246 C276 0.930 . S
O247 Co236 2.093 . S
O247 C239 1.224 . S
H248 C280 0.929 . S
H249 C282 0.930 . S
H250 C283 0.930 . S
H251 C281 0.929 . S
H252 C284 0.928 . S
O253 Co237 2.057 . S
O253 C241 1.232 . S
H254 C273 0.929 . S
H255 C274 0.929 . S
H256 C286 0.931 . S
H257 C278 0.929 . S
H258 C287 0.930 1_655 S
H259 C279 0.931 . S
O260 Co236 2.097 . S
O260 C288 1.214 . S
H261 C289 0.929 . S
H262 C290 0.929 . S
H263 C291 0.930 . S
H264 C292 0.929 . S
H265 C294 0.930 . S
H266 C271 0.930 . S
H267 C275 0.930 . S
O268 Co237 2.037 . S
O268 C288 1.234 . S
C269 O243 1.269 . S
C269 O244 1.257 . S
C270 H245 0.930 . S
C270 C273 1.388 . S
C270 C275 1.418 . S
C271 H266 0.930 . S
C271 C274 1.404 . S
C271 C275 1.353 . S
N272 Co237 2.145 . S
N272 C273 1.397 . S
N272 C274 1.334 . S
C273 H254 0.929 . S
C273 C270 1.388 . S
C273 N272 1.397 . S
C274 H255 0.929 . S
C274 C271 1.404 . S
C274 N272 1.334 . S
C275 H267 0.930 . S
C275 C270 1.418 . S
C275 C271 1.353 . S
C276 H246 0.930 . S
C276 N277 1.330 . S
C276 C278 1.446 . S
N277 Co236 2.151 . S
N277 C276 1.330 . S
N277 C281 1.418 . S
C278 H257 0.929 . S
C278 C276 1.446 . S
C278 C279 1.332 . S
C279 H259 0.931 . S
C279 C278 1.332 . S
C279 C280 1.267 . S
C280 H248 0.929 . S
C280 C279 1.267 . S
C280 C281 1.251 . S
C281 H251 0.929 . S
C281 N277 1.418 . S
C281 C280 1.251 . S
C282 H249 0.930 . S
C282 C284 1.406 . S
C282 C287 1.261 . S
C283 H250 0.930 . S
C283 N285 1.325 . S
C283 C286 1.357 . S
C284 H252 0.928 . S
C284 C282 1.406 . S
C284 N285 1.261 . S
N285 Co236 2.214 . S
N285 C283 1.325 . S
N285 C284 1.261 . S
C286 H256 0.931 . S
C286 C283 1.357 . S
C286 C287 1.312 . S
C287 H258 0.930 1_455 S
C287 C282 1.261 . S
C287 C286 1.312 . S
C288 O260 1.214 . S
C288 O268 1.234 . S
C289 H261 0.929 . S
C289 C292 1.391 . S
C289 C294 1.391 . S
C290 H262 0.929 . S
C290 C291 1.390 . S
C290 N293 1.391 . S
C291 H263 0.930 . S
C291 C290 1.390 . S
C291 C292 1.392 . S
C292 H264 0.929 . S
C292 C289 1.391 . S
C292 C291 1.392 . S
N293 Co237 2.257 . S
N293 C290 1.391 . S
N293 C294 1.388 . S
C294 H265 0.930 . S
C294 C289 1.391 . S
C294 N293 1.388 . S
Co295 O297 2.143 . S
Co295 O303 2.074 . S
Co295 O306 2.093 . S
Co295 O319 2.097 . S
Co295 N336 2.151 . S
Co295 N344 2.214 . S
Co296 O297 2.160 . S
Co296 O302 2.058 . S
Co296 O312 2.057 . S
Co296 O327 2.037 . S
Co296 N331 2.145 . S
Co296 N352 2.257 . S
O297 Co295 2.143 . S
O297 Co296 2.160 . S
C298 O299 1.278 . S
C298 O306 1.224 . S
O299 C298 1.278 . S
C300 O301 1.245 . S
C300 O312 1.232 . S
O301 C300 1.245 . S
O302 Co296 2.058 . S
O302 C328 1.269 . S
O303 Co295 2.074 . S
O303 C328 1.257 . S
H304 C329 0.930 . S
H305 C335 0.930 . S
O306 Co295 2.093 . S
O306 C298 1.224 . S
H307 C339 0.929 . S
H308 C341 0.930 . S
H309 C342 0.930 . S
H310 C340 0.929 . S
H311 C343 0.928 . S
O312 Co296 2.057 . S
O312 C300 1.232 . S
H313 C332 0.929 . S
H314 C333 0.929 . S
H315 C345 0.931 . S
H316 C337 0.929 . S
H317 C346 0.930 1_545 S
H318 C338 0.931 . S
O319 Co295 2.097 . S
O319 C347 1.214 . S
H320 C348 0.929 . S
H321 C349 0.929 . S
H322 C350 0.930 . S
H323 C351 0.929 . S
H324 C353 0.930 . S
H325 C330 0.930 . S
H326 C334 0.930 . S
O327 Co296 2.037 . S
O327 C347 1.234 . S
C328 O302 1.269 . S
C328 O303 1.257 . S
C329 H304 0.930 . S
C329 C332 1.388 . S
C329 C334 1.418 . S
C330 H325 0.930 . S
C330 C333 1.404 . S
C330 C334 1.353 . S
N331 Co296 2.145 . S
N331 C332 1.397 . S
N331 C333 1.334 . S
C332 H313 0.929 . S
C332 C329 1.388 . S
C332 N331 1.397 . S
C333 H314 0.929 . S
C333 C330 1.404 . S
C333 N331 1.334 . S
C334 H326 0.930 . S
C334 C329 1.418 . S
C334 C330 1.353 . S
C335 H305 0.930 . S
C335 N336 1.330 . S
C335 C337 1.446 . S
N336 Co295 2.151 . S
N336 C335 1.330 . S
N336 C340 1.418 . S
C337 H316 0.929 . S
C337 C335 1.446 . S
C337 C338 1.332 . S
C338 H318 0.931 . S
C338 C337 1.332 . S
C338 C339 1.267 . S
C339 H307 0.929 . S
C339 C338 1.267 . S
C339 C340 1.251 . S
C340 H310 0.929 . S
C340 N336 1.418 . S
C340 C339 1.251 . S
C341 H308 0.930 . S
C341 C343 1.406 . S
C341 C346 1.261 . S
C342 H309 0.930 . S
C342 N344 1.325 . S
C342 C345 1.357 . S
C343 H311 0.928 . S
C343 C341 1.406 . S
C343 N344 1.261 . S
N344 Co295 2.214 . S
N344 C342 1.325 . S
N344 C343 1.261 . S
C345 H315 0.931 . S
C345 C342 1.357 . S
C345 C346 1.312 . S
C346 H317 0.930 1_565 S
C346 C341 1.261 . S
C346 C345 1.312 . S
C347 O319 1.214 . S
C347 O327 1.234 . S
C348 H320 0.929 . S
C348 C351 1.391 . S
C348 C353 1.391 . S
C349 H321 0.929 . S
C349 C350 1.390 . S
C349 N352 1.391 . S
C350 H322 0.930 . S
C350 C349 1.390 . S
C350 C351 1.392 . S
C351 H323 0.929 . S
C351 C348 1.391 . S
C351 C350 1.392 . S
N352 Co296 2.257 . S
N352 C349 1.391 . S
N352 C353 1.388 . S
C353 H324 0.930 . S
C353 C348 1.391 . S
C353 N352 1.388 . S
Co354 O356 2.143 . S
Co354 O362 2.074 . S
Co354 O365 2.093 . S
Co354 O378 2.097 . S
Co354 N395 2.151 . S
Co354 N403 2.214 . S
Co355 O356 2.160 . S
Co355 O361 2.058 . S
Co355 O371 2.057 . S
Co355 O386 2.037 . S
Co355 N390 2.145 . S
Co355 N411 2.257 . S
O356 Co354 2.143 . S
O356 Co355 2.160 . S
C357 O358 1.278 . S
C357 O365 1.224 . S
O358 C357 1.278 . S
C359 O360 1.245 . S
C359 O371 1.232 . S
O360 C359 1.245 . S
O361 Co355 2.058 . S
O361 C387 1.269 . S
O362 Co354 2.074 . S
O362 C387 1.257 . S
H363 C388 0.930 . S
H364 C394 0.930 . S
O365 Co354 2.093 . S
O365 C357 1.224 . S
H366 C398 0.929 . S
H367 C400 0.930 . S
H368 C401 0.930 . S
H369 C399 0.929 . S
H370 C402 0.928 . S
O371 Co355 2.057 . S
O371 C359 1.232 . S
H372 C391 0.929 . S
H373 C392 0.929 . S
H374 C404 0.931 . S
H375 C396 0.929 . S
H376 C405 0.930 1_455 S
H377 C397 0.931 . S
O378 Co354 2.097 . S
O378 C406 1.214 . S
H379 C407 0.929 . S
H380 C408 0.929 . S
H381 C409 0.930 . S
H382 C410 0.929 . S
H383 C412 0.930 . S
H384 C389 0.930 . S
H385 C393 0.930 . S
O386 Co355 2.037 . S
O386 C406 1.234 . S
C387 O361 1.269 . S
C387 O362 1.257 . S
C388 H363 0.930 . S
C388 C391 1.388 . S
C388 C393 1.418 . S
C389 H384 0.930 . S
C389 C392 1.404 . S
C389 C393 1.353 . S
N390 Co355 2.145 . S
N390 C391 1.397 . S
N390 C392 1.334 . S
C391 H372 0.929 . S
C391 C388 1.388 . S
C391 N390 1.397 . S
C392 H373 0.929 . S
C392 C389 1.404 . S
C392 N390 1.334 . S
C393 H385 0.930 . S
C393 C388 1.418 . S
C393 C389 1.353 . S
C394 H364 0.930 . S
C394 N395 1.330 . S
C394 C396 1.446 . S
N395 Co354 2.151 . S
N395 C394 1.330 . S
N395 C399 1.418 . S
C396 H375 0.929 . S
C396 C394 1.446 . S
C396 C397 1.332 . S
C397 H377 0.931 . S
C397 C396 1.332 . S
C397 C398 1.267 . S
C398 H366 0.929 . S
C398 C397 1.267 . S
C398 C399 1.251 . S
C399 H369 0.929 . S
C399 N395 1.418 . S
C399 C398 1.251 . S
C400 H367 0.930 . S
C400 C402 1.406 . S
C400 C405 1.261 . S
C401 H368 0.930 . S
C401 N403 1.325 . S
C401 C404 1.357 . S
C402 H370 0.928 . S
C402 C400 1.406 . S
C402 N403 1.261 . S
N403 Co354 2.214 . S
N403 C401 1.325 . S
N403 C402 1.261 . S
C404 H374 0.931 . S
C404 C401 1.357 . S
C404 C405 1.312 . S
C405 H376 0.930 1_655 S
C405 C400 1.261 . S
C405 C404 1.312 . S
C406 O378 1.214 . S
C406 O386 1.234 . S
C407 H379 0.929 . S
C407 C410 1.391 . S
C407 C412 1.391 . S
C408 H380 0.929 . S
C408 C409 1.390 . S
C408 N411 1.391 . S
C409 H381 0.930 . S
C409 C408 1.390 . S
C409 C410 1.392 . S
C410 H382 0.929 . S
C410 C407 1.391 . S
C410 C409 1.392 . S
N411 Co355 2.257 . S
N411 C408 1.391 . S
N411 C412 1.388 . S
C412 H383 0.930 . S
C412 C407 1.391 . S
C412 N411 1.388 . S
Co413 O415 2.143 . S
Co413 O421 2.074 . S
Co413 O424 2.093 . S
Co413 O437 2.097 . S
Co413 N454 2.151 . S
Co413 N462 2.214 . S
Co414 O415 2.160 . S
Co414 O420 2.058 . S
Co414 O430 2.057 . S
Co414 O445 2.037 . S
Co414 N449 2.145 . S
Co414 N470 2.257 . S
O415 Co413 2.143 . S
O415 Co414 2.160 . S
C416 O417 1.278 . S
C416 O424 1.224 . S
O417 C416 1.278 . S
C418 O419 1.245 . S
C418 O430 1.232 . S
O419 C418 1.245 . S
O420 Co414 2.058 . S
O420 C446 1.269 . S
O421 Co413 2.074 . S
O421 C446 1.257 . S
H422 C447 0.930 . S
H423 C453 0.930 . S
O424 Co413 2.093 . S
O424 C416 1.224 . S
H425 C457 0.929 . S
H426 C459 0.930 . S
H427 C460 0.930 . S
H428 C458 0.929 . S
H429 C461 0.928 . S
O430 Co414 2.057 . S
O430 C418 1.232 . S
H431 C450 0.929 . S
H432 C451 0.929 . S
H433 C463 0.931 . S
H434 C455 0.929 . S
H435 C464 0.930 1_565 S
H436 C456 0.931 . S
O437 Co413 2.097 . S
O437 C465 1.214 . S
H438 C466 0.929 . S
H439 C467 0.929 . S
H440 C468 0.930 . S
H441 C469 0.929 . S
H442 C471 0.930 . S
H443 C448 0.930 . S
H444 C452 0.930 . S
O445 Co414 2.037 . S
O445 C465 1.234 . S
C446 O420 1.269 . S
C446 O421 1.257 . S
C447 H422 0.930 . S
C447 C450 1.388 . S
C447 C452 1.418 . S
C448 H443 0.930 . S
C448 C451 1.404 . S
C448 C452 1.353 . S
N449 Co414 2.145 . S
N449 C450 1.397 . S
N449 C451 1.334 . S
C450 H431 0.929 . S
C450 C447 1.388 . S
C450 N449 1.397 . S
C451 H432 0.929 . S
C451 C448 1.404 . S
C451 N449 1.334 . S
C452 H444 0.930 . S
C452 C447 1.418 . S
C452 C448 1.353 . S
C453 H423 0.930 . S
C453 N454 1.330 . S
C453 C455 1.446 . S
N454 Co413 2.151 . S
N454 C453 1.330 . S
N454 C458 1.418 . S
C455 H434 0.929 . S
C455 C453 1.446 . S
C455 C456 1.332 . S
C456 H436 0.931 . S
C456 C455 1.332 . S
C456 C457 1.267 . S
C457 H425 0.929 . S
C457 C456 1.267 . S
C457 C458 1.251 . S
C458 H428 0.929 . S
C458 N454 1.418 . S
C458 C457 1.251 . S
C459 H426 0.930 . S
C459 C461 1.406 . S
C459 C464 1.261 . S
C460 H427 0.930 . S
C460 N462 1.325 . S
C460 C463 1.357 . S
C461 H429 0.928 . S
C461 C459 1.406 . S
C461 N462 1.261 . S
N462 Co413 2.214 . S
N462 C460 1.325 . S
N462 C461 1.261 . S
C463 H433 0.931 . S
C463 C460 1.357 . S
C463 C464 1.312 . S
C464 H435 0.930 1_545 S
C464 C459 1.261 . S
C464 C463 1.312 . S
C465 O437 1.214 . S
C465 O445 1.234 . S
C466 H438 0.929 . S
C466 C469 1.391 . S
C466 C471 1.391 . S
C467 H439 0.929 . S
C467 C468 1.390 . S
C467 N470 1.391 . S
C468 H440 0.930 . S
C468 C467 1.390 . S
C468 C469 1.392 . S
C469 H441 0.929 . S
C469 C466 1.391 . S
C469 C468 1.392 . S
N470 Co414 2.257 . S
N470 C467 1.391 . S
N470 C471 1.388 . S
C471 H442 0.930 . S
C471 C466 1.391 . S
C471 N470 1.388 . S
Co472 O474 2.143 . S
Co472 O480 2.074 . S
Co472 O483 2.093 . S
Co472 O496 2.097 1_565 S
Co472 N513 2.151 . S
Co472 N521 2.214 . S
Co473 O474 2.160 . S
Co473 O479 2.058 . S
Co473 O489 2.057 . S
Co473 O504 2.037 . S
Co473 N508 2.145 . S
Co473 N529 2.257 . S
O474 Co472 2.143 . S
O474 Co473 2.160 . S
C475 O476 1.278 . S
C475 O483 1.224 . S
O476 C475 1.278 . S
C477 O478 1.245 . S
C477 O489 1.232 . S
O478 C477 1.245 . S
O479 Co473 2.058 . S
O479 C505 1.269 . S
O480 Co472 2.074 . S
O480 C505 1.257 . S
H481 C506 0.930 . S
H482 C512 0.930 . S
O483 Co472 2.093 . S
O483 C475 1.224 . S
H484 C516 0.929 . S
H485 C518 0.930 . S
H486 C519 0.930 . S
H487 C517 0.929 . S
H488 C520 0.928 . S
O489 Co473 2.057 . S
O489 C477 1.232 . S
H490 C509 0.929 . S
H491 C510 0.929 . S
H492 C522 0.931 . S
H493 C514 0.929 . S
H494 C523 0.938 . S
H495 C515 0.931 . S
O496 Co472 2.097 1_545 S
O496 C524 1.214 . S
H497 C525 0.929 . S
H498 C526 0.929 . S
H499 C527 0.930 . S
H500 C528 0.929 . S
H501 C530 0.930 . S
H502 C507 0.930 . S
H503 C511 0.930 . S
O504 Co473 2.037 . S
O504 C524 1.234 1_565 S
C505 O479 1.269 . S
C505 O480 1.257 . S
C506 H481 0.930 . S
C506 C509 1.388 . S
C506 C511 1.418 . S
C507 H502 0.930 . S
C507 C510 1.404 . S
C507 C511 1.353 . S
N508 Co473 2.145 . S
N508 C509 1.397 . S
N508 C510 1.334 . S
C509 H490 0.929 . S
C509 C506 1.388 . S
C509 N508 1.397 . S
C510 H491 0.929 . S
C510 C507 1.404 . S
C510 N508 1.334 . S
C511 H503 0.930 . S
C511 C506 1.418 . S
C511 C507 1.353 . S
C512 H482 0.930 . S
C512 N513 1.330 . S
C512 C514 1.446 . S
N513 Co472 2.151 . S
N513 C512 1.330 . S
N513 C517 1.418 . S
C514 H493 0.929 . S
C514 C512 1.446 . S
C514 C515 1.332 . S
C515 H495 0.931 . S
C515 C514 1.332 . S
C515 C516 1.267 . S
C516 H484 0.929 . S
C516 C515 1.267 . S
C516 C517 1.251 . S
C517 H487 0.929 . S
C517 N513 1.418 . S
C517 C516 1.251 . S
C518 H485 0.930 . S
C518 C520 1.406 . S
C518 C523 1.254 1_565 S
C519 H486 0.930 . S
C519 N521 1.325 . S
C519 C522 1.357 1_565 S
C520 H488 0.928 . S
C520 C518 1.406 . S
C520 N521 1.261 . S
N521 Co472 2.214 . S
N521 C519 1.325 . S
N521 C520 1.261 . S
C522 H492 0.931 . S
C522 C519 1.357 1_545 S
C522 C523 1.312 . S
C523 H494 0.938 . S
C523 C518 1.254 1_545 S
C523 C522 1.312 . S
C524 O496 1.214 . S
C524 O504 1.234 1_545 S
C525 H497 0.929 . S
C525 C528 1.391 1_565 S
C525 C530 1.391 . S
C526 H498 0.929 . S
C526 C527 1.390 . S
C526 N529 1.391 1_545 S
C527 H499 0.930 . S
C527 C526 1.390 . S
C527 C528 1.392 . S
C528 H500 0.929 . S
C528 C525 1.391 1_545 S
C528 C527 1.392 . S
N529 Co473 2.257 . S
N529 C526 1.391 1_565 S
N529 C530 1.388 . S
C530 H501 0.930 . S
C530 C525 1.391 . S
C530 N529 1.388 . S
Co531 O533 2.143 . S
Co531 O539 2.074 . S
Co531 O542 2.093 . S
Co531 O555 2.097 1_655 S
Co531 N572 2.151 . S
Co531 N580 2.214 . S
Co532 O533 2.160 . S
Co532 O538 2.058 . S
Co532 O548 2.057 . S
Co532 O563 2.037 . S
Co532 N567 2.145 . S
Co532 N588 2.257 . S
O533 Co531 2.143 . S
O533 Co532 2.160 . S
C534 O535 1.278 . S
C534 O542 1.224 . S
O535 C534 1.278 . S
C536 O537 1.245 . S
C536 O548 1.232 . S
O537 C536 1.245 . S
O538 Co532 2.058 . S
O538 C564 1.269 . S
O539 Co531 2.074 . S
O539 C564 1.257 . S
H540 C565 0.930 . S
H541 C571 0.930 . S
O542 Co531 2.093 . S
O542 C534 1.224 . S
H543 C575 0.929 . S
H544 C577 0.930 . S
H545 C578 0.930 . S
H546 C576 0.929 . S
H547 C579 0.928 . S
O548 Co532 2.057 . S
O548 C536 1.232 . S
H549 C568 0.929 . S
H550 C569 0.929 . S
H551 C581 0.931 . S
H552 C573 0.929 . S
H553 C582 0.938 . S
H554 C574 0.931 . S
O555 Co531 2.097 1_455 S
O555 C583 1.214 . S
H556 C584 0.929 . S
H557 C585 0.929 . S
H558 C586 0.930 . S
H559 C587 0.929 . S
H560 C589 0.930 . S
H561 C566 0.930 . S
H562 C570 0.930 . S
O563 Co532 2.037 . S
O563 C583 1.234 1_655 S
C564 O538 1.269 . S
C564 O539 1.257 . S
C565 H540 0.930 . S
C565 C568 1.388 . S
C565 C570 1.418 . S
C566 H561 0.930 . S
C566 C569 1.404 . S
C566 C570 1.353 . S
N567 Co532 2.145 . S
N567 C568 1.397 . S
N567 C569 1.334 . S
C568 H549 0.929 . S
C568 C565 1.388 . S
C568 N567 1.397 . S
C569 H550 0.929 . S
C569 C566 1.404 . S
C569 N567 1.334 . S
C570 H562 0.930 . S
C570 C565 1.418 . S
C570 C566 1.353 . S
C571 H541 0.930 . S
C571 N572 1.330 . S
C571 C573 1.446 . S
N572 Co531 2.151 . S
N572 C571 1.330 . S
N572 C576 1.418 . S
C573 H552 0.929 . S
C573 C571 1.446 . S
C573 C574 1.332 . S
C574 H554 0.931 . S
C574 C573 1.332 . S
C574 C575 1.267 . S
C575 H543 0.929 . S
C575 C574 1.267 . S
C575 C576 1.251 . S
C576 H546 0.929 . S
C576 N572 1.418 . S
C576 C575 1.251 . S
C577 H544 0.930 . S
C577 C579 1.406 . S
C577 C582 1.254 1_655 S
C578 H545 0.930 . S
C578 N580 1.325 . S
C578 C581 1.357 1_655 S
C579 H547 0.928 . S
C579 C577 1.406 . S
C579 N580 1.261 . S
N580 Co531 2.214 . S
N580 C578 1.325 . S
N580 C579 1.261 . S
C581 H551 0.931 . S
C581 C578 1.357 1_455 S
C581 C582 1.312 . S
C582 H553 0.938 . S
C582 C577 1.254 1_455 S
C582 C581 1.312 . S
C583 O555 1.214 . S
C583 O563 1.234 1_455 S
C584 H556 0.929 . S
C584 C587 1.391 1_655 S
C584 C589 1.391 . S
C585 H557 0.929 . S
C585 C586 1.390 . S
C585 N588 1.391 1_455 S
C586 H558 0.930 . S
C586 C585 1.390 . S
C586 C587 1.392 . S
C587 H559 0.929 . S
C587 C584 1.391 1_455 S
C587 C586 1.392 . S
N588 Co532 2.257 . S
N588 C585 1.391 1_655 S
N588 C589 1.388 . S
C589 H560 0.930 . S
C589 C584 1.391 . S
C589 N588 1.388 . S
Co590 O592 2.143 . S
Co590 O598 2.074 . S
Co590 O601 2.093 . S
Co590 O614 2.097 1_545 S
Co590 N631 2.151 . S
Co590 N639 2.214 . S
Co591 O592 2.160 . S
Co591 O597 2.058 . S
Co591 O607 2.057 . S
Co591 O622 2.037 . S
Co591 N626 2.145 . S
Co591 N647 2.257 . S
O592 Co590 2.143 . S
O592 Co591 2.160 . S
C593 O594 1.278 . S
C593 O601 1.224 . S
O594 C593 1.278 . S
C595 O596 1.245 . S
C595 O607 1.232 . S
O596 C595 1.245 . S
O597 Co591 2.058 . S
O597 C623 1.269 . S
O598 Co590 2.074 . S
O598 C623 1.257 . S
H599 C624 0.930 . S
H600 C630 0.930 . S
O601 Co590 2.093 . S
O601 C593 1.224 . S
H602 C634 0.929 . S
H603 C636 0.930 . S
H604 C637 0.930 . S
H605 C635 0.929 . S
H606 C638 0.928 . S
O607 Co591 2.057 . S
O607 C595 1.232 . S
H608 C627 0.929 . S
H609 C628 0.929 . S
H610 C640 0.931 . S
H611 C632 0.929 . S
H612 C641 0.938 . S
H613 C633 0.931 . S
O614 Co590 2.097 1_565 S
O614 C642 1.214 . S
H615 C643 0.929 . S
H616 C644 0.929 . S
H617 C645 0.930 . S
H618 C646 0.929 . S
H619 C648 0.930 . S
H620 C625 0.930 . S
H621 C629 0.930 . S
O622 Co591 2.037 . S
O622 C642 1.234 1_545 S
C623 O597 1.269 . S
C623 O598 1.257 . S
C624 H599 0.930 . S
C624 C627 1.388 . S
C624 C629 1.418 . S
C625 H620 0.930 . S
C625 C628 1.404 . S
C625 C629 1.353 . S
N626 Co591 2.145 . S
N626 C627 1.397 . S
N626 C628 1.334 . S
C627 H608 0.929 . S
C627 C624 1.388 . S
C627 N626 1.397 . S
C628 H609 0.929 . S
C628 C625 1.404 . S
C628 N626 1.334 . S
C629 H621 0.930 . S
C629 C624 1.418 . S
C629 C625 1.353 . S
C630 H600 0.930 . S
C630 N631 1.330 . S
C630 C632 1.446 . S
N631 Co590 2.151 . S
N631 C630 1.330 . S
N631 C635 1.418 . S
C632 H611 0.929 . S
C632 C630 1.446 . S
C632 C633 1.332 . S
C633 H613 0.931 . S
C633 C632 1.332 . S
C633 C634 1.267 . S
C634 H602 0.929 . S
C634 C633 1.267 . S
C634 C635 1.251 . S
C635 H605 0.929 . S
C635 N631 1.418 . S
C635 C634 1.251 . S
C636 H603 0.930 . S
C636 C638 1.406 . S
C636 C641 1.254 1_545 S
C637 H604 0.930 . S
C637 N639 1.325 . S
C637 C640 1.357 1_545 S
C638 H606 0.928 . S
C638 C636 1.406 . S
C638 N639 1.261 . S
N639 Co590 2.214 . S
N639 C637 1.325 . S
N639 C638 1.261 . S
C640 H610 0.931 . S
C640 C637 1.357 1_565 S
C640 C641 1.312 . S
C641 H612 0.938 . S
C641 C636 1.254 1_565 S
C641 C640 1.312 . S
C642 O614 1.214 . S
C642 O622 1.234 1_565 S
C643 H615 0.929 . S
C643 C646 1.391 1_545 S
C643 C648 1.391 . S
C644 H616 0.929 . S
C644 C645 1.390 . S
C644 N647 1.391 1_565 S
C645 H617 0.930 . S
C645 C644 1.390 . S
C645 C646 1.392 . S
C646 H618 0.929 . S
C646 C643 1.391 1_565 S
C646 C645 1.392 . S
N647 Co591 2.257 . S
N647 C644 1.391 1_545 S
N647 C648 1.388 . S
C648 H619 0.930 . S
C648 C643 1.391 . S
C648 N647 1.388 . S
Co649 O651 2.143 . S
Co649 O657 2.074 . S
Co649 O660 2.093 . S
Co649 O673 2.097 1_455 S
Co649 N690 2.151 . S
Co649 N698 2.214 . S
Co650 O651 2.160 . S
Co650 O656 2.058 . S
Co650 O666 2.057 . S
Co650 O681 2.037 . S
Co650 N685 2.145 . S
Co650 N706 2.257 . S
O651 Co649 2.143 . S
O651 Co650 2.160 . S
C652 O653 1.278 . S
C652 O660 1.224 . S
O653 C652 1.278 . S
C654 O655 1.245 . S
C654 O666 1.232 . S
O655 C654 1.245 . S
O656 Co650 2.058 . S
O656 C682 1.269 . S
O657 Co649 2.074 . S
O657 C682 1.257 . S
H658 C683 0.930 . S
H659 C689 0.930 . S
O660 Co649 2.093 . S
O660 C652 1.224 . S
H661 C693 0.929 . S
H662 C695 0.930 . S
H663 C696 0.930 . S
H664 C694 0.929 . S
H665 C697 0.928 . S
O666 Co650 2.057 . S
O666 C654 1.232 . S
H667 C686 0.929 . S
H668 C687 0.929 . S
H669 C699 0.931 . S
H670 C691 0.929 . S
H671 C700 0.938 . S
H672 C692 0.931 . S
O673 Co649 2.097 1_655 S
O673 C701 1.214 . S
H674 C702 0.929 . S
H675 C703 0.929 . S
H676 C704 0.930 . S
H677 C705 0.929 . S
H678 C707 0.930 . S
H679 C684 0.930 . S
H680 C688 0.930 . S
O681 Co650 2.037 . S
O681 C701 1.234 1_455 S
C682 O656 1.269 . S
C682 O657 1.257 . S
C683 H658 0.930 . S
C683 C686 1.388 . S
C683 C688 1.418 . S
C684 H679 0.930 . S
C684 C687 1.404 . S
C684 C688 1.353 . S
N685 Co650 2.145 . S
N685 C686 1.397 . S
N685 C687 1.334 . S
C686 H667 0.929 . S
C686 C683 1.388 . S
C686 N685 1.397 . S
C687 H668 0.929 . S
C687 C684 1.404 . S
C687 N685 1.334 . S
C688 H680 0.930 . S
C688 C683 1.418 . S
C688 C684 1.353 . S
C689 H659 0.930 . S
C689 N690 1.330 . S
C689 C691 1.446 . S
N690 Co649 2.151 . S
N690 C689 1.330 . S
N690 C694 1.418 . S
C691 H670 0.929 . S
C691 C689 1.446 . S
C691 C692 1.332 . S
C692 H672 0.931 . S
C692 C691 1.332 . S
C692 C693 1.267 . S
C693 H661 0.929 . S
C693 C692 1.267 . S
C693 C694 1.251 . S
C694 H664 0.929 . S
C694 N690 1.418 . S
C694 C693 1.251 . S
C695 H662 0.930 . S
C695 C697 1.406 . S
C695 C700 1.254 1_455 S
C696 H663 0.930 . S
C696 N698 1.325 . S
C696 C699 1.357 1_455 S
C697 H665 0.928 . S
C697 C695 1.406 . S
C697 N698 1.261 . S
N698 Co649 2.214 . S
N698 C696 1.325 . S
N698 C697 1.261 . S
C699 H669 0.931 . S
C699 C696 1.357 1_655 S
C699 C700 1.312 . S
C700 H671 0.938 . S
C700 C695 1.254 1_655 S
C700 C699 1.312 . S
C701 O673 1.214 . S
C701 O681 1.234 1_655 S
C702 H674 0.929 . S
C702 C705 1.391 1_455 S
C702 C707 1.391 . S
C703 H675 0.929 . S
C703 C704 1.390 . S
C703 N706 1.391 1_655 S
C704 H676 0.930 . S
C704 C703 1.390 . S
C704 C705 1.392 . S
C705 H677 0.929 . S
C705 C702 1.391 1_655 S
C705 C704 1.392 . S
N706 Co650 2.257 . S
N706 C703 1.391 1_455 S
N706 C707 1.388 . S
C707 H678 0.930 . S
C707 C702 1.391 . S
C707 N706 1.388 . S
Co708 O710 2.143 . S
Co708 O716 2.074 . S
Co708 O719 2.093 . S
Co708 O732 2.097 1_545 S
Co708 N749 2.151 . S
Co708 N757 2.214 . S
Co709 O710 2.160 . S
Co709 O715 2.058 . S
Co709 O725 2.057 . S
Co709 O740 2.037 . S
Co709 N744 2.145 . S
Co709 N765 2.257 . S
O710 Co708 2.143 . S
O710 Co709 2.160 . S
C711 O712 1.278 . S
C711 O719 1.224 . S
O712 C711 1.278 . S
C713 O714 1.245 . S
C713 O725 1.232 . S
O714 C713 1.245 . S
O715 Co709 2.058 . S
O715 C741 1.269 . S
O716 Co708 2.074 . S
O716 C741 1.257 . S
H717 C742 0.930 . S
H718 C748 0.930 . S
O719 Co708 2.093 . S
O719 C711 1.224 . S
H720 C752 0.929 . S
H721 C754 0.930 . S
H722 C755 0.930 . S
H723 C753 0.929 . S
H724 C756 0.928 . S
O725 Co709 2.057 . S
O725 C713 1.232 . S
H726 C745 0.929 . S
H727 C746 0.929 . S
H728 C758 0.931 . S
H729 C750 0.929 . S
H730 C759 0.938 . S
H731 C751 0.931 . S
O732 Co708 2.097 1_565 S
O732 C760 1.214 . S
H733 C761 0.929 . S
H734 C762 0.929 . S
H735 C763 0.930 . S
H736 C764 0.929 . S
H737 C766 0.930 . S
H738 C743 0.930 . S
H739 C747 0.930 . S
O740 Co709 2.037 . S
O740 C760 1.234 1_545 S
C741 O715 1.269 . S
C741 O716 1.257 . S
C742 H717 0.930 . S
C742 C745 1.388 . S
C742 C747 1.418 . S
C743 H738 0.930 . S
C743 C746 1.404 . S
C743 C747 1.353 . S
N744 Co709 2.145 . S
N744 C745 1.397 . S
N744 C746 1.334 . S
C745 H726 0.929 . S
C745 C742 1.388 . S
C745 N744 1.397 . S
C746 H727 0.929 . S
C746 C743 1.404 . S
C746 N744 1.334 . S
C747 H739 0.930 . S
C747 C742 1.418 . S
C747 C743 1.353 . S
C748 H718 0.930 . S
C748 N749 1.330 . S
C748 C750 1.446 . S
N749 Co708 2.151 . S
N749 C748 1.330 . S
N749 C753 1.418 . S
C750 H729 0.929 . S
C750 C748 1.446 . S
C750 C751 1.332 . S
C751 H731 0.931 . S
C751 C750 1.332 . S
C751 C752 1.267 . S
C752 H720 0.929 . S
C752 C751 1.267 . S
C752 C753 1.251 . S
C753 H723 0.929 . S
C753 N749 1.418 . S
C753 C752 1.251 . S
C754 H721 0.930 . S
C754 C756 1.406 . S
C754 C759 1.254 1_545 S
C755 H722 0.930 . S
C755 N757 1.325 . S
C755 C758 1.357 1_545 S
C756 H724 0.928 . S
C756 C754 1.406 . S
C756 N757 1.261 . S
N757 Co708 2.214 . S
N757 C755 1.325 . S
N757 C756 1.261 . S
C758 H728 0.931 . S
C758 C755 1.357 1_565 S
C758 C759 1.312 . S
C759 H730 0.938 . S
C759 C754 1.254 1_565 S
C759 C758 1.312 . S
C760 O732 1.214 . S
C760 O740 1.234 1_565 S
C761 H733 0.929 . S
C761 C764 1.391 1_545 S
C761 C766 1.391 . S
C762 H734 0.929 . S
C762 C763 1.390 . S
C762 N765 1.391 1_565 S
C763 H735 0.930 . S
C763 C762 1.390 . S
C763 C764 1.392 . S
C764 H736 0.929 . S
C764 C761 1.391 1_565 S
C764 C763 1.392 . S
N765 Co709 2.257 . S
N765 C762 1.391 1_545 S
N765 C766 1.388 . S
C766 H737 0.930 . S
C766 C761 1.391 . S
C766 N765 1.388 . S
Co767 O769 2.143 . S
Co767 O775 2.074 . S
Co767 O778 2.093 . S
Co767 O791 2.097 1_455 S
Co767 N808 2.151 . S
Co767 N816 2.214 . S
Co768 O769 2.160 . S
Co768 O774 2.058 . S
Co768 O784 2.057 . S
Co768 O799 2.037 . S
Co768 N803 2.145 . S
Co768 N824 2.257 . S
O769 Co767 2.143 . S
O769 Co768 2.160 . S
C770 O771 1.278 . S
C770 O778 1.224 . S
O771 C770 1.278 . S
C772 O773 1.245 . S
C772 O784 1.232 . S
O773 C772 1.245 . S
O774 Co768 2.058 . S
O774 C800 1.269 . S
O775 Co767 2.074 . S
O775 C800 1.257 . S
H776 C801 0.930 . S
H777 C807 0.930 . S
O778 Co767 2.093 . S
O778 C770 1.224 . S
H779 C811 0.929 . S
H780 C813 0.930 . S
H781 C814 0.930 . S
H782 C812 0.929 . S
H783 C815 0.928 . S
O784 Co768 2.057 . S
O784 C772 1.232 . S
H785 C804 0.929 . S
H786 C805 0.929 . S
H787 C817 0.931 . S
H788 C809 0.929 . S
H789 C818 0.938 . S
H790 C810 0.931 . S
O791 Co767 2.097 1_655 S
O791 C819 1.214 . S
H792 C820 0.929 . S
H793 C821 0.929 . S
H794 C822 0.930 . S
H795 C823 0.929 . S
H796 C825 0.930 . S
H797 C802 0.930 . S
H798 C806 0.930 . S
O799 Co768 2.037 . S
O799 C819 1.234 1_455 S
C800 O774 1.269 . S
C800 O775 1.257 . S
C801 H776 0.930 . S
C801 C804 1.388 . S
C801 C806 1.418 . S
C802 H797 0.930 . S
C802 C805 1.404 . S
C802 C806 1.353 . S
N803 Co768 2.145 . S
N803 C804 1.397 . S
N803 C805 1.334 . S
C804 H785 0.929 . S
C804 C801 1.388 . S
C804 N803 1.397 . S
C805 H786 0.929 . S
C805 C802 1.404 . S
C805 N803 1.334 . S
C806 H798 0.930 . S
C806 C801 1.418 . S
C806 C802 1.353 . S
C807 H777 0.930 . S
C807 N808 1.330 . S
C807 C809 1.446 . S
N808 Co767 2.151 . S
N808 C807 1.330 . S
N808 C812 1.418 . S
C809 H788 0.929 . S
C809 C807 1.446 . S
C809 C810 1.332 . S
C810 H790 0.931 . S
C810 C809 1.332 . S
C810 C811 1.267 . S
C811 H779 0.929 . S
C811 C810 1.267 . S
C811 C812 1.251 . S
C812 H782 0.929 . S
C812 N808 1.418 . S
C812 C811 1.251 . S
C813 H780 0.930 . S
C813 C815 1.406 . S
C813 C818 1.254 1_455 S
C814 H781 0.930 . S
C814 N816 1.325 . S
C814 C817 1.357 1_455 S
C815 H783 0.928 . S
C815 C813 1.406 . S
C815 N816 1.261 . S
N816 Co767 2.214 . S
N816 C814 1.325 . S
N816 C815 1.261 . S
C817 H787 0.931 . S
C817 C814 1.357 1_655 S
C817 C818 1.312 . S
C818 H789 0.938 . S
C818 C813 1.254 1_655 S
C818 C817 1.312 . S
C819 O791 1.214 . S
C819 O799 1.234 1_655 S
C820 H792 0.929 . S
C820 C823 1.391 1_455 S
C820 C825 1.391 . S
C821 H793 0.929 . S
C821 C822 1.390 . S
C821 N824 1.391 1_655 S
C822 H794 0.930 . S
C822 C821 1.390 . S
C822 C823 1.392 . S
C823 H795 0.929 . S
C823 C820 1.391 1_655 S
C823 C822 1.392 . S
N824 Co768 2.257 . S
N824 C821 1.391 1_455 S
N824 C825 1.388 . S
C825 H796 0.930 . S
C825 C820 1.391 . S
C825 N824 1.388 . S
Co826 O828 2.143 . S
Co826 O834 2.074 . S
Co826 O837 2.093 . S
Co826 O850 2.097 1_565 S
Co826 N867 2.151 . S
Co826 N875 2.214 . S
Co827 O828 2.160 . S
Co827 O833 2.058 . S
Co827 O843 2.057 . S
Co827 O858 2.037 . S
Co827 N862 2.145 . S
Co827 N883 2.257 . S
O828 Co826 2.143 . S
O828 Co827 2.160 . S
C829 O830 1.278 . S
C829 O837 1.224 . S
O830 C829 1.278 . S
C831 O832 1.245 . S
C831 O843 1.232 . S
O832 C831 1.245 . S
O833 Co827 2.058 . S
O833 C859 1.269 . S
O834 Co826 2.074 . S
O834 C859 1.257 . S
H835 C860 0.930 . S
H836 C866 0.930 . S
O837 Co826 2.093 . S
O837 C829 1.224 . S
H838 C870 0.929 . S
H839 C872 0.930 . S
H840 C873 0.930 . S
H841 C871 0.929 . S
H842 C874 0.928 . S
O843 Co827 2.057 . S
O843 C831 1.232 . S
H844 C863 0.929 . S
H845 C864 0.929 . S
H846 C876 0.931 . S
H847 C868 0.929 . S
H848 C877 0.938 . S
H849 C869 0.931 . S
O850 Co826 2.097 1_545 S
O850 C878 1.214 . S
H851 C879 0.929 . S
H852 C880 0.929 . S
H853 C881 0.930 . S
H854 C882 0.929 . S
H855 C884 0.930 . S
H856 C861 0.930 . S
H857 C865 0.930 . S
O858 Co827 2.037 . S
O858 C878 1.234 1_565 S
C859 O833 1.269 . S
C859 O834 1.257 . S
C860 H835 0.930 . S
C860 C863 1.388 . S
C860 C865 1.418 . S
C861 H856 0.930 . S
C861 C864 1.404 . S
C861 C865 1.353 . S
N862 Co827 2.145 . S
N862 C863 1.397 . S
N862 C864 1.334 . S
C863 H844 0.929 . S
C863 C860 1.388 . S
C863 N862 1.397 . S
C864 H845 0.929 . S
C864 C861 1.404 . S
C864 N862 1.334 . S
C865 H857 0.930 . S
C865 C860 1.418 . S
C865 C861 1.353 . S
C866 H836 0.930 . S
C866 N867 1.330 . S
C866 C868 1.446 . S
N867 Co826 2.151 . S
N867 C866 1.330 . S
N867 C871 1.418 . S
C868 H847 0.929 . S
C868 C866 1.446 . S
C868 C869 1.332 . S
C869 H849 0.931 . S
C869 C868 1.332 . S
C869 C870 1.267 . S
C870 H838 0.929 . S
C870 C869 1.267 . S
C870 C871 1.251 . S
C871 H841 0.929 . S
C871 N867 1.418 . S
C871 C870 1.251 . S
C872 H839 0.930 . S
C872 C874 1.406 . S
C872 C877 1.254 1_565 S
C873 H840 0.930 . S
C873 N875 1.325 . S
C873 C876 1.357 1_565 S
C874 H842 0.928 . S
C874 C872 1.406 . S
C874 N875 1.261 . S
N875 Co826 2.214 . S
N875 C873 1.325 . S
N875 C874 1.261 . S
C876 H846 0.931 . S
C876 C873 1.357 1_545 S
C876 C877 1.312 . S
C877 H848 0.938 . S
C877 C872 1.254 1_545 S
C877 C876 1.312 . S
C878 O850 1.214 . S
C878 O858 1.234 1_545 S
C879 H851 0.929 . S
C879 C882 1.391 1_565 S
C879 C884 1.391 . S
C880 H852 0.929 . S
C880 C881 1.390 . S
C880 N883 1.391 1_545 S
C881 H853 0.930 . S
C881 C880 1.390 . S
C881 C882 1.392 . S
C882 H854 0.929 . S
C882 C879 1.391 1_545 S
C882 C881 1.392 . S
N883 Co827 2.257 . S
N883 C880 1.391 1_565 S
N883 C884 1.388 . S
C884 H855 0.930 . S
C884 C879 1.391 . S
C884 N883 1.388 . S
Co885 O887 2.143 . S
Co885 O893 2.074 . S
Co885 O896 2.093 . S
Co885 O909 2.097 1_655 S
Co885 N926 2.151 . S
Co885 N934 2.214 . S
Co886 O887 2.160 . S
Co886 O892 2.058 . S
Co886 O902 2.057 . S
Co886 O917 2.037 . S
Co886 N921 2.145 . S
Co886 N942 2.257 . S
O887 Co885 2.143 . S
O887 Co886 2.160 . S
C888 O889 1.278 . S
C888 O896 1.224 . S
O889 C888 1.278 . S
C890 O891 1.245 . S
C890 O902 1.232 . S
O891 C890 1.245 . S
O892 Co886 2.058 . S
O892 C918 1.269 . S
O893 Co885 2.074 . S
O893 C918 1.257 . S
H894 C919 0.930 . S
H895 C925 0.930 . S
O896 Co885 2.093 . S
O896 C888 1.224 . S
H897 C929 0.929 . S
H898 C931 0.930 . S
H899 C932 0.930 . S
H900 C930 0.929 . S
H901 C933 0.928 . S
O902 Co886 2.057 . S
O902 C890 1.232 . S
H903 C922 0.929 . S
H904 C923 0.929 . S
H905 C935 0.931 . S
H906 C927 0.929 . S
H907 C936 0.938 . S
H908 C928 0.931 . S
O909 Co885 2.097 1_455 S
O909 C937 1.214 . S
H910 C938 0.929 . S
H911 C939 0.929 . S
H912 C940 0.930 . S
H913 C941 0.929 . S
H914 C943 0.930 . S
H915 C920 0.930 . S
H916 C924 0.930 . S
O917 Co886 2.037 . S
O917 C937 1.234 1_655 S
C918 O892 1.269 . S
C918 O893 1.257 . S
C919 H894 0.930 . S
C919 C922 1.388 . S
C919 C924 1.418 . S
C920 H915 0.930 . S
C920 C923 1.404 . S
C920 C924 1.353 . S
N921 Co886 2.145 . S
N921 C922 1.397 . S
N921 C923 1.334 . S
C922 H903 0.929 . S
C922 C919 1.388 . S
C922 N921 1.397 . S
C923 H904 0.929 . S
C923 C920 1.404 . S
C923 N921 1.334 . S
C924 H916 0.930 . S
C924 C919 1.418 . S
C924 C920 1.353 . S
C925 H895 0.930 . S
C925 N926 1.330 . S
C925 C927 1.446 . S
N926 Co885 2.151 . S
N926 C925 1.330 . S
N926 C930 1.418 . S
C927 H906 0.929 . S
C927 C925 1.446 . S
C927 C928 1.332 . S
C928 H908 0.931 . S
C928 C927 1.332 . S
C928 C929 1.267 . S
C929 H897 0.929 . S
C929 C928 1.267 . S
C929 C930 1.251 . S
C930 H900 0.929 . S
C930 N926 1.418 . S
C930 C929 1.251 . S
C931 H898 0.930 . S
C931 C933 1.406 . S
C931 C936 1.254 1_655 S
C932 H899 0.930 . S
C932 N934 1.325 . S
C932 C935 1.357 1_655 S
C933 H901 0.928 . S
C933 C931 1.406 . S
C933 N934 1.261 . S
N934 Co885 2.214 . S
N934 C932 1.325 . S
N934 C933 1.261 . S
C935 H905 0.931 . S
C935 C932 1.357 1_455 S
C935 C936 1.312 . S
C936 H907 0.938 . S
C936 C931 1.254 1_455 S
C936 C935 1.312 . S
C937 O909 1.214 . S
C937 O917 1.234 1_455 S
C938 H910 0.929 . S
C938 C941 1.391 1_655 S
C938 C943 1.391 . S
C939 H911 0.929 . S
C939 C940 1.390 . S
C939 N942 1.391 1_455 S
C940 H912 0.930 . S
C940 C939 1.390 . S
C940 C941 1.392 . S
C941 H913 0.929 . S
C941 C938 1.391 1_455 S
C941 C940 1.392 . S
N942 Co886 2.257 . S
N942 C939 1.391 1_655 S
N942 C943 1.388 . S
C943 H914 0.930 . S
C943 C938 1.391 . S
C943 N942 1.388 . S
C944 C945 1.363 . S
C944 C950 1.379 . S
C944 N952 1.356 . S
C945 C944 1.363 . S
C945 C951 1.363 . S
C946 C947 1.363 . S
C946 C951 1.379 . S
C946 N953 1.356 . S
C947 C946 1.363 . S
C947 C950 1.363 . S
N948 C950 1.356 . S
N948 H960 0.984 . S
N948 H961 0.985 . S
N949 C951 1.356 . S
N949 H954 0.984 . S
N949 H955 0.985 . S
C950 C944 1.379 . S
C950 C947 1.363 . S
C950 N948 1.356 . S
C951 C945 1.363 . S
C951 C946 1.379 . S
C951 N949 1.356 . S
N952 C944 1.356 . S
N952 H958 0.984 . S
N952 H959 0.984 . S
N953 C946 1.356 . S
N953 H956 0.984 . S
N953 H957 0.985 . S
H954 N949 0.984 . S
H955 N949 0.985 . S
H956 N953 0.984 . S
H957 N953 0.985 . S
H958 N952 0.984 . S
H959 N952 0.984 . S
H960 N948 0.984 . S
H961 N948 0.985 . S
C962 C963 1.363 . S
C962 C968 1.379 . S
C962 N970 1.356 . S
C963 C962 1.363 . S
C963 C969 1.363 . S
C964 C965 1.363 . S
C964 C969 1.379 . S
C964 N971 1.356 . S
C965 C964 1.363 . S
C965 C968 1.363 . S
N966 C968 1.356 . S
N966 H978 0.984 . S
N966 H979 0.985 . S
N967 C969 1.356 . S
N967 H972 0.984 . S
N967 H973 0.985 . S
C968 C962 1.379 . S
C968 C965 1.363 . S
C968 N966 1.356 . S
C969 C963 1.363 . S
C969 C964 1.379 . S
C969 N967 1.356 . S
N970 C962 1.356 . S
N970 H976 0.984 . S
N970 H977 0.984 . S
N971 C964 1.356 . S
N971 H974 0.984 . S
N971 H975 0.985 . S
H972 N967 0.984 . S
H973 N967 0.985 . S
H974 N971 0.984 . S
H975 N971 0.985 . S
H976 N970 0.984 . S
H977 N970 0.984 . S
H978 N966 0.984 . S
H979 N966 0.985 . S
C980 C981 1.363 . S
C980 C986 1.379 . S
C980 N988 1.356 . S
C981 C980 1.363 . S
C981 C987 1.363 . S
C982 C983 1.363 . S
C982 C987 1.379 . S
C982 N989 1.356 . S
C983 C982 1.363 . S
C983 C986 1.363 . S
N984 C986 1.356 . S
N984 H996 0.984 . S
N984 H997 0.985 . S
N985 C987 1.356 . S
N985 H990 0.984 . S
N985 H991 0.985 . S
C986 C980 1.379 . S
C986 C983 1.363 . S
C986 N984 1.356 . S
C987 C981 1.363 . S
C987 C982 1.379 . S
C987 N985 1.356 . S
N988 C980 1.356 . S
N988 H994 0.984 . S
N988 H995 0.984 . S
N989 C982 1.356 . S
N989 H992 0.984 . S
N989 H993 0.985 . S
H990 N985 0.984 . S
H991 N985 0.985 . S
H992 N989 0.984 . S
H993 N989 0.985 . S
H994 N988 0.984 . S
H995 N988 0.984 . S
H996 N984 0.984 . S
H997 N984 0.985 . S
C998 C999 1.363 . S
C998 C1004 1.379 . S
C998 N1006 1.356 . S
C999 C998 1.363 . S
C999 C1005 1.363 . S
C1000 C1001 1.363 . S
C1000 C1005 1.379 . S
C1000 N1007 1.356 . S
C1001 C1000 1.363 . S
C1001 C1004 1.363 . S
N1002 C1004 1.356 . S
N1002 H1014 0.984 . S
N1002 H1015 0.985 . S
N1003 C1005 1.356 . S
N1003 H1008 0.984 . S
N1003 H1009 0.985 . S
C1004 C998 1.379 . S
C1004 C1001 1.363 . S
C1004 N1002 1.356 . S
C1005 C999 1.363 . S
C1005 C1000 1.379 . S
C1005 N1003 1.356 . S
N1006 C998 1.356 . S
N1006 H1012 0.984 . S
N1006 H1013 0.984 . S
N1007 C1000 1.356 . S
N1007 H1010 0.984 . S
N1007 H1011 0.985 . S
H1008 N1003 0.984 . S
H1009 N1003 0.985 . S
H1010 N1007 0.984 . S
H1011 N1007 0.985 . S
H1012 N1006 0.984 . S
H1013 N1006 0.984 . S
H1014 N1002 0.984 . S
H1015 N1002 0.985 . S
C1016 C1017 1.363 . S
C1016 C1022 1.379 . S
C1016 N1024 1.356 . S
C1017 C1016 1.363 . S
C1017 C1023 1.363 . S
C1018 C1019 1.363 . S
C1018 C1023 1.379 . S
C1018 N1025 1.356 . S
C1019 C1018 1.363 . S
C1019 C1022 1.363 . S
N1020 C1022 1.356 . S
N1020 H1032 0.984 . S
N1020 H1033 0.985 . S
N1021 C1023 1.356 . S
N1021 H1026 0.984 . S
N1021 H1027 0.985 . S
C1022 C1016 1.379 . S
C1022 C1019 1.363 . S
C1022 N1020 1.356 . S
C1023 C1017 1.363 . S
C1023 C1018 1.379 . S
C1023 N1021 1.356 . S
N1024 C1016 1.356 . S
N1024 H1030 0.984 . S
N1024 H1031 0.984 . S
N1025 C1018 1.356 . S
N1025 H1028 0.984 . S
N1025 H1029 0.985 . S
H1026 N1021 0.984 . S
H1027 N1021 0.985 . S
H1028 N1025 0.984 . S
H1029 N1025 0.985 . S
H1030 N1024 0.984 . S
H1031 N1024 0.984 . S
H1032 N1020 0.984 . S
H1033 N1020 0.985 . S
C1034 C1035 1.363 . S
C1034 C1040 1.379 . S
C1034 N1042 1.356 . S
C1035 C1034 1.363 . S
C1035 C1041 1.363 . S
C1036 C1037 1.363 . S
C1036 C1041 1.379 . S
C1036 N1043 1.356 . S
C1037 C1036 1.363 . S
C1037 C1040 1.363 . S
N1038 C1040 1.356 . S
N1038 H1050 0.984 . S
N1038 H1051 0.985 . S
N1039 C1041 1.356 . S
N1039 H1044 0.984 . S
N1039 H1045 0.985 . S
C1040 C1034 1.379 . S
C1040 C1037 1.363 . S
C1040 N1038 1.356 . S
C1041 C1035 1.363 . S
C1041 C1036 1.379 . S
C1041 N1039 1.356 . S
N1042 C1034 1.356 . S
N1042 H1048 0.984 . S
N1042 H1049 0.984 . S
N1043 C1036 1.356 . S
N1043 H1046 0.984 . S
N1043 H1047 0.985 . S
H1044 N1039 0.984 . S
H1045 N1039 0.985 . S
H1046 N1043 0.984 . S
H1047 N1043 0.985 . S
H1048 N1042 0.984 . S
H1049 N1042 0.984 . S
H1050 N1038 0.984 . S
H1051 N1038 0.985 . S
C1052 C1053 1.363 . S
C1052 C1058 1.379 . S
C1052 N1060 1.356 . S
C1053 C1052 1.363 . S
C1053 C1059 1.363 . S
C1054 C1055 1.363 . S
C1054 C1059 1.379 . S
C1054 N1061 1.356 . S
C1055 C1054 1.363 . S
C1055 C1058 1.363 . S
N1056 C1058 1.356 . S
N1056 H1068 0.984 . S
N1056 H1069 0.985 . S
N1057 C1059 1.356 . S
N1057 H1062 0.984 . S
N1057 H1063 0.985 . S
C1058 C1052 1.379 . S
C1058 C1055 1.363 . S
C1058 N1056 1.356 . S
C1059 C1053 1.363 . S
C1059 C1054 1.379 . S
C1059 N1057 1.356 . S
N1060 C1052 1.356 . S
N1060 H1066 0.984 . S
N1060 H1067 0.984 . S
N1061 C1054 1.356 . S
N1061 H1064 0.984 . S
N1061 H1065 0.985 . S
H1062 N1057 0.984 . S
H1063 N1057 0.985 . S
H1064 N1061 0.984 . S
H1065 N1061 0.985 . S
H1066 N1060 0.984 . S
H1067 N1060 0.984 . S
H1068 N1056 0.984 . S
H1069 N1056 0.985 . S
C1070 C1071 1.363 . S
C1070 C1076 1.379 . S
C1070 N1078 1.356 . S
C1071 C1070 1.363 . S
C1071 C1077 1.363 . S
C1072 C1073 1.363 . S
C1072 C1077 1.379 . S
C1072 N1079 1.356 . S
C1073 C1072 1.363 . S
C1073 C1076 1.363 . S
N1074 C1076 1.356 . S
N1074 H1086 0.984 . S
N1074 H1087 0.985 . S
N1075 C1077 1.356 . S
N1075 H1080 0.984 . S
N1075 H1081 0.985 . S
C1076 C1070 1.379 . S
C1076 C1073 1.363 . S
C1076 N1074 1.356 . S
C1077 C1071 1.363 . S
C1077 C1072 1.379 . S
C1077 N1075 1.356 . S
N1078 C1070 1.356 . S
N1078 H1084 0.984 . S
N1078 H1085 0.984 . S
N1079 C1072 1.356 . S
N1079 H1082 0.984 . S
N1079 H1083 0.985 . S
H1080 N1075 0.984 . S
H1081 N1075 0.985 . S
H1082 N1079 0.984 . S
H1083 N1079 0.985 . S
H1084 N1078 0.984 . S
H1085 N1078 0.984 . S
H1086 N1074 0.984 . S
H1087 N1074 0.985 . S
C1088 C1089 1.363 . S
C1088 C1094 1.379 . S
C1088 N1096 1.356 . S
C1089 C1088 1.363 . S
C1089 C1095 1.363 . S
C1090 C1091 1.363 . S
C1090 C1095 1.379 . S
C1090 N1097 1.356 . S
C1091 C1090 1.363 . S
C1091 C1094 1.363 . S
N1092 C1094 1.356 . S
N1092 H1104 0.984 . S
N1092 H1105 0.985 . S
N1093 C1095 1.356 . S
N1093 H1098 0.984 . S
N1093 H1099 0.985 . S
C1094 C1088 1.379 . S
C1094 C1091 1.363 . S
C1094 N1092 1.356 . S
C1095 C1089 1.363 . S
C1095 C1090 1.379 . S
C1095 N1093 1.356 . S
N1096 C1088 1.356 . S
N1096 H1102 0.984 . S
N1096 H1103 0.984 . S
N1097 C1090 1.356 . S
N1097 H1100 0.984 . S
N1097 H1101 0.985 . S
H1098 N1093 0.984 . S
H1099 N1093 0.985 . S
H1100 N1097 0.984 . S
H1101 N1097 0.985 . S
H1102 N1096 0.984 . S
H1103 N1096 0.984 . S
H1104 N1092 0.984 . S
H1105 N1092 0.985 . S
C1106 C1107 1.363 . S
C1106 C1112 1.379 . S
C1106 N1114 1.356 . S
C1107 C1106 1.363 . S
C1107 C1113 1.363 . S
C1108 C1109 1.363 . S
C1108 C1113 1.379 . S
C1108 N1115 1.356 . S
C1109 C1108 1.363 . S
C1109 C1112 1.363 . S
N1110 C1112 1.356 . S
N1110 H1122 0.984 . S
N1110 H1123 0.985 . S
N1111 C1113 1.356 . S
N1111 H1116 0.984 . S
N1111 H1117 0.985 . S
C1112 C1106 1.379 . S
C1112 C1109 1.363 . S
C1112 N1110 1.356 . S
C1113 C1107 1.363 . S
C1113 C1108 1.379 . S
C1113 N1111 1.356 . S
N1114 C1106 1.356 . S
N1114 H1120 0.984 . S
N1114 H1121 0.984 . S
N1115 C1108 1.356 . S
N1115 H1118 0.984 . S
N1115 H1119 0.985 . S
H1116 N1111 0.984 . S
H1117 N1111 0.985 . S
H1118 N1115 0.984 . S
H1119 N1115 0.985 . S
H1120 N1114 0.984 . S
H1121 N1114 0.984 . S
H1122 N1110 0.984 . S
H1123 N1110 0.985 . S
C1124 C1125 1.363 . S
C1124 C1130 1.379 . S
C1124 N1132 1.356 . S
C1125 C1124 1.363 . S
C1125 C1131 1.363 . S
C1126 C1127 1.363 . S
C1126 C1131 1.379 . S
C1126 N1133 1.356 . S
C1127 C1126 1.363 . S
C1127 C1130 1.363 . S
N1128 C1130 1.356 . S
N1128 H1140 0.984 . S
N1128 H1141 0.985 . S
N1129 C1131 1.356 . S
N1129 H1134 0.984 . S
N1129 H1135 0.985 . S
C1130 C1124 1.379 . S
C1130 C1127 1.363 . S
C1130 N1128 1.356 . S
C1131 C1125 1.363 . S
C1131 C1126 1.379 . S
C1131 N1129 1.356 . S
N1132 C1124 1.356 . S
N1132 H1138 0.984 . S
N1132 H1139 0.984 . S
N1133 C1126 1.356 . S
N1133 H1136 0.984 . S
N1133 H1137 0.985 . S
H1134 N1129 0.984 . S
H1135 N1129 0.985 . S
H1136 N1133 0.984 . S
H1137 N1133 0.985 . S
H1138 N1132 0.984 . S
H1139 N1132 0.984 . S
H1140 N1128 0.984 . S
H1141 N1128 0.985 . S
C1142 C1143 1.363 . S
C1142 C1148 1.379 . S
C1142 N1150 1.356 . S
C1143 C1142 1.363 . S
C1143 C1149 1.363 . S
C1144 C1145 1.363 . S
C1144 C1149 1.379 . S
C1144 N1151 1.356 . S
C1145 C1144 1.363 . S
C1145 C1148 1.363 . S
N1146 C1148 1.356 . S
N1146 H1158 0.984 . S
N1146 H1159 0.985 . S
N1147 C1149 1.356 . S
N1147 H1152 0.984 . S
N1147 H1153 0.985 . S
C1148 C1142 1.379 . S
C1148 C1145 1.363 . S
C1148 N1146 1.356 . S
C1149 C1143 1.363 . S
C1149 C1144 1.379 . S
C1149 N1147 1.356 . S
N1150 C1142 1.356 . S
N1150 H1156 0.984 . S
N1150 H1157 0.984 . S
N1151 C1144 1.356 . S
N1151 H1154 0.984 . S
N1151 H1155 0.985 . S
H1152 N1147 0.984 . S
H1153 N1147 0.985 . S
H1154 N1151 0.984 . S
H1155 N1151 0.985 . S
H1156 N1150 0.984 . S
H1157 N1150 0.984 . S
H1158 N1146 0.984 . S
H1159 N1146 0.985 . S
C1160 C1161 1.363 . S
C1160 C1166 1.379 . S
C1160 N1168 1.356 . S
C1161 C1160 1.363 . S
C1161 C1167 1.363 . S
C1162 C1163 1.363 . S
C1162 C1167 1.379 . S
C1162 N1169 1.356 . S
C1163 C1162 1.363 . S
C1163 C1166 1.363 . S
N1164 C1166 1.356 . S
N1164 H1176 0.984 . S
N1164 H1177 0.985 . S
N1165 C1167 1.356 . S
N1165 H1170 0.984 . S
N1165 H1171 0.985 . S
C1166 C1160 1.379 . S
C1166 C1163 1.363 . S
C1166 N1164 1.356 . S
C1167 C1161 1.363 . S
C1167 C1162 1.379 . S
C1167 N1165 1.356 . S
N1168 C1160 1.356 . S
N1168 H1174 0.984 . S
N1168 H1175 0.984 . S
N1169 C1162 1.356 . S
N1169 H1172 0.984 . S
N1169 H1173 0.985 . S
H1170 N1165 0.984 . S
H1171 N1165 0.985 . S
H1172 N1169 0.984 . S
H1173 N1169 0.985 . S
H1174 N1168 0.984 . S
H1175 N1168 0.984 . S
H1176 N1164 0.984 . S
H1177 N1164 0.985 . S
C1178 C1179 1.363 . S
C1178 C1184 1.379 . S
C1178 N1186 1.356 . S
C1179 C1178 1.363 . S
C1179 C1185 1.363 . S
C1180 C1181 1.363 . S
C1180 C1185 1.379 . S
C1180 N1187 1.356 . S
C1181 C1180 1.363 . S
C1181 C1184 1.363 . S
N1182 C1184 1.356 . S
N1182 H1194 0.984 . S
N1182 H1195 0.985 . S
N1183 C1185 1.356 . S
N1183 H1188 0.984 . S
N1183 H1189 0.985 . S
C1184 C1178 1.379 . S
C1184 C1181 1.363 . S
C1184 N1182 1.356 . S
C1185 C1179 1.363 . S
C1185 C1180 1.379 . S
C1185 N1183 1.356 . S
N1186 C1178 1.356 . S
N1186 H1192 0.984 . S
N1186 H1193 0.984 . S
N1187 C1180 1.356 . S
N1187 H1190 0.984 . S
N1187 H1191 0.985 . S
H1188 N1183 0.984 . S
H1189 N1183 0.985 . S
H1190 N1187 0.984 . S
H1191 N1187 0.985 . S
H1192 N1186 0.984 . S
H1193 N1186 0.984 . S
H1194 N1182 0.984 . S
H1195 N1182 0.985 . S
C1196 C1197 1.363 . S
C1196 C1202 1.379 . S
C1196 N1204 1.356 . S
C1197 C1196 1.363 . S
C1197 C1203 1.363 . S
C1198 C1199 1.363 . S
C1198 C1203 1.379 . S
C1198 N1205 1.356 . S
C1199 C1198 1.363 . S
C1199 C1202 1.363 . S
N1200 C1202 1.356 . S
N1200 H1212 0.984 . S
N1200 H1213 0.985 . S
N1201 C1203 1.356 . S
N1201 H1206 0.984 . S
N1201 H1207 0.985 . S
C1202 C1196 1.379 . S
C1202 C1199 1.363 . S
C1202 N1200 1.356 . S
C1203 C1197 1.363 . S
C1203 C1198 1.379 . S
C1203 N1201 1.356 . S
N1204 C1196 1.356 . S
N1204 H1210 0.984 . S
N1204 H1211 0.984 . S
N1205 C1198 1.356 . S
N1205 H1208 0.984 . S
N1205 H1209 0.985 . S
H1206 N1201 0.984 . S
H1207 N1201 0.985 . S
H1208 N1205 0.984 . S
H1209 N1205 0.985 . S
H1210 N1204 0.984 . S
H1211 N1204 0.984 . S
H1212 N1200 0.984 . S
H1213 N1200 0.985 . S
C1214 C1215 1.363 . S
C1214 C1220 1.379 . S
C1214 N1222 1.356 . S
C1215 C1214 1.363 . S
C1215 C1221 1.363 . S
C1216 C1217 1.363 . S
C1216 C1221 1.379 . S
C1216 N1223 1.356 . S
C1217 C1216 1.363 . S
C1217 C1220 1.363 . S
N1218 C1220 1.356 . S
N1218 H1230 0.984 . S
N1218 H1231 0.985 . S
N1219 C1221 1.356 . S
N1219 H1224 0.984 . S
N1219 H1225 0.985 . S
C1220 C1214 1.379 . S
C1220 C1217 1.363 . S
C1220 N1218 1.356 . S
C1221 C1215 1.363 . S
C1221 C1216 1.379 . S
C1221 N1219 1.356 . S
N1222 C1214 1.356 . S
N1222 H1228 0.984 . S
N1222 H1229 0.984 . S
N1223 C1216 1.356 . S
N1223 H1226 0.984 . S
N1223 H1227 0.985 . S
H1224 N1219 0.984 . S
H1225 N1219 0.985 . S
H1226 N1223 0.984 . S
H1227 N1223 0.985 . S
H1228 N1222 0.984 . S
H1229 N1222 0.984 . S
H1230 N1218 0.984 . S
H1231 N1218 0.985 . S
C1232 C1233 1.363 . S
C1232 C1238 1.379 . S
C1232 N1240 1.356 . S
C1233 C1232 1.363 . S
C1233 C1239 1.363 . S
C1234 C1235 1.363 . S
C1234 C1239 1.379 . S
C1234 N1241 1.356 . S
C1235 C1234 1.363 . S
C1235 C1238 1.363 . S
N1236 C1238 1.356 . S
N1236 H1248 0.984 . S
N1236 H1249 0.985 . S
N1237 C1239 1.356 . S
N1237 H1242 0.984 . S
N1237 H1243 0.985 . S
C1238 C1232 1.379 . S
C1238 C1235 1.363 . S
C1238 N1236 1.356 . S
C1239 C1233 1.363 . S
C1239 C1234 1.379 . S
C1239 N1237 1.356 . S
N1240 C1232 1.356 . S
N1240 H1246 0.984 . S
N1240 H1247 0.984 1_545 S
N1241 C1234 1.356 . S
N1241 H1244 0.984 . S
N1241 H1245 0.985 . S
H1242 N1237 0.984 . S
H1243 N1237 0.985 . S
H1244 N1241 0.984 . S
H1245 N1241 0.985 . S
H1246 N1240 0.984 . S
H1247 N1240 0.984 1_565 S
H1248 N1236 0.984 . S
H1249 N1236 0.985 . S
C1250 C1251 1.363 . S
C1250 C1256 1.379 . S
C1250 N1258 1.356 . S
C1251 C1250 1.363 . S
C1251 C1257 1.363 . S
C1252 C1253 1.363 . S
C1252 C1257 1.379 . S
C1252 N1259 1.356 . S
C1253 C1252 1.363 . S
C1253 C1256 1.363 . S
N1254 C1256 1.356 . S
N1254 H1266 0.984 . S
N1254 H1267 0.985 . S
N1255 C1257 1.356 . S
N1255 H1260 0.984 . S
N1255 H1261 0.985 . S
C1256 C1250 1.379 . S
C1256 C1253 1.363 . S
C1256 N1254 1.356 . S
C1257 C1251 1.363 . S
C1257 C1252 1.379 . S
C1257 N1255 1.356 . S
N1258 C1250 1.356 . S
N1258 H1264 0.984 . S
N1258 H1265 0.984 . S
N1259 C1252 1.356 . S
N1259 H1262 0.984 1_455 S
N1259 H1263 0.985 . S
H1260 N1255 0.984 . S
H1261 N1255 0.985 . S
H1262 N1259 0.984 1_655 S
H1263 N1259 0.985 . S
H1264 N1258 0.984 . S
H1265 N1258 0.984 . S
H1266 N1254 0.984 . S
H1267 N1254 0.985 . S
C1268 C1269 1.363 . S
C1268 C1274 1.379 . S
C1268 N1276 1.356 . S
C1269 C1268 1.363 . S
C1269 C1275 1.363 . S
C1270 C1271 1.363 . S
C1270 C1275 1.379 . S
C1270 N1277 1.356 . S
C1271 C1270 1.363 . S
C1271 C1274 1.363 . S
N1272 C1274 1.356 . S
N1272 H1284 0.984 . S
N1272 H1285 0.985 . S
N1273 C1275 1.356 . S
N1273 H1278 0.984 . S
N1273 H1279 0.985 . S
C1274 C1268 1.379 . S
C1274 C1271 1.363 . S
C1274 N1272 1.356 . S
C1275 C1269 1.363 . S
C1275 C1270 1.379 . S
C1275 N1273 1.356 . S
N1276 C1268 1.356 . S
N1276 H1282 0.984 . S
N1276 H1283 0.984 1_565 S
N1277 C1270 1.356 . S
N1277 H1280 0.984 . S
N1277 H1281 0.985 . S
H1278 N1273 0.984 . S
H1279 N1273 0.985 . S
H1280 N1277 0.984 . S
H1281 N1277 0.985 . S
H1282 N1276 0.984 . S
H1283 N1276 0.984 1_545 S
H1284 N1272 0.984 . S
H1285 N1272 0.985 . S
C1286 C1287 1.363 . S
C1286 C1292 1.379 . S
C1286 N1294 1.356 . S
C1287 C1286 1.363 . S
C1287 C1293 1.363 . S
C1288 C1289 1.363 . S
C1288 C1293 1.379 . S
C1288 N1295 1.356 . S
C1289 C1288 1.363 . S
C1289 C1292 1.363 . S
N1290 C1292 1.356 . S
N1290 H1302 0.984 . S
N1290 H1303 0.985 . S
N1291 C1293 1.356 . S
N1291 H1296 0.984 . S
N1291 H1297 0.985 . S
C1292 C1286 1.379 . S
C1292 C1289 1.363 . S
C1292 N1290 1.356 . S
C1293 C1287 1.363 . S
C1293 C1288 1.379 . S
C1293 N1291 1.356 . S
N1294 C1286 1.356 . S
N1294 H1300 0.984 . S
N1294 H1301 0.984 . S
N1295 C1288 1.356 . S
N1295 H1298 0.984 . S
N1295 H1299 0.985 . S
H1296 N1291 0.984 . S
H1297 N1291 0.985 . S
H1298 N1295 0.984 . S
H1299 N1295 0.985 . S
H1300 N1294 0.984 . S
H1301 N1294 0.984 . S
H1302 N1290 0.984 . S
H1303 N1290 0.985 . S
C1304 C1305 1.363 . S
C1304 C1310 1.379 . S
C1304 N1312 1.356 . S
C1305 C1304 1.363 . S
C1305 C1311 1.363 . S
C1306 C1307 1.363 . S
C1306 C1311 1.379 . S
C1306 N1313 1.356 . S
C1307 C1306 1.363 . S
C1307 C1310 1.363 . S
N1308 C1310 1.356 . S
N1308 H1320 0.984 . S
N1308 H1321 0.985 . S
N1309 C1311 1.356 . S
N1309 H1314 0.984 . S
N1309 H1315 0.985 . S
C1310 C1304 1.379 . S
C1310 C1307 1.363 . S
C1310 N1308 1.356 . S
C1311 C1305 1.363 . S
C1311 C1306 1.379 . S
C1311 N1309 1.356 . S
N1312 C1304 1.356 . S
N1312 H1318 0.984 . S
N1312 H1319 0.984 . S
N1313 C1306 1.356 . S
N1313 H1316 0.984 . S
N1313 H1317 0.985 . S
H1314 N1309 0.984 . S
H1315 N1309 0.985 . S
H1316 N1313 0.984 . S
H1317 N1313 0.985 . S
H1318 N1312 0.984 . S
H1319 N1312 0.984 . S
H1320 N1308 0.984 . S
H1321 N1308 0.985 . S
C1322 C1323 1.363 . S
C1322 C1328 1.379 . S
C1322 N1330 1.356 . S
C1323 C1322 1.363 . S
C1323 C1329 1.363 . S
C1324 C1325 1.363 . S
C1324 C1329 1.379 . S
C1324 N1331 1.356 . S
C1325 C1324 1.363 . S
C1325 C1328 1.363 . S
N1326 C1328 1.356 . S
N1326 H1338 0.984 . S
N1326 H1339 0.985 . S
N1327 C1329 1.356 . S
N1327 H1332 0.984 . S
N1327 H1333 0.985 . S
C1328 C1322 1.379 . S
C1328 C1325 1.363 . S
C1328 N1326 1.356 . S
C1329 C1323 1.363 . S
C1329 C1324 1.379 . S
C1329 N1327 1.356 . S
N1330 C1322 1.356 . S
N1330 H1336 0.984 . S
N1330 H1337 0.984 . S
N1331 C1324 1.356 . S
N1331 H1334 0.984 1_655 S
N1331 H1335 0.985 . S
H1332 N1327 0.984 . S
H1333 N1327 0.985 . S
H1334 N1331 0.984 1_455 S
H1335 N1331 0.985 . S
H1336 N1330 0.984 . S
H1337 N1330 0.984 . S
H1338 N1326 0.984 . S
H1339 N1326 0.985 . S
C1340 C1341 1.363 . S
C1340 C1346 1.379 . S
C1340 N1348 1.356 . S
C1341 C1340 1.363 . S
C1341 C1347 1.363 . S
C1342 C1343 1.363 . S
C1342 C1347 1.379 . S
C1342 N1349 1.380 . S
C1343 C1342 1.363 . S
C1343 C1346 1.363 . S
N1344 C1346 1.356 . S
N1344 H1356 0.984 . S
N1344 H1357 0.985 . S
N1345 C1347 1.356 . S
N1345 H1350 0.984 . S
N1345 H1351 0.985 . S
C1346 C1340 1.379 . S
C1346 C1343 1.363 . S
C1346 N1344 1.356 . S
C1347 C1341 1.363 . S
C1347 C1342 1.379 . S
C1347 N1345 1.356 . S
N1348 C1340 1.356 . S
N1348 H1354 0.984 . S
N1348 H1355 0.984 . S
N1349 C1342 1.380 . S
N1349 H1352 0.971 1_545 S
N1349 H1353 0.975 1_545 S
H1350 N1345 0.984 . S
H1351 N1345 0.985 . S
H1352 N1349 0.971 1_565 S
H1353 N1349 0.975 1_565 S
H1354 N1348 0.984 . S
H1355 N1348 0.984 . S
H1356 N1344 0.984 . S
H1357 N1344 0.985 . S
C1358 C1359 1.363 . S
C1358 C1364 1.379 . S
C1358 N1366 1.356 . S
C1359 C1358 1.363 . S
C1359 C1365 1.363 . S
C1360 C1361 1.363 . S
C1360 C1365 1.379 . S
C1360 N1367 1.356 . S
C1361 C1360 1.363 . S
C1361 C1364 1.363 . S
N1362 C1364 1.356 . S
N1362 H1374 0.984 . S
N1362 H1375 0.985 . S
N1363 C1365 1.356 . S
N1363 H1368 0.984 . S
N1363 H1369 0.985 . S
C1364 C1358 1.379 . S
C1364 C1361 1.363 . S
C1364 N1362 1.356 . S
C1365 C1359 1.363 . S
C1365 C1360 1.379 . S
C1365 N1363 1.356 . S
N1366 C1358 1.356 . S
N1366 H1372 0.984 . S
N1366 H1373 0.984 . S
N1367 C1360 1.356 . S
N1367 H1370 0.984 1_455 S
N1367 H1371 0.991 . S
H1368 N1363 0.984 . S
H1369 N1363 0.985 . S
H1370 N1367 0.984 1_655 S
H1371 N1367 0.991 . S
H1372 N1366 0.984 . S
H1373 N1366 0.984 . S
H1374 N1362 0.984 . S
H1375 N1362 0.985 . S
C1376 C1377 1.363 . S
C1376 C1382 1.379 . S
C1376 N1384 1.356 . S
C1377 C1376 1.363 . S
C1377 C1383 1.363 . S
C1378 C1379 1.363 . S
C1378 C1383 1.379 . S
C1378 N1385 1.356 . S
C1379 C1378 1.363 . S
C1379 C1382 1.363 . S
N1380 C1382 1.356 . S
N1380 H1392 0.984 . S
N1380 H1393 0.985 . S
N1381 C1383 1.356 . S
N1381 H1386 0.984 . S
N1381 H1387 0.985 . S
C1382 C1376 1.379 . S
C1382 C1379 1.363 . S
C1382 N1380 1.356 . S
C1383 C1377 1.363 . S
C1383 C1378 1.379 . S
C1383 N1381 1.356 . S
N1384 C1376 1.356 . S
N1384 H1390 0.984 . S
N1384 H1391 0.984 . S
N1385 C1378 1.356 . S
N1385 H1388 0.984 . S
N1385 H1389 0.985 . S
H1386 N1381 0.984 . S
H1387 N1381 0.985 . S
H1388 N1385 0.984 . S
H1389 N1385 0.985 . S
H1390 N1384 0.984 . S
H1391 N1384 0.984 . S
H1392 N1380 0.984 . S
H1393 N1380 0.985 . S
C1394 C1395 1.363 . S
C1394 C1400 1.379 . S
C1394 N1402 1.356 . S
C1395 C1394 1.363 . S
C1395 C1401 1.363 . S
C1396 C1397 1.363 . S
C1396 C1401 1.379 . S
C1396 N1403 1.356 . S
C1397 C1396 1.363 . S
C1397 C1400 1.363 . S
N1398 C1400 1.356 . S
N1398 H1410 0.984 . S
N1398 H1411 0.985 . S
N1399 C1401 1.356 . S
N1399 H1404 0.984 . S
N1399 H1405 0.985 . S
C1400 C1394 1.379 . S
C1400 C1397 1.363 . S
C1400 N1398 1.356 . S
C1401 C1395 1.363 . S
C1401 C1396 1.379 . S
C1401 N1399 1.356 . S
N1402 C1394 1.356 . S
N1402 H1408 0.984 . S
N1402 H1409 0.984 . S
N1403 C1396 1.356 . S
N1403 H1406 0.984 . S
N1403 H1407 0.985 . S
H1404 N1399 0.984 . S
H1405 N1399 0.985 . S
H1406 N1403 0.984 . S
H1407 N1403 0.985 . S
H1408 N1402 0.984 . S
H1409 N1402 0.984 . S
H1410 N1398 0.984 . S
H1411 N1398 0.985 . S
C1412 C1413 1.363 . S
C1412 C1418 1.379 . S
C1412 N1420 1.356 . S
C1413 C1412 1.363 . S
C1413 C1419 1.363 . S
C1414 C1415 1.363 . S
C1414 C1419 1.379 . S
C1414 N1421 1.356 . S
C1415 C1414 1.363 . S
C1415 C1418 1.363 . S
N1416 C1418 1.356 . S
N1416 H1428 0.984 . S
N1416 H1429 0.985 . S
N1417 C1419 1.356 . S
N1417 H1422 0.984 . S
N1417 H1423 0.985 . S
C1418 C1412 1.379 . S
C1418 C1415 1.363 . S
C1418 N1416 1.356 . S
C1419 C1413 1.363 . S
C1419 C1414 1.379 . S
C1419 N1417 1.356 . S
N1420 C1412 1.356 . S
N1420 H1426 0.984 . S
N1420 H1427 0.984 . S
N1421 C1414 1.356 . S
N1421 H1424 0.984 . S
N1421 H1425 0.985 . S
H1422 N1417 0.984 . S
H1423 N1417 0.985 . S
H1424 N1421 0.984 . S
H1425 N1421 0.985 . S
H1426 N1420 0.984 . S
H1427 N1420 0.984 . S
H1428 N1416 0.984 . S
H1429 N1416 0.985 . S
C1430 C1431 1.363 . S
C1430 C1436 1.379 . S
C1430 N1438 1.356 . S
C1431 C1430 1.363 . S
C1431 C1437 1.363 . S
C1432 C1433 1.363 . S
C1432 C1437 1.379 . S
C1432 N1439 1.356 . S
C1433 C1432 1.363 . S
C1433 C1436 1.363 . S
N1434 C1436 1.356 . S
N1434 H1446 0.984 . S
N1434 H1447 0.985 . S
N1435 C1437 1.356 . S
N1435 H1440 0.984 . S
N1435 H1441 0.985 . S
C1436 C1430 1.379 . S
C1436 C1433 1.363 . S
C1436 N1434 1.356 . S
C1437 C1431 1.363 . S
C1437 C1432 1.379 . S
C1437 N1435 1.356 . S
N1438 C1430 1.356 . S
N1438 H1444 0.984 . S
N1438 H1445 0.984 . S
N1439 C1432 1.356 . S
N1439 H1442 0.984 . S
N1439 H1443 0.985 . S
H1440 N1435 0.984 . S
H1441 N1435 0.985 . S
H1442 N1439 0.984 . S
H1443 N1439 0.985 . S
H1444 N1438 0.984 . S
H1445 N1438 0.984 . S
H1446 N1434 0.984 . S
H1447 N1434 0.985 . S
C1448 C1449 1.363 1_565 S
C1448 C1454 1.379 1_554 S
C1448 N1456 1.356 . S
C1449 C1448 1.363 1_545 S
C1449 C1455 1.363 . S
C1450 C1451 1.363 1_545 S
C1450 C1455 1.379 1_556 S
C1450 N1457 1.356 . S
C1451 C1450 1.363 1_565 S
C1451 C1454 1.363 . S
N1452 C1454 1.356 . S
N1452 H1464 0.984 . S
N1452 H1465 0.985 . S
N1453 C1455 1.356 . S
N1453 H1458 0.984 . S
N1453 H1459 0.985 . S
C1454 C1448 1.379 1_556 S
C1454 C1451 1.363 . S
C1454 N1452 1.356 . S
C1455 C1449 1.363 . S
C1455 C1450 1.379 1_554 S
C1455 N1453 1.356 . S
N1456 C1448 1.356 . S
N1456 H1462 0.984 . S
N1456 H1463 0.984 . S
N1457 C1450 1.356 . S
N1457 H1460 0.984 . S
N1457 H1461 0.985 . S
H1458 N1453 0.984 . S
H1459 N1453 0.985 . S
H1460 N1457 0.984 . S
H1461 N1457 0.985 . S
H1462 N1456 0.984 . S
H1463 N1456 0.984 . S
H1464 N1452 0.984 . S
H1465 N1452 0.985 . S
C1466 C1467 1.363 1_655 S
C1466 C1472 1.379 1_556 S
C1466 N1474 1.356 . S
C1467 C1466 1.363 1_455 S
C1467 C1473 1.363 . S
C1468 C1469 1.363 1_455 S
C1468 C1473 1.379 1_554 S
C1468 N1475 1.356 . S
C1469 C1468 1.363 1_655 S
C1469 C1472 1.363 . S
N1470 C1472 1.356 . S
N1470 H1482 0.984 . S
N1470 H1483 0.985 . S
N1471 C1473 1.356 . S
N1471 H1476 0.984 . S
N1471 H1477 0.985 . S
C1472 C1466 1.379 1_554 S
C1472 C1469 1.363 . S
C1472 N1470 1.356 . S
C1473 C1467 1.363 . S
C1473 C1468 1.379 1_556 S
C1473 N1471 1.356 . S
N1474 C1466 1.356 . S
N1474 H1480 0.984 . S
N1474 H1481 0.984 . S
N1475 C1468 1.356 . S
N1475 H1478 0.984 . S
N1475 H1479 0.985 . S
H1476 N1471 0.984 . S
H1477 N1471 0.985 . S
H1478 N1475 0.984 . S
H1479 N1475 0.985 . S
H1480 N1474 0.984 . S
H1481 N1474 0.984 . S
H1482 N1470 0.984 . S
H1483 N1470 0.985 . S
C1484 C1485 1.363 . S
C1484 C1490 1.379 1_556 S
C1484 N1492 1.356 . S
C1485 C1484 1.363 . S
C1485 C1491 1.363 1_545 S
C1486 C1487 1.363 . S
C1486 C1491 1.379 1_554 S
C1486 N1493 1.356 . S
C1487 C1486 1.363 . S
C1487 C1490 1.363 1_565 S
N1488 C1490 1.356 . S
N1488 H1500 0.984 . S
N1488 H1501 0.985 . S
N1489 C1491 1.356 . S
N1489 H1494 0.984 . S
N1489 H1495 0.985 . S
C1490 C1484 1.379 1_554 S
C1490 C1487 1.363 1_545 S
C1490 N1488 1.356 . S
C1491 C1485 1.363 1_565 S
C1491 C1486 1.379 1_556 S
C1491 N1489 1.356 . S
N1492 C1484 1.356 . S
N1492 H1498 0.984 . S
N1492 H1499 0.984 . S
N1493 C1486 1.356 . S
N1493 H1496 0.984 . S
N1493 H1497 0.985 . S
H1494 N1489 0.984 . S
H1495 N1489 0.985 . S
H1496 N1493 0.984 . S
H1497 N1493 0.985 . S
H1498 N1492 0.984 . S
H1499 N1492 0.984 . S
H1500 N1488 0.984 . S
H1501 N1488 0.985 . S
C1502 C1503 1.363 . S
C1502 C1508 1.379 1_556 S
C1502 N1510 1.356 . S
C1503 C1502 1.363 . S
C1503 C1509 1.363 1_655 S
C1504 C1505 1.363 . S
C1504 C1509 1.379 1_554 S
C1504 N1511 1.356 . S
C1505 C1504 1.363 . S
C1505 C1508 1.363 1_455 S
N1506 C1508 1.356 . S
N1506 H1518 0.984 . S
N1506 H1519 0.985 . S
N1507 C1509 1.356 . S
N1507 H1512 0.984 . S
N1507 H1513 0.985 . S
C1508 C1502 1.379 1_554 S
C1508 C1505 1.363 1_655 S
C1508 N1506 1.356 . S
C1509 C1503 1.363 1_455 S
C1509 C1504 1.379 1_556 S
C1509 N1507 1.356 . S
N1510 C1502 1.356 . S
N1510 H1516 0.984 . S
N1510 H1517 0.984 . S
N1511 C1504 1.356 . S
N1511 H1514 0.984 . S
N1511 H1515 0.985 . S
H1512 N1507 0.984 . S
H1513 N1507 0.985 . S
H1514 N1511 0.984 . S
H1515 N1511 0.985 . S
H1516 N1510 0.984 . S
H1517 N1510 0.984 . S
H1518 N1506 0.984 . S
H1519 N1506 0.985 . S
C945 C5 1.409 . S
C947 C418 1.409 . S
C963 C64 1.409 . S
C965 C241 1.409 . S
C981 C300 1.409 . S
C983 C123 1.409 . S
C999 C182 1.409 . S
C1001 C359 1.409 . S
C1017 C477 1.409 . S
C1019 C890 1.409 . S
C1035 C713 1.409 . S
C1037 C536 1.409 . S
C1053 C772 1.409 . S
C1055 C595 1.409 . S
C1071 C831 1.409 . S
C1073 C654 1.409 . S
C1089 C52 1.531 . S
C1091 C682 1.530 . S
C1107 C111 1.531 . S
C1109 C505 1.530 . S
C1125 C564 1.530 . S
C1127 C170 1.531 . S
C1143 C229 1.531 . S
C1145 C623 1.530 . S
C1161 C288 1.531 . S
C1163 C800 1.530 . S
C1179 C859 1.530 . S
C1181 C347 1.531 . S
C1197 C406 1.531 . S
C1199 C918 1.530 . S
C1215 C741 1.530 . S
C1217 C465 1.531 . S
C1233 C524 1.531 . S
C1235 C210 1.530 . S
C1251 C33 1.530 . S
C1253 C583 1.531 . S
C1269 C642 1.531 . S
C1271 C92 1.530 . S
C1287 C151 1.530 . S
C1289 C701 1.531 . S
C1305 C760 1.531 . S
C1307 C328 1.530 . S
C1323 C387 1.530 . S
C1325 C819 1.531 . S
C1341 C446 1.530 . S
C1343 C878 1.531 . S
C1359 C269 1.530 . S
C1361 C937 1.531 . S
C1377 C239 1.612 . S
C1379 C3 1.612 . S
C1395 C298 1.612 . S
C1397 C62 1.612 . S
C1413 C121 1.612 . S
C1415 C357 1.612 . S
C1431 C416 1.612 . S
C1433 C180 1.612 . S
C1449 C711 1.612 . S
C1451 C475 1.612 . S
C1467 C770 1.612 . S
C1469 C534 1.612 . S
C1485 C593 1.612 . S
C1487 C829 1.612 . S
C1503 C888 1.612 . S
C1505 C652 1.612 . S
